# Generated by pormake.
# Topology rho, (4)-cn, num edge types: 1
# Building blocks:
#     Node 0, Type 0, BuildingBlock: GALJAG_clean_sbu_0, # of connection points: 4
#     Node 1, Type 0, BuildingBlock: GALJAG_clean_sbu_0, # of connection points: 4
#     Node 2, Type 0, BuildingBlock: GALJAG_clean_sbu_0, # of connection points: 4
#     Node 3, Type 0, BuildingBlock: GALJAG_clean_sbu_0, # of connection points: 4
#     Node 4, Type 0, BuildingBlock: GALJAG_clean_sbu_0, # of connection points: 4
#     Node 5, Type 0, BuildingBlock: GALJAG_clean_sbu_0, # of connection points: 4
#     Node 6, Type 0, BuildingBlock: GALJAG_clean_sbu_0, # of connection points: 4
#     Node 7, Type 0, BuildingBlock: GALJAG_clean_sbu_0, # of connection points: 4
#     Node 8, Type 0, BuildingBlock: GALJAG_clean_sbu_0, # of connection points: 4
#     Node 9, Type 0, BuildingBlock: GALJAG_clean_sbu_0, # of connection points: 4
#     Node 10, Type 0, BuildingBlock: GALJAG_clean_sbu_0, # of connection points: 4
#     Node 11, Type 0, BuildingBlock: GALJAG_clean_sbu_0, # of connection points: 4
#     Node 12, Type 0, BuildingBlock: GALJAG_clean_sbu_0, # of connection points: 4
#     Node 13, Type 0, BuildingBlock: GALJAG_clean_sbu_0, # of connection points: 4
#     Node 14, Type 0, BuildingBlock: GALJAG_clean_sbu_0, # of connection points: 4
#     Node 15, Type 0, BuildingBlock: GALJAG_clean_sbu_0, # of connection points: 4
#     Node 16, Type 0, BuildingBlock: GALJAG_clean_sbu_0, # of connection points: 4
#     Node 17, Type 0, BuildingBlock: GALJAG_clean_sbu_0, # of connection points: 4
#     Node 18, Type 0, BuildingBlock: GALJAG_clean_sbu_0, # of connection points: 4
#     Node 19, Type 0, BuildingBlock: GALJAG_clean_sbu_0, # of connection points: 4
#     Node 20, Type 0, BuildingBlock: GALJAG_clean_sbu_0, # of connection points: 4
#     Node 21, Type 0, BuildingBlock: GALJAG_clean_sbu_0, # of connection points: 4
#     Node 22, Type 0, BuildingBlock: GALJAG_clean_sbu_0, # of connection points: 4
#     Node 23, Type 0, BuildingBlock: GALJAG_clean_sbu_0, # of connection points: 4
#     Node 24, Type 0, BuildingBlock: GALJAG_clean_sbu_0, # of connection points: 4
#     Node 25, Type 0, BuildingBlock: GALJAG_clean_sbu_0, # of connection points: 4
#     Node 26, Type 0, BuildingBlock: GALJAG_clean_sbu_0, # of connection points: 4
#     Node 27, Type 0, BuildingBlock: GALJAG_clean_sbu_0, # of connection points: 4
#     Node 28, Type 0, BuildingBlock: GALJAG_clean_sbu_0, # of connection points: 4
#     Node 29, Type 0, BuildingBlock: GALJAG_clean_sbu_0, # of connection points: 4
#     Node 30, Type 0, BuildingBlock: GALJAG_clean_sbu_0, # of connection points: 4
#     Node 31, Type 0, BuildingBlock: GALJAG_clean_sbu_0, # of connection points: 4
#     Node 32, Type 0, BuildingBlock: GALJAG_clean_sbu_0, # of connection points: 4
#     Node 33, Type 0, BuildingBlock: GALJAG_clean_sbu_0, # of connection points: 4
#     Node 34, Type 0, BuildingBlock: GALJAG_clean_sbu_0, # of connection points: 4
#     Node 35, Type 0, BuildingBlock: GALJAG_clean_sbu_0, # of connection points: 4
#     Node 36, Type 0, BuildingBlock: GALJAG_clean_sbu_0, # of connection points: 4
#     Node 37, Type 0, BuildingBlock: GALJAG_clean_sbu_0, # of connection points: 4
#     Node 38, Type 0, BuildingBlock: GALJAG_clean_sbu_0, # of connection points: 4
#     Node 39, Type 0, BuildingBlock: GALJAG_clean_sbu_0, # of connection points: 4
#     Node 40, Type 0, BuildingBlock: GALJAG_clean_sbu_0, # of connection points: 4
#     Node 41, Type 0, BuildingBlock: GALJAG_clean_sbu_0, # of connection points: 4
#     Node 42, Type 0, BuildingBlock: GALJAG_clean_sbu_0, # of connection points: 4
#     Node 43, Type 0, BuildingBlock: GALJAG_clean_sbu_0, # of connection points: 4
#     Node 44, Type 0, BuildingBlock: GALJAG_clean_sbu_0, # of connection points: 4
#     Node 45, Type 0, BuildingBlock: GALJAG_clean_sbu_0, # of connection points: 4
#     Node 46, Type 0, BuildingBlock: GALJAG_clean_sbu_0, # of connection points: 4
#     Node 47, Type 0, BuildingBlock: GALJAG_clean_sbu_0, # of connection points: 4
#     Edge 48, Type (0, 0), BuildingBlock: UVAHIK_clean_linker_0, # of connection points: 2
#     Edge 49, Type (0, 0), BuildingBlock: UVAHIK_clean_linker_0, # of connection points: 2
#     Edge 50, Type (0, 0), BuildingBlock: UVAHIK_clean_linker_0, # of connection points: 2
#     Edge 51, Type (0, 0), BuildingBlock: UVAHIK_clean_linker_0, # of connection points: 2
#     Edge 52, Type (0, 0), BuildingBlock: UVAHIK_clean_linker_0, # of connection points: 2
#     Edge 53, Type (0, 0), BuildingBlock: UVAHIK_clean_linker_0, # of connection points: 2
#     Edge 54, Type (0, 0), BuildingBlock: UVAHIK_clean_linker_0, # of connection points: 2
#     Edge 55, Type (0, 0), BuildingBlock: UVAHIK_clean_linker_0, # of connection points: 2
#     Edge 56, Type (0, 0), BuildingBlock: UVAHIK_clean_linker_0, # of connection points: 2
#     Edge 57, Type (0, 0), BuildingBlock: UVAHIK_clean_linker_0, # of connection points: 2
#     Edge 58, Type (0, 0), BuildingBlock: UVAHIK_clean_linker_0, # of connection points: 2
#     Edge 59, Type (0, 0), BuildingBlock: UVAHIK_clean_linker_0, # of connection points: 2
#     Edge 60, Type (0, 0), BuildingBlock: UVAHIK_clean_linker_0, # of connection points: 2
#     Edge 61, Type (0, 0), BuildingBlock: UVAHIK_clean_linker_0, # of connection points: 2
#     Edge 62, Type (0, 0), BuildingBlock: UVAHIK_clean_linker_0, # of connection points: 2
#     Edge 63, Type (0, 0), BuildingBlock: UVAHIK_clean_linker_0, # of connection points: 2
#     Edge 64, Type (0, 0), BuildingBlock: UVAHIK_clean_linker_0, # of connection points: 2
#     Edge 65, Type (0, 0), BuildingBlock: UVAHIK_clean_linker_0, # of connection points: 2
#     Edge 66, Type (0, 0), BuildingBlock: UVAHIK_clean_linker_0, # of connection points: 2
#     Edge 67, Type (0, 0), BuildingBlock: UVAHIK_clean_linker_0, # of connection points: 2
#     Edge 68, Type (0, 0), BuildingBlock: UVAHIK_clean_linker_0, # of connection points: 2
#     Edge 69, Type (0, 0), BuildingBlock: UVAHIK_clean_linker_0, # of connection points: 2
#     Edge 70, Type (0, 0), BuildingBlock: UVAHIK_clean_linker_0, # of connection points: 2
#     Edge 71, Type (0, 0), BuildingBlock: UVAHIK_clean_linker_0, # of connection points: 2
#     Edge 72, Type (0, 0), BuildingBlock: UVAHIK_clean_linker_0, # of connection points: 2
#     Edge 73, Type (0, 0), BuildingBlock: UVAHIK_clean_linker_0, # of connection points: 2
#     Edge 74, Type (0, 0), BuildingBlock: UVAHIK_clean_linker_0, # of connection points: 2
#     Edge 75, Type (0, 0), BuildingBlock: UVAHIK_clean_linker_0, # of connection points: 2
#     Edge 76, Type (0, 0), BuildingBlock: UVAHIK_clean_linker_0, # of connection points: 2
#     Edge 77, Type (0, 0), BuildingBlock: UVAHIK_clean_linker_0, # of connection points: 2
#     Edge 78, Type (0, 0), BuildingBlock: UVAHIK_clean_linker_0, # of connection points: 2
#     Edge 79, Type (0, 0), BuildingBlock: UVAHIK_clean_linker_0, # of connection points: 2
#     Edge 80, Type (0, 0), BuildingBlock: UVAHIK_clean_linker_0, # of connection points: 2
#     Edge 81, Type (0, 0), BuildingBlock: UVAHIK_clean_linker_0, # of connection points: 2
#     Edge 82, Type (0, 0), BuildingBlock: UVAHIK_clean_linker_0, # of connection points: 2
#     Edge 83, Type (0, 0), BuildingBlock: UVAHIK_clean_linker_0, # of connection points: 2
#     Edge 84, Type (0, 0), BuildingBlock: UVAHIK_clean_linker_0, # of connection points: 2
#     Edge 85, Type (0, 0), BuildingBlock: UVAHIK_clean_linker_0, # of connection points: 2
#     Edge 86, Type (0, 0), BuildingBlock: UVAHIK_clean_linker_0, # of connection points: 2
#     Edge 87, Type (0, 0), BuildingBlock: UVAHIK_clean_linker_0, # of connection points: 2
#     Edge 88, Type (0, 0), BuildingBlock: UVAHIK_clean_linker_0, # of connection points: 2
#     Edge 89, Type (0, 0), BuildingBlock: UVAHIK_clean_linker_0, # of connection points: 2
#     Edge 90, Type (0, 0), BuildingBlock: UVAHIK_clean_linker_0, # of connection points: 2
#     Edge 91, Type (0, 0), BuildingBlock: UVAHIK_clean_linker_0, # of connection points: 2
#     Edge 92, Type (0, 0), BuildingBlock: UVAHIK_clean_linker_0, # of connection points: 2
#     Edge 93, Type (0, 0), BuildingBlock: UVAHIK_clean_linker_0, # of connection points: 2
#     Edge 94, Type (0, 0), BuildingBlock: UVAHIK_clean_linker_0, # of connection points: 2
#     Edge 95, Type (0, 0), BuildingBlock: UVAHIK_clean_linker_0, # of connection points: 2
#     Edge 96, Type (0, 0), BuildingBlock: UVAHIK_clean_linker_0, # of connection points: 2
#     Edge 97, Type (0, 0), BuildingBlock: UVAHIK_clean_linker_0, # of connection points: 2
#     Edge 98, Type (0, 0), BuildingBlock: UVAHIK_clean_linker_0, # of connection points: 2
#     Edge 99, Type (0, 0), BuildingBlock: UVAHIK_clean_linker_0, # of connection points: 2
#     Edge 100, Type (0, 0), BuildingBlock: UVAHIK_clean_linker_0, # of connection points: 2
#     Edge 101, Type (0, 0), BuildingBlock: UVAHIK_clean_linker_0, # of connection points: 2
#     Edge 102, Type (0, 0), BuildingBlock: UVAHIK_clean_linker_0, # of connection points: 2
#     Edge 103, Type (0, 0), BuildingBlock: UVAHIK_clean_linker_0, # of connection points: 2
#     Edge 104, Type (0, 0), BuildingBlock: UVAHIK_clean_linker_0, # of connection points: 2
#     Edge 105, Type (0, 0), BuildingBlock: UVAHIK_clean_linker_0, # of connection points: 2
#     Edge 106, Type (0, 0), BuildingBlock: UVAHIK_clean_linker_0, # of connection points: 2
#     Edge 107, Type (0, 0), BuildingBlock: UVAHIK_clean_linker_0, # of connection points: 2
#     Edge 108, Type (0, 0), BuildingBlock: UVAHIK_clean_linker_0, # of connection points: 2
#     Edge 109, Type (0, 0), BuildingBlock: UVAHIK_clean_linker_0, # of connection points: 2
#     Edge 110, Type (0, 0), BuildingBlock: UVAHIK_clean_linker_0, # of connection points: 2
#     Edge 111, Type (0, 0), BuildingBlock: UVAHIK_clean_linker_0, # of connection points: 2
#     Edge 112, Type (0, 0), BuildingBlock: UVAHIK_clean_linker_0, # of connection points: 2
#     Edge 113, Type (0, 0), BuildingBlock: UVAHIK_clean_linker_0, # of connection points: 2
#     Edge 114, Type (0, 0), BuildingBlock: UVAHIK_clean_linker_0, # of connection points: 2
#     Edge 115, Type (0, 0), BuildingBlock: UVAHIK_clean_linker_0, # of connection points: 2
#     Edge 116, Type (0, 0), BuildingBlock: UVAHIK_clean_linker_0, # of connection points: 2
#     Edge 117, Type (0, 0), BuildingBlock: UVAHIK_clean_linker_0, # of connection points: 2
#     Edge 118, Type (0, 0), BuildingBlock: UVAHIK_clean_linker_0, # of connection points: 2
#     Edge 119, Type (0, 0), BuildingBlock: UVAHIK_clean_linker_0, # of connection points: 2
#     Edge 120, Type (0, 0), BuildingBlock: UVAHIK_clean_linker_0, # of connection points: 2
#     Edge 121, Type (0, 0), BuildingBlock: UVAHIK_clean_linker_0, # of connection points: 2
#     Edge 122, Type (0, 0), BuildingBlock: UVAHIK_clean_linker_0, # of connection points: 2
#     Edge 123, Type (0, 0), BuildingBlock: UVAHIK_clean_linker_0, # of connection points: 2
#     Edge 124, Type (0, 0), BuildingBlock: UVAHIK_clean_linker_0, # of connection points: 2
#     Edge 125, Type (0, 0), BuildingBlock: UVAHIK_clean_linker_0, # of connection points: 2
#     Edge 126, Type (0, 0), BuildingBlock: UVAHIK_clean_linker_0, # of connection points: 2
#     Edge 127, Type (0, 0), BuildingBlock: UVAHIK_clean_linker_0, # of connection points: 2
#     Edge 128, Type (0, 0), BuildingBlock: UVAHIK_clean_linker_0, # of connection points: 2
#     Edge 129, Type (0, 0), BuildingBlock: UVAHIK_clean_linker_0, # of connection points: 2
#     Edge 130, Type (0, 0), BuildingBlock: UVAHIK_clean_linker_0, # of connection points: 2
#     Edge 131, Type (0, 0), BuildingBlock: UVAHIK_clean_linker_0, # of connection points: 2
#     Edge 132, Type (0, 0), BuildingBlock: UVAHIK_clean_linker_0, # of connection points: 2
#     Edge 133, Type (0, 0), BuildingBlock: UVAHIK_clean_linker_0, # of connection points: 2
#     Edge 134, Type (0, 0), BuildingBlock: UVAHIK_clean_linker_0, # of connection points: 2
#     Edge 135, Type (0, 0), BuildingBlock: UVAHIK_clean_linker_0, # of connection points: 2
#     Edge 136, Type (0, 0), BuildingBlock: UVAHIK_clean_linker_0, # of connection points: 2
#     Edge 137, Type (0, 0), BuildingBlock: UVAHIK_clean_linker_0, # of connection points: 2
#     Edge 138, Type (0, 0), BuildingBlock: UVAHIK_clean_linker_0, # of connection points: 2
#     Edge 139, Type (0, 0), BuildingBlock: UVAHIK_clean_linker_0, # of connection points: 2
#     Edge 140, Type (0, 0), BuildingBlock: UVAHIK_clean_linker_0, # of connection points: 2
#     Edge 141, Type (0, 0), BuildingBlock: UVAHIK_clean_linker_0, # of connection points: 2
#     Edge 142, Type (0, 0), BuildingBlock: UVAHIK_clean_linker_0, # of connection points: 2
#     Edge 143, Type (0, 0), BuildingBlock: UVAHIK_clean_linker_0, # of connection points: 2
# Relax obj value: 0.062
# Max RMSD: 0.056
# Mean RMSD: 0.055
data_MOF--net-rho--node1-GALJAG_clean_sbu_0--edge1-UVAHIK_clean_linker_0
_symmetry_space_group_name_H-M    P1
_symmetry_Int_Tables_number       1
_symmetry_cell_setting            triclinic
loop_
_symmetry_equiv_pos_as_xyz
'x, y, z'
_cell_length_a     94.533598
_cell_length_b     94.531318
_cell_length_c     94.510854
_cell_angle_alpha  90.049886
_cell_angle_beta   90.011167
_cell_angle_gamma 90.13075
loop_
_atom_site_label
_atom_site_type_symbol
_atom_site_fract_x
_atom_site_fract_y
_atom_site_fract_z
_atom_type_partial_charge
In0 In 0.09936 0.24541 0.39153 0.0
O1 O 0.10643 0.25642 0.41187 0.0
O2 O 0.09915 0.23518 0.41327 0.0
C3 C 0.10428 0.26627 0.37281 0.0
C4 C 0.11889 0.22617 0.38398 0.0
C5 C 0.07094 0.24344 0.39008 0.0
O6 O 0.10616 0.26788 0.38594 0.0
O7 O 0.09987 0.2542 0.36918 0.0
O8 O 0.07897 0.23421 0.38475 0.0
O9 O 0.07726 0.25358 0.39603 0.0
C10 C 0.10395 0.24588 0.41967 0.0
O11 O 0.10582 0.22335 0.38408 0.0
O12 O 0.122 0.23864 0.38757 0.0
In13 In 0.74417 0.10049 0.39063 0.0
O14 O 0.7554 0.08021 0.38376 0.0
O15 O 0.73577 0.07832 0.39454 0.0
C16 C 0.7637 0.11986 0.38317 0.0
C17 C 0.72331 0.10582 0.37202 0.0
C18 C 0.74361 0.1044 0.41889 0.0
O19 O 0.76631 0.10677 0.38329 0.0
O20 O 0.75127 0.1231 0.38676 0.0
O21 O 0.73305 0.10689 0.41112 0.0
O22 O 0.7544 0.10004 0.41239 0.0
C23 C 0.74604 0.07209 0.38876 0.0
O24 O 0.72187 0.1078 0.38515 0.0
O25 O 0.73523 0.10111 0.36833 0.0
In26 In 0.89025 0.74502 0.391 0.0
O27 O 0.88386 0.76713 0.38373 0.0
O28 O 0.86757 0.75222 0.38817 0.0
C29 C 0.91853 0.74637 0.3875 0.0
C30 C 0.88735 0.74447 0.41937 0.0
C31 C 0.88376 0.72423 0.37266 0.0
O32 O 0.91042 0.7562 0.38358 0.0
O33 O 0.91238 0.73597 0.39315 0.0
O34 O 0.88282 0.72265 0.38589 0.0
O35 O 0.88799 0.73628 0.36873 0.0
C36 C 0.87076 0.76459 0.38429 0.0
O37 O 0.88415 0.73406 0.41164 0.0
O38 O 0.89203 0.75509 0.4128 0.0
In39 In 0.24406 0.89254 0.38991 0.0
O40 O 0.23221 0.91227 0.38245 0.0
O41 O 0.25349 0.91462 0.38934 0.0
C42 C 0.22415 0.87253 0.38615 0.0
C43 C 0.26343 0.88485 0.37055 0.0
C44 C 0.2463 0.89191 0.41832 0.0
O45 O 0.22181 0.88545 0.38368 0.0
O46 O 0.23647 0.8698 0.39044 0.0
O47 O 0.2559 0.88724 0.4103 0.0
O48 O 0.23568 0.89689 0.412 0.0
C49 C 0.24253 0.92051 0.38459 0.0
O50 O 0.2663 0.88574 0.38357 0.0
O51 O 0.25082 0.88781 0.36735 0.0
In52 In 0.09962 0.7446 0.59933 0.0
O53 O 0.07952 0.75633 0.60593 0.0
O54 O 0.07733 0.73658 0.59538 0.0
C55 C 0.11948 0.76398 0.60591 0.0
C56 C 0.10449 0.72426 0.61864 0.0
C57 C 0.10336 0.74303 0.5711 0.0
O58 O 0.10643 0.76678 0.60616 0.0
O59 O 0.12243 0.75144 0.60247 0.0
O60 O 0.10563 0.73265 0.57918 0.0
O61 O 0.09928 0.75412 0.57728 0.0
C62 C 0.07127 0.74703 0.601 0.0
O63 O 0.10671 0.72243 0.6056 0.0
O64 O 0.09983 0.73632 0.6219 0.0
In65 In 0.24432 0.09844 0.59939 0.0
O66 O 0.22224 0.10357 0.60764 0.0
O67 O 0.23572 0.12068 0.60193 0.0
C68 C 0.24415 0.07005 0.60209 0.0
C69 C 0.24485 0.10153 0.57102 0.0
C70 C 0.26461 0.10555 0.61808 0.0
O71 O 0.2338 0.07761 0.60578 0.0
O72 O 0.25452 0.07682 0.5971 0.0
O73 O 0.26621 0.10704 0.60491 0.0
O74 O 0.25282 0.10048 0.62176 0.0
C75 C 0.22384 0.11679 0.60662 0.0
O76 O 0.25507 0.10517 0.57881 0.0
O77 O 0.2344 0.09642 0.57755 0.0
In78 In 0.89202 0.24502 0.59817 0.0
O79 O 0.88563 0.2672 0.6052 0.0
O80 O 0.89148 0.25231 0.62101 0.0
C81 C 0.88718 0.24654 0.57013 0.0
C82 C 0.92046 0.24335 0.59916 0.0
C83 C 0.8726 0.22535 0.60495 0.0
O84 O 0.88468 0.25677 0.57835 0.0
O85 O 0.89211 0.23568 0.57607 0.0
O86 O 0.8857 0.22273 0.60495 0.0
O87 O 0.8694 0.23787 0.60166 0.0
C88 C 0.88741 0.26469 0.6182 0.0
O89 O 0.91257 0.23358 0.60374 0.0
O90 O 0.91399 0.25386 0.59415 0.0
In91 In 0.74407 0.89009 0.59934 0.0
O92 O 0.73232 0.8849 0.57885 0.0
O93 O 0.75389 0.89104 0.57738 0.0
C94 C 0.72365 0.88364 0.61808 0.0
C95 C 0.76351 0.87045 0.606 0.0
C96 C 0.74606 0.91837 0.60272 0.0
O97 O 0.72199 0.88215 0.60491 0.0
O98 O 0.73557 0.88844 0.62174 0.0
O99 O 0.75592 0.91008 0.60615 0.0
O100 O 0.73528 0.91239 0.5976 0.0
C101 C 0.74282 0.88724 0.57096 0.0
O102 O 0.76612 0.88354 0.6066 0.0
O103 O 0.75114 0.86734 0.60205 0.0
In104 In 0.38841 0.09845 0.2445 0.0
O105 O 0.38368 0.10615 0.26686 0.0
O106 O 0.36631 0.10246 0.25304 0.0
C107 C 0.41693 0.0996 0.24545 0.0
C108 C 0.38329 0.07038 0.2436 0.0
C109 C 0.38256 0.11753 0.22419 0.0
O110 O 0.40925 0.10441 0.25522 0.0
O111 O 0.41024 0.09426 0.2352 0.0
O112 O 0.38042 0.10446 0.22254 0.0
O113 O 0.38767 0.12094 0.23604 0.0
C114 C 0.37044 0.10625 0.26516 0.0
O115 O 0.3809 0.0784 0.23321 0.0
O116 O 0.38824 0.07651 0.25437 0.0
In117 In 0.89221 0.39041 0.24533 0.0
O118 O 0.91277 0.38381 0.2345 0.0
O119 O 0.91396 0.39212 0.25538 0.0
C120 C 0.87335 0.38381 0.22503 0.0
C121 C 0.88505 0.37181 0.26564 0.0
C122 C 0.89009 0.41881 0.24598 0.0
O123 O 0.88648 0.38203 0.22342 0.0
O124 O 0.8698 0.3889 0.23684 0.0
O125 O 0.88621 0.41112 0.25619 0.0
O126 O 0.89491 0.41215 0.23548 0.0
C127 C 0.92051 0.3872 0.24485 0.0
O128 O 0.88374 0.385 0.26727 0.0
O129 O 0.88991 0.36807 0.25379 0.0
In130 In 0.59884 0.89149 0.24549 0.0
O131 O 0.60584 0.88399 0.26732 0.0
O132 O 0.62172 0.88857 0.25202 0.0
C133 C 0.57048 0.89055 0.24815 0.0
C134 C 0.60303 0.91965 0.24463 0.0
C135 C 0.60295 0.87193 0.22521 0.0
O136 O 0.57864 0.88553 0.25744 0.0
O137 O 0.57664 0.89588 0.23758 0.0
O138 O 0.60503 0.88495 0.22306 0.0
O139 O 0.59886 0.86886 0.23754 0.0
C140 C 0.61888 0.88464 0.26446 0.0
O141 O 0.60525 0.91183 0.23401 0.0
O142 O 0.5988 0.91323 0.25553 0.0
In143 In 0.09955 0.59939 0.24299 0.0
O144 O 0.10731 0.57937 0.2541 0.0
O145 O 0.09773 0.5772 0.23388 0.0
C146 C 0.10544 0.61891 0.26291 0.0
C147 C 0.11814 0.60631 0.22259 0.0
C148 C 0.07116 0.6019 0.24204 0.0
O149 O 0.1063 0.60581 0.26531 0.0
O150 O 0.10172 0.62209 0.2505 0.0
O151 O 0.079 0.60541 0.23182 0.0
O152 O 0.07764 0.59706 0.25264 0.0
C153 C 0.10351 0.57117 0.24426 0.0
O154 O 0.10493 0.60685 0.22071 0.0
O155 O 0.12193 0.60227 0.23473 0.0
In156 In 0.39145 0.89149 0.74505 0.0
O157 O 0.38479 0.88526 0.76744 0.0
O158 O 0.38812 0.86889 0.75237 0.0
C159 C 0.38772 0.91975 0.74603 0.0
C160 C 0.41981 0.88853 0.74453 0.0
C161 C 0.37314 0.88495 0.72425 0.0
O162 O 0.38345 0.91165 0.75576 0.0
O163 O 0.39387 0.91358 0.73593 0.0
O164 O 0.38637 0.88414 0.72264 0.0
O165 O 0.3692 0.88907 0.73633 0.0
C166 C 0.38482 0.87215 0.76487 0.0
O167 O 0.41203 0.88481 0.73433 0.0
O168 O 0.41329 0.89377 0.75491 0.0
In169 In 0.0994 0.39055 0.74443 0.0
O170 O 0.10518 0.41118 0.73317 0.0
O171 O 0.09723 0.41244 0.75416 0.0
C172 C 0.10544 0.37174 0.72393 0.0
C173 C 0.11938 0.38445 0.76376 0.0
C174 C 0.0712 0.3868 0.74646 0.0
O175 O 0.10638 0.38492 0.72202 0.0
O176 O 0.10148 0.36811 0.73615 0.0
O177 O 0.07956 0.38337 0.75628 0.0
O178 O 0.07707 0.3921 0.73572 0.0
C179 C 0.10182 0.41897 0.74348 0.0
O180 O 0.10634 0.38338 0.76641 0.0
O181 O 0.12228 0.38853 0.75139 0.0
In182 In 0.59758 0.09877 0.74237 0.0
O183 O 0.60426 0.0783 0.75334 0.0
O184 O 0.59597 0.07699 0.73245 0.0
C185 C 0.60297 0.1181 0.76253 0.0
C186 C 0.61742 0.10524 0.72304 0.0
C187 C 0.5692 0.10086 0.7411 0.0
O188 O 0.60416 0.10499 0.76475 0.0
O189 O 0.59911 0.12138 0.75018 0.0
O190 O 0.57707 0.10525 0.73122 0.0
O191 O 0.57567 0.09555 0.75147 0.0
C192 C 0.60092 0.0705 0.743 0.0
O193 O 0.60436 0.10593 0.72029 0.0
O194 O 0.62035 0.10141 0.73548 0.0
In195 In 0.88979 0.59865 0.74381 0.0
O196 O 0.91031 0.60517 0.75488 0.0
O197 O 0.91174 0.59525 0.73475 0.0
C198 C 0.87054 0.60565 0.76357 0.0
C199 C 0.88435 0.61779 0.72351 0.0
C200 C 0.8861 0.57039 0.7429 0.0
O201 O 0.88366 0.60574 0.76608 0.0
O202 O 0.86721 0.6021 0.75114 0.0
O203 O 0.88318 0.57828 0.73253 0.0
O204 O 0.89078 0.57678 0.75364 0.0
C205 C 0.9182 0.60067 0.74509 0.0
O206 O 0.88226 0.60471 0.72172 0.0
O207 O 0.88913 0.62114 0.73552 0.0
In208 In 0.24317 0.38929 0.09967 0.0
O209 O 0.26502 0.38313 0.10779 0.0
O210 O 0.25181 0.36688 0.09951 0.0
C211 C 0.24412 0.41738 0.1046 0.0
C212 C 0.242 0.38856 0.07118 0.0
C213 C 0.22307 0.38114 0.11812 0.0
O214 O 0.25453 0.40938 0.10691 0.0
O215 O 0.23327 0.4112 0.09985 0.0
O216 O 0.22113 0.38094 0.10491 0.0
O217 O 0.23512 0.38542 0.12196 0.0
C218 C 0.26353 0.37016 0.10499 0.0
O219 O 0.23204 0.38405 0.07885 0.0
O220 O 0.25249 0.39337 0.07788 0.0
In221 In 0.24396 0.59963 0.89048 0.0
O222 O 0.25525 0.57956 0.883 0.0
O223 O 0.23428 0.57768 0.8909 0.0
C224 C 0.26381 0.61945 0.88548 0.0
C225 C 0.22353 0.60724 0.8722 0.0
C226 C 0.24333 0.60023 0.91898 0.0
O227 O 0.2658 0.60654 0.88271 0.0
O228 O 0.25183 0.62229 0.89061 0.0
O229 O 0.23313 0.60454 0.91152 0.0
O230 O 0.25376 0.59568 0.91205 0.0
C231 C 0.24497 0.57151 0.88589 0.0
O232 O 0.22177 0.60754 0.88544 0.0
O233 O 0.23559 0.60315 0.86823 0.0
In234 In 0.39167 0.24412 0.89129 0.0
O235 O 0.38709 0.23273 0.91213 0.0
O236 O 0.39596 0.25337 0.91309 0.0
C237 C 0.38403 0.2239 0.87271 0.0
C238 C 0.3717 0.26387 0.88679 0.0
C239 C 0.41958 0.24582 0.88574 0.0
O240 O 0.384 0.22187 0.88591 0.0
O241 O 0.38783 0.23614 0.86894 0.0
O242 O 0.41126 0.25599 0.88346 0.0
O243 O 0.41381 0.23489 0.89079 0.0
C244 C 0.39149 0.24275 0.9198 0.0
O245 O 0.38462 0.26609 0.88424 0.0
O246 O 0.3689 0.25171 0.89151 0.0
In247 In 0.74372 0.3927 0.89111 0.0
O248 O 0.76595 0.38623 0.88444 0.0
O249 O 0.75079 0.39023 0.86829 0.0
C250 C 0.74603 0.39048 0.91945 0.0
C251 C 0.74142 0.42089 0.88744 0.0
C252 C 0.72445 0.37234 0.88604 0.0
O253 O 0.75599 0.38718 0.91119 0.0
O254 O 0.73503 0.39495 0.9134 0.0
O255 O 0.72171 0.38531 0.8844 0.0
O256 O 0.73687 0.36973 0.89013 0.0
C257 C 0.76331 0.38678 0.87136 0.0
O258 O 0.73128 0.41253 0.88497 0.0
O259 O 0.75256 0.41502 0.8918 0.0
In260 In 0.59862 0.74716 0.88966 0.0
O261 O 0.60606 0.7254 0.88226 0.0
O262 O 0.62128 0.73949 0.89104 0.0
C263 C 0.57082 0.74544 0.88342 0.0
C264 C 0.59811 0.74862 0.91813 0.0
C265 C 0.60724 0.76745 0.87166 0.0
O266 O 0.57915 0.73518 0.88163 0.0
O267 O 0.57654 0.75649 0.88827 0.0
O268 O 0.60666 0.76937 0.88486 0.0
O269 O 0.60346 0.75531 0.86756 0.0
C270 C 0.6188 0.72751 0.88571 0.0
O271 O 0.60245 0.7587 0.91053 0.0
O272 O 0.59397 0.73789 0.91137 0.0
In273 In 0.74533 0.59837 0.09974 0.0
O274 O 0.75721 0.60445 0.07955 0.0
O275 O 0.73663 0.59555 0.07758 0.0
C276 C 0.76466 0.60441 0.11974 0.0
C277 C 0.72549 0.61808 0.10479 0.0
C278 C 0.74403 0.57005 0.10262 0.0
O279 O 0.76728 0.60566 0.1067 0.0
O280 O 0.75231 0.60022 0.12262 0.0
O281 O 0.73381 0.57797 0.10598 0.0
O282 O 0.75477 0.57645 0.09796 0.0
C283 C 0.74739 0.60045 0.0714 0.0
O284 O 0.72305 0.60502 0.10626 0.0
O285 O 0.73788 0.6211 0.10088 0.0
In286 In 0.38994 0.74394 0.09956 0.0
O287 O 0.38272 0.76606 0.1061 0.0
O288 O 0.38894 0.7517 0.12223 0.0
C289 C 0.38728 0.74532 0.0712 0.0
C290 C 0.4183 0.74267 0.10177 0.0
C291 C 0.37091 0.72377 0.1061 0.0
O292 O 0.38318 0.75519 0.07921 0.0
O293 O 0.39248 0.73481 0.07752 0.0
O294 O 0.38405 0.72201 0.10763 0.0
O295 O 0.36739 0.7357 0.10131 0.0
C296 C 0.3846 0.76392 0.11915 0.0
O297 O 0.41041 0.73241 0.1051 0.0
O298 O 0.41186 0.75349 0.09741 0.0
In299 In 0.59809 0.24508 0.09885 0.0
O300 O 0.5784 0.25726 0.1058 0.0
O301 O 0.57589 0.23596 0.09897 0.0
C302 C 0.61833 0.26462 0.10337 0.0
C303 C 0.60447 0.22557 0.11852 0.0
C304 C 0.59899 0.24283 0.07042 0.0
O305 O 0.60537 0.26723 0.10521 0.0
O306 O 0.62101 0.25222 0.09927 0.0
O307 O 0.60355 0.23321 0.07847 0.0
O308 O 0.59407 0.2535 0.07673 0.0
C309 C 0.57007 0.24703 0.10359 0.0
O310 O 0.60469 0.22283 0.10544 0.0
O311 O 0.60119 0.23813 0.12158 0.0
In312 In 0.89111 0.74627 0.59925 0.0
O313 O 0.88463 0.73505 0.57885 0.0
O314 O 0.89137 0.75647 0.57749 0.0
C315 C 0.88627 0.72537 0.61794 0.0
C316 C 0.87129 0.76523 0.60675 0.0
C317 C 0.9195 0.74842 0.60081 0.0
O318 O 0.88414 0.72387 0.60484 0.0
O319 O 0.89087 0.73738 0.62156 0.0
O320 O 0.91141 0.75771 0.60595 0.0
O321 O 0.91325 0.73814 0.59503 0.0
C322 C 0.887 0.74562 0.57105 0.0
O323 O 0.88432 0.76821 0.60675 0.0
O324 O 0.86837 0.75274 0.60305 0.0
In325 In 0.2472 0.88985 0.59876 0.0
O326 O 0.23622 0.91014 0.60606 0.0
O327 O 0.25682 0.91177 0.59717 0.0
C328 C 0.22737 0.87026 0.60471 0.0
C329 C 0.26759 0.88308 0.61738 0.0
C330 C 0.24789 0.88824 0.5703 0.0
O331 O 0.2251 0.88335 0.60611 0.0
O332 O 0.23958 0.86714 0.60036 0.0
O333 O 0.25807 0.88418 0.57792 0.0
O334 O 0.23741 0.89295 0.57706 0.0
C335 C 0.24635 0.91809 0.60246 0.0
O336 O 0.26934 0.88202 0.60417 0.0
O337 O 0.25557 0.88749 0.62113 0.0
In338 In 0.10101 0.24382 0.59914 0.0
O339 O 0.10889 0.25461 0.57901 0.0
O340 O 0.10047 0.23383 0.57724 0.0
C341 C 0.1066 0.2645 0.61796 0.0
C342 C 0.11912 0.22343 0.60722 0.0
C343 C 0.07251 0.24287 0.60016 0.0
O344 O 0.10858 0.26603 0.60485 0.0
O345 O 0.10184 0.25255 0.62154 0.0
O346 O 0.08014 0.233 0.60484 0.0
O347 O 0.07925 0.25319 0.59505 0.0
C348 C 0.10586 0.24433 0.57103 0.0
O349 O 0.10588 0.22177 0.60756 0.0
O350 O 0.12318 0.23537 0.60285 0.0
In351 In 0.74644 0.09806 0.59881 0.0
O352 O 0.75808 0.07795 0.60551 0.0
O353 O 0.73742 0.07588 0.5969 0.0
C354 C 0.76607 0.11781 0.60483 0.0
C355 C 0.72646 0.10392 0.61819 0.0
C356 C 0.74486 0.10121 0.57051 0.0
O357 O 0.7687 0.10474 0.60543 0.0
O358 O 0.75358 0.12084 0.60127 0.0
O359 O 0.7348 0.10449 0.57863 0.0
O360 O 0.75562 0.09631 0.57666 0.0
C361 C 0.74809 0.06978 0.60202 0.0
O362 O 0.7241 0.10464 0.60506 0.0
O363 O 0.73887 0.10031 0.62149 0.0
In364 In 0.89056 0.2452 0.39096 0.0
O365 O 0.88346 0.26748 0.38527 0.0
O366 O 0.89028 0.25399 0.3686 0.0
C367 C 0.88573 0.24625 0.41903 0.0
C368 C 0.919 0.24331 0.3896 0.0
C369 C 0.87118 0.22574 0.38332 0.0
O370 O 0.8837 0.25672 0.41103 0.0
O371 O 0.89017 0.23529 0.41286 0.0
O372 O 0.8842 0.22289 0.38408 0.0
O373 O 0.86804 0.23833 0.38635 0.0
C374 C 0.88557 0.26595 0.37218 0.0
O375 O 0.91098 0.23411 0.38416 0.0
O376 O 0.91268 0.25338 0.39561 0.0
In377 In 0.74572 0.89186 0.39131 0.0
O378 O 0.7337 0.88536 0.41126 0.0
O379 O 0.75514 0.89186 0.41338 0.0
C380 C 0.72599 0.88708 0.37135 0.0
C381 C 0.76504 0.87215 0.38458 0.0
C382 C 0.74779 0.92026 0.39005 0.0
O383 O 0.72359 0.88513 0.38435 0.0
O384 O 0.73829 0.89144 0.3685 0.0
O385 O 0.75742 0.91225 0.38545 0.0
O386 O 0.73723 0.91393 0.39518 0.0
C387 C 0.74404 0.88756 0.41943 0.0
O388 O 0.76791 0.88521 0.38456 0.0
O389 O 0.75248 0.86913 0.38794 0.0
In390 In 0.09827 0.744 0.39126 0.0
O391 O 0.10498 0.72185 0.38438 0.0
O392 O 0.10084 0.73714 0.36841 0.0
C393 C 0.10099 0.74203 0.41957 0.0
C394 C 0.07 0.74574 0.38798 0.0
C395 C 0.11797 0.76394 0.38624 0.0
O396 O 0.1044 0.73205 0.41138 0.0
O397 O 0.09616 0.75285 0.41348 0.0
O398 O 0.1049 0.76629 0.38481 0.0
O399 O 0.12103 0.75153 0.39006 0.0
C400 C 0.10441 0.72463 0.37132 0.0
O401 O 0.0782 0.75576 0.38468 0.0
O402 O 0.07606 0.73496 0.39293 0.0
In403 In 0.24486 0.09955 0.39056 0.0
O404 O 0.25585 0.10521 0.41136 0.0
O405 O 0.23512 0.09658 0.41238 0.0
C406 C 0.26552 0.1064 0.37223 0.0
C407 C 0.22545 0.11945 0.38456 0.0
C408 C 0.24309 0.07147 0.38582 0.0
O409 O 0.26738 0.10656 0.38546 0.0
O410 O 0.25328 0.10277 0.36831 0.0
O411 O 0.23314 0.07982 0.38283 0.0
O412 O 0.25384 0.07728 0.3912 0.0
C413 C 0.24564 0.10136 0.41906 0.0
O414 O 0.22286 0.1064 0.3834 0.0
O415 O 0.23778 0.1224 0.38874 0.0
In416 In 0.59983 0.89014 0.74516 0.0
O417 O 0.6084 0.88562 0.76725 0.0
O418 O 0.60307 0.86812 0.75413 0.0
C419 C 0.60222 0.91855 0.74486 0.0
C420 C 0.57153 0.88648 0.74507 0.0
C421 C 0.61829 0.88306 0.72471 0.0
O422 O 0.60605 0.91119 0.7553 0.0
O423 O 0.59723 0.91158 0.73463 0.0
O424 O 0.60511 0.88138 0.72331 0.0
O425 O 0.62209 0.88831 0.73638 0.0
C426 C 0.60775 0.87235 0.76589 0.0
O427 O 0.57925 0.88275 0.73484 0.0
O428 O 0.57809 0.89196 0.75531 0.0
In429 In 0.09868 0.59897 0.74616 0.0
O430 O 0.10681 0.60504 0.72425 0.0
O431 O 0.09942 0.62145 0.73773 0.0
C432 C 0.10261 0.57074 0.74527 0.0
C433 C 0.07023 0.6006 0.7468 0.0
C434 C 0.11708 0.60646 0.7666 0.0
O435 O 0.10582 0.57872 0.73506 0.0
O436 O 0.09753 0.57702 0.75588 0.0
O437 O 0.10386 0.60687 0.76839 0.0
O438 O 0.12097 0.6023 0.75453 0.0
C439 C 0.10456 0.6181 0.72589 0.0
O440 O 0.07786 0.60495 0.75687 0.0
O441 O 0.07695 0.59549 0.73648 0.0
In442 In 0.38879 0.09957 0.74491 0.0
O443 O 0.40928 0.10597 0.73378 0.0
O444 O 0.41081 0.09642 0.75405 0.0
C445 C 0.37013 0.10692 0.72469 0.0
C446 C 0.38283 0.11815 0.76569 0.0
C447 C 0.38496 0.07129 0.74542 0.0
O448 O 0.38333 0.10796 0.72297 0.0
O449 O 0.36639 0.10221 0.7366 0.0
O450 O 0.38135 0.07918 0.75557 0.0
O451 O 0.39041 0.07767 0.73506 0.0
C452 C 0.41722 0.10166 0.74359 0.0
O453 O 0.3816 0.10496 0.76732 0.0
O454 O 0.38706 0.12193 0.75362 0.0
In455 In 0.89168 0.39057 0.74616 0.0
O456 O 0.88546 0.41064 0.73423 0.0
O457 O 0.89369 0.41281 0.75505 0.0
C458 C 0.88616 0.37083 0.72642 0.0
C459 C 0.87158 0.38508 0.76555 0.0
C460 C 0.91992 0.38735 0.74813 0.0
O461 O 0.88528 0.38391 0.72386 0.0
O462 O 0.8897 0.36778 0.73891 0.0
O463 O 0.91168 0.38394 0.75807 0.0
O464 O 0.91391 0.39241 0.73736 0.0
C465 C 0.88885 0.41886 0.7442 0.0
O466 O 0.88461 0.38431 0.76839 0.0
O467 O 0.86878 0.38852 0.75296 0.0
In468 In 0.59755 0.09955 0.24598 0.0
O469 O 0.57666 0.10508 0.25686 0.0
O470 O 0.57584 0.09574 0.23642 0.0
C471 C 0.61629 0.10666 0.2662 0.0
C472 C 0.6031 0.11916 0.22611 0.0
C473 C 0.60188 0.07142 0.24514 0.0
O474 O 0.60309 0.10743 0.26812 0.0
O475 O 0.61995 0.1024 0.25409 0.0
O476 O 0.60478 0.07936 0.23479 0.0
O477 O 0.59689 0.0777 0.25579 0.0
C478 C 0.56906 0.10063 0.24681 0.0
O479 O 0.60482 0.1061 0.22389 0.0
O480 O 0.59865 0.12224 0.23831 0.0
In481 In 0.89154 0.59929 0.24649 0.0
O482 O 0.91146 0.60691 0.23506 0.0
O483 O 0.91367 0.59833 0.25572 0.0
C484 C 0.87159 0.60479 0.22696 0.0
C485 C 0.88445 0.61766 0.26702 0.0
C486 C 0.89025 0.57083 0.24715 0.0
O487 O 0.88459 0.60676 0.22459 0.0
O488 O 0.86874 0.60014 0.23913 0.0
O489 O 0.8864 0.57839 0.25746 0.0
O490 O 0.8947 0.57764 0.23658 0.0
C491 C 0.91968 0.60366 0.24507 0.0
O492 O 0.88393 0.60443 0.26878 0.0
O493 O 0.88854 0.62156 0.25493 0.0
In494 In 0.39041 0.89165 0.24619 0.0
O495 O 0.38282 0.91127 0.2343 0.0
O496 O 0.38896 0.91361 0.25581 0.0
C497 C 0.38738 0.87203 0.22576 0.0
C498 C 0.37083 0.88349 0.26519 0.0
C499 C 0.41878 0.89175 0.24913 0.0
O500 O 0.38458 0.88492 0.22373 0.0
O501 O 0.39169 0.86911 0.23805 0.0
O502 O 0.41069 0.88611 0.25814 0.0
O503 O 0.41254 0.89728 0.23873 0.0
C504 C 0.3844 0.91947 0.24474 0.0
O505 O 0.38374 0.8848 0.26836 0.0
O506 O 0.36787 0.88621 0.25247 0.0
In507 In 0.1007 0.39139 0.24559 0.0
O508 O 0.10842 0.38579 0.26779 0.0
O509 O 0.10208 0.36903 0.25417 0.0
C510 C 0.10477 0.41966 0.24596 0.0
C511 C 0.07228 0.38914 0.24488 0.0
C512 C 0.11881 0.38342 0.22513 0.0
O513 O 0.10832 0.41182 0.25615 0.0
O514 O 0.09923 0.41324 0.23566 0.0
O515 O 0.10556 0.38293 0.22356 0.0
O516 O 0.1229 0.38797 0.237 0.0
C517 C 0.10673 0.37265 0.26614 0.0
O518 O 0.08003 0.3853 0.23472 0.0
O519 O 0.07887 0.39416 0.25535 0.0
In520 In 0.74544 0.59998 0.89111 0.0
O521 O 0.72357 0.60736 0.88412 0.0
O522 O 0.73797 0.62276 0.89209 0.0
C523 C 0.74304 0.57197 0.8863 0.0
C524 C 0.74786 0.60063 0.91952 0.0
C525 C 0.76486 0.60693 0.87148 0.0
O526 O 0.7328 0.58035 0.88464 0.0
O527 O 0.75439 0.57774 0.89031 0.0
O528 O 0.76778 0.60638 0.8845 0.0
O529 O 0.75218 0.60407 0.86844 0.0
C530 C 0.72584 0.62018 0.88715 0.0
O531 O 0.75745 0.60528 0.91147 0.0
O532 O 0.73717 0.59571 0.91322 0.0
In533 In 0.74706 0.38981 0.09949 0.0
O534 O 0.73562 0.41001 0.10627 0.0
O535 O 0.75614 0.41193 0.09729 0.0
C536 C 0.72731 0.37013 0.10535 0.0
C537 C 0.76723 0.3834 0.11851 0.0
C538 C 0.74823 0.38738 0.07111 0.0
O539 O 0.72498 0.3832 0.10674 0.0
O540 O 0.73959 0.36706 0.10115 0.0
O541 O 0.75863 0.38444 0.07894 0.0
O542 O 0.73734 0.39151 0.0776 0.0
C543 C 0.74553 0.41812 0.10246 0.0
O544 O 0.76904 0.38186 0.10536 0.0
O545 O 0.75527 0.38815 0.12201 0.0
In546 In 0.59846 0.74463 0.09849 0.0
O547 O 0.60424 0.75623 0.07806 0.0
O548 O 0.59566 0.73548 0.07649 0.0
C549 C 0.60417 0.76443 0.11813 0.0
C550 C 0.61831 0.72503 0.10391 0.0
C551 C 0.57018 0.74309 0.10143 0.0
O552 O 0.60559 0.76677 0.10505 0.0
O553 O 0.60007 0.7521 0.12122 0.0
O554 O 0.57819 0.73294 0.10477 0.0
O555 O 0.57648 0.75388 0.09674 0.0
C556 C 0.60032 0.74622 0.0701 0.0
O557 O 0.60527 0.72257 0.10549 0.0
O558 O 0.62127 0.73735 0.09971 0.0
In559 In 0.2454 0.5968 0.09959 0.0
O560 O 0.22332 0.60512 0.10445 0.0
O561 O 0.2369 0.60045 0.12177 0.0
C562 C 0.2446 0.598 0.0711 0.0
C563 C 0.24593 0.56867 0.1043 0.0
C564 C 0.26564 0.61598 0.10553 0.0
O565 O 0.23455 0.60228 0.07875 0.0
O566 O 0.25504 0.59315 0.07782 0.0
O567 O 0.2673 0.60293 0.10777 0.0
O568 O 0.25383 0.61928 0.10029 0.0
C569 C 0.22497 0.6048 0.1177 0.0
O570 O 0.25638 0.57657 0.10694 0.0
O571 O 0.2353 0.57496 0.09931 0.0
In572 In 0.39103 0.24508 0.10044 0.0
O573 O 0.38638 0.23364 0.07964 0.0
O574 O 0.39479 0.25446 0.07861 0.0
C575 C 0.38347 0.22481 0.11896 0.0
C576 C 0.37134 0.26491 0.10581 0.0
C577 C 0.41909 0.24671 0.10525 0.0
O578 O 0.38281 0.223 0.10574 0.0
O579 O 0.38786 0.23683 0.12278 0.0
O580 O 0.41091 0.25705 0.1073 0.0
O581 O 0.41309 0.23563 0.10082 0.0
C582 C 0.39049 0.24373 0.07194 0.0
O583 O 0.38425 0.26672 0.10868 0.0
O584 O 0.3684 0.25313 0.10025 0.0
In585 In 0.24532 0.39146 0.89074 0.0
O586 O 0.23353 0.38579 0.9111 0.0
O587 O 0.25401 0.395 0.91283 0.0
C588 C 0.22613 0.38469 0.87085 0.0
C589 C 0.26511 0.37157 0.88628 0.0
C590 C 0.24644 0.41968 0.88695 0.0
O591 O 0.22334 0.38414 0.88391 0.0
O592 O 0.23858 0.38854 0.86791 0.0
O593 O 0.25688 0.41178 0.88429 0.0
O594 O 0.2356 0.41331 0.89142 0.0
C595 C 0.24332 0.39009 0.91914 0.0
O596 O 0.2675 0.38455 0.88413 0.0
O597 O 0.2528 0.36873 0.89057 0.0
In598 In 0.59833 0.24395 0.89 0.0
O599 O 0.60483 0.2216 0.88358 0.0
O600 O 0.60196 0.23692 0.86736 0.0
C601 C 0.59902 0.2419 0.91845 0.0
C602 C 0.57035 0.24584 0.88498 0.0
C603 C 0.61841 0.26371 0.88573 0.0
O604 O 0.60385 0.23231 0.9105 0.0
O605 O 0.59393 0.25241 0.91204 0.0
O606 O 0.60545 0.26609 0.88357 0.0
O607 O 0.62119 0.25138 0.88998 0.0
C608 C 0.60498 0.22432 0.8705 0.0
O609 O 0.5787 0.25605 0.88278 0.0
O610 O 0.57613 0.23481 0.88971 0.0
In611 In 0.39222 0.74571 0.89079 0.0
O612 O 0.3858 0.76813 0.88461 0.0
O613 O 0.38757 0.7527 0.86831 0.0
C614 C 0.39148 0.74763 0.91925 0.0
C615 C 0.42015 0.74402 0.8853 0.0
C616 C 0.3722 0.72585 0.88668 0.0
O617 O 0.3866 0.7572 0.91134 0.0
O618 O 0.39676 0.73722 0.9128 0.0
O619 O 0.38512 0.72357 0.88417 0.0
O620 O 0.36946 0.7381 0.89119 0.0
C621 C 0.38489 0.76536 0.87157 0.0
O622 O 0.41186 0.73373 0.8833 0.0
O623 O 0.41436 0.75503 0.89009 0.0
C624 C 0.10755 0.34778 0.27482 0.0
C625 C 0.1095 0.36227 0.27744 0.0
C626 C 0.10943 0.33792 0.28562 0.0
C627 C 0.10825 0.33475 0.32418 0.0
H628 H 0.12461 0.2979 0.31674 0.0
C629 C 0.11136 0.29111 0.36692 0.0
C630 C 0.10699 0.27761 0.36245 0.0
C631 C 0.11364 0.30188 0.35705 0.0
C632 C 0.11998 0.30813 0.31896 0.0
H633 H 0.11531 0.37782 0.29329 0.0
H634 H 0.11866 0.36053 0.31223 0.0
H635 H 0.12537 0.3161 0.29848 0.0
H636 H 0.10173 0.26473 0.34419 0.0
H637 H 0.10558 0.28352 0.327 0.0
H638 H 0.10257 0.32667 0.34455 0.0
C639 C 0.11554 0.35683 0.30184 0.0
C640 C 0.12042 0.31854 0.30851 0.0
C641 C 0.11368 0.36671 0.291 0.0
C642 C 0.1051 0.27503 0.34794 0.0
C643 C 0.10742 0.28576 0.33809 0.0
C644 C 0.10782 0.32433 0.33464 0.0
C645 C 0.11331 0.34234 0.29928 0.0
C646 C 0.11429 0.33186 0.3109 0.0
C647 C 0.11164 0.29932 0.34253 0.0
C648 C 0.11341 0.31082 0.33202 0.0
H649 H 0.10431 0.34404 0.26447 0.0
H650 H 0.10743 0.32686 0.28335 0.0
H651 H 0.10331 0.34486 0.32629 0.0
H652 H 0.11293 0.29338 0.37805 0.0
H653 H 0.11699 0.31219 0.36077 0.0
C654 C 0.71441 0.10694 0.3472 0.0
C655 C 0.71193 0.10866 0.36175 0.0
C656 C 0.7036 0.10928 0.33744 0.0
C657 C 0.66507 0.10909 0.33428 0.0
H658 H 0.67268 0.12714 0.29823 0.0
C659 C 0.62224 0.1138 0.29101 0.0
C660 C 0.62669 0.10991 0.27737 0.0
C661 C 0.63215 0.116 0.30177 0.0
C662 C 0.6704 0.12204 0.30824 0.0
H663 H 0.69628 0.11439 0.3775 0.0
H664 H 0.67732 0.11846 0.36039 0.0
H665 H 0.69105 0.12662 0.31636 0.0
H666 H 0.64495 0.10563 0.26418 0.0
H667 H 0.6622 0.10929 0.28294 0.0
H668 H 0.64458 0.10413 0.32603 0.0
C669 C 0.68762 0.11523 0.35657 0.0
C670 C 0.68091 0.12175 0.31861 0.0
C671 C 0.69847 0.11294 0.36635 0.0
C672 C 0.64121 0.10863 0.2746 0.0
C673 C 0.6511 0.11083 0.28533 0.0
C674 C 0.65456 0.10935 0.3239 0.0
C675 C 0.69007 0.11336 0.34202 0.0
C676 C 0.67845 0.11501 0.33162 0.0
C677 C 0.64669 0.11438 0.29908 0.0
C678 C 0.65722 0.11556 0.31065 0.0
H679 H 0.72468 0.10365 0.34335 0.0
H680 H 0.70576 0.10755 0.32632 0.0
H681 H 0.66291 0.1037 0.34416 0.0
H682 H 0.6111 0.11492 0.29343 0.0
H683 H 0.62844 0.11887 0.31223 0.0
C684 C 0.87684 0.69923 0.36735 0.0
C685 C 0.88048 0.71282 0.36255 0.0
C686 C 0.8744 0.68828 0.35771 0.0
C687 C 0.86682 0.68108 0.31995 0.0
H688 H 0.88646 0.64579 0.3269 0.0
C689 C 0.88155 0.64241 0.27562 0.0
C690 C 0.88094 0.62782 0.27831 0.0
C691 C 0.87893 0.65211 0.28643 0.0
C692 C 0.88068 0.65547 0.32491 0.0
H693 H 0.88409 0.72572 0.34393 0.0
H694 H 0.87996 0.70663 0.32712 0.0
H695 H 0.88639 0.66411 0.34505 0.0
H696 H 0.87674 0.61189 0.29427 0.0
H697 H 0.87214 0.6289 0.31322 0.0
H698 H 0.86145 0.67258 0.29966 0.0
C699 C 0.87883 0.70444 0.33831 0.0
C700 C 0.88064 0.66597 0.33531 0.0
C701 C 0.88131 0.71535 0.34794 0.0
C702 C 0.87734 0.62309 0.29193 0.0
C703 C 0.87475 0.63281 0.30277 0.0
C704 C 0.86685 0.67058 0.30956 0.0
C705 C 0.8755 0.69076 0.34309 0.0
C706 C 0.874 0.67901 0.3328 0.0
C707 C 0.87566 0.64742 0.30016 0.0
C708 C 0.87407 0.6578 0.3118 0.0
H709 H 0.87607 0.69701 0.37857 0.0
H710 H 0.87173 0.67787 0.36168 0.0
H711 H 0.8614 0.69094 0.31783 0.0
H712 H 0.88429 0.64636 0.26522 0.0
H713 H 0.87992 0.66329 0.28412 0.0
C714 C 0.36324 0.87886 0.29011 0.0
C715 C 0.35987 0.87987 0.27568 0.0
C716 C 0.35258 0.87677 0.30014 0.0
C717 C 0.31469 0.88332 0.30474 0.0
H718 H 0.31896 0.86062 0.33862 0.0
C719 C 0.27008 0.87962 0.34556 0.0
C720 C 0.2741 0.88124 0.35977 0.0
C721 C 0.28025 0.87723 0.33515 0.0
C722 C 0.31766 0.86705 0.32924 0.0
H723 H 0.34286 0.87875 0.26032 0.0
H724 H 0.32429 0.87492 0.27778 0.0
H725 H 0.33744 0.86025 0.32052 0.0
H726 H 0.29181 0.88115 0.37434 0.0
H727 H 0.30966 0.87725 0.35609 0.0
H728 H 0.29513 0.89039 0.31349 0.0
C729 C 0.33512 0.87601 0.28139 0.0
C730 C 0.32823 0.86684 0.31888 0.0
C731 C 0.34575 0.87815 0.27139 0.0
C732 C 0.28843 0.87995 0.36345 0.0
C733 C 0.29863 0.87763 0.35301 0.0
C734 C 0.30417 0.88355 0.31506 0.0
C735 C 0.33837 0.87562 0.2959 0.0
C736 C 0.32688 0.87506 0.30657 0.0
C737 C 0.29467 0.8765 0.33871 0.0
C738 C 0.30556 0.8755 0.32747 0.0
H739 H 0.37405 0.88014 0.29371 0.0
H740 H 0.35541 0.87663 0.31125 0.0
H741 H 0.31346 0.89 0.29551 0.0
H742 H 0.25908 0.88042 0.34244 0.0
H743 H 0.27684 0.87615 0.32426 0.0
C744 C 0.11213 0.62441 0.70131 0.0
C745 C 0.10731 0.62863 0.71472 0.0
C746 C 0.11406 0.63439 0.69057 0.0
C747 C 0.11813 0.67281 0.6842 0.0
H748 H 0.10227 0.66417 0.64734 0.0
C749 C 0.10439 0.71585 0.64365 0.0
C750 C 0.10695 0.71313 0.62927 0.0
C751 C 0.10633 0.70525 0.65372 0.0
C752 C 0.10697 0.66667 0.65749 0.0
H753 H 0.10101 0.64659 0.72753 0.0
H754 H 0.10427 0.66396 0.70881 0.0
H755 H 0.10247 0.64604 0.66567 0.0
H756 H 0.11377 0.69728 0.61415 0.0
H757 H 0.11721 0.67872 0.63181 0.0
H758 H 0.12236 0.69353 0.67612 0.0
C759 C 0.10671 0.65299 0.70659 0.0
C760 C 0.10709 0.65628 0.668 0.0
C761 C 0.10475 0.64303 0.71729 0.0
C762 C 0.11167 0.69965 0.62517 0.0
C763 C 0.11358 0.68903 0.63526 0.0
C764 C 0.11801 0.68319 0.67371 0.0
C765 C 0.11126 0.64878 0.69308 0.0
C766 C 0.11243 0.65933 0.68154 0.0
C767 C 0.11086 0.6917 0.64963 0.0
C768 C 0.11219 0.68031 0.66033 0.0
H769 H 0.11423 0.61337 0.69905 0.0
H770 H 0.1177 0.63085 0.6803 0.0
H771 H 0.12254 0.67539 0.69446 0.0
H772 H 0.10073 0.72613 0.64712 0.0
H773 H 0.10394 0.70759 0.66468 0.0
C774 C 0.28914 0.11372 0.62389 0.0
C775 C 0.27573 0.10915 0.62842 0.0
C776 C 0.29983 0.11644 0.63375 0.0
C777 C 0.30622 0.12308 0.67185 0.0
H778 H 0.34263 0.10573 0.6646 0.0
C779 C 0.3453 0.10901 0.71605 0.0
C780 C 0.35986 0.11043 0.7135 0.0
C781 C 0.33555 0.11151 0.70527 0.0
C782 C 0.33263 0.11088 0.66669 0.0
H783 H 0.26287 0.1042 0.64676 0.0
H784 H 0.28152 0.10883 0.66392 0.0
H785 H 0.32453 0.10542 0.64626 0.0
H786 H 0.37565 0.11599 0.69782 0.0
H787 H 0.35857 0.12041 0.67893 0.0
H788 H 0.3142 0.12819 0.69242 0.0
C789 C 0.28376 0.11046 0.6528 0.0
C790 C 0.32225 0.1107 0.65618 0.0
C791 C 0.2731 0.10769 0.64296 0.0
C792 C 0.36448 0.11475 0.70006 0.0
C793 C 0.35472 0.11723 0.68924 0.0
C794 C 0.31659 0.12327 0.68235 0.0
C795 C 0.29728 0.11471 0.6483 0.0
C796 C 0.30882 0.1165 0.65877 0.0
C797 C 0.34015 0.11547 0.6917 0.0
C798 C 0.32979 0.11687 0.68 0.0
H799 H 0.29143 0.11498 0.61274 0.0
H800 H 0.31012 0.11982 0.62998 0.0
H801 H 0.29605 0.12785 0.67405 0.0
H802 H 0.34143 0.10569 0.72632 0.0
H803 H 0.32442 0.10986 0.70745 0.0
C804 C 0.88668 0.27172 0.6436 0.0
C805 C 0.88527 0.27544 0.6293 0.0
C806 C 0.88534 0.28194 0.65416 0.0
C807 C 0.87201 0.31794 0.66152 0.0
H808 H 0.89972 0.31672 0.69176 0.0
C809 C 0.88115 0.36369 0.70141 0.0
C810 C 0.88389 0.3599 0.71551 0.0
C811 C 0.88003 0.35329 0.69094 0.0
C812 C 0.89178 0.3171 0.6835 0.0
H813 H 0.88102 0.29266 0.61479 0.0
H814 H 0.87887 0.31063 0.63326 0.0
H815 H 0.90017 0.29877 0.67334 0.0
H816 H 0.88705 0.34229 0.72985 0.0
H817 H 0.88497 0.32416 0.71163 0.0
H818 H 0.86377 0.33645 0.67168 0.0
C819 C 0.88086 0.29977 0.63632 0.0
C820 C 0.89204 0.30681 0.67294 0.0
C821 C 0.88216 0.28952 0.62574 0.0
C822 C 0.88504 0.34553 0.71904 0.0
C823 C 0.88392 0.33515 0.7086 0.0
C824 C 0.87177 0.32829 0.67211 0.0
C825 C 0.88261 0.29612 0.65063 0.0
C826 C 0.88215 0.30708 0.66185 0.0
C827 C 0.88165 0.33893 0.69441 0.0
C828 C 0.88165 0.32794 0.68322 0.0
H829 H 0.88896 0.26092 0.64666 0.0
H830 H 0.88649 0.27874 0.6651 0.0
H831 H 0.86417 0.31835 0.65318 0.0
H832 H 0.88021 0.37471 0.6984 0.0
H833 H 0.87838 0.35653 0.68008 0.0
C834 C 0.69909 0.87565 0.62389 0.0
C835 C 0.71248 0.88026 0.62842 0.0
C836 C 0.68838 0.87299 0.63373 0.0
C837 C 0.68201 0.8666 0.67185 0.0
H838 H 0.64546 0.88361 0.66444 0.0
C839 C 0.64304 0.88124 0.71587 0.0
C840 C 0.62849 0.87954 0.71347 0.0
C841 C 0.65274 0.87862 0.70508 0.0
C842 C 0.65551 0.87855 0.66657 0.0
H843 H 0.7253 0.88541 0.64675 0.0
H844 H 0.70661 0.88092 0.66389 0.0
H845 H 0.66357 0.88387 0.64611 0.0
H846 H 0.61265 0.8734 0.69803 0.0
H847 H 0.62966 0.86883 0.67909 0.0
H848 H 0.67407 0.86166 0.69246 0.0
C849 C 0.7044 0.87918 0.65278 0.0
C850 C 0.66589 0.87871 0.65606 0.0
C851 C 0.71507 0.88187 0.64295 0.0
C852 C 0.62382 0.87485 0.70015 0.0
C853 C 0.63354 0.87228 0.68931 0.0
C854 C 0.67163 0.86645 0.68235 0.0
C855 C 0.6909 0.87484 0.64827 0.0
C856 C 0.67936 0.87305 0.65872 0.0
C857 C 0.64809 0.87428 0.69164 0.0
C858 C 0.6584 0.87274 0.67993 0.0
H859 H 0.69683 0.87426 0.61273 0.0
H860 H 0.67812 0.86954 0.62996 0.0
H861 H 0.69221 0.86192 0.6741 0.0
H862 H 0.64695 0.88483 0.72604 0.0
H863 H 0.66387 0.88046 0.70715 0.0
C864 C 0.36551 0.11302 0.29026 0.0
C865 C 0.36052 0.10995 0.2766 0.0
C866 C 0.35601 0.1156 0.30129 0.0
C867 C 0.31856 0.12428 0.3089 0.0
H868 H 0.32506 0.1033 0.34353 0.0
C869 C 0.27403 0.10973 0.34749 0.0
C870 C 0.27685 0.10982 0.36207 0.0
C871 C 0.28484 0.1123 0.33777 0.0
C872 C 0.32321 0.10945 0.33405 0.0
H873 H 0.34174 0.1076 0.26362 0.0
H874 H 0.32517 0.11196 0.28285 0.0
H875 H 0.34307 0.10339 0.32511 0.0
H876 H 0.29308 0.11304 0.37798 0.0
H877 H 0.31202 0.11755 0.36095 0.0
H878 H 0.29851 0.12999 0.31769 0.0
C879 C 0.3364 0.11253 0.28505 0.0
C880 C 0.33353 0.10951 0.32349 0.0
C881 C 0.34589 0.10992 0.27406 0.0
C882 C 0.29062 0.11285 0.36678 0.0
C883 C 0.30147 0.11538 0.35705 0.0
C884 C 0.30824 0.12422 0.31946 0.0
C885 C 0.34135 0.11521 0.29883 0.0
C886 C 0.33118 0.11665 0.31067 0.0
C887 C 0.2987 0.11499 0.34244 0.0
C888 C 0.31032 0.11653 0.33201 0.0
H889 H 0.37675 0.11317 0.2925 0.0
H890 H 0.36013 0.11777 0.31176 0.0
H891 H 0.31656 0.13008 0.29923 0.0
H892 H 0.26351 0.10744 0.34355 0.0
H893 H 0.28241 0.11172 0.32659 0.0
C894 C 0.87825 0.29066 0.36632 0.0
C895 C 0.88275 0.27724 0.36182 0.0
C896 C 0.87588 0.30141 0.35646 0.0
C897 C 0.86956 0.30774 0.31841 0.0
H898 H 0.88666 0.34435 0.32574 0.0
C899 C 0.88324 0.34699 0.2743 0.0
C900 C 0.88166 0.36153 0.27685 0.0
C901 C 0.88086 0.33723 0.28509 0.0
C902 C 0.88158 0.33429 0.32364 0.0
H903 H 0.88807 0.26443 0.34355 0.0
H904 H 0.88404 0.28319 0.32638 0.0
H905 H 0.88711 0.3262 0.34403 0.0
H906 H 0.87597 0.37727 0.29254 0.0
H907 H 0.87177 0.36014 0.31145 0.0
H908 H 0.86434 0.31571 0.29789 0.0
C909 C 0.8822 0.28539 0.33748 0.0
C910 C 0.88185 0.32389 0.33411 0.0
C911 C 0.88462 0.27468 0.34732 0.0
C912 C 0.87731 0.36612 0.2903 0.0
C913 C 0.87497 0.35633 0.30113 0.0
C914 C 0.86927 0.31814 0.30795 0.0
C915 C 0.87789 0.29889 0.34195 0.0
C916 C 0.87614 0.3104 0.33148 0.0
C917 C 0.87687 0.34179 0.29866 0.0
C918 C 0.87557 0.33141 0.31033 0.0
H919 H 0.87668 0.29291 0.37745 0.0
H920 H 0.87247 0.31169 0.3602 0.0
H921 H 0.86484 0.29753 0.31619 0.0
H922 H 0.88658 0.34315 0.26403 0.0
H923 H 0.88262 0.32612 0.2829 0.0
C924 C 0.70126 0.88122 0.3639 0.0
C925 C 0.71525 0.88472 0.36029 0.0
C926 C 0.691 0.87961 0.35336 0.0
C927 C 0.68359 0.89051 0.31674 0.0
H928 H 0.65443 0.86162 0.31832 0.0
C929 C 0.64431 0.8831 0.27123 0.0
C930 C 0.63 0.88195 0.27505 0.0
C931 C 0.65488 0.88187 0.28144 0.0
C932 C 0.66247 0.86978 0.3178 0.0
H933 H 0.72961 0.88882 0.34288 0.0
H934 H 0.7118 0.88582 0.32451 0.0
H935 H 0.67269 0.86244 0.33665 0.0
H936 H 0.61552 0.87806 0.29241 0.0
H937 H 0.63404 0.87603 0.31033 0.0
H938 H 0.67338 0.89793 0.29801 0.0
C939 C 0.70866 0.88459 0.33546 0.0
C940 C 0.6729 0.87027 0.32829 0.0
C941 C 0.71887 0.88624 0.34598 0.0
C942 C 0.62648 0.879 0.28918 0.0
C943 C 0.63707 0.87778 0.29942 0.0
C944 C 0.67322 0.89 0.30627 0.0
C945 C 0.69456 0.88145 0.33903 0.0
C946 C 0.68357 0.88065 0.32786 0.0
C947 C 0.65137 0.87949 0.29569 0.0
C948 C 0.66254 0.87964 0.30668 0.0
H949 H 0.69818 0.87997 0.37487 0.0
H950 H 0.68021 0.87732 0.35646 0.0
H951 H 0.69147 0.89882 0.31626 0.0
H952 H 0.64735 0.88526 0.26039 0.0
H953 H 0.66582 0.883 0.27821 0.0
C954 C 0.10728 0.64415 0.27032 0.0
C955 C 0.10796 0.62975 0.27385 0.0
C956 C 0.10864 0.65449 0.28077 0.0
C957 C 0.12042 0.66093 0.31754 0.0
H958 H 0.09321 0.69151 0.31566 0.0
C959 C 0.10963 0.69978 0.3638 0.0
C960 C 0.10709 0.71398 0.36024 0.0
C961 C 0.11116 0.68958 0.35319 0.0
C962 C 0.10102 0.68316 0.31624 0.0
H963 H 0.11105 0.61483 0.29098 0.0
H964 H 0.11325 0.63294 0.30933 0.0
H965 H 0.0934 0.67356 0.29725 0.0
H966 H 0.10474 0.72875 0.34286 0.0
H967 H 0.10757 0.71101 0.32439 0.0
H968 H 0.1279 0.67054 0.33669 0.0
C969 C 0.1118 0.63624 0.29846 0.0
C970 C 0.10113 0.67287 0.30568 0.0
C971 C 0.11047 0.62587 0.28797 0.0
C972 C 0.10657 0.71786 0.34592 0.0
C973 C 0.10812 0.7077 0.33534 0.0
C974 C 0.12031 0.67126 0.32814 0.0
C975 C 0.11065 0.65065 0.29499 0.0
C976 C 0.11084 0.66165 0.30619 0.0
C977 C 0.11018 0.69341 0.33886 0.0
C978 C 0.1106 0.6825 0.32758 0.0
H979 H 0.10547 0.64746 0.2595 0.0
H980 H 0.10797 0.66551 0.27772 0.0
H981 H 0.1281 0.65247 0.31814 0.0
H982 H 0.11009 0.6965 0.37477 0.0
H983 H 0.11263 0.67864 0.35623 0.0
C984 C 0.36781 0.87786 0.6993 0.0
C985 C 0.36302 0.88162 0.71285 0.0
C986 C 0.35815 0.87528 0.68839 0.0
C987 C 0.32039 0.86746 0.68143 0.0
H988 H 0.32735 0.8862 0.64561 0.0
C989 C 0.27612 0.88094 0.64224 0.0
C990 C 0.27884 0.87986 0.62768 0.0
C991 C 0.2869 0.87867 0.65204 0.0
C992 C 0.32536 0.88067 0.65545 0.0
H993 H 0.34442 0.88535 0.72574 0.0
H994 H 0.32759 0.881 0.70672 0.0
H995 H 0.34547 0.88668 0.66395 0.0
H996 H 0.29484 0.8752 0.61193 0.0
H997 H 0.31375 0.87121 0.62912 0.0
H998 H 0.30011 0.8618 0.67306 0.0
C999 C 0.33878 0.87987 0.70452 0.0
C1000 C 0.33574 0.88095 0.66596 0.0
C1001 C 0.34842 0.88247 0.71539 0.0
C1002 C 0.29247 0.87614 0.6231 0.0
C1003 C 0.30329 0.87392 0.63292 0.0
C1004 C 0.31001 0.86719 0.67093 0.0
C1005 C 0.34354 0.87637 0.69087 0.0
C1006 C 0.33323 0.87462 0.67918 0.0
C1007 C 0.30064 0.8753 0.64749 0.0
C1008 C 0.31226 0.87407 0.65795 0.0
H1009 H 0.37902 0.87707 0.69707 0.0
H1010 H 0.36212 0.87249 0.67801 0.0
H1011 H 0.31826 0.86227 0.69142 0.0
H1012 H 0.26571 0.88378 0.64607 0.0
H1013 H 0.28457 0.88001 0.66318 0.0
C1014 C 0.11222 0.36576 0.69904 0.0
C1015 C 0.1084 0.36132 0.7127 0.0
C1016 C 0.11444 0.35582 0.6883 0.0
C1017 C 0.12105 0.31769 0.68208 0.0
H1018 H 0.10313 0.32467 0.64585 0.0
C1019 C 0.10753 0.27329 0.64283 0.0
C1020 C 0.10933 0.27586 0.62831 0.0
C1021 C 0.10955 0.28414 0.65265 0.0
C1022 C 0.1084 0.32266 0.65582 0.0
H1023 H 0.10416 0.34307 0.72593 0.0
H1024 H 0.10785 0.32578 0.70721 0.0
H1025 H 0.1029 0.34303 0.66397 0.0
H1026 H 0.11493 0.29167 0.61267 0.0
H1027 H 0.11846 0.31069 0.62988 0.0
H1028 H 0.12621 0.29717 0.67405 0.0
C1029 C 0.10933 0.33689 0.7048 0.0
C1030 C 0.10828 0.33318 0.6662 0.0
C1031 C 0.1071 0.3468 0.7155 0.0
C1032 C 0.11343 0.28941 0.6238 0.0
C1033 C 0.11539 0.3003 0.63363 0.0
C1034 C 0.12115 0.30717 0.67172 0.0
C1035 C 0.1129 0.34128 0.69105 0.0
C1036 C 0.11435 0.3307 0.67955 0.0
C1037 C 0.11338 0.29779 0.64815 0.0
C1038 C 0.11458 0.30944 0.65858 0.0
H1039 H 0.11335 0.3769 0.6966 0.0
H1040 H 0.11732 0.35952 0.67785 0.0
H1041 H 0.12606 0.31557 0.69217 0.0
H1042 H 0.10438 0.26294 0.64661 0.0
H1043 H 0.10773 0.28192 0.66374 0.0
C1044 C 0.70138 0.10908 0.62487 0.0
C1045 C 0.71546 0.10659 0.62892 0.0
C1046 C 0.69085 0.11069 0.63512 0.0
C1047 C 0.68328 0.10099 0.67198 0.0
H1048 H 0.6525 0.12783 0.66862 0.0
C1049 C 0.64282 0.10762 0.71644 0.0
C1050 C 0.62852 0.10796 0.71243 0.0
C1051 C 0.65345 0.10902 0.70633 0.0
C1052 C 0.66098 0.12023 0.66964 0.0
H1053 H 0.72967 0.10439 0.64678 0.0
H1054 H 0.71135 0.10738 0.66464 0.0
H1055 H 0.67119 0.12748 0.65072 0.0
H1056 H 0.6141 0.11055 0.69479 0.0
H1057 H 0.63276 0.11283 0.67701 0.0
H1058 H 0.6731 0.09361 0.69074 0.0
C1059 C 0.70838 0.10782 0.65358 0.0
C1060 C 0.67167 0.12002 0.6594 0.0
C1061 C 0.71889 0.10617 0.64336 0.0
C1062 C 0.62505 0.11024 0.69816 0.0
C1063 C 0.63572 0.11161 0.68801 0.0
C1064 C 0.67264 0.1012 0.68218 0.0
C1065 C 0.69421 0.10985 0.64959 0.0
C1066 C 0.68294 0.11039 0.66049 0.0
C1067 C 0.65004 0.11074 0.69197 0.0
C1068 C 0.66139 0.11082 0.68114 0.0
H1069 H 0.69845 0.10946 0.6138 0.0
H1070 H 0.68001 0.11212 0.63171 0.0
H1071 H 0.69164 0.09323 0.67296 0.0
H1072 H 0.64581 0.10601 0.72739 0.0
H1073 H 0.66438 0.10858 0.70974 0.0
C1074 C 0.88585 0.71643 0.64274 0.0
C1075 C 0.88366 0.71398 0.62826 0.0
C1076 C 0.88366 0.70562 0.65254 0.0
C1077 C 0.88305 0.66702 0.65561 0.0
H1078 H 0.86631 0.67499 0.69221 0.0
C1079 C 0.87732 0.62417 0.6988 0.0
C1080 C 0.88176 0.62836 0.71236 0.0
C1081 C 0.8755 0.63422 0.68812 0.0
C1082 C 0.87104 0.67262 0.68205 0.0
H1083 H 0.87726 0.69841 0.61264 0.0
H1084 H 0.8734 0.67947 0.62982 0.0
H1085 H 0.86686 0.69339 0.67414 0.0
H1086 H 0.8875 0.64631 0.72548 0.0
H1087 H 0.88444 0.66379 0.70685 0.0
H1088 H 0.88753 0.64635 0.66363 0.0
C1089 C 0.87692 0.68973 0.63357 0.0
C1090 C 0.87136 0.68315 0.67171 0.0
C1091 C 0.87908 0.70057 0.62375 0.0
C1092 C 0.88406 0.64277 0.71513 0.0
C1093 C 0.88221 0.6528 0.70448 0.0
C1094 C 0.88273 0.65648 0.66595 0.0
C1095 C 0.87924 0.69214 0.64806 0.0
C1096 C 0.87762 0.68055 0.65849 0.0
C1097 C 0.87802 0.64863 0.69083 0.0
C1098 C 0.87698 0.65927 0.67938 0.0
H1099 H 0.88939 0.72666 0.64652 0.0
H1100 H 0.88575 0.70775 0.66361 0.0
H1101 H 0.88807 0.66475 0.64556 0.0
H1102 H 0.87543 0.61312 0.69639 0.0
H1103 H 0.87214 0.63071 0.67773 0.0
C1104 C 0.27233 0.34531 0.10448 0.0
C1105 C 0.27467 0.35962 0.10771 0.0
C1106 C 0.28298 0.33536 0.1066 0.0
C1107 C 0.32152 0.33228 0.10897 0.0
H1108 H 0.31282 0.29452 0.12249 0.0
C1109 C 0.36429 0.28905 0.11402 0.0
C1110 C 0.36051 0.27579 0.10845 0.0
C1111 C 0.35405 0.29951 0.11598 0.0
C1112 C 0.31539 0.30501 0.11865 0.0
H1113 H 0.28988 0.37473 0.11596 0.0
H1114 H 0.30854 0.35727 0.11973 0.0
H1115 H 0.29438 0.31254 0.12229 0.0
H1116 H 0.34306 0.26295 0.10082 0.0
H1117 H 0.32524 0.28121 0.1041 0.0
H1118 H 0.34245 0.32467 0.10502 0.0
C1119 C 0.29849 0.3538 0.11543 0.0
C1120 C 0.30485 0.31531 0.11854 0.0
C1121 C 0.28781 0.36377 0.11332 0.0
C1122 C 0.34628 0.27307 0.10513 0.0
C1123 C 0.33606 0.2835 0.10711 0.0
C1124 C 0.33207 0.32197 0.10908 0.0
C1125 C 0.29621 0.3395 0.112 0.0
C1126 C 0.30773 0.32898 0.11344 0.0
C1127 C 0.33984 0.29687 0.11245 0.0
C1128 C 0.32905 0.30815 0.11367 0.0
H1129 H 0.26231 0.34182 0.10013 0.0
H1130 H 0.28097 0.32446 0.10367 0.0
H1131 H 0.32403 0.34267 0.10483 0.0
H1132 H 0.37518 0.2914 0.11673 0.0
H1133 H 0.35725 0.30967 0.12023 0.0
C1134 C 0.36462 0.70118 0.88059 0.0
C1135 C 0.36114 0.71497 0.88488 0.0
C1136 C 0.35412 0.69079 0.87953 0.0
C1137 C 0.31878 0.6822 0.89333 0.0
H1138 H 0.31737 0.65516 0.86246 0.0
C1139 C 0.27173 0.64458 0.88658 0.0
C1140 C 0.27479 0.63038 0.88354 0.0
C1141 C 0.28228 0.65487 0.88573 0.0
C1142 C 0.31772 0.66257 0.8712 0.0
H1143 H 0.34394 0.72883 0.89103 0.0
H1144 H 0.32565 0.71078 0.88906 0.0
H1145 H 0.33591 0.67326 0.86286 0.0
H1146 H 0.29117 0.61583 0.87682 0.0
H1147 H 0.30972 0.63385 0.87546 0.0
H1148 H 0.3007 0.67155 0.90174 0.0
C1149 C 0.33649 0.7079 0.88673 0.0
C1150 C 0.32832 0.67291 0.87143 0.0
C1151 C 0.34696 0.71827 0.88779 0.0
C1152 C 0.28852 0.62671 0.87923 0.0
C1153 C 0.29911 0.63703 0.87839 0.0
C1154 C 0.30822 0.67189 0.8931 0.0
C1155 C 0.33997 0.69401 0.88277 0.0
C1156 C 0.3289 0.68289 0.88247 0.0
C1157 C 0.29614 0.65118 0.88186 0.0
C1158 C 0.30751 0.66202 0.882 0.0
H1159 H 0.37547 0.69836 0.87828 0.0
H1160 H 0.35714 0.68015 0.87655 0.0
H1161 H 0.31912 0.68954 0.90213 0.0
H1162 H 0.26121 0.64774 0.88983 0.0
H1163 H 0.2796 0.66573 0.8882 0.0
C1164 C 0.28987 0.36408 0.88061 0.0
C1165 C 0.27595 0.36053 0.88442 0.0
C1166 C 0.30024 0.35359 0.87966 0.0
C1167 C 0.30825 0.3181 0.89326 0.0
H1168 H 0.33633 0.31714 0.86337 0.0
C1169 C 0.34648 0.27149 0.88756 0.0
C1170 C 0.36072 0.27476 0.88487 0.0
C1171 C 0.33612 0.28192 0.8865 0.0
C1172 C 0.32863 0.31736 0.87185 0.0
H1173 H 0.26182 0.34324 0.88978 0.0
H1174 H 0.27983 0.32497 0.88801 0.0
H1175 H 0.31821 0.33556 0.8633 0.0
H1176 H 0.37529 0.29137 0.87864 0.0
H1177 H 0.35717 0.30969 0.87696 0.0
H1178 H 0.31864 0.30004 0.90191 0.0
C1179 C 0.28282 0.33584 0.88598 0.0
C1180 C 0.31827 0.32789 0.8718 0.0
C1181 C 0.27249 0.3463 0.88692 0.0
C1182 C 0.36438 0.28857 0.88078 0.0
C1183 C 0.354 0.29903 0.87974 0.0
C1184 C 0.31858 0.30761 0.89332 0.0
C1185 C 0.29685 0.33939 0.88254 0.0
C1186 C 0.30793 0.32832 0.88249 0.0
C1187 C 0.33979 0.29585 0.88278 0.0
C1188 C 0.32885 0.30707 0.88259 0.0
H1189 H 0.29282 0.37497 0.87862 0.0
H1190 H 0.31098 0.35664 0.87709 0.0
H1191 H 0.30061 0.31833 0.9018 0.0
H1192 H 0.34334 0.26091 0.89063 0.0
H1193 H 0.32523 0.27908 0.88866 0.0
C1194 C 0.64372 0.27119 0.88608 0.0
C1195 C 0.62945 0.27459 0.88384 0.0
C1196 C 0.65416 0.28158 0.88498 0.0
C1197 C 0.66154 0.31734 0.87092 0.0
H1198 H 0.69027 0.31772 0.90021 0.0
C1199 C 0.69981 0.36439 0.88037 0.0
C1200 C 0.71385 0.36107 0.88391 0.0
C1201 C 0.68964 0.35369 0.87921 0.0
C1202 C 0.68244 0.31766 0.89184 0.0
H1203 H 0.6149 0.29142 0.87836 0.0
H1204 H 0.63315 0.30966 0.87662 0.0
H1205 H 0.67229 0.29929 0.90025 0.0
H1206 H 0.72838 0.34397 0.88855 0.0
H1207 H 0.7107 0.32532 0.8864 0.0
H1208 H 0.67168 0.33586 0.86263 0.0
C1209 C 0.63629 0.29893 0.87908 0.0
C1210 C 0.67213 0.30709 0.89186 0.0
C1211 C 0.62583 0.28851 0.88015 0.0
C1212 C 0.71762 0.34686 0.8859 0.0
C1213 C 0.70748 0.33618 0.88474 0.0
C1214 C 0.67187 0.32795 0.87091 0.0
C1215 C 0.65055 0.29561 0.88165 0.0
C1216 C 0.66157 0.30679 0.8814 0.0
C1217 C 0.69334 0.33949 0.88159 0.0
C1218 C 0.68243 0.3282 0.88137 0.0
H1219 H 0.64683 0.26052 0.88884 0.0
H1220 H 0.66508 0.27864 0.88679 0.0
H1221 H 0.65362 0.3173 0.86264 0.0
H1222 H 0.69662 0.37527 0.87878 0.0
H1223 H 0.67881 0.35657 0.87688 0.0
C1224 C 0.70146 0.62794 0.88043 0.0
C1225 C 0.71506 0.63129 0.88542 0.0
C1226 C 0.69111 0.63843 0.87941 0.0
C1227 C 0.68183 0.67309 0.89434 0.0
H1228 H 0.65609 0.6755 0.86248 0.0
C1229 C 0.6439 0.71985 0.88801 0.0
C1230 C 0.6299 0.7167 0.88412 0.0
C1231 C 0.65434 0.70949 0.88726 0.0
C1232 C 0.66313 0.67487 0.8715 0.0
H1233 H 0.72863 0.64824 0.89289 0.0
H1234 H 0.71064 0.66654 0.891 0.0
H1235 H 0.67432 0.6572 0.8628 0.0
H1236 H 0.6159 0.70037 0.87609 0.0
H1237 H 0.63418 0.68216 0.87491 0.0
H1238 H 0.67066 0.69064 0.90311 0.0
C1239 C 0.70789 0.6558 0.88808 0.0
C1240 C 0.67355 0.6644 0.87168 0.0
C1241 C 0.71821 0.64533 0.88909 0.0
C1242 C 0.62661 0.70308 0.87915 0.0
C1243 C 0.63709 0.69268 0.87842 0.0
C1244 C 0.67144 0.68352 0.89416 0.0
C1245 C 0.69418 0.65243 0.88339 0.0
C1246 C 0.68305 0.66345 0.88308 0.0
C1247 C 0.65102 0.69574 0.88264 0.0
C1248 C 0.662 0.68457 0.88272 0.0
H1249 H 0.69874 0.61719 0.87752 0.0
H1250 H 0.6806 0.6355 0.87587 0.0
H1251 H 0.6888 0.67245 0.90341 0.0
H1252 H 0.64677 0.73029 0.89178 0.0
H1253 H 0.66504 0.71224 0.89035 0.0
C1254 C 0.64363 0.71775 0.10463 0.0
C1255 C 0.62929 0.71421 0.10622 0.0
C1256 C 0.65404 0.70741 0.10591 0.0
C1257 C 0.66113 0.67136 0.11922 0.0
H1258 H 0.69072 0.6721 0.09082 0.0
C1259 C 0.70054 0.62529 0.10999 0.0
C1260 C 0.7146 0.62903 0.10691 0.0
C1261 C 0.69013 0.63571 0.11107 0.0
C1262 C 0.68265 0.67184 0.09895 0.0
H1263 H 0.61458 0.69718 0.11076 0.0
H1264 H 0.63282 0.67901 0.11282 0.0
H1265 H 0.67256 0.69025 0.09067 0.0
H1266 H 0.7289 0.64658 0.10309 0.0
H1267 H 0.7108 0.66474 0.10513 0.0
H1268 H 0.67123 0.6528 0.12739 0.0
C1269 C 0.63601 0.68982 0.11074 0.0
C1270 C 0.67224 0.68225 0.09886 0.0
C1271 C 0.62557 0.7002 0.10949 0.0
C1272 C 0.71813 0.64337 0.10535 0.0
C1273 C 0.70775 0.65377 0.10645 0.0
C1274 C 0.67157 0.6609 0.1193 0.0
C1275 C 0.65034 0.69329 0.10875 0.0
C1276 C 0.66139 0.68217 0.10902 0.0
C1277 C 0.6936 0.65005 0.1091 0.0
C1278 C 0.68247 0.66108 0.10918 0.0
H1279 H 0.64682 0.7285 0.10222 0.0
H1280 H 0.66501 0.71047 0.10457 0.0
H1281 H 0.65296 0.67109 0.12726 0.0
H1282 H 0.69753 0.6143 0.11124 0.0
H1283 H 0.67929 0.63252 0.11302 0.0
C1284 C 0.3649 0.69923 0.11397 0.0
C1285 C 0.36048 0.71258 0.10923 0.0
C1286 C 0.35504 0.68843 0.11621 0.0
C1287 C 0.31672 0.6816 0.12097 0.0
H1288 H 0.32545 0.64494 0.10476 0.0
C1289 C 0.27395 0.64101 0.10627 0.0
C1290 C 0.27667 0.62661 0.10857 0.0
C1291 C 0.28447 0.6511 0.10865 0.0
C1292 C 0.32294 0.65503 0.10957 0.0
H1293 H 0.34228 0.72525 0.10345 0.0
H1294 H 0.3251 0.7064 0.1072 0.0
H1295 H 0.34343 0.66345 0.10491 0.0
H1296 H 0.29242 0.61144 0.11542 0.0
H1297 H 0.31088 0.62913 0.11958 0.0
H1298 H 0.2961 0.67328 0.12527 0.0
C1299 C 0.33614 0.70428 0.10936 0.0
C1300 C 0.33324 0.66564 0.10966 0.0
C1301 C 0.346 0.71506 0.10711 0.0
C1302 C 0.29005 0.62248 0.11352 0.0
C1303 C 0.30062 0.63259 0.11585 0.0
C1304 C 0.30642 0.671 0.12086 0.0
C1305 C 0.34057 0.6908 0.11378 0.0
C1306 C 0.33015 0.67913 0.1151 0.0
C1307 C 0.29796 0.647 0.11334 0.0
C1308 C 0.30933 0.6577 0.1149 0.0
H1309 H 0.376 0.69705 0.11576 0.0
H1310 H 0.35874 0.6782 0.11977 0.0
H1311 H 0.31411 0.69181 0.12546 0.0
H1312 H 0.26373 0.64451 0.10246 0.0
H1313 H 0.28216 0.66209 0.10642 0.0
C1314 C 0.70237 0.36306 0.11082 0.0
C1315 C 0.71637 0.35924 0.10768 0.0
C1316 C 0.69184 0.35271 0.11187 0.0
C1317 C 0.68391 0.31684 0.09926 0.0
H1318 H 0.65397 0.31765 0.12729 0.0
C1319 C 0.64379 0.27154 0.10385 0.0
C1320 C 0.62953 0.27529 0.10553 0.0
C1321 C 0.65442 0.28169 0.10527 0.0
C1322 C 0.66221 0.31737 0.11933 0.0
H1323 H 0.73048 0.3416 0.10378 0.0
H1324 H 0.71217 0.32355 0.10578 0.0
H1325 H 0.67262 0.33563 0.12791 0.0
H1326 H 0.61519 0.29251 0.1103 0.0
H1327 H 0.63381 0.31035 0.11259 0.0
H1328 H 0.67351 0.29874 0.09055 0.0
C1329 C 0.70925 0.33454 0.10717 0.0
C1330 C 0.67287 0.32764 0.11969 0.0
C1331 C 0.71975 0.34487 0.1061 0.0
C1332 C 0.62611 0.28934 0.10895 0.0
C1333 C 0.63677 0.29952 0.11034 0.0
C1334 C 0.67328 0.30661 0.09888 0.0
C1335 C 0.69514 0.33836 0.1098 0.0
C1336 C 0.68385 0.32745 0.10967 0.0
C1337 C 0.65103 0.29583 0.10834 0.0
C1338 C 0.66232 0.30673 0.10892 0.0
H1339 H 0.69948 0.37407 0.11209 0.0
H1340 H 0.68104 0.35598 0.11382 0.0
H1341 H 0.69205 0.31658 0.0912 0.0
H1342 H 0.64675 0.26076 0.10132 0.0
H1343 H 0.66532 0.27846 0.10391 0.0
C1344 C 0.61558 0.86758 0.79071 0.0
C1345 C 0.6118 0.8625 0.77726 0.0
C1346 C 0.61859 0.85813 0.80167 0.0
C1347 C 0.62719 0.82066 0.80915 0.0
H1348 H 0.60684 0.8272 0.84416 0.0
C1349 C 0.61168 0.77603 0.84711 0.0
C1350 C 0.61152 0.77868 0.86172 0.0
C1351 C 0.61481 0.78687 0.83761 0.0
C1352 C 0.61285 0.82533 0.83459 0.0
H1353 H 0.60867 0.84365 0.76454 0.0
H1354 H 0.61381 0.82719 0.78364 0.0
H1355 H 0.60692 0.84535 0.82591 0.0
H1356 H 0.61502 0.79457 0.87792 0.0
H1357 H 0.62056 0.81355 0.86126 0.0
H1358 H 0.63274 0.80045 0.81767 0.0
C1359 C 0.61458 0.83843 0.78573 0.0
C1360 C 0.61289 0.83574 0.82412 0.0
C1361 C 0.61152 0.84786 0.77482 0.0
C1362 C 0.61499 0.79226 0.86669 0.0
C1363 C 0.61811 0.80312 0.85717 0.0
C1364 C 0.62717 0.81026 0.81963 0.0
C1365 C 0.61795 0.84346 0.79932 0.0
C1366 C 0.61973 0.83335 0.81115 0.0
C1367 C 0.61785 0.80058 0.84251 0.0
C1368 C 0.61966 0.81233 0.83229 0.0
H1369 H 0.61594 0.87883 0.79286 0.0
H1370 H 0.62126 0.86229 0.81202 0.0
H1371 H 0.63276 0.81864 0.79934 0.0
H1372 H 0.60907 0.76565 0.84299 0.0
H1373 H 0.61432 0.78461 0.82638 0.0
C1374 C 0.21483 0.61037 0.84749 0.0
C1375 C 0.21222 0.61086 0.8621 0.0
C1376 C 0.20395 0.61293 0.83786 0.0
C1377 C 0.16546 0.61066 0.8348 0.0
H1378 H 0.17201 0.62998 0.79921 0.0
C1379 C 0.12254 0.61368 0.79149 0.0
C1380 C 0.12726 0.61013 0.77786 0.0
C1381 C 0.13227 0.61635 0.80232 0.0
C1382 C 0.17003 0.62454 0.8091 0.0
H1383 H 0.1963 0.61484 0.87813 0.0
H1384 H 0.17725 0.61935 0.86125 0.0
H1385 H 0.19035 0.63017 0.81739 0.0
H1386 H 0.14579 0.60696 0.76472 0.0
H1387 H 0.16273 0.61149 0.78359 0.0
H1388 H 0.14531 0.60468 0.82637 0.0
C1389 C 0.18769 0.61686 0.85726 0.0
C1390 C 0.18052 0.62465 0.8195 0.0
C1391 C 0.1986 0.61433 0.86691 0.0
C1392 C 0.14184 0.60967 0.77513 0.0
C1393 C 0.15155 0.61237 0.78592 0.0
C1394 C 0.15497 0.61056 0.8244 0.0
C1395 C 0.19022 0.61601 0.84263 0.0
C1396 C 0.17848 0.61743 0.83233 0.0
C1397 C 0.14688 0.61557 0.79967 0.0
C1398 C 0.15728 0.61721 0.81131 0.0
H1399 H 0.22523 0.60773 0.84347 0.0
H1400 H 0.20621 0.612 0.82666 0.0
H1401 H 0.16362 0.60487 0.84451 0.0
H1402 H 0.11134 0.61417 0.79387 0.0
H1403 H 0.12836 0.61893 0.81278 0.0
C1404 C 0.37625 0.12372 0.79072 0.0
C1405 C 0.37987 0.12839 0.77709 0.0
C1406 C 0.37407 0.13347 0.80163 0.0
C1407 C 0.36699 0.17131 0.80864 0.0
H1408 H 0.38639 0.16428 0.84409 0.0
C1409 C 0.38105 0.21557 0.84784 0.0
C1410 C 0.3805 0.21272 0.8624 0.0
C1411 C 0.37859 0.20482 0.83801 0.0
C1412 C 0.38068 0.1663 0.83437 0.0
H1413 H 0.38375 0.14687 0.76407 0.0
H1414 H 0.38004 0.16385 0.78309 0.0
H1415 H 0.38633 0.14616 0.82575 0.0
H1416 H 0.37651 0.19652 0.87814 0.0
H1417 H 0.37211 0.17771 0.86092 0.0
H1418 H 0.36161 0.19158 0.81714 0.0
C1419 C 0.37874 0.1527 0.78535 0.0
C1420 C 0.38065 0.15591 0.82385 0.0
C1421 C 0.38097 0.14296 0.77448 0.0
C1422 C 0.37707 0.199 0.86697 0.0
C1423 C 0.37461 0.18822 0.85712 0.0
C1424 C 0.36699 0.18168 0.81916 0.0
C1425 C 0.37541 0.14805 0.79908 0.0
C1426 C 0.37407 0.15843 0.81077 0.0
C1427 C 0.37552 0.19099 0.84253 0.0
C1428 C 0.3741 0.17941 0.83202 0.0
H1429 H 0.37529 0.11253 0.79302 0.0
H1430 H 0.3714 0.12959 0.81208 0.0
H1431 H 0.36162 0.17344 0.79875 0.0
H1432 H 0.38368 0.22605 0.84401 0.0
H1433 H 0.37957 0.20727 0.82686 0.0
C1434 C 0.84612 0.38357 0.77223 0.0
C1435 C 0.86041 0.38278 0.77619 0.0
C1436 C 0.83548 0.38236 0.78237 0.0
C1437 C 0.82794 0.37062 0.8189 0.0
H1438 H 0.7976 0.39805 0.81627 0.0
C1439 C 0.78825 0.38156 0.86425 0.0
C1440 C 0.77413 0.38419 0.86044 0.0
C1441 C 0.79863 0.38004 0.85384 0.0
C1442 C 0.80588 0.39018 0.81705 0.0
H1443 H 0.87481 0.37969 0.79377 0.0
H1444 H 0.85617 0.37773 0.81158 0.0
H1445 H 0.81602 0.39775 0.79834 0.0
H1446 H 0.7597 0.38677 0.84279 0.0
H1447 H 0.77777 0.38395 0.82464 0.0
H1448 H 0.8178 0.36318 0.83776 0.0
C1449 C 0.8532 0.37915 0.80061 0.0
C1450 C 0.81644 0.39001 0.80677 0.0
C1451 C 0.86387 0.38035 0.79043 0.0
C1452 C 0.77051 0.38486 0.84605 0.0
C1453 C 0.78087 0.38331 0.83566 0.0
C1454 C 0.81734 0.37079 0.82921 0.0
C1455 C 0.8389 0.38037 0.7967 0.0
C1456 C 0.82759 0.38024 0.80757 0.0
C1457 C 0.79508 0.38111 0.83944 0.0
C1458 C 0.8062 0.38059 0.82839 0.0
H1459 H 0.84314 0.38533 0.76131 0.0
H1460 H 0.82456 0.38309 0.779 0.0
H1461 H 0.83633 0.36289 0.81971 0.0
H1462 H 0.79133 0.381 0.87527 0.0
H1463 H 0.8095 0.37847 0.85709 0.0
C1464 C 0.60644 0.21855 0.14384 0.0
C1465 C 0.60705 0.21479 0.12948 0.0
C1466 C 0.60768 0.20824 0.15431 0.0
C1467 C 0.61922 0.17167 0.16141 0.0
H1468 H 0.59134 0.17384 0.19143 0.0
C1469 C 0.60864 0.12617 0.20118 0.0
C1470 C 0.6056 0.13002 0.21521 0.0
C1471 C 0.6101 0.13654 0.19074 0.0
C1472 C 0.59934 0.17318 0.18326 0.0
H1473 H 0.60995 0.19742 0.11478 0.0
H1474 H 0.61203 0.17933 0.13314 0.0
H1475 H 0.59181 0.19193 0.1732 0.0
H1476 H 0.60226 0.14769 0.22946 0.0
H1477 H 0.60503 0.16576 0.21134 0.0
H1478 H 0.62668 0.15282 0.17151 0.0
C1479 C 0.61069 0.19027 0.13628 0.0
C1480 C 0.5996 0.18355 0.1728 0.0
C1481 C 0.60943 0.2006 0.12578 0.0
C1482 C 0.60447 0.14441 0.2187 0.0
C1483 C 0.60599 0.15475 0.2083 0.0
C1484 C 0.61898 0.16128 0.17194 0.0
C1485 C 0.60955 0.19396 0.15065 0.0
C1486 C 0.60955 0.18294 0.16178 0.0
C1487 C 0.60857 0.15094 0.19416 0.0
C1488 C 0.60905 0.16195 0.18299 0.0
H1489 H 0.60471 0.22942 0.14702 0.0
H1490 H 0.60701 0.21144 0.1653 0.0
H1491 H 0.62706 0.17099 0.15309 0.0
H1492 H 0.60957 0.11514 0.19821 0.0
H1493 H 0.61197 0.13325 0.17992 0.0
C1494 C 0.86416 0.61076 0.20225 0.0
C1495 C 0.86055 0.60718 0.21621 0.0
C1496 C 0.85365 0.61205 0.19192 0.0
C1497 C 0.81754 0.59972 0.1843 0.0
H1498 H 0.81812 0.6285 0.15508 0.0
C1499 C 0.77171 0.60542 0.14513 0.0
C1500 C 0.77535 0.60697 0.13082 0.0
C1501 C 0.78197 0.60683 0.15564 0.0
C1502 C 0.81789 0.62035 0.16313 0.0
H1503 H 0.84314 0.60272 0.23048 0.0
H1504 H 0.82483 0.60517 0.21255 0.0
H1505 H 0.8364 0.62852 0.17341 0.0
H1506 H 0.79246 0.61164 0.11626 0.0
H1507 H 0.81048 0.61395 0.13467 0.0
H1508 H 0.79917 0.59145 0.17404 0.0
C1509 C 0.83576 0.60669 0.20949 0.0
C1510 C 0.82835 0.62036 0.1736 0.0
C1511 C 0.84625 0.60536 0.21977 0.0
C1512 C 0.78937 0.61038 0.12722 0.0
C1513 C 0.79966 0.61178 0.13776 0.0
C1514 C 0.80712 0.59972 0.17387 0.0
C1515 C 0.83936 0.6098 0.1954 0.0
C1516 C 0.82826 0.61005 0.18431 0.0
C1517 C 0.7961 0.60977 0.15206 0.0
C1518 C 0.80715 0.61004 0.16319 0.0
H1519 H 0.87512 0.61222 0.19923 0.0
H1520 H 0.85676 0.61435 0.18114 0.0
H1521 H 0.81735 0.59144 0.19221 0.0
H1522 H 0.76097 0.6029 0.14823 0.0
H1523 H 0.77886 0.60547 0.16659 0.0
C1524 C 0.37914 0.78889 0.12611 0.0
C1525 C 0.38277 0.77502 0.12996 0.0
C1526 C 0.3786 0.79959 0.13634 0.0
C1527 C 0.39337 0.8084 0.17116 0.0
H1528 H 0.36399 0.83693 0.17249 0.0
C1529 C 0.38881 0.84695 0.21774 0.0
C1530 C 0.38591 0.86117 0.21465 0.0
C1531 C 0.38778 0.83665 0.20723 0.0
C1532 C 0.37234 0.82912 0.17214 0.0
H1533 H 0.38812 0.76131 0.14756 0.0
H1534 H 0.38705 0.7799 0.16536 0.0
H1535 H 0.36307 0.81843 0.15438 0.0
H1536 H 0.37949 0.87577 0.19819 0.0
H1537 H 0.37786 0.85773 0.1797 0.0
H1538 H 0.40272 0.81904 0.18879 0.0
C1539 C 0.38486 0.78259 0.15444 0.0
C1540 C 0.3718 0.81854 0.1618 0.0
C1541 C 0.38539 0.77193 0.14425 0.0
C1542 C 0.38178 0.86488 0.20086 0.0
C1543 C 0.38077 0.85454 0.19031 0.0
C1544 C 0.39392 0.81896 0.18144 0.0
C1545 C 0.38171 0.79657 0.15056 0.0
C1546 C 0.38226 0.808 0.16129 0.0
C1547 C 0.38388 0.84033 0.19337 0.0
C1548 C 0.38336 0.82937 0.18214 0.0
H1549 H 0.37707 0.79156 0.11516 0.0
H1550 H 0.37621 0.81029 0.13303 0.0
H1551 H 0.40175 0.80061 0.17084 0.0
H1552 H 0.39192 0.84377 0.2283 0.0
H1553 H 0.39001 0.82576 0.20999 0.0
C1554 C 0.19834 0.37352 0.12375 0.0
C1555 C 0.21197 0.37724 0.12836 0.0
C1556 C 0.18761 0.37083 0.13356 0.0
C1557 C 0.18101 0.36344 0.17157 0.0
H1558 H 0.14576 0.38324 0.16492 0.0
C1559 C 0.14339 0.37989 0.21624 0.0
C1560 C 0.12875 0.37936 0.21383 0.0
C1561 C 0.15286 0.37677 0.20536 0.0
C1562 C 0.15542 0.37741 0.16683 0.0
H1563 H 0.22523 0.38058 0.1468 0.0
H1564 H 0.20653 0.37606 0.16388 0.0
H1565 H 0.16369 0.38267 0.14645 0.0
H1566 H 0.11248 0.37473 0.19831 0.0
H1567 H 0.12906 0.36926 0.17925 0.0
H1568 H 0.1729 0.3586 0.19215 0.0
C1569 C 0.20412 0.37505 0.15272 0.0
C1570 C 0.1657 0.37707 0.15624 0.0
C1571 C 0.21481 0.37775 0.14293 0.0
C1572 C 0.12373 0.3753 0.20044 0.0
C1573 C 0.13321 0.37221 0.18953 0.0
C1574 C 0.17074 0.36379 0.18216 0.0
C1575 C 0.19034 0.37177 0.14816 0.0
C1576 C 0.17875 0.37039 0.15863 0.0
C1577 C 0.14787 0.37307 0.19184 0.0
C1578 C 0.15798 0.37107 0.18003 0.0
H1579 H 0.19588 0.37297 0.11257 0.0
H1580 H 0.17713 0.36818 0.12973 0.0
H1581 H 0.19087 0.35799 0.17361 0.0
H1582 H 0.14756 0.38298 0.22647 0.0
H1583 H 0.16409 0.37772 0.20742 0.0
C1584 C 0.77153 0.61065 0.84624 0.0
C1585 C 0.77555 0.60991 0.86051 0.0
C1586 C 0.7817 0.61231 0.83568 0.0
C1587 C 0.81894 0.62231 0.82888 0.0
H1588 H 0.8146 0.59717 0.79672 0.0
C1589 C 0.86371 0.61063 0.78867 0.0
C1590 C 0.85981 0.60879 0.77445 0.0
C1591 C 0.85336 0.61248 0.79907 0.0
C1592 C 0.81587 0.60443 0.8055 0.0
H1593 H 0.7933 0.61085 0.87502 0.0
H1594 H 0.81115 0.61358 0.85652 0.0
H1595 H 0.79662 0.59747 0.81507 0.0
H1596 H 0.84214 0.60812 0.75982 0.0
H1597 H 0.82413 0.61157 0.7779 0.0
H1598 H 0.83834 0.62912 0.81931 0.0
C1599 C 0.80011 0.61301 0.85351 0.0
C1600 C 0.80556 0.6046 0.81603 0.0
C1601 C 0.7899 0.61138 0.86409 0.0
C1602 C 0.84545 0.60936 0.77073 0.0
C1603 C 0.83513 0.61128 0.78109 0.0
C1604 C 0.82929 0.62216 0.8183 0.0
C1605 C 0.79613 0.61322 0.83918 0.0
C1606 C 0.80697 0.61351 0.82785 0.0
C1607 C 0.83894 0.61257 0.79541 0.0
C1608 C 0.82786 0.61319 0.80651 0.0
H1609 H 0.76052 0.60968 0.84318 0.0
H1610 H 0.77828 0.61269 0.82475 0.0
H1611 H 0.82025 0.62938 0.83782 0.0
H1612 H 0.87472 0.61023 0.79182 0.0
H1613 H 0.85663 0.61333 0.81002 0.0
C1614 C 0.381 0.84703 0.77188 0.0
C1615 C 0.38182 0.86135 0.77572 0.0
C1616 C 0.3792 0.83663 0.78217 0.0
C1617 C 0.36908 0.83048 0.81953 0.0
H1618 H 0.39331 0.79768 0.81539 0.0
C1619 C 0.38047 0.7905 0.8646 0.0
C1620 C 0.38171 0.77618 0.86082 0.0
C1621 C 0.37869 0.80083 0.85418 0.0
C1622 C 0.38631 0.80665 0.81661 0.0
H1623 H 0.38092 0.87611 0.79326 0.0
H1624 H 0.37803 0.85787 0.81135 0.0
H1625 H 0.39342 0.81586 0.79727 0.0
H1626 H 0.38135 0.76135 0.8433 0.0
H1627 H 0.37807 0.77933 0.82517 0.0
H1628 H 0.36218 0.82127 0.83909 0.0
C1629 C 0.3786 0.8547 0.80035 0.0
C1630 C 0.38637 0.81708 0.80621 0.0
C1631 C 0.38034 0.86513 0.79002 0.0
C1632 C 0.38056 0.77232 0.84652 0.0
C1633 C 0.37875 0.78262 0.83613 0.0
C1634 C 0.36904 0.82001 0.82999 0.0
C1635 C 0.37827 0.84031 0.79655 0.0
C1636 C 0.37778 0.82912 0.80754 0.0
C1637 C 0.37809 0.79701 0.83981 0.0
C1638 C 0.37767 0.80799 0.82863 0.0
H1639 H 0.38197 0.84381 0.76092 0.0
H1640 H 0.37871 0.82566 0.77888 0.0
H1641 H 0.36225 0.83957 0.82079 0.0
H1642 H 0.38131 0.79376 0.87556 0.0
H1643 H 0.37831 0.81184 0.85734 0.0
C1644 C 0.2194 0.38238 0.84545 0.0
C1645 C 0.21552 0.38178 0.85978 0.0
C1646 C 0.20923 0.38075 0.83489 0.0
C1647 C 0.1728 0.36836 0.82768 0.0
H1648 H 0.17477 0.39582 0.79727 0.0
C1649 C 0.12684 0.37886 0.78853 0.0
C1650 C 0.13044 0.38175 0.77441 0.0
C1651 C 0.1374 0.3773 0.79877 0.0
C1652 C 0.17418 0.38792 0.80556 0.0
H1653 H 0.19809 0.37851 0.87432 0.0
H1654 H 0.18023 0.3758 0.85581 0.0
H1655 H 0.19292 0.39576 0.81547 0.0
H1656 H 0.14786 0.3847 0.75978 0.0
H1657 H 0.16627 0.3818 0.77756 0.0
H1658 H 0.1539 0.36066 0.81777 0.0
C1659 C 0.19116 0.37741 0.85276 0.0
C1660 C 0.18458 0.3879 0.816 0.0
C1661 C 0.20136 0.37903 0.86335 0.0
C1662 C 0.14477 0.3826 0.77061 0.0
C1663 C 0.15531 0.38101 0.78081 0.0
C1664 C 0.16236 0.36838 0.8172 0.0
C1665 C 0.19496 0.37851 0.83842 0.0
C1666 C 0.18402 0.37814 0.82718 0.0
C1667 C 0.15174 0.3786 0.79505 0.0
C1668 C 0.16294 0.37818 0.80603 0.0
H1669 H 0.23026 0.38438 0.84238 0.0
H1670 H 0.21252 0.3814 0.82393 0.0
H1671 H 0.17216 0.36064 0.83611 0.0
H1672 H 0.11586 0.37814 0.79175 0.0
H1673 H 0.13431 0.37557 0.80966 0.0
C1674 C 0.60793 0.12485 0.78767 0.0
C1675 C 0.60544 0.12885 0.77358 0.0
C1676 C 0.60943 0.13514 0.79821 0.0
C1677 C 0.59977 0.17212 0.80559 0.0
H1678 H 0.62667 0.16895 0.83641 0.0
C1679 C 0.60747 0.21723 0.84523 0.0
C1680 C 0.60759 0.21347 0.85959 0.0
C1681 C 0.60865 0.20688 0.83478 0.0
C1682 C 0.61906 0.1699 0.8279 0.0
H1683 H 0.60311 0.14666 0.75934 0.0
H1684 H 0.60595 0.16458 0.77763 0.0
H1685 H 0.62608 0.1508 0.81793 0.0
H1686 H 0.60958 0.19603 0.87434 0.0
H1687 H 0.61154 0.17786 0.85601 0.0
H1688 H 0.59268 0.19112 0.8155 0.0
C1689 C 0.60645 0.15353 0.78063 0.0
C1690 C 0.6187 0.15952 0.81735 0.0
C1691 C 0.60489 0.14327 0.77014 0.0
C1692 C 0.60944 0.19922 0.86334 0.0
C1693 C 0.61063 0.18883 0.85286 0.0
C1694 C 0.60015 0.18247 0.81608 0.0
C1695 C 0.6085 0.14959 0.79482 0.0
C1696 C 0.60907 0.16055 0.80605 0.0
C1697 C 0.60995 0.19255 0.83847 0.0
C1698 C 0.60981 0.18151 0.82732 0.0
H1699 H 0.6084 0.11379 0.79061 0.0
H1700 H 0.61089 0.13176 0.80906 0.0
H1701 H 0.592 0.17306 0.79722 0.0
H1702 H 0.60617 0.22815 0.84203 0.0
H1703 H 0.60835 0.21008 0.82378 0.0
C1704 C 0.86734 0.37575 0.20052 0.0
C1705 C 0.86293 0.38054 0.21388 0.0
C1706 C 0.85744 0.37333 0.1898 0.0
C1707 C 0.81916 0.36798 0.18334 0.0
H1708 H 0.82724 0.38448 0.14666 0.0
C1709 C 0.77569 0.38221 0.14347 0.0
C1710 C 0.77833 0.38024 0.12899 0.0
C1711 C 0.78635 0.37986 0.1534 0.0
C1712 C 0.82491 0.37958 0.15675 0.0
H1713 H 0.84475 0.38624 0.22664 0.0
H1714 H 0.82751 0.38215 0.20794 0.0
H1715 H 0.84545 0.38451 0.16491 0.0
H1716 H 0.79405 0.37392 0.11352 0.0
H1717 H 0.8127 0.36975 0.13093 0.0
H1718 H 0.7985 0.36338 0.17529 0.0
C1719 C 0.83857 0.3801 0.20575 0.0
C1720 C 0.83534 0.3796 0.16721 0.0
C1721 C 0.84845 0.38255 0.21644 0.0
C1722 C 0.79174 0.37558 0.12463 0.0
C1723 C 0.80243 0.37325 0.13457 0.0
C1724 C 0.80873 0.36796 0.17289 0.0
C1725 C 0.84296 0.37561 0.19228 0.0
C1726 C 0.83247 0.37408 0.18071 0.0
C1727 C 0.79987 0.37549 0.14905 0.0
C1728 C 0.8114 0.37404 0.15958 0.0
H1729 H 0.87845 0.37406 0.19829 0.0
H1730 H 0.86111 0.36975 0.17955 0.0
H1731 H 0.81673 0.36343 0.19357 0.0
H1732 H 0.76545 0.3858 0.14713 0.0
H1733 H 0.7841 0.38188 0.16445 0.0
C1734 C 0.6082 0.8649 0.20021 0.0
C1735 C 0.60479 0.86108 0.21415 0.0
C1736 C 0.60928 0.85456 0.18967 0.0
C1737 C 0.59705 0.81847 0.18153 0.0
H1738 H 0.62634 0.81916 0.15281 0.0
C1739 C 0.60453 0.77209 0.14336 0.0
C1740 C 0.60633 0.77542 0.129 0.0
C1741 C 0.60543 0.78262 0.15365 0.0
C1742 C 0.61804 0.81891 0.1607 0.0
H1743 H 0.60025 0.84346 0.22813 0.0
H1744 H 0.6023 0.82546 0.20985 0.0
H1745 H 0.62585 0.83756 0.17103 0.0
H1746 H 0.61093 0.79228 0.11415 0.0
H1747 H 0.61239 0.81079 0.1322 0.0
H1748 H 0.58919 0.79992 0.17127 0.0
C1749 C 0.60389 0.83643 0.20695 0.0
C1750 C 0.61775 0.82944 0.17111 0.0
C1751 C 0.60279 0.84674 0.21745 0.0
C1752 C 0.60949 0.78942 0.12516 0.0
C1753 C 0.61039 0.8 0.13548 0.0
C1754 C 0.59735 0.80798 0.17117 0.0
C1755 C 0.60696 0.84023 0.19291 0.0
C1756 C 0.60729 0.82926 0.18169 0.0
C1757 C 0.60811 0.79673 0.14981 0.0
C1758 C 0.60789 0.80802 0.1607 0.0
H1759 H 0.6098 0.87589 0.19738 0.0
H1760 H 0.61156 0.85783 0.17892 0.0
H1761 H 0.58867 0.81822 0.18934 0.0
H1762 H 0.60218 0.76136 0.14665 0.0
H1763 H 0.60389 0.77974 0.16464 0.0
C1764 C 0.12379 0.61338 0.19772 0.0
C1765 C 0.12841 0.60977 0.21137 0.0
C1766 C 0.13359 0.61593 0.18695 0.0
C1767 C 0.17147 0.62359 0.18033 0.0
H1768 H 0.16492 0.60387 0.14492 0.0
C1769 C 0.21618 0.60825 0.14233 0.0
C1770 C 0.21367 0.60872 0.1277 0.0
C1771 C 0.20531 0.61114 0.15186 0.0
C1772 C 0.1668 0.60968 0.15463 0.0
H1773 H 0.14684 0.60638 0.22459 0.0
H1774 H 0.16392 0.61067 0.20579 0.0
H1775 H 0.14653 0.60405 0.16296 0.0
H1776 H 0.19799 0.61302 0.11153 0.0
H1777 H 0.17893 0.61809 0.12824 0.0
H1778 H 0.19192 0.62885 0.17214 0.0
C1779 C 0.15276 0.6117 0.20342 0.0
C1780 C 0.15626 0.60978 0.16497 0.0
C1781 C 0.14298 0.60913 0.21416 0.0
C1782 C 0.20019 0.61251 0.12276 0.0
C1783 C 0.18928 0.61536 0.13232 0.0
C1784 C 0.18201 0.62349 0.16999 0.0
C1785 C 0.14817 0.61497 0.18966 0.0
C1786 C 0.15862 0.61644 0.17806 0.0
C1787 C 0.19169 0.61453 0.14697 0.0
C1788 C 0.17991 0.61624 0.15717 0.0
H1789 H 0.11261 0.61402 0.1953 0.0
H1790 H 0.12975 0.61855 0.17648 0.0
H1791 H 0.17349 0.62903 0.19022 0.0
H1792 H 0.22648 0.60538 0.14643 0.0
H1793 H 0.20745 0.61021 0.16308 0.0
C1794 C 0.37568 0.20013 0.12456 0.0
C1795 C 0.37992 0.2136 0.12921 0.0
C1796 C 0.37317 0.1893 0.13431 0.0
C1797 C 0.36701 0.18245 0.17248 0.0
H1798 H 0.38437 0.14621 0.16439 0.0
C1799 C 0.38155 0.14252 0.2158 0.0
C1800 C 0.37957 0.12804 0.21307 0.0
C1801 C 0.37922 0.15249 0.20518 0.0
C1802 C 0.37924 0.15618 0.16672 0.0
H1803 H 0.38451 0.22645 0.14767 0.0
H1804 H 0.38034 0.20757 0.16465 0.0
H1805 H 0.38437 0.16461 0.14636 0.0
H1806 H 0.37335 0.11264 0.19722 0.0
H1807 H 0.36931 0.13012 0.1786 0.0
H1808 H 0.36229 0.17414 0.19301 0.0
C1809 C 0.37875 0.20536 0.15351 0.0
C1810 C 0.37923 0.16672 0.15638 0.0
C1811 C 0.38125 0.21616 0.14378 0.0
C1812 C 0.375 0.12374 0.1996 0.0
C1813 C 0.37273 0.13372 0.18894 0.0
C1814 C 0.36706 0.17192 0.18282 0.0
C1815 C 0.37485 0.19177 0.14889 0.0
C1816 C 0.37338 0.18008 0.15926 0.0
C1817 C 0.37492 0.14819 0.19161 0.0
C1818 C 0.37344 0.15878 0.18015 0.0
H1819 H 0.37451 0.19788 0.11338 0.0
H1820 H 0.37003 0.17897 0.13044 0.0
H1821 H 0.36219 0.19254 0.17492 0.0
H1822 H 0.38506 0.14614 0.22609 0.0
H1823 H 0.38119 0.16354 0.20751 0.0
C1824 C 0.86363 0.78995 0.61229 0.0
C1825 C 0.8602 0.77566 0.61006 0.0
C1826 C 0.85293 0.79996 0.61414 0.0
C1827 C 0.81573 0.80543 0.60483 0.0
H1828 H 0.81802 0.83726 0.63064 0.0
C1829 C 0.77037 0.8452 0.60911 0.0
C1830 C 0.77418 0.85956 0.60915 0.0
C1831 C 0.78058 0.83478 0.61113 0.0
C1832 C 0.81729 0.82847 0.62332 0.0
H1833 H 0.843 0.76049 0.60874 0.0
H1834 H 0.82437 0.77791 0.61213 0.0
H1835 H 0.83656 0.81924 0.63089 0.0
H1836 H 0.79156 0.87434 0.61179 0.0
H1837 H 0.8095 0.85609 0.61506 0.0
H1838 H 0.7967 0.81468 0.59703 0.0
C1839 C 0.83528 0.78144 0.61218 0.0
C1840 C 0.82788 0.81816 0.62348 0.0
C1841 C 0.84595 0.77146 0.6103 0.0
C1842 C 0.78833 0.86333 0.61169 0.0
C1843 C 0.79859 0.85289 0.61366 0.0
C1844 C 0.80519 0.8157 0.60466 0.0
C1845 C 0.83863 0.79584 0.6138 0.0
C1846 C 0.82722 0.80656 0.61419 0.0
C1847 C 0.79485 0.83849 0.61314 0.0
C1848 C 0.80586 0.82736 0.61386 0.0
H1849 H 0.87454 0.79346 0.61217 0.0
H1850 H 0.85583 0.811 0.61527 0.0
H1851 H 0.81506 0.79678 0.59733 0.0
H1852 H 0.75951 0.84199 0.60731 0.0
H1853 H 0.77733 0.82379 0.61094 0.0
C1854 C 0.86388 0.20073 0.37848 0.0
C1855 C 0.86031 0.21507 0.37987 0.0
C1856 C 0.85331 0.19055 0.37645 0.0
C1857 C 0.81562 0.18521 0.38377 0.0
H1858 H 0.81947 0.15225 0.35963 0.0
C1859 C 0.77064 0.14493 0.37888 0.0
C1860 C 0.77447 0.13063 0.3798 0.0
C1861 C 0.78093 0.15532 0.37683 0.0
C1862 C 0.8183 0.16136 0.36648 0.0
H1863 H 0.84305 0.23014 0.37949 0.0
H1864 H 0.82467 0.21244 0.37579 0.0
H1865 H 0.83798 0.17038 0.35967 0.0
H1866 H 0.79197 0.11588 0.37878 0.0
H1867 H 0.81004 0.13409 0.37547 0.0
H1868 H 0.79617 0.17618 0.39083 0.0
C1869 C 0.83556 0.20899 0.37655 0.0
C1870 C 0.82888 0.17173 0.36649 0.0
C1871 C 0.84609 0.21913 0.37861 0.0
C1872 C 0.78873 0.12684 0.37813 0.0
C1873 C 0.79906 0.13726 0.37615 0.0
C1874 C 0.8051 0.17488 0.38377 0.0
C1875 C 0.83902 0.19456 0.37576 0.0
C1876 C 0.82765 0.18374 0.37518 0.0
C1877 C 0.79529 0.15164 0.37576 0.0
C1878 C 0.80631 0.16282 0.37517 0.0
H1879 H 0.87477 0.19731 0.37939 0.0
H1880 H 0.85629 0.1795 0.37598 0.0
H1881 H 0.8145 0.19418 0.39081 0.0
H1882 H 0.7597 0.14814 0.37998 0.0
H1883 H 0.77765 0.16628 0.37629 0.0
C1884 C 0.77162 0.84685 0.38134 0.0
C1885 C 0.77564 0.86115 0.38156 0.0
C1886 C 0.78173 0.83629 0.37954 0.0
C1887 C 0.81848 0.82934 0.36815 0.0
H1888 H 0.81528 0.7978 0.39418 0.0
C1889 C 0.86373 0.78953 0.37899 0.0
C1890 C 0.85992 0.77535 0.38129 0.0
C1891 C 0.85331 0.79986 0.37728 0.0
C1892 C 0.81622 0.8064 0.38667 0.0
H1893 H 0.7933 0.87568 0.37956 0.0
H1894 H 0.81107 0.85717 0.3766 0.0
H1895 H 0.79731 0.81611 0.39424 0.0
H1896 H 0.8423 0.76071 0.38291 0.0
H1897 H 0.82415 0.77866 0.37972 0.0
H1898 H 0.83757 0.81963 0.36074 0.0
C1899 C 0.80006 0.85414 0.37768 0.0
C1900 C 0.80591 0.81691 0.38671 0.0
C1901 C 0.78992 0.86473 0.37945 0.0
C1902 C 0.84555 0.77159 0.3813 0.0
C1903 C 0.83515 0.78188 0.37954 0.0
C1904 C 0.82883 0.81878 0.36811 0.0
C1905 C 0.79609 0.8398 0.37797 0.0
C1906 C 0.80693 0.8285 0.37748 0.0
C1907 C 0.8389 0.79617 0.37781 0.0
C1908 C 0.8278 0.80721 0.37739 0.0
H1909 H 0.76067 0.84378 0.38281 0.0
H1910 H 0.77831 0.82534 0.37955 0.0
H1911 H 0.81947 0.83809 0.36083 0.0
H1912 H 0.87475 0.79271 0.37892 0.0
H1913 H 0.85654 0.81079 0.37608 0.0
C1914 C 0.12502 0.78888 0.38079 0.0
C1915 C 0.12885 0.77495 0.38424 0.0
C1916 C 0.13533 0.79946 0.37981 0.0
C1917 C 0.1709 0.80795 0.39288 0.0
H1918 H 0.17079 0.83665 0.36358 0.0
C1919 C 0.21676 0.84723 0.38696 0.0
C1920 C 0.21328 0.86144 0.3845 0.0
C1921 C 0.20644 0.83672 0.38602 0.0
C1922 C 0.17087 0.82878 0.3719 0.0
H1923 H 0.14646 0.76104 0.38889 0.0
H1924 H 0.16444 0.77945 0.38707 0.0
H1925 H 0.15272 0.81809 0.36343 0.0
H1926 H 0.19635 0.87581 0.37886 0.0
H1927 H 0.1782 0.8574 0.37739 0.0
H1928 H 0.18891 0.81862 0.40145 0.0
C1929 C 0.15347 0.78226 0.38534 0.0
C1930 C 0.16054 0.81816 0.3718 0.0
C1931 C 0.14318 0.77171 0.38631 0.0
C1932 C 0.19932 0.86493 0.38081 0.0
C1933 C 0.18896 0.85439 0.3799 0.0
C1934 C 0.18118 0.81854 0.39299 0.0
C1935 C 0.14964 0.79628 0.38229 0.0
C1936 C 0.16051 0.8076 0.38227 0.0
C1937 C 0.19239 0.84019 0.38266 0.0
C1938 C 0.18133 0.82904 0.38247 0.0
H1939 H 0.11404 0.79167 0.37913 0.0
H1940 H 0.13206 0.81019 0.37754 0.0
H1941 H 0.17098 0.80014 0.40126 0.0
H1942 H 0.22746 0.84422 0.38972 0.0
H1943 H 0.20947 0.82584 0.38796 0.0
C1944 C 0.2187 0.1448 0.38215 0.0
C1945 C 0.21482 0.13047 0.38171 0.0
C1946 C 0.20856 0.15532 0.38031 0.0
C1947 C 0.17203 0.16208 0.36781 0.0
H1948 H 0.17434 0.19352 0.3941 0.0
C1949 C 0.12616 0.20131 0.3785 0.0
C1950 C 0.12982 0.21554 0.38076 0.0
C1951 C 0.1367 0.1911 0.37677 0.0
C1952 C 0.17365 0.18493 0.38653 0.0
H1953 H 0.1974 0.11585 0.37859 0.0
H1954 H 0.17956 0.13426 0.37563 0.0
H1955 H 0.19245 0.17536 0.39449 0.0
H1956 H 0.14728 0.2304 0.38225 0.0
H1957 H 0.16563 0.21264 0.37909 0.0
H1958 H 0.15299 0.17164 0.36007 0.0
C1959 C 0.19048 0.13737 0.37721 0.0
C1960 C 0.18405 0.17451 0.38675 0.0
C1961 C 0.20067 0.12683 0.37899 0.0
C1962 C 0.14415 0.21948 0.38066 0.0
C1963 C 0.15466 0.20931 0.37892 0.0
C1964 C 0.16157 0.17253 0.36761 0.0
C1965 C 0.19429 0.15174 0.37807 0.0
C1966 C 0.18336 0.16296 0.37741 0.0
C1967 C 0.15106 0.19497 0.37726 0.0
C1968 C 0.16229 0.18405 0.37699 0.0
H1969 H 0.22957 0.14791 0.3841 0.0
H1970 H 0.21188 0.16629 0.38076 0.0
H1971 H 0.17128 0.15337 0.36039 0.0
H1972 H 0.11519 0.19799 0.37851 0.0
H1973 H 0.13362 0.18012 0.3756 0.0
C1974 C 0.21532 0.14156 0.6095 0.0
C1975 C 0.21264 0.12697 0.61032 0.0
C1976 C 0.20462 0.15127 0.61236 0.0
C1977 C 0.16618 0.15463 0.61154 0.0
H1978 H 0.17382 0.19028 0.63044 0.0
C1979 C 0.12419 0.19865 0.61493 0.0
C1980 C 0.12912 0.21214 0.61108 0.0
C1981 C 0.13374 0.18772 0.61766 0.0
C1982 C 0.17153 0.18038 0.62513 0.0
H1983 H 0.1968 0.11107 0.61513 0.0
H1984 H 0.17801 0.12811 0.62012 0.0
H1985 H 0.19187 0.17186 0.63019 0.0
H1986 H 0.14786 0.22491 0.60749 0.0
H1987 H 0.16449 0.20585 0.61208 0.0
H1988 H 0.14603 0.1633 0.60607 0.0
C1989 C 0.18838 0.132 0.61718 0.0
C1990 C 0.18186 0.16984 0.62499 0.0
C1991 C 0.19913 0.12227 0.61436 0.0
C1992 C 0.14375 0.21462 0.61042 0.0
C1993 C 0.15328 0.20372 0.61317 0.0
C1994 C 0.15586 0.16518 0.61167 0.0
C1995 C 0.19099 0.14661 0.61607 0.0
C1996 C 0.17941 0.157 0.61788 0.0
C1997 C 0.14839 0.1901 0.61662 0.0
C1998 C 0.15857 0.17829 0.61815 0.0
H1999 H 0.22564 0.14549 0.60643 0.0
H2000 H 0.20691 0.16245 0.61121 0.0
H2001 H 0.16403 0.14491 0.60585 0.0
H2002 H 0.11296 0.19646 0.61558 0.0
H2003 H 0.12966 0.17737 0.62043 0.0
C2004 C 0.79105 0.12513 0.60978 0.0
C2005 C 0.77684 0.12879 0.60752 0.0
C2006 C 0.80135 0.13566 0.61133 0.0
C2007 C 0.80775 0.17278 0.60178 0.0
H2008 H 0.83918 0.17011 0.62801 0.0
C2009 C 0.84739 0.21821 0.60787 0.0
C2010 C 0.86176 0.21451 0.60784 0.0
C2011 C 0.83698 0.20786 0.60944 0.0
C2012 C 0.8305 0.17094 0.62058 0.0
H2013 H 0.76213 0.14627 0.60571 0.0
H2014 H 0.78003 0.16461 0.6086 0.0
H2015 H 0.82094 0.1517 0.62789 0.0
H2016 H 0.87657 0.19716 0.60994 0.0
H2017 H 0.85833 0.17897 0.61253 0.0
H2018 H 0.81729 0.19187 0.59434 0.0
C2019 C 0.78329 0.15363 0.60889 0.0
C2020 C 0.82007 0.16041 0.6205 0.0
C2021 C 0.77303 0.14313 0.6073 0.0
C2022 C 0.86556 0.2003 0.60991 0.0
C2023 C 0.85513 0.18991 0.61147 0.0
C2024 C 0.81812 0.18327 0.60186 0.0
C2025 C 0.7976 0.15003 0.61066 0.0
C2026 C 0.80858 0.16124 0.61109 0.0
C2027 C 0.84073 0.19356 0.61098 0.0
C2028 C 0.82961 0.18248 0.61126 0.0
H2029 H 0.79428 0.11414 0.61 0.0
H2030 H 0.8123 0.13254 0.61257 0.0
H2031 H 0.7992 0.17358 0.59418 0.0
H2032 H 0.84414 0.2291 0.60642 0.0
H2033 H 0.82598 0.21103 0.60928 0.0
C2034 C 0.20243 0.86322 0.61025 0.0
C2035 C 0.2165 0.85939 0.60743 0.0
C2036 C 0.19202 0.85281 0.61186 0.0
C2037 C 0.18479 0.81591 0.60172 0.0
H2038 H 0.15414 0.81859 0.62885 0.0
C2039 C 0.14484 0.77082 0.6083 0.0
C2040 C 0.13052 0.77468 0.60866 0.0
C2041 C 0.15539 0.78106 0.60974 0.0
C2042 C 0.1626 0.81777 0.62117 0.0
H2043 H 0.23085 0.84174 0.60468 0.0
H2044 H 0.21278 0.82362 0.60771 0.0
H2045 H 0.1726 0.83677 0.62852 0.0
H2046 H 0.11596 0.79217 0.61133 0.0
H2047 H 0.13445 0.81013 0.61369 0.0
H2048 H 0.17481 0.79704 0.59427 0.0
C2049 C 0.20969 0.83463 0.60837 0.0
C2050 C 0.17315 0.82816 0.62097 0.0
C2051 C 0.22006 0.84501 0.6067 0.0
C2052 C 0.12693 0.78891 0.61099 0.0
C2053 C 0.13751 0.79917 0.61242 0.0
C2054 C 0.1743 0.80554 0.60194 0.0
C2055 C 0.19551 0.8384 0.6107 0.0
C2056 C 0.18437 0.82733 0.61123 0.0
C2057 C 0.15185 0.79537 0.61153 0.0
C2058 C 0.16309 0.80634 0.61166 0.0
H2059 H 0.1994 0.87424 0.61086 0.0
H2060 H 0.18117 0.85606 0.61353 0.0
H2061 H 0.1931 0.81512 0.59387 0.0
H2062 H 0.14793 0.75992 0.60664 0.0
H2063 H 0.16636 0.77777 0.60926 0.0
C2064 C 0.10326 0.23393 0.44319 0.0
C2065 C 0.10627 0.24602 0.4351 0.0
C2066 C 0.1051 0.23407 0.45783 0.0
C2067 C 0.10668 0.25835 0.48816 0.0
H2068 H 0.12104 0.22534 0.50777 0.0
C2069 C 0.11322 0.25692 0.54892 0.0
C2070 C 0.10807 0.24467 0.55558 0.0
C2071 C 0.11469 0.25738 0.53421 0.0
C2072 C 0.11695 0.23461 0.50244 0.0
H2073 H 0.11379 0.26769 0.43595 0.0
H2074 H 0.1171 0.26793 0.4616 0.0
H2075 H 0.1206 0.22566 0.48197 0.0
H2076 H 0.10068 0.2232 0.55213 0.0
H2077 H 0.10315 0.22402 0.52649 0.0
H2078 H 0.10282 0.2672 0.50864 0.0
C2079 C 0.11317 0.25838 0.45661 0.0
C2080 C 0.11669 0.2348 0.48767 0.0
C2081 C 0.11133 0.25823 0.44193 0.0
C2082 C 0.10468 0.23279 0.5473 0.0
C2083 C 0.10619 0.23323 0.53261 0.0
C2084 C 0.10696 0.25817 0.50293 0.0
C2085 C 0.11001 0.24632 0.46472 0.0
C2086 C 0.11134 0.24658 0.48037 0.0
C2087 C 0.11109 0.24557 0.5259 0.0
C2088 C 0.11189 0.24621 0.51023 0.0
H2089 H 0.09932 0.22436 0.43822 0.0
H2090 H 0.10237 0.22468 0.46379 0.0
H2091 H 0.10234 0.26752 0.48285 0.0
H2092 H 0.11595 0.26622 0.55506 0.0
H2093 H 0.11862 0.26698 0.52934 0.0
C2094 C 0.73176 0.10776 0.54844 0.0
C2095 C 0.74419 0.10296 0.55501 0.0
C2096 C 0.7312 0.10932 0.53374 0.0
C2097 C 0.75402 0.11339 0.50231 0.0
H2098 H 0.72164 0.09875 0.48173 0.0
C2099 C 0.75545 0.10298 0.44243 0.0
C2100 C 0.74333 0.10603 0.43441 0.0
C2101 C 0.75514 0.10399 0.45715 0.0
C2102 C 0.73065 0.1031 0.48733 0.0
H2103 H 0.76576 0.09608 0.55141 0.0
H2104 H 0.76476 0.09873 0.5258 0.0
H2105 H 0.72179 0.09796 0.50754 0.0
H2106 H 0.72144 0.11274 0.43547 0.0
H2107 H 0.72093 0.11461 0.46127 0.0
H2108 H 0.76296 0.11838 0.48213 0.0
C2109 C 0.7555 0.10143 0.53198 0.0
C2110 C 0.73074 0.10263 0.50211 0.0
C2111 C 0.75604 0.09982 0.54664 0.0
C2112 C 0.73094 0.1103 0.44139 0.0
C2113 C 0.73062 0.11129 0.45615 0.0
C2114 C 0.75391 0.11388 0.48755 0.0
C2115 C 0.74308 0.10618 0.52536 0.0
C2116 C 0.74252 0.10757 0.50974 0.0
C2117 C 0.74271 0.10808 0.4642 0.0
C2118 C 0.74233 0.10855 0.47989 0.0
H2119 H 0.72247 0.11028 0.55464 0.0
H2120 H 0.72152 0.1131 0.52893 0.0
H2121 H 0.76313 0.11752 0.50791 0.0
H2122 H 0.76515 0.09964 0.43734 0.0
H2123 H 0.76458 0.10124 0.46304 0.0
C2124 C 0.88912 0.75637 0.44289 0.0
C2125 C 0.88581 0.74428 0.4349 0.0
C2126 C 0.88783 0.7562 0.4576 0.0
C2127 C 0.88734 0.73203 0.48797 0.0
H2128 H 0.87229 0.7646 0.50785 0.0
C2129 C 0.88068 0.73286 0.54872 0.0
C2130 C 0.88516 0.74528 0.55556 0.0
C2131 C 0.87946 0.73245 0.53398 0.0
C2132 C 0.87661 0.75546 0.50245 0.0
H2133 H 0.87845 0.72256 0.43597 0.0
H2134 H 0.87616 0.72228 0.46173 0.0
H2135 H 0.87258 0.76438 0.48205 0.0
H2136 H 0.89169 0.76706 0.55242 0.0
H2137 H 0.8897 0.76632 0.52674 0.0
H2138 H 0.89159 0.72321 0.50837 0.0
C2139 C 0.87986 0.73184 0.45661 0.0
C2140 C 0.87677 0.75534 0.48768 0.0
C2141 C 0.88111 0.73203 0.44188 0.0
C2142 C 0.88819 0.75734 0.54744 0.0
C2143 C 0.88696 0.75694 0.53273 0.0
C2144 C 0.8872 0.73216 0.50275 0.0
C2145 C 0.88324 0.74393 0.46463 0.0
C2146 C 0.88229 0.74369 0.48029 0.0
C2147 C 0.88267 0.74447 0.52583 0.0
C2148 C 0.88198 0.74395 0.51015 0.0
H2149 H 0.89279 0.76596 0.43779 0.0
H2150 H 0.8907 0.76561 0.46349 0.0
H2151 H 0.89182 0.72298 0.48257 0.0
H2152 H 0.87824 0.72341 0.55473 0.0
H2153 H 0.87597 0.72274 0.52898 0.0
C2154 C 0.23612 0.89668 0.44219 0.0
C2155 C 0.2473 0.89152 0.4339 0.0
C2156 C 0.23692 0.89631 0.45692 0.0
C2157 C 0.25496 0.87846 0.48645 0.0
H2158 H 0.24095 0.91043 0.50799 0.0
C2159 C 0.26024 0.88294 0.54747 0.0
C2160 C 0.24829 0.88798 0.5547 0.0
C2161 C 0.26071 0.88322 0.53268 0.0
C2162 C 0.24479 0.90137 0.50213 0.0
H2163 H 0.2681 0.88193 0.43448 0.0
H2164 H 0.26958 0.88139 0.4603 0.0
H2165 H 0.24087 0.91138 0.48225 0.0
H2166 H 0.22738 0.89704 0.55219 0.0
H2167 H 0.22816 0.89743 0.52644 0.0
H2168 H 0.25884 0.86845 0.50641 0.0
C2169 C 0.26013 0.88559 0.45539 0.0
C2170 C 0.24474 0.90191 0.48738 0.0
C2171 C 0.25932 0.88597 0.44062 0.0
C2172 C 0.23677 0.89314 0.5469 0.0
C2173 C 0.23724 0.89345 0.53216 0.0
C2174 C 0.25503 0.87793 0.50124 0.0
C2175 C 0.24894 0.89078 0.46369 0.0
C2176 C 0.24968 0.89041 0.47937 0.0
C2177 C 0.24926 0.8886 0.52488 0.0
C2178 C 0.24979 0.88932 0.50922 0.0
H2179 H 0.22669 0.90097 0.4373 0.0
H2180 H 0.22803 0.90018 0.46301 0.0
H2181 H 0.2587 0.86937 0.48058 0.0
H2182 H 0.26929 0.87892 0.55322 0.0
H2183 H 0.27015 0.8795 0.52736 0.0
C2184 C 0.10905 0.72958 0.54898 0.0
C2185 C 0.10502 0.74226 0.5556 0.0
C2186 C 0.11019 0.72886 0.53424 0.0
C2187 C 0.11376 0.75137 0.5024 0.0
H2188 H 0.09723 0.7193 0.48276 0.0
C2189 C 0.09963 0.7532 0.44343 0.0
C2190 C 0.10264 0.74129 0.43508 0.0
C2191 C 0.10124 0.75268 0.45808 0.0
C2192 C 0.10208 0.72822 0.4881 0.0
H2193 H 0.09914 0.76413 0.55205 0.0
H2194 H 0.10098 0.76284 0.52641 0.0
H2195 H 0.09784 0.71955 0.50859 0.0
H2196 H 0.10968 0.71948 0.43548 0.0
H2197 H 0.11246 0.71856 0.46122 0.0
H2198 H 0.11773 0.76017 0.48194 0.0
C2199 C 0.10345 0.7535 0.53255 0.0
C2200 C 0.10244 0.72836 0.50289 0.0
C2201 C 0.1023 0.75422 0.54725 0.0
C2202 C 0.10727 0.72882 0.44167 0.0
C2203 C 0.10881 0.72828 0.45639 0.0
C2204 C 0.11337 0.75123 0.48764 0.0
C2205 C 0.10736 0.74081 0.52587 0.0
C2206 C 0.10806 0.74006 0.5102 0.0
C2207 C 0.10585 0.74023 0.46473 0.0
C2208 C 0.1073 0.73977 0.48034 0.0
H2209 H 0.11124 0.7202 0.55517 0.0
H2210 H 0.11335 0.71896 0.52941 0.0
H2211 H 0.11842 0.7604 0.50771 0.0
H2212 H 0.09602 0.76296 0.43864 0.0
H2213 H 0.09866 0.762 0.46424 0.0
C2214 C 0.2341 0.09813 0.44258 0.0
C2215 C 0.24591 0.10239 0.43463 0.0
C2216 C 0.23427 0.09907 0.45732 0.0
C2217 C 0.25843 0.1009 0.48779 0.0
H2218 H 0.22487 0.11348 0.50772 0.0
C2219 C 0.25718 0.10817 0.54854 0.0
C2220 C 0.24513 0.10289 0.55547 0.0
C2221 C 0.25751 0.10909 0.53378 0.0
C2222 C 0.23429 0.10984 0.50231 0.0
H2223 H 0.26714 0.11102 0.43584 0.0
H2224 H 0.26741 0.11274 0.46164 0.0
H2225 H 0.22507 0.11325 0.48193 0.0
H2226 H 0.22396 0.09454 0.55245 0.0
H2227 H 0.22457 0.09603 0.52673 0.0
H2228 H 0.2676 0.09735 0.50819 0.0
C2229 C 0.25808 0.10855 0.45647 0.0
C2230 C 0.2344 0.10971 0.48754 0.0
C2231 C 0.2579 0.10763 0.4417 0.0
C2232 C 0.23338 0.09868 0.5474 0.0
C2233 C 0.2337 0.09962 0.53266 0.0
C2234 C 0.25832 0.10103 0.50257 0.0
C2235 C 0.24625 0.10429 0.46443 0.0
C2236 C 0.24642 0.10509 0.48011 0.0
C2237 C 0.24578 0.10478 0.52568 0.0
C2238 C 0.24619 0.10536 0.51 0.0
H2239 H 0.22472 0.09401 0.43742 0.0
H2240 H 0.22507 0.0955 0.46316 0.0
H2241 H 0.26779 0.09712 0.48237 0.0
H2242 H 0.26638 0.11152 0.55451 0.0
H2243 H 0.26691 0.11324 0.52871 0.0
C2244 C 0.88713 0.23514 0.54635 0.0
C2245 C 0.88471 0.24716 0.55474 0.0
C2246 C 0.88515 0.23567 0.53174 0.0
C2247 C 0.88473 0.26037 0.50194 0.0
H2248 H 0.86838 0.22843 0.48194 0.0
C2249 C 0.87911 0.25941 0.44103 0.0
C2250 C 0.88342 0.24681 0.43446 0.0
C2251 C 0.87744 0.26001 0.45572 0.0
C2252 C 0.87303 0.23741 0.48737 0.0
H2253 H 0.87813 0.26911 0.55448 0.0
H2254 H 0.87465 0.27004 0.52884 0.0
H2255 H 0.86868 0.22855 0.50774 0.0
H2256 H 0.88916 0.2249 0.438 0.0
H2257 H 0.88638 0.22596 0.46359 0.0
H2258 H 0.88936 0.26909 0.48157 0.0
C2259 C 0.87817 0.26025 0.53359 0.0
C2260 C 0.87319 0.23747 0.50214 0.0
C2261 C 0.88011 0.2597 0.54825 0.0
C2262 C 0.88581 0.23476 0.44278 0.0
C2263 C 0.88412 0.23534 0.45743 0.0
C2264 C 0.88458 0.2603 0.48716 0.0
C2265 C 0.88072 0.24824 0.52519 0.0
C2266 C 0.87928 0.24883 0.50958 0.0
C2267 C 0.88001 0.24799 0.46408 0.0
C2268 C 0.87896 0.24869 0.47972 0.0
H2269 H 0.89069 0.22533 0.55105 0.0
H2270 H 0.8874 0.2263 0.52554 0.0
H2271 H 0.88963 0.26921 0.50738 0.0
H2272 H 0.87716 0.26885 0.43486 0.0
H2273 H 0.87414 0.26986 0.46052 0.0
C2274 C 0.75535 0.88772 0.44326 0.0
C2275 C 0.74326 0.88557 0.43489 0.0
C2276 C 0.75465 0.88628 0.45792 0.0
C2277 C 0.72973 0.88783 0.48762 0.0
H2278 H 0.76067 0.87058 0.50826 0.0
C2279 C 0.72958 0.88204 0.54861 0.0
C2280 C 0.74227 0.8857 0.55544 0.0
C2281 C 0.7291 0.88074 0.53388 0.0
C2282 C 0.75199 0.8755 0.50264 0.0
H2283 H 0.72099 0.88006 0.43524 0.0
H2284 H 0.71976 0.8775 0.46098 0.0
H2285 H 0.76087 0.87039 0.48246 0.0
H2286 H 0.76442 0.89081 0.55227 0.0
H2287 H 0.76358 0.88865 0.5266 0.0
H2288 H 0.72098 0.89313 0.50783 0.0
C2289 C 0.72975 0.8804 0.45617 0.0
C2290 C 0.7521 0.87539 0.48788 0.0
C2291 C 0.73047 0.8818 0.44145 0.0
C2292 C 0.75449 0.88795 0.5473 0.0
C2293 C 0.75403 0.88661 0.5326 0.0
C2294 C 0.72963 0.88793 0.50241 0.0
C2295 C 0.74183 0.88268 0.46456 0.0
C2296 C 0.74109 0.88175 0.48021 0.0
C2297 C 0.74133 0.88302 0.52572 0.0
C2298 C 0.74087 0.88197 0.51007 0.0
H2299 H 0.76535 0.89066 0.4385 0.0
H2300 H 0.76409 0.88831 0.4641 0.0
H2301 H 0.72118 0.89295 0.482 0.0
H2302 H 0.72 0.88022 0.55464 0.0
H2303 H 0.7192 0.87784 0.52888 0.0
C2304 C 0.43956 0.10584 0.25772 0.0
C2305 C 0.43253 0.10002 0.24598 0.0
C2306 C 0.45434 0.10604 0.25826 0.0
C2307 C 0.48572 0.08859 0.24301 0.0
H2308 H 0.50571 0.12183 0.25654 0.0
C2309 C 0.54568 0.09544 0.23571 0.0
C2310 C 0.55346 0.1009 0.24714 0.0
C2311 C 0.53093 0.09542 0.23601 0.0
C2312 C 0.50027 0.11241 0.2529 0.0
H2313 H 0.43539 0.08998 0.22554 0.0
H2314 H 0.46115 0.09046 0.22641 0.0
H2315 H 0.47988 0.12166 0.25622 0.0
H2316 H 0.55192 0.11069 0.26783 0.0
H2317 H 0.52606 0.1106 0.26839 0.0
H2318 H 0.50607 0.07936 0.23962 0.0
C2319 C 0.45528 0.09468 0.2353 0.0
C2320 C 0.48548 0.11231 0.25271 0.0
C2321 C 0.44053 0.09449 0.23476 0.0
C2322 C 0.54619 0.10644 0.25886 0.0
C2323 C 0.5314 0.10644 0.25915 0.0
C2324 C 0.50048 0.08869 0.24319 0.0
C2325 C 0.46236 0.10041 0.24708 0.0
C2326 C 0.47805 0.10043 0.24767 0.0
C2327 C 0.52361 0.10086 0.24775 0.0
C2328 C 0.50792 0.10064 0.24803 0.0
H2329 H 0.43366 0.11016 0.26654 0.0
H2330 H 0.45947 0.11039 0.26754 0.0
H2331 H 0.48031 0.07917 0.23932 0.0
H2332 H 0.55099 0.09115 0.2265 0.0
H2333 H 0.52524 0.09125 0.22696 0.0
C2334 C 0.88491 0.54799 0.25943 0.0
C2335 C 0.88976 0.55524 0.24741 0.0
C2336 C 0.88467 0.5332 0.25965 0.0
C2337 C 0.90077 0.50219 0.24241 0.0
H2338 H 0.86859 0.48187 0.25781 0.0
C2339 C 0.89391 0.44232 0.23465 0.0
C2340 C 0.88937 0.43438 0.24636 0.0
C2341 C 0.89369 0.45707 0.23508 0.0
C2342 C 0.87772 0.4874 0.25362 0.0
H2343 H 0.898 0.55277 0.22614 0.0
H2344 H 0.89747 0.52702 0.22647 0.0
H2345 H 0.86875 0.50771 0.25809 0.0
H2346 H 0.88091 0.4356 0.26764 0.0
H2347 H 0.88063 0.46144 0.26845 0.0
H2348 H 0.90974 0.48195 0.23791 0.0
C2349 C 0.89404 0.53272 0.2358 0.0
C2350 C 0.87781 0.50219 0.25378 0.0
C2351 C 0.89427 0.54747 0.23558 0.0
C2352 C 0.88445 0.44147 0.25846 0.0
C2353 C 0.88423 0.45625 0.25889 0.0
C2354 C 0.90068 0.48744 0.24225 0.0
C2355 C 0.8893 0.52542 0.24786 0.0
C2356 C 0.8893 0.50973 0.24809 0.0
C2357 C 0.88895 0.4642 0.24724 0.0
C2358 C 0.88911 0.47988 0.24776 0.0
H2359 H 0.88139 0.55373 0.26871 0.0
H2360 H 0.88108 0.52787 0.26914 0.0
H2361 H 0.90989 0.5077 0.23819 0.0
H2362 H 0.8977 0.43715 0.22516 0.0
H2363 H 0.89718 0.4629 0.22585 0.0
C2364 C 0.54659 0.89706 0.23916 0.0
C2365 C 0.55493 0.89055 0.24956 0.0
C2366 C 0.53191 0.89739 0.24048 0.0
C2367 C 0.5019 0.87956 0.25749 0.0
H2368 H 0.48211 0.91406 0.24757 0.0
C2369 C 0.44099 0.88531 0.26205 0.0
C2370 C 0.43432 0.89188 0.25052 0.0
C2371 C 0.45575 0.88539 0.26319 0.0
C2372 C 0.48747 0.90432 0.25029 0.0
H2373 H 0.55449 0.87918 0.26946 0.0
H2374 H 0.5287 0.87975 0.27179 0.0
H2375 H 0.50787 0.91366 0.24729 0.0
H2376 H 0.4378 0.90368 0.23116 0.0
H2377 H 0.46347 0.90372 0.23306 0.0
H2378 H 0.48145 0.87016 0.26027 0.0
C2379 C 0.53356 0.88455 0.26258 0.0
C2380 C 0.50222 0.90409 0.25013 0.0
C2381 C 0.5483 0.88426 0.26128 0.0
C2382 C 0.44264 0.89856 0.24019 0.0
C2383 C 0.45735 0.89867 0.24133 0.0
C2384 C 0.48711 0.87978 0.25764 0.0
C2385 C 0.52522 0.8912 0.25223 0.0
C2386 C 0.5096 0.89165 0.25349 0.0
C2387 C 0.46408 0.89209 0.25284 0.0
C2388 C 0.47974 0.8921 0.2538 0.0
H2389 H 0.5514 0.90196 0.22998 0.0
H2390 H 0.52576 0.90239 0.23221 0.0
H2391 H 0.5073 0.86979 0.26003 0.0
H2392 H 0.43483 0.88009 0.27018 0.0
H2393 H 0.46063 0.88033 0.27223 0.0
C2394 C 0.11131 0.54922 0.25686 0.0
C2395 C 0.10553 0.5557 0.2448 0.0
C2396 C 0.11293 0.53452 0.25738 0.0
C2397 C 0.1148 0.5028 0.23454 0.0
H2398 H 0.10254 0.48273 0.26815 0.0
C2399 C 0.1027 0.44323 0.2343 0.0
C2400 C 0.10668 0.43516 0.2461 0.0
C2401 C 0.10412 0.45792 0.23446 0.0
C2402 C 0.10622 0.48818 0.25877 0.0
H2403 H 0.09705 0.55195 0.22381 0.0
H2404 H 0.09978 0.52636 0.22474 0.0
H2405 H 0.10227 0.50853 0.26789 0.0
H2406 H 0.11542 0.43609 0.26729 0.0
H2407 H 0.11796 0.46184 0.26757 0.0
H2408 H 0.11855 0.48247 0.22534 0.0
C2409 C 0.10321 0.5326 0.23374 0.0
C2410 C 0.10606 0.50297 0.25862 0.0
C2411 C 0.10155 0.54725 0.23324 0.0
C2412 C 0.11224 0.44206 0.25805 0.0
C2413 C 0.11363 0.45679 0.25823 0.0
C2414 C 0.11497 0.48804 0.23469 0.0
C2415 C 0.10887 0.52606 0.24582 0.0
C2416 C 0.11013 0.51043 0.24642 0.0
C2417 C 0.10954 0.46488 0.24645 0.0
C2418 C 0.11046 0.48056 0.24673 0.0
H2419 H 0.1145 0.55548 0.26592 0.0
H2420 H 0.11743 0.52979 0.26679 0.0
H2421 H 0.11825 0.50826 0.22507 0.0
H2422 H 0.09836 0.4382 0.22494 0.0
H2423 H 0.10067 0.46385 0.2253 0.0
C2424 C 0.44222 0.8812 0.73253 0.0
C2425 C 0.43533 0.88693 0.74437 0.0
C2426 C 0.45694 0.87982 0.7324 0.0
C2427 C 0.48806 0.87854 0.75605 0.0
H2428 H 0.50882 0.8899 0.72253 0.0
C2429 C 0.54799 0.8893 0.75666 0.0
C2430 C 0.556 0.88489 0.74496 0.0
C2431 C 0.53326 0.88828 0.75644 0.0
C2432 C 0.50317 0.88648 0.7319 0.0
H2433 H 0.43837 0.89567 0.76538 0.0
H2434 H 0.46403 0.8934 0.76511 0.0
H2435 H 0.48303 0.89047 0.72237 0.0
H2436 H 0.55494 0.87574 0.72394 0.0
H2437 H 0.52916 0.87387 0.72359 0.0
H2438 H 0.50819 0.87473 0.76564 0.0
C2439 C 0.45809 0.88979 0.75599 0.0
C2440 C 0.4884 0.88681 0.73181 0.0
C2441 C 0.4434 0.89118 0.75611 0.0
C2442 C 0.54902 0.87926 0.7331 0.0
C2443 C 0.53427 0.87826 0.73287 0.0
C2444 C 0.50282 0.87821 0.75614 0.0
C2445 C 0.46503 0.88413 0.74413 0.0
C2446 C 0.48068 0.883 0.74394 0.0
C2447 C 0.52623 0.88283 0.74451 0.0
C2448 C 0.51054 0.88233 0.74412 0.0
H2449 H 0.43626 0.87779 0.72334 0.0
H2450 H 0.46198 0.87529 0.72316 0.0
H2451 H 0.48241 0.8753 0.76548 0.0
H2452 H 0.55308 0.89371 0.76595 0.0
H2453 H 0.52737 0.89208 0.7655 0.0
C2454 C 0.09949 0.44255 0.75511 0.0
C2455 C 0.10318 0.43453 0.74317 0.0
C2456 C 0.10073 0.45726 0.75493 0.0
C2457 C 0.10224 0.48771 0.7308 0.0
H2458 H 0.11609 0.50736 0.76409 0.0
C2459 C 0.1093 0.54851 0.7325 0.0
C2460 C 0.1043 0.55523 0.74478 0.0
C2461 C 0.1104 0.53377 0.73196 0.0
C2462 C 0.11212 0.50203 0.75475 0.0
H2463 H 0.11111 0.43556 0.72167 0.0
H2464 H 0.11335 0.46134 0.72137 0.0
H2465 H 0.1157 0.48158 0.76371 0.0
H2466 H 0.09668 0.55184 0.76615 0.0
H2467 H 0.09849 0.52617 0.76518 0.0
H2468 H 0.09848 0.50818 0.72191 0.0
C2469 C 0.10938 0.45624 0.73083 0.0
C2470 C 0.11189 0.48727 0.75453 0.0
C2471 C 0.10816 0.4415 0.73103 0.0
C2472 C 0.1006 0.54697 0.75655 0.0
C2473 C 0.10172 0.53226 0.75602 0.0
C2474 C 0.10247 0.50249 0.73102 0.0
C2475 C 0.10569 0.46428 0.74279 0.0
C2476 C 0.10677 0.47994 0.74263 0.0
C2477 C 0.10657 0.52548 0.7437 0.0
C2478 C 0.10723 0.50981 0.74307 0.0
H2479 H 0.09558 0.43748 0.76462 0.0
H2480 H 0.09759 0.46316 0.76424 0.0
H2481 H 0.09809 0.48237 0.72154 0.0
H2482 H 0.11225 0.55463 0.72327 0.0
H2483 H 0.1143 0.52886 0.72237 0.0
C2484 C 0.44103 0.09704 0.75394 0.0
C2485 C 0.43279 0.10234 0.7428 0.0
C2486 C 0.45576 0.09719 0.75308 0.0
C2487 C 0.48579 0.11413 0.73486 0.0
H2488 H 0.50599 0.08088 0.74774 0.0
C2489 C 0.54656 0.10729 0.72885 0.0
C2490 C 0.55362 0.10159 0.74061 0.0
C2491 C 0.53177 0.1076 0.72843 0.0
C2492 C 0.50052 0.0903 0.74421 0.0
H2493 H 0.43347 0.11214 0.72207 0.0
H2494 H 0.45929 0.11235 0.72052 0.0
H2495 H 0.48026 0.08111 0.74833 0.0
H2496 H 0.55076 0.09196 0.76124 0.0
H2497 H 0.52506 0.09261 0.76058 0.0
H2498 H 0.50614 0.12333 0.73083 0.0
C2499 C 0.45434 0.10817 0.72997 0.0
C2500 C 0.48577 0.09043 0.74456 0.0
C2501 C 0.43957 0.10799 0.73083 0.0
C2502 C 0.54563 0.09635 0.75199 0.0
C2503 C 0.5309 0.09664 0.75158 0.0
C2504 C 0.50058 0.114 0.73451 0.0
C2505 C 0.46258 0.10265 0.74104 0.0
C2506 C 0.47824 0.1024 0.74005 0.0
C2507 C 0.52379 0.10217 0.73976 0.0
C2508 C 0.5081 0.10214 0.73936 0.0
H2509 H 0.43611 0.09267 0.76333 0.0
H2510 H 0.46183 0.09308 0.76188 0.0
H2511 H 0.48028 0.12355 0.73141 0.0
H2512 H 0.55247 0.11139 0.71992 0.0
H2513 H 0.52658 0.11184 0.71915 0.0
C2514 C 0.88788 0.54678 0.75446 0.0
C2515 C 0.88451 0.55487 0.74249 0.0
C2516 C 0.88682 0.53207 0.75408 0.0
C2517 C 0.88693 0.50197 0.7295 0.0
H2518 H 0.87306 0.48148 0.76224 0.0
C2519 C 0.88224 0.44082 0.73096 0.0
C2520 C 0.88721 0.43435 0.74338 0.0
C2521 C 0.88072 0.45552 0.73031 0.0
C2522 C 0.87703 0.48705 0.75305 0.0
H2523 H 0.87722 0.55397 0.72075 0.0
H2524 H 0.87528 0.52816 0.72009 0.0
H2525 H 0.87228 0.50725 0.76206 0.0
H2526 H 0.89448 0.43813 0.76482 0.0
H2527 H 0.89191 0.46373 0.76365 0.0
H2528 H 0.89185 0.48173 0.72058 0.0
C2529 C 0.87887 0.53322 0.72974 0.0
C2530 C 0.87659 0.5018 0.75294 0.0
C2531 C 0.87991 0.54798 0.73013 0.0
C2532 C 0.89059 0.44282 0.75512 0.0
C2533 C 0.88903 0.45747 0.75448 0.0
C2534 C 0.88736 0.48719 0.7296 0.0
C2535 C 0.88236 0.52511 0.7417 0.0
C2536 C 0.88175 0.50943 0.74127 0.0
C2537 C 0.88407 0.46399 0.74208 0.0
C2538 C 0.88263 0.47959 0.74148 0.0
H2539 H 0.89149 0.55179 0.76412 0.0
H2540 H 0.88979 0.52612 0.7634 0.0
H2541 H 0.89112 0.50755 0.72041 0.0
H2542 H 0.87954 0.43454 0.72176 0.0
H2543 H 0.87678 0.46024 0.72065 0.0
C2544 C 0.23401 0.54511 0.10374 0.0
C2545 C 0.24613 0.55324 0.1066 0.0
C2546 C 0.23422 0.53046 0.10549 0.0
C2547 C 0.2585 0.50027 0.10618 0.0
H2548 H 0.22588 0.48039 0.12122 0.0
C2549 C 0.25711 0.43939 0.11164 0.0
C2550 C 0.24463 0.43281 0.10693 0.0
C2551 C 0.25768 0.45408 0.11331 0.0
C2552 C 0.23504 0.48579 0.11693 0.0
H2553 H 0.2679 0.55247 0.11376 0.0
H2554 H 0.26826 0.52679 0.11687 0.0
H2555 H 0.22622 0.50619 0.12113 0.0
H2556 H 0.22291 0.43635 0.10049 0.0
H2557 H 0.22393 0.46195 0.10327 0.0
H2558 H 0.26721 0.47987 0.10172 0.0
C2559 C 0.25864 0.53177 0.11315 0.0
C2560 C 0.23524 0.50056 0.11688 0.0
C2561 C 0.25842 0.54645 0.11143 0.0
C2562 C 0.23267 0.44114 0.10415 0.0
C2563 C 0.23323 0.45579 0.10584 0.0
C2564 C 0.25831 0.48549 0.10622 0.0
C2565 C 0.24655 0.52361 0.11013 0.0
C2566 C 0.24687 0.50796 0.11129 0.0
C2567 C 0.24576 0.46244 0.11034 0.0
C2568 C 0.24648 0.47809 0.11139 0.0
H2569 H 0.22439 0.55004 0.09999 0.0
H2570 H 0.2248 0.52446 0.10288 0.0
H2571 H 0.26755 0.50566 0.10165 0.0
H2572 H 0.26648 0.43322 0.1139 0.0
H2573 H 0.26744 0.45889 0.11693 0.0
C2574 C 0.23357 0.54778 0.88745 0.0
C2575 C 0.24552 0.556 0.88421 0.0
C2576 C 0.2342 0.53306 0.88683 0.0
C2577 C 0.25438 0.50296 0.87246 0.0
H2578 H 0.23667 0.48287 0.90356 0.0
C2579 C 0.25928 0.44221 0.88118 0.0
C2580 C 0.24685 0.4352 0.88539 0.0
C2581 C 0.25965 0.45699 0.88037 0.0
C2582 C 0.24155 0.4883 0.89472 0.0
H2583 H 0.2674 0.5553 0.87737 0.0
H2584 H 0.26854 0.52945 0.87639 0.0
H2585 H 0.23632 0.50857 0.9032 0.0
H2586 H 0.22498 0.4381 0.89166 0.0
H2587 H 0.22558 0.46377 0.89015 0.0
H2588 H 0.25958 0.48256 0.86401 0.0
C2589 C 0.25866 0.53444 0.87932 0.0
C2590 C 0.24134 0.50304 0.89451 0.0
C2591 C 0.25802 0.54922 0.87994 0.0
C2592 C 0.23475 0.4432 0.88849 0.0
C2593 C 0.23511 0.45792 0.88769 0.0
C2594 C 0.25459 0.48815 0.87267 0.0
C2595 C 0.2468 0.52621 0.88299 0.0
C2596 C 0.24759 0.51054 0.8833 0.0
C2597 C 0.2476 0.465 0.88381 0.0
C2598 C 0.24802 0.48068 0.88373 0.0
H2599 H 0.22375 0.55271 0.89067 0.0
H2600 H 0.2248 0.52703 0.88945 0.0
H2601 H 0.25922 0.50845 0.86364 0.0
H2602 H 0.26877 0.43629 0.87872 0.0
H2603 H 0.26944 0.46217 0.87742 0.0
C2604 C 0.44124 0.25933 0.87853 0.0
C2605 C 0.43492 0.24662 0.88298 0.0
C2606 C 0.45587 0.26009 0.87642 0.0
C2607 C 0.4875 0.23782 0.8708 0.0
H2608 H 0.5079 0.26915 0.88781 0.0
C2609 C 0.54644 0.2347 0.88452 0.0
C2610 C 0.55498 0.24668 0.88244 0.0
C2611 C 0.53185 0.23544 0.88251 0.0
C2612 C 0.50236 0.26046 0.88278 0.0
H2613 H 0.43886 0.22472 0.8885 0.0
H2614 H 0.46432 0.22607 0.88491 0.0
H2615 H 0.48209 0.26913 0.88791 0.0
H2616 H 0.55501 0.26881 0.87643 0.0
H2617 H 0.52939 0.27012 0.87291 0.0
H2618 H 0.50774 0.22899 0.86597 0.0
C2619 C 0.45801 0.2354 0.8829 0.0
C2620 C 0.48757 0.26045 0.88284 0.0
C2621 C 0.44343 0.23466 0.88506 0.0
C2622 C 0.54866 0.25941 0.87814 0.0
C2623 C 0.53401 0.26018 0.87618 0.0
C2624 C 0.50226 0.23784 0.87074 0.0
C2625 C 0.46441 0.24814 0.87865 0.0
C2626 C 0.48 0.24897 0.87714 0.0
C2627 C 0.52546 0.2482 0.8784 0.0
C2628 C 0.50985 0.249 0.87702 0.0
H2629 H 0.43491 0.26871 0.87682 0.0
H2630 H 0.4605 0.27002 0.87305 0.0
H2631 H 0.48195 0.22896 0.86609 0.0
H2632 H 0.55101 0.22474 0.88785 0.0
H2633 H 0.52553 0.22608 0.88453 0.0
C2634 C 0.72883 0.55027 0.88064 0.0
C2635 C 0.74187 0.55656 0.88406 0.0
C2636 C 0.72777 0.53559 0.87904 0.0
C2637 C 0.74941 0.50356 0.87296 0.0
H2638 H 0.71874 0.48387 0.89186 0.0
C2639 C 0.75255 0.4448 0.88725 0.0
C2640 C 0.74048 0.43633 0.88539 0.0
C2641 C 0.75182 0.45941 0.8854 0.0
C2642 C 0.72724 0.48923 0.88633 0.0
H2643 H 0.76404 0.55249 0.88833 0.0
H2644 H 0.76218 0.52697 0.88565 0.0
H2645 H 0.71907 0.50971 0.89148 0.0
H2646 H 0.71816 0.43646 0.8801 0.0
H2647 H 0.71686 0.46214 0.87691 0.0
H2648 H 0.75777 0.48312 0.86811 0.0
C2649 C 0.7528 0.53333 0.88402 0.0
C2650 C 0.72742 0.50402 0.88611 0.0
C2651 C 0.75385 0.54795 0.88566 0.0
C2652 C 0.72763 0.44275 0.88161 0.0
C2653 C 0.72688 0.45743 0.87984 0.0
C2654 C 0.74923 0.48881 0.87321 0.0
C2655 C 0.73975 0.52696 0.88076 0.0
C2656 C 0.73868 0.51134 0.87969 0.0
C2657 C 0.73899 0.46589 0.88169 0.0
C2658 C 0.73831 0.48149 0.88016 0.0
H2659 H 0.71943 0.55666 0.87933 0.0
H2660 H 0.71759 0.53099 0.87642 0.0
H2661 H 0.75807 0.5089 0.86768 0.0
H2662 H 0.7626 0.44015 0.89018 0.0
H2663 H 0.76128 0.46567 0.88713 0.0
C2664 C 0.44184 0.73061 0.87808 0.0
C2665 C 0.43548 0.74332 0.88242 0.0
C2666 C 0.45644 0.73 0.87576 0.0
C2667 C 0.48782 0.75259 0.8693 0.0
H2668 H 0.50872 0.72174 0.88634 0.0
C2669 C 0.54694 0.75654 0.88233 0.0
C2670 C 0.55551 0.74456 0.88052 0.0
C2671 C 0.53235 0.75566 0.8803 0.0
C2672 C 0.50304 0.7303 0.88129 0.0
H2673 H 0.43933 0.76537 0.88752 0.0
H2674 H 0.46474 0.76427 0.88357 0.0
H2675 H 0.48292 0.72146 0.88686 0.0
H2676 H 0.55558 0.72233 0.87486 0.0
H2677 H 0.52999 0.72079 0.87128 0.0
H2678 H 0.50792 0.76161 0.86404 0.0
C2679 C 0.45848 0.75482 0.88181 0.0
C2680 C 0.48825 0.73013 0.88159 0.0
C2681 C 0.44393 0.75542 0.88418 0.0
C2682 C 0.54923 0.73173 0.87636 0.0
C2683 C 0.53458 0.73083 0.87438 0.0
C2684 C 0.50258 0.75275 0.86899 0.0
C2685 C 0.46492 0.74209 0.87765 0.0
C2686 C 0.4805 0.74144 0.87589 0.0
C2687 C 0.52598 0.74278 0.87643 0.0
C2688 C 0.51036 0.74177 0.87527 0.0
H2689 H 0.43556 0.72113 0.87661 0.0
H2690 H 0.4611 0.72007 0.87247 0.0
H2691 H 0.48212 0.76132 0.86457 0.0
H2692 H 0.55148 0.76657 0.88553 0.0
H2693 H 0.52601 0.76501 0.88217 0.0
C2694 C 0.73126 0.54751 0.1085 0.0
C2695 C 0.74346 0.55448 0.10363 0.0
C2696 C 0.73071 0.53272 0.10888 0.0
C2697 C 0.74726 0.5015 0.09254 0.0
H2698 H 0.73216 0.48099 0.12471 0.0
C2699 C 0.7562 0.44201 0.09906 0.0
C2700 C 0.74473 0.43368 0.10352 0.0
C2701 C 0.75538 0.45672 0.09946 0.0
C2702 C 0.73625 0.48658 0.11558 0.0
H2703 H 0.76476 0.55149 0.09564 0.0
H2704 H 0.76385 0.52579 0.09639 0.0
H2705 H 0.73183 0.50687 0.1247 0.0
H2706 H 0.72348 0.43418 0.11212 0.0
H2707 H 0.722 0.46002 0.11272 0.0
H2708 H 0.75174 0.48133 0.0834 0.0
C2709 C 0.75462 0.53169 0.09972 0.0
C2710 C 0.73606 0.50139 0.11558 0.0
C2711 C 0.75517 0.54642 0.09937 0.0
C2712 C 0.73249 0.44036 0.10862 0.0
C2713 C 0.73166 0.45513 0.10902 0.0
C2714 C 0.74744 0.48676 0.09253 0.0
C2715 C 0.74235 0.52467 0.10433 0.0
C2716 C 0.74176 0.50899 0.10414 0.0
C2717 C 0.74306 0.46346 0.10429 0.0
C2718 C 0.74213 0.47913 0.10413 0.0
H2719 H 0.72208 0.55348 0.11185 0.0
H2720 H 0.72109 0.52759 0.11242 0.0
H2721 H 0.75144 0.50706 0.08343 0.0
H2722 H 0.76582 0.43716 0.09516 0.0
H2723 H 0.76444 0.46284 0.09599 0.0
C2724 C 0.54777 0.73 0.10701 0.0
C2725 C 0.55463 0.74239 0.10247 0.0
C2726 C 0.53299 0.72933 0.10739 0.0
C2727 C 0.50162 0.74615 0.09163 0.0
H2728 H 0.48131 0.72956 0.12319 0.0
C2729 C 0.44197 0.75387 0.09862 0.0
C2730 C 0.43386 0.74207 0.10259 0.0
C2731 C 0.4567 0.75329 0.09892 0.0
C2732 C 0.48685 0.73407 0.11423 0.0
H2733 H 0.55147 0.76388 0.09511 0.0
H2734 H 0.52578 0.76276 0.0959 0.0
H2735 H 0.50719 0.72961 0.12319 0.0
H2736 H 0.43477 0.72046 0.11019 0.0
H2737 H 0.46062 0.7194 0.11063 0.0
H2738 H 0.48138 0.75069 0.08267 0.0
C2739 C 0.53176 0.75348 0.09894 0.0
C2740 C 0.50165 0.7341 0.11423 0.0
C2741 C 0.54648 0.75415 0.09857 0.0
C2742 C 0.44077 0.72972 0.10708 0.0
C2743 C 0.45555 0.72914 0.10739 0.0
C2744 C 0.48688 0.74612 0.09163 0.0
C2745 C 0.52484 0.74103 0.1032 0.0
C2746 C 0.50917 0.7403 0.10301 0.0
C2747 C 0.46366 0.74088 0.10318 0.0
C2748 C 0.47933 0.74025 0.103 0.0
H2749 H 0.55381 0.72078 0.11008 0.0
H2750 H 0.52794 0.71957 0.11064 0.0
H2751 H 0.50712 0.75073 0.08268 0.0
H2752 H 0.43694 0.76357 0.09519 0.0
H2753 H 0.46265 0.7626 0.09585 0.0
C2754 C 0.54833 0.2606 0.1103 0.0
C2755 C 0.55469 0.24786 0.10607 0.0
C2756 C 0.53368 0.26131 0.1123 0.0
C2757 C 0.50214 0.23886 0.11822 0.0
H2758 H 0.48157 0.26991 0.10114 0.0
C2759 C 0.44292 0.23548 0.10547 0.0
C2760 C 0.4345 0.24751 0.10756 0.0
C2761 C 0.45756 0.23624 0.10719 0.0
C2762 C 0.48717 0.2613 0.10618 0.0
H2763 H 0.55079 0.22587 0.10076 0.0
H2764 H 0.52532 0.22712 0.10416 0.0
H2765 H 0.50738 0.27002 0.10079 0.0
H2766 H 0.43472 0.26972 0.11331 0.0
H2767 H 0.46039 0.27104 0.11636 0.0
H2768 H 0.48195 0.22998 0.12333 0.0
C2769 C 0.5316 0.23652 0.10609 0.0
C2770 C 0.50195 0.26136 0.10598 0.0
C2771 C 0.54619 0.23583 0.10404 0.0
C2772 C 0.44097 0.26029 0.11159 0.0
C2773 C 0.45565 0.26106 0.11328 0.0
C2774 C 0.48738 0.2388 0.11842 0.0
C2775 C 0.52517 0.24927 0.11019 0.0
C2776 C 0.50958 0.24999 0.11173 0.0
C2777 C 0.4641 0.24904 0.11103 0.0
C2778 C 0.47973 0.24987 0.11214 0.0
H2779 H 0.55464 0.27003 0.11196 0.0
H2780 H 0.52902 0.27125 0.11555 0.0
H2781 H 0.50774 0.23008 0.12297 0.0
H2782 H 0.43823 0.22549 0.10234 0.0
H2783 H 0.46379 0.22685 0.10517 0.0
C2784 C 0.60535 0.75939 0.04766 0.0
C2785 C 0.60065 0.74707 0.05452 0.0
C2786 C 0.60509 0.76026 0.03288 0.0
C2787 C 0.58764 0.74442 0.00177 0.0
H2788 H 0.6192 0.76027 0.98086 0.0
C2789 C 0.59326 0.73759 0.94161 0.0
C2790 C 0.59805 0.74923 0.93373 0.0
C2791 C 0.59338 0.73801 0.95637 0.0
C2792 C 0.61022 0.75599 0.98657 0.0
H2793 H 0.59226 0.72593 0.05137 0.0
H2794 H 0.59194 0.72739 0.02566 0.0
H2795 H 0.61997 0.75975 0.00669 0.0
H2796 H 0.60666 0.77047 0.93505 0.0
H2797 H 0.60676 0.77125 0.96089 0.0
H2798 H 0.57791 0.74058 0.9817 0.0
C2799 C 0.59561 0.73646 0.03165 0.0
C2800 C 0.61067 0.75568 0.00135 0.0
C2801 C 0.59588 0.73559 0.04637 0.0
C2802 C 0.60292 0.76133 0.94087 0.0
C2803 C 0.60306 0.76175 0.95565 0.0
C2804 C 0.58719 0.74473 0.98702 0.0
C2805 C 0.6001 0.74883 0.02474 0.0
C2806 C 0.59944 0.74976 0.00909 0.0
C2807 C 0.59829 0.75008 0.96356 0.0
C2808 C 0.59853 0.75038 0.97925 0.0
H2809 H 0.60906 0.76841 0.05369 0.0
H2810 H 0.60853 0.76996 0.02785 0.0
H2811 H 0.5787 0.74004 0.00745 0.0
H2812 H 0.58949 0.7281 0.93639 0.0
H2813 H 0.58983 0.72877 0.96215 0.0
C2814 C 0.23124 0.60533 0.94198 0.0
C2815 C 0.2431 0.60034 0.93458 0.0
C2816 C 0.23105 0.60522 0.95678 0.0
C2817 C 0.2479 0.588 0.98743 0.0
H2818 H 0.2334 0.62014 0.00839 0.0
C2819 C 0.25571 0.59364 0.04754 0.0
C2820 C 0.24418 0.59852 0.05551 0.0
C2821 C 0.25529 0.59396 0.03278 0.0
C2822 C 0.23733 0.61102 0.00268 0.0
H2823 H 0.26411 0.59144 0.9368 0.0
H2824 H 0.26384 0.59136 0.96257 0.0
H2825 H 0.23311 0.62052 0.98256 0.0
H2826 H 0.22317 0.60761 0.05432 0.0
H2827 H 0.22238 0.60806 0.0285 0.0
H2828 H 0.25215 0.57851 0.00751 0.0
C2829 C 0.2546 0.59518 0.95698 0.0
C2830 C 0.23717 0.61124 0.9879 0.0
C2831 C 0.25479 0.5953 0.94222 0.0
C2832 C 0.23223 0.6038 0.04844 0.0
C2833 C 0.23181 0.60413 0.03367 0.0
C2834 C 0.24806 0.58779 0.00219 0.0
C2835 C 0.24272 0.60008 0.96443 0.0
C2836 C 0.24253 0.59976 0.98012 0.0
C2837 C 0.24332 0.59916 0.02568 0.0
C2838 C 0.24286 0.59932 0.00999 0.0
H2839 H 0.22207 0.60926 0.93636 0.0
H2840 H 0.22169 0.60895 0.96222 0.0
H2841 H 0.25187 0.57889 0.98174 0.0
H2842 H 0.26509 0.58956 0.0527 0.0
H2843 H 0.26441 0.59025 0.02693 0.0
C2844 C 0.39529 0.25461 0.04837 0.0
C2845 C 0.39044 0.24305 0.05634 0.0
C2846 C 0.39548 0.25398 0.03362 0.0
C2847 C 0.37975 0.23532 0.0032 0.0
H2848 H 0.41212 0.25063 0.98315 0.0
C2849 C 0.38652 0.23009 0.94253 0.0
C2850 C 0.39144 0.24216 0.9354 0.0
C2851 C 0.38651 0.22963 0.95732 0.0
C2852 C 0.40295 0.24643 0.98859 0.0
H2853 H 0.38191 0.22177 0.05515 0.0
H2854 H 0.38231 0.22062 0.02932 0.0
H2855 H 0.41184 0.25088 0.00892 0.0
H2856 H 0.40014 0.26324 0.9381 0.0
H2857 H 0.39999 0.26251 0.96385 0.0
H2858 H 0.37082 0.23096 0.98283 0.0
C2859 C 0.38585 0.23022 0.03449 0.0
C2860 C 0.40279 0.24657 0.00335 0.0
C2861 C 0.38569 0.23086 0.04927 0.0
C2862 C 0.39634 0.25377 0.94331 0.0
C2863 C 0.39633 0.25331 0.95806 0.0
C2864 C 0.37991 0.23518 0.98841 0.0
C2865 C 0.39081 0.24176 0.02651 0.0
C2866 C 0.39114 0.24113 0.01082 0.0
C2867 C 0.39144 0.24124 0.96524 0.0
C2868 C 0.39146 0.24085 0.98094 0.0
H2869 H 0.39898 0.26418 0.05353 0.0
H2870 H 0.39915 0.26313 0.02777 0.0
H2871 H 0.37055 0.23119 0.00866 0.0
H2872 H 0.38271 0.22098 0.9367 0.0
H2873 H 0.38281 0.22013 0.96254 0.0
C2874 C 0.73661 0.38938 0.04752 0.0
C2875 C 0.74869 0.38624 0.05555 0.0
C2876 C 0.73698 0.38854 0.03279 0.0
C2877 C 0.76133 0.38959 0.00254 0.0
H2878 H 0.72895 0.37456 0.98223 0.0
C2879 C 0.75964 0.38458 0.9414 0.0
C2880 C 0.74703 0.38907 0.93496 0.0
C2881 C 0.76045 0.3832 0.95611 0.0
C2882 C 0.73803 0.37887 0.98775 0.0
H2883 H 0.77063 0.37967 0.05451 0.0
H2884 H 0.77126 0.37813 0.02867 0.0
H2885 H 0.7293 0.37381 0.008 0.0
H2886 H 0.72542 0.39567 0.9388 0.0
H2887 H 0.72684 0.39335 0.96442 0.0
H2888 H 0.76997 0.3948 0.98225 0.0
C2889 C 0.76154 0.38135 0.03379 0.0
C2890 C 0.73824 0.37844 0.00251 0.0
C2891 C 0.76116 0.38217 0.04857 0.0
C2892 C 0.73527 0.39216 0.94347 0.0
C2893 C 0.73605 0.39073 0.95813 0.0
C2894 C 0.76113 0.39001 0.98776 0.0
C2895 C 0.74944 0.38453 0.02576 0.0
C2896 C 0.74978 0.384 0.01007 0.0
C2897 C 0.74864 0.38622 0.96462 0.0
C2898 C 0.74937 0.38486 0.98023 0.0
H2899 H 0.72686 0.39259 0.0526 0.0
H2900 H 0.72754 0.39127 0.0269 0.0
H2901 H 0.77031 0.39408 0.00808 0.0
H2902 H 0.76887 0.38212 0.93508 0.0
H2903 H 0.77025 0.37962 0.96081 0.0
C2904 C 0.59348 0.25199 0.94217 0.0
C2905 C 0.59916 0.24095 0.93403 0.0
C2906 C 0.59341 0.25118 0.9569 0.0
C2907 C 0.61066 0.23374 0.98708 0.0
H2908 H 0.57745 0.24676 0.00731 0.0
C2909 C 0.6048 0.22975 0.04809 0.0
C2910 C 0.59919 0.24174 0.05485 0.0
C2911 C 0.60477 0.22877 0.03332 0.0
C2912 C 0.58684 0.24318 0.00182 0.0
H2913 H 0.60929 0.22042 0.93489 0.0
H2914 H 0.6091 0.21895 0.96074 0.0
H2915 H 0.57742 0.24656 0.98154 0.0
H2916 H 0.58927 0.26212 0.05149 0.0
H2917 H 0.5893 0.26046 0.02579 0.0
H2918 H 0.62011 0.23048 0.00743 0.0
C2919 C 0.6048 0.22828 0.9557 0.0
C2920 C 0.58683 0.24307 0.98706 0.0
C2921 C 0.60486 0.22909 0.94091 0.0
C2922 C 0.59362 0.25273 0.04659 0.0
C2923 C 0.59355 0.25173 0.03186 0.0
C2924 C 0.61068 0.23384 0.00188 0.0
C2925 C 0.59901 0.2393 0.96384 0.0
C2926 C 0.5988 0.23854 0.97952 0.0
C2927 C 0.59906 0.23973 0.02506 0.0
C2928 C 0.59883 0.23876 0.00939 0.0
H2929 H 0.58908 0.2613 0.93717 0.0
H2930 H 0.5891 0.25995 0.96287 0.0
H2931 H 0.62009 0.2303 0.98157 0.0
H2932 H 0.60916 0.22111 0.05421 0.0
H2933 H 0.609 0.21934 0.02838 0.0
C2934 C 0.73726 0.59592 0.04749 0.0
C2935 C 0.74844 0.60104 0.05584 0.0
C2936 C 0.73828 0.59596 0.03277 0.0
C2937 C 0.75677 0.6125 0.00286 0.0
H2938 H 0.74327 0.57938 0.98266 0.0
C2939 C 0.76102 0.60631 0.94185 0.0
C2940 C 0.74897 0.60081 0.93509 0.0
C2941 C 0.76195 0.60632 0.95663 0.0
C2942 C 0.74698 0.58875 0.98814 0.0
H2943 H 0.76939 0.6104 0.05537 0.0
H2944 H 0.7712 0.61045 0.02952 0.0
H2945 H 0.74308 0.57955 0.00842 0.0
H2946 H 0.72841 0.59114 0.93843 0.0
H2947 H 0.72998 0.59127 0.96411 0.0
H2948 H 0.7605 0.62175 0.98251 0.0
C2949 C 0.76162 0.60647 0.0344 0.0
C2950 C 0.74688 0.58885 0.00289 0.0
C2951 C 0.76061 0.60639 0.04918 0.0
C2952 C 0.73787 0.59539 0.94334 0.0
C2953 C 0.7388 0.59538 0.95806 0.0
C2954 C 0.75686 0.61242 0.98806 0.0
C2955 C 0.7505 0.60113 0.02607 0.0
C2956 C 0.75155 0.6008 0.01041 0.0
C2957 C 0.75087 0.60079 0.96488 0.0
C2958 C 0.75175 0.60062 0.98055 0.0
H2959 H 0.72772 0.59179 0.05231 0.0
H2960 H 0.72944 0.59201 0.02664 0.0
H2961 H 0.76036 0.62189 0.00838 0.0
H2962 H 0.76974 0.61056 0.93574 0.0
H2963 H 0.77143 0.61047 0.96159 0.0
C2964 C 0.38496 0.76009 0.94173 0.0
C2965 C 0.39094 0.74837 0.93484 0.0
C2966 C 0.38441 0.76062 0.95652 0.0
C2967 C 0.40093 0.74508 0.98834 0.0
H2968 H 0.36691 0.7577 0.00746 0.0
C2969 C 0.392 0.73496 0.04741 0.0
C2970 C 0.38668 0.74614 0.05561 0.0
C2971 C 0.39224 0.7359 0.03269 0.0
C2972 C 0.37653 0.7543 0.00227 0.0
H2973 H 0.40097 0.728 0.93796 0.0
H2974 H 0.39988 0.72884 0.96366 0.0
H2975 H 0.36805 0.75828 0.98163 0.0
H2976 H 0.37715 0.76696 0.05485 0.0
H2977 H 0.37757 0.76863 0.02901 0.0
H2978 H 0.40936 0.74096 0.00891 0.0
C2979 C 0.39581 0.73773 0.95771 0.0
C2980 C 0.3772 0.75465 0.98748 0.0
C2981 C 0.39636 0.7372 0.94297 0.0
C2982 C 0.38131 0.75818 0.04879 0.0
C2983 C 0.38151 0.75911 0.03401 0.0
C2984 C 0.40025 0.74471 0.00307 0.0
C2985 C 0.38986 0.74944 0.96466 0.0
C2986 C 0.38935 0.74987 0.98036 0.0
C2987 C 0.38715 0.74805 0.02583 0.0
C2988 C 0.38799 0.74914 0.0102 0.0
H2989 H 0.38071 0.76885 0.93571 0.0
H2990 H 0.37987 0.76984 0.96157 0.0
H2991 H 0.41055 0.74161 0.98319 0.0
H2992 H 0.39615 0.72551 0.05237 0.0
H2993 H 0.39641 0.7271 0.02667 0.0
C2994 C 0.22948 0.38311 0.04845 0.0
C2995 C 0.24142 0.3884 0.05558 0.0
C2996 C 0.22894 0.3832 0.03366 0.0
C2997 C 0.24479 0.40084 0.00267 0.0
H2998 H 0.23087 0.36827 0.9819 0.0
C2999 C 0.25368 0.39471 0.94295 0.0
C3000 C 0.2424 0.38962 0.93471 0.0
C3001 C 0.25286 0.39453 0.95768 0.0
C3002 C 0.23462 0.37751 0.98756 0.0
H3003 H 0.2622 0.39778 0.05287 0.0
H3004 H 0.26132 0.39783 0.02712 0.0
H3005 H 0.23071 0.36799 0.00775 0.0
H3006 H 0.22147 0.38024 0.93539 0.0
H3007 H 0.22 0.37999 0.96124 0.0
H3008 H 0.2488 0.41034 0.98255 0.0
C3009 C 0.25228 0.3938 0.03292 0.0
C3010 C 0.23453 0.37735 0.00235 0.0
C3011 C 0.25283 0.39369 0.04767 0.0
C3012 C 0.23032 0.38422 0.94149 0.0
C3013 C 0.22951 0.38402 0.95627 0.0
C3014 C 0.24489 0.401 0.98792 0.0
C3015 C 0.24032 0.38863 0.02575 0.0
C3016 C 0.23977 0.38896 0.01006 0.0
C3017 C 0.24075 0.38926 0.96452 0.0
C3018 C 0.23995 0.38928 0.98019 0.0
H3019 H 0.22053 0.37898 0.05429 0.0
H3020 H 0.21953 0.37925 0.02844 0.0
H3021 H 0.24864 0.41007 0.00831 0.0
H3022 H 0.26316 0.39888 0.93803 0.0
H3023 H 0.2618 0.39842 0.96373 0.0
C3024 C 0.04746 0.60684 0.75881 0.0
C3025 C 0.05464 0.60123 0.74707 0.0
C3026 C 0.03268 0.60713 0.75908 0.0
C3027 C 0.00157 0.58991 0.74303 0.0
H3028 H 0.98127 0.62292 0.75641 0.0
C3029 C 0.94186 0.59617 0.73439 0.0
C3030 C 0.93377 0.6014 0.74569 0.0
C3031 C 0.9566 0.59645 0.73499 0.0
C3032 C 0.9868 0.61356 0.7528 0.0
H3033 H 0.05202 0.59173 0.72634 0.0
H3034 H 0.02628 0.59235 0.72675 0.0
H3035 H 0.00712 0.62286 0.7567 0.0
H3036 H 0.93473 0.61117 0.76643 0.0
H3037 H 0.96058 0.61156 0.76755 0.0
H3038 H 0.98132 0.58061 0.73908 0.0
C3039 C 0.03204 0.59633 0.73584 0.0
C3040 C 0.00159 0.61353 0.75297 0.0
C3041 C 0.04678 0.59605 0.73556 0.0
C3042 C 0.94071 0.60708 0.75756 0.0
C3043 C 0.9555 0.60736 0.75817 0.0
C3044 C 0.98682 0.58994 0.74286 0.0
C3045 C 0.02481 0.60179 0.74763 0.0
C3046 C 0.00912 0.60174 0.74795 0.0
C3047 C 0.96359 0.60193 0.74693 0.0
C3048 C 0.97926 0.60181 0.74762 0.0
H3049 H 0.05326 0.6109 0.76783 0.0
H3050 H 0.02741 0.6113 0.76836 0.0
H3051 H 0.00707 0.58055 0.73936 0.0
H3052 H 0.93681 0.5918 0.72507 0.0
H3053 H 0.96253 0.59242 0.72606 0.0
C3054 C 0.37949 0.94186 0.75809 0.0
C3055 C 0.38573 0.93522 0.74635 0.0
C3056 C 0.3778 0.95656 0.75834 0.0
C3057 C 0.37645 0.98782 0.73496 0.0
H3058 H 0.38738 0.00865 0.76861 0.0
C3059 C 0.38759 0.04758 0.73411 0.0
C3060 C 0.38323 0.05577 0.74571 0.0
C3061 C 0.3864 0.03287 0.73446 0.0
C3062 C 0.38407 0.00298 0.75921 0.0
H3063 H 0.39503 0.93869 0.72566 0.0
H3064 H 0.39216 0.96428 0.72613 0.0
H3065 H 0.38796 0.98285 0.76879 0.0
H3066 H 0.37401 0.05504 0.76669 0.0
H3067 H 0.37182 0.02927 0.76728 0.0
H3068 H 0.37272 0.00793 0.72531 0.0
C3069 C 0.38842 0.95816 0.73507 0.0
C3070 C 0.38441 0.9882 0.75931 0.0
C3071 C 0.39016 0.94351 0.73485 0.0
C3072 C 0.37749 0.04898 0.75761 0.0
C3073 C 0.3763 0.03423 0.75797 0.0
C3074 C 0.37608 0.00258 0.73486 0.0
C3075 C 0.38226 0.96485 0.74683 0.0
C3076 C 0.38082 0.98048 0.74711 0.0
C3077 C 0.38081 0.02602 0.74641 0.0
C3078 C 0.38011 0.01034 0.74691 0.0
H3079 H 0.37596 0.93572 0.76709 0.0
H3080 H 0.37291 0.96141 0.7675 0.0
H3081 H 0.37337 0.98215 0.72548 0.0
H3082 H 0.39209 0.05252 0.72479 0.0
H3083 H 0.39016 0.02685 0.72546 0.0
C3084 C 0.04941 0.37981 0.75987 0.0
C3085 C 0.05574 0.38487 0.7474 0.0
C3086 C 0.03471 0.37826 0.76071 0.0
C3087 C 0.00273 0.3751 0.73844 0.0
H3088 H 0.983 0.38987 0.77123 0.0
C3089 C 0.94379 0.38881 0.73705 0.0
C3090 C 0.9354 0.3855 0.74885 0.0
C3091 C 0.95842 0.38711 0.73755 0.0
C3092 C 0.98837 0.38549 0.76211 0.0
H3093 H 0.05171 0.39217 0.72603 0.0
H3094 H 0.02614 0.38956 0.72753 0.0
H3095 H 0.00884 0.38969 0.77089 0.0
H3096 H 0.93571 0.37778 0.77044 0.0
H3097 H 0.96143 0.37482 0.77134 0.0
H3098 H 0.98231 0.37114 0.72953 0.0
C3099 C 0.03249 0.38663 0.7366 0.0
C3100 C 0.00316 0.38539 0.76191 0.0
C3101 C 0.04714 0.38822 0.73578 0.0
C3102 C 0.94194 0.38044 0.76119 0.0
C3103 C 0.95664 0.37879 0.76172 0.0
C3104 C 0.98798 0.3752 0.73864 0.0
C3105 C 0.02611 0.38167 0.74908 0.0
C3106 C 0.01048 0.38047 0.74994 0.0
C3107 C 0.96502 0.38209 0.74988 0.0
C3108 C 0.98064 0.38067 0.75034 0.0
H3109 H 0.0558 0.37712 0.76899 0.0
H3110 H 0.03009 0.37433 0.77043 0.0
H3111 H 0.00809 0.37097 0.72918 0.0
H3112 H 0.93905 0.39275 0.72739 0.0
H3113 H 0.9646 0.38997 0.72833 0.0
C3114 C 0.59895 0.94169 0.73264 0.0
C3115 C 0.60322 0.93412 0.74467 0.0
C3116 C 0.59944 0.95644 0.73254 0.0
C3117 C 0.6154 0.98735 0.75039 0.0
H3118 H 0.58346 0.00713 0.73402 0.0
C3119 C 0.60724 0.04795 0.75536 0.0
C3120 C 0.6023 0.05497 0.74324 0.0
C3121 C 0.60798 0.03318 0.75564 0.0
C3122 C 0.59253 0.00177 0.73849 0.0
H3123 H 0.61153 0.936 0.76598 0.0
H3124 H 0.61223 0.96184 0.76587 0.0
H3125 H 0.58363 0.9814 0.73431 0.0
H3126 H 0.59458 0.0521 0.72181 0.0
H3127 H 0.59598 0.0264 0.72225 0.0
H3128 H 0.62426 0.00781 0.75461 0.0
C3129 C 0.60865 0.95635 0.75646 0.0
C3130 C 0.59263 0.98702 0.73865 0.0
C3131 C 0.60818 0.94157 0.75655 0.0
C3132 C 0.59835 0.04698 0.73133 0.0
C3133 C 0.59908 0.03226 0.73161 0.0
C3134 C 0.6153 0.00214 0.75024 0.0
C3135 C 0.60416 0.96395 0.74449 0.0
C3136 C 0.60409 0.97964 0.74453 0.0
C3137 C 0.60376 0.02518 0.74381 0.0
C3138 C 0.60389 0.0095 0.74422 0.0
H3139 H 0.59516 0.93622 0.72329 0.0
H3140 H 0.59613 0.96197 0.72308 0.0
H3141 H 0.62445 0.98195 0.75487 0.0
H3142 H 0.61035 0.05385 0.76469 0.0
H3143 H 0.61153 0.02801 0.76522 0.0
C3144 C 0.94404 0.38981 0.25653 0.0
C3145 C 0.93605 0.38581 0.24465 0.0
C3146 C 0.95876 0.38892 0.25629 0.0
C3147 C 0.98894 0.38822 0.23181 0.0
H3148 H 0.00953 0.37579 0.26503 0.0
C3149 C 0.04982 0.38251 0.23254 0.0
C3150 C 0.05674 0.38782 0.24458 0.0
C3151 C 0.03508 0.38131 0.23229 0.0
C3152 C 0.00392 0.37938 0.25571 0.0
H3153 H 0.93715 0.37757 0.22326 0.0
H3154 H 0.96295 0.37592 0.22287 0.0
H3155 H 0.98374 0.37515 0.26504 0.0
H3156 H 0.05372 0.39602 0.2658 0.0
H3157 H 0.02801 0.39403 0.26533 0.0
H3158 H 0.00914 0.39258 0.22253 0.0
C3159 C 0.95781 0.37988 0.23231 0.0
C3160 C 0.98916 0.37901 0.25571 0.0
C3161 C 0.94305 0.38076 0.23256 0.0
C3162 C 0.04867 0.39187 0.25638 0.0
C3163 C 0.03396 0.39064 0.25614 0.0
C3164 C 0.00371 0.38857 0.2318 0.0
C3165 C 0.96582 0.38401 0.24416 0.0
C3166 C 0.9815 0.38358 0.24382 0.0
C3167 C 0.027 0.38536 0.24409 0.0
C3168 C 0.01135 0.38431 0.24381 0.0
H3169 H 0.93893 0.39378 0.26598 0.0
H3170 H 0.96463 0.39238 0.26551 0.0
H3171 H 0.98334 0.39198 0.22255 0.0
H3172 H 0.05578 0.37928 0.22331 0.0
H3173 H 0.03003 0.37708 0.2229 0.0
C3174 C 0.6009 0.04789 0.25693 0.0
C3175 C 0.60372 0.05594 0.24478 0.0
C3176 C 0.60187 0.03318 0.25655 0.0
C3177 C 0.61652 0.0031 0.23642 0.0
H3178 H 0.58652 0.98243 0.25535 0.0
C3179 C 0.60842 0.94223 0.23179 0.0
C3180 C 0.60471 0.93516 0.24432 0.0
C3181 C 0.60916 0.95702 0.23149 0.0
C3182 C 0.59506 0.98804 0.25014 0.0
H3183 H 0.61012 0.05497 0.22277 0.0
H3184 H 0.61165 0.02914 0.22204 0.0
H3185 H 0.58628 0.00814 0.25545 0.0
H3186 H 0.59934 0.93794 0.26647 0.0
H3187 H 0.60074 0.96363 0.26597 0.0
H3188 H 0.62523 0.98286 0.23107 0.0
C3189 C 0.60881 0.03425 0.2319 0.0
C3190 C 0.59493 0.00278 0.2502 0.0
C3191 C 0.60787 0.04901 0.2323 0.0
C3192 C 0.60212 0.94309 0.25661 0.0
C3193 C 0.60285 0.95781 0.25631 0.0
C3194 C 0.61664 0.9883 0.23633 0.0
C3195 C 0.60562 0.02617 0.24398 0.0
C3196 C 0.60572 0.01049 0.24348 0.0
C3197 C 0.60616 0.96495 0.24371 0.0
C3198 C 0.60598 0.98063 0.24333 0.0
H3199 H 0.59779 0.05294 0.26674 0.0
H3200 H 0.59962 0.02729 0.26611 0.0
H3201 H 0.62503 0.00876 0.23122 0.0
H3202 H 0.61048 0.93637 0.22216 0.0
H3203 H 0.61167 0.96224 0.2216 0.0
C3204 C 0.04758 0.59985 0.25369 0.0
C3205 C 0.05564 0.60345 0.24175 0.0
C3206 C 0.03291 0.60139 0.25355 0.0
C3207 C 0.00241 0.60348 0.22957 0.0
H3208 H 0.98329 0.61773 0.26296 0.0
C3209 C 0.94166 0.61062 0.23198 0.0
C3210 C 0.93515 0.60556 0.24435 0.0
C3211 C 0.95639 0.61184 0.23123 0.0
C3212 C 0.98847 0.61366 0.25359 0.0
H3213 H 0.05473 0.6115 0.22029 0.0
H3214 H 0.02901 0.61421 0.22005 0.0
H3215 H 0.00906 0.61701 0.26238 0.0
H3216 H 0.93889 0.598 0.26568 0.0
H3217 H 0.96452 0.60003 0.26435 0.0
H3218 H 0.9818 0.5999 0.22088 0.0
C3219 C 0.03405 0.61011 0.22948 0.0
C3220 C 0.00322 0.61324 0.25326 0.0
C3221 C 0.04876 0.60861 0.22964 0.0
C3222 C 0.94361 0.60196 0.25601 0.0
C3223 C 0.95829 0.60321 0.25528 0.0
C3224 C 0.98764 0.60389 0.2299 0.0
C3225 C 0.02597 0.60654 0.24145 0.0
C3226 C 0.01035 0.60794 0.24134 0.0
C3227 C 0.96486 0.60808 0.24286 0.0
C3228 C 0.98051 0.60877 0.24201 0.0
H3229 H 0.05259 0.59582 0.26317 0.0
H3230 H 0.02696 0.59833 0.26286 0.0
H3231 H 0.0076 0.59921 0.22029 0.0
H3232 H 0.93539 0.6135 0.22283 0.0
H3233 H 0.96115 0.61575 0.22157 0.0
C3234 C 0.38306 0.04673 0.25529 0.0
C3235 C 0.38075 0.05498 0.24316 0.0
C3236 C 0.38114 0.0321 0.25485 0.0
C3237 C 0.38135 0.00217 0.23024 0.0
H3238 H 0.36497 0.98201 0.26201 0.0
C3239 C 0.37719 0.94114 0.23134 0.0
C3240 C 0.38151 0.93478 0.24405 0.0
C3241 C 0.37507 0.95576 0.23066 0.0
C3242 C 0.36962 0.98749 0.25308 0.0
H3243 H 0.37438 0.05446 0.22113 0.0
H3244 H 0.37102 0.02881 0.22035 0.0
H3245 H 0.36489 0.00782 0.26184 0.0
H3246 H 0.38674 0.93866 0.26606 0.0
H3247 H 0.38319 0.96411 0.26485 0.0
H3248 H 0.3864 0.98185 0.22163 0.0
C3249 C 0.37441 0.03367 0.23017 0.0
C3250 C 0.36957 0.00226 0.25298 0.0
C3251 C 0.37628 0.04834 0.23063 0.0
C3252 C 0.3834 0.94326 0.25612 0.0
C3253 C 0.38126 0.95783 0.25544 0.0
C3254 C 0.38141 0.98739 0.23034 0.0
C3255 C 0.37689 0.02539 0.24226 0.0
C3256 C 0.37568 0.00975 0.24169 0.0
C3257 C 0.37718 0.96428 0.24269 0.0
C3258 C 0.3758 0.97989 0.24189 0.0
H3259 H 0.38652 0.05155 0.2651 0.0
H3260 H 0.38333 0.026 0.26429 0.0
H3261 H 0.38627 0.00764 0.22145 0.0
H3262 H 0.3756 0.93485 0.22189 0.0
H3263 H 0.37179 0.96041 0.22071 0.0
C3264 C 0.76104 0.04766 0.60875 0.0
C3265 C 0.7487 0.05428 0.60379 0.0
C3266 C 0.76149 0.03294 0.61027 0.0
C3267 C 0.73829 0.00164 0.61379 0.0
H3268 H 0.7704 0.98082 0.59909 0.0
C3269 C 0.73533 0.94238 0.60112 0.0
C3270 C 0.74699 0.93385 0.60446 0.0
C3271 C 0.73615 0.95705 0.60256 0.0
C3272 C 0.76146 0.98649 0.60345 0.0
H3273 H 0.72719 0.05077 0.59661 0.0
H3274 H 0.728 0.02518 0.5992 0.0
H3275 H 0.7708 0.00666 0.59894 0.0
H3276 H 0.76865 0.93393 0.61201 0.0
H3277 H 0.7701 0.95966 0.61454 0.0
H3278 H 0.72884 0.98152 0.61807 0.0
C3279 C 0.73727 0.03131 0.60206 0.0
C3280 C 0.76169 0.00128 0.60336 0.0
C3281 C 0.73684 0.04597 0.60048 0.0
C3282 C 0.7595 0.94027 0.60934 0.0
C3283 C 0.76035 0.95498 0.61073 0.0
C3284 C 0.73806 0.98688 0.61388 0.0
C3285 C 0.74959 0.02463 0.60696 0.0
C3286 C 0.74998 0.009 0.60827 0.0
C3287 C 0.74867 0.96352 0.60735 0.0
C3288 C 0.74952 0.97915 0.60845 0.0
H3289 H 0.77034 0.05383 0.6114 0.0
H3290 H 0.7711 0.02809 0.61416 0.0
H3291 H 0.72923 0.0073 0.61791 0.0
H3292 H 0.72556 0.93774 0.59731 0.0
H3293 H 0.72704 0.96334 0.59966 0.0
C3294 C 0.73641 0.04818 0.39432 0.0
C3295 C 0.74711 0.05653 0.3883 0.0
C3296 C 0.73752 0.03347 0.39439 0.0
C3297 C 0.75514 0.00352 0.37693 0.0
H3298 H 0.74384 0.98355 0.41095 0.0
C3299 C 0.76048 0.94267 0.38359 0.0
C3300 C 0.74873 0.93584 0.38964 0.0
C3301 C 0.76127 0.95745 0.3834 0.0
C3302 C 0.74694 0.98897 0.40134 0.0
H3303 H 0.76732 0.05609 0.37745 0.0
H3304 H 0.7693 0.03028 0.37761 0.0
H3305 H 0.7434 0.0093 0.41057 0.0
H3306 H 0.72859 0.93906 0.40013 0.0
H3307 H 0.72993 0.96476 0.39972 0.0
H3308 H 0.75856 0.9831 0.36768 0.0
C3309 C 0.76 0.03513 0.3822 0.0
C3310 C 0.74668 0.00371 0.40112 0.0
C3311 C 0.75889 0.04989 0.38216 0.0
C3312 C 0.7378 0.94403 0.39544 0.0
C3313 C 0.73861 0.95875 0.39529 0.0
C3314 C 0.75541 0.98872 0.37716 0.0
C3315 C 0.74937 0.02678 0.38843 0.0
C3316 C 0.75056 0.01115 0.38885 0.0
C3317 C 0.75036 0.96563 0.38932 0.0
C3318 C 0.75109 0.9813 0.3893 0.0
H3319 H 0.72717 0.053 0.39908 0.0
H3320 H 0.72903 0.02733 0.39904 0.0
H3321 H 0.7581 0.00896 0.36729 0.0
H3322 H 0.76906 0.9366 0.37905 0.0
H3323 H 0.77049 0.96247 0.3788 0.0
C3324 C 0.94232 0.73526 0.38961 0.0
C3325 C 0.93403 0.74693 0.38573 0.0
C3326 C 0.957 0.73572 0.38816 0.0
C3327 C 0.98693 0.76034 0.3863 0.0
H3328 H 0.00709 0.72718 0.37307 0.0
C3329 C 0.04801 0.75876 0.38103 0.0
C3330 C 0.05451 0.74646 0.38623 0.0
C3331 C 0.0333 0.75936 0.37954 0.0
C3332 C 0.00162 0.73649 0.37686 0.0
H3333 H 0.93454 0.76821 0.37721 0.0
H3334 H 0.9603 0.76902 0.37468 0.0
H3335 H 0.98131 0.72726 0.37294 0.0
H3336 H 0.05077 0.72517 0.39391 0.0
H3337 H 0.02517 0.72626 0.39143 0.0
H3338 H 0.00727 0.76945 0.39048 0.0
C3339 C 0.95542 0.75955 0.37891 0.0
C3340 C 0.98686 0.73654 0.37678 0.0
C3341 C 0.94069 0.75907 0.3803 0.0
C3342 C 0.04606 0.73478 0.38984 0.0
C3343 C 0.0314 0.73537 0.38832 0.0
C3344 C 0.00172 0.76028 0.3864 0.0
C3345 C 0.96371 0.74787 0.38283 0.0
C3346 C 0.97936 0.74836 0.38174 0.0
C3347 C 0.02485 0.74766 0.38317 0.0
C3348 C 0.00921 0.74825 0.38192 0.0
H3349 H 0.93749 0.72576 0.39384 0.0
H3350 H 0.96311 0.72663 0.39147 0.0
H3351 H 0.98144 0.76955 0.39031 0.0
H3352 H 0.05428 0.76792 0.37814 0.0
H3353 H 0.02856 0.76894 0.37544 0.0
C3354 C 0.25413 0.04754 0.38592 0.0
C3355 C 0.24228 0.05608 0.38332 0.0
C3356 C 0.25342 0.03295 0.38383 0.0
C3357 C 0.22839 0.00339 0.3829 0.0
H3358 H 0.26018 0.98327 0.36662 0.0
C3359 C 0.22922 0.94234 0.37766 0.0
C3360 C 0.24185 0.93589 0.38206 0.0
C3361 C 0.22858 0.95702 0.37584 0.0
C3362 C 0.25124 0.98873 0.37124 0.0
H3363 H 0.22042 0.0561 0.37639 0.0
H3364 H 0.21915 0.03048 0.37278 0.0
H3365 H 0.26031 0.00906 0.36705 0.0
H3366 H 0.26375 0.93966 0.38779 0.0
H3367 H 0.26263 0.96517 0.38474 0.0
H3368 H 0.21949 0.98304 0.38744 0.0
C3369 C 0.22897 0.03511 0.37648 0.0
C3370 C 0.25131 0.00349 0.37148 0.0
C3371 C 0.22971 0.04976 0.37849 0.0
C3372 C 0.25387 0.94433 0.38437 0.0
C3373 C 0.25325 0.95895 0.38252 0.0
C3374 C 0.22833 0.9886 0.38269 0.0
C3375 C 0.24082 0.02656 0.37916 0.0
C3376 C 0.24003 0.01097 0.37758 0.0
C3377 C 0.24059 0.96548 0.37832 0.0
C3378 C 0.2399 0.98112 0.37713 0.0
H3379 H 0.26397 0.05212 0.38966 0.0
H3380 H 0.26266 0.02663 0.38619 0.0
H3381 H 0.21959 0.00886 0.38778 0.0
H3382 H 0.21979 0.93608 0.37578 0.0
H3383 H 0.21871 0.96174 0.37248 0.0
C3384 C 0.04712 0.25292 0.39617 0.0
C3385 C 0.05536 0.24245 0.38962 0.0
C3386 C 0.0324 0.25199 0.39603 0.0
C3387 C 0.0024 0.23592 0.37712 0.0
H3388 H 0.98203 0.2456 0.41139 0.0
C3389 C 0.94137 0.23103 0.38243 0.0
C3390 C 0.93458 0.24236 0.38922 0.0
C3391 C 0.95614 0.23014 0.38236 0.0
C3392 C 0.98756 0.24297 0.4017 0.0
H3393 H 0.05469 0.22286 0.3777 0.0
H3394 H 0.02884 0.22121 0.37751 0.0
H3395 H 0.00778 0.24562 0.41148 0.0
H3396 H 0.93788 0.26173 0.4011 0.0
H3397 H 0.96357 0.26025 0.40088 0.0
H3398 H 0.9821 0.23341 0.36733 0.0
C3399 C 0.03381 0.23017 0.38266 0.0
C3400 C 0.00231 0.24298 0.40176 0.0
C3401 C 0.04859 0.23108 0.38283 0.0
C3402 C 0.94281 0.25283 0.39583 0.0
C3403 C 0.95753 0.25193 0.39579 0.0
C3404 C 0.98761 0.23591 0.37707 0.0
C3405 C 0.02557 0.24058 0.38935 0.0
C3406 C 0.0099 0.23966 0.38942 0.0
C3407 C 0.96437 0.24055 0.38912 0.0
C3408 C 0.98004 0.23965 0.38931 0.0
H3409 H 0.05204 0.26184 0.40144 0.0
H3410 H 0.02635 0.26031 0.40107 0.0
H3411 H 0.00797 0.23342 0.36742 0.0
H3412 H 0.93527 0.2228 0.37725 0.0
H3413 H 0.96111 0.2212 0.37721 0.0
C3414 C 0.256 0.04673 0.5989 0.0
C3415 C 0.24412 0.05448 0.60322 0.0
C3416 C 0.25591 0.03199 0.59949 0.0
C3417 C 0.23808 0.00144 0.61599 0.0
H3418 H 0.25396 0.98117 0.58405 0.0
C3419 C 0.23379 0.94052 0.60891 0.0
C3420 C 0.24592 0.93363 0.60382 0.0
C3421 C 0.23328 0.9553 0.60946 0.0
C3422 C 0.24963 0.98667 0.59312 0.0
H3423 H 0.22288 0.05295 0.61175 0.0
H3424 H 0.22268 0.02709 0.61269 0.0
H3425 H 0.25357 0.0069 0.58385 0.0
H3426 H 0.26715 0.93676 0.59568 0.0
H3427 H 0.26631 0.96246 0.59675 0.0
H3428 H 0.23414 0.98111 0.62524 0.0
C3429 C 0.23211 0.03244 0.60896 0.0
C3430 C 0.2494 0.00141 0.593 0.0
C3431 C 0.2322 0.04722 0.60835 0.0
C3432 C 0.25762 0.94177 0.59957 0.0
C3433 C 0.2571 0.95649 0.6001 0.0
C3434 C 0.2383 0.98664 0.6161 0.0
C3435 C 0.24393 0.02467 0.6044 0.0
C3436 C 0.24374 0.00897 0.60448 0.0
C3437 C 0.24487 0.96344 0.60488 0.0
C3438 C 0.2442 0.97911 0.60472 0.0
H3439 H 0.26538 0.05204 0.59496 0.0
H3440 H 0.26527 0.02631 0.59613 0.0
H3441 H 0.23375 0.00697 0.62504 0.0
H3442 H 0.22462 0.9345 0.61226 0.0
H3443 H 0.22367 0.96035 0.61311 0.0
C3444 C 0.94297 0.23074 0.60511 0.0
C3445 C 0.93604 0.24261 0.5995 0.0
C3446 C 0.95775 0.23011 0.60526 0.0
C3447 C 0.98921 0.24546 0.58794 0.0
H3448 H 0.00918 0.23215 0.62119 0.0
C3449 C 0.04902 0.25366 0.59491 0.0
C3450 C 0.05691 0.24236 0.60042 0.0
C3451 C 0.03427 0.25313 0.59487 0.0
C3452 C 0.00374 0.23573 0.61177 0.0
H3453 H 0.9391 0.26317 0.58978 0.0
H3454 H 0.96482 0.26213 0.59015 0.0
H3455 H 0.98334 0.23213 0.62095 0.0
H3456 H 0.05559 0.2217 0.61027 0.0
H3457 H 0.02975 0.22074 0.61011 0.0
H3458 H 0.00956 0.24914 0.57877 0.0
C3459 C 0.95888 0.25321 0.59425 0.0
C3460 C 0.98896 0.23572 0.61163 0.0
C3461 C 0.94414 0.25385 0.59412 0.0
C3462 C 0.04977 0.23057 0.60598 0.0
C3463 C 0.03498 0.23005 0.60595 0.0
C3464 C 0.00396 0.24548 0.58808 0.0
C3465 C 0.96586 0.24132 0.59977 0.0
C3466 C 0.98154 0.24072 0.59976 0.0
C3467 C 0.02708 0.2413 0.60032 0.0
C3468 C 0.0114 0.24075 0.60004 0.0
H3469 H 0.93698 0.22191 0.60931 0.0
H3470 H 0.96283 0.22076 0.60947 0.0
H3471 H 0.9838 0.24913 0.57853 0.0
H3472 H 0.05424 0.26291 0.5906 0.0
H3473 H 0.02849 0.26207 0.59066 0.0
C3474 C 0.04724 0.73785 0.59517 0.0
C3475 C 0.05572 0.74832 0.60145 0.0
C3476 C 0.03255 0.73909 0.5952 0.0
C3477 C 0.00286 0.75615 0.61349 0.0
H3478 H 0.98253 0.74607 0.57927 0.0
C3479 C 0.94182 0.76101 0.6078 0.0
C3480 C 0.93507 0.74948 0.60125 0.0
C3481 C 0.9566 0.76198 0.6079 0.0
C3482 C 0.98805 0.74883 0.58894 0.0
H3483 H 0.05551 0.76823 0.61285 0.0
H3484 H 0.0297 0.77042 0.61289 0.0
H3485 H 0.00828 0.74578 0.57934 0.0
H3486 H 0.93843 0.72987 0.58982 0.0
H3487 H 0.9641 0.73149 0.59009 0.0
H3488 H 0.98254 0.75902 0.62312 0.0
C3489 C 0.03446 0.76123 0.608 0.0
C3490 C 0.00279 0.74866 0.58897 0.0
C3491 C 0.04921 0.76 0.60792 0.0
C3492 C 0.94332 0.73891 0.5949 0.0
C3493 C 0.95804 0.73989 0.59497 0.0
C3494 C 0.98806 0.75631 0.61345 0.0
C3495 C 0.02599 0.75082 0.60153 0.0
C3496 C 0.01036 0.75207 0.60131 0.0
C3497 C 0.96485 0.75146 0.60139 0.0
C3498 C 0.98051 0.7524 0.60124 0.0
H3499 H 0.05195 0.72869 0.59014 0.0
H3500 H 0.0263 0.73078 0.59035 0.0
H3501 H 0.00841 0.75874 0.62318 0.0
H3502 H 0.9357 0.76931 0.61277 0.0
H3503 H 0.96155 0.77105 0.61286 0.0
loop_
_geom_bond_atom_site_label_1
_geom_bond_atom_site_label_2
_geom_bond_distance
_geom_bond_site_symmetry_2
_ccdc_geom_bond_type
In0 O1 2.294 . S
In0 O2 2.326 . S
In0 O6 2.266 . S
In0 O7 2.326 . S
In0 O8 2.266 . S
In0 O9 2.326 . S
In0 O11 2.294 . S
In0 O12 2.326 . S
O1 In0 2.294 . S
O1 C10 1.240 . S
O2 In0 2.326 . S
O2 C10 1.252 . S
C3 O6 1.252 . S
C3 O7 1.260 . S
C4 O11 1.240 . S
C4 O12 1.252 . S
C5 O8 1.252 . S
C5 O9 1.260 . S
O6 In0 2.266 . S
O6 C3 1.252 . S
O7 In0 2.326 . S
O7 C3 1.260 . S
O8 In0 2.266 . S
O8 C5 1.252 . S
O9 In0 2.326 . S
O9 C5 1.260 . S
C10 O1 1.240 . S
C10 O2 1.252 . S
O11 In0 2.294 . S
O11 C4 1.240 . S
O12 In0 2.326 . S
O12 C4 1.252 . S
In13 O14 2.294 . S
In13 O15 2.326 . S
In13 O19 2.266 . S
In13 O20 2.326 . S
In13 O21 2.266 . S
In13 O22 2.326 . S
In13 O24 2.294 . S
In13 O25 2.326 . S
O14 In13 2.294 . S
O14 C23 1.240 . S
O15 In13 2.326 . S
O15 C23 1.252 . S
C16 O19 1.252 . S
C16 O20 1.260 . S
C17 O24 1.240 . S
C17 O25 1.252 . S
C18 O21 1.252 . S
C18 O22 1.260 . S
O19 In13 2.266 . S
O19 C16 1.252 . S
O20 In13 2.326 . S
O20 C16 1.260 . S
O21 In13 2.266 . S
O21 C18 1.252 . S
O22 In13 2.326 . S
O22 C18 1.260 . S
C23 O14 1.240 . S
C23 O15 1.252 . S
O24 In13 2.294 . S
O24 C17 1.240 . S
O25 In13 2.326 . S
O25 C17 1.252 . S
In26 O27 2.294 . S
In26 O28 2.326 . S
In26 O32 2.266 . S
In26 O33 2.326 . S
In26 O34 2.266 . S
In26 O35 2.326 . S
In26 O37 2.294 . S
In26 O38 2.326 . S
O27 In26 2.294 . S
O27 C36 1.240 . S
O28 In26 2.326 . S
O28 C36 1.252 . S
C29 O32 1.252 . S
C29 O33 1.260 . S
C30 O37 1.240 . S
C30 O38 1.252 . S
C31 O34 1.252 . S
C31 O35 1.260 . S
O32 In26 2.266 . S
O32 C29 1.252 . S
O33 In26 2.326 . S
O33 C29 1.260 . S
O34 In26 2.266 . S
O34 C31 1.252 . S
O35 In26 2.326 . S
O35 C31 1.260 . S
C36 O27 1.240 . S
C36 O28 1.252 . S
O37 In26 2.294 . S
O37 C30 1.240 . S
O38 In26 2.326 . S
O38 C30 1.252 . S
In39 O40 2.294 . S
In39 O41 2.326 . S
In39 O45 2.266 . S
In39 O46 2.326 . S
In39 O47 2.266 . S
In39 O48 2.326 . S
In39 O50 2.294 . S
In39 O51 2.326 . S
O40 In39 2.294 . S
O40 C49 1.240 . S
O41 In39 2.326 . S
O41 C49 1.252 . S
C42 O45 1.252 . S
C42 O46 1.260 . S
C43 O50 1.240 . S
C43 O51 1.252 . S
C44 O47 1.252 . S
C44 O48 1.260 . S
O45 In39 2.266 . S
O45 C42 1.252 . S
O46 In39 2.326 . S
O46 C42 1.260 . S
O47 In39 2.266 . S
O47 C44 1.252 . S
O48 In39 2.326 . S
O48 C44 1.260 . S
C49 O40 1.240 . S
C49 O41 1.252 . S
O50 In39 2.294 . S
O50 C43 1.240 . S
O51 In39 2.326 . S
O51 C43 1.252 . S
In52 O53 2.294 . S
In52 O54 2.326 . S
In52 O58 2.266 . S
In52 O59 2.326 . S
In52 O60 2.266 . S
In52 O61 2.326 . S
In52 O63 2.294 . S
In52 O64 2.326 . S
O53 In52 2.294 . S
O53 C62 1.240 . S
O54 In52 2.326 . S
O54 C62 1.252 . S
C55 O58 1.252 . S
C55 O59 1.260 . S
C56 O63 1.240 . S
C56 O64 1.252 . S
C57 O60 1.252 . S
C57 O61 1.260 . S
O58 In52 2.266 . S
O58 C55 1.252 . S
O59 In52 2.326 . S
O59 C55 1.260 . S
O60 In52 2.266 . S
O60 C57 1.252 . S
O61 In52 2.326 . S
O61 C57 1.260 . S
C62 O53 1.240 . S
C62 O54 1.252 . S
O63 In52 2.294 . S
O63 C56 1.240 . S
O64 In52 2.326 . S
O64 C56 1.252 . S
In65 O66 2.294 . S
In65 O67 2.326 . S
In65 O71 2.266 . S
In65 O72 2.326 . S
In65 O73 2.266 . S
In65 O74 2.326 . S
In65 O76 2.294 . S
In65 O77 2.326 . S
O66 In65 2.294 . S
O66 C75 1.240 . S
O67 In65 2.326 . S
O67 C75 1.252 . S
C68 O71 1.252 . S
C68 O72 1.260 . S
C69 O76 1.240 . S
C69 O77 1.252 . S
C70 O73 1.252 . S
C70 O74 1.260 . S
O71 In65 2.266 . S
O71 C68 1.252 . S
O72 In65 2.326 . S
O72 C68 1.260 . S
O73 In65 2.266 . S
O73 C70 1.252 . S
O74 In65 2.326 . S
O74 C70 1.260 . S
C75 O66 1.240 . S
C75 O67 1.252 . S
O76 In65 2.294 . S
O76 C69 1.240 . S
O77 In65 2.326 . S
O77 C69 1.252 . S
In78 O79 2.294 . S
In78 O80 2.326 . S
In78 O84 2.266 . S
In78 O85 2.326 . S
In78 O86 2.266 . S
In78 O87 2.326 . S
In78 O89 2.294 . S
In78 O90 2.326 . S
O79 In78 2.294 . S
O79 C88 1.240 . S
O80 In78 2.326 . S
O80 C88 1.252 . S
C81 O84 1.252 . S
C81 O85 1.260 . S
C82 O89 1.240 . S
C82 O90 1.252 . S
C83 O86 1.252 . S
C83 O87 1.260 . S
O84 In78 2.266 . S
O84 C81 1.252 . S
O85 In78 2.326 . S
O85 C81 1.260 . S
O86 In78 2.266 . S
O86 C83 1.252 . S
O87 In78 2.326 . S
O87 C83 1.260 . S
C88 O79 1.240 . S
C88 O80 1.252 . S
O89 In78 2.294 . S
O89 C82 1.240 . S
O90 In78 2.326 . S
O90 C82 1.252 . S
In91 O92 2.294 . S
In91 O93 2.326 . S
In91 O97 2.266 . S
In91 O98 2.326 . S
In91 O99 2.266 . S
In91 O100 2.326 . S
In91 O102 2.294 . S
In91 O103 2.326 . S
O92 In91 2.294 . S
O92 C101 1.240 . S
O93 In91 2.326 . S
O93 C101 1.252 . S
C94 O97 1.252 . S
C94 O98 1.260 . S
C95 O102 1.240 . S
C95 O103 1.252 . S
C96 O99 1.252 . S
C96 O100 1.260 . S
O97 In91 2.266 . S
O97 C94 1.252 . S
O98 In91 2.326 . S
O98 C94 1.260 . S
O99 In91 2.266 . S
O99 C96 1.252 . S
O100 In91 2.326 . S
O100 C96 1.260 . S
C101 O92 1.240 . S
C101 O93 1.252 . S
O102 In91 2.294 . S
O102 C95 1.240 . S
O103 In91 2.326 . S
O103 C95 1.252 . S
In104 O105 2.294 . S
In104 O106 2.326 . S
In104 O110 2.266 . S
In104 O111 2.326 . S
In104 O112 2.266 . S
In104 O113 2.326 . S
In104 O115 2.294 . S
In104 O116 2.326 . S
O105 In104 2.294 . S
O105 C114 1.240 . S
O106 In104 2.326 . S
O106 C114 1.252 . S
C107 O110 1.252 . S
C107 O111 1.260 . S
C108 O115 1.240 . S
C108 O116 1.252 . S
C109 O112 1.252 . S
C109 O113 1.260 . S
O110 In104 2.266 . S
O110 C107 1.252 . S
O111 In104 2.326 . S
O111 C107 1.260 . S
O112 In104 2.266 . S
O112 C109 1.252 . S
O113 In104 2.326 . S
O113 C109 1.260 . S
C114 O105 1.240 . S
C114 O106 1.252 . S
O115 In104 2.294 . S
O115 C108 1.240 . S
O116 In104 2.326 . S
O116 C108 1.252 . S
In117 O118 2.294 . S
In117 O119 2.326 . S
In117 O123 2.266 . S
In117 O124 2.326 . S
In117 O125 2.266 . S
In117 O126 2.326 . S
In117 O128 2.294 . S
In117 O129 2.326 . S
O118 In117 2.294 . S
O118 C127 1.240 . S
O119 In117 2.326 . S
O119 C127 1.252 . S
C120 O123 1.252 . S
C120 O124 1.260 . S
C121 O128 1.240 . S
C121 O129 1.252 . S
C122 O125 1.252 . S
C122 O126 1.260 . S
O123 In117 2.266 . S
O123 C120 1.252 . S
O124 In117 2.326 . S
O124 C120 1.260 . S
O125 In117 2.266 . S
O125 C122 1.252 . S
O126 In117 2.326 . S
O126 C122 1.260 . S
C127 O118 1.240 . S
C127 O119 1.252 . S
O128 In117 2.294 . S
O128 C121 1.240 . S
O129 In117 2.326 . S
O129 C121 1.252 . S
In130 O131 2.294 . S
In130 O132 2.326 . S
In130 O136 2.266 . S
In130 O137 2.326 . S
In130 O138 2.266 . S
In130 O139 2.326 . S
In130 O141 2.294 . S
In130 O142 2.326 . S
O131 In130 2.294 . S
O131 C140 1.240 . S
O132 In130 2.326 . S
O132 C140 1.252 . S
C133 O136 1.252 . S
C133 O137 1.260 . S
C134 O141 1.240 . S
C134 O142 1.252 . S
C135 O138 1.252 . S
C135 O139 1.260 . S
O136 In130 2.266 . S
O136 C133 1.252 . S
O137 In130 2.326 . S
O137 C133 1.260 . S
O138 In130 2.266 . S
O138 C135 1.252 . S
O139 In130 2.326 . S
O139 C135 1.260 . S
C140 O131 1.240 . S
C140 O132 1.252 . S
O141 In130 2.294 . S
O141 C134 1.240 . S
O142 In130 2.326 . S
O142 C134 1.252 . S
In143 O144 2.294 . S
In143 O145 2.326 . S
In143 O149 2.266 . S
In143 O150 2.326 . S
In143 O151 2.266 . S
In143 O152 2.326 . S
In143 O154 2.294 . S
In143 O155 2.326 . S
O144 In143 2.294 . S
O144 C153 1.240 . S
O145 In143 2.326 . S
O145 C153 1.252 . S
C146 O149 1.252 . S
C146 O150 1.260 . S
C147 O154 1.240 . S
C147 O155 1.252 . S
C148 O151 1.252 . S
C148 O152 1.260 . S
O149 In143 2.266 . S
O149 C146 1.252 . S
O150 In143 2.326 . S
O150 C146 1.260 . S
O151 In143 2.266 . S
O151 C148 1.252 . S
O152 In143 2.326 . S
O152 C148 1.260 . S
C153 O144 1.240 . S
C153 O145 1.252 . S
O154 In143 2.294 . S
O154 C147 1.240 . S
O155 In143 2.326 . S
O155 C147 1.252 . S
In156 O157 2.294 . S
In156 O158 2.326 . S
In156 O162 2.266 . S
In156 O163 2.326 . S
In156 O164 2.266 . S
In156 O165 2.326 . S
In156 O167 2.294 . S
In156 O168 2.326 . S
O157 In156 2.294 . S
O157 C166 1.240 . S
O158 In156 2.326 . S
O158 C166 1.252 . S
C159 O162 1.252 . S
C159 O163 1.260 . S
C160 O167 1.240 . S
C160 O168 1.252 . S
C161 O164 1.252 . S
C161 O165 1.260 . S
O162 In156 2.266 . S
O162 C159 1.252 . S
O163 In156 2.326 . S
O163 C159 1.260 . S
O164 In156 2.266 . S
O164 C161 1.252 . S
O165 In156 2.326 . S
O165 C161 1.260 . S
C166 O157 1.240 . S
C166 O158 1.252 . S
O167 In156 2.294 . S
O167 C160 1.240 . S
O168 In156 2.326 . S
O168 C160 1.252 . S
In169 O170 2.294 . S
In169 O171 2.326 . S
In169 O175 2.266 . S
In169 O176 2.326 . S
In169 O177 2.266 . S
In169 O178 2.326 . S
In169 O180 2.294 . S
In169 O181 2.326 . S
O170 In169 2.294 . S
O170 C179 1.240 . S
O171 In169 2.326 . S
O171 C179 1.252 . S
C172 O175 1.252 . S
C172 O176 1.260 . S
C173 O180 1.240 . S
C173 O181 1.252 . S
C174 O177 1.252 . S
C174 O178 1.260 . S
O175 In169 2.266 . S
O175 C172 1.252 . S
O176 In169 2.326 . S
O176 C172 1.260 . S
O177 In169 2.266 . S
O177 C174 1.252 . S
O178 In169 2.326 . S
O178 C174 1.260 . S
C179 O170 1.240 . S
C179 O171 1.252 . S
O180 In169 2.294 . S
O180 C173 1.240 . S
O181 In169 2.326 . S
O181 C173 1.252 . S
In182 O183 2.294 . S
In182 O184 2.326 . S
In182 O188 2.266 . S
In182 O189 2.326 . S
In182 O190 2.266 . S
In182 O191 2.326 . S
In182 O193 2.294 . S
In182 O194 2.326 . S
O183 In182 2.294 . S
O183 C192 1.240 . S
O184 In182 2.326 . S
O184 C192 1.252 . S
C185 O188 1.252 . S
C185 O189 1.260 . S
C186 O193 1.240 . S
C186 O194 1.252 . S
C187 O190 1.252 . S
C187 O191 1.260 . S
O188 In182 2.266 . S
O188 C185 1.252 . S
O189 In182 2.326 . S
O189 C185 1.260 . S
O190 In182 2.266 . S
O190 C187 1.252 . S
O191 In182 2.326 . S
O191 C187 1.260 . S
C192 O183 1.240 . S
C192 O184 1.252 . S
O193 In182 2.294 . S
O193 C186 1.240 . S
O194 In182 2.326 . S
O194 C186 1.252 . S
In195 O196 2.294 . S
In195 O197 2.326 . S
In195 O201 2.266 . S
In195 O202 2.326 . S
In195 O203 2.266 . S
In195 O204 2.326 . S
In195 O206 2.294 . S
In195 O207 2.326 . S
O196 In195 2.294 . S
O196 C205 1.240 . S
O197 In195 2.326 . S
O197 C205 1.252 . S
C198 O201 1.252 . S
C198 O202 1.260 . S
C199 O206 1.240 . S
C199 O207 1.252 . S
C200 O203 1.252 . S
C200 O204 1.260 . S
O201 In195 2.266 . S
O201 C198 1.252 . S
O202 In195 2.326 . S
O202 C198 1.260 . S
O203 In195 2.266 . S
O203 C200 1.252 . S
O204 In195 2.326 . S
O204 C200 1.260 . S
C205 O196 1.240 . S
C205 O197 1.252 . S
O206 In195 2.294 . S
O206 C199 1.240 . S
O207 In195 2.326 . S
O207 C199 1.252 . S
In208 O209 2.294 . S
In208 O210 2.326 . S
In208 O214 2.266 . S
In208 O215 2.326 . S
In208 O216 2.266 . S
In208 O217 2.326 . S
In208 O219 2.294 . S
In208 O220 2.326 . S
O209 In208 2.294 . S
O209 C218 1.240 . S
O210 In208 2.326 . S
O210 C218 1.252 . S
C211 O214 1.252 . S
C211 O215 1.260 . S
C212 O219 1.240 . S
C212 O220 1.252 . S
C213 O216 1.252 . S
C213 O217 1.260 . S
O214 In208 2.266 . S
O214 C211 1.252 . S
O215 In208 2.326 . S
O215 C211 1.260 . S
O216 In208 2.266 . S
O216 C213 1.252 . S
O217 In208 2.326 . S
O217 C213 1.260 . S
C218 O209 1.240 . S
C218 O210 1.252 . S
O219 In208 2.294 . S
O219 C212 1.240 . S
O220 In208 2.326 . S
O220 C212 1.252 . S
In221 O222 2.294 . S
In221 O223 2.326 . S
In221 O227 2.266 . S
In221 O228 2.326 . S
In221 O229 2.266 . S
In221 O230 2.326 . S
In221 O232 2.294 . S
In221 O233 2.326 . S
O222 In221 2.294 . S
O222 C231 1.240 . S
O223 In221 2.326 . S
O223 C231 1.252 . S
C224 O227 1.252 . S
C224 O228 1.260 . S
C225 O232 1.240 . S
C225 O233 1.252 . S
C226 O229 1.252 . S
C226 O230 1.260 . S
O227 In221 2.266 . S
O227 C224 1.252 . S
O228 In221 2.326 . S
O228 C224 1.260 . S
O229 In221 2.266 . S
O229 C226 1.252 . S
O230 In221 2.326 . S
O230 C226 1.260 . S
C231 O222 1.240 . S
C231 O223 1.252 . S
O232 In221 2.294 . S
O232 C225 1.240 . S
O233 In221 2.326 . S
O233 C225 1.252 . S
In234 O235 2.294 . S
In234 O236 2.326 . S
In234 O240 2.266 . S
In234 O241 2.326 . S
In234 O242 2.266 . S
In234 O243 2.326 . S
In234 O245 2.294 . S
In234 O246 2.326 . S
O235 In234 2.294 . S
O235 C244 1.240 . S
O236 In234 2.326 . S
O236 C244 1.252 . S
C237 O240 1.252 . S
C237 O241 1.260 . S
C238 O245 1.240 . S
C238 O246 1.252 . S
C239 O242 1.252 . S
C239 O243 1.260 . S
O240 In234 2.266 . S
O240 C237 1.252 . S
O241 In234 2.326 . S
O241 C237 1.260 . S
O242 In234 2.266 . S
O242 C239 1.252 . S
O243 In234 2.326 . S
O243 C239 1.260 . S
C244 O235 1.240 . S
C244 O236 1.252 . S
O245 In234 2.294 . S
O245 C238 1.240 . S
O246 In234 2.326 . S
O246 C238 1.252 . S
In247 O248 2.294 . S
In247 O249 2.326 . S
In247 O253 2.266 . S
In247 O254 2.326 . S
In247 O255 2.266 . S
In247 O256 2.326 . S
In247 O258 2.294 . S
In247 O259 2.326 . S
O248 In247 2.294 . S
O248 C257 1.240 . S
O249 In247 2.326 . S
O249 C257 1.252 . S
C250 O253 1.252 . S
C250 O254 1.260 . S
C251 O258 1.240 . S
C251 O259 1.252 . S
C252 O255 1.252 . S
C252 O256 1.260 . S
O253 In247 2.266 . S
O253 C250 1.252 . S
O254 In247 2.326 . S
O254 C250 1.260 . S
O255 In247 2.266 . S
O255 C252 1.252 . S
O256 In247 2.326 . S
O256 C252 1.260 . S
C257 O248 1.240 . S
C257 O249 1.252 . S
O258 In247 2.294 . S
O258 C251 1.240 . S
O259 In247 2.326 . S
O259 C251 1.252 . S
In260 O261 2.294 . S
In260 O262 2.326 . S
In260 O266 2.266 . S
In260 O267 2.326 . S
In260 O268 2.266 . S
In260 O269 2.326 . S
In260 O271 2.294 . S
In260 O272 2.326 . S
O261 In260 2.294 . S
O261 C270 1.240 . S
O262 In260 2.326 . S
O262 C270 1.252 . S
C263 O266 1.252 . S
C263 O267 1.260 . S
C264 O271 1.240 . S
C264 O272 1.252 . S
C265 O268 1.252 . S
C265 O269 1.260 . S
O266 In260 2.266 . S
O266 C263 1.252 . S
O267 In260 2.326 . S
O267 C263 1.260 . S
O268 In260 2.266 . S
O268 C265 1.252 . S
O269 In260 2.326 . S
O269 C265 1.260 . S
C270 O261 1.240 . S
C270 O262 1.252 . S
O271 In260 2.294 . S
O271 C264 1.240 . S
O272 In260 2.326 . S
O272 C264 1.252 . S
In273 O274 2.294 . S
In273 O275 2.326 . S
In273 O279 2.266 . S
In273 O280 2.326 . S
In273 O281 2.266 . S
In273 O282 2.326 . S
In273 O284 2.294 . S
In273 O285 2.326 . S
O274 In273 2.294 . S
O274 C283 1.240 . S
O275 In273 2.326 . S
O275 C283 1.252 . S
C276 O279 1.252 . S
C276 O280 1.260 . S
C277 O284 1.240 . S
C277 O285 1.252 . S
C278 O281 1.252 . S
C278 O282 1.260 . S
O279 In273 2.266 . S
O279 C276 1.252 . S
O280 In273 2.326 . S
O280 C276 1.260 . S
O281 In273 2.266 . S
O281 C278 1.252 . S
O282 In273 2.326 . S
O282 C278 1.260 . S
C283 O274 1.240 . S
C283 O275 1.252 . S
O284 In273 2.294 . S
O284 C277 1.240 . S
O285 In273 2.326 . S
O285 C277 1.252 . S
In286 O287 2.294 . S
In286 O288 2.326 . S
In286 O292 2.266 . S
In286 O293 2.326 . S
In286 O294 2.266 . S
In286 O295 2.326 . S
In286 O297 2.294 . S
In286 O298 2.326 . S
O287 In286 2.294 . S
O287 C296 1.240 . S
O288 In286 2.326 . S
O288 C296 1.252 . S
C289 O292 1.252 . S
C289 O293 1.260 . S
C290 O297 1.240 . S
C290 O298 1.252 . S
C291 O294 1.252 . S
C291 O295 1.260 . S
O292 In286 2.266 . S
O292 C289 1.252 . S
O293 In286 2.326 . S
O293 C289 1.260 . S
O294 In286 2.266 . S
O294 C291 1.252 . S
O295 In286 2.326 . S
O295 C291 1.260 . S
C296 O287 1.240 . S
C296 O288 1.252 . S
O297 In286 2.294 . S
O297 C290 1.240 . S
O298 In286 2.326 . S
O298 C290 1.252 . S
In299 O300 2.294 . S
In299 O301 2.326 . S
In299 O305 2.266 . S
In299 O306 2.326 . S
In299 O307 2.266 . S
In299 O308 2.326 . S
In299 O310 2.294 . S
In299 O311 2.326 . S
O300 In299 2.294 . S
O300 C309 1.240 . S
O301 In299 2.326 . S
O301 C309 1.252 . S
C302 O305 1.252 . S
C302 O306 1.260 . S
C303 O310 1.240 . S
C303 O311 1.252 . S
C304 O307 1.252 . S
C304 O308 1.260 . S
O305 In299 2.266 . S
O305 C302 1.252 . S
O306 In299 2.326 . S
O306 C302 1.260 . S
O307 In299 2.266 . S
O307 C304 1.252 . S
O308 In299 2.326 . S
O308 C304 1.260 . S
C309 O300 1.240 . S
C309 O301 1.252 . S
O310 In299 2.294 . S
O310 C303 1.240 . S
O311 In299 2.326 . S
O311 C303 1.252 . S
In312 O313 2.294 . S
In312 O314 2.326 . S
In312 O318 2.266 . S
In312 O319 2.326 . S
In312 O320 2.266 . S
In312 O321 2.326 . S
In312 O323 2.294 . S
In312 O324 2.326 . S
O313 In312 2.294 . S
O313 C322 1.240 . S
O314 In312 2.326 . S
O314 C322 1.252 . S
C315 O318 1.252 . S
C315 O319 1.260 . S
C316 O323 1.240 . S
C316 O324 1.252 . S
C317 O320 1.252 . S
C317 O321 1.260 . S
O318 In312 2.266 . S
O318 C315 1.252 . S
O319 In312 2.326 . S
O319 C315 1.260 . S
O320 In312 2.266 . S
O320 C317 1.252 . S
O321 In312 2.326 . S
O321 C317 1.260 . S
C322 O313 1.240 . S
C322 O314 1.252 . S
O323 In312 2.294 . S
O323 C316 1.240 . S
O324 In312 2.326 . S
O324 C316 1.252 . S
In325 O326 2.294 . S
In325 O327 2.326 . S
In325 O331 2.266 . S
In325 O332 2.326 . S
In325 O333 2.266 . S
In325 O334 2.326 . S
In325 O336 2.294 . S
In325 O337 2.326 . S
O326 In325 2.294 . S
O326 C335 1.240 . S
O327 In325 2.326 . S
O327 C335 1.252 . S
C328 O331 1.252 . S
C328 O332 1.260 . S
C329 O336 1.240 . S
C329 O337 1.252 . S
C330 O333 1.252 . S
C330 O334 1.260 . S
O331 In325 2.266 . S
O331 C328 1.252 . S
O332 In325 2.326 . S
O332 C328 1.260 . S
O333 In325 2.266 . S
O333 C330 1.252 . S
O334 In325 2.326 . S
O334 C330 1.260 . S
C335 O326 1.240 . S
C335 O327 1.252 . S
O336 In325 2.294 . S
O336 C329 1.240 . S
O337 In325 2.326 . S
O337 C329 1.252 . S
In338 O339 2.294 . S
In338 O340 2.326 . S
In338 O344 2.266 . S
In338 O345 2.326 . S
In338 O346 2.266 . S
In338 O347 2.326 . S
In338 O349 2.294 . S
In338 O350 2.326 . S
O339 In338 2.294 . S
O339 C348 1.240 . S
O340 In338 2.326 . S
O340 C348 1.252 . S
C341 O344 1.252 . S
C341 O345 1.260 . S
C342 O349 1.240 . S
C342 O350 1.252 . S
C343 O346 1.252 . S
C343 O347 1.260 . S
O344 In338 2.266 . S
O344 C341 1.252 . S
O345 In338 2.326 . S
O345 C341 1.260 . S
O346 In338 2.266 . S
O346 C343 1.252 . S
O347 In338 2.326 . S
O347 C343 1.260 . S
C348 O339 1.240 . S
C348 O340 1.252 . S
O349 In338 2.294 . S
O349 C342 1.240 . S
O350 In338 2.326 . S
O350 C342 1.252 . S
In351 O352 2.294 . S
In351 O353 2.326 . S
In351 O357 2.266 . S
In351 O358 2.326 . S
In351 O359 2.266 . S
In351 O360 2.326 . S
In351 O362 2.294 . S
In351 O363 2.326 . S
O352 In351 2.294 . S
O352 C361 1.240 . S
O353 In351 2.326 . S
O353 C361 1.252 . S
C354 O357 1.252 . S
C354 O358 1.260 . S
C355 O362 1.240 . S
C355 O363 1.252 . S
C356 O359 1.252 . S
C356 O360 1.260 . S
O357 In351 2.266 . S
O357 C354 1.252 . S
O358 In351 2.326 . S
O358 C354 1.260 . S
O359 In351 2.266 . S
O359 C356 1.252 . S
O360 In351 2.326 . S
O360 C356 1.260 . S
C361 O352 1.240 . S
C361 O353 1.252 . S
O362 In351 2.294 . S
O362 C355 1.240 . S
O363 In351 2.326 . S
O363 C355 1.252 . S
In364 O365 2.294 . S
In364 O366 2.326 . S
In364 O370 2.266 . S
In364 O371 2.326 . S
In364 O372 2.266 . S
In364 O373 2.326 . S
In364 O375 2.294 . S
In364 O376 2.326 . S
O365 In364 2.294 . S
O365 C374 1.240 . S
O366 In364 2.326 . S
O366 C374 1.252 . S
C367 O370 1.252 . S
C367 O371 1.260 . S
C368 O375 1.240 . S
C368 O376 1.252 . S
C369 O372 1.252 . S
C369 O373 1.260 . S
O370 In364 2.266 . S
O370 C367 1.252 . S
O371 In364 2.326 . S
O371 C367 1.260 . S
O372 In364 2.266 . S
O372 C369 1.252 . S
O373 In364 2.326 . S
O373 C369 1.260 . S
C374 O365 1.240 . S
C374 O366 1.252 . S
O375 In364 2.294 . S
O375 C368 1.240 . S
O376 In364 2.326 . S
O376 C368 1.252 . S
In377 O378 2.294 . S
In377 O379 2.326 . S
In377 O383 2.266 . S
In377 O384 2.326 . S
In377 O385 2.266 . S
In377 O386 2.326 . S
In377 O388 2.294 . S
In377 O389 2.326 . S
O378 In377 2.294 . S
O378 C387 1.240 . S
O379 In377 2.326 . S
O379 C387 1.252 . S
C380 O383 1.252 . S
C380 O384 1.260 . S
C381 O388 1.240 . S
C381 O389 1.252 . S
C382 O385 1.252 . S
C382 O386 1.260 . S
O383 In377 2.266 . S
O383 C380 1.252 . S
O384 In377 2.326 . S
O384 C380 1.260 . S
O385 In377 2.266 . S
O385 C382 1.252 . S
O386 In377 2.326 . S
O386 C382 1.260 . S
C387 O378 1.240 . S
C387 O379 1.252 . S
O388 In377 2.294 . S
O388 C381 1.240 . S
O389 In377 2.326 . S
O389 C381 1.252 . S
In390 O391 2.294 . S
In390 O392 2.326 . S
In390 O396 2.266 . S
In390 O397 2.326 . S
In390 O398 2.266 . S
In390 O399 2.326 . S
In390 O401 2.294 . S
In390 O402 2.326 . S
O391 In390 2.294 . S
O391 C400 1.240 . S
O392 In390 2.326 . S
O392 C400 1.252 . S
C393 O396 1.252 . S
C393 O397 1.260 . S
C394 O401 1.240 . S
C394 O402 1.252 . S
C395 O398 1.252 . S
C395 O399 1.260 . S
O396 In390 2.266 . S
O396 C393 1.252 . S
O397 In390 2.326 . S
O397 C393 1.260 . S
O398 In390 2.266 . S
O398 C395 1.252 . S
O399 In390 2.326 . S
O399 C395 1.260 . S
C400 O391 1.240 . S
C400 O392 1.252 . S
O401 In390 2.294 . S
O401 C394 1.240 . S
O402 In390 2.326 . S
O402 C394 1.252 . S
In403 O404 2.294 . S
In403 O405 2.326 . S
In403 O409 2.266 . S
In403 O410 2.326 . S
In403 O411 2.266 . S
In403 O412 2.326 . S
In403 O414 2.294 . S
In403 O415 2.326 . S
O404 In403 2.294 . S
O404 C413 1.240 . S
O405 In403 2.326 . S
O405 C413 1.252 . S
C406 O409 1.252 . S
C406 O410 1.260 . S
C407 O414 1.240 . S
C407 O415 1.252 . S
C408 O411 1.252 . S
C408 O412 1.260 . S
O409 In403 2.266 . S
O409 C406 1.252 . S
O410 In403 2.326 . S
O410 C406 1.260 . S
O411 In403 2.266 . S
O411 C408 1.252 . S
O412 In403 2.326 . S
O412 C408 1.260 . S
C413 O404 1.240 . S
C413 O405 1.252 . S
O414 In403 2.294 . S
O414 C407 1.240 . S
O415 In403 2.326 . S
O415 C407 1.252 . S
In416 O417 2.294 . S
In416 O418 2.326 . S
In416 O422 2.266 . S
In416 O423 2.326 . S
In416 O424 2.266 . S
In416 O425 2.326 . S
In416 O427 2.294 . S
In416 O428 2.326 . S
O417 In416 2.294 . S
O417 C426 1.240 . S
O418 In416 2.326 . S
O418 C426 1.252 . S
C419 O422 1.252 . S
C419 O423 1.260 . S
C420 O427 1.240 . S
C420 O428 1.252 . S
C421 O424 1.252 . S
C421 O425 1.260 . S
O422 In416 2.266 . S
O422 C419 1.252 . S
O423 In416 2.326 . S
O423 C419 1.260 . S
O424 In416 2.266 . S
O424 C421 1.252 . S
O425 In416 2.326 . S
O425 C421 1.260 . S
C426 O417 1.240 . S
C426 O418 1.252 . S
O427 In416 2.294 . S
O427 C420 1.240 . S
O428 In416 2.326 . S
O428 C420 1.252 . S
In429 O430 2.294 . S
In429 O431 2.326 . S
In429 O435 2.266 . S
In429 O436 2.326 . S
In429 O437 2.266 . S
In429 O438 2.326 . S
In429 O440 2.294 . S
In429 O441 2.326 . S
O430 In429 2.294 . S
O430 C439 1.240 . S
O431 In429 2.326 . S
O431 C439 1.252 . S
C432 O435 1.252 . S
C432 O436 1.260 . S
C433 O440 1.240 . S
C433 O441 1.252 . S
C434 O437 1.252 . S
C434 O438 1.260 . S
O435 In429 2.266 . S
O435 C432 1.252 . S
O436 In429 2.326 . S
O436 C432 1.260 . S
O437 In429 2.266 . S
O437 C434 1.252 . S
O438 In429 2.326 . S
O438 C434 1.260 . S
C439 O430 1.240 . S
C439 O431 1.252 . S
O440 In429 2.294 . S
O440 C433 1.240 . S
O441 In429 2.326 . S
O441 C433 1.252 . S
In442 O443 2.294 . S
In442 O444 2.326 . S
In442 O448 2.266 . S
In442 O449 2.326 . S
In442 O450 2.266 . S
In442 O451 2.326 . S
In442 O453 2.294 . S
In442 O454 2.326 . S
O443 In442 2.294 . S
O443 C452 1.240 . S
O444 In442 2.326 . S
O444 C452 1.252 . S
C445 O448 1.252 . S
C445 O449 1.260 . S
C446 O453 1.240 . S
C446 O454 1.252 . S
C447 O450 1.252 . S
C447 O451 1.260 . S
O448 In442 2.266 . S
O448 C445 1.252 . S
O449 In442 2.326 . S
O449 C445 1.260 . S
O450 In442 2.266 . S
O450 C447 1.252 . S
O451 In442 2.326 . S
O451 C447 1.260 . S
C452 O443 1.240 . S
C452 O444 1.252 . S
O453 In442 2.294 . S
O453 C446 1.240 . S
O454 In442 2.326 . S
O454 C446 1.252 . S
In455 O456 2.294 . S
In455 O457 2.326 . S
In455 O461 2.266 . S
In455 O462 2.326 . S
In455 O463 2.266 . S
In455 O464 2.326 . S
In455 O466 2.294 . S
In455 O467 2.326 . S
O456 In455 2.294 . S
O456 C465 1.240 . S
O457 In455 2.326 . S
O457 C465 1.252 . S
C458 O461 1.252 . S
C458 O462 1.260 . S
C459 O466 1.240 . S
C459 O467 1.252 . S
C460 O463 1.252 . S
C460 O464 1.260 . S
O461 In455 2.266 . S
O461 C458 1.252 . S
O462 In455 2.326 . S
O462 C458 1.260 . S
O463 In455 2.266 . S
O463 C460 1.252 . S
O464 In455 2.326 . S
O464 C460 1.260 . S
C465 O456 1.240 . S
C465 O457 1.252 . S
O466 In455 2.294 . S
O466 C459 1.240 . S
O467 In455 2.326 . S
O467 C459 1.252 . S
In468 O469 2.294 . S
In468 O470 2.326 . S
In468 O474 2.266 . S
In468 O475 2.326 . S
In468 O476 2.266 . S
In468 O477 2.326 . S
In468 O479 2.294 . S
In468 O480 2.326 . S
O469 In468 2.294 . S
O469 C478 1.240 . S
O470 In468 2.326 . S
O470 C478 1.252 . S
C471 O474 1.252 . S
C471 O475 1.260 . S
C472 O479 1.240 . S
C472 O480 1.252 . S
C473 O476 1.252 . S
C473 O477 1.260 . S
O474 In468 2.266 . S
O474 C471 1.252 . S
O475 In468 2.326 . S
O475 C471 1.260 . S
O476 In468 2.266 . S
O476 C473 1.252 . S
O477 In468 2.326 . S
O477 C473 1.260 . S
C478 O469 1.240 . S
C478 O470 1.252 . S
O479 In468 2.294 . S
O479 C472 1.240 . S
O480 In468 2.326 . S
O480 C472 1.252 . S
In481 O482 2.294 . S
In481 O483 2.326 . S
In481 O487 2.266 . S
In481 O488 2.326 . S
In481 O489 2.266 . S
In481 O490 2.326 . S
In481 O492 2.294 . S
In481 O493 2.326 . S
O482 In481 2.294 . S
O482 C491 1.240 . S
O483 In481 2.326 . S
O483 C491 1.252 . S
C484 O487 1.252 . S
C484 O488 1.260 . S
C485 O492 1.240 . S
C485 O493 1.252 . S
C486 O489 1.252 . S
C486 O490 1.260 . S
O487 In481 2.266 . S
O487 C484 1.252 . S
O488 In481 2.326 . S
O488 C484 1.260 . S
O489 In481 2.266 . S
O489 C486 1.252 . S
O490 In481 2.326 . S
O490 C486 1.260 . S
C491 O482 1.240 . S
C491 O483 1.252 . S
O492 In481 2.294 . S
O492 C485 1.240 . S
O493 In481 2.326 . S
O493 C485 1.252 . S
In494 O495 2.294 . S
In494 O496 2.326 . S
In494 O500 2.266 . S
In494 O501 2.326 . S
In494 O502 2.266 . S
In494 O503 2.326 . S
In494 O505 2.294 . S
In494 O506 2.326 . S
O495 In494 2.294 . S
O495 C504 1.240 . S
O496 In494 2.326 . S
O496 C504 1.252 . S
C497 O500 1.252 . S
C497 O501 1.260 . S
C498 O505 1.240 . S
C498 O506 1.252 . S
C499 O502 1.252 . S
C499 O503 1.260 . S
O500 In494 2.266 . S
O500 C497 1.252 . S
O501 In494 2.326 . S
O501 C497 1.260 . S
O502 In494 2.266 . S
O502 C499 1.252 . S
O503 In494 2.326 . S
O503 C499 1.260 . S
C504 O495 1.240 . S
C504 O496 1.252 . S
O505 In494 2.294 . S
O505 C498 1.240 . S
O506 In494 2.326 . S
O506 C498 1.252 . S
In507 O508 2.294 . S
In507 O509 2.326 . S
In507 O513 2.266 . S
In507 O514 2.326 . S
In507 O515 2.266 . S
In507 O516 2.326 . S
In507 O518 2.294 . S
In507 O519 2.326 . S
O508 In507 2.294 . S
O508 C517 1.240 . S
O509 In507 2.326 . S
O509 C517 1.252 . S
C510 O513 1.252 . S
C510 O514 1.260 . S
C511 O518 1.240 . S
C511 O519 1.252 . S
C512 O515 1.252 . S
C512 O516 1.260 . S
O513 In507 2.266 . S
O513 C510 1.252 . S
O514 In507 2.326 . S
O514 C510 1.260 . S
O515 In507 2.266 . S
O515 C512 1.252 . S
O516 In507 2.326 . S
O516 C512 1.260 . S
C517 O508 1.240 . S
C517 O509 1.252 . S
O518 In507 2.294 . S
O518 C511 1.240 . S
O519 In507 2.326 . S
O519 C511 1.252 . S
In520 O521 2.294 . S
In520 O522 2.326 . S
In520 O526 2.266 . S
In520 O527 2.326 . S
In520 O528 2.266 . S
In520 O529 2.326 . S
In520 O531 2.294 . S
In520 O532 2.326 . S
O521 In520 2.294 . S
O521 C530 1.240 . S
O522 In520 2.326 . S
O522 C530 1.252 . S
C523 O526 1.252 . S
C523 O527 1.260 . S
C524 O531 1.240 . S
C524 O532 1.252 . S
C525 O528 1.252 . S
C525 O529 1.260 . S
O526 In520 2.266 . S
O526 C523 1.252 . S
O527 In520 2.326 . S
O527 C523 1.260 . S
O528 In520 2.266 . S
O528 C525 1.252 . S
O529 In520 2.326 . S
O529 C525 1.260 . S
C530 O521 1.240 . S
C530 O522 1.252 . S
O531 In520 2.294 . S
O531 C524 1.240 . S
O532 In520 2.326 . S
O532 C524 1.252 . S
In533 O534 2.294 . S
In533 O535 2.326 . S
In533 O539 2.266 . S
In533 O540 2.326 . S
In533 O541 2.266 . S
In533 O542 2.326 . S
In533 O544 2.294 . S
In533 O545 2.326 . S
O534 In533 2.294 . S
O534 C543 1.240 . S
O535 In533 2.326 . S
O535 C543 1.252 . S
C536 O539 1.252 . S
C536 O540 1.260 . S
C537 O544 1.240 . S
C537 O545 1.252 . S
C538 O541 1.252 . S
C538 O542 1.260 . S
O539 In533 2.266 . S
O539 C536 1.252 . S
O540 In533 2.326 . S
O540 C536 1.260 . S
O541 In533 2.266 . S
O541 C538 1.252 . S
O542 In533 2.326 . S
O542 C538 1.260 . S
C543 O534 1.240 . S
C543 O535 1.252 . S
O544 In533 2.294 . S
O544 C537 1.240 . S
O545 In533 2.326 . S
O545 C537 1.252 . S
In546 O547 2.294 . S
In546 O548 2.326 . S
In546 O552 2.266 . S
In546 O553 2.326 . S
In546 O554 2.266 . S
In546 O555 2.326 . S
In546 O557 2.294 . S
In546 O558 2.326 . S
O547 In546 2.294 . S
O547 C556 1.240 . S
O548 In546 2.326 . S
O548 C556 1.252 . S
C549 O552 1.252 . S
C549 O553 1.260 . S
C550 O557 1.240 . S
C550 O558 1.252 . S
C551 O554 1.252 . S
C551 O555 1.260 . S
O552 In546 2.266 . S
O552 C549 1.252 . S
O553 In546 2.326 . S
O553 C549 1.260 . S
O554 In546 2.266 . S
O554 C551 1.252 . S
O555 In546 2.326 . S
O555 C551 1.260 . S
C556 O547 1.240 . S
C556 O548 1.252 . S
O557 In546 2.294 . S
O557 C550 1.240 . S
O558 In546 2.326 . S
O558 C550 1.252 . S
In559 O560 2.294 . S
In559 O561 2.326 . S
In559 O565 2.266 . S
In559 O566 2.326 . S
In559 O567 2.266 . S
In559 O568 2.326 . S
In559 O570 2.294 . S
In559 O571 2.326 . S
O560 In559 2.294 . S
O560 C569 1.240 . S
O561 In559 2.326 . S
O561 C569 1.252 . S
C562 O565 1.252 . S
C562 O566 1.260 . S
C563 O570 1.240 . S
C563 O571 1.252 . S
C564 O567 1.252 . S
C564 O568 1.260 . S
O565 In559 2.266 . S
O565 C562 1.252 . S
O566 In559 2.326 . S
O566 C562 1.260 . S
O567 In559 2.266 . S
O567 C564 1.252 . S
O568 In559 2.326 . S
O568 C564 1.260 . S
C569 O560 1.240 . S
C569 O561 1.252 . S
O570 In559 2.294 . S
O570 C563 1.240 . S
O571 In559 2.326 . S
O571 C563 1.252 . S
In572 O573 2.294 . S
In572 O574 2.326 . S
In572 O578 2.266 . S
In572 O579 2.326 . S
In572 O580 2.266 . S
In572 O581 2.326 . S
In572 O583 2.294 . S
In572 O584 2.326 . S
O573 In572 2.294 . S
O573 C582 1.240 . S
O574 In572 2.326 . S
O574 C582 1.252 . S
C575 O578 1.252 . S
C575 O579 1.260 . S
C576 O583 1.240 . S
C576 O584 1.252 . S
C577 O580 1.252 . S
C577 O581 1.260 . S
O578 In572 2.266 . S
O578 C575 1.252 . S
O579 In572 2.326 . S
O579 C575 1.260 . S
O580 In572 2.266 . S
O580 C577 1.252 . S
O581 In572 2.326 . S
O581 C577 1.260 . S
C582 O573 1.240 . S
C582 O574 1.252 . S
O583 In572 2.294 . S
O583 C576 1.240 . S
O584 In572 2.326 . S
O584 C576 1.252 . S
In585 O586 2.294 . S
In585 O587 2.326 . S
In585 O591 2.266 . S
In585 O592 2.326 . S
In585 O593 2.266 . S
In585 O594 2.326 . S
In585 O596 2.294 . S
In585 O597 2.326 . S
O586 In585 2.294 . S
O586 C595 1.240 . S
O587 In585 2.326 . S
O587 C595 1.252 . S
C588 O591 1.252 . S
C588 O592 1.260 . S
C589 O596 1.240 . S
C589 O597 1.252 . S
C590 O593 1.252 . S
C590 O594 1.260 . S
O591 In585 2.266 . S
O591 C588 1.252 . S
O592 In585 2.326 . S
O592 C588 1.260 . S
O593 In585 2.266 . S
O593 C590 1.252 . S
O594 In585 2.326 . S
O594 C590 1.260 . S
C595 O586 1.240 . S
C595 O587 1.252 . S
O596 In585 2.294 . S
O596 C589 1.240 . S
O597 In585 2.326 . S
O597 C589 1.252 . S
In598 O599 2.294 . S
In598 O600 2.326 . S
In598 O604 2.266 . S
In598 O605 2.326 . S
In598 O606 2.266 . S
In598 O607 2.326 . S
In598 O609 2.294 . S
In598 O610 2.326 . S
O599 In598 2.294 . S
O599 C608 1.240 . S
O600 In598 2.326 . S
O600 C608 1.252 . S
C601 O604 1.252 . S
C601 O605 1.260 . S
C602 O609 1.240 . S
C602 O610 1.252 . S
C603 O606 1.252 . S
C603 O607 1.260 . S
O604 In598 2.266 . S
O604 C601 1.252 . S
O605 In598 2.326 . S
O605 C601 1.260 . S
O606 In598 2.266 . S
O606 C603 1.252 . S
O607 In598 2.326 . S
O607 C603 1.260 . S
C608 O599 1.240 . S
C608 O600 1.252 . S
O609 In598 2.294 . S
O609 C602 1.240 . S
O610 In598 2.326 . S
O610 C602 1.252 . S
In611 O612 2.294 . S
In611 O613 2.326 . S
In611 O617 2.266 . S
In611 O618 2.326 . S
In611 O619 2.266 . S
In611 O620 2.326 . S
In611 O622 2.294 . S
In611 O623 2.326 . S
O612 In611 2.294 . S
O612 C621 1.240 . S
O613 In611 2.326 . S
O613 C621 1.252 . S
C614 O617 1.252 . S
C614 O618 1.260 . S
C615 O622 1.240 . S
C615 O623 1.252 . S
C616 O619 1.252 . S
C616 O620 1.260 . S
O617 In611 2.266 . S
O617 C614 1.252 . S
O618 In611 2.326 . S
O618 C614 1.260 . S
O619 In611 2.266 . S
O619 C616 1.252 . S
O620 In611 2.326 . S
O620 C616 1.260 . S
C621 O612 1.240 . S
C621 O613 1.252 . S
O622 In611 2.294 . S
O622 C615 1.240 . S
O623 In611 2.326 . S
O623 C615 1.252 . S
C624 C625 1.349 . S
C624 C626 1.327 . S
C624 H649 0.950 . S
C625 C624 1.349 . S
C625 C641 1.349 . S
C626 C624 1.327 . S
C626 C645 1.429 . S
C626 H650 0.950 . S
C627 C644 1.574 . S
C627 C646 1.368 . S
C627 H651 0.949 . S
H628 C632 0.949 . S
C629 C630 1.349 . S
C629 C631 1.327 . S
C629 H652 0.950 . S
C630 C629 1.349 . S
C630 C642 1.349 . S
C631 C629 1.327 . S
C631 C647 1.429 . S
C631 H653 0.950 . S
C632 H628 0.949 . S
C632 C640 1.574 . S
C632 C648 1.368 . S
H633 C641 0.950 . S
H634 C639 0.950 . S
H635 C640 0.949 . S
H636 C642 0.950 . S
H637 C643 0.950 . S
H638 C644 0.949 . S
C639 H634 0.950 . S
C639 C641 1.327 . S
C639 C645 1.429 . S
C640 C632 1.574 . S
C640 H635 0.949 . S
C640 C646 1.368 . S
C641 C625 1.349 . S
C641 H633 0.950 . S
C641 C639 1.327 . S
C642 C630 1.349 . S
C642 H636 0.950 . S
C642 C643 1.327 . S
C643 H637 0.950 . S
C643 C642 1.327 . S
C643 C647 1.429 . S
C644 C627 1.574 . S
C644 H638 0.949 . S
C644 C648 1.368 . S
C645 C626 1.429 . S
C645 C639 1.429 . S
C645 C646 1.523 . S
C646 C627 1.368 . S
C646 C640 1.368 . S
C646 C645 1.523 . S
C647 C631 1.429 . S
C647 C643 1.429 . S
C647 C648 1.523 . S
C648 C632 1.368 . S
C648 C644 1.368 . S
C648 C647 1.523 . S
H649 C624 0.950 . S
H650 C626 0.950 . S
H651 C627 0.949 . S
H652 C629 0.950 . S
H653 C631 0.950 . S
C654 C655 1.349 . S
C654 C656 1.327 . S
C654 H679 0.950 . S
C655 C654 1.349 . S
C655 C671 1.349 . S
C656 C654 1.327 . S
C656 C675 1.429 . S
C656 H680 0.950 . S
C657 C674 1.574 . S
C657 C676 1.368 . S
C657 H681 0.949 . S
H658 C662 0.949 . S
C659 C660 1.349 . S
C659 C661 1.327 . S
C659 H682 0.950 . S
C660 C659 1.349 . S
C660 C672 1.349 . S
C661 C659 1.327 . S
C661 C677 1.429 . S
C661 H683 0.950 . S
C662 H658 0.949 . S
C662 C670 1.574 . S
C662 C678 1.368 . S
H663 C671 0.950 . S
H664 C669 0.950 . S
H665 C670 0.949 . S
H666 C672 0.950 . S
H667 C673 0.950 . S
H668 C674 0.949 . S
C669 H664 0.950 . S
C669 C671 1.327 . S
C669 C675 1.429 . S
C670 C662 1.574 . S
C670 H665 0.949 . S
C670 C676 1.368 . S
C671 C655 1.349 . S
C671 H663 0.950 . S
C671 C669 1.327 . S
C672 C660 1.349 . S
C672 H666 0.950 . S
C672 C673 1.327 . S
C673 H667 0.950 . S
C673 C672 1.327 . S
C673 C677 1.429 . S
C674 C657 1.574 . S
C674 H668 0.949 . S
C674 C678 1.368 . S
C675 C656 1.429 . S
C675 C669 1.429 . S
C675 C676 1.523 . S
C676 C657 1.368 . S
C676 C670 1.368 . S
C676 C675 1.523 . S
C677 C661 1.429 . S
C677 C673 1.429 . S
C677 C678 1.523 . S
C678 C662 1.368 . S
C678 C674 1.368 . S
C678 C677 1.523 . S
H679 C654 0.950 . S
H680 C656 0.950 . S
H681 C657 0.949 . S
H682 C659 0.950 . S
H683 C661 0.950 . S
C684 C685 1.349 . S
C684 C686 1.327 . S
C684 H709 0.950 . S
C685 C684 1.349 . S
C685 C701 1.349 . S
C686 C684 1.327 . S
C686 C705 1.429 . S
C686 H710 0.950 . S
C687 C704 1.574 . S
C687 C706 1.368 . S
C687 H711 0.949 . S
H688 C692 0.949 . S
C689 C690 1.349 . S
C689 C691 1.327 . S
C689 H712 0.950 . S
C690 C689 1.349 . S
C690 C702 1.349 . S
C691 C689 1.327 . S
C691 C707 1.429 . S
C691 H713 0.950 . S
C692 H688 0.949 . S
C692 C700 1.574 . S
C692 C708 1.368 . S
H693 C701 0.950 . S
H694 C699 0.950 . S
H695 C700 0.949 . S
H696 C702 0.950 . S
H697 C703 0.950 . S
H698 C704 0.949 . S
C699 H694 0.950 . S
C699 C701 1.327 . S
C699 C705 1.429 . S
C700 C692 1.574 . S
C700 H695 0.949 . S
C700 C706 1.368 . S
C701 C685 1.349 . S
C701 H693 0.950 . S
C701 C699 1.327 . S
C702 C690 1.349 . S
C702 H696 0.950 . S
C702 C703 1.327 . S
C703 H697 0.950 . S
C703 C702 1.327 . S
C703 C707 1.429 . S
C704 C687 1.574 . S
C704 H698 0.949 . S
C704 C708 1.368 . S
C705 C686 1.429 . S
C705 C699 1.429 . S
C705 C706 1.523 . S
C706 C687 1.368 . S
C706 C700 1.368 . S
C706 C705 1.523 . S
C707 C691 1.429 . S
C707 C703 1.429 . S
C707 C708 1.523 . S
C708 C692 1.368 . S
C708 C704 1.368 . S
C708 C707 1.523 . S
H709 C684 0.950 . S
H710 C686 0.950 . S
H711 C687 0.949 . S
H712 C689 0.950 . S
H713 C691 0.950 . S
C714 C715 1.349 . S
C714 C716 1.327 . S
C714 H739 0.950 . S
C715 C714 1.349 . S
C715 C731 1.349 . S
C716 C714 1.327 . S
C716 C735 1.429 . S
C716 H740 0.950 . S
C717 C734 1.574 . S
C717 C736 1.368 . S
C717 H741 0.949 . S
H718 C722 0.949 . S
C719 C720 1.349 . S
C719 C721 1.327 . S
C719 H742 0.950 . S
C720 C719 1.349 . S
C720 C732 1.349 . S
C721 C719 1.327 . S
C721 C737 1.429 . S
C721 H743 0.950 . S
C722 H718 0.949 . S
C722 C730 1.574 . S
C722 C738 1.368 . S
H723 C731 0.950 . S
H724 C729 0.950 . S
H725 C730 0.949 . S
H726 C732 0.950 . S
H727 C733 0.950 . S
H728 C734 0.949 . S
C729 H724 0.950 . S
C729 C731 1.327 . S
C729 C735 1.429 . S
C730 C722 1.574 . S
C730 H725 0.949 . S
C730 C736 1.368 . S
C731 C715 1.349 . S
C731 H723 0.950 . S
C731 C729 1.327 . S
C732 C720 1.349 . S
C732 H726 0.950 . S
C732 C733 1.327 . S
C733 H727 0.950 . S
C733 C732 1.327 . S
C733 C737 1.429 . S
C734 C717 1.574 . S
C734 H728 0.949 . S
C734 C738 1.368 . S
C735 C716 1.429 . S
C735 C729 1.429 . S
C735 C736 1.523 . S
C736 C717 1.368 . S
C736 C730 1.368 . S
C736 C735 1.523 . S
C737 C721 1.429 . S
C737 C733 1.429 . S
C737 C738 1.523 . S
C738 C722 1.368 . S
C738 C734 1.368 . S
C738 C737 1.523 . S
H739 C714 0.950 . S
H740 C716 0.950 . S
H741 C717 0.949 . S
H742 C719 0.950 . S
H743 C721 0.950 . S
C744 C745 1.349 . S
C744 C746 1.327 . S
C744 H769 0.950 . S
C745 C744 1.349 . S
C745 C761 1.349 . S
C746 C744 1.327 . S
C746 C765 1.429 . S
C746 H770 0.950 . S
C747 C764 1.574 . S
C747 C766 1.368 . S
C747 H771 0.949 . S
H748 C752 0.949 . S
C749 C750 1.349 . S
C749 C751 1.327 . S
C749 H772 0.950 . S
C750 C749 1.349 . S
C750 C762 1.349 . S
C751 C749 1.327 . S
C751 C767 1.429 . S
C751 H773 0.950 . S
C752 H748 0.949 . S
C752 C760 1.574 . S
C752 C768 1.368 . S
H753 C761 0.950 . S
H754 C759 0.950 . S
H755 C760 0.949 . S
H756 C762 0.950 . S
H757 C763 0.950 . S
H758 C764 0.949 . S
C759 H754 0.950 . S
C759 C761 1.327 . S
C759 C765 1.429 . S
C760 C752 1.574 . S
C760 H755 0.949 . S
C760 C766 1.368 . S
C761 C745 1.349 . S
C761 H753 0.950 . S
C761 C759 1.327 . S
C762 C750 1.349 . S
C762 H756 0.950 . S
C762 C763 1.327 . S
C763 H757 0.950 . S
C763 C762 1.327 . S
C763 C767 1.429 . S
C764 C747 1.574 . S
C764 H758 0.949 . S
C764 C768 1.368 . S
C765 C746 1.429 . S
C765 C759 1.429 . S
C765 C766 1.523 . S
C766 C747 1.368 . S
C766 C760 1.368 . S
C766 C765 1.523 . S
C767 C751 1.429 . S
C767 C763 1.429 . S
C767 C768 1.523 . S
C768 C752 1.368 . S
C768 C764 1.368 . S
C768 C767 1.523 . S
H769 C744 0.950 . S
H770 C746 0.950 . S
H771 C747 0.949 . S
H772 C749 0.950 . S
H773 C751 0.950 . S
C774 C775 1.349 . S
C774 C776 1.327 . S
C774 H799 0.950 . S
C775 C774 1.349 . S
C775 C791 1.349 . S
C776 C774 1.327 . S
C776 C795 1.429 . S
C776 H800 0.950 . S
C777 C794 1.574 . S
C777 C796 1.368 . S
C777 H801 0.949 . S
H778 C782 0.949 . S
C779 C780 1.349 . S
C779 C781 1.327 . S
C779 H802 0.950 . S
C780 C779 1.349 . S
C780 C792 1.349 . S
C781 C779 1.327 . S
C781 C797 1.429 . S
C781 H803 0.950 . S
C782 H778 0.949 . S
C782 C790 1.574 . S
C782 C798 1.368 . S
H783 C791 0.950 . S
H784 C789 0.950 . S
H785 C790 0.949 . S
H786 C792 0.950 . S
H787 C793 0.950 . S
H788 C794 0.949 . S
C789 H784 0.950 . S
C789 C791 1.327 . S
C789 C795 1.429 . S
C790 C782 1.574 . S
C790 H785 0.949 . S
C790 C796 1.368 . S
C791 C775 1.349 . S
C791 H783 0.950 . S
C791 C789 1.327 . S
C792 C780 1.349 . S
C792 H786 0.950 . S
C792 C793 1.327 . S
C793 H787 0.950 . S
C793 C792 1.327 . S
C793 C797 1.429 . S
C794 C777 1.574 . S
C794 H788 0.949 . S
C794 C798 1.368 . S
C795 C776 1.429 . S
C795 C789 1.429 . S
C795 C796 1.523 . S
C796 C777 1.368 . S
C796 C790 1.368 . S
C796 C795 1.523 . S
C797 C781 1.429 . S
C797 C793 1.429 . S
C797 C798 1.523 . S
C798 C782 1.368 . S
C798 C794 1.368 . S
C798 C797 1.523 . S
H799 C774 0.950 . S
H800 C776 0.950 . S
H801 C777 0.949 . S
H802 C779 0.950 . S
H803 C781 0.950 . S
C804 C805 1.349 . S
C804 C806 1.327 . S
C804 H829 0.950 . S
C805 C804 1.349 . S
C805 C821 1.349 . S
C806 C804 1.327 . S
C806 C825 1.429 . S
C806 H830 0.950 . S
C807 C824 1.574 . S
C807 C826 1.368 . S
C807 H831 0.949 . S
H808 C812 0.949 . S
C809 C810 1.349 . S
C809 C811 1.327 . S
C809 H832 0.950 . S
C810 C809 1.349 . S
C810 C822 1.349 . S
C811 C809 1.327 . S
C811 C827 1.429 . S
C811 H833 0.950 . S
C812 H808 0.949 . S
C812 C820 1.574 . S
C812 C828 1.368 . S
H813 C821 0.950 . S
H814 C819 0.950 . S
H815 C820 0.949 . S
H816 C822 0.950 . S
H817 C823 0.950 . S
H818 C824 0.949 . S
C819 H814 0.950 . S
C819 C821 1.327 . S
C819 C825 1.429 . S
C820 C812 1.574 . S
C820 H815 0.949 . S
C820 C826 1.368 . S
C821 C805 1.349 . S
C821 H813 0.950 . S
C821 C819 1.327 . S
C822 C810 1.349 . S
C822 H816 0.950 . S
C822 C823 1.327 . S
C823 H817 0.950 . S
C823 C822 1.327 . S
C823 C827 1.429 . S
C824 C807 1.574 . S
C824 H818 0.949 . S
C824 C828 1.368 . S
C825 C806 1.429 . S
C825 C819 1.429 . S
C825 C826 1.523 . S
C826 C807 1.368 . S
C826 C820 1.368 . S
C826 C825 1.523 . S
C827 C811 1.429 . S
C827 C823 1.429 . S
C827 C828 1.523 . S
C828 C812 1.368 . S
C828 C824 1.368 . S
C828 C827 1.523 . S
H829 C804 0.950 . S
H830 C806 0.950 . S
H831 C807 0.949 . S
H832 C809 0.950 . S
H833 C811 0.950 . S
C834 C835 1.349 . S
C834 C836 1.327 . S
C834 H859 0.950 . S
C835 C834 1.349 . S
C835 C851 1.349 . S
C836 C834 1.327 . S
C836 C855 1.429 . S
C836 H860 0.950 . S
C837 C854 1.574 . S
C837 C856 1.368 . S
C837 H861 0.949 . S
H838 C842 0.949 . S
C839 C840 1.349 . S
C839 C841 1.327 . S
C839 H862 0.950 . S
C840 C839 1.349 . S
C840 C852 1.349 . S
C841 C839 1.327 . S
C841 C857 1.429 . S
C841 H863 0.950 . S
C842 H838 0.949 . S
C842 C850 1.574 . S
C842 C858 1.368 . S
H843 C851 0.950 . S
H844 C849 0.950 . S
H845 C850 0.949 . S
H846 C852 0.950 . S
H847 C853 0.950 . S
H848 C854 0.949 . S
C849 H844 0.950 . S
C849 C851 1.327 . S
C849 C855 1.429 . S
C850 C842 1.574 . S
C850 H845 0.949 . S
C850 C856 1.368 . S
C851 C835 1.349 . S
C851 H843 0.950 . S
C851 C849 1.327 . S
C852 C840 1.349 . S
C852 H846 0.950 . S
C852 C853 1.327 . S
C853 H847 0.950 . S
C853 C852 1.327 . S
C853 C857 1.429 . S
C854 C837 1.574 . S
C854 H848 0.949 . S
C854 C858 1.368 . S
C855 C836 1.429 . S
C855 C849 1.429 . S
C855 C856 1.523 . S
C856 C837 1.368 . S
C856 C850 1.368 . S
C856 C855 1.523 . S
C857 C841 1.429 . S
C857 C853 1.429 . S
C857 C858 1.523 . S
C858 C842 1.368 . S
C858 C854 1.368 . S
C858 C857 1.523 . S
H859 C834 0.950 . S
H860 C836 0.950 . S
H861 C837 0.949 . S
H862 C839 0.950 . S
H863 C841 0.950 . S
C864 C865 1.349 . S
C864 C866 1.327 . S
C864 H889 0.950 . S
C865 C864 1.349 . S
C865 C881 1.349 . S
C866 C864 1.327 . S
C866 C885 1.429 . S
C866 H890 0.950 . S
C867 C884 1.574 . S
C867 C886 1.368 . S
C867 H891 0.949 . S
H868 C872 0.949 . S
C869 C870 1.349 . S
C869 C871 1.327 . S
C869 H892 0.950 . S
C870 C869 1.349 . S
C870 C882 1.349 . S
C871 C869 1.327 . S
C871 C887 1.429 . S
C871 H893 0.950 . S
C872 H868 0.949 . S
C872 C880 1.574 . S
C872 C888 1.368 . S
H873 C881 0.950 . S
H874 C879 0.950 . S
H875 C880 0.949 . S
H876 C882 0.950 . S
H877 C883 0.950 . S
H878 C884 0.949 . S
C879 H874 0.950 . S
C879 C881 1.327 . S
C879 C885 1.429 . S
C880 C872 1.574 . S
C880 H875 0.949 . S
C880 C886 1.368 . S
C881 C865 1.349 . S
C881 H873 0.950 . S
C881 C879 1.327 . S
C882 C870 1.349 . S
C882 H876 0.950 . S
C882 C883 1.327 . S
C883 H877 0.950 . S
C883 C882 1.327 . S
C883 C887 1.429 . S
C884 C867 1.574 . S
C884 H878 0.949 . S
C884 C888 1.368 . S
C885 C866 1.429 . S
C885 C879 1.429 . S
C885 C886 1.523 . S
C886 C867 1.368 . S
C886 C880 1.368 . S
C886 C885 1.523 . S
C887 C871 1.429 . S
C887 C883 1.429 . S
C887 C888 1.523 . S
C888 C872 1.368 . S
C888 C884 1.368 . S
C888 C887 1.523 . S
H889 C864 0.950 . S
H890 C866 0.950 . S
H891 C867 0.949 . S
H892 C869 0.950 . S
H893 C871 0.950 . S
C894 C895 1.349 . S
C894 C896 1.327 . S
C894 H919 0.950 . S
C895 C894 1.349 . S
C895 C911 1.349 . S
C896 C894 1.327 . S
C896 C915 1.429 . S
C896 H920 0.950 . S
C897 C914 1.574 . S
C897 C916 1.368 . S
C897 H921 0.949 . S
H898 C902 0.949 . S
C899 C900 1.349 . S
C899 C901 1.327 . S
C899 H922 0.950 . S
C900 C899 1.349 . S
C900 C912 1.349 . S
C901 C899 1.327 . S
C901 C917 1.429 . S
C901 H923 0.950 . S
C902 H898 0.949 . S
C902 C910 1.574 . S
C902 C918 1.368 . S
H903 C911 0.950 . S
H904 C909 0.950 . S
H905 C910 0.949 . S
H906 C912 0.950 . S
H907 C913 0.950 . S
H908 C914 0.949 . S
C909 H904 0.950 . S
C909 C911 1.327 . S
C909 C915 1.429 . S
C910 C902 1.574 . S
C910 H905 0.949 . S
C910 C916 1.368 . S
C911 C895 1.349 . S
C911 H903 0.950 . S
C911 C909 1.327 . S
C912 C900 1.349 . S
C912 H906 0.950 . S
C912 C913 1.327 . S
C913 H907 0.950 . S
C913 C912 1.327 . S
C913 C917 1.429 . S
C914 C897 1.574 . S
C914 H908 0.949 . S
C914 C918 1.368 . S
C915 C896 1.429 . S
C915 C909 1.429 . S
C915 C916 1.523 . S
C916 C897 1.368 . S
C916 C910 1.368 . S
C916 C915 1.523 . S
C917 C901 1.429 . S
C917 C913 1.429 . S
C917 C918 1.523 . S
C918 C902 1.368 . S
C918 C914 1.368 . S
C918 C917 1.523 . S
H919 C894 0.950 . S
H920 C896 0.950 . S
H921 C897 0.949 . S
H922 C899 0.950 . S
H923 C901 0.950 . S
C924 C925 1.349 . S
C924 C926 1.327 . S
C924 H949 0.950 . S
C925 C924 1.349 . S
C925 C941 1.349 . S
C926 C924 1.327 . S
C926 C945 1.429 . S
C926 H950 0.950 . S
C927 C944 1.574 . S
C927 C946 1.368 . S
C927 H951 0.949 . S
H928 C932 0.949 . S
C929 C930 1.349 . S
C929 C931 1.327 . S
C929 H952 0.950 . S
C930 C929 1.349 . S
C930 C942 1.349 . S
C931 C929 1.327 . S
C931 C947 1.429 . S
C931 H953 0.950 . S
C932 H928 0.949 . S
C932 C940 1.574 . S
C932 C948 1.368 . S
H933 C941 0.950 . S
H934 C939 0.950 . S
H935 C940 0.949 . S
H936 C942 0.950 . S
H937 C943 0.950 . S
H938 C944 0.949 . S
C939 H934 0.950 . S
C939 C941 1.327 . S
C939 C945 1.429 . S
C940 C932 1.574 . S
C940 H935 0.949 . S
C940 C946 1.368 . S
C941 C925 1.349 . S
C941 H933 0.950 . S
C941 C939 1.327 . S
C942 C930 1.349 . S
C942 H936 0.950 . S
C942 C943 1.327 . S
C943 H937 0.950 . S
C943 C942 1.327 . S
C943 C947 1.429 . S
C944 C927 1.574 . S
C944 H938 0.949 . S
C944 C948 1.368 . S
C945 C926 1.429 . S
C945 C939 1.429 . S
C945 C946 1.523 . S
C946 C927 1.368 . S
C946 C940 1.368 . S
C946 C945 1.523 . S
C947 C931 1.429 . S
C947 C943 1.429 . S
C947 C948 1.523 . S
C948 C932 1.368 . S
C948 C944 1.368 . S
C948 C947 1.523 . S
H949 C924 0.950 . S
H950 C926 0.950 . S
H951 C927 0.949 . S
H952 C929 0.950 . S
H953 C931 0.950 . S
C954 C955 1.349 . S
C954 C956 1.327 . S
C954 H979 0.950 . S
C955 C954 1.349 . S
C955 C971 1.349 . S
C956 C954 1.327 . S
C956 C975 1.429 . S
C956 H980 0.950 . S
C957 C974 1.574 . S
C957 C976 1.368 . S
C957 H981 0.949 . S
H958 C962 0.949 . S
C959 C960 1.349 . S
C959 C961 1.327 . S
C959 H982 0.950 . S
C960 C959 1.349 . S
C960 C972 1.349 . S
C961 C959 1.327 . S
C961 C977 1.429 . S
C961 H983 0.950 . S
C962 H958 0.949 . S
C962 C970 1.574 . S
C962 C978 1.368 . S
H963 C971 0.950 . S
H964 C969 0.950 . S
H965 C970 0.949 . S
H966 C972 0.950 . S
H967 C973 0.950 . S
H968 C974 0.949 . S
C969 H964 0.950 . S
C969 C971 1.327 . S
C969 C975 1.429 . S
C970 C962 1.574 . S
C970 H965 0.949 . S
C970 C976 1.368 . S
C971 C955 1.349 . S
C971 H963 0.950 . S
C971 C969 1.327 . S
C972 C960 1.349 . S
C972 H966 0.950 . S
C972 C973 1.327 . S
C973 H967 0.950 . S
C973 C972 1.327 . S
C973 C977 1.429 . S
C974 C957 1.574 . S
C974 H968 0.949 . S
C974 C978 1.368 . S
C975 C956 1.429 . S
C975 C969 1.429 . S
C975 C976 1.523 . S
C976 C957 1.368 . S
C976 C970 1.368 . S
C976 C975 1.523 . S
C977 C961 1.429 . S
C977 C973 1.429 . S
C977 C978 1.523 . S
C978 C962 1.368 . S
C978 C974 1.368 . S
C978 C977 1.523 . S
H979 C954 0.950 . S
H980 C956 0.950 . S
H981 C957 0.949 . S
H982 C959 0.950 . S
H983 C961 0.950 . S
C984 C985 1.349 . S
C984 C986 1.327 . S
C984 H1009 0.950 . S
C985 C984 1.349 . S
C985 C1001 1.349 . S
C986 C984 1.327 . S
C986 C1005 1.429 . S
C986 H1010 0.950 . S
C987 C1004 1.574 . S
C987 C1006 1.368 . S
C987 H1011 0.949 . S
H988 C992 0.949 . S
C989 C990 1.349 . S
C989 C991 1.327 . S
C989 H1012 0.950 . S
C990 C989 1.349 . S
C990 C1002 1.349 . S
C991 C989 1.327 . S
C991 C1007 1.429 . S
C991 H1013 0.950 . S
C992 H988 0.949 . S
C992 C1000 1.574 . S
C992 C1008 1.368 . S
H993 C1001 0.950 . S
H994 C999 0.950 . S
H995 C1000 0.949 . S
H996 C1002 0.950 . S
H997 C1003 0.950 . S
H998 C1004 0.949 . S
C999 H994 0.950 . S
C999 C1001 1.327 . S
C999 C1005 1.429 . S
C1000 C992 1.574 . S
C1000 H995 0.949 . S
C1000 C1006 1.368 . S
C1001 C985 1.349 . S
C1001 H993 0.950 . S
C1001 C999 1.327 . S
C1002 C990 1.349 . S
C1002 H996 0.950 . S
C1002 C1003 1.327 . S
C1003 H997 0.950 . S
C1003 C1002 1.327 . S
C1003 C1007 1.429 . S
C1004 C987 1.574 . S
C1004 H998 0.949 . S
C1004 C1008 1.368 . S
C1005 C986 1.429 . S
C1005 C999 1.429 . S
C1005 C1006 1.523 . S
C1006 C987 1.368 . S
C1006 C1000 1.368 . S
C1006 C1005 1.523 . S
C1007 C991 1.429 . S
C1007 C1003 1.429 . S
C1007 C1008 1.523 . S
C1008 C992 1.368 . S
C1008 C1004 1.368 . S
C1008 C1007 1.523 . S
H1009 C984 0.950 . S
H1010 C986 0.950 . S
H1011 C987 0.949 . S
H1012 C989 0.950 . S
H1013 C991 0.950 . S
C1014 C1015 1.349 . S
C1014 C1016 1.327 . S
C1014 H1039 0.950 . S
C1015 C1014 1.349 . S
C1015 C1031 1.349 . S
C1016 C1014 1.327 . S
C1016 C1035 1.429 . S
C1016 H1040 0.950 . S
C1017 C1034 1.574 . S
C1017 C1036 1.368 . S
C1017 H1041 0.949 . S
H1018 C1022 0.949 . S
C1019 C1020 1.349 . S
C1019 C1021 1.327 . S
C1019 H1042 0.950 . S
C1020 C1019 1.349 . S
C1020 C1032 1.349 . S
C1021 C1019 1.327 . S
C1021 C1037 1.429 . S
C1021 H1043 0.950 . S
C1022 H1018 0.949 . S
C1022 C1030 1.574 . S
C1022 C1038 1.368 . S
H1023 C1031 0.950 . S
H1024 C1029 0.950 . S
H1025 C1030 0.949 . S
H1026 C1032 0.950 . S
H1027 C1033 0.950 . S
H1028 C1034 0.949 . S
C1029 H1024 0.950 . S
C1029 C1031 1.327 . S
C1029 C1035 1.429 . S
C1030 C1022 1.574 . S
C1030 H1025 0.949 . S
C1030 C1036 1.368 . S
C1031 C1015 1.349 . S
C1031 H1023 0.950 . S
C1031 C1029 1.327 . S
C1032 C1020 1.349 . S
C1032 H1026 0.950 . S
C1032 C1033 1.327 . S
C1033 H1027 0.950 . S
C1033 C1032 1.327 . S
C1033 C1037 1.429 . S
C1034 C1017 1.574 . S
C1034 H1028 0.949 . S
C1034 C1038 1.368 . S
C1035 C1016 1.429 . S
C1035 C1029 1.429 . S
C1035 C1036 1.523 . S
C1036 C1017 1.368 . S
C1036 C1030 1.368 . S
C1036 C1035 1.523 . S
C1037 C1021 1.429 . S
C1037 C1033 1.429 . S
C1037 C1038 1.523 . S
C1038 C1022 1.368 . S
C1038 C1034 1.368 . S
C1038 C1037 1.523 . S
H1039 C1014 0.950 . S
H1040 C1016 0.950 . S
H1041 C1017 0.949 . S
H1042 C1019 0.950 . S
H1043 C1021 0.950 . S
C1044 C1045 1.349 . S
C1044 C1046 1.327 . S
C1044 H1069 0.950 . S
C1045 C1044 1.349 . S
C1045 C1061 1.349 . S
C1046 C1044 1.327 . S
C1046 C1065 1.429 . S
C1046 H1070 0.950 . S
C1047 C1064 1.574 . S
C1047 C1066 1.368 . S
C1047 H1071 0.949 . S
H1048 C1052 0.949 . S
C1049 C1050 1.349 . S
C1049 C1051 1.327 . S
C1049 H1072 0.950 . S
C1050 C1049 1.349 . S
C1050 C1062 1.349 . S
C1051 C1049 1.327 . S
C1051 C1067 1.429 . S
C1051 H1073 0.950 . S
C1052 H1048 0.949 . S
C1052 C1060 1.574 . S
C1052 C1068 1.368 . S
H1053 C1061 0.950 . S
H1054 C1059 0.950 . S
H1055 C1060 0.949 . S
H1056 C1062 0.950 . S
H1057 C1063 0.950 . S
H1058 C1064 0.949 . S
C1059 H1054 0.950 . S
C1059 C1061 1.327 . S
C1059 C1065 1.429 . S
C1060 C1052 1.574 . S
C1060 H1055 0.949 . S
C1060 C1066 1.368 . S
C1061 C1045 1.349 . S
C1061 H1053 0.950 . S
C1061 C1059 1.327 . S
C1062 C1050 1.349 . S
C1062 H1056 0.950 . S
C1062 C1063 1.327 . S
C1063 H1057 0.950 . S
C1063 C1062 1.327 . S
C1063 C1067 1.429 . S
C1064 C1047 1.574 . S
C1064 H1058 0.949 . S
C1064 C1068 1.368 . S
C1065 C1046 1.429 . S
C1065 C1059 1.429 . S
C1065 C1066 1.523 . S
C1066 C1047 1.368 . S
C1066 C1060 1.368 . S
C1066 C1065 1.523 . S
C1067 C1051 1.429 . S
C1067 C1063 1.429 . S
C1067 C1068 1.523 . S
C1068 C1052 1.368 . S
C1068 C1064 1.368 . S
C1068 C1067 1.523 . S
H1069 C1044 0.950 . S
H1070 C1046 0.950 . S
H1071 C1047 0.949 . S
H1072 C1049 0.950 . S
H1073 C1051 0.950 . S
C1074 C1075 1.349 . S
C1074 C1076 1.327 . S
C1074 H1099 0.950 . S
C1075 C1074 1.349 . S
C1075 C1091 1.349 . S
C1076 C1074 1.327 . S
C1076 C1095 1.429 . S
C1076 H1100 0.950 . S
C1077 C1094 1.574 . S
C1077 C1096 1.368 . S
C1077 H1101 0.949 . S
H1078 C1082 0.949 . S
C1079 C1080 1.349 . S
C1079 C1081 1.327 . S
C1079 H1102 0.950 . S
C1080 C1079 1.349 . S
C1080 C1092 1.349 . S
C1081 C1079 1.327 . S
C1081 C1097 1.429 . S
C1081 H1103 0.950 . S
C1082 H1078 0.949 . S
C1082 C1090 1.574 . S
C1082 C1098 1.368 . S
H1083 C1091 0.950 . S
H1084 C1089 0.950 . S
H1085 C1090 0.949 . S
H1086 C1092 0.950 . S
H1087 C1093 0.950 . S
H1088 C1094 0.949 . S
C1089 H1084 0.950 . S
C1089 C1091 1.327 . S
C1089 C1095 1.429 . S
C1090 C1082 1.574 . S
C1090 H1085 0.949 . S
C1090 C1096 1.368 . S
C1091 C1075 1.349 . S
C1091 H1083 0.950 . S
C1091 C1089 1.327 . S
C1092 C1080 1.349 . S
C1092 H1086 0.950 . S
C1092 C1093 1.327 . S
C1093 H1087 0.950 . S
C1093 C1092 1.327 . S
C1093 C1097 1.429 . S
C1094 C1077 1.574 . S
C1094 H1088 0.949 . S
C1094 C1098 1.368 . S
C1095 C1076 1.429 . S
C1095 C1089 1.429 . S
C1095 C1096 1.523 . S
C1096 C1077 1.368 . S
C1096 C1090 1.368 . S
C1096 C1095 1.523 . S
C1097 C1081 1.429 . S
C1097 C1093 1.429 . S
C1097 C1098 1.523 . S
C1098 C1082 1.368 . S
C1098 C1094 1.368 . S
C1098 C1097 1.523 . S
H1099 C1074 0.950 . S
H1100 C1076 0.950 . S
H1101 C1077 0.949 . S
H1102 C1079 0.950 . S
H1103 C1081 0.950 . S
C1104 C1105 1.349 . S
C1104 C1106 1.327 . S
C1104 H1129 0.950 . S
C1105 C1104 1.349 . S
C1105 C1121 1.349 . S
C1106 C1104 1.327 . S
C1106 C1125 1.429 . S
C1106 H1130 0.950 . S
C1107 C1124 1.574 . S
C1107 C1126 1.368 . S
C1107 H1131 0.949 . S
H1108 C1112 0.949 . S
C1109 C1110 1.349 . S
C1109 C1111 1.327 . S
C1109 H1132 0.950 . S
C1110 C1109 1.349 . S
C1110 C1122 1.349 . S
C1111 C1109 1.327 . S
C1111 C1127 1.429 . S
C1111 H1133 0.950 . S
C1112 H1108 0.949 . S
C1112 C1120 1.574 . S
C1112 C1128 1.368 . S
H1113 C1121 0.950 . S
H1114 C1119 0.950 . S
H1115 C1120 0.949 . S
H1116 C1122 0.950 . S
H1117 C1123 0.950 . S
H1118 C1124 0.949 . S
C1119 H1114 0.950 . S
C1119 C1121 1.327 . S
C1119 C1125 1.429 . S
C1120 C1112 1.574 . S
C1120 H1115 0.949 . S
C1120 C1126 1.368 . S
C1121 C1105 1.349 . S
C1121 H1113 0.950 . S
C1121 C1119 1.327 . S
C1122 C1110 1.349 . S
C1122 H1116 0.950 . S
C1122 C1123 1.327 . S
C1123 H1117 0.950 . S
C1123 C1122 1.327 . S
C1123 C1127 1.429 . S
C1124 C1107 1.574 . S
C1124 H1118 0.949 . S
C1124 C1128 1.368 . S
C1125 C1106 1.429 . S
C1125 C1119 1.429 . S
C1125 C1126 1.523 . S
C1126 C1107 1.368 . S
C1126 C1120 1.368 . S
C1126 C1125 1.523 . S
C1127 C1111 1.429 . S
C1127 C1123 1.429 . S
C1127 C1128 1.523 . S
C1128 C1112 1.368 . S
C1128 C1124 1.368 . S
C1128 C1127 1.523 . S
H1129 C1104 0.950 . S
H1130 C1106 0.950 . S
H1131 C1107 0.949 . S
H1132 C1109 0.950 . S
H1133 C1111 0.950 . S
C1134 C1135 1.349 . S
C1134 C1136 1.327 . S
C1134 H1159 0.950 . S
C1135 C1134 1.349 . S
C1135 C1151 1.349 . S
C1136 C1134 1.327 . S
C1136 C1155 1.429 . S
C1136 H1160 0.950 . S
C1137 C1154 1.574 . S
C1137 C1156 1.368 . S
C1137 H1161 0.949 . S
H1138 C1142 0.949 . S
C1139 C1140 1.349 . S
C1139 C1141 1.327 . S
C1139 H1162 0.950 . S
C1140 C1139 1.349 . S
C1140 C1152 1.349 . S
C1141 C1139 1.327 . S
C1141 C1157 1.429 . S
C1141 H1163 0.950 . S
C1142 H1138 0.949 . S
C1142 C1150 1.574 . S
C1142 C1158 1.368 . S
H1143 C1151 0.950 . S
H1144 C1149 0.950 . S
H1145 C1150 0.949 . S
H1146 C1152 0.950 . S
H1147 C1153 0.950 . S
H1148 C1154 0.949 . S
C1149 H1144 0.950 . S
C1149 C1151 1.327 . S
C1149 C1155 1.429 . S
C1150 C1142 1.574 . S
C1150 H1145 0.949 . S
C1150 C1156 1.368 . S
C1151 C1135 1.349 . S
C1151 H1143 0.950 . S
C1151 C1149 1.327 . S
C1152 C1140 1.349 . S
C1152 H1146 0.950 . S
C1152 C1153 1.327 . S
C1153 H1147 0.950 . S
C1153 C1152 1.327 . S
C1153 C1157 1.429 . S
C1154 C1137 1.574 . S
C1154 H1148 0.949 . S
C1154 C1158 1.368 . S
C1155 C1136 1.429 . S
C1155 C1149 1.429 . S
C1155 C1156 1.523 . S
C1156 C1137 1.368 . S
C1156 C1150 1.368 . S
C1156 C1155 1.523 . S
C1157 C1141 1.429 . S
C1157 C1153 1.429 . S
C1157 C1158 1.523 . S
C1158 C1142 1.368 . S
C1158 C1154 1.368 . S
C1158 C1157 1.523 . S
H1159 C1134 0.950 . S
H1160 C1136 0.950 . S
H1161 C1137 0.949 . S
H1162 C1139 0.950 . S
H1163 C1141 0.950 . S
C1164 C1165 1.349 . S
C1164 C1166 1.327 . S
C1164 H1189 0.950 . S
C1165 C1164 1.349 . S
C1165 C1181 1.349 . S
C1166 C1164 1.327 . S
C1166 C1185 1.429 . S
C1166 H1190 0.950 . S
C1167 C1184 1.574 . S
C1167 C1186 1.368 . S
C1167 H1191 0.949 . S
H1168 C1172 0.949 . S
C1169 C1170 1.349 . S
C1169 C1171 1.327 . S
C1169 H1192 0.950 . S
C1170 C1169 1.349 . S
C1170 C1182 1.349 . S
C1171 C1169 1.327 . S
C1171 C1187 1.429 . S
C1171 H1193 0.950 . S
C1172 H1168 0.949 . S
C1172 C1180 1.574 . S
C1172 C1188 1.368 . S
H1173 C1181 0.950 . S
H1174 C1179 0.950 . S
H1175 C1180 0.949 . S
H1176 C1182 0.950 . S
H1177 C1183 0.950 . S
H1178 C1184 0.949 . S
C1179 H1174 0.950 . S
C1179 C1181 1.327 . S
C1179 C1185 1.429 . S
C1180 C1172 1.574 . S
C1180 H1175 0.949 . S
C1180 C1186 1.368 . S
C1181 C1165 1.349 . S
C1181 H1173 0.950 . S
C1181 C1179 1.327 . S
C1182 C1170 1.349 . S
C1182 H1176 0.950 . S
C1182 C1183 1.327 . S
C1183 H1177 0.950 . S
C1183 C1182 1.327 . S
C1183 C1187 1.429 . S
C1184 C1167 1.574 . S
C1184 H1178 0.949 . S
C1184 C1188 1.368 . S
C1185 C1166 1.429 . S
C1185 C1179 1.429 . S
C1185 C1186 1.523 . S
C1186 C1167 1.368 . S
C1186 C1180 1.368 . S
C1186 C1185 1.523 . S
C1187 C1171 1.429 . S
C1187 C1183 1.429 . S
C1187 C1188 1.523 . S
C1188 C1172 1.368 . S
C1188 C1184 1.368 . S
C1188 C1187 1.523 . S
H1189 C1164 0.950 . S
H1190 C1166 0.950 . S
H1191 C1167 0.949 . S
H1192 C1169 0.950 . S
H1193 C1171 0.950 . S
C1194 C1195 1.349 . S
C1194 C1196 1.327 . S
C1194 H1219 0.950 . S
C1195 C1194 1.349 . S
C1195 C1211 1.349 . S
C1196 C1194 1.327 . S
C1196 C1215 1.429 . S
C1196 H1220 0.950 . S
C1197 C1214 1.574 . S
C1197 C1216 1.368 . S
C1197 H1221 0.949 . S
H1198 C1202 0.949 . S
C1199 C1200 1.349 . S
C1199 C1201 1.327 . S
C1199 H1222 0.950 . S
C1200 C1199 1.349 . S
C1200 C1212 1.349 . S
C1201 C1199 1.327 . S
C1201 C1217 1.429 . S
C1201 H1223 0.950 . S
C1202 H1198 0.949 . S
C1202 C1210 1.574 . S
C1202 C1218 1.368 . S
H1203 C1211 0.950 . S
H1204 C1209 0.950 . S
H1205 C1210 0.949 . S
H1206 C1212 0.950 . S
H1207 C1213 0.950 . S
H1208 C1214 0.949 . S
C1209 H1204 0.950 . S
C1209 C1211 1.327 . S
C1209 C1215 1.429 . S
C1210 C1202 1.574 . S
C1210 H1205 0.949 . S
C1210 C1216 1.368 . S
C1211 C1195 1.349 . S
C1211 H1203 0.950 . S
C1211 C1209 1.327 . S
C1212 C1200 1.349 . S
C1212 H1206 0.950 . S
C1212 C1213 1.327 . S
C1213 H1207 0.950 . S
C1213 C1212 1.327 . S
C1213 C1217 1.429 . S
C1214 C1197 1.574 . S
C1214 H1208 0.949 . S
C1214 C1218 1.368 . S
C1215 C1196 1.429 . S
C1215 C1209 1.429 . S
C1215 C1216 1.523 . S
C1216 C1197 1.368 . S
C1216 C1210 1.368 . S
C1216 C1215 1.523 . S
C1217 C1201 1.429 . S
C1217 C1213 1.429 . S
C1217 C1218 1.523 . S
C1218 C1202 1.368 . S
C1218 C1214 1.368 . S
C1218 C1217 1.523 . S
H1219 C1194 0.950 . S
H1220 C1196 0.950 . S
H1221 C1197 0.949 . S
H1222 C1199 0.950 . S
H1223 C1201 0.950 . S
C1224 C1225 1.349 . S
C1224 C1226 1.327 . S
C1224 H1249 0.950 . S
C1225 C1224 1.349 . S
C1225 C1241 1.349 . S
C1226 C1224 1.327 . S
C1226 C1245 1.429 . S
C1226 H1250 0.950 . S
C1227 C1244 1.574 . S
C1227 C1246 1.368 . S
C1227 H1251 0.949 . S
H1228 C1232 0.949 . S
C1229 C1230 1.349 . S
C1229 C1231 1.327 . S
C1229 H1252 0.950 . S
C1230 C1229 1.349 . S
C1230 C1242 1.349 . S
C1231 C1229 1.327 . S
C1231 C1247 1.429 . S
C1231 H1253 0.950 . S
C1232 H1228 0.949 . S
C1232 C1240 1.574 . S
C1232 C1248 1.368 . S
H1233 C1241 0.950 . S
H1234 C1239 0.950 . S
H1235 C1240 0.949 . S
H1236 C1242 0.950 . S
H1237 C1243 0.950 . S
H1238 C1244 0.949 . S
C1239 H1234 0.950 . S
C1239 C1241 1.327 . S
C1239 C1245 1.429 . S
C1240 C1232 1.574 . S
C1240 H1235 0.949 . S
C1240 C1246 1.368 . S
C1241 C1225 1.349 . S
C1241 H1233 0.950 . S
C1241 C1239 1.327 . S
C1242 C1230 1.349 . S
C1242 H1236 0.950 . S
C1242 C1243 1.327 . S
C1243 H1237 0.950 . S
C1243 C1242 1.327 . S
C1243 C1247 1.429 . S
C1244 C1227 1.574 . S
C1244 H1238 0.949 . S
C1244 C1248 1.368 . S
C1245 C1226 1.429 . S
C1245 C1239 1.429 . S
C1245 C1246 1.523 . S
C1246 C1227 1.368 . S
C1246 C1240 1.368 . S
C1246 C1245 1.523 . S
C1247 C1231 1.429 . S
C1247 C1243 1.429 . S
C1247 C1248 1.523 . S
C1248 C1232 1.368 . S
C1248 C1244 1.368 . S
C1248 C1247 1.523 . S
H1249 C1224 0.950 . S
H1250 C1226 0.950 . S
H1251 C1227 0.949 . S
H1252 C1229 0.950 . S
H1253 C1231 0.950 . S
C1254 C1255 1.349 . S
C1254 C1256 1.327 . S
C1254 H1279 0.950 . S
C1255 C1254 1.349 . S
C1255 C1271 1.349 . S
C1256 C1254 1.327 . S
C1256 C1275 1.429 . S
C1256 H1280 0.950 . S
C1257 C1274 1.574 . S
C1257 C1276 1.368 . S
C1257 H1281 0.949 . S
H1258 C1262 0.949 . S
C1259 C1260 1.349 . S
C1259 C1261 1.327 . S
C1259 H1282 0.950 . S
C1260 C1259 1.349 . S
C1260 C1272 1.349 . S
C1261 C1259 1.327 . S
C1261 C1277 1.429 . S
C1261 H1283 0.950 . S
C1262 H1258 0.949 . S
C1262 C1270 1.574 . S
C1262 C1278 1.368 . S
H1263 C1271 0.950 . S
H1264 C1269 0.950 . S
H1265 C1270 0.949 . S
H1266 C1272 0.950 . S
H1267 C1273 0.950 . S
H1268 C1274 0.949 . S
C1269 H1264 0.950 . S
C1269 C1271 1.327 . S
C1269 C1275 1.429 . S
C1270 C1262 1.574 . S
C1270 H1265 0.949 . S
C1270 C1276 1.368 . S
C1271 C1255 1.349 . S
C1271 H1263 0.950 . S
C1271 C1269 1.327 . S
C1272 C1260 1.349 . S
C1272 H1266 0.950 . S
C1272 C1273 1.327 . S
C1273 H1267 0.950 . S
C1273 C1272 1.327 . S
C1273 C1277 1.429 . S
C1274 C1257 1.574 . S
C1274 H1268 0.949 . S
C1274 C1278 1.368 . S
C1275 C1256 1.429 . S
C1275 C1269 1.429 . S
C1275 C1276 1.523 . S
C1276 C1257 1.368 . S
C1276 C1270 1.368 . S
C1276 C1275 1.523 . S
C1277 C1261 1.429 . S
C1277 C1273 1.429 . S
C1277 C1278 1.523 . S
C1278 C1262 1.368 . S
C1278 C1274 1.368 . S
C1278 C1277 1.523 . S
H1279 C1254 0.950 . S
H1280 C1256 0.950 . S
H1281 C1257 0.949 . S
H1282 C1259 0.950 . S
H1283 C1261 0.950 . S
C1284 C1285 1.349 . S
C1284 C1286 1.327 . S
C1284 H1309 0.950 . S
C1285 C1284 1.349 . S
C1285 C1301 1.349 . S
C1286 C1284 1.327 . S
C1286 C1305 1.429 . S
C1286 H1310 0.950 . S
C1287 C1304 1.574 . S
C1287 C1306 1.368 . S
C1287 H1311 0.949 . S
H1288 C1292 0.949 . S
C1289 C1290 1.349 . S
C1289 C1291 1.327 . S
C1289 H1312 0.950 . S
C1290 C1289 1.349 . S
C1290 C1302 1.349 . S
C1291 C1289 1.327 . S
C1291 C1307 1.429 . S
C1291 H1313 0.950 . S
C1292 H1288 0.949 . S
C1292 C1300 1.574 . S
C1292 C1308 1.368 . S
H1293 C1301 0.950 . S
H1294 C1299 0.950 . S
H1295 C1300 0.949 . S
H1296 C1302 0.950 . S
H1297 C1303 0.950 . S
H1298 C1304 0.949 . S
C1299 H1294 0.950 . S
C1299 C1301 1.327 . S
C1299 C1305 1.429 . S
C1300 C1292 1.574 . S
C1300 H1295 0.949 . S
C1300 C1306 1.368 . S
C1301 C1285 1.349 . S
C1301 H1293 0.950 . S
C1301 C1299 1.327 . S
C1302 C1290 1.349 . S
C1302 H1296 0.950 . S
C1302 C1303 1.327 . S
C1303 H1297 0.950 . S
C1303 C1302 1.327 . S
C1303 C1307 1.429 . S
C1304 C1287 1.574 . S
C1304 H1298 0.949 . S
C1304 C1308 1.368 . S
C1305 C1286 1.429 . S
C1305 C1299 1.429 . S
C1305 C1306 1.523 . S
C1306 C1287 1.368 . S
C1306 C1300 1.368 . S
C1306 C1305 1.523 . S
C1307 C1291 1.429 . S
C1307 C1303 1.429 . S
C1307 C1308 1.523 . S
C1308 C1292 1.368 . S
C1308 C1304 1.368 . S
C1308 C1307 1.523 . S
H1309 C1284 0.950 . S
H1310 C1286 0.950 . S
H1311 C1287 0.949 . S
H1312 C1289 0.950 . S
H1313 C1291 0.950 . S
C1314 C1315 1.349 . S
C1314 C1316 1.327 . S
C1314 H1339 0.950 . S
C1315 C1314 1.349 . S
C1315 C1331 1.349 . S
C1316 C1314 1.327 . S
C1316 C1335 1.429 . S
C1316 H1340 0.950 . S
C1317 C1334 1.574 . S
C1317 C1336 1.368 . S
C1317 H1341 0.949 . S
H1318 C1322 0.949 . S
C1319 C1320 1.349 . S
C1319 C1321 1.327 . S
C1319 H1342 0.950 . S
C1320 C1319 1.349 . S
C1320 C1332 1.349 . S
C1321 C1319 1.327 . S
C1321 C1337 1.429 . S
C1321 H1343 0.950 . S
C1322 H1318 0.949 . S
C1322 C1330 1.574 . S
C1322 C1338 1.368 . S
H1323 C1331 0.950 . S
H1324 C1329 0.950 . S
H1325 C1330 0.949 . S
H1326 C1332 0.950 . S
H1327 C1333 0.950 . S
H1328 C1334 0.949 . S
C1329 H1324 0.950 . S
C1329 C1331 1.327 . S
C1329 C1335 1.429 . S
C1330 C1322 1.574 . S
C1330 H1325 0.949 . S
C1330 C1336 1.368 . S
C1331 C1315 1.349 . S
C1331 H1323 0.950 . S
C1331 C1329 1.327 . S
C1332 C1320 1.349 . S
C1332 H1326 0.950 . S
C1332 C1333 1.327 . S
C1333 H1327 0.950 . S
C1333 C1332 1.327 . S
C1333 C1337 1.429 . S
C1334 C1317 1.574 . S
C1334 H1328 0.949 . S
C1334 C1338 1.368 . S
C1335 C1316 1.429 . S
C1335 C1329 1.429 . S
C1335 C1336 1.523 . S
C1336 C1317 1.368 . S
C1336 C1330 1.368 . S
C1336 C1335 1.523 . S
C1337 C1321 1.429 . S
C1337 C1333 1.429 . S
C1337 C1338 1.523 . S
C1338 C1322 1.368 . S
C1338 C1334 1.368 . S
C1338 C1337 1.523 . S
H1339 C1314 0.950 . S
H1340 C1316 0.950 . S
H1341 C1317 0.949 . S
H1342 C1319 0.950 . S
H1343 C1321 0.950 . S
C1344 C1345 1.349 . S
C1344 C1346 1.327 . S
C1344 H1369 0.950 . S
C1345 C1344 1.349 . S
C1345 C1361 1.349 . S
C1346 C1344 1.327 . S
C1346 C1365 1.429 . S
C1346 H1370 0.950 . S
C1347 C1364 1.574 . S
C1347 C1366 1.368 . S
C1347 H1371 0.949 . S
H1348 C1352 0.949 . S
C1349 C1350 1.349 . S
C1349 C1351 1.327 . S
C1349 H1372 0.950 . S
C1350 C1349 1.349 . S
C1350 C1362 1.349 . S
C1351 C1349 1.327 . S
C1351 C1367 1.429 . S
C1351 H1373 0.950 . S
C1352 H1348 0.949 . S
C1352 C1360 1.574 . S
C1352 C1368 1.368 . S
H1353 C1361 0.950 . S
H1354 C1359 0.950 . S
H1355 C1360 0.949 . S
H1356 C1362 0.950 . S
H1357 C1363 0.950 . S
H1358 C1364 0.949 . S
C1359 H1354 0.950 . S
C1359 C1361 1.327 . S
C1359 C1365 1.429 . S
C1360 C1352 1.574 . S
C1360 H1355 0.949 . S
C1360 C1366 1.368 . S
C1361 C1345 1.349 . S
C1361 H1353 0.950 . S
C1361 C1359 1.327 . S
C1362 C1350 1.349 . S
C1362 H1356 0.950 . S
C1362 C1363 1.327 . S
C1363 H1357 0.950 . S
C1363 C1362 1.327 . S
C1363 C1367 1.429 . S
C1364 C1347 1.574 . S
C1364 H1358 0.949 . S
C1364 C1368 1.368 . S
C1365 C1346 1.429 . S
C1365 C1359 1.429 . S
C1365 C1366 1.523 . S
C1366 C1347 1.368 . S
C1366 C1360 1.368 . S
C1366 C1365 1.523 . S
C1367 C1351 1.429 . S
C1367 C1363 1.429 . S
C1367 C1368 1.523 . S
C1368 C1352 1.368 . S
C1368 C1364 1.368 . S
C1368 C1367 1.523 . S
H1369 C1344 0.950 . S
H1370 C1346 0.950 . S
H1371 C1347 0.949 . S
H1372 C1349 0.950 . S
H1373 C1351 0.950 . S
C1374 C1375 1.349 . S
C1374 C1376 1.327 . S
C1374 H1399 0.950 . S
C1375 C1374 1.349 . S
C1375 C1391 1.349 . S
C1376 C1374 1.327 . S
C1376 C1395 1.429 . S
C1376 H1400 0.950 . S
C1377 C1394 1.574 . S
C1377 C1396 1.368 . S
C1377 H1401 0.949 . S
H1378 C1382 0.949 . S
C1379 C1380 1.349 . S
C1379 C1381 1.327 . S
C1379 H1402 0.950 . S
C1380 C1379 1.349 . S
C1380 C1392 1.349 . S
C1381 C1379 1.327 . S
C1381 C1397 1.429 . S
C1381 H1403 0.950 . S
C1382 H1378 0.949 . S
C1382 C1390 1.574 . S
C1382 C1398 1.368 . S
H1383 C1391 0.950 . S
H1384 C1389 0.950 . S
H1385 C1390 0.949 . S
H1386 C1392 0.950 . S
H1387 C1393 0.950 . S
H1388 C1394 0.949 . S
C1389 H1384 0.950 . S
C1389 C1391 1.327 . S
C1389 C1395 1.429 . S
C1390 C1382 1.574 . S
C1390 H1385 0.949 . S
C1390 C1396 1.368 . S
C1391 C1375 1.349 . S
C1391 H1383 0.950 . S
C1391 C1389 1.327 . S
C1392 C1380 1.349 . S
C1392 H1386 0.950 . S
C1392 C1393 1.327 . S
C1393 H1387 0.950 . S
C1393 C1392 1.327 . S
C1393 C1397 1.429 . S
C1394 C1377 1.574 . S
C1394 H1388 0.949 . S
C1394 C1398 1.368 . S
C1395 C1376 1.429 . S
C1395 C1389 1.429 . S
C1395 C1396 1.523 . S
C1396 C1377 1.368 . S
C1396 C1390 1.368 . S
C1396 C1395 1.523 . S
C1397 C1381 1.429 . S
C1397 C1393 1.429 . S
C1397 C1398 1.523 . S
C1398 C1382 1.368 . S
C1398 C1394 1.368 . S
C1398 C1397 1.523 . S
H1399 C1374 0.950 . S
H1400 C1376 0.950 . S
H1401 C1377 0.949 . S
H1402 C1379 0.950 . S
H1403 C1381 0.950 . S
C1404 C1405 1.349 . S
C1404 C1406 1.327 . S
C1404 H1429 0.950 . S
C1405 C1404 1.349 . S
C1405 C1421 1.349 . S
C1406 C1404 1.327 . S
C1406 C1425 1.429 . S
C1406 H1430 0.950 . S
C1407 C1424 1.574 . S
C1407 C1426 1.368 . S
C1407 H1431 0.949 . S
H1408 C1412 0.949 . S
C1409 C1410 1.349 . S
C1409 C1411 1.327 . S
C1409 H1432 0.950 . S
C1410 C1409 1.349 . S
C1410 C1422 1.349 . S
C1411 C1409 1.327 . S
C1411 C1427 1.429 . S
C1411 H1433 0.950 . S
C1412 H1408 0.949 . S
C1412 C1420 1.574 . S
C1412 C1428 1.368 . S
H1413 C1421 0.950 . S
H1414 C1419 0.950 . S
H1415 C1420 0.949 . S
H1416 C1422 0.950 . S
H1417 C1423 0.950 . S
H1418 C1424 0.949 . S
C1419 H1414 0.950 . S
C1419 C1421 1.327 . S
C1419 C1425 1.429 . S
C1420 C1412 1.574 . S
C1420 H1415 0.949 . S
C1420 C1426 1.368 . S
C1421 C1405 1.349 . S
C1421 H1413 0.950 . S
C1421 C1419 1.327 . S
C1422 C1410 1.349 . S
C1422 H1416 0.950 . S
C1422 C1423 1.327 . S
C1423 H1417 0.950 . S
C1423 C1422 1.327 . S
C1423 C1427 1.429 . S
C1424 C1407 1.574 . S
C1424 H1418 0.949 . S
C1424 C1428 1.368 . S
C1425 C1406 1.429 . S
C1425 C1419 1.429 . S
C1425 C1426 1.523 . S
C1426 C1407 1.368 . S
C1426 C1420 1.368 . S
C1426 C1425 1.523 . S
C1427 C1411 1.429 . S
C1427 C1423 1.429 . S
C1427 C1428 1.523 . S
C1428 C1412 1.368 . S
C1428 C1424 1.368 . S
C1428 C1427 1.523 . S
H1429 C1404 0.950 . S
H1430 C1406 0.950 . S
H1431 C1407 0.949 . S
H1432 C1409 0.950 . S
H1433 C1411 0.950 . S
C1434 C1435 1.349 . S
C1434 C1436 1.327 . S
C1434 H1459 0.950 . S
C1435 C1434 1.349 . S
C1435 C1451 1.349 . S
C1436 C1434 1.327 . S
C1436 C1455 1.429 . S
C1436 H1460 0.950 . S
C1437 C1454 1.574 . S
C1437 C1456 1.368 . S
C1437 H1461 0.949 . S
H1438 C1442 0.949 . S
C1439 C1440 1.349 . S
C1439 C1441 1.327 . S
C1439 H1462 0.950 . S
C1440 C1439 1.349 . S
C1440 C1452 1.349 . S
C1441 C1439 1.327 . S
C1441 C1457 1.429 . S
C1441 H1463 0.950 . S
C1442 H1438 0.949 . S
C1442 C1450 1.574 . S
C1442 C1458 1.368 . S
H1443 C1451 0.950 . S
H1444 C1449 0.950 . S
H1445 C1450 0.949 . S
H1446 C1452 0.950 . S
H1447 C1453 0.950 . S
H1448 C1454 0.949 . S
C1449 H1444 0.950 . S
C1449 C1451 1.327 . S
C1449 C1455 1.429 . S
C1450 C1442 1.574 . S
C1450 H1445 0.949 . S
C1450 C1456 1.368 . S
C1451 C1435 1.349 . S
C1451 H1443 0.950 . S
C1451 C1449 1.327 . S
C1452 C1440 1.349 . S
C1452 H1446 0.950 . S
C1452 C1453 1.327 . S
C1453 H1447 0.950 . S
C1453 C1452 1.327 . S
C1453 C1457 1.429 . S
C1454 C1437 1.574 . S
C1454 H1448 0.949 . S
C1454 C1458 1.368 . S
C1455 C1436 1.429 . S
C1455 C1449 1.429 . S
C1455 C1456 1.523 . S
C1456 C1437 1.368 . S
C1456 C1450 1.368 . S
C1456 C1455 1.523 . S
C1457 C1441 1.429 . S
C1457 C1453 1.429 . S
C1457 C1458 1.523 . S
C1458 C1442 1.368 . S
C1458 C1454 1.368 . S
C1458 C1457 1.523 . S
H1459 C1434 0.950 . S
H1460 C1436 0.950 . S
H1461 C1437 0.949 . S
H1462 C1439 0.950 . S
H1463 C1441 0.950 . S
C1464 C1465 1.349 . S
C1464 C1466 1.327 . S
C1464 H1489 0.950 . S
C1465 C1464 1.349 . S
C1465 C1481 1.349 . S
C1466 C1464 1.327 . S
C1466 C1485 1.429 . S
C1466 H1490 0.950 . S
C1467 C1484 1.574 . S
C1467 C1486 1.368 . S
C1467 H1491 0.949 . S
H1468 C1472 0.949 . S
C1469 C1470 1.349 . S
C1469 C1471 1.327 . S
C1469 H1492 0.950 . S
C1470 C1469 1.349 . S
C1470 C1482 1.349 . S
C1471 C1469 1.327 . S
C1471 C1487 1.429 . S
C1471 H1493 0.950 . S
C1472 H1468 0.949 . S
C1472 C1480 1.574 . S
C1472 C1488 1.368 . S
H1473 C1481 0.950 . S
H1474 C1479 0.950 . S
H1475 C1480 0.949 . S
H1476 C1482 0.950 . S
H1477 C1483 0.950 . S
H1478 C1484 0.949 . S
C1479 H1474 0.950 . S
C1479 C1481 1.327 . S
C1479 C1485 1.429 . S
C1480 C1472 1.574 . S
C1480 H1475 0.949 . S
C1480 C1486 1.368 . S
C1481 C1465 1.349 . S
C1481 H1473 0.950 . S
C1481 C1479 1.327 . S
C1482 C1470 1.349 . S
C1482 H1476 0.950 . S
C1482 C1483 1.327 . S
C1483 H1477 0.950 . S
C1483 C1482 1.327 . S
C1483 C1487 1.429 . S
C1484 C1467 1.574 . S
C1484 H1478 0.949 . S
C1484 C1488 1.368 . S
C1485 C1466 1.429 . S
C1485 C1479 1.429 . S
C1485 C1486 1.523 . S
C1486 C1467 1.368 . S
C1486 C1480 1.368 . S
C1486 C1485 1.523 . S
C1487 C1471 1.429 . S
C1487 C1483 1.429 . S
C1487 C1488 1.523 . S
C1488 C1472 1.368 . S
C1488 C1484 1.368 . S
C1488 C1487 1.523 . S
H1489 C1464 0.950 . S
H1490 C1466 0.950 . S
H1491 C1467 0.949 . S
H1492 C1469 0.950 . S
H1493 C1471 0.950 . S
C1494 C1495 1.349 . S
C1494 C1496 1.327 . S
C1494 H1519 0.950 . S
C1495 C1494 1.349 . S
C1495 C1511 1.349 . S
C1496 C1494 1.327 . S
C1496 C1515 1.429 . S
C1496 H1520 0.950 . S
C1497 C1514 1.574 . S
C1497 C1516 1.368 . S
C1497 H1521 0.949 . S
H1498 C1502 0.949 . S
C1499 C1500 1.349 . S
C1499 C1501 1.327 . S
C1499 H1522 0.950 . S
C1500 C1499 1.349 . S
C1500 C1512 1.349 . S
C1501 C1499 1.327 . S
C1501 C1517 1.429 . S
C1501 H1523 0.950 . S
C1502 H1498 0.949 . S
C1502 C1510 1.574 . S
C1502 C1518 1.368 . S
H1503 C1511 0.950 . S
H1504 C1509 0.950 . S
H1505 C1510 0.949 . S
H1506 C1512 0.950 . S
H1507 C1513 0.950 . S
H1508 C1514 0.949 . S
C1509 H1504 0.950 . S
C1509 C1511 1.327 . S
C1509 C1515 1.429 . S
C1510 C1502 1.574 . S
C1510 H1505 0.949 . S
C1510 C1516 1.368 . S
C1511 C1495 1.349 . S
C1511 H1503 0.950 . S
C1511 C1509 1.327 . S
C1512 C1500 1.349 . S
C1512 H1506 0.950 . S
C1512 C1513 1.327 . S
C1513 H1507 0.950 . S
C1513 C1512 1.327 . S
C1513 C1517 1.429 . S
C1514 C1497 1.574 . S
C1514 H1508 0.949 . S
C1514 C1518 1.368 . S
C1515 C1496 1.429 . S
C1515 C1509 1.429 . S
C1515 C1516 1.523 . S
C1516 C1497 1.368 . S
C1516 C1510 1.368 . S
C1516 C1515 1.523 . S
C1517 C1501 1.429 . S
C1517 C1513 1.429 . S
C1517 C1518 1.523 . S
C1518 C1502 1.368 . S
C1518 C1514 1.368 . S
C1518 C1517 1.523 . S
H1519 C1494 0.950 . S
H1520 C1496 0.950 . S
H1521 C1497 0.949 . S
H1522 C1499 0.950 . S
H1523 C1501 0.950 . S
C1524 C1525 1.349 . S
C1524 C1526 1.327 . S
C1524 H1549 0.950 . S
C1525 C1524 1.349 . S
C1525 C1541 1.349 . S
C1526 C1524 1.327 . S
C1526 C1545 1.429 . S
C1526 H1550 0.950 . S
C1527 C1544 1.574 . S
C1527 C1546 1.368 . S
C1527 H1551 0.949 . S
H1528 C1532 0.949 . S
C1529 C1530 1.349 . S
C1529 C1531 1.327 . S
C1529 H1552 0.950 . S
C1530 C1529 1.349 . S
C1530 C1542 1.349 . S
C1531 C1529 1.327 . S
C1531 C1547 1.429 . S
C1531 H1553 0.950 . S
C1532 H1528 0.949 . S
C1532 C1540 1.574 . S
C1532 C1548 1.368 . S
H1533 C1541 0.950 . S
H1534 C1539 0.950 . S
H1535 C1540 0.949 . S
H1536 C1542 0.950 . S
H1537 C1543 0.950 . S
H1538 C1544 0.949 . S
C1539 H1534 0.950 . S
C1539 C1541 1.327 . S
C1539 C1545 1.429 . S
C1540 C1532 1.574 . S
C1540 H1535 0.949 . S
C1540 C1546 1.368 . S
C1541 C1525 1.349 . S
C1541 H1533 0.950 . S
C1541 C1539 1.327 . S
C1542 C1530 1.349 . S
C1542 H1536 0.950 . S
C1542 C1543 1.327 . S
C1543 H1537 0.950 . S
C1543 C1542 1.327 . S
C1543 C1547 1.429 . S
C1544 C1527 1.574 . S
C1544 H1538 0.949 . S
C1544 C1548 1.368 . S
C1545 C1526 1.429 . S
C1545 C1539 1.429 . S
C1545 C1546 1.523 . S
C1546 C1527 1.368 . S
C1546 C1540 1.368 . S
C1546 C1545 1.523 . S
C1547 C1531 1.429 . S
C1547 C1543 1.429 . S
C1547 C1548 1.523 . S
C1548 C1532 1.368 . S
C1548 C1544 1.368 . S
C1548 C1547 1.523 . S
H1549 C1524 0.950 . S
H1550 C1526 0.950 . S
H1551 C1527 0.949 . S
H1552 C1529 0.950 . S
H1553 C1531 0.950 . S
C1554 C1555 1.349 . S
C1554 C1556 1.327 . S
C1554 H1579 0.950 . S
C1555 C1554 1.349 . S
C1555 C1571 1.349 . S
C1556 C1554 1.327 . S
C1556 C1575 1.429 . S
C1556 H1580 0.950 . S
C1557 C1574 1.574 . S
C1557 C1576 1.368 . S
C1557 H1581 0.949 . S
H1558 C1562 0.949 . S
C1559 C1560 1.349 . S
C1559 C1561 1.327 . S
C1559 H1582 0.950 . S
C1560 C1559 1.349 . S
C1560 C1572 1.349 . S
C1561 C1559 1.327 . S
C1561 C1577 1.429 . S
C1561 H1583 0.950 . S
C1562 H1558 0.949 . S
C1562 C1570 1.574 . S
C1562 C1578 1.368 . S
H1563 C1571 0.950 . S
H1564 C1569 0.950 . S
H1565 C1570 0.949 . S
H1566 C1572 0.950 . S
H1567 C1573 0.950 . S
H1568 C1574 0.949 . S
C1569 H1564 0.950 . S
C1569 C1571 1.327 . S
C1569 C1575 1.429 . S
C1570 C1562 1.574 . S
C1570 H1565 0.949 . S
C1570 C1576 1.368 . S
C1571 C1555 1.349 . S
C1571 H1563 0.950 . S
C1571 C1569 1.327 . S
C1572 C1560 1.349 . S
C1572 H1566 0.950 . S
C1572 C1573 1.327 . S
C1573 H1567 0.950 . S
C1573 C1572 1.327 . S
C1573 C1577 1.429 . S
C1574 C1557 1.574 . S
C1574 H1568 0.949 . S
C1574 C1578 1.368 . S
C1575 C1556 1.429 . S
C1575 C1569 1.429 . S
C1575 C1576 1.523 . S
C1576 C1557 1.368 . S
C1576 C1570 1.368 . S
C1576 C1575 1.523 . S
C1577 C1561 1.429 . S
C1577 C1573 1.429 . S
C1577 C1578 1.523 . S
C1578 C1562 1.368 . S
C1578 C1574 1.368 . S
C1578 C1577 1.523 . S
H1579 C1554 0.950 . S
H1580 C1556 0.950 . S
H1581 C1557 0.949 . S
H1582 C1559 0.950 . S
H1583 C1561 0.950 . S
C1584 C1585 1.349 . S
C1584 C1586 1.327 . S
C1584 H1609 0.950 . S
C1585 C1584 1.349 . S
C1585 C1601 1.349 . S
C1586 C1584 1.327 . S
C1586 C1605 1.429 . S
C1586 H1610 0.950 . S
C1587 C1604 1.574 . S
C1587 C1606 1.368 . S
C1587 H1611 0.949 . S
H1588 C1592 0.949 . S
C1589 C1590 1.349 . S
C1589 C1591 1.327 . S
C1589 H1612 0.950 . S
C1590 C1589 1.349 . S
C1590 C1602 1.349 . S
C1591 C1589 1.327 . S
C1591 C1607 1.429 . S
C1591 H1613 0.950 . S
C1592 H1588 0.949 . S
C1592 C1600 1.574 . S
C1592 C1608 1.368 . S
H1593 C1601 0.950 . S
H1594 C1599 0.950 . S
H1595 C1600 0.949 . S
H1596 C1602 0.950 . S
H1597 C1603 0.950 . S
H1598 C1604 0.949 . S
C1599 H1594 0.950 . S
C1599 C1601 1.327 . S
C1599 C1605 1.429 . S
C1600 C1592 1.574 . S
C1600 H1595 0.949 . S
C1600 C1606 1.368 . S
C1601 C1585 1.349 . S
C1601 H1593 0.950 . S
C1601 C1599 1.327 . S
C1602 C1590 1.349 . S
C1602 H1596 0.950 . S
C1602 C1603 1.327 . S
C1603 H1597 0.950 . S
C1603 C1602 1.327 . S
C1603 C1607 1.429 . S
C1604 C1587 1.574 . S
C1604 H1598 0.949 . S
C1604 C1608 1.368 . S
C1605 C1586 1.429 . S
C1605 C1599 1.429 . S
C1605 C1606 1.523 . S
C1606 C1587 1.368 . S
C1606 C1600 1.368 . S
C1606 C1605 1.523 . S
C1607 C1591 1.429 . S
C1607 C1603 1.429 . S
C1607 C1608 1.523 . S
C1608 C1592 1.368 . S
C1608 C1604 1.368 . S
C1608 C1607 1.523 . S
H1609 C1584 0.950 . S
H1610 C1586 0.950 . S
H1611 C1587 0.949 . S
H1612 C1589 0.950 . S
H1613 C1591 0.950 . S
C1614 C1615 1.349 . S
C1614 C1616 1.327 . S
C1614 H1639 0.950 . S
C1615 C1614 1.349 . S
C1615 C1631 1.349 . S
C1616 C1614 1.327 . S
C1616 C1635 1.429 . S
C1616 H1640 0.950 . S
C1617 C1634 1.574 . S
C1617 C1636 1.368 . S
C1617 H1641 0.949 . S
H1618 C1622 0.949 . S
C1619 C1620 1.349 . S
C1619 C1621 1.327 . S
C1619 H1642 0.950 . S
C1620 C1619 1.349 . S
C1620 C1632 1.349 . S
C1621 C1619 1.327 . S
C1621 C1637 1.429 . S
C1621 H1643 0.950 . S
C1622 H1618 0.949 . S
C1622 C1630 1.574 . S
C1622 C1638 1.368 . S
H1623 C1631 0.950 . S
H1624 C1629 0.950 . S
H1625 C1630 0.949 . S
H1626 C1632 0.950 . S
H1627 C1633 0.950 . S
H1628 C1634 0.949 . S
C1629 H1624 0.950 . S
C1629 C1631 1.327 . S
C1629 C1635 1.429 . S
C1630 C1622 1.574 . S
C1630 H1625 0.949 . S
C1630 C1636 1.368 . S
C1631 C1615 1.349 . S
C1631 H1623 0.950 . S
C1631 C1629 1.327 . S
C1632 C1620 1.349 . S
C1632 H1626 0.950 . S
C1632 C1633 1.327 . S
C1633 H1627 0.950 . S
C1633 C1632 1.327 . S
C1633 C1637 1.429 . S
C1634 C1617 1.574 . S
C1634 H1628 0.949 . S
C1634 C1638 1.368 . S
C1635 C1616 1.429 . S
C1635 C1629 1.429 . S
C1635 C1636 1.523 . S
C1636 C1617 1.368 . S
C1636 C1630 1.368 . S
C1636 C1635 1.523 . S
C1637 C1621 1.429 . S
C1637 C1633 1.429 . S
C1637 C1638 1.523 . S
C1638 C1622 1.368 . S
C1638 C1634 1.368 . S
C1638 C1637 1.523 . S
H1639 C1614 0.950 . S
H1640 C1616 0.950 . S
H1641 C1617 0.949 . S
H1642 C1619 0.950 . S
H1643 C1621 0.950 . S
C1644 C1645 1.349 . S
C1644 C1646 1.327 . S
C1644 H1669 0.950 . S
C1645 C1644 1.349 . S
C1645 C1661 1.349 . S
C1646 C1644 1.327 . S
C1646 C1665 1.429 . S
C1646 H1670 0.950 . S
C1647 C1664 1.574 . S
C1647 C1666 1.368 . S
C1647 H1671 0.949 . S
H1648 C1652 0.949 . S
C1649 C1650 1.349 . S
C1649 C1651 1.327 . S
C1649 H1672 0.950 . S
C1650 C1649 1.349 . S
C1650 C1662 1.349 . S
C1651 C1649 1.327 . S
C1651 C1667 1.429 . S
C1651 H1673 0.950 . S
C1652 H1648 0.949 . S
C1652 C1660 1.574 . S
C1652 C1668 1.368 . S
H1653 C1661 0.950 . S
H1654 C1659 0.950 . S
H1655 C1660 0.949 . S
H1656 C1662 0.950 . S
H1657 C1663 0.950 . S
H1658 C1664 0.949 . S
C1659 H1654 0.950 . S
C1659 C1661 1.327 . S
C1659 C1665 1.429 . S
C1660 C1652 1.574 . S
C1660 H1655 0.949 . S
C1660 C1666 1.368 . S
C1661 C1645 1.349 . S
C1661 H1653 0.950 . S
C1661 C1659 1.327 . S
C1662 C1650 1.349 . S
C1662 H1656 0.950 . S
C1662 C1663 1.327 . S
C1663 H1657 0.950 . S
C1663 C1662 1.327 . S
C1663 C1667 1.429 . S
C1664 C1647 1.574 . S
C1664 H1658 0.949 . S
C1664 C1668 1.368 . S
C1665 C1646 1.429 . S
C1665 C1659 1.429 . S
C1665 C1666 1.523 . S
C1666 C1647 1.368 . S
C1666 C1660 1.368 . S
C1666 C1665 1.523 . S
C1667 C1651 1.429 . S
C1667 C1663 1.429 . S
C1667 C1668 1.523 . S
C1668 C1652 1.368 . S
C1668 C1664 1.368 . S
C1668 C1667 1.523 . S
H1669 C1644 0.950 . S
H1670 C1646 0.950 . S
H1671 C1647 0.949 . S
H1672 C1649 0.950 . S
H1673 C1651 0.950 . S
C1674 C1675 1.349 . S
C1674 C1676 1.327 . S
C1674 H1699 0.950 . S
C1675 C1674 1.349 . S
C1675 C1691 1.349 . S
C1676 C1674 1.327 . S
C1676 C1695 1.429 . S
C1676 H1700 0.950 . S
C1677 C1694 1.574 . S
C1677 C1696 1.368 . S
C1677 H1701 0.949 . S
H1678 C1682 0.949 . S
C1679 C1680 1.349 . S
C1679 C1681 1.327 . S
C1679 H1702 0.950 . S
C1680 C1679 1.349 . S
C1680 C1692 1.349 . S
C1681 C1679 1.327 . S
C1681 C1697 1.429 . S
C1681 H1703 0.950 . S
C1682 H1678 0.949 . S
C1682 C1690 1.574 . S
C1682 C1698 1.368 . S
H1683 C1691 0.950 . S
H1684 C1689 0.950 . S
H1685 C1690 0.949 . S
H1686 C1692 0.950 . S
H1687 C1693 0.950 . S
H1688 C1694 0.949 . S
C1689 H1684 0.950 . S
C1689 C1691 1.327 . S
C1689 C1695 1.429 . S
C1690 C1682 1.574 . S
C1690 H1685 0.949 . S
C1690 C1696 1.368 . S
C1691 C1675 1.349 . S
C1691 H1683 0.950 . S
C1691 C1689 1.327 . S
C1692 C1680 1.349 . S
C1692 H1686 0.950 . S
C1692 C1693 1.327 . S
C1693 H1687 0.950 . S
C1693 C1692 1.327 . S
C1693 C1697 1.429 . S
C1694 C1677 1.574 . S
C1694 H1688 0.949 . S
C1694 C1698 1.368 . S
C1695 C1676 1.429 . S
C1695 C1689 1.429 . S
C1695 C1696 1.523 . S
C1696 C1677 1.368 . S
C1696 C1690 1.368 . S
C1696 C1695 1.523 . S
C1697 C1681 1.429 . S
C1697 C1693 1.429 . S
C1697 C1698 1.523 . S
C1698 C1682 1.368 . S
C1698 C1694 1.368 . S
C1698 C1697 1.523 . S
H1699 C1674 0.950 . S
H1700 C1676 0.950 . S
H1701 C1677 0.949 . S
H1702 C1679 0.950 . S
H1703 C1681 0.950 . S
C1704 C1705 1.349 . S
C1704 C1706 1.327 . S
C1704 H1729 0.950 . S
C1705 C1704 1.349 . S
C1705 C1721 1.349 . S
C1706 C1704 1.327 . S
C1706 C1725 1.429 . S
C1706 H1730 0.950 . S
C1707 C1724 1.574 . S
C1707 C1726 1.368 . S
C1707 H1731 0.949 . S
H1708 C1712 0.949 . S
C1709 C1710 1.349 . S
C1709 C1711 1.327 . S
C1709 H1732 0.950 . S
C1710 C1709 1.349 . S
C1710 C1722 1.349 . S
C1711 C1709 1.327 . S
C1711 C1727 1.429 . S
C1711 H1733 0.950 . S
C1712 H1708 0.949 . S
C1712 C1720 1.574 . S
C1712 C1728 1.368 . S
H1713 C1721 0.950 . S
H1714 C1719 0.950 . S
H1715 C1720 0.949 . S
H1716 C1722 0.950 . S
H1717 C1723 0.950 . S
H1718 C1724 0.949 . S
C1719 H1714 0.950 . S
C1719 C1721 1.327 . S
C1719 C1725 1.429 . S
C1720 C1712 1.574 . S
C1720 H1715 0.949 . S
C1720 C1726 1.368 . S
C1721 C1705 1.349 . S
C1721 H1713 0.950 . S
C1721 C1719 1.327 . S
C1722 C1710 1.349 . S
C1722 H1716 0.950 . S
C1722 C1723 1.327 . S
C1723 H1717 0.950 . S
C1723 C1722 1.327 . S
C1723 C1727 1.429 . S
C1724 C1707 1.574 . S
C1724 H1718 0.949 . S
C1724 C1728 1.368 . S
C1725 C1706 1.429 . S
C1725 C1719 1.429 . S
C1725 C1726 1.523 . S
C1726 C1707 1.368 . S
C1726 C1720 1.368 . S
C1726 C1725 1.523 . S
C1727 C1711 1.429 . S
C1727 C1723 1.429 . S
C1727 C1728 1.523 . S
C1728 C1712 1.368 . S
C1728 C1724 1.368 . S
C1728 C1727 1.523 . S
H1729 C1704 0.950 . S
H1730 C1706 0.950 . S
H1731 C1707 0.949 . S
H1732 C1709 0.950 . S
H1733 C1711 0.950 . S
C1734 C1735 1.349 . S
C1734 C1736 1.327 . S
C1734 H1759 0.950 . S
C1735 C1734 1.349 . S
C1735 C1751 1.349 . S
C1736 C1734 1.327 . S
C1736 C1755 1.429 . S
C1736 H1760 0.950 . S
C1737 C1754 1.574 . S
C1737 C1756 1.368 . S
C1737 H1761 0.949 . S
H1738 C1742 0.949 . S
C1739 C1740 1.349 . S
C1739 C1741 1.327 . S
C1739 H1762 0.950 . S
C1740 C1739 1.349 . S
C1740 C1752 1.349 . S
C1741 C1739 1.327 . S
C1741 C1757 1.429 . S
C1741 H1763 0.950 . S
C1742 H1738 0.949 . S
C1742 C1750 1.574 . S
C1742 C1758 1.368 . S
H1743 C1751 0.950 . S
H1744 C1749 0.950 . S
H1745 C1750 0.949 . S
H1746 C1752 0.950 . S
H1747 C1753 0.950 . S
H1748 C1754 0.949 . S
C1749 H1744 0.950 . S
C1749 C1751 1.327 . S
C1749 C1755 1.429 . S
C1750 C1742 1.574 . S
C1750 H1745 0.949 . S
C1750 C1756 1.368 . S
C1751 C1735 1.349 . S
C1751 H1743 0.950 . S
C1751 C1749 1.327 . S
C1752 C1740 1.349 . S
C1752 H1746 0.950 . S
C1752 C1753 1.327 . S
C1753 H1747 0.950 . S
C1753 C1752 1.327 . S
C1753 C1757 1.429 . S
C1754 C1737 1.574 . S
C1754 H1748 0.949 . S
C1754 C1758 1.368 . S
C1755 C1736 1.429 . S
C1755 C1749 1.429 . S
C1755 C1756 1.523 . S
C1756 C1737 1.368 . S
C1756 C1750 1.368 . S
C1756 C1755 1.523 . S
C1757 C1741 1.429 . S
C1757 C1753 1.429 . S
C1757 C1758 1.523 . S
C1758 C1742 1.368 . S
C1758 C1754 1.368 . S
C1758 C1757 1.523 . S
H1759 C1734 0.950 . S
H1760 C1736 0.950 . S
H1761 C1737 0.949 . S
H1762 C1739 0.950 . S
H1763 C1741 0.950 . S
C1764 C1765 1.349 . S
C1764 C1766 1.327 . S
C1764 H1789 0.950 . S
C1765 C1764 1.349 . S
C1765 C1781 1.349 . S
C1766 C1764 1.327 . S
C1766 C1785 1.429 . S
C1766 H1790 0.950 . S
C1767 C1784 1.574 . S
C1767 C1786 1.368 . S
C1767 H1791 0.949 . S
H1768 C1772 0.949 . S
C1769 C1770 1.349 . S
C1769 C1771 1.327 . S
C1769 H1792 0.950 . S
C1770 C1769 1.349 . S
C1770 C1782 1.349 . S
C1771 C1769 1.327 . S
C1771 C1787 1.429 . S
C1771 H1793 0.950 . S
C1772 H1768 0.949 . S
C1772 C1780 1.574 . S
C1772 C1788 1.368 . S
H1773 C1781 0.950 . S
H1774 C1779 0.950 . S
H1775 C1780 0.949 . S
H1776 C1782 0.950 . S
H1777 C1783 0.950 . S
H1778 C1784 0.949 . S
C1779 H1774 0.950 . S
C1779 C1781 1.327 . S
C1779 C1785 1.429 . S
C1780 C1772 1.574 . S
C1780 H1775 0.949 . S
C1780 C1786 1.368 . S
C1781 C1765 1.349 . S
C1781 H1773 0.950 . S
C1781 C1779 1.327 . S
C1782 C1770 1.349 . S
C1782 H1776 0.950 . S
C1782 C1783 1.327 . S
C1783 H1777 0.950 . S
C1783 C1782 1.327 . S
C1783 C1787 1.429 . S
C1784 C1767 1.574 . S
C1784 H1778 0.949 . S
C1784 C1788 1.368 . S
C1785 C1766 1.429 . S
C1785 C1779 1.429 . S
C1785 C1786 1.523 . S
C1786 C1767 1.368 . S
C1786 C1780 1.368 . S
C1786 C1785 1.523 . S
C1787 C1771 1.429 . S
C1787 C1783 1.429 . S
C1787 C1788 1.523 . S
C1788 C1772 1.368 . S
C1788 C1784 1.368 . S
C1788 C1787 1.523 . S
H1789 C1764 0.950 . S
H1790 C1766 0.950 . S
H1791 C1767 0.949 . S
H1792 C1769 0.950 . S
H1793 C1771 0.950 . S
C1794 C1795 1.349 . S
C1794 C1796 1.327 . S
C1794 H1819 0.950 . S
C1795 C1794 1.349 . S
C1795 C1811 1.349 . S
C1796 C1794 1.327 . S
C1796 C1815 1.429 . S
C1796 H1820 0.950 . S
C1797 C1814 1.574 . S
C1797 C1816 1.368 . S
C1797 H1821 0.949 . S
H1798 C1802 0.949 . S
C1799 C1800 1.349 . S
C1799 C1801 1.327 . S
C1799 H1822 0.950 . S
C1800 C1799 1.349 . S
C1800 C1812 1.349 . S
C1801 C1799 1.327 . S
C1801 C1817 1.429 . S
C1801 H1823 0.950 . S
C1802 H1798 0.949 . S
C1802 C1810 1.574 . S
C1802 C1818 1.368 . S
H1803 C1811 0.950 . S
H1804 C1809 0.950 . S
H1805 C1810 0.949 . S
H1806 C1812 0.950 . S
H1807 C1813 0.950 . S
H1808 C1814 0.949 . S
C1809 H1804 0.950 . S
C1809 C1811 1.327 . S
C1809 C1815 1.429 . S
C1810 C1802 1.574 . S
C1810 H1805 0.949 . S
C1810 C1816 1.368 . S
C1811 C1795 1.349 . S
C1811 H1803 0.950 . S
C1811 C1809 1.327 . S
C1812 C1800 1.349 . S
C1812 H1806 0.950 . S
C1812 C1813 1.327 . S
C1813 H1807 0.950 . S
C1813 C1812 1.327 . S
C1813 C1817 1.429 . S
C1814 C1797 1.574 . S
C1814 H1808 0.949 . S
C1814 C1818 1.368 . S
C1815 C1796 1.429 . S
C1815 C1809 1.429 . S
C1815 C1816 1.523 . S
C1816 C1797 1.368 . S
C1816 C1810 1.368 . S
C1816 C1815 1.523 . S
C1817 C1801 1.429 . S
C1817 C1813 1.429 . S
C1817 C1818 1.523 . S
C1818 C1802 1.368 . S
C1818 C1814 1.368 . S
C1818 C1817 1.523 . S
H1819 C1794 0.950 . S
H1820 C1796 0.950 . S
H1821 C1797 0.949 . S
H1822 C1799 0.950 . S
H1823 C1801 0.950 . S
C1824 C1825 1.349 . S
C1824 C1826 1.327 . S
C1824 H1849 0.950 . S
C1825 C1824 1.349 . S
C1825 C1841 1.349 . S
C1826 C1824 1.327 . S
C1826 C1845 1.429 . S
C1826 H1850 0.950 . S
C1827 C1844 1.574 . S
C1827 C1846 1.368 . S
C1827 H1851 0.949 . S
H1828 C1832 0.949 . S
C1829 C1830 1.349 . S
C1829 C1831 1.327 . S
C1829 H1852 0.950 . S
C1830 C1829 1.349 . S
C1830 C1842 1.349 . S
C1831 C1829 1.327 . S
C1831 C1847 1.429 . S
C1831 H1853 0.950 . S
C1832 H1828 0.949 . S
C1832 C1840 1.574 . S
C1832 C1848 1.368 . S
H1833 C1841 0.950 . S
H1834 C1839 0.950 . S
H1835 C1840 0.949 . S
H1836 C1842 0.950 . S
H1837 C1843 0.950 . S
H1838 C1844 0.949 . S
C1839 H1834 0.950 . S
C1839 C1841 1.327 . S
C1839 C1845 1.429 . S
C1840 C1832 1.574 . S
C1840 H1835 0.949 . S
C1840 C1846 1.368 . S
C1841 C1825 1.349 . S
C1841 H1833 0.950 . S
C1841 C1839 1.327 . S
C1842 C1830 1.349 . S
C1842 H1836 0.950 . S
C1842 C1843 1.327 . S
C1843 H1837 0.950 . S
C1843 C1842 1.327 . S
C1843 C1847 1.429 . S
C1844 C1827 1.574 . S
C1844 H1838 0.949 . S
C1844 C1848 1.368 . S
C1845 C1826 1.429 . S
C1845 C1839 1.429 . S
C1845 C1846 1.523 . S
C1846 C1827 1.368 . S
C1846 C1840 1.368 . S
C1846 C1845 1.523 . S
C1847 C1831 1.429 . S
C1847 C1843 1.429 . S
C1847 C1848 1.523 . S
C1848 C1832 1.368 . S
C1848 C1844 1.368 . S
C1848 C1847 1.523 . S
H1849 C1824 0.950 . S
H1850 C1826 0.950 . S
H1851 C1827 0.949 . S
H1852 C1829 0.950 . S
H1853 C1831 0.950 . S
C1854 C1855 1.349 . S
C1854 C1856 1.327 . S
C1854 H1879 0.950 . S
C1855 C1854 1.349 . S
C1855 C1871 1.349 . S
C1856 C1854 1.327 . S
C1856 C1875 1.429 . S
C1856 H1880 0.950 . S
C1857 C1874 1.574 . S
C1857 C1876 1.368 . S
C1857 H1881 0.949 . S
H1858 C1862 0.949 . S
C1859 C1860 1.349 . S
C1859 C1861 1.327 . S
C1859 H1882 0.950 . S
C1860 C1859 1.349 . S
C1860 C1872 1.349 . S
C1861 C1859 1.327 . S
C1861 C1877 1.429 . S
C1861 H1883 0.950 . S
C1862 H1858 0.949 . S
C1862 C1870 1.574 . S
C1862 C1878 1.368 . S
H1863 C1871 0.950 . S
H1864 C1869 0.950 . S
H1865 C1870 0.949 . S
H1866 C1872 0.950 . S
H1867 C1873 0.950 . S
H1868 C1874 0.949 . S
C1869 H1864 0.950 . S
C1869 C1871 1.327 . S
C1869 C1875 1.429 . S
C1870 C1862 1.574 . S
C1870 H1865 0.949 . S
C1870 C1876 1.368 . S
C1871 C1855 1.349 . S
C1871 H1863 0.950 . S
C1871 C1869 1.327 . S
C1872 C1860 1.349 . S
C1872 H1866 0.950 . S
C1872 C1873 1.327 . S
C1873 H1867 0.950 . S
C1873 C1872 1.327 . S
C1873 C1877 1.429 . S
C1874 C1857 1.574 . S
C1874 H1868 0.949 . S
C1874 C1878 1.368 . S
C1875 C1856 1.429 . S
C1875 C1869 1.429 . S
C1875 C1876 1.523 . S
C1876 C1857 1.368 . S
C1876 C1870 1.368 . S
C1876 C1875 1.523 . S
C1877 C1861 1.429 . S
C1877 C1873 1.429 . S
C1877 C1878 1.523 . S
C1878 C1862 1.368 . S
C1878 C1874 1.368 . S
C1878 C1877 1.523 . S
H1879 C1854 0.950 . S
H1880 C1856 0.950 . S
H1881 C1857 0.949 . S
H1882 C1859 0.950 . S
H1883 C1861 0.950 . S
C1884 C1885 1.349 . S
C1884 C1886 1.327 . S
C1884 H1909 0.950 . S
C1885 C1884 1.349 . S
C1885 C1901 1.349 . S
C1886 C1884 1.327 . S
C1886 C1905 1.429 . S
C1886 H1910 0.950 . S
C1887 C1904 1.574 . S
C1887 C1906 1.368 . S
C1887 H1911 0.949 . S
H1888 C1892 0.949 . S
C1889 C1890 1.349 . S
C1889 C1891 1.327 . S
C1889 H1912 0.950 . S
C1890 C1889 1.349 . S
C1890 C1902 1.349 . S
C1891 C1889 1.327 . S
C1891 C1907 1.429 . S
C1891 H1913 0.950 . S
C1892 H1888 0.949 . S
C1892 C1900 1.574 . S
C1892 C1908 1.368 . S
H1893 C1901 0.950 . S
H1894 C1899 0.950 . S
H1895 C1900 0.949 . S
H1896 C1902 0.950 . S
H1897 C1903 0.950 . S
H1898 C1904 0.949 . S
C1899 H1894 0.950 . S
C1899 C1901 1.327 . S
C1899 C1905 1.429 . S
C1900 C1892 1.574 . S
C1900 H1895 0.949 . S
C1900 C1906 1.368 . S
C1901 C1885 1.349 . S
C1901 H1893 0.950 . S
C1901 C1899 1.327 . S
C1902 C1890 1.349 . S
C1902 H1896 0.950 . S
C1902 C1903 1.327 . S
C1903 H1897 0.950 . S
C1903 C1902 1.327 . S
C1903 C1907 1.429 . S
C1904 C1887 1.574 . S
C1904 H1898 0.949 . S
C1904 C1908 1.368 . S
C1905 C1886 1.429 . S
C1905 C1899 1.429 . S
C1905 C1906 1.523 . S
C1906 C1887 1.368 . S
C1906 C1900 1.368 . S
C1906 C1905 1.523 . S
C1907 C1891 1.429 . S
C1907 C1903 1.429 . S
C1907 C1908 1.523 . S
C1908 C1892 1.368 . S
C1908 C1904 1.368 . S
C1908 C1907 1.523 . S
H1909 C1884 0.950 . S
H1910 C1886 0.950 . S
H1911 C1887 0.949 . S
H1912 C1889 0.950 . S
H1913 C1891 0.950 . S
C1914 C1915 1.349 . S
C1914 C1916 1.327 . S
C1914 H1939 0.950 . S
C1915 C1914 1.349 . S
C1915 C1931 1.349 . S
C1916 C1914 1.327 . S
C1916 C1935 1.429 . S
C1916 H1940 0.950 . S
C1917 C1934 1.574 . S
C1917 C1936 1.368 . S
C1917 H1941 0.949 . S
H1918 C1922 0.949 . S
C1919 C1920 1.349 . S
C1919 C1921 1.327 . S
C1919 H1942 0.950 . S
C1920 C1919 1.349 . S
C1920 C1932 1.349 . S
C1921 C1919 1.327 . S
C1921 C1937 1.429 . S
C1921 H1943 0.950 . S
C1922 H1918 0.949 . S
C1922 C1930 1.574 . S
C1922 C1938 1.368 . S
H1923 C1931 0.950 . S
H1924 C1929 0.950 . S
H1925 C1930 0.949 . S
H1926 C1932 0.950 . S
H1927 C1933 0.950 . S
H1928 C1934 0.949 . S
C1929 H1924 0.950 . S
C1929 C1931 1.327 . S
C1929 C1935 1.429 . S
C1930 C1922 1.574 . S
C1930 H1925 0.949 . S
C1930 C1936 1.368 . S
C1931 C1915 1.349 . S
C1931 H1923 0.950 . S
C1931 C1929 1.327 . S
C1932 C1920 1.349 . S
C1932 H1926 0.950 . S
C1932 C1933 1.327 . S
C1933 H1927 0.950 . S
C1933 C1932 1.327 . S
C1933 C1937 1.429 . S
C1934 C1917 1.574 . S
C1934 H1928 0.949 . S
C1934 C1938 1.368 . S
C1935 C1916 1.429 . S
C1935 C1929 1.429 . S
C1935 C1936 1.523 . S
C1936 C1917 1.368 . S
C1936 C1930 1.368 . S
C1936 C1935 1.523 . S
C1937 C1921 1.429 . S
C1937 C1933 1.429 . S
C1937 C1938 1.523 . S
C1938 C1922 1.368 . S
C1938 C1934 1.368 . S
C1938 C1937 1.523 . S
H1939 C1914 0.950 . S
H1940 C1916 0.950 . S
H1941 C1917 0.949 . S
H1942 C1919 0.950 . S
H1943 C1921 0.950 . S
C1944 C1945 1.349 . S
C1944 C1946 1.327 . S
C1944 H1969 0.950 . S
C1945 C1944 1.349 . S
C1945 C1961 1.349 . S
C1946 C1944 1.327 . S
C1946 C1965 1.429 . S
C1946 H1970 0.950 . S
C1947 C1964 1.574 . S
C1947 C1966 1.368 . S
C1947 H1971 0.949 . S
H1948 C1952 0.949 . S
C1949 C1950 1.349 . S
C1949 C1951 1.327 . S
C1949 H1972 0.950 . S
C1950 C1949 1.349 . S
C1950 C1962 1.349 . S
C1951 C1949 1.327 . S
C1951 C1967 1.429 . S
C1951 H1973 0.950 . S
C1952 H1948 0.949 . S
C1952 C1960 1.574 . S
C1952 C1968 1.368 . S
H1953 C1961 0.950 . S
H1954 C1959 0.950 . S
H1955 C1960 0.949 . S
H1956 C1962 0.950 . S
H1957 C1963 0.950 . S
H1958 C1964 0.949 . S
C1959 H1954 0.950 . S
C1959 C1961 1.327 . S
C1959 C1965 1.429 . S
C1960 C1952 1.574 . S
C1960 H1955 0.949 . S
C1960 C1966 1.368 . S
C1961 C1945 1.349 . S
C1961 H1953 0.950 . S
C1961 C1959 1.327 . S
C1962 C1950 1.349 . S
C1962 H1956 0.950 . S
C1962 C1963 1.327 . S
C1963 H1957 0.950 . S
C1963 C1962 1.327 . S
C1963 C1967 1.429 . S
C1964 C1947 1.574 . S
C1964 H1958 0.949 . S
C1964 C1968 1.368 . S
C1965 C1946 1.429 . S
C1965 C1959 1.429 . S
C1965 C1966 1.523 . S
C1966 C1947 1.368 . S
C1966 C1960 1.368 . S
C1966 C1965 1.523 . S
C1967 C1951 1.429 . S
C1967 C1963 1.429 . S
C1967 C1968 1.523 . S
C1968 C1952 1.368 . S
C1968 C1964 1.368 . S
C1968 C1967 1.523 . S
H1969 C1944 0.950 . S
H1970 C1946 0.950 . S
H1971 C1947 0.949 . S
H1972 C1949 0.950 . S
H1973 C1951 0.950 . S
C1974 C1975 1.349 . S
C1974 C1976 1.327 . S
C1974 H1999 0.950 . S
C1975 C1974 1.349 . S
C1975 C1991 1.349 . S
C1976 C1974 1.327 . S
C1976 C1995 1.429 . S
C1976 H2000 0.950 . S
C1977 C1994 1.574 . S
C1977 C1996 1.368 . S
C1977 H2001 0.949 . S
H1978 C1982 0.949 . S
C1979 C1980 1.349 . S
C1979 C1981 1.327 . S
C1979 H2002 0.950 . S
C1980 C1979 1.349 . S
C1980 C1992 1.349 . S
C1981 C1979 1.327 . S
C1981 C1997 1.429 . S
C1981 H2003 0.950 . S
C1982 H1978 0.949 . S
C1982 C1990 1.574 . S
C1982 C1998 1.368 . S
H1983 C1991 0.950 . S
H1984 C1989 0.950 . S
H1985 C1990 0.949 . S
H1986 C1992 0.950 . S
H1987 C1993 0.950 . S
H1988 C1994 0.949 . S
C1989 H1984 0.950 . S
C1989 C1991 1.327 . S
C1989 C1995 1.429 . S
C1990 C1982 1.574 . S
C1990 H1985 0.949 . S
C1990 C1996 1.368 . S
C1991 C1975 1.349 . S
C1991 H1983 0.950 . S
C1991 C1989 1.327 . S
C1992 C1980 1.349 . S
C1992 H1986 0.950 . S
C1992 C1993 1.327 . S
C1993 H1987 0.950 . S
C1993 C1992 1.327 . S
C1993 C1997 1.429 . S
C1994 C1977 1.574 . S
C1994 H1988 0.949 . S
C1994 C1998 1.368 . S
C1995 C1976 1.429 . S
C1995 C1989 1.429 . S
C1995 C1996 1.523 . S
C1996 C1977 1.368 . S
C1996 C1990 1.368 . S
C1996 C1995 1.523 . S
C1997 C1981 1.429 . S
C1997 C1993 1.429 . S
C1997 C1998 1.523 . S
C1998 C1982 1.368 . S
C1998 C1994 1.368 . S
C1998 C1997 1.523 . S
H1999 C1974 0.950 . S
H2000 C1976 0.950 . S
H2001 C1977 0.949 . S
H2002 C1979 0.950 . S
H2003 C1981 0.950 . S
C2004 C2005 1.349 . S
C2004 C2006 1.327 . S
C2004 H2029 0.950 . S
C2005 C2004 1.349 . S
C2005 C2021 1.349 . S
C2006 C2004 1.327 . S
C2006 C2025 1.429 . S
C2006 H2030 0.950 . S
C2007 C2024 1.574 . S
C2007 C2026 1.368 . S
C2007 H2031 0.949 . S
H2008 C2012 0.949 . S
C2009 C2010 1.349 . S
C2009 C2011 1.327 . S
C2009 H2032 0.950 . S
C2010 C2009 1.349 . S
C2010 C2022 1.349 . S
C2011 C2009 1.327 . S
C2011 C2027 1.429 . S
C2011 H2033 0.950 . S
C2012 H2008 0.949 . S
C2012 C2020 1.574 . S
C2012 C2028 1.368 . S
H2013 C2021 0.950 . S
H2014 C2019 0.950 . S
H2015 C2020 0.949 . S
H2016 C2022 0.950 . S
H2017 C2023 0.950 . S
H2018 C2024 0.949 . S
C2019 H2014 0.950 . S
C2019 C2021 1.327 . S
C2019 C2025 1.429 . S
C2020 C2012 1.574 . S
C2020 H2015 0.949 . S
C2020 C2026 1.368 . S
C2021 C2005 1.349 . S
C2021 H2013 0.950 . S
C2021 C2019 1.327 . S
C2022 C2010 1.349 . S
C2022 H2016 0.950 . S
C2022 C2023 1.327 . S
C2023 H2017 0.950 . S
C2023 C2022 1.327 . S
C2023 C2027 1.429 . S
C2024 C2007 1.574 . S
C2024 H2018 0.949 . S
C2024 C2028 1.368 . S
C2025 C2006 1.429 . S
C2025 C2019 1.429 . S
C2025 C2026 1.523 . S
C2026 C2007 1.368 . S
C2026 C2020 1.368 . S
C2026 C2025 1.523 . S
C2027 C2011 1.429 . S
C2027 C2023 1.429 . S
C2027 C2028 1.523 . S
C2028 C2012 1.368 . S
C2028 C2024 1.368 . S
C2028 C2027 1.523 . S
H2029 C2004 0.950 . S
H2030 C2006 0.950 . S
H2031 C2007 0.949 . S
H2032 C2009 0.950 . S
H2033 C2011 0.950 . S
C2034 C2035 1.349 . S
C2034 C2036 1.327 . S
C2034 H2059 0.950 . S
C2035 C2034 1.349 . S
C2035 C2051 1.349 . S
C2036 C2034 1.327 . S
C2036 C2055 1.429 . S
C2036 H2060 0.950 . S
C2037 C2054 1.574 . S
C2037 C2056 1.368 . S
C2037 H2061 0.949 . S
H2038 C2042 0.949 . S
C2039 C2040 1.349 . S
C2039 C2041 1.327 . S
C2039 H2062 0.950 . S
C2040 C2039 1.349 . S
C2040 C2052 1.349 . S
C2041 C2039 1.327 . S
C2041 C2057 1.429 . S
C2041 H2063 0.950 . S
C2042 H2038 0.949 . S
C2042 C2050 1.574 . S
C2042 C2058 1.368 . S
H2043 C2051 0.950 . S
H2044 C2049 0.950 . S
H2045 C2050 0.949 . S
H2046 C2052 0.950 . S
H2047 C2053 0.950 . S
H2048 C2054 0.949 . S
C2049 H2044 0.950 . S
C2049 C2051 1.327 . S
C2049 C2055 1.429 . S
C2050 C2042 1.574 . S
C2050 H2045 0.949 . S
C2050 C2056 1.368 . S
C2051 C2035 1.349 . S
C2051 H2043 0.950 . S
C2051 C2049 1.327 . S
C2052 C2040 1.349 . S
C2052 H2046 0.950 . S
C2052 C2053 1.327 . S
C2053 H2047 0.950 . S
C2053 C2052 1.327 . S
C2053 C2057 1.429 . S
C2054 C2037 1.574 . S
C2054 H2048 0.949 . S
C2054 C2058 1.368 . S
C2055 C2036 1.429 . S
C2055 C2049 1.429 . S
C2055 C2056 1.523 . S
C2056 C2037 1.368 . S
C2056 C2050 1.368 . S
C2056 C2055 1.523 . S
C2057 C2041 1.429 . S
C2057 C2053 1.429 . S
C2057 C2058 1.523 . S
C2058 C2042 1.368 . S
C2058 C2054 1.368 . S
C2058 C2057 1.523 . S
H2059 C2034 0.950 . S
H2060 C2036 0.950 . S
H2061 C2037 0.949 . S
H2062 C2039 0.950 . S
H2063 C2041 0.950 . S
C2064 C2065 1.349 . S
C2064 C2066 1.327 . S
C2064 H2089 0.950 . S
C2065 C2064 1.349 . S
C2065 C2081 1.349 . S
C2066 C2064 1.327 . S
C2066 C2085 1.429 . S
C2066 H2090 0.950 . S
C2067 C2084 1.574 . S
C2067 C2086 1.368 . S
C2067 H2091 0.949 . S
H2068 C2072 0.949 . S
C2069 C2070 1.349 . S
C2069 C2071 1.327 . S
C2069 H2092 0.950 . S
C2070 C2069 1.349 . S
C2070 C2082 1.349 . S
C2071 C2069 1.327 . S
C2071 C2087 1.429 . S
C2071 H2093 0.950 . S
C2072 H2068 0.949 . S
C2072 C2080 1.574 . S
C2072 C2088 1.368 . S
H2073 C2081 0.950 . S
H2074 C2079 0.950 . S
H2075 C2080 0.949 . S
H2076 C2082 0.950 . S
H2077 C2083 0.950 . S
H2078 C2084 0.949 . S
C2079 H2074 0.950 . S
C2079 C2081 1.327 . S
C2079 C2085 1.429 . S
C2080 C2072 1.574 . S
C2080 H2075 0.949 . S
C2080 C2086 1.368 . S
C2081 C2065 1.349 . S
C2081 H2073 0.950 . S
C2081 C2079 1.327 . S
C2082 C2070 1.349 . S
C2082 H2076 0.950 . S
C2082 C2083 1.327 . S
C2083 H2077 0.950 . S
C2083 C2082 1.327 . S
C2083 C2087 1.429 . S
C2084 C2067 1.574 . S
C2084 H2078 0.949 . S
C2084 C2088 1.368 . S
C2085 C2066 1.429 . S
C2085 C2079 1.429 . S
C2085 C2086 1.523 . S
C2086 C2067 1.368 . S
C2086 C2080 1.368 . S
C2086 C2085 1.523 . S
C2087 C2071 1.429 . S
C2087 C2083 1.429 . S
C2087 C2088 1.523 . S
C2088 C2072 1.368 . S
C2088 C2084 1.368 . S
C2088 C2087 1.523 . S
H2089 C2064 0.950 . S
H2090 C2066 0.950 . S
H2091 C2067 0.949 . S
H2092 C2069 0.950 . S
H2093 C2071 0.950 . S
C2094 C2095 1.349 . S
C2094 C2096 1.327 . S
C2094 H2119 0.950 . S
C2095 C2094 1.349 . S
C2095 C2111 1.349 . S
C2096 C2094 1.327 . S
C2096 C2115 1.429 . S
C2096 H2120 0.950 . S
C2097 C2114 1.574 . S
C2097 C2116 1.368 . S
C2097 H2121 0.949 . S
H2098 C2102 0.949 . S
C2099 C2100 1.349 . S
C2099 C2101 1.327 . S
C2099 H2122 0.950 . S
C2100 C2099 1.349 . S
C2100 C2112 1.349 . S
C2101 C2099 1.327 . S
C2101 C2117 1.429 . S
C2101 H2123 0.950 . S
C2102 H2098 0.949 . S
C2102 C2110 1.574 . S
C2102 C2118 1.368 . S
H2103 C2111 0.950 . S
H2104 C2109 0.950 . S
H2105 C2110 0.949 . S
H2106 C2112 0.950 . S
H2107 C2113 0.950 . S
H2108 C2114 0.949 . S
C2109 H2104 0.950 . S
C2109 C2111 1.327 . S
C2109 C2115 1.429 . S
C2110 C2102 1.574 . S
C2110 H2105 0.949 . S
C2110 C2116 1.368 . S
C2111 C2095 1.349 . S
C2111 H2103 0.950 . S
C2111 C2109 1.327 . S
C2112 C2100 1.349 . S
C2112 H2106 0.950 . S
C2112 C2113 1.327 . S
C2113 H2107 0.950 . S
C2113 C2112 1.327 . S
C2113 C2117 1.429 . S
C2114 C2097 1.574 . S
C2114 H2108 0.949 . S
C2114 C2118 1.368 . S
C2115 C2096 1.429 . S
C2115 C2109 1.429 . S
C2115 C2116 1.523 . S
C2116 C2097 1.368 . S
C2116 C2110 1.368 . S
C2116 C2115 1.523 . S
C2117 C2101 1.429 . S
C2117 C2113 1.429 . S
C2117 C2118 1.523 . S
C2118 C2102 1.368 . S
C2118 C2114 1.368 . S
C2118 C2117 1.523 . S
H2119 C2094 0.950 . S
H2120 C2096 0.950 . S
H2121 C2097 0.949 . S
H2122 C2099 0.950 . S
H2123 C2101 0.950 . S
C2124 C2125 1.349 . S
C2124 C2126 1.327 . S
C2124 H2149 0.950 . S
C2125 C2124 1.349 . S
C2125 C2141 1.349 . S
C2126 C2124 1.327 . S
C2126 C2145 1.429 . S
C2126 H2150 0.950 . S
C2127 C2144 1.574 . S
C2127 C2146 1.368 . S
C2127 H2151 0.949 . S
H2128 C2132 0.949 . S
C2129 C2130 1.349 . S
C2129 C2131 1.327 . S
C2129 H2152 0.950 . S
C2130 C2129 1.349 . S
C2130 C2142 1.349 . S
C2131 C2129 1.327 . S
C2131 C2147 1.429 . S
C2131 H2153 0.950 . S
C2132 H2128 0.949 . S
C2132 C2140 1.574 . S
C2132 C2148 1.368 . S
H2133 C2141 0.950 . S
H2134 C2139 0.950 . S
H2135 C2140 0.949 . S
H2136 C2142 0.950 . S
H2137 C2143 0.950 . S
H2138 C2144 0.949 . S
C2139 H2134 0.950 . S
C2139 C2141 1.327 . S
C2139 C2145 1.429 . S
C2140 C2132 1.574 . S
C2140 H2135 0.949 . S
C2140 C2146 1.368 . S
C2141 C2125 1.349 . S
C2141 H2133 0.950 . S
C2141 C2139 1.327 . S
C2142 C2130 1.349 . S
C2142 H2136 0.950 . S
C2142 C2143 1.327 . S
C2143 H2137 0.950 . S
C2143 C2142 1.327 . S
C2143 C2147 1.429 . S
C2144 C2127 1.574 . S
C2144 H2138 0.949 . S
C2144 C2148 1.368 . S
C2145 C2126 1.429 . S
C2145 C2139 1.429 . S
C2145 C2146 1.523 . S
C2146 C2127 1.368 . S
C2146 C2140 1.368 . S
C2146 C2145 1.523 . S
C2147 C2131 1.429 . S
C2147 C2143 1.429 . S
C2147 C2148 1.523 . S
C2148 C2132 1.368 . S
C2148 C2144 1.368 . S
C2148 C2147 1.523 . S
H2149 C2124 0.950 . S
H2150 C2126 0.950 . S
H2151 C2127 0.949 . S
H2152 C2129 0.950 . S
H2153 C2131 0.950 . S
C2154 C2155 1.349 . S
C2154 C2156 1.327 . S
C2154 H2179 0.950 . S
C2155 C2154 1.349 . S
C2155 C2171 1.349 . S
C2156 C2154 1.327 . S
C2156 C2175 1.429 . S
C2156 H2180 0.950 . S
C2157 C2174 1.574 . S
C2157 C2176 1.368 . S
C2157 H2181 0.949 . S
H2158 C2162 0.949 . S
C2159 C2160 1.349 . S
C2159 C2161 1.327 . S
C2159 H2182 0.950 . S
C2160 C2159 1.349 . S
C2160 C2172 1.349 . S
C2161 C2159 1.327 . S
C2161 C2177 1.429 . S
C2161 H2183 0.950 . S
C2162 H2158 0.949 . S
C2162 C2170 1.574 . S
C2162 C2178 1.368 . S
H2163 C2171 0.950 . S
H2164 C2169 0.950 . S
H2165 C2170 0.949 . S
H2166 C2172 0.950 . S
H2167 C2173 0.950 . S
H2168 C2174 0.949 . S
C2169 H2164 0.950 . S
C2169 C2171 1.327 . S
C2169 C2175 1.429 . S
C2170 C2162 1.574 . S
C2170 H2165 0.949 . S
C2170 C2176 1.368 . S
C2171 C2155 1.349 . S
C2171 H2163 0.950 . S
C2171 C2169 1.327 . S
C2172 C2160 1.349 . S
C2172 H2166 0.950 . S
C2172 C2173 1.327 . S
C2173 H2167 0.950 . S
C2173 C2172 1.327 . S
C2173 C2177 1.429 . S
C2174 C2157 1.574 . S
C2174 H2168 0.949 . S
C2174 C2178 1.368 . S
C2175 C2156 1.429 . S
C2175 C2169 1.429 . S
C2175 C2176 1.523 . S
C2176 C2157 1.368 . S
C2176 C2170 1.368 . S
C2176 C2175 1.523 . S
C2177 C2161 1.429 . S
C2177 C2173 1.429 . S
C2177 C2178 1.523 . S
C2178 C2162 1.368 . S
C2178 C2174 1.368 . S
C2178 C2177 1.523 . S
H2179 C2154 0.950 . S
H2180 C2156 0.950 . S
H2181 C2157 0.949 . S
H2182 C2159 0.950 . S
H2183 C2161 0.950 . S
C2184 C2185 1.349 . S
C2184 C2186 1.327 . S
C2184 H2209 0.950 . S
C2185 C2184 1.349 . S
C2185 C2201 1.349 . S
C2186 C2184 1.327 . S
C2186 C2205 1.429 . S
C2186 H2210 0.950 . S
C2187 C2204 1.574 . S
C2187 C2206 1.368 . S
C2187 H2211 0.949 . S
H2188 C2192 0.949 . S
C2189 C2190 1.349 . S
C2189 C2191 1.327 . S
C2189 H2212 0.950 . S
C2190 C2189 1.349 . S
C2190 C2202 1.349 . S
C2191 C2189 1.327 . S
C2191 C2207 1.429 . S
C2191 H2213 0.950 . S
C2192 H2188 0.949 . S
C2192 C2200 1.574 . S
C2192 C2208 1.368 . S
H2193 C2201 0.950 . S
H2194 C2199 0.950 . S
H2195 C2200 0.949 . S
H2196 C2202 0.950 . S
H2197 C2203 0.950 . S
H2198 C2204 0.949 . S
C2199 H2194 0.950 . S
C2199 C2201 1.327 . S
C2199 C2205 1.429 . S
C2200 C2192 1.574 . S
C2200 H2195 0.949 . S
C2200 C2206 1.368 . S
C2201 C2185 1.349 . S
C2201 H2193 0.950 . S
C2201 C2199 1.327 . S
C2202 C2190 1.349 . S
C2202 H2196 0.950 . S
C2202 C2203 1.327 . S
C2203 H2197 0.950 . S
C2203 C2202 1.327 . S
C2203 C2207 1.429 . S
C2204 C2187 1.574 . S
C2204 H2198 0.949 . S
C2204 C2208 1.368 . S
C2205 C2186 1.429 . S
C2205 C2199 1.429 . S
C2205 C2206 1.523 . S
C2206 C2187 1.368 . S
C2206 C2200 1.368 . S
C2206 C2205 1.523 . S
C2207 C2191 1.429 . S
C2207 C2203 1.429 . S
C2207 C2208 1.523 . S
C2208 C2192 1.368 . S
C2208 C2204 1.368 . S
C2208 C2207 1.523 . S
H2209 C2184 0.950 . S
H2210 C2186 0.950 . S
H2211 C2187 0.949 . S
H2212 C2189 0.950 . S
H2213 C2191 0.950 . S
C2214 C2215 1.349 . S
C2214 C2216 1.327 . S
C2214 H2239 0.950 . S
C2215 C2214 1.349 . S
C2215 C2231 1.349 . S
C2216 C2214 1.327 . S
C2216 C2235 1.429 . S
C2216 H2240 0.950 . S
C2217 C2234 1.574 . S
C2217 C2236 1.368 . S
C2217 H2241 0.949 . S
H2218 C2222 0.949 . S
C2219 C2220 1.349 . S
C2219 C2221 1.327 . S
C2219 H2242 0.950 . S
C2220 C2219 1.349 . S
C2220 C2232 1.349 . S
C2221 C2219 1.327 . S
C2221 C2237 1.429 . S
C2221 H2243 0.950 . S
C2222 H2218 0.949 . S
C2222 C2230 1.574 . S
C2222 C2238 1.368 . S
H2223 C2231 0.950 . S
H2224 C2229 0.950 . S
H2225 C2230 0.949 . S
H2226 C2232 0.950 . S
H2227 C2233 0.950 . S
H2228 C2234 0.949 . S
C2229 H2224 0.950 . S
C2229 C2231 1.327 . S
C2229 C2235 1.429 . S
C2230 C2222 1.574 . S
C2230 H2225 0.949 . S
C2230 C2236 1.368 . S
C2231 C2215 1.349 . S
C2231 H2223 0.950 . S
C2231 C2229 1.327 . S
C2232 C2220 1.349 . S
C2232 H2226 0.950 . S
C2232 C2233 1.327 . S
C2233 H2227 0.950 . S
C2233 C2232 1.327 . S
C2233 C2237 1.429 . S
C2234 C2217 1.574 . S
C2234 H2228 0.949 . S
C2234 C2238 1.368 . S
C2235 C2216 1.429 . S
C2235 C2229 1.429 . S
C2235 C2236 1.523 . S
C2236 C2217 1.368 . S
C2236 C2230 1.368 . S
C2236 C2235 1.523 . S
C2237 C2221 1.429 . S
C2237 C2233 1.429 . S
C2237 C2238 1.523 . S
C2238 C2222 1.368 . S
C2238 C2234 1.368 . S
C2238 C2237 1.523 . S
H2239 C2214 0.950 . S
H2240 C2216 0.950 . S
H2241 C2217 0.949 . S
H2242 C2219 0.950 . S
H2243 C2221 0.950 . S
C2244 C2245 1.349 . S
C2244 C2246 1.327 . S
C2244 H2269 0.950 . S
C2245 C2244 1.349 . S
C2245 C2261 1.349 . S
C2246 C2244 1.327 . S
C2246 C2265 1.429 . S
C2246 H2270 0.950 . S
C2247 C2264 1.574 . S
C2247 C2266 1.368 . S
C2247 H2271 0.949 . S
H2248 C2252 0.949 . S
C2249 C2250 1.349 . S
C2249 C2251 1.327 . S
C2249 H2272 0.950 . S
C2250 C2249 1.349 . S
C2250 C2262 1.349 . S
C2251 C2249 1.327 . S
C2251 C2267 1.429 . S
C2251 H2273 0.950 . S
C2252 H2248 0.949 . S
C2252 C2260 1.574 . S
C2252 C2268 1.368 . S
H2253 C2261 0.950 . S
H2254 C2259 0.950 . S
H2255 C2260 0.949 . S
H2256 C2262 0.950 . S
H2257 C2263 0.950 . S
H2258 C2264 0.949 . S
C2259 H2254 0.950 . S
C2259 C2261 1.327 . S
C2259 C2265 1.429 . S
C2260 C2252 1.574 . S
C2260 H2255 0.949 . S
C2260 C2266 1.368 . S
C2261 C2245 1.349 . S
C2261 H2253 0.950 . S
C2261 C2259 1.327 . S
C2262 C2250 1.349 . S
C2262 H2256 0.950 . S
C2262 C2263 1.327 . S
C2263 H2257 0.950 . S
C2263 C2262 1.327 . S
C2263 C2267 1.429 . S
C2264 C2247 1.574 . S
C2264 H2258 0.949 . S
C2264 C2268 1.368 . S
C2265 C2246 1.429 . S
C2265 C2259 1.429 . S
C2265 C2266 1.523 . S
C2266 C2247 1.368 . S
C2266 C2260 1.368 . S
C2266 C2265 1.523 . S
C2267 C2251 1.429 . S
C2267 C2263 1.429 . S
C2267 C2268 1.523 . S
C2268 C2252 1.368 . S
C2268 C2264 1.368 . S
C2268 C2267 1.523 . S
H2269 C2244 0.950 . S
H2270 C2246 0.950 . S
H2271 C2247 0.949 . S
H2272 C2249 0.950 . S
H2273 C2251 0.950 . S
C2274 C2275 1.349 . S
C2274 C2276 1.327 . S
C2274 H2299 0.950 . S
C2275 C2274 1.349 . S
C2275 C2291 1.349 . S
C2276 C2274 1.327 . S
C2276 C2295 1.429 . S
C2276 H2300 0.950 . S
C2277 C2294 1.574 . S
C2277 C2296 1.368 . S
C2277 H2301 0.949 . S
H2278 C2282 0.949 . S
C2279 C2280 1.349 . S
C2279 C2281 1.327 . S
C2279 H2302 0.950 . S
C2280 C2279 1.349 . S
C2280 C2292 1.349 . S
C2281 C2279 1.327 . S
C2281 C2297 1.429 . S
C2281 H2303 0.950 . S
C2282 H2278 0.949 . S
C2282 C2290 1.574 . S
C2282 C2298 1.368 . S
H2283 C2291 0.950 . S
H2284 C2289 0.950 . S
H2285 C2290 0.949 . S
H2286 C2292 0.950 . S
H2287 C2293 0.950 . S
H2288 C2294 0.949 . S
C2289 H2284 0.950 . S
C2289 C2291 1.327 . S
C2289 C2295 1.429 . S
C2290 C2282 1.574 . S
C2290 H2285 0.949 . S
C2290 C2296 1.368 . S
C2291 C2275 1.349 . S
C2291 H2283 0.950 . S
C2291 C2289 1.327 . S
C2292 C2280 1.349 . S
C2292 H2286 0.950 . S
C2292 C2293 1.327 . S
C2293 H2287 0.950 . S
C2293 C2292 1.327 . S
C2293 C2297 1.429 . S
C2294 C2277 1.574 . S
C2294 H2288 0.949 . S
C2294 C2298 1.368 . S
C2295 C2276 1.429 . S
C2295 C2289 1.429 . S
C2295 C2296 1.523 . S
C2296 C2277 1.368 . S
C2296 C2290 1.368 . S
C2296 C2295 1.523 . S
C2297 C2281 1.429 . S
C2297 C2293 1.429 . S
C2297 C2298 1.523 . S
C2298 C2282 1.368 . S
C2298 C2294 1.368 . S
C2298 C2297 1.523 . S
H2299 C2274 0.950 . S
H2300 C2276 0.950 . S
H2301 C2277 0.949 . S
H2302 C2279 0.950 . S
H2303 C2281 0.950 . S
C2304 C2305 1.349 . S
C2304 C2306 1.327 . S
C2304 H2329 0.950 . S
C2305 C2304 1.349 . S
C2305 C2321 1.349 . S
C2306 C2304 1.327 . S
C2306 C2325 1.429 . S
C2306 H2330 0.950 . S
C2307 C2324 1.574 . S
C2307 C2326 1.368 . S
C2307 H2331 0.949 . S
H2308 C2312 0.949 . S
C2309 C2310 1.349 . S
C2309 C2311 1.327 . S
C2309 H2332 0.950 . S
C2310 C2309 1.349 . S
C2310 C2322 1.349 . S
C2311 C2309 1.327 . S
C2311 C2327 1.429 . S
C2311 H2333 0.950 . S
C2312 H2308 0.949 . S
C2312 C2320 1.574 . S
C2312 C2328 1.368 . S
H2313 C2321 0.950 . S
H2314 C2319 0.950 . S
H2315 C2320 0.949 . S
H2316 C2322 0.950 . S
H2317 C2323 0.950 . S
H2318 C2324 0.949 . S
C2319 H2314 0.950 . S
C2319 C2321 1.327 . S
C2319 C2325 1.429 . S
C2320 C2312 1.574 . S
C2320 H2315 0.949 . S
C2320 C2326 1.368 . S
C2321 C2305 1.349 . S
C2321 H2313 0.950 . S
C2321 C2319 1.327 . S
C2322 C2310 1.349 . S
C2322 H2316 0.950 . S
C2322 C2323 1.327 . S
C2323 H2317 0.950 . S
C2323 C2322 1.327 . S
C2323 C2327 1.429 . S
C2324 C2307 1.574 . S
C2324 H2318 0.949 . S
C2324 C2328 1.368 . S
C2325 C2306 1.429 . S
C2325 C2319 1.429 . S
C2325 C2326 1.523 . S
C2326 C2307 1.368 . S
C2326 C2320 1.368 . S
C2326 C2325 1.523 . S
C2327 C2311 1.429 . S
C2327 C2323 1.429 . S
C2327 C2328 1.523 . S
C2328 C2312 1.368 . S
C2328 C2324 1.368 . S
C2328 C2327 1.523 . S
H2329 C2304 0.950 . S
H2330 C2306 0.950 . S
H2331 C2307 0.949 . S
H2332 C2309 0.950 . S
H2333 C2311 0.950 . S
C2334 C2335 1.349 . S
C2334 C2336 1.327 . S
C2334 H2359 0.950 . S
C2335 C2334 1.349 . S
C2335 C2351 1.349 . S
C2336 C2334 1.327 . S
C2336 C2355 1.429 . S
C2336 H2360 0.950 . S
C2337 C2354 1.574 . S
C2337 C2356 1.368 . S
C2337 H2361 0.949 . S
H2338 C2342 0.949 . S
C2339 C2340 1.349 . S
C2339 C2341 1.327 . S
C2339 H2362 0.950 . S
C2340 C2339 1.349 . S
C2340 C2352 1.349 . S
C2341 C2339 1.327 . S
C2341 C2357 1.429 . S
C2341 H2363 0.950 . S
C2342 H2338 0.949 . S
C2342 C2350 1.574 . S
C2342 C2358 1.368 . S
H2343 C2351 0.950 . S
H2344 C2349 0.950 . S
H2345 C2350 0.949 . S
H2346 C2352 0.950 . S
H2347 C2353 0.950 . S
H2348 C2354 0.949 . S
C2349 H2344 0.950 . S
C2349 C2351 1.327 . S
C2349 C2355 1.429 . S
C2350 C2342 1.574 . S
C2350 H2345 0.949 . S
C2350 C2356 1.368 . S
C2351 C2335 1.349 . S
C2351 H2343 0.950 . S
C2351 C2349 1.327 . S
C2352 C2340 1.349 . S
C2352 H2346 0.950 . S
C2352 C2353 1.327 . S
C2353 H2347 0.950 . S
C2353 C2352 1.327 . S
C2353 C2357 1.429 . S
C2354 C2337 1.574 . S
C2354 H2348 0.949 . S
C2354 C2358 1.368 . S
C2355 C2336 1.429 . S
C2355 C2349 1.429 . S
C2355 C2356 1.523 . S
C2356 C2337 1.368 . S
C2356 C2350 1.368 . S
C2356 C2355 1.523 . S
C2357 C2341 1.429 . S
C2357 C2353 1.429 . S
C2357 C2358 1.523 . S
C2358 C2342 1.368 . S
C2358 C2354 1.368 . S
C2358 C2357 1.523 . S
H2359 C2334 0.950 . S
H2360 C2336 0.950 . S
H2361 C2337 0.949 . S
H2362 C2339 0.950 . S
H2363 C2341 0.950 . S
C2364 C2365 1.349 . S
C2364 C2366 1.327 . S
C2364 H2389 0.950 . S
C2365 C2364 1.349 . S
C2365 C2381 1.349 . S
C2366 C2364 1.327 . S
C2366 C2385 1.429 . S
C2366 H2390 0.950 . S
C2367 C2384 1.574 . S
C2367 C2386 1.368 . S
C2367 H2391 0.949 . S
H2368 C2372 0.949 . S
C2369 C2370 1.349 . S
C2369 C2371 1.327 . S
C2369 H2392 0.950 . S
C2370 C2369 1.349 . S
C2370 C2382 1.349 . S
C2371 C2369 1.327 . S
C2371 C2387 1.429 . S
C2371 H2393 0.950 . S
C2372 H2368 0.949 . S
C2372 C2380 1.574 . S
C2372 C2388 1.368 . S
H2373 C2381 0.950 . S
H2374 C2379 0.950 . S
H2375 C2380 0.949 . S
H2376 C2382 0.950 . S
H2377 C2383 0.950 . S
H2378 C2384 0.949 . S
C2379 H2374 0.950 . S
C2379 C2381 1.327 . S
C2379 C2385 1.429 . S
C2380 C2372 1.574 . S
C2380 H2375 0.949 . S
C2380 C2386 1.368 . S
C2381 C2365 1.349 . S
C2381 H2373 0.950 . S
C2381 C2379 1.327 . S
C2382 C2370 1.349 . S
C2382 H2376 0.950 . S
C2382 C2383 1.327 . S
C2383 H2377 0.950 . S
C2383 C2382 1.327 . S
C2383 C2387 1.429 . S
C2384 C2367 1.574 . S
C2384 H2378 0.949 . S
C2384 C2388 1.368 . S
C2385 C2366 1.429 . S
C2385 C2379 1.429 . S
C2385 C2386 1.523 . S
C2386 C2367 1.368 . S
C2386 C2380 1.368 . S
C2386 C2385 1.523 . S
C2387 C2371 1.429 . S
C2387 C2383 1.429 . S
C2387 C2388 1.523 . S
C2388 C2372 1.368 . S
C2388 C2384 1.368 . S
C2388 C2387 1.523 . S
H2389 C2364 0.950 . S
H2390 C2366 0.950 . S
H2391 C2367 0.949 . S
H2392 C2369 0.950 . S
H2393 C2371 0.950 . S
C2394 C2395 1.349 . S
C2394 C2396 1.327 . S
C2394 H2419 0.950 . S
C2395 C2394 1.349 . S
C2395 C2411 1.349 . S
C2396 C2394 1.327 . S
C2396 C2415 1.429 . S
C2396 H2420 0.950 . S
C2397 C2414 1.574 . S
C2397 C2416 1.368 . S
C2397 H2421 0.949 . S
H2398 C2402 0.949 . S
C2399 C2400 1.349 . S
C2399 C2401 1.327 . S
C2399 H2422 0.950 . S
C2400 C2399 1.349 . S
C2400 C2412 1.349 . S
C2401 C2399 1.327 . S
C2401 C2417 1.429 . S
C2401 H2423 0.950 . S
C2402 H2398 0.949 . S
C2402 C2410 1.574 . S
C2402 C2418 1.368 . S
H2403 C2411 0.950 . S
H2404 C2409 0.950 . S
H2405 C2410 0.949 . S
H2406 C2412 0.950 . S
H2407 C2413 0.950 . S
H2408 C2414 0.949 . S
C2409 H2404 0.950 . S
C2409 C2411 1.327 . S
C2409 C2415 1.429 . S
C2410 C2402 1.574 . S
C2410 H2405 0.949 . S
C2410 C2416 1.368 . S
C2411 C2395 1.349 . S
C2411 H2403 0.950 . S
C2411 C2409 1.327 . S
C2412 C2400 1.349 . S
C2412 H2406 0.950 . S
C2412 C2413 1.327 . S
C2413 H2407 0.950 . S
C2413 C2412 1.327 . S
C2413 C2417 1.429 . S
C2414 C2397 1.574 . S
C2414 H2408 0.949 . S
C2414 C2418 1.368 . S
C2415 C2396 1.429 . S
C2415 C2409 1.429 . S
C2415 C2416 1.523 . S
C2416 C2397 1.368 . S
C2416 C2410 1.368 . S
C2416 C2415 1.523 . S
C2417 C2401 1.429 . S
C2417 C2413 1.429 . S
C2417 C2418 1.523 . S
C2418 C2402 1.368 . S
C2418 C2414 1.368 . S
C2418 C2417 1.523 . S
H2419 C2394 0.950 . S
H2420 C2396 0.950 . S
H2421 C2397 0.949 . S
H2422 C2399 0.950 . S
H2423 C2401 0.950 . S
C2424 C2425 1.349 . S
C2424 C2426 1.327 . S
C2424 H2449 0.950 . S
C2425 C2424 1.349 . S
C2425 C2441 1.349 . S
C2426 C2424 1.327 . S
C2426 C2445 1.429 . S
C2426 H2450 0.950 . S
C2427 C2444 1.574 . S
C2427 C2446 1.368 . S
C2427 H2451 0.949 . S
H2428 C2432 0.949 . S
C2429 C2430 1.349 . S
C2429 C2431 1.327 . S
C2429 H2452 0.950 . S
C2430 C2429 1.349 . S
C2430 C2442 1.349 . S
C2431 C2429 1.327 . S
C2431 C2447 1.429 . S
C2431 H2453 0.950 . S
C2432 H2428 0.949 . S
C2432 C2440 1.574 . S
C2432 C2448 1.368 . S
H2433 C2441 0.950 . S
H2434 C2439 0.950 . S
H2435 C2440 0.949 . S
H2436 C2442 0.950 . S
H2437 C2443 0.950 . S
H2438 C2444 0.949 . S
C2439 H2434 0.950 . S
C2439 C2441 1.327 . S
C2439 C2445 1.429 . S
C2440 C2432 1.574 . S
C2440 H2435 0.949 . S
C2440 C2446 1.368 . S
C2441 C2425 1.349 . S
C2441 H2433 0.950 . S
C2441 C2439 1.327 . S
C2442 C2430 1.349 . S
C2442 H2436 0.950 . S
C2442 C2443 1.327 . S
C2443 H2437 0.950 . S
C2443 C2442 1.327 . S
C2443 C2447 1.429 . S
C2444 C2427 1.574 . S
C2444 H2438 0.949 . S
C2444 C2448 1.368 . S
C2445 C2426 1.429 . S
C2445 C2439 1.429 . S
C2445 C2446 1.523 . S
C2446 C2427 1.368 . S
C2446 C2440 1.368 . S
C2446 C2445 1.523 . S
C2447 C2431 1.429 . S
C2447 C2443 1.429 . S
C2447 C2448 1.523 . S
C2448 C2432 1.368 . S
C2448 C2444 1.368 . S
C2448 C2447 1.523 . S
H2449 C2424 0.950 . S
H2450 C2426 0.950 . S
H2451 C2427 0.949 . S
H2452 C2429 0.950 . S
H2453 C2431 0.950 . S
C2454 C2455 1.349 . S
C2454 C2456 1.327 . S
C2454 H2479 0.950 . S
C2455 C2454 1.349 . S
C2455 C2471 1.349 . S
C2456 C2454 1.327 . S
C2456 C2475 1.429 . S
C2456 H2480 0.950 . S
C2457 C2474 1.574 . S
C2457 C2476 1.368 . S
C2457 H2481 0.949 . S
H2458 C2462 0.949 . S
C2459 C2460 1.349 . S
C2459 C2461 1.327 . S
C2459 H2482 0.950 . S
C2460 C2459 1.349 . S
C2460 C2472 1.349 . S
C2461 C2459 1.327 . S
C2461 C2477 1.429 . S
C2461 H2483 0.950 . S
C2462 H2458 0.949 . S
C2462 C2470 1.574 . S
C2462 C2478 1.368 . S
H2463 C2471 0.950 . S
H2464 C2469 0.950 . S
H2465 C2470 0.949 . S
H2466 C2472 0.950 . S
H2467 C2473 0.950 . S
H2468 C2474 0.949 . S
C2469 H2464 0.950 . S
C2469 C2471 1.327 . S
C2469 C2475 1.429 . S
C2470 C2462 1.574 . S
C2470 H2465 0.949 . S
C2470 C2476 1.368 . S
C2471 C2455 1.349 . S
C2471 H2463 0.950 . S
C2471 C2469 1.327 . S
C2472 C2460 1.349 . S
C2472 H2466 0.950 . S
C2472 C2473 1.327 . S
C2473 H2467 0.950 . S
C2473 C2472 1.327 . S
C2473 C2477 1.429 . S
C2474 C2457 1.574 . S
C2474 H2468 0.949 . S
C2474 C2478 1.368 . S
C2475 C2456 1.429 . S
C2475 C2469 1.429 . S
C2475 C2476 1.523 . S
C2476 C2457 1.368 . S
C2476 C2470 1.368 . S
C2476 C2475 1.523 . S
C2477 C2461 1.429 . S
C2477 C2473 1.429 . S
C2477 C2478 1.523 . S
C2478 C2462 1.368 . S
C2478 C2474 1.368 . S
C2478 C2477 1.523 . S
H2479 C2454 0.950 . S
H2480 C2456 0.950 . S
H2481 C2457 0.949 . S
H2482 C2459 0.950 . S
H2483 C2461 0.950 . S
C2484 C2485 1.349 . S
C2484 C2486 1.327 . S
C2484 H2509 0.950 . S
C2485 C2484 1.349 . S
C2485 C2501 1.349 . S
C2486 C2484 1.327 . S
C2486 C2505 1.429 . S
C2486 H2510 0.950 . S
C2487 C2504 1.574 . S
C2487 C2506 1.368 . S
C2487 H2511 0.949 . S
H2488 C2492 0.949 . S
C2489 C2490 1.349 . S
C2489 C2491 1.327 . S
C2489 H2512 0.950 . S
C2490 C2489 1.349 . S
C2490 C2502 1.349 . S
C2491 C2489 1.327 . S
C2491 C2507 1.429 . S
C2491 H2513 0.950 . S
C2492 H2488 0.949 . S
C2492 C2500 1.574 . S
C2492 C2508 1.368 . S
H2493 C2501 0.950 . S
H2494 C2499 0.950 . S
H2495 C2500 0.949 . S
H2496 C2502 0.950 . S
H2497 C2503 0.950 . S
H2498 C2504 0.949 . S
C2499 H2494 0.950 . S
C2499 C2501 1.327 . S
C2499 C2505 1.429 . S
C2500 C2492 1.574 . S
C2500 H2495 0.949 . S
C2500 C2506 1.368 . S
C2501 C2485 1.349 . S
C2501 H2493 0.950 . S
C2501 C2499 1.327 . S
C2502 C2490 1.349 . S
C2502 H2496 0.950 . S
C2502 C2503 1.327 . S
C2503 H2497 0.950 . S
C2503 C2502 1.327 . S
C2503 C2507 1.429 . S
C2504 C2487 1.574 . S
C2504 H2498 0.949 . S
C2504 C2508 1.368 . S
C2505 C2486 1.429 . S
C2505 C2499 1.429 . S
C2505 C2506 1.523 . S
C2506 C2487 1.368 . S
C2506 C2500 1.368 . S
C2506 C2505 1.523 . S
C2507 C2491 1.429 . S
C2507 C2503 1.429 . S
C2507 C2508 1.523 . S
C2508 C2492 1.368 . S
C2508 C2504 1.368 . S
C2508 C2507 1.523 . S
H2509 C2484 0.950 . S
H2510 C2486 0.950 . S
H2511 C2487 0.949 . S
H2512 C2489 0.950 . S
H2513 C2491 0.950 . S
C2514 C2515 1.349 . S
C2514 C2516 1.327 . S
C2514 H2539 0.950 . S
C2515 C2514 1.349 . S
C2515 C2531 1.349 . S
C2516 C2514 1.327 . S
C2516 C2535 1.429 . S
C2516 H2540 0.950 . S
C2517 C2534 1.574 . S
C2517 C2536 1.368 . S
C2517 H2541 0.949 . S
H2518 C2522 0.949 . S
C2519 C2520 1.349 . S
C2519 C2521 1.327 . S
C2519 H2542 0.950 . S
C2520 C2519 1.349 . S
C2520 C2532 1.349 . S
C2521 C2519 1.327 . S
C2521 C2537 1.429 . S
C2521 H2543 0.950 . S
C2522 H2518 0.949 . S
C2522 C2530 1.574 . S
C2522 C2538 1.368 . S
H2523 C2531 0.950 . S
H2524 C2529 0.950 . S
H2525 C2530 0.949 . S
H2526 C2532 0.950 . S
H2527 C2533 0.950 . S
H2528 C2534 0.949 . S
C2529 H2524 0.950 . S
C2529 C2531 1.327 . S
C2529 C2535 1.429 . S
C2530 C2522 1.574 . S
C2530 H2525 0.949 . S
C2530 C2536 1.368 . S
C2531 C2515 1.349 . S
C2531 H2523 0.950 . S
C2531 C2529 1.327 . S
C2532 C2520 1.349 . S
C2532 H2526 0.950 . S
C2532 C2533 1.327 . S
C2533 H2527 0.950 . S
C2533 C2532 1.327 . S
C2533 C2537 1.429 . S
C2534 C2517 1.574 . S
C2534 H2528 0.949 . S
C2534 C2538 1.368 . S
C2535 C2516 1.429 . S
C2535 C2529 1.429 . S
C2535 C2536 1.523 . S
C2536 C2517 1.368 . S
C2536 C2530 1.368 . S
C2536 C2535 1.523 . S
C2537 C2521 1.429 . S
C2537 C2533 1.429 . S
C2537 C2538 1.523 . S
C2538 C2522 1.368 . S
C2538 C2534 1.368 . S
C2538 C2537 1.523 . S
H2539 C2514 0.950 . S
H2540 C2516 0.950 . S
H2541 C2517 0.949 . S
H2542 C2519 0.950 . S
H2543 C2521 0.950 . S
C2544 C2545 1.349 . S
C2544 C2546 1.327 . S
C2544 H2569 0.950 . S
C2545 C2544 1.349 . S
C2545 C2561 1.349 . S
C2546 C2544 1.327 . S
C2546 C2565 1.429 . S
C2546 H2570 0.950 . S
C2547 C2564 1.574 . S
C2547 C2566 1.368 . S
C2547 H2571 0.949 . S
H2548 C2552 0.949 . S
C2549 C2550 1.349 . S
C2549 C2551 1.327 . S
C2549 H2572 0.950 . S
C2550 C2549 1.349 . S
C2550 C2562 1.349 . S
C2551 C2549 1.327 . S
C2551 C2567 1.429 . S
C2551 H2573 0.950 . S
C2552 H2548 0.949 . S
C2552 C2560 1.574 . S
C2552 C2568 1.368 . S
H2553 C2561 0.950 . S
H2554 C2559 0.950 . S
H2555 C2560 0.949 . S
H2556 C2562 0.950 . S
H2557 C2563 0.950 . S
H2558 C2564 0.949 . S
C2559 H2554 0.950 . S
C2559 C2561 1.327 . S
C2559 C2565 1.429 . S
C2560 C2552 1.574 . S
C2560 H2555 0.949 . S
C2560 C2566 1.368 . S
C2561 C2545 1.349 . S
C2561 H2553 0.950 . S
C2561 C2559 1.327 . S
C2562 C2550 1.349 . S
C2562 H2556 0.950 . S
C2562 C2563 1.327 . S
C2563 H2557 0.950 . S
C2563 C2562 1.327 . S
C2563 C2567 1.429 . S
C2564 C2547 1.574 . S
C2564 H2558 0.949 . S
C2564 C2568 1.368 . S
C2565 C2546 1.429 . S
C2565 C2559 1.429 . S
C2565 C2566 1.523 . S
C2566 C2547 1.368 . S
C2566 C2560 1.368 . S
C2566 C2565 1.523 . S
C2567 C2551 1.429 . S
C2567 C2563 1.429 . S
C2567 C2568 1.523 . S
C2568 C2552 1.368 . S
C2568 C2564 1.368 . S
C2568 C2567 1.523 . S
H2569 C2544 0.950 . S
H2570 C2546 0.950 . S
H2571 C2547 0.949 . S
H2572 C2549 0.950 . S
H2573 C2551 0.950 . S
C2574 C2575 1.349 . S
C2574 C2576 1.327 . S
C2574 H2599 0.950 . S
C2575 C2574 1.349 . S
C2575 C2591 1.349 . S
C2576 C2574 1.327 . S
C2576 C2595 1.429 . S
C2576 H2600 0.950 . S
C2577 C2594 1.574 . S
C2577 C2596 1.368 . S
C2577 H2601 0.949 . S
H2578 C2582 0.949 . S
C2579 C2580 1.349 . S
C2579 C2581 1.327 . S
C2579 H2602 0.950 . S
C2580 C2579 1.349 . S
C2580 C2592 1.349 . S
C2581 C2579 1.327 . S
C2581 C2597 1.429 . S
C2581 H2603 0.950 . S
C2582 H2578 0.949 . S
C2582 C2590 1.574 . S
C2582 C2598 1.368 . S
H2583 C2591 0.950 . S
H2584 C2589 0.950 . S
H2585 C2590 0.949 . S
H2586 C2592 0.950 . S
H2587 C2593 0.950 . S
H2588 C2594 0.949 . S
C2589 H2584 0.950 . S
C2589 C2591 1.327 . S
C2589 C2595 1.429 . S
C2590 C2582 1.574 . S
C2590 H2585 0.949 . S
C2590 C2596 1.368 . S
C2591 C2575 1.349 . S
C2591 H2583 0.950 . S
C2591 C2589 1.327 . S
C2592 C2580 1.349 . S
C2592 H2586 0.950 . S
C2592 C2593 1.327 . S
C2593 H2587 0.950 . S
C2593 C2592 1.327 . S
C2593 C2597 1.429 . S
C2594 C2577 1.574 . S
C2594 H2588 0.949 . S
C2594 C2598 1.368 . S
C2595 C2576 1.429 . S
C2595 C2589 1.429 . S
C2595 C2596 1.523 . S
C2596 C2577 1.368 . S
C2596 C2590 1.368 . S
C2596 C2595 1.523 . S
C2597 C2581 1.429 . S
C2597 C2593 1.429 . S
C2597 C2598 1.523 . S
C2598 C2582 1.368 . S
C2598 C2594 1.368 . S
C2598 C2597 1.523 . S
H2599 C2574 0.950 . S
H2600 C2576 0.950 . S
H2601 C2577 0.949 . S
H2602 C2579 0.950 . S
H2603 C2581 0.950 . S
C2604 C2605 1.349 . S
C2604 C2606 1.327 . S
C2604 H2629 0.950 . S
C2605 C2604 1.349 . S
C2605 C2621 1.349 . S
C2606 C2604 1.327 . S
C2606 C2625 1.429 . S
C2606 H2630 0.950 . S
C2607 C2624 1.574 . S
C2607 C2626 1.368 . S
C2607 H2631 0.949 . S
H2608 C2612 0.949 . S
C2609 C2610 1.349 . S
C2609 C2611 1.327 . S
C2609 H2632 0.950 . S
C2610 C2609 1.349 . S
C2610 C2622 1.349 . S
C2611 C2609 1.327 . S
C2611 C2627 1.429 . S
C2611 H2633 0.950 . S
C2612 H2608 0.949 . S
C2612 C2620 1.574 . S
C2612 C2628 1.368 . S
H2613 C2621 0.950 . S
H2614 C2619 0.950 . S
H2615 C2620 0.949 . S
H2616 C2622 0.950 . S
H2617 C2623 0.950 . S
H2618 C2624 0.949 . S
C2619 H2614 0.950 . S
C2619 C2621 1.327 . S
C2619 C2625 1.429 . S
C2620 C2612 1.574 . S
C2620 H2615 0.949 . S
C2620 C2626 1.368 . S
C2621 C2605 1.349 . S
C2621 H2613 0.950 . S
C2621 C2619 1.327 . S
C2622 C2610 1.349 . S
C2622 H2616 0.950 . S
C2622 C2623 1.327 . S
C2623 H2617 0.950 . S
C2623 C2622 1.327 . S
C2623 C2627 1.429 . S
C2624 C2607 1.574 . S
C2624 H2618 0.949 . S
C2624 C2628 1.368 . S
C2625 C2606 1.429 . S
C2625 C2619 1.429 . S
C2625 C2626 1.523 . S
C2626 C2607 1.368 . S
C2626 C2620 1.368 . S
C2626 C2625 1.523 . S
C2627 C2611 1.429 . S
C2627 C2623 1.429 . S
C2627 C2628 1.523 . S
C2628 C2612 1.368 . S
C2628 C2624 1.368 . S
C2628 C2627 1.523 . S
H2629 C2604 0.950 . S
H2630 C2606 0.950 . S
H2631 C2607 0.949 . S
H2632 C2609 0.950 . S
H2633 C2611 0.950 . S
C2634 C2635 1.349 . S
C2634 C2636 1.327 . S
C2634 H2659 0.950 . S
C2635 C2634 1.349 . S
C2635 C2651 1.349 . S
C2636 C2634 1.327 . S
C2636 C2655 1.429 . S
C2636 H2660 0.950 . S
C2637 C2654 1.574 . S
C2637 C2656 1.368 . S
C2637 H2661 0.949 . S
H2638 C2642 0.949 . S
C2639 C2640 1.349 . S
C2639 C2641 1.327 . S
C2639 H2662 0.950 . S
C2640 C2639 1.349 . S
C2640 C2652 1.349 . S
C2641 C2639 1.327 . S
C2641 C2657 1.429 . S
C2641 H2663 0.950 . S
C2642 H2638 0.949 . S
C2642 C2650 1.574 . S
C2642 C2658 1.368 . S
H2643 C2651 0.950 . S
H2644 C2649 0.950 . S
H2645 C2650 0.949 . S
H2646 C2652 0.950 . S
H2647 C2653 0.950 . S
H2648 C2654 0.949 . S
C2649 H2644 0.950 . S
C2649 C2651 1.327 . S
C2649 C2655 1.429 . S
C2650 C2642 1.574 . S
C2650 H2645 0.949 . S
C2650 C2656 1.368 . S
C2651 C2635 1.349 . S
C2651 H2643 0.950 . S
C2651 C2649 1.327 . S
C2652 C2640 1.349 . S
C2652 H2646 0.950 . S
C2652 C2653 1.327 . S
C2653 H2647 0.950 . S
C2653 C2652 1.327 . S
C2653 C2657 1.429 . S
C2654 C2637 1.574 . S
C2654 H2648 0.949 . S
C2654 C2658 1.368 . S
C2655 C2636 1.429 . S
C2655 C2649 1.429 . S
C2655 C2656 1.523 . S
C2656 C2637 1.368 . S
C2656 C2650 1.368 . S
C2656 C2655 1.523 . S
C2657 C2641 1.429 . S
C2657 C2653 1.429 . S
C2657 C2658 1.523 . S
C2658 C2642 1.368 . S
C2658 C2654 1.368 . S
C2658 C2657 1.523 . S
H2659 C2634 0.950 . S
H2660 C2636 0.950 . S
H2661 C2637 0.949 . S
H2662 C2639 0.950 . S
H2663 C2641 0.950 . S
C2664 C2665 1.349 . S
C2664 C2666 1.327 . S
C2664 H2689 0.950 . S
C2665 C2664 1.349 . S
C2665 C2681 1.349 . S
C2666 C2664 1.327 . S
C2666 C2685 1.429 . S
C2666 H2690 0.950 . S
C2667 C2684 1.574 . S
C2667 C2686 1.368 . S
C2667 H2691 0.949 . S
H2668 C2672 0.949 . S
C2669 C2670 1.349 . S
C2669 C2671 1.327 . S
C2669 H2692 0.950 . S
C2670 C2669 1.349 . S
C2670 C2682 1.349 . S
C2671 C2669 1.327 . S
C2671 C2687 1.429 . S
C2671 H2693 0.950 . S
C2672 H2668 0.949 . S
C2672 C2680 1.574 . S
C2672 C2688 1.368 . S
H2673 C2681 0.950 . S
H2674 C2679 0.950 . S
H2675 C2680 0.949 . S
H2676 C2682 0.950 . S
H2677 C2683 0.950 . S
H2678 C2684 0.949 . S
C2679 H2674 0.950 . S
C2679 C2681 1.327 . S
C2679 C2685 1.429 . S
C2680 C2672 1.574 . S
C2680 H2675 0.949 . S
C2680 C2686 1.368 . S
C2681 C2665 1.349 . S
C2681 H2673 0.950 . S
C2681 C2679 1.327 . S
C2682 C2670 1.349 . S
C2682 H2676 0.950 . S
C2682 C2683 1.327 . S
C2683 H2677 0.950 . S
C2683 C2682 1.327 . S
C2683 C2687 1.429 . S
C2684 C2667 1.574 . S
C2684 H2678 0.949 . S
C2684 C2688 1.368 . S
C2685 C2666 1.429 . S
C2685 C2679 1.429 . S
C2685 C2686 1.523 . S
C2686 C2667 1.368 . S
C2686 C2680 1.368 . S
C2686 C2685 1.523 . S
C2687 C2671 1.429 . S
C2687 C2683 1.429 . S
C2687 C2688 1.523 . S
C2688 C2672 1.368 . S
C2688 C2684 1.368 . S
C2688 C2687 1.523 . S
H2689 C2664 0.950 . S
H2690 C2666 0.950 . S
H2691 C2667 0.949 . S
H2692 C2669 0.950 . S
H2693 C2671 0.950 . S
C2694 C2695 1.349 . S
C2694 C2696 1.327 . S
C2694 H2719 0.950 . S
C2695 C2694 1.349 . S
C2695 C2711 1.349 . S
C2696 C2694 1.327 . S
C2696 C2715 1.429 . S
C2696 H2720 0.950 . S
C2697 C2714 1.574 . S
C2697 C2716 1.368 . S
C2697 H2721 0.949 . S
H2698 C2702 0.949 . S
C2699 C2700 1.349 . S
C2699 C2701 1.327 . S
C2699 H2722 0.950 . S
C2700 C2699 1.349 . S
C2700 C2712 1.349 . S
C2701 C2699 1.327 . S
C2701 C2717 1.429 . S
C2701 H2723 0.950 . S
C2702 H2698 0.949 . S
C2702 C2710 1.574 . S
C2702 C2718 1.368 . S
H2703 C2711 0.950 . S
H2704 C2709 0.950 . S
H2705 C2710 0.949 . S
H2706 C2712 0.950 . S
H2707 C2713 0.950 . S
H2708 C2714 0.949 . S
C2709 H2704 0.950 . S
C2709 C2711 1.327 . S
C2709 C2715 1.429 . S
C2710 C2702 1.574 . S
C2710 H2705 0.949 . S
C2710 C2716 1.368 . S
C2711 C2695 1.349 . S
C2711 H2703 0.950 . S
C2711 C2709 1.327 . S
C2712 C2700 1.349 . S
C2712 H2706 0.950 . S
C2712 C2713 1.327 . S
C2713 H2707 0.950 . S
C2713 C2712 1.327 . S
C2713 C2717 1.429 . S
C2714 C2697 1.574 . S
C2714 H2708 0.949 . S
C2714 C2718 1.368 . S
C2715 C2696 1.429 . S
C2715 C2709 1.429 . S
C2715 C2716 1.523 . S
C2716 C2697 1.368 . S
C2716 C2710 1.368 . S
C2716 C2715 1.523 . S
C2717 C2701 1.429 . S
C2717 C2713 1.429 . S
C2717 C2718 1.523 . S
C2718 C2702 1.368 . S
C2718 C2714 1.368 . S
C2718 C2717 1.523 . S
H2719 C2694 0.950 . S
H2720 C2696 0.950 . S
H2721 C2697 0.949 . S
H2722 C2699 0.950 . S
H2723 C2701 0.950 . S
C2724 C2725 1.349 . S
C2724 C2726 1.327 . S
C2724 H2749 0.950 . S
C2725 C2724 1.349 . S
C2725 C2741 1.349 . S
C2726 C2724 1.327 . S
C2726 C2745 1.429 . S
C2726 H2750 0.950 . S
C2727 C2744 1.574 . S
C2727 C2746 1.368 . S
C2727 H2751 0.949 . S
H2728 C2732 0.949 . S
C2729 C2730 1.349 . S
C2729 C2731 1.327 . S
C2729 H2752 0.950 . S
C2730 C2729 1.349 . S
C2730 C2742 1.349 . S
C2731 C2729 1.327 . S
C2731 C2747 1.429 . S
C2731 H2753 0.950 . S
C2732 H2728 0.949 . S
C2732 C2740 1.574 . S
C2732 C2748 1.368 . S
H2733 C2741 0.950 . S
H2734 C2739 0.950 . S
H2735 C2740 0.949 . S
H2736 C2742 0.950 . S
H2737 C2743 0.950 . S
H2738 C2744 0.949 . S
C2739 H2734 0.950 . S
C2739 C2741 1.327 . S
C2739 C2745 1.429 . S
C2740 C2732 1.574 . S
C2740 H2735 0.949 . S
C2740 C2746 1.368 . S
C2741 C2725 1.349 . S
C2741 H2733 0.950 . S
C2741 C2739 1.327 . S
C2742 C2730 1.349 . S
C2742 H2736 0.950 . S
C2742 C2743 1.327 . S
C2743 H2737 0.950 . S
C2743 C2742 1.327 . S
C2743 C2747 1.429 . S
C2744 C2727 1.574 . S
C2744 H2738 0.949 . S
C2744 C2748 1.368 . S
C2745 C2726 1.429 . S
C2745 C2739 1.429 . S
C2745 C2746 1.523 . S
C2746 C2727 1.368 . S
C2746 C2740 1.368 . S
C2746 C2745 1.523 . S
C2747 C2731 1.429 . S
C2747 C2743 1.429 . S
C2747 C2748 1.523 . S
C2748 C2732 1.368 . S
C2748 C2744 1.368 . S
C2748 C2747 1.523 . S
H2749 C2724 0.950 . S
H2750 C2726 0.950 . S
H2751 C2727 0.949 . S
H2752 C2729 0.950 . S
H2753 C2731 0.950 . S
C2754 C2755 1.349 . S
C2754 C2756 1.327 . S
C2754 H2779 0.950 . S
C2755 C2754 1.349 . S
C2755 C2771 1.349 . S
C2756 C2754 1.327 . S
C2756 C2775 1.429 . S
C2756 H2780 0.950 . S
C2757 C2774 1.574 . S
C2757 C2776 1.368 . S
C2757 H2781 0.949 . S
H2758 C2762 0.949 . S
C2759 C2760 1.349 . S
C2759 C2761 1.327 . S
C2759 H2782 0.950 . S
C2760 C2759 1.349 . S
C2760 C2772 1.349 . S
C2761 C2759 1.327 . S
C2761 C2777 1.429 . S
C2761 H2783 0.950 . S
C2762 H2758 0.949 . S
C2762 C2770 1.574 . S
C2762 C2778 1.368 . S
H2763 C2771 0.950 . S
H2764 C2769 0.950 . S
H2765 C2770 0.949 . S
H2766 C2772 0.950 . S
H2767 C2773 0.950 . S
H2768 C2774 0.949 . S
C2769 H2764 0.950 . S
C2769 C2771 1.327 . S
C2769 C2775 1.429 . S
C2770 C2762 1.574 . S
C2770 H2765 0.949 . S
C2770 C2776 1.368 . S
C2771 C2755 1.349 . S
C2771 H2763 0.950 . S
C2771 C2769 1.327 . S
C2772 C2760 1.349 . S
C2772 H2766 0.950 . S
C2772 C2773 1.327 . S
C2773 H2767 0.950 . S
C2773 C2772 1.327 . S
C2773 C2777 1.429 . S
C2774 C2757 1.574 . S
C2774 H2768 0.949 . S
C2774 C2778 1.368 . S
C2775 C2756 1.429 . S
C2775 C2769 1.429 . S
C2775 C2776 1.523 . S
C2776 C2757 1.368 . S
C2776 C2770 1.368 . S
C2776 C2775 1.523 . S
C2777 C2761 1.429 . S
C2777 C2773 1.429 . S
C2777 C2778 1.523 . S
C2778 C2762 1.368 . S
C2778 C2774 1.368 . S
C2778 C2777 1.523 . S
H2779 C2754 0.950 . S
H2780 C2756 0.950 . S
H2781 C2757 0.949 . S
H2782 C2759 0.950 . S
H2783 C2761 0.950 . S
C2784 C2785 1.349 . S
C2784 C2786 1.327 . S
C2784 H2809 0.950 . S
C2785 C2784 1.349 . S
C2785 C2801 1.349 . S
C2786 C2784 1.327 . S
C2786 C2805 1.429 . S
C2786 H2810 0.950 . S
C2787 C2804 1.574 1_554 S
C2787 C2806 1.368 . S
C2787 H2811 0.949 . S
H2788 C2792 0.949 . S
C2789 C2790 1.349 . S
C2789 C2791 1.327 . S
C2789 H2812 0.950 . S
C2790 C2789 1.349 . S
C2790 C2802 1.349 . S
C2791 C2789 1.327 . S
C2791 C2807 1.429 . S
C2791 H2813 0.950 . S
C2792 H2788 0.949 . S
C2792 C2800 1.574 1_556 S
C2792 C2808 1.368 . S
H2793 C2801 0.950 . S
H2794 C2799 0.950 . S
H2795 C2800 0.949 . S
H2796 C2802 0.950 . S
H2797 C2803 0.950 . S
H2798 C2804 0.949 . S
C2799 H2794 0.950 . S
C2799 C2801 1.327 . S
C2799 C2805 1.429 . S
C2800 C2792 1.574 1_554 S
C2800 H2795 0.949 . S
C2800 C2806 1.368 . S
C2801 C2785 1.349 . S
C2801 H2793 0.950 . S
C2801 C2799 1.327 . S
C2802 C2790 1.349 . S
C2802 H2796 0.950 . S
C2802 C2803 1.327 . S
C2803 H2797 0.950 . S
C2803 C2802 1.327 . S
C2803 C2807 1.429 . S
C2804 C2787 1.574 1_556 S
C2804 H2798 0.949 . S
C2804 C2808 1.368 . S
C2805 C2786 1.429 . S
C2805 C2799 1.429 . S
C2805 C2806 1.523 . S
C2806 C2787 1.368 . S
C2806 C2800 1.368 . S
C2806 C2805 1.523 . S
C2807 C2791 1.429 . S
C2807 C2803 1.429 . S
C2807 C2808 1.523 . S
C2808 C2792 1.368 . S
C2808 C2804 1.368 . S
C2808 C2807 1.523 . S
H2809 C2784 0.950 . S
H2810 C2786 0.950 . S
H2811 C2787 0.949 . S
H2812 C2789 0.950 . S
H2813 C2791 0.950 . S
C2814 C2815 1.349 . S
C2814 C2816 1.327 . S
C2814 H2839 0.950 . S
C2815 C2814 1.349 . S
C2815 C2831 1.349 . S
C2816 C2814 1.327 . S
C2816 C2835 1.429 . S
C2816 H2840 0.950 . S
C2817 C2834 1.574 1_556 S
C2817 C2836 1.368 . S
C2817 H2841 0.949 . S
H2818 C2822 0.949 . S
C2819 C2820 1.349 . S
C2819 C2821 1.327 . S
C2819 H2842 0.950 . S
C2820 C2819 1.349 . S
C2820 C2832 1.349 . S
C2821 C2819 1.327 . S
C2821 C2837 1.429 . S
C2821 H2843 0.950 . S
C2822 H2818 0.949 . S
C2822 C2830 1.574 1_554 S
C2822 C2838 1.368 . S
H2823 C2831 0.950 . S
H2824 C2829 0.950 . S
H2825 C2830 0.949 . S
H2826 C2832 0.950 . S
H2827 C2833 0.950 . S
H2828 C2834 0.949 . S
C2829 H2824 0.950 . S
C2829 C2831 1.327 . S
C2829 C2835 1.429 . S
C2830 C2822 1.574 1_556 S
C2830 H2825 0.949 . S
C2830 C2836 1.368 . S
C2831 C2815 1.349 . S
C2831 H2823 0.950 . S
C2831 C2829 1.327 . S
C2832 C2820 1.349 . S
C2832 H2826 0.950 . S
C2832 C2833 1.327 . S
C2833 H2827 0.950 . S
C2833 C2832 1.327 . S
C2833 C2837 1.429 . S
C2834 C2817 1.574 1_554 S
C2834 H2828 0.949 . S
C2834 C2838 1.368 . S
C2835 C2816 1.429 . S
C2835 C2829 1.429 . S
C2835 C2836 1.523 . S
C2836 C2817 1.368 . S
C2836 C2830 1.368 . S
C2836 C2835 1.523 . S
C2837 C2821 1.429 . S
C2837 C2833 1.429 . S
C2837 C2838 1.523 . S
C2838 C2822 1.368 . S
C2838 C2834 1.368 . S
C2838 C2837 1.523 . S
H2839 C2814 0.950 . S
H2840 C2816 0.950 . S
H2841 C2817 0.949 . S
H2842 C2819 0.950 . S
H2843 C2821 0.950 . S
C2844 C2845 1.349 . S
C2844 C2846 1.327 . S
C2844 H2869 0.950 . S
C2845 C2844 1.349 . S
C2845 C2861 1.349 . S
C2846 C2844 1.327 . S
C2846 C2865 1.429 . S
C2846 H2870 0.950 . S
C2847 C2864 1.574 1_554 S
C2847 C2866 1.368 . S
C2847 H2871 0.949 . S
H2848 C2852 0.949 . S
C2849 C2850 1.349 . S
C2849 C2851 1.327 . S
C2849 H2872 0.950 . S
C2850 C2849 1.349 . S
C2850 C2862 1.349 . S
C2851 C2849 1.327 . S
C2851 C2867 1.429 . S
C2851 H2873 0.950 . S
C2852 H2848 0.949 . S
C2852 C2860 1.574 1_556 S
C2852 C2868 1.368 . S
H2853 C2861 0.950 . S
H2854 C2859 0.950 . S
H2855 C2860 0.949 . S
H2856 C2862 0.950 . S
H2857 C2863 0.950 . S
H2858 C2864 0.949 . S
C2859 H2854 0.950 . S
C2859 C2861 1.327 . S
C2859 C2865 1.429 . S
C2860 C2852 1.574 1_554 S
C2860 H2855 0.949 . S
C2860 C2866 1.368 . S
C2861 C2845 1.349 . S
C2861 H2853 0.950 . S
C2861 C2859 1.327 . S
C2862 C2850 1.349 . S
C2862 H2856 0.950 . S
C2862 C2863 1.327 . S
C2863 H2857 0.950 . S
C2863 C2862 1.327 . S
C2863 C2867 1.429 . S
C2864 C2847 1.574 1_556 S
C2864 H2858 0.949 . S
C2864 C2868 1.368 . S
C2865 C2846 1.429 . S
C2865 C2859 1.429 . S
C2865 C2866 1.523 . S
C2866 C2847 1.368 . S
C2866 C2860 1.368 . S
C2866 C2865 1.523 . S
C2867 C2851 1.429 . S
C2867 C2863 1.429 . S
C2867 C2868 1.523 . S
C2868 C2852 1.368 . S
C2868 C2864 1.368 . S
C2868 C2867 1.523 . S
H2869 C2844 0.950 . S
H2870 C2846 0.950 . S
H2871 C2847 0.949 . S
H2872 C2849 0.950 . S
H2873 C2851 0.950 . S
C2874 C2875 1.349 . S
C2874 C2876 1.327 . S
C2874 H2899 0.950 . S
C2875 C2874 1.349 . S
C2875 C2891 1.349 . S
C2876 C2874 1.327 . S
C2876 C2895 1.429 . S
C2876 H2900 0.950 . S
C2877 C2894 1.574 1_554 S
C2877 C2896 1.368 . S
C2877 H2901 0.949 . S
H2878 C2882 0.949 . S
C2879 C2880 1.349 . S
C2879 C2881 1.327 . S
C2879 H2902 0.950 . S
C2880 C2879 1.349 . S
C2880 C2892 1.349 . S
C2881 C2879 1.327 . S
C2881 C2897 1.429 . S
C2881 H2903 0.950 . S
C2882 H2878 0.949 . S
C2882 C2890 1.574 1_556 S
C2882 C2898 1.368 . S
H2883 C2891 0.950 . S
H2884 C2889 0.950 . S
H2885 C2890 0.949 . S
H2886 C2892 0.950 . S
H2887 C2893 0.950 . S
H2888 C2894 0.949 . S
C2889 H2884 0.950 . S
C2889 C2891 1.327 . S
C2889 C2895 1.429 . S
C2890 C2882 1.574 1_554 S
C2890 H2885 0.949 . S
C2890 C2896 1.368 . S
C2891 C2875 1.349 . S
C2891 H2883 0.950 . S
C2891 C2889 1.327 . S
C2892 C2880 1.349 . S
C2892 H2886 0.950 . S
C2892 C2893 1.327 . S
C2893 H2887 0.950 . S
C2893 C2892 1.327 . S
C2893 C2897 1.429 . S
C2894 C2877 1.574 1_556 S
C2894 H2888 0.949 . S
C2894 C2898 1.368 . S
C2895 C2876 1.429 . S
C2895 C2889 1.429 . S
C2895 C2896 1.523 . S
C2896 C2877 1.368 . S
C2896 C2890 1.368 . S
C2896 C2895 1.523 . S
C2897 C2881 1.429 . S
C2897 C2893 1.429 . S
C2897 C2898 1.523 . S
C2898 C2882 1.368 . S
C2898 C2894 1.368 . S
C2898 C2897 1.523 . S
H2899 C2874 0.950 . S
H2900 C2876 0.950 . S
H2901 C2877 0.949 . S
H2902 C2879 0.950 . S
H2903 C2881 0.950 . S
C2904 C2905 1.349 . S
C2904 C2906 1.327 . S
C2904 H2929 0.950 . S
C2905 C2904 1.349 . S
C2905 C2921 1.349 . S
C2906 C2904 1.327 . S
C2906 C2925 1.429 . S
C2906 H2930 0.950 . S
C2907 C2924 1.574 1_556 S
C2907 C2926 1.368 . S
C2907 H2931 0.949 . S
H2908 C2912 0.949 . S
C2909 C2910 1.349 . S
C2909 C2911 1.327 . S
C2909 H2932 0.950 . S
C2910 C2909 1.349 . S
C2910 C2922 1.349 . S
C2911 C2909 1.327 . S
C2911 C2927 1.429 . S
C2911 H2933 0.950 . S
C2912 H2908 0.949 . S
C2912 C2920 1.574 1_554 S
C2912 C2928 1.368 . S
H2913 C2921 0.950 . S
H2914 C2919 0.950 . S
H2915 C2920 0.949 . S
H2916 C2922 0.950 . S
H2917 C2923 0.950 . S
H2918 C2924 0.949 . S
C2919 H2914 0.950 . S
C2919 C2921 1.327 . S
C2919 C2925 1.429 . S
C2920 C2912 1.574 1_556 S
C2920 H2915 0.949 . S
C2920 C2926 1.368 . S
C2921 C2905 1.349 . S
C2921 H2913 0.950 . S
C2921 C2919 1.327 . S
C2922 C2910 1.349 . S
C2922 H2916 0.950 . S
C2922 C2923 1.327 . S
C2923 H2917 0.950 . S
C2923 C2922 1.327 . S
C2923 C2927 1.429 . S
C2924 C2907 1.574 1_554 S
C2924 H2918 0.949 . S
C2924 C2928 1.368 . S
C2925 C2906 1.429 . S
C2925 C2919 1.429 . S
C2925 C2926 1.523 . S
C2926 C2907 1.368 . S
C2926 C2920 1.368 . S
C2926 C2925 1.523 . S
C2927 C2911 1.429 . S
C2927 C2923 1.429 . S
C2927 C2928 1.523 . S
C2928 C2912 1.368 . S
C2928 C2924 1.368 . S
C2928 C2927 1.523 . S
H2929 C2904 0.950 . S
H2930 C2906 0.950 . S
H2931 C2907 0.949 . S
H2932 C2909 0.950 . S
H2933 C2911 0.950 . S
C2934 C2935 1.349 . S
C2934 C2936 1.327 . S
C2934 H2959 0.950 . S
C2935 C2934 1.349 . S
C2935 C2951 1.349 . S
C2936 C2934 1.327 . S
C2936 C2955 1.429 . S
C2936 H2960 0.950 . S
C2937 C2954 1.574 1_554 S
C2937 C2956 1.368 . S
C2937 H2961 0.949 . S
H2938 C2942 0.949 . S
C2939 C2940 1.349 . S
C2939 C2941 1.327 . S
C2939 H2962 0.950 . S
C2940 C2939 1.349 . S
C2940 C2952 1.349 . S
C2941 C2939 1.327 . S
C2941 C2957 1.429 . S
C2941 H2963 0.950 . S
C2942 H2938 0.949 . S
C2942 C2950 1.574 1_556 S
C2942 C2958 1.368 . S
H2943 C2951 0.950 . S
H2944 C2949 0.950 . S
H2945 C2950 0.949 . S
H2946 C2952 0.950 . S
H2947 C2953 0.950 . S
H2948 C2954 0.949 . S
C2949 H2944 0.950 . S
C2949 C2951 1.327 . S
C2949 C2955 1.429 . S
C2950 C2942 1.574 1_554 S
C2950 H2945 0.949 . S
C2950 C2956 1.368 . S
C2951 C2935 1.349 . S
C2951 H2943 0.950 . S
C2951 C2949 1.327 . S
C2952 C2940 1.349 . S
C2952 H2946 0.950 . S
C2952 C2953 1.327 . S
C2953 H2947 0.950 . S
C2953 C2952 1.327 . S
C2953 C2957 1.429 . S
C2954 C2937 1.574 1_556 S
C2954 H2948 0.949 . S
C2954 C2958 1.368 . S
C2955 C2936 1.429 . S
C2955 C2949 1.429 . S
C2955 C2956 1.523 . S
C2956 C2937 1.368 . S
C2956 C2950 1.368 . S
C2956 C2955 1.523 . S
C2957 C2941 1.429 . S
C2957 C2953 1.429 . S
C2957 C2958 1.523 . S
C2958 C2942 1.368 . S
C2958 C2954 1.368 . S
C2958 C2957 1.523 . S
H2959 C2934 0.950 . S
H2960 C2936 0.950 . S
H2961 C2937 0.949 . S
H2962 C2939 0.950 . S
H2963 C2941 0.950 . S
C2964 C2965 1.349 . S
C2964 C2966 1.327 . S
C2964 H2989 0.950 . S
C2965 C2964 1.349 . S
C2965 C2981 1.349 . S
C2966 C2964 1.327 . S
C2966 C2985 1.429 . S
C2966 H2990 0.950 . S
C2967 C2984 1.574 1_556 S
C2967 C2986 1.368 . S
C2967 H2991 0.949 . S
H2968 C2972 0.949 . S
C2969 C2970 1.349 . S
C2969 C2971 1.327 . S
C2969 H2992 0.950 . S
C2970 C2969 1.349 . S
C2970 C2982 1.349 . S
C2971 C2969 1.327 . S
C2971 C2987 1.429 . S
C2971 H2993 0.950 . S
C2972 H2968 0.949 . S
C2972 C2980 1.574 1_554 S
C2972 C2988 1.368 . S
H2973 C2981 0.950 . S
H2974 C2979 0.950 . S
H2975 C2980 0.949 . S
H2976 C2982 0.950 . S
H2977 C2983 0.950 . S
H2978 C2984 0.949 . S
C2979 H2974 0.950 . S
C2979 C2981 1.327 . S
C2979 C2985 1.429 . S
C2980 C2972 1.574 1_556 S
C2980 H2975 0.949 . S
C2980 C2986 1.368 . S
C2981 C2965 1.349 . S
C2981 H2973 0.950 . S
C2981 C2979 1.327 . S
C2982 C2970 1.349 . S
C2982 H2976 0.950 . S
C2982 C2983 1.327 . S
C2983 H2977 0.950 . S
C2983 C2982 1.327 . S
C2983 C2987 1.429 . S
C2984 C2967 1.574 1_554 S
C2984 H2978 0.949 . S
C2984 C2988 1.368 . S
C2985 C2966 1.429 . S
C2985 C2979 1.429 . S
C2985 C2986 1.523 . S
C2986 C2967 1.368 . S
C2986 C2980 1.368 . S
C2986 C2985 1.523 . S
C2987 C2971 1.429 . S
C2987 C2983 1.429 . S
C2987 C2988 1.523 . S
C2988 C2972 1.368 . S
C2988 C2984 1.368 . S
C2988 C2987 1.523 . S
H2989 C2964 0.950 . S
H2990 C2966 0.950 . S
H2991 C2967 0.949 . S
H2992 C2969 0.950 . S
H2993 C2971 0.950 . S
C2994 C2995 1.349 . S
C2994 C2996 1.327 . S
C2994 H3019 0.950 . S
C2995 C2994 1.349 . S
C2995 C3011 1.349 . S
C2996 C2994 1.327 . S
C2996 C3015 1.429 . S
C2996 H3020 0.950 . S
C2997 C3014 1.574 1_554 S
C2997 C3016 1.368 . S
C2997 H3021 0.949 . S
H2998 C3002 0.949 . S
C2999 C3000 1.349 . S
C2999 C3001 1.327 . S
C2999 H3022 0.950 . S
C3000 C2999 1.349 . S
C3000 C3012 1.349 . S
C3001 C2999 1.327 . S
C3001 C3017 1.429 . S
C3001 H3023 0.950 . S
C3002 H2998 0.949 . S
C3002 C3010 1.574 1_556 S
C3002 C3018 1.368 . S
H3003 C3011 0.950 . S
H3004 C3009 0.950 . S
H3005 C3010 0.949 . S
H3006 C3012 0.950 . S
H3007 C3013 0.950 . S
H3008 C3014 0.949 . S
C3009 H3004 0.950 . S
C3009 C3011 1.327 . S
C3009 C3015 1.429 . S
C3010 C3002 1.574 1_554 S
C3010 H3005 0.949 . S
C3010 C3016 1.368 . S
C3011 C2995 1.349 . S
C3011 H3003 0.950 . S
C3011 C3009 1.327 . S
C3012 C3000 1.349 . S
C3012 H3006 0.950 . S
C3012 C3013 1.327 . S
C3013 H3007 0.950 . S
C3013 C3012 1.327 . S
C3013 C3017 1.429 . S
C3014 C2997 1.574 1_556 S
C3014 H3008 0.949 . S
C3014 C3018 1.368 . S
C3015 C2996 1.429 . S
C3015 C3009 1.429 . S
C3015 C3016 1.523 . S
C3016 C2997 1.368 . S
C3016 C3010 1.368 . S
C3016 C3015 1.523 . S
C3017 C3001 1.429 . S
C3017 C3013 1.429 . S
C3017 C3018 1.523 . S
C3018 C3002 1.368 . S
C3018 C3014 1.368 . S
C3018 C3017 1.523 . S
H3019 C2994 0.950 . S
H3020 C2996 0.950 . S
H3021 C2997 0.949 . S
H3022 C2999 0.950 . S
H3023 C3001 0.950 . S
C3024 C3025 1.349 . S
C3024 C3026 1.327 . S
C3024 H3049 0.950 . S
C3025 C3024 1.349 . S
C3025 C3041 1.349 . S
C3026 C3024 1.327 . S
C3026 C3045 1.429 . S
C3026 H3050 0.950 . S
C3027 C3044 1.574 1_455 S
C3027 C3046 1.368 . S
C3027 H3051 0.949 . S
H3028 C3032 0.949 . S
C3029 C3030 1.349 . S
C3029 C3031 1.327 . S
C3029 H3052 0.950 . S
C3030 C3029 1.349 . S
C3030 C3042 1.349 . S
C3031 C3029 1.327 . S
C3031 C3047 1.429 . S
C3031 H3053 0.950 . S
C3032 H3028 0.949 . S
C3032 C3040 1.574 1_655 S
C3032 C3048 1.368 . S
H3033 C3041 0.950 . S
H3034 C3039 0.950 . S
H3035 C3040 0.949 . S
H3036 C3042 0.950 . S
H3037 C3043 0.950 . S
H3038 C3044 0.949 . S
C3039 H3034 0.950 . S
C3039 C3041 1.327 . S
C3039 C3045 1.429 . S
C3040 C3032 1.574 1_455 S
C3040 H3035 0.949 . S
C3040 C3046 1.368 . S
C3041 C3025 1.349 . S
C3041 H3033 0.950 . S
C3041 C3039 1.327 . S
C3042 C3030 1.349 . S
C3042 H3036 0.950 . S
C3042 C3043 1.327 . S
C3043 H3037 0.950 . S
C3043 C3042 1.327 . S
C3043 C3047 1.429 . S
C3044 C3027 1.574 1_655 S
C3044 H3038 0.949 . S
C3044 C3048 1.368 . S
C3045 C3026 1.429 . S
C3045 C3039 1.429 . S
C3045 C3046 1.523 . S
C3046 C3027 1.368 . S
C3046 C3040 1.368 . S
C3046 C3045 1.523 . S
C3047 C3031 1.429 . S
C3047 C3043 1.429 . S
C3047 C3048 1.523 . S
C3048 C3032 1.368 . S
C3048 C3044 1.368 . S
C3048 C3047 1.523 . S
H3049 C3024 0.950 . S
H3050 C3026 0.950 . S
H3051 C3027 0.949 . S
H3052 C3029 0.950 . S
H3053 C3031 0.950 . S
C3054 C3055 1.349 . S
C3054 C3056 1.327 . S
C3054 H3079 0.950 . S
C3055 C3054 1.349 . S
C3055 C3071 1.349 . S
C3056 C3054 1.327 . S
C3056 C3075 1.429 . S
C3056 H3080 0.950 . S
C3057 C3074 1.574 1_565 S
C3057 C3076 1.368 . S
C3057 H3081 0.949 . S
H3058 C3062 0.949 . S
C3059 C3060 1.349 . S
C3059 C3061 1.327 . S
C3059 H3082 0.950 . S
C3060 C3059 1.349 . S
C3060 C3072 1.349 . S
C3061 C3059 1.327 . S
C3061 C3077 1.429 . S
C3061 H3083 0.950 . S
C3062 H3058 0.949 . S
C3062 C3070 1.574 1_545 S
C3062 C3078 1.368 . S
H3063 C3071 0.950 . S
H3064 C3069 0.950 . S
H3065 C3070 0.949 . S
H3066 C3072 0.950 . S
H3067 C3073 0.950 . S
H3068 C3074 0.949 . S
C3069 H3064 0.950 . S
C3069 C3071 1.327 . S
C3069 C3075 1.429 . S
C3070 C3062 1.574 1_565 S
C3070 H3065 0.949 . S
C3070 C3076 1.368 . S
C3071 C3055 1.349 . S
C3071 H3063 0.950 . S
C3071 C3069 1.327 . S
C3072 C3060 1.349 . S
C3072 H3066 0.950 . S
C3072 C3073 1.327 . S
C3073 H3067 0.950 . S
C3073 C3072 1.327 . S
C3073 C3077 1.429 . S
C3074 C3057 1.574 1_545 S
C3074 H3068 0.949 . S
C3074 C3078 1.368 . S
C3075 C3056 1.429 . S
C3075 C3069 1.429 . S
C3075 C3076 1.523 . S
C3076 C3057 1.368 . S
C3076 C3070 1.368 . S
C3076 C3075 1.523 . S
C3077 C3061 1.429 . S
C3077 C3073 1.429 . S
C3077 C3078 1.523 . S
C3078 C3062 1.368 . S
C3078 C3074 1.368 . S
C3078 C3077 1.523 . S
H3079 C3054 0.950 . S
H3080 C3056 0.950 . S
H3081 C3057 0.949 . S
H3082 C3059 0.950 . S
H3083 C3061 0.950 . S
C3084 C3085 1.349 . S
C3084 C3086 1.327 . S
C3084 H3109 0.950 . S
C3085 C3084 1.349 . S
C3085 C3101 1.349 . S
C3086 C3084 1.327 . S
C3086 C3105 1.429 . S
C3086 H3110 0.950 . S
C3087 C3104 1.574 1_455 S
C3087 C3106 1.368 . S
C3087 H3111 0.949 . S
H3088 C3092 0.949 . S
C3089 C3090 1.349 . S
C3089 C3091 1.327 . S
C3089 H3112 0.950 . S
C3090 C3089 1.349 . S
C3090 C3102 1.349 . S
C3091 C3089 1.327 . S
C3091 C3107 1.429 . S
C3091 H3113 0.950 . S
C3092 H3088 0.949 . S
C3092 C3100 1.574 1_655 S
C3092 C3108 1.368 . S
H3093 C3101 0.950 . S
H3094 C3099 0.950 . S
H3095 C3100 0.949 . S
H3096 C3102 0.950 . S
H3097 C3103 0.950 . S
H3098 C3104 0.949 . S
C3099 H3094 0.950 . S
C3099 C3101 1.327 . S
C3099 C3105 1.429 . S
C3100 C3092 1.574 1_455 S
C3100 H3095 0.949 . S
C3100 C3106 1.368 . S
C3101 C3085 1.349 . S
C3101 H3093 0.950 . S
C3101 C3099 1.327 . S
C3102 C3090 1.349 . S
C3102 H3096 0.950 . S
C3102 C3103 1.327 . S
C3103 H3097 0.950 . S
C3103 C3102 1.327 . S
C3103 C3107 1.429 . S
C3104 C3087 1.574 1_655 S
C3104 H3098 0.949 . S
C3104 C3108 1.368 . S
C3105 C3086 1.429 . S
C3105 C3099 1.429 . S
C3105 C3106 1.523 . S
C3106 C3087 1.368 . S
C3106 C3100 1.368 . S
C3106 C3105 1.523 . S
C3107 C3091 1.429 . S
C3107 C3103 1.429 . S
C3107 C3108 1.523 . S
C3108 C3092 1.368 . S
C3108 C3104 1.368 . S
C3108 C3107 1.523 . S
H3109 C3084 0.950 . S
H3110 C3086 0.950 . S
H3111 C3087 0.949 . S
H3112 C3089 0.950 . S
H3113 C3091 0.950 . S
C3114 C3115 1.349 . S
C3114 C3116 1.327 . S
C3114 H3139 0.950 . S
C3115 C3114 1.349 . S
C3115 C3131 1.349 . S
C3116 C3114 1.327 . S
C3116 C3135 1.429 . S
C3116 H3140 0.950 . S
C3117 C3134 1.574 1_565 S
C3117 C3136 1.368 . S
C3117 H3141 0.949 . S
H3118 C3122 0.949 . S
C3119 C3120 1.349 . S
C3119 C3121 1.327 . S
C3119 H3142 0.950 . S
C3120 C3119 1.349 . S
C3120 C3132 1.349 . S
C3121 C3119 1.327 . S
C3121 C3137 1.429 . S
C3121 H3143 0.950 . S
C3122 H3118 0.949 . S
C3122 C3130 1.574 1_545 S
C3122 C3138 1.368 . S
H3123 C3131 0.950 . S
H3124 C3129 0.950 . S
H3125 C3130 0.949 . S
H3126 C3132 0.950 . S
H3127 C3133 0.950 . S
H3128 C3134 0.949 . S
C3129 H3124 0.950 . S
C3129 C3131 1.327 . S
C3129 C3135 1.429 . S
C3130 C3122 1.574 1_565 S
C3130 H3125 0.949 . S
C3130 C3136 1.368 . S
C3131 C3115 1.349 . S
C3131 H3123 0.950 . S
C3131 C3129 1.327 . S
C3132 C3120 1.349 . S
C3132 H3126 0.950 . S
C3132 C3133 1.327 . S
C3133 H3127 0.950 . S
C3133 C3132 1.327 . S
C3133 C3137 1.429 . S
C3134 C3117 1.574 1_545 S
C3134 H3128 0.949 . S
C3134 C3138 1.368 . S
C3135 C3116 1.429 . S
C3135 C3129 1.429 . S
C3135 C3136 1.523 . S
C3136 C3117 1.368 . S
C3136 C3130 1.368 . S
C3136 C3135 1.523 . S
C3137 C3121 1.429 . S
C3137 C3133 1.429 . S
C3137 C3138 1.523 . S
C3138 C3122 1.368 . S
C3138 C3134 1.368 . S
C3138 C3137 1.523 . S
H3139 C3114 0.950 . S
H3140 C3116 0.950 . S
H3141 C3117 0.949 . S
H3142 C3119 0.950 . S
H3143 C3121 0.950 . S
C3144 C3145 1.349 . S
C3144 C3146 1.327 . S
C3144 H3169 0.950 . S
C3145 C3144 1.349 . S
C3145 C3161 1.349 . S
C3146 C3144 1.327 . S
C3146 C3165 1.429 . S
C3146 H3170 0.950 . S
C3147 C3164 1.574 1_655 S
C3147 C3166 1.368 . S
C3147 H3171 0.949 . S
H3148 C3152 0.949 . S
C3149 C3150 1.349 . S
C3149 C3151 1.327 . S
C3149 H3172 0.950 . S
C3150 C3149 1.349 . S
C3150 C3162 1.349 . S
C3151 C3149 1.327 . S
C3151 C3167 1.429 . S
C3151 H3173 0.950 . S
C3152 H3148 0.949 . S
C3152 C3160 1.574 1_455 S
C3152 C3168 1.368 . S
H3153 C3161 0.950 . S
H3154 C3159 0.950 . S
H3155 C3160 0.949 . S
H3156 C3162 0.950 . S
H3157 C3163 0.950 . S
H3158 C3164 0.949 . S
C3159 H3154 0.950 . S
C3159 C3161 1.327 . S
C3159 C3165 1.429 . S
C3160 C3152 1.574 1_655 S
C3160 H3155 0.949 . S
C3160 C3166 1.368 . S
C3161 C3145 1.349 . S
C3161 H3153 0.950 . S
C3161 C3159 1.327 . S
C3162 C3150 1.349 . S
C3162 H3156 0.950 . S
C3162 C3163 1.327 . S
C3163 H3157 0.950 . S
C3163 C3162 1.327 . S
C3163 C3167 1.429 . S
C3164 C3147 1.574 1_455 S
C3164 H3158 0.949 . S
C3164 C3168 1.368 . S
C3165 C3146 1.429 . S
C3165 C3159 1.429 . S
C3165 C3166 1.523 . S
C3166 C3147 1.368 . S
C3166 C3160 1.368 . S
C3166 C3165 1.523 . S
C3167 C3151 1.429 . S
C3167 C3163 1.429 . S
C3167 C3168 1.523 . S
C3168 C3152 1.368 . S
C3168 C3164 1.368 . S
C3168 C3167 1.523 . S
H3169 C3144 0.950 . S
H3170 C3146 0.950 . S
H3171 C3147 0.949 . S
H3172 C3149 0.950 . S
H3173 C3151 0.950 . S
C3174 C3175 1.349 . S
C3174 C3176 1.327 . S
C3174 H3199 0.950 . S
C3175 C3174 1.349 . S
C3175 C3191 1.349 . S
C3176 C3174 1.327 . S
C3176 C3195 1.429 . S
C3176 H3200 0.950 . S
C3177 C3194 1.574 1_545 S
C3177 C3196 1.368 . S
C3177 H3201 0.949 . S
H3178 C3182 0.949 . S
C3179 C3180 1.349 . S
C3179 C3181 1.327 . S
C3179 H3202 0.950 . S
C3180 C3179 1.349 . S
C3180 C3192 1.349 . S
C3181 C3179 1.327 . S
C3181 C3197 1.429 . S
C3181 H3203 0.950 . S
C3182 H3178 0.949 . S
C3182 C3190 1.574 1_565 S
C3182 C3198 1.368 . S
H3183 C3191 0.950 . S
H3184 C3189 0.950 . S
H3185 C3190 0.949 . S
H3186 C3192 0.950 . S
H3187 C3193 0.950 . S
H3188 C3194 0.949 . S
C3189 H3184 0.950 . S
C3189 C3191 1.327 . S
C3189 C3195 1.429 . S
C3190 C3182 1.574 1_545 S
C3190 H3185 0.949 . S
C3190 C3196 1.368 . S
C3191 C3175 1.349 . S
C3191 H3183 0.950 . S
C3191 C3189 1.327 . S
C3192 C3180 1.349 . S
C3192 H3186 0.950 . S
C3192 C3193 1.327 . S
C3193 H3187 0.950 . S
C3193 C3192 1.327 . S
C3193 C3197 1.429 . S
C3194 C3177 1.574 1_565 S
C3194 H3188 0.949 . S
C3194 C3198 1.368 . S
C3195 C3176 1.429 . S
C3195 C3189 1.429 . S
C3195 C3196 1.523 . S
C3196 C3177 1.368 . S
C3196 C3190 1.368 . S
C3196 C3195 1.523 . S
C3197 C3181 1.429 . S
C3197 C3193 1.429 . S
C3197 C3198 1.523 . S
C3198 C3182 1.368 . S
C3198 C3194 1.368 . S
C3198 C3197 1.523 . S
H3199 C3174 0.950 . S
H3200 C3176 0.950 . S
H3201 C3177 0.949 . S
H3202 C3179 0.950 . S
H3203 C3181 0.950 . S
C3204 C3205 1.349 . S
C3204 C3206 1.327 . S
C3204 H3229 0.950 . S
C3205 C3204 1.349 . S
C3205 C3221 1.349 . S
C3206 C3204 1.327 . S
C3206 C3225 1.429 . S
C3206 H3230 0.950 . S
C3207 C3224 1.574 1_455 S
C3207 C3226 1.368 . S
C3207 H3231 0.949 . S
H3208 C3212 0.949 . S
C3209 C3210 1.349 . S
C3209 C3211 1.327 . S
C3209 H3232 0.950 . S
C3210 C3209 1.349 . S
C3210 C3222 1.349 . S
C3211 C3209 1.327 . S
C3211 C3227 1.429 . S
C3211 H3233 0.950 . S
C3212 H3208 0.949 . S
C3212 C3220 1.574 1_655 S
C3212 C3228 1.368 . S
H3213 C3221 0.950 . S
H3214 C3219 0.950 . S
H3215 C3220 0.949 . S
H3216 C3222 0.950 . S
H3217 C3223 0.950 . S
H3218 C3224 0.949 . S
C3219 H3214 0.950 . S
C3219 C3221 1.327 . S
C3219 C3225 1.429 . S
C3220 C3212 1.574 1_455 S
C3220 H3215 0.949 . S
C3220 C3226 1.368 . S
C3221 C3205 1.349 . S
C3221 H3213 0.950 . S
C3221 C3219 1.327 . S
C3222 C3210 1.349 . S
C3222 H3216 0.950 . S
C3222 C3223 1.327 . S
C3223 H3217 0.950 . S
C3223 C3222 1.327 . S
C3223 C3227 1.429 . S
C3224 C3207 1.574 1_655 S
C3224 H3218 0.949 . S
C3224 C3228 1.368 . S
C3225 C3206 1.429 . S
C3225 C3219 1.429 . S
C3225 C3226 1.523 . S
C3226 C3207 1.368 . S
C3226 C3220 1.368 . S
C3226 C3225 1.523 . S
C3227 C3211 1.429 . S
C3227 C3223 1.429 . S
C3227 C3228 1.523 . S
C3228 C3212 1.368 . S
C3228 C3224 1.368 . S
C3228 C3227 1.523 . S
H3229 C3204 0.950 . S
H3230 C3206 0.950 . S
H3231 C3207 0.949 . S
H3232 C3209 0.950 . S
H3233 C3211 0.950 . S
C3234 C3235 1.349 . S
C3234 C3236 1.327 . S
C3234 H3259 0.950 . S
C3235 C3234 1.349 . S
C3235 C3251 1.349 . S
C3236 C3234 1.327 . S
C3236 C3255 1.429 . S
C3236 H3260 0.950 . S
C3237 C3254 1.574 1_545 S
C3237 C3256 1.368 . S
C3237 H3261 0.949 . S
H3238 C3242 0.949 . S
C3239 C3240 1.349 . S
C3239 C3241 1.327 . S
C3239 H3262 0.950 . S
C3240 C3239 1.349 . S
C3240 C3252 1.349 . S
C3241 C3239 1.327 . S
C3241 C3257 1.429 . S
C3241 H3263 0.950 . S
C3242 H3238 0.949 . S
C3242 C3250 1.574 1_565 S
C3242 C3258 1.368 . S
H3243 C3251 0.950 . S
H3244 C3249 0.950 . S
H3245 C3250 0.949 . S
H3246 C3252 0.950 . S
H3247 C3253 0.950 . S
H3248 C3254 0.949 . S
C3249 H3244 0.950 . S
C3249 C3251 1.327 . S
C3249 C3255 1.429 . S
C3250 C3242 1.574 1_545 S
C3250 H3245 0.949 . S
C3250 C3256 1.368 . S
C3251 C3235 1.349 . S
C3251 H3243 0.950 . S
C3251 C3249 1.327 . S
C3252 C3240 1.349 . S
C3252 H3246 0.950 . S
C3252 C3253 1.327 . S
C3253 H3247 0.950 . S
C3253 C3252 1.327 . S
C3253 C3257 1.429 . S
C3254 C3237 1.574 1_565 S
C3254 H3248 0.949 . S
C3254 C3258 1.368 . S
C3255 C3236 1.429 . S
C3255 C3249 1.429 . S
C3255 C3256 1.523 . S
C3256 C3237 1.368 . S
C3256 C3250 1.368 . S
C3256 C3255 1.523 . S
C3257 C3241 1.429 . S
C3257 C3253 1.429 . S
C3257 C3258 1.523 . S
C3258 C3242 1.368 . S
C3258 C3254 1.368 . S
C3258 C3257 1.523 . S
H3259 C3234 0.950 . S
H3260 C3236 0.950 . S
H3261 C3237 0.949 . S
H3262 C3239 0.950 . S
H3263 C3241 0.950 . S
C3264 C3265 1.349 . S
C3264 C3266 1.327 . S
C3264 H3289 0.950 . S
C3265 C3264 1.349 . S
C3265 C3281 1.349 . S
C3266 C3264 1.327 . S
C3266 C3285 1.429 . S
C3266 H3290 0.950 . S
C3267 C3284 1.574 1_545 S
C3267 C3286 1.368 . S
C3267 H3291 0.949 . S
H3268 C3272 0.949 . S
C3269 C3270 1.349 . S
C3269 C3271 1.327 . S
C3269 H3292 0.950 . S
C3270 C3269 1.349 . S
C3270 C3282 1.349 . S
C3271 C3269 1.327 . S
C3271 C3287 1.429 . S
C3271 H3293 0.950 . S
C3272 H3268 0.949 . S
C3272 C3280 1.574 1_565 S
C3272 C3288 1.368 . S
H3273 C3281 0.950 . S
H3274 C3279 0.950 . S
H3275 C3280 0.949 . S
H3276 C3282 0.950 . S
H3277 C3283 0.950 . S
H3278 C3284 0.949 . S
C3279 H3274 0.950 . S
C3279 C3281 1.327 . S
C3279 C3285 1.429 . S
C3280 C3272 1.574 1_545 S
C3280 H3275 0.949 . S
C3280 C3286 1.368 . S
C3281 C3265 1.349 . S
C3281 H3273 0.950 . S
C3281 C3279 1.327 . S
C3282 C3270 1.349 . S
C3282 H3276 0.950 . S
C3282 C3283 1.327 . S
C3283 H3277 0.950 . S
C3283 C3282 1.327 . S
C3283 C3287 1.429 . S
C3284 C3267 1.574 1_565 S
C3284 H3278 0.949 . S
C3284 C3288 1.368 . S
C3285 C3266 1.429 . S
C3285 C3279 1.429 . S
C3285 C3286 1.523 . S
C3286 C3267 1.368 . S
C3286 C3280 1.368 . S
C3286 C3285 1.523 . S
C3287 C3271 1.429 . S
C3287 C3283 1.429 . S
C3287 C3288 1.523 . S
C3288 C3272 1.368 . S
C3288 C3284 1.368 . S
C3288 C3287 1.523 . S
H3289 C3264 0.950 . S
H3290 C3266 0.950 . S
H3291 C3267 0.949 . S
H3292 C3269 0.950 . S
H3293 C3271 0.950 . S
C3294 C3295 1.349 . S
C3294 C3296 1.327 . S
C3294 H3319 0.950 . S
C3295 C3294 1.349 . S
C3295 C3311 1.349 . S
C3296 C3294 1.327 . S
C3296 C3315 1.429 . S
C3296 H3320 0.950 . S
C3297 C3314 1.574 1_545 S
C3297 C3316 1.368 . S
C3297 H3321 0.949 . S
H3298 C3302 0.949 . S
C3299 C3300 1.349 . S
C3299 C3301 1.327 . S
C3299 H3322 0.950 . S
C3300 C3299 1.349 . S
C3300 C3312 1.349 . S
C3301 C3299 1.327 . S
C3301 C3317 1.429 . S
C3301 H3323 0.950 . S
C3302 H3298 0.949 . S
C3302 C3310 1.574 1_565 S
C3302 C3318 1.368 . S
H3303 C3311 0.950 . S
H3304 C3309 0.950 . S
H3305 C3310 0.949 . S
H3306 C3312 0.950 . S
H3307 C3313 0.950 . S
H3308 C3314 0.949 . S
C3309 H3304 0.950 . S
C3309 C3311 1.327 . S
C3309 C3315 1.429 . S
C3310 C3302 1.574 1_545 S
C3310 H3305 0.949 . S
C3310 C3316 1.368 . S
C3311 C3295 1.349 . S
C3311 H3303 0.950 . S
C3311 C3309 1.327 . S
C3312 C3300 1.349 . S
C3312 H3306 0.950 . S
C3312 C3313 1.327 . S
C3313 H3307 0.950 . S
C3313 C3312 1.327 . S
C3313 C3317 1.429 . S
C3314 C3297 1.574 1_565 S
C3314 H3308 0.949 . S
C3314 C3318 1.368 . S
C3315 C3296 1.429 . S
C3315 C3309 1.429 . S
C3315 C3316 1.523 . S
C3316 C3297 1.368 . S
C3316 C3310 1.368 . S
C3316 C3315 1.523 . S
C3317 C3301 1.429 . S
C3317 C3313 1.429 . S
C3317 C3318 1.523 . S
C3318 C3302 1.368 . S
C3318 C3314 1.368 . S
C3318 C3317 1.523 . S
H3319 C3294 0.950 . S
H3320 C3296 0.950 . S
H3321 C3297 0.949 . S
H3322 C3299 0.950 . S
H3323 C3301 0.950 . S
C3324 C3325 1.349 . S
C3324 C3326 1.327 . S
C3324 H3349 0.950 . S
C3325 C3324 1.349 . S
C3325 C3341 1.349 . S
C3326 C3324 1.327 . S
C3326 C3345 1.429 . S
C3326 H3350 0.950 . S
C3327 C3344 1.574 1_655 S
C3327 C3346 1.368 . S
C3327 H3351 0.949 . S
H3328 C3332 0.949 . S
C3329 C3330 1.349 . S
C3329 C3331 1.327 . S
C3329 H3352 0.950 . S
C3330 C3329 1.349 . S
C3330 C3342 1.349 . S
C3331 C3329 1.327 . S
C3331 C3347 1.429 . S
C3331 H3353 0.950 . S
C3332 H3328 0.949 . S
C3332 C3340 1.574 1_455 S
C3332 C3348 1.368 . S
H3333 C3341 0.950 . S
H3334 C3339 0.950 . S
H3335 C3340 0.949 . S
H3336 C3342 0.950 . S
H3337 C3343 0.950 . S
H3338 C3344 0.949 . S
C3339 H3334 0.950 . S
C3339 C3341 1.327 . S
C3339 C3345 1.429 . S
C3340 C3332 1.574 1_655 S
C3340 H3335 0.949 . S
C3340 C3346 1.368 . S
C3341 C3325 1.349 . S
C3341 H3333 0.950 . S
C3341 C3339 1.327 . S
C3342 C3330 1.349 . S
C3342 H3336 0.950 . S
C3342 C3343 1.327 . S
C3343 H3337 0.950 . S
C3343 C3342 1.327 . S
C3343 C3347 1.429 . S
C3344 C3327 1.574 1_455 S
C3344 H3338 0.949 . S
C3344 C3348 1.368 . S
C3345 C3326 1.429 . S
C3345 C3339 1.429 . S
C3345 C3346 1.523 . S
C3346 C3327 1.368 . S
C3346 C3340 1.368 . S
C3346 C3345 1.523 . S
C3347 C3331 1.429 . S
C3347 C3343 1.429 . S
C3347 C3348 1.523 . S
C3348 C3332 1.368 . S
C3348 C3344 1.368 . S
C3348 C3347 1.523 . S
H3349 C3324 0.950 . S
H3350 C3326 0.950 . S
H3351 C3327 0.949 . S
H3352 C3329 0.950 . S
H3353 C3331 0.950 . S
C3354 C3355 1.349 . S
C3354 C3356 1.327 . S
C3354 H3379 0.950 . S
C3355 C3354 1.349 . S
C3355 C3371 1.349 . S
C3356 C3354 1.327 . S
C3356 C3375 1.429 . S
C3356 H3380 0.950 . S
C3357 C3374 1.574 1_545 S
C3357 C3376 1.368 . S
C3357 H3381 0.949 . S
H3358 C3362 0.949 . S
C3359 C3360 1.349 . S
C3359 C3361 1.327 . S
C3359 H3382 0.950 . S
C3360 C3359 1.349 . S
C3360 C3372 1.349 . S
C3361 C3359 1.327 . S
C3361 C3377 1.429 . S
C3361 H3383 0.950 . S
C3362 H3358 0.949 . S
C3362 C3370 1.574 1_565 S
C3362 C3378 1.368 . S
H3363 C3371 0.950 . S
H3364 C3369 0.950 . S
H3365 C3370 0.949 . S
H3366 C3372 0.950 . S
H3367 C3373 0.950 . S
H3368 C3374 0.949 . S
C3369 H3364 0.950 . S
C3369 C3371 1.327 . S
C3369 C3375 1.429 . S
C3370 C3362 1.574 1_545 S
C3370 H3365 0.949 . S
C3370 C3376 1.368 . S
C3371 C3355 1.349 . S
C3371 H3363 0.950 . S
C3371 C3369 1.327 . S
C3372 C3360 1.349 . S
C3372 H3366 0.950 . S
C3372 C3373 1.327 . S
C3373 H3367 0.950 . S
C3373 C3372 1.327 . S
C3373 C3377 1.429 . S
C3374 C3357 1.574 1_565 S
C3374 H3368 0.949 . S
C3374 C3378 1.368 . S
C3375 C3356 1.429 . S
C3375 C3369 1.429 . S
C3375 C3376 1.523 . S
C3376 C3357 1.368 . S
C3376 C3370 1.368 . S
C3376 C3375 1.523 . S
C3377 C3361 1.429 . S
C3377 C3373 1.429 . S
C3377 C3378 1.523 . S
C3378 C3362 1.368 . S
C3378 C3374 1.368 . S
C3378 C3377 1.523 . S
H3379 C3354 0.950 . S
H3380 C3356 0.950 . S
H3381 C3357 0.949 . S
H3382 C3359 0.950 . S
H3383 C3361 0.950 . S
C3384 C3385 1.349 . S
C3384 C3386 1.327 . S
C3384 H3409 0.950 . S
C3385 C3384 1.349 . S
C3385 C3401 1.349 . S
C3386 C3384 1.327 . S
C3386 C3405 1.429 . S
C3386 H3410 0.950 . S
C3387 C3404 1.574 1_455 S
C3387 C3406 1.368 . S
C3387 H3411 0.949 . S
H3388 C3392 0.949 . S
C3389 C3390 1.349 . S
C3389 C3391 1.327 . S
C3389 H3412 0.950 . S
C3390 C3389 1.349 . S
C3390 C3402 1.349 . S
C3391 C3389 1.327 . S
C3391 C3407 1.429 . S
C3391 H3413 0.950 . S
C3392 H3388 0.949 . S
C3392 C3400 1.574 1_655 S
C3392 C3408 1.368 . S
H3393 C3401 0.950 . S
H3394 C3399 0.950 . S
H3395 C3400 0.949 . S
H3396 C3402 0.950 . S
H3397 C3403 0.950 . S
H3398 C3404 0.949 . S
C3399 H3394 0.950 . S
C3399 C3401 1.327 . S
C3399 C3405 1.429 . S
C3400 C3392 1.574 1_455 S
C3400 H3395 0.949 . S
C3400 C3406 1.368 . S
C3401 C3385 1.349 . S
C3401 H3393 0.950 . S
C3401 C3399 1.327 . S
C3402 C3390 1.349 . S
C3402 H3396 0.950 . S
C3402 C3403 1.327 . S
C3403 H3397 0.950 . S
C3403 C3402 1.327 . S
C3403 C3407 1.429 . S
C3404 C3387 1.574 1_655 S
C3404 H3398 0.949 . S
C3404 C3408 1.368 . S
C3405 C3386 1.429 . S
C3405 C3399 1.429 . S
C3405 C3406 1.523 . S
C3406 C3387 1.368 . S
C3406 C3400 1.368 . S
C3406 C3405 1.523 . S
C3407 C3391 1.429 . S
C3407 C3403 1.429 . S
C3407 C3408 1.523 . S
C3408 C3392 1.368 . S
C3408 C3404 1.368 . S
C3408 C3407 1.523 . S
H3409 C3384 0.950 . S
H3410 C3386 0.950 . S
H3411 C3387 0.949 . S
H3412 C3389 0.950 . S
H3413 C3391 0.950 . S
C3414 C3415 1.349 . S
C3414 C3416 1.327 . S
C3414 H3439 0.950 . S
C3415 C3414 1.349 . S
C3415 C3431 1.349 . S
C3416 C3414 1.327 . S
C3416 C3435 1.429 . S
C3416 H3440 0.950 . S
C3417 C3434 1.574 1_545 S
C3417 C3436 1.368 . S
C3417 H3441 0.949 . S
H3418 C3422 0.949 . S
C3419 C3420 1.349 . S
C3419 C3421 1.327 . S
C3419 H3442 0.950 . S
C3420 C3419 1.349 . S
C3420 C3432 1.349 . S
C3421 C3419 1.327 . S
C3421 C3437 1.429 . S
C3421 H3443 0.950 . S
C3422 H3418 0.949 . S
C3422 C3430 1.574 1_565 S
C3422 C3438 1.368 . S
H3423 C3431 0.950 . S
H3424 C3429 0.950 . S
H3425 C3430 0.949 . S
H3426 C3432 0.950 . S
H3427 C3433 0.950 . S
H3428 C3434 0.949 . S
C3429 H3424 0.950 . S
C3429 C3431 1.327 . S
C3429 C3435 1.429 . S
C3430 C3422 1.574 1_545 S
C3430 H3425 0.949 . S
C3430 C3436 1.368 . S
C3431 C3415 1.349 . S
C3431 H3423 0.950 . S
C3431 C3429 1.327 . S
C3432 C3420 1.349 . S
C3432 H3426 0.950 . S
C3432 C3433 1.327 . S
C3433 H3427 0.950 . S
C3433 C3432 1.327 . S
C3433 C3437 1.429 . S
C3434 C3417 1.574 1_565 S
C3434 H3428 0.949 . S
C3434 C3438 1.368 . S
C3435 C3416 1.429 . S
C3435 C3429 1.429 . S
C3435 C3436 1.523 . S
C3436 C3417 1.368 . S
C3436 C3430 1.368 . S
C3436 C3435 1.523 . S
C3437 C3421 1.429 . S
C3437 C3433 1.429 . S
C3437 C3438 1.523 . S
C3438 C3422 1.368 . S
C3438 C3434 1.368 . S
C3438 C3437 1.523 . S
H3439 C3414 0.950 . S
H3440 C3416 0.950 . S
H3441 C3417 0.949 . S
H3442 C3419 0.950 . S
H3443 C3421 0.950 . S
C3444 C3445 1.349 . S
C3444 C3446 1.327 . S
C3444 H3469 0.950 . S
C3445 C3444 1.349 . S
C3445 C3461 1.349 . S
C3446 C3444 1.327 . S
C3446 C3465 1.429 . S
C3446 H3470 0.950 . S
C3447 C3464 1.574 1_655 S
C3447 C3466 1.368 . S
C3447 H3471 0.949 . S
H3448 C3452 0.949 . S
C3449 C3450 1.349 . S
C3449 C3451 1.327 . S
C3449 H3472 0.950 . S
C3450 C3449 1.349 . S
C3450 C3462 1.349 . S
C3451 C3449 1.327 . S
C3451 C3467 1.429 . S
C3451 H3473 0.950 . S
C3452 H3448 0.949 . S
C3452 C3460 1.574 1_455 S
C3452 C3468 1.368 . S
H3453 C3461 0.950 . S
H3454 C3459 0.950 . S
H3455 C3460 0.949 . S
H3456 C3462 0.950 . S
H3457 C3463 0.950 . S
H3458 C3464 0.949 . S
C3459 H3454 0.950 . S
C3459 C3461 1.327 . S
C3459 C3465 1.429 . S
C3460 C3452 1.574 1_655 S
C3460 H3455 0.949 . S
C3460 C3466 1.368 . S
C3461 C3445 1.349 . S
C3461 H3453 0.950 . S
C3461 C3459 1.327 . S
C3462 C3450 1.349 . S
C3462 H3456 0.950 . S
C3462 C3463 1.327 . S
C3463 H3457 0.950 . S
C3463 C3462 1.327 . S
C3463 C3467 1.429 . S
C3464 C3447 1.574 1_455 S
C3464 H3458 0.949 . S
C3464 C3468 1.368 . S
C3465 C3446 1.429 . S
C3465 C3459 1.429 . S
C3465 C3466 1.523 . S
C3466 C3447 1.368 . S
C3466 C3460 1.368 . S
C3466 C3465 1.523 . S
C3467 C3451 1.429 . S
C3467 C3463 1.429 . S
C3467 C3468 1.523 . S
C3468 C3452 1.368 . S
C3468 C3464 1.368 . S
C3468 C3467 1.523 . S
H3469 C3444 0.950 . S
H3470 C3446 0.950 . S
H3471 C3447 0.949 . S
H3472 C3449 0.950 . S
H3473 C3451 0.950 . S
C3474 C3475 1.349 . S
C3474 C3476 1.327 . S
C3474 H3499 0.950 . S
C3475 C3474 1.349 . S
C3475 C3491 1.349 . S
C3476 C3474 1.327 . S
C3476 C3495 1.429 . S
C3476 H3500 0.950 . S
C3477 C3494 1.574 1_455 S
C3477 C3496 1.368 . S
C3477 H3501 0.949 . S
H3478 C3482 0.949 . S
C3479 C3480 1.349 . S
C3479 C3481 1.327 . S
C3479 H3502 0.950 . S
C3480 C3479 1.349 . S
C3480 C3492 1.349 . S
C3481 C3479 1.327 . S
C3481 C3497 1.429 . S
C3481 H3503 0.950 . S
C3482 H3478 0.949 . S
C3482 C3490 1.574 1_655 S
C3482 C3498 1.368 . S
H3483 C3491 0.950 . S
H3484 C3489 0.950 . S
H3485 C3490 0.949 . S
H3486 C3492 0.950 . S
H3487 C3493 0.950 . S
H3488 C3494 0.949 . S
C3489 H3484 0.950 . S
C3489 C3491 1.327 . S
C3489 C3495 1.429 . S
C3490 C3482 1.574 1_455 S
C3490 H3485 0.949 . S
C3490 C3496 1.368 . S
C3491 C3475 1.349 . S
C3491 H3483 0.950 . S
C3491 C3489 1.327 . S
C3492 C3480 1.349 . S
C3492 H3486 0.950 . S
C3492 C3493 1.327 . S
C3493 H3487 0.950 . S
C3493 C3492 1.327 . S
C3493 C3497 1.429 . S
C3494 C3477 1.574 1_655 S
C3494 H3488 0.949 . S
C3494 C3498 1.368 . S
C3495 C3476 1.429 . S
C3495 C3489 1.429 . S
C3495 C3496 1.523 . S
C3496 C3477 1.368 . S
C3496 C3490 1.368 . S
C3496 C3495 1.523 . S
C3497 C3481 1.429 . S
C3497 C3493 1.429 . S
C3497 C3498 1.523 . S
C3498 C3482 1.368 . S
C3498 C3494 1.368 . S
C3498 C3497 1.523 . S
H3499 C3474 0.950 . S
H3500 C3476 0.950 . S
H3501 C3477 0.949 . S
H3502 C3479 0.950 . S
H3503 C3481 0.950 . S
C625 C517 1.352 . S
C630 C3 1.354 . S
C655 C17 1.350 . S
C660 C471 1.351 . S
C685 C31 1.349 . S
C690 C485 1.347 . S
C715 C498 1.344 . S
C720 C43 1.344 . S
C745 C439 1.341 . S
C750 C56 1.341 . S
C775 C70 1.358 . S
C780 C445 1.358 . S
C805 C88 1.344 . S
C810 C458 1.346 . S
C835 C94 1.360 . S
C840 C421 1.360 . S
C865 C114 1.352 . S
C870 C406 1.353 . S
C895 C374 1.344 . S
C900 C121 1.343 . S
C925 C380 1.348 . S
C930 C140 1.346 . S
C955 C146 1.351 . S
C960 C400 1.349 . S
C985 C161 1.344 . S
C990 C329 1.342 . S
C1015 C172 1.357 . S
C1020 C341 1.357 . S
C1045 C355 1.334 . S
C1050 C186 1.334 . S
C1075 C315 1.354 . S
C1080 C199 1.352 . S
C1105 C218 1.348 . S
C1110 C576 1.348 . S
C1135 C616 1.352 . S
C1140 C224 1.352 . S
C1165 C589 1.342 . S
C1170 C238 1.342 . S
C1195 C603 1.353 . S
C1200 C252 1.353 . S
C1225 C530 1.346 . S
C1230 C270 1.346 . S
C1255 C550 1.349 . S
C1260 C277 1.349 . S
C1285 C291 1.350 . S
C1290 C564 1.350 . S
C1315 C536 1.351 . S
C1320 C302 1.351 . S
C1345 C426 1.352 . S
C1350 C265 1.354 . S
C1375 C225 1.347 . S
C1380 C434 1.349 . S
C1405 C446 1.346 . S
C1410 C237 1.348 . S
C1435 C459 1.338 . S
C1440 C257 1.338 . S
C1465 C303 1.335 . S
C1470 C472 1.335 . S
C1495 C484 1.357 . S
C1500 C276 1.357 . S
C1525 C296 1.342 . S
C1530 C497 1.343 . S
C1555 C213 1.361 . S
C1560 C512 1.361 . S
C1585 C525 1.361 . S
C1590 C198 1.361 . S
C1615 C166 1.344 . S
C1620 C621 1.344 . S
C1645 C588 1.349 . S
C1650 C173 1.347 . S
C1675 C185 1.351 . S
C1680 C608 1.349 . S
C1705 C120 1.344 . S
C1710 C537 1.342 . S
C1735 C135 1.358 . S
C1740 C549 1.358 . S
C1765 C147 1.335 . S
C1770 C569 1.335 . S
C1795 C575 1.361 . S
C1800 C109 1.361 . S
C1825 C316 1.345 . S
C1830 C95 1.345 . S
C1855 C369 1.353 . S
C1860 C16 1.353 . S
C1885 C381 1.342 . S
C1890 C36 1.342 . S
C1915 C395 1.353 . S
C1920 C42 1.353 . S
C1945 C407 1.344 . S
C1950 C4 1.344 . S
C1975 C75 1.349 . S
C1980 C342 1.349 . S
C2005 C354 1.351 . S
C2010 C83 1.351 . S
C2035 C328 1.351 . S
C2040 C55 1.351 . S
C2065 C10 1.573 . S
C2070 C348 1.573 . S
C2095 C356 1.584 . S
C2100 C18 1.584 . S
C2125 C30 1.571 . S
C2130 C322 1.571 . S
C2155 C44 1.585 . S
C2160 C330 1.585 . S
C2185 C57 1.585 . S
C2190 C393 1.585 . S
C2215 C413 1.573 . S
C2220 C69 1.573 . S
C2245 C81 1.585 . S
C2250 C367 1.585 . S
C2275 C387 1.572 . S
C2280 C101 1.572 . S
C2305 C107 1.575 . S
C2310 C478 1.578 . S
C2335 C486 1.587 . S
C2340 C122 1.587 . S
C2365 C133 1.587 . S
C2370 C499 1.587 . S
C2395 C153 1.578 . S
C2400 C510 1.575 . S
C2425 C160 1.570 . S
C2430 C420 1.570 . S
C2455 C179 1.580 . S
C2460 C432 1.577 . S
C2485 C452 1.581 . S
C2490 C187 1.579 . S
C2515 C200 1.577 . S
C2520 C465 1.580 . S
C2545 C563 1.580 . S
C2550 C211 1.577 . S
C2575 C231 1.579 . S
C2580 C590 1.577 . S
C2605 C239 1.577 . S
C2610 C602 1.579 . S
C2635 C523 1.576 . S
C2640 C251 1.579 . S
C2665 C615 1.584 . S
C2670 C263 1.582 . S
C2695 C278 1.572 . S
C2700 C543 1.575 . S
C2725 C551 1.573 . S
C2730 C290 1.576 . S
C2755 C309 1.580 . S
C2760 C577 1.577 . S
C2785 C556 1.573 . S
C2790 C264 1.573 . S
C2815 C226 1.584 . S
C2820 C562 1.584 . S
C2845 C582 1.572 . S
C2850 C244 1.572 . S
C2875 C538 1.584 . S
C2880 C250 1.584 . S
C2905 C601 1.584 . S
C2910 C304 1.584 . S
C2935 C283 1.574 . S
C2940 C524 1.574 . S
C2965 C614 1.585 . S
C2970 C289 1.585 . S
C2995 C212 1.572 . S
C3000 C595 1.572 . S
C3025 C433 1.568 . S
C3030 C205 1.568 . S
C3055 C159 1.587 . S
C3060 C447 1.587 . S
C3085 C174 1.589 . S
C3090 C460 1.589 . S
C3115 C419 1.575 . S
C3120 C192 1.578 . S
C3145 C127 1.570 . S
C3150 C511 1.570 . S
C3175 C473 1.579 . S
C3180 C134 1.581 . S
C3205 C148 1.579 . S
C3210 C491 1.582 . S
C3235 C108 1.570 . S
C3240 C504 1.570 . S
C3265 C361 1.580 . S
C3270 C96 1.577 . S
C3295 C23 1.579 . S
C3300 C382 1.577 . S
C3325 C29 1.578 . S
C3330 C394 1.580 . S
C3355 C408 1.582 . S
C3360 C49 1.584 . S
C3385 C5 1.582 . S
C3390 C368 1.585 . S
C3415 C68 1.573 . S
C3420 C335 1.576 . S
C3445 C82 1.576 . S
C3450 C343 1.573 . S
C3475 C62 1.585 . S
C3480 C317 1.582 . S
