# Generated by pormake.
# Topology qtz-e, (6)-cn, num edge types: 1
# Building blocks:
#     Node 0, Type 0, BuildingBlock: BETDEL_clean_sbu_0, # of connection points: 6
#     Node 1, Type 0, BuildingBlock: BETDEL_clean_sbu_0, # of connection points: 6
#     Node 2, Type 0, BuildingBlock: BETDEL_clean_sbu_0, # of connection points: 6
#     Node 3, Type 0, BuildingBlock: BETDEL_clean_sbu_0, # of connection points: 6
#     Node 4, Type 0, BuildingBlock: BETDEL_clean_sbu_0, # of connection points: 6
#     Node 5, Type 0, BuildingBlock: BETDEL_clean_sbu_0, # of connection points: 6
#     Edge 6, Type (0, 0), BuildingBlock: UVAHIK_clean_linker_0, # of connection points: 2
#     Edge 7, Type (0, 0), BuildingBlock: UVAHIK_clean_linker_0, # of connection points: 2
#     Edge 8, Type (0, 0), BuildingBlock: UVAHIK_clean_linker_0, # of connection points: 2
#     Edge 9, Type (0, 0), BuildingBlock: UVAHIK_clean_linker_0, # of connection points: 2
#     Edge 10, Type (0, 0), BuildingBlock: UVAHIK_clean_linker_0, # of connection points: 2
#     Edge 11, Type (0, 0), BuildingBlock: UVAHIK_clean_linker_0, # of connection points: 2
#     Edge 12, Type (0, 0), BuildingBlock: UVAHIK_clean_linker_0, # of connection points: 2
#     Edge 13, Type (0, 0), BuildingBlock: UVAHIK_clean_linker_0, # of connection points: 2
#     Edge 14, Type (0, 0), BuildingBlock: UVAHIK_clean_linker_0, # of connection points: 2
#     Edge 15, Type (0, 0), BuildingBlock: UVAHIK_clean_linker_0, # of connection points: 2
#     Edge 16, Type (0, 0), BuildingBlock: UVAHIK_clean_linker_0, # of connection points: 2
#     Edge 17, Type (0, 0), BuildingBlock: UVAHIK_clean_linker_0, # of connection points: 2
#     Edge 18, Type (0, 0), BuildingBlock: UVAHIK_clean_linker_0, # of connection points: 2
#     Edge 19, Type (0, 0), BuildingBlock: UVAHIK_clean_linker_0, # of connection points: 2
#     Edge 20, Type (0, 0), BuildingBlock: UVAHIK_clean_linker_0, # of connection points: 2
#     Edge 21, Type (0, 0), BuildingBlock: UVAHIK_clean_linker_0, # of connection points: 2
#     Edge 22, Type (0, 0), BuildingBlock: UVAHIK_clean_linker_0, # of connection points: 2
#     Edge 23, Type (0, 0), BuildingBlock: UVAHIK_clean_linker_0, # of connection points: 2
# Relax obj value: 0.222
# Max RMSD: 0.208
# Mean RMSD: 0.208
data_MOF--net-qtz-e--node1-BETDEL_clean_sbu_0--edge1-UVAHIK_clean_linker_0
_symmetry_space_group_name_H-M    P1
_symmetry_Int_Tables_number       1
_symmetry_cell_setting            triclinic
loop_
_symmetry_equiv_pos_as_xyz
'x, y, z'
_cell_length_a     32.007087
_cell_length_b     32.277946
_cell_length_c     49.404776
_cell_angle_alpha  89.88929
_cell_angle_beta   90.241196
_cell_angle_gamma 120.17972
loop_
_atom_site_label
_atom_site_type_symbol
_atom_site_fract_x
_atom_site_fract_y
_atom_site_fract_z
_atom_type_partial_charge
Dy0 Dy 0.1652 0.43852 0.03933 0.0
C1 C 0.16831 0.27948 0.99236 0.0
C2 C 0.15695 0.50593 0.06883 0.0
Dy3 Dy 0.15833 0.34855 0.01829 0.0
O4 O 0.19682 0.50999 0.0599 0.0
O5 O 0.12074 0.46572 0.06025 0.0
O6 O 0.24421 0.47612 0.03356 0.0
O7 O 0.2086 0.40402 0.0462 0.0
C8 C 0.24868 0.43943 0.03933 0.0
C9 C 0.07593 0.35088 1.0161 0.0
O10 O 0.14945 0.32779 0.06157 0.0
O11 O 0.13025 0.38549 0.07346 0.0
O12 O 0.12852 0.28042 0.99453 0.0
O13 O 0.20299 0.3162 1.00477 0.0
O14 O 0.07743 0.31253 0.02217 0.0
O15 O 0.11751 0.38476 1.01077 0.0
O16 O 0.17466 0.45851 0.99545 0.0
O17 O 0.19566 0.40154 0.98453 0.0
C18 C 0.13256 0.34649 0.0791 0.0
C19 C 0.19349 0.44051 0.97842 0.0
Dy20 Dy 0.74348 0.17386 0.38895 0.0
C21 C 0.89711 0.17755 0.32463 0.0
C22 C 0.67039 0.16394 0.42195 0.0
Dy23 Dy 0.81953 0.16342 0.35437 0.0
O24 O 0.70676 0.20419 0.41393 0.0
O25 O 0.67279 0.1285 0.41105 0.0
O26 O 0.79732 0.24913 0.3993 0.0
O27 O 0.8212 0.20028 0.39152 0.0
C28 C 0.8342 0.2436 0.39558 0.0
C29 C 0.72657 0.09658 0.34647 0.0
O30 O 0.82675 0.13303 0.39343 0.0
O31 O 0.75393 0.11913 0.41179 0.0
O32 O 0.85832 0.13641 0.32851 0.0
O33 O 0.89372 0.21101 0.33726 0.0
O34 O 0.76173 0.08828 0.3423 0.0
O35 O 0.74353 0.14006 0.35148 0.0
O36 O 0.73673 0.20453 0.34902 0.0
O37 O 0.80965 0.21774 0.33102 0.0
C38 C 0.79203 0.11305 0.41175 0.0
C39 C 0.77221 0.22487 0.33085 0.0
Dy40 Dy 0.54673 0.76631 0.7158 0.0
C41 C 0.72007 0.90048 0.65911 0.0
C42 C 0.47092 0.70184 0.74671 0.0
Dy43 Dy 0.64444 0.83193 0.68798 0.0
O44 O 0.48368 0.74644 0.74315 0.0
O45 O 0.49915 0.69173 0.73283 0.0
O46 O 0.52812 0.82314 0.71151 0.0
O47 O 0.60132 0.8429 0.71786 0.0
C48 C 0.5726 0.85777 0.71248 0.0
C49 C 0.61401 0.73833 0.68795 0.0
O50 O 0.67045 0.84091 0.73064 0.0
O51 O 0.60219 0.77247 0.74622 0.0
O52 O 0.71284 0.85801 0.66439 0.0
O53 O 0.68615 0.90581 0.66996 0.0
O54 O 0.65953 0.77065 0.68908 0.0
O55 O 0.58882 0.75761 0.68491 0.0
O56 O 0.51992 0.75812 0.67307 0.0
O57 O 0.58947 0.82444 0.65641 0.0
C58 C 0.6476 0.80757 0.7493 0.0
C59 C 0.54321 0.79056 0.65384 0.0
Dy60 Dy 0.76946 0.5356 0.05638 0.0
C61 C 0.78611 0.69328 0.99115 0.0
C62 C 0.76346 0.46105 0.08596 0.0
Dy63 Dy 0.78085 0.6175 0.01865 0.0
O64 O 0.72714 0.46613 0.07897 0.0
O65 O 0.80303 0.49585 0.07578 0.0
O66 O 0.73731 0.56006 0.08805 0.0
O67 O 0.72609 0.56904 0.04723 0.0
C68 C 0.71958 0.57802 0.07119 0.0
C69 C 0.83027 0.57389 1.00495 0.0
O70 O 0.8181 0.65697 0.05658 0.0
O71 O 0.83202 0.59905 0.07568 0.0
O72 O 0.82169 0.68528 0.99456 0.0
O73 O 0.74772 0.66021 1.00323 0.0
O74 O 0.81283 0.59094 0.98724 0.0
O75 O 0.82337 0.58432 0.02832 0.0
O76 O 0.73143 0.49631 0.01788 0.0
O77 O 0.71827 0.55502 0.99915 0.0
C78 C 0.83902 0.64316 0.07486 0.0
C79 C 0.71085 0.51077 0.99953 0.0
Dy80 Dy 0.20866 0.77516 0.38154 0.0
C81 C 0.07009 0.80209 0.31916 0.0
C82 C 0.27971 0.77585 0.41301 0.0
Dy83 Dy 0.14115 0.80053 0.34888 0.0
O84 O 0.23909 0.7381 0.40649 0.0
O85 O 0.28243 0.81339 0.40146 0.0
O86 O 0.14759 0.70263 0.39095 0.0
O87 O 0.13399 0.75962 0.3853 0.0
C88 C 0.1151 0.71505 0.38825 0.0
C89 C 0.2363 0.85668 0.34016 0.0
O90 O 0.1398 0.83191 0.38879 0.0
O91 O 0.20823 0.83368 0.4062 0.0
O92 O 0.11205 0.83906 0.3244 0.0
O93 O 0.06658 0.76417 0.33059 0.0
O94 O 0.20595 0.87194 0.33756 0.0
O95 O 0.21371 0.81261 0.34452 0.0
O96 O 0.20751 0.74197 0.34109 0.0
O97 O 0.13807 0.73993 0.32482 0.0
C98 C 0.17461 0.84627 0.40718 0.0
C99 C 0.17079 0.72618 0.32358 0.0
Dy100 Dy 0.40635 0.19277 0.72201 0.0
C101 C 0.23746 0.07128 0.6556 0.0
C102 C 0.47828 0.25845 0.75475 0.0
Dy103 Dy 0.31244 0.13508 0.68699 0.0
O104 O 0.4725 0.21701 0.74804 0.0
O105 O 0.44571 0.26479 0.74273 0.0
O106 O 0.40664 0.12611 0.73329 0.0
O107 O 0.34082 0.12255 0.72408 0.0
C108 C 0.36076 0.09834 0.72899 0.0
C109 C 0.36012 0.2302 0.68201 0.0
O110 O 0.27903 0.13871 0.72589 0.0
O111 O 0.34995 0.20091 0.7445 0.0
O112 O 0.25656 0.11747 0.65472 0.0
O113 O 0.25902 0.05977 0.67397 0.0
O114 O 0.31336 0.20465 0.67979 0.0
O115 O 0.37802 0.20381 0.68484 0.0
O116 O 0.43932 0.18957 0.68251 0.0
O117 O 0.36875 0.12723 0.66367 0.0
C118 C 0.30225 0.17265 0.74431 0.0
C119 C 0.41657 0.15562 0.66387 0.0
C120 C 0.21077 0.703 0.28782 0.0
C121 C 0.16853 0.69742 0.29976 0.0
C122 C 0.20856 0.68147 0.26282 0.0
C123 C 0.1276 0.63059 0.20255 0.0
H124 H 0.21698 0.58786 0.18306 0.0
C125 C 0.1119 0.52159 0.10512 0.0
C126 C 0.15532 0.53489 0.09153 0.0
C127 C 0.1124 0.54323 0.12981 0.0
C128 C 0.19201 0.60002 0.18815 0.0
H129 H 0.09062 0.6625 0.29589 0.0
H130 H 0.08644 0.62337 0.25314 0.0
H131 H 0.21978 0.61842 0.22851 0.0
H132 H 0.23293 0.58292 0.09234 0.0
H133 H 0.23372 0.62046 0.13526 0.0
H134 H 0.09924 0.61101 0.16222 0.0
C135 C 0.12157 0.64582 0.2623 0.0
C136 C 0.19367 0.61768 0.21422 0.0
C137 C 0.12388 0.66787 0.28701 0.0
C138 C 0.19884 0.57188 0.10234 0.0
C139 C 0.1994 0.59309 0.12706 0.0
C140 C 0.12557 0.61237 0.17659 0.0
C141 C 0.16396 0.65336 0.24943 0.0
C142 C 0.16162 0.63342 0.2218 0.0
C143 C 0.15638 0.57813 0.14143 0.0
C144 C 0.15797 0.5972 0.16904 0.0
H145 H 0.24573 0.72599 0.29706 0.0
H146 H 0.24208 0.68854 0.25352 0.0
H147 H 0.10294 0.64326 0.20732 0.0
H148 H 0.07788 0.49294 0.09736 0.0
H149 H 0.07866 0.53097 0.14045 0.0
C150 C 0.48834 0.19218 0.63298 0.0
C151 C 0.44411 0.15244 0.64069 0.0
C152 C 0.51177 0.19071 0.60943 0.0
C153 C 0.48841 0.12278 0.54459 0.0
H154 H 0.62807 0.1963 0.53939 0.0
C155 C 0.60136 0.11519 0.45364 0.0
C156 C 0.63787 0.16 0.44426 0.0
C157 C 0.57518 0.11202 0.47705 0.0
C158 C 0.58899 0.17575 0.54052 0.0
H159 H 0.39085 0.07919 0.63042 0.0
H160 H 0.43253 0.07585 0.59005 0.0
H161 H 0.58927 0.19372 0.58214 0.0
H162 H 0.6745 0.23662 0.45144 0.0
H163 H 0.6294 0.23101 0.49226 0.0
H164 H 0.48877 0.10406 0.50292 0.0
C165 C 0.44846 0.10887 0.60155 0.0
C166 C 0.56663 0.17443 0.56502 0.0
C167 C 0.4247 0.11061 0.62487 0.0
C168 C 0.6466 0.20156 0.45816 0.0
C169 C 0.62103 0.19837 0.48165 0.0
C170 C 0.51093 0.12354 0.52017 0.0
C171 C 0.49196 0.14918 0.59319 0.0
C172 C 0.51594 0.14845 0.56737 0.0
C173 C 0.58566 0.15357 0.49165 0.0
C174 C 0.56142 0.15059 0.51778 0.0
H175 H 0.50401 0.22512 0.64456 0.0
H176 H 0.54469 0.22282 0.60358 0.0
H177 H 0.44932 0.10296 0.54533 0.0
H178 H 0.59402 0.08257 0.44337 0.0
H179 H 0.5481 0.07702 0.48431 0.0
C180 C 0.23477 0.44564 0.93458 0.0
C181 C 0.21426 0.46467 0.95224 0.0
C182 C 0.25722 0.46936 0.91066 0.0
C183 C 0.31603 0.58934 0.87929 0.0
H184 H 0.30835 0.519 0.81408 0.0
C185 C 0.4075 0.68702 0.78058 0.0
C186 C 0.43408 0.6702 0.76651 0.0
C187 C 0.37643 0.66011 0.80151 0.0
C188 C 0.31112 0.53912 0.83218 0.0
H189 H 0.20036 0.52319 0.95811 0.0
H190 H 0.23911 0.56443 0.91605 0.0
H191 H 0.26091 0.4759 0.8537 0.0
H192 H 0.44789 0.61134 0.76265 0.0
H193 H 0.39348 0.56404 0.79944 0.0
H194 H 0.36645 0.65248 0.85789 0.0
C195 C 0.23837 0.53137 0.92099 0.0
C196 C 0.28393 0.51444 0.85491 0.0
C197 C 0.21586 0.50758 0.94503 0.0
C198 C 0.42767 0.62505 0.77312 0.0
C199 C 0.39645 0.59799 0.79414 0.0
C200 C 0.34306 0.61399 0.85656 0.0
C201 C 0.25976 0.51277 0.90363 0.0
C202 C 0.28632 0.5392 0.87885 0.0
C203 C 0.3712 0.61569 0.80894 0.0
C204 C 0.34118 0.58919 0.83277 0.0
H205 H 0.23439 0.41271 0.93941 0.0
H206 H 0.27386 0.45427 0.89807 0.0
H207 H 0.31953 0.60953 0.89747 0.0
H208 H 0.41154 0.72163 0.77584 0.0
H209 H 0.35689 0.67442 0.81212 0.0
C210 C 0.72415 0.24629 0.299 0.0
C211 C 0.76873 0.25231 0.30772 0.0
C212 C 0.72126 0.26835 0.2751 0.0
C213 C 0.79667 0.3654 0.22645 0.0
H214 H 0.69435 0.2899 0.17509 0.0
C215 C 0.80418 0.43185 0.11764 0.0
C216 C 0.76148 0.42833 0.10753 0.0
C217 C 0.80337 0.40747 0.14127 0.0
C218 C 0.72295 0.31159 0.18929 0.0
H219 H 0.84544 0.28782 0.29884 0.0
H220 H 0.84038 0.32581 0.25757 0.0
H221 H 0.69506 0.25601 0.21927 0.0
H222 H 0.68408 0.39458 0.11327 0.0
H223 H 0.68259 0.35206 0.15448 0.0
H224 H 0.82472 0.42087 0.19661 0.0
C225 C 0.80761 0.30432 0.26902 0.0
C226 C 0.72322 0.29225 0.21467 0.0
C227 C 0.81044 0.2822 0.29267 0.0
C228 C 0.71756 0.39784 0.12058 0.0
C229 C 0.71672 0.37343 0.1442 0.0
C230 C 0.79643 0.38466 0.20114 0.0
C231 C 0.76296 0.29721 0.25968 0.0
C232 C 0.76037 0.31878 0.23347 0.0
C233 C 0.75982 0.37907 0.15528 0.0
C234 C 0.75984 0.3579 0.18212 0.0
H235 H 0.69135 0.22333 0.3101 0.0
H236 H 0.68637 0.26256 0.2686 0.0
H237 H 0.82537 0.38717 0.24059 0.0
H238 H 0.83854 0.45503 0.10796 0.0
H239 H 0.83709 0.41181 0.14894 0.0
C240 C 0.47355 0.74766 0.62145 0.0
C241 C 0.51745 0.78871 0.62841 0.0
C242 C 0.44964 0.74608 0.59733 0.0
C243 C 0.46876 0.80743 0.53043 0.0
H244 H 0.32871 0.73933 0.52901 0.0
C245 C 0.35369 0.81981 0.44226 0.0
C246 C 0.31263 0.77669 0.4344 0.0
C247 C 0.38106 0.82113 0.46484 0.0
C248 C 0.36785 0.75813 0.529 0.0
H249 H 0.57015 0.86072 0.61566 0.0
H250 H 0.52793 0.85855 0.57415 0.0
H251 H 0.37077 0.74243 0.57078 0.0
H252 H 0.26893 0.70091 0.4434 0.0
H253 H 0.31646 0.70324 0.48272 0.0
H254 H 0.46541 0.82403 0.48866 0.0
C255 C 0.51249 0.82693 0.58684 0.0
C256 C 0.39206 0.7598 0.55297 0.0
C257 C 0.53665 0.82829 0.6108 0.0
C258 C 0.3004 0.73469 0.44896 0.0
C259 C 0.32739 0.73609 0.47162 0.0
C260 C 0.44447 0.80619 0.50651 0.0
C261 C 0.46869 0.78575 0.57968 0.0
C262 C 0.4429 0.78428 0.55405 0.0
C263 C 0.36752 0.77944 0.48013 0.0
C264 C 0.39373 0.78128 0.50548 0.0
H265 H 0.4579 0.71643 0.63447 0.0
H266 H 0.41648 0.71341 0.59239 0.0
H267 H 0.50787 0.82601 0.53024 0.0
H268 H 0.36381 0.85277 0.43147 0.0
H269 H 0.41168 0.85512 0.47095 0.0
C270 C 0.65409 0.49075 0.9605 0.0
C271 C 0.68281 0.47895 0.97672 0.0
C272 C 0.63331 0.46589 0.93656 0.0
C273 C 0.60075 0.3554 0.89814 0.0
H274 H 0.60732 0.43356 0.83673 0.0
C275 C 0.53892 0.2745 0.79121 0.0
C276 C 0.51009 0.28863 0.77694 0.0
C277 C 0.56356 0.29879 0.81471 0.0
C278 C 0.60482 0.41113 0.85369 0.0
H279 H 0.7106 0.43033 0.98097 0.0
H280 H 0.67424 0.38674 0.93891 0.0
H281 H 0.64102 0.47144 0.88017 0.0
H282 H 0.48579 0.34025 0.77541 0.0
H283 H 0.5287 0.38273 0.81641 0.0
H284 H 0.56418 0.29502 0.87163 0.0
C285 C 0.66765 0.41521 0.94489 0.0
C286 C 0.62409 0.43284 0.87865 0.0
C287 C 0.68841 0.4401 0.96903 0.0
C288 C 0.50798 0.32875 0.78594 0.0
C289 C 0.53265 0.3531 0.80943 0.0
C290 C 0.58143 0.33364 0.87313 0.0
C291 C 0.64081 0.42863 0.92804 0.0
C292 C 0.62181 0.40523 0.90129 0.0
C293 C 0.55996 0.3378 0.82443 0.0
C294 C 0.58283 0.36121 0.85065 0.0
H295 H 0.64858 0.52015 0.96594 0.0
H296 H 0.61183 0.47638 0.92448 0.0
H297 H 0.59803 0.33303 0.91518 0.0
H298 H 0.54122 0.24367 0.78473 0.0
H299 H 0.58493 0.28658 0.82547 0.0
C300 C 0.33576 0.47901 0.0318 0.0
C301 C 0.2959 0.44686 0.04718 0.0
C302 C 0.38213 0.49819 0.04226 0.0
C303 C 0.458 0.48577 0.0926 0.0
H304 H 0.53957 0.62143 0.07701 0.0
C305 C 0.66052 0.5742 0.10497 0.0
C306 C 0.6801 0.58617 0.0788 0.0
C307 C 0.61533 0.5689 0.11022 0.0
C308 C 0.51698 0.58385 0.08202 0.0
H309 H 0.27236 0.4067 0.08463 0.0
H310 H 0.35455 0.4404 0.10314 0.0
H311 H 0.45302 0.58185 0.06761 0.0
H312 H 0.67159 0.60821 0.03871 0.0
H313 H 0.59309 0.59988 0.04797 0.0
H314 H 0.52248 0.48734 0.10574 0.0
C315 C 0.34971 0.45073 0.08302 0.0
C316 C 0.4677 0.56108 0.07643 0.0
C317 C 0.30295 0.43113 0.07237 0.0
C318 C 0.65694 0.59856 0.05895 0.0
C319 C 0.61217 0.59404 0.06434 0.0
C320 C 0.50734 0.50868 0.0984 0.0
C321 C 0.38937 0.486 0.06845 0.0
C322 C 0.4384 0.51135 0.08022 0.0
C323 C 0.58988 0.57653 0.08952 0.0
C324 C 0.53749 0.55728 0.09179 0.0
H325 H 0.33083 0.4914 1.01228 0.0
H326 H 0.41227 0.52399 0.0302 0.0
H327 H 0.4361 0.44748 0.09583 0.0
H328 H 0.67808 0.56501 0.12073 0.0
H329 H 0.59883 0.55565 0.12981 0.0
C330 C 0.04565 0.65554 0.4135 0.0
C331 C 0.06379 0.68005 0.38908 0.0
C332 C 0.01069 0.60709 0.41318 0.0
C333 C -0.00235 0.51322 0.3699 0.0
H334 H 0.90447 0.42958 0.42294 0.0
C335 C 0.8997 0.30735 0.3696 0.0
C336 C 0.88303 0.28445 0.39459 0.0
C337 C 0.92797 0.35713 0.36847 0.0
C338 C 0.93119 0.45274 0.40831 0.0
H339 H 0.0548 0.67651 0.34559 0.0
H340 H -0.00693 0.59201 0.34494 0.0
H341 H 0.92485 0.51312 0.4202 0.0
H342 H 0.88846 0.29359 0.43802 0.0
H343 H 0.93999 0.38049 0.43626 0.0
H344 H 0.00483 0.45322 0.35838 0.0
C345 C 0.00617 0.60973 0.36429 0.0
C346 C 0.94209 0.50022 0.40646 0.0
C347 C 0.04101 0.65827 0.36467 0.0
C348 C 0.90137 0.3107 0.41853 0.0
C349 C 0.92995 0.36043 0.41748 0.0
C350 C -0.01313 0.46578 0.3718 0.0
C351 C -0.00587 0.58302 0.38836 0.0
C352 C -0.02428 0.53099 0.38739 0.0
C353 C 0.93989 0.38414 0.39243 0.0
C354 C 0.954 0.43526 0.39126 0.0
H355 H 0.06328 0.67181 0.4325 0.0
H356 H 0.00188 0.58745 0.43209 0.0
H357 H 0.02477 0.53652 0.35547 0.0
H358 H 0.88551 0.28793 0.35088 0.0
H359 H 0.93538 0.37437 0.34885 0.0
C360 C 0.34597 0.02377 0.74908 0.0
C361 C 0.33925 0.0466 0.72677 0.0
C362 C 0.36036 -0.00988 0.74502 0.0
C363 C 0.44439 -0.00357 0.69608 0.0
H364 H 0.4559 0.90805 0.74437 0.0
C365 C 0.57395 0.92276 0.68757 0.0
C366 C 0.58409 0.90732 0.71196 0.0
C367 C 0.54904 0.94784 0.68796 0.0
C368 C 0.45344 0.93344 0.73104 0.0
H369 H 0.32977 0.04408 0.68334 0.0
H370 H 0.35402 -0.01515 0.67612 0.0
H371 H 0.38267 0.91351 0.74521 0.0
H372 H 0.58704 0.91459 0.75548 0.0
H373 H 0.54496 0.95995 0.75631 0.0
H374 H 0.51543 0.01663 0.68214 0.0
C375 C 0.35004 -0.00611 0.69669 0.0
C376 C 0.41117 0.93579 0.73118 0.0
C377 C 0.33555 0.02752 0.70085 0.0
C378 C 0.57929 0.92619 0.73646 0.0
C379 C 0.55434 0.95125 0.73693 0.0
C380 C 0.48658 -0.00611 0.69587 0.0
C381 C 0.36793 0.97946 0.71856 0.0
C382 C 0.40657 0.96797 0.71408 0.0
C383 C 0.53491 0.95779 0.71282 0.0
C384 C 0.49188 0.96318 0.71379 0.0
H385 H 0.3485 0.03781 0.76931 0.0
H386 H 0.37296 0.97893 0.7624 0.0
H387 H 0.44256 0.02256 0.6831 0.0
H388 H 0.57752 0.90842 0.66845 0.0
H389 H 0.53508 0.95308 0.66905 0.0
C390 C 0.54419 0.65722 0.68145 0.0
C391 C 0.59401 0.68658 0.68581 0.0
C392 C 0.52409 0.60817 0.67843 0.0
C393 C 0.54109 0.50886 0.69573 0.0
H394 H 0.44107 0.44308 0.64139 0.0
C395 C 0.43988 0.30442 0.68217 0.0
C396 C 0.38936 0.2824 0.68034 0.0
C397 C 0.46853 0.35396 0.68067 0.0
C398 C 0.46881 0.46104 0.65669 0.0
H399 H 0.66215 0.68828 0.69066 0.0
H400 H 0.62652 0.60121 0.6854 0.0
H401 H 0.48738 0.53047 0.64198 0.0
H402 H 0.32886 0.29413 0.67532 0.0
H403 H 0.37927 0.38153 0.67275 0.0
H404 H 0.52177 0.43935 0.71079 0.0
C405 C 0.60329 0.6166 0.68435 0.0
C406 C 0.49536 0.51086 0.65697 0.0
C407 C 0.62358 0.66612 0.68733 0.0
C408 C 0.36778 0.3105 0.67676 0.0
C409 C 0.39655 0.36025 0.67515 0.0
C410 C 0.51459 0.45895 0.6954 0.0
C411 C 0.5534 0.58742 0.67965 0.0
C412 C 0.53082 0.53513 0.67692 0.0
C413 C 0.44714 0.38227 0.67719 0.0
C414 C 0.47754 0.43477 0.67625 0.0
H415 H 0.52054 0.67211 0.68023 0.0
H416 H 0.48538 0.58635 0.67546 0.0
H417 H 0.56794 0.52683 0.71146 0.0
H418 H 0.45742 0.28342 0.68477 0.0
H419 H 0.50744 0.3701 0.68203 0.0
C420 C -0.01422 0.31305 1.01424 0.0
C421 C 0.03199 0.35142 1.00819 0.0
C422 C 0.94462 0.31516 1.00679 0.0
C423 C 0.90526 0.38577 0.96507 0.0
H424 H 0.83451 0.38278 0.02916 0.0
C425 C 0.85988 0.5203 0.02004 0.0
C426 C 0.83895 0.53419 0.99968 0.0
C427 C 0.86403 0.47978 0.01676 0.0
C428 C 0.85323 0.383 1.01089 0.0
H429 H 0.07173 0.42107 0.9889 0.0
H430 H 0.00082 0.42493 0.97619 0.0
H431 H 0.87956 0.3405 0.02919 0.0
H432 H 0.80595 0.51723 0.95981 0.0
H433 H 0.81439 0.44634 0.95368 0.0
H434 H 0.88361 0.4329 0.94794 0.0
C435 C -0.00423 0.39286 0.98622 0.0
C436 C 0.87857 0.3583 1.01079 0.0
C437 C 0.03654 0.39103 0.99392 0.0
C438 C 0.82278 0.50737 0.97568 0.0
C439 C 0.82707 0.46665 0.97231 0.0
C440 C 0.88028 0.41082 0.96525 0.0
C441 C 0.94939 0.35533 0.99284 0.0
C442 C 0.90792 0.3628 0.98868 0.0
C443 C 0.84749 0.45234 0.99295 0.0
C444 C 0.8573 0.41265 0.98898 0.0
H445 H -0.01845 0.28204 0.02516 0.0
H446 H 0.90925 0.28602 1.01236 0.0
H447 H 0.92682 0.38879 0.94753 0.0
H448 H 0.87309 0.54084 0.03857 0.0
H449 H 0.88148 0.47074 0.03267 0.0
C450 C 0.30317 0.92063 0.31274 0.0
C451 C 0.28603 0.88119 0.3302 0.0
C452 C 0.34971 0.94088 0.30196 0.0
C453 C 0.45683 0.92212 0.29927 0.0
H454 H 0.52805 0.06069 0.30198 0.0
C455 C 0.66348 0.02993 0.31817 0.0
C456 C 0.67664 0.06671 0.3372 0.0
C457 C 0.61699 0.00709 0.30683 0.0
C458 C 0.50866 0.02189 0.3011 0.0
H459 H 0.30284 0.83123 0.34975 0.0
H460 H 0.38455 0.86845 0.33324 0.0
H461 H 0.44085 0.019 0.30119 0.0
H462 H 0.65208 0.10776 0.35986 0.0
H463 H 0.57109 0.06646 0.34181 0.0
H464 H 0.52491 0.92527 0.30275 0.0
C465 C 0.36221 0.88289 0.32652 0.0
C466 C 0.45841 -0.00214 0.30017 0.0
C467 C 0.3156 0.86214 0.33664 0.0
C468 C 0.64269 0.07931 0.34534 0.0
C469 C 0.59651 0.0563 0.33445 0.0
C470 C 0.50712 0.94619 0.30115 0.0
C471 C 0.38007 0.92258 0.30902 0.0
C472 C 0.43183 0.94757 0.30118 0.0
C473 C 0.58328 0.02066 0.31462 0.0
C474 C 0.53317 -0.00381 0.30402 0.0
H475 H 0.2804 0.9352 0.30705 0.0
H476 H 0.36188 0.97097 0.28828 0.0
H477 H 0.43751 0.88333 0.2986 0.0
H478 H 0.68949 0.02013 0.31137 0.0
H479 H 0.60776 0.97954 0.29171 0.0
C480 C 0.24198 0.13352 0.78112 0.0
C481 C 0.27619 0.17544 0.76792 0.0
C482 C 0.2258 0.13613 0.80698 0.0
C483 C 0.18522 0.15262 0.85905 0.0
H484 H 0.28228 0.25491 0.90345 0.0
C485 C 0.13886 0.22236 0.95396 0.0
C486 C 0.17502 0.24861 0.97318 0.0
C487 C 0.14862 0.20212 0.93173 0.0
C488 C 0.25491 0.22531 0.89174 0.0
H489 H 0.3173 0.25288 0.76989 0.0
H490 H 0.28692 0.25787 0.81409 0.0
H491 H 0.30265 0.24329 0.85826 0.0
H492 H 0.2477 0.2698 0.9862 0.0
H493 H 0.26415 0.23207 0.94813 0.0
H494 H 0.138 0.13362 0.89308 0.0
C495 C 0.27424 0.22278 0.80533 0.0
C496 C 0.26632 0.2194 0.86541 0.0
C497 C 0.29114 0.22007 0.77986 0.0
C498 C 0.21947 0.25022 0.97138 0.0
C499 C 0.22894 0.22901 0.94941 0.0
C500 C 0.17399 0.158 0.88567 0.0
C501 C 0.2431 0.18081 0.81974 0.0
C502 C 0.23122 0.18405 0.84842 0.0
C503 C 0.19453 0.20697 0.92855 0.0
C504 C 0.20831 0.19536 0.9021 0.0
H505 H 0.23042 0.09864 0.77234 0.0
H506 H 0.2019 0.10309 0.81746 0.0
H507 H 0.15735 0.12482 0.84659 0.0
H508 H 0.10413 0.22048 0.95496 0.0
H509 H 0.12119 0.18585 0.91615 0.0
C510 C 0.92853 0.149 0.28745 0.0
C511 C 0.93456 0.18619 0.30465 0.0
C512 C 0.9583 0.15896 0.26493 0.0
C513 C 0.06877 0.2505 0.2305 0.0
H514 H -0.01214 0.21022 0.16615 0.0
C515 C 0.13181 0.29409 0.11681 0.0
C516 C 0.11512 0.32325 0.1056 0.0
C517 C 0.11476 0.2721 0.14196 0.0
C518 C 0.01088 0.22098 0.18394 0.0
H519 H -0.0213 0.262 0.31339 0.0
H520 H 0.03106 0.27942 0.27408 0.0
H521 H 0.95159 0.17913 0.21033 0.0
H522 H 0.06742 0.35197 0.11165 0.0
H523 H 0.03666 0.31229 0.15513 0.0
H524 H 0.12781 0.29368 0.2038 0.0
C525 C 0.00337 0.24265 0.27795 0.0
C526 C -0.0097 0.20307 0.20916 0.0
C527 C -0.02671 0.23276 0.30034 0.0
C528 C 0.08106 0.32987 0.11985 0.0
C529 C 0.06335 0.30713 0.14461 0.0
C530 C 0.08954 0.26782 0.20511 0.0
C531 C -0.00516 0.20617 0.25945 0.0
C532 C 0.01878 0.2187 0.23275 0.0
C533 C 0.08007 0.27816 0.15581 0.0
C534 C 0.06036 0.25417 0.18184 0.0
H535 H 0.89903 0.11272 0.29043 0.0
H536 H 0.95127 0.13019 0.25106 0.0
H537 H 0.09141 0.26305 0.24842 0.0
H538 H 0.15827 0.28864 0.10628 0.0
H539 H 0.12799 0.24981 0.15039 0.0
C540 C 0.75499 0.97508 0.63155 0.0
C541 C 0.75403 0.93247 0.63853 0.0
C542 C 0.77795 -0.00065 0.60786 0.0
C543 C 0.83724 0.04788 0.55699 0.0
H544 H 0.7748 0.95604 0.4988 0.0
C545 C 0.84519 0.10146 0.44421 0.0
C546 C 0.79853 0.08796 0.43481 0.0
C547 C 0.85133 0.08213 0.46821 0.0
C548 C 0.79319 -0.01807 0.51481 0.0
H549 H 0.78004 0.88422 0.62796 0.0
H550 H 0.81953 0.92633 0.58629 0.0
H551 H 0.77066 0.92754 0.54507 0.0
H552 H 0.72187 0.04213 0.44213 0.0
H553 H 0.73265 0.00718 0.48363 0.0
H554 H 0.85786 0.10228 0.52665 0.0
C555 C 0.80254 0.94085 0.59906 0.0
C556 C 0.79114 0.96574 0.54121 0.0
C557 C 0.78003 0.91688 0.62289 0.0
C558 C 0.75818 0.05314 0.44899 0.0
C559 C 0.76434 0.03305 0.4726 0.0
C560 C 0.84 0.06408 0.53045 0.0
C561 C 0.79983 -0.01895 0.59077 0.0
C562 C 0.81167 -0.00142 0.56265 0.0
C563 C 0.81091 0.04819 0.48268 0.0
C564 C 0.81648 0.03118 0.50938 0.0
H565 H 0.73529 -0.01216 0.64337 0.0
H566 H 0.77509 0.03012 0.60182 0.0
H567 H 0.85325 0.07381 0.57322 0.0
H568 H 0.87691 0.12855 0.43373 0.0
H569 H 0.88752 0.09428 0.47573 0.0
C570 C 0.70972 0.85241 0.78526 0.0
C571 C 0.67305 0.80884 0.77447 0.0
C572 C 0.73227 0.85297 0.80973 0.0
C573 C 0.76657 0.78358 0.85102 0.0
H574 H 0.74103 0.83511 0.91572 0.0
C575 C 0.74458 0.73086 0.96737 0.0
C576 C 0.78637 0.72786 0.97158 0.0
C577 C 0.74128 0.75579 0.94508 0.0
C578 C 0.74906 0.82127 0.89774 0.0
H579 H 0.63206 0.73183 0.78025 0.0
H580 H 0.67261 0.73281 0.82241 0.0
H581 H 0.71562 0.84911 0.87125 0.0
H582 H 0.85891 0.75163 0.95726 0.0
H583 H 0.85285 0.79467 0.91808 0.0
H584 H 0.79832 0.75419 0.87725 0.0
C585 C 0.68327 0.76641 0.81219 0.0
C586 C 0.73477 0.82943 0.87242 0.0
C587 C 0.66001 0.76592 0.78819 0.0
C588 C 0.82617 0.75321 0.95439 0.0
C589 C 0.8227 0.77772 0.93196 0.0
C590 C 0.78157 0.77614 0.87619 0.0
C591 C 0.71927 0.80988 0.82322 0.0
C592 C 0.74215 0.80934 0.84904 0.0
C593 C 0.77957 0.7777 0.92655 0.0
C594 C 0.77165 0.79364 0.89988 0.0
H595 H 0.72022 0.88599 0.7751 0.0
H596 H 0.75999 0.88684 0.81802 0.0
H597 H 0.77236 0.76765 0.83319 0.0
H598 H 0.71344 0.71167 0.98039 0.0
H599 H 0.70749 0.75493 0.94129 0.0
C600 C -0.00559 0.75839 0.29203 0.0
C601 C 0.0371 0.80122 0.29811 0.0
C602 C 0.96899 0.75448 0.26823 0.0
C603 C -0.00127 0.79596 0.20035 0.0
H604 H 0.8602 0.72595 0.18808 0.0
C605 C 0.903 0.67145 0.11038 0.0
C606 C 0.86715 0.67637 0.09681 0.0
C607 C 0.92544 0.69886 0.13335 0.0
C608 C 0.89896 0.74628 0.19123 0.0
H609 H 0.08456 0.87477 0.28558 0.0
H610 H 0.04052 0.86754 0.24369 0.0
H611 H 0.89186 0.75236 0.23399 0.0
H612 H 0.82722 0.71431 0.0961 0.0
H613 H 0.86565 0.76128 0.13697 0.0
H614 H 0.00577 0.78686 0.15797 0.0
C615 C 0.02675 0.83716 0.25731 0.0
C616 C 0.91696 0.76115 0.21739 0.0
C617 C 0.0518 0.84126 0.28126 0.0
C618 C 0.85511 0.71018 0.10608 0.0
C619 C 0.87679 0.73682 0.12946 0.0
C620 C -0.01927 0.78033 0.17432 0.0
C621 C -0.01373 0.7932 0.25011 0.0
C622 C 0.96697 0.78514 0.22223 0.0
C623 C 0.91163 0.73084 0.14342 0.0
C624 C 0.93073 0.7544 0.16971 0.0
H625 H -0.01764 0.72706 0.30476 0.0
H626 H 0.93802 0.72008 0.26303 0.0
H627 H 0.03744 0.81387 0.20362 0.0
H628 H 0.91289 0.64562 0.10361 0.0
H629 H 0.95199 0.69344 0.14399 0.0
C630 C 0.18992 -0.01042 0.63564 0.0
C631 C 0.20525 0.03858 0.63457 0.0
C632 C 0.16966 0.96084 0.61277 0.0
C633 C 0.13274 0.96201 0.54064 0.0
H634 H 0.19794 0.88965 0.52955 0.0
C635 C 0.12879 0.86904 0.43897 0.0
C636 C 0.17213 0.87089 0.43172 0.0
C637 C 0.12437 0.88594 0.46422 0.0
C638 C 0.17965 0.90991 0.53226 0.0
H639 H 0.20718 0.09516 0.60997 0.0
H640 H 0.17371 0.04586 0.56988 0.0
H641 H 0.1991 0.92166 0.57393 0.0
H642 H 0.24578 0.89477 0.44436 0.0
H643 H 0.23861 0.9255 0.4879 0.0
H644 H 0.11616 0.95258 0.49825 0.0
C645 C 0.17633 0.02897 0.58827 0.0
C646 C 0.17942 0.92749 0.55792 0.0
C647 C 0.1959 0.05745 0.61124 0.0
C648 C 0.21173 0.8923 0.4495 0.0
C649 C 0.20745 0.90949 0.47456 0.0
C650 C 0.13333 0.94467 0.5148 0.0
C651 C 0.16526 -0.01907 0.58835 0.0
C652 C 0.1571 0.95488 0.56233 0.0
C653 C 0.16332 0.90521 0.48255 0.0
C654 C 0.15811 0.9197 0.51022 0.0
H655 H 0.19626 0.97411 0.65358 0.0
H656 H 0.16019 0.9236 0.61376 0.0
H657 H 0.11459 -0.01763 0.54341 0.0
H658 H 0.09754 0.85256 0.42572 0.0
H659 H 0.08992 0.88214 0.46978 0.0
loop_
_geom_bond_atom_site_label_1
_geom_bond_atom_site_label_2
_geom_bond_distance
_geom_bond_site_symmetry_2
_ccdc_geom_bond_type
Dy0 O4 2.398 . S
Dy0 O5 2.491 . S
Dy0 O6 2.403 . S
Dy0 O7 2.664 . S
Dy0 O11 2.326 . S
Dy0 O15 2.310 . S
Dy0 O16 2.351 1_554 S
C1 O12 1.185 . S
C1 O13 1.355 . S
C2 O4 1.185 . S
C2 O5 1.355 . S
Dy3 O7 2.310 1_556 S
Dy3 O10 2.351 1_556 S
Dy3 O12 2.398 . S
Dy3 O13 2.491 . S
Dy3 O14 2.403 . S
Dy3 O15 2.664 1_556 S
Dy3 O17 2.326 . S
O4 Dy0 2.398 . S
O4 C2 1.185 . S
O5 Dy0 2.491 . S
O5 C2 1.355 . S
O6 Dy0 2.403 . S
O6 C8 1.254 . S
O7 Dy0 2.664 . S
O7 Dy3 2.310 1_554 S
O7 C8 1.268 . S
C8 O6 1.254 . S
C8 O7 1.268 . S
C9 O14 1.254 1_554 S
C9 O15 1.268 . S
O10 Dy3 2.351 1_554 S
O10 C18 1.249 . S
O11 Dy0 2.326 . S
O11 C18 1.267 . S
O12 C1 1.185 . S
O12 Dy3 2.398 . S
O13 C1 1.355 . S
O13 Dy3 2.491 . S
O14 Dy3 2.403 . S
O14 C9 1.254 1_556 S
O15 Dy0 2.310 . S
O15 Dy3 2.664 1_554 S
O15 C9 1.268 . S
O16 Dy0 2.351 1_556 S
O16 C19 1.249 . S
O17 Dy3 2.326 . S
O17 C19 1.267 . S
C18 O10 1.249 . S
C18 O11 1.267 . S
C19 O16 1.249 . S
C19 O17 1.267 . S
Dy20 O24 2.398 . S
Dy20 O25 2.491 . S
Dy20 O26 2.403 . S
Dy20 O27 2.664 . S
Dy20 O31 2.326 . S
Dy20 O35 2.310 . S
Dy20 O36 2.351 . S
C21 O32 1.185 . S
C21 O33 1.355 . S
C22 O24 1.185 . S
C22 O25 1.355 . S
Dy23 O27 2.310 . S
Dy23 O30 2.351 . S
Dy23 O32 2.398 . S
Dy23 O33 2.491 . S
Dy23 O34 2.403 . S
Dy23 O35 2.664 . S
Dy23 O37 2.326 . S
O24 Dy20 2.398 . S
O24 C22 1.185 . S
O25 Dy20 2.491 . S
O25 C22 1.355 . S
O26 Dy20 2.403 . S
O26 C28 1.254 . S
O27 Dy20 2.664 . S
O27 Dy23 2.310 . S
O27 C28 1.268 . S
C28 O26 1.254 . S
C28 O27 1.268 . S
C29 O34 1.254 . S
C29 O35 1.268 . S
O30 Dy23 2.351 . S
O30 C38 1.249 . S
O31 Dy20 2.326 . S
O31 C38 1.267 . S
O32 C21 1.185 . S
O32 Dy23 2.398 . S
O33 C21 1.355 . S
O33 Dy23 2.491 . S
O34 Dy23 2.403 . S
O34 C29 1.254 . S
O35 Dy20 2.310 . S
O35 Dy23 2.664 . S
O35 C29 1.268 . S
O36 Dy20 2.351 . S
O36 C39 1.249 . S
O37 Dy23 2.326 . S
O37 C39 1.267 . S
C38 O30 1.249 . S
C38 O31 1.267 . S
C39 O36 1.249 . S
C39 O37 1.267 . S
Dy40 O44 2.398 . S
Dy40 O45 2.491 . S
Dy40 O46 2.403 . S
Dy40 O47 2.664 . S
Dy40 O51 2.326 . S
Dy40 O55 2.310 . S
Dy40 O56 2.351 . S
C41 O52 1.185 . S
C41 O53 1.355 . S
C42 O44 1.185 . S
C42 O45 1.355 . S
Dy43 O47 2.310 . S
Dy43 O50 2.351 . S
Dy43 O52 2.398 . S
Dy43 O53 2.491 . S
Dy43 O54 2.403 . S
Dy43 O55 2.664 . S
Dy43 O57 2.326 . S
O44 Dy40 2.398 . S
O44 C42 1.185 . S
O45 Dy40 2.491 . S
O45 C42 1.355 . S
O46 Dy40 2.403 . S
O46 C48 1.254 . S
O47 Dy40 2.664 . S
O47 Dy43 2.310 . S
O47 C48 1.268 . S
C48 O46 1.254 . S
C48 O47 1.268 . S
C49 O54 1.254 . S
C49 O55 1.268 . S
O50 Dy43 2.351 . S
O50 C58 1.249 . S
O51 Dy40 2.326 . S
O51 C58 1.267 . S
O52 C41 1.185 . S
O52 Dy43 2.398 . S
O53 C41 1.355 . S
O53 Dy43 2.491 . S
O54 Dy43 2.403 . S
O54 C49 1.254 . S
O55 Dy40 2.310 . S
O55 Dy43 2.664 . S
O55 C49 1.268 . S
O56 Dy40 2.351 . S
O56 C59 1.249 . S
O57 Dy43 2.326 . S
O57 C59 1.267 . S
C58 O50 1.249 . S
C58 O51 1.267 . S
C59 O56 1.249 . S
C59 O57 1.267 . S
Dy60 O64 2.398 . S
Dy60 O65 2.491 . S
Dy60 O66 2.403 . S
Dy60 O67 2.664 . S
Dy60 O71 2.326 . S
Dy60 O75 2.310 . S
Dy60 O76 2.351 1_554 S
C61 O72 1.185 . S
C61 O73 1.355 . S
C62 O64 1.185 . S
C62 O65 1.355 . S
Dy63 O67 2.310 1_556 S
Dy63 O70 2.351 1_556 S
Dy63 O72 2.398 . S
Dy63 O73 2.491 . S
Dy63 O74 2.403 . S
Dy63 O75 2.664 1_556 S
Dy63 O77 2.326 . S
O64 Dy60 2.398 . S
O64 C62 1.185 . S
O65 Dy60 2.491 . S
O65 C62 1.355 . S
O66 Dy60 2.403 . S
O66 C68 1.254 . S
O67 Dy60 2.664 . S
O67 Dy63 2.310 1_554 S
O67 C68 1.268 . S
C68 O66 1.254 . S
C68 O67 1.268 . S
C69 O74 1.254 1_554 S
C69 O75 1.268 . S
O70 Dy63 2.351 1_554 S
O70 C78 1.249 . S
O71 Dy60 2.326 . S
O71 C78 1.267 . S
O72 C61 1.185 . S
O72 Dy63 2.398 . S
O73 C61 1.355 . S
O73 Dy63 2.491 . S
O74 Dy63 2.403 . S
O74 C69 1.254 1_556 S
O75 Dy60 2.310 . S
O75 Dy63 2.664 1_554 S
O75 C69 1.268 . S
O76 Dy60 2.351 1_556 S
O76 C79 1.249 . S
O77 Dy63 2.326 . S
O77 C79 1.267 . S
C78 O70 1.249 . S
C78 O71 1.267 . S
C79 O76 1.249 . S
C79 O77 1.267 . S
Dy80 O84 2.398 . S
Dy80 O85 2.491 . S
Dy80 O86 2.403 . S
Dy80 O87 2.664 . S
Dy80 O91 2.326 . S
Dy80 O95 2.310 . S
Dy80 O96 2.351 . S
C81 O92 1.185 . S
C81 O93 1.355 . S
C82 O84 1.185 . S
C82 O85 1.355 . S
Dy83 O87 2.310 . S
Dy83 O90 2.351 . S
Dy83 O92 2.398 . S
Dy83 O93 2.491 . S
Dy83 O94 2.403 . S
Dy83 O95 2.664 . S
Dy83 O97 2.326 . S
O84 Dy80 2.398 . S
O84 C82 1.185 . S
O85 Dy80 2.491 . S
O85 C82 1.355 . S
O86 Dy80 2.403 . S
O86 C88 1.254 . S
O87 Dy80 2.664 . S
O87 Dy83 2.310 . S
O87 C88 1.268 . S
C88 O86 1.254 . S
C88 O87 1.268 . S
C89 O94 1.254 . S
C89 O95 1.268 . S
O90 Dy83 2.351 . S
O90 C98 1.249 . S
O91 Dy80 2.326 . S
O91 C98 1.267 . S
O92 C81 1.185 . S
O92 Dy83 2.398 . S
O93 C81 1.355 . S
O93 Dy83 2.491 . S
O94 Dy83 2.403 . S
O94 C89 1.254 . S
O95 Dy80 2.310 . S
O95 Dy83 2.664 . S
O95 C89 1.268 . S
O96 Dy80 2.351 . S
O96 C99 1.249 . S
O97 Dy83 2.326 . S
O97 C99 1.267 . S
C98 O90 1.249 . S
C98 O91 1.267 . S
C99 O96 1.249 . S
C99 O97 1.267 . S
Dy100 O104 2.398 . S
Dy100 O105 2.491 . S
Dy100 O106 2.403 . S
Dy100 O107 2.664 . S
Dy100 O111 2.326 . S
Dy100 O115 2.310 . S
Dy100 O116 2.351 . S
C101 O112 1.185 . S
C101 O113 1.355 . S
C102 O104 1.185 . S
C102 O105 1.355 . S
Dy103 O107 2.310 . S
Dy103 O110 2.351 . S
Dy103 O112 2.398 . S
Dy103 O113 2.491 . S
Dy103 O114 2.403 . S
Dy103 O115 2.664 . S
Dy103 O117 2.326 . S
O104 Dy100 2.398 . S
O104 C102 1.185 . S
O105 Dy100 2.491 . S
O105 C102 1.355 . S
O106 Dy100 2.403 . S
O106 C108 1.254 . S
O107 Dy100 2.664 . S
O107 Dy103 2.310 . S
O107 C108 1.268 . S
C108 O106 1.254 . S
C108 O107 1.268 . S
C109 O114 1.254 . S
C109 O115 1.268 . S
O110 Dy103 2.351 . S
O110 C118 1.249 . S
O111 Dy100 2.326 . S
O111 C118 1.267 . S
O112 C101 1.185 . S
O112 Dy103 2.398 . S
O113 C101 1.355 . S
O113 Dy103 2.491 . S
O114 Dy103 2.403 . S
O114 C109 1.254 . S
O115 Dy100 2.310 . S
O115 Dy103 2.664 . S
O115 C109 1.268 . S
O116 Dy100 2.351 . S
O116 C119 1.249 . S
O117 Dy103 2.326 . S
O117 C119 1.267 . S
C118 O110 1.249 . S
C118 O111 1.267 . S
C119 O116 1.249 . S
C119 O117 1.267 . S
C120 C121 1.349 . S
C120 C122 1.327 . S
C120 H145 0.950 . S
C121 C120 1.349 . S
C121 C137 1.349 . S
C122 C120 1.327 . S
C122 C141 1.429 . S
C122 H146 0.950 . S
C123 C140 1.574 . S
C123 C142 1.368 . S
C123 H147 0.949 . S
H124 C128 0.949 . S
C125 C126 1.349 . S
C125 C127 1.327 . S
C125 H148 0.950 . S
C126 C125 1.349 . S
C126 C138 1.349 . S
C127 C125 1.327 . S
C127 C143 1.429 . S
C127 H149 0.950 . S
C128 H124 0.949 . S
C128 C136 1.574 . S
C128 C144 1.368 . S
H129 C137 0.950 . S
H130 C135 0.950 . S
H131 C136 0.949 . S
H132 C138 0.950 . S
H133 C139 0.950 . S
H134 C140 0.949 . S
C135 H130 0.950 . S
C135 C137 1.327 . S
C135 C141 1.429 . S
C136 C128 1.574 . S
C136 H131 0.949 . S
C136 C142 1.368 . S
C137 C121 1.349 . S
C137 H129 0.950 . S
C137 C135 1.327 . S
C138 C126 1.349 . S
C138 H132 0.950 . S
C138 C139 1.327 . S
C139 H133 0.950 . S
C139 C138 1.327 . S
C139 C143 1.429 . S
C140 C123 1.574 . S
C140 H134 0.949 . S
C140 C144 1.368 . S
C141 C122 1.429 . S
C141 C135 1.429 . S
C141 C142 1.523 . S
C142 C123 1.368 . S
C142 C136 1.368 . S
C142 C141 1.523 . S
C143 C127 1.429 . S
C143 C139 1.429 . S
C143 C144 1.523 . S
C144 C128 1.368 . S
C144 C140 1.368 . S
C144 C143 1.523 . S
H145 C120 0.950 . S
H146 C122 0.950 . S
H147 C123 0.949 . S
H148 C125 0.950 . S
H149 C127 0.950 . S
C150 C151 1.349 . S
C150 C152 1.327 . S
C150 H175 0.950 . S
C151 C150 1.349 . S
C151 C167 1.349 . S
C152 C150 1.327 . S
C152 C171 1.429 . S
C152 H176 0.950 . S
C153 C170 1.574 . S
C153 C172 1.368 . S
C153 H177 0.949 . S
H154 C158 0.949 . S
C155 C156 1.349 . S
C155 C157 1.327 . S
C155 H178 0.950 . S
C156 C155 1.349 . S
C156 C168 1.349 . S
C157 C155 1.327 . S
C157 C173 1.429 . S
C157 H179 0.950 . S
C158 H154 0.949 . S
C158 C166 1.574 . S
C158 C174 1.368 . S
H159 C167 0.950 . S
H160 C165 0.950 . S
H161 C166 0.949 . S
H162 C168 0.950 . S
H163 C169 0.950 . S
H164 C170 0.949 . S
C165 H160 0.950 . S
C165 C167 1.327 . S
C165 C171 1.429 . S
C166 C158 1.574 . S
C166 H161 0.949 . S
C166 C172 1.368 . S
C167 C151 1.349 . S
C167 H159 0.950 . S
C167 C165 1.327 . S
C168 C156 1.349 . S
C168 H162 0.950 . S
C168 C169 1.327 . S
C169 H163 0.950 . S
C169 C168 1.327 . S
C169 C173 1.429 . S
C170 C153 1.574 . S
C170 H164 0.949 . S
C170 C174 1.368 . S
C171 C152 1.429 . S
C171 C165 1.429 . S
C171 C172 1.523 . S
C172 C153 1.368 . S
C172 C166 1.368 . S
C172 C171 1.523 . S
C173 C157 1.429 . S
C173 C169 1.429 . S
C173 C174 1.523 . S
C174 C158 1.368 . S
C174 C170 1.368 . S
C174 C173 1.523 . S
H175 C150 0.950 . S
H176 C152 0.950 . S
H177 C153 0.949 . S
H178 C155 0.950 . S
H179 C157 0.950 . S
C180 C181 1.349 . S
C180 C182 1.327 . S
C180 H205 0.950 . S
C181 C180 1.349 . S
C181 C197 1.349 . S
C182 C180 1.327 . S
C182 C201 1.429 . S
C182 H206 0.950 . S
C183 C200 1.574 . S
C183 C202 1.368 . S
C183 H207 0.949 . S
H184 C188 0.949 . S
C185 C186 1.349 . S
C185 C187 1.327 . S
C185 H208 0.950 . S
C186 C185 1.349 . S
C186 C198 1.349 . S
C187 C185 1.327 . S
C187 C203 1.429 . S
C187 H209 0.950 . S
C188 H184 0.949 . S
C188 C196 1.574 . S
C188 C204 1.368 . S
H189 C197 0.950 . S
H190 C195 0.950 . S
H191 C196 0.949 . S
H192 C198 0.950 . S
H193 C199 0.950 . S
H194 C200 0.949 . S
C195 H190 0.950 . S
C195 C197 1.327 . S
C195 C201 1.429 . S
C196 C188 1.574 . S
C196 H191 0.949 . S
C196 C202 1.368 . S
C197 C181 1.349 . S
C197 H189 0.950 . S
C197 C195 1.327 . S
C198 C186 1.349 . S
C198 H192 0.950 . S
C198 C199 1.327 . S
C199 H193 0.950 . S
C199 C198 1.327 . S
C199 C203 1.429 . S
C200 C183 1.574 . S
C200 H194 0.949 . S
C200 C204 1.368 . S
C201 C182 1.429 . S
C201 C195 1.429 . S
C201 C202 1.523 . S
C202 C183 1.368 . S
C202 C196 1.368 . S
C202 C201 1.523 . S
C203 C187 1.429 . S
C203 C199 1.429 . S
C203 C204 1.523 . S
C204 C188 1.368 . S
C204 C200 1.368 . S
C204 C203 1.523 . S
H205 C180 0.950 . S
H206 C182 0.950 . S
H207 C183 0.949 . S
H208 C185 0.950 . S
H209 C187 0.950 . S
C210 C211 1.349 . S
C210 C212 1.327 . S
C210 H235 0.950 . S
C211 C210 1.349 . S
C211 C227 1.349 . S
C212 C210 1.327 . S
C212 C231 1.429 . S
C212 H236 0.950 . S
C213 C230 1.574 . S
C213 C232 1.368 . S
C213 H237 0.949 . S
H214 C218 0.949 . S
C215 C216 1.349 . S
C215 C217 1.327 . S
C215 H238 0.950 . S
C216 C215 1.349 . S
C216 C228 1.349 . S
C217 C215 1.327 . S
C217 C233 1.429 . S
C217 H239 0.950 . S
C218 H214 0.949 . S
C218 C226 1.574 . S
C218 C234 1.368 . S
H219 C227 0.950 . S
H220 C225 0.950 . S
H221 C226 0.949 . S
H222 C228 0.950 . S
H223 C229 0.950 . S
H224 C230 0.949 . S
C225 H220 0.950 . S
C225 C227 1.327 . S
C225 C231 1.429 . S
C226 C218 1.574 . S
C226 H221 0.949 . S
C226 C232 1.368 . S
C227 C211 1.349 . S
C227 H219 0.950 . S
C227 C225 1.327 . S
C228 C216 1.349 . S
C228 H222 0.950 . S
C228 C229 1.327 . S
C229 H223 0.950 . S
C229 C228 1.327 . S
C229 C233 1.429 . S
C230 C213 1.574 . S
C230 H224 0.949 . S
C230 C234 1.368 . S
C231 C212 1.429 . S
C231 C225 1.429 . S
C231 C232 1.523 . S
C232 C213 1.368 . S
C232 C226 1.368 . S
C232 C231 1.523 . S
C233 C217 1.429 . S
C233 C229 1.429 . S
C233 C234 1.523 . S
C234 C218 1.368 . S
C234 C230 1.368 . S
C234 C233 1.523 . S
H235 C210 0.950 . S
H236 C212 0.950 . S
H237 C213 0.949 . S
H238 C215 0.950 . S
H239 C217 0.950 . S
C240 C241 1.349 . S
C240 C242 1.327 . S
C240 H265 0.950 . S
C241 C240 1.349 . S
C241 C257 1.349 . S
C242 C240 1.327 . S
C242 C261 1.429 . S
C242 H266 0.950 . S
C243 C260 1.574 . S
C243 C262 1.368 . S
C243 H267 0.949 . S
H244 C248 0.949 . S
C245 C246 1.349 . S
C245 C247 1.327 . S
C245 H268 0.950 . S
C246 C245 1.349 . S
C246 C258 1.349 . S
C247 C245 1.327 . S
C247 C263 1.429 . S
C247 H269 0.950 . S
C248 H244 0.949 . S
C248 C256 1.574 . S
C248 C264 1.368 . S
H249 C257 0.950 . S
H250 C255 0.950 . S
H251 C256 0.949 . S
H252 C258 0.950 . S
H253 C259 0.950 . S
H254 C260 0.949 . S
C255 H250 0.950 . S
C255 C257 1.327 . S
C255 C261 1.429 . S
C256 C248 1.574 . S
C256 H251 0.949 . S
C256 C262 1.368 . S
C257 C241 1.349 . S
C257 H249 0.950 . S
C257 C255 1.327 . S
C258 C246 1.349 . S
C258 H252 0.950 . S
C258 C259 1.327 . S
C259 H253 0.950 . S
C259 C258 1.327 . S
C259 C263 1.429 . S
C260 C243 1.574 . S
C260 H254 0.949 . S
C260 C264 1.368 . S
C261 C242 1.429 . S
C261 C255 1.429 . S
C261 C262 1.523 . S
C262 C243 1.368 . S
C262 C256 1.368 . S
C262 C261 1.523 . S
C263 C247 1.429 . S
C263 C259 1.429 . S
C263 C264 1.523 . S
C264 C248 1.368 . S
C264 C260 1.368 . S
C264 C263 1.523 . S
H265 C240 0.950 . S
H266 C242 0.950 . S
H267 C243 0.949 . S
H268 C245 0.950 . S
H269 C247 0.950 . S
C270 C271 1.349 . S
C270 C272 1.327 . S
C270 H295 0.950 . S
C271 C270 1.349 . S
C271 C287 1.349 . S
C272 C270 1.327 . S
C272 C291 1.429 . S
C272 H296 0.950 . S
C273 C290 1.574 . S
C273 C292 1.368 . S
C273 H297 0.949 . S
H274 C278 0.949 . S
C275 C276 1.349 . S
C275 C277 1.327 . S
C275 H298 0.950 . S
C276 C275 1.349 . S
C276 C288 1.349 . S
C277 C275 1.327 . S
C277 C293 1.429 . S
C277 H299 0.950 . S
C278 H274 0.949 . S
C278 C286 1.574 . S
C278 C294 1.368 . S
H279 C287 0.950 . S
H280 C285 0.950 . S
H281 C286 0.949 . S
H282 C288 0.950 . S
H283 C289 0.950 . S
H284 C290 0.949 . S
C285 H280 0.950 . S
C285 C287 1.327 . S
C285 C291 1.429 . S
C286 C278 1.574 . S
C286 H281 0.949 . S
C286 C292 1.368 . S
C287 C271 1.349 . S
C287 H279 0.950 . S
C287 C285 1.327 . S
C288 C276 1.349 . S
C288 H282 0.950 . S
C288 C289 1.327 . S
C289 H283 0.950 . S
C289 C288 1.327 . S
C289 C293 1.429 . S
C290 C273 1.574 . S
C290 H284 0.949 . S
C290 C294 1.368 . S
C291 C272 1.429 . S
C291 C285 1.429 . S
C291 C292 1.523 . S
C292 C273 1.368 . S
C292 C286 1.368 . S
C292 C291 1.523 . S
C293 C277 1.429 . S
C293 C289 1.429 . S
C293 C294 1.523 . S
C294 C278 1.368 . S
C294 C290 1.368 . S
C294 C293 1.523 . S
H295 C270 0.950 . S
H296 C272 0.950 . S
H297 C273 0.949 . S
H298 C275 0.950 . S
H299 C277 0.950 . S
C300 C301 1.349 . S
C300 C302 1.327 . S
C300 H325 0.950 1_554 S
C301 C300 1.349 . S
C301 C317 1.349 . S
C302 C300 1.327 . S
C302 C321 1.429 . S
C302 H326 0.950 1_554 S
C303 C320 1.574 . S
C303 C322 1.368 . S
C303 H327 0.949 . S
H304 C308 0.949 1_556 S
C305 C306 1.349 . S
C305 C307 1.327 . S
C305 H328 0.950 . S
C306 C305 1.349 . S
C306 C318 1.349 . S
C307 C305 1.327 . S
C307 C323 1.429 . S
C307 H329 0.950 . S
C308 H304 0.949 1_554 S
C308 C316 1.574 . S
C308 C324 1.368 . S
H309 C317 0.950 . S
H310 C315 0.950 . S
H311 C316 0.949 1_556 S
H312 C318 0.950 1_556 S
H313 C319 0.950 1_556 S
H314 C320 0.949 . S
C315 H310 0.950 . S
C315 C317 1.327 . S
C315 C321 1.429 . S
C316 C308 1.574 . S
C316 H311 0.949 1_554 S
C316 C322 1.368 . S
C317 C301 1.349 . S
C317 H309 0.950 . S
C317 C315 1.327 . S
C318 C306 1.349 . S
C318 H312 0.950 1_554 S
C318 C319 1.327 . S
C319 H313 0.950 1_554 S
C319 C318 1.327 . S
C319 C323 1.429 . S
C320 C303 1.574 . S
C320 H314 0.949 . S
C320 C324 1.368 . S
C321 C302 1.429 . S
C321 C315 1.429 . S
C321 C322 1.523 . S
C322 C303 1.368 . S
C322 C316 1.368 . S
C322 C321 1.523 . S
C323 C307 1.429 . S
C323 C319 1.429 . S
C323 C324 1.523 . S
C324 C308 1.368 . S
C324 C320 1.368 . S
C324 C323 1.523 . S
H325 C300 0.950 1_556 S
H326 C302 0.950 1_556 S
H327 C303 0.949 . S
H328 C305 0.950 . S
H329 C307 0.950 . S
C330 C331 1.349 . S
C330 C332 1.327 . S
C330 H355 0.950 . S
C331 C330 1.349 . S
C331 C347 1.349 . S
C332 C330 1.327 . S
C332 C351 1.429 . S
C332 H356 0.950 . S
C333 C350 1.574 . S
C333 C352 1.368 . S
C333 H357 0.949 . S
H334 C338 0.949 . S
C335 C336 1.349 . S
C335 C337 1.327 . S
C335 H358 0.950 . S
C336 C335 1.349 . S
C336 C348 1.349 . S
C337 C335 1.327 . S
C337 C353 1.429 . S
C337 H359 0.950 . S
C338 H334 0.949 . S
C338 C346 1.574 . S
C338 C354 1.368 . S
H339 C347 0.950 . S
H340 C345 0.950 . S
H341 C346 0.949 . S
H342 C348 0.950 . S
H343 C349 0.950 . S
H344 C350 0.949 . S
C345 H340 0.950 . S
C345 C347 1.327 . S
C345 C351 1.429 . S
C346 C338 1.574 . S
C346 H341 0.949 . S
C346 C352 1.368 1_655 S
C347 C331 1.349 . S
C347 H339 0.950 . S
C347 C345 1.327 . S
C348 C336 1.349 . S
C348 H342 0.950 . S
C348 C349 1.327 . S
C349 H343 0.950 . S
C349 C348 1.327 . S
C349 C353 1.429 . S
C350 C333 1.574 . S
C350 H344 0.949 . S
C350 C354 1.368 1_455 S
C351 C332 1.429 . S
C351 C345 1.429 . S
C351 C352 1.523 . S
C352 C333 1.368 . S
C352 C346 1.368 1_455 S
C352 C351 1.523 . S
C353 C337 1.429 . S
C353 C349 1.429 . S
C353 C354 1.523 . S
C354 C338 1.368 . S
C354 C350 1.368 1_655 S
C354 C353 1.523 . S
H355 C330 0.950 . S
H356 C332 0.950 . S
H357 C333 0.949 . S
H358 C335 0.950 . S
H359 C337 0.950 . S
C360 C361 1.349 . S
C360 C362 1.327 . S
C360 H385 0.950 . S
C361 C360 1.349 . S
C361 C377 1.349 . S
C362 C360 1.327 . S
C362 C381 1.429 . S
C362 H386 0.950 . S
C363 C380 1.574 . S
C363 C382 1.368 . S
C363 H387 0.949 . S
H364 C368 0.949 . S
C365 C366 1.349 . S
C365 C367 1.327 . S
C365 H388 0.950 . S
C366 C365 1.349 . S
C366 C378 1.349 . S
C367 C365 1.327 . S
C367 C383 1.429 . S
C367 H389 0.950 . S
C368 H364 0.949 . S
C368 C376 1.574 . S
C368 C384 1.368 . S
H369 C377 0.950 . S
H370 C375 0.950 . S
H371 C376 0.949 . S
H372 C378 0.950 . S
H373 C379 0.950 . S
H374 C380 0.949 . S
C375 H370 0.950 . S
C375 C377 1.327 . S
C375 C381 1.429 . S
C376 C368 1.574 . S
C376 H371 0.949 . S
C376 C382 1.368 1_565 S
C377 C361 1.349 . S
C377 H369 0.950 . S
C377 C375 1.327 . S
C378 C366 1.349 . S
C378 H372 0.950 . S
C378 C379 1.327 . S
C379 H373 0.950 . S
C379 C378 1.327 . S
C379 C383 1.429 . S
C380 C363 1.574 . S
C380 H374 0.949 . S
C380 C384 1.368 1_545 S
C381 C362 1.429 . S
C381 C375 1.429 . S
C381 C382 1.523 . S
C382 C363 1.368 . S
C382 C376 1.368 1_545 S
C382 C381 1.523 . S
C383 C367 1.429 . S
C383 C379 1.429 . S
C383 C384 1.523 . S
C384 C368 1.368 . S
C384 C380 1.368 1_565 S
C384 C383 1.523 . S
H385 C360 0.950 . S
H386 C362 0.950 . S
H387 C363 0.949 . S
H388 C365 0.950 . S
H389 C367 0.950 . S
C390 C391 1.349 . S
C390 C392 1.327 . S
C390 H415 0.950 . S
C391 C390 1.349 . S
C391 C407 1.349 . S
C392 C390 1.327 . S
C392 C411 1.429 . S
C392 H416 0.950 . S
C393 C410 1.574 . S
C393 C412 1.368 . S
C393 H417 0.949 . S
H394 C398 0.949 . S
C395 C396 1.349 . S
C395 C397 1.327 . S
C395 H418 0.950 . S
C396 C395 1.349 . S
C396 C408 1.349 . S
C397 C395 1.327 . S
C397 C413 1.429 . S
C397 H419 0.950 . S
C398 H394 0.949 . S
C398 C406 1.574 . S
C398 C414 1.368 . S
H399 C407 0.950 . S
H400 C405 0.950 . S
H401 C406 0.949 . S
H402 C408 0.950 . S
H403 C409 0.950 . S
H404 C410 0.949 . S
C405 H400 0.950 . S
C405 C407 1.327 . S
C405 C411 1.429 . S
C406 C398 1.574 . S
C406 H401 0.949 . S
C406 C412 1.368 . S
C407 C391 1.349 . S
C407 H399 0.950 . S
C407 C405 1.327 . S
C408 C396 1.349 . S
C408 H402 0.950 . S
C408 C409 1.327 . S
C409 H403 0.950 . S
C409 C408 1.327 . S
C409 C413 1.429 . S
C410 C393 1.574 . S
C410 H404 0.949 . S
C410 C414 1.368 . S
C411 C392 1.429 . S
C411 C405 1.429 . S
C411 C412 1.523 . S
C412 C393 1.368 . S
C412 C406 1.368 . S
C412 C411 1.523 . S
C413 C397 1.429 . S
C413 C409 1.429 . S
C413 C414 1.523 . S
C414 C398 1.368 . S
C414 C410 1.368 . S
C414 C413 1.523 . S
H415 C390 0.950 . S
H416 C392 0.950 . S
H417 C393 0.949 . S
H418 C395 0.950 . S
H419 C397 0.950 . S
C420 C421 1.349 1_556 S
C420 C422 1.327 . S
C420 H445 0.950 . S
C421 C420 1.349 1_554 S
C421 C437 1.349 . S
C422 C420 1.327 . S
C422 C441 1.429 1_556 S
C422 H446 0.950 . S
C423 C440 1.574 . S
C423 C442 1.368 . S
C423 H447 0.949 . S
H424 C428 0.949 . S
C425 C426 1.349 . S
C425 C427 1.327 . S
C425 H448 0.950 . S
C426 C425 1.349 . S
C426 C438 1.349 1_554 S
C427 C425 1.327 . S
C427 C443 1.429 . S
C427 H449 0.950 . S
C428 H424 0.949 . S
C428 C436 1.574 . S
C428 C444 1.368 1_556 S
H429 C437 0.950 . S
H430 C435 0.950 . S
H431 C436 0.949 . S
H432 C438 0.950 . S
H433 C439 0.950 . S
H434 C440 0.949 . S
C435 H430 0.950 . S
C435 C437 1.327 . S
C435 C441 1.429 . S
C436 C428 1.574 . S
C436 H431 0.949 . S
C436 C442 1.368 1_656 S
C437 C421 1.349 . S
C437 H429 0.950 . S
C437 C435 1.327 . S
C438 C426 1.349 1_556 S
C438 H432 0.950 . S
C438 C439 1.327 . S
C439 H433 0.950 . S
C439 C438 1.327 . S
C439 C443 1.429 1_556 S
C440 C423 1.574 . S
C440 H434 0.949 . S
C440 C444 1.368 1_455 S
C441 C422 1.429 1_554 S
C441 C435 1.429 . S
C441 C442 1.523 . S
C442 C423 1.368 . S
C442 C436 1.368 1_454 S
C442 C441 1.523 . S
C443 C427 1.429 . S
C443 C439 1.429 1_554 S
C443 C444 1.523 . S
C444 C428 1.368 1_554 S
C444 C440 1.368 1_655 S
C444 C443 1.523 . S
H445 C420 0.950 . S
H446 C422 0.950 . S
H447 C423 0.949 . S
H448 C425 0.950 . S
H449 C427 0.950 . S
C450 C451 1.349 . S
C450 C452 1.327 . S
C450 H475 0.950 . S
C451 C450 1.349 . S
C451 C467 1.349 . S
C452 C450 1.327 . S
C452 C471 1.429 . S
C452 H476 0.950 . S
C453 C470 1.574 . S
C453 C472 1.368 . S
C453 H477 0.949 . S
H454 C458 0.949 . S
C455 C456 1.349 . S
C455 C457 1.327 . S
C455 H478 0.950 . S
C456 C455 1.349 . S
C456 C468 1.349 . S
C457 C455 1.327 . S
C457 C473 1.429 . S
C457 H479 0.950 . S
C458 H454 0.949 . S
C458 C466 1.574 . S
C458 C474 1.368 . S
H459 C467 0.950 . S
H460 C465 0.950 . S
H461 C466 0.949 . S
H462 C468 0.950 . S
H463 C469 0.950 . S
H464 C470 0.949 . S
C465 H460 0.950 . S
C465 C467 1.327 . S
C465 C471 1.429 . S
C466 C458 1.574 . S
C466 H461 0.949 . S
C466 C472 1.368 1_545 S
C467 C451 1.349 . S
C467 H459 0.950 . S
C467 C465 1.327 . S
C468 C456 1.349 . S
C468 H462 0.950 . S
C468 C469 1.327 . S
C469 H463 0.950 . S
C469 C468 1.327 . S
C469 C473 1.429 . S
C470 C453 1.574 . S
C470 H464 0.949 . S
C470 C474 1.368 1_565 S
C471 C452 1.429 . S
C471 C465 1.429 . S
C471 C472 1.523 . S
C472 C453 1.368 . S
C472 C466 1.368 1_565 S
C472 C471 1.523 . S
C473 C457 1.429 . S
C473 C469 1.429 . S
C473 C474 1.523 . S
C474 C458 1.368 . S
C474 C470 1.368 1_545 S
C474 C473 1.523 . S
H475 C450 0.950 . S
H476 C452 0.950 . S
H477 C453 0.949 . S
H478 C455 0.950 . S
H479 C457 0.950 . S
C480 C481 1.349 . S
C480 C482 1.327 . S
C480 H505 0.950 . S
C481 C480 1.349 . S
C481 C497 1.349 . S
C482 C480 1.327 . S
C482 C501 1.429 . S
C482 H506 0.950 . S
C483 C500 1.574 . S
C483 C502 1.368 . S
C483 H507 0.949 . S
H484 C488 0.949 . S
C485 C486 1.349 . S
C485 C487 1.327 . S
C485 H508 0.950 . S
C486 C485 1.349 . S
C486 C498 1.349 . S
C487 C485 1.327 . S
C487 C503 1.429 . S
C487 H509 0.950 . S
C488 H484 0.949 . S
C488 C496 1.574 . S
C488 C504 1.368 . S
H489 C497 0.950 . S
H490 C495 0.950 . S
H491 C496 0.949 . S
H492 C498 0.950 . S
H493 C499 0.950 . S
H494 C500 0.949 . S
C495 H490 0.950 . S
C495 C497 1.327 . S
C495 C501 1.429 . S
C496 C488 1.574 . S
C496 H491 0.949 . S
C496 C502 1.368 . S
C497 C481 1.349 . S
C497 H489 0.950 . S
C497 C495 1.327 . S
C498 C486 1.349 . S
C498 H492 0.950 . S
C498 C499 1.327 . S
C499 H493 0.950 . S
C499 C498 1.327 . S
C499 C503 1.429 . S
C500 C483 1.574 . S
C500 H494 0.949 . S
C500 C504 1.368 . S
C501 C482 1.429 . S
C501 C495 1.429 . S
C501 C502 1.523 . S
C502 C483 1.368 . S
C502 C496 1.368 . S
C502 C501 1.523 . S
C503 C487 1.429 . S
C503 C499 1.429 . S
C503 C504 1.523 . S
C504 C488 1.368 . S
C504 C500 1.368 . S
C504 C503 1.523 . S
H505 C480 0.950 . S
H506 C482 0.950 . S
H507 C483 0.949 . S
H508 C485 0.950 . S
H509 C487 0.950 . S
C510 C511 1.349 . S
C510 C512 1.327 . S
C510 H535 0.950 . S
C511 C510 1.349 . S
C511 C527 1.349 . S
C512 C510 1.327 . S
C512 C531 1.429 . S
C512 H536 0.950 . S
C513 C530 1.574 . S
C513 C532 1.368 1_455 S
C513 H537 0.949 . S
H514 C518 0.949 1_655 S
C515 C516 1.349 . S
C515 C517 1.327 . S
C515 H538 0.950 . S
C516 C515 1.349 . S
C516 C528 1.349 . S
C517 C515 1.327 . S
C517 C533 1.429 . S
C517 H539 0.950 . S
C518 H514 0.949 1_455 S
C518 C526 1.570 1_455 S
C518 C534 1.373 . S
H519 C527 0.950 . S
H520 C525 0.950 1_455 S
H521 C526 0.949 . S
H522 C528 0.950 . S
H523 C529 0.950 . S
H524 C530 0.949 . S
C525 H520 0.950 1_655 S
C525 C527 1.327 . S
C525 C531 1.429 . S
C526 C518 1.570 1_655 S
C526 H521 0.949 . S
C526 C532 1.368 . S
C527 C511 1.349 . S
C527 H519 0.950 . S
C527 C525 1.327 . S
C528 C516 1.349 . S
C528 H522 0.950 . S
C528 C529 1.327 . S
C529 H523 0.950 . S
C529 C528 1.327 . S
C529 C533 1.429 . S
C530 C513 1.574 . S
C530 H524 0.949 . S
C530 C534 1.368 . S
C531 C512 1.429 . S
C531 C525 1.429 . S
C531 C532 1.523 . S
C532 C513 1.368 1_655 S
C532 C526 1.368 . S
C532 C531 1.523 . S
C533 C517 1.429 . S
C533 C529 1.429 . S
C533 C534 1.523 . S
C534 C518 1.373 . S
C534 C530 1.368 . S
C534 C533 1.523 . S
H535 C510 0.950 . S
H536 C512 0.950 . S
H537 C513 0.949 . S
H538 C515 0.950 . S
H539 C517 0.950 . S
C540 C541 1.349 . S
C540 C542 1.327 . S
C540 H565 0.950 . S
C541 C540 1.349 . S
C541 C557 1.349 . S
C542 C540 1.327 . S
C542 C561 1.429 . S
C542 H566 0.950 . S
C543 C560 1.574 . S
C543 C562 1.368 1_545 S
C543 H567 0.949 . S
H544 C548 0.947 . S
C545 C546 1.349 . S
C545 C547 1.327 . S
C545 H568 0.950 . S
C546 C545 1.349 . S
C546 C558 1.349 . S
C547 C545 1.327 . S
C547 C563 1.429 . S
C547 H569 0.950 . S
C548 H544 0.947 . S
C548 C556 1.574 1_545 S
C548 C564 1.368 . S
H549 C557 0.950 . S
H550 C555 0.950 . S
H551 C556 0.949 . S
H552 C558 0.950 . S
H553 C559 0.950 . S
H554 C560 0.949 . S
C555 H550 0.950 . S
C555 C557 1.327 . S
C555 C561 1.429 . S
C556 C548 1.574 1_565 S
C556 H551 0.949 . S
C556 C562 1.368 . S
C557 C541 1.349 . S
C557 H549 0.950 . S
C557 C555 1.327 . S
C558 C546 1.349 . S
C558 H552 0.950 . S
C558 C559 1.327 . S
C559 H553 0.950 . S
C559 C558 1.327 . S
C559 C563 1.429 . S
C560 C543 1.574 . S
C560 H554 0.949 . S
C560 C564 1.368 . S
C561 C542 1.429 . S
C561 C555 1.429 . S
C561 C562 1.523 . S
C562 C543 1.368 1_565 S
C562 C556 1.368 . S
C562 C561 1.523 . S
C563 C547 1.429 . S
C563 C559 1.429 . S
C563 C564 1.523 . S
C564 C548 1.368 . S
C564 C560 1.368 . S
C564 C563 1.523 . S
H565 C540 0.950 . S
H566 C542 0.950 . S
H567 C543 0.949 . S
H568 C545 0.950 . S
H569 C547 0.950 . S
C570 C571 1.349 . S
C570 C572 1.327 . S
C570 H595 0.950 . S
C571 C570 1.349 . S
C571 C587 1.349 . S
C572 C570 1.327 . S
C572 C591 1.429 . S
C572 H596 0.950 . S
C573 C590 1.574 . S
C573 C592 1.368 . S
C573 H597 0.949 . S
H574 C578 0.949 . S
C575 C576 1.349 . S
C575 C577 1.327 . S
C575 H598 0.950 . S
C576 C575 1.349 . S
C576 C588 1.349 . S
C577 C575 1.327 . S
C577 C593 1.429 . S
C577 H599 0.950 . S
C578 H574 0.949 . S
C578 C586 1.574 . S
C578 C594 1.368 . S
H579 C587 0.950 . S
H580 C585 0.950 . S
H581 C586 0.949 . S
H582 C588 0.950 . S
H583 C589 0.950 . S
H584 C590 0.949 . S
C585 H580 0.950 . S
C585 C587 1.327 . S
C585 C591 1.429 . S
C586 C578 1.574 . S
C586 H581 0.949 . S
C586 C592 1.368 . S
C587 C571 1.349 . S
C587 H579 0.950 . S
C587 C585 1.327 . S
C588 C576 1.349 . S
C588 H582 0.950 . S
C588 C589 1.327 . S
C589 H583 0.950 . S
C589 C588 1.327 . S
C589 C593 1.429 . S
C590 C573 1.574 . S
C590 H584 0.949 . S
C590 C594 1.368 . S
C591 C572 1.429 . S
C591 C585 1.429 . S
C591 C592 1.523 . S
C592 C573 1.368 . S
C592 C586 1.368 . S
C592 C591 1.523 . S
C593 C577 1.429 . S
C593 C589 1.429 . S
C593 C594 1.523 . S
C594 C578 1.368 . S
C594 C590 1.368 . S
C594 C593 1.523 . S
H595 C570 0.950 . S
H596 C572 0.950 . S
H597 C573 0.949 . S
H598 C575 0.950 . S
H599 C577 0.950 . S
C600 C601 1.349 . S
C600 C602 1.327 . S
C600 H625 0.950 . S
C601 C600 1.349 . S
C601 C617 1.349 . S
C602 C600 1.327 . S
C602 C621 1.429 . S
C602 H626 0.950 1_455 S
C603 C620 1.580 . S
C603 C622 1.368 . S
C603 H627 0.949 . S
H604 C608 0.949 . S
C605 C606 1.349 . S
C605 C607 1.327 . S
C605 H628 0.950 . S
C606 C605 1.349 . S
C606 C618 1.349 . S
C607 C605 1.327 . S
C607 C623 1.429 . S
C607 H629 0.950 . S
C608 H604 0.949 . S
C608 C616 1.574 . S
C608 C624 1.368 . S
H609 C617 0.950 . S
H610 C615 0.950 . S
H611 C616 0.949 . S
H612 C618 0.950 . S
H613 C619 0.950 . S
H614 C620 0.950 . S
C615 H610 0.950 . S
C615 C617 1.327 . S
C615 C621 1.429 . S
C616 C608 1.574 . S
C616 H611 0.949 . S
C616 C622 1.368 1_655 S
C617 C601 1.349 . S
C617 H609 0.950 . S
C617 C615 1.327 . S
C618 C606 1.349 . S
C618 H612 0.950 . S
C618 C619 1.327 . S
C619 H613 0.950 . S
C619 C618 1.327 . S
C619 C623 1.429 . S
C620 C603 1.580 . S
C620 H614 0.950 . S
C620 C624 1.360 1_455 S
C621 C602 1.429 . S
C621 C615 1.429 . S
C621 C622 1.523 . S
C622 C603 1.368 . S
C622 C616 1.368 1_455 S
C622 C621 1.523 . S
C623 C607 1.429 . S
C623 C619 1.429 . S
C623 C624 1.523 . S
C624 C608 1.368 . S
C624 C620 1.360 1_655 S
C624 C623 1.523 . S
H625 C600 0.950 . S
H626 C602 0.950 1_655 S
H627 C603 0.949 . S
H628 C605 0.950 . S
H629 C607 0.950 . S
C630 C631 1.349 . S
C630 C632 1.327 . S
C630 H655 0.950 . S
C631 C630 1.349 . S
C631 C647 1.349 . S
C632 C630 1.327 . S
C632 C651 1.429 . S
C632 H656 0.950 . S
C633 C650 1.574 . S
C633 C652 1.368 1_565 S
C633 H657 0.949 1_565 S
H634 C638 0.949 . S
C635 C636 1.349 . S
C635 C637 1.327 . S
C635 H658 0.950 . S
C636 C635 1.349 . S
C636 C648 1.349 . S
C637 C635 1.327 . S
C637 C653 1.429 . S
C637 H659 0.950 . S
C638 H634 0.949 . S
C638 C646 1.574 1_565 S
C638 C654 1.368 . S
H639 C647 0.950 . S
H640 C645 0.950 . S
H641 C646 0.949 . S
H642 C648 0.950 . S
H643 C649 0.950 . S
H644 C650 0.949 . S
C645 H640 0.950 . S
C645 C647 1.327 . S
C645 C651 1.429 . S
C646 C638 1.574 1_545 S
C646 H641 0.949 . S
C646 C652 1.368 . S
C647 C631 1.349 . S
C647 H639 0.950 . S
C647 C645 1.327 . S
C648 C636 1.349 . S
C648 H642 0.950 . S
C648 C649 1.327 . S
C649 H643 0.950 . S
C649 C648 1.327 . S
C649 C653 1.429 . S
C650 C633 1.574 . S
C650 H644 0.949 . S
C650 C654 1.368 . S
C651 C632 1.429 . S
C651 C645 1.429 . S
C651 C652 1.523 . S
C652 C633 1.368 1_545 S
C652 C646 1.368 . S
C652 C651 1.523 . S
C653 C637 1.429 . S
C653 C649 1.429 . S
C653 C654 1.523 . S
C654 C638 1.368 . S
C654 C650 1.368 . S
C654 C653 1.523 . S
H655 C630 0.950 . S
H656 C632 0.950 . S
H657 C633 0.949 1_545 S
H658 C635 0.950 . S
H659 C637 0.950 . S
C121 C99 1.198 . S
C126 C2 1.189 . S
C151 C119 1.198 . S
C156 C22 1.190 . S
C181 C19 1.198 . S
C186 C42 1.190 . S
C211 C39 1.198 . S
C216 C62 1.189 . S
C241 C59 1.198 . S
C246 C82 1.190 . S
C271 C79 1.198 . S
C276 C102 1.190 . S
C301 C8 0.592 . S
C306 C68 0.592 . S
C331 C88 0.592 . S
C336 C28 0.592 . S
C361 C108 0.592 . S
C366 C48 0.592 . S
C391 C49 0.320 . S
C396 C109 0.320 . S
C421 C9 0.321 . S
C426 C69 0.321 . S
C451 C89 0.321 . S
C456 C29 0.321 . S
C481 C118 1.213 . S
C486 C1 1.209 . S
C511 C21 1.209 . S
C516 C18 1.213 . S
C541 C41 1.208 . S
C546 C38 1.212 . S
C571 C58 1.213 . S
C576 C61 1.209 . S
C601 C81 1.209 . S
C606 C78 1.213 . S
C631 C101 1.208 . S
C636 C98 1.212 . S
