# Generated by pormake.
# Topology wgd, (5)-cn, num edge types: 1
# Building blocks:
#     Node 0, Type 0, BuildingBlock: BEQFEK_clean_sbu_0, # of connection points: 5
#     Node 1, Type 0, BuildingBlock: BEQFEK_clean_sbu_0, # of connection points: 5
#     Node 2, Type 0, BuildingBlock: BEQFEK_clean_sbu_0, # of connection points: 5
#     Node 3, Type 0, BuildingBlock: BEQFEK_clean_sbu_0, # of connection points: 5
#     Node 4, Type 0, BuildingBlock: BEQFEK_clean_sbu_0, # of connection points: 5
#     Node 5, Type 0, BuildingBlock: BEQFEK_clean_sbu_0, # of connection points: 5
#     Node 6, Type 0, BuildingBlock: BEQFEK_clean_sbu_0, # of connection points: 5
#     Node 7, Type 0, BuildingBlock: BEQFEK_clean_sbu_0, # of connection points: 5
#     Node 8, Type 0, BuildingBlock: BEQFEK_clean_sbu_0, # of connection points: 5
#     Node 9, Type 0, BuildingBlock: BEQFEK_clean_sbu_0, # of connection points: 5
#     Node 10, Type 0, BuildingBlock: BEQFEK_clean_sbu_0, # of connection points: 5
#     Node 11, Type 0, BuildingBlock: BEQFEK_clean_sbu_0, # of connection points: 5
#     Node 12, Type 0, BuildingBlock: BEQFEK_clean_sbu_0, # of connection points: 5
#     Node 13, Type 0, BuildingBlock: BEQFEK_clean_sbu_0, # of connection points: 5
#     Node 14, Type 0, BuildingBlock: BEQFEK_clean_sbu_0, # of connection points: 5
#     Node 15, Type 0, BuildingBlock: BEQFEK_clean_sbu_0, # of connection points: 5
#     Node 16, Type 0, BuildingBlock: BEQFEK_clean_sbu_0, # of connection points: 5
#     Node 17, Type 0, BuildingBlock: BEQFEK_clean_sbu_0, # of connection points: 5
#     Node 18, Type 0, BuildingBlock: BEQFEK_clean_sbu_0, # of connection points: 5
#     Node 19, Type 0, BuildingBlock: BEQFEK_clean_sbu_0, # of connection points: 5
#     Node 20, Type 0, BuildingBlock: BEQFEK_clean_sbu_0, # of connection points: 5
#     Node 21, Type 0, BuildingBlock: BEQFEK_clean_sbu_0, # of connection points: 5
#     Node 22, Type 0, BuildingBlock: BEQFEK_clean_sbu_0, # of connection points: 5
#     Node 23, Type 0, BuildingBlock: BEQFEK_clean_sbu_0, # of connection points: 5
#     Node 24, Type 0, BuildingBlock: BEQFEK_clean_sbu_0, # of connection points: 5
#     Node 25, Type 0, BuildingBlock: BEQFEK_clean_sbu_0, # of connection points: 5
#     Node 26, Type 0, BuildingBlock: BEQFEK_clean_sbu_0, # of connection points: 5
#     Node 27, Type 0, BuildingBlock: BEQFEK_clean_sbu_0, # of connection points: 5
#     Node 28, Type 0, BuildingBlock: BEQFEK_clean_sbu_0, # of connection points: 5
#     Node 29, Type 0, BuildingBlock: BEQFEK_clean_sbu_0, # of connection points: 5
#     Node 30, Type 0, BuildingBlock: BEQFEK_clean_sbu_0, # of connection points: 5
#     Node 31, Type 0, BuildingBlock: BEQFEK_clean_sbu_0, # of connection points: 5
#     Edge 32, Type (0, 0), BuildingBlock: XIVTED_clean_linker_0, # of connection points: 2
#     Edge 33, Type (0, 0), BuildingBlock: XIVTED_clean_linker_0, # of connection points: 2
#     Edge 34, Type (0, 0), BuildingBlock: XIVTED_clean_linker_0, # of connection points: 2
#     Edge 35, Type (0, 0), BuildingBlock: XIVTED_clean_linker_0, # of connection points: 2
#     Edge 36, Type (0, 0), BuildingBlock: XIVTED_clean_linker_0, # of connection points: 2
#     Edge 37, Type (0, 0), BuildingBlock: XIVTED_clean_linker_0, # of connection points: 2
#     Edge 38, Type (0, 0), BuildingBlock: XIVTED_clean_linker_0, # of connection points: 2
#     Edge 39, Type (0, 0), BuildingBlock: XIVTED_clean_linker_0, # of connection points: 2
#     Edge 40, Type (0, 0), BuildingBlock: XIVTED_clean_linker_0, # of connection points: 2
#     Edge 41, Type (0, 0), BuildingBlock: XIVTED_clean_linker_0, # of connection points: 2
#     Edge 42, Type (0, 0), BuildingBlock: XIVTED_clean_linker_0, # of connection points: 2
#     Edge 43, Type (0, 0), BuildingBlock: XIVTED_clean_linker_0, # of connection points: 2
#     Edge 44, Type (0, 0), BuildingBlock: XIVTED_clean_linker_0, # of connection points: 2
#     Edge 45, Type (0, 0), BuildingBlock: XIVTED_clean_linker_0, # of connection points: 2
#     Edge 46, Type (0, 0), BuildingBlock: XIVTED_clean_linker_0, # of connection points: 2
#     Edge 47, Type (0, 0), BuildingBlock: XIVTED_clean_linker_0, # of connection points: 2
#     Edge 48, Type (0, 0), BuildingBlock: XIVTED_clean_linker_0, # of connection points: 2
#     Edge 49, Type (0, 0), BuildingBlock: XIVTED_clean_linker_0, # of connection points: 2
#     Edge 50, Type (0, 0), BuildingBlock: XIVTED_clean_linker_0, # of connection points: 2
#     Edge 51, Type (0, 0), BuildingBlock: XIVTED_clean_linker_0, # of connection points: 2
#     Edge 52, Type (0, 0), BuildingBlock: XIVTED_clean_linker_0, # of connection points: 2
#     Edge 53, Type (0, 0), BuildingBlock: XIVTED_clean_linker_0, # of connection points: 2
#     Edge 54, Type (0, 0), BuildingBlock: XIVTED_clean_linker_0, # of connection points: 2
#     Edge 55, Type (0, 0), BuildingBlock: XIVTED_clean_linker_0, # of connection points: 2
#     Edge 56, Type (0, 0), BuildingBlock: XIVTED_clean_linker_0, # of connection points: 2
#     Edge 57, Type (0, 0), BuildingBlock: XIVTED_clean_linker_0, # of connection points: 2
#     Edge 58, Type (0, 0), BuildingBlock: XIVTED_clean_linker_0, # of connection points: 2
#     Edge 59, Type (0, 0), BuildingBlock: XIVTED_clean_linker_0, # of connection points: 2
#     Edge 60, Type (0, 0), BuildingBlock: XIVTED_clean_linker_0, # of connection points: 2
#     Edge 61, Type (0, 0), BuildingBlock: XIVTED_clean_linker_0, # of connection points: 2
#     Edge 62, Type (0, 0), BuildingBlock: XIVTED_clean_linker_0, # of connection points: 2
#     Edge 63, Type (0, 0), BuildingBlock: XIVTED_clean_linker_0, # of connection points: 2
#     Edge 64, Type (0, 0), BuildingBlock: XIVTED_clean_linker_0, # of connection points: 2
#     Edge 65, Type (0, 0), BuildingBlock: XIVTED_clean_linker_0, # of connection points: 2
#     Edge 66, Type (0, 0), BuildingBlock: XIVTED_clean_linker_0, # of connection points: 2
#     Edge 67, Type (0, 0), BuildingBlock: XIVTED_clean_linker_0, # of connection points: 2
#     Edge 68, Type (0, 0), BuildingBlock: XIVTED_clean_linker_0, # of connection points: 2
#     Edge 69, Type (0, 0), BuildingBlock: XIVTED_clean_linker_0, # of connection points: 2
#     Edge 70, Type (0, 0), BuildingBlock: XIVTED_clean_linker_0, # of connection points: 2
#     Edge 71, Type (0, 0), BuildingBlock: XIVTED_clean_linker_0, # of connection points: 2
#     Edge 72, Type (0, 0), BuildingBlock: XIVTED_clean_linker_0, # of connection points: 2
#     Edge 73, Type (0, 0), BuildingBlock: XIVTED_clean_linker_0, # of connection points: 2
#     Edge 74, Type (0, 0), BuildingBlock: XIVTED_clean_linker_0, # of connection points: 2
#     Edge 75, Type (0, 0), BuildingBlock: XIVTED_clean_linker_0, # of connection points: 2
#     Edge 76, Type (0, 0), BuildingBlock: XIVTED_clean_linker_0, # of connection points: 2
#     Edge 77, Type (0, 0), BuildingBlock: XIVTED_clean_linker_0, # of connection points: 2
#     Edge 78, Type (0, 0), BuildingBlock: XIVTED_clean_linker_0, # of connection points: 2
#     Edge 79, Type (0, 0), BuildingBlock: XIVTED_clean_linker_0, # of connection points: 2
#     Edge 80, Type (0, 0), BuildingBlock: XIVTED_clean_linker_0, # of connection points: 2
#     Edge 81, Type (0, 0), BuildingBlock: XIVTED_clean_linker_0, # of connection points: 2
#     Edge 82, Type (0, 0), BuildingBlock: XIVTED_clean_linker_0, # of connection points: 2
#     Edge 83, Type (0, 0), BuildingBlock: XIVTED_clean_linker_0, # of connection points: 2
#     Edge 84, Type (0, 0), BuildingBlock: XIVTED_clean_linker_0, # of connection points: 2
#     Edge 85, Type (0, 0), BuildingBlock: XIVTED_clean_linker_0, # of connection points: 2
#     Edge 86, Type (0, 0), BuildingBlock: XIVTED_clean_linker_0, # of connection points: 2
#     Edge 87, Type (0, 0), BuildingBlock: XIVTED_clean_linker_0, # of connection points: 2
#     Edge 88, Type (0, 0), BuildingBlock: XIVTED_clean_linker_0, # of connection points: 2
#     Edge 89, Type (0, 0), BuildingBlock: XIVTED_clean_linker_0, # of connection points: 2
#     Edge 90, Type (0, 0), BuildingBlock: XIVTED_clean_linker_0, # of connection points: 2
#     Edge 91, Type (0, 0), BuildingBlock: XIVTED_clean_linker_0, # of connection points: 2
#     Edge 92, Type (0, 0), BuildingBlock: XIVTED_clean_linker_0, # of connection points: 2
#     Edge 93, Type (0, 0), BuildingBlock: XIVTED_clean_linker_0, # of connection points: 2
#     Edge 94, Type (0, 0), BuildingBlock: XIVTED_clean_linker_0, # of connection points: 2
#     Edge 95, Type (0, 0), BuildingBlock: XIVTED_clean_linker_0, # of connection points: 2
#     Edge 96, Type (0, 0), BuildingBlock: XIVTED_clean_linker_0, # of connection points: 2
#     Edge 97, Type (0, 0), BuildingBlock: XIVTED_clean_linker_0, # of connection points: 2
#     Edge 98, Type (0, 0), BuildingBlock: XIVTED_clean_linker_0, # of connection points: 2
#     Edge 99, Type (0, 0), BuildingBlock: XIVTED_clean_linker_0, # of connection points: 2
#     Edge 100, Type (0, 0), BuildingBlock: XIVTED_clean_linker_0, # of connection points: 2
#     Edge 101, Type (0, 0), BuildingBlock: XIVTED_clean_linker_0, # of connection points: 2
#     Edge 102, Type (0, 0), BuildingBlock: XIVTED_clean_linker_0, # of connection points: 2
#     Edge 103, Type (0, 0), BuildingBlock: XIVTED_clean_linker_0, # of connection points: 2
#     Edge 104, Type (0, 0), BuildingBlock: XIVTED_clean_linker_0, # of connection points: 2
#     Edge 105, Type (0, 0), BuildingBlock: XIVTED_clean_linker_0, # of connection points: 2
#     Edge 106, Type (0, 0), BuildingBlock: XIVTED_clean_linker_0, # of connection points: 2
#     Edge 107, Type (0, 0), BuildingBlock: XIVTED_clean_linker_0, # of connection points: 2
#     Edge 108, Type (0, 0), BuildingBlock: XIVTED_clean_linker_0, # of connection points: 2
#     Edge 109, Type (0, 0), BuildingBlock: XIVTED_clean_linker_0, # of connection points: 2
#     Edge 110, Type (0, 0), BuildingBlock: XIVTED_clean_linker_0, # of connection points: 2
#     Edge 111, Type (0, 0), BuildingBlock: XIVTED_clean_linker_0, # of connection points: 2
# Relax obj value: 0.283
# Max RMSD: 0.229
# Mean RMSD: 0.229
data_MOF--net-wgd--node1-BEQFEK_clean_sbu_0--edge1-XIVTED_clean_linker_0
_symmetry_space_group_name_H-M    P1
_symmetry_Int_Tables_number       1
_symmetry_cell_setting            triclinic
loop_
_symmetry_equiv_pos_as_xyz
'x, y, z'
_cell_length_a     101.93732
_cell_length_b     101.88557
_cell_length_c     18.48132
_cell_angle_alpha  90.006585
_cell_angle_beta   89.981661
_cell_angle_gamma 90.009104
loop_
_atom_site_label
_atom_site_type_symbol
_atom_site_fract_x
_atom_site_fract_y
_atom_site_fract_z
_atom_type_partial_charge
Co0 Co 0.17395 0.17245 0.11211 0.0
Co1 Co 0.18881 0.17057 0.96581 0.0
C2 C 0.177 0.19591 0.02008 0.0
O3 O 0.17194 0.19044 0.07518 0.0
O4 O 0.18399 0.18941 0.97569 0.0
C5 C 0.16392 0.18072 0.24608 0.0
O6 O 0.16615 0.19238 0.2184 0.0
C7 C 0.1888 0.1739 0.81211 0.0
C8 C 0.20431 0.16043 0.77379 0.0
C9 C 0.19464 0.16899 0.75025 0.0
N10 N 0.19471 0.1685 0.8696 0.0
N11 N 0.20414 0.16063 0.84673 0.0
C12 C 0.17656 0.18201 0.81703 0.0
H13 H 0.17926 0.19256 0.81663 0.0
H14 H 0.17122 0.17986 0.86798 0.0
H15 H 0.16994 0.18006 0.7706 0.0
C16 C 0.15814 0.15136 0.04681 0.0
N17 N 0.16798 0.16012 0.04465 0.0
N18 N 0.17417 0.15919 0.9824 0.0
C19 C 0.16839 0.14972 0.94253 0.0
C20 C 0.15802 0.14446 0.98209 0.0
C21 C 0.14949 0.14933 0.11131 0.0
H22 H 0.15564 0.14827 0.16044 0.0
H23 H 0.14319 0.15811 0.11878 0.0
H24 H 0.14324 0.14048 0.10557 0.0
O25 O 0.19244 0.16895 0.13607 0.0
O26 O 0.20336 0.16651 0.03322 0.0
H27 H 0.18288 0.14414 0.86443 0.0
H28 H 0.16669 0.13793 0.84444 0.0
C29 C 0.17225 0.14635 0.86651 0.0
H30 H 0.17026 0.15487 0.83108 0.0
H31 H 0.21003 0.15496 0.88071 0.0
O32 O 0.16506 0.17069 0.20581 0.0
C33 C 0.20302 0.16656 0.10208 0.0
Co34 Co 0.0681 0.92431 0.35501 0.0
Co35 Co 0.06886 0.94 0.21038 0.0
C36 C 0.04418 0.92696 0.26716 0.0
O37 O 0.04999 0.92184 0.32102 0.0
O38 O 0.05029 0.93434 0.22295 0.0
C39 C 0.06117 0.91338 0.4894 0.0
O40 O 0.04929 0.91438 0.46251 0.0
C41 C 0.0655 0.93922 0.05688 0.0
C42 C 0.07695 0.95613 0.01677 0.0
C43 C 0.06967 0.94537 -0.00573 0.0
N44 N 0.0701 0.94597 0.1137 0.0
N45 N 0.07675 0.95621 0.08973 0.0
C46 C 0.05883 0.92615 0.06333 0.0
H47 H 0.06116 0.92149 0.11598 0.0
H48 H 0.06187 0.91949 0.0189 0.0
H49 H 0.04806 0.9276 0.06012 0.0
C50 C 0.08874 0.909 0.28205 0.0
N51 N 0.08012 0.91898 0.28441 0.0
N52 N 0.08075 0.92571 0.2237 0.0
C53 C 0.08996 0.92022 0.18091 0.0
C54 C 0.0952 0.90946 0.21627 0.0
C55 C 0.09023 0.89896 0.34048 0.0
H56 H 0.09508 0.90357 0.38781 0.0
H57 H 0.0804 0.89556 0.35821 0.0
H58 H 0.09617 0.89046 0.32206 0.0
O59 O 0.07105 0.94289 0.37965 0.0
O60 O 0.07274 0.95448 0.27862 0.0
H61 H 0.10402 0.92167 0.09377 0.0
H62 H 0.08711 0.92184 0.06671 0.0
C63 C 0.0941 0.92531 0.10844 0.0
H64 H 0.09422 0.93617 0.10875 0.0
H65 H 0.08167 0.96288 0.12301 0.0
O66 O 0.07094 0.91542 0.44825 0.0
C67 C 0.07294 0.95374 0.3474 0.0
Co68 Co 0.31719 0.81827 0.62139 0.0
Co69 Co 0.30213 0.81915 0.47508 0.0
C70 C 0.31436 0.79428 0.53372 0.0
O71 O 0.3194 0.80003 0.58804 0.0
O72 O 0.30735 0.80053 0.48844 0.0
C73 C 0.32849 0.81101 0.75512 0.0
O74 O 0.32778 0.79915 0.72747 0.0
C75 C 0.30244 0.8153 0.32154 0.0
C76 C 0.28635 0.82792 0.28192 0.0
C77 C 0.29651 0.81986 0.25911 0.0
N78 N 0.29617 0.82048 0.37852 0.0
N79 N 0.28637 0.82779 0.35485 0.0
C80 C 0.31505 0.8078 0.32754 0.0
H81 H 0.32003 0.81004 0.37943 0.0
H82 H 0.32177 0.81021 0.28223 0.0
H83 H 0.31288 0.79713 0.32578 0.0
C84 C 0.33284 0.839 0.55052 0.0
N85 N 0.32294 0.83027 0.55116 0.0
N86 N 0.31652 0.8309 0.48955 0.0
C87 C 0.32208 0.84022 0.44767 0.0
C88 C 0.33264 0.84562 0.48488 0.0
C89 C 0.34196 0.84114 0.61281 0.0
H90 H 0.33617 0.8428 0.66278 0.0
H91 H 0.34794 0.83216 0.62114 0.0
H92 H 0.34852 0.84968 0.60381 0.0
O93 O 0.29857 0.82152 0.64499 0.0
O94 O 0.28758 0.82324 0.54195 0.0
H95 H 0.30709 0.84457 0.37006 0.0
H96 H 0.32261 0.85216 0.34974 0.0
C97 C 0.31787 0.84326 0.37183 0.0
H98 H 0.32059 0.83499 0.33614 0.0
H99 H 0.28015 0.83323 0.38827 0.0
O100 O 0.32602 0.82081 0.71495 0.0
C101 C 0.28792 0.8235 0.61078 0.0
Co102 Co 0.42273 0.06705 0.86118 0.0
Co103 Co 0.4213 0.05202 0.71522 0.0
C104 C 0.44636 0.06444 0.77117 0.0
O105 O 0.44076 0.06936 0.82628 0.0
O106 O 0.44002 0.05738 0.72638 0.0
C107 C 0.43012 0.07822 -0.00515 0.0
O108 O 0.44197 0.07712 0.96769 0.0
C109 C 0.4244 0.05308 0.56195 0.0
C110 C 0.41253 0.03653 0.52109 0.0
C111 C 0.42008 0.04713 0.49915 0.0
N112 N 0.41965 0.04636 0.61842 0.0
N113 N 0.41273 0.03632 0.59404 0.0
C114 C 0.43139 0.06597 0.56898 0.0
H115 H 0.42904 0.07068 0.62152 0.0
H116 H 0.42863 0.07273 0.52441 0.0
H117 H 0.44213 0.06425 0.56657 0.0
C118 C 0.40213 0.08297 0.79232 0.0
N119 N 0.41065 0.07291 0.79228 0.0
N120 N 0.40952 0.06628 0.73154 0.0
C121 C 0.39989 0.07176 0.69156 0.0
C122 C 0.395 0.08255 0.7286 0.0
C123 C 0.40072 0.09252 0.85331 0.0
H124 H 0.3976 0.08717 0.90267 0.0
H125 H 0.4104 0.09706 0.8649 0.0
H126 H 0.39342 0.10028 0.84097 0.0
O127 O 0.41948 0.04838 0.88462 0.0
O128 O 0.41748 0.03736 0.78175 0.0
H129 H 0.39516 0.05621 0.61786 0.0
H130 H 0.38612 0.07115 0.60211 0.0
C131 C 0.39575 0.06706 0.61826 0.0
H132 H 0.40309 0.07023 0.57766 0.0
H133 H 0.40769 0.02971 0.62704 0.0
O134 O 0.42031 0.07592 0.95451 0.0
C135 C 0.41739 0.03772 0.85059 0.0
Co136 Co 0.17503 0.81817 0.87893 0.0
Co137 Co 0.1897 0.8185 0.02637 0.0
C138 C 0.17726 0.79394 0.96569 0.0
O139 O 0.17256 0.79993 0.91123 0.0
O140 O 0.18423 0.79994 0.01225 0.0
C141 C 0.16286 0.81131 0.74603 0.0
O142 O 0.16271 0.79946 0.77402 0.0
C143 C 0.18903 0.81463 0.17979 0.0
C144 C 0.20522 0.82704 0.22031 0.0
C145 C 0.19489 0.81914 0.24254 0.0
N146 N 0.1955 0.81969 0.12319 0.0
N147 N 0.20535 0.82689 0.1474 0.0
C148 C 0.17633 0.8073 0.17303 0.0
H149 H 0.1715 0.80958 0.12076 0.0
H150 H 0.16954 0.80983 0.21784 0.0
H151 H 0.17834 0.7966 0.17509 0.0
C152 C 0.15963 0.83907 0.94898 0.0
N153 N 0.16929 0.8301 0.94925 0.0
N154 N 0.1755 0.8305 0.01158 0.0
C155 C 0.16998 0.83989 0.05319 0.0
C156 C 0.15971 0.84559 0.0149 0.0
C157 C 0.15092 0.84162 0.8853 0.0
H158 H 0.15705 0.84321 0.83647 0.0
H159 H 0.14473 0.83285 0.87533 0.0
H160 H 0.14459 0.85033 0.89365 0.0
O161 O 0.19368 0.82132 0.85652 0.0
O162 O 0.20446 0.8225 0.96045 0.0
H163 H 0.18479 0.844 0.13229 0.0
H164 H 0.16927 0.85172 0.15143 0.0
C165 C 0.174 0.84281 0.1295 0.0
H166 H 0.17109 0.83451 0.16463 0.0
H167 H 0.21171 0.83223 0.11433 0.0
O168 O 0.16628 0.82092 0.78543 0.0
C169 C 0.20427 0.82304 0.89164 0.0
Co170 Co 0.42126 0.92479 0.11942 0.0
Co171 Co 0.42134 0.93971 0.26638 0.0
C172 C 0.44576 0.92735 0.20247 0.0
O173 O 0.43971 0.9225 0.14859 0.0
O174 O 0.43978 0.93428 0.24935 0.0
C175 C 0.42726 0.91206 0.98677 0.0
O176 O 0.43913 0.91139 0.01418 0.0
C177 C 0.42549 0.9383 0.41908 0.0
C178 C 0.41419 0.95503 0.4627 0.0
C179 C 0.42152 0.94416 0.48294 0.0
N180 N 0.42069 0.94531 0.36375 0.0
N181 N 0.41415 0.95546 0.3898 0.0
C182 C 0.43209 0.92525 0.41012 0.0
H183 H 0.42973 0.92092 0.35667 0.0
H184 H 0.42904 0.91834 0.45335 0.0
H185 H 0.44287 0.92663 0.41353 0.0
C186 C 0.40134 0.90884 0.19484 0.0
N187 N 0.40982 0.91894 0.19198 0.0
N188 N 0.4095 0.92541 0.25357 0.0
C189 C 0.40061 0.91967 0.29742 0.0
C190 C 0.3953 0.90896 0.26191 0.0
C191 C 0.39952 0.89904 0.13542 0.0
H192 H 0.39451 0.90388 0.08926 0.0
H193 H 0.40925 0.89564 0.11608 0.0
H194 H 0.39359 0.89052 0.15357 0.0
O195 O 0.41793 0.9435 0.09753 0.0
O196 O 0.417 0.95443 0.20116 0.0
H197 H 0.38692 0.92083 0.38636 0.0
H198 H 0.40392 0.92083 0.41144 0.0
C199 C 0.39679 0.92449 0.37095 0.0
H200 H 0.3967 0.93535 0.37194 0.0
H201 H 0.40911 0.96225 0.358 0.0
O202 O 0.4179 0.91601 0.0265 0.0
C203 C 0.41629 0.95414 0.13241 0.0
Co204 Co 0.31481 0.17198 0.38032 0.0
Co205 Co 0.29941 0.17222 0.52544 0.0
C206 C 0.31145 0.19673 0.45868 0.0
O207 O 0.31672 0.19057 0.40635 0.0
O208 O 0.30447 0.19079 0.50557 0.0
C209 C 0.32689 0.1767 0.24446 0.0
O210 O 0.32738 0.189 0.26559 0.0
C211 C 0.29875 0.17711 0.67887 0.0
C212 C 0.28544 0.16161 0.71865 0.0
C213 C 0.29443 0.17096 0.74137 0.0
N214 N 0.29317 0.17118 0.62192 0.0
N215 N 0.28485 0.16223 0.64592 0.0
C216 C 0.30827 0.18825 0.67228 0.0
H217 H 0.30404 0.19587 0.63668 0.0
H218 H 0.3175 0.1847 0.64719 0.0
H219 H 0.31033 0.19293 0.72524 0.0
C220 C 0.33105 0.15287 0.45809 0.0
N221 N 0.32075 0.16108 0.45451 0.0
N222 N 0.31418 0.16071 0.51568 0.0
C223 C 0.32006 0.15199 0.56014 0.0
C224 C 0.33093 0.14681 0.52507 0.0
C225 C 0.3405 0.15067 0.39731 0.0
H226 H 0.33512 0.14659 0.35022 0.0
H227 H 0.34476 0.16022 0.38047 0.0
H228 H 0.34847 0.1438 0.41257 0.0
O229 O 0.29634 0.16818 0.3566 0.0
O230 O 0.2851 0.16717 0.45898 0.0
H231 H 0.30535 0.14631 0.63637 0.0
H232 H 0.32166 0.14112 0.66087 0.0
C233 C 0.31584 0.14912 0.63602 0.0
H234 H 0.31717 0.15803 0.6694 0.0
H235 H 0.27959 0.15585 0.61263 0.0
O236 O 0.32371 0.1679 0.28961 0.0
C237 C 0.28564 0.1663 0.39038 0.0
Co238 Co 0.06876 0.06444 0.63999 0.0
Co239 Co 0.06765 0.04877 0.78414 0.0
C240 C 0.04374 0.06176 0.71602 0.0
O241 O 0.05018 0.06701 0.66466 0.0
O242 O 0.04936 0.05444 0.76253 0.0
C243 C 0.06492 0.07678 0.50417 0.0
O244 O 0.05267 0.07805 0.52501 0.0
C245 C 0.06296 0.04912 0.93748 0.0
C246 C 0.07648 0.03389 0.97823 0.0
C247 C 0.06845 0.04413 0.00032 0.0
N248 N 0.06804 0.04262 0.88095 0.0
N249 N 0.0758 0.03324 0.90552 0.0
C250 C 0.05324 0.06007 0.93013 0.0
H251 H 0.04531 0.05705 0.89293 0.0
H252 H 0.05814 0.06881 0.90667 0.0
H253 H 0.04861 0.06259 0.9826 0.0
C254 C 0.08842 0.07969 0.71951 0.0
N255 N 0.07974 0.06979 0.71502 0.0
N256 N 0.07964 0.06315 0.77603 0.0
C257 C 0.08843 0.06868 0.82149 0.0
C258 C 0.09417 0.07931 0.78717 0.0
C259 C 0.09075 0.08951 0.66078 0.0
H260 H 0.08121 0.09286 0.63853 0.0
H261 H 0.0964 0.09809 0.68076 0.0
H262 H 0.09629 0.08475 0.61626 0.0
O263 O 0.07186 0.04587 0.61623 0.0
O264 O 0.07242 0.0343 0.71758 0.0
H265 H 0.10121 0.06787 0.91478 0.0
H266 H 0.08398 0.06646 0.9336 0.0
C267 C 0.09182 0.06365 0.89516 0.0
H268 H 0.09271 0.05284 0.89379 0.0
H269 H 0.08138 0.02706 0.87259 0.0
O270 O 0.07348 0.07314 0.54963 0.0
C271 C 0.07336 0.03502 0.64902 0.0
Co272 Co 0.81495 0.81843 0.87988 0.0
Co273 Co 0.7998 0.81842 0.02623 0.0
C274 C 0.81269 0.79408 0.9649 0.0
O275 O 0.81749 0.80016 0.91101 0.0
O276 O 0.80555 0.79995 0.01116 0.0
C277 C 0.82722 0.81217 0.74664 0.0
O278 O 0.82759 0.80029 0.77406 0.0
C279 C 0.80097 0.81479 0.17952 0.0
C280 C 0.784 0.82599 0.22099 0.0
C281 C 0.79493 0.81888 0.24263 0.0
N282 N 0.79402 0.81932 0.12328 0.0
N283 N 0.78374 0.8258 0.14807 0.0
C284 C 0.81411 0.80833 0.17199 0.0
H285 H 0.81853 0.8106 0.1186 0.0
H286 H 0.82089 0.81159 0.21539 0.0
H287 H 0.81287 0.79754 0.17624 0.0
C288 C 0.83037 0.83885 0.95376 0.0
N289 N 0.82046 0.83015 0.95156 0.0
N290 N 0.81395 0.83049 0.01303 0.0
C291 C 0.81949 0.83961 0.0562 0.0
C292 C 0.83008 0.84508 0.02026 0.0
C293 C 0.84017 0.84065 0.89439 0.0
H294 H 0.84356 0.83091 0.87499 0.0
H295 H 0.84871 0.84654 0.91258 0.0
H296 H 0.83537 0.84569 0.84826 0.0
O297 O 0.7963 0.82143 0.85704 0.0
O298 O 0.78511 0.82241 0.95977 0.0
H299 H 0.81805 0.8535 0.14413 0.0
H300 H 0.81827 0.83655 0.1704 0.0
C301 C 0.81455 0.84354 0.12934 0.0
H302 H 0.80369 0.84346 0.13006 0.0
H303 H 0.77694 0.83064 0.11536 0.0
O304 O 0.82372 0.82166 0.78675 0.0
C305 C 0.78557 0.82302 0.89099 0.0
Co306 Co 0.92213 0.067 0.60846 0.0
Co307 Co 0.921 0.05166 0.75373 0.0
C308 C 0.94594 0.06416 0.69617 0.0
O309 O 0.94029 0.06928 0.64181 0.0
O310 O 0.93962 0.05706 0.74077 0.0
C311 C 0.92917 0.07814 0.47444 0.0
O312 O 0.94106 0.07705 0.50109 0.0
C313 C 0.92464 0.05269 0.90663 0.0
C314 C 0.91301 0.03606 0.94876 0.0
C315 C 0.92057 0.04671 0.96989 0.0
N316 N 0.91974 0.04593 0.85067 0.0
N317 N 0.91297 0.03585 0.87579 0.0
C318 C 0.93149 0.06564 0.8989 0.0
H319 H 0.92896 0.07031 0.84654 0.0
H320 H 0.9288 0.07238 0.94365 0.0
H321 H 0.94225 0.06401 0.90045 0.0
C322 C 0.90164 0.08276 0.6803 0.0
N323 N 0.91017 0.07271 0.67875 0.0
N324 N 0.90917 0.0659 0.73896 0.0
C325 C 0.89963 0.07123 0.78012 0.0
C326 C 0.89464 0.08212 0.74449 0.0
C327 C 0.9001 0.09251 0.62042 0.0
H328 H 0.89683 0.08733 0.57079 0.0
H329 H 0.90976 0.09705 0.60846 0.0
H330 H 0.89286 0.10025 0.63418 0.0
O331 O 0.91894 0.04831 0.58462 0.0
O332 O 0.91708 0.03711 0.68699 0.0
H333 H 0.8952 0.05545 0.85293 0.0
H334 H 0.88607 0.07026 0.87058 0.0
C335 C 0.89569 0.06631 0.85334 0.0
H336 H 0.90309 0.06946 0.89367 0.0
H337 H 0.90785 0.02921 0.84334 0.0
O338 O 0.91942 0.07592 0.51537 0.0
C339 C 0.91694 0.03759 0.61817 0.0
Co340 Co 0.676 0.1709 0.38523 0.0
Co341 Co 0.69116 0.17105 0.53133 0.0
C342 C 0.67794 0.19526 0.47037 0.0
O343 O 0.67316 0.18913 0.41658 0.0
O344 O 0.68522 0.18946 0.51626 0.0
C345 C 0.66384 0.17704 0.25189 0.0
O346 O 0.66363 0.18896 0.27892 0.0
C347 C 0.68991 0.17493 0.68418 0.0
C348 C 0.70688 0.16387 0.72673 0.0
C349 C 0.69595 0.17104 0.74764 0.0
N350 N 0.6969 0.17028 0.62839 0.0
N351 N 0.70718 0.16387 0.65379 0.0
C352 C 0.67676 0.18133 0.67605 0.0
H353 H 0.6723 0.17879 0.62316 0.0
H354 H 0.67001 0.17827 0.72008 0.0
H355 H 0.67799 0.19214 0.67862 0.0
C356 C 0.66077 0.15034 0.45923 0.0
N357 N 0.67064 0.15909 0.45681 0.0
N358 N 0.67715 0.15883 0.51826 0.0
C359 C 0.67165 0.14971 0.56165 0.0
C360 C 0.66109 0.14416 0.52586 0.0
C361 C 0.65093 0.14851 0.4001 0.0
H362 H 0.65574 0.14358 0.35362 0.0
H363 H 0.64743 0.15824 0.38117 0.0
H364 H 0.64246 0.14251 0.41833 0.0
O365 O 0.69471 0.16818 0.36225 0.0
O366 O 0.7059 0.16721 0.46495 0.0
H367 H 0.67303 0.13602 0.65053 0.0
H368 H 0.67278 0.15304 0.67566 0.0
C369 C 0.67653 0.14596 0.63514 0.0
H370 H 0.68739 0.14604 0.63604 0.0
H371 H 0.71401 0.15896 0.62153 0.0
O372 O 0.66724 0.16755 0.29226 0.0
C373 C 0.70546 0.16668 0.39616 0.0
Co374 Co 0.56843 0.92537 0.13079 0.0
Co375 Co 0.56818 0.94028 0.27783 0.0
C376 C 0.54371 0.9283 0.21369 0.0
O377 O 0.5499 0.92341 0.16029 0.0
O378 O 0.54958 0.93515 0.26145 0.0
C379 C 0.56271 0.91376 -0.0049 0.0
O380 O 0.55048 0.91411 0.01726 0.0
C381 C 0.56331 0.94321 0.43138 0.0
C382 C 0.5815 0.95285 0.46826 0.0
C383 C 0.57043 0.94634 0.49291 0.0
N384 N 0.57023 0.94694 0.37322 0.0
N385 N 0.58085 0.95318 0.39551 0.0
C386 C 0.55028 0.93651 0.42703 0.0
H387 H 0.54389 0.94219 0.39023 0.0
H388 H 0.55154 0.92651 0.40427 0.0
H389 H 0.54538 0.936 0.48054 0.0
C390 C 0.58865 0.90974 0.20433 0.0
N391 N 0.57988 0.9196 0.20304 0.0
N392 N 0.57949 0.92535 0.26667 0.0
C393 C 0.58775 0.91896 0.31157 0.0
C394 C 0.59394 0.90898 0.27331 0.0
C395 C 0.5922 0.90168 0.13948 0.0
H396 H 0.59371 0.90822 0.09223 0.0
H397 H 0.58398 0.89493 0.12664 0.0
H398 H 0.60128 0.89591 0.14843 0.0
O399 O 0.57195 0.94374 0.10625 0.0
O400 O 0.57284 0.95463 0.20974 0.0
H401 H 0.59441 0.93042 0.4011 0.0
H402 H 0.59352 0.91309 0.41988 0.0
C403 C 0.5887 0.92134 0.39128 0.0
H404 H 0.57875 0.92245 0.41412 0.0
H405 H 0.58821 0.95661 0.36113 0.0
O406 O 0.57182 0.91636 0.03951 0.0
C407 C 0.57367 0.95434 0.14105 0.0
Co408 Co 0.81626 0.17236 0.1043 0.0
Co409 Co 0.80085 0.17149 0.95899 0.0
C410 C 0.81355 0.19629 0.017 0.0
O411 O 0.81856 0.19051 0.07126 0.0
O412 O 0.8064 0.19011 0.97199 0.0
C413 C 0.82767 0.17927 0.23824 0.0
O414 O 0.82704 0.19117 0.2112 0.0
C415 C 0.80182 0.17495 0.80562 0.0
C416 C 0.78507 0.16336 0.7647 0.0
C417 C 0.79579 0.17075 0.74272 0.0
N418 N 0.79504 0.17026 0.8621 0.0
N419 N 0.78488 0.16353 0.83765 0.0
C420 C 0.81482 0.18172 0.81268 0.0
H421 H 0.81943 0.17937 0.86545 0.0
H422 H 0.82156 0.17876 0.76843 0.0
H423 H 0.8133 0.19249 0.80968 0.0
C424 C 0.83202 0.15205 0.03134 0.0
N425 N 0.82189 0.16049 0.03352 0.0
N426 N 0.81507 0.15955 0.97335 0.0
C427 C 0.82046 0.15011 0.93163 0.0
C428 C 0.83142 0.14516 0.96678 0.0
C429 C 0.84187 0.15057 0.09074 0.0
H430 H 0.83678 0.14735 0.14076 0.0
H431 H 0.84642 0.16025 0.10215 0.0
H432 H 0.84958 0.14332 0.07679 0.0
O433 O 0.79761 0.16921 0.12811 0.0
O434 O 0.78629 0.16759 0.0261 0.0
H435 H 0.80471 0.14596 0.85812 0.0
H436 H 0.81935 0.13655 0.84129 0.0
C437 C 0.81557 0.14626 0.85822 0.0
H438 H 0.81894 0.15357 0.81796 0.0
H439 H 0.77822 0.15854 0.8706 0.0
O440 O 0.82512 0.16955 0.19755 0.0
C441 C 0.78685 0.16732 0.0949 0.0
Co442 Co 0.56775 0.0655 0.85472 0.0
Co443 Co 0.56881 0.05045 0.70858 0.0
C444 C 0.544 0.06312 0.76444 0.0
O445 O 0.54976 0.06804 0.81902 0.0
O446 O 0.55016 0.0559 0.71973 0.0
C447 C 0.56008 0.07608 0.98875 0.0
O448 O 0.54831 0.0746 0.96113 0.0
C449 C 0.56527 0.05055 0.55492 0.0
C450 C 0.57806 0.03449 0.51638 0.0
C451 C 0.56992 0.04453 0.49294 0.0
N452 N 0.57044 0.04441 0.61232 0.0
N453 N 0.57789 0.03465 0.58932 0.0
C454 C 0.55768 0.06312 0.56005 0.0
H455 H 0.56 0.06831 0.61124 0.0
H456 H 0.55994 0.0697 0.51389 0.0
H457 H 0.54703 0.06086 0.5593 0.0
C458 C 0.58913 0.08062 0.78706 0.0
N459 N 0.58009 0.07102 0.78604 0.0
N460 N 0.58069 0.06472 0.724 0.0
C461 C 0.59025 0.07015 0.68323 0.0
C462 C 0.59588 0.08043 0.72187 0.0
C463 C 0.59151 0.08936 0.85082 0.0
H464 H 0.59252 0.08329 0.9003 0.0
H465 H 0.58291 0.09589 0.85841 0.0
H466 H 0.6005 0.09537 0.84404 0.0
O467 O 0.57069 0.0469 0.87882 0.0
O468 O 0.57259 0.03584 0.77608 0.0
H469 H 0.595 0.05532 0.60535 0.0
H470 H 0.60205 0.07113 0.58493 0.0
C471 C 0.59336 0.06606 0.60724 0.0
H472 H 0.58495 0.0685 0.5719 0.0
H473 H 0.58333 0.02852 0.62318 0.0
O474 O 0.57001 0.07434 0.94837 0.0
C475 C 0.57269 0.03622 0.84493 0.0
Co476 Co 0.67376 0.81749 0.60944 0.0
Co477 Co 0.68908 0.81849 0.46386 0.0
C478 C 0.67659 0.7936 0.52133 0.0
O479 O 0.67156 0.79932 0.57578 0.0
O480 O 0.68371 0.79984 0.47641 0.0
C481 C 0.6625 0.81046 0.74338 0.0
O482 O 0.66331 0.79857 0.71634 0.0
C483 C 0.68814 0.81519 0.31051 0.0
C484 C 0.70486 0.82686 0.26987 0.0
C485 C 0.69417 0.81944 0.24774 0.0
N486 N 0.69489 0.81986 0.36709 0.0
N487 N 0.70502 0.82665 0.34282 0.0
C488 C 0.67517 0.80835 0.31736 0.0
H489 H 0.67055 0.8106 0.37024 0.0
H490 H 0.66842 0.81134 0.27324 0.0
H491 H 0.67674 0.7976 0.3139 0.0
C492 C 0.65788 0.83778 0.53731 0.0
N493 N 0.66805 0.82939 0.5391 0.0
N494 N 0.67465 0.83015 0.47805 0.0
C495 C 0.66892 0.83927 0.43562 0.0
C496 C 0.65808 0.84427 0.4715 0.0
C497 C 0.64788 0.83899 0.59616 0.0
H498 H 0.64515 0.82908 0.61603 0.0
H499 H 0.63898 0.84423 0.57722 0.0
H500 H 0.65224 0.84447 0.64213 0.0
O501 O 0.69234 0.82075 0.63327 0.0
O502 O 0.70361 0.82253 0.53113 0.0
H503 H 0.67023 0.85356 0.34959 0.0
H504 H 0.67053 0.83671 0.32116 0.0
C505 C 0.67394 0.84363 0.36341 0.0
H506 H 0.6848 0.84385 0.3636 0.0
H507 H 0.71167 0.83163 0.3759 0.0
O508 O 0.66489 0.82021 0.70271 0.0
C509 C 0.70307 0.82276 0.59995 0.0
Co510 Co 0.92256 0.92493 0.34675 0.0
Co511 Co 0.92179 0.93963 0.19951 0.0
C512 C 0.94651 0.92721 0.25787 0.0
O513 O 0.94068 0.92247 0.31271 0.0
O514 O 0.9404 0.93421 0.21198 0.0
C515 C 0.92985 0.91334 0.47998 0.0
O516 O 0.94169 0.91386 0.45211 0.0
C517 C 0.92545 0.93915 0.046 0.0
C518 C 0.91276 0.95518 0.00625 0.0
C519 C 0.92084 0.94503 0.98357 0.0
N520 N 0.92031 0.94546 0.10291 0.0
N521 N 0.91294 0.95522 0.07917 0.0
C522 C 0.93297 0.92655 0.05213 0.0
H523 H 0.93069 0.92155 0.10391 0.0
H524 H 0.93062 0.91983 0.00671 0.0
H525 H 0.94363 0.92874 0.05073 0.0
C526 C 0.90142 0.90956 0.27879 0.0
N527 N 0.91042 0.9192 0.2776 0.0
N528 N 0.90989 0.92537 0.21517 0.0
C529 C 0.90041 0.91983 0.17432 0.0
C530 C 0.89477 0.9096 0.21331 0.0
C531 C 0.89896 0.90096 0.34301 0.0
H532 H 0.89764 0.90716 0.39181 0.0
H533 H 0.90766 0.89462 0.35219 0.0
H534 H 0.89012 0.89475 0.3358 0.0
O535 O 0.91945 0.94357 0.36958 0.0
O536 O 0.91792 0.95438 0.26583 0.0
H537 H 0.89587 0.93453 0.09532 0.0
H538 H 0.88862 0.91877 0.07608 0.0
C539 C 0.89738 0.92377 0.09803 0.0
H540 H 0.90576 0.92114 0.0629 0.0
H541 H 0.90752 0.96145 0.11257 0.0
O542 O 0.92008 0.91615 0.44035 0.0
C543 C 0.91759 0.95417 0.33468 0.0
Co544 Co 0.67444 0.67186 0.60966 0.0
Co545 Co 0.68899 0.6712 0.46203 0.0
C546 C 0.67651 0.69586 0.521 0.0
O547 O 0.67185 0.68997 0.57589 0.0
O548 O 0.68352 0.6898 0.47484 0.0
C549 C 0.66257 0.67905 0.74262 0.0
O550 O 0.6628 0.69089 0.71461 0.0
C551 C 0.68838 0.67489 0.30857 0.0
C552 C 0.70446 0.6623 0.26838 0.0
C553 C 0.69425 0.67032 0.24598 0.0
N554 N 0.69477 0.66977 0.3653 0.0
N555 N 0.70455 0.66246 0.34129 0.0
C556 C 0.67576 0.68235 0.31504 0.0
H557 H 0.67081 0.68003 0.36696 0.0
H558 H 0.66901 0.67995 0.2698 0.0
H559 H 0.67789 0.69302 0.3136 0.0
C560 C 0.65907 0.65072 0.54185 0.0
N561 N 0.6687 0.65972 0.54053 0.0
N562 N 0.67481 0.65924 0.47791 0.0
C563 C 0.66924 0.64976 0.43708 0.0
C564 C 0.65905 0.6441 0.47627 0.0
C565 C 0.65052 0.64823 0.60624 0.0
H566 H 0.65675 0.64684 0.65483 0.0
H567 H 0.64423 0.65695 0.61587 0.0
H568 H 0.64427 0.63942 0.59897 0.0
O569 O 0.69312 0.66885 0.63206 0.0
O570 O 0.7038 0.66736 0.5279 0.0
H571 H 0.68388 0.64534 0.35752 0.0
H572 H 0.66817 0.63795 0.33889 0.0
C573 C 0.67312 0.64676 0.36064 0.0
H574 H 0.67037 0.65512 0.32561 0.0
H575 H 0.71083 0.65708 0.37452 0.0
O576 O 0.6657 0.66933 0.70328 0.0
C577 C 0.70367 0.66703 0.59675 0.0
Co578 Co 0.56855 0.425 0.84481 0.0
Co579 Co 0.56907 0.44062 0.70007 0.0
C580 C 0.54444 0.42779 0.75886 0.0
O581 O 0.55037 0.42264 0.8122 0.0
O582 O 0.55047 0.4351 0.71402 0.0
C583 C 0.56171 0.41392 0.97916 0.0
O584 O 0.54981 0.41488 0.9525 0.0
C585 C 0.56518 0.4399 0.54701 0.0
C586 C 0.57685 0.45656 0.50559 0.0
C587 C 0.56927 0.44595 0.48394 0.0
N588 N 0.57011 0.44656 0.60328 0.0
N589 N 0.57689 0.45667 0.57856 0.0
C590 C 0.55834 0.42694 0.55423 0.0
H591 H 0.56087 0.42221 0.60645 0.0
H592 H 0.56106 0.42024 0.5093 0.0
H593 H 0.54758 0.42855 0.55266 0.0
C594 C 0.58928 0.40983 0.77175 0.0
N595 N 0.58041 0.41958 0.77353 0.0
N596 N 0.58106 0.42639 0.71314 0.0
C597 C 0.59064 0.42128 0.6713 0.0
C598 C 0.59608 0.41059 0.70695 0.0
C599 C 0.59144 0.40039 0.83261 0.0
H600 H 0.59406 0.40595 0.88217 0.0
H601 H 0.58217 0.39505 0.84386 0.0
H602 H 0.59937 0.39328 0.82035 0.0
O603 O 0.5717 0.44359 0.86906 0.0
O604 O 0.57316 0.45512 0.76764 0.0
H605 H 0.59484 0.43711 0.59844 0.0
H606 H 0.60365 0.42221 0.57812 0.0
C607 C 0.59421 0.42626 0.5976 0.0
H608 H 0.58653 0.42328 0.55858 0.0
H609 H 0.58205 0.46324 0.61127 0.0
O610 O 0.57144 0.41608 0.93793 0.0
C611 C 0.57356 0.45442 0.83641 0.0
Co612 Co 0.81559 0.31813 0.11046 0.0
Co613 Co 0.8006 0.3187 0.96395 0.0
C614 C 0.81321 0.29405 0.02343 0.0
O615 O 0.81802 0.29992 0.078 0.0
O616 O 0.80615 0.30014 0.97761 0.0
C617 C 0.82769 0.31153 0.24365 0.0
O618 O 0.82773 0.29964 0.21632 0.0
C619 C 0.80188 0.31531 0.81073 0.0
C620 C 0.78511 0.32678 0.76913 0.0
C621 C 0.79594 0.31951 0.74762 0.0
N622 N 0.79495 0.31989 0.8669 0.0
N623 N 0.78478 0.32655 0.84204 0.0
C624 C 0.81491 0.30864 0.81837 0.0
H625 H 0.81938 0.3109 0.87164 0.0
H626 H 0.82174 0.31175 0.77482 0.0
H627 H 0.81349 0.29786 0.81452 0.0
C628 C 0.83147 0.3384 0.03827 0.0
N629 N 0.82135 0.32994 0.03986 0.0
N630 N 0.81487 0.33056 0.97839 0.0
C631 C 0.82064 0.33965 0.93586 0.0
C632 C 0.83136 0.34477 0.97215 0.0
C633 C 0.84137 0.33972 0.09755 0.0
H634 H 0.83687 0.34515 0.14335 0.0
H635 H 0.84418 0.32985 0.11752 0.0
H636 H 0.85024 0.34506 0.07903 0.0
O637 O 0.79693 0.32125 0.13318 0.0
O638 O 0.78589 0.32264 0.03015 0.0
H639 H 0.80489 0.34394 0.86244 0.0
H640 H 0.81938 0.35382 0.84927 0.0
C641 C 0.81575 0.34386 0.86312 0.0
H642 H 0.81937 0.33694 0.82138 0.0
H643 H 0.77803 0.33147 0.87472 0.0
O644 O 0.82436 0.3211 0.20369 0.0
C645 C 0.78625 0.32303 0.09897 0.0
Co646 Co 0.92152 0.56457 0.35159 0.0
Co647 Co 0.92139 0.54939 0.20529 0.0
C648 C 0.94617 0.56071 0.26938 0.0
O649 O 0.9401 0.56593 0.32223 0.0
O650 O 0.94014 0.55391 0.22206 0.0
C651 C 0.92761 0.57574 0.48748 0.0
O652 O 0.93981 0.57491 0.46512 0.0
C653 C 0.92634 0.54623 0.05188 0.0
C654 C 0.90804 0.53682 0.01474 0.0
C655 C 0.91925 0.54313 0.9902 0.0
N656 N 0.91929 0.54268 0.10995 0.0
N657 N 0.9086 0.53658 0.08753 0.0
C658 C 0.93945 0.55276 0.05641 0.0
H659 H 0.94576 0.54706 0.09357 0.0
H660 H 0.9383 0.5628 0.07882 0.0
H661 H 0.94441 0.55316 0.00304 0.0
C662 C 0.90178 0.58066 0.27686 0.0
N663 N 0.9103 0.57059 0.27877 0.0
N664 N 0.91055 0.56469 0.21549 0.0
C665 C 0.90243 0.57119 0.17023 0.0
C666 C 0.89649 0.58139 0.20784 0.0
C667 C 0.89839 0.5889 0.34126 0.0
H668 H 0.89679 0.58249 0.38891 0.0
H669 H 0.90674 0.59552 0.35362 0.0
H670 H 0.88942 0.59482 0.33206 0.0
O671 O 0.91736 0.54637 0.37663 0.0
O672 O 0.91612 0.53531 0.27381 0.0
H673 H 0.89548 0.55957 0.08196 0.0
H674 H 0.8966 0.57683 0.06164 0.0
C675 C 0.90134 0.56859 0.09077 0.0
H676 H 0.91124 0.56726 0.06765 0.0
H677 H 0.90115 0.5333 0.12177 0.0
O678 O 0.91838 0.57372 0.44289 0.0
C679 C 0.91524 0.53577 0.34246 0.0
Co680 Co 0.674 0.31666 0.37808 0.0
Co681 Co 0.6893 0.31788 0.52343 0.0
C682 C 0.67655 0.29297 0.46784 0.0
O683 O 0.67155 0.2986 0.41309 0.0
O684 O 0.68373 0.29926 0.51218 0.0
C685 C 0.66314 0.30932 0.24398 0.0
O686 O 0.66439 0.29747 0.27105 0.0
C687 C 0.6885 0.31464 0.67684 0.0
C688 C 0.70516 0.32644 0.717 0.0
C689 C 0.69457 0.31892 0.73941 0.0
N690 N 0.69515 0.3194 0.62007 0.0
N691 N 0.70525 0.32627 0.64404 0.0
C692 C 0.67556 0.30775 0.67039 0.0
H693 H 0.67079 0.31016 0.61812 0.0
H694 H 0.6689 0.31055 0.71531 0.0
H695 H 0.6772 0.297 0.67261 0.0
C696 C 0.65885 0.33791 0.44687 0.0
N697 N 0.66849 0.32891 0.44723 0.0
N698 N 0.67517 0.32983 0.50788 0.0
C699 C 0.67011 0.3397 0.54776 0.0
C700 C 0.65958 0.34508 0.51051 0.0
C701 C 0.64961 0.33991 0.38495 0.0
H702 H 0.65533 0.34237 0.33568 0.0
H703 H 0.64429 0.33061 0.37405 0.0
H704 H 0.64248 0.34789 0.39578 0.0
O705 O 0.69265 0.31966 0.35385 0.0
O706 O 0.70388 0.32156 0.45604 0.0
H707 H 0.68584 0.34435 0.62028 0.0
H708 H 0.67084 0.35308 0.63943 0.0
C709 C 0.675 0.34361 0.62109 0.0
H710 H 0.67211 0.33604 0.66096 0.0
H711 H 0.71181 0.33131 0.61077 0.0
O712 O 0.66513 0.31916 0.28471 0.0
C713 C 0.70338 0.32164 0.38721 0.0
Co714 Co 0.92111 0.42566 0.63052 0.0
Co715 Co 0.92142 0.44072 0.77712 0.0
C716 C 0.94595 0.42916 0.71138 0.0
O717 O 0.93971 0.42407 0.65875 0.0
O718 O 0.94009 0.43599 0.75924 0.0
C719 C 0.92687 0.41402 0.49498 0.0
O720 O 0.93909 0.41428 0.51746 0.0
C721 C 0.92658 0.44355 0.93047 0.0
C722 C 0.90859 0.45346 0.96835 0.0
C723 C 0.91962 0.4468 -0.00758 0.0
N724 N 0.91959 0.44736 0.8727 0.0
N725 N 0.9091 0.45375 0.89557 0.0
C726 C 0.93948 0.43661 0.92537 0.0
H727 H 0.94593 0.44213 0.88809 0.0
H728 H 0.93798 0.42663 0.90282 0.0
H729 H 0.94447 0.43603 0.97856 0.0
C730 C 0.90129 0.40978 0.70573 0.0
N731 N 0.90995 0.41972 0.70376 0.0
N732 N 0.91036 0.42557 0.76714 0.0
C733 C 0.90217 0.41917 0.81252 0.0
C734 C 0.89605 0.40907 0.77488 0.0
C735 C 0.8977 0.40165 0.64121 0.0
H736 H 0.89607 0.40814 0.59392 0.0
H737 H 0.90596 0.39497 0.62809 0.0
H738 H 0.88869 0.39581 0.65069 0.0
O739 O 0.9171 0.44393 0.60614 0.0
O740 O 0.91621 0.45493 0.70927 0.0
H741 H 0.89556 0.43098 0.90085 0.0
H742 H 0.89615 0.41368 0.92108 0.0
C743 C 0.90113 0.42178 0.89199 0.0
H744 H 0.91107 0.42281 0.91511 0.0
H745 H 0.90173 0.45729 0.86161 0.0
O746 O 0.91773 0.41659 0.53928 0.0
C747 C 0.91518 0.45452 0.64068 0.0
Co748 Co 0.81566 0.67235 0.873 0.0
Co749 Co 0.80085 0.67133 0.01992 0.0
C750 C 0.81287 0.69629 0.96081 0.0
O751 O 0.81773 0.69059 0.90582 0.0
O752 O 0.80601 0.69001 0.0067 0.0
C753 C 0.82762 0.67929 0.73991 0.0
O754 O 0.82737 0.69118 0.76735 0.0
C755 C 0.80205 0.67469 0.17309 0.0
C756 C 0.78555 0.66281 0.21466 0.0
C757 C 0.79619 0.67036 0.23616 0.0
N758 N 0.79525 0.66994 0.11692 0.0
N759 N 0.78524 0.66303 0.14174 0.0
C760 C 0.81492 0.68168 0.16551 0.0
H761 H 0.81947 0.6795 0.11234 0.0
H762 H 0.8218 0.67877 0.20919 0.0
H763 H 0.81323 0.69242 0.16917 0.0
C764 C 0.83202 0.65233 0.94428 0.0
N765 N 0.82174 0.6606 0.9432 0.0
N766 N 0.81535 0.65982 0.00491 0.0
C767 C 0.82134 0.65083 0.0471 0.0
C768 C 0.83212 0.64593 0.01034 0.0
C769 C 0.84185 0.65119 0.8845 0.0
H770 H 0.83732 0.64584 0.83852 0.0
H771 H 0.84458 0.66112 0.86507 0.0
H772 H 0.85077 0.64585 0.90229 0.0
O773 O 0.79703 0.66886 0.85045 0.0
O774 O 0.7862 0.66711 0.95402 0.0
H775 H 0.82048 0.63661 0.13367 0.0
H776 H 0.82008 0.65348 0.16162 0.0
C777 C 0.8166 0.64648 0.11993 0.0
H778 H 0.80575 0.64614 0.12085 0.0
H779 H 0.7786 0.65796 0.10904 0.0
O780 O 0.82448 0.66964 0.77971 0.0
C781 C 0.78645 0.66681 0.88519 0.0
Co782 Co 0.56928 0.56399 0.13585 0.0
Co783 Co 0.56873 0.54841 0.2805 0.0
C784 C 0.54445 0.56085 0.21348 0.0
O785 O 0.55068 0.56617 0.16156 0.0
O786 O 0.5503 0.5537 0.25991 0.0
C787 C 0.56494 0.57639 0.00026 0.0
O788 O 0.55273 0.57756 0.02202 0.0
C789 C 0.56433 0.54856 0.43437 0.0
C790 C 0.57812 0.53345 0.47374 0.0
C791 C 0.56994 0.5435 0.49673 0.0
N792 N 0.56946 0.54227 0.37727 0.0
N793 N 0.5774 0.53297 0.40101 0.0
C794 C 0.5544 0.55935 0.42805 0.0
H795 H 0.54653 0.55631 0.39051 0.0
H796 H 0.55914 0.56826 0.40549 0.0
H797 H 0.54973 0.56162 0.48075 0.0
C798 C 0.5887 0.57975 0.21443 0.0
N799 N 0.58026 0.56964 0.21032 0.0
N800 N 0.58038 0.56304 0.27149 0.0
C801 C 0.58905 0.56882 0.31665 0.0
C802 C 0.59449 0.57956 0.28202 0.0
C803 C 0.59074 0.5896 0.15549 0.0
H804 H 0.59627 0.58492 0.11068 0.0
H805 H 0.5811 0.59276 0.13377 0.0
H806 H 0.59627 0.59829 0.17507 0.0
O807 O 0.57273 0.54547 0.11227 0.0
O808 O 0.57368 0.53402 0.21393 0.0
H809 H 0.60191 0.56837 0.40971 0.0
H810 H 0.58472 0.56662 0.42896 0.0
C811 C 0.5926 0.56394 0.39042 0.0
H812 H 0.59372 0.55314 0.38939 0.0
H813 H 0.58302 0.52694 0.36752 0.0
O814 O 0.57363 0.57275 0.04497 0.0
C815 C 0.5745 0.53469 0.14531 0.0
Co816 Co 0.31548 0.31876 0.37091 0.0
Co817 Co 0.30036 0.31983 0.5169 0.0
C818 C 0.31226 0.29477 0.45716 0.0
O819 O 0.31737 0.30048 0.40295 0.0
O820 O 0.30536 0.3011 0.50273 0.0
C821 C 0.3271 0.31176 0.23737 0.0
O822 O 0.32642 0.29986 0.26429 0.0
C823 C 0.30144 0.316 0.66973 0.0
C824 C 0.28511 0.32796 0.71247 0.0
C825 C 0.29563 0.32019 0.73323 0.0
N826 N 0.29473 0.32105 0.61402 0.0
N827 N 0.28481 0.32801 0.63952 0.0
C828 C 0.31424 0.3089 0.66148 0.0
H829 H 0.31887 0.3113 0.60882 0.0
H830 H 0.3211 0.3115 0.7058 0.0
H831 H 0.31241 0.29817 0.66339 0.0
C832 C 0.33177 0.3387 0.44337 0.0
N833 N 0.32152 0.33041 0.44178 0.0
N834 N 0.31484 0.33141 0.50243 0.0
C835 C 0.32048 0.34073 0.54401 0.0
C836 C 0.33143 0.34554 0.50813 0.0
C837 C 0.34142 0.34017 0.38293 0.0
H838 H 0.33619 0.34358 0.33374 0.0
H839 H 0.3458 0.33046 0.37035 0.0
H840 H 0.34929 0.34729 0.39642 0.0
O841 O 0.29686 0.32236 0.34792 0.0
O842 O 0.28581 0.32416 0.45079 0.0
H843 H 0.30495 0.3453 0.61813 0.0
H844 H 0.31995 0.35414 0.63523 0.0
C845 C 0.31579 0.34461 0.61776 0.0
H846 H 0.31889 0.33708 0.65747 0.0
H847 H 0.27825 0.33328 0.60733 0.0
O848 O 0.3244 0.32147 0.27781 0.0
C849 C 0.28621 0.32447 0.38197 0.0
Co850 Co 0.42234 0.5659 0.1205 0.0
Co851 Co 0.42168 0.55098 0.26713 0.0
C852 C 0.4465 0.56304 0.20591 0.0
O853 O 0.44066 0.568 0.15173 0.0
O854 O 0.44031 0.55616 0.25214 0.0
C855 C 0.42907 0.57802 0.98745 0.0
O856 O 0.44096 0.57791 0.0147 0.0
C857 C 0.4256 0.55221 0.41989 0.0
C858 C 0.41382 0.53577 0.46301 0.0
C859 C 0.42148 0.5464 0.48353 0.0
N860 N 0.4206 0.5454 0.36436 0.0
N861 N 0.41376 0.53543 0.39009 0.0
C862 C 0.43253 0.5651 0.41134 0.0
H863 H 0.43011 0.56963 0.35848 0.0
H864 H 0.42981 0.57198 0.45538 0.0
H865 H 0.44328 0.56341 0.41351 0.0
C866 C 0.40189 0.5817 0.19192 0.0
N867 N 0.41066 0.57185 0.19147 0.0
N868 N 0.40991 0.5653 0.25262 0.0
C869 C 0.40035 0.57064 0.29363 0.0
C870 C 0.39503 0.58124 0.25663 0.0
C871 C 0.39976 0.59085 0.12972 0.0
H872 H 0.39667 0.5851 0.08166 0.0
H873 H 0.40915 0.59576 0.11601 0.0
H874 H 0.39216 0.59833 0.14186 0.0
O875 O 0.41886 0.54723 0.09818 0.0
O876 O 0.41741 0.53629 0.20163 0.0
H877 H 0.39585 0.55506 0.36754 0.0
H878 H 0.38718 0.57012 0.38615 0.0
C879 C 0.3966 0.56591 0.36754 0.0
H880 H 0.40426 0.56888 0.4067 0.0
H881 H 0.40855 0.52879 0.35805 0.0
O882 O 0.41948 0.57474 0.02737 0.0
C883 C 0.41693 0.53661 0.13282 0.0
Co884 Co 0.17494 0.67222 0.87428 0.0
Co885 Co 0.18992 0.67118 0.02072 0.0
C886 C 0.1777 0.69612 0.963 0.0
O887 O 0.17275 0.69038 0.9084 0.0
O888 O 0.18472 0.68987 0.00828 0.0
C889 C 0.16373 0.67966 0.74061 0.0
O890 O 0.16462 0.6915 0.76824 0.0
C891 C 0.18957 0.67491 0.17429 0.0
C892 C 0.20552 0.6621 0.21391 0.0
C893 C 0.19544 0.67026 0.23669 0.0
N894 N 0.19582 0.6697 0.1173 0.0
N895 N 0.20552 0.66226 0.14098 0.0
C896 C 0.17705 0.68255 0.1683 0.0
H897 H 0.17202 0.68032 0.11654 0.0
H898 H 0.17032 0.68024 0.21375 0.0
H899 H 0.17933 0.69319 0.16977 0.0
C900 C 0.15917 0.65153 0.94395 0.0
N901 N 0.16912 0.66018 0.9439 0.0
N902 N 0.17545 0.6595 0.0058 0.0
C903 C 0.16973 0.65023 0.04739 0.0
C904 C 0.15918 0.64492 0.0096 0.0
C905 C 0.15016 0.64945 0.88108 0.0
H906 H 0.15604 0.64789 0.83134 0.0
H907 H 0.14416 0.65842 0.87289 0.0
H908 H 0.14362 0.64088 0.8893 0.0
O909 O 0.19351 0.66888 0.85082 0.0
O910 O 0.20452 0.66708 0.95375 0.0
H911 H 0.18452 0.64573 0.12593 0.0
H912 H 0.16886 0.63834 0.14538 0.0
C913 C 0.17376 0.64717 0.12351 0.0
H914 H 0.17107 0.65549 0.15893 0.0
H915 H 0.2117 0.65678 0.10754 0.0
O916 O 0.1661 0.66982 0.7807 0.0
C917 C 0.20415 0.66683 0.8849 0.0
Co918 Co 0.06822 0.42486 0.622 0.0
Co919 Co 0.06903 0.43968 0.7691 0.0
C920 C 0.04401 0.4283 0.70705 0.0
O921 O 0.04979 0.42327 0.65276 0.0
O922 O 0.05031 0.43498 0.75373 0.0
C923 C 0.06141 0.41254 0.4893 0.0
O924 O 0.04955 0.41246 0.51699 0.0
C925 C 0.06537 0.43848 0.92227 0.0
C926 C 0.07738 0.45485 0.96427 0.0
C927 C 0.06974 0.44425 0.98554 0.0
N928 N 0.07023 0.44527 0.86627 0.0
N929 N 0.0772 0.45521 0.89137 0.0
C930 C 0.05827 0.42567 0.91431 0.0
H931 H 0.06028 0.42123 0.86066 0.0
H932 H 0.06124 0.41868 0.95732 0.0
H933 H 0.04757 0.42743 0.91895 0.0
C934 C 0.08798 0.40836 0.69463 0.0
N935 N 0.07963 0.41858 0.6934 0.0
N936 N 0.08029 0.42494 0.75524 0.0
C937 C 0.08924 0.41897 0.79775 0.0
C938 C 0.09427 0.40827 0.76095 0.0
C939 C 0.08955 0.39876 0.63406 0.0
H940 H 0.09462 0.40366 0.5883 0.0
H941 H 0.07974 0.3956 0.61465 0.0
H942 H 0.09532 0.39005 0.65106 0.0
O943 O 0.07224 0.44339 0.59989 0.0
O944 O 0.07383 0.45422 0.70357 0.0
H945 H 0.10332 0.41975 0.88503 0.0
H946 H 0.08642 0.42036 0.91209 0.0
C947 C 0.09352 0.42372 0.87066 0.0
H948 H 0.09397 0.43458 0.87129 0.0
H949 H 0.08236 0.46181 0.85886 0.0
O950 O 0.071 0.41599 0.52884 0.0
C951 C 0.07441 0.45394 0.63478 0.0
Co952 Co 0.31499 0.67148 0.59642 0.0
Co953 Co 0.29964 0.67209 0.4511 0.0
C954 C 0.31212 0.69634 0.51774 0.0
O955 O 0.31726 0.69005 0.56999 0.0
O956 O 0.30504 0.69055 0.47074 0.0
C957 C 0.32704 0.67615 0.73227 0.0
O958 O 0.32765 0.68843 0.71086 0.0
C959 C 0.29857 0.67716 0.29765 0.0
C960 C 0.28558 0.66135 0.25841 0.0
C961 C 0.29431 0.67092 0.2353 0.0
N962 N 0.29324 0.67107 0.35484 0.0
N963 N 0.28509 0.66194 0.33116 0.0
C964 C 0.30786 0.68849 0.30381 0.0
H965 H 0.30351 0.696 0.33968 0.0
H966 H 0.3172 0.68513 0.32844 0.0
H967 H 0.30974 0.69321 0.25076 0.0
C968 C 0.33048 0.65158 0.51957 0.0
N969 N 0.32062 0.66033 0.52242 0.0
N970 N 0.3142 0.66032 0.46074 0.0
C971 C 0.31983 0.65142 0.41634 0.0
C972 C 0.33028 0.6456 0.45227 0.0
C973 C 0.3394 0.64863 0.58178 0.0
H974 H 0.33345 0.64536 0.62869 0.0
H975 H 0.3446 0.65774 0.59795 0.0
H976 H 0.34664 0.64088 0.56841 0.0
O977 O 0.29646 0.66811 0.62046 0.0
O978 O 0.28525 0.66733 0.51798 0.0
H979 H 0.30548 0.64567 0.3383 0.0
H980 H 0.32204 0.64155 0.31273 0.0
C981 C 0.31581 0.649 0.33964 0.0
H982 H 0.31672 0.65824 0.30869 0.0
H983 H 0.28005 0.65543 0.36465 0.0
O984 O 0.32382 0.66734 0.68727 0.0
C985 C 0.28574 0.66645 0.5866 0.0
Co986 Co 0.06871 0.56545 0.35847 0.0
Co987 Co 0.06901 0.55066 0.21111 0.0
C988 C 0.04426 0.56222 0.27532 0.0
O989 O 0.05022 0.56717 0.32922 0.0
O990 O 0.05037 0.55553 0.22797 0.0
C991 C 0.06232 0.57818 0.49087 0.0
O992 O 0.05048 0.57879 0.46302 0.0
C993 C 0.06519 0.55197 0.05797 0.0
C994 C 0.07694 0.53545 0.01559 0.0
C995 C 0.06947 0.54617 -0.00546 0.0
N996 N 0.06995 0.54507 0.11381 0.0
N997 N 0.07676 0.53504 0.08847 0.0
C998 C 0.05829 0.56487 0.06624 0.0
H999 H 0.06027 0.56919 0.12019 0.0
H1000 H 0.06144 0.57188 0.02369 0.0
H1001 H 0.04756 0.56329 0.06101 0.0
C1002 C 0.08841 0.58181 0.28436 0.0
N1003 N 0.07998 0.57166 0.2862 0.0
N1004 N 0.08045 0.56529 0.2243 0.0
C1005 C 0.08936 0.57118 0.18118 0.0
C1006 C 0.09455 0.58186 0.2176 0.0
C1007 C 0.0902 0.5914 0.34482 0.0
H1008 H 0.09531 0.58644 0.39025 0.0
H1009 H 0.08046 0.59464 0.36488 0.0
H1010 H 0.09602 0.60005 0.32744 0.0
O1011 O 0.07263 0.54687 0.38007 0.0
O1012 O 0.07382 0.53605 0.27619 0.0
H1013 H 0.09376 0.55553 0.10728 0.0
H1014 H 0.10333 0.57021 0.0934 0.0
C1015 C 0.09348 0.56639 0.10807 0.0
H1016 H 0.0864 0.5699 0.06692 0.0
H1017 H 0.08184 0.52835 0.12081 0.0
O1018 O 0.07175 0.57427 0.45155 0.0
C1019 C 0.07459 0.53632 0.34492 0.0
Co1020 Co 0.1749 0.31788 0.10105 0.0
Co1021 Co 0.18964 0.31843 0.95383 0.0
C1022 C 0.17745 0.29372 0.01379 0.0
O1023 O 0.17266 0.29967 0.06811 0.0
O1024 O 0.18443 0.29976 0.96744 0.0
C1025 C 0.16324 0.31066 0.23433 0.0
O1026 O 0.16363 0.29882 0.20635 0.0
C1027 C 0.18936 0.31456 0.80027 0.0
C1028 C 0.20526 0.32744 0.76074 0.0
C1029 C 0.19522 0.31924 0.73789 0.0
N1030 N 0.19557 0.3198 0.85727 0.0
N1031 N 0.20526 0.32728 0.83365 0.0
C1032 C 0.17687 0.30685 0.80626 0.0
H1033 H 0.17184 0.30904 0.85806 0.0
H1034 H 0.17013 0.30913 0.76086 0.0
H1035 H 0.17922 0.29622 0.80473 0.0
C1036 C 0.15912 0.33845 0.03068 0.0
N1037 N 0.16902 0.32975 0.03079 0.0
N1038 N 0.17522 0.3302 0.96841 0.0
C1039 C 0.16945 0.33938 0.92638 0.0
C1040 C 0.15902 0.34485 0.96444 0.0
C1041 C 0.15028 0.34078 0.09404 0.0
H1042 H 0.15629 0.34237 0.14328 0.0
H1043 H 0.14417 0.33192 0.10319 0.0
H1044 H 0.14384 0.34943 0.08574 0.0
O1045 O 0.19348 0.32127 0.12382 0.0
O1046 O 0.2043 0.32265 0.0201 0.0
H1047 H 0.18408 0.34369 0.84657 0.0
H1048 H 0.16834 0.35093 0.82726 0.0
C1049 C 0.17333 0.34221 0.84974 0.0
H1050 H 0.17063 0.33375 0.81533 0.0
H1051 H 0.21138 0.3328 0.86711 0.0
O1052 O 0.16609 0.32042 0.19465 0.0
C1053 C 0.20406 0.32316 0.0889 0.0
Co1054 Co 0.42284 0.42512 0.84993 0.0
Co1055 Co 0.42156 0.44023 0.70414 0.0
C1056 C 0.44663 0.42807 0.76161 0.0
O1057 O 0.44099 0.42303 0.81625 0.0
O1058 O 0.44029 0.43507 0.71661 0.0
C1059 C 0.43008 0.4139 0.98365 0.0
O1060 O 0.44196 0.41506 0.95682 0.0
C1061 C 0.42515 0.43917 0.55131 0.0
C1062 C 0.41322 0.45557 0.50906 0.0
C1063 C 0.42096 0.44504 0.48802 0.0
N1064 N 0.42015 0.44587 0.60721 0.0
N1065 N 0.41319 0.45581 0.58202 0.0
C1066 C 0.43223 0.42635 0.55915 0.0
H1067 H 0.42975 0.42164 0.61147 0.0
H1068 H 0.42968 0.41956 0.51438 0.0
H1069 H 0.44296 0.42817 0.55779 0.0
C1070 C 0.40249 0.40906 0.77932 0.0
N1071 N 0.41096 0.41917 0.78006 0.0
N1072 N 0.4099 0.42584 0.71942 0.0
C1073 C 0.4004 0.42033 0.67867 0.0
C1074 C 0.39549 0.40949 0.71513 0.0
C1075 C 0.40097 0.39949 0.84013 0.0
H1076 H 0.39772 0.40483 0.88933 0.0
H1077 H 0.41063 0.39498 0.85235 0.0
H1078 H 0.39372 0.39172 0.82723 0.0
O1079 O 0.41937 0.44376 0.87335 0.0
O1080 O 0.41745 0.45481 0.77053 0.0
H1081 H 0.39567 0.43592 0.60523 0.0
H1082 H 0.38688 0.42088 0.58798 0.0
C1083 C 0.3964 0.42507 0.60522 0.0
H1084 H 0.40389 0.42206 0.56513 0.0
H1085 H 0.40797 0.46238 0.61443 0.0
O1086 O 0.4203 0.41618 0.94307 0.0
C1087 C 0.41724 0.45441 0.83936 0.0
H1088 H 0.16233 0.27778 0.09885 0.0
H1089 H 0.1875 0.21153 0.91372 0.0
H1090 H 0.18788 0.277 0.91242 0.0
H1091 H 0.16261 0.21291 0.1028 0.0
H1092 H 0.186 0.23541 0.90434 0.0
H1093 H 0.16055 0.25398 0.09287 0.0
C1094 C 0.16752 0.27262 0.05634 0.0
C1095 C 0.1754 0.27941 0.0066 0.0
C1096 C 0.18079 0.23047 0.94754 0.0
C1097 C 0.17344 0.25207 -0.00038 0.0
C1098 C 0.18163 0.21682 0.95293 0.0
C1099 C 0.17529 0.2102 0.00965 0.0
C1100 C 0.17356 0.23753 -0.00077 0.0
C1101 C 0.16777 0.21758 0.05858 0.0
C1102 C 0.16649 0.259 0.05295 0.0
C1103 C 0.18178 0.27218 0.95228 0.0
N1104 N 0.1672 0.23084 0.05251 0.0
N1105 N 0.18075 0.25888 0.95062 0.0
H1106 H 0.02778 0.91204 0.3509 0.0
H1107 H 0.96276 0.93685 0.15208 0.0
H1108 H 0.02804 0.93708 0.16231 0.0
H1109 H 0.96287 0.91292 0.34502 0.0
H1110 H 0.98664 0.93503 0.14659 0.0
H1111 H 0.00402 0.91024 0.34105 0.0
C1112 C 0.02287 0.9171 0.30709 0.0
C1113 C 0.02993 0.92486 0.25789 0.0
C1114 C 0.98142 0.9301 0.1898 0.0
C1115 C 0.00265 0.92288 0.24649 0.0
C1116 C 0.96778 0.93112 0.19297 0.0
C1117 C 0.9608 0.92516 0.24965 0.0
C1118 C 0.98813 0.92307 0.24369 0.0
C1119 C 0.96783 0.9178 0.30075 0.0
C1120 C 0.00927 0.91607 0.30151 0.0
C1121 C 0.023 0.93109 0.20189 0.0
N1122 N 0.98111 0.91705 0.29684 0.0
N1123 N 0.00973 0.93005 0.19808 0.0
H1124 H 0.32837 0.7774 0.6198 0.0
H1125 H 0.30061 0.7135 0.42292 0.0
H1126 H 0.30407 0.77843 0.42842 0.0
H1127 H 0.32758 0.71207 0.60293 0.0
H1128 H 0.30279 0.73727 0.42026 0.0
H1129 H 0.32927 0.75352 0.6106 0.0
C1130 C 0.3233 0.77263 0.57552 0.0
C1131 C 0.31602 0.77994 0.52522 0.0
C1132 C 0.30833 0.73176 0.45997 0.0
C1133 C 0.31697 0.75258 0.51465 0.0
C1134 C 0.30713 0.71814 0.46135 0.0
C1135 C 0.31395 0.71072 0.51311 0.0
C1136 C 0.31632 0.73807 0.51111 0.0
C1137 C 0.3221 0.71738 0.56219 0.0
C1138 C 0.32383 0.75898 0.57033 0.0
C1139 C 0.30973 0.77321 0.46877 0.0
N1140 N 0.323 0.73068 0.56025 0.0
N1141 N 0.31026 0.75991 0.46538 0.0
H1142 H 0.46288 0.07955 0.85278 0.0
H1143 H 0.52779 0.05299 0.65977 0.0
H1144 H 0.46239 0.05376 0.66727 0.0
H1145 H 0.52768 0.0781 0.84812 0.0
H1146 H 0.50393 0.05505 0.65294 0.0
H1147 H 0.48665 0.08105 0.84294 0.0
C1148 C 0.46776 0.07426 0.80963 0.0
C1149 C 0.46062 0.06638 0.76134 0.0
C1150 C 0.50915 0.06019 0.6954 0.0
C1151 C 0.48793 0.06801 0.74999 0.0
C1152 C 0.52278 0.05902 0.69934 0.0
C1153 C 0.52975 0.06525 0.75518 0.0
C1154 C 0.50245 0.06762 0.74768 0.0
C1155 C 0.52273 0.07301 0.80458 0.0
C1156 C 0.48136 0.07512 0.80404 0.0
C1157 C 0.46749 0.05986 0.7061 0.0
N1158 N 0.50947 0.07388 0.79996 0.0
N1159 N 0.48078 0.06073 0.70234 0.0
H1160 H 0.18731 0.71203 0.07038 0.0
H1161 H 0.16288 0.77782 0.87753 0.0
H1162 H 0.16375 0.71283 0.87616 0.0
H1163 H 0.18697 0.77739 0.06977 0.0
H1164 H 0.16127 0.75399 0.88364 0.0
H1165 H 0.18549 0.73589 0.07826 0.0
C1166 C 0.18168 0.7172 0.02966 0.0
C1167 C 0.17579 0.71041 0.97204 0.0
C1168 C 0.16684 0.7591 0.9248 0.0
C1169 C 0.17371 0.73773 0.98074 0.0
C1170 C 0.16777 0.77274 0.92136 0.0
C1171 C 0.17521 0.77963 0.97273 0.0
C1172 C 0.17343 0.75227 0.97985 0.0
C1173 C 0.18122 0.77249 0.02862 0.0
C1174 C 0.18065 0.73083 0.03422 0.0
C1175 C 0.16855 0.71764 0.92118 0.0
N1176 N 0.18029 0.75919 0.03033 0.0
N1177 N 0.1678 0.7309 0.92647 0.0
H1178 H 0.52674 0.93923 0.31161 0.0
H1179 H 0.46227 0.91398 0.11105 0.0
H1180 H 0.52773 0.91358 0.12569 0.0
H1181 H 0.46196 0.93654 0.30899 0.0
H1182 H 0.48617 0.91267 0.11848 0.0
H1183 H 0.50301 0.93731 0.31461 0.0
C1184 C 0.52202 0.93304 0.27195 0.0
C1185 C 0.52932 0.92653 0.2185 0.0
C1186 C 0.48085 0.91782 0.16053 0.0
C1187 C 0.50195 0.92448 0.22076 0.0
C1188 C 0.4672 0.91858 0.15635 0.0
C1189 C 0.46009 0.9255 0.20909 0.0
C1190 C 0.48744 0.92407 0.21768 0.0
C1191 C 0.46702 0.9312 0.26672 0.0
C1192 C 0.5084 0.932 0.2735 0.0
C1193 C 0.52252 0.91882 0.16783 0.0
N1194 N 0.4803 0.93043 0.26914 0.0
N1195 N 0.50921 0.91807 0.16992 0.0
H1196 H 0.32691 0.21265 0.37487 0.0
H1197 H 0.3018 0.27887 0.56202 0.0
H1198 H 0.29961 0.21369 0.55358 0.0
H1199 H 0.32607 0.27789 0.37043 0.0
H1200 H 0.30287 0.25496 0.568 0.0
H1201 H 0.32855 0.23653 0.38026 0.0
C1202 C 0.32132 0.21788 0.41556 0.0
C1203 C 0.3131 0.21112 0.46382 0.0
C1204 C 0.30802 0.25999 0.52488 0.0
C1205 C 0.31493 0.23849 0.4702 0.0
C1206 C 0.30743 0.27365 0.52147 0.0
C1207 C 0.31374 0.28041 0.46518 0.0
C1208 C 0.31498 0.25302 0.47169 0.0
C1209 C 0.32096 0.27311 0.41447 0.0
C1210 C 0.32227 0.23152 0.41861 0.0
C1211 C 0.30613 0.21844 0.51552 0.0
N1212 N 0.32131 0.25981 0.41871 0.0
N1213 N 0.30716 0.23172 0.51712 0.0
H1214 H 0.96295 0.07811 0.61065 0.0
H1215 H 0.02656 0.05128 0.81439 0.0
H1216 H 0.9616 0.05402 0.80283 0.0
H1217 H 0.02812 0.0766 0.62708 0.0
H1218 H 0.00279 0.05354 0.81612 0.0
H1219 H 0.98679 0.07908 0.62109 0.0
C1220 C 0.96764 0.0731 0.65537 0.0
C1221 C 0.96025 0.06585 0.70551 0.0
C1222 C 0.00833 0.05869 0.77495 0.0
C1223 C 0.98757 0.06688 0.71753 0.0
C1224 C 0.02194 0.05742 0.77397 0.0
C1225 C 0.02939 0.06373 0.72033 0.0
C1226 C 0.00207 0.06625 0.72165 0.0
C1227 C 0.02279 0.0715 0.66925 0.0
C1228 C 0.98127 0.07366 0.66126 0.0
C1229 C 0.96689 0.05964 0.76256 0.0
N1230 N 0.0095 0.07247 0.67091 0.0
N1231 N 0.98017 0.06021 0.76666 0.0
H1232 H 0.80356 0.71207 0.06953 0.0
H1233 H 0.82718 0.77813 0.87628 0.0
H1234 H 0.8264 0.71314 0.87267 0.0
H1235 H 0.80315 0.77739 0.06884 0.0
H1236 H 0.82899 0.75431 0.882 0.0
H1237 H 0.80527 0.73593 0.07771 0.0
C1238 C 0.80901 0.7173 0.02826 0.0
C1239 C 0.81472 0.71059 0.96982 0.0
C1240 C 0.82339 0.75936 0.92329 0.0
C1241 C 0.81669 0.73791 0.97892 0.0
C1242 C 0.82235 0.77298 0.9201 0.0
C1243 C 0.81486 0.77978 0.97166 0.0
C1244 C 0.81686 0.75245 0.97831 0.0
C1245 C 0.80893 0.77256 0.02752 0.0
C1246 C 0.80997 0.73093 0.033 0.0
C1247 C 0.82174 0.71789 0.91833 0.0
N1248 N 0.80997 0.75927 0.02901 0.0
N1249 N 0.82244 0.73116 0.92384 0.0
H1250 H 0.68621 0.27727 0.57601 0.0
H1251 H 0.66306 0.21105 0.38295 0.0
H1252 H 0.66262 0.27606 0.382 0.0
H1253 H 0.68736 0.212 0.57436 0.0
H1254 H 0.66082 0.23484 0.38975 0.0
H1255 H 0.68474 0.2534 0.58419 0.0
C1256 C 0.68063 0.27201 0.53544 0.0
C1257 C 0.67466 0.27869 0.47769 0.0
C1258 C 0.66657 0.22984 0.43057 0.0
C1259 C 0.67298 0.25134 0.4867 0.0
C1260 C 0.66786 0.21624 0.42673 0.0
C1261 C 0.67555 0.20951 0.47764 0.0
C1262 C 0.67304 0.2368 0.48557 0.0
C1263 C 0.68143 0.21677 0.53351 0.0
C1264 C 0.6798 0.25837 0.54016 0.0
C1265 C 0.66748 0.27134 0.42709 0.0
N1266 N 0.68014 0.23004 0.53561 0.0
N1267 N 0.66693 0.25806 0.43247 0.0
H1268 H 0.80369 0.2124 0.91115 0.0
H1269 H 0.82781 0.27777 0.10944 0.0
H1270 H 0.82771 0.21284 0.10366 0.0
H1271 H 0.80344 0.27776 0.91823 0.0
H1272 H 0.82968 0.25399 0.10054 0.0
H1273 H 0.8053 0.2363 0.90529 0.0
C1274 C 0.80939 0.2175 0.95187 0.0
C1275 C 0.81544 0.2106 0.00852 0.0
C1276 C 0.82399 0.25919 0.06022 0.0
C1277 C 0.8173 0.23795 0.00215 0.0
C1278 C 0.82291 0.27279 0.06528 0.0
C1279 C 0.81532 0.27978 0.015 0.0
C1280 C 0.8174 0.25248 0.00466 0.0
C1281 C 0.8093 0.27277 0.9586 0.0
C1282 C 0.8103 0.23115 0.94848 0.0
C1283 C 0.82278 0.21773 0.0594 0.0
N1284 N 0.81038 0.25949 0.95531 0.0
N1285 N 0.82341 0.23101 0.05529 0.0
H1286 H 0.66171 0.71197 0.60693 0.0
H1287 H 0.68633 0.77769 0.41422 0.0
H1288 H 0.68639 0.71233 0.4169 0.0
H1289 H 0.66245 0.7769 0.60734 0.0
H1290 H 0.68455 0.75383 0.40636 0.0
H1291 H 0.65993 0.73577 0.59966 0.0
C1292 C 0.66669 0.71703 0.56335 0.0
C1293 C 0.67435 0.71013 0.51299 0.0
C1294 C 0.67962 0.75889 0.45014 0.0
C1295 C 0.67239 0.73746 0.50455 0.0
C1296 C 0.68063 0.77253 0.4547 0.0
C1297 C 0.67466 0.77931 0.51207 0.0
C1298 C 0.67261 0.75199 0.50335 0.0
C1299 C 0.66733 0.77209 0.56255 0.0
C1300 C 0.66567 0.73065 0.55924 0.0
C1301 C 0.68047 0.71724 0.4573 0.0
N1302 N 0.66659 0.75883 0.55728 0.0
N1303 N 0.67945 0.73053 0.45495 0.0
H1304 H 0.46248 0.43824 0.65537 0.0
H1305 H 0.52831 0.41276 0.84351 0.0
H1306 H 0.46342 0.41385 0.84651 0.0
H1307 H 0.52789 0.43835 0.65717 0.0
H1308 H 0.5045 0.4112 0.83708 0.0
H1309 H 0.48635 0.43657 0.64716 0.0
C1310 C 0.46768 0.43246 0.69533 0.0
C1311 C 0.46093 0.42629 0.75221 0.0
C1312 C 0.50961 0.4171 0.79728 0.0
C1313 C 0.48825 0.42437 0.74308 0.0
C1314 C 0.52323 0.41799 0.80089 0.0
C1315 C 0.53013 0.42582 0.75131 0.0
C1316 C 0.50278 0.42411 0.74385 0.0
C1317 C 0.52299 0.43228 0.69693 0.0
C1318 C 0.48131 0.43152 0.69059 0.0
C1319 C 0.4682 0.41887 0.80209 0.0
N1320 N 0.50969 0.43136 0.69501 0.0
N1321 N 0.48145 0.41819 0.79661 0.0
H1322 H 0.02772 0.57586 0.36513 0.0
H1323 H 0.963 0.54864 0.17468 0.0
H1324 H 0.02794 0.55193 0.17216 0.0
H1325 H 0.96234 0.5759 0.35359 0.0
H1326 H 0.98677 0.55043 0.17048 0.0
H1327 H 0.00381 0.57672 0.35932 0.0
C1328 C 0.02276 0.57085 0.32127 0.0
C1329 C 0.02987 0.56371 0.26941 0.0
C1330 C 0.98143 0.55611 0.21029 0.0
C1331 C 0.00248 0.56462 0.26271 0.0
C1332 C 0.9678 0.55514 0.21252 0.0
C1333 C 0.96059 0.56218 0.2643 0.0
C1334 C 0.98796 0.56409 0.26063 0.0
C1335 C 0.96747 0.57026 0.31279 0.0
C1336 C 0.0091 0.57136 0.318 0.0
C1337 C 0.02289 0.55748 0.21362 0.0
N1338 N 0.98078 0.57094 0.31 0.0
N1339 N 0.00959 0.55801 0.21208 0.0
H1340 H 0.02813 0.43837 0.81297 0.0
H1341 H 0.96172 0.41374 0.62627 0.0
H1342 H 0.02708 0.41506 0.61777 0.0
H1343 H 0.96313 0.44104 0.80486 0.0
H1344 H 0.98562 0.41215 0.63003 0.0
H1345 H 0.00425 0.43733 0.81895 0.0
C1346 C 0.0229 0.43296 0.77155 0.0
C1347 C 0.02963 0.4269 0.71435 0.0
C1348 C 0.98068 0.41842 0.66872 0.0
C1349 C 0.00226 0.4257 0.72092 0.0
C1350 C 0.96702 0.41933 0.66664 0.0
C1351 C 0.96036 0.42752 0.71548 0.0
C1352 C 0.98773 0.42574 0.71998 0.0
C1353 C 0.96778 0.43451 0.76662 0.0
C1354 C 0.00925 0.43239 0.77498 0.0
C1355 C 0.02231 0.41996 0.66256 0.0
N1356 N 0.98105 0.43349 0.76735 0.0
N1357 N 0.00901 0.41961 0.66689 0.0
H1358 H 0.46315 0.57675 0.11728 0.0
H1359 H 0.52768 0.55017 0.31332 0.0
H1360 H 0.46263 0.55292 0.31057 0.0
H1361 H 0.52838 0.57542 0.12557 0.0
H1362 H 0.50389 0.55225 0.31754 0.0
H1363 H 0.48703 0.57762 0.1241 0.0
C1364 C 0.46804 0.57178 0.16148 0.0
C1365 C 0.46086 0.56464 0.21303 0.0
C1366 C 0.50925 0.55741 0.27571 0.0
C1367 C 0.48823 0.56555 0.2209 0.0
C1368 C 0.52286 0.55625 0.27329 0.0
C1369 C 0.53008 0.56261 0.21886 0.0
C1370 C 0.50275 0.56492 0.2231 0.0
C1371 C 0.52324 0.57029 0.16833 0.0
C1372 C 0.48169 0.57227 0.1653 0.0
C1373 C 0.46774 0.55846 0.2693 0.0
N1374 N 0.50995 0.57117 0.17145 0.0
N1375 N 0.48105 0.55898 0.2714 0.0
H1376 H 0.1644 0.19978 0.35016 0.0
H1377 H 0.19098 0.14995 0.64914 0.0
H1378 H 0.16508 0.15769 0.3221 0.0
H1379 H 0.18744 0.19167 0.68302 0.0
H1380 H 0.1809 0.15252 0.5298 0.0
H1381 H 0.17102 0.19687 0.47587 0.0
C1382 C 0.16567 0.18991 0.3708 0.0
C1383 C 0.16442 0.17898 0.32519 0.0
C1384 C 0.18229 0.16111 0.56339 0.0
C1385 C 0.17227 0.1756 0.46843 0.0
C1386 C 0.18818 0.15966 0.63096 0.0
C1387 C 0.18991 0.17061 0.6757 0.0
C1388 C 0.17824 0.17363 0.54046 0.0
C1389 C 0.18606 0.18298 0.65026 0.0
C1390 C 0.16956 0.18826 0.44247 0.0
C1391 C 0.16609 0.16642 0.35506 0.0
N1392 N 0.18038 0.18416 0.58424 0.0
N1393 N 0.17014 0.16508 0.42457 0.0
H1394 H 0.04247 0.91132 0.59489 0.0
H1395 H 0.08882 0.94431 0.89178 0.0
H1396 H 0.08396 0.91783 0.56391 0.0
H1397 H 0.04812 0.93484 0.92852 0.0
H1398 H 0.0874 0.93405 0.77222 0.0
H1399 H 0.04474 0.9182 0.72065 0.0
C1400 C 0.05211 0.91394 0.61488 0.0
C1401 C 0.063 0.9142 0.56847 0.0
C1402 C 0.07879 0.93416 0.80655 0.0
C1403 C 0.06561 0.92236 0.71188 0.0
C1404 C 0.07957 0.94013 0.87431 0.0
C1405 C 0.0686 0.94027 0.91997 0.0
C1406 C 0.06692 0.92842 0.78425 0.0
C1407 C 0.05686 0.9347 0.89525 0.0
C1408 C 0.05338 0.91796 0.68661 0.0
C1409 C 0.07527 0.9176 0.59752 0.0
N1410 N 0.05633 0.92899 0.829 0.0
N1411 N 0.0762 0.92175 0.66712 0.0
H1412 H 0.32983 0.79198 0.85933 0.0
H1413 H 0.29898 0.83923 0.1589 0.0
H1414 H 0.32518 0.83381 0.83131 0.0
H1415 H 0.30567 0.79786 0.19152 0.0
H1416 H 0.30939 0.83759 0.03998 0.0
H1417 H 0.323 0.79426 0.98518 0.0
C1418 C 0.32764 0.80169 0.87998 0.0
C1419 C 0.32784 0.81268 0.83432 0.0
C1420 C 0.30863 0.82887 0.0732 0.0
C1421 C 0.31976 0.81532 0.97779 0.0
C1422 C 0.30256 0.82978 0.14059 0.0
C1423 C 0.30159 0.81868 0.1849 0.0
C1424 C 0.31364 0.81674 0.04991 0.0
C1425 C 0.30643 0.80668 0.15919 0.0
C1426 C 0.32364 0.80297 0.95175 0.0
C1427 C 0.325 0.82503 0.86427 0.0
N1428 N 0.31226 0.80602 0.0933 0.0
N1429 N 0.32088 0.82598 0.93386 0.0
H1430 H 0.449 0.07952 0.09981 0.0
H1431 H 0.40104 0.04914 0.3967 0.0
H1432 H 0.40715 0.07558 0.07013 0.0
H1433 H 0.44207 0.05682 0.43437 0.0
H1434 H 0.40296 0.05948 0.27761 0.0
H1435 H 0.44638 0.07307 0.22605 0.0
C1436 C 0.43922 0.07757 0.12017 0.0
C1437 C 0.42831 0.07784 0.07398 0.0
C1438 C 0.41153 0.05896 0.31204 0.0
C1439 C 0.42529 0.07019 0.21783 0.0
C1440 C 0.41047 0.05294 0.37949 0.0
C1441 C 0.42139 0.05226 0.42518 0.0
C1442 C 0.42366 0.0642 0.29012 0.0
C1443 C 0.43338 0.05737 0.40093 0.0
C1444 C 0.43774 0.07379 0.19217 0.0
C1445 C 0.41587 0.07533 0.10352 0.0
N1446 N 0.4342 0.06313 0.33493 0.0
N1447 N 0.41472 0.07139 0.17333 0.0
H1448 H 0.16083 0.79223 0.64228 0.0
H1449 H 0.19249 0.83867 0.34175 0.0
H1450 H 0.1663 0.83399 0.66917 0.0
H1451 H 0.18518 0.79737 0.31018 0.0
H1452 H 0.18184 0.83735 0.4601 0.0
H1453 H 0.16746 0.79431 0.51599 0.0
C1454 C 0.16314 0.80188 0.62129 0.0
C1455 C 0.16328 0.81291 0.66676 0.0
C1456 C 0.18251 0.82857 0.42723 0.0
C1457 C 0.17113 0.8153 0.52284 0.0
C1458 C 0.18872 0.8293 0.36017 0.0
C1459 C 0.1896 0.81813 0.31637 0.0
C1460 C 0.17729 0.81654 0.45073 0.0
C1461 C 0.1845 0.80624 0.34216 0.0
C1462 C 0.16704 0.80305 0.54927 0.0
C1463 C 0.16626 0.82518 0.63638 0.0
N1464 N 0.17855 0.80576 0.40779 0.0
N1465 N 0.17028 0.82601 0.56658 0.0
H1466 H 0.40452 0.91575 0.91086 0.0
H1467 H 0.44297 0.93298 0.54652 0.0
H1468 H 0.44614 0.9097 0.88215 0.0
H1469 H 0.40237 0.9426 0.58494 0.0
H1470 H 0.44382 0.92202 0.66409 0.0
H1471 H 0.40285 0.92226 0.7843 0.0
C1472 C 0.41327 0.91552 0.8776 0.0
C1473 C 0.42554 0.91245 0.90755 0.0
C1474 C 0.43471 0.92649 0.64677 0.0
C1475 C 0.42372 0.9201 0.76306 0.0
C1476 C 0.43423 0.93274 0.57981 0.0
C1477 C 0.42256 0.93858 0.55614 0.0
C1478 C 0.42342 0.92612 0.69031 0.0
C1479 C 0.41157 0.93825 0.60162 0.0
C1480 C 0.41232 0.91935 0.80545 0.0
C1481 C 0.4365 0.91217 0.86162 0.0
N1482 N 0.41226 0.93208 0.66658 0.0
N1483 N 0.43537 0.91617 0.79185 0.0
H1484 H 0.32039 0.17465 0.7767 0.0
H1485 H 0.31382 0.15601 0.18546 0.0
H1486 H 0.28242 0.16682 0.87105 0.0
H1487 H 0.33556 0.1909 0.12792 0.0
H1488 H 0.30661 0.15398 0.06017 0.0
H1489 H 0.32991 0.17543 0.89755 0.0
C1490 C 0.31394 0.17351 0.82271 0.0
C1491 C 0.30039 0.17147 0.81403 0.0
C1492 C 0.31314 0.16192 0.07507 0.0
C1493 C 0.31154 0.17115 0.95134 0.0
C1494 C 0.3174 0.16305 0.14618 0.0
C1495 C 0.32525 0.17374 0.16713 0.0
C1496 C 0.31705 0.17132 0.02443 0.0
C1497 C 0.32947 0.18258 0.11389 0.0
C1498 C 0.31948 0.17369 0.89142 0.0
C1499 C 0.29283 0.1688 0.8756 0.0
N1500 N 0.32528 0.18119 0.04451 0.0
N1501 N 0.29852 0.16868 0.942 0.0
H1502 H 0.08417 0.06155 0.44647 0.0
H1503 H 0.06769 0.07034 0.03653 0.0
H1504 H 0.05186 0.08677 0.38687 0.0
H1505 H 0.07087 0.03162 0.12989 0.0
H1506 H 0.06754 0.07976 0.15769 0.0
H1507 H 0.08575 0.05419 0.32119 0.0
C1508 C 0.07764 0.06584 0.40673 0.0
C1509 C 0.0678 0.07477 0.42701 0.0
C1510 C 0.06813 0.06921 0.15125 0.0
C1511 C 0.06969 0.06638 0.28437 0.0
C1512 C 0.06794 0.06375 0.0823 0.0
C1513 C 0.06848 0.05006 0.07318 0.0
C1514 C 0.06953 0.06097 0.21106 0.0
C1515 C 0.07007 0.04218 0.13469 0.0
C1516 C 0.07849 0.0615 0.33565 0.0
C1517 C 0.05954 0.07986 0.37329 0.0
N1518 N 0.07057 0.04776 0.20136 0.0
N1519 N 0.06066 0.07557 0.30392 0.0
H1520 H 0.83026 0.7934 0.64196 0.0
H1521 H 0.79583 0.83827 0.34357 0.0
H1522 H 0.82235 0.83472 0.67082 0.0
H1523 H 0.80628 0.79774 0.30866 0.0
H1524 H 0.8064 0.83739 0.46226 0.0
H1525 H 0.82354 0.79529 0.51573 0.0
C1526 C 0.82738 0.80293 0.62143 0.0
C1527 C 0.82662 0.81386 0.66742 0.0
C1528 C 0.80645 0.8287 0.42854 0.0
C1529 C 0.81866 0.81602 0.52351 0.0
C1530 C 0.80029 0.82916 0.36126 0.0
C1531 C 0.80031 0.81809 0.31639 0.0
C1532 C 0.81253 0.81703 0.45121 0.0
C1533 C 0.80627 0.80656 0.34134 0.0
C1534 C 0.82344 0.80398 0.54943 0.0
C1535 C 0.82291 0.82599 0.63762 0.0
N1536 N 0.81214 0.80631 0.4072 0.0
N1537 N 0.81887 0.82669 0.56782 0.0
H1538 H 0.94269 0.05655 0.03258 0.0
H1539 H 0.90608 0.07568 0.39993 0.0
H1540 H 0.90179 0.04876 0.07391 0.0
H1541 H 0.94795 0.07903 0.36885 0.0
H1542 H 0.90379 0.0691 0.27374 0.0
H1543 H 0.94441 0.06715 0.15083 0.0
C1544 C 0.93407 0.0571 0.06675 0.0
C1545 C 0.92206 0.05191 0.04366 0.0
C1546 C 0.91346 0.07143 0.29433 0.0
C1547 C 0.92391 0.06397 0.17857 0.0
C1548 C 0.91477 0.07531 0.36623 0.0
C1549 C 0.92727 0.07766 0.39539 0.0
C1550 C 0.92471 0.06992 0.25137 0.0
C1551 C 0.93815 0.07713 0.34894 0.0
C1552 C 0.93504 0.06315 0.13408 0.0
C1553 C 0.91124 0.05262 0.09016 0.0
N1554 N 0.93663 0.07313 0.27941 0.0
N1555 N 0.9124 0.0586 0.15549 0.0
H1556 H 0.66778 0.15424 0.17659 0.0
H1557 H 0.68485 0.1925 0.81134 0.0
H1558 H 0.6616 0.19583 0.14684 0.0
H1559 H 0.69468 0.15195 0.85024 0.0
H1560 H 0.67403 0.1934 0.92928 0.0
H1561 H 0.67445 0.1525 0.05027 0.0
C1562 C 0.66755 0.16297 0.14315 0.0
C1563 C 0.66438 0.17526 0.17274 0.0
C1564 C 0.67852 0.18429 0.91203 0.0
C1565 C 0.67222 0.17336 0.02855 0.0
C1566 C 0.68469 0.18378 0.84486 0.0
C1567 C 0.69053 0.1721 0.82119 0.0
C1568 C 0.67823 0.17303 0.95578 0.0
C1569 C 0.69032 0.16115 0.86694 0.0
C1570 C 0.67148 0.16198 0.07115 0.0
C1571 C 0.66414 0.18619 0.1266 0.0
N1572 N 0.68421 0.16186 0.93211 0.0
N1573 N 0.66821 0.18502 0.05698 0.0
H1574 H 0.58473 0.92401 0.93334 0.0
H1575 H 0.56146 0.92172 0.52868 0.0
H1576 H 0.54706 0.90708 0.88035 0.0
H1577 H 0.57801 0.9569 0.62171 0.0
H1578 H 0.56013 0.91207 0.64888 0.0
H1579 H 0.58703 0.93121 0.80817 0.0
C1580 C 0.57709 0.92148 0.89507 0.0
C1581 C 0.56557 0.91505 0.9174 0.0
C1582 C 0.56389 0.92196 0.64275 0.0
C1583 C 0.56828 0.92326 0.77478 0.0
C1584 C 0.5644 0.92764 0.57444 0.0
C1585 C 0.56914 0.9405 0.56561 0.0
C1586 C 0.56872 0.92894 0.70202 0.0
C1587 C 0.57395 0.94712 0.6265 0.0
C1588 C 0.57838 0.92573 0.82401 0.0
C1589 C 0.55602 0.9121 0.86535 0.0
N1590 N 0.57366 0.94124 0.69243 0.0
N1591 N 0.55755 0.91628 0.79608 0.0
H1592 H 0.82978 0.19805 0.34344 0.0
H1593 H 0.79718 0.15155 0.64072 0.0
H1594 H 0.82363 0.15646 0.31333 0.0
H1595 H 0.80629 0.19235 0.6772 0.0
H1596 H 0.80757 0.15298 0.52161 0.0
H1597 H 0.82307 0.19577 0.4695 0.0
C1598 C 0.82729 0.18838 0.36366 0.0
C1599 C 0.82704 0.17747 0.31739 0.0
C1600 C 0.80736 0.16161 0.55577 0.0
C1601 C 0.81909 0.17485 0.46112 0.0
C1602 C 0.8013 0.16083 0.62328 0.0
C1603 C 0.80101 0.17182 0.6687 0.0
C1604 C 0.81302 0.17352 0.53346 0.0
C1605 C 0.80653 0.18359 0.64406 0.0
C1606 C 0.82336 0.18711 0.43557 0.0
C1607 C 0.82381 0.16518 0.34678 0.0
N1608 N 0.81232 0.18414 0.57801 0.0
N1609 N 0.81976 0.16424 0.41652 0.0
H1610 H 0.58917 0.04724 0.39219 0.0
H1611 H 0.54104 0.07672 0.09292 0.0
H1612 H 0.54769 0.05298 0.42535 0.0
H1613 H 0.58298 0.07344 0.06473 0.0
H1614 H 0.54354 0.06989 0.21858 0.0
H1615 H 0.58722 0.05749 0.2729 0.0
C1616 C 0.57963 0.05056 0.37388 0.0
C1617 C 0.56859 0.0494 0.41843 0.0
C1618 C 0.55222 0.07083 0.18517 0.0
C1619 C 0.56628 0.06125 0.28317 0.0
C1620 C 0.55081 0.07483 0.11352 0.0
C1621 C 0.56179 0.07542 0.06788 0.0
C1622 C 0.56468 0.06733 0.21111 0.0
C1623 C 0.57422 0.07296 0.09771 0.0
C1624 C 0.57854 0.05654 0.30632 0.0
C1625 C 0.55647 0.0539 0.39278 0.0
N1626 N 0.5753 0.06882 0.16721 0.0
N1627 N 0.55563 0.05966 0.32676 0.0
H1628 H 0.66063 0.79167 0.84859 0.0
H1629 H 0.69264 0.83861 0.14563 0.0
H1630 H 0.66621 0.83334 0.81837 0.0
H1631 H 0.68395 0.79772 0.1823 0.0
H1632 H 0.68228 0.83704 0.02645 0.0
H1633 H 0.66731 0.79405 0.9746 0.0
C1634 C 0.66299 0.80137 0.86879 0.0
C1635 C 0.66309 0.81227 0.8225 0.0
C1636 C 0.68258 0.82842 0.06068 0.0
C1637 C 0.671 0.81503 0.96615 0.0
C1638 C 0.68862 0.82928 0.1282 0.0
C1639 C 0.68901 0.8183 0.17369 0.0
C1640 C 0.67705 0.81644 0.03845 0.0
C1641 C 0.68362 0.80646 0.1491 0.0
C1642 C 0.6669 0.80271 0.94066 0.0
C1643 C 0.66614 0.82462 0.85184 0.0
N1644 N 0.67786 0.80584 0.08305 0.0
N1645 N 0.67019 0.82562 0.92156 0.0
H1646 H 0.90145 0.94223 0.88388 0.0
H1647 H 0.94895 0.91204 0.58382 0.0
H1648 H 0.9429 0.93608 0.916 0.0
H1649 H 0.90705 0.91606 0.55662 0.0
H1650 H 0.94662 0.91867 0.70993 0.0
H1651 H 0.90315 0.93172 0.76525 0.0
C1652 C 0.91093 0.93875 0.86549 0.0
C1653 C 0.92204 0.93991 0.90952 0.0
C1654 C 0.93791 0.91793 0.67662 0.0
C1655 C 0.92406 0.92774 0.77496 0.0
C1656 C 0.93922 0.91404 0.60471 0.0
C1657 C 0.92821 0.91376 0.5592 0.0
C1658 C 0.92552 0.92162 0.70291 0.0
C1659 C 0.91584 0.91634 0.58944 0.0
C1660 C 0.91188 0.93262 0.7983 0.0
C1661 C 0.93407 0.93518 0.88381 0.0
N1662 N 0.91486 0.92038 0.65916 0.0
N1663 N 0.93477 0.92929 0.81809 0.0
H1664 H 0.69153 0.6509 0.14636 0.0
H1665 H 0.66109 0.69818 0.84629 0.0
H1666 H 0.68509 0.69232 0.17864 0.0
H1667 H 0.6653 0.65627 0.81947 0.0
H1668 H 0.66766 0.69592 0.97253 0.0
H1669 H 0.68096 0.65252 0.02793 0.0
C1670 C 0.68797 0.66036 0.12805 0.0
C1671 C 0.68907 0.67148 0.17206 0.0
C1672 C 0.66697 0.68719 0.93928 0.0
C1673 C 0.67683 0.67341 0.03771 0.0
C1674 C 0.66311 0.68846 0.86729 0.0
C1675 C 0.66292 0.67744 0.82186 0.0
C1676 C 0.67071 0.67482 0.96568 0.0
C1677 C 0.66552 0.66508 0.85224 0.0
C1678 C 0.6818 0.66126 0.06098 0.0
C1679 C 0.68424 0.68349 0.14645 0.0
N1680 N 0.66953 0.66413 0.922 0.0
N1681 N 0.67832 0.68414 0.08083 0.0
H1682 H 0.5847 0.4174 0.05359 0.0
H1683 H 0.54736 0.43588 0.41994 0.0
H1684 H 0.54297 0.41267 0.08478 0.0
H1685 H 0.58822 0.44419 0.38061 0.0
H1686 H 0.54596 0.4253 0.30149 0.0
H1687 H 0.58675 0.42426 0.1795 0.0
C1688 C 0.576 0.41752 0.08726 0.0
C1689 C 0.56359 0.41468 0.05821 0.0
C1690 C 0.55525 0.42942 0.31871 0.0
C1691 C 0.56587 0.42275 0.20192 0.0
C1692 C 0.55604 0.43545 0.38618 0.0
C1693 C 0.56795 0.44078 0.40996 0.0
C1694 C 0.56646 0.42874 0.27472 0.0
C1695 C 0.57884 0.44023 0.36388 0.0
C1696 C 0.57717 0.42157 0.15901 0.0
C1697 C 0.5527 0.41494 0.1046 0.0
N1698 N 0.57786 0.43425 0.29842 0.0
N1699 N 0.55406 0.4191 0.17396 0.0
H1700 H 0.79742 0.33883 0.6465 0.0
H1701 H 0.83024 0.29272 0.34846 0.0
H1702 H 0.8067 0.29804 0.68213 0.0
H1703 H 0.82381 0.33429 0.31931 0.0
H1704 H 0.82375 0.29491 0.47491 0.0
H1705 H 0.80801 0.33758 0.52786 0.0
C1706 C 0.80163 0.32959 0.62896 0.0
C1707 C 0.80131 0.31855 0.67396 0.0
C1708 C 0.82394 0.30359 0.44109 0.0
C1709 C 0.81354 0.31705 0.5393 0.0
C1710 C 0.82774 0.30236 0.36897 0.0
C1711 C 0.82731 0.31329 0.32285 0.0
C1712 C 0.81961 0.31581 0.46698 0.0
C1713 C 0.8241 0.32556 0.35261 0.0
C1714 C 0.80779 0.32891 0.56175 0.0
C1715 C 0.80695 0.30683 0.64928 0.0
N1716 N 0.82016 0.32644 0.42254 0.0
N1717 N 0.81284 0.30638 0.58347 0.0
H1718 H 0.92861 0.56755 0.95359 0.0
H1719 H 0.90568 0.56515 0.54828 0.0
H1720 H 0.91169 0.53246 0.86154 0.0
H1721 H 0.94324 0.58214 0.60266 0.0
H1722 H 0.9033 0.55779 0.67319 0.0
H1723 H 0.93019 0.57701 0.83305 0.0
C1724 C 0.92564 0.56161 0.90799 0.0
C1725 C 0.92072 0.54883 0.91724 0.0
C1726 C 0.91195 0.56331 0.65772 0.0
C1727 C 0.92145 0.56018 0.78028 0.0
C1728 C 0.91328 0.56766 0.58684 0.0
C1729 C 0.92476 0.5742 0.56504 0.0
C1730 C 0.922 0.56579 0.70733 0.0
C1731 C 0.93429 0.57708 0.61733 0.0
C1732 C 0.9263 0.56718 0.83944 0.0
C1733 C 0.91589 0.54218 0.85645 0.0
N1734 N 0.93272 0.57281 0.68644 0.0
N1735 N 0.91634 0.54796 0.79026 0.0
H1736 H 0.69286 0.33801 0.84191 0.0
H1737 H 0.66172 0.29048 0.13888 0.0
H1738 H 0.68475 0.29702 0.80474 0.0
H1739 H 0.66638 0.33226 0.16895 0.0
H1740 H 0.66838 0.29299 0.01291 0.0
H1741 H 0.68258 0.33623 0.96125 0.0
C1742 C 0.68899 0.32862 0.85928 0.0
C1743 C 0.68952 0.31767 0.81362 0.0
C1744 C 0.66778 0.30163 0.04681 0.0
C1745 C 0.67764 0.31557 0.94899 0.0
C1746 C 0.66388 0.30022 0.11865 0.0
C1747 C 0.66372 0.31114 0.16488 0.0
C1748 C 0.67162 0.31403 0.02129 0.0
C1749 C 0.66651 0.32354 0.13551 0.0
C1750 C 0.68299 0.32763 0.92689 0.0
C1751 C 0.68432 0.30574 0.83812 0.0
N1752 N 0.67056 0.32462 0.06583 0.0
N1753 N 0.67859 0.305 0.90424 0.0
H1754 H 0.92838 0.42212 0.02858 0.0
H1755 H 0.90515 0.42484 0.43317 0.0
H1756 H 0.91237 0.45758 0.12126 0.0
H1757 H 0.9425 0.40721 0.38032 0.0
H1758 H 0.90307 0.43219 0.30814 0.0
H1759 H 0.92967 0.41254 0.14897 0.0
C1760 C 0.92556 0.42811 0.07427 0.0
C1761 C 0.92097 0.44102 0.06525 0.0
C1762 C 0.9116 0.42653 0.32397 0.0
C1763 C 0.92134 0.42956 0.20196 0.0
C1764 C 0.91276 0.42219 0.39494 0.0
C1765 C 0.92411 0.4155 0.41726 0.0
C1766 C 0.92168 0.42388 0.27479 0.0
C1767 C 0.93365 0.41241 0.3653 0.0
C1768 C 0.92605 0.42248 0.14272 0.0
C1769 C 0.91631 0.44775 0.12616 0.0
N1770 N 0.93224 0.41668 0.29609 0.0
N1771 N 0.91657 0.44192 0.19221 0.0
H1772 H 0.79822 0.65111 0.33736 0.0
H1773 H 0.82957 0.69821 0.63525 0.0
H1774 H 0.8063 0.69214 0.3015 0.0
H1775 H 0.82457 0.65643 0.66412 0.0
H1776 H 0.82317 0.69582 0.5088 0.0
H1777 H 0.80877 0.65268 0.45593 0.0
C1778 C 0.80215 0.66046 0.35485 0.0
C1779 C 0.80151 0.67149 0.30982 0.0
C1780 C 0.82365 0.68715 0.54255 0.0
C1781 C 0.8137 0.67337 0.44436 0.0
C1782 C 0.82741 0.68849 0.61468 0.0
C1783 C 0.82733 0.67755 0.66072 0.0
C1784 C 0.81974 0.6748 0.51661 0.0
C1785 C 0.82455 0.66518 0.63087 0.0
C1786 C 0.8083 0.66133 0.42201 0.0
C1787 C 0.8068 0.68337 0.33441 0.0
N1788 N 0.82065 0.66418 0.56095 0.0
N1789 N 0.81268 0.68401 0.40017 0.0
H1790 H 0.5723 0.53049 0.62469 0.0
H1791 H 0.55147 0.5864 0.88438 0.0
H1792 H 0.56865 0.56953 0.53604 0.0
H1793 H 0.58422 0.56148 0.94051 0.0
H1794 H 0.55365 0.57918 0.75781 0.0
H1795 H 0.57266 0.5401 0.7466 0.0
C1796 C 0.57136 0.54102 0.63083 0.0
C1797 C 0.56978 0.54914 0.57029 0.0
C1798 C 0.56044 0.57553 0.79812 0.0
C1799 C 0.57016 0.56007 0.70827 0.0
C1800 C 0.55925 0.57965 0.86985 0.0
C1801 C 0.56766 0.57454 0.92278 0.0
C1802 C 0.56981 0.56596 0.78048 0.0
C1803 C 0.57755 0.56573 0.90141 0.0
C1804 C 0.57162 0.54646 0.7 0.0
C1805 C 0.56897 0.56278 0.58108 0.0
N1806 N 0.57817 0.56149 0.83205 0.0
N1807 N 0.56894 0.56783 0.64896 0.0
H1808 H 0.30536 0.29802 0.7962 0.0
H1809 H 0.32482 0.33482 0.16234 0.0
H1810 H 0.29802 0.33906 0.83651 0.0
H1811 H 0.32804 0.2929 0.13213 0.0
H1812 H 0.31833 0.33706 0.03602 0.0
H1813 H 0.31607 0.29633 0.91414 0.0
C1814 C 0.30603 0.30667 0.83005 0.0
C1815 C 0.30093 0.31872 0.80677 0.0
C1816 C 0.32062 0.32739 0.05681 0.0
C1817 C 0.31311 0.31689 0.94133 0.0
C1818 C 0.32444 0.32611 0.1288 0.0
C1819 C 0.32671 0.31361 0.15825 0.0
C1820 C 0.31908 0.31611 0.01407 0.0
C1821 C 0.3262 0.3027 0.11199 0.0
C1822 C 0.31215 0.30571 0.8972 0.0
C1823 C 0.3018 0.32958 0.8529 0.0
N1824 N 0.32224 0.30419 0.04237 0.0
N1825 N 0.30784 0.32843 0.91805 0.0
H1826 H 0.44345 0.55655 0.5466 0.0
H1827 H 0.40613 0.57552 0.91188 0.0
H1828 H 0.40252 0.54861 0.58633 0.0
H1829 H 0.44799 0.57938 0.88265 0.0
H1830 H 0.40407 0.56907 0.78539 0.0
H1831 H 0.4449 0.56739 0.66435 0.0
C1832 C 0.43477 0.55712 0.58027 0.0
C1833 C 0.42283 0.5518 0.55692 0.0
C1834 C 0.41369 0.57149 0.80642 0.0
C1835 C 0.42438 0.56414 0.69121 0.0
C1836 C 0.41486 0.57528 0.87852 0.0
C1837 C 0.4273 0.57772 0.90829 0.0
C1838 C 0.42502 0.57013 0.76393 0.0
C1839 C 0.43824 0.57741 0.86225 0.0
C1840 C 0.43559 0.56331 0.64731 0.0
C1841 C 0.41192 0.55255 0.6028 0.0
N1842 N 0.43687 0.57346 0.79253 0.0
N1843 N 0.41294 0.55866 0.66783 0.0
H1844 H 0.16262 0.6987 0.6364 0.0
H1845 H 0.19262 0.65092 0.33681 0.0
H1846 H 0.16654 0.65679 0.66442 0.0
H1847 H 0.18663 0.6924 0.30423 0.0
H1848 H 0.18219 0.65273 0.45565 0.0
H1849 H 0.16933 0.69628 0.51043 0.0
C1850 C 0.16462 0.68895 0.61572 0.0
C1851 C 0.16427 0.67797 0.66141 0.0
C1852 C 0.18311 0.66143 0.42245 0.0
C1853 C 0.17221 0.67517 0.51783 0.0
C1854 C 0.18919 0.66043 0.35512 0.0
C1855 C 0.19036 0.67152 0.31087 0.0
C1856 C 0.17831 0.67365 0.44572 0.0
C1857 C 0.18572 0.68359 0.33654 0.0
C1858 C 0.16855 0.68759 0.54389 0.0
C1859 C 0.16685 0.66557 0.63144 0.0
N1860 N 0.17987 0.68435 0.40238 0.0
N1861 N 0.17092 0.66453 0.56179 0.0
H1862 H 0.08907 0.44222 0.08618 0.0
H1863 H 0.04246 0.41038 0.38497 0.0
H1864 H 0.04807 0.43392 0.05128 0.0
H1865 H 0.08417 0.41588 0.41304 0.0
H1866 H 0.0447 0.41682 0.25845 0.0
H1867 H 0.08765 0.4316 0.20458 0.0
C1868 C 0.07975 0.43822 0.10382 0.0
C1869 C 0.06869 0.43883 0.05907 0.0
C1870 C 0.05339 0.41644 0.29204 0.0
C1871 C 0.067 0.42656 0.19355 0.0
C1872 C 0.05214 0.41266 0.36421 0.0
C1873 C 0.0631 0.41286 0.41005 0.0
C1874 C 0.06567 0.42049 0.26585 0.0
C1875 C 0.07541 0.41579 0.37996 0.0
C1876 C 0.07897 0.43203 0.17092 0.0
C1877 C 0.05687 0.43344 0.08391 0.0
N1878 N 0.07632 0.41971 0.31001 0.0
N1879 N 0.05632 0.42754 0.14964 0.0
H1880 H 0.3202 0.67503 0.19984 0.0
H1881 H 0.31391 0.65554 0.79179 0.0
H1882 H 0.2824 0.66638 0.10575 0.0
H1883 H 0.33566 0.69048 0.84847 0.0
H1884 H 0.3066 0.65368 0.91703 0.0
H1885 H 0.32975 0.67568 0.07906 0.0
C1886 C 0.31378 0.6737 0.15386 0.0
C1887 C 0.30026 0.67145 0.1626 0.0
C1888 C 0.31315 0.6616 0.90195 0.0
C1889 C 0.31148 0.67099 0.02538 0.0
C1890 C 0.31746 0.66263 0.83088 0.0
C1891 C 0.32535 0.67328 0.80968 0.0
C1892 C 0.31702 0.67106 0.95232 0.0
C1893 C 0.32954 0.68218 0.86268 0.0
C1894 C 0.31935 0.6738 0.0852 0.0
C1895 C 0.29277 0.66853 0.10114 0.0
N1896 N 0.32529 0.68089 0.93202 0.0
N1897 N 0.29849 0.66835 0.0348 0.0
H1898 H 0.08892 0.54785 0.89444 0.0
H1899 H 0.04339 0.58095 0.595 0.0
H1900 H 0.04811 0.5571 0.92853 0.0
H1901 H 0.08492 0.5742 0.56744 0.0
H1902 H 0.04537 0.57448 0.72162 0.0
H1903 H 0.08788 0.55856 0.77623 0.0
C1904 C 0.07972 0.55208 0.87668 0.0
C1905 C 0.06861 0.5517 0.92115 0.0
C1906 C 0.05408 0.5746 0.68812 0.0
C1907 C 0.06734 0.56408 0.78681 0.0
C1908 C 0.05298 0.57839 0.6159 0.0
C1909 C 0.06395 0.57785 0.57016 0.0
C1910 C 0.06623 0.57019 0.71448 0.0
C1911 C 0.07615 0.57456 0.60042 0.0
C1912 C 0.07916 0.55832 0.80967 0.0
C1913 C 0.05695 0.55739 0.89614 0.0
N1914 N 0.07692 0.57064 0.67042 0.0
N1915 N 0.0566 0.56334 0.83047 0.0
H1916 H 0.16191 0.29152 0.33797 0.0
H1917 H 0.19237 0.33873 0.63879 0.0
H1918 H 0.1663 0.33341 0.31119 0.0
H1919 H 0.18634 0.29721 0.66952 0.0
H1920 H 0.18187 0.33713 0.52017 0.0
H1921 H 0.16868 0.29373 0.46393 0.0
C1922 C 0.16402 0.30122 0.35893 0.0
C1923 C 0.16379 0.31226 0.31357 0.0
C1924 C 0.1828 0.32837 0.5529 0.0
C1925 C 0.1718 0.31481 0.45713 0.0
C1926 C 0.18892 0.32926 0.6201 0.0
C1927 C 0.1901 0.31809 0.66378 0.0
C1928 C 0.17795 0.3162 0.52916 0.0
C1929 C 0.18542 0.30607 0.63764 0.0
C1930 C 0.16799 0.30246 0.43075 0.0
C1931 C 0.16652 0.3246 0.3439 0.0
N1932 N 0.17952 0.30543 0.57192 0.0
N1933 N 0.17062 0.32551 0.41353 0.0
H1934 H 0.40697 0.41569 0.05855 0.0
H1935 H 0.44326 0.43565 0.4253 0.0
H1936 H 0.44892 0.41333 0.08894 0.0
H1937 H 0.40219 0.44252 0.38434 0.0
H1938 H 0.44517 0.42502 0.30723 0.0
H1939 H 0.40457 0.42212 0.18492 0.0
C1940 C 0.41566 0.41625 0.09213 0.0
C1941 C 0.42821 0.41424 0.06273 0.0
C1942 C 0.43573 0.42882 0.32403 0.0
C1943 C 0.42552 0.4218 0.20692 0.0
C1944 C 0.43465 0.43489 0.39124 0.0
C1945 C 0.42254 0.43984 0.41436 0.0
C1946 C 0.4246 0.42774 0.27969 0.0
C1947 C 0.41172 0.43887 0.36803 0.0
C1948 C 0.41428 0.42004 0.16414 0.0
C1949 C 0.43908 0.41497 0.10904 0.0
N1950 N 0.41299 0.43287 0.30281 0.0
N1951 N 0.4375 0.41889 0.17867 0.0
H1952 H 0.28351 0.16284 0.24408 0.0
H1953 H 0.20526 0.16409 0.24871 0.0
H1954 H 0.2603 0.16414 0.43958 0.0
H1955 H 0.22831 0.16369 0.05251 0.0
H1956 H 0.22529 0.16187 0.31914 0.0
H1957 H 0.26344 0.16085 0.17341 0.0
C1958 C 0.2742 0.16261 0.27232 0.0
C1959 C 0.27359 0.16381 0.348 0.0
C1960 C 0.22598 0.16219 0.26069 0.0
C1961 C 0.25055 0.16157 0.267 0.0
C1962 C 0.21454 0.16347 0.22027 0.0
C1963 C 0.2151 0.16422 0.14443 0.0
C1964 C 0.23814 0.1617 0.22524 0.0
C1965 C 0.22741 0.16324 0.11082 0.0
C1966 C 0.26274 0.16147 0.23178 0.0
C1967 C 0.26124 0.16333 0.38141 0.0
N1968 N 0.23846 0.16213 0.15153 0.0
N1969 N 0.2502 0.16236 0.34061 0.0
H1970 H 0.07721 0.03349 0.50295 0.0
H1971 H 0.07509 0.9552 0.49449 0.0
H1972 H 0.07452 0.00934 0.69456 0.0
H1973 H 0.07555 0.97936 0.30239 0.0
H1974 H 0.07709 0.97485 0.56846 0.0
H1975 H 0.07889 0.01375 0.42938 0.0
C1976 C 0.07705 0.02403 0.52976 0.0
C1977 C 0.07558 0.02308 0.6052 0.0
C1978 C 0.07682 0.97587 0.51015 0.0
C1979 C 0.07748 0.00039 0.52073 0.0
C1980 C 0.07567 0.96464 0.46768 0.0
C1981 C 0.07502 0.96563 0.39191 0.0
C1982 C 0.07731 0.98822 0.47686 0.0
C1983 C 0.07593 0.97813 0.36053 0.0
C1984 C 0.07801 0.01275 0.48752 0.0
C1985 C 0.07557 0.01055 0.63665 0.0
N1986 N 0.07695 0.98895 0.40321 0.0
N1987 N 0.0764 -0.00031 0.59417 0.0
H1988 H 0.2853 0.82549 0.75768 0.0
H1989 H 0.20704 0.82625 0.74562 0.0
H1990 H 0.26276 0.82622 0.55981 0.0
H1991 H 0.22947 0.82478 0.94375 0.0
H1992 H 0.22736 0.82823 0.67737 0.0
H1993 H 0.26503 0.82722 0.82678 0.0
C1994 C 0.27609 0.82609 0.72862 0.0
C1995 C 0.27574 0.82558 0.65267 0.0
C1996 C 0.22785 0.82755 0.73578 0.0
C1997 C 0.25245 0.82754 0.73186 0.0
C1998 C 0.21624 0.82641 0.77494 0.0
C1999 C 0.21654 0.82521 0.85066 0.0
C2000 C 0.2399 0.82746 0.77238 0.0
C2001 C 0.22876 0.8256 0.88549 0.0
C2002 C 0.26451 0.82708 0.76826 0.0
C2003 C 0.26351 0.8265 0.61821 0.0
N2004 N 0.23997 0.8266 0.84599 0.0
N2005 N 0.25234 0.82734 0.65812 0.0
H2006 H 0.41294 0.95687 0.98639 0.0
H2007 H 0.41568 0.03515 -0.0024 0.0
H2008 H 0.41492 0.97939 0.18414 0.0
H2009 H 0.4142 0.01257 0.79987 0.0
H2010 H 0.41351 0.01493 0.06684 0.0
H2011 H 0.41142 0.97721 0.9178 0.0
C2012 C 0.41297 0.96609 0.01555 0.0
C2013 C 0.41419 0.96641 0.09125 0.0
C2014 C 0.41358 0.01439 0.00832 0.0
C2015 C 0.4125 0.98979 0.01263 0.0
C2016 C 0.41483 0.02594 0.96861 0.0
C2017 C 0.41524 0.02556 0.89264 0.0
C2018 C 0.41277 0.00233 0.97199 0.0
C2019 C 0.41401 0.01334 0.85828 0.0
C2020 C 0.4121 0.97772 0.97621 0.0
C2021 C 0.41407 0.97867 0.12589 0.0
N2022 N 0.41292 0.0022 0.89825 0.0
N2023 N 0.41334 0.98988 0.08623 0.0
H2024 H 0.78339 0.82624 0.74473 0.0
H2025 H 0.70512 0.82492 0.74693 0.0
H2026 H 0.76012 0.82448 0.9399 0.0
H2027 H 0.72846 0.8254 0.55179 0.0
H2028 H 0.72508 0.8268 0.81839 0.0
H2029 H 0.76336 0.82799 0.67385 0.0
C2030 C 0.77407 0.82629 0.77286 0.0
C2031 C 0.77345 0.82508 0.84853 0.0
C2032 C 0.72585 0.82657 0.75996 0.0
C2033 C 0.75042 0.82706 0.76719 0.0
C2034 C 0.71444 0.82549 0.71895 0.0
C2035 C 0.71511 0.82488 0.64307 0.0
C2036 C 0.73806 0.82701 0.72504 0.0
C2037 C 0.72747 0.82577 0.61008 0.0
C2038 C 0.76262 0.82729 0.73218 0.0
C2039 C 0.76108 0.82532 0.88175 0.0
N2040 N 0.73847 0.8267 0.65133 0.0
N2041 N 0.75004 0.82619 0.84078 0.0
H2042 H 0.91532 0.03515 0.47098 0.0
H2043 H 0.9145 0.95683 0.48077 0.0
H2044 H 0.91409 0.01236 0.668 0.0
H2045 H 0.91583 0.97942 0.28308 0.0
H2046 H 0.91252 0.97711 0.54947 0.0
H2047 H 0.91369 0.01493 0.40107 0.0
C2048 C 0.91463 0.0259 0.49967 0.0
C2049 C 0.91496 0.02545 0.57564 0.0
C2050 C 0.91317 0.97765 0.49106 0.0
C2051 C 0.91313 0.00224 0.49557 0.0
C2052 C 0.91432 0.96606 0.45164 0.0
C2053 C 0.91546 0.96642 0.37592 0.0
C2054 C 0.91323 0.98973 0.45472 0.0
C2055 C 0.91505 0.97867 0.34135 0.0
C2056 C 0.91369 0.01435 0.45958 0.0
C2057 C 0.91394 0.01318 0.60961 0.0
N2058 N 0.91406 0.98986 0.3811 0.0
N2059 N 0.91316 0.00206 0.5693 0.0
H2060 H 0.73085 0.16493 0.44547 0.0
H2061 H 0.76154 0.16428 0.04651 0.0
H2062 H 0.70776 0.16414 0.24954 0.0
H2063 H 0.7847 0.16569 0.24209 0.0
H2064 H 0.74173 0.16238 0.12037 0.0
H2065 H 0.75077 0.16336 0.37211 0.0
C2066 C 0.72996 0.16434 0.38717 0.0
C2067 C 0.71761 0.16479 0.35368 0.0
C2068 C 0.75116 0.16303 0.14706 0.0
C2069 C 0.74034 0.16302 0.26942 0.0
C2070 C 0.76248 0.16411 0.10488 0.0
C2071 C 0.7748 0.16527 0.13805 0.0
C2072 C 0.75218 0.16312 0.22293 0.0
C2073 C 0.77541 0.16493 0.21402 0.0
C2074 C 0.74133 0.16345 0.34528 0.0
C2075 C 0.71705 0.16393 0.27783 0.0
N2076 N 0.76426 0.16397 0.25382 0.0
N2077 N 0.72825 0.16317 0.23834 0.0
H2078 H 0.57623 0.01104 0.79505 0.0
H2079 H 0.57529 0.97964 0.19211 0.0
H2080 H 0.57405 0.03379 -0.00801 0.0
H2081 H 0.57709 0.95688 -0.00489 0.0
H2082 H 0.5769 -0.0003 0.12001 0.0
H2083 H 0.57849 0.99113 0.86782 0.0
C2084 C 0.5763 0.01187 0.85348 0.0
C2085 C 0.57483 0.0241 0.88736 0.0
C2086 C 0.57703 0.9903 0.09267 0.0
C2087 C 0.57739 0.00137 0.97097 0.0
C2088 C 0.57614 0.97885 0.13385 0.0
C2089 C 0.57592 0.96656 0.09965 0.0
C2090 C 0.57768 0.98945 0.0168 0.0
C2091 C 0.5771 0.96613 0.0239 0.0
C2092 C 0.57759 0.0005 0.89504 0.0
C2093 C 0.57505 0.02458 0.96337 0.0
N2094 N 0.57783 0.97741 0.98507 0.0
N2095 N 0.57622 0.01338 0.00253 0.0
H2096 H 0.76141 0.66373 0.9375 0.0
H2097 H 0.72875 0.66462 0.54359 0.0
H2098 H 0.78359 0.66502 0.73839 0.0
H2099 H 0.70666 0.6647 0.74313 0.0
H2100 H 0.74899 0.66267 0.61379 0.0
H2101 H 0.74124 0.66194 0.8668 0.0
C2102 C 0.76206 0.66354 0.879 0.0
C2103 C 0.77421 0.66466 0.84391 0.0
C2104 C 0.73969 0.66304 0.64212 0.0
C2105 C 0.75117 0.66266 0.76265 0.0
C2106 C 0.72814 0.66415 0.60204 0.0
C2107 C 0.71599 0.66495 0.63746 0.0
C2108 C 0.73909 0.66275 0.7181 0.0
C2109 C 0.7158 0.66423 0.71339 0.0
C2110 C 0.75053 0.66253 0.83863 0.0
C2111 C 0.77445 0.6643 0.76789 0.0
N2112 N 0.72717 0.66324 0.75111 0.0
N2113 N 0.76309 0.66342 0.72986 0.0
H2114 H 0.57661 0.4799 0.79006 0.0
H2115 H 0.57657 0.50914 0.19207 0.0
H2116 H 0.57575 0.45608 0.98343 0.0
H2117 H 0.57767 0.53298 -0.00117 0.0
H2118 H 0.57831 0.48951 0.11657 0.0
H2119 H 0.57894 0.49945 0.86576 0.0
C2120 C 0.57699 0.47876 0.8483 0.0
C2121 C 0.57585 0.46634 0.88036 0.0
C2122 C 0.57827 0.49905 0.0908 0.0
C2123 C 0.57849 0.48865 0.96729 0.0
C2124 C 0.57729 0.51026 0.13393 0.0
C2125 C 0.57683 0.52273 0.1018 0.0
C2126 C 0.57874 0.50032 0.01506 0.0
C2127 C 0.57786 0.52358 0.02608 0.0
C2128 C 0.57833 0.48993 0.89152 0.0
C2129 C 0.57647 0.46546 0.9562 0.0
N2130 N 0.57867 0.51253 0.98534 0.0
N2131 N 0.57767 0.47646 -0.003 0.0
H2132 H 0.7056 0.32338 0.24005 0.0
H2133 H 0.78385 0.3261 0.24526 0.0
H2134 H 0.72866 0.32467 0.43603 0.0
H2135 H 0.76088 0.32436 0.04909 0.0
H2136 H 0.76369 0.32747 0.31541 0.0
H2137 H 0.72564 0.32554 0.16927 0.0
C2138 C 0.71488 0.32417 0.26835 0.0
C2139 C 0.71545 0.32373 0.34427 0.0
C2140 C 0.76304 0.32687 0.25702 0.0
C2141 C 0.73847 0.32619 0.26311 0.0
C2142 C 0.77456 0.32608 0.21677 0.0
C2143 C 0.77407 0.32498 0.14104 0.0
C2144 C 0.75089 0.32651 0.22149 0.0
C2145 C 0.76174 0.32512 0.10732 0.0
C2146 C 0.72632 0.32542 0.22773 0.0
C2147 C 0.72775 0.3249 0.37769 0.0
N2148 N 0.75063 0.32577 0.14786 0.0
N2149 N 0.73878 0.326 0.33684 0.0
H2150 H 0.91258 0.47981 0.69085 0.0
H2151 H 0.91204 0.51053 0.2928 0.0
H2152 H 0.91149 0.45672 0.49482 0.0
H2153 H 0.91208 0.53365 0.48879 0.0
H2154 H 0.90957 0.4907 0.36605 0.0
H2155 H 0.91014 0.49969 0.61796 0.0
C2156 C 0.91171 0.4789 0.63265 0.0
C2157 C 0.91241 0.46659 0.59894 0.0
C2158 C 0.91001 0.50013 0.39293 0.0
C2159 C 0.90968 0.48927 0.51519 0.0
C2160 C 0.91141 0.51146 0.35108 0.0
C2161 C 0.91244 0.52376 0.38463 0.0
C2162 C 0.90968 0.50113 0.46881 0.0
C2163 C 0.91148 0.52437 0.46046 0.0
C2164 C 0.91032 0.49025 0.59102 0.0
C2165 C 0.91115 0.46601 0.52325 0.0
N2166 N 0.91027 0.51321 0.49994 0.0
N2167 N 0.90996 0.47719 0.48397 0.0
H2168 H 0.26107 0.32758 0.43265 0.0
H2169 H 0.2292 0.32581 0.03694 0.0
H2170 H 0.28367 0.32623 0.23497 0.0
H2171 H 0.20674 0.32592 0.23522 0.0
H2172 H 0.24928 0.32817 0.10817 0.0
H2173 H 0.24104 0.32924 0.36068 0.0
C2174 C 0.26184 0.32774 0.3742 0.0
C2175 C 0.27407 0.32663 0.33989 0.0
C2176 C 0.23994 0.32776 0.13598 0.0
C2177 C 0.25118 0.32847 0.25716 0.0
C2178 C 0.22847 0.32642 0.09532 0.0
C2179 C 0.21627 0.32553 0.1301 0.0
C2180 C 0.23919 0.3282 0.2119 0.0
C2181 C 0.21593 0.32644 0.20596 0.0
C2182 C 0.25039 0.32867 0.3331 0.0
C2183 C 0.27445 0.32695 0.26388 0.0
N2184 N 0.22721 0.32764 0.24425 0.0
N2185 N 0.26318 0.32774 0.22513 0.0
H2186 H 0.41379 0.47952 0.78865 0.0
H2187 H 0.41447 0.51143 0.18444 0.0
H2188 H 0.41558 0.45698 0.9864 0.0
H2189 H 0.41432 0.53394 0.98634 0.0
H2190 H 0.41258 0.49132 0.11303 0.0
H2191 H 0.41169 0.49954 0.86055 0.0
C2192 C 0.41366 0.47876 0.8471 0.0
C2193 C 0.415 0.46656 0.88146 0.0
C2194 C 0.41287 0.50068 0.08528 0.0
C2195 C 0.41264 0.48943 0.96409 0.0
C2196 C 0.41394 0.51216 0.12604 0.0
C2197 C 0.4147 0.52439 0.09138 0.0
C2198 C 0.41257 0.50143 0.00935 0.0
C2199 C 0.4139 0.52473 0.01549 0.0
C2200 C 0.41247 0.4902 0.88816 0.0
C2201 C 0.41469 0.46618 0.95746 0.0
N2202 N 0.41296 0.51342 0.97708 0.0
N2203 N 0.41363 0.47745 -0.00384 0.0
H2204 H 0.2294 0.66387 0.93485 0.0
H2205 H 0.26045 0.66405 0.53694 0.0
H2206 H 0.20652 0.66465 0.73814 0.0
H2207 H 0.28346 0.66365 0.73322 0.0
H2208 H 0.24054 0.66217 0.6099 0.0
H2209 H 0.24932 0.66174 0.86196 0.0
C2210 C 0.22854 0.6635 0.87646 0.0
C2211 C 0.21627 0.66458 0.84264 0.0
C2212 C 0.24996 0.6624 0.63693 0.0
C2213 C 0.23901 0.66217 0.75893 0.0
C2214 C 0.26133 0.66346 0.59525 0.0
C2215 C 0.27364 0.66415 0.62893 0.0
C2216 C 0.2509 0.66206 0.71281 0.0
C2217 C 0.27418 0.66328 0.7048 0.0
C2218 C 0.23992 0.66229 0.83485 0.0
C2219 C 0.21577 0.66398 0.7667 0.0
N2220 N 0.26297 0.66237 0.74413 0.0
N2221 N 0.22696 0.66291 0.7275 0.0
H2222 H 0.07739 0.51124 0.29238 0.0
H2223 H 0.07776 0.47897 0.68696 0.0
H2224 H 0.0776 0.53357 0.4911 0.0
H2225 H 0.07695 0.45664 0.48829 0.0
H2226 H 0.08009 0.49908 0.61596 0.0
H2227 H 0.07962 0.49109 0.36312 0.0
C2228 C 0.07802 0.51193 0.35076 0.0
C2229 C 0.07715 0.52411 0.38582 0.0
C2230 C 0.0795 0.48976 0.58798 0.0
C2231 C 0.07965 0.50111 0.46711 0.0
C2232 C 0.07818 0.47827 0.62852 0.0
C2233 C 0.077 0.4661 0.59359 0.0
C2234 C 0.07962 0.48906 0.512 0.0
C2235 C 0.07769 0.4658 0.51765 0.0
C2236 C 0.07928 0.50042 0.39116 0.0
C2237 C 0.07809 0.5244 0.46167 0.0
N2238 N 0.07885 0.47711 0.47945 0.0
N2239 N 0.07918 0.51307 0.49974 0.0
H2240 H 0.13137 0.14596 0.98532 0.0
H2241 H 0.11911 0.08368 0.74113 0.0
H2242 H 0.16315 0.12012 0.92689 0.0
H2243 H 0.09086 0.09562 0.9016 0.0
H2244 H 0.13503 0.09917 0.79334 0.0
H2245 H 0.11569 0.12953 0.94132 0.0
C2246 C 0.13502 0.13679 0.96356 0.0
C2247 C 0.14852 0.13439 0.95883 0.0
C2248 C 0.12536 0.09834 0.81715 0.0
C2249 C 0.13079 0.11583 0.90718 0.0
C2250 C 0.11632 0.08961 0.78731 0.0
C2251 C 0.10379 0.0885 0.81751 0.0
C2252 C 0.12165 0.10615 0.8763 0.0
C2253 C 0.1005 0.09628 0.87725 0.0
C2254 C 0.12611 0.12747 0.93842 0.0
C2255 C 0.1528 0.12242 0.92987 0.0
N2256 N 0.10936 0.10492 0.90447 0.0
N2257 N 0.14395 0.11361 0.90417 0.0
H2258 H 0.16511 0.86969 0.07233 0.0
H2259 H 0.09126 0.89308 0.1032 0.0
H2260 H 0.13306 0.84413 0.01484 0.0
H2261 H 0.12014 0.90455 0.26114 0.0
H2262 H 0.1071 0.87756 0.05091 0.0
H2263 H 0.14929 0.88538 0.12306 0.0
C2264 C 0.15474 0.8674 0.07066 0.0
C2265 C 0.15033 0.85556 0.04073 0.0
C2266 C 0.10994 0.88346 0.09712 0.0
C2267 C 0.13232 0.87349 0.09601 0.0
C2268 C 0.10096 0.89226 0.12672 0.0
C2269 C 0.10451 0.89991 0.18644 0.0
C2270 C 0.12259 0.88261 0.12664 0.0
C2271 C 0.11713 0.89867 0.21526 0.0
C2272 C 0.14577 0.87632 0.0993 0.0
C2273 C 0.1368 0.85317 0.0376 0.0
N2274 N 0.12582 0.89022 0.18462 0.0
N2275 N 0.12823 0.8621 0.06482 0.0
H2276 H 0.35923 0.84328 0.47967 0.0
H2277 H 0.37004 0.90434 0.22188 0.0
H2278 H 0.32768 0.8699 0.42887 0.0
H2279 H 0.39998 0.89206 0.37174 0.0
H2280 H 0.35457 0.88906 0.28007 0.0
H2281 H 0.37484 0.85881 0.42568 0.0
C2282 C 0.35563 0.85244 0.45755 0.0
C2283 C 0.34219 0.85531 0.45769 0.0
C2284 C 0.36454 0.88971 0.29996 0.0
C2285 C 0.3598 0.8728 0.3946 0.0
C2286 C 0.37333 0.8983 0.2666 0.0
C2287 C 0.38618 0.8993 0.29239 0.0
C2288 C 0.36881 0.88197 0.35825 0.0
C2289 C 0.39009 0.89144 0.35065 0.0
C2290 C 0.36449 0.86123 0.4266 0.0
C2291 C 0.33796 0.86725 0.42818 0.0
N2292 N 0.38144 0.88299 0.38152 0.0
N2293 N 0.34673 0.87552 0.39683 0.0
H2294 H 0.3693 0.07803 0.69825 0.0
H2295 H 0.35703 0.15059 0.54593 0.0
H2296 H 0.39868 0.10841 0.70026 0.0
H2297 H 0.32636 0.12182 0.57006 0.0
H2298 H 0.37272 0.135 0.59809 0.0
H2299 H 0.35347 0.09372 0.64829 0.0
C2300 C 0.37234 0.08806 0.68825 0.0
C2301 C 0.38521 0.09203 0.70281 0.0
C2302 C 0.36256 0.13208 0.59206 0.0
C2303 C 0.36735 0.10995 0.64584 0.0
C2304 C 0.35367 0.14093 0.56205 0.0
C2305 C 0.34049 0.13738 0.55407 0.0
C2306 C 0.35819 0.1196 0.61377 0.0
C2307 C 0.33649 0.12485 0.57584 0.0
C2308 C 0.36336 0.09699 0.65988 0.0
C2309 C 0.38878 0.10507 0.68963 0.0
N2310 N 0.34533 0.11637 0.60475 0.0
N2311 N 0.3799 0.11359 0.66148 0.0
H2312 H 0.84633 0.84144 0.13423 0.0
H2313 H 0.87066 0.91514 0.15656 0.0
H2314 H 0.8351 0.8699 0.97337 0.0
H2315 H 0.89592 0.88293 0.21545 0.0
H2316 H 0.85467 0.89935 0.10845 0.0
H2317 H 0.86199 0.85733 0.18469 0.0
C2318 C 0.84721 0.85107 0.10977 0.0
C2319 C 0.83959 0.85447 0.0497 0.0
C2320 C 0.86372 0.89579 0.13196 0.0
C2321 C 0.85709 0.87259 0.10734 0.0
C2322 C 0.87282 0.90474 0.15909 0.0
C2323 C 0.88466 0.90027 0.18868 0.0
C2324 C 0.86638 0.88231 0.13645 0.0
C2325 C 0.88687 0.88672 0.19294 0.0
C2326 C 0.85611 0.86006 0.1383 0.0
C2327 C 0.84094 0.867 0.01958 0.0
N2328 N 0.87778 0.87817 0.16721 0.0
N2329 N 0.84949 0.87571 0.04915 0.0
H2330 H 0.85709 0.14961 0.93682 0.0
H2331 H 0.86908 0.07743 0.77758 0.0
H2332 H 0.82734 0.11961 0.93051 0.0
H2333 H 0.89836 0.10791 0.77515 0.0
H2334 H 0.85358 0.09273 0.83378 0.0
H2335 H 0.87259 0.13434 0.88008 0.0
C2336 C 0.85391 0.13974 0.92385 0.0
C2337 C 0.84102 0.13577 0.93776 0.0
C2338 C 0.86337 0.09612 0.82075 0.0
C2339 C 0.85848 0.11837 0.87259 0.0
C2340 C 0.87216 0.08741 0.78868 0.0
C2341 C 0.88492 0.0915 0.77232 0.0
C2342 C 0.86743 0.10899 0.83654 0.0
C2343 C 0.88854 0.10448 0.78705 0.0
C2344 C 0.86269 0.13107 0.89117 0.0
C2345 C 0.83723 0.12297 0.91994 0.0
N2346 N 0.87984 0.11278 0.81874 0.0
N2347 N 0.84593 0.11471 0.88803 0.0
H2348 H 0.64474 0.14817 0.63908 0.0
H2349 H 0.62001 0.07463 0.66597 0.0
H2350 H 0.65604 0.11922 0.48097 0.0
H2351 H 0.59495 0.10712 0.72283 0.0
H2352 H 0.63614 0.09021 0.61727 0.0
H2353 H 0.62897 0.13248 0.69044 0.0
C2354 C 0.64385 0.13848 0.61542 0.0
C2355 C 0.65152 0.13487 0.55586 0.0
C2356 C 0.6271 0.09388 0.64048 0.0
C2357 C 0.6339 0.11698 0.61453 0.0
C2358 C 0.61792 0.08505 0.66797 0.0
C2359 C 0.60609 0.08965 0.69713 0.0
C2360 C 0.62453 0.10738 0.64416 0.0
C2361 C 0.60397 0.10322 0.70067 0.0
C2362 C 0.63489 0.12959 0.64446 0.0
C2363 C 0.65016 0.12227 0.52677 0.0
N2364 N 0.61314 0.11165 0.67458 0.0
N2365 N 0.64154 0.11368 0.55683 0.0
H2366 H 0.61567 0.91421 0.35411 0.0
H2367 H 0.6434 0.84154 0.3503 0.0
H2368 H 0.59428 0.88234 0.25575 0.0
H2369 H 0.65104 0.86798 0.52732 0.0
H2370 H 0.62766 0.85737 0.30055 0.0
H2371 H 0.63123 0.89831 0.40456 0.0
C2372 C 0.61427 0.90386 0.34321 0.0
C2373 C 0.6037 0.89953 0.30102 0.0
C2374 C 0.63275 0.85967 0.35039 0.0
C2375 C 0.6215 0.88144 0.35694 0.0
C2376 C 0.64171 0.85071 0.37851 0.0
C2377 C 0.64839 0.85356 0.44275 0.0
C2378 C 0.63071 0.87164 0.38622 0.0
C2379 C 0.64595 0.86549 0.47775 0.0
C2380 C 0.62312 0.89483 0.37189 0.0
C2381 C 0.60241 0.88606 0.28735 0.0
N2382 N 0.63735 0.8742 0.44864 0.0
N2383 N 0.61126 0.87746 0.31502 0.0
H2384 H 0.59073 0.59589 0.39586 0.0
H2385 H 0.66454 0.61997 0.41941 0.0
H2386 H 0.61941 0.58438 0.23683 0.0
H2387 H 0.63239 0.64528 0.47882 0.0
H2388 H 0.64873 0.60398 0.37159 0.0
H2389 H 0.60661 0.6115 0.44696 0.0
C2390 C 0.6004 0.5967 0.37197 0.0
C2391 C 0.60387 0.58901 0.31221 0.0
C2392 C 0.64518 0.61304 0.39516 0.0
C2393 C 0.62199 0.60645 0.37053 0.0
C2394 C 0.65414 0.62214 0.42212 0.0
C2395 C 0.6497 0.63399 0.45176 0.0
C2396 C 0.63171 0.61572 0.39981 0.0
C2397 C 0.63616 0.63622 0.45624 0.0
C2398 C 0.6094 0.60556 0.40085 0.0
C2399 C 0.61646 0.59027 0.2828 0.0
N2400 N 0.6276 0.62714 0.43062 0.0
N2401 N 0.62516 0.59879 0.31267 0.0
H2402 H 0.66626 0.37009 0.54618 0.0
H2403 H 0.62099 0.41674 0.66638 0.0
H2404 H 0.6332 0.34393 0.53073 0.0
H2405 H 0.59416 0.38428 0.68583 0.0
H2406 H 0.63726 0.40209 0.61373 0.0
H2407 H 0.65201 0.38696 0.59632 0.0
C2408 C 0.65591 0.36802 0.55282 0.0
C2409 C 0.65084 0.35568 0.53489 0.0
C2410 C 0.62797 0.39799 0.63047 0.0
C2411 C 0.63425 0.37501 0.59025 0.0
C2412 C 0.61864 0.40644 0.65993 0.0
C2413 C 0.6063 0.40165 0.67992 0.0
C2414 C 0.62495 0.38459 0.62191 0.0
C2415 C 0.60364 0.38828 0.67118 0.0
C2416 C 0.64769 0.3777 0.58091 0.0
C2417 C 0.63741 0.35339 0.54386 0.0
N2418 N 0.61289 0.38021 0.64258 0.0
N2419 N 0.62958 0.36295 0.57126 0.0
H2420 H 0.87422 0.41447 0.85461 0.0
H2421 H 0.84629 0.34187 0.85194 0.0
H2422 H 0.89573 0.38242 0.75886 0.0
H2423 H 0.83828 0.36858 0.02723 0.0
H2424 H 0.86221 0.35759 0.80267 0.0
H2425 H 0.85853 0.39868 0.90489 0.0
C2426 C 0.87562 0.4041 0.84433 0.0
C2427 C 0.88627 0.39968 0.80291 0.0
C2428 C 0.85699 0.35998 0.85202 0.0
C2429 C 0.8683 0.38171 0.85854 0.0
C2430 C 0.84793 0.35108 0.87984 0.0
C2431 C 0.8411 0.35404 0.94348 0.0
C2432 C 0.85898 0.37199 0.88751 0.0
C2433 C 0.84348 0.36601 0.97813 0.0
C2434 C 0.86669 0.39513 0.87287 0.0
C2435 C 0.88755 0.3862 0.78992 0.0
N2436 N 0.85219 0.37465 0.94931 0.0
N2437 N 0.87862 0.37765 0.81741 0.0
H2438 H 0.87459 0.57619 0.12851 0.0
H2439 H 0.84727 0.64896 0.12959 0.0
H2440 H 0.89645 0.60808 0.22341 0.0
H2441 H 0.83908 0.62217 0.95492 0.0
H2442 H 0.86319 0.63323 0.17872 0.0
H2443 H 0.8591 0.5921 0.0777 0.0
C2444 C 0.87611 0.58655 0.13852 0.0
C2445 C 0.8868 0.59088 0.17983 0.0
C2446 C 0.85795 0.63084 0.12948 0.0
C2447 C 0.86907 0.609 0.12353 0.0
C2448 C 0.84889 0.63974 0.10172 0.0
C2449 C 0.84199 0.63675 0.03836 0.0
C2450 C 0.85985 0.61879 0.09424 0.0
C2451 C 0.84433 0.62476 0.0038 0.0
C2452 C 0.8673 0.59559 0.10964 0.0
C2453 C 0.88824 0.60436 0.19245 0.0
N2454 N 0.85302 0.61611 0.0326 0.0
N2455 N 0.87942 0.61298 0.16463 0.0
H2456 H 0.35724 0.34126 0.53524 0.0
H2457 H 0.36991 0.41415 0.68249 0.0
H2458 H 0.32737 0.37112 0.5438 0.0
H2459 H 0.39906 0.38356 0.68747 0.0
H2460 H 0.35418 0.39861 0.63043 0.0
H2461 H 0.37296 0.35677 0.58789 0.0
C2462 C 0.35407 0.35114 0.54794 0.0
C2463 C 0.34109 0.35501 0.53576 0.0
C2464 C 0.36399 0.39525 0.64308 0.0
C2465 C 0.35882 0.37271 0.59612 0.0
C2466 C 0.37292 0.40411 0.67271 0.0
C2467 C 0.3857 0.40005 0.68866 0.0
C2468 C 0.36794 0.38228 0.6293 0.0
C2469 C 0.38923 0.38698 0.67578 0.0
C2470 C 0.36298 0.35996 0.57825 0.0
C2471 C 0.33733 0.36783 0.5531 0.0
N2472 N 0.38039 0.37854 0.64647 0.0
N2473 N 0.34616 0.37625 0.58258 0.0
H2474 H 0.36997 0.57499 0.29348 0.0
H2475 H 0.32366 0.62166 0.3988 0.0
H2476 H 0.39671 0.60759 0.27713 0.0
H2477 H 0.3569 0.64658 0.44173 0.0
H2478 H 0.33831 0.6053 0.34648 0.0
H2479 H 0.35334 0.58965 0.34319 0.0
C2480 C 0.37222 0.58532 0.29978 0.0
C2481 C 0.38464 0.59016 0.28162 0.0
C2482 C 0.34253 0.61416 0.36863 0.0
C2483 C 0.36561 0.60716 0.33611 0.0
C2484 C 0.33412 0.62356 0.39779 0.0
C2485 C 0.33916 0.63538 0.42454 0.0
C2486 C 0.35611 0.6166 0.36702 0.0
C2487 C 0.35271 0.63748 0.42209 0.0
C2488 C 0.36269 0.59375 0.32742 0.0
C2489 C 0.38718 0.60356 0.29037 0.0
N2490 N 0.36074 0.62819 0.39354 0.0
N2491 N 0.37775 0.6116 0.31741 0.0
H2492 H 0.11946 0.58633 0.26416 0.0
H2493 H 0.13263 0.64757 0.01159 0.0
H2494 H 0.09097 0.59869 0.10611 0.0
H2495 H 0.16365 0.62063 0.06709 0.0
H2496 H 0.11658 0.63209 0.06188 0.0
H2497 H 0.13548 0.60159 0.21047 0.0
C2498 C 0.11661 0.59237 0.21855 0.0
C2499 C 0.104 0.59141 0.18919 0.0
C2500 C 0.12691 0.62959 0.06289 0.0
C2501 C 0.12198 0.60873 0.12854 0.0
C2502 C 0.13602 0.63836 0.03409 0.0
C2503 C 0.14943 0.63537 0.03614 0.0
C2504 C 0.13131 0.61793 0.09503 0.0
C2505 C 0.15339 0.62338 0.06614 0.0
C2506 C 0.1257 0.60095 0.18779 0.0
C2507 C 0.10066 0.59927 0.12992 0.0
N2508 N 0.14437 0.61513 0.09535 0.0
N2509 N 0.10959 0.60772 0.10166 0.0
H2510 H 0.13244 0.34244 0.96509 0.0
H2511 H 0.11896 0.40352 0.71167 0.0
H2512 H 0.16353 0.36894 0.90441 0.0
H2513 H 0.09094 0.39155 0.8733 0.0
H2514 H 0.13502 0.38815 0.76379 0.0
H2515 H 0.11638 0.35798 0.91572 0.0
C2516 C 0.13585 0.35156 0.9416 0.0
C2517 C 0.14928 0.35441 0.93791 0.0
C2518 C 0.12534 0.3889 0.7876 0.0
C2519 C 0.13113 0.37193 0.88009 0.0
C2520 C 0.11622 0.39755 0.75775 0.0
C2521 C 0.10374 0.39865 0.78857 0.0
C2522 C 0.12176 0.38119 0.84744 0.0
C2523 C 0.10053 0.39086 0.84839 0.0
C2524 C 0.12672 0.36037 0.91334 0.0
C2525 C 0.15325 0.3663 0.90667 0.0
N2526 N 0.10948 0.38234 0.87576 0.0
N2527 N 0.14421 0.37459 0.87806 0.0
loop_
_geom_bond_atom_site_label_1
_geom_bond_atom_site_label_2
_geom_bond_distance
_geom_bond_site_symmetry_2
_ccdc_geom_bond_type
Co0 O3 1.970 . S
Co0 N17 1.989 . S
Co0 O25 1.967 . S
Co0 O32 1.920 . S
Co1 O4 1.966 . S
Co1 N10 2.022 . S
Co1 N18 1.993 . S
Co1 O26 1.941 . S
C2 O3 1.258 . S
C2 O4 1.263 1_554 S
O3 Co0 1.970 . S
O3 C2 1.258 . S
O4 Co1 1.966 . S
O4 C2 1.263 1_556 S
C5 O6 1.235 . S
C5 O32 1.289 . S
O6 C5 1.235 . S
C7 C9 1.400 . S
C7 N10 1.351 . S
C7 C12 1.501 . S
C8 C9 1.387 . S
C8 N11 1.341 . S
C9 C7 1.400 . S
C9 C8 1.387 . S
N10 Co1 2.022 . S
N10 C7 1.351 . S
N10 N11 1.365 . S
N11 C8 1.341 . S
N11 N10 1.365 . S
N11 H31 0.862 . S
C12 C7 1.501 . S
C12 H13 0.961 . S
C12 H14 0.961 . S
C12 H15 0.960 . S
H13 C12 0.961 . S
H14 C12 0.961 . S
H15 C12 0.960 . S
C16 N17 1.342 . S
C16 C20 1.401 1_554 S
C16 C21 1.499 . S
N17 Co0 1.989 . S
N17 C16 1.342 . S
N17 N18 1.388 1_554 S
N18 Co1 1.993 . S
N18 N17 1.388 1_556 S
N18 C19 1.346 . S
C19 N18 1.346 . S
C19 C20 1.396 . S
C19 C29 1.510 . S
C20 C16 1.401 1_556 S
C20 C19 1.396 . S
C21 C16 1.499 . S
C21 H22 0.959 . S
C21 H23 0.960 . S
C21 H24 0.961 . S
H22 C21 0.959 . S
H23 C21 0.960 . S
H24 C21 0.961 . S
O25 Co0 1.967 . S
O25 C33 1.258 . S
O26 Co1 1.941 . S
O26 C33 1.266 1_556 S
H27 C29 0.959 . S
H28 C29 0.961 . S
C29 C19 1.510 . S
C29 H27 0.959 . S
C29 H28 0.961 . S
C29 H30 0.960 . S
H30 C29 0.960 . S
H31 N11 0.862 . S
O32 Co0 1.920 . S
O32 C5 1.289 . S
C33 O25 1.258 . S
C33 O26 1.266 1_554 S
Co34 O37 1.970 . S
Co34 N51 1.989 . S
Co34 O59 1.967 . S
Co34 O66 1.920 . S
Co35 O38 1.966 . S
Co35 N44 2.022 . S
Co35 N52 1.993 . S
Co35 O60 1.941 . S
C36 O37 1.258 . S
C36 O38 1.263 . S
O37 Co34 1.970 . S
O37 C36 1.258 . S
O38 Co35 1.966 . S
O38 C36 1.263 . S
C39 O40 1.235 . S
C39 O66 1.289 . S
O40 C39 1.235 . S
C41 C43 1.400 1_554 S
C41 N44 1.351 . S
C41 C46 1.501 . S
C42 C43 1.387 . S
C42 N45 1.341 1_556 S
C43 C41 1.400 1_556 S
C43 C42 1.387 . S
N44 Co35 2.022 . S
N44 C41 1.351 . S
N44 N45 1.365 . S
N45 C42 1.341 1_554 S
N45 N44 1.365 . S
N45 H65 0.862 . S
C46 C41 1.501 . S
C46 H47 0.961 . S
C46 H48 0.961 . S
C46 H49 0.960 . S
H47 C46 0.961 . S
H48 C46 0.961 . S
H49 C46 0.960 . S
C50 N51 1.342 . S
C50 C54 1.401 . S
C50 C55 1.499 . S
N51 Co34 1.989 . S
N51 C50 1.342 . S
N51 N52 1.388 . S
N52 Co35 1.993 . S
N52 N51 1.388 . S
N52 C53 1.346 . S
C53 N52 1.346 . S
C53 C54 1.396 . S
C53 C63 1.510 . S
C54 C50 1.401 . S
C54 C53 1.396 . S
C55 C50 1.499 . S
C55 H56 0.959 . S
C55 H57 0.960 . S
C55 H58 0.961 . S
H56 C55 0.959 . S
H57 C55 0.960 . S
H58 C55 0.961 . S
O59 Co34 1.967 . S
O59 C67 1.258 . S
O60 Co35 1.941 . S
O60 C67 1.266 . S
H61 C63 0.959 . S
H62 C63 0.961 . S
C63 C53 1.510 . S
C63 H61 0.959 . S
C63 H62 0.961 . S
C63 H64 0.960 . S
H64 C63 0.960 . S
H65 N45 0.862 . S
O66 Co34 1.920 . S
O66 C39 1.289 . S
C67 O59 1.258 . S
C67 O60 1.266 . S
Co68 O71 1.970 . S
Co68 N85 1.989 . S
Co68 O93 1.967 . S
Co68 O100 1.920 . S
Co69 O72 1.966 . S
Co69 N78 2.022 . S
Co69 N86 1.993 . S
Co69 O94 1.941 . S
C70 O71 1.258 . S
C70 O72 1.263 . S
O71 Co68 1.970 . S
O71 C70 1.258 . S
O72 Co69 1.966 . S
O72 C70 1.263 . S
C73 O74 1.235 . S
C73 O100 1.289 . S
O74 C73 1.235 . S
C75 C77 1.400 . S
C75 N78 1.351 . S
C75 C80 1.501 . S
C76 C77 1.387 . S
C76 N79 1.341 . S
C77 C75 1.400 . S
C77 C76 1.387 . S
N78 Co69 2.022 . S
N78 C75 1.351 . S
N78 N79 1.365 . S
N79 C76 1.341 . S
N79 N78 1.365 . S
N79 H99 0.862 . S
C80 C75 1.501 . S
C80 H81 0.961 . S
C80 H82 0.961 . S
C80 H83 0.960 . S
H81 C80 0.961 . S
H82 C80 0.961 . S
H83 C80 0.960 . S
C84 N85 1.342 . S
C84 C88 1.401 . S
C84 C89 1.499 . S
N85 Co68 1.989 . S
N85 C84 1.342 . S
N85 N86 1.388 . S
N86 Co69 1.993 . S
N86 N85 1.388 . S
N86 C87 1.346 . S
C87 N86 1.346 . S
C87 C88 1.396 . S
C87 C97 1.510 . S
C88 C84 1.401 . S
C88 C87 1.396 . S
C89 C84 1.499 . S
C89 H90 0.959 . S
C89 H91 0.960 . S
C89 H92 0.961 . S
H90 C89 0.959 . S
H91 C89 0.960 . S
H92 C89 0.961 . S
O93 Co68 1.967 . S
O93 C101 1.258 . S
O94 Co69 1.941 . S
O94 C101 1.266 . S
H95 C97 0.959 . S
H96 C97 0.961 . S
C97 C87 1.510 . S
C97 H95 0.959 . S
C97 H96 0.961 . S
C97 H98 0.960 . S
H98 C97 0.960 . S
H99 N79 0.862 . S
O100 Co68 1.920 . S
O100 C73 1.289 . S
C101 O93 1.258 . S
C101 O94 1.266 . S
Co102 O105 1.970 . S
Co102 N119 1.989 . S
Co102 O127 1.967 . S
Co102 O134 1.920 . S
Co103 O106 1.966 . S
Co103 N112 2.022 . S
Co103 N120 1.993 . S
Co103 O128 1.941 . S
C104 O105 1.258 . S
C104 O106 1.263 . S
O105 Co102 1.970 . S
O105 C104 1.258 . S
O106 Co103 1.966 . S
O106 C104 1.263 . S
C107 O108 1.242 . S
C107 O134 1.294 . S
O108 C107 1.242 . S
C109 C111 1.400 . S
C109 N112 1.351 . S
C109 C114 1.501 . S
C110 C111 1.387 . S
C110 N113 1.341 . S
C111 C109 1.400 . S
C111 C110 1.387 . S
N112 Co103 2.022 . S
N112 C109 1.351 . S
N112 N113 1.365 . S
N113 C110 1.341 . S
N113 N112 1.365 . S
N113 H133 0.862 . S
C114 C109 1.501 . S
C114 H115 0.961 . S
C114 H116 0.961 . S
C114 H117 0.960 . S
H115 C114 0.961 . S
H116 C114 0.961 . S
H117 C114 0.960 . S
C118 N119 1.342 . S
C118 C122 1.401 . S
C118 C123 1.499 . S
N119 Co102 1.989 . S
N119 C118 1.342 . S
N119 N120 1.388 . S
N120 Co103 1.993 . S
N120 N119 1.388 . S
N120 C121 1.346 . S
C121 N120 1.346 . S
C121 C122 1.396 . S
C121 C131 1.510 . S
C122 C118 1.401 . S
C122 C121 1.396 . S
C123 C118 1.499 . S
C123 H124 0.959 . S
C123 H125 0.960 . S
C123 H126 0.961 . S
H124 C123 0.959 . S
H125 C123 0.960 . S
H126 C123 0.961 . S
O127 Co102 1.967 . S
O127 C135 1.258 . S
O128 Co103 1.941 . S
O128 C135 1.266 . S
H129 C131 0.959 . S
H130 C131 0.961 . S
C131 C121 1.510 . S
C131 H129 0.959 . S
C131 H130 0.961 . S
C131 H132 0.960 . S
H132 C131 0.960 . S
H133 N113 0.862 . S
O134 Co102 1.920 . S
O134 C107 1.294 . S
C135 O127 1.258 . S
C135 O128 1.266 . S
Co136 O139 1.970 . S
Co136 N153 1.989 . S
Co136 O161 1.967 . S
Co136 O168 1.920 . S
Co137 O140 1.966 . S
Co137 N146 2.022 . S
Co137 N154 1.993 . S
Co137 O162 1.941 . S
C138 O139 1.258 . S
C138 O140 1.263 1_556 S
O139 Co136 1.970 . S
O139 C138 1.258 . S
O140 Co137 1.966 . S
O140 C138 1.263 1_554 S
C141 O142 1.235 . S
C141 O168 1.289 . S
O142 C141 1.235 . S
C143 C145 1.400 . S
C143 N146 1.351 . S
C143 C148 1.501 . S
C144 C145 1.387 . S
C144 N147 1.341 . S
C145 C143 1.400 . S
C145 C144 1.387 . S
N146 Co137 2.022 . S
N146 C143 1.351 . S
N146 N147 1.365 . S
N147 C144 1.341 . S
N147 N146 1.365 . S
N147 H167 0.862 . S
C148 C143 1.501 . S
C148 H149 0.961 . S
C148 H150 0.961 . S
C148 H151 0.960 . S
H149 C148 0.961 . S
H150 C148 0.961 . S
H151 C148 0.960 . S
C152 N153 1.342 . S
C152 C156 1.401 1_556 S
C152 C157 1.499 . S
N153 Co136 1.989 . S
N153 C152 1.342 . S
N153 N154 1.388 1_556 S
N154 Co137 1.993 . S
N154 N153 1.388 1_554 S
N154 C155 1.346 . S
C155 N154 1.346 . S
C155 C156 1.396 . S
C155 C165 1.510 . S
C156 C152 1.401 1_554 S
C156 C155 1.396 . S
C157 C152 1.499 . S
C157 H158 0.959 . S
C157 H159 0.960 . S
C157 H160 0.961 . S
H158 C157 0.959 . S
H159 C157 0.960 . S
H160 C157 0.961 . S
O161 Co136 1.967 . S
O161 C169 1.258 . S
O162 Co137 1.941 . S
O162 C169 1.266 1_554 S
H163 C165 0.959 . S
H164 C165 0.961 . S
C165 C155 1.510 . S
C165 H163 0.959 . S
C165 H164 0.961 . S
C165 H166 0.960 . S
H166 C165 0.960 . S
H167 N147 0.862 . S
O168 Co136 1.920 . S
O168 C141 1.289 . S
C169 O161 1.258 . S
C169 O162 1.266 1_556 S
Co170 O173 1.970 . S
Co170 N187 1.989 . S
Co170 O195 1.967 . S
Co170 O202 1.920 . S
Co171 O174 1.966 . S
Co171 N180 2.022 . S
Co171 N188 1.993 . S
Co171 O196 1.941 . S
C172 O173 1.258 . S
C172 O174 1.263 . S
O173 Co170 1.970 . S
O173 C172 1.258 . S
O174 Co171 1.966 . S
O174 C172 1.263 . S
C175 O176 1.242 . S
C175 O202 1.294 . S
O176 C175 1.242 . S
C177 C179 1.400 . S
C177 N180 1.351 . S
C177 C182 1.501 . S
C178 C179 1.387 . S
C178 N181 1.341 . S
C179 C177 1.400 . S
C179 C178 1.387 . S
N180 Co171 2.022 . S
N180 C177 1.351 . S
N180 N181 1.365 . S
N181 C178 1.341 . S
N181 N180 1.365 . S
N181 H201 0.862 . S
C182 C177 1.501 . S
C182 H183 0.961 . S
C182 H184 0.961 . S
C182 H185 0.960 . S
H183 C182 0.961 . S
H184 C182 0.961 . S
H185 C182 0.960 . S
C186 N187 1.342 . S
C186 C190 1.401 . S
C186 C191 1.499 . S
N187 Co170 1.989 . S
N187 C186 1.342 . S
N187 N188 1.388 . S
N188 Co171 1.993 . S
N188 N187 1.388 . S
N188 C189 1.346 . S
C189 N188 1.346 . S
C189 C190 1.396 . S
C189 C199 1.510 . S
C190 C186 1.401 . S
C190 C189 1.396 . S
C191 C186 1.499 . S
C191 H192 0.959 . S
C191 H193 0.960 . S
C191 H194 0.961 . S
H192 C191 0.959 . S
H193 C191 0.960 . S
H194 C191 0.961 . S
O195 Co170 1.967 . S
O195 C203 1.258 . S
O196 Co171 1.941 . S
O196 C203 1.266 . S
H197 C199 0.959 . S
H198 C199 0.961 . S
C199 C189 1.510 . S
C199 H197 0.959 . S
C199 H198 0.961 . S
C199 H200 0.960 . S
H200 C199 0.960 . S
H201 N181 0.862 . S
O202 Co170 1.920 . S
O202 C175 1.294 . S
C203 O195 1.258 . S
C203 O196 1.266 . S
Co204 O207 1.970 . S
Co204 N221 1.989 . S
Co204 O229 1.967 . S
Co204 O236 1.920 . S
Co205 O208 1.966 . S
Co205 N214 2.022 . S
Co205 N222 1.993 . S
Co205 O230 1.941 . S
C206 O207 1.258 . S
C206 O208 1.263 . S
O207 Co204 1.970 . S
O207 C206 1.258 . S
O208 Co205 1.966 . S
O208 C206 1.263 . S
C209 O210 1.235 . S
C209 O236 1.289 . S
O210 C209 1.235 . S
C211 C213 1.400 . S
C211 N214 1.351 . S
C211 C216 1.501 . S
C212 C213 1.387 . S
C212 N215 1.341 . S
C213 C211 1.400 . S
C213 C212 1.387 . S
N214 Co205 2.022 . S
N214 C211 1.351 . S
N214 N215 1.365 . S
N215 C212 1.341 . S
N215 N214 1.365 . S
N215 H235 0.862 . S
C216 C211 1.501 . S
C216 H217 0.961 . S
C216 H218 0.961 . S
C216 H219 0.960 . S
H217 C216 0.961 . S
H218 C216 0.961 . S
H219 C216 0.960 . S
C220 N221 1.342 . S
C220 C224 1.401 . S
C220 C225 1.499 . S
N221 Co204 1.989 . S
N221 C220 1.342 . S
N221 N222 1.388 . S
N222 Co205 1.993 . S
N222 N221 1.388 . S
N222 C223 1.346 . S
C223 N222 1.346 . S
C223 C224 1.396 . S
C223 C233 1.510 . S
C224 C220 1.401 . S
C224 C223 1.396 . S
C225 C220 1.499 . S
C225 H226 0.959 . S
C225 H227 0.960 . S
C225 H228 0.961 . S
H226 C225 0.959 . S
H227 C225 0.960 . S
H228 C225 0.961 . S
O229 Co204 1.967 . S
O229 C237 1.258 . S
O230 Co205 1.941 . S
O230 C237 1.266 . S
H231 C233 0.959 . S
H232 C233 0.961 . S
C233 C223 1.510 . S
C233 H231 0.959 . S
C233 H232 0.961 . S
C233 H234 0.960 . S
H234 C233 0.960 . S
H235 N215 0.862 . S
O236 Co204 1.920 . S
O236 C209 1.289 . S
C237 O229 1.258 . S
C237 O230 1.266 . S
Co238 O241 1.970 . S
Co238 N255 1.989 . S
Co238 O263 1.967 . S
Co238 O270 1.920 . S
Co239 O242 1.966 . S
Co239 N248 2.022 . S
Co239 N256 1.993 . S
Co239 O264 1.941 . S
C240 O241 1.258 . S
C240 O242 1.263 . S
O241 Co238 1.970 . S
O241 C240 1.258 . S
O242 Co239 1.966 . S
O242 C240 1.263 . S
C243 O244 1.235 . S
C243 O270 1.289 . S
O244 C243 1.235 . S
C245 C247 1.400 1_556 S
C245 N248 1.351 . S
C245 C250 1.501 . S
C246 C247 1.387 . S
C246 N249 1.341 1_554 S
C247 C245 1.400 1_554 S
C247 C246 1.387 . S
N248 Co239 2.022 . S
N248 C245 1.351 . S
N248 N249 1.365 . S
N249 C246 1.341 1_556 S
N249 N248 1.365 . S
N249 H269 0.862 . S
C250 C245 1.501 . S
C250 H251 0.961 . S
C250 H252 0.961 . S
C250 H253 0.960 . S
H251 C250 0.961 . S
H252 C250 0.961 . S
H253 C250 0.960 . S
C254 N255 1.342 . S
C254 C258 1.401 . S
C254 C259 1.499 . S
N255 Co238 1.989 . S
N255 C254 1.342 . S
N255 N256 1.388 . S
N256 Co239 1.993 . S
N256 N255 1.388 . S
N256 C257 1.346 . S
C257 N256 1.346 . S
C257 C258 1.396 . S
C257 C267 1.510 . S
C258 C254 1.401 . S
C258 C257 1.396 . S
C259 C254 1.499 . S
C259 H260 0.959 . S
C259 H261 0.960 . S
C259 H262 0.961 . S
H260 C259 0.959 . S
H261 C259 0.960 . S
H262 C259 0.961 . S
O263 Co238 1.967 . S
O263 C271 1.258 . S
O264 Co239 1.941 . S
O264 C271 1.266 . S
H265 C267 0.959 . S
H266 C267 0.961 . S
C267 C257 1.510 . S
C267 H265 0.959 . S
C267 H266 0.961 . S
C267 H268 0.960 . S
H268 C267 0.960 . S
H269 N249 0.862 . S
O270 Co238 1.920 . S
O270 C243 1.289 . S
C271 O263 1.258 . S
C271 O264 1.266 . S
Co272 O275 1.970 . S
Co272 N289 1.989 . S
Co272 O297 1.967 . S
Co272 O304 1.920 . S
Co273 O276 1.966 . S
Co273 N282 2.022 . S
Co273 N290 1.993 . S
Co273 O298 1.941 . S
C274 O275 1.258 . S
C274 O276 1.263 1_556 S
O275 Co272 1.970 . S
O275 C274 1.258 . S
O276 Co273 1.966 . S
O276 C274 1.263 1_554 S
C277 O278 1.235 . S
C277 O304 1.289 . S
O278 C277 1.235 . S
C279 C281 1.400 . S
C279 N282 1.351 . S
C279 C284 1.501 . S
C280 C281 1.387 . S
C280 N283 1.341 . S
C281 C279 1.400 . S
C281 C280 1.387 . S
N282 Co273 2.022 . S
N282 C279 1.351 . S
N282 N283 1.365 . S
N283 C280 1.341 . S
N283 N282 1.365 . S
N283 H303 0.862 . S
C284 C279 1.501 . S
C284 H285 0.961 . S
C284 H286 0.961 . S
C284 H287 0.960 . S
H285 C284 0.961 . S
H286 C284 0.961 . S
H287 C284 0.960 . S
C288 N289 1.342 . S
C288 C292 1.401 1_556 S
C288 C293 1.499 . S
N289 Co272 1.989 . S
N289 C288 1.342 . S
N289 N290 1.388 1_556 S
N290 Co273 1.993 . S
N290 N289 1.388 1_554 S
N290 C291 1.346 . S
C291 N290 1.346 . S
C291 C292 1.396 . S
C291 C301 1.510 . S
C292 C288 1.401 1_554 S
C292 C291 1.396 . S
C293 C288 1.499 . S
C293 H294 0.959 . S
C293 H295 0.960 . S
C293 H296 0.961 . S
H294 C293 0.959 . S
H295 C293 0.960 . S
H296 C293 0.961 . S
O297 Co272 1.967 . S
O297 C305 1.258 . S
O298 Co273 1.941 . S
O298 C305 1.266 1_554 S
H299 C301 0.959 . S
H300 C301 0.961 . S
C301 C291 1.510 . S
C301 H299 0.959 . S
C301 H300 0.961 . S
C301 H302 0.960 . S
H302 C301 0.960 . S
H303 N283 0.862 . S
O304 Co272 1.920 . S
O304 C277 1.289 . S
C305 O297 1.258 . S
C305 O298 1.266 1_556 S
Co306 O309 1.970 . S
Co306 N323 1.989 . S
Co306 O331 1.967 . S
Co306 O338 1.920 . S
Co307 O310 1.966 . S
Co307 N316 2.022 . S
Co307 N324 1.993 . S
Co307 O332 1.941 . S
C308 O309 1.258 . S
C308 O310 1.263 . S
O309 Co306 1.970 . S
O309 C308 1.258 . S
O310 Co307 1.966 . S
O310 C308 1.263 . S
C311 O312 1.235 . S
C311 O338 1.289 . S
O312 C311 1.235 . S
C313 C315 1.400 1_556 S
C313 N316 1.351 . S
C313 C318 1.501 . S
C314 C315 1.387 . S
C314 N317 1.341 1_554 S
C315 C313 1.400 1_554 S
C315 C314 1.387 . S
N316 Co307 2.022 . S
N316 C313 1.351 . S
N316 N317 1.365 . S
N317 C314 1.341 1_556 S
N317 N316 1.365 . S
N317 H337 0.862 . S
C318 C313 1.501 . S
C318 H319 0.961 . S
C318 H320 0.961 . S
C318 H321 0.960 . S
H319 C318 0.961 . S
H320 C318 0.961 . S
H321 C318 0.960 . S
C322 N323 1.342 . S
C322 C326 1.401 . S
C322 C327 1.499 . S
N323 Co306 1.989 . S
N323 C322 1.342 . S
N323 N324 1.388 . S
N324 Co307 1.993 . S
N324 N323 1.388 . S
N324 C325 1.346 . S
C325 N324 1.346 . S
C325 C326 1.396 . S
C325 C335 1.510 . S
C326 C322 1.401 . S
C326 C325 1.396 . S
C327 C322 1.499 . S
C327 H328 0.959 . S
C327 H329 0.960 . S
C327 H330 0.961 . S
H328 C327 0.959 . S
H329 C327 0.960 . S
H330 C327 0.961 . S
O331 Co306 1.967 . S
O331 C339 1.258 . S
O332 Co307 1.941 . S
O332 C339 1.266 . S
H333 C335 0.959 . S
H334 C335 0.961 . S
C335 C325 1.510 . S
C335 H333 0.959 . S
C335 H334 0.961 . S
C335 H336 0.960 . S
H336 C335 0.960 . S
H337 N317 0.862 . S
O338 Co306 1.920 . S
O338 C311 1.289 . S
C339 O331 1.258 . S
C339 O332 1.266 . S
Co340 O343 1.970 . S
Co340 N357 1.989 . S
Co340 O365 1.967 . S
Co340 O372 1.920 . S
Co341 O344 1.966 . S
Co341 N350 2.022 . S
Co341 N358 1.993 . S
Co341 O366 1.941 . S
C342 O343 1.258 . S
C342 O344 1.263 . S
O343 Co340 1.970 . S
O343 C342 1.258 . S
O344 Co341 1.966 . S
O344 C342 1.263 . S
C345 O346 1.235 . S
C345 O372 1.289 . S
O346 C345 1.235 . S
C347 C349 1.400 . S
C347 N350 1.351 . S
C347 C352 1.501 . S
C348 C349 1.387 . S
C348 N351 1.341 . S
C349 C347 1.400 . S
C349 C348 1.387 . S
N350 Co341 2.022 . S
N350 C347 1.351 . S
N350 N351 1.365 . S
N351 C348 1.341 . S
N351 N350 1.365 . S
N351 H371 0.862 . S
C352 C347 1.501 . S
C352 H353 0.961 . S
C352 H354 0.961 . S
C352 H355 0.960 . S
H353 C352 0.961 . S
H354 C352 0.961 . S
H355 C352 0.960 . S
C356 N357 1.342 . S
C356 C360 1.401 . S
C356 C361 1.499 . S
N357 Co340 1.989 . S
N357 C356 1.342 . S
N357 N358 1.388 . S
N358 Co341 1.993 . S
N358 N357 1.388 . S
N358 C359 1.346 . S
C359 N358 1.346 . S
C359 C360 1.396 . S
C359 C369 1.510 . S
C360 C356 1.401 . S
C360 C359 1.396 . S
C361 C356 1.499 . S
C361 H362 0.959 . S
C361 H363 0.960 . S
C361 H364 0.961 . S
H362 C361 0.959 . S
H363 C361 0.960 . S
H364 C361 0.961 . S
O365 Co340 1.967 . S
O365 C373 1.258 . S
O366 Co341 1.941 . S
O366 C373 1.266 . S
H367 C369 0.959 . S
H368 C369 0.961 . S
C369 C359 1.510 . S
C369 H367 0.959 . S
C369 H368 0.961 . S
C369 H370 0.960 . S
H370 C369 0.960 . S
H371 N351 0.862 . S
O372 Co340 1.920 . S
O372 C345 1.289 . S
C373 O365 1.258 . S
C373 O366 1.266 . S
Co374 O377 1.970 . S
Co374 N391 1.989 . S
Co374 O399 1.967 . S
Co374 O406 1.920 . S
Co375 O378 1.966 . S
Co375 N384 2.022 . S
Co375 N392 1.993 . S
Co375 O400 1.941 . S
C376 O377 1.258 . S
C376 O378 1.263 . S
O377 Co374 1.970 . S
O377 C376 1.258 . S
O378 Co375 1.966 . S
O378 C376 1.263 . S
C379 O380 1.242 . S
C379 O406 1.294 . S
O380 C379 1.242 . S
C381 C383 1.400 . S
C381 N384 1.351 . S
C381 C386 1.501 . S
C382 C383 1.387 . S
C382 N385 1.341 . S
C383 C381 1.400 . S
C383 C382 1.387 . S
N384 Co375 2.022 . S
N384 C381 1.351 . S
N384 N385 1.365 . S
N385 C382 1.341 . S
N385 N384 1.365 . S
N385 H405 0.862 . S
C386 C381 1.501 . S
C386 H387 0.961 . S
C386 H388 0.961 . S
C386 H389 0.960 . S
H387 C386 0.961 . S
H388 C386 0.961 . S
H389 C386 0.960 . S
C390 N391 1.342 . S
C390 C394 1.401 . S
C390 C395 1.499 . S
N391 Co374 1.989 . S
N391 C390 1.342 . S
N391 N392 1.388 . S
N392 Co375 1.993 . S
N392 N391 1.388 . S
N392 C393 1.346 . S
C393 N392 1.346 . S
C393 C394 1.396 . S
C393 C403 1.510 . S
C394 C390 1.401 . S
C394 C393 1.396 . S
C395 C390 1.499 . S
C395 H396 0.959 . S
C395 H397 0.960 . S
C395 H398 0.961 . S
H396 C395 0.959 . S
H397 C395 0.960 . S
H398 C395 0.961 . S
O399 Co374 1.967 . S
O399 C407 1.258 . S
O400 Co375 1.941 . S
O400 C407 1.266 . S
H401 C403 0.959 . S
H402 C403 0.961 . S
C403 C393 1.510 . S
C403 H401 0.959 . S
C403 H402 0.961 . S
C403 H404 0.960 . S
H404 C403 0.960 . S
H405 N385 0.862 . S
O406 Co374 1.920 . S
O406 C379 1.294 . S
C407 O399 1.258 . S
C407 O400 1.266 . S
Co408 O411 1.970 . S
Co408 N425 1.989 . S
Co408 O433 1.967 . S
Co408 O440 1.920 . S
Co409 O412 1.966 . S
Co409 N418 2.022 . S
Co409 N426 1.993 . S
Co409 O434 1.941 . S
C410 O411 1.258 . S
C410 O412 1.263 1_554 S
O411 Co408 1.970 . S
O411 C410 1.258 . S
O412 Co409 1.966 . S
O412 C410 1.263 1_556 S
C413 O414 1.235 . S
C413 O440 1.289 . S
O414 C413 1.235 . S
C415 C417 1.400 . S
C415 N418 1.351 . S
C415 C420 1.501 . S
C416 C417 1.387 . S
C416 N419 1.341 . S
C417 C415 1.400 . S
C417 C416 1.387 . S
N418 Co409 2.022 . S
N418 C415 1.351 . S
N418 N419 1.365 . S
N419 C416 1.341 . S
N419 N418 1.365 . S
N419 H439 0.862 . S
C420 C415 1.501 . S
C420 H421 0.961 . S
C420 H422 0.961 . S
C420 H423 0.960 . S
H421 C420 0.961 . S
H422 C420 0.961 . S
H423 C420 0.960 . S
C424 N425 1.342 . S
C424 C428 1.401 1_554 S
C424 C429 1.499 . S
N425 Co408 1.989 . S
N425 C424 1.342 . S
N425 N426 1.388 1_554 S
N426 Co409 1.993 . S
N426 N425 1.388 1_556 S
N426 C427 1.346 . S
C427 N426 1.346 . S
C427 C428 1.396 . S
C427 C437 1.510 . S
C428 C424 1.401 1_556 S
C428 C427 1.396 . S
C429 C424 1.499 . S
C429 H430 0.959 . S
C429 H431 0.960 . S
C429 H432 0.961 . S
H430 C429 0.959 . S
H431 C429 0.960 . S
H432 C429 0.961 . S
O433 Co408 1.967 . S
O433 C441 1.258 . S
O434 Co409 1.941 . S
O434 C441 1.266 1_556 S
H435 C437 0.959 . S
H436 C437 0.961 . S
C437 C427 1.510 . S
C437 H435 0.959 . S
C437 H436 0.961 . S
C437 H438 0.960 . S
H438 C437 0.960 . S
H439 N419 0.862 . S
O440 Co408 1.920 . S
O440 C413 1.289 . S
C441 O433 1.258 . S
C441 O434 1.266 1_554 S
Co442 O445 1.970 . S
Co442 N459 1.989 . S
Co442 O467 1.967 . S
Co442 O474 1.920 . S
Co443 O446 1.966 . S
Co443 N452 2.022 . S
Co443 N460 1.993 . S
Co443 O468 1.941 . S
C444 O445 1.258 . S
C444 O446 1.263 . S
O445 Co442 1.970 . S
O445 C444 1.258 . S
O446 Co443 1.966 . S
O446 C444 1.263 . S
C447 O448 1.242 . S
C447 O474 1.294 . S
O448 C447 1.242 . S
C449 C451 1.400 . S
C449 N452 1.351 . S
C449 C454 1.501 . S
C450 C451 1.387 . S
C450 N453 1.341 . S
C451 C449 1.400 . S
C451 C450 1.387 . S
N452 Co443 2.022 . S
N452 C449 1.351 . S
N452 N453 1.365 . S
N453 C450 1.341 . S
N453 N452 1.365 . S
N453 H473 0.862 . S
C454 C449 1.501 . S
C454 H455 0.961 . S
C454 H456 0.961 . S
C454 H457 0.960 . S
H455 C454 0.961 . S
H456 C454 0.961 . S
H457 C454 0.960 . S
C458 N459 1.342 . S
C458 C462 1.401 . S
C458 C463 1.499 . S
N459 Co442 1.989 . S
N459 C458 1.342 . S
N459 N460 1.388 . S
N460 Co443 1.993 . S
N460 N459 1.388 . S
N460 C461 1.346 . S
C461 N460 1.346 . S
C461 C462 1.396 . S
C461 C471 1.510 . S
C462 C458 1.401 . S
C462 C461 1.396 . S
C463 C458 1.499 . S
C463 H464 0.959 . S
C463 H465 0.960 . S
C463 H466 0.961 . S
H464 C463 0.959 . S
H465 C463 0.960 . S
H466 C463 0.961 . S
O467 Co442 1.967 . S
O467 C475 1.258 . S
O468 Co443 1.941 . S
O468 C475 1.266 . S
H469 C471 0.959 . S
H470 C471 0.961 . S
C471 C461 1.510 . S
C471 H469 0.959 . S
C471 H470 0.961 . S
C471 H472 0.960 . S
H472 C471 0.960 . S
H473 N453 0.862 . S
O474 Co442 1.920 . S
O474 C447 1.294 . S
C475 O467 1.258 . S
C475 O468 1.266 . S
Co476 O479 1.970 . S
Co476 N493 1.989 . S
Co476 O501 1.967 . S
Co476 O508 1.920 . S
Co477 O480 1.966 . S
Co477 N486 2.022 . S
Co477 N494 1.993 . S
Co477 O502 1.941 . S
C478 O479 1.258 . S
C478 O480 1.263 . S
O479 Co476 1.970 . S
O479 C478 1.258 . S
O480 Co477 1.966 . S
O480 C478 1.263 . S
C481 O482 1.235 . S
C481 O508 1.289 . S
O482 C481 1.235 . S
C483 C485 1.400 . S
C483 N486 1.351 . S
C483 C488 1.501 . S
C484 C485 1.387 . S
C484 N487 1.341 . S
C485 C483 1.400 . S
C485 C484 1.387 . S
N486 Co477 2.022 . S
N486 C483 1.351 . S
N486 N487 1.365 . S
N487 C484 1.341 . S
N487 N486 1.365 . S
N487 H507 0.862 . S
C488 C483 1.501 . S
C488 H489 0.961 . S
C488 H490 0.961 . S
C488 H491 0.960 . S
H489 C488 0.961 . S
H490 C488 0.961 . S
H491 C488 0.960 . S
C492 N493 1.342 . S
C492 C496 1.401 . S
C492 C497 1.499 . S
N493 Co476 1.989 . S
N493 C492 1.342 . S
N493 N494 1.388 . S
N494 Co477 1.993 . S
N494 N493 1.388 . S
N494 C495 1.346 . S
C495 N494 1.346 . S
C495 C496 1.396 . S
C495 C505 1.510 . S
C496 C492 1.401 . S
C496 C495 1.396 . S
C497 C492 1.499 . S
C497 H498 0.959 . S
C497 H499 0.960 . S
C497 H500 0.961 . S
H498 C497 0.959 . S
H499 C497 0.960 . S
H500 C497 0.961 . S
O501 Co476 1.967 . S
O501 C509 1.258 . S
O502 Co477 1.941 . S
O502 C509 1.266 . S
H503 C505 0.959 . S
H504 C505 0.961 . S
C505 C495 1.510 . S
C505 H503 0.959 . S
C505 H504 0.961 . S
C505 H506 0.960 . S
H506 C505 0.960 . S
H507 N487 0.862 . S
O508 Co476 1.920 . S
O508 C481 1.289 . S
C509 O501 1.258 . S
C509 O502 1.266 . S
Co510 O513 1.970 . S
Co510 N527 1.989 . S
Co510 O535 1.967 . S
Co510 O542 1.920 . S
Co511 O514 1.966 . S
Co511 N520 2.022 . S
Co511 N528 1.993 . S
Co511 O536 1.941 . S
C512 O513 1.258 . S
C512 O514 1.263 . S
O513 Co510 1.970 . S
O513 C512 1.258 . S
O514 Co511 1.966 . S
O514 C512 1.263 . S
C515 O516 1.235 . S
C515 O542 1.289 . S
O516 C515 1.235 . S
C517 C519 1.400 1_554 S
C517 N520 1.351 . S
C517 C522 1.501 . S
C518 C519 1.387 . S
C518 N521 1.341 1_556 S
C519 C517 1.400 1_556 S
C519 C518 1.387 . S
N520 Co511 2.022 . S
N520 C517 1.351 . S
N520 N521 1.365 . S
N521 C518 1.341 1_554 S
N521 N520 1.365 . S
N521 H541 0.862 . S
C522 C517 1.501 . S
C522 H523 0.961 . S
C522 H524 0.961 . S
C522 H525 0.960 . S
H523 C522 0.961 . S
H524 C522 0.961 . S
H525 C522 0.960 . S
C526 N527 1.342 . S
C526 C530 1.401 . S
C526 C531 1.499 . S
N527 Co510 1.989 . S
N527 C526 1.342 . S
N527 N528 1.388 . S
N528 Co511 1.993 . S
N528 N527 1.388 . S
N528 C529 1.346 . S
C529 N528 1.346 . S
C529 C530 1.396 . S
C529 C539 1.510 . S
C530 C526 1.401 . S
C530 C529 1.396 . S
C531 C526 1.499 . S
C531 H532 0.959 . S
C531 H533 0.960 . S
C531 H534 0.961 . S
H532 C531 0.959 . S
H533 C531 0.960 . S
H534 C531 0.961 . S
O535 Co510 1.967 . S
O535 C543 1.258 . S
O536 Co511 1.941 . S
O536 C543 1.266 . S
H537 C539 0.959 . S
H538 C539 0.961 . S
C539 C529 1.510 . S
C539 H537 0.959 . S
C539 H538 0.961 . S
C539 H540 0.960 . S
H540 C539 0.960 . S
H541 N521 0.862 . S
O542 Co510 1.920 . S
O542 C515 1.289 . S
C543 O535 1.258 . S
C543 O536 1.266 . S
Co544 O547 1.970 . S
Co544 N561 1.989 . S
Co544 O569 1.967 . S
Co544 O576 1.920 . S
Co545 O548 1.966 . S
Co545 N554 2.022 . S
Co545 N562 1.993 . S
Co545 O570 1.941 . S
C546 O547 1.258 . S
C546 O548 1.263 . S
O547 Co544 1.970 . S
O547 C546 1.258 . S
O548 Co545 1.966 . S
O548 C546 1.263 . S
C549 O550 1.235 . S
C549 O576 1.289 . S
O550 C549 1.235 . S
C551 C553 1.400 . S
C551 N554 1.351 . S
C551 C556 1.501 . S
C552 C553 1.387 . S
C552 N555 1.341 . S
C553 C551 1.400 . S
C553 C552 1.387 . S
N554 Co545 2.022 . S
N554 C551 1.351 . S
N554 N555 1.365 . S
N555 C552 1.341 . S
N555 N554 1.365 . S
N555 H575 0.862 . S
C556 C551 1.501 . S
C556 H557 0.961 . S
C556 H558 0.961 . S
C556 H559 0.960 . S
H557 C556 0.961 . S
H558 C556 0.961 . S
H559 C556 0.960 . S
C560 N561 1.342 . S
C560 C564 1.401 . S
C560 C565 1.499 . S
N561 Co544 1.989 . S
N561 C560 1.342 . S
N561 N562 1.388 . S
N562 Co545 1.993 . S
N562 N561 1.388 . S
N562 C563 1.346 . S
C563 N562 1.346 . S
C563 C564 1.396 . S
C563 C573 1.510 . S
C564 C560 1.401 . S
C564 C563 1.396 . S
C565 C560 1.499 . S
C565 H566 0.959 . S
C565 H567 0.960 . S
C565 H568 0.961 . S
H566 C565 0.959 . S
H567 C565 0.960 . S
H568 C565 0.961 . S
O569 Co544 1.967 . S
O569 C577 1.258 . S
O570 Co545 1.941 . S
O570 C577 1.266 . S
H571 C573 0.959 . S
H572 C573 0.961 . S
C573 C563 1.510 . S
C573 H571 0.959 . S
C573 H572 0.961 . S
C573 H574 0.960 . S
H574 C573 0.960 . S
H575 N555 0.862 . S
O576 Co544 1.920 . S
O576 C549 1.289 . S
C577 O569 1.258 . S
C577 O570 1.266 . S
Co578 O581 1.970 . S
Co578 N595 1.989 . S
Co578 O603 1.967 . S
Co578 O610 1.920 . S
Co579 O582 1.966 . S
Co579 N588 2.022 . S
Co579 N596 1.993 . S
Co579 O604 1.941 . S
C580 O581 1.258 . S
C580 O582 1.263 . S
O581 Co578 1.970 . S
O581 C580 1.258 . S
O582 Co579 1.966 . S
O582 C580 1.263 . S
C583 O584 1.242 . S
C583 O610 1.294 . S
O584 C583 1.242 . S
C585 C587 1.400 . S
C585 N588 1.351 . S
C585 C590 1.501 . S
C586 C587 1.387 . S
C586 N589 1.341 . S
C587 C585 1.400 . S
C587 C586 1.387 . S
N588 Co579 2.022 . S
N588 C585 1.351 . S
N588 N589 1.365 . S
N589 C586 1.341 . S
N589 N588 1.365 . S
N589 H609 0.862 . S
C590 C585 1.501 . S
C590 H591 0.961 . S
C590 H592 0.961 . S
C590 H593 0.960 . S
H591 C590 0.961 . S
H592 C590 0.961 . S
H593 C590 0.960 . S
C594 N595 1.342 . S
C594 C598 1.401 . S
C594 C599 1.499 . S
N595 Co578 1.989 . S
N595 C594 1.342 . S
N595 N596 1.388 . S
N596 Co579 1.993 . S
N596 N595 1.388 . S
N596 C597 1.346 . S
C597 N596 1.346 . S
C597 C598 1.396 . S
C597 C607 1.510 . S
C598 C594 1.401 . S
C598 C597 1.396 . S
C599 C594 1.499 . S
C599 H600 0.959 . S
C599 H601 0.960 . S
C599 H602 0.961 . S
H600 C599 0.959 . S
H601 C599 0.960 . S
H602 C599 0.961 . S
O603 Co578 1.967 . S
O603 C611 1.258 . S
O604 Co579 1.941 . S
O604 C611 1.266 . S
H605 C607 0.959 . S
H606 C607 0.961 . S
C607 C597 1.510 . S
C607 H605 0.959 . S
C607 H606 0.961 . S
C607 H608 0.960 . S
H608 C607 0.960 . S
H609 N589 0.862 . S
O610 Co578 1.920 . S
O610 C583 1.294 . S
C611 O603 1.258 . S
C611 O604 1.266 . S
Co612 O615 1.970 . S
Co612 N629 1.989 . S
Co612 O637 1.967 . S
Co612 O644 1.920 . S
Co613 O616 1.966 . S
Co613 N622 2.022 . S
Co613 N630 1.993 . S
Co613 O638 1.941 . S
C614 O615 1.258 . S
C614 O616 1.263 1_554 S
O615 Co612 1.970 . S
O615 C614 1.258 . S
O616 Co613 1.966 . S
O616 C614 1.263 1_556 S
C617 O618 1.235 . S
C617 O644 1.289 . S
O618 C617 1.235 . S
C619 C621 1.400 . S
C619 N622 1.351 . S
C619 C624 1.501 . S
C620 C621 1.387 . S
C620 N623 1.341 . S
C621 C619 1.400 . S
C621 C620 1.387 . S
N622 Co613 2.022 . S
N622 C619 1.351 . S
N622 N623 1.365 . S
N623 C620 1.341 . S
N623 N622 1.365 . S
N623 H643 0.862 . S
C624 C619 1.501 . S
C624 H625 0.961 . S
C624 H626 0.961 . S
C624 H627 0.960 . S
H625 C624 0.961 . S
H626 C624 0.961 . S
H627 C624 0.960 . S
C628 N629 1.342 . S
C628 C632 1.401 1_554 S
C628 C633 1.499 . S
N629 Co612 1.989 . S
N629 C628 1.342 . S
N629 N630 1.388 1_554 S
N630 Co613 1.993 . S
N630 N629 1.388 1_556 S
N630 C631 1.346 . S
C631 N630 1.346 . S
C631 C632 1.396 . S
C631 C641 1.510 . S
C632 C628 1.401 1_556 S
C632 C631 1.396 . S
C633 C628 1.499 . S
C633 H634 0.959 . S
C633 H635 0.960 . S
C633 H636 0.961 . S
H634 C633 0.959 . S
H635 C633 0.960 . S
H636 C633 0.961 . S
O637 Co612 1.967 . S
O637 C645 1.258 . S
O638 Co613 1.941 . S
O638 C645 1.266 1_556 S
H639 C641 0.959 . S
H640 C641 0.961 . S
C641 C631 1.510 . S
C641 H639 0.959 . S
C641 H640 0.961 . S
C641 H642 0.960 . S
H642 C641 0.960 . S
H643 N623 0.862 . S
O644 Co612 1.920 . S
O644 C617 1.289 . S
C645 O637 1.258 . S
C645 O638 1.266 1_554 S
Co646 O649 1.970 . S
Co646 N663 1.989 . S
Co646 O671 1.967 . S
Co646 O678 1.920 . S
Co647 O650 1.966 . S
Co647 N656 2.022 . S
Co647 N664 1.993 . S
Co647 O672 1.941 . S
C648 O649 1.258 . S
C648 O650 1.263 . S
O649 Co646 1.970 . S
O649 C648 1.258 . S
O650 Co647 1.966 . S
O650 C648 1.263 . S
C651 O652 1.235 . S
C651 O678 1.289 . S
O652 C651 1.235 . S
C653 C655 1.400 1_554 S
C653 N656 1.351 . S
C653 C658 1.501 . S
C654 C655 1.387 . S
C654 N657 1.341 1_556 S
C655 C653 1.400 1_556 S
C655 C654 1.387 . S
N656 Co647 2.022 . S
N656 C653 1.351 . S
N656 N657 1.365 . S
N657 C654 1.341 1_554 S
N657 N656 1.365 . S
N657 H677 0.862 . S
C658 C653 1.501 . S
C658 H659 0.961 . S
C658 H660 0.961 . S
C658 H661 0.960 . S
H659 C658 0.961 . S
H660 C658 0.961 . S
H661 C658 0.960 . S
C662 N663 1.342 . S
C662 C666 1.401 . S
C662 C667 1.499 . S
N663 Co646 1.989 . S
N663 C662 1.342 . S
N663 N664 1.388 . S
N664 Co647 1.993 . S
N664 N663 1.388 . S
N664 C665 1.346 . S
C665 N664 1.346 . S
C665 C666 1.396 . S
C665 C675 1.510 . S
C666 C662 1.401 . S
C666 C665 1.396 . S
C667 C662 1.499 . S
C667 H668 0.959 . S
C667 H669 0.960 . S
C667 H670 0.961 . S
H668 C667 0.959 . S
H669 C667 0.960 . S
H670 C667 0.961 . S
O671 Co646 1.967 . S
O671 C679 1.258 . S
O672 Co647 1.941 . S
O672 C679 1.266 . S
H673 C675 0.959 . S
H674 C675 0.961 . S
C675 C665 1.510 . S
C675 H673 0.959 . S
C675 H674 0.961 . S
C675 H676 0.960 . S
H676 C675 0.960 . S
H677 N657 0.862 . S
O678 Co646 1.920 . S
O678 C651 1.289 . S
C679 O671 1.258 . S
C679 O672 1.266 . S
Co680 O683 1.970 . S
Co680 N697 1.989 . S
Co680 O705 1.967 . S
Co680 O712 1.920 . S
Co681 O684 1.966 . S
Co681 N690 2.022 . S
Co681 N698 1.993 . S
Co681 O706 1.941 . S
C682 O683 1.258 . S
C682 O684 1.263 . S
O683 Co680 1.970 . S
O683 C682 1.258 . S
O684 Co681 1.966 . S
O684 C682 1.263 . S
C685 O686 1.235 . S
C685 O712 1.289 . S
O686 C685 1.235 . S
C687 C689 1.400 . S
C687 N690 1.351 . S
C687 C692 1.501 . S
C688 C689 1.387 . S
C688 N691 1.341 . S
C689 C687 1.400 . S
C689 C688 1.387 . S
N690 Co681 2.022 . S
N690 C687 1.351 . S
N690 N691 1.365 . S
N691 C688 1.341 . S
N691 N690 1.365 . S
N691 H711 0.862 . S
C692 C687 1.501 . S
C692 H693 0.961 . S
C692 H694 0.961 . S
C692 H695 0.960 . S
H693 C692 0.961 . S
H694 C692 0.961 . S
H695 C692 0.960 . S
C696 N697 1.342 . S
C696 C700 1.401 . S
C696 C701 1.499 . S
N697 Co680 1.989 . S
N697 C696 1.342 . S
N697 N698 1.388 . S
N698 Co681 1.993 . S
N698 N697 1.388 . S
N698 C699 1.346 . S
C699 N698 1.346 . S
C699 C700 1.396 . S
C699 C709 1.510 . S
C700 C696 1.401 . S
C700 C699 1.396 . S
C701 C696 1.499 . S
C701 H702 0.959 . S
C701 H703 0.960 . S
C701 H704 0.961 . S
H702 C701 0.959 . S
H703 C701 0.960 . S
H704 C701 0.961 . S
O705 Co680 1.967 . S
O705 C713 1.258 . S
O706 Co681 1.941 . S
O706 C713 1.266 . S
H707 C709 0.959 . S
H708 C709 0.961 . S
C709 C699 1.510 . S
C709 H707 0.959 . S
C709 H708 0.961 . S
C709 H710 0.960 . S
H710 C709 0.960 . S
H711 N691 0.862 . S
O712 Co680 1.920 . S
O712 C685 1.289 . S
C713 O705 1.258 . S
C713 O706 1.266 . S
Co714 O717 1.970 . S
Co714 N731 1.989 . S
Co714 O739 1.967 . S
Co714 O746 1.920 . S
Co715 O718 1.966 . S
Co715 N724 2.022 . S
Co715 N732 1.993 . S
Co715 O740 1.941 . S
C716 O717 1.258 . S
C716 O718 1.263 . S
O717 Co714 1.970 . S
O717 C716 1.258 . S
O718 Co715 1.966 . S
O718 C716 1.263 . S
C719 O720 1.235 . S
C719 O746 1.289 . S
O720 C719 1.235 . S
C721 C723 1.400 1_556 S
C721 N724 1.351 . S
C721 C726 1.501 . S
C722 C723 1.387 . S
C722 N725 1.341 1_554 S
C723 C721 1.400 1_554 S
C723 C722 1.387 . S
N724 Co715 2.022 . S
N724 C721 1.351 . S
N724 N725 1.365 . S
N725 C722 1.341 1_556 S
N725 N724 1.365 . S
N725 H745 0.862 . S
C726 C721 1.501 . S
C726 H727 0.961 . S
C726 H728 0.961 . S
C726 H729 0.960 . S
H727 C726 0.961 . S
H728 C726 0.961 . S
H729 C726 0.960 . S
C730 N731 1.342 . S
C730 C734 1.401 . S
C730 C735 1.499 . S
N731 Co714 1.989 . S
N731 C730 1.342 . S
N731 N732 1.388 . S
N732 Co715 1.993 . S
N732 N731 1.388 . S
N732 C733 1.346 . S
C733 N732 1.346 . S
C733 C734 1.396 . S
C733 C743 1.510 . S
C734 C730 1.401 . S
C734 C733 1.396 . S
C735 C730 1.499 . S
C735 H736 0.959 . S
C735 H737 0.960 . S
C735 H738 0.961 . S
H736 C735 0.959 . S
H737 C735 0.960 . S
H738 C735 0.961 . S
O739 Co714 1.967 . S
O739 C747 1.258 . S
O740 Co715 1.941 . S
O740 C747 1.266 . S
H741 C743 0.959 . S
H742 C743 0.961 . S
C743 C733 1.510 . S
C743 H741 0.959 . S
C743 H742 0.961 . S
C743 H744 0.960 . S
H744 C743 0.960 . S
H745 N725 0.862 . S
O746 Co714 1.920 . S
O746 C719 1.289 . S
C747 O739 1.258 . S
C747 O740 1.266 . S
Co748 O751 1.970 . S
Co748 N765 1.989 . S
Co748 O773 1.967 . S
Co748 O780 1.920 . S
Co749 O752 1.966 . S
Co749 N758 2.022 . S
Co749 N766 1.993 . S
Co749 O774 1.941 . S
C750 O751 1.258 . S
C750 O752 1.263 1_556 S
O751 Co748 1.970 . S
O751 C750 1.258 . S
O752 Co749 1.966 . S
O752 C750 1.263 1_554 S
C753 O754 1.235 . S
C753 O780 1.289 . S
O754 C753 1.235 . S
C755 C757 1.400 . S
C755 N758 1.351 . S
C755 C760 1.501 . S
C756 C757 1.387 . S
C756 N759 1.341 . S
C757 C755 1.400 . S
C757 C756 1.387 . S
N758 Co749 2.022 . S
N758 C755 1.351 . S
N758 N759 1.365 . S
N759 C756 1.341 . S
N759 N758 1.365 . S
N759 H779 0.862 . S
C760 C755 1.501 . S
C760 H761 0.961 . S
C760 H762 0.961 . S
C760 H763 0.960 . S
H761 C760 0.961 . S
H762 C760 0.961 . S
H763 C760 0.960 . S
C764 N765 1.342 . S
C764 C768 1.401 1_556 S
C764 C769 1.499 . S
N765 Co748 1.989 . S
N765 C764 1.342 . S
N765 N766 1.388 1_556 S
N766 Co749 1.993 . S
N766 N765 1.388 1_554 S
N766 C767 1.346 . S
C767 N766 1.346 . S
C767 C768 1.396 . S
C767 C777 1.510 . S
C768 C764 1.401 1_554 S
C768 C767 1.396 . S
C769 C764 1.499 . S
C769 H770 0.959 . S
C769 H771 0.960 . S
C769 H772 0.961 . S
H770 C769 0.959 . S
H771 C769 0.960 . S
H772 C769 0.961 . S
O773 Co748 1.967 . S
O773 C781 1.258 . S
O774 Co749 1.941 . S
O774 C781 1.266 1_554 S
H775 C777 0.959 . S
H776 C777 0.961 . S
C777 C767 1.510 . S
C777 H775 0.959 . S
C777 H776 0.961 . S
C777 H778 0.960 . S
H778 C777 0.960 . S
H779 N759 0.862 . S
O780 Co748 1.920 . S
O780 C753 1.289 . S
C781 O773 1.258 . S
C781 O774 1.266 1_556 S
Co782 O785 1.970 . S
Co782 N799 1.989 . S
Co782 O807 1.967 . S
Co782 O814 1.920 . S
Co783 O786 1.966 . S
Co783 N792 2.022 . S
Co783 N800 1.993 . S
Co783 O808 1.941 . S
C784 O785 1.258 . S
C784 O786 1.263 . S
O785 Co782 1.970 . S
O785 C784 1.258 . S
O786 Co783 1.966 . S
O786 C784 1.263 . S
C787 O788 1.242 . S
C787 O814 1.294 . S
O788 C787 1.242 . S
C789 C791 1.400 . S
C789 N792 1.351 . S
C789 C794 1.501 . S
C790 C791 1.387 . S
C790 N793 1.341 . S
C791 C789 1.400 . S
C791 C790 1.387 . S
N792 Co783 2.022 . S
N792 C789 1.351 . S
N792 N793 1.365 . S
N793 C790 1.341 . S
N793 N792 1.365 . S
N793 H813 0.862 . S
C794 C789 1.501 . S
C794 H795 0.961 . S
C794 H796 0.961 . S
C794 H797 0.960 . S
H795 C794 0.961 . S
H796 C794 0.961 . S
H797 C794 0.960 . S
C798 N799 1.342 . S
C798 C802 1.401 . S
C798 C803 1.499 . S
N799 Co782 1.989 . S
N799 C798 1.342 . S
N799 N800 1.388 . S
N800 Co783 1.993 . S
N800 N799 1.388 . S
N800 C801 1.346 . S
C801 N800 1.346 . S
C801 C802 1.396 . S
C801 C811 1.510 . S
C802 C798 1.401 . S
C802 C801 1.396 . S
C803 C798 1.499 . S
C803 H804 0.959 . S
C803 H805 0.960 . S
C803 H806 0.961 . S
H804 C803 0.959 . S
H805 C803 0.960 . S
H806 C803 0.961 . S
O807 Co782 1.967 . S
O807 C815 1.258 . S
O808 Co783 1.941 . S
O808 C815 1.266 . S
H809 C811 0.959 . S
H810 C811 0.961 . S
C811 C801 1.510 . S
C811 H809 0.959 . S
C811 H810 0.961 . S
C811 H812 0.960 . S
H812 C811 0.960 . S
H813 N793 0.862 . S
O814 Co782 1.920 . S
O814 C787 1.294 . S
C815 O807 1.258 . S
C815 O808 1.266 . S
Co816 O819 1.970 . S
Co816 N833 1.989 . S
Co816 O841 1.967 . S
Co816 O848 1.920 . S
Co817 O820 1.966 . S
Co817 N826 2.022 . S
Co817 N834 1.993 . S
Co817 O842 1.941 . S
C818 O819 1.258 . S
C818 O820 1.263 . S
O819 Co816 1.970 . S
O819 C818 1.258 . S
O820 Co817 1.966 . S
O820 C818 1.263 . S
C821 O822 1.235 . S
C821 O848 1.289 . S
O822 C821 1.235 . S
C823 C825 1.400 . S
C823 N826 1.351 . S
C823 C828 1.501 . S
C824 C825 1.387 . S
C824 N827 1.341 . S
C825 C823 1.400 . S
C825 C824 1.387 . S
N826 Co817 2.022 . S
N826 C823 1.351 . S
N826 N827 1.365 . S
N827 C824 1.341 . S
N827 N826 1.365 . S
N827 H847 0.862 . S
C828 C823 1.501 . S
C828 H829 0.961 . S
C828 H830 0.961 . S
C828 H831 0.960 . S
H829 C828 0.961 . S
H830 C828 0.961 . S
H831 C828 0.960 . S
C832 N833 1.342 . S
C832 C836 1.401 . S
C832 C837 1.499 . S
N833 Co816 1.989 . S
N833 C832 1.342 . S
N833 N834 1.388 . S
N834 Co817 1.993 . S
N834 N833 1.388 . S
N834 C835 1.346 . S
C835 N834 1.346 . S
C835 C836 1.396 . S
C835 C845 1.510 . S
C836 C832 1.401 . S
C836 C835 1.396 . S
C837 C832 1.499 . S
C837 H838 0.959 . S
C837 H839 0.960 . S
C837 H840 0.961 . S
H838 C837 0.959 . S
H839 C837 0.960 . S
H840 C837 0.961 . S
O841 Co816 1.967 . S
O841 C849 1.258 . S
O842 Co817 1.941 . S
O842 C849 1.266 . S
H843 C845 0.959 . S
H844 C845 0.961 . S
C845 C835 1.510 . S
C845 H843 0.959 . S
C845 H844 0.961 . S
C845 H846 0.960 . S
H846 C845 0.960 . S
H847 N827 0.862 . S
O848 Co816 1.920 . S
O848 C821 1.289 . S
C849 O841 1.258 . S
C849 O842 1.266 . S
Co850 O853 1.970 . S
Co850 N867 1.989 . S
Co850 O875 1.967 . S
Co850 O882 1.920 . S
Co851 O854 1.966 . S
Co851 N860 2.022 . S
Co851 N868 1.993 . S
Co851 O876 1.941 . S
C852 O853 1.258 . S
C852 O854 1.263 . S
O853 Co850 1.970 . S
O853 C852 1.258 . S
O854 Co851 1.966 . S
O854 C852 1.263 . S
C855 O856 1.242 . S
C855 O882 1.294 . S
O856 C855 1.242 . S
C857 C859 1.400 . S
C857 N860 1.351 . S
C857 C862 1.501 . S
C858 C859 1.387 . S
C858 N861 1.341 . S
C859 C857 1.400 . S
C859 C858 1.387 . S
N860 Co851 2.022 . S
N860 C857 1.351 . S
N860 N861 1.365 . S
N861 C858 1.341 . S
N861 N860 1.365 . S
N861 H881 0.862 . S
C862 C857 1.501 . S
C862 H863 0.961 . S
C862 H864 0.961 . S
C862 H865 0.960 . S
H863 C862 0.961 . S
H864 C862 0.961 . S
H865 C862 0.960 . S
C866 N867 1.342 . S
C866 C870 1.401 . S
C866 C871 1.499 . S
N867 Co850 1.989 . S
N867 C866 1.342 . S
N867 N868 1.388 . S
N868 Co851 1.993 . S
N868 N867 1.388 . S
N868 C869 1.346 . S
C869 N868 1.346 . S
C869 C870 1.396 . S
C869 C879 1.510 . S
C870 C866 1.401 . S
C870 C869 1.396 . S
C871 C866 1.499 . S
C871 H872 0.959 . S
C871 H873 0.960 . S
C871 H874 0.961 . S
H872 C871 0.959 . S
H873 C871 0.960 . S
H874 C871 0.961 . S
O875 Co850 1.967 . S
O875 C883 1.258 . S
O876 Co851 1.941 . S
O876 C883 1.266 . S
H877 C879 0.959 . S
H878 C879 0.961 . S
C879 C869 1.510 . S
C879 H877 0.959 . S
C879 H878 0.961 . S
C879 H880 0.960 . S
H880 C879 0.960 . S
H881 N861 0.862 . S
O882 Co850 1.920 . S
O882 C855 1.294 . S
C883 O875 1.258 . S
C883 O876 1.266 . S
Co884 O887 1.970 . S
Co884 N901 1.989 . S
Co884 O909 1.967 . S
Co884 O916 1.920 . S
Co885 O888 1.966 . S
Co885 N894 2.022 . S
Co885 N902 1.993 . S
Co885 O910 1.941 . S
C886 O887 1.258 . S
C886 O888 1.263 1_556 S
O887 Co884 1.970 . S
O887 C886 1.258 . S
O888 Co885 1.966 . S
O888 C886 1.263 1_554 S
C889 O890 1.235 . S
C889 O916 1.289 . S
O890 C889 1.235 . S
C891 C893 1.400 . S
C891 N894 1.351 . S
C891 C896 1.501 . S
C892 C893 1.387 . S
C892 N895 1.341 . S
C893 C891 1.400 . S
C893 C892 1.387 . S
N894 Co885 2.022 . S
N894 C891 1.351 . S
N894 N895 1.365 . S
N895 C892 1.341 . S
N895 N894 1.365 . S
N895 H915 0.862 . S
C896 C891 1.501 . S
C896 H897 0.961 . S
C896 H898 0.961 . S
C896 H899 0.960 . S
H897 C896 0.961 . S
H898 C896 0.961 . S
H899 C896 0.960 . S
C900 N901 1.342 . S
C900 C904 1.401 1_556 S
C900 C905 1.499 . S
N901 Co884 1.989 . S
N901 C900 1.342 . S
N901 N902 1.388 1_556 S
N902 Co885 1.993 . S
N902 N901 1.388 1_554 S
N902 C903 1.346 . S
C903 N902 1.346 . S
C903 C904 1.396 . S
C903 C913 1.510 . S
C904 C900 1.401 1_554 S
C904 C903 1.396 . S
C905 C900 1.499 . S
C905 H906 0.959 . S
C905 H907 0.960 . S
C905 H908 0.961 . S
H906 C905 0.959 . S
H907 C905 0.960 . S
H908 C905 0.961 . S
O909 Co884 1.967 . S
O909 C917 1.258 . S
O910 Co885 1.941 . S
O910 C917 1.266 1_554 S
H911 C913 0.959 . S
H912 C913 0.961 . S
C913 C903 1.510 . S
C913 H911 0.959 . S
C913 H912 0.961 . S
C913 H914 0.960 . S
H914 C913 0.960 . S
H915 N895 0.862 . S
O916 Co884 1.920 . S
O916 C889 1.289 . S
C917 O909 1.258 . S
C917 O910 1.266 1_556 S
Co918 O921 1.970 . S
Co918 N935 1.989 . S
Co918 O943 1.967 . S
Co918 O950 1.920 . S
Co919 O922 1.966 . S
Co919 N928 2.022 . S
Co919 N936 1.993 . S
Co919 O944 1.941 . S
C920 O921 1.258 . S
C920 O922 1.263 . S
O921 Co918 1.970 . S
O921 C920 1.258 . S
O922 Co919 1.966 . S
O922 C920 1.263 . S
C923 O924 1.235 . S
C923 O950 1.289 . S
O924 C923 1.235 . S
C925 C927 1.400 1_556 S
C925 N928 1.351 . S
C925 C930 1.501 . S
C926 C927 1.387 . S
C926 N929 1.341 1_554 S
C927 C925 1.400 1_554 S
C927 C926 1.387 . S
N928 Co919 2.022 . S
N928 C925 1.351 . S
N928 N929 1.365 . S
N929 C926 1.341 1_556 S
N929 N928 1.365 . S
N929 H949 0.862 . S
C930 C925 1.501 . S
C930 H931 0.961 . S
C930 H932 0.961 . S
C930 H933 0.960 . S
H931 C930 0.961 . S
H932 C930 0.961 . S
H933 C930 0.960 . S
C934 N935 1.342 . S
C934 C938 1.401 . S
C934 C939 1.499 . S
N935 Co918 1.989 . S
N935 C934 1.342 . S
N935 N936 1.388 . S
N936 Co919 1.993 . S
N936 N935 1.388 . S
N936 C937 1.346 . S
C937 N936 1.346 . S
C937 C938 1.396 . S
C937 C947 1.510 . S
C938 C934 1.401 . S
C938 C937 1.396 . S
C939 C934 1.499 . S
C939 H940 0.959 . S
C939 H941 0.960 . S
C939 H942 0.961 . S
H940 C939 0.959 . S
H941 C939 0.960 . S
H942 C939 0.961 . S
O943 Co918 1.967 . S
O943 C951 1.258 . S
O944 Co919 1.941 . S
O944 C951 1.266 . S
H945 C947 0.959 . S
H946 C947 0.961 . S
C947 C937 1.510 . S
C947 H945 0.959 . S
C947 H946 0.961 . S
C947 H948 0.960 . S
H948 C947 0.960 . S
H949 N929 0.862 . S
O950 Co918 1.920 . S
O950 C923 1.289 . S
C951 O943 1.258 . S
C951 O944 1.266 . S
Co952 O955 1.970 . S
Co952 N969 1.989 . S
Co952 O977 1.967 . S
Co952 O984 1.920 . S
Co953 O956 1.966 . S
Co953 N962 2.022 . S
Co953 N970 1.993 . S
Co953 O978 1.941 . S
C954 O955 1.258 . S
C954 O956 1.263 . S
O955 Co952 1.970 . S
O955 C954 1.258 . S
O956 Co953 1.966 . S
O956 C954 1.263 . S
C957 O958 1.235 . S
C957 O984 1.289 . S
O958 C957 1.235 . S
C959 C961 1.400 . S
C959 N962 1.351 . S
C959 C964 1.501 . S
C960 C961 1.387 . S
C960 N963 1.341 . S
C961 C959 1.400 . S
C961 C960 1.387 . S
N962 Co953 2.022 . S
N962 C959 1.351 . S
N962 N963 1.365 . S
N963 C960 1.341 . S
N963 N962 1.365 . S
N963 H983 0.862 . S
C964 C959 1.501 . S
C964 H965 0.961 . S
C964 H966 0.961 . S
C964 H967 0.960 . S
H965 C964 0.961 . S
H966 C964 0.961 . S
H967 C964 0.960 . S
C968 N969 1.342 . S
C968 C972 1.401 . S
C968 C973 1.499 . S
N969 Co952 1.989 . S
N969 C968 1.342 . S
N969 N970 1.388 . S
N970 Co953 1.993 . S
N970 N969 1.388 . S
N970 C971 1.346 . S
C971 N970 1.346 . S
C971 C972 1.396 . S
C971 C981 1.510 . S
C972 C968 1.401 . S
C972 C971 1.396 . S
C973 C968 1.499 . S
C973 H974 0.959 . S
C973 H975 0.960 . S
C973 H976 0.961 . S
H974 C973 0.959 . S
H975 C973 0.960 . S
H976 C973 0.961 . S
O977 Co952 1.967 . S
O977 C985 1.258 . S
O978 Co953 1.941 . S
O978 C985 1.266 . S
H979 C981 0.959 . S
H980 C981 0.961 . S
C981 C971 1.510 . S
C981 H979 0.959 . S
C981 H980 0.961 . S
C981 H982 0.960 . S
H982 C981 0.960 . S
H983 N963 0.862 . S
O984 Co952 1.920 . S
O984 C957 1.289 . S
C985 O977 1.258 . S
C985 O978 1.266 . S
Co986 O989 1.970 . S
Co986 N1003 1.989 . S
Co986 O1011 1.967 . S
Co986 O1018 1.920 . S
Co987 O990 1.966 . S
Co987 N996 2.022 . S
Co987 N1004 1.993 . S
Co987 O1012 1.941 . S
C988 O989 1.258 . S
C988 O990 1.263 . S
O989 Co986 1.970 . S
O989 C988 1.258 . S
O990 Co987 1.966 . S
O990 C988 1.263 . S
C991 O992 1.235 . S
C991 O1018 1.289 . S
O992 C991 1.235 . S
C993 C995 1.400 1_554 S
C993 N996 1.351 . S
C993 C998 1.501 . S
C994 C995 1.387 . S
C994 N997 1.341 1_556 S
C995 C993 1.400 1_556 S
C995 C994 1.387 . S
N996 Co987 2.022 . S
N996 C993 1.351 . S
N996 N997 1.365 . S
N997 C994 1.341 1_554 S
N997 N996 1.365 . S
N997 H1017 0.862 . S
C998 C993 1.501 . S
C998 H999 0.961 . S
C998 H1000 0.961 . S
C998 H1001 0.960 . S
H999 C998 0.961 . S
H1000 C998 0.961 . S
H1001 C998 0.960 . S
C1002 N1003 1.342 . S
C1002 C1006 1.401 . S
C1002 C1007 1.499 . S
N1003 Co986 1.989 . S
N1003 C1002 1.342 . S
N1003 N1004 1.388 . S
N1004 Co987 1.993 . S
N1004 N1003 1.388 . S
N1004 C1005 1.346 . S
C1005 N1004 1.346 . S
C1005 C1006 1.396 . S
C1005 C1015 1.510 . S
C1006 C1002 1.401 . S
C1006 C1005 1.396 . S
C1007 C1002 1.499 . S
C1007 H1008 0.959 . S
C1007 H1009 0.960 . S
C1007 H1010 0.961 . S
H1008 C1007 0.959 . S
H1009 C1007 0.960 . S
H1010 C1007 0.961 . S
O1011 Co986 1.967 . S
O1011 C1019 1.258 . S
O1012 Co987 1.941 . S
O1012 C1019 1.266 . S
H1013 C1015 0.959 . S
H1014 C1015 0.961 . S
C1015 C1005 1.510 . S
C1015 H1013 0.959 . S
C1015 H1014 0.961 . S
C1015 H1016 0.960 . S
H1016 C1015 0.960 . S
H1017 N997 0.862 . S
O1018 Co986 1.920 . S
O1018 C991 1.289 . S
C1019 O1011 1.258 . S
C1019 O1012 1.266 . S
Co1020 O1023 1.970 . S
Co1020 N1037 1.989 . S
Co1020 O1045 1.967 . S
Co1020 O1052 1.920 . S
Co1021 O1024 1.966 . S
Co1021 N1030 2.022 . S
Co1021 N1038 1.993 . S
Co1021 O1046 1.941 . S
C1022 O1023 1.258 . S
C1022 O1024 1.263 1_554 S
O1023 Co1020 1.970 . S
O1023 C1022 1.258 . S
O1024 Co1021 1.966 . S
O1024 C1022 1.263 1_556 S
C1025 O1026 1.235 . S
C1025 O1052 1.289 . S
O1026 C1025 1.235 . S
C1027 C1029 1.400 . S
C1027 N1030 1.351 . S
C1027 C1032 1.501 . S
C1028 C1029 1.387 . S
C1028 N1031 1.341 . S
C1029 C1027 1.400 . S
C1029 C1028 1.387 . S
N1030 Co1021 2.022 . S
N1030 C1027 1.351 . S
N1030 N1031 1.365 . S
N1031 C1028 1.341 . S
N1031 N1030 1.365 . S
N1031 H1051 0.862 . S
C1032 C1027 1.501 . S
C1032 H1033 0.961 . S
C1032 H1034 0.961 . S
C1032 H1035 0.960 . S
H1033 C1032 0.961 . S
H1034 C1032 0.961 . S
H1035 C1032 0.960 . S
C1036 N1037 1.342 . S
C1036 C1040 1.401 1_554 S
C1036 C1041 1.499 . S
N1037 Co1020 1.989 . S
N1037 C1036 1.342 . S
N1037 N1038 1.388 1_554 S
N1038 Co1021 1.993 . S
N1038 N1037 1.388 1_556 S
N1038 C1039 1.346 . S
C1039 N1038 1.346 . S
C1039 C1040 1.396 . S
C1039 C1049 1.510 . S
C1040 C1036 1.401 1_556 S
C1040 C1039 1.396 . S
C1041 C1036 1.499 . S
C1041 H1042 0.959 . S
C1041 H1043 0.960 . S
C1041 H1044 0.961 . S
H1042 C1041 0.959 . S
H1043 C1041 0.960 . S
H1044 C1041 0.961 . S
O1045 Co1020 1.967 . S
O1045 C1053 1.258 . S
O1046 Co1021 1.941 . S
O1046 C1053 1.266 1_556 S
H1047 C1049 0.959 . S
H1048 C1049 0.961 . S
C1049 C1039 1.510 . S
C1049 H1047 0.959 . S
C1049 H1048 0.961 . S
C1049 H1050 0.960 . S
H1050 C1049 0.960 . S
H1051 N1031 0.862 . S
O1052 Co1020 1.920 . S
O1052 C1025 1.289 . S
C1053 O1045 1.258 . S
C1053 O1046 1.266 1_554 S
Co1054 O1057 1.970 . S
Co1054 N1071 1.989 . S
Co1054 O1079 1.967 . S
Co1054 O1086 1.920 . S
Co1055 O1058 1.966 . S
Co1055 N1064 2.022 . S
Co1055 N1072 1.993 . S
Co1055 O1080 1.941 . S
C1056 O1057 1.258 . S
C1056 O1058 1.263 . S
O1057 Co1054 1.970 . S
O1057 C1056 1.258 . S
O1058 Co1055 1.966 . S
O1058 C1056 1.263 . S
C1059 O1060 1.242 . S
C1059 O1086 1.294 . S
O1060 C1059 1.242 . S
C1061 C1063 1.400 . S
C1061 N1064 1.351 . S
C1061 C1066 1.501 . S
C1062 C1063 1.387 . S
C1062 N1065 1.341 . S
C1063 C1061 1.400 . S
C1063 C1062 1.387 . S
N1064 Co1055 2.022 . S
N1064 C1061 1.351 . S
N1064 N1065 1.365 . S
N1065 C1062 1.341 . S
N1065 N1064 1.365 . S
N1065 H1085 0.862 . S
C1066 C1061 1.501 . S
C1066 H1067 0.961 . S
C1066 H1068 0.961 . S
C1066 H1069 0.960 . S
H1067 C1066 0.961 . S
H1068 C1066 0.961 . S
H1069 C1066 0.960 . S
C1070 N1071 1.342 . S
C1070 C1074 1.401 . S
C1070 C1075 1.499 . S
N1071 Co1054 1.989 . S
N1071 C1070 1.342 . S
N1071 N1072 1.388 . S
N1072 Co1055 1.993 . S
N1072 N1071 1.388 . S
N1072 C1073 1.346 . S
C1073 N1072 1.346 . S
C1073 C1074 1.396 . S
C1073 C1083 1.510 . S
C1074 C1070 1.401 . S
C1074 C1073 1.396 . S
C1075 C1070 1.499 . S
C1075 H1076 0.959 . S
C1075 H1077 0.960 . S
C1075 H1078 0.961 . S
H1076 C1075 0.959 . S
H1077 C1075 0.960 . S
H1078 C1075 0.961 . S
O1079 Co1054 1.967 . S
O1079 C1087 1.258 . S
O1080 Co1055 1.941 . S
O1080 C1087 1.266 . S
H1081 C1083 0.959 . S
H1082 C1083 0.961 . S
C1083 C1073 1.510 . S
C1083 H1081 0.959 . S
C1083 H1082 0.961 . S
C1083 H1084 0.960 . S
H1084 C1083 0.960 . S
H1085 N1065 0.862 . S
O1086 Co1054 1.920 . S
O1086 C1059 1.294 . S
C1087 O1079 1.258 . S
C1087 O1080 1.266 . S
H1088 C1094 0.930 . S
H1089 C1098 0.930 . S
H1090 C1103 0.929 . S
H1091 C1101 0.929 . S
H1092 C1096 0.929 . S
H1093 C1102 0.929 . S
C1094 H1088 0.930 . S
C1094 C1095 1.367 . S
C1094 C1102 1.378 . S
C1095 C1094 1.367 . S
C1095 C1103 1.433 1_554 S
C1096 H1092 0.929 . S
C1096 C1098 1.378 . S
C1096 C1100 1.350 1_556 S
C1097 C1100 1.463 . S
C1097 C1102 1.350 . S
C1097 N1105 1.427 1_554 S
C1098 H1089 0.930 . S
C1098 C1096 1.378 . S
C1098 C1099 1.367 1_556 S
C1099 C1098 1.367 1_554 S
C1099 C1101 1.433 . S
C1100 C1096 1.350 1_554 S
C1100 C1097 1.463 . S
C1100 N1104 1.427 . S
C1101 H1091 0.929 . S
C1101 C1099 1.433 . S
C1101 N1104 1.384 . S
C1102 H1093 0.929 . S
C1102 C1094 1.378 . S
C1102 C1097 1.350 . S
C1103 H1090 0.929 . S
C1103 C1095 1.433 1_556 S
C1103 N1105 1.384 . S
N1104 C1100 1.427 . S
N1104 C1101 1.384 . S
N1105 C1097 1.427 1_556 S
N1105 C1103 1.384 . S
H1106 C1112 0.930 . S
H1107 C1116 0.930 . S
H1108 C1121 0.929 . S
H1109 C1119 0.929 . S
H1110 C1114 0.929 . S
H1111 C1120 0.929 . S
C1112 H1106 0.930 . S
C1112 C1113 1.367 . S
C1112 C1120 1.378 . S
C1113 C1112 1.367 . S
C1113 C1121 1.433 . S
C1114 H1110 0.929 . S
C1114 C1116 1.378 . S
C1114 C1118 1.350 . S
C1115 C1118 1.463 1_455 S
C1115 C1120 1.350 . S
C1115 N1123 1.427 . S
C1116 H1107 0.930 . S
C1116 C1114 1.378 . S
C1116 C1117 1.367 . S
C1117 C1116 1.367 . S
C1117 C1119 1.433 . S
C1118 C1114 1.350 . S
C1118 C1115 1.463 1_655 S
C1118 N1122 1.427 . S
C1119 H1109 0.929 . S
C1119 C1117 1.433 . S
C1119 N1122 1.384 . S
C1120 H1111 0.929 . S
C1120 C1112 1.378 . S
C1120 C1115 1.350 . S
C1121 H1108 0.929 . S
C1121 C1113 1.433 . S
C1121 N1123 1.384 . S
N1122 C1118 1.427 . S
N1122 C1119 1.384 . S
N1123 C1115 1.427 . S
N1123 C1121 1.384 . S
H1124 C1130 0.930 . S
H1125 C1134 0.930 . S
H1126 C1139 0.929 . S
H1127 C1137 0.929 . S
H1128 C1132 0.929 . S
H1129 C1138 0.929 . S
C1130 H1124 0.930 . S
C1130 C1131 1.367 . S
C1130 C1138 1.378 . S
C1131 C1130 1.367 . S
C1131 C1139 1.433 . S
C1132 H1128 0.929 . S
C1132 C1134 1.378 . S
C1132 C1136 1.350 . S
C1133 C1136 1.463 . S
C1133 C1138 1.350 . S
C1133 N1141 1.427 . S
C1134 H1125 0.930 . S
C1134 C1132 1.378 . S
C1134 C1135 1.367 . S
C1135 C1134 1.367 . S
C1135 C1137 1.433 . S
C1136 C1132 1.350 . S
C1136 C1133 1.463 . S
C1136 N1140 1.427 . S
C1137 H1127 0.929 . S
C1137 C1135 1.433 . S
C1137 N1140 1.384 . S
C1138 H1129 0.929 . S
C1138 C1130 1.378 . S
C1138 C1133 1.350 . S
C1139 H1126 0.929 . S
C1139 C1131 1.433 . S
C1139 N1141 1.384 . S
N1140 C1136 1.427 . S
N1140 C1137 1.384 . S
N1141 C1133 1.427 . S
N1141 C1139 1.384 . S
H1142 C1148 0.930 . S
H1143 C1152 0.930 . S
H1144 C1157 0.929 . S
H1145 C1155 0.929 . S
H1146 C1150 0.929 . S
H1147 C1156 0.929 . S
C1148 H1142 0.930 . S
C1148 C1149 1.367 . S
C1148 C1156 1.378 . S
C1149 C1148 1.367 . S
C1149 C1157 1.433 . S
C1150 H1146 0.929 . S
C1150 C1152 1.378 . S
C1150 C1154 1.350 . S
C1151 C1154 1.463 . S
C1151 C1156 1.350 . S
C1151 N1159 1.427 . S
C1152 H1143 0.930 . S
C1152 C1150 1.378 . S
C1152 C1153 1.367 . S
C1153 C1152 1.367 . S
C1153 C1155 1.433 . S
C1154 C1150 1.350 . S
C1154 C1151 1.463 . S
C1154 N1158 1.427 . S
C1155 H1145 0.929 . S
C1155 C1153 1.433 . S
C1155 N1158 1.384 . S
C1156 H1147 0.929 . S
C1156 C1148 1.378 . S
C1156 C1151 1.350 . S
C1157 H1144 0.929 . S
C1157 C1149 1.433 . S
C1157 N1159 1.384 . S
N1158 C1154 1.427 . S
N1158 C1155 1.384 . S
N1159 C1151 1.427 . S
N1159 C1157 1.384 . S
H1160 C1166 0.930 . S
H1161 C1170 0.930 . S
H1162 C1175 0.929 . S
H1163 C1173 0.929 . S
H1164 C1168 0.929 . S
H1165 C1174 0.929 . S
C1166 H1160 0.930 . S
C1166 C1167 1.367 1_554 S
C1166 C1174 1.378 . S
C1167 C1166 1.367 1_556 S
C1167 C1175 1.433 . S
C1168 H1164 0.929 . S
C1168 C1170 1.378 . S
C1168 C1172 1.350 . S
C1169 C1172 1.463 . S
C1169 C1174 1.350 1_556 S
C1169 N1177 1.427 . S
C1170 H1161 0.930 . S
C1170 C1168 1.378 . S
C1170 C1171 1.367 . S
C1171 C1170 1.367 . S
C1171 C1173 1.433 1_556 S
C1172 C1168 1.350 . S
C1172 C1169 1.463 . S
C1172 N1176 1.427 1_556 S
C1173 H1163 0.929 . S
C1173 C1171 1.433 1_554 S
C1173 N1176 1.384 . S
C1174 H1165 0.929 . S
C1174 C1166 1.378 . S
C1174 C1169 1.350 1_554 S
C1175 H1162 0.929 . S
C1175 C1167 1.433 . S
C1175 N1177 1.384 . S
N1176 C1172 1.427 1_554 S
N1176 C1173 1.384 . S
N1177 C1169 1.427 . S
N1177 C1175 1.384 . S
H1178 C1184 0.930 . S
H1179 C1188 0.930 . S
H1180 C1193 0.929 . S
H1181 C1191 0.929 . S
H1182 C1186 0.929 . S
H1183 C1192 0.929 . S
C1184 H1178 0.930 . S
C1184 C1185 1.367 . S
C1184 C1192 1.378 . S
C1185 C1184 1.367 . S
C1185 C1193 1.433 . S
C1186 H1182 0.929 . S
C1186 C1188 1.378 . S
C1186 C1190 1.350 . S
C1187 C1190 1.463 . S
C1187 C1192 1.350 . S
C1187 N1195 1.427 . S
C1188 H1179 0.930 . S
C1188 C1186 1.378 . S
C1188 C1189 1.367 . S
C1189 C1188 1.367 . S
C1189 C1191 1.433 . S
C1190 C1186 1.350 . S
C1190 C1187 1.463 . S
C1190 N1194 1.427 . S
C1191 H1181 0.929 . S
C1191 C1189 1.433 . S
C1191 N1194 1.384 . S
C1192 H1183 0.929 . S
C1192 C1184 1.378 . S
C1192 C1187 1.350 . S
C1193 H1180 0.929 . S
C1193 C1185 1.433 . S
C1193 N1195 1.384 . S
N1194 C1190 1.427 . S
N1194 C1191 1.384 . S
N1195 C1187 1.427 . S
N1195 C1193 1.384 . S
H1196 C1202 0.930 . S
H1197 C1206 0.930 . S
H1198 C1211 0.929 . S
H1199 C1209 0.929 . S
H1200 C1204 0.929 . S
H1201 C1210 0.929 . S
C1202 H1196 0.930 . S
C1202 C1203 1.367 . S
C1202 C1210 1.378 . S
C1203 C1202 1.367 . S
C1203 C1211 1.433 . S
C1204 H1200 0.929 . S
C1204 C1206 1.378 . S
C1204 C1208 1.350 . S
C1205 C1208 1.463 . S
C1205 C1210 1.350 . S
C1205 N1213 1.427 . S
C1206 H1197 0.930 . S
C1206 C1204 1.378 . S
C1206 C1207 1.367 . S
C1207 C1206 1.367 . S
C1207 C1209 1.433 . S
C1208 C1204 1.350 . S
C1208 C1205 1.463 . S
C1208 N1212 1.427 . S
C1209 H1199 0.929 . S
C1209 C1207 1.433 . S
C1209 N1212 1.384 . S
C1210 H1201 0.929 . S
C1210 C1202 1.378 . S
C1210 C1205 1.350 . S
C1211 H1198 0.929 . S
C1211 C1203 1.433 . S
C1211 N1213 1.384 . S
N1212 C1208 1.427 . S
N1212 C1209 1.384 . S
N1213 C1205 1.427 . S
N1213 C1211 1.384 . S
H1214 C1220 0.930 . S
H1215 C1224 0.930 . S
H1216 C1229 0.929 . S
H1217 C1227 0.929 . S
H1218 C1222 0.929 . S
H1219 C1228 0.929 . S
C1220 H1214 0.930 . S
C1220 C1221 1.367 . S
C1220 C1228 1.378 . S
C1221 C1220 1.367 . S
C1221 C1229 1.433 . S
C1222 H1218 0.929 . S
C1222 C1224 1.378 . S
C1222 C1226 1.350 . S
C1223 C1226 1.463 1_655 S
C1223 C1228 1.350 . S
C1223 N1231 1.427 . S
C1224 H1215 0.930 . S
C1224 C1222 1.378 . S
C1224 C1225 1.367 . S
C1225 C1224 1.367 . S
C1225 C1227 1.433 . S
C1226 C1222 1.350 . S
C1226 C1223 1.463 1_455 S
C1226 N1230 1.427 . S
C1227 H1217 0.929 . S
C1227 C1225 1.433 . S
C1227 N1230 1.384 . S
C1228 H1219 0.929 . S
C1228 C1220 1.378 . S
C1228 C1223 1.350 . S
C1229 H1216 0.929 . S
C1229 C1221 1.433 . S
C1229 N1231 1.384 . S
N1230 C1226 1.427 . S
N1230 C1227 1.384 . S
N1231 C1223 1.427 . S
N1231 C1229 1.384 . S
H1232 C1238 0.930 . S
H1233 C1242 0.930 . S
H1234 C1247 0.929 . S
H1235 C1245 0.929 . S
H1236 C1240 0.929 . S
H1237 C1246 0.929 . S
C1238 H1232 0.930 . S
C1238 C1239 1.367 1_554 S
C1238 C1246 1.378 . S
C1239 C1238 1.367 1_556 S
C1239 C1247 1.433 . S
C1240 H1236 0.929 . S
C1240 C1242 1.378 . S
C1240 C1244 1.350 . S
C1241 C1244 1.463 . S
C1241 C1246 1.350 1_556 S
C1241 N1249 1.427 . S
C1242 H1233 0.930 . S
C1242 C1240 1.378 . S
C1242 C1243 1.367 . S
C1243 C1242 1.367 . S
C1243 C1245 1.433 1_556 S
C1244 C1240 1.350 . S
C1244 C1241 1.463 . S
C1244 N1248 1.427 1_556 S
C1245 H1235 0.929 . S
C1245 C1243 1.433 1_554 S
C1245 N1248 1.384 . S
C1246 H1237 0.929 . S
C1246 C1238 1.378 . S
C1246 C1241 1.350 1_554 S
C1247 H1234 0.929 . S
C1247 C1239 1.433 . S
C1247 N1249 1.384 . S
N1248 C1244 1.427 1_554 S
N1248 C1245 1.384 . S
N1249 C1241 1.427 . S
N1249 C1247 1.384 . S
H1250 C1256 0.930 . S
H1251 C1260 0.930 . S
H1252 C1265 0.929 . S
H1253 C1263 0.929 . S
H1254 C1258 0.929 . S
H1255 C1264 0.929 . S
C1256 H1250 0.930 . S
C1256 C1257 1.367 . S
C1256 C1264 1.378 . S
C1257 C1256 1.367 . S
C1257 C1265 1.433 . S
C1258 H1254 0.929 . S
C1258 C1260 1.378 . S
C1258 C1262 1.350 . S
C1259 C1262 1.463 . S
C1259 C1264 1.350 . S
C1259 N1267 1.427 . S
C1260 H1251 0.930 . S
C1260 C1258 1.378 . S
C1260 C1261 1.367 . S
C1261 C1260 1.367 . S
C1261 C1263 1.433 . S
C1262 C1258 1.350 . S
C1262 C1259 1.463 . S
C1262 N1266 1.427 . S
C1263 H1253 0.929 . S
C1263 C1261 1.433 . S
C1263 N1266 1.384 . S
C1264 H1255 0.929 . S
C1264 C1256 1.378 . S
C1264 C1259 1.350 . S
C1265 H1252 0.929 . S
C1265 C1257 1.433 . S
C1265 N1267 1.384 . S
N1266 C1262 1.427 . S
N1266 C1263 1.384 . S
N1267 C1259 1.427 . S
N1267 C1265 1.384 . S
H1268 C1274 0.930 . S
H1269 C1278 0.930 . S
H1270 C1283 0.929 . S
H1271 C1281 0.929 . S
H1272 C1276 0.929 . S
H1273 C1282 0.929 . S
C1274 H1268 0.930 . S
C1274 C1275 1.367 1_556 S
C1274 C1282 1.378 . S
C1275 C1274 1.367 1_554 S
C1275 C1283 1.433 . S
C1276 H1272 0.929 . S
C1276 C1278 1.378 . S
C1276 C1280 1.350 . S
C1277 C1280 1.463 . S
C1277 C1282 1.350 1_554 S
C1277 N1285 1.427 . S
C1278 H1269 0.930 . S
C1278 C1276 1.378 . S
C1278 C1279 1.367 . S
C1279 C1278 1.367 . S
C1279 C1281 1.433 1_554 S
C1280 C1276 1.350 . S
C1280 C1277 1.463 . S
C1280 N1284 1.427 1_554 S
C1281 H1271 0.929 . S
C1281 C1279 1.433 1_556 S
C1281 N1284 1.384 . S
C1282 H1273 0.929 . S
C1282 C1274 1.378 . S
C1282 C1277 1.350 1_556 S
C1283 H1270 0.929 . S
C1283 C1275 1.433 . S
C1283 N1285 1.384 . S
N1284 C1280 1.427 1_556 S
N1284 C1281 1.384 . S
N1285 C1277 1.427 . S
N1285 C1283 1.384 . S
H1286 C1292 0.930 . S
H1287 C1296 0.930 . S
H1288 C1301 0.929 . S
H1289 C1299 0.929 . S
H1290 C1294 0.929 . S
H1291 C1300 0.929 . S
C1292 H1286 0.930 . S
C1292 C1293 1.367 . S
C1292 C1300 1.378 . S
C1293 C1292 1.367 . S
C1293 C1301 1.433 . S
C1294 H1290 0.929 . S
C1294 C1296 1.378 . S
C1294 C1298 1.350 . S
C1295 C1298 1.463 . S
C1295 C1300 1.350 . S
C1295 N1303 1.427 . S
C1296 H1287 0.930 . S
C1296 C1294 1.378 . S
C1296 C1297 1.367 . S
C1297 C1296 1.367 . S
C1297 C1299 1.433 . S
C1298 C1294 1.350 . S
C1298 C1295 1.463 . S
C1298 N1302 1.427 . S
C1299 H1289 0.929 . S
C1299 C1297 1.433 . S
C1299 N1302 1.384 . S
C1300 H1291 0.929 . S
C1300 C1292 1.378 . S
C1300 C1295 1.350 . S
C1301 H1288 0.929 . S
C1301 C1293 1.433 . S
C1301 N1303 1.384 . S
N1302 C1298 1.427 . S
N1302 C1299 1.384 . S
N1303 C1295 1.427 . S
N1303 C1301 1.384 . S
H1304 C1310 0.930 . S
H1305 C1314 0.930 . S
H1306 C1319 0.929 . S
H1307 C1317 0.929 . S
H1308 C1312 0.929 . S
H1309 C1318 0.929 . S
C1310 H1304 0.930 . S
C1310 C1311 1.367 . S
C1310 C1318 1.378 . S
C1311 C1310 1.367 . S
C1311 C1319 1.433 . S
C1312 H1308 0.929 . S
C1312 C1314 1.378 . S
C1312 C1316 1.350 . S
C1313 C1316 1.463 . S
C1313 C1318 1.350 . S
C1313 N1321 1.427 . S
C1314 H1305 0.930 . S
C1314 C1312 1.378 . S
C1314 C1315 1.367 . S
C1315 C1314 1.367 . S
C1315 C1317 1.433 . S
C1316 C1312 1.350 . S
C1316 C1313 1.463 . S
C1316 N1320 1.427 . S
C1317 H1307 0.929 . S
C1317 C1315 1.433 . S
C1317 N1320 1.384 . S
C1318 H1309 0.929 . S
C1318 C1310 1.378 . S
C1318 C1313 1.350 . S
C1319 H1306 0.929 . S
C1319 C1311 1.433 . S
C1319 N1321 1.384 . S
N1320 C1316 1.427 . S
N1320 C1317 1.384 . S
N1321 C1313 1.427 . S
N1321 C1319 1.384 . S
H1322 C1328 0.930 . S
H1323 C1332 0.930 . S
H1324 C1337 0.929 . S
H1325 C1335 0.929 . S
H1326 C1330 0.929 . S
H1327 C1336 0.929 . S
C1328 H1322 0.930 . S
C1328 C1329 1.367 . S
C1328 C1336 1.378 . S
C1329 C1328 1.367 . S
C1329 C1337 1.433 . S
C1330 H1326 0.929 . S
C1330 C1332 1.378 . S
C1330 C1334 1.350 . S
C1331 C1334 1.463 1_455 S
C1331 C1336 1.350 . S
C1331 N1339 1.427 . S
C1332 H1323 0.930 . S
C1332 C1330 1.378 . S
C1332 C1333 1.367 . S
C1333 C1332 1.367 . S
C1333 C1335 1.433 . S
C1334 C1330 1.350 . S
C1334 C1331 1.463 1_655 S
C1334 N1338 1.427 . S
C1335 H1325 0.929 . S
C1335 C1333 1.433 . S
C1335 N1338 1.384 . S
C1336 H1327 0.929 . S
C1336 C1328 1.378 . S
C1336 C1331 1.350 . S
C1337 H1324 0.929 . S
C1337 C1329 1.433 . S
C1337 N1339 1.384 . S
N1338 C1334 1.427 . S
N1338 C1335 1.384 . S
N1339 C1331 1.427 . S
N1339 C1337 1.384 . S
H1340 C1346 0.930 . S
H1341 C1350 0.930 . S
H1342 C1355 0.929 . S
H1343 C1353 0.929 . S
H1344 C1348 0.929 . S
H1345 C1354 0.929 . S
C1346 H1340 0.930 . S
C1346 C1347 1.367 . S
C1346 C1354 1.378 . S
C1347 C1346 1.367 . S
C1347 C1355 1.433 . S
C1348 H1344 0.929 . S
C1348 C1350 1.378 . S
C1348 C1352 1.350 . S
C1349 C1352 1.463 1_455 S
C1349 C1354 1.350 . S
C1349 N1357 1.427 . S
C1350 H1341 0.930 . S
C1350 C1348 1.378 . S
C1350 C1351 1.367 . S
C1351 C1350 1.367 . S
C1351 C1353 1.433 . S
C1352 C1348 1.350 . S
C1352 C1349 1.463 1_655 S
C1352 N1356 1.427 . S
C1353 H1343 0.929 . S
C1353 C1351 1.433 . S
C1353 N1356 1.384 . S
C1354 H1345 0.929 . S
C1354 C1346 1.378 . S
C1354 C1349 1.350 . S
C1355 H1342 0.929 . S
C1355 C1347 1.433 . S
C1355 N1357 1.384 . S
N1356 C1352 1.427 . S
N1356 C1353 1.384 . S
N1357 C1349 1.427 . S
N1357 C1355 1.384 . S
H1358 C1364 0.930 . S
H1359 C1368 0.930 . S
H1360 C1373 0.929 . S
H1361 C1371 0.929 . S
H1362 C1366 0.929 . S
H1363 C1372 0.929 . S
C1364 H1358 0.930 . S
C1364 C1365 1.367 . S
C1364 C1372 1.378 . S
C1365 C1364 1.367 . S
C1365 C1373 1.433 . S
C1366 H1362 0.929 . S
C1366 C1368 1.378 . S
C1366 C1370 1.350 . S
C1367 C1370 1.463 . S
C1367 C1372 1.350 . S
C1367 N1375 1.427 . S
C1368 H1359 0.930 . S
C1368 C1366 1.378 . S
C1368 C1369 1.367 . S
C1369 C1368 1.367 . S
C1369 C1371 1.433 . S
C1370 C1366 1.350 . S
C1370 C1367 1.463 . S
C1370 N1374 1.427 . S
C1371 H1361 0.929 . S
C1371 C1369 1.433 . S
C1371 N1374 1.384 . S
C1372 H1363 0.929 . S
C1372 C1364 1.378 . S
C1372 C1367 1.350 . S
C1373 H1360 0.929 . S
C1373 C1365 1.433 . S
C1373 N1375 1.384 . S
N1374 C1370 1.427 . S
N1374 C1371 1.384 . S
N1375 C1367 1.427 . S
N1375 C1373 1.384 . S
H1376 C1382 0.930 . S
H1377 C1386 0.930 . S
H1378 C1391 0.929 . S
H1379 C1389 0.929 . S
H1380 C1384 0.929 . S
H1381 C1390 0.929 . S
C1382 H1376 0.930 . S
C1382 C1383 1.367 . S
C1382 C1390 1.378 . S
C1383 C1382 1.367 . S
C1383 C1391 1.433 . S
C1384 H1380 0.929 . S
C1384 C1386 1.378 . S
C1384 C1388 1.350 . S
C1385 C1388 1.463 . S
C1385 C1390 1.350 . S
C1385 N1393 1.427 . S
C1386 H1377 0.930 . S
C1386 C1384 1.378 . S
C1386 C1387 1.367 . S
C1387 C1386 1.367 . S
C1387 C1389 1.433 . S
C1388 C1384 1.350 . S
C1388 C1385 1.463 . S
C1388 N1392 1.427 . S
C1389 H1379 0.929 . S
C1389 C1387 1.433 . S
C1389 N1392 1.384 . S
C1390 H1381 0.929 . S
C1390 C1382 1.378 . S
C1390 C1385 1.350 . S
C1391 H1378 0.929 . S
C1391 C1383 1.433 . S
C1391 N1393 1.384 . S
N1392 C1388 1.427 . S
N1392 C1389 1.384 . S
N1393 C1385 1.427 . S
N1393 C1391 1.384 . S
H1394 C1400 0.930 . S
H1395 C1404 0.930 . S
H1396 C1409 0.929 . S
H1397 C1407 0.929 . S
H1398 C1402 0.929 . S
H1399 C1408 0.929 . S
C1400 H1394 0.930 . S
C1400 C1401 1.367 . S
C1400 C1408 1.378 . S
C1401 C1400 1.367 . S
C1401 C1409 1.433 . S
C1402 H1398 0.929 . S
C1402 C1404 1.378 . S
C1402 C1406 1.350 . S
C1403 C1406 1.463 . S
C1403 C1408 1.350 . S
C1403 N1411 1.427 . S
C1404 H1395 0.930 . S
C1404 C1402 1.378 . S
C1404 C1405 1.367 . S
C1405 C1404 1.367 . S
C1405 C1407 1.433 . S
C1406 C1402 1.350 . S
C1406 C1403 1.463 . S
C1406 N1410 1.427 . S
C1407 H1397 0.929 . S
C1407 C1405 1.433 . S
C1407 N1410 1.384 . S
C1408 H1399 0.929 . S
C1408 C1400 1.378 . S
C1408 C1403 1.350 . S
C1409 H1396 0.929 . S
C1409 C1401 1.433 . S
C1409 N1411 1.384 . S
N1410 C1406 1.427 . S
N1410 C1407 1.384 . S
N1411 C1403 1.427 . S
N1411 C1409 1.384 . S
H1412 C1418 0.930 . S
H1413 C1422 0.930 . S
H1414 C1427 0.929 . S
H1415 C1425 0.929 . S
H1416 C1420 0.929 . S
H1417 C1426 0.929 . S
C1418 H1412 0.930 . S
C1418 C1419 1.367 . S
C1418 C1426 1.378 . S
C1419 C1418 1.367 . S
C1419 C1427 1.433 . S
C1420 H1416 0.929 . S
C1420 C1422 1.378 . S
C1420 C1424 1.350 . S
C1421 C1424 1.463 1_556 S
C1421 C1426 1.350 . S
C1421 N1429 1.427 . S
C1422 H1413 0.930 . S
C1422 C1420 1.378 . S
C1422 C1423 1.367 . S
C1423 C1422 1.367 . S
C1423 C1425 1.433 . S
C1424 C1420 1.350 . S
C1424 C1421 1.463 1_554 S
C1424 N1428 1.427 . S
C1425 H1415 0.929 . S
C1425 C1423 1.433 . S
C1425 N1428 1.384 . S
C1426 H1417 0.929 . S
C1426 C1418 1.378 . S
C1426 C1421 1.350 . S
C1427 H1414 0.929 . S
C1427 C1419 1.433 . S
C1427 N1429 1.384 . S
N1428 C1424 1.427 . S
N1428 C1425 1.384 . S
N1429 C1421 1.427 . S
N1429 C1427 1.384 . S
H1430 C1436 0.930 . S
H1431 C1440 0.930 . S
H1432 C1445 0.929 . S
H1433 C1443 0.929 . S
H1434 C1438 0.929 . S
H1435 C1444 0.929 . S
C1436 H1430 0.930 . S
C1436 C1437 1.367 . S
C1436 C1444 1.378 . S
C1437 C1436 1.367 . S
C1437 C1445 1.433 . S
C1438 H1434 0.929 . S
C1438 C1440 1.378 . S
C1438 C1442 1.350 . S
C1439 C1442 1.463 . S
C1439 C1444 1.350 . S
C1439 N1447 1.427 . S
C1440 H1431 0.930 . S
C1440 C1438 1.378 . S
C1440 C1441 1.367 . S
C1441 C1440 1.367 . S
C1441 C1443 1.433 . S
C1442 C1438 1.350 . S
C1442 C1439 1.463 . S
C1442 N1446 1.427 . S
C1443 H1433 0.929 . S
C1443 C1441 1.433 . S
C1443 N1446 1.384 . S
C1444 H1435 0.929 . S
C1444 C1436 1.378 . S
C1444 C1439 1.350 . S
C1445 H1432 0.929 . S
C1445 C1437 1.433 . S
C1445 N1447 1.384 . S
N1446 C1442 1.427 . S
N1446 C1443 1.384 . S
N1447 C1439 1.427 . S
N1447 C1445 1.384 . S
H1448 C1454 0.930 . S
H1449 C1458 0.930 . S
H1450 C1463 0.929 . S
H1451 C1461 0.929 . S
H1452 C1456 0.929 . S
H1453 C1462 0.929 . S
C1454 H1448 0.930 . S
C1454 C1455 1.367 . S
C1454 C1462 1.378 . S
C1455 C1454 1.367 . S
C1455 C1463 1.433 . S
C1456 H1452 0.929 . S
C1456 C1458 1.378 . S
C1456 C1460 1.350 . S
C1457 C1460 1.463 . S
C1457 C1462 1.350 . S
C1457 N1465 1.427 . S
C1458 H1449 0.930 . S
C1458 C1456 1.378 . S
C1458 C1459 1.367 . S
C1459 C1458 1.367 . S
C1459 C1461 1.433 . S
C1460 C1456 1.350 . S
C1460 C1457 1.463 . S
C1460 N1464 1.427 . S
C1461 H1451 0.929 . S
C1461 C1459 1.433 . S
C1461 N1464 1.384 . S
C1462 H1453 0.929 . S
C1462 C1454 1.378 . S
C1462 C1457 1.350 . S
C1463 H1450 0.929 . S
C1463 C1455 1.433 . S
C1463 N1465 1.384 . S
N1464 C1460 1.427 . S
N1464 C1461 1.384 . S
N1465 C1457 1.427 . S
N1465 C1463 1.384 . S
H1466 C1472 0.930 . S
H1467 C1476 0.930 . S
H1468 C1481 0.929 . S
H1469 C1479 0.929 . S
H1470 C1474 0.929 . S
H1471 C1480 0.929 . S
C1472 H1466 0.930 . S
C1472 C1473 1.367 . S
C1472 C1480 1.378 . S
C1473 C1472 1.367 . S
C1473 C1481 1.433 . S
C1474 H1470 0.929 . S
C1474 C1476 1.378 . S
C1474 C1478 1.350 . S
C1475 C1478 1.463 . S
C1475 C1480 1.350 . S
C1475 N1483 1.427 . S
C1476 H1467 0.930 . S
C1476 C1474 1.378 . S
C1476 C1477 1.367 . S
C1477 C1476 1.367 . S
C1477 C1479 1.433 . S
C1478 C1474 1.350 . S
C1478 C1475 1.463 . S
C1478 N1482 1.427 . S
C1479 H1469 0.929 . S
C1479 C1477 1.433 . S
C1479 N1482 1.384 . S
C1480 H1471 0.929 . S
C1480 C1472 1.378 . S
C1480 C1475 1.350 . S
C1481 H1468 0.929 . S
C1481 C1473 1.433 . S
C1481 N1483 1.384 . S
N1482 C1478 1.427 . S
N1482 C1479 1.384 . S
N1483 C1475 1.427 . S
N1483 C1481 1.384 . S
H1484 C1490 0.930 . S
H1485 C1494 0.930 . S
H1486 C1499 0.929 . S
H1487 C1497 0.929 . S
H1488 C1492 0.929 . S
H1489 C1498 0.929 . S
C1490 H1484 0.930 . S
C1490 C1491 1.367 . S
C1490 C1498 1.378 . S
C1491 C1490 1.367 . S
C1491 C1499 1.433 . S
C1492 H1488 0.929 . S
C1492 C1494 1.378 . S
C1492 C1496 1.350 . S
C1493 C1496 1.463 1_556 S
C1493 C1498 1.350 . S
C1493 N1501 1.427 . S
C1494 H1485 0.930 . S
C1494 C1492 1.378 . S
C1494 C1495 1.367 . S
C1495 C1494 1.367 . S
C1495 C1497 1.433 . S
C1496 C1492 1.350 . S
C1496 C1493 1.463 1_554 S
C1496 N1500 1.427 . S
C1497 H1487 0.929 . S
C1497 C1495 1.433 . S
C1497 N1500 1.384 . S
C1498 H1489 0.929 . S
C1498 C1490 1.378 . S
C1498 C1493 1.350 . S
C1499 H1486 0.929 . S
C1499 C1491 1.433 . S
C1499 N1501 1.384 . S
N1500 C1496 1.427 . S
N1500 C1497 1.384 . S
N1501 C1493 1.427 . S
N1501 C1499 1.384 . S
H1502 C1508 0.930 . S
H1503 C1512 0.930 . S
H1504 C1517 0.929 . S
H1505 C1515 0.929 . S
H1506 C1510 0.929 . S
H1507 C1516 0.929 . S
C1508 H1502 0.930 . S
C1508 C1509 1.367 . S
C1508 C1516 1.378 . S
C1509 C1508 1.367 . S
C1509 C1517 1.433 . S
C1510 H1506 0.929 . S
C1510 C1512 1.378 . S
C1510 C1514 1.350 . S
C1511 C1514 1.463 . S
C1511 C1516 1.350 . S
C1511 N1519 1.427 . S
C1512 H1503 0.930 . S
C1512 C1510 1.378 . S
C1512 C1513 1.367 . S
C1513 C1512 1.367 . S
C1513 C1515 1.433 . S
C1514 C1510 1.350 . S
C1514 C1511 1.463 . S
C1514 N1518 1.427 . S
C1515 H1505 0.929 . S
C1515 C1513 1.433 . S
C1515 N1518 1.384 . S
C1516 H1507 0.929 . S
C1516 C1508 1.378 . S
C1516 C1511 1.350 . S
C1517 H1504 0.929 . S
C1517 C1509 1.433 . S
C1517 N1519 1.384 . S
N1518 C1514 1.427 . S
N1518 C1515 1.384 . S
N1519 C1511 1.427 . S
N1519 C1517 1.384 . S
H1520 C1526 0.930 . S
H1521 C1530 0.930 . S
H1522 C1535 0.929 . S
H1523 C1533 0.929 . S
H1524 C1528 0.929 . S
H1525 C1534 0.929 . S
C1526 H1520 0.930 . S
C1526 C1527 1.367 . S
C1526 C1534 1.378 . S
C1527 C1526 1.367 . S
C1527 C1535 1.433 . S
C1528 H1524 0.929 . S
C1528 C1530 1.378 . S
C1528 C1532 1.350 . S
C1529 C1532 1.463 . S
C1529 C1534 1.350 . S
C1529 N1537 1.427 . S
C1530 H1521 0.930 . S
C1530 C1528 1.378 . S
C1530 C1531 1.367 . S
C1531 C1530 1.367 . S
C1531 C1533 1.433 . S
C1532 C1528 1.350 . S
C1532 C1529 1.463 . S
C1532 N1536 1.427 . S
C1533 H1523 0.929 . S
C1533 C1531 1.433 . S
C1533 N1536 1.384 . S
C1534 H1525 0.929 . S
C1534 C1526 1.378 . S
C1534 C1529 1.350 . S
C1535 H1522 0.929 . S
C1535 C1527 1.433 . S
C1535 N1537 1.384 . S
N1536 C1532 1.427 . S
N1536 C1533 1.384 . S
N1537 C1529 1.427 . S
N1537 C1535 1.384 . S
H1538 C1544 0.930 . S
H1539 C1548 0.930 . S
H1540 C1553 0.929 . S
H1541 C1551 0.929 . S
H1542 C1546 0.929 . S
H1543 C1552 0.929 . S
C1544 H1538 0.930 . S
C1544 C1545 1.367 . S
C1544 C1552 1.378 . S
C1545 C1544 1.367 . S
C1545 C1553 1.433 . S
C1546 H1542 0.929 . S
C1546 C1548 1.378 . S
C1546 C1550 1.350 . S
C1547 C1550 1.463 . S
C1547 C1552 1.350 . S
C1547 N1555 1.427 . S
C1548 H1539 0.930 . S
C1548 C1546 1.378 . S
C1548 C1549 1.367 . S
C1549 C1548 1.367 . S
C1549 C1551 1.433 . S
C1550 C1546 1.350 . S
C1550 C1547 1.463 . S
C1550 N1554 1.427 . S
C1551 H1541 0.929 . S
C1551 C1549 1.433 . S
C1551 N1554 1.384 . S
C1552 H1543 0.929 . S
C1552 C1544 1.378 . S
C1552 C1547 1.350 . S
C1553 H1540 0.929 . S
C1553 C1545 1.433 . S
C1553 N1555 1.384 . S
N1554 C1550 1.427 . S
N1554 C1551 1.384 . S
N1555 C1547 1.427 . S
N1555 C1553 1.384 . S
H1556 C1562 0.930 . S
H1557 C1566 0.930 . S
H1558 C1571 0.929 . S
H1559 C1569 0.929 . S
H1560 C1564 0.929 . S
H1561 C1570 0.929 . S
C1562 H1556 0.930 . S
C1562 C1563 1.367 . S
C1562 C1570 1.378 . S
C1563 C1562 1.367 . S
C1563 C1571 1.433 . S
C1564 H1560 0.929 . S
C1564 C1566 1.378 . S
C1564 C1568 1.350 . S
C1565 C1568 1.463 1_554 S
C1565 C1570 1.350 . S
C1565 N1573 1.427 . S
C1566 H1557 0.930 . S
C1566 C1564 1.378 . S
C1566 C1567 1.367 . S
C1567 C1566 1.367 . S
C1567 C1569 1.433 . S
C1568 C1564 1.350 . S
C1568 C1565 1.463 1_556 S
C1568 N1572 1.427 . S
C1569 H1559 0.929 . S
C1569 C1567 1.433 . S
C1569 N1572 1.384 . S
C1570 H1561 0.929 . S
C1570 C1562 1.378 . S
C1570 C1565 1.350 . S
C1571 H1558 0.929 . S
C1571 C1563 1.433 . S
C1571 N1573 1.384 . S
N1572 C1568 1.427 . S
N1572 C1569 1.384 . S
N1573 C1565 1.427 . S
N1573 C1571 1.384 . S
H1574 C1580 0.930 . S
H1575 C1584 0.930 . S
H1576 C1589 0.929 . S
H1577 C1587 0.929 . S
H1578 C1582 0.929 . S
H1579 C1588 0.929 . S
C1580 H1574 0.930 . S
C1580 C1581 1.367 . S
C1580 C1588 1.378 . S
C1581 C1580 1.367 . S
C1581 C1589 1.433 . S
C1582 H1578 0.929 . S
C1582 C1584 1.378 . S
C1582 C1586 1.350 . S
C1583 C1586 1.463 . S
C1583 C1588 1.350 . S
C1583 N1591 1.427 . S
C1584 H1575 0.930 . S
C1584 C1582 1.378 . S
C1584 C1585 1.367 . S
C1585 C1584 1.367 . S
C1585 C1587 1.433 . S
C1586 C1582 1.350 . S
C1586 C1583 1.463 . S
C1586 N1590 1.427 . S
C1587 H1577 0.929 . S
C1587 C1585 1.433 . S
C1587 N1590 1.384 . S
C1588 H1579 0.929 . S
C1588 C1580 1.378 . S
C1588 C1583 1.350 . S
C1589 H1576 0.929 . S
C1589 C1581 1.433 . S
C1589 N1591 1.384 . S
N1590 C1586 1.427 . S
N1590 C1587 1.384 . S
N1591 C1583 1.427 . S
N1591 C1589 1.384 . S
H1592 C1598 0.930 . S
H1593 C1602 0.930 . S
H1594 C1607 0.929 . S
H1595 C1605 0.929 . S
H1596 C1600 0.929 . S
H1597 C1606 0.929 . S
C1598 H1592 0.930 . S
C1598 C1599 1.367 . S
C1598 C1606 1.378 . S
C1599 C1598 1.367 . S
C1599 C1607 1.433 . S
C1600 H1596 0.929 . S
C1600 C1602 1.378 . S
C1600 C1604 1.350 . S
C1601 C1604 1.463 . S
C1601 C1606 1.350 . S
C1601 N1609 1.427 . S
C1602 H1593 0.930 . S
C1602 C1600 1.378 . S
C1602 C1603 1.367 . S
C1603 C1602 1.367 . S
C1603 C1605 1.433 . S
C1604 C1600 1.350 . S
C1604 C1601 1.463 . S
C1604 N1608 1.427 . S
C1605 H1595 0.929 . S
C1605 C1603 1.433 . S
C1605 N1608 1.384 . S
C1606 H1597 0.929 . S
C1606 C1598 1.378 . S
C1606 C1601 1.350 . S
C1607 H1594 0.929 . S
C1607 C1599 1.433 . S
C1607 N1609 1.384 . S
N1608 C1604 1.427 . S
N1608 C1605 1.384 . S
N1609 C1601 1.427 . S
N1609 C1607 1.384 . S
H1610 C1616 0.930 . S
H1611 C1620 0.930 . S
H1612 C1625 0.929 . S
H1613 C1623 0.929 . S
H1614 C1618 0.929 . S
H1615 C1624 0.929 . S
C1616 H1610 0.930 . S
C1616 C1617 1.367 . S
C1616 C1624 1.378 . S
C1617 C1616 1.367 . S
C1617 C1625 1.433 . S
C1618 H1614 0.929 . S
C1618 C1620 1.378 . S
C1618 C1622 1.350 . S
C1619 C1622 1.463 . S
C1619 C1624 1.350 . S
C1619 N1627 1.427 . S
C1620 H1611 0.930 . S
C1620 C1618 1.378 . S
C1620 C1621 1.367 . S
C1621 C1620 1.367 . S
C1621 C1623 1.433 . S
C1622 C1618 1.350 . S
C1622 C1619 1.463 . S
C1622 N1626 1.427 . S
C1623 H1613 0.929 . S
C1623 C1621 1.433 . S
C1623 N1626 1.384 . S
C1624 H1615 0.929 . S
C1624 C1616 1.378 . S
C1624 C1619 1.350 . S
C1625 H1612 0.929 . S
C1625 C1617 1.433 . S
C1625 N1627 1.384 . S
N1626 C1622 1.427 . S
N1626 C1623 1.384 . S
N1627 C1619 1.427 . S
N1627 C1625 1.384 . S
H1628 C1634 0.930 . S
H1629 C1638 0.930 . S
H1630 C1643 0.929 . S
H1631 C1641 0.929 . S
H1632 C1636 0.929 . S
H1633 C1642 0.929 . S
C1634 H1628 0.930 . S
C1634 C1635 1.367 . S
C1634 C1642 1.378 . S
C1635 C1634 1.367 . S
C1635 C1643 1.433 . S
C1636 H1632 0.929 . S
C1636 C1638 1.378 . S
C1636 C1640 1.350 . S
C1637 C1640 1.463 1_556 S
C1637 C1642 1.350 . S
C1637 N1645 1.427 . S
C1638 H1629 0.930 . S
C1638 C1636 1.378 . S
C1638 C1639 1.367 . S
C1639 C1638 1.367 . S
C1639 C1641 1.433 . S
C1640 C1636 1.350 . S
C1640 C1637 1.463 1_554 S
C1640 N1644 1.427 . S
C1641 H1631 0.929 . S
C1641 C1639 1.433 . S
C1641 N1644 1.384 . S
C1642 H1633 0.929 . S
C1642 C1634 1.378 . S
C1642 C1637 1.350 . S
C1643 H1630 0.929 . S
C1643 C1635 1.433 . S
C1643 N1645 1.384 . S
N1644 C1640 1.427 . S
N1644 C1641 1.384 . S
N1645 C1637 1.427 . S
N1645 C1643 1.384 . S
H1646 C1652 0.930 . S
H1647 C1656 0.930 . S
H1648 C1661 0.929 . S
H1649 C1659 0.929 . S
H1650 C1654 0.929 . S
H1651 C1660 0.929 . S
C1652 H1646 0.930 . S
C1652 C1653 1.367 . S
C1652 C1660 1.378 . S
C1653 C1652 1.367 . S
C1653 C1661 1.433 . S
C1654 H1650 0.929 . S
C1654 C1656 1.378 . S
C1654 C1658 1.350 . S
C1655 C1658 1.463 . S
C1655 C1660 1.350 . S
C1655 N1663 1.427 . S
C1656 H1647 0.930 . S
C1656 C1654 1.378 . S
C1656 C1657 1.367 . S
C1657 C1656 1.367 . S
C1657 C1659 1.433 . S
C1658 C1654 1.350 . S
C1658 C1655 1.463 . S
C1658 N1662 1.427 . S
C1659 H1649 0.929 . S
C1659 C1657 1.433 . S
C1659 N1662 1.384 . S
C1660 H1651 0.929 . S
C1660 C1652 1.378 . S
C1660 C1655 1.350 . S
C1661 H1648 0.929 . S
C1661 C1653 1.433 . S
C1661 N1663 1.384 . S
N1662 C1658 1.427 . S
N1662 C1659 1.384 . S
N1663 C1655 1.427 . S
N1663 C1661 1.384 . S
H1664 C1670 0.930 . S
H1665 C1674 0.930 . S
H1666 C1679 0.929 . S
H1667 C1677 0.929 . S
H1668 C1672 0.929 . S
H1669 C1678 0.929 . S
C1670 H1664 0.930 . S
C1670 C1671 1.367 . S
C1670 C1678 1.378 . S
C1671 C1670 1.367 . S
C1671 C1679 1.433 . S
C1672 H1668 0.929 . S
C1672 C1674 1.378 . S
C1672 C1676 1.350 . S
C1673 C1676 1.463 1_554 S
C1673 C1678 1.350 . S
C1673 N1681 1.427 . S
C1674 H1665 0.930 . S
C1674 C1672 1.378 . S
C1674 C1675 1.367 . S
C1675 C1674 1.367 . S
C1675 C1677 1.433 . S
C1676 C1672 1.350 . S
C1676 C1673 1.463 1_556 S
C1676 N1680 1.427 . S
C1677 H1667 0.929 . S
C1677 C1675 1.433 . S
C1677 N1680 1.384 . S
C1678 H1669 0.929 . S
C1678 C1670 1.378 . S
C1678 C1673 1.350 . S
C1679 H1666 0.929 . S
C1679 C1671 1.433 . S
C1679 N1681 1.384 . S
N1680 C1676 1.427 . S
N1680 C1677 1.384 . S
N1681 C1673 1.427 . S
N1681 C1679 1.384 . S
H1682 C1688 0.930 . S
H1683 C1692 0.930 . S
H1684 C1697 0.929 . S
H1685 C1695 0.929 . S
H1686 C1690 0.929 . S
H1687 C1696 0.929 . S
C1688 H1682 0.930 . S
C1688 C1689 1.367 . S
C1688 C1696 1.378 . S
C1689 C1688 1.367 . S
C1689 C1697 1.433 . S
C1690 H1686 0.929 . S
C1690 C1692 1.378 . S
C1690 C1694 1.350 . S
C1691 C1694 1.463 . S
C1691 C1696 1.350 . S
C1691 N1699 1.427 . S
C1692 H1683 0.930 . S
C1692 C1690 1.378 . S
C1692 C1693 1.367 . S
C1693 C1692 1.367 . S
C1693 C1695 1.433 . S
C1694 C1690 1.350 . S
C1694 C1691 1.463 . S
C1694 N1698 1.427 . S
C1695 H1685 0.929 . S
C1695 C1693 1.433 . S
C1695 N1698 1.384 . S
C1696 H1687 0.929 . S
C1696 C1688 1.378 . S
C1696 C1691 1.350 . S
C1697 H1684 0.929 . S
C1697 C1689 1.433 . S
C1697 N1699 1.384 . S
N1698 C1694 1.427 . S
N1698 C1695 1.384 . S
N1699 C1691 1.427 . S
N1699 C1697 1.384 . S
H1700 C1706 0.930 . S
H1701 C1710 0.930 . S
H1702 C1715 0.929 . S
H1703 C1713 0.929 . S
H1704 C1708 0.929 . S
H1705 C1714 0.929 . S
C1706 H1700 0.930 . S
C1706 C1707 1.367 . S
C1706 C1714 1.378 . S
C1707 C1706 1.367 . S
C1707 C1715 1.433 . S
C1708 H1704 0.929 . S
C1708 C1710 1.378 . S
C1708 C1712 1.350 . S
C1709 C1712 1.463 . S
C1709 C1714 1.350 . S
C1709 N1717 1.427 . S
C1710 H1701 0.930 . S
C1710 C1708 1.378 . S
C1710 C1711 1.367 . S
C1711 C1710 1.367 . S
C1711 C1713 1.433 . S
C1712 C1708 1.350 . S
C1712 C1709 1.463 . S
C1712 N1716 1.427 . S
C1713 H1703 0.929 . S
C1713 C1711 1.433 . S
C1713 N1716 1.384 . S
C1714 H1705 0.929 . S
C1714 C1706 1.378 . S
C1714 C1709 1.350 . S
C1715 H1702 0.929 . S
C1715 C1707 1.433 . S
C1715 N1717 1.384 . S
N1716 C1712 1.427 . S
N1716 C1713 1.384 . S
N1717 C1709 1.427 . S
N1717 C1715 1.384 . S
H1718 C1724 0.930 . S
H1719 C1728 0.930 . S
H1720 C1733 0.929 . S
H1721 C1731 0.929 . S
H1722 C1726 0.929 . S
H1723 C1732 0.929 . S
C1724 H1718 0.930 . S
C1724 C1725 1.367 . S
C1724 C1732 1.378 . S
C1725 C1724 1.367 . S
C1725 C1733 1.433 . S
C1726 H1722 0.929 . S
C1726 C1728 1.378 . S
C1726 C1730 1.350 . S
C1727 C1730 1.463 . S
C1727 C1732 1.350 . S
C1727 N1735 1.427 . S
C1728 H1719 0.930 . S
C1728 C1726 1.378 . S
C1728 C1729 1.367 . S
C1729 C1728 1.367 . S
C1729 C1731 1.433 . S
C1730 C1726 1.350 . S
C1730 C1727 1.463 . S
C1730 N1734 1.427 . S
C1731 H1721 0.929 . S
C1731 C1729 1.433 . S
C1731 N1734 1.384 . S
C1732 H1723 0.929 . S
C1732 C1724 1.378 . S
C1732 C1727 1.350 . S
C1733 H1720 0.929 . S
C1733 C1725 1.433 . S
C1733 N1735 1.384 . S
N1734 C1730 1.427 . S
N1734 C1731 1.384 . S
N1735 C1727 1.427 . S
N1735 C1733 1.384 . S
H1736 C1742 0.930 . S
H1737 C1746 0.930 . S
H1738 C1751 0.929 . S
H1739 C1749 0.929 . S
H1740 C1744 0.929 . S
H1741 C1750 0.929 . S
C1742 H1736 0.930 . S
C1742 C1743 1.367 . S
C1742 C1750 1.378 . S
C1743 C1742 1.367 . S
C1743 C1751 1.433 . S
C1744 H1740 0.929 . S
C1744 C1746 1.378 . S
C1744 C1748 1.350 . S
C1745 C1748 1.463 1_556 S
C1745 C1750 1.350 . S
C1745 N1753 1.427 . S
C1746 H1737 0.930 . S
C1746 C1744 1.378 . S
C1746 C1747 1.367 . S
C1747 C1746 1.367 . S
C1747 C1749 1.433 . S
C1748 C1744 1.350 . S
C1748 C1745 1.463 1_554 S
C1748 N1752 1.427 . S
C1749 H1739 0.929 . S
C1749 C1747 1.433 . S
C1749 N1752 1.384 . S
C1750 H1741 0.929 . S
C1750 C1742 1.378 . S
C1750 C1745 1.350 . S
C1751 H1738 0.929 . S
C1751 C1743 1.433 . S
C1751 N1753 1.384 . S
N1752 C1748 1.427 . S
N1752 C1749 1.384 . S
N1753 C1745 1.427 . S
N1753 C1751 1.384 . S
H1754 C1760 0.930 . S
H1755 C1764 0.930 . S
H1756 C1769 0.929 . S
H1757 C1767 0.929 . S
H1758 C1762 0.929 . S
H1759 C1768 0.929 . S
C1760 H1754 0.930 . S
C1760 C1761 1.367 . S
C1760 C1768 1.378 . S
C1761 C1760 1.367 . S
C1761 C1769 1.433 . S
C1762 H1758 0.929 . S
C1762 C1764 1.378 . S
C1762 C1766 1.350 . S
C1763 C1766 1.463 . S
C1763 C1768 1.350 . S
C1763 N1771 1.427 . S
C1764 H1755 0.930 . S
C1764 C1762 1.378 . S
C1764 C1765 1.367 . S
C1765 C1764 1.367 . S
C1765 C1767 1.433 . S
C1766 C1762 1.350 . S
C1766 C1763 1.463 . S
C1766 N1770 1.427 . S
C1767 H1757 0.929 . S
C1767 C1765 1.433 . S
C1767 N1770 1.384 . S
C1768 H1759 0.929 . S
C1768 C1760 1.378 . S
C1768 C1763 1.350 . S
C1769 H1756 0.929 . S
C1769 C1761 1.433 . S
C1769 N1771 1.384 . S
N1770 C1766 1.427 . S
N1770 C1767 1.384 . S
N1771 C1763 1.427 . S
N1771 C1769 1.384 . S
H1772 C1778 0.930 . S
H1773 C1782 0.930 . S
H1774 C1787 0.929 . S
H1775 C1785 0.929 . S
H1776 C1780 0.929 . S
H1777 C1786 0.929 . S
C1778 H1772 0.930 . S
C1778 C1779 1.367 . S
C1778 C1786 1.378 . S
C1779 C1778 1.367 . S
C1779 C1787 1.433 . S
C1780 H1776 0.929 . S
C1780 C1782 1.378 . S
C1780 C1784 1.350 . S
C1781 C1784 1.463 . S
C1781 C1786 1.350 . S
C1781 N1789 1.427 . S
C1782 H1773 0.930 . S
C1782 C1780 1.378 . S
C1782 C1783 1.367 . S
C1783 C1782 1.367 . S
C1783 C1785 1.433 . S
C1784 C1780 1.350 . S
C1784 C1781 1.463 . S
C1784 N1788 1.427 . S
C1785 H1775 0.929 . S
C1785 C1783 1.433 . S
C1785 N1788 1.384 . S
C1786 H1777 0.929 . S
C1786 C1778 1.378 . S
C1786 C1781 1.350 . S
C1787 H1774 0.929 . S
C1787 C1779 1.433 . S
C1787 N1789 1.384 . S
N1788 C1784 1.427 . S
N1788 C1785 1.384 . S
N1789 C1781 1.427 . S
N1789 C1787 1.384 . S
H1790 C1796 0.930 . S
H1791 C1800 0.930 . S
H1792 C1805 0.929 . S
H1793 C1803 0.929 . S
H1794 C1798 0.929 . S
H1795 C1804 0.929 . S
C1796 H1790 0.930 . S
C1796 C1797 1.367 . S
C1796 C1804 1.378 . S
C1797 C1796 1.367 . S
C1797 C1805 1.433 . S
C1798 H1794 0.929 . S
C1798 C1800 1.378 . S
C1798 C1802 1.350 . S
C1799 C1802 1.463 . S
C1799 C1804 1.350 . S
C1799 N1807 1.427 . S
C1800 H1791 0.930 . S
C1800 C1798 1.378 . S
C1800 C1801 1.367 . S
C1801 C1800 1.367 . S
C1801 C1803 1.433 . S
C1802 C1798 1.350 . S
C1802 C1799 1.463 . S
C1802 N1806 1.427 . S
C1803 H1793 0.929 . S
C1803 C1801 1.433 . S
C1803 N1806 1.384 . S
C1804 H1795 0.929 . S
C1804 C1796 1.378 . S
C1804 C1799 1.350 . S
C1805 H1792 0.929 . S
C1805 C1797 1.433 . S
C1805 N1807 1.384 . S
N1806 C1802 1.427 . S
N1806 C1803 1.384 . S
N1807 C1799 1.427 . S
N1807 C1805 1.384 . S
H1808 C1814 0.930 . S
H1809 C1818 0.930 . S
H1810 C1823 0.929 . S
H1811 C1821 0.929 . S
H1812 C1816 0.929 . S
H1813 C1822 0.929 . S
C1814 H1808 0.930 . S
C1814 C1815 1.367 . S
C1814 C1822 1.378 . S
C1815 C1814 1.367 . S
C1815 C1823 1.433 . S
C1816 H1812 0.929 . S
C1816 C1818 1.378 . S
C1816 C1820 1.350 . S
C1817 C1820 1.463 1_556 S
C1817 C1822 1.350 . S
C1817 N1825 1.427 . S
C1818 H1809 0.930 . S
C1818 C1816 1.378 . S
C1818 C1819 1.367 . S
C1819 C1818 1.367 . S
C1819 C1821 1.433 . S
C1820 C1816 1.350 . S
C1820 C1817 1.463 1_554 S
C1820 N1824 1.427 . S
C1821 H1811 0.929 . S
C1821 C1819 1.433 . S
C1821 N1824 1.384 . S
C1822 H1813 0.929 . S
C1822 C1814 1.378 . S
C1822 C1817 1.350 . S
C1823 H1810 0.929 . S
C1823 C1815 1.433 . S
C1823 N1825 1.384 . S
N1824 C1820 1.427 . S
N1824 C1821 1.384 . S
N1825 C1817 1.427 . S
N1825 C1823 1.384 . S
H1826 C1832 0.930 . S
H1827 C1836 0.930 . S
H1828 C1841 0.929 . S
H1829 C1839 0.929 . S
H1830 C1834 0.929 . S
H1831 C1840 0.929 . S
C1832 H1826 0.930 . S
C1832 C1833 1.367 . S
C1832 C1840 1.378 . S
C1833 C1832 1.367 . S
C1833 C1841 1.433 . S
C1834 H1830 0.929 . S
C1834 C1836 1.378 . S
C1834 C1838 1.350 . S
C1835 C1838 1.463 . S
C1835 C1840 1.350 . S
C1835 N1843 1.427 . S
C1836 H1827 0.930 . S
C1836 C1834 1.378 . S
C1836 C1837 1.367 . S
C1837 C1836 1.367 . S
C1837 C1839 1.433 . S
C1838 C1834 1.350 . S
C1838 C1835 1.463 . S
C1838 N1842 1.427 . S
C1839 H1829 0.929 . S
C1839 C1837 1.433 . S
C1839 N1842 1.384 . S
C1840 H1831 0.929 . S
C1840 C1832 1.378 . S
C1840 C1835 1.350 . S
C1841 H1828 0.929 . S
C1841 C1833 1.433 . S
C1841 N1843 1.384 . S
N1842 C1838 1.427 . S
N1842 C1839 1.384 . S
N1843 C1835 1.427 . S
N1843 C1841 1.384 . S
H1844 C1850 0.930 . S
H1845 C1854 0.930 . S
H1846 C1859 0.929 . S
H1847 C1857 0.929 . S
H1848 C1852 0.929 . S
H1849 C1858 0.929 . S
C1850 H1844 0.930 . S
C1850 C1851 1.367 . S
C1850 C1858 1.378 . S
C1851 C1850 1.367 . S
C1851 C1859 1.433 . S
C1852 H1848 0.929 . S
C1852 C1854 1.378 . S
C1852 C1856 1.350 . S
C1853 C1856 1.463 . S
C1853 C1858 1.350 . S
C1853 N1861 1.427 . S
C1854 H1845 0.930 . S
C1854 C1852 1.378 . S
C1854 C1855 1.367 . S
C1855 C1854 1.367 . S
C1855 C1857 1.433 . S
C1856 C1852 1.350 . S
C1856 C1853 1.463 . S
C1856 N1860 1.427 . S
C1857 H1847 0.929 . S
C1857 C1855 1.433 . S
C1857 N1860 1.384 . S
C1858 H1849 0.929 . S
C1858 C1850 1.378 . S
C1858 C1853 1.350 . S
C1859 H1846 0.929 . S
C1859 C1851 1.433 . S
C1859 N1861 1.384 . S
N1860 C1856 1.427 . S
N1860 C1857 1.384 . S
N1861 C1853 1.427 . S
N1861 C1859 1.384 . S
H1862 C1868 0.930 . S
H1863 C1872 0.930 . S
H1864 C1877 0.929 . S
H1865 C1875 0.929 . S
H1866 C1870 0.929 . S
H1867 C1876 0.929 . S
C1868 H1862 0.930 . S
C1868 C1869 1.367 . S
C1868 C1876 1.378 . S
C1869 C1868 1.367 . S
C1869 C1877 1.433 . S
C1870 H1866 0.929 . S
C1870 C1872 1.378 . S
C1870 C1874 1.350 . S
C1871 C1874 1.463 . S
C1871 C1876 1.350 . S
C1871 N1879 1.427 . S
C1872 H1863 0.930 . S
C1872 C1870 1.378 . S
C1872 C1873 1.367 . S
C1873 C1872 1.367 . S
C1873 C1875 1.433 . S
C1874 C1870 1.350 . S
C1874 C1871 1.463 . S
C1874 N1878 1.427 . S
C1875 H1865 0.929 . S
C1875 C1873 1.433 . S
C1875 N1878 1.384 . S
C1876 H1867 0.929 . S
C1876 C1868 1.378 . S
C1876 C1871 1.350 . S
C1877 H1864 0.929 . S
C1877 C1869 1.433 . S
C1877 N1879 1.384 . S
N1878 C1874 1.427 . S
N1878 C1875 1.384 . S
N1879 C1871 1.427 . S
N1879 C1877 1.384 . S
H1880 C1886 0.930 . S
H1881 C1890 0.930 . S
H1882 C1895 0.929 . S
H1883 C1893 0.929 . S
H1884 C1888 0.929 . S
H1885 C1894 0.929 . S
C1886 H1880 0.930 . S
C1886 C1887 1.367 . S
C1886 C1894 1.378 . S
C1887 C1886 1.367 . S
C1887 C1895 1.433 . S
C1888 H1884 0.929 . S
C1888 C1890 1.378 . S
C1888 C1892 1.350 . S
C1889 C1892 1.463 1_554 S
C1889 C1894 1.350 . S
C1889 N1897 1.427 . S
C1890 H1881 0.930 . S
C1890 C1888 1.378 . S
C1890 C1891 1.367 . S
C1891 C1890 1.367 . S
C1891 C1893 1.433 . S
C1892 C1888 1.350 . S
C1892 C1889 1.463 1_556 S
C1892 N1896 1.427 . S
C1893 H1883 0.929 . S
C1893 C1891 1.433 . S
C1893 N1896 1.384 . S
C1894 H1885 0.929 . S
C1894 C1886 1.378 . S
C1894 C1889 1.350 . S
C1895 H1882 0.929 . S
C1895 C1887 1.433 . S
C1895 N1897 1.384 . S
N1896 C1892 1.427 . S
N1896 C1893 1.384 . S
N1897 C1889 1.427 . S
N1897 C1895 1.384 . S
H1898 C1904 0.930 . S
H1899 C1908 0.930 . S
H1900 C1913 0.929 . S
H1901 C1911 0.929 . S
H1902 C1906 0.929 . S
H1903 C1912 0.929 . S
C1904 H1898 0.930 . S
C1904 C1905 1.367 . S
C1904 C1912 1.378 . S
C1905 C1904 1.367 . S
C1905 C1913 1.433 . S
C1906 H1902 0.929 . S
C1906 C1908 1.378 . S
C1906 C1910 1.350 . S
C1907 C1910 1.463 . S
C1907 C1912 1.350 . S
C1907 N1915 1.427 . S
C1908 H1899 0.930 . S
C1908 C1906 1.378 . S
C1908 C1909 1.367 . S
C1909 C1908 1.367 . S
C1909 C1911 1.433 . S
C1910 C1906 1.350 . S
C1910 C1907 1.463 . S
C1910 N1914 1.427 . S
C1911 H1901 0.929 . S
C1911 C1909 1.433 . S
C1911 N1914 1.384 . S
C1912 H1903 0.929 . S
C1912 C1904 1.378 . S
C1912 C1907 1.350 . S
C1913 H1900 0.929 . S
C1913 C1905 1.433 . S
C1913 N1915 1.384 . S
N1914 C1910 1.427 . S
N1914 C1911 1.384 . S
N1915 C1907 1.427 . S
N1915 C1913 1.384 . S
H1916 C1922 0.930 . S
H1917 C1926 0.930 . S
H1918 C1931 0.929 . S
H1919 C1929 0.929 . S
H1920 C1924 0.929 . S
H1921 C1930 0.929 . S
C1922 H1916 0.930 . S
C1922 C1923 1.367 . S
C1922 C1930 1.378 . S
C1923 C1922 1.367 . S
C1923 C1931 1.433 . S
C1924 H1920 0.929 . S
C1924 C1926 1.378 . S
C1924 C1928 1.350 . S
C1925 C1928 1.463 . S
C1925 C1930 1.350 . S
C1925 N1933 1.427 . S
C1926 H1917 0.930 . S
C1926 C1924 1.378 . S
C1926 C1927 1.367 . S
C1927 C1926 1.367 . S
C1927 C1929 1.433 . S
C1928 C1924 1.350 . S
C1928 C1925 1.463 . S
C1928 N1932 1.427 . S
C1929 H1919 0.929 . S
C1929 C1927 1.433 . S
C1929 N1932 1.384 . S
C1930 H1921 0.929 . S
C1930 C1922 1.378 . S
C1930 C1925 1.350 . S
C1931 H1918 0.929 . S
C1931 C1923 1.433 . S
C1931 N1933 1.384 . S
N1932 C1928 1.427 . S
N1932 C1929 1.384 . S
N1933 C1925 1.427 . S
N1933 C1931 1.384 . S
H1934 C1940 0.930 . S
H1935 C1944 0.930 . S
H1936 C1949 0.929 . S
H1937 C1947 0.929 . S
H1938 C1942 0.929 . S
H1939 C1948 0.929 . S
C1940 H1934 0.930 . S
C1940 C1941 1.367 . S
C1940 C1948 1.378 . S
C1941 C1940 1.367 . S
C1941 C1949 1.433 . S
C1942 H1938 0.929 . S
C1942 C1944 1.378 . S
C1942 C1946 1.350 . S
C1943 C1946 1.463 . S
C1943 C1948 1.350 . S
C1943 N1951 1.427 . S
C1944 H1935 0.930 . S
C1944 C1942 1.378 . S
C1944 C1945 1.367 . S
C1945 C1944 1.367 . S
C1945 C1947 1.433 . S
C1946 C1942 1.350 . S
C1946 C1943 1.463 . S
C1946 N1950 1.427 . S
C1947 H1937 0.929 . S
C1947 C1945 1.433 . S
C1947 N1950 1.384 . S
C1948 H1939 0.929 . S
C1948 C1940 1.378 . S
C1948 C1943 1.350 . S
C1949 H1936 0.929 . S
C1949 C1941 1.433 . S
C1949 N1951 1.384 . S
N1950 C1946 1.427 . S
N1950 C1947 1.384 . S
N1951 C1943 1.427 . S
N1951 C1949 1.384 . S
H1952 C1958 0.930 . S
H1953 C1962 0.930 . S
H1954 C1967 0.929 . S
H1955 C1965 0.929 . S
H1956 C1960 0.929 . S
H1957 C1966 0.929 . S
C1958 H1952 0.930 . S
C1958 C1959 1.367 . S
C1958 C1966 1.378 . S
C1959 C1958 1.367 . S
C1959 C1967 1.433 . S
C1960 H1956 0.929 . S
C1960 C1962 1.378 . S
C1960 C1964 1.350 . S
C1961 C1964 1.463 . S
C1961 C1966 1.350 . S
C1961 N1969 1.427 . S
C1962 H1953 0.930 . S
C1962 C1960 1.378 . S
C1962 C1963 1.367 . S
C1963 C1962 1.367 . S
C1963 C1965 1.433 . S
C1964 C1960 1.350 . S
C1964 C1961 1.463 . S
C1964 N1968 1.427 . S
C1965 H1955 0.929 . S
C1965 C1963 1.433 . S
C1965 N1968 1.384 . S
C1966 H1957 0.929 . S
C1966 C1958 1.378 . S
C1966 C1961 1.350 . S
C1967 H1954 0.929 . S
C1967 C1959 1.433 . S
C1967 N1969 1.384 . S
N1968 C1964 1.427 . S
N1968 C1965 1.384 . S
N1969 C1961 1.427 . S
N1969 C1967 1.384 . S
H1970 C1976 0.930 . S
H1971 C1980 0.930 . S
H1972 C1985 0.929 . S
H1973 C1983 0.929 . S
H1974 C1978 0.929 . S
H1975 C1984 0.929 . S
C1976 H1970 0.930 . S
C1976 C1977 1.367 . S
C1976 C1984 1.378 . S
C1977 C1976 1.367 . S
C1977 C1985 1.433 . S
C1978 H1974 0.929 . S
C1978 C1980 1.378 . S
C1978 C1982 1.350 . S
C1979 C1982 1.463 1_545 S
C1979 C1984 1.350 . S
C1979 N1987 1.427 . S
C1980 H1971 0.930 . S
C1980 C1978 1.378 . S
C1980 C1981 1.367 . S
C1981 C1980 1.367 . S
C1981 C1983 1.433 . S
C1982 C1978 1.350 . S
C1982 C1979 1.463 1_565 S
C1982 N1986 1.427 . S
C1983 H1973 0.929 . S
C1983 C1981 1.433 . S
C1983 N1986 1.384 . S
C1984 H1975 0.929 . S
C1984 C1976 1.378 . S
C1984 C1979 1.350 . S
C1985 H1972 0.929 . S
C1985 C1977 1.433 . S
C1985 N1987 1.384 . S
N1986 C1982 1.427 . S
N1986 C1983 1.384 . S
N1987 C1979 1.427 . S
N1987 C1985 1.384 . S
H1988 C1994 0.930 . S
H1989 C1998 0.930 . S
H1990 C2003 0.929 . S
H1991 C2001 0.929 . S
H1992 C1996 0.929 . S
H1993 C2002 0.929 . S
C1994 H1988 0.930 . S
C1994 C1995 1.367 . S
C1994 C2002 1.378 . S
C1995 C1994 1.367 . S
C1995 C2003 1.433 . S
C1996 H1992 0.929 . S
C1996 C1998 1.378 . S
C1996 C2000 1.350 . S
C1997 C2000 1.463 . S
C1997 C2002 1.350 . S
C1997 N2005 1.427 . S
C1998 H1989 0.930 . S
C1998 C1996 1.378 . S
C1998 C1999 1.367 . S
C1999 C1998 1.367 . S
C1999 C2001 1.433 . S
C2000 C1996 1.350 . S
C2000 C1997 1.463 . S
C2000 N2004 1.427 . S
C2001 H1991 0.929 . S
C2001 C1999 1.433 . S
C2001 N2004 1.384 . S
C2002 H1993 0.929 . S
C2002 C1994 1.378 . S
C2002 C1997 1.350 . S
C2003 H1990 0.929 . S
C2003 C1995 1.433 . S
C2003 N2005 1.384 . S
N2004 C2000 1.427 . S
N2004 C2001 1.384 . S
N2005 C1997 1.427 . S
N2005 C2003 1.384 . S
H2006 C2012 0.930 . S
H2007 C2016 0.930 . S
H2008 C2021 0.929 . S
H2009 C2019 0.929 . S
H2010 C2014 0.929 1_554 S
H2011 C2020 0.929 1_556 S
C2012 H2006 0.930 . S
C2012 C2013 1.367 . S
C2012 C2020 1.378 . S
C2013 C2012 1.367 . S
C2013 C2021 1.433 . S
C2014 H2010 0.929 1_556 S
C2014 C2016 1.378 . S
C2014 C2018 1.350 . S
C2015 C2018 1.463 1_564 S
C2015 C2020 1.350 . S
C2015 N2023 1.427 . S
C2016 H2007 0.930 . S
C2016 C2014 1.378 . S
C2016 C2017 1.367 . S
C2017 C2016 1.367 . S
C2017 C2019 1.433 . S
C2018 C2014 1.350 . S
C2018 C2015 1.463 1_546 S
C2018 N2022 1.427 . S
C2019 H2009 0.929 . S
C2019 C2017 1.433 . S
C2019 N2022 1.384 . S
C2020 H2011 0.929 1_554 S
C2020 C2012 1.378 . S
C2020 C2015 1.350 . S
C2021 H2008 0.929 . S
C2021 C2013 1.433 . S
C2021 N2023 1.384 . S
N2022 C2018 1.427 . S
N2022 C2019 1.384 . S
N2023 C2015 1.427 . S
N2023 C2021 1.384 . S
H2024 C2030 0.930 . S
H2025 C2034 0.930 . S
H2026 C2039 0.929 . S
H2027 C2037 0.929 . S
H2028 C2032 0.929 . S
H2029 C2038 0.929 . S
C2030 H2024 0.930 . S
C2030 C2031 1.367 . S
C2030 C2038 1.378 . S
C2031 C2030 1.367 . S
C2031 C2039 1.433 . S
C2032 H2028 0.929 . S
C2032 C2034 1.378 . S
C2032 C2036 1.350 . S
C2033 C2036 1.463 . S
C2033 C2038 1.350 . S
C2033 N2041 1.427 . S
C2034 H2025 0.930 . S
C2034 C2032 1.378 . S
C2034 C2035 1.367 . S
C2035 C2034 1.367 . S
C2035 C2037 1.433 . S
C2036 C2032 1.350 . S
C2036 C2033 1.463 . S
C2036 N2040 1.427 . S
C2037 H2027 0.929 . S
C2037 C2035 1.433 . S
C2037 N2040 1.384 . S
C2038 H2029 0.929 . S
C2038 C2030 1.378 . S
C2038 C2033 1.350 . S
C2039 H2026 0.929 . S
C2039 C2031 1.433 . S
C2039 N2041 1.384 . S
N2040 C2036 1.427 . S
N2040 C2037 1.384 . S
N2041 C2033 1.427 . S
N2041 C2039 1.384 . S
H2042 C2048 0.930 . S
H2043 C2052 0.930 . S
H2044 C2057 0.929 . S
H2045 C2055 0.929 . S
H2046 C2050 0.929 . S
H2047 C2056 0.929 . S
C2048 H2042 0.930 . S
C2048 C2049 1.367 . S
C2048 C2056 1.378 . S
C2049 C2048 1.367 . S
C2049 C2057 1.433 . S
C2050 H2046 0.929 . S
C2050 C2052 1.378 . S
C2050 C2054 1.350 . S
C2051 C2054 1.463 1_545 S
C2051 C2056 1.350 . S
C2051 N2059 1.427 . S
C2052 H2043 0.930 . S
C2052 C2050 1.378 . S
C2052 C2053 1.367 . S
C2053 C2052 1.367 . S
C2053 C2055 1.433 . S
C2054 C2050 1.350 . S
C2054 C2051 1.463 1_565 S
C2054 N2058 1.427 . S
C2055 H2045 0.929 . S
C2055 C2053 1.433 . S
C2055 N2058 1.384 . S
C2056 H2047 0.929 . S
C2056 C2048 1.378 . S
C2056 C2051 1.350 . S
C2057 H2044 0.929 . S
C2057 C2049 1.433 . S
C2057 N2059 1.384 . S
N2058 C2054 1.427 . S
N2058 C2055 1.384 . S
N2059 C2051 1.427 . S
N2059 C2057 1.384 . S
H2060 C2066 0.930 . S
H2061 C2070 0.930 . S
H2062 C2075 0.929 . S
H2063 C2073 0.929 . S
H2064 C2068 0.929 . S
H2065 C2074 0.929 . S
C2066 H2060 0.930 . S
C2066 C2067 1.367 . S
C2066 C2074 1.378 . S
C2067 C2066 1.367 . S
C2067 C2075 1.433 . S
C2068 H2064 0.929 . S
C2068 C2070 1.378 . S
C2068 C2072 1.350 . S
C2069 C2072 1.463 . S
C2069 C2074 1.350 . S
C2069 N2077 1.427 . S
C2070 H2061 0.930 . S
C2070 C2068 1.378 . S
C2070 C2071 1.367 . S
C2071 C2070 1.367 . S
C2071 C2073 1.433 . S
C2072 C2068 1.350 . S
C2072 C2069 1.463 . S
C2072 N2076 1.427 . S
C2073 H2063 0.929 . S
C2073 C2071 1.433 . S
C2073 N2076 1.384 . S
C2074 H2065 0.929 . S
C2074 C2066 1.378 . S
C2074 C2069 1.350 . S
C2075 H2062 0.929 . S
C2075 C2067 1.433 . S
C2075 N2077 1.384 . S
N2076 C2072 1.427 . S
N2076 C2073 1.384 . S
N2077 C2069 1.427 . S
N2077 C2075 1.384 . S
H2078 C2084 0.930 . S
H2079 C2088 0.930 . S
H2080 C2093 0.929 . S
H2081 C2091 0.929 . S
H2082 C2086 0.929 . S
H2083 C2092 0.929 . S
C2084 H2078 0.930 . S
C2084 C2085 1.367 . S
C2084 C2092 1.378 . S
C2085 C2084 1.367 . S
C2085 C2093 1.433 . S
C2086 H2082 0.929 . S
C2086 C2088 1.378 . S
C2086 C2090 1.350 . S
C2087 C2090 1.463 1_546 S
C2087 C2092 1.350 . S
C2087 N2095 1.427 . S
C2088 H2079 0.930 . S
C2088 C2086 1.378 . S
C2088 C2089 1.367 . S
C2089 C2088 1.367 . S
C2089 C2091 1.433 . S
C2090 C2086 1.350 . S
C2090 C2087 1.463 1_564 S
C2090 N2094 1.427 . S
C2091 H2081 0.929 . S
C2091 C2089 1.433 . S
C2091 N2094 1.384 . S
C2092 H2083 0.929 . S
C2092 C2084 1.378 . S
C2092 C2087 1.350 . S
C2093 H2080 0.929 . S
C2093 C2085 1.433 . S
C2093 N2095 1.384 . S
N2094 C2090 1.427 . S
N2094 C2091 1.384 . S
N2095 C2087 1.427 . S
N2095 C2093 1.384 . S
H2096 C2102 0.930 . S
H2097 C2106 0.930 . S
H2098 C2111 0.929 . S
H2099 C2109 0.929 . S
H2100 C2104 0.929 . S
H2101 C2110 0.929 . S
C2102 H2096 0.930 . S
C2102 C2103 1.367 . S
C2102 C2110 1.378 . S
C2103 C2102 1.367 . S
C2103 C2111 1.433 . S
C2104 H2100 0.929 . S
C2104 C2106 1.378 . S
C2104 C2108 1.350 . S
C2105 C2108 1.463 . S
C2105 C2110 1.350 . S
C2105 N2113 1.427 . S
C2106 H2097 0.930 . S
C2106 C2104 1.378 . S
C2106 C2107 1.367 . S
C2107 C2106 1.367 . S
C2107 C2109 1.433 . S
C2108 C2104 1.350 . S
C2108 C2105 1.463 . S
C2108 N2112 1.427 . S
C2109 H2099 0.929 . S
C2109 C2107 1.433 . S
C2109 N2112 1.384 . S
C2110 H2101 0.929 . S
C2110 C2102 1.378 . S
C2110 C2105 1.350 . S
C2111 H2098 0.929 . S
C2111 C2103 1.433 . S
C2111 N2113 1.384 . S
N2112 C2108 1.427 . S
N2112 C2109 1.384 . S
N2113 C2105 1.427 . S
N2113 C2111 1.384 . S
H2114 C2120 0.930 . S
H2115 C2124 0.930 . S
H2116 C2129 0.929 . S
H2117 C2127 0.929 . S
H2118 C2122 0.929 . S
H2119 C2128 0.929 . S
C2120 H2114 0.930 . S
C2120 C2121 1.367 . S
C2120 C2128 1.378 . S
C2121 C2120 1.367 . S
C2121 C2129 1.433 . S
C2122 H2118 0.929 . S
C2122 C2124 1.378 . S
C2122 C2126 1.350 . S
C2123 C2126 1.463 1_556 S
C2123 C2128 1.350 . S
C2123 N2131 1.427 . S
C2124 H2115 0.930 . S
C2124 C2122 1.378 . S
C2124 C2125 1.367 . S
C2125 C2124 1.367 . S
C2125 C2127 1.433 . S
C2126 C2122 1.350 . S
C2126 C2123 1.463 1_554 S
C2126 N2130 1.427 . S
C2127 H2117 0.929 . S
C2127 C2125 1.433 . S
C2127 N2130 1.384 . S
C2128 H2119 0.929 . S
C2128 C2120 1.378 . S
C2128 C2123 1.350 . S
C2129 H2116 0.929 . S
C2129 C2121 1.433 . S
C2129 N2131 1.384 . S
N2130 C2126 1.427 . S
N2130 C2127 1.384 . S
N2131 C2123 1.427 . S
N2131 C2129 1.384 . S
H2132 C2138 0.930 . S
H2133 C2142 0.930 . S
H2134 C2147 0.929 . S
H2135 C2145 0.929 . S
H2136 C2140 0.929 . S
H2137 C2146 0.929 . S
C2138 H2132 0.930 . S
C2138 C2139 1.367 . S
C2138 C2146 1.378 . S
C2139 C2138 1.367 . S
C2139 C2147 1.433 . S
C2140 H2136 0.929 . S
C2140 C2142 1.378 . S
C2140 C2144 1.350 . S
C2141 C2144 1.463 . S
C2141 C2146 1.350 . S
C2141 N2149 1.427 . S
C2142 H2133 0.930 . S
C2142 C2140 1.378 . S
C2142 C2143 1.367 . S
C2143 C2142 1.367 . S
C2143 C2145 1.433 . S
C2144 C2140 1.350 . S
C2144 C2141 1.463 . S
C2144 N2148 1.427 . S
C2145 H2135 0.929 . S
C2145 C2143 1.433 . S
C2145 N2148 1.384 . S
C2146 H2137 0.929 . S
C2146 C2138 1.378 . S
C2146 C2141 1.350 . S
C2147 H2134 0.929 . S
C2147 C2139 1.433 . S
C2147 N2149 1.384 . S
N2148 C2144 1.427 . S
N2148 C2145 1.384 . S
N2149 C2141 1.427 . S
N2149 C2147 1.384 . S
H2150 C2156 0.930 . S
H2151 C2160 0.930 . S
H2152 C2165 0.929 . S
H2153 C2163 0.929 . S
H2154 C2158 0.929 . S
H2155 C2164 0.929 . S
C2156 H2150 0.930 . S
C2156 C2157 1.367 . S
C2156 C2164 1.378 . S
C2157 C2156 1.367 . S
C2157 C2165 1.433 . S
C2158 H2154 0.929 . S
C2158 C2160 1.378 . S
C2158 C2162 1.350 . S
C2159 C2162 1.463 . S
C2159 C2164 1.350 . S
C2159 N2167 1.427 . S
C2160 H2151 0.930 . S
C2160 C2158 1.378 . S
C2160 C2161 1.367 . S
C2161 C2160 1.367 . S
C2161 C2163 1.433 . S
C2162 C2158 1.350 . S
C2162 C2159 1.463 . S
C2162 N2166 1.427 . S
C2163 H2153 0.929 . S
C2163 C2161 1.433 . S
C2163 N2166 1.384 . S
C2164 H2155 0.929 . S
C2164 C2156 1.378 . S
C2164 C2159 1.350 . S
C2165 H2152 0.929 . S
C2165 C2157 1.433 . S
C2165 N2167 1.384 . S
N2166 C2162 1.427 . S
N2166 C2163 1.384 . S
N2167 C2159 1.427 . S
N2167 C2165 1.384 . S
H2168 C2174 0.930 . S
H2169 C2178 0.930 . S
H2170 C2183 0.929 . S
H2171 C2181 0.929 . S
H2172 C2176 0.929 . S
H2173 C2182 0.929 . S
C2174 H2168 0.930 . S
C2174 C2175 1.367 . S
C2174 C2182 1.378 . S
C2175 C2174 1.367 . S
C2175 C2183 1.433 . S
C2176 H2172 0.929 . S
C2176 C2178 1.378 . S
C2176 C2180 1.350 . S
C2177 C2180 1.463 . S
C2177 C2182 1.350 . S
C2177 N2185 1.427 . S
C2178 H2169 0.930 . S
C2178 C2176 1.378 . S
C2178 C2179 1.367 . S
C2179 C2178 1.367 . S
C2179 C2181 1.433 . S
C2180 C2176 1.350 . S
C2180 C2177 1.463 . S
C2180 N2184 1.427 . S
C2181 H2171 0.929 . S
C2181 C2179 1.433 . S
C2181 N2184 1.384 . S
C2182 H2173 0.929 . S
C2182 C2174 1.378 . S
C2182 C2177 1.350 . S
C2183 H2170 0.929 . S
C2183 C2175 1.433 . S
C2183 N2185 1.384 . S
N2184 C2180 1.427 . S
N2184 C2181 1.384 . S
N2185 C2177 1.427 . S
N2185 C2183 1.384 . S
H2186 C2192 0.930 . S
H2187 C2196 0.930 . S
H2188 C2201 0.929 . S
H2189 C2199 0.929 . S
H2190 C2194 0.929 . S
H2191 C2200 0.929 . S
C2192 H2186 0.930 . S
C2192 C2193 1.367 . S
C2192 C2200 1.378 . S
C2193 C2192 1.367 . S
C2193 C2201 1.433 . S
C2194 H2190 0.929 . S
C2194 C2196 1.378 . S
C2194 C2198 1.350 . S
C2195 C2198 1.463 1_556 S
C2195 C2200 1.350 . S
C2195 N2203 1.427 . S
C2196 H2187 0.930 . S
C2196 C2194 1.378 . S
C2196 C2197 1.367 . S
C2197 C2196 1.367 . S
C2197 C2199 1.433 . S
C2198 C2194 1.350 . S
C2198 C2195 1.463 1_554 S
C2198 N2202 1.427 . S
C2199 H2189 0.929 . S
C2199 C2197 1.433 . S
C2199 N2202 1.384 . S
C2200 H2191 0.929 . S
C2200 C2192 1.378 . S
C2200 C2195 1.350 . S
C2201 H2188 0.929 . S
C2201 C2193 1.433 . S
C2201 N2203 1.384 . S
N2202 C2198 1.427 . S
N2202 C2199 1.384 . S
N2203 C2195 1.427 . S
N2203 C2201 1.384 . S
H2204 C2210 0.930 . S
H2205 C2214 0.930 . S
H2206 C2219 0.929 . S
H2207 C2217 0.929 . S
H2208 C2212 0.929 . S
H2209 C2218 0.929 . S
C2210 H2204 0.930 . S
C2210 C2211 1.367 . S
C2210 C2218 1.378 . S
C2211 C2210 1.367 . S
C2211 C2219 1.433 . S
C2212 H2208 0.929 . S
C2212 C2214 1.378 . S
C2212 C2216 1.350 . S
C2213 C2216 1.463 . S
C2213 C2218 1.350 . S
C2213 N2221 1.427 . S
C2214 H2205 0.930 . S
C2214 C2212 1.378 . S
C2214 C2215 1.367 . S
C2215 C2214 1.367 . S
C2215 C2217 1.433 . S
C2216 C2212 1.350 . S
C2216 C2213 1.463 . S
C2216 N2220 1.427 . S
C2217 H2207 0.929 . S
C2217 C2215 1.433 . S
C2217 N2220 1.384 . S
C2218 H2209 0.929 . S
C2218 C2210 1.378 . S
C2218 C2213 1.350 . S
C2219 H2206 0.929 . S
C2219 C2211 1.433 . S
C2219 N2221 1.384 . S
N2220 C2216 1.427 . S
N2220 C2217 1.384 . S
N2221 C2213 1.427 . S
N2221 C2219 1.384 . S
H2222 C2228 0.930 . S
H2223 C2232 0.930 . S
H2224 C2237 0.929 . S
H2225 C2235 0.929 . S
H2226 C2230 0.929 . S
H2227 C2236 0.929 . S
C2228 H2222 0.930 . S
C2228 C2229 1.367 . S
C2228 C2236 1.378 . S
C2229 C2228 1.367 . S
C2229 C2237 1.433 . S
C2230 H2226 0.929 . S
C2230 C2232 1.378 . S
C2230 C2234 1.350 . S
C2231 C2234 1.463 . S
C2231 C2236 1.350 . S
C2231 N2239 1.427 . S
C2232 H2223 0.930 . S
C2232 C2230 1.378 . S
C2232 C2233 1.367 . S
C2233 C2232 1.367 . S
C2233 C2235 1.433 . S
C2234 C2230 1.350 . S
C2234 C2231 1.463 . S
C2234 N2238 1.427 . S
C2235 H2225 0.929 . S
C2235 C2233 1.433 . S
C2235 N2238 1.384 . S
C2236 H2227 0.929 . S
C2236 C2228 1.378 . S
C2236 C2231 1.350 . S
C2237 H2224 0.929 . S
C2237 C2229 1.433 . S
C2237 N2239 1.384 . S
N2238 C2234 1.427 . S
N2238 C2235 1.384 . S
N2239 C2231 1.427 . S
N2239 C2237 1.384 . S
H2240 C2246 0.930 . S
H2241 C2250 0.930 . S
H2242 C2255 0.929 . S
H2243 C2253 0.929 . S
H2244 C2248 0.929 . S
H2245 C2254 0.929 . S
C2246 H2240 0.930 . S
C2246 C2247 1.367 1_554 S
C2246 C2254 1.378 1_554 S
C2247 C2246 1.367 1_556 S
C2247 C2255 1.433 . S
C2248 H2244 0.929 . S
C2248 C2250 1.378 . S
C2248 C2252 1.350 . S
C2249 C2252 1.463 . S
C2249 C2254 1.350 . S
C2249 N2257 1.427 . S
C2250 H2241 0.930 . S
C2250 C2248 1.378 . S
C2250 C2251 1.367 . S
C2251 C2250 1.367 . S
C2251 C2253 1.433 . S
C2252 C2248 1.350 . S
C2252 C2249 1.463 . S
C2252 N2256 1.427 . S
C2253 H2243 0.929 . S
C2253 C2251 1.433 . S
C2253 N2256 1.384 . S
C2254 H2245 0.929 . S
C2254 C2246 1.378 1_556 S
C2254 C2249 1.350 . S
C2255 H2242 0.929 . S
C2255 C2247 1.433 . S
C2255 N2257 1.384 . S
N2256 C2252 1.427 . S
N2256 C2253 1.384 . S
N2257 C2249 1.427 . S
N2257 C2255 1.384 . S
H2258 C2264 0.930 . S
H2259 C2268 0.930 . S
H2260 C2273 0.930 1_556 S
H2261 C2271 0.929 . S
H2262 C2266 0.929 . S
H2263 C2272 0.929 . S
C2264 H2258 0.930 . S
C2264 C2265 1.367 . S
C2264 C2272 1.378 . S
C2265 C2264 1.367 . S
C2265 C2273 1.433 . S
C2266 H2262 0.929 . S
C2266 C2268 1.378 . S
C2266 C2270 1.350 . S
C2267 C2270 1.463 . S
C2267 C2272 1.350 . S
C2267 N2275 1.427 . S
C2268 H2259 0.930 . S
C2268 C2266 1.378 . S
C2268 C2269 1.367 . S
C2269 C2268 1.367 . S
C2269 C2271 1.433 . S
C2270 C2266 1.350 . S
C2270 C2267 1.463 . S
C2270 N2274 1.427 . S
C2271 H2261 0.929 . S
C2271 C2269 1.433 . S
C2271 N2274 1.384 . S
C2272 H2263 0.929 . S
C2272 C2264 1.378 . S
C2272 C2267 1.350 . S
C2273 H2260 0.930 1_554 S
C2273 C2265 1.433 . S
C2273 N2275 1.383 . S
N2274 C2270 1.427 . S
N2274 C2271 1.384 . S
N2275 C2267 1.427 . S
N2275 C2273 1.383 . S
H2276 C2282 0.930 . S
H2277 C2286 0.930 . S
H2278 C2291 0.929 . S
H2279 C2289 0.929 . S
H2280 C2284 0.929 . S
H2281 C2290 0.929 . S
C2282 H2276 0.930 . S
C2282 C2283 1.367 . S
C2282 C2290 1.378 . S
C2283 C2282 1.367 . S
C2283 C2291 1.433 . S
C2284 H2280 0.929 . S
C2284 C2286 1.378 . S
C2284 C2288 1.350 . S
C2285 C2288 1.463 . S
C2285 C2290 1.350 . S
C2285 N2293 1.427 . S
C2286 H2277 0.930 . S
C2286 C2284 1.378 . S
C2286 C2287 1.367 . S
C2287 C2286 1.367 . S
C2287 C2289 1.433 . S
C2288 C2284 1.350 . S
C2288 C2285 1.463 . S
C2288 N2292 1.427 . S
C2289 H2279 0.929 . S
C2289 C2287 1.433 . S
C2289 N2292 1.384 . S
C2290 H2281 0.929 . S
C2290 C2282 1.378 . S
C2290 C2285 1.350 . S
C2291 H2278 0.929 . S
C2291 C2283 1.433 . S
C2291 N2293 1.384 . S
N2292 C2288 1.427 . S
N2292 C2289 1.384 . S
N2293 C2285 1.427 . S
N2293 C2291 1.384 . S
H2294 C2300 0.930 . S
H2295 C2304 0.930 . S
H2296 C2309 0.929 . S
H2297 C2307 0.929 . S
H2298 C2302 0.929 . S
H2299 C2308 0.929 . S
C2300 H2294 0.930 . S
C2300 C2301 1.367 . S
C2300 C2308 1.378 . S
C2301 C2300 1.367 . S
C2301 C2309 1.433 . S
C2302 H2298 0.929 . S
C2302 C2304 1.378 . S
C2302 C2306 1.350 . S
C2303 C2306 1.463 . S
C2303 C2308 1.350 . S
C2303 N2311 1.427 . S
C2304 H2295 0.930 . S
C2304 C2302 1.378 . S
C2304 C2305 1.367 . S
C2305 C2304 1.367 . S
C2305 C2307 1.433 . S
C2306 C2302 1.350 . S
C2306 C2303 1.463 . S
C2306 N2310 1.427 . S
C2307 H2297 0.929 . S
C2307 C2305 1.433 . S
C2307 N2310 1.384 . S
C2308 H2299 0.929 . S
C2308 C2300 1.378 . S
C2308 C2303 1.350 . S
C2309 H2296 0.929 . S
C2309 C2301 1.433 . S
C2309 N2311 1.384 . S
N2310 C2306 1.427 . S
N2310 C2307 1.384 . S
N2311 C2303 1.427 . S
N2311 C2309 1.384 . S
H2312 C2318 0.930 . S
H2313 C2322 0.930 . S
H2314 C2327 0.929 . S
H2315 C2325 0.929 . S
H2316 C2320 0.929 . S
H2317 C2326 0.929 . S
C2318 H2312 0.930 . S
C2318 C2319 1.367 . S
C2318 C2326 1.378 . S
C2319 C2318 1.367 . S
C2319 C2327 1.433 1_554 S
C2320 H2316 0.929 . S
C2320 C2322 1.378 . S
C2320 C2324 1.350 . S
C2321 C2324 1.463 . S
C2321 C2326 1.350 . S
C2321 N2329 1.427 . S
C2322 H2313 0.930 . S
C2322 C2320 1.378 . S
C2322 C2323 1.367 . S
C2323 C2322 1.367 . S
C2323 C2325 1.433 . S
C2324 C2320 1.350 . S
C2324 C2321 1.463 . S
C2324 N2328 1.427 . S
C2325 H2315 0.929 . S
C2325 C2323 1.433 . S
C2325 N2328 1.384 . S
C2326 H2317 0.929 . S
C2326 C2318 1.378 . S
C2326 C2321 1.350 . S
C2327 H2314 0.929 . S
C2327 C2319 1.433 1_556 S
C2327 N2329 1.384 1_556 S
N2328 C2324 1.427 . S
N2328 C2325 1.384 . S
N2329 C2321 1.427 . S
N2329 C2327 1.384 1_554 S
H2330 C2336 0.930 . S
H2331 C2340 0.930 . S
H2332 C2345 0.929 . S
H2333 C2343 0.929 . S
H2334 C2338 0.929 . S
H2335 C2344 0.929 . S
C2336 H2330 0.930 . S
C2336 C2337 1.367 . S
C2336 C2344 1.378 . S
C2337 C2336 1.367 . S
C2337 C2345 1.433 . S
C2338 H2334 0.929 . S
C2338 C2340 1.378 . S
C2338 C2342 1.350 . S
C2339 C2342 1.463 . S
C2339 C2344 1.350 . S
C2339 N2347 1.427 . S
C2340 H2331 0.930 . S
C2340 C2338 1.378 . S
C2340 C2341 1.367 . S
C2341 C2340 1.367 . S
C2341 C2343 1.433 . S
C2342 C2338 1.350 . S
C2342 C2339 1.463 . S
C2342 N2346 1.427 . S
C2343 H2333 0.929 . S
C2343 C2341 1.433 . S
C2343 N2346 1.384 . S
C2344 H2335 0.929 . S
C2344 C2336 1.378 . S
C2344 C2339 1.350 . S
C2345 H2332 0.929 . S
C2345 C2337 1.433 . S
C2345 N2347 1.384 . S
N2346 C2342 1.427 . S
N2346 C2343 1.384 . S
N2347 C2339 1.427 . S
N2347 C2345 1.384 . S
H2348 C2354 0.930 . S
H2349 C2358 0.930 . S
H2350 C2363 0.929 . S
H2351 C2361 0.929 . S
H2352 C2356 0.929 . S
H2353 C2362 0.929 . S
C2354 H2348 0.930 . S
C2354 C2355 1.367 . S
C2354 C2362 1.378 . S
C2355 C2354 1.367 . S
C2355 C2363 1.433 . S
C2356 H2352 0.929 . S
C2356 C2358 1.378 . S
C2356 C2360 1.350 . S
C2357 C2360 1.463 . S
C2357 C2362 1.350 . S
C2357 N2365 1.427 . S
C2358 H2349 0.930 . S
C2358 C2356 1.378 . S
C2358 C2359 1.367 . S
C2359 C2358 1.367 . S
C2359 C2361 1.433 . S
C2360 C2356 1.350 . S
C2360 C2357 1.463 . S
C2360 N2364 1.427 . S
C2361 H2351 0.929 . S
C2361 C2359 1.433 . S
C2361 N2364 1.384 . S
C2362 H2353 0.929 . S
C2362 C2354 1.378 . S
C2362 C2357 1.350 . S
C2363 H2350 0.929 . S
C2363 C2355 1.433 . S
C2363 N2365 1.384 . S
N2364 C2360 1.427 . S
N2364 C2361 1.384 . S
N2365 C2357 1.427 . S
N2365 C2363 1.384 . S
H2366 C2372 0.930 . S
H2367 C2376 0.930 . S
H2368 C2381 0.929 . S
H2369 C2379 0.929 . S
H2370 C2374 0.929 . S
H2371 C2380 0.929 . S
C2372 H2366 0.930 . S
C2372 C2373 1.367 . S
C2372 C2380 1.378 . S
C2373 C2372 1.367 . S
C2373 C2381 1.433 . S
C2374 H2370 0.929 . S
C2374 C2376 1.378 . S
C2374 C2378 1.350 . S
C2375 C2378 1.463 . S
C2375 C2380 1.350 . S
C2375 N2383 1.427 . S
C2376 H2367 0.930 . S
C2376 C2374 1.378 . S
C2376 C2377 1.367 . S
C2377 C2376 1.367 . S
C2377 C2379 1.433 . S
C2378 C2374 1.350 . S
C2378 C2375 1.463 . S
C2378 N2382 1.427 . S
C2379 H2369 0.929 . S
C2379 C2377 1.433 . S
C2379 N2382 1.384 . S
C2380 H2371 0.929 . S
C2380 C2372 1.378 . S
C2380 C2375 1.350 . S
C2381 H2368 0.929 . S
C2381 C2373 1.433 . S
C2381 N2383 1.384 . S
N2382 C2378 1.427 . S
N2382 C2379 1.384 . S
N2383 C2375 1.427 . S
N2383 C2381 1.384 . S
H2384 C2390 0.930 . S
H2385 C2394 0.930 . S
H2386 C2399 0.929 . S
H2387 C2397 0.929 . S
H2388 C2392 0.929 . S
H2389 C2398 0.929 . S
C2390 H2384 0.930 . S
C2390 C2391 1.367 . S
C2390 C2398 1.378 . S
C2391 C2390 1.367 . S
C2391 C2399 1.433 . S
C2392 H2388 0.929 . S
C2392 C2394 1.378 . S
C2392 C2396 1.350 . S
C2393 C2396 1.463 . S
C2393 C2398 1.350 . S
C2393 N2401 1.427 . S
C2394 H2385 0.930 . S
C2394 C2392 1.378 . S
C2394 C2395 1.367 . S
C2395 C2394 1.367 . S
C2395 C2397 1.433 . S
C2396 C2392 1.350 . S
C2396 C2393 1.463 . S
C2396 N2400 1.427 . S
C2397 H2387 0.929 . S
C2397 C2395 1.433 . S
C2397 N2400 1.384 . S
C2398 H2389 0.929 . S
C2398 C2390 1.378 . S
C2398 C2393 1.350 . S
C2399 H2386 0.929 . S
C2399 C2391 1.433 . S
C2399 N2401 1.384 . S
N2400 C2396 1.427 . S
N2400 C2397 1.384 . S
N2401 C2393 1.427 . S
N2401 C2399 1.384 . S
H2402 C2408 0.930 . S
H2403 C2412 0.930 . S
H2404 C2417 0.929 . S
H2405 C2415 0.929 . S
H2406 C2410 0.929 . S
H2407 C2416 0.929 . S
C2408 H2402 0.930 . S
C2408 C2409 1.367 . S
C2408 C2416 1.378 . S
C2409 C2408 1.367 . S
C2409 C2417 1.433 . S
C2410 H2406 0.929 . S
C2410 C2412 1.378 . S
C2410 C2414 1.350 . S
C2411 C2414 1.463 . S
C2411 C2416 1.350 . S
C2411 N2419 1.427 . S
C2412 H2403 0.930 . S
C2412 C2410 1.378 . S
C2412 C2413 1.367 . S
C2413 C2412 1.367 . S
C2413 C2415 1.433 . S
C2414 C2410 1.350 . S
C2414 C2411 1.463 . S
C2414 N2418 1.427 . S
C2415 H2405 0.929 . S
C2415 C2413 1.433 . S
C2415 N2418 1.384 . S
C2416 H2407 0.929 . S
C2416 C2408 1.378 . S
C2416 C2411 1.350 . S
C2417 H2404 0.929 . S
C2417 C2409 1.433 . S
C2417 N2419 1.384 . S
N2418 C2414 1.427 . S
N2418 C2415 1.384 . S
N2419 C2411 1.427 . S
N2419 C2417 1.384 . S
H2420 C2426 0.930 . S
H2421 C2430 0.930 . S
H2422 C2435 0.929 . S
H2423 C2433 0.929 1_554 S
H2424 C2428 0.929 . S
H2425 C2434 0.929 . S
C2426 H2420 0.930 . S
C2426 C2427 1.367 . S
C2426 C2434 1.378 . S
C2427 C2426 1.367 . S
C2427 C2435 1.433 . S
C2428 H2424 0.929 . S
C2428 C2430 1.378 . S
C2428 C2432 1.350 . S
C2429 C2432 1.463 . S
C2429 C2434 1.350 . S
C2429 N2437 1.427 . S
C2430 H2421 0.930 . S
C2430 C2428 1.378 . S
C2430 C2431 1.367 . S
C2431 C2430 1.367 . S
C2431 C2433 1.433 . S
C2432 C2428 1.350 . S
C2432 C2429 1.463 . S
C2432 N2436 1.427 . S
C2433 H2423 0.929 1_556 S
C2433 C2431 1.433 . S
C2433 N2436 1.384 . S
C2434 H2425 0.929 . S
C2434 C2426 1.378 . S
C2434 C2429 1.350 . S
C2435 H2422 0.929 . S
C2435 C2427 1.433 . S
C2435 N2437 1.384 . S
N2436 C2432 1.427 . S
N2436 C2433 1.384 . S
N2437 C2429 1.427 . S
N2437 C2435 1.384 . S
H2438 C2444 0.930 . S
H2439 C2448 0.930 . S
H2440 C2453 0.929 . S
H2441 C2451 0.929 1_556 S
H2442 C2446 0.929 . S
H2443 C2452 0.929 . S
C2444 H2438 0.930 . S
C2444 C2445 1.367 . S
C2444 C2452 1.378 . S
C2445 C2444 1.367 . S
C2445 C2453 1.433 . S
C2446 H2442 0.929 . S
C2446 C2448 1.378 . S
C2446 C2450 1.350 . S
C2447 C2450 1.463 . S
C2447 C2452 1.350 . S
C2447 N2455 1.427 . S
C2448 H2439 0.930 . S
C2448 C2446 1.378 . S
C2448 C2449 1.367 . S
C2449 C2448 1.367 . S
C2449 C2451 1.433 . S
C2450 C2446 1.350 . S
C2450 C2447 1.463 . S
C2450 N2454 1.427 . S
C2451 H2441 0.929 1_554 S
C2451 C2449 1.433 . S
C2451 N2454 1.384 . S
C2452 H2443 0.929 . S
C2452 C2444 1.378 . S
C2452 C2447 1.350 . S
C2453 H2440 0.929 . S
C2453 C2445 1.433 . S
C2453 N2455 1.384 . S
N2454 C2450 1.427 . S
N2454 C2451 1.384 . S
N2455 C2447 1.427 . S
N2455 C2453 1.384 . S
H2456 C2462 0.930 . S
H2457 C2466 0.930 . S
H2458 C2471 0.929 . S
H2459 C2469 0.929 . S
H2460 C2464 0.929 . S
H2461 C2470 0.929 . S
C2462 H2456 0.930 . S
C2462 C2463 1.367 . S
C2462 C2470 1.378 . S
C2463 C2462 1.367 . S
C2463 C2471 1.433 . S
C2464 H2460 0.929 . S
C2464 C2466 1.378 . S
C2464 C2468 1.350 . S
C2465 C2468 1.463 . S
C2465 C2470 1.350 . S
C2465 N2473 1.427 . S
C2466 H2457 0.930 . S
C2466 C2464 1.378 . S
C2466 C2467 1.367 . S
C2467 C2466 1.367 . S
C2467 C2469 1.433 . S
C2468 C2464 1.350 . S
C2468 C2465 1.463 . S
C2468 N2472 1.427 . S
C2469 H2459 0.929 . S
C2469 C2467 1.433 . S
C2469 N2472 1.384 . S
C2470 H2461 0.929 . S
C2470 C2462 1.378 . S
C2470 C2465 1.350 . S
C2471 H2458 0.929 . S
C2471 C2463 1.433 . S
C2471 N2473 1.384 . S
N2472 C2468 1.427 . S
N2472 C2469 1.384 . S
N2473 C2465 1.427 . S
N2473 C2471 1.384 . S
H2474 C2480 0.930 . S
H2475 C2484 0.930 . S
H2476 C2489 0.929 . S
H2477 C2487 0.929 . S
H2478 C2482 0.929 . S
H2479 C2488 0.929 . S
C2480 H2474 0.930 . S
C2480 C2481 1.367 . S
C2480 C2488 1.378 . S
C2481 C2480 1.367 . S
C2481 C2489 1.433 . S
C2482 H2478 0.929 . S
C2482 C2484 1.378 . S
C2482 C2486 1.350 . S
C2483 C2486 1.463 . S
C2483 C2488 1.350 . S
C2483 N2491 1.427 . S
C2484 H2475 0.930 . S
C2484 C2482 1.378 . S
C2484 C2485 1.367 . S
C2485 C2484 1.367 . S
C2485 C2487 1.433 . S
C2486 C2482 1.350 . S
C2486 C2483 1.463 . S
C2486 N2490 1.427 . S
C2487 H2477 0.929 . S
C2487 C2485 1.433 . S
C2487 N2490 1.384 . S
C2488 H2479 0.929 . S
C2488 C2480 1.378 . S
C2488 C2483 1.350 . S
C2489 H2476 0.929 . S
C2489 C2481 1.433 . S
C2489 N2491 1.384 . S
N2490 C2486 1.427 . S
N2490 C2487 1.384 . S
N2491 C2483 1.427 . S
N2491 C2489 1.384 . S
H2492 C2498 0.930 . S
H2493 C2502 0.930 1_556 S
H2494 C2507 0.929 . S
H2495 C2505 0.929 . S
H2496 C2500 0.929 . S
H2497 C2506 0.929 . S
C2498 H2492 0.930 . S
C2498 C2499 1.367 . S
C2498 C2506 1.378 . S
C2499 C2498 1.367 . S
C2499 C2507 1.433 . S
C2500 H2496 0.929 . S
C2500 C2502 1.378 . S
C2500 C2504 1.350 . S
C2501 C2504 1.463 . S
C2501 C2506 1.350 . S
C2501 N2509 1.427 . S
C2502 H2493 0.930 1_554 S
C2502 C2500 1.378 . S
C2502 C2503 1.367 . S
C2503 C2502 1.367 . S
C2503 C2505 1.433 . S
C2504 C2500 1.350 . S
C2504 C2501 1.463 . S
C2504 N2508 1.427 . S
C2505 H2495 0.929 . S
C2505 C2503 1.433 . S
C2505 N2508 1.384 . S
C2506 H2497 0.929 . S
C2506 C2498 1.378 . S
C2506 C2501 1.350 . S
C2507 H2494 0.929 . S
C2507 C2499 1.433 . S
C2507 N2509 1.384 . S
N2508 C2504 1.427 . S
N2508 C2505 1.384 . S
N2509 C2501 1.427 . S
N2509 C2507 1.384 . S
H2510 C2516 0.930 1_554 S
H2511 C2520 0.930 . S
H2512 C2525 0.929 . S
H2513 C2523 0.929 . S
H2514 C2518 0.929 . S
H2515 C2524 0.929 . S
C2516 H2510 0.930 1_556 S
C2516 C2517 1.367 . S
C2516 C2524 1.378 . S
C2517 C2516 1.367 . S
C2517 C2525 1.433 . S
C2518 H2514 0.929 . S
C2518 C2520 1.378 . S
C2518 C2522 1.350 . S
C2519 C2522 1.463 . S
C2519 C2524 1.350 . S
C2519 N2527 1.427 . S
C2520 H2511 0.930 . S
C2520 C2518 1.378 . S
C2520 C2521 1.367 . S
C2521 C2520 1.367 . S
C2521 C2523 1.433 . S
C2522 C2518 1.350 . S
C2522 C2519 1.463 . S
C2522 N2526 1.427 . S
C2523 H2513 0.929 . S
C2523 C2521 1.433 . S
C2523 N2526 1.384 . S
C2524 H2515 0.929 . S
C2524 C2516 1.378 . S
C2524 C2519 1.350 . S
C2525 H2512 0.929 . S
C2525 C2517 1.433 . S
C2525 N2527 1.384 . S
N2526 C2522 1.427 . S
N2526 C2523 1.384 . S
N2527 C2519 1.427 . S
N2527 C2525 1.384 . S
C1095 C1022 1.742 . S
C1099 C2 1.743 . S
C1113 C36 1.742 . S
C1117 C512 1.743 . S
C1131 C70 1.742 . S
C1135 C954 1.743 . S
C1149 C104 1.742 . S
C1153 C444 1.743 . S
C1167 C886 1.743 . S
C1171 C138 1.742 . S
C1185 C376 1.743 . S
C1189 C172 1.742 . S
C1203 C206 1.742 . S
C1207 C818 1.743 . S
C1221 C308 1.742 . S
C1225 C240 1.743 . S
C1239 C750 1.743 . S
C1243 C274 1.742 . S
C1257 C682 1.743 . S
C1261 C342 1.742 . S
C1275 C410 1.743 . S
C1279 C614 1.742 . S
C1293 C546 1.742 . S
C1297 C478 1.743 . S
C1311 C1056 1.743 . S
C1315 C580 1.742 . S
C1329 C988 1.742 . S
C1333 C648 1.743 . S
C1347 C920 1.743 . S
C1351 C716 1.742 . S
C1365 C852 1.742 . S
C1369 C784 1.743 . S
C1383 C5 0.988 . S
C1387 C9 0.994 . S
C1401 C39 0.987 . S
C1405 C43 0.992 . S
C1419 C73 0.995 . S
C1423 C77 0.983 . S
C1437 C107 0.975 1_554 S
C1441 C111 0.989 . S
C1455 C141 0.991 . S
C1459 C145 0.984 . S
C1473 C175 0.982 1_556 S
C1477 C179 1.001 . S
C1491 C213 0.998 . S
C1495 C209 0.990 . S
C1509 C243 0.989 . S
C1513 C247 0.996 . S
C1527 C277 0.990 . S
C1531 C281 0.985 . S
C1545 C315 0.996 . S
C1549 C311 1.002 . S
C1563 C345 1.001 . S
C1567 C349 0.997 . S
C1581 C379 0.979 1_556 S
C1585 C383 1.000 . S
C1599 C413 0.993 . S
C1603 C417 0.984 . S
C1617 C451 0.986 . S
C1621 C447 0.977 1_554 S
C1635 C481 0.993 . S
C1639 C485 0.984 . S
C1653 C519 0.989 . S
C1657 C515 0.988 . S
C1671 C553 0.985 . S
C1675 C549 0.991 . S
C1689 C583 0.989 1_554 S
C1693 C587 0.996 . S
C1707 C621 0.987 . S
C1711 C617 0.988 . S
C1725 C655 0.998 . S
C1729 C651 0.989 . S
C1743 C689 0.987 . S
C1747 C685 0.989 . S
C1761 C723 0.997 . S
C1765 C719 0.989 . S
C1779 C757 0.992 . S
C1783 C753 0.987 . S
C1797 C791 0.988 . S
C1801 C787 0.989 1_556 S
C1815 C825 0.999 . S
C1819 C821 0.999 . S
C1833 C859 0.996 . S
C1837 C855 0.989 1_556 S
C1851 C889 0.992 . S
C1855 C893 0.984 . S
C1869 C927 0.991 . S
C1873 C923 0.988 . S
C1887 C961 1.000 . S
C1891 C957 0.992 . S
C1905 C995 0.987 . S
C1909 C991 0.989 . S
C1923 C1025 0.991 . S
C1927 C1029 0.985 . S
C1941 C1059 0.987 1_554 S
C1945 C1063 0.999 . S
C1959 C237 1.340 . S
C1963 C33 1.346 . S
C1977 C271 1.342 . S
C1981 C67 1.338 . S
C1995 C101 1.338 . S
C1999 C169 1.342 . S
C2013 C203 1.340 . S
C2017 C135 1.337 . S
C2031 C305 1.341 . S
C2035 C509 1.338 . S
C2049 C339 1.337 . S
C2053 C543 1.341 . S
C2067 C373 1.353 . S
C2071 C441 1.349 . S
C2085 C475 1.350 . S
C2089 C407 1.345 . S
C2103 C781 1.350 . S
C2107 C577 1.345 . S
C2121 C611 1.349 . S
C2125 C815 1.353 . S
C2139 C713 1.339 . S
C2143 C645 1.344 . S
C2157 C747 1.350 . S
C2161 C679 1.353 . S
C2175 C849 1.348 . S
C2179 C1053 1.352 . S
C2193 C1087 1.353 . S
C2197 C883 1.348 . S
C2211 C917 1.351 . S
C2215 C985 1.353 . S
C2229 C1019 1.343 . S
C2233 C951 1.349 . S
C2247 C20 1.664 . S
C2251 C258 1.665 . S
C2265 C156 1.658 . S
C2269 C54 1.656 . S
C2283 C88 1.663 . S
C2287 C190 1.666 . S
C2301 C122 1.662 . S
C2305 C224 1.657 . S
C2319 C292 1.656 . S
C2323 C530 1.658 . S
C2337 C428 1.658 . S
C2341 C326 1.663 . S
C2355 C360 1.656 . S
C2359 C462 1.659 . S
C2373 C394 1.658 . S
C2377 C496 1.656 . S
C2391 C802 1.656 . S
C2395 C564 1.659 . S
C2409 C700 1.657 . S
C2413 C598 1.657 . S
C2427 C734 1.660 . S
C2431 C632 1.656 . S
C2445 C666 1.659 . S
C2449 C768 1.656 . S
C2463 C836 1.657 . S
C2467 C1074 1.662 . S
C2481 C870 1.657 . S
C2485 C972 1.657 . S
C2499 C1006 1.665 . S
C2503 C904 1.662 . S
C2517 C1040 1.662 . S
C2521 C938 1.665 . S
