# Generated by pormake.
# Topology wse, (4)-cn, num edge types: 1
# Building blocks:
#     Node 0, Type 0, BuildingBlock: KUFVIS_clean_sbu_0, # of connection points: 4
#     Node 1, Type 0, BuildingBlock: KUFVIS_clean_sbu_0, # of connection points: 4
#     Node 2, Type 0, BuildingBlock: KUFVIS_clean_sbu_0, # of connection points: 4
#     Node 3, Type 0, BuildingBlock: KUFVIS_clean_sbu_0, # of connection points: 4
#     Node 4, Type 0, BuildingBlock: KUFVIS_clean_sbu_0, # of connection points: 4
#     Node 5, Type 0, BuildingBlock: KUFVIS_clean_sbu_0, # of connection points: 4
#     Node 6, Type 0, BuildingBlock: KUFVIS_clean_sbu_0, # of connection points: 4
#     Node 7, Type 0, BuildingBlock: KUFVIS_clean_sbu_0, # of connection points: 4
#     Node 8, Type 0, BuildingBlock: KUFVIS_clean_sbu_0, # of connection points: 4
#     Node 9, Type 0, BuildingBlock: KUFVIS_clean_sbu_0, # of connection points: 4
#     Node 10, Type 0, BuildingBlock: KUFVIS_clean_sbu_0, # of connection points: 4
#     Node 11, Type 0, BuildingBlock: KUFVIS_clean_sbu_0, # of connection points: 4
#     Node 12, Type 0, BuildingBlock: KUFVIS_clean_sbu_0, # of connection points: 4
#     Node 13, Type 0, BuildingBlock: KUFVIS_clean_sbu_0, # of connection points: 4
#     Node 14, Type 0, BuildingBlock: KUFVIS_clean_sbu_0, # of connection points: 4
#     Node 15, Type 0, BuildingBlock: KUFVIS_clean_sbu_0, # of connection points: 4
#     Node 16, Type 0, BuildingBlock: KUFVIS_clean_sbu_0, # of connection points: 4
#     Node 17, Type 0, BuildingBlock: KUFVIS_clean_sbu_0, # of connection points: 4
#     Node 18, Type 0, BuildingBlock: KUFVIS_clean_sbu_0, # of connection points: 4
#     Node 19, Type 0, BuildingBlock: KUFVIS_clean_sbu_0, # of connection points: 4
#     Node 20, Type 0, BuildingBlock: KUFVIS_clean_sbu_0, # of connection points: 4
#     Node 21, Type 0, BuildingBlock: KUFVIS_clean_sbu_0, # of connection points: 4
#     Node 22, Type 0, BuildingBlock: KUFVIS_clean_sbu_0, # of connection points: 4
#     Node 23, Type 0, BuildingBlock: KUFVIS_clean_sbu_0, # of connection points: 4
#     Node 24, Type 0, BuildingBlock: KUFVIS_clean_sbu_0, # of connection points: 4
#     Node 25, Type 0, BuildingBlock: KUFVIS_clean_sbu_0, # of connection points: 4
#     Node 26, Type 0, BuildingBlock: KUFVIS_clean_sbu_0, # of connection points: 4
#     Node 27, Type 0, BuildingBlock: KUFVIS_clean_sbu_0, # of connection points: 4
#     Node 28, Type 0, BuildingBlock: KUFVIS_clean_sbu_0, # of connection points: 4
#     Node 29, Type 0, BuildingBlock: KUFVIS_clean_sbu_0, # of connection points: 4
#     Node 30, Type 0, BuildingBlock: KUFVIS_clean_sbu_0, # of connection points: 4
#     Node 31, Type 0, BuildingBlock: KUFVIS_clean_sbu_0, # of connection points: 4
#     Node 32, Type 0, BuildingBlock: KUFVIS_clean_sbu_0, # of connection points: 4
#     Node 33, Type 0, BuildingBlock: KUFVIS_clean_sbu_0, # of connection points: 4
#     Node 34, Type 0, BuildingBlock: KUFVIS_clean_sbu_0, # of connection points: 4
#     Node 35, Type 0, BuildingBlock: KUFVIS_clean_sbu_0, # of connection points: 4
#     Node 36, Type 0, BuildingBlock: KUFVIS_clean_sbu_0, # of connection points: 4
#     Node 37, Type 0, BuildingBlock: KUFVIS_clean_sbu_0, # of connection points: 4
#     Node 38, Type 0, BuildingBlock: KUFVIS_clean_sbu_0, # of connection points: 4
#     Node 39, Type 0, BuildingBlock: KUFVIS_clean_sbu_0, # of connection points: 4
#     Node 40, Type 0, BuildingBlock: KUFVIS_clean_sbu_0, # of connection points: 4
#     Node 41, Type 0, BuildingBlock: KUFVIS_clean_sbu_0, # of connection points: 4
#     Node 42, Type 0, BuildingBlock: KUFVIS_clean_sbu_0, # of connection points: 4
#     Node 43, Type 0, BuildingBlock: KUFVIS_clean_sbu_0, # of connection points: 4
#     Node 44, Type 0, BuildingBlock: KUFVIS_clean_sbu_0, # of connection points: 4
#     Node 45, Type 0, BuildingBlock: KUFVIS_clean_sbu_0, # of connection points: 4
#     Node 46, Type 0, BuildingBlock: KUFVIS_clean_sbu_0, # of connection points: 4
#     Node 47, Type 0, BuildingBlock: KUFVIS_clean_sbu_0, # of connection points: 4
#     Node 48, Type 0, BuildingBlock: KUFVIS_clean_sbu_0, # of connection points: 4
#     Node 49, Type 0, BuildingBlock: KUFVIS_clean_sbu_0, # of connection points: 4
#     Node 50, Type 0, BuildingBlock: KUFVIS_clean_sbu_0, # of connection points: 4
#     Node 51, Type 0, BuildingBlock: KUFVIS_clean_sbu_0, # of connection points: 4
#     Node 52, Type 0, BuildingBlock: KUFVIS_clean_sbu_0, # of connection points: 4
#     Node 53, Type 0, BuildingBlock: KUFVIS_clean_sbu_0, # of connection points: 4
#     Node 54, Type 0, BuildingBlock: KUFVIS_clean_sbu_0, # of connection points: 4
#     Node 55, Type 0, BuildingBlock: KUFVIS_clean_sbu_0, # of connection points: 4
#     Node 56, Type 0, BuildingBlock: KUFVIS_clean_sbu_0, # of connection points: 4
#     Node 57, Type 0, BuildingBlock: KUFVIS_clean_sbu_0, # of connection points: 4
#     Node 58, Type 0, BuildingBlock: KUFVIS_clean_sbu_0, # of connection points: 4
#     Node 59, Type 0, BuildingBlock: KUFVIS_clean_sbu_0, # of connection points: 4
#     Node 60, Type 0, BuildingBlock: KUFVIS_clean_sbu_0, # of connection points: 4
#     Node 61, Type 0, BuildingBlock: KUFVIS_clean_sbu_0, # of connection points: 4
#     Node 62, Type 0, BuildingBlock: KUFVIS_clean_sbu_0, # of connection points: 4
#     Node 63, Type 0, BuildingBlock: KUFVIS_clean_sbu_0, # of connection points: 4
#     Node 64, Type 0, BuildingBlock: KUFVIS_clean_sbu_0, # of connection points: 4
#     Node 65, Type 0, BuildingBlock: KUFVIS_clean_sbu_0, # of connection points: 4
#     Node 66, Type 0, BuildingBlock: KUFVIS_clean_sbu_0, # of connection points: 4
#     Node 67, Type 0, BuildingBlock: KUFVIS_clean_sbu_0, # of connection points: 4
#     Node 68, Type 0, BuildingBlock: KUFVIS_clean_sbu_0, # of connection points: 4
#     Node 69, Type 0, BuildingBlock: KUFVIS_clean_sbu_0, # of connection points: 4
#     Node 70, Type 0, BuildingBlock: KUFVIS_clean_sbu_0, # of connection points: 4
#     Node 71, Type 0, BuildingBlock: KUFVIS_clean_sbu_0, # of connection points: 4
#     Node 72, Type 0, BuildingBlock: KUFVIS_clean_sbu_0, # of connection points: 4
#     Node 73, Type 0, BuildingBlock: KUFVIS_clean_sbu_0, # of connection points: 4
#     Node 74, Type 0, BuildingBlock: KUFVIS_clean_sbu_0, # of connection points: 4
#     Node 75, Type 0, BuildingBlock: KUFVIS_clean_sbu_0, # of connection points: 4
#     Node 76, Type 0, BuildingBlock: KUFVIS_clean_sbu_0, # of connection points: 4
#     Node 77, Type 0, BuildingBlock: KUFVIS_clean_sbu_0, # of connection points: 4
#     Node 78, Type 0, BuildingBlock: KUFVIS_clean_sbu_0, # of connection points: 4
#     Node 79, Type 0, BuildingBlock: KUFVIS_clean_sbu_0, # of connection points: 4
#     Node 80, Type 0, BuildingBlock: KUFVIS_clean_sbu_0, # of connection points: 4
#     Node 81, Type 0, BuildingBlock: KUFVIS_clean_sbu_0, # of connection points: 4
#     Node 82, Type 0, BuildingBlock: KUFVIS_clean_sbu_0, # of connection points: 4
#     Node 83, Type 0, BuildingBlock: KUFVIS_clean_sbu_0, # of connection points: 4
#     Node 84, Type 0, BuildingBlock: KUFVIS_clean_sbu_0, # of connection points: 4
#     Node 85, Type 0, BuildingBlock: KUFVIS_clean_sbu_0, # of connection points: 4
#     Node 86, Type 0, BuildingBlock: KUFVIS_clean_sbu_0, # of connection points: 4
#     Node 87, Type 0, BuildingBlock: KUFVIS_clean_sbu_0, # of connection points: 4
#     Node 88, Type 0, BuildingBlock: KUFVIS_clean_sbu_0, # of connection points: 4
#     Node 89, Type 0, BuildingBlock: KUFVIS_clean_sbu_0, # of connection points: 4
#     Node 90, Type 0, BuildingBlock: KUFVIS_clean_sbu_0, # of connection points: 4
#     Node 91, Type 0, BuildingBlock: KUFVIS_clean_sbu_0, # of connection points: 4
#     Node 92, Type 0, BuildingBlock: KUFVIS_clean_sbu_0, # of connection points: 4
#     Node 93, Type 0, BuildingBlock: KUFVIS_clean_sbu_0, # of connection points: 4
#     Node 94, Type 0, BuildingBlock: KUFVIS_clean_sbu_0, # of connection points: 4
#     Node 95, Type 0, BuildingBlock: KUFVIS_clean_sbu_0, # of connection points: 4
#     Edge 96, Type (0, 0), BuildingBlock: CIFDUS_clean_linker_0, # of connection points: 2
#     Edge 97, Type (0, 0), BuildingBlock: CIFDUS_clean_linker_0, # of connection points: 2
#     Edge 98, Type (0, 0), BuildingBlock: CIFDUS_clean_linker_0, # of connection points: 2
#     Edge 99, Type (0, 0), BuildingBlock: CIFDUS_clean_linker_0, # of connection points: 2
#     Edge 100, Type (0, 0), BuildingBlock: CIFDUS_clean_linker_0, # of connection points: 2
#     Edge 101, Type (0, 0), BuildingBlock: CIFDUS_clean_linker_0, # of connection points: 2
#     Edge 102, Type (0, 0), BuildingBlock: CIFDUS_clean_linker_0, # of connection points: 2
#     Edge 103, Type (0, 0), BuildingBlock: CIFDUS_clean_linker_0, # of connection points: 2
#     Edge 104, Type (0, 0), BuildingBlock: CIFDUS_clean_linker_0, # of connection points: 2
#     Edge 105, Type (0, 0), BuildingBlock: CIFDUS_clean_linker_0, # of connection points: 2
#     Edge 106, Type (0, 0), BuildingBlock: CIFDUS_clean_linker_0, # of connection points: 2
#     Edge 107, Type (0, 0), BuildingBlock: CIFDUS_clean_linker_0, # of connection points: 2
#     Edge 108, Type (0, 0), BuildingBlock: CIFDUS_clean_linker_0, # of connection points: 2
#     Edge 109, Type (0, 0), BuildingBlock: CIFDUS_clean_linker_0, # of connection points: 2
#     Edge 110, Type (0, 0), BuildingBlock: CIFDUS_clean_linker_0, # of connection points: 2
#     Edge 111, Type (0, 0), BuildingBlock: CIFDUS_clean_linker_0, # of connection points: 2
#     Edge 112, Type (0, 0), BuildingBlock: CIFDUS_clean_linker_0, # of connection points: 2
#     Edge 113, Type (0, 0), BuildingBlock: CIFDUS_clean_linker_0, # of connection points: 2
#     Edge 114, Type (0, 0), BuildingBlock: CIFDUS_clean_linker_0, # of connection points: 2
#     Edge 115, Type (0, 0), BuildingBlock: CIFDUS_clean_linker_0, # of connection points: 2
#     Edge 116, Type (0, 0), BuildingBlock: CIFDUS_clean_linker_0, # of connection points: 2
#     Edge 117, Type (0, 0), BuildingBlock: CIFDUS_clean_linker_0, # of connection points: 2
#     Edge 118, Type (0, 0), BuildingBlock: CIFDUS_clean_linker_0, # of connection points: 2
#     Edge 119, Type (0, 0), BuildingBlock: CIFDUS_clean_linker_0, # of connection points: 2
#     Edge 120, Type (0, 0), BuildingBlock: CIFDUS_clean_linker_0, # of connection points: 2
#     Edge 121, Type (0, 0), BuildingBlock: CIFDUS_clean_linker_0, # of connection points: 2
#     Edge 122, Type (0, 0), BuildingBlock: CIFDUS_clean_linker_0, # of connection points: 2
#     Edge 123, Type (0, 0), BuildingBlock: CIFDUS_clean_linker_0, # of connection points: 2
#     Edge 124, Type (0, 0), BuildingBlock: CIFDUS_clean_linker_0, # of connection points: 2
#     Edge 125, Type (0, 0), BuildingBlock: CIFDUS_clean_linker_0, # of connection points: 2
#     Edge 126, Type (0, 0), BuildingBlock: CIFDUS_clean_linker_0, # of connection points: 2
#     Edge 127, Type (0, 0), BuildingBlock: CIFDUS_clean_linker_0, # of connection points: 2
#     Edge 128, Type (0, 0), BuildingBlock: CIFDUS_clean_linker_0, # of connection points: 2
#     Edge 129, Type (0, 0), BuildingBlock: CIFDUS_clean_linker_0, # of connection points: 2
#     Edge 130, Type (0, 0), BuildingBlock: CIFDUS_clean_linker_0, # of connection points: 2
#     Edge 131, Type (0, 0), BuildingBlock: CIFDUS_clean_linker_0, # of connection points: 2
#     Edge 132, Type (0, 0), BuildingBlock: CIFDUS_clean_linker_0, # of connection points: 2
#     Edge 133, Type (0, 0), BuildingBlock: CIFDUS_clean_linker_0, # of connection points: 2
#     Edge 134, Type (0, 0), BuildingBlock: CIFDUS_clean_linker_0, # of connection points: 2
#     Edge 135, Type (0, 0), BuildingBlock: CIFDUS_clean_linker_0, # of connection points: 2
#     Edge 136, Type (0, 0), BuildingBlock: CIFDUS_clean_linker_0, # of connection points: 2
#     Edge 137, Type (0, 0), BuildingBlock: CIFDUS_clean_linker_0, # of connection points: 2
#     Edge 138, Type (0, 0), BuildingBlock: CIFDUS_clean_linker_0, # of connection points: 2
#     Edge 139, Type (0, 0), BuildingBlock: CIFDUS_clean_linker_0, # of connection points: 2
#     Edge 140, Type (0, 0), BuildingBlock: CIFDUS_clean_linker_0, # of connection points: 2
#     Edge 141, Type (0, 0), BuildingBlock: CIFDUS_clean_linker_0, # of connection points: 2
#     Edge 142, Type (0, 0), BuildingBlock: CIFDUS_clean_linker_0, # of connection points: 2
#     Edge 143, Type (0, 0), BuildingBlock: CIFDUS_clean_linker_0, # of connection points: 2
#     Edge 144, Type (0, 0), BuildingBlock: CIFDUS_clean_linker_0, # of connection points: 2
#     Edge 145, Type (0, 0), BuildingBlock: CIFDUS_clean_linker_0, # of connection points: 2
#     Edge 146, Type (0, 0), BuildingBlock: CIFDUS_clean_linker_0, # of connection points: 2
#     Edge 147, Type (0, 0), BuildingBlock: CIFDUS_clean_linker_0, # of connection points: 2
#     Edge 148, Type (0, 0), BuildingBlock: CIFDUS_clean_linker_0, # of connection points: 2
#     Edge 149, Type (0, 0), BuildingBlock: CIFDUS_clean_linker_0, # of connection points: 2
#     Edge 150, Type (0, 0), BuildingBlock: CIFDUS_clean_linker_0, # of connection points: 2
#     Edge 151, Type (0, 0), BuildingBlock: CIFDUS_clean_linker_0, # of connection points: 2
#     Edge 152, Type (0, 0), BuildingBlock: CIFDUS_clean_linker_0, # of connection points: 2
#     Edge 153, Type (0, 0), BuildingBlock: CIFDUS_clean_linker_0, # of connection points: 2
#     Edge 154, Type (0, 0), BuildingBlock: CIFDUS_clean_linker_0, # of connection points: 2
#     Edge 155, Type (0, 0), BuildingBlock: CIFDUS_clean_linker_0, # of connection points: 2
#     Edge 156, Type (0, 0), BuildingBlock: CIFDUS_clean_linker_0, # of connection points: 2
#     Edge 157, Type (0, 0), BuildingBlock: CIFDUS_clean_linker_0, # of connection points: 2
#     Edge 158, Type (0, 0), BuildingBlock: CIFDUS_clean_linker_0, # of connection points: 2
#     Edge 159, Type (0, 0), BuildingBlock: CIFDUS_clean_linker_0, # of connection points: 2
#     Edge 160, Type (0, 0), BuildingBlock: CIFDUS_clean_linker_0, # of connection points: 2
#     Edge 161, Type (0, 0), BuildingBlock: CIFDUS_clean_linker_0, # of connection points: 2
#     Edge 162, Type (0, 0), BuildingBlock: CIFDUS_clean_linker_0, # of connection points: 2
#     Edge 163, Type (0, 0), BuildingBlock: CIFDUS_clean_linker_0, # of connection points: 2
#     Edge 164, Type (0, 0), BuildingBlock: CIFDUS_clean_linker_0, # of connection points: 2
#     Edge 165, Type (0, 0), BuildingBlock: CIFDUS_clean_linker_0, # of connection points: 2
#     Edge 166, Type (0, 0), BuildingBlock: CIFDUS_clean_linker_0, # of connection points: 2
#     Edge 167, Type (0, 0), BuildingBlock: CIFDUS_clean_linker_0, # of connection points: 2
#     Edge 168, Type (0, 0), BuildingBlock: CIFDUS_clean_linker_0, # of connection points: 2
#     Edge 169, Type (0, 0), BuildingBlock: CIFDUS_clean_linker_0, # of connection points: 2
#     Edge 170, Type (0, 0), BuildingBlock: CIFDUS_clean_linker_0, # of connection points: 2
#     Edge 171, Type (0, 0), BuildingBlock: CIFDUS_clean_linker_0, # of connection points: 2
#     Edge 172, Type (0, 0), BuildingBlock: CIFDUS_clean_linker_0, # of connection points: 2
#     Edge 173, Type (0, 0), BuildingBlock: CIFDUS_clean_linker_0, # of connection points: 2
#     Edge 174, Type (0, 0), BuildingBlock: CIFDUS_clean_linker_0, # of connection points: 2
#     Edge 175, Type (0, 0), BuildingBlock: CIFDUS_clean_linker_0, # of connection points: 2
#     Edge 176, Type (0, 0), BuildingBlock: CIFDUS_clean_linker_0, # of connection points: 2
#     Edge 177, Type (0, 0), BuildingBlock: CIFDUS_clean_linker_0, # of connection points: 2
#     Edge 178, Type (0, 0), BuildingBlock: CIFDUS_clean_linker_0, # of connection points: 2
#     Edge 179, Type (0, 0), BuildingBlock: CIFDUS_clean_linker_0, # of connection points: 2
#     Edge 180, Type (0, 0), BuildingBlock: CIFDUS_clean_linker_0, # of connection points: 2
#     Edge 181, Type (0, 0), BuildingBlock: CIFDUS_clean_linker_0, # of connection points: 2
#     Edge 182, Type (0, 0), BuildingBlock: CIFDUS_clean_linker_0, # of connection points: 2
#     Edge 183, Type (0, 0), BuildingBlock: CIFDUS_clean_linker_0, # of connection points: 2
#     Edge 184, Type (0, 0), BuildingBlock: CIFDUS_clean_linker_0, # of connection points: 2
#     Edge 185, Type (0, 0), BuildingBlock: CIFDUS_clean_linker_0, # of connection points: 2
#     Edge 186, Type (0, 0), BuildingBlock: CIFDUS_clean_linker_0, # of connection points: 2
#     Edge 187, Type (0, 0), BuildingBlock: CIFDUS_clean_linker_0, # of connection points: 2
#     Edge 188, Type (0, 0), BuildingBlock: CIFDUS_clean_linker_0, # of connection points: 2
#     Edge 189, Type (0, 0), BuildingBlock: CIFDUS_clean_linker_0, # of connection points: 2
#     Edge 190, Type (0, 0), BuildingBlock: CIFDUS_clean_linker_0, # of connection points: 2
#     Edge 191, Type (0, 0), BuildingBlock: CIFDUS_clean_linker_0, # of connection points: 2
#     Edge 192, Type (0, 0), BuildingBlock: CIFDUS_clean_linker_0, # of connection points: 2
#     Edge 193, Type (0, 0), BuildingBlock: CIFDUS_clean_linker_0, # of connection points: 2
#     Edge 194, Type (0, 0), BuildingBlock: CIFDUS_clean_linker_0, # of connection points: 2
#     Edge 195, Type (0, 0), BuildingBlock: CIFDUS_clean_linker_0, # of connection points: 2
#     Edge 196, Type (0, 0), BuildingBlock: CIFDUS_clean_linker_0, # of connection points: 2
#     Edge 197, Type (0, 0), BuildingBlock: CIFDUS_clean_linker_0, # of connection points: 2
#     Edge 198, Type (0, 0), BuildingBlock: CIFDUS_clean_linker_0, # of connection points: 2
#     Edge 199, Type (0, 0), BuildingBlock: CIFDUS_clean_linker_0, # of connection points: 2
#     Edge 200, Type (0, 0), BuildingBlock: CIFDUS_clean_linker_0, # of connection points: 2
#     Edge 201, Type (0, 0), BuildingBlock: CIFDUS_clean_linker_0, # of connection points: 2
#     Edge 202, Type (0, 0), BuildingBlock: CIFDUS_clean_linker_0, # of connection points: 2
#     Edge 203, Type (0, 0), BuildingBlock: CIFDUS_clean_linker_0, # of connection points: 2
#     Edge 204, Type (0, 0), BuildingBlock: CIFDUS_clean_linker_0, # of connection points: 2
#     Edge 205, Type (0, 0), BuildingBlock: CIFDUS_clean_linker_0, # of connection points: 2
#     Edge 206, Type (0, 0), BuildingBlock: CIFDUS_clean_linker_0, # of connection points: 2
#     Edge 207, Type (0, 0), BuildingBlock: CIFDUS_clean_linker_0, # of connection points: 2
#     Edge 208, Type (0, 0), BuildingBlock: CIFDUS_clean_linker_0, # of connection points: 2
#     Edge 209, Type (0, 0), BuildingBlock: CIFDUS_clean_linker_0, # of connection points: 2
#     Edge 210, Type (0, 0), BuildingBlock: CIFDUS_clean_linker_0, # of connection points: 2
#     Edge 211, Type (0, 0), BuildingBlock: CIFDUS_clean_linker_0, # of connection points: 2
#     Edge 212, Type (0, 0), BuildingBlock: CIFDUS_clean_linker_0, # of connection points: 2
#     Edge 213, Type (0, 0), BuildingBlock: CIFDUS_clean_linker_0, # of connection points: 2
#     Edge 214, Type (0, 0), BuildingBlock: CIFDUS_clean_linker_0, # of connection points: 2
#     Edge 215, Type (0, 0), BuildingBlock: CIFDUS_clean_linker_0, # of connection points: 2
#     Edge 216, Type (0, 0), BuildingBlock: CIFDUS_clean_linker_0, # of connection points: 2
#     Edge 217, Type (0, 0), BuildingBlock: CIFDUS_clean_linker_0, # of connection points: 2
#     Edge 218, Type (0, 0), BuildingBlock: CIFDUS_clean_linker_0, # of connection points: 2
#     Edge 219, Type (0, 0), BuildingBlock: CIFDUS_clean_linker_0, # of connection points: 2
#     Edge 220, Type (0, 0), BuildingBlock: CIFDUS_clean_linker_0, # of connection points: 2
#     Edge 221, Type (0, 0), BuildingBlock: CIFDUS_clean_linker_0, # of connection points: 2
#     Edge 222, Type (0, 0), BuildingBlock: CIFDUS_clean_linker_0, # of connection points: 2
#     Edge 223, Type (0, 0), BuildingBlock: CIFDUS_clean_linker_0, # of connection points: 2
#     Edge 224, Type (0, 0), BuildingBlock: CIFDUS_clean_linker_0, # of connection points: 2
#     Edge 225, Type (0, 0), BuildingBlock: CIFDUS_clean_linker_0, # of connection points: 2
#     Edge 226, Type (0, 0), BuildingBlock: CIFDUS_clean_linker_0, # of connection points: 2
#     Edge 227, Type (0, 0), BuildingBlock: CIFDUS_clean_linker_0, # of connection points: 2
#     Edge 228, Type (0, 0), BuildingBlock: CIFDUS_clean_linker_0, # of connection points: 2
#     Edge 229, Type (0, 0), BuildingBlock: CIFDUS_clean_linker_0, # of connection points: 2
#     Edge 230, Type (0, 0), BuildingBlock: CIFDUS_clean_linker_0, # of connection points: 2
#     Edge 231, Type (0, 0), BuildingBlock: CIFDUS_clean_linker_0, # of connection points: 2
#     Edge 232, Type (0, 0), BuildingBlock: CIFDUS_clean_linker_0, # of connection points: 2
#     Edge 233, Type (0, 0), BuildingBlock: CIFDUS_clean_linker_0, # of connection points: 2
#     Edge 234, Type (0, 0), BuildingBlock: CIFDUS_clean_linker_0, # of connection points: 2
#     Edge 235, Type (0, 0), BuildingBlock: CIFDUS_clean_linker_0, # of connection points: 2
#     Edge 236, Type (0, 0), BuildingBlock: CIFDUS_clean_linker_0, # of connection points: 2
#     Edge 237, Type (0, 0), BuildingBlock: CIFDUS_clean_linker_0, # of connection points: 2
#     Edge 238, Type (0, 0), BuildingBlock: CIFDUS_clean_linker_0, # of connection points: 2
#     Edge 239, Type (0, 0), BuildingBlock: CIFDUS_clean_linker_0, # of connection points: 2
#     Edge 240, Type (0, 0), BuildingBlock: CIFDUS_clean_linker_0, # of connection points: 2
#     Edge 241, Type (0, 0), BuildingBlock: CIFDUS_clean_linker_0, # of connection points: 2
#     Edge 242, Type (0, 0), BuildingBlock: CIFDUS_clean_linker_0, # of connection points: 2
#     Edge 243, Type (0, 0), BuildingBlock: CIFDUS_clean_linker_0, # of connection points: 2
#     Edge 244, Type (0, 0), BuildingBlock: CIFDUS_clean_linker_0, # of connection points: 2
#     Edge 245, Type (0, 0), BuildingBlock: CIFDUS_clean_linker_0, # of connection points: 2
#     Edge 246, Type (0, 0), BuildingBlock: CIFDUS_clean_linker_0, # of connection points: 2
#     Edge 247, Type (0, 0), BuildingBlock: CIFDUS_clean_linker_0, # of connection points: 2
#     Edge 248, Type (0, 0), BuildingBlock: CIFDUS_clean_linker_0, # of connection points: 2
#     Edge 249, Type (0, 0), BuildingBlock: CIFDUS_clean_linker_0, # of connection points: 2
#     Edge 250, Type (0, 0), BuildingBlock: CIFDUS_clean_linker_0, # of connection points: 2
#     Edge 251, Type (0, 0), BuildingBlock: CIFDUS_clean_linker_0, # of connection points: 2
#     Edge 252, Type (0, 0), BuildingBlock: CIFDUS_clean_linker_0, # of connection points: 2
#     Edge 253, Type (0, 0), BuildingBlock: CIFDUS_clean_linker_0, # of connection points: 2
#     Edge 254, Type (0, 0), BuildingBlock: CIFDUS_clean_linker_0, # of connection points: 2
#     Edge 255, Type (0, 0), BuildingBlock: CIFDUS_clean_linker_0, # of connection points: 2
#     Edge 256, Type (0, 0), BuildingBlock: CIFDUS_clean_linker_0, # of connection points: 2
#     Edge 257, Type (0, 0), BuildingBlock: CIFDUS_clean_linker_0, # of connection points: 2
#     Edge 258, Type (0, 0), BuildingBlock: CIFDUS_clean_linker_0, # of connection points: 2
#     Edge 259, Type (0, 0), BuildingBlock: CIFDUS_clean_linker_0, # of connection points: 2
#     Edge 260, Type (0, 0), BuildingBlock: CIFDUS_clean_linker_0, # of connection points: 2
#     Edge 261, Type (0, 0), BuildingBlock: CIFDUS_clean_linker_0, # of connection points: 2
#     Edge 262, Type (0, 0), BuildingBlock: CIFDUS_clean_linker_0, # of connection points: 2
#     Edge 263, Type (0, 0), BuildingBlock: CIFDUS_clean_linker_0, # of connection points: 2
#     Edge 264, Type (0, 0), BuildingBlock: CIFDUS_clean_linker_0, # of connection points: 2
#     Edge 265, Type (0, 0), BuildingBlock: CIFDUS_clean_linker_0, # of connection points: 2
#     Edge 266, Type (0, 0), BuildingBlock: CIFDUS_clean_linker_0, # of connection points: 2
#     Edge 267, Type (0, 0), BuildingBlock: CIFDUS_clean_linker_0, # of connection points: 2
#     Edge 268, Type (0, 0), BuildingBlock: CIFDUS_clean_linker_0, # of connection points: 2
#     Edge 269, Type (0, 0), BuildingBlock: CIFDUS_clean_linker_0, # of connection points: 2
#     Edge 270, Type (0, 0), BuildingBlock: CIFDUS_clean_linker_0, # of connection points: 2
#     Edge 271, Type (0, 0), BuildingBlock: CIFDUS_clean_linker_0, # of connection points: 2
#     Edge 272, Type (0, 0), BuildingBlock: CIFDUS_clean_linker_0, # of connection points: 2
#     Edge 273, Type (0, 0), BuildingBlock: CIFDUS_clean_linker_0, # of connection points: 2
#     Edge 274, Type (0, 0), BuildingBlock: CIFDUS_clean_linker_0, # of connection points: 2
#     Edge 275, Type (0, 0), BuildingBlock: CIFDUS_clean_linker_0, # of connection points: 2
#     Edge 276, Type (0, 0), BuildingBlock: CIFDUS_clean_linker_0, # of connection points: 2
#     Edge 277, Type (0, 0), BuildingBlock: CIFDUS_clean_linker_0, # of connection points: 2
#     Edge 278, Type (0, 0), BuildingBlock: CIFDUS_clean_linker_0, # of connection points: 2
#     Edge 279, Type (0, 0), BuildingBlock: CIFDUS_clean_linker_0, # of connection points: 2
#     Edge 280, Type (0, 0), BuildingBlock: CIFDUS_clean_linker_0, # of connection points: 2
#     Edge 281, Type (0, 0), BuildingBlock: CIFDUS_clean_linker_0, # of connection points: 2
#     Edge 282, Type (0, 0), BuildingBlock: CIFDUS_clean_linker_0, # of connection points: 2
#     Edge 283, Type (0, 0), BuildingBlock: CIFDUS_clean_linker_0, # of connection points: 2
#     Edge 284, Type (0, 0), BuildingBlock: CIFDUS_clean_linker_0, # of connection points: 2
#     Edge 285, Type (0, 0), BuildingBlock: CIFDUS_clean_linker_0, # of connection points: 2
#     Edge 286, Type (0, 0), BuildingBlock: CIFDUS_clean_linker_0, # of connection points: 2
#     Edge 287, Type (0, 0), BuildingBlock: CIFDUS_clean_linker_0, # of connection points: 2
# Relax obj value: 0.283
# Max RMSD: 0.132
# Mean RMSD: 0.130
data_MOF--net-wse--node1-KUFVIS_clean_sbu_0--edge1-CIFDUS_clean_linker_0
_symmetry_space_group_name_H-M    P1
_symmetry_Int_Tables_number       1
_symmetry_cell_setting            triclinic
loop_
_symmetry_equiv_pos_as_xyz
'x, y, z'
_cell_length_a     87.726339
_cell_length_b     87.722033
_cell_length_c     87.725126
_cell_angle_alpha  90.000462
_cell_angle_beta   90.000997
_cell_angle_gamma 89.987926
loop_
_atom_site_label
_atom_site_type_symbol
_atom_site_fract_x
_atom_site_fract_y
_atom_site_fract_z
_atom_type_partial_charge
Mn0 Mn 0.07904 0.1765 0.43554 0.0
Mn1 Mn 0.06262 0.20366 0.45638 0.0
C2 C 0.08463 0.17976 0.46099 0.0
C3 C 0.08874 0.15298 0.42696 0.0
C4 C 0.08485 0.2106 0.43323 0.0
O5 O 0.05832 0.17716 0.42505 0.0
O6 O 0.0523 0.20001 0.43593 0.0
C7 C 0.02989 0.19532 0.46001 0.0
N8 N 0.04343 0.19895 0.46672 0.0
C9 C 0.02625 0.21324 0.48767 0.0
C10 C 0.01373 0.20874 0.47914 0.0
C11 C 0.01558 0.19963 0.46608 0.0
C12 C 0.04347 0.20603 0.48028 0.0
H13 H 0.02982 0.18904 0.44955 0.0
C14 C 0.0495 0.1888 0.42667 0.0
O15 O 0.09038 0.16544 0.41927 0.0
O16 O 0.07949 0.15363 0.43855 0.0
N17 N 0.07203 0.20746 0.47618 0.0
C18 C 0.08658 0.21229 0.47883 0.0
C19 C 0.09163 0.21724 0.49325 0.0
C20 C 0.08193 0.22001 0.50562 0.0
C21 C 0.06581 0.21856 0.50379 0.0
C22 C 0.06151 0.2085 0.48708 0.0
H23 H 0.09502 0.21166 0.4699 0.0
O24 O 0.09553 0.17728 0.45124 0.0
O25 O 0.07117 0.18288 0.45562 0.0
O26 O 0.08305 0.19799 0.42651 0.0
O27 O 0.08101 0.212 0.44692 0.0
C28 C 0.03964 0.23009 0.51597 0.0
C29 C 0.02389 0.22444 0.50442 0.0
H30 H 0.00239 0.21193 0.48267 0.0
H31 H 0.00543 0.1962 0.45995 0.0
H32 H 0.10366 0.21962 0.49467 0.0
H33 H 0.08735 0.22439 0.51579 0.0
H34 H 0.03749 0.23736 0.52587 0.0
H35 H 0.01278 0.22832 0.50772 0.0
Mn36 Mn 0.82869 0.08081 0.43207 0.0
Mn37 Mn 0.80382 0.05995 0.45253 0.0
C38 C 0.8252 0.085 0.45782 0.0
C39 C 0.85167 0.09168 0.42355 0.0
C40 C 0.79398 0.0839 0.43078 0.0
O41 O 0.82913 0.06065 0.42032 0.0
O42 O 0.80868 0.05008 0.43235 0.0
C43 C 0.81647 0.0288 0.45647 0.0
N44 N 0.8114 0.04191 0.46313 0.0
C45 C 0.79968 0.02343 0.4845 0.0
C46 C 0.80545 0.0114 0.47605 0.0
C47 C 0.81397 0.01414 0.46276 0.0
C48 C 0.80448 0.04128 0.47674 0.0
H49 H 0.82239 0.02935 0.4458 0.0
C50 C 0.81954 0.04972 0.42238 0.0
O51 O 0.83896 0.09352 0.41633 0.0
O52 O 0.85157 0.08179 0.43461 0.0
N53 N 0.79893 0.06916 0.4721 0.0
C54 C 0.79224 0.083 0.47449 0.0
C55 C 0.78707 0.08773 0.48894 0.0
C56 C 0.7861 0.07807 0.50163 0.0
C57 C 0.78966 0.06223 0.5001 0.0
C58 C 0.79978 0.05894 0.48326 0.0
H59 H 0.79153 0.09116 0.46531 0.0
O60 O 0.82748 0.09638 0.44861 0.0
O61 O 0.82316 0.07159 0.45176 0.0
O62 O 0.8068 0.08535 0.4243 0.0
O63 O 0.7923 0.07606 0.44264 0.0
C64 C 0.78185 0.03503 0.51298 0.0
C65 C 0.78931 0.01993 0.50149 0.0
H66 H 0.80355 0.99981 0.47983 0.0
H67 H 0.81837 0.00437 0.45661 0.0
H68 H 0.78311 0.09935 0.49016 0.0
H69 H 0.78139 0.08315 0.51182 0.0
H70 H 0.77516 0.03217 0.5231 0.0
H71 H 0.78751 0.00835 0.5049 0.0
Mn72 Mn 0.92402 0.83044 0.43213 0.0
Mn73 Mn 0.94333 0.80412 0.45214 0.0
C74 C 0.92047 0.82708 0.45798 0.0
C75 C 0.91342 0.85388 0.42431 0.0
C76 C 0.92033 0.79584 0.429 0.0
O77 O 0.94436 0.8306 0.42081 0.0
O78 O 0.95437 0.80951 0.43253 0.0
C79 C 0.97468 0.8146 0.45828 0.0
N80 N 0.96102 0.81 0.46406 0.0
C81 C 0.97687 0.79616 0.48556 0.0
C82 C 0.98983 0.80163 0.47824 0.0
C83 C 0.98867 0.81095 0.46529 0.0
C84 C 0.96042 0.80231 0.47738 0.0
H85 H 0.97506 0.82089 0.44778 0.0
C86 C 0.95516 0.82084 0.42301 0.0
O87 O 0.9115 0.84142 0.4167 0.0
O88 O 0.92334 0.85331 0.43533 0.0
N89 N 0.93292 0.79939 0.47103 0.0
C90 C 0.91828 0.79448 0.47267 0.0
C91 C 0.91264 0.78918 0.48667 0.0
C92 C 0.92195 0.78645 0.49934 0.0
C93 C 0.93817 0.78859 0.49833 0.0
C94 C 0.94272 0.79879 0.48261 0.0
H95 H 0.91042 0.79522 0.46322 0.0
O96 O 0.90873 0.82941 0.44921 0.0
O97 O 0.93332 0.82414 0.45138 0.0
O98 O 0.91958 0.809 0.42317 0.0
O99 O 0.9271 0.79358 0.44136 0.0
C100 C 0.96342 0.7787 0.51147 0.0
C101 C 0.97887 0.78516 0.5015 0.0
H102 H 1.001 0.79898 0.48267 0.0
H103 H 0.99908 0.81502 0.46005 0.0
H104 H 0.90062 0.78649 0.48751 0.0
H105 H 0.91616 0.78173 0.50914 0.0
H106 H 0.96551 0.77142 0.52139 0.0
H107 H 0.98995 0.7819 0.50547 0.0
Mn108 Mn 0.17574 0.92465 0.43015 0.0
Mn109 Mn 0.20125 0.94501 0.4505 0.0
C110 C 0.17792 0.92201 0.45628 0.0
C111 C 0.15244 0.91467 0.4214 0.0
C112 C 0.21038 0.92048 0.42857 0.0
O113 O 0.17697 0.94456 0.41776 0.0
O114 O 0.19598 0.9563 0.43126 0.0
C115 C 0.19053 0.97626 0.45705 0.0
N116 N 0.19478 0.96239 0.46265 0.0
C117 C 0.20801 0.97827 0.48526 0.0
C118 C 0.20254 0.99124 0.478 0.0
C119 C 0.19378 0.99012 0.46461 0.0
C120 C 0.20202 0.96148 0.4761 0.0
H121 H 0.1848 0.97695 0.44621 0.0
C122 C 0.18574 0.95607 0.42063 0.0
O123 O 0.16522 0.91195 0.41465 0.0
O124 O 0.15271 0.92514 0.43192 0.0
N125 N 0.20582 0.93387 0.46915 0.0
C126 C 0.21088 0.91924 0.47046 0.0
C127 C 0.2158 0.91302 0.48445 0.0
C128 C 0.21805 0.92164 0.49775 0.0
C129 C 0.21565 0.93777 0.49755 0.0
C130 C 0.20564 0.94309 0.48114 0.0
H131 H 0.21059 0.91179 0.46067 0.0
O132 O 0.17513 0.91013 0.44786 0.0
O133 O 0.1814 0.93454 0.44927 0.0
O134 O 0.19726 0.9178 0.42326 0.0
O135 O 0.2125 0.9298 0.43919 0.0
C136 C 0.22536 0.96324 0.5124 0.0
C137 C 0.21887 0.97966 0.50233 0.0
H138 H 0.20467 0.00235 0.48276 0.0
H139 H 0.18981 1.00061 0.45943 0.0
H140 H 0.21863 0.90101 0.48477 0.0
H141 H 0.22255 0.91548 0.50743 0.0
H142 H 0.23239 0.96485 0.52258 0.0
H143 H 0.22206 0.99054 0.50681 0.0
Mn144 Mn 0.07956 0.82947 0.57251 0.0
Mn145 Mn 0.06029 0.80323 0.55227 0.0
C146 C 0.0845 0.82557 0.54695 0.0
C147 C 0.08984 0.85292 0.58066 0.0
C148 C 0.08371 0.795 0.57514 0.0
O149 O 0.05898 0.82976 0.58346 0.0
O150 O 0.04935 0.80854 0.5719 0.0
C151 C 0.02877 0.81349 0.54649 0.0
N152 N 0.04242 0.80905 0.54056 0.0
C153 C 0.02643 0.7953 0.51906 0.0
C154 C 0.0135 0.80045 0.52666 0.0
C155 C 0.01473 0.80965 0.53969 0.0
C156 C 0.04292 0.80136 0.52727 0.0
H157 H 0.02843 0.81983 0.55694 0.0
C158 C 0.0483 0.8199 0.5813 0.0
O159 O 0.09156 0.84047 0.58833 0.0
O160 O 0.08028 0.85233 0.56933 0.0
N161 N 0.07043 0.79829 0.53332 0.0
C162 C 0.08483 0.79273 0.5316 0.0
C163 C 0.09047 0.78808 0.51738 0.0
C164 C 0.08128 0.78675 0.50442 0.0
C165 C 0.06508 0.78894 0.50553 0.0
C166 C 0.06058 0.79827 0.52175 0.0
H167 H 0.09264 0.79268 0.54111 0.0
O168 O 0.09559 0.82818 0.55644 0.0
O169 O 0.071 0.82315 0.5527 0.0
O170 O 0.08438 0.808 0.58131 0.0
O171 O 0.07646 0.79277 0.56303 0.0
C172 C 0.03984 0.77933 0.49215 0.0
C173 C 0.0244 0.78504 0.50261 0.0
H174 H 0.00231 0.79778 0.52231 0.0
H175 H 0.00434 0.81356 0.54509 0.0
H176 H 0.1024 0.78505 0.5165 0.0
H177 H 0.0871 0.78273 0.49433 0.0
H178 H 0.03777 0.77248 0.48193 0.0
H179 H 0.01332 0.78182 0.4986 0.0
Mn180 Mn 0.17514 0.08134 0.57085 0.0
Mn181 Mn 0.20117 0.06168 0.5507 0.0
C182 C 0.17892 0.0859 0.54525 0.0
C183 C 0.15161 0.09154 0.57882 0.0
C184 C 0.20967 0.08554 0.57313 0.0
O185 O 0.17488 0.06091 0.58208 0.0
O186 O 0.196 0.05105 0.57055 0.0
C187 C 0.19045 0.03002 0.54564 0.0
N188 N 0.19494 0.04355 0.53947 0.0
C189 C 0.20868 0.02634 0.51813 0.0
C190 C 0.20327 0.01381 0.52613 0.0
C191 C 0.19408 0.01572 0.53913 0.0
C192 C 0.20245 0.04365 0.52615 0.0
H193 H 0.18405 0.02995 0.55604 0.0
C194 C 0.18461 0.05011 0.57994 0.0
O195 O 0.16403 0.09349 0.58651 0.0
O196 O 0.15233 0.08182 0.56764 0.0
N197 N 0.20605 0.07165 0.53146 0.0
C198 C 0.21185 0.08594 0.52946 0.0
C199 C 0.21677 0.09136 0.51515 0.0
C200 C 0.21839 0.08214 0.5022 0.0
C201 C 0.21589 0.06607 0.50331 0.0
C202 C 0.20591 0.06172 0.52001 0.0
H203 H 0.21198 0.09389 0.53885 0.0
O204 O 0.17631 0.09714 0.55455 0.0
O205 O 0.18136 0.0725 0.5512 0.0
O206 O 0.19669 0.0864 0.57938 0.0
O207 O 0.2118 0.078 0.56116 0.0
C208 C 0.22587 0.03981 0.49007 0.0
C209 C 0.21958 0.02399 0.50117 0.0
H210 H 0.20564 0.00243 0.52218 0.0
H211 H 0.18997 0.00556 0.54483 0.0
H212 H 0.21998 0.10325 0.51425 0.0
H213 H 0.2228 0.08774 0.49215 0.0
H214 H 0.23295 0.03764 0.48004 0.0
H215 H 0.22299 0.01288 0.49746 0.0
Mn216 Mn 0.92405 0.1756 0.57233 0.0
Mn217 Mn 0.94048 0.20273 0.55141 0.0
C218 C 0.91857 0.17861 0.54674 0.0
C219 C 0.91468 0.15194 0.58085 0.0
C220 C 0.91731 0.20952 0.57409 0.0
O221 O 0.9447 0.1767 0.58308 0.0
O222 O 0.95086 0.19928 0.57178 0.0
C223 C 0.97326 0.19473 0.54767 0.0
N224 N 0.95964 0.19812 0.54099 0.0
C225 C 0.9765 0.2125 0.51984 0.0
C226 C 0.98914 0.20816 0.52828 0.0
C227 C 0.98748 0.19915 0.54144 0.0
C228 C 0.95942 0.20519 0.52743 0.0
H229 H 0.97347 0.18863 0.55825 0.0
C230 C 0.95356 0.18827 0.58129 0.0
O231 O 0.91269 0.16439 0.58847 0.0
O232 O 0.92413 0.15271 0.56944 0.0
N233 N 0.93089 0.20642 0.53174 0.0
C234 C 0.91627 0.21114 0.52922 0.0
C235 C 0.91104 0.21597 0.51484 0.0
C236 C 0.92061 0.21869 0.50238 0.0
C237 C 0.93677 0.21741 0.50411 0.0
C238 C 0.9413 0.2075 0.52079 0.0
H239 H 0.9079 0.21046 0.53821 0.0
O240 O 0.9077 0.17594 0.55645 0.0
O241 O 0.93196 0.18193 0.55219 0.0
O242 O 0.91914 0.19709 0.58112 0.0
O243 O 0.92227 0.21117 0.56081 0.0
C244 C 0.9627 0.22907 0.49159 0.0
C245 C 0.97861 0.22361 0.50301 0.0
H246 H 1.00042 0.21143 0.52462 0.0
H247 H 0.99772 0.1959 0.54754 0.0
H248 H 0.89898 0.21825 0.51351 0.0
H249 H 0.91504 0.22288 0.49222 0.0
H250 H 0.96468 0.2363 0.48163 0.0
H251 H 0.98965 0.22759 0.49962 0.0
Mn252 Mn 0.82897 0.9231 0.57273 0.0
Mn253 Mn 0.80107 0.93911 0.55298 0.0
C254 C 0.82543 0.91808 0.5472 0.0
C255 C 0.85256 0.91294 0.5805 0.0
C256 C 0.79523 0.9169 0.57591 0.0
O257 O 0.82879 0.9437 0.58325 0.0
O258 O 0.80528 0.94928 0.57356 0.0
C259 C 0.8069 0.97244 0.54975 0.0
N260 N 0.80413 0.95878 0.54288 0.0
C261 C 0.78851 0.97533 0.52231 0.0
C262 C 0.79172 0.98788 0.53137 0.0
C263 C 0.80113 0.98646 0.54425 0.0
C264 C 0.79673 0.95848 0.5295 0.0
H265 H 0.81352 0.97283 0.55993 0.0
C266 C 0.81707 0.95248 0.58202 0.0
O267 O 0.84032 0.91145 0.58855 0.0
O268 O 0.85173 0.92236 0.56906 0.0
N269 N 0.79711 0.92986 0.53313 0.0
C270 C 0.79313 0.91508 0.53024 0.0
C271 C 0.78859 0.90997 0.51572 0.0
C272 C 0.78547 0.91967 0.50345 0.0
C273 C 0.7859 0.93582 0.50554 0.0
C274 C 0.79541 0.94046 0.52243 0.0
H275 H 0.79426 0.90652 0.539 0.0
O276 O 0.82767 0.90693 0.55674 0.0
O277 O 0.8222 0.93143 0.55283 0.0
O278 O 0.8077 0.91933 0.58261 0.0
O279 O 0.79421 0.91998 0.56206 0.0
C280 C 0.773 0.96141 0.49353 0.0
C281 C 0.77744 0.9773 0.50544 0.0
H282 H 0.78713 0.99893 0.52854 0.0
H283 H 0.80369 0.99668 0.55069 0.0
H284 H 0.78694 0.89784 0.5141 0.0
H285 H 0.78164 0.91412 0.49313 0.0
H286 H 0.76571 0.96325 0.48358 0.0
H287 H 0.77263 0.98823 0.5025 0.0
Mn288 Mn 0.43079 0.0788 0.17287 0.0
Mn289 Mn 0.45072 0.06201 0.20032 0.0
C290 C 0.45564 0.08559 0.17797 0.0
C291 C 0.42345 0.08888 0.14908 0.0
C292 C 0.42596 0.0826 0.20692 0.0
O293 O 0.42181 0.05756 0.17148 0.0
O294 O 0.43127 0.05045 0.19463 0.0
C295 C 0.45742 0.03011 0.19122 0.0
N296 N 0.4628 0.04395 0.19575 0.0
C297 C 0.48465 0.02868 0.20973 0.0
C298 C 0.47747 0.01551 0.2046 0.0
C299 C 0.46456 0.0163 0.19523 0.0
C300 C 0.47602 0.0449 0.20352 0.0
H301 H 0.44729 0.02941 0.18449 0.0
C302 C 0.42331 0.04784 0.18237 0.0
O303 O 0.41463 0.08953 0.16087 0.0
O304 O 0.43572 0.08071 0.15053 0.0
N305 N 0.46946 0.07246 0.20562 0.0
C306 C 0.47095 0.08704 0.21082 0.0
C307 C 0.48498 0.09294 0.21569 0.0
C308 C 0.49801 0.08397 0.21757 0.0
C309 C 0.49718 0.06772 0.21572 0.0
C310 C 0.4811 0.06272 0.20637 0.0
H311 H 0.46144 0.09483 0.21042 0.0
O312 O 0.44538 0.09608 0.17568 0.0
O313 O 0.4509 0.07168 0.18006 0.0
O314 O 0.41992 0.08099 0.19394 0.0
O315 O 0.4397 0.07933 0.2088 0.0
C316 C 0.51117 0.04291 0.22559 0.0
C317 C 0.50111 0.02715 0.22003 0.0
H318 H 0.48213 0.00446 0.20732 0.0
H319 H 0.45957 0.00574 0.19123 0.0
H320 H 0.48565 0.10496 0.21844 0.0
H321 H 0.50792 0.09004 0.22167 0.0
H322 H 0.52144 0.04115 0.23245 0.0
H323 H 0.50537 0.01616 0.22333 0.0
Mn324 Mn 0.92524 0.43225 0.17838 0.0
Mn325 Mn 0.94252 0.45386 0.20454 0.0
C326 C 0.91992 0.45795 0.18075 0.0
C327 C 0.91586 0.42306 0.15502 0.0
C328 C 0.91907 0.4315 0.21256 0.0
O329 O 0.94581 0.4214 0.17953 0.0
O330 O 0.95301 0.43352 0.20135 0.0
C331 C 0.97497 0.4577 0.19553 0.0
N332 N 0.96134 0.46435 0.19897 0.0
C333 C 0.97825 0.48624 0.21215 0.0
C334 C 0.99088 0.47777 0.20782 0.0
C335 C 0.98919 0.46425 0.19937 0.0
C336 C 0.96111 0.47814 0.20557 0.0
H337 H 0.97516 0.44688 0.18986 0.0
C338 C 0.95521 0.42364 0.19058 0.0
O339 O 0.9138 0.41585 0.16769 0.0
O340 O 0.92534 0.43446 0.15545 0.0
N341 N 0.93275 0.47351 0.20781 0.0
C342 C 0.91822 0.47602 0.21281 0.0
C343 C 0.91288 0.49056 0.21701 0.0
C344 C 0.92231 0.50332 0.21872 0.0
C345 C 0.93846 0.50178 0.21711 0.0
C346 C 0.94298 0.48467 0.20797 0.0
H347 H 0.91002 0.46686 0.21281 0.0
O348 O 0.90899 0.44824 0.17833 0.0
O349 O 0.93332 0.45246 0.18405 0.0
O350 O 0.92014 0.42425 0.20014 0.0
O351 O 0.92491 0.44445 0.21409 0.0
C352 C 0.96446 0.51513 0.2276 0.0
C353 C 0.98038 0.50361 0.2224 0.0
H354 H 1.0022 0.48168 0.21059 0.0
H355 H 0.99943 0.45817 0.19611 0.0
H356 H 0.90087 0.49182 0.21955 0.0
H357 H 0.91668 0.51362 0.22249 0.0
H358 H 0.96646 0.52544 0.23432 0.0
H359 H 0.99144 0.50731 0.22603 0.0
Mn360 Mn 0.57335 0.92898 0.17254 0.0
Mn361 Mn 0.55313 0.94759 0.19931 0.0
C362 C 0.5477 0.92462 0.17628 0.0
C363 C 0.58101 0.91902 0.14883 0.0
C364 C 0.57689 0.92475 0.20699 0.0
O365 O 0.58426 0.94959 0.17267 0.0
O366 O 0.57218 0.95933 0.19368 0.0
C367 C 0.54579 0.97885 0.1891 0.0
N368 N 0.54055 0.96491 0.19354 0.0
C369 C 0.51862 0.98032 0.208 0.0
C370 C 0.52545 0.99347 0.20244 0.0
C371 C 0.53833 0.99262 0.19293 0.0
C372 C 0.5274 0.96382 0.20137 0.0
H373 H 0.55625 0.97967 0.18275 0.0
C374 C 0.58178 0.96032 0.18246 0.0
O375 O 0.58889 0.91705 0.16111 0.0
O376 O 0.56983 0.92874 0.14974 0.0
N377 N 0.53473 0.93632 0.20441 0.0
C378 C 0.53383 0.92163 0.20932 0.0
C379 C 0.5202 0.91531 0.21482 0.0
C380 C 0.5071 0.92389 0.21803 0.0
C381 C 0.50705 0.94027 0.2164 0.0
C382 C 0.52274 0.94555 0.20528 0.0
H383 H 0.5436 0.9142 0.20832 0.0
O384 O 0.55675 0.91321 0.17348 0.0
O385 O 0.55397 0.93762 0.17927 0.0
O386 O 0.58249 0.92402 0.19374 0.0
O387 O 0.56478 0.93186 0.20964 0.0
C388 C 0.49296 0.96524 0.227 0.0
C389 C 0.50252 0.98143 0.2199 0.0
H390 H 0.52077 0.0045 0.20522 0.0
H391 H 0.54323 0.0032 0.18887 0.0
H392 H 0.52001 0.90322 0.21729 0.0
H393 H 0.4978 0.91724 0.22262 0.0
H394 H 0.49437 0.95784 0.22608 0.0
H395 H 0.49829 0.99237 0.22336 0.0
Mn396 Mn 0.08101 0.57177 0.17624 0.0
Mn397 Mn 0.06367 0.55033 0.20255 0.0
C398 C 0.08607 0.54602 0.17867 0.0
C399 C 0.09061 0.5809 0.15289 0.0
C400 C 0.08721 0.57263 0.21041 0.0
O401 O 0.06046 0.5827 0.17735 0.0
O402 O 0.05334 0.57074 0.19931 0.0
C403 C 0.03118 0.54674 0.19367 0.0
N404 N 0.04473 0.53997 0.19717 0.0
C405 C 0.02761 0.51882 0.21125 0.0
C406 C 0.01507 0.5274 0.20685 0.0
C407 C 0.01689 0.54058 0.19791 0.0
C408 C 0.0448 0.52635 0.20412 0.0
H409 H 0.03112 0.55733 0.1876 0.0
C410 C 0.05108 0.58052 0.18845 0.0
O411 O 0.09263 0.58808 0.16558 0.0
O412 O 0.08105 0.56956 0.15326 0.0
N413 N 0.07325 0.53058 0.20592 0.0
C414 C 0.0878 0.52797 0.2108 0.0
C415 C 0.09296 0.51347 0.21536 0.0
C416 C 0.08333 0.50095 0.2177 0.0
C417 C 0.0672 0.50273 0.21624 0.0
C418 C 0.06285 0.51957 0.2065 0.0
H419 H 0.09613 0.53702 0.21047 0.0
O420 O 0.09711 0.55561 0.17624 0.0
O421 O 0.07275 0.55165 0.182 0.0
O422 O 0.08613 0.57982 0.19797 0.0
O423 O 0.08142 0.55966 0.21199 0.0
C424 C 0.04111 0.49028 0.22759 0.0
C425 C 0.02532 0.5019 0.22218 0.0
H426 H 0.00374 0.5238 0.20995 0.0
H427 H 0.00672 0.54675 0.19458 0.0
H428 H 0.10498 0.51208 0.21779 0.0
H429 H 0.08882 0.4907 0.2218 0.0
H430 H 0.03901 0.48027 0.23473 0.0
H431 H 0.01426 0.49859 0.22618 0.0
Mn432 Mn 0.43101 0.92493 0.83175 0.0
Mn433 Mn 0.45099 0.94224 0.8045 0.0
C434 C 0.45671 0.92047 0.82809 0.0
C435 C 0.42346 0.91452 0.85534 0.0
C436 C 0.42707 0.9206 0.79753 0.0
O437 O 0.42051 0.94558 0.83199 0.0
O438 O 0.43126 0.9535 0.80954 0.0
C439 C 0.45697 0.97451 0.81311 0.0
N440 N 0.46268 0.9606 0.8092 0.0
C441 C 0.48481 0.97644 0.79514 0.0
C442 C 0.47736 0.98946 0.80015 0.0
C443 C 0.46417 0.98841 0.80919 0.0
C444 C 0.47609 0.95968 0.80186 0.0
H445 H 0.44642 0.97524 0.81923 0.0
C446 C 0.42237 0.9555 0.82127 0.0
O447 O 0.41541 0.91296 0.84311 0.0
O448 O 0.43481 0.92403 0.8545 0.0
N449 N 0.46994 0.93155 0.79997 0.0
C450 C 0.47161 0.91673 0.79548 0.0
C451 C 0.48552 0.91081 0.79005 0.0
C452 C 0.49833 0.91975 0.78672 0.0
C453 C 0.49767 0.93593 0.78844 0.0
C454 C 0.48147 0.94126 0.7988 0.0
H455 H 0.46226 0.90883 0.79668 0.0
O456 O 0.44754 0.90902 0.83033 0.0
O457 O 0.45056 0.93351 0.82504 0.0
O458 O 0.42099 0.92147 0.81052 0.0
O459 O 0.44054 0.92478 0.79569 0.0
C460 C 0.51176 0.96139 0.77756 0.0
C461 C 0.50156 0.9778 0.78382 0.0
H462 H 0.48183 1.00058 0.79736 0.0
H463 H 0.45885 0.99892 0.81288 0.0
H464 H 0.48615 0.89869 0.78777 0.0
H465 H 0.50798 0.91368 0.78204 0.0
H466 H 0.52175 0.96297 0.77026 0.0
H467 H 0.50572 0.98872 0.78025 0.0
Mn468 Mn 0.07941 0.43072 0.82866 0.0
Mn469 Mn 0.06114 0.45242 0.80283 0.0
C470 C 0.08323 0.45686 0.8269 0.0
C471 C 0.08906 0.42149 0.85195 0.0
C472 C 0.08493 0.4299 0.79417 0.0
O473 O 0.05897 0.41911 0.82674 0.0
O474 O 0.04976 0.43297 0.80665 0.0
C475 C 0.02974 0.45828 0.81349 0.0
N476 N 0.0435 0.46413 0.8093 0.0
C477 C 0.02735 0.48636 0.79586 0.0
C478 C 0.01449 0.4789 0.80131 0.0
C479 C 0.01577 0.4656 0.81017 0.0
C480 C 0.04425 0.47768 0.80224 0.0
H481 H 0.02925 0.44748 0.81926 0.0
C482 C 0.04868 0.42216 0.81661 0.0
O483 O 0.09143 0.41463 0.83916 0.0
O484 O 0.07893 0.43235 0.85172 0.0
N485 N 0.07216 0.47127 0.79917 0.0
C486 C 0.08683 0.47276 0.79425 0.0
C487 C 0.0928 0.48672 0.78901 0.0
C488 C 0.08388 0.49968 0.78611 0.0
C489 C 0.06772 0.49914 0.78824 0.0
C490 C 0.06261 0.48299 0.79874 0.0
H491 H 0.09449 0.46314 0.79487 0.0
O492 O 0.09471 0.44789 0.82967 0.0
O493 O 0.07057 0.45041 0.82304 0.0
O494 O 0.08581 0.42354 0.80707 0.0
O495 O 0.07716 0.44171 0.79207 0.0
C496 C 0.04207 0.51325 0.77782 0.0
C497 C 0.02575 0.50309 0.78448 0.0
H498 H 0.00331 0.48339 0.79908 0.0
H499 H 0.00536 0.46025 0.81411 0.0
H500 H 0.10484 0.48724 0.78636 0.0
H501 H 0.08988 0.50933 0.78136 0.0
H502 H 0.04036 0.5232 0.7705 0.0
H503 H 0.01475 0.50723 0.78108 0.0
Mn504 Mn 0.57098 0.07935 0.82813 0.0
Mn505 Mn 0.55159 0.05959 0.80156 0.0
C506 C 0.54567 0.08433 0.82312 0.0
C507 C 0.57811 0.09008 0.8517 0.0
C508 C 0.57491 0.08277 0.7937 0.0
O509 O 0.58182 0.05868 0.82922 0.0
O510 O 0.57095 0.04868 0.8078 0.0
C511 C 0.54537 0.02812 0.81233 0.0
N512 N 0.53967 0.04177 0.80754 0.0
C513 C 0.51812 0.02495 0.79361 0.0
C514 C 0.5256 0.01228 0.79942 0.0
C515 C 0.53848 0.01396 0.80882 0.0
C516 C 0.52656 0.04213 0.79966 0.0
H517 H 0.55571 0.02782 0.81885 0.0
C518 C 0.57994 0.04781 0.81949 0.0
O519 O 0.58633 0.09158 0.83958 0.0
O520 O 0.56685 0.08047 0.85081 0.0
N521 N 0.53284 0.0699 0.79568 0.0
C522 C 0.53146 0.08412 0.78954 0.0
C523 C 0.5175 0.08987 0.78406 0.0
C524 C 0.50432 0.08101 0.78229 0.0
C525 C 0.50484 0.06497 0.78514 0.0
C526 C 0.52112 0.0603 0.79564 0.0
H527 H 0.54108 0.0918 0.78957 0.0
O528 O 0.55509 0.09542 0.8259 0.0
O529 O 0.55142 0.07075 0.82122 0.0
O530 O 0.58056 0.08375 0.80693 0.0
O531 O 0.56288 0.07547 0.79113 0.0
C532 C 0.49096 0.03895 0.7754 0.0
C533 C 0.50136 0.0229 0.78234 0.0
H534 H 0.52133 1.00099 0.79711 0.0
H535 H 0.5438 0.00371 0.81318 0.0
H536 H 0.51706 0.1017 0.78059 0.0
H537 H 0.49458 0.08686 0.77751 0.0
H538 H 0.48102 0.03697 0.76814 0.0
H539 H 0.4973 0.01178 0.77927 0.0
Mn540 Mn 0.92631 0.57255 0.83039 0.0
Mn541 Mn 0.94487 0.55175 0.80432 0.0
C542 C 0.92191 0.54686 0.82717 0.0
C543 C 0.91573 0.58075 0.85367 0.0
C544 C 0.92278 0.57537 0.79586 0.0
O545 O 0.94695 0.58316 0.83077 0.0
O546 O 0.95609 0.57148 0.80927 0.0
C547 C 0.97651 0.54583 0.81469 0.0
N548 N 0.96277 0.54001 0.81036 0.0
C549 C 0.97916 0.518 0.79679 0.0
C550 C 0.99197 0.52554 0.80218 0.0
C551 C 0.99056 0.53871 0.81121 0.0
C552 C 0.96215 0.52653 0.80312 0.0
H553 H 0.97697 0.55641 0.82079 0.0
C554 C 0.95745 0.58083 0.82072 0.0
O555 O 0.91416 0.58841 0.84119 0.0
O556 O 0.92519 0.56934 0.8532 0.0
N557 N 0.93422 0.53272 0.79989 0.0
C558 C 0.91965 0.53108 0.79469 0.0
C559 C 0.91387 0.51708 0.78932 0.0
C560 C 0.92287 0.50414 0.78663 0.0
C561 C 0.93898 0.50477 0.78899 0.0
C562 C 0.94387 0.52104 0.79952 0.0
H563 H 0.91184 0.54058 0.79522 0.0
O564 O 0.91044 0.55605 0.82917 0.0
O565 O 0.93503 0.55295 0.82434 0.0
O566 O 0.92277 0.58163 0.80882 0.0
O567 O 0.9283 0.56233 0.794 0.0
C568 C 0.96484 0.49099 0.77871 0.0
C569 C 0.98098 0.50134 0.7854 0.0
H570 H 0.00319 0.52116 0.79975 0.0
H571 H 1.00092 0.5441 0.81521 0.0
H572 H 0.90188 0.51649 0.78647 0.0
H573 H 0.917 0.49443 0.78182 0.0
H574 H 0.96672 0.48112 0.77132 0.0
H575 H 0.992 0.49755 0.78175 0.0
Mn576 Mn 0.17678 0.43492 0.07888 0.0
Mn577 Mn 0.20406 0.4553 0.06224 0.0
C578 C 0.18072 0.4602 0.08479 0.0
C579 C 0.15283 0.42739 0.08833 0.0
C580 C 0.21096 0.432 0.08451 0.0
O581 O 0.17701 0.42459 0.05803 0.0
O582 O 0.20002 0.43496 0.05188 0.0
C583 C 0.19466 0.45934 0.02989 0.0
N584 N 0.19891 0.46582 0.04335 0.0
C585 C 0.21238 0.48703 0.02621 0.0
C586 C 0.20747 0.47869 0.01369 0.0
C587 C 0.19845 0.4656 0.01557 0.0
C588 C 0.20598 0.47936 0.04335 0.0
H589 H 0.18823 0.44899 0.02992 0.0
C590 C 0.18855 0.42604 0.04906 0.0
O591 O 0.16488 0.41906 0.09011 0.0
O592 O 0.15418 0.43889 0.07907 0.0
N593 N 0.20823 0.475 0.07161 0.0
C594 C 0.21327 0.47755 0.08607 0.0
C595 C 0.21776 0.49204 0.09113 0.0
C596 C 0.21979 0.50457 0.08147 0.0
C597 C 0.21858 0.50296 0.06514 0.0
C598 C 0.20891 0.486 0.06116 0.0
H599 H 0.21299 0.46853 0.09443 0.0
O600 O 0.17801 0.45039 0.09557 0.0
O601 O 0.18354 0.4549 0.07123 0.0
O602 O 0.1982 0.42544 0.08289 0.0
O603 O 0.21266 0.44558 0.08036 0.0
C604 C 0.22875 0.51551 0.03917 0.0
C605 C 0.22296 0.50389 0.02381 0.0
H606 H 0.21008 0.48244 0.00231 0.0
H607 H 0.1946 0.45969 0.00543 0.0
H608 H 0.22017 0.49348 0.10315 0.0
H609 H 0.22342 0.51479 0.08731 0.0
H610 H 0.22772 0.51472 0.04663 0.0
H611 H 0.22631 0.50741 0.01257 0.0
Mn612 Mn 0.17661 0.57362 0.92415 0.0
Mn613 Mn 0.20269 0.55209 0.94213 0.0
C614 C 0.17815 0.54748 0.92062 0.0
C615 C 0.15332 0.58292 0.9147 0.0
C616 C 0.21081 0.57392 0.91762 0.0
O617 O 0.17882 0.58546 0.9443 0.0
O618 O 0.19939 0.572 0.95301 0.0
C619 C 0.19323 0.54734 0.97418 0.0
N620 N 0.19676 0.54102 0.96042 0.0
C621 C 0.21006 0.51885 0.97676 0.0
C622 C 0.20545 0.52685 0.98961 0.0
C623 C 0.19692 0.54037 0.98825 0.0
C624 C 0.20348 0.52729 0.95982 0.0
H625 H 0.18773 0.55829 0.97459 0.0
C626 C 0.18929 0.58269 0.95429 0.0
O627 O 0.16612 0.58968 0.91215 0.0
O628 O 0.15356 0.57214 0.92491 0.0
N629 N 0.20585 0.53282 0.93164 0.0
C630 C 0.21039 0.53078 0.91691 0.0
C631 C 0.21519 0.51654 0.91122 0.0
C632 C 0.21794 0.50375 0.92041 0.0
C633 C 0.2162 0.50477 0.93659 0.0
C634 C 0.20633 0.52139 0.94152 0.0
H635 H 0.20978 0.54016 0.90895 0.0
O636 O 0.17534 0.55634 0.90906 0.0
O637 O 0.18223 0.55401 0.9332 0.0
O638 O 0.1981 0.58067 0.91742 0.0
O639 O 0.21293 0.56206 0.9253 0.0
C640 C 0.22682 0.49104 0.96235 0.0
C641 C 0.22094 0.50186 0.97852 0.0
H642 H 0.20818 0.52261 1.00082 0.0
H643 H 0.19357 0.54615 0.99863 0.0
H644 H 0.21755 0.51563 0.89914 0.0
H645 H 0.22227 0.4938 0.91456 0.0
H646 H 0.23393 0.48097 0.96416 0.0
H647 H 0.2248 0.49819 0.98951 0.0
Mn648 Mn 0.42528 0.17168 0.92396 0.0
Mn649 Mn 0.44454 0.19636 0.94513 0.0
C650 C 0.45097 0.17633 0.91952 0.0
C651 C 0.41772 0.1491 0.91167 0.0
C652 C 0.42261 0.20637 0.92242 0.0
O653 O 0.4139 0.16932 0.94422 0.0
O654 O 0.42391 0.19106 0.95401 0.0
C655 C 0.4478 0.18095 0.97519 0.0
N656 N 0.45442 0.18814 0.96315 0.0
C657 C 0.47591 0.19634 0.98231 0.0
C658 C 0.46735 0.18934 0.99361 0.0
C659 C 0.45396 0.18143 0.99001 0.0
C660 C 0.46805 0.19483 0.96471 0.0
H661 H 0.43756 0.17465 0.97358 0.0
C662 C 0.41492 0.1794 0.95484 0.0
O663 O 0.40984 0.16152 0.91076 0.0
O664 O 0.42899 0.14914 0.92129 0.0
N665 N 0.4643 0.20207 0.93736 0.0
C666 C 0.46747 0.20948 0.92408 0.0
C667 C 0.48218 0.21464 0.92054 0.0
C668 C 0.49427 0.21427 0.93092 0.0
C669 C 0.49184 0.20945 0.94639 0.0
C670 C 0.47476 0.20084 0.94825 0.0
H671 H 0.45881 0.21084 0.91546 0.0
O672 O 0.44151 0.17482 0.90823 0.0
O673 O 0.44507 0.17733 0.93313 0.0
O674 O 0.41606 0.19352 0.92184 0.0
O675 O 0.43552 0.20772 0.92837 0.0
C676 C 0.50467 0.21208 0.97356 0.0
C677 C 0.49299 0.20416 0.98704 0.0
H678 H 0.47132 0.1895 0.00522 0.0
H679 H 0.44793 0.17565 0.99909 0.0
H680 H 0.48419 0.21937 0.90932 0.0
H681 H 0.50489 0.21874 0.92659 0.0
H682 H 0.51539 0.21722 0.97728 0.0
H683 H 0.4967 0.20357 0.99873 0.0
Mn684 Mn 0.82939 0.43215 0.92564 0.0
Mn685 Mn 0.80373 0.45261 0.94549 0.0
C686 C 0.82539 0.45761 0.92075 0.0
C687 C 0.85253 0.42403 0.91477 0.0
C688 C 0.79486 0.4297 0.92235 0.0
O689 O 0.8303 0.42134 0.94622 0.0
O690 O 0.80917 0.4328 0.95618 0.0
C691 C 0.81485 0.45791 0.9769 0.0
N692 N 0.81018 0.46402 0.9634 0.0
C693 C 0.79598 0.48487 0.98052 0.0
C694 C 0.8015 0.477 0.99309 0.0
C695 C 0.81104 0.46427 0.99122 0.0
C696 C 0.80241 0.47722 0.96336 0.0
H697 H 0.8215 0.44766 0.97691 0.0
C698 C 0.82067 0.42354 0.9571 0.0
O699 O 0.84006 0.41632 0.91337 0.0
O700 O 0.85219 0.43538 0.92431 0.0
N701 N 0.79862 0.47183 0.93558 0.0
C702 C 0.79272 0.47368 0.92134 0.0
C703 C 0.78779 0.48791 0.91593 0.0
C704 C 0.78605 0.50079 0.92521 0.0
C705 C 0.788 0.49973 0.94151 0.0
C706 C 0.79857 0.48331 0.94553 0.0
H707 H 0.79267 0.46426 0.91341 0.0
O708 O 0.82763 0.44811 0.90958 0.0
O709 O 0.82334 0.45194 0.93432 0.0
O710 O 0.80779 0.42337 0.92162 0.0
O711 O 0.79288 0.44203 0.92934 0.0
C712 C 0.77787 0.51222 0.96745 0.0
C713 C 0.78458 0.50122 0.98285 0.0
H714 H 0.79885 0.48088 0.00446 0.0
H715 H 0.81526 0.45864 1.00137 0.0
H716 H 0.78474 0.48884 0.90401 0.0
H717 H 0.78192 0.51075 0.91924 0.0
H718 H 0.77878 0.51131 0.95997 0.0
H719 H 0.7811 0.5047 0.994 0.0
Mn720 Mn 0.57371 0.82652 0.92236 0.0
Mn721 Mn 0.55378 0.79897 0.93889 0.0
C722 C 0.54813 0.8231 0.91748 0.0
C723 C 0.58168 0.85006 0.91223 0.0
C724 C 0.57663 0.79261 0.91651 0.0
O725 O 0.58436 0.82641 0.94288 0.0
O726 O 0.57439 0.80316 0.949 0.0
C727 C 0.55052 0.8055 0.972 0.0
N728 N 0.54364 0.80253 0.9584 0.0
C729 C 0.52313 0.78719 0.97493 0.0
C730 C 0.53209 0.79058 0.98751 0.0
C731 C 0.54497 0.79996 0.98607 0.0
C732 C 0.53024 0.79514 0.95818 0.0
H733 H 0.56075 0.81209 0.9723 0.0
C734 C 0.58302 0.8149 0.9519 0.0
O735 O 0.58954 0.83772 0.91057 0.0
O736 O 0.57025 0.84932 0.92166 0.0
N737 N 0.53391 0.79504 0.92974 0.0
C738 C 0.53104 0.79105 0.91501 0.0
C739 C 0.51648 0.78685 0.90996 0.0
C740 C 0.50421 0.78401 0.91972 0.0
C741 C 0.50623 0.78396 0.93605 0.0
C742 C 0.52317 0.7935 0.94036 0.0
H743 H 0.53981 0.79206 0.90645 0.0
O744 O 0.55762 0.82528 0.90628 0.0
O745 O 0.55382 0.81995 0.93082 0.0
O746 O 0.58336 0.80512 0.91863 0.0
O747 O 0.56286 0.79151 0.91996 0.0
C748 C 0.49446 0.7716 0.96142 0.0
C749 C 0.50643 0.77625 0.97691 0.0
H750 H 0.52914 0.78615 0.9986 0.0
H751 H 0.55136 0.80265 0.99629 0.0
H752 H 0.51475 0.78535 0.89782 0.0
H753 H 0.49387 0.78077 0.91386 0.0
H754 H 0.49504 0.77322 0.95404 0.0
H755 H 0.50343 0.77179 0.98796 0.0
Mn756 Mn 0.82866 0.57409 0.07961 0.0
Mn757 Mn 0.8023 0.55251 0.06217 0.0
C758 C 0.82687 0.548 0.08364 0.0
C759 C 0.85225 0.58314 0.0886 0.0
C760 C 0.79433 0.57516 0.08593 0.0
O761 O 0.82646 0.58558 0.05924 0.0
O762 O 0.80582 0.57208 0.05075 0.0
C763 C 0.81179 0.54673 0.03031 0.0
N764 N 0.80816 0.54088 0.04424 0.0
C765 C 0.79518 0.51799 0.02862 0.0
C766 C 0.79998 0.52553 0.01555 0.0
C767 C 0.80835 0.53917 0.01649 0.0
C768 C 0.80149 0.52716 0.04528 0.0
H769 H 0.81718 0.55771 0.02954 0.0
C770 C 0.81595 0.58271 0.04931 0.0
O771 O 0.83959 0.59015 0.09128 0.0
O772 O 0.85165 0.5722 0.07859 0.0
N773 N 0.79901 0.53363 0.07326 0.0
C774 C 0.79458 0.53203 0.08807 0.0
C775 C 0.78996 0.51793 0.09423 0.0
C776 C 0.78736 0.5048 0.08548 0.0
C777 C 0.78907 0.50529 0.06927 0.0
C778 C 0.79865 0.52188 0.06376 0.0
H779 H 0.79514 0.54166 0.09571 0.0
O780 O 0.82982 0.55704 0.09502 0.0
O781 O 0.82278 0.55438 0.071 0.0
O782 O 0.8072 0.58161 0.08618 0.0
O783 O 0.7921 0.56308 0.07863 0.0
C784 C 0.77883 0.49042 0.04399 0.0
C785 C 0.78462 0.50071 0.02746 0.0
H786 H 0.7976 0.52085 0.00447 0.0
H787 H 0.81181 0.54456 0.00593 0.0
H788 H 0.78765 0.51738 0.10635 0.0
H789 H 0.78316 0.49501 0.09167 0.0
H790 H 0.772 0.48009 0.04254 0.0
H791 H 0.78129 0.49616 0.01663 0.0
Mn792 Mn 0.43357 0.82895 0.08086 0.0
Mn793 Mn 0.45419 0.80383 0.061 0.0
C794 C 0.45924 0.82558 0.0853 0.0
C795 C 0.42506 0.85174 0.09216 0.0
C796 C 0.43195 0.79432 0.08388 0.0
O797 O 0.4224 0.82983 0.06055 0.0
O798 O 0.43359 0.80826 0.05134 0.0
C799 C 0.45747 0.81552 0.02927 0.0
N800 N 0.46432 0.81076 0.04238 0.0
C801 C 0.48544 0.79868 0.02382 0.0
C802 C 0.47672 0.80403 0.0118 0.0
C803 C 0.46347 0.81262 0.01456 0.0
C804 C 0.47799 0.80396 0.04167 0.0
H805 H 0.44697 0.82166 0.02986 0.0
C806 C 0.42417 0.81963 0.05015 0.0
O807 O 0.41766 0.83907 0.09352 0.0
O808 O 0.43634 0.85175 0.08254 0.0
N809 N 0.47408 0.79945 0.06988 0.0
C810 C 0.47693 0.79333 0.0839 0.0
C811 C 0.49154 0.78843 0.08843 0.0
C812 C 0.50396 0.78712 0.07848 0.0
C813 C 0.502 0.79008 0.06257 0.0
C814 C 0.48497 0.79993 0.05933 0.0
H815 H 0.46801 0.79286 0.09236 0.0
O816 O 0.44988 0.82724 0.09668 0.0
O817 O 0.45337 0.82352 0.07183 0.0
O818 O 0.42513 0.80703 0.08393 0.0
O819 O 0.445 0.79304 0.07818 0.0
C820 C 0.51437 0.78153 0.03536 0.0
C821 C 0.50247 0.78837 0.02027 0.0
H822 H 0.48029 0.80185 1.00019 0.0
H823 H 0.45717 0.81681 0.00481 0.0
H824 H 0.4931 0.78494 0.10016 0.0
H825 H 0.51431 0.78264 0.08345 0.0
H826 H 0.52451 0.77487 0.03249 0.0
H827 H 0.50564 0.78616 0.00869 0.0
Mn828 Mn 0.56906 0.18033 0.07921 0.0
Mn829 Mn 0.54857 0.20668 0.061 0.0
C830 C 0.54369 0.18409 0.08444 0.0
C831 C 0.577 0.15699 0.08992 0.0
C832 C 0.57147 0.21469 0.08356 0.0
O833 O 0.57949 0.17965 0.0585 0.0
O834 O 0.56907 0.20221 0.05084 0.0
C835 C 0.54465 0.19663 0.02901 0.0
N836 N 0.53804 0.20112 0.0423 0.0
C837 C 0.51717 0.21431 0.02515 0.0
C838 C 0.52593 0.20991 0.01274 0.0
C839 C 0.53887 0.20076 0.01463 0.0
C840 C 0.52453 0.20839 0.04207 0.0
H841 H 0.55472 0.18985 0.02926 0.0
C842 C 0.57778 0.19038 0.04863 0.0
O843 O 0.58496 0.16933 0.09125 0.0
O844 O 0.56556 0.15761 0.08049 0.0
N845 N 0.52871 0.21087 0.07001 0.0
C846 C 0.52581 0.21608 0.08436 0.0
C847 C 0.5111 0.22037 0.08904 0.0
C848 C 0.49878 0.2218 0.07899 0.0
C849 C 0.50101 0.21988 0.06289 0.0
C850 C 0.51783 0.21108 0.05936 0.0
H851 H 0.53474 0.2162 0.09283 0.0
O852 O 0.55333 0.1821 0.09553 0.0
O853 O 0.54915 0.18648 0.07085 0.0
O854 O 0.5782 0.20198 0.08249 0.0
O855 O 0.55805 0.21622 0.07882 0.0
C856 C 0.48894 0.2292 0.03687 0.0
C857 C 0.50058 0.22401 0.02209 0.0
H858 H 0.52254 0.21317 1.00142 0.0
H859 H 0.54498 0.19706 0.00455 0.0
H860 H 0.50934 0.22316 0.10093 0.0
H861 H 0.48826 0.22565 0.08415 0.0
H862 H 0.47866 0.23573 0.03416 0.0
H863 H 0.49743 0.22733 0.01065 0.0
Mn864 Mn 0.9257 0.8233 0.57288 0.0
Mn865 Mn 0.94436 0.79654 0.55219 0.0
C866 C 0.92893 0.82576 0.54692 0.0
C867 C 0.9049 0.83812 0.58131 0.0
C868 C 0.96007 0.8167 0.5752 0.0
O869 O 0.9213 0.80384 0.58512 0.0
O870 O 0.93541 0.78696 0.57104 0.0
C871 C 0.92584 0.76973 0.54421 0.0
N872 N 0.93338 0.78233 0.53913 0.0
C873 C 0.93924 0.76607 0.51443 0.0
C874 C 0.93088 0.75442 0.52109 0.0
C875 C 0.92416 0.75638 0.53544 0.0
C876 C 0.93984 0.78224 0.52517 0.0
H877 H 0.9216 0.76938 0.55561 0.0
C878 C 0.92606 0.79027 0.58199 0.0
O879 O 0.91795 0.83838 0.58816 0.0
O880 O 0.90332 0.82812 0.57052 0.0
N881 N 0.95218 0.8063 0.53397 0.0
C882 C 0.96107 0.81898 0.53315 0.0
C883 C 0.96667 0.82449 0.51918 0.0
C884 C 0.96514 0.81657 0.50537 0.0
C885 C 0.95793 0.80186 0.50494 0.0
C886 C 0.94857 0.79844 0.52146 0.0
H887 H 0.96348 0.82546 0.54333 0.0
O888 O 0.92937 0.83772 0.55566 0.0
O889 O 0.92862 0.81255 0.55358 0.0
O890 O 0.94837 0.82368 0.58006 0.0
O891 O 0.95932 0.80722 0.56447 0.0
C892 C 0.95724 0.77704 0.48775 0.0
C893 C 0.94706 0.7631 0.49687 0.0
H894 H 0.92949 0.74368 0.51517 0.0
H895 H 0.91796 0.7469 0.54034 0.0
H896 H 0.97291 0.83514 0.51918 0.0
H897 H 0.97052 0.82194 0.49567 0.0
H898 H 0.96224 0.77431 0.47665 0.0
H899 H 0.94565 0.75215 0.49136 0.0
Mn900 Mn 0.17825 0.92729 0.57199 0.0
Mn901 Mn 0.20582 0.94432 0.55095 0.0
C902 C 0.17654 0.92901 0.54569 0.0
C903 C 0.16352 0.90676 0.58119 0.0
C904 C 0.18541 0.96157 0.57283 0.0
O905 O 0.19727 0.92431 0.58551 0.0
O906 O 0.21487 0.93597 0.57013 0.0
C907 C 0.2317 0.92423 0.54395 0.0
N908 N 0.21972 0.93245 0.53847 0.0
C909 C 0.23724 0.93859 0.51487 0.0
C910 C 0.24838 0.9298 0.5219 0.0
C911 C 0.24548 0.92253 0.53584 0.0
C912 C 0.22062 0.93908 0.52463 0.0
H913 H 0.23107 0.91931 0.55511 0.0
C914 C 0.21101 0.92842 0.58218 0.0
O915 O 0.16267 0.92023 0.58715 0.0
O916 O 0.17405 0.90473 0.571 0.0
N917 N 0.1966 0.95183 0.53239 0.0
C918 C 0.1842 0.96101 0.53122 0.0
C919 C 0.17934 0.96666 0.51712 0.0
C920 C 0.18785 0.96509 0.50369 0.0
C921 C 0.20282 0.95803 0.50367 0.0
C922 C 0.20491 0.94816 0.52018 0.0
H923 H 0.17742 0.96351 0.54118 0.0
O924 O 0.16432 0.92958 0.55404 0.0
O925 O 0.1895 0.92906 0.55281 0.0
O926 O 0.17742 0.95044 0.57754 0.0
O927 O 0.1955 0.95992 0.56275 0.0
C928 C 0.22803 0.95751 0.48817 0.0
C929 C 0.24115 0.94691 0.49782 0.0
H930 H 0.25941 0.9284 0.51652 0.0
H931 H 0.25451 0.91585 0.54096 0.0
H932 H 0.16872 0.97295 0.51669 0.0
H933 H 0.18253 0.97048 0.49397 0.0
H934 H 0.22068 0.95915 0.49029 0.0
H935 H 0.25234 0.94545 0.49286 0.0
Mn936 Mn 0.07611 0.17996 0.57466 0.0
Mn937 Mn 0.05655 0.208 0.55643 0.0
C938 C 0.06995 0.17755 0.5494 0.0
C939 C 0.09725 0.16483 0.58148 0.0
C940 C 0.04176 0.18621 0.5784 0.0
O941 O 0.08205 0.19876 0.58699 0.0
O942 O 0.06581 0.21579 0.57604 0.0
C943 C 0.07493 0.2356 0.55104 0.0
N944 N 0.06782 0.22325 0.54476 0.0
C945 C 0.06454 0.24064 0.52046 0.0
C946 C 0.0728 0.25171 0.52811 0.0
C947 C 0.07791 0.24914 0.54296 0.0
C948 C 0.06226 0.22425 0.53047 0.0
H949 H 0.07758 0.2358 0.56287 0.0
C950 C 0.07666 0.21228 0.5854 0.0
O951 O 0.08471 0.16464 0.58924 0.0
O952 O 0.09811 0.17475 0.57054 0.0
N953 N 0.04813 0.20059 0.53737 0.0
C954 C 0.03772 0.18927 0.53558 0.0
C955 C 0.03238 0.18497 0.52117 0.0
C956 C 0.03602 0.19281 0.50774 0.0
C957 C 0.04428 0.20712 0.50807 0.0
C958 C 0.05274 0.20895 0.52546 0.0
H959 H 0.03401 0.18264 0.54526 0.0
O960 O 0.07048 0.16573 0.5583 0.0
O961 O 0.07177 0.19104 0.55558 0.0
O962 O 0.05389 0.17975 0.58301 0.0
O963 O 0.0418 0.19598 0.56786 0.0
C964 C 0.04783 0.23187 0.49234 0.0
C965 C 0.05816 0.24456 0.50265 0.0
H966 H 0.07509 0.26256 0.5227 0.0
H967 H 0.08375 0.25831 0.54881 0.0
H968 H 0.02506 0.17506 0.52039 0.0
H969 H 0.03109 0.18771 0.49767 0.0
H970 H 0.04558 0.22467 0.49448 0.0
H971 H 0.06065 0.25555 0.49765 0.0
Mn972 Mn 0.82813 0.07493 0.57232 0.0
Mn973 Mn 0.80167 0.05457 0.55265 0.0
C974 C 0.8309 0.0706 0.54655 0.0
C975 C 0.84204 0.09654 0.5803 0.0
C976 C 0.82368 0.04018 0.57469 0.0
O977 O 0.80896 0.07839 0.58526 0.0
O978 O 0.79281 0.06275 0.57217 0.0
C979 C 0.7736 0.07211 0.54686 0.0
N980 N 0.78603 0.06499 0.54086 0.0
C981 C 0.76837 0.05858 0.51742 0.0
C982 C 0.75681 0.06626 0.52501 0.0
C983 C 0.75952 0.07309 0.53918 0.0
C984 C 0.78514 0.05853 0.52696 0.0
H985 H 0.77408 0.07665 0.55813 0.0
C986 C 0.79584 0.07223 0.58304 0.0
O987 O 0.84303 0.08359 0.5873 0.0
O988 O 0.83179 0.09749 0.56965 0.0
N989 N 0.81017 0.0472 0.53363 0.0
C990 C 0.82252 0.03803 0.53186 0.0
C991 C 0.82734 0.03322 0.51742 0.0
C992 C 0.81905 0.03594 0.50404 0.0
C993 C 0.80385 0.04243 0.5045 0.0
C994 C 0.80133 0.05087 0.52176 0.0
H995 H 0.82948 0.03509 0.54157 0.0
O996 O 0.84267 0.07144 0.55546 0.0
O997 O 0.8174 0.07097 0.5529 0.0
O998 O 0.82982 0.05238 0.57952 0.0
O999 O 0.81404 0.04014 0.56406 0.0
C1000 C 0.77847 0.0425 0.48931 0.0
C1001 C 0.76482 0.05135 0.49984 0.0
H1002 H 0.74564 0.06723 0.51986 0.0
H1003 H 0.75018 0.07893 0.54476 0.0
H1004 H 0.83801 0.02707 0.51659 0.0
H1005 H 0.82459 0.0316 0.49392 0.0
H1006 H 0.78594 0.0412 0.49126 0.0
H1007 H 0.75351 0.05248 0.49506 0.0
Mn1008 Mn 0.92674 0.17951 0.4319 0.0
Mn1009 Mn 0.94572 0.20696 0.45162 0.0
C1010 C 0.93136 0.17669 0.45768 0.0
C1011 C 0.90556 0.16524 0.42369 0.0
C1012 C 0.9613 0.18523 0.42989 0.0
O1013 O 0.92291 0.19849 0.41864 0.0
O1014 O 0.93714 0.2154 0.43222 0.0
C1015 C 0.92504 0.23285 0.45763 0.0
N1016 N 0.93385 0.22147 0.46344 0.0
C1017 C 0.93761 0.23934 0.48723 0.0
C1018 C 0.9285 0.24992 0.47978 0.0
C1019 C 0.92215 0.24655 0.46552 0.0
C1020 C 0.94001 0.22292 0.47738 0.0
H1021 H 0.92043 0.23178 0.44644 0.0
C1022 C 0.92829 0.21192 0.42102 0.0
O1023 O 0.9186 0.16444 0.41684 0.0
O1024 O 0.90428 0.17545 0.43434 0.0
N1025 N 0.95392 0.19912 0.47056 0.0
C1026 C 0.96436 0.18783 0.47226 0.0
C1027 C 0.96997 0.18372 0.48664 0.0
C1028 C 0.96664 0.19181 0.50001 0.0
C1029 C 0.95834 0.20611 0.49966 0.0
C1030 C 0.94968 0.20774 0.48239 0.0
H1031 H 0.96788 0.18112 0.46257 0.0
O1032 O 0.93048 0.16497 0.44871 0.0
O1033 O 0.93037 0.1902 0.4514 0.0
O1034 O 0.94945 0.17827 0.42528 0.0
O1035 O 0.96079 0.19543 0.44003 0.0
C1036 C 0.95473 0.23096 0.51527 0.0
C1037 C 0.94418 0.24349 0.50493 0.0
H1038 H 0.92601 0.26076 0.48512 0.0
H1039 H 0.91506 0.25508 0.46012 0.0
H1040 H 0.9773 0.17382 0.48741 0.0
H1041 H 0.9718 0.18686 0.51005 0.0
H1042 H 0.95703 0.22378 0.51318 0.0
H1043 H 0.94151 0.25445 0.50991 0.0
Mn1044 Mn 0.82415 0.92813 0.43312 0.0
Mn1045 Mn 0.79665 0.94627 0.45342 0.0
C1046 C 0.82738 0.93338 0.45872 0.0
C1047 C 0.83947 0.90748 0.42515 0.0
C1048 C 0.81669 0.96242 0.43092 0.0
O1049 O 0.80511 0.92283 0.42063 0.0
O1050 O 0.78854 0.93796 0.43367 0.0
C1051 C 0.77172 0.92418 0.45874 0.0
N1052 N 0.78244 0.93361 0.4648 0.0
C1053 C 0.76411 0.93593 0.48844 0.0
C1054 C 0.75416 0.9264 0.48067 0.0
C1055 C 0.75809 0.92044 0.46638 0.0
C1056 C 0.78047 0.93944 0.47883 0.0
H1057 H 0.77334 0.91966 0.44759 0.0
C1058 C 0.79186 0.92868 0.42274 0.0
O1059 O 0.83932 0.92033 0.41787 0.0
O1060 O 0.82972 0.90607 0.43619 0.0
N1061 N 0.80392 0.95428 0.47269 0.0
C1062 C 0.81487 0.96499 0.47483 0.0
C1063 C 0.8184 0.97056 0.48937 0.0
C1064 C 0.80999 0.96697 0.50248 0.0
C1065 C 0.79607 0.95807 0.50173 0.0
C1066 C 0.79508 0.94973 0.48425 0.0
H1067 H 0.82171 0.96883 0.46535 0.0
O1068 O 0.83887 0.93334 0.44942 0.0
O1069 O 0.81381 0.93152 0.45285 0.0
O1070 O 0.82307 0.95059 0.42544 0.0
O1071 O 0.80802 0.96188 0.44241 0.0
C1072 C 0.77131 0.95276 0.51699 0.0
C1073 C 0.75945 0.94183 0.50625 0.0
H1074 H 0.74341 0.9232 0.48583 0.0
H1075 H 0.75008 0.91291 0.46079 0.0
H1076 H 0.82803 0.97821 0.49048 0.0
H1077 H 0.81445 0.97231 0.51265 0.0
H1078 H 0.77838 0.95548 0.51504 0.0
H1079 H 0.7486 0.93846 0.51104 0.0
Mn1080 Mn 0.07745 0.82657 0.43198 0.0
Mn1081 Mn 0.05857 0.79966 0.45237 0.0
C1082 C 0.07267 0.8299 0.45768 0.0
C1083 C 0.09839 0.84125 0.42383 0.0
C1084 C 0.04312 0.81982 0.42937 0.0
O1085 O 0.08214 0.80731 0.4196 0.0
O1086 O 0.06738 0.79075 0.43319 0.0
C1087 C 0.0782 0.7732 0.45914 0.0
N1088 N 0.06992 0.78511 0.4647 0.0
C1089 C 0.06419 0.76727 0.4883 0.0
C1090 C 0.07294 0.75625 0.48107 0.0
C1091 C 0.08 0.75934 0.46707 0.0
C1092 C 0.06324 0.784 0.47847 0.0
H1093 H 0.08314 0.77397 0.44805 0.0
C1094 C 0.07659 0.79399 0.42216 0.0
O1095 O 0.08551 0.84143 0.41664 0.0
O1096 O 0.09967 0.83148 0.43487 0.0
N1097 N 0.05042 0.80823 0.47096 0.0
C1098 C 0.04034 0.81996 0.47223 0.0
C1099 C 0.03451 0.82459 0.4864 0.0
C1100 C 0.03715 0.81661 0.49997 0.0
C1101 C 0.04504 0.80222 0.49977 0.0
C1102 C 0.05429 0.79983 0.48305 0.0
H1103 H 0.03726 0.82656 0.46232 0.0
O1104 O 0.07286 0.84142 0.4484 0.0
O1105 O 0.07393 0.8163 0.45172 0.0
O1106 O 0.05498 0.82636 0.42424 0.0
O1107 O 0.04357 0.81083 0.44055 0.0
C1108 C 0.04629 0.7766 0.51571 0.0
C1109 C 0.05658 0.76327 0.50577 0.0
H1110 H 0.07457 0.74522 0.48637 0.0
H1111 H 0.08673 0.75041 0.46183 0.0
H1112 H 0.02747 0.83472 0.4868 0.0
H1113 H 0.03181 0.82147 0.50995 0.0
H1114 H 0.04138 0.77323 0.52667 0.0
H1115 H 0.05824 0.75209 0.51071 0.0
Mn1116 Mn 0.17757 0.07784 0.43125 0.0
Mn1117 Mn 0.2046 0.05815 0.45046 0.0
C1118 C 0.17444 0.07174 0.45653 0.0
C1119 C 0.16223 0.09887 0.42443 0.0
C1120 C 0.18443 0.04362 0.4273 0.0
O1121 O 0.19666 0.08405 0.41966 0.0
O1122 O 0.21289 0.06707 0.43083 0.0
C1123 C 0.23211 0.07661 0.45626 0.0
N1124 N 0.21984 0.06923 0.46232 0.0
C1125 C 0.23754 0.06432 0.48613 0.0
C1126 C 0.24872 0.07257 0.47861 0.0
C1127 C 0.24592 0.07872 0.46418 0.0
C1128 C 0.22088 0.06315 0.4764 0.0
H1129 H 0.23187 0.08034 0.44472 0.0
C1130 C 0.20984 0.07787 0.42122 0.0
O1131 O 0.16246 0.08649 0.41639 0.0
O1132 O 0.17186 0.09965 0.43563 0.0
N1133 N 0.19671 0.05008 0.46943 0.0
C1134 C 0.185 0.04008 0.47105 0.0
C1135 C 0.18047 0.03475 0.48537 0.0
C1136 C 0.18855 0.03781 0.49878 0.0
C1137 C 0.20328 0.04533 0.49846 0.0
C1138 C 0.20525 0.05422 0.48137 0.0
H1139 H 0.17821 0.03678 0.46134 0.0
O1140 O 0.1629 0.07172 0.44725 0.0
O1141 O 0.18803 0.07359 0.45067 0.0
O1142 O 0.17883 0.05591 0.42202 0.0
O1143 O 0.19248 0.04342 0.43918 0.0
C1144 C 0.22844 0.04707 0.51392 0.0
C1145 C 0.24148 0.05712 0.50367 0.0
H1146 H 0.25975 0.07425 0.48389 0.0
H1147 H 0.25506 0.08478 0.45852 0.0
H1148 H 0.17024 0.02787 0.48608 0.0
H1149 H 0.18325 0.03294 0.50878 0.0
H1150 H 0.22111 0.04523 0.51187 0.0
H1151 H 0.25265 0.05895 0.50855 0.0
Mn1152 Mn 0.57208 0.92495 0.82428 0.0
Mn1153 Mn 0.55103 0.94273 0.79721 0.0
C1154 C 0.54588 0.92739 0.82653 0.0
C1155 C 0.5811 0.90415 0.83874 0.0
C1156 C 0.57334 0.95935 0.81762 0.0
O1157 O 0.58518 0.92165 0.80502 0.0
O1158 O 0.57003 0.9342 0.78788 0.0
C1159 C 0.5436 0.92244 0.77152 0.0
N1160 N 0.53837 0.93097 0.78339 0.0
C1161 C 0.51431 0.93645 0.76631 0.0
C1162 C 0.52112 0.9274 0.75524 0.0
C1163 C 0.53519 0.92033 0.75798 0.0
C1164 C 0.52455 0.93759 0.78261 0.0
H1165 H 0.55474 0.91753 0.77205 0.0
C1166 C 0.58183 0.92612 0.79141 0.0
O1167 O 0.58738 0.91748 0.83952 0.0
O1168 O 0.57063 0.9024 0.82844 0.0
N1169 N 0.5326 0.95049 0.80652 0.0
C1170 C 0.53149 0.9596 0.81897 0.0
C1171 C 0.51743 0.96543 0.82381 0.0
C1172 C 0.50395 0.964 0.81532 0.0
C1173 C 0.50373 0.95669 0.80048 0.0
C1174 C 0.52036 0.947 0.7982 0.0
H1175 H 0.54147 0.96198 0.82577 0.0
O1176 O 0.55451 0.92767 0.83856 0.0
O1177 O 0.55272 0.9273 0.81342 0.0
O1178 O 0.57814 0.94795 0.82515 0.0
O1179 O 0.56305 0.95811 0.80768 0.0
C1180 C 0.48758 0.95512 0.77575 0.0
C1181 C 0.49703 0.94435 0.76268 0.0
H1182 H 0.51545 0.92562 0.74442 0.0
H1183 H 0.54012 0.9134 0.74903 0.0
H1184 H 0.51708 0.97177 0.83439 0.0
H1185 H 0.49432 0.96956 0.82061 0.0
H1186 H 0.48989 0.957 0.78299 0.0
H1187 H 0.49176 0.94246 0.75169 0.0
Mn1188 Mn 0.07995 0.57233 0.82497 0.0
Mn1189 Mn 0.06175 0.55255 0.79722 0.0
C1190 C 0.07654 0.54625 0.82665 0.0
C1191 C 0.1006 0.58045 0.84018 0.0
C1192 C 0.04578 0.57511 0.81769 0.0
O1193 O 0.0846 0.58522 0.80594 0.0
O1194 O 0.07114 0.57145 0.78833 0.0
C1195 C 0.08091 0.54493 0.77078 0.0
N1196 N 0.07287 0.53971 0.78301 0.0
C1197 C 0.06678 0.51567 0.76606 0.0
C1198 C 0.07557 0.52238 0.75475 0.0
C1199 C 0.08265 0.53648 0.75723 0.0
C1200 C 0.06603 0.52597 0.78235 0.0
H1201 H 0.08555 0.55618 0.77094 0.0
C1202 C 0.08025 0.58241 0.79217 0.0
O1203 O 0.0875 0.5872 0.84057 0.0
O1204 O 0.10228 0.56994 0.82988 0.0
N1205 N 0.05339 0.53425 0.80629 0.0
C1206 C 0.04426 0.53329 0.81874 0.0
C1207 C 0.03848 0.5193 0.82379 0.0
C1208 C 0.04005 0.50568 0.81557 0.0
C1209 C 0.04722 0.5053 0.80066 0.0
C1210 C 0.05688 0.52191 0.79812 0.0
H1211 H 0.0419 0.54334 0.82546 0.0
O1212 O 0.0761 0.55468 0.83883 0.0
O1213 O 0.07713 0.5533 0.81364 0.0
O1214 O 0.05726 0.57948 0.82533 0.0
O1215 O 0.04676 0.56482 0.80777 0.0
C1216 C 0.04824 0.48904 0.77599 0.0
C1217 C 0.05876 0.4984 0.76266 0.0
H1218 H 0.07707 0.51668 0.74391 0.0
H1219 H 0.08923 0.54143 0.74803 0.0
H1220 H 0.03217 0.51908 0.8344 0.0
H1221 H 0.03466 0.49607 0.82107 0.0
H1222 H 0.04652 0.4914 0.78326 0.0
H1223 H 0.0604 0.49307 0.75166 0.0
Mn1224 Mn 0.43081 0.07785 0.82113 0.0
Mn1225 Mn 0.45154 0.05866 0.79467 0.0
C1226 C 0.45635 0.07287 0.82497 0.0
C1227 C 0.42259 0.09889 0.83567 0.0
C1228 C 0.42814 0.04349 0.81467 0.0
O1229 O 0.41889 0.08259 0.80161 0.0
O1230 O 0.43261 0.06765 0.78533 0.0
C1231 C 0.45901 0.0777 0.76803 0.0
N1232 N 0.46427 0.0697 0.78026 0.0
C1233 C 0.48814 0.06335 0.76313 0.0
C1234 C 0.48126 0.0719 0.75173 0.0
C1235 C 0.46725 0.07912 0.75431 0.0
C1236 C 0.478 0.06287 0.77956 0.0
H1237 H 0.44791 0.08265 0.76838 0.0
C1238 C 0.42167 0.07705 0.78833 0.0
O1239 O 0.41525 0.08609 0.83565 0.0
O1240 O 0.43378 0.10007 0.82605 0.0
N1241 N 0.46993 0.05042 0.80364 0.0
C1242 C 0.47084 0.04055 0.81553 0.0
C1243 C 0.48485 0.03492 0.82064 0.0
C1244 C 0.49861 0.03745 0.81295 0.0
C1245 C 0.49897 0.04469 0.79807 0.0
C1246 C 0.48226 0.05409 0.79547 0.0
H1247 H 0.46076 0.03763 0.82195 0.0
O1248 O 0.44686 0.07321 0.83631 0.0
O1249 O 0.45069 0.07412 0.81123 0.0
O1250 O 0.423 0.05542 0.82107 0.0
O1251 O 0.43934 0.04385 0.80569 0.0
C1252 C 0.51509 0.04534 0.77328 0.0
C1253 C 0.5055 0.05545 0.75977 0.0
H1254 H 0.48683 0.0732 0.7408 0.0
H1255 H 0.46224 0.08563 0.7451 0.0
H1256 H 0.48503 0.02821 0.831 0.0
H1257 H 0.5083 0.0324 0.81862 0.0
H1258 H 0.51281 0.04374 0.7806 0.0
H1259 H 0.51072 0.05692 0.7487 0.0
Mn1260 Mn 0.92626 0.432 0.82568 0.0
Mn1261 Mn 0.94554 0.45128 0.79824 0.0
C1262 C 0.92946 0.45801 0.82702 0.0
C1263 C 0.90511 0.4239 0.84013 0.0
C1264 C 0.9608 0.42949 0.82029 0.0
O1265 O 0.92272 0.41861 0.80674 0.0
O1266 O 0.93651 0.43223 0.78929 0.0
C1267 C 0.927 0.45852 0.77119 0.0
N1268 N 0.93467 0.46394 0.78358 0.0
C1269 C 0.94026 0.48823 0.7668 0.0
C1270 C 0.93178 0.48133 0.75537 0.0
C1271 C 0.92513 0.467 0.75768 0.0
C1272 C 0.94106 0.47791 0.78309 0.0
H1273 H 0.9228 0.4471 0.77115 0.0
C1274 C 0.92733 0.4213 0.79303 0.0
O1275 O 0.91827 0.41734 0.84118 0.0
O1276 O 0.90367 0.4341 0.82949 0.0
N1277 N 0.95348 0.46984 0.80728 0.0
C1278 C 0.96218 0.47105 0.82001 0.0
C1279 C 0.96776 0.48515 0.82502 0.0
C1280 C 0.96641 0.49864 0.81655 0.0
C1281 C 0.95947 0.49886 0.80153 0.0
C1282 C 0.95003 0.48211 0.79893 0.0
H1283 H 0.96441 0.46112 0.82693 0.0
O1284 O 0.92919 0.44983 0.83937 0.0
O1285 O 0.92951 0.45076 0.8141 0.0
O1286 O 0.94897 0.42564 0.82765 0.0
O1287 O 0.96033 0.43909 0.8096 0.0
C1288 C 0.95837 0.51512 0.77684 0.0
C1289 C 0.94805 0.50562 0.76345 0.0
H1290 H 0.93027 0.48703 0.74453 0.0
H1291 H 0.91884 0.46189 0.74837 0.0
H1292 H 0.97379 0.48553 0.83578 0.0
H1293 H 0.97173 0.50831 0.82203 0.0
H1294 H 0.96009 0.5128 0.78411 0.0
H1295 H 0.94642 0.5109 0.75243 0.0
Mn1296 Mn 0.57067 0.08251 0.17877 0.0
Mn1297 Mn 0.55047 0.06259 0.20507 0.0
C1298 C 0.54518 0.0769 0.17496 0.0
C1299 C 0.57838 0.10379 0.1642 0.0
C1300 C 0.57405 0.0481 0.18497 0.0
O1301 O 0.58261 0.08737 0.19832 0.0
O1302 O 0.56943 0.0716 0.21425 0.0
C1303 C 0.54315 0.08219 0.23143 0.0
N1304 N 0.53786 0.0736 0.21963 0.0
C1305 C 0.51437 0.06745 0.23744 0.0
C1306 C 0.52134 0.0765 0.24839 0.0
C1307 C 0.53514 0.08391 0.24526 0.0
C1308 C 0.52428 0.06658 0.22076 0.0
H1309 H 0.55404 0.08752 0.23055 0.0
C1310 C 0.58018 0.08126 0.21143 0.0
O1311 O 0.58601 0.09117 0.16422 0.0
O1312 O 0.56711 0.10468 0.17376 0.0
N1313 N 0.53206 0.05408 0.19642 0.0
C1314 C 0.53102 0.04404 0.18463 0.0
C1315 C 0.51701 0.03776 0.1801 0.0
C1316 C 0.50343 0.03983 0.18826 0.0
C1317 C 0.50347 0.04771 0.20264 0.0
C1318 C 0.51994 0.05742 0.20498 0.0
H1319 H 0.54097 0.04133 0.17792 0.0
O1320 O 0.55466 0.07749 0.16361 0.0
O1321 O 0.55087 0.07822 0.18867 0.0
O1322 O 0.5791 0.06028 0.17896 0.0
O1323 O 0.56261 0.04802 0.19364 0.0
C1324 C 0.48745 0.0488 0.22822 0.0
C1325 C 0.49709 0.05946 0.24147 0.0
H1326 H 0.51596 0.0781 0.25938 0.0
H1327 H 0.54016 0.0909 0.2541 0.0
H1328 H 0.51675 0.03076 0.16994 0.0
H1329 H 0.49361 0.03414 0.18347 0.0
H1330 H 0.4766 0.04368 0.23161 0.0
H1331 H 0.49208 0.0611 0.25262 0.0
Mn1332 Mn 0.92854 0.57289 0.17602 0.0
Mn1333 Mn 0.94714 0.55385 0.20423 0.0
C1334 C 0.93279 0.54692 0.17419 0.0
C1335 C 0.90752 0.58096 0.1613 0.0
C1336 C 0.96309 0.57486 0.18209 0.0
O1337 O 0.92469 0.58676 0.19458 0.0
O1338 O 0.93871 0.57357 0.21199 0.0
C1339 C 0.9265 0.5489 0.23034 0.0
N1340 N 0.93522 0.54262 0.21914 0.0
C1341 C 0.93952 0.51978 0.23812 0.0
C1342 C 0.93051 0.52768 0.24845 0.0
C1343 C 0.92392 0.54167 0.24446 0.0
C1344 C 0.9415 0.5288 0.22117 0.0
H1345 H 0.92172 0.55997 0.22875 0.0
C1346 C 0.92998 0.58472 0.2081 0.0
O1347 O 0.92068 0.58757 0.16038 0.0
O1348 O 0.90606 0.57063 0.1718 0.0
N1349 N 0.95514 0.53461 0.197 0.0
C1350 C 0.96545 0.53246 0.18566 0.0
C1351 C 0.97099 0.51793 0.18205 0.0
C1352 C 0.9678 0.50491 0.19074 0.0
C1353 C 0.95975 0.50589 0.20516 0.0
C1354 C 0.95095 0.52312 0.2061 0.0
H1355 H 0.96889 0.54189 0.17855 0.0
O1356 O 0.93218 0.55547 0.16214 0.0
O1357 O 0.93184 0.55372 0.18743 0.0
O1358 O 0.95135 0.57934 0.17486 0.0
O1359 O 0.96241 0.56493 0.19248 0.0
C1360 C 0.9568 0.4915 0.23084 0.0
C1361 C 0.94637 0.50237 0.24304 0.0
H1362 H 0.92826 0.52288 0.2596 0.0
H1363 H 0.91689 0.54742 0.25282 0.0
H1364 H 0.97817 0.51674 0.17208 0.0
H1365 H 0.97289 0.49468 0.18614 0.0
H1366 H 0.95895 0.49323 0.22352 0.0
H1367 H 0.94396 0.49793 0.25429 0.0
Mn1368 Mn 0.43256 0.9253 0.18135 0.0
Mn1369 Mn 0.45292 0.94359 0.20867 0.0
C1370 C 0.45849 0.92897 0.17903 0.0
C1371 C 0.42435 0.90438 0.16661 0.0
C1372 C 0.42968 0.9594 0.18867 0.0
O1373 O 0.42006 0.92078 0.20065 0.0
O1374 O 0.43453 0.93374 0.21808 0.0
C1375 C 0.46178 0.92422 0.23476 0.0
N1376 N 0.46643 0.93243 0.2224 0.0
C1377 C 0.49111 0.93871 0.23922 0.0
C1378 C 0.48479 0.9296 0.25045 0.0
C1379 C 0.4707 0.92239 0.24806 0.0
C1380 C 0.48007 0.9394 0.2227 0.0
H1381 H 0.45059 0.91942 0.23493 0.0
C1382 C 0.42335 0.92483 0.2144 0.0
O1383 O 0.41746 0.91742 0.16615 0.0
O1384 O 0.43505 0.90293 0.17673 0.0
N1385 N 0.47077 0.95249 0.19892 0.0
C1386 C 0.47108 0.96179 0.18654 0.0
C1387 C 0.48469 0.96826 0.1811 0.0
C1388 C 0.4987 0.96745 0.18881 0.0
C1389 C 0.49999 0.96011 0.2035 0.0
C1390 C 0.48349 0.94932 0.20657 0.0
H1391 H 0.46076 0.96384 0.18016 0.0
O1392 O 0.4498 0.92913 0.16702 0.0
O1393 O 0.45179 0.92834 0.1922 0.0
O1394 O 0.42546 0.94798 0.18083 0.0
O1395 O 0.43994 0.95839 0.19864 0.0
C1396 C 0.51767 0.95942 0.22857 0.0
C1397 C 0.50872 0.94775 0.24234 0.0
H1398 H 0.49072 0.92804 0.26115 0.0
H1399 H 0.46606 0.91558 0.25726 0.0
H1400 H 0.48422 0.97467 0.17056 0.0
H1401 H 0.50785 0.97342 0.18312 0.0
H1402 H 0.51554 0.96146 0.2216 0.0
H1403 H 0.51436 0.94612 0.25318 0.0
Mn1404 Mn 0.07721 0.43196 0.1767 0.0
Mn1405 Mn 0.05804 0.45034 0.20486 0.0
C1406 C 0.07133 0.4574 0.17442 0.0
C1407 C 0.09821 0.42483 0.16144 0.0
C1408 C 0.04289 0.42839 0.1834 0.0
O1409 O 0.08303 0.4194 0.19542 0.0
O1410 O 0.06709 0.43066 0.21253 0.0
C1411 C 0.07749 0.45556 0.2318 0.0
N1412 N 0.06961 0.46184 0.21996 0.0
C1413 C 0.06607 0.48562 0.23798 0.0
C1414 C 0.0747 0.47788 0.24871 0.0
C1415 C 0.08039 0.46333 0.24555 0.0
C1416 C 0.06374 0.47595 0.22142 0.0
H1417 H 0.08105 0.44398 0.23128 0.0
C1418 C 0.07746 0.42085 0.20888 0.0
O1419 O 0.08559 0.4172 0.16139 0.0
O1420 O 0.0992 0.43587 0.17124 0.0
N1421 N 0.04967 0.46946 0.19763 0.0
C1422 C 0.03924 0.47139 0.18635 0.0
C1423 C 0.03381 0.48585 0.18234 0.0
C1424 C 0.03738 0.49913 0.19045 0.0
C1425 C 0.04566 0.49858 0.20476 0.0
C1426 C 0.05417 0.48121 0.20625 0.0
H1427 H 0.03559 0.4618 0.17956 0.0
O1428 O 0.07168 0.44855 0.16255 0.0
O1429 O 0.07313 0.45106 0.18783 0.0
O1430 O 0.05492 0.42373 0.17678 0.0
O1431 O 0.04307 0.43908 0.19301 0.0
C1432 C 0.04923 0.51389 0.22979 0.0
C1433 C 0.05962 0.50334 0.24227 0.0
H1434 H 0.07707 0.48307 0.25965 0.0
H1435 H 0.08679 0.4575 0.25436 0.0
H1436 H 0.02649 0.48679 0.17245 0.0
H1437 H 0.03239 0.50927 0.18554 0.0
H1438 H 0.04696 0.51189 0.22257 0.0
H1439 H 0.0622 0.50815 0.25333 0.0
Mn1440 Mn 0.82596 0.57166 0.92739 0.0
Mn1441 Mn 0.79861 0.55312 0.94764 0.0
C1442 C 0.82874 0.54642 0.93363 0.0
C1443 C 0.84068 0.57821 0.90582 0.0
C1444 C 0.82021 0.57581 0.96177 0.0
O1445 O 0.80685 0.58387 0.92197 0.0
O1446 O 0.79019 0.57232 0.93823 0.0
C1447 C 0.77101 0.54671 0.92928 0.0
N1448 N 0.78344 0.54093 0.93666 0.0
C1449 C 0.76571 0.51649 0.94124 0.0
C1450 C 0.75461 0.5239 0.93286 0.0
C1451 C 0.75735 0.53848 0.92694 0.0
C1452 C 0.78265 0.52688 0.94266 0.0
H1453 H 0.77094 0.55831 0.92568 0.0
C1454 C 0.79347 0.58206 0.92767 0.0
O1455 O 0.84106 0.58619 0.91823 0.0
O1456 O 0.83057 0.5674 0.90532 0.0
N1457 N 0.8068 0.53441 0.95632 0.0
C1458 C 0.81842 0.53317 0.96651 0.0
C1459 C 0.82321 0.51904 0.97231 0.0
C1460 C 0.81561 0.50523 0.96964 0.0
C1461 C 0.80114 0.50483 0.9618 0.0
C1462 C 0.79866 0.52219 0.95228 0.0
H1463 H 0.82492 0.54312 0.96969 0.0
O1464 O 0.84049 0.55538 0.93273 0.0
O1465 O 0.81521 0.55254 0.93212 0.0
O1466 O 0.8266 0.58018 0.94952 0.0
O1467 O 0.81051 0.56519 0.96203 0.0
C1468 C 0.77548 0.48807 0.9598 0.0
C1469 C 0.76201 0.49834 0.94889 0.0
H1470 H 0.74367 0.5185 0.93099 0.0
H1471 H 0.74819 0.54407 0.92083 0.0
H1472 H 0.83334 0.51884 0.97937 0.0
H1473 H 0.82104 0.4955 0.97489 0.0
H1474 H 0.78249 0.4898 0.962 0.0
H1475 H 0.75098 0.49322 0.9469 0.0
Mn1476 Mn 0.82806 0.43211 0.0798 0.0
Mn1477 Mn 0.79999 0.4523 0.06263 0.0
C1478 C 0.82936 0.45845 0.07752 0.0
C1479 C 0.84295 0.42331 0.10037 0.0
C1480 C 0.82071 0.43069 0.04554 0.0
O1481 O 0.80935 0.41833 0.08327 0.0
O1482 O 0.79149 0.43299 0.07117 0.0
C1483 C 0.77435 0.45876 0.08326 0.0
N1484 N 0.78593 0.46444 0.07462 0.0
C1485 C 0.76775 0.48763 0.06898 0.0
C1486 C 0.75702 0.48041 0.07812 0.0
C1487 C 0.76044 0.46656 0.08533 0.0
C1488 C 0.78452 0.47817 0.06792 0.0
H1489 H 0.77544 0.4477 0.08829 0.0
C1490 C 0.79557 0.42124 0.07904 0.0
O1491 O 0.84385 0.41723 0.08695 0.0
O1492 O 0.8324 0.43351 0.10229 0.0
N1493 N 0.80856 0.47102 0.05479 0.0
C1494 C 0.82076 0.47251 0.0454 0.0
C1495 C 0.82504 0.4867 0.03951 0.0
C1496 C 0.81614 0.49988 0.04112 0.0
C1497 C 0.80136 0.49955 0.04857 0.0
C1498 C 0.79988 0.48295 0.05842 0.0
H1499 H 0.82784 0.46275 0.04288 0.0
O1500 O 0.84168 0.45025 0.07704 0.0
O1501 O 0.81651 0.45112 0.07776 0.0
O1502 O 0.82872 0.42616 0.05674 0.0
O1503 O 0.81054 0.4407 0.04706 0.0
C1504 C 0.77592 0.51457 0.04998 0.0
C1505 C 0.7633 0.50464 0.06089 0.0
H1506 H 0.74595 0.48558 0.07986 0.0
H1507 H 0.75175 0.46132 0.09234 0.0
H1508 H 0.8355 0.48741 0.03299 0.0
H1509 H 0.82104 0.50971 0.03554 0.0
H1510 H 0.78325 0.51257 0.04811 0.0
H1511 H 0.75209 0.50942 0.06274 0.0
Mn1512 Mn 0.57279 0.83037 0.07365 0.0
Mn1513 Mn 0.55423 0.80281 0.05383 0.0
C1514 C 0.54723 0.83247 0.06856 0.0
C1515 C 0.58 0.84543 0.09475 0.0
C1516 C 0.57609 0.82456 0.03919 0.0
O1517 O 0.58539 0.81161 0.07891 0.0
O1518 O 0.57412 0.7949 0.06246 0.0
C1519 C 0.54946 0.77435 0.07101 0.0
N1520 N 0.54294 0.78685 0.06441 0.0
C1521 C 0.51943 0.76885 0.05918 0.0
C1522 C 0.52736 0.75747 0.06677 0.0
C1523 C 0.54189 0.76029 0.07266 0.0
C1524 C 0.52882 0.7857 0.05844 0.0
H1525 H 0.56114 0.77458 0.07433 0.0
C1526 C 0.58378 0.79825 0.07312 0.0
O1527 O 0.58739 0.84582 0.08199 0.0
O1528 O 0.56926 0.8353 0.09584 0.0
N1529 N 0.53495 0.81049 0.04622 0.0
C1530 C 0.53279 0.82258 0.03679 0.0
C1531 C 0.5182 0.82705 0.03211 0.0
C1532 C 0.50499 0.81866 0.03532 0.0
C1533 C 0.50579 0.80368 0.04224 0.0
C1534 C 0.52327 0.8016 0.05038 0.0
H1535 H 0.54231 0.82965 0.03351 0.0
O1536 O 0.55597 0.84443 0.0687 0.0
O1537 O 0.55373 0.81908 0.06974 0.0
O1538 O 0.58096 0.83071 0.05135 0.0
O1539 O 0.56514 0.81529 0.03917 0.0
C1540 C 0.49089 0.77818 0.04345 0.0
C1541 C 0.50173 0.76491 0.05248 0.0
H1542 H 0.52233 0.74628 0.06812 0.0
H1543 H 0.5479 0.751 0.07814 0.0
H1544 H 0.5171 0.83754 0.02569 0.0
H1545 H 0.49472 0.82394 0.03102 0.0
H1546 H 0.49275 0.78561 0.04188 0.0
H1547 H 0.49711 0.75359 0.05402 0.0
Mn1548 Mn 0.17805 0.57481 0.07667 0.0
Mn1549 Mn 0.20584 0.55555 0.05764 0.0
C1550 C 0.17581 0.54903 0.07204 0.0
C1551 C 0.1635 0.58258 0.09791 0.0
C1552 C 0.1838 0.57694 0.04207 0.0
O1553 O 0.19678 0.58833 0.08061 0.0
O1554 O 0.21384 0.57522 0.06607 0.0
C1555 C 0.23232 0.55041 0.07804 0.0
N1556 N 0.22085 0.54421 0.06957 0.0
C1557 C 0.23998 0.5208 0.06565 0.0
C1558 C 0.2503 0.52875 0.07456 0.0
C1559 C 0.24635 0.54295 0.08078 0.0
C1560 C 0.22263 0.53029 0.06358 0.0
H1561 H 0.23105 0.56163 0.08251 0.0
C1562 C 0.21019 0.58628 0.07504 0.0
O1563 O 0.1626 0.5895 0.0849 0.0
O1564 O 0.17394 0.57215 0.09911 0.0
N1565 N 0.19827 0.53632 0.04956 0.0
C1566 C 0.1869 0.53433 0.03922 0.0
C1567 C 0.18301 0.51988 0.03351 0.0
C1568 C 0.19141 0.50656 0.03635 0.0
C1569 C 0.20576 0.50705 0.04442 0.0
C1570 C 0.20711 0.52465 0.0537 0.0
H1571 H 0.17993 0.54389 0.03583 0.0
O1572 O 0.16388 0.55774 0.0728 0.0
O1573 O 0.18917 0.55557 0.07304 0.0
O1574 O 0.1769 0.58157 0.05396 0.0
O1575 O 0.19398 0.56677 0.04251 0.0
C1576 C 0.23214 0.49166 0.04736 0.0
C1577 C 0.24478 0.50276 0.05841 0.0
H1578 H 0.26141 0.52392 0.0769 0.0
H1579 H 0.25479 0.54876 0.08765 0.0
H1580 H 0.17301 0.51902 0.02633 0.0
H1581 H 0.18665 0.49648 0.0311 0.0
H1582 H 0.2251 0.49302 0.04497 0.0
H1583 H 0.25597 0.49819 0.06083 0.0
Mn1584 Mn 0.43091 0.1795 0.07575 0.0
Mn1585 Mn 0.44866 0.20614 0.05442 0.0
C1586 C 0.45591 0.17681 0.06888 0.0
C1587 C 0.426 0.1644 0.09753 0.0
C1588 C 0.42601 0.18456 0.04141 0.0
O1589 O 0.41901 0.19835 0.08183 0.0
O1590 O 0.4285 0.21368 0.06308 0.0
C1591 C 0.45275 0.23497 0.07138 0.0
N1592 N 0.45959 0.22264 0.06481 0.0
C1593 C 0.48319 0.24104 0.06091 0.0
C1594 C 0.4749 0.25209 0.06855 0.0
C1595 C 0.46016 0.24902 0.0737 0.0
C1596 C 0.47391 0.22401 0.05932 0.0
H1597 H 0.44096 0.23465 0.07416 0.0
C1598 C 0.41955 0.21103 0.07457 0.0
O1599 O 0.41702 0.16416 0.08578 0.0
O1600 O 0.43666 0.17464 0.09731 0.0
N1601 N 0.46818 0.19907 0.0467 0.0
C1602 C 0.47072 0.18698 0.03733 0.0
C1603 C 0.48541 0.18308 0.03225 0.0
C1604 C 0.49831 0.19209 0.0349 0.0
C1605 C 0.49697 0.20656 0.04247 0.0
C1606 C 0.4796 0.20835 0.05071 0.0
H1607 H 0.46145 0.17952 0.03419 0.0
O1608 O 0.44691 0.16507 0.06934 0.0
O1609 O 0.44985 0.19034 0.07052 0.0
O1610 O 0.42082 0.17998 0.05416 0.0
O1611 O 0.43812 0.19228 0.04049 0.0
C1612 C 0.51193 0.23269 0.04485 0.0
C1613 C 0.50096 0.2456 0.05451 0.0
H1614 H 0.47974 0.2633 0.07035 0.0
H1615 H 0.45385 0.25817 0.07908 0.0
H1616 H 0.48675 0.17273 0.02566 0.0
H1617 H 0.50873 0.18774 0.02998 0.0
H1618 H 0.52309 0.23644 0.04074 0.0
H1619 H 0.50539 0.25695 0.05642 0.0
Mn1620 Mn 0.17792 0.43194 0.92607 0.0
Mn1621 Mn 0.20562 0.4519 0.94429 0.0
C1622 C 0.17674 0.45824 0.92824 0.0
C1623 C 0.16334 0.42297 0.90529 0.0
C1624 C 0.18352 0.431 0.96063 0.0
O1625 O 0.19675 0.41788 0.92356 0.0
O1626 O 0.21429 0.43252 0.93612 0.0
C1627 C 0.23176 0.45814 0.9241 0.0
N1628 N 0.2201 0.46388 0.93258 0.0
C1629 C 0.23788 0.48754 0.93745 0.0
C1630 C 0.24872 0.48022 0.92852 0.0
C1631 C 0.24553 0.46609 0.92178 0.0
C1632 C 0.22132 0.4778 0.93892 0.0
H1633 H 0.23085 0.44694 0.91939 0.0
C1634 C 0.21044 0.42075 0.92818 0.0
O1635 O 0.1622 0.41709 0.91876 0.0
O1636 O 0.17416 0.4329 0.90337 0.0
N1637 N 0.19704 0.47079 0.95182 0.0
C1638 C 0.18464 0.4725 0.96089 0.0
C1639 C 0.18036 0.48679 0.96658 0.0
C1640 C 0.1893 0.49995 0.96493 0.0
C1641 C 0.20411 0.49957 0.95754 0.0
C1642 C 0.20588 0.48265 0.94826 0.0
H1643 H 0.17743 0.46283 0.96338 0.0
O1644 O 0.16437 0.45012 0.92806 0.0
O1645 O 0.18958 0.45086 0.92849 0.0
O1646 O 0.17586 0.42681 0.94909 0.0
O1647 O 0.19435 0.44039 0.95961 0.0
C1648 C 0.22927 0.515 0.95544 0.0
C1649 C 0.24202 0.50491 0.94488 0.0
H1650 H 0.25968 0.48553 0.92656 0.0
H1651 H 0.2543 0.46076 0.91492 0.0
H1652 H 0.16981 0.48761 0.97293 0.0
H1653 H 0.18434 0.50984 0.97034 0.0
H1654 H 0.22198 0.51294 0.95741 0.0
H1655 H 0.25313 0.50983 0.9428 0.0
Mn1656 Mn 0.56584 0.17501 0.92779 0.0
Mn1657 Mn 0.54315 0.19247 0.95206 0.0
C1658 C 0.54025 0.168 0.93055 0.0
C1659 C 0.57557 0.164 0.90534 0.0
C1660 C 0.56645 0.17223 0.96274 0.0
O1661 O 0.57535 0.19669 0.92672 0.0
O1662 O 0.56365 0.20204 0.94891 0.0
C1663 C 0.53886 0.22264 0.93644 0.0
N1664 N 0.53296 0.21045 0.94397 0.0
C1665 C 0.51075 0.2287 0.95251 0.0
C1666 C 0.51891 0.24041 0.94563 0.0
C1667 C 0.5321 0.23724 0.93712 0.0
C1668 C 0.51911 0.21136 0.9503 0.0
H1669 H 0.54884 0.22127 0.92953 0.0
C1670 C 0.5725 0.20588 0.93781 0.0
O1671 O 0.58292 0.16345 0.91811 0.0
O1672 O 0.56362 0.17275 0.90502 0.0
N1673 N 0.52337 0.18371 0.95603 0.0
C1674 C 0.52038 0.17002 0.96271 0.0
C1675 C 0.50563 0.16584 0.96724 0.0
C1676 C 0.49328 0.17593 0.96715 0.0
C1677 C 0.49543 0.19169 0.96321 0.0
C1678 C 0.51266 0.19443 0.95516 0.0
H1679 H 0.52929 0.16164 0.96399 0.0
O1680 O 0.5508 0.15767 0.92936 0.0
O1681 O 0.54486 0.18192 0.93247 0.0
O1682 O 0.57385 0.17316 0.95032 0.0
O1683 O 0.55248 0.17541 0.96298 0.0
C1684 C 0.48184 0.21842 0.96709 0.0
C1685 C 0.49338 0.23261 0.96028 0.0
H1686 H 0.5145 0.25194 0.94588 0.0
H1687 H 0.53746 0.2465 0.93099 0.0
H1688 H 0.50381 0.15435 0.97137 0.0
H1689 H 0.48269 0.17113 0.97121 0.0
H1690 H 0.47092 0.2217 0.97215 0.0
H1691 H 0.48941 0.24428 0.96074 0.0
Mn1692 Mn 0.43375 0.82429 0.92835 0.0
Mn1693 Mn 0.45385 0.79576 0.94526 0.0
C1694 C 0.45961 0.8267 0.93291 0.0
C1695 C 0.42555 0.84003 0.90812 0.0
C1696 C 0.43198 0.8159 0.96242 0.0
O1697 O 0.42051 0.8057 0.92322 0.0
O1698 O 0.43403 0.78811 0.93672 0.0
C1699 C 0.45883 0.77095 0.9228 0.0
N1700 N 0.46505 0.78167 0.93216 0.0
C1701 C 0.48861 0.76244 0.93425 0.0
C1702 C 0.4806 0.75284 0.92461 0.0
C1703 C 0.46631 0.75721 0.91886 0.0
C1704 C 0.47901 0.77945 0.93793 0.0
H1705 H 0.4476 0.77262 0.91846 0.0
C1706 C 0.42274 0.79209 0.92817 0.0
O1707 O 0.4187 0.83998 0.9212 0.0
O1708 O 0.43626 0.82999 0.90626 0.0
N1709 N 0.47318 0.80289 0.95354 0.0
C1710 C 0.47532 0.81361 0.96452 0.0
C1711 C 0.48985 0.81704 0.97036 0.0
C1712 C 0.50311 0.80874 0.96694 0.0
C1713 C 0.50254 0.79503 0.95783 0.0
C1714 C 0.48474 0.79421 0.94884 0.0
H1715 H 0.46582 0.82039 0.96842 0.0
O1716 O 0.45064 0.83846 0.93321 0.0
O1717 O 0.45329 0.81335 0.93101 0.0
O1718 O 0.42676 0.82324 0.95105 0.0
O1719 O 0.4429 0.80659 0.96123 0.0
C1720 C 0.51813 0.76918 0.9524 0.0
C1721 C 0.50688 0.75731 0.94066 0.0
H1722 H 0.48547 0.74201 0.92128 0.0
H1723 H 0.46047 0.74937 0.91134 0.0
H1724 H 0.4908 0.82654 0.97819 0.0
H1725 H 0.51321 0.81307 0.97249 0.0
H1726 H 0.51675 0.77599 0.95537 0.0
H1727 H 0.51151 0.74641 0.93722 0.0
Mn1728 Mn 0.57735 0.67243 0.9299 0.0
Mn1729 Mn 0.55892 0.69945 0.94979 0.0
C1730 C 0.58187 0.67655 0.95548 0.0
C1731 C 0.58714 0.64854 0.92245 0.0
C1732 C 0.58157 0.7068 0.92595 0.0
O1733 O 0.55671 0.6722 0.9192 0.0
O1734 O 0.54737 0.69377 0.93057 0.0
C1735 C 0.52738 0.68945 0.95677 0.0
N1736 N 0.54128 0.69387 0.96213 0.0
C1737 C 0.52546 0.708 0.98424 0.0
C1738 C 0.51245 0.70244 0.97718 0.0
C1739 C 0.51352 0.69312 0.96417 0.0
C1740 C 0.54224 0.70155 0.97534 0.0
H1741 H 0.52663 0.68315 0.94629 0.0
C1742 C 0.54614 0.68222 0.92137 0.0
O1743 O 0.58906 0.66068 0.91436 0.0
O1744 O 0.57785 0.64976 0.93394 0.0
N1745 N 0.57001 0.70459 0.96834 0.0
C1746 C 0.58466 0.70968 0.96947 0.0
C1747 C 0.59081 0.71541 0.98317 0.0
C1748 C 0.58212 0.71852 0.99624 0.0
C1749 C 0.56599 0.71621 0.99608 0.0
C1750 C 0.56066 0.70533 0.98021 0.0
H1751 H 0.59222 0.70879 0.9598 0.0
O1752 O 0.59325 0.67377 0.94637 0.0
O1753 O 0.5688 0.67938 0.94925 0.0
O1754 O 0.58187 0.69355 0.92029 0.0
O1755 O 0.57504 0.70946 0.93838 0.0
C1756 C 0.54052 0.72667 0.01045 0.0
C1757 C 0.52409 0.71969 1.00074 0.0
H1758 H 0.50135 0.70502 0.9818 0.0
H1759 H 0.50301 0.68903 0.95913 0.0
H1760 H 0.60283 0.71819 0.9834 0.0
H1761 H 0.58827 0.72356 0.00566 0.0
H1762 H 0.53893 0.73419 0.02027 0.0
H1763 H 0.51315 0.7231 0.00497 0.0
Mn1764 Mn 0.32747 0.57806 0.93143 0.0
Mn1765 Mn 0.30034 0.56142 0.95232 0.0
C1766 C 0.32408 0.58395 0.95689 0.0
C1767 C 0.35108 0.5875 0.92297 0.0
C1768 C 0.2935 0.58456 0.92919 0.0
O1769 O 0.32664 0.55719 0.92099 0.0
O1770 O 0.30427 0.55048 0.9324 0.0
C1771 C 0.30907 0.52905 0.95728 0.0
N1772 N 0.30536 0.54282 0.96346 0.0
C1773 C 0.29129 0.52643 0.9852 0.0
C1774 C 0.29591 0.51361 0.97716 0.0
C1775 C 0.30491 0.51499 0.96397 0.0
C1776 C 0.29818 0.54337 0.97695 0.0
H1777 H 0.31521 0.52861 0.94673 0.0
C1778 C 0.3154 0.54794 0.923 0.0
O1779 O 0.3387 0.58919 0.91519 0.0
O1780 O 0.35034 0.5782 0.93451 0.0
N1781 N 0.29628 0.57165 0.97157 0.0
C1782 C 0.29129 0.58626 0.97354 0.0
C1783 C 0.28645 0.59193 0.98774 0.0
C1784 C 0.28406 0.58279 1.0006 0.0
C1785 C 0.28568 0.5666 0.99951 0.0
C1786 C 0.29552 0.56165 0.98293 0.0
H1787 H 0.29178 0.59427 0.96421 0.0
O1788 O 0.32693 0.59466 0.94705 0.0
O1789 O 0.32095 0.57045 0.95157 0.0
O1790 O 0.30615 0.58315 0.92246 0.0
O1791 O 0.29129 0.57886 0.9421 0.0
C1792 C 0.27465 0.54093 0.01311 0.0
C1793 C 0.28035 0.52469 1.00221 0.0
H1794 H 0.29288 0.50239 0.98113 0.0
H1795 H 0.30838 0.50461 0.95824 0.0
H1796 H 0.28393 0.60399 0.98863 0.0
H1797 H 0.27984 0.58867 0.01057 0.0
H1798 H 0.26757 0.53919 0.02322 0.0
H1799 H 0.27675 0.51365 0.00611 0.0
Mn1800 Mn 0.42464 0.32675 0.93504 0.0
Mn1801 Mn 0.44215 0.29966 0.9551 0.0
C1802 C 0.41974 0.32311 0.96056 0.0
C1803 C 0.414 0.3501 0.92693 0.0
C1804 C 0.41948 0.29263 0.93224 0.0
O1805 O 0.44523 0.32702 0.9244 0.0
O1806 O 0.45224 0.3041 0.93458 0.0
C1807 C 0.47494 0.30763 0.95873 0.0
N1808 N 0.46138 0.3041 0.96544 0.0
C1809 C 0.47832 0.28937 0.98609 0.0
C1810 C 0.4909 0.29346 0.97744 0.0
C1811 C 0.48919 0.30279 0.96453 0.0
C1812 C 0.46133 0.29667 0.97882 0.0
H1813 H 0.47506 0.31419 0.9485 0.0
C1814 C 0.4547 0.31588 0.92589 0.0
O1815 O 0.4126 0.33769 0.91915 0.0
O1816 O 0.42344 0.34959 0.93836 0.0
N1817 N 0.43297 0.29546 0.9749 0.0
C1818 C 0.41837 0.29095 0.97766 0.0
C1819 C 0.41337 0.28655 0.9922 0.0
C1820 C 0.42314 0.28402 0.00455 0.0
C1821 C 0.43947 0.28461 0.00266 0.0
C1822 C 0.44354 0.29434 0.98575 0.0
H1823 H 0.40988 0.29163 0.96879 0.0
O1824 O 0.40855 0.32522 0.95106 0.0
O1825 O 0.43318 0.32033 0.95491 0.0
O1826 O 0.42106 0.30529 0.92561 0.0
O1827 O 0.42381 0.29108 0.94575 0.0
C1828 C 0.46521 0.27321 0.01458 0.0
C1829 C 0.48058 0.27844 0.00274 0.0
H1830 H 0.50217 0.28976 0.98079 0.0
H1831 H 0.49937 0.30604 0.95834 0.0
H1832 H 0.40129 0.2846 0.99383 0.0
H1833 H 0.41734 0.2805 0.01483 0.0
H1834 H 0.45779 0.27458 0.01394 0.0
H1835 H 0.49172 0.27415 0.00569 0.0
Mn1836 Mn 0.67721 0.42313 0.9338 0.0
Mn1837 Mn 0.70341 0.44249 0.95418 0.0
C1838 C 0.6793 0.42063 0.96008 0.0
C1839 C 0.65373 0.41326 0.92518 0.0
C1840 C 0.71168 0.41762 0.93258 0.0
O1841 O 0.67906 0.44293 0.92117 0.0
O1842 O 0.69902 0.45322 0.93448 0.0
C1843 C 0.69361 0.4743 0.95935 0.0
N1844 N 0.69747 0.46057 0.96554 0.0
C1845 C 0.71133 0.47701 0.98735 0.0
C1846 C 0.70626 0.48981 0.97953 0.0
C1847 C 0.69735 0.48838 0.96627 0.0
C1848 C 0.70471 0.46002 0.97901 0.0
H1849 H 0.68786 0.47467 0.94851 0.0
C1850 C 0.68897 0.45356 0.92369 0.0
O1851 O 0.66646 0.41041 0.9184 0.0
O1852 O 0.65414 0.42385 0.93558 0.0
N1853 N 0.70742 0.43195 0.97324 0.0
C1854 C 0.71213 0.41725 0.97506 0.0
C1855 C 0.71725 0.41151 0.98916 0.0
C1856 C 0.72016 0.42065 1.00196 0.0
C1857 C 0.71824 0.43683 1.00108 0.0
C1858 C 0.70794 0.44174 0.98474 0.0
H1859 H 0.71139 0.40938 0.96562 0.0
O1860 O 0.67631 0.40874 0.95172 0.0
O1861 O 0.68313 0.43296 0.95296 0.0
O1862 O 0.69863 0.41611 0.9267 0.0
O1863 O 0.71401 0.42626 0.94371 0.0
C1864 C 0.72895 0.46261 0.01468 0.0
C1865 C 0.72261 0.47879 0.00414 0.0
H1866 H 0.70895 0.50105 0.98366 0.0
H1867 H 0.69371 0.49874 0.96062 0.0
H1868 H 0.71974 0.39944 0.98995 0.0
H1869 H 0.72476 0.41478 0.01177 0.0
H1870 H 0.73621 0.46443 0.02466 0.0
H1871 H 0.72601 0.48978 0.00823 0.0
Mn1872 Mn 0.57965 0.33558 0.07841 0.0
Mn1873 Mn 0.56042 0.30981 0.05896 0.0
C1874 C 0.58416 0.33172 0.05253 0.0
C1875 C 0.59121 0.35839 0.08637 0.0
C1876 C 0.58284 0.30113 0.08121 0.0
O1877 O 0.55931 0.33701 0.08956 0.0
O1878 O 0.55107 0.31458 0.07957 0.0
C1879 C 0.52859 0.32153 0.05575 0.0
N1880 N 0.54153 0.31612 0.04908 0.0
C1881 C 0.52298 0.3043 0.02817 0.0
C1882 C 0.51101 0.31005 0.03671 0.0
C1883 C 0.51385 0.31883 0.04979 0.0
C1884 C 0.5407 0.30894 0.03568 0.0
H1885 H 0.52937 0.32813 0.06592 0.0
C1886 C 0.54937 0.32628 0.08845 0.0
O1887 O 0.59231 0.34591 0.09412 0.0
O1888 O 0.58169 0.35826 0.075 0.0
N1889 N 0.56891 0.30476 0.03926 0.0
C1890 C 0.58298 0.29887 0.03634 0.0
C1891 C 0.5873 0.29397 0.0218 0.0
C1892 C 0.57714 0.29259 0.00964 0.0
C1893 C 0.56096 0.29476 0.01174 0.0
C1894 C 0.55807 0.30452 0.02874 0.0
H1895 H 0.5917 0.29884 0.04501 0.0
O1896 O 0.59546 0.33324 0.06202 0.0
O1897 O 0.57068 0.32979 0.05847 0.0
O1898 O 0.58223 0.31386 0.08791 0.0
O1899 O 0.57825 0.30004 0.0678 0.0
C1900 C 0.53396 0.28721 0.99937 0.0
C1901 C 0.51938 0.29434 0.01126 0.0
H1902 H 0.49941 0.30806 0.03308 0.0
H1903 H 0.50416 0.32345 0.0559 0.0
H1904 H 0.59912 0.29089 0.01996 0.0
H1905 H 0.58252 0.28894 0.99921 0.0
H1906 H 0.54148 0.28743 1.00003 0.0
H1907 H 0.50775 0.29317 0.0077 0.0
Mn1908 Mn 0.67677 0.58232 0.07111 0.0
Mn1909 Mn 0.70228 0.56267 0.05043 0.0
C1910 C 0.67972 0.58645 0.04537 0.0
C1911 C 0.65372 0.5931 0.07966 0.0
C1912 C 0.71123 0.58655 0.07227 0.0
O1913 O 0.67664 0.5621 0.08252 0.0
O1914 O 0.69798 0.55275 0.07094 0.0
C1915 C 0.69195 0.53083 0.04687 0.0
N1916 N 0.69619 0.54409 0.04 0.0
C1917 C 0.71013 0.52682 0.01969 0.0
C1918 C 0.70534 0.51438 0.02825 0.0
C1919 C 0.69606 0.51639 0.04113 0.0
C1920 C 0.70361 0.54375 0.02654 0.0
H1921 H 0.68547 0.53116 0.05721 0.0
C1922 C 0.68672 0.55161 0.08047 0.0
O1923 O 0.66641 0.59489 0.08692 0.0
O1924 O 0.65386 0.58324 0.06858 0.0
N1925 N 0.70629 0.57166 0.03061 0.0
C1926 C 0.71165 0.58597 0.0278 0.0
C1927 C 0.71612 0.59064 0.01317 0.0
C1928 C 0.71774 0.58054 1.00093 0.0
C1929 C 0.71586 0.56444 0.00327 0.0
C1930 C 0.70639 0.56101 0.01972 0.0
H1931 H 0.71172 0.59442 0.03674 0.0
O1932 O 0.67772 0.5979 0.05458 0.0
O1933 O 0.68231 0.57312 0.05138 0.0
O1934 O 0.69859 0.58672 0.07919 0.0
O1935 O 0.7128 0.57983 0.05974 0.0
C1936 C 0.72617 0.53846 0.99204 0.0
C1937 C 0.72066 0.52377 0.0036 0.0
H1938 H 0.70837 0.50296 0.02476 0.0
H1939 H 0.69234 0.50635 0.04728 0.0
H1940 H 0.71897 0.60252 0.01141 0.0
H1941 H 0.72179 0.58563 0.99046 0.0
H1942 H 0.73323 0.53573 0.98212 0.0
H1943 H 0.72437 0.51256 1.00062 0.0
Mn1944 Mn 0.42561 0.67388 0.07256 0.0
Mn1945 Mn 0.44304 0.70086 0.05249 0.0
C1946 C 0.41941 0.6786 0.0475 0.0
C1947 C 0.41475 0.65049 0.08005 0.0
C1948 C 0.42228 0.70804 0.07696 0.0
O1949 O 0.44668 0.67241 0.08199 0.0
O1950 O 0.45436 0.69523 0.0721 0.0
C1951 C 0.47521 0.69172 0.04628 0.0
N1952 N 0.46133 0.69596 0.0407 0.0
C1953 C 0.4774 0.70964 0.01844 0.0
C1954 C 0.49035 0.70452 0.02593 0.0
C1955 C 0.48915 0.6955 0.03911 0.0
C1956 C 0.46054 0.70337 0.02735 0.0
H1957 H 0.47588 0.68535 0.05663 0.0
C1958 C 0.45665 0.68307 0.08031 0.0
O1959 O 0.41404 0.66254 0.08852 0.0
O1960 O 0.42362 0.65134 0.0682 0.0
N1961 N 0.43253 0.70605 0.03359 0.0
C1962 C 0.41802 0.71146 0.032 0.0
C1963 C 0.41207 0.71638 0.01792 0.0
C1964 C 0.42083 0.71825 0.00472 0.0
C1965 C 0.43697 0.71614 0.0053 0.0
C1966 C 0.44218 0.70646 0.02192 0.0
H1967 H 0.41023 0.71124 0.04152 0.0
O1968 O 0.40869 0.67664 0.05757 0.0
O1969 O 0.43324 0.68064 0.05249 0.0
O1970 O 0.42352 0.69509 0.08309 0.0
O1971 O 0.42574 0.70974 0.06325 0.0
C1972 C 0.4625 0.72618 0.99073 0.0
C1973 C 0.47888 0.72024 1.00121 0.0
H1974 H 0.5015 0.70703 0.02143 0.0
H1975 H 0.49961 0.69158 0.04439 0.0
H1976 H 0.40007 0.71927 0.01739 0.0
H1977 H 0.41475 0.72249 0.99487 0.0
H1978 H 0.46412 0.73305 0.98046 0.0
H1979 H 0.48985 0.72349 0.99689 0.0
Mn1980 Mn 0.3309 0.42482 0.07174 0.0
Mn1981 Mn 0.30356 0.44259 0.05225 0.0
C1982 C 0.32575 0.41893 0.04679 0.0
C1983 C 0.35475 0.41429 0.07826 0.0
C1984 C 0.29678 0.42119 0.0764 0.0
O1985 O 0.33229 0.44568 0.08152 0.0
O1986 O 0.30933 0.4535 0.07206 0.0
C1987 C 0.31245 0.47474 0.04659 0.0
N1988 N 0.3082 0.46101 0.04068 0.0
C1989 C 0.2941 0.47689 0.01934 0.0
C1990 C 0.29893 0.48988 0.02699 0.0
C1991 C 0.30826 0.48875 0.03992 0.0
C1992 C 0.30053 0.46044 0.02737 0.0
H1993 H 0.31903 0.47519 0.05683 0.0
C1994 C 0.32157 0.45563 0.0802 0.0
O1995 O 0.34305 0.41318 0.08719 0.0
O1996 O 0.35322 0.4234 0.06668 0.0
N1997 N 0.29833 0.43273 0.03313 0.0
C1998 C 0.29306 0.41823 0.03121 0.0
C1999 C 0.28831 0.41271 0.01697 0.0
C2000 C 0.28656 0.42204 0.00417 0.0
C2001 C 0.28838 0.43826 0.00549 0.0
C2002 C 0.29778 0.44278 0.02171 0.0
H2003 H 0.29332 0.4102 0.04052 0.0
O2004 O 0.32805 0.40809 0.05666 0.0
O2005 O 0.32372 0.43272 0.05195 0.0
O2006 O 0.30982 0.42225 0.08245 0.0
O2007 O 0.29488 0.42505 0.06279 0.0
C2008 C 0.27821 0.46345 0.99245 0.0
C2009 C 0.28369 0.47888 0.00303 0.0
H2010 H 0.29591 0.50104 0.0227 0.0
H2011 H 0.31202 0.49918 0.04534 0.0
H2012 H 0.28554 0.40073 0.01595 0.0
H2013 H 0.28252 0.41626 0.99406 0.0
H2014 H 0.27122 0.46551 0.98232 0.0
H2015 H 0.28011 0.48997 0.99935 0.0
Mn2016 Mn 0.93239 0.57729 0.67538 0.0
Mn2017 Mn 0.95392 0.56084 0.70202 0.0
C2018 C 0.95819 0.58217 0.67775 0.0
C2019 C 0.92366 0.58681 0.65185 0.0
C2020 C 0.93053 0.58297 0.70972 0.0
O2021 O 0.92179 0.55652 0.67655 0.0
O2022 O 0.93385 0.54985 0.69867 0.0
C2023 C 0.95876 0.52881 0.69233 0.0
N2024 N 0.96495 0.54245 0.69643 0.0
C2025 C 0.98686 0.52607 0.70963 0.0
C2026 C 0.979 0.51327 0.70461 0.0
C2027 C 0.96569 0.51471 0.69582 0.0
C2028 C 0.97866 0.54293 0.70321 0.0
H2029 H 0.9481 0.52852 0.68638 0.0
C2030 C 0.92412 0.54731 0.6878 0.0
O2031 O 0.91619 0.58881 0.66439 0.0
O2032 O 0.935 0.57727 0.65246 0.0
N2033 N 0.97335 0.57105 0.70538 0.0
C2034 C 0.97549 0.58577 0.70983 0.0
C2035 C 0.9897 0.59124 0.71473 0.0
C2036 C 0.00229 0.58189 0.71773 0.0
C2037 C 1.00121 0.56551 0.71652 0.0
C2038 C 0.98464 0.56098 0.70635 0.0
H2039 H 0.96628 0.59389 0.70895 0.0
O2040 O 0.94879 0.59339 0.67532 0.0
O2041 O 0.95229 0.5692 0.68143 0.0
O2042 O 0.92382 0.58172 0.69704 0.0
O2043 O 0.94402 0.57852 0.71123 0.0
C2044 C 0.01437 0.53992 0.72684 0.0
C2045 C 0.0035 0.52423 0.72063 0.0
H2046 H 0.98322 0.50203 0.70707 0.0
H2047 H 0.96007 0.50438 0.69205 0.0
H2048 H 0.9908 0.60336 0.71685 0.0
H2049 H 0.01217 0.58801 0.7218 0.0
H2050 H 0.01334 0.54736 0.72584 0.0
H2051 H 0.0073 0.51314 0.72412 0.0
Mn2052 Mn 0.4248 0.93352 0.67717 0.0
Mn2053 Mn 0.44171 0.95462 0.70368 0.0
C2054 C 0.41925 0.95905 0.68012 0.0
C2055 C 0.41486 0.92476 0.65387 0.0
C2056 C 0.41941 0.93172 0.71144 0.0
O2057 O 0.44555 0.92304 0.67757 0.0
O2058 O 0.4519 0.93406 0.70023 0.0
C2059 C 0.47396 0.95819 0.69423 0.0
N2060 N 0.46061 0.96491 0.69837 0.0
C2061 C 0.47748 0.98621 0.7112 0.0
C2062 C 0.49005 0.97766 0.70666 0.0
C2063 C 0.48828 0.96438 0.69796 0.0
C2064 C 0.46068 0.97867 0.70516 0.0
H2065 H 0.47382 0.94773 0.68799 0.0
C2066 C 0.45462 0.92482 0.68898 0.0
O2067 O 0.41328 0.91719 0.66641 0.0
O2068 O 0.42415 0.93631 0.65431 0.0
N2069 N 0.43263 0.97449 0.70715 0.0
C2070 C 0.41818 0.97741 0.71204 0.0
C2071 C 0.41339 0.99213 0.71608 0.0
C2072 C 0.42339 0.00445 0.71753 0.0
C2073 C 0.43955 1.0022 0.71599 0.0
C2074 C 0.4433 0.98534 0.70745 0.0
H2075 H 0.4097 0.96851 0.71208 0.0
O2076 O 0.40832 0.94927 0.67796 0.0
O2077 O 0.43276 0.95368 0.68311 0.0
O2078 O 0.42101 0.92481 0.69889 0.0
O2079 O 0.42349 0.94536 0.71265 0.0
C2080 C 0.46532 0.01451 0.72563 0.0
C2081 C 0.48025 0.00294 0.72077 0.0
H2082 H 0.50141 0.98145 0.70928 0.0
H2083 H 0.49841 0.95834 0.69433 0.0
H2084 H 0.40144 0.99392 0.7186 0.0
H2085 H 0.41813 0.01501 0.72109 0.0
H2086 H 0.46784 0.02491 0.73206 0.0
H2087 H 0.4915 0.00641 0.7241 0.0
Mn2088 Mn 0.07362 0.42526 0.6763 0.0
Mn2089 Mn 0.05176 0.44346 0.70204 0.0
C2090 C 0.04756 0.42142 0.67791 0.0
C2091 C 0.08289 0.41584 0.65296 0.0
C2092 C 0.07403 0.4195 0.71075 0.0
O2093 O 0.08524 0.44559 0.6783 0.0
O2094 O 0.07147 0.45459 0.69854 0.0
C2095 C 0.04652 0.47498 0.69149 0.0
N2096 N 0.04039 0.46129 0.69553 0.0
C2097 C 0.01843 0.47753 0.70885 0.0
C2098 C 0.02613 0.49038 0.70375 0.0
C2099 C 0.03946 0.48904 0.69495 0.0
C2100 C 0.02675 0.46072 0.70246 0.0
H2101 H 0.05735 0.47532 0.68576 0.0
C2102 C 0.08225 0.45577 0.68854 0.0
O2103 O 0.08972 0.41328 0.66574 0.0
O2104 O 0.07204 0.42596 0.65327 0.0
N2105 N 0.03261 0.43284 0.70542 0.0
C2106 C 0.03082 0.41818 0.71014 0.0
C2107 C 0.01666 0.41244 0.71491 0.0
C2108 C 0.00384 0.4216 0.71762 0.0
C2109 C 0.00463 0.43798 0.7162 0.0
C2110 C 0.02105 0.44262 0.70587 0.0
H2111 H 0.04029 0.41033 0.70958 0.0
O2112 O 0.05655 0.40994 0.67518 0.0
O2113 O 0.05393 0.43411 0.68183 0.0
O2114 O 0.08066 0.41889 0.69796 0.0
O2115 O 0.06208 0.4271 0.71273 0.0
C2116 C 0.99125 0.46347 0.72643 0.0
C2117 C 1.00187 0.47925 0.72001 0.0
H2118 H 0.0218 0.5016 0.70627 0.0
H2119 H 0.04502 0.49941 0.69122 0.0
H2120 H 0.01579 0.40035 0.71723 0.0
H2121 H 0.99403 0.41536 0.72171 0.0
H2122 H 0.99237 0.45603 0.72547 0.0
H2123 H 0.99809 0.49029 0.72361 0.0
Mn2124 Mn 0.58189 0.07235 0.67607 0.0
Mn2125 Mn 0.56273 0.05123 0.70177 0.0
C2126 C 0.58482 0.04618 0.67779 0.0
C2127 C 0.59193 0.08125 0.65277 0.0
C2128 C 0.58727 0.07283 0.71057 0.0
O2129 O 0.56187 0.08453 0.67773 0.0
O2130 O 0.55214 0.07121 0.69796 0.0
C2131 C 0.53084 0.04668 0.69176 0.0
N2132 N 0.54449 0.04025 0.69549 0.0
C2133 C 0.52775 0.01828 0.70866 0.0
C2134 C 0.51504 0.02639 0.70386 0.0
C2135 C 0.51665 0.03986 0.6953 0.0
C2136 C 0.54486 0.02655 0.70231 0.0
H2137 H 0.5306 0.05761 0.68624 0.0
C2138 C 0.55141 0.08188 0.68778 0.0
O2139 O 0.59453 0.08801 0.66558 0.0
O2140 O 0.58149 0.07071 0.653 0.0
N2141 N 0.573 0.03189 0.70527 0.0
C2142 C 0.58763 0.02975 0.71009 0.0
C2143 C 0.59314 0.01545 0.71491 0.0
C2144 C 0.58383 0.00269 0.71741 0.0
C2145 C 0.5677 0.00382 0.71539 0.0
C2146 C 0.56306 0.02049 0.70545 0.0
H2147 H 0.59563 0.0391 0.70969 0.0
O2148 O 0.59663 0.05477 0.67522 0.0
O2149 O 0.57229 0.05297 0.68157 0.0
O2150 O 0.58826 0.07936 0.69776 0.0
O2151 O 0.57924 0.06117 0.7125 0.0
C2152 C 0.54166 0.99035 0.72563 0.0
C2153 C 0.52568 1.00132 0.71952 0.0
H2154 H 0.50375 0.02227 0.7065 0.0
H2155 H 0.50637 0.04574 0.69181 0.0
H2156 H 0.60517 0.01446 0.7175 0.0
H2157 H 0.58954 0.99269 0.7218 0.0
H2158 H 0.53966 0.9803 0.73273 0.0
H2159 H 0.51461 0.99772 0.72319 0.0
Mn2160 Mn 0.93501 0.4256 0.32997 0.0
Mn2161 Mn 0.95551 0.44428 0.30364 0.0
C2162 C 0.9606 0.42059 0.32636 0.0
C2163 C 0.92664 0.41537 0.35334 0.0
C2164 C 0.93279 0.42079 0.29563 0.0
O2165 O 0.92419 0.44624 0.33005 0.0
O2166 O 0.93561 0.45507 0.30843 0.0
C2167 C 0.96068 0.47591 0.31387 0.0
N2168 N 0.96684 0.4624 0.30934 0.0
C2169 C 0.98752 0.4788 0.29491 0.0
C2170 C 0.97967 0.49157 0.3001 0.0
C2171 C 0.96698 0.49009 0.30972 0.0
C2172 C 0.98004 0.46216 0.30148 0.0
H2173 H 0.9505 0.47599 0.32063 0.0
C2174 C 0.92634 0.45661 0.31985 0.0
O2175 O 0.91904 0.41373 0.34085 0.0
O2176 O 0.93802 0.42488 0.35285 0.0
N2177 N 0.97474 0.43443 0.29902 0.0
C2178 C 0.97678 0.41998 0.29368 0.0
C2179 C 0.99105 0.4147 0.28873 0.0
C2180 C 0.00362 0.42428 0.28669 0.0
C2181 C 1.00204 0.44048 0.28863 0.0
C2182 C 0.98601 0.44462 0.29849 0.0
H2183 H 0.96751 0.41189 0.29398 0.0
O2184 O 0.95108 0.4095 0.32888 0.0
O2185 O 0.95489 0.43404 0.32375 0.0
O2186 O 0.92626 0.42087 0.30847 0.0
O2187 O 0.9452 0.42754 0.29349 0.0
C2188 C 0.01425 0.46596 0.2782 0.0
C2189 C 0.00352 0.48115 0.28404 0.0
H2190 H 0.98358 0.50285 0.29719 0.0
H2191 H 0.96141 0.50036 0.3137 0.0
H2192 H 0.99222 0.40275 0.28589 0.0
H2193 H 0.01374 0.41874 0.28234 0.0
H2194 H 0.02415 0.46825 0.27096 0.0
H2195 H 0.00706 0.49225 0.2804 0.0
Mn2196 Mn 0.58057 0.93193 0.32684 0.0
Mn2197 Mn 0.56391 0.95261 0.29987 0.0
C2198 C 0.58626 0.95737 0.32338 0.0
C2199 C 0.59056 0.92356 0.35029 0.0
C2200 C 0.58581 0.92929 0.29271 0.0
O2201 O 0.55976 0.92167 0.32679 0.0
O2202 O 0.55347 0.93224 0.30387 0.0
C2203 C 0.53118 0.95663 0.30825 0.0
N2204 N 0.54481 0.96314 0.30461 0.0
C2205 C 0.52788 0.9849 0.29125 0.0
C2206 C 0.51524 0.97651 0.29569 0.0
C2207 C 0.51694 0.96312 0.30432 0.0
C2208 C 0.54504 0.97682 0.2978 0.0
H2209 H 0.53094 0.94603 0.31424 0.0
C2210 C 0.55069 0.92327 0.31534 0.0
O2211 O 0.59206 0.91575 0.33789 0.0
O2212 O 0.58144 0.93523 0.34963 0.0
N2213 N 0.57348 0.97228 0.29591 0.0
C2214 C 0.58802 0.97483 0.29096 0.0
C2215 C 0.59326 0.98933 0.2865 0.0
C2216 C 0.58378 1.00202 0.28453 0.0
C2217 C 0.56764 1.00044 0.28613 0.0
C2218 C 0.56315 0.98336 0.29537 0.0
H2219 H 0.59633 0.96577 0.29119 0.0
O2220 O 0.59714 0.94753 0.32557 0.0
O2221 O 0.57269 0.95208 0.32053 0.0
O2222 O 0.58399 0.92256 0.3053 0.0
O2223 O 0.58221 0.94304 0.29149 0.0
C2224 C 0.54158 0.01374 0.27566 0.0
C2225 C 0.52568 1.00221 0.28095 0.0
H2226 H 0.50393 0.98043 0.29289 0.0
H2227 H 0.50671 0.95712 0.30774 0.0
H2228 H 0.60528 0.99062 0.28399 0.0
H2229 H 0.58938 0.01228 0.28064 0.0
H2230 H 0.53955 0.02403 0.26892 0.0
H2231 H 0.51452 0.00582 0.2774 0.0
Mn2232 Mn 0.07498 0.58055 0.32844 0.0
Mn2233 Mn 0.05493 0.56013 0.30269 0.0
C2234 C 0.04889 0.5833 0.32579 0.0
C2235 C 0.08343 0.59064 0.35182 0.0
C2236 C 0.07717 0.58445 0.29381 0.0
O2237 O 0.08735 0.5606 0.32747 0.0
O2238 O 0.07401 0.54878 0.30839 0.0
C2239 C 0.04796 0.52908 0.31351 0.0
N2240 N 0.04252 0.54294 0.30905 0.0
C2241 C 0.02033 0.52729 0.29525 0.0
C2242 C 0.02733 0.51424 0.30087 0.0
C2243 C 0.04045 0.51524 0.31004 0.0
C2244 C 0.02927 0.54388 0.30141 0.0
H2245 H 0.05866 0.52837 0.31952 0.0
C2246 C 0.0846 0.54909 0.31867 0.0
O2247 O 0.09037 0.59325 0.33913 0.0
O2248 O 0.07285 0.58024 0.35145 0.0
N2249 N 0.03646 0.57128 0.29766 0.0
C2250 C 0.0354 0.58592 0.29266 0.0
C2251 C 0.02157 0.59218 0.28759 0.0
C2252 C 0.00834 0.58358 0.28501 0.0
C2253 C 0.00835 0.56721 0.28683 0.0
C2254 C 0.02444 0.56208 0.29742 0.0
H2255 H 0.04521 0.59333 0.29327 0.0
O2256 O 0.05732 0.59515 0.32867 0.0
O2257 O 0.05589 0.57072 0.32251 0.0
O2258 O 0.08228 0.58718 0.30699 0.0
O2259 O 0.06655 0.57517 0.29155 0.0
C2260 C 0.99399 0.54212 0.277 0.0
C2261 C 0.00382 0.52604 0.28392 0.0
H2262 H 0.02259 0.50316 0.29846 0.0
H2263 H 0.04547 0.50473 0.31412 0.0
H2264 H 0.02127 0.60425 0.28502 0.0
H2265 H 0.99886 0.59017 0.28071 0.0
H2266 H 0.99542 0.54953 0.27779 0.0
H2267 H 0.99932 0.51513 0.28083 0.0
Mn2268 Mn 0.42505 0.07094 0.3272 0.0
Mn2269 Mn 0.44142 0.04984 0.30026 0.0
C2270 C 0.41918 0.04557 0.32403 0.0
C2271 C 0.41589 0.07944 0.35099 0.0
C2272 C 0.4191 0.07297 0.29307 0.0
O2273 O 0.44588 0.08113 0.32659 0.0
O2274 O 0.45181 0.0703 0.30372 0.0
C2275 C 0.47418 0.04608 0.30861 0.0
N2276 N 0.46056 0.03944 0.30514 0.0
C2277 C 0.47753 0.01778 0.29167 0.0
C2278 C 0.49013 0.02632 0.29588 0.0
C2279 C 0.48842 0.0397 0.30452 0.0
C2280 C 0.46038 0.02569 0.29848 0.0
H2281 H 0.47438 0.05667 0.31461 0.0
C2282 C 0.45473 0.07944 0.31501 0.0
O2283 O 0.41415 0.08736 0.33868 0.0
O2284 O 0.4247 0.06758 0.34991 0.0
N2285 N 0.4319 0.03003 0.29679 0.0
C2286 C 0.41734 0.02734 0.29201 0.0
C2287 C 0.41214 0.01276 0.28775 0.0
C2288 C 0.4217 1.00013 0.28573 0.0
C2289 C 0.43784 1.00184 0.28713 0.0
C2290 C 0.44229 0.01898 0.29631 0.0
H2291 H 0.409 0.03639 0.2922 0.0
O2292 O 0.40837 0.05544 0.32646 0.0
O2293 O 0.43271 0.05079 0.32091 0.0
O2294 O 0.42098 0.0799 0.30558 0.0
O2295 O 0.4231 0.0593 0.29177 0.0
C2296 C 0.46388 0.98881 0.27626 0.0
C2297 C 0.47974 1.0005 0.28132 0.0
H2298 H 0.50145 0.02251 0.29291 0.0
H2299 H 0.49864 0.04581 0.3078 0.0
H2300 H 0.40011 0.01137 0.28537 0.0
H2301 H 0.41615 0.98981 0.28192 0.0
H2302 H 0.46592 0.97856 0.26947 0.0
H2303 H 0.49087 0.99704 0.27755 0.0
Mn2304 Mn 0.67496 0.93057 0.57881 0.0
Mn2305 Mn 0.7028 0.95078 0.56333 0.0
C2306 C 0.67845 0.95598 0.58457 0.0
C2307 C 0.65137 0.92239 0.58854 0.0
C2308 C 0.70873 0.92737 0.58512 0.0
O2309 O 0.67528 0.92053 0.55794 0.0
O2310 O 0.69875 0.93043 0.55271 0.0
C2311 C 0.69619 0.95491 0.53047 0.0
N2312 N 0.69951 0.96142 0.54415 0.0
C2313 C 0.71497 0.98188 0.52844 0.0
C2314 C 0.71165 0.97316 0.51563 0.0
C2315 C 0.70196 0.96051 0.51659 0.0
C2316 C 0.70718 0.97471 0.54468 0.0
H2317 H 0.68919 0.94498 0.53002 0.0
C2318 C 0.68703 0.922 0.54925 0.0
O2319 O 0.66365 0.9144 0.58997 0.0
O2320 O 0.65217 0.93409 0.57945 0.0
N2321 N 0.70676 0.97038 0.57277 0.0
C2322 C 0.71071 0.973 0.58758 0.0
C2323 C 0.71524 0.98743 0.59275 0.0
C2324 C 0.71822 0.99962 0.58296 0.0
C2325 C 0.7178 0.99747 0.56673 0.0
C2326 C 0.70857 0.98119 0.56222 0.0
H2327 H 0.70957 0.96413 0.59602 0.0
O2328 O 0.67609 0.94613 0.59543 0.0
O2329 O 0.68171 0.9507 0.57109 0.0
O2330 O 0.69625 0.92074 0.58255 0.0
O2331 O 0.70992 0.94124 0.58215 0.0
C2332 C 0.73002 0.0093 0.54183 0.0
C2333 C 0.72565 0.99805 0.52649 0.0
H2334 H 0.71636 0.97613 0.50467 0.0
H2335 H 0.69921 0.95441 0.50621 0.0
H2336 H 0.71693 0.98905 0.60487 0.0
H2337 H 0.72199 0.00993 0.58855 0.0
H2338 H 0.73723 0.01929 0.53988 0.0
H2339 H 0.73026 1.00113 0.51552 0.0
Mn2340 Mn 0.67492 0.07453 0.42516 0.0
Mn2341 Mn 0.69953 0.05341 0.44587 0.0
C2342 C 0.67695 0.04843 0.42211 0.0
C2343 C 0.65193 0.08356 0.41474 0.0
C2344 C 0.70967 0.07513 0.42166 0.0
O2345 O 0.67581 0.08674 0.44519 0.0
O2346 O 0.69484 0.07305 0.4566 0.0
C2347 C 0.68699 0.04806 0.47671 0.0
N2348 N 0.69183 0.04194 0.46325 0.0
C2349 C 0.70353 0.01961 0.48048 0.0
C2350 C 0.69784 0.02744 0.49296 0.0
C2351 C 0.68945 0.04096 0.49099 0.0
C2352 C 0.6986 0.02823 0.4631 0.0
H2353 H 0.68145 0.05899 0.47675 0.0
C2354 C 0.68481 0.08386 0.4565 0.0
O2355 O 0.66482 0.09024 0.41232 0.0
O2356 O 0.65191 0.07295 0.4251 0.0
N2357 N 0.70396 0.03433 0.43546 0.0
C2358 C 0.70992 0.03258 0.42122 0.0
C2359 C 0.71535 0.01845 0.4158 0.0
C2360 C 0.7173 0.00552 0.42502 0.0
C2361 C 0.71393 0.00624 0.44095 0.0
C2362 C 0.7034 0.02267 0.44511 0.0
H2363 H 0.71004 0.04211 0.41343 0.0
O2364 O 0.67455 0.05709 0.41031 0.0
O2365 O 0.68007 0.05517 0.43486 0.0
O2366 O 0.6968 0.08117 0.41927 0.0
O2367 O 0.71137 0.06402 0.43052 0.0
C2368 C 0.72204 0.99221 0.46749 0.0
C2369 C 0.7143 0.00273 0.48312 0.0
H2370 H 0.69986 0.0231 0.50433 0.0
H2371 H 0.68524 0.04666 0.5011 0.0
H2372 H 0.71889 0.01776 0.40399 0.0
H2373 H 0.72232 0.99572 0.41948 0.0
H2374 H 0.72899 0.98214 0.46986 0.0
H2375 H 0.71639 0.99894 0.49451 0.0
Mn2376 Mn 0.93021 0.67572 0.42335 0.0
Mn2377 Mn 0.95065 0.70303 0.43963 0.0
C2378 C 0.95611 0.67861 0.41895 0.0
C2379 C 0.92213 0.65225 0.41305 0.0
C2380 C 0.92714 0.70987 0.41794 0.0
O2381 O 0.91961 0.67621 0.44407 0.0
O2382 O 0.93051 0.69903 0.45049 0.0
C2383 C 0.95548 0.69495 0.47227 0.0
N2384 N 0.96163 0.69859 0.45848 0.0
C2385 C 0.98387 0.71198 0.47469 0.0
C2386 C 0.97588 0.70742 0.48756 0.0
C2387 C 0.96244 0.6988 0.48628 0.0
C2388 C 0.9753 0.70541 0.4578 0.0
H2389 H 0.9448 0.68909 0.4728 0.0
C2390 C 0.92144 0.6876 0.45323 0.0
O2391 O 0.91435 0.66465 0.41146 0.0
O2392 O 0.93342 0.65285 0.42266 0.0
N2393 N 0.97003 0.70675 0.42943 0.0
C2394 C 0.97229 0.71082 0.41457 0.0
C2395 C 0.9865 0.71578 0.40898 0.0
C2396 C 0.99911 0.719 0.41824 0.0
C2397 C 0.99795 0.71763 0.43443 0.0
C2398 C 0.98124 0.70797 0.43949 0.0
H2399 H 0.96318 0.70964 0.40638 0.0
O2400 O 0.94692 0.67642 0.4075 0.0
O2401 O 0.94995 0.68215 0.43184 0.0
O2402 O 0.92066 0.69716 0.41962 0.0
O2403 O 0.94089 0.71116 0.42137 0.0
C2404 C 0.01186 0.72828 0.46009 0.0
C2405 C 1.00104 0.72262 0.47634 0.0
H2406 H 0.98002 0.71021 0.49876 0.0
H2407 H 0.95675 0.69539 0.4967 0.0
H2408 H 0.98756 0.71777 0.39684 0.0
H2409 H 0.00906 0.72328 0.41237 0.0
H2410 H 0.02212 0.73515 0.46182 0.0
H2411 H 0.00517 0.72603 0.48735 0.0
Mn2412 Mn 0.32882 0.93132 0.42626 0.0
Mn2413 Mn 0.30267 0.95197 0.44529 0.0
C2414 C 0.3252 0.95682 0.42119 0.0
C2415 C 0.35238 0.92307 0.41653 0.0
C2416 C 0.29434 0.9291 0.42178 0.0
O2417 O 0.32873 0.9204 0.44681 0.0
O2418 O 0.3077 0.93234 0.45637 0.0
C2419 C 0.31306 0.95764 0.47687 0.0
N2420 N 0.30875 0.96359 0.46317 0.0
C2421 C 0.29439 0.98487 0.47961 0.0
C2422 C 0.29959 0.97718 0.49242 0.0
C2423 C 0.30902 0.9643 0.49098 0.0
C2424 C 0.30108 0.97684 0.46273 0.0
H2425 H 0.31955 0.94728 0.4772 0.0
C2426 C 0.31894 0.9228 0.45749 0.0
O2427 O 0.33995 0.91545 0.41449 0.0
O2428 O 0.35165 0.93439 0.42608 0.0
N2429 N 0.29791 0.97103 0.43494 0.0
C2430 C 0.29245 0.97271 0.42051 0.0
C2431 C 0.28777 0.9869 0.41477 0.0
C2432 C 0.28587 0.99993 0.4238 0.0
C2433 C 0.28743 0.99913 0.44016 0.0
C2434 C 0.29771 0.98266 0.4447 0.0
H2435 H 0.29257 0.96317 0.41273 0.0
O2436 O 0.32794 0.94731 0.41016 0.0
O2437 O 0.32258 0.95115 0.43467 0.0
O2438 O 0.30732 0.92285 0.42106 0.0
O2439 O 0.29214 0.94118 0.42913 0.0
C2440 C 0.27692 0.0122 0.46564 0.0
C2441 C 0.28316 1.00143 0.48137 0.0
H2442 H 0.29677 0.98127 0.50367 0.0
H2443 H 0.31295 0.95881 0.50132 0.0
H2444 H 0.28505 0.98767 0.40275 0.0
H2445 H 0.28196 0.00983 0.41758 0.0
H2446 H 0.27798 0.01113 0.4582 0.0
H2447 H 0.2796 0.00535 0.49233 0.0
Mn2448 Mn 0.07344 0.33065 0.42508 0.0
Mn2449 Mn 0.05308 0.30307 0.44092 0.0
C2450 C 0.04808 0.32703 0.41925 0.0
C2451 C 0.08147 0.35421 0.41514 0.0
C2452 C 0.07666 0.29673 0.41949 0.0
O2453 O 0.08359 0.33043 0.44592 0.0
O2454 O 0.07336 0.30716 0.45153 0.0
C2455 C 0.04896 0.31035 0.47388 0.0
N2456 N 0.04248 0.30697 0.46016 0.0
C2457 C 0.0212 0.29244 0.47672 0.0
C2458 C 0.02951 0.29673 0.48946 0.0
C2459 C 0.04263 0.3058 0.488 0.0
C2460 C 0.02897 0.29983 0.45975 0.0
H2461 H 0.05943 0.3166 0.47428 0.0
C2462 C 0.0822 0.31866 0.45461 0.0
O2463 O 0.08954 0.34195 0.41379 0.0
O2464 O 0.06982 0.35339 0.4243 0.0
N2465 N 0.03348 0.29899 0.43124 0.0
C2466 C 0.03104 0.29441 0.41655 0.0
C2467 C 0.01669 0.28962 0.4112 0.0
C2468 C 0.00415 0.28685 0.42065 0.0
C2469 C 0.00574 0.28797 0.43682 0.0
C2470 C 0.02246 0.29773 0.44158 0.0
H2471 H 0.04005 0.2952 0.40822 0.0
O2472 O 0.05794 0.32933 0.40841 0.0
O2473 O 0.05331 0.32399 0.4328 0.0
O2474 O 0.08325 0.30931 0.42168 0.0
O2475 O 0.06273 0.29568 0.42226 0.0
C2476 C 0.99295 0.27616 0.46256 0.0
C2477 C 0.00429 0.2814 0.4786 0.0
H2478 H 0.02577 0.29343 0.50069 0.0
H2479 H 0.04857 0.30906 0.49832 0.0
H2480 H 0.01544 0.28746 0.39911 0.0
H2481 H 0.99402 0.28275 0.41496 0.0
H2482 H 0.98293 0.26898 0.4644 0.0
H2483 H 1.00075 0.2774 0.48961 0.0
Mn2484 Mn 0.32782 0.07428 0.57922 0.0
Mn2485 Mn 0.30141 0.05428 0.55978 0.0
C2486 C 0.32358 0.04884 0.58434 0.0
C2487 C 0.3516 0.08206 0.58894 0.0
C2488 C 0.29329 0.07756 0.58314 0.0
O2489 O 0.32804 0.08524 0.5586 0.0
O2490 O 0.30733 0.07337 0.54827 0.0
C2491 C 0.31172 0.04735 0.52842 0.0
N2492 N 0.30734 0.04195 0.54233 0.0
C2493 C 0.29368 0.01959 0.52673 0.0
C2494 C 0.29905 0.02669 0.51364 0.0
C2495 C 0.30811 0.03987 0.5146 0.0
C2496 C 0.2997 0.02874 0.54328 0.0
H2497 H 0.31787 0.05791 0.52764 0.0
C2498 C 0.31861 0.08288 0.54758 0.0
O2499 O 0.33931 0.08991 0.59102 0.0
O2500 O 0.35061 0.07075 0.5794 0.0
N2501 N 0.29597 0.03578 0.5707 0.0
C2502 C 0.2903 0.0347 0.5851 0.0
C2503 C 0.2858 0.02071 0.59143 0.0
C2504 C 0.28462 0.00716 0.58307 0.0
C2505 C 0.28652 0.00713 0.56672 0.0
C2506 C 0.29618 0.02373 0.5615 0.0
H2507 H 0.29016 0.04457 0.59244 0.0
O2508 O 0.32657 0.05834 0.59532 0.0
O2509 O 0.32118 0.05455 0.57081 0.0
O2510 O 0.30651 0.08318 0.58458 0.0
O2511 O 0.29083 0.06591 0.57523 0.0
C2512 C 0.27707 0.99231 0.54178 0.0
C2513 C 0.28318 0.00251 0.52562 0.0
H2514 H 0.2967 0.0219 0.50258 0.0
H2515 H 0.31213 0.04491 0.50406 0.0
H2516 H 0.28284 0.02046 0.60342 0.0
H2517 H 0.28101 0.99746 0.58976 0.0
H2518 H 0.27792 0.9938 0.54918 0.0
H2519 H 0.28022 0.99776 0.51482 0.0
Mn2520 Mn 0.93514 0.32602 0.57985 0.0
Mn2521 Mn 0.95709 0.30004 0.56263 0.0
C2522 C 0.96082 0.32387 0.58517 0.0
C2523 C 0.92567 0.34921 0.58944 0.0
C2524 C 0.93488 0.29194 0.5862 0.0
O2525 O 0.92433 0.32475 0.55924 0.0
O2526 O 0.93663 0.30292 0.55231 0.0
C2527 C 0.96053 0.30924 0.53018 0.0
N2528 N 0.96735 0.30569 0.54369 0.0
C2529 C 0.98875 0.29221 0.52641 0.0
C2530 C 0.98012 0.29659 0.51391 0.0
C2531 C 0.96677 0.30527 0.51583 0.0
C2532 C 0.98111 0.29901 0.54368 0.0
H2533 H 0.94984 0.31512 0.53018 0.0
C2534 C 0.92667 0.3136 0.54997 0.0
O2535 O 0.9186 0.33644 0.59137 0.0
O2536 O 0.93706 0.34901 0.57993 0.0
N2537 N 0.97692 0.29691 0.57216 0.0
C2538 C 0.97962 0.29192 0.58665 0.0
C2539 C 0.99416 0.2874 0.59173 0.0
C2540 C 0.00667 0.28522 0.58206 0.0
C2541 C 0.00487 0.28685 0.56594 0.0
C2542 C 0.98791 0.29648 0.56171 0.0
H2543 H 0.97059 0.2921 0.59501 0.0
O2544 O 0.9511 0.3262 0.59611 0.0
O2545 O 0.9554 0.32054 0.57176 0.0
O2546 O 0.92743 0.3042 0.58487 0.0
O2547 O 0.9479 0.29052 0.58046 0.0
C2548 C 0.01747 0.27601 0.5397 0.0
C2549 C 0.0058 0.28151 0.52397 0.0
H2550 H 0.98378 0.29363 0.50254 0.0
H2551 H 0.96054 0.3086 0.5057 0.0
H2552 H 0.99558 0.28486 0.60372 0.0
H2553 H 0.01695 0.2811 0.58748 0.0
H2554 H 0.02756 0.26901 0.5375 0.0
H2555 H 0.00911 0.27771 0.51283 0.0
Mn2556 Mn 0.07135 0.67679 0.5794 0.0
Mn2557 Mn 0.0503 0.70202 0.55957 0.0
C2558 C 0.04567 0.67974 0.58392 0.0
C2559 C 0.08024 0.6537 0.5897 0.0
C2560 C 0.07236 0.71134 0.58346 0.0
O2561 O 0.08262 0.6768 0.55907 0.0
O2562 O 0.0704 0.69748 0.54911 0.0
C2563 C 0.04582 0.69125 0.52788 0.0
N2564 N 0.03936 0.69543 0.54139 0.0
C2565 C 0.01811 0.70896 0.52423 0.0
C2566 C 0.02634 0.70404 0.51166 0.0
C2567 C 0.03947 0.69504 0.51354 0.0
C2568 C 0.02585 0.70264 0.54139 0.0
H2569 H 0.05635 0.68507 0.52788 0.0
C2570 C 0.08018 0.68642 0.54826 0.0
O2571 O 0.08738 0.66643 0.59163 0.0
O2572 O 0.06902 0.65387 0.58 0.0
N2573 N 0.03081 0.70629 0.56929 0.0
C2574 C 0.02858 0.7119 0.58359 0.0
C2575 C 0.01413 0.71622 0.5889 0.0
C2576 C 1.0013 0.71759 0.5795 0.0
C2577 C 0.0026 0.71589 0.56319 0.0
C2578 C 0.01945 0.70603 0.55921 0.0
H2579 H 0.0379 0.71216 0.59163 0.0
O2580 O 0.05505 0.6775 0.59518 0.0
O2581 O 0.0515 0.68228 0.57049 0.0
O2582 O 0.07912 0.69862 0.58424 0.0
O2583 O 0.06028 0.71304 0.57598 0.0
C2584 C 0.98993 0.7258 0.53722 0.0
C2585 C 1.00136 0.71969 0.52185 0.0
H2586 H 0.02246 0.70684 0.5003 0.0
H2587 H 0.04541 0.69128 0.50339 0.0
H2588 H 0.01295 0.71906 0.60086 0.0
H2589 H 0.99112 0.72125 0.58542 0.0
H2590 H 0.99079 0.72486 0.5447 0.0
H2591 H 0.99799 0.72311 0.51065 0.0
Mn2592 Mn 0.42846 0.32444 0.07447 0.0
Mn2593 Mn 0.4477 0.29703 0.05515 0.0
C2594 C 0.43449 0.32742 0.04908 0.0
C2595 C 0.40761 0.33982 0.08175 0.0
C2596 C 0.46277 0.31764 0.07776 0.0
O2597 O 0.42266 0.30547 0.08669 0.0
O2598 O 0.43918 0.28919 0.07502 0.0
C2599 C 0.42701 0.27068 0.05019 0.0
N2600 N 0.43561 0.282 0.04393 0.0
C2601 C 0.43843 0.26299 0.02023 0.0
C2602 C 0.42939 0.25287 0.02825 0.0
C2603 C 0.42369 0.25681 0.04266 0.0
C2604 C 0.44137 0.28013 0.02991 0.0
H2605 H 0.42288 0.27189 0.06152 0.0
C2606 C 0.42909 0.2924 0.08527 0.0
O2607 O 0.42009 0.3394 0.08961 0.0
O2608 O 0.40663 0.33035 0.07043 0.0
N2609 N 0.4559 0.30427 0.03582 0.0
C2610 C 0.46631 0.31554 0.03367 0.0
C2611 C 0.47209 0.31918 0.01917 0.0
C2612 C 0.46924 0.31063 0.00596 0.0
C2613 C 0.46078 0.29651 0.00651 0.0
C2614 C 0.45171 0.29532 0.02425 0.0
H2615 H 0.46978 0.3226 0.04314 0.0
O2616 O 0.4343 0.33903 0.05827 0.0
O2617 O 0.43257 0.3139 0.05503 0.0
O2618 O 0.45059 0.32345 0.08305 0.0
O2619 O 0.46281 0.30915 0.06612 0.0
C2620 C 0.45646 0.27049 0.99084 0.0
C2621 C 0.44512 0.25815 1.002 0.0
H2622 H 0.42659 0.2419 0.02336 0.0
H2623 H 0.41677 0.24849 0.04855 0.0
H2624 H 0.47942 0.32906 0.01823 0.0
H2625 H 0.47469 0.31517 0.99589 0.0
H2626 H 0.45914 0.2774 0.99224 0.0
H2627 H 0.44218 0.24712 0.99735 0.0
Mn2628 Mn 0.68179 0.42892 0.07566 0.0
Mn2629 Mn 0.70955 0.44501 0.05428 0.0
C2630 C 0.67989 0.4302 0.04934 0.0
C2631 C 0.66681 0.40899 0.08549 0.0
C2632 C 0.68958 0.46301 0.07593 0.0
O2633 O 0.7008 0.42573 0.08912 0.0
O2634 O 0.71858 0.43671 0.07348 0.0
C2635 C 0.73504 0.42438 0.04735 0.0
N2636 N 0.72313 0.43272 0.04189 0.0
C2637 C 0.74029 0.43778 0.01779 0.0
C2638 C 0.75138 0.42893 0.02483 0.0
C2639 C 0.74861 0.42215 0.03904 0.0
C2640 C 0.72394 0.43904 0.02792 0.0
H2641 H 0.73453 0.41978 0.05864 0.0
C2642 C 0.71461 0.42937 0.08563 0.0
O2643 O 0.66631 0.42261 0.09114 0.0
O2644 O 0.67714 0.40647 0.07519 0.0
N2645 N 0.7003 0.45248 0.03573 0.0
C2646 C 0.68804 0.46184 0.03449 0.0
C2647 C 0.68307 0.46722 0.02032 0.0
C2648 C 0.69129 0.46507 0.00678 0.0
C2649 C 0.70608 0.45764 0.00668 0.0
C2650 C 0.70835 0.44835 0.02351 0.0
H2651 H 0.68145 0.46472 0.04447 0.0
O2652 O 0.66777 0.43116 0.05779 0.0
O2653 O 0.69292 0.4301 0.05636 0.0
O2654 O 0.68132 0.45215 0.08076 0.0
O2655 O 0.69966 0.46096 0.06594 0.0
C2656 C 0.73086 0.45587 0.99064 0.0
C2657 C 0.74396 0.44534 1.00035 0.0
H2658 H 0.76224 0.42708 0.01925 0.0
H2659 H 0.75759 0.4154 0.04416 0.0
H2660 H 0.67259 0.47373 0.01989 0.0
H2661 H 0.68592 0.47029 0.997 0.0
H2662 H 0.7236 0.45777 0.99289 0.0
H2663 H 0.75497 0.4434 0.99516 0.0
Mn2664 Mn 0.57935 0.68169 0.07054 0.0
Mn2665 Mn 0.56059 0.70845 0.04988 0.0
C2666 C 0.57594 0.67915 0.04459 0.0
C2667 C 0.6004 0.6672 0.07893 0.0
C2668 C 0.545 0.68828 0.07304 0.0
O2669 O 0.58354 0.70118 0.08286 0.0
O2670 O 0.56976 0.71809 0.06851 0.0
C2671 C 0.57958 0.73478 0.04147 0.0
N2672 N 0.57159 0.72239 0.0366 0.0
C2673 C 0.56515 0.7387 0.01222 0.0
C2674 C 0.57387 0.75025 0.01861 0.0
C2675 C 0.58111 0.74815 0.03269 0.0
C2676 C 0.56472 0.72261 0.02285 0.0
H2677 H 0.58437 0.7349 0.05266 0.0
C2678 C 0.57888 0.71476 0.07963 0.0
O2679 O 0.58735 0.66668 0.08579 0.0
O2680 O 0.60178 0.67728 0.06818 0.0
N2681 N 0.55243 0.69872 0.03181 0.0
C2682 C 0.54354 0.68608 0.0312 0.0
C2683 C 0.53766 0.68067 0.01739 0.0
C2684 C 0.5388 0.68872 0.00362 0.0
C2685 C 0.54574 0.70372 0.00286 0.0
C2686 C 0.55567 0.70667 0.01924 0.0
H2687 H 0.54141 0.67954 0.04142 0.0
O2688 O 0.57579 0.66721 0.05336 0.0
O2689 O 0.57625 0.69237 0.05122 0.0
O2690 O 0.55666 0.68104 0.07765 0.0
O2691 O 0.54576 0.69796 0.06247 0.0
C2692 C 0.54623 0.72808 0.9861 0.0
C2693 C 0.5568 0.74169 0.99502 0.0
H2694 H 0.57517 0.76099 0.01266 0.0
H2695 H 0.58765 0.75752 0.03737 0.0
H2696 H 0.53154 0.66995 0.01746 0.0
H2697 H 0.53327 0.68299 0.99422 0.0
H2698 H 0.54461 0.72084 0.98862 0.0
H2699 H 0.55821 0.75261 0.98947 0.0
Mn2700 Mn 0.32419 0.57805 0.07188 0.0
Mn2701 Mn 0.29647 0.55947 0.05224 0.0
C2702 C 0.32706 0.57269 0.04623 0.0
C2703 C 0.33948 0.59884 0.07948 0.0
C2704 C 0.31685 0.54386 0.07496 0.0
O2705 O 0.30521 0.58338 0.08449 0.0
O2706 O 0.28812 0.56877 0.07145 0.0
C2707 C 0.27053 0.57984 0.04567 0.0
N2708 N 0.28204 0.57107 0.04006 0.0
C2709 C 0.26395 0.56598 0.01664 0.0
C2710 C 0.25329 0.57518 0.02386 0.0
C2711 C 0.25669 0.58214 0.03782 0.0
C2712 C 0.28052 0.56429 0.02639 0.0
H2713 H 0.27157 0.58482 0.0567 0.0
C2714 C 0.29171 0.57812 0.08225 0.0
O2715 O 0.33947 0.58606 0.08685 0.0
O2716 O 0.32955 0.60016 0.06858 0.0
N2717 N 0.30436 0.55077 0.03356 0.0
C2718 C 0.31573 0.54035 0.03218 0.0
C2719 C 0.31995 0.53443 0.01797 0.0
C2720 C 0.31187 0.53734 0.0045 0.0
C2721 C 0.29744 0.54543 0.00465 0.0
C2722 C 0.2958 0.55468 0.0216 0.0
H2723 H 0.32243 0.53714 0.04199 0.0
O2724 O 0.33869 0.57288 0.05537 0.0
O2725 O 0.31355 0.5744 0.05231 0.0
O2726 O 0.32377 0.55563 0.07982 0.0
O2727 O 0.30752 0.54441 0.06406 0.0
C2728 C 0.2724 0.54796 0.98916 0.0
C2729 C 0.25975 0.55866 0.99924 0.0
H2730 H 0.24234 0.57725 0.01856 0.0
H2731 H 0.24806 0.58923 0.04308 0.0
H2732 H 0.32993 0.52719 0.01741 0.0
H2733 H 0.3169 0.53199 0.99461 0.0
H2734 H 0.27966 0.54587 0.99127 0.0
H2735 H 0.24869 0.56092 0.99428 0.0
Mn2736 Mn 0.424 0.67757 0.93245 0.0
Mn2737 Mn 0.44309 0.70463 0.95244 0.0
C2738 C 0.4292 0.67439 0.9581 0.0
C2739 C 0.40304 0.66259 0.92478 0.0
C2740 C 0.4583 0.68433 0.92944 0.0
O2741 O 0.41911 0.69674 0.91994 0.0
O2742 O 0.43417 0.71327 0.9332 0.0
C2743 C 0.42304 0.7308 0.95904 0.0
N2744 N 0.4317 0.7192 0.96464 0.0
C2745 C 0.43766 0.73749 0.98769 0.0
C2746 C 0.42857 0.74826 0.98048 0.0
C2747 C 0.42119 0.7448 0.96673 0.0
C2748 C 0.43863 0.7207 0.97823 0.0
H2749 H 0.41776 0.72963 0.94815 0.0
C2750 C 0.42486 0.71003 0.92227 0.0
O2751 O 0.41579 0.6625 0.91736 0.0
O2752 O 0.40184 0.67251 0.9357 0.0
N2753 N 0.45149 0.69648 0.97112 0.0
C2754 C 0.46159 0.68483 0.97246 0.0
C2755 C 0.46759 0.68058 0.98661 0.0
C2756 C 0.46524 0.68899 0.99998 0.0
C2757 C 0.45763 0.70368 0.99974 0.0
C2758 C 0.44795 0.70526 0.98306 0.0
H2759 H 0.46446 0.67795 0.96267 0.0
O2760 O 0.4289 0.66284 0.94887 0.0
O2761 O 0.42778 0.68796 0.9521 0.0
O2762 O 0.44635 0.67785 0.92443 0.0
O2763 O 0.45802 0.69329 0.94066 0.0
C2764 C 0.45627 0.72909 0.01482 0.0
C2765 C 0.4456 0.74183 0.0048 0.0
H2766 H 0.4269 0.75935 0.98562 0.0
H2767 H 0.41417 0.75349 0.96152 0.0
H2768 H 0.47452 0.67037 0.98719 0.0
H2769 H 0.47066 0.68395 0.00983 0.0
H2770 H 0.4581 0.72175 0.01282 0.0
H2771 H 0.44378 0.75305 0.00959 0.0
Mn2772 Mn 0.32567 0.42526 0.93231 0.0
Mn2773 Mn 0.29885 0.44499 0.95226 0.0
C2774 C 0.32891 0.4303 0.95787 0.0
C2775 C 0.33996 0.40379 0.92458 0.0
C2776 C 0.32023 0.45987 0.92969 0.0
O2777 O 0.30631 0.42122 0.91963 0.0
O2778 O 0.28989 0.43617 0.93315 0.0
C2779 C 0.27239 0.42534 0.95911 0.0
N2780 N 0.28421 0.43377 0.96463 0.0
C2781 C 0.26653 0.43894 0.98846 0.0
C2782 C 0.25558 0.43009 0.98125 0.0
C2783 C 0.25864 0.42324 0.96715 0.0
C2784 C 0.28314 0.44029 0.97847 0.0
H2785 H 0.27314 0.42047 0.948 0.0
C2786 C 0.29301 0.42689 0.92217 0.0
O2787 O 0.34057 0.4166 0.91728 0.0
O2788 O 0.32981 0.40284 0.93532 0.0
N2789 N 0.30733 0.45323 0.97092 0.0
C2790 C 0.31907 0.46329 0.97225 0.0
C2791 C 0.3236 0.46917 0.98644 0.0
C2792 C 0.31554 0.4666 1.0 0.0
C2793 C 0.30125 0.45858 0.99981 0.0
C2794 C 0.29886 0.44943 0.98301 0.0
H2795 H 0.32572 0.46635 0.96236 0.0
O2796 O 0.3405 0.42935 0.94874 0.0
O2797 O 0.31529 0.42933 0.95186 0.0
O2798 O 0.32681 0.44782 0.92503 0.0
O2799 O 0.31041 0.4597 0.94021 0.0
C2800 C 0.27577 0.4567 0.01596 0.0
C2801 C 0.26256 0.44629 0.00604 0.0
H2802 H 0.24465 0.42823 0.98665 0.0
H2803 H 0.24978 0.41641 0.96193 0.0
H2804 H 0.33371 0.47624 0.98687 0.0
H2805 H 0.32032 0.47203 0.00998 0.0
H2806 H 0.27241 0.46142 0.027 0.0
H2807 H 0.25146 0.44438 0.01106 0.0
Mn2808 Mn 0.57643 0.32859 0.9372 0.0
Mn2809 Mn 0.55393 0.3085 0.95995 0.0
C2810 C 0.57238 0.33577 0.96267 0.0
C2811 C 0.5986 0.34044 0.92776 0.0
C2812 C 0.5412 0.3281 0.93624 0.0
O2813 O 0.57895 0.30689 0.92762 0.0
O2814 O 0.5583 0.29823 0.94011 0.0
C2815 C 0.57593 0.28274 0.96623 0.0
N2816 N 0.5651 0.29282 0.97086 0.0
C2817 C 0.55953 0.27373 0.99367 0.0
C2818 C 0.56975 0.26386 0.98662 0.0
C2819 C 0.5785 0.26882 0.97404 0.0
C2820 C 0.55858 0.29117 0.9844 0.0
H2821 H 0.58264 0.28521 0.95624 0.0
C2822 C 0.56946 0.29612 0.93087 0.0
O2823 O 0.58591 0.34058 0.92024 0.0
O2824 O 0.59902 0.3318 0.93977 0.0
N2825 N 0.54826 0.31753 0.97928 0.0
C2826 C 0.53941 0.33004 0.98158 0.0
C2827 C 0.53393 0.33403 0.99608 0.0
C2828 C 0.53521 0.32468 0.00899 0.0
C2829 C 0.54148 0.30948 0.008 0.0
C2830 C 0.55043 0.3075 0.99039 0.0
H2831 H 0.53706 0.33773 0.97227 0.0
O2832 O 0.57364 0.34601 0.95207 0.0
O2833 O 0.57178 0.32173 0.95804 0.0
O2834 O 0.55388 0.32955 0.92934 0.0
O2835 O 0.54044 0.32283 0.94959 0.0
C2836 C 0.54213 0.28268 0.02301 0.0
C2837 C 0.55191 0.26928 0.01161 0.0
H2838 H 0.57207 0.25284 0.99166 0.0
H2839 H 0.58725 0.26128 0.96971 0.0
H2840 H 0.52808 0.34484 0.99727 0.0
H2841 H 0.53032 0.32963 0.01916 0.0
H2842 H 0.54038 0.28991 0.02181 0.0
H2843 H 0.55379 0.25799 0.0162 0.0
Mn2844 Mn 0.6774 0.5752 0.93235 0.0
Mn2845 Mn 0.70492 0.55495 0.95049 0.0
C2846 C 0.67495 0.56901 0.95757 0.0
C2847 C 0.66244 0.59679 0.92636 0.0
C2848 C 0.68295 0.54077 0.92836 0.0
O2849 O 0.69631 0.5809 0.92011 0.0
O2850 O 0.71282 0.56391 0.93077 0.0
C2851 C 0.73313 0.57247 0.95568 0.0
N2852 N 0.72055 0.56588 0.96206 0.0
C2853 C 0.73787 0.56261 0.98654 0.0
C2854 C 0.74916 0.57037 0.9787 0.0
C2855 C 0.74674 0.57523 0.96373 0.0
C2856 C 0.72132 0.56062 0.97649 0.0
H2857 H 0.73344 0.57486 0.94378 0.0
C2858 C 0.70962 0.57496 0.92153 0.0
O2859 O 0.66205 0.58454 0.9181 0.0
O2860 O 0.67272 0.59711 0.937 0.0
N2861 N 0.69726 0.54697 0.96963 0.0
C2862 C 0.68565 0.53685 0.97156 0.0
C2863 C 0.68112 0.53181 0.98607 0.0
C2864 C 0.6889 0.53555 0.99951 0.0
C2865 C 0.70307 0.54375 0.99891 0.0
C2866 C 0.70556 0.55175 0.98152 0.0
H2867 H 0.67905 0.53307 0.96189 0.0
O2868 O 0.6631 0.56961 0.94871 0.0
O2869 O 0.68842 0.57056 0.95131 0.0
O2870 O 0.67694 0.5531 0.92362 0.0
O2871 O 0.69241 0.54048 0.93919 0.0
C2872 C 0.72842 0.54678 0.01507 0.0
C2873 C 0.74169 0.55652 0.0046 0.0
H2874 H 0.76008 0.57247 0.98406 0.0
H2875 H 0.75607 0.58068 0.95777 0.0
H2876 H 0.67113 0.5246 0.98688 0.0
H2877 H 0.68404 0.53079 0.00979 0.0
H2878 H 0.73174 0.54278 0.02641 0.0
H2879 H 0.75278 0.55867 0.00953 0.0
Mn2880 Mn 0.07448 0.42763 0.32507 0.0
Mn2881 Mn 0.05539 0.44777 0.29827 0.0
C2882 C 0.04942 0.43431 0.32858 0.0
C2883 C 0.08121 0.40661 0.34042 0.0
C2884 C 0.07908 0.46172 0.31826 0.0
O2885 O 0.08547 0.42096 0.30578 0.0
O2886 O 0.07466 0.43828 0.28967 0.0
C2887 C 0.04878 0.4302 0.27038 0.0
N2888 N 0.04302 0.43711 0.28308 0.0
C2889 C 0.01836 0.44163 0.26628 0.0
C2890 C 0.02558 0.43351 0.25482 0.0
C2891 C 0.04032 0.42787 0.25694 0.0
C2892 C 0.02885 0.44306 0.28262 0.0
H2893 H 0.06052 0.4272 0.26984 0.0
C2894 C 0.08373 0.42696 0.29254 0.0
O2895 O 0.08947 0.41882 0.33989 0.0
O2896 O 0.06979 0.40595 0.33104 0.0
N2897 N 0.03679 0.45628 0.30658 0.0
C2898 C 0.03556 0.46643 0.31827 0.0
C2899 C 0.02141 0.47206 0.32318 0.0
C2900 C 0.00767 0.46897 0.31567 0.0
C2901 C 0.00763 0.46088 0.30142 0.0
C2902 C 0.02455 0.45208 0.29853 0.0
H2903 H 0.04551 0.46975 0.32469 0.0
O2904 O 0.05891 0.43419 0.33996 0.0
O2905 O 0.05498 0.4323 0.31488 0.0
O2906 O 0.08418 0.44931 0.32371 0.0
O2907 O 0.06722 0.46218 0.31022 0.0
C2908 C 0.99081 0.45875 0.27641 0.0
C2909 C 1.00053 0.4486 0.26288 0.0
H2910 H 0.01989 0.43171 0.24401 0.0
H2911 H 0.04579 0.42212 0.24749 0.0
H2912 H 0.02113 0.47923 0.33322 0.0
H2913 H 0.99772 0.47413 0.32078 0.0
H2914 H 0.9796 0.46329 0.27337 0.0
H2915 H 0.99526 0.44673 0.25188 0.0
Mn2916 Mn 0.57731 0.0723 0.3265 0.0
Mn2917 Mn 0.55877 0.05261 0.2987 0.0
C2918 C 0.57344 0.04631 0.32873 0.0
C2919 C 0.59822 0.08089 0.34102 0.0
C2920 C 0.54275 0.0737 0.3207 0.0
O2921 O 0.58072 0.08604 0.30779 0.0
O2922 O 0.56687 0.07235 0.29064 0.0
C2923 C 0.57943 0.04758 0.27264 0.0
N2924 N 0.57075 0.04133 0.28388 0.0
C2925 C 0.5665 0.01836 0.26505 0.0
C2926 C 0.57546 0.02624 0.25466 0.0
C2927 C 0.58202 0.04028 0.25855 0.0
C2928 C 0.56455 0.02745 0.28195 0.0
H2929 H 0.58417 0.05869 0.27416 0.0
C2930 C 0.57534 0.08376 0.29435 0.0
O2931 O 0.58497 0.08731 0.34187 0.0
O2932 O 0.59984 0.07045 0.33063 0.0
N2933 N 0.55103 0.03334 0.30618 0.0
C2934 C 0.54084 0.0312 0.31762 0.0
C2935 C 0.53537 0.01667 0.32132 0.0
C2936 C 0.53844 0.00364 0.3126 0.0
C2937 C 0.54638 0.00458 0.29811 0.0
C2938 C 0.55516 0.02183 0.29708 0.0
H2939 H 0.53744 0.04065 0.32473 0.0
O2940 O 0.57404 0.05503 0.34065 0.0
O2941 O 0.5742 0.05292 0.31538 0.0
O2942 O 0.55448 0.07841 0.32777 0.0
O2943 O 0.54345 0.06364 0.31043 0.0
C2944 C 0.54927 0.9901 0.2725 0.0
C2945 C 0.55966 1.00093 0.26022 0.0
H2946 H 0.57769 0.02139 0.24353 0.0
H2947 H 0.589 0.04601 0.25015 0.0
H2948 H 0.52828 0.01549 0.33136 0.0
H2949 H 0.53337 0.99342 0.31724 0.0
H2950 H 0.54714 0.99186 0.27982 0.0
H2951 H 0.56203 0.99644 0.24898 0.0
Mn2952 Mn 0.93306 0.57962 0.32315 0.0
Mn2953 Mn 0.9545 0.56269 0.29578 0.0
C2954 C 0.95933 0.57767 0.32531 0.0
C2955 C 0.92367 0.6 0.33805 0.0
C2956 C 0.93216 0.5454 0.31571 0.0
O2957 O 0.91995 0.58292 0.30379 0.0
O2958 O 0.93568 0.57143 0.28637 0.0
C2959 C 0.96233 0.58294 0.27008 0.0
N2960 N 0.9674 0.57463 0.28219 0.0
C2961 C 0.99157 0.56853 0.26462 0.0
C2962 C 0.98478 0.57755 0.25358 0.0
C2963 C 0.97078 0.58479 0.25646 0.0
C2964 C 0.98115 0.56794 0.28153 0.0
H2965 H 0.95119 0.5879 0.27045 0.0
C2966 C 0.92363 0.57908 0.29003 0.0
O2967 O 0.91764 0.58655 0.33855 0.0
O2968 O 0.93403 0.60215 0.32771 0.0
N2969 N 0.97271 0.55467 0.30549 0.0
C2970 C 0.97342 0.54526 0.31778 0.0
C2971 C 0.98725 0.53908 0.32296 0.0
C2972 C 1.00105 0.5402 0.31494 0.0
C2973 C 1.00183 0.54749 0.30019 0.0
C2974 C 0.9852 0.55817 0.29761 0.0
H2975 H 0.96324 0.54291 0.32428 0.0
O2976 O 0.95076 0.5771 0.33737 0.0
O2977 O 0.95245 0.57781 0.31223 0.0
O2978 O 0.92749 0.55646 0.32381 0.0
O2979 O 0.94224 0.54714 0.30564 0.0
C2980 C 0.0186 0.54798 0.27447 0.0
C2981 C 0.0091 0.55951 0.26092 0.0
H2982 H 0.99031 0.57909 0.24265 0.0
H2983 H 0.96584 0.59163 0.24745 0.0
H2984 H 0.98712 0.53263 0.33348 0.0
H2985 H 0.01045 0.53442 0.32042 0.0
H2986 H 0.01676 0.54598 0.28153 0.0
H2987 H 0.01434 0.56107 0.24988 0.0
Mn2988 Mn 0.42837 0.93151 0.32872 0.0
Mn2989 Mn 0.44697 0.9497 0.29997 0.0
C2990 C 0.43344 0.95717 0.33026 0.0
C2991 C 0.40742 0.92419 0.34384 0.0
C2992 C 0.46273 0.92862 0.32207 0.0
O2993 O 0.42326 0.91804 0.31044 0.0
O2994 O 0.43806 0.92984 0.29268 0.0
C2995 C 0.42702 0.95433 0.27329 0.0
N2996 N 0.43517 0.96086 0.2848 0.0
C2997 C 0.43889 0.98398 0.266 0.0
C2998 C 0.4301 0.97598 0.25557 0.0
C2999 C 0.42416 0.96166 0.25929 0.0
C3000 C 0.44113 0.97486 0.28287 0.0
H3001 H 0.42315 0.94288 0.27434 0.0
C3002 C 0.42835 0.91956 0.29681 0.0
O3003 O 0.42037 0.91714 0.34455 0.0
O3004 O 0.40614 0.93467 0.33346 0.0
N3005 N 0.45518 0.96904 0.30683 0.0
C3006 C 0.46554 0.97129 0.31809 0.0
C3007 C 0.47095 0.98587 0.3217 0.0
C3008 C 0.46752 0.9989 0.31311 0.0
C3009 C 0.45932 0.99791 0.29879 0.0
C3010 C 0.45071 0.98056 0.29786 0.0
H3011 H 0.46914 0.96189 0.32517 0.0
O3012 O 0.43309 0.9487 0.34239 0.0
O3013 O 0.43192 0.95041 0.31703 0.0
O3014 O 0.45094 0.92418 0.32923 0.0
O3015 O 0.46218 0.93872 0.31184 0.0
C3016 C 0.45592 0.01239 0.27324 0.0
C3017 C 0.44547 1.00149 0.26111 0.0
H3018 H 0.42775 0.98083 0.24447 0.0
H3019 H 0.41756 0.95566 0.25076 0.0
H3020 H 0.47821 0.98709 0.33161 0.0
H3021 H 0.47255 0.00916 0.3177 0.0
H3022 H 0.45816 0.01062 0.28053 0.0
H3023 H 0.44293 0.00595 0.2499 0.0
Mn3024 Mn 0.07322 0.57808 0.67729 0.0
Mn3025 Mn 0.05447 0.55934 0.70544 0.0
C3026 C 0.04715 0.57485 0.67648 0.0
C3027 C 0.08117 0.59917 0.66273 0.0
C3028 C 0.07559 0.54359 0.68313 0.0
O3029 O 0.08713 0.58171 0.69579 0.0
O3030 O 0.07385 0.56824 0.7137 0.0
C3031 C 0.04835 0.57888 0.73225 0.0
N3032 N 0.04251 0.57089 0.72026 0.0
C3033 C 0.01843 0.56645 0.73843 0.0
C3034 C 0.02592 0.57525 0.74919 0.0
C3035 C 0.04031 0.58145 0.74598 0.0
C3036 C 0.02851 0.56483 0.72137 0.0
H3037 H 0.05982 0.58291 0.7318 0.0
C3038 C 0.08481 0.57719 0.70958 0.0
O3039 O 0.08759 0.58595 0.66146 0.0
O3040 O 0.07113 0.60063 0.67351 0.0
N3041 N 0.03558 0.55125 0.69702 0.0
C3042 C 0.03392 0.54204 0.68468 0.0
C3043 C 0.01968 0.53614 0.6803 0.0
C3044 C 0.0063 0.53755 0.68901 0.0
C3045 C 0.00634 0.54506 0.70366 0.0
C3046 C 0.0236 0.55492 0.70561 0.0
H3047 H 0.04364 0.53957 0.67754 0.0
O3048 O 0.0551 0.57507 0.66398 0.0
O3049 O 0.05467 0.57503 0.68925 0.0
O3050 O 0.07942 0.55529 0.6755 0.0
O3051 O 0.06618 0.54429 0.69397 0.0
C3052 C 0.99017 0.54725 0.72964 0.0
C3053 C 1.00053 0.55857 0.74266 0.0
H3054 H 0.02069 0.57731 0.76017 0.0
H3055 H 0.04589 0.58801 0.75483 0.0
H3056 H 0.0191 0.5297 0.66978 0.0
H3057 H 0.99652 0.53197 0.68402 0.0
H3058 H 0.9918 0.54498 0.72263 0.0
H3059 H 0.9956 0.5607 0.75375 0.0
Mn3060 Mn 0.42937 0.07339 0.67494 0.0
Mn3061 Mn 0.44863 0.05438 0.7027 0.0
C3062 C 0.43363 0.04751 0.673 0.0
C3063 C 0.40804 0.08132 0.66066 0.0
C3064 C 0.46407 0.07535 0.68024 0.0
O3065 O 0.42572 0.08711 0.69351 0.0
O3066 O 0.44058 0.0743 0.71053 0.0
C3067 C 0.42892 0.04989 0.72962 0.0
N3068 N 0.437 0.04335 0.71809 0.0
C3069 C 0.441 0.02024 0.73697 0.0
C3070 C 0.43255 0.02843 0.74753 0.0
C3071 C 0.42645 0.04269 0.74377 0.0
C3072 C 0.44287 0.0293 0.71988 0.0
H3073 H 0.42464 0.06119 0.72834 0.0
C3074 C 0.43151 0.08529 0.70684 0.0
O3075 O 0.42112 0.08803 0.65949 0.0
O3076 O 0.40686 0.07094 0.67114 0.0
N3077 N 0.45616 0.03497 0.69534 0.0
C3078 C 0.46623 0.03258 0.68378 0.0
C3079 C 0.47151 0.01792 0.68006 0.0
C3080 C 0.46824 0.00492 0.68876 0.0
C3081 C 0.46017 0.00622 0.70297 0.0
C3082 C 0.45183 0.02354 0.70445 0.0
H3083 H 0.46976 0.04195 0.67664 0.0
O3084 O 0.43291 0.05607 0.66097 0.0
O3085 O 0.43291 0.05427 0.68629 0.0
O3086 O 0.45211 0.08004 0.67351 0.0
O3087 O 0.46369 0.06519 0.69043 0.0
C3088 C 0.45743 0.99152 0.72922 0.0
C3089 C 0.44747 0.00257 0.74185 0.0
H3090 H 0.43043 0.02369 0.75873 0.0
H3091 H 0.41995 0.04869 0.75237 0.0
H3092 H 0.47861 0.01664 0.67005 0.0
H3093 H 0.47319 0.99446 0.68453 0.0
H3094 H 0.46162 0.98045 0.73319 0.0
H3095 H 0.44531 0.99822 0.75319 0.0
Mn3096 Mn 0.93232 0.42449 0.67761 0.0
Mn3097 Mn 0.95122 0.44345 0.70555 0.0
C3098 C 0.95836 0.42795 0.67657 0.0
C3099 C 0.92447 0.40335 0.66296 0.0
C3100 C 0.92976 0.45899 0.68343 0.0
O3101 O 0.91867 0.42072 0.69635 0.0
O3102 O 0.93203 0.43442 0.71404 0.0
C3103 C 0.95782 0.42406 0.73234 0.0
N3104 N 0.96345 0.43208 0.72027 0.0
C3105 C 0.9876 0.43698 0.73825 0.0
C3106 C 0.98032 0.42814 0.7491 0.0
C3107 C 0.966 0.4217 0.74603 0.0
C3108 C 0.97737 0.43835 0.72125 0.0
H3109 H 0.94642 0.41983 0.73196 0.0
C3110 C 0.92111 0.42535 0.7101 0.0
O3111 O 0.91788 0.41649 0.66184 0.0
O3112 O 0.93457 0.40194 0.67369 0.0
N3113 N 0.96992 0.45171 0.69691 0.0
C3114 C 0.97131 0.46095 0.68455 0.0
C3115 C 0.98543 0.46702 0.68 0.0
C3116 C 0.99892 0.46572 0.68854 0.0
C3117 C 0.99913 0.45826 0.70321 0.0
C3118 C 0.98202 0.44821 0.70538 0.0
H3119 H 0.96149 0.46331 0.67752 0.0
O3120 O 0.95031 0.42766 0.66413 0.0
O3121 O 0.95096 0.42772 0.6894 0.0
O3122 O 0.92592 0.44726 0.67586 0.0
O3123 O 0.93927 0.45834 0.69418 0.0
C3124 C 0.01556 0.45648 0.72908 0.0
C3125 C 0.00544 0.44512 0.74228 0.0
H3126 H 0.98566 0.42621 0.76006 0.0
H3127 H 0.96059 0.41509 0.75495 0.0
H3128 H 0.9858 0.47345 0.66948 0.0
H3129 H 0.00858 0.47139 0.68341 0.0
H3130 H 0.01386 0.45868 0.72207 0.0
H3131 H 0.01049 0.44313 0.75334 0.0
Mn3132 Mn 0.57742 0.93088 0.6771 0.0
Mn3133 Mn 0.55945 0.95098 0.70481 0.0
C3134 C 0.57561 0.95715 0.676 0.0
C3135 C 0.59814 0.92179 0.66264 0.0
C3136 C 0.54289 0.93018 0.68277 0.0
O3137 O 0.57978 0.91676 0.69581 0.0
O3138 O 0.56744 0.93149 0.71345 0.0
C3139 C 0.57941 0.95701 0.73115 0.0
N3140 N 0.57121 0.96286 0.71934 0.0
C3141 C 0.56637 0.9866 0.73704 0.0
C3142 C 0.57505 0.97918 0.74801 0.0
C3143 C 0.58165 0.96495 0.74494 0.0
C3144 C 0.56504 0.97687 0.72045 0.0
H3145 H 0.58395 0.94572 0.73035 0.0
C3146 C 0.57523 0.91965 0.70951 0.0
O3147 O 0.58463 0.91602 0.66139 0.0
O3148 O 0.60011 0.93168 0.67349 0.0
N3149 N 0.55219 0.96993 0.69615 0.0
C3150 C 0.54325 0.9717 0.68366 0.0
C3151 C 0.53786 0.98606 0.67923 0.0
C3152 C 0.53966 0.99924 0.6881 0.0
C3153 C 0.54687 0.99882 0.70299 0.0
C3154 C 0.55595 0.9818 0.70489 0.0
H3155 H 0.54066 0.96203 0.67651 0.0
O3156 O 0.57563 0.94909 0.66358 0.0
O3157 O 0.57524 0.94974 0.68881 0.0
O3158 O 0.55437 0.92592 0.67505 0.0
O3159 O 0.54403 0.93959 0.69356 0.0
C3160 C 0.54875 0.01424 0.72818 0.0
C3161 C 0.55905 0.00405 0.74108 0.0
H3162 H 0.5769 0.98447 0.75901 0.0
H3163 H 0.58829 0.95954 0.75383 0.0
H3164 H 0.53162 0.98692 0.66861 0.0
H3165 H 0.53446 0.00919 0.68303 0.0
H3166 H 0.54687 0.0122 0.72086 0.0
H3167 H 0.56101 0.00895 0.75223 0.0
Mn3168 Mn 0.32597 0.07061 0.42571 0.0
Mn3169 Mn 0.29852 0.05253 0.44588 0.0
C3170 C 0.32894 0.04577 0.4333 0.0
C3171 C 0.34146 0.07541 0.40412 0.0
C3172 C 0.31892 0.07607 0.45969 0.0
O3173 O 0.30703 0.08198 0.41868 0.0
O3174 O 0.29055 0.07184 0.43603 0.0
C3175 C 0.27102 0.04631 0.42733 0.0
N3176 N 0.28337 0.04042 0.43476 0.0
C3177 C 0.26536 0.01614 0.43913 0.0
C3178 C 0.25446 0.02358 0.43052 0.0
C3179 C 0.25738 0.03815 0.4247 0.0
C3180 C 0.28241 0.02636 0.44074 0.0
H3181 H 0.27093 0.05797 0.42402 0.0
C3182 C 0.29378 0.08084 0.42477 0.0
O3183 O 0.34135 0.08459 0.41573 0.0
O3184 O 0.33144 0.06456 0.40441 0.0
N3185 N 0.30628 0.03382 0.45494 0.0
C3186 C 0.31759 0.03259 0.46548 0.0
C3187 C 0.32213 0.0185 0.47153 0.0
C3188 C 0.31451 0.00474 0.46879 0.0
C3189 C 0.30021 0.00441 0.46063 0.0
C3190 C 0.29816 0.02163 0.45077 0.0
H3191 H 0.3241 0.04249 0.46877 0.0
O3192 O 0.34053 0.05497 0.43285 0.0
O3193 O 0.31541 0.05156 0.43092 0.0
O3194 O 0.32472 0.08088 0.44725 0.0
O3195 O 0.31056 0.0644 0.46023 0.0
C3196 C 0.27439 0.98794 0.45839 0.0
C3197 C 0.26128 0.99817 0.44701 0.0
H3198 H 0.24351 0.01826 0.42851 0.0
H3199 H 0.24832 0.04382 0.41851 0.0
H3200 H 0.33208 0.01828 0.47885 0.0
H3201 H 0.31973 0.99502 0.47426 0.0
H3202 H 0.28137 0.98962 0.4607 0.0
H3203 H 0.25023 0.99314 0.44489 0.0
Mn3204 Mn 0.32593 0.93328 0.57988 0.0
Mn3205 Mn 0.29844 0.95391 0.56211 0.0
C3206 C 0.32904 0.95913 0.57541 0.0
C3207 C 0.34091 0.92491 0.60056 0.0
C3208 C 0.31823 0.93109 0.54568 0.0
O3209 O 0.3068 0.92056 0.58455 0.0
O3210 O 0.28978 0.93476 0.57095 0.0
C3211 C 0.27283 0.96051 0.58299 0.0
N3212 N 0.28438 0.96612 0.57425 0.0
C3213 C 0.26528 0.98916 0.56834 0.0
C3214 C 0.25484 0.98181 0.57763 0.0
C3215 C 0.25875 0.96813 0.585 0.0
C3216 C 0.28277 0.97972 0.56747 0.0
H3217 H 0.2741 0.9496 0.58827 0.0
C3218 C 0.29329 0.92337 0.57955 0.0
O3219 O 0.34104 0.91794 0.58754 0.0
O3220 O 0.33105 0.93583 0.6021 0.0
N3221 N 0.30683 0.97252 0.55364 0.0
C3222 C 0.31817 0.97362 0.54314 0.0
C3223 C 0.32252 0.98763 0.53679 0.0
C3224 C 0.31439 1.00121 0.53892 0.0
C3225 C 0.29991 1.00133 0.54678 0.0
C3226 C 0.29844 0.98461 0.55743 0.0
H3227 H 0.32481 0.96369 0.54018 0.0
O3228 O 0.34063 0.94994 0.5754 0.0
O3229 O 0.31554 0.95302 0.57685 0.0
O3230 O 0.32545 0.92605 0.5572 0.0
O3231 O 0.30897 0.94204 0.54665 0.0
C3232 C 0.27334 0.01676 0.54773 0.0
C3233 C 0.26049 0.00651 0.55945 0.0
H3234 H 0.24364 0.98671 0.57937 0.0
H3235 H 0.25023 0.96279 0.59216 0.0
H3236 H 0.33256 0.98788 0.52962 0.0
H3237 H 0.31938 0.0109 0.53319 0.0
H3238 H 0.28044 0.01531 0.54559 0.0
H3239 H 0.24921 0.01115 0.56122 0.0
Mn3240 Mn 0.07474 0.32739 0.57707 0.0
Mn3241 Mn 0.05714 0.29909 0.55722 0.0
C3242 C 0.04932 0.32915 0.57108 0.0
C3243 C 0.08139 0.34253 0.59833 0.0
C3244 C 0.07855 0.32156 0.54266 0.0
O3245 O 0.08766 0.30881 0.58262 0.0
O3246 O 0.07689 0.29166 0.56637 0.0
C3247 C 0.05234 0.27137 0.57563 0.0
N3248 N 0.04583 0.28345 0.56829 0.0
C3249 C 0.02219 0.26529 0.56449 0.0
C3250 C 0.03008 0.25442 0.5728 0.0
C3251 C 0.0447 0.25751 0.5783 0.0
C3252 C 0.03171 0.28199 0.56245 0.0
H3253 H 0.06403 0.27172 0.57879 0.0
C3254 C 0.08634 0.29532 0.57708 0.0
O3255 O 0.08895 0.34308 0.58568 0.0
O3256 O 0.07082 0.3322 0.59922 0.0
N3257 N 0.03794 0.30611 0.54879 0.0
C3258 C 0.03589 0.31752 0.53854 0.0
C3259 C 0.0214 0.32141 0.5331 0.0
C3260 C 0.0082 0.31309 0.5365 0.0
C3261 C 0.00891 0.29868 0.54457 0.0
C3262 C 0.02629 0.29725 0.5531 0.0
H3263 H 0.04539 0.32451 0.53504 0.0
O3264 O 0.05787 0.34121 0.57179 0.0
O3265 O 0.05592 0.31583 0.57268 0.0
O3266 O 0.08293 0.32813 0.55482 0.0
O3267 O 0.0683 0.3115 0.54262 0.0
C3268 C 0.99388 0.27344 0.54776 0.0
C3269 C 0.00453 0.26092 0.55798 0.0
H3270 H 0.025 0.24338 0.57494 0.0
H3271 H 0.0507 0.24854 0.58429 0.0
H3272 H 0.02036 0.3314 0.52592 0.0
H3273 H 0.99802 0.31794 0.53154 0.0
H3274 H 0.99581 0.28072 0.54561 0.0
H3275 H 0.99984 0.24977 0.56035 0.0
Mn3276 Mn 0.68071 0.07026 0.57766 0.0
Mn3277 Mn 0.7075 0.0502 0.55821 0.0
C3278 C 0.67702 0.04487 0.57165 0.0
C3279 C 0.66571 0.07781 0.59876 0.0
C3280 C 0.68745 0.0735 0.54331 0.0
O3281 O 0.70007 0.08221 0.58306 0.0
O3282 O 0.71607 0.06961 0.56695 0.0
C3283 C 0.73305 0.04391 0.57935 0.0
N3284 N 0.72196 0.03824 0.5701 0.0
C3285 C 0.73986 0.01424 0.56697 0.0
C3286 C 0.75014 0.02167 0.57641 0.0
C3287 C 0.74661 0.03594 0.58265 0.0
C3288 C 0.72353 0.0243 0.56392 0.0
H3289 H 0.7318 0.05501 0.58408 0.0
C3290 C 0.71316 0.08016 0.57679 0.0
O3291 O 0.66587 0.0855 0.58616 0.0
O3292 O 0.67532 0.0666 0.59971 0.0
N3293 N 0.69974 0.03129 0.54978 0.0
C3294 C 0.68853 0.02957 0.53921 0.0
C3295 C 0.68465 0.01521 0.53322 0.0
C3296 C 0.69286 1.00183 0.53631 0.0
C3297 C 0.70661 0.00233 0.54522 0.0
C3298 C 0.70844 0.01948 0.55389 0.0
H3299 H 0.68179 0.03926 0.53572 0.0
O3300 O 0.66567 0.05434 0.57215 0.0
O3301 O 0.69071 0.05049 0.57342 0.0
O3302 O 0.68156 0.07873 0.55548 0.0
O3303 O 0.69585 0.0618 0.54323 0.0
C3304 C 0.73168 0.9861 0.54979 0.0
C3305 C 0.74416 0.99635 0.56073 0.0
H3306 H 0.76085 0.01627 0.5793 0.0
H3307 H 0.75491 0.04127 0.59006 0.0
H3308 H 0.67496 0.0145 0.52561 0.0
H3309 H 0.6886 0.99173 0.5307 0.0
H3310 H 0.73527 0.97481 0.54589 0.0
H3311 H 0.75502 0.99132 0.56371 0.0
Mn3312 Mn 0.93157 0.67493 0.57565 0.0
Mn3313 Mn 0.94975 0.70333 0.55643 0.0
C3314 C 0.9571 0.67315 0.57013 0.0
C3315 C 0.92457 0.65982 0.59684 0.0
C3316 C 0.92809 0.68136 0.54126 0.0
O3317 O 0.91852 0.69352 0.58098 0.0
O3318 O 0.93018 0.71099 0.56567 0.0
C3319 C 0.95502 0.73071 0.57547 0.0
N3320 N 0.96129 0.71867 0.56784 0.0
C3321 C 0.98496 0.73748 0.56355 0.0
C3322 C 0.9771 0.74813 0.57211 0.0
C3323 C 0.96267 0.74466 0.57802 0.0
C3324 C 0.97528 0.72015 0.56185 0.0
H3325 H 0.94345 0.73019 0.5791 0.0
C3326 C 0.92017 0.70711 0.57577 0.0
O3327 O 0.91722 0.65922 0.58406 0.0
O3328 O 0.93513 0.67014 0.59787 0.0
N3329 N 0.96883 0.69588 0.5479 0.0
C3330 C 0.97061 0.68441 0.53762 0.0
C3331 C 0.98498 0.68026 0.53189 0.0
C3332 C 0.99844 0.6884 0.53472 0.0
C3333 C 0.9982 0.70279 0.54271 0.0
C3334 C 0.98068 0.70446 0.5521 0.0
H3335 H 0.96095 0.67755 0.53431 0.0
O3336 O 0.94856 0.66108 0.57066 0.0
O3337 O 0.95046 0.68644 0.57166 0.0
O3338 O 0.92376 0.67438 0.55322 0.0
O3339 O 0.9383 0.69147 0.54155 0.0
C3340 C 0.01389 0.72907 0.54514 0.0
C3341 C 0.003 0.74199 0.55609 0.0
H3342 H 0.98204 0.75924 0.57418 0.0
H3343 H 0.95673 0.75347 0.58431 0.0
H3344 H 0.98565 0.6702 0.52475 0.0
H3345 H 0.00843 0.68342 0.52948 0.0
H3346 H 0.01247 0.72202 0.54285 0.0
H3347 H 0.00767 0.75319 0.55827 0.0
Mn3348 Mn 0.67722 0.93315 0.42669 0.0
Mn3349 Mn 0.70366 0.95295 0.44684 0.0
C3350 C 0.67568 0.95927 0.4294 0.0
C3351 C 0.66374 0.92483 0.40495 0.0
C3352 C 0.68131 0.93108 0.4614 0.0
O3353 O 0.69625 0.91955 0.42449 0.0
O3354 O 0.71303 0.93383 0.43851 0.0
C3355 C 0.7314 0.96003 0.42937 0.0
N3356 N 0.71879 0.96548 0.43662 0.0
C3357 C 0.73564 0.98927 0.44377 0.0
C3358 C 0.74744 0.98228 0.43586 0.0
C3359 C 0.74521 0.96822 0.4286 0.0
C3360 C 0.71917 0.9793 0.44335 0.0
H3361 H 0.73128 0.94883 0.42457 0.0
C3362 C 0.70966 0.92238 0.42985 0.0
O3363 O 0.66209 0.91837 0.41811 0.0
O3364 O 0.6745 0.93495 0.40394 0.0
N3365 N 0.69419 0.97156 0.45416 0.0
C3366 C 0.68109 0.97286 0.46228 0.0
C3367 C 0.67587 0.98702 0.46751 0.0
C3368 C 0.68444 1.00049 0.46648 0.0
C3369 C 0.69984 1.00053 0.46047 0.0
C3370 C 0.70282 0.98375 0.45119 0.0
H3371 H 0.67405 0.96295 0.46422 0.0
O3372 O 0.66337 0.95106 0.42867 0.0
O3373 O 0.68857 0.95204 0.43015 0.0
O3374 O 0.67435 0.927 0.44939 0.0
O3375 O 0.69178 0.94089 0.46117 0.0
C3376 C 0.72486 0.0163 0.46121 0.0
C3377 C 0.73876 0.00655 0.45186 0.0
H3378 H 0.75847 0.98778 0.43512 0.0
H3379 H 0.75474 0.96312 0.42264 0.0
H3380 H 0.66481 0.98749 0.47298 0.0
H3381 H 0.67875 0.01025 0.4714 0.0
H3382 H 0.71744 0.01412 0.46239 0.0
H3383 H 0.74996 0.01164 0.45101 0.0
Mn3384 Mn 0.07162 0.67928 0.42583 0.0
Mn3385 Mn 0.0507 0.70698 0.4427 0.0
C3386 C 0.04526 0.67764 0.42762 0.0
C3387 C 0.08094 0.66431 0.40555 0.0
C3388 C 0.07223 0.68656 0.46011 0.0
O3389 O 0.08525 0.69815 0.42261 0.0
O3390 O 0.07025 0.71566 0.43481 0.0
C3391 C 0.04475 0.73253 0.42177 0.0
N3392 N 0.03889 0.72103 0.43038 0.0
C3393 C 0.01542 0.7391 0.43508 0.0
C3394 C 0.02285 0.74978 0.42605 0.0
C3395 C 0.03694 0.74637 0.41931 0.0
C3396 C 0.02497 0.72244 0.43667 0.0
H3397 H 0.05594 0.73143 0.41706 0.0
C3398 C 0.0822 0.71182 0.42711 0.0
O3399 O 0.08682 0.66363 0.41906 0.0
O3400 O 0.07067 0.67474 0.40334 0.0
N3401 N 0.03176 0.69836 0.44998 0.0
C3402 C 0.02996 0.6861 0.45923 0.0
C3403 C 0.0156 0.68189 0.46479 0.0
C3404 C 0.0025 0.69089 0.46296 0.0
C3405 C 0.00304 0.70564 0.45547 0.0
C3406 C 0.01996 0.70713 0.44615 0.0
H3407 H 0.03962 0.67896 0.46194 0.0
O3408 O 0.05362 0.66543 0.42834 0.0
O3409 O 0.05241 0.69058 0.42751 0.0
O3410 O 0.07727 0.67887 0.44892 0.0
O3411 O 0.06185 0.69635 0.45856 0.0
C3412 C 0.98792 0.73095 0.45322 0.0
C3413 C 0.99812 0.7435 0.44253 0.0
H3414 H 0.01766 0.76079 0.424 0.0
H3415 H 0.04234 0.75501 0.41236 0.0
H3416 H 0.01469 0.67141 0.47125 0.0
H3417 H 0.99254 0.68606 0.46836 0.0
H3418 H 0.98992 0.72365 0.45524 0.0
H3419 H 0.99332 0.75466 0.44038 0.0
Mn3420 Mn 0.93339 0.32634 0.42742 0.0
Mn3421 Mn 0.95317 0.29848 0.44576 0.0
C3422 C 0.95914 0.32903 0.43209 0.0
C3423 C 0.92536 0.34119 0.40652 0.0
C3424 C 0.93131 0.31971 0.46185 0.0
O3425 O 0.92018 0.30744 0.42308 0.0
O3426 O 0.93375 0.29022 0.43697 0.0
C3427 C 0.95918 0.2729 0.42472 0.0
N3428 N 0.96501 0.28418 0.43364 0.0
C3429 C 0.98871 0.26615 0.43734 0.0
C3430 C 0.98125 0.2557 0.42811 0.0
C3431 C 0.96703 0.2592 0.42173 0.0
C3432 C 0.97894 0.28261 0.43982 0.0
H3433 H 0.94799 0.27404 0.42012 0.0
C3434 C 0.92257 0.2939 0.42817 0.0
O3435 O 0.91842 0.34168 0.41954 0.0
O3436 O 0.93597 0.33097 0.40508 0.0
N3437 N 0.97213 0.30619 0.45405 0.0
C3438 C 0.97383 0.31738 0.46461 0.0
C3439 C 0.98821 0.32142 0.47025 0.0
C3440 C 1.00158 0.31333 0.46688 0.0
C3441 C 1.0012 0.2991 0.45846 0.0
C3442 C 0.98398 0.29766 0.44967 0.0
H3443 H 0.96413 0.32404 0.4682 0.0
O3444 O 0.95017 0.34077 0.43158 0.0
O3445 O 0.95288 0.31555 0.43078 0.0
O3446 O 0.92665 0.32693 0.45016 0.0
O3447 O 0.94158 0.30965 0.4611 0.0
C3448 C 0.01668 0.27419 0.45475 0.0
C3449 C 0.00634 0.26182 0.444 0.0
H3450 H 0.98654 0.24485 0.42555 0.0
H3451 H 0.9616 0.25075 0.41456 0.0
H3452 H 0.98899 0.33126 0.47767 0.0
H3453 H 0.01161 0.3182 0.47211 0.0
H3454 H 0.01462 0.28137 0.4571 0.0
H3455 H 0.01126 0.25085 0.44128 0.0
H3456 H 0.11808 0.15555 0.41801 0.0
H3457 H 0.08505 0.12227 0.43266 0.0
H3458 H 0.10476 0.10234 0.43187 0.0
H3459 H 0.13186 0.09471 0.42832 0.0
H3460 H 0.1652 0.12893 0.41703 0.0
H3461 H 0.14499 0.1482 0.41517 0.0
C3462 C 0.11509 0.14388 0.42076 0.0
C3463 C 0.09997 0.14035 0.42506 0.0
C3464 C 0.12664 0.1327 0.421 0.0
C3465 C 0.09649 0.12525 0.4291 0.0
C3466 C 0.1078 0.11389 0.42871 0.0
C3467 C 0.13462 0.10638 0.42527 0.0
C3468 C 0.14996 0.11039 0.42253 0.0
C3469 C 0.12296 0.11751 0.42486 0.0
C3470 C 0.15349 0.12557 0.41902 0.0
C3471 C 0.14192 0.13657 0.41798 0.0
H3472 H 0.84826 0.12176 0.4184 0.0
H3473 H 0.88274 0.08758 0.42585 0.0
H3474 H 0.90258 0.10737 0.42501 0.0
H3475 H 0.9099 0.13468 0.42347 0.0
H3476 H 0.87486 0.16889 0.4198 0.0
H3477 H 0.8554 0.14889 0.41777 0.0
C3478 C 0.86015 0.11859 0.41957 0.0
C3479 C 0.86407 0.10314 0.42183 0.0
C3480 C 0.87134 0.13011 0.41983 0.0
C3481 C 0.87946 0.09932 0.42389 0.0
C3482 C 0.89078 0.11066 0.42345 0.0
C3483 C 0.898 0.13771 0.422 0.0
C3484 C 0.89381 0.15325 0.42145 0.0
C3485 C 0.88683 0.12612 0.42159 0.0
C3486 C 0.87835 0.15705 0.42005 0.0
C3487 C 0.86725 0.1456 0.41894 0.0
H3488 H 0.87003 0.91195 0.42702 0.0
H3489 H 0.83633 0.87727 0.41852 0.0
H3490 H 0.85654 0.8581 0.41588 0.0
H3491 H 0.88361 0.85096 0.4173 0.0
H3492 H 0.9172 0.88472 0.42936 0.0
H3493 H 0.89734 0.90453 0.42925 0.0
C3494 C 0.86718 0.90021 0.42439 0.0
C3495 C 0.85172 0.89604 0.42266 0.0
C3496 C 0.87887 0.88913 0.42359 0.0
C3497 C 0.84812 0.88075 0.41971 0.0
C3498 C 0.85968 0.86981 0.41824 0.0
C3499 C 0.88667 0.86271 0.41965 0.0
C3500 C 0.90199 0.86641 0.42299 0.0
C3501 C 0.87508 0.87383 0.42029 0.0
C3502 C 0.90559 0.8816 0.42653 0.0
C3503 C 0.8942 0.8929 0.42653 0.0
H3504 H 0.09399 0.87186 0.42343 0.0
H3505 H 0.12891 0.83758 0.41929 0.0
H3506 H 0.14832 0.85752 0.41653 0.0
H3507 H 0.15548 0.88454 0.4166 0.0
H3508 H 0.12135 0.919 0.42443 0.0
H3509 H 0.10142 0.89924 0.4244 0.0
C3510 C 0.10584 0.86881 0.42171 0.0
C3511 C 0.11003 0.85326 0.42124 0.0
C3512 C 0.11702 0.88039 0.42086 0.0
C3513 C 0.12544 0.84943 0.4195 0.0
C3514 C 0.13651 0.86084 0.41796 0.0
C3515 C 0.14364 0.8878 0.41804 0.0
C3516 C 0.13986 0.90332 0.42015 0.0
C3517 C 0.13245 0.87633 0.41875 0.0
C3518 C 0.12453 0.90722 0.42255 0.0
C3519 C 0.11317 0.8959 0.42259 0.0
H3520 H 0.13295 0.91117 0.57961 0.0
H3521 H 0.16678 0.87642 0.58742 0.0
H3522 H 0.14663 0.85714 0.58957 0.0
H3523 H 0.11959 0.84994 0.5878 0.0
H3524 H 0.08596 0.88384 0.57628 0.0
H3525 H 0.10572 0.90373 0.57704 0.0
C3526 C 0.13585 0.89939 0.58203 0.0
C3527 C 0.15133 0.89525 0.58371 0.0
C3528 C 0.12421 0.88826 0.5825 0.0
C3529 C 0.15498 0.8799 0.58631 0.0
C3530 C 0.14345 0.86889 0.58749 0.0
C3531 C 0.11651 0.86173 0.58572 0.0
C3532 C 0.1012 0.86545 0.58233 0.0
C3533 C 0.12805 0.8729 0.58544 0.0
C3534 C 0.09755 0.8807 0.57912 0.0
C3535 C 0.10889 0.89204 0.57951 0.0
H3536 H 0.09426 0.13535 0.57308 0.0
H3537 H 0.12588 0.16679 0.59358 0.0
H3538 H 0.14479 0.14628 0.59616 0.0
H3539 H 0.15267 0.11975 0.59151 0.0
H3540 H 0.12205 0.08881 0.56866 0.0
H3541 H 0.10231 0.10865 0.56821 0.0
C3542 C 0.10529 0.13763 0.57818 0.0
C3543 C 0.1087 0.15251 0.58324 0.0
C3544 C 0.1162 0.12584 0.57924 0.0
C3545 C 0.12304 0.15544 0.58964 0.0
C3546 C 0.13381 0.1437 0.59113 0.0
C3547 C 0.14158 0.1172 0.58668 0.0
C3548 C 0.13878 0.10264 0.58037 0.0
C3549 C 0.13055 0.12888 0.58588 0.0
C3550 C 0.12446 0.09978 0.57379 0.0
C3551 C 0.11321 0.11118 0.57344 0.0
H3552 H 0.8845 0.15469 0.58589 0.0
H3553 H 0.91935 0.12094 0.57818 0.0
H3554 H 0.89992 0.10071 0.57877 0.0
H3555 H 0.87273 0.09283 0.58029 0.0
H3556 H 0.83786 0.12719 0.58424 0.0
H3557 H 0.85749 0.14702 0.58636 0.0
C3558 C 0.88789 0.14287 0.5846 0.0
C3559 C 0.90344 0.13928 0.58237 0.0
C3560 C 0.87658 0.13146 0.58419 0.0
C3561 C 0.90754 0.12397 0.58015 0.0
C3562 C 0.8964 0.11244 0.58043 0.0
C3563 C 0.86947 0.10466 0.58182 0.0
C3564 C 0.85384 0.10854 0.58243 0.0
C3565 C 0.88086 0.11606 0.58231 0.0
C3566 C 0.84976 0.12392 0.58392 0.0
C3567 C 0.861 0.13524 0.5851 0.0
H3568 H 0.90916 0.86802 0.57529 0.0
H3569 H 0.87555 0.83624 0.5917 0.0
H3570 H 0.85707 0.8571 0.59456 0.0
H3571 H 0.85015 0.8841 0.59122 0.0
H3572 H 0.88265 0.91542 0.57178 0.0
H3573 H 0.90196 0.89514 0.57135 0.0
C3574 C 0.8978 0.86574 0.57962 0.0
C3575 C 0.89373 0.85066 0.5835 0.0
C3576 C 0.8871 0.87773 0.58068 0.0
C3577 C 0.87893 0.84774 0.58876 0.0
C3578 C 0.8684 0.85968 0.59038 0.0
C3579 C 0.86155 0.88661 0.58716 0.0
C3580 C 0.86503 0.90143 0.58185 0.0
C3581 C 0.87233 0.8747 0.58628 0.0
C3582 C 0.87972 0.90425 0.57615 0.0
C3583 C 0.89073 0.89261 0.57583 0.0
H3584 H 0.44182 0.11299 0.14566 0.0
H3585 H 0.40146 0.09234 0.12697 0.0
H3586 H 0.39814 0.1142 0.10967 0.0
H3587 H 0.40684 0.13951 0.10001 0.0
H3588 H 0.44616 0.16062 0.12078 0.0
H3589 H 0.44954 0.13855 0.13726 0.0
C3590 C 0.43245 0.11317 0.13758 0.0
C3591 C 0.42219 0.10085 0.13718 0.0
C3592 C 0.43026 0.12607 0.12826 0.0
C3593 C 0.40973 0.1015 0.12716 0.0
C3594 C 0.40777 0.11408 0.1174 0.0
C3595 C 0.41601 0.13938 0.1083 0.0
C3596 C 0.42621 0.15185 0.10908 0.0
C3597 C 0.41791 0.12653 0.11791 0.0
C3598 C 0.43806 0.15134 0.11989 0.0
C3599 C 0.4401 0.13862 0.12928 0.0
H3600 H 0.886 0.41649 0.15776 0.0
H3601 H 0.92033 0.42642 0.12406 0.0
H3602 H 0.9008 0.42573 0.10394 0.0
H3603 H 0.87359 0.42386 0.09624 0.0
H3604 H 0.83918 0.41775 0.13074 0.0
H3605 H 0.85903 0.41531 0.15028 0.0
C3606 C 0.88929 0.41821 0.14596 0.0
C3607 C 0.9047 0.42114 0.14236 0.0
C3608 C 0.87789 0.41858 0.13465 0.0
C3609 C 0.90863 0.42391 0.1271 0.0
C3610 C 0.89743 0.42358 0.11563 0.0
C3611 C 0.8705 0.42175 0.10802 0.0
C3612 C 0.85494 0.42066 0.11203 0.0
C3613 C 0.88199 0.42112 0.11929 0.0
C3614 C 0.85104 0.41843 0.12737 0.0
C3615 C 0.8624 0.41708 0.13853 0.0
H3616 H 0.58793 0.88919 0.15156 0.0
H3617 H 0.57551 0.92295 0.1181 0.0
H3618 H 0.57529 0.90318 0.09821 0.0
H3619 H 0.57757 0.87594 0.09063 0.0
H3620 H 0.58648 0.84202 0.12501 0.0
H3621 H 0.58917 0.86213 0.1443 0.0
C3622 C 0.58543 0.8923 0.13985 0.0
C3623 C 0.58211 0.90765 0.13624 0.0
C3624 C 0.58459 0.88076 0.12871 0.0
C3625 C 0.57835 0.91133 0.12113 0.0
C3626 C 0.57816 0.89999 0.1098 0.0
C3627 C 0.58024 0.87301 0.10235 0.0
C3628 C 0.58209 0.85754 0.1064 0.0
C3629 C 0.58112 0.88463 0.11348 0.0
C3630 C 0.58514 0.85383 0.12163 0.0
C3631 C 0.58667 0.86533 0.13263 0.0
H3632 H 0.12056 0.58715 0.15572 0.0
H3633 H 0.08616 0.57806 0.12185 0.0
H3634 H 0.10565 0.5793 0.10171 0.0
H3635 H 0.13283 0.58168 0.09395 0.0
H3636 H 0.16733 0.58702 0.12848 0.0
H3637 H 0.14753 0.58861 0.14818 0.0
C3638 C 0.11725 0.5857 0.14389 0.0
C3639 C 0.10182 0.58288 0.14025 0.0
C3640 C 0.12863 0.58568 0.13253 0.0
C3641 C 0.09787 0.58047 0.12493 0.0
C3642 C 0.10905 0.58113 0.11344 0.0
C3643 C 0.13596 0.58341 0.10579 0.0
C3644 C 0.15153 0.58456 0.10975 0.0
C3645 C 0.1245 0.58357 0.11712 0.0
C3646 C 0.15546 0.5863 0.12515 0.0
C3647 C 0.14413 0.58717 0.13639 0.0
H3648 H 0.41765 0.88457 0.85191 0.0
H3649 H 0.42769 0.91814 0.88632 0.0
H3650 H 0.42772 0.89807 0.90592 0.0
H3651 H 0.42616 0.87061 0.91299 0.0
H3652 H 0.41983 0.83705 0.87771 0.0
H3653 H 0.41701 0.85737 0.8587 0.0
C3654 C 0.41958 0.88755 0.86375 0.0
C3655 C 0.4223 0.90292 0.86771 0.0
C3656 C 0.42033 0.87586 0.87476 0.0
C3657 C 0.42535 0.90648 0.88301 0.0
C3658 C 0.42541 0.89497 0.89419 0.0
C3659 C 0.42395 0.86781 0.90115 0.0
C3660 C 0.42288 0.85234 0.89677 0.0
C3661 C 0.42307 0.87959 0.89018 0.0
C3662 C 0.42051 0.84883 0.88136 0.0
C3663 C 0.41893 0.86046 0.87051 0.0
H3664 H 0.11922 0.41674 0.84846 0.0
H3665 H 0.08524 0.42418 0.88315 0.0
H3666 H 0.10526 0.42382 0.90281 0.0
H3667 H 0.13271 0.42262 0.90991 0.0
H3668 H 0.16659 0.41885 0.87454 0.0
H3669 H 0.14639 0.41649 0.85533 0.0
C3670 C 0.11612 0.41802 0.86036 0.0
C3671 C 0.10064 0.4201 0.86436 0.0
C3672 C 0.12776 0.41855 0.87144 0.0
C3673 C 0.09697 0.42232 0.87978 0.0
C3674 C 0.10845 0.42217 0.891 0.0
C3675 C 0.13564 0.42106 0.898 0.0
C3676 C 0.15117 0.42058 0.89367 0.0
C3677 C 0.12391 0.42043 0.88695 0.0
C3678 C 0.15479 0.41906 0.87817 0.0
C3679 C 0.14322 0.41775 0.86721 0.0
H3680 H 0.58245 0.12032 0.84815 0.0
H3681 H 0.57495 0.08625 0.88273 0.0
H3682 H 0.57495 0.10621 0.90243 0.0
H3683 H 0.57599 0.13354 0.90962 0.0
H3684 H 0.57981 0.16769 0.87455 0.0
H3685 H 0.5824 0.1476 0.85518 0.0
C3686 C 0.58105 0.11723 0.86005 0.0
C3687 C 0.57907 0.10174 0.86403 0.0
C3688 C 0.58034 0.12885 0.87116 0.0
C3689 C 0.57671 0.09801 0.8794 0.0
C3690 C 0.57667 0.10944 0.89063 0.0
C3691 C 0.57761 0.13655 0.89774 0.0
C3692 C 0.57808 0.1521 0.89352 0.0
C3693 C 0.57836 0.12492 0.88663 0.0
C3694 C 0.57965 0.15585 0.87807 0.0
C3695 C 0.58108 0.14435 0.86702 0.0
H3696 H 0.87011 0.58769 0.90955 0.0
H3697 H 0.8387 0.57099 0.87563 0.0
H3698 H 0.85914 0.57085 0.85662 0.0
H3699 H 0.8861 0.57466 0.84977 0.0
H3700 H 0.91826 0.58895 0.88398 0.0
H3701 H 0.89748 0.59083 0.90279 0.0
C3702 C 0.86769 0.58426 0.89793 0.0
C3703 C 0.85277 0.57963 0.89395 0.0
C3704 C 0.8797 0.58364 0.88718 0.0
C3705 C 0.84997 0.57479 0.87895 0.0
C3706 C 0.86169 0.57464 0.86809 0.0
C3707 C 0.88853 0.57824 0.86136 0.0
C3708 C 0.90365 0.58178 0.8655 0.0
C3709 C 0.87661 0.5789 0.87211 0.0
C3710 C 0.90672 0.58617 0.88056 0.0
C3711 C 0.89482 0.58728 0.89127 0.0
H3712 H 0.1512 0.4105 0.11447 0.0
H3713 H 0.12551 0.44255 0.0874 0.0
H3714 H 0.10638 0.44442 0.10762 0.0
H3715 H 0.09768 0.43817 0.13375 0.0
H3716 H 0.12376 0.40693 0.16118 0.0
H3717 H 0.14206 0.40359 0.14021 0.0
C3718 C 0.14125 0.41765 0.11281 0.0
C3719 C 0.13978 0.42626 0.09925 0.0
C3720 C 0.1305 0.41903 0.12473 0.0
C3721 C 0.12691 0.43567 0.09756 0.0
C3722 C 0.11602 0.43685 0.10921 0.0
C3723 C 0.1074 0.43064 0.13508 0.0
C3724 C 0.1095 0.4229 0.149 0.0
C3725 C 0.11784 0.42883 0.12296 0.0
C3726 C 0.12203 0.4131 0.15062 0.0
C3727 C 0.13243 0.41116 0.1386 0.0
H3728 H 0.09564 0.58146 0.87074 0.0
H3729 H 0.13134 0.58404 0.8371 0.0
H3730 H 0.15041 0.58661 0.85739 0.0
H3731 H 0.15703 0.5869 0.88455 0.0
H3732 H 0.12204 0.58063 0.91846 0.0
H3733 H 0.10251 0.58077 0.89829 0.0
C3734 C 0.10759 0.5828 0.86789 0.0
C3735 C 0.11208 0.58288 0.85241 0.0
C3736 C 0.11855 0.58355 0.87969 0.0
C3737 C 0.12762 0.58412 0.84888 0.0
C3738 C 0.13849 0.58556 0.86049 0.0
C3739 C 0.14509 0.58583 0.8876 0.0
C3740 C 0.14096 0.58415 0.90308 0.0
C3741 C 0.13411 0.58516 0.87591 0.0
C3742 C 0.1255 0.58219 0.90671 0.0
C3743 C 0.11437 0.58221 0.89515 0.0
H3744 H 0.41534 0.0936 0.86532 0.0
H3745 H 0.42533 0.12986 0.8337 0.0
H3746 H 0.42352 0.14855 0.8544 0.0
H3747 H 0.42023 0.15447 0.88169 0.0
H3748 H 0.41364 0.11805 0.91392 0.0
H3749 H 0.41294 0.09947 0.89289 0.0
C3750 C 0.41686 0.10564 0.86293 0.0
C3751 C 0.42013 0.11039 0.84789 0.0
C3752 C 0.41651 0.11623 0.87506 0.0
C3753 C 0.42259 0.12595 0.84508 0.0
C3754 C 0.42161 0.13661 0.85694 0.0
C3755 C 0.41847 0.14246 0.88407 0.0
C3756 C 0.4167 0.13761 0.89929 0.0
C3757 C 0.41873 0.13187 0.87199 0.0
C3758 C 0.41488 0.12202 0.9023 0.0
C3759 C 0.4145 0.11144 0.89026 0.0
H3760 H 0.84848 0.41937 0.8847 0.0
H3761 H 0.88369 0.42625 0.91824 0.0
H3762 H 0.90314 0.42536 0.89805 0.0
H3763 H 0.90993 0.42374 0.87062 0.0
H3764 H 0.87423 0.42061 0.83703 0.0
H3765 H 0.85511 0.41886 0.8574 0.0
C3766 C 0.86045 0.42043 0.88762 0.0
C3767 C 0.86469 0.4225 0.90302 0.0
C3768 C 0.87142 0.42065 0.87588 0.0
C3769 C 0.88017 0.42442 0.90655 0.0
C3770 C 0.89125 0.42396 0.89498 0.0
C3771 C 0.89796 0.42246 0.86779 0.0
C3772 C 0.89349 0.42197 0.85232 0.0
C3773 C 0.887 0.4222 0.87959 0.0
C3774 C 0.87794 0.42082 0.84881 0.0
C3775 C 0.86703 0.41986 0.86046 0.0
H3776 H 0.5802 0.90843 0.86933 0.0
H3777 H 0.58679 0.87373 0.83522 0.0
H3778 H 0.58919 0.85434 0.85525 0.0
H3779 H 0.58803 0.84707 0.88232 0.0
H3780 H 0.57768 0.881 0.9163 0.0
H3781 H 0.57817 0.90093 0.89659 0.0
C3782 C 0.5824 0.89664 0.86634 0.0
C3783 C 0.58366 0.89253 0.85082 0.0
C3784 C 0.58301 0.88546 0.87792 0.0
C3785 C 0.58599 0.87717 0.84705 0.0
C3786 C 0.58731 0.86611 0.85851 0.0
C3787 C 0.58615 0.85888 0.88548 0.0
C3788 C 0.58318 0.8626 0.90086 0.0
C3789 C 0.5857 0.87009 0.87397 0.0
C3790 C 0.58021 0.87787 0.90463 0.0
C3791 C 0.58044 0.88924 0.89333 0.0
H3792 H 0.91139 0.58159 0.13056 0.0
H3793 H 0.87694 0.58498 0.16541 0.0
H3794 H 0.85719 0.58758 0.14578 0.0
H3795 H 0.84959 0.58764 0.11884 0.0
H3796 H 0.88331 0.58053 0.08383 0.0
H3797 H 0.90353 0.58068 0.10329 0.0
C3798 C 0.89956 0.58311 0.13382 0.0
C3799 C 0.89563 0.5834 0.14945 0.0
C3800 C 0.88819 0.58387 0.12241 0.0
C3801 C 0.88024 0.58489 0.15351 0.0
C3802 C 0.86897 0.58634 0.14227 0.0
C3803 C 0.8614 0.58639 0.1154 0.0
C3804 C 0.86498 0.58446 0.09981 0.0
C3805 C 0.87279 0.58573 0.12671 0.0
C3806 C 0.88028 0.58228 0.09567 0.0
C3807 C 0.89181 0.58231 0.10683 0.0
H3808 H 0.41888 0.84792 0.12203 0.0
H3809 H 0.42801 0.88281 0.08868 0.0
H3810 H 0.42704 0.90233 0.10877 0.0
H3811 H 0.42498 0.90923 0.13615 0.0
H3812 H 0.41964 0.87373 0.16965 0.0
H3813 H 0.41768 0.85464 0.14927 0.0
C3814 C 0.42039 0.85984 0.11911 0.0
C3815 C 0.42316 0.86396 0.10379 0.0
C3816 C 0.42058 0.87084 0.13083 0.0
C3817 C 0.42564 0.87938 0.1003 0.0
C3818 C 0.42514 0.89051 0.11182 0.0
C3819 C 0.42316 0.89732 0.13893 0.0
C3820 C 0.42213 0.89289 0.15437 0.0
C3821 C 0.42279 0.88635 0.12715 0.0
C3822 C 0.42028 0.87741 0.15788 0.0
C3823 C 0.41919 0.86652 0.14622 0.0
H3824 H 0.58829 0.15904 0.11869 0.0
H3825 H 0.56814 0.12704 0.08731 0.0
H3826 H 0.56768 0.10756 0.10739 0.0
H3827 H 0.57174 0.10005 0.13437 0.0
H3828 H 0.58922 0.13299 0.16628 0.0
H3829 H 0.592 0.1517 0.14561 0.0
C3830 C 0.58408 0.14771 0.11613 0.0
C3831 C 0.57854 0.14444 0.10134 0.0
C3832 C 0.58322 0.1368 0.12795 0.0
C3833 C 0.57268 0.12982 0.09845 0.0
C3834 C 0.57233 0.11871 0.10999 0.0
C3835 C 0.57626 0.11132 0.13673 0.0
C3836 C 0.58042 0.11514 0.15179 0.0
C3837 C 0.57737 0.12213 0.12484 0.0
C3838 C 0.58601 0.12981 0.15479 0.0
C3839 C 0.5876 0.14047 0.14295 0.0
H3840 H 0.6351 0.59548 0.91104 0.0
H3841 H 0.66173 0.62434 0.94068 0.0
H3842 H 0.64051 0.64223 0.94257 0.0
H3843 H 0.61419 0.64958 0.93634 0.0
H3844 H 0.5872 0.62128 0.90674 0.0
H3845 H 0.60857 0.60319 0.90441 0.0
C3846 C 0.63635 0.60581 0.91771 0.0
C3847 C 0.65015 0.60858 0.9256 0.0
C3848 C 0.6239 0.61601 0.91898 0.0
C3849 C 0.65139 0.62192 0.93439 0.0
C3850 C 0.63918 0.63214 0.93556 0.0
C3851 C 0.61296 0.63933 0.92952 0.0
C3852 C 0.59907 0.63656 0.92197 0.0
C3853 C 0.62535 0.62922 0.92807 0.0
C3854 C 0.59767 0.62346 0.9129 0.0
C3855 C 0.60995 0.61322 0.91148 0.0
H3856 H 0.40822 0.63215 0.92207 0.0
H3857 H 0.37208 0.6654 0.92369 0.0
H3858 H 0.35307 0.64497 0.92196 0.0
H3859 H 0.3467 0.61769 0.92108 0.0
H3860 H 0.38245 0.58409 0.92312 0.0
H3861 H 0.40171 0.60452 0.92232 0.0
C3862 C 0.39616 0.6349 0.92181 0.0
C3863 C 0.39153 0.65031 0.92265 0.0
C3864 C 0.38529 0.623 0.92156 0.0
C3865 C 0.37591 0.65368 0.92283 0.0
C3866 C 0.36506 0.64199 0.9219 0.0
C3867 C 0.35873 0.61482 0.92114 0.0
C3868 C 0.36317 0.59936 0.92179 0.0
C3869 C 0.36961 0.62662 0.92137 0.0
C3870 C 0.37876 0.59585 0.92241 0.0
C3871 C 0.38974 0.60755 0.92198 0.0
H3872 H 0.38414 0.34676 0.92025 0.0
H3873 H 0.41763 0.38114 0.93064 0.0
H3874 H 0.39775 0.4009 0.9294 0.0
H3875 H 0.3705 0.40819 0.92647 0.0
H3876 H 0.33678 0.37315 0.91972 0.0
H3877 H 0.357 0.35382 0.91836 0.0
C3878 C 0.38715 0.35862 0.92201 0.0
C3879 C 0.40246 0.36251 0.92519 0.0
C3880 C 0.37554 0.36976 0.92199 0.0
C3881 C 0.40603 0.37786 0.92797 0.0
C3882 C 0.39463 0.38914 0.9273 0.0
C3883 C 0.36763 0.39633 0.92449 0.0
C3884 C 0.35217 0.39212 0.92285 0.0
C3885 C 0.37931 0.38521 0.92445 0.0
C3886 C 0.34857 0.37668 0.9208 0.0
C3887 C 0.36014 0.36565 0.92007 0.0
H3888 H 0.5948 0.37105 0.92805 0.0
H3889 H 0.62904 0.33634 0.9222 0.0
H3890 H 0.64868 0.35608 0.91929 0.0
H3891 H 0.65626 0.38308 0.91971 0.0
H3892 H 0.62277 0.4178 0.92908 0.0
H3893 H 0.60263 0.39829 0.92926 0.0
C3894 C 0.60655 0.36786 0.92592 0.0
C3895 C 0.61045 0.35225 0.925 0.0
C3896 C 0.61786 0.3793 0.92496 0.0
C3897 C 0.62575 0.34823 0.92274 0.0
C3898 C 0.63696 0.35954 0.92112 0.0
C3899 C 0.64451 0.38646 0.92153 0.0
C3900 C 0.641 0.402 0.92403 0.0
C3901 C 0.63317 0.37509 0.92234 0.0
C3902 C 0.62577 0.40602 0.9269 0.0
C3903 C 0.61428 0.39483 0.92707 0.0
H3904 H 0.62086 0.35402 0.09295 0.0
H3905 H 0.58846 0.38941 0.08241 0.0
H3906 H 0.60903 0.40844 0.0829 0.0
H3907 H 0.63654 0.41466 0.08482 0.0
H3908 H 0.6691 0.3785 0.09152 0.0
H3909 H 0.64822 0.36005 0.09413 0.0
C3910 C 0.61825 0.36595 0.09104 0.0
C3911 C 0.60307 0.37037 0.088 0.0
C3912 C 0.63023 0.37662 0.09057 0.0
C3913 C 0.59997 0.38577 0.085 0.0
C3914 C 0.61176 0.39662 0.08522 0.0
C3915 C 0.63901 0.40276 0.08711 0.0
C3916 C 0.65432 0.39795 0.08833 0.0
C3917 C 0.62696 0.39214 0.08782 0.0
C3918 C 0.65742 0.38247 0.09076 0.0
C3919 C 0.64549 0.37194 0.09219 0.0
H3920 H 0.65733 0.6232 0.08465 0.0
H3921 H 0.62259 0.58927 0.07729 0.0
H3922 H 0.60291 0.60924 0.07797 0.0
H3923 H 0.59579 0.63664 0.07933 0.0
H3924 H 0.63111 0.67056 0.0829 0.0
H3925 H 0.6504 0.6504 0.08509 0.0
C3926 C 0.64541 0.62013 0.08346 0.0
C3927 C 0.64139 0.60469 0.08129 0.0
C3928 C 0.63431 0.63175 0.0831 0.0
C3929 C 0.62596 0.60099 0.0792 0.0
C3930 C 0.61474 0.61244 0.07954 0.0
C3931 C 0.60771 0.63957 0.08082 0.0
C3932 C 0.61203 0.65508 0.08129 0.0
C3933 C 0.61879 0.62788 0.08132 0.0
C3934 C 0.62752 0.65875 0.0827 0.0
C3935 C 0.63852 0.64721 0.08391 0.0
H3936 H 0.36992 0.5936 0.07896 0.0
H3937 H 0.33685 0.62955 0.08399 0.0
H3938 H 0.35746 0.64836 0.0862 0.0
H3939 H 0.38483 0.65471 0.08552 0.0
H3940 H 0.41782 0.61941 0.07672 0.0
H3941 H 0.39743 0.60016 0.07721 0.0
C3942 C 0.36728 0.60555 0.08074 0.0
C3943 C 0.35188 0.61019 0.08163 0.0
C3944 C 0.37921 0.61637 0.08127 0.0
C3945 C 0.34857 0.62572 0.08345 0.0
C3946 C 0.36037 0.63645 0.08468 0.0
C3947 C 0.38759 0.64275 0.08396 0.0
C3948 C 0.4029 0.63843 0.08147 0.0
C3949 C 0.37572 0.63192 0.08349 0.0
C3950 C 0.40621 0.62299 0.0789 0.0
C3951 C 0.39452 0.61202 0.07912 0.0
H3952 H 0.4068 0.36588 0.06551 0.0
H3953 H 0.38443 0.34267 0.10249 0.0
H3954 H 0.36697 0.36438 0.10572 0.0
H3955 H 0.3575 0.38962 0.09728 0.0
H3956 H 0.38023 0.4128 0.06032 0.0
H3957 H 0.39829 0.39171 0.05806 0.0
C3958 C 0.39804 0.3656 0.07423 0.0
C3959 C 0.39669 0.35262 0.0836 0.0
C3960 C 0.38825 0.37823 0.07614 0.0
C3961 C 0.38552 0.35246 0.09504 0.0
C3962 C 0.37561 0.36491 0.09691 0.0
C3963 C 0.36658 0.39023 0.08892 0.0
C3964 C 0.36747 0.40294 0.07903 0.0
C3965 C 0.37682 0.37785 0.08749 0.0
C3966 C 0.37927 0.40332 0.06817 0.0
C3967 C 0.38955 0.39116 0.06678 0.0
H3968 H 0.92398 0.62908 0.59291 0.0
H3969 H 0.92137 0.6638 0.62754 0.0
H3970 H 0.91925 0.64411 0.64729 0.0
H3971 H 0.9193 0.61707 0.65481 0.0
H3972 H 0.92568 0.58225 0.62077 0.0
H3973 H 0.92512 0.60179 0.60065 0.0
C3974 C 0.92276 0.63229 0.60478 0.0
C3975 C 0.92253 0.6479 0.60876 0.0
C3976 C 0.92226 0.62085 0.61614 0.0
C3977 C 0.92141 0.65191 0.6242 0.0
C3978 C 0.92022 0.64064 0.63547 0.0
C3979 C 0.92031 0.61371 0.64296 0.0
C3980 C 0.92214 0.59814 0.63926 0.0
C3981 C 0.92074 0.62508 0.63159 0.0
C3982 C 0.92401 0.59408 0.6239 0.0
C3983 C 0.92375 0.60528 0.61242 0.0
H3984 H 0.37144 0.92594 0.59592 0.0
H3985 H 0.33772 0.91908 0.63095 0.0
H3986 H 0.35796 0.91664 0.65012 0.0
H3987 H 0.38508 0.91794 0.65712 0.0
H3988 H 0.41867 0.92858 0.62289 0.0
H3989 H 0.39877 0.92799 0.60314 0.0
C3990 C 0.36858 0.92368 0.60774 0.0
C3991 C 0.35312 0.92236 0.61201 0.0
C3992 C 0.38029 0.92303 0.61879 0.0
C3993 C 0.34952 0.91994 0.62739 0.0
C3994 C 0.3611 0.91858 0.63833 0.0
C3995 C 0.38812 0.91984 0.64528 0.0
C3996 C 0.40344 0.92293 0.64142 0.0
C3997 C 0.3765 0.92027 0.63419 0.0
C3998 C 0.40705 0.92594 0.62612 0.0
C3999 C 0.39564 0.92567 0.61487 0.0
H4000 H 0.08624 0.38551 0.65611 0.0
H4001 H 0.08152 0.4203 0.62177 0.0
H4002 H 0.08196 0.40061 0.60177 0.0
H4003 H 0.08263 0.37323 0.59422 0.0
H4004 H 0.08366 0.33869 0.62912 0.0
H4005 H 0.08576 0.35847 0.64878 0.0
C4006 C 0.08556 0.38884 0.64422 0.0
C4007 C 0.08425 0.40443 0.64041 0.0
C4008 C 0.08507 0.37742 0.63293 0.0
C4009 C 0.08279 0.40845 0.62499 0.0
C4010 C 0.08298 0.39716 0.61358 0.0
C4011 C 0.08349 0.37007 0.60614 0.0
C4012 C 0.08329 0.35448 0.61022 0.0
C4013 C 0.084 0.38158 0.61742 0.0
C4014 C 0.08395 0.35056 0.6257 0.0
C4015 C 0.08513 0.36188 0.63692 0.0
H4016 H 0.62233 0.0837 0.65617 0.0
H4017 H 0.58772 0.08021 0.62151 0.0
H4018 H 0.60759 0.0803 0.60167 0.0
H4019 H 0.63507 0.08022 0.59434 0.0
H4020 H 0.66929 0.08003 0.62956 0.0
H4021 H 0.64941 0.08258 0.64905 0.0
C4022 C 0.61909 0.08321 0.64425 0.0
C4023 C 0.60349 0.08233 0.64031 0.0
C4024 C 0.63059 0.08252 0.63304 0.0
C4025 C 0.59957 0.08112 0.62484 0.0
C4026 C 0.61096 0.08112 0.61352 0.0
C4027 C 0.63814 0.08095 0.60629 0.0
C4028 C 0.65369 0.08027 0.61051 0.0
C4029 C 0.62654 0.08169 0.61749 0.0
C4030 C 0.65748 0.08072 0.62603 0.0
C4031 C 0.64609 0.08214 0.63716 0.0
H4032 H 0.92705 0.37169 0.41119 0.0
H4033 H 0.91992 0.33817 0.37602 0.0
H4034 H 0.9181 0.35849 0.35687 0.0
H4035 H 0.91982 0.38561 0.34997 0.0
H4036 H 0.93063 0.41898 0.38436 0.0
H4037 H 0.9297 0.39901 0.40404 0.0
C4038 C 0.92488 0.3689 0.39934 0.0
C4039 C 0.92328 0.35346 0.39502 0.0
C4040 C 0.92458 0.38064 0.38831 0.0
C4041 C 0.92098 0.34994 0.37961 0.0
C4042 C 0.91998 0.36157 0.36868 0.0
C4043 C 0.92172 0.38859 0.36182 0.0
C4044 C 0.92494 0.40388 0.36575 0.0
C4045 C 0.9219 0.37694 0.37288 0.0
C4046 C 0.92791 0.40739 0.38107 0.0
C4047 C 0.92743 0.39594 0.39229 0.0
H4048 H 0.63349 0.91885 0.40842 0.0
H4049 H 0.6676 0.92751 0.37412 0.0
H4050 H 0.64793 0.92683 0.35427 0.0
H4051 H 0.6209 0.9249 0.34677 0.0
H4052 H 0.58634 0.91945 0.38119 0.0
H4053 H 0.60622 0.91771 0.40094 0.0
C4054 C 0.63665 0.92032 0.39656 0.0
C4055 C 0.65209 0.9229 0.39272 0.0
C4056 C 0.62514 0.9206 0.38528 0.0
C4057 C 0.65589 0.92529 0.37736 0.0
C4058 C 0.64462 0.92497 0.36602 0.0
C4059 C 0.61775 0.92317 0.3586 0.0
C4060 C 0.60219 0.92204 0.36253 0.0
C4061 C 0.6292 0.92278 0.36987 0.0
C4062 C 0.59822 0.92023 0.3779 0.0
C4063 C 0.6096 0.91925 0.38916 0.0
H4064 H 0.08051 0.6337 0.41007 0.0
H4065 H 0.08701 0.66773 0.37525 0.0
H4066 H 0.09003 0.64764 0.35603 0.0
H4067 H 0.08939 0.62061 0.34892 0.0
H4068 H 0.07922 0.58652 0.38281 0.0
H4069 H 0.07911 0.60633 0.40267 0.0
C4070 C 0.08282 0.63666 0.39829 0.0
C4071 C 0.08386 0.65218 0.39409 0.0
C4072 C 0.08381 0.62502 0.38719 0.0
C4073 C 0.08636 0.6559 0.37875 0.0
C4074 C 0.08804 0.64441 0.36779 0.0
C4075 C 0.08742 0.61743 0.3607 0.0
C4076 C 0.08466 0.602 0.36442 0.0
C4077 C 0.08663 0.62895 0.37184 0.0
C4078 C 0.08159 0.59822 0.37967 0.0
C4079 C 0.08147 0.60958 0.39099 0.0
H4080 H 0.39242 0.06052 0.35522 0.0
H4081 H 0.41236 0.10164 0.37301 0.0
H4082 H 0.39082 0.1045 0.39082 0.0
H4083 H 0.36593 0.09519 0.40114 0.0
H4084 H 0.34556 0.05507 0.38115 0.0
H4085 H 0.36736 0.05214 0.3643 0.0
C4086 C 0.39216 0.06998 0.3632 0.0
C4087 C 0.40419 0.08058 0.36318 0.0
C4088 C 0.37945 0.07188 0.37283 0.0
C4089 C 0.40344 0.09311 0.37312 0.0
C4090 C 0.39104 0.09481 0.38318 0.0
C4091 C 0.36617 0.08593 0.39295 0.0
C4092 C 0.35397 0.07538 0.3925 0.0
C4093 C 0.37887 0.0843 0.38308 0.0
C4094 C 0.35462 0.06343 0.38181 0.0
C4095 C 0.36719 0.06165 0.37219 0.0
H4096 H 0.59355 0.92309 0.63214 0.0
H4097 H 0.6287 0.91637 0.66578 0.0
H4098 H 0.64787 0.91437 0.64548 0.0
H4099 H 0.65477 0.91584 0.61833 0.0
H4100 H 0.62036 0.92631 0.58487 0.0
H4101 H 0.60068 0.9255 0.60484 0.0
C4102 C 0.60539 0.92096 0.63498 0.0
C4103 C 0.60969 0.91954 0.65044 0.0
C4104 C 0.61643 0.92057 0.62325 0.0
C4105 C 0.62511 0.9173 0.654 0.0
C4106 C 0.63605 0.9162 0.64238 0.0
C4107 C 0.64292 0.91768 0.61534 0.0
C4108 C 0.63897 0.92076 0.60003 0.0
C4109 C 0.63186 0.91795 0.62699 0.0
C4110 C 0.62365 0.92369 0.59648 0.0
C4111 C 0.61244 0.92328 0.60793 0.0
H4112 H 0.6554 0.08743 0.38449 0.0
H4113 H 0.62078 0.08178 0.41887 0.0
H4114 H 0.60099 0.08196 0.39898 0.0
H4115 H 0.59376 0.0824 0.37159 0.0
H4116 H 0.62897 0.0843 0.33739 0.0
H4117 H 0.64836 0.08697 0.35737 0.0
C4118 C 0.64349 0.08651 0.38768 0.0
C4119 C 0.63953 0.08497 0.40321 0.0
C4120 C 0.63233 0.08586 0.37614 0.0
C4121 C 0.6241 0.08322 0.40707 0.0
C4122 C 0.61282 0.08326 0.39567 0.0
C4123 C 0.60568 0.08362 0.36854 0.0
C4124 C 0.60993 0.08347 0.353 0.0
C4125 C 0.61682 0.08442 0.38015 0.0
C4126 C 0.62542 0.08456 0.34921 0.0
C4127 C 0.63649 0.08606 0.36065 0.0
H4128 H 0.92453 0.59497 0.36859 0.0
H4129 H 0.91772 0.63048 0.33535 0.0
H4130 H 0.91503 0.64931 0.35587 0.0
H4131 H 0.91594 0.6559 0.38314 0.0
H4132 H 0.92647 0.62122 0.41631 0.0
H4133 H 0.92634 0.60181 0.39606 0.0
C4134 C 0.92223 0.60682 0.36588 0.0
C4135 C 0.92098 0.6113 0.35045 0.0
C4136 C 0.92144 0.61769 0.37777 0.0
C4137 C 0.91852 0.62674 0.34709 0.0
C4138 C 0.91703 0.63749 0.35884 0.0
C4139 C 0.91794 0.64404 0.38601 0.0
C4140 C 0.92084 0.63996 0.40133 0.0
C4141 C 0.9186 0.63313 0.37421 0.0
C4142 C 0.92397 0.62463 0.4047 0.0
C4143 C 0.92396 0.61356 0.39309 0.0
H4144 H 0.41135 0.92422 0.37451 0.0
H4145 H 0.3769 0.91993 0.33977 0.0
H4146 H 0.35717 0.91754 0.35946 0.0
H4147 H 0.3496 0.91793 0.38643 0.0
H4148 H 0.38335 0.926 0.4212 0.0
H4149 H 0.40354 0.9256 0.40173 0.0
C4150 C 0.39952 0.92256 0.3713 0.0
C4151 C 0.39557 0.92195 0.35571 0.0
C4152 C 0.38817 0.92193 0.38272 0.0
C4153 C 0.3802 0.92027 0.35167 0.0
C4154 C 0.36895 0.91893 0.36293 0.0
C4155 C 0.36142 0.91933 0.3898 0.0
C4156 C 0.36503 0.92161 0.40532 0.0
C4157 C 0.37278 0.91987 0.37847 0.0
C4158 C 0.38031 0.92399 0.4094 0.0
C4159 C 0.39182 0.92382 0.39825 0.0
H4160 H 0.07906 0.41148 0.37083 0.0
H4161 H 0.08717 0.37619 0.33767 0.0
H4162 H 0.08959 0.3573 0.35818 0.0
H4163 H 0.0883 0.35067 0.38541 0.0
H4164 H 0.07668 0.38511 0.41844 0.0
H4165 H 0.0768 0.40457 0.39824 0.0
C4166 C 0.08151 0.39966 0.36816 0.0
C4167 C 0.08321 0.39522 0.35278 0.0
C4168 C 0.08225 0.38878 0.38002 0.0
C4169 C 0.08597 0.37986 0.3494 0.0
C4170 C 0.08734 0.36909 0.36114 0.0
C4171 C 0.08607 0.36249 0.38826 0.0
C4172 C 0.08287 0.36651 0.40352 0.0
C4173 C 0.08541 0.3734 0.37647 0.0
C4174 C 0.07942 0.38177 0.40688 0.0
C4175 C 0.07942 0.39286 0.3953 0.0
H4176 H 0.34942 0.08759 0.61906 0.0
H4177 H 0.38243 0.07867 0.58381 0.0
H4178 H 0.40298 0.07913 0.6029 0.0
H4179 H 0.41132 0.08086 0.62993 0.0
H4180 H 0.37761 0.08603 0.66526 0.0
H4181 H 0.35752 0.08831 0.64592 0.0
C4182 C 0.36115 0.086 0.61551 0.0
C4183 C 0.36445 0.08346 0.59995 0.0
C4184 C 0.37273 0.08553 0.62664 0.0
C4185 C 0.37963 0.08087 0.59564 0.0
C4186 C 0.39135 0.08108 0.60658 0.0
C4187 C 0.39958 0.0827 0.63334 0.0
C4188 C 0.39595 0.0836 0.649 0.0
C4189 C 0.38802 0.08326 0.62214 0.0
C4190 C 0.38067 0.08548 0.65331 0.0
C4191 C 0.36921 0.08675 0.64224 0.0
H4192 H 0.92021 0.34589 0.61948 0.0
H4193 H 0.92771 0.38034 0.58528 0.0
H4194 H 0.92648 0.40023 0.60503 0.0
H4195 H 0.92459 0.40762 0.63232 0.0
H4196 H 0.92087 0.3726 0.66656 0.0
H4197 H 0.91925 0.35309 0.64657 0.0
C4198 C 0.92131 0.35779 0.61628 0.0
C4199 C 0.92367 0.36167 0.60083 0.0
C4200 C 0.92136 0.36901 0.62779 0.0
C4201 C 0.92564 0.37708 0.59701 0.0
C4202 C 0.925 0.38842 0.60833 0.0
C4203 C 0.9232 0.39571 0.63537 0.0
C4204 C 0.92252 0.39155 0.65092 0.0
C4205 C 0.92302 0.38451 0.62379 0.0
C4206 C 0.92123 0.37608 0.65472 0.0
C4207 C 0.92034 0.36495 0.64328 0.0
H4208 H 0.08117 0.59508 0.63213 0.0
H4209 H 0.08488 0.62985 0.66662 0.0
H4210 H 0.08658 0.6495 0.64678 0.0
H4211 H 0.08565 0.65687 0.61974 0.0
H4212 H 0.07815 0.62265 0.58531 0.0
H4213 H 0.07934 0.60263 0.60491 0.0
C4214 C 0.08258 0.60696 0.63525 0.0
C4215 C 0.08322 0.61102 0.65082 0.0
C4216 C 0.0828 0.61823 0.62377 0.0
C4217 C 0.08455 0.62646 0.65475 0.0
C4218 C 0.08548 0.63767 0.64339 0.0
C4219 C 0.08454 0.64499 0.61647 0.0
C4220 C 0.08218 0.6412 0.60101 0.0
C4221 C 0.08447 0.6337 0.62788 0.0
C4222 C 0.0802 0.62583 0.59706 0.0
C4223 C 0.08083 0.61442 0.60829 0.0
H4224 H 0.10205 0.2349 0.44159 0.0
H4225 H 0.07232 0.21855 0.40607 0.0
H4226 H 0.06916 0.24455 0.39651 0.0
H4227 H 0.07068 0.27218 0.40177 0.0
H4228 H 0.1009 0.28852 0.43686 0.0
H4229 H 0.10837 0.26234 0.44286 0.0
C4230 C 0.09539 0.23699 0.43138 0.0
C4231 C 0.08738 0.22485 0.42457 0.0
C4232 C 0.09357 0.252 0.426 0.0
C4233 C 0.07872 0.22767 0.4114 0.0
C4234 C 0.07676 0.24258 0.40605 0.0
C4235 C 0.07942 0.27 0.41025 0.0
C4236 C 0.08524 0.28224 0.41886 0.0
C4237 C 0.08354 0.25489 0.41372 0.0
C4238 C 0.09643 0.27932 0.42993 0.0
C4239 C 0.10053 0.26431 0.43352 0.0
H4240 H 0.77777 0.07326 0.40688 0.0
H4241 H 0.7779 0.10768 0.44181 0.0
H4242 H 0.75036 0.11093 0.4391 0.0
H4243 H 0.72596 0.09925 0.43149 0.0
H4244 H 0.72577 0.06315 0.39831 0.0
H4245 H 0.75337 0.06547 0.39523 0.0
C4246 C 0.77185 0.08206 0.41325 0.0
C4247 C 0.77986 0.0904 0.42435 0.0
C4248 C 0.75585 0.0833 0.41213 0.0
C4249 C 0.77201 0.10138 0.43297 0.0
C4250 C 0.7562 0.10305 0.43158 0.0
C4251 C 0.73189 0.09253 0.42297 0.0
C4252 C 0.72384 0.08122 0.41495 0.0
C4253 C 0.74791 0.09345 0.42184 0.0
C4254 C 0.7317 0.07214 0.40435 0.0
C4255 C 0.74753 0.07332 0.40278 0.0
H4256 H 0.90221 0.77248 0.43802 0.0
H4257 H 0.93112 0.7875 0.40132 0.0
H4258 H 0.93389 0.76118 0.39251 0.0
H4259 H 0.93269 0.73371 0.39898 0.0
H4260 H 0.90312 0.71873 0.4352 0.0
H4261 H 0.8957 0.74512 0.44029 0.0
C4262 C 0.90846 0.77005 0.42763 0.0
C4263 C 0.9164 0.78193 0.42028 0.0
C4264 C 0.91011 0.75482 0.42274 0.0
C4265 C 0.92469 0.77862 0.407 0.0
C4266 C 0.92647 0.7635 0.40211 0.0
C4267 C 0.92405 0.7362 0.40748 0.0
C4268 C 0.91842 0.72428 0.41667 0.0
C4269 C 0.9199 0.75146 0.41039 0.0
C4270 C 0.90742 0.72765 0.42781 0.0
C4271 C 0.90334 0.74279 0.43087 0.0
H4272 H 0.22704 0.92977 0.40449 0.0
H4273 H 0.22568 0.89658 0.44055 0.0
H4274 H 0.2533 0.89333 0.43896 0.0
H4275 H 0.27795 0.90503 0.43197 0.0
H4276 H 0.27918 0.93962 0.39722 0.0
H4277 H 0.25175 0.93697 0.39323 0.0
C4278 C 0.23272 0.92117 0.41133 0.0
C4279 C 0.22431 0.91328 0.42248 0.0
C4280 C 0.24874 0.91989 0.41079 0.0
C4281 C 0.23186 0.90256 0.43168 0.0
C4282 C 0.24772 0.90089 0.43094 0.0
C4283 C 0.27233 0.91131 0.42292 0.0
C4284 C 0.2806 0.92236 0.41475 0.0
C4285 C 0.25636 0.91019 0.42119 0.0
C4286 C 0.2731 0.93084 0.40343 0.0
C4287 C 0.25734 0.92949 0.40132 0.0
H4288 H 0.09751 0.72704 0.57474 0.0
H4289 H 0.05997 0.72772 0.60631 0.0
H4290 H 0.06314 0.75514 0.60994 0.0
H4291 H 0.07213 0.77935 0.59892 0.0
H4292 H 0.10808 0.77882 0.56559 0.0
H4293 H 0.11043 0.75118 0.56816 0.0
C4294 C 0.09061 0.73309 0.58304 0.0
C4295 C 0.07863 0.72536 0.59039 0.0
C4296 C 0.09207 0.74906 0.58452 0.0
C4297 C 0.06942 0.7334 0.60073 0.0
C4298 C 0.0711 0.74914 0.60264 0.0
C4299 C 0.08109 0.77326 0.59294 0.0
C4300 C 0.09007 0.78114 0.58225 0.0
C4301 C 0.08178 0.75722 0.59389 0.0
C4302 C 0.10127 0.77305 0.57413 0.0
C4303 C 0.10241 0.75718 0.57539 0.0
H4304 H 0.22563 0.07633 0.59795 0.0
H4305 H 0.22542 0.10924 0.56158 0.0
H4306 H 0.25287 0.11291 0.56437 0.0
H4307 H 0.27731 0.10162 0.57245 0.0
H4308 H 0.27764 0.06744 0.60761 0.0
H4309 H 0.25003 0.06968 0.61041 0.0
C4310 C 0.23148 0.08495 0.59128 0.0
C4311 C 0.22347 0.09264 0.57969 0.0
C4312 C 0.24746 0.08651 0.59254 0.0
C4313 C 0.23129 0.10339 0.57075 0.0
C4314 C 0.24706 0.10531 0.57219 0.0
C4315 C 0.27143 0.09538 0.58137 0.0
C4316 C 0.27955 0.08452 0.58995 0.0
C4317 C 0.25539 0.09625 0.5824 0.0
C4318 C 0.2717 0.07609 0.60109 0.0
C4319 C 0.25583 0.07717 0.60249 0.0
H4320 H 0.90854 0.27841 0.57738 0.0
H4321 H 0.94688 0.27331 0.60759 0.0
H4322 H 0.94174 0.24607 0.61001 0.0
H4323 H 0.93064 0.2232 0.59817 0.0
H4324 H 0.89424 0.22813 0.56566 0.0
H4325 H 0.89388 0.25567 0.56979 0.0
C4326 C 0.91523 0.27144 0.58511 0.0
C4327 C 0.92801 0.27784 0.59236 0.0
C4328 C 0.91268 0.25558 0.58578 0.0
C4329 C 0.9369 0.26863 0.60201 0.0
C4330 C 0.93406 0.253 0.60324 0.0
C4331 C 0.92206 0.23024 0.59269 0.0
C4332 C 0.91238 0.22366 0.58175 0.0
C4333 C 0.92258 0.24621 0.59444 0.0
C4334 C 0.90164 0.23294 0.57431 0.0
C4335 C 0.90161 0.24874 0.57649 0.0
H4336 H 0.77117 0.89908 0.56846 0.0
H4337 H 0.78644 0.93213 0.60143 0.0
H4338 H 0.7601 0.93656 0.60942 0.0
H4339 H 0.7327 0.93483 0.6031 0.0
H4340 H 0.71742 0.90151 0.5704 0.0
H4341 H 0.74372 0.89309 0.56647 0.0
C4342 C 0.76875 0.90676 0.57785 0.0
C4343 C 0.78071 0.91528 0.58434 0.0
C4344 C 0.75354 0.90935 0.58226 0.0
C4345 C 0.77747 0.92529 0.5964 0.0
C4346 C 0.76236 0.92798 0.60082 0.0
C4347 C 0.7351 0.92529 0.5956 0.0
C4348 C 0.72316 0.91882 0.58703 0.0
C4349 C 0.75028 0.92062 0.5933 0.0
C4350 C 0.72638 0.90654 0.57727 0.0
C4351 C 0.74146 0.90187 0.57486 0.0
H4352 H 0.40117 0.0637 0.26963 0.0
H4353 H 0.4309 0.10011 0.28387 0.0
H4354 H 0.43325 0.10871 0.25745 0.0
H4355 H 0.43137 0.10215 0.23011 0.0
H4356 H 0.40149 0.06592 0.21585 0.0
H4357 H 0.39429 0.06121 0.24239 0.0
C4358 C 0.40762 0.07392 0.26699 0.0
C4359 C 0.41589 0.08123 0.27868 0.0
C4360 C 0.40903 0.0787 0.25172 0.0
C4361 C 0.4243 0.09439 0.27514 0.0
C4362 C 0.4258 0.09919 0.25997 0.0
C4363 C 0.42269 0.09376 0.23278 0.0
C4364 C 0.41692 0.08443 0.22104 0.0
C4365 C 0.41884 0.09095 0.24812 0.0
C4366 C 0.40588 0.07342 0.22463 0.0
C4367 C 0.40197 0.07055 0.23986 0.0
H4368 H 0.93024 0.40693 0.22746 0.0
H4369 H 0.89598 0.44195 0.23002 0.0
H4370 H 0.89424 0.43863 0.2576 0.0
H4371 H 0.90745 0.43074 0.28112 0.0
H4372 H 0.94353 0.39761 0.2785 0.0
H4373 H 0.93939 0.39483 0.25111 0.0
C4374 C 0.92178 0.41318 0.23398 0.0
C4375 C 0.91314 0.42456 0.22671 0.0
C4376 C 0.92147 0.41177 0.25 0.0
C4377 C 0.90257 0.43296 0.23535 0.0
C4378 C 0.90176 0.43123 0.25118 0.0
C4379 C 0.91378 0.42229 0.27467 0.0
C4380 C 0.92566 0.41427 0.28183 0.0
C4381 C 0.91184 0.42136 0.25872 0.0
C4382 C 0.93416 0.40372 0.27326 0.0
C4383 C 0.93194 0.40231 0.25753 0.0
H4384 H 0.60549 0.93544 0.26967 0.0
H4385 H 0.56925 0.90513 0.28301 0.0
H4386 H 0.56508 0.8981 0.25635 0.0
H4387 H 0.56789 0.90541 0.22927 0.0
H4388 H 0.60445 0.93528 0.21591 0.0
H4389 H 0.61272 0.93732 0.24247 0.0
C4390 C 0.5972 0.92673 0.26677 0.0
C4391 C 0.58769 0.92079 0.27827 0.0
C4392 C 0.59481 0.92284 0.25137 0.0
C4393 C 0.57685 0.90968 0.27439 0.0
C4394 C 0.57432 0.90583 0.2591 0.0
C4395 C 0.57817 0.91168 0.2321 0.0
C4396 C 0.5856 0.92015 0.22066 0.0
C4397 C 0.58269 0.91297 0.24746 0.0
C4398 C 0.59872 0.92846 0.22447 0.0
C4399 C 0.60328 0.92984 0.23972 0.0
H4400 H 0.07651 0.5973 0.22562 0.0
H4401 H 0.1107 0.56215 0.22725 0.0
H4402 H 0.11376 0.566 0.25464 0.0
H4403 H 0.10183 0.57449 0.27855 0.0
H4404 H 0.06589 0.60782 0.27717 0.0
H4405 H 0.0686 0.60998 0.24952 0.0
C4406 C 0.08521 0.59112 0.23187 0.0
C4407 C 0.09349 0.57957 0.22441 0.0
C4408 C 0.08634 0.59289 0.24783 0.0
C4409 C 0.10438 0.57125 0.23271 0.0
C4410 C 0.10597 0.57332 0.24844 0.0
C4411 C 0.09525 0.58289 0.27227 0.0
C4412 C 0.08384 0.59116 0.27991 0.0
C4413 C 0.09635 0.58343 0.25624 0.0
C4414 C 0.07497 0.60158 0.27159 0.0
C4415 C 0.07635 0.60261 0.25571 0.0
H4416 H 0.43297 0.90169 0.77387 0.0
H4417 H 0.40213 0.93673 0.78908 0.0
H4418 H 0.39482 0.94199 0.76268 0.0
H4419 H 0.4017 0.94036 0.73535 0.0
H4420 H 0.43205 0.90485 0.72015 0.0
H4421 H 0.43485 0.8958 0.74637 0.0
C4422 C 0.42406 0.90992 0.77142 0.0
C4423 C 0.41804 0.91877 0.78341 0.0
C4424 C 0.42009 0.91301 0.75617 0.0
C4425 C 0.40671 0.92958 0.7801 0.0
C4426 C 0.40274 0.93277 0.76496 0.0
C4427 C 0.4084 0.93025 0.73773 0.0
C4428 C 0.4167 0.92331 0.72584 0.0
C4429 C 0.40998 0.92512 0.75289 0.0
C4430 C 0.42543 0.91028 0.72906 0.0
C4431 C 0.42717 0.90521 0.7441 0.0
H4432 H 0.07448 0.40539 0.77889 0.0
H4433 H 0.10852 0.44065 0.77754 0.0
H4434 H 0.11115 0.43743 0.75 0.0
H4435 H 0.0988 0.42943 0.72605 0.0
H4436 H 0.06276 0.39621 0.72743 0.0
H4437 H 0.06607 0.39337 0.75494 0.0
C4438 C 0.08309 0.4117 0.77266 0.0
C4439 C 0.09148 0.42306 0.78026 0.0
C4440 C 0.0839 0.41035 0.75665 0.0
C4441 C 0.10219 0.43161 0.77198 0.0
C4442 C 0.1035 0.42994 0.75617 0.0
C4443 C 0.09231 0.42094 0.73227 0.0
C4444 C 0.08071 0.41286 0.7247 0.0
C4445 C 0.09374 0.42002 0.74827 0.0
C4446 C 0.07196 0.40231 0.73297 0.0
C4447 C 0.07369 0.40088 0.74877 0.0
H4448 H 0.57797 0.09786 0.72589 0.0
H4449 H 0.60997 0.06072 0.72746 0.0
H4450 H 0.61205 0.06333 0.7551 0.0
H4451 H 0.59946 0.07154 0.77887 0.0
H4452 H 0.56568 0.10705 0.77723 0.0
H4453 H 0.56981 0.11009 0.74986 0.0
C4454 C 0.58608 0.09098 0.73221 0.0
C4455 C 0.59396 0.07925 0.72462 0.0
C4456 C 0.58658 0.09205 0.74826 0.0
C4457 C 0.60402 0.07002 0.73301 0.0
C4458 C 0.605 0.07135 0.74888 0.0
C4459 C 0.59369 0.08053 0.77264 0.0
C4460 C 0.58245 0.08922 0.78009 0.0
C4461 C 0.59561 0.08167 0.75671 0.0
C4462 C 0.57461 0.10046 0.7718 0.0
C4463 C 0.5768 0.10202 0.75607 0.0
H4464 H 0.93817 0.60198 0.73294 0.0
H4465 H 0.90469 0.56888 0.71902 0.0
H4466 H 0.89679 0.56548 0.74553 0.0
H4467 H 0.90365 0.56775 0.77281 0.0
H4468 H 0.93654 0.6014 0.78674 0.0
H4469 H 0.94017 0.6091 0.76018 0.0
C4470 C 0.92865 0.59458 0.73567 0.0
C4471 C 0.92201 0.5857 0.72404 0.0
C4472 C 0.92422 0.59263 0.75099 0.0
C4473 C 0.90981 0.57601 0.72771 0.0
C4474 C 0.90544 0.57389 0.74293 0.0
C4475 C 0.911 0.5773 0.77007 0.0
C4476 C 0.91977 0.58405 0.78171 0.0
C4477 C 0.91312 0.58156 0.75471 0.0
C4478 C 0.92947 0.59623 0.77802 0.0
C4479 C 0.93173 0.60046 0.76278 0.0
H4480 H 0.23466 0.44012 0.10265 0.0
H4481 H 0.21946 0.4051 0.07177 0.0
H4482 H 0.2457 0.39617 0.06872 0.0
H4483 H 0.27316 0.40227 0.07043 0.0
H4484 H 0.28838 0.43702 0.10159 0.0
H4485 H 0.26202 0.44186 0.10931 0.0
C4486 C 0.23704 0.43009 0.09581 0.0
C4487 C 0.22514 0.42329 0.08742 0.0
C4488 C 0.25222 0.42512 0.09402 0.0
C4489 C 0.22836 0.4104 0.07848 0.0
C4490 C 0.24342 0.40543 0.07658 0.0
C4491 C 0.27074 0.41035 0.07948 0.0
C4492 C 0.2827 0.41925 0.08547 0.0
C4493 C 0.2555 0.41322 0.08367 0.0
C4494 C 0.27942 0.42985 0.097 0.0
C4495 C 0.2643 0.4328 0.10123 0.0
H4496 H 0.22578 0.59929 0.92634 0.0
H4497 H 0.22748 0.56183 0.89474 0.0
H4498 H 0.25504 0.56483 0.89222 0.0
H4499 H 0.27879 0.57332 0.90459 0.0
H4500 H 0.27699 0.60884 0.93836 0.0
H4501 H 0.24962 0.61181 0.93421 0.0
C4502 C 0.2321 0.59242 0.91823 0.0
C4503 C 0.22462 0.58046 0.91063 0.0
C4504 C 0.24811 0.59366 0.91754 0.0
C4505 C 0.23298 0.57127 0.90051 0.0
C4506 C 0.2488 0.57282 0.89927 0.0
C4507 C 0.27253 0.58229 0.91036 0.0
C4508 C 0.27988 0.59095 0.92166 0.0
C4509 C 0.25659 0.58331 0.90851 0.0
C4510 C 0.27158 0.60222 0.92945 0.0
C4511 C 0.25587 0.60374 0.92724 0.0
H4512 H 0.43077 0.22929 0.90346 0.0
H4513 H 0.39731 0.21634 0.93693 0.0
H4514 H 0.39124 0.24318 0.9415 0.0
H4515 H 0.39983 0.27003 0.94003 0.0
H4516 H 0.43282 0.28302 0.90606 0.0
H4517 H 0.43452 0.25657 0.89736 0.0
C4518 C 0.42157 0.23235 0.91113 0.0
C4519 C 0.41441 0.22086 0.91978 0.0
C4520 C 0.41832 0.24785 0.91385 0.0
C4521 C 0.40274 0.22495 0.92993 0.0
C4522 C 0.39948 0.24034 0.93274 0.0
C4523 C 0.40687 0.26715 0.93028 0.0
C4524 C 0.4162 0.27844 0.9237 0.0
C4525 C 0.4078 0.25187 0.92537 0.0
C4526 C 0.42539 0.27458 0.91117 0.0
C4527 C 0.4265 0.2594 0.90633 0.0
H4528 H 0.77983 0.40509 0.93328 0.0
H4529 H 0.77803 0.43983 0.89871 0.0
H4530 H 0.75065 0.43577 0.89565 0.0
H4531 H 0.72677 0.42723 0.90766 0.0
H4532 H 0.7284 0.39442 0.94406 0.0
H4533 H 0.75604 0.39235 0.94131 0.0
C4534 C 0.77355 0.41112 0.9245 0.0
C4535 C 0.78095 0.42259 0.91607 0.0
C4536 C 0.75761 0.40923 0.92337 0.0
C4537 C 0.77261 0.43075 0.9051 0.0
C4538 C 0.75689 0.42857 0.90352 0.0
C4539 C 0.7331 0.41895 0.91433 0.0
C4540 C 0.72553 0.41081 0.92589 0.0
C4541 C 0.74914 0.41851 0.91324 0.0
C4542 C 0.73393 0.40055 0.93487 0.0
C4543 C 0.7498 0.39958 0.93348 0.0
H4544 H 0.57006 0.76936 0.89723 0.0
H4545 H 0.6011 0.78297 0.93276 0.0
H4546 H 0.60824 0.75634 0.93695 0.0
H4547 H 0.60099 0.72922 0.93441 0.0
H4548 H 0.57032 0.71559 0.89861 0.0
H4549 H 0.56803 0.7421 0.89025 0.0
C4550 C 0.57893 0.76652 0.90538 0.0
C4551 C 0.58505 0.7781 0.91468 0.0
C4552 C 0.58288 0.75114 0.90779 0.0
C4553 C 0.59639 0.7743 0.92532 0.0
C4554 C 0.60031 0.75903 0.92786 0.0
C4555 C 0.59447 0.73199 0.92427 0.0
C4556 C 0.58588 0.72047 0.91709 0.0
C4557 C 0.59303 0.74732 0.91971 0.0
C4558 C 0.57725 0.72419 0.90414 0.0
C4559 C 0.57572 0.73942 0.89954 0.0
H4560 H 0.72588 0.57651 0.09753 0.0
H4561 H 0.72889 0.60905 0.06094 0.0
H4562 H 0.75628 0.61172 0.0652 0.0
H4563 H 0.77979 0.59977 0.07476 0.0
H4564 H 0.77695 0.5651 0.10932 0.0
H4565 H 0.74935 0.56856 0.11089 0.0
C4566 C 0.73243 0.58479 0.09108 0.0
C4567 C 0.72536 0.59273 0.07907 0.0
C4568 C 0.74838 0.58564 0.09309 0.0
C4569 C 0.73405 0.60302 0.07041 0.0
C4570 C 0.74977 0.60438 0.07272 0.0
C4571 C 0.77321 0.59366 0.08326 0.0
C4572 C 0.78042 0.58237 0.09208 0.0
C4573 C 0.75719 0.59508 0.08341 0.0
C4574 C 0.77169 0.57408 0.10266 0.0
C4575 C 0.75584 0.57587 0.10334 0.0
H4576 H 0.40266 0.73137 0.07206 0.0
H4577 H 0.43978 0.71698 0.10078 0.0
H4578 H 0.44476 0.74349 0.10789 0.0
H4579 H 0.44202 0.77078 0.10125 0.0
H4580 H 0.40447 0.78517 0.07307 0.0
H4581 H 0.39593 0.75872 0.07068 0.0
C4582 C 0.41133 0.73401 0.08048 0.0
C4583 C 0.4208 0.72224 0.08595 0.0
C4584 C 0.41422 0.74932 0.08437 0.0
C4585 C 0.43217 0.72579 0.09664 0.0
C4586 C 0.43517 0.741 0.10051 0.0
C4587 C 0.43158 0.76817 0.09516 0.0
C4588 C 0.42388 0.7799 0.08733 0.0
C4589 C 0.42678 0.75289 0.09379 0.0
C4590 C 0.41046 0.77638 0.07936 0.0
C4591 C 0.40569 0.76121 0.07783 0.0
H4592 H 0.56252 0.23758 0.10242 0.0
H4593 H 0.59854 0.22409 0.07189 0.0
H4594 H 0.60767 0.25043 0.07078 0.0
H4595 H 0.60182 0.27781 0.07424 0.0
H4596 H 0.56629 0.29125 0.10532 0.0
H4597 H 0.56082 0.26447 0.11089 0.0
C4598 C 0.57276 0.24033 0.09605 0.0
C4599 C 0.57984 0.22892 0.08722 0.0
C4600 C 0.57793 0.25554 0.09547 0.0
C4601 C 0.59301 0.23262 0.07891 0.0
C4602 C 0.59812 0.24773 0.07814 0.0
C4603 C 0.59344 0.27486 0.08285 0.0
C4604 C 0.58454 0.2865 0.08945 0.0
C4605 C 0.59023 0.25939 0.0858 0.0
C4606 C 0.5735 0.28254 0.10034 0.0
C4607 C 0.57018 0.26719 0.1033 0.0
H4608 H 0.93331 0.76791 0.60306 0.0
H4609 H 0.89844 0.7827 0.57184 0.0
H4610 H 0.89043 0.75638 0.56792 0.0
H4611 H 0.89931 0.72926 0.56783 0.0
H4612 H 0.92887 0.71442 0.6041 0.0
H4613 H 0.93255 0.74077 0.61219 0.0
C4614 C 0.92332 0.76549 0.59619 0.0
C4615 C 0.91685 0.77715 0.58729 0.0
C4616 C 0.91805 0.75034 0.59468 0.0
C4617 C 0.9037 0.77387 0.5787 0.0
C4618 C 0.89923 0.75876 0.57625 0.0
C4619 C 0.90572 0.73167 0.57812 0.0
C4620 C 0.91428 0.71998 0.58499 0.0
C4621 C 0.90716 0.74683 0.58332 0.0
C4622 C 0.92225 0.72326 0.59853 0.0
C4623 C 0.9246 0.7384 0.60304 0.0
H4624 H 0.22719 0.90347 0.57574 0.0
H4625 H 0.22459 0.94087 0.60734 0.0
H4626 H 0.25161 0.9376 0.61364 0.0
H4627 H 0.27681 0.92928 0.60459 0.0
H4628 H 0.27958 0.89893 0.56618 0.0
H4629 H 0.25225 0.89363 0.56819 0.0
C4630 C 0.23251 0.91056 0.58437 0.0
C4631 C 0.22399 0.92242 0.59103 0.0
C4632 C 0.24839 0.90991 0.58637 0.0
C4633 C 0.23086 0.93154 0.60222 0.0
C4634 C 0.24639 0.92982 0.60559 0.0
C4635 C 0.27144 0.9211 0.59702 0.0
C4636 C 0.28012 0.91457 0.5852 0.0
C4637 C 0.25545 0.9198 0.59693 0.0
C4638 C 0.27317 0.90395 0.57548 0.0
C4639 C 0.25748 0.90118 0.57646 0.0
H4640 H 0.07061 0.23559 0.60582 0.0
H4641 H 0.1044 0.2186 0.5745 0.0
H4642 H 0.11357 0.24444 0.57 0.0
H4643 H 0.10605 0.27196 0.56951 0.0
H4644 H 0.07725 0.28885 0.6055 0.0
H4645 H 0.07248 0.26287 0.61418 0.0
C4646 C 0.0806 0.23741 0.59877 0.0
C4647 C 0.08645 0.22525 0.59009 0.0
C4648 C 0.08649 0.25229 0.59685 0.0
C4649 C 0.09962 0.22778 0.58125 0.0
C4650 C 0.10476 0.24264 0.57847 0.0
C4651 C 0.09957 0.27006 0.57986 0.0
C4652 C 0.09159 0.28229 0.58651 0.0
C4653 C 0.09745 0.25507 0.58535 0.0
C4654 C 0.08346 0.27963 0.60011 0.0
C4655 C 0.08049 0.26469 0.60495 0.0
H4656 H 0.78047 0.09731 0.5753 0.0
H4657 H 0.78022 0.06016 0.60728 0.0
H4658 H 0.75312 0.06465 0.61249 0.0
H4659 H 0.72866 0.074 0.60248 0.0
H4660 H 0.72875 0.1034 0.56324 0.0
H4661 H 0.75613 0.10781 0.56641 0.0
C4662 C 0.77455 0.09063 0.58387 0.0
C4663 C 0.7823 0.07848 0.59096 0.0
C4664 C 0.75859 0.09186 0.58511 0.0
C4665 C 0.77455 0.06968 0.60182 0.0
C4666 C 0.75898 0.07212 0.60458 0.0
C4667 C 0.73464 0.08183 0.595 0.0
C4668 C 0.72673 0.08834 0.58263 0.0
C4669 C 0.75069 0.08243 0.5955 0.0
C4670 C 0.73454 0.09837 0.57293 0.0
C4671 C 0.75027 0.10064 0.57459 0.0
H4672 H 0.90265 0.22728 0.42724 0.0
H4673 H 0.94121 0.22699 0.39699 0.0
H4674 H 0.93777 0.25427 0.3921 0.0
H4675 H 0.92899 0.27881 0.4024 0.0
H4676 H 0.89815 0.27892 0.4405 0.0
H4677 H 0.89273 0.25183 0.43638 0.0
C4678 C 0.90993 0.23315 0.41914 0.0
C4679 C 0.92219 0.22516 0.41251 0.0
C4680 C 0.90932 0.24918 0.41826 0.0
C4681 C 0.9316 0.23283 0.4021 0.0
C4682 C 0.92979 0.24851 0.39957 0.0
C4683 C 0.92069 0.27294 0.40946 0.0
C4684 C 0.91403 0.28081 0.42178 0.0
C4685 C 0.91945 0.25696 0.40847 0.0
C4686 C 0.90331 0.27318 0.43086 0.0
C4687 C 0.90045 0.2576 0.42865 0.0
H4688 H 0.72499 0.93087 0.40511 0.0
H4689 H 0.72491 0.89737 0.44091 0.0
H4690 H 0.75201 0.8922 0.43631 0.0
H4691 H 0.77656 0.9026 0.42758 0.0
H4692 H 0.7767 0.94292 0.39968 0.0
H4693 H 0.74936 0.93997 0.39498 0.0
C4694 C 0.73085 0.92202 0.41149 0.0
C4695 C 0.72302 0.91447 0.42329 0.0
C4696 C 0.74678 0.92071 0.41023 0.0
C4697 C 0.73065 0.90318 0.43164 0.0
C4698 C 0.74622 0.90044 0.42916 0.0
C4699 C 0.77063 0.91038 0.42 0.0
C4700 C 0.77858 0.923 0.41404 0.0
C4701 C 0.75459 0.90992 0.41927 0.0
C4702 C 0.77087 0.93305 0.40428 0.0
C4703 C 0.75516 0.93151 0.40186 0.0
H4704 H 0.10162 0.77817 0.42945 0.0
H4705 H 0.06444 0.77935 0.3975 0.0
H4706 H 0.06824 0.75225 0.39186 0.0
H4707 H 0.07684 0.72747 0.40156 0.0
H4708 H 0.10633 0.72608 0.44069 0.0
H4709 H 0.11153 0.75338 0.43794 0.0
C4710 C 0.09472 0.77253 0.42087 0.0
C4711 C 0.08275 0.78066 0.41392 0.0
C4712 C 0.09557 0.75658 0.41934 0.0
C4713 C 0.07382 0.77335 0.40287 0.0
C4714 C 0.07585 0.75779 0.39986 0.0
C4715 C 0.08482 0.73312 0.40914 0.0
C4716 C 0.09115 0.72484 0.42134 0.0
C4717 C 0.08592 0.74912 0.40884 0.0
C4718 C 0.10148 0.73216 0.4311 0.0
C4719 C 0.10418 0.74785 0.42968 0.0
H4720 H 0.2313 0.06859 0.40023 0.0
H4721 H 0.21896 0.10568 0.42994 0.0
H4722 H 0.24573 0.11264 0.43275 0.0
H4723 H 0.27245 0.10257 0.43252 0.0
H4724 H 0.28484 0.07048 0.39749 0.0
H4725 H 0.2581 0.0675 0.39044 0.0
C4726 C 0.23436 0.07878 0.40651 0.0
C4727 C 0.22328 0.08623 0.41537 0.0
C4728 C 0.24975 0.08338 0.40737 0.0
C4729 C 0.22735 0.09967 0.42314 0.0
C4730 C 0.24272 0.10354 0.42497 0.0
C4731 C 0.26942 0.09568 0.42271 0.0
C4732 C 0.28048 0.08628 0.41593 0.0
C4733 C 0.25407 0.09468 0.41803 0.0
C4734 C 0.27646 0.07772 0.40297 0.0
C4735 C 0.26111 0.07581 0.39907 0.0
H4736 H 0.60092 0.92562 0.72461 0.0
H4737 H 0.56228 0.89547 0.72434 0.0
H4738 H 0.56572 0.89058 0.75162 0.0
H4739 H 0.57468 0.90076 0.77612 0.0
H4740 H 0.60628 0.93824 0.77632 0.0
H4741 H 0.61126 0.93436 0.7491 0.0
C4742 C 0.59367 0.91749 0.73048 0.0
C4743 C 0.58139 0.91089 0.72251 0.0
C4744 C 0.59439 0.91649 0.74648 0.0
C4745 C 0.57194 0.9005 0.73016 0.0
C4746 C 0.57375 0.89798 0.74584 0.0
C4747 C 0.58304 0.90772 0.77024 0.0
C4748 C 0.59009 0.91978 0.77816 0.0
C4749 C 0.58419 0.90678 0.75426 0.0
C4750 C 0.60088 0.92876 0.77053 0.0
C4751 C 0.60349 0.9267 0.75489 0.0
H4752 H 0.1063 0.56909 0.73114 0.0
H4753 H 0.07659 0.60553 0.71705 0.0
H4754 H 0.07342 0.61351 0.74348 0.0
H4755 H 0.07301 0.60411 0.7705 0.0
H4756 H 0.10808 0.57278 0.78455 0.0
H4757 H 0.11578 0.56913 0.7581 0.0
C4758 C 0.09999 0.57941 0.73371 0.0
C4759 C 0.0912 0.58634 0.72224 0.0
C4760 C 0.09888 0.58457 0.74891 0.0
C4761 C 0.08336 0.59991 0.72572 0.0
C4762 C 0.08131 0.60435 0.74092 0.0
C4763 C 0.083 0.59731 0.76791 0.0
C4764 C 0.08957 0.58824 0.77938 0.0
C4765 C 0.08806 0.59592 0.75268 0.0
C4766 C 0.10273 0.57976 0.77587 0.0
C4767 C 0.10701 0.57745 0.76067 0.0
H4768 H 0.40508 0.07982 0.72085 0.0
H4769 H 0.44481 0.10845 0.72289 0.0
H4770 H 0.44037 0.11295 0.75008 0.0
H4771 H 0.43022 0.10243 0.7739 0.0
H4772 H 0.39759 0.06592 0.77188 0.0
H4773 H 0.39354 0.07084 0.74468 0.0
C4774 C 0.4123 0.08764 0.72717 0.0
C4775 C 0.42521 0.09385 0.71991 0.0
C4776 C 0.411 0.08826 0.74316 0.0
C4777 C 0.43472 0.10368 0.72818 0.0
C4778 C 0.43232 0.10599 0.74381 0.0
C4779 C 0.42179 0.09598 0.76755 0.0
C4780 C 0.41422 0.08383 0.77481 0.0
C4781 C 0.42123 0.09741 0.75158 0.0
C4782 C 0.40344 0.0754 0.76657 0.0
C4783 C 0.40134 0.07808 0.75094 0.0
H4784 H 0.90012 0.43393 0.73192 0.0
H4785 H 0.92921 0.397 0.71783 0.0
H4786 H 0.93307 0.3896 0.74434 0.0
H4787 H 0.93421 0.39951 0.7712 0.0
H4788 H 0.89969 0.43139 0.78545 0.0
H4789 H 0.89145 0.43463 0.75911 0.0
C4790 C 0.90643 0.42363 0.73454 0.0
C4791 C 0.91485 0.41639 0.72297 0.0
C4792 C 0.90797 0.41884 0.74983 0.0
C4793 C 0.9227 0.40286 0.72655 0.0
C4794 C 0.92517 0.39875 0.7418 0.0
C4795 C 0.92424 0.40637 0.7687 0.0
C4796 C 0.91794 0.41564 0.78018 0.0
C4797 C 0.91882 0.4075 0.75357 0.0
C4798 C 0.90482 0.42423 0.77677 0.0
C4799 C 0.90021 0.42629 0.76163 0.0
H4800 H 0.57279 0.10566 0.22837 0.0
H4801 H 0.60484 0.06864 0.22562 0.0
H4802 H 0.61037 0.07121 0.25288 0.0
H4803 H 0.60068 0.07877 0.27805 0.0
H4804 H 0.56145 0.10805 0.28067 0.0
H4805 H 0.56411 0.1143 0.25358 0.0
C4806 C 0.58132 0.09848 0.23372 0.0
C4807 C 0.58836 0.08694 0.22505 0.0
C4808 C 0.58277 0.09858 0.24971 0.0
C4809 C 0.59941 0.07771 0.23201 0.0
C4810 C 0.60234 0.07903 0.24767 0.0
C4811 C 0.59304 0.08691 0.27273 0.0
C4812 C 0.58087 0.09291 0.2813 0.0
C4813 C 0.59331 0.08866 0.25678 0.0
C4814 C 0.57102 0.10344 0.27437 0.0
C4815 C 0.57239 0.10676 0.25879 0.0
H4816 H 0.90405 0.57949 0.22336 0.0
H4817 H 0.94343 0.60868 0.22272 0.0
H4818 H 0.94018 0.61393 0.24993 0.0
H4819 H 0.9311 0.60421 0.27455 0.0
H4820 H 0.89866 0.56748 0.27527 0.0
H4821 H 0.89359 0.57125 0.24805 0.0
C4822 C 0.91151 0.5875 0.22913 0.0
C4823 C 0.92396 0.59369 0.22107 0.0
C4824 C 0.91088 0.58866 0.24514 0.0
C4825 C 0.93366 0.60393 0.2286 0.0
C4826 C 0.93196 0.60666 0.24425 0.0
C4827 C 0.92257 0.59737 0.26877 0.0
C4828 C 0.91532 0.58554 0.27686 0.0
C4829 C 0.92136 0.59819 0.25279 0.0
C4830 C 0.90424 0.57678 0.26937 0.0
C4831 C 0.90158 0.57878 0.25371 0.0
H4832 H 0.40125 0.93106 0.23605 0.0
H4833 H 0.43402 0.89739 0.22181 0.0
H4834 H 0.43772 0.88945 0.24817 0.0
H4835 H 0.4372 0.89858 0.27519 0.0
H4836 H 0.39958 0.92669 0.28945 0.0
H4837 H 0.39159 0.92984 0.263 0.0
C4838 C 0.40841 0.9213 0.23857 0.0
C4839 C 0.41785 0.91525 0.22712 0.0
C4840 C 0.40982 0.91605 0.25373 0.0
C4841 C 0.42678 0.90236 0.23051 0.0
C4842 C 0.42909 0.89793 0.24565 0.0
C4843 C 0.42666 0.90452 0.27264 0.0
C4844 C 0.41939 0.91295 0.28415 0.0
C4845 C 0.42155 0.90562 0.25743 0.0
C4846 C 0.40549 0.92023 0.28073 0.0
C4847 C 0.40103 0.92228 0.26552 0.0
H4848 H 0.10472 0.43343 0.26992 0.0
H4849 H 0.07187 0.40004 0.28465 0.0
H4850 H 0.06782 0.39206 0.25833 0.0
H4851 H 0.06847 0.40061 0.23114 0.0
H4852 H 0.10604 0.42857 0.21646 0.0
H4853 H 0.11396 0.4322 0.24287 0.0
C4854 C 0.09739 0.42378 0.26749 0.0
C4855 C 0.08817 0.41773 0.27912 0.0
C4856 C 0.09578 0.41849 0.25236 0.0
C4857 C 0.079 0.40497 0.27584 0.0
C4858 C 0.07649 0.40051 0.26073 0.0
C4859 C 0.07897 0.40664 0.23361 0.0
C4860 C 0.08631 0.4148 0.22193 0.0
C4861 C 0.08402 0.40804 0.24882 0.0
C4862 C 0.10012 0.42227 0.22528 0.0
C4863 C 0.10453 0.4246 0.24046 0.0
H4864 H 0.73226 0.56782 0.90082 0.0
H4865 H 0.71728 0.60242 0.93229 0.0
H4866 H 0.74355 0.61064 0.93613 0.0
H4867 H 0.77082 0.60228 0.93588 0.0
H4868 H 0.78573 0.57263 0.8997 0.0
H4869 H 0.75937 0.56855 0.89186 0.0
C4870 C 0.73463 0.57777 0.90776 0.0
C4871 C 0.72291 0.58418 0.91663 0.0
C4872 C 0.74975 0.5831 0.90931 0.0
C4873 C 0.72613 0.59725 0.92537 0.0
C4874 C 0.74122 0.60184 0.92778 0.0
C4875 C 0.7684 0.59574 0.92567 0.0
C4876 C 0.78017 0.58736 0.9187 0.0
C4877 C 0.7532 0.59405 0.92063 0.0
C4878 C 0.77686 0.57915 0.90531 0.0
C4879 C 0.76171 0.57658 0.90095 0.0
H4880 H 0.78103 0.4274 0.10499 0.0
H4881 H 0.78055 0.39699 0.06656 0.0
H4882 H 0.75324 0.39255 0.0702 0.0
H4883 H 0.72904 0.4035 0.07894 0.0
H4884 H 0.72969 0.44122 0.11024 0.0
H4885 H 0.75676 0.43665 0.1154 0.0
C4886 C 0.77498 0.41931 0.09785 0.0
C4887 C 0.78272 0.41254 0.08552 0.0
C4888 C 0.75898 0.4186 0.09866 0.0
C4889 C 0.77488 0.40216 0.07623 0.0
C4890 C 0.75919 0.3999 0.07816 0.0
C4891 C 0.73506 0.41033 0.08731 0.0
C4892 C 0.72747 0.4227 0.09417 0.0
C4893 C 0.75098 0.40897 0.08854 0.0
C4894 C 0.73525 0.43153 0.10497 0.0
C4895 C 0.75081 0.42906 0.10768 0.0
H4896 H 0.57071 0.73693 0.1004 0.0
H4897 H 0.60673 0.72262 0.0703 0.0
H4898 H 0.61421 0.74907 0.06624 0.0
H4899 H 0.60478 0.77601 0.06564 0.0
H4900 H 0.57373 0.79049 0.10081 0.0
H4901 H 0.57038 0.76415 0.10905 0.0
C4902 C 0.58083 0.73951 0.09379 0.0
C4903 C 0.58782 0.72791 0.08522 0.0
C4904 C 0.5857 0.75476 0.09215 0.0
C4905 C 0.6011 0.7314 0.07693 0.0
C4906 C 0.60525 0.74659 0.07438 0.0
C4907 C 0.59805 0.77353 0.0757 0.0
C4908 C 0.58908 0.78509 0.08225 0.0
C4909 C 0.59681 0.7584 0.08104 0.0
C4910 C 0.58067 0.78175 0.09551 0.0
C4911 C 0.57854 0.76661 0.10011 0.0
H4912 H 0.27712 0.60384 0.07472 0.0
H4913 H 0.2762 0.56681 0.10683 0.0
H4914 H 0.24914 0.57161 0.11181 0.0
H4915 H 0.22491 0.58066 0.10113 0.0
H4916 H 0.22565 0.60985 0.06176 0.0
H4917 H 0.25293 0.61442 0.06546 0.0
C4918 C 0.27105 0.59722 0.08323 0.0
C4919 C 0.27859 0.58496 0.09036 0.0
C4920 C 0.25509 0.59858 0.0843 0.0
C4921 C 0.27069 0.57638 0.1013 0.0
C4922 C 0.25513 0.57899 0.10392 0.0
C4923 C 0.23098 0.58856 0.0938 0.0
C4924 C 0.22331 0.59491 0.0812 0.0
C4925 C 0.24701 0.58925 0.09464 0.0
C4926 C 0.23125 0.60495 0.07162 0.0
C4927 C 0.24694 0.60731 0.07359 0.0
H4928 H 0.42856 0.22497 0.10004 0.0
H4929 H 0.39553 0.22798 0.06393 0.0
H4930 H 0.39114 0.25491 0.06997 0.0
H4931 H 0.40251 0.2785 0.07972 0.0
H4932 H 0.44251 0.27577 0.1079 0.0
H4933 H 0.43829 0.24845 0.11158 0.0
C4934 C 0.41988 0.23141 0.09402 0.0
C4935 C 0.41233 0.22457 0.0816 0.0
C4936 C 0.41907 0.24731 0.09611 0.0
C4937 C 0.4014 0.23301 0.07356 0.0
C4938 C 0.39907 0.24846 0.07692 0.0
C4939 C 0.40982 0.27198 0.08727 0.0
C4940 C 0.42281 0.27909 0.09351 0.0
C4941 C 0.40868 0.25596 0.08735 0.0
C4942 C 0.43241 0.27058 0.10305 0.0
C4943 C 0.43013 0.25488 0.1049 0.0
H4944 H 0.22598 0.4268 0.90269 0.0
H4945 H 0.22518 0.39654 0.94124 0.0
H4946 H 0.25251 0.39166 0.93816 0.0
H4947 H 0.2772 0.40175 0.92946 0.0
H4948 H 0.27783 0.43931 0.89795 0.0
H4949 H 0.25063 0.43563 0.89278 0.0
C4950 C 0.23175 0.41868 0.91003 0.0
C4951 C 0.22357 0.41202 0.92215 0.0
C4952 C 0.24777 0.41769 0.90954 0.0
C4953 C 0.23113 0.40162 0.93168 0.0
C4954 C 0.24685 0.39911 0.93009 0.0
C4955 C 0.27143 0.40875 0.92105 0.0
C4956 C 0.2795 0.42077 0.91407 0.0
C4957 C 0.25543 0.40792 0.91978 0.0
C4958 C 0.27195 0.42987 0.90331 0.0
C4959 C 0.25631 0.4279 0.90058 0.0
H4960 H 0.55677 0.2723 0.94485 0.0
H4961 H 0.58758 0.28164 0.90766 0.0
H4962 H 0.59196 0.25366 0.90508 0.0
H4963 H 0.58621 0.22589 0.9152 0.0
H4964 H 0.56943 0.2246 0.96173 0.0
H4965 H 0.56001 0.2498 0.95915 0.0
C4966 C 0.56503 0.26877 0.93636 0.0
C4967 C 0.57201 0.27955 0.92673 0.0
C4968 C 0.57002 0.25375 0.93702 0.0
C4969 C 0.58203 0.27386 0.91546 0.0
C4970 C 0.58475 0.25785 0.91418 0.0
C4971 C 0.58152 0.2314 0.9252 0.0
C4972 C 0.57704 0.22249 0.93809 0.0
C4973 C 0.57902 0.24757 0.92529 0.0
C4974 C 0.57197 0.23042 0.95114 0.0
C4975 C 0.5667 0.24515 0.94989 0.0
H4976 H 0.42757 0.77643 0.90235 0.0
H4977 H 0.39815 0.77846 0.94151 0.0
H4978 H 0.39146 0.75157 0.93807 0.0
H4979 H 0.40005 0.72649 0.92906 0.0
H4980 H 0.43753 0.72409 0.89755 0.0
H4981 H 0.435 0.75139 0.89223 0.0
C4982 C 0.41936 0.77102 0.90984 0.0
C4983 C 0.41347 0.77933 0.92225 0.0
C4984 C 0.41742 0.75511 0.90919 0.0
C4985 C 0.40273 0.77234 0.93181 0.0
C4986 C 0.39915 0.75687 0.92998 0.0
C4987 C 0.40732 0.73193 0.92066 0.0
C4988 C 0.41902 0.72336 0.91379 0.0
C4989 C 0.40732 0.74793 0.91947 0.0
C4990 C 0.42835 0.73041 0.90288 0.0
C4991 C 0.42707 0.7461 0.90009 0.0
H4992 H 0.02954 0.16498 0.42364 0.0
H4993 H 0.03432 0.21317 0.41525 0.0
H4994 H 0.00673 0.21577 0.41318 0.0
H4995 H 0.9814 0.20542 0.41875 0.0
H4996 H 0.97597 0.15758 0.42822 0.0
H4997 H 0.00351 0.15367 0.42475 0.0
C4998 C 0.02457 0.17589 0.42063 0.0
C4999 C 0.03405 0.18888 0.4196 0.0
C5000 C 0.00851 0.17742 0.42006 0.0
C5001 C 0.02735 0.20301 0.41605 0.0
C5002 C 0.01153 0.20453 0.41505 0.0
C5003 C 0.98619 0.19404 0.41955 0.0
C5004 C 0.97668 0.18179 0.42369 0.0
C5005 C 1.002 0.19199 0.4178 0.0
C5006 C 0.98302 0.16714 0.42484 0.0
C5007 C 0.99881 0.16496 0.423 0.0
H5008 H 0.79908 0.02854 0.41291 0.0
H5009 H 0.84722 0.03589 0.41893 0.0
H5010 H 0.85147 0.00835 0.42013 0.0
H5011 H 0.84049 0.98244 0.42508 0.0
H5012 H 0.79218 0.97585 0.41904 0.0
H5013 H 0.78904 0.00255 0.41217 0.0
C5014 C 0.8106 0.0241 0.41375 0.0
C5015 C 0.82277 0.03433 0.41592 0.0
C5016 C 0.81289 0.00825 0.41487 0.0
C5017 C 0.83763 0.02835 0.41706 0.0
C5018 C 0.84003 0.01253 0.41806 0.0
C5019 C 0.82943 0.98676 0.42166 0.0
C5020 C 0.81657 0.97716 0.42259 0.0
C5021 C 0.82763 0.00238 0.41782 0.0
C5022 C 0.80224 0.983 0.41838 0.0
C5023 C 0.80041 0.99831 0.41452 0.0
H5024 H 0.97706 0.80114 0.41304 0.0
H5025 H 0.96864 0.84874 0.42163 0.0
H5026 H 0.99605 0.8537 0.42225 0.0
H5027 H 0.02239 0.84332 0.42548 0.0
H5028 H 0.03035 0.79582 0.41581 0.0
H5029 H 0.00342 0.79209 0.41025 0.0
C5030 C 0.98121 0.81271 0.41437 0.0
C5031 C 0.97075 0.82451 0.41731 0.0
C5032 C 0.99705 0.81548 0.41481 0.0
C5033 C 0.97637 0.83944 0.41913 0.0
C5034 C 0.99212 0.84226 0.41974 0.0
C5035 C 0.01831 0.83237 0.42147 0.0
C5036 C 0.0284 0.81987 0.42102 0.0
C5037 C 0.0026 0.83023 0.41831 0.0
C5038 C 0.02284 0.80564 0.41612 0.0
C5039 C 0.00739 0.80345 0.41307 0.0
H5040 H 0.20474 0.97836 0.41017 0.0
H5041 H 0.15749 0.96857 0.41909 0.0
H5042 H 0.15176 0.99584 0.41983 0.0
H5043 H 0.16145 0.02242 0.42323 0.0
H5044 H 0.20856 0.03182 0.41308 0.0
H5045 H 0.213 0.00502 0.40726 0.0
C5046 C 0.19306 0.98219 0.41152 0.0
C5047 C 0.18159 0.97137 0.41452 0.0
C5048 C 0.18985 0.99795 0.412 0.0
C5049 C 0.16653 0.97658 0.41648 0.0
C5050 C 0.16328 0.99224 0.41717 0.0
C5051 C 0.17246 0.0187 0.419 0.0
C5052 C 0.18464 0.02917 0.41846 0.0
C5053 C 0.17499 0.00307 0.41568 0.0
C5054 C 0.19896 0.02405 0.41337 0.0
C5055 C 0.20156 0.00866 0.4102 0.0
H5056 H 0.98039 0.84073 0.57885 0.0
H5057 H 0.97377 0.79299 0.5884 0.0
H5058 H 1.00079 0.78999 0.59392 0.0
H5059 H 0.02688 0.79974 0.59129 0.0
H5060 H 0.0341 0.84751 0.58264 0.0
H5061 H 0.00654 0.85177 0.58197 0.0
C5062 C 0.98477 0.82987 0.5828 0.0
C5063 C 0.97501 0.8171 0.58324 0.0
C5064 C 1.00058 0.82814 0.58592 0.0
C5065 C 0.981 0.80301 0.58806 0.0
C5066 C 0.99651 0.80124 0.5911 0.0
C5067 C 0.02243 0.8112 0.58993 0.0
C5068 C 0.03262 0.82325 0.58701 0.0
C5069 C 0.00652 0.81355 0.58942 0.0
C5070 C 0.02659 0.83803 0.58514 0.0
C5071 C 0.01076 0.84043 0.5845 0.0
H5072 H 0.20441 0.028 0.58916 0.0
H5073 H 0.15665 0.0366 0.58181 0.0
H5074 H 0.15168 0.00917 0.58071 0.0
H5075 H 0.16195 0.98273 0.57693 0.0
H5076 H 0.20976 0.97484 0.58521 0.0
H5077 H 0.21356 1.00167 0.59098 0.0
C5078 C 0.19281 0.02388 0.58799 0.0
C5079 C 0.18097 0.03444 0.58556 0.0
C5080 C 0.19005 0.00805 0.58717 0.0
C5081 C 0.166 0.02882 0.58393 0.0
C5082 C 0.16318 0.01305 0.58303 0.0
C5083 C 0.17303 0.98681 0.58058 0.0
C5084 C 0.18557 0.97673 0.58054 0.0
C5085 C 0.17523 0.00253 0.58392 0.0
C5086 C 0.19992 0.98232 0.5851 0.0
C5087 C 0.20215 0.99773 0.58835 0.0
H5088 H 0.02134 0.206 0.5898 0.0
H5089 H 0.02768 0.15831 0.5802 0.0
H5090 H 1.0002 0.1539 0.58347 0.0
H5091 H 0.97394 0.16476 0.58435 0.0
H5092 H 0.96824 0.21281 0.59293 0.0
H5093 H 0.99576 0.21587 0.59527 0.0
C5094 C 0.01676 0.19453 0.58899 0.0
C5095 C 0.02654 0.18248 0.58487 0.0
C5096 C 1.00096 0.1922 0.5906 0.0
C5097 C 0.02045 0.16772 0.58362 0.0
C5098 C 0.00469 0.16526 0.58532 0.0
C5099 C 0.97869 0.17573 0.58747 0.0
C5100 C 0.96896 0.18855 0.58849 0.0
C5101 C 0.99473 0.17753 0.58822 0.0
C5102 C 0.9754 0.20277 0.59215 0.0
C5103 C 0.99119 0.20456 0.5933 0.0
H5104 H 0.80315 0.02151 0.58745 0.0
H5105 H 0.85085 0.02462 0.57644 0.0
H5106 H 0.85382 0.99713 0.58114 0.0
H5107 H 0.84159 0.97167 0.58375 0.0
H5108 H 0.79345 0.96907 0.59336 0.0
H5109 H 0.79197 0.99682 0.59433 0.0
C5110 C 0.81432 0.01624 0.58662 0.0
C5111 C 0.8268 0.02509 0.58173 0.0
C5112 C 0.8158 1.00044 0.589 0.0
C5113 C 0.84115 0.01812 0.58045 0.0
C5114 C 0.84277 0.00236 0.58298 0.0
C5115 C 0.83094 0.97716 0.58679 0.0
C5116 C 0.81763 0.96821 0.5885 0.0
C5117 C 0.83004 0.99328 0.58669 0.0
C5118 C 0.80385 0.9756 0.59206 0.0
C5119 C 0.80297 0.99151 0.59243 0.0
H5120 H 0.41431 0.02696 0.2036 0.0
H5121 H 0.42197 0.03233 0.1554 0.0
H5122 H 0.42253 0.00465 0.15219 0.0
H5123 H 0.42563 0.97891 0.16407 0.0
H5124 H 0.41734 0.97415 0.21227 0.0
H5125 H 0.41205 1.00129 0.21441 0.0
C5126 C 0.41552 0.02209 0.1923 0.0
C5127 C 0.41817 0.0318 0.17981 0.0
C5128 C 0.41599 0.00611 0.19055 0.0
C5129 C 0.41975 0.02521 0.16524 0.0
C5130 C 0.4203 0.00931 0.16341 0.0
C5131 C 0.42204 0.98373 0.17487 0.0
C5132 C 0.4219 0.97446 0.188 0.0
C5133 C 0.4191 0.99961 0.1761 0.0
C5134 C 0.4175 0.981 0.20199 0.0
C5135 C 0.41458 0.99658 0.20326 0.0
H5136 H 0.02404 0.41664 0.20438 0.0
H5137 H 0.02728 0.42592 0.15632 0.0
H5138 H 0.99968 0.42187 0.15359 0.0
H5139 H 0.97416 0.42049 0.166 0.0
H5140 H 0.97153 0.41275 0.21446 0.0
H5141 H 0.99924 0.41091 0.21587 0.0
C5142 C 0.01877 0.41722 0.1932 0.0
C5143 C 0.0277 0.42147 0.18055 0.0
C5144 C 0.0029 0.41525 0.19185 0.0
C5145 C 0.02072 0.42241 0.16618 0.0
C5146 C 0.00489 0.42027 0.16468 0.0
C5147 C 0.97963 0.41766 0.17672 0.0
C5148 C 0.97071 0.41669 0.19013 0.0
C5149 C 0.99575 0.41728 0.17756 0.0
C5150 C 0.97806 0.41344 0.20399 0.0
C5151 C 0.99395 0.41258 0.20483 0.0
H5152 H 0.59162 0.98201 0.20241 0.0
H5153 H 0.58271 0.97426 0.15477 0.0
H5154 H 0.58165 1.00175 0.15028 0.0
H5155 H 0.57812 0.02786 0.16112 0.0
H5156 H 0.58801 0.03517 0.20867 0.0
H5157 H 0.59405 0.00826 0.2119 0.0
C5158 C 0.59013 0.98635 0.19093 0.0
C5159 C 0.58724 0.97603 0.17898 0.0
C5160 C 0.58942 1.00222 0.18844 0.0
C5161 C 0.58519 0.98188 0.16417 0.0
C5162 C 0.58432 0.99766 0.16162 0.0
C5163 C 0.5823 0.02366 0.17197 0.0
C5164 C 0.5827 0.03355 0.18462 0.0
C5165 C 0.58572 0.00796 0.17381 0.0
C5166 C 0.58777 0.02783 0.19873 0.0
C5167 C 0.59109 0.01238 0.20063 0.0
H5168 H 0.03189 0.58309 0.16397 0.0
H5169 H 0.03485 0.59164 0.21228 0.0
H5170 H 0.00714 0.59284 0.21397 0.0
H5171 H 0.98233 0.58649 0.20283 0.0
H5172 H 0.97871 0.57667 0.1549 0.0
H5173 H 0.00625 0.58101 0.15186 0.0
C5174 C 0.02648 0.58597 0.17471 0.0
C5175 C 0.03552 0.58734 0.188 0.0
C5176 C 0.01035 0.58597 0.17572 0.0
C5177 C 0.02824 0.59065 0.20189 0.0
C5178 C 0.01235 0.59112 0.2029 0.0
C5179 C 0.98751 0.58577 0.19162 0.0
C5180 C 0.97849 0.58129 0.17909 0.0
C5181 C 0.00332 0.58803 0.19007 0.0
C5182 C 0.98535 0.58028 0.16466 0.0
C5183 C 1.00114 0.58263 0.16298 0.0
H5184 H 0.41297 0.97605 0.79992 0.0
H5185 H 0.42039 0.97093 0.84819 0.0
H5186 H 0.42064 0.99862 0.8513 0.0
H5187 H 0.42379 0.02427 0.8393 0.0
H5188 H 0.41575 0.02886 0.79106 0.0
H5189 H 0.41048 1.00169 0.789 0.0
C5190 C 0.41401 0.98098 0.81121 0.0
C5191 C 0.41673 0.97136 0.82376 0.0
C5192 C 0.4143 0.99697 0.81291 0.0
C5193 C 0.41812 0.97799 0.83832 0.0
C5194 C 0.4185 0.9939 0.84008 0.0
C5195 C 0.42022 0.0194 0.82852 0.0
C5196 C 0.42012 0.02861 0.81536 0.0
C5197 C 0.41731 0.00353 0.82735 0.0
C5198 C 0.4158 0.02204 0.80137 0.0
C5199 C 0.41291 0.00645 0.80014 0.0
H5200 H 0.02903 0.42142 0.84077 0.0
H5201 H 0.03321 0.40905 0.79343 0.0
H5202 H 0.00552 0.40836 0.79094 0.0
H5203 H 0.98051 0.41626 0.80077 0.0
H5204 H 0.97576 0.42936 0.84781 0.0
H5205 H 0.0031 0.42479 0.85194 0.0
C5206 C 0.02386 0.41775 0.83015 0.0
C5207 C 0.03326 0.4151 0.81733 0.0
C5208 C 0.00777 0.41803 0.82864 0.0
C5209 C 0.02631 0.41089 0.80351 0.0
C5210 C 0.01043 0.41076 0.80202 0.0
C5211 C 0.98538 0.41764 0.81206 0.0
C5212 C 0.9761 0.42311 0.82398 0.0
C5213 C 1.00109 0.41508 0.81427 0.0
C5214 C 0.98259 0.42498 0.8385 0.0
C5215 C 0.99828 0.42248 0.84081 0.0
H5216 H 0.5902 0.02596 0.79997 0.0
H5217 H 0.58055 0.03404 0.8474 0.0
H5218 H 0.57947 0.00655 0.85206 0.0
H5219 H 0.5764 0.98021 0.84138 0.0
H5220 H 0.58673 0.97282 0.79391 0.0
H5221 H 0.59255 0.99973 0.79063 0.0
C5222 C 0.58852 0.02171 0.81146 0.0
C5223 C 0.58546 0.03214 0.82328 0.0
C5224 C 0.5877 0.00585 0.81402 0.0
C5225 C 0.58318 0.02636 0.83809 0.0
C5226 C 0.58229 0.01057 0.84073 0.0
C5227 C 0.58053 0.98441 0.83052 0.0
C5228 C 0.58112 0.97445 0.8179 0.0
C5229 C 0.58384 1.00017 0.82862 0.0
C5230 C 0.58622 0.9802 0.80381 0.0
C5231 C 0.58947 0.99565 0.80188 0.0
H5232 H 0.0254 0.57875 0.84168 0.0
H5233 H 0.03212 0.58829 0.79395 0.0
H5234 H 0.00506 0.59345 0.7908 0.0
H5235 H 0.97895 0.59052 0.80044 0.0
H5236 H 0.97168 0.58221 0.84827 0.0
H5237 H 0.99921 0.58173 0.85261 0.0
C5238 C 0.02102 0.58262 0.83079 0.0
C5239 C 0.03082 0.5831 0.81806 0.0
C5240 C 0.00521 0.58558 0.82898 0.0
C5241 C 0.02485 0.58787 0.80394 0.0
C5242 C 0.00932 0.59072 0.80207 0.0
C5243 C 0.98338 0.58925 0.81192 0.0
C5244 C 0.9732 0.58637 0.82397 0.0
C5245 C 0.99928 0.58893 0.81434 0.0
C5246 C 0.97919 0.58465 0.83878 0.0
C5247 C 0.99501 0.58414 0.84124 0.0
H5248 H 0.16431 0.42397 0.02939 0.0
H5249 H 0.2124 0.41448 0.03316 0.0
H5250 H 0.21451 0.4132 0.00548 0.0
H5251 H 0.20387 0.41955 0.98045 0.0
H5252 H 0.15613 0.42998 0.97599 0.0
H5253 H 0.15263 0.42606 0.00355 0.0
C5254 C 0.17508 0.42089 0.02417 0.0
C5255 C 0.1882 0.41931 0.03343 0.0
C5256 C 0.17636 0.42079 0.00806 0.0
C5257 C 0.20214 0.41569 0.02638 0.0
C5258 C 0.2034 0.41516 0.01051 0.0
C5259 C 0.1926 0.42054 0.98546 0.0
C5260 C 0.18028 0.42506 0.9762 0.0
C5261 C 0.19077 0.41844 1.00126 0.0
C5262 C 0.16576 0.42635 0.98283 0.0
C5263 C 0.16381 0.42423 0.99862 0.0
H5264 H 0.16489 0.58471 0.97351 0.0
H5265 H 0.21281 0.59489 0.97008 0.0
H5266 H 0.21474 0.59618 0.99779 0.0
H5267 H 0.20406 0.58933 0.02272 0.0
H5268 H 0.15649 0.57801 0.02672 0.0
H5269 H 0.15306 0.5823 0.99923 0.0
C5270 C 0.17555 0.58801 0.97882 0.0
C5271 C 0.18868 0.58986 0.96966 0.0
C5272 C 0.17671 0.58805 0.99493 0.0
C5273 C 0.20253 0.59362 0.9768 0.0
C5274 C 0.20368 0.59411 0.99269 0.0
C5275 C 0.19282 0.5883 0.01764 0.0
C5276 C 0.18052 0.58342 0.02674 0.0
C5277 C 0.19105 0.59057 1.00184 0.0
C5278 C 0.16607 0.58196 0.02001 0.0
C5279 C 0.16417 0.58428 0.00425 0.0
H5280 H 0.41975 0.16009 0.02231 0.0
H5281 H 0.41266 0.20837 0.02806 0.0
H5282 H 0.40477 0.21068 1.00154 0.0
H5283 H 0.40507 0.20005 0.97574 0.0
H5284 H 0.41176 0.15185 0.96931 0.0
H5285 H 0.41386 0.14832 0.99691 0.0
C5286 C 0.41582 0.17095 0.0179 0.0
C5287 C 0.41674 0.18405 0.02721 0.0
C5288 C 0.41133 0.17226 0.00239 0.0
C5289 C 0.41194 0.19811 0.02119 0.0
C5290 C 0.40751 0.19947 0.00596 0.0
C5291 C 0.40625 0.18865 0.98039 0.0
C5292 C 0.40849 0.1763 0.97035 0.0
C5293 C 0.40785 0.18677 0.99628 0.0
C5294 C 0.4099 0.16159 0.97666 0.0
C5295 C 0.41145 0.15961 0.99252 0.0
H5296 H 0.80127 0.41404 0.97944 0.0
H5297 H 0.84878 0.42224 0.97031 0.0
H5298 H 0.85406 0.4234 0.99767 0.0
H5299 H 0.84402 0.42698 0.02421 0.0
H5300 H 0.79653 0.41759 0.03269 0.0
H5301 H 0.7925 0.41184 0.00589 0.0
C5302 C 0.81289 0.41541 0.98343 0.0
C5303 C 0.82456 0.41808 0.97276 0.0
C5304 C 0.81584 0.41619 0.99923 0.0
C5305 C 0.83956 0.41995 0.9782 0.0
C5306 C 0.84256 0.42088 0.99392 0.0
C5307 C 0.83299 0.42306 0.02027 0.0
C5308 C 0.82058 0.4228 0.0305 0.0
C5309 C 0.83066 0.41971 0.00458 0.0
C5310 C 0.80628 0.41791 0.02509 0.0
C5311 C 0.80391 0.41469 0.0097 0.0
H5312 H 0.58866 0.80323 0.02135 0.0
H5313 H 0.57853 0.85121 0.02286 0.0
H5314 H 0.58319 0.85314 0.99528 0.0
H5315 H 0.58535 0.83998 0.97026 0.0
H5316 H 0.59383 0.79156 0.96924 0.0
H5317 H 0.59508 0.79104 0.99702 0.0
C5318 C 0.58805 0.81423 0.01571 0.0
C5319 C 0.58341 0.8271 0.02414 0.0
C5320 C 0.59032 0.8151 0.99985 0.0
C5321 C 0.58236 0.84122 0.01669 0.0
C5322 C 0.58485 0.84225 1.00087 0.0
C5323 C 0.58819 0.82946 0.97609 0.0
C5324 C 0.58952 0.8158 0.9676 0.0
C5325 C 0.58823 0.82912 0.99223 0.0
C5326 C 0.59283 0.80221 0.97542 0.0
C5327 C 0.59336 0.80188 0.99135 0.0
H5328 H 0.84013 0.58428 0.02977 0.0
H5329 H 0.79239 0.5951 0.03375 0.0
H5330 H 0.79013 0.59631 0.00605 0.0
H5331 H 0.80038 0.58906 0.98104 0.0
H5332 H 0.84774 0.57708 0.97654 0.0
H5333 H 0.8516 0.58163 0.00392 0.0
C5334 C 0.82944 0.5877 0.02457 0.0
C5335 C 0.81645 0.58975 0.03388 0.0
C5336 C 0.82808 0.58771 0.00847 0.0
C5337 C 0.80257 0.59367 0.0269 0.0
C5338 C 0.80123 0.59413 0.01102 0.0
C5339 C 0.81168 0.588 0.98597 0.0
C5340 C 0.82379 0.58286 0.97676 0.0
C5341 C 0.81369 0.59039 1.00173 0.0
C5342 C 0.83831 0.58129 0.98332 0.0
C5343 C 0.84045 0.58373 0.99903 0.0
H5344 H 0.42577 0.83978 0.98235 0.0
H5345 H 0.42124 0.79119 0.97648 0.0
H5346 H 0.41493 0.78818 0.00329 0.0
H5347 H 0.41556 0.79856 0.02914 0.0
H5348 H 0.42003 0.84699 0.0358 0.0
H5349 H 0.42086 0.8509 0.0082 0.0
C5350 C 0.42283 0.82866 0.98686 0.0
C5351 C 0.4241 0.81571 0.97742 0.0
C5352 C 0.4193 0.82692 0.00256 0.0
C5353 C 0.42043 0.80132 0.98351 0.0
C5354 C 0.41686 0.79956 0.99889 0.0
C5355 C 0.41603 0.81004 0.02455 0.0
C5356 C 0.41787 0.82241 0.03459 0.0
C5357 C 0.41692 0.81217 0.00866 0.0
C5358 C 0.41847 0.83723 0.0284 0.0
C5359 C 0.41924 0.83946 0.01255 0.0
H5360 H 0.58038 0.19521 0.97775 0.0
H5361 H 0.56819 0.1479 0.982 0.0
H5362 H 0.57436 0.14859 0.00927 0.0
H5363 H 0.57881 0.16382 0.03255 0.0
H5364 H 0.58785 0.21194 0.02847 0.0
H5365 H 0.58784 0.20974 1.00069 0.0
C5366 C 0.57968 0.18491 0.98456 0.0
C5367 C 0.57424 0.17139 0.97777 0.0
C5368 C 0.58258 0.18563 1.0004 0.0
C5369 C 0.57274 0.1583 0.98685 0.0
C5370 C 0.57613 0.15876 0.0025 0.0
C5371 C 0.5815 0.17369 0.0256 0.0
C5372 C 0.58349 0.18803 0.03271 0.0
C5373 C 0.58053 0.1725 0.00953 0.0
C5374 C 0.58645 0.20076 0.0234 0.0
C5375 C 0.58623 0.19953 0.00746 0.0
H5376 H 0.52432 0.70222 0.91189 0.0
H5377 H 0.53226 0.65448 0.92021 0.0
H5378 H 0.5048 0.6499 0.92136 0.0
H5379 H 0.47867 0.66061 0.9251 0.0
H5380 H 0.4712 0.70829 0.91594 0.0
H5381 H 0.49806 0.71167 0.90982 0.0
C5382 C 0.52004 0.6907 0.91329 0.0
C5383 C 0.5304 0.67876 0.91601 0.0
C5384 C 0.50418 0.68816 0.91408 0.0
C5385 C 0.52461 0.6639 0.9179 0.0
C5386 C 0.50884 0.66129 0.91881 0.0
C5387 C 0.48283 0.67154 0.92109 0.0
C5388 C 0.47292 0.68418 0.92094 0.0
C5389 C 0.4985 0.67347 0.91763 0.0
C5390 C 0.47858 0.69837 0.91604 0.0
C5391 C 0.49399 0.70036 0.91266 0.0
H5392 H 0.33962 0.52824 0.92134 0.0
H5393 H 0.29162 0.53197 0.91146 0.0
H5394 H 0.28946 0.50428 0.91047 0.0
H5395 H 0.30001 0.4793 0.91735 0.0
H5396 H 0.34765 0.47495 0.9282 0.0
H5397 H 0.35124 0.50241 0.92379 0.0
C5398 C 0.32887 0.523 0.91822 0.0
C5399 C 0.31579 0.53226 0.91641 0.0
C5400 C 0.32757 0.50688 0.91827 0.0
C5401 C 0.30186 0.52519 0.91279 0.0
C5402 C 0.30058 0.50931 0.91243 0.0
C5403 C 0.31129 0.48429 0.91823 0.0
C5404 C 0.32357 0.47509 0.92299 0.0
C5405 C 0.31317 0.50007 0.9159 0.0
C5406 C 0.33808 0.48172 0.9243 0.0
C5407 C 0.34008 0.49747 0.92193 0.0
H5408 H 0.47224 0.3415 0.92485 0.0
H5409 H 0.47308 0.29344 0.91468 0.0
H5410 H 0.50092 0.29385 0.91422 0.0
H5411 H 0.52474 0.3066 0.92191 0.0
H5412 H 0.52393 0.35395 0.93462 0.0
H5413 H 0.49658 0.35521 0.92883 0.0
C5414 C 0.4785 0.33129 0.9218 0.0
C5415 C 0.4705 0.31746 0.91971 0.0
C5416 C 0.49463 0.33144 0.9224 0.0
C5417 C 0.47888 0.30424 0.91621 0.0
C5418 C 0.49485 0.30443 0.91616 0.0
C5419 C 0.51867 0.31735 0.92277 0.0
C5420 C 0.52641 0.33028 0.92832 0.0
C5421 C 0.50283 0.31777 0.91999 0.0
C5422 C 0.51832 0.34398 0.92997 0.0
C5423 C 0.50263 0.34463 0.92682 0.0
H5424 H 0.70244 0.52183 0.9142 0.0
H5425 H 0.65571 0.52553 0.92861 0.0
H5426 H 0.65228 0.49797 0.92495 0.0
H5427 H 0.66425 0.47235 0.92251 0.0
H5428 H 0.71148 0.46914 0.90949 0.0
H5429 H 0.71294 0.49683 0.90717 0.0
C5430 C 0.69132 0.51667 0.91592 0.0
C5431 C 0.67928 0.52573 0.92148 0.0
C5432 C 0.68959 0.5008 0.91411 0.0
C5433 C 0.66504 0.51888 0.92402 0.0
C5434 C 0.66316 0.50306 0.92209 0.0
C5435 C 0.67461 0.47768 0.91836 0.0
C5436 C 0.68771 0.46861 0.91597 0.0
C5437 C 0.67555 0.4938 0.91774 0.0
C5438 C 0.7012 0.47578 0.91114 0.0
C5439 C 0.7021 0.49167 0.91006 0.0
H5440 H 0.52953 0.30433 0.09743 0.0
H5441 H 0.53359 0.35299 0.09236 0.0
H5442 H 0.50584 0.35529 0.09063 0.0
H5443 H 0.48092 0.3426 0.08474 0.0
H5444 H 0.47781 0.29375 0.08906 0.0
H5445 H 0.50441 0.2924 0.09684 0.0
C5446 C 0.52432 0.31553 0.09664 0.0
C5447 C 0.53372 0.32842 0.09482 0.0
C5448 C 0.50839 0.31668 0.09502 0.0
C5449 C 0.52672 0.34285 0.09388 0.0
C5450 C 0.51079 0.34413 0.09256 0.0
C5451 C 0.48596 0.33178 0.08795 0.0
C5452 C 0.47739 0.31827 0.0863 0.0
C5453 C 0.50155 0.33103 0.09223 0.0
C5454 C 0.48416 0.30429 0.09025 0.0
C5455 C 0.49941 0.30349 0.09465 0.0
H5456 H 0.7075 0.53034 0.08939 0.0
H5457 H 0.65923 0.53743 0.08403 0.0
H5458 H 0.65498 0.50987 0.08402 0.0
H5459 H 0.66579 0.48363 0.08056 0.0
H5460 H 0.71417 0.47731 0.08666 0.0
H5461 H 0.71747 0.50437 0.09149 0.0
C5462 C 0.69598 0.52588 0.08888 0.0
C5463 C 0.68375 0.53602 0.08665 0.0
C5464 C 0.69363 0.50998 0.08865 0.0
C5465 C 0.66888 0.52997 0.08593 0.0
C5466 C 0.66645 0.51413 0.08566 0.0
C5467 C 0.67692 0.48812 0.08352 0.0
C5468 C 0.68973 0.47842 0.08309 0.0
C5469 C 0.67883 0.50397 0.08628 0.0
C5470 C 0.70412 0.48451 0.0868 0.0
C5471 C 0.70606 0.50004 0.08952 0.0
H5472 H 0.47785 0.70392 0.08949 0.0
H5473 H 0.47174 0.65587 0.08146 0.0
H5474 H 0.49936 0.6523 0.08051 0.0
H5475 H 0.52522 0.66388 0.07709 0.0
H5476 H 0.53074 0.71191 0.08582 0.0
H5477 H 0.50371 0.71435 0.09153 0.0
C5478 C 0.48256 0.69256 0.08815 0.0
C5479 C 0.47264 0.68023 0.08548 0.0
C5480 C 0.49851 0.6906 0.08744 0.0
C5481 C 0.47902 0.66558 0.0837 0.0
C5482 C 0.49489 0.66356 0.08291 0.0
C5483 C 0.52059 0.6747 0.08088 0.0
C5484 C 0.53004 0.6877 0.08103 0.0
C5485 C 0.50478 0.6761 0.08408 0.0
C5486 C 0.52376 0.70172 0.08567 0.0
C5487 C 0.50823 0.70317 0.08884 0.0
H5488 H 0.30083 0.4767 0.09 0.0
H5489 H 0.34882 0.47051 0.08159 0.0
H5490 H 0.35257 0.49811 0.08144 0.0
H5491 H 0.34113 0.52405 0.07871 0.0
H5492 H 0.29322 0.52976 0.08791 0.0
H5493 H 0.2906 0.50259 0.09296 0.0
C5494 C 0.31221 0.48137 0.08875 0.0
C5495 C 0.32447 0.47147 0.08572 0.0
C5496 C 0.31429 0.49732 0.08855 0.0
C5497 C 0.33915 0.47778 0.08408 0.0
C5498 C 0.34129 0.49364 0.08377 0.0
C5499 C 0.33031 0.51942 0.0825 0.0
C5500 C 0.3174 0.52895 0.08297 0.0
C5501 C 0.32881 0.50357 0.0853 0.0
C5502 C 0.30336 0.52269 0.08757 0.0
C5503 C 0.3018 0.5071 0.09033 0.0
H5504 H 0.922 0.52748 0.66375 0.0
H5505 H 0.91292 0.53156 0.71187 0.0
H5506 H 0.91172 0.50389 0.7142 0.0
H5507 H 0.91807 0.4788 0.70368 0.0
H5508 H 0.92823 0.47405 0.65591 0.0
H5509 H 0.92409 0.50154 0.65223 0.0
C5510 C 0.91902 0.52231 0.67457 0.0
C5511 C 0.91748 0.53166 0.68763 0.0
C5512 C 0.91897 0.50621 0.67596 0.0
C5513 C 0.91404 0.5247 0.70165 0.0
C5514 C 0.91356 0.50883 0.70302 0.0
C5515 C 0.91892 0.48371 0.69236 0.0
C5516 C 0.92343 0.47439 0.68008 0.0
C5517 C 0.91675 0.4995 0.69043 0.0
C5518 C 0.92459 0.48092 0.66551 0.0
C5519 C 0.92236 0.49669 0.66346 0.0
H5520 H 0.52341 0.91906 0.70357 0.0
H5521 H 0.52718 0.92853 0.65557 0.0
H5522 H 0.49962 0.9243 0.65251 0.0
H5523 H 0.47395 0.92225 0.66456 0.0
H5524 H 0.47087 0.91389 0.71291 0.0
H5525 H 0.49858 0.91281 0.71468 0.0
C5526 C 0.51825 0.91978 0.69235 0.0
C5527 C 0.52732 0.92413 0.67981 0.0
C5528 C 0.50245 0.91753 0.69077 0.0
C5529 C 0.5205 0.92506 0.66536 0.0
C5530 C 0.5047 0.92276 0.66366 0.0
C5531 C 0.47933 0.91945 0.67533 0.0
C5532 C 0.47026 0.91813 0.68861 0.0
C5533 C 0.49546 0.9195 0.6764 0.0
C5534 C 0.4775 0.91489 0.70253 0.0
C5535 C 0.49339 0.91448 0.70359 0.0
H5536 H 0.08834 0.52424 0.7032 0.0
H5537 H 0.0762 0.52815 0.65582 0.0
H5538 H 0.0807 0.5007 0.65232 0.0
H5539 H 0.08364 0.47498 0.66408 0.0
H5540 H 0.09473 0.47166 0.71182 0.0
H5541 H 0.09567 0.49939 0.71374 0.0
C5542 C 0.08714 0.51915 0.69199 0.0
C5543 C 0.08196 0.52822 0.67978 0.0
C5544 C 0.08958 0.50338 0.69016 0.0
C5545 C 0.08035 0.52148 0.66535 0.0
C5546 C 0.0828 0.50573 0.6634 0.0
C5547 C 0.08707 0.48034 0.67469 0.0
C5548 C 0.08928 0.47119 0.68778 0.0
C5549 C 0.0869 0.49645 0.67587 0.0
C5550 C 0.0932 0.47837 0.70155 0.0
C5551 C 0.09348 0.49427 0.70271 0.0
H5552 H 0.48267 0.08892 0.70039 0.0
H5553 H 0.48007 0.07545 0.65329 0.0
H5554 H 0.5076 0.0799 0.6504 0.0
H5555 H 0.53296 0.08303 0.6628 0.0
H5556 H 0.53502 0.09507 0.71036 0.0
H5557 H 0.50726 0.09638 0.71145 0.0
C5558 C 0.48806 0.08748 0.68934 0.0
C5559 C 0.47934 0.08196 0.67703 0.0
C5560 C 0.50388 0.0898 0.6879 0.0
C5561 C 0.48647 0.07992 0.66285 0.0
C5562 C 0.50226 0.08233 0.66127 0.0
C5563 C 0.52734 0.08674 0.67316 0.0
C5564 C 0.53613 0.08913 0.68647 0.0
C5565 C 0.5112 0.08673 0.67388 0.0
C5566 C 0.5286 0.09341 0.69994 0.0
C5567 C 0.51268 0.0939 0.70063 0.0
H5568 H 0.91769 0.47786 0.29892 0.0
H5569 H 0.9237 0.47135 0.3472 0.0
H5570 H 0.92421 0.49899 0.35104 0.0
H5571 H 0.92772 0.52508 0.33982 0.0
H5572 H 0.92103 0.5308 0.29146 0.0
H5573 H 0.9159 0.50373 0.2886 0.0
C5574 C 0.91848 0.48247 0.31037 0.0
C5575 C 0.92067 0.47244 0.32271 0.0
C5576 C 0.91899 0.49841 0.31248 0.0
C5577 C 0.92178 0.47871 0.33746 0.0
C5578 C 0.92234 0.49459 0.33965 0.0
C5579 C 0.92456 0.52047 0.3288 0.0
C5580 C 0.92485 0.53003 0.31586 0.0
C5581 C 0.92164 0.5046 0.32715 0.0
C5582 C 0.92094 0.52374 0.30161 0.0
C5583 C 0.91806 0.5082 0.29992 0.0
H5584 H 0.48182 0.91678 0.30132 0.0
H5585 H 0.47838 0.92686 0.34921 0.0
H5586 H 0.50597 0.92276 0.35213 0.0
H5587 H 0.53153 0.9209 0.33988 0.0
H5588 H 0.53433 0.91205 0.29161 0.0
H5589 H 0.50662 0.91059 0.29007 0.0
C5590 C 0.48705 0.91758 0.3125 0.0
C5591 C 0.47807 0.92207 0.32505 0.0
C5592 C 0.50288 0.9155 0.31397 0.0
C5593 C 0.48499 0.92322 0.33944 0.0
C5594 C 0.5008 0.92102 0.34104 0.0
C5595 C 0.5261 0.91793 0.32918 0.0
C5596 C 0.53507 0.91657 0.31585 0.0
C5597 C 0.50997 0.91773 0.32826 0.0
C5598 C 0.52777 0.91308 0.30202 0.0
C5599 C 0.51187 0.91244 0.3011 0.0
H5600 H 0.09592 0.52738 0.29954 0.0
H5601 H 0.08572 0.53617 0.34673 0.0
H5602 H 0.08536 0.50879 0.35196 0.0
H5603 H 0.08258 0.48238 0.3417 0.0
H5604 H 0.09387 0.47397 0.29467 0.0
H5605 H 0.09948 0.50092 0.29087 0.0
C5606 C 0.09437 0.52332 0.31112 0.0
C5607 C 0.09089 0.53386 0.32271 0.0
C5608 C 0.09411 0.50749 0.31404 0.0
C5609 C 0.08869 0.52837 0.33762 0.0
C5610 C 0.08822 0.51264 0.34058 0.0
C5611 C 0.08703 0.48635 0.33088 0.0
C5612 C 0.08795 0.47612 0.31852 0.0
C5613 C 0.09018 0.50206 0.32871 0.0
C5614 C 0.09331 0.48155 0.30441 0.0
C5615 C 0.09634 0.49703 0.30218 0.0
H5616 H 0.52337 0.08504 0.29996 0.0
H5617 H 0.52736 0.07575 0.34798 0.0
H5618 H 0.49985 0.08016 0.3512 0.0
H5619 H 0.47417 0.08214 0.33927 0.0
H5620 H 0.4708 0.09025 0.2909 0.0
H5621 H 0.4985 0.09135 0.28896 0.0
C5622 C 0.51828 0.08444 0.31122 0.0
C5623 C 0.52736 0.08008 0.32372 0.0
C5624 C 0.5025 0.08675 0.31288 0.0
C5625 C 0.52064 0.07925 0.33823 0.0
C5626 C 0.50488 0.08164 0.34001 0.0
C5627 C 0.47949 0.08489 0.32845 0.0
C5628 C 0.47035 0.08611 0.31522 0.0
C5629 C 0.49558 0.08486 0.3273 0.0
C5630 C 0.4775 0.08931 0.30123 0.0
C5631 C 0.49338 0.08974 0.30009 0.0
H5632 H 0.7017 0.91836 0.48028 0.0
H5633 H 0.65398 0.92924 0.47681 0.0
H5634 H 0.65074 0.92399 0.50418 0.0
H5635 H 0.66268 0.92074 0.52975 0.0
H5636 H 0.71081 0.91114 0.53264 0.0
H5637 H 0.71262 0.91095 0.5049 0.0
C5638 C 0.69048 0.91912 0.48544 0.0
C5639 C 0.67808 0.92415 0.47653 0.0
C5640 C 0.68882 0.91635 0.50115 0.0
C5641 C 0.66364 0.92521 0.48336 0.0
C5642 C 0.66185 0.92233 0.49905 0.0
C5643 C 0.6734 0.91787 0.5243 0.0
C5644 C 0.68662 0.91593 0.53335 0.0
C5645 C 0.67449 0.91843 0.50819 0.0
C5646 C 0.70048 0.9126 0.52603 0.0
C5647 C 0.70156 0.9127 0.51012 0.0
H5648 H 0.66364 0.07947 0.52339 0.0
H5649 H 0.71176 0.08638 0.53044 0.0
H5650 H 0.7149 0.09396 0.50393 0.0
H5651 H 0.70502 0.09347 0.47783 0.0
H5652 H 0.65705 0.08674 0.47009 0.0
H5653 H 0.65269 0.08486 0.49758 0.0
C5654 C 0.67465 0.08326 0.51923 0.0
C5655 C 0.68747 0.08237 0.52889 0.0
C5656 C 0.67644 0.08752 0.50373 0.0
C5657 C 0.70173 0.08703 0.52326 0.0
C5658 C 0.70356 0.09129 0.50804 0.0
C5659 C 0.6935 0.09238 0.48219 0.0
C5660 C 0.68142 0.09023 0.47186 0.0
C5661 C 0.69115 0.0909 0.49801 0.0
C5662 C 0.66656 0.08866 0.47773 0.0
C5663 C 0.6641 0.08726 0.49351 0.0
H5664 H 0.9198 0.66313 0.47259 0.0
H5665 H 0.91011 0.71123 0.46966 0.0
H5666 H 0.90903 0.71289 0.49738 0.0
H5667 H 0.91571 0.70188 0.5222 0.0
H5668 H 0.9265 0.65415 0.52574 0.0
H5669 H 0.92216 0.65104 0.49821 0.0
C5670 C 0.91672 0.6738 0.47801 0.0
C5671 C 0.91497 0.68705 0.46896 0.0
C5672 C 0.91671 0.67481 0.49414 0.0
C5673 C 0.9114 0.70087 0.47626 0.0
C5674 C 0.91098 0.70186 0.49217 0.0
C5675 C 0.9166 0.69068 0.51701 0.0
C5676 C 0.92133 0.67823 0.52602 0.0
C5677 C 0.91435 0.6891 0.50119 0.0
C5678 C 0.92263 0.66384 0.51913 0.0
C5679 C 0.9203 0.66213 0.50334 0.0
H5680 H 0.29888 0.91425 0.47964 0.0
H5681 H 0.34681 0.92049 0.47107 0.0
H5682 H 0.35177 0.92168 0.49848 0.0
H5683 H 0.34155 0.92598 0.5248 0.0
H5684 H 0.29359 0.91888 0.53278 0.0
H5685 H 0.28967 0.91284 0.506 0.0
C5686 C 0.3105 0.9152 0.48378 0.0
C5687 C 0.32241 0.91731 0.47323 0.0
C5688 C 0.31326 0.91606 0.4996 0.0
C5689 C 0.3374 0.91864 0.47885 0.0
C5690 C 0.34023 0.91958 0.4946 0.0
C5691 C 0.33041 0.92248 0.52076 0.0
C5692 C 0.31788 0.92291 0.53082 0.0
C5693 C 0.32815 0.91903 0.5051 0.0
C5694 C 0.30343 0.9186 0.5253 0.0
C5695 C 0.30113 0.91524 0.50993 0.0
H5696 H 0.0907 0.30188 0.52266 0.0
H5697 H 0.07982 0.34938 0.52834 0.0
H5698 H 0.08322 0.35355 0.50084 0.0
H5699 H 0.08454 0.3424 0.47475 0.0
H5700 H 0.09415 0.29446 0.46968 0.0
H5701 H 0.09646 0.2918 0.49725 0.0
C5702 C 0.08963 0.31327 0.51793 0.0
C5703 C 0.08511 0.32533 0.52752 0.0
C5704 C 0.09126 0.31544 0.50213 0.0
C5705 C 0.08354 0.33998 0.52126 0.0
C5706 C 0.08532 0.34229 0.50548 0.0
C5707 C 0.08785 0.33155 0.47965 0.0
C5708 C 0.08918 0.31863 0.4701 0.0
C5709 C 0.08857 0.32996 0.4957 0.0
C5710 C 0.09311 0.30457 0.47671 0.0
C5711 C 0.09426 0.30301 0.49252 0.0
H5712 H 0.29963 0.09343 0.52516 0.0
H5713 H 0.34668 0.08298 0.53451 0.0
H5714 H 0.35214 0.08214 0.5072 0.0
H5715 H 0.34218 0.07934 0.48066 0.0
H5716 H 0.29543 0.0913 0.47162 0.0
H5717 H 0.29132 0.09688 0.49852 0.0
C5718 C 0.31122 0.09165 0.52123 0.0
C5719 C 0.3227 0.08828 0.53195 0.0
C5720 C 0.31432 0.09122 0.50543 0.0
C5721 C 0.33764 0.08584 0.5266 0.0
C5722 C 0.34074 0.08513 0.5109 0.0
C5723 C 0.33136 0.08394 0.48448 0.0
C5724 C 0.31917 0.08507 0.47405 0.0
C5725 C 0.32901 0.08713 0.50017 0.0
C5726 C 0.30506 0.0906 0.47932 0.0
C5727 C 0.30263 0.0936 0.49479 0.0
H5728 H 0.9206 0.29865 0.48131 0.0
H5729 H 0.92865 0.34689 0.47734 0.0
H5730 H 0.92453 0.34992 0.50491 0.0
H5731 H 0.92318 0.33788 0.53063 0.0
H5732 H 0.91624 0.28934 0.53393 0.0
H5733 H 0.91487 0.28744 0.50624 0.0
C5734 C 0.92098 0.30991 0.48642 0.0
C5735 C 0.9249 0.32254 0.4773 0.0
C5736 C 0.91883 0.31147 0.50225 0.0
C5737 C 0.92547 0.33703 0.48406 0.0
C5738 C 0.92325 0.33872 0.49987 0.0
C5739 C 0.92061 0.32703 0.5253 0.0
C5740 C 0.91977 0.31375 0.53443 0.0
C5741 C 0.92047 0.32592 0.50918 0.0
C5742 C 0.91684 0.29972 0.52726 0.0
C5743 C 0.91626 0.2986 0.51137 0.0
H5744 H 0.07733 0.66333 0.48123 0.0
H5745 H 0.08408 0.71133 0.47303 0.0
H5746 H 0.09016 0.71542 0.49974 0.0
H5747 H 0.08886 0.70636 0.52611 0.0
H5748 H 0.08298 0.65845 0.53499 0.0
H5749 H 0.08181 0.65329 0.50762 0.0
C5750 C 0.08071 0.67453 0.48522 0.0
C5751 C 0.08011 0.68703 0.47513 0.0
C5752 C 0.08423 0.6769 0.50085 0.0
C5753 C 0.08437 0.70153 0.48056 0.0
C5754 C 0.0878 0.70392 0.49589 0.0
C5755 C 0.08801 0.69471 0.52205 0.0
C5756 C 0.08595 0.68286 0.53266 0.0
C5757 C 0.08712 0.69184 0.50626 0.0
C5758 C 0.08478 0.66781 0.52715 0.0
C5759 C 0.08382 0.66487 0.51142 0.0
H5760 H 0.09288 0.18728 0.53115 0.0
H5761 H 0.05218 0.15989 0.53147 0.0
H5762 H 0.05337 0.15736 0.50368 0.0
H5763 H 0.06458 0.16576 0.47932 0.0
H5764 H 0.1093 0.18602 0.47936 0.0
H5765 H 0.10858 0.18775 0.50734 0.0
C5766 C 0.08429 0.18081 0.52505 0.0
C5767 C 0.07158 0.17502 0.53292 0.0
C5768 C 0.08597 0.17798 0.50937 0.0
C5769 C 0.06138 0.16537 0.52532 0.0
C5770 C 0.06217 0.16375 0.50953 0.0
C5771 C 0.07429 0.17032 0.48548 0.0
C5772 C 0.08653 0.17676 0.47742 0.0
C5773 C 0.07414 0.1705 0.50141 0.0
C5774 C 0.09953 0.18153 0.48543 0.0
C5775 C 0.09905 0.18264 0.50137 0.0
H5776 H 0.84142 0.06631 0.47604 0.0
H5777 H 0.81563 0.10809 0.47657 0.0
H5778 H 0.81444 0.10715 0.50454 0.0
H5779 H 0.81774 0.09194 0.5284 0.0
H5780 H 0.85074 0.05561 0.52822 0.0
H5781 H 0.8522 0.05677 0.50033 0.0
C5782 C 0.83572 0.07533 0.48231 0.0
C5783 C 0.82765 0.08666 0.47439 0.0
C5784 C 0.83608 0.07536 0.49828 0.0
C5785 C 0.82137 0.09892 0.48253 0.0
C5786 C 0.82063 0.09835 0.49848 0.0
C5787 C 0.82525 0.08431 0.5222 0.0
C5788 C 0.83309 0.07274 0.53002 0.0
C5789 C 0.82729 0.08613 0.5064 0.0
C5790 C 0.84388 0.06392 0.52218 0.0
C5791 C 0.84482 0.06467 0.50631 0.0
H5792 H 0.94054 0.84356 0.5244 0.0
H5793 H 0.9049 0.81132 0.53434 0.0
H5794 H 0.89613 0.8124 0.50791 0.0
H5795 H 0.90083 0.81977 0.48115 0.0
H5796 H 0.94114 0.84575 0.47064 0.0
H5797 H 0.94578 0.85019 0.49767 0.0
C5798 C 0.93096 0.8367 0.52067 0.0
C5799 C 0.92361 0.82712 0.53107 0.0
C5800 C 0.92686 0.83629 0.50521 0.0
C5801 C 0.91094 0.81854 0.52633 0.0
C5802 C 0.90588 0.8192 0.51127 0.0
C5803 C 0.91054 0.82646 0.48485 0.0
C5804 C 0.92083 0.83208 0.47403 0.0
C5805 C 0.91409 0.8276 0.50045 0.0
C5806 C 0.93321 0.84106 0.47886 0.0
C5807 C 0.93593 0.84354 0.4943 0.0
H5808 H 0.18507 0.90251 0.4795 0.0
H5809 H 0.15985 0.9433 0.46892 0.0
H5810 H 0.15439 0.94731 0.49591 0.0
H5811 H 0.15953 0.94105 0.52279 0.0
H5812 H 0.19159 0.90534 0.53309 0.0
H5813 H 0.19168 0.89732 0.50638 0.0
C5814 C 0.17841 0.91225 0.48318 0.0
C5815 C 0.17314 0.92276 0.47237 0.0
C5816 C 0.17672 0.91544 0.4988 0.0
C5817 C 0.16423 0.93519 0.47715 0.0
C5818 C 0.16114 0.93752 0.49256 0.0
C5819 C 0.1666 0.93161 0.51909 0.0
C5820 C 0.17576 0.92399 0.5297 0.0
C5821 C 0.16781 0.92806 0.50353 0.0
C5822 C 0.18465 0.91154 0.52496 0.0
C5823 C 0.18469 0.90694 0.50973 0.0
H5824 H 0.0943 0.81841 0.47662 0.0
H5825 H 0.05608 0.84917 0.47534 0.0
H5826 H 0.05618 0.85079 0.50326 0.0
H5827 H 0.06542 0.84054 0.52795 0.0
H5828 H 0.1087 0.81737 0.52899 0.0
H5829 H 0.10884 0.81611 0.50101 0.0
C5830 C 0.08606 0.82551 0.4825 0.0
C5831 C 0.07431 0.83261 0.47422 0.0
C5832 C 0.08717 0.82768 0.49835 0.0
C5833 C 0.0646 0.84288 0.48169 0.0
C5834 C 0.06472 0.84389 0.4976 0.0
C5835 C 0.07498 0.8354 0.52203 0.0
C5836 C 0.0865 0.82803 0.53039 0.0
C5837 C 0.0756 0.83579 0.50605 0.0
C5838 C 0.0994 0.82252 0.52269 0.0
C5839 C 0.09946 0.82176 0.50673 0.0
H5840 H 0.18578 0.09387 0.47479 0.0
H5841 H 0.15529 0.05542 0.47462 0.0
H5842 H 0.15362 0.05638 0.50252 0.0
H5843 H 0.16374 0.06646 0.5269 0.0
H5844 H 0.18714 0.10962 0.52669 0.0
H5845 H 0.18826 0.10901 0.49871 0.0
C5846 C 0.17873 0.08577 0.48091 0.0
C5847 C 0.17169 0.07375 0.47298 0.0
C5848 C 0.1766 0.08732 0.4967 0.0
C5849 C 0.1615 0.06418 0.48072 0.0
C5850 C 0.16047 0.06479 0.49661 0.0
C5851 C 0.16889 0.07584 0.5207 0.0
C5852 C 0.17633 0.08755 0.5287 0.0
C5853 C 0.16849 0.07597 0.50473 0.0
C5854 C 0.1819 0.1002 0.52066 0.0
C5855 C 0.18259 0.09982 0.50471 0.0
H5856 H 0.93865 0.16522 0.52777 0.0
H5857 H 0.8936 0.18474 0.52878 0.0
H5858 H 0.8937 0.18665 0.50082 0.0
H5859 H 0.90883 0.18641 0.47659 0.0
H5860 H 0.9495 0.15901 0.47523 0.0
H5861 H 0.94917 0.15667 0.50306 0.0
C5862 C 0.92874 0.16967 0.52185 0.0
C5863 C 0.91657 0.17586 0.53022 0.0
C5864 C 0.92846 0.16981 0.50589 0.0
C5865 C 0.90333 0.18046 0.52249 0.0
C5866 C 0.90344 0.18165 0.50654 0.0
C5867 C 0.91761 0.17999 0.48246 0.0
C5868 C 0.9301 0.17419 0.47424 0.0
C5869 C 0.91637 0.17717 0.49821 0.0
C5870 C 0.94049 0.16454 0.48161 0.0
C5871 C 0.94019 0.16303 0.49745 0.0
H5872 H 0.81866 0.90992 0.47683 0.0
H5873 H 0.84466 0.95154 0.4768 0.0
H5874 H 0.84697 0.95037 0.50463 0.0
H5875 H 0.83864 0.93885 0.52893 0.0
H5876 H 0.82008 0.89339 0.52857 0.0
H5877 H 0.81852 0.89417 0.5006 0.0
C5878 C 0.82483 0.91869 0.48298 0.0
C5879 C 0.83028 0.93158 0.47516 0.0
C5880 C 0.82754 0.91709 0.4987 0.0
C5881 C 0.8395 0.9421 0.48287 0.0
C5882 C 0.84096 0.94134 0.4987 0.0
C5883 C 0.83447 0.929 0.52271 0.0
C5884 C 0.82845 0.91649 0.5307 0.0
C5885 C 0.8345 0.92916 0.50676 0.0
C5886 C 0.82422 0.90336 0.52259 0.0
C5887 C 0.82323 0.90386 0.50663 0.0
H5888 H 0.47546 0.06759 0.16293 0.0
H5889 H 0.47251 0.11076 0.18614 0.0
H5890 H 0.50047 0.11187 0.18778 0.0
H5891 H 0.52539 0.09804 0.186 0.0
H5892 H 0.52839 0.05971 0.15549 0.0
H5893 H 0.50054 0.05905 0.15327 0.0
C5894 C 0.48094 0.07737 0.16815 0.0
C5895 C 0.47206 0.08855 0.17542 0.0
C5896 C 0.49688 0.07847 0.16807 0.0
C5897 C 0.47921 0.10172 0.18104 0.0
C5898 C 0.49516 0.10231 0.18204 0.0
C5899 C 0.51989 0.08961 0.17883 0.0
C5900 C 0.52866 0.07806 0.17196 0.0
C5901 C 0.50406 0.09028 0.17631 0.0
C5902 C 0.52168 0.06809 0.16159 0.0
C5903 C 0.50581 0.06778 0.16023 0.0
H5904 H 0.93973 0.47627 0.16604 0.0
H5905 H 0.89531 0.47632 0.18695 0.0
H5906 H 0.89548 0.50434 0.18751 0.0
H5907 H 0.91053 0.52852 0.18547 0.0
H5908 H 0.95029 0.52846 0.15673 0.0
H5909 H 0.94991 0.50053 0.15585 0.0
C5910 C 0.92998 0.48242 0.17051 0.0
C5911 C 0.918 0.47438 0.17746 0.0
C5912 C 0.92966 0.49839 0.16981 0.0
C5913 C 0.90492 0.48237 0.1821 0.0
C5914 C 0.90506 0.49836 0.1825 0.0
C5915 C 0.91909 0.52233 0.17904 0.0
C5916 C 0.93133 0.53026 0.17238 0.0
C5917 C 0.91781 0.50644 0.17714 0.0
C5918 C 0.94143 0.52238 0.16282 0.0
C5919 C 0.94112 0.50648 0.16218 0.0
H5920 H 0.4802 0.94204 0.16139 0.0
H5921 H 0.47239 0.90555 0.19327 0.0
H5922 H 0.49921 0.89809 0.19178 0.0
H5923 H 0.52557 0.90405 0.18393 0.0
H5924 H 0.53381 0.94514 0.15835 0.0
H5925 H 0.50651 0.94866 0.1545 0.0
C5926 C 0.48447 0.93256 0.16808 0.0
C5927 C 0.47457 0.92457 0.17766 0.0
C5928 C 0.5001 0.92921 0.16824 0.0
C5929 C 0.48001 0.91206 0.18605 0.0
C5930 C 0.49529 0.90775 0.18515 0.0
C5931 C 0.52131 0.91368 0.17747 0.0
C5932 C 0.53154 0.9245 0.17176 0.0
C5933 C 0.50557 0.91655 0.17668 0.0
C5934 C 0.52603 0.9368 0.16309 0.0
C5935 C 0.51044 0.93888 0.16095 0.0
H5936 H 0.06573 0.5279 0.16453 0.0
H5937 H 0.11055 0.52736 0.18457 0.0
H5938 H 0.10985 0.49937 0.18564 0.0
H5939 H 0.09425 0.47553 0.18451 0.0
H5940 H 0.05364 0.47577 0.15699 0.0
H5941 H 0.05466 0.50366 0.15531 0.0
C5942 C 0.07546 0.52164 0.1689 0.0
C5943 C 0.08774 0.52956 0.17546 0.0
C5944 C 0.07538 0.50567 0.16859 0.0
C5945 C 0.10075 0.52141 0.18 0.0
C5946 C 0.10029 0.50545 0.18071 0.0
C5947 C 0.08565 0.48175 0.17817 0.0
C5948 C 0.07303 0.47395 0.1721 0.0
C5949 C 0.08725 0.49754 0.17582 0.0
C5950 C 0.06281 0.4818 0.16265 0.0
C5951 C 0.0635 0.49767 0.16154 0.0
H5952 H 0.47956 0.9002 0.82098 0.0
H5953 H 0.46979 0.9408 0.84682 0.0
H5954 H 0.49691 0.94511 0.85098 0.0
H5955 H 0.5235 0.93954 0.84412 0.0
H5956 H 0.5328 0.90362 0.81201 0.0
H5957 H 0.50625 0.89517 0.81333 0.0
C5958 C 0.48344 0.90992 0.82754 0.0
C5959 C 0.47277 0.92039 0.83318 0.0
C5960 C 0.49911 0.9133 0.8285 0.0
C5961 C 0.47786 0.93272 0.84209 0.0
C5962 C 0.49336 0.93527 0.8444 0.0
C5963 C 0.51961 0.92997 0.83733 0.0
C5964 C 0.52988 0.92243 0.82774 0.0
C5965 C 0.5041 0.92606 0.83706 0.0
C5966 C 0.52491 0.9098 0.81923 0.0
C5967 C 0.50977 0.90493 0.82004 0.0
H5968 H 0.06389 0.5236 0.84361 0.0
H5969 H 0.10051 0.53326 0.81241 0.0
H5970 H 0.10869 0.50662 0.81331 0.0
H5971 H 0.10337 0.47985 0.82034 0.0
H5972 H 0.06202 0.46976 0.84482 0.0
H5973 H 0.05776 0.49685 0.84947 0.0
C5974 C 0.07352 0.51977 0.83689 0.0
C5975 C 0.08135 0.53019 0.82768 0.0
C5976 C 0.07727 0.50421 0.8363 0.0
C5977 C 0.0941 0.52528 0.81932 0.0
C5978 C 0.09882 0.51008 0.81989 0.0
C5979 C 0.09351 0.48365 0.82674 0.0
C5980 C 0.08287 0.47292 0.83194 0.0
C5981 C 0.09019 0.49931 0.82792 0.0
C5982 C 0.07026 0.47789 0.8405 0.0
C5983 C 0.06775 0.49337 0.84309 0.0
H5984 H 0.47568 0.09406 0.81341 0.0
H5985 H 0.47337 0.05658 0.84501 0.0
H5986 H 0.50121 0.0567 0.84753 0.0
H5987 H 0.5262 0.06573 0.83796 0.0
H5988 H 0.52807 0.1083 0.81358 0.0
H5989 H 0.50015 0.10843 0.81139 0.0
C5990 C 0.48132 0.08598 0.82088 0.0
C5991 C 0.4728 0.07444 0.82802 0.0
C5992 C 0.49709 0.08712 0.82349 0.0
C5993 C 0.47993 0.06495 0.83873 0.0
C5994 C 0.49578 0.06508 0.84025 0.0
C5995 C 0.52047 0.07514 0.83235 0.0
C5996 C 0.52906 0.08643 0.82494 0.0
C5997 C 0.5045 0.07576 0.83217 0.0
C5998 C 0.52159 0.09917 0.81878 0.0
C5999 C 0.50567 0.09921 0.81749 0.0
H6000 H 0.94117 0.48064 0.84437 0.0
H6001 H 0.90609 0.47067 0.81155 0.0
H6002 H 0.89732 0.49713 0.81243 0.0
H6003 H 0.90198 0.52392 0.81984 0.0
H6004 H 0.94168 0.53431 0.84681 0.0
H6005 H 0.94617 0.50727 0.8513 0.0
C6006 C 0.93174 0.48438 0.8373 0.0
C6007 C 0.92454 0.47398 0.82762 0.0
C6008 C 0.92762 0.49981 0.83687 0.0
C6009 C 0.91204 0.4787 0.81879 0.0
C6010 C 0.90697 0.49378 0.81937 0.0
C6011 C 0.91151 0.52018 0.82676 0.0
C6012 C 0.92174 0.53096 0.83259 0.0
C6013 C 0.91501 0.50458 0.82796 0.0
C6014 C 0.93383 0.52611 0.84194 0.0
C6015 C 0.93648 0.51067 0.84443 0.0
H6016 H 0.16604 0.47871 0.06536 0.0
H6017 H 0.18773 0.47833 0.1094 0.0
H6018 H 0.1888 0.50635 0.10921 0.0
H6019 H 0.18695 0.53054 0.09418 0.0
H6020 H 0.15797 0.53096 0.05458 0.0
H6021 H 0.15644 0.50307 0.05511 0.0
C6022 C 0.1708 0.48478 0.07503 0.0
C6023 C 0.17778 0.47663 0.0869 0.0
C6024 C 0.17048 0.50072 0.07528 0.0
C6025 C 0.18282 0.48449 0.09989 0.0
C6026 C 0.18352 0.50046 0.09972 0.0
C6027 C 0.18033 0.52445 0.0857 0.0
C6028 C 0.17374 0.53245 0.07348 0.0
C6029 C 0.17812 0.50863 0.08704 0.0
C6030 C 0.16397 0.52477 0.06343 0.0
C6031 C 0.16296 0.50891 0.06383 0.0
H6032 H 0.16051 0.48132 0.94085 0.0
H6033 H 0.19128 0.47067 0.90415 0.0
H6034 H 0.19069 0.49723 0.8956 0.0
H6035 H 0.18407 0.52419 0.90064 0.0
H6036 H 0.16024 0.53516 0.94215 0.0
H6037 H 0.15519 0.50821 0.94677 0.0
C6038 C 0.16726 0.48493 0.93115 0.0
C6039 C 0.17624 0.47427 0.92338 0.0
C6040 C 0.16807 0.50042 0.92722 0.0
C6041 C 0.18458 0.47886 0.91051 0.0
C6042 C 0.18418 0.494 0.90559 0.0
C6043 C 0.17774 0.52061 0.91063 0.0
C6044 C 0.17285 0.53153 0.92121 0.0
C6045 C 0.17638 0.50501 0.91416 0.0
C6046 C 0.16434 0.52686 0.93397 0.0
C6047 C 0.16153 0.51147 0.93667 0.0
H6048 H 0.4698 0.15687 0.93486 0.0
H6049 H 0.46937 0.18916 0.89789 0.0
H6050 H 0.49735 0.18962 0.8978 0.0
H6051 H 0.52167 0.18344 0.91124 0.0
H6052 H 0.52244 0.14439 0.94098 0.0
H6053 H 0.49442 0.14348 0.94063 0.0
C6054 C 0.47585 0.16388 0.92667 0.0
C6055 C 0.46763 0.17401 0.91726 0.0
C6056 C 0.49187 0.16289 0.92556 0.0
C6057 C 0.47551 0.18194 0.90581 0.0
C6058 C 0.4915 0.18218 0.90573 0.0
C6059 C 0.51571 0.17456 0.91745 0.0
C6060 C 0.52396 0.16472 0.92711 0.0
C6061 C 0.49977 0.17321 0.91609 0.0
C6062 C 0.51625 0.15253 0.93405 0.0
C6063 C 0.50024 0.15204 0.93388 0.0
H6064 H 0.81761 0.52778 0.91176 0.0
H6065 H 0.84732 0.52873 0.95081 0.0
H6066 H 0.8494 0.50086 0.95019 0.0
H6067 H 0.84013 0.47632 0.94002 0.0
H6068 H 0.81729 0.47569 0.89656 0.0
H6069 H 0.81577 0.50366 0.89682 0.0
C6070 C 0.82452 0.52181 0.92011 0.0
C6071 C 0.8312 0.52992 0.93219 0.0
C6072 C 0.82697 0.50606 0.91871 0.0
C6073 C 0.84128 0.52243 0.94207 0.0
C6074 C 0.84261 0.50659 0.94161 0.0
C6075 C 0.83501 0.48233 0.9305 0.0
C6076 C 0.82788 0.4741 0.91878 0.0
C6077 C 0.83502 0.49827 0.93029 0.0
C6078 C 0.82233 0.4819 0.90596 0.0
C6079 C 0.82139 0.49784 0.90616 0.0
H6080 H 0.47754 0.81749 0.90947 0.0
H6081 H 0.4781 0.84342 0.95113 0.0
H6082 H 0.50596 0.84512 0.94996 0.0
H6083 H 0.53008 0.83645 0.93836 0.0
H6084 H 0.52932 0.81789 0.8929 0.0
H6085 H 0.50132 0.8168 0.89373 0.0
C6086 C 0.48383 0.82351 0.91825 0.0
C6087 C 0.47612 0.82914 0.93113 0.0
C6088 C 0.49961 0.82586 0.91665 0.0
C6089 C 0.48405 0.83814 0.94168 0.0
C6090 C 0.49991 0.83925 0.94093 0.0
C6091 C 0.52377 0.83237 0.92853 0.0
C6092 C 0.53164 0.82625 0.91598 0.0
C6093 C 0.50782 0.83265 0.92872 0.0
C6094 C 0.52342 0.82212 0.90289 0.0
C6095 C 0.50745 0.8214 0.90341 0.0
H6096 H 0.84562 0.48155 0.06473 0.0
H6097 H 0.81482 0.47115 0.10149 0.0
H6098 H 0.81482 0.4979 0.10942 0.0
H6099 H 0.821 0.52487 0.10389 0.0
H6100 H 0.84486 0.53541 0.06229 0.0
H6101 H 0.85043 0.50845 0.05826 0.0
C6102 C 0.83881 0.48523 0.07436 0.0
C6103 C 0.82999 0.47456 0.08231 0.0
C6104 C 0.83763 0.50081 0.07792 0.0
C6105 C 0.82147 0.47931 0.09502 0.0
C6106 C 0.8215 0.49457 0.09957 0.0
C6107 C 0.82741 0.5212 0.09398 0.0
C6108 C 0.83221 0.53201 0.08324 0.0
C6109 C 0.82912 0.50554 0.09081 0.0
C6110 C 0.84083 0.52721 0.07061 0.0
C6111 C 0.84396 0.5118 0.06825 0.0
H6112 H 0.47658 0.84201 0.06611 0.0
H6113 H 0.47862 0.81733 0.10851 0.0
H6114 H 0.5066 0.81675 0.10694 0.0
H6115 H 0.52996 0.81995 0.09094 0.0
H6116 H 0.52817 0.85143 0.05333 0.0
H6117 H 0.50034 0.85265 0.05539 0.0
C6118 C 0.48317 0.83672 0.07515 0.0
C6119 C 0.47569 0.82877 0.08686 0.0
C6120 C 0.49911 0.83729 0.07468 0.0
C6121 C 0.48424 0.82299 0.09909 0.0
C6122 C 0.50019 0.82258 0.09813 0.0
C6123 C 0.52341 0.82708 0.08324 0.0
C6124 C 0.53076 0.83454 0.0711 0.0
C6125 C 0.50766 0.82898 0.08549 0.0
C6126 C 0.5225 0.84485 0.0621 0.0
C6127 C 0.50666 0.84566 0.06337 0.0
H6128 H 0.52637 0.1677 0.06529 0.0
H6129 H 0.52473 0.19141 0.10827 0.0
H6130 H 0.49672 0.19145 0.10727 0.0
H6131 H 0.47323 0.18842 0.09153 0.0
H6132 H 0.47472 0.15799 0.05304 0.0
H6133 H 0.50261 0.15689 0.05474 0.0
C6134 C 0.51986 0.17266 0.07457 0.0
C6135 C 0.52739 0.18054 0.08629 0.0
C6136 C 0.50395 0.17179 0.0744 0.0
C6137 C 0.51902 0.18585 0.09884 0.0
C6138 C 0.50306 0.18594 0.09822 0.0
C6139 C 0.47972 0.18151 0.08358 0.0
C6140 C 0.47231 0.17439 0.0713 0.0
C6141 C 0.49549 0.1797 0.08556 0.0
C6142 C 0.48047 0.16433 0.06195 0.0
C6143 C 0.49633 0.1636 0.063 0.0
H6144 H 0.60202 0.68456 0.97794 0.0
H6145 H 0.56182 0.65782 0.969 0.0
H6146 H 0.55796 0.65385 0.99623 0.0
H6147 H 0.56383 0.66103 0.02266 0.0
H6148 H 0.59929 0.69389 0.03109 0.0
H6149 H 0.60732 0.69252 0.00443 0.0
C6150 C 0.5925 0.67783 0.98203 0.0
C6151 C 0.58201 0.67185 0.9716 0.0
C6152 C 0.58939 0.67694 0.99774 0.0
C6153 C 0.5699 0.66279 0.97692 0.0
C6154 C 0.56762 0.66057 0.99247 0.0
C6155 C 0.57321 0.66795 0.01856 0.0
C6156 C 0.58073 0.67778 0.0286 0.0
C6157 C 0.57687 0.66816 0.00299 0.0
C6158 C 0.59313 0.68647 0.02337 0.0
C6159 C 0.59776 0.68565 0.00817 0.0
H6160 H 0.31671 0.59469 0.02701 0.0
H6161 H 0.34533 0.55486 0.02883 0.0
H6162 H 0.34734 0.55476 1.00095 0.0
H6163 H 0.33809 0.5645 0.97613 0.0
H6164 H 0.3172 0.6089 0.97453 0.0
H6165 H 0.31558 0.60926 0.0025 0.0
C6166 C 0.32338 0.58602 0.02125 0.0
C6167 C 0.32971 0.57393 0.02966 0.0
C6168 C 0.32589 0.587 0.00543 0.0
C6169 C 0.33955 0.56365 0.02236 0.0
C6170 C 0.34081 0.56368 0.00648 0.0
C6171 C 0.33339 0.57436 0.98192 0.0
C6172 C 0.32675 0.58619 0.9734 0.0
C6173 C 0.33351 0.57499 0.99789 0.0
C6174 C 0.32182 0.59941 0.98094 0.0
C6175 C 0.32081 0.59957 0.9969 0.0
H6176 H 0.4115 0.31756 0.03106 0.0
H6177 H 0.45212 0.34509 0.03075 0.0
H6178 H 0.45106 0.34667 0.00285 0.0
H6179 H 0.44002 0.33733 0.97867 0.0
H6180 H 0.39534 0.31695 0.97924 0.0
H6181 H 0.396 0.31609 0.00723 0.0
C6182 C 0.42006 0.32394 0.02483 0.0
C6183 C 0.43265 0.33008 0.03261 0.0
C6184 C 0.41851 0.32613 0.00904 0.0
C6185 C 0.4429 0.33948 0.02474 0.0
C6186 C 0.44222 0.34049 0.00887 0.0
C6187 C 0.43032 0.33291 0.98493 0.0
C6188 C 0.41809 0.32622 0.97703 0.0
C6189 C 0.43036 0.33334 1.00089 0.0
C6190 C 0.40511 0.32162 0.98518 0.0
C6191 C 0.40553 0.32105 1.00114 0.0
H6192 H 0.66293 0.44218 0.02633 0.0
H6193 H 0.69405 0.40578 0.03707 0.0
H6194 H 0.69314 0.39684 0.01066 0.0
H6195 H 0.68602 0.40135 0.98374 0.0
H6196 H 0.66184 0.44256 0.97243 0.0
H6197 H 0.65723 0.44765 0.99939 0.0
C6198 C 0.66962 0.43241 0.02278 0.0
C6199 C 0.6788 0.42485 0.03344 0.0
C6200 C 0.67026 0.42826 0.00733 0.0
C6201 C 0.68714 0.41196 0.0289 0.0
C6202 C 0.68658 0.40682 0.01384 0.0
C6203 C 0.67974 0.41139 0.98725 0.0
C6204 C 0.67457 0.42172 0.97621 0.0
C6205 C 0.67859 0.41518 0.00281 0.0
C6206 C 0.66614 0.43456 0.9808 0.0
C6207 C 0.66356 0.43752 0.99621 0.0
H6208 H 0.56588 0.34779 0.03306 0.0
H6209 H 0.60778 0.32222 0.03437 0.0
H6210 H 0.60796 0.32088 0.00641 0.0
H6211 H 0.59366 0.32386 0.98188 0.0
H6212 H 0.55781 0.35731 0.98006 0.0
H6213 H 0.55779 0.35897 0.00804 0.0
C6214 C 0.57517 0.34209 0.02722 0.0
C6215 C 0.58619 0.33407 0.03577 0.0
C6216 C 0.57601 0.34259 0.01114 0.0
C6217 C 0.59879 0.32787 0.02805 0.0
C6218 C 0.59889 0.32708 0.01206 0.0
C6219 C 0.58599 0.33167 0.9876 0.0
C6220 C 0.57486 0.33954 0.97906 0.0
C6221 C 0.5871 0.33378 0.00352 0.0
C6222 C 0.5659 0.35054 0.98648 0.0
C6223 C 0.56591 0.3515 0.00247 0.0
H6224 H 0.68561 0.59221 0.97482 0.0
H6225 H 0.65691 0.55245 0.9764 0.0
H6226 H 0.65517 0.55453 0.00422 0.0
H6227 H 0.66471 0.56613 0.02803 0.0
H6228 H 0.68645 0.61013 0.02602 0.0
H6229 H 0.6873 0.60853 0.99806 0.0
C6230 C 0.679 0.58403 0.98133 0.0
C6231 C 0.6726 0.57131 0.97399 0.0
C6232 C 0.67668 0.58625 0.99701 0.0
C6233 C 0.66283 0.56165 0.98213 0.0
C6234 C 0.66167 0.56295 0.99794 0.0
C6235 C 0.66942 0.57549 0.02145 0.0
C6236 C 0.67649 0.58775 0.02893 0.0
C6237 C 0.66908 0.5749 0.00552 0.0
C6238 C 0.68147 0.60033 0.02039 0.0
C6239 C 0.68205 0.59936 0.00446 0.0
H6240 H 0.43767 0.66334 0.0281 0.0
H6241 H 0.39456 0.68675 0.03018 0.0
H6242 H 0.39384 0.68811 1.0022 0.0
H6243 H 0.40792 0.68588 0.97748 0.0
H6244 H 0.44623 0.65525 0.97538 0.0
H6245 H 0.44655 0.65341 0.00326 0.0
C6246 C 0.428 0.66855 0.02242 0.0
C6247 C 0.41671 0.67595 0.03106 0.0
C6248 C 0.42711 0.6683 0.00647 0.0
C6249 C 0.40367 0.68155 0.02367 0.0
C6250 C 0.40331 0.68239 0.0077 0.0
C6251 C 0.41628 0.67877 0.98318 0.0
C6252 C 0.4279 0.67173 0.97466 0.0
C6253 C 0.41542 0.67649 0.99904 0.0
C6254 C 0.43778 0.66146 0.98191 0.0
C6255 C 0.43789 0.66032 0.99779 0.0
H6256 H 0.31786 0.40861 0.97686 0.0
H6257 H 0.34784 0.44741 0.97516 0.0
H6258 H 0.35009 0.4472 0.00301 0.0
H6259 H 0.34067 0.43763 0.02772 0.0
H6260 H 0.3178 0.39421 0.02924 0.0
H6261 H 0.31623 0.39395 1.00125 0.0
C6262 C 0.32487 0.41697 0.98266 0.0
C6263 C 0.33156 0.42892 0.97435 0.0
C6264 C 0.32744 0.41579 0.99842 0.0
C6265 C 0.3418 0.43879 0.98162 0.0
C6266 C 0.34321 0.43857 0.99745 0.0
C6267 C 0.33553 0.428 0.0219 0.0
C6268 C 0.32834 0.41648 0.03037 0.0
C6269 C 0.33556 0.42745 0.00598 0.0
C6270 C 0.32284 0.40349 0.02283 0.0
C6271 C 0.32187 0.40339 0.00689 0.0
H6272 H 0.98124 0.60246 0.6838 0.0
H6273 H 0.97044 0.56166 0.65871 0.0
H6274 H 0.9974 0.55698 0.65396 0.0
H6275 H 0.02417 0.56233 0.66015 0.0
H6276 H 0.03468 0.59874 0.69132 0.0
H6277 H 0.00817 0.60743 0.69056 0.0
C6278 C 0.98486 0.59265 0.67722 0.0
C6279 C 0.97399 0.58219 0.672 0.0
C6280 C 1.00046 0.5891 0.67593 0.0
C6281 C 0.97871 0.56972 0.6631 0.0
C6282 C 0.99411 0.56696 0.66048 0.0
C6283 C 0.02053 0.57202 0.66692 0.0
C6284 C 0.03111 0.57964 0.67609 0.0
C6285 C 0.0051 0.57613 0.66747 0.0
C6286 C 0.02651 0.59247 0.68449 0.0
C6287 C 0.01141 0.59749 0.68398 0.0
H6288 H 0.4111 0.02967 0.68457 0.0
H6289 H 0.45044 0.02872 0.65525 0.0
H6290 H 0.44937 1.00082 0.65433 0.0
H6291 H 0.43886 0.97685 0.66472 0.0
H6292 H 0.3949 0.97778 0.68656 0.0
H6293 H 0.39557 0.00581 0.68691 0.0
C6294 C 0.41941 0.02328 0.67801 0.0
C6295 C 0.43175 0.03092 0.67119 0.0
C6296 C 0.41773 0.00744 0.67612 0.0
C6297 C 0.44153 0.02284 0.66146 0.0
C6298 C 0.44082 0.00696 0.66079 0.0
C6299 C 0.4293 0.9832 0.66935 0.0
C6300 C 0.41735 0.97542 0.67662 0.0
C6301 C 0.4293 0.99914 0.6686 0.0
C6302 C 0.4045 0.98364 0.68146 0.0
C6303 C 0.40493 0.99963 0.68174 0.0
H6304 H 0.02458 0.4012 0.68392 0.0
H6305 H 0.03503 0.44273 0.6599 0.0
H6306 H 0.00802 0.44709 0.65495 0.0
H6307 H 0.98124 0.44095 0.66042 0.0
H6308 H 0.97106 0.40401 0.69107 0.0
H6309 H 0.99772 0.39581 0.6905 0.0
C6310 C 0.02086 0.41111 0.67753 0.0
C6311 C 0.03164 0.4218 0.67259 0.0
C6312 C 0.00524 0.41446 0.67618 0.0
C6313 C 0.02682 0.43448 0.66404 0.0
C6314 C 0.0114 0.43704 0.66129 0.0
C6315 C 0.98497 0.43126 0.66713 0.0
C6316 C 0.97444 0.42334 0.67608 0.0
C6317 C 1.00049 0.42748 0.66788 0.0
C6318 C 0.97917 0.41049 0.68439 0.0
C6319 C 0.99436 0.40576 0.68399 0.0
H6320 H 0.5637 0.98047 0.65961 0.0
H6321 H 0.5997 0.96908 0.69095 0.0
H6322 H 0.6087 0.99549 0.69063 0.0
H6323 H 0.60423 0.02254 0.68404 0.0
H6324 H 0.56337 0.03431 0.65948 0.0
H6325 H 0.55837 0.00746 0.65426 0.0
C6326 C 0.57336 0.98389 0.66652 0.0
C6327 C 0.58079 0.97308 0.67559 0.0
C6328 C 0.57755 0.99929 0.66745 0.0
C6329 C 0.5936 0.97741 0.68416 0.0
C6330 C 0.59879 0.99245 0.68392 0.0
C6331 C 0.5943 0.01915 0.67751 0.0
C6332 C 0.58401 0.03026 0.67247 0.0
C6333 C 0.59054 0.00363 0.67602 0.0
C6334 C 0.57133 0.02585 0.66371 0.0
C6335 C 0.5684 0.01052 0.66079 0.0
H6336 H 0.0308 0.41186 0.31843 0.0
H6337 H 0.03183 0.4513 0.34761 0.0
H6338 H 0.00398 0.45052 0.34998 0.0
H6339 H 0.97934 0.44024 0.34077 0.0
H6340 H 0.97881 0.39628 0.31888 0.0
H6341 H 0.00677 0.39666 0.3172 0.0
C6342 C 0.02488 0.42023 0.32534 0.0
C6343 C 0.033 0.43249 0.33172 0.0
C6344 C 0.00914 0.41877 0.32797 0.0
C6345 C 0.02555 0.4424 0.3418 0.0
C6346 C 0.0097 0.44187 0.34327 0.0
C6347 C 0.98537 0.43062 0.33584 0.0
C6348 C 0.97714 0.41873 0.32896 0.0
C6349 C 1.00135 0.43043 0.33586 0.0
C6350 C 0.985 0.40582 0.3237 0.0
C6351 C 1.00094 0.40608 0.32267 0.0
H6352 H 0.59564 0.0278 0.31748 0.0
H6353 H 0.55617 0.02812 0.34664 0.0
H6354 H 0.55669 1.00024 0.34805 0.0
H6355 H 0.56683 0.97587 0.33822 0.0
H6356 H 0.61092 0.97557 0.31661 0.0
H6357 H 0.61072 0.00359 0.31563 0.0
C6358 C 0.58718 0.0217 0.32412 0.0
C6359 C 0.57499 0.0297 0.33078 0.0
C6360 C 0.58854 0.00585 0.32628 0.0
C6361 C 0.565 0.02197 0.34058 0.0
C6362 C 0.56539 0.00609 0.34152 0.0
C6363 C 0.57651 0.98195 0.33349 0.0
C6364 C 0.58838 0.9738 0.32648 0.0
C6365 C 0.5768 0.99791 0.33391 0.0
C6366 C 0.60139 0.9817 0.32152 0.0
C6367 C 0.60122 0.99769 0.32087 0.0
H6368 H 0.98173 0.56502 0.34255 0.0
H6369 H 0.97259 0.60126 0.31073 0.0
H6370 H 0.99943 0.60881 0.31119 0.0
H6371 H 0.02609 0.60315 0.3183 0.0
H6372 H 0.03555 0.56195 0.34328 0.0
H6373 H 0.00839 0.55826 0.34811 0.0
C6374 C 0.98571 0.57448 0.33566 0.0
C6375 C 0.97539 0.58239 0.32641 0.0
C6376 C 1.00134 0.57778 0.33477 0.0
C6377 C 0.98049 0.59485 0.31774 0.0
C6378 C 0.9958 0.59918 0.31802 0.0
C6379 C 0.02213 0.5934 0.32477 0.0
C6380 C 0.03268 0.58269 0.33016 0.0
C6381 C 0.00643 0.59043 0.3261 0.0
C6382 C 0.02753 0.57022 0.33881 0.0
C6383 C 0.01203 0.56807 0.34154 0.0
H6384 H 0.41074 0.97509 0.31932 0.0
H6385 H 0.45095 0.97581 0.34744 0.0
H6386 H 0.44987 0.00369 0.34868 0.0
H6387 H 0.43897 0.0277 0.33899 0.0
H6388 H 0.39459 0.02701 0.31799 0.0
H6389 H 0.39521 0.99897 0.31744 0.0
C6390 C 0.41924 0.98143 0.32568 0.0
C6391 C 0.43176 0.97375 0.33209 0.0
C6392 C 0.41762 0.99725 0.32773 0.0
C6393 C 0.44185 0.98174 0.34155 0.0
C6394 C 0.44114 0.9976 0.34241 0.0
C6395 C 0.42931 0.0214 0.3345 0.0
C6396 C 0.41722 0.02924 0.32754 0.0
C6397 C 0.42936 0.00547 0.33505 0.0
C6398 C 0.40427 0.02109 0.32287 0.0
C6399 C 0.40468 0.00511 0.32246 0.0
H6400 H 0.66521 0.97491 0.56437 0.0
H6401 H 0.68395 0.97389 0.60975 0.0
H6402 H 0.68565 1.00187 0.60975 0.0
H6403 H 0.68567 0.02606 0.59461 0.0
H6404 H 0.65929 0.02744 0.55326 0.0
H6405 H 0.65683 0.9996 0.55366 0.0
C6406 C 0.66944 0.98082 0.57437 0.0
C6407 C 0.67549 0.97245 0.58662 0.0
C6408 C 0.66948 0.99678 0.57468 0.0
C6409 C 0.67979 0.98018 0.59996 0.0
C6410 C 0.68086 0.99613 0.59992 0.0
C6411 C 0.67937 0.0202 0.58573 0.0
C6412 C 0.67391 0.02842 0.57309 0.0
C6413 C 0.67655 0.00446 0.58693 0.0
C6414 C 0.6645 0.02107 0.56247 0.0
C6415 C 0.66295 0.00523 0.56279 0.0
H6416 H 0.65813 0.98209 0.44061 0.0
H6417 H 0.69201 0.97184 0.40661 0.0
H6418 H 0.69209 0.99846 0.39827 0.0
H6419 H 0.68495 0.02529 0.4029 0.0
H6420 H 0.65763 0.03593 0.44228 0.0
H6421 H 0.65229 0.00892 0.4463 0.0
C6422 C 0.66566 0.9858 0.43153 0.0
C6423 C 0.67532 0.97526 0.42449 0.0
C6424 C 0.66678 1.00131 0.42783 0.0
C6425 C 0.68473 0.97996 0.41242 0.0
C6426 C 0.68473 0.99512 0.40761 0.0
C6427 C 0.67781 0.02161 0.41229 0.0
C6428 C 0.67196 0.03243 0.42246 0.0
C6429 C 0.67619 0.00602 0.41557 0.0
C6430 C 0.66245 0.02768 0.43445 0.0
C6431 C 0.65945 0.01227 0.4368 0.0
H6432 H 0.02209 0.66076 0.43945 0.0
H6433 H 0.03304 0.69218 0.40339 0.0
H6434 H 0.00663 0.69155 0.39444 0.0
H6435 H 0.9796 0.68476 0.399 0.0
H6436 H 0.96828 0.65967 0.43965 0.0
H6437 H 0.99518 0.65474 0.44453 0.0
C6438 C 0.0186 0.66754 0.42973 0.0
C6439 C 0.02932 0.67674 0.42229 0.0
C6440 C 0.00316 0.66824 0.4255 0.0
C6441 C 0.02483 0.68525 0.40949 0.0
C6442 C 0.00975 0.68486 0.40433 0.0
C6443 C 0.98308 0.67821 0.40887 0.0
C6444 C 0.97203 0.67298 0.41917 0.0
C6445 C 0.99867 0.67682 0.41257 0.0
C6446 C 0.97664 0.66406 0.43168 0.0
C6447 C 0.99202 0.66132 0.43456 0.0
H6448 H 0.31849 0.02699 0.41127 0.0
H6449 H 0.34735 0.02816 0.45094 0.0
H6450 H 0.34913 1.00024 0.45072 0.0
H6451 H 0.3396 0.97562 0.44074 0.0
H6452 H 0.31775 0.97476 0.39677 0.0
H6453 H 0.31659 0.00273 0.39666 0.0
C6454 C 0.32519 0.02107 0.41982 0.0
C6455 C 0.3317 0.02928 0.43193 0.0
C6456 C 0.32742 0.00527 0.41872 0.0
C6457 C 0.34149 0.02182 0.44211 0.0
C6458 C 0.34261 0.00594 0.44191 0.0
C6459 C 0.33478 0.98158 0.43104 0.0
C6460 C 0.3278 0.97331 0.41925 0.0
C6461 C 0.33509 0.99754 0.43057 0.0
C6462 C 0.32265 0.98102 0.40622 0.0
C6463 C 0.32193 0.99696 0.40619 0.0
H6464 H 0.97797 0.31929 0.4095 0.0
H6465 H 0.97672 0.34669 0.45018 0.0
H6466 H 0.00453 0.34914 0.44969 0.0
H6467 H 0.02916 0.34069 0.43909 0.0
H6468 H 0.03016 0.32079 0.39421 0.0
H6469 H 1.00218 0.31892 0.39433 0.0
C6470 C 0.98387 0.32575 0.41824 0.0
C6471 C 0.97568 0.33156 0.43074 0.0
C6472 C 0.99961 0.32856 0.41694 0.0
C6473 C 0.98307 0.34121 0.44112 0.0
C6474 C 0.99889 0.34277 0.44073 0.0
C6475 C 0.02324 0.33616 0.42922 0.0
C6476 C 0.0316 0.32986 0.41711 0.0
C6477 C 0.00729 0.33599 0.42898 0.0
C6478 C 0.02388 0.32516 0.4039 0.0
C6479 C 0.00792 0.32399 0.40403 0.0
H6480 H 0.33854 0.02932 0.56572 0.0
H6481 H 0.31491 0.03144 0.60869 0.0
H6482 H 0.31394 0.00348 0.60972 0.0
H6483 H 0.31702 0.97863 0.59623 0.0
H6484 H 0.34819 0.97652 0.55837 0.0
H6485 H 0.34927 0.00445 0.55746 0.0
C6486 C 0.33332 0.02363 0.57538 0.0
C6487 C 0.32576 0.03227 0.58656 0.0
C6488 C 0.33398 0.00769 0.57657 0.0
C6489 C 0.32016 0.02491 0.59962 0.0
C6490 C 0.3196 0.00896 0.6002 0.0
C6491 C 0.32411 0.98433 0.58786 0.0
C6492 C 0.33156 0.97574 0.57657 0.0
C6493 C 0.32588 1.00026 0.58834 0.0
C6494 C 0.34175 0.98306 0.56664 0.0
C6495 C 0.3424 0.99898 0.56615 0.0
H6496 H 0.97885 0.33843 0.56515 0.0
H6497 H 0.9793 0.31794 0.60977 0.0
H6498 H 0.00731 0.31711 0.60922 0.0
H6499 H 0.03121 0.31855 0.59374 0.0
H6500 H 0.03093 0.34645 0.55338 0.0
H6501 H 0.00303 0.3479 0.55428 0.0
C6502 C 0.9851 0.33401 0.57487 0.0
C6503 C 0.97719 0.32726 0.58703 0.0
C6504 C 1.00104 0.33442 0.57487 0.0
C6505 C 0.98527 0.32267 0.60005 0.0
C6506 C 1.00124 0.32209 0.59968 0.0
C6507 C 0.02496 0.3249 0.58515 0.0
C6508 C 0.03275 0.33113 0.57261 0.0
C6509 C 0.00917 0.32714 0.58671 0.0
C6510 C 0.02489 0.34063 0.56245 0.0
C6511 C 0.00903 0.34163 0.56307 0.0
H6512 H 0.97513 0.6848 0.59227 0.0
H6513 H 0.97566 0.65539 0.55299 0.0
H6514 H 0.00358 0.65445 0.55378 0.0
H6515 H 0.02768 0.66464 0.56421 0.0
H6516 H 0.02705 0.68695 0.60794 0.0
H6517 H 0.99904 0.68744 0.60742 0.0
C6518 C 0.98143 0.6782 0.58392 0.0
C6519 C 0.97368 0.67129 0.57173 0.0
C6520 C 0.99726 0.67638 0.5854 0.0
C6521 C 0.98164 0.6616 0.56183 0.0
C6522 C 0.99753 0.66093 0.56238 0.0
C6523 C 0.02139 0.66942 0.57372 0.0
C6524 C 0.02923 0.67671 0.58561 0.0
C6525 C 0.00545 0.66876 0.57382 0.0
C6526 C 0.02111 0.6818 0.59842 0.0
C6527 C 0.00515 0.68216 0.59808 0.0
loop_
_geom_bond_atom_site_label_1
_geom_bond_atom_site_label_2
_geom_bond_distance
_geom_bond_site_symmetry_2
_ccdc_geom_bond_type
Mn0 O5 2.095 . S
Mn0 O15 2.162 . S
Mn0 O16 2.297 . S
Mn0 O24 2.385 . S
Mn0 O25 2.209 . S
Mn0 O26 2.094 . S
Mn1 O6 2.121 . S
Mn1 N8 2.257 . S
Mn1 N17 2.282 . S
Mn1 O25 2.215 . S
Mn1 O27 2.117 . S
C2 O24 1.234 . S
C2 O25 1.283 . S
C3 O15 1.281 . S
C3 O16 1.236 . S
C4 O26 1.240 . S
C4 O27 1.264 . S
O5 Mn0 2.095 . S
O5 C14 1.250 . S
O6 Mn1 2.121 . S
O6 C14 1.258 . S
C7 N8 1.326 . S
C7 C11 1.460 . S
C7 H13 0.929 . S
N8 Mn1 2.257 . S
N8 C7 1.326 . S
N8 C12 1.362 . S
C9 C10 1.258 . S
C9 C12 1.431 . S
C9 C29 1.449 . S
C10 C9 1.258 . S
C10 C11 1.477 . S
C10 H30 0.931 . S
C11 C7 1.460 . S
C11 C10 1.477 . S
C11 H31 0.930 . S
C12 N8 1.362 . S
C12 C9 1.431 . S
C12 C22 1.476 . S
H13 C7 0.929 . S
C14 O5 1.250 . S
C14 O6 1.258 . S
O15 Mn0 2.162 . S
O15 C3 1.281 . S
O16 Mn0 2.297 . S
O16 C3 1.236 . S
N17 Mn1 2.282 . S
N17 C18 1.328 . S
N17 C22 1.318 . S
C18 N17 1.328 . S
C18 C19 1.457 . S
C18 H23 0.929 . S
C19 C18 1.457 . S
C19 C20 1.291 . S
C19 H32 0.931 . S
C20 C19 1.291 . S
C20 C21 1.373 . S
C20 H33 0.929 . S
C21 C20 1.373 . S
C21 C22 1.396 . S
C21 C28 1.403 . S
C22 C12 1.476 . S
C22 N17 1.318 . S
C22 C21 1.396 . S
H23 C18 0.929 . S
O24 Mn0 2.385 . S
O24 C2 1.234 . S
O25 Mn0 2.209 . S
O25 Mn1 2.215 . S
O25 C2 1.283 . S
O26 Mn0 2.094 . S
O26 C4 1.240 . S
O27 Mn1 2.117 . S
O27 C4 1.264 . S
C28 C21 1.403 . S
C28 C29 1.399 . S
C28 H34 0.929 . S
C29 C9 1.449 . S
C29 C28 1.399 . S
C29 H35 0.930 . S
H30 C10 0.931 . S
H31 C11 0.930 . S
H32 C19 0.931 . S
H33 C20 0.929 . S
H34 C28 0.929 . S
H35 C29 0.930 . S
Mn36 O41 2.095 . S
Mn36 O51 2.162 . S
Mn36 O52 2.297 . S
Mn36 O60 2.385 . S
Mn36 O61 2.209 . S
Mn36 O62 2.094 . S
Mn37 O42 2.121 . S
Mn37 N44 2.257 . S
Mn37 N53 2.282 . S
Mn37 O61 2.215 . S
Mn37 O63 2.117 . S
C38 O60 1.234 . S
C38 O61 1.283 . S
C39 O51 1.281 . S
C39 O52 1.236 . S
C40 O62 1.240 . S
C40 O63 1.264 . S
O41 Mn36 2.095 . S
O41 C50 1.250 . S
O42 Mn37 2.121 . S
O42 C50 1.258 . S
C43 N44 1.326 . S
C43 C47 1.460 . S
C43 H49 0.929 . S
N44 Mn37 2.257 . S
N44 C43 1.326 . S
N44 C48 1.362 . S
C45 C46 1.258 . S
C45 C48 1.431 . S
C45 C65 1.449 . S
C46 C45 1.258 . S
C46 C47 1.477 . S
C46 H66 0.931 . S
C47 C43 1.460 . S
C47 C46 1.477 . S
C47 H67 0.930 . S
C48 N44 1.362 . S
C48 C45 1.431 . S
C48 C58 1.476 . S
H49 C43 0.929 . S
C50 O41 1.250 . S
C50 O42 1.258 . S
O51 Mn36 2.162 . S
O51 C39 1.281 . S
O52 Mn36 2.297 . S
O52 C39 1.236 . S
N53 Mn37 2.282 . S
N53 C54 1.328 . S
N53 C58 1.318 . S
C54 N53 1.328 . S
C54 C55 1.457 . S
C54 H59 0.929 . S
C55 C54 1.457 . S
C55 C56 1.291 . S
C55 H68 0.931 . S
C56 C55 1.291 . S
C56 C57 1.373 . S
C56 H69 0.929 . S
C57 C56 1.373 . S
C57 C58 1.396 . S
C57 C64 1.403 . S
C58 C48 1.476 . S
C58 N53 1.318 . S
C58 C57 1.396 . S
H59 C54 0.929 . S
O60 Mn36 2.385 . S
O60 C38 1.234 . S
O61 Mn36 2.209 . S
O61 Mn37 2.215 . S
O61 C38 1.283 . S
O62 Mn36 2.094 . S
O62 C40 1.240 . S
O63 Mn37 2.117 . S
O63 C40 1.264 . S
C64 C57 1.403 . S
C64 C65 1.399 . S
C64 H70 0.929 . S
C65 C45 1.449 . S
C65 C64 1.399 . S
C65 H71 0.930 . S
H66 C46 0.931 . S
H67 C47 0.930 . S
H68 C55 0.931 . S
H69 C56 0.929 . S
H70 C64 0.929 . S
H71 C65 0.930 . S
Mn72 O77 2.095 . S
Mn72 O87 2.162 . S
Mn72 O88 2.297 . S
Mn72 O96 2.385 . S
Mn72 O97 2.209 . S
Mn72 O98 2.094 . S
Mn73 O78 2.121 . S
Mn73 N80 2.257 . S
Mn73 N89 2.282 . S
Mn73 O97 2.215 . S
Mn73 O99 2.117 . S
C74 O96 1.234 . S
C74 O97 1.283 . S
C75 O87 1.281 . S
C75 O88 1.236 . S
C76 O98 1.240 . S
C76 O99 1.264 . S
O77 Mn72 2.095 . S
O77 C86 1.250 . S
O78 Mn73 2.121 . S
O78 C86 1.258 . S
C79 N80 1.326 . S
C79 C83 1.460 . S
C79 H85 0.929 . S
N80 Mn73 2.257 . S
N80 C79 1.326 . S
N80 C84 1.362 . S
C81 C82 1.258 . S
C81 C84 1.431 . S
C81 C101 1.449 . S
C82 C81 1.258 . S
C82 C83 1.477 . S
C82 H102 0.931 . S
C83 C79 1.460 . S
C83 C82 1.477 . S
C83 H103 0.930 . S
C84 N80 1.362 . S
C84 C81 1.431 . S
C84 C94 1.476 . S
H85 C79 0.929 . S
C86 O77 1.250 . S
C86 O78 1.258 . S
O87 Mn72 2.162 . S
O87 C75 1.281 . S
O88 Mn72 2.297 . S
O88 C75 1.236 . S
N89 Mn73 2.282 . S
N89 C90 1.328 . S
N89 C94 1.318 . S
C90 N89 1.328 . S
C90 C91 1.457 . S
C90 H95 0.929 . S
C91 C90 1.457 . S
C91 C92 1.291 . S
C91 H104 0.931 . S
C92 C91 1.291 . S
C92 C93 1.373 . S
C92 H105 0.929 . S
C93 C92 1.373 . S
C93 C94 1.396 . S
C93 C100 1.403 . S
C94 C84 1.476 . S
C94 N89 1.318 . S
C94 C93 1.396 . S
H95 C90 0.929 . S
O96 Mn72 2.385 . S
O96 C74 1.234 . S
O97 Mn72 2.209 . S
O97 Mn73 2.215 . S
O97 C74 1.283 . S
O98 Mn72 2.094 . S
O98 C76 1.240 . S
O99 Mn73 2.117 . S
O99 C76 1.264 . S
C100 C93 1.403 . S
C100 C101 1.399 . S
C100 H106 0.929 . S
C101 C81 1.449 . S
C101 C100 1.399 . S
C101 H107 0.930 . S
H102 C82 0.931 . S
H103 C83 0.930 . S
H104 C91 0.931 . S
H105 C92 0.929 . S
H106 C100 0.929 . S
H107 C101 0.930 . S
Mn108 O113 2.095 . S
Mn108 O123 2.162 . S
Mn108 O124 2.297 . S
Mn108 O132 2.385 . S
Mn108 O133 2.209 . S
Mn108 O134 2.094 . S
Mn109 O114 2.121 . S
Mn109 N116 2.257 . S
Mn109 N125 2.282 . S
Mn109 O133 2.215 . S
Mn109 O135 2.117 . S
C110 O132 1.234 . S
C110 O133 1.283 . S
C111 O123 1.281 . S
C111 O124 1.236 . S
C112 O134 1.240 . S
C112 O135 1.264 . S
O113 Mn108 2.095 . S
O113 C122 1.250 . S
O114 Mn109 2.121 . S
O114 C122 1.258 . S
C115 N116 1.326 . S
C115 C119 1.460 . S
C115 H121 0.929 . S
N116 Mn109 2.257 . S
N116 C115 1.326 . S
N116 C120 1.362 . S
C117 C118 1.258 . S
C117 C120 1.431 . S
C117 C137 1.449 . S
C118 C117 1.258 . S
C118 C119 1.477 . S
C118 H138 0.931 . S
C119 C115 1.460 . S
C119 C118 1.477 . S
C119 H139 0.930 . S
C120 N116 1.362 . S
C120 C117 1.431 . S
C120 C130 1.476 . S
H121 C115 0.929 . S
C122 O113 1.250 . S
C122 O114 1.258 . S
O123 Mn108 2.162 . S
O123 C111 1.281 . S
O124 Mn108 2.297 . S
O124 C111 1.236 . S
N125 Mn109 2.282 . S
N125 C126 1.328 . S
N125 C130 1.318 . S
C126 N125 1.328 . S
C126 C127 1.457 . S
C126 H131 0.929 . S
C127 C126 1.457 . S
C127 C128 1.291 . S
C127 H140 0.931 . S
C128 C127 1.291 . S
C128 C129 1.373 . S
C128 H141 0.929 . S
C129 C128 1.373 . S
C129 C130 1.396 . S
C129 C136 1.403 . S
C130 C120 1.476 . S
C130 N125 1.318 . S
C130 C129 1.396 . S
H131 C126 0.929 . S
O132 Mn108 2.385 . S
O132 C110 1.234 . S
O133 Mn108 2.209 . S
O133 Mn109 2.215 . S
O133 C110 1.283 . S
O134 Mn108 2.094 . S
O134 C112 1.240 . S
O135 Mn109 2.117 . S
O135 C112 1.264 . S
C136 C129 1.403 . S
C136 C137 1.399 . S
C136 H142 0.929 . S
C137 C117 1.449 . S
C137 C136 1.399 . S
C137 H143 0.930 . S
H138 C118 0.931 . S
H139 C119 0.930 . S
H140 C127 0.931 . S
H141 C128 0.929 . S
H142 C136 0.929 . S
H143 C137 0.930 . S
Mn144 O149 2.095 . S
Mn144 O159 2.162 . S
Mn144 O160 2.297 . S
Mn144 O168 2.385 . S
Mn144 O169 2.209 . S
Mn144 O170 2.094 . S
Mn145 O150 2.121 . S
Mn145 N152 2.257 . S
Mn145 N161 2.282 . S
Mn145 O169 2.215 . S
Mn145 O171 2.117 . S
C146 O168 1.234 . S
C146 O169 1.283 . S
C147 O159 1.281 . S
C147 O160 1.236 . S
C148 O170 1.240 . S
C148 O171 1.264 . S
O149 Mn144 2.095 . S
O149 C158 1.250 . S
O150 Mn145 2.121 . S
O150 C158 1.258 . S
C151 N152 1.326 . S
C151 C155 1.460 . S
C151 H157 0.929 . S
N152 Mn145 2.257 . S
N152 C151 1.326 . S
N152 C156 1.362 . S
C153 C154 1.258 . S
C153 C156 1.431 . S
C153 C173 1.449 . S
C154 C153 1.258 . S
C154 C155 1.477 . S
C154 H174 0.931 . S
C155 C151 1.460 . S
C155 C154 1.477 . S
C155 H175 0.930 . S
C156 N152 1.362 . S
C156 C153 1.431 . S
C156 C166 1.476 . S
H157 C151 0.929 . S
C158 O149 1.250 . S
C158 O150 1.258 . S
O159 Mn144 2.162 . S
O159 C147 1.281 . S
O160 Mn144 2.297 . S
O160 C147 1.236 . S
N161 Mn145 2.282 . S
N161 C162 1.328 . S
N161 C166 1.318 . S
C162 N161 1.328 . S
C162 C163 1.457 . S
C162 H167 0.929 . S
C163 C162 1.457 . S
C163 C164 1.291 . S
C163 H176 0.931 . S
C164 C163 1.291 . S
C164 C165 1.373 . S
C164 H177 0.929 . S
C165 C164 1.373 . S
C165 C166 1.396 . S
C165 C172 1.403 . S
C166 C156 1.476 . S
C166 N161 1.318 . S
C166 C165 1.396 . S
H167 C162 0.929 . S
O168 Mn144 2.385 . S
O168 C146 1.234 . S
O169 Mn144 2.209 . S
O169 Mn145 2.215 . S
O169 C146 1.283 . S
O170 Mn144 2.094 . S
O170 C148 1.240 . S
O171 Mn145 2.117 . S
O171 C148 1.264 . S
C172 C165 1.403 . S
C172 C173 1.399 . S
C172 H178 0.929 . S
C173 C153 1.449 . S
C173 C172 1.399 . S
C173 H179 0.930 . S
H174 C154 0.931 . S
H175 C155 0.930 . S
H176 C163 0.931 . S
H177 C164 0.929 . S
H178 C172 0.929 . S
H179 C173 0.930 . S
Mn180 O185 2.095 . S
Mn180 O195 2.162 . S
Mn180 O196 2.297 . S
Mn180 O204 2.385 . S
Mn180 O205 2.209 . S
Mn180 O206 2.094 . S
Mn181 O186 2.121 . S
Mn181 N188 2.257 . S
Mn181 N197 2.282 . S
Mn181 O205 2.215 . S
Mn181 O207 2.117 . S
C182 O204 1.234 . S
C182 O205 1.283 . S
C183 O195 1.281 . S
C183 O196 1.236 . S
C184 O206 1.240 . S
C184 O207 1.264 . S
O185 Mn180 2.095 . S
O185 C194 1.250 . S
O186 Mn181 2.121 . S
O186 C194 1.258 . S
C187 N188 1.326 . S
C187 C191 1.460 . S
C187 H193 0.929 . S
N188 Mn181 2.257 . S
N188 C187 1.326 . S
N188 C192 1.362 . S
C189 C190 1.258 . S
C189 C192 1.431 . S
C189 C209 1.449 . S
C190 C189 1.258 . S
C190 C191 1.477 . S
C190 H210 0.931 . S
C191 C187 1.460 . S
C191 C190 1.477 . S
C191 H211 0.930 . S
C192 N188 1.362 . S
C192 C189 1.431 . S
C192 C202 1.476 . S
H193 C187 0.929 . S
C194 O185 1.250 . S
C194 O186 1.258 . S
O195 Mn180 2.162 . S
O195 C183 1.281 . S
O196 Mn180 2.297 . S
O196 C183 1.236 . S
N197 Mn181 2.282 . S
N197 C198 1.328 . S
N197 C202 1.318 . S
C198 N197 1.328 . S
C198 C199 1.457 . S
C198 H203 0.929 . S
C199 C198 1.457 . S
C199 C200 1.291 . S
C199 H212 0.931 . S
C200 C199 1.291 . S
C200 C201 1.373 . S
C200 H213 0.929 . S
C201 C200 1.373 . S
C201 C202 1.396 . S
C201 C208 1.403 . S
C202 C192 1.476 . S
C202 N197 1.318 . S
C202 C201 1.396 . S
H203 C198 0.929 . S
O204 Mn180 2.385 . S
O204 C182 1.234 . S
O205 Mn180 2.209 . S
O205 Mn181 2.215 . S
O205 C182 1.283 . S
O206 Mn180 2.094 . S
O206 C184 1.240 . S
O207 Mn181 2.117 . S
O207 C184 1.264 . S
C208 C201 1.403 . S
C208 C209 1.399 . S
C208 H214 0.929 . S
C209 C189 1.449 . S
C209 C208 1.399 . S
C209 H215 0.930 . S
H210 C190 0.931 . S
H211 C191 0.930 . S
H212 C199 0.931 . S
H213 C200 0.929 . S
H214 C208 0.929 . S
H215 C209 0.930 . S
Mn216 O221 2.095 . S
Mn216 O231 2.162 . S
Mn216 O232 2.297 . S
Mn216 O240 2.385 . S
Mn216 O241 2.209 . S
Mn216 O242 2.094 . S
Mn217 O222 2.121 . S
Mn217 N224 2.257 . S
Mn217 N233 2.282 . S
Mn217 O241 2.215 . S
Mn217 O243 2.117 . S
C218 O240 1.234 . S
C218 O241 1.283 . S
C219 O231 1.281 . S
C219 O232 1.236 . S
C220 O242 1.240 . S
C220 O243 1.264 . S
O221 Mn216 2.095 . S
O221 C230 1.250 . S
O222 Mn217 2.121 . S
O222 C230 1.258 . S
C223 N224 1.326 . S
C223 C227 1.460 . S
C223 H229 0.929 . S
N224 Mn217 2.257 . S
N224 C223 1.326 . S
N224 C228 1.362 . S
C225 C226 1.258 . S
C225 C228 1.431 . S
C225 C245 1.449 . S
C226 C225 1.258 . S
C226 C227 1.477 . S
C226 H246 0.931 . S
C227 C223 1.460 . S
C227 C226 1.477 . S
C227 H247 0.930 . S
C228 N224 1.362 . S
C228 C225 1.431 . S
C228 C238 1.476 . S
H229 C223 0.929 . S
C230 O221 1.250 . S
C230 O222 1.258 . S
O231 Mn216 2.162 . S
O231 C219 1.281 . S
O232 Mn216 2.297 . S
O232 C219 1.236 . S
N233 Mn217 2.282 . S
N233 C234 1.328 . S
N233 C238 1.318 . S
C234 N233 1.328 . S
C234 C235 1.457 . S
C234 H239 0.929 . S
C235 C234 1.457 . S
C235 C236 1.291 . S
C235 H248 0.931 . S
C236 C235 1.291 . S
C236 C237 1.373 . S
C236 H249 0.929 . S
C237 C236 1.373 . S
C237 C238 1.396 . S
C237 C244 1.403 . S
C238 C228 1.476 . S
C238 N233 1.318 . S
C238 C237 1.396 . S
H239 C234 0.929 . S
O240 Mn216 2.385 . S
O240 C218 1.234 . S
O241 Mn216 2.209 . S
O241 Mn217 2.215 . S
O241 C218 1.283 . S
O242 Mn216 2.094 . S
O242 C220 1.240 . S
O243 Mn217 2.117 . S
O243 C220 1.264 . S
C244 C237 1.403 . S
C244 C245 1.399 . S
C244 H250 0.929 . S
C245 C225 1.449 . S
C245 C244 1.399 . S
C245 H251 0.930 . S
H246 C226 0.931 . S
H247 C227 0.930 . S
H248 C235 0.931 . S
H249 C236 0.929 . S
H250 C244 0.929 . S
H251 C245 0.930 . S
Mn252 O257 2.095 . S
Mn252 O267 2.162 . S
Mn252 O268 2.297 . S
Mn252 O276 2.385 . S
Mn252 O277 2.209 . S
Mn252 O278 2.094 . S
Mn253 O258 2.121 . S
Mn253 N260 2.257 . S
Mn253 N269 2.282 . S
Mn253 O277 2.215 . S
Mn253 O279 2.117 . S
C254 O276 1.234 . S
C254 O277 1.283 . S
C255 O267 1.281 . S
C255 O268 1.236 . S
C256 O278 1.240 . S
C256 O279 1.264 . S
O257 Mn252 2.095 . S
O257 C266 1.250 . S
O258 Mn253 2.121 . S
O258 C266 1.258 . S
C259 N260 1.326 . S
C259 C263 1.460 . S
C259 H265 0.929 . S
N260 Mn253 2.257 . S
N260 C259 1.326 . S
N260 C264 1.362 . S
C261 C262 1.258 . S
C261 C264 1.431 . S
C261 C281 1.449 . S
C262 C261 1.258 . S
C262 C263 1.477 . S
C262 H282 0.931 . S
C263 C259 1.460 . S
C263 C262 1.477 . S
C263 H283 0.930 . S
C264 N260 1.362 . S
C264 C261 1.431 . S
C264 C274 1.476 . S
H265 C259 0.929 . S
C266 O257 1.250 . S
C266 O258 1.258 . S
O267 Mn252 2.162 . S
O267 C255 1.281 . S
O268 Mn252 2.297 . S
O268 C255 1.236 . S
N269 Mn253 2.282 . S
N269 C270 1.328 . S
N269 C274 1.318 . S
C270 N269 1.328 . S
C270 C271 1.457 . S
C270 H275 0.929 . S
C271 C270 1.457 . S
C271 C272 1.291 . S
C271 H284 0.931 . S
C272 C271 1.291 . S
C272 C273 1.373 . S
C272 H285 0.929 . S
C273 C272 1.373 . S
C273 C274 1.396 . S
C273 C280 1.403 . S
C274 C264 1.476 . S
C274 N269 1.318 . S
C274 C273 1.396 . S
H275 C270 0.929 . S
O276 Mn252 2.385 . S
O276 C254 1.234 . S
O277 Mn252 2.209 . S
O277 Mn253 2.215 . S
O277 C254 1.283 . S
O278 Mn252 2.094 . S
O278 C256 1.240 . S
O279 Mn253 2.117 . S
O279 C256 1.264 . S
C280 C273 1.403 . S
C280 C281 1.399 . S
C280 H286 0.929 . S
C281 C261 1.449 . S
C281 C280 1.399 . S
C281 H287 0.930 . S
H282 C262 0.931 . S
H283 C263 0.930 . S
H284 C271 0.931 . S
H285 C272 0.929 . S
H286 C280 0.929 . S
H287 C281 0.930 . S
Mn288 O293 2.095 . S
Mn288 O303 2.162 . S
Mn288 O304 2.297 . S
Mn288 O312 2.385 . S
Mn288 O313 2.209 . S
Mn288 O314 2.094 . S
Mn289 O294 2.121 . S
Mn289 N296 2.257 . S
Mn289 N305 2.282 . S
Mn289 O313 2.215 . S
Mn289 O315 2.117 . S
C290 O312 1.234 . S
C290 O313 1.283 . S
C291 O303 1.281 . S
C291 O304 1.236 . S
C292 O314 1.240 . S
C292 O315 1.264 . S
O293 Mn288 2.095 . S
O293 C302 1.250 . S
O294 Mn289 2.121 . S
O294 C302 1.258 . S
C295 N296 1.326 . S
C295 C299 1.460 . S
C295 H301 0.929 . S
N296 Mn289 2.257 . S
N296 C295 1.326 . S
N296 C300 1.362 . S
C297 C298 1.258 . S
C297 C300 1.431 . S
C297 C317 1.449 . S
C298 C297 1.258 . S
C298 C299 1.477 . S
C298 H318 0.931 . S
C299 C295 1.460 . S
C299 C298 1.477 . S
C299 H319 0.930 . S
C300 N296 1.362 . S
C300 C297 1.431 . S
C300 C310 1.476 . S
H301 C295 0.929 . S
C302 O293 1.250 . S
C302 O294 1.258 . S
O303 Mn288 2.162 . S
O303 C291 1.281 . S
O304 Mn288 2.297 . S
O304 C291 1.236 . S
N305 Mn289 2.282 . S
N305 C306 1.328 . S
N305 C310 1.318 . S
C306 N305 1.328 . S
C306 C307 1.457 . S
C306 H311 0.929 . S
C307 C306 1.457 . S
C307 C308 1.291 . S
C307 H320 0.931 . S
C308 C307 1.291 . S
C308 C309 1.373 . S
C308 H321 0.929 . S
C309 C308 1.373 . S
C309 C310 1.396 . S
C309 C316 1.403 . S
C310 C300 1.476 . S
C310 N305 1.318 . S
C310 C309 1.396 . S
H311 C306 0.929 . S
O312 Mn288 2.385 . S
O312 C290 1.234 . S
O313 Mn288 2.209 . S
O313 Mn289 2.215 . S
O313 C290 1.283 . S
O314 Mn288 2.094 . S
O314 C292 1.240 . S
O315 Mn289 2.117 . S
O315 C292 1.264 . S
C316 C309 1.403 . S
C316 C317 1.399 . S
C316 H322 0.929 . S
C317 C297 1.449 . S
C317 C316 1.399 . S
C317 H323 0.930 . S
H318 C298 0.931 . S
H319 C299 0.930 . S
H320 C307 0.931 . S
H321 C308 0.929 . S
H322 C316 0.929 . S
H323 C317 0.930 . S
Mn324 O329 2.095 . S
Mn324 O339 2.162 . S
Mn324 O340 2.297 . S
Mn324 O348 2.385 . S
Mn324 O349 2.209 . S
Mn324 O350 2.094 . S
Mn325 O330 2.121 . S
Mn325 N332 2.257 . S
Mn325 N341 2.282 . S
Mn325 O349 2.215 . S
Mn325 O351 2.117 . S
C326 O348 1.234 . S
C326 O349 1.283 . S
C327 O339 1.281 . S
C327 O340 1.236 . S
C328 O350 1.240 . S
C328 O351 1.264 . S
O329 Mn324 2.095 . S
O329 C338 1.250 . S
O330 Mn325 2.121 . S
O330 C338 1.258 . S
C331 N332 1.326 . S
C331 C335 1.460 . S
C331 H337 0.929 . S
N332 Mn325 2.257 . S
N332 C331 1.326 . S
N332 C336 1.362 . S
C333 C334 1.258 . S
C333 C336 1.431 . S
C333 C353 1.449 . S
C334 C333 1.258 . S
C334 C335 1.477 . S
C334 H354 0.931 . S
C335 C331 1.460 . S
C335 C334 1.477 . S
C335 H355 0.930 . S
C336 N332 1.362 . S
C336 C333 1.431 . S
C336 C346 1.476 . S
H337 C331 0.929 . S
C338 O329 1.250 . S
C338 O330 1.258 . S
O339 Mn324 2.162 . S
O339 C327 1.281 . S
O340 Mn324 2.297 . S
O340 C327 1.236 . S
N341 Mn325 2.282 . S
N341 C342 1.328 . S
N341 C346 1.318 . S
C342 N341 1.328 . S
C342 C343 1.457 . S
C342 H347 0.929 . S
C343 C342 1.457 . S
C343 C344 1.291 . S
C343 H356 0.931 . S
C344 C343 1.291 . S
C344 C345 1.373 . S
C344 H357 0.929 . S
C345 C344 1.373 . S
C345 C346 1.396 . S
C345 C352 1.403 . S
C346 C336 1.476 . S
C346 N341 1.318 . S
C346 C345 1.396 . S
H347 C342 0.929 . S
O348 Mn324 2.385 . S
O348 C326 1.234 . S
O349 Mn324 2.209 . S
O349 Mn325 2.215 . S
O349 C326 1.283 . S
O350 Mn324 2.094 . S
O350 C328 1.240 . S
O351 Mn325 2.117 . S
O351 C328 1.264 . S
C352 C345 1.403 . S
C352 C353 1.399 . S
C352 H358 0.929 . S
C353 C333 1.449 . S
C353 C352 1.399 . S
C353 H359 0.930 . S
H354 C334 0.931 . S
H355 C335 0.930 . S
H356 C343 0.931 . S
H357 C344 0.929 . S
H358 C352 0.929 . S
H359 C353 0.930 . S
Mn360 O365 2.095 . S
Mn360 O375 2.162 . S
Mn360 O376 2.297 . S
Mn360 O384 2.385 . S
Mn360 O385 2.209 . S
Mn360 O386 2.094 . S
Mn361 O366 2.121 . S
Mn361 N368 2.257 . S
Mn361 N377 2.282 . S
Mn361 O385 2.215 . S
Mn361 O387 2.117 . S
C362 O384 1.234 . S
C362 O385 1.283 . S
C363 O375 1.281 . S
C363 O376 1.236 . S
C364 O386 1.240 . S
C364 O387 1.264 . S
O365 Mn360 2.095 . S
O365 C374 1.250 . S
O366 Mn361 2.121 . S
O366 C374 1.258 . S
C367 N368 1.326 . S
C367 C371 1.460 . S
C367 H373 0.929 . S
N368 Mn361 2.257 . S
N368 C367 1.326 . S
N368 C372 1.362 . S
C369 C370 1.258 . S
C369 C372 1.431 . S
C369 C389 1.449 . S
C370 C369 1.258 . S
C370 C371 1.477 . S
C370 H390 0.931 . S
C371 C367 1.460 . S
C371 C370 1.477 . S
C371 H391 0.930 . S
C372 N368 1.362 . S
C372 C369 1.431 . S
C372 C382 1.476 . S
H373 C367 0.929 . S
C374 O365 1.250 . S
C374 O366 1.258 . S
O375 Mn360 2.162 . S
O375 C363 1.281 . S
O376 Mn360 2.297 . S
O376 C363 1.236 . S
N377 Mn361 2.282 . S
N377 C378 1.328 . S
N377 C382 1.318 . S
C378 N377 1.328 . S
C378 C379 1.457 . S
C378 H383 0.929 . S
C379 C378 1.457 . S
C379 C380 1.291 . S
C379 H392 0.931 . S
C380 C379 1.291 . S
C380 C381 1.373 . S
C380 H393 0.929 . S
C381 C380 1.373 . S
C381 C382 1.396 . S
C381 C388 1.403 . S
C382 C372 1.476 . S
C382 N377 1.318 . S
C382 C381 1.396 . S
H383 C378 0.929 . S
O384 Mn360 2.385 . S
O384 C362 1.234 . S
O385 Mn360 2.209 . S
O385 Mn361 2.215 . S
O385 C362 1.283 . S
O386 Mn360 2.094 . S
O386 C364 1.240 . S
O387 Mn361 2.117 . S
O387 C364 1.264 . S
C388 C381 1.403 . S
C388 C389 1.399 . S
C388 H394 0.929 . S
C389 C369 1.449 . S
C389 C388 1.399 . S
C389 H395 0.930 . S
H390 C370 0.931 . S
H391 C371 0.930 . S
H392 C379 0.931 . S
H393 C380 0.929 . S
H394 C388 0.929 . S
H395 C389 0.930 . S
Mn396 O401 2.095 . S
Mn396 O411 2.162 . S
Mn396 O412 2.297 . S
Mn396 O420 2.385 . S
Mn396 O421 2.209 . S
Mn396 O422 2.094 . S
Mn397 O402 2.121 . S
Mn397 N404 2.257 . S
Mn397 N413 2.282 . S
Mn397 O421 2.215 . S
Mn397 O423 2.117 . S
C398 O420 1.234 . S
C398 O421 1.283 . S
C399 O411 1.281 . S
C399 O412 1.236 . S
C400 O422 1.240 . S
C400 O423 1.264 . S
O401 Mn396 2.095 . S
O401 C410 1.250 . S
O402 Mn397 2.121 . S
O402 C410 1.258 . S
C403 N404 1.326 . S
C403 C407 1.460 . S
C403 H409 0.929 . S
N404 Mn397 2.257 . S
N404 C403 1.326 . S
N404 C408 1.362 . S
C405 C406 1.258 . S
C405 C408 1.431 . S
C405 C425 1.449 . S
C406 C405 1.258 . S
C406 C407 1.477 . S
C406 H426 0.931 . S
C407 C403 1.460 . S
C407 C406 1.477 . S
C407 H427 0.930 . S
C408 N404 1.362 . S
C408 C405 1.431 . S
C408 C418 1.476 . S
H409 C403 0.929 . S
C410 O401 1.250 . S
C410 O402 1.258 . S
O411 Mn396 2.162 . S
O411 C399 1.281 . S
O412 Mn396 2.297 . S
O412 C399 1.236 . S
N413 Mn397 2.282 . S
N413 C414 1.328 . S
N413 C418 1.318 . S
C414 N413 1.328 . S
C414 C415 1.457 . S
C414 H419 0.929 . S
C415 C414 1.457 . S
C415 C416 1.291 . S
C415 H428 0.931 . S
C416 C415 1.291 . S
C416 C417 1.373 . S
C416 H429 0.929 . S
C417 C416 1.373 . S
C417 C418 1.396 . S
C417 C424 1.403 . S
C418 C408 1.476 . S
C418 N413 1.318 . S
C418 C417 1.396 . S
H419 C414 0.929 . S
O420 Mn396 2.385 . S
O420 C398 1.234 . S
O421 Mn396 2.209 . S
O421 Mn397 2.215 . S
O421 C398 1.283 . S
O422 Mn396 2.094 . S
O422 C400 1.240 . S
O423 Mn397 2.117 . S
O423 C400 1.264 . S
C424 C417 1.403 . S
C424 C425 1.399 . S
C424 H430 0.929 . S
C425 C405 1.449 . S
C425 C424 1.399 . S
C425 H431 0.930 . S
H426 C406 0.931 . S
H427 C407 0.930 . S
H428 C415 0.931 . S
H429 C416 0.929 . S
H430 C424 0.929 . S
H431 C425 0.930 . S
Mn432 O437 2.095 . S
Mn432 O447 2.162 . S
Mn432 O448 2.297 . S
Mn432 O456 2.385 . S
Mn432 O457 2.209 . S
Mn432 O458 2.094 . S
Mn433 O438 2.121 . S
Mn433 N440 2.257 . S
Mn433 N449 2.282 . S
Mn433 O457 2.215 . S
Mn433 O459 2.117 . S
C434 O456 1.234 . S
C434 O457 1.283 . S
C435 O447 1.281 . S
C435 O448 1.236 . S
C436 O458 1.240 . S
C436 O459 1.264 . S
O437 Mn432 2.095 . S
O437 C446 1.250 . S
O438 Mn433 2.121 . S
O438 C446 1.258 . S
C439 N440 1.326 . S
C439 C443 1.460 . S
C439 H445 0.929 . S
N440 Mn433 2.257 . S
N440 C439 1.326 . S
N440 C444 1.362 . S
C441 C442 1.258 . S
C441 C444 1.431 . S
C441 C461 1.449 . S
C442 C441 1.258 . S
C442 C443 1.477 . S
C442 H462 0.931 . S
C443 C439 1.460 . S
C443 C442 1.477 . S
C443 H463 0.930 . S
C444 N440 1.362 . S
C444 C441 1.431 . S
C444 C454 1.476 . S
H445 C439 0.929 . S
C446 O437 1.250 . S
C446 O438 1.258 . S
O447 Mn432 2.162 . S
O447 C435 1.281 . S
O448 Mn432 2.297 . S
O448 C435 1.236 . S
N449 Mn433 2.282 . S
N449 C450 1.328 . S
N449 C454 1.318 . S
C450 N449 1.328 . S
C450 C451 1.457 . S
C450 H455 0.929 . S
C451 C450 1.457 . S
C451 C452 1.291 . S
C451 H464 0.931 . S
C452 C451 1.291 . S
C452 C453 1.373 . S
C452 H465 0.929 . S
C453 C452 1.373 . S
C453 C454 1.396 . S
C453 C460 1.403 . S
C454 C444 1.476 . S
C454 N449 1.318 . S
C454 C453 1.396 . S
H455 C450 0.929 . S
O456 Mn432 2.385 . S
O456 C434 1.234 . S
O457 Mn432 2.209 . S
O457 Mn433 2.215 . S
O457 C434 1.283 . S
O458 Mn432 2.094 . S
O458 C436 1.240 . S
O459 Mn433 2.117 . S
O459 C436 1.264 . S
C460 C453 1.403 . S
C460 C461 1.399 . S
C460 H466 0.929 . S
C461 C441 1.449 . S
C461 C460 1.399 . S
C461 H467 0.930 . S
H462 C442 0.931 . S
H463 C443 0.930 . S
H464 C451 0.931 . S
H465 C452 0.929 . S
H466 C460 0.929 . S
H467 C461 0.930 . S
Mn468 O473 2.095 . S
Mn468 O483 2.162 . S
Mn468 O484 2.297 . S
Mn468 O492 2.385 . S
Mn468 O493 2.209 . S
Mn468 O494 2.094 . S
Mn469 O474 2.121 . S
Mn469 N476 2.257 . S
Mn469 N485 2.282 . S
Mn469 O493 2.215 . S
Mn469 O495 2.117 . S
C470 O492 1.234 . S
C470 O493 1.283 . S
C471 O483 1.281 . S
C471 O484 1.236 . S
C472 O494 1.240 . S
C472 O495 1.264 . S
O473 Mn468 2.095 . S
O473 C482 1.250 . S
O474 Mn469 2.121 . S
O474 C482 1.258 . S
C475 N476 1.326 . S
C475 C479 1.460 . S
C475 H481 0.929 . S
N476 Mn469 2.257 . S
N476 C475 1.326 . S
N476 C480 1.362 . S
C477 C478 1.258 . S
C477 C480 1.431 . S
C477 C497 1.449 . S
C478 C477 1.258 . S
C478 C479 1.477 . S
C478 H498 0.931 . S
C479 C475 1.460 . S
C479 C478 1.477 . S
C479 H499 0.930 . S
C480 N476 1.362 . S
C480 C477 1.431 . S
C480 C490 1.476 . S
H481 C475 0.929 . S
C482 O473 1.250 . S
C482 O474 1.258 . S
O483 Mn468 2.162 . S
O483 C471 1.281 . S
O484 Mn468 2.297 . S
O484 C471 1.236 . S
N485 Mn469 2.282 . S
N485 C486 1.328 . S
N485 C490 1.318 . S
C486 N485 1.328 . S
C486 C487 1.457 . S
C486 H491 0.929 . S
C487 C486 1.457 . S
C487 C488 1.291 . S
C487 H500 0.931 . S
C488 C487 1.291 . S
C488 C489 1.373 . S
C488 H501 0.929 . S
C489 C488 1.373 . S
C489 C490 1.396 . S
C489 C496 1.403 . S
C490 C480 1.476 . S
C490 N485 1.318 . S
C490 C489 1.396 . S
H491 C486 0.929 . S
O492 Mn468 2.385 . S
O492 C470 1.234 . S
O493 Mn468 2.209 . S
O493 Mn469 2.215 . S
O493 C470 1.283 . S
O494 Mn468 2.094 . S
O494 C472 1.240 . S
O495 Mn469 2.117 . S
O495 C472 1.264 . S
C496 C489 1.403 . S
C496 C497 1.399 . S
C496 H502 0.929 . S
C497 C477 1.449 . S
C497 C496 1.399 . S
C497 H503 0.930 . S
H498 C478 0.931 . S
H499 C479 0.930 . S
H500 C487 0.931 . S
H501 C488 0.929 . S
H502 C496 0.929 . S
H503 C497 0.930 . S
Mn504 O509 2.095 . S
Mn504 O519 2.162 . S
Mn504 O520 2.297 . S
Mn504 O528 2.385 . S
Mn504 O529 2.209 . S
Mn504 O530 2.094 . S
Mn505 O510 2.121 . S
Mn505 N512 2.257 . S
Mn505 N521 2.282 . S
Mn505 O529 2.215 . S
Mn505 O531 2.117 . S
C506 O528 1.234 . S
C506 O529 1.283 . S
C507 O519 1.281 . S
C507 O520 1.236 . S
C508 O530 1.240 . S
C508 O531 1.264 . S
O509 Mn504 2.095 . S
O509 C518 1.250 . S
O510 Mn505 2.121 . S
O510 C518 1.258 . S
C511 N512 1.326 . S
C511 C515 1.460 . S
C511 H517 0.929 . S
N512 Mn505 2.257 . S
N512 C511 1.326 . S
N512 C516 1.362 . S
C513 C514 1.258 . S
C513 C516 1.431 . S
C513 C533 1.449 . S
C514 C513 1.258 . S
C514 C515 1.477 . S
C514 H534 0.931 . S
C515 C511 1.460 . S
C515 C514 1.477 . S
C515 H535 0.930 . S
C516 N512 1.362 . S
C516 C513 1.431 . S
C516 C526 1.476 . S
H517 C511 0.929 . S
C518 O509 1.250 . S
C518 O510 1.258 . S
O519 Mn504 2.162 . S
O519 C507 1.281 . S
O520 Mn504 2.297 . S
O520 C507 1.236 . S
N521 Mn505 2.282 . S
N521 C522 1.328 . S
N521 C526 1.318 . S
C522 N521 1.328 . S
C522 C523 1.457 . S
C522 H527 0.929 . S
C523 C522 1.457 . S
C523 C524 1.291 . S
C523 H536 0.931 . S
C524 C523 1.291 . S
C524 C525 1.373 . S
C524 H537 0.929 . S
C525 C524 1.373 . S
C525 C526 1.396 . S
C525 C532 1.403 . S
C526 C516 1.476 . S
C526 N521 1.318 . S
C526 C525 1.396 . S
H527 C522 0.929 . S
O528 Mn504 2.385 . S
O528 C506 1.234 . S
O529 Mn504 2.209 . S
O529 Mn505 2.215 . S
O529 C506 1.283 . S
O530 Mn504 2.094 . S
O530 C508 1.240 . S
O531 Mn505 2.117 . S
O531 C508 1.264 . S
C532 C525 1.403 . S
C532 C533 1.399 . S
C532 H538 0.929 . S
C533 C513 1.449 . S
C533 C532 1.399 . S
C533 H539 0.930 . S
H534 C514 0.931 . S
H535 C515 0.930 . S
H536 C523 0.931 . S
H537 C524 0.929 . S
H538 C532 0.929 . S
H539 C533 0.930 . S
Mn540 O545 2.095 . S
Mn540 O555 2.162 . S
Mn540 O556 2.297 . S
Mn540 O564 2.385 . S
Mn540 O565 2.209 . S
Mn540 O566 2.094 . S
Mn541 O546 2.121 . S
Mn541 N548 2.257 . S
Mn541 N557 2.282 . S
Mn541 O565 2.215 . S
Mn541 O567 2.117 . S
C542 O564 1.234 . S
C542 O565 1.283 . S
C543 O555 1.281 . S
C543 O556 1.236 . S
C544 O566 1.240 . S
C544 O567 1.264 . S
O545 Mn540 2.095 . S
O545 C554 1.250 . S
O546 Mn541 2.121 . S
O546 C554 1.258 . S
C547 N548 1.326 . S
C547 C551 1.460 . S
C547 H553 0.929 . S
N548 Mn541 2.257 . S
N548 C547 1.326 . S
N548 C552 1.362 . S
C549 C550 1.258 . S
C549 C552 1.431 . S
C549 C569 1.449 . S
C550 C549 1.258 . S
C550 C551 1.477 . S
C550 H570 0.931 . S
C551 C547 1.460 . S
C551 C550 1.477 . S
C551 H571 0.930 . S
C552 N548 1.362 . S
C552 C549 1.431 . S
C552 C562 1.476 . S
H553 C547 0.929 . S
C554 O545 1.250 . S
C554 O546 1.258 . S
O555 Mn540 2.162 . S
O555 C543 1.281 . S
O556 Mn540 2.297 . S
O556 C543 1.236 . S
N557 Mn541 2.282 . S
N557 C558 1.328 . S
N557 C562 1.318 . S
C558 N557 1.328 . S
C558 C559 1.457 . S
C558 H563 0.929 . S
C559 C558 1.457 . S
C559 C560 1.291 . S
C559 H572 0.931 . S
C560 C559 1.291 . S
C560 C561 1.373 . S
C560 H573 0.929 . S
C561 C560 1.373 . S
C561 C562 1.396 . S
C561 C568 1.403 . S
C562 C552 1.476 . S
C562 N557 1.318 . S
C562 C561 1.396 . S
H563 C558 0.929 . S
O564 Mn540 2.385 . S
O564 C542 1.234 . S
O565 Mn540 2.209 . S
O565 Mn541 2.215 . S
O565 C542 1.283 . S
O566 Mn540 2.094 . S
O566 C544 1.240 . S
O567 Mn541 2.117 . S
O567 C544 1.264 . S
C568 C561 1.403 . S
C568 C569 1.399 . S
C568 H574 0.929 . S
C569 C549 1.449 . S
C569 C568 1.399 . S
C569 H575 0.930 . S
H570 C550 0.931 . S
H571 C551 0.930 . S
H572 C559 0.931 . S
H573 C560 0.929 . S
H574 C568 0.929 . S
H575 C569 0.930 . S
Mn576 O581 2.095 . S
Mn576 O591 2.162 . S
Mn576 O592 2.297 . S
Mn576 O600 2.385 . S
Mn576 O601 2.209 . S
Mn576 O602 2.094 . S
Mn577 O582 2.121 . S
Mn577 N584 2.257 . S
Mn577 N593 2.282 . S
Mn577 O601 2.215 . S
Mn577 O603 2.117 . S
C578 O600 1.234 . S
C578 O601 1.283 . S
C579 O591 1.281 . S
C579 O592 1.236 . S
C580 O602 1.240 . S
C580 O603 1.264 . S
O581 Mn576 2.095 . S
O581 C590 1.250 . S
O582 Mn577 2.121 . S
O582 C590 1.258 . S
C583 N584 1.326 . S
C583 C587 1.460 . S
C583 H589 0.929 . S
N584 Mn577 2.257 . S
N584 C583 1.326 . S
N584 C588 1.362 . S
C585 C586 1.258 . S
C585 C588 1.431 . S
C585 C605 1.449 . S
C586 C585 1.258 . S
C586 C587 1.477 . S
C586 H606 0.931 . S
C587 C583 1.460 . S
C587 C586 1.477 . S
C587 H607 0.930 . S
C588 N584 1.362 . S
C588 C585 1.431 . S
C588 C598 1.476 . S
H589 C583 0.929 . S
C590 O581 1.250 . S
C590 O582 1.258 . S
O591 Mn576 2.162 . S
O591 C579 1.281 . S
O592 Mn576 2.297 . S
O592 C579 1.236 . S
N593 Mn577 2.282 . S
N593 C594 1.328 . S
N593 C598 1.318 . S
C594 N593 1.328 . S
C594 C595 1.457 . S
C594 H599 0.929 . S
C595 C594 1.457 . S
C595 C596 1.291 . S
C595 H608 0.931 . S
C596 C595 1.291 . S
C596 C597 1.373 . S
C596 H609 0.929 . S
C597 C596 1.373 . S
C597 C598 1.396 . S
C597 C604 1.403 . S
C598 C588 1.476 . S
C598 N593 1.318 . S
C598 C597 1.396 . S
H599 C594 0.929 . S
O600 Mn576 2.385 . S
O600 C578 1.234 . S
O601 Mn576 2.209 . S
O601 Mn577 2.215 . S
O601 C578 1.283 . S
O602 Mn576 2.094 . S
O602 C580 1.240 . S
O603 Mn577 2.117 . S
O603 C580 1.264 . S
C604 C597 1.403 . S
C604 C605 1.399 . S
C604 H610 0.929 . S
C605 C585 1.449 . S
C605 C604 1.399 . S
C605 H611 0.930 . S
H606 C586 0.931 . S
H607 C587 0.930 . S
H608 C595 0.931 . S
H609 C596 0.929 . S
H610 C604 0.929 . S
H611 C605 0.930 . S
Mn612 O617 2.095 . S
Mn612 O627 2.162 . S
Mn612 O628 2.297 . S
Mn612 O636 2.385 . S
Mn612 O637 2.209 . S
Mn612 O638 2.094 . S
Mn613 O618 2.121 . S
Mn613 N620 2.257 . S
Mn613 N629 2.282 . S
Mn613 O637 2.215 . S
Mn613 O639 2.117 . S
C614 O636 1.234 . S
C614 O637 1.283 . S
C615 O627 1.281 . S
C615 O628 1.236 . S
C616 O638 1.240 . S
C616 O639 1.264 . S
O617 Mn612 2.095 . S
O617 C626 1.250 . S
O618 Mn613 2.121 . S
O618 C626 1.258 . S
C619 N620 1.326 . S
C619 C623 1.460 . S
C619 H625 0.929 . S
N620 Mn613 2.257 . S
N620 C619 1.326 . S
N620 C624 1.362 . S
C621 C622 1.258 . S
C621 C624 1.431 . S
C621 C641 1.449 . S
C622 C621 1.258 . S
C622 C623 1.477 . S
C622 H642 0.931 . S
C623 C619 1.460 . S
C623 C622 1.477 . S
C623 H643 0.930 . S
C624 N620 1.362 . S
C624 C621 1.431 . S
C624 C634 1.476 . S
H625 C619 0.929 . S
C626 O617 1.250 . S
C626 O618 1.258 . S
O627 Mn612 2.162 . S
O627 C615 1.281 . S
O628 Mn612 2.297 . S
O628 C615 1.236 . S
N629 Mn613 2.282 . S
N629 C630 1.328 . S
N629 C634 1.318 . S
C630 N629 1.328 . S
C630 C631 1.457 . S
C630 H635 0.929 . S
C631 C630 1.457 . S
C631 C632 1.291 . S
C631 H644 0.931 . S
C632 C631 1.291 . S
C632 C633 1.373 . S
C632 H645 0.929 . S
C633 C632 1.373 . S
C633 C634 1.396 . S
C633 C640 1.403 . S
C634 C624 1.476 . S
C634 N629 1.318 . S
C634 C633 1.396 . S
H635 C630 0.929 . S
O636 Mn612 2.385 . S
O636 C614 1.234 . S
O637 Mn612 2.209 . S
O637 Mn613 2.215 . S
O637 C614 1.283 . S
O638 Mn612 2.094 . S
O638 C616 1.240 . S
O639 Mn613 2.117 . S
O639 C616 1.264 . S
C640 C633 1.403 . S
C640 C641 1.399 . S
C640 H646 0.929 . S
C641 C621 1.449 . S
C641 C640 1.399 . S
C641 H647 0.930 . S
H642 C622 0.931 . S
H643 C623 0.930 . S
H644 C631 0.931 . S
H645 C632 0.929 . S
H646 C640 0.929 . S
H647 C641 0.930 . S
Mn648 O653 2.095 . S
Mn648 O663 2.162 . S
Mn648 O664 2.297 . S
Mn648 O672 2.385 . S
Mn648 O673 2.209 . S
Mn648 O674 2.094 . S
Mn649 O654 2.121 . S
Mn649 N656 2.257 . S
Mn649 N665 2.282 . S
Mn649 O673 2.215 . S
Mn649 O675 2.117 . S
C650 O672 1.234 . S
C650 O673 1.283 . S
C651 O663 1.281 . S
C651 O664 1.236 . S
C652 O674 1.240 . S
C652 O675 1.264 . S
O653 Mn648 2.095 . S
O653 C662 1.250 . S
O654 Mn649 2.121 . S
O654 C662 1.258 . S
C655 N656 1.326 . S
C655 C659 1.460 . S
C655 H661 0.929 . S
N656 Mn649 2.257 . S
N656 C655 1.326 . S
N656 C660 1.362 . S
C657 C658 1.258 . S
C657 C660 1.431 . S
C657 C677 1.449 . S
C658 C657 1.258 . S
C658 C659 1.477 . S
C658 H678 0.931 . S
C659 C655 1.460 . S
C659 C658 1.477 . S
C659 H679 0.930 . S
C660 N656 1.362 . S
C660 C657 1.431 . S
C660 C670 1.476 . S
H661 C655 0.929 . S
C662 O653 1.250 . S
C662 O654 1.258 . S
O663 Mn648 2.162 . S
O663 C651 1.281 . S
O664 Mn648 2.297 . S
O664 C651 1.236 . S
N665 Mn649 2.282 . S
N665 C666 1.328 . S
N665 C670 1.318 . S
C666 N665 1.328 . S
C666 C667 1.457 . S
C666 H671 0.929 . S
C667 C666 1.457 . S
C667 C668 1.291 . S
C667 H680 0.931 . S
C668 C667 1.291 . S
C668 C669 1.373 . S
C668 H681 0.929 . S
C669 C668 1.373 . S
C669 C670 1.396 . S
C669 C676 1.403 . S
C670 C660 1.476 . S
C670 N665 1.318 . S
C670 C669 1.396 . S
H671 C666 0.929 . S
O672 Mn648 2.385 . S
O672 C650 1.234 . S
O673 Mn648 2.209 . S
O673 Mn649 2.215 . S
O673 C650 1.283 . S
O674 Mn648 2.094 . S
O674 C652 1.240 . S
O675 Mn649 2.117 . S
O675 C652 1.264 . S
C676 C669 1.403 . S
C676 C677 1.399 . S
C676 H682 0.929 . S
C677 C657 1.449 . S
C677 C676 1.399 . S
C677 H683 0.930 . S
H678 C658 0.931 . S
H679 C659 0.930 . S
H680 C667 0.931 . S
H681 C668 0.929 . S
H682 C676 0.929 . S
H683 C677 0.930 . S
Mn684 O689 2.095 . S
Mn684 O699 2.162 . S
Mn684 O700 2.297 . S
Mn684 O708 2.385 . S
Mn684 O709 2.209 . S
Mn684 O710 2.094 . S
Mn685 O690 2.121 . S
Mn685 N692 2.257 . S
Mn685 N701 2.282 . S
Mn685 O709 2.215 . S
Mn685 O711 2.117 . S
C686 O708 1.234 . S
C686 O709 1.283 . S
C687 O699 1.281 . S
C687 O700 1.236 . S
C688 O710 1.240 . S
C688 O711 1.264 . S
O689 Mn684 2.095 . S
O689 C698 1.250 . S
O690 Mn685 2.121 . S
O690 C698 1.258 . S
C691 N692 1.326 . S
C691 C695 1.460 . S
C691 H697 0.929 . S
N692 Mn685 2.257 . S
N692 C691 1.326 . S
N692 C696 1.362 . S
C693 C694 1.258 . S
C693 C696 1.431 . S
C693 C713 1.449 . S
C694 C693 1.258 . S
C694 C695 1.477 . S
C694 H714 0.931 . S
C695 C691 1.460 . S
C695 C694 1.477 . S
C695 H715 0.930 . S
C696 N692 1.362 . S
C696 C693 1.431 . S
C696 C706 1.476 . S
H697 C691 0.929 . S
C698 O689 1.250 . S
C698 O690 1.258 . S
O699 Mn684 2.162 . S
O699 C687 1.281 . S
O700 Mn684 2.297 . S
O700 C687 1.236 . S
N701 Mn685 2.282 . S
N701 C702 1.328 . S
N701 C706 1.318 . S
C702 N701 1.328 . S
C702 C703 1.457 . S
C702 H707 0.929 . S
C703 C702 1.457 . S
C703 C704 1.291 . S
C703 H716 0.931 . S
C704 C703 1.291 . S
C704 C705 1.373 . S
C704 H717 0.929 . S
C705 C704 1.373 . S
C705 C706 1.396 . S
C705 C712 1.403 . S
C706 C696 1.476 . S
C706 N701 1.318 . S
C706 C705 1.396 . S
H707 C702 0.929 . S
O708 Mn684 2.385 . S
O708 C686 1.234 . S
O709 Mn684 2.209 . S
O709 Mn685 2.215 . S
O709 C686 1.283 . S
O710 Mn684 2.094 . S
O710 C688 1.240 . S
O711 Mn685 2.117 . S
O711 C688 1.264 . S
C712 C705 1.403 . S
C712 C713 1.399 . S
C712 H718 0.929 . S
C713 C693 1.449 . S
C713 C712 1.399 . S
C713 H719 0.930 . S
H714 C694 0.931 . S
H715 C695 0.930 . S
H716 C703 0.931 . S
H717 C704 0.929 . S
H718 C712 0.929 . S
H719 C713 0.930 . S
Mn720 O725 2.095 . S
Mn720 O735 2.162 . S
Mn720 O736 2.297 . S
Mn720 O744 2.385 . S
Mn720 O745 2.209 . S
Mn720 O746 2.094 . S
Mn721 O726 2.121 . S
Mn721 N728 2.257 . S
Mn721 N737 2.282 . S
Mn721 O745 2.215 . S
Mn721 O747 2.117 . S
C722 O744 1.234 . S
C722 O745 1.283 . S
C723 O735 1.281 . S
C723 O736 1.236 . S
C724 O746 1.240 . S
C724 O747 1.264 . S
O725 Mn720 2.095 . S
O725 C734 1.250 . S
O726 Mn721 2.121 . S
O726 C734 1.258 . S
C727 N728 1.326 . S
C727 C731 1.460 . S
C727 H733 0.929 . S
N728 Mn721 2.257 . S
N728 C727 1.326 . S
N728 C732 1.362 . S
C729 C730 1.258 . S
C729 C732 1.431 . S
C729 C749 1.449 . S
C730 C729 1.258 . S
C730 C731 1.477 . S
C730 H750 0.931 . S
C731 C727 1.460 . S
C731 C730 1.477 . S
C731 H751 0.930 . S
C732 N728 1.362 . S
C732 C729 1.431 . S
C732 C742 1.476 . S
H733 C727 0.929 . S
C734 O725 1.250 . S
C734 O726 1.258 . S
O735 Mn720 2.162 . S
O735 C723 1.281 . S
O736 Mn720 2.297 . S
O736 C723 1.236 . S
N737 Mn721 2.282 . S
N737 C738 1.328 . S
N737 C742 1.318 . S
C738 N737 1.328 . S
C738 C739 1.457 . S
C738 H743 0.929 . S
C739 C738 1.457 . S
C739 C740 1.291 . S
C739 H752 0.931 . S
C740 C739 1.291 . S
C740 C741 1.373 . S
C740 H753 0.929 . S
C741 C740 1.373 . S
C741 C742 1.396 . S
C741 C748 1.403 . S
C742 C732 1.476 . S
C742 N737 1.318 . S
C742 C741 1.396 . S
H743 C738 0.929 . S
O744 Mn720 2.385 . S
O744 C722 1.234 . S
O745 Mn720 2.209 . S
O745 Mn721 2.215 . S
O745 C722 1.283 . S
O746 Mn720 2.094 . S
O746 C724 1.240 . S
O747 Mn721 2.117 . S
O747 C724 1.264 . S
C748 C741 1.403 . S
C748 C749 1.399 . S
C748 H754 0.929 . S
C749 C729 1.449 . S
C749 C748 1.399 . S
C749 H755 0.930 . S
H750 C730 0.931 . S
H751 C731 0.930 . S
H752 C739 0.931 . S
H753 C740 0.929 . S
H754 C748 0.929 . S
H755 C749 0.930 . S
Mn756 O761 2.095 . S
Mn756 O771 2.162 . S
Mn756 O772 2.297 . S
Mn756 O780 2.385 . S
Mn756 O781 2.209 . S
Mn756 O782 2.094 . S
Mn757 O762 2.121 . S
Mn757 N764 2.257 . S
Mn757 N773 2.282 . S
Mn757 O781 2.215 . S
Mn757 O783 2.117 . S
C758 O780 1.234 . S
C758 O781 1.283 . S
C759 O771 1.281 . S
C759 O772 1.236 . S
C760 O782 1.240 . S
C760 O783 1.264 . S
O761 Mn756 2.095 . S
O761 C770 1.250 . S
O762 Mn757 2.121 . S
O762 C770 1.258 . S
C763 N764 1.326 . S
C763 C767 1.460 . S
C763 H769 0.929 . S
N764 Mn757 2.257 . S
N764 C763 1.326 . S
N764 C768 1.362 . S
C765 C766 1.258 . S
C765 C768 1.431 . S
C765 C785 1.449 . S
C766 C765 1.258 . S
C766 C767 1.477 . S
C766 H786 0.931 . S
C767 C763 1.460 . S
C767 C766 1.477 . S
C767 H787 0.930 . S
C768 N764 1.362 . S
C768 C765 1.431 . S
C768 C778 1.476 . S
H769 C763 0.929 . S
C770 O761 1.250 . S
C770 O762 1.258 . S
O771 Mn756 2.162 . S
O771 C759 1.281 . S
O772 Mn756 2.297 . S
O772 C759 1.236 . S
N773 Mn757 2.282 . S
N773 C774 1.328 . S
N773 C778 1.318 . S
C774 N773 1.328 . S
C774 C775 1.457 . S
C774 H779 0.929 . S
C775 C774 1.457 . S
C775 C776 1.291 . S
C775 H788 0.931 . S
C776 C775 1.291 . S
C776 C777 1.373 . S
C776 H789 0.929 . S
C777 C776 1.373 . S
C777 C778 1.396 . S
C777 C784 1.403 . S
C778 C768 1.476 . S
C778 N773 1.318 . S
C778 C777 1.396 . S
H779 C774 0.929 . S
O780 Mn756 2.385 . S
O780 C758 1.234 . S
O781 Mn756 2.209 . S
O781 Mn757 2.215 . S
O781 C758 1.283 . S
O782 Mn756 2.094 . S
O782 C760 1.240 . S
O783 Mn757 2.117 . S
O783 C760 1.264 . S
C784 C777 1.403 . S
C784 C785 1.399 . S
C784 H790 0.929 . S
C785 C765 1.449 . S
C785 C784 1.399 . S
C785 H791 0.930 . S
H786 C766 0.931 . S
H787 C767 0.930 . S
H788 C775 0.931 . S
H789 C776 0.929 . S
H790 C784 0.929 . S
H791 C785 0.930 . S
Mn792 O797 2.095 . S
Mn792 O807 2.162 . S
Mn792 O808 2.297 . S
Mn792 O816 2.385 . S
Mn792 O817 2.209 . S
Mn792 O818 2.094 . S
Mn793 O798 2.121 . S
Mn793 N800 2.257 . S
Mn793 N809 2.282 . S
Mn793 O817 2.215 . S
Mn793 O819 2.117 . S
C794 O816 1.234 . S
C794 O817 1.283 . S
C795 O807 1.281 . S
C795 O808 1.236 . S
C796 O818 1.240 . S
C796 O819 1.264 . S
O797 Mn792 2.095 . S
O797 C806 1.250 . S
O798 Mn793 2.121 . S
O798 C806 1.258 . S
C799 N800 1.326 . S
C799 C803 1.460 . S
C799 H805 0.929 . S
N800 Mn793 2.257 . S
N800 C799 1.326 . S
N800 C804 1.362 . S
C801 C802 1.258 . S
C801 C804 1.431 . S
C801 C821 1.449 . S
C802 C801 1.258 . S
C802 C803 1.477 . S
C802 H822 0.931 . S
C803 C799 1.460 . S
C803 C802 1.477 . S
C803 H823 0.930 . S
C804 N800 1.362 . S
C804 C801 1.431 . S
C804 C814 1.476 . S
H805 C799 0.929 . S
C806 O797 1.250 . S
C806 O798 1.258 . S
O807 Mn792 2.162 . S
O807 C795 1.281 . S
O808 Mn792 2.297 . S
O808 C795 1.236 . S
N809 Mn793 2.282 . S
N809 C810 1.328 . S
N809 C814 1.318 . S
C810 N809 1.328 . S
C810 C811 1.457 . S
C810 H815 0.929 . S
C811 C810 1.457 . S
C811 C812 1.291 . S
C811 H824 0.931 . S
C812 C811 1.291 . S
C812 C813 1.373 . S
C812 H825 0.929 . S
C813 C812 1.373 . S
C813 C814 1.396 . S
C813 C820 1.403 . S
C814 C804 1.476 . S
C814 N809 1.318 . S
C814 C813 1.396 . S
H815 C810 0.929 . S
O816 Mn792 2.385 . S
O816 C794 1.234 . S
O817 Mn792 2.209 . S
O817 Mn793 2.215 . S
O817 C794 1.283 . S
O818 Mn792 2.094 . S
O818 C796 1.240 . S
O819 Mn793 2.117 . S
O819 C796 1.264 . S
C820 C813 1.403 . S
C820 C821 1.399 . S
C820 H826 0.929 . S
C821 C801 1.449 . S
C821 C820 1.399 . S
C821 H827 0.930 . S
H822 C802 0.931 . S
H823 C803 0.930 . S
H824 C811 0.931 . S
H825 C812 0.929 . S
H826 C820 0.929 . S
H827 C821 0.930 . S
Mn828 O833 2.095 . S
Mn828 O843 2.162 . S
Mn828 O844 2.297 . S
Mn828 O852 2.385 . S
Mn828 O853 2.209 . S
Mn828 O854 2.094 . S
Mn829 O834 2.121 . S
Mn829 N836 2.257 . S
Mn829 N845 2.282 . S
Mn829 O853 2.215 . S
Mn829 O855 2.117 . S
C830 O852 1.234 . S
C830 O853 1.283 . S
C831 O843 1.281 . S
C831 O844 1.236 . S
C832 O854 1.240 . S
C832 O855 1.264 . S
O833 Mn828 2.095 . S
O833 C842 1.250 . S
O834 Mn829 2.121 . S
O834 C842 1.258 . S
C835 N836 1.326 . S
C835 C839 1.460 . S
C835 H841 0.929 . S
N836 Mn829 2.257 . S
N836 C835 1.326 . S
N836 C840 1.362 . S
C837 C838 1.258 . S
C837 C840 1.431 . S
C837 C857 1.449 . S
C838 C837 1.258 . S
C838 C839 1.477 . S
C838 H858 0.931 . S
C839 C835 1.460 . S
C839 C838 1.477 . S
C839 H859 0.930 . S
C840 N836 1.362 . S
C840 C837 1.431 . S
C840 C850 1.476 . S
H841 C835 0.929 . S
C842 O833 1.250 . S
C842 O834 1.258 . S
O843 Mn828 2.162 . S
O843 C831 1.281 . S
O844 Mn828 2.297 . S
O844 C831 1.236 . S
N845 Mn829 2.282 . S
N845 C846 1.328 . S
N845 C850 1.318 . S
C846 N845 1.328 . S
C846 C847 1.457 . S
C846 H851 0.929 . S
C847 C846 1.457 . S
C847 C848 1.291 . S
C847 H860 0.931 . S
C848 C847 1.291 . S
C848 C849 1.373 . S
C848 H861 0.929 . S
C849 C848 1.373 . S
C849 C850 1.396 . S
C849 C856 1.403 . S
C850 C840 1.476 . S
C850 N845 1.318 . S
C850 C849 1.396 . S
H851 C846 0.929 . S
O852 Mn828 2.385 . S
O852 C830 1.234 . S
O853 Mn828 2.209 . S
O853 Mn829 2.215 . S
O853 C830 1.283 . S
O854 Mn828 2.094 . S
O854 C832 1.240 . S
O855 Mn829 2.117 . S
O855 C832 1.264 . S
C856 C849 1.403 . S
C856 C857 1.399 . S
C856 H862 0.929 . S
C857 C837 1.449 . S
C857 C856 1.399 . S
C857 H863 0.930 . S
H858 C838 0.931 . S
H859 C839 0.930 . S
H860 C847 0.931 . S
H861 C848 0.929 . S
H862 C856 0.929 . S
H863 C857 0.930 . S
Mn864 O869 2.095 . S
Mn864 O879 2.162 . S
Mn864 O880 2.297 . S
Mn864 O888 2.385 . S
Mn864 O889 2.209 . S
Mn864 O890 2.094 . S
Mn865 O870 2.121 . S
Mn865 N872 2.257 . S
Mn865 N881 2.282 . S
Mn865 O889 2.215 . S
Mn865 O891 2.117 . S
C866 O888 1.234 . S
C866 O889 1.283 . S
C867 O879 1.281 . S
C867 O880 1.236 . S
C868 O890 1.240 . S
C868 O891 1.264 . S
O869 Mn864 2.095 . S
O869 C878 1.250 . S
O870 Mn865 2.121 . S
O870 C878 1.258 . S
C871 N872 1.326 . S
C871 C875 1.460 . S
C871 H877 0.929 . S
N872 Mn865 2.257 . S
N872 C871 1.326 . S
N872 C876 1.362 . S
C873 C874 1.258 . S
C873 C876 1.431 . S
C873 C893 1.449 . S
C874 C873 1.258 . S
C874 C875 1.477 . S
C874 H894 0.931 . S
C875 C871 1.460 . S
C875 C874 1.477 . S
C875 H895 0.930 . S
C876 N872 1.362 . S
C876 C873 1.431 . S
C876 C886 1.476 . S
H877 C871 0.929 . S
C878 O869 1.250 . S
C878 O870 1.258 . S
O879 Mn864 2.162 . S
O879 C867 1.281 . S
O880 Mn864 2.297 . S
O880 C867 1.236 . S
N881 Mn865 2.282 . S
N881 C882 1.328 . S
N881 C886 1.318 . S
C882 N881 1.328 . S
C882 C883 1.457 . S
C882 H887 0.929 . S
C883 C882 1.457 . S
C883 C884 1.291 . S
C883 H896 0.931 . S
C884 C883 1.291 . S
C884 C885 1.373 . S
C884 H897 0.929 . S
C885 C884 1.373 . S
C885 C886 1.396 . S
C885 C892 1.403 . S
C886 C876 1.476 . S
C886 N881 1.318 . S
C886 C885 1.396 . S
H887 C882 0.929 . S
O888 Mn864 2.385 . S
O888 C866 1.234 . S
O889 Mn864 2.209 . S
O889 Mn865 2.215 . S
O889 C866 1.283 . S
O890 Mn864 2.094 . S
O890 C868 1.240 . S
O891 Mn865 2.117 . S
O891 C868 1.264 . S
C892 C885 1.403 . S
C892 C893 1.399 . S
C892 H898 0.929 . S
C893 C873 1.449 . S
C893 C892 1.399 . S
C893 H899 0.930 . S
H894 C874 0.931 . S
H895 C875 0.930 . S
H896 C883 0.931 . S
H897 C884 0.929 . S
H898 C892 0.929 . S
H899 C893 0.930 . S
Mn900 O905 2.095 . S
Mn900 O915 2.162 . S
Mn900 O916 2.297 . S
Mn900 O924 2.385 . S
Mn900 O925 2.209 . S
Mn900 O926 2.094 . S
Mn901 O906 2.121 . S
Mn901 N908 2.257 . S
Mn901 N917 2.282 . S
Mn901 O925 2.215 . S
Mn901 O927 2.117 . S
C902 O924 1.234 . S
C902 O925 1.283 . S
C903 O915 1.281 . S
C903 O916 1.236 . S
C904 O926 1.240 . S
C904 O927 1.264 . S
O905 Mn900 2.095 . S
O905 C914 1.250 . S
O906 Mn901 2.121 . S
O906 C914 1.258 . S
C907 N908 1.326 . S
C907 C911 1.460 . S
C907 H913 0.929 . S
N908 Mn901 2.257 . S
N908 C907 1.326 . S
N908 C912 1.362 . S
C909 C910 1.258 . S
C909 C912 1.431 . S
C909 C929 1.449 . S
C910 C909 1.258 . S
C910 C911 1.477 . S
C910 H930 0.931 . S
C911 C907 1.460 . S
C911 C910 1.477 . S
C911 H931 0.930 . S
C912 N908 1.362 . S
C912 C909 1.431 . S
C912 C922 1.476 . S
H913 C907 0.929 . S
C914 O905 1.250 . S
C914 O906 1.258 . S
O915 Mn900 2.162 . S
O915 C903 1.281 . S
O916 Mn900 2.297 . S
O916 C903 1.236 . S
N917 Mn901 2.282 . S
N917 C918 1.328 . S
N917 C922 1.318 . S
C918 N917 1.328 . S
C918 C919 1.457 . S
C918 H923 0.929 . S
C919 C918 1.457 . S
C919 C920 1.291 . S
C919 H932 0.931 . S
C920 C919 1.291 . S
C920 C921 1.373 . S
C920 H933 0.929 . S
C921 C920 1.373 . S
C921 C922 1.396 . S
C921 C928 1.403 . S
C922 C912 1.476 . S
C922 N917 1.318 . S
C922 C921 1.396 . S
H923 C918 0.929 . S
O924 Mn900 2.385 . S
O924 C902 1.234 . S
O925 Mn900 2.209 . S
O925 Mn901 2.215 . S
O925 C902 1.283 . S
O926 Mn900 2.094 . S
O926 C904 1.240 . S
O927 Mn901 2.117 . S
O927 C904 1.264 . S
C928 C921 1.403 . S
C928 C929 1.399 . S
C928 H934 0.929 . S
C929 C909 1.449 . S
C929 C928 1.399 . S
C929 H935 0.930 . S
H930 C910 0.931 . S
H931 C911 0.930 . S
H932 C919 0.931 . S
H933 C920 0.929 . S
H934 C928 0.929 . S
H935 C929 0.930 . S
Mn936 O941 2.095 . S
Mn936 O951 2.162 . S
Mn936 O952 2.297 . S
Mn936 O960 2.385 . S
Mn936 O961 2.209 . S
Mn936 O962 2.094 . S
Mn937 O942 2.121 . S
Mn937 N944 2.257 . S
Mn937 N953 2.282 . S
Mn937 O961 2.215 . S
Mn937 O963 2.117 . S
C938 O960 1.234 . S
C938 O961 1.283 . S
C939 O951 1.281 . S
C939 O952 1.236 . S
C940 O962 1.240 . S
C940 O963 1.264 . S
O941 Mn936 2.095 . S
O941 C950 1.250 . S
O942 Mn937 2.121 . S
O942 C950 1.258 . S
C943 N944 1.326 . S
C943 C947 1.460 . S
C943 H949 0.929 . S
N944 Mn937 2.257 . S
N944 C943 1.326 . S
N944 C948 1.362 . S
C945 C946 1.258 . S
C945 C948 1.431 . S
C945 C965 1.449 . S
C946 C945 1.258 . S
C946 C947 1.477 . S
C946 H966 0.931 . S
C947 C943 1.460 . S
C947 C946 1.477 . S
C947 H967 0.930 . S
C948 N944 1.362 . S
C948 C945 1.431 . S
C948 C958 1.476 . S
H949 C943 0.929 . S
C950 O941 1.250 . S
C950 O942 1.258 . S
O951 Mn936 2.162 . S
O951 C939 1.281 . S
O952 Mn936 2.297 . S
O952 C939 1.236 . S
N953 Mn937 2.282 . S
N953 C954 1.328 . S
N953 C958 1.318 . S
C954 N953 1.328 . S
C954 C955 1.457 . S
C954 H959 0.929 . S
C955 C954 1.457 . S
C955 C956 1.291 . S
C955 H968 0.931 . S
C956 C955 1.291 . S
C956 C957 1.373 . S
C956 H969 0.929 . S
C957 C956 1.373 . S
C957 C958 1.396 . S
C957 C964 1.403 . S
C958 C948 1.476 . S
C958 N953 1.318 . S
C958 C957 1.396 . S
H959 C954 0.929 . S
O960 Mn936 2.385 . S
O960 C938 1.234 . S
O961 Mn936 2.209 . S
O961 Mn937 2.215 . S
O961 C938 1.283 . S
O962 Mn936 2.094 . S
O962 C940 1.240 . S
O963 Mn937 2.117 . S
O963 C940 1.264 . S
C964 C957 1.403 . S
C964 C965 1.399 . S
C964 H970 0.929 . S
C965 C945 1.449 . S
C965 C964 1.399 . S
C965 H971 0.930 . S
H966 C946 0.931 . S
H967 C947 0.930 . S
H968 C955 0.931 . S
H969 C956 0.929 . S
H970 C964 0.929 . S
H971 C965 0.930 . S
Mn972 O977 2.095 . S
Mn972 O987 2.162 . S
Mn972 O988 2.297 . S
Mn972 O996 2.385 . S
Mn972 O997 2.209 . S
Mn972 O998 2.094 . S
Mn973 O978 2.121 . S
Mn973 N980 2.257 . S
Mn973 N989 2.282 . S
Mn973 O997 2.215 . S
Mn973 O999 2.117 . S
C974 O996 1.234 . S
C974 O997 1.283 . S
C975 O987 1.281 . S
C975 O988 1.236 . S
C976 O998 1.240 . S
C976 O999 1.264 . S
O977 Mn972 2.095 . S
O977 C986 1.250 . S
O978 Mn973 2.121 . S
O978 C986 1.258 . S
C979 N980 1.326 . S
C979 C983 1.460 . S
C979 H985 0.929 . S
N980 Mn973 2.257 . S
N980 C979 1.326 . S
N980 C984 1.362 . S
C981 C982 1.258 . S
C981 C984 1.431 . S
C981 C1001 1.449 . S
C982 C981 1.258 . S
C982 C983 1.477 . S
C982 H1002 0.931 . S
C983 C979 1.460 . S
C983 C982 1.477 . S
C983 H1003 0.930 . S
C984 N980 1.362 . S
C984 C981 1.431 . S
C984 C994 1.476 . S
H985 C979 0.929 . S
C986 O977 1.250 . S
C986 O978 1.258 . S
O987 Mn972 2.162 . S
O987 C975 1.281 . S
O988 Mn972 2.297 . S
O988 C975 1.236 . S
N989 Mn973 2.282 . S
N989 C990 1.328 . S
N989 C994 1.318 . S
C990 N989 1.328 . S
C990 C991 1.457 . S
C990 H995 0.929 . S
C991 C990 1.457 . S
C991 C992 1.291 . S
C991 H1004 0.931 . S
C992 C991 1.291 . S
C992 C993 1.373 . S
C992 H1005 0.929 . S
C993 C992 1.373 . S
C993 C994 1.396 . S
C993 C1000 1.403 . S
C994 C984 1.476 . S
C994 N989 1.318 . S
C994 C993 1.396 . S
H995 C990 0.929 . S
O996 Mn972 2.385 . S
O996 C974 1.234 . S
O997 Mn972 2.209 . S
O997 Mn973 2.215 . S
O997 C974 1.283 . S
O998 Mn972 2.094 . S
O998 C976 1.240 . S
O999 Mn973 2.117 . S
O999 C976 1.264 . S
C1000 C993 1.403 . S
C1000 C1001 1.399 . S
C1000 H1006 0.929 . S
C1001 C981 1.449 . S
C1001 C1000 1.399 . S
C1001 H1007 0.930 . S
H1002 C982 0.931 . S
H1003 C983 0.930 . S
H1004 C991 0.931 . S
H1005 C992 0.929 . S
H1006 C1000 0.929 . S
H1007 C1001 0.930 . S
Mn1008 O1013 2.095 . S
Mn1008 O1023 2.162 . S
Mn1008 O1024 2.297 . S
Mn1008 O1032 2.385 . S
Mn1008 O1033 2.209 . S
Mn1008 O1034 2.094 . S
Mn1009 O1014 2.121 . S
Mn1009 N1016 2.257 . S
Mn1009 N1025 2.282 . S
Mn1009 O1033 2.215 . S
Mn1009 O1035 2.117 . S
C1010 O1032 1.234 . S
C1010 O1033 1.283 . S
C1011 O1023 1.281 . S
C1011 O1024 1.236 . S
C1012 O1034 1.240 . S
C1012 O1035 1.264 . S
O1013 Mn1008 2.095 . S
O1013 C1022 1.250 . S
O1014 Mn1009 2.121 . S
O1014 C1022 1.258 . S
C1015 N1016 1.326 . S
C1015 C1019 1.460 . S
C1015 H1021 0.929 . S
N1016 Mn1009 2.257 . S
N1016 C1015 1.326 . S
N1016 C1020 1.362 . S
C1017 C1018 1.258 . S
C1017 C1020 1.431 . S
C1017 C1037 1.449 . S
C1018 C1017 1.258 . S
C1018 C1019 1.477 . S
C1018 H1038 0.931 . S
C1019 C1015 1.460 . S
C1019 C1018 1.477 . S
C1019 H1039 0.930 . S
C1020 N1016 1.362 . S
C1020 C1017 1.431 . S
C1020 C1030 1.476 . S
H1021 C1015 0.929 . S
C1022 O1013 1.250 . S
C1022 O1014 1.258 . S
O1023 Mn1008 2.162 . S
O1023 C1011 1.281 . S
O1024 Mn1008 2.297 . S
O1024 C1011 1.236 . S
N1025 Mn1009 2.282 . S
N1025 C1026 1.328 . S
N1025 C1030 1.318 . S
C1026 N1025 1.328 . S
C1026 C1027 1.457 . S
C1026 H1031 0.929 . S
C1027 C1026 1.457 . S
C1027 C1028 1.291 . S
C1027 H1040 0.931 . S
C1028 C1027 1.291 . S
C1028 C1029 1.373 . S
C1028 H1041 0.929 . S
C1029 C1028 1.373 . S
C1029 C1030 1.396 . S
C1029 C1036 1.403 . S
C1030 C1020 1.476 . S
C1030 N1025 1.318 . S
C1030 C1029 1.396 . S
H1031 C1026 0.929 . S
O1032 Mn1008 2.385 . S
O1032 C1010 1.234 . S
O1033 Mn1008 2.209 . S
O1033 Mn1009 2.215 . S
O1033 C1010 1.283 . S
O1034 Mn1008 2.094 . S
O1034 C1012 1.240 . S
O1035 Mn1009 2.117 . S
O1035 C1012 1.264 . S
C1036 C1029 1.403 . S
C1036 C1037 1.399 . S
C1036 H1042 0.929 . S
C1037 C1017 1.449 . S
C1037 C1036 1.399 . S
C1037 H1043 0.930 . S
H1038 C1018 0.931 . S
H1039 C1019 0.930 . S
H1040 C1027 0.931 . S
H1041 C1028 0.929 . S
H1042 C1036 0.929 . S
H1043 C1037 0.930 . S
Mn1044 O1049 2.095 . S
Mn1044 O1059 2.162 . S
Mn1044 O1060 2.297 . S
Mn1044 O1068 2.385 . S
Mn1044 O1069 2.209 . S
Mn1044 O1070 2.094 . S
Mn1045 O1050 2.121 . S
Mn1045 N1052 2.257 . S
Mn1045 N1061 2.282 . S
Mn1045 O1069 2.215 . S
Mn1045 O1071 2.117 . S
C1046 O1068 1.234 . S
C1046 O1069 1.283 . S
C1047 O1059 1.281 . S
C1047 O1060 1.236 . S
C1048 O1070 1.240 . S
C1048 O1071 1.264 . S
O1049 Mn1044 2.095 . S
O1049 C1058 1.250 . S
O1050 Mn1045 2.121 . S
O1050 C1058 1.258 . S
C1051 N1052 1.326 . S
C1051 C1055 1.460 . S
C1051 H1057 0.929 . S
N1052 Mn1045 2.257 . S
N1052 C1051 1.326 . S
N1052 C1056 1.362 . S
C1053 C1054 1.258 . S
C1053 C1056 1.431 . S
C1053 C1073 1.449 . S
C1054 C1053 1.258 . S
C1054 C1055 1.477 . S
C1054 H1074 0.931 . S
C1055 C1051 1.460 . S
C1055 C1054 1.477 . S
C1055 H1075 0.930 . S
C1056 N1052 1.362 . S
C1056 C1053 1.431 . S
C1056 C1066 1.476 . S
H1057 C1051 0.929 . S
C1058 O1049 1.250 . S
C1058 O1050 1.258 . S
O1059 Mn1044 2.162 . S
O1059 C1047 1.281 . S
O1060 Mn1044 2.297 . S
O1060 C1047 1.236 . S
N1061 Mn1045 2.282 . S
N1061 C1062 1.328 . S
N1061 C1066 1.318 . S
C1062 N1061 1.328 . S
C1062 C1063 1.457 . S
C1062 H1067 0.929 . S
C1063 C1062 1.457 . S
C1063 C1064 1.291 . S
C1063 H1076 0.931 . S
C1064 C1063 1.291 . S
C1064 C1065 1.373 . S
C1064 H1077 0.929 . S
C1065 C1064 1.373 . S
C1065 C1066 1.396 . S
C1065 C1072 1.403 . S
C1066 C1056 1.476 . S
C1066 N1061 1.318 . S
C1066 C1065 1.396 . S
H1067 C1062 0.929 . S
O1068 Mn1044 2.385 . S
O1068 C1046 1.234 . S
O1069 Mn1044 2.209 . S
O1069 Mn1045 2.215 . S
O1069 C1046 1.283 . S
O1070 Mn1044 2.094 . S
O1070 C1048 1.240 . S
O1071 Mn1045 2.117 . S
O1071 C1048 1.264 . S
C1072 C1065 1.403 . S
C1072 C1073 1.399 . S
C1072 H1078 0.929 . S
C1073 C1053 1.449 . S
C1073 C1072 1.399 . S
C1073 H1079 0.930 . S
H1074 C1054 0.931 . S
H1075 C1055 0.930 . S
H1076 C1063 0.931 . S
H1077 C1064 0.929 . S
H1078 C1072 0.929 . S
H1079 C1073 0.930 . S
Mn1080 O1085 2.095 . S
Mn1080 O1095 2.162 . S
Mn1080 O1096 2.297 . S
Mn1080 O1104 2.385 . S
Mn1080 O1105 2.209 . S
Mn1080 O1106 2.094 . S
Mn1081 O1086 2.121 . S
Mn1081 N1088 2.257 . S
Mn1081 N1097 2.282 . S
Mn1081 O1105 2.215 . S
Mn1081 O1107 2.117 . S
C1082 O1104 1.234 . S
C1082 O1105 1.283 . S
C1083 O1095 1.281 . S
C1083 O1096 1.236 . S
C1084 O1106 1.240 . S
C1084 O1107 1.264 . S
O1085 Mn1080 2.095 . S
O1085 C1094 1.250 . S
O1086 Mn1081 2.121 . S
O1086 C1094 1.258 . S
C1087 N1088 1.326 . S
C1087 C1091 1.460 . S
C1087 H1093 0.929 . S
N1088 Mn1081 2.257 . S
N1088 C1087 1.326 . S
N1088 C1092 1.362 . S
C1089 C1090 1.258 . S
C1089 C1092 1.431 . S
C1089 C1109 1.449 . S
C1090 C1089 1.258 . S
C1090 C1091 1.477 . S
C1090 H1110 0.931 . S
C1091 C1087 1.460 . S
C1091 C1090 1.477 . S
C1091 H1111 0.930 . S
C1092 N1088 1.362 . S
C1092 C1089 1.431 . S
C1092 C1102 1.476 . S
H1093 C1087 0.929 . S
C1094 O1085 1.250 . S
C1094 O1086 1.258 . S
O1095 Mn1080 2.162 . S
O1095 C1083 1.281 . S
O1096 Mn1080 2.297 . S
O1096 C1083 1.236 . S
N1097 Mn1081 2.282 . S
N1097 C1098 1.328 . S
N1097 C1102 1.318 . S
C1098 N1097 1.328 . S
C1098 C1099 1.457 . S
C1098 H1103 0.929 . S
C1099 C1098 1.457 . S
C1099 C1100 1.291 . S
C1099 H1112 0.931 . S
C1100 C1099 1.291 . S
C1100 C1101 1.373 . S
C1100 H1113 0.929 . S
C1101 C1100 1.373 . S
C1101 C1102 1.396 . S
C1101 C1108 1.403 . S
C1102 C1092 1.476 . S
C1102 N1097 1.318 . S
C1102 C1101 1.396 . S
H1103 C1098 0.929 . S
O1104 Mn1080 2.385 . S
O1104 C1082 1.234 . S
O1105 Mn1080 2.209 . S
O1105 Mn1081 2.215 . S
O1105 C1082 1.283 . S
O1106 Mn1080 2.094 . S
O1106 C1084 1.240 . S
O1107 Mn1081 2.117 . S
O1107 C1084 1.264 . S
C1108 C1101 1.403 . S
C1108 C1109 1.399 . S
C1108 H1114 0.929 . S
C1109 C1089 1.449 . S
C1109 C1108 1.399 . S
C1109 H1115 0.930 . S
H1110 C1090 0.931 . S
H1111 C1091 0.930 . S
H1112 C1099 0.931 . S
H1113 C1100 0.929 . S
H1114 C1108 0.929 . S
H1115 C1109 0.930 . S
Mn1116 O1121 2.095 . S
Mn1116 O1131 2.162 . S
Mn1116 O1132 2.297 . S
Mn1116 O1140 2.385 . S
Mn1116 O1141 2.209 . S
Mn1116 O1142 2.094 . S
Mn1117 O1122 2.121 . S
Mn1117 N1124 2.257 . S
Mn1117 N1133 2.282 . S
Mn1117 O1141 2.215 . S
Mn1117 O1143 2.117 . S
C1118 O1140 1.234 . S
C1118 O1141 1.283 . S
C1119 O1131 1.281 . S
C1119 O1132 1.236 . S
C1120 O1142 1.240 . S
C1120 O1143 1.264 . S
O1121 Mn1116 2.095 . S
O1121 C1130 1.250 . S
O1122 Mn1117 2.121 . S
O1122 C1130 1.258 . S
C1123 N1124 1.326 . S
C1123 C1127 1.460 . S
C1123 H1129 0.929 . S
N1124 Mn1117 2.257 . S
N1124 C1123 1.326 . S
N1124 C1128 1.362 . S
C1125 C1126 1.258 . S
C1125 C1128 1.431 . S
C1125 C1145 1.449 . S
C1126 C1125 1.258 . S
C1126 C1127 1.477 . S
C1126 H1146 0.931 . S
C1127 C1123 1.460 . S
C1127 C1126 1.477 . S
C1127 H1147 0.930 . S
C1128 N1124 1.362 . S
C1128 C1125 1.431 . S
C1128 C1138 1.476 . S
H1129 C1123 0.929 . S
C1130 O1121 1.250 . S
C1130 O1122 1.258 . S
O1131 Mn1116 2.162 . S
O1131 C1119 1.281 . S
O1132 Mn1116 2.297 . S
O1132 C1119 1.236 . S
N1133 Mn1117 2.282 . S
N1133 C1134 1.328 . S
N1133 C1138 1.318 . S
C1134 N1133 1.328 . S
C1134 C1135 1.457 . S
C1134 H1139 0.929 . S
C1135 C1134 1.457 . S
C1135 C1136 1.291 . S
C1135 H1148 0.931 . S
C1136 C1135 1.291 . S
C1136 C1137 1.373 . S
C1136 H1149 0.929 . S
C1137 C1136 1.373 . S
C1137 C1138 1.396 . S
C1137 C1144 1.403 . S
C1138 C1128 1.476 . S
C1138 N1133 1.318 . S
C1138 C1137 1.396 . S
H1139 C1134 0.929 . S
O1140 Mn1116 2.385 . S
O1140 C1118 1.234 . S
O1141 Mn1116 2.209 . S
O1141 Mn1117 2.215 . S
O1141 C1118 1.283 . S
O1142 Mn1116 2.094 . S
O1142 C1120 1.240 . S
O1143 Mn1117 2.117 . S
O1143 C1120 1.264 . S
C1144 C1137 1.403 . S
C1144 C1145 1.399 . S
C1144 H1150 0.929 . S
C1145 C1125 1.449 . S
C1145 C1144 1.399 . S
C1145 H1151 0.930 . S
H1146 C1126 0.931 . S
H1147 C1127 0.930 . S
H1148 C1135 0.931 . S
H1149 C1136 0.929 . S
H1150 C1144 0.929 . S
H1151 C1145 0.930 . S
Mn1152 O1157 2.095 . S
Mn1152 O1167 2.162 . S
Mn1152 O1168 2.297 . S
Mn1152 O1176 2.385 . S
Mn1152 O1177 2.209 . S
Mn1152 O1178 2.094 . S
Mn1153 O1158 2.121 . S
Mn1153 N1160 2.257 . S
Mn1153 N1169 2.282 . S
Mn1153 O1177 2.215 . S
Mn1153 O1179 2.117 . S
C1154 O1176 1.234 . S
C1154 O1177 1.283 . S
C1155 O1167 1.281 . S
C1155 O1168 1.236 . S
C1156 O1178 1.240 . S
C1156 O1179 1.264 . S
O1157 Mn1152 2.095 . S
O1157 C1166 1.250 . S
O1158 Mn1153 2.121 . S
O1158 C1166 1.258 . S
C1159 N1160 1.326 . S
C1159 C1163 1.460 . S
C1159 H1165 0.929 . S
N1160 Mn1153 2.257 . S
N1160 C1159 1.326 . S
N1160 C1164 1.362 . S
C1161 C1162 1.258 . S
C1161 C1164 1.431 . S
C1161 C1181 1.449 . S
C1162 C1161 1.258 . S
C1162 C1163 1.477 . S
C1162 H1182 0.931 . S
C1163 C1159 1.460 . S
C1163 C1162 1.477 . S
C1163 H1183 0.930 . S
C1164 N1160 1.362 . S
C1164 C1161 1.431 . S
C1164 C1174 1.476 . S
H1165 C1159 0.929 . S
C1166 O1157 1.250 . S
C1166 O1158 1.258 . S
O1167 Mn1152 2.162 . S
O1167 C1155 1.281 . S
O1168 Mn1152 2.297 . S
O1168 C1155 1.236 . S
N1169 Mn1153 2.282 . S
N1169 C1170 1.328 . S
N1169 C1174 1.318 . S
C1170 N1169 1.328 . S
C1170 C1171 1.457 . S
C1170 H1175 0.929 . S
C1171 C1170 1.457 . S
C1171 C1172 1.291 . S
C1171 H1184 0.931 . S
C1172 C1171 1.291 . S
C1172 C1173 1.373 . S
C1172 H1185 0.929 . S
C1173 C1172 1.373 . S
C1173 C1174 1.396 . S
C1173 C1180 1.403 . S
C1174 C1164 1.476 . S
C1174 N1169 1.318 . S
C1174 C1173 1.396 . S
H1175 C1170 0.929 . S
O1176 Mn1152 2.385 . S
O1176 C1154 1.234 . S
O1177 Mn1152 2.209 . S
O1177 Mn1153 2.215 . S
O1177 C1154 1.283 . S
O1178 Mn1152 2.094 . S
O1178 C1156 1.240 . S
O1179 Mn1153 2.117 . S
O1179 C1156 1.264 . S
C1180 C1173 1.403 . S
C1180 C1181 1.399 . S
C1180 H1186 0.929 . S
C1181 C1161 1.449 . S
C1181 C1180 1.399 . S
C1181 H1187 0.930 . S
H1182 C1162 0.931 . S
H1183 C1163 0.930 . S
H1184 C1171 0.931 . S
H1185 C1172 0.929 . S
H1186 C1180 0.929 . S
H1187 C1181 0.930 . S
Mn1188 O1193 2.095 . S
Mn1188 O1203 2.162 . S
Mn1188 O1204 2.297 . S
Mn1188 O1212 2.385 . S
Mn1188 O1213 2.209 . S
Mn1188 O1214 2.094 . S
Mn1189 O1194 2.121 . S
Mn1189 N1196 2.257 . S
Mn1189 N1205 2.282 . S
Mn1189 O1213 2.215 . S
Mn1189 O1215 2.117 . S
C1190 O1212 1.234 . S
C1190 O1213 1.283 . S
C1191 O1203 1.281 . S
C1191 O1204 1.236 . S
C1192 O1214 1.240 . S
C1192 O1215 1.264 . S
O1193 Mn1188 2.095 . S
O1193 C1202 1.250 . S
O1194 Mn1189 2.121 . S
O1194 C1202 1.258 . S
C1195 N1196 1.326 . S
C1195 C1199 1.460 . S
C1195 H1201 0.929 . S
N1196 Mn1189 2.257 . S
N1196 C1195 1.326 . S
N1196 C1200 1.362 . S
C1197 C1198 1.258 . S
C1197 C1200 1.431 . S
C1197 C1217 1.449 . S
C1198 C1197 1.258 . S
C1198 C1199 1.477 . S
C1198 H1218 0.931 . S
C1199 C1195 1.460 . S
C1199 C1198 1.477 . S
C1199 H1219 0.930 . S
C1200 N1196 1.362 . S
C1200 C1197 1.431 . S
C1200 C1210 1.476 . S
H1201 C1195 0.929 . S
C1202 O1193 1.250 . S
C1202 O1194 1.258 . S
O1203 Mn1188 2.162 . S
O1203 C1191 1.281 . S
O1204 Mn1188 2.297 . S
O1204 C1191 1.236 . S
N1205 Mn1189 2.282 . S
N1205 C1206 1.328 . S
N1205 C1210 1.318 . S
C1206 N1205 1.328 . S
C1206 C1207 1.457 . S
C1206 H1211 0.929 . S
C1207 C1206 1.457 . S
C1207 C1208 1.291 . S
C1207 H1220 0.931 . S
C1208 C1207 1.291 . S
C1208 C1209 1.373 . S
C1208 H1221 0.929 . S
C1209 C1208 1.373 . S
C1209 C1210 1.396 . S
C1209 C1216 1.403 . S
C1210 C1200 1.476 . S
C1210 N1205 1.318 . S
C1210 C1209 1.396 . S
H1211 C1206 0.929 . S
O1212 Mn1188 2.385 . S
O1212 C1190 1.234 . S
O1213 Mn1188 2.209 . S
O1213 Mn1189 2.215 . S
O1213 C1190 1.283 . S
O1214 Mn1188 2.094 . S
O1214 C1192 1.240 . S
O1215 Mn1189 2.117 . S
O1215 C1192 1.264 . S
C1216 C1209 1.403 . S
C1216 C1217 1.399 . S
C1216 H1222 0.929 . S
C1217 C1197 1.449 . S
C1217 C1216 1.399 . S
C1217 H1223 0.930 . S
H1218 C1198 0.931 . S
H1219 C1199 0.930 . S
H1220 C1207 0.931 . S
H1221 C1208 0.929 . S
H1222 C1216 0.929 . S
H1223 C1217 0.930 . S
Mn1224 O1229 2.095 . S
Mn1224 O1239 2.162 . S
Mn1224 O1240 2.297 . S
Mn1224 O1248 2.385 . S
Mn1224 O1249 2.209 . S
Mn1224 O1250 2.094 . S
Mn1225 O1230 2.121 . S
Mn1225 N1232 2.257 . S
Mn1225 N1241 2.282 . S
Mn1225 O1249 2.215 . S
Mn1225 O1251 2.117 . S
C1226 O1248 1.234 . S
C1226 O1249 1.283 . S
C1227 O1239 1.281 . S
C1227 O1240 1.236 . S
C1228 O1250 1.240 . S
C1228 O1251 1.264 . S
O1229 Mn1224 2.095 . S
O1229 C1238 1.250 . S
O1230 Mn1225 2.121 . S
O1230 C1238 1.258 . S
C1231 N1232 1.326 . S
C1231 C1235 1.460 . S
C1231 H1237 0.929 . S
N1232 Mn1225 2.257 . S
N1232 C1231 1.326 . S
N1232 C1236 1.362 . S
C1233 C1234 1.258 . S
C1233 C1236 1.431 . S
C1233 C1253 1.449 . S
C1234 C1233 1.258 . S
C1234 C1235 1.477 . S
C1234 H1254 0.931 . S
C1235 C1231 1.460 . S
C1235 C1234 1.477 . S
C1235 H1255 0.930 . S
C1236 N1232 1.362 . S
C1236 C1233 1.431 . S
C1236 C1246 1.476 . S
H1237 C1231 0.929 . S
C1238 O1229 1.250 . S
C1238 O1230 1.258 . S
O1239 Mn1224 2.162 . S
O1239 C1227 1.281 . S
O1240 Mn1224 2.297 . S
O1240 C1227 1.236 . S
N1241 Mn1225 2.282 . S
N1241 C1242 1.328 . S
N1241 C1246 1.318 . S
C1242 N1241 1.328 . S
C1242 C1243 1.457 . S
C1242 H1247 0.929 . S
C1243 C1242 1.457 . S
C1243 C1244 1.291 . S
C1243 H1256 0.931 . S
C1244 C1243 1.291 . S
C1244 C1245 1.373 . S
C1244 H1257 0.929 . S
C1245 C1244 1.373 . S
C1245 C1246 1.396 . S
C1245 C1252 1.403 . S
C1246 C1236 1.476 . S
C1246 N1241 1.318 . S
C1246 C1245 1.396 . S
H1247 C1242 0.929 . S
O1248 Mn1224 2.385 . S
O1248 C1226 1.234 . S
O1249 Mn1224 2.209 . S
O1249 Mn1225 2.215 . S
O1249 C1226 1.283 . S
O1250 Mn1224 2.094 . S
O1250 C1228 1.240 . S
O1251 Mn1225 2.117 . S
O1251 C1228 1.264 . S
C1252 C1245 1.403 . S
C1252 C1253 1.399 . S
C1252 H1258 0.929 . S
C1253 C1233 1.449 . S
C1253 C1252 1.399 . S
C1253 H1259 0.930 . S
H1254 C1234 0.931 . S
H1255 C1235 0.930 . S
H1256 C1243 0.931 . S
H1257 C1244 0.929 . S
H1258 C1252 0.929 . S
H1259 C1253 0.930 . S
Mn1260 O1265 2.095 . S
Mn1260 O1275 2.162 . S
Mn1260 O1276 2.297 . S
Mn1260 O1284 2.385 . S
Mn1260 O1285 2.209 . S
Mn1260 O1286 2.094 . S
Mn1261 O1266 2.121 . S
Mn1261 N1268 2.257 . S
Mn1261 N1277 2.282 . S
Mn1261 O1285 2.215 . S
Mn1261 O1287 2.117 . S
C1262 O1284 1.234 . S
C1262 O1285 1.283 . S
C1263 O1275 1.281 . S
C1263 O1276 1.236 . S
C1264 O1286 1.240 . S
C1264 O1287 1.264 . S
O1265 Mn1260 2.095 . S
O1265 C1274 1.250 . S
O1266 Mn1261 2.121 . S
O1266 C1274 1.258 . S
C1267 N1268 1.326 . S
C1267 C1271 1.460 . S
C1267 H1273 0.929 . S
N1268 Mn1261 2.257 . S
N1268 C1267 1.326 . S
N1268 C1272 1.362 . S
C1269 C1270 1.258 . S
C1269 C1272 1.431 . S
C1269 C1289 1.449 . S
C1270 C1269 1.258 . S
C1270 C1271 1.477 . S
C1270 H1290 0.931 . S
C1271 C1267 1.460 . S
C1271 C1270 1.477 . S
C1271 H1291 0.930 . S
C1272 N1268 1.362 . S
C1272 C1269 1.431 . S
C1272 C1282 1.476 . S
H1273 C1267 0.929 . S
C1274 O1265 1.250 . S
C1274 O1266 1.258 . S
O1275 Mn1260 2.162 . S
O1275 C1263 1.281 . S
O1276 Mn1260 2.297 . S
O1276 C1263 1.236 . S
N1277 Mn1261 2.282 . S
N1277 C1278 1.328 . S
N1277 C1282 1.318 . S
C1278 N1277 1.328 . S
C1278 C1279 1.457 . S
C1278 H1283 0.929 . S
C1279 C1278 1.457 . S
C1279 C1280 1.291 . S
C1279 H1292 0.931 . S
C1280 C1279 1.291 . S
C1280 C1281 1.373 . S
C1280 H1293 0.929 . S
C1281 C1280 1.373 . S
C1281 C1282 1.396 . S
C1281 C1288 1.403 . S
C1282 C1272 1.476 . S
C1282 N1277 1.318 . S
C1282 C1281 1.396 . S
H1283 C1278 0.929 . S
O1284 Mn1260 2.385 . S
O1284 C1262 1.234 . S
O1285 Mn1260 2.209 . S
O1285 Mn1261 2.215 . S
O1285 C1262 1.283 . S
O1286 Mn1260 2.094 . S
O1286 C1264 1.240 . S
O1287 Mn1261 2.117 . S
O1287 C1264 1.264 . S
C1288 C1281 1.403 . S
C1288 C1289 1.399 . S
C1288 H1294 0.929 . S
C1289 C1269 1.449 . S
C1289 C1288 1.399 . S
C1289 H1295 0.930 . S
H1290 C1270 0.931 . S
H1291 C1271 0.930 . S
H1292 C1279 0.931 . S
H1293 C1280 0.929 . S
H1294 C1288 0.929 . S
H1295 C1289 0.930 . S
Mn1296 O1301 2.095 . S
Mn1296 O1311 2.162 . S
Mn1296 O1312 2.297 . S
Mn1296 O1320 2.385 . S
Mn1296 O1321 2.209 . S
Mn1296 O1322 2.094 . S
Mn1297 O1302 2.121 . S
Mn1297 N1304 2.257 . S
Mn1297 N1313 2.282 . S
Mn1297 O1321 2.215 . S
Mn1297 O1323 2.117 . S
C1298 O1320 1.234 . S
C1298 O1321 1.283 . S
C1299 O1311 1.281 . S
C1299 O1312 1.236 . S
C1300 O1322 1.240 . S
C1300 O1323 1.264 . S
O1301 Mn1296 2.095 . S
O1301 C1310 1.250 . S
O1302 Mn1297 2.121 . S
O1302 C1310 1.258 . S
C1303 N1304 1.326 . S
C1303 C1307 1.460 . S
C1303 H1309 0.929 . S
N1304 Mn1297 2.257 . S
N1304 C1303 1.326 . S
N1304 C1308 1.362 . S
C1305 C1306 1.258 . S
C1305 C1308 1.431 . S
C1305 C1325 1.449 . S
C1306 C1305 1.258 . S
C1306 C1307 1.477 . S
C1306 H1326 0.931 . S
C1307 C1303 1.460 . S
C1307 C1306 1.477 . S
C1307 H1327 0.930 . S
C1308 N1304 1.362 . S
C1308 C1305 1.431 . S
C1308 C1318 1.476 . S
H1309 C1303 0.929 . S
C1310 O1301 1.250 . S
C1310 O1302 1.258 . S
O1311 Mn1296 2.162 . S
O1311 C1299 1.281 . S
O1312 Mn1296 2.297 . S
O1312 C1299 1.236 . S
N1313 Mn1297 2.282 . S
N1313 C1314 1.328 . S
N1313 C1318 1.318 . S
C1314 N1313 1.328 . S
C1314 C1315 1.457 . S
C1314 H1319 0.929 . S
C1315 C1314 1.457 . S
C1315 C1316 1.291 . S
C1315 H1328 0.931 . S
C1316 C1315 1.291 . S
C1316 C1317 1.373 . S
C1316 H1329 0.929 . S
C1317 C1316 1.373 . S
C1317 C1318 1.396 . S
C1317 C1324 1.403 . S
C1318 C1308 1.476 . S
C1318 N1313 1.318 . S
C1318 C1317 1.396 . S
H1319 C1314 0.929 . S
O1320 Mn1296 2.385 . S
O1320 C1298 1.234 . S
O1321 Mn1296 2.209 . S
O1321 Mn1297 2.215 . S
O1321 C1298 1.283 . S
O1322 Mn1296 2.094 . S
O1322 C1300 1.240 . S
O1323 Mn1297 2.117 . S
O1323 C1300 1.264 . S
C1324 C1317 1.403 . S
C1324 C1325 1.399 . S
C1324 H1330 0.929 . S
C1325 C1305 1.449 . S
C1325 C1324 1.399 . S
C1325 H1331 0.930 . S
H1326 C1306 0.931 . S
H1327 C1307 0.930 . S
H1328 C1315 0.931 . S
H1329 C1316 0.929 . S
H1330 C1324 0.929 . S
H1331 C1325 0.930 . S
Mn1332 O1337 2.095 . S
Mn1332 O1347 2.162 . S
Mn1332 O1348 2.297 . S
Mn1332 O1356 2.385 . S
Mn1332 O1357 2.209 . S
Mn1332 O1358 2.094 . S
Mn1333 O1338 2.121 . S
Mn1333 N1340 2.257 . S
Mn1333 N1349 2.282 . S
Mn1333 O1357 2.215 . S
Mn1333 O1359 2.117 . S
C1334 O1356 1.234 . S
C1334 O1357 1.283 . S
C1335 O1347 1.281 . S
C1335 O1348 1.236 . S
C1336 O1358 1.240 . S
C1336 O1359 1.264 . S
O1337 Mn1332 2.095 . S
O1337 C1346 1.250 . S
O1338 Mn1333 2.121 . S
O1338 C1346 1.258 . S
C1339 N1340 1.326 . S
C1339 C1343 1.460 . S
C1339 H1345 0.929 . S
N1340 Mn1333 2.257 . S
N1340 C1339 1.326 . S
N1340 C1344 1.362 . S
C1341 C1342 1.258 . S
C1341 C1344 1.431 . S
C1341 C1361 1.449 . S
C1342 C1341 1.258 . S
C1342 C1343 1.477 . S
C1342 H1362 0.931 . S
C1343 C1339 1.460 . S
C1343 C1342 1.477 . S
C1343 H1363 0.930 . S
C1344 N1340 1.362 . S
C1344 C1341 1.431 . S
C1344 C1354 1.476 . S
H1345 C1339 0.929 . S
C1346 O1337 1.250 . S
C1346 O1338 1.258 . S
O1347 Mn1332 2.162 . S
O1347 C1335 1.281 . S
O1348 Mn1332 2.297 . S
O1348 C1335 1.236 . S
N1349 Mn1333 2.282 . S
N1349 C1350 1.328 . S
N1349 C1354 1.318 . S
C1350 N1349 1.328 . S
C1350 C1351 1.457 . S
C1350 H1355 0.929 . S
C1351 C1350 1.457 . S
C1351 C1352 1.291 . S
C1351 H1364 0.931 . S
C1352 C1351 1.291 . S
C1352 C1353 1.373 . S
C1352 H1365 0.929 . S
C1353 C1352 1.373 . S
C1353 C1354 1.396 . S
C1353 C1360 1.403 . S
C1354 C1344 1.476 . S
C1354 N1349 1.318 . S
C1354 C1353 1.396 . S
H1355 C1350 0.929 . S
O1356 Mn1332 2.385 . S
O1356 C1334 1.234 . S
O1357 Mn1332 2.209 . S
O1357 Mn1333 2.215 . S
O1357 C1334 1.283 . S
O1358 Mn1332 2.094 . S
O1358 C1336 1.240 . S
O1359 Mn1333 2.117 . S
O1359 C1336 1.264 . S
C1360 C1353 1.403 . S
C1360 C1361 1.399 . S
C1360 H1366 0.929 . S
C1361 C1341 1.449 . S
C1361 C1360 1.399 . S
C1361 H1367 0.930 . S
H1362 C1342 0.931 . S
H1363 C1343 0.930 . S
H1364 C1351 0.931 . S
H1365 C1352 0.929 . S
H1366 C1360 0.929 . S
H1367 C1361 0.930 . S
Mn1368 O1373 2.095 . S
Mn1368 O1383 2.162 . S
Mn1368 O1384 2.297 . S
Mn1368 O1392 2.385 . S
Mn1368 O1393 2.209 . S
Mn1368 O1394 2.094 . S
Mn1369 O1374 2.121 . S
Mn1369 N1376 2.257 . S
Mn1369 N1385 2.282 . S
Mn1369 O1393 2.215 . S
Mn1369 O1395 2.117 . S
C1370 O1392 1.234 . S
C1370 O1393 1.283 . S
C1371 O1383 1.281 . S
C1371 O1384 1.236 . S
C1372 O1394 1.240 . S
C1372 O1395 1.264 . S
O1373 Mn1368 2.095 . S
O1373 C1382 1.250 . S
O1374 Mn1369 2.121 . S
O1374 C1382 1.258 . S
C1375 N1376 1.326 . S
C1375 C1379 1.460 . S
C1375 H1381 0.929 . S
N1376 Mn1369 2.257 . S
N1376 C1375 1.326 . S
N1376 C1380 1.362 . S
C1377 C1378 1.258 . S
C1377 C1380 1.431 . S
C1377 C1397 1.449 . S
C1378 C1377 1.258 . S
C1378 C1379 1.477 . S
C1378 H1398 0.931 . S
C1379 C1375 1.460 . S
C1379 C1378 1.477 . S
C1379 H1399 0.930 . S
C1380 N1376 1.362 . S
C1380 C1377 1.431 . S
C1380 C1390 1.476 . S
H1381 C1375 0.929 . S
C1382 O1373 1.250 . S
C1382 O1374 1.258 . S
O1383 Mn1368 2.162 . S
O1383 C1371 1.281 . S
O1384 Mn1368 2.297 . S
O1384 C1371 1.236 . S
N1385 Mn1369 2.282 . S
N1385 C1386 1.328 . S
N1385 C1390 1.318 . S
C1386 N1385 1.328 . S
C1386 C1387 1.457 . S
C1386 H1391 0.929 . S
C1387 C1386 1.457 . S
C1387 C1388 1.291 . S
C1387 H1400 0.931 . S
C1388 C1387 1.291 . S
C1388 C1389 1.373 . S
C1388 H1401 0.929 . S
C1389 C1388 1.373 . S
C1389 C1390 1.396 . S
C1389 C1396 1.403 . S
C1390 C1380 1.476 . S
C1390 N1385 1.318 . S
C1390 C1389 1.396 . S
H1391 C1386 0.929 . S
O1392 Mn1368 2.385 . S
O1392 C1370 1.234 . S
O1393 Mn1368 2.209 . S
O1393 Mn1369 2.215 . S
O1393 C1370 1.283 . S
O1394 Mn1368 2.094 . S
O1394 C1372 1.240 . S
O1395 Mn1369 2.117 . S
O1395 C1372 1.264 . S
C1396 C1389 1.403 . S
C1396 C1397 1.399 . S
C1396 H1402 0.929 . S
C1397 C1377 1.449 . S
C1397 C1396 1.399 . S
C1397 H1403 0.930 . S
H1398 C1378 0.931 . S
H1399 C1379 0.930 . S
H1400 C1387 0.931 . S
H1401 C1388 0.929 . S
H1402 C1396 0.929 . S
H1403 C1397 0.930 . S
Mn1404 O1409 2.095 . S
Mn1404 O1419 2.162 . S
Mn1404 O1420 2.297 . S
Mn1404 O1428 2.385 . S
Mn1404 O1429 2.209 . S
Mn1404 O1430 2.094 . S
Mn1405 O1410 2.121 . S
Mn1405 N1412 2.257 . S
Mn1405 N1421 2.282 . S
Mn1405 O1429 2.215 . S
Mn1405 O1431 2.117 . S
C1406 O1428 1.234 . S
C1406 O1429 1.283 . S
C1407 O1419 1.281 . S
C1407 O1420 1.236 . S
C1408 O1430 1.240 . S
C1408 O1431 1.264 . S
O1409 Mn1404 2.095 . S
O1409 C1418 1.250 . S
O1410 Mn1405 2.121 . S
O1410 C1418 1.258 . S
C1411 N1412 1.326 . S
C1411 C1415 1.460 . S
C1411 H1417 0.929 . S
N1412 Mn1405 2.257 . S
N1412 C1411 1.326 . S
N1412 C1416 1.362 . S
C1413 C1414 1.258 . S
C1413 C1416 1.431 . S
C1413 C1433 1.449 . S
C1414 C1413 1.258 . S
C1414 C1415 1.477 . S
C1414 H1434 0.931 . S
C1415 C1411 1.460 . S
C1415 C1414 1.477 . S
C1415 H1435 0.930 . S
C1416 N1412 1.362 . S
C1416 C1413 1.431 . S
C1416 C1426 1.476 . S
H1417 C1411 0.929 . S
C1418 O1409 1.250 . S
C1418 O1410 1.258 . S
O1419 Mn1404 2.162 . S
O1419 C1407 1.281 . S
O1420 Mn1404 2.297 . S
O1420 C1407 1.236 . S
N1421 Mn1405 2.282 . S
N1421 C1422 1.328 . S
N1421 C1426 1.318 . S
C1422 N1421 1.328 . S
C1422 C1423 1.457 . S
C1422 H1427 0.929 . S
C1423 C1422 1.457 . S
C1423 C1424 1.291 . S
C1423 H1436 0.931 . S
C1424 C1423 1.291 . S
C1424 C1425 1.373 . S
C1424 H1437 0.929 . S
C1425 C1424 1.373 . S
C1425 C1426 1.396 . S
C1425 C1432 1.403 . S
C1426 C1416 1.476 . S
C1426 N1421 1.318 . S
C1426 C1425 1.396 . S
H1427 C1422 0.929 . S
O1428 Mn1404 2.385 . S
O1428 C1406 1.234 . S
O1429 Mn1404 2.209 . S
O1429 Mn1405 2.215 . S
O1429 C1406 1.283 . S
O1430 Mn1404 2.094 . S
O1430 C1408 1.240 . S
O1431 Mn1405 2.117 . S
O1431 C1408 1.264 . S
C1432 C1425 1.403 . S
C1432 C1433 1.399 . S
C1432 H1438 0.929 . S
C1433 C1413 1.449 . S
C1433 C1432 1.399 . S
C1433 H1439 0.930 . S
H1434 C1414 0.931 . S
H1435 C1415 0.930 . S
H1436 C1423 0.931 . S
H1437 C1424 0.929 . S
H1438 C1432 0.929 . S
H1439 C1433 0.930 . S
Mn1440 O1445 2.095 . S
Mn1440 O1455 2.162 . S
Mn1440 O1456 2.297 . S
Mn1440 O1464 2.385 . S
Mn1440 O1465 2.209 . S
Mn1440 O1466 2.094 . S
Mn1441 O1446 2.121 . S
Mn1441 N1448 2.257 . S
Mn1441 N1457 2.282 . S
Mn1441 O1465 2.215 . S
Mn1441 O1467 2.117 . S
C1442 O1464 1.234 . S
C1442 O1465 1.283 . S
C1443 O1455 1.281 . S
C1443 O1456 1.236 . S
C1444 O1466 1.240 . S
C1444 O1467 1.264 . S
O1445 Mn1440 2.095 . S
O1445 C1454 1.250 . S
O1446 Mn1441 2.121 . S
O1446 C1454 1.258 . S
C1447 N1448 1.326 . S
C1447 C1451 1.460 . S
C1447 H1453 0.929 . S
N1448 Mn1441 2.257 . S
N1448 C1447 1.326 . S
N1448 C1452 1.362 . S
C1449 C1450 1.258 . S
C1449 C1452 1.431 . S
C1449 C1469 1.449 . S
C1450 C1449 1.258 . S
C1450 C1451 1.477 . S
C1450 H1470 0.931 . S
C1451 C1447 1.460 . S
C1451 C1450 1.477 . S
C1451 H1471 0.930 . S
C1452 N1448 1.362 . S
C1452 C1449 1.431 . S
C1452 C1462 1.476 . S
H1453 C1447 0.929 . S
C1454 O1445 1.250 . S
C1454 O1446 1.258 . S
O1455 Mn1440 2.162 . S
O1455 C1443 1.281 . S
O1456 Mn1440 2.297 . S
O1456 C1443 1.236 . S
N1457 Mn1441 2.282 . S
N1457 C1458 1.328 . S
N1457 C1462 1.318 . S
C1458 N1457 1.328 . S
C1458 C1459 1.457 . S
C1458 H1463 0.929 . S
C1459 C1458 1.457 . S
C1459 C1460 1.291 . S
C1459 H1472 0.931 . S
C1460 C1459 1.291 . S
C1460 C1461 1.373 . S
C1460 H1473 0.929 . S
C1461 C1460 1.373 . S
C1461 C1462 1.396 . S
C1461 C1468 1.403 . S
C1462 C1452 1.476 . S
C1462 N1457 1.318 . S
C1462 C1461 1.396 . S
H1463 C1458 0.929 . S
O1464 Mn1440 2.385 . S
O1464 C1442 1.234 . S
O1465 Mn1440 2.209 . S
O1465 Mn1441 2.215 . S
O1465 C1442 1.283 . S
O1466 Mn1440 2.094 . S
O1466 C1444 1.240 . S
O1467 Mn1441 2.117 . S
O1467 C1444 1.264 . S
C1468 C1461 1.403 . S
C1468 C1469 1.399 . S
C1468 H1474 0.929 . S
C1469 C1449 1.449 . S
C1469 C1468 1.399 . S
C1469 H1475 0.930 . S
H1470 C1450 0.931 . S
H1471 C1451 0.930 . S
H1472 C1459 0.931 . S
H1473 C1460 0.929 . S
H1474 C1468 0.929 . S
H1475 C1469 0.930 . S
Mn1476 O1481 2.095 . S
Mn1476 O1491 2.162 . S
Mn1476 O1492 2.297 . S
Mn1476 O1500 2.385 . S
Mn1476 O1501 2.209 . S
Mn1476 O1502 2.094 . S
Mn1477 O1482 2.121 . S
Mn1477 N1484 2.257 . S
Mn1477 N1493 2.282 . S
Mn1477 O1501 2.215 . S
Mn1477 O1503 2.117 . S
C1478 O1500 1.234 . S
C1478 O1501 1.283 . S
C1479 O1491 1.281 . S
C1479 O1492 1.236 . S
C1480 O1502 1.240 . S
C1480 O1503 1.264 . S
O1481 Mn1476 2.095 . S
O1481 C1490 1.250 . S
O1482 Mn1477 2.121 . S
O1482 C1490 1.258 . S
C1483 N1484 1.326 . S
C1483 C1487 1.460 . S
C1483 H1489 0.929 . S
N1484 Mn1477 2.257 . S
N1484 C1483 1.326 . S
N1484 C1488 1.362 . S
C1485 C1486 1.258 . S
C1485 C1488 1.431 . S
C1485 C1505 1.449 . S
C1486 C1485 1.258 . S
C1486 C1487 1.477 . S
C1486 H1506 0.931 . S
C1487 C1483 1.460 . S
C1487 C1486 1.477 . S
C1487 H1507 0.930 . S
C1488 N1484 1.362 . S
C1488 C1485 1.431 . S
C1488 C1498 1.476 . S
H1489 C1483 0.929 . S
C1490 O1481 1.250 . S
C1490 O1482 1.258 . S
O1491 Mn1476 2.162 . S
O1491 C1479 1.281 . S
O1492 Mn1476 2.297 . S
O1492 C1479 1.236 . S
N1493 Mn1477 2.282 . S
N1493 C1494 1.328 . S
N1493 C1498 1.318 . S
C1494 N1493 1.328 . S
C1494 C1495 1.457 . S
C1494 H1499 0.929 . S
C1495 C1494 1.457 . S
C1495 C1496 1.291 . S
C1495 H1508 0.931 . S
C1496 C1495 1.291 . S
C1496 C1497 1.373 . S
C1496 H1509 0.929 . S
C1497 C1496 1.373 . S
C1497 C1498 1.396 . S
C1497 C1504 1.403 . S
C1498 C1488 1.476 . S
C1498 N1493 1.318 . S
C1498 C1497 1.396 . S
H1499 C1494 0.929 . S
O1500 Mn1476 2.385 . S
O1500 C1478 1.234 . S
O1501 Mn1476 2.209 . S
O1501 Mn1477 2.215 . S
O1501 C1478 1.283 . S
O1502 Mn1476 2.094 . S
O1502 C1480 1.240 . S
O1503 Mn1477 2.117 . S
O1503 C1480 1.264 . S
C1504 C1497 1.403 . S
C1504 C1505 1.399 . S
C1504 H1510 0.929 . S
C1505 C1485 1.449 . S
C1505 C1504 1.399 . S
C1505 H1511 0.930 . S
H1506 C1486 0.931 . S
H1507 C1487 0.930 . S
H1508 C1495 0.931 . S
H1509 C1496 0.929 . S
H1510 C1504 0.929 . S
H1511 C1505 0.930 . S
Mn1512 O1517 2.095 . S
Mn1512 O1527 2.162 . S
Mn1512 O1528 2.297 . S
Mn1512 O1536 2.385 . S
Mn1512 O1537 2.209 . S
Mn1512 O1538 2.094 . S
Mn1513 O1518 2.121 . S
Mn1513 N1520 2.257 . S
Mn1513 N1529 2.282 . S
Mn1513 O1537 2.215 . S
Mn1513 O1539 2.117 . S
C1514 O1536 1.234 . S
C1514 O1537 1.283 . S
C1515 O1527 1.281 . S
C1515 O1528 1.236 . S
C1516 O1538 1.240 . S
C1516 O1539 1.264 . S
O1517 Mn1512 2.095 . S
O1517 C1526 1.250 . S
O1518 Mn1513 2.121 . S
O1518 C1526 1.258 . S
C1519 N1520 1.326 . S
C1519 C1523 1.460 . S
C1519 H1525 0.929 . S
N1520 Mn1513 2.257 . S
N1520 C1519 1.326 . S
N1520 C1524 1.362 . S
C1521 C1522 1.258 . S
C1521 C1524 1.431 . S
C1521 C1541 1.449 . S
C1522 C1521 1.258 . S
C1522 C1523 1.477 . S
C1522 H1542 0.931 . S
C1523 C1519 1.460 . S
C1523 C1522 1.477 . S
C1523 H1543 0.930 . S
C1524 N1520 1.362 . S
C1524 C1521 1.431 . S
C1524 C1534 1.476 . S
H1525 C1519 0.929 . S
C1526 O1517 1.250 . S
C1526 O1518 1.258 . S
O1527 Mn1512 2.162 . S
O1527 C1515 1.281 . S
O1528 Mn1512 2.297 . S
O1528 C1515 1.236 . S
N1529 Mn1513 2.282 . S
N1529 C1530 1.328 . S
N1529 C1534 1.318 . S
C1530 N1529 1.328 . S
C1530 C1531 1.457 . S
C1530 H1535 0.929 . S
C1531 C1530 1.457 . S
C1531 C1532 1.291 . S
C1531 H1544 0.931 . S
C1532 C1531 1.291 . S
C1532 C1533 1.373 . S
C1532 H1545 0.929 . S
C1533 C1532 1.373 . S
C1533 C1534 1.396 . S
C1533 C1540 1.403 . S
C1534 C1524 1.476 . S
C1534 N1529 1.318 . S
C1534 C1533 1.396 . S
H1535 C1530 0.929 . S
O1536 Mn1512 2.385 . S
O1536 C1514 1.234 . S
O1537 Mn1512 2.209 . S
O1537 Mn1513 2.215 . S
O1537 C1514 1.283 . S
O1538 Mn1512 2.094 . S
O1538 C1516 1.240 . S
O1539 Mn1513 2.117 . S
O1539 C1516 1.264 . S
C1540 C1533 1.403 . S
C1540 C1541 1.399 . S
C1540 H1546 0.929 . S
C1541 C1521 1.449 . S
C1541 C1540 1.399 . S
C1541 H1547 0.930 . S
H1542 C1522 0.931 . S
H1543 C1523 0.930 . S
H1544 C1531 0.931 . S
H1545 C1532 0.929 . S
H1546 C1540 0.929 . S
H1547 C1541 0.930 . S
Mn1548 O1553 2.095 . S
Mn1548 O1563 2.162 . S
Mn1548 O1564 2.297 . S
Mn1548 O1572 2.385 . S
Mn1548 O1573 2.209 . S
Mn1548 O1574 2.094 . S
Mn1549 O1554 2.121 . S
Mn1549 N1556 2.257 . S
Mn1549 N1565 2.282 . S
Mn1549 O1573 2.215 . S
Mn1549 O1575 2.117 . S
C1550 O1572 1.234 . S
C1550 O1573 1.283 . S
C1551 O1563 1.281 . S
C1551 O1564 1.236 . S
C1552 O1574 1.240 . S
C1552 O1575 1.264 . S
O1553 Mn1548 2.095 . S
O1553 C1562 1.250 . S
O1554 Mn1549 2.121 . S
O1554 C1562 1.258 . S
C1555 N1556 1.326 . S
C1555 C1559 1.460 . S
C1555 H1561 0.929 . S
N1556 Mn1549 2.257 . S
N1556 C1555 1.326 . S
N1556 C1560 1.362 . S
C1557 C1558 1.258 . S
C1557 C1560 1.431 . S
C1557 C1577 1.449 . S
C1558 C1557 1.258 . S
C1558 C1559 1.477 . S
C1558 H1578 0.931 . S
C1559 C1555 1.460 . S
C1559 C1558 1.477 . S
C1559 H1579 0.930 . S
C1560 N1556 1.362 . S
C1560 C1557 1.431 . S
C1560 C1570 1.476 . S
H1561 C1555 0.929 . S
C1562 O1553 1.250 . S
C1562 O1554 1.258 . S
O1563 Mn1548 2.162 . S
O1563 C1551 1.281 . S
O1564 Mn1548 2.297 . S
O1564 C1551 1.236 . S
N1565 Mn1549 2.282 . S
N1565 C1566 1.328 . S
N1565 C1570 1.318 . S
C1566 N1565 1.328 . S
C1566 C1567 1.457 . S
C1566 H1571 0.929 . S
C1567 C1566 1.457 . S
C1567 C1568 1.291 . S
C1567 H1580 0.931 . S
C1568 C1567 1.291 . S
C1568 C1569 1.373 . S
C1568 H1581 0.929 . S
C1569 C1568 1.373 . S
C1569 C1570 1.396 . S
C1569 C1576 1.403 . S
C1570 C1560 1.476 . S
C1570 N1565 1.318 . S
C1570 C1569 1.396 . S
H1571 C1566 0.929 . S
O1572 Mn1548 2.385 . S
O1572 C1550 1.234 . S
O1573 Mn1548 2.209 . S
O1573 Mn1549 2.215 . S
O1573 C1550 1.283 . S
O1574 Mn1548 2.094 . S
O1574 C1552 1.240 . S
O1575 Mn1549 2.117 . S
O1575 C1552 1.264 . S
C1576 C1569 1.403 . S
C1576 C1577 1.399 . S
C1576 H1582 0.929 . S
C1577 C1557 1.449 . S
C1577 C1576 1.399 . S
C1577 H1583 0.930 . S
H1578 C1558 0.931 . S
H1579 C1559 0.930 . S
H1580 C1567 0.931 . S
H1581 C1568 0.929 . S
H1582 C1576 0.929 . S
H1583 C1577 0.930 . S
Mn1584 O1589 2.095 . S
Mn1584 O1599 2.162 . S
Mn1584 O1600 2.297 . S
Mn1584 O1608 2.385 . S
Mn1584 O1609 2.209 . S
Mn1584 O1610 2.094 . S
Mn1585 O1590 2.121 . S
Mn1585 N1592 2.257 . S
Mn1585 N1601 2.282 . S
Mn1585 O1609 2.215 . S
Mn1585 O1611 2.117 . S
C1586 O1608 1.234 . S
C1586 O1609 1.283 . S
C1587 O1599 1.281 . S
C1587 O1600 1.236 . S
C1588 O1610 1.240 . S
C1588 O1611 1.264 . S
O1589 Mn1584 2.095 . S
O1589 C1598 1.250 . S
O1590 Mn1585 2.121 . S
O1590 C1598 1.258 . S
C1591 N1592 1.326 . S
C1591 C1595 1.460 . S
C1591 H1597 0.929 . S
N1592 Mn1585 2.257 . S
N1592 C1591 1.326 . S
N1592 C1596 1.362 . S
C1593 C1594 1.258 . S
C1593 C1596 1.431 . S
C1593 C1613 1.449 . S
C1594 C1593 1.258 . S
C1594 C1595 1.477 . S
C1594 H1614 0.931 . S
C1595 C1591 1.460 . S
C1595 C1594 1.477 . S
C1595 H1615 0.930 . S
C1596 N1592 1.362 . S
C1596 C1593 1.431 . S
C1596 C1606 1.476 . S
H1597 C1591 0.929 . S
C1598 O1589 1.250 . S
C1598 O1590 1.258 . S
O1599 Mn1584 2.162 . S
O1599 C1587 1.281 . S
O1600 Mn1584 2.297 . S
O1600 C1587 1.236 . S
N1601 Mn1585 2.282 . S
N1601 C1602 1.328 . S
N1601 C1606 1.318 . S
C1602 N1601 1.328 . S
C1602 C1603 1.457 . S
C1602 H1607 0.929 . S
C1603 C1602 1.457 . S
C1603 C1604 1.291 . S
C1603 H1616 0.931 . S
C1604 C1603 1.291 . S
C1604 C1605 1.373 . S
C1604 H1617 0.929 . S
C1605 C1604 1.373 . S
C1605 C1606 1.396 . S
C1605 C1612 1.403 . S
C1606 C1596 1.476 . S
C1606 N1601 1.318 . S
C1606 C1605 1.396 . S
H1607 C1602 0.929 . S
O1608 Mn1584 2.385 . S
O1608 C1586 1.234 . S
O1609 Mn1584 2.209 . S
O1609 Mn1585 2.215 . S
O1609 C1586 1.283 . S
O1610 Mn1584 2.094 . S
O1610 C1588 1.240 . S
O1611 Mn1585 2.117 . S
O1611 C1588 1.264 . S
C1612 C1605 1.403 . S
C1612 C1613 1.399 . S
C1612 H1618 0.929 . S
C1613 C1593 1.449 . S
C1613 C1612 1.399 . S
C1613 H1619 0.930 . S
H1614 C1594 0.931 . S
H1615 C1595 0.930 . S
H1616 C1603 0.931 . S
H1617 C1604 0.929 . S
H1618 C1612 0.929 . S
H1619 C1613 0.930 . S
Mn1620 O1625 2.095 . S
Mn1620 O1635 2.162 . S
Mn1620 O1636 2.297 . S
Mn1620 O1644 2.385 . S
Mn1620 O1645 2.209 . S
Mn1620 O1646 2.094 . S
Mn1621 O1626 2.121 . S
Mn1621 N1628 2.257 . S
Mn1621 N1637 2.282 . S
Mn1621 O1645 2.215 . S
Mn1621 O1647 2.117 . S
C1622 O1644 1.234 . S
C1622 O1645 1.283 . S
C1623 O1635 1.281 . S
C1623 O1636 1.236 . S
C1624 O1646 1.240 . S
C1624 O1647 1.264 . S
O1625 Mn1620 2.095 . S
O1625 C1634 1.250 . S
O1626 Mn1621 2.121 . S
O1626 C1634 1.258 . S
C1627 N1628 1.326 . S
C1627 C1631 1.460 . S
C1627 H1633 0.929 . S
N1628 Mn1621 2.257 . S
N1628 C1627 1.326 . S
N1628 C1632 1.362 . S
C1629 C1630 1.258 . S
C1629 C1632 1.431 . S
C1629 C1649 1.449 . S
C1630 C1629 1.258 . S
C1630 C1631 1.477 . S
C1630 H1650 0.931 . S
C1631 C1627 1.460 . S
C1631 C1630 1.477 . S
C1631 H1651 0.930 . S
C1632 N1628 1.362 . S
C1632 C1629 1.431 . S
C1632 C1642 1.476 . S
H1633 C1627 0.929 . S
C1634 O1625 1.250 . S
C1634 O1626 1.258 . S
O1635 Mn1620 2.162 . S
O1635 C1623 1.281 . S
O1636 Mn1620 2.297 . S
O1636 C1623 1.236 . S
N1637 Mn1621 2.282 . S
N1637 C1638 1.328 . S
N1637 C1642 1.318 . S
C1638 N1637 1.328 . S
C1638 C1639 1.457 . S
C1638 H1643 0.929 . S
C1639 C1638 1.457 . S
C1639 C1640 1.291 . S
C1639 H1652 0.931 . S
C1640 C1639 1.291 . S
C1640 C1641 1.373 . S
C1640 H1653 0.929 . S
C1641 C1640 1.373 . S
C1641 C1642 1.396 . S
C1641 C1648 1.403 . S
C1642 C1632 1.476 . S
C1642 N1637 1.318 . S
C1642 C1641 1.396 . S
H1643 C1638 0.929 . S
O1644 Mn1620 2.385 . S
O1644 C1622 1.234 . S
O1645 Mn1620 2.209 . S
O1645 Mn1621 2.215 . S
O1645 C1622 1.283 . S
O1646 Mn1620 2.094 . S
O1646 C1624 1.240 . S
O1647 Mn1621 2.117 . S
O1647 C1624 1.264 . S
C1648 C1641 1.403 . S
C1648 C1649 1.399 . S
C1648 H1654 0.929 . S
C1649 C1629 1.449 . S
C1649 C1648 1.399 . S
C1649 H1655 0.930 . S
H1650 C1630 0.931 . S
H1651 C1631 0.930 . S
H1652 C1639 0.931 . S
H1653 C1640 0.929 . S
H1654 C1648 0.929 . S
H1655 C1649 0.930 . S
Mn1656 O1661 2.095 . S
Mn1656 O1671 2.162 . S
Mn1656 O1672 2.297 . S
Mn1656 O1680 2.385 . S
Mn1656 O1681 2.209 . S
Mn1656 O1682 2.094 . S
Mn1657 O1662 2.121 . S
Mn1657 N1664 2.257 . S
Mn1657 N1673 2.282 . S
Mn1657 O1681 2.215 . S
Mn1657 O1683 2.117 . S
C1658 O1680 1.234 . S
C1658 O1681 1.283 . S
C1659 O1671 1.281 . S
C1659 O1672 1.236 . S
C1660 O1682 1.240 . S
C1660 O1683 1.264 . S
O1661 Mn1656 2.095 . S
O1661 C1670 1.250 . S
O1662 Mn1657 2.121 . S
O1662 C1670 1.258 . S
C1663 N1664 1.326 . S
C1663 C1667 1.460 . S
C1663 H1669 0.929 . S
N1664 Mn1657 2.257 . S
N1664 C1663 1.326 . S
N1664 C1668 1.362 . S
C1665 C1666 1.258 . S
C1665 C1668 1.431 . S
C1665 C1685 1.449 . S
C1666 C1665 1.258 . S
C1666 C1667 1.477 . S
C1666 H1686 0.931 . S
C1667 C1663 1.460 . S
C1667 C1666 1.477 . S
C1667 H1687 0.930 . S
C1668 N1664 1.362 . S
C1668 C1665 1.431 . S
C1668 C1678 1.476 . S
H1669 C1663 0.929 . S
C1670 O1661 1.250 . S
C1670 O1662 1.258 . S
O1671 Mn1656 2.162 . S
O1671 C1659 1.281 . S
O1672 Mn1656 2.297 . S
O1672 C1659 1.236 . S
N1673 Mn1657 2.282 . S
N1673 C1674 1.328 . S
N1673 C1678 1.318 . S
C1674 N1673 1.328 . S
C1674 C1675 1.457 . S
C1674 H1679 0.929 . S
C1675 C1674 1.457 . S
C1675 C1676 1.291 . S
C1675 H1688 0.931 . S
C1676 C1675 1.291 . S
C1676 C1677 1.373 . S
C1676 H1689 0.929 . S
C1677 C1676 1.373 . S
C1677 C1678 1.396 . S
C1677 C1684 1.403 . S
C1678 C1668 1.476 . S
C1678 N1673 1.318 . S
C1678 C1677 1.396 . S
H1679 C1674 0.929 . S
O1680 Mn1656 2.385 . S
O1680 C1658 1.234 . S
O1681 Mn1656 2.209 . S
O1681 Mn1657 2.215 . S
O1681 C1658 1.283 . S
O1682 Mn1656 2.094 . S
O1682 C1660 1.240 . S
O1683 Mn1657 2.117 . S
O1683 C1660 1.264 . S
C1684 C1677 1.403 . S
C1684 C1685 1.399 . S
C1684 H1690 0.929 . S
C1685 C1665 1.449 . S
C1685 C1684 1.399 . S
C1685 H1691 0.930 . S
H1686 C1666 0.931 . S
H1687 C1667 0.930 . S
H1688 C1675 0.931 . S
H1689 C1676 0.929 . S
H1690 C1684 0.929 . S
H1691 C1685 0.930 . S
Mn1692 O1697 2.095 . S
Mn1692 O1707 2.162 . S
Mn1692 O1708 2.297 . S
Mn1692 O1716 2.385 . S
Mn1692 O1717 2.209 . S
Mn1692 O1718 2.094 . S
Mn1693 O1698 2.121 . S
Mn1693 N1700 2.257 . S
Mn1693 N1709 2.282 . S
Mn1693 O1717 2.215 . S
Mn1693 O1719 2.117 . S
C1694 O1716 1.234 . S
C1694 O1717 1.283 . S
C1695 O1707 1.281 . S
C1695 O1708 1.236 . S
C1696 O1718 1.240 . S
C1696 O1719 1.264 . S
O1697 Mn1692 2.095 . S
O1697 C1706 1.250 . S
O1698 Mn1693 2.121 . S
O1698 C1706 1.258 . S
C1699 N1700 1.326 . S
C1699 C1703 1.460 . S
C1699 H1705 0.929 . S
N1700 Mn1693 2.257 . S
N1700 C1699 1.326 . S
N1700 C1704 1.362 . S
C1701 C1702 1.258 . S
C1701 C1704 1.431 . S
C1701 C1721 1.449 . S
C1702 C1701 1.258 . S
C1702 C1703 1.477 . S
C1702 H1722 0.931 . S
C1703 C1699 1.460 . S
C1703 C1702 1.477 . S
C1703 H1723 0.930 . S
C1704 N1700 1.362 . S
C1704 C1701 1.431 . S
C1704 C1714 1.476 . S
H1705 C1699 0.929 . S
C1706 O1697 1.250 . S
C1706 O1698 1.258 . S
O1707 Mn1692 2.162 . S
O1707 C1695 1.281 . S
O1708 Mn1692 2.297 . S
O1708 C1695 1.236 . S
N1709 Mn1693 2.282 . S
N1709 C1710 1.328 . S
N1709 C1714 1.318 . S
C1710 N1709 1.328 . S
C1710 C1711 1.457 . S
C1710 H1715 0.929 . S
C1711 C1710 1.457 . S
C1711 C1712 1.291 . S
C1711 H1724 0.931 . S
C1712 C1711 1.291 . S
C1712 C1713 1.373 . S
C1712 H1725 0.929 . S
C1713 C1712 1.373 . S
C1713 C1714 1.396 . S
C1713 C1720 1.403 . S
C1714 C1704 1.476 . S
C1714 N1709 1.318 . S
C1714 C1713 1.396 . S
H1715 C1710 0.929 . S
O1716 Mn1692 2.385 . S
O1716 C1694 1.234 . S
O1717 Mn1692 2.209 . S
O1717 Mn1693 2.215 . S
O1717 C1694 1.283 . S
O1718 Mn1692 2.094 . S
O1718 C1696 1.240 . S
O1719 Mn1693 2.117 . S
O1719 C1696 1.264 . S
C1720 C1713 1.403 . S
C1720 C1721 1.399 . S
C1720 H1726 0.929 . S
C1721 C1701 1.449 . S
C1721 C1720 1.399 . S
C1721 H1727 0.930 . S
H1722 C1702 0.931 . S
H1723 C1703 0.930 . S
H1724 C1711 0.931 . S
H1725 C1712 0.929 . S
H1726 C1720 0.929 . S
H1727 C1721 0.930 . S
Mn1728 O1733 2.095 . S
Mn1728 O1743 2.162 . S
Mn1728 O1744 2.297 . S
Mn1728 O1752 2.385 . S
Mn1728 O1753 2.209 . S
Mn1728 O1754 2.094 . S
Mn1729 O1734 2.121 . S
Mn1729 N1736 2.257 . S
Mn1729 N1745 2.282 . S
Mn1729 O1753 2.215 . S
Mn1729 O1755 2.117 . S
C1730 O1752 1.234 . S
C1730 O1753 1.283 . S
C1731 O1743 1.281 . S
C1731 O1744 1.236 . S
C1732 O1754 1.240 . S
C1732 O1755 1.264 . S
O1733 Mn1728 2.095 . S
O1733 C1742 1.250 . S
O1734 Mn1729 2.121 . S
O1734 C1742 1.258 . S
C1735 N1736 1.326 . S
C1735 C1739 1.460 . S
C1735 H1741 0.929 . S
N1736 Mn1729 2.257 . S
N1736 C1735 1.326 . S
N1736 C1740 1.362 . S
C1737 C1738 1.258 . S
C1737 C1740 1.431 . S
C1737 C1757 1.449 1_556 S
C1738 C1737 1.258 . S
C1738 C1739 1.477 . S
C1738 H1758 0.931 1_556 S
C1739 C1735 1.460 . S
C1739 C1738 1.477 . S
C1739 H1759 0.930 . S
C1740 N1736 1.362 . S
C1740 C1737 1.431 . S
C1740 C1750 1.476 . S
H1741 C1735 0.929 . S
C1742 O1733 1.250 . S
C1742 O1734 1.258 . S
O1743 Mn1728 2.162 . S
O1743 C1731 1.281 . S
O1744 Mn1728 2.297 . S
O1744 C1731 1.236 . S
N1745 Mn1729 2.282 . S
N1745 C1746 1.328 . S
N1745 C1750 1.318 . S
C1746 N1745 1.328 . S
C1746 C1747 1.457 . S
C1746 H1751 0.929 . S
C1747 C1746 1.457 . S
C1747 C1748 1.291 1_556 S
C1747 H1760 0.931 . S
C1748 C1747 1.291 1_554 S
C1748 C1749 1.376 . S
C1748 H1761 0.929 . S
C1749 C1748 1.376 . S
C1749 C1750 1.340 1_554 S
C1749 C1756 1.455 . S
C1750 C1740 1.476 . S
C1750 N1745 1.318 . S
C1750 C1749 1.340 1_556 S
H1751 C1746 0.929 . S
O1752 Mn1728 2.385 . S
O1752 C1730 1.234 . S
O1753 Mn1728 2.209 . S
O1753 Mn1729 2.215 . S
O1753 C1730 1.283 . S
O1754 Mn1728 2.094 . S
O1754 C1732 1.240 . S
O1755 Mn1729 2.117 . S
O1755 C1732 1.264 . S
C1756 C1749 1.455 . S
C1756 C1757 1.399 . S
C1756 H1762 0.929 . S
C1757 C1737 1.449 1_554 S
C1757 C1756 1.399 . S
C1757 H1763 0.930 . S
H1758 C1738 0.931 1_554 S
H1759 C1739 0.930 . S
H1760 C1747 0.931 . S
H1761 C1748 0.929 . S
H1762 C1756 0.929 . S
H1763 C1757 0.930 . S
Mn1764 O1769 2.095 . S
Mn1764 O1779 2.162 . S
Mn1764 O1780 2.297 . S
Mn1764 O1788 2.385 . S
Mn1764 O1789 2.209 . S
Mn1764 O1790 2.094 . S
Mn1765 O1770 2.121 . S
Mn1765 N1772 2.257 . S
Mn1765 N1781 2.282 . S
Mn1765 O1789 2.215 . S
Mn1765 O1791 2.117 . S
C1766 O1788 1.234 . S
C1766 O1789 1.283 . S
C1767 O1779 1.281 . S
C1767 O1780 1.236 . S
C1768 O1790 1.240 . S
C1768 O1791 1.264 . S
O1769 Mn1764 2.095 . S
O1769 C1778 1.250 . S
O1770 Mn1765 2.121 . S
O1770 C1778 1.258 . S
C1771 N1772 1.326 . S
C1771 C1775 1.460 . S
C1771 H1777 0.929 . S
N1772 Mn1765 2.257 . S
N1772 C1771 1.326 . S
N1772 C1776 1.362 . S
C1773 C1774 1.258 . S
C1773 C1776 1.431 . S
C1773 C1793 1.449 1_556 S
C1774 C1773 1.258 . S
C1774 C1775 1.477 . S
C1774 H1794 0.931 1_556 S
C1775 C1771 1.460 . S
C1775 C1774 1.477 . S
C1775 H1795 0.930 . S
C1776 N1772 1.362 . S
C1776 C1773 1.431 . S
C1776 C1786 1.476 . S
H1777 C1771 0.929 . S
C1778 O1769 1.250 . S
C1778 O1770 1.258 . S
O1779 Mn1764 2.162 . S
O1779 C1767 1.281 . S
O1780 Mn1764 2.297 . S
O1780 C1767 1.236 . S
N1781 Mn1765 2.282 . S
N1781 C1782 1.328 . S
N1781 C1786 1.318 . S
C1782 N1781 1.328 . S
C1782 C1783 1.457 . S
C1782 H1787 0.929 . S
C1783 C1782 1.457 . S
C1783 C1784 1.291 1_556 S
C1783 H1796 0.931 . S
C1784 C1783 1.291 1_554 S
C1784 C1785 1.376 . S
C1784 H1797 0.929 . S
C1785 C1784 1.376 . S
C1785 C1786 1.340 1_554 S
C1785 C1792 1.455 . S
C1786 C1776 1.476 . S
C1786 N1781 1.318 . S
C1786 C1785 1.340 1_556 S
H1787 C1782 0.929 . S
O1788 Mn1764 2.385 . S
O1788 C1766 1.234 . S
O1789 Mn1764 2.209 . S
O1789 Mn1765 2.215 . S
O1789 C1766 1.283 . S
O1790 Mn1764 2.094 . S
O1790 C1768 1.240 . S
O1791 Mn1765 2.117 . S
O1791 C1768 1.264 . S
C1792 C1785 1.455 . S
C1792 C1793 1.399 . S
C1792 H1798 0.929 . S
C1793 C1773 1.449 1_554 S
C1793 C1792 1.399 . S
C1793 H1799 0.930 . S
H1794 C1774 0.931 1_554 S
H1795 C1775 0.930 . S
H1796 C1783 0.931 . S
H1797 C1784 0.929 . S
H1798 C1792 0.929 . S
H1799 C1793 0.930 . S
Mn1800 O1805 2.095 . S
Mn1800 O1815 2.162 . S
Mn1800 O1816 2.297 . S
Mn1800 O1824 2.385 . S
Mn1800 O1825 2.209 . S
Mn1800 O1826 2.094 . S
Mn1801 O1806 2.121 . S
Mn1801 N1808 2.257 . S
Mn1801 N1817 2.282 . S
Mn1801 O1825 2.215 . S
Mn1801 O1827 2.117 . S
C1802 O1824 1.234 . S
C1802 O1825 1.283 . S
C1803 O1815 1.281 . S
C1803 O1816 1.236 . S
C1804 O1826 1.240 . S
C1804 O1827 1.264 . S
O1805 Mn1800 2.095 . S
O1805 C1814 1.250 . S
O1806 Mn1801 2.121 . S
O1806 C1814 1.258 . S
C1807 N1808 1.326 . S
C1807 C1811 1.460 . S
C1807 H1813 0.929 . S
N1808 Mn1801 2.257 . S
N1808 C1807 1.326 . S
N1808 C1812 1.362 . S
C1809 C1810 1.258 . S
C1809 C1812 1.431 . S
C1809 C1829 1.449 1_556 S
C1810 C1809 1.258 . S
C1810 C1811 1.477 . S
C1810 H1830 0.931 1_556 S
C1811 C1807 1.460 . S
C1811 C1810 1.477 . S
C1811 H1831 0.930 . S
C1812 N1808 1.362 . S
C1812 C1809 1.431 . S
C1812 C1822 1.476 . S
H1813 C1807 0.929 . S
C1814 O1805 1.250 . S
C1814 O1806 1.258 . S
O1815 Mn1800 2.162 . S
O1815 C1803 1.281 . S
O1816 Mn1800 2.297 . S
O1816 C1803 1.236 . S
N1817 Mn1801 2.282 . S
N1817 C1818 1.328 . S
N1817 C1822 1.318 . S
C1818 N1817 1.328 . S
C1818 C1819 1.457 . S
C1818 H1823 0.929 . S
C1819 C1818 1.457 . S
C1819 C1820 1.291 1_556 S
C1819 H1832 0.931 . S
C1820 C1819 1.291 1_554 S
C1820 C1821 1.376 . S
C1820 H1833 0.929 . S
C1821 C1820 1.376 . S
C1821 C1822 1.340 1_554 S
C1821 C1828 1.455 . S
C1822 C1812 1.476 . S
C1822 N1817 1.318 . S
C1822 C1821 1.340 1_556 S
H1823 C1818 0.929 . S
O1824 Mn1800 2.385 . S
O1824 C1802 1.234 . S
O1825 Mn1800 2.209 . S
O1825 Mn1801 2.215 . S
O1825 C1802 1.283 . S
O1826 Mn1800 2.094 . S
O1826 C1804 1.240 . S
O1827 Mn1801 2.117 . S
O1827 C1804 1.264 . S
C1828 C1821 1.455 . S
C1828 C1829 1.399 . S
C1828 H1834 0.929 . S
C1829 C1809 1.449 1_554 S
C1829 C1828 1.399 . S
C1829 H1835 0.930 . S
H1830 C1810 0.931 1_554 S
H1831 C1811 0.930 . S
H1832 C1819 0.931 . S
H1833 C1820 0.929 . S
H1834 C1828 0.929 . S
H1835 C1829 0.930 . S
Mn1836 O1841 2.095 . S
Mn1836 O1851 2.162 . S
Mn1836 O1852 2.297 . S
Mn1836 O1860 2.385 . S
Mn1836 O1861 2.209 . S
Mn1836 O1862 2.094 . S
Mn1837 O1842 2.121 . S
Mn1837 N1844 2.257 . S
Mn1837 N1853 2.282 . S
Mn1837 O1861 2.215 . S
Mn1837 O1863 2.117 . S
C1838 O1860 1.234 . S
C1838 O1861 1.283 . S
C1839 O1851 1.281 . S
C1839 O1852 1.236 . S
C1840 O1862 1.240 . S
C1840 O1863 1.264 . S
O1841 Mn1836 2.095 . S
O1841 C1850 1.250 . S
O1842 Mn1837 2.121 . S
O1842 C1850 1.258 . S
C1843 N1844 1.326 . S
C1843 C1847 1.460 . S
C1843 H1849 0.929 . S
N1844 Mn1837 2.257 . S
N1844 C1843 1.326 . S
N1844 C1848 1.362 . S
C1845 C1846 1.258 . S
C1845 C1848 1.431 . S
C1845 C1865 1.449 1_556 S
C1846 C1845 1.258 . S
C1846 C1847 1.477 . S
C1846 H1866 0.931 1_556 S
C1847 C1843 1.460 . S
C1847 C1846 1.477 . S
C1847 H1867 0.930 . S
C1848 N1844 1.362 . S
C1848 C1845 1.431 . S
C1848 C1858 1.476 . S
H1849 C1843 0.929 . S
C1850 O1841 1.250 . S
C1850 O1842 1.258 . S
O1851 Mn1836 2.162 . S
O1851 C1839 1.281 . S
O1852 Mn1836 2.297 . S
O1852 C1839 1.236 . S
N1853 Mn1837 2.282 . S
N1853 C1854 1.328 . S
N1853 C1858 1.318 . S
C1854 N1853 1.328 . S
C1854 C1855 1.457 . S
C1854 H1859 0.929 . S
C1855 C1854 1.457 . S
C1855 C1856 1.291 1_556 S
C1855 H1868 0.931 . S
C1856 C1855 1.291 1_554 S
C1856 C1857 1.376 . S
C1856 H1869 0.929 . S
C1857 C1856 1.376 . S
C1857 C1858 1.340 1_554 S
C1857 C1864 1.455 . S
C1858 C1848 1.476 . S
C1858 N1853 1.318 . S
C1858 C1857 1.340 1_556 S
H1859 C1854 0.929 . S
O1860 Mn1836 2.385 . S
O1860 C1838 1.234 . S
O1861 Mn1836 2.209 . S
O1861 Mn1837 2.215 . S
O1861 C1838 1.283 . S
O1862 Mn1836 2.094 . S
O1862 C1840 1.240 . S
O1863 Mn1837 2.117 . S
O1863 C1840 1.264 . S
C1864 C1857 1.455 . S
C1864 C1865 1.399 . S
C1864 H1870 0.929 . S
C1865 C1845 1.449 1_554 S
C1865 C1864 1.399 . S
C1865 H1871 0.930 . S
H1866 C1846 0.931 1_554 S
H1867 C1847 0.930 . S
H1868 C1855 0.931 . S
H1869 C1856 0.929 . S
H1870 C1864 0.929 . S
H1871 C1865 0.930 . S
Mn1872 O1877 2.095 . S
Mn1872 O1887 2.162 . S
Mn1872 O1888 2.297 . S
Mn1872 O1896 2.385 . S
Mn1872 O1897 2.209 . S
Mn1872 O1898 2.094 . S
Mn1873 O1878 2.121 . S
Mn1873 N1880 2.257 . S
Mn1873 N1889 2.282 . S
Mn1873 O1897 2.215 . S
Mn1873 O1899 2.117 . S
C1874 O1896 1.234 . S
C1874 O1897 1.283 . S
C1875 O1887 1.281 . S
C1875 O1888 1.236 . S
C1876 O1898 1.240 . S
C1876 O1899 1.264 . S
O1877 Mn1872 2.095 . S
O1877 C1886 1.250 . S
O1878 Mn1873 2.121 . S
O1878 C1886 1.258 . S
C1879 N1880 1.326 . S
C1879 C1883 1.460 . S
C1879 H1885 0.929 . S
N1880 Mn1873 2.257 . S
N1880 C1879 1.326 . S
N1880 C1884 1.362 . S
C1881 C1882 1.258 . S
C1881 C1884 1.431 . S
C1881 C1901 1.449 1_554 S
C1882 C1881 1.258 . S
C1882 C1883 1.477 . S
C1882 H1902 0.931 1_554 S
C1883 C1879 1.460 . S
C1883 C1882 1.477 . S
C1883 H1903 0.930 . S
C1884 N1880 1.362 . S
C1884 C1881 1.431 . S
C1884 C1894 1.476 . S
H1885 C1879 0.929 . S
C1886 O1877 1.250 . S
C1886 O1878 1.258 . S
O1887 Mn1872 2.162 . S
O1887 C1875 1.281 . S
O1888 Mn1872 2.297 . S
O1888 C1875 1.236 . S
N1889 Mn1873 2.282 . S
N1889 C1890 1.328 . S
N1889 C1894 1.318 . S
C1890 N1889 1.328 . S
C1890 C1891 1.457 . S
C1890 H1895 0.929 . S
C1891 C1890 1.457 . S
C1891 C1892 1.291 1_554 S
C1891 H1904 0.931 . S
C1892 C1891 1.291 1_556 S
C1892 C1893 1.376 . S
C1892 H1905 0.929 . S
C1893 C1892 1.376 . S
C1893 C1894 1.340 1_556 S
C1893 C1900 1.455 . S
C1894 C1884 1.476 . S
C1894 N1889 1.318 . S
C1894 C1893 1.340 1_554 S
H1895 C1890 0.929 . S
O1896 Mn1872 2.385 . S
O1896 C1874 1.234 . S
O1897 Mn1872 2.209 . S
O1897 Mn1873 2.215 . S
O1897 C1874 1.283 . S
O1898 Mn1872 2.094 . S
O1898 C1876 1.240 . S
O1899 Mn1873 2.117 . S
O1899 C1876 1.264 . S
C1900 C1893 1.455 . S
C1900 C1901 1.399 . S
C1900 H1906 0.929 . S
C1901 C1881 1.449 1_556 S
C1901 C1900 1.399 . S
C1901 H1907 0.930 . S
H1902 C1882 0.931 1_556 S
H1903 C1883 0.930 . S
H1904 C1891 0.931 . S
H1905 C1892 0.929 . S
H1906 C1900 0.929 . S
H1907 C1901 0.930 . S
Mn1908 O1913 2.095 . S
Mn1908 O1923 2.162 . S
Mn1908 O1924 2.297 . S
Mn1908 O1932 2.385 . S
Mn1908 O1933 2.209 . S
Mn1908 O1934 2.094 . S
Mn1909 O1914 2.121 . S
Mn1909 N1916 2.257 . S
Mn1909 N1925 2.282 . S
Mn1909 O1933 2.215 . S
Mn1909 O1935 2.117 . S
C1910 O1932 1.234 . S
C1910 O1933 1.283 . S
C1911 O1923 1.281 . S
C1911 O1924 1.236 . S
C1912 O1934 1.240 . S
C1912 O1935 1.264 . S
O1913 Mn1908 2.095 . S
O1913 C1922 1.250 . S
O1914 Mn1909 2.121 . S
O1914 C1922 1.258 . S
C1915 N1916 1.326 . S
C1915 C1919 1.460 . S
C1915 H1921 0.929 . S
N1916 Mn1909 2.257 . S
N1916 C1915 1.326 . S
N1916 C1920 1.362 . S
C1917 C1918 1.258 . S
C1917 C1920 1.431 . S
C1917 C1937 1.449 1_554 S
C1918 C1917 1.258 . S
C1918 C1919 1.477 . S
C1918 H1938 0.931 1_554 S
C1919 C1915 1.460 . S
C1919 C1918 1.477 . S
C1919 H1939 0.930 . S
C1920 N1916 1.362 . S
C1920 C1917 1.431 . S
C1920 C1930 1.476 . S
H1921 C1915 0.929 . S
C1922 O1913 1.250 . S
C1922 O1914 1.258 . S
O1923 Mn1908 2.162 . S
O1923 C1911 1.281 . S
O1924 Mn1908 2.297 . S
O1924 C1911 1.236 . S
N1925 Mn1909 2.282 . S
N1925 C1926 1.328 . S
N1925 C1930 1.318 . S
C1926 N1925 1.328 . S
C1926 C1927 1.457 . S
C1926 H1931 0.929 . S
C1927 C1926 1.457 . S
C1927 C1928 1.291 1_554 S
C1927 H1940 0.931 . S
C1928 C1927 1.291 1_556 S
C1928 C1929 1.376 . S
C1928 H1941 0.929 . S
C1929 C1928 1.376 . S
C1929 C1930 1.340 1_556 S
C1929 C1936 1.455 . S
C1930 C1920 1.476 . S
C1930 N1925 1.318 . S
C1930 C1929 1.340 1_554 S
H1931 C1926 0.929 . S
O1932 Mn1908 2.385 . S
O1932 C1910 1.234 . S
O1933 Mn1908 2.209 . S
O1933 Mn1909 2.215 . S
O1933 C1910 1.283 . S
O1934 Mn1908 2.094 . S
O1934 C1912 1.240 . S
O1935 Mn1909 2.117 . S
O1935 C1912 1.264 . S
C1936 C1929 1.455 . S
C1936 C1937 1.399 . S
C1936 H1942 0.929 . S
C1937 C1917 1.449 1_556 S
C1937 C1936 1.399 . S
C1937 H1943 0.930 . S
H1938 C1918 0.931 1_556 S
H1939 C1919 0.930 . S
H1940 C1927 0.931 . S
H1941 C1928 0.929 . S
H1942 C1936 0.929 . S
H1943 C1937 0.930 . S
Mn1944 O1949 2.095 . S
Mn1944 O1959 2.162 . S
Mn1944 O1960 2.297 . S
Mn1944 O1968 2.385 . S
Mn1944 O1969 2.209 . S
Mn1944 O1970 2.094 . S
Mn1945 O1950 2.121 . S
Mn1945 N1952 2.257 . S
Mn1945 N1961 2.282 . S
Mn1945 O1969 2.215 . S
Mn1945 O1971 2.117 . S
C1946 O1968 1.234 . S
C1946 O1969 1.283 . S
C1947 O1959 1.281 . S
C1947 O1960 1.236 . S
C1948 O1970 1.240 . S
C1948 O1971 1.264 . S
O1949 Mn1944 2.095 . S
O1949 C1958 1.250 . S
O1950 Mn1945 2.121 . S
O1950 C1958 1.258 . S
C1951 N1952 1.326 . S
C1951 C1955 1.460 . S
C1951 H1957 0.929 . S
N1952 Mn1945 2.257 . S
N1952 C1951 1.326 . S
N1952 C1956 1.362 . S
C1953 C1954 1.258 . S
C1953 C1956 1.431 . S
C1953 C1973 1.449 1_554 S
C1954 C1953 1.258 . S
C1954 C1955 1.477 . S
C1954 H1974 0.931 1_554 S
C1955 C1951 1.460 . S
C1955 C1954 1.477 . S
C1955 H1975 0.930 . S
C1956 N1952 1.362 . S
C1956 C1953 1.431 . S
C1956 C1966 1.476 . S
H1957 C1951 0.929 . S
C1958 O1949 1.250 . S
C1958 O1950 1.258 . S
O1959 Mn1944 2.162 . S
O1959 C1947 1.281 . S
O1960 Mn1944 2.297 . S
O1960 C1947 1.236 . S
N1961 Mn1945 2.282 . S
N1961 C1962 1.328 . S
N1961 C1966 1.318 . S
C1962 N1961 1.328 . S
C1962 C1963 1.457 . S
C1962 H1967 0.929 . S
C1963 C1962 1.457 . S
C1963 C1964 1.291 1_554 S
C1963 H1976 0.931 . S
C1964 C1963 1.291 1_556 S
C1964 C1965 1.376 . S
C1964 H1977 0.929 . S
C1965 C1964 1.376 . S
C1965 C1966 1.340 1_556 S
C1965 C1972 1.455 . S
C1966 C1956 1.476 . S
C1966 N1961 1.318 . S
C1966 C1965 1.340 1_554 S
H1967 C1962 0.929 . S
O1968 Mn1944 2.385 . S
O1968 C1946 1.234 . S
O1969 Mn1944 2.209 . S
O1969 Mn1945 2.215 . S
O1969 C1946 1.283 . S
O1970 Mn1944 2.094 . S
O1970 C1948 1.240 . S
O1971 Mn1945 2.117 . S
O1971 C1948 1.264 . S
C1972 C1965 1.455 . S
C1972 C1973 1.399 . S
C1972 H1978 0.929 . S
C1973 C1953 1.449 1_556 S
C1973 C1972 1.399 . S
C1973 H1979 0.930 . S
H1974 C1954 0.931 1_556 S
H1975 C1955 0.930 . S
H1976 C1963 0.931 . S
H1977 C1964 0.929 . S
H1978 C1972 0.929 . S
H1979 C1973 0.930 . S
Mn1980 O1985 2.095 . S
Mn1980 O1995 2.162 . S
Mn1980 O1996 2.297 . S
Mn1980 O2004 2.385 . S
Mn1980 O2005 2.209 . S
Mn1980 O2006 2.094 . S
Mn1981 O1986 2.121 . S
Mn1981 N1988 2.257 . S
Mn1981 N1997 2.282 . S
Mn1981 O2005 2.215 . S
Mn1981 O2007 2.117 . S
C1982 O2004 1.234 . S
C1982 O2005 1.283 . S
C1983 O1995 1.281 . S
C1983 O1996 1.236 . S
C1984 O2006 1.240 . S
C1984 O2007 1.264 . S
O1985 Mn1980 2.095 . S
O1985 C1994 1.250 . S
O1986 Mn1981 2.121 . S
O1986 C1994 1.258 . S
C1987 N1988 1.326 . S
C1987 C1991 1.460 . S
C1987 H1993 0.929 . S
N1988 Mn1981 2.257 . S
N1988 C1987 1.326 . S
N1988 C1992 1.362 . S
C1989 C1990 1.258 . S
C1989 C1992 1.431 . S
C1989 C2009 1.449 1_554 S
C1990 C1989 1.258 . S
C1990 C1991 1.477 . S
C1990 H2010 0.931 1_554 S
C1991 C1987 1.460 . S
C1991 C1990 1.477 . S
C1991 H2011 0.930 . S
C1992 N1988 1.362 . S
C1992 C1989 1.431 . S
C1992 C2002 1.476 . S
H1993 C1987 0.929 . S
C1994 O1985 1.250 . S
C1994 O1986 1.258 . S
O1995 Mn1980 2.162 . S
O1995 C1983 1.281 . S
O1996 Mn1980 2.297 . S
O1996 C1983 1.236 . S
N1997 Mn1981 2.282 . S
N1997 C1998 1.328 . S
N1997 C2002 1.318 . S
C1998 N1997 1.328 . S
C1998 C1999 1.457 . S
C1998 H2003 0.929 . S
C1999 C1998 1.457 . S
C1999 C2000 1.291 1_554 S
C1999 H2012 0.931 . S
C2000 C1999 1.291 1_556 S
C2000 C2001 1.376 . S
C2000 H2013 0.929 . S
C2001 C2000 1.376 . S
C2001 C2002 1.340 1_556 S
C2001 C2008 1.455 . S
C2002 C1992 1.476 . S
C2002 N1997 1.318 . S
C2002 C2001 1.340 1_554 S
H2003 C1998 0.929 . S
O2004 Mn1980 2.385 . S
O2004 C1982 1.234 . S
O2005 Mn1980 2.209 . S
O2005 Mn1981 2.215 . S
O2005 C1982 1.283 . S
O2006 Mn1980 2.094 . S
O2006 C1984 1.240 . S
O2007 Mn1981 2.117 . S
O2007 C1984 1.264 . S
C2008 C2001 1.455 . S
C2008 C2009 1.399 . S
C2008 H2014 0.929 . S
C2009 C1989 1.449 1_556 S
C2009 C2008 1.399 . S
C2009 H2015 0.930 . S
H2010 C1990 0.931 1_556 S
H2011 C1991 0.930 . S
H2012 C1999 0.931 . S
H2013 C2000 0.929 . S
H2014 C2008 0.929 . S
H2015 C2009 0.930 . S
Mn2016 O2021 2.095 . S
Mn2016 O2031 2.162 . S
Mn2016 O2032 2.297 . S
Mn2016 O2040 2.385 . S
Mn2016 O2041 2.209 . S
Mn2016 O2042 2.094 . S
Mn2017 O2022 2.121 . S
Mn2017 N2024 2.257 . S
Mn2017 N2033 2.282 . S
Mn2017 O2041 2.215 . S
Mn2017 O2043 2.117 . S
C2018 O2040 1.234 . S
C2018 O2041 1.283 . S
C2019 O2031 1.281 . S
C2019 O2032 1.236 . S
C2020 O2042 1.240 . S
C2020 O2043 1.264 . S
O2021 Mn2016 2.095 . S
O2021 C2030 1.250 . S
O2022 Mn2017 2.121 . S
O2022 C2030 1.258 . S
C2023 N2024 1.326 . S
C2023 C2027 1.460 . S
C2023 H2029 0.929 . S
N2024 Mn2017 2.257 . S
N2024 C2023 1.326 . S
N2024 C2028 1.362 . S
C2025 C2026 1.258 . S
C2025 C2028 1.431 . S
C2025 C2045 1.449 1_655 S
C2026 C2025 1.258 . S
C2026 C2027 1.477 . S
C2026 H2046 0.931 1_655 S
C2027 C2023 1.460 . S
C2027 C2026 1.477 . S
C2027 H2047 0.930 . S
C2028 N2024 1.362 . S
C2028 C2025 1.431 . S
C2028 C2038 1.476 . S
H2029 C2023 0.929 . S
C2030 O2021 1.250 . S
C2030 O2022 1.258 . S
O2031 Mn2016 2.162 . S
O2031 C2019 1.281 . S
O2032 Mn2016 2.297 . S
O2032 C2019 1.236 . S
N2033 Mn2017 2.282 . S
N2033 C2034 1.328 . S
N2033 C2038 1.318 . S
C2034 N2033 1.328 . S
C2034 C2035 1.457 . S
C2034 H2039 0.929 . S
C2035 C2034 1.457 . S
C2035 C2036 1.291 1_655 S
C2035 H2048 0.931 . S
C2036 C2035 1.291 1_455 S
C2036 C2037 1.376 . S
C2036 H2049 0.929 . S
C2037 C2036 1.376 . S
C2037 C2038 1.340 1_455 S
C2037 C2044 1.455 . S
C2038 C2028 1.476 . S
C2038 N2033 1.318 . S
C2038 C2037 1.340 1_655 S
H2039 C2034 0.929 . S
O2040 Mn2016 2.385 . S
O2040 C2018 1.234 . S
O2041 Mn2016 2.209 . S
O2041 Mn2017 2.215 . S
O2041 C2018 1.283 . S
O2042 Mn2016 2.094 . S
O2042 C2020 1.240 . S
O2043 Mn2017 2.117 . S
O2043 C2020 1.264 . S
C2044 C2037 1.455 . S
C2044 C2045 1.399 . S
C2044 H2050 0.929 . S
C2045 C2025 1.449 1_455 S
C2045 C2044 1.399 . S
C2045 H2051 0.930 . S
H2046 C2026 0.931 1_455 S
H2047 C2027 0.930 . S
H2048 C2035 0.931 . S
H2049 C2036 0.929 . S
H2050 C2044 0.929 . S
H2051 C2045 0.930 . S
Mn2052 O2057 2.095 . S
Mn2052 O2067 2.162 . S
Mn2052 O2068 2.297 . S
Mn2052 O2076 2.385 . S
Mn2052 O2077 2.209 . S
Mn2052 O2078 2.094 . S
Mn2053 O2058 2.121 . S
Mn2053 N2060 2.257 . S
Mn2053 N2069 2.282 . S
Mn2053 O2077 2.215 . S
Mn2053 O2079 2.117 . S
C2054 O2076 1.234 . S
C2054 O2077 1.283 . S
C2055 O2067 1.281 . S
C2055 O2068 1.236 . S
C2056 O2078 1.240 . S
C2056 O2079 1.264 . S
O2057 Mn2052 2.095 . S
O2057 C2066 1.250 . S
O2058 Mn2053 2.121 . S
O2058 C2066 1.258 . S
C2059 N2060 1.326 . S
C2059 C2063 1.460 . S
C2059 H2065 0.929 . S
N2060 Mn2053 2.257 . S
N2060 C2059 1.326 . S
N2060 C2064 1.362 . S
C2061 C2062 1.258 . S
C2061 C2064 1.431 . S
C2061 C2081 1.449 1_565 S
C2062 C2061 1.258 . S
C2062 C2063 1.477 . S
C2062 H2082 0.931 1_565 S
C2063 C2059 1.460 . S
C2063 C2062 1.477 . S
C2063 H2083 0.930 . S
C2064 N2060 1.362 . S
C2064 C2061 1.431 . S
C2064 C2074 1.476 . S
H2065 C2059 0.929 . S
C2066 O2057 1.250 . S
C2066 O2058 1.258 . S
O2067 Mn2052 2.162 . S
O2067 C2055 1.281 . S
O2068 Mn2052 2.297 . S
O2068 C2055 1.236 . S
N2069 Mn2053 2.282 . S
N2069 C2070 1.328 . S
N2069 C2074 1.318 . S
C2070 N2069 1.328 . S
C2070 C2071 1.457 . S
C2070 H2075 0.929 . S
C2071 C2070 1.457 . S
C2071 C2072 1.291 1_565 S
C2071 H2084 0.931 . S
C2072 C2071 1.291 1_545 S
C2072 C2073 1.376 . S
C2072 H2085 0.929 . S
C2073 C2072 1.376 . S
C2073 C2074 1.340 1_545 S
C2073 C2080 1.455 . S
C2074 C2064 1.476 . S
C2074 N2069 1.318 . S
C2074 C2073 1.340 1_565 S
H2075 C2070 0.929 . S
O2076 Mn2052 2.385 . S
O2076 C2054 1.234 . S
O2077 Mn2052 2.209 . S
O2077 Mn2053 2.215 . S
O2077 C2054 1.283 . S
O2078 Mn2052 2.094 . S
O2078 C2056 1.240 . S
O2079 Mn2053 2.117 . S
O2079 C2056 1.264 . S
C2080 C2073 1.455 . S
C2080 C2081 1.399 . S
C2080 H2086 0.929 . S
C2081 C2061 1.449 1_545 S
C2081 C2080 1.399 . S
C2081 H2087 0.930 . S
H2082 C2062 0.931 1_545 S
H2083 C2063 0.930 . S
H2084 C2071 0.931 . S
H2085 C2072 0.929 . S
H2086 C2080 0.929 . S
H2087 C2081 0.930 . S
Mn2088 O2093 2.095 . S
Mn2088 O2103 2.162 . S
Mn2088 O2104 2.297 . S
Mn2088 O2112 2.385 . S
Mn2088 O2113 2.209 . S
Mn2088 O2114 2.094 . S
Mn2089 O2094 2.121 . S
Mn2089 N2096 2.257 . S
Mn2089 N2105 2.282 . S
Mn2089 O2113 2.215 . S
Mn2089 O2115 2.117 . S
C2090 O2112 1.234 . S
C2090 O2113 1.283 . S
C2091 O2103 1.281 . S
C2091 O2104 1.236 . S
C2092 O2114 1.240 . S
C2092 O2115 1.264 . S
O2093 Mn2088 2.095 . S
O2093 C2102 1.250 . S
O2094 Mn2089 2.121 . S
O2094 C2102 1.258 . S
C2095 N2096 1.326 . S
C2095 C2099 1.460 . S
C2095 H2101 0.929 . S
N2096 Mn2089 2.257 . S
N2096 C2095 1.326 . S
N2096 C2100 1.362 . S
C2097 C2098 1.258 . S
C2097 C2100 1.431 . S
C2097 C2117 1.449 1_455 S
C2098 C2097 1.258 . S
C2098 C2099 1.477 . S
C2098 H2118 0.931 1_455 S
C2099 C2095 1.460 . S
C2099 C2098 1.477 . S
C2099 H2119 0.930 . S
C2100 N2096 1.362 . S
C2100 C2097 1.431 . S
C2100 C2110 1.476 . S
H2101 C2095 0.929 . S
C2102 O2093 1.250 . S
C2102 O2094 1.258 . S
O2103 Mn2088 2.162 . S
O2103 C2091 1.281 . S
O2104 Mn2088 2.297 . S
O2104 C2091 1.236 . S
N2105 Mn2089 2.282 . S
N2105 C2106 1.328 . S
N2105 C2110 1.318 . S
C2106 N2105 1.328 . S
C2106 C2107 1.457 . S
C2106 H2111 0.929 . S
C2107 C2106 1.457 . S
C2107 C2108 1.291 1_455 S
C2107 H2120 0.931 . S
C2108 C2107 1.291 1_655 S
C2108 C2109 1.376 . S
C2108 H2121 0.929 . S
C2109 C2108 1.376 . S
C2109 C2110 1.340 1_655 S
C2109 C2116 1.455 . S
C2110 C2100 1.476 . S
C2110 N2105 1.318 . S
C2110 C2109 1.340 1_455 S
H2111 C2106 0.929 . S
O2112 Mn2088 2.385 . S
O2112 C2090 1.234 . S
O2113 Mn2088 2.209 . S
O2113 Mn2089 2.215 . S
O2113 C2090 1.283 . S
O2114 Mn2088 2.094 . S
O2114 C2092 1.240 . S
O2115 Mn2089 2.117 . S
O2115 C2092 1.264 . S
C2116 C2109 1.455 . S
C2116 C2117 1.399 . S
C2116 H2122 0.929 . S
C2117 C2097 1.449 1_655 S
C2117 C2116 1.399 . S
C2117 H2123 0.930 . S
H2118 C2098 0.931 1_655 S
H2119 C2099 0.930 . S
H2120 C2107 0.931 . S
H2121 C2108 0.929 . S
H2122 C2116 0.929 . S
H2123 C2117 0.930 . S
Mn2124 O2129 2.095 . S
Mn2124 O2139 2.162 . S
Mn2124 O2140 2.297 . S
Mn2124 O2148 2.385 . S
Mn2124 O2149 2.209 . S
Mn2124 O2150 2.094 . S
Mn2125 O2130 2.121 . S
Mn2125 N2132 2.257 . S
Mn2125 N2141 2.282 . S
Mn2125 O2149 2.215 . S
Mn2125 O2151 2.117 . S
C2126 O2148 1.234 . S
C2126 O2149 1.283 . S
C2127 O2139 1.281 . S
C2127 O2140 1.236 . S
C2128 O2150 1.240 . S
C2128 O2151 1.264 . S
O2129 Mn2124 2.095 . S
O2129 C2138 1.250 . S
O2130 Mn2125 2.121 . S
O2130 C2138 1.258 . S
C2131 N2132 1.326 . S
C2131 C2135 1.460 . S
C2131 H2137 0.929 . S
N2132 Mn2125 2.257 . S
N2132 C2131 1.326 . S
N2132 C2136 1.362 . S
C2133 C2134 1.258 . S
C2133 C2136 1.431 . S
C2133 C2153 1.449 1_545 S
C2134 C2133 1.258 . S
C2134 C2135 1.477 . S
C2134 H2154 0.931 1_545 S
C2135 C2131 1.460 . S
C2135 C2134 1.477 . S
C2135 H2155 0.930 . S
C2136 N2132 1.362 . S
C2136 C2133 1.431 . S
C2136 C2146 1.476 . S
H2137 C2131 0.929 . S
C2138 O2129 1.250 . S
C2138 O2130 1.258 . S
O2139 Mn2124 2.162 . S
O2139 C2127 1.281 . S
O2140 Mn2124 2.297 . S
O2140 C2127 1.236 . S
N2141 Mn2125 2.282 . S
N2141 C2142 1.328 . S
N2141 C2146 1.318 . S
C2142 N2141 1.328 . S
C2142 C2143 1.457 . S
C2142 H2147 0.929 . S
C2143 C2142 1.457 . S
C2143 C2144 1.291 1_545 S
C2143 H2156 0.931 . S
C2144 C2143 1.291 1_565 S
C2144 C2145 1.376 . S
C2144 H2157 0.929 . S
C2145 C2144 1.376 . S
C2145 C2146 1.340 1_565 S
C2145 C2152 1.455 . S
C2146 C2136 1.476 . S
C2146 N2141 1.318 . S
C2146 C2145 1.340 1_545 S
H2147 C2142 0.929 . S
O2148 Mn2124 2.385 . S
O2148 C2126 1.234 . S
O2149 Mn2124 2.209 . S
O2149 Mn2125 2.215 . S
O2149 C2126 1.283 . S
O2150 Mn2124 2.094 . S
O2150 C2128 1.240 . S
O2151 Mn2125 2.117 . S
O2151 C2128 1.264 . S
C2152 C2145 1.455 . S
C2152 C2153 1.399 . S
C2152 H2158 0.929 . S
C2153 C2133 1.449 1_565 S
C2153 C2152 1.399 . S
C2153 H2159 0.930 . S
H2154 C2134 0.931 1_565 S
H2155 C2135 0.930 . S
H2156 C2143 0.931 . S
H2157 C2144 0.929 . S
H2158 C2152 0.929 . S
H2159 C2153 0.930 . S
Mn2160 O2165 2.095 . S
Mn2160 O2175 2.162 . S
Mn2160 O2176 2.297 . S
Mn2160 O2184 2.385 . S
Mn2160 O2185 2.209 . S
Mn2160 O2186 2.094 . S
Mn2161 O2166 2.121 . S
Mn2161 N2168 2.257 . S
Mn2161 N2177 2.282 . S
Mn2161 O2185 2.215 . S
Mn2161 O2187 2.117 . S
C2162 O2184 1.234 . S
C2162 O2185 1.283 . S
C2163 O2175 1.281 . S
C2163 O2176 1.236 . S
C2164 O2186 1.240 . S
C2164 O2187 1.264 . S
O2165 Mn2160 2.095 . S
O2165 C2174 1.250 . S
O2166 Mn2161 2.121 . S
O2166 C2174 1.258 . S
C2167 N2168 1.326 . S
C2167 C2171 1.460 . S
C2167 H2173 0.929 . S
N2168 Mn2161 2.257 . S
N2168 C2167 1.326 . S
N2168 C2172 1.362 . S
C2169 C2170 1.258 . S
C2169 C2172 1.431 . S
C2169 C2189 1.449 1_655 S
C2170 C2169 1.258 . S
C2170 C2171 1.477 . S
C2170 H2190 0.931 1_655 S
C2171 C2167 1.460 . S
C2171 C2170 1.477 . S
C2171 H2191 0.930 . S
C2172 N2168 1.362 . S
C2172 C2169 1.431 . S
C2172 C2182 1.476 . S
H2173 C2167 0.929 . S
C2174 O2165 1.250 . S
C2174 O2166 1.258 . S
O2175 Mn2160 2.162 . S
O2175 C2163 1.281 . S
O2176 Mn2160 2.297 . S
O2176 C2163 1.236 . S
N2177 Mn2161 2.282 . S
N2177 C2178 1.328 . S
N2177 C2182 1.318 . S
C2178 N2177 1.328 . S
C2178 C2179 1.457 . S
C2178 H2183 0.929 . S
C2179 C2178 1.457 . S
C2179 C2180 1.291 1_655 S
C2179 H2192 0.931 . S
C2180 C2179 1.291 1_455 S
C2180 C2181 1.376 . S
C2180 H2193 0.929 . S
C2181 C2180 1.376 . S
C2181 C2182 1.340 1_455 S
C2181 C2188 1.455 . S
C2182 C2172 1.476 . S
C2182 N2177 1.318 . S
C2182 C2181 1.340 1_655 S
H2183 C2178 0.929 . S
O2184 Mn2160 2.385 . S
O2184 C2162 1.234 . S
O2185 Mn2160 2.209 . S
O2185 Mn2161 2.215 . S
O2185 C2162 1.283 . S
O2186 Mn2160 2.094 . S
O2186 C2164 1.240 . S
O2187 Mn2161 2.117 . S
O2187 C2164 1.264 . S
C2188 C2181 1.455 . S
C2188 C2189 1.399 . S
C2188 H2194 0.929 . S
C2189 C2169 1.449 1_455 S
C2189 C2188 1.399 . S
C2189 H2195 0.930 . S
H2190 C2170 0.931 1_455 S
H2191 C2171 0.930 . S
H2192 C2179 0.931 . S
H2193 C2180 0.929 . S
H2194 C2188 0.929 . S
H2195 C2189 0.930 . S
Mn2196 O2201 2.095 . S
Mn2196 O2211 2.162 . S
Mn2196 O2212 2.297 . S
Mn2196 O2220 2.385 . S
Mn2196 O2221 2.209 . S
Mn2196 O2222 2.094 . S
Mn2197 O2202 2.121 . S
Mn2197 N2204 2.257 . S
Mn2197 N2213 2.282 . S
Mn2197 O2221 2.215 . S
Mn2197 O2223 2.117 . S
C2198 O2220 1.234 . S
C2198 O2221 1.283 . S
C2199 O2211 1.281 . S
C2199 O2212 1.236 . S
C2200 O2222 1.240 . S
C2200 O2223 1.264 . S
O2201 Mn2196 2.095 . S
O2201 C2210 1.250 . S
O2202 Mn2197 2.121 . S
O2202 C2210 1.258 . S
C2203 N2204 1.326 . S
C2203 C2207 1.460 . S
C2203 H2209 0.929 . S
N2204 Mn2197 2.257 . S
N2204 C2203 1.326 . S
N2204 C2208 1.362 . S
C2205 C2206 1.258 . S
C2205 C2208 1.431 . S
C2205 C2225 1.449 1_565 S
C2206 C2205 1.258 . S
C2206 C2207 1.477 . S
C2206 H2226 0.931 1_565 S
C2207 C2203 1.460 . S
C2207 C2206 1.477 . S
C2207 H2227 0.930 . S
C2208 N2204 1.362 . S
C2208 C2205 1.431 . S
C2208 C2218 1.476 . S
H2209 C2203 0.929 . S
C2210 O2201 1.250 . S
C2210 O2202 1.258 . S
O2211 Mn2196 2.162 . S
O2211 C2199 1.281 . S
O2212 Mn2196 2.297 . S
O2212 C2199 1.236 . S
N2213 Mn2197 2.282 . S
N2213 C2214 1.328 . S
N2213 C2218 1.318 . S
C2214 N2213 1.328 . S
C2214 C2215 1.457 . S
C2214 H2219 0.929 . S
C2215 C2214 1.457 . S
C2215 C2216 1.291 1_565 S
C2215 H2228 0.931 . S
C2216 C2215 1.291 1_545 S
C2216 C2217 1.376 . S
C2216 H2229 0.929 . S
C2217 C2216 1.376 . S
C2217 C2218 1.340 1_545 S
C2217 C2224 1.455 . S
C2218 C2208 1.476 . S
C2218 N2213 1.318 . S
C2218 C2217 1.340 1_565 S
H2219 C2214 0.929 . S
O2220 Mn2196 2.385 . S
O2220 C2198 1.234 . S
O2221 Mn2196 2.209 . S
O2221 Mn2197 2.215 . S
O2221 C2198 1.283 . S
O2222 Mn2196 2.094 . S
O2222 C2200 1.240 . S
O2223 Mn2197 2.117 . S
O2223 C2200 1.264 . S
C2224 C2217 1.455 . S
C2224 C2225 1.399 . S
C2224 H2230 0.929 . S
C2225 C2205 1.449 1_545 S
C2225 C2224 1.399 . S
C2225 H2231 0.930 . S
H2226 C2206 0.931 1_545 S
H2227 C2207 0.930 . S
H2228 C2215 0.931 . S
H2229 C2216 0.929 . S
H2230 C2224 0.929 . S
H2231 C2225 0.930 . S
Mn2232 O2237 2.095 . S
Mn2232 O2247 2.162 . S
Mn2232 O2248 2.297 . S
Mn2232 O2256 2.385 . S
Mn2232 O2257 2.209 . S
Mn2232 O2258 2.094 . S
Mn2233 O2238 2.121 . S
Mn2233 N2240 2.257 . S
Mn2233 N2249 2.282 . S
Mn2233 O2257 2.215 . S
Mn2233 O2259 2.117 . S
C2234 O2256 1.234 . S
C2234 O2257 1.283 . S
C2235 O2247 1.281 . S
C2235 O2248 1.236 . S
C2236 O2258 1.240 . S
C2236 O2259 1.264 . S
O2237 Mn2232 2.095 . S
O2237 C2246 1.250 . S
O2238 Mn2233 2.121 . S
O2238 C2246 1.258 . S
C2239 N2240 1.326 . S
C2239 C2243 1.460 . S
C2239 H2245 0.929 . S
N2240 Mn2233 2.257 . S
N2240 C2239 1.326 . S
N2240 C2244 1.362 . S
C2241 C2242 1.258 . S
C2241 C2244 1.431 . S
C2241 C2261 1.449 1_455 S
C2242 C2241 1.258 . S
C2242 C2243 1.477 . S
C2242 H2262 0.931 1_455 S
C2243 C2239 1.460 . S
C2243 C2242 1.477 . S
C2243 H2263 0.930 . S
C2244 N2240 1.362 . S
C2244 C2241 1.431 . S
C2244 C2254 1.476 . S
H2245 C2239 0.929 . S
C2246 O2237 1.250 . S
C2246 O2238 1.258 . S
O2247 Mn2232 2.162 . S
O2247 C2235 1.281 . S
O2248 Mn2232 2.297 . S
O2248 C2235 1.236 . S
N2249 Mn2233 2.282 . S
N2249 C2250 1.328 . S
N2249 C2254 1.318 . S
C2250 N2249 1.328 . S
C2250 C2251 1.457 . S
C2250 H2255 0.929 . S
C2251 C2250 1.457 . S
C2251 C2252 1.291 1_455 S
C2251 H2264 0.931 . S
C2252 C2251 1.291 1_655 S
C2252 C2253 1.376 . S
C2252 H2265 0.929 . S
C2253 C2252 1.376 . S
C2253 C2254 1.340 1_655 S
C2253 C2260 1.455 . S
C2254 C2244 1.476 . S
C2254 N2249 1.318 . S
C2254 C2253 1.340 1_455 S
H2255 C2250 0.929 . S
O2256 Mn2232 2.385 . S
O2256 C2234 1.234 . S
O2257 Mn2232 2.209 . S
O2257 Mn2233 2.215 . S
O2257 C2234 1.283 . S
O2258 Mn2232 2.094 . S
O2258 C2236 1.240 . S
O2259 Mn2233 2.117 . S
O2259 C2236 1.264 . S
C2260 C2253 1.455 . S
C2260 C2261 1.399 . S
C2260 H2266 0.929 . S
C2261 C2241 1.449 1_655 S
C2261 C2260 1.399 . S
C2261 H2267 0.930 . S
H2262 C2242 0.931 1_655 S
H2263 C2243 0.930 . S
H2264 C2251 0.931 . S
H2265 C2252 0.929 . S
H2266 C2260 0.929 . S
H2267 C2261 0.930 . S
Mn2268 O2273 2.095 . S
Mn2268 O2283 2.162 . S
Mn2268 O2284 2.297 . S
Mn2268 O2292 2.385 . S
Mn2268 O2293 2.209 . S
Mn2268 O2294 2.094 . S
Mn2269 O2274 2.121 . S
Mn2269 N2276 2.257 . S
Mn2269 N2285 2.282 . S
Mn2269 O2293 2.215 . S
Mn2269 O2295 2.117 . S
C2270 O2292 1.234 . S
C2270 O2293 1.283 . S
C2271 O2283 1.281 . S
C2271 O2284 1.236 . S
C2272 O2294 1.240 . S
C2272 O2295 1.264 . S
O2273 Mn2268 2.095 . S
O2273 C2282 1.250 . S
O2274 Mn2269 2.121 . S
O2274 C2282 1.258 . S
C2275 N2276 1.326 . S
C2275 C2279 1.460 . S
C2275 H2281 0.929 . S
N2276 Mn2269 2.257 . S
N2276 C2275 1.326 . S
N2276 C2280 1.362 . S
C2277 C2278 1.258 . S
C2277 C2280 1.431 . S
C2277 C2297 1.449 1_545 S
C2278 C2277 1.258 . S
C2278 C2279 1.477 . S
C2278 H2298 0.931 1_545 S
C2279 C2275 1.460 . S
C2279 C2278 1.477 . S
C2279 H2299 0.930 . S
C2280 N2276 1.362 . S
C2280 C2277 1.431 . S
C2280 C2290 1.476 . S
H2281 C2275 0.929 . S
C2282 O2273 1.250 . S
C2282 O2274 1.258 . S
O2283 Mn2268 2.162 . S
O2283 C2271 1.281 . S
O2284 Mn2268 2.297 . S
O2284 C2271 1.236 . S
N2285 Mn2269 2.282 . S
N2285 C2286 1.328 . S
N2285 C2290 1.318 . S
C2286 N2285 1.328 . S
C2286 C2287 1.457 . S
C2286 H2291 0.929 . S
C2287 C2286 1.457 . S
C2287 C2288 1.291 1_545 S
C2287 H2300 0.931 . S
C2288 C2287 1.291 1_565 S
C2288 C2289 1.376 . S
C2288 H2301 0.929 . S
C2289 C2288 1.376 . S
C2289 C2290 1.340 1_565 S
C2289 C2296 1.455 . S
C2290 C2280 1.476 . S
C2290 N2285 1.318 . S
C2290 C2289 1.340 1_545 S
H2291 C2286 0.929 . S
O2292 Mn2268 2.385 . S
O2292 C2270 1.234 . S
O2293 Mn2268 2.209 . S
O2293 Mn2269 2.215 . S
O2293 C2270 1.283 . S
O2294 Mn2268 2.094 . S
O2294 C2272 1.240 . S
O2295 Mn2269 2.117 . S
O2295 C2272 1.264 . S
C2296 C2289 1.455 . S
C2296 C2297 1.399 . S
C2296 H2302 0.929 . S
C2297 C2277 1.449 1_565 S
C2297 C2296 1.399 . S
C2297 H2303 0.930 . S
H2298 C2278 0.931 1_565 S
H2299 C2279 0.930 . S
H2300 C2287 0.931 . S
H2301 C2288 0.929 . S
H2302 C2296 0.929 . S
H2303 C2297 0.930 . S
Mn2304 O2309 2.095 . S
Mn2304 O2319 2.162 . S
Mn2304 O2320 2.297 . S
Mn2304 O2328 2.385 . S
Mn2304 O2329 2.209 . S
Mn2304 O2330 2.094 . S
Mn2305 O2310 2.121 . S
Mn2305 N2312 2.257 . S
Mn2305 N2321 2.282 . S
Mn2305 O2329 2.215 . S
Mn2305 O2331 2.117 . S
C2306 O2328 1.234 . S
C2306 O2329 1.283 . S
C2307 O2319 1.281 . S
C2307 O2320 1.236 . S
C2308 O2330 1.240 . S
C2308 O2331 1.264 . S
O2309 Mn2304 2.095 . S
O2309 C2318 1.250 . S
O2310 Mn2305 2.121 . S
O2310 C2318 1.258 . S
C2311 N2312 1.326 . S
C2311 C2315 1.460 . S
C2311 H2317 0.929 . S
N2312 Mn2305 2.257 . S
N2312 C2311 1.326 . S
N2312 C2316 1.362 . S
C2313 C2314 1.258 . S
C2313 C2316 1.431 . S
C2313 C2333 1.449 1_565 S
C2314 C2313 1.258 . S
C2314 C2315 1.477 . S
C2314 H2334 0.931 1_565 S
C2315 C2311 1.460 . S
C2315 C2314 1.477 . S
C2315 H2335 0.930 . S
C2316 N2312 1.362 . S
C2316 C2313 1.431 . S
C2316 C2326 1.476 . S
H2317 C2311 0.929 . S
C2318 O2309 1.250 . S
C2318 O2310 1.258 . S
O2319 Mn2304 2.162 . S
O2319 C2307 1.281 . S
O2320 Mn2304 2.297 . S
O2320 C2307 1.236 . S
N2321 Mn2305 2.282 . S
N2321 C2322 1.328 . S
N2321 C2326 1.318 . S
C2322 N2321 1.328 . S
C2322 C2323 1.457 . S
C2322 H2327 0.929 . S
C2323 C2322 1.457 . S
C2323 C2324 1.291 1_565 S
C2323 H2336 0.931 . S
C2324 C2323 1.291 1_545 S
C2324 C2325 1.376 . S
C2324 H2337 0.929 . S
C2325 C2324 1.376 . S
C2325 C2326 1.340 1_545 S
C2325 C2332 1.455 . S
C2326 C2316 1.476 . S
C2326 N2321 1.318 . S
C2326 C2325 1.340 1_565 S
H2327 C2322 0.929 . S
O2328 Mn2304 2.385 . S
O2328 C2306 1.234 . S
O2329 Mn2304 2.209 . S
O2329 Mn2305 2.215 . S
O2329 C2306 1.283 . S
O2330 Mn2304 2.094 . S
O2330 C2308 1.240 . S
O2331 Mn2305 2.117 . S
O2331 C2308 1.264 . S
C2332 C2325 1.455 . S
C2332 C2333 1.399 . S
C2332 H2338 0.929 . S
C2333 C2313 1.449 1_545 S
C2333 C2332 1.399 . S
C2333 H2339 0.930 . S
H2334 C2314 0.931 1_545 S
H2335 C2315 0.930 . S
H2336 C2323 0.931 . S
H2337 C2324 0.929 . S
H2338 C2332 0.929 . S
H2339 C2333 0.930 . S
Mn2340 O2345 2.095 . S
Mn2340 O2355 2.162 . S
Mn2340 O2356 2.297 . S
Mn2340 O2364 2.385 . S
Mn2340 O2365 2.209 . S
Mn2340 O2366 2.094 . S
Mn2341 O2346 2.121 . S
Mn2341 N2348 2.257 . S
Mn2341 N2357 2.282 . S
Mn2341 O2365 2.215 . S
Mn2341 O2367 2.117 . S
C2342 O2364 1.234 . S
C2342 O2365 1.283 . S
C2343 O2355 1.281 . S
C2343 O2356 1.236 . S
C2344 O2366 1.240 . S
C2344 O2367 1.264 . S
O2345 Mn2340 2.095 . S
O2345 C2354 1.250 . S
O2346 Mn2341 2.121 . S
O2346 C2354 1.258 . S
C2347 N2348 1.326 . S
C2347 C2351 1.460 . S
C2347 H2353 0.929 . S
N2348 Mn2341 2.257 . S
N2348 C2347 1.326 . S
N2348 C2352 1.362 . S
C2349 C2350 1.258 . S
C2349 C2352 1.431 . S
C2349 C2369 1.449 1_545 S
C2350 C2349 1.258 . S
C2350 C2351 1.477 . S
C2350 H2370 0.931 1_545 S
C2351 C2347 1.460 . S
C2351 C2350 1.477 . S
C2351 H2371 0.930 . S
C2352 N2348 1.362 . S
C2352 C2349 1.431 . S
C2352 C2362 1.476 . S
H2353 C2347 0.929 . S
C2354 O2345 1.250 . S
C2354 O2346 1.258 . S
O2355 Mn2340 2.162 . S
O2355 C2343 1.281 . S
O2356 Mn2340 2.297 . S
O2356 C2343 1.236 . S
N2357 Mn2341 2.282 . S
N2357 C2358 1.328 . S
N2357 C2362 1.318 . S
C2358 N2357 1.328 . S
C2358 C2359 1.457 . S
C2358 H2363 0.929 . S
C2359 C2358 1.457 . S
C2359 C2360 1.291 1_545 S
C2359 H2372 0.931 . S
C2360 C2359 1.291 1_565 S
C2360 C2361 1.376 . S
C2360 H2373 0.929 . S
C2361 C2360 1.376 . S
C2361 C2362 1.340 1_565 S
C2361 C2368 1.455 . S
C2362 C2352 1.476 . S
C2362 N2357 1.318 . S
C2362 C2361 1.340 1_545 S
H2363 C2358 0.929 . S
O2364 Mn2340 2.385 . S
O2364 C2342 1.234 . S
O2365 Mn2340 2.209 . S
O2365 Mn2341 2.215 . S
O2365 C2342 1.283 . S
O2366 Mn2340 2.094 . S
O2366 C2344 1.240 . S
O2367 Mn2341 2.117 . S
O2367 C2344 1.264 . S
C2368 C2361 1.455 . S
C2368 C2369 1.399 . S
C2368 H2374 0.929 . S
C2369 C2349 1.449 1_565 S
C2369 C2368 1.399 . S
C2369 H2375 0.930 . S
H2370 C2350 0.931 1_565 S
H2371 C2351 0.930 . S
H2372 C2359 0.931 . S
H2373 C2360 0.929 . S
H2374 C2368 0.929 . S
H2375 C2369 0.930 . S
Mn2376 O2381 2.095 . S
Mn2376 O2391 2.162 . S
Mn2376 O2392 2.297 . S
Mn2376 O2400 2.385 . S
Mn2376 O2401 2.209 . S
Mn2376 O2402 2.094 . S
Mn2377 O2382 2.121 . S
Mn2377 N2384 2.257 . S
Mn2377 N2393 2.282 . S
Mn2377 O2401 2.215 . S
Mn2377 O2403 2.117 . S
C2378 O2400 1.234 . S
C2378 O2401 1.283 . S
C2379 O2391 1.281 . S
C2379 O2392 1.236 . S
C2380 O2402 1.240 . S
C2380 O2403 1.264 . S
O2381 Mn2376 2.095 . S
O2381 C2390 1.250 . S
O2382 Mn2377 2.121 . S
O2382 C2390 1.258 . S
C2383 N2384 1.326 . S
C2383 C2387 1.460 . S
C2383 H2389 0.929 . S
N2384 Mn2377 2.257 . S
N2384 C2383 1.326 . S
N2384 C2388 1.362 . S
C2385 C2386 1.258 . S
C2385 C2388 1.431 . S
C2385 C2405 1.449 1_655 S
C2386 C2385 1.258 . S
C2386 C2387 1.477 . S
C2386 H2406 0.931 1_655 S
C2387 C2383 1.460 . S
C2387 C2386 1.477 . S
C2387 H2407 0.930 . S
C2388 N2384 1.362 . S
C2388 C2385 1.431 . S
C2388 C2398 1.476 . S
H2389 C2383 0.929 . S
C2390 O2381 1.250 . S
C2390 O2382 1.258 . S
O2391 Mn2376 2.162 . S
O2391 C2379 1.281 . S
O2392 Mn2376 2.297 . S
O2392 C2379 1.236 . S
N2393 Mn2377 2.282 . S
N2393 C2394 1.328 . S
N2393 C2398 1.318 . S
C2394 N2393 1.328 . S
C2394 C2395 1.457 . S
C2394 H2399 0.929 . S
C2395 C2394 1.457 . S
C2395 C2396 1.291 1_655 S
C2395 H2408 0.931 . S
C2396 C2395 1.291 1_455 S
C2396 C2397 1.376 . S
C2396 H2409 0.929 . S
C2397 C2396 1.376 . S
C2397 C2398 1.340 1_455 S
C2397 C2404 1.455 . S
C2398 C2388 1.476 . S
C2398 N2393 1.318 . S
C2398 C2397 1.340 1_655 S
H2399 C2394 0.929 . S
O2400 Mn2376 2.385 . S
O2400 C2378 1.234 . S
O2401 Mn2376 2.209 . S
O2401 Mn2377 2.215 . S
O2401 C2378 1.283 . S
O2402 Mn2376 2.094 . S
O2402 C2380 1.240 . S
O2403 Mn2377 2.117 . S
O2403 C2380 1.264 . S
C2404 C2397 1.455 . S
C2404 C2405 1.399 . S
C2404 H2410 0.929 . S
C2405 C2385 1.449 1_455 S
C2405 C2404 1.399 . S
C2405 H2411 0.930 . S
H2406 C2386 0.931 1_455 S
H2407 C2387 0.930 . S
H2408 C2395 0.931 . S
H2409 C2396 0.929 . S
H2410 C2404 0.929 . S
H2411 C2405 0.930 . S
Mn2412 O2417 2.095 . S
Mn2412 O2427 2.162 . S
Mn2412 O2428 2.297 . S
Mn2412 O2436 2.385 . S
Mn2412 O2437 2.209 . S
Mn2412 O2438 2.094 . S
Mn2413 O2418 2.121 . S
Mn2413 N2420 2.257 . S
Mn2413 N2429 2.282 . S
Mn2413 O2437 2.215 . S
Mn2413 O2439 2.117 . S
C2414 O2436 1.234 . S
C2414 O2437 1.283 . S
C2415 O2427 1.281 . S
C2415 O2428 1.236 . S
C2416 O2438 1.240 . S
C2416 O2439 1.264 . S
O2417 Mn2412 2.095 . S
O2417 C2426 1.250 . S
O2418 Mn2413 2.121 . S
O2418 C2426 1.258 . S
C2419 N2420 1.326 . S
C2419 C2423 1.460 . S
C2419 H2425 0.929 . S
N2420 Mn2413 2.257 . S
N2420 C2419 1.326 . S
N2420 C2424 1.362 . S
C2421 C2422 1.258 . S
C2421 C2424 1.431 . S
C2421 C2441 1.449 1_565 S
C2422 C2421 1.258 . S
C2422 C2423 1.477 . S
C2422 H2442 0.931 1_565 S
C2423 C2419 1.460 . S
C2423 C2422 1.477 . S
C2423 H2443 0.930 . S
C2424 N2420 1.362 . S
C2424 C2421 1.431 . S
C2424 C2434 1.476 . S
H2425 C2419 0.929 . S
C2426 O2417 1.250 . S
C2426 O2418 1.258 . S
O2427 Mn2412 2.162 . S
O2427 C2415 1.281 . S
O2428 Mn2412 2.297 . S
O2428 C2415 1.236 . S
N2429 Mn2413 2.282 . S
N2429 C2430 1.328 . S
N2429 C2434 1.318 . S
C2430 N2429 1.328 . S
C2430 C2431 1.457 . S
C2430 H2435 0.929 . S
C2431 C2430 1.457 . S
C2431 C2432 1.291 1_565 S
C2431 H2444 0.931 . S
C2432 C2431 1.291 1_545 S
C2432 C2433 1.376 . S
C2432 H2445 0.929 . S
C2433 C2432 1.376 . S
C2433 C2434 1.340 1_545 S
C2433 C2440 1.455 . S
C2434 C2424 1.476 . S
C2434 N2429 1.318 . S
C2434 C2433 1.340 1_565 S
H2435 C2430 0.929 . S
O2436 Mn2412 2.385 . S
O2436 C2414 1.234 . S
O2437 Mn2412 2.209 . S
O2437 Mn2413 2.215 . S
O2437 C2414 1.283 . S
O2438 Mn2412 2.094 . S
O2438 C2416 1.240 . S
O2439 Mn2413 2.117 . S
O2439 C2416 1.264 . S
C2440 C2433 1.455 . S
C2440 C2441 1.399 . S
C2440 H2446 0.929 . S
C2441 C2421 1.449 1_545 S
C2441 C2440 1.399 . S
C2441 H2447 0.930 . S
H2442 C2422 0.931 1_545 S
H2443 C2423 0.930 . S
H2444 C2431 0.931 . S
H2445 C2432 0.929 . S
H2446 C2440 0.929 . S
H2447 C2441 0.930 . S
Mn2448 O2453 2.095 . S
Mn2448 O2463 2.162 . S
Mn2448 O2464 2.297 . S
Mn2448 O2472 2.385 . S
Mn2448 O2473 2.209 . S
Mn2448 O2474 2.094 . S
Mn2449 O2454 2.121 . S
Mn2449 N2456 2.257 . S
Mn2449 N2465 2.282 . S
Mn2449 O2473 2.215 . S
Mn2449 O2475 2.117 . S
C2450 O2472 1.234 . S
C2450 O2473 1.283 . S
C2451 O2463 1.281 . S
C2451 O2464 1.236 . S
C2452 O2474 1.240 . S
C2452 O2475 1.264 . S
O2453 Mn2448 2.095 . S
O2453 C2462 1.250 . S
O2454 Mn2449 2.121 . S
O2454 C2462 1.258 . S
C2455 N2456 1.326 . S
C2455 C2459 1.460 . S
C2455 H2461 0.929 . S
N2456 Mn2449 2.257 . S
N2456 C2455 1.326 . S
N2456 C2460 1.362 . S
C2457 C2458 1.258 . S
C2457 C2460 1.431 . S
C2457 C2477 1.449 1_455 S
C2458 C2457 1.258 . S
C2458 C2459 1.477 . S
C2458 H2478 0.931 1_455 S
C2459 C2455 1.460 . S
C2459 C2458 1.477 . S
C2459 H2479 0.930 . S
C2460 N2456 1.362 . S
C2460 C2457 1.431 . S
C2460 C2470 1.476 . S
H2461 C2455 0.929 . S
C2462 O2453 1.250 . S
C2462 O2454 1.258 . S
O2463 Mn2448 2.162 . S
O2463 C2451 1.281 . S
O2464 Mn2448 2.297 . S
O2464 C2451 1.236 . S
N2465 Mn2449 2.282 . S
N2465 C2466 1.328 . S
N2465 C2470 1.318 . S
C2466 N2465 1.328 . S
C2466 C2467 1.457 . S
C2466 H2471 0.929 . S
C2467 C2466 1.457 . S
C2467 C2468 1.291 1_455 S
C2467 H2480 0.931 . S
C2468 C2467 1.291 1_655 S
C2468 C2469 1.376 . S
C2468 H2481 0.929 . S
C2469 C2468 1.376 . S
C2469 C2470 1.340 1_655 S
C2469 C2476 1.455 . S
C2470 C2460 1.476 . S
C2470 N2465 1.318 . S
C2470 C2469 1.340 1_455 S
H2471 C2466 0.929 . S
O2472 Mn2448 2.385 . S
O2472 C2450 1.234 . S
O2473 Mn2448 2.209 . S
O2473 Mn2449 2.215 . S
O2473 C2450 1.283 . S
O2474 Mn2448 2.094 . S
O2474 C2452 1.240 . S
O2475 Mn2449 2.117 . S
O2475 C2452 1.264 . S
C2476 C2469 1.455 . S
C2476 C2477 1.399 . S
C2476 H2482 0.929 . S
C2477 C2457 1.449 1_655 S
C2477 C2476 1.399 . S
C2477 H2483 0.930 . S
H2478 C2458 0.931 1_655 S
H2479 C2459 0.930 . S
H2480 C2467 0.931 . S
H2481 C2468 0.929 . S
H2482 C2476 0.929 . S
H2483 C2477 0.930 . S
Mn2484 O2489 2.095 . S
Mn2484 O2499 2.162 . S
Mn2484 O2500 2.297 . S
Mn2484 O2508 2.385 . S
Mn2484 O2509 2.209 . S
Mn2484 O2510 2.094 . S
Mn2485 O2490 2.121 . S
Mn2485 N2492 2.257 . S
Mn2485 N2501 2.282 . S
Mn2485 O2509 2.215 . S
Mn2485 O2511 2.117 . S
C2486 O2508 1.234 . S
C2486 O2509 1.283 . S
C2487 O2499 1.281 . S
C2487 O2500 1.236 . S
C2488 O2510 1.240 . S
C2488 O2511 1.264 . S
O2489 Mn2484 2.095 . S
O2489 C2498 1.250 . S
O2490 Mn2485 2.121 . S
O2490 C2498 1.258 . S
C2491 N2492 1.326 . S
C2491 C2495 1.460 . S
C2491 H2497 0.929 . S
N2492 Mn2485 2.257 . S
N2492 C2491 1.326 . S
N2492 C2496 1.362 . S
C2493 C2494 1.258 . S
C2493 C2496 1.431 . S
C2493 C2513 1.449 1_545 S
C2494 C2493 1.258 . S
C2494 C2495 1.477 . S
C2494 H2514 0.931 1_545 S
C2495 C2491 1.460 . S
C2495 C2494 1.477 . S
C2495 H2515 0.930 . S
C2496 N2492 1.362 . S
C2496 C2493 1.431 . S
C2496 C2506 1.476 . S
H2497 C2491 0.929 . S
C2498 O2489 1.250 . S
C2498 O2490 1.258 . S
O2499 Mn2484 2.162 . S
O2499 C2487 1.281 . S
O2500 Mn2484 2.297 . S
O2500 C2487 1.236 . S
N2501 Mn2485 2.282 . S
N2501 C2502 1.328 . S
N2501 C2506 1.318 . S
C2502 N2501 1.328 . S
C2502 C2503 1.457 . S
C2502 H2507 0.929 . S
C2503 C2502 1.457 . S
C2503 C2504 1.291 1_545 S
C2503 H2516 0.931 . S
C2504 C2503 1.291 1_565 S
C2504 C2505 1.376 . S
C2504 H2517 0.929 . S
C2505 C2504 1.376 . S
C2505 C2506 1.340 1_565 S
C2505 C2512 1.455 . S
C2506 C2496 1.476 . S
C2506 N2501 1.318 . S
C2506 C2505 1.340 1_545 S
H2507 C2502 0.929 . S
O2508 Mn2484 2.385 . S
O2508 C2486 1.234 . S
O2509 Mn2484 2.209 . S
O2509 Mn2485 2.215 . S
O2509 C2486 1.283 . S
O2510 Mn2484 2.094 . S
O2510 C2488 1.240 . S
O2511 Mn2485 2.117 . S
O2511 C2488 1.264 . S
C2512 C2505 1.455 . S
C2512 C2513 1.399 . S
C2512 H2518 0.929 . S
C2513 C2493 1.449 1_565 S
C2513 C2512 1.399 . S
C2513 H2519 0.930 . S
H2514 C2494 0.931 1_565 S
H2515 C2495 0.930 . S
H2516 C2503 0.931 . S
H2517 C2504 0.929 . S
H2518 C2512 0.929 . S
H2519 C2513 0.930 . S
Mn2520 O2525 2.095 . S
Mn2520 O2535 2.162 . S
Mn2520 O2536 2.297 . S
Mn2520 O2544 2.385 . S
Mn2520 O2545 2.209 . S
Mn2520 O2546 2.094 . S
Mn2521 O2526 2.121 . S
Mn2521 N2528 2.257 . S
Mn2521 N2537 2.282 . S
Mn2521 O2545 2.215 . S
Mn2521 O2547 2.117 . S
C2522 O2544 1.234 . S
C2522 O2545 1.283 . S
C2523 O2535 1.281 . S
C2523 O2536 1.236 . S
C2524 O2546 1.240 . S
C2524 O2547 1.264 . S
O2525 Mn2520 2.095 . S
O2525 C2534 1.250 . S
O2526 Mn2521 2.121 . S
O2526 C2534 1.258 . S
C2527 N2528 1.326 . S
C2527 C2531 1.460 . S
C2527 H2533 0.929 . S
N2528 Mn2521 2.257 . S
N2528 C2527 1.326 . S
N2528 C2532 1.362 . S
C2529 C2530 1.258 . S
C2529 C2532 1.431 . S
C2529 C2549 1.449 1_655 S
C2530 C2529 1.258 . S
C2530 C2531 1.477 . S
C2530 H2550 0.931 1_655 S
C2531 C2527 1.460 . S
C2531 C2530 1.477 . S
C2531 H2551 0.930 . S
C2532 N2528 1.362 . S
C2532 C2529 1.431 . S
C2532 C2542 1.476 . S
H2533 C2527 0.929 . S
C2534 O2525 1.250 . S
C2534 O2526 1.258 . S
O2535 Mn2520 2.162 . S
O2535 C2523 1.281 . S
O2536 Mn2520 2.297 . S
O2536 C2523 1.236 . S
N2537 Mn2521 2.282 . S
N2537 C2538 1.328 . S
N2537 C2542 1.318 . S
C2538 N2537 1.328 . S
C2538 C2539 1.457 . S
C2538 H2543 0.929 . S
C2539 C2538 1.457 . S
C2539 C2540 1.291 1_655 S
C2539 H2552 0.931 . S
C2540 C2539 1.291 1_455 S
C2540 C2541 1.376 . S
C2540 H2553 0.929 . S
C2541 C2540 1.376 . S
C2541 C2542 1.340 1_455 S
C2541 C2548 1.455 . S
C2542 C2532 1.476 . S
C2542 N2537 1.318 . S
C2542 C2541 1.340 1_655 S
H2543 C2538 0.929 . S
O2544 Mn2520 2.385 . S
O2544 C2522 1.234 . S
O2545 Mn2520 2.209 . S
O2545 Mn2521 2.215 . S
O2545 C2522 1.283 . S
O2546 Mn2520 2.094 . S
O2546 C2524 1.240 . S
O2547 Mn2521 2.117 . S
O2547 C2524 1.264 . S
C2548 C2541 1.455 . S
C2548 C2549 1.399 . S
C2548 H2554 0.929 . S
C2549 C2529 1.449 1_455 S
C2549 C2548 1.399 . S
C2549 H2555 0.930 . S
H2550 C2530 0.931 1_455 S
H2551 C2531 0.930 . S
H2552 C2539 0.931 . S
H2553 C2540 0.929 . S
H2554 C2548 0.929 . S
H2555 C2549 0.930 . S
Mn2556 O2561 2.095 . S
Mn2556 O2571 2.162 . S
Mn2556 O2572 2.297 . S
Mn2556 O2580 2.385 . S
Mn2556 O2581 2.209 . S
Mn2556 O2582 2.094 . S
Mn2557 O2562 2.121 . S
Mn2557 N2564 2.257 . S
Mn2557 N2573 2.282 . S
Mn2557 O2581 2.215 . S
Mn2557 O2583 2.117 . S
C2558 O2580 1.234 . S
C2558 O2581 1.283 . S
C2559 O2571 1.281 . S
C2559 O2572 1.236 . S
C2560 O2582 1.240 . S
C2560 O2583 1.264 . S
O2561 Mn2556 2.095 . S
O2561 C2570 1.250 . S
O2562 Mn2557 2.121 . S
O2562 C2570 1.258 . S
C2563 N2564 1.326 . S
C2563 C2567 1.460 . S
C2563 H2569 0.929 . S
N2564 Mn2557 2.257 . S
N2564 C2563 1.326 . S
N2564 C2568 1.362 . S
C2565 C2566 1.258 . S
C2565 C2568 1.431 . S
C2565 C2585 1.449 1_455 S
C2566 C2565 1.258 . S
C2566 C2567 1.477 . S
C2566 H2586 0.931 1_455 S
C2567 C2563 1.460 . S
C2567 C2566 1.477 . S
C2567 H2587 0.930 . S
C2568 N2564 1.362 . S
C2568 C2565 1.431 . S
C2568 C2578 1.476 . S
H2569 C2563 0.929 . S
C2570 O2561 1.250 . S
C2570 O2562 1.258 . S
O2571 Mn2556 2.162 . S
O2571 C2559 1.281 . S
O2572 Mn2556 2.297 . S
O2572 C2559 1.236 . S
N2573 Mn2557 2.282 . S
N2573 C2574 1.328 . S
N2573 C2578 1.318 . S
C2574 N2573 1.328 . S
C2574 C2575 1.457 . S
C2574 H2579 0.929 . S
C2575 C2574 1.457 . S
C2575 C2576 1.291 1_455 S
C2575 H2588 0.931 . S
C2576 C2575 1.291 1_655 S
C2576 C2577 1.376 . S
C2576 H2589 0.929 . S
C2577 C2576 1.376 . S
C2577 C2578 1.340 1_655 S
C2577 C2584 1.455 . S
C2578 C2568 1.476 . S
C2578 N2573 1.318 . S
C2578 C2577 1.340 1_455 S
H2579 C2574 0.929 . S
O2580 Mn2556 2.385 . S
O2580 C2558 1.234 . S
O2581 Mn2556 2.209 . S
O2581 Mn2557 2.215 . S
O2581 C2558 1.283 . S
O2582 Mn2556 2.094 . S
O2582 C2560 1.240 . S
O2583 Mn2557 2.117 . S
O2583 C2560 1.264 . S
C2584 C2577 1.455 . S
C2584 C2585 1.399 . S
C2584 H2590 0.929 . S
C2585 C2565 1.449 1_655 S
C2585 C2584 1.399 . S
C2585 H2591 0.930 . S
H2586 C2566 0.931 1_655 S
H2587 C2567 0.930 . S
H2588 C2575 0.931 . S
H2589 C2576 0.929 . S
H2590 C2584 0.929 . S
H2591 C2585 0.930 . S
Mn2592 O2597 2.095 . S
Mn2592 O2607 2.162 . S
Mn2592 O2608 2.297 . S
Mn2592 O2616 2.385 . S
Mn2592 O2617 2.209 . S
Mn2592 O2618 2.094 . S
Mn2593 O2598 2.121 . S
Mn2593 N2600 2.257 . S
Mn2593 N2609 2.282 . S
Mn2593 O2617 2.215 . S
Mn2593 O2619 2.117 . S
C2594 O2616 1.234 . S
C2594 O2617 1.283 . S
C2595 O2607 1.281 . S
C2595 O2608 1.236 . S
C2596 O2618 1.240 . S
C2596 O2619 1.264 . S
O2597 Mn2592 2.095 . S
O2597 C2606 1.250 . S
O2598 Mn2593 2.121 . S
O2598 C2606 1.258 . S
C2599 N2600 1.326 . S
C2599 C2603 1.460 . S
C2599 H2605 0.929 . S
N2600 Mn2593 2.257 . S
N2600 C2599 1.326 . S
N2600 C2604 1.362 . S
C2601 C2602 1.258 . S
C2601 C2604 1.431 . S
C2601 C2621 1.449 . S
C2602 C2601 1.258 . S
C2602 C2603 1.477 . S
C2602 H2622 0.931 . S
C2603 C2599 1.460 . S
C2603 C2602 1.477 . S
C2603 H2623 0.930 . S
C2604 N2600 1.362 . S
C2604 C2601 1.431 . S
C2604 C2614 1.476 . S
H2605 C2599 0.929 . S
C2606 O2597 1.250 . S
C2606 O2598 1.258 . S
O2607 Mn2592 2.162 . S
O2607 C2595 1.281 . S
O2608 Mn2592 2.297 . S
O2608 C2595 1.236 . S
N2609 Mn2593 2.282 . S
N2609 C2610 1.328 . S
N2609 C2614 1.318 . S
C2610 N2609 1.328 . S
C2610 C2611 1.457 . S
C2610 H2615 0.929 . S
C2611 C2610 1.457 . S
C2611 C2612 1.291 . S
C2611 H2624 0.931 . S
C2612 C2611 1.291 . S
C2612 C2613 1.373 . S
C2612 H2625 0.929 . S
C2613 C2612 1.373 . S
C2613 C2614 1.396 . S
C2613 C2620 1.403 . S
C2614 C2604 1.476 . S
C2614 N2609 1.318 . S
C2614 C2613 1.396 . S
H2615 C2610 0.929 . S
O2616 Mn2592 2.385 . S
O2616 C2594 1.234 . S
O2617 Mn2592 2.209 . S
O2617 Mn2593 2.215 . S
O2617 C2594 1.283 . S
O2618 Mn2592 2.094 . S
O2618 C2596 1.240 . S
O2619 Mn2593 2.117 . S
O2619 C2596 1.264 . S
C2620 C2613 1.403 . S
C2620 C2621 1.399 . S
C2620 H2626 0.929 1_554 S
C2621 C2601 1.449 . S
C2621 C2620 1.399 . S
C2621 H2627 0.930 1_554 S
H2622 C2602 0.931 . S
H2623 C2603 0.930 . S
H2624 C2611 0.931 . S
H2625 C2612 0.929 . S
H2626 C2620 0.929 1_556 S
H2627 C2621 0.930 1_556 S
Mn2628 O2633 2.095 . S
Mn2628 O2643 2.162 . S
Mn2628 O2644 2.297 . S
Mn2628 O2652 2.385 . S
Mn2628 O2653 2.209 . S
Mn2628 O2654 2.094 . S
Mn2629 O2634 2.121 . S
Mn2629 N2636 2.257 . S
Mn2629 N2645 2.282 . S
Mn2629 O2653 2.215 . S
Mn2629 O2655 2.117 . S
C2630 O2652 1.234 . S
C2630 O2653 1.283 . S
C2631 O2643 1.281 . S
C2631 O2644 1.236 . S
C2632 O2654 1.240 . S
C2632 O2655 1.264 . S
O2633 Mn2628 2.095 . S
O2633 C2642 1.250 . S
O2634 Mn2629 2.121 . S
O2634 C2642 1.258 . S
C2635 N2636 1.326 . S
C2635 C2639 1.460 . S
C2635 H2641 0.929 . S
N2636 Mn2629 2.257 . S
N2636 C2635 1.326 . S
N2636 C2640 1.362 . S
C2637 C2638 1.258 . S
C2637 C2640 1.431 . S
C2637 C2657 1.449 . S
C2638 C2637 1.258 . S
C2638 C2639 1.477 . S
C2638 H2658 0.931 . S
C2639 C2635 1.460 . S
C2639 C2638 1.477 . S
C2639 H2659 0.930 . S
C2640 N2636 1.362 . S
C2640 C2637 1.431 . S
C2640 C2650 1.476 . S
H2641 C2635 0.929 . S
C2642 O2633 1.250 . S
C2642 O2634 1.258 . S
O2643 Mn2628 2.162 . S
O2643 C2631 1.281 . S
O2644 Mn2628 2.297 . S
O2644 C2631 1.236 . S
N2645 Mn2629 2.282 . S
N2645 C2646 1.328 . S
N2645 C2650 1.318 . S
C2646 N2645 1.328 . S
C2646 C2647 1.457 . S
C2646 H2651 0.929 . S
C2647 C2646 1.457 . S
C2647 C2648 1.291 . S
C2647 H2660 0.931 . S
C2648 C2647 1.291 . S
C2648 C2649 1.373 . S
C2648 H2661 0.929 . S
C2649 C2648 1.373 . S
C2649 C2650 1.396 . S
C2649 C2656 1.403 . S
C2650 C2640 1.476 . S
C2650 N2645 1.318 . S
C2650 C2649 1.396 . S
H2651 C2646 0.929 . S
O2652 Mn2628 2.385 . S
O2652 C2630 1.234 . S
O2653 Mn2628 2.209 . S
O2653 Mn2629 2.215 . S
O2653 C2630 1.283 . S
O2654 Mn2628 2.094 . S
O2654 C2632 1.240 . S
O2655 Mn2629 2.117 . S
O2655 C2632 1.264 . S
C2656 C2649 1.403 . S
C2656 C2657 1.399 . S
C2656 H2662 0.929 1_554 S
C2657 C2637 1.449 . S
C2657 C2656 1.399 . S
C2657 H2663 0.930 1_554 S
H2658 C2638 0.931 . S
H2659 C2639 0.930 . S
H2660 C2647 0.931 . S
H2661 C2648 0.929 . S
H2662 C2656 0.929 1_556 S
H2663 C2657 0.930 1_556 S
Mn2664 O2669 2.095 . S
Mn2664 O2679 2.162 . S
Mn2664 O2680 2.297 . S
Mn2664 O2688 2.385 . S
Mn2664 O2689 2.209 . S
Mn2664 O2690 2.094 . S
Mn2665 O2670 2.121 . S
Mn2665 N2672 2.257 . S
Mn2665 N2681 2.282 . S
Mn2665 O2689 2.215 . S
Mn2665 O2691 2.117 . S
C2666 O2688 1.234 . S
C2666 O2689 1.283 . S
C2667 O2679 1.281 . S
C2667 O2680 1.236 . S
C2668 O2690 1.240 . S
C2668 O2691 1.264 . S
O2669 Mn2664 2.095 . S
O2669 C2678 1.250 . S
O2670 Mn2665 2.121 . S
O2670 C2678 1.258 . S
C2671 N2672 1.326 . S
C2671 C2675 1.460 . S
C2671 H2677 0.929 . S
N2672 Mn2665 2.257 . S
N2672 C2671 1.326 . S
N2672 C2676 1.362 . S
C2673 C2674 1.258 . S
C2673 C2676 1.431 . S
C2673 C2693 1.449 . S
C2674 C2673 1.258 . S
C2674 C2675 1.477 . S
C2674 H2694 0.931 . S
C2675 C2671 1.460 . S
C2675 C2674 1.477 . S
C2675 H2695 0.930 . S
C2676 N2672 1.362 . S
C2676 C2673 1.431 . S
C2676 C2686 1.476 . S
H2677 C2671 0.929 . S
C2678 O2669 1.250 . S
C2678 O2670 1.258 . S
O2679 Mn2664 2.162 . S
O2679 C2667 1.281 . S
O2680 Mn2664 2.297 . S
O2680 C2667 1.236 . S
N2681 Mn2665 2.282 . S
N2681 C2682 1.328 . S
N2681 C2686 1.318 . S
C2682 N2681 1.328 . S
C2682 C2683 1.457 . S
C2682 H2687 0.929 . S
C2683 C2682 1.457 . S
C2683 C2684 1.291 . S
C2683 H2696 0.931 . S
C2684 C2683 1.291 . S
C2684 C2685 1.373 . S
C2684 H2697 0.929 . S
C2685 C2684 1.373 . S
C2685 C2686 1.396 . S
C2685 C2692 1.403 . S
C2686 C2676 1.476 . S
C2686 N2681 1.318 . S
C2686 C2685 1.396 . S
H2687 C2682 0.929 . S
O2688 Mn2664 2.385 . S
O2688 C2666 1.234 . S
O2689 Mn2664 2.209 . S
O2689 Mn2665 2.215 . S
O2689 C2666 1.283 . S
O2690 Mn2664 2.094 . S
O2690 C2668 1.240 . S
O2691 Mn2665 2.117 . S
O2691 C2668 1.264 . S
C2692 C2685 1.403 . S
C2692 C2693 1.399 . S
C2692 H2698 0.929 1_554 S
C2693 C2673 1.449 . S
C2693 C2692 1.399 . S
C2693 H2699 0.930 1_554 S
H2694 C2674 0.931 . S
H2695 C2675 0.930 . S
H2696 C2683 0.931 . S
H2697 C2684 0.929 . S
H2698 C2692 0.929 1_556 S
H2699 C2693 0.930 1_556 S
Mn2700 O2705 2.095 . S
Mn2700 O2715 2.162 . S
Mn2700 O2716 2.297 . S
Mn2700 O2724 2.385 . S
Mn2700 O2725 2.209 . S
Mn2700 O2726 2.094 . S
Mn2701 O2706 2.121 . S
Mn2701 N2708 2.257 . S
Mn2701 N2717 2.282 . S
Mn2701 O2725 2.215 . S
Mn2701 O2727 2.117 . S
C2702 O2724 1.234 . S
C2702 O2725 1.283 . S
C2703 O2715 1.281 . S
C2703 O2716 1.236 . S
C2704 O2726 1.240 . S
C2704 O2727 1.264 . S
O2705 Mn2700 2.095 . S
O2705 C2714 1.250 . S
O2706 Mn2701 2.121 . S
O2706 C2714 1.258 . S
C2707 N2708 1.326 . S
C2707 C2711 1.460 . S
C2707 H2713 0.929 . S
N2708 Mn2701 2.257 . S
N2708 C2707 1.326 . S
N2708 C2712 1.362 . S
C2709 C2710 1.258 . S
C2709 C2712 1.431 . S
C2709 C2729 1.449 . S
C2710 C2709 1.258 . S
C2710 C2711 1.477 . S
C2710 H2730 0.931 . S
C2711 C2707 1.460 . S
C2711 C2710 1.477 . S
C2711 H2731 0.930 . S
C2712 N2708 1.362 . S
C2712 C2709 1.431 . S
C2712 C2722 1.476 . S
H2713 C2707 0.929 . S
C2714 O2705 1.250 . S
C2714 O2706 1.258 . S
O2715 Mn2700 2.162 . S
O2715 C2703 1.281 . S
O2716 Mn2700 2.297 . S
O2716 C2703 1.236 . S
N2717 Mn2701 2.282 . S
N2717 C2718 1.328 . S
N2717 C2722 1.318 . S
C2718 N2717 1.328 . S
C2718 C2719 1.457 . S
C2718 H2723 0.929 . S
C2719 C2718 1.457 . S
C2719 C2720 1.291 . S
C2719 H2732 0.931 . S
C2720 C2719 1.291 . S
C2720 C2721 1.373 . S
C2720 H2733 0.929 . S
C2721 C2720 1.373 . S
C2721 C2722 1.396 . S
C2721 C2728 1.403 . S
C2722 C2712 1.476 . S
C2722 N2717 1.318 . S
C2722 C2721 1.396 . S
H2723 C2718 0.929 . S
O2724 Mn2700 2.385 . S
O2724 C2702 1.234 . S
O2725 Mn2700 2.209 . S
O2725 Mn2701 2.215 . S
O2725 C2702 1.283 . S
O2726 Mn2700 2.094 . S
O2726 C2704 1.240 . S
O2727 Mn2701 2.117 . S
O2727 C2704 1.264 . S
C2728 C2721 1.403 . S
C2728 C2729 1.399 . S
C2728 H2734 0.929 1_554 S
C2729 C2709 1.449 . S
C2729 C2728 1.399 . S
C2729 H2735 0.930 1_554 S
H2730 C2710 0.931 . S
H2731 C2711 0.930 . S
H2732 C2719 0.931 . S
H2733 C2720 0.929 . S
H2734 C2728 0.929 1_556 S
H2735 C2729 0.930 1_556 S
Mn2736 O2741 2.095 . S
Mn2736 O2751 2.162 . S
Mn2736 O2752 2.297 . S
Mn2736 O2760 2.385 . S
Mn2736 O2761 2.209 . S
Mn2736 O2762 2.094 . S
Mn2737 O2742 2.121 . S
Mn2737 N2744 2.257 . S
Mn2737 N2753 2.282 . S
Mn2737 O2761 2.215 . S
Mn2737 O2763 2.117 . S
C2738 O2760 1.234 . S
C2738 O2761 1.283 . S
C2739 O2751 1.281 . S
C2739 O2752 1.236 . S
C2740 O2762 1.240 . S
C2740 O2763 1.264 . S
O2741 Mn2736 2.095 . S
O2741 C2750 1.250 . S
O2742 Mn2737 2.121 . S
O2742 C2750 1.258 . S
C2743 N2744 1.326 . S
C2743 C2747 1.460 . S
C2743 H2749 0.929 . S
N2744 Mn2737 2.257 . S
N2744 C2743 1.326 . S
N2744 C2748 1.362 . S
C2745 C2746 1.258 . S
C2745 C2748 1.431 . S
C2745 C2765 1.449 . S
C2746 C2745 1.258 . S
C2746 C2747 1.477 . S
C2746 H2766 0.931 . S
C2747 C2743 1.460 . S
C2747 C2746 1.477 . S
C2747 H2767 0.930 . S
C2748 N2744 1.362 . S
C2748 C2745 1.431 . S
C2748 C2758 1.476 . S
H2749 C2743 0.929 . S
C2750 O2741 1.250 . S
C2750 O2742 1.258 . S
O2751 Mn2736 2.162 . S
O2751 C2739 1.281 . S
O2752 Mn2736 2.297 . S
O2752 C2739 1.236 . S
N2753 Mn2737 2.282 . S
N2753 C2754 1.328 . S
N2753 C2758 1.318 . S
C2754 N2753 1.328 . S
C2754 C2755 1.457 . S
C2754 H2759 0.929 . S
C2755 C2754 1.457 . S
C2755 C2756 1.291 . S
C2755 H2768 0.931 . S
C2756 C2755 1.291 . S
C2756 C2757 1.373 . S
C2756 H2769 0.929 . S
C2757 C2756 1.373 . S
C2757 C2758 1.396 . S
C2757 C2764 1.403 . S
C2758 C2748 1.476 . S
C2758 N2753 1.318 . S
C2758 C2757 1.396 . S
H2759 C2754 0.929 . S
O2760 Mn2736 2.385 . S
O2760 C2738 1.234 . S
O2761 Mn2736 2.209 . S
O2761 Mn2737 2.215 . S
O2761 C2738 1.283 . S
O2762 Mn2736 2.094 . S
O2762 C2740 1.240 . S
O2763 Mn2737 2.117 . S
O2763 C2740 1.264 . S
C2764 C2757 1.403 . S
C2764 C2765 1.399 . S
C2764 H2770 0.929 1_556 S
C2765 C2745 1.449 . S
C2765 C2764 1.399 . S
C2765 H2771 0.930 1_556 S
H2766 C2746 0.931 . S
H2767 C2747 0.930 . S
H2768 C2755 0.931 . S
H2769 C2756 0.929 . S
H2770 C2764 0.929 1_554 S
H2771 C2765 0.930 1_554 S
Mn2772 O2777 2.095 . S
Mn2772 O2787 2.162 . S
Mn2772 O2788 2.297 . S
Mn2772 O2796 2.385 . S
Mn2772 O2797 2.209 . S
Mn2772 O2798 2.094 . S
Mn2773 O2778 2.121 . S
Mn2773 N2780 2.257 . S
Mn2773 N2789 2.282 . S
Mn2773 O2797 2.215 . S
Mn2773 O2799 2.117 . S
C2774 O2796 1.234 . S
C2774 O2797 1.283 . S
C2775 O2787 1.281 . S
C2775 O2788 1.236 . S
C2776 O2798 1.240 . S
C2776 O2799 1.264 . S
O2777 Mn2772 2.095 . S
O2777 C2786 1.250 . S
O2778 Mn2773 2.121 . S
O2778 C2786 1.258 . S
C2779 N2780 1.326 . S
C2779 C2783 1.460 . S
C2779 H2785 0.929 . S
N2780 Mn2773 2.257 . S
N2780 C2779 1.326 . S
N2780 C2784 1.362 . S
C2781 C2782 1.258 . S
C2781 C2784 1.431 . S
C2781 C2801 1.449 . S
C2782 C2781 1.258 . S
C2782 C2783 1.477 . S
C2782 H2802 0.931 . S
C2783 C2779 1.460 . S
C2783 C2782 1.477 . S
C2783 H2803 0.930 . S
C2784 N2780 1.362 . S
C2784 C2781 1.431 . S
C2784 C2794 1.476 . S
H2785 C2779 0.929 . S
C2786 O2777 1.250 . S
C2786 O2778 1.258 . S
O2787 Mn2772 2.162 . S
O2787 C2775 1.281 . S
O2788 Mn2772 2.297 . S
O2788 C2775 1.236 . S
N2789 Mn2773 2.282 . S
N2789 C2790 1.328 . S
N2789 C2794 1.318 . S
C2790 N2789 1.328 . S
C2790 C2791 1.457 . S
C2790 H2795 0.929 . S
C2791 C2790 1.457 . S
C2791 C2792 1.291 . S
C2791 H2804 0.931 . S
C2792 C2791 1.291 . S
C2792 C2793 1.373 . S
C2792 H2805 0.929 . S
C2793 C2792 1.373 . S
C2793 C2794 1.396 . S
C2793 C2800 1.403 . S
C2794 C2784 1.476 . S
C2794 N2789 1.318 . S
C2794 C2793 1.396 . S
H2795 C2790 0.929 . S
O2796 Mn2772 2.385 . S
O2796 C2774 1.234 . S
O2797 Mn2772 2.209 . S
O2797 Mn2773 2.215 . S
O2797 C2774 1.283 . S
O2798 Mn2772 2.094 . S
O2798 C2776 1.240 . S
O2799 Mn2773 2.117 . S
O2799 C2776 1.264 . S
C2800 C2793 1.403 . S
C2800 C2801 1.399 . S
C2800 H2806 0.929 1_556 S
C2801 C2781 1.449 . S
C2801 C2800 1.399 . S
C2801 H2807 0.930 1_556 S
H2802 C2782 0.931 . S
H2803 C2783 0.930 . S
H2804 C2791 0.931 . S
H2805 C2792 0.929 . S
H2806 C2800 0.929 1_554 S
H2807 C2801 0.930 1_554 S
Mn2808 O2813 2.095 . S
Mn2808 O2823 2.162 . S
Mn2808 O2824 2.297 . S
Mn2808 O2832 2.385 . S
Mn2808 O2833 2.209 . S
Mn2808 O2834 2.094 . S
Mn2809 O2814 2.121 . S
Mn2809 N2816 2.257 . S
Mn2809 N2825 2.282 . S
Mn2809 O2833 2.215 . S
Mn2809 O2835 2.117 . S
C2810 O2832 1.234 . S
C2810 O2833 1.283 . S
C2811 O2823 1.281 . S
C2811 O2824 1.236 . S
C2812 O2834 1.240 . S
C2812 O2835 1.264 . S
O2813 Mn2808 2.095 . S
O2813 C2822 1.250 . S
O2814 Mn2809 2.121 . S
O2814 C2822 1.258 . S
C2815 N2816 1.326 . S
C2815 C2819 1.460 . S
C2815 H2821 0.929 . S
N2816 Mn2809 2.257 . S
N2816 C2815 1.326 . S
N2816 C2820 1.362 . S
C2817 C2818 1.258 . S
C2817 C2820 1.431 . S
C2817 C2837 1.449 . S
C2818 C2817 1.258 . S
C2818 C2819 1.477 . S
C2818 H2838 0.931 . S
C2819 C2815 1.460 . S
C2819 C2818 1.477 . S
C2819 H2839 0.930 . S
C2820 N2816 1.362 . S
C2820 C2817 1.431 . S
C2820 C2830 1.476 . S
H2821 C2815 0.929 . S
C2822 O2813 1.250 . S
C2822 O2814 1.258 . S
O2823 Mn2808 2.162 . S
O2823 C2811 1.281 . S
O2824 Mn2808 2.297 . S
O2824 C2811 1.236 . S
N2825 Mn2809 2.282 . S
N2825 C2826 1.328 . S
N2825 C2830 1.318 . S
C2826 N2825 1.328 . S
C2826 C2827 1.457 . S
C2826 H2831 0.929 . S
C2827 C2826 1.457 . S
C2827 C2828 1.291 . S
C2827 H2840 0.931 . S
C2828 C2827 1.291 . S
C2828 C2829 1.373 . S
C2828 H2841 0.929 . S
C2829 C2828 1.373 . S
C2829 C2830 1.396 . S
C2829 C2836 1.403 . S
C2830 C2820 1.476 . S
C2830 N2825 1.318 . S
C2830 C2829 1.396 . S
H2831 C2826 0.929 . S
O2832 Mn2808 2.385 . S
O2832 C2810 1.234 . S
O2833 Mn2808 2.209 . S
O2833 Mn2809 2.215 . S
O2833 C2810 1.283 . S
O2834 Mn2808 2.094 . S
O2834 C2812 1.240 . S
O2835 Mn2809 2.117 . S
O2835 C2812 1.264 . S
C2836 C2829 1.403 . S
C2836 C2837 1.399 . S
C2836 H2842 0.929 1_556 S
C2837 C2817 1.449 . S
C2837 C2836 1.399 . S
C2837 H2843 0.930 1_556 S
H2838 C2818 0.931 . S
H2839 C2819 0.930 . S
H2840 C2827 0.931 . S
H2841 C2828 0.929 . S
H2842 C2836 0.929 1_554 S
H2843 C2837 0.930 1_554 S
Mn2844 O2849 2.095 . S
Mn2844 O2859 2.162 . S
Mn2844 O2860 2.297 . S
Mn2844 O2868 2.385 . S
Mn2844 O2869 2.209 . S
Mn2844 O2870 2.094 . S
Mn2845 O2850 2.121 . S
Mn2845 N2852 2.257 . S
Mn2845 N2861 2.282 . S
Mn2845 O2869 2.215 . S
Mn2845 O2871 2.117 . S
C2846 O2868 1.234 . S
C2846 O2869 1.283 . S
C2847 O2859 1.281 . S
C2847 O2860 1.236 . S
C2848 O2870 1.240 . S
C2848 O2871 1.264 . S
O2849 Mn2844 2.095 . S
O2849 C2858 1.250 . S
O2850 Mn2845 2.121 . S
O2850 C2858 1.258 . S
C2851 N2852 1.326 . S
C2851 C2855 1.460 . S
C2851 H2857 0.929 . S
N2852 Mn2845 2.257 . S
N2852 C2851 1.326 . S
N2852 C2856 1.362 . S
C2853 C2854 1.258 . S
C2853 C2856 1.431 . S
C2853 C2873 1.449 . S
C2854 C2853 1.258 . S
C2854 C2855 1.477 . S
C2854 H2874 0.931 . S
C2855 C2851 1.460 . S
C2855 C2854 1.477 . S
C2855 H2875 0.930 . S
C2856 N2852 1.362 . S
C2856 C2853 1.431 . S
C2856 C2866 1.476 . S
H2857 C2851 0.929 . S
C2858 O2849 1.250 . S
C2858 O2850 1.258 . S
O2859 Mn2844 2.162 . S
O2859 C2847 1.281 . S
O2860 Mn2844 2.297 . S
O2860 C2847 1.236 . S
N2861 Mn2845 2.282 . S
N2861 C2862 1.328 . S
N2861 C2866 1.318 . S
C2862 N2861 1.328 . S
C2862 C2863 1.457 . S
C2862 H2867 0.929 . S
C2863 C2862 1.457 . S
C2863 C2864 1.291 . S
C2863 H2876 0.931 . S
C2864 C2863 1.291 . S
C2864 C2865 1.373 . S
C2864 H2877 0.929 . S
C2865 C2864 1.373 . S
C2865 C2866 1.396 . S
C2865 C2872 1.403 . S
C2866 C2856 1.476 . S
C2866 N2861 1.318 . S
C2866 C2865 1.396 . S
H2867 C2862 0.929 . S
O2868 Mn2844 2.385 . S
O2868 C2846 1.234 . S
O2869 Mn2844 2.209 . S
O2869 Mn2845 2.215 . S
O2869 C2846 1.283 . S
O2870 Mn2844 2.094 . S
O2870 C2848 1.240 . S
O2871 Mn2845 2.117 . S
O2871 C2848 1.264 . S
C2872 C2865 1.403 . S
C2872 C2873 1.399 . S
C2872 H2878 0.929 1_556 S
C2873 C2853 1.449 . S
C2873 C2872 1.399 . S
C2873 H2879 0.930 1_556 S
H2874 C2854 0.931 . S
H2875 C2855 0.930 . S
H2876 C2863 0.931 . S
H2877 C2864 0.929 . S
H2878 C2872 0.929 1_554 S
H2879 C2873 0.930 1_554 S
Mn2880 O2885 2.095 . S
Mn2880 O2895 2.162 . S
Mn2880 O2896 2.297 . S
Mn2880 O2904 2.385 . S
Mn2880 O2905 2.209 . S
Mn2880 O2906 2.094 . S
Mn2881 O2886 2.121 . S
Mn2881 N2888 2.257 . S
Mn2881 N2897 2.282 . S
Mn2881 O2905 2.215 . S
Mn2881 O2907 2.117 . S
C2882 O2904 1.234 . S
C2882 O2905 1.283 . S
C2883 O2895 1.281 . S
C2883 O2896 1.236 . S
C2884 O2906 1.240 . S
C2884 O2907 1.264 . S
O2885 Mn2880 2.095 . S
O2885 C2894 1.250 . S
O2886 Mn2881 2.121 . S
O2886 C2894 1.258 . S
C2887 N2888 1.326 . S
C2887 C2891 1.460 . S
C2887 H2893 0.929 . S
N2888 Mn2881 2.257 . S
N2888 C2887 1.326 . S
N2888 C2892 1.362 . S
C2889 C2890 1.258 . S
C2889 C2892 1.431 . S
C2889 C2909 1.449 . S
C2890 C2889 1.258 . S
C2890 C2891 1.477 . S
C2890 H2910 0.931 . S
C2891 C2887 1.460 . S
C2891 C2890 1.477 . S
C2891 H2911 0.930 . S
C2892 N2888 1.362 . S
C2892 C2889 1.431 . S
C2892 C2902 1.476 . S
H2893 C2887 0.929 . S
C2894 O2885 1.250 . S
C2894 O2886 1.258 . S
O2895 Mn2880 2.162 . S
O2895 C2883 1.281 . S
O2896 Mn2880 2.297 . S
O2896 C2883 1.236 . S
N2897 Mn2881 2.282 . S
N2897 C2898 1.328 . S
N2897 C2902 1.318 . S
C2898 N2897 1.328 . S
C2898 C2899 1.457 . S
C2898 H2903 0.929 . S
C2899 C2898 1.457 . S
C2899 C2900 1.291 . S
C2899 H2912 0.931 . S
C2900 C2899 1.291 . S
C2900 C2901 1.373 . S
C2900 H2913 0.929 . S
C2901 C2900 1.373 . S
C2901 C2902 1.396 . S
C2901 C2908 1.403 . S
C2902 C2892 1.476 . S
C2902 N2897 1.318 . S
C2902 C2901 1.396 . S
H2903 C2898 0.929 . S
O2904 Mn2880 2.385 . S
O2904 C2882 1.234 . S
O2905 Mn2880 2.209 . S
O2905 Mn2881 2.215 . S
O2905 C2882 1.283 . S
O2906 Mn2880 2.094 . S
O2906 C2884 1.240 . S
O2907 Mn2881 2.117 . S
O2907 C2884 1.264 . S
C2908 C2901 1.403 . S
C2908 C2909 1.399 . S
C2908 H2914 0.929 1_455 S
C2909 C2889 1.449 . S
C2909 C2908 1.399 . S
C2909 H2915 0.930 1_455 S
H2910 C2890 0.931 . S
H2911 C2891 0.930 . S
H2912 C2899 0.931 . S
H2913 C2900 0.929 . S
H2914 C2908 0.929 1_655 S
H2915 C2909 0.930 1_655 S
Mn2916 O2921 2.095 . S
Mn2916 O2931 2.162 . S
Mn2916 O2932 2.297 . S
Mn2916 O2940 2.385 . S
Mn2916 O2941 2.209 . S
Mn2916 O2942 2.094 . S
Mn2917 O2922 2.121 . S
Mn2917 N2924 2.257 . S
Mn2917 N2933 2.282 . S
Mn2917 O2941 2.215 . S
Mn2917 O2943 2.117 . S
C2918 O2940 1.234 . S
C2918 O2941 1.283 . S
C2919 O2931 1.281 . S
C2919 O2932 1.236 . S
C2920 O2942 1.240 . S
C2920 O2943 1.264 . S
O2921 Mn2916 2.095 . S
O2921 C2930 1.250 . S
O2922 Mn2917 2.121 . S
O2922 C2930 1.258 . S
C2923 N2924 1.326 . S
C2923 C2927 1.460 . S
C2923 H2929 0.929 . S
N2924 Mn2917 2.257 . S
N2924 C2923 1.326 . S
N2924 C2928 1.362 . S
C2925 C2926 1.258 . S
C2925 C2928 1.431 . S
C2925 C2945 1.449 . S
C2926 C2925 1.258 . S
C2926 C2927 1.477 . S
C2926 H2946 0.931 . S
C2927 C2923 1.460 . S
C2927 C2926 1.477 . S
C2927 H2947 0.930 . S
C2928 N2924 1.362 . S
C2928 C2925 1.431 . S
C2928 C2938 1.476 . S
H2929 C2923 0.929 . S
C2930 O2921 1.250 . S
C2930 O2922 1.258 . S
O2931 Mn2916 2.162 . S
O2931 C2919 1.281 . S
O2932 Mn2916 2.297 . S
O2932 C2919 1.236 . S
N2933 Mn2917 2.282 . S
N2933 C2934 1.328 . S
N2933 C2938 1.318 . S
C2934 N2933 1.328 . S
C2934 C2935 1.457 . S
C2934 H2939 0.929 . S
C2935 C2934 1.457 . S
C2935 C2936 1.291 . S
C2935 H2948 0.931 . S
C2936 C2935 1.291 . S
C2936 C2937 1.373 . S
C2936 H2949 0.929 . S
C2937 C2936 1.373 . S
C2937 C2938 1.396 . S
C2937 C2944 1.403 . S
C2938 C2928 1.476 . S
C2938 N2933 1.318 . S
C2938 C2937 1.396 . S
H2939 C2934 0.929 . S
O2940 Mn2916 2.385 . S
O2940 C2918 1.234 . S
O2941 Mn2916 2.209 . S
O2941 Mn2917 2.215 . S
O2941 C2918 1.283 . S
O2942 Mn2916 2.094 . S
O2942 C2920 1.240 . S
O2943 Mn2917 2.117 . S
O2943 C2920 1.264 . S
C2944 C2937 1.403 . S
C2944 C2945 1.399 . S
C2944 H2950 0.929 1_545 S
C2945 C2925 1.449 . S
C2945 C2944 1.399 . S
C2945 H2951 0.930 1_545 S
H2946 C2926 0.931 . S
H2947 C2927 0.930 . S
H2948 C2935 0.931 . S
H2949 C2936 0.929 . S
H2950 C2944 0.929 1_565 S
H2951 C2945 0.930 1_565 S
Mn2952 O2957 2.095 . S
Mn2952 O2967 2.162 . S
Mn2952 O2968 2.297 . S
Mn2952 O2976 2.385 . S
Mn2952 O2977 2.209 . S
Mn2952 O2978 2.094 . S
Mn2953 O2958 2.121 . S
Mn2953 N2960 2.257 . S
Mn2953 N2969 2.282 . S
Mn2953 O2977 2.215 . S
Mn2953 O2979 2.117 . S
C2954 O2976 1.234 . S
C2954 O2977 1.283 . S
C2955 O2967 1.281 . S
C2955 O2968 1.236 . S
C2956 O2978 1.240 . S
C2956 O2979 1.264 . S
O2957 Mn2952 2.095 . S
O2957 C2966 1.250 . S
O2958 Mn2953 2.121 . S
O2958 C2966 1.258 . S
C2959 N2960 1.326 . S
C2959 C2963 1.460 . S
C2959 H2965 0.929 . S
N2960 Mn2953 2.257 . S
N2960 C2959 1.326 . S
N2960 C2964 1.362 . S
C2961 C2962 1.258 . S
C2961 C2964 1.431 . S
C2961 C2981 1.449 . S
C2962 C2961 1.258 . S
C2962 C2963 1.477 . S
C2962 H2982 0.931 . S
C2963 C2959 1.460 . S
C2963 C2962 1.477 . S
C2963 H2983 0.930 . S
C2964 N2960 1.362 . S
C2964 C2961 1.431 . S
C2964 C2974 1.476 . S
H2965 C2959 0.929 . S
C2966 O2957 1.250 . S
C2966 O2958 1.258 . S
O2967 Mn2952 2.162 . S
O2967 C2955 1.281 . S
O2968 Mn2952 2.297 . S
O2968 C2955 1.236 . S
N2969 Mn2953 2.282 . S
N2969 C2970 1.328 . S
N2969 C2974 1.318 . S
C2970 N2969 1.328 . S
C2970 C2971 1.457 . S
C2970 H2975 0.929 . S
C2971 C2970 1.457 . S
C2971 C2972 1.291 . S
C2971 H2984 0.931 . S
C2972 C2971 1.291 . S
C2972 C2973 1.373 . S
C2972 H2985 0.929 . S
C2973 C2972 1.373 . S
C2973 C2974 1.396 . S
C2973 C2980 1.403 . S
C2974 C2964 1.476 . S
C2974 N2969 1.318 . S
C2974 C2973 1.396 . S
H2975 C2970 0.929 . S
O2976 Mn2952 2.385 . S
O2976 C2954 1.234 . S
O2977 Mn2952 2.209 . S
O2977 Mn2953 2.215 . S
O2977 C2954 1.283 . S
O2978 Mn2952 2.094 . S
O2978 C2956 1.240 . S
O2979 Mn2953 2.117 . S
O2979 C2956 1.264 . S
C2980 C2973 1.403 . S
C2980 C2981 1.399 . S
C2980 H2986 0.929 1_655 S
C2981 C2961 1.449 . S
C2981 C2980 1.399 . S
C2981 H2987 0.930 1_655 S
H2982 C2962 0.931 . S
H2983 C2963 0.930 . S
H2984 C2971 0.931 . S
H2985 C2972 0.929 . S
H2986 C2980 0.929 1_455 S
H2987 C2981 0.930 1_455 S
Mn2988 O2993 2.095 . S
Mn2988 O3003 2.162 . S
Mn2988 O3004 2.297 . S
Mn2988 O3012 2.385 . S
Mn2988 O3013 2.209 . S
Mn2988 O3014 2.094 . S
Mn2989 O2994 2.121 . S
Mn2989 N2996 2.257 . S
Mn2989 N3005 2.282 . S
Mn2989 O3013 2.215 . S
Mn2989 O3015 2.117 . S
C2990 O3012 1.234 . S
C2990 O3013 1.283 . S
C2991 O3003 1.281 . S
C2991 O3004 1.236 . S
C2992 O3014 1.240 . S
C2992 O3015 1.264 . S
O2993 Mn2988 2.095 . S
O2993 C3002 1.250 . S
O2994 Mn2989 2.121 . S
O2994 C3002 1.258 . S
C2995 N2996 1.326 . S
C2995 C2999 1.460 . S
C2995 H3001 0.929 . S
N2996 Mn2989 2.257 . S
N2996 C2995 1.326 . S
N2996 C3000 1.362 . S
C2997 C2998 1.258 . S
C2997 C3000 1.431 . S
C2997 C3017 1.449 . S
C2998 C2997 1.258 . S
C2998 C2999 1.477 . S
C2998 H3018 0.931 . S
C2999 C2995 1.460 . S
C2999 C2998 1.477 . S
C2999 H3019 0.930 . S
C3000 N2996 1.362 . S
C3000 C2997 1.431 . S
C3000 C3010 1.476 . S
H3001 C2995 0.929 . S
C3002 O2993 1.250 . S
C3002 O2994 1.258 . S
O3003 Mn2988 2.162 . S
O3003 C2991 1.281 . S
O3004 Mn2988 2.297 . S
O3004 C2991 1.236 . S
N3005 Mn2989 2.282 . S
N3005 C3006 1.328 . S
N3005 C3010 1.318 . S
C3006 N3005 1.328 . S
C3006 C3007 1.457 . S
C3006 H3011 0.929 . S
C3007 C3006 1.457 . S
C3007 C3008 1.291 . S
C3007 H3020 0.931 . S
C3008 C3007 1.291 . S
C3008 C3009 1.373 . S
C3008 H3021 0.929 . S
C3009 C3008 1.373 . S
C3009 C3010 1.396 . S
C3009 C3016 1.403 . S
C3010 C3000 1.476 . S
C3010 N3005 1.318 . S
C3010 C3009 1.396 . S
H3011 C3006 0.929 . S
O3012 Mn2988 2.385 . S
O3012 C2990 1.234 . S
O3013 Mn2988 2.209 . S
O3013 Mn2989 2.215 . S
O3013 C2990 1.283 . S
O3014 Mn2988 2.094 . S
O3014 C2992 1.240 . S
O3015 Mn2989 2.117 . S
O3015 C2992 1.264 . S
C3016 C3009 1.403 . S
C3016 C3017 1.399 . S
C3016 H3022 0.929 1_565 S
C3017 C2997 1.449 . S
C3017 C3016 1.399 . S
C3017 H3023 0.930 1_565 S
H3018 C2998 0.931 . S
H3019 C2999 0.930 . S
H3020 C3007 0.931 . S
H3021 C3008 0.929 . S
H3022 C3016 0.929 1_545 S
H3023 C3017 0.930 1_545 S
Mn3024 O3029 2.095 . S
Mn3024 O3039 2.162 . S
Mn3024 O3040 2.297 . S
Mn3024 O3048 2.385 . S
Mn3024 O3049 2.209 . S
Mn3024 O3050 2.094 . S
Mn3025 O3030 2.121 . S
Mn3025 N3032 2.257 . S
Mn3025 N3041 2.282 . S
Mn3025 O3049 2.215 . S
Mn3025 O3051 2.117 . S
C3026 O3048 1.234 . S
C3026 O3049 1.283 . S
C3027 O3039 1.281 . S
C3027 O3040 1.236 . S
C3028 O3050 1.240 . S
C3028 O3051 1.264 . S
O3029 Mn3024 2.095 . S
O3029 C3038 1.250 . S
O3030 Mn3025 2.121 . S
O3030 C3038 1.258 . S
C3031 N3032 1.326 . S
C3031 C3035 1.460 . S
C3031 H3037 0.929 . S
N3032 Mn3025 2.257 . S
N3032 C3031 1.326 . S
N3032 C3036 1.362 . S
C3033 C3034 1.258 . S
C3033 C3036 1.431 . S
C3033 C3053 1.449 . S
C3034 C3033 1.258 . S
C3034 C3035 1.477 . S
C3034 H3054 0.931 . S
C3035 C3031 1.460 . S
C3035 C3034 1.477 . S
C3035 H3055 0.930 . S
C3036 N3032 1.362 . S
C3036 C3033 1.431 . S
C3036 C3046 1.476 . S
H3037 C3031 0.929 . S
C3038 O3029 1.250 . S
C3038 O3030 1.258 . S
O3039 Mn3024 2.162 . S
O3039 C3027 1.281 . S
O3040 Mn3024 2.297 . S
O3040 C3027 1.236 . S
N3041 Mn3025 2.282 . S
N3041 C3042 1.328 . S
N3041 C3046 1.318 . S
C3042 N3041 1.328 . S
C3042 C3043 1.457 . S
C3042 H3047 0.929 . S
C3043 C3042 1.457 . S
C3043 C3044 1.291 . S
C3043 H3056 0.931 . S
C3044 C3043 1.291 . S
C3044 C3045 1.373 . S
C3044 H3057 0.929 . S
C3045 C3044 1.373 . S
C3045 C3046 1.396 . S
C3045 C3052 1.403 . S
C3046 C3036 1.476 . S
C3046 N3041 1.318 . S
C3046 C3045 1.396 . S
H3047 C3042 0.929 . S
O3048 Mn3024 2.385 . S
O3048 C3026 1.234 . S
O3049 Mn3024 2.209 . S
O3049 Mn3025 2.215 . S
O3049 C3026 1.283 . S
O3050 Mn3024 2.094 . S
O3050 C3028 1.240 . S
O3051 Mn3025 2.117 . S
O3051 C3028 1.264 . S
C3052 C3045 1.403 . S
C3052 C3053 1.399 . S
C3052 H3058 0.929 1_455 S
C3053 C3033 1.449 . S
C3053 C3052 1.399 . S
C3053 H3059 0.930 1_455 S
H3054 C3034 0.931 . S
H3055 C3035 0.930 . S
H3056 C3043 0.931 . S
H3057 C3044 0.929 . S
H3058 C3052 0.929 1_655 S
H3059 C3053 0.930 1_655 S
Mn3060 O3065 2.095 . S
Mn3060 O3075 2.162 . S
Mn3060 O3076 2.297 . S
Mn3060 O3084 2.385 . S
Mn3060 O3085 2.209 . S
Mn3060 O3086 2.094 . S
Mn3061 O3066 2.121 . S
Mn3061 N3068 2.257 . S
Mn3061 N3077 2.282 . S
Mn3061 O3085 2.215 . S
Mn3061 O3087 2.117 . S
C3062 O3084 1.234 . S
C3062 O3085 1.283 . S
C3063 O3075 1.281 . S
C3063 O3076 1.236 . S
C3064 O3086 1.240 . S
C3064 O3087 1.264 . S
O3065 Mn3060 2.095 . S
O3065 C3074 1.250 . S
O3066 Mn3061 2.121 . S
O3066 C3074 1.258 . S
C3067 N3068 1.326 . S
C3067 C3071 1.460 . S
C3067 H3073 0.929 . S
N3068 Mn3061 2.257 . S
N3068 C3067 1.326 . S
N3068 C3072 1.362 . S
C3069 C3070 1.258 . S
C3069 C3072 1.431 . S
C3069 C3089 1.449 . S
C3070 C3069 1.258 . S
C3070 C3071 1.477 . S
C3070 H3090 0.931 . S
C3071 C3067 1.460 . S
C3071 C3070 1.477 . S
C3071 H3091 0.930 . S
C3072 N3068 1.362 . S
C3072 C3069 1.431 . S
C3072 C3082 1.476 . S
H3073 C3067 0.929 . S
C3074 O3065 1.250 . S
C3074 O3066 1.258 . S
O3075 Mn3060 2.162 . S
O3075 C3063 1.281 . S
O3076 Mn3060 2.297 . S
O3076 C3063 1.236 . S
N3077 Mn3061 2.282 . S
N3077 C3078 1.328 . S
N3077 C3082 1.318 . S
C3078 N3077 1.328 . S
C3078 C3079 1.457 . S
C3078 H3083 0.929 . S
C3079 C3078 1.457 . S
C3079 C3080 1.291 . S
C3079 H3092 0.931 . S
C3080 C3079 1.291 . S
C3080 C3081 1.373 . S
C3080 H3093 0.929 . S
C3081 C3080 1.373 . S
C3081 C3082 1.396 . S
C3081 C3088 1.403 . S
C3082 C3072 1.476 . S
C3082 N3077 1.318 . S
C3082 C3081 1.396 . S
H3083 C3078 0.929 . S
O3084 Mn3060 2.385 . S
O3084 C3062 1.234 . S
O3085 Mn3060 2.209 . S
O3085 Mn3061 2.215 . S
O3085 C3062 1.283 . S
O3086 Mn3060 2.094 . S
O3086 C3064 1.240 . S
O3087 Mn3061 2.117 . S
O3087 C3064 1.264 . S
C3088 C3081 1.403 . S
C3088 C3089 1.399 . S
C3088 H3094 0.929 1_545 S
C3089 C3069 1.449 . S
C3089 C3088 1.399 . S
C3089 H3095 0.930 1_545 S
H3090 C3070 0.931 . S
H3091 C3071 0.930 . S
H3092 C3079 0.931 . S
H3093 C3080 0.929 . S
H3094 C3088 0.929 1_565 S
H3095 C3089 0.930 1_565 S
Mn3096 O3101 2.095 . S
Mn3096 O3111 2.162 . S
Mn3096 O3112 2.297 . S
Mn3096 O3120 2.385 . S
Mn3096 O3121 2.209 . S
Mn3096 O3122 2.094 . S
Mn3097 O3102 2.121 . S
Mn3097 N3104 2.257 . S
Mn3097 N3113 2.282 . S
Mn3097 O3121 2.215 . S
Mn3097 O3123 2.117 . S
C3098 O3120 1.234 . S
C3098 O3121 1.283 . S
C3099 O3111 1.281 . S
C3099 O3112 1.236 . S
C3100 O3122 1.240 . S
C3100 O3123 1.264 . S
O3101 Mn3096 2.095 . S
O3101 C3110 1.250 . S
O3102 Mn3097 2.121 . S
O3102 C3110 1.258 . S
C3103 N3104 1.326 . S
C3103 C3107 1.460 . S
C3103 H3109 0.929 . S
N3104 Mn3097 2.257 . S
N3104 C3103 1.326 . S
N3104 C3108 1.362 . S
C3105 C3106 1.258 . S
C3105 C3108 1.431 . S
C3105 C3125 1.449 . S
C3106 C3105 1.258 . S
C3106 C3107 1.477 . S
C3106 H3126 0.931 . S
C3107 C3103 1.460 . S
C3107 C3106 1.477 . S
C3107 H3127 0.930 . S
C3108 N3104 1.362 . S
C3108 C3105 1.431 . S
C3108 C3118 1.476 . S
H3109 C3103 0.929 . S
C3110 O3101 1.250 . S
C3110 O3102 1.258 . S
O3111 Mn3096 2.162 . S
O3111 C3099 1.281 . S
O3112 Mn3096 2.297 . S
O3112 C3099 1.236 . S
N3113 Mn3097 2.282 . S
N3113 C3114 1.328 . S
N3113 C3118 1.318 . S
C3114 N3113 1.328 . S
C3114 C3115 1.457 . S
C3114 H3119 0.929 . S
C3115 C3114 1.457 . S
C3115 C3116 1.291 . S
C3115 H3128 0.931 . S
C3116 C3115 1.291 . S
C3116 C3117 1.373 . S
C3116 H3129 0.929 . S
C3117 C3116 1.373 . S
C3117 C3118 1.396 . S
C3117 C3124 1.403 . S
C3118 C3108 1.476 . S
C3118 N3113 1.318 . S
C3118 C3117 1.396 . S
H3119 C3114 0.929 . S
O3120 Mn3096 2.385 . S
O3120 C3098 1.234 . S
O3121 Mn3096 2.209 . S
O3121 Mn3097 2.215 . S
O3121 C3098 1.283 . S
O3122 Mn3096 2.094 . S
O3122 C3100 1.240 . S
O3123 Mn3097 2.117 . S
O3123 C3100 1.264 . S
C3124 C3117 1.403 . S
C3124 C3125 1.399 . S
C3124 H3130 0.929 1_655 S
C3125 C3105 1.449 . S
C3125 C3124 1.399 . S
C3125 H3131 0.930 1_655 S
H3126 C3106 0.931 . S
H3127 C3107 0.930 . S
H3128 C3115 0.931 . S
H3129 C3116 0.929 . S
H3130 C3124 0.929 1_455 S
H3131 C3125 0.930 1_455 S
Mn3132 O3137 2.095 . S
Mn3132 O3147 2.162 . S
Mn3132 O3148 2.297 . S
Mn3132 O3156 2.385 . S
Mn3132 O3157 2.209 . S
Mn3132 O3158 2.094 . S
Mn3133 O3138 2.121 . S
Mn3133 N3140 2.257 . S
Mn3133 N3149 2.282 . S
Mn3133 O3157 2.215 . S
Mn3133 O3159 2.117 . S
C3134 O3156 1.234 . S
C3134 O3157 1.283 . S
C3135 O3147 1.281 . S
C3135 O3148 1.236 . S
C3136 O3158 1.240 . S
C3136 O3159 1.264 . S
O3137 Mn3132 2.095 . S
O3137 C3146 1.250 . S
O3138 Mn3133 2.121 . S
O3138 C3146 1.258 . S
C3139 N3140 1.326 . S
C3139 C3143 1.460 . S
C3139 H3145 0.929 . S
N3140 Mn3133 2.257 . S
N3140 C3139 1.326 . S
N3140 C3144 1.362 . S
C3141 C3142 1.258 . S
C3141 C3144 1.431 . S
C3141 C3161 1.449 . S
C3142 C3141 1.258 . S
C3142 C3143 1.477 . S
C3142 H3162 0.931 . S
C3143 C3139 1.460 . S
C3143 C3142 1.477 . S
C3143 H3163 0.930 . S
C3144 N3140 1.362 . S
C3144 C3141 1.431 . S
C3144 C3154 1.476 . S
H3145 C3139 0.929 . S
C3146 O3137 1.250 . S
C3146 O3138 1.258 . S
O3147 Mn3132 2.162 . S
O3147 C3135 1.281 . S
O3148 Mn3132 2.297 . S
O3148 C3135 1.236 . S
N3149 Mn3133 2.282 . S
N3149 C3150 1.328 . S
N3149 C3154 1.318 . S
C3150 N3149 1.328 . S
C3150 C3151 1.457 . S
C3150 H3155 0.929 . S
C3151 C3150 1.457 . S
C3151 C3152 1.291 . S
C3151 H3164 0.931 . S
C3152 C3151 1.291 . S
C3152 C3153 1.373 . S
C3152 H3165 0.929 . S
C3153 C3152 1.373 . S
C3153 C3154 1.396 . S
C3153 C3160 1.403 . S
C3154 C3144 1.476 . S
C3154 N3149 1.318 . S
C3154 C3153 1.396 . S
H3155 C3150 0.929 . S
O3156 Mn3132 2.385 . S
O3156 C3134 1.234 . S
O3157 Mn3132 2.209 . S
O3157 Mn3133 2.215 . S
O3157 C3134 1.283 . S
O3158 Mn3132 2.094 . S
O3158 C3136 1.240 . S
O3159 Mn3133 2.117 . S
O3159 C3136 1.264 . S
C3160 C3153 1.403 . S
C3160 C3161 1.399 . S
C3160 H3166 0.929 1_565 S
C3161 C3141 1.449 . S
C3161 C3160 1.399 . S
C3161 H3167 0.930 1_565 S
H3162 C3142 0.931 . S
H3163 C3143 0.930 . S
H3164 C3151 0.931 . S
H3165 C3152 0.929 . S
H3166 C3160 0.929 1_545 S
H3167 C3161 0.930 1_545 S
Mn3168 O3173 2.095 . S
Mn3168 O3183 2.162 . S
Mn3168 O3184 2.297 . S
Mn3168 O3192 2.385 . S
Mn3168 O3193 2.209 . S
Mn3168 O3194 2.094 . S
Mn3169 O3174 2.121 . S
Mn3169 N3176 2.257 . S
Mn3169 N3185 2.282 . S
Mn3169 O3193 2.215 . S
Mn3169 O3195 2.117 . S
C3170 O3192 1.234 . S
C3170 O3193 1.283 . S
C3171 O3183 1.281 . S
C3171 O3184 1.236 . S
C3172 O3194 1.240 . S
C3172 O3195 1.264 . S
O3173 Mn3168 2.095 . S
O3173 C3182 1.250 . S
O3174 Mn3169 2.121 . S
O3174 C3182 1.258 . S
C3175 N3176 1.326 . S
C3175 C3179 1.460 . S
C3175 H3181 0.929 . S
N3176 Mn3169 2.257 . S
N3176 C3175 1.326 . S
N3176 C3180 1.362 . S
C3177 C3178 1.258 . S
C3177 C3180 1.431 . S
C3177 C3197 1.449 . S
C3178 C3177 1.258 . S
C3178 C3179 1.477 . S
C3178 H3198 0.931 . S
C3179 C3175 1.460 . S
C3179 C3178 1.477 . S
C3179 H3199 0.930 . S
C3180 N3176 1.362 . S
C3180 C3177 1.431 . S
C3180 C3190 1.476 . S
H3181 C3175 0.929 . S
C3182 O3173 1.250 . S
C3182 O3174 1.258 . S
O3183 Mn3168 2.162 . S
O3183 C3171 1.281 . S
O3184 Mn3168 2.297 . S
O3184 C3171 1.236 . S
N3185 Mn3169 2.282 . S
N3185 C3186 1.328 . S
N3185 C3190 1.318 . S
C3186 N3185 1.328 . S
C3186 C3187 1.457 . S
C3186 H3191 0.929 . S
C3187 C3186 1.457 . S
C3187 C3188 1.291 . S
C3187 H3200 0.931 . S
C3188 C3187 1.291 . S
C3188 C3189 1.373 . S
C3188 H3201 0.929 . S
C3189 C3188 1.373 . S
C3189 C3190 1.396 . S
C3189 C3196 1.403 . S
C3190 C3180 1.476 . S
C3190 N3185 1.318 . S
C3190 C3189 1.396 . S
H3191 C3186 0.929 . S
O3192 Mn3168 2.385 . S
O3192 C3170 1.234 . S
O3193 Mn3168 2.209 . S
O3193 Mn3169 2.215 . S
O3193 C3170 1.283 . S
O3194 Mn3168 2.094 . S
O3194 C3172 1.240 . S
O3195 Mn3169 2.117 . S
O3195 C3172 1.264 . S
C3196 C3189 1.403 . S
C3196 C3197 1.399 . S
C3196 H3202 0.929 1_545 S
C3197 C3177 1.449 . S
C3197 C3196 1.399 . S
C3197 H3203 0.930 1_545 S
H3198 C3178 0.931 . S
H3199 C3179 0.930 . S
H3200 C3187 0.931 . S
H3201 C3188 0.929 . S
H3202 C3196 0.929 1_565 S
H3203 C3197 0.930 1_565 S
Mn3204 O3209 2.095 . S
Mn3204 O3219 2.162 . S
Mn3204 O3220 2.297 . S
Mn3204 O3228 2.385 . S
Mn3204 O3229 2.209 . S
Mn3204 O3230 2.094 . S
Mn3205 O3210 2.121 . S
Mn3205 N3212 2.257 . S
Mn3205 N3221 2.282 . S
Mn3205 O3229 2.215 . S
Mn3205 O3231 2.117 . S
C3206 O3228 1.234 . S
C3206 O3229 1.283 . S
C3207 O3219 1.281 . S
C3207 O3220 1.236 . S
C3208 O3230 1.240 . S
C3208 O3231 1.264 . S
O3209 Mn3204 2.095 . S
O3209 C3218 1.250 . S
O3210 Mn3205 2.121 . S
O3210 C3218 1.258 . S
C3211 N3212 1.326 . S
C3211 C3215 1.460 . S
C3211 H3217 0.929 . S
N3212 Mn3205 2.257 . S
N3212 C3211 1.326 . S
N3212 C3216 1.362 . S
C3213 C3214 1.258 . S
C3213 C3216 1.431 . S
C3213 C3233 1.449 . S
C3214 C3213 1.258 . S
C3214 C3215 1.477 . S
C3214 H3234 0.931 . S
C3215 C3211 1.460 . S
C3215 C3214 1.477 . S
C3215 H3235 0.930 . S
C3216 N3212 1.362 . S
C3216 C3213 1.431 . S
C3216 C3226 1.476 . S
H3217 C3211 0.929 . S
C3218 O3209 1.250 . S
C3218 O3210 1.258 . S
O3219 Mn3204 2.162 . S
O3219 C3207 1.281 . S
O3220 Mn3204 2.297 . S
O3220 C3207 1.236 . S
N3221 Mn3205 2.282 . S
N3221 C3222 1.328 . S
N3221 C3226 1.318 . S
C3222 N3221 1.328 . S
C3222 C3223 1.457 . S
C3222 H3227 0.929 . S
C3223 C3222 1.457 . S
C3223 C3224 1.291 . S
C3223 H3236 0.931 . S
C3224 C3223 1.291 . S
C3224 C3225 1.373 . S
C3224 H3237 0.929 . S
C3225 C3224 1.373 . S
C3225 C3226 1.396 . S
C3225 C3232 1.403 . S
C3226 C3216 1.476 . S
C3226 N3221 1.318 . S
C3226 C3225 1.396 . S
H3227 C3222 0.929 . S
O3228 Mn3204 2.385 . S
O3228 C3206 1.234 . S
O3229 Mn3204 2.209 . S
O3229 Mn3205 2.215 . S
O3229 C3206 1.283 . S
O3230 Mn3204 2.094 . S
O3230 C3208 1.240 . S
O3231 Mn3205 2.117 . S
O3231 C3208 1.264 . S
C3232 C3225 1.403 . S
C3232 C3233 1.399 . S
C3232 H3238 0.929 1_565 S
C3233 C3213 1.449 . S
C3233 C3232 1.399 . S
C3233 H3239 0.930 1_565 S
H3234 C3214 0.931 . S
H3235 C3215 0.930 . S
H3236 C3223 0.931 . S
H3237 C3224 0.929 . S
H3238 C3232 0.929 1_545 S
H3239 C3233 0.930 1_545 S
Mn3240 O3245 2.095 . S
Mn3240 O3255 2.162 . S
Mn3240 O3256 2.297 . S
Mn3240 O3264 2.385 . S
Mn3240 O3265 2.209 . S
Mn3240 O3266 2.094 . S
Mn3241 O3246 2.121 . S
Mn3241 N3248 2.257 . S
Mn3241 N3257 2.282 . S
Mn3241 O3265 2.215 . S
Mn3241 O3267 2.117 . S
C3242 O3264 1.234 . S
C3242 O3265 1.283 . S
C3243 O3255 1.281 . S
C3243 O3256 1.236 . S
C3244 O3266 1.240 . S
C3244 O3267 1.264 . S
O3245 Mn3240 2.095 . S
O3245 C3254 1.250 . S
O3246 Mn3241 2.121 . S
O3246 C3254 1.258 . S
C3247 N3248 1.326 . S
C3247 C3251 1.460 . S
C3247 H3253 0.929 . S
N3248 Mn3241 2.257 . S
N3248 C3247 1.326 . S
N3248 C3252 1.362 . S
C3249 C3250 1.258 . S
C3249 C3252 1.431 . S
C3249 C3269 1.449 . S
C3250 C3249 1.258 . S
C3250 C3251 1.477 . S
C3250 H3270 0.931 . S
C3251 C3247 1.460 . S
C3251 C3250 1.477 . S
C3251 H3271 0.930 . S
C3252 N3248 1.362 . S
C3252 C3249 1.431 . S
C3252 C3262 1.476 . S
H3253 C3247 0.929 . S
C3254 O3245 1.250 . S
C3254 O3246 1.258 . S
O3255 Mn3240 2.162 . S
O3255 C3243 1.281 . S
O3256 Mn3240 2.297 . S
O3256 C3243 1.236 . S
N3257 Mn3241 2.282 . S
N3257 C3258 1.328 . S
N3257 C3262 1.318 . S
C3258 N3257 1.328 . S
C3258 C3259 1.457 . S
C3258 H3263 0.929 . S
C3259 C3258 1.457 . S
C3259 C3260 1.291 . S
C3259 H3272 0.931 . S
C3260 C3259 1.291 . S
C3260 C3261 1.373 . S
C3260 H3273 0.929 . S
C3261 C3260 1.373 . S
C3261 C3262 1.396 . S
C3261 C3268 1.403 . S
C3262 C3252 1.476 . S
C3262 N3257 1.318 . S
C3262 C3261 1.396 . S
H3263 C3258 0.929 . S
O3264 Mn3240 2.385 . S
O3264 C3242 1.234 . S
O3265 Mn3240 2.209 . S
O3265 Mn3241 2.215 . S
O3265 C3242 1.283 . S
O3266 Mn3240 2.094 . S
O3266 C3244 1.240 . S
O3267 Mn3241 2.117 . S
O3267 C3244 1.264 . S
C3268 C3261 1.403 . S
C3268 C3269 1.399 . S
C3268 H3274 0.929 1_455 S
C3269 C3249 1.449 . S
C3269 C3268 1.399 . S
C3269 H3275 0.930 1_455 S
H3270 C3250 0.931 . S
H3271 C3251 0.930 . S
H3272 C3259 0.931 . S
H3273 C3260 0.929 . S
H3274 C3268 0.929 1_655 S
H3275 C3269 0.930 1_655 S
Mn3276 O3281 2.095 . S
Mn3276 O3291 2.162 . S
Mn3276 O3292 2.297 . S
Mn3276 O3300 2.385 . S
Mn3276 O3301 2.209 . S
Mn3276 O3302 2.094 . S
Mn3277 O3282 2.121 . S
Mn3277 N3284 2.257 . S
Mn3277 N3293 2.282 . S
Mn3277 O3301 2.215 . S
Mn3277 O3303 2.117 . S
C3278 O3300 1.234 . S
C3278 O3301 1.283 . S
C3279 O3291 1.281 . S
C3279 O3292 1.236 . S
C3280 O3302 1.240 . S
C3280 O3303 1.264 . S
O3281 Mn3276 2.095 . S
O3281 C3290 1.250 . S
O3282 Mn3277 2.121 . S
O3282 C3290 1.258 . S
C3283 N3284 1.326 . S
C3283 C3287 1.460 . S
C3283 H3289 0.929 . S
N3284 Mn3277 2.257 . S
N3284 C3283 1.326 . S
N3284 C3288 1.362 . S
C3285 C3286 1.258 . S
C3285 C3288 1.431 . S
C3285 C3305 1.449 . S
C3286 C3285 1.258 . S
C3286 C3287 1.477 . S
C3286 H3306 0.931 . S
C3287 C3283 1.460 . S
C3287 C3286 1.477 . S
C3287 H3307 0.930 . S
C3288 N3284 1.362 . S
C3288 C3285 1.431 . S
C3288 C3298 1.476 . S
H3289 C3283 0.929 . S
C3290 O3281 1.250 . S
C3290 O3282 1.258 . S
O3291 Mn3276 2.162 . S
O3291 C3279 1.281 . S
O3292 Mn3276 2.297 . S
O3292 C3279 1.236 . S
N3293 Mn3277 2.282 . S
N3293 C3294 1.328 . S
N3293 C3298 1.318 . S
C3294 N3293 1.328 . S
C3294 C3295 1.457 . S
C3294 H3299 0.929 . S
C3295 C3294 1.457 . S
C3295 C3296 1.291 . S
C3295 H3308 0.931 . S
C3296 C3295 1.291 . S
C3296 C3297 1.373 . S
C3296 H3309 0.929 . S
C3297 C3296 1.373 . S
C3297 C3298 1.396 . S
C3297 C3304 1.403 . S
C3298 C3288 1.476 . S
C3298 N3293 1.318 . S
C3298 C3297 1.396 . S
H3299 C3294 0.929 . S
O3300 Mn3276 2.385 . S
O3300 C3278 1.234 . S
O3301 Mn3276 2.209 . S
O3301 Mn3277 2.215 . S
O3301 C3278 1.283 . S
O3302 Mn3276 2.094 . S
O3302 C3280 1.240 . S
O3303 Mn3277 2.117 . S
O3303 C3280 1.264 . S
C3304 C3297 1.403 . S
C3304 C3305 1.399 . S
C3304 H3310 0.929 1_545 S
C3305 C3285 1.449 . S
C3305 C3304 1.399 . S
C3305 H3311 0.930 1_545 S
H3306 C3286 0.931 . S
H3307 C3287 0.930 . S
H3308 C3295 0.931 . S
H3309 C3296 0.929 . S
H3310 C3304 0.929 1_565 S
H3311 C3305 0.930 1_565 S
Mn3312 O3317 2.095 . S
Mn3312 O3327 2.162 . S
Mn3312 O3328 2.297 . S
Mn3312 O3336 2.385 . S
Mn3312 O3337 2.209 . S
Mn3312 O3338 2.094 . S
Mn3313 O3318 2.121 . S
Mn3313 N3320 2.257 . S
Mn3313 N3329 2.282 . S
Mn3313 O3337 2.215 . S
Mn3313 O3339 2.117 . S
C3314 O3336 1.234 . S
C3314 O3337 1.283 . S
C3315 O3327 1.281 . S
C3315 O3328 1.236 . S
C3316 O3338 1.240 . S
C3316 O3339 1.264 . S
O3317 Mn3312 2.095 . S
O3317 C3326 1.250 . S
O3318 Mn3313 2.121 . S
O3318 C3326 1.258 . S
C3319 N3320 1.326 . S
C3319 C3323 1.460 . S
C3319 H3325 0.929 . S
N3320 Mn3313 2.257 . S
N3320 C3319 1.326 . S
N3320 C3324 1.362 . S
C3321 C3322 1.258 . S
C3321 C3324 1.431 . S
C3321 C3341 1.449 . S
C3322 C3321 1.258 . S
C3322 C3323 1.477 . S
C3322 H3342 0.931 . S
C3323 C3319 1.460 . S
C3323 C3322 1.477 . S
C3323 H3343 0.930 . S
C3324 N3320 1.362 . S
C3324 C3321 1.431 . S
C3324 C3334 1.476 . S
H3325 C3319 0.929 . S
C3326 O3317 1.250 . S
C3326 O3318 1.258 . S
O3327 Mn3312 2.162 . S
O3327 C3315 1.281 . S
O3328 Mn3312 2.297 . S
O3328 C3315 1.236 . S
N3329 Mn3313 2.282 . S
N3329 C3330 1.328 . S
N3329 C3334 1.318 . S
C3330 N3329 1.328 . S
C3330 C3331 1.457 . S
C3330 H3335 0.929 . S
C3331 C3330 1.457 . S
C3331 C3332 1.291 . S
C3331 H3344 0.931 . S
C3332 C3331 1.291 . S
C3332 C3333 1.373 . S
C3332 H3345 0.929 . S
C3333 C3332 1.373 . S
C3333 C3334 1.396 . S
C3333 C3340 1.403 . S
C3334 C3324 1.476 . S
C3334 N3329 1.318 . S
C3334 C3333 1.396 . S
H3335 C3330 0.929 . S
O3336 Mn3312 2.385 . S
O3336 C3314 1.234 . S
O3337 Mn3312 2.209 . S
O3337 Mn3313 2.215 . S
O3337 C3314 1.283 . S
O3338 Mn3312 2.094 . S
O3338 C3316 1.240 . S
O3339 Mn3313 2.117 . S
O3339 C3316 1.264 . S
C3340 C3333 1.403 . S
C3340 C3341 1.399 . S
C3340 H3346 0.929 1_655 S
C3341 C3321 1.449 . S
C3341 C3340 1.399 . S
C3341 H3347 0.930 1_655 S
H3342 C3322 0.931 . S
H3343 C3323 0.930 . S
H3344 C3331 0.931 . S
H3345 C3332 0.929 . S
H3346 C3340 0.929 1_455 S
H3347 C3341 0.930 1_455 S
Mn3348 O3353 2.095 . S
Mn3348 O3363 2.162 . S
Mn3348 O3364 2.297 . S
Mn3348 O3372 2.385 . S
Mn3348 O3373 2.209 . S
Mn3348 O3374 2.094 . S
Mn3349 O3354 2.121 . S
Mn3349 N3356 2.257 . S
Mn3349 N3365 2.282 . S
Mn3349 O3373 2.215 . S
Mn3349 O3375 2.117 . S
C3350 O3372 1.234 . S
C3350 O3373 1.283 . S
C3351 O3363 1.281 . S
C3351 O3364 1.236 . S
C3352 O3374 1.240 . S
C3352 O3375 1.264 . S
O3353 Mn3348 2.095 . S
O3353 C3362 1.250 . S
O3354 Mn3349 2.121 . S
O3354 C3362 1.258 . S
C3355 N3356 1.326 . S
C3355 C3359 1.460 . S
C3355 H3361 0.929 . S
N3356 Mn3349 2.257 . S
N3356 C3355 1.326 . S
N3356 C3360 1.362 . S
C3357 C3358 1.258 . S
C3357 C3360 1.431 . S
C3357 C3377 1.449 . S
C3358 C3357 1.258 . S
C3358 C3359 1.477 . S
C3358 H3378 0.931 . S
C3359 C3355 1.460 . S
C3359 C3358 1.477 . S
C3359 H3379 0.930 . S
C3360 N3356 1.362 . S
C3360 C3357 1.431 . S
C3360 C3370 1.476 . S
H3361 C3355 0.929 . S
C3362 O3353 1.250 . S
C3362 O3354 1.258 . S
O3363 Mn3348 2.162 . S
O3363 C3351 1.281 . S
O3364 Mn3348 2.297 . S
O3364 C3351 1.236 . S
N3365 Mn3349 2.282 . S
N3365 C3366 1.328 . S
N3365 C3370 1.318 . S
C3366 N3365 1.328 . S
C3366 C3367 1.457 . S
C3366 H3371 0.929 . S
C3367 C3366 1.457 . S
C3367 C3368 1.291 . S
C3367 H3380 0.931 . S
C3368 C3367 1.291 . S
C3368 C3369 1.373 . S
C3368 H3381 0.929 . S
C3369 C3368 1.373 . S
C3369 C3370 1.396 . S
C3369 C3376 1.403 . S
C3370 C3360 1.476 . S
C3370 N3365 1.318 . S
C3370 C3369 1.396 . S
H3371 C3366 0.929 . S
O3372 Mn3348 2.385 . S
O3372 C3350 1.234 . S
O3373 Mn3348 2.209 . S
O3373 Mn3349 2.215 . S
O3373 C3350 1.283 . S
O3374 Mn3348 2.094 . S
O3374 C3352 1.240 . S
O3375 Mn3349 2.117 . S
O3375 C3352 1.264 . S
C3376 C3369 1.403 . S
C3376 C3377 1.399 . S
C3376 H3382 0.929 1_565 S
C3377 C3357 1.449 . S
C3377 C3376 1.399 . S
C3377 H3383 0.930 1_565 S
H3378 C3358 0.931 . S
H3379 C3359 0.930 . S
H3380 C3367 0.931 . S
H3381 C3368 0.929 . S
H3382 C3376 0.929 1_545 S
H3383 C3377 0.930 1_545 S
Mn3384 O3389 2.095 . S
Mn3384 O3399 2.162 . S
Mn3384 O3400 2.297 . S
Mn3384 O3408 2.385 . S
Mn3384 O3409 2.209 . S
Mn3384 O3410 2.094 . S
Mn3385 O3390 2.121 . S
Mn3385 N3392 2.257 . S
Mn3385 N3401 2.282 . S
Mn3385 O3409 2.215 . S
Mn3385 O3411 2.117 . S
C3386 O3408 1.234 . S
C3386 O3409 1.283 . S
C3387 O3399 1.281 . S
C3387 O3400 1.236 . S
C3388 O3410 1.240 . S
C3388 O3411 1.264 . S
O3389 Mn3384 2.095 . S
O3389 C3398 1.250 . S
O3390 Mn3385 2.121 . S
O3390 C3398 1.258 . S
C3391 N3392 1.326 . S
C3391 C3395 1.460 . S
C3391 H3397 0.929 . S
N3392 Mn3385 2.257 . S
N3392 C3391 1.326 . S
N3392 C3396 1.362 . S
C3393 C3394 1.258 . S
C3393 C3396 1.431 . S
C3393 C3413 1.449 . S
C3394 C3393 1.258 . S
C3394 C3395 1.477 . S
C3394 H3414 0.931 . S
C3395 C3391 1.460 . S
C3395 C3394 1.477 . S
C3395 H3415 0.930 . S
C3396 N3392 1.362 . S
C3396 C3393 1.431 . S
C3396 C3406 1.476 . S
H3397 C3391 0.929 . S
C3398 O3389 1.250 . S
C3398 O3390 1.258 . S
O3399 Mn3384 2.162 . S
O3399 C3387 1.281 . S
O3400 Mn3384 2.297 . S
O3400 C3387 1.236 . S
N3401 Mn3385 2.282 . S
N3401 C3402 1.328 . S
N3401 C3406 1.318 . S
C3402 N3401 1.328 . S
C3402 C3403 1.457 . S
C3402 H3407 0.929 . S
C3403 C3402 1.457 . S
C3403 C3404 1.291 . S
C3403 H3416 0.931 . S
C3404 C3403 1.291 . S
C3404 C3405 1.373 . S
C3404 H3417 0.929 . S
C3405 C3404 1.373 . S
C3405 C3406 1.396 . S
C3405 C3412 1.403 . S
C3406 C3396 1.476 . S
C3406 N3401 1.318 . S
C3406 C3405 1.396 . S
H3407 C3402 0.929 . S
O3408 Mn3384 2.385 . S
O3408 C3386 1.234 . S
O3409 Mn3384 2.209 . S
O3409 Mn3385 2.215 . S
O3409 C3386 1.283 . S
O3410 Mn3384 2.094 . S
O3410 C3388 1.240 . S
O3411 Mn3385 2.117 . S
O3411 C3388 1.264 . S
C3412 C3405 1.403 . S
C3412 C3413 1.399 . S
C3412 H3418 0.929 1_455 S
C3413 C3393 1.449 . S
C3413 C3412 1.399 . S
C3413 H3419 0.930 1_455 S
H3414 C3394 0.931 . S
H3415 C3395 0.930 . S
H3416 C3403 0.931 . S
H3417 C3404 0.929 . S
H3418 C3412 0.929 1_655 S
H3419 C3413 0.930 1_655 S
Mn3420 O3425 2.095 . S
Mn3420 O3435 2.162 . S
Mn3420 O3436 2.297 . S
Mn3420 O3444 2.385 . S
Mn3420 O3445 2.209 . S
Mn3420 O3446 2.094 . S
Mn3421 O3426 2.121 . S
Mn3421 N3428 2.257 . S
Mn3421 N3437 2.282 . S
Mn3421 O3445 2.215 . S
Mn3421 O3447 2.117 . S
C3422 O3444 1.234 . S
C3422 O3445 1.283 . S
C3423 O3435 1.281 . S
C3423 O3436 1.236 . S
C3424 O3446 1.240 . S
C3424 O3447 1.264 . S
O3425 Mn3420 2.095 . S
O3425 C3434 1.250 . S
O3426 Mn3421 2.121 . S
O3426 C3434 1.258 . S
C3427 N3428 1.326 . S
C3427 C3431 1.460 . S
C3427 H3433 0.929 . S
N3428 Mn3421 2.257 . S
N3428 C3427 1.326 . S
N3428 C3432 1.362 . S
C3429 C3430 1.258 . S
C3429 C3432 1.431 . S
C3429 C3449 1.449 . S
C3430 C3429 1.258 . S
C3430 C3431 1.477 . S
C3430 H3450 0.931 . S
C3431 C3427 1.460 . S
C3431 C3430 1.477 . S
C3431 H3451 0.930 . S
C3432 N3428 1.362 . S
C3432 C3429 1.431 . S
C3432 C3442 1.476 . S
H3433 C3427 0.929 . S
C3434 O3425 1.250 . S
C3434 O3426 1.258 . S
O3435 Mn3420 2.162 . S
O3435 C3423 1.281 . S
O3436 Mn3420 2.297 . S
O3436 C3423 1.236 . S
N3437 Mn3421 2.282 . S
N3437 C3438 1.328 . S
N3437 C3442 1.318 . S
C3438 N3437 1.328 . S
C3438 C3439 1.457 . S
C3438 H3443 0.929 . S
C3439 C3438 1.457 . S
C3439 C3440 1.291 . S
C3439 H3452 0.931 . S
C3440 C3439 1.291 . S
C3440 C3441 1.373 . S
C3440 H3453 0.929 . S
C3441 C3440 1.373 . S
C3441 C3442 1.396 . S
C3441 C3448 1.403 . S
C3442 C3432 1.476 . S
C3442 N3437 1.318 . S
C3442 C3441 1.396 . S
H3443 C3438 0.929 . S
O3444 Mn3420 2.385 . S
O3444 C3422 1.234 . S
O3445 Mn3420 2.209 . S
O3445 Mn3421 2.215 . S
O3445 C3422 1.283 . S
O3446 Mn3420 2.094 . S
O3446 C3424 1.240 . S
O3447 Mn3421 2.117 . S
O3447 C3424 1.264 . S
C3448 C3441 1.403 . S
C3448 C3449 1.399 . S
C3448 H3454 0.929 1_655 S
C3449 C3429 1.449 . S
C3449 C3448 1.399 . S
C3449 H3455 0.930 1_655 S
H3450 C3430 0.931 . S
H3451 C3431 0.930 . S
H3452 C3439 0.931 . S
H3453 C3440 0.929 . S
H3454 C3448 0.929 1_455 S
H3455 C3449 0.930 1_455 S
H3456 C3462 0.930 . S
H3457 C3465 0.930 . S
H3458 C3466 0.930 . S
H3459 C3467 0.930 . S
H3460 C3470 0.930 . S
H3461 C3471 0.930 . S
C3462 H3456 0.930 . S
C3462 C3463 1.355 . S
C3462 C3464 1.415 . S
C3463 C3462 1.355 . S
C3463 C3465 1.419 . S
C3464 C3462 1.415 . S
C3464 C3469 1.425 . S
C3464 C3471 1.409 . S
C3465 H3457 0.930 . S
C3465 C3463 1.419 . S
C3465 C3466 1.362 . S
C3466 H3458 0.930 . S
C3466 C3465 1.362 . S
C3466 C3469 1.409 . S
C3467 H3459 0.930 . S
C3467 C3468 1.355 . S
C3467 C3469 1.415 . S
C3468 C3467 1.355 . S
C3468 C3470 1.419 . S
C3469 C3464 1.425 . S
C3469 C3466 1.409 . S
C3469 C3467 1.415 . S
C3470 H3460 0.930 . S
C3470 C3468 1.419 . S
C3470 C3471 1.362 . S
C3471 H3461 0.930 . S
C3471 C3464 1.409 . S
C3471 C3470 1.362 . S
H3472 C3478 0.930 . S
H3473 C3481 0.930 . S
H3474 C3482 0.930 . S
H3475 C3483 0.930 . S
H3476 C3486 0.930 . S
H3477 C3487 0.930 . S
C3478 H3472 0.930 . S
C3478 C3479 1.355 . S
C3478 C3480 1.415 . S
C3479 C3478 1.355 . S
C3479 C3481 1.419 . S
C3480 C3478 1.415 . S
C3480 C3485 1.425 . S
C3480 C3487 1.409 . S
C3481 H3473 0.930 . S
C3481 C3479 1.419 . S
C3481 C3482 1.362 . S
C3482 H3474 0.930 . S
C3482 C3481 1.362 . S
C3482 C3485 1.409 . S
C3483 H3475 0.930 . S
C3483 C3484 1.355 . S
C3483 C3485 1.415 . S
C3484 C3483 1.355 . S
C3484 C3486 1.419 . S
C3485 C3480 1.425 . S
C3485 C3482 1.409 . S
C3485 C3483 1.415 . S
C3486 H3476 0.930 . S
C3486 C3484 1.419 . S
C3486 C3487 1.362 . S
C3487 H3477 0.930 . S
C3487 C3480 1.409 . S
C3487 C3486 1.362 . S
H3488 C3494 0.930 . S
H3489 C3497 0.930 . S
H3490 C3498 0.930 . S
H3491 C3499 0.930 . S
H3492 C3502 0.930 . S
H3493 C3503 0.930 . S
C3494 H3488 0.930 . S
C3494 C3495 1.355 . S
C3494 C3496 1.415 . S
C3495 C3494 1.355 . S
C3495 C3497 1.419 . S
C3496 C3494 1.415 . S
C3496 C3501 1.425 . S
C3496 C3503 1.409 . S
C3497 H3489 0.930 . S
C3497 C3495 1.419 . S
C3497 C3498 1.362 . S
C3498 H3490 0.930 . S
C3498 C3497 1.362 . S
C3498 C3501 1.409 . S
C3499 H3491 0.930 . S
C3499 C3500 1.355 . S
C3499 C3501 1.415 . S
C3500 C3499 1.355 . S
C3500 C3502 1.419 . S
C3501 C3496 1.425 . S
C3501 C3498 1.409 . S
C3501 C3499 1.415 . S
C3502 H3492 0.930 . S
C3502 C3500 1.419 . S
C3502 C3503 1.362 . S
C3503 H3493 0.930 . S
C3503 C3496 1.409 . S
C3503 C3502 1.362 . S
H3504 C3510 0.930 . S
H3505 C3513 0.930 . S
H3506 C3514 0.930 . S
H3507 C3515 0.930 . S
H3508 C3518 0.930 . S
H3509 C3519 0.930 . S
C3510 H3504 0.930 . S
C3510 C3511 1.355 . S
C3510 C3512 1.415 . S
C3511 C3510 1.355 . S
C3511 C3513 1.419 . S
C3512 C3510 1.415 . S
C3512 C3517 1.425 . S
C3512 C3519 1.409 . S
C3513 H3505 0.930 . S
C3513 C3511 1.419 . S
C3513 C3514 1.362 . S
C3514 H3506 0.930 . S
C3514 C3513 1.362 . S
C3514 C3517 1.409 . S
C3515 H3507 0.930 . S
C3515 C3516 1.355 . S
C3515 C3517 1.415 . S
C3516 C3515 1.355 . S
C3516 C3518 1.419 . S
C3517 C3512 1.425 . S
C3517 C3514 1.409 . S
C3517 C3515 1.415 . S
C3518 H3508 0.930 . S
C3518 C3516 1.419 . S
C3518 C3519 1.362 . S
C3519 H3509 0.930 . S
C3519 C3512 1.409 . S
C3519 C3518 1.362 . S
H3520 C3526 0.930 . S
H3521 C3529 0.930 . S
H3522 C3530 0.930 . S
H3523 C3531 0.930 . S
H3524 C3534 0.930 . S
H3525 C3535 0.930 . S
C3526 H3520 0.930 . S
C3526 C3527 1.355 . S
C3526 C3528 1.415 . S
C3527 C3526 1.355 . S
C3527 C3529 1.419 . S
C3528 C3526 1.415 . S
C3528 C3533 1.425 . S
C3528 C3535 1.409 . S
C3529 H3521 0.930 . S
C3529 C3527 1.419 . S
C3529 C3530 1.362 . S
C3530 H3522 0.930 . S
C3530 C3529 1.362 . S
C3530 C3533 1.409 . S
C3531 H3523 0.930 . S
C3531 C3532 1.355 . S
C3531 C3533 1.415 . S
C3532 C3531 1.355 . S
C3532 C3534 1.419 . S
C3533 C3528 1.425 . S
C3533 C3530 1.409 . S
C3533 C3531 1.415 . S
C3534 H3524 0.930 . S
C3534 C3532 1.419 . S
C3534 C3535 1.362 . S
C3535 H3525 0.930 . S
C3535 C3528 1.409 . S
C3535 C3534 1.362 . S
H3536 C3542 0.930 . S
H3537 C3545 0.930 . S
H3538 C3546 0.930 . S
H3539 C3547 0.930 . S
H3540 C3550 0.930 . S
H3541 C3551 0.930 . S
C3542 H3536 0.930 . S
C3542 C3543 1.355 . S
C3542 C3544 1.415 . S
C3543 C3542 1.355 . S
C3543 C3545 1.419 . S
C3544 C3542 1.415 . S
C3544 C3549 1.425 . S
C3544 C3551 1.409 . S
C3545 H3537 0.930 . S
C3545 C3543 1.419 . S
C3545 C3546 1.362 . S
C3546 H3538 0.930 . S
C3546 C3545 1.362 . S
C3546 C3549 1.409 . S
C3547 H3539 0.930 . S
C3547 C3548 1.355 . S
C3547 C3549 1.415 . S
C3548 C3547 1.355 . S
C3548 C3550 1.419 . S
C3549 C3544 1.425 . S
C3549 C3546 1.409 . S
C3549 C3547 1.415 . S
C3550 H3540 0.930 . S
C3550 C3548 1.419 . S
C3550 C3551 1.362 . S
C3551 H3541 0.930 . S
C3551 C3544 1.409 . S
C3551 C3550 1.362 . S
H3552 C3558 0.930 . S
H3553 C3561 0.930 . S
H3554 C3562 0.930 . S
H3555 C3563 0.930 . S
H3556 C3566 0.930 . S
H3557 C3567 0.930 . S
C3558 H3552 0.930 . S
C3558 C3559 1.355 . S
C3558 C3560 1.415 . S
C3559 C3558 1.355 . S
C3559 C3561 1.419 . S
C3560 C3558 1.415 . S
C3560 C3565 1.425 . S
C3560 C3567 1.409 . S
C3561 H3553 0.930 . S
C3561 C3559 1.419 . S
C3561 C3562 1.362 . S
C3562 H3554 0.930 . S
C3562 C3561 1.362 . S
C3562 C3565 1.409 . S
C3563 H3555 0.930 . S
C3563 C3564 1.355 . S
C3563 C3565 1.415 . S
C3564 C3563 1.355 . S
C3564 C3566 1.419 . S
C3565 C3560 1.425 . S
C3565 C3562 1.409 . S
C3565 C3563 1.415 . S
C3566 H3556 0.930 . S
C3566 C3564 1.419 . S
C3566 C3567 1.362 . S
C3567 H3557 0.930 . S
C3567 C3560 1.409 . S
C3567 C3566 1.362 . S
H3568 C3574 0.930 . S
H3569 C3577 0.930 . S
H3570 C3578 0.930 . S
H3571 C3579 0.930 . S
H3572 C3582 0.930 . S
H3573 C3583 0.930 . S
C3574 H3568 0.930 . S
C3574 C3575 1.355 . S
C3574 C3576 1.415 . S
C3575 C3574 1.355 . S
C3575 C3577 1.419 . S
C3576 C3574 1.415 . S
C3576 C3581 1.425 . S
C3576 C3583 1.409 . S
C3577 H3569 0.930 . S
C3577 C3575 1.419 . S
C3577 C3578 1.362 . S
C3578 H3570 0.930 . S
C3578 C3577 1.362 . S
C3578 C3581 1.409 . S
C3579 H3571 0.930 . S
C3579 C3580 1.355 . S
C3579 C3581 1.415 . S
C3580 C3579 1.355 . S
C3580 C3582 1.419 . S
C3581 C3576 1.425 . S
C3581 C3578 1.409 . S
C3581 C3579 1.415 . S
C3582 H3572 0.930 . S
C3582 C3580 1.419 . S
C3582 C3583 1.362 . S
C3583 H3573 0.930 . S
C3583 C3576 1.409 . S
C3583 C3582 1.362 . S
H3584 C3590 0.930 . S
H3585 C3593 0.930 . S
H3586 C3594 0.930 . S
H3587 C3595 0.930 . S
H3588 C3598 0.930 . S
H3589 C3599 0.930 . S
C3590 H3584 0.930 . S
C3590 C3591 1.355 . S
C3590 C3592 1.415 . S
C3591 C3590 1.355 . S
C3591 C3593 1.419 . S
C3592 C3590 1.415 . S
C3592 C3597 1.425 . S
C3592 C3599 1.409 . S
C3593 H3585 0.930 . S
C3593 C3591 1.419 . S
C3593 C3594 1.362 . S
C3594 H3586 0.930 . S
C3594 C3593 1.362 . S
C3594 C3597 1.409 . S
C3595 H3587 0.930 . S
C3595 C3596 1.355 . S
C3595 C3597 1.415 . S
C3596 C3595 1.355 . S
C3596 C3598 1.419 . S
C3597 C3592 1.425 . S
C3597 C3594 1.409 . S
C3597 C3595 1.415 . S
C3598 H3588 0.930 . S
C3598 C3596 1.419 . S
C3598 C3599 1.362 . S
C3599 H3589 0.930 . S
C3599 C3592 1.409 . S
C3599 C3598 1.362 . S
H3600 C3606 0.930 . S
H3601 C3609 0.930 . S
H3602 C3610 0.930 . S
H3603 C3611 0.930 . S
H3604 C3614 0.930 . S
H3605 C3615 0.930 . S
C3606 H3600 0.930 . S
C3606 C3607 1.355 . S
C3606 C3608 1.415 . S
C3607 C3606 1.355 . S
C3607 C3609 1.419 . S
C3608 C3606 1.415 . S
C3608 C3613 1.425 . S
C3608 C3615 1.409 . S
C3609 H3601 0.930 . S
C3609 C3607 1.419 . S
C3609 C3610 1.362 . S
C3610 H3602 0.930 . S
C3610 C3609 1.362 . S
C3610 C3613 1.409 . S
C3611 H3603 0.930 . S
C3611 C3612 1.355 . S
C3611 C3613 1.415 . S
C3612 C3611 1.355 . S
C3612 C3614 1.419 . S
C3613 C3608 1.425 . S
C3613 C3610 1.409 . S
C3613 C3611 1.415 . S
C3614 H3604 0.930 . S
C3614 C3612 1.419 . S
C3614 C3615 1.362 . S
C3615 H3605 0.930 . S
C3615 C3608 1.409 . S
C3615 C3614 1.362 . S
H3616 C3622 0.930 . S
H3617 C3625 0.930 . S
H3618 C3626 0.930 . S
H3619 C3627 0.930 . S
H3620 C3630 0.930 . S
H3621 C3631 0.930 . S
C3622 H3616 0.930 . S
C3622 C3623 1.355 . S
C3622 C3624 1.415 . S
C3623 C3622 1.355 . S
C3623 C3625 1.419 . S
C3624 C3622 1.415 . S
C3624 C3629 1.425 . S
C3624 C3631 1.409 . S
C3625 H3617 0.930 . S
C3625 C3623 1.419 . S
C3625 C3626 1.362 . S
C3626 H3618 0.930 . S
C3626 C3625 1.362 . S
C3626 C3629 1.409 . S
C3627 H3619 0.930 . S
C3627 C3628 1.355 . S
C3627 C3629 1.415 . S
C3628 C3627 1.355 . S
C3628 C3630 1.419 . S
C3629 C3624 1.425 . S
C3629 C3626 1.409 . S
C3629 C3627 1.415 . S
C3630 H3620 0.930 . S
C3630 C3628 1.419 . S
C3630 C3631 1.362 . S
C3631 H3621 0.930 . S
C3631 C3624 1.409 . S
C3631 C3630 1.362 . S
H3632 C3638 0.930 . S
H3633 C3641 0.930 . S
H3634 C3642 0.930 . S
H3635 C3643 0.930 . S
H3636 C3646 0.930 . S
H3637 C3647 0.930 . S
C3638 H3632 0.930 . S
C3638 C3639 1.355 . S
C3638 C3640 1.415 . S
C3639 C3638 1.355 . S
C3639 C3641 1.419 . S
C3640 C3638 1.415 . S
C3640 C3645 1.425 . S
C3640 C3647 1.409 . S
C3641 H3633 0.930 . S
C3641 C3639 1.419 . S
C3641 C3642 1.362 . S
C3642 H3634 0.930 . S
C3642 C3641 1.362 . S
C3642 C3645 1.409 . S
C3643 H3635 0.930 . S
C3643 C3644 1.355 . S
C3643 C3645 1.415 . S
C3644 C3643 1.355 . S
C3644 C3646 1.419 . S
C3645 C3640 1.425 . S
C3645 C3642 1.409 . S
C3645 C3643 1.415 . S
C3646 H3636 0.930 . S
C3646 C3644 1.419 . S
C3646 C3647 1.362 . S
C3647 H3637 0.930 . S
C3647 C3640 1.409 . S
C3647 C3646 1.362 . S
H3648 C3654 0.930 . S
H3649 C3657 0.930 . S
H3650 C3658 0.930 . S
H3651 C3659 0.930 . S
H3652 C3662 0.930 . S
H3653 C3663 0.930 . S
C3654 H3648 0.930 . S
C3654 C3655 1.355 . S
C3654 C3656 1.415 . S
C3655 C3654 1.355 . S
C3655 C3657 1.419 . S
C3656 C3654 1.415 . S
C3656 C3661 1.425 . S
C3656 C3663 1.409 . S
C3657 H3649 0.930 . S
C3657 C3655 1.419 . S
C3657 C3658 1.362 . S
C3658 H3650 0.930 . S
C3658 C3657 1.362 . S
C3658 C3661 1.409 . S
C3659 H3651 0.930 . S
C3659 C3660 1.355 . S
C3659 C3661 1.415 . S
C3660 C3659 1.355 . S
C3660 C3662 1.419 . S
C3661 C3656 1.425 . S
C3661 C3658 1.409 . S
C3661 C3659 1.415 . S
C3662 H3652 0.930 . S
C3662 C3660 1.419 . S
C3662 C3663 1.362 . S
C3663 H3653 0.930 . S
C3663 C3656 1.409 . S
C3663 C3662 1.362 . S
H3664 C3670 0.930 . S
H3665 C3673 0.930 . S
H3666 C3674 0.930 . S
H3667 C3675 0.930 . S
H3668 C3678 0.930 . S
H3669 C3679 0.930 . S
C3670 H3664 0.930 . S
C3670 C3671 1.355 . S
C3670 C3672 1.415 . S
C3671 C3670 1.355 . S
C3671 C3673 1.419 . S
C3672 C3670 1.415 . S
C3672 C3677 1.425 . S
C3672 C3679 1.409 . S
C3673 H3665 0.930 . S
C3673 C3671 1.419 . S
C3673 C3674 1.362 . S
C3674 H3666 0.930 . S
C3674 C3673 1.362 . S
C3674 C3677 1.409 . S
C3675 H3667 0.930 . S
C3675 C3676 1.355 . S
C3675 C3677 1.415 . S
C3676 C3675 1.355 . S
C3676 C3678 1.419 . S
C3677 C3672 1.425 . S
C3677 C3674 1.409 . S
C3677 C3675 1.415 . S
C3678 H3668 0.930 . S
C3678 C3676 1.419 . S
C3678 C3679 1.362 . S
C3679 H3669 0.930 . S
C3679 C3672 1.409 . S
C3679 C3678 1.362 . S
H3680 C3686 0.930 . S
H3681 C3689 0.930 . S
H3682 C3690 0.930 . S
H3683 C3691 0.930 . S
H3684 C3694 0.930 . S
H3685 C3695 0.930 . S
C3686 H3680 0.930 . S
C3686 C3687 1.355 . S
C3686 C3688 1.415 . S
C3687 C3686 1.355 . S
C3687 C3689 1.419 . S
C3688 C3686 1.415 . S
C3688 C3693 1.425 . S
C3688 C3695 1.409 . S
C3689 H3681 0.930 . S
C3689 C3687 1.419 . S
C3689 C3690 1.362 . S
C3690 H3682 0.930 . S
C3690 C3689 1.362 . S
C3690 C3693 1.409 . S
C3691 H3683 0.930 . S
C3691 C3692 1.355 . S
C3691 C3693 1.415 . S
C3692 C3691 1.355 . S
C3692 C3694 1.419 . S
C3693 C3688 1.425 . S
C3693 C3690 1.409 . S
C3693 C3691 1.415 . S
C3694 H3684 0.930 . S
C3694 C3692 1.419 . S
C3694 C3695 1.362 . S
C3695 H3685 0.930 . S
C3695 C3688 1.409 . S
C3695 C3694 1.362 . S
H3696 C3702 0.930 . S
H3697 C3705 0.930 . S
H3698 C3706 0.930 . S
H3699 C3707 0.930 . S
H3700 C3710 0.930 . S
H3701 C3711 0.930 . S
C3702 H3696 0.930 . S
C3702 C3703 1.355 . S
C3702 C3704 1.415 . S
C3703 C3702 1.355 . S
C3703 C3705 1.419 . S
C3704 C3702 1.415 . S
C3704 C3709 1.425 . S
C3704 C3711 1.409 . S
C3705 H3697 0.930 . S
C3705 C3703 1.419 . S
C3705 C3706 1.362 . S
C3706 H3698 0.930 . S
C3706 C3705 1.362 . S
C3706 C3709 1.409 . S
C3707 H3699 0.930 . S
C3707 C3708 1.355 . S
C3707 C3709 1.415 . S
C3708 C3707 1.355 . S
C3708 C3710 1.419 . S
C3709 C3704 1.425 . S
C3709 C3706 1.409 . S
C3709 C3707 1.415 . S
C3710 H3700 0.930 . S
C3710 C3708 1.419 . S
C3710 C3711 1.362 . S
C3711 H3701 0.930 . S
C3711 C3704 1.409 . S
C3711 C3710 1.362 . S
H3712 C3718 0.930 . S
H3713 C3721 0.930 . S
H3714 C3722 0.930 . S
H3715 C3723 0.930 . S
H3716 C3726 0.930 . S
H3717 C3727 0.930 . S
C3718 H3712 0.930 . S
C3718 C3719 1.355 . S
C3718 C3720 1.415 . S
C3719 C3718 1.355 . S
C3719 C3721 1.419 . S
C3720 C3718 1.415 . S
C3720 C3725 1.425 . S
C3720 C3727 1.409 . S
C3721 H3713 0.930 . S
C3721 C3719 1.419 . S
C3721 C3722 1.362 . S
C3722 H3714 0.930 . S
C3722 C3721 1.362 . S
C3722 C3725 1.409 . S
C3723 H3715 0.930 . S
C3723 C3724 1.355 . S
C3723 C3725 1.415 . S
C3724 C3723 1.355 . S
C3724 C3726 1.419 . S
C3725 C3720 1.425 . S
C3725 C3722 1.409 . S
C3725 C3723 1.415 . S
C3726 H3716 0.930 . S
C3726 C3724 1.419 . S
C3726 C3727 1.362 . S
C3727 H3717 0.930 . S
C3727 C3720 1.409 . S
C3727 C3726 1.362 . S
H3728 C3734 0.930 . S
H3729 C3737 0.930 . S
H3730 C3738 0.930 . S
H3731 C3739 0.930 . S
H3732 C3742 0.930 . S
H3733 C3743 0.930 . S
C3734 H3728 0.930 . S
C3734 C3735 1.355 . S
C3734 C3736 1.415 . S
C3735 C3734 1.355 . S
C3735 C3737 1.419 . S
C3736 C3734 1.415 . S
C3736 C3741 1.425 . S
C3736 C3743 1.409 . S
C3737 H3729 0.930 . S
C3737 C3735 1.419 . S
C3737 C3738 1.362 . S
C3738 H3730 0.930 . S
C3738 C3737 1.362 . S
C3738 C3741 1.409 . S
C3739 H3731 0.930 . S
C3739 C3740 1.355 . S
C3739 C3741 1.415 . S
C3740 C3739 1.355 . S
C3740 C3742 1.419 . S
C3741 C3736 1.425 . S
C3741 C3738 1.409 . S
C3741 C3739 1.415 . S
C3742 H3732 0.930 . S
C3742 C3740 1.419 . S
C3742 C3743 1.362 . S
C3743 H3733 0.930 . S
C3743 C3736 1.409 . S
C3743 C3742 1.362 . S
H3744 C3750 0.930 . S
H3745 C3753 0.930 . S
H3746 C3754 0.930 . S
H3747 C3755 0.930 . S
H3748 C3758 0.930 . S
H3749 C3759 0.930 . S
C3750 H3744 0.930 . S
C3750 C3751 1.355 . S
C3750 C3752 1.415 . S
C3751 C3750 1.355 . S
C3751 C3753 1.419 . S
C3752 C3750 1.415 . S
C3752 C3757 1.425 . S
C3752 C3759 1.409 . S
C3753 H3745 0.930 . S
C3753 C3751 1.419 . S
C3753 C3754 1.362 . S
C3754 H3746 0.930 . S
C3754 C3753 1.362 . S
C3754 C3757 1.409 . S
C3755 H3747 0.930 . S
C3755 C3756 1.355 . S
C3755 C3757 1.415 . S
C3756 C3755 1.355 . S
C3756 C3758 1.419 . S
C3757 C3752 1.425 . S
C3757 C3754 1.409 . S
C3757 C3755 1.415 . S
C3758 H3748 0.930 . S
C3758 C3756 1.419 . S
C3758 C3759 1.362 . S
C3759 H3749 0.930 . S
C3759 C3752 1.409 . S
C3759 C3758 1.362 . S
H3760 C3766 0.930 . S
H3761 C3769 0.930 . S
H3762 C3770 0.930 . S
H3763 C3771 0.930 . S
H3764 C3774 0.930 . S
H3765 C3775 0.930 . S
C3766 H3760 0.930 . S
C3766 C3767 1.355 . S
C3766 C3768 1.415 . S
C3767 C3766 1.355 . S
C3767 C3769 1.419 . S
C3768 C3766 1.415 . S
C3768 C3773 1.425 . S
C3768 C3775 1.409 . S
C3769 H3761 0.930 . S
C3769 C3767 1.419 . S
C3769 C3770 1.362 . S
C3770 H3762 0.930 . S
C3770 C3769 1.362 . S
C3770 C3773 1.409 . S
C3771 H3763 0.930 . S
C3771 C3772 1.355 . S
C3771 C3773 1.415 . S
C3772 C3771 1.355 . S
C3772 C3774 1.419 . S
C3773 C3768 1.425 . S
C3773 C3770 1.409 . S
C3773 C3771 1.415 . S
C3774 H3764 0.930 . S
C3774 C3772 1.419 . S
C3774 C3775 1.362 . S
C3775 H3765 0.930 . S
C3775 C3768 1.409 . S
C3775 C3774 1.362 . S
H3776 C3782 0.930 . S
H3777 C3785 0.930 . S
H3778 C3786 0.930 . S
H3779 C3787 0.930 . S
H3780 C3790 0.930 . S
H3781 C3791 0.930 . S
C3782 H3776 0.930 . S
C3782 C3783 1.355 . S
C3782 C3784 1.415 . S
C3783 C3782 1.355 . S
C3783 C3785 1.419 . S
C3784 C3782 1.415 . S
C3784 C3789 1.425 . S
C3784 C3791 1.409 . S
C3785 H3777 0.930 . S
C3785 C3783 1.419 . S
C3785 C3786 1.362 . S
C3786 H3778 0.930 . S
C3786 C3785 1.362 . S
C3786 C3789 1.409 . S
C3787 H3779 0.930 . S
C3787 C3788 1.355 . S
C3787 C3789 1.415 . S
C3788 C3787 1.355 . S
C3788 C3790 1.419 . S
C3789 C3784 1.425 . S
C3789 C3786 1.409 . S
C3789 C3787 1.415 . S
C3790 H3780 0.930 . S
C3790 C3788 1.419 . S
C3790 C3791 1.362 . S
C3791 H3781 0.930 . S
C3791 C3784 1.409 . S
C3791 C3790 1.362 . S
H3792 C3798 0.930 . S
H3793 C3801 0.930 . S
H3794 C3802 0.930 . S
H3795 C3803 0.930 . S
H3796 C3806 0.930 . S
H3797 C3807 0.930 . S
C3798 H3792 0.930 . S
C3798 C3799 1.355 . S
C3798 C3800 1.415 . S
C3799 C3798 1.355 . S
C3799 C3801 1.419 . S
C3800 C3798 1.415 . S
C3800 C3805 1.425 . S
C3800 C3807 1.409 . S
C3801 H3793 0.930 . S
C3801 C3799 1.419 . S
C3801 C3802 1.362 . S
C3802 H3794 0.930 . S
C3802 C3801 1.362 . S
C3802 C3805 1.409 . S
C3803 H3795 0.930 . S
C3803 C3804 1.355 . S
C3803 C3805 1.415 . S
C3804 C3803 1.355 . S
C3804 C3806 1.419 . S
C3805 C3800 1.425 . S
C3805 C3802 1.409 . S
C3805 C3803 1.415 . S
C3806 H3796 0.930 . S
C3806 C3804 1.419 . S
C3806 C3807 1.362 . S
C3807 H3797 0.930 . S
C3807 C3800 1.409 . S
C3807 C3806 1.362 . S
H3808 C3814 0.930 . S
H3809 C3817 0.930 . S
H3810 C3818 0.930 . S
H3811 C3819 0.930 . S
H3812 C3822 0.930 . S
H3813 C3823 0.930 . S
C3814 H3808 0.930 . S
C3814 C3815 1.355 . S
C3814 C3816 1.415 . S
C3815 C3814 1.355 . S
C3815 C3817 1.419 . S
C3816 C3814 1.415 . S
C3816 C3821 1.425 . S
C3816 C3823 1.409 . S
C3817 H3809 0.930 . S
C3817 C3815 1.419 . S
C3817 C3818 1.362 . S
C3818 H3810 0.930 . S
C3818 C3817 1.362 . S
C3818 C3821 1.409 . S
C3819 H3811 0.930 . S
C3819 C3820 1.355 . S
C3819 C3821 1.415 . S
C3820 C3819 1.355 . S
C3820 C3822 1.419 . S
C3821 C3816 1.425 . S
C3821 C3818 1.409 . S
C3821 C3819 1.415 . S
C3822 H3812 0.930 . S
C3822 C3820 1.419 . S
C3822 C3823 1.362 . S
C3823 H3813 0.930 . S
C3823 C3816 1.409 . S
C3823 C3822 1.362 . S
H3824 C3830 0.930 . S
H3825 C3833 0.930 . S
H3826 C3834 0.930 . S
H3827 C3835 0.930 . S
H3828 C3838 0.930 . S
H3829 C3839 0.930 . S
C3830 H3824 0.930 . S
C3830 C3831 1.355 . S
C3830 C3832 1.415 . S
C3831 C3830 1.355 . S
C3831 C3833 1.419 . S
C3832 C3830 1.415 . S
C3832 C3837 1.425 . S
C3832 C3839 1.409 . S
C3833 H3825 0.930 . S
C3833 C3831 1.419 . S
C3833 C3834 1.362 . S
C3834 H3826 0.930 . S
C3834 C3833 1.362 . S
C3834 C3837 1.409 . S
C3835 H3827 0.930 . S
C3835 C3836 1.355 . S
C3835 C3837 1.415 . S
C3836 C3835 1.355 . S
C3836 C3838 1.419 . S
C3837 C3832 1.425 . S
C3837 C3834 1.409 . S
C3837 C3835 1.415 . S
C3838 H3828 0.930 . S
C3838 C3836 1.419 . S
C3838 C3839 1.362 . S
C3839 H3829 0.930 . S
C3839 C3832 1.409 . S
C3839 C3838 1.362 . S
H3840 C3846 0.930 . S
H3841 C3849 0.930 . S
H3842 C3850 0.930 . S
H3843 C3851 0.930 . S
H3844 C3854 0.930 . S
H3845 C3855 0.930 . S
C3846 H3840 0.930 . S
C3846 C3847 1.355 . S
C3846 C3848 1.415 . S
C3847 C3846 1.355 . S
C3847 C3849 1.419 . S
C3848 C3846 1.415 . S
C3848 C3853 1.425 . S
C3848 C3855 1.409 . S
C3849 H3841 0.930 . S
C3849 C3847 1.419 . S
C3849 C3850 1.362 . S
C3850 H3842 0.930 . S
C3850 C3849 1.362 . S
C3850 C3853 1.409 . S
C3851 H3843 0.930 . S
C3851 C3852 1.355 . S
C3851 C3853 1.415 . S
C3852 C3851 1.355 . S
C3852 C3854 1.419 . S
C3853 C3848 1.425 . S
C3853 C3850 1.409 . S
C3853 C3851 1.415 . S
C3854 H3844 0.930 . S
C3854 C3852 1.419 . S
C3854 C3855 1.362 . S
C3855 H3845 0.930 . S
C3855 C3848 1.409 . S
C3855 C3854 1.362 . S
H3856 C3862 0.930 . S
H3857 C3865 0.930 . S
H3858 C3866 0.930 . S
H3859 C3867 0.930 . S
H3860 C3870 0.930 . S
H3861 C3871 0.930 . S
C3862 H3856 0.930 . S
C3862 C3863 1.355 . S
C3862 C3864 1.415 . S
C3863 C3862 1.355 . S
C3863 C3865 1.419 . S
C3864 C3862 1.415 . S
C3864 C3869 1.425 . S
C3864 C3871 1.409 . S
C3865 H3857 0.930 . S
C3865 C3863 1.419 . S
C3865 C3866 1.362 . S
C3866 H3858 0.930 . S
C3866 C3865 1.362 . S
C3866 C3869 1.409 . S
C3867 H3859 0.930 . S
C3867 C3868 1.355 . S
C3867 C3869 1.415 . S
C3868 C3867 1.355 . S
C3868 C3870 1.419 . S
C3869 C3864 1.425 . S
C3869 C3866 1.409 . S
C3869 C3867 1.415 . S
C3870 H3860 0.930 . S
C3870 C3868 1.419 . S
C3870 C3871 1.362 . S
C3871 H3861 0.930 . S
C3871 C3864 1.409 . S
C3871 C3870 1.362 . S
H3872 C3878 0.930 . S
H3873 C3881 0.930 . S
H3874 C3882 0.930 . S
H3875 C3883 0.930 . S
H3876 C3886 0.930 . S
H3877 C3887 0.930 . S
C3878 H3872 0.930 . S
C3878 C3879 1.355 . S
C3878 C3880 1.415 . S
C3879 C3878 1.355 . S
C3879 C3881 1.419 . S
C3880 C3878 1.415 . S
C3880 C3885 1.425 . S
C3880 C3887 1.409 . S
C3881 H3873 0.930 . S
C3881 C3879 1.419 . S
C3881 C3882 1.362 . S
C3882 H3874 0.930 . S
C3882 C3881 1.362 . S
C3882 C3885 1.409 . S
C3883 H3875 0.930 . S
C3883 C3884 1.355 . S
C3883 C3885 1.415 . S
C3884 C3883 1.355 . S
C3884 C3886 1.419 . S
C3885 C3880 1.425 . S
C3885 C3882 1.409 . S
C3885 C3883 1.415 . S
C3886 H3876 0.930 . S
C3886 C3884 1.419 . S
C3886 C3887 1.362 . S
C3887 H3877 0.930 . S
C3887 C3880 1.409 . S
C3887 C3886 1.362 . S
H3888 C3894 0.930 . S
H3889 C3897 0.930 . S
H3890 C3898 0.930 . S
H3891 C3899 0.930 . S
H3892 C3902 0.930 . S
H3893 C3903 0.930 . S
C3894 H3888 0.930 . S
C3894 C3895 1.355 . S
C3894 C3896 1.415 . S
C3895 C3894 1.355 . S
C3895 C3897 1.419 . S
C3896 C3894 1.415 . S
C3896 C3901 1.425 . S
C3896 C3903 1.409 . S
C3897 H3889 0.930 . S
C3897 C3895 1.419 . S
C3897 C3898 1.362 . S
C3898 H3890 0.930 . S
C3898 C3897 1.362 . S
C3898 C3901 1.409 . S
C3899 H3891 0.930 . S
C3899 C3900 1.355 . S
C3899 C3901 1.415 . S
C3900 C3899 1.355 . S
C3900 C3902 1.419 . S
C3901 C3896 1.425 . S
C3901 C3898 1.409 . S
C3901 C3899 1.415 . S
C3902 H3892 0.930 . S
C3902 C3900 1.419 . S
C3902 C3903 1.362 . S
C3903 H3893 0.930 . S
C3903 C3896 1.409 . S
C3903 C3902 1.362 . S
H3904 C3910 0.930 . S
H3905 C3913 0.930 . S
H3906 C3914 0.930 . S
H3907 C3915 0.930 . S
H3908 C3918 0.930 . S
H3909 C3919 0.930 . S
C3910 H3904 0.930 . S
C3910 C3911 1.355 . S
C3910 C3912 1.415 . S
C3911 C3910 1.355 . S
C3911 C3913 1.419 . S
C3912 C3910 1.415 . S
C3912 C3917 1.425 . S
C3912 C3919 1.409 . S
C3913 H3905 0.930 . S
C3913 C3911 1.419 . S
C3913 C3914 1.362 . S
C3914 H3906 0.930 . S
C3914 C3913 1.362 . S
C3914 C3917 1.409 . S
C3915 H3907 0.930 . S
C3915 C3916 1.355 . S
C3915 C3917 1.415 . S
C3916 C3915 1.355 . S
C3916 C3918 1.419 . S
C3917 C3912 1.425 . S
C3917 C3914 1.409 . S
C3917 C3915 1.415 . S
C3918 H3908 0.930 . S
C3918 C3916 1.419 . S
C3918 C3919 1.362 . S
C3919 H3909 0.930 . S
C3919 C3912 1.409 . S
C3919 C3918 1.362 . S
H3920 C3926 0.930 . S
H3921 C3929 0.930 . S
H3922 C3930 0.930 . S
H3923 C3931 0.930 . S
H3924 C3934 0.930 . S
H3925 C3935 0.930 . S
C3926 H3920 0.930 . S
C3926 C3927 1.355 . S
C3926 C3928 1.415 . S
C3927 C3926 1.355 . S
C3927 C3929 1.419 . S
C3928 C3926 1.415 . S
C3928 C3933 1.425 . S
C3928 C3935 1.409 . S
C3929 H3921 0.930 . S
C3929 C3927 1.419 . S
C3929 C3930 1.362 . S
C3930 H3922 0.930 . S
C3930 C3929 1.362 . S
C3930 C3933 1.409 . S
C3931 H3923 0.930 . S
C3931 C3932 1.355 . S
C3931 C3933 1.415 . S
C3932 C3931 1.355 . S
C3932 C3934 1.419 . S
C3933 C3928 1.425 . S
C3933 C3930 1.409 . S
C3933 C3931 1.415 . S
C3934 H3924 0.930 . S
C3934 C3932 1.419 . S
C3934 C3935 1.362 . S
C3935 H3925 0.930 . S
C3935 C3928 1.409 . S
C3935 C3934 1.362 . S
H3936 C3942 0.930 . S
H3937 C3945 0.930 . S
H3938 C3946 0.930 . S
H3939 C3947 0.930 . S
H3940 C3950 0.930 . S
H3941 C3951 0.930 . S
C3942 H3936 0.930 . S
C3942 C3943 1.355 . S
C3942 C3944 1.415 . S
C3943 C3942 1.355 . S
C3943 C3945 1.419 . S
C3944 C3942 1.415 . S
C3944 C3949 1.425 . S
C3944 C3951 1.409 . S
C3945 H3937 0.930 . S
C3945 C3943 1.419 . S
C3945 C3946 1.362 . S
C3946 H3938 0.930 . S
C3946 C3945 1.362 . S
C3946 C3949 1.409 . S
C3947 H3939 0.930 . S
C3947 C3948 1.355 . S
C3947 C3949 1.415 . S
C3948 C3947 1.355 . S
C3948 C3950 1.419 . S
C3949 C3944 1.425 . S
C3949 C3946 1.409 . S
C3949 C3947 1.415 . S
C3950 H3940 0.930 . S
C3950 C3948 1.419 . S
C3950 C3951 1.362 . S
C3951 H3941 0.930 . S
C3951 C3944 1.409 . S
C3951 C3950 1.362 . S
H3952 C3958 0.930 . S
H3953 C3961 0.930 . S
H3954 C3962 0.930 . S
H3955 C3963 0.930 . S
H3956 C3966 0.930 . S
H3957 C3967 0.930 . S
C3958 H3952 0.930 . S
C3958 C3959 1.355 . S
C3958 C3960 1.415 . S
C3959 C3958 1.355 . S
C3959 C3961 1.419 . S
C3960 C3958 1.415 . S
C3960 C3965 1.425 . S
C3960 C3967 1.409 . S
C3961 H3953 0.930 . S
C3961 C3959 1.419 . S
C3961 C3962 1.362 . S
C3962 H3954 0.930 . S
C3962 C3961 1.362 . S
C3962 C3965 1.409 . S
C3963 H3955 0.930 . S
C3963 C3964 1.355 . S
C3963 C3965 1.415 . S
C3964 C3963 1.355 . S
C3964 C3966 1.419 . S
C3965 C3960 1.425 . S
C3965 C3962 1.409 . S
C3965 C3963 1.415 . S
C3966 H3956 0.930 . S
C3966 C3964 1.419 . S
C3966 C3967 1.362 . S
C3967 H3957 0.930 . S
C3967 C3960 1.409 . S
C3967 C3966 1.362 . S
H3968 C3974 0.930 . S
H3969 C3977 0.930 . S
H3970 C3978 0.930 . S
H3971 C3979 0.930 . S
H3972 C3982 0.930 . S
H3973 C3983 0.930 . S
C3974 H3968 0.930 . S
C3974 C3975 1.355 . S
C3974 C3976 1.415 . S
C3975 C3974 1.355 . S
C3975 C3977 1.419 . S
C3976 C3974 1.415 . S
C3976 C3981 1.425 . S
C3976 C3983 1.409 . S
C3977 H3969 0.930 . S
C3977 C3975 1.419 . S
C3977 C3978 1.362 . S
C3978 H3970 0.930 . S
C3978 C3977 1.362 . S
C3978 C3981 1.409 . S
C3979 H3971 0.930 . S
C3979 C3980 1.355 . S
C3979 C3981 1.415 . S
C3980 C3979 1.355 . S
C3980 C3982 1.419 . S
C3981 C3976 1.425 . S
C3981 C3978 1.409 . S
C3981 C3979 1.415 . S
C3982 H3972 0.930 . S
C3982 C3980 1.419 . S
C3982 C3983 1.362 . S
C3983 H3973 0.930 . S
C3983 C3976 1.409 . S
C3983 C3982 1.362 . S
H3984 C3990 0.930 . S
H3985 C3993 0.930 . S
H3986 C3994 0.930 . S
H3987 C3995 0.930 . S
H3988 C3998 0.930 . S
H3989 C3999 0.930 . S
C3990 H3984 0.930 . S
C3990 C3991 1.355 . S
C3990 C3992 1.415 . S
C3991 C3990 1.355 . S
C3991 C3993 1.419 . S
C3992 C3990 1.415 . S
C3992 C3997 1.425 . S
C3992 C3999 1.409 . S
C3993 H3985 0.930 . S
C3993 C3991 1.419 . S
C3993 C3994 1.362 . S
C3994 H3986 0.930 . S
C3994 C3993 1.362 . S
C3994 C3997 1.409 . S
C3995 H3987 0.930 . S
C3995 C3996 1.355 . S
C3995 C3997 1.415 . S
C3996 C3995 1.355 . S
C3996 C3998 1.419 . S
C3997 C3992 1.425 . S
C3997 C3994 1.409 . S
C3997 C3995 1.415 . S
C3998 H3988 0.930 . S
C3998 C3996 1.419 . S
C3998 C3999 1.362 . S
C3999 H3989 0.930 . S
C3999 C3992 1.409 . S
C3999 C3998 1.362 . S
H4000 C4006 0.930 . S
H4001 C4009 0.930 . S
H4002 C4010 0.930 . S
H4003 C4011 0.930 . S
H4004 C4014 0.930 . S
H4005 C4015 0.930 . S
C4006 H4000 0.930 . S
C4006 C4007 1.355 . S
C4006 C4008 1.415 . S
C4007 C4006 1.355 . S
C4007 C4009 1.419 . S
C4008 C4006 1.415 . S
C4008 C4013 1.425 . S
C4008 C4015 1.409 . S
C4009 H4001 0.930 . S
C4009 C4007 1.419 . S
C4009 C4010 1.362 . S
C4010 H4002 0.930 . S
C4010 C4009 1.362 . S
C4010 C4013 1.409 . S
C4011 H4003 0.930 . S
C4011 C4012 1.355 . S
C4011 C4013 1.415 . S
C4012 C4011 1.355 . S
C4012 C4014 1.419 . S
C4013 C4008 1.425 . S
C4013 C4010 1.409 . S
C4013 C4011 1.415 . S
C4014 H4004 0.930 . S
C4014 C4012 1.419 . S
C4014 C4015 1.362 . S
C4015 H4005 0.930 . S
C4015 C4008 1.409 . S
C4015 C4014 1.362 . S
H4016 C4022 0.930 . S
H4017 C4025 0.930 . S
H4018 C4026 0.930 . S
H4019 C4027 0.930 . S
H4020 C4030 0.930 . S
H4021 C4031 0.930 . S
C4022 H4016 0.930 . S
C4022 C4023 1.355 . S
C4022 C4024 1.415 . S
C4023 C4022 1.355 . S
C4023 C4025 1.419 . S
C4024 C4022 1.415 . S
C4024 C4029 1.425 . S
C4024 C4031 1.409 . S
C4025 H4017 0.930 . S
C4025 C4023 1.419 . S
C4025 C4026 1.362 . S
C4026 H4018 0.930 . S
C4026 C4025 1.362 . S
C4026 C4029 1.409 . S
C4027 H4019 0.930 . S
C4027 C4028 1.355 . S
C4027 C4029 1.415 . S
C4028 C4027 1.355 . S
C4028 C4030 1.419 . S
C4029 C4024 1.425 . S
C4029 C4026 1.409 . S
C4029 C4027 1.415 . S
C4030 H4020 0.930 . S
C4030 C4028 1.419 . S
C4030 C4031 1.362 . S
C4031 H4021 0.930 . S
C4031 C4024 1.409 . S
C4031 C4030 1.362 . S
H4032 C4038 0.930 . S
H4033 C4041 0.930 . S
H4034 C4042 0.930 . S
H4035 C4043 0.930 . S
H4036 C4046 0.930 . S
H4037 C4047 0.930 . S
C4038 H4032 0.930 . S
C4038 C4039 1.355 . S
C4038 C4040 1.415 . S
C4039 C4038 1.355 . S
C4039 C4041 1.419 . S
C4040 C4038 1.415 . S
C4040 C4045 1.425 . S
C4040 C4047 1.409 . S
C4041 H4033 0.930 . S
C4041 C4039 1.419 . S
C4041 C4042 1.362 . S
C4042 H4034 0.930 . S
C4042 C4041 1.362 . S
C4042 C4045 1.409 . S
C4043 H4035 0.930 . S
C4043 C4044 1.355 . S
C4043 C4045 1.415 . S
C4044 C4043 1.355 . S
C4044 C4046 1.419 . S
C4045 C4040 1.425 . S
C4045 C4042 1.409 . S
C4045 C4043 1.415 . S
C4046 H4036 0.930 . S
C4046 C4044 1.419 . S
C4046 C4047 1.362 . S
C4047 H4037 0.930 . S
C4047 C4040 1.409 . S
C4047 C4046 1.362 . S
H4048 C4054 0.930 . S
H4049 C4057 0.930 . S
H4050 C4058 0.930 . S
H4051 C4059 0.930 . S
H4052 C4062 0.930 . S
H4053 C4063 0.930 . S
C4054 H4048 0.930 . S
C4054 C4055 1.355 . S
C4054 C4056 1.415 . S
C4055 C4054 1.355 . S
C4055 C4057 1.419 . S
C4056 C4054 1.415 . S
C4056 C4061 1.425 . S
C4056 C4063 1.409 . S
C4057 H4049 0.930 . S
C4057 C4055 1.419 . S
C4057 C4058 1.362 . S
C4058 H4050 0.930 . S
C4058 C4057 1.362 . S
C4058 C4061 1.409 . S
C4059 H4051 0.930 . S
C4059 C4060 1.355 . S
C4059 C4061 1.415 . S
C4060 C4059 1.355 . S
C4060 C4062 1.419 . S
C4061 C4056 1.425 . S
C4061 C4058 1.409 . S
C4061 C4059 1.415 . S
C4062 H4052 0.930 . S
C4062 C4060 1.419 . S
C4062 C4063 1.362 . S
C4063 H4053 0.930 . S
C4063 C4056 1.409 . S
C4063 C4062 1.362 . S
H4064 C4070 0.930 . S
H4065 C4073 0.930 . S
H4066 C4074 0.930 . S
H4067 C4075 0.930 . S
H4068 C4078 0.930 . S
H4069 C4079 0.930 . S
C4070 H4064 0.930 . S
C4070 C4071 1.355 . S
C4070 C4072 1.415 . S
C4071 C4070 1.355 . S
C4071 C4073 1.419 . S
C4072 C4070 1.415 . S
C4072 C4077 1.425 . S
C4072 C4079 1.409 . S
C4073 H4065 0.930 . S
C4073 C4071 1.419 . S
C4073 C4074 1.362 . S
C4074 H4066 0.930 . S
C4074 C4073 1.362 . S
C4074 C4077 1.409 . S
C4075 H4067 0.930 . S
C4075 C4076 1.355 . S
C4075 C4077 1.415 . S
C4076 C4075 1.355 . S
C4076 C4078 1.419 . S
C4077 C4072 1.425 . S
C4077 C4074 1.409 . S
C4077 C4075 1.415 . S
C4078 H4068 0.930 . S
C4078 C4076 1.419 . S
C4078 C4079 1.362 . S
C4079 H4069 0.930 . S
C4079 C4072 1.409 . S
C4079 C4078 1.362 . S
H4080 C4086 0.930 . S
H4081 C4089 0.930 . S
H4082 C4090 0.930 . S
H4083 C4091 0.930 . S
H4084 C4094 0.930 . S
H4085 C4095 0.930 . S
C4086 H4080 0.930 . S
C4086 C4087 1.355 . S
C4086 C4088 1.415 . S
C4087 C4086 1.355 . S
C4087 C4089 1.419 . S
C4088 C4086 1.415 . S
C4088 C4093 1.425 . S
C4088 C4095 1.409 . S
C4089 H4081 0.930 . S
C4089 C4087 1.419 . S
C4089 C4090 1.362 . S
C4090 H4082 0.930 . S
C4090 C4089 1.362 . S
C4090 C4093 1.409 . S
C4091 H4083 0.930 . S
C4091 C4092 1.355 . S
C4091 C4093 1.415 . S
C4092 C4091 1.355 . S
C4092 C4094 1.419 . S
C4093 C4088 1.425 . S
C4093 C4090 1.409 . S
C4093 C4091 1.415 . S
C4094 H4084 0.930 . S
C4094 C4092 1.419 . S
C4094 C4095 1.362 . S
C4095 H4085 0.930 . S
C4095 C4088 1.409 . S
C4095 C4094 1.362 . S
H4096 C4102 0.930 . S
H4097 C4105 0.930 . S
H4098 C4106 0.930 . S
H4099 C4107 0.930 . S
H4100 C4110 0.930 . S
H4101 C4111 0.930 . S
C4102 H4096 0.930 . S
C4102 C4103 1.355 . S
C4102 C4104 1.415 . S
C4103 C4102 1.355 . S
C4103 C4105 1.419 . S
C4104 C4102 1.415 . S
C4104 C4109 1.425 . S
C4104 C4111 1.409 . S
C4105 H4097 0.930 . S
C4105 C4103 1.419 . S
C4105 C4106 1.362 . S
C4106 H4098 0.930 . S
C4106 C4105 1.362 . S
C4106 C4109 1.409 . S
C4107 H4099 0.930 . S
C4107 C4108 1.355 . S
C4107 C4109 1.415 . S
C4108 C4107 1.355 . S
C4108 C4110 1.419 . S
C4109 C4104 1.425 . S
C4109 C4106 1.409 . S
C4109 C4107 1.415 . S
C4110 H4100 0.930 . S
C4110 C4108 1.419 . S
C4110 C4111 1.362 . S
C4111 H4101 0.930 . S
C4111 C4104 1.409 . S
C4111 C4110 1.362 . S
H4112 C4118 0.930 . S
H4113 C4121 0.930 . S
H4114 C4122 0.930 . S
H4115 C4123 0.930 . S
H4116 C4126 0.930 . S
H4117 C4127 0.930 . S
C4118 H4112 0.930 . S
C4118 C4119 1.355 . S
C4118 C4120 1.415 . S
C4119 C4118 1.355 . S
C4119 C4121 1.419 . S
C4120 C4118 1.415 . S
C4120 C4125 1.425 . S
C4120 C4127 1.409 . S
C4121 H4113 0.930 . S
C4121 C4119 1.419 . S
C4121 C4122 1.362 . S
C4122 H4114 0.930 . S
C4122 C4121 1.362 . S
C4122 C4125 1.409 . S
C4123 H4115 0.930 . S
C4123 C4124 1.355 . S
C4123 C4125 1.415 . S
C4124 C4123 1.355 . S
C4124 C4126 1.419 . S
C4125 C4120 1.425 . S
C4125 C4122 1.409 . S
C4125 C4123 1.415 . S
C4126 H4116 0.930 . S
C4126 C4124 1.419 . S
C4126 C4127 1.362 . S
C4127 H4117 0.930 . S
C4127 C4120 1.409 . S
C4127 C4126 1.362 . S
H4128 C4134 0.930 . S
H4129 C4137 0.930 . S
H4130 C4138 0.930 . S
H4131 C4139 0.930 . S
H4132 C4142 0.930 . S
H4133 C4143 0.930 . S
C4134 H4128 0.930 . S
C4134 C4135 1.355 . S
C4134 C4136 1.415 . S
C4135 C4134 1.355 . S
C4135 C4137 1.419 . S
C4136 C4134 1.415 . S
C4136 C4141 1.425 . S
C4136 C4143 1.409 . S
C4137 H4129 0.930 . S
C4137 C4135 1.419 . S
C4137 C4138 1.362 . S
C4138 H4130 0.930 . S
C4138 C4137 1.362 . S
C4138 C4141 1.409 . S
C4139 H4131 0.930 . S
C4139 C4140 1.355 . S
C4139 C4141 1.415 . S
C4140 C4139 1.355 . S
C4140 C4142 1.419 . S
C4141 C4136 1.425 . S
C4141 C4138 1.409 . S
C4141 C4139 1.415 . S
C4142 H4132 0.930 . S
C4142 C4140 1.419 . S
C4142 C4143 1.362 . S
C4143 H4133 0.930 . S
C4143 C4136 1.409 . S
C4143 C4142 1.362 . S
H4144 C4150 0.930 . S
H4145 C4153 0.930 . S
H4146 C4154 0.930 . S
H4147 C4155 0.930 . S
H4148 C4158 0.930 . S
H4149 C4159 0.930 . S
C4150 H4144 0.930 . S
C4150 C4151 1.355 . S
C4150 C4152 1.415 . S
C4151 C4150 1.355 . S
C4151 C4153 1.419 . S
C4152 C4150 1.415 . S
C4152 C4157 1.425 . S
C4152 C4159 1.409 . S
C4153 H4145 0.930 . S
C4153 C4151 1.419 . S
C4153 C4154 1.362 . S
C4154 H4146 0.930 . S
C4154 C4153 1.362 . S
C4154 C4157 1.409 . S
C4155 H4147 0.930 . S
C4155 C4156 1.355 . S
C4155 C4157 1.415 . S
C4156 C4155 1.355 . S
C4156 C4158 1.419 . S
C4157 C4152 1.425 . S
C4157 C4154 1.409 . S
C4157 C4155 1.415 . S
C4158 H4148 0.930 . S
C4158 C4156 1.419 . S
C4158 C4159 1.362 . S
C4159 H4149 0.930 . S
C4159 C4152 1.409 . S
C4159 C4158 1.362 . S
H4160 C4166 0.930 . S
H4161 C4169 0.930 . S
H4162 C4170 0.930 . S
H4163 C4171 0.930 . S
H4164 C4174 0.930 . S
H4165 C4175 0.930 . S
C4166 H4160 0.930 . S
C4166 C4167 1.355 . S
C4166 C4168 1.415 . S
C4167 C4166 1.355 . S
C4167 C4169 1.419 . S
C4168 C4166 1.415 . S
C4168 C4173 1.425 . S
C4168 C4175 1.409 . S
C4169 H4161 0.930 . S
C4169 C4167 1.419 . S
C4169 C4170 1.362 . S
C4170 H4162 0.930 . S
C4170 C4169 1.362 . S
C4170 C4173 1.409 . S
C4171 H4163 0.930 . S
C4171 C4172 1.355 . S
C4171 C4173 1.415 . S
C4172 C4171 1.355 . S
C4172 C4174 1.419 . S
C4173 C4168 1.425 . S
C4173 C4170 1.409 . S
C4173 C4171 1.415 . S
C4174 H4164 0.930 . S
C4174 C4172 1.419 . S
C4174 C4175 1.362 . S
C4175 H4165 0.930 . S
C4175 C4168 1.409 . S
C4175 C4174 1.362 . S
H4176 C4182 0.930 . S
H4177 C4185 0.930 . S
H4178 C4186 0.930 . S
H4179 C4187 0.930 . S
H4180 C4190 0.930 . S
H4181 C4191 0.930 . S
C4182 H4176 0.930 . S
C4182 C4183 1.355 . S
C4182 C4184 1.415 . S
C4183 C4182 1.355 . S
C4183 C4185 1.419 . S
C4184 C4182 1.415 . S
C4184 C4189 1.425 . S
C4184 C4191 1.409 . S
C4185 H4177 0.930 . S
C4185 C4183 1.419 . S
C4185 C4186 1.362 . S
C4186 H4178 0.930 . S
C4186 C4185 1.362 . S
C4186 C4189 1.409 . S
C4187 H4179 0.930 . S
C4187 C4188 1.355 . S
C4187 C4189 1.415 . S
C4188 C4187 1.355 . S
C4188 C4190 1.419 . S
C4189 C4184 1.425 . S
C4189 C4186 1.409 . S
C4189 C4187 1.415 . S
C4190 H4180 0.930 . S
C4190 C4188 1.419 . S
C4190 C4191 1.362 . S
C4191 H4181 0.930 . S
C4191 C4184 1.409 . S
C4191 C4190 1.362 . S
H4192 C4198 0.930 . S
H4193 C4201 0.930 . S
H4194 C4202 0.930 . S
H4195 C4203 0.930 . S
H4196 C4206 0.930 . S
H4197 C4207 0.930 . S
C4198 H4192 0.930 . S
C4198 C4199 1.355 . S
C4198 C4200 1.415 . S
C4199 C4198 1.355 . S
C4199 C4201 1.419 . S
C4200 C4198 1.415 . S
C4200 C4205 1.425 . S
C4200 C4207 1.409 . S
C4201 H4193 0.930 . S
C4201 C4199 1.419 . S
C4201 C4202 1.362 . S
C4202 H4194 0.930 . S
C4202 C4201 1.362 . S
C4202 C4205 1.409 . S
C4203 H4195 0.930 . S
C4203 C4204 1.355 . S
C4203 C4205 1.415 . S
C4204 C4203 1.355 . S
C4204 C4206 1.419 . S
C4205 C4200 1.425 . S
C4205 C4202 1.409 . S
C4205 C4203 1.415 . S
C4206 H4196 0.930 . S
C4206 C4204 1.419 . S
C4206 C4207 1.362 . S
C4207 H4197 0.930 . S
C4207 C4200 1.409 . S
C4207 C4206 1.362 . S
H4208 C4214 0.930 . S
H4209 C4217 0.930 . S
H4210 C4218 0.930 . S
H4211 C4219 0.930 . S
H4212 C4222 0.930 . S
H4213 C4223 0.930 . S
C4214 H4208 0.930 . S
C4214 C4215 1.355 . S
C4214 C4216 1.415 . S
C4215 C4214 1.355 . S
C4215 C4217 1.419 . S
C4216 C4214 1.415 . S
C4216 C4221 1.425 . S
C4216 C4223 1.409 . S
C4217 H4209 0.930 . S
C4217 C4215 1.419 . S
C4217 C4218 1.362 . S
C4218 H4210 0.930 . S
C4218 C4217 1.362 . S
C4218 C4221 1.409 . S
C4219 H4211 0.930 . S
C4219 C4220 1.355 . S
C4219 C4221 1.415 . S
C4220 C4219 1.355 . S
C4220 C4222 1.419 . S
C4221 C4216 1.425 . S
C4221 C4218 1.409 . S
C4221 C4219 1.415 . S
C4222 H4212 0.930 . S
C4222 C4220 1.419 . S
C4222 C4223 1.362 . S
C4223 H4213 0.930 . S
C4223 C4216 1.409 . S
C4223 C4222 1.362 . S
H4224 C4230 0.930 . S
H4225 C4233 0.930 . S
H4226 C4234 0.930 . S
H4227 C4235 0.930 . S
H4228 C4238 0.930 . S
H4229 C4239 0.930 . S
C4230 H4224 0.930 . S
C4230 C4231 1.355 . S
C4230 C4232 1.415 . S
C4231 C4230 1.355 . S
C4231 C4233 1.419 . S
C4232 C4230 1.415 . S
C4232 C4237 1.425 . S
C4232 C4239 1.409 . S
C4233 H4225 0.930 . S
C4233 C4231 1.419 . S
C4233 C4234 1.362 . S
C4234 H4226 0.930 . S
C4234 C4233 1.362 . S
C4234 C4237 1.409 . S
C4235 H4227 0.930 . S
C4235 C4236 1.355 . S
C4235 C4237 1.415 . S
C4236 C4235 1.355 . S
C4236 C4238 1.419 . S
C4237 C4232 1.425 . S
C4237 C4234 1.409 . S
C4237 C4235 1.415 . S
C4238 H4228 0.930 . S
C4238 C4236 1.419 . S
C4238 C4239 1.362 . S
C4239 H4229 0.930 . S
C4239 C4232 1.409 . S
C4239 C4238 1.362 . S
H4240 C4246 0.930 . S
H4241 C4249 0.930 . S
H4242 C4250 0.930 . S
H4243 C4251 0.930 . S
H4244 C4254 0.930 . S
H4245 C4255 0.930 . S
C4246 H4240 0.930 . S
C4246 C4247 1.355 . S
C4246 C4248 1.415 . S
C4247 C4246 1.355 . S
C4247 C4249 1.419 . S
C4248 C4246 1.415 . S
C4248 C4253 1.425 . S
C4248 C4255 1.409 . S
C4249 H4241 0.930 . S
C4249 C4247 1.419 . S
C4249 C4250 1.362 . S
C4250 H4242 0.930 . S
C4250 C4249 1.362 . S
C4250 C4253 1.409 . S
C4251 H4243 0.930 . S
C4251 C4252 1.355 . S
C4251 C4253 1.415 . S
C4252 C4251 1.355 . S
C4252 C4254 1.419 . S
C4253 C4248 1.425 . S
C4253 C4250 1.409 . S
C4253 C4251 1.415 . S
C4254 H4244 0.930 . S
C4254 C4252 1.419 . S
C4254 C4255 1.362 . S
C4255 H4245 0.930 . S
C4255 C4248 1.409 . S
C4255 C4254 1.362 . S
H4256 C4262 0.930 . S
H4257 C4265 0.930 . S
H4258 C4266 0.930 . S
H4259 C4267 0.930 . S
H4260 C4270 0.930 . S
H4261 C4271 0.930 . S
C4262 H4256 0.930 . S
C4262 C4263 1.355 . S
C4262 C4264 1.415 . S
C4263 C4262 1.355 . S
C4263 C4265 1.419 . S
C4264 C4262 1.415 . S
C4264 C4269 1.425 . S
C4264 C4271 1.409 . S
C4265 H4257 0.930 . S
C4265 C4263 1.419 . S
C4265 C4266 1.362 . S
C4266 H4258 0.930 . S
C4266 C4265 1.362 . S
C4266 C4269 1.409 . S
C4267 H4259 0.930 . S
C4267 C4268 1.355 . S
C4267 C4269 1.415 . S
C4268 C4267 1.355 . S
C4268 C4270 1.419 . S
C4269 C4264 1.425 . S
C4269 C4266 1.409 . S
C4269 C4267 1.415 . S
C4270 H4260 0.930 . S
C4270 C4268 1.419 . S
C4270 C4271 1.362 . S
C4271 H4261 0.930 . S
C4271 C4264 1.409 . S
C4271 C4270 1.362 . S
H4272 C4278 0.930 . S
H4273 C4281 0.930 . S
H4274 C4282 0.930 . S
H4275 C4283 0.930 . S
H4276 C4286 0.930 . S
H4277 C4287 0.930 . S
C4278 H4272 0.930 . S
C4278 C4279 1.355 . S
C4278 C4280 1.415 . S
C4279 C4278 1.355 . S
C4279 C4281 1.419 . S
C4280 C4278 1.415 . S
C4280 C4285 1.425 . S
C4280 C4287 1.409 . S
C4281 H4273 0.930 . S
C4281 C4279 1.419 . S
C4281 C4282 1.362 . S
C4282 H4274 0.930 . S
C4282 C4281 1.362 . S
C4282 C4285 1.409 . S
C4283 H4275 0.930 . S
C4283 C4284 1.355 . S
C4283 C4285 1.415 . S
C4284 C4283 1.355 . S
C4284 C4286 1.419 . S
C4285 C4280 1.425 . S
C4285 C4282 1.409 . S
C4285 C4283 1.415 . S
C4286 H4276 0.930 . S
C4286 C4284 1.419 . S
C4286 C4287 1.362 . S
C4287 H4277 0.930 . S
C4287 C4280 1.409 . S
C4287 C4286 1.362 . S
H4288 C4294 0.930 . S
H4289 C4297 0.930 . S
H4290 C4298 0.930 . S
H4291 C4299 0.930 . S
H4292 C4302 0.930 . S
H4293 C4303 0.930 . S
C4294 H4288 0.930 . S
C4294 C4295 1.355 . S
C4294 C4296 1.415 . S
C4295 C4294 1.355 . S
C4295 C4297 1.419 . S
C4296 C4294 1.415 . S
C4296 C4301 1.425 . S
C4296 C4303 1.409 . S
C4297 H4289 0.930 . S
C4297 C4295 1.419 . S
C4297 C4298 1.362 . S
C4298 H4290 0.930 . S
C4298 C4297 1.362 . S
C4298 C4301 1.409 . S
C4299 H4291 0.930 . S
C4299 C4300 1.355 . S
C4299 C4301 1.415 . S
C4300 C4299 1.355 . S
C4300 C4302 1.419 . S
C4301 C4296 1.425 . S
C4301 C4298 1.409 . S
C4301 C4299 1.415 . S
C4302 H4292 0.930 . S
C4302 C4300 1.419 . S
C4302 C4303 1.362 . S
C4303 H4293 0.930 . S
C4303 C4296 1.409 . S
C4303 C4302 1.362 . S
H4304 C4310 0.930 . S
H4305 C4313 0.930 . S
H4306 C4314 0.930 . S
H4307 C4315 0.930 . S
H4308 C4318 0.930 . S
H4309 C4319 0.930 . S
C4310 H4304 0.930 . S
C4310 C4311 1.355 . S
C4310 C4312 1.415 . S
C4311 C4310 1.355 . S
C4311 C4313 1.419 . S
C4312 C4310 1.415 . S
C4312 C4317 1.425 . S
C4312 C4319 1.409 . S
C4313 H4305 0.930 . S
C4313 C4311 1.419 . S
C4313 C4314 1.362 . S
C4314 H4306 0.930 . S
C4314 C4313 1.362 . S
C4314 C4317 1.409 . S
C4315 H4307 0.930 . S
C4315 C4316 1.355 . S
C4315 C4317 1.415 . S
C4316 C4315 1.355 . S
C4316 C4318 1.419 . S
C4317 C4312 1.425 . S
C4317 C4314 1.409 . S
C4317 C4315 1.415 . S
C4318 H4308 0.930 . S
C4318 C4316 1.419 . S
C4318 C4319 1.362 . S
C4319 H4309 0.930 . S
C4319 C4312 1.409 . S
C4319 C4318 1.362 . S
H4320 C4326 0.930 . S
H4321 C4329 0.930 . S
H4322 C4330 0.930 . S
H4323 C4331 0.930 . S
H4324 C4334 0.930 . S
H4325 C4335 0.930 . S
C4326 H4320 0.930 . S
C4326 C4327 1.355 . S
C4326 C4328 1.415 . S
C4327 C4326 1.355 . S
C4327 C4329 1.419 . S
C4328 C4326 1.415 . S
C4328 C4333 1.425 . S
C4328 C4335 1.409 . S
C4329 H4321 0.930 . S
C4329 C4327 1.419 . S
C4329 C4330 1.362 . S
C4330 H4322 0.930 . S
C4330 C4329 1.362 . S
C4330 C4333 1.409 . S
C4331 H4323 0.930 . S
C4331 C4332 1.355 . S
C4331 C4333 1.415 . S
C4332 C4331 1.355 . S
C4332 C4334 1.419 . S
C4333 C4328 1.425 . S
C4333 C4330 1.409 . S
C4333 C4331 1.415 . S
C4334 H4324 0.930 . S
C4334 C4332 1.419 . S
C4334 C4335 1.362 . S
C4335 H4325 0.930 . S
C4335 C4328 1.409 . S
C4335 C4334 1.362 . S
H4336 C4342 0.930 . S
H4337 C4345 0.930 . S
H4338 C4346 0.930 . S
H4339 C4347 0.930 . S
H4340 C4350 0.930 . S
H4341 C4351 0.930 . S
C4342 H4336 0.930 . S
C4342 C4343 1.355 . S
C4342 C4344 1.415 . S
C4343 C4342 1.355 . S
C4343 C4345 1.419 . S
C4344 C4342 1.415 . S
C4344 C4349 1.425 . S
C4344 C4351 1.409 . S
C4345 H4337 0.930 . S
C4345 C4343 1.419 . S
C4345 C4346 1.362 . S
C4346 H4338 0.930 . S
C4346 C4345 1.362 . S
C4346 C4349 1.409 . S
C4347 H4339 0.930 . S
C4347 C4348 1.355 . S
C4347 C4349 1.415 . S
C4348 C4347 1.355 . S
C4348 C4350 1.419 . S
C4349 C4344 1.425 . S
C4349 C4346 1.409 . S
C4349 C4347 1.415 . S
C4350 H4340 0.930 . S
C4350 C4348 1.419 . S
C4350 C4351 1.362 . S
C4351 H4341 0.930 . S
C4351 C4344 1.409 . S
C4351 C4350 1.362 . S
H4352 C4358 0.930 . S
H4353 C4361 0.930 . S
H4354 C4362 0.930 . S
H4355 C4363 0.930 . S
H4356 C4366 0.930 . S
H4357 C4367 0.930 . S
C4358 H4352 0.930 . S
C4358 C4359 1.355 . S
C4358 C4360 1.415 . S
C4359 C4358 1.355 . S
C4359 C4361 1.419 . S
C4360 C4358 1.415 . S
C4360 C4365 1.425 . S
C4360 C4367 1.409 . S
C4361 H4353 0.930 . S
C4361 C4359 1.419 . S
C4361 C4362 1.362 . S
C4362 H4354 0.930 . S
C4362 C4361 1.362 . S
C4362 C4365 1.409 . S
C4363 H4355 0.930 . S
C4363 C4364 1.355 . S
C4363 C4365 1.415 . S
C4364 C4363 1.355 . S
C4364 C4366 1.419 . S
C4365 C4360 1.425 . S
C4365 C4362 1.409 . S
C4365 C4363 1.415 . S
C4366 H4356 0.930 . S
C4366 C4364 1.419 . S
C4366 C4367 1.362 . S
C4367 H4357 0.930 . S
C4367 C4360 1.409 . S
C4367 C4366 1.362 . S
H4368 C4374 0.930 . S
H4369 C4377 0.930 . S
H4370 C4378 0.930 . S
H4371 C4379 0.930 . S
H4372 C4382 0.930 . S
H4373 C4383 0.930 . S
C4374 H4368 0.930 . S
C4374 C4375 1.355 . S
C4374 C4376 1.415 . S
C4375 C4374 1.355 . S
C4375 C4377 1.419 . S
C4376 C4374 1.415 . S
C4376 C4381 1.425 . S
C4376 C4383 1.409 . S
C4377 H4369 0.930 . S
C4377 C4375 1.419 . S
C4377 C4378 1.362 . S
C4378 H4370 0.930 . S
C4378 C4377 1.362 . S
C4378 C4381 1.409 . S
C4379 H4371 0.930 . S
C4379 C4380 1.355 . S
C4379 C4381 1.415 . S
C4380 C4379 1.355 . S
C4380 C4382 1.419 . S
C4381 C4376 1.425 . S
C4381 C4378 1.409 . S
C4381 C4379 1.415 . S
C4382 H4372 0.930 . S
C4382 C4380 1.419 . S
C4382 C4383 1.362 . S
C4383 H4373 0.930 . S
C4383 C4376 1.409 . S
C4383 C4382 1.362 . S
H4384 C4390 0.930 . S
H4385 C4393 0.930 . S
H4386 C4394 0.930 . S
H4387 C4395 0.930 . S
H4388 C4398 0.930 . S
H4389 C4399 0.930 . S
C4390 H4384 0.930 . S
C4390 C4391 1.355 . S
C4390 C4392 1.415 . S
C4391 C4390 1.355 . S
C4391 C4393 1.419 . S
C4392 C4390 1.415 . S
C4392 C4397 1.425 . S
C4392 C4399 1.409 . S
C4393 H4385 0.930 . S
C4393 C4391 1.419 . S
C4393 C4394 1.362 . S
C4394 H4386 0.930 . S
C4394 C4393 1.362 . S
C4394 C4397 1.409 . S
C4395 H4387 0.930 . S
C4395 C4396 1.355 . S
C4395 C4397 1.415 . S
C4396 C4395 1.355 . S
C4396 C4398 1.419 . S
C4397 C4392 1.425 . S
C4397 C4394 1.409 . S
C4397 C4395 1.415 . S
C4398 H4388 0.930 . S
C4398 C4396 1.419 . S
C4398 C4399 1.362 . S
C4399 H4389 0.930 . S
C4399 C4392 1.409 . S
C4399 C4398 1.362 . S
H4400 C4406 0.930 . S
H4401 C4409 0.930 . S
H4402 C4410 0.930 . S
H4403 C4411 0.930 . S
H4404 C4414 0.930 . S
H4405 C4415 0.930 . S
C4406 H4400 0.930 . S
C4406 C4407 1.355 . S
C4406 C4408 1.415 . S
C4407 C4406 1.355 . S
C4407 C4409 1.419 . S
C4408 C4406 1.415 . S
C4408 C4413 1.425 . S
C4408 C4415 1.409 . S
C4409 H4401 0.930 . S
C4409 C4407 1.419 . S
C4409 C4410 1.362 . S
C4410 H4402 0.930 . S
C4410 C4409 1.362 . S
C4410 C4413 1.409 . S
C4411 H4403 0.930 . S
C4411 C4412 1.355 . S
C4411 C4413 1.415 . S
C4412 C4411 1.355 . S
C4412 C4414 1.419 . S
C4413 C4408 1.425 . S
C4413 C4410 1.409 . S
C4413 C4411 1.415 . S
C4414 H4404 0.930 . S
C4414 C4412 1.419 . S
C4414 C4415 1.362 . S
C4415 H4405 0.930 . S
C4415 C4408 1.409 . S
C4415 C4414 1.362 . S
H4416 C4422 0.930 . S
H4417 C4425 0.930 . S
H4418 C4426 0.930 . S
H4419 C4427 0.930 . S
H4420 C4430 0.930 . S
H4421 C4431 0.930 . S
C4422 H4416 0.930 . S
C4422 C4423 1.355 . S
C4422 C4424 1.415 . S
C4423 C4422 1.355 . S
C4423 C4425 1.419 . S
C4424 C4422 1.415 . S
C4424 C4429 1.425 . S
C4424 C4431 1.409 . S
C4425 H4417 0.930 . S
C4425 C4423 1.419 . S
C4425 C4426 1.362 . S
C4426 H4418 0.930 . S
C4426 C4425 1.362 . S
C4426 C4429 1.409 . S
C4427 H4419 0.930 . S
C4427 C4428 1.355 . S
C4427 C4429 1.415 . S
C4428 C4427 1.355 . S
C4428 C4430 1.419 . S
C4429 C4424 1.425 . S
C4429 C4426 1.409 . S
C4429 C4427 1.415 . S
C4430 H4420 0.930 . S
C4430 C4428 1.419 . S
C4430 C4431 1.362 . S
C4431 H4421 0.930 . S
C4431 C4424 1.409 . S
C4431 C4430 1.362 . S
H4432 C4438 0.930 . S
H4433 C4441 0.930 . S
H4434 C4442 0.930 . S
H4435 C4443 0.930 . S
H4436 C4446 0.930 . S
H4437 C4447 0.930 . S
C4438 H4432 0.930 . S
C4438 C4439 1.355 . S
C4438 C4440 1.415 . S
C4439 C4438 1.355 . S
C4439 C4441 1.419 . S
C4440 C4438 1.415 . S
C4440 C4445 1.425 . S
C4440 C4447 1.409 . S
C4441 H4433 0.930 . S
C4441 C4439 1.419 . S
C4441 C4442 1.362 . S
C4442 H4434 0.930 . S
C4442 C4441 1.362 . S
C4442 C4445 1.409 . S
C4443 H4435 0.930 . S
C4443 C4444 1.355 . S
C4443 C4445 1.415 . S
C4444 C4443 1.355 . S
C4444 C4446 1.419 . S
C4445 C4440 1.425 . S
C4445 C4442 1.409 . S
C4445 C4443 1.415 . S
C4446 H4436 0.930 . S
C4446 C4444 1.419 . S
C4446 C4447 1.362 . S
C4447 H4437 0.930 . S
C4447 C4440 1.409 . S
C4447 C4446 1.362 . S
H4448 C4454 0.930 . S
H4449 C4457 0.930 . S
H4450 C4458 0.930 . S
H4451 C4459 0.930 . S
H4452 C4462 0.930 . S
H4453 C4463 0.930 . S
C4454 H4448 0.930 . S
C4454 C4455 1.355 . S
C4454 C4456 1.415 . S
C4455 C4454 1.355 . S
C4455 C4457 1.419 . S
C4456 C4454 1.415 . S
C4456 C4461 1.425 . S
C4456 C4463 1.409 . S
C4457 H4449 0.930 . S
C4457 C4455 1.419 . S
C4457 C4458 1.362 . S
C4458 H4450 0.930 . S
C4458 C4457 1.362 . S
C4458 C4461 1.409 . S
C4459 H4451 0.930 . S
C4459 C4460 1.355 . S
C4459 C4461 1.415 . S
C4460 C4459 1.355 . S
C4460 C4462 1.419 . S
C4461 C4456 1.425 . S
C4461 C4458 1.409 . S
C4461 C4459 1.415 . S
C4462 H4452 0.930 . S
C4462 C4460 1.419 . S
C4462 C4463 1.362 . S
C4463 H4453 0.930 . S
C4463 C4456 1.409 . S
C4463 C4462 1.362 . S
H4464 C4470 0.930 . S
H4465 C4473 0.930 . S
H4466 C4474 0.930 . S
H4467 C4475 0.930 . S
H4468 C4478 0.930 . S
H4469 C4479 0.930 . S
C4470 H4464 0.930 . S
C4470 C4471 1.355 . S
C4470 C4472 1.415 . S
C4471 C4470 1.355 . S
C4471 C4473 1.419 . S
C4472 C4470 1.415 . S
C4472 C4477 1.425 . S
C4472 C4479 1.409 . S
C4473 H4465 0.930 . S
C4473 C4471 1.419 . S
C4473 C4474 1.362 . S
C4474 H4466 0.930 . S
C4474 C4473 1.362 . S
C4474 C4477 1.409 . S
C4475 H4467 0.930 . S
C4475 C4476 1.355 . S
C4475 C4477 1.415 . S
C4476 C4475 1.355 . S
C4476 C4478 1.419 . S
C4477 C4472 1.425 . S
C4477 C4474 1.409 . S
C4477 C4475 1.415 . S
C4478 H4468 0.930 . S
C4478 C4476 1.419 . S
C4478 C4479 1.362 . S
C4479 H4469 0.930 . S
C4479 C4472 1.409 . S
C4479 C4478 1.362 . S
H4480 C4486 0.930 . S
H4481 C4489 0.930 . S
H4482 C4490 0.930 . S
H4483 C4491 0.930 . S
H4484 C4494 0.930 . S
H4485 C4495 0.930 . S
C4486 H4480 0.930 . S
C4486 C4487 1.355 . S
C4486 C4488 1.415 . S
C4487 C4486 1.355 . S
C4487 C4489 1.419 . S
C4488 C4486 1.415 . S
C4488 C4493 1.425 . S
C4488 C4495 1.409 . S
C4489 H4481 0.930 . S
C4489 C4487 1.419 . S
C4489 C4490 1.362 . S
C4490 H4482 0.930 . S
C4490 C4489 1.362 . S
C4490 C4493 1.409 . S
C4491 H4483 0.930 . S
C4491 C4492 1.355 . S
C4491 C4493 1.415 . S
C4492 C4491 1.355 . S
C4492 C4494 1.419 . S
C4493 C4488 1.425 . S
C4493 C4490 1.409 . S
C4493 C4491 1.415 . S
C4494 H4484 0.930 . S
C4494 C4492 1.419 . S
C4494 C4495 1.362 . S
C4495 H4485 0.930 . S
C4495 C4488 1.409 . S
C4495 C4494 1.362 . S
H4496 C4502 0.930 . S
H4497 C4505 0.930 . S
H4498 C4506 0.930 . S
H4499 C4507 0.930 . S
H4500 C4510 0.930 . S
H4501 C4511 0.930 . S
C4502 H4496 0.930 . S
C4502 C4503 1.355 . S
C4502 C4504 1.415 . S
C4503 C4502 1.355 . S
C4503 C4505 1.419 . S
C4504 C4502 1.415 . S
C4504 C4509 1.425 . S
C4504 C4511 1.409 . S
C4505 H4497 0.930 . S
C4505 C4503 1.419 . S
C4505 C4506 1.362 . S
C4506 H4498 0.930 . S
C4506 C4505 1.362 . S
C4506 C4509 1.409 . S
C4507 H4499 0.930 . S
C4507 C4508 1.355 . S
C4507 C4509 1.415 . S
C4508 C4507 1.355 . S
C4508 C4510 1.419 . S
C4509 C4504 1.425 . S
C4509 C4506 1.409 . S
C4509 C4507 1.415 . S
C4510 H4500 0.930 . S
C4510 C4508 1.419 . S
C4510 C4511 1.362 . S
C4511 H4501 0.930 . S
C4511 C4504 1.409 . S
C4511 C4510 1.362 . S
H4512 C4518 0.930 . S
H4513 C4521 0.930 . S
H4514 C4522 0.930 . S
H4515 C4523 0.930 . S
H4516 C4526 0.930 . S
H4517 C4527 0.930 . S
C4518 H4512 0.930 . S
C4518 C4519 1.355 . S
C4518 C4520 1.415 . S
C4519 C4518 1.355 . S
C4519 C4521 1.419 . S
C4520 C4518 1.415 . S
C4520 C4525 1.425 . S
C4520 C4527 1.409 . S
C4521 H4513 0.930 . S
C4521 C4519 1.419 . S
C4521 C4522 1.362 . S
C4522 H4514 0.930 . S
C4522 C4521 1.362 . S
C4522 C4525 1.409 . S
C4523 H4515 0.930 . S
C4523 C4524 1.355 . S
C4523 C4525 1.415 . S
C4524 C4523 1.355 . S
C4524 C4526 1.419 . S
C4525 C4520 1.425 . S
C4525 C4522 1.409 . S
C4525 C4523 1.415 . S
C4526 H4516 0.930 . S
C4526 C4524 1.419 . S
C4526 C4527 1.362 . S
C4527 H4517 0.930 . S
C4527 C4520 1.409 . S
C4527 C4526 1.362 . S
H4528 C4534 0.930 . S
H4529 C4537 0.930 . S
H4530 C4538 0.930 . S
H4531 C4539 0.930 . S
H4532 C4542 0.930 . S
H4533 C4543 0.930 . S
C4534 H4528 0.930 . S
C4534 C4535 1.355 . S
C4534 C4536 1.415 . S
C4535 C4534 1.355 . S
C4535 C4537 1.419 . S
C4536 C4534 1.415 . S
C4536 C4541 1.425 . S
C4536 C4543 1.409 . S
C4537 H4529 0.930 . S
C4537 C4535 1.419 . S
C4537 C4538 1.362 . S
C4538 H4530 0.930 . S
C4538 C4537 1.362 . S
C4538 C4541 1.409 . S
C4539 H4531 0.930 . S
C4539 C4540 1.355 . S
C4539 C4541 1.415 . S
C4540 C4539 1.355 . S
C4540 C4542 1.419 . S
C4541 C4536 1.425 . S
C4541 C4538 1.409 . S
C4541 C4539 1.415 . S
C4542 H4532 0.930 . S
C4542 C4540 1.419 . S
C4542 C4543 1.362 . S
C4543 H4533 0.930 . S
C4543 C4536 1.409 . S
C4543 C4542 1.362 . S
H4544 C4550 0.930 . S
H4545 C4553 0.930 . S
H4546 C4554 0.930 . S
H4547 C4555 0.930 . S
H4548 C4558 0.930 . S
H4549 C4559 0.930 . S
C4550 H4544 0.930 . S
C4550 C4551 1.355 . S
C4550 C4552 1.415 . S
C4551 C4550 1.355 . S
C4551 C4553 1.419 . S
C4552 C4550 1.415 . S
C4552 C4557 1.425 . S
C4552 C4559 1.409 . S
C4553 H4545 0.930 . S
C4553 C4551 1.419 . S
C4553 C4554 1.362 . S
C4554 H4546 0.930 . S
C4554 C4553 1.362 . S
C4554 C4557 1.409 . S
C4555 H4547 0.930 . S
C4555 C4556 1.355 . S
C4555 C4557 1.415 . S
C4556 C4555 1.355 . S
C4556 C4558 1.419 . S
C4557 C4552 1.425 . S
C4557 C4554 1.409 . S
C4557 C4555 1.415 . S
C4558 H4548 0.930 . S
C4558 C4556 1.419 . S
C4558 C4559 1.362 . S
C4559 H4549 0.930 . S
C4559 C4552 1.409 . S
C4559 C4558 1.362 . S
H4560 C4566 0.930 . S
H4561 C4569 0.930 . S
H4562 C4570 0.930 . S
H4563 C4571 0.930 . S
H4564 C4574 0.930 . S
H4565 C4575 0.930 . S
C4566 H4560 0.930 . S
C4566 C4567 1.355 . S
C4566 C4568 1.415 . S
C4567 C4566 1.355 . S
C4567 C4569 1.419 . S
C4568 C4566 1.415 . S
C4568 C4573 1.425 . S
C4568 C4575 1.409 . S
C4569 H4561 0.930 . S
C4569 C4567 1.419 . S
C4569 C4570 1.362 . S
C4570 H4562 0.930 . S
C4570 C4569 1.362 . S
C4570 C4573 1.409 . S
C4571 H4563 0.930 . S
C4571 C4572 1.355 . S
C4571 C4573 1.415 . S
C4572 C4571 1.355 . S
C4572 C4574 1.419 . S
C4573 C4568 1.425 . S
C4573 C4570 1.409 . S
C4573 C4571 1.415 . S
C4574 H4564 0.930 . S
C4574 C4572 1.419 . S
C4574 C4575 1.362 . S
C4575 H4565 0.930 . S
C4575 C4568 1.409 . S
C4575 C4574 1.362 . S
H4576 C4582 0.930 . S
H4577 C4585 0.930 . S
H4578 C4586 0.930 . S
H4579 C4587 0.930 . S
H4580 C4590 0.930 . S
H4581 C4591 0.930 . S
C4582 H4576 0.930 . S
C4582 C4583 1.355 . S
C4582 C4584 1.415 . S
C4583 C4582 1.355 . S
C4583 C4585 1.419 . S
C4584 C4582 1.415 . S
C4584 C4589 1.425 . S
C4584 C4591 1.409 . S
C4585 H4577 0.930 . S
C4585 C4583 1.419 . S
C4585 C4586 1.362 . S
C4586 H4578 0.930 . S
C4586 C4585 1.362 . S
C4586 C4589 1.409 . S
C4587 H4579 0.930 . S
C4587 C4588 1.355 . S
C4587 C4589 1.415 . S
C4588 C4587 1.355 . S
C4588 C4590 1.419 . S
C4589 C4584 1.425 . S
C4589 C4586 1.409 . S
C4589 C4587 1.415 . S
C4590 H4580 0.930 . S
C4590 C4588 1.419 . S
C4590 C4591 1.362 . S
C4591 H4581 0.930 . S
C4591 C4584 1.409 . S
C4591 C4590 1.362 . S
H4592 C4598 0.930 . S
H4593 C4601 0.930 . S
H4594 C4602 0.930 . S
H4595 C4603 0.930 . S
H4596 C4606 0.930 . S
H4597 C4607 0.930 . S
C4598 H4592 0.930 . S
C4598 C4599 1.355 . S
C4598 C4600 1.415 . S
C4599 C4598 1.355 . S
C4599 C4601 1.419 . S
C4600 C4598 1.415 . S
C4600 C4605 1.425 . S
C4600 C4607 1.409 . S
C4601 H4593 0.930 . S
C4601 C4599 1.419 . S
C4601 C4602 1.362 . S
C4602 H4594 0.930 . S
C4602 C4601 1.362 . S
C4602 C4605 1.409 . S
C4603 H4595 0.930 . S
C4603 C4604 1.355 . S
C4603 C4605 1.415 . S
C4604 C4603 1.355 . S
C4604 C4606 1.419 . S
C4605 C4600 1.425 . S
C4605 C4602 1.409 . S
C4605 C4603 1.415 . S
C4606 H4596 0.930 . S
C4606 C4604 1.419 . S
C4606 C4607 1.362 . S
C4607 H4597 0.930 . S
C4607 C4600 1.409 . S
C4607 C4606 1.362 . S
H4608 C4614 0.930 . S
H4609 C4617 0.930 . S
H4610 C4618 0.930 . S
H4611 C4619 0.930 . S
H4612 C4622 0.930 . S
H4613 C4623 0.930 . S
C4614 H4608 0.930 . S
C4614 C4615 1.355 . S
C4614 C4616 1.415 . S
C4615 C4614 1.355 . S
C4615 C4617 1.419 . S
C4616 C4614 1.415 . S
C4616 C4621 1.425 . S
C4616 C4623 1.409 . S
C4617 H4609 0.930 . S
C4617 C4615 1.419 . S
C4617 C4618 1.362 . S
C4618 H4610 0.930 . S
C4618 C4617 1.362 . S
C4618 C4621 1.409 . S
C4619 H4611 0.930 . S
C4619 C4620 1.355 . S
C4619 C4621 1.415 . S
C4620 C4619 1.355 . S
C4620 C4622 1.419 . S
C4621 C4616 1.425 . S
C4621 C4618 1.409 . S
C4621 C4619 1.415 . S
C4622 H4612 0.930 . S
C4622 C4620 1.419 . S
C4622 C4623 1.362 . S
C4623 H4613 0.930 . S
C4623 C4616 1.409 . S
C4623 C4622 1.362 . S
H4624 C4630 0.930 . S
H4625 C4633 0.930 . S
H4626 C4634 0.930 . S
H4627 C4635 0.930 . S
H4628 C4638 0.930 . S
H4629 C4639 0.930 . S
C4630 H4624 0.930 . S
C4630 C4631 1.355 . S
C4630 C4632 1.415 . S
C4631 C4630 1.355 . S
C4631 C4633 1.419 . S
C4632 C4630 1.415 . S
C4632 C4637 1.425 . S
C4632 C4639 1.409 . S
C4633 H4625 0.930 . S
C4633 C4631 1.419 . S
C4633 C4634 1.362 . S
C4634 H4626 0.930 . S
C4634 C4633 1.362 . S
C4634 C4637 1.409 . S
C4635 H4627 0.930 . S
C4635 C4636 1.355 . S
C4635 C4637 1.415 . S
C4636 C4635 1.355 . S
C4636 C4638 1.419 . S
C4637 C4632 1.425 . S
C4637 C4634 1.409 . S
C4637 C4635 1.415 . S
C4638 H4628 0.930 . S
C4638 C4636 1.419 . S
C4638 C4639 1.362 . S
C4639 H4629 0.930 . S
C4639 C4632 1.409 . S
C4639 C4638 1.362 . S
H4640 C4646 0.930 . S
H4641 C4649 0.930 . S
H4642 C4650 0.930 . S
H4643 C4651 0.930 . S
H4644 C4654 0.930 . S
H4645 C4655 0.930 . S
C4646 H4640 0.930 . S
C4646 C4647 1.355 . S
C4646 C4648 1.415 . S
C4647 C4646 1.355 . S
C4647 C4649 1.419 . S
C4648 C4646 1.415 . S
C4648 C4653 1.425 . S
C4648 C4655 1.409 . S
C4649 H4641 0.930 . S
C4649 C4647 1.419 . S
C4649 C4650 1.362 . S
C4650 H4642 0.930 . S
C4650 C4649 1.362 . S
C4650 C4653 1.409 . S
C4651 H4643 0.930 . S
C4651 C4652 1.355 . S
C4651 C4653 1.415 . S
C4652 C4651 1.355 . S
C4652 C4654 1.419 . S
C4653 C4648 1.425 . S
C4653 C4650 1.409 . S
C4653 C4651 1.415 . S
C4654 H4644 0.930 . S
C4654 C4652 1.419 . S
C4654 C4655 1.362 . S
C4655 H4645 0.930 . S
C4655 C4648 1.409 . S
C4655 C4654 1.362 . S
H4656 C4662 0.930 . S
H4657 C4665 0.930 . S
H4658 C4666 0.930 . S
H4659 C4667 0.930 . S
H4660 C4670 0.930 . S
H4661 C4671 0.930 . S
C4662 H4656 0.930 . S
C4662 C4663 1.355 . S
C4662 C4664 1.415 . S
C4663 C4662 1.355 . S
C4663 C4665 1.419 . S
C4664 C4662 1.415 . S
C4664 C4669 1.425 . S
C4664 C4671 1.409 . S
C4665 H4657 0.930 . S
C4665 C4663 1.419 . S
C4665 C4666 1.362 . S
C4666 H4658 0.930 . S
C4666 C4665 1.362 . S
C4666 C4669 1.409 . S
C4667 H4659 0.930 . S
C4667 C4668 1.355 . S
C4667 C4669 1.415 . S
C4668 C4667 1.355 . S
C4668 C4670 1.419 . S
C4669 C4664 1.425 . S
C4669 C4666 1.409 . S
C4669 C4667 1.415 . S
C4670 H4660 0.930 . S
C4670 C4668 1.419 . S
C4670 C4671 1.362 . S
C4671 H4661 0.930 . S
C4671 C4664 1.409 . S
C4671 C4670 1.362 . S
H4672 C4678 0.930 . S
H4673 C4681 0.930 . S
H4674 C4682 0.930 . S
H4675 C4683 0.930 . S
H4676 C4686 0.930 . S
H4677 C4687 0.930 . S
C4678 H4672 0.930 . S
C4678 C4679 1.355 . S
C4678 C4680 1.415 . S
C4679 C4678 1.355 . S
C4679 C4681 1.419 . S
C4680 C4678 1.415 . S
C4680 C4685 1.425 . S
C4680 C4687 1.409 . S
C4681 H4673 0.930 . S
C4681 C4679 1.419 . S
C4681 C4682 1.362 . S
C4682 H4674 0.930 . S
C4682 C4681 1.362 . S
C4682 C4685 1.409 . S
C4683 H4675 0.930 . S
C4683 C4684 1.355 . S
C4683 C4685 1.415 . S
C4684 C4683 1.355 . S
C4684 C4686 1.419 . S
C4685 C4680 1.425 . S
C4685 C4682 1.409 . S
C4685 C4683 1.415 . S
C4686 H4676 0.930 . S
C4686 C4684 1.419 . S
C4686 C4687 1.362 . S
C4687 H4677 0.930 . S
C4687 C4680 1.409 . S
C4687 C4686 1.362 . S
H4688 C4694 0.930 . S
H4689 C4697 0.930 . S
H4690 C4698 0.930 . S
H4691 C4699 0.930 . S
H4692 C4702 0.930 . S
H4693 C4703 0.930 . S
C4694 H4688 0.930 . S
C4694 C4695 1.355 . S
C4694 C4696 1.415 . S
C4695 C4694 1.355 . S
C4695 C4697 1.419 . S
C4696 C4694 1.415 . S
C4696 C4701 1.425 . S
C4696 C4703 1.409 . S
C4697 H4689 0.930 . S
C4697 C4695 1.419 . S
C4697 C4698 1.362 . S
C4698 H4690 0.930 . S
C4698 C4697 1.362 . S
C4698 C4701 1.409 . S
C4699 H4691 0.930 . S
C4699 C4700 1.355 . S
C4699 C4701 1.415 . S
C4700 C4699 1.355 . S
C4700 C4702 1.419 . S
C4701 C4696 1.425 . S
C4701 C4698 1.409 . S
C4701 C4699 1.415 . S
C4702 H4692 0.930 . S
C4702 C4700 1.419 . S
C4702 C4703 1.362 . S
C4703 H4693 0.930 . S
C4703 C4696 1.409 . S
C4703 C4702 1.362 . S
H4704 C4710 0.930 . S
H4705 C4713 0.930 . S
H4706 C4714 0.930 . S
H4707 C4715 0.930 . S
H4708 C4718 0.930 . S
H4709 C4719 0.930 . S
C4710 H4704 0.930 . S
C4710 C4711 1.355 . S
C4710 C4712 1.415 . S
C4711 C4710 1.355 . S
C4711 C4713 1.419 . S
C4712 C4710 1.415 . S
C4712 C4717 1.425 . S
C4712 C4719 1.409 . S
C4713 H4705 0.930 . S
C4713 C4711 1.419 . S
C4713 C4714 1.362 . S
C4714 H4706 0.930 . S
C4714 C4713 1.362 . S
C4714 C4717 1.409 . S
C4715 H4707 0.930 . S
C4715 C4716 1.355 . S
C4715 C4717 1.415 . S
C4716 C4715 1.355 . S
C4716 C4718 1.419 . S
C4717 C4712 1.425 . S
C4717 C4714 1.409 . S
C4717 C4715 1.415 . S
C4718 H4708 0.930 . S
C4718 C4716 1.419 . S
C4718 C4719 1.362 . S
C4719 H4709 0.930 . S
C4719 C4712 1.409 . S
C4719 C4718 1.362 . S
H4720 C4726 0.930 . S
H4721 C4729 0.930 . S
H4722 C4730 0.930 . S
H4723 C4731 0.930 . S
H4724 C4734 0.930 . S
H4725 C4735 0.930 . S
C4726 H4720 0.930 . S
C4726 C4727 1.355 . S
C4726 C4728 1.415 . S
C4727 C4726 1.355 . S
C4727 C4729 1.419 . S
C4728 C4726 1.415 . S
C4728 C4733 1.425 . S
C4728 C4735 1.409 . S
C4729 H4721 0.930 . S
C4729 C4727 1.419 . S
C4729 C4730 1.362 . S
C4730 H4722 0.930 . S
C4730 C4729 1.362 . S
C4730 C4733 1.409 . S
C4731 H4723 0.930 . S
C4731 C4732 1.355 . S
C4731 C4733 1.415 . S
C4732 C4731 1.355 . S
C4732 C4734 1.419 . S
C4733 C4728 1.425 . S
C4733 C4730 1.409 . S
C4733 C4731 1.415 . S
C4734 H4724 0.930 . S
C4734 C4732 1.419 . S
C4734 C4735 1.362 . S
C4735 H4725 0.930 . S
C4735 C4728 1.409 . S
C4735 C4734 1.362 . S
H4736 C4742 0.930 . S
H4737 C4745 0.930 . S
H4738 C4746 0.930 . S
H4739 C4747 0.930 . S
H4740 C4750 0.930 . S
H4741 C4751 0.930 . S
C4742 H4736 0.930 . S
C4742 C4743 1.355 . S
C4742 C4744 1.415 . S
C4743 C4742 1.355 . S
C4743 C4745 1.419 . S
C4744 C4742 1.415 . S
C4744 C4749 1.425 . S
C4744 C4751 1.409 . S
C4745 H4737 0.930 . S
C4745 C4743 1.419 . S
C4745 C4746 1.362 . S
C4746 H4738 0.930 . S
C4746 C4745 1.362 . S
C4746 C4749 1.409 . S
C4747 H4739 0.930 . S
C4747 C4748 1.355 . S
C4747 C4749 1.415 . S
C4748 C4747 1.355 . S
C4748 C4750 1.419 . S
C4749 C4744 1.425 . S
C4749 C4746 1.409 . S
C4749 C4747 1.415 . S
C4750 H4740 0.930 . S
C4750 C4748 1.419 . S
C4750 C4751 1.362 . S
C4751 H4741 0.930 . S
C4751 C4744 1.409 . S
C4751 C4750 1.362 . S
H4752 C4758 0.930 . S
H4753 C4761 0.930 . S
H4754 C4762 0.930 . S
H4755 C4763 0.930 . S
H4756 C4766 0.930 . S
H4757 C4767 0.930 . S
C4758 H4752 0.930 . S
C4758 C4759 1.355 . S
C4758 C4760 1.415 . S
C4759 C4758 1.355 . S
C4759 C4761 1.419 . S
C4760 C4758 1.415 . S
C4760 C4765 1.425 . S
C4760 C4767 1.409 . S
C4761 H4753 0.930 . S
C4761 C4759 1.419 . S
C4761 C4762 1.362 . S
C4762 H4754 0.930 . S
C4762 C4761 1.362 . S
C4762 C4765 1.409 . S
C4763 H4755 0.930 . S
C4763 C4764 1.355 . S
C4763 C4765 1.415 . S
C4764 C4763 1.355 . S
C4764 C4766 1.419 . S
C4765 C4760 1.425 . S
C4765 C4762 1.409 . S
C4765 C4763 1.415 . S
C4766 H4756 0.930 . S
C4766 C4764 1.419 . S
C4766 C4767 1.362 . S
C4767 H4757 0.930 . S
C4767 C4760 1.409 . S
C4767 C4766 1.362 . S
H4768 C4774 0.930 . S
H4769 C4777 0.930 . S
H4770 C4778 0.930 . S
H4771 C4779 0.930 . S
H4772 C4782 0.930 . S
H4773 C4783 0.930 . S
C4774 H4768 0.930 . S
C4774 C4775 1.355 . S
C4774 C4776 1.415 . S
C4775 C4774 1.355 . S
C4775 C4777 1.419 . S
C4776 C4774 1.415 . S
C4776 C4781 1.425 . S
C4776 C4783 1.409 . S
C4777 H4769 0.930 . S
C4777 C4775 1.419 . S
C4777 C4778 1.362 . S
C4778 H4770 0.930 . S
C4778 C4777 1.362 . S
C4778 C4781 1.409 . S
C4779 H4771 0.930 . S
C4779 C4780 1.355 . S
C4779 C4781 1.415 . S
C4780 C4779 1.355 . S
C4780 C4782 1.419 . S
C4781 C4776 1.425 . S
C4781 C4778 1.409 . S
C4781 C4779 1.415 . S
C4782 H4772 0.930 . S
C4782 C4780 1.419 . S
C4782 C4783 1.362 . S
C4783 H4773 0.930 . S
C4783 C4776 1.409 . S
C4783 C4782 1.362 . S
H4784 C4790 0.930 . S
H4785 C4793 0.930 . S
H4786 C4794 0.930 . S
H4787 C4795 0.930 . S
H4788 C4798 0.930 . S
H4789 C4799 0.930 . S
C4790 H4784 0.930 . S
C4790 C4791 1.355 . S
C4790 C4792 1.415 . S
C4791 C4790 1.355 . S
C4791 C4793 1.419 . S
C4792 C4790 1.415 . S
C4792 C4797 1.425 . S
C4792 C4799 1.409 . S
C4793 H4785 0.930 . S
C4793 C4791 1.419 . S
C4793 C4794 1.362 . S
C4794 H4786 0.930 . S
C4794 C4793 1.362 . S
C4794 C4797 1.409 . S
C4795 H4787 0.930 . S
C4795 C4796 1.355 . S
C4795 C4797 1.415 . S
C4796 C4795 1.355 . S
C4796 C4798 1.419 . S
C4797 C4792 1.425 . S
C4797 C4794 1.409 . S
C4797 C4795 1.415 . S
C4798 H4788 0.930 . S
C4798 C4796 1.419 . S
C4798 C4799 1.362 . S
C4799 H4789 0.930 . S
C4799 C4792 1.409 . S
C4799 C4798 1.362 . S
H4800 C4806 0.930 . S
H4801 C4809 0.930 . S
H4802 C4810 0.930 . S
H4803 C4811 0.930 . S
H4804 C4814 0.930 . S
H4805 C4815 0.930 . S
C4806 H4800 0.930 . S
C4806 C4807 1.355 . S
C4806 C4808 1.415 . S
C4807 C4806 1.355 . S
C4807 C4809 1.419 . S
C4808 C4806 1.415 . S
C4808 C4813 1.425 . S
C4808 C4815 1.409 . S
C4809 H4801 0.930 . S
C4809 C4807 1.419 . S
C4809 C4810 1.362 . S
C4810 H4802 0.930 . S
C4810 C4809 1.362 . S
C4810 C4813 1.409 . S
C4811 H4803 0.930 . S
C4811 C4812 1.355 . S
C4811 C4813 1.415 . S
C4812 C4811 1.355 . S
C4812 C4814 1.419 . S
C4813 C4808 1.425 . S
C4813 C4810 1.409 . S
C4813 C4811 1.415 . S
C4814 H4804 0.930 . S
C4814 C4812 1.419 . S
C4814 C4815 1.362 . S
C4815 H4805 0.930 . S
C4815 C4808 1.409 . S
C4815 C4814 1.362 . S
H4816 C4822 0.930 . S
H4817 C4825 0.930 . S
H4818 C4826 0.930 . S
H4819 C4827 0.930 . S
H4820 C4830 0.930 . S
H4821 C4831 0.930 . S
C4822 H4816 0.930 . S
C4822 C4823 1.355 . S
C4822 C4824 1.415 . S
C4823 C4822 1.355 . S
C4823 C4825 1.419 . S
C4824 C4822 1.415 . S
C4824 C4829 1.425 . S
C4824 C4831 1.409 . S
C4825 H4817 0.930 . S
C4825 C4823 1.419 . S
C4825 C4826 1.362 . S
C4826 H4818 0.930 . S
C4826 C4825 1.362 . S
C4826 C4829 1.409 . S
C4827 H4819 0.930 . S
C4827 C4828 1.355 . S
C4827 C4829 1.415 . S
C4828 C4827 1.355 . S
C4828 C4830 1.419 . S
C4829 C4824 1.425 . S
C4829 C4826 1.409 . S
C4829 C4827 1.415 . S
C4830 H4820 0.930 . S
C4830 C4828 1.419 . S
C4830 C4831 1.362 . S
C4831 H4821 0.930 . S
C4831 C4824 1.409 . S
C4831 C4830 1.362 . S
H4832 C4838 0.930 . S
H4833 C4841 0.930 . S
H4834 C4842 0.930 . S
H4835 C4843 0.930 . S
H4836 C4846 0.930 . S
H4837 C4847 0.930 . S
C4838 H4832 0.930 . S
C4838 C4839 1.355 . S
C4838 C4840 1.415 . S
C4839 C4838 1.355 . S
C4839 C4841 1.419 . S
C4840 C4838 1.415 . S
C4840 C4845 1.425 . S
C4840 C4847 1.409 . S
C4841 H4833 0.930 . S
C4841 C4839 1.419 . S
C4841 C4842 1.362 . S
C4842 H4834 0.930 . S
C4842 C4841 1.362 . S
C4842 C4845 1.409 . S
C4843 H4835 0.930 . S
C4843 C4844 1.355 . S
C4843 C4845 1.415 . S
C4844 C4843 1.355 . S
C4844 C4846 1.419 . S
C4845 C4840 1.425 . S
C4845 C4842 1.409 . S
C4845 C4843 1.415 . S
C4846 H4836 0.930 . S
C4846 C4844 1.419 . S
C4846 C4847 1.362 . S
C4847 H4837 0.930 . S
C4847 C4840 1.409 . S
C4847 C4846 1.362 . S
H4848 C4854 0.930 . S
H4849 C4857 0.930 . S
H4850 C4858 0.930 . S
H4851 C4859 0.930 . S
H4852 C4862 0.930 . S
H4853 C4863 0.930 . S
C4854 H4848 0.930 . S
C4854 C4855 1.355 . S
C4854 C4856 1.415 . S
C4855 C4854 1.355 . S
C4855 C4857 1.419 . S
C4856 C4854 1.415 . S
C4856 C4861 1.425 . S
C4856 C4863 1.409 . S
C4857 H4849 0.930 . S
C4857 C4855 1.419 . S
C4857 C4858 1.362 . S
C4858 H4850 0.930 . S
C4858 C4857 1.362 . S
C4858 C4861 1.409 . S
C4859 H4851 0.930 . S
C4859 C4860 1.355 . S
C4859 C4861 1.415 . S
C4860 C4859 1.355 . S
C4860 C4862 1.419 . S
C4861 C4856 1.425 . S
C4861 C4858 1.409 . S
C4861 C4859 1.415 . S
C4862 H4852 0.930 . S
C4862 C4860 1.419 . S
C4862 C4863 1.362 . S
C4863 H4853 0.930 . S
C4863 C4856 1.409 . S
C4863 C4862 1.362 . S
H4864 C4870 0.930 . S
H4865 C4873 0.930 . S
H4866 C4874 0.930 . S
H4867 C4875 0.930 . S
H4868 C4878 0.930 . S
H4869 C4879 0.930 . S
C4870 H4864 0.930 . S
C4870 C4871 1.355 . S
C4870 C4872 1.415 . S
C4871 C4870 1.355 . S
C4871 C4873 1.419 . S
C4872 C4870 1.415 . S
C4872 C4877 1.425 . S
C4872 C4879 1.409 . S
C4873 H4865 0.930 . S
C4873 C4871 1.419 . S
C4873 C4874 1.362 . S
C4874 H4866 0.930 . S
C4874 C4873 1.362 . S
C4874 C4877 1.409 . S
C4875 H4867 0.930 . S
C4875 C4876 1.355 . S
C4875 C4877 1.415 . S
C4876 C4875 1.355 . S
C4876 C4878 1.419 . S
C4877 C4872 1.425 . S
C4877 C4874 1.409 . S
C4877 C4875 1.415 . S
C4878 H4868 0.930 . S
C4878 C4876 1.419 . S
C4878 C4879 1.362 . S
C4879 H4869 0.930 . S
C4879 C4872 1.409 . S
C4879 C4878 1.362 . S
H4880 C4886 0.930 . S
H4881 C4889 0.930 . S
H4882 C4890 0.930 . S
H4883 C4891 0.930 . S
H4884 C4894 0.930 . S
H4885 C4895 0.930 . S
C4886 H4880 0.930 . S
C4886 C4887 1.355 . S
C4886 C4888 1.415 . S
C4887 C4886 1.355 . S
C4887 C4889 1.419 . S
C4888 C4886 1.415 . S
C4888 C4893 1.425 . S
C4888 C4895 1.409 . S
C4889 H4881 0.930 . S
C4889 C4887 1.419 . S
C4889 C4890 1.362 . S
C4890 H4882 0.930 . S
C4890 C4889 1.362 . S
C4890 C4893 1.409 . S
C4891 H4883 0.930 . S
C4891 C4892 1.355 . S
C4891 C4893 1.415 . S
C4892 C4891 1.355 . S
C4892 C4894 1.419 . S
C4893 C4888 1.425 . S
C4893 C4890 1.409 . S
C4893 C4891 1.415 . S
C4894 H4884 0.930 . S
C4894 C4892 1.419 . S
C4894 C4895 1.362 . S
C4895 H4885 0.930 . S
C4895 C4888 1.409 . S
C4895 C4894 1.362 . S
H4896 C4902 0.930 . S
H4897 C4905 0.930 . S
H4898 C4906 0.930 . S
H4899 C4907 0.930 . S
H4900 C4910 0.930 . S
H4901 C4911 0.930 . S
C4902 H4896 0.930 . S
C4902 C4903 1.355 . S
C4902 C4904 1.415 . S
C4903 C4902 1.355 . S
C4903 C4905 1.419 . S
C4904 C4902 1.415 . S
C4904 C4909 1.425 . S
C4904 C4911 1.409 . S
C4905 H4897 0.930 . S
C4905 C4903 1.419 . S
C4905 C4906 1.362 . S
C4906 H4898 0.930 . S
C4906 C4905 1.362 . S
C4906 C4909 1.409 . S
C4907 H4899 0.930 . S
C4907 C4908 1.355 . S
C4907 C4909 1.415 . S
C4908 C4907 1.355 . S
C4908 C4910 1.419 . S
C4909 C4904 1.425 . S
C4909 C4906 1.409 . S
C4909 C4907 1.415 . S
C4910 H4900 0.930 . S
C4910 C4908 1.419 . S
C4910 C4911 1.362 . S
C4911 H4901 0.930 . S
C4911 C4904 1.409 . S
C4911 C4910 1.362 . S
H4912 C4918 0.930 . S
H4913 C4921 0.930 . S
H4914 C4922 0.930 . S
H4915 C4923 0.930 . S
H4916 C4926 0.930 . S
H4917 C4927 0.930 . S
C4918 H4912 0.930 . S
C4918 C4919 1.355 . S
C4918 C4920 1.415 . S
C4919 C4918 1.355 . S
C4919 C4921 1.419 . S
C4920 C4918 1.415 . S
C4920 C4925 1.425 . S
C4920 C4927 1.409 . S
C4921 H4913 0.930 . S
C4921 C4919 1.419 . S
C4921 C4922 1.362 . S
C4922 H4914 0.930 . S
C4922 C4921 1.362 . S
C4922 C4925 1.409 . S
C4923 H4915 0.930 . S
C4923 C4924 1.355 . S
C4923 C4925 1.415 . S
C4924 C4923 1.355 . S
C4924 C4926 1.419 . S
C4925 C4920 1.425 . S
C4925 C4922 1.409 . S
C4925 C4923 1.415 . S
C4926 H4916 0.930 . S
C4926 C4924 1.419 . S
C4926 C4927 1.362 . S
C4927 H4917 0.930 . S
C4927 C4920 1.409 . S
C4927 C4926 1.362 . S
H4928 C4934 0.930 . S
H4929 C4937 0.930 . S
H4930 C4938 0.930 . S
H4931 C4939 0.930 . S
H4932 C4942 0.930 . S
H4933 C4943 0.930 . S
C4934 H4928 0.930 . S
C4934 C4935 1.355 . S
C4934 C4936 1.415 . S
C4935 C4934 1.355 . S
C4935 C4937 1.419 . S
C4936 C4934 1.415 . S
C4936 C4941 1.425 . S
C4936 C4943 1.409 . S
C4937 H4929 0.930 . S
C4937 C4935 1.419 . S
C4937 C4938 1.362 . S
C4938 H4930 0.930 . S
C4938 C4937 1.362 . S
C4938 C4941 1.409 . S
C4939 H4931 0.930 . S
C4939 C4940 1.355 . S
C4939 C4941 1.415 . S
C4940 C4939 1.355 . S
C4940 C4942 1.419 . S
C4941 C4936 1.425 . S
C4941 C4938 1.409 . S
C4941 C4939 1.415 . S
C4942 H4932 0.930 . S
C4942 C4940 1.419 . S
C4942 C4943 1.362 . S
C4943 H4933 0.930 . S
C4943 C4936 1.409 . S
C4943 C4942 1.362 . S
H4944 C4950 0.930 . S
H4945 C4953 0.930 . S
H4946 C4954 0.930 . S
H4947 C4955 0.930 . S
H4948 C4958 0.930 . S
H4949 C4959 0.930 . S
C4950 H4944 0.930 . S
C4950 C4951 1.355 . S
C4950 C4952 1.415 . S
C4951 C4950 1.355 . S
C4951 C4953 1.419 . S
C4952 C4950 1.415 . S
C4952 C4957 1.425 . S
C4952 C4959 1.409 . S
C4953 H4945 0.930 . S
C4953 C4951 1.419 . S
C4953 C4954 1.362 . S
C4954 H4946 0.930 . S
C4954 C4953 1.362 . S
C4954 C4957 1.409 . S
C4955 H4947 0.930 . S
C4955 C4956 1.355 . S
C4955 C4957 1.415 . S
C4956 C4955 1.355 . S
C4956 C4958 1.419 . S
C4957 C4952 1.425 . S
C4957 C4954 1.409 . S
C4957 C4955 1.415 . S
C4958 H4948 0.930 . S
C4958 C4956 1.419 . S
C4958 C4959 1.362 . S
C4959 H4949 0.930 . S
C4959 C4952 1.409 . S
C4959 C4958 1.362 . S
H4960 C4966 0.930 . S
H4961 C4969 0.930 . S
H4962 C4970 0.930 . S
H4963 C4971 0.930 . S
H4964 C4974 0.930 . S
H4965 C4975 0.930 . S
C4966 H4960 0.930 . S
C4966 C4967 1.355 . S
C4966 C4968 1.415 . S
C4967 C4966 1.355 . S
C4967 C4969 1.419 . S
C4968 C4966 1.415 . S
C4968 C4973 1.425 . S
C4968 C4975 1.409 . S
C4969 H4961 0.930 . S
C4969 C4967 1.419 . S
C4969 C4970 1.362 . S
C4970 H4962 0.930 . S
C4970 C4969 1.362 . S
C4970 C4973 1.409 . S
C4971 H4963 0.930 . S
C4971 C4972 1.355 . S
C4971 C4973 1.415 . S
C4972 C4971 1.355 . S
C4972 C4974 1.419 . S
C4973 C4968 1.425 . S
C4973 C4970 1.409 . S
C4973 C4971 1.415 . S
C4974 H4964 0.930 . S
C4974 C4972 1.419 . S
C4974 C4975 1.362 . S
C4975 H4965 0.930 . S
C4975 C4968 1.409 . S
C4975 C4974 1.362 . S
H4976 C4982 0.930 . S
H4977 C4985 0.930 . S
H4978 C4986 0.930 . S
H4979 C4987 0.930 . S
H4980 C4990 0.930 . S
H4981 C4991 0.930 . S
C4982 H4976 0.930 . S
C4982 C4983 1.355 . S
C4982 C4984 1.415 . S
C4983 C4982 1.355 . S
C4983 C4985 1.419 . S
C4984 C4982 1.415 . S
C4984 C4989 1.425 . S
C4984 C4991 1.409 . S
C4985 H4977 0.930 . S
C4985 C4983 1.419 . S
C4985 C4986 1.362 . S
C4986 H4978 0.930 . S
C4986 C4985 1.362 . S
C4986 C4989 1.409 . S
C4987 H4979 0.930 . S
C4987 C4988 1.355 . S
C4987 C4989 1.415 . S
C4988 C4987 1.355 . S
C4988 C4990 1.419 . S
C4989 C4984 1.425 . S
C4989 C4986 1.409 . S
C4989 C4987 1.415 . S
C4990 H4980 0.930 . S
C4990 C4988 1.419 . S
C4990 C4991 1.362 . S
C4991 H4981 0.930 . S
C4991 C4984 1.409 . S
C4991 C4990 1.362 . S
H4992 C4998 0.930 . S
H4993 C5001 0.930 . S
H4994 C5002 0.930 . S
H4995 C5003 0.930 . S
H4996 C5006 0.930 . S
H4997 C5007 0.930 . S
C4998 H4992 0.930 . S
C4998 C4999 1.355 . S
C4998 C5000 1.415 . S
C4999 C4998 1.355 . S
C4999 C5001 1.419 . S
C5000 C4998 1.415 . S
C5000 C5005 1.442 . S
C5000 C5007 1.409 1_455 S
C5001 H4993 0.930 . S
C5001 C4999 1.419 . S
C5001 C5002 1.362 . S
C5002 H4994 0.930 . S
C5002 C5001 1.362 . S
C5002 C5005 1.441 . S
C5003 H4995 0.930 . S
C5003 C5004 1.355 . S
C5003 C5005 1.368 1_655 S
C5004 C5003 1.355 . S
C5004 C5006 1.419 . S
C5005 C5000 1.442 . S
C5005 C5002 1.441 . S
C5005 C5003 1.368 1_455 S
C5006 H4996 0.930 . S
C5006 C5004 1.419 . S
C5006 C5007 1.362 . S
C5007 H4997 0.930 . S
C5007 C5000 1.409 1_655 S
C5007 C5006 1.362 . S
H5008 C5014 0.930 . S
H5009 C5017 0.930 . S
H5010 C5018 0.930 . S
H5011 C5019 0.930 . S
H5012 C5022 0.930 . S
H5013 C5023 0.930 1_545 S
C5014 H5008 0.930 . S
C5014 C5015 1.355 . S
C5014 C5016 1.415 . S
C5015 C5014 1.355 . S
C5015 C5017 1.419 . S
C5016 C5014 1.415 . S
C5016 C5021 1.418 1_545 S
C5016 C5023 1.409 1_545 S
C5017 H5009 0.930 . S
C5017 C5015 1.419 . S
C5017 C5018 1.362 . S
C5018 H5010 0.930 . S
C5018 C5017 1.362 . S
C5018 C5021 1.399 1_545 S
C5019 H5011 0.930 . S
C5019 C5020 1.355 . S
C5019 C5021 1.432 . S
C5020 C5019 1.355 . S
C5020 C5022 1.419 . S
C5021 C5016 1.418 1_565 S
C5021 C5018 1.399 1_565 S
C5021 C5019 1.432 . S
C5022 H5012 0.930 . S
C5022 C5020 1.419 . S
C5022 C5023 1.362 . S
C5023 H5013 0.930 1_565 S
C5023 C5016 1.409 1_565 S
C5023 C5022 1.362 . S
H5024 C5030 0.930 . S
H5025 C5033 0.930 . S
H5026 C5034 0.930 . S
H5027 C5035 0.930 . S
H5028 C5038 0.930 . S
H5029 C5039 0.930 1_655 S
C5030 H5024 0.930 . S
C5030 C5031 1.355 . S
C5030 C5032 1.415 . S
C5031 C5030 1.355 . S
C5031 C5033 1.419 . S
C5032 C5030 1.415 . S
C5032 C5037 1.417 1_655 S
C5032 C5039 1.409 1_655 S
C5033 H5025 0.930 . S
C5033 C5031 1.419 . S
C5033 C5034 1.362 . S
C5034 H5026 0.930 . S
C5034 C5033 1.362 . S
C5034 C5037 1.399 1_655 S
C5035 H5027 0.930 . S
C5035 C5036 1.355 . S
C5035 C5037 1.433 . S
C5036 C5035 1.355 . S
C5036 C5038 1.419 . S
C5037 C5032 1.417 1_455 S
C5037 C5034 1.399 1_455 S
C5037 C5035 1.433 . S
C5038 H5028 0.930 . S
C5038 C5036 1.419 . S
C5038 C5039 1.362 . S
C5039 H5029 0.930 1_455 S
C5039 C5032 1.409 1_455 S
C5039 C5038 1.362 . S
H5040 C5046 0.930 . S
H5041 C5049 0.930 . S
H5042 C5050 0.930 . S
H5043 C5051 0.930 . S
H5044 C5054 0.930 . S
H5045 C5055 0.929 1_565 S
C5046 H5040 0.930 . S
C5046 C5047 1.355 . S
C5046 C5048 1.415 . S
C5047 C5046 1.355 . S
C5047 C5049 1.419 . S
C5048 C5046 1.415 . S
C5048 C5053 1.433 . S
C5048 C5055 1.409 1_565 S
C5049 H5041 0.930 . S
C5049 C5047 1.419 . S
C5049 C5050 1.362 . S
C5050 H5042 0.930 . S
C5050 C5049 1.362 . S
C5050 C5053 1.421 . S
C5051 H5043 0.930 . S
C5051 C5052 1.355 . S
C5051 C5053 1.395 1_545 S
C5052 C5051 1.355 . S
C5052 C5054 1.419 . S
C5053 C5048 1.433 . S
C5053 C5050 1.421 . S
C5053 C5051 1.395 1_565 S
C5054 H5044 0.930 . S
C5054 C5052 1.419 . S
C5054 C5055 1.362 . S
C5055 H5045 0.929 1_545 S
C5055 C5048 1.409 1_545 S
C5055 C5054 1.362 . S
H5056 C5062 0.930 . S
H5057 C5065 0.930 . S
H5058 C5066 0.930 1_455 S
H5059 C5067 0.930 . S
H5060 C5070 0.930 . S
H5061 C5071 0.930 . S
C5062 H5056 0.930 . S
C5062 C5063 1.355 . S
C5062 C5064 1.426 . S
C5063 C5062 1.355 . S
C5063 C5065 1.419 . S
C5064 C5062 1.426 . S
C5064 C5069 1.420 1_655 S
C5064 C5071 1.403 1_655 S
C5065 H5057 0.930 . S
C5065 C5063 1.419 . S
C5065 C5066 1.362 . S
C5066 H5058 0.930 1_655 S
C5066 C5065 1.362 . S
C5066 C5069 1.409 1_655 S
C5067 H5059 0.930 . S
C5067 C5068 1.355 . S
C5067 C5069 1.415 . S
C5068 C5067 1.355 . S
C5068 C5070 1.419 . S
C5069 C5064 1.420 1_455 S
C5069 C5066 1.409 1_455 S
C5069 C5067 1.415 . S
C5070 H5060 0.930 . S
C5070 C5068 1.419 . S
C5070 C5071 1.362 . S
C5071 H5061 0.930 . S
C5071 C5064 1.403 1_455 S
C5071 C5070 1.362 . S
H5072 C5078 0.930 . S
H5073 C5081 0.930 . S
H5074 C5082 0.930 . S
H5075 C5083 0.930 . S
H5076 C5086 0.930 . S
H5077 C5087 0.930 1_545 S
C5078 H5072 0.930 . S
C5078 C5079 1.355 . S
C5078 C5080 1.415 . S
C5079 C5078 1.355 . S
C5079 C5081 1.419 . S
C5080 C5078 1.415 . S
C5080 C5085 1.425 . S
C5080 C5087 1.409 1_545 S
C5081 H5073 0.930 . S
C5081 C5079 1.419 . S
C5081 C5082 1.362 . S
C5082 H5074 0.930 . S
C5082 C5081 1.362 . S
C5082 C5085 1.408 . S
C5083 H5075 0.930 . S
C5083 C5084 1.355 . S
C5083 C5085 1.416 1_565 S
C5084 C5083 1.355 . S
C5084 C5086 1.419 . S
C5085 C5080 1.425 . S
C5085 C5082 1.408 . S
C5085 C5083 1.416 1_545 S
C5086 H5076 0.930 . S
C5086 C5084 1.419 . S
C5086 C5087 1.362 . S
C5087 H5077 0.930 1_565 S
C5087 C5080 1.409 1_565 S
C5087 C5086 1.362 . S
H5088 C5094 0.930 . S
H5089 C5097 0.930 . S
H5090 C5098 0.909 1_655 S
H5091 C5099 0.930 . S
H5092 C5102 0.930 . S
H5093 C5103 0.930 . S
C5094 H5088 0.930 . S
C5094 C5095 1.355 . S
C5094 C5096 1.410 1_455 S
C5095 C5094 1.355 . S
C5095 C5097 1.419 . S
C5096 C5094 1.410 1_655 S
C5096 C5101 1.427 . S
C5096 C5103 1.412 . S
C5097 H5089 0.930 . S
C5097 C5095 1.419 . S
C5097 C5098 1.362 . S
C5098 H5090 0.909 1_455 S
C5098 C5097 1.362 . S
C5098 C5101 1.409 1_455 S
C5099 H5091 0.930 . S
C5099 C5100 1.355 . S
C5099 C5101 1.415 . S
C5100 C5099 1.355 . S
C5100 C5102 1.419 . S
C5101 C5096 1.427 . S
C5101 C5098 1.409 1_655 S
C5101 C5099 1.415 . S
C5102 H5092 0.930 . S
C5102 C5100 1.419 . S
C5102 C5103 1.362 . S
C5103 H5093 0.930 . S
C5103 C5096 1.412 . S
C5103 C5102 1.362 . S
H5104 C5110 0.930 . S
H5105 C5113 0.930 . S
H5106 C5114 0.930 . S
H5107 C5115 0.930 . S
H5108 C5118 0.930 . S
H5109 C5119 0.930 . S
C5110 H5104 0.930 . S
C5110 C5111 1.355 . S
C5110 C5112 1.415 1_545 S
C5111 C5110 1.355 . S
C5111 C5113 1.419 . S
C5112 C5110 1.415 1_565 S
C5112 C5117 1.425 . S
C5112 C5119 1.409 . S
C5113 H5105 0.930 . S
C5113 C5111 1.419 . S
C5113 C5114 1.362 . S
C5114 H5106 0.930 . S
C5114 C5113 1.362 . S
C5114 C5117 1.409 1_545 S
C5115 H5107 0.930 . S
C5115 C5116 1.355 . S
C5115 C5117 1.415 . S
C5116 C5115 1.355 . S
C5116 C5118 1.419 . S
C5117 C5112 1.425 . S
C5117 C5114 1.409 1_565 S
C5117 C5115 1.415 . S
C5118 H5108 0.930 . S
C5118 C5116 1.419 . S
C5118 C5119 1.362 . S
C5119 H5109 0.930 . S
C5119 C5112 1.409 . S
C5119 C5118 1.362 . S
H5120 C5126 0.930 . S
H5121 C5129 0.930 . S
H5122 C5130 0.930 . S
H5123 C5131 0.930 . S
H5124 C5134 0.930 . S
H5125 C5135 0.930 1_545 S
C5126 H5120 0.930 . S
C5126 C5127 1.355 . S
C5126 C5128 1.415 . S
C5127 C5126 1.355 . S
C5127 C5129 1.419 . S
C5128 C5126 1.415 . S
C5128 C5133 1.417 1_545 S
C5128 C5135 1.409 1_545 S
C5129 H5121 0.930 . S
C5129 C5127 1.419 . S
C5129 C5130 1.362 . S
C5130 H5122 0.930 . S
C5130 C5129 1.362 . S
C5130 C5133 1.399 1_545 S
C5131 H5123 0.930 . S
C5131 C5132 1.355 . S
C5131 C5133 1.433 . S
C5132 C5131 1.355 . S
C5132 C5134 1.419 . S
C5133 C5128 1.417 1_565 S
C5133 C5130 1.399 1_565 S
C5133 C5131 1.433 . S
C5134 H5124 0.930 . S
C5134 C5132 1.419 . S
C5134 C5135 1.362 . S
C5135 H5125 0.930 1_565 S
C5135 C5128 1.409 1_565 S
C5135 C5134 1.362 . S
H5136 C5142 0.930 . S
H5137 C5145 0.930 . S
H5138 C5146 0.930 . S
H5139 C5147 0.930 . S
H5140 C5150 0.930 . S
H5141 C5151 0.930 . S
C5142 H5136 0.930 . S
C5142 C5143 1.355 . S
C5142 C5144 1.415 1_455 S
C5143 C5142 1.355 . S
C5143 C5145 1.419 . S
C5144 C5142 1.415 1_655 S
C5144 C5149 1.425 . S
C5144 C5151 1.409 . S
C5145 H5137 0.930 . S
C5145 C5143 1.419 . S
C5145 C5146 1.362 . S
C5146 H5138 0.930 . S
C5146 C5145 1.362 . S
C5146 C5149 1.409 1_455 S
C5147 H5139 0.930 . S
C5147 C5148 1.355 . S
C5147 C5149 1.415 . S
C5148 C5147 1.355 . S
C5148 C5150 1.419 . S
C5149 C5144 1.425 . S
C5149 C5146 1.409 1_655 S
C5149 C5147 1.415 . S
C5150 H5140 0.930 . S
C5150 C5148 1.419 . S
C5150 C5151 1.362 . S
C5151 H5141 0.930 . S
C5151 C5144 1.409 . S
C5151 C5150 1.362 . S
H5152 C5158 0.930 . S
H5153 C5161 0.930 . S
H5154 C5162 0.930 . S
H5155 C5163 0.930 . S
H5156 C5166 0.930 . S
H5157 C5167 0.930 1_565 S
C5158 H5152 0.930 . S
C5158 C5159 1.355 . S
C5158 C5160 1.415 . S
C5159 C5158 1.355 . S
C5159 C5161 1.419 . S
C5160 C5158 1.415 . S
C5160 C5165 1.418 1_565 S
C5160 C5167 1.409 1_565 S
C5161 H5153 0.930 . S
C5161 C5159 1.419 . S
C5161 C5162 1.362 . S
C5162 H5154 0.930 . S
C5162 C5161 1.362 . S
C5162 C5165 1.400 1_565 S
C5163 H5155 0.930 . S
C5163 C5164 1.355 . S
C5163 C5165 1.431 . S
C5164 C5163 1.355 . S
C5164 C5166 1.419 . S
C5165 C5160 1.418 1_545 S
C5165 C5162 1.400 1_545 S
C5165 C5163 1.431 . S
C5166 H5156 0.930 . S
C5166 C5164 1.419 . S
C5166 C5167 1.362 . S
C5167 H5157 0.930 1_545 S
C5167 C5160 1.409 1_545 S
C5167 C5166 1.362 . S
H5168 C5174 0.930 . S
H5169 C5177 0.930 . S
H5170 C5178 0.930 . S
H5171 C5179 0.930 . S
H5172 C5182 0.930 . S
H5173 C5183 0.930 . S
C5174 H5168 0.930 . S
C5174 C5175 1.355 . S
C5174 C5176 1.415 . S
C5175 C5174 1.355 . S
C5175 C5177 1.419 . S
C5176 C5174 1.415 . S
C5176 C5181 1.425 . S
C5176 C5183 1.409 1_455 S
C5177 H5169 0.930 . S
C5177 C5175 1.419 . S
C5177 C5178 1.362 . S
C5178 H5170 0.930 . S
C5178 C5177 1.362 . S
C5178 C5181 1.409 . S
C5179 H5171 0.930 . S
C5179 C5180 1.355 . S
C5179 C5181 1.415 1_655 S
C5180 C5179 1.355 . S
C5180 C5182 1.419 . S
C5181 C5176 1.425 . S
C5181 C5178 1.409 . S
C5181 C5179 1.415 1_455 S
C5182 H5172 0.930 . S
C5182 C5180 1.419 . S
C5182 C5183 1.362 . S
C5183 H5173 0.930 . S
C5183 C5176 1.409 1_655 S
C5183 C5182 1.362 . S
H5184 C5190 0.930 . S
H5185 C5193 0.930 . S
H5186 C5194 0.930 . S
H5187 C5195 0.930 . S
H5188 C5198 0.930 . S
H5189 C5199 0.944 . S
C5190 H5184 0.930 . S
C5190 C5191 1.355 . S
C5190 C5192 1.415 . S
C5191 C5190 1.355 . S
C5191 C5193 1.419 . S
C5192 C5190 1.415 . S
C5192 C5197 1.438 . S
C5192 C5199 1.409 1_565 S
C5193 H5185 0.930 . S
C5193 C5191 1.419 . S
C5193 C5194 1.362 . S
C5194 H5186 0.930 . S
C5194 C5193 1.362 . S
C5194 C5197 1.432 . S
C5195 H5187 0.930 . S
C5195 C5196 1.355 . S
C5195 C5197 1.381 1_545 S
C5196 C5195 1.355 . S
C5196 C5198 1.419 . S
C5197 C5192 1.438 . S
C5197 C5194 1.432 . S
C5197 C5195 1.381 1_565 S
C5198 H5188 0.930 . S
C5198 C5196 1.419 . S
C5198 C5199 1.362 . S
C5199 H5189 0.944 . S
C5199 C5192 1.409 1_545 S
C5199 C5198 1.362 . S
H5200 C5206 0.930 . S
H5201 C5209 0.930 . S
H5202 C5210 0.930 . S
H5203 C5211 0.930 . S
H5204 C5214 0.930 . S
H5205 C5215 0.930 . S
C5206 H5200 0.930 . S
C5206 C5207 1.355 . S
C5206 C5208 1.415 . S
C5207 C5206 1.355 . S
C5207 C5209 1.419 . S
C5208 C5206 1.415 . S
C5208 C5213 1.425 . S
C5208 C5215 1.409 1_455 S
C5209 H5201 0.930 . S
C5209 C5207 1.419 . S
C5209 C5210 1.362 . S
C5210 H5202 0.930 . S
C5210 C5209 1.362 . S
C5210 C5213 1.409 . S
C5211 H5203 0.930 . S
C5211 C5212 1.355 . S
C5211 C5213 1.415 1_655 S
C5212 C5211 1.355 . S
C5212 C5214 1.419 . S
C5213 C5208 1.425 . S
C5213 C5210 1.409 . S
C5213 C5211 1.415 1_455 S
C5214 H5204 0.930 . S
C5214 C5212 1.419 . S
C5214 C5215 1.362 . S
C5215 H5205 0.930 . S
C5215 C5208 1.409 1_655 S
C5215 C5214 1.362 . S
H5216 C5222 0.930 . S
H5217 C5225 0.930 . S
H5218 C5226 0.930 . S
H5219 C5227 0.930 . S
H5220 C5230 0.930 . S
H5221 C5231 0.930 1_545 S
C5222 H5216 0.930 . S
C5222 C5223 1.355 . S
C5222 C5224 1.415 . S
C5223 C5222 1.355 . S
C5223 C5225 1.419 . S
C5224 C5222 1.415 . S
C5224 C5229 1.421 1_545 S
C5224 C5231 1.409 1_545 S
C5225 H5217 0.930 . S
C5225 C5223 1.419 . S
C5225 C5226 1.362 . S
C5226 H5218 0.930 . S
C5226 C5225 1.362 . S
C5226 C5229 1.403 1_545 S
C5227 H5219 0.930 . S
C5227 C5228 1.355 . S
C5227 C5229 1.425 . S
C5228 C5227 1.355 . S
C5228 C5230 1.419 . S
C5229 C5224 1.421 1_565 S
C5229 C5226 1.403 1_565 S
C5229 C5227 1.425 . S
C5230 H5220 0.930 . S
C5230 C5228 1.419 . S
C5230 C5231 1.362 . S
C5231 H5221 0.930 1_565 S
C5231 C5224 1.409 1_565 S
C5231 C5230 1.362 . S
H5232 C5238 0.930 . S
H5233 C5241 0.930 . S
H5234 C5242 0.927 1_655 S
H5235 C5243 0.930 . S
H5236 C5246 0.930 . S
H5237 C5247 0.930 . S
C5238 H5232 0.930 . S
C5238 C5239 1.355 . S
C5238 C5240 1.401 1_455 S
C5239 C5238 1.355 . S
C5239 C5241 1.419 . S
C5240 C5238 1.401 1_655 S
C5240 C5245 1.431 . S
C5240 C5247 1.418 . S
C5241 H5233 0.930 . S
C5241 C5239 1.419 . S
C5241 C5242 1.362 . S
C5242 H5234 0.927 1_455 S
C5242 C5241 1.362 . S
C5242 C5245 1.409 1_455 S
C5243 H5235 0.930 . S
C5243 C5244 1.355 . S
C5243 C5245 1.415 . S
C5244 C5243 1.355 . S
C5244 C5246 1.419 . S
C5245 C5240 1.431 . S
C5245 C5242 1.409 1_655 S
C5245 C5243 1.415 . S
C5246 H5236 0.930 . S
C5246 C5244 1.419 . S
C5246 C5247 1.362 . S
C5247 H5237 0.930 . S
C5247 C5240 1.418 . S
C5247 C5246 1.362 . S
H5248 C5254 0.930 . S
H5249 C5257 0.930 . S
H5250 C5258 0.930 . S
H5251 C5259 0.930 . S
H5252 C5262 0.930 . S
H5253 C5263 0.929 1_554 S
C5254 H5248 0.930 . S
C5254 C5255 1.355 . S
C5254 C5256 1.415 . S
C5255 C5254 1.355 . S
C5255 C5257 1.419 . S
C5256 C5254 1.415 . S
C5256 C5261 1.431 . S
C5256 C5263 1.409 1_554 S
C5257 H5249 0.930 . S
C5257 C5255 1.419 . S
C5257 C5258 1.362 . S
C5258 H5250 0.930 . S
C5258 C5257 1.362 . S
C5258 C5261 1.419 . S
C5259 H5251 0.930 . S
C5259 C5260 1.355 . S
C5259 C5261 1.400 1_556 S
C5260 C5259 1.355 . S
C5260 C5262 1.419 . S
C5261 C5256 1.431 . S
C5261 C5258 1.419 . S
C5261 C5259 1.400 1_554 S
C5262 H5252 0.930 . S
C5262 C5260 1.419 . S
C5262 C5263 1.362 . S
C5263 H5253 0.929 1_556 S
C5263 C5256 1.409 1_556 S
C5263 C5262 1.362 . S
H5264 C5270 0.930 . S
H5265 C5273 0.930 . S
H5266 C5274 0.930 . S
H5267 C5275 0.930 . S
H5268 C5278 0.930 . S
H5269 C5279 0.930 . S
C5270 H5264 0.930 . S
C5270 C5271 1.355 . S
C5270 C5272 1.415 . S
C5271 C5270 1.355 . S
C5271 C5273 1.419 . S
C5272 C5270 1.415 . S
C5272 C5277 1.425 . S
C5272 C5279 1.409 1_556 S
C5273 H5265 0.930 . S
C5273 C5271 1.419 . S
C5273 C5274 1.362 . S
C5274 H5266 0.930 . S
C5274 C5273 1.362 . S
C5274 C5277 1.409 . S
C5275 H5267 0.930 . S
C5275 C5276 1.355 . S
C5275 C5277 1.415 1_554 S
C5276 C5275 1.355 . S
C5276 C5278 1.419 . S
C5277 C5272 1.425 . S
C5277 C5274 1.409 . S
C5277 C5275 1.415 1_556 S
C5278 H5268 0.930 . S
C5278 C5276 1.419 . S
C5278 C5279 1.362 . S
C5279 H5269 0.930 . S
C5279 C5272 1.409 1_554 S
C5279 C5278 1.362 . S
H5280 C5286 0.930 . S
H5281 C5289 0.930 . S
H5282 C5290 0.930 . S
H5283 C5291 0.930 . S
H5284 C5294 0.930 . S
H5285 C5295 0.930 . S
C5286 H5280 0.930 . S
C5286 C5287 1.355 . S
C5286 C5288 1.372 1_554 S
C5287 C5286 1.355 . S
C5287 C5289 1.419 . S
C5288 C5286 1.372 1_556 S
C5288 C5293 1.441 . S
C5288 C5295 1.438 . S
C5289 H5281 0.930 . S
C5289 C5287 1.419 . S
C5289 C5290 1.362 . S
C5290 H5282 0.930 . S
C5290 C5289 1.362 . S
C5290 C5293 1.409 1_554 S
C5291 H5283 0.930 . S
C5291 C5292 1.355 . S
C5291 C5293 1.415 . S
C5292 C5291 1.355 . S
C5292 C5294 1.419 . S
C5293 C5288 1.441 . S
C5293 C5290 1.409 1_556 S
C5293 C5291 1.415 . S
C5294 H5284 0.930 . S
C5294 C5292 1.419 . S
C5294 C5295 1.362 . S
C5295 H5285 0.930 . S
C5295 C5288 1.438 . S
C5295 C5294 1.362 . S
H5296 C5302 0.930 . S
H5297 C5305 0.930 . S
H5298 C5306 0.930 . S
H5299 C5307 0.930 . S
H5300 C5310 0.930 . S
H5301 C5311 0.930 . S
C5302 H5296 0.930 . S
C5302 C5303 1.355 . S
C5302 C5304 1.415 . S
C5303 C5302 1.355 . S
C5303 C5305 1.419 . S
C5304 C5302 1.415 . S
C5304 C5309 1.444 . S
C5304 C5311 1.409 1_556 S
C5305 H5297 0.930 . S
C5305 C5303 1.419 . S
C5305 C5306 1.362 . S
C5306 H5298 0.930 . S
C5306 C5305 1.362 . S
C5306 C5309 1.446 . S
C5307 H5299 0.930 . S
C5307 C5308 1.355 . S
C5307 C5309 1.361 1_554 S
C5308 C5307 1.355 . S
C5308 C5310 1.419 . S
C5309 C5304 1.444 . S
C5309 C5306 1.446 . S
C5309 C5307 1.361 1_556 S
C5310 H5300 0.930 . S
C5310 C5308 1.419 . S
C5310 C5311 1.362 . S
C5311 H5301 0.930 . S
C5311 C5304 1.409 1_554 S
C5311 C5310 1.362 . S
H5312 C5318 0.930 . S
H5313 C5321 0.930 . S
H5314 C5322 0.935 . S
H5315 C5323 0.930 . S
H5316 C5326 0.930 . S
H5317 C5327 0.930 . S
C5318 H5312 0.930 . S
C5318 C5319 1.355 . S
C5318 C5320 1.387 1_554 S
C5319 C5318 1.355 . S
C5319 C5321 1.419 . S
C5320 C5318 1.387 1_556 S
C5320 C5325 1.436 . S
C5320 C5327 1.427 . S
C5321 H5313 0.930 . S
C5321 C5319 1.419 . S
C5321 C5322 1.362 . S
C5322 H5314 0.935 . S
C5322 C5321 1.362 . S
C5322 C5325 1.409 1_554 S
C5323 H5315 0.930 . S
C5323 C5324 1.355 . S
C5323 C5325 1.415 . S
C5324 C5323 1.355 . S
C5324 C5326 1.419 . S
C5325 C5320 1.436 . S
C5325 C5322 1.409 1_556 S
C5325 C5323 1.415 . S
C5326 H5316 0.930 . S
C5326 C5324 1.419 . S
C5326 C5327 1.362 . S
C5327 H5317 0.930 . S
C5327 C5320 1.427 . S
C5327 C5326 1.362 . S
H5328 C5334 0.930 . S
H5329 C5337 0.930 . S
H5330 C5338 0.930 . S
H5331 C5339 0.930 . S
H5332 C5342 0.930 . S
H5333 C5343 0.930 . S
C5334 H5328 0.930 . S
C5334 C5335 1.355 . S
C5334 C5336 1.415 . S
C5335 C5334 1.355 . S
C5335 C5337 1.419 . S
C5336 C5334 1.415 . S
C5336 C5341 1.445 . S
C5336 C5343 1.409 1_554 S
C5337 H5329 0.930 . S
C5337 C5335 1.419 . S
C5337 C5338 1.362 . S
C5338 H5330 0.930 . S
C5338 C5337 1.362 . S
C5338 C5341 1.450 . S
C5339 H5331 0.930 . S
C5339 C5340 1.355 . S
C5339 C5341 1.356 1_556 S
C5340 C5339 1.355 . S
C5340 C5342 1.419 . S
C5341 C5336 1.445 . S
C5341 C5338 1.450 . S
C5341 C5339 1.356 1_554 S
C5342 H5332 0.930 . S
C5342 C5340 1.419 . S
C5342 C5343 1.362 . S
C5343 H5333 0.930 . S
C5343 C5336 1.409 1_556 S
C5343 C5342 1.362 . S
H5344 C5350 0.930 . S
H5345 C5353 0.930 . S
H5346 C5354 0.954 . S
H5347 C5355 0.930 . S
H5348 C5358 0.930 . S
H5349 C5359 0.930 . S
C5350 H5344 0.930 . S
C5350 C5351 1.355 . S
C5350 C5352 1.378 1_556 S
C5351 C5350 1.355 . S
C5351 C5353 1.419 . S
C5352 C5350 1.378 1_554 S
C5352 C5357 1.439 . S
C5352 C5359 1.434 . S
C5353 H5345 0.930 . S
C5353 C5351 1.419 . S
C5353 C5354 1.362 . S
C5354 H5346 0.954 . S
C5354 C5353 1.362 . S
C5354 C5357 1.409 1_556 S
C5355 H5347 0.930 . S
C5355 C5356 1.355 . S
C5355 C5357 1.415 . S
C5356 C5355 1.355 . S
C5356 C5358 1.419 . S
C5357 C5352 1.439 . S
C5357 C5354 1.409 1_554 S
C5357 C5355 1.415 . S
C5358 H5348 0.930 . S
C5358 C5356 1.419 . S
C5358 C5359 1.362 . S
C5359 H5349 0.930 . S
C5359 C5352 1.434 . S
C5359 C5358 1.362 . S
H5360 C5366 0.930 . S
H5361 C5369 0.930 . S
H5362 C5370 0.930 . S
H5363 C5371 0.930 . S
H5364 C5374 0.930 . S
H5365 C5375 0.930 . S
C5366 H5360 0.930 . S
C5366 C5367 1.355 . S
C5366 C5368 1.415 1_556 S
C5367 C5366 1.355 . S
C5367 C5369 1.419 . S
C5368 C5366 1.415 1_554 S
C5368 C5373 1.425 . S
C5368 C5375 1.409 . S
C5369 H5361 0.930 . S
C5369 C5367 1.419 . S
C5369 C5370 1.362 . S
C5370 H5362 0.930 . S
C5370 C5369 1.362 . S
C5370 C5373 1.409 1_556 S
C5371 H5363 0.930 . S
C5371 C5372 1.355 . S
C5371 C5373 1.415 . S
C5372 C5371 1.355 . S
C5372 C5374 1.419 . S
C5373 C5368 1.425 . S
C5373 C5370 1.409 1_554 S
C5373 C5371 1.415 . S
C5374 H5364 0.930 . S
C5374 C5372 1.419 . S
C5374 C5375 1.362 . S
C5375 H5365 0.930 . S
C5375 C5368 1.409 . S
C5375 C5374 1.362 . S
H5376 C5382 0.930 . S
H5377 C5385 0.930 . S
H5378 C5386 0.930 . S
H5379 C5387 0.930 . S
H5380 C5390 0.930 . S
H5381 C5391 0.930 . S
C5382 H5376 0.930 . S
C5382 C5383 1.355 . S
C5382 C5384 1.415 . S
C5383 C5382 1.355 . S
C5383 C5385 1.419 . S
C5384 C5382 1.415 . S
C5384 C5389 1.425 . S
C5384 C5391 1.409 . S
C5385 H5377 0.930 . S
C5385 C5383 1.419 . S
C5385 C5386 1.362 . S
C5386 H5378 0.930 . S
C5386 C5385 1.362 . S
C5386 C5389 1.409 . S
C5387 H5379 0.930 . S
C5387 C5388 1.355 . S
C5387 C5389 1.415 . S
C5388 C5387 1.355 . S
C5388 C5390 1.419 . S
C5389 C5384 1.425 . S
C5389 C5386 1.409 . S
C5389 C5387 1.415 . S
C5390 H5380 0.930 . S
C5390 C5388 1.419 . S
C5390 C5391 1.362 . S
C5391 H5381 0.930 . S
C5391 C5384 1.409 . S
C5391 C5390 1.362 . S
H5392 C5398 0.930 . S
H5393 C5401 0.930 . S
H5394 C5402 0.930 . S
H5395 C5403 0.930 . S
H5396 C5406 0.930 . S
H5397 C5407 0.930 . S
C5398 H5392 0.930 . S
C5398 C5399 1.355 . S
C5398 C5400 1.415 . S
C5399 C5398 1.355 . S
C5399 C5401 1.419 . S
C5400 C5398 1.415 . S
C5400 C5405 1.425 . S
C5400 C5407 1.409 . S
C5401 H5393 0.930 . S
C5401 C5399 1.419 . S
C5401 C5402 1.362 . S
C5402 H5394 0.930 . S
C5402 C5401 1.362 . S
C5402 C5405 1.409 . S
C5403 H5395 0.930 . S
C5403 C5404 1.355 . S
C5403 C5405 1.415 . S
C5404 C5403 1.355 . S
C5404 C5406 1.419 . S
C5405 C5400 1.425 . S
C5405 C5402 1.409 . S
C5405 C5403 1.415 . S
C5406 H5396 0.930 . S
C5406 C5404 1.419 . S
C5406 C5407 1.362 . S
C5407 H5397 0.930 . S
C5407 C5400 1.409 . S
C5407 C5406 1.362 . S
H5408 C5414 0.930 . S
H5409 C5417 0.930 . S
H5410 C5418 0.930 . S
H5411 C5419 0.930 . S
H5412 C5422 0.930 . S
H5413 C5423 0.930 . S
C5414 H5408 0.930 . S
C5414 C5415 1.355 . S
C5414 C5416 1.415 . S
C5415 C5414 1.355 . S
C5415 C5417 1.419 . S
C5416 C5414 1.415 . S
C5416 C5421 1.425 . S
C5416 C5423 1.409 . S
C5417 H5409 0.930 . S
C5417 C5415 1.419 . S
C5417 C5418 1.362 . S
C5418 H5410 0.930 . S
C5418 C5417 1.362 . S
C5418 C5421 1.409 . S
C5419 H5411 0.930 . S
C5419 C5420 1.355 . S
C5419 C5421 1.415 . S
C5420 C5419 1.355 . S
C5420 C5422 1.419 . S
C5421 C5416 1.425 . S
C5421 C5418 1.409 . S
C5421 C5419 1.415 . S
C5422 H5412 0.930 . S
C5422 C5420 1.419 . S
C5422 C5423 1.362 . S
C5423 H5413 0.930 . S
C5423 C5416 1.409 . S
C5423 C5422 1.362 . S
H5424 C5430 0.930 . S
H5425 C5433 0.930 . S
H5426 C5434 0.930 . S
H5427 C5435 0.930 . S
H5428 C5438 0.930 . S
H5429 C5439 0.930 . S
C5430 H5424 0.930 . S
C5430 C5431 1.355 . S
C5430 C5432 1.415 . S
C5431 C5430 1.355 . S
C5431 C5433 1.419 . S
C5432 C5430 1.415 . S
C5432 C5437 1.425 . S
C5432 C5439 1.409 . S
C5433 H5425 0.930 . S
C5433 C5431 1.419 . S
C5433 C5434 1.362 . S
C5434 H5426 0.930 . S
C5434 C5433 1.362 . S
C5434 C5437 1.409 . S
C5435 H5427 0.930 . S
C5435 C5436 1.355 . S
C5435 C5437 1.415 . S
C5436 C5435 1.355 . S
C5436 C5438 1.419 . S
C5437 C5432 1.425 . S
C5437 C5434 1.409 . S
C5437 C5435 1.415 . S
C5438 H5428 0.930 . S
C5438 C5436 1.419 . S
C5438 C5439 1.362 . S
C5439 H5429 0.930 . S
C5439 C5432 1.409 . S
C5439 C5438 1.362 . S
H5440 C5446 0.930 . S
H5441 C5449 0.930 . S
H5442 C5450 0.930 . S
H5443 C5451 0.930 . S
H5444 C5454 0.930 . S
H5445 C5455 0.930 . S
C5446 H5440 0.930 . S
C5446 C5447 1.355 . S
C5446 C5448 1.415 . S
C5447 C5446 1.355 . S
C5447 C5449 1.419 . S
C5448 C5446 1.415 . S
C5448 C5453 1.425 . S
C5448 C5455 1.409 . S
C5449 H5441 0.930 . S
C5449 C5447 1.419 . S
C5449 C5450 1.362 . S
C5450 H5442 0.930 . S
C5450 C5449 1.362 . S
C5450 C5453 1.409 . S
C5451 H5443 0.930 . S
C5451 C5452 1.355 . S
C5451 C5453 1.415 . S
C5452 C5451 1.355 . S
C5452 C5454 1.419 . S
C5453 C5448 1.425 . S
C5453 C5450 1.409 . S
C5453 C5451 1.415 . S
C5454 H5444 0.930 . S
C5454 C5452 1.419 . S
C5454 C5455 1.362 . S
C5455 H5445 0.930 . S
C5455 C5448 1.409 . S
C5455 C5454 1.362 . S
H5456 C5462 0.930 . S
H5457 C5465 0.930 . S
H5458 C5466 0.930 . S
H5459 C5467 0.930 . S
H5460 C5470 0.930 . S
H5461 C5471 0.930 . S
C5462 H5456 0.930 . S
C5462 C5463 1.355 . S
C5462 C5464 1.415 . S
C5463 C5462 1.355 . S
C5463 C5465 1.419 . S
C5464 C5462 1.415 . S
C5464 C5469 1.425 . S
C5464 C5471 1.409 . S
C5465 H5457 0.930 . S
C5465 C5463 1.419 . S
C5465 C5466 1.362 . S
C5466 H5458 0.930 . S
C5466 C5465 1.362 . S
C5466 C5469 1.409 . S
C5467 H5459 0.930 . S
C5467 C5468 1.355 . S
C5467 C5469 1.415 . S
C5468 C5467 1.355 . S
C5468 C5470 1.419 . S
C5469 C5464 1.425 . S
C5469 C5466 1.409 . S
C5469 C5467 1.415 . S
C5470 H5460 0.930 . S
C5470 C5468 1.419 . S
C5470 C5471 1.362 . S
C5471 H5461 0.930 . S
C5471 C5464 1.409 . S
C5471 C5470 1.362 . S
H5472 C5478 0.930 . S
H5473 C5481 0.930 . S
H5474 C5482 0.930 . S
H5475 C5483 0.930 . S
H5476 C5486 0.930 . S
H5477 C5487 0.930 . S
C5478 H5472 0.930 . S
C5478 C5479 1.355 . S
C5478 C5480 1.415 . S
C5479 C5478 1.355 . S
C5479 C5481 1.419 . S
C5480 C5478 1.415 . S
C5480 C5485 1.425 . S
C5480 C5487 1.409 . S
C5481 H5473 0.930 . S
C5481 C5479 1.419 . S
C5481 C5482 1.362 . S
C5482 H5474 0.930 . S
C5482 C5481 1.362 . S
C5482 C5485 1.409 . S
C5483 H5475 0.930 . S
C5483 C5484 1.355 . S
C5483 C5485 1.415 . S
C5484 C5483 1.355 . S
C5484 C5486 1.419 . S
C5485 C5480 1.425 . S
C5485 C5482 1.409 . S
C5485 C5483 1.415 . S
C5486 H5476 0.930 . S
C5486 C5484 1.419 . S
C5486 C5487 1.362 . S
C5487 H5477 0.930 . S
C5487 C5480 1.409 . S
C5487 C5486 1.362 . S
H5488 C5494 0.930 . S
H5489 C5497 0.930 . S
H5490 C5498 0.930 . S
H5491 C5499 0.930 . S
H5492 C5502 0.930 . S
H5493 C5503 0.930 . S
C5494 H5488 0.930 . S
C5494 C5495 1.355 . S
C5494 C5496 1.415 . S
C5495 C5494 1.355 . S
C5495 C5497 1.419 . S
C5496 C5494 1.415 . S
C5496 C5501 1.425 . S
C5496 C5503 1.409 . S
C5497 H5489 0.930 . S
C5497 C5495 1.419 . S
C5497 C5498 1.362 . S
C5498 H5490 0.930 . S
C5498 C5497 1.362 . S
C5498 C5501 1.409 . S
C5499 H5491 0.930 . S
C5499 C5500 1.355 . S
C5499 C5501 1.415 . S
C5500 C5499 1.355 . S
C5500 C5502 1.419 . S
C5501 C5496 1.425 . S
C5501 C5498 1.409 . S
C5501 C5499 1.415 . S
C5502 H5492 0.930 . S
C5502 C5500 1.419 . S
C5502 C5503 1.362 . S
C5503 H5493 0.930 . S
C5503 C5496 1.409 . S
C5503 C5502 1.362 . S
H5504 C5510 0.930 . S
H5505 C5513 0.930 . S
H5506 C5514 0.930 . S
H5507 C5515 0.930 . S
H5508 C5518 0.930 . S
H5509 C5519 0.930 . S
C5510 H5504 0.930 . S
C5510 C5511 1.355 . S
C5510 C5512 1.415 . S
C5511 C5510 1.355 . S
C5511 C5513 1.419 . S
C5512 C5510 1.415 . S
C5512 C5517 1.425 . S
C5512 C5519 1.409 . S
C5513 H5505 0.930 . S
C5513 C5511 1.419 . S
C5513 C5514 1.362 . S
C5514 H5506 0.930 . S
C5514 C5513 1.362 . S
C5514 C5517 1.409 . S
C5515 H5507 0.930 . S
C5515 C5516 1.355 . S
C5515 C5517 1.415 . S
C5516 C5515 1.355 . S
C5516 C5518 1.419 . S
C5517 C5512 1.425 . S
C5517 C5514 1.409 . S
C5517 C5515 1.415 . S
C5518 H5508 0.930 . S
C5518 C5516 1.419 . S
C5518 C5519 1.362 . S
C5519 H5509 0.930 . S
C5519 C5512 1.409 . S
C5519 C5518 1.362 . S
H5520 C5526 0.930 . S
H5521 C5529 0.930 . S
H5522 C5530 0.930 . S
H5523 C5531 0.930 . S
H5524 C5534 0.930 . S
H5525 C5535 0.930 . S
C5526 H5520 0.930 . S
C5526 C5527 1.355 . S
C5526 C5528 1.415 . S
C5527 C5526 1.355 . S
C5527 C5529 1.419 . S
C5528 C5526 1.415 . S
C5528 C5533 1.425 . S
C5528 C5535 1.409 . S
C5529 H5521 0.930 . S
C5529 C5527 1.419 . S
C5529 C5530 1.362 . S
C5530 H5522 0.930 . S
C5530 C5529 1.362 . S
C5530 C5533 1.409 . S
C5531 H5523 0.930 . S
C5531 C5532 1.355 . S
C5531 C5533 1.415 . S
C5532 C5531 1.355 . S
C5532 C5534 1.419 . S
C5533 C5528 1.425 . S
C5533 C5530 1.409 . S
C5533 C5531 1.415 . S
C5534 H5524 0.930 . S
C5534 C5532 1.419 . S
C5534 C5535 1.362 . S
C5535 H5525 0.930 . S
C5535 C5528 1.409 . S
C5535 C5534 1.362 . S
H5536 C5542 0.930 . S
H5537 C5545 0.930 . S
H5538 C5546 0.930 . S
H5539 C5547 0.930 . S
H5540 C5550 0.930 . S
H5541 C5551 0.930 . S
C5542 H5536 0.930 . S
C5542 C5543 1.355 . S
C5542 C5544 1.415 . S
C5543 C5542 1.355 . S
C5543 C5545 1.419 . S
C5544 C5542 1.415 . S
C5544 C5549 1.425 . S
C5544 C5551 1.409 . S
C5545 H5537 0.930 . S
C5545 C5543 1.419 . S
C5545 C5546 1.362 . S
C5546 H5538 0.930 . S
C5546 C5545 1.362 . S
C5546 C5549 1.409 . S
C5547 H5539 0.930 . S
C5547 C5548 1.355 . S
C5547 C5549 1.415 . S
C5548 C5547 1.355 . S
C5548 C5550 1.419 . S
C5549 C5544 1.425 . S
C5549 C5546 1.409 . S
C5549 C5547 1.415 . S
C5550 H5540 0.930 . S
C5550 C5548 1.419 . S
C5550 C5551 1.362 . S
C5551 H5541 0.930 . S
C5551 C5544 1.409 . S
C5551 C5550 1.362 . S
H5552 C5558 0.930 . S
H5553 C5561 0.930 . S
H5554 C5562 0.930 . S
H5555 C5563 0.930 . S
H5556 C5566 0.930 . S
H5557 C5567 0.930 . S
C5558 H5552 0.930 . S
C5558 C5559 1.355 . S
C5558 C5560 1.415 . S
C5559 C5558 1.355 . S
C5559 C5561 1.419 . S
C5560 C5558 1.415 . S
C5560 C5565 1.425 . S
C5560 C5567 1.409 . S
C5561 H5553 0.930 . S
C5561 C5559 1.419 . S
C5561 C5562 1.362 . S
C5562 H5554 0.930 . S
C5562 C5561 1.362 . S
C5562 C5565 1.409 . S
C5563 H5555 0.930 . S
C5563 C5564 1.355 . S
C5563 C5565 1.415 . S
C5564 C5563 1.355 . S
C5564 C5566 1.419 . S
C5565 C5560 1.425 . S
C5565 C5562 1.409 . S
C5565 C5563 1.415 . S
C5566 H5556 0.930 . S
C5566 C5564 1.419 . S
C5566 C5567 1.362 . S
C5567 H5557 0.930 . S
C5567 C5560 1.409 . S
C5567 C5566 1.362 . S
H5568 C5574 0.930 . S
H5569 C5577 0.930 . S
H5570 C5578 0.930 . S
H5571 C5579 0.930 . S
H5572 C5582 0.930 . S
H5573 C5583 0.930 . S
C5574 H5568 0.930 . S
C5574 C5575 1.355 . S
C5574 C5576 1.415 . S
C5575 C5574 1.355 . S
C5575 C5577 1.419 . S
C5576 C5574 1.415 . S
C5576 C5581 1.425 . S
C5576 C5583 1.409 . S
C5577 H5569 0.930 . S
C5577 C5575 1.419 . S
C5577 C5578 1.362 . S
C5578 H5570 0.930 . S
C5578 C5577 1.362 . S
C5578 C5581 1.409 . S
C5579 H5571 0.930 . S
C5579 C5580 1.355 . S
C5579 C5581 1.415 . S
C5580 C5579 1.355 . S
C5580 C5582 1.419 . S
C5581 C5576 1.425 . S
C5581 C5578 1.409 . S
C5581 C5579 1.415 . S
C5582 H5572 0.930 . S
C5582 C5580 1.419 . S
C5582 C5583 1.362 . S
C5583 H5573 0.930 . S
C5583 C5576 1.409 . S
C5583 C5582 1.362 . S
H5584 C5590 0.930 . S
H5585 C5593 0.930 . S
H5586 C5594 0.930 . S
H5587 C5595 0.930 . S
H5588 C5598 0.930 . S
H5589 C5599 0.930 . S
C5590 H5584 0.930 . S
C5590 C5591 1.355 . S
C5590 C5592 1.415 . S
C5591 C5590 1.355 . S
C5591 C5593 1.419 . S
C5592 C5590 1.415 . S
C5592 C5597 1.425 . S
C5592 C5599 1.409 . S
C5593 H5585 0.930 . S
C5593 C5591 1.419 . S
C5593 C5594 1.362 . S
C5594 H5586 0.930 . S
C5594 C5593 1.362 . S
C5594 C5597 1.409 . S
C5595 H5587 0.930 . S
C5595 C5596 1.355 . S
C5595 C5597 1.415 . S
C5596 C5595 1.355 . S
C5596 C5598 1.419 . S
C5597 C5592 1.425 . S
C5597 C5594 1.409 . S
C5597 C5595 1.415 . S
C5598 H5588 0.930 . S
C5598 C5596 1.419 . S
C5598 C5599 1.362 . S
C5599 H5589 0.930 . S
C5599 C5592 1.409 . S
C5599 C5598 1.362 . S
H5600 C5606 0.930 . S
H5601 C5609 0.930 . S
H5602 C5610 0.930 . S
H5603 C5611 0.930 . S
H5604 C5614 0.930 . S
H5605 C5615 0.930 . S
C5606 H5600 0.930 . S
C5606 C5607 1.355 . S
C5606 C5608 1.415 . S
C5607 C5606 1.355 . S
C5607 C5609 1.419 . S
C5608 C5606 1.415 . S
C5608 C5613 1.425 . S
C5608 C5615 1.409 . S
C5609 H5601 0.930 . S
C5609 C5607 1.419 . S
C5609 C5610 1.362 . S
C5610 H5602 0.930 . S
C5610 C5609 1.362 . S
C5610 C5613 1.409 . S
C5611 H5603 0.930 . S
C5611 C5612 1.355 . S
C5611 C5613 1.415 . S
C5612 C5611 1.355 . S
C5612 C5614 1.419 . S
C5613 C5608 1.425 . S
C5613 C5610 1.409 . S
C5613 C5611 1.415 . S
C5614 H5604 0.930 . S
C5614 C5612 1.419 . S
C5614 C5615 1.362 . S
C5615 H5605 0.930 . S
C5615 C5608 1.409 . S
C5615 C5614 1.362 . S
H5616 C5622 0.930 . S
H5617 C5625 0.930 . S
H5618 C5626 0.930 . S
H5619 C5627 0.930 . S
H5620 C5630 0.930 . S
H5621 C5631 0.930 . S
C5622 H5616 0.930 . S
C5622 C5623 1.355 . S
C5622 C5624 1.415 . S
C5623 C5622 1.355 . S
C5623 C5625 1.419 . S
C5624 C5622 1.415 . S
C5624 C5629 1.425 . S
C5624 C5631 1.409 . S
C5625 H5617 0.930 . S
C5625 C5623 1.419 . S
C5625 C5626 1.362 . S
C5626 H5618 0.930 . S
C5626 C5625 1.362 . S
C5626 C5629 1.409 . S
C5627 H5619 0.930 . S
C5627 C5628 1.355 . S
C5627 C5629 1.415 . S
C5628 C5627 1.355 . S
C5628 C5630 1.419 . S
C5629 C5624 1.425 . S
C5629 C5626 1.409 . S
C5629 C5627 1.415 . S
C5630 H5620 0.930 . S
C5630 C5628 1.419 . S
C5630 C5631 1.362 . S
C5631 H5621 0.930 . S
C5631 C5624 1.409 . S
C5631 C5630 1.362 . S
H5632 C5638 0.930 . S
H5633 C5641 0.930 . S
H5634 C5642 0.930 . S
H5635 C5643 0.930 . S
H5636 C5646 0.930 . S
H5637 C5647 0.930 . S
C5638 H5632 0.930 . S
C5638 C5639 1.355 . S
C5638 C5640 1.415 . S
C5639 C5638 1.355 . S
C5639 C5641 1.419 . S
C5640 C5638 1.415 . S
C5640 C5645 1.425 . S
C5640 C5647 1.409 . S
C5641 H5633 0.930 . S
C5641 C5639 1.419 . S
C5641 C5642 1.362 . S
C5642 H5634 0.930 . S
C5642 C5641 1.362 . S
C5642 C5645 1.409 . S
C5643 H5635 0.930 . S
C5643 C5644 1.355 . S
C5643 C5645 1.415 . S
C5644 C5643 1.355 . S
C5644 C5646 1.419 . S
C5645 C5640 1.425 . S
C5645 C5642 1.409 . S
C5645 C5643 1.415 . S
C5646 H5636 0.930 . S
C5646 C5644 1.419 . S
C5646 C5647 1.362 . S
C5647 H5637 0.930 . S
C5647 C5640 1.409 . S
C5647 C5646 1.362 . S
H5648 C5654 0.930 . S
H5649 C5657 0.930 . S
H5650 C5658 0.930 . S
H5651 C5659 0.930 . S
H5652 C5662 0.930 . S
H5653 C5663 0.930 . S
C5654 H5648 0.930 . S
C5654 C5655 1.355 . S
C5654 C5656 1.415 . S
C5655 C5654 1.355 . S
C5655 C5657 1.419 . S
C5656 C5654 1.415 . S
C5656 C5661 1.425 . S
C5656 C5663 1.409 . S
C5657 H5649 0.930 . S
C5657 C5655 1.419 . S
C5657 C5658 1.362 . S
C5658 H5650 0.930 . S
C5658 C5657 1.362 . S
C5658 C5661 1.409 . S
C5659 H5651 0.930 . S
C5659 C5660 1.355 . S
C5659 C5661 1.415 . S
C5660 C5659 1.355 . S
C5660 C5662 1.419 . S
C5661 C5656 1.425 . S
C5661 C5658 1.409 . S
C5661 C5659 1.415 . S
C5662 H5652 0.930 . S
C5662 C5660 1.419 . S
C5662 C5663 1.362 . S
C5663 H5653 0.930 . S
C5663 C5656 1.409 . S
C5663 C5662 1.362 . S
H5664 C5670 0.930 . S
H5665 C5673 0.930 . S
H5666 C5674 0.930 . S
H5667 C5675 0.930 . S
H5668 C5678 0.930 . S
H5669 C5679 0.930 . S
C5670 H5664 0.930 . S
C5670 C5671 1.355 . S
C5670 C5672 1.415 . S
C5671 C5670 1.355 . S
C5671 C5673 1.419 . S
C5672 C5670 1.415 . S
C5672 C5677 1.425 . S
C5672 C5679 1.409 . S
C5673 H5665 0.930 . S
C5673 C5671 1.419 . S
C5673 C5674 1.362 . S
C5674 H5666 0.930 . S
C5674 C5673 1.362 . S
C5674 C5677 1.409 . S
C5675 H5667 0.930 . S
C5675 C5676 1.355 . S
C5675 C5677 1.415 . S
C5676 C5675 1.355 . S
C5676 C5678 1.419 . S
C5677 C5672 1.425 . S
C5677 C5674 1.409 . S
C5677 C5675 1.415 . S
C5678 H5668 0.930 . S
C5678 C5676 1.419 . S
C5678 C5679 1.362 . S
C5679 H5669 0.930 . S
C5679 C5672 1.409 . S
C5679 C5678 1.362 . S
H5680 C5686 0.930 . S
H5681 C5689 0.930 . S
H5682 C5690 0.930 . S
H5683 C5691 0.930 . S
H5684 C5694 0.930 . S
H5685 C5695 0.930 . S
C5686 H5680 0.930 . S
C5686 C5687 1.355 . S
C5686 C5688 1.415 . S
C5687 C5686 1.355 . S
C5687 C5689 1.419 . S
C5688 C5686 1.415 . S
C5688 C5693 1.425 . S
C5688 C5695 1.409 . S
C5689 H5681 0.930 . S
C5689 C5687 1.419 . S
C5689 C5690 1.362 . S
C5690 H5682 0.930 . S
C5690 C5689 1.362 . S
C5690 C5693 1.409 . S
C5691 H5683 0.930 . S
C5691 C5692 1.355 . S
C5691 C5693 1.415 . S
C5692 C5691 1.355 . S
C5692 C5694 1.419 . S
C5693 C5688 1.425 . S
C5693 C5690 1.409 . S
C5693 C5691 1.415 . S
C5694 H5684 0.930 . S
C5694 C5692 1.419 . S
C5694 C5695 1.362 . S
C5695 H5685 0.930 . S
C5695 C5688 1.409 . S
C5695 C5694 1.362 . S
H5696 C5702 0.930 . S
H5697 C5705 0.930 . S
H5698 C5706 0.930 . S
H5699 C5707 0.930 . S
H5700 C5710 0.930 . S
H5701 C5711 0.930 . S
C5702 H5696 0.930 . S
C5702 C5703 1.355 . S
C5702 C5704 1.415 . S
C5703 C5702 1.355 . S
C5703 C5705 1.419 . S
C5704 C5702 1.415 . S
C5704 C5709 1.425 . S
C5704 C5711 1.409 . S
C5705 H5697 0.930 . S
C5705 C5703 1.419 . S
C5705 C5706 1.362 . S
C5706 H5698 0.930 . S
C5706 C5705 1.362 . S
C5706 C5709 1.409 . S
C5707 H5699 0.930 . S
C5707 C5708 1.355 . S
C5707 C5709 1.415 . S
C5708 C5707 1.355 . S
C5708 C5710 1.419 . S
C5709 C5704 1.425 . S
C5709 C5706 1.409 . S
C5709 C5707 1.415 . S
C5710 H5700 0.930 . S
C5710 C5708 1.419 . S
C5710 C5711 1.362 . S
C5711 H5701 0.930 . S
C5711 C5704 1.409 . S
C5711 C5710 1.362 . S
H5712 C5718 0.930 . S
H5713 C5721 0.930 . S
H5714 C5722 0.930 . S
H5715 C5723 0.930 . S
H5716 C5726 0.930 . S
H5717 C5727 0.930 . S
C5718 H5712 0.930 . S
C5718 C5719 1.355 . S
C5718 C5720 1.415 . S
C5719 C5718 1.355 . S
C5719 C5721 1.419 . S
C5720 C5718 1.415 . S
C5720 C5725 1.425 . S
C5720 C5727 1.409 . S
C5721 H5713 0.930 . S
C5721 C5719 1.419 . S
C5721 C5722 1.362 . S
C5722 H5714 0.930 . S
C5722 C5721 1.362 . S
C5722 C5725 1.409 . S
C5723 H5715 0.930 . S
C5723 C5724 1.355 . S
C5723 C5725 1.415 . S
C5724 C5723 1.355 . S
C5724 C5726 1.419 . S
C5725 C5720 1.425 . S
C5725 C5722 1.409 . S
C5725 C5723 1.415 . S
C5726 H5716 0.930 . S
C5726 C5724 1.419 . S
C5726 C5727 1.362 . S
C5727 H5717 0.930 . S
C5727 C5720 1.409 . S
C5727 C5726 1.362 . S
H5728 C5734 0.930 . S
H5729 C5737 0.930 . S
H5730 C5738 0.930 . S
H5731 C5739 0.930 . S
H5732 C5742 0.930 . S
H5733 C5743 0.930 . S
C5734 H5728 0.930 . S
C5734 C5735 1.355 . S
C5734 C5736 1.415 . S
C5735 C5734 1.355 . S
C5735 C5737 1.419 . S
C5736 C5734 1.415 . S
C5736 C5741 1.425 . S
C5736 C5743 1.409 . S
C5737 H5729 0.930 . S
C5737 C5735 1.419 . S
C5737 C5738 1.362 . S
C5738 H5730 0.930 . S
C5738 C5737 1.362 . S
C5738 C5741 1.409 . S
C5739 H5731 0.930 . S
C5739 C5740 1.355 . S
C5739 C5741 1.415 . S
C5740 C5739 1.355 . S
C5740 C5742 1.419 . S
C5741 C5736 1.425 . S
C5741 C5738 1.409 . S
C5741 C5739 1.415 . S
C5742 H5732 0.930 . S
C5742 C5740 1.419 . S
C5742 C5743 1.362 . S
C5743 H5733 0.930 . S
C5743 C5736 1.409 . S
C5743 C5742 1.362 . S
H5744 C5750 0.930 . S
H5745 C5753 0.930 . S
H5746 C5754 0.930 . S
H5747 C5755 0.930 . S
H5748 C5758 0.930 . S
H5749 C5759 0.930 . S
C5750 H5744 0.930 . S
C5750 C5751 1.355 . S
C5750 C5752 1.415 . S
C5751 C5750 1.355 . S
C5751 C5753 1.419 . S
C5752 C5750 1.415 . S
C5752 C5757 1.425 . S
C5752 C5759 1.409 . S
C5753 H5745 0.930 . S
C5753 C5751 1.419 . S
C5753 C5754 1.362 . S
C5754 H5746 0.930 . S
C5754 C5753 1.362 . S
C5754 C5757 1.409 . S
C5755 H5747 0.930 . S
C5755 C5756 1.355 . S
C5755 C5757 1.415 . S
C5756 C5755 1.355 . S
C5756 C5758 1.419 . S
C5757 C5752 1.425 . S
C5757 C5754 1.409 . S
C5757 C5755 1.415 . S
C5758 H5748 0.930 . S
C5758 C5756 1.419 . S
C5758 C5759 1.362 . S
C5759 H5749 0.930 . S
C5759 C5752 1.409 . S
C5759 C5758 1.362 . S
H5760 C5766 0.930 . S
H5761 C5769 0.930 . S
H5762 C5770 0.930 . S
H5763 C5771 0.930 . S
H5764 C5774 0.930 . S
H5765 C5775 0.930 . S
C5766 H5760 0.930 . S
C5766 C5767 1.355 . S
C5766 C5768 1.415 . S
C5767 C5766 1.355 . S
C5767 C5769 1.419 . S
C5768 C5766 1.415 . S
C5768 C5773 1.425 . S
C5768 C5775 1.409 . S
C5769 H5761 0.930 . S
C5769 C5767 1.419 . S
C5769 C5770 1.362 . S
C5770 H5762 0.930 . S
C5770 C5769 1.362 . S
C5770 C5773 1.409 . S
C5771 H5763 0.930 . S
C5771 C5772 1.355 . S
C5771 C5773 1.415 . S
C5772 C5771 1.355 . S
C5772 C5774 1.419 . S
C5773 C5768 1.425 . S
C5773 C5770 1.409 . S
C5773 C5771 1.415 . S
C5774 H5764 0.930 . S
C5774 C5772 1.419 . S
C5774 C5775 1.362 . S
C5775 H5765 0.930 . S
C5775 C5768 1.409 . S
C5775 C5774 1.362 . S
H5776 C5782 0.930 . S
H5777 C5785 0.930 . S
H5778 C5786 0.930 . S
H5779 C5787 0.930 . S
H5780 C5790 0.930 . S
H5781 C5791 0.930 . S
C5782 H5776 0.930 . S
C5782 C5783 1.355 . S
C5782 C5784 1.415 . S
C5783 C5782 1.355 . S
C5783 C5785 1.419 . S
C5784 C5782 1.415 . S
C5784 C5789 1.425 . S
C5784 C5791 1.409 . S
C5785 H5777 0.930 . S
C5785 C5783 1.419 . S
C5785 C5786 1.362 . S
C5786 H5778 0.930 . S
C5786 C5785 1.362 . S
C5786 C5789 1.409 . S
C5787 H5779 0.930 . S
C5787 C5788 1.355 . S
C5787 C5789 1.415 . S
C5788 C5787 1.355 . S
C5788 C5790 1.419 . S
C5789 C5784 1.425 . S
C5789 C5786 1.409 . S
C5789 C5787 1.415 . S
C5790 H5780 0.930 . S
C5790 C5788 1.419 . S
C5790 C5791 1.362 . S
C5791 H5781 0.930 . S
C5791 C5784 1.409 . S
C5791 C5790 1.362 . S
H5792 C5798 0.930 . S
H5793 C5801 0.930 . S
H5794 C5802 0.930 . S
H5795 C5803 0.930 . S
H5796 C5806 0.930 . S
H5797 C5807 0.930 . S
C5798 H5792 0.930 . S
C5798 C5799 1.355 . S
C5798 C5800 1.415 . S
C5799 C5798 1.355 . S
C5799 C5801 1.419 . S
C5800 C5798 1.415 . S
C5800 C5805 1.425 . S
C5800 C5807 1.409 . S
C5801 H5793 0.930 . S
C5801 C5799 1.419 . S
C5801 C5802 1.362 . S
C5802 H5794 0.930 . S
C5802 C5801 1.362 . S
C5802 C5805 1.409 . S
C5803 H5795 0.930 . S
C5803 C5804 1.355 . S
C5803 C5805 1.415 . S
C5804 C5803 1.355 . S
C5804 C5806 1.419 . S
C5805 C5800 1.425 . S
C5805 C5802 1.409 . S
C5805 C5803 1.415 . S
C5806 H5796 0.930 . S
C5806 C5804 1.419 . S
C5806 C5807 1.362 . S
C5807 H5797 0.930 . S
C5807 C5800 1.409 . S
C5807 C5806 1.362 . S
H5808 C5814 0.930 . S
H5809 C5817 0.930 . S
H5810 C5818 0.930 . S
H5811 C5819 0.930 . S
H5812 C5822 0.930 . S
H5813 C5823 0.930 . S
C5814 H5808 0.930 . S
C5814 C5815 1.355 . S
C5814 C5816 1.415 . S
C5815 C5814 1.355 . S
C5815 C5817 1.419 . S
C5816 C5814 1.415 . S
C5816 C5821 1.425 . S
C5816 C5823 1.409 . S
C5817 H5809 0.930 . S
C5817 C5815 1.419 . S
C5817 C5818 1.362 . S
C5818 H5810 0.930 . S
C5818 C5817 1.362 . S
C5818 C5821 1.409 . S
C5819 H5811 0.930 . S
C5819 C5820 1.355 . S
C5819 C5821 1.415 . S
C5820 C5819 1.355 . S
C5820 C5822 1.419 . S
C5821 C5816 1.425 . S
C5821 C5818 1.409 . S
C5821 C5819 1.415 . S
C5822 H5812 0.930 . S
C5822 C5820 1.419 . S
C5822 C5823 1.362 . S
C5823 H5813 0.930 . S
C5823 C5816 1.409 . S
C5823 C5822 1.362 . S
H5824 C5830 0.930 . S
H5825 C5833 0.930 . S
H5826 C5834 0.930 . S
H5827 C5835 0.930 . S
H5828 C5838 0.930 . S
H5829 C5839 0.930 . S
C5830 H5824 0.930 . S
C5830 C5831 1.355 . S
C5830 C5832 1.415 . S
C5831 C5830 1.355 . S
C5831 C5833 1.419 . S
C5832 C5830 1.415 . S
C5832 C5837 1.425 . S
C5832 C5839 1.409 . S
C5833 H5825 0.930 . S
C5833 C5831 1.419 . S
C5833 C5834 1.362 . S
C5834 H5826 0.930 . S
C5834 C5833 1.362 . S
C5834 C5837 1.409 . S
C5835 H5827 0.930 . S
C5835 C5836 1.355 . S
C5835 C5837 1.415 . S
C5836 C5835 1.355 . S
C5836 C5838 1.419 . S
C5837 C5832 1.425 . S
C5837 C5834 1.409 . S
C5837 C5835 1.415 . S
C5838 H5828 0.930 . S
C5838 C5836 1.419 . S
C5838 C5839 1.362 . S
C5839 H5829 0.930 . S
C5839 C5832 1.409 . S
C5839 C5838 1.362 . S
H5840 C5846 0.930 . S
H5841 C5849 0.930 . S
H5842 C5850 0.930 . S
H5843 C5851 0.930 . S
H5844 C5854 0.930 . S
H5845 C5855 0.930 . S
C5846 H5840 0.930 . S
C5846 C5847 1.355 . S
C5846 C5848 1.415 . S
C5847 C5846 1.355 . S
C5847 C5849 1.419 . S
C5848 C5846 1.415 . S
C5848 C5853 1.425 . S
C5848 C5855 1.409 . S
C5849 H5841 0.930 . S
C5849 C5847 1.419 . S
C5849 C5850 1.362 . S
C5850 H5842 0.930 . S
C5850 C5849 1.362 . S
C5850 C5853 1.409 . S
C5851 H5843 0.930 . S
C5851 C5852 1.355 . S
C5851 C5853 1.415 . S
C5852 C5851 1.355 . S
C5852 C5854 1.419 . S
C5853 C5848 1.425 . S
C5853 C5850 1.409 . S
C5853 C5851 1.415 . S
C5854 H5844 0.930 . S
C5854 C5852 1.419 . S
C5854 C5855 1.362 . S
C5855 H5845 0.930 . S
C5855 C5848 1.409 . S
C5855 C5854 1.362 . S
H5856 C5862 0.930 . S
H5857 C5865 0.930 . S
H5858 C5866 0.930 . S
H5859 C5867 0.930 . S
H5860 C5870 0.930 . S
H5861 C5871 0.930 . S
C5862 H5856 0.930 . S
C5862 C5863 1.355 . S
C5862 C5864 1.415 . S
C5863 C5862 1.355 . S
C5863 C5865 1.419 . S
C5864 C5862 1.415 . S
C5864 C5869 1.425 . S
C5864 C5871 1.409 . S
C5865 H5857 0.930 . S
C5865 C5863 1.419 . S
C5865 C5866 1.362 . S
C5866 H5858 0.930 . S
C5866 C5865 1.362 . S
C5866 C5869 1.409 . S
C5867 H5859 0.930 . S
C5867 C5868 1.355 . S
C5867 C5869 1.415 . S
C5868 C5867 1.355 . S
C5868 C5870 1.419 . S
C5869 C5864 1.425 . S
C5869 C5866 1.409 . S
C5869 C5867 1.415 . S
C5870 H5860 0.930 . S
C5870 C5868 1.419 . S
C5870 C5871 1.362 . S
C5871 H5861 0.930 . S
C5871 C5864 1.409 . S
C5871 C5870 1.362 . S
H5872 C5878 0.930 . S
H5873 C5881 0.930 . S
H5874 C5882 0.930 . S
H5875 C5883 0.930 . S
H5876 C5886 0.930 . S
H5877 C5887 0.930 . S
C5878 H5872 0.930 . S
C5878 C5879 1.355 . S
C5878 C5880 1.415 . S
C5879 C5878 1.355 . S
C5879 C5881 1.419 . S
C5880 C5878 1.415 . S
C5880 C5885 1.425 . S
C5880 C5887 1.409 . S
C5881 H5873 0.930 . S
C5881 C5879 1.419 . S
C5881 C5882 1.362 . S
C5882 H5874 0.930 . S
C5882 C5881 1.362 . S
C5882 C5885 1.409 . S
C5883 H5875 0.930 . S
C5883 C5884 1.355 . S
C5883 C5885 1.415 . S
C5884 C5883 1.355 . S
C5884 C5886 1.419 . S
C5885 C5880 1.425 . S
C5885 C5882 1.409 . S
C5885 C5883 1.415 . S
C5886 H5876 0.930 . S
C5886 C5884 1.419 . S
C5886 C5887 1.362 . S
C5887 H5877 0.930 . S
C5887 C5880 1.409 . S
C5887 C5886 1.362 . S
H5888 C5894 0.930 . S
H5889 C5897 0.930 . S
H5890 C5898 0.930 . S
H5891 C5899 0.930 . S
H5892 C5902 0.930 . S
H5893 C5903 0.930 . S
C5894 H5888 0.930 . S
C5894 C5895 1.355 . S
C5894 C5896 1.415 . S
C5895 C5894 1.355 . S
C5895 C5897 1.419 . S
C5896 C5894 1.415 . S
C5896 C5901 1.425 . S
C5896 C5903 1.409 . S
C5897 H5889 0.930 . S
C5897 C5895 1.419 . S
C5897 C5898 1.362 . S
C5898 H5890 0.930 . S
C5898 C5897 1.362 . S
C5898 C5901 1.409 . S
C5899 H5891 0.930 . S
C5899 C5900 1.355 . S
C5899 C5901 1.415 . S
C5900 C5899 1.355 . S
C5900 C5902 1.419 . S
C5901 C5896 1.425 . S
C5901 C5898 1.409 . S
C5901 C5899 1.415 . S
C5902 H5892 0.930 . S
C5902 C5900 1.419 . S
C5902 C5903 1.362 . S
C5903 H5893 0.930 . S
C5903 C5896 1.409 . S
C5903 C5902 1.362 . S
H5904 C5910 0.930 . S
H5905 C5913 0.930 . S
H5906 C5914 0.930 . S
H5907 C5915 0.930 . S
H5908 C5918 0.930 . S
H5909 C5919 0.930 . S
C5910 H5904 0.930 . S
C5910 C5911 1.355 . S
C5910 C5912 1.415 . S
C5911 C5910 1.355 . S
C5911 C5913 1.419 . S
C5912 C5910 1.415 . S
C5912 C5917 1.425 . S
C5912 C5919 1.409 . S
C5913 H5905 0.930 . S
C5913 C5911 1.419 . S
C5913 C5914 1.362 . S
C5914 H5906 0.930 . S
C5914 C5913 1.362 . S
C5914 C5917 1.409 . S
C5915 H5907 0.930 . S
C5915 C5916 1.355 . S
C5915 C5917 1.415 . S
C5916 C5915 1.355 . S
C5916 C5918 1.419 . S
C5917 C5912 1.425 . S
C5917 C5914 1.409 . S
C5917 C5915 1.415 . S
C5918 H5908 0.930 . S
C5918 C5916 1.419 . S
C5918 C5919 1.362 . S
C5919 H5909 0.930 . S
C5919 C5912 1.409 . S
C5919 C5918 1.362 . S
H5920 C5926 0.930 . S
H5921 C5929 0.930 . S
H5922 C5930 0.930 . S
H5923 C5931 0.930 . S
H5924 C5934 0.930 . S
H5925 C5935 0.930 . S
C5926 H5920 0.930 . S
C5926 C5927 1.355 . S
C5926 C5928 1.415 . S
C5927 C5926 1.355 . S
C5927 C5929 1.419 . S
C5928 C5926 1.415 . S
C5928 C5933 1.425 . S
C5928 C5935 1.409 . S
C5929 H5921 0.930 . S
C5929 C5927 1.419 . S
C5929 C5930 1.362 . S
C5930 H5922 0.930 . S
C5930 C5929 1.362 . S
C5930 C5933 1.409 . S
C5931 H5923 0.930 . S
C5931 C5932 1.355 . S
C5931 C5933 1.415 . S
C5932 C5931 1.355 . S
C5932 C5934 1.419 . S
C5933 C5928 1.425 . S
C5933 C5930 1.409 . S
C5933 C5931 1.415 . S
C5934 H5924 0.930 . S
C5934 C5932 1.419 . S
C5934 C5935 1.362 . S
C5935 H5925 0.930 . S
C5935 C5928 1.409 . S
C5935 C5934 1.362 . S
H5936 C5942 0.930 . S
H5937 C5945 0.930 . S
H5938 C5946 0.930 . S
H5939 C5947 0.930 . S
H5940 C5950 0.930 . S
H5941 C5951 0.930 . S
C5942 H5936 0.930 . S
C5942 C5943 1.355 . S
C5942 C5944 1.415 . S
C5943 C5942 1.355 . S
C5943 C5945 1.419 . S
C5944 C5942 1.415 . S
C5944 C5949 1.425 . S
C5944 C5951 1.409 . S
C5945 H5937 0.930 . S
C5945 C5943 1.419 . S
C5945 C5946 1.362 . S
C5946 H5938 0.930 . S
C5946 C5945 1.362 . S
C5946 C5949 1.409 . S
C5947 H5939 0.930 . S
C5947 C5948 1.355 . S
C5947 C5949 1.415 . S
C5948 C5947 1.355 . S
C5948 C5950 1.419 . S
C5949 C5944 1.425 . S
C5949 C5946 1.409 . S
C5949 C5947 1.415 . S
C5950 H5940 0.930 . S
C5950 C5948 1.419 . S
C5950 C5951 1.362 . S
C5951 H5941 0.930 . S
C5951 C5944 1.409 . S
C5951 C5950 1.362 . S
H5952 C5958 0.930 . S
H5953 C5961 0.930 . S
H5954 C5962 0.930 . S
H5955 C5963 0.930 . S
H5956 C5966 0.930 . S
H5957 C5967 0.930 . S
C5958 H5952 0.930 . S
C5958 C5959 1.355 . S
C5958 C5960 1.415 . S
C5959 C5958 1.355 . S
C5959 C5961 1.419 . S
C5960 C5958 1.415 . S
C5960 C5965 1.425 . S
C5960 C5967 1.409 . S
C5961 H5953 0.930 . S
C5961 C5959 1.419 . S
C5961 C5962 1.362 . S
C5962 H5954 0.930 . S
C5962 C5961 1.362 . S
C5962 C5965 1.409 . S
C5963 H5955 0.930 . S
C5963 C5964 1.355 . S
C5963 C5965 1.415 . S
C5964 C5963 1.355 . S
C5964 C5966 1.419 . S
C5965 C5960 1.425 . S
C5965 C5962 1.409 . S
C5965 C5963 1.415 . S
C5966 H5956 0.930 . S
C5966 C5964 1.419 . S
C5966 C5967 1.362 . S
C5967 H5957 0.930 . S
C5967 C5960 1.409 . S
C5967 C5966 1.362 . S
H5968 C5974 0.930 . S
H5969 C5977 0.930 . S
H5970 C5978 0.930 . S
H5971 C5979 0.930 . S
H5972 C5982 0.930 . S
H5973 C5983 0.930 . S
C5974 H5968 0.930 . S
C5974 C5975 1.355 . S
C5974 C5976 1.415 . S
C5975 C5974 1.355 . S
C5975 C5977 1.419 . S
C5976 C5974 1.415 . S
C5976 C5981 1.425 . S
C5976 C5983 1.409 . S
C5977 H5969 0.930 . S
C5977 C5975 1.419 . S
C5977 C5978 1.362 . S
C5978 H5970 0.930 . S
C5978 C5977 1.362 . S
C5978 C5981 1.409 . S
C5979 H5971 0.930 . S
C5979 C5980 1.355 . S
C5979 C5981 1.415 . S
C5980 C5979 1.355 . S
C5980 C5982 1.419 . S
C5981 C5976 1.425 . S
C5981 C5978 1.409 . S
C5981 C5979 1.415 . S
C5982 H5972 0.930 . S
C5982 C5980 1.419 . S
C5982 C5983 1.362 . S
C5983 H5973 0.930 . S
C5983 C5976 1.409 . S
C5983 C5982 1.362 . S
H5984 C5990 0.930 . S
H5985 C5993 0.930 . S
H5986 C5994 0.930 . S
H5987 C5995 0.930 . S
H5988 C5998 0.930 . S
H5989 C5999 0.930 . S
C5990 H5984 0.930 . S
C5990 C5991 1.355 . S
C5990 C5992 1.415 . S
C5991 C5990 1.355 . S
C5991 C5993 1.419 . S
C5992 C5990 1.415 . S
C5992 C5997 1.425 . S
C5992 C5999 1.409 . S
C5993 H5985 0.930 . S
C5993 C5991 1.419 . S
C5993 C5994 1.362 . S
C5994 H5986 0.930 . S
C5994 C5993 1.362 . S
C5994 C5997 1.409 . S
C5995 H5987 0.930 . S
C5995 C5996 1.355 . S
C5995 C5997 1.415 . S
C5996 C5995 1.355 . S
C5996 C5998 1.419 . S
C5997 C5992 1.425 . S
C5997 C5994 1.409 . S
C5997 C5995 1.415 . S
C5998 H5988 0.930 . S
C5998 C5996 1.419 . S
C5998 C5999 1.362 . S
C5999 H5989 0.930 . S
C5999 C5992 1.409 . S
C5999 C5998 1.362 . S
H6000 C6006 0.930 . S
H6001 C6009 0.930 . S
H6002 C6010 0.930 . S
H6003 C6011 0.930 . S
H6004 C6014 0.930 . S
H6005 C6015 0.930 . S
C6006 H6000 0.930 . S
C6006 C6007 1.355 . S
C6006 C6008 1.415 . S
C6007 C6006 1.355 . S
C6007 C6009 1.419 . S
C6008 C6006 1.415 . S
C6008 C6013 1.425 . S
C6008 C6015 1.409 . S
C6009 H6001 0.930 . S
C6009 C6007 1.419 . S
C6009 C6010 1.362 . S
C6010 H6002 0.930 . S
C6010 C6009 1.362 . S
C6010 C6013 1.409 . S
C6011 H6003 0.930 . S
C6011 C6012 1.355 . S
C6011 C6013 1.415 . S
C6012 C6011 1.355 . S
C6012 C6014 1.419 . S
C6013 C6008 1.425 . S
C6013 C6010 1.409 . S
C6013 C6011 1.415 . S
C6014 H6004 0.930 . S
C6014 C6012 1.419 . S
C6014 C6015 1.362 . S
C6015 H6005 0.930 . S
C6015 C6008 1.409 . S
C6015 C6014 1.362 . S
H6016 C6022 0.930 . S
H6017 C6025 0.930 . S
H6018 C6026 0.930 . S
H6019 C6027 0.930 . S
H6020 C6030 0.930 . S
H6021 C6031 0.930 . S
C6022 H6016 0.930 . S
C6022 C6023 1.355 . S
C6022 C6024 1.415 . S
C6023 C6022 1.355 . S
C6023 C6025 1.419 . S
C6024 C6022 1.415 . S
C6024 C6029 1.425 . S
C6024 C6031 1.409 . S
C6025 H6017 0.930 . S
C6025 C6023 1.419 . S
C6025 C6026 1.362 . S
C6026 H6018 0.930 . S
C6026 C6025 1.362 . S
C6026 C6029 1.409 . S
C6027 H6019 0.930 . S
C6027 C6028 1.355 . S
C6027 C6029 1.415 . S
C6028 C6027 1.355 . S
C6028 C6030 1.419 . S
C6029 C6024 1.425 . S
C6029 C6026 1.409 . S
C6029 C6027 1.415 . S
C6030 H6020 0.930 . S
C6030 C6028 1.419 . S
C6030 C6031 1.362 . S
C6031 H6021 0.930 . S
C6031 C6024 1.409 . S
C6031 C6030 1.362 . S
H6032 C6038 0.930 . S
H6033 C6041 0.930 . S
H6034 C6042 0.930 . S
H6035 C6043 0.930 . S
H6036 C6046 0.930 . S
H6037 C6047 0.930 . S
C6038 H6032 0.930 . S
C6038 C6039 1.355 . S
C6038 C6040 1.415 . S
C6039 C6038 1.355 . S
C6039 C6041 1.419 . S
C6040 C6038 1.415 . S
C6040 C6045 1.425 . S
C6040 C6047 1.409 . S
C6041 H6033 0.930 . S
C6041 C6039 1.419 . S
C6041 C6042 1.362 . S
C6042 H6034 0.930 . S
C6042 C6041 1.362 . S
C6042 C6045 1.409 . S
C6043 H6035 0.930 . S
C6043 C6044 1.355 . S
C6043 C6045 1.415 . S
C6044 C6043 1.355 . S
C6044 C6046 1.419 . S
C6045 C6040 1.425 . S
C6045 C6042 1.409 . S
C6045 C6043 1.415 . S
C6046 H6036 0.930 . S
C6046 C6044 1.419 . S
C6046 C6047 1.362 . S
C6047 H6037 0.930 . S
C6047 C6040 1.409 . S
C6047 C6046 1.362 . S
H6048 C6054 0.930 . S
H6049 C6057 0.930 . S
H6050 C6058 0.930 . S
H6051 C6059 0.930 . S
H6052 C6062 0.930 . S
H6053 C6063 0.930 . S
C6054 H6048 0.930 . S
C6054 C6055 1.355 . S
C6054 C6056 1.415 . S
C6055 C6054 1.355 . S
C6055 C6057 1.419 . S
C6056 C6054 1.415 . S
C6056 C6061 1.425 . S
C6056 C6063 1.409 . S
C6057 H6049 0.930 . S
C6057 C6055 1.419 . S
C6057 C6058 1.362 . S
C6058 H6050 0.930 . S
C6058 C6057 1.362 . S
C6058 C6061 1.409 . S
C6059 H6051 0.930 . S
C6059 C6060 1.355 . S
C6059 C6061 1.415 . S
C6060 C6059 1.355 . S
C6060 C6062 1.419 . S
C6061 C6056 1.425 . S
C6061 C6058 1.409 . S
C6061 C6059 1.415 . S
C6062 H6052 0.930 . S
C6062 C6060 1.419 . S
C6062 C6063 1.362 . S
C6063 H6053 0.930 . S
C6063 C6056 1.409 . S
C6063 C6062 1.362 . S
H6064 C6070 0.930 . S
H6065 C6073 0.930 . S
H6066 C6074 0.930 . S
H6067 C6075 0.930 . S
H6068 C6078 0.930 . S
H6069 C6079 0.930 . S
C6070 H6064 0.930 . S
C6070 C6071 1.355 . S
C6070 C6072 1.415 . S
C6071 C6070 1.355 . S
C6071 C6073 1.419 . S
C6072 C6070 1.415 . S
C6072 C6077 1.425 . S
C6072 C6079 1.409 . S
C6073 H6065 0.930 . S
C6073 C6071 1.419 . S
C6073 C6074 1.362 . S
C6074 H6066 0.930 . S
C6074 C6073 1.362 . S
C6074 C6077 1.409 . S
C6075 H6067 0.930 . S
C6075 C6076 1.355 . S
C6075 C6077 1.415 . S
C6076 C6075 1.355 . S
C6076 C6078 1.419 . S
C6077 C6072 1.425 . S
C6077 C6074 1.409 . S
C6077 C6075 1.415 . S
C6078 H6068 0.930 . S
C6078 C6076 1.419 . S
C6078 C6079 1.362 . S
C6079 H6069 0.930 . S
C6079 C6072 1.409 . S
C6079 C6078 1.362 . S
H6080 C6086 0.930 . S
H6081 C6089 0.930 . S
H6082 C6090 0.930 . S
H6083 C6091 0.930 . S
H6084 C6094 0.930 . S
H6085 C6095 0.930 . S
C6086 H6080 0.930 . S
C6086 C6087 1.355 . S
C6086 C6088 1.415 . S
C6087 C6086 1.355 . S
C6087 C6089 1.419 . S
C6088 C6086 1.415 . S
C6088 C6093 1.425 . S
C6088 C6095 1.409 . S
C6089 H6081 0.930 . S
C6089 C6087 1.419 . S
C6089 C6090 1.362 . S
C6090 H6082 0.930 . S
C6090 C6089 1.362 . S
C6090 C6093 1.409 . S
C6091 H6083 0.930 . S
C6091 C6092 1.355 . S
C6091 C6093 1.415 . S
C6092 C6091 1.355 . S
C6092 C6094 1.419 . S
C6093 C6088 1.425 . S
C6093 C6090 1.409 . S
C6093 C6091 1.415 . S
C6094 H6084 0.930 . S
C6094 C6092 1.419 . S
C6094 C6095 1.362 . S
C6095 H6085 0.930 . S
C6095 C6088 1.409 . S
C6095 C6094 1.362 . S
H6096 C6102 0.930 . S
H6097 C6105 0.930 . S
H6098 C6106 0.930 . S
H6099 C6107 0.930 . S
H6100 C6110 0.930 . S
H6101 C6111 0.930 . S
C6102 H6096 0.930 . S
C6102 C6103 1.355 . S
C6102 C6104 1.415 . S
C6103 C6102 1.355 . S
C6103 C6105 1.419 . S
C6104 C6102 1.415 . S
C6104 C6109 1.425 . S
C6104 C6111 1.409 . S
C6105 H6097 0.930 . S
C6105 C6103 1.419 . S
C6105 C6106 1.362 . S
C6106 H6098 0.930 . S
C6106 C6105 1.362 . S
C6106 C6109 1.409 . S
C6107 H6099 0.930 . S
C6107 C6108 1.355 . S
C6107 C6109 1.415 . S
C6108 C6107 1.355 . S
C6108 C6110 1.419 . S
C6109 C6104 1.425 . S
C6109 C6106 1.409 . S
C6109 C6107 1.415 . S
C6110 H6100 0.930 . S
C6110 C6108 1.419 . S
C6110 C6111 1.362 . S
C6111 H6101 0.930 . S
C6111 C6104 1.409 . S
C6111 C6110 1.362 . S
H6112 C6118 0.930 . S
H6113 C6121 0.930 . S
H6114 C6122 0.930 . S
H6115 C6123 0.930 . S
H6116 C6126 0.930 . S
H6117 C6127 0.930 . S
C6118 H6112 0.930 . S
C6118 C6119 1.355 . S
C6118 C6120 1.415 . S
C6119 C6118 1.355 . S
C6119 C6121 1.419 . S
C6120 C6118 1.415 . S
C6120 C6125 1.425 . S
C6120 C6127 1.409 . S
C6121 H6113 0.930 . S
C6121 C6119 1.419 . S
C6121 C6122 1.362 . S
C6122 H6114 0.930 . S
C6122 C6121 1.362 . S
C6122 C6125 1.409 . S
C6123 H6115 0.930 . S
C6123 C6124 1.355 . S
C6123 C6125 1.415 . S
C6124 C6123 1.355 . S
C6124 C6126 1.419 . S
C6125 C6120 1.425 . S
C6125 C6122 1.409 . S
C6125 C6123 1.415 . S
C6126 H6116 0.930 . S
C6126 C6124 1.419 . S
C6126 C6127 1.362 . S
C6127 H6117 0.930 . S
C6127 C6120 1.409 . S
C6127 C6126 1.362 . S
H6128 C6134 0.930 . S
H6129 C6137 0.930 . S
H6130 C6138 0.930 . S
H6131 C6139 0.930 . S
H6132 C6142 0.930 . S
H6133 C6143 0.930 . S
C6134 H6128 0.930 . S
C6134 C6135 1.355 . S
C6134 C6136 1.415 . S
C6135 C6134 1.355 . S
C6135 C6137 1.419 . S
C6136 C6134 1.415 . S
C6136 C6141 1.425 . S
C6136 C6143 1.409 . S
C6137 H6129 0.930 . S
C6137 C6135 1.419 . S
C6137 C6138 1.362 . S
C6138 H6130 0.930 . S
C6138 C6137 1.362 . S
C6138 C6141 1.409 . S
C6139 H6131 0.930 . S
C6139 C6140 1.355 . S
C6139 C6141 1.415 . S
C6140 C6139 1.355 . S
C6140 C6142 1.419 . S
C6141 C6136 1.425 . S
C6141 C6138 1.409 . S
C6141 C6139 1.415 . S
C6142 H6132 0.930 . S
C6142 C6140 1.419 . S
C6142 C6143 1.362 . S
C6143 H6133 0.930 . S
C6143 C6136 1.409 . S
C6143 C6142 1.362 . S
H6144 C6150 0.930 . S
H6145 C6153 0.930 . S
H6146 C6154 0.930 1_554 S
H6147 C6155 0.930 . S
H6148 C6158 0.930 . S
H6149 C6159 0.930 . S
C6150 H6144 0.930 . S
C6150 C6151 1.355 . S
C6150 C6152 1.415 1_556 S
C6151 C6150 1.355 . S
C6151 C6153 1.419 . S
C6152 C6150 1.415 1_554 S
C6152 C6157 1.425 . S
C6152 C6159 1.409 . S
C6153 H6145 0.930 . S
C6153 C6151 1.419 . S
C6153 C6154 1.362 . S
C6154 H6146 0.930 1_556 S
C6154 C6153 1.362 . S
C6154 C6157 1.409 1_556 S
C6155 H6147 0.930 . S
C6155 C6156 1.355 . S
C6155 C6157 1.415 . S
C6156 C6155 1.355 . S
C6156 C6158 1.419 . S
C6157 C6152 1.425 . S
C6157 C6154 1.409 1_554 S
C6157 C6155 1.415 . S
C6158 H6148 0.930 . S
C6158 C6156 1.419 . S
C6158 C6159 1.362 . S
C6159 H6149 0.930 . S
C6159 C6152 1.409 . S
C6159 C6158 1.362 . S
H6160 C6166 0.930 . S
H6161 C6169 0.930 . S
H6162 C6170 0.930 . S
H6163 C6171 0.930 . S
H6164 C6174 0.930 . S
H6165 C6175 0.930 . S
C6166 H6160 0.930 . S
C6166 C6167 1.355 . S
C6166 C6168 1.415 . S
C6167 C6166 1.355 . S
C6167 C6169 1.419 . S
C6168 C6166 1.415 . S
C6168 C6173 1.425 . S
C6168 C6175 1.409 . S
C6169 H6161 0.930 . S
C6169 C6167 1.419 . S
C6169 C6170 1.362 . S
C6170 H6162 0.930 . S
C6170 C6169 1.362 . S
C6170 C6173 1.409 . S
C6171 H6163 0.930 . S
C6171 C6172 1.355 . S
C6171 C6173 1.415 1_556 S
C6172 C6171 1.355 . S
C6172 C6174 1.419 . S
C6173 C6168 1.425 . S
C6173 C6170 1.409 . S
C6173 C6171 1.415 1_554 S
C6174 H6164 0.930 . S
C6174 C6172 1.419 . S
C6174 C6175 1.362 1_556 S
C6175 H6165 0.930 . S
C6175 C6168 1.409 . S
C6175 C6174 1.362 1_554 S
H6176 C6182 0.930 . S
H6177 C6185 0.930 . S
H6178 C6186 0.930 . S
H6179 C6187 0.930 . S
H6180 C6190 0.930 . S
H6181 C6191 0.958 . S
C6182 H6176 0.930 . S
C6182 C6183 1.355 . S
C6182 C6184 1.415 . S
C6183 C6182 1.355 . S
C6183 C6185 1.419 . S
C6184 C6182 1.415 . S
C6184 C6189 1.425 . S
C6184 C6191 1.452 . S
C6185 H6177 0.930 . S
C6185 C6183 1.419 . S
C6185 C6186 1.362 . S
C6186 H6178 0.930 . S
C6186 C6185 1.362 . S
C6186 C6189 1.409 . S
C6187 H6179 0.930 . S
C6187 C6188 1.355 . S
C6187 C6189 1.415 1_556 S
C6188 C6187 1.355 . S
C6188 C6190 1.419 . S
C6189 C6184 1.425 . S
C6189 C6186 1.409 . S
C6189 C6187 1.415 1_554 S
C6190 H6180 0.930 . S
C6190 C6188 1.419 . S
C6190 C6191 1.294 1_556 S
C6191 H6181 0.958 . S
C6191 C6184 1.452 . S
C6191 C6190 1.294 1_554 S
H6192 C6198 0.930 . S
H6193 C6201 0.930 . S
H6194 C6202 0.930 . S
H6195 C6203 0.930 . S
H6196 C6206 0.930 . S
H6197 C6207 0.925 1_554 S
C6198 H6192 0.930 . S
C6198 C6199 1.355 . S
C6198 C6200 1.415 . S
C6199 C6198 1.355 . S
C6199 C6201 1.419 . S
C6200 C6198 1.415 . S
C6200 C6205 1.425 . S
C6200 C6207 1.409 1_554 S
C6201 H6193 0.930 . S
C6201 C6199 1.419 . S
C6201 C6202 1.362 . S
C6202 H6194 0.930 . S
C6202 C6201 1.362 . S
C6202 C6205 1.409 . S
C6203 H6195 0.930 . S
C6203 C6204 1.355 . S
C6203 C6205 1.415 1_556 S
C6204 C6203 1.355 . S
C6204 C6206 1.419 . S
C6205 C6200 1.425 . S
C6205 C6202 1.409 . S
C6205 C6203 1.415 1_554 S
C6206 H6196 0.930 . S
C6206 C6204 1.419 . S
C6206 C6207 1.362 . S
C6207 H6197 0.925 1_556 S
C6207 C6200 1.409 1_556 S
C6207 C6206 1.362 . S
H6208 C6214 0.930 . S
H6209 C6217 0.930 . S
H6210 C6218 0.954 . S
H6211 C6219 0.930 . S
H6212 C6222 0.930 . S
H6213 C6223 0.930 . S
C6214 H6208 0.930 . S
C6214 C6215 1.355 . S
C6214 C6216 1.415 1_554 S
C6215 C6214 1.355 . S
C6215 C6217 1.419 . S
C6216 C6214 1.415 1_556 S
C6216 C6221 1.425 . S
C6216 C6223 1.409 . S
C6217 H6209 0.930 . S
C6217 C6215 1.419 . S
C6217 C6218 1.304 1_554 S
C6218 H6210 0.954 . S
C6218 C6217 1.304 1_556 S
C6218 C6221 1.447 . S
C6219 H6211 0.930 . S
C6219 C6220 1.355 . S
C6219 C6221 1.415 . S
C6220 C6219 1.355 . S
C6220 C6222 1.419 . S
C6221 C6216 1.425 . S
C6221 C6218 1.447 . S
C6221 C6219 1.415 . S
C6222 H6212 0.930 . S
C6222 C6220 1.419 . S
C6222 C6223 1.362 . S
C6223 H6213 0.930 . S
C6223 C6216 1.409 . S
C6223 C6222 1.362 . S
H6224 C6230 0.930 . S
H6225 C6233 0.930 . S
H6226 C6234 0.930 . S
H6227 C6235 0.930 . S
H6228 C6238 0.930 . S
H6229 C6239 0.929 1_556 S
C6230 H6224 0.930 . S
C6230 C6231 1.355 . S
C6230 C6232 1.415 . S
C6231 C6230 1.355 . S
C6231 C6233 1.419 . S
C6232 C6230 1.415 . S
C6232 C6237 1.425 . S
C6232 C6239 1.406 1_556 S
C6233 H6225 0.930 . S
C6233 C6231 1.419 . S
C6233 C6234 1.362 . S
C6234 H6226 0.930 . S
C6234 C6233 1.362 . S
C6234 C6237 1.409 . S
C6235 H6227 0.930 . S
C6235 C6236 1.355 . S
C6235 C6237 1.415 1_554 S
C6236 C6235 1.355 . S
C6236 C6238 1.419 . S
C6237 C6232 1.425 . S
C6237 C6234 1.409 . S
C6237 C6235 1.415 1_556 S
C6238 H6228 0.930 . S
C6238 C6236 1.419 . S
C6238 C6239 1.367 . S
C6239 H6229 0.929 1_554 S
C6239 C6232 1.406 1_554 S
C6239 C6238 1.367 . S
H6240 C6246 0.930 . S
H6241 C6249 0.930 . S
H6242 C6250 0.930 . S
H6243 C6251 0.930 . S
H6244 C6254 0.930 . S
H6245 C6255 0.930 . S
C6246 H6240 0.930 . S
C6246 C6247 1.355 . S
C6246 C6248 1.415 1_554 S
C6247 C6246 1.355 . S
C6247 C6249 1.419 . S
C6248 C6246 1.415 1_556 S
C6248 C6253 1.425 . S
C6248 C6255 1.409 . S
C6249 H6241 0.930 . S
C6249 C6247 1.419 . S
C6249 C6250 1.362 1_554 S
C6250 H6242 0.930 . S
C6250 C6249 1.362 1_556 S
C6250 C6253 1.409 . S
C6251 H6243 0.930 . S
C6251 C6252 1.355 . S
C6251 C6253 1.415 . S
C6252 C6251 1.355 . S
C6252 C6254 1.419 . S
C6253 C6248 1.425 . S
C6253 C6250 1.409 . S
C6253 C6251 1.415 . S
C6254 H6244 0.930 . S
C6254 C6252 1.419 . S
C6254 C6255 1.362 . S
C6255 H6245 0.930 . S
C6255 C6248 1.409 . S
C6255 C6254 1.362 . S
H6256 C6262 0.930 . S
H6257 C6265 0.930 . S
H6258 C6266 0.930 . S
H6259 C6267 0.930 . S
H6260 C6270 0.930 . S
H6261 C6271 0.947 . S
C6262 H6256 0.930 . S
C6262 C6263 1.355 . S
C6262 C6264 1.415 . S
C6263 C6262 1.355 . S
C6263 C6265 1.419 . S
C6264 C6262 1.415 . S
C6264 C6269 1.425 . S
C6264 C6271 1.437 . S
C6265 H6257 0.930 . S
C6265 C6263 1.419 . S
C6265 C6266 1.362 . S
C6266 H6258 0.930 . S
C6266 C6265 1.362 . S
C6266 C6269 1.409 . S
C6267 H6259 0.930 . S
C6267 C6268 1.355 . S
C6267 C6269 1.415 1_554 S
C6268 C6267 1.355 . S
C6268 C6270 1.419 . S
C6269 C6264 1.425 . S
C6269 C6266 1.409 . S
C6269 C6267 1.415 1_556 S
C6270 H6260 0.930 . S
C6270 C6268 1.419 . S
C6270 C6271 1.319 1_554 S
C6271 H6261 0.947 . S
C6271 C6264 1.437 . S
C6271 C6270 1.319 1_556 S
H6272 C6278 0.930 . S
H6273 C6281 0.930 . S
H6274 C6282 0.915 1_455 S
H6275 C6283 0.930 . S
H6276 C6286 0.930 . S
H6277 C6287 0.930 . S
C6278 H6272 0.930 . S
C6278 C6279 1.355 . S
C6278 C6280 1.415 1_655 S
C6279 C6278 1.355 . S
C6279 C6281 1.419 . S
C6280 C6278 1.415 1_455 S
C6280 C6285 1.425 . S
C6280 C6287 1.409 . S
C6281 H6273 0.930 . S
C6281 C6279 1.419 . S
C6281 C6282 1.362 . S
C6282 H6274 0.915 1_655 S
C6282 C6281 1.362 . S
C6282 C6285 1.409 1_655 S
C6283 H6275 0.930 . S
C6283 C6284 1.355 . S
C6283 C6285 1.415 . S
C6284 C6283 1.355 . S
C6284 C6286 1.419 . S
C6285 C6280 1.425 . S
C6285 C6282 1.409 1_455 S
C6285 C6283 1.415 . S
C6286 H6276 0.930 . S
C6286 C6284 1.419 . S
C6286 C6287 1.362 . S
C6287 H6277 0.930 . S
C6287 C6280 1.409 . S
C6287 C6286 1.362 . S
H6288 C6294 0.930 . S
H6289 C6297 0.930 . S
H6290 C6298 0.930 . S
H6291 C6299 0.930 . S
H6292 C6302 0.930 . S
H6293 C6303 0.929 1_545 S
C6294 H6288 0.930 . S
C6294 C6295 1.355 . S
C6294 C6296 1.415 . S
C6295 C6294 1.355 . S
C6295 C6297 1.419 . S
C6296 C6294 1.415 . S
C6296 C6301 1.425 . S
C6296 C6303 1.407 1_545 S
C6297 H6289 0.930 . S
C6297 C6295 1.419 . S
C6297 C6298 1.362 . S
C6298 H6290 0.930 . S
C6298 C6297 1.362 . S
C6298 C6301 1.409 . S
C6299 H6291 0.930 . S
C6299 C6300 1.355 . S
C6299 C6301 1.415 1_565 S
C6300 C6299 1.355 . S
C6300 C6302 1.419 . S
C6301 C6296 1.425 . S
C6301 C6298 1.409 . S
C6301 C6299 1.415 1_545 S
C6302 H6292 0.930 . S
C6302 C6300 1.419 . S
C6302 C6303 1.365 . S
C6303 H6293 0.929 1_565 S
C6303 C6296 1.407 1_565 S
C6303 C6302 1.365 . S
H6304 C6310 0.930 . S
H6305 C6313 0.930 . S
H6306 C6314 0.911 1_655 S
H6307 C6315 0.930 . S
H6308 C6318 0.930 . S
H6309 C6319 0.930 . S
C6310 H6304 0.930 . S
C6310 C6311 1.355 . S
C6310 C6312 1.415 1_455 S
C6311 C6310 1.355 . S
C6311 C6313 1.419 . S
C6312 C6310 1.415 1_655 S
C6312 C6317 1.425 . S
C6312 C6319 1.409 . S
C6313 H6305 0.930 . S
C6313 C6311 1.419 . S
C6313 C6314 1.438 . S
C6314 H6306 0.911 1_455 S
C6314 C6313 1.438 . S
C6314 C6317 1.356 1_455 S
C6315 H6307 0.930 . S
C6315 C6316 1.355 . S
C6315 C6317 1.415 . S
C6316 C6315 1.355 . S
C6316 C6318 1.419 . S
C6317 C6312 1.425 . S
C6317 C6314 1.356 1_655 S
C6317 C6315 1.415 . S
C6318 H6308 0.930 . S
C6318 C6316 1.419 . S
C6318 C6319 1.362 . S
C6319 H6309 0.930 . S
C6319 C6312 1.409 . S
C6319 C6318 1.362 . S
H6320 C6326 0.930 . S
H6321 C6329 0.930 . S
H6322 C6330 0.930 . S
H6323 C6331 0.930 . S
H6324 C6334 0.930 . S
H6325 C6335 0.928 1_565 S
C6326 H6320 0.930 . S
C6326 C6327 1.355 . S
C6326 C6328 1.415 . S
C6327 C6326 1.355 . S
C6327 C6329 1.419 . S
C6328 C6326 1.415 . S
C6328 C6333 1.425 . S
C6328 C6335 1.409 1_565 S
C6329 H6321 0.930 . S
C6329 C6327 1.419 . S
C6329 C6330 1.362 . S
C6330 H6322 0.930 . S
C6330 C6329 1.362 . S
C6330 C6333 1.409 . S
C6331 H6323 0.930 . S
C6331 C6332 1.355 . S
C6331 C6333 1.415 1_545 S
C6332 C6331 1.355 . S
C6332 C6334 1.419 . S
C6333 C6328 1.425 . S
C6333 C6330 1.409 . S
C6333 C6331 1.415 1_565 S
C6334 H6324 0.930 . S
C6334 C6332 1.419 . S
C6334 C6335 1.362 . S
C6335 H6325 0.928 1_545 S
C6335 C6328 1.409 1_545 S
C6335 C6334 1.362 . S
H6336 C6342 0.930 . S
H6337 C6345 0.930 . S
H6338 C6346 0.930 . S
H6339 C6347 0.930 . S
H6340 C6350 0.930 . S
H6341 C6351 0.929 1_455 S
C6342 H6336 0.930 . S
C6342 C6343 1.355 . S
C6342 C6344 1.415 . S
C6343 C6342 1.355 . S
C6343 C6345 1.419 . S
C6344 C6342 1.415 . S
C6344 C6349 1.425 . S
C6344 C6351 1.406 1_455 S
C6345 H6337 0.930 . S
C6345 C6343 1.419 . S
C6345 C6346 1.362 . S
C6346 H6338 0.930 . S
C6346 C6345 1.362 . S
C6346 C6349 1.409 . S
C6347 H6339 0.930 . S
C6347 C6348 1.355 . S
C6347 C6349 1.415 1_655 S
C6348 C6347 1.355 . S
C6348 C6350 1.419 . S
C6349 C6344 1.425 . S
C6349 C6346 1.409 . S
C6349 C6347 1.415 1_455 S
C6350 H6340 0.930 . S
C6350 C6348 1.419 . S
C6350 C6351 1.367 . S
C6351 H6341 0.929 1_655 S
C6351 C6344 1.406 1_655 S
C6351 C6350 1.367 . S
H6352 C6358 0.930 . S
H6353 C6361 0.930 . S
H6354 C6362 0.930 . S
H6355 C6363 0.930 . S
H6356 C6366 0.930 . S
H6357 C6367 0.930 . S
C6358 H6352 0.930 . S
C6358 C6359 1.355 . S
C6358 C6360 1.415 . S
C6359 C6358 1.355 . S
C6359 C6361 1.419 . S
C6360 C6358 1.415 . S
C6360 C6365 1.425 . S
C6360 C6367 1.409 . S
C6361 H6353 0.930 . S
C6361 C6359 1.419 . S
C6361 C6362 1.362 . S
C6362 H6354 0.930 . S
C6362 C6361 1.362 . S
C6362 C6365 1.409 . S
C6363 H6355 0.930 . S
C6363 C6364 1.355 . S
C6363 C6365 1.415 1_565 S
C6364 C6363 1.355 . S
C6364 C6366 1.419 . S
C6365 C6360 1.425 . S
C6365 C6362 1.409 . S
C6365 C6363 1.415 1_545 S
C6366 H6356 0.930 . S
C6366 C6364 1.419 . S
C6366 C6367 1.362 1_565 S
C6367 H6357 0.930 . S
C6367 C6360 1.409 . S
C6367 C6366 1.362 1_545 S
H6368 C6374 0.930 . S
H6369 C6377 0.930 . S
H6370 C6378 0.930 . S
H6371 C6379 0.930 . S
H6372 C6382 0.930 . S
H6373 C6383 0.913 1_655 S
C6374 H6368 0.930 . S
C6374 C6375 1.355 . S
C6374 C6376 1.415 . S
C6375 C6374 1.355 . S
C6375 C6377 1.419 . S
C6376 C6374 1.415 . S
C6376 C6381 1.425 . S
C6376 C6383 1.367 1_655 S
C6377 H6369 0.930 . S
C6377 C6375 1.419 . S
C6377 C6378 1.362 . S
C6378 H6370 0.930 . S
C6378 C6377 1.362 . S
C6378 C6381 1.409 . S
C6379 H6371 0.930 . S
C6379 C6380 1.355 . S
C6379 C6381 1.415 1_455 S
C6380 C6379 1.355 . S
C6380 C6382 1.419 . S
C6381 C6376 1.425 . S
C6381 C6378 1.409 . S
C6381 C6379 1.415 1_655 S
C6382 H6372 0.930 . S
C6382 C6380 1.419 . S
C6382 C6383 1.424 . S
C6383 H6373 0.913 1_455 S
C6383 C6376 1.367 1_455 S
C6383 C6382 1.424 . S
H6384 C6390 0.930 . S
H6385 C6393 0.930 . S
H6386 C6394 0.930 . S
H6387 C6395 0.930 . S
H6388 C6398 0.930 . S
H6389 C6399 0.930 . S
C6390 H6384 0.930 . S
C6390 C6391 1.355 . S
C6390 C6392 1.415 . S
C6391 C6390 1.355 . S
C6391 C6393 1.419 . S
C6392 C6390 1.415 . S
C6392 C6397 1.425 . S
C6392 C6399 1.409 . S
C6393 H6385 0.930 . S
C6393 C6391 1.419 . S
C6393 C6394 1.362 . S
C6394 H6386 0.930 . S
C6394 C6393 1.362 . S
C6394 C6397 1.409 . S
C6395 H6387 0.930 . S
C6395 C6396 1.355 . S
C6395 C6397 1.415 1_545 S
C6396 C6395 1.355 . S
C6396 C6398 1.419 . S
C6397 C6392 1.425 . S
C6397 C6394 1.409 . S
C6397 C6395 1.415 1_565 S
C6398 H6388 0.930 . S
C6398 C6396 1.419 . S
C6398 C6399 1.362 1_545 S
C6399 H6389 0.930 . S
C6399 C6392 1.409 . S
C6399 C6398 1.362 1_565 S
H6400 C6406 0.930 . S
H6401 C6409 0.930 . S
H6402 C6410 0.930 . S
H6403 C6411 0.930 . S
H6404 C6414 0.930 . S
H6405 C6415 0.930 . S
C6406 H6400 0.930 . S
C6406 C6407 1.355 . S
C6406 C6408 1.415 1_565 S
C6407 C6406 1.355 . S
C6407 C6409 1.419 . S
C6408 C6406 1.415 1_545 S
C6408 C6413 1.425 . S
C6408 C6415 1.409 . S
C6409 H6401 0.930 . S
C6409 C6407 1.419 . S
C6409 C6410 1.362 1_565 S
C6410 H6402 0.930 . S
C6410 C6409 1.362 1_545 S
C6410 C6413 1.409 . S
C6411 H6403 0.930 . S
C6411 C6412 1.355 . S
C6411 C6413 1.415 . S
C6412 C6411 1.355 . S
C6412 C6414 1.419 . S
C6413 C6408 1.425 . S
C6413 C6410 1.409 . S
C6413 C6411 1.415 . S
C6414 H6404 0.930 . S
C6414 C6412 1.419 . S
C6414 C6415 1.362 . S
C6415 H6405 0.930 . S
C6415 C6408 1.409 . S
C6415 C6414 1.362 . S
H6416 C6422 0.930 . S
H6417 C6425 0.930 . S
H6418 C6426 0.930 . S
H6419 C6427 0.930 . S
H6420 C6430 0.930 . S
H6421 C6431 0.926 1_565 S
C6422 H6416 0.930 . S
C6422 C6423 1.355 . S
C6422 C6424 1.415 . S
C6423 C6422 1.355 . S
C6423 C6425 1.419 . S
C6424 C6422 1.415 . S
C6424 C6429 1.425 . S
C6424 C6431 1.409 1_565 S
C6425 H6417 0.930 . S
C6425 C6423 1.419 . S
C6425 C6426 1.362 . S
C6426 H6418 0.930 . S
C6426 C6425 1.362 . S
C6426 C6429 1.409 . S
C6427 H6419 0.930 . S
C6427 C6428 1.355 . S
C6427 C6429 1.415 1_545 S
C6428 C6427 1.355 . S
C6428 C6430 1.419 . S
C6429 C6424 1.425 . S
C6429 C6426 1.409 . S
C6429 C6427 1.415 1_565 S
C6430 H6420 0.930 . S
C6430 C6428 1.419 . S
C6430 C6431 1.362 . S
C6431 H6421 0.926 1_545 S
C6431 C6424 1.409 1_545 S
C6431 C6430 1.362 . S
H6432 C6438 0.930 . S
H6433 C6441 0.930 . S
H6434 C6442 0.930 . S
H6435 C6443 0.930 . S
H6436 C6446 0.930 . S
H6437 C6447 0.929 1_455 S
C6438 H6432 0.930 . S
C6438 C6439 1.355 . S
C6438 C6440 1.415 . S
C6439 C6438 1.355 . S
C6439 C6441 1.419 . S
C6440 C6438 1.415 . S
C6440 C6445 1.425 . S
C6440 C6447 1.409 1_455 S
C6441 H6433 0.930 . S
C6441 C6439 1.419 . S
C6441 C6442 1.362 . S
C6442 H6434 0.930 . S
C6442 C6441 1.362 . S
C6442 C6445 1.409 . S
C6443 H6435 0.930 . S
C6443 C6444 1.355 . S
C6443 C6445 1.415 1_655 S
C6444 C6443 1.355 . S
C6444 C6446 1.419 . S
C6445 C6440 1.425 . S
C6445 C6442 1.409 . S
C6445 C6443 1.415 1_455 S
C6446 H6436 0.930 . S
C6446 C6444 1.419 . S
C6446 C6447 1.362 . S
C6447 H6437 0.929 1_655 S
C6447 C6440 1.409 1_655 S
C6447 C6446 1.362 . S
H6448 C6454 0.930 . S
H6449 C6457 0.930 . S
H6450 C6458 0.930 . S
H6451 C6459 0.930 . S
H6452 C6462 0.930 . S
H6453 C6463 0.930 . S
C6454 H6448 0.930 . S
C6454 C6455 1.355 . S
C6454 C6456 1.415 . S
C6455 C6454 1.355 . S
C6455 C6457 1.419 . S
C6456 C6454 1.415 . S
C6456 C6461 1.425 . S
C6456 C6463 1.409 . S
C6457 H6449 0.930 . S
C6457 C6455 1.419 . S
C6457 C6458 1.362 . S
C6458 H6450 0.930 . S
C6458 C6457 1.362 . S
C6458 C6461 1.409 . S
C6459 H6451 0.930 . S
C6459 C6460 1.355 . S
C6459 C6461 1.415 1_565 S
C6460 C6459 1.355 . S
C6460 C6462 1.419 . S
C6461 C6456 1.425 . S
C6461 C6458 1.409 . S
C6461 C6459 1.415 1_545 S
C6462 H6452 0.930 . S
C6462 C6460 1.419 . S
C6462 C6463 1.362 1_565 S
C6463 H6453 0.930 . S
C6463 C6456 1.409 . S
C6463 C6462 1.362 1_545 S
H6464 C6470 0.930 . S
H6465 C6473 0.930 . S
H6466 C6474 0.930 . S
H6467 C6475 0.930 . S
H6468 C6478 0.930 . S
H6469 C6479 0.930 . S
C6470 H6464 0.930 . S
C6470 C6471 1.355 . S
C6470 C6472 1.415 . S
C6471 C6470 1.355 . S
C6471 C6473 1.419 . S
C6472 C6470 1.415 . S
C6472 C6477 1.425 . S
C6472 C6479 1.409 . S
C6473 H6465 0.930 . S
C6473 C6471 1.419 . S
C6473 C6474 1.362 . S
C6474 H6466 0.930 . S
C6474 C6473 1.362 . S
C6474 C6477 1.409 . S
C6475 H6467 0.930 . S
C6475 C6476 1.355 . S
C6475 C6477 1.415 1_455 S
C6476 C6475 1.355 . S
C6476 C6478 1.419 . S
C6477 C6472 1.425 . S
C6477 C6474 1.409 . S
C6477 C6475 1.415 1_655 S
C6478 H6468 0.930 . S
C6478 C6476 1.419 . S
C6478 C6479 1.362 1_455 S
C6479 H6469 0.930 . S
C6479 C6472 1.409 . S
C6479 C6478 1.362 1_655 S
H6480 C6486 0.930 . S
H6481 C6489 0.930 . S
H6482 C6490 0.930 . S
H6483 C6491 0.930 . S
H6484 C6494 0.930 . S
H6485 C6495 0.930 . S
C6486 H6480 0.930 . S
C6486 C6487 1.355 . S
C6486 C6488 1.415 1_545 S
C6487 C6486 1.355 . S
C6487 C6489 1.419 . S
C6488 C6486 1.415 1_565 S
C6488 C6493 1.425 . S
C6488 C6495 1.409 . S
C6489 H6481 0.930 . S
C6489 C6487 1.419 . S
C6489 C6490 1.362 1_545 S
C6490 H6482 0.930 . S
C6490 C6489 1.362 1_565 S
C6490 C6493 1.409 . S
C6491 H6483 0.930 . S
C6491 C6492 1.355 . S
C6491 C6493 1.415 . S
C6492 C6491 1.355 . S
C6492 C6494 1.419 . S
C6493 C6488 1.425 . S
C6493 C6490 1.409 . S
C6493 C6491 1.415 . S
C6494 H6484 0.930 . S
C6494 C6492 1.419 . S
C6494 C6495 1.362 . S
C6495 H6485 0.930 . S
C6495 C6488 1.409 . S
C6495 C6494 1.362 . S
H6496 C6502 0.930 . S
H6497 C6505 0.930 . S
H6498 C6506 0.930 . S
H6499 C6507 0.930 . S
H6500 C6510 0.930 . S
H6501 C6511 0.930 . S
C6502 H6496 0.930 . S
C6502 C6503 1.355 . S
C6502 C6504 1.415 1_655 S
C6503 C6502 1.355 . S
C6503 C6505 1.419 . S
C6504 C6502 1.415 1_455 S
C6504 C6509 1.425 . S
C6504 C6511 1.409 . S
C6505 H6497 0.930 . S
C6505 C6503 1.419 . S
C6505 C6506 1.362 1_655 S
C6506 H6498 0.930 . S
C6506 C6505 1.362 1_455 S
C6506 C6509 1.409 . S
C6507 H6499 0.930 . S
C6507 C6508 1.355 . S
C6507 C6509 1.415 . S
C6508 C6507 1.355 . S
C6508 C6510 1.419 . S
C6509 C6504 1.425 . S
C6509 C6506 1.409 . S
C6509 C6507 1.415 . S
C6510 H6500 0.930 . S
C6510 C6508 1.419 . S
C6510 C6511 1.362 . S
C6511 H6501 0.930 . S
C6511 C6504 1.409 . S
C6511 C6510 1.362 . S
H6512 C6518 0.930 . S
H6513 C6521 0.930 . S
H6514 C6522 0.930 . S
H6515 C6523 0.930 . S
H6516 C6526 0.930 . S
H6517 C6527 0.946 . S
C6518 H6512 0.930 . S
C6518 C6519 1.355 . S
C6518 C6520 1.415 . S
C6519 C6518 1.355 . S
C6519 C6521 1.419 . S
C6520 C6518 1.415 . S
C6520 C6525 1.425 . S
C6520 C6527 1.435 . S
C6521 H6513 0.930 . S
C6521 C6519 1.419 . S
C6521 C6522 1.362 . S
C6522 H6514 0.930 . S
C6522 C6521 1.362 . S
C6522 C6525 1.409 . S
C6523 H6515 0.930 . S
C6523 C6524 1.355 . S
C6523 C6525 1.415 1_455 S
C6524 C6523 1.355 . S
C6524 C6526 1.419 . S
C6525 C6520 1.425 . S
C6525 C6522 1.409 . S
C6525 C6523 1.415 1_655 S
C6526 H6516 0.930 . S
C6526 C6524 1.419 . S
C6526 C6527 1.322 1_455 S
C6527 H6517 0.946 . S
C6527 C6520 1.435 . S
C6527 C6526 1.322 1_655 S
C3463 C3 1.292 . S
C3468 C1119 1.226 . S
C3479 C39 1.290 . S
C3484 C1011 1.294 . S
C3495 C1047 1.291 . S
C3500 C75 1.301 . S
C3511 C1083 1.290 . S
C3516 C111 1.284 . S
C3527 C903 1.216 . S
C3532 C147 1.280 . S
C3543 C939 1.260 . S
C3548 C183 1.268 . S
C3559 C219 1.283 . S
C3564 C975 1.289 . S
C3575 C867 1.229 . S
C3580 C255 1.266 . S
C3591 C291 1.278 . S
C3596 C1587 1.216 . S
C3607 C327 1.305 . S
C3612 C1479 1.280 . S
C3623 C363 1.290 . S
C3628 C1515 1.294 . S
C3639 C399 1.306 . S
C3644 C1551 1.270 . S
C3655 C435 1.279 . S
C3660 C1695 1.216 . S
C3671 C471 1.291 . S
C3676 C1623 1.225 . S
C3687 C507 1.287 . S
C3692 C1659 1.221 . S
C3703 C1443 1.216 . S
C3708 C543 1.281 . S
C3719 C579 1.265 . S
C3724 C1407 1.241 . S
C3735 C1191 1.216 . S
C3740 C615 1.280 . S
C3751 C1227 1.229 . S
C3756 C651 1.294 . S
C3767 C687 1.302 . S
C3772 C1263 1.289 . S
C3783 C1155 1.290 . S
C3788 C723 1.302 . S
C3799 C1335 1.216 . S
C3804 C759 1.280 . S
C3815 C795 1.280 . S
C3820 C1371 1.286 . S
C3831 C831 1.288 . S
C3836 C1299 1.293 . S
C3847 C2847 1.219 . S
C3852 C1731 1.271 . S
C3863 C2739 1.222 . S
C3868 C1767 1.289 . S
C3879 C1803 1.302 . S
C3884 C2775 1.248 . S
C3895 C2811 1.290 . S
C3900 C1839 1.302 . S
C3911 C1875 1.266 . S
C3916 C2631 1.252 . S
C3927 C1911 1.278 . S
C3932 C2667 1.216 . S
C3943 C2703 1.284 . S
C3948 C1947 1.304 . S
C3959 C2595 1.264 . S
C3964 C1983 1.269 . S
C3975 C3315 1.284 . S
C3980 C2019 1.304 . S
C3991 C3207 1.289 . S
C3996 C2055 1.283 . S
C4007 C2091 1.283 . S
C4012 C3243 1.289 . S
C4023 C2127 1.267 . S
C4028 C3279 1.226 . S
C4039 C3423 1.292 . S
C4044 C2163 1.286 . S
C4055 C3351 1.220 . S
C4060 C2199 1.270 . S
C4071 C3387 1.228 . S
C4076 C2235 1.267 . S
C4087 C2271 1.278 . S
C4092 C3171 1.216 . S
C4103 C3135 1.236 . S
C4108 C2307 1.265 . S
C4119 C2343 1.301 . S
C4124 C2919 1.246 . S
C4135 C2955 1.249 . S
C4140 C2379 1.302 . S
C4151 C2991 1.281 . S
C4156 C2415 1.277 . S
C4167 C2883 1.290 . S
C4172 C2451 1.302 . S
C4183 C2487 1.304 . S
C4188 C3063 1.285 . S
C4199 C2523 1.279 . S
C4204 C3099 1.284 . S
C4215 C3027 1.221 . S
C4220 C2559 1.288 . S
C4231 C4 1.086 . S
C4236 C2452 1.148 . S
C4247 C40 1.126 . S
C4252 C2344 1.104 . S
C4263 C76 1.093 . S
C4268 C2380 1.149 . S
C4279 C112 1.122 . S
C4284 C2416 1.108 . S
C4295 C2560 1.097 . S
C4300 C148 1.133 . S
C4311 C184 1.147 . S
C4316 C2488 1.087 . S
C4327 C2524 1.151 . S
C4332 C220 1.085 . S
C4343 C256 1.101 . S
C4348 C2308 1.143 . S
C4359 C2272 1.108 . S
C4364 C292 1.137 . S
C4375 C328 1.152 . S
C4380 C2164 1.087 . S
C4391 C2200 1.116 . S
C4396 C364 1.131 . S
C4407 C400 1.148 . S
C4412 C2236 1.086 . S
C4423 C436 1.139 . S
C4428 C2056 1.106 . S
C4439 C472 1.111 . S
C4444 C2092 1.118 . S
C4455 C2128 1.088 . S
C4460 C508 1.144 . S
C4471 C2020 1.140 . S
C4476 C544 1.105 . S
C4487 C580 1.115 . S
C4492 C1984 1.131 . S
C4503 C616 1.092 . S
C4508 C1768 1.140 . S
C4519 C652 1.145 . S
C4524 C1804 1.099 . S
C4535 C688 1.147 . S
C4540 C1840 1.087 . S
C4551 C724 1.151 . S
C4556 C1732 1.090 . S
C4567 C1912 1.120 . S
C4572 C760 1.109 . S
C4583 C1948 1.096 . S
C4588 C796 1.147 . S
C4599 C832 1.089 . S
C4604 C1876 1.151 . S
C4615 C878 1.664 . S
C4620 C3326 1.741 . S
C4631 C914 1.720 . S
C4636 C3218 1.713 . S
C4647 C950 1.662 . S
C4652 C3254 1.743 . S
C4663 C986 1.756 . S
C4668 C3290 1.658 . S
C4679 C1022 1.746 . S
C4684 C3434 1.660 . S
C4695 C3362 1.703 . S
C4700 C1058 1.729 . S
C4711 C1094 1.737 . S
C4716 C3398 1.693 . S
C4727 C1130 1.686 . S
C4732 C3182 1.714 . S
C4743 C3146 1.664 . S
C4748 C1166 1.756 . S
C4759 C3038 1.665 . S
C4764 C1202 1.739 . S
C4775 C3074 1.680 . S
C4780 C1238 1.747 . S
C4791 C3110 1.728 . S
C4796 C1274 1.673 . S
C4807 C1310 1.749 . S
C4812 C2930 1.677 . S
C4823 C1346 1.749 . S
C4828 C2966 1.677 . S
C4839 C1382 1.662 . S
C4844 C3002 1.744 . S
C4855 C2894 1.718 . S
C4860 C1418 1.682 . S
C4871 C2858 1.660 . S
C4876 C1454 1.747 . S
C4887 C1490 1.754 . S
C4892 C2642 1.658 . S
C4903 C2678 1.721 . S
C4908 C1526 1.680 . S
C4919 C2714 1.692 . S
C4924 C1562 1.738 . S
C4935 C1598 1.695 . S
C4940 C2606 1.736 . S
C4951 C1634 1.754 . S
C4956 C2786 1.658 . S
C4967 C2822 1.741 . S
C4972 C1670 1.664 . S
C4983 C1706 1.687 . S
C4988 C2750 1.742 . S
C4999 C14 1.272 . S
C5004 C1012 1.451 . S
C5015 C50 1.303 . S
C5020 C1048 1.463 . S
C5031 C86 1.288 . S
C5036 C1084 1.467 . S
C5047 C122 1.363 . S
C5052 C1120 1.433 . S
C5063 C868 1.461 . S
C5068 C158 1.309 . S
C5079 C194 1.349 . S
C5084 C904 1.443 . S
C5095 C940 1.469 . S
C5100 C230 1.277 . S
C5111 C976 1.423 . S
C5116 C266 1.315 . S
C5127 C302 1.301 . S
C5132 C1372 1.464 . S
C5143 C1408 1.420 . S
C5148 C338 1.321 . S
C5159 C374 1.282 . S
C5164 C1300 1.468 . S
C5175 C410 1.372 . S
C5180 C1336 1.403 . S
C5191 C446 1.371 . S
C5196 C1228 1.427 . S
C5207 C482 1.340 . S
C5212 C1264 1.412 . S
C5223 C518 1.320 . S
C5228 C1156 1.457 . S
C5239 C1192 1.415 . S
C5244 C554 1.383 . S
C5255 C590 1.264 . S
C5260 C1624 1.461 . S
C5271 C626 1.331 . S
C5276 C1552 1.416 . S
C5287 C1588 1.407 . S
C5292 C662 1.385 . S
C5303 C698 1.379 . S
C5308 C1480 1.420 . S
C5319 C1516 1.469 . S
C5324 C734 1.267 . S
C5335 C770 1.277 . S
C5340 C1444 1.447 . S
C5351 C1696 1.408 . S
C5356 C806 1.386 . S
C5367 C1660 1.426 . S
C5372 C842 1.310 . S
C5383 C1742 1.279 . S
C5388 C2740 1.469 . S
C5399 C1778 1.309 . S
C5404 C2776 1.426 . S
C5415 C1814 1.362 . S
C5420 C2812 1.405 . S
C5431 C2848 1.462 . S
C5436 C1850 1.263 . S
C5447 C1886 1.271 . S
C5452 C2596 1.469 . S
C5463 C1922 1.348 . S
C5468 C2632 1.443 . S
C5479 C1958 1.280 . S
C5484 C2668 1.469 . S
C5495 C1994 1.378 . S
C5500 C2704 1.421 . S
C5511 C2030 1.382 . S
C5516 C3100 1.404 . S
C5527 C3136 1.424 . S
C5532 C2066 1.314 . S
C5543 C3028 1.469 . S
C5548 C2102 1.279 . S
C5559 C3064 1.407 . S
C5564 C2138 1.353 . S
C5575 C2174 1.386 . S
C5580 C2956 1.408 . S
C5591 C2992 1.448 . S
C5596 C2210 1.275 . S
C5607 C2246 1.296 . S
C5612 C2884 1.465 . S
C5623 C2920 1.457 . S
C5628 C2282 1.266 . S
C5639 C3352 1.453 . S
C5644 C2318 1.270 . S
C5655 C3280 1.452 . S
C5660 C2354 1.330 . S
C5671 C2390 1.376 . S
C5676 C3316 1.403 . S
C5687 C2426 1.267 . S
C5692 C3208 1.468 . S
C5703 C3244 1.454 . S
C5708 C2462 1.269 . S
C5719 C2498 1.306 . S
C5724 C3172 1.462 . S
C5735 C3424 1.469 . S
C5740 C2534 1.275 . S
C5751 C3388 1.412 . S
C5756 C2570 1.385 . S
C5767 C938 1.540 . S
C5772 C2 1.543 . S
C5783 C38 1.540 . S
C5788 C974 1.542 . S
C5799 C866 1.539 . S
C5804 C74 1.545 . S
C5815 C110 1.544 . S
C5820 C902 1.540 . S
C5831 C1082 1.542 . S
C5836 C146 1.539 . S
C5847 C1118 1.540 . S
C5852 C182 1.541 . S
C5863 C218 1.538 . S
C5868 C1010 1.543 . S
C5879 C1046 1.539 . S
C5884 C254 1.545 . S
C5895 C290 1.537 . S
C5900 C1298 1.544 . S
C5911 C326 1.538 . S
C5916 C1334 1.543 . S
C5927 C1370 1.544 . S
C5932 C362 1.537 . S
C5943 C398 1.538 . S
C5948 C1406 1.542 . S
C5959 C434 1.541 . S
C5964 C1154 1.542 . S
C5975 C1190 1.543 . S
C5980 C470 1.540 . S
C5991 C1226 1.539 . S
C5996 C506 1.545 . S
C6007 C1262 1.542 . S
C6012 C542 1.541 . S
C6023 C578 1.541 . S
C6028 C1550 1.540 . S
C6039 C1622 1.541 . S
C6044 C614 1.542 . S
C6055 C650 1.538 . S
C6060 C1658 1.543 . S
C6071 C1442 1.539 . S
C6076 C686 1.544 . S
C6087 C1694 1.539 . S
C6092 C722 1.543 . S
C6103 C1478 1.542 . S
C6108 C758 1.541 . S
C6119 C794 1.539 . S
C6124 C1514 1.542 . S
C6135 C830 1.538 . S
C6140 C1586 1.543 . S
C6151 C1730 1.543 . S
C6156 C2666 1.541 . S
C6167 C2702 1.540 . S
C6172 C1766 1.541 . S
C6183 C2594 1.539 . S
C6188 C1802 1.544 . S
C6199 C2630 1.541 . S
C6204 C1838 1.542 . S
C6215 C1874 1.543 . S
C6220 C2810 1.540 . S
C6231 C2846 1.539 . S
C6236 C1910 1.545 . S
C6247 C1946 1.539 . S
C6252 C2738 1.542 . S
C6263 C2774 1.543 . S
C6268 C1982 1.538 . S
C6279 C2018 1.545 . S
C6284 C3026 1.539 . S
C6295 C3062 1.539 . S
C6300 C2054 1.545 . S
C6311 C2090 1.538 . S
C6316 C3098 1.544 . S
C6327 C3134 1.543 . S
C6332 C2126 1.540 . S
C6343 C2882 1.539 . S
C6348 C2162 1.545 . S
C6359 C2918 1.540 . S
C6364 C2198 1.542 . S
C6375 C2954 1.544 . S
C6380 C2234 1.537 . S
C6391 C2990 1.540 . S
C6396 C2270 1.542 . S
C6407 C2306 1.538 . S
C6412 C3278 1.543 . S
C6423 C3350 1.542 . S
C6428 C2342 1.542 . S
C6439 C3386 1.542 . S
C6444 C2378 1.541 . S
C6455 C3170 1.542 . S
C6460 C2414 1.539 . S
C6471 C3422 1.540 . S
C6476 C2450 1.542 . S
C6487 C2486 1.540 . S
C6492 C3206 1.541 . S
C6503 C2522 1.538 . S
C6508 C3242 1.543 . S
C6519 C3314 1.539 . S
C6524 C2558 1.545 . S
