# Generated by pormake.
# Topology ske, (6)-cn, num edge types: 1
# Building blocks:
#     Node 0, Type 0, BuildingBlock: MIFKUJ_clean_sbu_0, # of connection points: 6
#     Node 1, Type 0, BuildingBlock: MIFKUJ_clean_sbu_0, # of connection points: 6
#     Node 2, Type 0, BuildingBlock: MIFKUJ_clean_sbu_0, # of connection points: 6
#     Node 3, Type 0, BuildingBlock: MIFKUJ_clean_sbu_0, # of connection points: 6
#     Node 4, Type 0, BuildingBlock: MIFKUJ_clean_sbu_0, # of connection points: 6
#     Node 5, Type 0, BuildingBlock: MIFKUJ_clean_sbu_0, # of connection points: 6
#     Node 6, Type 0, BuildingBlock: MIFKUJ_clean_sbu_0, # of connection points: 6
#     Node 7, Type 0, BuildingBlock: MIFKUJ_clean_sbu_0, # of connection points: 6
#     Edge 8, Type (0, 0), BuildingBlock: ZUJKAS_clean_linker_0, # of connection points: 2
#     Edge 9, Type (0, 0), BuildingBlock: ZUJKAS_clean_linker_0, # of connection points: 2
#     Edge 10, Type (0, 0), BuildingBlock: ZUJKAS_clean_linker_0, # of connection points: 2
#     Edge 11, Type (0, 0), BuildingBlock: ZUJKAS_clean_linker_0, # of connection points: 2
#     Edge 12, Type (0, 0), BuildingBlock: ZUJKAS_clean_linker_0, # of connection points: 2
#     Edge 13, Type (0, 0), BuildingBlock: ZUJKAS_clean_linker_0, # of connection points: 2
#     Edge 14, Type (0, 0), BuildingBlock: ZUJKAS_clean_linker_0, # of connection points: 2
#     Edge 15, Type (0, 0), BuildingBlock: ZUJKAS_clean_linker_0, # of connection points: 2
#     Edge 16, Type (0, 0), BuildingBlock: ZUJKAS_clean_linker_0, # of connection points: 2
#     Edge 17, Type (0, 0), BuildingBlock: ZUJKAS_clean_linker_0, # of connection points: 2
#     Edge 18, Type (0, 0), BuildingBlock: ZUJKAS_clean_linker_0, # of connection points: 2
#     Edge 19, Type (0, 0), BuildingBlock: ZUJKAS_clean_linker_0, # of connection points: 2
#     Edge 20, Type (0, 0), BuildingBlock: ZUJKAS_clean_linker_0, # of connection points: 2
#     Edge 21, Type (0, 0), BuildingBlock: ZUJKAS_clean_linker_0, # of connection points: 2
#     Edge 22, Type (0, 0), BuildingBlock: ZUJKAS_clean_linker_0, # of connection points: 2
#     Edge 23, Type (0, 0), BuildingBlock: ZUJKAS_clean_linker_0, # of connection points: 2
#     Edge 24, Type (0, 0), BuildingBlock: ZUJKAS_clean_linker_0, # of connection points: 2
#     Edge 25, Type (0, 0), BuildingBlock: ZUJKAS_clean_linker_0, # of connection points: 2
#     Edge 26, Type (0, 0), BuildingBlock: ZUJKAS_clean_linker_0, # of connection points: 2
#     Edge 27, Type (0, 0), BuildingBlock: ZUJKAS_clean_linker_0, # of connection points: 2
#     Edge 28, Type (0, 0), BuildingBlock: ZUJKAS_clean_linker_0, # of connection points: 2
#     Edge 29, Type (0, 0), BuildingBlock: ZUJKAS_clean_linker_0, # of connection points: 2
#     Edge 30, Type (0, 0), BuildingBlock: ZUJKAS_clean_linker_0, # of connection points: 2
#     Edge 31, Type (0, 0), BuildingBlock: ZUJKAS_clean_linker_0, # of connection points: 2
# Relax obj value: 0.133
# Max RMSD: 0.176
# Mean RMSD: 0.154
data_MOF--net-ske--node1-MIFKUJ_clean_sbu_0--edge1-ZUJKAS_clean_linker_0
_symmetry_space_group_name_H-M    P1
_symmetry_Int_Tables_number       1
_symmetry_cell_setting            triclinic
loop_
_symmetry_equiv_pos_as_xyz
'x, y, z'
_cell_length_a     89.237297
_cell_length_b     36.773439
_cell_length_c     21.828948
_cell_angle_alpha  91.043187
_cell_angle_beta   89.979955
_cell_angle_gamma 84.727406
loop_
_atom_site_label
_atom_site_type_symbol
_atom_site_fract_x
_atom_site_fract_y
_atom_site_fract_z
_atom_type_partial_charge
Zn0 Zn 0.14254 0.24086 0.65886 0.0
Zn1 Zn 0.10818 0.25341 0.5534 0.0
C2 C 0.13605 0.27164 0.77814 0.0
O3 O 0.14611 0.29304 0.75978 0.0
C4 C 0.10708 0.24623 0.42443 0.0
O5 O 0.0994 0.2194 0.442 0.0
O6 O 0.16459 0.236 0.68004 0.0
O7 O 0.13781 0.19334 0.61848 0.0
O8 O 0.11694 0.20142 0.56289 0.0
C9 C 0.1744 0.21247 0.65688 0.0
O10 O 0.17029 0.18889 0.61569 0.0
O11 O 0.13186 0.24751 0.74094 0.0
C12 C 0.07767 0.28213 0.54151 0.0
O13 O 0.08436 0.30891 0.51751 0.0
O14 O 0.08569 0.25454 0.56147 0.0
O15 O 0.11492 0.29141 0.61226 0.0
O16 O 0.13959 0.28667 0.60918 0.0
O17 O 0.11245 0.26647 0.46531 0.0
C18 C 0.12777 0.18079 0.58484 0.0
C19 C 0.12709 0.30536 0.60126 0.0
Zn20 Zn 0.8877 0.26278 0.50544 0.0
Zn21 Zn 0.85181 0.25442 0.62244 0.0
C22 C 0.89149 0.26213 0.379 0.0
O23 O 0.90129 0.23543 0.3963 0.0
C24 C 0.85622 0.28359 0.74066 0.0
O25 O 0.84486 0.30586 0.72185 0.0
O26 O 0.90933 0.26722 0.52968 0.0
O27 O 0.87306 0.28387 0.5649 0.0
O28 O 0.85025 0.3042 0.58415 0.0
C29 C 0.91687 0.29038 0.50387 0.0
O30 O 0.91027 0.31219 0.46301 0.0
O31 O 0.88371 0.28036 0.41975 0.0
C32 C 0.82402 0.21553 0.62947 0.0
O33 O 0.83156 0.18682 0.60398 0.0
O34 O 0.83051 0.24438 0.63945 0.0
O35 O 0.86314 0.21275 0.5698 0.0
O36 O 0.88294 0.21046 0.50593 0.0
O37 O 0.86176 0.25839 0.70446 0.0
C38 C 0.86252 0.30874 0.55806 0.0
C39 C 0.87255 0.19512 0.53312 0.0
Zn40 Zn 0.14367 0.73188 0.35481 0.0
Zn41 Zn 0.10998 0.73337 0.46909 0.0
C42 C 0.13598 0.69807 0.2433 0.0
O43 O 0.14604 0.67327 0.26502 0.0
C44 C 0.11876 0.73956 0.59616 0.0
O45 O 0.12056 0.773 0.57946 0.0
O46 O 0.16505 0.73114 0.32578 0.0
O47 O 0.13789 0.78146 0.39558 0.0
O48 O 0.11786 0.78239 0.45704 0.0
C49 C 0.17563 0.74446 0.35496 0.0
O50 O 0.17284 0.76022 0.40877 0.0
O51 O 0.13199 0.72614 0.27639 0.0
C52 C 0.07995 0.76259 0.49512 0.0
O53 O 0.08715 0.78307 0.53287 0.0
O54 O 0.08747 0.73909 0.46122 0.0
O55 O 0.11841 0.69653 0.40748 0.0
O56 O 0.14288 0.68805 0.40823 0.0
O57 O 0.11468 0.7168 0.55625 0.0
C58 C 0.12819 0.79841 0.43133 0.0
C59 C 0.13029 0.67751 0.42317 0.0
Zn60 Zn 0.85653 0.74257 0.37947 0.0
Zn61 Zn 0.89046 0.73885 0.48788 0.0
C62 C 0.86255 0.75318 0.25571 0.0
O63 O 0.8524 0.78036 0.26902 0.0
C64 C 0.89401 0.71102 0.61195 0.0
O65 O 0.90507 0.68955 0.58737 0.0
O66 O 0.83451 0.74118 0.36061 0.0
O67 O 0.86115 0.70225 0.43991 0.0
O68 O 0.88585 0.69278 0.44284 0.0
C69 C 0.83047 0.71236 0.33487 0.0
O70 O 0.84074 0.68541 0.32178 0.0
O71 O 0.86718 0.73184 0.29833 0.0
C72 C 0.91896 0.76592 0.51194 0.0
O73 O 0.91073 0.78741 0.55011 0.0
O74 O 0.91266 0.7427 0.47949 0.0
O75 O 0.87999 0.78757 0.46557 0.0
O76 O 0.8596 0.79371 0.40734 0.0
O77 O 0.88619 0.73321 0.57805 0.0
C78 C 0.87307 0.68072 0.43565 0.0
C79 C 0.86956 0.8075 0.43966 0.0
Zn80 Zn 0.647 0.747 0.14199 0.0
Zn81 Zn 0.60954 0.76901 0.02817 0.0
C82 C 0.64429 0.77278 0.26473 0.0
O83 O 0.65508 0.79179 0.24548 0.0
C84 C 0.60517 0.76899 0.90112 0.0
O85 O 0.59617 0.74472 0.9184 0.0
O86 O 0.66889 0.72886 0.14742 0.0
O87 O 0.63517 0.71132 0.08935 0.0
O88 O 0.61502 0.71483 0.02791 0.0
C89 C 0.67411 0.70576 0.18633 0.0
O90 O 0.66476 0.69043 0.22213 0.0
O91 O 0.63865 0.75081 0.22755 0.0
C92 C 0.57886 0.80267 0.03149 0.0
O93 O 0.58356 0.82134 0.98566 0.0
O94 O 0.58816 0.78004 0.05842 0.0
O95 O 0.62498 0.78381 0.08316 0.0
O96 O 0.64668 0.79848 0.11001 0.0
O97 O 0.61234 0.78538 0.94184 0.0
C98 C 0.62596 0.69621 0.05406 0.0
C99 C 0.63454 0.80697 0.08204 0.0
Zn100 Zn 0.39144 0.76567 0.00199 0.0
Zn101 Zn 0.35535 0.76346 0.1217 0.0
C102 C 0.37817 0.78642 0.88612 0.0
O103 O 0.36553 0.78426 0.91612 0.0
C104 C 0.35792 0.79039 0.23996 0.0
O105 O 0.34562 0.80884 0.22012 0.0
O106 O 0.41194 0.77259 0.03662 0.0
O107 O 0.37463 0.78944 0.04851 0.0
O108 O 0.35401 0.81436 0.08605 0.0
C109 C 0.42285 0.75897 0.00353 0.0
O110 O 0.41985 0.74127 0.95281 0.0
O111 O 0.39061 0.78023 0.91393 0.0
C112 C 0.32475 0.73868 0.10541 0.0
O113 O 0.32841 0.72977 0.04844 0.0
O114 O 0.33433 0.75181 0.14042 0.0
O115 O 0.36691 0.72206 0.0693 0.0
O116 O 0.38664 0.71357 0.00594 0.0
O117 O 0.36514 0.76762 0.20379 0.0
C118 C 0.36545 0.8175 0.05329 0.0
C119 C 0.37565 0.70131 0.0343 0.0
Zn120 Zn 0.64197 0.23978 0.87829 0.0
Zn121 Zn 0.60877 0.24697 0.98535 0.0
C122 C 0.63473 0.21138 0.76039 0.0
O123 O 0.64416 0.18441 0.77952 0.0
C124 C 0.60912 0.25665 0.11456 0.0
O125 O 0.60201 0.28774 0.09768 0.0
O126 O 0.66391 0.23182 0.85684 0.0
O127 O 0.63888 0.29041 0.91514 0.0
O128 O 0.61802 0.29392 0.97097 0.0
C129 C 0.6693 0.25082 0.81561 0.0
O130 O 0.66044 0.27632 0.78898 0.0
O131 O 0.63116 0.23824 0.79674 0.0
C132 C 0.57811 0.23574 0.00417 0.0
O133 O 0.58447 0.20482 0.02526 0.0
O134 O 0.5864 0.25886 0.98297 0.0
O135 O 0.61333 0.2027 0.92972 0.0
O136 O 0.63813 0.1965 0.9294 0.0
O137 O 0.61363 0.23324 0.07333 0.0
C138 C 0.62897 0.3087 0.94773 0.0
C139 C 0.62564 0.18261 0.9325 0.0
Zn140 Zn 0.35449 0.25063 0.88981 0.0
Zn141 Zn 0.38862 0.24877 0.99546 0.0
C142 C 0.3589 0.26181 0.76387 0.0
O143 O 0.34809 0.28739 0.77759 0.0
C144 C 0.3919 0.22117 0.11998 0.0
O145 O 0.40401 0.20268 0.09735 0.0
O146 O 0.33238 0.24856 0.87411 0.0
O147 O 0.36023 0.209 0.94663 0.0
O148 O 0.38497 0.20393 0.94537 0.0
C149 C 0.32832 0.22057 0.84586 0.0
O150 O 0.33861 0.1943 0.8296 0.0
O151 O 0.36447 0.24169 0.80657 0.0
C152 C 0.41716 0.2767 0.02138 0.0
O153 O 0.40894 0.29995 0.05678 0.0
O154 O 0.41082 0.25276 0.99075 0.0
O155 O 0.37837 0.29771 0.97389 0.0
O156 O 0.35737 0.30175 0.91914 0.0
O157 O 0.38354 0.24131 0.08467 0.0
C158 C 0.37264 0.18976 0.93844 0.0
C159 C 0.36745 0.31662 0.94916 0.0
H160 H 0.18675 0.26045 0.73467 0.0
H161 H 0.21302 0.26004 0.76618 0.0
H162 H 0.22427 0.16271 0.65624 0.0
H163 H 0.19803 0.16327 0.62342 0.0
H164 H 0.23065 0.20733 0.82778 0.0
H165 H 0.25497 0.23011 0.59895 0.0
H166 H 0.23502 0.23678 0.61416 0.0
H167 H 0.24406 0.19151 0.60169 0.0
C168 C 0.19481 0.239 0.71693 0.0
C169 C 0.19031 0.21199 0.67621 0.0
C170 C 0.20981 0.23881 0.73508 0.0
C171 C 0.22062 0.21168 0.71285 0.0
C172 C 0.21616 0.18437 0.67287 0.0
H173 H 0.31645 0.1667 0.77896 0.0
H174 H 0.29019 0.16358 0.7489 0.0
C175 C 0.20114 0.18462 0.65443 0.0
C176 C 0.2365 0.21172 0.73263 0.0
H177 H 0.27225 0.21695 0.67978 0.0
C178 C 0.23975 0.20952 0.79546 0.0
C179 C 0.24834 0.2146 0.69032 0.0
C180 C 0.24546 0.21873 0.62257 0.0
C181 C 0.25454 0.20976 0.81712 0.0
C182 C 0.26635 0.21268 0.77482 0.0
C183 C 0.26314 0.21463 0.712 0.0
C184 C 0.28212 0.2142 0.79485 0.0
C185 C 0.25747 0.20639 0.88494 0.0
C186 C 0.28624 0.24384 0.83038 0.0
C187 C 0.30124 0.24579 0.84756 0.0
C188 C 0.31237 0.21813 0.82934 0.0
C189 C 0.30816 0.18841 0.7939 0.0
C190 C 0.29317 0.18657 0.77659 0.0
H191 H 0.24788 0.19585 0.90932 0.0
H192 H 0.2678 0.18796 0.89356 0.0
H193 H 0.25919 0.23371 0.9047 0.0
H194 H 0.27789 0.26573 0.84407 0.0
H195 H 0.30412 0.2691 0.87465 0.0
H196 H 0.69005 0.19712 0.85575 0.0
H197 H 0.71632 0.18513 0.82366 0.0
H198 H 0.71088 0.27602 0.70106 0.0
H199 H 0.68454 0.28791 0.73207 0.0
H200 H 0.726 0.21287 0.64821 0.0
H201 H 0.75025 0.24729 0.87428 0.0
H202 H 0.73714 0.21305 0.87572 0.0
H203 H 0.73073 0.25902 0.85557 0.0
C204 C 0.69444 0.21464 0.82207 0.0
C205 C 0.68523 0.24365 0.79675 0.0
C206 C 0.70947 0.20778 0.80393 0.0
C207 C 0.71557 0.22997 0.76059 0.0
C208 C 0.70637 0.25863 0.73469 0.0
H209 H 0.80568 0.27111 0.68076 0.0
H210 H 0.77946 0.2707 0.71121 0.0
C211 C 0.69134 0.26545 0.75263 0.0
C212 C 0.73159 0.22363 0.74234 0.0
H213 H 0.76736 0.22587 0.79653 0.0
C214 C 0.73507 0.2155 0.6806 0.0
C215 C 0.74334 0.22733 0.78478 0.0
C216 C 0.74024 0.23745 0.85121 0.0
C217 C 0.75004 0.21148 0.6599 0.0
C218 C 0.76179 0.21521 0.70236 0.0
C219 C 0.7583 0.22275 0.76426 0.0
C220 C 0.77769 0.21459 0.68285 0.0
C221 C 0.75315 0.20465 0.59252 0.0
C222 C 0.78542 0.18303 0.65693 0.0
C223 C 0.8005 0.18316 0.63914 0.0
C224 C 0.80806 0.21482 0.64737 0.0
C225 C 0.80023 0.24624 0.67365 0.0
C226 C 0.78523 0.24608 0.69124 0.0
H227 H 0.74279 0.20944 0.56445 0.0
H228 H 0.76162 0.22252 0.57595 0.0
H229 H 0.75777 0.17585 0.58513 0.0
H230 H 0.77985 0.15827 0.65096 0.0
H231 H 0.80624 0.15849 0.61931 0.0
H232 H 0.30082 0.71221 0.04529 0.0
H233 H 0.27497 0.71136 0.0837 0.0
H234 H 0.28802 0.75821 0.25585 0.0
H235 H 0.31369 0.75923 0.2184 0.0
H236 H 0.26463 0.67764 0.19697 0.0
H237 H 0.25192 0.82832 0.19288 0.0
H238 H 0.26719 0.80459 0.14956 0.0
H239 H 0.26921 0.81282 0.23038 0.0
C240 C 0.29818 0.7222 0.09138 0.0
C241 C 0.3093 0.73601 0.12858 0.0
C242 C 0.28344 0.72168 0.11319 0.0
C243 C 0.2796 0.73525 0.1722 0.0
C244 C 0.29073 0.74817 0.20983 0.0
H245 H 0.20098 0.77052 0.40325 0.0
H246 H 0.22615 0.76675 0.35743 0.0
C247 C 0.30542 0.74857 0.18832 0.0
C248 C 0.26397 0.73624 0.19502 0.0
H249 H 0.23445 0.79488 0.24498 0.0
C250 C 0.25794 0.7032 0.20696 0.0
C251 C 0.25536 0.76969 0.20814 0.0
C252 C 0.26116 0.80593 0.19417 0.0
C253 C 0.24362 0.70275 0.23358 0.0
C254 C 0.23509 0.73625 0.24747 0.0
C255 C 0.24106 0.76926 0.23458 0.0
C256 C 0.21993 0.73775 0.2755 0.0
C257 C 0.23796 0.6665 0.24841 0.0
C258 C 0.20809 0.72304 0.24427 0.0
C259 C 0.19374 0.72512 0.27028 0.0
C260 C 0.19091 0.74217 0.32792 0.0
C261 C 0.20278 0.75712 0.35892 0.0
C262 C 0.21716 0.75501 0.33281 0.0
H263 H 0.24724 0.64419 0.24925 0.0
H264 H 0.23213 0.66786 0.29346 0.0
H265 H 0.22979 0.65938 0.21285 0.0
H266 H 0.20992 0.7103 0.19944 0.0
H267 H 0.18483 0.71349 0.24497 0.0
H268 H 0.68937 0.65956 0.26686 0.0
H269 H 0.71629 0.65547 0.29063 0.0
H270 H 0.72281 0.73599 0.15429 0.0
H271 H 0.69609 0.73963 0.12923 0.0
H272 H 0.74527 0.68035 0.15216 0.0
H273 H 0.73523 0.73403 0.38957 0.0
H274 H 0.72622 0.69346 0.37171 0.0
H275 H 0.72054 0.73512 0.3327 0.0
C276 C 0.69657 0.67611 0.2415 0.0
C277 C 0.69055 0.70017 0.19655 0.0
C278 C 0.71192 0.67394 0.25547 0.0
C279 C 0.72148 0.69604 0.22518 0.0
C280 C 0.71562 0.71886 0.1785 0.0
H281 H 0.8069 0.7654 0.34285 0.0
H282 H 0.78062 0.75994 0.31534 0.0
C283 C 0.70032 0.72091 0.16427 0.0
C284 C 0.7375 0.69636 0.24292 0.0
H285 H 0.76046 0.7161 0.36176 0.0
C286 C 0.74861 0.68804 0.19803 0.0
C287 C 0.7418 0.70701 0.30255 0.0
C288 C 0.73034 0.71826 0.35183 0.0
C289 C 0.76392 0.6901 0.21108 0.0
C290 C 0.76823 0.69999 0.27105 0.0
C291 C 0.75712 0.70826 0.31596 0.0
C292 C 0.78418 0.70296 0.28778 0.0
C293 C 0.77527 0.68277 0.16002 0.0
C294 C 0.79486 0.67262 0.28216 0.0
C295 C 0.8099 0.67572 0.29741 0.0
C296 C 0.81451 0.70913 0.31932 0.0
C297 C 0.80373 0.73931 0.32601 0.0
C298 C 0.7887 0.73623 0.31037 0.0
H299 H 0.76989 0.68525 0.1142 0.0
H300 H 0.78417 0.70191 0.16298 0.0
H301 H 0.7807 0.65452 0.16374 0.0
H302 H 0.79156 0.64646 0.26624 0.0
H303 H 0.8179 0.65185 0.29231 0.0
H304 H 0.10841 0.84437 0.4984 0.0
H305 H 0.1099 0.90893 0.52233 0.0
H306 H 0.1515 0.90656 0.42114 0.0
H307 H 0.15001 0.84185 0.39588 0.0
H308 H 0.13183 0.94168 0.58548 0.0
H309 H 0.12645 0.99365 0.34835 0.0
H310 H 0.12231 0.94815 0.36785 0.0
H311 H 0.14149 0.95843 0.35915 0.0
C312 C 0.11786 0.8575 0.48082 0.0
C313 C 0.12905 0.83786 0.44484 0.0
C314 C 0.1187 0.89446 0.49472 0.0
C315 C 0.13071 0.91267 0.47296 0.0
C316 C 0.14198 0.89321 0.4374 0.0
H317 H 0.15014 0.1279 0.61541 0.0
H318 H 0.15181 0.0628 0.58829 0.0
C319 C 0.14112 0.85617 0.42322 0.0
C320 C 0.13146 0.95188 0.48866 0.0
H321 H 0.13105 0.03653 0.42657 0.0
C322 C 0.13171 0.96244 0.55077 0.0
C323 C 0.13115 0.97891 0.44326 0.0
C324 C 0.1302 0.96939 0.37591 0.0
C325 C 0.13155 0.99932 0.56879 0.0
C326 C 0.13142 0.02632 0.52338 0.0
C327 C 0.13127 0.01574 0.46126 0.0
C328 C 0.13066 0.06583 0.53932 0.0
C329 C 0.13102 0.00912 0.63625 0.0
C330 C 0.1184 0.0893 0.51958 0.0
C331 C 0.11746 0.12652 0.53453 0.0
C332 C 0.1288 0.14114 0.56953 0.0
C333 C 0.14115 0.11757 0.58884 0.0
C334 C 0.1421 0.08029 0.57361 0.0
H335 H 0.12752 0.9864 0.66422 0.0
H336 H 0.1424 0.01517 0.6516 0.0
H337 H 0.12313 0.03376 0.64537 0.0
H338 H 0.10947 0.07872 0.49295 0.0
H339 H 0.10781 0.1438 0.51867 0.0
H340 H 0.84014 0.35195 0.50368 0.0
H341 H 0.84209 0.41237 0.46102 0.0
H342 H 0.89013 0.40005 0.48859 0.0
H343 H 0.88817 0.33972 0.53192 0.0
H344 H 0.85334 0.46536 0.53807 0.0
H345 H 0.88561 0.44987 0.32008 0.0
H346 H 0.876 0.41331 0.35179 0.0
H347 H 0.89372 0.42403 0.38296 0.0
C348 C 0.85117 0.36168 0.49889 0.0
C349 C 0.86406 0.34107 0.52047 0.0
C350 C 0.85226 0.39613 0.47443 0.0
C351 C 0.86626 0.41053 0.47114 0.0
C352 C 0.87927 0.38911 0.48934 0.0
H353 H 0.89607 0.62607 0.44163 0.0
H354 H 0.89401 0.56028 0.44477 0.0
C355 C 0.87817 0.35458 0.51382 0.0
C356 C 0.86688 0.44976 0.45858 0.0
H357 H 0.88214 0.5098 0.36461 0.0
C358 C 0.85948 0.47512 0.49971 0.0
C359 C 0.87509 0.46224 0.40907 0.0
C360 C 0.88298 0.43601 0.36306 0.0
C361 C 0.86032 0.51271 0.49353 0.0
C362 C 0.86847 0.52535 0.44385 0.0
C363 C 0.87583 0.5 0.40242 0.0
C364 C 0.86977 0.56482 0.4357 0.0
C365 C 0.85289 0.53842 0.54159 0.0
C366 C 0.85686 0.58907 0.42802 0.0
C367 C 0.85796 0.62669 0.42705 0.0
C368 C 0.87204 0.64075 0.43277 0.0
C369 C 0.88504 0.61622 0.43752 0.0
C370 C 0.8839 0.57859 0.43903 0.0
H371 H 0.85056 0.524 0.58438 0.0
H372 H 0.86004 0.56075 0.55309 0.0
H373 H 0.842 0.55084 0.52373 0.0
H374 H 0.84587 0.57893 0.42418 0.0
H375 H 0.84773 0.64472 0.42297 0.0
H376 H 0.85323 0.86043 0.37434 0.0
H377 H 0.85325 0.92677 0.38678 0.0
H378 H 0.88419 0.91155 0.53789 0.0
H379 H 0.88461 0.84549 0.52466 0.0
H380 H 0.84516 0.97278 0.48065 0.0
H381 H 0.90578 0.97822 0.43196 0.0
H382 H 0.89628 0.93766 0.41793 0.0
H383 H 0.90266 0.94841 0.49384 0.0
C384 C 0.86006 0.87123 0.41014 0.0
C385 C 0.86904 0.84766 0.44809 0.0
C386 C 0.86006 0.90914 0.4172 0.0
C387 C 0.86898 0.92412 0.46241 0.0
C388 C 0.87757 0.90064 0.50151 0.0
H389 H 0.85957 0.147 0.60611 0.0
H390 H 0.85813 0.08165 0.58727 0.0
C391 C 0.87772 0.86282 0.49408 0.0
C392 C 0.86921 0.9643 0.46924 0.0
H393 H 0.89286 0.03211 0.47603 0.0
C394 C 0.85557 0.98582 0.4792 0.0
C395 C 0.88277 0.98138 0.46629 0.0
C396 C 0.89767 0.96026 0.45127 0.0
C397 C 0.85516 0.02386 0.48772 0.0
C398 C 0.86882 0.04067 0.48793 0.0
C399 C 0.88241 0.0192 0.47663 0.0
C400 C 0.86934 0.08049 0.49912 0.0
C401 C 0.84008 0.04564 0.49528 0.0
C402 C 0.87653 0.10142 0.45686 0.0
C403 C 0.8776 0.13861 0.46805 0.0
C404 C 0.8714 0.15571 0.5216 0.0
C405 C 0.86421 0.13474 0.56394 0.0
C406 C 0.86332 0.09741 0.55307 0.0
H407 H 0.83087 0.03089 0.47522 0.0
H408 H 0.83764 0.05015 0.54482 0.0
H409 H 0.83998 0.07267 0.47334 0.0
H410 H 0.88132 0.08895 0.41506 0.0
H411 H 0.88317 0.15403 0.43445 0.0
H412 H 0.10503 0.6465 0.45855 0.0
H413 H 0.10358 0.58522 0.49865 0.0
H414 H 0.152 0.56675 0.49477 0.0
H415 H 0.15359 0.62799 0.45514 0.0
H416 H 0.11455 0.52106 0.43632 0.0
H417 H 0.14128 0.53077 0.66465 0.0
H418 H 0.1343 0.57053 0.62231 0.0
H419 H 0.15222 0.54663 0.60318 0.0
C420 C 0.11539 0.6296 0.46701 0.0
C421 C 0.12943 0.64204 0.45331 0.0
C422 C 0.11453 0.59461 0.48994 0.0
C423 C 0.12768 0.57159 0.50014 0.0
C424 C 0.14172 0.58432 0.48827 0.0
H425 H 0.15106 0.34487 0.57994 0.0
H426 H 0.15047 0.40974 0.55631 0.0
C427 C 0.1426 0.61927 0.46527 0.0
C428 C 0.12671 0.53325 0.5182 0.0
H429 H 0.1381 0.47076 0.62632 0.0
C430 C 0.11955 0.51011 0.47818 0.0
C431 C 0.13331 0.5191 0.57269 0.0
C432 C 0.14059 0.54309 0.61852 0.0
C433 C 0.11919 0.47285 0.49024 0.0
C434 C 0.12597 0.45856 0.54431 0.0
C435 C 0.13295 0.48181 0.58481 0.0
C436 C 0.12619 0.41936 0.55902 0.0
C437 C 0.112 0.44887 0.44403 0.0
C438 C 0.11273 0.40339 0.56882 0.0
C439 C 0.11301 0.3663 0.58215 0.0
C440 C 0.12679 0.34455 0.58633 0.0
C441 C 0.14026 0.36078 0.57694 0.0
C442 C 0.13995 0.39786 0.56359 0.0
H443 H 0.11056 0.46209 0.39879 0.0
H444 H 0.11884 0.42228 0.43769 0.0
H445 H 0.10071 0.44336 0.46085 0.0
H446 H 0.102 0.41967 0.56652 0.0
H447 H 0.10244 0.35478 0.58953 0.0
H448 H 0.60746 0.65444 0.9893 0.0
H449 H 0.61012 0.5884 0.9733 0.0
H450 H 0.65125 0.58063 0.07784 0.0
H451 H 0.64855 0.64688 0.0953 0.0
H452 H 0.63269 0.54449 0.91694 0.0
H453 H 0.62695 0.50675 0.16062 0.0
H454 H 0.62238 0.55269 0.13442 0.0
H455 H 0.64168 0.53558 0.14579 0.0
C456 C 0.61707 0.6388 0.00917 0.0
C457 C 0.62775 0.65604 0.04398 0.0
C458 C 0.61858 0.60099 0.99982 0.0
C459 C 0.63077 0.57953 0.02501 0.0
C460 C 0.64159 0.59659 0.05902 0.0
H461 H 0.65157 0.34985 0.91269 0.0
H462 H 0.65324 0.41512 0.93199 0.0
C463 C 0.64006 0.63449 0.06869 0.0
C464 C 0.63206 0.53936 0.01497 0.0
H465 H 0.63205 0.45832 0.0889 0.0
C466 C 0.63263 0.5256 0.95451 0.0
C467 C 0.63182 0.51485 0.06409 0.0
C468 C 0.63054 0.5281 0.12989 0.0
C469 C 0.63276 0.48801 0.94173 0.0
C470 C 0.63264 0.46347 0.99086 0.0
C471 C 0.63226 0.47719 0.05135 0.0
C472 C 0.63201 0.42366 0.98049 0.0
C473 C 0.63247 0.47508 0.87575 0.0
C474 C 0.61974 0.40659 0.00282 0.0
C475 C 0.61881 0.36929 0.99241 0.0
C476 C 0.63016 0.3482 0.95942 0.0
C477 C 0.64257 0.36529 0.93782 0.0
C478 C 0.64351 0.40265 0.94855 0.0
H479 H 0.62897 0.49776 0.8444 0.0
H480 H 0.64392 0.4635 0.86199 0.0
H481 H 0.62469 0.45342 0.86964 0.0
H482 H 0.61076 0.42228 0.02773 0.0
H483 H 0.60911 0.3571 0.00991 0.0
H484 H 0.3908 0.83771 0.99729 0.0
H485 H 0.39429 0.89725 0.95322 0.0
H486 H 0.34791 0.93361 0.99269 0.0
H487 H 0.34426 0.8742 0.03544 0.0
H488 H 0.35872 0.95691 0.87661 0.0
H489 H 0.39601 0.98533 0.07322 0.0
H490 H 0.40123 0.94488 0.02781 0.0
H491 H 0.38434 0.94781 0.07297 0.0
C492 C 0.38128 0.85812 0.99523 0.0
C493 C 0.36728 0.8514 0.02003 0.0
C494 C 0.38331 0.89214 0.97044 0.0
C495 C 0.3714 0.91988 0.9705 0.0
C496 C 0.35724 0.91253 0.99229 0.0
H497 H 0.34879 0.14793 0.94082 0.0
H498 H 0.34967 0.08138 0.93721 0.0
C499 C 0.3552 0.87864 0.017 0.0
C500 C 0.37382 0.95763 0.95344 0.0
H501 H 0.3897 0.03307 0.00604 0.0
C502 C 0.36565 0.97352 0.90428 0.0
C503 C 0.38287 0.97912 0.98974 0.0
C504 C 0.39156 0.96367 0.04418 0.0
C505 C 0.36601 0.0107 0.89135 0.0
C506 C 0.37451 0.03255 0.92944 0.0
C507 C 0.38318 0.01625 0.97693 0.0
C508 C 0.3738 0.07279 0.92419 0.0
C509 C 0.35718 0.02624 0.83742 0.0
C510 C 0.38709 0.09012 0.91868 0.0
C511 C 0.38665 0.12817 0.92165 0.0
C512 C 0.37291 0.14964 0.93047 0.0
C513 C 0.35956 0.13224 0.93401 0.0
C514 C 0.36002 0.09415 0.93133 0.0
H515 H 0.35564 0.0048 0.80205 0.0
H516 H 0.34585 0.03751 0.85325 0.0
H517 H 0.36283 0.04852 0.81604 0.0
H518 H 0.39785 0.07415 0.9135 0.0
H519 H 0.39714 0.14068 0.91834 0.0
H520 H 0.38757 0.35743 0.0063 0.0
H521 H 0.38584 0.42343 0.02136 0.0
H522 H 0.34326 0.43356 0.92698 0.0
H523 H 0.34496 0.36718 0.91071 0.0
H524 H 0.36253 0.48317 0.88873 0.0
H525 H 0.35894 0.48483 0.14189 0.0
H526 H 0.37484 0.45596 0.11366 0.0
H527 H 0.3561 0.44477 0.09584 0.0
C528 C 0.37777 0.37353 0.98886 0.0
C529 C 0.36635 0.35688 0.95757 0.0
C530 C 0.37677 0.41132 0.99794 0.0
C531 C 0.36427 0.43331 0.97649 0.0
C532 C 0.35293 0.41698 0.94443 0.0
H533 H 0.3525 0.66579 0.0804 0.0
H534 H 0.34801 0.60162 0.06444 0.0
C535 C 0.35393 0.37906 0.93516 0.0
C536 C 0.36345 0.47346 0.98572 0.0
H537 H 0.36572 0.53983 0.09582 0.0
C538 C 0.36303 0.49564 0.93402 0.0
C539 C 0.36383 0.48974 0.04487 0.0
C540 C 0.36329 0.46762 0.10224 0.0
C541 C 0.36373 0.53352 0.9398 0.0
C542 C 0.36517 0.54944 0.99877 0.0
C543 C 0.36483 0.52751 0.05059 0.0
C544 C 0.36769 0.58846 0.00755 0.0
C545 C 0.363 0.55608 0.88265 0.0
C546 C 0.38038 0.60214 0.98172 0.0
C547 C 0.38298 0.63871 0.99064 0.0
C548 C 0.37301 0.66232 0.02616 0.0
C549 C 0.3604 0.64839 0.05278 0.0
C550 C 0.3578 0.61175 0.04366 0.0
H551 H 0.35728 0.54233 0.84469 0.0
H552 H 0.35696 0.58346 0.89132 0.0
H553 H 0.3746 0.55983 0.86732 0.0
H554 H 0.38836 0.58442 0.95502 0.0
H555 H 0.39284 0.6484 0.96976 0.0
H556 H 0.60121 0.1433 0.94597 0.0
H557 H 0.60127 0.07729 0.95951 0.0
H558 H 0.64963 0.06528 0.94358 0.0
H559 H 0.64975 0.13105 0.93047 0.0
H560 H 0.61404 0.01517 0.88314 0.0
H561 H 0.64015 0.02307 0.11342 0.0
H562 H 0.63144 0.06276 0.07541 0.0
H563 H 0.65002 0.04395 0.05366 0.0
C564 C 0.61186 0.12661 0.94505 0.0
C565 C 0.6255 0.14254 0.93782 0.0
C566 C 0.61185 0.08891 0.95255 0.0
C567 C 0.62546 0.06659 0.95316 0.0
C568 C 0.63903 0.08219 0.94399 0.0
H569 H 0.65634 0.847 0.0401 0.0
H570 H 0.65307 0.90854 0.99941 0.0
C571 C 0.63906 0.1198 0.93655 0.0
C572 C 0.62565 0.02726 0.96649 0.0
H573 H 0.63841 0.96398 0.07091 0.0
C574 C 0.61928 0.00386 0.92427 0.0
C575 C 0.63239 0.01281 0.02043 0.0
C576 C 0.63878 0.03692 0.06869 0.0
C577 C 0.62 0.96598 0.93373 0.0
C578 C 0.62709 0.95152 0.98704 0.0
C579 C 0.63312 0.97514 0.02974 0.0
C580 C 0.62874 0.91195 0.9999 0.0
C581 C 0.61358 0.94164 0.88603 0.0
C582 C 0.61612 0.89298 0.01176 0.0
C583 C 0.61797 0.85753 0.03476 0.0
C584 C 0.63245 0.84088 0.04675 0.0
C585 C 0.64504 0.85922 0.03158 0.0
C586 C 0.64319 0.89437 0.00827 0.0
H587 H 0.61148 0.95583 0.84193 0.0
H588 H 0.6213 0.91658 0.87763 0.0
H589 H 0.60272 0.93313 0.90281 0.0
H590 H 0.60486 0.90628 0.00666 0.0
H591 H 0.60811 0.84416 0.04689 0.0
H592 H 0.1226 0.29839 0.36993 0.0
H593 H 0.12678 0.3061 0.25997 0.0
H594 H 0.10101 0.21506 0.21925 0.0
H595 H 0.09695 0.2069 0.32842 0.0
H596 H 0.12831 0.21098 0.15768 0.0
H597 H 0.09698 0.34736 0.13004 0.0
H598 H 0.11106 0.34507 0.18902 0.0
H599 H 0.09486 0.31988 0.19666 0.0
C600 C 0.11776 0.28015 0.33752 0.0
C601 C 0.10943 0.25204 0.35808 0.0
C602 C 0.12008 0.28474 0.27466 0.0
C603 C 0.11404 0.26144 0.23129 0.0
C604 C 0.10573 0.23345 0.25181 0.0
H605 H 0.1174 0.22731 0.83512 0.0
H606 H 0.11149 0.22594 0.94458 0.0
C607 C 0.10341 0.22886 0.31438 0.0
C608 C 0.11682 0.26499 0.16457 0.0
H609 H 0.11062 0.32223 0.04367 0.0
C610 C 0.1244 0.23527 0.13272 0.0
C611 C 0.11175 0.29673 0.13208 0.0
C612 C 0.10309 0.32902 0.16343 0.0
C613 C 0.12718 0.23651 0.0695 0.0
C614 C 0.12199 0.26809 0.03683 0.0
C615 C 0.11452 0.29797 0.06871 0.0
C616 C 0.1245 0.27075 0.96978 0.0
C617 C 0.13596 0.20426 0.03847 0.0
C618 C 0.13325 0.29736 0.94719 0.0
C619 C 0.13657 0.29837 0.88463 0.0
C620 C 0.13114 0.27287 0.84324 0.0
C621 C 0.12184 0.24721 0.86568 0.0
C622 C 0.11853 0.24623 0.92833 0.0
H623 H 0.14232 0.18647 0.072 0.0
H624 H 0.12804 0.18756 0.01394 0.0
H625 H 0.14401 0.2134 0.00446 0.0
H626 H 0.13789 0.3167 0.97825 0.0
H627 H 0.1437 0.31862 0.86899 0.0
H628 H 0.87134 0.31307 0.32608 0.0
H629 H 0.86638 0.32086 0.21629 0.0
H630 H 0.90142 0.23545 0.17377 0.0
H631 H 0.90638 0.22723 0.28275 0.0
H632 H 0.88649 0.33539 0.1156 0.0
H633 H 0.86294 0.2011 0.09276 0.0
H634 H 0.86535 0.22339 0.16601 0.0
H635 H 0.88123 0.19949 0.12752 0.0
C636 C 0.87804 0.29609 0.2933 0.0
C637 C 0.88913 0.26922 0.31311 0.0
C638 C 0.87521 0.30064 0.23071 0.0
C639 C 0.88338 0.2783 0.18721 0.0
C640 C 0.89483 0.2525 0.20678 0.0
H641 H 0.87872 0.24037 0.79587 0.0
H642 H 0.88618 0.24188 0.90366 0.0
C643 C 0.89766 0.24793 0.26912 0.0
C644 C 0.87968 0.2809 0.12134 0.0
H645 H 0.86697 0.23201 1.0009 0.0
C646 C 0.88215 0.31293 0.09042 0.0
C647 C 0.87403 0.25148 0.08889 0.0
C648 C 0.87059 0.21701 0.12046 0.0
C649 C 0.87944 0.31596 0.02723 0.0
C650 C 0.8739 0.28639 0.99472 0.0
C651 C 0.87133 0.25452 0.02589 0.0
C652 C 0.87036 0.28793 0.92853 0.0
C653 C 0.88284 0.3504 0.99558 0.0
C654 C 0.85905 0.31345 0.90682 0.0
C655 C 0.85477 0.31269 0.8453 0.0
C656 C 0.86165 0.28618 0.80447 0.0
C657 C 0.8732 0.26113 0.82611 0.0
C658 C 0.87748 0.26194 0.88765 0.0
H659 H 0.89065 0.36607 0.02287 0.0
H660 H 0.88786 0.34408 0.94962 0.0
H661 H 0.87221 0.36811 0.98943 0.0
H662 H 0.8532 0.33324 0.93785 0.0
H663 H 0.8458 0.33232 0.83018 0.0
H664 H 0.14348 0.64287 0.16034 0.0
H665 H 0.13919 0.64328 0.04978 0.0
H666 H 0.11422 0.74901 0.06712 0.0
H667 H 0.11837 0.74884 0.17808 0.0
H668 H 0.10167 0.69796 0.98172 0.0
H669 H 0.16248 0.71191 0.94285 0.0
H670 H 0.15826 0.67397 0.98858 0.0
H671 H 0.15367 0.71979 0.01694 0.0
C672 C 0.13688 0.66603 0.1409 0.0
C673 C 0.13141 0.69604 0.17806 0.0
C674 C 0.13449 0.66624 0.07762 0.0
C675 C 0.12662 0.69644 0.0502 0.0
C676 C 0.12039 0.7255 0.08743 0.0
H677 H 0.12892 0.78119 0.689 0.0
H678 H 0.13057 0.76731 0.79769 0.0
C679 C 0.12278 0.72535 0.15084 0.0
C680 C 0.12575 0.69884 0.98251 0.0
H681 H 0.14729 0.70786 0.85524 0.0
C682 C 0.11163 0.69988 0.95391 0.0
C683 C 0.13877 0.70168 0.94653 0.0
C684 C 0.15416 0.70209 0.97508 0.0
C685 C 0.1102 0.70387 0.89014 0.0
C686 C 0.12323 0.70666 0.85423 0.0
C687 C 0.13734 0.70535 0.88286 0.0
C688 C 0.1224 0.71396 0.78763 0.0
C689 C 0.09473 0.70631 0.86186 0.0
C690 C 0.11749 0.68824 0.74559 0.0
C691 C 0.11657 0.69604 0.68298 0.0
C692 C 0.12054 0.72974 0.66153 0.0
C693 C 0.12572 0.75503 0.70382 0.0
C694 C 0.12668 0.74716 0.76607 0.0
H695 H 0.08568 0.70997 0.89699 0.0
H696 H 0.09331 0.72939 0.82964 0.0
H697 H 0.09334 0.68078 0.83543 0.0
H698 H 0.11436 0.66219 0.76121 0.0
H699 H 0.11258 0.67594 0.6516 0.0
H700 H 0.87341 0.75535 0.67802 0.0
H701 H 0.86953 0.75714 0.78884 0.0
H702 H 0.90408 0.66819 0.80867 0.0
H703 H 0.90825 0.66659 0.69774 0.0
H704 H 0.86115 0.70372 0.86578 0.0
H705 H 0.91765 0.74455 0.92927 0.0
H706 H 0.91063 0.74682 0.85177 0.0
H707 H 0.91775 0.70372 0.88279 0.0
C708 C 0.8802 0.73612 0.70584 0.0
C709 C 0.89121 0.71095 0.67894 0.0
C710 C 0.87796 0.73719 0.76925 0.0
C711 C 0.88668 0.71321 0.80719 0.0
C712 C 0.89746 0.6875 0.78046 0.0
H713 H 0.88261 0.69815 0.20928 0.0
H714 H 0.88907 0.68541 0.10105 0.0
C715 C 0.89974 0.68647 0.71695 0.0
C716 C 0.88429 0.71514 0.87457 0.0
H717 H 0.9012 0.73405 0.01059 0.0
C718 C 0.86993 0.71021 0.89742 0.0
C719 C 0.89579 0.72345 0.91589 0.0
C720 C 0.9113 0.73026 0.89387 0.0
C721 C 0.86668 0.71384 0.96027 0.0
C722 C 0.87805 0.72307 1.00132 0.0
C723 C 0.89254 0.72694 0.9789 0.0
C724 C 0.87474 0.73123 0.06695 0.0
C725 C 0.85107 0.70798 0.98231 0.0
C726 C 0.86486 0.76165 0.08349 0.0
C727 C 0.86122 0.76908 0.1449 0.0
C728 C 0.8674 0.74624 0.19124 0.0
C729 C 0.87763 0.71623 0.17471 0.0
C730 C 0.88133 0.70889 0.11298 0.0
H731 H 0.84493 0.6921 0.94834 0.0
H732 H 0.85152 0.69344 0.02652 0.0
H733 H 0.84456 0.73489 0.98964 0.0
H734 H 0.85985 0.77956 0.04872 0.0
H735 H 0.85336 0.79252 0.15586 0.0
H736 H 0.6226 0.73671 0.31993 0.0
H737 H 0.61483 0.7409 0.42752 0.0
H738 H 0.64678 0.81984 0.46308 0.0
H739 H 0.65449 0.81622 0.35556 0.0
H740 H 0.63354 0.72478 0.52792 0.0
H741 H 0.60799 0.86827 0.54145 0.0
H742 H 0.61159 0.84402 0.46949 0.0
H743 H 0.62671 0.86267 0.51022 0.0
C744 C 0.62788 0.75522 0.35049 0.0
C745 C 0.63915 0.77616 0.32918 0.0
C746 C 0.62342 0.75758 0.41191 0.0
C747 C 0.63009 0.78105 0.45299 0.0
C748 C 0.64127 0.80215 0.43183 0.0
H749 H 0.62457 0.81315 0.8487 0.0
H750 H 0.63038 0.81753 0.73941 0.0
C751 C 0.64573 0.79983 0.37043 0.0
C752 C 0.62598 0.78172 0.51872 0.0
H753 H 0.61138 0.83709 0.63557 0.0
C754 C 0.62862 0.74927 0.5514 0.0
C755 C 0.61968 0.81382 0.54922 0.0
C756 C 0.61619 0.84913 0.5158 0.0
C757 C 0.62525 0.74809 0.61399 0.0
C758 C 0.61882 0.78008 0.64441 0.0
C759 C 0.61629 0.81264 0.61196 0.0
C760 C 0.61448 0.77984 0.70978 0.0
C761 C 0.62883 0.71275 0.64733 0.0
C762 C 0.60332 0.75808 0.72886 0.0
C763 C 0.6 0.75545 0.79099 0.0
C764 C 0.60775 0.77471 0.83522 0.0
C765 C 0.61847 0.7978 0.81576 0.0
C766 C 0.62179 0.80038 0.75343 0.0
H767 H 0.63707 0.69374 0.62165 0.0
H768 H 0.63343 0.71788 0.69364 0.0
H769 H 0.61835 0.69904 0.65288 0.0
H770 H 0.59735 0.74258 0.69568 0.0
H771 H 0.59158 0.7377 0.80434 0.0
H772 H 0.40195 0.7785 0.8067 0.0
H773 H 0.40123 0.78435 0.69519 0.0
H774 H 0.35348 0.81523 0.70369 0.0
H775 H 0.354 0.8091 0.81524 0.0
H776 H 0.37868 0.7418 0.61867 0.0
H777 H 0.37478 0.89262 0.59135 0.0
H778 H 0.38365 0.87035 0.65692 0.0
H779 H 0.36355 0.87473 0.65038 0.0
C780 C 0.39131 0.78698 0.78498 0.0
C781 C 0.378 0.79315 0.81967 0.0
C782 C 0.39095 0.79029 0.72138 0.0
C783 C 0.37733 0.80038 0.69171 0.0
C784 C 0.36411 0.80769 0.72619 0.0
H785 H 0.34198 0.82686 0.33187 0.0
H786 H 0.34845 0.82965 0.44018 0.0
C787 C 0.36442 0.80404 0.78975 0.0
C788 C 0.37666 0.80048 0.6243 0.0
H789 H 0.37129 0.8567 0.50234 0.0
C790 C 0.37723 0.76683 0.59289 0.0
C791 C 0.37468 0.83327 0.59156 0.0
C792 C 0.3742 0.86993 0.62393 0.0
C793 C 0.37529 0.76503 0.52922 0.0
C794 C 0.37317 0.79789 0.49618 0.0
C795 C 0.37299 0.83158 0.52772 0.0
C796 C 0.36998 0.79789 0.42966 0.0
C797 C 0.3748 0.72804 0.49851 0.0
C798 C 0.38009 0.77975 0.38753 0.0
C799 C 0.37633 0.77768 0.32546 0.0
C800 C 0.3625 0.79426 0.30455 0.0
C801 C 0.3527 0.81371 0.34651 0.0
C802 C 0.3564 0.81541 0.40847 0.0
H803 H 0.3729 0.70653 0.53202 0.0
H804 H 0.36575 0.7286 0.46355 0.0
H805 H 0.38571 0.7202 0.47526 0.0
H806 H 0.3908 0.76681 0.40275 0.0
H807 H 0.38417 0.76285 0.29405 0.0
H808 H 0.60086 0.30179 0.21174 0.0
H809 H 0.6046 0.29011 0.32061 0.0
H810 H 0.62617 0.18304 0.27683 0.0
H811 H 0.62264 0.19467 0.16727 0.0
H812 H 0.59417 0.23522 0.39142 0.0
H813 H 0.65667 0.22687 0.39013 0.0
H814 H 0.64546 0.2452 0.32711 0.0
H815 H 0.64856 0.19665 0.33658 0.0
C816 C 0.60646 0.27576 0.22505 0.0
C817 C 0.61153 0.24923 0.18063 0.0
C818 C 0.60855 0.26912 0.28744 0.0
C819 C 0.61582 0.2359 0.30691 0.0
C820 C 0.62078 0.20915 0.26282 0.0
H821 H 0.64108 0.15906 0.67127 0.0
H822 H 0.63544 0.1631 0.56192 0.0
C823 C 0.61869 0.21578 0.20022 0.0
C824 C 0.61801 0.22941 0.37347 0.0
H825 H 0.64497 0.21441 0.4835 0.0
C826 C 0.60528 0.23063 0.41158 0.0
C827 C 0.6325 0.22341 0.3997 0.0
C828 C 0.64661 0.22324 0.3615 0.0
C829 C 0.60664 0.22583 0.47515 0.0
C830 C 0.62114 0.22028 0.50148 0.0
C831 C 0.63386 0.21862 0.46326 0.0
C832 C 0.62344 0.21687 0.56866 0.0
C833 C 0.59254 0.22626 0.51343 0.0
C834 C 0.61847 0.24567 0.60903 0.0
C835 C 0.62164 0.24342 0.67175 0.0
C836 C 0.62995 0.21241 0.69526 0.0
C837 C 0.63464 0.18333 0.65483 0.0
C838 C 0.63145 0.1856 0.59221 0.0
H839 H 0.58265 0.22049 0.48517 0.0
H840 H 0.59394 0.20589 0.55041 0.0
H841 H 0.59012 0.25372 0.53502 0.0
H842 H 0.61253 0.27038 0.59179 0.0
H843 H 0.61796 0.26642 0.70146 0.0
H844 H 0.36923 0.26078 0.18315 0.0
H845 H 0.36484 0.26287 0.29375 0.0
H846 H 0.40257 0.18253 0.31866 0.0
H847 H 0.40723 0.18073 0.2081 0.0
H848 H 0.35857 0.20893 0.37341 0.0
H849 H 0.41256 0.26404 0.43607 0.0
H850 H 0.40574 0.26324 0.35829 0.0
H851 H 0.4145 0.2223 0.39163 0.0
C852 C 0.37659 0.24347 0.21205 0.0
C853 C 0.38865 0.22076 0.18668 0.0
C854 C 0.37406 0.24471 0.27533 0.0
C855 C 0.38354 0.22336 0.31468 0.0
C856 C 0.39533 0.19989 0.2894 0.0
H857 H 0.38074 0.21106 0.71704 0.0
H858 H 0.38721 0.199 0.60866 0.0
C859 C 0.39791 0.19871 0.22607 0.0
C860 C 0.38097 0.22577 0.38201 0.0
H861 H 0.39684 0.24979 0.51774 0.0
C862 C 0.36696 0.21778 0.40493 0.0
C863 C 0.39194 0.23719 0.42324 0.0
C864 C 0.40699 0.24751 0.40121 0.0
C865 C 0.36358 0.22117 0.46774 0.0
C866 C 0.37443 0.23331 0.50871 0.0
C867 C 0.38857 0.24043 0.48618 0.0
C868 C 0.3709 0.24091 0.57441 0.0
C869 C 0.34841 0.21178 0.48984 0.0
C870 C 0.35986 0.26894 0.59101 0.0
C871 C 0.35621 0.276 0.65255 0.0
C872 C 0.36355 0.25519 0.69902 0.0
C873 C 0.37486 0.22754 0.6824 0.0
C874 C 0.37856 0.2206 0.62056 0.0
H875 H 0.343 0.19413 0.45618 0.0
H876 H 0.34942 0.19763 0.53437 0.0
H877 H 0.34091 0.23732 0.49655 0.0
H878 H 0.354 0.28535 0.55619 0.0
H879 H 0.34749 0.29759 0.66354 0.0
H880 H 0.06021 0.23234 0.59028 0.0
H881 H 0.03271 0.23398 0.58888 0.0
H882 H 0.03007 0.33657 0.49523 0.0
H883 H 0.0575 0.3352 0.49613 0.0
H884 H 0.01046 0.29071 0.63641 0.0
H885 H 0.00653 0.26799 0.38475 0.0
H886 H 0.02383 0.25826 0.42671 0.0
H887 H 0.01745 0.3045 0.40816 0.0
C888 C 0.05378 0.25529 0.56948 0.0
C889 C 0.06105 0.28354 0.54297 0.0
C890 C 0.03808 0.25619 0.56884 0.0
C891 C 0.02942 0.28515 0.5413 0.0
C892 C 0.0366 0.31372 0.51592 0.0
H893 H 0.93551 0.33912 0.46157 0.0
H894 H 0.96268 0.33816 0.4755 0.0
C895 C 0.05228 0.31293 0.51669 0.0
C896 C 0.01285 0.28544 0.53846 0.0
H897 H 0.98364 0.28282 0.43823 0.0
C898 C 0.00456 0.28881 0.59321 0.0
C899 C 0.00526 0.28293 0.48195 0.0
C900 C 0.01369 0.2779 0.42199 0.0
C901 C 0.98876 0.29073 0.5928 0.0
C902 C 0.98116 0.28848 0.53618 0.0
C903 C 0.9895 0.2847 0.48155 0.0
C904 C 0.96454 0.29027 0.53209 0.0
C905 C 0.98036 0.29615 0.65272 0.0
C906 C 0.95654 0.26373 0.55959 0.0
C907 C 0.94096 0.26429 0.55197 0.0
C908 C 0.93315 0.29118 0.51611 0.0
C909 C 0.94118 0.31799 0.48939 0.0
C910 C 0.95672 0.3175 0.49725 0.0
H911 H 0.98748 0.30682 0.68941 0.0
H912 H 0.97009 0.31532 0.64765 0.0
H913 H 0.97684 0.26952 0.66764 0.0
H914 H 0.9624 0.24203 0.58561 0.0
H915 H 0.93512 0.24311 0.57284 0.0
H916 H 0.93606 0.81084 0.57747 0.0
H917 H 0.96334 0.81337 0.57195 0.0
H918 H 0.96634 0.72819 0.43292 0.0
H919 H 0.9391 0.72564 0.43761 0.0
H920 H 0.98569 0.7559 0.59371 0.0
H921 H 0.98965 0.80776 0.35756 0.0
H922 H 0.97215 0.8103 0.39965 0.0
H923 H 0.97945 0.76807 0.3634 0.0
C924 C 0.9425 0.79281 0.54539 0.0
C925 C 0.9354 0.76812 0.50781 0.0
C926 C 0.95808 0.7943 0.54236 0.0
C927 C 0.9668 0.77135 0.50143 0.0
C928 C 0.95976 0.74665 0.46393 0.0
H929 H 0.06159 0.72313 0.425 0.0
H930 H 0.03408 0.72645 0.42741 0.0
C931 C 0.9442 0.7451 0.46695 0.0
C932 C 0.98335 0.77213 0.4997 0.0
H933 H 0.01267 0.78654 0.40542 0.0
C934 C 0.9916 0.76287 0.55274 0.0
C935 C 0.99099 0.78115 0.44607 0.0
C936 C 0.98262 0.79271 0.38854 0.0
C937 C 0.00736 0.76151 0.55319 0.0
C938 C 0.01501 0.77028 0.49943 0.0
C939 C 0.00675 0.7798 0.44651 0.0
C940 C 0.03162 0.76922 0.49702 0.0
C941 C 0.01572 0.74972 0.61065 0.0
C942 C 0.0393 0.79266 0.53456 0.0
C943 C 0.055 0.79083 0.53337 0.0
C944 C 0.0633 0.76563 0.49433 0.0
C945 C 0.05554 0.74277 0.45572 0.0
C946 C 0.03983 0.74463 0.45698 0.0
H947 H 0.00854 0.73564 0.64246 0.0
H948 H 0.02591 0.73114 0.59943 0.0
H949 H 0.01937 0.77415 0.63494 0.0
H950 H 0.03313 0.81231 0.56494 0.0
H951 H 0.06062 0.80898 0.56342 0.0
H952 H 0.55559 0.83815 0.96887 0.0
H953 H 0.52875 0.83406 0.98415 0.0
H954 H 0.53829 0.76696 0.14199 0.0
H955 H 0.56528 0.77004 0.1259 0.0
H956 H 0.52002 0.73617 0.06624 0.0
H957 H 0.49782 0.88013 0.1015 0.0
H958 H 0.5088 0.8746 0.03266 0.0
H959 H 0.51767 0.86556 0.10568 0.0
C960 C 0.552 0.82308 0.00757 0.0
C961 C 0.56259 0.80431 0.04605 0.0
C962 C 0.5366 0.821 0.01655 0.0
C963 C 0.53145 0.80067 0.0648 0.0
C964 C 0.54199 0.78298 0.10464 0.0
H965 H 0.43345 0.79332 0.10547 0.0
H966 H 0.45973 0.80227 0.12974 0.0
C967 C 0.55742 0.78478 0.0954 0.0
C968 C 0.51525 0.79472 0.06937 0.0
H969 H 0.47989 0.83887 0.06575 0.0
C970 C 0.51125 0.75867 0.06726 0.0
C971 C 0.50377 0.82396 0.0717 0.0
C972 C 0.50724 0.86319 0.0787 0.0
C973 C 0.49615 0.75111 0.06396 0.0
C974 C 0.48474 0.7804 0.06118 0.0
C975 C 0.48866 0.81642 0.0669 0.0
C976 C 0.46886 0.77422 0.04808 0.0
C977 C 0.4926 0.71177 0.06272 0.0
C978 C 0.46527 0.75589 0.99387 0.0
C979 C 0.45036 0.7506 0.98008 0.0
C980 C 0.43865 0.76393 0.01987 0.0
C981 C 0.44222 0.78258 0.07402 0.0
C982 C 0.45721 0.78776 0.08791 0.0
H983 H 0.50155 0.69392 0.08563 0.0
H984 H 0.48168 0.70857 0.08546 0.0
H985 H 0.49194 0.70213 0.01441 0.0
H986 H 0.47402 0.74606 0.96164 0.0
H987 H 0.44802 0.73641 0.93773 0.0
H988 H 0.43449 0.32473 0.07888 0.0
H989 H 0.46193 0.32468 0.07501 0.0
H990 H 0.46456 0.22992 0.9548 0.0
H991 H 0.43725 0.23004 0.95754 0.0
H992 H 0.48327 0.27031 0.11105 0.0
H993 H 0.48994 0.29842 0.86466 0.0
H994 H 0.47202 0.30547 0.90358 0.0
H995 H 0.47911 0.26047 0.8774 0.0
C996 C 0.4409 0.30407 0.05122 0.0
C997 C 0.43368 0.27749 0.01831 0.0
C998 C 0.45657 0.30409 0.04909 0.0
C999 C 0.46523 0.27768 0.01378 0.0
C1000 C 0.45805 0.25108 0.98112 0.0
H1001 H 0.55734 0.19184 0.04541 0.0
H1002 H 0.53004 0.2053 0.04977 0.0
C1003 C 0.44243 0.25107 0.98309 0.0
C1004 C 0.48185 0.27664 0.01325 0.0
H1005 H 0.51215 0.27443 0.91741 0.0
C1006 C 0.48959 0.27164 0.06883 0.0
C1007 C 0.49006 0.27892 0.95824 0.0
C1008 C 0.48236 0.2865 0.89768 0.0
C1009 C 0.50537 0.26731 0.07053 0.0
C1010 C 0.51355 0.26735 0.01504 0.0
C1011 C 0.50583 0.27392 0.9598 0.0
C1012 C 0.53011 0.25956 0.01304 0.0
C1013 C 0.51312 0.26266 0.13168 0.0
C1014 C 0.53916 0.28523 0.98937 0.0
C1015 C 0.55477 0.27751 0.98631 0.0
C1016 C 0.56158 0.24386 0.00659 0.0
C1017 C 0.55246 0.21808 0.02972 0.0
C1018 C 0.53686 0.22582 0.03268 0.0
H1019 H 0.50574 0.27388 0.16985 0.0
H1020 H 0.51596 0.23312 0.13975 0.0
H1021 H 0.52371 0.27634 0.13279 0.0
H1022 H 0.53413 0.31132 0.97355 0.0
H1023 H 0.56148 0.29794 0.96819 0.0
loop_
_geom_bond_atom_site_label_1
_geom_bond_atom_site_label_2
_geom_bond_distance
_geom_bond_site_symmetry_2
_ccdc_geom_bond_type
Zn0 O6 1.969 . S
Zn0 O7 1.965 . S
Zn0 O11 2.024 . S
Zn0 O16 1.969 . S
Zn1 O8 1.969 . S
Zn1 O14 1.969 . S
Zn1 O15 1.965 . S
Zn1 O17 2.024 . S
C2 O3 1.229 . S
C2 O11 1.058 . S
O3 C2 1.229 . S
C4 O5 1.229 . S
C4 O17 1.058 . S
O5 C4 1.229 . S
O6 Zn0 1.969 . S
O6 C9 1.267 . S
O7 Zn0 1.965 . S
O7 C18 1.260 . S
O8 Zn1 1.969 . S
O8 C18 1.258 . S
C9 O6 1.267 . S
C9 O10 1.228 . S
O10 C9 1.228 . S
O11 Zn0 2.024 . S
O11 C2 1.058 . S
C12 O13 1.228 . S
C12 O14 1.267 . S
O13 C12 1.228 . S
O14 Zn1 1.969 . S
O14 C12 1.267 . S
O15 Zn1 1.965 . S
O15 C19 1.260 . S
O16 Zn0 1.969 . S
O16 C19 1.258 . S
O17 Zn1 2.024 . S
O17 C4 1.058 . S
C18 O7 1.260 . S
C18 O8 1.258 . S
C19 O15 1.260 . S
C19 O16 1.258 . S
Zn20 O26 1.969 . S
Zn20 O27 1.965 . S
Zn20 O31 2.024 . S
Zn20 O36 1.969 . S
Zn21 O28 1.969 . S
Zn21 O34 1.969 . S
Zn21 O35 1.965 . S
Zn21 O37 2.024 . S
C22 O23 1.229 . S
C22 O31 1.058 . S
O23 C22 1.229 . S
C24 O25 1.229 . S
C24 O37 1.058 . S
O25 C24 1.229 . S
O26 Zn20 1.969 . S
O26 C29 1.267 . S
O27 Zn20 1.965 . S
O27 C38 1.260 . S
O28 Zn21 1.969 . S
O28 C38 1.258 . S
C29 O26 1.267 . S
C29 O30 1.228 . S
O30 C29 1.228 . S
O31 Zn20 2.024 . S
O31 C22 1.058 . S
C32 O33 1.228 . S
C32 O34 1.267 . S
O33 C32 1.228 . S
O34 Zn21 1.969 . S
O34 C32 1.267 . S
O35 Zn21 1.965 . S
O35 C39 1.260 . S
O36 Zn20 1.969 . S
O36 C39 1.258 . S
O37 Zn21 2.024 . S
O37 C24 1.058 . S
C38 O27 1.260 . S
C38 O28 1.258 . S
C39 O35 1.260 . S
C39 O36 1.258 . S
Zn40 O46 1.969 . S
Zn40 O47 1.965 . S
Zn40 O51 2.024 . S
Zn40 O56 1.969 . S
Zn41 O48 1.969 . S
Zn41 O54 1.969 . S
Zn41 O55 1.965 . S
Zn41 O57 2.024 . S
C42 O43 1.229 . S
C42 O51 1.058 . S
O43 C42 1.229 . S
C44 O45 1.229 . S
C44 O57 1.058 . S
O45 C44 1.229 . S
O46 Zn40 1.969 . S
O46 C49 1.267 . S
O47 Zn40 1.965 . S
O47 C58 1.260 . S
O48 Zn41 1.969 . S
O48 C58 1.258 . S
C49 O46 1.267 . S
C49 O50 1.228 . S
O50 C49 1.228 . S
O51 Zn40 2.024 . S
O51 C42 1.058 . S
C52 O53 1.228 . S
C52 O54 1.267 . S
O53 C52 1.228 . S
O54 Zn41 1.969 . S
O54 C52 1.267 . S
O55 Zn41 1.965 . S
O55 C59 1.260 . S
O56 Zn40 1.969 . S
O56 C59 1.258 . S
O57 Zn41 2.024 . S
O57 C44 1.058 . S
C58 O47 1.260 . S
C58 O48 1.258 . S
C59 O55 1.260 . S
C59 O56 1.258 . S
Zn60 O66 1.969 . S
Zn60 O67 1.965 . S
Zn60 O71 2.024 . S
Zn60 O76 1.969 . S
Zn61 O68 1.969 . S
Zn61 O74 1.969 . S
Zn61 O75 1.965 . S
Zn61 O77 2.024 . S
C62 O63 1.229 . S
C62 O71 1.058 . S
O63 C62 1.229 . S
C64 O65 1.229 . S
C64 O77 1.058 . S
O65 C64 1.229 . S
O66 Zn60 1.969 . S
O66 C69 1.267 . S
O67 Zn60 1.965 . S
O67 C78 1.260 . S
O68 Zn61 1.969 . S
O68 C78 1.258 . S
C69 O66 1.267 . S
C69 O70 1.228 . S
O70 C69 1.228 . S
O71 Zn60 2.024 . S
O71 C62 1.058 . S
C72 O73 1.228 . S
C72 O74 1.267 . S
O73 C72 1.228 . S
O74 Zn61 1.969 . S
O74 C72 1.267 . S
O75 Zn61 1.965 . S
O75 C79 1.260 . S
O76 Zn60 1.969 . S
O76 C79 1.258 . S
O77 Zn61 2.024 . S
O77 C64 1.058 . S
C78 O67 1.260 . S
C78 O68 1.258 . S
C79 O75 1.260 . S
C79 O76 1.258 . S
Zn80 O86 1.969 . S
Zn80 O87 1.965 . S
Zn80 O91 2.024 . S
Zn80 O96 1.969 . S
Zn81 O88 1.969 . S
Zn81 O94 1.969 . S
Zn81 O95 1.965 1_556 S
Zn81 O97 2.024 . S
C82 O83 1.229 . S
C82 O91 1.058 . S
O83 C82 1.229 . S
C84 O85 1.229 . S
C84 O97 1.058 . S
O85 C84 1.229 . S
O86 Zn80 1.969 . S
O86 C89 1.267 . S
O87 Zn80 1.965 . S
O87 C98 1.258 1_554 S
O88 Zn81 1.969 . S
O88 C98 1.262 . S
C89 O86 1.267 . S
C89 O90 1.228 . S
O90 C89 1.228 . S
O91 Zn80 2.024 . S
O91 C82 1.058 . S
C92 O93 1.228 . S
C92 O94 1.267 . S
O93 C92 1.228 . S
O94 Zn81 1.969 . S
O94 C92 1.267 . S
O95 Zn81 1.965 1_554 S
O95 C99 1.260 . S
O96 Zn80 1.969 . S
O96 C99 1.258 . S
O97 Zn81 2.024 . S
O97 C84 1.058 . S
C98 O87 1.258 1_556 S
C98 O88 1.262 . S
C99 O95 1.260 . S
C99 O96 1.258 . S
Zn100 O106 1.969 . S
Zn100 O107 1.965 1_556 S
Zn100 O111 2.024 . S
Zn100 O116 1.969 . S
Zn101 O108 1.969 . S
Zn101 O114 1.969 . S
Zn101 O115 1.965 . S
Zn101 O117 2.024 . S
C102 O103 1.229 . S
C102 O111 1.058 . S
O103 C102 1.229 . S
C104 O105 1.229 . S
C104 O117 1.058 . S
O105 C104 1.229 . S
O106 Zn100 1.969 . S
O106 C109 1.267 . S
O107 Zn100 1.965 1_554 S
O107 C118 1.260 . S
O108 Zn101 1.969 . S
O108 C118 1.258 . S
C109 O106 1.267 . S
C109 O110 1.228 . S
O110 C109 1.228 . S
O111 Zn100 2.024 . S
O111 C102 1.058 . S
C112 O113 1.228 . S
C112 O114 1.267 . S
O113 C112 1.228 . S
O114 Zn101 1.969 . S
O114 C112 1.267 . S
O115 Zn101 1.965 . S
O115 C119 1.260 1_554 S
O116 Zn100 1.969 . S
O116 C119 1.258 . S
O117 Zn101 2.024 . S
O117 C104 1.058 . S
C118 O107 1.260 . S
C118 O108 1.258 . S
C119 O115 1.260 1_556 S
C119 O116 1.258 . S
Zn120 O126 1.969 . S
Zn120 O127 1.965 . S
Zn120 O131 2.024 . S
Zn120 O136 1.969 . S
Zn121 O128 1.969 . S
Zn121 O134 1.969 . S
Zn121 O135 1.965 1_554 S
Zn121 O137 2.024 . S
C122 O123 1.229 . S
C122 O131 1.058 . S
O123 C122 1.229 . S
C124 O125 1.229 . S
C124 O137 1.058 . S
O125 C124 1.229 . S
O126 Zn120 1.969 . S
O126 C129 1.267 . S
O127 Zn120 1.965 . S
O127 C138 1.259 1_556 S
O128 Zn121 1.969 . S
O128 C138 1.260 . S
C129 O126 1.267 . S
C129 O130 1.228 . S
O130 C129 1.228 . S
O131 Zn120 2.024 . S
O131 C122 1.058 . S
C132 O133 1.228 . S
C132 O134 1.267 . S
O133 C132 1.228 . S
O134 Zn121 1.969 . S
O134 C132 1.267 . S
O135 Zn121 1.965 1_556 S
O135 C139 1.260 . S
O136 Zn120 1.969 . S
O136 C139 1.258 . S
O137 Zn121 2.024 . S
O137 C124 1.058 . S
C138 O127 1.259 1_554 S
C138 O128 1.260 . S
C139 O135 1.260 . S
C139 O136 1.258 . S
Zn140 O146 1.969 . S
Zn140 O147 1.965 . S
Zn140 O151 2.024 . S
Zn140 O156 1.969 . S
Zn141 O148 1.969 . S
Zn141 O154 1.969 . S
Zn141 O155 1.965 1_554 S
Zn141 O157 2.024 . S
C142 O143 1.229 . S
C142 O151 1.058 . S
O143 C142 1.229 . S
C144 O145 1.229 . S
C144 O157 1.058 . S
O145 C144 1.229 . S
O146 Zn140 1.969 . S
O146 C149 1.267 . S
O147 Zn140 1.965 . S
O147 C158 1.260 . S
O148 Zn141 1.969 . S
O148 C158 1.258 1_554 S
C149 O146 1.267 . S
C149 O150 1.228 . S
O150 C149 1.228 . S
O151 Zn140 2.024 . S
O151 C142 1.058 . S
C152 O153 1.228 . S
C152 O154 1.267 . S
O153 C152 1.228 . S
O154 Zn141 1.969 . S
O154 C152 1.267 . S
O155 Zn141 1.965 1_556 S
O155 C159 1.260 . S
O156 Zn140 1.969 . S
O156 C159 1.258 . S
O157 Zn141 2.024 . S
O157 C144 1.058 . S
C158 O147 1.260 . S
C158 O148 1.258 1_556 S
C159 O155 1.260 . S
C159 O156 1.258 . S
H160 C168 0.929 . S
H161 C170 0.930 . S
H162 C172 0.930 . S
H163 C175 0.929 . S
H164 C178 0.930 . S
H165 C180 0.960 . S
H166 C180 0.960 . S
H167 C180 0.960 . S
C168 H160 0.929 . S
C168 C169 1.377 . S
C168 C170 1.384 . S
C169 C168 1.377 . S
C169 C175 1.390 . S
C170 H161 0.930 . S
C170 C168 1.384 . S
C170 C171 1.372 . S
C171 C170 1.372 . S
C171 C172 1.400 . S
C171 C176 1.490 . S
C172 H162 0.930 . S
C172 C171 1.400 . S
C172 C175 1.386 . S
H173 C189 0.930 . S
H174 C190 0.931 . S
C175 H163 0.929 . S
C175 C169 1.390 . S
C175 C172 1.386 . S
C176 C171 1.490 . S
C176 C178 1.395 . S
C176 C179 1.403 . S
H177 C183 0.930 . S
C178 H164 0.930 . S
C178 C176 1.395 . S
C178 C181 1.403 . S
C179 C176 1.403 . S
C179 C180 1.524 . S
C179 C183 1.400 . S
C180 H165 0.960 . S
C180 H166 0.960 . S
C180 H167 0.960 . S
C180 C179 1.524 . S
C181 C178 1.403 . S
C181 C182 1.392 . S
C181 C185 1.495 . S
C182 C181 1.392 . S
C182 C183 1.385 . S
C182 C184 1.478 . S
C183 H177 0.930 . S
C183 C179 1.400 . S
C183 C182 1.385 . S
C184 C182 1.478 . S
C184 C186 1.381 . S
C184 C190 1.383 . S
C185 C181 1.495 . S
C185 H191 0.959 . S
C185 H192 0.961 . S
C185 H193 0.960 . S
C186 C184 1.381 . S
C186 C187 1.394 . S
C186 H194 0.930 . S
C187 C186 1.394 . S
C187 C188 1.383 . S
C187 H195 0.929 . S
C188 C187 1.383 . S
C188 C189 1.377 . S
C189 H173 0.930 . S
C189 C188 1.377 . S
C189 C190 1.379 . S
C190 H174 0.931 . S
C190 C184 1.383 . S
C190 C189 1.379 . S
H191 C185 0.959 . S
H192 C185 0.961 . S
H193 C185 0.960 . S
H194 C186 0.930 . S
H195 C187 0.929 . S
H196 C204 0.929 . S
H197 C206 0.930 . S
H198 C208 0.930 . S
H199 C211 0.929 . S
H200 C214 0.930 . S
H201 C216 0.960 . S
H202 C216 0.960 . S
H203 C216 0.960 . S
C204 H196 0.929 . S
C204 C205 1.377 . S
C204 C206 1.384 . S
C205 C204 1.377 . S
C205 C211 1.390 . S
C206 H197 0.930 . S
C206 C204 1.384 . S
C206 C207 1.372 . S
C207 C206 1.372 . S
C207 C208 1.400 . S
C207 C212 1.490 . S
C208 H198 0.930 . S
C208 C207 1.400 . S
C208 C211 1.386 . S
H209 C225 0.930 . S
H210 C226 0.931 . S
C211 H199 0.929 . S
C211 C205 1.390 . S
C211 C208 1.386 . S
C212 C207 1.490 . S
C212 C214 1.395 . S
C212 C215 1.403 . S
H213 C219 0.930 . S
C214 H200 0.930 . S
C214 C212 1.395 . S
C214 C217 1.403 . S
C215 C212 1.403 . S
C215 C216 1.524 . S
C215 C219 1.400 . S
C216 H201 0.960 . S
C216 H202 0.960 . S
C216 H203 0.960 . S
C216 C215 1.524 . S
C217 C214 1.403 . S
C217 C218 1.392 . S
C217 C221 1.495 . S
C218 C217 1.392 . S
C218 C219 1.385 . S
C218 C220 1.478 . S
C219 H213 0.930 . S
C219 C215 1.400 . S
C219 C218 1.385 . S
C220 C218 1.478 . S
C220 C222 1.381 . S
C220 C226 1.383 . S
C221 C217 1.495 . S
C221 H227 0.959 . S
C221 H228 0.961 . S
C221 H229 0.960 . S
C222 C220 1.381 . S
C222 C223 1.394 . S
C222 H230 0.930 . S
C223 C222 1.394 . S
C223 C224 1.383 . S
C223 H231 0.929 . S
C224 C223 1.383 . S
C224 C225 1.377 . S
C225 H209 0.930 . S
C225 C224 1.377 . S
C225 C226 1.379 . S
C226 H210 0.931 . S
C226 C220 1.383 . S
C226 C225 1.379 . S
H227 C221 0.959 . S
H228 C221 0.961 . S
H229 C221 0.960 . S
H230 C222 0.930 . S
H231 C223 0.929 . S
H232 C240 0.929 . S
H233 C242 0.930 . S
H234 C244 0.930 . S
H235 C247 0.929 . S
H236 C250 0.930 . S
H237 C252 0.960 . S
H238 C252 0.960 . S
H239 C252 0.960 . S
C240 H232 0.929 . S
C240 C241 1.377 . S
C240 C242 1.384 . S
C241 C240 1.377 . S
C241 C247 1.390 . S
C242 H233 0.930 . S
C242 C240 1.384 . S
C242 C243 1.372 . S
C243 C242 1.372 . S
C243 C244 1.400 . S
C243 C248 1.490 . S
C244 H234 0.930 . S
C244 C243 1.400 . S
C244 C247 1.386 . S
H245 C261 0.930 . S
H246 C262 0.931 . S
C247 H235 0.929 . S
C247 C241 1.390 . S
C247 C244 1.386 . S
C248 C243 1.490 . S
C248 C250 1.395 . S
C248 C251 1.403 . S
H249 C255 0.930 . S
C250 H236 0.930 . S
C250 C248 1.395 . S
C250 C253 1.403 . S
C251 C248 1.403 . S
C251 C252 1.524 . S
C251 C255 1.400 . S
C252 H237 0.960 . S
C252 H238 0.960 . S
C252 H239 0.960 . S
C252 C251 1.524 . S
C253 C250 1.403 . S
C253 C254 1.392 . S
C253 C257 1.495 . S
C254 C253 1.392 . S
C254 C255 1.385 . S
C254 C256 1.478 . S
C255 H249 0.930 . S
C255 C251 1.400 . S
C255 C254 1.385 . S
C256 C254 1.478 . S
C256 C258 1.381 . S
C256 C262 1.383 . S
C257 C253 1.495 . S
C257 H263 0.959 . S
C257 H264 0.961 . S
C257 H265 0.960 . S
C258 C256 1.381 . S
C258 C259 1.394 . S
C258 H266 0.930 . S
C259 C258 1.394 . S
C259 C260 1.383 . S
C259 H267 0.929 . S
C260 C259 1.383 . S
C260 C261 1.377 . S
C261 H245 0.930 . S
C261 C260 1.377 . S
C261 C262 1.379 . S
C262 H246 0.931 . S
C262 C256 1.383 . S
C262 C261 1.379 . S
H263 C257 0.959 . S
H264 C257 0.961 . S
H265 C257 0.960 . S
H266 C258 0.930 . S
H267 C259 0.929 . S
H268 C276 0.929 . S
H269 C278 0.930 . S
H270 C280 0.930 . S
H271 C283 0.929 . S
H272 C286 0.930 . S
H273 C288 0.960 . S
H274 C288 0.960 . S
H275 C288 0.960 . S
C276 H268 0.929 . S
C276 C277 1.377 . S
C276 C278 1.384 . S
C277 C276 1.377 . S
C277 C283 1.390 . S
C278 H269 0.930 . S
C278 C276 1.384 . S
C278 C279 1.372 . S
C279 C278 1.372 . S
C279 C280 1.400 . S
C279 C284 1.490 . S
C280 H270 0.930 . S
C280 C279 1.400 . S
C280 C283 1.386 . S
H281 C297 0.930 . S
H282 C298 0.931 . S
C283 H271 0.929 . S
C283 C277 1.390 . S
C283 C280 1.386 . S
C284 C279 1.490 . S
C284 C286 1.395 . S
C284 C287 1.403 . S
H285 C291 0.930 . S
C286 H272 0.930 . S
C286 C284 1.395 . S
C286 C289 1.403 . S
C287 C284 1.403 . S
C287 C288 1.524 . S
C287 C291 1.400 . S
C288 H273 0.960 . S
C288 H274 0.960 . S
C288 H275 0.960 . S
C288 C287 1.524 . S
C289 C286 1.403 . S
C289 C290 1.392 . S
C289 C293 1.495 . S
C290 C289 1.392 . S
C290 C291 1.385 . S
C290 C292 1.478 . S
C291 H285 0.930 . S
C291 C287 1.400 . S
C291 C290 1.385 . S
C292 C290 1.478 . S
C292 C294 1.381 . S
C292 C298 1.383 . S
C293 C289 1.495 . S
C293 H299 0.959 . S
C293 H300 0.961 . S
C293 H301 0.960 . S
C294 C292 1.381 . S
C294 C295 1.394 . S
C294 H302 0.930 . S
C295 C294 1.394 . S
C295 C296 1.383 . S
C295 H303 0.929 . S
C296 C295 1.383 . S
C296 C297 1.377 . S
C297 H281 0.930 . S
C297 C296 1.377 . S
C297 C298 1.379 . S
C298 H282 0.931 . S
C298 C292 1.383 . S
C298 C297 1.379 . S
H299 C293 0.959 . S
H300 C293 0.961 . S
H301 C293 0.960 . S
H302 C294 0.930 . S
H303 C295 0.929 . S
H304 C312 0.929 . S
H305 C314 0.930 . S
H306 C316 0.930 . S
H307 C319 0.929 . S
H308 C322 0.930 . S
H309 C324 0.960 . S
H310 C324 0.960 . S
H311 C324 0.960 . S
C312 H304 0.929 . S
C312 C313 1.377 . S
C312 C314 1.384 . S
C313 C312 1.377 . S
C313 C319 1.390 . S
C314 H305 0.930 . S
C314 C312 1.384 . S
C314 C315 1.372 . S
C315 C314 1.372 . S
C315 C316 1.400 . S
C315 C320 1.490 . S
C316 H306 0.930 . S
C316 C315 1.400 . S
C316 C319 1.386 . S
H317 C333 0.930 . S
H318 C334 0.931 . S
C319 H307 0.929 . S
C319 C313 1.390 . S
C319 C316 1.386 . S
C320 C315 1.490 . S
C320 C322 1.395 . S
C320 C323 1.403 . S
H321 C327 0.930 . S
C322 H308 0.930 . S
C322 C320 1.395 . S
C322 C325 1.403 1_565 S
C323 C320 1.403 . S
C323 C324 1.524 . S
C323 C327 1.400 1_565 S
C324 H309 0.960 . S
C324 H310 0.960 . S
C324 H311 0.960 . S
C324 C323 1.524 . S
C325 C322 1.403 1_545 S
C325 C326 1.392 . S
C325 C329 1.495 . S
C326 C325 1.392 . S
C326 C327 1.385 . S
C326 C328 1.478 . S
C327 H321 0.930 . S
C327 C323 1.400 1_545 S
C327 C326 1.385 . S
C328 C326 1.478 . S
C328 C330 1.381 . S
C328 C334 1.383 . S
C329 C325 1.495 . S
C329 H335 0.959 . S
C329 H336 0.961 . S
C329 H337 0.960 . S
C330 C328 1.381 . S
C330 C331 1.394 . S
C330 H338 0.930 . S
C331 C330 1.394 . S
C331 C332 1.383 . S
C331 H339 0.929 . S
C332 C331 1.383 . S
C332 C333 1.377 . S
C333 H317 0.930 . S
C333 C332 1.377 . S
C333 C334 1.379 . S
C334 H318 0.931 . S
C334 C328 1.383 . S
C334 C333 1.379 . S
H335 C329 0.959 . S
H336 C329 0.961 . S
H337 C329 0.960 . S
H338 C330 0.930 . S
H339 C331 0.929 . S
H340 C348 0.929 . S
H341 C350 0.930 . S
H342 C352 0.930 . S
H343 C355 0.929 . S
H344 C358 0.930 . S
H345 C360 0.960 . S
H346 C360 0.960 . S
H347 C360 0.960 . S
C348 H340 0.929 . S
C348 C349 1.377 . S
C348 C350 1.384 . S
C349 C348 1.377 . S
C349 C355 1.390 . S
C350 H341 0.930 . S
C350 C348 1.384 . S
C350 C351 1.372 . S
C351 C350 1.372 . S
C351 C352 1.400 . S
C351 C356 1.490 . S
C352 H342 0.930 . S
C352 C351 1.400 . S
C352 C355 1.386 . S
H353 C369 0.930 . S
H354 C370 0.931 . S
C355 H343 0.929 . S
C355 C349 1.390 . S
C355 C352 1.386 . S
C356 C351 1.490 . S
C356 C358 1.395 . S
C356 C359 1.403 . S
H357 C363 0.930 . S
C358 H344 0.930 . S
C358 C356 1.395 . S
C358 C361 1.403 . S
C359 C356 1.403 . S
C359 C360 1.524 . S
C359 C363 1.400 . S
C360 H345 0.960 . S
C360 H346 0.960 . S
C360 H347 0.960 . S
C360 C359 1.524 . S
C361 C358 1.403 . S
C361 C362 1.392 . S
C361 C365 1.495 . S
C362 C361 1.392 . S
C362 C363 1.385 . S
C362 C364 1.478 . S
C363 H357 0.930 . S
C363 C359 1.400 . S
C363 C362 1.385 . S
C364 C362 1.478 . S
C364 C366 1.381 . S
C364 C370 1.383 . S
C365 C361 1.495 . S
C365 H371 0.959 . S
C365 H372 0.961 . S
C365 H373 0.960 . S
C366 C364 1.381 . S
C366 C367 1.394 . S
C366 H374 0.930 . S
C367 C366 1.394 . S
C367 C368 1.383 . S
C367 H375 0.929 . S
C368 C367 1.383 . S
C368 C369 1.377 . S
C369 H353 0.930 . S
C369 C368 1.377 . S
C369 C370 1.379 . S
C370 H354 0.931 . S
C370 C364 1.383 . S
C370 C369 1.379 . S
H371 C365 0.959 . S
H372 C365 0.961 . S
H373 C365 0.960 . S
H374 C366 0.930 . S
H375 C367 0.929 . S
H376 C384 0.929 . S
H377 C386 0.930 . S
H378 C388 0.930 . S
H379 C391 0.929 . S
H380 C394 0.930 . S
H381 C396 0.960 . S
H382 C396 0.960 . S
H383 C396 0.960 . S
C384 H376 0.929 . S
C384 C385 1.377 . S
C384 C386 1.384 . S
C385 C384 1.377 . S
C385 C391 1.390 . S
C386 H377 0.930 . S
C386 C384 1.384 . S
C386 C387 1.372 . S
C387 C386 1.372 . S
C387 C388 1.400 . S
C387 C392 1.490 . S
C388 H378 0.930 . S
C388 C387 1.400 . S
C388 C391 1.386 . S
H389 C405 0.930 . S
H390 C406 0.931 . S
C391 H379 0.929 . S
C391 C385 1.390 . S
C391 C388 1.386 . S
C392 C387 1.490 . S
C392 C394 1.395 . S
C392 C395 1.403 . S
H393 C399 0.930 . S
C394 H380 0.930 . S
C394 C392 1.395 . S
C394 C397 1.403 1_565 S
C395 C392 1.403 . S
C395 C396 1.524 . S
C395 C399 1.400 1_565 S
C396 H381 0.960 . S
C396 H382 0.960 . S
C396 H383 0.960 . S
C396 C395 1.524 . S
C397 C394 1.403 1_545 S
C397 C398 1.392 . S
C397 C401 1.495 . S
C398 C397 1.392 . S
C398 C399 1.385 . S
C398 C400 1.478 . S
C399 H393 0.930 . S
C399 C395 1.400 1_545 S
C399 C398 1.385 . S
C400 C398 1.478 . S
C400 C402 1.381 . S
C400 C406 1.383 . S
C401 C397 1.495 . S
C401 H407 0.959 . S
C401 H408 0.961 . S
C401 H409 0.960 . S
C402 C400 1.381 . S
C402 C403 1.394 . S
C402 H410 0.930 . S
C403 C402 1.394 . S
C403 C404 1.383 . S
C403 H411 0.929 . S
C404 C403 1.383 . S
C404 C405 1.377 . S
C405 H389 0.930 . S
C405 C404 1.377 . S
C405 C406 1.379 . S
C406 H390 0.931 . S
C406 C400 1.383 . S
C406 C405 1.379 . S
H407 C401 0.959 . S
H408 C401 0.961 . S
H409 C401 0.960 . S
H410 C402 0.930 . S
H411 C403 0.929 . S
H412 C420 0.929 . S
H413 C422 0.930 . S
H414 C424 0.930 . S
H415 C427 0.929 . S
H416 C430 0.930 . S
H417 C432 0.960 . S
H418 C432 0.960 . S
H419 C432 0.960 . S
C420 H412 0.929 . S
C420 C421 1.377 . S
C420 C422 1.384 . S
C421 C420 1.377 . S
C421 C427 1.390 . S
C422 H413 0.930 . S
C422 C420 1.384 . S
C422 C423 1.372 . S
C423 C422 1.372 . S
C423 C424 1.400 . S
C423 C428 1.490 . S
C424 H414 0.930 . S
C424 C423 1.400 . S
C424 C427 1.386 . S
H425 C441 0.930 . S
H426 C442 0.931 . S
C427 H415 0.929 . S
C427 C421 1.390 . S
C427 C424 1.386 . S
C428 C423 1.490 . S
C428 C430 1.395 . S
C428 C431 1.403 . S
H429 C435 0.930 . S
C430 H416 0.930 . S
C430 C428 1.395 . S
C430 C433 1.403 . S
C431 C428 1.403 . S
C431 C432 1.524 . S
C431 C435 1.400 . S
C432 H417 0.960 . S
C432 H418 0.960 . S
C432 H419 0.960 . S
C432 C431 1.524 . S
C433 C430 1.403 . S
C433 C434 1.392 . S
C433 C437 1.495 . S
C434 C433 1.392 . S
C434 C435 1.385 . S
C434 C436 1.478 . S
C435 H429 0.930 . S
C435 C431 1.400 . S
C435 C434 1.385 . S
C436 C434 1.478 . S
C436 C438 1.381 . S
C436 C442 1.383 . S
C437 C433 1.495 . S
C437 H443 0.959 . S
C437 H444 0.961 . S
C437 H445 0.960 . S
C438 C436 1.381 . S
C438 C439 1.394 . S
C438 H446 0.930 . S
C439 C438 1.394 . S
C439 C440 1.383 . S
C439 H447 0.929 . S
C440 C439 1.383 . S
C440 C441 1.377 . S
C441 H425 0.930 . S
C441 C440 1.377 . S
C441 C442 1.379 . S
C442 H426 0.931 . S
C442 C436 1.383 . S
C442 C441 1.379 . S
H443 C437 0.959 . S
H444 C437 0.961 . S
H445 C437 0.960 . S
H446 C438 0.930 . S
H447 C439 0.929 . S
H448 C456 0.929 . S
H449 C458 0.930 . S
H450 C460 0.930 . S
H451 C463 0.928 1_556 S
H452 C466 0.930 . S
H453 C468 0.960 . S
H454 C468 0.960 . S
H455 C468 0.960 . S
C456 H448 0.929 . S
C456 C457 1.377 . S
C456 C458 1.384 . S
C457 C456 1.377 . S
C457 C463 1.391 . S
C458 H449 0.930 . S
C458 C456 1.384 . S
C458 C459 1.372 . S
C459 C458 1.372 . S
C459 C460 1.400 1_554 S
C459 C464 1.490 . S
C460 H450 0.930 . S
C460 C459 1.400 1_556 S
C460 C463 1.386 1_556 S
H461 C477 0.930 . S
H462 C478 0.931 . S
C463 H451 0.928 1_554 S
C463 C457 1.391 . S
C463 C460 1.386 1_554 S
C464 C459 1.490 . S
C464 C466 1.395 1_554 S
C464 C467 1.403 . S
H465 C471 0.930 . S
C466 H452 0.930 . S
C466 C464 1.395 1_556 S
C466 C469 1.403 . S
C467 C464 1.403 . S
C467 C468 1.524 . S
C467 C471 1.400 . S
C468 H453 0.960 . S
C468 H454 0.960 . S
C468 H455 0.960 . S
C468 C467 1.524 . S
C469 C466 1.403 . S
C469 C470 1.392 . S
C469 C473 1.495 . S
C470 C469 1.392 . S
C470 C471 1.385 1_556 S
C470 C472 1.478 . S
C471 H465 0.930 . S
C471 C467 1.400 . S
C471 C470 1.385 1_554 S
C472 C470 1.478 . S
C472 C474 1.379 1_556 S
C472 C478 1.383 . S
C473 C469 1.495 . S
C473 H479 0.959 . S
C473 H480 0.961 . S
C473 H481 0.960 . S
C474 C472 1.379 1_554 S
C474 C475 1.395 . S
C474 H482 0.932 . S
C475 C474 1.395 . S
C475 C476 1.383 1_554 S
C475 H483 0.929 . S
C476 C475 1.383 1_556 S
C476 C477 1.377 . S
C477 H461 0.930 . S
C477 C476 1.377 . S
C477 C478 1.379 . S
C478 H462 0.931 . S
C478 C472 1.383 . S
C478 C477 1.379 . S
H479 C473 0.959 . S
H480 C473 0.961 . S
H481 C473 0.960 . S
H482 C474 0.932 . S
H483 C475 0.929 . S
H484 C492 0.929 . S
H485 C494 0.930 . S
H486 C496 0.930 . S
H487 C499 0.929 . S
H488 C502 0.930 . S
H489 C504 0.960 . S
H490 C504 0.960 . S
H491 C504 0.960 . S
C492 H484 0.929 . S
C492 C493 1.377 1_556 S
C492 C494 1.384 . S
C493 C492 1.377 1_554 S
C493 C499 1.390 . S
C494 H485 0.930 . S
C494 C492 1.384 . S
C494 C495 1.372 1_556 S
C495 C494 1.372 1_554 S
C495 C496 1.400 . S
C495 C500 1.490 1_554 S
C496 H486 0.930 . S
C496 C495 1.400 . S
C496 C499 1.386 . S
H497 C513 0.930 . S
H498 C514 0.931 . S
C499 H487 0.929 . S
C499 C493 1.390 . S
C499 C496 1.386 . S
C500 C495 1.490 1_556 S
C500 C502 1.395 . S
C500 C503 1.403 1_556 S
H501 C507 0.930 . S
C502 H488 0.930 . S
C502 C500 1.395 . S
C502 C505 1.403 1_565 S
C503 C500 1.403 1_554 S
C503 C504 1.524 . S
C503 C507 1.400 1_565 S
C504 H489 0.960 . S
C504 H490 0.960 . S
C504 H491 0.960 . S
C504 C503 1.524 . S
C505 C502 1.403 1_545 S
C505 C506 1.392 . S
C505 C509 1.495 . S
C506 C505 1.392 . S
C506 C507 1.385 1_556 S
C506 C508 1.478 . S
C507 H501 0.930 . S
C507 C503 1.400 1_545 S
C507 C506 1.385 1_554 S
C508 C506 1.478 . S
C508 C510 1.381 . S
C508 C514 1.383 1_556 S
C509 C505 1.495 . S
C509 H515 0.959 . S
C509 H516 0.961 . S
C509 H517 0.960 . S
C510 C508 1.381 . S
C510 C511 1.394 . S
C510 H518 0.930 . S
C511 C510 1.394 . S
C511 C512 1.383 . S
C511 H519 0.929 . S
C512 C511 1.383 . S
C512 C513 1.377 1_556 S
C513 H497 0.930 . S
C513 C512 1.377 1_554 S
C513 C514 1.379 . S
C514 H498 0.931 . S
C514 C508 1.383 1_554 S
C514 C513 1.379 . S
H515 C509 0.959 . S
H516 C509 0.961 . S
H517 C509 0.960 . S
H518 C510 0.930 . S
H519 C511 0.929 . S
H520 C528 0.929 . S
H521 C530 0.930 . S
H522 C532 0.930 . S
H523 C535 0.929 . S
H524 C538 0.930 . S
H525 C540 0.960 . S
H526 C540 0.960 . S
H527 C540 0.960 . S
C528 H520 0.929 . S
C528 C529 1.377 . S
C528 C530 1.384 . S
C529 C528 1.377 . S
C529 C535 1.390 1_556 S
C530 H521 0.930 . S
C530 C528 1.384 . S
C530 C531 1.372 . S
C531 C530 1.372 . S
C531 C532 1.400 1_556 S
C531 C536 1.490 . S
C532 H522 0.930 . S
C532 C531 1.400 1_554 S
C532 C535 1.386 . S
H533 C549 0.930 . S
H534 C550 0.931 . S
C535 H523 0.929 . S
C535 C529 1.390 1_554 S
C535 C532 1.386 . S
C536 C531 1.490 . S
C536 C538 1.395 . S
C536 C539 1.403 1_556 S
H537 C543 0.930 . S
C538 H524 0.930 . S
C538 C536 1.395 . S
C538 C541 1.403 . S
C539 C536 1.403 1_554 S
C539 C540 1.524 . S
C539 C543 1.400 . S
C540 H525 0.960 . S
C540 H526 0.960 . S
C540 H527 0.960 . S
C540 C539 1.524 . S
C541 C538 1.403 . S
C541 C542 1.392 . S
C541 C545 1.495 . S
C542 C541 1.392 . S
C542 C543 1.385 1_556 S
C542 C544 1.478 . S
C543 H537 0.930 . S
C543 C539 1.400 . S
C543 C542 1.385 1_554 S
C544 C542 1.478 . S
C544 C546 1.381 . S
C544 C550 1.383 1_556 S
C545 C541 1.495 . S
C545 H551 0.959 . S
C545 H552 0.961 . S
C545 H553 0.960 . S
C546 C544 1.381 . S
C546 C547 1.394 . S
C546 H554 0.930 . S
C547 C546 1.394 . S
C547 C548 1.383 1_556 S
C547 H555 0.929 . S
C548 C547 1.383 1_554 S
C548 C549 1.377 . S
C549 H533 0.930 . S
C549 C548 1.377 . S
C549 C550 1.379 . S
C550 H534 0.931 . S
C550 C544 1.383 1_554 S
C550 C549 1.379 . S
H551 C545 0.959 . S
H552 C545 0.961 . S
H553 C545 0.960 . S
H554 C546 0.930 . S
H555 C547 0.929 . S
H556 C564 0.929 . S
H557 C566 0.930 . S
H558 C568 0.930 . S
H559 C571 0.929 . S
H560 C574 0.930 . S
H561 C576 0.960 . S
H562 C576 0.960 . S
H563 C576 0.960 . S
C564 H556 0.929 . S
C564 C565 1.377 1_554 S
C564 C566 1.384 . S
C565 C564 1.377 1_556 S
C565 C571 1.390 . S
C566 H557 0.930 . S
C566 C564 1.384 . S
C566 C567 1.372 1_554 S
C567 C566 1.372 1_556 S
C567 C568 1.400 . S
C567 C572 1.490 . S
C568 H558 0.930 . S
C568 C567 1.400 . S
C568 C571 1.386 . S
H569 C585 0.930 . S
H570 C586 0.931 . S
C571 H559 0.929 . S
C571 C565 1.390 . S
C571 C568 1.386 . S
C572 C567 1.490 . S
C572 C574 1.395 . S
C572 C575 1.403 1_556 S
H573 C579 0.930 . S
C574 H560 0.930 . S
C574 C572 1.395 . S
C574 C577 1.403 1_545 S
C575 C572 1.403 1_554 S
C575 C576 1.524 . S
C575 C579 1.400 1_545 S
C576 H561 0.960 . S
C576 H562 0.960 . S
C576 H563 0.960 . S
C576 C575 1.524 . S
C577 C574 1.403 1_565 S
C577 C578 1.392 . S
C577 C581 1.495 . S
C578 C577 1.392 . S
C578 C579 1.385 1_556 S
C578 C580 1.478 . S
C579 H573 0.930 . S
C579 C575 1.400 1_565 S
C579 C578 1.385 1_554 S
C580 C578 1.478 . S
C580 C582 1.381 1_556 S
C580 C586 1.383 . S
C581 C577 1.495 . S
C581 H587 0.959 . S
C581 H588 0.961 . S
C581 H589 0.960 . S
C582 C580 1.381 1_554 S
C582 C583 1.394 . S
C582 H590 0.930 . S
C583 C582 1.394 . S
C583 C584 1.383 . S
C583 H591 0.929 . S
C584 C583 1.383 . S
C584 C585 1.377 1_554 S
C585 H569 0.930 . S
C585 C584 1.377 1_556 S
C585 C586 1.379 . S
C586 H570 0.931 . S
C586 C580 1.383 . S
C586 C585 1.379 . S
H587 C581 0.959 . S
H588 C581 0.961 . S
H589 C581 0.960 . S
H590 C582 0.930 . S
H591 C583 0.929 . S
H592 C600 0.929 . S
H593 C602 0.930 . S
H594 C604 0.930 . S
H595 C607 0.929 . S
H596 C610 0.930 . S
H597 C612 0.960 . S
H598 C612 0.960 . S
H599 C612 0.960 . S
C600 H592 0.929 . S
C600 C601 1.377 . S
C600 C602 1.384 . S
C601 C600 1.377 . S
C601 C607 1.390 . S
C602 H593 0.930 . S
C602 C600 1.384 . S
C602 C603 1.372 . S
C603 C602 1.372 . S
C603 C604 1.400 . S
C603 C608 1.490 . S
C604 H594 0.930 . S
C604 C603 1.400 . S
C604 C607 1.386 . S
H605 C621 0.930 . S
H606 C622 0.931 . S
C607 H595 0.929 . S
C607 C601 1.390 . S
C607 C604 1.386 . S
C608 C603 1.490 . S
C608 C610 1.395 . S
C608 C611 1.403 . S
H609 C615 0.930 . S
C610 H596 0.930 . S
C610 C608 1.395 . S
C610 C613 1.403 1_554 S
C611 C608 1.403 . S
C611 C612 1.524 . S
C611 C615 1.400 1_554 S
C612 H597 0.960 . S
C612 H598 0.960 . S
C612 H599 0.960 . S
C612 C611 1.524 . S
C613 C610 1.403 1_556 S
C613 C614 1.392 . S
C613 C617 1.495 . S
C614 C613 1.392 . S
C614 C615 1.385 . S
C614 C616 1.478 . S
C615 H609 0.930 . S
C615 C611 1.400 1_556 S
C615 C614 1.385 . S
C616 C614 1.478 . S
C616 C618 1.381 . S
C616 C622 1.383 . S
C617 C613 1.495 . S
C617 H623 0.959 . S
C617 H624 0.961 . S
C617 H625 0.960 . S
C618 C616 1.381 . S
C618 C619 1.394 . S
C618 H626 0.930 . S
C619 C618 1.394 . S
C619 C620 1.383 . S
C619 H627 0.929 . S
C620 C619 1.383 . S
C620 C621 1.377 . S
C621 H605 0.930 . S
C621 C620 1.377 . S
C621 C622 1.379 . S
C622 H606 0.931 . S
C622 C616 1.383 . S
C622 C621 1.379 . S
H623 C617 0.959 . S
H624 C617 0.961 . S
H625 C617 0.960 . S
H626 C618 0.930 . S
H627 C619 0.929 . S
H628 C636 0.929 . S
H629 C638 0.930 . S
H630 C640 0.930 . S
H631 C643 0.929 . S
H632 C646 0.930 . S
H633 C648 0.960 . S
H634 C648 0.960 . S
H635 C648 0.960 . S
C636 H628 0.929 . S
C636 C637 1.377 . S
C636 C638 1.384 . S
C637 C636 1.377 . S
C637 C643 1.390 . S
C638 H629 0.930 . S
C638 C636 1.384 . S
C638 C639 1.372 . S
C639 C638 1.372 . S
C639 C640 1.400 . S
C639 C644 1.490 . S
C640 H630 0.930 . S
C640 C639 1.400 . S
C640 C643 1.386 . S
H641 C657 0.930 . S
H642 C658 0.931 . S
C643 H631 0.929 . S
C643 C637 1.390 . S
C643 C640 1.386 . S
C644 C639 1.490 . S
C644 C646 1.395 . S
C644 C647 1.403 . S
H645 C651 0.930 . S
C646 H632 0.930 . S
C646 C644 1.395 . S
C646 C649 1.403 1_554 S
C647 C644 1.403 . S
C647 C648 1.524 . S
C647 C651 1.400 1_554 S
C648 H633 0.960 . S
C648 H634 0.960 . S
C648 H635 0.960 . S
C648 C647 1.524 . S
C649 C646 1.403 1_556 S
C649 C650 1.392 . S
C649 C653 1.495 . S
C650 C649 1.392 . S
C650 C651 1.385 . S
C650 C652 1.478 . S
C651 H645 0.930 . S
C651 C647 1.400 1_556 S
C651 C650 1.385 . S
C652 C650 1.478 . S
C652 C654 1.381 . S
C652 C658 1.383 . S
C653 C649 1.495 . S
C653 H659 0.959 . S
C653 H660 0.961 . S
C653 H661 0.960 . S
C654 C652 1.381 . S
C654 C655 1.394 . S
C654 H662 0.930 . S
C655 C654 1.394 . S
C655 C656 1.383 . S
C655 H663 0.929 . S
C656 C655 1.383 . S
C656 C657 1.377 . S
C657 H641 0.930 . S
C657 C656 1.377 . S
C657 C658 1.379 . S
C658 H642 0.931 . S
C658 C652 1.383 . S
C658 C657 1.379 . S
H659 C653 0.959 . S
H660 C653 0.961 . S
H661 C653 0.960 . S
H662 C654 0.930 . S
H663 C655 0.929 . S
H664 C672 0.929 . S
H665 C674 0.930 . S
H666 C676 0.930 . S
H667 C679 0.929 . S
H668 C682 0.930 . S
H669 C684 0.960 . S
H670 C684 0.960 . S
H671 C684 0.960 . S
C672 H664 0.929 . S
C672 C673 1.377 . S
C672 C674 1.384 . S
C673 C672 1.377 . S
C673 C679 1.390 . S
C674 H665 0.930 . S
C674 C672 1.384 . S
C674 C675 1.372 . S
C675 C674 1.372 . S
C675 C676 1.400 . S
C675 C680 1.490 . S
C676 H666 0.930 . S
C676 C675 1.400 . S
C676 C679 1.386 . S
H677 C693 0.930 . S
H678 C694 0.931 . S
C679 H667 0.929 . S
C679 C673 1.390 . S
C679 C676 1.386 . S
C680 C675 1.490 . S
C680 C682 1.395 . S
C680 C683 1.403 . S
H681 C687 0.930 . S
C682 H668 0.930 . S
C682 C680 1.395 . S
C682 C685 1.403 1_554 S
C683 C680 1.403 . S
C683 C684 1.524 . S
C683 C687 1.400 1_554 S
C684 H669 0.960 . S
C684 H670 0.960 . S
C684 H671 0.960 . S
C684 C683 1.524 . S
C685 C682 1.403 1_556 S
C685 C686 1.392 . S
C685 C689 1.495 . S
C686 C685 1.392 . S
C686 C687 1.385 . S
C686 C688 1.478 . S
C687 H681 0.930 . S
C687 C683 1.400 1_556 S
C687 C686 1.385 . S
C688 C686 1.478 . S
C688 C690 1.381 . S
C688 C694 1.383 . S
C689 C685 1.495 . S
C689 H695 0.959 . S
C689 H696 0.961 . S
C689 H697 0.960 . S
C690 C688 1.381 . S
C690 C691 1.394 . S
C690 H698 0.930 . S
C691 C690 1.394 . S
C691 C692 1.383 . S
C691 H699 0.929 . S
C692 C691 1.383 . S
C692 C693 1.377 . S
C693 H677 0.930 . S
C693 C692 1.377 . S
C693 C694 1.379 . S
C694 H678 0.931 . S
C694 C688 1.383 . S
C694 C693 1.379 . S
H695 C689 0.959 . S
H696 C689 0.961 . S
H697 C689 0.960 . S
H698 C690 0.930 . S
H699 C691 0.929 . S
H700 C708 0.929 . S
H701 C710 0.930 . S
H702 C712 0.930 . S
H703 C715 0.929 . S
H704 C718 0.930 . S
H705 C720 0.960 . S
H706 C720 0.960 . S
H707 C720 0.960 . S
C708 H700 0.929 . S
C708 C709 1.377 . S
C708 C710 1.384 . S
C709 C708 1.377 . S
C709 C715 1.390 . S
C710 H701 0.930 . S
C710 C708 1.384 . S
C710 C711 1.372 . S
C711 C710 1.372 . S
C711 C712 1.400 . S
C711 C716 1.490 . S
C712 H702 0.930 . S
C712 C711 1.400 . S
C712 C715 1.386 . S
H713 C729 0.930 . S
H714 C730 0.931 . S
C715 H703 0.929 . S
C715 C709 1.390 . S
C715 C712 1.386 . S
C716 C711 1.490 . S
C716 C718 1.395 . S
C716 C719 1.403 . S
H717 C723 0.930 . S
C718 H704 0.930 . S
C718 C716 1.395 . S
C718 C721 1.403 1_556 S
C719 C716 1.403 . S
C719 C720 1.524 . S
C719 C723 1.400 1_556 S
C720 H705 0.960 . S
C720 H706 0.960 . S
C720 H707 0.960 . S
C720 C719 1.524 . S
C721 C718 1.403 1_554 S
C721 C722 1.392 . S
C721 C725 1.495 . S
C722 C721 1.392 . S
C722 C723 1.385 . S
C722 C724 1.478 . S
C723 H717 0.930 . S
C723 C719 1.400 1_554 S
C723 C722 1.385 . S
C724 C722 1.478 . S
C724 C726 1.381 . S
C724 C730 1.383 . S
C725 C721 1.495 . S
C725 H731 0.959 . S
C725 H732 0.961 . S
C725 H733 0.960 . S
C726 C724 1.381 . S
C726 C727 1.394 . S
C726 H734 0.930 . S
C727 C726 1.394 . S
C727 C728 1.383 . S
C727 H735 0.929 . S
C728 C727 1.383 . S
C728 C729 1.377 . S
C729 H713 0.930 . S
C729 C728 1.377 . S
C729 C730 1.379 . S
C730 H714 0.931 . S
C730 C724 1.383 . S
C730 C729 1.379 . S
H731 C725 0.959 . S
H732 C725 0.961 . S
H733 C725 0.960 . S
H734 C726 0.930 . S
H735 C727 0.929 . S
H736 C744 0.929 . S
H737 C746 0.930 . S
H738 C748 0.930 . S
H739 C751 0.929 . S
H740 C754 0.930 . S
H741 C756 0.960 . S
H742 C756 0.960 . S
H743 C756 0.960 . S
C744 H736 0.929 . S
C744 C745 1.377 . S
C744 C746 1.384 . S
C745 C744 1.377 . S
C745 C751 1.390 . S
C746 H737 0.930 . S
C746 C744 1.384 . S
C746 C747 1.372 . S
C747 C746 1.372 . S
C747 C748 1.400 . S
C747 C752 1.490 . S
C748 H738 0.930 . S
C748 C747 1.400 . S
C748 C751 1.386 . S
H749 C765 0.930 . S
H750 C766 0.931 . S
C751 H739 0.929 . S
C751 C745 1.390 . S
C751 C748 1.386 . S
C752 C747 1.490 . S
C752 C754 1.395 . S
C752 C755 1.403 . S
H753 C759 0.930 . S
C754 H740 0.930 . S
C754 C752 1.395 . S
C754 C757 1.403 . S
C755 C752 1.403 . S
C755 C756 1.524 . S
C755 C759 1.400 . S
C756 H741 0.960 . S
C756 H742 0.960 . S
C756 H743 0.960 . S
C756 C755 1.524 . S
C757 C754 1.403 . S
C757 C758 1.392 . S
C757 C761 1.495 . S
C758 C757 1.392 . S
C758 C759 1.385 . S
C758 C760 1.478 . S
C759 H753 0.930 . S
C759 C755 1.400 . S
C759 C758 1.385 . S
C760 C758 1.478 . S
C760 C762 1.381 . S
C760 C766 1.383 . S
C761 C757 1.495 . S
C761 H767 0.959 . S
C761 H768 0.961 . S
C761 H769 0.960 . S
C762 C760 1.381 . S
C762 C763 1.394 . S
C762 H770 0.930 . S
C763 C762 1.394 . S
C763 C764 1.383 . S
C763 H771 0.929 . S
C764 C763 1.383 . S
C764 C765 1.377 . S
C765 H749 0.930 . S
C765 C764 1.377 . S
C765 C766 1.379 . S
C766 H750 0.931 . S
C766 C760 1.383 . S
C766 C765 1.379 . S
H767 C761 0.959 . S
H768 C761 0.961 . S
H769 C761 0.960 . S
H770 C762 0.930 . S
H771 C763 0.929 . S
H772 C780 0.929 . S
H773 C782 0.930 . S
H774 C784 0.930 . S
H775 C787 0.929 . S
H776 C790 0.930 . S
H777 C792 0.960 . S
H778 C792 0.960 . S
H779 C792 0.960 . S
C780 H772 0.929 . S
C780 C781 1.377 . S
C780 C782 1.384 . S
C781 C780 1.377 . S
C781 C787 1.390 . S
C782 H773 0.930 . S
C782 C780 1.384 . S
C782 C783 1.372 . S
C783 C782 1.372 . S
C783 C784 1.400 . S
C783 C788 1.490 . S
C784 H774 0.930 . S
C784 C783 1.400 . S
C784 C787 1.386 . S
H785 C801 0.930 . S
H786 C802 0.931 . S
C787 H775 0.929 . S
C787 C781 1.390 . S
C787 C784 1.386 . S
C788 C783 1.490 . S
C788 C790 1.395 . S
C788 C791 1.403 . S
H789 C795 0.930 . S
C790 H776 0.930 . S
C790 C788 1.395 . S
C790 C793 1.403 . S
C791 C788 1.403 . S
C791 C792 1.524 . S
C791 C795 1.400 . S
C792 H777 0.960 . S
C792 H778 0.960 . S
C792 H779 0.960 . S
C792 C791 1.524 . S
C793 C790 1.403 . S
C793 C794 1.392 . S
C793 C797 1.495 . S
C794 C793 1.392 . S
C794 C795 1.385 . S
C794 C796 1.478 . S
C795 H789 0.930 . S
C795 C791 1.400 . S
C795 C794 1.385 . S
C796 C794 1.478 . S
C796 C798 1.381 . S
C796 C802 1.383 . S
C797 C793 1.495 . S
C797 H803 0.959 . S
C797 H804 0.961 . S
C797 H805 0.960 . S
C798 C796 1.381 . S
C798 C799 1.394 . S
C798 H806 0.930 . S
C799 C798 1.394 . S
C799 C800 1.383 . S
C799 H807 0.929 . S
C800 C799 1.383 . S
C800 C801 1.377 . S
C801 H785 0.930 . S
C801 C800 1.377 . S
C801 C802 1.379 . S
C802 H786 0.931 . S
C802 C796 1.383 . S
C802 C801 1.379 . S
H803 C797 0.959 . S
H804 C797 0.961 . S
H805 C797 0.960 . S
H806 C798 0.930 . S
H807 C799 0.929 . S
H808 C816 0.929 . S
H809 C818 0.930 . S
H810 C820 0.930 . S
H811 C823 0.929 . S
H812 C826 0.930 . S
H813 C828 0.960 . S
H814 C828 0.960 . S
H815 C828 0.960 . S
C816 H808 0.929 . S
C816 C817 1.377 . S
C816 C818 1.384 . S
C817 C816 1.377 . S
C817 C823 1.390 . S
C818 H809 0.930 . S
C818 C816 1.384 . S
C818 C819 1.372 . S
C819 C818 1.372 . S
C819 C820 1.400 . S
C819 C824 1.490 . S
C820 H810 0.930 . S
C820 C819 1.400 . S
C820 C823 1.386 . S
H821 C837 0.930 . S
H822 C838 0.931 . S
C823 H811 0.929 . S
C823 C817 1.390 . S
C823 C820 1.386 . S
C824 C819 1.490 . S
C824 C826 1.395 . S
C824 C827 1.403 . S
H825 C831 0.930 . S
C826 H812 0.930 . S
C826 C824 1.395 . S
C826 C829 1.403 . S
C827 C824 1.403 . S
C827 C828 1.524 . S
C827 C831 1.400 . S
C828 H813 0.960 . S
C828 H814 0.960 . S
C828 H815 0.960 . S
C828 C827 1.524 . S
C829 C826 1.403 . S
C829 C830 1.392 . S
C829 C833 1.495 . S
C830 C829 1.392 . S
C830 C831 1.385 . S
C830 C832 1.478 . S
C831 H825 0.930 . S
C831 C827 1.400 . S
C831 C830 1.385 . S
C832 C830 1.478 . S
C832 C834 1.381 . S
C832 C838 1.383 . S
C833 C829 1.495 . S
C833 H839 0.959 . S
C833 H840 0.961 . S
C833 H841 0.960 . S
C834 C832 1.381 . S
C834 C835 1.394 . S
C834 H842 0.930 . S
C835 C834 1.394 . S
C835 C836 1.383 . S
C835 H843 0.929 . S
C836 C835 1.383 . S
C836 C837 1.377 . S
C837 H821 0.930 . S
C837 C836 1.377 . S
C837 C838 1.379 . S
C838 H822 0.931 . S
C838 C832 1.383 . S
C838 C837 1.379 . S
H839 C833 0.959 . S
H840 C833 0.961 . S
H841 C833 0.960 . S
H842 C834 0.930 . S
H843 C835 0.929 . S
H844 C852 0.929 . S
H845 C854 0.930 . S
H846 C856 0.930 . S
H847 C859 0.929 . S
H848 C862 0.930 . S
H849 C864 0.960 . S
H850 C864 0.960 . S
H851 C864 0.960 . S
C852 H844 0.929 . S
C852 C853 1.377 . S
C852 C854 1.384 . S
C853 C852 1.377 . S
C853 C859 1.390 . S
C854 H845 0.930 . S
C854 C852 1.384 . S
C854 C855 1.372 . S
C855 C854 1.372 . S
C855 C856 1.400 . S
C855 C860 1.490 . S
C856 H846 0.930 . S
C856 C855 1.400 . S
C856 C859 1.386 . S
H857 C873 0.930 . S
H858 C874 0.931 . S
C859 H847 0.929 . S
C859 C853 1.390 . S
C859 C856 1.386 . S
C860 C855 1.490 . S
C860 C862 1.395 . S
C860 C863 1.403 . S
H861 C867 0.930 . S
C862 H848 0.930 . S
C862 C860 1.395 . S
C862 C865 1.403 . S
C863 C860 1.403 . S
C863 C864 1.524 . S
C863 C867 1.400 . S
C864 H849 0.960 . S
C864 H850 0.960 . S
C864 H851 0.960 . S
C864 C863 1.524 . S
C865 C862 1.403 . S
C865 C866 1.392 . S
C865 C869 1.495 . S
C866 C865 1.392 . S
C866 C867 1.385 . S
C866 C868 1.478 . S
C867 H861 0.930 . S
C867 C863 1.400 . S
C867 C866 1.385 . S
C868 C866 1.478 . S
C868 C870 1.381 . S
C868 C874 1.383 . S
C869 C865 1.495 . S
C869 H875 0.959 . S
C869 H876 0.961 . S
C869 H877 0.960 . S
C870 C868 1.381 . S
C870 C871 1.394 . S
C870 H878 0.930 . S
C871 C870 1.394 . S
C871 C872 1.383 . S
C871 H879 0.929 . S
C872 C871 1.383 . S
C872 C873 1.377 . S
C873 H857 0.930 . S
C873 C872 1.377 . S
C873 C874 1.379 . S
C874 H858 0.931 . S
C874 C868 1.383 . S
C874 C873 1.379 . S
H875 C869 0.959 . S
H876 C869 0.961 . S
H877 C869 0.960 . S
H878 C870 0.930 . S
H879 C871 0.929 . S
H880 C888 0.929 . S
H881 C890 0.930 . S
H882 C892 0.930 . S
H883 C895 0.929 . S
H884 C898 0.930 . S
H885 C900 0.960 . S
H886 C900 0.960 . S
H887 C900 0.960 . S
C888 H880 0.929 . S
C888 C889 1.377 . S
C888 C890 1.384 . S
C889 C888 1.377 . S
C889 C895 1.390 . S
C890 H881 0.930 . S
C890 C888 1.384 . S
C890 C891 1.372 . S
C891 C890 1.372 . S
C891 C892 1.400 . S
C891 C896 1.490 . S
C892 H882 0.930 . S
C892 C891 1.400 . S
C892 C895 1.386 . S
H893 C909 0.930 . S
H894 C910 0.931 . S
C895 H883 0.929 . S
C895 C889 1.390 . S
C895 C892 1.386 . S
C896 C891 1.490 . S
C896 C898 1.395 . S
C896 C899 1.403 . S
H897 C903 0.930 . S
C898 H884 0.930 . S
C898 C896 1.395 . S
C898 C901 1.403 1_455 S
C899 C896 1.403 . S
C899 C900 1.524 . S
C899 C903 1.400 1_455 S
C900 H885 0.960 . S
C900 H886 0.960 . S
C900 H887 0.960 . S
C900 C899 1.524 . S
C901 C898 1.403 1_655 S
C901 C902 1.392 . S
C901 C905 1.495 . S
C902 C901 1.392 . S
C902 C903 1.385 . S
C902 C904 1.478 . S
C903 H897 0.930 . S
C903 C899 1.400 1_655 S
C903 C902 1.385 . S
C904 C902 1.478 . S
C904 C906 1.381 . S
C904 C910 1.383 . S
C905 C901 1.495 . S
C905 H911 0.959 . S
C905 H912 0.961 . S
C905 H913 0.960 . S
C906 C904 1.381 . S
C906 C907 1.394 . S
C906 H914 0.930 . S
C907 C906 1.394 . S
C907 C908 1.383 . S
C907 H915 0.929 . S
C908 C907 1.383 . S
C908 C909 1.377 . S
C909 H893 0.930 . S
C909 C908 1.377 . S
C909 C910 1.379 . S
C910 H894 0.931 . S
C910 C904 1.383 . S
C910 C909 1.379 . S
H911 C905 0.959 . S
H912 C905 0.961 . S
H913 C905 0.960 . S
H914 C906 0.930 . S
H915 C907 0.929 . S
H916 C924 0.929 . S
H917 C926 0.930 . S
H918 C928 0.930 . S
H919 C931 0.929 . S
H920 C934 0.930 . S
H921 C936 0.960 . S
H922 C936 0.960 . S
H923 C936 0.960 . S
C924 H916 0.929 . S
C924 C925 1.377 . S
C924 C926 1.384 . S
C925 C924 1.377 . S
C925 C931 1.390 . S
C926 H917 0.930 . S
C926 C924 1.384 . S
C926 C927 1.372 . S
C927 C926 1.372 . S
C927 C928 1.400 . S
C927 C932 1.490 . S
C928 H918 0.930 . S
C928 C927 1.400 . S
C928 C931 1.386 . S
H929 C945 0.930 . S
H930 C946 0.931 . S
C931 H919 0.929 . S
C931 C925 1.390 . S
C931 C928 1.386 . S
C932 C927 1.490 . S
C932 C934 1.395 . S
C932 C935 1.403 . S
H933 C939 0.930 . S
C934 H920 0.930 . S
C934 C932 1.395 . S
C934 C937 1.403 1_655 S
C935 C932 1.403 . S
C935 C936 1.524 . S
C935 C939 1.400 1_655 S
C936 H921 0.960 . S
C936 H922 0.960 . S
C936 H923 0.960 . S
C936 C935 1.524 . S
C937 C934 1.403 1_455 S
C937 C938 1.392 . S
C937 C941 1.495 . S
C938 C937 1.392 . S
C938 C939 1.385 . S
C938 C940 1.478 . S
C939 H933 0.930 . S
C939 C935 1.400 1_455 S
C939 C938 1.385 . S
C940 C938 1.478 . S
C940 C942 1.381 . S
C940 C946 1.383 . S
C941 C937 1.495 . S
C941 H947 0.959 . S
C941 H948 0.961 . S
C941 H949 0.960 . S
C942 C940 1.381 . S
C942 C943 1.394 . S
C942 H950 0.930 . S
C943 C942 1.394 . S
C943 C944 1.383 . S
C943 H951 0.929 . S
C944 C943 1.383 . S
C944 C945 1.377 . S
C945 H929 0.930 . S
C945 C944 1.377 . S
C945 C946 1.379 . S
C946 H930 0.931 . S
C946 C940 1.383 . S
C946 C945 1.379 . S
H947 C941 0.959 . S
H948 C941 0.961 . S
H949 C941 0.960 . S
H950 C942 0.930 . S
H951 C943 0.929 . S
H952 C960 0.929 . S
H953 C962 0.930 . S
H954 C964 0.930 1_554 S
H955 C967 0.929 1_554 S
H956 C970 0.930 . S
H957 C972 0.960 . S
H958 C972 0.960 . S
H959 C972 0.960 . S
C960 H952 0.929 . S
C960 C961 1.377 . S
C960 C962 1.384 . S
C961 C960 1.377 . S
C961 C967 1.390 . S
C962 H953 0.930 . S
C962 C960 1.384 . S
C962 C963 1.372 . S
C963 C962 1.372 . S
C963 C964 1.400 . S
C963 C968 1.490 . S
C964 H954 0.930 1_556 S
C964 C963 1.400 . S
C964 C967 1.386 . S
H965 C981 0.930 1_554 S
H966 C982 0.931 1_554 S
C967 H955 0.929 1_556 S
C967 C961 1.390 . S
C967 C964 1.386 . S
C968 C963 1.490 . S
C968 C970 1.395 . S
C968 C971 1.403 . S
H969 C975 0.930 . S
C970 H956 0.930 . S
C970 C968 1.395 . S
C970 C973 1.403 . S
C971 C968 1.403 . S
C971 C972 1.524 . S
C971 C975 1.400 . S
C972 H957 0.960 . S
C972 H958 0.960 . S
C972 H959 0.960 . S
C972 C971 1.524 . S
C973 C970 1.403 . S
C973 C974 1.392 . S
C973 C977 1.495 . S
C974 C973 1.392 . S
C974 C975 1.385 . S
C974 C976 1.478 . S
C975 H969 0.930 . S
C975 C971 1.400 . S
C975 C974 1.385 . S
C976 C974 1.478 . S
C976 C978 1.381 . S
C976 C982 1.383 . S
C977 C973 1.495 . S
C977 H983 0.959 . S
C977 H984 0.961 . S
C977 H985 0.960 . S
C978 C976 1.381 . S
C978 C979 1.394 . S
C978 H986 0.930 . S
C979 C978 1.394 . S
C979 C980 1.383 . S
C979 H987 0.929 . S
C980 C979 1.383 . S
C980 C981 1.377 . S
C981 H965 0.930 1_556 S
C981 C980 1.377 . S
C981 C982 1.379 . S
C982 H966 0.931 1_556 S
C982 C976 1.383 . S
C982 C981 1.379 . S
H983 C977 0.959 . S
H984 C977 0.961 . S
H985 C977 0.960 . S
H986 C978 0.930 . S
H987 C979 0.929 . S
H988 C996 0.929 . S
H989 C998 0.930 . S
H990 C1000 0.930 . S
H991 C1003 0.929 . S
H992 C1006 0.930 . S
H993 C1008 0.960 . S
H994 C1008 0.960 . S
H995 C1008 0.960 . S
C996 H988 0.929 . S
C996 C997 1.377 . S
C996 C998 1.384 . S
C997 C996 1.377 . S
C997 C1003 1.390 . S
C998 H989 0.930 . S
C998 C996 1.384 . S
C998 C999 1.372 . S
C999 C998 1.372 . S
C999 C1000 1.400 . S
C999 C1004 1.490 . S
C1000 H990 0.930 . S
C1000 C999 1.400 . S
C1000 C1003 1.386 . S
H1001 C1017 0.930 . S
H1002 C1018 0.931 . S
C1003 H991 0.929 . S
C1003 C997 1.390 . S
C1003 C1000 1.386 . S
C1004 C999 1.490 . S
C1004 C1006 1.395 . S
C1004 C1007 1.403 . S
H1005 C1011 0.930 . S
C1006 H992 0.930 . S
C1006 C1004 1.395 . S
C1006 C1009 1.403 . S
C1007 C1004 1.403 . S
C1007 C1008 1.524 1_554 S
C1007 C1011 1.400 . S
C1008 H993 0.960 . S
C1008 H994 0.960 . S
C1008 H995 0.960 . S
C1008 C1007 1.524 1_556 S
C1009 C1006 1.403 . S
C1009 C1010 1.392 . S
C1009 C1013 1.495 . S
C1010 C1009 1.392 . S
C1010 C1011 1.385 . S
C1010 C1012 1.478 . S
C1011 H1005 0.930 . S
C1011 C1007 1.400 . S
C1011 C1010 1.385 . S
C1012 C1010 1.478 . S
C1012 C1014 1.381 . S
C1012 C1018 1.383 . S
C1013 C1009 1.495 . S
C1013 H1019 0.959 . S
C1013 H1020 0.961 . S
C1013 H1021 0.960 . S
C1014 C1012 1.381 . S
C1014 C1015 1.394 . S
C1014 H1022 0.930 . S
C1015 C1014 1.394 . S
C1015 C1016 1.383 . S
C1015 H1023 0.929 . S
C1016 C1015 1.383 . S
C1016 C1017 1.377 . S
C1017 H1001 0.930 . S
C1017 C1016 1.377 . S
C1017 C1018 1.379 . S
C1018 H1002 0.931 . S
C1018 C1012 1.383 . S
C1018 C1017 1.379 . S
H1019 C1013 0.959 . S
H1020 C1013 0.961 . S
H1021 C1013 0.960 . S
H1022 C1014 0.930 . S
H1023 C1015 0.929 . S
C169 C9 1.730 . S
C188 C149 1.742 . S
C205 C129 1.708 . S
C224 C32 1.729 . S
C241 C112 1.711 . S
C260 C49 1.718 . S
C277 C89 1.727 . S
C296 C69 1.696 . S
C313 C58 1.477 . S
C332 C18 1.478 . S
C349 C38 1.113 . S
C368 C78 1.076 . S
C385 C79 1.869 . S
C404 C39 1.855 . S
C421 C59 1.518 . S
C440 C19 1.521 . S
C457 C98 1.469 1_554 S
C476 C138 1.483 1_556 S
C493 C118 1.114 . S
C512 C158 1.123 . S
C529 C159 1.872 . S
C548 C119 1.843 1_554 S
C565 C139 1.520 . S
C584 C99 1.522 . S
C601 C4 1.433 . S
C620 C2 1.420 . S
C637 C22 1.429 . S
C656 C24 1.410 . S
C673 C42 1.420 . S
C692 C44 1.402 . S
C709 C64 1.424 . S
C728 C62 1.398 . S
C745 C82 1.432 . S
C764 C84 1.413 . S
C781 C102 1.426 . S
C800 C104 1.446 . S
C817 C124 1.426 . S
C836 C122 1.447 . S
C853 C144 1.428 . S
C872 C142 1.417 . S
C889 C12 1.996 . S
C908 C29 1.988 . S
C925 C72 1.967 . S
C944 C52 1.959 . S
C961 C92 1.994 . S
C980 C109 1.993 . S
C997 C152 1.969 . S
C1016 C132 1.964 . S
