# Generated by pormake.
# Topology afw, (4)-cn, num edge types: 1
# Building blocks:
#     Node 0, Type 0, BuildingBlock: KUFVIS_clean_sbu_0, # of connection points: 4
#     Node 1, Type 0, BuildingBlock: KUFVIS_clean_sbu_0, # of connection points: 4
#     Node 2, Type 0, BuildingBlock: KUFVIS_clean_sbu_0, # of connection points: 4
#     Node 3, Type 0, BuildingBlock: KUFVIS_clean_sbu_0, # of connection points: 4
#     Node 4, Type 0, BuildingBlock: KUFVIS_clean_sbu_0, # of connection points: 4
#     Node 5, Type 0, BuildingBlock: KUFVIS_clean_sbu_0, # of connection points: 4
#     Node 6, Type 0, BuildingBlock: KUFVIS_clean_sbu_0, # of connection points: 4
#     Node 7, Type 0, BuildingBlock: KUFVIS_clean_sbu_0, # of connection points: 4
#     Node 8, Type 0, BuildingBlock: KUFVIS_clean_sbu_0, # of connection points: 4
#     Edge 9, Type (0, 0), BuildingBlock: XUDNAN_clean_linker_2, # of connection points: 2
#     Edge 10, Type (0, 0), BuildingBlock: XUDNAN_clean_linker_2, # of connection points: 2
#     Edge 11, Type (0, 0), BuildingBlock: XUDNAN_clean_linker_2, # of connection points: 2
#     Edge 12, Type (0, 0), BuildingBlock: XUDNAN_clean_linker_2, # of connection points: 2
#     Edge 13, Type (0, 0), BuildingBlock: XUDNAN_clean_linker_2, # of connection points: 2
#     Edge 14, Type (0, 0), BuildingBlock: XUDNAN_clean_linker_2, # of connection points: 2
#     Edge 15, Type (0, 0), BuildingBlock: XUDNAN_clean_linker_2, # of connection points: 2
#     Edge 16, Type (0, 0), BuildingBlock: XUDNAN_clean_linker_2, # of connection points: 2
#     Edge 17, Type (0, 0), BuildingBlock: XUDNAN_clean_linker_2, # of connection points: 2
#     Edge 18, Type (0, 0), BuildingBlock: XUDNAN_clean_linker_2, # of connection points: 2
#     Edge 19, Type (0, 0), BuildingBlock: XUDNAN_clean_linker_2, # of connection points: 2
#     Edge 20, Type (0, 0), BuildingBlock: XUDNAN_clean_linker_2, # of connection points: 2
#     Edge 21, Type (0, 0), BuildingBlock: XUDNAN_clean_linker_2, # of connection points: 2
#     Edge 22, Type (0, 0), BuildingBlock: XUDNAN_clean_linker_2, # of connection points: 2
#     Edge 23, Type (0, 0), BuildingBlock: XUDNAN_clean_linker_2, # of connection points: 2
#     Edge 24, Type (0, 0), BuildingBlock: XUDNAN_clean_linker_2, # of connection points: 2
#     Edge 25, Type (0, 0), BuildingBlock: XUDNAN_clean_linker_2, # of connection points: 2
#     Edge 26, Type (0, 0), BuildingBlock: XUDNAN_clean_linker_2, # of connection points: 2
# Relax obj value: 0.208
# Max RMSD: 0.226
# Mean RMSD: 0.211
data_MOF--net-afw--node1-KUFVIS_clean_sbu_0--edge1-XUDNAN_clean_linker_2
_symmetry_space_group_name_H-M    P1
_symmetry_Int_Tables_number       1
_symmetry_cell_setting            triclinic
loop_
_symmetry_equiv_pos_as_xyz
'x, y, z'
_cell_length_a     41.312523
_cell_length_b     42.838586
_cell_length_c     32.389193
_cell_angle_alpha  91.258411
_cell_angle_beta   90.353781
_cell_angle_gamma 119.26356
loop_
_atom_site_label
_atom_site_type_symbol
_atom_site_fract_x
_atom_site_fract_y
_atom_site_fract_z
_atom_type_partial_charge
Mn0 Mn 0.00208 0.18721 0.9967 0.0
Mn1 Mn 0.07609 0.26375 0.0326 0.0
C2 C 0.06008 0.19178 0.00158 0.0
C3 C 0.95166 0.13039 0.00586 0.0
C4 C 0.04217 0.25546 0.94712 0.0
O5 O 0.97802 0.21265 0.02713 0.0
O6 O 0.02962 0.26147 0.05213 0.0
C7 C 0.06989 0.25008 0.12219 0.0
N8 N 0.08983 0.2574 0.08694 0.0
C9 C 0.14156 0.25873 0.12315 0.0
C10 C 0.12164 0.25137 0.15987 0.0
C11 C 0.08565 0.24701 0.15937 0.0
C12 C 0.12459 0.26189 0.08712 0.0
H13 H 0.04216 0.24654 0.12193 0.0
C14 C 0.99426 0.24193 0.0486 0.0
O15 O 0.95391 0.14861 0.97351 0.0
O16 O 0.97779 0.14564 0.03379 0.0
N17 N 0.12258 0.26826 0.01612 0.0
C18 C 0.1369 0.27251 0.97755 0.0
C19 C 0.17213 0.27577 0.9724 0.0
C20 C 0.19231 0.27475 0.00692 0.0
C21 C 0.17704 0.27043 0.04631 0.0
C22 C 0.14193 0.26763 0.0496 0.0
H23 H 0.12141 0.2731 0.95088 0.0
O24 O 0.03516 0.16864 0.97601 0.0
O25 O 0.05047 0.21178 0.02298 0.0
O26 O 0.01758 0.2227 0.94989 0.0
O27 O 0.065 0.27338 0.97641 0.0
C28 C 0.1949 0.26797 0.08229 0.0
C29 C 0.17719 0.26215 0.12068 0.0
H30 H 0.13355 0.24865 0.18854 0.0
H31 H 0.07004 0.24116 0.18755 0.0
H32 H 0.18364 0.27886 0.94188 0.0
H33 H 0.21935 0.27697 0.00278 0.0
H34 H 0.22203 0.26995 0.08067 0.0
H35 H 0.19098 0.25977 0.14802 0.0
Mn36 Mn 0.83121 0.81813 0.00909 0.0
Mn37 Mn 0.85751 0.75708 0.98384 0.0
C38 C 0.8884 0.82594 0.03018 0.0
C39 C 0.82973 0.87133 0.99959 0.0
C40 C 0.80487 0.74699 0.05266 0.0
O41 O 0.79591 0.79122 0.96093 0.0
O42 O 0.81373 0.7497 0.95023 0.0
C43 C 0.88105 0.77888 0.89814 0.0
N44 N 0.8889 0.77251 0.93694 0.0
C45 C 0.94785 0.77974 0.91577 0.0
C46 C 0.94038 0.78631 0.87558 0.0
C47 C 0.90696 0.78618 0.86682 0.0
C48 C 0.92134 0.77338 0.94589 0.0
H49 H 0.8551 0.77808 0.891 0.0
C50 C 0.79304 0.76347 0.942 0.0
O51 O 0.80586 0.84639 0.02264 0.0
O52 O 0.85273 0.86431 0.97982 0.0
N53 N 0.90005 0.76152 0.01312 0.0
C54 C 0.90389 0.75651 0.05386 0.0
C55 C 0.93684 0.7582 0.06831 0.0
C56 C 0.96515 0.76415 0.04054 0.0
C57 C 0.96037 0.76875 0.99865 0.0
C58 C 0.92732 0.76772 0.98626 0.0
H59 H 0.88218 0.75177 0.07519 0.0
O60 O 0.87247 0.84081 0.05079 0.0
O61 O 0.87035 0.80645 0.99795 0.0
O62 O 0.80235 0.77495 0.04603 0.0
O63 O 0.82613 0.73861 0.03268 0.0
C64 C 0.987 0.77411 0.96864 0.0
C65 C 0.98066 0.7794 0.92717 0.0
H66 H 0.96014 0.79162 0.85125 0.0
H67 H 0.901 0.79126 0.83588 0.0
H68 H 0.9403 0.75465 0.10071 0.0
H69 H 0.9904 0.7651 0.05171 0.0
H70 H 0.01259 0.77452 0.97716 0.0
H71 H 0.00156 0.78397 0.90448 0.0
Mn72 Mn 0.21093 0.02985 0.01688 0.0
Mn73 Mn 0.20735 0.95423 0.05005 0.0
C74 C 0.15453 0.97853 0.02045 0.0
C75 C 0.21067 0.0831 0.03057 0.0
C76 C 0.23438 0.98454 0.96553 0.0
O77 O 0.2608 0.04747 0.04592 0.0
O78 O 0.25256 0.99629 0.07391 0.0
C79 C 0.19735 0.95963 0.13984 0.0
N80 N 0.18504 0.9415 0.10295 0.0
C81 C 0.132 0.89356 0.13464 0.0
C82 C 0.14422 0.91165 0.173 0.0
C83 C 0.17702 0.94483 0.17559 0.0
C84 C 0.15371 0.90937 0.10016 0.0
H85 H 0.22247 0.98521 0.14196 0.0
C86 C 0.271 0.03032 0.06968 0.0
O87 O 0.22485 0.07835 0.99691 0.0
O88 O 0.19825 0.05759 0.05689 0.0
N89 N 0.1641 0.91213 0.02946 0.0
C90 C 0.15415 0.9 0.98963 0.0
C91 C 0.12075 0.86821 0.98137 0.0
C92 C 0.09802 0.84916 0.01408 0.0
C93 C 0.10883 0.86213 0.0548 0.0
C94 C 0.1425 0.89389 0.06119 0.0
H95 H 0.17133 0.91465 0.96431 0.0
O96 O 0.15852 0.00407 0.99659 0.0
O97 O 0.18378 0.98382 0.04148 0.0
O98 O 0.22641 0.00969 0.96789 0.0
O99 O 0.23032 0.96385 0.99512 0.0
C100 C 0.08692 0.84539 0.08916 0.0
C101 C 0.09856 0.86103 0.12907 0.0
H102 H 0.12839 0.90053 0.20057 0.0
H103 H 0.18652 0.95903 0.20505 0.0
H104 H 0.11242 0.85852 0.94983 0.0
H105 H 0.07209 0.82488 0.00757 0.0
H106 H 0.06072 0.82084 0.08513 0.0
H107 H 0.08116 0.84823 0.15515 0.0
Mn108 Mn 0.66461 0.52367 0.3396 0.0
Mn109 Mn 0.74539 0.59426 0.37339 0.0
C110 C 0.71865 0.52039 0.3388 0.0
C111 C 0.61111 0.46909 0.34921 0.0
C112 C 0.71079 0.5912 0.28999 0.0
O113 O 0.64681 0.55191 0.37442 0.0
O114 O 0.70233 0.59904 0.39331 0.0
C115 C 0.73767 0.58098 0.46308 0.0
N116 N 0.7574 0.58644 0.42789 0.0
C117 C 0.8071 0.58448 0.46477 0.0
C118 C 0.78743 0.57912 0.50146 0.0
C119 C 0.75254 0.57729 0.50058 0.0
C120 C 0.79112 0.58847 0.42842 0.0
H121 H 0.7108 0.57946 0.46255 0.0
C122 C 0.6667 0.58197 0.39318 0.0
O123 O 0.61353 0.48938 0.31884 0.0
O124 O 0.63887 0.48155 0.37526 0.0
N125 N 0.78911 0.59278 0.35707 0.0
C126 C 0.8021 0.5933 0.31838 0.0
C127 C 0.83559 0.5928 0.31347 0.0
C128 C 0.85544 0.59188 0.34835 0.0
C129 C 0.84143 0.59119 0.38786 0.0
C130 C 0.80798 0.5919 0.39087 0.0
H131 H 0.7866 0.5933 0.29147 0.0
O132 O 0.69142 0.50071 0.31343 0.0
O133 O 0.71405 0.54241 0.36322 0.0
O134 O 0.68141 0.56124 0.29433 0.0
O135 O 0.73674 0.60532 0.3172 0.0
C136 C 0.85854 0.58827 0.42423 0.0
C137 C 0.84141 0.58497 0.46266 0.0
H138 H 0.79862 0.57588 0.53038 0.0
H139 H 0.73709 0.57293 0.52872 0.0
H140 H 0.84592 0.59279 0.28284 0.0
H141 H 0.88099 0.59098 0.3444 0.0
H142 H 0.8844 0.58763 0.42286 0.0
H143 H 0.85444 0.58198 0.49028 0.0
Mn144 Mn 0.50231 0.15957 0.36725 0.0
Mn145 Mn 0.51324 0.09361 0.32274 0.0
C146 C 0.55778 0.15945 0.3751 0.0
C147 C 0.50411 0.21435 0.36161 0.0
C148 C 0.46787 0.08419 0.39943 0.0
O149 O 0.45995 0.13656 0.32489 0.0
O150 O 0.47442 0.09831 0.29143 0.0
C151 C 0.54344 0.12492 0.24195 0.0
N152 N 0.54726 0.11161 0.27834 0.0
C153 C 0.60646 0.11859 0.25871 0.0
C154 C 0.60299 0.13204 0.22084 0.0
C155 C 0.57145 0.13542 0.21254 0.0
C156 C 0.57767 0.10858 0.2868 0.0
H157 H 0.51914 0.1274 0.23537 0.0
C158 C 0.45519 0.11426 0.29548 0.0
O159 O 0.48396 0.19186 0.38925 0.0
O160 O 0.52308 0.20515 0.33743 0.0
N161 N 0.55066 0.08718 0.35022 0.0
C162 C 0.55009 0.07439 0.38852 0.0
C163 C 0.58024 0.07052 0.40215 0.0
C164 C 0.6105 0.0796 0.3762 0.0
C165 C 0.61029 0.09238 0.33677 0.0
C166 C 0.57947 0.09564 0.32484 0.0
H167 H 0.52691 0.06729 0.4086 0.0
O168 O 0.54928 0.178 0.40062 0.0
O169 O 0.53387 0.14232 0.34551 0.0
O170 O 0.47638 0.11688 0.40502 0.0
O171 O 0.47838 0.07252 0.36861 0.0
C172 C 0.63951 0.10211 0.30889 0.0
C173 C 0.63748 0.11497 0.26979 0.0
H174 H 0.62456 0.14021 0.1981 0.0
H175 H 0.56869 0.146 0.1835 0.0
H176 H 0.58017 0.06061 0.43261 0.0
H177 H 0.63376 0.07669 0.38688 0.0
H178 H 0.66371 0.09986 0.31723 0.0
H179 H 0.66013 0.12238 0.24862 0.0
Mn180 Mn 0.87587 0.35677 0.3388 0.0
Mn181 Mn 0.93391 0.42947 0.2859 0.0
C182 C 0.87294 0.40888 0.34641 0.0
C183 C 0.82055 0.30338 0.34387 0.0
C184 C 0.95687 0.40711 0.36402 0.0
O185 O 0.89407 0.33575 0.29441 0.0
O186 O 0.93195 0.38556 0.26047 0.0
C187 C 0.89304 0.41225 0.20576 0.0
N188 N 0.90889 0.43486 0.23906 0.0
C189 C 0.89946 0.48039 0.20804 0.0
C190 C 0.88311 0.45764 0.17336 0.0
C191 C 0.87962 0.42331 0.17238 0.0
C192 C 0.9117 0.46765 0.24067 0.0
H193 H 0.89093 0.38611 0.2045 0.0
C194 C 0.91595 0.35159 0.26508 0.0
O195 O 0.84939 0.30999 0.36646 0.0
O196 O 0.82424 0.32739 0.31775 0.0
N197 N 0.9379 0.47358 0.30611 0.0
C198 C 0.95168 0.49111 0.3431 0.0
C199 C 0.95459 0.52484 0.35028 0.0
C200 C 0.94395 0.54048 0.31912 0.0
C201 C 0.92997 0.52199 0.28127 0.0
C202 C 0.92693 0.48811 0.27624 0.0
H203 H 0.95979 0.47917 0.36715 0.0
O204 O 0.86034 0.38487 0.37457 0.0
O205 O 0.8865 0.40152 0.31372 0.0
O206 O 0.92601 0.37893 0.3696 0.0
O207 O 0.96264 0.42756 0.33366 0.0
C208 C 0.91889 0.53581 0.24834 0.0
C209 C 0.90392 0.51513 0.21161 0.0
H210 H 0.873 0.46618 0.14742 0.0
H211 H 0.867 0.40558 0.14575 0.0
H212 H 0.96518 0.53883 0.37969 0.0
H213 H 0.94648 0.56662 0.32466 0.0
H214 H 0.92129 0.5621 0.25114 0.0
H215 H 0.895 0.52584 0.18673 0.0
Mn216 Mn 0.34664 0.85928 0.68219 0.0
Mn217 Mn 0.42346 0.93193 0.71955 0.0
C218 C 0.40333 0.86093 0.6798 0.0
C219 C 0.29454 0.80431 0.69323 0.0
C220 C 0.38639 0.9294 0.63714 0.0
O221 O 0.3262 0.88643 0.71559 0.0
O222 O 0.37902 0.92891 0.74672 0.0
C223 C 0.42142 0.90808 0.80508 0.0
N224 N 0.43975 0.91979 0.76902 0.0
C225 C 0.49211 0.91567 0.79531 0.0
C226 C 0.47404 0.90416 0.83297 0.0
C227 C 0.43846 0.90017 0.83779 0.0
C228 C 0.47367 0.92299 0.76378 0.0
H229 H 0.39387 0.90447 0.80869 0.0
C230 C 0.34367 0.91235 0.74159 0.0
O231 O 0.29627 0.82308 0.66155 0.0
O232 O 0.32248 0.81784 0.71907 0.0
N233 N 0.46861 0.93794 0.69631 0.0
C234 C 0.48235 0.94943 0.6581 0.0
C235 C 0.51768 0.95465 0.64821 0.0
C236 C 0.53868 0.94839 0.67781 0.0
C237 C 0.52435 0.9374 0.71723 0.0
C238 C 0.48915 0.93305 0.72546 0.0
H239 H 0.4665 0.95452 0.63525 0.0
O240 O 0.37586 0.83828 0.65648 0.0
O241 O 0.39636 0.88101 0.70459 0.0
O242 O 0.3625 0.8962 0.63741 0.0
O243 O 0.40899 0.946 0.66732 0.0
C244 C 0.54362 0.93064 0.74868 0.0
C245 C 0.52751 0.91978 0.78769 0.0
H246 H 0.48707 0.89796 0.85823 0.0
H247 H 0.42415 0.89091 0.86659 0.0
H248 H 0.52865 0.9634 0.61781 0.0
H249 H 0.5658 0.95218 0.66996 0.0
H250 H 0.57081 0.93361 0.74317 0.0
H251 H 0.5425 0.91447 0.81156 0.0
Mn252 Mn 0.15773 0.49015 0.68614 0.0
Mn253 Mn 0.17069 0.42682 0.63766 0.0
C254 C 0.21201 0.48858 0.69699 0.0
C255 C 0.16245 0.5466 0.68785 0.0
C256 C 0.12084 0.41223 0.71127 0.0
O257 O 0.11945 0.47237 0.63946 0.0
O258 O 0.13297 0.43336 0.60602 0.0
C259 C 0.20338 0.46174 0.55915 0.0
N260 N 0.20608 0.44685 0.59483 0.0
C261 C 0.26452 0.45211 0.57499 0.0
C262 C 0.26222 0.46724 0.53787 0.0
C263 C 0.23165 0.47231 0.53007 0.0
C264 C 0.23559 0.44222 0.60285 0.0
H265 H 0.17971 0.46531 0.55281 0.0
C266 C 0.11509 0.45071 0.6095 0.0
O267 O 0.13887 0.52118 0.71065 0.0
O268 O 0.18228 0.53885 0.6632 0.0
N269 N 0.2072 0.41906 0.66515 0.0
C270 C 0.20616 0.40593 0.70336 0.0
C271 C 0.23597 0.4016 0.71718 0.0
C272 C 0.26631 0.4104 0.69142 0.0
C273 C 0.26665 0.42368 0.65215 0.0
C274 C 0.23637 0.42785 0.64025 0.0
H275 H 0.18289 0.39906 0.72326 0.0
O276 O 0.20092 0.50411 0.72381 0.0
O277 O 0.19085 0.47438 0.66434 0.0
O278 O 0.12779 0.44432 0.71817 0.0
O279 O 0.1343 0.40283 0.68127 0.0
C280 C 0.29592 0.4331 0.62441 0.0
C281 C 0.29465 0.44692 0.58567 0.0
H282 H 0.28398 0.47543 0.51537 0.0
H283 H 0.22978 0.48414 0.5016 0.0
H284 H 0.23553 0.39141 0.74757 0.0
H285 H 0.28922 0.40696 0.70215 0.0
H286 H 0.31958 0.42992 0.6326 0.0
H287 H 0.31742 0.45426 0.5647 0.0
Mn288 Mn 0.53808 0.68493 0.68612 0.0
Mn289 Mn 0.52276 0.60166 0.70623 0.0
C290 C 0.47863 0.63678 0.68355 0.0
C291 C 0.54316 0.74056 0.7012 0.0
C292 C 0.5545 0.63801 0.62633 0.0
O293 O 0.58486 0.69543 0.71851 0.0
O294 O 0.57216 0.63847 0.72853 0.0
C295 C 0.51885 0.60468 0.7974 0.0
N296 N 0.5032 0.58861 0.76031 0.0
C297 C 0.44966 0.54237 0.79328 0.0
C298 C 0.46532 0.55833 0.83185 0.0
C299 C 0.50002 0.58966 0.8339 0.0
C300 C 0.46986 0.55838 0.75798 0.0
H301 H 0.5455 0.62877 0.79911 0.0
C302 C 0.59317 0.6725 0.73248 0.0
O303 O 0.55916 0.73513 0.66977 0.0
O304 O 0.52603 0.71406 0.72596 0.0
N305 N 0.47577 0.56371 0.68674 0.0
C306 C 0.46309 0.55357 0.64708 0.0
C307 C 0.42792 0.52369 0.63961 0.0
C308 C 0.4063 0.50442 0.67291 0.0
C309 C 0.42004 0.51522 0.71342 0.0
C310 C 0.45537 0.54513 0.71898 0.0
H311 H 0.47956 0.56837 0.62139 0.0
O312 O 0.48695 0.6647 0.66174 0.0
O313 O 0.50552 0.6372 0.705 0.0
O314 O 0.55506 0.66705 0.63654 0.0
O315 O 0.54218 0.61119 0.64966 0.0
C316 C 0.39961 0.49817 0.74854 0.0
C317 C 0.41442 0.51173 0.78844 0.0
H318 H 0.45077 0.54699 0.86007 0.0
H319 H 0.51219 0.60222 0.86354 0.0
H320 H 0.41742 0.51562 0.60826 0.0
H321 H 0.379 0.48165 0.66705 0.0
H322 H 0.37216 0.47506 0.7452 0.0
H323 H 0.39816 0.49878 0.81518 0.0
H324 H 0.20266 0.1223 0.97031 0.0
H325 H 0.19866 0.10907 0.10278 0.0
H326 H 0.16936 0.14697 0.11032 0.0
H327 H 0.21218 0.21672 0.97301 0.0
H328 H 0.18214 0.20567 0.92816 0.0
H329 H 0.21257 0.18682 0.93327 0.0
H330 H 0.15669 0.12306 0.92414 0.0
H331 H 0.12581 0.1411 0.91902 0.0
H332 H 0.11781 0.10889 0.95807 0.0
H333 H 0.12674 0.17083 0.10224 0.0
H334 H 0.07822 0.18464 0.07952 0.0
H335 H 0.10917 0.18385 0.95224 0.0
C336 C 0.19741 0.12904 0.00104 0.0
C337 C 0.20318 0.11316 0.03603 0.0
C338 C 0.19469 0.12128 0.07567 0.0
C339 C 0.17813 0.14286 0.08024 0.0
C340 C 0.17048 0.15623 0.04486 0.0
C341 C 0.18045 0.15025 0.006 0.0
C342 C 0.16391 0.16279 0.97258 0.0
C343 C 0.19452 0.19492 0.95045 0.0
C344 C 0.13962 0.13212 0.94168 0.0
C345 C 0.14077 0.17399 0.9985 0.0
C346 C 0.14574 0.17083 0.04019 0.0
C347 C 0.12382 0.17498 0.0699 0.0
C348 C 0.09638 0.18285 0.05676 0.0
C349 C 0.09148 0.18706 0.01443 0.0
C350 C 0.11368 0.18228 0.98492 0.0
H351 H 0.86736 0.92516 0.94541 0.0
H352 H 0.80543 0.90088 0.05885 0.0
H353 H 0.82495 0.96493 0.06978 0.0
H354 H 0.94332 0.00264 0.97919 0.0
H355 H 0.95072 0.02688 0.93224 0.0
H356 H 0.92784 0.97879 0.93017 0.0
H357 H 0.8712 0.97638 0.8923 0.0
H358 H 0.89413 0.02461 0.89378 0.0
H359 H 0.84847 0.99924 0.91486 0.0
H360 H 0.86146 0.03241 0.07529 0.0
H361 H 0.90473 0.0975 0.06926 0.0
H362 H 0.93755 0.07776 0.94911 0.0
C363 C 0.85694 0.9332 0.97184 0.0
C364 C 0.83479 0.90803 0.00121 0.0
C365 C 0.82207 0.91961 0.03569 0.0
C366 C 0.83317 0.956 0.04226 0.0
C367 C 0.8562 0.98036 0.01353 0.0
C368 C 0.8671 0.96932 0.97838 0.0
C369 C 0.89327 0.00101 0.9533 0.0
C370 C 0.93101 0.0024 0.94847 0.0
C371 C 0.8757 1.00026 0.91105 0.0
C372 C 0.89664 0.03164 0.98067 0.0
C373 C 0.87519 0.01922 0.01541 0.0
C374 C 0.87736 0.04248 0.04757 0.0
C375 C 0.902 0.0793 0.04403 0.0
C376 C 0.92342 0.09241 0.00826 0.0
C377 C 0.92032 0.06834 0.97606 0.0
H378 H 0.94103 0.84948 0.9715 0.0
H379 H 0.9253 0.83619 0.10332 0.0
H380 H 0.99343 0.86928 0.11492 0.0
H381 H 0.0308 0.84821 0.9628 0.0
H382 H 0.04816 0.8836 0.92642 0.0
H383 H -0.00089 0.85316 0.92805 0.0
H384 H 0.98756 0.90681 0.93865 0.0
H385 H 0.03671 0.93723 0.938 0.0
H386 H 0.01002 0.9378 0.98152 0.0
H387 H 0.06147 0.91231 0.11287 0.0
H388 H 0.1258 0.95746 0.0965 0.0
H389 H 0.09769 0.94102 0.96603 0.0
C390 C 0.95211 0.85218 0.00257 0.0
C391 C 0.92831 0.83944 0.03653 0.0
C392 C 0.9434 0.84521 0.07702 0.0
C393 C 0.98192 0.8639 0.08381 0.0
C394 C 0.00473 0.87701 0.04975 0.0
C395 C 0.99044 0.87117 0.00983 0.0
C396 C 0.0205 0.89224 0.97925 0.0
C397 C 0.02482 0.86771 0.94725 0.0
C398 C 0.01325 0.92017 0.95814 0.0
C399 C 0.0539 0.91 0.00797 0.0
C400 C 0.04422 0.90135 0.04858 0.0
C401 C 0.06967 0.91796 0.08104 0.0
C402 C 0.10617 0.94318 0.07152 0.0
C403 C 0.11701 0.95042 0.02997 0.0
C404 C 0.09037 0.93428 0.99793 0.0
H405 H 0.84178 0.42964 0.2857 0.0
H406 H 0.87843 0.4492 0.41391 0.0
H407 H 0.84648 0.48454 0.42463 0.0
H408 H 0.84516 0.51784 0.2682 0.0
H409 H 0.80276 0.49763 0.23787 0.0
H410 H 0.83233 0.47785 0.23667 0.0
H411 H 0.77969 0.41744 0.25813 0.0
H412 H 0.74865 0.43569 0.25874 0.0
H413 H 0.75418 0.41493 0.30405 0.0
H414 H 0.79763 0.50228 0.42584 0.0
H415 H 0.74783 0.51716 0.41289 0.0
H416 H 0.74947 0.49504 0.28228 0.0
C417 C 0.84481 0.44315 0.31529 0.0
C418 C 0.86329 0.43763 0.3488 0.0
C419 C 0.8649 0.4538 0.38782 0.0
C420 C 0.84676 0.47375 0.3942 0.0
C421 C 0.8273 0.47736 0.36111 0.0
C422 C 0.82704 0.46348 0.32205 0.0
C423 C 0.80095 0.46837 0.29305 0.0
C424 C 0.82167 0.49192 0.25682 0.0
C425 C 0.76899 0.43194 0.27761 0.0
C426 C 0.78699 0.48726 0.32179 0.0
C427 C 0.80166 0.49116 0.36121 0.0
C428 C 0.78793 0.5018 0.3946 0.0
C429 C 0.76007 0.51068 0.38696 0.0
C430 C 0.74783 0.51083 0.34618 0.0
C431 C 0.76049 0.49772 0.31338 0.0
H432 H 0.53495 0.27002 0.41712 0.0
H433 H 0.48137 0.23793 0.29655 0.0
H434 H 0.49306 0.29969 0.28612 0.0
H435 H 0.50944 0.34143 0.44348 0.0
H436 H 0.55456 0.37031 0.46651 0.0
H437 H 0.53458 0.32237 0.4685 0.0
H438 H 0.59307 0.32658 0.43421 0.0
H439 H 0.61314 0.37434 0.43219 0.0
H440 H 0.60777 0.34841 0.38552 0.0
H441 H 0.5173 0.36573 0.28519 0.0
H442 H 0.55748 0.43128 0.29021 0.0
H443 H 0.59883 0.42125 0.40984 0.0
C444 C 0.52448 0.27591 0.38932 0.0
C445 C 0.5064 0.24943 0.35804 0.0
C446 C 0.4946 0.25801 0.32107 0.0
C447 C 0.50099 0.29289 0.31504 0.0
C448 C 0.51963 0.31884 0.34613 0.0
C449 C 0.53144 0.31081 0.38248 0.0
C450 C 0.5559 0.34443 0.40804 0.0
C451 C 0.53751 0.34464 0.44907 0.0
C452 C 0.59476 0.34868 0.41538 0.0
C453 C 0.55722 0.37268 0.37972 0.0
C454 C 0.53526 0.35734 0.34473 0.0
C455 C 0.53415 0.37806 0.31273 0.0
C456 C 0.55704 0.41532 0.31589 0.0
C457 C 0.58121 0.43139 0.35046 0.0
C458 C 0.58031 0.40979 0.38327 0.0
H459 H 0.60338 0.19276 0.31292 0.0
H460 H 0.59963 0.14915 0.43307 0.0
H461 H 0.66771 0.17281 0.43185 0.0
H462 H 0.68569 0.18926 0.26789 0.0
H463 H 0.70194 0.23263 0.24642 0.0
H464 H 0.6529 0.20335 0.25208 0.0
H465 H 0.64987 0.2543 0.29388 0.0
H466 H 0.69908 0.28264 0.28932 0.0
H467 H 0.67866 0.27298 0.33968 0.0
H468 H 0.73661 0.20765 0.42122 0.0
H469 H 0.80017 0.25523 0.40606 0.0
H470 H 0.7583 0.2806 0.29597 0.0
C471 C 0.61686 0.1869 0.33802 0.0
C472 C 0.59656 0.16793 0.37228 0.0
C473 C 0.61494 0.16267 0.40604 0.0
C474 C 0.65344 0.1759 0.40546 0.0
C475 C 0.673 0.1952 0.37142 0.0
C476 C 0.65528 0.201 0.33846 0.0
C477 C 0.68281 0.22853 0.3099 0.0
C478 C 0.68064 0.2124 0.2665 0.0
C479 C 0.67727 0.26155 0.30813 0.0
C480 C 0.71875 0.23737 0.33184 0.0
C481 C 0.71268 0.21746 0.36682 0.0
C482 C 0.74171 0.22298 0.39356 0.0
C483 C 0.77771 0.25004 0.3847 0.0
C484 C 0.7841 0.27149 0.3498 0.0
C485 C 0.75431 0.26441 0.32268 0.0
H486 H 0.42059 0.83135 0.74298 0.0
H487 H 0.45688 0.87701 0.62311 0.0
H488 H 0.50873 0.86373 0.6266 0.0
H489 H 0.51328 0.84733 0.78961 0.0
H490 H 0.49009 0.80343 0.81091 0.0
H491 H 0.46561 0.82832 0.80509 0.0
H492 H 0.41446 0.77336 0.7629 0.0
H493 H 0.4405 0.75012 0.76757 0.0
H494 H 0.42745 0.75771 0.71713 0.0
H495 H 0.55169 0.84035 0.63909 0.0
H496 H 0.57275 0.79649 0.64939 0.0
H497 H 0.50216 0.75656 0.75592 0.0
C498 C 0.44066 0.83993 0.71851 0.0
C499 C 0.43655 0.85716 0.68391 0.0
C500 C 0.46102 0.86543 0.65067 0.0
C501 C 0.49052 0.85809 0.65256 0.0
C502 C 0.49407 0.84108 0.68718 0.0
C503 C 0.46918 0.83119 0.71912 0.0
C504 C 0.47323 0.80543 0.74731 0.0
C505 C 0.48631 0.82215 0.79082 0.0
C506 C 0.43676 0.76955 0.74876 0.0
C507 C 0.50332 0.80135 0.72537 0.0
C508 C 0.51611 0.82353 0.69197 0.0
C509 C 0.54213 0.82307 0.66531 0.0
C510 C 0.55393 0.79797 0.67149 0.0
C511 C 0.53888 0.77288 0.70333 0.0
C512 C 0.51446 0.77565 0.73165 0.0
H513 H 0.26799 0.7516 0.63424 0.0
H514 H 0.2558 0.77383 0.76249 0.0
H515 H 0.21094 0.70961 0.77153 0.0
H516 H 0.17234 0.67472 0.61359 0.0
H517 H 0.19001 0.65068 0.58339 0.0
H518 H 0.21407 0.69894 0.5845 0.0
H519 H 0.2745 0.69975 0.60833 0.0
H520 H 0.25069 0.65167 0.60737 0.0
H521 H 0.27413 0.67631 0.65404 0.0
H522 H 0.17233 0.64247 0.76813 0.0
H523 H 0.1498 0.57787 0.75564 0.0
H524 H 0.19273 0.59936 0.63156 0.0
C525 C 0.25465 0.743 0.66371 0.0
C526 C 0.26422 0.76746 0.69741 0.0
C527 C 0.24801 0.75534 0.7362 0.0
C528 C 0.22248 0.71903 0.7415 0.0
C529 C 0.21415 0.69525 0.70784 0.0
C530 C 0.2301 0.70673 0.66978 0.0
C531 C 0.2215 0.6754 0.64063 0.0
C532 C 0.19808 0.67491 0.60332 0.0
C533 C 0.25733 0.67582 0.62682 0.0
C534 C 0.19912 0.6445 0.66852 0.0
C535 C 0.19417 0.65644 0.70673 0.0
C536 C 0.17572 0.63281 0.7382 0.0
C537 C 0.16293 0.59618 0.73081 0.0
C538 C 0.16954 0.58376 0.69265 0.0
C539 C 0.18715 0.60818 0.66093 0.0
H540 H 0.26204 0.51606 0.63537 0.0
H541 H 0.25037 0.48619 0.76356 0.0
H542 H 0.31857 0.51905 0.77293 0.0
H543 H 0.35102 0.51468 0.61608 0.0
H544 H 0.37004 0.55413 0.58548 0.0
H545 H 0.32081 0.52449 0.58489 0.0
H546 H 0.30799 0.575 0.60672 0.0
H547 H 0.35699 0.60615 0.60659 0.0
H548 H 0.3307 0.60206 0.65232 0.0
H549 H 0.38474 0.56619 0.77263 0.0
H550 H 0.44904 0.61213 0.75802 0.0
H551 H 0.41974 0.60776 0.62865 0.0
C552 C 0.27402 0.5147 0.66465 0.0
C553 C 0.25124 0.49785 0.69855 0.0
C554 C 0.2676 0.49837 0.73716 0.0
C555 C 0.30619 0.51713 0.74278 0.0
C556 C 0.32787 0.53511 0.70938 0.0
C557 C 0.31261 0.53321 0.67066 0.0
C558 C 0.34206 0.55764 0.64108 0.0
C559 C 0.3462 0.53637 0.60475 0.0
C560 C 0.33393 0.58694 0.6258 0.0
C561 C 0.37602 0.57338 0.66919 0.0
C562 C 0.36698 0.56072 0.7087 0.0
C563 C 0.39258 0.5748 0.74135 0.0
C564 C 0.42899 0.60067 0.73276 0.0
C565 C 0.43966 0.61116 0.69177 0.0
C566 C 0.41255 0.59854 0.65987 0.0
H567 H 0.08087 0.32751 0.93282 0.0
H568 H 0.01057 0.22429 0.87195 0.0
H569 H 0.01843 0.25412 0.80554 0.0
H570 H 0.04846 0.37843 0.87141 0.0
H571 H 0.09395 0.41733 0.87056 0.0
H572 H 0.08072 0.38812 0.91386 0.0
H573 H 0.13824 0.3798 0.90344 0.0
H574 H 0.15168 0.40902 0.86028 0.0
H575 H 0.1453 0.36445 0.85378 0.0
H576 H 0.03952 0.29426 0.74477 0.0
H577 H 0.07035 0.34234 0.69452 0.0
H578 H 0.1237 0.41972 0.79527 0.0
C579 C 0.06677 0.31115 0.90564 0.0
C580 C 0.04511 0.2735 0.90767 0.0
C581 C 0.02717 0.25316 0.87129 0.0
C582 C 0.03144 0.26987 0.8334 0.0
C583 C 0.05328 0.30697 0.83246 0.0
C584 C 0.07036 0.32741 0.86769 0.0
C585 C 0.09346 0.36668 0.85807 0.0
C586 C 0.07822 0.38895 0.87976 0.0
C587 C 0.1346 0.3808 0.86957 0.0
C588 C 0.08748 0.36504 0.81173 0.0
C589 C 0.06419 0.33033 0.79756 0.0
C590 C 0.05713 0.32164 0.75554 0.0
C591 C 0.07474 0.34904 0.72727 0.0
C592 C 0.09868 0.38471 0.74117 0.0
C593 C 0.10456 0.39284 0.78394 0.0
H594 H 0.74327 0.78328 0.91052 0.0
H595 H 0.78116 0.70529 0.89452 0.0
H596 H 0.73771 0.67736 0.83606 0.0
H597 H 0.64751 0.72252 0.88792 0.0
H598 H 0.63956 0.75437 0.86044 0.0
H599 H 0.67495 0.7697 0.90036 0.0
H600 H 0.7237 0.81121 0.84847 0.0
H601 H 0.68846 0.79574 0.80827 0.0
H602 H 0.72986 0.79238 0.8008 0.0
H603 H 0.68909 0.65571 0.78196 0.0
H604 H 0.63545 0.64021 0.73579 0.0
H605 H 0.62853 0.73202 0.78418 0.0
C606 C 0.74249 0.76039 0.89468 0.0
C607 C 0.76578 0.7466 0.90738 0.0
C608 C 0.76372 0.7165 0.8857 0.0
C609 C 0.7392 0.70043 0.85219 0.0
C610 C 0.71686 0.71471 0.84042 0.0
C611 C 0.71806 0.74389 0.8609 0.0
C612 C 0.68984 0.75288 0.84244 0.0
C613 C 0.66127 0.74966 0.87471 0.0
C614 C 0.70913 0.79028 0.82389 0.0
C615 C 0.67233 0.72377 0.80893 0.0
C616 C 0.68864 0.70228 0.8083 0.0
C617 C 0.67626 0.67249 0.7818 0.0
C618 C 0.64579 0.6639 0.75574 0.0
C619 C 0.62812 0.68508 0.75622 0.0
C620 C 0.64204 0.71583 0.78261 0.0
H621 H 0.35756 0.93305 0.82262 0.0
H622 H 0.28127 0.91625 0.72119 0.0
H623 H 0.24668 0.93664 0.76664 0.0
H624 H 0.28794 0.89849 0.89967 0.0
H625 H 0.3177 0.92938 0.93959 0.0
H626 H 0.33743 0.91594 0.8981 0.0
H627 H 0.38018 0.98251 0.88095 0.0
H628 H 0.36038 0.99619 0.9222 0.0
H629 H 0.35991 0.01049 0.87039 0.0
H630 H 0.22215 0.96113 0.82342 0.0
H631 H 0.20415 0.97912 0.88894 0.0
H632 H 0.29309 0.97345 0.95381 0.0
C633 C 0.33369 0.93382 0.80988 0.0
C634 C 0.32221 0.92348 0.76838 0.0
C635 C 0.29044 0.92417 0.75299 0.0
C636 C 0.27084 0.93588 0.77847 0.0
C637 C 0.28305 0.94604 0.81934 0.0
C638 C 0.31334 0.94442 0.83508 0.0
C639 C 0.31937 0.95428 0.88067 0.0
C640 C 0.31535 0.92263 0.90599 0.0
C641 C 0.35721 0.98787 0.88902 0.0
C642 C 0.28779 0.96186 0.88826 0.0
C643 C 0.26757 0.9577 0.85238 0.0
C644 C 0.23763 0.96422 0.85171 0.0
C645 C 0.22776 0.97461 0.88887 0.0
C646 C 0.24729 0.97752 0.92607 0.0
C647 C 0.2777 0.97122 0.92566 0.0
H648 H 0.41654 0.05414 0.24647 0.0
H649 H 0.43264 0.16103 0.26964 0.0
H650 H 0.39094 0.15281 0.21035 0.0
H651 H 0.41227 0.0537 0.13573 0.0
H652 H 0.37612 0.00767 0.13075 0.0
H653 H 0.40806 0.02222 0.17422 0.0
H654 H 0.35311 0.99882 0.22472 0.0
H655 H 0.32104 0.98371 0.18142 0.0
H656 H 0.31935 0.01375 0.22011 0.0
H657 H 0.34889 0.13342 0.14745 0.0
H658 H 0.30231 0.10133 0.09199 0.0
H659 H 0.31156 0.00607 0.11222 0.0
C660 C 0.41122 0.07579 0.23908 0.0
C661 C 0.42782 0.10825 0.26248 0.0
C662 C 0.41994 0.13584 0.25223 0.0
C663 C 0.39661 0.13155 0.21841 0.0
C664 C 0.38113 0.09939 0.19558 0.0
C665 C 0.38757 0.07174 0.20593 0.0
C666 C 0.36595 0.03917 0.17781 0.0
C667 C 0.39218 0.03018 0.15317 0.0
C668 C 0.33822 0.00697 0.20249 0.0
C669 C 0.34626 0.05278 0.15004 0.0
C670 C 0.35588 0.08776 0.16033 0.0
C671 C 0.34109 0.10599 0.13915 0.0
C672 C 0.31484 0.08759 0.10747 0.0
C673 C 0.30327 0.05116 0.09773 0.0
C674 C 0.31984 0.03389 0.11887 0.0
H675 H 0.01433 0.30901 0.07868 0.0
H676 H 0.92472 0.19908 0.07877 0.0
H677 H 0.89347 0.21579 0.13283 0.0
H678 H 0.02024 0.32502 0.18401 0.0
H679 H 0.02962 0.37071 0.18196 0.0
H680 H 0.04268 0.3514 0.1398 0.0
H681 H 0.00447 0.36664 0.08836 0.0
H682 H 0.99184 0.3867 0.13025 0.0
H683 H 0.95624 0.35174 0.09811 0.0
H684 H 0.87664 0.24297 0.19306 0.0
H685 H 0.87109 0.27991 0.24906 0.0
H686 H 0.97122 0.37247 0.20804 0.0
C687 C 0.98767 0.28858 0.08932 0.0
C688 C 0.97189 0.25274 0.0745 0.0
C689 C 0.93708 0.22677 0.08934 0.0
C690 C 0.91928 0.23598 0.12023 0.0
C691 C 0.93644 0.27131 0.13534 0.0
C692 C 0.96948 0.29735 0.11975 0.0
C693 C 0.983 0.33301 0.14232 0.0
C694 C 0.02113 0.34576 0.16326 0.0
C695 C 0.98392 0.36118 0.11301 0.0
C696 C 0.9529 0.32281 0.17385 0.0
C697 C 0.92634 0.2871 0.16939 0.0
C698 C 0.89694 0.27108 0.19642 0.0
C699 C 0.89425 0.29226 0.22837 0.0
C700 C 0.92071 0.32915 0.23293 0.0
C701 C 0.9504 0.34446 0.20522 0.0
H702 H 0.77604 0.6335 0.25255 0.0
H703 H 0.65757 0.59367 0.24065 0.0
H704 H 0.66821 0.63044 0.17869 0.0
H705 H 0.80723 0.72217 0.22173 0.0
H706 H 0.846 0.72513 0.19338 0.0
H707 H 0.82868 0.6961 0.23664 0.0
H708 H 0.81926 0.64212 0.19021 0.0
H709 H 0.83688 0.67105 0.14688 0.0
H710 H 0.79181 0.63158 0.14326 0.0
H711 H 0.69375 0.67583 0.12027 0.0
H712 H 0.73038 0.71848 0.06602 0.0
H713 H 0.83036 0.72262 0.11454 0.0
C714 C 0.75222 0.63225 0.23688 0.0
C715 C 0.71598 0.61088 0.25147 0.0
C716 C 0.68556 0.60984 0.22983 0.0
C717 C 0.69139 0.63075 0.19482 0.0
C718 C 0.7277 0.65187 0.18154 0.0
C719 C 0.75744 0.65209 0.20157 0.0
C720 C 0.79362 0.67577 0.18067 0.0
C721 C 0.82045 0.70662 0.20985 0.0
C722 C 0.81142 0.65381 0.16428 0.0
C723 C 0.77981 0.6893 0.14584 0.0
C724 C 0.74183 0.67578 0.14703 0.0
C725 C 0.7234 0.68614 0.1188 0.0
C726 C 0.74435 0.71044 0.08832 0.0
C727 C 0.78302 0.72337 0.08598 0.0
C728 C 0.80078 0.71269 0.1152 0.0
H729 H 0.05875 0.39229 0.56842 0.0
H730 H 0.12272 0.5082 0.56948 0.0
H731 H 0.09162 0.50892 0.50442 0.0
H732 H 0.05526 0.3761 0.45927 0.0
H733 H 0.00763 0.34076 0.45734 0.0
H734 H 0.03541 0.34877 0.50356 0.0
H735 H 0.98686 0.35631 0.54655 0.0
H736 H 0.95869 0.34781 0.50058 0.0
H737 H 0.97294 0.38826 0.53113 0.0
H738 H 0.05807 0.49703 0.43718 0.0
H739 H 0.01453 0.47471 0.37793 0.0
H740 H 0.96583 0.36674 0.42379 0.0
C741 C 0.06579 0.41771 0.55496 0.0
C742 C 0.09298 0.45023 0.57361 0.0
C743 C 0.10164 0.48311 0.5556 0.0
C744 C 0.08441 0.48375 0.51857 0.0
C745 C 0.05805 0.45128 0.50054 0.0
C746 C 0.04792 0.41891 0.51858 0.0
C747 C 0.01704 0.38819 0.49382 0.0
C748 C 0.0296 0.36191 0.47753 0.0
C749 C 0.98179 0.36902 0.51956 0.0
C750 C 0.01176 0.40842 0.45891 0.0
C751 C 0.03635 0.44466 0.46305 0.0
C752 C 0.03816 0.4688 0.43393 0.0
C753 C 0.01329 0.45576 0.40026 0.0
C754 C 0.98618 0.41904 0.39654 0.0
C755 C 0.98589 0.39501 0.42603 0.0
H756 H 0.60893 0.54515 0.44423 0.0
H757 H 0.68462 0.65192 0.40332 0.0
H758 H 0.65881 0.67732 0.45429 0.0
H759 H 0.52976 0.55986 0.47118 0.0
H760 H 0.51941 0.53314 0.51648 0.0
H761 H 0.53912 0.52295 0.47215 0.0
H762 H 0.5929 0.52783 0.51837 0.0
H763 H 0.57361 0.53832 0.5627 0.0
H764 H 0.62077 0.56838 0.54849 0.0
H765 H 0.62868 0.6913 0.51288 0.0
H766 H 0.59906 0.69373 0.5777 0.0
H767 H 0.5458 0.57791 0.58387 0.0
C768 C 0.6191 0.57375 0.44514 0.0
C769 C 0.64812 0.59665 0.41942 0.0
C770 C 0.66201 0.63404 0.42251 0.0
C771 C 0.64747 0.64863 0.45123 0.0
C772 C 0.61944 0.62542 0.4769 0.0
C773 C 0.60548 0.58878 0.47428 0.0
C774 C 0.57858 0.57018 0.50865 0.0
C775 C 0.53939 0.54505 0.49105 0.0
C776 C 0.59231 0.55 0.53617 0.0
C777 C 0.58022 0.60215 0.53151 0.0
C778 C 0.60338 0.63365 0.51218 0.0
C779 C 0.61024 0.6668 0.52812 0.0
C780 C 0.59326 0.66787 0.56501 0.0
C781 C 0.57013 0.636 0.58598 0.0
C782 C 0.56335 0.60273 0.56865 0.0
H783 H 0.43249 0.00103 0.62239 0.0
H784 H 0.34708 0.90191 0.56467 0.0
H785 H 0.35508 0.93251 0.49915 0.0
H786 H 0.40841 0.06123 0.56565 0.0
H787 H 0.45628 0.09528 0.56146 0.0
H788 H 0.44177 0.06646 0.60515 0.0
H789 H 0.49143 0.04782 0.5889 0.0
H790 H 0.50603 0.0765 0.54521 0.0
H791 H 0.49185 0.02966 0.53829 0.0
H792 H 0.37726 0.97116 0.43807 0.0
H793 H 0.41006 0.01716 0.38608 0.0
H794 H 0.47836 0.09238 0.48316 0.0
C795 C 0.41499 0.98588 0.59621 0.0
C796 C 0.38913 0.94898 0.59891 0.0
C797 C 0.36704 0.93017 0.56366 0.0
C798 C 0.37132 0.94732 0.52618 0.0
C799 C 0.39745 0.98344 0.52441 0.0
C800 C 0.41864 0.00267 0.55853 0.0
C801 C 0.44592 0.04088 0.54767 0.0
C802 C 0.43758 0.06754 0.57139 0.0
C803 C 0.48618 0.04918 0.55547 0.0
C804 C 0.43735 0.03977 0.50191 0.0
C805 C 0.40928 0.00633 0.48918 0.0
C806 C 0.39867 0.9977 0.44774 0.0
C807 C 0.41744 0.02388 0.41848 0.0
C808 C 0.44605 0.05832 0.4309 0.0
C809 C 0.45576 0.06651 0.47316 0.0
loop_
_geom_bond_atom_site_label_1
_geom_bond_atom_site_label_2
_geom_bond_distance
_geom_bond_site_symmetry_2
_ccdc_geom_bond_type
Mn0 O5 2.095 1_455 S
Mn0 O15 2.162 1_454 S
Mn0 O16 2.297 1_455 S
Mn0 O24 2.385 1_554 S
Mn0 O25 2.209 . S
Mn0 O26 2.094 1_554 S
Mn1 O6 2.121 . S
Mn1 N8 2.257 . S
Mn1 N17 2.282 . S
Mn1 O25 2.215 . S
Mn1 O27 2.117 1_554 S
C2 O24 1.234 1_554 S
C2 O25 1.283 . S
C3 O15 1.281 1_554 S
C3 O16 1.236 . S
C4 O26 1.240 . S
C4 O27 1.264 . S
O5 Mn0 2.095 1_655 S
O5 C14 1.250 1_655 S
O6 Mn1 2.121 . S
O6 C14 1.258 . S
C7 N8 1.326 . S
C7 C11 1.460 . S
C7 H13 0.929 . S
N8 Mn1 2.257 . S
N8 C7 1.326 . S
N8 C12 1.362 . S
C9 C10 1.258 . S
C9 C12 1.431 . S
C9 C29 1.449 . S
C10 C9 1.258 . S
C10 C11 1.477 . S
C10 H30 0.931 . S
C11 C7 1.460 . S
C11 C10 1.477 . S
C11 H31 0.930 . S
C12 N8 1.362 . S
C12 C9 1.431 . S
C12 C22 1.476 . S
H13 C7 0.929 . S
C14 O5 1.250 1_455 S
C14 O6 1.258 . S
O15 Mn0 2.162 1_656 S
O15 C3 1.281 1_556 S
O16 Mn0 2.297 1_655 S
O16 C3 1.236 . S
N17 Mn1 2.282 . S
N17 C18 1.328 1_554 S
N17 C22 1.318 . S
C18 N17 1.328 1_556 S
C18 C19 1.457 . S
C18 H23 0.929 . S
C19 C18 1.457 . S
C19 C20 1.291 . S
C19 H32 0.931 . S
C20 C19 1.291 . S
C20 C21 1.373 1_556 S
C20 H33 0.929 . S
C21 C20 1.373 1_554 S
C21 C22 1.396 . S
C21 C28 1.403 . S
C22 C12 1.476 . S
C22 N17 1.318 . S
C22 C21 1.396 . S
H23 C18 0.929 . S
O24 Mn0 2.385 1_556 S
O24 C2 1.234 1_556 S
O25 Mn0 2.209 . S
O25 Mn1 2.215 . S
O25 C2 1.283 . S
O26 Mn0 2.094 1_556 S
O26 C4 1.240 . S
O27 Mn1 2.117 1_556 S
O27 C4 1.264 . S
C28 C21 1.403 . S
C28 C29 1.399 . S
C28 H34 0.929 . S
C29 C9 1.449 . S
C29 C28 1.399 . S
C29 H35 0.930 . S
H30 C10 0.931 . S
H31 C11 0.930 . S
H32 C19 0.931 . S
H33 C20 0.929 . S
H34 C28 0.929 . S
H35 C29 0.930 . S
Mn36 O41 2.095 1_554 S
Mn36 O51 2.162 . S
Mn36 O52 2.297 1_554 S
Mn36 O60 2.385 . S
Mn36 O61 2.209 1_554 S
Mn36 O62 2.094 . S
Mn37 O42 2.121 . S
Mn37 N44 2.257 . S
Mn37 N53 2.282 1_556 S
Mn37 O61 2.215 . S
Mn37 O63 2.117 1_556 S
C38 O60 1.234 . S
C38 O61 1.283 1_554 S
C39 O51 1.281 . S
C39 O52 1.236 1_554 S
C40 O62 1.240 . S
C40 O63 1.264 . S
O41 Mn36 2.095 1_556 S
O41 C50 1.250 . S
O42 Mn37 2.121 . S
O42 C50 1.258 . S
C43 N44 1.326 . S
C43 C47 1.460 . S
C43 H49 0.929 . S
N44 Mn37 2.257 . S
N44 C43 1.326 . S
N44 C48 1.362 . S
C45 C46 1.258 . S
C45 C48 1.431 . S
C45 C65 1.449 . S
C46 C45 1.258 . S
C46 C47 1.477 . S
C46 H66 0.931 . S
C47 C43 1.460 . S
C47 C46 1.477 . S
C47 H67 0.930 . S
C48 N44 1.362 . S
C48 C45 1.431 . S
C48 C58 1.476 . S
H49 C43 0.929 . S
C50 O41 1.250 . S
C50 O42 1.258 . S
O51 Mn36 2.162 . S
O51 C39 1.281 . S
O52 Mn36 2.297 1_556 S
O52 C39 1.236 1_556 S
N53 Mn37 2.282 1_554 S
N53 C54 1.328 . S
N53 C58 1.318 1_554 S
C54 N53 1.328 . S
C54 C55 1.457 . S
C54 H59 0.929 . S
C55 C54 1.457 . S
C55 C56 1.291 . S
C55 H68 0.931 . S
C56 C55 1.291 . S
C56 C57 1.373 1_554 S
C56 H69 0.929 . S
C57 C56 1.373 1_556 S
C57 C58 1.396 . S
C57 C64 1.403 . S
C58 C48 1.476 . S
C58 N53 1.318 1_556 S
C58 C57 1.396 . S
H59 C54 0.929 . S
O60 Mn36 2.385 . S
O60 C38 1.234 . S
O61 Mn36 2.209 1_556 S
O61 Mn37 2.215 . S
O61 C38 1.283 1_556 S
O62 Mn36 2.094 . S
O62 C40 1.240 . S
O63 Mn37 2.117 1_554 S
O63 C40 1.264 . S
C64 C57 1.403 . S
C64 C65 1.399 . S
C64 H70 0.929 . S
C65 C45 1.449 . S
C65 C64 1.399 . S
C65 H71 0.930 . S
H66 C46 0.931 . S
H67 C47 0.930 . S
H68 C55 0.931 . S
H69 C56 0.929 . S
H70 C64 0.929 . S
H71 C65 0.930 . S
Mn72 O77 2.103 . S
Mn72 O87 2.157 1_554 S
Mn72 O88 2.304 . S
Mn72 O96 2.382 1_544 S
Mn72 O97 2.216 1_545 S
Mn72 O98 2.084 1_554 S
Mn73 O78 2.121 . S
Mn73 N80 2.257 . S
Mn73 N89 2.282 . S
Mn73 O97 2.215 . S
Mn73 O99 2.117 1_554 S
C74 O96 1.234 1_554 S
C74 O97 1.283 . S
C75 O87 1.281 1_554 S
C75 O88 1.236 . S
C76 O98 1.240 1_565 S
C76 O99 1.264 . S
O77 Mn72 2.103 . S
O77 C86 1.250 . S
O78 Mn73 2.121 . S
O78 C86 1.258 1_565 S
C79 N80 1.326 . S
C79 C83 1.460 . S
C79 H85 0.929 . S
N80 Mn73 2.257 . S
N80 C79 1.326 . S
N80 C84 1.362 . S
C81 C82 1.258 . S
C81 C84 1.431 . S
C81 C101 1.449 . S
C82 C81 1.258 . S
C82 C83 1.477 . S
C82 H102 0.931 . S
C83 C79 1.460 . S
C83 C82 1.477 . S
C83 H103 0.930 . S
C84 N80 1.362 . S
C84 C81 1.431 . S
C84 C94 1.476 . S
H85 C79 0.929 . S
C86 O77 1.250 . S
C86 O78 1.258 1_545 S
O87 Mn72 2.157 1_556 S
O87 C75 1.281 1_556 S
O88 Mn72 2.304 . S
O88 C75 1.236 . S
N89 Mn73 2.282 . S
N89 C90 1.328 1_554 S
N89 C94 1.318 . S
C90 N89 1.328 1_556 S
C90 C91 1.457 . S
C90 H95 0.929 . S
C91 C90 1.457 . S
C91 C92 1.291 . S
C91 H104 0.931 . S
C92 C91 1.291 . S
C92 C93 1.373 1_556 S
C92 H105 0.929 . S
C93 C92 1.373 1_554 S
C93 C94 1.396 . S
C93 C100 1.403 . S
C94 C84 1.476 . S
C94 N89 1.318 . S
C94 C93 1.396 . S
H95 C90 0.929 . S
O96 Mn72 2.382 1_566 S
O96 C74 1.234 1_556 S
O97 Mn72 2.216 1_565 S
O97 Mn73 2.215 . S
O97 C74 1.283 . S
O98 Mn72 2.084 1_556 S
O98 C76 1.240 1_545 S
O99 Mn73 2.117 1_556 S
O99 C76 1.264 . S
C100 C93 1.403 . S
C100 C101 1.399 . S
C100 H106 0.929 . S
C101 C81 1.449 . S
C101 C100 1.399 . S
C101 H107 0.930 . S
H102 C82 0.931 . S
H103 C83 0.930 . S
H104 C91 0.931 . S
H105 C92 0.929 . S
H106 C100 0.929 . S
H107 C101 0.930 . S
Mn108 O113 2.095 . S
Mn108 O123 2.162 . S
Mn108 O124 2.297 . S
Mn108 O132 2.385 . S
Mn108 O133 2.209 . S
Mn108 O134 2.094 . S
Mn109 O114 2.121 . S
Mn109 N116 2.257 . S
Mn109 N125 2.282 . S
Mn109 O133 2.215 . S
Mn109 O135 2.117 . S
C110 O132 1.234 . S
C110 O133 1.283 . S
C111 O123 1.281 . S
C111 O124 1.236 . S
C112 O134 1.240 . S
C112 O135 1.264 . S
O113 Mn108 2.095 . S
O113 C122 1.250 . S
O114 Mn109 2.121 . S
O114 C122 1.258 . S
C115 N116 1.326 . S
C115 C119 1.460 . S
C115 H121 0.929 . S
N116 Mn109 2.257 . S
N116 C115 1.326 . S
N116 C120 1.362 . S
C117 C118 1.258 . S
C117 C120 1.431 . S
C117 C137 1.449 . S
C118 C117 1.258 . S
C118 C119 1.477 . S
C118 H138 0.931 . S
C119 C115 1.460 . S
C119 C118 1.477 . S
C119 H139 0.930 . S
C120 N116 1.362 . S
C120 C117 1.431 . S
C120 C130 1.476 . S
H121 C115 0.929 . S
C122 O113 1.250 . S
C122 O114 1.258 . S
O123 Mn108 2.162 . S
O123 C111 1.281 . S
O124 Mn108 2.297 . S
O124 C111 1.236 . S
N125 Mn109 2.282 . S
N125 C126 1.328 . S
N125 C130 1.318 . S
C126 N125 1.328 . S
C126 C127 1.457 . S
C126 H131 0.929 . S
C127 C126 1.457 . S
C127 C128 1.291 . S
C127 H140 0.931 . S
C128 C127 1.291 . S
C128 C129 1.373 . S
C128 H141 0.929 . S
C129 C128 1.373 . S
C129 C130 1.396 . S
C129 C136 1.403 . S
C130 C120 1.476 . S
C130 N125 1.318 . S
C130 C129 1.396 . S
H131 C126 0.929 . S
O132 Mn108 2.385 . S
O132 C110 1.234 . S
O133 Mn108 2.209 . S
O133 Mn109 2.215 . S
O133 C110 1.283 . S
O134 Mn108 2.094 . S
O134 C112 1.240 . S
O135 Mn109 2.117 . S
O135 C112 1.264 . S
C136 C129 1.403 . S
C136 C137 1.399 . S
C136 H142 0.929 . S
C137 C117 1.449 . S
C137 C136 1.399 . S
C137 H143 0.930 . S
H138 C118 0.931 . S
H139 C119 0.930 . S
H140 C127 0.931 . S
H141 C128 0.929 . S
H142 C136 0.929 . S
H143 C137 0.930 . S
Mn144 O149 2.095 . S
Mn144 O159 2.162 . S
Mn144 O160 2.297 . S
Mn144 O168 2.385 . S
Mn144 O169 2.209 . S
Mn144 O170 2.094 . S
Mn145 O150 2.121 . S
Mn145 N152 2.257 . S
Mn145 N161 2.282 . S
Mn145 O169 2.215 . S
Mn145 O171 2.117 . S
C146 O168 1.234 . S
C146 O169 1.283 . S
C147 O159 1.281 . S
C147 O160 1.236 . S
C148 O170 1.240 . S
C148 O171 1.264 . S
O149 Mn144 2.095 . S
O149 C158 1.250 . S
O150 Mn145 2.121 . S
O150 C158 1.258 . S
C151 N152 1.326 . S
C151 C155 1.460 . S
C151 H157 0.929 . S
N152 Mn145 2.257 . S
N152 C151 1.326 . S
N152 C156 1.362 . S
C153 C154 1.258 . S
C153 C156 1.431 . S
C153 C173 1.449 . S
C154 C153 1.258 . S
C154 C155 1.477 . S
C154 H174 0.931 . S
C155 C151 1.460 . S
C155 C154 1.477 . S
C155 H175 0.930 . S
C156 N152 1.362 . S
C156 C153 1.431 . S
C156 C166 1.476 . S
H157 C151 0.929 . S
C158 O149 1.250 . S
C158 O150 1.258 . S
O159 Mn144 2.162 . S
O159 C147 1.281 . S
O160 Mn144 2.297 . S
O160 C147 1.236 . S
N161 Mn145 2.282 . S
N161 C162 1.328 . S
N161 C166 1.318 . S
C162 N161 1.328 . S
C162 C163 1.457 . S
C162 H167 0.929 . S
C163 C162 1.457 . S
C163 C164 1.291 . S
C163 H176 0.931 . S
C164 C163 1.291 . S
C164 C165 1.373 . S
C164 H177 0.929 . S
C165 C164 1.373 . S
C165 C166 1.396 . S
C165 C172 1.403 . S
C166 C156 1.476 . S
C166 N161 1.318 . S
C166 C165 1.396 . S
H167 C162 0.929 . S
O168 Mn144 2.385 . S
O168 C146 1.234 . S
O169 Mn144 2.209 . S
O169 Mn145 2.215 . S
O169 C146 1.283 . S
O170 Mn144 2.094 . S
O170 C148 1.240 . S
O171 Mn145 2.117 . S
O171 C148 1.264 . S
C172 C165 1.403 . S
C172 C173 1.399 . S
C172 H178 0.929 . S
C173 C153 1.449 . S
C173 C172 1.399 . S
C173 H179 0.930 . S
H174 C154 0.931 . S
H175 C155 0.930 . S
H176 C163 0.931 . S
H177 C164 0.929 . S
H178 C172 0.929 . S
H179 C173 0.930 . S
Mn180 O185 2.095 . S
Mn180 O195 2.162 . S
Mn180 O196 2.297 . S
Mn180 O204 2.385 . S
Mn180 O205 2.209 . S
Mn180 O206 2.094 . S
Mn181 O186 2.121 . S
Mn181 N188 2.257 . S
Mn181 N197 2.282 . S
Mn181 O205 2.215 . S
Mn181 O207 2.117 . S
C182 O204 1.234 . S
C182 O205 1.283 . S
C183 O195 1.281 . S
C183 O196 1.236 . S
C184 O206 1.240 . S
C184 O207 1.264 . S
O185 Mn180 2.095 . S
O185 C194 1.250 . S
O186 Mn181 2.121 . S
O186 C194 1.258 . S
C187 N188 1.326 . S
C187 C191 1.460 . S
C187 H193 0.929 . S
N188 Mn181 2.257 . S
N188 C187 1.326 . S
N188 C192 1.362 . S
C189 C190 1.258 . S
C189 C192 1.431 . S
C189 C209 1.449 . S
C190 C189 1.258 . S
C190 C191 1.477 . S
C190 H210 0.931 . S
C191 C187 1.460 . S
C191 C190 1.477 . S
C191 H211 0.930 . S
C192 N188 1.362 . S
C192 C189 1.431 . S
C192 C202 1.476 . S
H193 C187 0.929 . S
C194 O185 1.250 . S
C194 O186 1.258 . S
O195 Mn180 2.162 . S
O195 C183 1.281 . S
O196 Mn180 2.297 . S
O196 C183 1.236 . S
N197 Mn181 2.282 . S
N197 C198 1.328 . S
N197 C202 1.318 . S
C198 N197 1.328 . S
C198 C199 1.457 . S
C198 H203 0.929 . S
C199 C198 1.457 . S
C199 C200 1.291 . S
C199 H212 0.931 . S
C200 C199 1.291 . S
C200 C201 1.373 . S
C200 H213 0.929 . S
C201 C200 1.373 . S
C201 C202 1.396 . S
C201 C208 1.403 . S
C202 C192 1.476 . S
C202 N197 1.318 . S
C202 C201 1.396 . S
H203 C198 0.929 . S
O204 Mn180 2.385 . S
O204 C182 1.234 . S
O205 Mn180 2.209 . S
O205 Mn181 2.215 . S
O205 C182 1.283 . S
O206 Mn180 2.094 . S
O206 C184 1.240 . S
O207 Mn181 2.117 . S
O207 C184 1.264 . S
C208 C201 1.403 . S
C208 C209 1.399 . S
C208 H214 0.929 . S
C209 C189 1.449 . S
C209 C208 1.399 . S
C209 H215 0.930 . S
H210 C190 0.931 . S
H211 C191 0.930 . S
H212 C199 0.931 . S
H213 C200 0.929 . S
H214 C208 0.929 . S
H215 C209 0.930 . S
Mn216 O221 2.095 . S
Mn216 O231 2.162 . S
Mn216 O232 2.297 . S
Mn216 O240 2.385 . S
Mn216 O241 2.209 . S
Mn216 O242 2.094 . S
Mn217 O222 2.121 . S
Mn217 N224 2.257 . S
Mn217 N233 2.282 . S
Mn217 O241 2.215 . S
Mn217 O243 2.117 . S
C218 O240 1.234 . S
C218 O241 1.283 . S
C219 O231 1.281 . S
C219 O232 1.236 . S
C220 O242 1.240 . S
C220 O243 1.264 . S
O221 Mn216 2.095 . S
O221 C230 1.250 . S
O222 Mn217 2.121 . S
O222 C230 1.258 . S
C223 N224 1.326 . S
C223 C227 1.460 . S
C223 H229 0.929 . S
N224 Mn217 2.257 . S
N224 C223 1.326 . S
N224 C228 1.362 . S
C225 C226 1.258 . S
C225 C228 1.431 . S
C225 C245 1.449 . S
C226 C225 1.258 . S
C226 C227 1.477 . S
C226 H246 0.931 . S
C227 C223 1.460 . S
C227 C226 1.477 . S
C227 H247 0.930 . S
C228 N224 1.362 . S
C228 C225 1.431 . S
C228 C238 1.476 . S
H229 C223 0.929 . S
C230 O221 1.250 . S
C230 O222 1.258 . S
O231 Mn216 2.162 . S
O231 C219 1.281 . S
O232 Mn216 2.297 . S
O232 C219 1.236 . S
N233 Mn217 2.282 . S
N233 C234 1.328 . S
N233 C238 1.318 . S
C234 N233 1.328 . S
C234 C235 1.457 . S
C234 H239 0.929 . S
C235 C234 1.457 . S
C235 C236 1.291 . S
C235 H248 0.931 . S
C236 C235 1.291 . S
C236 C237 1.373 . S
C236 H249 0.929 . S
C237 C236 1.373 . S
C237 C238 1.396 . S
C237 C244 1.403 . S
C238 C228 1.476 . S
C238 N233 1.318 . S
C238 C237 1.396 . S
H239 C234 0.929 . S
O240 Mn216 2.385 . S
O240 C218 1.234 . S
O241 Mn216 2.209 . S
O241 Mn217 2.215 . S
O241 C218 1.283 . S
O242 Mn216 2.094 . S
O242 C220 1.240 . S
O243 Mn217 2.117 . S
O243 C220 1.264 . S
C244 C237 1.403 . S
C244 C245 1.399 . S
C244 H250 0.929 . S
C245 C225 1.449 . S
C245 C244 1.399 . S
C245 H251 0.930 . S
H246 C226 0.931 . S
H247 C227 0.930 . S
H248 C235 0.931 . S
H249 C236 0.929 . S
H250 C244 0.929 . S
H251 C245 0.930 . S
Mn252 O257 2.095 . S
Mn252 O267 2.162 . S
Mn252 O268 2.297 . S
Mn252 O276 2.385 . S
Mn252 O277 2.209 . S
Mn252 O278 2.094 . S
Mn253 O258 2.121 . S
Mn253 N260 2.257 . S
Mn253 N269 2.282 . S
Mn253 O277 2.215 . S
Mn253 O279 2.117 . S
C254 O276 1.234 . S
C254 O277 1.283 . S
C255 O267 1.281 . S
C255 O268 1.236 . S
C256 O278 1.240 . S
C256 O279 1.264 . S
O257 Mn252 2.095 . S
O257 C266 1.250 . S
O258 Mn253 2.121 . S
O258 C266 1.258 . S
C259 N260 1.326 . S
C259 C263 1.460 . S
C259 H265 0.929 . S
N260 Mn253 2.257 . S
N260 C259 1.326 . S
N260 C264 1.362 . S
C261 C262 1.258 . S
C261 C264 1.431 . S
C261 C281 1.449 . S
C262 C261 1.258 . S
C262 C263 1.477 . S
C262 H282 0.931 . S
C263 C259 1.460 . S
C263 C262 1.477 . S
C263 H283 0.930 . S
C264 N260 1.362 . S
C264 C261 1.431 . S
C264 C274 1.476 . S
H265 C259 0.929 . S
C266 O257 1.250 . S
C266 O258 1.258 . S
O267 Mn252 2.162 . S
O267 C255 1.281 . S
O268 Mn252 2.297 . S
O268 C255 1.236 . S
N269 Mn253 2.282 . S
N269 C270 1.328 . S
N269 C274 1.318 . S
C270 N269 1.328 . S
C270 C271 1.457 . S
C270 H275 0.929 . S
C271 C270 1.457 . S
C271 C272 1.291 . S
C271 H284 0.931 . S
C272 C271 1.291 . S
C272 C273 1.373 . S
C272 H285 0.929 . S
C273 C272 1.373 . S
C273 C274 1.396 . S
C273 C280 1.403 . S
C274 C264 1.476 . S
C274 N269 1.318 . S
C274 C273 1.396 . S
H275 C270 0.929 . S
O276 Mn252 2.385 . S
O276 C254 1.234 . S
O277 Mn252 2.209 . S
O277 Mn253 2.215 . S
O277 C254 1.283 . S
O278 Mn252 2.094 . S
O278 C256 1.240 . S
O279 Mn253 2.117 . S
O279 C256 1.264 . S
C280 C273 1.403 . S
C280 C281 1.399 . S
C280 H286 0.929 . S
C281 C261 1.449 . S
C281 C280 1.399 . S
C281 H287 0.930 . S
H282 C262 0.931 . S
H283 C263 0.930 . S
H284 C271 0.931 . S
H285 C272 0.929 . S
H286 C280 0.929 . S
H287 C281 0.930 . S
Mn288 O293 2.095 . S
Mn288 O303 2.162 . S
Mn288 O304 2.297 . S
Mn288 O312 2.385 . S
Mn288 O313 2.209 . S
Mn288 O314 2.094 . S
Mn289 O294 2.121 . S
Mn289 N296 2.257 . S
Mn289 N305 2.282 . S
Mn289 O313 2.215 . S
Mn289 O315 2.117 . S
C290 O312 1.234 . S
C290 O313 1.283 . S
C291 O303 1.281 . S
C291 O304 1.236 . S
C292 O314 1.240 . S
C292 O315 1.264 . S
O293 Mn288 2.095 . S
O293 C302 1.250 . S
O294 Mn289 2.121 . S
O294 C302 1.258 . S
C295 N296 1.326 . S
C295 C299 1.460 . S
C295 H301 0.929 . S
N296 Mn289 2.257 . S
N296 C295 1.326 . S
N296 C300 1.362 . S
C297 C298 1.258 . S
C297 C300 1.431 . S
C297 C317 1.449 . S
C298 C297 1.258 . S
C298 C299 1.477 . S
C298 H318 0.931 . S
C299 C295 1.460 . S
C299 C298 1.477 . S
C299 H319 0.930 . S
C300 N296 1.362 . S
C300 C297 1.431 . S
C300 C310 1.476 . S
H301 C295 0.929 . S
C302 O293 1.250 . S
C302 O294 1.258 . S
O303 Mn288 2.162 . S
O303 C291 1.281 . S
O304 Mn288 2.297 . S
O304 C291 1.236 . S
N305 Mn289 2.282 . S
N305 C306 1.328 . S
N305 C310 1.318 . S
C306 N305 1.328 . S
C306 C307 1.457 . S
C306 H311 0.929 . S
C307 C306 1.457 . S
C307 C308 1.291 . S
C307 H320 0.931 . S
C308 C307 1.291 . S
C308 C309 1.373 . S
C308 H321 0.929 . S
C309 C308 1.373 . S
C309 C310 1.396 . S
C309 C316 1.403 . S
C310 C300 1.476 . S
C310 N305 1.318 . S
C310 C309 1.396 . S
H311 C306 0.929 . S
O312 Mn288 2.385 . S
O312 C290 1.234 . S
O313 Mn288 2.209 . S
O313 Mn289 2.215 . S
O313 C290 1.283 . S
O314 Mn288 2.094 . S
O314 C292 1.240 . S
O315 Mn289 2.117 . S
O315 C292 1.264 . S
C316 C309 1.403 . S
C316 C317 1.399 . S
C316 H322 0.929 . S
C317 C297 1.449 . S
C317 C316 1.399 . S
C317 H323 0.930 . S
H318 C298 0.931 . S
H319 C299 0.930 . S
H320 C307 0.931 . S
H321 C308 0.929 . S
H322 C316 0.929 . S
H323 C317 0.930 . S
H324 C336 0.930 . S
H325 C338 0.930 . S
H326 C339 0.930 . S
H327 C343 0.959 . S
H328 C343 0.959 . S
H329 C343 0.961 . S
H330 C344 0.960 . S
H331 C344 0.961 . S
H332 C344 0.959 . S
H333 C347 0.929 . S
H334 C348 0.931 . S
H335 C350 0.930 . S
C336 H324 0.930 . S
C336 C337 1.399 1_556 S
C336 C341 1.399 . S
C337 C336 1.399 1_554 S
C337 C338 1.376 . S
C338 H325 0.930 . S
C338 C337 1.376 . S
C338 C339 1.388 . S
C339 H326 0.930 . S
C339 C338 1.388 . S
C339 C340 1.390 . S
C340 C339 1.390 . S
C340 C341 1.394 1_554 S
C340 C346 1.465 . S
C341 C336 1.399 . S
C341 C340 1.394 1_556 S
C341 C342 1.516 . S
C342 C341 1.516 . S
C342 C343 1.502 . S
C342 C344 1.561 . S
C342 C345 1.527 . S
C343 H327 0.959 . S
C343 H328 0.959 . S
C343 H329 0.961 . S
C343 C342 1.502 . S
C344 H330 0.960 . S
C344 H331 0.961 . S
C344 H332 0.959 . S
C344 C342 1.561 . S
C345 C342 1.527 . S
C345 C346 1.394 1_556 S
C345 C350 1.390 . S
C346 C340 1.465 . S
C346 C345 1.394 1_554 S
C346 C347 1.399 . S
C347 H333 0.929 . S
C347 C346 1.399 . S
C347 C348 1.385 . S
C348 H334 0.931 . S
C348 C347 1.385 . S
C348 C349 1.389 . S
C349 C348 1.389 . S
C349 C350 1.387 1_554 S
C350 H335 0.930 . S
C350 C345 1.390 . S
C350 C349 1.387 1_556 S
H351 C363 0.930 . S
H352 C365 0.930 . S
H353 C366 0.930 . S
H354 C370 0.959 . S
H355 C370 0.959 . S
H356 C370 0.961 1_565 S
H357 C371 0.960 1_565 S
H358 C371 0.961 . S
H359 C371 0.959 . S
H360 C374 0.929 . S
H361 C375 0.931 . S
H362 C377 0.930 . S
C363 H351 0.930 . S
C363 C364 1.399 1_556 S
C363 C368 1.399 . S
C364 C363 1.399 1_554 S
C364 C365 1.376 . S
C365 H352 0.930 . S
C365 C364 1.376 . S
C365 C366 1.388 . S
C366 H353 0.930 . S
C366 C365 1.388 . S
C366 C367 1.390 . S
C367 C366 1.390 . S
C367 C368 1.394 1_554 S
C367 C373 1.465 1_565 S
C368 C363 1.399 . S
C368 C367 1.394 1_556 S
C368 C369 1.516 1_565 S
C369 C368 1.516 1_545 S
C369 C370 1.502 . S
C369 C371 1.561 . S
C369 C372 1.526 . S
C370 H354 0.959 . S
C370 H355 0.959 . S
C370 H356 0.961 1_545 S
C370 C369 1.502 . S
C371 H357 0.960 1_545 S
C371 H358 0.961 . S
C371 H359 0.959 . S
C371 C369 1.561 . S
C372 C369 1.526 . S
C372 C373 1.396 1_556 S
C372 C377 1.390 . S
C373 C367 1.465 1_545 S
C373 C372 1.396 1_554 S
C373 C374 1.399 . S
C374 H360 0.929 . S
C374 C373 1.399 . S
C374 C375 1.385 . S
C375 H361 0.931 . S
C375 C374 1.385 . S
C375 C376 1.389 . S
C376 C375 1.389 . S
C376 C377 1.387 1_554 S
C377 H362 0.930 . S
C377 C372 1.390 . S
C377 C376 1.387 1_556 S
H378 C390 0.930 . S
H379 C392 0.930 . S
H380 C393 0.930 . S
H381 C397 0.959 . S
H382 C397 0.959 . S
H383 C397 0.961 . S
H384 C398 0.960 1_655 S
H385 C398 0.961 . S
H386 C398 0.959 . S
H387 C401 0.929 . S
H388 C402 0.931 . S
H389 C404 0.930 . S
C390 H378 0.930 . S
C390 C391 1.399 1_556 S
C390 C395 1.399 . S
C391 C390 1.399 1_554 S
C391 C392 1.376 . S
C392 H379 0.930 . S
C392 C391 1.376 . S
C392 C393 1.388 . S
C393 H380 0.930 . S
C393 C392 1.388 . S
C393 C394 1.390 . S
C394 C393 1.390 . S
C394 C395 1.394 1_554 S
C394 C400 1.465 1_655 S
C395 C390 1.399 . S
C395 C394 1.394 1_556 S
C395 C396 1.516 1_655 S
C396 C395 1.516 1_455 S
C396 C397 1.502 . S
C396 C398 1.561 . S
C396 C399 1.526 . S
C397 H381 0.959 . S
C397 H382 0.959 . S
C397 H383 0.961 . S
C397 C396 1.502 . S
C398 H384 0.960 1_455 S
C398 H385 0.961 . S
C398 H386 0.959 . S
C398 C396 1.561 . S
C399 C396 1.526 . S
C399 C400 1.396 1_556 S
C399 C404 1.390 . S
C400 C394 1.465 1_455 S
C400 C399 1.396 1_554 S
C400 C401 1.399 . S
C401 H387 0.929 . S
C401 C400 1.399 . S
C401 C402 1.385 . S
C402 H388 0.931 . S
C402 C401 1.385 . S
C402 C403 1.389 . S
C403 C402 1.389 . S
C403 C404 1.387 1_554 S
C404 H389 0.930 . S
C404 C399 1.390 . S
C404 C403 1.387 1_556 S
H405 C417 0.930 . S
H406 C419 0.930 . S
H407 C420 0.930 . S
H408 C424 0.959 . S
H409 C424 0.959 . S
H410 C424 0.961 . S
H411 C425 0.960 . S
H412 C425 0.961 . S
H413 C425 0.959 . S
H414 C428 0.929 . S
H415 C429 0.931 . S
H416 C431 0.930 . S
C417 H405 0.930 . S
C417 C418 1.399 . S
C417 C422 1.399 . S
C418 C417 1.399 . S
C418 C419 1.376 . S
C419 H406 0.930 . S
C419 C418 1.376 . S
C419 C420 1.388 . S
C420 H407 0.930 . S
C420 C419 1.388 . S
C420 C421 1.390 . S
C421 C420 1.390 . S
C421 C422 1.394 . S
C421 C427 1.465 . S
C422 C417 1.399 . S
C422 C421 1.394 . S
C422 C423 1.516 . S
C423 C422 1.516 . S
C423 C424 1.502 . S
C423 C425 1.561 . S
C423 C426 1.526 . S
C424 H408 0.959 . S
C424 H409 0.959 . S
C424 H410 0.961 . S
C424 C423 1.502 . S
C425 H411 0.960 . S
C425 H412 0.961 . S
C425 H413 0.959 . S
C425 C423 1.561 . S
C426 C423 1.526 . S
C426 C427 1.396 . S
C426 C431 1.390 . S
C427 C421 1.465 . S
C427 C426 1.396 . S
C427 C428 1.399 . S
C428 H414 0.929 . S
C428 C427 1.399 . S
C428 C429 1.385 . S
C429 H415 0.931 . S
C429 C428 1.385 . S
C429 C430 1.389 . S
C430 C429 1.389 . S
C430 C431 1.387 . S
C431 H416 0.930 . S
C431 C426 1.390 . S
C431 C430 1.387 . S
H432 C444 0.930 . S
H433 C446 0.930 . S
H434 C447 0.930 . S
H435 C451 0.959 . S
H436 C451 0.959 . S
H437 C451 0.961 . S
H438 C452 0.960 . S
H439 C452 0.961 . S
H440 C452 0.959 . S
H441 C455 0.929 . S
H442 C456 0.931 . S
H443 C458 0.930 . S
C444 H432 0.930 . S
C444 C445 1.399 . S
C444 C449 1.399 . S
C445 C444 1.399 . S
C445 C446 1.376 . S
C446 H433 0.930 . S
C446 C445 1.376 . S
C446 C447 1.388 . S
C447 H434 0.930 . S
C447 C446 1.388 . S
C447 C448 1.390 . S
C448 C447 1.390 . S
C448 C449 1.394 . S
C448 C454 1.465 . S
C449 C444 1.399 . S
C449 C448 1.394 . S
C449 C450 1.516 . S
C450 C449 1.516 . S
C450 C451 1.502 . S
C450 C452 1.561 . S
C450 C453 1.526 . S
C451 H435 0.959 . S
C451 H436 0.959 . S
C451 H437 0.961 . S
C451 C450 1.502 . S
C452 H438 0.960 . S
C452 H439 0.961 . S
C452 H440 0.959 . S
C452 C450 1.561 . S
C453 C450 1.526 . S
C453 C454 1.396 . S
C453 C458 1.390 . S
C454 C448 1.465 . S
C454 C453 1.396 . S
C454 C455 1.399 . S
C455 H441 0.929 . S
C455 C454 1.399 . S
C455 C456 1.385 . S
C456 H442 0.931 . S
C456 C455 1.385 . S
C456 C457 1.389 . S
C457 C456 1.389 . S
C457 C458 1.387 . S
C458 H443 0.930 . S
C458 C453 1.390 . S
C458 C457 1.387 . S
H459 C471 0.930 . S
H460 C473 0.930 . S
H461 C474 0.930 . S
H462 C478 0.959 . S
H463 C478 0.959 . S
H464 C478 0.961 . S
H465 C479 0.960 . S
H466 C479 0.961 . S
H467 C479 0.959 . S
H468 C482 0.929 . S
H469 C483 0.931 . S
H470 C485 0.930 . S
C471 H459 0.930 . S
C471 C472 1.399 . S
C471 C476 1.399 . S
C472 C471 1.399 . S
C472 C473 1.376 . S
C473 H460 0.930 . S
C473 C472 1.376 . S
C473 C474 1.388 . S
C474 H461 0.930 . S
C474 C473 1.388 . S
C474 C475 1.390 . S
C475 C474 1.390 . S
C475 C476 1.394 . S
C475 C481 1.465 . S
C476 C471 1.399 . S
C476 C475 1.394 . S
C476 C477 1.516 . S
C477 C476 1.516 . S
C477 C478 1.502 . S
C477 C479 1.561 . S
C477 C480 1.526 . S
C478 H462 0.959 . S
C478 H463 0.959 . S
C478 H464 0.961 . S
C478 C477 1.502 . S
C479 H465 0.960 . S
C479 H466 0.961 . S
C479 H467 0.959 . S
C479 C477 1.561 . S
C480 C477 1.526 . S
C480 C481 1.396 . S
C480 C485 1.390 . S
C481 C475 1.465 . S
C481 C480 1.396 . S
C481 C482 1.399 . S
C482 H468 0.929 . S
C482 C481 1.399 . S
C482 C483 1.385 . S
C483 H469 0.931 . S
C483 C482 1.385 . S
C483 C484 1.389 . S
C484 C483 1.389 . S
C484 C485 1.387 . S
C485 H470 0.930 . S
C485 C480 1.390 . S
C485 C484 1.387 . S
H486 C498 0.930 . S
H487 C500 0.930 . S
H488 C501 0.930 . S
H489 C505 0.959 . S
H490 C505 0.959 . S
H491 C505 0.961 . S
H492 C506 0.960 . S
H493 C506 0.961 . S
H494 C506 0.959 . S
H495 C509 0.929 . S
H496 C510 0.931 . S
H497 C512 0.930 . S
C498 H486 0.930 . S
C498 C499 1.399 . S
C498 C503 1.399 . S
C499 C498 1.399 . S
C499 C500 1.376 . S
C500 H487 0.930 . S
C500 C499 1.376 . S
C500 C501 1.388 . S
C501 H488 0.930 . S
C501 C500 1.388 . S
C501 C502 1.390 . S
C502 C501 1.390 . S
C502 C503 1.394 . S
C502 C508 1.465 . S
C503 C498 1.399 . S
C503 C502 1.394 . S
C503 C504 1.516 . S
C504 C503 1.516 . S
C504 C505 1.502 . S
C504 C506 1.561 . S
C504 C507 1.526 . S
C505 H489 0.959 . S
C505 H490 0.959 . S
C505 H491 0.961 . S
C505 C504 1.502 . S
C506 H492 0.960 . S
C506 H493 0.961 . S
C506 H494 0.959 . S
C506 C504 1.561 . S
C507 C504 1.526 . S
C507 C508 1.396 . S
C507 C512 1.390 . S
C508 C502 1.465 . S
C508 C507 1.396 . S
C508 C509 1.399 . S
C509 H495 0.929 . S
C509 C508 1.399 . S
C509 C510 1.385 . S
C510 H496 0.931 . S
C510 C509 1.385 . S
C510 C511 1.389 . S
C511 C510 1.389 . S
C511 C512 1.387 . S
C512 H497 0.930 . S
C512 C507 1.390 . S
C512 C511 1.387 . S
H513 C525 0.930 . S
H514 C527 0.930 . S
H515 C528 0.930 . S
H516 C532 0.959 . S
H517 C532 0.959 . S
H518 C532 0.961 . S
H519 C533 0.960 . S
H520 C533 0.961 . S
H521 C533 0.959 . S
H522 C536 0.929 . S
H523 C537 0.931 . S
H524 C539 0.930 . S
C525 H513 0.930 . S
C525 C526 1.399 . S
C525 C530 1.399 . S
C526 C525 1.399 . S
C526 C527 1.376 . S
C527 H514 0.930 . S
C527 C526 1.376 . S
C527 C528 1.388 . S
C528 H515 0.930 . S
C528 C527 1.388 . S
C528 C529 1.390 . S
C529 C528 1.390 . S
C529 C530 1.394 . S
C529 C535 1.465 . S
C530 C525 1.399 . S
C530 C529 1.394 . S
C530 C531 1.516 . S
C531 C530 1.516 . S
C531 C532 1.502 . S
C531 C533 1.561 . S
C531 C534 1.526 . S
C532 H516 0.959 . S
C532 H517 0.959 . S
C532 H518 0.961 . S
C532 C531 1.502 . S
C533 H519 0.960 . S
C533 H520 0.961 . S
C533 H521 0.959 . S
C533 C531 1.561 . S
C534 C531 1.526 . S
C534 C535 1.396 . S
C534 C539 1.390 . S
C535 C529 1.465 . S
C535 C534 1.396 . S
C535 C536 1.399 . S
C536 H522 0.929 . S
C536 C535 1.399 . S
C536 C537 1.385 . S
C537 H523 0.931 . S
C537 C536 1.385 . S
C537 C538 1.389 . S
C538 C537 1.389 . S
C538 C539 1.387 . S
C539 H524 0.930 . S
C539 C534 1.390 . S
C539 C538 1.387 . S
H540 C552 0.930 . S
H541 C554 0.930 . S
H542 C555 0.930 . S
H543 C559 0.959 . S
H544 C559 0.959 . S
H545 C559 0.961 . S
H546 C560 0.960 . S
H547 C560 0.961 . S
H548 C560 0.959 . S
H549 C563 0.929 . S
H550 C564 0.931 . S
H551 C566 0.930 . S
C552 H540 0.930 . S
C552 C553 1.399 . S
C552 C557 1.399 . S
C553 C552 1.399 . S
C553 C554 1.376 . S
C554 H541 0.930 . S
C554 C553 1.376 . S
C554 C555 1.388 . S
C555 H542 0.930 . S
C555 C554 1.388 . S
C555 C556 1.390 . S
C556 C555 1.390 . S
C556 C557 1.394 . S
C556 C562 1.465 . S
C557 C552 1.399 . S
C557 C556 1.394 . S
C557 C558 1.516 . S
C558 C557 1.516 . S
C558 C559 1.502 . S
C558 C560 1.561 . S
C558 C561 1.526 . S
C559 H543 0.959 . S
C559 H544 0.959 . S
C559 H545 0.961 . S
C559 C558 1.502 . S
C560 H546 0.960 . S
C560 H547 0.961 . S
C560 H548 0.959 . S
C560 C558 1.561 . S
C561 C558 1.526 . S
C561 C562 1.396 . S
C561 C566 1.390 . S
C562 C556 1.465 . S
C562 C561 1.396 . S
C562 C563 1.399 . S
C563 H549 0.929 . S
C563 C562 1.399 . S
C563 C564 1.385 . S
C564 H550 0.931 . S
C564 C563 1.385 . S
C564 C565 1.389 . S
C565 C564 1.389 . S
C565 C566 1.387 . S
C566 H551 0.930 . S
C566 C561 1.390 . S
C566 C565 1.387 . S
H567 C579 0.930 . S
H568 C581 0.930 . S
H569 C582 0.930 . S
H570 C586 0.959 . S
H571 C586 0.959 . S
H572 C586 0.961 . S
H573 C587 0.960 . S
H574 C587 0.961 . S
H575 C587 0.959 . S
H576 C590 0.929 . S
H577 C591 0.931 . S
H578 C593 0.930 . S
C579 H567 0.930 . S
C579 C580 1.399 . S
C579 C584 1.399 . S
C580 C579 1.399 . S
C580 C581 1.376 . S
C581 H568 0.930 . S
C581 C580 1.376 . S
C581 C582 1.388 . S
C582 H569 0.930 . S
C582 C581 1.388 . S
C582 C583 1.390 . S
C583 C582 1.390 . S
C583 C584 1.394 . S
C583 C589 1.465 . S
C584 C579 1.399 . S
C584 C583 1.394 . S
C584 C585 1.516 . S
C585 C584 1.516 . S
C585 C586 1.502 . S
C585 C587 1.561 . S
C585 C588 1.526 . S
C586 H570 0.959 . S
C586 H571 0.959 . S
C586 H572 0.961 . S
C586 C585 1.502 . S
C587 H573 0.960 . S
C587 H574 0.961 . S
C587 H575 0.959 . S
C587 C585 1.561 . S
C588 C585 1.526 . S
C588 C589 1.396 . S
C588 C593 1.390 . S
C589 C583 1.465 . S
C589 C588 1.396 . S
C589 C590 1.399 . S
C590 H576 0.929 . S
C590 C589 1.399 . S
C590 C591 1.385 . S
C591 H577 0.931 . S
C591 C590 1.385 . S
C591 C592 1.389 . S
C592 C591 1.389 . S
C592 C593 1.387 . S
C593 H578 0.930 . S
C593 C588 1.390 . S
C593 C592 1.387 . S
H594 C606 0.930 . S
H595 C608 0.930 . S
H596 C609 0.930 . S
H597 C613 0.959 . S
H598 C613 0.959 . S
H599 C613 0.961 . S
H600 C614 0.960 . S
H601 C614 0.961 . S
H602 C614 0.959 . S
H603 C617 0.929 . S
H604 C618 0.931 . S
H605 C620 0.930 . S
C606 H594 0.930 . S
C606 C607 1.399 . S
C606 C611 1.399 . S
C607 C606 1.399 . S
C607 C608 1.376 . S
C608 H595 0.930 . S
C608 C607 1.376 . S
C608 C609 1.388 . S
C609 H596 0.930 . S
C609 C608 1.388 . S
C609 C610 1.390 . S
C610 C609 1.390 . S
C610 C611 1.394 . S
C610 C616 1.465 . S
C611 C606 1.399 . S
C611 C610 1.394 . S
C611 C612 1.516 . S
C612 C611 1.516 . S
C612 C613 1.502 . S
C612 C614 1.561 . S
C612 C615 1.526 . S
C613 H597 0.959 . S
C613 H598 0.959 . S
C613 H599 0.961 . S
C613 C612 1.502 . S
C614 H600 0.960 . S
C614 H601 0.961 . S
C614 H602 0.959 . S
C614 C612 1.561 . S
C615 C612 1.526 . S
C615 C616 1.396 . S
C615 C620 1.390 . S
C616 C610 1.465 . S
C616 C615 1.396 . S
C616 C617 1.399 . S
C617 H603 0.929 . S
C617 C616 1.399 . S
C617 C618 1.385 . S
C618 H604 0.931 . S
C618 C617 1.385 . S
C618 C619 1.389 . S
C619 C618 1.389 . S
C619 C620 1.387 . S
C620 H605 0.930 . S
C620 C615 1.390 . S
C620 C619 1.387 . S
H621 C633 0.930 . S
H622 C635 0.930 . S
H623 C636 0.930 . S
H624 C640 0.959 . S
H625 C640 0.959 . S
H626 C640 0.961 . S
H627 C641 0.960 . S
H628 C641 0.961 . S
H629 C641 0.959 . S
H630 C644 0.929 . S
H631 C645 0.931 . S
H632 C647 0.930 . S
C633 H621 0.930 . S
C633 C634 1.399 . S
C633 C638 1.399 . S
C634 C633 1.399 . S
C634 C635 1.376 . S
C635 H622 0.930 . S
C635 C634 1.376 . S
C635 C636 1.388 . S
C636 H623 0.930 . S
C636 C635 1.388 . S
C636 C637 1.390 . S
C637 C636 1.390 . S
C637 C638 1.394 . S
C637 C643 1.465 . S
C638 C633 1.399 . S
C638 C637 1.394 . S
C638 C639 1.516 . S
C639 C638 1.516 . S
C639 C640 1.502 . S
C639 C641 1.561 1_565 S
C639 C642 1.526 . S
C640 H624 0.959 . S
C640 H625 0.959 . S
C640 H626 0.961 . S
C640 C639 1.502 . S
C641 H627 0.960 . S
C641 H628 0.961 . S
C641 H629 0.959 . S
C641 C639 1.561 1_545 S
C642 C639 1.526 . S
C642 C643 1.396 . S
C642 C647 1.390 . S
C643 C637 1.465 . S
C643 C642 1.396 . S
C643 C644 1.399 . S
C644 H630 0.929 . S
C644 C643 1.399 . S
C644 C645 1.385 . S
C645 H631 0.931 . S
C645 C644 1.385 . S
C645 C646 1.389 . S
C646 C645 1.389 . S
C646 C647 1.387 . S
C647 H632 0.930 . S
C647 C642 1.390 . S
C647 C646 1.387 . S
H648 C660 0.930 . S
H649 C662 0.930 . S
H650 C663 0.930 . S
H651 C667 0.959 . S
H652 C667 0.959 1_565 S
H653 C667 0.961 . S
H654 C668 0.960 . S
H655 C668 0.961 . S
H656 C668 0.959 . S
H657 C671 0.929 . S
H658 C672 0.931 . S
H659 C674 0.930 . S
C660 H648 0.930 . S
C660 C661 1.399 . S
C660 C665 1.399 . S
C661 C660 1.399 . S
C661 C662 1.376 . S
C662 H649 0.930 . S
C662 C661 1.376 . S
C662 C663 1.388 . S
C663 H650 0.930 . S
C663 C662 1.388 . S
C663 C664 1.390 . S
C664 C663 1.390 . S
C664 C665 1.394 . S
C664 C670 1.465 . S
C665 C660 1.399 . S
C665 C664 1.394 . S
C665 C666 1.516 . S
C666 C665 1.516 . S
C666 C667 1.502 . S
C666 C668 1.561 . S
C666 C669 1.526 . S
C667 H651 0.959 . S
C667 H652 0.959 1_545 S
C667 H653 0.961 . S
C667 C666 1.502 . S
C668 H654 0.960 . S
C668 H655 0.961 . S
C668 H656 0.959 . S
C668 C666 1.561 . S
C669 C666 1.526 . S
C669 C670 1.396 . S
C669 C674 1.390 . S
C670 C664 1.465 . S
C670 C669 1.396 . S
C670 C671 1.399 . S
C671 H657 0.929 . S
C671 C670 1.399 . S
C671 C672 1.385 . S
C672 H658 0.931 . S
C672 C671 1.385 . S
C672 C673 1.389 . S
C673 C672 1.389 . S
C673 C674 1.387 . S
C674 H659 0.930 . S
C674 C669 1.390 . S
C674 C673 1.387 . S
H675 C687 0.930 1_455 S
H676 C689 0.930 . S
H677 C690 0.930 . S
H678 C694 0.959 . S
H679 C694 0.959 . S
H680 C694 0.961 . S
H681 C695 0.960 1_455 S
H682 C695 0.961 . S
H683 C695 0.959 . S
H684 C698 0.929 . S
H685 C699 0.931 . S
H686 C701 0.930 . S
C687 H675 0.930 1_655 S
C687 C688 1.399 . S
C687 C692 1.399 . S
C688 C687 1.399 . S
C688 C689 1.376 . S
C689 H676 0.930 . S
C689 C688 1.376 . S
C689 C690 1.388 . S
C690 H677 0.930 . S
C690 C689 1.388 . S
C690 C691 1.390 . S
C691 C690 1.390 . S
C691 C692 1.394 . S
C691 C697 1.465 . S
C692 C687 1.399 . S
C692 C691 1.394 . S
C692 C693 1.516 . S
C693 C692 1.516 . S
C693 C694 1.502 1_655 S
C693 C695 1.561 . S
C693 C696 1.526 . S
C694 H678 0.959 . S
C694 H679 0.959 . S
C694 H680 0.961 . S
C694 C693 1.502 1_455 S
C695 H681 0.960 1_655 S
C695 H682 0.961 . S
C695 H683 0.959 . S
C695 C693 1.561 . S
C696 C693 1.526 . S
C696 C697 1.396 . S
C696 C701 1.390 . S
C697 C691 1.465 . S
C697 C696 1.396 . S
C697 C698 1.399 . S
C698 H684 0.929 . S
C698 C697 1.399 . S
C698 C699 1.385 . S
C699 H685 0.931 . S
C699 C698 1.385 . S
C699 C700 1.389 . S
C700 C699 1.389 . S
C700 C701 1.387 . S
C701 H686 0.930 . S
C701 C696 1.390 . S
C701 C700 1.387 . S
H702 C714 0.930 . S
H703 C716 0.930 . S
H704 C717 0.930 . S
H705 C721 0.959 . S
H706 C721 0.959 . S
H707 C721 0.961 . S
H708 C722 0.960 . S
H709 C722 0.961 . S
H710 C722 0.959 . S
H711 C725 0.929 . S
H712 C726 0.931 . S
H713 C728 0.930 . S
C714 H702 0.930 . S
C714 C715 1.399 . S
C714 C719 1.399 . S
C715 C714 1.399 . S
C715 C716 1.376 . S
C716 H703 0.930 . S
C716 C715 1.376 . S
C716 C717 1.388 . S
C717 H704 0.930 . S
C717 C716 1.388 . S
C717 C718 1.390 . S
C718 C717 1.390 . S
C718 C719 1.394 . S
C718 C724 1.465 . S
C719 C714 1.399 . S
C719 C718 1.394 . S
C719 C720 1.516 . S
C720 C719 1.516 . S
C720 C721 1.502 . S
C720 C722 1.561 . S
C720 C723 1.526 . S
C721 H705 0.959 . S
C721 H706 0.959 . S
C721 H707 0.961 . S
C721 C720 1.502 . S
C722 H708 0.960 . S
C722 H709 0.961 . S
C722 H710 0.959 . S
C722 C720 1.561 . S
C723 C720 1.526 . S
C723 C724 1.396 . S
C723 C728 1.390 . S
C724 C718 1.465 . S
C724 C723 1.396 . S
C724 C725 1.399 . S
C725 H711 0.929 . S
C725 C724 1.399 . S
C725 C726 1.385 . S
C726 H712 0.931 . S
C726 C725 1.385 . S
C726 C727 1.389 . S
C727 C726 1.389 . S
C727 C728 1.387 . S
C728 H713 0.930 . S
C728 C723 1.390 . S
C728 C727 1.387 . S
H729 C741 0.930 . S
H730 C743 0.930 . S
H731 C744 0.930 . S
H732 C748 0.959 . S
H733 C748 0.959 1_655 S
H734 C748 0.961 . S
H735 C749 0.960 . S
H736 C749 0.961 . S
H737 C749 0.959 . S
H738 C752 0.929 . S
H739 C753 0.931 . S
H740 C755 0.930 . S
C741 H729 0.930 . S
C741 C742 1.399 . S
C741 C746 1.399 . S
C742 C741 1.399 . S
C742 C743 1.376 . S
C743 H730 0.930 . S
C743 C742 1.376 . S
C743 C744 1.388 . S
C744 H731 0.930 . S
C744 C743 1.388 . S
C744 C745 1.390 . S
C745 C744 1.390 . S
C745 C746 1.394 . S
C745 C751 1.465 . S
C746 C741 1.399 . S
C746 C745 1.394 . S
C746 C747 1.516 . S
C747 C746 1.516 . S
C747 C748 1.502 . S
C747 C749 1.561 1_455 S
C747 C750 1.526 1_455 S
C748 H732 0.959 . S
C748 H733 0.959 1_455 S
C748 H734 0.961 . S
C748 C747 1.502 . S
C749 H735 0.960 . S
C749 H736 0.961 . S
C749 H737 0.959 . S
C749 C747 1.561 1_655 S
C750 C747 1.526 1_655 S
C750 C751 1.396 1_655 S
C750 C755 1.390 . S
C751 C745 1.465 . S
C751 C750 1.396 1_455 S
C751 C752 1.399 . S
C752 H738 0.929 . S
C752 C751 1.399 . S
C752 C753 1.385 1_455 S
C753 H739 0.931 . S
C753 C752 1.385 1_655 S
C753 C754 1.389 . S
C754 C753 1.389 . S
C754 C755 1.387 . S
C755 H740 0.930 . S
C755 C750 1.390 . S
C755 C754 1.387 . S
H756 C768 0.930 . S
H757 C770 0.930 . S
H758 C771 0.930 . S
H759 C775 0.959 . S
H760 C775 0.959 . S
H761 C775 0.961 . S
H762 C776 0.960 . S
H763 C776 0.961 . S
H764 C776 0.959 . S
H765 C779 0.929 . S
H766 C780 0.931 . S
H767 C782 0.930 . S
C768 H756 0.930 . S
C768 C769 1.399 . S
C768 C773 1.399 . S
C769 C768 1.399 . S
C769 C770 1.376 . S
C770 H757 0.930 . S
C770 C769 1.376 . S
C770 C771 1.388 . S
C771 H758 0.930 . S
C771 C770 1.388 . S
C771 C772 1.390 . S
C772 C771 1.390 . S
C772 C773 1.394 . S
C772 C778 1.465 . S
C773 C768 1.399 . S
C773 C772 1.394 . S
C773 C774 1.516 . S
C774 C773 1.516 . S
C774 C775 1.502 . S
C774 C776 1.561 . S
C774 C777 1.526 . S
C775 H759 0.959 . S
C775 H760 0.959 . S
C775 H761 0.961 . S
C775 C774 1.502 . S
C776 H762 0.960 . S
C776 H763 0.961 . S
C776 H764 0.959 . S
C776 C774 1.561 . S
C777 C774 1.526 . S
C777 C778 1.396 . S
C777 C782 1.390 . S
C778 C772 1.465 . S
C778 C777 1.396 . S
C778 C779 1.399 . S
C779 H765 0.929 . S
C779 C778 1.399 . S
C779 C780 1.385 . S
C780 H766 0.931 . S
C780 C779 1.385 . S
C780 C781 1.389 . S
C781 C780 1.389 . S
C781 C782 1.387 . S
C782 H767 0.930 . S
C782 C777 1.390 . S
C782 C781 1.387 . S
H783 C795 0.930 . S
H784 C797 0.930 . S
H785 C798 0.930 . S
H786 C802 0.959 . S
H787 C802 0.959 . S
H788 C802 0.961 . S
H789 C803 0.960 . S
H790 C803 0.961 . S
H791 C803 0.959 . S
H792 C806 0.929 1_565 S
H793 C807 0.931 . S
H794 C809 0.930 . S
C795 H783 0.930 . S
C795 C796 1.399 . S
C795 C800 1.408 . S
C796 C795 1.399 . S
C796 C797 1.376 . S
C797 H784 0.930 . S
C797 C796 1.376 . S
C797 C798 1.388 . S
C798 H785 0.930 . S
C798 C797 1.388 . S
C798 C799 1.390 . S
C799 C798 1.390 . S
C799 C800 1.396 . S
C799 C805 1.465 1_565 S
C800 C795 1.408 . S
C800 C799 1.396 . S
C800 C801 1.505 1_565 S
C801 C800 1.505 1_545 S
C801 C802 1.502 . S
C801 C803 1.561 . S
C801 C804 1.526 . S
C802 H786 0.959 . S
C802 H787 0.959 . S
C802 H788 0.961 . S
C802 C801 1.502 . S
C803 H789 0.960 . S
C803 H790 0.961 . S
C803 H791 0.959 . S
C803 C801 1.561 . S
C804 C801 1.526 . S
C804 C805 1.396 . S
C804 C809 1.390 . S
C805 C799 1.465 1_545 S
C805 C804 1.396 . S
C805 C806 1.399 . S
C806 H792 0.929 1_545 S
C806 C805 1.399 . S
C806 C807 1.385 . S
C807 H793 0.931 . S
C807 C806 1.385 . S
C807 C808 1.389 . S
C808 C807 1.389 . S
C808 C809 1.387 . S
C809 H794 0.930 . S
C809 C804 1.390 . S
C809 C808 1.387 . S
C337 C75 0.970 . S
C349 C2 0.971 . S
C364 C39 1.036 . S
C376 C3 1.013 . S
C391 C38 0.974 . S
C403 C74 1.054 . S
C418 C182 1.029 . S
C430 C110 1.003 . S
C445 C147 0.932 . S
C457 C111 0.965 . S
C472 C146 0.915 . S
C484 C183 0.997 . S
C499 C218 0.931 . S
C511 C291 1.010 . S
C526 C219 0.882 . S
C538 C255 0.914 . S
C553 C254 0.996 . S
C565 C290 1.070 . S
C580 C4 1.376 . S
C592 C256 1.371 . S
C607 C50 1.335 . S
C619 C302 1.328 . S
C634 C230 1.334 . S
C646 C76 1.341 . S
C661 C158 1.342 . S
C673 C86 1.336 . S
C688 C14 1.364 1_655 S
C700 C194 1.366 . S
C715 C112 1.407 . S
C727 C40 1.402 . S
C742 C266 1.386 . S
C754 C184 1.361 . S
C769 C122 1.346 . S
C781 C292 1.415 . S
C796 C220 1.374 . S
C808 C148 1.362 . S
