# Generated by pormake.
# Topology mdf, (4)-cn, num edge types: 1
# Building blocks:
#     Node 0, Type 0, BuildingBlock: KUFVIS_clean_sbu_0, # of connection points: 4
#     Node 1, Type 0, BuildingBlock: KUFVIS_clean_sbu_0, # of connection points: 4
#     Node 2, Type 0, BuildingBlock: KUFVIS_clean_sbu_0, # of connection points: 4
#     Node 3, Type 0, BuildingBlock: KUFVIS_clean_sbu_0, # of connection points: 4
#     Node 4, Type 0, BuildingBlock: KUFVIS_clean_sbu_0, # of connection points: 4
#     Node 5, Type 0, BuildingBlock: KUFVIS_clean_sbu_0, # of connection points: 4
#     Node 6, Type 0, BuildingBlock: KUFVIS_clean_sbu_0, # of connection points: 4
#     Node 7, Type 0, BuildingBlock: KUFVIS_clean_sbu_0, # of connection points: 4
#     Edge 8, Type (0, 0), BuildingBlock: XUDNAN_clean_linker_2, # of connection points: 2
#     Edge 9, Type (0, 0), BuildingBlock: XUDNAN_clean_linker_2, # of connection points: 2
#     Edge 10, Type (0, 0), BuildingBlock: XUDNAN_clean_linker_2, # of connection points: 2
#     Edge 11, Type (0, 0), BuildingBlock: XUDNAN_clean_linker_2, # of connection points: 2
#     Edge 12, Type (0, 0), BuildingBlock: XUDNAN_clean_linker_2, # of connection points: 2
#     Edge 13, Type (0, 0), BuildingBlock: XUDNAN_clean_linker_2, # of connection points: 2
#     Edge 14, Type (0, 0), BuildingBlock: XUDNAN_clean_linker_2, # of connection points: 2
#     Edge 15, Type (0, 0), BuildingBlock: XUDNAN_clean_linker_2, # of connection points: 2
#     Edge 16, Type (0, 0), BuildingBlock: XUDNAN_clean_linker_2, # of connection points: 2
#     Edge 17, Type (0, 0), BuildingBlock: XUDNAN_clean_linker_2, # of connection points: 2
#     Edge 18, Type (0, 0), BuildingBlock: XUDNAN_clean_linker_2, # of connection points: 2
#     Edge 19, Type (0, 0), BuildingBlock: XUDNAN_clean_linker_2, # of connection points: 2
#     Edge 20, Type (0, 0), BuildingBlock: XUDNAN_clean_linker_2, # of connection points: 2
#     Edge 21, Type (0, 0), BuildingBlock: XUDNAN_clean_linker_2, # of connection points: 2
#     Edge 22, Type (0, 0), BuildingBlock: XUDNAN_clean_linker_2, # of connection points: 2
#     Edge 23, Type (0, 0), BuildingBlock: XUDNAN_clean_linker_2, # of connection points: 2
# Relax obj value: 0.028
# Max RMSD: 0.051
# Mean RMSD: 0.051
data_MOF--net-mdf--node1-KUFVIS_clean_sbu_0--edge1-XUDNAN_clean_linker_2
_symmetry_space_group_name_H-M    P1
_symmetry_Int_Tables_number       1
_symmetry_cell_setting            triclinic
loop_
_symmetry_equiv_pos_as_xyz
'x, y, z'
_cell_length_a     37.148183
_cell_length_b     37.181825
_cell_length_c     12.174141
_cell_angle_alpha  90.313319
_cell_angle_beta   90.127355
_cell_angle_gamma 92.477643
loop_
_atom_site_label
_atom_site_type_symbol
_atom_site_fract_x
_atom_site_fract_y
_atom_site_fract_z
_atom_type_partial_charge
Mn0 Mn 0.25602 0.53574 0.43352 0.0
Mn1 Mn 0.25796 0.50674 0.16938 0.0
C2 C 0.21978 0.48672 0.3749 0.0
C3 C 0.23333 0.57329 0.57062 0.0
C4 C 0.31643 0.49129 0.33627 0.0
O5 O 0.2808 0.57838 0.35493 0.0
O6 O 0.27678 0.55719 0.1809 0.0
C7 C 0.20196 0.55455 0.08793 0.0
N8 N 0.21487 0.52101 0.09812 0.0
C9 C 0.16436 0.49469 0.99764 0.0
C10 C 0.15101 0.52906 0.98385 0.0
C11 C 0.16968 0.55906 0.03035 0.0
C12 C 0.19637 0.49183 0.0574 0.0
H13 H 0.21596 0.57756 0.12463 0.0
C14 C 0.28489 0.58185 0.25141 0.0
O15 O 0.26444 0.559 0.58033 0.0
O16 O 0.21558 0.56619 0.48057 0.0
N17 N 0.23985 0.45847 0.14308 0.0
C18 C 0.25625 0.42716 0.16387 0.0
C19 C 0.24205 0.39481 0.11842 0.0
C20 C 0.2109 0.39489 0.05294 0.0
C21 C 0.1939 0.42721 0.03496 0.0
C22 C 0.21002 0.45879 0.07918 0.0
H23 H 0.28032 0.42695 0.21311 0.0
O24 O 0.22712 0.49121 0.47848 0.0
O25 O 0.2334 0.51102 0.30991 0.0
O26 O 0.30174 0.5072 0.41679 0.0
O27 O 0.30284 0.4897 0.23937 0.0
C28 C 0.16205 0.42942 0.97276 0.0
C29 C 0.14703 0.46312 0.95526 0.0
H30 H 0.12624 0.53269 0.93892 0.0
H31 H 0.15912 0.58554 0.02201 0.0
H32 H 0.25523 0.36989 0.13317 0.0
H33 H 0.20029 0.36997 0.01658 0.0
H34 H 0.14882 0.40537 0.93836 0.0
H35 H 0.12231 0.46448 0.90843 0.0
Mn36 Mn 0.48848 0.75646 0.6151 0.0
Mn37 Mn 0.52584 0.75681 0.86937 0.0
C38 C 0.53577 0.7965 0.65908 0.0
C39 C 0.44614 0.77735 0.48942 0.0
C40 C 0.54047 0.69991 0.69668 0.0
O41 O 0.44999 0.72948 0.70666 0.0
O42 O 0.47706 0.73399 0.87266 0.0
C43 C 0.47685 0.80718 0.97601 0.0
N44 N 0.51084 0.79791 0.9495 0.0
C45 C 0.53676 0.84988 0.04388 0.0
C46 C 0.50205 0.85986 0.07282 0.0
C47 C 0.47197 0.83855 0.03808 0.0
C48 C 0.53993 0.8185 0.98118 0.0
H49 H 0.45364 0.79085 0.94963 0.0
C50 C 0.4506 0.72427 0.81044 0.0
O51 O 0.46156 0.74702 0.47433 0.0
O52 O 0.45421 0.79472 0.57941 0.0
N53 N 0.57331 0.77858 0.8795 0.0
C54 C 0.60485 0.76569 0.8423 0.0
C55 C 0.63753 0.7838 0.87035 0.0
C56 C 0.63748 0.815 0.936 0.0
C57 C 0.60473 0.82764 0.97378 0.0
C58 C 0.57305 0.80802 0.94516 0.0
H59 H 0.60509 0.74158 0.79253 0.0
O60 O 0.52906 0.78811 0.55727 0.0
O61 O 0.51493 0.78113 0.73174 0.0
O62 O 0.52131 0.71296 0.62033 0.0
O63 O 0.54338 0.71395 0.79257 0.0
C64 C 0.60227 0.85896 0.03856 0.0
C65 C 0.56829 0.87018 0.0731 0.0
H66 H 0.49815 0.88402 0.12071 0.0
H67 H 0.44512 0.84637 0.05897 0.0
H68 H 0.66273 0.7737 0.84148 0.0
H69 H 0.66274 0.82905 0.9569 0.0
H70 H 0.62632 0.87481 0.06131 0.0
H71 H 0.56669 0.89457 0.12157 0.0
Mn72 Mn 0.27801 0.9834 0.9382 0.0
Mn73 Mn 0.24871 0.02758 0.71416 0.0
C74 C 0.3134 0.03009 0.8632 0.0
C75 C 0.30817 0.93588 0.01881 0.0
C76 C 0.2182 0.03821 0.94279 0.0
O77 O 0.23965 0.9485 0.87367 0.0
O78 O 0.22467 0.97896 0.72111 0.0
C79 C 0.27749 0.98256 0.53634 0.0
N80 N 0.27477 0.01534 0.58527 0.0
C81 C 0.30874 0.04463 0.44059 0.0
C82 C 0.31174 0.01118 0.38827 0.0
C83 C 0.29614 0.98004 0.43664 0.0
C84 C 0.28963 0.04552 0.53951 0.0
H85 H 0.26542 0.95857 0.57297 0.0
C86 C 0.2224 0.95132 0.78344 0.0
O87 O 0.28376 0.95293 0.07149 0.0
O88 O 0.31498 0.94622 0.91906 0.0
N89 N 0.27015 0.07488 0.69637 0.0
C90 C 0.26769 0.1043 0.76267 0.0
C91 C 0.28361 0.1374 0.72949 0.0
C92 C 0.30166 0.13996 0.62833 0.0
C93 C 0.30364 0.10935 0.5612 0.0
C94 C 0.28717 0.07711 0.59845 0.0
H95 H 0.25377 0.10248 0.84033 0.0
O96 O 0.31732 0.02106 0.96532 0.0
O97 O 0.28841 0.0121 0.80843 0.0
O98 O 0.23902 0.01732 0.99328 0.0
O99 O 0.21971 0.04311 0.8394 0.0
C100 C 0.32216 0.1093 0.46028 0.0
C101 C 0.32469 0.07697 0.39998 0.0
H102 H 0.32627 0.00904 0.31161 0.0
H103 H 0.29837 0.95414 0.3972 0.0
H104 H 0.28199 0.1609 0.78181 0.0
H105 H 0.31422 0.16547 0.60359 0.0
H106 H 0.33521 0.13382 0.42943 0.0
H107 H 0.33959 0.07714 0.3236 0.0
Mn108 Mn 0.03881 0.7417 0.16066 0.0
Mn109 Mn 0.98897 0.75881 0.38693 0.0
C110 C 0.99165 0.70209 0.20953 0.0
C111 C 0.08759 0.71505 0.07431 0.0
C112 C 0.98537 0.802 0.17665 0.0
O113 O 0.07156 0.7764 0.25028 0.0
O114 O 0.03773 0.78211 0.40387 0.0
C115 C 0.02654 0.72278 0.56704 0.0
N116 N 0.99619 0.72696 0.50646 0.0
C117 C 0.96086 0.68908 0.62886 0.0
C118 C 0.99179 0.68425 0.69239 0.0
C119 C 0.02469 0.70129 0.66142 0.0
C120 C 0.96417 0.71138 0.53684 0.0
H121 H 0.0518 0.73614 0.54431 0.0
C122 C 0.06656 0.78814 0.34795 0.0
O123 O 0.07205 0.74223 0.03134 0.0
O124 O 0.07566 0.70401 0.16887 0.0
N125 N 0.94132 0.7373 0.37946 0.0
C126 C 0.91517 0.74178 0.30276 0.0
C127 C 0.88119 0.72434 0.31647 0.0
C128 C 0.87435 0.70292 0.40952 0.0
C129 C 0.90172 0.6988 0.48742 0.0
C130 C 0.93514 0.71652 0.46871 0.0
H131 H 0.92036 0.75831 0.23138 0.0
O132 O 1.00248 0.70415 0.10832 0.0
O133 O 1.00762 0.7244 0.27874 0.0
O134 O 1.00605 0.78336 0.11754 0.0
O135 O 0.9781 0.79444 0.2759 0.0
C136 C 0.89754 0.67687 0.581 0.0
C137 C 0.92705 0.67217 0.65201 0.0
H138 H 0.99064 0.66747 0.76486 0.0
H139 H 0.04849 0.69821 0.71074 0.0
H140 H 0.86029 0.72742 0.25558 0.0
H141 H 0.84816 0.68937 0.41952 0.0
H142 H 0.87196 0.66293 0.59793 0.0
H143 H 0.92365 0.6548 0.72273 0.0
Mn144 Mn 0.76267 0.0246 0.87908 0.0
Mn145 Mn 0.78902 0.9815 0.64894 0.0
C146 C 0.73368 0.96936 0.83067 0.0
C147 C 0.72659 0.06468 0.97707 0.0
C148 C 0.83148 0.98164 0.86099 0.0
O149 O 0.788 0.0655 0.79389 0.0
O150 O 0.80222 0.0333 0.64516 0.0
C151 C 0.74299 0.01671 0.48694 0.0
N152 N 0.75564 0.98625 0.53152 0.0
C153 C 0.73172 0.94994 0.3822 0.0
C154 C 0.71819 0.98089 0.33471 0.0
C155 C 0.72359 0.01436 0.38801 0.0
C156 C 0.74963 0.9538 0.48302 0.0
H157 H 0.74819 0.04262 0.52571 0.0
C158 C 0.80136 0.06298 0.69787 0.0
O159 O 0.75778 0.05559 0.01284 0.0
O160 O 0.71655 0.05143 0.88253 0.0
N161 N 0.77924 0.93095 0.63421 0.0
C162 C 0.79323 0.90368 0.69278 0.0
C163 C 0.79047 0.86839 0.65095 0.0
C164 C 0.77429 0.86164 0.54801 0.0
C165 C 0.76007 0.8901 0.48919 0.0
C166 C 0.76293 0.92457 0.5361 0.0
H167 H 0.80662 0.90887 0.77034 0.0
O168 O 0.73623 0.9807 0.93149 0.0
O169 O 0.7504 0.98994 0.75864 0.0
O170 O 0.8108 1.00155 0.91566 0.0
O171 O 0.82579 0.97346 0.76091 0.0
C172 C 0.74346 0.88574 0.38537 0.0
C173 C 0.7289 0.91559 0.33249 0.0
H174 H 0.70389 0.97926 0.25714 0.0
H175 H 0.71369 0.03847 0.35202 0.0
H176 H 0.80143 0.84655 0.69695 0.0
H177 H 0.77267 0.83446 0.51534 0.0
H178 H 0.74107 0.85946 0.34659 0.0
H179 H 0.71564 0.91182 0.25368 0.0
Mn180 Mn 0.99171 0.26197 0.10746 0.0
Mn181 Mn 0.01101 0.25378 0.37669 0.0
C182 C 0.0392 0.29739 0.18536 0.0
C183 C 0.9554 0.28622 0.96923 0.0
C184 C 0.03202 0.19959 0.20195 0.0
O185 O 0.94786 0.23349 0.16988 0.0
O186 O 0.95975 0.24197 0.34952 0.0
C187 C 0.96862 0.31452 0.45514 0.0
N188 N 0.99988 0.2967 0.45388 0.0
C189 C 0.02683 0.33707 0.58831 0.0
C190 C 0.99477 0.35559 0.59262 0.0
C191 C 0.96581 0.34473 0.52392 0.0
C192 C 0.02867 0.30844 0.51374 0.0
H193 H 0.94609 0.30568 0.40408 0.0
C194 C 0.9387 0.23258 0.27083 0.0
O195 O 0.97191 0.2565 0.955 0.0
O196 O 0.96009 0.30211 0.06376 0.0
N197 N 0.05967 0.26419 0.42211 0.0
C198 C 0.08823 0.24262 0.41078 0.0
C199 C 0.11834 0.24776 0.47975 0.0
C200 C 0.11857 0.27452 0.56141 0.0
C201 C 0.08937 0.29699 0.57027 0.0
C202 C 0.0599 0.2903 0.50011 0.0
H203 H 0.08773 0.22083 0.35202 0.0
O204 O 0.03609 0.29348 0.07966 0.0
O205 O 0.01347 0.28179 0.24135 0.0
O206 O 0.0226 0.2179 0.1191 0.0
O207 O 0.02493 0.20857 0.30123 0.0
C208 C 0.08782 0.32493 0.64865 0.0
C209 C 0.05688 0.34552 0.65592 0.0
H210 H 0.99211 0.3782 0.64806 0.0
H211 H 0.94116 0.35919 0.52566 0.0
H212 H 0.14094 0.23053 0.47177 0.0
H213 H 0.14163 0.27804 0.61562 0.0
H214 H 0.11035 0.33091 0.70337 0.0
H215 H 0.05617 0.36724 0.71542 0.0
Mn216 Mn 0.76561 0.46877 0.4048 0.0
Mn217 Mn 0.74236 0.5223 0.19414 0.0
C218 C 0.79852 0.52288 0.37656 0.0
C219 C 0.79805 0.42209 0.4825 0.0
C220 C 0.70219 0.51926 0.41062 0.0
O221 O 0.73505 0.43404 0.30846 0.0
O222 O 0.72308 0.47221 0.17241 0.0
C223 C 0.78091 0.4889 0.00961 0.0
N224 N 0.77276 0.51859 0.06894 0.0
C225 C 0.79366 0.55813 0.92462 0.0
C226 C 0.80267 0.528 0.86211 0.0
C227 C 0.79672 0.49325 0.90546 0.0
C228 C 0.77954 0.55211 0.02964 0.0
H229 H 0.77467 0.46218 0.04066 0.0
C230 C 0.72109 0.44092 0.21544 0.0
O231 O 0.76854 0.43278 0.52616 0.0
O232 O 0.808 0.4373 0.39112 0.0
N233 N 0.75816 0.57178 0.198 0.0
C234 C 0.75018 0.59775 0.27226 0.0
C235 C 0.75592 0.63414 0.24411 0.0
C236 C 0.76831 0.64336 0.13843 0.0
C237 C 0.77592 0.61607 0.06301 0.0
C238 C 0.77136 0.58037 0.09771 0.0
H239 H 0.73876 0.5907 0.35122 0.0
O240 O 0.79676 0.5069 0.47089 0.0
O241 O 0.78053 0.50659 0.29641 0.0
O242 O 0.72092 0.49559 0.45655 0.0
O243 O 0.70816 0.53008 0.31334 0.0
C244 C 0.788 0.62278 0.95486 0.0
C245 C 0.79735 0.59383 0.88624 0.0
H246 H 0.81392 0.53121 0.78054 0.0
H247 H 0.8033 0.46987 0.85737 0.0
H248 H 0.74977 0.65504 0.30249 0.0
H249 H 0.7719 0.67145 0.11614 0.0
H250 H 0.79139 0.65011 0.92505 0.0
H251 H 0.80756 0.59935 0.8045 0.0
Mn252 Mn 0.53365 0.25143 0.53818 0.0
Mn253 Mn 0.4922 0.28126 0.76697 0.0
C254 C 0.47772 0.22416 0.58667 0.0
C255 C 0.5733 0.21283 0.44811 0.0
C256 C 0.49401 0.32174 0.55093 0.0
O257 O 0.57504 0.27765 0.62187 0.0
O258 O 0.54466 0.29233 0.77407 0.0
C259 C 0.52404 0.23622 0.93893 0.0
N260 N 0.49471 0.25005 0.89019 0.0
C261 C 0.45711 0.23448 0.04483 0.0
C262 C 0.48683 0.21978 0.09675 0.0
C263 C 0.52035 0.2203 0.04301 0.0
C264 C 0.46223 0.24896 0.94001 0.0
H265 H 0.55007 0.23795 0.89942 0.0
C266 C 0.57358 0.29104 0.71836 0.0
O267 O 0.56538 0.24356 0.40654 0.0
O268 O 0.55927 0.20525 0.54313 0.0
N269 N 0.44128 0.2738 0.77824 0.0
C270 C 0.41493 0.286 0.71202 0.0
C271 C 0.37937 0.28611 0.75108 0.0
C272 C 0.3716 0.27485 0.85893 0.0
C273 C 0.39933 0.2627 0.92583 0.0
C274 C 0.43392 0.26211 0.88112 0.0
H275 H 0.42123 0.29633 0.63118 0.0
O276 O 0.48976 0.22503 0.48674 0.0
O277 O 0.49859 0.24101 0.65945 0.0
O278 O 0.51128 0.2993 0.49443 0.0
O279 O 0.48678 0.31735 0.65192 0.0
C280 C 0.39389 0.2501 0.03397 0.0
C281 C 0.42264 0.23551 0.09277 0.0
H282 H 0.48424 0.20806 0.17778 0.0
H283 H 0.54345 0.20919 0.0828 0.0
H284 H 0.35815 0.29566 0.69919 0.0
H285 H 0.34423 0.27539 0.8892 0.0
H286 H 0.36743 0.25032 0.07114 0.0
H287 H 0.41789 0.22494 0.17446 0.0
H288 H 0.45152 0.68551 0.99796 0.0
H289 H 0.37906 0.72497 0.75048 0.0
H290 H 0.32686 0.70085 0.85842 0.0
H291 H 0.40401 0.60358 0.04499 0.0
H292 H 0.41406 0.60302 0.18989 0.0
H293 H 0.4445 0.62618 0.09708 0.0
H294 H 0.43943 0.68487 0.21258 0.0
H295 H 0.40866 0.66153 0.30475 0.0
H296 H 0.39556 0.70209 0.23801 0.0
H297 H 0.2833 0.67097 0.99124 0.0
H298 H 0.25234 0.62868 0.11891 0.0
H299 H 0.35391 0.60757 0.27485 0.0
C300 C 0.42465 0.68932 0.96654 0.0
C301 C 0.41918 0.70724 0.86626 0.0
C302 C 0.38372 0.71111 0.82689 0.0
C303 C 0.35403 0.698 0.88839 0.0
C304 C 0.36049 0.68117 0.98843 0.0
C305 C 0.39499 0.67631 0.02613 0.0
C306 C 0.39508 0.65453 0.13067 0.0
C307 C 0.4156 0.61977 0.11463 0.0
C308 C 0.41062 0.67711 0.22719 0.0
C309 C 0.35512 0.64675 0.14461 0.0
C310 C 0.33557 0.66321 0.06343 0.0
C311 C 0.29833 0.65821 0.05537 0.0
C312 C 0.28095 0.63421 0.12813 0.0
C313 C 0.30084 0.61528 0.2064 0.0
C314 C 0.3381 0.62266 0.21775 0.0
H315 H 0.40121 0.83363 0.51249 0.0
H316 H 0.43943 0.75746 0.27297 0.0
H317 H 0.40574 0.78763 0.12709 0.0
H318 H 0.31086 0.84087 0.39006 0.0
H319 H 0.30914 0.88805 0.4231 0.0
H320 H 0.33429 0.85892 0.50934 0.0
H321 H 0.39136 0.90048 0.48416 0.0
H322 H 0.3666 0.92969 0.39735 0.0
H323 H 0.40728 0.91059 0.34748 0.0
H324 H 0.37406 0.83137 1.00346 0.0
H325 H 0.3408 0.88013 0.91661 0.0
H326 H 0.32042 0.92552 0.2378 0.0
C327 C 0.40213 0.82302 0.42958 0.0
C328 C 0.42291 0.79308 0.40424 0.0
C329 C 0.42342 0.78008 0.29465 0.0
C330 C 0.40453 0.79722 0.21105 0.0
C331 C 0.38503 0.82725 0.23834 0.0
C332 C 0.38316 0.83962 0.3454 0.0
C333 C 0.36052 0.87253 0.35309 0.0
C334 C 0.3267 0.86461 0.42302 0.0
C335 C 0.38278 0.90525 0.39816 0.0
C336 C 0.35085 0.87747 0.23322 0.0
C337 C 0.36535 0.85118 0.16815 0.0
C338 C 0.36203 0.85165 0.05393 0.0
C339 C 0.34326 0.87954 1.00524 0.0
C340 C 0.32763 0.90632 0.07066 0.0
C341 C 0.33142 0.905 0.18606 0.0
H342 H 0.0632 0.85367 0.4451 0.0
H343 H 0.13511 0.76736 0.38106 0.0
H344 H 0.1815 0.79754 0.50098 0.0
H345 H 0.13271 0.92539 0.43872 0.0
H346 H 0.11145 0.95126 0.54402 0.0
H347 H 0.08446 0.92209 0.4552 0.0
H348 H 0.05718 0.88999 0.62639 0.0
H349 H 0.08477 0.91852 0.71566 0.0
H350 H 0.08672 0.87027 0.7248 0.0
H351 H 0.21822 0.83581 0.63732 0.0
H352 H 0.24731 0.88469 0.7499 0.0
H353 H 0.15306 0.94809 0.71049 0.0
C354 C 0.08896 0.84149 0.45538 0.0
C355 C 0.09596 0.80846 0.40412 0.0
C356 C 0.12971 0.793 0.41893 0.0
C357 C 0.15592 0.80971 0.48771 0.0
C358 C 0.14793 0.84203 0.53916 0.0
C359 C 0.11562 0.85821 0.52138 0.0
C360 C 0.11433 0.89386 0.58141 0.0
C361 C 0.11053 0.92498 0.49998 0.0
C362 C 0.08394 0.89309 0.66713 0.0
C363 C 0.15098 0.8953 0.63595 0.0
C364 C 0.16964 0.86478 0.61282 0.0
C365 C 0.20392 0.85986 0.6556 0.0
C366 C 0.22005 0.88749 0.72033 0.0
C367 C 0.2021 0.91971 0.73935 0.0
C368 C 0.16702 0.92342 0.69791 0.0
H369 H 0.08977 0.69858 0.85599 0.0
H370 H 0.14831 0.68709 0.16061 0.0
H371 H 0.19424 0.65276 0.06253 0.0
H372 H 0.10417 0.60719 0.76439 0.0
H373 H 0.10591 0.61957 0.6215 0.0
H374 H 0.07984 0.64484 0.71663 0.0
H375 H 0.11613 0.70332 0.65551 0.0
H376 H 0.14251 0.67714 0.56336 0.0
H377 H 0.16455 0.70509 0.66696 0.0
H378 H 0.23289 0.61802 0.93054 0.0
H379 H 0.25932 0.58321 0.77993 0.0
H380 H 0.17299 0.61369 0.56334 0.0
C381 C 0.11259 0.68925 0.90124 0.0
C382 C 0.11597 0.69599 0.01519 0.0
C383 C 0.14553 0.6825 0.07301 0.0
C384 C 0.17174 0.66307 0.01788 0.0
C385 C 0.16745 0.65652 0.90544 0.0
C386 C 0.13829 0.66877 0.8481 0.0
C387 C 0.13825 0.65547 0.72999 0.0
C388 C 0.10508 0.63032 0.70676 0.0
C389 C 0.1405 0.68714 0.64921 0.0
C390 C 0.17241 0.6346 0.72889 0.0
C391 C 0.18889 0.63552 0.83083 0.0
C392 C 0.2203 0.61735 0.85046 0.0
C393 C 0.23511 0.59758 0.7642 0.0
C394 C 0.21834 0.59574 0.65953 0.0
C395 C 0.1866 0.61466 0.64213 0.0
H396 H 0.83709 0.06484 0.50285 0.0
H397 H 0.79575 0.13465 0.75598 0.0
H398 H 0.81626 0.18783 0.64716 0.0
H399 H 0.91568 0.11464 0.45193 0.0
H400 H 0.91582 0.10516 0.30654 0.0
H401 H 0.89392 0.07384 0.39898 0.0
H402 H 0.83481 0.07771 0.28634 0.0
H403 H 0.8565 0.10986 0.19498 0.0
H404 H 0.8157 0.12087 0.2651 0.0
H405 H 0.84651 0.23261 0.51985 0.0
H406 H 0.89073 0.26461 0.40079 0.0
H407 H 0.91097 0.1652 0.23015 0.0
C408 C 0.83184 0.09124 0.53558 0.0
C409 C 0.81467 0.09552 0.63821 0.0
C410 C 0.80892 0.13066 0.67786 0.0
C411 C 0.82006 0.16096 0.61589 0.0
C412 C 0.8365 0.15555 0.51431 0.0
C413 C 0.84258 0.12148 0.47511 0.0
C414 C 0.86398 0.12254 0.3695 0.0
C415 C 0.89944 0.10292 0.38262 0.0
C416 C 0.84139 0.10681 0.2733 0.0
C417 C 0.87063 0.16271 0.35741 0.0
C418 C 0.8537 0.18135 0.4402 0.0
C419 C 0.85913 0.2184 0.45343 0.0
C420 C 0.88408 0.23642 0.38489 0.0
C421 C 0.90344 0.21736 0.30497 0.0
C422 C 0.89532 0.18048 0.28742 0.0
H423 H 0.90897 0.34224 0.98404 0.0
H424 H 0.94885 0.2633 0.75581 0.0
H425 H 0.91094 0.28739 0.60911 0.0
H426 H 0.81686 0.33941 0.87691 0.0
H427 H 0.81143 0.3869 0.89808 0.0
H428 H 0.84106 0.36288 0.98609 0.0
H429 H 0.89358 0.40816 0.93829 0.0
H430 H 0.8641 0.43218 0.85002 0.0
H431 H 0.90542 0.4155 0.79638 0.0
H432 H 0.87406 0.32494 0.48087 0.0
H433 H 0.83437 0.36744 0.38852 0.0
H434 H 0.81412 0.41857 0.70171 0.0
C435 C 0.90983 0.33011 0.90309 0.0
C436 C 0.93222 0.30098 0.88154 0.0
C437 C 0.93213 0.28566 0.77463 0.0
C438 C 0.91072 0.29925 0.69045 0.0
C439 C 0.88946 0.32832 0.71382 0.0
C440 C 0.88839 0.34323 0.81799 0.0
C441 C 0.86263 0.37388 0.82174 0.0
C442 C 0.83112 0.36523 0.90036 0.0
C443 C 0.88263 0.40954 0.85346 0.0
C444 C 0.84992 0.37429 0.70307 0.0
C445 C 0.86605 0.34805 0.64184 0.0
C446 C 0.86066 0.34501 0.52852 0.0
C447 C 0.83818 0.3693 0.47663 0.0
C448 C 0.82064 0.39571 0.53825 0.0
C449 C 0.82646 0.39798 0.65307 0.0
H450 H 0.67979 0.44793 0.03114 0.0
H451 H 0.72223 0.36734 0.2471 0.0
H452 H 0.69524 0.31929 0.12699 0.0
H453 H 0.59599 0.40234 0.97805 0.0
H454 H 0.59381 0.41717 0.83756 0.0
H455 H 0.61822 0.44427 0.93793 0.0
H456 H 0.67521 0.44322 0.81556 0.0
H457 H 0.65111 0.41545 0.71571 0.0
H458 H 0.69248 0.40064 0.77448 0.0
H459 H 0.66126 0.28007 0.98488 0.0
H460 H 0.61842 0.25386 0.84686 0.0
H461 H 0.59866 0.36053 0.72675 0.0
C462 C 0.68363 0.42021 0.05355 0.0
C463 C 0.70328 0.4115 0.14889 0.0
C464 C 0.70721 0.37477 0.17497 0.0
C465 C 0.69224 0.3473 0.1066 0.0
C466 C 0.67348 0.35699 0.01242 0.0
C467 C 0.66889 0.39263 0.98676 0.0
C468 C 0.6459 0.39624 0.88486 0.0
C469 C 0.61144 0.41616 0.91123 0.0
C470 C 0.66747 0.41499 0.79219 0.0
C471 C 0.63756 0.35699 0.85779 0.0
C472 C 0.65417 0.33467 0.93116 0.0
C473 C 0.64867 0.29732 0.9261 0.0
C474 C 0.62463 0.28261 0.84681 0.0
C475 C 0.60641 0.30519 0.77405 0.0
C476 C 0.61348 0.34271 0.7785 0.0
H477 H 0.7001 0.13398 0.96996 0.0
H478 H 0.69521 0.03419 0.15203 0.0
H479 H 0.65516 0.0611 0.28873 0.0
H480 H 0.70216 0.19361 0.2032 0.0
H481 H 0.6735 0.2264 0.14442 0.0
H482 H 0.70043 0.19933 0.05632 0.0
H483 H 0.64325 0.17733 0.94932 0.0
H484 H 0.61636 0.20475 0.03657 0.0
H485 H 0.60558 0.15719 0.02327 0.0
H486 H 0.62006 0.09889 0.41251 0.0
H487 H 0.586 0.14439 0.51014 0.0
H488 H 0.6106 0.22117 0.25043 0.0
C489 C 0.6903 0.11792 0.03845 0.0
C490 C 0.70097 0.08201 0.05182 0.0
C491 C 0.6877 0.06178 0.1419 0.0
C492 C 0.66495 0.07684 0.21963 0.0
C493 C 0.65566 0.11244 0.20665 0.0
C494 C 0.66741 0.13278 0.11789 0.0
C495 C 0.65306 0.17058 0.12538 0.0
C496 C 0.68415 0.19916 0.13279 0.0
C497 C 0.62807 0.17787 0.02784 0.0
C498 C 0.63202 0.16819 0.23278 0.0
C499 C 0.63411 0.13432 0.2778 0.0
C500 C 0.61793 0.12543 0.37768 0.0
C501 C 0.5987 0.15161 0.4329 0.0
C502 C 0.59546 0.18647 0.3885 0.0
C503 C 0.61248 0.1948 0.28673 0.0
H504 H 0.34027 0.42671 0.25438 0.0
H505 H 0.37038 0.5159 0.47155 0.0
H506 H 0.42537 0.48539 0.52476 0.0
H507 H 0.364 0.36002 0.43862 0.0
H508 H 0.37999 0.32932 0.33647 0.0
H509 H 0.34647 0.36072 0.30043 0.0
H510 H 0.38741 0.38523 0.14333 0.0
H511 H 0.42117 0.35396 0.17982 0.0
H512 H 0.43276 0.40149 0.17403 0.0
H513 H 0.47281 0.44319 0.57134 0.0
H514 H 0.50717 0.39012 0.61911 0.0
H515 H 0.44642 0.32618 0.37847 0.0
C516 C 0.3588 0.44019 0.31109 0.0
C517 C 0.35107 0.47395 0.35811 0.0
C518 C 0.37575 0.49018 0.43417 0.0
C519 C 0.4072 0.47312 0.46441 0.0
C520 C 0.41362 0.43954 0.41875 0.0
C521 C 0.39005 0.42305 0.34424 0.0
C522 C 0.40108 0.38497 0.31834 0.0
C523 C 0.37111 0.35713 0.35042 0.0
C524 C 0.41122 0.3812 0.19663 0.0
C525 C 0.43399 0.38241 0.39198 0.0
C526 C 0.44104 0.41454 0.44742 0.0
C527 C 0.46804 0.41816 0.52684 0.0
C528 C 0.48755 0.38794 0.55313 0.0
C529 C 0.48016 0.35445 0.50023 0.0
C530 C 0.4536 0.35187 0.41673 0.0
H531 H 0.72076 0.90792 0.70062 0.0
H532 H 0.66785 0.98446 0.9071 0.0
H533 H 0.6101 0.95054 0.8781 0.0
H534 H 0.63655 0.89757 0.50036 0.0
H535 H 0.65235 0.85338 0.47003 0.0
H536 H 0.68374 0.89033 0.5018 0.0
H537 H 0.70833 0.84446 0.63989 0.0
H538 H 0.67106 0.81217 0.63445 0.0
H539 H 0.68327 0.83469 0.76189 0.0
H540 H 0.55865 0.90693 0.83127 0.0
H541 H 0.51843 0.85488 0.77796 0.0
H542 H 0.60525 0.80923 0.59427 0.0
C543 C 0.69721 0.91929 0.7334 0.0
C544 C 0.69922 0.94973 0.8027 0.0
C545 C 0.66717 0.96123 0.85287 0.0
C546 C 0.63411 0.9424 0.83617 0.0
C547 C 0.63323 0.9127 0.76622 0.0
C548 C 0.66376 0.90174 0.71347 0.0
C549 C 0.65562 0.86842 0.64427 0.0
C550 C 0.65711 0.87786 0.52171 0.0
C551 C 0.68093 0.83807 0.67187 0.0
C552 C 0.61713 0.85981 0.67736 0.0
C553 C 0.60411 0.8867 0.74328 0.0
C554 C 0.56862 0.8857 0.77997 0.0
C555 C 0.54613 0.85605 0.75005 0.0
C556 C 0.55953 0.82769 0.68633 0.0
C557 C 0.59498 0.83017 0.64619 0.0
H558 H 0.06364 0.17937 1.00837 0.0
H559 H 0.05579 0.15077 0.35301 0.0
H560 H 0.10155 0.10525 0.32527 0.0
H561 H 0.07753 0.08883 0.90162 0.0
H562 H 0.1089 0.10515 0.79872 0.0
H563 H 0.07357 0.1332 0.84503 0.0
H564 H 0.12129 0.18356 0.895 0.0
H565 H 0.15679 0.15553 0.85024 0.0
H566 H 0.15748 0.17383 0.98766 0.0
H567 H 0.15202 0.065 0.26031 0.0
H568 H 0.19946 0.03262 0.16258 0.0
H569 H 0.17359 0.08883 0.86274 0.0
C570 C 0.07085 0.16308 0.07786 0.0
C571 C 0.05572 0.1687 0.1829 0.0
C572 C 0.06666 0.14699 0.27151 0.0
C573 C 0.09279 0.12108 0.25663 0.0
C574 C 0.10781 0.11699 0.15257 0.0
C575 C 0.09693 0.13727 0.06459 0.0
C576 C 0.11806 0.12887 0.96201 0.0
C577 C 0.09302 0.11306 0.87153 0.0
C578 C 0.13968 0.16244 0.9214 0.0
C579 C 0.14272 0.10089 1.00589 0.0
C580 C 0.13653 0.09426 0.11587 0.0
C581 C 0.15685 0.06987 0.17392 0.0
C582 C 0.18387 0.05166 0.11779 0.0
C583 C 0.1904 0.05789 1.00461 0.0
C584 C 0.1694 0.08304 0.94896 0.0
H585 H 0.94128 0.66147 0.09029 0.0
H586 H 0.99713 0.66578 0.40158 0.0
H587 H 0.95232 0.6218 0.47923 0.0
H588 H 0.8527 0.64382 0.14841 0.0
H589 H 0.84735 0.60674 0.05213 0.0
H590 H 0.88178 0.64091 0.0299 0.0
H591 H 0.92526 0.5875 0.01833 0.0
H592 H 0.88869 0.55561 0.04832 0.0
H593 H 0.92842 0.55758 0.13368 0.0
H594 H 0.89062 0.59468 0.53051 0.0
H595 H 0.83454 0.55786 0.54067 0.0
H596 H 0.83123 0.55064 0.18456 0.0
C597 C 0.94382 0.65318 0.17495 0.0
C598 C 0.96917 0.67068 0.24608 0.0
C599 C 0.97455 0.65632 0.35166 0.0
C600 C 0.94989 0.63074 0.39523 0.0
C601 C 0.92221 0.61741 0.32755 0.0
C602 C 0.92124 0.62535 0.21724 0.0
C603 C 0.89242 0.60214 0.15962 0.0
C604 C 0.86702 0.62508 0.09393 0.0
C605 C 0.90974 0.57404 0.08563 0.0
C606 C 0.8737 0.58427 0.25736 0.0
C607 C 0.89151 0.59393 0.35345 0.0
C608 C 0.87739 0.58528 0.45576 0.0
C609 C 0.84515 0.56458 0.46019 0.0
C610 C 0.82781 0.55119 0.36308 0.0
C611 C 0.84258 0.56125 0.26003 0.0
H612 H 0.34798 0.09117 0.94566 0.0
H613 H 0.34487 0.01919 0.66516 0.0
H614 H 0.38497 0.06196 0.56261 0.0
H615 H 0.35108 0.17306 0.8114 0.0
H616 H 0.38416 0.19462 0.89889 0.0
H617 H 0.35557 0.15886 0.95241 0.0
H618 H 0.41171 0.12465 0.0101 0.0
H619 H 0.44058 0.16104 0.95972 0.0
H620 H 0.44591 0.11591 0.90967 0.0
H621 H 0.41269 0.11951 0.48044 0.0
H622 H 0.44781 0.17525 0.44199 0.0
H623 H 0.44873 0.20139 0.78907 0.0
C624 C 0.3559 0.08446 0.86273 0.0
C625 C 0.3409 0.05363 0.8089 0.0
C626 C 0.35369 0.04436 0.70365 0.0
C627 C 0.37682 0.06819 0.64558 0.0
C628 C 0.38844 0.10016 0.69697 0.0
C629 C 0.38037 0.10715 0.80537 0.0
C630 C 0.3988 0.14208 0.84355 0.0
C631 C 0.37057 0.16864 0.87879 0.0
C632 C 0.42586 0.13551 0.93627 0.0
C633 C 0.41768 0.1543 0.73882 0.0
C634 C 0.41003 0.13029 0.65438 0.0
C635 C 0.42019 0.13779 0.54696 0.0
C636 C 0.44003 0.16994 0.52622 0.0
C637 C 0.4512 0.19386 0.61289 0.0
C638 C 0.43984 0.18533 0.72067 0.0
H639 H 0.87055 0.9255 0.7848 0.0
H640 H 0.85947 0.99616 0.06701 0.0
H641 H 0.90386 0.9613 0.16797 0.0
H642 H 0.87108 0.84628 0.93477 0.0
H643 H 0.90277 0.82415 0.84838 0.0
H644 H 0.87495 0.85788 0.79159 0.0
H645 H 0.93186 0.89383 0.72412 0.0
H646 H 0.95994 0.86012 0.78058 0.0
H647 H 0.96704 0.90662 0.82074 0.0
H648 H 0.94426 0.91609 0.24393 0.0
H649 H 0.9762 0.86224 0.29528 0.0
H650 H 0.95947 0.81799 0.96752 0.0
C651 C 0.8779 0.93424 0.86708 0.0
C652 C 0.86147 0.96388 0.91766 0.0
C653 C 0.8717 0.97383 0.02608 0.0
C654 C 0.89698 0.95418 0.08398 0.0
C655 C 0.91173 0.92456 0.03263 0.0
C656 C 0.90258 0.91455 0.92664 0.0
C657 C 0.91949 0.87946 0.8945 0.0
C658 C 0.89034 0.85022 0.86565 0.0
C659 C 0.94617 0.88538 0.79934 0.0
C660 C 0.93896 0.87075 1.0002 0.0
C661 C 0.93449 0.89757 0.07781 0.0
C662 C 0.94817 0.89513 0.18361 0.0
C663 C 0.96617 0.86426 0.21198 0.0
C664 C 0.97033 0.83578 0.13549 0.0
C665 C 0.9572 0.83948 0.02715 0.0
H666 H 0.10725 0.30098 0.28025 0.0
H667 H 0.01886 0.36513 0.17627 0.0
H668 H 0.05593 0.42064 0.2122 0.0
H669 H 0.13617 0.36522 0.50793 0.0
H670 H 0.18413 0.36224 0.49055 0.0
H671 H 0.15553 0.32356 0.4647 0.0
H672 H 0.17536 0.31279 0.27933 0.0
H673 H 0.2079 0.35 0.2836 0.0
H674 H 0.17389 0.3467 0.17643 0.0
H675 H 0.10357 0.46839 0.24117 0.0
H676 H 0.15737 0.50702 0.28735 0.0
H677 H 0.21403 0.41313 0.38703 0.0
C678 C 0.09516 0.3267 0.27094 0.0
C679 C 0.05994 0.329 0.22823 0.0
C680 C 0.04562 0.36308 0.21072 0.0
C681 C 0.06644 0.39466 0.23077 0.0
C682 C 0.10123 0.39165 0.27117 0.0
C683 C 0.1151 0.35869 0.29575 0.0
C684 C 0.15379 0.36351 0.33627 0.0
C685 C 0.15739 0.35308 0.45728 0.0
C686 C 0.17938 0.34215 0.26453 0.0
C687 C 0.15984 0.40383 0.32458 0.0
C688 C 0.12903 0.41951 0.28774 0.0
C689 C 0.12767 0.45648 0.27174 0.0
C690 C 0.15826 0.47815 0.29784 0.0
C691 C 0.1895 0.46276 0.34008 0.0
C692 C 0.19034 0.42525 0.35407 0.0
H693 H 0.56119 0.67285 0.49577 0.0
H694 H 0.56811 0.65371 0.84638 0.0
H695 H 0.60587 0.6019 0.81137 0.0
H696 H 0.55966 0.57834 0.40658 0.0
H697 H 0.58758 0.58792 0.28851 0.0
H698 H 0.55845 0.62156 0.34053 0.0
H699 H 0.6132 0.66684 0.35937 0.0
H700 H 0.64242 0.63339 0.30728 0.0
H701 H 0.65184 0.65451 0.43838 0.0
H702 H 0.64612 0.55358 0.73809 0.0
H703 H 0.68721 0.51559 0.63303 0.0
H704 H 0.65436 0.56703 0.33171 0.0
C705 C 0.57008 0.65738 0.56511 0.0
C706 C 0.56132 0.66733 0.67385 0.0
C707 C 0.5743 0.64672 0.76224 0.0
C708 C 0.59572 0.61708 0.74322 0.0
C709 C 0.60419 0.60825 0.63523 0.0
C710 C 0.59184 0.62789 0.54767 0.0
C711 C 0.60678 0.61435 0.44008 0.0
C712 C 0.5763 0.59967 0.36448 0.0
C713 C 0.62993 0.64404 0.38297 0.0
C714 C 0.62967 0.58435 0.48086 0.0
C715 C 0.62764 0.58094 0.59351 0.0
C716 C 0.64767 0.55586 0.64963 0.0
C717 C 0.67089 0.53425 0.58921 0.0
C718 C 0.67412 0.53803 0.47382 0.0
C719 C 0.65256 0.56309 0.41963 0.0
loop_
_geom_bond_atom_site_label_1
_geom_bond_atom_site_label_2
_geom_bond_distance
_geom_bond_site_symmetry_2
_ccdc_geom_bond_type
Mn0 O5 2.095 . S
Mn0 O15 2.162 . S
Mn0 O16 2.297 . S
Mn0 O24 2.385 . S
Mn0 O25 2.209 . S
Mn0 O26 2.094 . S
Mn1 O6 2.121 . S
Mn1 N8 2.257 . S
Mn1 N17 2.282 . S
Mn1 O25 2.215 . S
Mn1 O27 2.117 . S
C2 O24 1.234 . S
C2 O25 1.283 . S
C3 O15 1.281 . S
C3 O16 1.236 . S
C4 O26 1.240 . S
C4 O27 1.264 . S
O5 Mn0 2.095 . S
O5 C14 1.250 . S
O6 Mn1 2.121 . S
O6 C14 1.258 . S
C7 N8 1.326 1_556 S
C7 C11 1.460 . S
C7 H13 0.929 . S
N8 Mn1 2.257 . S
N8 C7 1.326 1_554 S
N8 C12 1.362 . S
C9 C10 1.258 . S
C9 C12 1.431 1_556 S
C9 C29 1.449 . S
C10 C9 1.258 . S
C10 C11 1.477 . S
C10 H30 0.931 . S
C11 C7 1.460 . S
C11 C10 1.477 . S
C11 H31 0.930 . S
C12 N8 1.362 . S
C12 C9 1.431 1_554 S
C12 C22 1.476 . S
H13 C7 0.929 . S
C14 O5 1.250 . S
C14 O6 1.258 . S
O15 Mn0 2.162 . S
O15 C3 1.281 . S
O16 Mn0 2.297 . S
O16 C3 1.236 . S
N17 Mn1 2.282 . S
N17 C18 1.328 . S
N17 C22 1.318 . S
C18 N17 1.328 . S
C18 C19 1.457 . S
C18 H23 0.929 . S
C19 C18 1.457 . S
C19 C20 1.291 . S
C19 H32 0.931 . S
C20 C19 1.291 . S
C20 C21 1.373 . S
C20 H33 0.929 . S
C21 C20 1.373 . S
C21 C22 1.396 . S
C21 C28 1.403 1_554 S
C22 C12 1.476 . S
C22 N17 1.318 . S
C22 C21 1.396 . S
H23 C18 0.929 . S
O24 Mn0 2.385 . S
O24 C2 1.234 . S
O25 Mn0 2.209 . S
O25 Mn1 2.215 . S
O25 C2 1.283 . S
O26 Mn0 2.094 . S
O26 C4 1.240 . S
O27 Mn1 2.117 . S
O27 C4 1.264 . S
C28 C21 1.403 1_556 S
C28 C29 1.399 . S
C28 H34 0.929 . S
C29 C9 1.449 . S
C29 C28 1.399 . S
C29 H35 0.930 . S
H30 C10 0.931 . S
H31 C11 0.930 . S
H32 C19 0.931 . S
H33 C20 0.929 . S
H34 C28 0.929 . S
H35 C29 0.930 . S
Mn36 O41 2.095 . S
Mn36 O51 2.162 . S
Mn36 O52 2.297 . S
Mn36 O60 2.385 . S
Mn36 O61 2.209 . S
Mn36 O62 2.094 . S
Mn37 O42 2.121 . S
Mn37 N44 2.257 . S
Mn37 N53 2.282 . S
Mn37 O61 2.215 . S
Mn37 O63 2.117 . S
C38 O60 1.234 . S
C38 O61 1.283 . S
C39 O51 1.281 . S
C39 O52 1.236 . S
C40 O62 1.240 . S
C40 O63 1.264 . S
O41 Mn36 2.095 . S
O41 C50 1.250 . S
O42 Mn37 2.121 . S
O42 C50 1.258 . S
C43 N44 1.326 1_554 S
C43 C47 1.460 . S
C43 H49 0.929 . S
N44 Mn37 2.257 . S
N44 C43 1.326 1_556 S
N44 C48 1.362 . S
C45 C46 1.258 . S
C45 C48 1.431 1_554 S
C45 C65 1.449 . S
C46 C45 1.258 . S
C46 C47 1.477 . S
C46 H66 0.931 . S
C47 C43 1.460 . S
C47 C46 1.477 . S
C47 H67 0.930 . S
C48 N44 1.362 . S
C48 C45 1.431 1_556 S
C48 C58 1.476 . S
H49 C43 0.929 . S
C50 O41 1.250 . S
C50 O42 1.258 . S
O51 Mn36 2.162 . S
O51 C39 1.281 . S
O52 Mn36 2.297 . S
O52 C39 1.236 . S
N53 Mn37 2.282 . S
N53 C54 1.328 . S
N53 C58 1.318 . S
C54 N53 1.328 . S
C54 C55 1.457 . S
C54 H59 0.929 . S
C55 C54 1.457 . S
C55 C56 1.291 . S
C55 H68 0.931 . S
C56 C55 1.291 . S
C56 C57 1.373 . S
C56 H69 0.929 . S
C57 C56 1.373 . S
C57 C58 1.396 . S
C57 C64 1.403 1_556 S
C58 C48 1.476 . S
C58 N53 1.318 . S
C58 C57 1.396 . S
H59 C54 0.929 . S
O60 Mn36 2.385 . S
O60 C38 1.234 . S
O61 Mn36 2.209 . S
O61 Mn37 2.215 . S
O61 C38 1.283 . S
O62 Mn36 2.094 . S
O62 C40 1.240 . S
O63 Mn37 2.117 . S
O63 C40 1.264 . S
C64 C57 1.403 1_554 S
C64 C65 1.399 . S
C64 H70 0.929 . S
C65 C45 1.449 . S
C65 C64 1.399 . S
C65 H71 0.930 . S
H66 C46 0.931 . S
H67 C47 0.930 . S
H68 C55 0.931 . S
H69 C56 0.929 . S
H70 C64 0.929 . S
H71 C65 0.930 . S
Mn72 O77 2.095 . S
Mn72 O87 2.162 1_556 S
Mn72 O88 2.297 . S
Mn72 O96 2.385 1_565 S
Mn72 O97 2.209 . S
Mn72 O98 2.094 1_565 S
Mn73 O78 2.121 1_545 S
Mn73 N80 2.257 . S
Mn73 N89 2.282 . S
Mn73 O97 2.215 1_545 S
Mn73 O99 2.117 . S
C74 O96 1.234 . S
C74 O97 1.283 1_545 S
C75 O87 1.281 . S
C75 O88 1.236 1_554 S
C76 O98 1.240 . S
C76 O99 1.264 . S
O77 Mn72 2.095 . S
O77 C86 1.250 . S
O78 Mn73 2.121 1_565 S
O78 C86 1.258 . S
C79 N80 1.326 1_565 S
C79 C83 1.460 1_565 S
C79 H85 0.929 . S
N80 Mn73 2.257 . S
N80 C79 1.326 1_545 S
N80 C84 1.362 . S
C81 C82 1.258 . S
C81 C84 1.431 . S
C81 C101 1.449 . S
C82 C81 1.258 . S
C82 C83 1.477 . S
C82 H102 0.931 . S
C83 C79 1.460 1_545 S
C83 C82 1.477 . S
C83 H103 0.930 1_545 S
C84 N80 1.362 . S
C84 C81 1.431 . S
C84 C94 1.476 . S
H85 C79 0.929 . S
C86 O77 1.250 . S
C86 O78 1.258 . S
O87 Mn72 2.162 1_554 S
O87 C75 1.281 . S
O88 Mn72 2.297 . S
O88 C75 1.236 1_556 S
N89 Mn73 2.282 . S
N89 C90 1.328 . S
N89 C94 1.318 . S
C90 N89 1.328 . S
C90 C91 1.457 . S
C90 H95 0.929 . S
C91 C90 1.457 . S
C91 C92 1.291 . S
C91 H104 0.931 . S
C92 C91 1.291 . S
C92 C93 1.373 . S
C92 H105 0.929 . S
C93 C92 1.373 . S
C93 C94 1.396 . S
C93 C100 1.403 . S
C94 C84 1.476 . S
C94 N89 1.318 . S
C94 C93 1.396 . S
H95 C90 0.929 . S
O96 Mn72 2.385 1_545 S
O96 C74 1.234 . S
O97 Mn72 2.209 . S
O97 Mn73 2.215 1_565 S
O97 C74 1.283 1_565 S
O98 Mn72 2.094 1_545 S
O98 C76 1.240 . S
O99 Mn73 2.117 . S
O99 C76 1.264 . S
C100 C93 1.403 . S
C100 C101 1.399 . S
C100 H106 0.929 . S
C101 C81 1.449 . S
C101 C100 1.399 . S
C101 H107 0.930 . S
H102 C82 0.931 . S
H103 C83 0.930 1_565 S
H104 C91 0.931 . S
H105 C92 0.929 . S
H106 C100 0.929 . S
H107 C101 0.930 . S
Mn108 O113 2.095 . S
Mn108 O123 2.162 1_554 S
Mn108 O124 2.297 . S
Mn108 O132 2.385 1_455 S
Mn108 O133 2.209 . S
Mn108 O134 2.094 1_455 S
Mn109 O114 2.121 1_655 S
Mn109 N116 2.257 . S
Mn109 N125 2.282 . S
Mn109 O133 2.215 1_655 S
Mn109 O135 2.117 . S
C110 O132 1.234 . S
C110 O133 1.283 1_655 S
C111 O123 1.281 . S
C111 O124 1.236 1_556 S
C112 O134 1.240 . S
C112 O135 1.264 . S
O113 Mn108 2.095 . S
O113 C122 1.250 . S
O114 Mn109 2.121 1_455 S
O114 C122 1.258 . S
C115 N116 1.326 1_455 S
C115 C119 1.460 1_455 S
C115 H121 0.929 . S
N116 Mn109 2.257 . S
N116 C115 1.326 1_655 S
N116 C120 1.362 . S
C117 C118 1.258 . S
C117 C120 1.431 . S
C117 C137 1.449 . S
C118 C117 1.258 . S
C118 C119 1.477 . S
C118 H138 0.931 . S
C119 C115 1.460 1_655 S
C119 C118 1.477 . S
C119 H139 0.930 1_655 S
C120 N116 1.362 . S
C120 C117 1.431 . S
C120 C130 1.476 . S
H121 C115 0.929 . S
C122 O113 1.250 . S
C122 O114 1.258 . S
O123 Mn108 2.162 1_556 S
O123 C111 1.281 . S
O124 Mn108 2.297 . S
O124 C111 1.236 1_554 S
N125 Mn109 2.282 . S
N125 C126 1.328 . S
N125 C130 1.318 . S
C126 N125 1.328 . S
C126 C127 1.457 . S
C126 H131 0.929 . S
C127 C126 1.457 . S
C127 C128 1.291 . S
C127 H140 0.931 . S
C128 C127 1.291 . S
C128 C129 1.373 . S
C128 H141 0.929 . S
C129 C128 1.373 . S
C129 C130 1.396 . S
C129 C136 1.403 . S
C130 C120 1.476 . S
C130 N125 1.318 . S
C130 C129 1.396 . S
H131 C126 0.929 . S
O132 Mn108 2.385 1_655 S
O132 C110 1.234 . S
O133 Mn108 2.209 . S
O133 Mn109 2.215 1_455 S
O133 C110 1.283 1_455 S
O134 Mn108 2.094 1_655 S
O134 C112 1.240 . S
O135 Mn109 2.117 . S
O135 C112 1.264 . S
C136 C129 1.403 . S
C136 C137 1.399 . S
C136 H142 0.929 . S
C137 C117 1.449 . S
C137 C136 1.399 . S
C137 H143 0.930 . S
H138 C118 0.931 . S
H139 C119 0.930 1_455 S
H140 C127 0.931 . S
H141 C128 0.929 . S
H142 C136 0.929 . S
H143 C137 0.930 . S
Mn144 O149 2.095 . S
Mn144 O159 2.162 1_556 S
Mn144 O160 2.297 . S
Mn144 O168 2.385 1_545 S
Mn144 O169 2.209 . S
Mn144 O170 2.094 1_545 S
Mn145 O150 2.121 1_565 S
Mn145 N152 2.257 . S
Mn145 N161 2.282 . S
Mn145 O169 2.215 1_565 S
Mn145 O171 2.117 . S
C146 O168 1.234 . S
C146 O169 1.283 1_565 S
C147 O159 1.281 . S
C147 O160 1.236 1_554 S
C148 O170 1.240 . S
C148 O171 1.264 . S
O149 Mn144 2.095 . S
O149 C158 1.250 . S
O150 Mn145 2.121 1_545 S
O150 C158 1.258 . S
C151 N152 1.326 1_545 S
C151 C155 1.460 1_545 S
C151 H157 0.929 . S
N152 Mn145 2.257 . S
N152 C151 1.326 1_565 S
N152 C156 1.362 . S
C153 C154 1.258 . S
C153 C156 1.431 . S
C153 C173 1.449 . S
C154 C153 1.258 . S
C154 C155 1.477 . S
C154 H174 0.931 . S
C155 C151 1.460 1_565 S
C155 C154 1.477 . S
C155 H175 0.930 1_565 S
C156 N152 1.362 . S
C156 C153 1.431 . S
C156 C166 1.476 . S
H157 C151 0.929 . S
C158 O149 1.250 . S
C158 O150 1.258 . S
O159 Mn144 2.162 1_554 S
O159 C147 1.281 . S
O160 Mn144 2.297 . S
O160 C147 1.236 1_556 S
N161 Mn145 2.282 . S
N161 C162 1.328 . S
N161 C166 1.318 . S
C162 N161 1.328 . S
C162 C163 1.457 . S
C162 H167 0.929 . S
C163 C162 1.457 . S
C163 C164 1.291 . S
C163 H176 0.931 . S
C164 C163 1.291 . S
C164 C165 1.373 . S
C164 H177 0.929 . S
C165 C164 1.373 . S
C165 C166 1.396 . S
C165 C172 1.403 . S
C166 C156 1.476 . S
C166 N161 1.318 . S
C166 C165 1.396 . S
H167 C162 0.929 . S
O168 Mn144 2.385 1_565 S
O168 C146 1.234 . S
O169 Mn144 2.209 . S
O169 Mn145 2.215 1_545 S
O169 C146 1.283 1_545 S
O170 Mn144 2.094 1_565 S
O170 C148 1.240 . S
O171 Mn145 2.117 . S
O171 C148 1.264 . S
C172 C165 1.403 . S
C172 C173 1.399 . S
C172 H178 0.929 . S
C173 C153 1.449 . S
C173 C172 1.399 . S
C173 H179 0.930 . S
H174 C154 0.931 . S
H175 C155 0.930 1_545 S
H176 C163 0.931 . S
H177 C164 0.929 . S
H178 C172 0.929 . S
H179 C173 0.930 . S
Mn180 O185 2.095 . S
Mn180 O195 2.162 1_554 S
Mn180 O196 2.297 . S
Mn180 O204 2.385 1_655 S
Mn180 O205 2.209 . S
Mn180 O206 2.094 1_655 S
Mn181 O186 2.121 1_455 S
Mn181 N188 2.257 . S
Mn181 N197 2.282 . S
Mn181 O205 2.215 1_455 S
Mn181 O207 2.117 . S
C182 O204 1.234 . S
C182 O205 1.283 1_455 S
C183 O195 1.281 . S
C183 O196 1.236 1_556 S
C184 O206 1.240 . S
C184 O207 1.264 . S
O185 Mn180 2.095 . S
O185 C194 1.250 . S
O186 Mn181 2.121 1_655 S
O186 C194 1.258 . S
C187 N188 1.326 1_655 S
C187 C191 1.460 1_655 S
C187 H193 0.929 . S
N188 Mn181 2.257 . S
N188 C187 1.326 1_455 S
N188 C192 1.362 . S
C189 C190 1.258 . S
C189 C192 1.431 . S
C189 C209 1.449 . S
C190 C189 1.258 . S
C190 C191 1.477 . S
C190 H210 0.931 . S
C191 C187 1.460 1_455 S
C191 C190 1.477 . S
C191 H211 0.930 1_455 S
C192 N188 1.362 . S
C192 C189 1.431 . S
C192 C202 1.476 . S
H193 C187 0.929 . S
C194 O185 1.250 . S
C194 O186 1.258 . S
O195 Mn180 2.162 1_556 S
O195 C183 1.281 . S
O196 Mn180 2.297 . S
O196 C183 1.236 1_554 S
N197 Mn181 2.282 . S
N197 C198 1.328 . S
N197 C202 1.318 . S
C198 N197 1.328 . S
C198 C199 1.457 . S
C198 H203 0.929 . S
C199 C198 1.457 . S
C199 C200 1.291 . S
C199 H212 0.931 . S
C200 C199 1.291 . S
C200 C201 1.373 . S
C200 H213 0.929 . S
C201 C200 1.373 . S
C201 C202 1.396 . S
C201 C208 1.403 . S
C202 C192 1.476 . S
C202 N197 1.318 . S
C202 C201 1.396 . S
H203 C198 0.929 . S
O204 Mn180 2.385 1_455 S
O204 C182 1.234 . S
O205 Mn180 2.209 . S
O205 Mn181 2.215 1_655 S
O205 C182 1.283 1_655 S
O206 Mn180 2.094 1_455 S
O206 C184 1.240 . S
O207 Mn181 2.117 . S
O207 C184 1.264 . S
C208 C201 1.403 . S
C208 C209 1.399 . S
C208 H214 0.929 . S
C209 C189 1.449 . S
C209 C208 1.399 . S
C209 H215 0.930 . S
H210 C190 0.931 . S
H211 C191 0.930 1_655 S
H212 C199 0.931 . S
H213 C200 0.929 . S
H214 C208 0.929 . S
H215 C209 0.930 . S
Mn216 O221 2.095 . S
Mn216 O231 2.162 . S
Mn216 O232 2.297 . S
Mn216 O240 2.385 . S
Mn216 O241 2.209 . S
Mn216 O242 2.094 . S
Mn217 O222 2.121 . S
Mn217 N224 2.257 . S
Mn217 N233 2.282 . S
Mn217 O241 2.215 . S
Mn217 O243 2.117 . S
C218 O240 1.234 . S
C218 O241 1.283 . S
C219 O231 1.281 . S
C219 O232 1.236 . S
C220 O242 1.240 . S
C220 O243 1.264 . S
O221 Mn216 2.095 . S
O221 C230 1.250 . S
O222 Mn217 2.121 . S
O222 C230 1.258 . S
C223 N224 1.326 1_556 S
C223 C227 1.460 . S
C223 H229 0.929 . S
N224 Mn217 2.257 . S
N224 C223 1.326 1_554 S
N224 C228 1.362 . S
C225 C226 1.258 . S
C225 C228 1.431 1_556 S
C225 C245 1.449 . S
C226 C225 1.258 . S
C226 C227 1.477 . S
C226 H246 0.931 . S
C227 C223 1.460 . S
C227 C226 1.477 . S
C227 H247 0.930 . S
C228 N224 1.362 . S
C228 C225 1.431 1_554 S
C228 C238 1.476 . S
H229 C223 0.929 . S
C230 O221 1.250 . S
C230 O222 1.258 . S
O231 Mn216 2.162 . S
O231 C219 1.281 . S
O232 Mn216 2.297 . S
O232 C219 1.236 . S
N233 Mn217 2.282 . S
N233 C234 1.328 . S
N233 C238 1.318 . S
C234 N233 1.328 . S
C234 C235 1.457 . S
C234 H239 0.929 . S
C235 C234 1.457 . S
C235 C236 1.291 . S
C235 H248 0.931 . S
C236 C235 1.291 . S
C236 C237 1.373 . S
C236 H249 0.929 . S
C237 C236 1.373 . S
C237 C238 1.396 . S
C237 C244 1.403 1_554 S
C238 C228 1.476 . S
C238 N233 1.318 . S
C238 C237 1.396 . S
H239 C234 0.929 . S
O240 Mn216 2.385 . S
O240 C218 1.234 . S
O241 Mn216 2.209 . S
O241 Mn217 2.215 . S
O241 C218 1.283 . S
O242 Mn216 2.094 . S
O242 C220 1.240 . S
O243 Mn217 2.117 . S
O243 C220 1.264 . S
C244 C237 1.403 1_556 S
C244 C245 1.399 . S
C244 H250 0.929 . S
C245 C225 1.449 . S
C245 C244 1.399 . S
C245 H251 0.930 . S
H246 C226 0.931 . S
H247 C227 0.930 . S
H248 C235 0.931 . S
H249 C236 0.929 . S
H250 C244 0.929 . S
H251 C245 0.930 . S
Mn252 O257 2.095 . S
Mn252 O267 2.162 . S
Mn252 O268 2.297 . S
Mn252 O276 2.385 . S
Mn252 O277 2.209 . S
Mn252 O278 2.094 . S
Mn253 O258 2.121 . S
Mn253 N260 2.257 . S
Mn253 N269 2.282 . S
Mn253 O277 2.215 . S
Mn253 O279 2.117 . S
C254 O276 1.234 . S
C254 O277 1.283 . S
C255 O267 1.281 . S
C255 O268 1.236 . S
C256 O278 1.240 . S
C256 O279 1.264 . S
O257 Mn252 2.095 . S
O257 C266 1.250 . S
O258 Mn253 2.121 . S
O258 C266 1.258 . S
C259 N260 1.326 1_554 S
C259 C263 1.460 . S
C259 H265 0.929 . S
N260 Mn253 2.257 . S
N260 C259 1.326 1_556 S
N260 C264 1.362 . S
C261 C262 1.258 . S
C261 C264 1.431 1_554 S
C261 C281 1.449 . S
C262 C261 1.258 . S
C262 C263 1.477 . S
C262 H282 0.931 . S
C263 C259 1.460 . S
C263 C262 1.477 . S
C263 H283 0.930 . S
C264 N260 1.362 . S
C264 C261 1.431 1_556 S
C264 C274 1.476 . S
H265 C259 0.929 . S
C266 O257 1.250 . S
C266 O258 1.258 . S
O267 Mn252 2.162 . S
O267 C255 1.281 . S
O268 Mn252 2.297 . S
O268 C255 1.236 . S
N269 Mn253 2.282 . S
N269 C270 1.328 . S
N269 C274 1.318 . S
C270 N269 1.328 . S
C270 C271 1.457 . S
C270 H275 0.929 . S
C271 C270 1.457 . S
C271 C272 1.291 . S
C271 H284 0.931 . S
C272 C271 1.291 . S
C272 C273 1.373 . S
C272 H285 0.929 . S
C273 C272 1.373 . S
C273 C274 1.396 . S
C273 C280 1.403 1_556 S
C274 C264 1.476 . S
C274 N269 1.318 . S
C274 C273 1.396 . S
H275 C270 0.929 . S
O276 Mn252 2.385 . S
O276 C254 1.234 . S
O277 Mn252 2.209 . S
O277 Mn253 2.215 . S
O277 C254 1.283 . S
O278 Mn252 2.094 . S
O278 C256 1.240 . S
O279 Mn253 2.117 . S
O279 C256 1.264 . S
C280 C273 1.403 1_554 S
C280 C281 1.399 . S
C280 H286 0.929 . S
C281 C261 1.449 . S
C281 C280 1.399 . S
C281 H287 0.930 . S
H282 C262 0.931 . S
H283 C263 0.930 . S
H284 C271 0.931 . S
H285 C272 0.929 . S
H286 C280 0.929 . S
H287 C281 0.930 . S
H288 C300 0.930 . S
H289 C302 0.930 . S
H290 C303 0.930 . S
H291 C307 0.959 . S
H292 C307 0.959 . S
H293 C307 0.961 . S
H294 C308 0.960 . S
H295 C308 0.961 . S
H296 C308 0.959 . S
H297 C311 0.929 1_556 S
H298 C312 0.931 . S
H299 C314 0.930 . S
C300 H288 0.930 . S
C300 C301 1.399 . S
C300 C305 1.399 . S
C301 C300 1.399 . S
C301 C302 1.376 . S
C302 H289 0.930 . S
C302 C301 1.376 . S
C302 C303 1.388 . S
C303 H290 0.930 . S
C303 C302 1.388 . S
C303 C304 1.390 . S
C304 C303 1.390 . S
C304 C305 1.394 . S
C304 C310 1.465 1_556 S
C305 C300 1.399 . S
C305 C304 1.394 . S
C305 C306 1.516 1_556 S
C306 C305 1.516 1_554 S
C306 C307 1.502 . S
C306 C308 1.561 . S
C306 C309 1.526 . S
C307 H291 0.959 . S
C307 H292 0.959 . S
C307 H293 0.961 . S
C307 C306 1.502 . S
C308 H294 0.960 . S
C308 H295 0.961 . S
C308 H296 0.959 . S
C308 C306 1.561 . S
C309 C306 1.526 . S
C309 C310 1.396 . S
C309 C314 1.390 . S
C310 C304 1.465 1_554 S
C310 C309 1.396 . S
C310 C311 1.399 . S
C311 H297 0.929 1_554 S
C311 C310 1.399 . S
C311 C312 1.385 . S
C312 H298 0.931 . S
C312 C311 1.385 . S
C312 C313 1.389 . S
C313 C312 1.389 . S
C313 C314 1.387 . S
C314 H299 0.930 . S
C314 C309 1.390 . S
C314 C313 1.387 . S
H315 C327 0.930 . S
H316 C329 0.930 . S
H317 C330 0.930 . S
H318 C334 0.959 . S
H319 C334 0.959 . S
H320 C334 0.961 . S
H321 C335 0.960 . S
H322 C335 0.961 . S
H323 C335 0.959 . S
H324 C338 0.929 . S
H325 C339 0.931 1_556 S
H326 C341 0.930 . S
C327 H315 0.930 . S
C327 C328 1.399 . S
C327 C332 1.399 . S
C328 C327 1.399 . S
C328 C329 1.376 . S
C329 H316 0.930 . S
C329 C328 1.376 . S
C329 C330 1.388 . S
C330 H317 0.930 . S
C330 C329 1.388 . S
C330 C331 1.390 . S
C331 C330 1.390 . S
C331 C332 1.394 . S
C331 C337 1.465 . S
C332 C327 1.399 . S
C332 C331 1.394 . S
C332 C333 1.516 . S
C333 C332 1.516 . S
C333 C334 1.502 . S
C333 C335 1.561 . S
C333 C336 1.526 . S
C334 H318 0.959 . S
C334 H319 0.959 . S
C334 H320 0.961 . S
C334 C333 1.502 . S
C335 H321 0.960 . S
C335 H322 0.961 . S
C335 H323 0.959 . S
C335 C333 1.561 . S
C336 C333 1.526 . S
C336 C337 1.396 . S
C336 C341 1.390 . S
C337 C331 1.465 . S
C337 C336 1.396 . S
C337 C338 1.399 . S
C338 H324 0.929 . S
C338 C337 1.399 . S
C338 C339 1.385 . S
C339 H325 0.931 1_554 S
C339 C338 1.385 . S
C339 C340 1.389 . S
C340 C339 1.389 . S
C340 C341 1.387 . S
C341 H326 0.930 . S
C341 C336 1.390 . S
C341 C340 1.387 . S
H342 C354 0.930 . S
H343 C356 0.930 . S
H344 C357 0.930 . S
H345 C361 0.959 . S
H346 C361 0.959 . S
H347 C361 0.961 . S
H348 C362 0.960 . S
H349 C362 0.961 . S
H350 C362 0.959 . S
H351 C365 0.929 . S
H352 C366 0.931 . S
H353 C368 0.930 . S
C354 H342 0.930 . S
C354 C355 1.399 . S
C354 C359 1.399 . S
C355 C354 1.399 . S
C355 C356 1.376 . S
C356 H343 0.930 . S
C356 C355 1.376 . S
C356 C357 1.388 . S
C357 H344 0.930 . S
C357 C356 1.388 . S
C357 C358 1.390 . S
C358 C357 1.390 . S
C358 C359 1.394 . S
C358 C364 1.465 . S
C359 C354 1.399 . S
C359 C358 1.394 . S
C359 C360 1.516 . S
C360 C359 1.516 . S
C360 C361 1.502 . S
C360 C362 1.561 . S
C360 C363 1.526 . S
C361 H345 0.959 . S
C361 H346 0.959 . S
C361 H347 0.961 . S
C361 C360 1.502 . S
C362 H348 0.960 . S
C362 H349 0.961 . S
C362 H350 0.959 . S
C362 C360 1.561 . S
C363 C360 1.526 . S
C363 C364 1.396 . S
C363 C368 1.390 . S
C364 C358 1.465 . S
C364 C363 1.396 . S
C364 C365 1.399 . S
C365 H351 0.929 . S
C365 C364 1.399 . S
C365 C366 1.385 . S
C366 H352 0.931 . S
C366 C365 1.385 . S
C366 C367 1.389 . S
C367 C366 1.389 . S
C367 C368 1.387 . S
C368 H353 0.930 . S
C368 C363 1.390 . S
C368 C367 1.387 . S
H369 C381 0.930 . S
H370 C383 0.930 1_554 S
H371 C384 0.930 . S
H372 C388 0.959 . S
H373 C388 0.959 . S
H374 C388 0.961 . S
H375 C389 0.960 . S
H376 C389 0.961 . S
H377 C389 0.959 . S
H378 C392 0.929 . S
H379 C393 0.931 . S
H380 C395 0.930 . S
C381 H369 0.930 . S
C381 C382 1.399 . S
C381 C386 1.399 . S
C382 C381 1.399 . S
C382 C383 1.376 . S
C383 H370 0.930 1_556 S
C383 C382 1.376 . S
C383 C384 1.388 . S
C384 H371 0.930 . S
C384 C383 1.388 . S
C384 C385 1.390 . S
C385 C384 1.390 . S
C385 C386 1.394 . S
C385 C391 1.465 . S
C386 C381 1.399 . S
C386 C385 1.394 . S
C386 C387 1.516 . S
C387 C386 1.516 . S
C387 C388 1.502 . S
C387 C389 1.561 . S
C387 C390 1.526 . S
C388 H372 0.959 . S
C388 H373 0.959 . S
C388 H374 0.961 . S
C388 C387 1.502 . S
C389 H375 0.960 . S
C389 H376 0.961 . S
C389 H377 0.959 . S
C389 C387 1.561 . S
C390 C387 1.526 . S
C390 C391 1.396 . S
C390 C395 1.390 . S
C391 C385 1.465 . S
C391 C390 1.396 . S
C391 C392 1.399 . S
C392 H378 0.929 . S
C392 C391 1.399 . S
C392 C393 1.385 . S
C393 H379 0.931 . S
C393 C392 1.385 . S
C393 C394 1.389 . S
C394 C393 1.389 . S
C394 C395 1.387 . S
C395 H380 0.930 . S
C395 C390 1.390 . S
C395 C394 1.387 . S
H396 C408 0.930 . S
H397 C410 0.930 . S
H398 C411 0.930 . S
H399 C415 0.959 . S
H400 C415 0.959 . S
H401 C415 0.961 . S
H402 C416 0.960 . S
H403 C416 0.961 . S
H404 C416 0.959 . S
H405 C419 0.929 . S
H406 C420 0.931 . S
H407 C422 0.930 . S
C408 H396 0.930 . S
C408 C409 1.399 . S
C408 C413 1.399 . S
C409 C408 1.399 . S
C409 C410 1.376 . S
C410 H397 0.930 . S
C410 C409 1.376 . S
C410 C411 1.388 . S
C411 H398 0.930 . S
C411 C410 1.388 . S
C411 C412 1.390 . S
C412 C411 1.390 . S
C412 C413 1.394 . S
C412 C418 1.465 . S
C413 C408 1.399 . S
C413 C412 1.394 . S
C413 C414 1.516 . S
C414 C413 1.516 . S
C414 C415 1.502 . S
C414 C416 1.561 . S
C414 C417 1.526 . S
C415 H399 0.959 . S
C415 H400 0.959 . S
C415 H401 0.961 . S
C415 C414 1.502 . S
C416 H402 0.960 . S
C416 H403 0.961 . S
C416 H404 0.959 . S
C416 C414 1.561 . S
C417 C414 1.526 . S
C417 C418 1.396 . S
C417 C422 1.390 . S
C418 C412 1.465 . S
C418 C417 1.396 . S
C418 C419 1.399 . S
C419 H405 0.929 . S
C419 C418 1.399 . S
C419 C420 1.385 . S
C420 H406 0.931 . S
C420 C419 1.385 . S
C420 C421 1.389 . S
C421 C420 1.389 . S
C421 C422 1.387 . S
C422 H407 0.930 . S
C422 C417 1.390 . S
C422 C421 1.387 . S
H423 C435 0.930 . S
H424 C437 0.930 . S
H425 C438 0.930 . S
H426 C442 0.959 . S
H427 C442 0.959 . S
H428 C442 0.961 . S
H429 C443 0.960 . S
H430 C443 0.961 . S
H431 C443 0.959 . S
H432 C446 0.929 . S
H433 C447 0.931 . S
H434 C449 0.930 . S
C435 H423 0.930 . S
C435 C436 1.399 . S
C435 C440 1.399 . S
C436 C435 1.399 . S
C436 C437 1.376 . S
C437 H424 0.930 . S
C437 C436 1.376 . S
C437 C438 1.388 . S
C438 H425 0.930 . S
C438 C437 1.388 . S
C438 C439 1.390 . S
C439 C438 1.390 . S
C439 C440 1.394 . S
C439 C445 1.465 . S
C440 C435 1.399 . S
C440 C439 1.394 . S
C440 C441 1.516 . S
C441 C440 1.516 . S
C441 C442 1.502 . S
C441 C443 1.561 . S
C441 C444 1.526 . S
C442 H426 0.959 . S
C442 H427 0.959 . S
C442 H428 0.961 . S
C442 C441 1.502 . S
C443 H429 0.960 . S
C443 H430 0.961 . S
C443 H431 0.959 . S
C443 C441 1.561 . S
C444 C441 1.526 . S
C444 C445 1.396 . S
C444 C449 1.390 . S
C445 C439 1.465 . S
C445 C444 1.396 . S
C445 C446 1.399 . S
C446 H432 0.929 . S
C446 C445 1.399 . S
C446 C447 1.385 . S
C447 H433 0.931 . S
C447 C446 1.385 . S
C447 C448 1.389 . S
C448 C447 1.389 . S
C448 C449 1.387 . S
C449 H434 0.930 . S
C449 C444 1.390 . S
C449 C448 1.387 . S
H450 C462 0.930 . S
H451 C464 0.930 . S
H452 C465 0.930 . S
H453 C469 0.959 . S
H454 C469 0.959 . S
H455 C469 0.961 . S
H456 C470 0.960 . S
H457 C470 0.961 . S
H458 C470 0.959 . S
H459 C473 0.929 1_554 S
H460 C474 0.931 . S
H461 C476 0.930 . S
C462 H450 0.930 . S
C462 C463 1.399 . S
C462 C467 1.399 . S
C463 C462 1.399 . S
C463 C464 1.376 . S
C464 H451 0.930 . S
C464 C463 1.376 . S
C464 C465 1.388 . S
C465 H452 0.930 . S
C465 C464 1.388 . S
C465 C466 1.390 . S
C466 C465 1.390 . S
C466 C467 1.394 . S
C466 C472 1.465 1_554 S
C467 C462 1.399 . S
C467 C466 1.394 . S
C467 C468 1.516 1_554 S
C468 C467 1.516 1_556 S
C468 C469 1.502 . S
C468 C470 1.561 . S
C468 C471 1.526 . S
C469 H453 0.959 . S
C469 H454 0.959 . S
C469 H455 0.961 . S
C469 C468 1.502 . S
C470 H456 0.960 . S
C470 H457 0.961 . S
C470 H458 0.959 . S
C470 C468 1.561 . S
C471 C468 1.526 . S
C471 C472 1.396 . S
C471 C476 1.390 . S
C472 C466 1.465 1_556 S
C472 C471 1.396 . S
C472 C473 1.399 . S
C473 H459 0.929 1_556 S
C473 C472 1.399 . S
C473 C474 1.385 . S
C474 H460 0.931 . S
C474 C473 1.385 . S
C474 C475 1.389 . S
C475 C474 1.389 . S
C475 C476 1.387 . S
C476 H461 0.930 . S
C476 C471 1.390 . S
C476 C475 1.387 . S
H477 C489 0.930 . S
H478 C491 0.930 . S
H479 C492 0.930 . S
H480 C496 0.959 . S
H481 C496 0.959 . S
H482 C496 0.961 . S
H483 C497 0.960 . S
H484 C497 0.961 . S
H485 C497 0.959 . S
H486 C500 0.929 . S
H487 C501 0.931 . S
H488 C503 0.930 . S
C489 H477 0.930 . S
C489 C490 1.399 . S
C489 C494 1.399 . S
C490 C489 1.399 . S
C490 C491 1.376 . S
C491 H478 0.930 . S
C491 C490 1.376 . S
C491 C492 1.388 . S
C492 H479 0.930 . S
C492 C491 1.388 . S
C492 C493 1.390 . S
C493 C492 1.390 . S
C493 C494 1.394 . S
C493 C499 1.465 . S
C494 C489 1.399 . S
C494 C493 1.394 . S
C494 C495 1.516 . S
C495 C494 1.516 . S
C495 C496 1.502 . S
C495 C497 1.561 . S
C495 C498 1.526 . S
C496 H480 0.959 . S
C496 H481 0.959 . S
C496 H482 0.961 . S
C496 C495 1.502 . S
C497 H483 0.960 . S
C497 H484 0.961 . S
C497 H485 0.959 . S
C497 C495 1.561 . S
C498 C495 1.526 . S
C498 C499 1.396 . S
C498 C503 1.390 . S
C499 C493 1.465 . S
C499 C498 1.396 . S
C499 C500 1.399 . S
C500 H486 0.929 . S
C500 C499 1.399 . S
C500 C501 1.385 . S
C501 H487 0.931 . S
C501 C500 1.385 . S
C501 C502 1.389 . S
C502 C501 1.389 . S
C502 C503 1.387 . S
C503 H488 0.930 . S
C503 C498 1.390 . S
C503 C502 1.387 . S
H504 C516 0.930 . S
H505 C518 0.930 . S
H506 C519 0.930 . S
H507 C523 0.959 . S
H508 C523 0.959 . S
H509 C523 0.961 . S
H510 C524 0.960 . S
H511 C524 0.961 . S
H512 C524 0.959 . S
H513 C527 0.929 . S
H514 C528 0.931 . S
H515 C530 0.930 . S
C516 H504 0.930 . S
C516 C517 1.399 . S
C516 C521 1.399 . S
C517 C516 1.399 . S
C517 C518 1.376 . S
C518 H505 0.930 . S
C518 C517 1.376 . S
C518 C519 1.388 . S
C519 H506 0.930 . S
C519 C518 1.388 . S
C519 C520 1.390 . S
C520 C519 1.390 . S
C520 C521 1.394 . S
C520 C526 1.465 . S
C521 C516 1.399 . S
C521 C520 1.394 . S
C521 C522 1.516 . S
C522 C521 1.516 . S
C522 C523 1.502 . S
C522 C524 1.561 . S
C522 C525 1.526 . S
C523 H507 0.959 . S
C523 H508 0.959 . S
C523 H509 0.961 . S
C523 C522 1.502 . S
C524 H510 0.960 . S
C524 H511 0.961 . S
C524 H512 0.959 . S
C524 C522 1.561 . S
C525 C522 1.526 . S
C525 C526 1.396 . S
C525 C530 1.390 . S
C526 C520 1.465 . S
C526 C525 1.396 . S
C526 C527 1.399 . S
C527 H513 0.929 . S
C527 C526 1.399 . S
C527 C528 1.385 . S
C528 H514 0.931 . S
C528 C527 1.385 . S
C528 C529 1.389 . S
C529 C528 1.389 . S
C529 C530 1.387 . S
C530 H515 0.930 . S
C530 C525 1.390 . S
C530 C529 1.387 . S
H531 C543 0.930 . S
H532 C545 0.930 . S
H533 C546 0.930 . S
H534 C550 0.959 . S
H535 C550 0.959 . S
H536 C550 0.961 . S
H537 C551 0.960 . S
H538 C551 0.961 . S
H539 C551 0.959 . S
H540 C554 0.929 . S
H541 C555 0.931 . S
H542 C557 0.930 . S
C543 H531 0.930 . S
C543 C544 1.399 . S
C543 C548 1.399 . S
C544 C543 1.399 . S
C544 C545 1.376 . S
C545 H532 0.930 . S
C545 C544 1.376 . S
C545 C546 1.388 . S
C546 H533 0.930 . S
C546 C545 1.388 . S
C546 C547 1.390 . S
C547 C546 1.390 . S
C547 C548 1.394 . S
C547 C553 1.465 . S
C548 C543 1.399 . S
C548 C547 1.394 . S
C548 C549 1.516 . S
C549 C548 1.516 . S
C549 C550 1.502 . S
C549 C551 1.561 . S
C549 C552 1.526 . S
C550 H534 0.959 . S
C550 H535 0.959 . S
C550 H536 0.961 . S
C550 C549 1.502 . S
C551 H537 0.960 . S
C551 H538 0.961 . S
C551 H539 0.959 . S
C551 C549 1.561 . S
C552 C549 1.526 . S
C552 C553 1.396 . S
C552 C557 1.390 . S
C553 C547 1.465 . S
C553 C552 1.396 . S
C553 C554 1.399 . S
C554 H540 0.929 . S
C554 C553 1.399 . S
C554 C555 1.385 . S
C555 H541 0.931 . S
C555 C554 1.385 . S
C555 C556 1.389 . S
C556 C555 1.389 . S
C556 C557 1.387 . S
C557 H542 0.930 . S
C557 C552 1.390 . S
C557 C556 1.387 . S
H558 C570 0.930 . S
H559 C572 0.930 . S
H560 C573 0.930 . S
H561 C577 0.959 . S
H562 C577 0.959 . S
H563 C577 0.961 . S
H564 C578 0.960 . S
H565 C578 0.961 . S
H566 C578 0.959 . S
H567 C581 0.929 . S
H568 C582 0.931 . S
H569 C584 0.930 . S
C570 H558 0.930 . S
C570 C571 1.399 1_556 S
C570 C575 1.399 . S
C571 C570 1.399 1_554 S
C571 C572 1.376 . S
C572 H559 0.930 . S
C572 C571 1.376 . S
C572 C573 1.388 . S
C573 H560 0.930 . S
C573 C572 1.388 . S
C573 C574 1.390 . S
C574 C573 1.390 . S
C574 C575 1.394 1_554 S
C574 C580 1.465 . S
C575 C570 1.399 . S
C575 C574 1.394 1_556 S
C575 C576 1.516 . S
C576 C575 1.516 . S
C576 C577 1.502 . S
C576 C578 1.561 . S
C576 C579 1.526 . S
C577 H561 0.959 . S
C577 H562 0.959 . S
C577 H563 0.961 . S
C577 C576 1.502 . S
C578 H564 0.960 . S
C578 H565 0.961 . S
C578 H566 0.959 . S
C578 C576 1.561 . S
C579 C576 1.526 . S
C579 C580 1.396 1_556 S
C579 C584 1.390 . S
C580 C574 1.465 . S
C580 C579 1.396 1_554 S
C580 C581 1.399 . S
C581 H567 0.929 . S
C581 C580 1.399 . S
C581 C582 1.385 . S
C582 H568 0.931 . S
C582 C581 1.385 . S
C582 C583 1.389 1_554 S
C583 C582 1.389 1_556 S
C583 C584 1.387 . S
C584 H569 0.930 . S
C584 C579 1.390 . S
C584 C583 1.387 . S
H585 C597 0.930 . S
H586 C599 0.930 . S
H587 C600 0.930 . S
H588 C604 0.959 . S
H589 C604 0.959 . S
H590 C604 0.961 . S
H591 C605 0.960 1_556 S
H592 C605 0.961 . S
H593 C605 0.959 . S
H594 C608 0.929 . S
H595 C609 0.931 . S
H596 C611 0.930 . S
C597 H585 0.930 . S
C597 C598 1.399 . S
C597 C602 1.399 . S
C598 C597 1.399 . S
C598 C599 1.376 . S
C599 H586 0.930 . S
C599 C598 1.376 . S
C599 C600 1.388 . S
C600 H587 0.930 . S
C600 C599 1.388 . S
C600 C601 1.390 . S
C601 C600 1.390 . S
C601 C602 1.394 . S
C601 C607 1.465 . S
C602 C597 1.399 . S
C602 C601 1.394 . S
C602 C603 1.516 . S
C603 C602 1.516 . S
C603 C604 1.502 . S
C603 C605 1.561 . S
C603 C606 1.526 . S
C604 H588 0.959 . S
C604 H589 0.959 . S
C604 H590 0.961 . S
C604 C603 1.502 . S
C605 H591 0.960 1_554 S
C605 H592 0.961 . S
C605 H593 0.959 . S
C605 C603 1.561 . S
C606 C603 1.526 . S
C606 C607 1.396 . S
C606 C611 1.390 . S
C607 C601 1.465 . S
C607 C606 1.396 . S
C607 C608 1.399 . S
C608 H594 0.929 . S
C608 C607 1.399 . S
C608 C609 1.385 . S
C609 H595 0.931 . S
C609 C608 1.385 . S
C609 C610 1.389 . S
C610 C609 1.389 . S
C610 C611 1.387 . S
C611 H596 0.930 . S
C611 C606 1.390 . S
C611 C610 1.387 . S
H612 C624 0.930 . S
H613 C626 0.930 . S
H614 C627 0.930 . S
H615 C631 0.959 . S
H616 C631 0.959 . S
H617 C631 0.961 . S
H618 C632 0.960 1_554 S
H619 C632 0.959 1_554 S
H620 C632 0.959 . S
H621 C635 0.929 . S
H622 C636 0.931 . S
H623 C638 0.930 . S
C624 H612 0.930 . S
C624 C625 1.399 . S
C624 C629 1.399 . S
C625 C624 1.399 . S
C625 C626 1.376 . S
C626 H613 0.930 . S
C626 C625 1.376 . S
C626 C627 1.388 . S
C627 H614 0.930 . S
C627 C626 1.388 . S
C627 C628 1.390 . S
C628 C627 1.390 . S
C628 C629 1.394 . S
C628 C634 1.465 . S
C629 C624 1.399 . S
C629 C628 1.394 . S
C629 C630 1.516 . S
C630 C629 1.516 . S
C630 C631 1.502 . S
C630 C632 1.561 . S
C630 C633 1.526 . S
C631 H615 0.959 . S
C631 H616 0.959 . S
C631 H617 0.961 . S
C631 C630 1.502 . S
C632 H618 0.960 1_556 S
C632 H619 0.959 1_556 S
C632 H620 0.959 . S
C632 C630 1.561 . S
C633 C630 1.526 . S
C633 C634 1.396 . S
C633 C638 1.390 . S
C634 C628 1.465 . S
C634 C633 1.396 . S
C634 C635 1.399 . S
C635 H621 0.929 . S
C635 C634 1.399 . S
C635 C636 1.385 . S
C636 H622 0.931 . S
C636 C635 1.385 . S
C636 C637 1.389 . S
C637 C636 1.389 . S
C637 C638 1.387 . S
C638 H623 0.930 . S
C638 C633 1.390 . S
C638 C637 1.387 . S
H639 C651 0.930 . S
H640 C653 0.930 . S
H641 C654 0.930 . S
H642 C658 0.959 1_556 S
H643 C658 0.959 . S
H644 C658 0.961 . S
H645 C659 0.960 . S
H646 C659 0.961 . S
H647 C659 0.959 . S
H648 C662 0.929 . S
H649 C663 0.931 . S
H650 C665 0.930 . S
C651 H639 0.930 . S
C651 C652 1.399 1_554 S
C651 C656 1.399 . S
C652 C651 1.399 1_556 S
C652 C653 1.376 . S
C653 H640 0.930 . S
C653 C652 1.376 . S
C653 C654 1.388 . S
C654 H641 0.930 . S
C654 C653 1.388 . S
C654 C655 1.390 . S
C655 C654 1.390 . S
C655 C656 1.394 1_556 S
C655 C661 1.465 . S
C656 C651 1.399 . S
C656 C655 1.394 1_554 S
C656 C657 1.516 . S
C657 C656 1.516 . S
C657 C658 1.502 . S
C657 C659 1.561 . S
C657 C660 1.526 . S
C658 H642 0.959 1_554 S
C658 H643 0.959 . S
C658 H644 0.961 . S
C658 C657 1.502 . S
C659 H645 0.960 . S
C659 H646 0.961 . S
C659 H647 0.959 . S
C659 C657 1.561 . S
C660 C657 1.526 . S
C660 C661 1.396 1_554 S
C660 C665 1.390 . S
C661 C655 1.465 . S
C661 C660 1.396 1_556 S
C661 C662 1.399 . S
C662 H648 0.929 . S
C662 C661 1.399 . S
C662 C663 1.385 . S
C663 H649 0.931 . S
C663 C662 1.385 . S
C663 C664 1.389 1_556 S
C664 C663 1.389 1_554 S
C664 C665 1.387 . S
C665 H650 0.930 . S
C665 C660 1.390 . S
C665 C664 1.387 . S
H666 C678 0.930 . S
H667 C680 0.930 . S
H668 C681 0.930 . S
H669 C685 0.959 . S
H670 C685 0.959 . S
H671 C685 0.961 . S
H672 C686 0.960 . S
H673 C686 0.961 . S
H674 C686 0.959 . S
H675 C689 0.929 . S
H676 C690 0.931 . S
H677 C692 0.930 . S
C678 H666 0.930 . S
C678 C679 1.399 . S
C678 C683 1.399 . S
C679 C678 1.399 . S
C679 C680 1.376 . S
C680 H667 0.930 . S
C680 C679 1.376 . S
C680 C681 1.388 . S
C681 H668 0.930 . S
C681 C680 1.388 . S
C681 C682 1.390 . S
C682 C681 1.390 . S
C682 C683 1.394 . S
C682 C688 1.465 . S
C683 C678 1.399 . S
C683 C682 1.394 . S
C683 C684 1.516 . S
C684 C683 1.516 . S
C684 C685 1.502 . S
C684 C686 1.561 . S
C684 C687 1.526 . S
C685 H669 0.959 . S
C685 H670 0.959 . S
C685 H671 0.961 . S
C685 C684 1.502 . S
C686 H672 0.960 . S
C686 H673 0.961 . S
C686 H674 0.959 . S
C686 C684 1.561 . S
C687 C684 1.526 . S
C687 C688 1.396 . S
C687 C692 1.390 . S
C688 C682 1.465 . S
C688 C687 1.396 . S
C688 C689 1.399 . S
C689 H675 0.929 . S
C689 C688 1.399 . S
C689 C690 1.385 . S
C690 H676 0.931 . S
C690 C689 1.385 . S
C690 C691 1.389 . S
C691 C690 1.389 . S
C691 C692 1.387 . S
C692 H677 0.930 . S
C692 C687 1.390 . S
C692 C691 1.387 . S
H693 C705 0.930 . S
H694 C707 0.930 . S
H695 C708 0.930 . S
H696 C712 0.959 . S
H697 C712 0.959 . S
H698 C712 0.961 . S
H699 C713 0.960 . S
H700 C713 0.961 . S
H701 C713 0.959 . S
H702 C716 0.929 . S
H703 C717 0.931 . S
H704 C719 0.930 . S
C705 H693 0.930 . S
C705 C706 1.399 . S
C705 C710 1.399 . S
C706 C705 1.399 . S
C706 C707 1.376 . S
C707 H694 0.930 . S
C707 C706 1.376 . S
C707 C708 1.388 . S
C708 H695 0.930 . S
C708 C707 1.388 . S
C708 C709 1.390 . S
C709 C708 1.390 . S
C709 C710 1.394 . S
C709 C715 1.465 . S
C710 C705 1.399 . S
C710 C709 1.394 . S
C710 C711 1.516 . S
C711 C710 1.516 . S
C711 C712 1.502 . S
C711 C713 1.561 . S
C711 C714 1.526 . S
C712 H696 0.959 . S
C712 H697 0.959 . S
C712 H698 0.961 . S
C712 C711 1.502 . S
C713 H699 0.960 . S
C713 H700 0.961 . S
C713 H701 0.959 . S
C713 C711 1.561 . S
C714 C711 1.526 . S
C714 C715 1.396 . S
C714 C719 1.390 . S
C715 C709 1.465 . S
C715 C714 1.396 . S
C715 C716 1.399 . S
C716 H702 0.929 . S
C716 C715 1.399 . S
C716 C717 1.385 . S
C717 H703 0.931 . S
C717 C716 1.385 . S
C717 C718 1.389 . S
C718 C717 1.389 . S
C718 C719 1.387 . S
C719 H704 0.930 . S
C719 C714 1.390 . S
C719 C718 1.387 . S
C301 C50 1.388 . S
C313 C14 1.364 . S
C328 C39 1.424 . S
C340 C75 1.432 . S
C355 C122 1.382 . S
C367 C86 1.330 . S
C382 C111 1.432 . S
C394 C3 1.425 . S
C409 C158 1.356 . S
C421 C194 1.388 . S
C436 C183 1.427 . S
C448 C219 1.430 . S
C463 C230 1.388 . S
C475 C266 1.363 . S
C490 C147 1.426 . S
C502 C255 1.431 . S
C517 C4 1.467 . S
C529 C256 1.427 . S
C544 C146 1.398 . S
C556 C38 1.441 . S
C571 C184 1.420 . S
C583 C76 1.456 . S
C598 C110 1.447 . S
C610 C218 1.406 . S
C625 C74 1.443 . S
C637 C254 1.413 . S
C652 C148 1.432 . S
C664 C112 1.437 . S
C679 C182 1.406 . S
C691 C2 1.447 . S
C706 C40 1.422 . S
C718 C220 1.450 . S
