# Generated by pormake.
# Topology svz, (7)-cn, num edge types: 1
# Building blocks:
#     Node 0, Type 0, BuildingBlock: NUHQUE_clean_sbu_2, # of connection points: 7
#     Node 1, Type 0, BuildingBlock: NUHQUE_clean_sbu_2, # of connection points: 7
#     Node 2, Type 0, BuildingBlock: NUHQUE_clean_sbu_2, # of connection points: 7
#     Node 3, Type 0, BuildingBlock: NUHQUE_clean_sbu_2, # of connection points: 7
#     Node 4, Type 0, BuildingBlock: NUHQUE_clean_sbu_2, # of connection points: 7
#     Node 5, Type 0, BuildingBlock: NUHQUE_clean_sbu_2, # of connection points: 7
#     Node 6, Type 0, BuildingBlock: NUHQUE_clean_sbu_2, # of connection points: 7
#     Node 7, Type 0, BuildingBlock: NUHQUE_clean_sbu_2, # of connection points: 7
#     Node 8, Type 0, BuildingBlock: NUHQUE_clean_sbu_2, # of connection points: 7
#     Node 9, Type 0, BuildingBlock: NUHQUE_clean_sbu_2, # of connection points: 7
#     Node 10, Type 0, BuildingBlock: NUHQUE_clean_sbu_2, # of connection points: 7
#     Node 11, Type 0, BuildingBlock: NUHQUE_clean_sbu_2, # of connection points: 7
#     Node 12, Type 0, BuildingBlock: NUHQUE_clean_sbu_2, # of connection points: 7
#     Node 13, Type 0, BuildingBlock: NUHQUE_clean_sbu_2, # of connection points: 7
#     Node 14, Type 0, BuildingBlock: NUHQUE_clean_sbu_2, # of connection points: 7
#     Node 15, Type 0, BuildingBlock: NUHQUE_clean_sbu_2, # of connection points: 7
#     Node 16, Type 0, BuildingBlock: NUHQUE_clean_sbu_2, # of connection points: 7
#     Node 17, Type 0, BuildingBlock: NUHQUE_clean_sbu_2, # of connection points: 7
#     Node 18, Type 0, BuildingBlock: NUHQUE_clean_sbu_2, # of connection points: 7
#     Node 19, Type 0, BuildingBlock: NUHQUE_clean_sbu_2, # of connection points: 7
#     Node 20, Type 0, BuildingBlock: NUHQUE_clean_sbu_2, # of connection points: 7
#     Node 21, Type 0, BuildingBlock: NUHQUE_clean_sbu_2, # of connection points: 7
#     Node 22, Type 0, BuildingBlock: NUHQUE_clean_sbu_2, # of connection points: 7
#     Node 23, Type 0, BuildingBlock: NUHQUE_clean_sbu_2, # of connection points: 7
#     Node 24, Type 0, BuildingBlock: NUHQUE_clean_sbu_2, # of connection points: 7
#     Node 25, Type 0, BuildingBlock: NUHQUE_clean_sbu_2, # of connection points: 7
#     Node 26, Type 0, BuildingBlock: NUHQUE_clean_sbu_2, # of connection points: 7
#     Node 27, Type 0, BuildingBlock: NUHQUE_clean_sbu_2, # of connection points: 7
#     Node 28, Type 0, BuildingBlock: NUHQUE_clean_sbu_2, # of connection points: 7
#     Node 29, Type 0, BuildingBlock: NUHQUE_clean_sbu_2, # of connection points: 7
#     Node 30, Type 0, BuildingBlock: NUHQUE_clean_sbu_2, # of connection points: 7
#     Node 31, Type 0, BuildingBlock: NUHQUE_clean_sbu_2, # of connection points: 7
#     Node 32, Type 0, BuildingBlock: NUHQUE_clean_sbu_2, # of connection points: 7
#     Node 33, Type 0, BuildingBlock: NUHQUE_clean_sbu_2, # of connection points: 7
#     Node 34, Type 0, BuildingBlock: NUHQUE_clean_sbu_2, # of connection points: 7
#     Node 35, Type 0, BuildingBlock: NUHQUE_clean_sbu_2, # of connection points: 7
#     Node 36, Type 0, BuildingBlock: NUHQUE_clean_sbu_2, # of connection points: 7
#     Node 37, Type 0, BuildingBlock: NUHQUE_clean_sbu_2, # of connection points: 7
#     Node 38, Type 0, BuildingBlock: NUHQUE_clean_sbu_2, # of connection points: 7
#     Node 39, Type 0, BuildingBlock: NUHQUE_clean_sbu_2, # of connection points: 7
#     Node 40, Type 0, BuildingBlock: NUHQUE_clean_sbu_2, # of connection points: 7
#     Node 41, Type 0, BuildingBlock: NUHQUE_clean_sbu_2, # of connection points: 7
#     Node 42, Type 0, BuildingBlock: NUHQUE_clean_sbu_2, # of connection points: 7
#     Node 43, Type 0, BuildingBlock: NUHQUE_clean_sbu_2, # of connection points: 7
#     Node 44, Type 0, BuildingBlock: NUHQUE_clean_sbu_2, # of connection points: 7
#     Node 45, Type 0, BuildingBlock: NUHQUE_clean_sbu_2, # of connection points: 7
#     Node 46, Type 0, BuildingBlock: NUHQUE_clean_sbu_2, # of connection points: 7
#     Node 47, Type 0, BuildingBlock: NUHQUE_clean_sbu_2, # of connection points: 7
#     Edge 48, Type (0, 0), BuildingBlock: AJUNOK_clean_linker_0, # of connection points: 2
#     Edge 49, Type (0, 0), BuildingBlock: AJUNOK_clean_linker_0, # of connection points: 2
#     Edge 50, Type (0, 0), BuildingBlock: AJUNOK_clean_linker_0, # of connection points: 2
#     Edge 51, Type (0, 0), BuildingBlock: AJUNOK_clean_linker_0, # of connection points: 2
#     Edge 52, Type (0, 0), BuildingBlock: AJUNOK_clean_linker_0, # of connection points: 2
#     Edge 53, Type (0, 0), BuildingBlock: AJUNOK_clean_linker_0, # of connection points: 2
#     Edge 54, Type (0, 0), BuildingBlock: AJUNOK_clean_linker_0, # of connection points: 2
#     Edge 55, Type (0, 0), BuildingBlock: AJUNOK_clean_linker_0, # of connection points: 2
#     Edge 56, Type (0, 0), BuildingBlock: AJUNOK_clean_linker_0, # of connection points: 2
#     Edge 57, Type (0, 0), BuildingBlock: AJUNOK_clean_linker_0, # of connection points: 2
#     Edge 58, Type (0, 0), BuildingBlock: AJUNOK_clean_linker_0, # of connection points: 2
#     Edge 59, Type (0, 0), BuildingBlock: AJUNOK_clean_linker_0, # of connection points: 2
#     Edge 60, Type (0, 0), BuildingBlock: AJUNOK_clean_linker_0, # of connection points: 2
#     Edge 61, Type (0, 0), BuildingBlock: AJUNOK_clean_linker_0, # of connection points: 2
#     Edge 62, Type (0, 0), BuildingBlock: AJUNOK_clean_linker_0, # of connection points: 2
#     Edge 63, Type (0, 0), BuildingBlock: AJUNOK_clean_linker_0, # of connection points: 2
#     Edge 64, Type (0, 0), BuildingBlock: AJUNOK_clean_linker_0, # of connection points: 2
#     Edge 65, Type (0, 0), BuildingBlock: AJUNOK_clean_linker_0, # of connection points: 2
#     Edge 66, Type (0, 0), BuildingBlock: AJUNOK_clean_linker_0, # of connection points: 2
#     Edge 67, Type (0, 0), BuildingBlock: AJUNOK_clean_linker_0, # of connection points: 2
#     Edge 68, Type (0, 0), BuildingBlock: AJUNOK_clean_linker_0, # of connection points: 2
#     Edge 69, Type (0, 0), BuildingBlock: AJUNOK_clean_linker_0, # of connection points: 2
#     Edge 70, Type (0, 0), BuildingBlock: AJUNOK_clean_linker_0, # of connection points: 2
#     Edge 71, Type (0, 0), BuildingBlock: AJUNOK_clean_linker_0, # of connection points: 2
#     Edge 72, Type (0, 0), BuildingBlock: AJUNOK_clean_linker_0, # of connection points: 2
#     Edge 73, Type (0, 0), BuildingBlock: AJUNOK_clean_linker_0, # of connection points: 2
#     Edge 74, Type (0, 0), BuildingBlock: AJUNOK_clean_linker_0, # of connection points: 2
#     Edge 75, Type (0, 0), BuildingBlock: AJUNOK_clean_linker_0, # of connection points: 2
#     Edge 76, Type (0, 0), BuildingBlock: AJUNOK_clean_linker_0, # of connection points: 2
#     Edge 77, Type (0, 0), BuildingBlock: AJUNOK_clean_linker_0, # of connection points: 2
#     Edge 78, Type (0, 0), BuildingBlock: AJUNOK_clean_linker_0, # of connection points: 2
#     Edge 79, Type (0, 0), BuildingBlock: AJUNOK_clean_linker_0, # of connection points: 2
#     Edge 80, Type (0, 0), BuildingBlock: AJUNOK_clean_linker_0, # of connection points: 2
#     Edge 81, Type (0, 0), BuildingBlock: AJUNOK_clean_linker_0, # of connection points: 2
#     Edge 82, Type (0, 0), BuildingBlock: AJUNOK_clean_linker_0, # of connection points: 2
#     Edge 83, Type (0, 0), BuildingBlock: AJUNOK_clean_linker_0, # of connection points: 2
#     Edge 84, Type (0, 0), BuildingBlock: AJUNOK_clean_linker_0, # of connection points: 2
#     Edge 85, Type (0, 0), BuildingBlock: AJUNOK_clean_linker_0, # of connection points: 2
#     Edge 86, Type (0, 0), BuildingBlock: AJUNOK_clean_linker_0, # of connection points: 2
#     Edge 87, Type (0, 0), BuildingBlock: AJUNOK_clean_linker_0, # of connection points: 2
#     Edge 88, Type (0, 0), BuildingBlock: AJUNOK_clean_linker_0, # of connection points: 2
#     Edge 89, Type (0, 0), BuildingBlock: AJUNOK_clean_linker_0, # of connection points: 2
#     Edge 90, Type (0, 0), BuildingBlock: AJUNOK_clean_linker_0, # of connection points: 2
#     Edge 91, Type (0, 0), BuildingBlock: AJUNOK_clean_linker_0, # of connection points: 2
#     Edge 92, Type (0, 0), BuildingBlock: AJUNOK_clean_linker_0, # of connection points: 2
#     Edge 93, Type (0, 0), BuildingBlock: AJUNOK_clean_linker_0, # of connection points: 2
#     Edge 94, Type (0, 0), BuildingBlock: AJUNOK_clean_linker_0, # of connection points: 2
#     Edge 95, Type (0, 0), BuildingBlock: AJUNOK_clean_linker_0, # of connection points: 2
#     Edge 96, Type (0, 0), BuildingBlock: AJUNOK_clean_linker_0, # of connection points: 2
#     Edge 97, Type (0, 0), BuildingBlock: AJUNOK_clean_linker_0, # of connection points: 2
#     Edge 98, Type (0, 0), BuildingBlock: AJUNOK_clean_linker_0, # of connection points: 2
#     Edge 99, Type (0, 0), BuildingBlock: AJUNOK_clean_linker_0, # of connection points: 2
#     Edge 100, Type (0, 0), BuildingBlock: AJUNOK_clean_linker_0, # of connection points: 2
#     Edge 101, Type (0, 0), BuildingBlock: AJUNOK_clean_linker_0, # of connection points: 2
#     Edge 102, Type (0, 0), BuildingBlock: AJUNOK_clean_linker_0, # of connection points: 2
#     Edge 103, Type (0, 0), BuildingBlock: AJUNOK_clean_linker_0, # of connection points: 2
#     Edge 104, Type (0, 0), BuildingBlock: AJUNOK_clean_linker_0, # of connection points: 2
#     Edge 105, Type (0, 0), BuildingBlock: AJUNOK_clean_linker_0, # of connection points: 2
#     Edge 106, Type (0, 0), BuildingBlock: AJUNOK_clean_linker_0, # of connection points: 2
#     Edge 107, Type (0, 0), BuildingBlock: AJUNOK_clean_linker_0, # of connection points: 2
#     Edge 108, Type (0, 0), BuildingBlock: AJUNOK_clean_linker_0, # of connection points: 2
#     Edge 109, Type (0, 0), BuildingBlock: AJUNOK_clean_linker_0, # of connection points: 2
#     Edge 110, Type (0, 0), BuildingBlock: AJUNOK_clean_linker_0, # of connection points: 2
#     Edge 111, Type (0, 0), BuildingBlock: AJUNOK_clean_linker_0, # of connection points: 2
#     Edge 112, Type (0, 0), BuildingBlock: AJUNOK_clean_linker_0, # of connection points: 2
#     Edge 113, Type (0, 0), BuildingBlock: AJUNOK_clean_linker_0, # of connection points: 2
#     Edge 114, Type (0, 0), BuildingBlock: AJUNOK_clean_linker_0, # of connection points: 2
#     Edge 115, Type (0, 0), BuildingBlock: AJUNOK_clean_linker_0, # of connection points: 2
#     Edge 116, Type (0, 0), BuildingBlock: AJUNOK_clean_linker_0, # of connection points: 2
#     Edge 117, Type (0, 0), BuildingBlock: AJUNOK_clean_linker_0, # of connection points: 2
#     Edge 118, Type (0, 0), BuildingBlock: AJUNOK_clean_linker_0, # of connection points: 2
#     Edge 119, Type (0, 0), BuildingBlock: AJUNOK_clean_linker_0, # of connection points: 2
#     Edge 120, Type (0, 0), BuildingBlock: AJUNOK_clean_linker_0, # of connection points: 2
#     Edge 121, Type (0, 0), BuildingBlock: AJUNOK_clean_linker_0, # of connection points: 2
#     Edge 122, Type (0, 0), BuildingBlock: AJUNOK_clean_linker_0, # of connection points: 2
#     Edge 123, Type (0, 0), BuildingBlock: AJUNOK_clean_linker_0, # of connection points: 2
#     Edge 124, Type (0, 0), BuildingBlock: AJUNOK_clean_linker_0, # of connection points: 2
#     Edge 125, Type (0, 0), BuildingBlock: AJUNOK_clean_linker_0, # of connection points: 2
#     Edge 126, Type (0, 0), BuildingBlock: AJUNOK_clean_linker_0, # of connection points: 2
#     Edge 127, Type (0, 0), BuildingBlock: AJUNOK_clean_linker_0, # of connection points: 2
#     Edge 128, Type (0, 0), BuildingBlock: AJUNOK_clean_linker_0, # of connection points: 2
#     Edge 129, Type (0, 0), BuildingBlock: AJUNOK_clean_linker_0, # of connection points: 2
#     Edge 130, Type (0, 0), BuildingBlock: AJUNOK_clean_linker_0, # of connection points: 2
#     Edge 131, Type (0, 0), BuildingBlock: AJUNOK_clean_linker_0, # of connection points: 2
#     Edge 132, Type (0, 0), BuildingBlock: AJUNOK_clean_linker_0, # of connection points: 2
#     Edge 133, Type (0, 0), BuildingBlock: AJUNOK_clean_linker_0, # of connection points: 2
#     Edge 134, Type (0, 0), BuildingBlock: AJUNOK_clean_linker_0, # of connection points: 2
#     Edge 135, Type (0, 0), BuildingBlock: AJUNOK_clean_linker_0, # of connection points: 2
#     Edge 136, Type (0, 0), BuildingBlock: AJUNOK_clean_linker_0, # of connection points: 2
#     Edge 137, Type (0, 0), BuildingBlock: AJUNOK_clean_linker_0, # of connection points: 2
#     Edge 138, Type (0, 0), BuildingBlock: AJUNOK_clean_linker_0, # of connection points: 2
#     Edge 139, Type (0, 0), BuildingBlock: AJUNOK_clean_linker_0, # of connection points: 2
#     Edge 140, Type (0, 0), BuildingBlock: AJUNOK_clean_linker_0, # of connection points: 2
#     Edge 141, Type (0, 0), BuildingBlock: AJUNOK_clean_linker_0, # of connection points: 2
#     Edge 142, Type (0, 0), BuildingBlock: AJUNOK_clean_linker_0, # of connection points: 2
#     Edge 143, Type (0, 0), BuildingBlock: AJUNOK_clean_linker_0, # of connection points: 2
#     Edge 144, Type (0, 0), BuildingBlock: AJUNOK_clean_linker_0, # of connection points: 2
#     Edge 145, Type (0, 0), BuildingBlock: AJUNOK_clean_linker_0, # of connection points: 2
#     Edge 146, Type (0, 0), BuildingBlock: AJUNOK_clean_linker_0, # of connection points: 2
#     Edge 147, Type (0, 0), BuildingBlock: AJUNOK_clean_linker_0, # of connection points: 2
#     Edge 148, Type (0, 0), BuildingBlock: AJUNOK_clean_linker_0, # of connection points: 2
#     Edge 149, Type (0, 0), BuildingBlock: AJUNOK_clean_linker_0, # of connection points: 2
#     Edge 150, Type (0, 0), BuildingBlock: AJUNOK_clean_linker_0, # of connection points: 2
#     Edge 151, Type (0, 0), BuildingBlock: AJUNOK_clean_linker_0, # of connection points: 2
#     Edge 152, Type (0, 0), BuildingBlock: AJUNOK_clean_linker_0, # of connection points: 2
#     Edge 153, Type (0, 0), BuildingBlock: AJUNOK_clean_linker_0, # of connection points: 2
#     Edge 154, Type (0, 0), BuildingBlock: AJUNOK_clean_linker_0, # of connection points: 2
#     Edge 155, Type (0, 0), BuildingBlock: AJUNOK_clean_linker_0, # of connection points: 2
#     Edge 156, Type (0, 0), BuildingBlock: AJUNOK_clean_linker_0, # of connection points: 2
#     Edge 157, Type (0, 0), BuildingBlock: AJUNOK_clean_linker_0, # of connection points: 2
#     Edge 158, Type (0, 0), BuildingBlock: AJUNOK_clean_linker_0, # of connection points: 2
#     Edge 159, Type (0, 0), BuildingBlock: AJUNOK_clean_linker_0, # of connection points: 2
#     Edge 160, Type (0, 0), BuildingBlock: AJUNOK_clean_linker_0, # of connection points: 2
#     Edge 161, Type (0, 0), BuildingBlock: AJUNOK_clean_linker_0, # of connection points: 2
#     Edge 162, Type (0, 0), BuildingBlock: AJUNOK_clean_linker_0, # of connection points: 2
#     Edge 163, Type (0, 0), BuildingBlock: AJUNOK_clean_linker_0, # of connection points: 2
#     Edge 164, Type (0, 0), BuildingBlock: AJUNOK_clean_linker_0, # of connection points: 2
#     Edge 165, Type (0, 0), BuildingBlock: AJUNOK_clean_linker_0, # of connection points: 2
#     Edge 166, Type (0, 0), BuildingBlock: AJUNOK_clean_linker_0, # of connection points: 2
#     Edge 167, Type (0, 0), BuildingBlock: AJUNOK_clean_linker_0, # of connection points: 2
#     Edge 168, Type (0, 0), BuildingBlock: AJUNOK_clean_linker_0, # of connection points: 2
#     Edge 169, Type (0, 0), BuildingBlock: AJUNOK_clean_linker_0, # of connection points: 2
#     Edge 170, Type (0, 0), BuildingBlock: AJUNOK_clean_linker_0, # of connection points: 2
#     Edge 171, Type (0, 0), BuildingBlock: AJUNOK_clean_linker_0, # of connection points: 2
#     Edge 172, Type (0, 0), BuildingBlock: AJUNOK_clean_linker_0, # of connection points: 2
#     Edge 173, Type (0, 0), BuildingBlock: AJUNOK_clean_linker_0, # of connection points: 2
#     Edge 174, Type (0, 0), BuildingBlock: AJUNOK_clean_linker_0, # of connection points: 2
#     Edge 175, Type (0, 0), BuildingBlock: AJUNOK_clean_linker_0, # of connection points: 2
#     Edge 176, Type (0, 0), BuildingBlock: AJUNOK_clean_linker_0, # of connection points: 2
#     Edge 177, Type (0, 0), BuildingBlock: AJUNOK_clean_linker_0, # of connection points: 2
#     Edge 178, Type (0, 0), BuildingBlock: AJUNOK_clean_linker_0, # of connection points: 2
#     Edge 179, Type (0, 0), BuildingBlock: AJUNOK_clean_linker_0, # of connection points: 2
#     Edge 180, Type (0, 0), BuildingBlock: AJUNOK_clean_linker_0, # of connection points: 2
#     Edge 181, Type (0, 0), BuildingBlock: AJUNOK_clean_linker_0, # of connection points: 2
#     Edge 182, Type (0, 0), BuildingBlock: AJUNOK_clean_linker_0, # of connection points: 2
#     Edge 183, Type (0, 0), BuildingBlock: AJUNOK_clean_linker_0, # of connection points: 2
#     Edge 184, Type (0, 0), BuildingBlock: AJUNOK_clean_linker_0, # of connection points: 2
#     Edge 185, Type (0, 0), BuildingBlock: AJUNOK_clean_linker_0, # of connection points: 2
#     Edge 186, Type (0, 0), BuildingBlock: AJUNOK_clean_linker_0, # of connection points: 2
#     Edge 187, Type (0, 0), BuildingBlock: AJUNOK_clean_linker_0, # of connection points: 2
#     Edge 188, Type (0, 0), BuildingBlock: AJUNOK_clean_linker_0, # of connection points: 2
#     Edge 189, Type (0, 0), BuildingBlock: AJUNOK_clean_linker_0, # of connection points: 2
#     Edge 190, Type (0, 0), BuildingBlock: AJUNOK_clean_linker_0, # of connection points: 2
#     Edge 191, Type (0, 0), BuildingBlock: AJUNOK_clean_linker_0, # of connection points: 2
#     Edge 192, Type (0, 0), BuildingBlock: AJUNOK_clean_linker_0, # of connection points: 2
#     Edge 193, Type (0, 0), BuildingBlock: AJUNOK_clean_linker_0, # of connection points: 2
#     Edge 194, Type (0, 0), BuildingBlock: AJUNOK_clean_linker_0, # of connection points: 2
#     Edge 195, Type (0, 0), BuildingBlock: AJUNOK_clean_linker_0, # of connection points: 2
#     Edge 196, Type (0, 0), BuildingBlock: AJUNOK_clean_linker_0, # of connection points: 2
#     Edge 197, Type (0, 0), BuildingBlock: AJUNOK_clean_linker_0, # of connection points: 2
#     Edge 198, Type (0, 0), BuildingBlock: AJUNOK_clean_linker_0, # of connection points: 2
#     Edge 199, Type (0, 0), BuildingBlock: AJUNOK_clean_linker_0, # of connection points: 2
#     Edge 200, Type (0, 0), BuildingBlock: AJUNOK_clean_linker_0, # of connection points: 2
#     Edge 201, Type (0, 0), BuildingBlock: AJUNOK_clean_linker_0, # of connection points: 2
#     Edge 202, Type (0, 0), BuildingBlock: AJUNOK_clean_linker_0, # of connection points: 2
#     Edge 203, Type (0, 0), BuildingBlock: AJUNOK_clean_linker_0, # of connection points: 2
#     Edge 204, Type (0, 0), BuildingBlock: AJUNOK_clean_linker_0, # of connection points: 2
#     Edge 205, Type (0, 0), BuildingBlock: AJUNOK_clean_linker_0, # of connection points: 2
#     Edge 206, Type (0, 0), BuildingBlock: AJUNOK_clean_linker_0, # of connection points: 2
#     Edge 207, Type (0, 0), BuildingBlock: AJUNOK_clean_linker_0, # of connection points: 2
#     Edge 208, Type (0, 0), BuildingBlock: AJUNOK_clean_linker_0, # of connection points: 2
#     Edge 209, Type (0, 0), BuildingBlock: AJUNOK_clean_linker_0, # of connection points: 2
#     Edge 210, Type (0, 0), BuildingBlock: AJUNOK_clean_linker_0, # of connection points: 2
#     Edge 211, Type (0, 0), BuildingBlock: AJUNOK_clean_linker_0, # of connection points: 2
#     Edge 212, Type (0, 0), BuildingBlock: AJUNOK_clean_linker_0, # of connection points: 2
#     Edge 213, Type (0, 0), BuildingBlock: AJUNOK_clean_linker_0, # of connection points: 2
#     Edge 214, Type (0, 0), BuildingBlock: AJUNOK_clean_linker_0, # of connection points: 2
#     Edge 215, Type (0, 0), BuildingBlock: AJUNOK_clean_linker_0, # of connection points: 2
# Relax obj value: 0.209
# Max RMSD: 0.269
# Mean RMSD: 0.269
data_MOF--net-svz--node1-NUHQUE_clean_sbu_2--edge1-AJUNOK_clean_linker_0
_symmetry_space_group_name_H-M    P1
_symmetry_Int_Tables_number       1
_symmetry_cell_setting            triclinic
loop_
_symmetry_equiv_pos_as_xyz
'x, y, z'
_cell_length_a     53.320679
_cell_length_b     53.366857
_cell_length_c     53.307696
_cell_angle_alpha  90.10534
_cell_angle_beta   90.136781
_cell_angle_gamma 90.111702
loop_
_atom_site_label
_atom_site_type_symbol
_atom_site_fract_x
_atom_site_fract_y
_atom_site_fract_z
_atom_type_partial_charge
O0 O 0.07994 0.60513 0.26203 0.0
Tb1 Tb 0.04334 0.61805 0.24965 0.0
Eu2 Eu 0.04526 0.58117 0.19157 0.0
C3 C 0.08126 0.58567 0.27711 0.0
O4 O 0.06131 0.57141 0.2794 0.0
C5 C 0.01856 0.56707 0.24063 0.0
O6 O 0.01571 0.57284 0.16243 0.0
C7 C 0.0897 0.57797 0.17242 0.0
C8 C 0.99232 0.56934 0.16943 0.0
O9 O 0.98761 0.56609 0.19336 0.0
C10 C 0.03594 0.64091 0.19646 0.0
C11 C 0.10221 0.58697 0.14948 0.0
C12 C 0.12767 0.58132 0.14538 0.0
C13 C 0.13928 0.58849 0.1229 0.0
C14 C 0.12539 0.60112 0.10458 0.0
C15 C 0.10013 0.6071 0.10841 0.0
C16 C 0.08856 0.60014 0.13104 0.0
O17 O 0.01405 0.5912 0.24081 0.0
O18 O 0.03617 0.55845 0.22585 0.0
O19 O 0.02885 0.62052 0.28802 0.0
O20 O 0.03134 0.65361 0.2665 0.0
C21 C 0.02485 0.64448 0.28811 0.0
O22 O 0.02837 0.61943 0.18701 0.0
O23 O 0.04891 0.64237 0.21745 0.0
O24 O 0.07212 0.56093 0.16882 0.0
O25 O 0.08359 0.59514 0.18919 0.0
H26 H 0.13827 0.57114 0.15941 0.0
H27 H 0.13449 0.60661 0.08725 0.0
H28 H 0.06895 0.60451 0.1341 0.0
O29 O 0.9039 0.07918 0.25712 0.0
Tb30 Tb 0.90086 0.03888 0.25085 0.0
Eu31 Eu 0.92999 0.05314 0.19154 0.0
C32 C 0.92421 0.08907 0.26725 0.0
O33 O 0.94549 0.07703 0.2649 0.0
C34 C 0.95919 0.02992 0.24162 0.0
O35 O 0.92889 0.02059 0.16454 0.0
C36 C 0.94272 0.09314 0.16712 0.0
C37 C 0.93512 0.99765 0.17102 0.0
O38 O 0.94325 0.99349 0.19391 0.0
C39 C 0.87413 0.03354 0.19946 0.0
C40 C 0.93236 0.10728 0.14563 0.0
C41 C 0.9346 0.13356 0.14488 0.0
C42 C 0.92489 0.14702 0.12443 0.0
C43 C 0.91357 0.13408 0.10449 0.0
C44 C 0.91142 0.10791 0.10476 0.0
C45 C 0.92057 0.09458 0.12556 0.0
O46 O 0.93878 0.02588 0.25474 0.0
O47 O 0.9598 0.04108 0.21953 0.0
O48 O 0.87095 0.0412 0.27882 0.0
O49 O 0.89667 0.0111 0.28069 0.0
C50 C 0.87708 0.02106 0.29103 0.0
O51 O 0.88767 0.05186 0.19023 0.0
O52 O 0.88074 0.02188 0.21995 0.0
O53 O 0.95145 0.07069 0.1619 0.0
O54 O 0.92992 0.09397 0.18824 0.0
H55 H 0.9437 0.1435 0.16016 0.0
H56 H 0.90628 0.14453 0.08863 0.0
H57 H 0.91885 0.07434 0.12591 0.0
O58 O 0.43894 0.91047 0.26111 0.0
Tb59 Tb 0.47619 0.90094 0.24721 0.0
Eu60 Eu 0.46903 0.93531 0.18986 0.0
C61 C 0.43649 0.9293 0.27697 0.0
O62 O 0.45455 0.94601 0.27814 0.0
C63 C 0.49301 0.95685 0.23907 0.0
O64 O 0.49962 0.94598 0.16264 0.0
C65 C 0.42436 0.93703 0.17079 0.0
C66 C 0.52291 0.9441 0.17075 0.0
O67 O 0.52659 0.93828 0.1944 0.0
C68 C 0.48247 0.8762 0.19487 0.0
C69 C 0.40949 0.92632 0.15006 0.0
C70 C 0.3835 0.93086 0.14918 0.0
C71 C 0.36904 0.92132 0.12933 0.0
C72 C 0.3807 0.90756 0.11032 0.0
C73 C 0.40666 0.90352 0.11043 0.0
C74 C 0.42107 0.91268 0.13062 0.0
O75 O 0.50015 0.93398 0.24474 0.0
O76 O 0.47558 0.9612 0.22231 0.0
O77 O 0.47621 0.88957 0.28638 0.0
O78 O 0.5049 0.8757 0.26295 0.0
C79 C 0.49618 0.87585 0.2857 0.0
O80 O 0.48755 0.89804 0.18491 0.0
O81 O 0.47075 0.87431 0.2165 0.0
O82 O 0.44249 0.95255 0.16435 0.0
O83 O 0.43053 0.92168 0.18918 0.0
H84 H 0.37461 0.94194 0.16371 0.0
H85 H 0.36944 0.90046 0.09487 0.0
H86 H 0.44119 0.90985 0.1309 0.0
O87 O 0.61198 0.44167 0.26782 0.0
Tb88 Tb 0.62157 0.47792 0.25174 0.0
Eu89 Eu 0.58626 0.46825 0.1932 0.0
C90 C 0.59284 0.44015 0.28333 0.0
O91 O 0.57651 0.45855 0.28345 0.0
C92 C 0.56898 0.49688 0.2398 0.0
O93 O 0.57678 0.496 0.16278 0.0
C94 C 0.58521 0.42313 0.17543 0.0
C95 C 0.56608 0.51757 0.16807 0.0
O96 O 0.55692 0.52102 0.19063 0.0
C97 C 0.64587 0.48004 0.19876 0.0
C98 C 0.59584 0.41063 0.15323 0.0
C99 C 0.59158 0.38487 0.14931 0.0
C100 C 0.60111 0.373 0.12782 0.0
C101 C 0.61447 0.38708 0.11016 0.0
C102 C 0.61849 0.41277 0.11363 0.0
C103 C 0.6094 0.42454 0.13533 0.0
O104 O 0.59262 0.50359 0.23956 0.0
O105 O 0.56208 0.47748 0.22638 0.0
O106 O 0.62071 0.49309 0.28968 0.0
O107 O 0.65379 0.49775 0.26843 0.0
C108 C 0.64317 0.50235 0.2899 0.0
O109 O 0.62419 0.4863 0.18878 0.0
O110 O 0.64775 0.47041 0.22142 0.0
O111 O 0.56772 0.43988 0.17063 0.0
O112 O 0.60137 0.43039 0.19281 0.0
H113 H 0.58088 0.37415 0.16284 0.0
H114 H 0.62151 0.37802 0.09335 0.0
H115 H 0.61245 0.44445 0.13807 0.0
O116 O 0.07704 0.90822 0.26035 0.0
Tb117 Tb 0.03749 0.90401 0.26981 0.0
Eu118 Eu 0.05492 0.93177 0.32936 0.0
C119 C 0.0838 0.92728 0.24615 0.0
O120 O 0.06819 0.94615 0.24403 0.0
C121 C 0.02854 0.96097 0.28158 0.0
O122 O 0.02176 0.92967 0.35555 0.0
C123 C 0.09463 0.94381 0.3548 0.0
C124 C 0.99871 0.93526 0.34873 0.0
O125 O 0.9946 0.94377 0.326 0.0
C126 C 0.03406 0.8776 0.3207 0.0
C127 C 0.10967 0.93321 0.37552 0.0
C128 C 0.1354 0.93907 0.37708 0.0
C129 C 0.14982 0.92998 0.39708 0.0
C130 C 0.13853 0.9153 0.41558 0.0
C131 C 0.1129 0.90972 0.41474 0.0
C132 C 0.09849 0.91826 0.39434 0.0
O133 O 0.02035 0.94032 0.2709 0.0
O134 O 0.04446 0.96159 0.30063 0.0
O135 O 0.03095 0.86846 0.25069 0.0
O136 O 0.01579 0.90164 0.23495 0.0
C137 C 0.01761 0.87748 0.23241 0.0
O138 O 0.05415 0.88953 0.32835 0.0
O139 O 0.0207 0.88667 0.30231 0.0
O140 O 0.07196 0.95154 0.36063 0.0
O141 O 0.09569 0.93206 0.33306 0.0
H142 H 0.14406 0.95087 0.363 0.0
H143 H 0.14981 0.90852 0.43113 0.0
H144 H 0.07864 0.91391 0.3935 0.0
O145 O 0.61173 0.08319 0.2559 0.0
Tb146 Tb 0.61971 0.04523 0.26828 0.0
Eu147 Eu 0.58636 0.05017 0.32787 0.0
C148 C 0.59165 0.08772 0.24227 0.0
O149 O 0.57324 0.07138 0.24276 0.0
C150 C 0.56451 0.0276 0.278 0.0
O151 O 0.57649 0.02024 0.356 0.0
C152 C 0.58658 0.09492 0.34684 0.0
C153 C 0.5747 0.99697 0.3479 0.0
O154 O 0.57597 0.9929 0.32364 0.0
C155 C 0.64494 0.03994 0.3205 0.0
C156 C 0.59819 0.10948 0.36734 0.0
C157 C 0.59385 0.13548 0.36859 0.0
C158 C 0.60372 0.14968 0.38849 0.0
C159 C 0.61758 0.1377 0.40726 0.0
C160 C 0.62161 0.11181 0.40665 0.0
C161 C 0.61224 0.09766 0.38639 0.0
O162 O 0.58747 0.02052 0.27258 0.0
O163 O 0.55995 0.04407 0.29567 0.0
O164 O 0.62744 0.04109 0.22827 0.0
O165 O 0.6493 0.02031 0.25397 0.0
C166 C 0.64556 0.02504 0.23034 0.0
O167 O 0.62391 0.03168 0.33011 0.0
O168 O 0.64559 0.0522 0.29915 0.0
O169 O 0.57053 0.07739 0.35359 0.0
O170 O 0.60128 0.0882 0.32813 0.0
H171 H 0.58256 0.14458 0.35433 0.0
H172 H 0.62464 0.14857 0.423 0.0
H173 H 0.61514 0.07756 0.38585 0.0
O174 O 0.44605 0.60472 0.25322 0.0
Tb175 Tb 0.47728 0.62438 0.27085 0.0
Eu176 Eu 0.47422 0.58699 0.32773 0.0
C177 C 0.45111 0.59001 0.23404 0.0
O178 O 0.47475 0.58574 0.22868 0.0
C179 C 0.49817 0.57052 0.27736 0.0
O180 O 0.50513 0.57589 0.35446 0.0
C181 C 0.43013 0.58354 0.34791 0.0
C182 C 0.52823 0.57513 0.3458 0.0
O183 O 0.53161 0.57812 0.32163 0.0
C184 C 0.48282 0.64631 0.32358 0.0
C185 C 0.4172 0.59244 0.37063 0.0
C186 C 0.39133 0.58796 0.3736 0.0
C187 C 0.37908 0.59572 0.39556 0.0
C188 C 0.39282 0.6077 0.41454 0.0
C189 C 0.41863 0.6121 0.41195 0.0
C190 C 0.43075 0.60458 0.38982 0.0
O191 O 0.50432 0.59418 0.27442 0.0
O192 O 0.48009 0.56424 0.29273 0.0
O193 O 0.47304 0.64849 0.23798 0.0
O194 O 0.50921 0.64369 0.25358 0.0
C195 C 0.49658 0.65436 0.2357 0.0
O196 O 0.49181 0.62513 0.33221 0.0
O197 O 0.46824 0.64677 0.30371 0.0
O198 O 0.44813 0.56708 0.35169 0.0
O199 O 0.43588 0.60066 0.33104 0.0
H200 H 0.38084 0.57841 0.35899 0.0
H201 H 0.38325 0.61368 0.43147 0.0
H202 H 0.45074 0.60767 0.3877 0.0
O203 O 0.90495 0.4395 0.25835 0.0
Tb204 Tb 0.89477 0.47611 0.27303 0.0
Eu205 Eu 0.93031 0.46888 0.33119 0.0
C206 C 0.92426 0.4379 0.24309 0.0
O207 O 0.94057 0.45638 0.24304 0.0
C208 C 0.94696 0.49715 0.28416 0.0
O209 O 0.94031 0.49616 0.36206 0.0
C210 C 0.92954 0.42327 0.34764 0.0
C211 C 0.94857 0.5186 0.35599 0.0
O212 O 0.95512 0.52259 0.33266 0.0
C213 C 0.87153 0.48415 0.32531 0.0
C214 C 0.91911 0.41043 0.36977 0.0
C215 C 0.9207 0.38418 0.37182 0.0
C216 C 0.91171 0.37196 0.39339 0.0
C217 C 0.90129 0.38632 0.41282 0.0
C218 C 0.89994 0.41254 0.41124 0.0
C219 C 0.90871 0.4245 0.3895 0.0
O220 O 0.92314 0.50309 0.28403 0.0
O221 O 0.95432 0.47813 0.2978 0.0
O222 O 0.8616 0.49271 0.25503 0.0
O223 O 0.89601 0.49196 0.23541 0.0
C224 C 0.87274 0.49878 0.23421 0.0
O225 O 0.89348 0.48903 0.3355 0.0
O226 O 0.86925 0.47126 0.30438 0.0
O227 O 0.94796 0.4391 0.35241 0.0
O228 O 0.91315 0.4318 0.33113 0.0
H229 H 0.92908 0.37334 0.35682 0.0
H230 H 0.89462 0.377 0.42961 0.0
H231 H 0.90811 0.44477 0.38818 0.0
O232 O 0.26261 0.07427 0.60914 0.0
Tb233 Tb 0.24825 0.04061 0.62718 0.0
Eu234 Eu 0.19193 0.04726 0.59092 0.0
C235 C 0.28055 0.07179 0.59237 0.0
O236 O 0.28624 0.04912 0.58466 0.0
C237 C 0.24072 0.02079 0.57284 0.0
O238 O 0.17105 0.0114 0.58204 0.0
C239 C 0.16866 0.08851 0.58026 0.0
C240 C 0.1803 0.99111 0.59261 0.0
O241 O 0.20055 0.99366 0.60638 0.0
C242 C 0.19497 0.04034 0.65225 0.0
C243 C 0.14766 0.10395 0.58955 0.0
C244 C 0.14749 0.12983 0.58425 0.0
C245 C 0.12808 0.14505 0.59334 0.0
C246 C 0.10866 0.1343 0.60723 0.0
C247 C 0.10835 0.10866 0.61242 0.0
C248 C 0.128 0.09339 0.6038 0.0
O249 O 0.24474 0.0143 0.59623 0.0
O250 O 0.22628 0.03991 0.56742 0.0
O251 O 0.28423 0.04536 0.64621 0.0
O252 O 0.2668 1.00976 0.64709 0.0
C253 C 0.28641 0.02248 0.65409 0.0
O254 O 0.18346 0.03654 0.63075 0.0
O255 O 0.21831 0.04824 0.65375 0.0
O256 O 0.16289 0.06673 0.56999 0.0
O257 O 0.18885 0.08775 0.5946 0.0
H258 H 0.16246 0.13811 0.5733 0.0
H259 H 0.09352 0.14605 0.61403 0.0
H260 H 0.128 0.07355 0.60812 0.0
O261 O 0.44624 0.26352 0.61715 0.0
Tb262 Tb 0.48532 0.25253 0.62202 0.0
Eu263 Eu 0.46556 0.19321 0.59339 0.0
C264 C 0.44026 0.27697 0.59729 0.0
O265 O 0.45621 0.27766 0.5786 0.0
C266 C 0.49504 0.23864 0.566 0.0
O267 O 0.49839 0.1665 0.59223 0.0
C268 C 0.42517 0.16907 0.58062 0.0
C269 C 0.52175 0.17447 0.59318 0.0
O270 O 0.52616 0.19864 0.59441 0.0
C271 C 0.48631 0.20066 0.64901 0.0
C272 C 0.41142 0.14694 0.59001 0.0
C273 C 0.38547 0.14442 0.5854 0.0
C274 C 0.37269 0.12284 0.59346 0.0
C275 C 0.38592 0.10378 0.60562 0.0
C276 C 0.41171 0.10586 0.61003 0.0
C277 C 0.42436 0.12771 0.6027 0.0
O278 O 0.5046 0.24747 0.58692 0.0
O279 O 0.47556 0.22343 0.56518 0.0
O280 O 0.49484 0.27232 0.65669 0.0
O281 O 0.50631 0.28781 0.62195 0.0
C282 C 0.50674 0.29076 0.64617 0.0
O283 O 0.46725 0.19238 0.63572 0.0
O284 O 0.49941 0.2202 0.64202 0.0
O285 O 0.44738 0.16448 0.571 0.0
O286 O 0.42476 0.18932 0.59478 0.0
H287 H 0.37538 0.15898 0.57548 0.0
H288 H 0.376 0.08708 0.61168 0.0
H289 H 0.44431 0.12946 0.60633 0.0
O290 O 0.25719 0.43989 0.6127 0.0
Tb291 Tb 0.27253 0.47656 0.62215 0.0
Eu292 Eu 0.33141 0.46995 0.58634 0.0
C293 C 0.24302 0.43759 0.59253 0.0
O294 O 0.24375 0.45551 0.57571 0.0
C295 C 0.2828 0.49537 0.56902 0.0
O296 O 0.36043 0.49955 0.5771 0.0
C297 C 0.34988 0.42501 0.58646 0.0
C298 C 0.35278 0.52218 0.57088 0.0
O299 O 0.32884 0.52545 0.56635 0.0
C300 C 0.32567 0.48185 0.64568 0.0
C301 C 0.37186 0.41215 0.59728 0.0
C302 C 0.37386 0.38582 0.59583 0.0
C303 C 0.39519 0.37359 0.60546 0.0
C304 C 0.41455 0.38798 0.61601 0.0
C305 C 0.41311 0.41418 0.61699 0.0
C306 C 0.39148 0.42621 0.6081 0.0
O307 O 0.28299 0.5024 0.59261 0.0
O308 O 0.2977 0.47717 0.56204 0.0
O309 O 0.23422 0.49066 0.6218 0.0
O310 O 0.25583 0.49567 0.6547 0.0
C311 C 0.23411 0.49973 0.64435 0.0
O312 O 0.33447 0.48908 0.62386 0.0
O313 O 0.30379 0.47054 0.64783 0.0
O314 O 0.35485 0.44169 0.56892 0.0
O315 O 0.3325 0.43244 0.60242 0.0
H316 H 0.35897 0.37494 0.58718 0.0
H317 H 0.43121 0.3787 0.62309 0.0
H318 H 0.3902 0.44648 0.60896 0.0
O319 O 0.08423 0.25574 0.6041 0.0
Tb320 Tb 0.0468 0.26964 0.61227 0.0
Eu321 Eu 0.04835 0.33071 0.5789 0.0
C322 C 0.08824 0.24278 0.58346 0.0
O323 O 0.07148 0.24399 0.56545 0.0
C324 C 0.02949 0.27936 0.5577 0.0
O325 O 0.0159 0.35639 0.57026 0.0
C326 C 0.09142 0.35342 0.57822 0.0
C327 C 0.99337 0.34637 0.5683 0.0
O328 O 0.99157 0.32185 0.56802 0.0
C329 C 0.03896 0.32122 0.63783 0.0
C330 C 0.10437 0.37526 0.58936 0.0
C331 C 0.1307 0.37692 0.58782 0.0
C332 C 0.14339 0.39787 0.59764 0.0
C333 C 0.12954 0.41724 0.60867 0.0
C334 C 0.10328 0.41618 0.60991 0.0
C335 C 0.09073 0.39493 0.60047 0.0
O336 O 0.02163 0.27586 0.58076 0.0
O337 O 0.04461 0.29804 0.55253 0.0
O338 O 0.03589 0.23036 0.6169 0.0
O339 O 0.02586 0.25638 0.64507 0.0
C340 C 0.02448 0.23307 0.63817 0.0
O341 O 0.03026 0.33092 0.61694 0.0
O342 O 0.05326 0.30115 0.63764 0.0
O343 O 0.07311 0.35839 0.56235 0.0
O344 O 0.08651 0.33444 0.59328 0.0
H345 H 0.14128 0.36204 0.57891 0.0
H346 H 0.13935 0.43352 0.61602 0.0
H347 H 0.07043 0.39395 0.6012 0.0
O348 O 0.26505 0.44335 0.91201 0.0
Tb349 Tb 0.24867 0.4767 0.89514 0.0
Eu350 Eu 0.19315 0.47054 0.93253 0.0
C351 C 0.28384 0.44629 0.92784 0.0
O352 O 0.28851 0.46892 0.9364 0.0
C353 C 0.24219 0.49675 0.94964 0.0
O354 O 0.16388 0.49887 0.94371 0.0
C355 C 0.17504 0.42558 0.93419 0.0
C356 C 0.17072 0.52195 0.94915 0.0
O357 O 0.19473 0.52679 0.9517 0.0
C358 C 0.19537 0.48036 0.87326 0.0
C359 C 0.15254 0.41262 0.92481 0.0
C360 C 0.14938 0.38692 0.92958 0.0
C361 C 0.12766 0.37451 0.92136 0.0
C362 C 0.1089 0.38799 0.90887 0.0
C363 C 0.11172 0.41367 0.90414 0.0
C364 C 0.13374 0.42594 0.91191 0.0
O365 O 0.24529 0.50309 0.92605 0.0
O366 O 0.22764 0.47789 0.95557 0.0
O367 O 0.28434 0.47328 0.87538 0.0
O368 O 0.26483 0.50766 0.87336 0.0
C369 C 0.28499 0.49589 0.8665 0.0
O370 O 0.1876 0.4888 0.89501 0.0
O371 O 0.21665 0.46813 0.87127 0.0
O372 O 0.17098 0.44249 0.95175 0.0
O373 O 0.19151 0.43275 0.91719 0.0
H374 H 0.16376 0.3766 0.93959 0.0
H375 H 0.09206 0.37836 0.90262 0.0
H376 H 0.13609 0.4458 0.90828 0.0
O377 O 0.08227 0.26184 0.91403 0.0
Tb378 Tb 0.04495 0.24883 0.90396 0.0
Eu379 Eu 0.05188 0.19101 0.9383 0.0
C380 C 0.08495 0.27715 0.93323 0.0
O381 O 0.06677 0.27829 0.94974 0.0
C382 C 0.02732 0.23995 0.95891 0.0
O383 O 0.0212 0.16348 0.94751 0.0
C384 C 0.09611 0.17136 0.94087 0.0
C385 C 0.99798 0.17164 0.94589 0.0
O386 O 0.99435 0.19556 0.94151 0.0
C387 C 0.04274 0.1962 0.87885 0.0
C388 C 0.10875 0.14989 0.92914 0.0
C389 C 0.13497 0.14736 0.93095 0.0
C390 C 0.14706 0.12713 0.91922 0.0
C391 C 0.13273 0.10933 0.9061 0.0
C392 C 0.10661 0.11144 0.90471 0.0
C393 C 0.09462 0.13177 0.91611 0.0
O394 O 0.01994 0.24437 0.93581 0.0
O395 O 0.04488 0.22356 0.96385 0.0
O396 O 0.04172 0.28868 0.89573 0.0
O397 O 0.01973 0.26329 0.87456 0.0
C398 C 0.02511 0.28683 0.87802 0.0
O399 O 0.03509 0.18629 0.89997 0.0
O400 O 0.05324 0.21849 0.87795 0.0
O401 O 0.07786 0.16566 0.95651 0.0
O402 O 0.09068 0.19018 0.92579 0.0
H403 H 0.14589 0.1611 0.94127 0.0
H404 H 0.1419 0.09343 0.89736 0.0
H405 H 0.0744 0.13352 0.91483 0.0
O406 O 0.2575 0.07839 0.90562 0.0
Tb407 Tb 0.26837 0.03975 0.89875 0.0
Eu408 Eu 0.32739 0.04849 0.93247 0.0
C409 C 0.24495 0.08408 0.92606 0.0
O410 O 0.24613 0.06859 0.9451 0.0
C411 C 0.27865 0.02333 0.95354 0.0
O412 O 0.35736 0.02055 0.94257 0.0
C413 C 0.34546 0.09363 0.9332 0.0
C414 C 0.35068 0.99689 0.94452 0.0
O415 O 0.32674 0.99129 0.94298 0.0
C416 C 0.32059 0.03178 0.87395 0.0
C417 C 0.36783 0.1069 0.92387 0.0
C418 C 0.36986 0.13307 0.92683 0.0
C419 C 0.39172 0.14559 0.91919 0.0
C420 C 0.41151 0.13185 0.90885 0.0
C421 C 0.40996 0.10574 0.90611 0.0
C422 C 0.38793 0.09333 0.91351 0.0
O423 O 0.27502 0.01519 0.93057 0.0
O424 O 0.29509 0.04099 0.95835 0.0
O425 O 0.22795 0.03311 0.89691 0.0
O426 O 0.25081 0.01731 0.86874 0.0
C427 C 0.22792 0.01938 0.87683 0.0
O428 O 0.33163 0.0282 0.89569 0.0
O429 O 0.29882 0.04317 0.87174 0.0
O430 O 0.34983 0.07697 0.95088 0.0
O431 O 0.32897 0.08599 0.91628 0.0
H432 H 0.35466 0.14357 0.93525 0.0
H433 H 0.42834 0.14165 0.90294 0.0
H434 H 0.38659 0.07312 0.9118 0.0
O435 O 0.438 0.25764 0.90583 0.0
Tb436 Tb 0.4749 0.27112 0.89475 0.0
Eu437 Eu 0.47267 0.32902 0.93235 0.0
C438 C 0.43622 0.24266 0.92536 0.0
O439 O 0.45516 0.24189 0.94113 0.0
C440 C 0.49813 0.27951 0.94683 0.0
O441 O 0.50199 0.35751 0.94366 0.0
C442 C 0.42816 0.34835 0.93478 0.0
C443 C 0.52476 0.35 0.94962 0.0
O444 O 0.52886 0.32588 0.95175 0.0
C445 C 0.4829 0.32386 0.87259 0.0
C446 C 0.41565 0.37149 0.92633 0.0
C447 C 0.38976 0.37463 0.93045 0.0
C448 C 0.37801 0.39718 0.92378 0.0
C449 C 0.39217 0.41643 0.91299 0.0
C450 C 0.418 0.41376 0.90887 0.0
C451 C 0.4297 0.39108 0.91549 0.0
O452 O 0.50324 0.27923 0.92281 0.0
O453 O 0.48029 0.2943 0.95492 0.0
O454 O 0.48563 0.23179 0.89236 0.0
O455 O 0.49249 0.255 0.86104 0.0
C456 C 0.49473 0.2324 0.86986 0.0
O457 O 0.49073 0.33268 0.89432 0.0
O458 O 0.46885 0.30361 0.87089 0.0
O459 O 0.44531 0.3514 0.95234 0.0
O460 O 0.43478 0.33222 0.91721 0.0
H461 H 0.37891 0.35982 0.93914 0.0
H462 H 0.38286 0.43371 0.90771 0.0
H463 H 0.44971 0.38886 0.91279 0.0
O464 O 0.61136 0.26316 0.07759 0.0
Tb465 Tb 0.62295 0.24987 0.04085 0.0
Eu466 Eu 0.58701 0.19367 0.04787 0.0
C467 C 0.5918 0.27808 0.07935 0.0
O468 O 0.57661 0.27973 0.05999 0.0
C469 C 0.57061 0.24039 0.01853 0.0
O470 O 0.57795 0.16348 0.01968 0.0
C471 C 0.58452 0.17623 0.09301 0.0
C472 C 0.56761 0.16918 0.998 0.0
O473 O 0.5578 0.1915 0.99519 0.0
C474 C 0.64674 0.19766 0.03758 0.0
C475 C 0.59442 0.154 0.10601 0.0
C476 C 0.59154 0.1517 0.13213 0.0
C477 C 0.60051 0.13034 0.14453 0.0
C478 C 0.61189 0.11117 0.13067 0.0
C479 C 0.6145 0.11294 0.10456 0.0
C480 C 0.60595 0.13461 0.09229 0.0
O481 O 0.5945 0.24156 0.01296 0.0
O482 O 0.56342 0.22712 0.03788 0.0
O483 O 0.62747 0.28962 0.0326 0.0
O484 O 0.65535 0.26445 0.01997 0.0
C485 C 0.64839 0.28778 0.02039 0.0
O486 O 0.62509 0.1881 0.03054 0.0
O487 O 0.64801 0.21913 0.04958 0.0
O488 O 0.5674 0.1716 0.07573 0.0
O489 O 0.60119 0.19324 0.0862 0.0
H490 H 0.58239 0.16641 0.14273 0.0
H491 H 0.61864 0.09462 0.14036 0.0
H492 H 0.60772 0.13618 0.0721 0.0
O493 O 0.60845 0.25897 0.439 0.0
Tb494 Tb 0.62092 0.26926 0.47657 0.0
Eu495 Eu 0.58604 0.32739 0.47523 0.0
C496 C 0.58976 0.24305 0.43613 0.0
O497 O 0.57511 0.23874 0.45536 0.0
C498 C 0.56459 0.27565 0.49399 0.0
O499 O 0.57539 0.35561 0.5049 0.0
C500 C 0.58734 0.34829 0.43134 0.0
C501 C 0.57201 0.34793 0.52811 0.0
O502 O 0.57134 0.32369 0.53233 0.0
C503 C 0.64423 0.3212 0.4889 0.0
C504 C 0.59682 0.37118 0.41908 0.0
C505 C 0.59361 0.37415 0.393 0.0
C506 C 0.60087 0.39655 0.38127 0.0
C507 C 0.61095 0.41603 0.39575 0.0
C508 C 0.61394 0.41353 0.42177 0.0
C509 C 0.60724 0.39086 0.43339 0.0
O510 O 0.5875 0.26877 0.50005 0.0
O511 O 0.56018 0.29444 0.47878 0.0
O512 O 0.6405 0.23378 0.47009 0.0
O513 O 0.63927 0.24829 0.50692 0.0
C514 C 0.64702 0.22972 0.4932 0.0
O515 O 0.6222 0.32852 0.49684 0.0
O516 O 0.64661 0.30108 0.47482 0.0
O517 O 0.56907 0.35174 0.44756 0.0
O518 O 0.60403 0.33158 0.43871 0.0
H519 H 0.58524 0.35924 0.38194 0.0
H520 H 0.61642 0.43338 0.38665 0.0
H521 H 0.60943 0.38882 0.45351 0.0
O522 O 0.26602 0.60542 0.44038 0.0
Tb523 Tb 0.25146 0.61725 0.47661 0.0
Eu524 Eu 0.19139 0.5833 0.47018 0.0
C525 C 0.28162 0.58634 0.43941 0.0
O526 O 0.28233 0.57098 0.45863 0.0
C527 C 0.23926 0.56522 0.49755 0.0
O528 O 0.16204 0.57643 0.49982 0.0
C529 C 0.17234 0.58044 0.42551 0.0
C530 C 0.16846 0.56907 0.52251 0.0
O531 O 0.19157 0.56161 0.52642 0.0
C532 C 0.19947 0.643 0.47723 0.0
C533 C 0.15112 0.59113 0.41124 0.0
C534 C 0.14946 0.58649 0.38526 0.0
C535 C 0.12913 0.59581 0.37138 0.0
C536 C 0.11037 0.60938 0.38358 0.0
C537 C 0.11118 0.6135 0.40952 0.0
C538 C 0.13194 0.6048 0.42335 0.0
O539 O 0.24065 0.589 0.50364 0.0
O540 O 0.22414 0.5583 0.47936 0.0
O541 O 0.29117 0.61979 0.48603 0.0
O542 O 0.26737 0.64919 0.49758 0.0
C543 C 0.29036 0.64106 0.49774 0.0
O544 O 0.18883 0.62242 0.48559 0.0
O545 O 0.2217 0.64309 0.46655 0.0
O546 O 0.1664 0.5649 0.44374 0.0
O547 O 0.19086 0.59586 0.43131 0.0
H548 H 0.16376 0.57551 0.37593 0.0
H549 H 0.09448 0.6162 0.37282 0.0
H550 H 0.1328 0.60795 0.44343 0.0
O551 O 0.90442 0.26083 0.44273 0.0
Tb552 Tb 0.90233 0.2509 0.48223 0.0
Eu553 Eu 0.92832 0.19098 0.46201 0.0
C554 C 0.92397 0.27396 0.43525 0.0
O555 O 0.94406 0.27391 0.44952 0.0
C556 C 0.95889 0.23637 0.49003 0.0
O557 O 0.92824 0.16559 0.49594 0.0
C558 C 0.93797 0.16508 0.42191 0.0
C559 C 0.92933 0.1745 0.51897 0.0
O560 O 0.93083 0.1988 0.52236 0.0
C561 C 0.87442 0.20048 0.48345 0.0
C562 C 0.92522 0.14558 0.40657 0.0
C563 C 0.92634 0.14699 0.38017 0.0
C564 C 0.91454 0.12868 0.36525 0.0
C565 C 0.9022 0.10866 0.37686 0.0
C566 C 0.90176 0.10622 0.40299 0.0
C567 C 0.91271 0.12512 0.41789 0.0
O568 O 0.93854 0.24637 0.49956 0.0
O569 O 0.95886 0.2193 0.47201 0.0
O570 O 0.9036 0.2873 0.50106 0.0
O571 O 0.86828 0.27015 0.49436 0.0
C572 C 0.8795 0.28964 0.50378 0.0
O573 O 0.8862 0.19368 0.46302 0.0
O574 O 0.88324 0.21861 0.49741 0.0
O575 O 0.94542 0.15846 0.44449 0.0
O576 O 0.92842 0.18782 0.42114 0.0
H577 H 0.93646 0.16219 0.37127 0.0
H578 H 0.89356 0.09424 0.36532 0.0
H579 H 0.91212 0.12348 0.43814 0.0
O580 O 0.26041 0.91874 0.44406 0.0
Tb581 Tb 0.27383 0.89889 0.47693 0.0
Eu582 Eu 0.33053 0.93391 0.47225 0.0
C583 C 0.24204 0.93489 0.44683 0.0
O584 O 0.23622 0.94209 0.46966 0.0
C585 C 0.2824 0.9515 0.49977 0.0
O586 O 0.36081 0.94349 0.50015 0.0
C587 C 0.34828 0.93564 0.42705 0.0
C588 C 0.35474 0.94973 0.52323 0.0
O589 O 0.3312 0.95489 0.52816 0.0
C590 C 0.32591 0.87457 0.48452 0.0
C591 C 0.37079 0.92614 0.4141 0.0
C592 C 0.37321 0.92895 0.38792 0.0
C593 C 0.39503 0.92069 0.37568 0.0
C594 C 0.41457 0.91031 0.38985 0.0
C595 C 0.41262 0.90779 0.41594 0.0
C596 C 0.39048 0.91529 0.42799 0.0
O597 O 0.2801 0.92763 0.50511 0.0
O598 O 0.29744 0.95842 0.48161 0.0
O599 O 0.24213 0.87303 0.47178 0.0
O600 O 0.24971 0.88733 0.508 0.0
C601 C 0.2348 0.8731 0.49502 0.0
O602 O 0.33586 0.89627 0.49075 0.0
O603 O 0.3048 0.87315 0.47185 0.0
O604 O 0.35255 0.95311 0.44405 0.0
O605 O 0.33161 0.91879 0.43422 0.0
H606 H 0.35823 0.93747 0.37714 0.0
H607 H 0.43147 0.90413 0.38046 0.0
H608 H 0.3888 0.91322 0.44815 0.0
O609 O 0.90894 0.25997 0.08353 0.0
Tb610 Tb 0.90088 0.27299 0.04569 0.0
Eu611 Eu 0.93435 0.3324 0.04764 0.0
C612 C 0.92973 0.24759 0.0883 0.0
O613 O 0.94871 0.25034 0.07294 0.0
C614 C 0.95639 0.28152 0.02798 0.0
O615 O 0.94577 0.35934 0.01723 0.0
C616 C 0.9342 0.35311 0.09168 0.0
C617 C 0.94812 0.35048 0.99428 0.0
O618 O 0.94557 0.32625 0.99081 0.0
C619 C 0.87599 0.32376 0.03607 0.0
C620 C 0.92334 0.37479 0.10487 0.0
C621 C 0.92566 0.37649 0.13113 0.0
C622 C 0.91645 0.39754 0.14391 0.0
C623 C 0.90524 0.41696 0.13031 0.0
C624 C 0.90326 0.41584 0.10406 0.0
C625 C 0.91212 0.39449 0.0914 0.0
O626 O 0.93354 0.27502 0.02141 0.0
O627 O 0.96079 0.30012 0.04346 0.0
O628 O 0.88998 0.23363 0.04345 0.0
O629 O 0.87308 0.2592 0.01836 0.0
C630 C 0.87419 0.23582 0.02505 0.0
O631 O 0.8971 0.33332 0.02784 0.0
O632 O 0.8759 0.30464 0.05155 0.0
O633 O 0.95083 0.3584 0.07424 0.0
O634 O 0.91871 0.33484 0.08533 0.0
H635 H 0.9348 0.36164 0.14154 0.0
H636 H 0.89836 0.43331 0.14027 0.0
H637 H 0.91102 0.3935 0.07111 0.0
O638 O 0.25924 0.91349 0.08061 0.0
Tb639 Tb 0.24732 0.89918 0.04421 0.0
Eu640 Eu 0.1894 0.93226 0.05162 0.0
C641 C 0.27547 0.93207 0.0817 0.0
O642 O 0.2797 0.94495 0.06122 0.0
C643 C 0.23782 0.95462 0.02583 0.0
O644 O 0.16026 0.94292 0.02289 0.0
C645 C 0.17198 0.93311 0.09706 0.0
C646 C 0.16711 0.9429 0.99918 0.0
O647 O 0.19078 0.9387 0.99389 0.0
C648 C 0.1948 0.87327 0.03874 0.0
C649 C 0.15185 0.92103 0.11175 0.0
C650 C 0.15083 0.92455 0.13801 0.0
C651 C 0.13181 0.91302 0.1522 0.0
C652 C 0.11378 0.8984 0.13988 0.0
C653 C 0.11416 0.89522 0.11384 0.0
C654 C 0.13324 0.90652 0.09969 0.0
O655 O 0.24475 0.93176 0.01982 0.0
O656 O 0.22073 0.95913 0.04293 0.0
O657 O 0.28352 0.8803 0.04873 0.0
O658 O 0.26729 0.88194 0.0126 0.0
C659 C 0.28659 0.87428 0.02533 0.0
O660 O 0.18415 0.89473 0.03333 0.0
O661 O 0.21737 0.87177 0.0486 0.0
O662 O 0.16458 0.94867 0.07938 0.0
O663 O 0.19083 0.91868 0.09014 0.0
H664 H 0.16467 0.93624 0.14731 0.0
H665 H 0.09861 0.89009 0.15061 0.0
H666 H 0.1336 0.90409 0.07951 0.0
O667 O 0.25148 0.60188 0.07784 0.0
Tb668 Tb 0.26796 0.622 0.04644 0.0
Eu669 Eu 0.32494 0.58399 0.05106 0.0
C670 C 0.23266 0.58658 0.07299 0.0
O671 O 0.22764 0.58132 0.04944 0.0
C672 C 0.27544 0.56863 0.02456 0.0
O673 O 0.35359 0.57486 0.02131 0.0
C674 C 0.34505 0.58071 0.09521 0.0
C675 C 0.34628 0.5689 0.99847 0.0
O676 O 0.32241 0.5644 0.99454 0.0
C677 C 0.32166 0.64342 0.04447 0.0
C678 C 0.36861 0.58927 0.10699 0.0
C679 C 0.37387 0.58301 0.13214 0.0
C680 C 0.39705 0.58964 0.14284 0.0
C681 C 0.41477 0.60246 0.12842 0.0
C682 C 0.40974 0.60901 0.10353 0.0
C683 C 0.38652 0.60258 0.09282 0.0
O684 O 0.27273 0.59242 0.01885 0.0
O685 O 0.28981 0.56193 0.04339 0.0
O686 O 0.23286 0.64242 0.05179 0.0
O687 O 0.25004 0.64348 0.01613 0.0
C688 C 0.23072 0.65077 0.02904 0.0
O689 O 0.3291 0.62229 0.03439 0.0
O690 O 0.3001 0.64516 0.05629 0.0
O691 O 0.34765 0.5634 0.07776 0.0
O692 O 0.32867 0.59824 0.08921 0.0
H693 H 0.36024 0.57274 0.14314 0.0
H694 H 0.43262 0.60768 0.13679 0.0
H695 H 0.38261 0.60743 0.07347 0.0
O696 O 0.94397 0.40355 0.75537 0.0
Tb697 Tb 0.98163 0.3936 0.76779 0.0
Eu698 Eu 0.97479 0.43215 0.82369 0.0
C699 C 0.941 0.42336 0.74093 0.0
O700 O 0.9596 0.4394 0.73925 0.0
C701 C 1.00072 0.44789 0.77428 0.0
O702 O 1.00535 0.44331 0.85104 0.0
C703 C 0.93066 0.4357 0.84379 0.0
C704 C 0.02853 0.44487 0.84266 0.0
O705 O 0.03217 0.44299 0.81843 0.0
C706 C 0.98677 0.3724 0.82198 0.0
C707 C 0.91817 0.42776 0.86715 0.0
C708 C 0.89253 0.43309 0.8709 0.0
C709 C 0.88099 0.42693 0.89377 0.0
C710 C 0.89513 0.41546 0.91264 0.0
C711 C 0.92056 0.40993 0.90921 0.0
C712 C 0.93206 0.41598 0.8863 0.0
O713 O 1.00786 0.42436 0.77322 0.0
O714 O 0.98173 0.4542 0.78851 0.0
O715 O 1.00375 0.36238 0.75212 0.0
O716 O 0.98669 0.38825 0.72753 0.0
C717 C 1.00059 0.3684 0.72868 0.0
O718 O 0.99301 0.39479 0.83013 0.0
O719 O 0.97591 0.36901 0.79998 0.0
O720 O 0.94832 0.45282 0.84655 0.0
O721 O 0.93668 0.41785 0.82771 0.0
H722 H 0.88175 0.44229 0.85633 0.0
H723 H 0.88605 0.41049 0.93015 0.0
H724 H 0.95179 0.41199 0.88354 0.0
O725 O 0.10522 0.94032 0.76027 0.0
Tb726 Tb 0.11496 0.9775 0.77414 0.0
Eu727 Eu 0.07774 0.97403 0.83131 0.0
C728 C 0.08581 0.93763 0.74515 0.0
O729 O 0.07013 0.95643 0.74295 0.0
C730 C 0.06081 0.99638 0.78022 0.0
O731 O 0.06881 1.00582 0.85772 0.0
C732 C 0.07473 0.93027 0.85213 0.0
C733 C 0.06663 0.02837 0.84802 0.0
O734 O 0.06539 0.03042 0.82353 0.0
C735 C 0.13772 0.98204 0.82742 0.0
C736 C 0.0851 0.91685 0.87399 0.0
C737 C 0.08267 0.89057 0.87539 0.0
C738 C 0.09217 0.87753 0.89621 0.0
C739 C 0.10348 0.89094 0.91578 0.0
C740 C 0.10559 0.91709 0.91494 0.0
C741 C 0.09683 0.93004 0.89374 0.0
O742 O 0.08435 1.00357 0.77991 0.0
O743 O 0.05345 0.9803 0.79726 0.0
O744 O 0.12165 0.98566 0.73462 0.0
O745 O 0.14701 1.00019 0.76155 0.0
C746 C 0.14164 0.99918 0.73778 0.0
O747 O 0.11628 0.99088 0.83563 0.0
O748 O 0.13918 0.96965 0.8061 0.0
O749 O 0.05913 0.94876 0.85714 0.0
O750 O 0.09052 0.93536 0.83379 0.0
H751 H 0.07351 0.88032 0.86036 0.0
H752 H 0.11061 0.88088 0.93197 0.0
H753 H 0.09872 0.95025 0.89283 0.0
O754 O 0.58348 0.10725 0.75821 0.0
Tb755 Tb 0.54626 0.11788 0.77093 0.0
Eu756 Eu 0.54932 0.08465 0.83138 0.0
C757 C 0.58685 0.08595 0.74624 0.0
O758 O 0.56926 0.0688 0.74774 0.0
C759 C 0.52528 0.06503 0.78205 0.0
O760 O 0.5197 0.0751 0.85996 0.0
C761 C 0.59434 0.0842 0.84981 0.0
C762 C 0.49657 0.0723 0.85168 0.0
O763 O 0.4927 0.07299 0.82738 0.0
C764 C 0.53658 0.1432 0.82283 0.0
C765 C 0.60775 0.09503 0.87144 0.0
C766 C 0.63392 0.09216 0.87364 0.0
C767 C 0.64662 0.10165 0.89475 0.0
C768 C 0.63294 0.1136 0.91371 0.0
C769 C 0.6068 0.11612 0.912 0.0
C770 C 0.5943 0.10707 0.89063 0.0
O771 O 0.51895 0.08853 0.77847 0.0
O772 O 0.5421 0.05905 0.79891 0.0
O773 O 0.53313 0.15322 0.7548 0.0
O774 O 0.53037 0.12034 0.73294 0.0
C775 C 0.52601 0.14423 0.73331 0.0
O776 O 0.53019 0.12203 0.83359 0.0
O777 O 0.55039 0.14373 0.80243 0.0
O778 O 0.57717 0.06729 0.85533 0.0
O779 O 0.58722 0.09999 0.83215 0.0
H780 H 0.6443 0.08246 0.85912 0.0
H781 H 0.6427 0.12061 0.93019 0.0
H782 H 0.57407 0.1087 0.88923 0.0
O783 O 0.41057 0.58208 0.75696 0.0
Tb784 Tb 0.3999 0.54557 0.77156 0.0
Eu785 Eu 0.4337 0.55147 0.83186 0.0
C786 C 0.43076 0.58387 0.74289 0.0
O787 O 0.44684 0.56527 0.74322 0.0
C788 C 0.45245 0.52604 0.78359 0.0
O789 O 0.44329 0.52239 0.86113 0.0
C790 C 0.43282 0.59637 0.85068 0.0
C791 C 0.45254 0.50054 0.85428 0.0
O792 O 0.45981 0.49768 0.83097 0.0
C793 C 0.37485 0.53931 0.823 0.0
C794 C 0.42149 0.6088 0.87269 0.0
C795 C 0.42252 0.63512 0.87522 0.0
C796 C 0.41234 0.64689 0.89657 0.0
C797 C 0.40199 0.63204 0.9156 0.0
C798 C 0.40117 0.60589 0.91347 0.0
C799 C 0.4105 0.59431 0.89179 0.0
O800 O 0.42884 0.51923 0.78239 0.0
O801 O 0.45887 0.54433 0.79876 0.0
O802 O 0.3993 0.5324 0.73283 0.0
O803 O 0.36715 0.52638 0.75512 0.0
C804 C 0.37691 0.52294 0.73304 0.0
O805 O 0.39608 0.53216 0.83334 0.0
O806 O 0.37435 0.55284 0.80242 0.0
O807 O 0.4505 0.5799 0.85575 0.0
O808 O 0.41724 0.58885 0.83291 0.0
H809 H 0.43117 0.64636 0.86069 0.0
H810 H 0.39472 0.64089 0.93242 0.0
H811 H 0.40977 0.57407 0.89007 0.0
O812 O 0.94638 0.11768 0.76165 0.0
Tb813 Tb 0.98492 0.1243 0.74975 0.0
Eu814 Eu 0.96428 0.09481 0.69113 0.0
C815 C 0.94201 0.09798 0.77589 0.0
O816 O 0.95952 0.0808 0.77747 0.0
C817 C 0.99556 0.069 0.73515 0.0
O818 O 0.99819 0.09051 0.66593 0.0
C819 C 0.92335 0.08311 0.66728 0.0
C820 C 0.02061 0.09719 0.67396 0.0
O821 O 0.02277 0.10659 0.69659 0.0
C822 C 0.98374 0.15167 0.69735 0.0
C823 C 0.90794 0.09453 0.64711 0.0
C824 C 0.88156 0.09195 0.64754 0.0
C825 C 0.86678 0.10235 0.62826 0.0
C826 C 0.8786 0.1148 0.60844 0.0
C827 C 0.9047 0.11701 0.60733 0.0
C828 C 0.91938 0.10739 0.62698 0.0
O829 O 1.00568 0.0905 0.74157 0.0
O830 O 0.97439 0.06763 0.72241 0.0
O831 O 0.99503 0.15774 0.77136 0.0
O832 O 1.00625 0.12212 0.78476 0.0
C833 C 1.00686 0.14607 0.78915 0.0
O834 O 0.96567 0.13699 0.68921 0.0
O835 O 0.99586 0.14764 0.7184 0.0
O836 O 0.94566 0.0749 0.66075 0.0
O837 O 0.92333 0.09461 0.68916 0.0
H838 H 0.87263 0.08179 0.66268 0.0
H839 H 0.86737 0.12224 0.59318 0.0
H840 H 0.93961 0.10933 0.62623 0.0
O841 O 0.42255 0.94301 0.76425 0.0
Tb842 Tb 0.40048 0.97387 0.74949 0.0
Eu843 Eu 0.43527 0.96889 0.69171 0.0
C844 C 0.41149 0.92249 0.77231 0.0
O845 O 0.38845 0.91788 0.7648 0.0
C846 C 0.45451 0.99427 0.74123 0.0
O847 O 0.44434 0.99923 0.66385 0.0
C848 C 0.43829 0.92449 0.67226 0.0
C849 C 0.44084 0.02253 0.6712 0.0
O850 O 0.4345 0.02665 0.69464 0.0
C851 C 0.37624 0.97933 0.69777 0.0
C852 C 0.42863 0.91116 0.65002 0.0
C853 C 0.43111 0.88495 0.64827 0.0
C854 C 0.42249 0.8722 0.62683 0.0
C855 C 0.41188 0.88586 0.60707 0.0
C856 C 0.40998 0.91205 0.60823 0.0
C857 C 0.41791 0.92461 0.63001 0.0
O858 O 0.43121 1.00053 0.74624 0.0
O859 O 0.45993 0.97665 0.72496 0.0
O860 O 0.38021 0.96832 0.78464 0.0
O861 O 0.37955 1.00421 0.76784 0.0
C862 C 0.37202 0.99109 0.78693 0.0
O863 O 0.39737 0.98644 0.68754 0.0
O864 O 0.37593 0.96527 0.71794 0.0
O865 O 0.45458 0.94251 0.66765 0.0
O866 O 0.42174 0.93038 0.68969 0.0
H867 H 0.43974 0.87454 0.66344 0.0
H868 H 0.4053 0.87599 0.59049 0.0
H869 H 0.41632 0.94484 0.63117 0.0
O870 O 0.57699 0.4211 0.76864 0.0
Tb871 Tb 0.54595 0.40194 0.75011 0.0
Eu872 Eu 0.55105 0.43844 0.69314 0.0
C873 C 0.57173 0.43566 0.78789 0.0
O874 O 0.54812 0.44135 0.79191 0.0
C875 C 0.52447 0.45543 0.74234 0.0
O876 O 0.52164 0.44733 0.6641 0.0
C877 C 0.59555 0.44071 0.67394 0.0
C878 C 0.4986 0.45274 0.67099 0.0
O879 O 0.49422 0.45733 0.69477 0.0
C880 C 0.54413 0.37906 0.6973 0.0
C881 C 0.60789 0.42987 0.65168 0.0
C882 C 0.63398 0.43259 0.64853 0.0
C883 C 0.64583 0.42269 0.62717 0.0
C884 C 0.63133 0.41061 0.60879 0.0
C885 C 0.60532 0.40806 0.61149 0.0
C886 C 0.59364 0.41734 0.63318 0.0
O887 O 0.5187 0.43165 0.74501 0.0
O888 O 0.54261 0.46216 0.72713 0.0
O889 O 0.54906 0.38043 0.7848 0.0
O890 O 0.51437 0.38044 0.76548 0.0
C891 C 0.52612 0.37225 0.7852 0.0
O892 O 0.53482 0.39988 0.68819 0.0
O893 O 0.5568 0.37879 0.71846 0.0
O894 O 0.57794 0.45738 0.66925 0.0
O895 O 0.58952 0.42484 0.69191 0.0
H896 H 0.64501 0.44228 0.66265 0.0
H897 H 0.64036 0.40328 0.59209 0.0
H898 H 0.57354 0.41525 0.63544 0.0
O899 O 0.11141 0.5795 0.76253 0.0
Tb900 Tb 0.12221 0.54334 0.74704 0.0
Eu901 Eu 0.0869 0.55217 0.68915 0.0
C902 C 0.09188 0.58061 0.77758 0.0
O903 O 0.07591 0.56184 0.7773 0.0
C904 C 0.07001 0.52265 0.73539 0.0
O905 O 0.07764 0.5246 0.65829 0.0
C906 C 0.08708 0.59779 0.67257 0.0
C907 C 0.0669 0.50301 0.66362 0.0
O908 O 0.05721 0.5 0.686 0.0
C909 C 0.1462 0.54018 0.69428 0.0
C910 C 0.09794 0.61062 0.65058 0.0
C911 C 0.09694 0.63696 0.64863 0.0
C912 C 0.1065 0.64907 0.6272 0.0
C913 C 0.11652 0.63455 0.60773 0.0
C914 C 0.11706 0.60835 0.60913 0.0
C915 C 0.10826 0.59643 0.63085 0.0
O916 O 0.09381 0.51658 0.73551 0.0
O917 O 0.06285 0.5421 0.72224 0.0
O918 O 0.12209 0.52926 0.78538 0.0
O919 O 0.15498 0.5247 0.76384 0.0
C920 C 0.14472 0.52052 0.78556 0.0
O921 O 0.1244 0.53345 0.68487 0.0
O922 O 0.14814 0.55081 0.7165 0.0
O923 O 0.06908 0.58156 0.66748 0.0
O924 O 0.10313 0.5897 0.68961 0.0
H925 H 0.08865 0.64794 0.66358 0.0
H926 H 0.12347 0.64373 0.59097 0.0
H927 H 0.10875 0.57615 0.63208 0.0
O928 O 0.75705 0.94141 0.40213 0.0
Tb929 Tb 0.76802 0.98078 0.39995 0.0
Eu930 Eu 0.82649 0.96148 0.42903 0.0
C931 C 0.74551 0.93322 0.42239 0.0
O932 O 0.74777 0.94634 0.44308 0.0
C933 C 0.77896 0.98893 0.45746 0.0
O934 O 0.85251 0.99494 0.42661 0.0
C935 C 0.85172 0.92149 0.44027 0.0
C936 C 0.8462 0.01762 0.43403 0.0
O937 O 0.82433 0.02103 0.44472 0.0
C938 C 0.81962 0.98268 0.3752 0.0
C939 C 0.8719 0.90639 0.42853 0.0
C940 C 0.87109 0.88 0.43014 0.0
C941 C 0.88993 0.86542 0.4189 0.0
C942 C 0.90984 0.87736 0.40671 0.0
C943 C 0.91169 0.90351 0.40589 0.0
C944 C 0.89228 0.91803 0.4162 0.0
O945 O 0.76954 0.99779 0.4365 0.0
O946 O 0.79743 0.97239 0.45852 0.0
O947 O 0.75038 0.99115 0.36443 0.0
O948 O 0.7329 1.00169 0.39858 0.0
C949 C 0.73139 1.00275 0.37426 0.0
O950 O 0.82481 0.96171 0.38677 0.0
O951 O 0.8014 0.99669 0.38349 0.0
O952 O 0.85794 0.94406 0.44816 0.0
O953 O 0.82955 0.92067 0.42932 0.0
H954 H 0.85591 0.87086 0.44009 0.0
H955 H 0.92453 0.86606 0.39835 0.0
H956 H 0.89337 0.93829 0.41518 0.0
O957 O 0.57639 0.75718 0.41395 0.0
Tb958 Tb 0.54425 0.77384 0.39506 0.0
Eu959 Eu 0.54933 0.82913 0.433 0.0
C960 C 0.57215 0.73797 0.42885 0.0
O961 O 0.54882 0.73288 0.43485 0.0
C962 C 0.52259 0.78023 0.44905 0.0
O963 O 0.52101 0.85875 0.44361 0.0
C964 C 0.59465 0.84684 0.43268 0.0
C965 C 0.49828 0.85187 0.45039 0.0
O966 O 0.49417 0.82808 0.45497 0.0
C967 C 0.53784 0.82674 0.37389 0.0
C968 C 0.60762 0.86898 0.42229 0.0
C969 C 0.634 0.87074 0.42362 0.0
C970 C 0.64645 0.89213 0.41444 0.0
C971 C 0.63223 0.91181 0.40445 0.0
C972 C 0.606 0.91052 0.40338 0.0
C973 C 0.59371 0.88886 0.41188 0.0
O974 O 0.51716 0.77772 0.42514 0.0
O975 O 0.5411 0.79487 0.45617 0.0
O976 O 0.54829 0.7397 0.37264 0.0
O977 O 0.51226 0.7557 0.37648 0.0
C978 C 0.52474 0.73717 0.36688 0.0
O979 O 0.52971 0.83375 0.39601 0.0
O980 O 0.5513 0.80628 0.3714 0.0
O981 O 0.57845 0.85147 0.45075 0.0
O982 O 0.58662 0.83 0.41634 0.0
H983 H 0.64476 0.85558 0.43178 0.0
H984 H 0.64167 0.92851 0.3977 0.0
H985 H 0.57343 0.8877 0.41092 0.0
O986 O 0.763 0.57687 0.42039 0.0
Tb987 Tb 0.74614 0.54576 0.39988 0.0
Eu988 Eu 0.69079 0.55073 0.43767 0.0
C989 C 0.78176 0.57176 0.43567 0.0
O990 O 0.78642 0.54816 0.44075 0.0
C991 C 0.73898 0.5224 0.45258 0.0
O992 O 0.66105 0.52221 0.44743 0.0
C993 C 0.67309 0.59579 0.44032 0.0
C994 C 0.66706 0.50055 0.45756 0.0
O995 O 0.68993 0.49747 0.46609 0.0
C996 C 0.69289 0.54298 0.37797 0.0
C997 C 0.65037 0.60823 0.43073 0.0
C998 C 0.64592 0.63371 0.43611 0.0
C999 C 0.62351 0.64505 0.42818 0.0
C1000 C 0.60567 0.63085 0.41507 0.0
C1001 C 0.60996 0.60561 0.40939 0.0
C1002 C 0.63244 0.59433 0.41707 0.0
O1003 O 0.74137 0.5174 0.4286 0.0
O1004 O 0.72531 0.54138 0.46003 0.0
O1005 O 0.7813 0.55094 0.37958 0.0
O1006 O 0.76371 0.51541 0.37837 0.0
C1007 C 0.78318 0.52818 0.37123 0.0
O1008 O 0.68512 0.53384 0.39944 0.0
O1009 O 0.71423 0.55523 0.37634 0.0
O1010 O 0.66909 0.57867 0.45765 0.0
O1011 O 0.68973 0.58891 0.42336 0.0
H1012 H 0.65962 0.64453 0.44661 0.0
H1013 H 0.5884 0.63967 0.4089 0.0
H1014 H 0.63579 0.57474 0.41283 0.0
O1015 O 0.94065 0.75725 0.40721 0.0
Tb1016 Tb 0.98044 0.75101 0.40035 0.0
Eu1017 Eu 0.96803 0.69122 0.43093 0.0
C1018 C 0.93373 0.76977 0.42737 0.0
O1019 O 0.94943 0.77088 0.44632 0.0
C1020 C 0.99374 0.74071 0.4565 0.0
O1021 O 1.00176 0.66556 0.43136 0.0
C1022 C 0.92874 0.66613 0.445 0.0
C1023 C 0.02468 0.67326 0.43658 0.0
O1024 O 0.02833 0.69683 0.44267 0.0
C1025 C 0.98616 0.69904 0.37419 0.0
C1026 C 0.91508 0.64353 0.43647 0.0
C1027 C 0.88934 0.64074 0.44178 0.0
C1028 C 0.87669 0.6187 0.43473 0.0
C1029 C 0.8898 0.59955 0.42254 0.0
C1030 C 0.91531 0.60208 0.41687 0.0
C1031 C 0.92788 0.62422 0.42375 0.0
O1032 O 1.00124 0.74974 0.43493 0.0
O1033 O 0.97747 0.7222 0.45865 0.0
O1034 O 0.98293 0.77299 0.3659 0.0
O1035 O 0.99999 0.78714 0.39895 0.0
C1036 C 0.9959 0.7914 0.3753 0.0
O1037 O 0.96882 0.6891 0.38857 0.0
O1038 O 0.99712 0.72028 0.37986 0.0
O1039 O 0.95138 0.66225 0.45401 0.0
O1040 O 0.92734 0.68608 0.43055 0.0
H1041 H 0.87932 0.65544 0.45158 0.0
H1042 H 0.87989 0.58259 0.41718 0.0
H1043 H 0.94769 0.62625 0.41963 0.0
O1044 O 0.7544 0.5797 0.11285 0.0
Tb1045 Tb 0.7701 0.54368 0.12342 0.0
Eu1046 Eu 0.82731 0.55289 0.0868 0.0
C1047 C 0.73936 0.58088 0.09327 0.0
O1048 O 0.73912 0.56194 0.07751 0.0
C1049 C 0.78104 0.52296 0.07112 0.0
O1050 O 0.85751 0.52482 0.07749 0.0
C1051 C 0.8445 0.59819 0.08473 0.0
C1052 C 0.85205 0.50356 0.06615 0.0
O1053 O 0.83008 0.50118 0.05532 0.0
C1054 C 0.8235 0.54073 0.14649 0.0
C1055 C 0.86698 0.61111 0.09439 0.0
C1056 C 0.86963 0.63719 0.0914 0.0
C1057 C 0.89137 0.6494 0.10006 0.0
C1058 C 0.91055 0.63531 0.11117 0.0
C1059 C 0.90848 0.60924 0.11364 0.0
C1060 C 0.88639 0.59724 0.10568 0.0
O1061 O 0.78137 0.51698 0.09495 0.0
O1062 O 0.79342 0.54283 0.06381 0.0
O1063 O 0.75384 0.52652 0.15718 0.0
O1064 O 0.73273 0.52703 0.12359 0.0
C1065 C 0.73269 0.51999 0.14684 0.0
O1066 O 0.83318 0.53502 0.12456 0.0
O1067 O 0.80125 0.55111 0.14869 0.0
O1068 O 0.84875 0.58126 0.06721 0.0
O1069 O 0.82796 0.59092 0.10164 0.0
H1070 H 0.85491 0.64791 0.08237 0.0
H1071 H 0.92742 0.64473 0.11767 0.0
H1072 H 0.88455 0.5771 0.1077 0.0
O1073 O 0.94183 0.75913 0.11077 0.0
Tb1074 Tb 0.9806 0.7681 0.11962 0.0
Eu1075 Eu 0.96632 0.82765 0.08915 0.0
C1076 C 0.93752 0.74521 0.09078 0.0
O1077 O 0.95532 0.74354 0.07389 0.0
C1078 C 0.99768 0.78251 0.06598 0.0
O1079 O 1.0024 0.85004 0.08617 0.0
C1080 C 0.92764 0.85318 0.0743 0.0
C1081 C 0.02306 0.84053 0.09573 0.0
O1082 O 0.02158 0.81889 0.10719 0.0
C1083 C 0.98004 0.82009 0.14785 0.0
C1084 C 0.91181 0.87328 0.0852 0.0
C1085 C 0.88564 0.87319 0.081 0.0
C1086 C 0.87053 0.89211 0.09142 0.0
C1087 C 0.88172 0.91128 0.10545 0.0
C1088 C 0.90768 0.91225 0.10909 0.0
C1089 C 0.92268 0.89286 0.0995 0.0
O1090 O 1.00498 0.77503 0.08822 0.0
O1091 O 0.97719 0.79592 0.06273 0.0
O1092 O 0.98842 0.74792 0.15436 0.0
O1093 O 0.99826 0.73107 0.11971 0.0
C1094 C 0.99855 0.72843 0.14395 0.0
O1095 O 0.96472 0.8303 0.13145 0.0
O1096 O 0.99145 0.79875 0.14379 0.0
O1097 O 0.95089 0.8593 0.06874 0.0
O1098 O 0.92571 0.83085 0.08463 0.0
H1099 H 0.8771 0.85855 0.06973 0.0
H1100 H 0.87006 0.92607 0.11314 0.0
H1101 H 0.94277 0.89337 0.10264 0.0
O1102 O 0.76145 0.93923 0.10588 0.0
Tb1103 Tb 0.74946 0.97617 0.11847 0.0
Eu1104 Eu 0.69102 0.97505 0.08305 0.0
C1105 C 0.77536 0.93744 0.08556 0.0
O1106 O 0.77678 0.95701 0.07075 0.0
C1107 C 0.74059 0.99979 0.06662 0.0
O1108 O 0.66231 1.00469 0.0738 0.0
C1109 C 0.6719 0.93039 0.08185 0.0
C1110 C 0.6699 0.02742 0.06787 0.0
O1111 O 0.69385 0.03104 0.06359 0.0
C1112 C 0.69716 0.98567 0.14239 0.0
C1113 C 0.64978 0.91719 0.09191 0.0
C1114 C 0.64761 0.89105 0.08877 0.0
C1115 C 0.62634 0.87832 0.09768 0.0
C1116 C 0.6071 0.89195 0.10915 0.0
C1117 C 0.60876 0.91798 0.112 0.0
C1118 C 0.63035 0.9306 0.10376 0.0
O1119 O 0.74234 1.00507 0.09064 0.0
O1120 O 0.72488 0.98237 0.05918 0.0
O1121 O 0.78851 0.98872 0.12135 0.0
O1122 O 0.766 0.98937 0.15386 0.0
C1123 C 0.78819 0.99413 0.14507 0.0
O1124 O 0.68816 0.99354 0.12085 0.0
O1125 O 0.71747 0.97172 0.14356 0.0
O1126 O 0.66722 0.94755 0.06472 0.0
O1127 O 0.68923 0.93721 0.09824 0.0
H1128 H 0.66236 0.88067 0.07944 0.0
H1129 H 0.59054 0.88218 0.11575 0.0
H1130 H 0.63183 0.95073 0.10611 0.0
O1131 O 0.58207 0.76522 0.10912 0.0
Tb1132 Tb 0.54554 0.7506 0.12031 0.0
Eu1133 Eu 0.54643 0.69067 0.08748 0.0
C1134 C 0.58356 0.78058 0.08984 0.0
O1135 O 0.56439 0.78189 0.07444 0.0
C1136 C 0.52799 0.74162 0.06456 0.0
O1137 O 0.51544 0.66387 0.07688 0.0
C1138 C 0.58981 0.66881 0.08707 0.0
C1139 C 0.49225 0.67224 0.07582 0.0
O1140 O 0.48851 0.69643 0.07848 0.0
C1141 C 0.53698 0.69992 0.14576 0.0
C1142 C 0.60261 0.64645 0.09689 0.0
C1143 C 0.62874 0.64427 0.09392 0.0
C1144 C 0.64116 0.62248 0.10174 0.0
C1145 C 0.6273 0.60278 0.11213 0.0
C1146 C 0.60118 0.60442 0.11466 0.0
C1147 C 0.58888 0.62655 0.10747 0.0
O1148 O 0.52162 0.74923 0.08713 0.0
O1149 O 0.54368 0.7231 0.06105 0.0
O1150 O 0.5469 0.78854 0.13523 0.0
O1151 O 0.51583 0.76583 0.14468 0.0
C1152 C 0.52581 0.78793 0.14724 0.0
O1153 O 0.52734 0.69078 0.12504 0.0
O1154 O 0.55248 0.71908 0.1453 0.0
O1155 O 0.57219 0.66453 0.07025 0.0
O1156 O 0.584 0.68658 0.10327 0.0
H1157 H 0.63934 0.65932 0.08531 0.0
H1158 H 0.63692 0.58586 0.11797 0.0
H1159 H 0.56869 0.62798 0.10937 0.0
O1160 O 0.40055 0.75771 0.94789 0.0
Tb1161 Tb 0.39896 0.76863 0.98734 0.0
Eu1162 Eu 0.42854 0.82606 0.96745 0.0
C1163 C 0.42022 0.74519 0.93972 0.0
O1164 O 0.44108 0.74671 0.9527 0.0
C1165 C 0.45612 0.77922 0.99521 0.0
O1166 O 0.42875 0.85179 1.00122 0.0
C1167 C 0.44209 0.85121 0.92814 0.0
C1168 C 0.43366 0.84365 0.02402 0.0
O1169 O 0.43855 0.81984 0.02736 0.0
C1170 C 0.37381 0.82041 0.98839 0.0
C1171 C 0.43294 0.87329 0.91423 0.0
C1172 C 0.4356 0.87436 0.88799 0.0
C1173 C 0.42787 0.89575 0.87477 0.0
C1174 C 0.41732 0.9159 0.88791 0.0
C1175 C 0.41378 0.91487 0.91394 0.0
C1176 C 0.42177 0.8935 0.92706 0.0
O1177 O 0.43517 0.77095 1.005 0.0
O1178 O 0.45706 0.79592 0.97704 0.0
O1179 O 0.36449 0.74994 0.99945 0.0
O1180 O 0.39961 0.73293 1.00707 0.0
C1181 C 0.3755 0.73074 1.00955 0.0
O1182 O 0.38607 0.82635 0.96793 0.0
O1183 O 0.38162 0.80201 1.00252 0.0
O1184 O 0.45084 0.85562 0.95082 0.0
O1185 O 0.42837 0.8307 0.92672 0.0
H1186 H 0.44381 0.85874 0.87793 0.0
H1187 H 0.41085 0.93211 0.87754 0.0
H1188 H 0.41943 0.89266 0.94723 0.0
O1189 O 0.40996 0.75971 0.58237 0.0
Tb1190 Tb 0.39949 0.7471 0.54494 0.0
Eu1191 Eu 0.43741 0.6911 0.54843 0.0
C1192 C 0.42995 0.77401 0.5851 0.0
O1193 O 0.44641 0.77453 0.56683 0.0
C1194 C 0.452 0.74001 0.52205 0.0
O1195 O 0.44776 0.66239 0.51914 0.0
C1196 C 0.43917 0.67207 0.59307 0.0
C1197 C 0.45434 0.66978 0.49653 0.0
O1198 O 0.45878 0.69366 0.4929 0.0
C1199 C 0.37768 0.69377 0.53759 0.0
C1200 C 0.42966 0.64951 0.60596 0.0
C1201 C 0.43304 0.64709 0.63205 0.0
C1202 C 0.4246 0.62551 0.6445 0.0
C1203 C 0.41327 0.6062 0.63071 0.0
C1204 C 0.41001 0.60811 0.60469 0.0
C1205 C 0.41798 0.63001 0.59234 0.0
O1206 O 0.42795 0.74003 0.51686 0.0
O1207 O 0.46019 0.72564 0.5402 0.0
O1208 O 0.39656 0.78694 0.53616 0.0
O1209 O 0.36647 0.76308 0.52613 0.0
C1210 C 0.37467 0.78604 0.52557 0.0
O1211 O 0.39979 0.68624 0.52984 0.0
O1212 O 0.37493 0.71487 0.55014 0.0
O1213 O 0.45653 0.66812 0.57596 0.0
O1214 O 0.42234 0.6889 0.58633 0.0
H1215 H 0.44214 0.66193 0.64262 0.0
H1216 H 0.40689 0.58948 0.64038 0.0
H1217 H 0.4155 0.63171 0.57222 0.0
O1218 O 0.75902 0.4094 0.58317 0.0
Tb1219 Tb 0.77205 0.39804 0.54618 0.0
Eu1220 Eu 0.82832 0.4356 0.55007 0.0
C1221 C 0.74443 0.42922 0.58512 0.0
O1222 O 0.74397 0.44519 0.56643 0.0
C1223 C 0.7795 0.45047 0.52358 0.0
O1224 O 0.85727 0.4451 0.52076 0.0
C1225 C 0.84686 0.43618 0.59498 0.0
C1226 C 0.85011 0.45313 0.49851 0.0
O1227 O 0.82676 0.46023 0.49554 0.0
C1228 C 0.82541 0.37623 0.54087 0.0
C1229 C 0.86899 0.42508 0.60728 0.0
C1230 C 0.8724 0.42766 0.63337 0.0
C1231 C 0.89368 0.41739 0.64508 0.0
C1232 C 0.91168 0.40509 0.63045 0.0
C1233 C 0.90867 0.40269 0.60447 0.0
C1234 C 0.88713 0.41239 0.59291 0.0
O1235 O 0.77935 0.4265 0.51813 0.0
O1236 O 0.79406 0.4585 0.54174 0.0
O1237 O 0.73203 0.39471 0.53877 0.0
O1238 O 0.75562 0.36527 0.52691 0.0
C1239 C 0.73256 0.37316 0.5276 0.0
O1240 O 0.83257 0.39793 0.53183 0.0
O1241 O 0.80404 0.3737 0.55295 0.0
O1242 O 0.85169 0.45365 0.57818 0.0
O1243 O 0.82918 0.42031 0.58788 0.0
H1244 H 0.85859 0.43755 0.6445 0.0
H1245 H 0.92837 0.39753 0.63933 0.0
H1246 H 0.88469 0.41047 0.57279 0.0
O1247 O 0.11802 0.75752 0.57328 0.0
Tb1248 Tb 0.12143 0.76787 0.53383 0.0
Eu1249 Eu 0.09292 0.82511 0.55447 0.0
C1250 C 0.09821 0.74448 0.58035 0.0
O1251 O 0.0789 0.74348 0.5651 0.0
C1252 C 0.06431 0.77893 0.52586 0.0
O1253 O 0.09152 0.8524 0.52208 0.0
C1254 C 0.08131 0.84794 0.59583 0.0
C1255 C 0.08917 0.84503 0.49859 0.0
O1256 O 0.08683 0.82102 0.49375 0.0
C1257 C 0.14698 0.81948 0.53176 0.0
C1258 C 0.09269 0.86814 0.61098 0.0
C1259 C 0.08725 0.87016 0.63678 0.0
C1260 C 0.09842 0.88923 0.65126 0.0
C1261 C 0.1147 0.90626 0.63972 0.0
C1262 C 0.11984 0.90474 0.61406 0.0
C1263 C 0.10896 0.88562 0.59967 0.0
O1264 O 0.08506 0.76971 0.51645 0.0
O1265 O 0.06365 0.79606 0.54372 0.0
O1266 O 0.15676 0.74933 0.52473 0.0
O1267 O 0.12256 0.73289 0.51253 0.0
C1268 C 0.14684 0.73074 0.51245 0.0
O1269 O 0.13525 0.82556 0.55247 0.0
O1270 O 0.13858 0.80101 0.51798 0.0
O1271 O 0.07275 0.85468 0.57369 0.0
O1272 O 0.0935 0.8265 0.59538 0.0
H1273 H 0.07446 0.85701 0.64551 0.0
H1274 H 0.12299 0.92132 0.65069 0.0
H1275 H 0.11321 0.88429 0.57983 0.0
O1276 O 0.75867 0.11028 0.57613 0.0
Tb1277 Tb 0.75095 0.11589 0.53628 0.0
Eu1278 Eu 0.69254 0.08872 0.55256 0.0
C1279 C 0.7719 0.09057 0.58305 0.0
O1280 O 0.77424 0.07208 0.56702 0.0
C1281 C 0.74028 0.05869 0.52706 0.0
O1282 O 0.66873 0.08806 0.5174 0.0
C1283 C 0.66614 0.07666 0.59157 0.0
C1284 C 0.67885 0.08557 0.49502 0.0
O1285 O 0.70326 0.08319 0.49326 0.0
C1286 C 0.70021 0.14244 0.53114 0.0
C1287 C 0.64636 0.08759 0.60767 0.0
C1288 C 0.64683 0.0828 0.63367 0.0
C1289 C 0.62792 0.09236 0.64921 0.0
C1290 C 0.60832 0.10621 0.63872 0.0
C1291 C 0.60716 0.11074 0.61293 0.0
C1292 C 0.62652 0.10186 0.59739 0.0
O1293 O 0.75156 0.07923 0.51952 0.0
O1294 O 0.72092 0.05836 0.54255 0.0
O1295 O 0.77228 0.15075 0.53483 0.0
O1296 O 0.78546 0.11932 0.51437 0.0
C1297 C 0.78976 0.14266 0.51997 0.0
O1298 O 0.69331 0.13105 0.55173 0.0
O1299 O 0.71919 0.13384 0.51833 0.0
O1300 O 0.65967 0.0708 0.56846 0.0
O1301 O 0.68872 0.08661 0.59329 0.0
H1302 H 0.66174 0.0716 0.64175 0.0
H1303 H 0.59357 0.11329 0.65081 0.0
H1304 H 0.62578 0.10552 0.57741 0.0
O1305 O 0.10864 0.76474 0.93866 0.0
Tb1306 Tb 0.11924 0.74901 0.97483 0.0
Eu1307 Eu 0.08216 0.68873 0.97222 0.0
C1308 C 0.08859 0.77908 0.9373 0.0
O1309 O 0.07286 0.7789 0.95621 0.0
C1310 C 0.06635 0.73927 0.99459 0.0
O1311 O 0.07201 0.66094 1.00245 0.0
C1312 C 0.08137 0.66886 0.9278 0.0
C1313 C 0.06918 0.66931 0.02554 0.0
O1314 O 0.06913 0.69364 0.02915 0.0
C1315 C 0.14147 0.69654 0.98572 0.0
C1316 C 0.09123 0.64647 0.91498 0.0
C1317 C 0.08816 0.64384 0.88883 0.0
C1318 C 0.09676 0.62219 0.87657 0.0
C1319 C 0.10787 0.60303 0.89061 0.0
C1320 C 0.11083 0.60528 0.91664 0.0
C1321 C 0.10285 0.62722 0.92878 0.0
O1322 O 0.09007 0.73836 1.00105 0.0
O1323 O 0.05811 0.7227 0.97841 0.0
O1324 O 0.1538 0.76652 0.98919 0.0
O1325 O 0.11919 0.78497 0.99432 0.0
C1326 C 0.14308 0.78629 0.99854 0.0
O1327 O 0.11971 0.68652 0.99165 0.0
O1328 O 0.14333 0.71626 0.971 0.0
O1329 O 0.06403 0.66461 0.94487 0.0
O1330 O 0.0979 0.68604 0.93462 0.0
H1331 H 0.07915 0.65855 0.8781 0.0
H1332 H 0.11441 0.58625 0.88114 0.0
H1333 H 0.10524 0.62912 0.9489 0.0
O1334 O 0.75967 0.11318 0.9391 0.0
Tb1335 Tb 0.77358 0.12451 0.97586 0.0
Eu1336 Eu 0.8306 0.08928 0.96793 0.0
C1337 C 0.74471 0.09356 0.93741 0.0
O1338 O 0.74391 0.07797 0.95641 0.0
C1339 C 0.78302 0.07136 0.9962 0.0
O1340 O 0.86084 0.08055 0.99634 0.0
C1341 C 0.84825 0.08768 0.92266 0.0
C1342 C 0.85439 0.07297 0.01891 0.0
O1343 O 0.83097 0.06655 0.02274 0.0
C1344 C 0.8257 0.14873 0.9801 0.0
C1345 C 0.87075 0.09747 0.90986 0.0
C1346 C 0.8732 0.09541 0.88356 0.0
C1347 C 0.8951 0.10407 0.87162 0.0
C1348 C 0.9146 0.11406 0.8862 0.0
C1349 C 0.91258 0.11579 0.91233 0.0
C1350 C 0.89043 0.10795 0.92409 0.0
O1351 O 0.7812 0.09498 1.00269 0.0
O1352 O 0.79723 0.06498 0.97717 0.0
O1353 O 0.73348 0.13042 0.98109 0.0
O1354 O 0.75877 0.15466 0.99978 0.0
C1355 C 0.73522 0.14936 0.99622 0.0
O1356 O 0.83547 0.127 0.98632 0.0
O1357 O 0.80424 0.15015 0.96798 0.0
O1358 O 0.85259 0.07022 0.93958 0.0
O1359 O 0.83154 0.1044 0.92995 0.0
H1360 H 0.85823 0.08713 0.87251 0.0
H1361 H 0.93166 0.12043 0.87712 0.0
H1362 H 0.88873 0.10948 0.94431 0.0
O1363 O 0.76837 0.41479 0.94097 0.0
Tb1364 Tb 0.7511 0.39689 0.9734 0.0
Eu1365 Eu 0.69462 0.43545 0.97409 0.0
C1366 C 0.78765 0.42983 0.94477 0.0
O1367 O 0.7925 0.43701 0.96787 0.0
C1368 C 0.74589 0.45016 0.99755 0.0
O1369 O 0.66925 0.44483 1.00667 0.0
C1370 C 0.67215 0.44118 0.93129 0.0
C1371 C 0.67847 0.44351 0.02959 0.0
O1372 O 0.70262 0.43957 0.03223 0.0
C1373 C 0.69801 0.37548 0.97931 0.0
C1374 C 0.64861 0.43309 0.9191 0.0
C1375 C 0.64414 0.43926 0.89378 0.0
C1376 C 0.62118 0.43295 0.88245 0.0
C1377 C 0.60291 0.42038 0.89643 0.0
C1378 C 0.60712 0.41381 0.92152 0.0
C1379 C 0.63013 0.42015 0.93285 0.0
O1380 O 0.7496 0.42621 1.00159 0.0
O1381 O 0.73008 0.45751 0.98019 0.0
O1382 O 0.7853 0.3748 0.96907 0.0
O1383 O 0.76673 0.37438 1.00405 0.0
C1384 C 0.78607 0.36617 0.99181 0.0
O1385 O 0.69024 0.39653 0.98938 0.0
O1386 O 0.71787 0.37482 0.96476 0.0
O1387 O 0.6696 0.45685 0.95024 0.0
O1388 O 0.68918 0.42372 0.93526 0.0
H1389 H 0.65826 0.4492 0.88309 0.0
H1390 H 0.58536 0.4152 0.88743 0.0
H1391 H 0.63351 0.41538 0.95233 0.0
C1392 C 1.00607 0.52383 0.2546 0.0
C1393 C 1.00057 0.54958 0.25269 0.0
C1394 C 0.98891 0.50696 0.26533 0.0
C1395 C 0.9655 0.5152 0.27415 0.0
H1396 H 0.02373 0.51661 0.2477 0.0
H1397 H 0.99376 0.48728 0.26621 0.0
S1398 S 0.94238 0.58081 0.27488 0.0
N1399 N 0.97029 0.58253 0.26173 0.0
N1400 N 0.93813 0.5509 0.28136 0.0
C1401 C 0.95993 0.54091 0.27273 0.0
C1402 C 0.97745 0.55808 0.26218 0.0
C1403 C 0.99774 1.00455 0.23592 0.0
C1404 C 0.98237 0.01882 0.25178 0.0
C1405 C 0.01482 0.98733 0.24592 0.0
C1406 C 0.01749 0.98432 0.27203 0.0
H1407 H 0.99487 1.00487 0.21579 0.0
H1408 H 0.02463 0.97496 0.23315 0.0
S1409 S 0.98497 0.02069 0.32133 0.0
N1410 N 0.97325 0.03136 0.2947 0.0
N1411 N 1.00596 0.99939 0.3134 0.0
C1412 C 1.00434 1.00049 0.28798 0.0
C1413 C 0.98657 0.01767 0.27785 0.0
C1414 C 0.52835 0.99874 0.28406 0.0
C1415 C 0.54366 0.0127 0.26782 0.0
C1416 C 0.51126 0.98109 0.27457 0.0
C1417 C 0.50814 0.97785 0.2486 0.0
H1418 H 0.53051 1.00047 0.30419 0.0
H1419 H 0.50084 0.96954 0.28761 0.0
S1420 S 0.54203 0.01171 0.19836 0.0
N1421 N 0.55416 0.02275 0.22471 0.0
N1422 N 0.52025 0.99139 0.20685 0.0
C1423 C 0.52211 0.99294 0.23222 0.0
C1424 C 0.54036 0.00996 0.24186 0.0
C1425 C 0.55753 0.53964 0.25438 0.0
C1426 C 0.55011 0.5148 0.24942 0.0
C1427 C 0.54046 0.55742 0.26303 0.0
C1428 C 0.51529 0.55108 0.26758 0.0
H1429 H 0.57671 0.54563 0.25134 0.0
H1430 H 0.54725 0.57625 0.26655 0.0
S1431 S 0.48612 0.4887 0.25764 0.0
N1432 N 0.51573 0.48476 0.24951 0.0
N1433 N 0.48357 0.51832 0.26632 0.0
C1434 C 0.50751 0.52633 0.26286 0.0
C1435 C 0.52492 0.50817 0.25363 0.0
C1436 C 0.24929 0.97812 0.5567 0.0
C1437 C 0.25004 1.00411 0.55283 0.0
C1438 C 0.25928 0.9615 0.53911 0.0
C1439 C 0.27095 0.97014 0.51705 0.0
H1440 H 0.24091 0.97049 0.57355 0.0
H1441 H 0.25818 0.94166 0.54323 0.0
S1442 S 0.27752 0.03677 0.4981 0.0
N1443 N 0.26273 0.03798 0.52529 0.0
N1444 N 0.28217 1.00672 0.49219 0.0
C1445 C 0.27154 0.9962 0.51278 0.0
C1446 C 0.26091 0.01318 0.53065 0.0
C1447 C 0.50699 0.27075 0.53471 0.0
C1448 C 0.50789 0.24574 0.5428 0.0
C1449 C 0.52427 0.27987 0.51717 0.0
C1450 C 0.54354 0.26445 0.50795 0.0
H1451 H 0.49374 0.28368 0.54302 0.0
H1452 H 0.52368 0.29956 0.51228 0.0
S1453 S 0.55252 0.19698 0.52191 0.0
N1454 N 0.52785 0.20515 0.53872 0.0
N1455 N 0.56128 0.2225 0.50677 0.0
C1456 C 0.54379 0.23907 0.51499 0.0
C1457 C 0.52571 0.22965 0.53222 0.0
C1458 C 0.25714 0.55423 0.53923 0.0
C1459 C 0.25012 0.54649 0.51495 0.0
C1460 C 0.2674 0.53745 0.55645 0.0
C1461 C 0.27155 0.51223 0.55009 0.0
H1462 H 0.25452 0.57345 0.54522 0.0
H1463 H 0.27244 0.54452 0.57485 0.0
S1464 S 0.25649 0.48225 0.48905 0.0
N1465 N 0.24786 0.51175 0.48543 0.0
N1466 N 0.26768 0.48012 0.5179 0.0
C1467 C 0.26476 0.50412 0.52588 0.0
C1468 C 0.25389 0.52125 0.50832 0.0
C1469 C 0.99066 0.26906 0.49912 0.0
C1470 C 0.9825 0.24416 0.50197 0.0
C1471 C 1.00761 0.27988 0.51619 0.0
C1472 C 0.01619 0.26635 0.53712 0.0
H1473 H 0.98266 0.28074 0.48457 0.0
H1474 H 0.01243 0.29949 0.51406 0.0
S1475 S 1.0021 0.19986 0.5516 0.0
N1476 N 0.98603 0.20561 0.52572 0.0
N1477 N 0.01695 0.22618 0.55854 0.0
C1478 C 1.00924 0.24103 0.53933 0.0
C1479 C 0.9926 0.22986 0.52155 0.0
C1480 C 0.26328 0.55665 0.98116 0.0
C1481 C 0.26672 0.54961 1.00634 0.0
C1482 C 0.25584 0.53925 0.96305 0.0
C1483 C 0.251 0.51415 0.96941 0.0
H1484 H 0.26675 0.57573 0.97519 0.0
H1485 H 0.25349 0.54574 0.94395 0.0
S1486 S 0.25667 0.4862 0.03284 0.0
N1487 N 0.26463 0.51588 0.03685 0.0
N1488 N 0.25002 0.48305 1.00271 0.0
C1489 C 0.25411 0.50681 0.99456 0.0
C1490 C 0.26214 0.52456 0.01303 0.0
C1491 C 0.99263 0.28641 0.9992 0.0
C1492 C 0.97728 0.27075 0.01375 0.0
C1493 C 1.0095 0.27624 0.98186 0.0
C1494 C 0.01234 0.25018 0.97953 0.0
H1495 H 0.99061 0.30658 1.00017 0.0
H1496 H 0.01994 0.2888 0.96981 0.0
S1497 S 0.97824 0.20136 0.01519 0.0
N1498 N 0.96647 0.22811 0.02538 0.0
N1499 N 0.99993 0.20902 0.99448 0.0
C1500 C 0.99834 0.23441 0.99521 0.0
C1501 C 0.98033 0.24472 0.01196 0.0
C1502 C 0.28388 0.99418 0.98947 0.0
C1503 C 0.26807 1.00882 0.97438 0.0
C1504 C 0.2739 0.97724 1.00685 0.0
C1505 C 0.24786 0.97532 0.01057 0.0
H1506 H 0.30401 0.99488 0.98696 0.0
H1507 H 0.28664 0.96512 0.01696 0.0
S1508 S 0.19868 0.01103 0.9769 0.0
N1509 N 0.22529 0.02074 0.96438 0.0
N1510 N 0.20658 0.9906 0.99878 0.0
C1511 C 0.23196 0.99101 0.99666 0.0
C1512 C 0.24207 1.00736 0.9781 0.0
C1513 C 0.51058 0.26683 0.99054 0.0
C1514 C 0.51636 0.26855 0.96482 0.0
C1515 C 0.52801 0.25725 1.00785 0.0
C1516 C 0.55196 0.24948 1.0001 0.0
H1517 H 0.4925 0.27297 0.99738 0.0
H1518 H 0.52291 0.25643 0.02749 0.0
S1519 S 0.57614 0.24893 0.93482 0.0
N1520 N 0.54762 0.26059 0.93246 0.0
N1521 N 0.58021 0.24311 0.96491 0.0
C1522 C 0.55785 0.25077 0.97443 0.0
C1523 C 0.54008 0.26013 0.95681 0.0
C1524 C 0.04268 0.46169 0.75926 0.0
C1525 C 0.01741 0.46751 0.76392 0.0
C1526 C 0.05935 0.47974 0.75025 0.0
C1527 C 0.05145 0.50434 0.74505 0.0
H1528 H 0.04988 0.4431 0.763 0.0
H1529 H 0.07862 0.47416 0.7472 0.0
S1530 S 0.98697 0.52903 0.75317 0.0
N1531 N 0.98505 0.49952 0.76227 0.0
N1532 N 0.01647 0.53352 0.74486 0.0
C1533 C 0.02614 0.51041 0.74925 0.0
C1534 C 1.00912 0.492 0.75881 0.0
C1535 C 1.00126 0.03167 0.76282 0.0
C1536 C 1.00932 0.04623 0.74241 0.0
C1537 C 0.01747 0.01425 0.77422 0.0
C1538 C 0.04224 0.01107 0.7656 0.0
H1539 H 0.98297 0.03486 0.771 0.0
H1540 H 0.01105 1.00439 0.79076 0.0
S1541 S 0.07066 0.04209 0.71021 0.0
N1542 N 0.04239 0.05448 0.7124 0.0
N1543 N 0.07268 0.02169 0.73336 0.0
C1544 C 0.04967 0.02424 0.74401 0.0
C1545 C 0.03326 0.04189 0.73256 0.0
C1546 C 0.47927 0.01133 0.77691 0.0
C1547 C 0.47478 0.01018 0.75098 0.0
C1548 C 0.49687 0.02822 0.78683 0.0
C1549 C 0.50945 0.04527 0.77117 0.0
H1550 H 0.46895 0.99927 0.78957 0.0
H1551 H 0.49985 0.02862 0.80692 0.0
S1552 S 0.50507 0.04889 0.70194 0.0
N1553 N 0.48582 0.02591 0.7097 0.0
N1554 N 0.51697 0.05942 0.72859 0.0
C1555 C 0.50535 0.04403 0.74522 0.0
C1556 C 0.48844 0.02601 0.73504 0.0
C1557 C 0.4654 0.48367 0.76935 0.0
C1558 C 0.4717 0.50896 0.77327 0.0
C1559 C 0.48273 0.46672 0.7596 0.0
C1560 C 0.50707 0.47434 0.75287 0.0
H1561 H 0.44692 0.47669 0.77411 0.0
H1562 H 0.47673 0.44748 0.75706 0.0
S1563 S 0.53298 0.53863 0.75912 0.0
N1564 N 0.50398 0.54096 0.76974 0.0
N1565 N 0.53668 0.50901 0.75084 0.0
C1566 C 0.5137 0.49963 0.75653 0.0
C1567 C 0.49601 0.51693 0.76691 0.0
C1568 C 0.78479 0.01299 0.49707 0.0
C1569 C 0.76877 1.0 0.48064 0.0
C1570 C 0.77512 0.03062 0.51406 0.0
C1571 C 0.74915 0.0352 0.51559 0.0
H1572 H 0.80494 0.01135 0.49515 0.0
H1573 H 0.78815 0.04196 0.52482 0.0
S1574 S 0.69929 1.00352 0.47891 0.0
N1575 N 0.72567 0.99116 0.46849 0.0
N1576 N 0.70756 0.02353 0.50112 0.0
C1577 C 0.73287 0.02052 0.50104 0.0
C1578 C 0.7427 1.00307 0.48334 0.0
C1579 C 0.49512 0.75502 0.50997 0.0
C1580 C 0.46983 0.75071 0.50355 0.0
C1581 C 0.51213 0.76493 0.49243 0.0
C1582 C 0.50453 0.77043 0.46775 0.0
H1583 H 0.50179 0.75082 0.5287 0.0
H1584 H 0.53143 0.76791 0.4981 0.0
S1585 S 0.4403 0.76292 0.44148 0.0
N1586 N 0.43806 0.75314 0.47069 0.0
N1587 N 0.46984 0.77136 0.43799 0.0
C1588 C 0.47928 0.76627 0.46116 0.0
C1589 C 0.46198 0.75655 0.47899 0.0
C1590 C 0.76732 0.49432 0.51156 0.0
C1591 C 0.76801 0.46854 0.50583 0.0
C1592 C 0.7574 0.51173 0.49449 0.0
C1593 C 0.74826 0.50397 0.47099 0.0
H1594 H 0.7746 0.50115 0.52928 0.0
H1595 H 0.75745 0.53143 0.49946 0.0
S1596 S 0.74403 0.43864 0.44738 0.0
N1597 N 0.75718 0.43615 0.4753 0.0
N1598 N 0.73916 0.46886 0.44331 0.0
C1599 C 0.74839 0.47829 0.4652 0.0
C1600 C 0.75807 0.46056 0.48262 0.0
C1601 C 0.03614 0.74441 0.51261 0.0
C1602 C 0.04091 0.7703 0.51423 0.0
C1603 C 0.0185 0.73491 0.49552 0.0
C1604 C 1.00585 0.75103 0.47903 0.0
H1605 H 0.04726 0.73134 0.52345 0.0
H1606 H 0.01647 0.71479 0.49365 0.0
S1607 S 1.01003 0.82039 0.47761 0.0
N1608 N 0.02982 0.81197 0.49994 0.0
N1609 N 0.99753 0.79412 0.46687 0.0
C1610 C 1.00924 0.77704 0.48169 0.0
C1611 C 0.02661 0.7867 0.49959 0.0
C1612 C 0.76464 0.51185 0.0284 0.0
C1613 C 0.77251 0.50427 0.05241 0.0
C1614 C 0.75611 0.49428 0.01065 0.0
C1615 C 0.75561 0.46849 0.01616 0.0
H1616 H 0.7647 0.53153 0.02343 0.0
H1617 H 0.74993 0.50096 0.99249 0.0
S1618 S 0.77537 0.43896 0.0762 0.0
N1619 N 0.77987 0.46922 0.08059 0.0
N1620 N 0.76432 0.43631 0.0474 0.0
C1621 C 0.76393 0.4607 0.04002 0.0
C1622 C 0.77221 0.47856 0.05812 0.0
C1623 C 1.00536 0.76163 0.02454 0.0
C1624 C 0.01415 0.77604 0.0448 0.0
C1625 C 0.02227 0.75057 1.00756 0.0
C1626 C 0.04844 0.75366 0.01037 0.0
H1627 H 0.98551 0.75764 0.02268 0.0
H1628 H 0.01481 0.73868 0.99283 0.0
S1629 S 0.08023 0.79272 0.05879 0.0
N1630 N 0.05013 0.79481 0.06547 0.0
N1631 N 0.08179 0.77464 0.03373 0.0
C1632 C 0.05712 0.76953 0.02968 0.0
C1633 C 0.03999 0.78053 0.04688 0.0
C1634 C 0.75915 0.04123 0.05577 0.0
C1635 C 0.75203 0.01701 0.04809 0.0
C1636 C 0.76914 0.05845 0.0388 0.0
C1637 C 0.77292 0.05212 0.01346 0.0
H1638 H 0.75657 0.04721 0.07502 0.0
H1639 H 0.77408 0.07691 0.04574 0.0
S1640 S 0.75836 0.99086 0.98385 0.0
N1641 N 0.74994 0.98732 0.01344 0.0
N1642 N 0.76924 0.01977 0.98151 0.0
C1643 C 0.76641 0.02783 1.00552 0.0
C1644 C 0.75582 0.01029 0.02282 0.0
C1645 C 0.50879 0.77743 0.04166 0.0
C1646 C 0.51402 0.75165 0.04296 0.0
C1647 C 0.49195 0.78686 0.02379 0.0
C1648 C 0.47927 0.77064 1.00731 0.0
H1649 H 0.51693 0.79026 0.05519 0.0
H1650 H 0.48739 0.80663 0.02423 0.0
S1651 S 0.48709 0.70183 1.00249 0.0
N1652 N 0.50659 0.71036 0.02507 0.0
N1653 N 0.47368 0.72791 0.99264 0.0
C1654 C 0.48514 0.74503 1.00771 0.0
C1655 C 0.50289 0.73555 0.02528 0.0
C1656 C 0.18426 0.60107 0.12238 0.0
C1657 C 0.16582 0.58288 0.11734 0.0
C1658 C 0.20751 0.60057 0.11 0.0
C1659 C 0.21278 0.58209 0.09187 0.0
H1660 H 0.1799 0.61691 0.13434 0.0
H1661 H 0.22032 0.61609 0.1129 0.0
S1662 S 0.17198 0.52826 0.07494 0.0
N1663 N 0.15537 0.54437 0.0955 0.0
N1664 N 0.19891 0.54335 0.07213 0.0
C1665 C 0.19533 0.56255 0.08851 0.0
C1666 C 0.17182 0.56301 0.10122 0.0
C1667 C 0.95096 0.21058 0.10785 0.0
C1668 C 0.92901 0.22499 0.10467 0.0
C1669 C 0.94988 0.18582 0.11672 0.0
C1670 C 0.92683 0.17465 0.12272 0.0
H1671 H 0.96895 0.2178 0.10178 0.0
H1672 H 0.9669 0.17478 0.11701 0.0
S1673 S 0.86449 0.20508 0.12193 0.0
N1674 N 0.88388 0.22694 0.11172 0.0
N1675 N 0.88207 0.18037 0.12792 0.0
C1676 C 0.90511 0.18941 0.12185 0.0
C1677 C 0.90615 0.21465 0.11303 0.0
C1678 C 0.30134 0.90994 0.11383 0.0
C1679 C 0.29486 0.93246 0.1017 0.0
C1680 C 0.3247 0.90722 0.12567 0.0
C1681 C 0.34209 0.92706 0.12626 0.0
H1682 H 0.28952 0.89351 0.11198 0.0
H1683 H 0.33009 0.88887 0.13243 0.0
S1684 S 0.33213 0.99123 0.10202 0.0
N1685 N 0.30612 0.97605 0.09457 0.0
N1686 N 0.34991 0.97086 0.11709 0.0
C1687 C 0.33464 0.95044 0.11693 0.0
C1688 C 0.311 0.95318 0.10461 0.0
C1689 C 0.61479 0.30631 0.10904 0.0
C1690 C 0.59189 0.29864 0.09818 0.0
C1691 C 0.61715 0.32978 0.12071 0.0
C1692 C 0.59662 0.34615 0.12247 0.0
H1693 H 0.63156 0.29514 0.10668 0.0
H1694 H 0.63555 0.33586 0.12694 0.0
S1695 S 0.53175 0.33342 0.10101 0.0
N1696 N 0.54758 0.30812 0.09284 0.0
N1697 N 0.55214 0.35209 0.11512 0.0
C1698 C 0.57315 0.33779 0.11393 0.0
C1699 C 0.57076 0.31403 0.10174 0.0
C1700 C 0.18241 0.95681 0.41637 0.0
C1701 C 0.17647 0.93652 0.40064 0.0
C1702 C 0.20539 0.95776 0.42917 0.0
C1703 C 0.22314 0.9384 0.42668 0.0
H1704 H 0.16823 0.97063 0.42083 0.0
H1705 H 0.20828 0.97255 0.44283 0.0
S1706 S 0.2179 0.8835 0.38408 0.0
N1707 N 0.19108 0.89854 0.38053 0.0
N1708 N 0.23454 0.90033 0.40416 0.0
C1709 C 0.21854 0.91961 0.40862 0.0
C1710 C 0.19504 0.91862 0.39575 0.0
C1711 C 0.61448 0.21705 0.40613 0.0
C1712 C 0.59099 0.22376 0.4161 0.0
C1713 C 0.61799 0.19374 0.39447 0.0
C1714 C 0.59806 0.17662 0.3919 0.0
H1715 H 0.63084 0.22863 0.40956 0.0
H1716 H 0.63684 0.18821 0.38934 0.0
S1717 S 0.53198 0.18727 0.41014 0.0
N1718 N 0.54675 0.21302 0.41911 0.0
N1719 N 0.55345 0.16932 0.39693 0.0
C1720 C 0.57398 0.1843 0.39907 0.0
C1721 C 0.57041 0.2079 0.41121 0.0
C1722 C 0.34428 0.5687 0.41108 0.0
C1723 C 0.35203 0.59115 0.3998 0.0
C1724 C 0.32035 0.56649 0.42183 0.0
C1725 C 0.30334 0.58673 0.42182 0.0
H1726 H 0.35741 0.55336 0.41316 0.0
H1727 H 0.31582 0.54934 0.43167 0.0
S1728 S 0.31407 0.64856 0.39168 0.0
N1729 N 0.34046 0.63311 0.38707 0.0
N1730 N 0.29538 0.62914 0.40689 0.0
C1731 C 0.31028 0.60858 0.40867 0.0
C1732 C 0.33471 0.61079 0.39787 0.0
C1733 C 0.89362 0.33012 0.40468 0.0
C1734 C 0.91448 0.34447 0.39718 0.0
C1735 C 0.89654 0.3059 0.41451 0.0
C1736 C 0.9205 0.29526 0.4176 0.0
H1737 H 0.87504 0.33829 0.40437 0.0
H1738 H 0.88006 0.29641 0.42165 0.0
S1739 S 0.98075 0.32369 0.39742 0.0
N1740 N 0.95952 0.34519 0.39076 0.0
N1741 N 0.96512 0.29976 0.40931 0.0
C1742 C 0.94125 0.30857 0.4081 0.0
C1743 C 0.93822 0.33316 0.39789 0.0
C1744 C 0.10658 0.20467 0.56314 0.0
C1745 C 0.10607 0.22132 0.58375 0.0
C1746 C 0.11663 0.18048 0.56541 0.0
C1747 C 0.12673 0.17223 0.58826 0.0
H1748 H 0.09728 0.2095 0.54573 0.0
H1749 H 0.11445 0.16748 0.54992 0.0
S1750 S 0.13488 0.20977 0.64617 0.0
N1751 N 0.12054 0.22889 0.62651 0.0
N1752 N 0.13906 0.18333 0.63062 0.0
C1753 C 0.12889 0.18945 0.60806 0.0
C1754 C 0.11875 0.21409 0.60581 0.0
C1755 C 0.30576 0.10784 0.6086 0.0
C1756 C 0.29925 0.09197 0.58847 0.0
C1757 C 0.32877 0.12072 0.60883 0.0
C1758 C 0.34569 0.11854 0.58875 0.0
H1759 H 0.29435 0.10828 0.62538 0.0
H1760 H 0.33437 0.13053 0.62576 0.0
S1761 S 0.33543 0.08319 0.52981 0.0
N1762 N 0.30998 0.07769 0.54654 0.0
N1763 N 0.35304 0.10212 0.54699 0.0
C1764 C 0.33815 0.10503 0.56744 0.0
C1765 C 0.31492 0.09171 0.56728 0.0
C1766 C 0.40545 0.33212 0.6248 0.0
C1767 C 0.39902 0.34604 0.6033 0.0
C1768 C 0.41628 0.30821 0.62285 0.0
C1769 C 0.42149 0.2975 0.59927 0.0
H1770 H 0.40371 0.34053 0.64323 0.0
H1771 H 0.42262 0.29916 0.63988 0.0
S1772 S 0.40459 0.32461 0.53742 0.0
N1773 N 0.3957 0.34607 0.55791 0.0
N1774 N 0.41618 0.30127 0.5541 0.0
C1775 C 0.41297 0.31026 0.57775 0.0
C1776 C 0.40172 0.3345 0.57978 0.0
C1777 C 0.21009 0.41382 0.61599 0.0
C1778 C 0.22082 0.42068 0.59287 0.0
C1779 C 0.18551 0.40441 0.61726 0.0
C1780 C 0.17097 0.401 0.59547 0.0
H1781 H 0.21986 0.41767 0.63342 0.0
H1782 H 0.17726 0.40124 0.63554 0.0
S1783 S 0.19154 0.4124 0.53016 0.0
N1784 N 0.21591 0.42069 0.5475 0.0
N1785 N 0.16988 0.40265 0.55001 0.0
C1786 C 0.18222 0.4056 0.57215 0.0
C1787 C 0.20712 0.4155 0.57083 0.0
C1788 C 0.10467 0.31531 0.95214 0.0
C1789 C 0.10268 0.29864 0.93165 0.0
C1790 C 0.11498 0.33936 0.94928 0.0
C1791 C 0.12367 0.3475 0.92586 0.0
H1792 H 0.09662 0.31045 0.97013 0.0
H1793 H 0.11446 0.35225 0.965 0.0
S1794 S 0.1265 0.31033 0.86726 0.0
N1795 N 0.11343 0.29126 0.88782 0.0
N1796 N 0.13237 0.3366 0.88262 0.0
C1797 C 0.12383 0.33047 0.90582 0.0
C1798 C 0.11355 0.30592 0.9087 0.0
C1799 C 0.18494 0.11683 0.94479 0.0
C1800 C 0.17447 0.12314 0.92146 0.0
C1801 C 0.20903 0.10635 0.94639 0.0
C1802 C 0.2235 0.10187 0.92471 0.0
H1803 H 0.17373 0.11819 0.96166 0.0
H1804 H 0.21559 0.10013 0.96458 0.0
S1805 S 0.20583 0.11958 0.85964 0.0
N1806 N 0.18126 0.12741 0.87672 0.0
N1807 N 0.22663 0.10815 0.87953 0.0
C1808 C 0.21408 0.11054 0.90157 0.0
C1809 C 0.18948 0.12097 0.89998 0.0
C1810 C 0.41657 0.20575 0.94662 0.0
C1811 C 0.41793 0.22149 0.92541 0.0
C1812 C 0.40552 0.18187 0.94522 0.0
C1813 C 0.3953 0.17291 0.92263 0.0
H1814 H 0.42571 0.21114 0.96398 0.0
H1815 H 0.40673 0.16962 0.96136 0.0
S1816 S 0.39055 0.20759 0.86274 0.0
N1817 N 0.40513 0.22719 0.88188 0.0
N1818 N 0.38474 0.1822 0.87942 0.0
C1819 C 0.39452 0.18912 0.90196 0.0
C1820 C 0.40563 0.2135 0.90334 0.0
C1821 C 0.32128 0.42925 0.95006 0.0
C1822 C 0.30386 0.4271 0.93025 0.0
C1823 C 0.34451 0.41699 0.9492 0.0
C1824 C 0.35113 0.40205 0.92856 0.0
H1825 H 0.31774 0.44201 0.96548 0.0
H1826 H 0.35818 0.42088 0.96378 0.0
S1827 S 0.31142 0.38766 0.87333 0.0
N1828 N 0.29402 0.40656 0.89058 0.0
N1829 N 0.33787 0.38379 0.88904 0.0
C1830 C 0.33318 0.39794 0.90971 0.0
C1831 C 0.30942 0.41033 0.91058 0.0
C1832 C 0.57394 0.11955 0.18138 0.0
C1833 C 0.59737 0.12676 0.17185 0.0
C1834 C 0.57185 0.10907 0.20544 0.0
C1835 C 0.59314 0.10545 0.22078 0.0
H1836 H 0.55746 0.12022 0.16948 0.0
H1837 H 0.55367 0.10217 0.2113 0.0
S1838 S 0.6582 0.1252 0.20542 0.0
N1839 N 0.6417 0.13243 0.18022 0.0
N1840 N 0.63799 0.11323 0.22556 0.0
C1841 C 0.61631 0.11492 0.21221 0.0
C1842 C 0.61838 0.12535 0.18765 0.0
C1843 C 0.57449 0.41069 0.34532 0.0
C1844 C 0.59728 0.40085 0.35404 0.0
C1845 C 0.57263 0.4214 0.32133 0.0
C1846 C 0.59354 0.42276 0.3052 0.0
H1847 H 0.55847 0.41167 0.35776 0.0
H1848 H 0.55506 0.4301 0.31605 0.0
S1849 S 0.65678 0.39683 0.31864 0.0
N1850 N 0.64052 0.39104 0.34432 0.0
N1851 N 0.6372 0.4108 0.29913 0.0
C1852 C 0.61592 0.41111 0.31311 0.0
C1853 C 0.61778 0.40035 0.33761 0.0
C1854 C 0.1133 0.60742 0.30376 0.0
C1855 C 0.10066 0.58513 0.29718 0.0
C1856 C 0.12522 0.60996 0.32712 0.0
C1857 C 0.12542 0.59015 0.34445 0.0
H1858 H 0.11202 0.62383 0.2919 0.0
H1859 H 0.13252 0.62816 0.3325 0.0
S1860 S 0.09949 0.52651 0.33454 0.0
N1861 N 0.09242 0.54173 0.30851 0.0
N1862 N 0.11505 0.54663 0.35231 0.0
C1863 C 0.11537 0.56699 0.33705 0.0
C1864 C 0.10298 0.56443 0.31338 0.0
C1865 C 0.94075 0.12371 0.32693 0.0
C1866 C 0.91705 0.12791 0.33753 0.0
C1867 C 0.94304 0.11373 0.30265 0.0
C1868 C 0.9217 0.10745 0.2882 0.0
H1869 H 0.95751 0.12583 0.33828 0.0
H1870 H 0.96164 0.10888 0.29614 0.0
S1871 S 0.85564 0.12075 0.30563 0.0
N1872 N 0.87214 0.12948 0.33041 0.0
N1873 N 0.87625 0.11089 0.28478 0.0
C1874 C 0.89806 0.11465 0.2975 0.0
C1875 C 0.89579 0.12478 0.32222 0.0
C1876 C 0.41468 0.94879 0.31371 0.0
C1877 C 0.41915 0.92739 0.29878 0.0
C1878 C 0.40451 0.94678 0.33794 0.0
C1879 C 0.3986 0.92329 0.3482 0.0
H1880 H 0.42058 0.96711 0.30725 0.0
H1881 H 0.40303 0.9635 0.34939 0.0
S1882 S 0.404 0.86178 0.31637 0.0
N1883 N 0.41441 0.8821 0.2955 0.0
N1884 N 0.39582 0.87849 0.34113 0.0
C1885 C 0.40125 0.90198 0.33294 0.0
C1886 C 0.4113 0.90399 0.30817 0.0
C1887 C 0.94458 0.41899 0.20527 0.0
C1888 C 0.92338 0.42084 0.22095 0.0
C1889 C 0.94274 0.4091 0.1809 0.0
C1890 C 0.91964 0.40074 0.17133 0.0
H1891 H 0.96241 0.42677 0.21123 0.0
H1892 H 0.95907 0.40971 0.16885 0.0
S1893 S 0.85928 0.3981 0.20539 0.0
N1894 N 0.87909 0.41057 0.22577 0.0
N1895 N 0.87579 0.39247 0.17983 0.0
C1896 C 0.8988 0.40058 0.18732 0.0
C1897 C 0.90065 0.4104 0.21223 0.0
C1898 C 0.1216 0.94158 0.18788 0.0
C1899 C 0.12835 0.91757 0.17952 0.0
C1900 C 0.1095 0.94493 0.21105 0.0
C1901 C 0.10367 0.92439 0.22668 0.0
H1902 H 0.12351 0.95753 0.17549 0.0
H1903 H 0.10287 0.96353 0.21574 0.0
S1904 S 0.12237 0.85836 0.21529 0.0
N1905 N 0.13211 0.87355 0.19016 0.0
N1906 N 0.10954 0.87971 0.23367 0.0
C1907 C 0.11305 0.90072 0.21974 0.0
C1908 C 0.12529 0.89735 0.19613 0.0
C1909 C 0.39801 0.60058 0.18827 0.0
C1910 C 0.40394 0.58358 0.16902 0.0
C1911 C 0.41164 0.60082 0.21089 0.0
C1912 C 0.43184 0.58427 0.21473 0.0
H1913 H 0.38432 0.6152 0.18495 0.0
H1914 H 0.40784 0.61557 0.22434 0.0
S1915 S 0.45175 0.53345 0.17161 0.0
N1916 N 0.42888 0.5478 0.15644 0.0
N1917 N 0.45446 0.54804 0.19883 0.0
C1918 C 0.43614 0.56558 0.19658 0.0
C1919 C 0.42222 0.56532 0.1737 0.0
C1920 C 0.84864 0.45165 0.91624 0.0
C1921 C 0.85431 0.43232 0.89927 0.0
C1922 C 0.82569 0.45211 0.92906 0.0
C1923 C 0.80757 0.43316 0.92552 0.0
H1924 H 0.86286 0.46533 0.92119 0.0
H1925 H 0.82293 0.4664 0.94325 0.0
S1926 S 0.81245 0.38 0.88078 0.0
N1927 N 0.83931 0.39515 0.87775 0.0
N1928 N 0.79602 0.39595 0.90162 0.0
C1929 C 0.81215 0.415 0.90686 0.0
C1930 C 0.83562 0.41455 0.89385 0.0
C1931 C 0.11153 0.83528 0.90095 0.0
C1932 C 0.08975 0.84999 0.89896 0.0
C1933 C 0.11063 0.81094 0.9109 0.0
C1934 C 0.08796 0.80068 0.91973 0.0
H1935 H 0.12964 0.84331 0.89642 0.0
H1936 H 0.12816 0.8011 0.91369 0.0
S1937 S 0.02522 0.8304 0.91537 0.0
N1938 N 0.04459 0.85162 0.90383 0.0
N1939 N 0.04277 0.80603 0.92283 0.0
C1940 C 0.06577 0.81444 0.91581 0.0
C1941 C 0.0667 0.83909 0.90538 0.0
C1942 C 0.68967 0.11917 0.90084 0.0
C1943 C 0.67395 0.0981 0.89856 0.0
C1944 C 0.71391 0.11712 0.91098 0.0
C1945 C 0.72308 0.09398 0.91975 0.0
H1946 H 0.68257 0.13761 0.89622 0.0
H1947 H 0.7246 0.13416 0.9139 0.0
S1948 S 0.69024 0.03275 0.91508 0.0
N1949 N 0.67006 0.05308 0.90336 0.0
N1950 N 0.71543 0.04914 0.9228 0.0
C1951 C 0.7082 0.07249 0.91572 0.0
C1952 C 0.68366 0.07457 0.90508 0.0
C1953 C 0.4369 0.68642 0.90333 0.0
C1954 C 0.41356 0.67449 0.90056 0.0
C1955 C 0.43869 0.71053 0.91389 0.0
C1956 C 0.41721 0.72366 0.92202 0.0
H1957 H 0.454 0.67633 0.89913 0.0
H1958 H 0.45723 0.71819 0.91726 0.0
S1959 S 0.35136 0.70197 0.91472 0.0
N1960 N 0.36837 0.67863 0.90365 0.0
N1961 N 0.37156 0.72389 0.92327 0.0
C1962 C 0.39361 0.7128 0.91703 0.0
C1963 C 0.39185 0.6882 0.90644 0.0
C1964 C 0.82373 0.11952 0.62152 0.0
C1965 C 0.83918 0.09867 0.6264 0.0
C1966 C 0.80007 0.11665 0.61024 0.0
C1967 C 0.7911 0.09281 0.60325 0.0
H1968 H 0.831 0.1383 0.62426 0.0
H1969 H 0.79003 0.13339 0.6047 0.0
S1970 S 0.82186 0.03204 0.61723 0.0
N1971 N 0.84204 0.05333 0.62734 0.0
N1972 N 0.79749 0.04779 0.60645 0.0
C1973 C 0.80498 0.07173 0.61104 0.0
C1974 C 0.82906 0.07468 0.62254 0.0
C1975 C 0.40405 0.82969 0.62023 0.0
C1976 C 0.42545 0.84477 0.62362 0.0
C1977 C 0.40592 0.80539 0.61028 0.0
C1978 C 0.42925 0.79553 0.60283 0.0
H1979 H 0.38559 0.83737 0.62373 0.0
H1980 H 0.38873 0.79525 0.6064 0.0
S1981 S 0.49116 0.82639 0.61109 0.0
N1982 N 0.47081 0.84723 0.62153 0.0
N1983 N 0.47445 0.80172 0.60246 0.0
C1984 C 0.45095 0.8097 0.60812 0.0
C1985 C 0.44902 0.83431 0.61857 0.0
C1986 C 0.68796 0.40382 0.61943 0.0
C1987 C 0.67319 0.42536 0.6229 0.0
C1988 C 0.71232 0.40545 0.60962 0.0
C1989 C 0.7226 0.42867 0.60239 0.0
H1990 H 0.68006 0.38545 0.623 0.0
H1991 H 0.72225 0.38818 0.60578 0.0
S1992 S 0.69254 0.49083 0.6104 0.0
N1993 N 0.67139 0.47072 0.62075 0.0
N1994 N 0.71699 0.47387 0.60187 0.0
C1995 C 0.70866 0.45048 0.60749 0.0
C1996 C 0.68398 0.4488 0.61782 0.0
C1997 C 0.12609 0.69024 0.61613 0.0
C1998 C 0.10461 0.67661 0.62327 0.0
C1999 C 0.12412 0.7139 0.60477 0.0
C2000 C 0.10053 0.72463 0.5998 0.0
H2001 H 0.14445 0.68171 0.61762 0.0
H2002 H 0.14106 0.72265 0.59781 0.0
S2003 S 0.03887 0.69848 0.61879 0.0
N2004 N 0.05934 0.67704 0.62766 0.0
N2005 N 0.0555 0.72142 0.60632 0.0
C2006 C 0.07911 0.7123 0.60918 0.0
C2007 C 0.08117 0.6883 0.62091 0.0
C2008 C 0.89716 0.82757 0.44516 0.0
C2009 C 0.8913 0.83778 0.42162 0.0
C2010 C 0.9083 0.80382 0.44712 0.0
C2011 C 0.91405 0.7895 0.4256 0.0
H2012 H 0.89551 0.83898 0.46191 0.0
H2013 H 0.91448 0.79769 0.46549 0.0
S2014 S 0.89703 0.80595 0.36008 0.0
N2015 N 0.88796 0.83034 0.37685 0.0
N2016 N 0.90867 0.78568 0.38036 0.0
C2017 C 0.90526 0.79826 0.40227 0.0
C2018 C 0.894 0.82246 0.40033 0.0
C2019 C 0.71214 0.91227 0.39653 0.0
C2020 C 0.72377 0.91575 0.42003 0.0
C2021 C 0.68774 0.90247 0.39467 0.0
C2022 C 0.67413 0.89544 0.41616 0.0
H2023 H 0.72103 0.91903 0.37958 0.0
H2024 H 0.67881 0.90191 0.37639 0.0
S2025 S 0.69752 0.89672 0.48163 0.0
N2026 N 0.72095 0.90817 0.46496 0.0
N2027 N 0.67513 0.88983 0.46129 0.0
C2028 C 0.68639 0.89651 0.43946 0.0
C2029 C 0.7112 0.90663 0.44142 0.0
C2030 C 0.59992 0.67731 0.45193 0.0
C2031 C 0.61757 0.67164 0.43328 0.0
C2032 C 0.58713 0.70025 0.4519 0.0
C2033 C 0.59137 0.71828 0.4331 0.0
H2034 H 0.59449 0.66312 0.4654 0.0
H2035 H 0.57241 0.70304 0.46561 0.0
S2036 S 0.63808 0.71333 0.38181 0.0
N2037 N 0.64052 0.68652 0.39704 0.0
N2038 N 0.61665 0.72978 0.39691 0.0
C2039 C 0.6107 0.71369 0.41571 0.0
C2040 C 0.62369 0.69025 0.41576 0.0
C2041 C 0.83193 0.61946 0.42128 0.0
C2042 C 0.84981 0.6144 0.44003 0.0
C2043 C 0.80827 0.60777 0.42152 0.0
C2044 C 0.80199 0.59031 0.44029 0.0
H2045 H 0.83705 0.63078 0.40524 0.0
H2046 H 0.79591 0.61055 0.40562 0.0
S2047 S 0.84105 0.57364 0.49542 0.0
N2048 N 0.85866 0.59332 0.47927 0.0
N2049 N 0.81438 0.5712 0.47976 0.0
C2050 C 0.81889 0.587 0.46031 0.0
C2051 C 0.84281 0.59904 0.46013 0.0
C2052 C 0.89964 0.69194 0.11774 0.0
C2053 C 0.89554 0.67664 0.09661 0.0
C2054 C 0.91068 0.71572 0.11542 0.0
C2055 C 0.91854 0.7248 0.09191 0.0
H2056 H 0.89588 0.68474 0.13635 0.0
H2057 H 0.91511 0.72595 0.13244 0.0
S2058 S 0.90859 0.69332 0.03053 0.0
N2059 N 0.89732 0.67332 0.05128 0.0
N2060 N 0.91836 0.71787 0.04679 0.0
C2061 C 0.91244 0.71056 0.07045 0.0
C2062 C 0.90092 0.68648 0.07284 0.0
C2063 C 0.80314 0.90557 0.10595 0.0
C2064 C 0.79535 0.91803 0.084 0.0
C2065 C 0.82674 0.89402 0.10733 0.0
C2066 C 0.84319 0.89413 0.08672 0.0
H2067 H 0.79213 0.90682 0.12295 0.0
H2068 H 0.83312 0.88703 0.12531 0.0
S2069 S 0.82962 0.91923 0.02346 0.0
N2070 N 0.80431 0.92593 0.03996 0.0
N2071 N 0.84862 0.90422 0.04276 0.0
C2072 C 0.83441 0.90375 0.06388 0.0
C2073 C 0.81047 0.91568 0.06246 0.0
C2074 C 0.60988 0.81139 0.11361 0.0
C2075 C 0.60148 0.80193 0.09038 0.0
C2076 C 0.62009 0.83559 0.11558 0.0
C2077 C 0.62278 0.85096 0.09434 0.0
H2078 H 0.60655 0.80101 0.13073 0.0
H2079 H 0.62436 0.84298 0.13405 0.0
S2080 S 0.60731 0.83372 0.0288 0.0
N2081 N 0.59922 0.80885 0.04535 0.0
N2082 N 0.61879 0.85416 0.04914 0.0
C2083 C 0.61667 0.84091 0.07078 0.0
C2084 C 0.60595 0.81641 0.06877 0.0
C2085 C 0.70853 0.60712 0.11685 0.0
C2086 C 0.7175 0.59809 0.09369 0.0
C2087 C 0.68428 0.61706 0.11902 0.0
C2088 C 0.6684 0.61888 0.09803 0.0
H2089 H 0.71941 0.60461 0.13384 0.0
H2090 H 0.67731 0.62189 0.13748 0.0
S2091 S 0.68409 0.60161 0.03265 0.0
N2092 N 0.70947 0.59433 0.0489 0.0
N2093 N 0.66405 0.61341 0.05308 0.0
C2094 C 0.67787 0.61208 0.07447 0.0
C2095 C 0.70242 0.60164 0.07227 0.0
C2096 C 0.4385 0.92364 0.81074 0.0
C2097 C 0.42086 0.91068 0.7958 0.0
C2098 C 0.44235 0.91726 0.83595 0.0
C2099 C 0.42916 0.89736 0.84705 0.0
H2100 H 0.44796 0.94014 0.80363 0.0
H2101 H 0.45452 0.92899 0.8473 0.0
S2102 S 0.38442 0.85464 0.81523 0.0
N2103 N 0.39266 0.87483 0.79326 0.0
N2104 N 0.40022 0.86281 0.84066 0.0
C2105 C 0.41344 0.88269 0.83181 0.0
C2106 C 0.40924 0.88933 0.80615 0.0
C2107 C 0.40803 0.61026 0.7115 0.0
C2108 C 0.43093 0.60124 0.72112 0.0
C2109 C 0.40647 0.62022 0.6872 0.0
C2110 C 0.4278 0.62203 0.67187 0.0
H2111 H 0.39078 0.60772 0.72189 0.0
H2112 H 0.38818 0.62502 0.67973 0.0
S2113 S 0.49275 0.60496 0.68945 0.0
N2114 N 0.4759 0.59765 0.71437 0.0
N2115 N 0.47283 0.61669 0.66882 0.0
C2116 C 0.45111 0.61531 0.68202 0.0
C2117 C 0.45271 0.60488 0.70665 0.0
C2118 C 0.91342 0.40005 0.71088 0.0
C2119 C 0.92197 0.42312 0.72054 0.0
C2120 C 0.90214 0.39857 0.6871 0.0
C2121 C 0.89853 0.42012 0.67236 0.0
H2122 H 0.91745 0.38274 0.72066 0.0
H2123 H 0.89773 0.38025 0.67945 0.0
S2124 S 0.91366 0.48537 0.69074 0.0
N2125 N 0.92313 0.46831 0.71479 0.0
N2126 N 0.90163 0.46541 0.67025 0.0
C2127 C 0.90469 0.44349 0.68279 0.0
C2128 C 0.91645 0.44501 0.70687 0.0
C2129 C 0.10907 0.90654 0.71888 0.0
C2130 C 0.08622 0.91812 0.72519 0.0
C2131 C 0.11218 0.89455 0.69566 0.0
C2132 C 0.09246 0.89333 0.67811 0.0
H2133 H 0.12538 0.90869 0.73085 0.0
H2134 H 0.1307 0.88799 0.69055 0.0
S2135 S 0.02756 0.91592 0.68756 0.0
N2136 N 0.04244 0.92396 0.71359 0.0
N2137 N 0.04844 0.90135 0.66998 0.0
C2138 C 0.06881 0.9022 0.68532 0.0
C2139 C 0.06565 0.91461 0.70889 0.0
C2140 C 0.61495 0.0653 0.68466 0.0
C2141 C 0.62678 0.08728 0.6764 0.0
C2142 C 0.60445 0.06392 0.70873 0.0
C2143 C 0.60518 0.08463 0.72523 0.0
H2144 H 0.61169 0.05 0.67165 0.0
H2145 H 0.59377 0.04731 0.71347 0.0
S2146 S 0.63878 0.14456 0.71382 0.0
N2147 N 0.64212 0.1286 0.68747 0.0
N2148 N 0.62277 0.12615 0.73286 0.0
C2149 C 0.61964 0.10557 0.71811 0.0
C2150 C 0.63026 0.1069 0.69359 0.0
C2151 C 0.07145 0.60943 0.83923 0.0
C2152 C 0.09411 0.61856 0.84914 0.0
C2153 C 0.07037 0.59922 0.81493 0.0
C2154 C 0.09192 0.59776 0.79968 0.0
H2155 H 0.05491 0.60852 0.85096 0.0
H2156 H 0.05286 0.59093 0.8087 0.0
S2157 S 0.15514 0.6221 0.81635 0.0
N2158 N 0.13794 0.62771 0.84145 0.0
N2159 N 0.13607 0.60894 0.79571 0.0
C2160 C 0.11421 0.60882 0.80877 0.0
C2161 C 0.11528 0.61901 0.83357 0.0
C2162 C 0.90443 0.12365 0.8301 0.0
C2163 C 0.89917 0.10193 0.84412 0.0
C2164 C 0.9158 0.12218 0.80638 0.0
C2165 C 0.92277 0.09892 0.79605 0.0
H2166 H 0.90141 0.14196 0.83835 0.0
H2167 H 0.92119 0.13947 0.79724 0.0
S2168 S 0.90971 0.03646 0.82368 0.0
N2169 N 0.89898 0.0565 0.84471 0.0
N2170 N 0.92057 0.0536 0.80032 0.0
C2171 C 0.91552 0.07704 0.80893 0.0
C2172 C 0.90369 0.07857 0.83294 0.0
C2173 C 0.58407 0.45706 0.82768 0.0
C2174 C 0.59007 0.43979 0.8086 0.0
C2175 C 0.59631 0.45656 0.85098 0.0
C2176 C 0.61521 0.43897 0.85599 0.0
H2177 H 0.5685 0.46987 0.82533 0.0
H2178 H 0.58962 0.46872 0.86582 0.0
S2179 S 0.64058 0.39207 0.8116 0.0
N2180 N 0.61835 0.40647 0.79553 0.0
N2181 N 0.64125 0.40568 0.83945 0.0
C2182 C 0.62306 0.42321 0.83645 0.0
C2183 C 0.61057 0.42364 0.81265 0.0
C2184 C 0.99684 0.65919 0.35189 0.0
C2185 C 0.99473 0.68544 0.35159 0.0
C2186 C 1.00677 0.64615 0.33129 0.0
C2187 C 0.01445 0.65883 0.30948 0.0
H2188 H 0.99147 0.6487 0.36843 0.0
H2189 H 1.00858 0.62598 0.33254 0.0
S2190 S 0.01193 0.72749 0.29897 0.0
N2191 N 1.00078 0.72366 0.32758 0.0
N2192 N 0.01883 0.69912 0.2887 0.0
C2193 C 0.01207 0.68504 0.30881 0.0
C2194 C 1.00235 0.69835 0.32991 0.0
C2195 C 0.83183 0.01649 0.34531 0.0
C2196 C 0.83509 0.99177 0.35397 0.0
C2197 C 0.84566 0.02581 0.32508 0.0
C2198 C 0.8634 0.01085 0.31277 0.0
H2199 H 0.81843 0.02889 0.35416 0.0
H2200 H 0.84239 0.04492 0.31907 0.0
S2201 S 0.87872 0.94467 0.32727 0.0
N2202 N 0.85724 0.95235 0.34818 0.0
N2203 N 0.88337 0.97003 0.31019 0.0
C2204 C 0.86707 0.98618 0.32121 0.0
C2205 C 0.85289 0.97659 0.3418 0.0
C2206 C 0.52508 0.84442 0.30562 0.0
C2207 C 0.50764 0.864 0.30796 0.0
C2208 C 0.53518 0.83265 0.32698 0.0
C2209 C 0.52843 0.84033 0.35138 0.0
H2210 H 0.53054 0.83781 0.2872 0.0
H2211 H 0.54811 0.81725 0.3243 0.0
S2212 S 0.48497 0.89251 0.36715 0.0
N2213 N 0.48501 0.89147 0.33627 0.0
N2214 N 0.50416 0.8701 0.37622 0.0
C2215 C 0.51161 0.86059 0.35375 0.0
C2216 C 0.50115 0.87221 0.3321 0.0
C2217 C 0.67963 0.52394 0.31045 0.0
C2218 C 0.65491 0.51483 0.31176 0.0
C2219 C 0.69153 0.53424 0.33166 0.0
C2220 C 0.67911 0.53561 0.35491 0.0
H2221 H 0.69008 0.52258 0.2931 0.0
H2222 H 0.71088 0.54022 0.33003 0.0
S2223 S 0.61332 0.51644 0.36749 0.0
N2224 N 0.61782 0.50942 0.33769 0.0
N2225 N 0.64 0.52872 0.37737 0.0
C2226 C 0.654 0.5275 0.35611 0.0
C2227 C 0.64195 0.51711 0.33458 0.0
C2228 C 0.98529 0.86056 0.17121 0.0
C2229 C 0.98697 0.83424 0.17077 0.0
C2230 C 0.99485 0.87446 0.19146 0.0
C2231 C 1.00638 0.86252 0.21195 0.0
H2232 H 0.97737 0.87059 0.15541 0.0
H2233 H 0.99373 0.89472 0.19076 0.0
S2234 S 0.01277 0.79397 0.22138 0.0
N2235 N 0.99908 0.79673 0.19373 0.0
N2236 N 0.0171 0.82287 0.23159 0.0
C2237 C 1.00719 0.83622 0.21227 0.0
C2238 C 0.99747 0.82207 0.19173 0.0
C2239 C 0.6495 0.01752 0.18454 0.0
C2240 C 0.65903 0.01385 0.20882 0.0
C2241 C 0.66172 1.00782 0.16348 0.0
C2242 C 0.68423 0.99414 0.16567 0.0
H2243 H 0.63238 0.02806 0.18168 0.0
H2244 H 0.65342 0.0114 0.14528 0.0
S2245 S 0.71712 0.97946 0.22539 0.0
N2246 N 0.69217 0.99552 0.23415 0.0
N2247 N 0.71552 0.97745 0.19449 0.0
C2248 C 0.69392 0.99013 0.18998 0.0
C2249 C 0.68125 0.99996 0.21155 0.0
C2250 C 0.50156 0.68539 0.17218 0.0
C2251 C 0.52735 0.69035 0.16984 0.0
C2252 C 0.49174 0.67468 0.19401 0.0
C2253 C 0.5074 0.66806 0.21417 0.0
H2254 H 0.48884 0.68967 0.15689 0.0
H2255 H 0.47178 0.67091 0.19475 0.0
S2256 S 0.57641 0.67694 0.21721 0.0
N2257 N 0.5684 0.68819 0.18947 0.0
N2258 N 0.55009 0.66738 0.23044 0.0
C2259 C 0.53324 0.67321 0.21222 0.0
C2260 C 0.54319 0.68455 0.19006 0.0
C2261 C 0.83586 0.51887 0.21327 0.0
C2262 C 0.86094 0.51089 0.21226 0.0
C2263 C 0.82411 0.52946 0.19221 0.0
C2264 C 0.83701 0.53228 0.16934 0.0
H2265 H 0.82509 0.51659 0.23032 0.0
H2266 H 0.80457 0.53473 0.1937 0.0
S2267 S 0.90356 0.51538 0.15746 0.0
N2268 N 0.89866 0.50738 0.18693 0.0
N2269 N 0.87679 0.52724 0.14749 0.0
C2270 C 0.86238 0.52498 0.16839 0.0
C2271 C 0.87429 0.51429 0.18981 0.0
C2272 C 0.30886 0.98729 0.6757 0.0
C2273 C 0.30878 0.01212 0.66677 0.0
C2274 C 0.33053 0.9768 0.68648 0.0
C2275 C 0.35288 0.99069 0.68818 0.0
H2276 H 0.29216 0.9758 0.67411 0.0
H2277 H 0.33 0.95753 0.69282 0.0
S2278 S 0.36216 0.05688 0.66872 0.0
N2279 N 0.3327 0.0506 0.66142 0.0
N2280 N 0.3733 0.0309 0.68122 0.0
C2281 C 0.35285 0.01568 0.67976 0.0
C2282 C 0.33082 0.02641 0.66917 0.0
C2283 C 0.52526 0.33367 0.64604 0.0
C2284 C 0.51818 0.31219 0.65952 0.0
C2285 C 0.53447 0.35497 0.65842 0.0
C2286 C 0.53742 0.35535 0.68465 0.0
H2287 H 0.52299 0.33433 0.62585 0.0
H2288 H 0.53897 0.37141 0.64739 0.0
S2289 S 0.5227 0.30346 0.72844 0.0
N2290 N 0.51542 0.29228 0.70044 0.0
N2291 N 0.53324 0.33218 0.72365 0.0
C2292 C 0.53131 0.33367 0.69827 0.0
C2293 C 0.52151 0.31212 0.6857 0.0
C2294 C 0.19232 0.53034 0.69325 0.0
C2295 C 0.16915 0.53231 0.68064 0.0
C2296 C 0.21347 0.52021 0.68128 0.0
C2297 C 0.21222 0.5118 0.65629 0.0
H2298 H 0.19397 0.53589 0.71274 0.0
H2299 H 0.23076 0.51849 0.69185 0.0
S2300 S 0.15664 0.51453 0.61427 0.0
N2301 N 0.14682 0.52638 0.6411 0.0
N2302 N 0.18636 0.5073 0.6189 0.0
C2303 C 0.18946 0.51448 0.6432 0.0
C2304 C 0.16799 0.52476 0.6553 0.0
C2305 C 1.00901 0.21535 0.67857 0.0
C2306 C 0.01254 0.2127 0.65258 0.0
C2307 C 0.9992 0.19564 0.69293 0.0
C2308 C 0.99186 0.17293 0.68165 0.0
H2309 H 0.01458 0.23248 0.68802 0.0
H2310 H 0.99748 0.19814 0.71303 0.0
S2311 S 0.99639 0.15693 0.61407 0.0
N2312 N 1.00762 0.18574 0.61606 0.0
N2313 N 0.98834 0.14906 0.6429 0.0
C2314 C 0.99455 0.17034 0.65555 0.0
C2315 C 1.00514 0.19014 0.64104 0.0
C2316 C 0.33015 0.49478 0.85544 0.0
C2317 C 0.30695 0.50713 0.85397 0.0
C2318 C 0.35188 0.50551 0.84547 0.0
C2319 C 0.35125 0.52883 0.83318 0.0
H2320 H 0.3317 0.47688 0.86487 0.0
H2321 H 0.36933 0.49528 0.8473 0.0
S2322 S 0.29499 0.56849 0.82372 0.0
N2323 N 0.28444 0.54382 0.83916 0.0
N2324 N 0.32534 0.56377 0.81972 0.0
C2325 C 0.32806 0.54117 0.83108 0.0
C2326 C 0.30591 0.5304 0.84168 0.0
C2327 C 1.00117 0.30509 0.84173 0.0
C2328 C 0.01413 0.30839 0.86451 0.0
C2329 C 0.99184 0.32576 0.82826 0.0
C2330 C 0.99491 0.35044 0.83726 0.0
H2331 H 0.99872 0.28647 0.83396 0.0
H2332 H 0.98257 0.32234 0.81049 0.0
S2333 S 0.02544 0.3686 0.89761 0.0
N2334 N 0.0283 0.33787 0.8963 0.0
N2335 N 0.01043 0.37649 0.87173 0.0
C2336 C 1.00705 0.35374 0.86066 0.0
C2337 C 0.01677 0.33279 0.87406 0.0
C2338 C 0.18447 0.98885 0.82893 0.0
C2339 C 0.16103 0.98927 0.84108 0.0
C2340 C 0.20619 0.99814 0.84077 0.0
C2341 C 0.20525 1.00824 0.86514 0.0
H2342 H 0.18597 0.98202 0.80984 0.0
H2343 H 0.2237 0.99798 0.83051 0.0
S2344 S 0.14924 0.01113 0.90628 0.0
N2345 N 0.13881 0.99871 0.87986 0.0
N2346 N 0.17941 0.01635 0.90177 0.0
C2347 C 0.18218 1.00789 0.87786 0.0
C2348 C 0.16015 0.99835 0.86593 0.0
C2349 C 0.51606 0.16591 0.85823 0.0
C2350 C 0.52729 0.16685 0.83434 0.0
C2351 C 0.50567 0.18723 0.86932 0.0
C2352 C 0.50602 0.21052 0.85711 0.0
H2353 H 0.5151 0.14848 0.86858 0.0
H2354 H 0.4972 0.18534 0.88767 0.0
S2355 S 0.53307 0.2236 0.79446 0.0
N2356 N 0.53815 0.1934 0.79883 0.0
N2357 N 0.51856 0.23357 0.81993 0.0
C2358 C 0.51727 0.21199 0.83335 0.0
C2359 C 0.52797 0.19017 0.82194 0.0
C2360 C 0.66173 0.35383 0.99902 0.0
C2361 C 0.68529 0.35206 0.98727 0.0
C2362 C 0.65007 0.33286 1.00944 0.0
C2363 C 0.66135 0.30913 1.00848 0.0
H2364 H 0.65223 0.37169 1.00056 0.0
H2365 H 0.63208 0.33538 0.0185 0.0
S2366 S 0.72258 0.2939 0.97939 0.0
N2367 N 0.71934 0.32434 0.97491 0.0
N2368 N 0.69709 0.28471 0.99437 0.0
C2369 C 0.68459 0.30679 0.9963 0.0
C2370 C 0.69661 0.32828 0.98567 0.0
C2371 C 0.66441 0.20391 0.52842 0.0
C2372 C 0.6602 0.20712 0.50253 0.0
C2373 C 0.67681 0.18261 0.53769 0.0
C2374 C 0.68583 0.16402 0.52135 0.0
H2375 H 0.65809 0.21797 0.54165 0.0
H2376 H 0.67987 0.18098 0.55772 0.0
S2377 S 0.67769 0.16226 0.45222 0.0
N2378 N 0.66454 0.18889 0.46088 0.0
N2379 N 0.68833 0.14932 0.47825 0.0
C2380 C 0.68133 0.16674 0.49549 0.0
C2381 C 0.66839 0.18818 0.48609 0.0
C2382 C 0.33099 0.68968 0.53093 0.0
C2383 C 0.35525 0.67938 0.52906 0.0
C2384 C 0.30996 0.67713 0.521 0.0
C2385 C 0.31242 0.65385 0.50886 0.0
H2386 H 0.32824 0.70782 0.53963 0.0
H2387 H 0.29171 0.68588 0.52257 0.0
S2388 S 0.37135 0.61794 0.50014 0.0
N2389 N 0.38005 0.64361 0.51511 0.0
N2390 N 0.34079 0.62056 0.49619 0.0
C2391 C 0.33641 0.6431 0.50728 0.0
C2392 C 0.35774 0.65571 0.51748 0.0
C2393 C 0.84172 0.3093 0.52303 0.0
C2394 C 0.86668 0.31146 0.51483 0.0
C2395 C 0.82874 0.33009 0.53254 0.0
C2396 C 0.8402 0.35383 0.53381 0.0
H2397 H 0.83205 0.29145 0.52187 0.0
H2398 H 0.80936 0.32768 0.53809 0.0
S2399 S 0.90568 0.36905 0.51535 0.0
N2400 N 0.90262 0.33888 0.50915 0.0
N2401 N 0.87845 0.37794 0.52699 0.0
C2402 C 0.86542 0.35603 0.52618 0.0
C2403 C 0.8786 0.33485 0.51666 0.0
C2404 C 0.20005 0.84211 0.48994 0.0
C2405 C 0.21259 0.85978 0.50495 0.0
C2406 C 0.17895 0.82924 0.49886 0.0
C2407 C 0.16935 0.83369 0.5231 0.0
H2408 H 0.20665 0.83806 0.47115 0.0
H2409 H 0.17007 0.81575 0.48649 0.0
S2410 S 0.19509 0.87891 0.56949 0.0
N2411 N 0.21382 0.88152 0.54503 0.0
N2412 N 0.17397 0.85757 0.56177 0.0
C2413 C 0.1816 0.8516 0.5382 0.0
C2414 C 0.20327 0.86455 0.52915 0.0
C2415 C 0.85707 0.16917 1.00831 0.0
C2416 C 0.83791 0.17173 0.99022 0.0
C2417 C 0.86836 0.19005 0.01947 0.0
C2418 C 0.86127 0.21448 0.01289 0.0
H2419 H 0.8633 0.15083 0.01434 0.0
H2420 H 0.88289 0.18693 0.03336 0.0
S2421 S 0.81258 0.23194 0.96633 0.0
N2422 N 0.8125 0.20098 0.96611 0.0
N2423 N 0.83419 0.24035 0.98697 0.0
C2424 C 0.84241 0.21755 0.99467 0.0
C2425 C 0.83062 0.19616 0.98339 0.0
C2426 C 0.34789 0.83855 0.02271 0.0
C2427 C 0.35198 0.83526 0.99684 0.0
C2428 C 0.32685 0.85144 0.03164 0.0
C2429 C 0.3088 0.86118 0.01507 0.0
H2430 H 0.36114 0.83116 0.03624 0.0
H2431 H 0.32459 0.85352 0.05172 0.0
S2432 S 0.31061 0.85748 0.94555 0.0
N2433 N 0.33641 0.843 0.95471 0.0
N2434 N 0.29643 0.86676 0.97147 0.0
C2435 C 0.31267 0.85813 0.98912 0.0
C2436 C 0.33439 0.84534 0.98001 0.0
C2437 C 0.18769 0.68688 0.98497 0.0
C2438 C 0.16437 0.68565 0.99725 0.0
C2439 C 0.20921 0.67576 0.99543 0.0
C2440 C 0.20828 0.66356 0.0188 0.0
H2441 H 0.1892 0.69599 0.96689 0.0
H2442 H 0.22666 0.67665 0.98511 0.0
S2443 S 0.15211 0.65615 0.05918 0.0
N2444 N 0.14192 0.67174 0.03448 0.0
N2445 N 0.18226 0.65139 0.05417 0.0
C2446 C 0.18524 0.66274 0.03154 0.0
C2447 C 0.16332 0.67363 0.02075 0.0
C2448 C 0.01764 0.35575 0.66108 0.0
C2449 C 0.0308 0.33288 0.66188 0.0
C2450 C 1.00808 0.36682 0.6828 0.0
C2451 C 0.01138 0.35575 0.70645 0.0
H2452 H 0.01441 0.36526 0.64343 0.0
H2453 H 0.99796 0.38431 0.68095 0.0
S2454 S 0.04441 0.29604 0.71938 0.0
N2455 N 0.04662 0.2995 0.68867 0.0
N2456 N 0.02883 0.32072 0.72968 0.0
C2457 C 0.02474 0.3331 0.70781 0.0
C2458 C 0.03443 0.3216 0.68552 0.0
C2459 C 0.15652 0.02368 0.67312 0.0
C2460 C 0.18121 0.03298 0.6754 0.0
C2461 C 0.14394 0.01318 0.69353 0.0
C2462 C 0.15529 0.01174 0.71725 0.0
H2463 H 0.14689 0.02375 0.65521 0.0
H2464 H 0.1252 1.00584 0.69055 0.0
S2465 S 0.2187 0.0349 0.73425 0.0
N2466 N 0.21603 0.0411 0.70401 0.0
N2467 N 0.19196 0.02165 0.74253 0.0
C2468 C 0.17945 0.02188 0.7203 0.0
C2469 C 0.19249 0.03245 0.69936 0.0
C2470 C 0.4928 0.16037 0.67227 0.0
C2471 C 0.49481 0.18665 0.67142 0.0
C2472 C 0.50296 0.14671 0.69239 0.0
C2473 C 0.51503 0.15892 0.71251 0.0
H2474 H 0.48403 0.15022 0.65695 0.0
H2475 H 0.50141 0.12647 0.69212 0.0
S2476 S 0.52418 0.22749 0.71973 0.0
N2477 N 0.50924 0.22436 0.69274 0.0
N2478 N 0.52782 0.19878 0.73063 0.0
C2479 C 0.5166 0.18519 0.71215 0.0
C2480 C 0.50663 0.19904 0.69156 0.0
C2481 C 0.33965 0.5023 0.71282 0.0
C2482 C 0.36458 0.51083 0.71125 0.0
C2483 C 0.32737 0.49199 0.69181 0.0
C2484 C 0.3396 0.48994 0.6685 0.0
H2485 H 0.32938 0.50405 0.73024 0.0
H2486 H 0.30794 0.48636 0.6937 0.0
S2487 S 0.4057 0.50779 0.65521 0.0
N2488 N 0.40153 0.51527 0.68495 0.0
N2489 N 0.37875 0.49582 0.64572 0.0
C2490 C 0.36488 0.49759 0.66704 0.0
C2491 C 0.37729 0.50807 0.68834 0.0
C2492 C 0.02205 0.18421 0.81176 0.0
C2493 C 0.01813 0.15814 0.81142 0.0
C2494 C 0.03129 0.19634 0.83327 0.0
C2495 C 0.03647 0.18283 0.85531 0.0
H2496 H 0.01762 0.19541 0.79541 0.0
H2497 H 0.03337 0.21653 0.83294 0.0
S2498 S 0.03038 0.11401 0.86363 0.0
N2499 N 0.02118 0.11904 0.8345 0.0
N2500 N 0.03809 0.14175 0.87504 0.0
C2501 C 0.03326 0.15662 0.85493 0.0
C2502 C 0.0242 0.14429 0.83294 0.0
C2503 C 0.34541 0.02393 0.8075 0.0
C2504 C 0.35811 1.00085 0.80883 0.0
C2505 C 0.33266 0.03368 0.82843 0.0
C2506 C 0.33278 0.02095 0.8515 0.0
H2507 H 0.34531 0.03451 0.79018 0.0
H2508 H 0.32322 0.05155 0.82671 0.0
S2509 S 0.36274 0.9596 0.86462 0.0
N2510 N 0.36938 0.96526 0.83493 0.0
N2511 N 0.34606 0.98377 0.87424 0.0
C2512 C 0.3453 0.99781 0.85298 0.0
C2513 C 0.3578 0.9877 0.83164 0.0
C2514 C 0.52775 0.3578 0.8294 0.0
C2515 C 0.51473 0.35872 0.80649 0.0
C2516 C 0.51712 0.3466 0.85056 0.0
C2517 C 0.49319 0.33545 0.84959 0.0
H2518 H 0.54617 0.36623 0.8312 0.0
H2519 H 0.52791 0.34654 0.86781 0.0
S2520 S 0.45144 0.33255 0.79393 0.0
N2521 N 0.47663 0.34756 0.78392 0.0
N2522 N 0.45681 0.32585 0.82371 0.0
C2523 C 0.48008 0.33584 0.82668 0.0
C2524 C 0.49079 0.34768 0.80513 0.0
C2525 C 0.18146 0.49937 0.80589 0.0
C2526 C 0.15684 0.50864 0.80748 0.0
C2527 C 0.19355 0.4892 0.82699 0.0
C2528 C 0.18146 0.48811 0.85043 0.0
H2529 H 0.19162 0.50038 0.78835 0.0
H2530 H 0.21277 0.48297 0.82508 0.0
S2531 S 0.11615 0.50817 0.86388 0.0
N2532 N 0.12031 0.51485 0.83398 0.0
N2533 N 0.14279 0.49568 0.87343 0.0
C2534 C 0.1565 0.49655 0.85196 0.0
C2535 C 0.14426 0.50685 0.83055 0.0
C2536 C 0.66766 0.02977 0.35987 0.0
C2537 C 0.66834 0.03336 0.33373 0.0
C2538 C 0.68844 0.02049 0.37286 0.0
C2539 C 0.7106 0.01424 0.36018 0.0
H2540 H 0.65073 0.03373 0.37037 0.0
H2541 H 0.68684 0.01754 0.3929 0.0
S2542 S 0.72253 0.02118 0.292 0.0
N2543 N 0.69338 0.03092 0.29574 0.0
N2544 N 0.73254 0.01323 0.32023 0.0
C2545 C 0.71188 0.0184 0.33417 0.0
C2546 C 0.69073 0.02812 0.32092 0.0
C2547 C 0.51772 0.67088 0.34267 0.0
C2548 C 0.49276 0.67 0.33408 0.0
C2549 C 0.52804 0.69294 0.35252 0.0
C2550 C 0.51365 0.71487 0.35465 0.0
H2551 H 0.52953 0.65441 0.34156 0.0
H2552 H 0.54732 0.69264 0.35898 0.0
S2553 S 0.44713 0.72227 0.33556 0.0
N2554 N 0.45385 0.69291 0.32838 0.0
N2555 N 0.47303 0.73433 0.34767 0.0
C2556 C 0.48861 0.71427 0.34628 0.0
C2557 C 0.47822 0.69186 0.33577 0.0
C2558 C 0.80406 0.49468 0.34586 0.0
C2559 C 0.80552 0.51767 0.35874 0.0
C2560 C 0.82541 0.48399 0.33476 0.0
C2561 C 0.84903 0.49564 0.33677 0.0
H2562 H 0.7863 0.4849 0.3443 0.0
H2563 H 0.82349 0.46629 0.32496 0.0
S2564 S 0.86277 0.55613 0.36865 0.0
N2565 N 0.83238 0.55186 0.37269 0.0
N2566 N 0.87247 0.53166 0.35242 0.0
C2567 C 0.85068 0.51864 0.34969 0.0
C2568 C 0.82892 0.5297 0.36052 0.0
C2569 C 0.03104 0.8513 0.35953 0.0
C2570 C 0.02488 0.85513 0.33415 0.0
C2571 C 0.02136 0.83076 0.37282 0.0
C2572 C 1.00544 0.81319 0.36111 0.0
H2573 H 0.04302 0.8645 0.36936 0.0
H2574 H 0.02644 0.82862 0.39239 0.0
S2575 S 0.98441 0.81416 0.29471 0.0
N2576 N 1.00227 0.83929 0.29768 0.0
N2577 N 0.98436 0.8007 0.32256 0.0
C2578 C 0.99937 0.81666 0.33569 0.0
C2579 C 1.00903 0.83762 0.32224 0.0
C2580 C 0.69124 0.49286 0.19798 0.0
C2581 C 0.66889 0.48726 0.18496 0.0
C2582 C 0.71211 0.50291 0.18545 0.0
C2583 C 0.71139 0.50757 0.15949 0.0
H2584 H 0.69231 0.49041 0.21812 0.0
H2585 H 0.72867 0.50765 0.19628 0.0
S2586 S 0.65844 0.49355 0.11634 0.0
N2587 N 0.64815 0.48521 0.14428 0.0
N2588 N 0.68723 0.504 0.12089 0.0
C2589 C 0.68961 0.50096 0.1461 0.0
C2590 C 0.66841 0.49082 0.1588 0.0
C2591 C 0.02164 0.66288 0.15768 0.0
C2592 C 0.02818 0.66406 0.1833 0.0
C2593 C 0.01236 0.6839 0.14503 0.0
C2594 C 1.00897 0.70678 0.15756 0.0
H2595 H 0.02359 0.64553 0.14727 0.0
H2596 H 1.00742 0.68206 0.12538 0.0
S2597 S 0.02333 0.72007 0.2244 0.0
N2598 N 0.03088 0.69031 0.2206 0.0
N2599 N 0.01314 0.72971 0.19679 0.0
C2600 C 0.01557 0.70838 0.18305 0.0
C2601 C 0.02533 0.68706 0.19591 0.0
C2602 C 0.83192 0.01086 0.14683 0.0
C2603 C 0.80963 1.00448 0.15941 0.0
C2604 C 0.85246 0.02114 0.15978 0.0
C2605 C 0.85165 0.02468 0.18588 0.0
H2606 H 0.83354 1.00783 0.12681 0.0
H2607 H 0.86932 0.02565 0.14942 0.0
S2608 S 0.79798 0.01066 0.22773 0.0
N2609 N 0.78799 1.00261 0.19948 0.0
N2610 N 0.82696 0.02097 0.22394 0.0
C2611 C 0.82963 0.01812 0.19875 0.0
C2612 C 0.80852 1.00822 0.18549 0.0
C2613 C 0.48574 0.82917 0.18966 0.0
C2614 C 0.49261 0.85353 0.18204 0.0
C2615 C 0.49613 0.80779 0.17813 0.0
C2616 C 0.51411 0.8101 0.15901 0.0
H2617 H 0.47231 0.82657 0.20465 0.0
H2618 H 0.49045 0.7894 0.18456 0.0
S2619 S 0.53772 0.86915 0.13109 0.0
N2620 N 0.51798 0.87824 0.15302 0.0
N2621 N 0.53751 0.83831 0.13213 0.0
C2622 C 0.52086 0.83419 0.15098 0.0
C2623 C 0.51011 0.85583 0.16229 0.0
C2624 C 0.33708 0.71053 0.02705 0.0
C2625 C 0.36261 0.70903 0.02067 0.0
C2626 C 0.32412 0.68952 0.03611 0.0
C2627 C 0.33621 0.66625 0.03862 0.0
H2628 H 0.32695 0.72794 0.02466 0.0
H2629 H 0.30429 0.69128 0.04012 0.0
S2630 S 0.40319 0.65291 0.02525 0.0
N2631 N 0.39977 0.68284 0.01844 0.0
N2632 N 0.37545 0.64328 0.035 0.0
C2633 C 0.36194 0.66477 0.03295 0.0
C2634 C 0.37515 0.68619 0.02409 0.0
C2635 C 0.37326 0.83158 0.51575 0.0
C2636 C 0.36186 0.80788 0.51436 0.0
C2637 C 0.36173 0.85283 0.5056 0.0
C2638 C 0.33821 0.85124 0.49354 0.0
H2639 H 0.39132 0.83389 0.52498 0.0
H2640 H 0.37129 0.8706 0.50746 0.0
S2641 S 0.30071 0.79311 0.48444 0.0
N2642 N 0.32603 0.78376 0.49965 0.0
N2643 N 0.30412 0.8236 0.48049 0.0
C2644 C 0.32676 0.82748 0.4917 0.0
C2645 C 0.33855 0.8058 0.50212 0.0
C2646 C 0.71234 0.33726 0.50455 0.0
C2647 C 0.71018 0.36021 0.51737 0.0
C2648 C 0.69103 0.32489 0.49496 0.0
C2649 C 0.66681 0.33501 0.49794 0.0
H2650 H 0.73057 0.32873 0.502 0.0
H2651 H 0.69357 0.30711 0.48548 0.0
S2652 S 0.65139 0.39527 0.52954 0.0
N2653 N 0.68209 0.39284 0.53215 0.0
N2654 N 0.64229 0.37001 0.51414 0.0
C2655 C 0.66458 0.35821 0.51048 0.0
C2656 C 0.68619 0.37069 0.52019 0.0
C2657 C 0.16037 0.66718 0.48439 0.0
C2658 C 0.18672 0.66685 0.48289 0.0
C2659 C 0.14761 0.68831 0.49318 0.0
C2660 C 0.16075 0.70972 0.50116 0.0
H2661 H 0.14951 0.65076 0.47924 0.0
H2662 H 0.12735 0.6875 0.49448 0.0
S2663 S 0.22973 0.71897 0.49972 0.0
N2664 N 0.22545 0.69026 0.48888 0.0
N2665 N 0.20144 0.72994 0.5058 0.0
C2666 C 0.18703 0.71002 0.49896 0.0
C2667 C 0.20004 0.68859 0.48966 0.0
C2668 C 0.84838 0.16139 0.4844 0.0
C2669 C 0.85218 0.18636 0.49208 0.0
C2670 C 0.82815 0.14732 0.49358 0.0
C2671 C 0.81094 0.15779 0.51057 0.0
H2672 H 0.86138 0.15248 0.47161 0.0
H2673 H 0.82605 0.12808 0.48736 0.0
S2674 S 0.81187 0.22272 0.53561 0.0
N2675 N 0.83659 0.22117 0.5171 0.0
N2676 N 0.79862 0.19477 0.5342 0.0
C2677 C 0.81432 0.18281 0.5181 0.0
C2678 C 0.83494 0.19708 0.50889 0.0
C2679 C 0.18219 0.80798 0.01314 0.0
C2680 C 0.1559 0.80758 0.01093 0.0
C2681 C 0.19473 0.82886 0.02328 0.0
C2682 C 0.18136 0.8501 0.03137 0.0
H2683 H 0.19322 0.79231 1.00646 0.0
H2684 H 0.21504 0.82875 0.02385 0.0
S2685 S 0.11212 0.85724 0.03231 0.0
N2686 N 0.11682 0.82944 0.01955 0.0
N2687 N 0.1403 0.86852 0.03853 0.0
C2688 C 0.15501 0.84944 0.03025 0.0
C2689 C 0.14229 0.82822 0.02005 0.0
C2690 C 0.68925 0.15372 1.00147 0.0
C2691 C 0.71348 0.16201 1.00772 0.0
C2692 C 0.66801 0.165 0.01176 0.0
C2693 C 0.67001 0.18524 0.02867 0.0
H2694 H 0.68657 0.13836 0.9884 0.0
H2695 H 0.64984 0.1579 1.00599 0.0
S2696 S 0.7295 0.21346 0.0518 0.0
N2697 N 0.73856 0.19112 0.03236 0.0
N2698 N 0.69853 0.21264 0.05173 0.0
C2699 C 0.69424 0.19354 0.03537 0.0
C2700 C 0.71598 0.18188 0.02488 0.0
C2701 C 0.85264 0.3441 1.00116 0.0
C2702 C 0.85224 0.33317 0.02518 0.0
C2703 C 0.83086 0.35375 0.9902 0.0
C2704 C 0.80787 0.35328 1.00297 0.0
H2705 H 0.86996 0.34525 0.99063 0.0
H2706 H 0.83227 0.3623 0.97183 0.0
S2707 S 0.79645 0.32636 0.06602 0.0
N2708 N 0.82668 0.32178 0.06112 0.0
N2709 N 0.78571 0.34059 0.04068 0.0
C2710 C 0.80702 0.34215 0.02685 0.0
C2711 C 0.82921 0.33189 0.03789 0.0
C2712 C 0.07914 0.62713 0.0436 0.0
C2713 C 0.07169 0.65214 0.04739 0.0
C2714 C 0.08665 0.61202 0.06376 0.0
C2715 C 0.08672 0.6212 0.08853 0.0
H2716 H 0.08062 0.61954 0.02481 0.0
H2717 H 0.09364 0.59337 0.05983 0.0
S2718 S 0.06673 0.68437 0.10908 0.0
N2719 N 0.06291 0.68465 0.07834 0.0
N2720 N 0.07714 0.6561 0.11604 0.0
C2721 C 0.07771 0.64549 0.09285 0.0
C2722 C 0.07017 0.66099 0.07233 0.0
C2723 C 0.90694 0.10035 0.05857 0.0
C2724 C 0.89918 0.09503 0.08322 0.0
C2725 C 0.89335 0.09159 0.03774 0.0
C2726 C 0.8713 0.07736 0.04075 0.0
H2727 H 0.92318 0.11215 0.05539 0.0
H2728 H 0.89951 0.09718 0.01923 0.0
S2729 S 0.84403 0.05701 0.10147 0.0
N2730 N 0.86897 0.07354 0.10951 0.0
N2731 N 0.84342 0.05688 0.07053 0.0
C2732 C 0.86417 0.07075 0.06535 0.0
C2733 C 0.8781 0.07962 0.08653 0.0
C2734 C 0.4173 0.88299 0.04331 0.0
C2735 C 0.43068 0.86048 0.046 0.0
C2736 C 0.41106 0.89758 0.06421 0.0
C2737 C 0.41797 0.89033 0.08866 0.0
H2738 H 0.41054 0.88888 0.02508 0.0
H2739 H 0.39983 0.91423 0.0613 0.0
S2740 S 0.4565 0.83513 0.10561 0.0
N2741 N 0.45327 0.83317 0.07483 0.0
N2742 N 0.44118 0.86062 0.11415 0.0
C2743 C 0.43289 0.86887 0.0915 0.0
C2744 C 0.43925 0.8539 0.07017 0.0
C2745 C 0.65816 0.43036 0.09647 0.0
C2746 C 0.63223 0.42666 0.09402 0.0
C2747 C 0.67271 0.43767 0.07583 0.0
C2748 C 0.66188 0.44129 0.05191 0.0
H2749 H 0.66744 0.42621 0.11408 0.0
H2750 H 0.69281 0.43917 0.07843 0.0
S2751 S 0.59398 0.43674 0.03687 0.0
N2752 N 0.59581 0.42924 0.06687 0.0
N2753 N 0.62296 0.44305 0.02796 0.0
C2754 C 0.63561 0.43935 0.0498 0.0
C2755 C 0.62085 0.43191 0.07086 0.0
C2756 C 0.08691 0.85551 0.45262 0.0
C2757 C 0.09151 0.86325 0.47757 0.0
C2758 C 0.09201 0.87135 0.43218 0.0
C2759 C 0.10196 0.89544 0.43597 0.0
H2760 H 0.08016 0.83674 0.44875 0.0
H2761 H 0.08948 0.8642 0.4133 0.0
S2762 S 0.11485 0.92593 0.49726 0.0
N2763 N 0.10464 0.89769 0.50466 0.0
N2764 N 0.11414 0.9272 0.46632 0.0
C2765 C 0.10519 0.90397 0.46075 0.0
C2766 C 0.09998 0.88796 0.48152 0.0
C2767 C 0.62476 0.1037 0.4525 0.0
C2768 C 0.63462 0.10024 0.42829 0.0
C2769 C 0.63874 0.09772 0.47394 0.0
C2770 C 0.66329 0.0883 0.47202 0.0
H2771 H 0.60644 0.11212 0.45488 0.0
H2772 H 0.63061 0.10164 0.49212 0.0
S2773 S 0.69687 0.07402 0.41267 0.0
N2774 N 0.66959 0.08539 0.40342 0.0
N2775 N 0.69612 0.07402 0.44364 0.0
C2776 C 0.67288 0.08355 0.4478 0.0
C2777 C 0.65847 0.08953 0.42595 0.0
C2778 C 0.42933 0.61599 0.45744 0.0
C2779 C 0.43238 0.62466 0.43272 0.0
C2780 C 0.43829 0.62978 0.47796 0.0
C2781 C 0.45048 0.65295 0.47461 0.0
H2782 H 0.41899 0.59887 0.46099 0.0
H2783 H 0.43432 0.62285 0.49662 0.0
S2784 S 0.46602 0.6823 0.41333 0.0
N2785 N 0.45053 0.65653 0.40579 0.0
N2786 N 0.46758 0.68254 0.44428 0.0
C2787 C 0.45529 0.66092 0.44983 0.0
C2788 C 0.44619 0.64675 0.42891 0.0
C2789 C 0.88662 0.43174 0.47844 0.0
C2790 C 0.86574 0.44766 0.47608 0.0
C2791 C 0.89833 0.42151 0.45728 0.0
C2792 C 0.88984 0.42696 0.43287 0.0
H2793 H 0.89317 0.42593 0.49677 0.0
H2794 H 0.91363 0.40847 0.46009 0.0
S2795 S 0.83839 0.47058 0.41614 0.0
N2796 N 0.83893 0.47073 0.44713 0.0
N2797 N 0.861 0.45135 0.40741 0.0
C2798 C 0.87029 0.44437 0.43011 0.0
C2799 C 0.85823 0.45475 0.4517 0.0
C2800 C 0.06718 0.09863 0.6686 0.0
C2801 C 0.04321 0.09548 0.65777 0.0
C2802 C 0.08879 0.10035 0.65375 0.0
C2803 C 0.08726 0.09898 0.62752 0.0
H2804 H 0.06926 0.10077 0.68871 0.0
H2805 H 0.10659 0.10436 0.66275 0.0
S2806 S 0.02967 0.08935 0.58971 0.0
N2807 N 0.01968 0.08954 0.61902 0.0
N2808 N 0.06039 0.09323 0.59121 0.0
C2809 C 0.06374 0.09462 0.61644 0.0
C2810 C 0.04169 0.0927 0.63154 0.0
C2811 C 0.44215 0.06824 0.66165 0.0
C2812 C 0.43909 0.04342 0.65309 0.0
C2813 C 0.43524 0.08871 0.64669 0.0
C2814 C 0.42471 0.08498 0.62282 0.0
H2815 H 0.44877 0.07186 0.68055 0.0
H2816 H 0.43653 0.10743 0.65452 0.0
S2817 S 0.41518 0.02407 0.59058 0.0
N2818 N 0.42695 0.0165 0.61823 0.0
N2819 N 0.41369 0.05497 0.59028 0.0
C2820 C 0.42314 0.06041 0.61337 0.0
C2821 C 0.43044 0.0396 0.62845 0.0
C2822 C 0.45247 0.45287 0.66185 0.0
C2823 C 0.47714 0.44773 0.65383 0.0
C2824 C 0.43157 0.44344 0.64881 0.0
C2825 C 0.43463 0.42848 0.62736 0.0
H2826 H 0.44923 0.46316 0.67908 0.0
H2827 H 0.41301 0.44657 0.65643 0.0
S2828 S 0.49467 0.41253 0.59628 0.0
N2829 N 0.50303 0.42901 0.62118 0.0
N2830 N 0.46374 0.41134 0.5969 0.0
C2831 C 0.45897 0.4248 0.61803 0.0
C2832 C 0.48024 0.43447 0.63117 0.0
C2833 C 0.08653 0.48334 0.62582 0.0
C2834 C 0.07132 0.48084 0.64722 0.0
C2835 C 0.09552 0.46228 0.61298 0.0
C2836 C 0.08959 0.43782 0.62089 0.0
H2837 H 0.09269 0.50166 0.61963 0.0
H2838 H 0.1081 0.46514 0.59731 0.0
S2839 S 0.04812 0.42079 0.6739 0.0
N2840 N 0.04872 0.45173 0.67422 0.0
N2841 N 0.06591 0.41223 0.65008 0.0
C2842 C 0.07299 0.43497 0.64109 0.0
C2843 C 0.0638 0.45646 0.65426 0.0
C2844 C 0.04671 0.43466 0.88481 0.0
C2845 C 0.05035 0.44259 0.85991 0.0
C2846 C 0.06697 0.42678 0.89967 0.0
C2847 C 0.09162 0.42693 0.89032 0.0
H2848 H 0.02796 0.43295 0.8924 0.0
H2849 H 0.0632 0.41937 0.9182 0.0
S2850 S 0.11174 0.44816 0.82742 0.0
N2851 N 0.08103 0.45206 0.8274 0.0
N2852 N 0.11888 0.43719 0.85548 0.0
C2853 C 0.09579 0.43645 0.86621 0.0
C2854 C 0.07521 0.44432 0.85097 0.0
C2855 C 0.09228 0.09239 0.86471 0.0
C2856 C 0.09229 0.09216 0.89098 0.0
C2857 C 0.0823 0.07229 0.85104 0.0
C2858 C 0.07253 0.05094 0.86318 0.0
H2859 H 0.10076 0.10788 0.85469 0.0
H2860 H 0.08351 0.07304 0.83077 0.0
S2861 S 0.06678 0.04236 0.93195 0.0
N2862 N 0.08036 0.07004 0.92884 0.0
N2863 N 0.06204 0.03176 0.90318 0.0
C2864 C 0.07155 0.05103 0.88954 0.0
C2865 C 0.08138 0.07176 0.90345 0.0
C2866 C 0.47728 0.08889 0.89094 0.0
C2867 C 0.4748 0.07499 0.86866 0.0
C2868 C 0.45608 0.09736 0.90393 0.0
C2869 C 0.43165 0.09208 0.89523 0.0
H2870 H 0.49561 0.09484 0.89746 0.0
H2871 H 0.45883 0.10921 0.92023 0.0
S2872 S 0.41512 0.05268 0.84023 0.0
N2873 N 0.44609 0.05346 0.84029 0.0
N2874 N 0.40628 0.06953 0.86467 0.0
C2875 C 0.42895 0.07632 0.87426 0.0
C2876 C 0.45053 0.06777 0.86096 0.0
C2877 C 0.43634 0.48062 0.89351 0.0
C2878 C 0.44917 0.47817 0.87061 0.0
C2879 C 0.42793 0.45954 0.90669 0.0
C2880 C 0.43199 0.43509 0.89758 0.0
H2881 H 0.43146 0.49897 0.90071 0.0
H2882 H 0.41706 0.46244 0.9236 0.0
S2883 S 0.46808 0.41807 0.84068 0.0
N2884 N 0.46841 0.44902 0.84109 0.0
N2885 N 0.45213 0.4095 0.86576 0.0
C2886 C 0.4466 0.43223 0.87587 0.0
C2887 C 0.45528 0.45373 0.8624 0.0
C2888 C 0.61787 0.0671 0.09527 0.0
C2889 C 0.62615 0.09174 0.0907 0.0
C2890 C 0.63108 0.04634 0.08613 0.0
C2891 C 0.65328 0.04936 0.07221 0.0
H2892 H 0.60156 0.06383 0.10692 0.0
H2893 H 0.62459 0.02782 0.09131 0.0
S2894 S 0.68119 0.11008 0.05252 0.0
N2895 N 0.65655 0.11808 0.06943 0.0
N2896 N 0.68144 0.07913 0.05206 0.0
C2897 C 0.66077 0.07396 0.06601 0.0
C2898 C 0.64719 0.09513 0.07527 0.0
C2899 C 0.66042 0.45399 0.45722 0.0
C2900 C 0.65059 0.4783 0.45378 0.0
C2901 C 0.64751 0.43268 0.44856 0.0
C2902 C 0.62436 0.43495 0.43618 0.0
H2903 H 0.67891 0.4514 0.46524 0.0
H2904 H 0.65646 0.41453 0.45007 0.0
S2905 S 0.58802 0.4934 0.42716 0.0
N2906 N 0.61438 0.50273 0.44059 0.0
N2907 N 0.59035 0.46268 0.42426 0.0
C2908 C 0.61332 0.45879 0.43465 0.0
C2909 C 0.62636 0.48046 0.44349 0.0
C2910 C 0.09222 0.64995 0.43249 0.0
C2911 C 0.08944 0.62624 0.42133 0.0
C2912 C 0.07113 0.66464 0.43838 0.0
C2913 C 0.04651 0.65611 0.43334 0.0
H2914 H 0.11078 0.65776 0.43536 0.0
H2915 H 0.07423 0.6832 0.44603 0.0
S2916 S 0.02948 0.59381 0.40699 0.0
N2917 N 0.06043 0.59385 0.40763 0.0
N2918 N 0.02091 0.62118 0.41858 0.0
C2919 C 0.04361 0.63169 0.42365 0.0
C2920 C 0.06504 0.61685 0.41769 0.0
C2921 C 0.8567 0.0635 0.43805 0.0
C2922 C 0.8626 0.03955 0.42842 0.0
C2923 C 0.87037 0.08493 0.431 0.0
C2924 C 0.89034 0.08323 0.41393 0.0
H2925 H 0.84095 0.06587 0.45062 0.0
H2926 H 0.86453 0.10307 0.43802 0.0
S2927 S 0.91501 0.02498 0.38496 0.0
N2928 N 0.89109 0.0155 0.40211 0.0
N2929 N 0.91672 0.05558 0.38918 0.0
C2930 C 0.89724 0.05932 0.40517 0.0
C2931 C 0.8834 0.03755 0.41231 0.0
C2932 C 0.4519 0.85942 0.4496 0.0
C2933 C 0.47648 0.86896 0.44696 0.0
C2934 C 0.43095 0.87297 0.44125 0.0
C2935 C 0.43381 0.89652 0.42996 0.0
H2936 H 0.44881 0.84072 0.45684 0.0
H2937 H 0.41259 0.86428 0.44218 0.0
S2938 S 0.49313 0.93215 0.42306 0.0
N2939 N 0.50179 0.90521 0.43556 0.0
N2940 N 0.46236 0.93043 0.41972 0.0
C2941 C 0.45789 0.90722 0.42915 0.0
C2942 C 0.47924 0.89352 0.43775 0.0
C2943 C 0.90095 0.46194 0.09632 0.0
C2944 C 0.89256 0.43762 0.0904 0.0
C2945 C 0.88882 0.48317 0.08687 0.0
C2946 C 0.86766 0.48101 0.07116 0.0
H2947 H 0.91654 0.46461 0.10914 0.0
H2948 H 0.89541 0.5014 0.093 0.0
S2949 S 0.83997 0.42133 0.0477 0.0
N2950 N 0.86319 0.41244 0.0662 0.0
N2951 N 0.84036 0.45228 0.04813 0.0
C2952 C 0.86011 0.45672 0.0637 0.0
C2953 C 0.87256 0.43505 0.07338 0.0
C2954 C 0.06871 0.84217 0.10594 0.0
C2955 C 0.04754 0.85395 0.09535 0.0
C2956 C 0.09128 0.85507 0.10944 0.0
C2957 C 0.09373 0.88026 0.10242 0.0
H2958 H 0.0676 0.82309 0.11275 0.0
H2959 H 0.10645 0.84577 0.11925 0.0
S2960 S 0.04555 0.91899 0.07086 0.0
N2961 N 0.03157 0.8917 0.07535 0.0
N2962 N 0.07424 0.916 0.08225 0.0
C2963 C 0.07355 0.8918 0.09007 0.0
C2964 C 0.05038 0.87864 0.08647 0.0
C2965 C 0.42567 0.649 0.08552 0.0
C2966 C 0.42908 0.62331 0.08975 0.0
C2967 C 0.446 0.66444 0.07905 0.0
C2968 C 0.47051 0.65473 0.07688 0.0
H2969 H 0.40753 0.6575 0.08879 0.0
H2970 H 0.44263 0.68436 0.07722 0.0
S2971 S 0.48825 0.58773 0.08284 0.0
N2972 N 0.45788 0.58822 0.08883 0.0
N2973 N 0.49617 0.617 0.07665 0.0
C2974 C 0.47366 0.62863 0.07914 0.0
C2975 C 0.45293 0.61299 0.08568 0.0
C2976 C 0.93234 0.40677 0.95443 0.0
C2977 C 0.93418 0.3972 0.92987 0.0
C2978 C 0.93902 0.39226 0.97526 0.0
C2979 C 0.94759 0.36752 0.97231 0.0
H2980 H 0.92418 0.42508 0.95762 0.0
H2981 H 0.9357 0.3999 0.99379 0.0
S2982 S 0.95993 0.33535 0.91173 0.0
N2983 N 0.94825 0.36281 0.90359 0.0
N2984 N 0.96104 0.33545 0.9427 0.0
C2985 C 0.95177 0.35862 0.94774 0.0
C2986 C 0.94503 0.3735 0.92651 0.0
C2987 C 0.15631 0.94769 0.95381 0.0
C2988 C 0.14847 0.94244 0.97851 0.0
C2989 C 0.14116 0.9417 0.93306 0.0
C2990 C 0.11778 0.93004 0.93635 0.0
H2991 H 0.17489 0.95519 0.95039 0.0
H2992 H 0.14859 0.94445 0.91436 0.0
S2993 S 0.08697 0.91562 0.99692 0.0
N2994 N 0.11441 0.92762 1.00496 0.0
N2995 N 0.08615 0.91616 0.96595 0.0
C2996 C 0.10884 0.92664 0.96091 0.0
C2997 C 0.12412 0.93293 0.98202 0.0
C2998 C 0.5973 0.11894 0.95772 0.0
C2999 C 0.59294 0.12757 0.93319 0.0
C3000 C 0.58743 0.1315 0.97854 0.0
C3001 C 0.57292 0.15333 0.97568 0.0
H3002 H 0.60918 0.1028 0.96089 0.0
H3003 H 0.59229 0.12466 0.99704 0.0
S3004 S 0.55417 0.18219 0.91506 0.0
N3005 N 0.5717 0.15805 0.90695 0.0
N3006 N 0.55293 0.18176 0.946 0.0
C3007 C 0.5671 0.16123 0.95109 0.0
C3008 C 0.57717 0.14834 0.92986 0.0
C3009 C 0.35337 0.57083 0.95207 0.0
C3010 C 0.36311 0.57303 0.97663 0.0
C3011 C 0.36669 0.57979 0.93125 0.0
C3012 C 0.3902 0.59123 0.93426 0.0
H3013 H 0.33469 0.56343 0.94894 0.0
H3014 H 0.35786 0.5792 0.91292 0.0
S3015 S 0.42627 0.59744 0.99342 0.0
N3016 N 0.39952 0.58438 1.00198 0.0
N3017 N 0.42424 0.60144 0.96278 0.0
C3018 C 0.40108 0.59173 0.95826 0.0
C3019 C 0.38764 0.58251 0.97947 0.0
C3020 C 0.93313 0.16647 0.56522 0.0
C3021 C 0.92671 0.15772 0.54103 0.0
C3022 C 0.92785 0.15227 0.58676 0.0
C3023 C 0.9158 0.12893 0.58484 0.0
H3024 H 0.94155 0.18481 0.56763 0.0
H3025 H 0.93188 0.16023 0.60505 0.0
S3026 S 0.89705 0.09646 0.52614 0.0
N3027 N 0.9093 0.12322 0.5166 0.0
N3028 N 0.89932 0.09677 0.55704 0.0
C3029 C 0.91059 0.11935 0.56079 0.0
C3030 C 0.91606 0.13367 0.53889 0.0
C3031 C 0.36507 0.95068 0.56907 0.0
C3032 C 0.37231 0.94479 0.54432 0.0
C3033 C 0.37835 0.94141 0.58982 0.0
C3034 C 0.39927 0.9258 0.58655 0.0
H3035 H 0.34823 0.96146 0.57253 0.0
H3036 H 0.3713 0.94522 0.60848 0.0
S3037 S 0.42853 0.90805 0.52602 0.0
N3038 N 0.40381 0.92483 0.51798 0.0
N3039 N 0.42863 0.90749 0.55699 0.0
C3040 C 0.40791 0.92142 0.56204 0.0
C3041 C 0.39451 0.93093 0.54091 0.0
C3042 C 0.57412 0.35622 0.57442 0.0
C3043 C 0.57479 0.36557 0.54966 0.0
C3044 C 0.58209 0.37086 0.59488 0.0
C3045 C 0.591 0.39534 0.5913 0.0
H3046 H 0.56876 0.33697 0.57797 0.0
H3047 H 0.58282 0.36243 0.61335 0.0
S3048 S 0.59226 0.43044 0.53141 0.0
N3049 N 0.58176 0.40236 0.52356 0.0
N3050 N 0.59707 0.42953 0.56201 0.0
C3051 C 0.58982 0.40565 0.56711 0.0
C3052 C 0.58155 0.39088 0.54629 0.0
C3053 C 0.16052 0.5693 0.56889 0.0
C3054 C 0.15199 0.57451 0.54435 0.0
C3055 C 0.14811 0.57885 0.59005 0.0
C3056 C 0.12676 0.59396 0.58741 0.0
H3057 H 0.17768 0.55887 0.57182 0.0
H3058 H 0.15614 0.57567 0.60845 0.0
S3059 S 0.09435 0.60999 0.52798 0.0
N3060 N 0.11888 0.59338 0.51912 0.0
N3061 N 0.09578 0.61126 0.55889 0.0
C3062 C 0.11691 0.59771 0.56324 0.0
C3063 C 0.12943 0.58796 0.54171 0.0
C3064 C 0.95315 0.93917 0.36026 0.0
C3065 C 0.97726 0.92975 0.36568 0.0
C3066 C 0.93213 0.93203 0.37447 0.0
C3067 C 0.93439 0.9149 0.39432 0.0
H3068 H 0.95033 0.95169 0.34452 0.0
H3069 H 0.91385 0.93902 0.36919 0.0
S3070 S 0.99349 0.88689 0.41812 0.0
N3071 N 1.00226 0.90399 0.3939 0.0
N3072 N 0.96287 0.89071 0.42038 0.0
C3073 C 0.95854 0.90651 0.40086 0.0
C3074 C 0.97993 0.91386 0.38658 0.0
C3075 C 0.57215 0.95091 0.35619 0.0
C3076 C 0.57689 0.97533 0.36526 0.0
C3077 C 0.57957 0.92965 0.36977 0.0
C3078 C 0.59215 0.93211 0.3928 0.0
H3079 H 0.56391 0.94817 0.33779 0.0
H3080 H 0.57709 0.9113 0.36137 0.0
S3081 S 0.6058 0.99133 0.42666 0.0
N3082 N 0.59229 1.00038 0.40029 0.0
N3083 N 0.60642 0.96041 0.42557 0.0
C3084 C 0.59514 0.95622 0.40305 0.0
C3085 C 0.58741 0.97786 0.38936 0.0
C3086 C 0.54625 0.58236 0.38864 0.0
C3087 C 0.55009 0.57693 0.36309 0.0
C3088 C 0.5662 0.58988 0.40413 0.0
C3089 C 0.59074 0.59185 0.39475 0.0
H3090 H 0.5275 0.58245 0.39641 0.0
H3091 H 0.5622 0.59549 0.42325 0.0
S3092 S 0.61152 0.57706 0.33021 0.0
N3093 N 0.58101 0.57171 0.32984 0.0
N3094 N 0.61829 0.58598 0.35912 0.0
C3095 C 0.59524 0.58467 0.36988 0.0
C3096 C 0.57495 0.57713 0.354 0.0
C3097 C 0.92539 0.55657 0.41149 0.0
C3098 C 0.92813 0.58147 0.40323 0.0
C3099 C 0.9336 0.53635 0.39685 0.0
C3100 C 0.9448 0.54019 0.37328 0.0
H3101 H 0.91594 0.55266 0.42903 0.0
H3102 H 0.93003 0.51754 0.4036 0.0
S3103 S 0.95764 0.60201 0.34388 0.0
N3104 N 0.94388 0.60898 0.37068 0.0
N3105 N 0.95969 0.57117 0.3432 0.0
C3106 C 0.94894 0.56513 0.36548 0.0
C3107 C 0.94053 0.58571 0.38044 0.0
C3108 C 0.92587 0.58062 0.1465 0.0
C3109 C 0.92962 0.59503 0.12482 0.0
C3110 C 0.94631 0.57086 0.15994 0.0
C3111 C 0.97122 0.575 0.15207 0.0
H3112 H 0.90714 0.57809 0.15394 0.0
H3113 H 0.94255 0.56099 0.17727 0.0
S3114 S 0.99057 0.60875 0.09433 0.0
N3115 N 0.95968 0.6108 0.09451 0.0
N3116 N 0.99809 0.5925 0.11957 0.0
C3117 C 0.97501 0.58785 0.12932 0.0
C3118 C 0.95421 0.59789 0.11578 0.0
C3119 C 0.93179 0.93108 0.14502 0.0
C3120 C 0.91841 0.9342 0.12252 0.0
C3121 C 0.93791 0.9518 0.16021 0.0
C3122 C 0.93097 0.97638 0.15336 0.0
H3123 H 0.93646 0.91243 0.15153 0.0
H3124 H 0.94746 0.94838 0.17783 0.0
S3125 S 0.89805 0.99449 0.09458 0.0
N3126 N 0.90026 0.96368 0.09297 0.0
N3127 N 0.91166 1.00252 0.12125 0.0
C3128 C 0.9188 0.97974 0.13012 0.0
C3129 C 0.91255 0.95869 0.11478 0.0
C3130 C 0.56912 0.94578 0.16339 0.0
C3131 C 0.54466 0.94375 0.15341 0.0
C3132 C 0.59027 0.93966 0.14902 0.0
C3133 C 0.58767 0.9312 0.12423 0.0
H3134 H 0.57191 0.95078 0.18291 0.0
H3135 H 0.60857 0.93982 0.15791 0.0
S3136 S 0.52845 0.92585 0.08807 0.0
N3137 N 0.51954 0.93543 0.11615 0.0
N3138 N 0.55932 0.92357 0.08936 0.0
C3139 C 0.56362 0.93099 0.11339 0.0
C3140 C 0.54209 0.93745 0.12791 0.0
C3141 C 0.57368 0.58512 0.14735 0.0
C3142 C 0.58733 0.58268 0.125 0.0
C3143 C 0.5651 0.56388 0.16027 0.0
C3144 C 0.56991 0.53946 0.15128 0.0
H3145 H 0.57102 0.60344 0.15573 0.0
H3146 H 0.55599 0.56667 0.1782 0.0
S3147 S 0.6005 0.52362 0.09078 0.0
N3148 N 0.60206 0.55448 0.09244 0.0
N3149 N 0.58598 0.51454 0.11654 0.0
C3150 C 0.58158 0.53701 0.12774 0.0
C3151 C 0.59031 0.55862 0.11467 0.0
C3152 C 0.40693 0.96078 0.92119 0.0
C3153 C 0.40041 0.93578 0.92664 0.0
C3154 C 0.39177 0.98082 0.92888 0.0
C3155 C 0.36939 0.97656 0.94212 0.0
H3156 H 0.4233 0.96481 0.90987 0.0
H3157 H 0.39679 0.99956 0.92292 0.0
S3158 S 0.34569 0.91505 0.96418 0.0
N3159 N 0.37136 0.90817 0.94835 0.0
N3160 N 0.34299 0.94584 0.96293 0.0
C3161 C 0.36364 0.95186 0.9493 0.0
C3162 C 0.37913 0.93146 0.94157 0.0
C3163 C 0.40687 0.56249 0.5941 0.0
C3164 C 0.39768 0.58703 0.59117 0.0
C3165 C 0.39306 0.54162 0.58583 0.0
C3166 C 0.36935 0.54445 0.57452 0.0
H3167 H 0.42442 0.55935 0.60389 0.0
H3168 H 0.40046 0.52312 0.58962 0.0
S3169 S 0.33762 0.60504 0.56129 0.0
N3170 N 0.36419 0.61316 0.57507 0.0
N3171 N 0.33812 0.57417 0.55935 0.0
C3172 C 0.36064 0.56907 0.57019 0.0
C3173 C 0.37482 0.5903 0.57855 0.0
C3174 C 0.95233 0.40096 0.58797 0.0
C3175 C 0.92849 0.38988 0.58999 0.0
C3176 C 0.97293 0.38727 0.57909 0.0
C3177 C 0.97051 0.36186 0.57226 0.0
H3178 H 0.95528 0.42 0.59445 0.0
H3179 H 0.99113 0.39632 0.57898 0.0
S3180 S 0.91132 0.32485 0.57287 0.0
N3181 N 0.90309 0.35278 0.58333 0.0
N3182 N 0.94156 0.32683 0.56653 0.0
C3183 C 0.9463 0.35106 0.57288 0.0
C3184 C 0.92536 0.36511 0.58184 0.0
C3185 C 0.12696 0.94383 0.58931 0.0
C3186 C 0.13677 0.92363 0.60305 0.0
C3187 C 0.14166 0.96518 0.58438 0.0
C3188 C 0.16658 0.96686 0.59304 0.0
H3189 H 0.10738 0.94383 0.58383 0.0
H3190 H 0.13297 0.98096 0.57504 0.0
S3191 S 0.20154 0.91713 0.62718 0.0
N3192 N 0.17306 0.90552 0.62343 0.0
N3193 N 0.20112 0.94484 0.61348 0.0
C3194 C 0.17704 0.94574 0.60505 0.0
C3195 C 0.16199 0.92433 0.6103 0.0
C3196 C 0.58832 0.14885 0.59311 0.0
C3197 C 0.58523 0.12471 0.60309 0.0
C3198 C 0.56755 0.16453 0.58909 0.0
C3199 C 0.54296 0.15653 0.59469 0.0
H3200 H 0.60699 0.15615 0.58974 0.0
H3201 H 0.57088 0.18335 0.58224 0.0
S3202 S 0.52495 0.09404 0.61938 0.0
N3203 N 0.55581 0.09289 0.61704 0.0
N3204 N 0.51681 0.12213 0.60934 0.0
C3205 C 0.5396 0.13187 0.60337 0.0
C3206 C 0.56073 0.11604 0.60762 0.0
C3207 C 0.14701 0.58838 0.94102 0.0
C3208 C 0.12318 0.58466 0.93046 0.0
C3209 C 0.16158 0.56796 0.94888 0.0
C3210 C 0.15279 0.5431 0.94645 0.0
H3211 H 0.15511 0.60701 0.94169 0.0
H3212 H 0.18042 0.57169 0.95555 0.0
S3213 S 0.08933 0.52424 0.92444 0.0
N3214 N 0.08991 0.55499 0.9211 0.0
N3215 N 0.11699 0.51654 0.9361 0.0
C3216 C 0.12799 0.53946 0.93801 0.0
C3217 C 0.11328 0.56026 0.92988 0.0
C3218 C 0.95193 0.16367 0.94657 0.0
C3219 C 0.97642 0.15427 0.94344 0.0
C3220 C 0.93091 0.15003 0.93843 0.0
C3221 C 0.93374 0.12666 0.9267 0.0
H3222 H 0.94903 0.18233 0.95407 0.0
H3223 H 0.91255 0.15861 0.93969 0.0
S3224 S 0.99315 0.09193 0.91757 0.0
N3225 N 1.00186 0.11866 0.93064 0.0
N3226 N 0.9623 0.09326 0.91506 0.0
C3227 C 0.95784 0.11615 0.92532 0.0
C3228 C 0.97923 0.12988 0.93384 0.0
C3229 C 0.56233 0.40818 0.93395 0.0
C3230 C 0.58726 0.39959 0.93486 0.0
C3231 C 0.54225 0.39262 0.94066 0.0
C3232 C 0.54629 0.36775 0.94841 0.0
H3233 H 0.55824 0.42666 0.92663 0.0
H3234 H 0.52338 0.39972 0.93825 0.0
S3235 S 0.6084 0.33743 0.9573 0.0
N3236 N 0.61514 0.36565 0.94656 0.0
N3237 N 0.57753 0.33633 0.95951 0.0
C3238 C 0.57132 0.35966 0.95144 0.0
C3239 C 0.59177 0.3756 0.9446 0.0
loop_
_geom_bond_atom_site_label_1
_geom_bond_atom_site_label_2
_geom_bond_distance
_geom_bond_site_symmetry_2
_ccdc_geom_bond_type
O0 Tb1 2.292 . S
O0 C3 1.255 . S
Tb1 O0 2.292 . S
Tb1 O17 2.326 . S
Tb1 O19 2.500 . S
Tb1 O20 2.473 . S
Tb1 O23 2.324 . S
Eu2 O6 2.292 1_455 S
Eu2 C7 2.852 . S
Eu2 O18 2.324 . S
Eu2 O22 2.326 . S
Eu2 O24 2.500 . S
Eu2 O25 2.473 . S
C3 O0 1.255 . S
C3 O4 1.247 . S
O4 C3 1.247 . S
C5 O17 1.242 . S
C5 O18 1.258 . S
O6 Eu2 2.292 1_655 S
O6 C8 1.255 . S
C7 Eu2 2.852 . S
C7 C11 1.503 . S
C7 O24 1.273 . S
C7 O25 1.257 . S
C8 O6 1.255 . S
C8 O9 1.247 . S
O9 C8 1.247 . S
C10 O22 1.242 . S
C10 O23 1.258 . S
C11 C7 1.503 . S
C11 C12 1.379 . S
C11 C16 1.392 . S
C12 C11 1.379 . S
C12 C13 1.404 . S
C12 H26 0.929 . S
C13 C12 1.404 . S
C13 C14 1.389 . S
C14 C13 1.389 . S
C14 C15 1.399 . S
C14 H27 0.931 . S
C15 C14 1.399 . S
C15 C16 1.390 . S
C16 C11 1.392 . S
C16 C15 1.390 . S
C16 H28 0.929 . S
O17 Tb1 2.326 . S
O17 C5 1.242 . S
O18 Eu2 2.324 . S
O18 C5 1.258 . S
O19 Tb1 2.500 . S
O19 C21 1.273 . S
O20 Tb1 2.473 . S
O20 C21 1.257 . S
C21 O19 1.273 . S
C21 O20 1.257 . S
O22 Eu2 2.326 . S
O22 C10 1.242 . S
O23 Tb1 2.324 . S
O23 C10 1.258 . S
O24 Eu2 2.500 . S
O24 C7 1.273 . S
O25 Eu2 2.473 . S
O25 C7 1.257 . S
H26 C12 0.929 . S
H27 C14 0.931 . S
H28 C16 0.929 . S
O29 Tb30 2.292 . S
O29 C32 1.255 . S
Tb30 O29 2.292 . S
Tb30 O46 2.326 . S
Tb30 O48 2.500 . S
Tb30 O49 2.473 . S
Tb30 O52 2.324 . S
Eu31 O35 2.292 1_545 S
Eu31 C36 2.852 . S
Eu31 O47 2.324 . S
Eu31 O51 2.326 . S
Eu31 O53 2.500 . S
Eu31 O54 2.473 . S
C32 O29 1.255 . S
C32 O33 1.247 . S
O33 C32 1.247 . S
C34 O46 1.242 . S
C34 O47 1.258 . S
O35 Eu31 2.292 1_565 S
O35 C37 1.255 . S
C36 Eu31 2.852 . S
C36 C40 1.503 . S
C36 O53 1.273 . S
C36 O54 1.257 . S
C37 O35 1.255 . S
C37 O38 1.247 . S
O38 C37 1.247 . S
C39 O51 1.242 . S
C39 O52 1.258 . S
C40 C36 1.503 . S
C40 C41 1.379 . S
C40 C45 1.392 . S
C41 C40 1.379 . S
C41 C42 1.404 . S
C41 H55 0.929 . S
C42 C41 1.404 . S
C42 C43 1.389 . S
C43 C42 1.389 . S
C43 C44 1.399 . S
C43 H56 0.931 . S
C44 C43 1.399 . S
C44 C45 1.390 . S
C45 C40 1.392 . S
C45 C44 1.390 . S
C45 H57 0.929 . S
O46 Tb30 2.326 . S
O46 C34 1.242 . S
O47 Eu31 2.324 . S
O47 C34 1.258 . S
O48 Tb30 2.500 . S
O48 C50 1.273 . S
O49 Tb30 2.473 . S
O49 C50 1.257 . S
C50 O48 1.273 . S
C50 O49 1.257 . S
O51 Eu31 2.326 . S
O51 C39 1.242 . S
O52 Tb30 2.324 . S
O52 C39 1.258 . S
O53 Eu31 2.500 . S
O53 C36 1.273 . S
O54 Eu31 2.473 . S
O54 C36 1.257 . S
H55 C41 0.929 . S
H56 C43 0.931 . S
H57 C45 0.929 . S
O58 Tb59 2.292 . S
O58 C61 1.255 . S
Tb59 O58 2.292 . S
Tb59 O75 2.326 . S
Tb59 O77 2.500 . S
Tb59 O78 2.473 . S
Tb59 O81 2.324 . S
Eu60 O64 2.292 . S
Eu60 C65 2.852 . S
Eu60 O76 2.324 . S
Eu60 O80 2.326 . S
Eu60 O82 2.500 . S
Eu60 O83 2.473 . S
C61 O58 1.255 . S
C61 O62 1.247 . S
O62 C61 1.247 . S
C63 O75 1.242 . S
C63 O76 1.258 . S
O64 Eu60 2.292 . S
O64 C66 1.255 . S
C65 Eu60 2.852 . S
C65 C69 1.503 . S
C65 O82 1.273 . S
C65 O83 1.257 . S
C66 O64 1.255 . S
C66 O67 1.247 . S
O67 C66 1.247 . S
C68 O80 1.242 . S
C68 O81 1.258 . S
C69 C65 1.503 . S
C69 C70 1.379 . S
C69 C74 1.392 . S
C70 C69 1.379 . S
C70 C71 1.404 . S
C70 H84 0.929 . S
C71 C70 1.404 . S
C71 C72 1.389 . S
C72 C71 1.389 . S
C72 C73 1.399 . S
C72 H85 0.931 . S
C73 C72 1.399 . S
C73 C74 1.390 . S
C74 C69 1.392 . S
C74 C73 1.390 . S
C74 H86 0.929 . S
O75 Tb59 2.326 . S
O75 C63 1.242 . S
O76 Eu60 2.324 . S
O76 C63 1.258 . S
O77 Tb59 2.500 . S
O77 C79 1.273 . S
O78 Tb59 2.473 . S
O78 C79 1.257 . S
C79 O77 1.273 . S
C79 O78 1.257 . S
O80 Eu60 2.326 . S
O80 C68 1.242 . S
O81 Tb59 2.324 . S
O81 C68 1.258 . S
O82 Eu60 2.500 . S
O82 C65 1.273 . S
O83 Eu60 2.473 . S
O83 C65 1.257 . S
H84 C70 0.929 . S
H85 C72 0.931 . S
H86 C74 0.929 . S
O87 Tb88 2.292 . S
O87 C90 1.255 . S
Tb88 O87 2.292 . S
Tb88 O104 2.326 . S
Tb88 O106 2.500 . S
Tb88 O107 2.473 . S
Tb88 O110 2.324 . S
Eu89 O93 2.292 . S
Eu89 C94 2.852 . S
Eu89 O105 2.324 . S
Eu89 O109 2.326 . S
Eu89 O111 2.500 . S
Eu89 O112 2.473 . S
C90 O87 1.255 . S
C90 O91 1.247 . S
O91 C90 1.247 . S
C92 O104 1.242 . S
C92 O105 1.258 . S
O93 Eu89 2.292 . S
O93 C95 1.255 . S
C94 Eu89 2.852 . S
C94 C98 1.503 . S
C94 O111 1.273 . S
C94 O112 1.257 . S
C95 O93 1.255 . S
C95 O96 1.247 . S
O96 C95 1.247 . S
C97 O109 1.242 . S
C97 O110 1.258 . S
C98 C94 1.503 . S
C98 C99 1.379 . S
C98 C103 1.392 . S
C99 C98 1.379 . S
C99 C100 1.404 . S
C99 H113 0.929 . S
C100 C99 1.404 . S
C100 C101 1.389 . S
C101 C100 1.389 . S
C101 C102 1.399 . S
C101 H114 0.931 . S
C102 C101 1.399 . S
C102 C103 1.390 . S
C103 C98 1.392 . S
C103 C102 1.390 . S
C103 H115 0.929 . S
O104 Tb88 2.326 . S
O104 C92 1.242 . S
O105 Eu89 2.324 . S
O105 C92 1.258 . S
O106 Tb88 2.500 . S
O106 C108 1.273 . S
O107 Tb88 2.473 . S
O107 C108 1.257 . S
C108 O106 1.273 . S
C108 O107 1.257 . S
O109 Eu89 2.326 . S
O109 C97 1.242 . S
O110 Tb88 2.324 . S
O110 C97 1.258 . S
O111 Eu89 2.500 . S
O111 C94 1.273 . S
O112 Eu89 2.473 . S
O112 C94 1.257 . S
H113 C99 0.929 . S
H114 C101 0.931 . S
H115 C103 0.929 . S
O116 Tb117 2.292 . S
O116 C119 1.255 . S
Tb117 O116 2.292 . S
Tb117 O133 2.326 . S
Tb117 O135 2.500 . S
Tb117 O136 2.473 . S
Tb117 O139 2.324 . S
Eu118 O122 2.292 1_455 S
Eu118 C123 2.852 . S
Eu118 O134 2.324 . S
Eu118 O138 2.326 . S
Eu118 O140 2.500 . S
Eu118 O141 2.473 . S
C119 O116 1.255 . S
C119 O120 1.247 . S
O120 C119 1.247 . S
C121 O133 1.242 . S
C121 O134 1.258 . S
O122 Eu118 2.292 1_655 S
O122 C124 1.255 . S
C123 Eu118 2.852 . S
C123 C127 1.503 . S
C123 O140 1.273 . S
C123 O141 1.257 . S
C124 O122 1.255 . S
C124 O125 1.247 . S
O125 C124 1.247 . S
C126 O138 1.242 . S
C126 O139 1.258 . S
C127 C123 1.503 . S
C127 C128 1.379 . S
C127 C132 1.392 . S
C128 C127 1.379 . S
C128 C129 1.404 . S
C128 H142 0.929 . S
C129 C128 1.404 . S
C129 C130 1.389 . S
C130 C129 1.389 . S
C130 C131 1.399 . S
C130 H143 0.931 . S
C131 C130 1.399 . S
C131 C132 1.390 . S
C132 C127 1.392 . S
C132 C131 1.390 . S
C132 H144 0.929 . S
O133 Tb117 2.326 . S
O133 C121 1.242 . S
O134 Eu118 2.324 . S
O134 C121 1.258 . S
O135 Tb117 2.500 . S
O135 C137 1.273 . S
O136 Tb117 2.473 . S
O136 C137 1.257 . S
C137 O135 1.273 . S
C137 O136 1.257 . S
O138 Eu118 2.326 . S
O138 C126 1.242 . S
O139 Tb117 2.324 . S
O139 C126 1.258 . S
O140 Eu118 2.500 . S
O140 C123 1.273 . S
O141 Eu118 2.473 . S
O141 C123 1.257 . S
H142 C128 0.929 . S
H143 C130 0.931 . S
H144 C132 0.929 . S
O145 Tb146 2.292 . S
O145 C148 1.255 . S
Tb146 O145 2.292 . S
Tb146 O162 2.326 . S
Tb146 O164 2.500 . S
Tb146 O165 2.473 . S
Tb146 O168 2.324 . S
Eu147 O151 2.292 1_545 S
Eu147 C152 2.852 . S
Eu147 O163 2.324 . S
Eu147 O167 2.326 . S
Eu147 O169 2.500 . S
Eu147 O170 2.473 . S
C148 O145 1.255 . S
C148 O149 1.247 . S
O149 C148 1.247 . S
C150 O162 1.242 . S
C150 O163 1.258 . S
O151 Eu147 2.292 1_565 S
O151 C153 1.255 . S
C152 Eu147 2.852 . S
C152 C156 1.503 . S
C152 O169 1.273 . S
C152 O170 1.257 . S
C153 O151 1.255 . S
C153 O154 1.247 . S
O154 C153 1.247 . S
C155 O167 1.242 . S
C155 O168 1.258 . S
C156 C152 1.503 . S
C156 C157 1.379 . S
C156 C161 1.392 . S
C157 C156 1.379 . S
C157 C158 1.404 . S
C157 H171 0.929 . S
C158 C157 1.404 . S
C158 C159 1.389 . S
C159 C158 1.389 . S
C159 C160 1.399 . S
C159 H172 0.931 . S
C160 C159 1.399 . S
C160 C161 1.390 . S
C161 C156 1.392 . S
C161 C160 1.390 . S
C161 H173 0.929 . S
O162 Tb146 2.326 . S
O162 C150 1.242 . S
O163 Eu147 2.324 . S
O163 C150 1.258 . S
O164 Tb146 2.500 . S
O164 C166 1.273 . S
O165 Tb146 2.473 . S
O165 C166 1.257 . S
C166 O164 1.273 . S
C166 O165 1.257 . S
O167 Eu147 2.326 . S
O167 C155 1.242 . S
O168 Tb146 2.324 . S
O168 C155 1.258 . S
O169 Eu147 2.500 . S
O169 C152 1.273 . S
O170 Eu147 2.473 . S
O170 C152 1.257 . S
H171 C157 0.929 . S
H172 C159 0.931 . S
H173 C161 0.929 . S
O174 Tb175 2.292 . S
O174 C177 1.255 . S
Tb175 O174 2.292 . S
Tb175 O191 2.326 . S
Tb175 O193 2.500 . S
Tb175 O194 2.473 . S
Tb175 O197 2.324 . S
Eu176 O180 2.292 . S
Eu176 C181 2.852 . S
Eu176 O192 2.324 . S
Eu176 O196 2.326 . S
Eu176 O198 2.500 . S
Eu176 O199 2.473 . S
C177 O174 1.255 . S
C177 O178 1.247 . S
O178 C177 1.247 . S
C179 O191 1.242 . S
C179 O192 1.258 . S
O180 Eu176 2.292 . S
O180 C182 1.255 . S
C181 Eu176 2.852 . S
C181 C185 1.503 . S
C181 O198 1.273 . S
C181 O199 1.257 . S
C182 O180 1.255 . S
C182 O183 1.247 . S
O183 C182 1.247 . S
C184 O196 1.242 . S
C184 O197 1.258 . S
C185 C181 1.503 . S
C185 C186 1.379 . S
C185 C190 1.392 . S
C186 C185 1.379 . S
C186 C187 1.404 . S
C186 H200 0.929 . S
C187 C186 1.404 . S
C187 C188 1.389 . S
C188 C187 1.389 . S
C188 C189 1.399 . S
C188 H201 0.931 . S
C189 C188 1.399 . S
C189 C190 1.390 . S
C190 C185 1.392 . S
C190 C189 1.390 . S
C190 H202 0.929 . S
O191 Tb175 2.326 . S
O191 C179 1.242 . S
O192 Eu176 2.324 . S
O192 C179 1.258 . S
O193 Tb175 2.500 . S
O193 C195 1.273 . S
O194 Tb175 2.473 . S
O194 C195 1.257 . S
C195 O193 1.273 . S
C195 O194 1.257 . S
O196 Eu176 2.326 . S
O196 C184 1.242 . S
O197 Tb175 2.324 . S
O197 C184 1.258 . S
O198 Eu176 2.500 . S
O198 C181 1.273 . S
O199 Eu176 2.473 . S
O199 C181 1.257 . S
H200 C186 0.929 . S
H201 C188 0.931 . S
H202 C190 0.929 . S
O203 Tb204 2.292 . S
O203 C206 1.255 . S
Tb204 O203 2.292 . S
Tb204 O220 2.326 . S
Tb204 O222 2.500 . S
Tb204 O223 2.473 . S
Tb204 O226 2.324 . S
Eu205 O209 2.292 . S
Eu205 C210 2.852 . S
Eu205 O221 2.324 . S
Eu205 O225 2.326 . S
Eu205 O227 2.500 . S
Eu205 O228 2.473 . S
C206 O203 1.255 . S
C206 O207 1.247 . S
O207 C206 1.247 . S
C208 O220 1.242 . S
C208 O221 1.258 . S
O209 Eu205 2.292 . S
O209 C211 1.255 . S
C210 Eu205 2.852 . S
C210 C214 1.503 . S
C210 O227 1.273 . S
C210 O228 1.257 . S
C211 O209 1.255 . S
C211 O212 1.247 . S
O212 C211 1.247 . S
C213 O225 1.242 . S
C213 O226 1.258 . S
C214 C210 1.503 . S
C214 C215 1.379 . S
C214 C219 1.392 . S
C215 C214 1.379 . S
C215 C216 1.404 . S
C215 H229 0.929 . S
C216 C215 1.404 . S
C216 C217 1.389 . S
C217 C216 1.389 . S
C217 C218 1.399 . S
C217 H230 0.931 . S
C218 C217 1.399 . S
C218 C219 1.390 . S
C219 C214 1.392 . S
C219 C218 1.390 . S
C219 H231 0.929 . S
O220 Tb204 2.326 . S
O220 C208 1.242 . S
O221 Eu205 2.324 . S
O221 C208 1.258 . S
O222 Tb204 2.500 . S
O222 C224 1.273 . S
O223 Tb204 2.473 . S
O223 C224 1.257 . S
C224 O222 1.273 . S
C224 O223 1.257 . S
O225 Eu205 2.326 . S
O225 C213 1.242 . S
O226 Tb204 2.324 . S
O226 C213 1.258 . S
O227 Eu205 2.500 . S
O227 C210 1.273 . S
O228 Eu205 2.473 . S
O228 C210 1.257 . S
H229 C215 0.929 . S
H230 C217 0.931 . S
H231 C219 0.929 . S
O232 Tb233 2.292 . S
O232 C235 1.255 . S
Tb233 O232 2.292 . S
Tb233 O249 2.326 . S
Tb233 O251 2.500 . S
Tb233 O252 2.473 . S
Tb233 O255 2.324 . S
Eu234 O238 2.292 1_545 S
Eu234 C239 2.852 . S
Eu234 O250 2.324 . S
Eu234 O254 2.326 . S
Eu234 O256 2.500 . S
Eu234 O257 2.473 . S
C235 O232 1.255 . S
C235 O236 1.247 . S
O236 C235 1.247 . S
C237 O249 1.242 . S
C237 O250 1.258 . S
O238 Eu234 2.292 1_565 S
O238 C240 1.255 . S
C239 Eu234 2.852 . S
C239 C243 1.503 . S
C239 O256 1.273 . S
C239 O257 1.257 . S
C240 O238 1.255 . S
C240 O241 1.247 . S
O241 C240 1.247 . S
C242 O254 1.242 . S
C242 O255 1.258 . S
C243 C239 1.503 . S
C243 C244 1.379 . S
C243 C248 1.392 . S
C244 C243 1.379 . S
C244 C245 1.404 . S
C244 H258 0.929 . S
C245 C244 1.404 . S
C245 C246 1.389 . S
C246 C245 1.389 . S
C246 C247 1.399 . S
C246 H259 0.931 . S
C247 C246 1.399 . S
C247 C248 1.390 . S
C248 C243 1.392 . S
C248 C247 1.390 . S
C248 H260 0.929 . S
O249 Tb233 2.326 . S
O249 C237 1.242 . S
O250 Eu234 2.324 . S
O250 C237 1.258 . S
O251 Tb233 2.500 . S
O251 C253 1.273 . S
O252 Tb233 2.473 . S
O252 C253 1.257 . S
C253 O251 1.273 . S
C253 O252 1.257 . S
O254 Eu234 2.326 . S
O254 C242 1.242 . S
O255 Tb233 2.324 . S
O255 C242 1.258 . S
O256 Eu234 2.500 . S
O256 C239 1.273 . S
O257 Eu234 2.473 . S
O257 C239 1.257 . S
H258 C244 0.929 . S
H259 C246 0.931 . S
H260 C248 0.929 . S
O261 Tb262 2.292 . S
O261 C264 1.255 . S
Tb262 O261 2.292 . S
Tb262 O278 2.326 . S
Tb262 O280 2.500 . S
Tb262 O281 2.473 . S
Tb262 O284 2.324 . S
Eu263 O267 2.292 . S
Eu263 C268 2.852 . S
Eu263 O279 2.324 . S
Eu263 O283 2.326 . S
Eu263 O285 2.500 . S
Eu263 O286 2.473 . S
C264 O261 1.255 . S
C264 O265 1.247 . S
O265 C264 1.247 . S
C266 O278 1.242 . S
C266 O279 1.258 . S
O267 Eu263 2.292 . S
O267 C269 1.255 . S
C268 Eu263 2.852 . S
C268 C272 1.503 . S
C268 O285 1.273 . S
C268 O286 1.257 . S
C269 O267 1.255 . S
C269 O270 1.247 . S
O270 C269 1.247 . S
C271 O283 1.242 . S
C271 O284 1.258 . S
C272 C268 1.503 . S
C272 C273 1.379 . S
C272 C277 1.392 . S
C273 C272 1.379 . S
C273 C274 1.404 . S
C273 H287 0.929 . S
C274 C273 1.404 . S
C274 C275 1.389 . S
C275 C274 1.389 . S
C275 C276 1.399 . S
C275 H288 0.931 . S
C276 C275 1.399 . S
C276 C277 1.390 . S
C277 C272 1.392 . S
C277 C276 1.390 . S
C277 H289 0.929 . S
O278 Tb262 2.326 . S
O278 C266 1.242 . S
O279 Eu263 2.324 . S
O279 C266 1.258 . S
O280 Tb262 2.500 . S
O280 C282 1.273 . S
O281 Tb262 2.473 . S
O281 C282 1.257 . S
C282 O280 1.273 . S
C282 O281 1.257 . S
O283 Eu263 2.326 . S
O283 C271 1.242 . S
O284 Tb262 2.324 . S
O284 C271 1.258 . S
O285 Eu263 2.500 . S
O285 C268 1.273 . S
O286 Eu263 2.473 . S
O286 C268 1.257 . S
H287 C273 0.929 . S
H288 C275 0.931 . S
H289 C277 0.929 . S
O290 Tb291 2.292 . S
O290 C293 1.255 . S
Tb291 O290 2.292 . S
Tb291 O307 2.326 . S
Tb291 O309 2.500 . S
Tb291 O310 2.473 . S
Tb291 O313 2.324 . S
Eu292 O296 2.292 . S
Eu292 C297 2.852 . S
Eu292 O308 2.324 . S
Eu292 O312 2.326 . S
Eu292 O314 2.500 . S
Eu292 O315 2.473 . S
C293 O290 1.255 . S
C293 O294 1.247 . S
O294 C293 1.247 . S
C295 O307 1.242 . S
C295 O308 1.258 . S
O296 Eu292 2.292 . S
O296 C298 1.255 . S
C297 Eu292 2.852 . S
C297 C301 1.503 . S
C297 O314 1.273 . S
C297 O315 1.257 . S
C298 O296 1.255 . S
C298 O299 1.247 . S
O299 C298 1.247 . S
C300 O312 1.242 . S
C300 O313 1.258 . S
C301 C297 1.503 . S
C301 C302 1.379 . S
C301 C306 1.392 . S
C302 C301 1.379 . S
C302 C303 1.404 . S
C302 H316 0.929 . S
C303 C302 1.404 . S
C303 C304 1.389 . S
C304 C303 1.389 . S
C304 C305 1.399 . S
C304 H317 0.931 . S
C305 C304 1.399 . S
C305 C306 1.390 . S
C306 C301 1.392 . S
C306 C305 1.390 . S
C306 H318 0.929 . S
O307 Tb291 2.326 . S
O307 C295 1.242 . S
O308 Eu292 2.324 . S
O308 C295 1.258 . S
O309 Tb291 2.500 . S
O309 C311 1.273 . S
O310 Tb291 2.473 . S
O310 C311 1.257 . S
C311 O309 1.273 . S
C311 O310 1.257 . S
O312 Eu292 2.326 . S
O312 C300 1.242 . S
O313 Tb291 2.324 . S
O313 C300 1.258 . S
O314 Eu292 2.500 . S
O314 C297 1.273 . S
O315 Eu292 2.473 . S
O315 C297 1.257 . S
H316 C302 0.929 . S
H317 C304 0.931 . S
H318 C306 0.929 . S
O319 Tb320 2.292 . S
O319 C322 1.255 . S
Tb320 O319 2.292 . S
Tb320 O336 2.326 . S
Tb320 O338 2.500 . S
Tb320 O339 2.473 . S
Tb320 O342 2.324 . S
Eu321 O325 2.292 1_455 S
Eu321 C326 2.852 . S
Eu321 O337 2.324 . S
Eu321 O341 2.326 . S
Eu321 O343 2.500 . S
Eu321 O344 2.473 . S
C322 O319 1.255 . S
C322 O323 1.247 . S
O323 C322 1.247 . S
C324 O336 1.242 . S
C324 O337 1.258 . S
O325 Eu321 2.292 1_655 S
O325 C327 1.255 . S
C326 Eu321 2.852 . S
C326 C330 1.503 . S
C326 O343 1.273 . S
C326 O344 1.257 . S
C327 O325 1.255 . S
C327 O328 1.247 . S
O328 C327 1.247 . S
C329 O341 1.242 . S
C329 O342 1.258 . S
C330 C326 1.503 . S
C330 C331 1.379 . S
C330 C335 1.392 . S
C331 C330 1.379 . S
C331 C332 1.404 . S
C331 H345 0.929 . S
C332 C331 1.404 . S
C332 C333 1.389 . S
C333 C332 1.389 . S
C333 C334 1.399 . S
C333 H346 0.931 . S
C334 C333 1.399 . S
C334 C335 1.390 . S
C335 C330 1.392 . S
C335 C334 1.390 . S
C335 H347 0.929 . S
O336 Tb320 2.326 . S
O336 C324 1.242 . S
O337 Eu321 2.324 . S
O337 C324 1.258 . S
O338 Tb320 2.500 . S
O338 C340 1.273 . S
O339 Tb320 2.473 . S
O339 C340 1.257 . S
C340 O338 1.273 . S
C340 O339 1.257 . S
O341 Eu321 2.326 . S
O341 C329 1.242 . S
O342 Tb320 2.324 . S
O342 C329 1.258 . S
O343 Eu321 2.500 . S
O343 C326 1.273 . S
O344 Eu321 2.473 . S
O344 C326 1.257 . S
H345 C331 0.929 . S
H346 C333 0.931 . S
H347 C335 0.929 . S
O348 Tb349 2.292 . S
O348 C351 1.255 . S
Tb349 O348 2.292 . S
Tb349 O365 2.326 . S
Tb349 O367 2.500 . S
Tb349 O368 2.473 . S
Tb349 O371 2.324 . S
Eu350 O354 2.292 . S
Eu350 C355 2.852 . S
Eu350 O366 2.324 . S
Eu350 O370 2.326 . S
Eu350 O372 2.500 . S
Eu350 O373 2.473 . S
C351 O348 1.255 . S
C351 O352 1.247 . S
O352 C351 1.247 . S
C353 O365 1.242 . S
C353 O366 1.258 . S
O354 Eu350 2.292 . S
O354 C356 1.255 . S
C355 Eu350 2.852 . S
C355 C359 1.503 . S
C355 O372 1.273 . S
C355 O373 1.257 . S
C356 O354 1.255 . S
C356 O357 1.247 . S
O357 C356 1.247 . S
C358 O370 1.242 . S
C358 O371 1.258 . S
C359 C355 1.503 . S
C359 C360 1.379 . S
C359 C364 1.392 . S
C360 C359 1.379 . S
C360 C361 1.404 . S
C360 H374 0.929 . S
C361 C360 1.404 . S
C361 C362 1.389 . S
C362 C361 1.389 . S
C362 C363 1.399 . S
C362 H375 0.931 . S
C363 C362 1.399 . S
C363 C364 1.390 . S
C364 C359 1.392 . S
C364 C363 1.390 . S
C364 H376 0.929 . S
O365 Tb349 2.326 . S
O365 C353 1.242 . S
O366 Eu350 2.324 . S
O366 C353 1.258 . S
O367 Tb349 2.500 . S
O367 C369 1.273 . S
O368 Tb349 2.473 . S
O368 C369 1.257 . S
C369 O367 1.273 . S
C369 O368 1.257 . S
O370 Eu350 2.326 . S
O370 C358 1.242 . S
O371 Tb349 2.324 . S
O371 C358 1.258 . S
O372 Eu350 2.500 . S
O372 C355 1.273 . S
O373 Eu350 2.473 . S
O373 C355 1.257 . S
H374 C360 0.929 . S
H375 C362 0.931 . S
H376 C364 0.929 . S
O377 Tb378 2.292 . S
O377 C380 1.255 . S
Tb378 O377 2.292 . S
Tb378 O394 2.326 . S
Tb378 O396 2.500 . S
Tb378 O397 2.473 . S
Tb378 O400 2.324 . S
Eu379 O383 2.292 1_455 S
Eu379 C384 2.852 . S
Eu379 O395 2.324 . S
Eu379 O399 2.326 . S
Eu379 O401 2.500 . S
Eu379 O402 2.473 . S
C380 O377 1.255 . S
C380 O381 1.247 . S
O381 C380 1.247 . S
C382 O394 1.242 . S
C382 O395 1.258 . S
O383 Eu379 2.292 1_655 S
O383 C385 1.255 . S
C384 Eu379 2.852 . S
C384 C388 1.503 . S
C384 O401 1.273 . S
C384 O402 1.257 . S
C385 O383 1.255 . S
C385 O386 1.247 . S
O386 C385 1.247 . S
C387 O399 1.242 . S
C387 O400 1.258 . S
C388 C384 1.503 . S
C388 C389 1.379 . S
C388 C393 1.392 . S
C389 C388 1.379 . S
C389 C390 1.404 . S
C389 H403 0.929 . S
C390 C389 1.404 . S
C390 C391 1.389 . S
C391 C390 1.389 . S
C391 C392 1.399 . S
C391 H404 0.931 . S
C392 C391 1.399 . S
C392 C393 1.390 . S
C393 C388 1.392 . S
C393 C392 1.390 . S
C393 H405 0.929 . S
O394 Tb378 2.326 . S
O394 C382 1.242 . S
O395 Eu379 2.324 . S
O395 C382 1.258 . S
O396 Tb378 2.500 . S
O396 C398 1.273 . S
O397 Tb378 2.473 . S
O397 C398 1.257 . S
C398 O396 1.273 . S
C398 O397 1.257 . S
O399 Eu379 2.326 . S
O399 C387 1.242 . S
O400 Tb378 2.324 . S
O400 C387 1.258 . S
O401 Eu379 2.500 . S
O401 C384 1.273 . S
O402 Eu379 2.473 . S
O402 C384 1.257 . S
H403 C389 0.929 . S
H404 C391 0.931 . S
H405 C393 0.929 . S
O406 Tb407 2.292 . S
O406 C409 1.255 . S
Tb407 O406 2.292 . S
Tb407 O423 2.326 . S
Tb407 O425 2.500 . S
Tb407 O426 2.473 . S
Tb407 O429 2.324 . S
Eu408 O412 2.292 1_545 S
Eu408 C413 2.852 . S
Eu408 O424 2.324 . S
Eu408 O428 2.326 . S
Eu408 O430 2.500 . S
Eu408 O431 2.473 . S
C409 O406 1.255 . S
C409 O410 1.247 . S
O410 C409 1.247 . S
C411 O423 1.242 . S
C411 O424 1.258 . S
O412 Eu408 2.292 1_565 S
O412 C414 1.255 . S
C413 Eu408 2.852 . S
C413 C417 1.503 . S
C413 O430 1.273 . S
C413 O431 1.257 . S
C414 O412 1.255 . S
C414 O415 1.247 . S
O415 C414 1.247 . S
C416 O428 1.242 . S
C416 O429 1.258 . S
C417 C413 1.503 . S
C417 C418 1.379 . S
C417 C422 1.392 . S
C418 C417 1.379 . S
C418 C419 1.404 . S
C418 H432 0.929 . S
C419 C418 1.404 . S
C419 C420 1.389 . S
C420 C419 1.389 . S
C420 C421 1.399 . S
C420 H433 0.931 . S
C421 C420 1.399 . S
C421 C422 1.390 . S
C422 C417 1.392 . S
C422 C421 1.390 . S
C422 H434 0.929 . S
O423 Tb407 2.326 . S
O423 C411 1.242 . S
O424 Eu408 2.324 . S
O424 C411 1.258 . S
O425 Tb407 2.500 . S
O425 C427 1.273 . S
O426 Tb407 2.473 . S
O426 C427 1.257 . S
C427 O425 1.273 . S
C427 O426 1.257 . S
O428 Eu408 2.326 . S
O428 C416 1.242 . S
O429 Tb407 2.324 . S
O429 C416 1.258 . S
O430 Eu408 2.500 . S
O430 C413 1.273 . S
O431 Eu408 2.473 . S
O431 C413 1.257 . S
H432 C418 0.929 . S
H433 C420 0.931 . S
H434 C422 0.929 . S
O435 Tb436 2.292 . S
O435 C438 1.255 . S
Tb436 O435 2.292 . S
Tb436 O452 2.326 . S
Tb436 O454 2.500 . S
Tb436 O455 2.473 . S
Tb436 O458 2.324 . S
Eu437 O441 2.292 . S
Eu437 C442 2.852 . S
Eu437 O453 2.324 . S
Eu437 O457 2.326 . S
Eu437 O459 2.500 . S
Eu437 O460 2.473 . S
C438 O435 1.255 . S
C438 O439 1.247 . S
O439 C438 1.247 . S
C440 O452 1.242 . S
C440 O453 1.258 . S
O441 Eu437 2.292 . S
O441 C443 1.255 . S
C442 Eu437 2.852 . S
C442 C446 1.503 . S
C442 O459 1.273 . S
C442 O460 1.257 . S
C443 O441 1.255 . S
C443 O444 1.247 . S
O444 C443 1.247 . S
C445 O457 1.242 . S
C445 O458 1.258 . S
C446 C442 1.503 . S
C446 C447 1.379 . S
C446 C451 1.392 . S
C447 C446 1.379 . S
C447 C448 1.404 . S
C447 H461 0.929 . S
C448 C447 1.404 . S
C448 C449 1.389 . S
C449 C448 1.389 . S
C449 C450 1.399 . S
C449 H462 0.931 . S
C450 C449 1.399 . S
C450 C451 1.390 . S
C451 C446 1.392 . S
C451 C450 1.390 . S
C451 H463 0.929 . S
O452 Tb436 2.326 . S
O452 C440 1.242 . S
O453 Eu437 2.324 . S
O453 C440 1.258 . S
O454 Tb436 2.500 . S
O454 C456 1.273 . S
O455 Tb436 2.473 . S
O455 C456 1.257 . S
C456 O454 1.273 . S
C456 O455 1.257 . S
O457 Eu437 2.326 . S
O457 C445 1.242 . S
O458 Tb436 2.324 . S
O458 C445 1.258 . S
O459 Eu437 2.500 . S
O459 C442 1.273 . S
O460 Eu437 2.473 . S
O460 C442 1.257 . S
H461 C447 0.929 . S
H462 C449 0.931 . S
H463 C451 0.929 . S
O464 Tb465 2.292 . S
O464 C467 1.255 . S
Tb465 O464 2.292 . S
Tb465 O481 2.326 . S
Tb465 O483 2.500 . S
Tb465 O484 2.473 . S
Tb465 O487 2.324 . S
Eu466 O470 2.292 1_554 S
Eu466 C471 2.852 . S
Eu466 O482 2.324 . S
Eu466 O486 2.326 . S
Eu466 O488 2.500 . S
Eu466 O489 2.473 . S
C467 O464 1.255 . S
C467 O468 1.247 . S
O468 C467 1.247 . S
C469 O481 1.242 . S
C469 O482 1.258 . S
O470 Eu466 2.292 1_556 S
O470 C472 1.255 . S
C471 Eu466 2.852 . S
C471 C475 1.503 . S
C471 O488 1.273 . S
C471 O489 1.257 . S
C472 O470 1.255 . S
C472 O473 1.247 . S
O473 C472 1.247 . S
C474 O486 1.242 . S
C474 O487 1.258 . S
C475 C471 1.503 . S
C475 C476 1.379 . S
C475 C480 1.392 . S
C476 C475 1.379 . S
C476 C477 1.404 . S
C476 H490 0.929 . S
C477 C476 1.404 . S
C477 C478 1.389 . S
C478 C477 1.389 . S
C478 C479 1.399 . S
C478 H491 0.931 . S
C479 C478 1.399 . S
C479 C480 1.390 . S
C480 C475 1.392 . S
C480 C479 1.390 . S
C480 H492 0.929 . S
O481 Tb465 2.326 . S
O481 C469 1.242 . S
O482 Eu466 2.324 . S
O482 C469 1.258 . S
O483 Tb465 2.500 . S
O483 C485 1.273 . S
O484 Tb465 2.473 . S
O484 C485 1.257 . S
C485 O483 1.273 . S
C485 O484 1.257 . S
O486 Eu466 2.326 . S
O486 C474 1.242 . S
O487 Tb465 2.324 . S
O487 C474 1.258 . S
O488 Eu466 2.500 . S
O488 C471 1.273 . S
O489 Eu466 2.473 . S
O489 C471 1.257 . S
H490 C476 0.929 . S
H491 C478 0.931 . S
H492 C480 0.929 . S
O493 Tb494 2.292 . S
O493 C496 1.255 . S
Tb494 O493 2.292 . S
Tb494 O510 2.326 . S
Tb494 O512 2.500 . S
Tb494 O513 2.473 . S
Tb494 O516 2.324 . S
Eu495 O499 2.292 . S
Eu495 C500 2.852 . S
Eu495 O511 2.324 . S
Eu495 O515 2.326 . S
Eu495 O517 2.500 . S
Eu495 O518 2.473 . S
C496 O493 1.255 . S
C496 O497 1.247 . S
O497 C496 1.247 . S
C498 O510 1.242 . S
C498 O511 1.258 . S
O499 Eu495 2.292 . S
O499 C501 1.255 . S
C500 Eu495 2.852 . S
C500 C504 1.503 . S
C500 O517 1.273 . S
C500 O518 1.257 . S
C501 O499 1.255 . S
C501 O502 1.247 . S
O502 C501 1.247 . S
C503 O515 1.242 . S
C503 O516 1.258 . S
C504 C500 1.503 . S
C504 C505 1.379 . S
C504 C509 1.392 . S
C505 C504 1.379 . S
C505 C506 1.404 . S
C505 H519 0.929 . S
C506 C505 1.404 . S
C506 C507 1.389 . S
C507 C506 1.389 . S
C507 C508 1.399 . S
C507 H520 0.931 . S
C508 C507 1.399 . S
C508 C509 1.390 . S
C509 C504 1.392 . S
C509 C508 1.390 . S
C509 H521 0.929 . S
O510 Tb494 2.326 . S
O510 C498 1.242 . S
O511 Eu495 2.324 . S
O511 C498 1.258 . S
O512 Tb494 2.500 . S
O512 C514 1.273 . S
O513 Tb494 2.473 . S
O513 C514 1.257 . S
C514 O512 1.273 . S
C514 O513 1.257 . S
O515 Eu495 2.326 . S
O515 C503 1.242 . S
O516 Tb494 2.324 . S
O516 C503 1.258 . S
O517 Eu495 2.500 . S
O517 C500 1.273 . S
O518 Eu495 2.473 . S
O518 C500 1.257 . S
H519 C505 0.929 . S
H520 C507 0.931 . S
H521 C509 0.929 . S
O522 Tb523 2.292 . S
O522 C525 1.255 . S
Tb523 O522 2.292 . S
Tb523 O539 2.326 . S
Tb523 O541 2.500 . S
Tb523 O542 2.473 . S
Tb523 O545 2.324 . S
Eu524 O528 2.292 . S
Eu524 C529 2.852 . S
Eu524 O540 2.324 . S
Eu524 O544 2.326 . S
Eu524 O546 2.500 . S
Eu524 O547 2.473 . S
C525 O522 1.255 . S
C525 O526 1.247 . S
O526 C525 1.247 . S
C527 O539 1.242 . S
C527 O540 1.258 . S
O528 Eu524 2.292 . S
O528 C530 1.255 . S
C529 Eu524 2.852 . S
C529 C533 1.503 . S
C529 O546 1.273 . S
C529 O547 1.257 . S
C530 O528 1.255 . S
C530 O531 1.247 . S
O531 C530 1.247 . S
C532 O544 1.242 . S
C532 O545 1.258 . S
C533 C529 1.503 . S
C533 C534 1.379 . S
C533 C538 1.392 . S
C534 C533 1.379 . S
C534 C535 1.404 . S
C534 H548 0.929 . S
C535 C534 1.404 . S
C535 C536 1.389 . S
C536 C535 1.389 . S
C536 C537 1.399 . S
C536 H549 0.931 . S
C537 C536 1.399 . S
C537 C538 1.390 . S
C538 C533 1.392 . S
C538 C537 1.390 . S
C538 H550 0.929 . S
O539 Tb523 2.326 . S
O539 C527 1.242 . S
O540 Eu524 2.324 . S
O540 C527 1.258 . S
O541 Tb523 2.500 . S
O541 C543 1.273 . S
O542 Tb523 2.473 . S
O542 C543 1.257 . S
C543 O541 1.273 . S
C543 O542 1.257 . S
O544 Eu524 2.326 . S
O544 C532 1.242 . S
O545 Tb523 2.324 . S
O545 C532 1.258 . S
O546 Eu524 2.500 . S
O546 C529 1.273 . S
O547 Eu524 2.473 . S
O547 C529 1.257 . S
H548 C534 0.929 . S
H549 C536 0.931 . S
H550 C538 0.929 . S
O551 Tb552 2.292 . S
O551 C554 1.255 . S
Tb552 O551 2.292 . S
Tb552 O568 2.326 . S
Tb552 O570 2.500 . S
Tb552 O571 2.473 . S
Tb552 O574 2.324 . S
Eu553 O557 2.292 . S
Eu553 C558 2.852 . S
Eu553 O569 2.324 . S
Eu553 O573 2.326 . S
Eu553 O575 2.500 . S
Eu553 O576 2.473 . S
C554 O551 1.255 . S
C554 O555 1.247 . S
O555 C554 1.247 . S
C556 O568 1.242 . S
C556 O569 1.258 . S
O557 Eu553 2.292 . S
O557 C559 1.255 . S
C558 Eu553 2.852 . S
C558 C562 1.503 . S
C558 O575 1.273 . S
C558 O576 1.257 . S
C559 O557 1.255 . S
C559 O560 1.247 . S
O560 C559 1.247 . S
C561 O573 1.242 . S
C561 O574 1.258 . S
C562 C558 1.503 . S
C562 C563 1.379 . S
C562 C567 1.392 . S
C563 C562 1.379 . S
C563 C564 1.404 . S
C563 H577 0.929 . S
C564 C563 1.404 . S
C564 C565 1.389 . S
C565 C564 1.389 . S
C565 C566 1.399 . S
C565 H578 0.931 . S
C566 C565 1.399 . S
C566 C567 1.390 . S
C567 C562 1.392 . S
C567 C566 1.390 . S
C567 H579 0.929 . S
O568 Tb552 2.326 . S
O568 C556 1.242 . S
O569 Eu553 2.324 . S
O569 C556 1.258 . S
O570 Tb552 2.500 . S
O570 C572 1.273 . S
O571 Tb552 2.473 . S
O571 C572 1.257 . S
C572 O570 1.273 . S
C572 O571 1.257 . S
O573 Eu553 2.326 . S
O573 C561 1.242 . S
O574 Tb552 2.324 . S
O574 C561 1.258 . S
O575 Eu553 2.500 . S
O575 C558 1.273 . S
O576 Eu553 2.473 . S
O576 C558 1.257 . S
H577 C563 0.929 . S
H578 C565 0.931 . S
H579 C567 0.929 . S
O580 Tb581 2.292 . S
O580 C583 1.255 . S
Tb581 O580 2.292 . S
Tb581 O597 2.326 . S
Tb581 O599 2.500 . S
Tb581 O600 2.473 . S
Tb581 O603 2.324 . S
Eu582 O586 2.292 . S
Eu582 C587 2.852 . S
Eu582 O598 2.324 . S
Eu582 O602 2.326 . S
Eu582 O604 2.500 . S
Eu582 O605 2.473 . S
C583 O580 1.255 . S
C583 O584 1.247 . S
O584 C583 1.247 . S
C585 O597 1.242 . S
C585 O598 1.258 . S
O586 Eu582 2.292 . S
O586 C588 1.255 . S
C587 Eu582 2.852 . S
C587 C591 1.503 . S
C587 O604 1.273 . S
C587 O605 1.257 . S
C588 O586 1.255 . S
C588 O589 1.247 . S
O589 C588 1.247 . S
C590 O602 1.242 . S
C590 O603 1.258 . S
C591 C587 1.503 . S
C591 C592 1.379 . S
C591 C596 1.392 . S
C592 C591 1.379 . S
C592 C593 1.404 . S
C592 H606 0.929 . S
C593 C592 1.404 . S
C593 C594 1.389 . S
C594 C593 1.389 . S
C594 C595 1.399 . S
C594 H607 0.931 . S
C595 C594 1.399 . S
C595 C596 1.390 . S
C596 C591 1.392 . S
C596 C595 1.390 . S
C596 H608 0.929 . S
O597 Tb581 2.326 . S
O597 C585 1.242 . S
O598 Eu582 2.324 . S
O598 C585 1.258 . S
O599 Tb581 2.500 . S
O599 C601 1.273 . S
O600 Tb581 2.473 . S
O600 C601 1.257 . S
C601 O599 1.273 . S
C601 O600 1.257 . S
O602 Eu582 2.326 . S
O602 C590 1.242 . S
O603 Tb581 2.324 . S
O603 C590 1.258 . S
O604 Eu582 2.500 . S
O604 C587 1.273 . S
O605 Eu582 2.473 . S
O605 C587 1.257 . S
H606 C592 0.929 . S
H607 C594 0.931 . S
H608 C596 0.929 . S
O609 Tb610 2.292 . S
O609 C612 1.255 . S
Tb610 O609 2.292 . S
Tb610 O626 2.326 . S
Tb610 O628 2.500 . S
Tb610 O629 2.473 . S
Tb610 O632 2.324 . S
Eu611 O615 2.292 1_554 S
Eu611 C616 2.852 . S
Eu611 O627 2.324 . S
Eu611 O631 2.326 . S
Eu611 O633 2.500 . S
Eu611 O634 2.473 . S
C612 O609 1.255 . S
C612 O613 1.247 . S
O613 C612 1.247 . S
C614 O626 1.242 . S
C614 O627 1.258 . S
O615 Eu611 2.292 1_556 S
O615 C617 1.255 . S
C616 Eu611 2.852 . S
C616 C620 1.503 . S
C616 O633 1.273 . S
C616 O634 1.257 . S
C617 O615 1.255 . S
C617 O618 1.247 . S
O618 C617 1.247 . S
C619 O631 1.242 . S
C619 O632 1.258 . S
C620 C616 1.503 . S
C620 C621 1.379 . S
C620 C625 1.392 . S
C621 C620 1.379 . S
C621 C622 1.404 . S
C621 H635 0.929 . S
C622 C621 1.404 . S
C622 C623 1.389 . S
C623 C622 1.389 . S
C623 C624 1.399 . S
C623 H636 0.931 . S
C624 C623 1.399 . S
C624 C625 1.390 . S
C625 C620 1.392 . S
C625 C624 1.390 . S
C625 H637 0.929 . S
O626 Tb610 2.326 . S
O626 C614 1.242 . S
O627 Eu611 2.324 . S
O627 C614 1.258 . S
O628 Tb610 2.500 . S
O628 C630 1.273 . S
O629 Tb610 2.473 . S
O629 C630 1.257 . S
C630 O628 1.273 . S
C630 O629 1.257 . S
O631 Eu611 2.326 . S
O631 C619 1.242 . S
O632 Tb610 2.324 . S
O632 C619 1.258 . S
O633 Eu611 2.500 . S
O633 C616 1.273 . S
O634 Eu611 2.473 . S
O634 C616 1.257 . S
H635 C621 0.929 . S
H636 C623 0.931 . S
H637 C625 0.929 . S
O638 Tb639 2.292 . S
O638 C641 1.255 . S
Tb639 O638 2.292 . S
Tb639 O655 2.326 . S
Tb639 O657 2.500 . S
Tb639 O658 2.473 . S
Tb639 O661 2.324 . S
Eu640 O644 2.292 1_554 S
Eu640 C645 2.852 . S
Eu640 O656 2.324 . S
Eu640 O660 2.326 . S
Eu640 O662 2.500 . S
Eu640 O663 2.473 . S
C641 O638 1.255 . S
C641 O642 1.247 . S
O642 C641 1.247 . S
C643 O655 1.242 . S
C643 O656 1.258 . S
O644 Eu640 2.292 1_556 S
O644 C646 1.255 . S
C645 Eu640 2.852 . S
C645 C649 1.503 . S
C645 O662 1.273 . S
C645 O663 1.257 . S
C646 O644 1.255 . S
C646 O647 1.247 . S
O647 C646 1.247 . S
C648 O660 1.242 . S
C648 O661 1.258 . S
C649 C645 1.503 . S
C649 C650 1.379 . S
C649 C654 1.392 . S
C650 C649 1.379 . S
C650 C651 1.404 . S
C650 H664 0.929 . S
C651 C650 1.404 . S
C651 C652 1.389 . S
C652 C651 1.389 . S
C652 C653 1.399 . S
C652 H665 0.931 . S
C653 C652 1.399 . S
C653 C654 1.390 . S
C654 C649 1.392 . S
C654 C653 1.390 . S
C654 H666 0.929 . S
O655 Tb639 2.326 . S
O655 C643 1.242 . S
O656 Eu640 2.324 . S
O656 C643 1.258 . S
O657 Tb639 2.500 . S
O657 C659 1.273 . S
O658 Tb639 2.473 . S
O658 C659 1.257 . S
C659 O657 1.273 . S
C659 O658 1.257 . S
O660 Eu640 2.326 . S
O660 C648 1.242 . S
O661 Tb639 2.324 . S
O661 C648 1.258 . S
O662 Eu640 2.500 . S
O662 C645 1.273 . S
O663 Eu640 2.473 . S
O663 C645 1.257 . S
H664 C650 0.929 . S
H665 C652 0.931 . S
H666 C654 0.929 . S
O667 Tb668 2.292 . S
O667 C670 1.255 . S
Tb668 O667 2.292 . S
Tb668 O684 2.326 . S
Tb668 O686 2.500 . S
Tb668 O687 2.473 . S
Tb668 O690 2.324 . S
Eu669 O673 2.292 1_554 S
Eu669 C674 2.852 . S
Eu669 O685 2.324 . S
Eu669 O689 2.326 . S
Eu669 O691 2.500 . S
Eu669 O692 2.473 . S
C670 O667 1.255 . S
C670 O671 1.247 . S
O671 C670 1.247 . S
C672 O684 1.242 . S
C672 O685 1.258 . S
O673 Eu669 2.292 1_556 S
O673 C675 1.255 . S
C674 Eu669 2.852 . S
C674 C678 1.503 . S
C674 O691 1.273 . S
C674 O692 1.257 . S
C675 O673 1.255 . S
C675 O676 1.247 . S
O676 C675 1.247 . S
C677 O689 1.242 . S
C677 O690 1.258 . S
C678 C674 1.503 . S
C678 C679 1.379 . S
C678 C683 1.392 . S
C679 C678 1.379 . S
C679 C680 1.404 . S
C679 H693 0.929 . S
C680 C679 1.404 . S
C680 C681 1.389 . S
C681 C680 1.389 . S
C681 C682 1.399 . S
C681 H694 0.931 . S
C682 C681 1.399 . S
C682 C683 1.390 . S
C683 C678 1.392 . S
C683 C682 1.390 . S
C683 H695 0.929 . S
O684 Tb668 2.326 . S
O684 C672 1.242 . S
O685 Eu669 2.324 . S
O685 C672 1.258 . S
O686 Tb668 2.500 . S
O686 C688 1.273 . S
O687 Tb668 2.473 . S
O687 C688 1.257 . S
C688 O686 1.273 . S
C688 O687 1.257 . S
O689 Eu669 2.326 . S
O689 C677 1.242 . S
O690 Tb668 2.324 . S
O690 C677 1.258 . S
O691 Eu669 2.500 . S
O691 C674 1.273 . S
O692 Eu669 2.473 . S
O692 C674 1.257 . S
H693 C679 0.929 . S
H694 C681 0.931 . S
H695 C683 0.929 . S
O696 Tb697 2.292 . S
O696 C699 1.255 . S
Tb697 O696 2.292 . S
Tb697 O713 2.326 . S
Tb697 O715 2.500 . S
Tb697 O716 2.473 . S
Tb697 O719 2.324 . S
Eu698 O702 2.292 1_655 S
Eu698 C703 2.852 . S
Eu698 O714 2.324 . S
Eu698 O718 2.326 . S
Eu698 O720 2.500 . S
Eu698 O721 2.473 . S
C699 O696 1.255 . S
C699 O700 1.247 . S
O700 C699 1.247 . S
C701 O713 1.242 . S
C701 O714 1.258 . S
O702 Eu698 2.292 1_455 S
O702 C704 1.255 . S
C703 Eu698 2.852 . S
C703 C707 1.503 . S
C703 O720 1.273 . S
C703 O721 1.257 . S
C704 O702 1.255 . S
C704 O705 1.247 . S
O705 C704 1.247 . S
C706 O718 1.242 . S
C706 O719 1.258 . S
C707 C703 1.503 . S
C707 C708 1.379 . S
C707 C712 1.392 . S
C708 C707 1.379 . S
C708 C709 1.404 . S
C708 H722 0.929 . S
C709 C708 1.404 . S
C709 C710 1.389 . S
C710 C709 1.389 . S
C710 C711 1.399 . S
C710 H723 0.931 . S
C711 C710 1.399 . S
C711 C712 1.390 . S
C712 C707 1.392 . S
C712 C711 1.390 . S
C712 H724 0.929 . S
O713 Tb697 2.326 . S
O713 C701 1.242 . S
O714 Eu698 2.324 . S
O714 C701 1.258 . S
O715 Tb697 2.500 . S
O715 C717 1.273 . S
O716 Tb697 2.473 . S
O716 C717 1.257 . S
C717 O715 1.273 . S
C717 O716 1.257 . S
O718 Eu698 2.326 . S
O718 C706 1.242 . S
O719 Tb697 2.324 . S
O719 C706 1.258 . S
O720 Eu698 2.500 . S
O720 C703 1.273 . S
O721 Eu698 2.473 . S
O721 C703 1.257 . S
H722 C708 0.929 . S
H723 C710 0.931 . S
H724 C712 0.929 . S
O725 Tb726 2.292 . S
O725 C728 1.255 . S
Tb726 O725 2.292 . S
Tb726 O742 2.326 . S
Tb726 O744 2.500 . S
Tb726 O745 2.473 . S
Tb726 O748 2.324 . S
Eu727 O731 2.292 1_565 S
Eu727 C732 2.852 . S
Eu727 O743 2.324 . S
Eu727 O747 2.326 . S
Eu727 O749 2.500 . S
Eu727 O750 2.473 . S
C728 O725 1.255 . S
C728 O729 1.247 . S
O729 C728 1.247 . S
C730 O742 1.242 . S
C730 O743 1.258 . S
O731 Eu727 2.292 1_545 S
O731 C733 1.255 . S
C732 Eu727 2.852 . S
C732 C736 1.503 . S
C732 O749 1.273 . S
C732 O750 1.257 . S
C733 O731 1.255 . S
C733 O734 1.247 . S
O734 C733 1.247 . S
C735 O747 1.242 . S
C735 O748 1.258 . S
C736 C732 1.503 . S
C736 C737 1.379 . S
C736 C741 1.392 . S
C737 C736 1.379 . S
C737 C738 1.404 . S
C737 H751 0.929 . S
C738 C737 1.404 . S
C738 C739 1.389 . S
C739 C738 1.389 . S
C739 C740 1.399 . S
C739 H752 0.931 . S
C740 C739 1.399 . S
C740 C741 1.390 . S
C741 C736 1.392 . S
C741 C740 1.390 . S
C741 H753 0.929 . S
O742 Tb726 2.326 . S
O742 C730 1.242 . S
O743 Eu727 2.324 . S
O743 C730 1.258 . S
O744 Tb726 2.500 . S
O744 C746 1.273 . S
O745 Tb726 2.473 . S
O745 C746 1.257 . S
C746 O744 1.273 . S
C746 O745 1.257 . S
O747 Eu727 2.326 . S
O747 C735 1.242 . S
O748 Tb726 2.324 . S
O748 C735 1.258 . S
O749 Eu727 2.500 . S
O749 C732 1.273 . S
O750 Eu727 2.473 . S
O750 C732 1.257 . S
H751 C737 0.929 . S
H752 C739 0.931 . S
H753 C741 0.929 . S
O754 Tb755 2.292 . S
O754 C757 1.255 . S
Tb755 O754 2.292 . S
Tb755 O771 2.326 . S
Tb755 O773 2.500 . S
Tb755 O774 2.473 . S
Tb755 O777 2.324 . S
Eu756 O760 2.292 . S
Eu756 C761 2.852 . S
Eu756 O772 2.324 . S
Eu756 O776 2.326 . S
Eu756 O778 2.500 . S
Eu756 O779 2.473 . S
C757 O754 1.255 . S
C757 O758 1.247 . S
O758 C757 1.247 . S
C759 O771 1.242 . S
C759 O772 1.258 . S
O760 Eu756 2.292 . S
O760 C762 1.255 . S
C761 Eu756 2.852 . S
C761 C765 1.503 . S
C761 O778 1.273 . S
C761 O779 1.257 . S
C762 O760 1.255 . S
C762 O763 1.247 . S
O763 C762 1.247 . S
C764 O776 1.242 . S
C764 O777 1.258 . S
C765 C761 1.503 . S
C765 C766 1.379 . S
C765 C770 1.392 . S
C766 C765 1.379 . S
C766 C767 1.404 . S
C766 H780 0.929 . S
C767 C766 1.404 . S
C767 C768 1.389 . S
C768 C767 1.389 . S
C768 C769 1.399 . S
C768 H781 0.931 . S
C769 C768 1.399 . S
C769 C770 1.390 . S
C770 C765 1.392 . S
C770 C769 1.390 . S
C770 H782 0.929 . S
O771 Tb755 2.326 . S
O771 C759 1.242 . S
O772 Eu756 2.324 . S
O772 C759 1.258 . S
O773 Tb755 2.500 . S
O773 C775 1.273 . S
O774 Tb755 2.473 . S
O774 C775 1.257 . S
C775 O773 1.273 . S
C775 O774 1.257 . S
O776 Eu756 2.326 . S
O776 C764 1.242 . S
O777 Tb755 2.324 . S
O777 C764 1.258 . S
O778 Eu756 2.500 . S
O778 C761 1.273 . S
O779 Eu756 2.473 . S
O779 C761 1.257 . S
H780 C766 0.929 . S
H781 C768 0.931 . S
H782 C770 0.929 . S
O783 Tb784 2.292 . S
O783 C786 1.255 . S
Tb784 O783 2.292 . S
Tb784 O800 2.326 . S
Tb784 O802 2.500 . S
Tb784 O803 2.473 . S
Tb784 O806 2.324 . S
Eu785 O789 2.292 . S
Eu785 C790 2.852 . S
Eu785 O801 2.324 . S
Eu785 O805 2.326 . S
Eu785 O807 2.500 . S
Eu785 O808 2.473 . S
C786 O783 1.255 . S
C786 O787 1.247 . S
O787 C786 1.247 . S
C788 O800 1.242 . S
C788 O801 1.258 . S
O789 Eu785 2.292 . S
O789 C791 1.255 . S
C790 Eu785 2.852 . S
C790 C794 1.503 . S
C790 O807 1.273 . S
C790 O808 1.257 . S
C791 O789 1.255 . S
C791 O792 1.247 . S
O792 C791 1.247 . S
C793 O805 1.242 . S
C793 O806 1.258 . S
C794 C790 1.503 . S
C794 C795 1.379 . S
C794 C799 1.392 . S
C795 C794 1.379 . S
C795 C796 1.404 . S
C795 H809 0.929 . S
C796 C795 1.404 . S
C796 C797 1.389 . S
C797 C796 1.389 . S
C797 C798 1.399 . S
C797 H810 0.931 . S
C798 C797 1.399 . S
C798 C799 1.390 . S
C799 C794 1.392 . S
C799 C798 1.390 . S
C799 H811 0.929 . S
O800 Tb784 2.326 . S
O800 C788 1.242 . S
O801 Eu785 2.324 . S
O801 C788 1.258 . S
O802 Tb784 2.500 . S
O802 C804 1.273 . S
O803 Tb784 2.473 . S
O803 C804 1.257 . S
C804 O802 1.273 . S
C804 O803 1.257 . S
O805 Eu785 2.326 . S
O805 C793 1.242 . S
O806 Tb784 2.324 . S
O806 C793 1.258 . S
O807 Eu785 2.500 . S
O807 C790 1.273 . S
O808 Eu785 2.473 . S
O808 C790 1.257 . S
H809 C795 0.929 . S
H810 C797 0.931 . S
H811 C799 0.929 . S
O812 Tb813 2.292 . S
O812 C815 1.255 . S
Tb813 O812 2.292 . S
Tb813 O829 2.326 . S
Tb813 O831 2.500 . S
Tb813 O832 2.473 . S
Tb813 O835 2.324 . S
Eu814 O818 2.292 1_655 S
Eu814 C819 2.852 . S
Eu814 O830 2.324 . S
Eu814 O834 2.326 . S
Eu814 O836 2.500 . S
Eu814 O837 2.473 . S
C815 O812 1.255 . S
C815 O816 1.247 . S
O816 C815 1.247 . S
C817 O829 1.242 . S
C817 O830 1.258 . S
O818 Eu814 2.292 1_455 S
O818 C820 1.255 . S
C819 Eu814 2.852 . S
C819 C823 1.503 . S
C819 O836 1.273 . S
C819 O837 1.257 . S
C820 O818 1.255 . S
C820 O821 1.247 . S
O821 C820 1.247 . S
C822 O834 1.242 . S
C822 O835 1.258 . S
C823 C819 1.503 . S
C823 C824 1.379 . S
C823 C828 1.392 . S
C824 C823 1.379 . S
C824 C825 1.404 . S
C824 H838 0.929 . S
C825 C824 1.404 . S
C825 C826 1.389 . S
C826 C825 1.389 . S
C826 C827 1.399 . S
C826 H839 0.931 . S
C827 C826 1.399 . S
C827 C828 1.390 . S
C828 C823 1.392 . S
C828 C827 1.390 . S
C828 H840 0.929 . S
O829 Tb813 2.326 . S
O829 C817 1.242 . S
O830 Eu814 2.324 . S
O830 C817 1.258 . S
O831 Tb813 2.500 . S
O831 C833 1.273 . S
O832 Tb813 2.473 . S
O832 C833 1.257 . S
C833 O831 1.273 . S
C833 O832 1.257 . S
O834 Eu814 2.326 . S
O834 C822 1.242 . S
O835 Tb813 2.324 . S
O835 C822 1.258 . S
O836 Eu814 2.500 . S
O836 C819 1.273 . S
O837 Eu814 2.473 . S
O837 C819 1.257 . S
H838 C824 0.929 . S
H839 C826 0.931 . S
H840 C828 0.929 . S
O841 Tb842 2.292 . S
O841 C844 1.255 . S
Tb842 O841 2.292 . S
Tb842 O858 2.326 . S
Tb842 O860 2.500 . S
Tb842 O861 2.473 . S
Tb842 O864 2.324 . S
Eu843 O847 2.292 1_565 S
Eu843 C848 2.852 . S
Eu843 O859 2.324 . S
Eu843 O863 2.326 . S
Eu843 O865 2.500 . S
Eu843 O866 2.473 . S
C844 O841 1.255 . S
C844 O845 1.247 . S
O845 C844 1.247 . S
C846 O858 1.242 . S
C846 O859 1.258 . S
O847 Eu843 2.292 1_545 S
O847 C849 1.255 . S
C848 Eu843 2.852 . S
C848 C852 1.503 . S
C848 O865 1.273 . S
C848 O866 1.257 . S
C849 O847 1.255 . S
C849 O850 1.247 . S
O850 C849 1.247 . S
C851 O863 1.242 . S
C851 O864 1.258 . S
C852 C848 1.503 . S
C852 C853 1.379 . S
C852 C857 1.392 . S
C853 C852 1.379 . S
C853 C854 1.404 . S
C853 H867 0.929 . S
C854 C853 1.404 . S
C854 C855 1.389 . S
C855 C854 1.389 . S
C855 C856 1.399 . S
C855 H868 0.931 . S
C856 C855 1.399 . S
C856 C857 1.390 . S
C857 C852 1.392 . S
C857 C856 1.390 . S
C857 H869 0.929 . S
O858 Tb842 2.326 . S
O858 C846 1.242 . S
O859 Eu843 2.324 . S
O859 C846 1.258 . S
O860 Tb842 2.500 . S
O860 C862 1.273 . S
O861 Tb842 2.473 . S
O861 C862 1.257 . S
C862 O860 1.273 . S
C862 O861 1.257 . S
O863 Eu843 2.326 . S
O863 C851 1.242 . S
O864 Tb842 2.324 . S
O864 C851 1.258 . S
O865 Eu843 2.500 . S
O865 C848 1.273 . S
O866 Eu843 2.473 . S
O866 C848 1.257 . S
H867 C853 0.929 . S
H868 C855 0.931 . S
H869 C857 0.929 . S
O870 Tb871 2.292 . S
O870 C873 1.255 . S
Tb871 O870 2.292 . S
Tb871 O887 2.326 . S
Tb871 O889 2.500 . S
Tb871 O890 2.473 . S
Tb871 O893 2.324 . S
Eu872 O876 2.292 . S
Eu872 C877 2.852 . S
Eu872 O888 2.324 . S
Eu872 O892 2.326 . S
Eu872 O894 2.500 . S
Eu872 O895 2.473 . S
C873 O870 1.255 . S
C873 O874 1.247 . S
O874 C873 1.247 . S
C875 O887 1.242 . S
C875 O888 1.258 . S
O876 Eu872 2.292 . S
O876 C878 1.255 . S
C877 Eu872 2.852 . S
C877 C881 1.503 . S
C877 O894 1.273 . S
C877 O895 1.257 . S
C878 O876 1.255 . S
C878 O879 1.247 . S
O879 C878 1.247 . S
C880 O892 1.242 . S
C880 O893 1.258 . S
C881 C877 1.503 . S
C881 C882 1.379 . S
C881 C886 1.392 . S
C882 C881 1.379 . S
C882 C883 1.404 . S
C882 H896 0.929 . S
C883 C882 1.404 . S
C883 C884 1.389 . S
C884 C883 1.389 . S
C884 C885 1.399 . S
C884 H897 0.931 . S
C885 C884 1.399 . S
C885 C886 1.390 . S
C886 C881 1.392 . S
C886 C885 1.390 . S
C886 H898 0.929 . S
O887 Tb871 2.326 . S
O887 C875 1.242 . S
O888 Eu872 2.324 . S
O888 C875 1.258 . S
O889 Tb871 2.500 . S
O889 C891 1.273 . S
O890 Tb871 2.473 . S
O890 C891 1.257 . S
C891 O889 1.273 . S
C891 O890 1.257 . S
O892 Eu872 2.326 . S
O892 C880 1.242 . S
O893 Tb871 2.324 . S
O893 C880 1.258 . S
O894 Eu872 2.500 . S
O894 C877 1.273 . S
O895 Eu872 2.473 . S
O895 C877 1.257 . S
H896 C882 0.929 . S
H897 C884 0.931 . S
H898 C886 0.929 . S
O899 Tb900 2.292 . S
O899 C902 1.255 . S
Tb900 O899 2.292 . S
Tb900 O916 2.326 . S
Tb900 O918 2.500 . S
Tb900 O919 2.473 . S
Tb900 O922 2.324 . S
Eu901 O905 2.292 . S
Eu901 C906 2.852 . S
Eu901 O917 2.324 . S
Eu901 O921 2.326 . S
Eu901 O923 2.500 . S
Eu901 O924 2.473 . S
C902 O899 1.255 . S
C902 O903 1.247 . S
O903 C902 1.247 . S
C904 O916 1.242 . S
C904 O917 1.258 . S
O905 Eu901 2.292 . S
O905 C907 1.255 . S
C906 Eu901 2.852 . S
C906 C910 1.503 . S
C906 O923 1.273 . S
C906 O924 1.257 . S
C907 O905 1.255 . S
C907 O908 1.247 . S
O908 C907 1.247 . S
C909 O921 1.242 . S
C909 O922 1.258 . S
C910 C906 1.503 . S
C910 C911 1.379 . S
C910 C915 1.392 . S
C911 C910 1.379 . S
C911 C912 1.404 . S
C911 H925 0.929 . S
C912 C911 1.404 . S
C912 C913 1.389 . S
C913 C912 1.389 . S
C913 C914 1.399 . S
C913 H926 0.931 . S
C914 C913 1.399 . S
C914 C915 1.390 . S
C915 C910 1.392 . S
C915 C914 1.390 . S
C915 H927 0.929 . S
O916 Tb900 2.326 . S
O916 C904 1.242 . S
O917 Eu901 2.324 . S
O917 C904 1.258 . S
O918 Tb900 2.500 . S
O918 C920 1.273 . S
O919 Tb900 2.473 . S
O919 C920 1.257 . S
C920 O918 1.273 . S
C920 O919 1.257 . S
O921 Eu901 2.326 . S
O921 C909 1.242 . S
O922 Tb900 2.324 . S
O922 C909 1.258 . S
O923 Eu901 2.500 . S
O923 C906 1.273 . S
O924 Eu901 2.473 . S
O924 C906 1.257 . S
H925 C911 0.929 . S
H926 C913 0.931 . S
H927 C915 0.929 . S
O928 Tb929 2.292 . S
O928 C931 1.255 . S
Tb929 O928 2.292 . S
Tb929 O945 2.326 . S
Tb929 O947 2.500 . S
Tb929 O948 2.473 . S
Tb929 O951 2.324 . S
Eu930 O934 2.292 1_565 S
Eu930 C935 2.852 . S
Eu930 O946 2.324 . S
Eu930 O950 2.326 . S
Eu930 O952 2.500 . S
Eu930 O953 2.473 . S
C931 O928 1.255 . S
C931 O932 1.247 . S
O932 C931 1.247 . S
C933 O945 1.242 . S
C933 O946 1.258 . S
O934 Eu930 2.292 1_545 S
O934 C936 1.255 . S
C935 Eu930 2.852 . S
C935 C939 1.503 . S
C935 O952 1.273 . S
C935 O953 1.257 . S
C936 O934 1.255 . S
C936 O937 1.247 . S
O937 C936 1.247 . S
C938 O950 1.242 . S
C938 O951 1.258 . S
C939 C935 1.503 . S
C939 C940 1.379 . S
C939 C944 1.392 . S
C940 C939 1.379 . S
C940 C941 1.404 . S
C940 H954 0.929 . S
C941 C940 1.404 . S
C941 C942 1.389 . S
C942 C941 1.389 . S
C942 C943 1.399 . S
C942 H955 0.931 . S
C943 C942 1.399 . S
C943 C944 1.390 . S
C944 C939 1.392 . S
C944 C943 1.390 . S
C944 H956 0.929 . S
O945 Tb929 2.326 . S
O945 C933 1.242 . S
O946 Eu930 2.324 . S
O946 C933 1.258 . S
O947 Tb929 2.500 . S
O947 C949 1.273 . S
O948 Tb929 2.473 . S
O948 C949 1.257 . S
C949 O947 1.273 . S
C949 O948 1.257 . S
O950 Eu930 2.326 . S
O950 C938 1.242 . S
O951 Tb929 2.324 . S
O951 C938 1.258 . S
O952 Eu930 2.500 . S
O952 C935 1.273 . S
O953 Eu930 2.473 . S
O953 C935 1.257 . S
H954 C940 0.929 . S
H955 C942 0.931 . S
H956 C944 0.929 . S
O957 Tb958 2.292 . S
O957 C960 1.255 . S
Tb958 O957 2.292 . S
Tb958 O974 2.326 . S
Tb958 O976 2.500 . S
Tb958 O977 2.473 . S
Tb958 O980 2.324 . S
Eu959 O963 2.292 . S
Eu959 C964 2.852 . S
Eu959 O975 2.324 . S
Eu959 O979 2.326 . S
Eu959 O981 2.500 . S
Eu959 O982 2.473 . S
C960 O957 1.255 . S
C960 O961 1.247 . S
O961 C960 1.247 . S
C962 O974 1.242 . S
C962 O975 1.258 . S
O963 Eu959 2.292 . S
O963 C965 1.255 . S
C964 Eu959 2.852 . S
C964 C968 1.503 . S
C964 O981 1.273 . S
C964 O982 1.257 . S
C965 O963 1.255 . S
C965 O966 1.247 . S
O966 C965 1.247 . S
C967 O979 1.242 . S
C967 O980 1.258 . S
C968 C964 1.503 . S
C968 C969 1.379 . S
C968 C973 1.392 . S
C969 C968 1.379 . S
C969 C970 1.404 . S
C969 H983 0.929 . S
C970 C969 1.404 . S
C970 C971 1.389 . S
C971 C970 1.389 . S
C971 C972 1.399 . S
C971 H984 0.931 . S
C972 C971 1.399 . S
C972 C973 1.390 . S
C973 C968 1.392 . S
C973 C972 1.390 . S
C973 H985 0.929 . S
O974 Tb958 2.326 . S
O974 C962 1.242 . S
O975 Eu959 2.324 . S
O975 C962 1.258 . S
O976 Tb958 2.500 . S
O976 C978 1.273 . S
O977 Tb958 2.473 . S
O977 C978 1.257 . S
C978 O976 1.273 . S
C978 O977 1.257 . S
O979 Eu959 2.326 . S
O979 C967 1.242 . S
O980 Tb958 2.324 . S
O980 C967 1.258 . S
O981 Eu959 2.500 . S
O981 C964 1.273 . S
O982 Eu959 2.473 . S
O982 C964 1.257 . S
H983 C969 0.929 . S
H984 C971 0.931 . S
H985 C973 0.929 . S
O986 Tb987 2.292 . S
O986 C989 1.255 . S
Tb987 O986 2.292 . S
Tb987 O1003 2.326 . S
Tb987 O1005 2.500 . S
Tb987 O1006 2.473 . S
Tb987 O1009 2.324 . S
Eu988 O992 2.292 . S
Eu988 C993 2.852 . S
Eu988 O1004 2.324 . S
Eu988 O1008 2.326 . S
Eu988 O1010 2.500 . S
Eu988 O1011 2.473 . S
C989 O986 1.255 . S
C989 O990 1.247 . S
O990 C989 1.247 . S
C991 O1003 1.242 . S
C991 O1004 1.258 . S
O992 Eu988 2.292 . S
O992 C994 1.255 . S
C993 Eu988 2.852 . S
C993 C997 1.503 . S
C993 O1010 1.273 . S
C993 O1011 1.257 . S
C994 O992 1.255 . S
C994 O995 1.247 . S
O995 C994 1.247 . S
C996 O1008 1.242 . S
C996 O1009 1.258 . S
C997 C993 1.503 . S
C997 C998 1.379 . S
C997 C1002 1.392 . S
C998 C997 1.379 . S
C998 C999 1.404 . S
C998 H1012 0.929 . S
C999 C998 1.404 . S
C999 C1000 1.389 . S
C1000 C999 1.389 . S
C1000 C1001 1.399 . S
C1000 H1013 0.931 . S
C1001 C1000 1.399 . S
C1001 C1002 1.390 . S
C1002 C997 1.392 . S
C1002 C1001 1.390 . S
C1002 H1014 0.929 . S
O1003 Tb987 2.326 . S
O1003 C991 1.242 . S
O1004 Eu988 2.324 . S
O1004 C991 1.258 . S
O1005 Tb987 2.500 . S
O1005 C1007 1.273 . S
O1006 Tb987 2.473 . S
O1006 C1007 1.257 . S
C1007 O1005 1.273 . S
C1007 O1006 1.257 . S
O1008 Eu988 2.326 . S
O1008 C996 1.242 . S
O1009 Tb987 2.324 . S
O1009 C996 1.258 . S
O1010 Eu988 2.500 . S
O1010 C993 1.273 . S
O1011 Eu988 2.473 . S
O1011 C993 1.257 . S
H1012 C998 0.929 . S
H1013 C1000 0.931 . S
H1014 C1002 0.929 . S
O1015 Tb1016 2.292 . S
O1015 C1018 1.255 . S
Tb1016 O1015 2.292 . S
Tb1016 O1032 2.326 . S
Tb1016 O1034 2.500 . S
Tb1016 O1035 2.473 . S
Tb1016 O1038 2.324 . S
Eu1017 O1021 2.292 1_655 S
Eu1017 C1022 2.852 . S
Eu1017 O1033 2.324 . S
Eu1017 O1037 2.326 . S
Eu1017 O1039 2.500 . S
Eu1017 O1040 2.473 . S
C1018 O1015 1.255 . S
C1018 O1019 1.247 . S
O1019 C1018 1.247 . S
C1020 O1032 1.242 . S
C1020 O1033 1.258 . S
O1021 Eu1017 2.292 1_455 S
O1021 C1023 1.255 . S
C1022 Eu1017 2.852 . S
C1022 C1026 1.503 . S
C1022 O1039 1.273 . S
C1022 O1040 1.257 . S
C1023 O1021 1.255 . S
C1023 O1024 1.247 . S
O1024 C1023 1.247 . S
C1025 O1037 1.242 . S
C1025 O1038 1.258 . S
C1026 C1022 1.503 . S
C1026 C1027 1.379 . S
C1026 C1031 1.392 . S
C1027 C1026 1.379 . S
C1027 C1028 1.404 . S
C1027 H1041 0.929 . S
C1028 C1027 1.404 . S
C1028 C1029 1.389 . S
C1029 C1028 1.389 . S
C1029 C1030 1.399 . S
C1029 H1042 0.931 . S
C1030 C1029 1.399 . S
C1030 C1031 1.390 . S
C1031 C1026 1.392 . S
C1031 C1030 1.390 . S
C1031 H1043 0.929 . S
O1032 Tb1016 2.326 . S
O1032 C1020 1.242 . S
O1033 Eu1017 2.324 . S
O1033 C1020 1.258 . S
O1034 Tb1016 2.500 . S
O1034 C1036 1.273 . S
O1035 Tb1016 2.473 . S
O1035 C1036 1.257 . S
C1036 O1034 1.273 . S
C1036 O1035 1.257 . S
O1037 Eu1017 2.326 . S
O1037 C1025 1.242 . S
O1038 Tb1016 2.324 . S
O1038 C1025 1.258 . S
O1039 Eu1017 2.500 . S
O1039 C1022 1.273 . S
O1040 Eu1017 2.473 . S
O1040 C1022 1.257 . S
H1041 C1027 0.929 . S
H1042 C1029 0.931 . S
H1043 C1031 0.929 . S
O1044 Tb1045 2.292 . S
O1044 C1047 1.255 . S
Tb1045 O1044 2.292 . S
Tb1045 O1061 2.326 . S
Tb1045 O1063 2.500 . S
Tb1045 O1064 2.473 . S
Tb1045 O1067 2.324 . S
Eu1046 O1050 2.292 . S
Eu1046 C1051 2.852 . S
Eu1046 O1062 2.324 . S
Eu1046 O1066 2.326 . S
Eu1046 O1068 2.500 . S
Eu1046 O1069 2.473 . S
C1047 O1044 1.255 . S
C1047 O1048 1.247 . S
O1048 C1047 1.247 . S
C1049 O1061 1.242 . S
C1049 O1062 1.258 . S
O1050 Eu1046 2.292 . S
O1050 C1052 1.255 . S
C1051 Eu1046 2.852 . S
C1051 C1055 1.503 . S
C1051 O1068 1.273 . S
C1051 O1069 1.257 . S
C1052 O1050 1.255 . S
C1052 O1053 1.247 . S
O1053 C1052 1.247 . S
C1054 O1066 1.242 . S
C1054 O1067 1.258 . S
C1055 C1051 1.503 . S
C1055 C1056 1.379 . S
C1055 C1060 1.392 . S
C1056 C1055 1.379 . S
C1056 C1057 1.404 . S
C1056 H1070 0.929 . S
C1057 C1056 1.404 . S
C1057 C1058 1.389 . S
C1058 C1057 1.389 . S
C1058 C1059 1.399 . S
C1058 H1071 0.931 . S
C1059 C1058 1.399 . S
C1059 C1060 1.390 . S
C1060 C1055 1.392 . S
C1060 C1059 1.390 . S
C1060 H1072 0.929 . S
O1061 Tb1045 2.326 . S
O1061 C1049 1.242 . S
O1062 Eu1046 2.324 . S
O1062 C1049 1.258 . S
O1063 Tb1045 2.500 . S
O1063 C1065 1.273 . S
O1064 Tb1045 2.473 . S
O1064 C1065 1.257 . S
C1065 O1063 1.273 . S
C1065 O1064 1.257 . S
O1066 Eu1046 2.326 . S
O1066 C1054 1.242 . S
O1067 Tb1045 2.324 . S
O1067 C1054 1.258 . S
O1068 Eu1046 2.500 . S
O1068 C1051 1.273 . S
O1069 Eu1046 2.473 . S
O1069 C1051 1.257 . S
H1070 C1056 0.929 . S
H1071 C1058 0.931 . S
H1072 C1060 0.929 . S
O1073 Tb1074 2.292 . S
O1073 C1076 1.255 . S
Tb1074 O1073 2.292 . S
Tb1074 O1090 2.326 . S
Tb1074 O1092 2.500 . S
Tb1074 O1093 2.473 . S
Tb1074 O1096 2.324 . S
Eu1075 O1079 2.292 1_655 S
Eu1075 C1080 2.852 . S
Eu1075 O1091 2.324 . S
Eu1075 O1095 2.326 . S
Eu1075 O1097 2.500 . S
Eu1075 O1098 2.473 . S
C1076 O1073 1.255 . S
C1076 O1077 1.247 . S
O1077 C1076 1.247 . S
C1078 O1090 1.242 . S
C1078 O1091 1.258 . S
O1079 Eu1075 2.292 1_455 S
O1079 C1081 1.255 . S
C1080 Eu1075 2.852 . S
C1080 C1084 1.503 . S
C1080 O1097 1.273 . S
C1080 O1098 1.257 . S
C1081 O1079 1.255 . S
C1081 O1082 1.247 . S
O1082 C1081 1.247 . S
C1083 O1095 1.242 . S
C1083 O1096 1.258 . S
C1084 C1080 1.503 . S
C1084 C1085 1.379 . S
C1084 C1089 1.392 . S
C1085 C1084 1.379 . S
C1085 C1086 1.404 . S
C1085 H1099 0.929 . S
C1086 C1085 1.404 . S
C1086 C1087 1.389 . S
C1087 C1086 1.389 . S
C1087 C1088 1.399 . S
C1087 H1100 0.931 . S
C1088 C1087 1.399 . S
C1088 C1089 1.390 . S
C1089 C1084 1.392 . S
C1089 C1088 1.390 . S
C1089 H1101 0.929 . S
O1090 Tb1074 2.326 . S
O1090 C1078 1.242 . S
O1091 Eu1075 2.324 . S
O1091 C1078 1.258 . S
O1092 Tb1074 2.500 . S
O1092 C1094 1.273 . S
O1093 Tb1074 2.473 . S
O1093 C1094 1.257 . S
C1094 O1092 1.273 . S
C1094 O1093 1.257 . S
O1095 Eu1075 2.326 . S
O1095 C1083 1.242 . S
O1096 Tb1074 2.324 . S
O1096 C1083 1.258 . S
O1097 Eu1075 2.500 . S
O1097 C1080 1.273 . S
O1098 Eu1075 2.473 . S
O1098 C1080 1.257 . S
H1099 C1085 0.929 . S
H1100 C1087 0.931 . S
H1101 C1089 0.929 . S
O1102 Tb1103 2.292 . S
O1102 C1105 1.255 . S
Tb1103 O1102 2.292 . S
Tb1103 O1119 2.326 . S
Tb1103 O1121 2.500 . S
Tb1103 O1122 2.473 . S
Tb1103 O1125 2.324 . S
Eu1104 O1108 2.292 1_565 S
Eu1104 C1109 2.852 . S
Eu1104 O1120 2.324 . S
Eu1104 O1124 2.326 . S
Eu1104 O1126 2.500 . S
Eu1104 O1127 2.473 . S
C1105 O1102 1.255 . S
C1105 O1106 1.247 . S
O1106 C1105 1.247 . S
C1107 O1119 1.242 . S
C1107 O1120 1.258 . S
O1108 Eu1104 2.292 1_545 S
O1108 C1110 1.255 . S
C1109 Eu1104 2.852 . S
C1109 C1113 1.503 . S
C1109 O1126 1.273 . S
C1109 O1127 1.257 . S
C1110 O1108 1.255 . S
C1110 O1111 1.247 . S
O1111 C1110 1.247 . S
C1112 O1124 1.242 . S
C1112 O1125 1.258 . S
C1113 C1109 1.503 . S
C1113 C1114 1.379 . S
C1113 C1118 1.392 . S
C1114 C1113 1.379 . S
C1114 C1115 1.404 . S
C1114 H1128 0.929 . S
C1115 C1114 1.404 . S
C1115 C1116 1.389 . S
C1116 C1115 1.389 . S
C1116 C1117 1.399 . S
C1116 H1129 0.931 . S
C1117 C1116 1.399 . S
C1117 C1118 1.390 . S
C1118 C1113 1.392 . S
C1118 C1117 1.390 . S
C1118 H1130 0.929 . S
O1119 Tb1103 2.326 . S
O1119 C1107 1.242 . S
O1120 Eu1104 2.324 . S
O1120 C1107 1.258 . S
O1121 Tb1103 2.500 . S
O1121 C1123 1.273 . S
O1122 Tb1103 2.473 . S
O1122 C1123 1.257 . S
C1123 O1121 1.273 . S
C1123 O1122 1.257 . S
O1124 Eu1104 2.326 . S
O1124 C1112 1.242 . S
O1125 Tb1103 2.324 . S
O1125 C1112 1.258 . S
O1126 Eu1104 2.500 . S
O1126 C1109 1.273 . S
O1127 Eu1104 2.473 . S
O1127 C1109 1.257 . S
H1128 C1114 0.929 . S
H1129 C1116 0.931 . S
H1130 C1118 0.929 . S
O1131 Tb1132 2.292 . S
O1131 C1134 1.255 . S
Tb1132 O1131 2.292 . S
Tb1132 O1148 2.326 . S
Tb1132 O1150 2.500 . S
Tb1132 O1151 2.473 . S
Tb1132 O1154 2.324 . S
Eu1133 O1137 2.292 . S
Eu1133 C1138 2.852 . S
Eu1133 O1149 2.324 . S
Eu1133 O1153 2.326 . S
Eu1133 O1155 2.500 . S
Eu1133 O1156 2.473 . S
C1134 O1131 1.255 . S
C1134 O1135 1.247 . S
O1135 C1134 1.247 . S
C1136 O1148 1.242 . S
C1136 O1149 1.258 . S
O1137 Eu1133 2.292 . S
O1137 C1139 1.255 . S
C1138 Eu1133 2.852 . S
C1138 C1142 1.503 . S
C1138 O1155 1.273 . S
C1138 O1156 1.257 . S
C1139 O1137 1.255 . S
C1139 O1140 1.247 . S
O1140 C1139 1.247 . S
C1141 O1153 1.242 . S
C1141 O1154 1.258 . S
C1142 C1138 1.503 . S
C1142 C1143 1.379 . S
C1142 C1147 1.392 . S
C1143 C1142 1.379 . S
C1143 C1144 1.404 . S
C1143 H1157 0.929 . S
C1144 C1143 1.404 . S
C1144 C1145 1.389 . S
C1145 C1144 1.389 . S
C1145 C1146 1.399 . S
C1145 H1158 0.931 . S
C1146 C1145 1.399 . S
C1146 C1147 1.390 . S
C1147 C1142 1.392 . S
C1147 C1146 1.390 . S
C1147 H1159 0.929 . S
O1148 Tb1132 2.326 . S
O1148 C1136 1.242 . S
O1149 Eu1133 2.324 . S
O1149 C1136 1.258 . S
O1150 Tb1132 2.500 . S
O1150 C1152 1.273 . S
O1151 Tb1132 2.473 . S
O1151 C1152 1.257 . S
C1152 O1150 1.273 . S
C1152 O1151 1.257 . S
O1153 Eu1133 2.326 . S
O1153 C1141 1.242 . S
O1154 Tb1132 2.324 . S
O1154 C1141 1.258 . S
O1155 Eu1133 2.500 . S
O1155 C1138 1.273 . S
O1156 Eu1133 2.473 . S
O1156 C1138 1.257 . S
H1157 C1143 0.929 . S
H1158 C1145 0.931 . S
H1159 C1147 0.929 . S
O1160 Tb1161 2.292 . S
O1160 C1163 1.255 . S
Tb1161 O1160 2.292 . S
Tb1161 O1177 2.326 . S
Tb1161 O1179 2.500 . S
Tb1161 O1180 2.473 . S
Tb1161 O1183 2.324 . S
Eu1162 O1166 2.292 1_556 S
Eu1162 C1167 2.852 . S
Eu1162 O1178 2.324 . S
Eu1162 O1182 2.326 . S
Eu1162 O1184 2.500 . S
Eu1162 O1185 2.473 . S
C1163 O1160 1.255 . S
C1163 O1164 1.247 . S
O1164 C1163 1.247 . S
C1165 O1177 1.242 . S
C1165 O1178 1.258 . S
O1166 Eu1162 2.292 1_554 S
O1166 C1168 1.255 . S
C1167 Eu1162 2.852 . S
C1167 C1171 1.503 . S
C1167 O1184 1.273 . S
C1167 O1185 1.257 . S
C1168 O1166 1.255 . S
C1168 O1169 1.247 . S
O1169 C1168 1.247 . S
C1170 O1182 1.242 . S
C1170 O1183 1.258 . S
C1171 C1167 1.503 . S
C1171 C1172 1.379 . S
C1171 C1176 1.392 . S
C1172 C1171 1.379 . S
C1172 C1173 1.404 . S
C1172 H1186 0.929 . S
C1173 C1172 1.404 . S
C1173 C1174 1.389 . S
C1174 C1173 1.389 . S
C1174 C1175 1.399 . S
C1174 H1187 0.931 . S
C1175 C1174 1.399 . S
C1175 C1176 1.390 . S
C1176 C1171 1.392 . S
C1176 C1175 1.390 . S
C1176 H1188 0.929 . S
O1177 Tb1161 2.326 . S
O1177 C1165 1.242 . S
O1178 Eu1162 2.324 . S
O1178 C1165 1.258 . S
O1179 Tb1161 2.500 . S
O1179 C1181 1.273 . S
O1180 Tb1161 2.473 . S
O1180 C1181 1.257 . S
C1181 O1179 1.273 . S
C1181 O1180 1.257 . S
O1182 Eu1162 2.326 . S
O1182 C1170 1.242 . S
O1183 Tb1161 2.324 . S
O1183 C1170 1.258 . S
O1184 Eu1162 2.500 . S
O1184 C1167 1.273 . S
O1185 Eu1162 2.473 . S
O1185 C1167 1.257 . S
H1186 C1172 0.929 . S
H1187 C1174 0.931 . S
H1188 C1176 0.929 . S
O1189 Tb1190 2.292 . S
O1189 C1192 1.255 . S
Tb1190 O1189 2.292 . S
Tb1190 O1206 2.326 . S
Tb1190 O1208 2.500 . S
Tb1190 O1209 2.473 . S
Tb1190 O1212 2.324 . S
Eu1191 O1195 2.292 . S
Eu1191 C1196 2.852 . S
Eu1191 O1207 2.324 . S
Eu1191 O1211 2.326 . S
Eu1191 O1213 2.500 . S
Eu1191 O1214 2.473 . S
C1192 O1189 1.255 . S
C1192 O1193 1.247 . S
O1193 C1192 1.247 . S
C1194 O1206 1.242 . S
C1194 O1207 1.258 . S
O1195 Eu1191 2.292 . S
O1195 C1197 1.255 . S
C1196 Eu1191 2.852 . S
C1196 C1200 1.503 . S
C1196 O1213 1.273 . S
C1196 O1214 1.257 . S
C1197 O1195 1.255 . S
C1197 O1198 1.247 . S
O1198 C1197 1.247 . S
C1199 O1211 1.242 . S
C1199 O1212 1.258 . S
C1200 C1196 1.503 . S
C1200 C1201 1.379 . S
C1200 C1205 1.392 . S
C1201 C1200 1.379 . S
C1201 C1202 1.404 . S
C1201 H1215 0.929 . S
C1202 C1201 1.404 . S
C1202 C1203 1.389 . S
C1203 C1202 1.389 . S
C1203 C1204 1.399 . S
C1203 H1216 0.931 . S
C1204 C1203 1.399 . S
C1204 C1205 1.390 . S
C1205 C1200 1.392 . S
C1205 C1204 1.390 . S
C1205 H1217 0.929 . S
O1206 Tb1190 2.326 . S
O1206 C1194 1.242 . S
O1207 Eu1191 2.324 . S
O1207 C1194 1.258 . S
O1208 Tb1190 2.500 . S
O1208 C1210 1.273 . S
O1209 Tb1190 2.473 . S
O1209 C1210 1.257 . S
C1210 O1208 1.273 . S
C1210 O1209 1.257 . S
O1211 Eu1191 2.326 . S
O1211 C1199 1.242 . S
O1212 Tb1190 2.324 . S
O1212 C1199 1.258 . S
O1213 Eu1191 2.500 . S
O1213 C1196 1.273 . S
O1214 Eu1191 2.473 . S
O1214 C1196 1.257 . S
H1215 C1201 0.929 . S
H1216 C1203 0.931 . S
H1217 C1205 0.929 . S
O1218 Tb1219 2.292 . S
O1218 C1221 1.255 . S
Tb1219 O1218 2.292 . S
Tb1219 O1235 2.326 . S
Tb1219 O1237 2.500 . S
Tb1219 O1238 2.473 . S
Tb1219 O1241 2.324 . S
Eu1220 O1224 2.292 . S
Eu1220 C1225 2.852 . S
Eu1220 O1236 2.324 . S
Eu1220 O1240 2.326 . S
Eu1220 O1242 2.500 . S
Eu1220 O1243 2.473 . S
C1221 O1218 1.255 . S
C1221 O1222 1.247 . S
O1222 C1221 1.247 . S
C1223 O1235 1.242 . S
C1223 O1236 1.258 . S
O1224 Eu1220 2.292 . S
O1224 C1226 1.255 . S
C1225 Eu1220 2.852 . S
C1225 C1229 1.503 . S
C1225 O1242 1.273 . S
C1225 O1243 1.257 . S
C1226 O1224 1.255 . S
C1226 O1227 1.247 . S
O1227 C1226 1.247 . S
C1228 O1240 1.242 . S
C1228 O1241 1.258 . S
C1229 C1225 1.503 . S
C1229 C1230 1.379 . S
C1229 C1234 1.392 . S
C1230 C1229 1.379 . S
C1230 C1231 1.404 . S
C1230 H1244 0.929 . S
C1231 C1230 1.404 . S
C1231 C1232 1.389 . S
C1232 C1231 1.389 . S
C1232 C1233 1.399 . S
C1232 H1245 0.931 . S
C1233 C1232 1.399 . S
C1233 C1234 1.390 . S
C1234 C1229 1.392 . S
C1234 C1233 1.390 . S
C1234 H1246 0.929 . S
O1235 Tb1219 2.326 . S
O1235 C1223 1.242 . S
O1236 Eu1220 2.324 . S
O1236 C1223 1.258 . S
O1237 Tb1219 2.500 . S
O1237 C1239 1.273 . S
O1238 Tb1219 2.473 . S
O1238 C1239 1.257 . S
C1239 O1237 1.273 . S
C1239 O1238 1.257 . S
O1240 Eu1220 2.326 . S
O1240 C1228 1.242 . S
O1241 Tb1219 2.324 . S
O1241 C1228 1.258 . S
O1242 Eu1220 2.500 . S
O1242 C1225 1.273 . S
O1243 Eu1220 2.473 . S
O1243 C1225 1.257 . S
H1244 C1230 0.929 . S
H1245 C1232 0.931 . S
H1246 C1234 0.929 . S
O1247 Tb1248 2.292 . S
O1247 C1250 1.255 . S
Tb1248 O1247 2.292 . S
Tb1248 O1264 2.326 . S
Tb1248 O1266 2.500 . S
Tb1248 O1267 2.473 . S
Tb1248 O1270 2.324 . S
Eu1249 O1253 2.292 . S
Eu1249 C1254 2.852 . S
Eu1249 O1265 2.324 . S
Eu1249 O1269 2.326 . S
Eu1249 O1271 2.500 . S
Eu1249 O1272 2.473 . S
C1250 O1247 1.255 . S
C1250 O1251 1.247 . S
O1251 C1250 1.247 . S
C1252 O1264 1.242 . S
C1252 O1265 1.258 . S
O1253 Eu1249 2.292 . S
O1253 C1255 1.255 . S
C1254 Eu1249 2.852 . S
C1254 C1258 1.503 . S
C1254 O1271 1.273 . S
C1254 O1272 1.257 . S
C1255 O1253 1.255 . S
C1255 O1256 1.247 . S
O1256 C1255 1.247 . S
C1257 O1269 1.242 . S
C1257 O1270 1.258 . S
C1258 C1254 1.503 . S
C1258 C1259 1.379 . S
C1258 C1263 1.392 . S
C1259 C1258 1.379 . S
C1259 C1260 1.404 . S
C1259 H1273 0.929 . S
C1260 C1259 1.404 . S
C1260 C1261 1.389 . S
C1261 C1260 1.389 . S
C1261 C1262 1.399 . S
C1261 H1274 0.931 . S
C1262 C1261 1.399 . S
C1262 C1263 1.390 . S
C1263 C1258 1.392 . S
C1263 C1262 1.390 . S
C1263 H1275 0.929 . S
O1264 Tb1248 2.326 . S
O1264 C1252 1.242 . S
O1265 Eu1249 2.324 . S
O1265 C1252 1.258 . S
O1266 Tb1248 2.500 . S
O1266 C1268 1.273 . S
O1267 Tb1248 2.473 . S
O1267 C1268 1.257 . S
C1268 O1266 1.273 . S
C1268 O1267 1.257 . S
O1269 Eu1249 2.326 . S
O1269 C1257 1.242 . S
O1270 Tb1248 2.324 . S
O1270 C1257 1.258 . S
O1271 Eu1249 2.500 . S
O1271 C1254 1.273 . S
O1272 Eu1249 2.473 . S
O1272 C1254 1.257 . S
H1273 C1259 0.929 . S
H1274 C1261 0.931 . S
H1275 C1263 0.929 . S
O1276 Tb1277 2.292 . S
O1276 C1279 1.255 . S
Tb1277 O1276 2.292 . S
Tb1277 O1293 2.326 . S
Tb1277 O1295 2.500 . S
Tb1277 O1296 2.473 . S
Tb1277 O1299 2.324 . S
Eu1278 O1282 2.292 . S
Eu1278 C1283 2.852 . S
Eu1278 O1294 2.324 . S
Eu1278 O1298 2.326 . S
Eu1278 O1300 2.500 . S
Eu1278 O1301 2.473 . S
C1279 O1276 1.255 . S
C1279 O1280 1.247 . S
O1280 C1279 1.247 . S
C1281 O1293 1.242 . S
C1281 O1294 1.258 . S
O1282 Eu1278 2.292 . S
O1282 C1284 1.255 . S
C1283 Eu1278 2.852 . S
C1283 C1287 1.503 . S
C1283 O1300 1.273 . S
C1283 O1301 1.257 . S
C1284 O1282 1.255 . S
C1284 O1285 1.247 . S
O1285 C1284 1.247 . S
C1286 O1298 1.242 . S
C1286 O1299 1.258 . S
C1287 C1283 1.503 . S
C1287 C1288 1.379 . S
C1287 C1292 1.392 . S
C1288 C1287 1.379 . S
C1288 C1289 1.404 . S
C1288 H1302 0.929 . S
C1289 C1288 1.404 . S
C1289 C1290 1.389 . S
C1290 C1289 1.389 . S
C1290 C1291 1.399 . S
C1290 H1303 0.931 . S
C1291 C1290 1.399 . S
C1291 C1292 1.390 . S
C1292 C1287 1.392 . S
C1292 C1291 1.390 . S
C1292 H1304 0.929 . S
O1293 Tb1277 2.326 . S
O1293 C1281 1.242 . S
O1294 Eu1278 2.324 . S
O1294 C1281 1.258 . S
O1295 Tb1277 2.500 . S
O1295 C1297 1.273 . S
O1296 Tb1277 2.473 . S
O1296 C1297 1.257 . S
C1297 O1295 1.273 . S
C1297 O1296 1.257 . S
O1298 Eu1278 2.326 . S
O1298 C1286 1.242 . S
O1299 Tb1277 2.324 . S
O1299 C1286 1.258 . S
O1300 Eu1278 2.500 . S
O1300 C1283 1.273 . S
O1301 Eu1278 2.473 . S
O1301 C1283 1.257 . S
H1302 C1288 0.929 . S
H1303 C1290 0.931 . S
H1304 C1292 0.929 . S
O1305 Tb1306 2.292 . S
O1305 C1308 1.255 . S
Tb1306 O1305 2.292 . S
Tb1306 O1322 2.326 . S
Tb1306 O1324 2.500 . S
Tb1306 O1325 2.473 . S
Tb1306 O1328 2.324 . S
Eu1307 O1311 2.292 1_556 S
Eu1307 C1312 2.852 . S
Eu1307 O1323 2.324 . S
Eu1307 O1327 2.326 . S
Eu1307 O1329 2.500 . S
Eu1307 O1330 2.473 . S
C1308 O1305 1.255 . S
C1308 O1309 1.247 . S
O1309 C1308 1.247 . S
C1310 O1322 1.242 . S
C1310 O1323 1.258 . S
O1311 Eu1307 2.292 1_554 S
O1311 C1313 1.255 . S
C1312 Eu1307 2.852 . S
C1312 C1316 1.503 . S
C1312 O1329 1.273 . S
C1312 O1330 1.257 . S
C1313 O1311 1.255 . S
C1313 O1314 1.247 . S
O1314 C1313 1.247 . S
C1315 O1327 1.242 . S
C1315 O1328 1.258 . S
C1316 C1312 1.503 . S
C1316 C1317 1.379 . S
C1316 C1321 1.392 . S
C1317 C1316 1.379 . S
C1317 C1318 1.404 . S
C1317 H1331 0.929 . S
C1318 C1317 1.404 . S
C1318 C1319 1.389 . S
C1319 C1318 1.389 . S
C1319 C1320 1.399 . S
C1319 H1332 0.931 . S
C1320 C1319 1.399 . S
C1320 C1321 1.390 . S
C1321 C1316 1.392 . S
C1321 C1320 1.390 . S
C1321 H1333 0.929 . S
O1322 Tb1306 2.326 . S
O1322 C1310 1.242 . S
O1323 Eu1307 2.324 . S
O1323 C1310 1.258 . S
O1324 Tb1306 2.500 . S
O1324 C1326 1.273 . S
O1325 Tb1306 2.473 . S
O1325 C1326 1.257 . S
C1326 O1324 1.273 . S
C1326 O1325 1.257 . S
O1327 Eu1307 2.326 . S
O1327 C1315 1.242 . S
O1328 Tb1306 2.324 . S
O1328 C1315 1.258 . S
O1329 Eu1307 2.500 . S
O1329 C1312 1.273 . S
O1330 Eu1307 2.473 . S
O1330 C1312 1.257 . S
H1331 C1317 0.929 . S
H1332 C1319 0.931 . S
H1333 C1321 0.929 . S
O1334 Tb1335 2.292 . S
O1334 C1337 1.255 . S
Tb1335 O1334 2.292 . S
Tb1335 O1351 2.326 . S
Tb1335 O1353 2.500 . S
Tb1335 O1354 2.473 . S
Tb1335 O1357 2.324 . S
Eu1336 O1340 2.292 1_556 S
Eu1336 C1341 2.852 . S
Eu1336 O1352 2.324 . S
Eu1336 O1356 2.326 . S
Eu1336 O1358 2.500 . S
Eu1336 O1359 2.473 . S
C1337 O1334 1.255 . S
C1337 O1338 1.247 . S
O1338 C1337 1.247 . S
C1339 O1351 1.242 . S
C1339 O1352 1.258 . S
O1340 Eu1336 2.292 1_554 S
O1340 C1342 1.255 . S
C1341 Eu1336 2.852 . S
C1341 C1345 1.503 . S
C1341 O1358 1.273 . S
C1341 O1359 1.257 . S
C1342 O1340 1.255 . S
C1342 O1343 1.247 . S
O1343 C1342 1.247 . S
C1344 O1356 1.242 . S
C1344 O1357 1.258 . S
C1345 C1341 1.503 . S
C1345 C1346 1.379 . S
C1345 C1350 1.392 . S
C1346 C1345 1.379 . S
C1346 C1347 1.404 . S
C1346 H1360 0.929 . S
C1347 C1346 1.404 . S
C1347 C1348 1.389 . S
C1348 C1347 1.389 . S
C1348 C1349 1.399 . S
C1348 H1361 0.931 . S
C1349 C1348 1.399 . S
C1349 C1350 1.390 . S
C1350 C1345 1.392 . S
C1350 C1349 1.390 . S
C1350 H1362 0.929 . S
O1351 Tb1335 2.326 . S
O1351 C1339 1.242 . S
O1352 Eu1336 2.324 . S
O1352 C1339 1.258 . S
O1353 Tb1335 2.500 . S
O1353 C1355 1.273 . S
O1354 Tb1335 2.473 . S
O1354 C1355 1.257 . S
C1355 O1353 1.273 . S
C1355 O1354 1.257 . S
O1356 Eu1336 2.326 . S
O1356 C1344 1.242 . S
O1357 Tb1335 2.324 . S
O1357 C1344 1.258 . S
O1358 Eu1336 2.500 . S
O1358 C1341 1.273 . S
O1359 Eu1336 2.473 . S
O1359 C1341 1.257 . S
H1360 C1346 0.929 . S
H1361 C1348 0.931 . S
H1362 C1350 0.929 . S
O1363 Tb1364 2.292 . S
O1363 C1366 1.255 . S
Tb1364 O1363 2.292 . S
Tb1364 O1380 2.326 . S
Tb1364 O1382 2.500 . S
Tb1364 O1383 2.473 . S
Tb1364 O1386 2.324 . S
Eu1365 O1369 2.292 1_556 S
Eu1365 C1370 2.852 . S
Eu1365 O1381 2.324 . S
Eu1365 O1385 2.326 . S
Eu1365 O1387 2.500 . S
Eu1365 O1388 2.473 . S
C1366 O1363 1.255 . S
C1366 O1367 1.247 . S
O1367 C1366 1.247 . S
C1368 O1380 1.242 . S
C1368 O1381 1.258 . S
O1369 Eu1365 2.292 1_554 S
O1369 C1371 1.255 . S
C1370 Eu1365 2.852 . S
C1370 C1374 1.503 . S
C1370 O1387 1.273 . S
C1370 O1388 1.257 . S
C1371 O1369 1.255 . S
C1371 O1372 1.247 . S
O1372 C1371 1.247 . S
C1373 O1385 1.242 . S
C1373 O1386 1.258 . S
C1374 C1370 1.503 . S
C1374 C1375 1.379 . S
C1374 C1379 1.392 . S
C1375 C1374 1.379 . S
C1375 C1376 1.404 . S
C1375 H1389 0.929 . S
C1376 C1375 1.404 . S
C1376 C1377 1.389 . S
C1377 C1376 1.389 . S
C1377 C1378 1.399 . S
C1377 H1390 0.931 . S
C1378 C1377 1.399 . S
C1378 C1379 1.390 . S
C1379 C1374 1.392 . S
C1379 C1378 1.390 . S
C1379 H1391 0.929 . S
O1380 Tb1364 2.326 . S
O1380 C1368 1.242 . S
O1381 Eu1365 2.324 . S
O1381 C1368 1.258 . S
O1382 Tb1364 2.500 . S
O1382 C1384 1.273 . S
O1383 Tb1364 2.473 . S
O1383 C1384 1.257 . S
C1384 O1382 1.273 . S
C1384 O1383 1.257 . S
O1385 Eu1365 2.326 . S
O1385 C1373 1.242 . S
O1386 Tb1364 2.324 . S
O1386 C1373 1.258 . S
O1387 Eu1365 2.500 . S
O1387 C1370 1.273 . S
O1388 Eu1365 2.473 . S
O1388 C1370 1.257 . S
H1389 C1375 0.929 . S
H1390 C1377 0.931 . S
H1391 C1379 0.929 . S
C1392 C1393 1.369 . S
C1392 C1394 1.419 . S
C1392 H1396 0.930 . S
C1393 C1392 1.369 . S
C1393 C1402 1.429 1_455 S
C1394 C1392 1.419 . S
C1394 C1395 1.363 1_455 S
C1394 H1397 0.929 . S
C1395 C1394 1.363 1_655 S
C1395 C1401 1.428 . S
H1396 C1392 0.930 . S
H1397 C1394 0.929 . S
S1398 N1399 1.613 . S
S1398 N1400 1.610 . S
N1399 S1398 1.613 . S
N1399 C1402 1.350 . S
N1400 S1398 1.610 . S
N1400 C1401 1.351 . S
C1401 C1395 1.428 . S
C1401 N1400 1.351 . S
C1401 C1402 1.434 . S
C1402 C1393 1.429 1_655 S
C1402 N1399 1.350 . S
C1402 C1401 1.434 . S
C1403 C1404 1.369 . S
C1403 C1405 1.419 1_645 S
C1403 H1407 0.930 . S
C1404 C1403 1.369 . S
C1404 C1413 1.429 . S
C1405 C1403 1.419 1_465 S
C1405 C1406 1.363 . S
C1405 H1408 0.929 . S
C1406 C1405 1.363 . S
C1406 C1412 1.428 . S
H1407 C1403 0.930 . S
H1408 C1405 0.929 . S
S1409 N1410 1.613 1_455 S
S1409 N1411 1.610 1_545 S
N1410 S1409 1.613 1_655 S
N1410 C1413 1.350 . S
N1411 S1409 1.610 1_565 S
N1411 C1412 1.351 . S
C1412 C1406 1.428 . S
C1412 N1411 1.351 . S
C1412 C1413 1.434 1_465 S
C1413 C1404 1.429 . S
C1413 N1410 1.350 . S
C1413 C1412 1.434 1_645 S
C1414 C1415 1.369 . S
C1414 C1416 1.386 1_545 S
C1414 H1418 0.930 . S
C1415 C1414 1.369 . S
C1415 C1424 1.429 1_545 S
C1416 C1414 1.386 1_565 S
C1416 C1417 1.401 . S
C1416 H1419 0.925 1_565 S
C1417 C1416 1.401 . S
C1417 C1423 1.428 . S
H1418 C1414 0.930 . S
H1419 C1416 0.925 1_545 S
S1420 N1421 1.613 . S
S1420 N1422 1.610 . S
N1421 S1420 1.613 . S
N1421 C1424 1.350 . S
N1422 S1420 1.610 . S
N1422 C1423 1.351 . S
C1423 C1417 1.428 . S
C1423 N1422 1.351 . S
C1423 C1424 1.434 . S
C1424 C1415 1.429 1_565 S
C1424 N1421 1.350 . S
C1424 C1423 1.434 . S
C1425 C1426 1.369 . S
C1425 C1427 1.419 . S
C1425 H1429 0.930 . S
C1426 C1425 1.369 . S
C1426 C1435 1.429 . S
C1427 C1425 1.419 . S
C1427 C1428 1.363 . S
C1427 H1430 0.929 . S
C1428 C1427 1.363 . S
C1428 C1434 1.428 . S
H1429 C1425 0.930 . S
H1430 C1427 0.929 . S
S1431 N1432 1.613 . S
S1431 N1433 1.610 . S
N1432 S1431 1.613 . S
N1432 C1435 1.350 . S
N1433 S1431 1.610 . S
N1433 C1434 1.351 . S
C1434 C1428 1.428 . S
C1434 N1433 1.351 . S
C1434 C1435 1.434 . S
C1435 C1426 1.429 . S
C1435 N1432 1.350 . S
C1435 C1434 1.434 . S
C1436 C1437 1.369 1_565 S
C1436 C1438 1.419 . S
C1436 H1440 0.930 . S
C1437 C1436 1.369 1_545 S
C1437 C1446 1.429 . S
C1438 C1436 1.419 . S
C1438 C1439 1.363 . S
C1438 H1441 0.929 . S
C1439 C1438 1.363 . S
C1439 C1445 1.428 . S
H1440 C1436 0.930 . S
H1441 C1438 0.929 . S
S1442 N1443 1.613 . S
S1442 N1444 1.610 . S
N1443 S1442 1.613 . S
N1443 C1446 1.350 . S
N1444 S1442 1.610 . S
N1444 C1445 1.351 1_545 S
C1445 C1439 1.428 . S
C1445 N1444 1.351 1_565 S
C1445 C1446 1.434 1_565 S
C1446 C1437 1.429 . S
C1446 N1443 1.350 . S
C1446 C1445 1.434 1_545 S
C1447 C1448 1.369 . S
C1447 C1449 1.419 . S
C1447 H1451 0.930 . S
C1448 C1447 1.369 . S
C1448 C1457 1.429 . S
C1449 C1447 1.419 . S
C1449 C1450 1.363 . S
C1449 H1452 0.929 . S
C1450 C1449 1.363 . S
C1450 C1456 1.428 . S
H1451 C1447 0.930 . S
H1452 C1449 0.929 . S
S1453 N1454 1.613 . S
S1453 N1455 1.610 . S
N1454 S1453 1.613 . S
N1454 C1457 1.350 . S
N1455 S1453 1.610 . S
N1455 C1456 1.351 . S
C1456 C1450 1.428 . S
C1456 N1455 1.351 . S
C1456 C1457 1.434 . S
C1457 C1448 1.429 . S
C1457 N1454 1.350 . S
C1457 C1456 1.434 . S
C1458 C1459 1.369 . S
C1458 C1460 1.419 . S
C1458 H1462 0.930 . S
C1459 C1458 1.369 . S
C1459 C1468 1.429 . S
C1460 C1458 1.419 . S
C1460 C1461 1.363 . S
C1460 H1463 0.929 . S
C1461 C1460 1.363 . S
C1461 C1467 1.428 . S
H1462 C1458 0.930 . S
H1463 C1460 0.929 . S
S1464 N1465 1.613 . S
S1464 N1466 1.610 . S
N1465 S1464 1.613 . S
N1465 C1468 1.350 . S
N1466 S1464 1.610 . S
N1466 C1467 1.351 . S
C1467 C1461 1.428 . S
C1467 N1466 1.351 . S
C1467 C1468 1.434 . S
C1468 C1459 1.429 . S
C1468 N1465 1.350 . S
C1468 C1467 1.434 . S
C1469 C1470 1.369 . S
C1469 C1471 1.419 1_655 S
C1469 H1473 0.930 . S
C1470 C1469 1.369 . S
C1470 C1479 1.429 . S
C1471 C1469 1.419 1_455 S
C1471 C1472 1.363 . S
C1471 H1474 0.929 . S
C1472 C1471 1.363 . S
C1472 C1478 1.428 . S
H1473 C1469 0.930 . S
H1474 C1471 0.929 . S
S1475 N1476 1.613 . S
S1475 N1477 1.610 1_655 S
N1476 S1475 1.613 . S
N1476 C1479 1.350 . S
N1477 S1475 1.610 1_455 S
N1477 C1478 1.351 . S
C1478 C1472 1.428 . S
C1478 N1477 1.351 . S
C1478 C1479 1.434 1_455 S
C1479 C1470 1.429 . S
C1479 N1476 1.350 . S
C1479 C1478 1.434 1_655 S
C1480 C1481 1.369 1_556 S
C1480 C1482 1.419 . S
C1480 H1484 0.930 . S
C1481 C1480 1.369 1_554 S
C1481 C1490 1.429 . S
C1482 C1480 1.419 . S
C1482 C1483 1.363 . S
C1482 H1485 0.929 . S
C1483 C1482 1.363 . S
C1483 C1489 1.428 1_556 S
H1484 C1480 0.930 . S
H1485 C1482 0.929 . S
S1486 N1487 1.613 . S
S1486 N1488 1.610 . S
N1487 S1486 1.613 . S
N1487 C1490 1.350 . S
N1488 S1486 1.610 . S
N1488 C1489 1.351 . S
C1489 C1483 1.428 1_554 S
C1489 N1488 1.351 . S
C1489 C1490 1.434 . S
C1490 C1481 1.429 . S
C1490 N1487 1.350 . S
C1490 C1489 1.434 . S
C1491 C1492 1.369 . S
C1491 C1493 1.419 1_654 S
C1491 H1495 0.930 . S
C1492 C1491 1.369 . S
C1492 C1501 1.428 . S
C1493 C1491 1.419 1_456 S
C1493 C1494 1.363 . S
C1493 H1496 0.929 . S
C1494 C1493 1.363 . S
C1494 C1500 1.428 1_455 S
H1495 C1491 0.930 . S
H1496 C1493 0.929 . S
S1497 N1498 1.583 1_556 S
S1497 N1499 1.610 . S
N1498 S1497 1.583 1_554 S
N1498 C1501 1.349 . S
N1499 S1497 1.610 . S
N1499 C1500 1.351 . S
C1500 C1494 1.428 1_655 S
C1500 N1499 1.351 . S
C1500 C1501 1.435 1_556 S
C1501 C1492 1.428 . S
C1501 N1498 1.349 . S
C1501 C1500 1.435 1_554 S
C1502 C1503 1.334 1_554 S
C1502 C1504 1.435 1_545 S
C1502 H1506 0.938 . S
C1503 C1502 1.334 1_556 S
C1503 C1512 1.429 1_545 S
C1504 C1502 1.435 1_565 S
C1504 C1505 1.378 . S
C1504 H1507 0.927 1_565 S
C1505 C1504 1.378 . S
C1505 C1511 1.428 1_554 S
H1506 C1502 0.938 . S
H1507 C1504 0.927 1_545 S
S1508 N1509 1.613 . S
S1508 N1510 1.610 . S
N1509 S1508 1.613 . S
N1509 C1512 1.350 . S
N1510 S1508 1.610 . S
N1510 C1511 1.351 . S
C1511 C1505 1.428 1_556 S
C1511 N1510 1.351 . S
C1511 C1512 1.434 . S
C1512 C1503 1.429 1_565 S
C1512 N1509 1.350 . S
C1512 C1511 1.434 . S
C1513 C1514 1.342 1_554 S
C1513 C1515 1.440 . S
C1513 H1517 0.936 . S
C1514 C1513 1.342 1_556 S
C1514 C1523 1.429 . S
C1515 C1513 1.440 . S
C1515 C1516 1.363 . S
C1515 H1518 0.929 . S
C1516 C1515 1.363 . S
C1516 C1522 1.428 1_554 S
H1517 C1513 0.936 . S
H1518 C1515 0.929 . S
S1519 N1520 1.613 . S
S1519 N1521 1.610 . S
N1520 S1519 1.613 . S
N1520 C1523 1.350 . S
N1521 S1519 1.610 . S
N1521 C1522 1.351 . S
C1522 C1516 1.428 1_556 S
C1522 N1521 1.351 . S
C1522 C1523 1.434 . S
C1523 C1514 1.429 . S
C1523 N1520 1.350 . S
C1523 C1522 1.434 . S
C1524 C1525 1.369 1_455 S
C1524 C1526 1.419 . S
C1524 H1528 0.930 . S
C1525 C1524 1.369 1_655 S
C1525 C1534 1.429 . S
C1526 C1524 1.419 . S
C1526 C1527 1.363 . S
C1526 H1529 0.929 . S
C1527 C1526 1.363 . S
C1527 C1533 1.428 1_455 S
H1528 C1524 0.930 . S
H1529 C1526 0.929 . S
S1530 N1531 1.613 . S
S1530 N1532 1.610 . S
N1531 S1530 1.613 . S
N1531 C1534 1.350 . S
N1532 S1530 1.610 . S
N1532 C1533 1.351 . S
C1533 C1527 1.428 1_655 S
C1533 N1532 1.351 . S
C1533 C1534 1.434 . S
C1534 C1525 1.429 . S
C1534 N1531 1.350 . S
C1534 C1533 1.434 . S
C1535 C1536 1.369 . S
C1535 C1537 1.419 1_645 S
C1535 H1539 0.930 . S
C1536 C1535 1.369 . S
C1536 C1545 1.429 1_655 S
C1537 C1535 1.419 1_465 S
C1537 C1538 1.363 . S
C1537 H1540 0.929 . S
C1538 C1537 1.363 . S
C1538 C1544 1.426 . S
H1539 C1535 0.930 . S
H1540 C1537 0.929 . S
S1541 N1542 1.613 . S
S1541 N1543 1.588 1_545 S
N1542 S1541 1.613 . S
N1542 C1545 1.350 . S
N1543 S1541 1.588 1_565 S
N1543 C1544 1.351 . S
C1544 C1538 1.426 . S
C1544 N1543 1.351 . S
C1544 C1545 1.436 1_565 S
C1545 C1536 1.429 1_455 S
C1545 N1542 1.350 . S
C1545 C1544 1.436 1_545 S
C1546 C1547 1.369 . S
C1546 C1548 1.405 1_565 S
C1546 H1550 0.930 . S
C1547 C1546 1.369 . S
C1547 C1556 1.429 1_565 S
C1548 C1546 1.405 1_545 S
C1548 C1549 1.380 . S
C1548 H1551 0.927 1_545 S
C1549 C1548 1.380 . S
C1549 C1555 1.428 . S
H1550 C1546 0.930 . S
H1551 C1548 0.927 1_565 S
S1552 N1553 1.613 . S
S1552 N1554 1.610 . S
N1553 S1552 1.613 . S
N1553 C1556 1.350 . S
N1554 S1552 1.610 . S
N1554 C1555 1.351 . S
C1555 C1549 1.428 . S
C1555 N1554 1.351 . S
C1555 C1556 1.434 . S
C1556 C1547 1.429 1_545 S
C1556 N1553 1.350 . S
C1556 C1555 1.434 . S
C1557 C1558 1.369 . S
C1557 C1559 1.419 . S
C1557 H1561 0.930 . S
C1558 C1557 1.369 . S
C1558 C1567 1.429 . S
C1559 C1557 1.419 . S
C1559 C1560 1.363 . S
C1559 H1562 0.929 . S
C1560 C1559 1.363 . S
C1560 C1566 1.428 . S
H1561 C1557 0.930 . S
H1562 C1559 0.929 . S
S1563 N1564 1.613 . S
S1563 N1565 1.610 . S
N1564 S1563 1.613 . S
N1564 C1567 1.350 . S
N1565 S1563 1.610 . S
N1565 C1566 1.351 . S
C1566 C1560 1.428 . S
C1566 N1565 1.351 . S
C1566 C1567 1.434 . S
C1567 C1558 1.429 . S
C1567 N1564 1.350 . S
C1567 C1566 1.434 . S
C1568 C1569 1.369 . S
C1568 C1570 1.419 1_565 S
C1568 H1572 0.930 . S
C1569 C1568 1.369 . S
C1569 C1578 1.429 . S
C1570 C1568 1.419 1_545 S
C1570 C1571 1.363 . S
C1570 H1573 0.929 . S
C1571 C1570 1.363 . S
C1571 C1577 1.428 . S
H1572 C1568 0.930 . S
H1573 C1570 0.929 . S
S1574 N1575 1.613 1_545 S
S1574 N1576 1.610 . S
N1575 S1574 1.613 1_565 S
N1575 C1578 1.350 . S
N1576 S1574 1.610 . S
N1576 C1577 1.351 . S
C1577 C1571 1.428 . S
C1577 N1576 1.351 . S
C1577 C1578 1.434 1_545 S
C1578 C1569 1.429 . S
C1578 N1575 1.350 . S
C1578 C1577 1.434 1_565 S
C1579 C1580 1.369 . S
C1579 C1581 1.419 . S
C1579 H1583 0.930 . S
C1580 C1579 1.369 . S
C1580 C1589 1.429 . S
C1581 C1579 1.419 . S
C1581 C1582 1.363 . S
C1581 H1584 0.929 . S
C1582 C1581 1.363 . S
C1582 C1588 1.428 . S
H1583 C1579 0.930 . S
H1584 C1581 0.929 . S
S1585 N1586 1.613 . S
S1585 N1587 1.610 . S
N1586 S1585 1.613 . S
N1586 C1589 1.350 . S
N1587 S1585 1.610 . S
N1587 C1588 1.351 . S
C1588 C1582 1.428 . S
C1588 N1587 1.351 . S
C1588 C1589 1.434 . S
C1589 C1580 1.429 . S
C1589 N1586 1.350 . S
C1589 C1588 1.434 . S
C1590 C1591 1.369 . S
C1590 C1592 1.419 . S
C1590 H1594 0.930 . S
C1591 C1590 1.369 . S
C1591 C1600 1.429 . S
C1592 C1590 1.419 . S
C1592 C1593 1.363 . S
C1592 H1595 0.929 . S
C1593 C1592 1.363 . S
C1593 C1599 1.428 . S
H1594 C1590 0.930 . S
H1595 C1592 0.929 . S
S1596 N1597 1.613 . S
S1596 N1598 1.610 . S
N1597 S1596 1.613 . S
N1597 C1600 1.350 . S
N1598 S1596 1.610 . S
N1598 C1599 1.351 . S
C1599 C1593 1.428 . S
C1599 N1598 1.351 . S
C1599 C1600 1.434 . S
C1600 C1591 1.429 . S
C1600 N1597 1.350 . S
C1600 C1599 1.434 . S
C1601 C1602 1.369 . S
C1601 C1603 1.419 . S
C1601 H1605 0.930 . S
C1602 C1601 1.369 . S
C1602 C1611 1.429 1_455 S
C1603 C1601 1.419 . S
C1603 C1604 1.363 1_455 S
C1603 H1606 0.929 . S
C1604 C1603 1.363 1_655 S
C1604 C1610 1.428 . S
H1605 C1601 0.930 . S
H1606 C1603 0.929 . S
S1607 N1608 1.613 . S
S1607 N1609 1.610 . S
N1608 S1607 1.613 . S
N1608 C1611 1.350 . S
N1609 S1607 1.610 . S
N1609 C1610 1.351 . S
C1610 C1604 1.428 . S
C1610 N1609 1.351 . S
C1610 C1611 1.434 . S
C1611 C1602 1.429 1_655 S
C1611 N1608 1.350 . S
C1611 C1610 1.434 . S
C1612 C1613 1.369 1_556 S
C1612 C1614 1.419 . S
C1612 H1616 0.930 . S
C1613 C1612 1.369 1_554 S
C1613 C1622 1.429 . S
C1614 C1612 1.419 . S
C1614 C1615 1.363 . S
C1614 H1617 0.929 . S
C1615 C1614 1.363 . S
C1615 C1621 1.428 1_556 S
H1616 C1612 0.930 . S
H1617 C1614 0.929 . S
S1618 N1619 1.613 . S
S1618 N1620 1.610 . S
N1619 S1618 1.613 . S
N1619 C1622 1.350 . S
N1620 S1618 1.610 . S
N1620 C1621 1.351 . S
C1621 C1615 1.428 1_554 S
C1621 N1620 1.351 . S
C1621 C1622 1.434 . S
C1622 C1613 1.429 . S
C1622 N1619 1.350 . S
C1622 C1621 1.434 . S
C1623 C1624 1.369 1_556 S
C1623 C1625 1.419 . S
C1623 H1627 0.930 . S
C1624 C1623 1.369 1_554 S
C1624 C1633 1.429 1_655 S
C1625 C1623 1.419 . S
C1625 C1626 1.363 1_655 S
C1625 H1628 0.929 . S
C1626 C1625 1.363 1_455 S
C1626 C1632 1.428 1_556 S
H1627 C1623 0.930 . S
H1628 C1625 0.929 . S
S1629 N1630 1.613 . S
S1629 N1631 1.610 . S
N1630 S1629 1.613 . S
N1630 C1633 1.350 . S
N1631 S1629 1.610 . S
N1631 C1632 1.351 . S
C1632 C1626 1.428 1_554 S
C1632 N1631 1.351 . S
C1632 C1633 1.434 . S
C1633 C1624 1.429 1_455 S
C1633 N1630 1.350 . S
C1633 C1632 1.434 . S
C1634 C1635 1.369 1_545 S
C1634 C1636 1.419 . S
C1634 H1638 0.930 . S
C1635 C1634 1.369 1_565 S
C1635 C1644 1.429 1_554 S
C1636 C1634 1.419 . S
C1636 C1637 1.363 1_554 S
C1636 H1639 0.929 . S
C1637 C1636 1.363 1_556 S
C1637 C1643 1.428 1_545 S
H1638 C1634 0.930 . S
H1639 C1636 0.929 . S
S1640 N1641 1.613 . S
S1640 N1642 1.610 . S
N1641 S1640 1.613 . S
N1641 C1644 1.350 . S
N1642 S1640 1.610 . S
N1642 C1643 1.351 . S
C1643 C1637 1.428 1_565 S
C1643 N1642 1.351 . S
C1643 C1644 1.434 . S
C1644 C1635 1.429 1_556 S
C1644 N1641 1.350 . S
C1644 C1643 1.434 . S
C1645 C1646 1.369 . S
C1645 C1647 1.419 . S
C1645 H1649 0.930 . S
C1646 C1645 1.369 . S
C1646 C1655 1.443 . S
C1647 C1645 1.419 . S
C1647 C1648 1.363 1_554 S
C1647 H1650 0.929 . S
C1648 C1647 1.363 1_556 S
C1648 C1654 1.428 . S
H1649 C1645 0.930 . S
H1650 C1647 0.929 . S
S1651 N1652 1.613 . S
S1651 N1653 1.610 . S
N1652 S1651 1.613 . S
N1652 C1655 1.346 1_556 S
N1653 S1651 1.610 . S
N1653 C1654 1.351 . S
C1654 C1648 1.428 . S
C1654 N1653 1.351 . S
C1654 C1655 1.421 1_556 S
C1655 C1646 1.443 . S
C1655 N1652 1.346 1_554 S
C1655 C1654 1.421 1_554 S
C1656 C1657 1.369 . S
C1656 C1658 1.419 . S
C1656 H1660 0.930 . S
C1657 C1656 1.369 . S
C1657 C1666 1.429 . S
C1658 C1656 1.419 . S
C1658 C1659 1.363 . S
C1658 H1661 0.929 . S
C1659 C1658 1.363 . S
C1659 C1665 1.428 . S
H1660 C1656 0.930 . S
H1661 C1658 0.929 . S
S1662 N1663 1.613 . S
S1662 N1664 1.610 . S
N1663 S1662 1.613 . S
N1663 C1666 1.350 . S
N1664 S1662 1.610 . S
N1664 C1665 1.351 . S
C1665 C1659 1.428 . S
C1665 N1664 1.351 . S
C1665 C1666 1.434 . S
C1666 C1657 1.429 . S
C1666 N1663 1.350 . S
C1666 C1665 1.434 . S
C1667 C1668 1.369 . S
C1667 C1669 1.419 . S
C1667 H1671 0.930 . S
C1668 C1667 1.369 . S
C1668 C1677 1.429 . S
C1669 C1667 1.419 . S
C1669 C1670 1.363 . S
C1669 H1672 0.929 . S
C1670 C1669 1.363 . S
C1670 C1676 1.428 . S
H1671 C1667 0.930 . S
H1672 C1669 0.929 . S
S1673 N1674 1.613 . S
S1673 N1675 1.610 . S
N1674 S1673 1.613 . S
N1674 C1677 1.350 . S
N1675 S1673 1.610 . S
N1675 C1676 1.351 . S
C1676 C1670 1.428 . S
C1676 N1675 1.351 . S
C1676 C1677 1.434 . S
C1677 C1668 1.429 . S
C1677 N1674 1.350 . S
C1677 C1676 1.434 . S
C1678 C1679 1.369 . S
C1678 C1680 1.419 . S
C1678 H1682 0.930 . S
C1679 C1678 1.369 . S
C1679 C1688 1.429 . S
C1680 C1678 1.419 . S
C1680 C1681 1.363 . S
C1680 H1683 0.929 . S
C1681 C1680 1.363 . S
C1681 C1687 1.428 . S
H1682 C1678 0.930 . S
H1683 C1680 0.929 . S
S1684 N1685 1.613 . S
S1684 N1686 1.610 . S
N1685 S1684 1.613 . S
N1685 C1688 1.350 . S
N1686 S1684 1.610 . S
N1686 C1687 1.351 . S
C1687 C1681 1.428 . S
C1687 N1686 1.351 . S
C1687 C1688 1.434 . S
C1688 C1679 1.429 . S
C1688 N1685 1.350 . S
C1688 C1687 1.434 . S
C1689 C1690 1.369 . S
C1689 C1691 1.419 . S
C1689 H1693 0.930 . S
C1690 C1689 1.369 . S
C1690 C1699 1.429 . S
C1691 C1689 1.419 . S
C1691 C1692 1.363 . S
C1691 H1694 0.929 . S
C1692 C1691 1.363 . S
C1692 C1698 1.428 . S
H1693 C1689 0.930 . S
H1694 C1691 0.929 . S
S1695 N1696 1.613 . S
S1695 N1697 1.610 . S
N1696 S1695 1.613 . S
N1696 C1699 1.350 . S
N1697 S1695 1.610 . S
N1697 C1698 1.351 . S
C1698 C1692 1.428 . S
C1698 N1697 1.351 . S
C1698 C1699 1.434 . S
C1699 C1690 1.429 . S
C1699 N1696 1.350 . S
C1699 C1698 1.434 . S
C1700 C1701 1.369 . S
C1700 C1702 1.419 . S
C1700 H1704 0.930 . S
C1701 C1700 1.369 . S
C1701 C1710 1.429 . S
C1702 C1700 1.419 . S
C1702 C1703 1.363 . S
C1702 H1705 0.929 . S
C1703 C1702 1.363 . S
C1703 C1709 1.428 . S
H1704 C1700 0.930 . S
H1705 C1702 0.929 . S
S1706 N1707 1.613 . S
S1706 N1708 1.610 . S
N1707 S1706 1.613 . S
N1707 C1710 1.350 . S
N1708 S1706 1.610 . S
N1708 C1709 1.351 . S
C1709 C1703 1.428 . S
C1709 N1708 1.351 . S
C1709 C1710 1.434 . S
C1710 C1701 1.429 . S
C1710 N1707 1.350 . S
C1710 C1709 1.434 . S
C1711 C1712 1.369 . S
C1711 C1713 1.419 . S
C1711 H1715 0.930 . S
C1712 C1711 1.369 . S
C1712 C1721 1.429 . S
C1713 C1711 1.419 . S
C1713 C1714 1.363 . S
C1713 H1716 0.929 . S
C1714 C1713 1.363 . S
C1714 C1720 1.428 . S
H1715 C1711 0.930 . S
H1716 C1713 0.929 . S
S1717 N1718 1.613 . S
S1717 N1719 1.610 . S
N1718 S1717 1.613 . S
N1718 C1721 1.350 . S
N1719 S1717 1.610 . S
N1719 C1720 1.351 . S
C1720 C1714 1.428 . S
C1720 N1719 1.351 . S
C1720 C1721 1.434 . S
C1721 C1712 1.429 . S
C1721 N1718 1.350 . S
C1721 C1720 1.434 . S
C1722 C1723 1.369 . S
C1722 C1724 1.419 . S
C1722 H1726 0.930 . S
C1723 C1722 1.369 . S
C1723 C1732 1.429 . S
C1724 C1722 1.419 . S
C1724 C1725 1.363 . S
C1724 H1727 0.929 . S
C1725 C1724 1.363 . S
C1725 C1731 1.428 . S
H1726 C1722 0.930 . S
H1727 C1724 0.929 . S
S1728 N1729 1.613 . S
S1728 N1730 1.610 . S
N1729 S1728 1.613 . S
N1729 C1732 1.350 . S
N1730 S1728 1.610 . S
N1730 C1731 1.351 . S
C1731 C1725 1.428 . S
C1731 N1730 1.351 . S
C1731 C1732 1.434 . S
C1732 C1723 1.429 . S
C1732 N1729 1.350 . S
C1732 C1731 1.434 . S
C1733 C1734 1.369 . S
C1733 C1735 1.419 . S
C1733 H1737 0.930 . S
C1734 C1733 1.369 . S
C1734 C1743 1.429 . S
C1735 C1733 1.419 . S
C1735 C1736 1.363 . S
C1735 H1738 0.929 . S
C1736 C1735 1.363 . S
C1736 C1742 1.428 . S
H1737 C1733 0.930 . S
H1738 C1735 0.929 . S
S1739 N1740 1.613 . S
S1739 N1741 1.610 . S
N1740 S1739 1.613 . S
N1740 C1743 1.350 . S
N1741 S1739 1.610 . S
N1741 C1742 1.351 . S
C1742 C1736 1.428 . S
C1742 N1741 1.351 . S
C1742 C1743 1.434 . S
C1743 C1734 1.429 . S
C1743 N1740 1.350 . S
C1743 C1742 1.434 . S
C1744 C1745 1.369 . S
C1744 C1746 1.419 . S
C1744 H1748 0.930 . S
C1745 C1744 1.369 . S
C1745 C1754 1.429 . S
C1746 C1744 1.419 . S
C1746 C1747 1.363 . S
C1746 H1749 0.929 . S
C1747 C1746 1.363 . S
C1747 C1753 1.428 . S
H1748 C1744 0.930 . S
H1749 C1746 0.929 . S
S1750 N1751 1.613 . S
S1750 N1752 1.610 . S
N1751 S1750 1.613 . S
N1751 C1754 1.350 . S
N1752 S1750 1.610 . S
N1752 C1753 1.351 . S
C1753 C1747 1.428 . S
C1753 N1752 1.351 . S
C1753 C1754 1.434 . S
C1754 C1745 1.429 . S
C1754 N1751 1.350 . S
C1754 C1753 1.434 . S
C1755 C1756 1.369 . S
C1755 C1757 1.419 . S
C1755 H1759 0.930 . S
C1756 C1755 1.369 . S
C1756 C1765 1.429 . S
C1757 C1755 1.419 . S
C1757 C1758 1.363 . S
C1757 H1760 0.929 . S
C1758 C1757 1.363 . S
C1758 C1764 1.428 . S
H1759 C1755 0.930 . S
H1760 C1757 0.929 . S
S1761 N1762 1.613 . S
S1761 N1763 1.610 . S
N1762 S1761 1.613 . S
N1762 C1765 1.350 . S
N1763 S1761 1.610 . S
N1763 C1764 1.351 . S
C1764 C1758 1.428 . S
C1764 N1763 1.351 . S
C1764 C1765 1.434 . S
C1765 C1756 1.429 . S
C1765 N1762 1.350 . S
C1765 C1764 1.434 . S
C1766 C1767 1.369 . S
C1766 C1768 1.419 . S
C1766 H1770 0.930 . S
C1767 C1766 1.369 . S
C1767 C1776 1.429 . S
C1768 C1766 1.419 . S
C1768 C1769 1.363 . S
C1768 H1771 0.929 . S
C1769 C1768 1.363 . S
C1769 C1775 1.428 . S
H1770 C1766 0.930 . S
H1771 C1768 0.929 . S
S1772 N1773 1.613 . S
S1772 N1774 1.610 . S
N1773 S1772 1.613 . S
N1773 C1776 1.350 . S
N1774 S1772 1.610 . S
N1774 C1775 1.351 . S
C1775 C1769 1.428 . S
C1775 N1774 1.351 . S
C1775 C1776 1.434 . S
C1776 C1767 1.429 . S
C1776 N1773 1.350 . S
C1776 C1775 1.434 . S
C1777 C1778 1.369 . S
C1777 C1779 1.419 . S
C1777 H1781 0.930 . S
C1778 C1777 1.369 . S
C1778 C1787 1.429 . S
C1779 C1777 1.419 . S
C1779 C1780 1.363 . S
C1779 H1782 0.929 . S
C1780 C1779 1.363 . S
C1780 C1786 1.428 . S
H1781 C1777 0.930 . S
H1782 C1779 0.929 . S
S1783 N1784 1.613 . S
S1783 N1785 1.610 . S
N1784 S1783 1.613 . S
N1784 C1787 1.350 . S
N1785 S1783 1.610 . S
N1785 C1786 1.351 . S
C1786 C1780 1.428 . S
C1786 N1785 1.351 . S
C1786 C1787 1.434 . S
C1787 C1778 1.429 . S
C1787 N1784 1.350 . S
C1787 C1786 1.434 . S
C1788 C1789 1.369 . S
C1788 C1790 1.419 . S
C1788 H1792 0.930 . S
C1789 C1788 1.369 . S
C1789 C1798 1.429 . S
C1790 C1788 1.419 . S
C1790 C1791 1.363 . S
C1790 H1793 0.929 . S
C1791 C1790 1.363 . S
C1791 C1797 1.428 . S
H1792 C1788 0.930 . S
H1793 C1790 0.929 . S
S1794 N1795 1.613 . S
S1794 N1796 1.610 . S
N1795 S1794 1.613 . S
N1795 C1798 1.350 . S
N1796 S1794 1.610 . S
N1796 C1797 1.351 . S
C1797 C1791 1.428 . S
C1797 N1796 1.351 . S
C1797 C1798 1.434 . S
C1798 C1789 1.429 . S
C1798 N1795 1.350 . S
C1798 C1797 1.434 . S
C1799 C1800 1.369 . S
C1799 C1801 1.419 . S
C1799 H1803 0.930 . S
C1800 C1799 1.369 . S
C1800 C1809 1.429 . S
C1801 C1799 1.419 . S
C1801 C1802 1.363 . S
C1801 H1804 0.929 . S
C1802 C1801 1.363 . S
C1802 C1808 1.428 . S
H1803 C1799 0.930 . S
H1804 C1801 0.929 . S
S1805 N1806 1.613 . S
S1805 N1807 1.610 . S
N1806 S1805 1.613 . S
N1806 C1809 1.350 . S
N1807 S1805 1.610 . S
N1807 C1808 1.351 . S
C1808 C1802 1.428 . S
C1808 N1807 1.351 . S
C1808 C1809 1.434 . S
C1809 C1800 1.429 . S
C1809 N1806 1.350 . S
C1809 C1808 1.434 . S
C1810 C1811 1.369 . S
C1810 C1812 1.419 . S
C1810 H1814 0.930 . S
C1811 C1810 1.369 . S
C1811 C1820 1.429 . S
C1812 C1810 1.419 . S
C1812 C1813 1.363 . S
C1812 H1815 0.929 . S
C1813 C1812 1.363 . S
C1813 C1819 1.428 . S
H1814 C1810 0.930 . S
H1815 C1812 0.929 . S
S1816 N1817 1.613 . S
S1816 N1818 1.610 . S
N1817 S1816 1.613 . S
N1817 C1820 1.350 . S
N1818 S1816 1.610 . S
N1818 C1819 1.351 . S
C1819 C1813 1.428 . S
C1819 N1818 1.351 . S
C1819 C1820 1.434 . S
C1820 C1811 1.429 . S
C1820 N1817 1.350 . S
C1820 C1819 1.434 . S
C1821 C1822 1.369 . S
C1821 C1823 1.419 . S
C1821 H1825 0.930 . S
C1822 C1821 1.369 . S
C1822 C1831 1.429 . S
C1823 C1821 1.419 . S
C1823 C1824 1.363 . S
C1823 H1826 0.929 . S
C1824 C1823 1.363 . S
C1824 C1830 1.428 . S
H1825 C1821 0.930 . S
H1826 C1823 0.929 . S
S1827 N1828 1.613 . S
S1827 N1829 1.610 . S
N1828 S1827 1.613 . S
N1828 C1831 1.350 . S
N1829 S1827 1.610 . S
N1829 C1830 1.351 . S
C1830 C1824 1.428 . S
C1830 N1829 1.351 . S
C1830 C1831 1.434 . S
C1831 C1822 1.429 . S
C1831 N1828 1.350 . S
C1831 C1830 1.434 . S
C1832 C1833 1.369 . S
C1832 C1834 1.419 . S
C1832 H1836 0.930 . S
C1833 C1832 1.369 . S
C1833 C1842 1.429 . S
C1834 C1832 1.419 . S
C1834 C1835 1.363 . S
C1834 H1837 0.929 . S
C1835 C1834 1.363 . S
C1835 C1841 1.428 . S
H1836 C1832 0.930 . S
H1837 C1834 0.929 . S
S1838 N1839 1.613 . S
S1838 N1840 1.610 . S
N1839 S1838 1.613 . S
N1839 C1842 1.350 . S
N1840 S1838 1.610 . S
N1840 C1841 1.351 . S
C1841 C1835 1.428 . S
C1841 N1840 1.351 . S
C1841 C1842 1.434 . S
C1842 C1833 1.429 . S
C1842 N1839 1.350 . S
C1842 C1841 1.434 . S
C1843 C1844 1.369 . S
C1843 C1845 1.419 . S
C1843 H1847 0.930 . S
C1844 C1843 1.369 . S
C1844 C1853 1.429 . S
C1845 C1843 1.419 . S
C1845 C1846 1.363 . S
C1845 H1848 0.929 . S
C1846 C1845 1.363 . S
C1846 C1852 1.428 . S
H1847 C1843 0.930 . S
H1848 C1845 0.929 . S
S1849 N1850 1.613 . S
S1849 N1851 1.610 . S
N1850 S1849 1.613 . S
N1850 C1853 1.350 . S
N1851 S1849 1.610 . S
N1851 C1852 1.351 . S
C1852 C1846 1.428 . S
C1852 N1851 1.351 . S
C1852 C1853 1.434 . S
C1853 C1844 1.429 . S
C1853 N1850 1.350 . S
C1853 C1852 1.434 . S
C1854 C1855 1.369 . S
C1854 C1856 1.419 . S
C1854 H1858 0.930 . S
C1855 C1854 1.369 . S
C1855 C1864 1.429 . S
C1856 C1854 1.419 . S
C1856 C1857 1.363 . S
C1856 H1859 0.929 . S
C1857 C1856 1.363 . S
C1857 C1863 1.428 . S
H1858 C1854 0.930 . S
H1859 C1856 0.929 . S
S1860 N1861 1.613 . S
S1860 N1862 1.610 . S
N1861 S1860 1.613 . S
N1861 C1864 1.350 . S
N1862 S1860 1.610 . S
N1862 C1863 1.351 . S
C1863 C1857 1.428 . S
C1863 N1862 1.351 . S
C1863 C1864 1.434 . S
C1864 C1855 1.429 . S
C1864 N1861 1.350 . S
C1864 C1863 1.434 . S
C1865 C1866 1.369 . S
C1865 C1867 1.419 . S
C1865 H1869 0.930 . S
C1866 C1865 1.369 . S
C1866 C1875 1.429 . S
C1867 C1865 1.419 . S
C1867 C1868 1.363 . S
C1867 H1870 0.929 . S
C1868 C1867 1.363 . S
C1868 C1874 1.428 . S
H1869 C1865 0.930 . S
H1870 C1867 0.929 . S
S1871 N1872 1.613 . S
S1871 N1873 1.610 . S
N1872 S1871 1.613 . S
N1872 C1875 1.350 . S
N1873 S1871 1.610 . S
N1873 C1874 1.351 . S
C1874 C1868 1.428 . S
C1874 N1873 1.351 . S
C1874 C1875 1.434 . S
C1875 C1866 1.429 . S
C1875 N1872 1.350 . S
C1875 C1874 1.434 . S
C1876 C1877 1.369 . S
C1876 C1878 1.419 . S
C1876 H1880 0.930 . S
C1877 C1876 1.369 . S
C1877 C1886 1.429 . S
C1878 C1876 1.419 . S
C1878 C1879 1.363 . S
C1878 H1881 0.929 . S
C1879 C1878 1.363 . S
C1879 C1885 1.428 . S
H1880 C1876 0.930 . S
H1881 C1878 0.929 . S
S1882 N1883 1.613 . S
S1882 N1884 1.610 . S
N1883 S1882 1.613 . S
N1883 C1886 1.350 . S
N1884 S1882 1.610 . S
N1884 C1885 1.351 . S
C1885 C1879 1.428 . S
C1885 N1884 1.351 . S
C1885 C1886 1.434 . S
C1886 C1877 1.429 . S
C1886 N1883 1.350 . S
C1886 C1885 1.434 . S
C1887 C1888 1.369 . S
C1887 C1889 1.419 . S
C1887 H1891 0.930 . S
C1888 C1887 1.369 . S
C1888 C1897 1.429 . S
C1889 C1887 1.419 . S
C1889 C1890 1.363 . S
C1889 H1892 0.929 . S
C1890 C1889 1.363 . S
C1890 C1896 1.428 . S
H1891 C1887 0.930 . S
H1892 C1889 0.929 . S
S1893 N1894 1.613 . S
S1893 N1895 1.610 . S
N1894 S1893 1.613 . S
N1894 C1897 1.350 . S
N1895 S1893 1.610 . S
N1895 C1896 1.351 . S
C1896 C1890 1.428 . S
C1896 N1895 1.351 . S
C1896 C1897 1.434 . S
C1897 C1888 1.429 . S
C1897 N1894 1.350 . S
C1897 C1896 1.434 . S
C1898 C1899 1.369 . S
C1898 C1900 1.419 . S
C1898 H1902 0.930 . S
C1899 C1898 1.369 . S
C1899 C1908 1.429 . S
C1900 C1898 1.419 . S
C1900 C1901 1.363 . S
C1900 H1903 0.929 . S
C1901 C1900 1.363 . S
C1901 C1907 1.428 . S
H1902 C1898 0.930 . S
H1903 C1900 0.929 . S
S1904 N1905 1.613 . S
S1904 N1906 1.610 . S
N1905 S1904 1.613 . S
N1905 C1908 1.350 . S
N1906 S1904 1.610 . S
N1906 C1907 1.351 . S
C1907 C1901 1.428 . S
C1907 N1906 1.351 . S
C1907 C1908 1.434 . S
C1908 C1899 1.429 . S
C1908 N1905 1.350 . S
C1908 C1907 1.434 . S
C1909 C1910 1.369 . S
C1909 C1911 1.419 . S
C1909 H1913 0.930 . S
C1910 C1909 1.369 . S
C1910 C1919 1.429 . S
C1911 C1909 1.419 . S
C1911 C1912 1.363 . S
C1911 H1914 0.929 . S
C1912 C1911 1.363 . S
C1912 C1918 1.428 . S
H1913 C1909 0.930 . S
H1914 C1911 0.929 . S
S1915 N1916 1.613 . S
S1915 N1917 1.610 . S
N1916 S1915 1.613 . S
N1916 C1919 1.350 . S
N1917 S1915 1.610 . S
N1917 C1918 1.351 . S
C1918 C1912 1.428 . S
C1918 N1917 1.351 . S
C1918 C1919 1.434 . S
C1919 C1910 1.429 . S
C1919 N1916 1.350 . S
C1919 C1918 1.434 . S
C1920 C1921 1.369 . S
C1920 C1922 1.419 . S
C1920 H1924 0.930 . S
C1921 C1920 1.369 . S
C1921 C1930 1.429 . S
C1922 C1920 1.419 . S
C1922 C1923 1.363 . S
C1922 H1925 0.929 . S
C1923 C1922 1.363 . S
C1923 C1929 1.428 . S
H1924 C1920 0.930 . S
H1925 C1922 0.929 . S
S1926 N1927 1.613 . S
S1926 N1928 1.610 . S
N1927 S1926 1.613 . S
N1927 C1930 1.350 . S
N1928 S1926 1.610 . S
N1928 C1929 1.351 . S
C1929 C1923 1.428 . S
C1929 N1928 1.351 . S
C1929 C1930 1.434 . S
C1930 C1921 1.429 . S
C1930 N1927 1.350 . S
C1930 C1929 1.434 . S
C1931 C1932 1.369 . S
C1931 C1933 1.419 . S
C1931 H1935 0.930 . S
C1932 C1931 1.369 . S
C1932 C1941 1.429 . S
C1933 C1931 1.419 . S
C1933 C1934 1.363 . S
C1933 H1936 0.929 . S
C1934 C1933 1.363 . S
C1934 C1940 1.428 . S
H1935 C1931 0.930 . S
H1936 C1933 0.929 . S
S1937 N1938 1.613 . S
S1937 N1939 1.610 . S
N1938 S1937 1.613 . S
N1938 C1941 1.350 . S
N1939 S1937 1.610 . S
N1939 C1940 1.351 . S
C1940 C1934 1.428 . S
C1940 N1939 1.351 . S
C1940 C1941 1.434 . S
C1941 C1932 1.429 . S
C1941 N1938 1.350 . S
C1941 C1940 1.434 . S
C1942 C1943 1.369 . S
C1942 C1944 1.419 . S
C1942 H1946 0.930 . S
C1943 C1942 1.369 . S
C1943 C1952 1.429 . S
C1944 C1942 1.419 . S
C1944 C1945 1.363 . S
C1944 H1947 0.929 . S
C1945 C1944 1.363 . S
C1945 C1951 1.428 . S
H1946 C1942 0.930 . S
H1947 C1944 0.929 . S
S1948 N1949 1.613 . S
S1948 N1950 1.610 . S
N1949 S1948 1.613 . S
N1949 C1952 1.350 . S
N1950 S1948 1.610 . S
N1950 C1951 1.351 . S
C1951 C1945 1.428 . S
C1951 N1950 1.351 . S
C1951 C1952 1.434 . S
C1952 C1943 1.429 . S
C1952 N1949 1.350 . S
C1952 C1951 1.434 . S
C1953 C1954 1.369 . S
C1953 C1955 1.419 . S
C1953 H1957 0.930 . S
C1954 C1953 1.369 . S
C1954 C1963 1.429 . S
C1955 C1953 1.419 . S
C1955 C1956 1.363 . S
C1955 H1958 0.929 . S
C1956 C1955 1.363 . S
C1956 C1962 1.428 . S
H1957 C1953 0.930 . S
H1958 C1955 0.929 . S
S1959 N1960 1.613 . S
S1959 N1961 1.610 . S
N1960 S1959 1.613 . S
N1960 C1963 1.350 . S
N1961 S1959 1.610 . S
N1961 C1962 1.351 . S
C1962 C1956 1.428 . S
C1962 N1961 1.351 . S
C1962 C1963 1.434 . S
C1963 C1954 1.429 . S
C1963 N1960 1.350 . S
C1963 C1962 1.434 . S
C1964 C1965 1.369 . S
C1964 C1966 1.419 . S
C1964 H1968 0.930 . S
C1965 C1964 1.369 . S
C1965 C1974 1.429 . S
C1966 C1964 1.419 . S
C1966 C1967 1.363 . S
C1966 H1969 0.929 . S
C1967 C1966 1.363 . S
C1967 C1973 1.428 . S
H1968 C1964 0.930 . S
H1969 C1966 0.929 . S
S1970 N1971 1.613 . S
S1970 N1972 1.610 . S
N1971 S1970 1.613 . S
N1971 C1974 1.350 . S
N1972 S1970 1.610 . S
N1972 C1973 1.351 . S
C1973 C1967 1.428 . S
C1973 N1972 1.351 . S
C1973 C1974 1.434 . S
C1974 C1965 1.429 . S
C1974 N1971 1.350 . S
C1974 C1973 1.434 . S
C1975 C1976 1.369 . S
C1975 C1977 1.419 . S
C1975 H1979 0.930 . S
C1976 C1975 1.369 . S
C1976 C1985 1.429 . S
C1977 C1975 1.419 . S
C1977 C1978 1.363 . S
C1977 H1980 0.929 . S
C1978 C1977 1.363 . S
C1978 C1984 1.428 . S
H1979 C1975 0.930 . S
H1980 C1977 0.929 . S
S1981 N1982 1.613 . S
S1981 N1983 1.610 . S
N1982 S1981 1.613 . S
N1982 C1985 1.350 . S
N1983 S1981 1.610 . S
N1983 C1984 1.351 . S
C1984 C1978 1.428 . S
C1984 N1983 1.351 . S
C1984 C1985 1.434 . S
C1985 C1976 1.429 . S
C1985 N1982 1.350 . S
C1985 C1984 1.434 . S
C1986 C1987 1.369 . S
C1986 C1988 1.419 . S
C1986 H1990 0.930 . S
C1987 C1986 1.369 . S
C1987 C1996 1.429 . S
C1988 C1986 1.419 . S
C1988 C1989 1.363 . S
C1988 H1991 0.929 . S
C1989 C1988 1.363 . S
C1989 C1995 1.428 . S
H1990 C1986 0.930 . S
H1991 C1988 0.929 . S
S1992 N1993 1.613 . S
S1992 N1994 1.610 . S
N1993 S1992 1.613 . S
N1993 C1996 1.350 . S
N1994 S1992 1.610 . S
N1994 C1995 1.351 . S
C1995 C1989 1.428 . S
C1995 N1994 1.351 . S
C1995 C1996 1.434 . S
C1996 C1987 1.429 . S
C1996 N1993 1.350 . S
C1996 C1995 1.434 . S
C1997 C1998 1.369 . S
C1997 C1999 1.419 . S
C1997 H2001 0.930 . S
C1998 C1997 1.369 . S
C1998 C2007 1.429 . S
C1999 C1997 1.419 . S
C1999 C2000 1.363 . S
C1999 H2002 0.929 . S
C2000 C1999 1.363 . S
C2000 C2006 1.428 . S
H2001 C1997 0.930 . S
H2002 C1999 0.929 . S
S2003 N2004 1.613 . S
S2003 N2005 1.610 . S
N2004 S2003 1.613 . S
N2004 C2007 1.350 . S
N2005 S2003 1.610 . S
N2005 C2006 1.351 . S
C2006 C2000 1.428 . S
C2006 N2005 1.351 . S
C2006 C2007 1.434 . S
C2007 C1998 1.429 . S
C2007 N2004 1.350 . S
C2007 C2006 1.434 . S
C2008 C2009 1.369 . S
C2008 C2010 1.419 . S
C2008 H2012 0.930 . S
C2009 C2008 1.369 . S
C2009 C2018 1.429 . S
C2010 C2008 1.419 . S
C2010 C2011 1.363 . S
C2010 H2013 0.929 . S
C2011 C2010 1.363 . S
C2011 C2017 1.428 . S
H2012 C2008 0.930 . S
H2013 C2010 0.929 . S
S2014 N2015 1.613 . S
S2014 N2016 1.610 . S
N2015 S2014 1.613 . S
N2015 C2018 1.350 . S
N2016 S2014 1.610 . S
N2016 C2017 1.351 . S
C2017 C2011 1.428 . S
C2017 N2016 1.351 . S
C2017 C2018 1.434 . S
C2018 C2009 1.429 . S
C2018 N2015 1.350 . S
C2018 C2017 1.434 . S
C2019 C2020 1.369 . S
C2019 C2021 1.419 . S
C2019 H2023 0.930 . S
C2020 C2019 1.369 . S
C2020 C2029 1.429 . S
C2021 C2019 1.419 . S
C2021 C2022 1.363 . S
C2021 H2024 0.929 . S
C2022 C2021 1.363 . S
C2022 C2028 1.428 . S
H2023 C2019 0.930 . S
H2024 C2021 0.929 . S
S2025 N2026 1.613 . S
S2025 N2027 1.610 . S
N2026 S2025 1.613 . S
N2026 C2029 1.350 . S
N2027 S2025 1.610 . S
N2027 C2028 1.351 . S
C2028 C2022 1.428 . S
C2028 N2027 1.351 . S
C2028 C2029 1.434 . S
C2029 C2020 1.429 . S
C2029 N2026 1.350 . S
C2029 C2028 1.434 . S
C2030 C2031 1.369 . S
C2030 C2032 1.419 . S
C2030 H2034 0.930 . S
C2031 C2030 1.369 . S
C2031 C2040 1.429 . S
C2032 C2030 1.419 . S
C2032 C2033 1.363 . S
C2032 H2035 0.929 . S
C2033 C2032 1.363 . S
C2033 C2039 1.428 . S
H2034 C2030 0.930 . S
H2035 C2032 0.929 . S
S2036 N2037 1.613 . S
S2036 N2038 1.610 . S
N2037 S2036 1.613 . S
N2037 C2040 1.350 . S
N2038 S2036 1.610 . S
N2038 C2039 1.351 . S
C2039 C2033 1.428 . S
C2039 N2038 1.351 . S
C2039 C2040 1.434 . S
C2040 C2031 1.429 . S
C2040 N2037 1.350 . S
C2040 C2039 1.434 . S
C2041 C2042 1.369 . S
C2041 C2043 1.419 . S
C2041 H2045 0.930 . S
C2042 C2041 1.369 . S
C2042 C2051 1.429 . S
C2043 C2041 1.419 . S
C2043 C2044 1.363 . S
C2043 H2046 0.929 . S
C2044 C2043 1.363 . S
C2044 C2050 1.428 . S
H2045 C2041 0.930 . S
H2046 C2043 0.929 . S
S2047 N2048 1.613 . S
S2047 N2049 1.610 . S
N2048 S2047 1.613 . S
N2048 C2051 1.350 . S
N2049 S2047 1.610 . S
N2049 C2050 1.351 . S
C2050 C2044 1.428 . S
C2050 N2049 1.351 . S
C2050 C2051 1.434 . S
C2051 C2042 1.429 . S
C2051 N2048 1.350 . S
C2051 C2050 1.434 . S
C2052 C2053 1.369 . S
C2052 C2054 1.419 . S
C2052 H2056 0.930 . S
C2053 C2052 1.369 . S
C2053 C2062 1.429 . S
C2054 C2052 1.419 . S
C2054 C2055 1.363 . S
C2054 H2057 0.929 . S
C2055 C2054 1.363 . S
C2055 C2061 1.428 . S
H2056 C2052 0.930 . S
H2057 C2054 0.929 . S
S2058 N2059 1.613 . S
S2058 N2060 1.610 . S
N2059 S2058 1.613 . S
N2059 C2062 1.350 . S
N2060 S2058 1.610 . S
N2060 C2061 1.351 . S
C2061 C2055 1.428 . S
C2061 N2060 1.351 . S
C2061 C2062 1.434 . S
C2062 C2053 1.429 . S
C2062 N2059 1.350 . S
C2062 C2061 1.434 . S
C2063 C2064 1.369 . S
C2063 C2065 1.419 . S
C2063 H2067 0.930 . S
C2064 C2063 1.369 . S
C2064 C2073 1.429 . S
C2065 C2063 1.419 . S
C2065 C2066 1.363 . S
C2065 H2068 0.929 . S
C2066 C2065 1.363 . S
C2066 C2072 1.428 . S
H2067 C2063 0.930 . S
H2068 C2065 0.929 . S
S2069 N2070 1.613 . S
S2069 N2071 1.610 . S
N2070 S2069 1.613 . S
N2070 C2073 1.350 . S
N2071 S2069 1.610 . S
N2071 C2072 1.351 . S
C2072 C2066 1.428 . S
C2072 N2071 1.351 . S
C2072 C2073 1.434 . S
C2073 C2064 1.429 . S
C2073 N2070 1.350 . S
C2073 C2072 1.434 . S
C2074 C2075 1.369 . S
C2074 C2076 1.419 . S
C2074 H2078 0.930 . S
C2075 C2074 1.369 . S
C2075 C2084 1.429 . S
C2076 C2074 1.419 . S
C2076 C2077 1.363 . S
C2076 H2079 0.929 . S
C2077 C2076 1.363 . S
C2077 C2083 1.428 . S
H2078 C2074 0.930 . S
H2079 C2076 0.929 . S
S2080 N2081 1.613 . S
S2080 N2082 1.610 . S
N2081 S2080 1.613 . S
N2081 C2084 1.350 . S
N2082 S2080 1.610 . S
N2082 C2083 1.351 . S
C2083 C2077 1.428 . S
C2083 N2082 1.351 . S
C2083 C2084 1.434 . S
C2084 C2075 1.429 . S
C2084 N2081 1.350 . S
C2084 C2083 1.434 . S
C2085 C2086 1.369 . S
C2085 C2087 1.419 . S
C2085 H2089 0.930 . S
C2086 C2085 1.369 . S
C2086 C2095 1.429 . S
C2087 C2085 1.419 . S
C2087 C2088 1.363 . S
C2087 H2090 0.929 . S
C2088 C2087 1.363 . S
C2088 C2094 1.428 . S
H2089 C2085 0.930 . S
H2090 C2087 0.929 . S
S2091 N2092 1.613 . S
S2091 N2093 1.610 . S
N2092 S2091 1.613 . S
N2092 C2095 1.350 . S
N2093 S2091 1.610 . S
N2093 C2094 1.351 . S
C2094 C2088 1.428 . S
C2094 N2093 1.351 . S
C2094 C2095 1.434 . S
C2095 C2086 1.429 . S
C2095 N2092 1.350 . S
C2095 C2094 1.434 . S
C2096 C2097 1.369 . S
C2096 C2098 1.419 . S
C2096 H2100 0.930 . S
C2097 C2096 1.369 . S
C2097 C2106 1.429 . S
C2098 C2096 1.419 . S
C2098 C2099 1.363 . S
C2098 H2101 0.929 . S
C2099 C2098 1.363 . S
C2099 C2105 1.428 . S
H2100 C2096 0.930 . S
H2101 C2098 0.929 . S
S2102 N2103 1.613 . S
S2102 N2104 1.610 . S
N2103 S2102 1.613 . S
N2103 C2106 1.350 . S
N2104 S2102 1.610 . S
N2104 C2105 1.351 . S
C2105 C2099 1.428 . S
C2105 N2104 1.351 . S
C2105 C2106 1.434 . S
C2106 C2097 1.429 . S
C2106 N2103 1.350 . S
C2106 C2105 1.434 . S
C2107 C2108 1.369 . S
C2107 C2109 1.419 . S
C2107 H2111 0.930 . S
C2108 C2107 1.369 . S
C2108 C2117 1.429 . S
C2109 C2107 1.419 . S
C2109 C2110 1.363 . S
C2109 H2112 0.929 . S
C2110 C2109 1.363 . S
C2110 C2116 1.428 . S
H2111 C2107 0.930 . S
H2112 C2109 0.929 . S
S2113 N2114 1.613 . S
S2113 N2115 1.610 . S
N2114 S2113 1.613 . S
N2114 C2117 1.350 . S
N2115 S2113 1.610 . S
N2115 C2116 1.351 . S
C2116 C2110 1.428 . S
C2116 N2115 1.351 . S
C2116 C2117 1.434 . S
C2117 C2108 1.429 . S
C2117 N2114 1.350 . S
C2117 C2116 1.434 . S
C2118 C2119 1.369 . S
C2118 C2120 1.419 . S
C2118 H2122 0.930 . S
C2119 C2118 1.369 . S
C2119 C2128 1.429 . S
C2120 C2118 1.419 . S
C2120 C2121 1.363 . S
C2120 H2123 0.929 . S
C2121 C2120 1.363 . S
C2121 C2127 1.428 . S
H2122 C2118 0.930 . S
H2123 C2120 0.929 . S
S2124 N2125 1.613 . S
S2124 N2126 1.610 . S
N2125 S2124 1.613 . S
N2125 C2128 1.350 . S
N2126 S2124 1.610 . S
N2126 C2127 1.351 . S
C2127 C2121 1.428 . S
C2127 N2126 1.351 . S
C2127 C2128 1.434 . S
C2128 C2119 1.429 . S
C2128 N2125 1.350 . S
C2128 C2127 1.434 . S
C2129 C2130 1.369 . S
C2129 C2131 1.419 . S
C2129 H2133 0.930 . S
C2130 C2129 1.369 . S
C2130 C2139 1.429 . S
C2131 C2129 1.419 . S
C2131 C2132 1.363 . S
C2131 H2134 0.929 . S
C2132 C2131 1.363 . S
C2132 C2138 1.428 . S
H2133 C2129 0.930 . S
H2134 C2131 0.929 . S
S2135 N2136 1.613 . S
S2135 N2137 1.610 . S
N2136 S2135 1.613 . S
N2136 C2139 1.350 . S
N2137 S2135 1.610 . S
N2137 C2138 1.351 . S
C2138 C2132 1.428 . S
C2138 N2137 1.351 . S
C2138 C2139 1.434 . S
C2139 C2130 1.429 . S
C2139 N2136 1.350 . S
C2139 C2138 1.434 . S
C2140 C2141 1.369 . S
C2140 C2142 1.419 . S
C2140 H2144 0.930 . S
C2141 C2140 1.369 . S
C2141 C2150 1.429 . S
C2142 C2140 1.419 . S
C2142 C2143 1.363 . S
C2142 H2145 0.929 . S
C2143 C2142 1.363 . S
C2143 C2149 1.428 . S
H2144 C2140 0.930 . S
H2145 C2142 0.929 . S
S2146 N2147 1.613 . S
S2146 N2148 1.610 . S
N2147 S2146 1.613 . S
N2147 C2150 1.350 . S
N2148 S2146 1.610 . S
N2148 C2149 1.351 . S
C2149 C2143 1.428 . S
C2149 N2148 1.351 . S
C2149 C2150 1.434 . S
C2150 C2141 1.429 . S
C2150 N2147 1.350 . S
C2150 C2149 1.434 . S
C2151 C2152 1.369 . S
C2151 C2153 1.419 . S
C2151 H2155 0.930 . S
C2152 C2151 1.369 . S
C2152 C2161 1.429 . S
C2153 C2151 1.419 . S
C2153 C2154 1.363 . S
C2153 H2156 0.929 . S
C2154 C2153 1.363 . S
C2154 C2160 1.428 . S
H2155 C2151 0.930 . S
H2156 C2153 0.929 . S
S2157 N2158 1.613 . S
S2157 N2159 1.610 . S
N2158 S2157 1.613 . S
N2158 C2161 1.350 . S
N2159 S2157 1.610 . S
N2159 C2160 1.351 . S
C2160 C2154 1.428 . S
C2160 N2159 1.351 . S
C2160 C2161 1.434 . S
C2161 C2152 1.429 . S
C2161 N2158 1.350 . S
C2161 C2160 1.434 . S
C2162 C2163 1.369 . S
C2162 C2164 1.419 . S
C2162 H2166 0.930 . S
C2163 C2162 1.369 . S
C2163 C2172 1.429 . S
C2164 C2162 1.419 . S
C2164 C2165 1.363 . S
C2164 H2167 0.929 . S
C2165 C2164 1.363 . S
C2165 C2171 1.428 . S
H2166 C2162 0.930 . S
H2167 C2164 0.929 . S
S2168 N2169 1.613 . S
S2168 N2170 1.610 . S
N2169 S2168 1.613 . S
N2169 C2172 1.350 . S
N2170 S2168 1.610 . S
N2170 C2171 1.351 . S
C2171 C2165 1.428 . S
C2171 N2170 1.351 . S
C2171 C2172 1.434 . S
C2172 C2163 1.429 . S
C2172 N2169 1.350 . S
C2172 C2171 1.434 . S
C2173 C2174 1.369 . S
C2173 C2175 1.419 . S
C2173 H2177 0.930 . S
C2174 C2173 1.369 . S
C2174 C2183 1.429 . S
C2175 C2173 1.419 . S
C2175 C2176 1.363 . S
C2175 H2178 0.929 . S
C2176 C2175 1.363 . S
C2176 C2182 1.428 . S
H2177 C2173 0.930 . S
H2178 C2175 0.929 . S
S2179 N2180 1.613 . S
S2179 N2181 1.610 . S
N2180 S2179 1.613 . S
N2180 C2183 1.350 . S
N2181 S2179 1.610 . S
N2181 C2182 1.351 . S
C2182 C2176 1.428 . S
C2182 N2181 1.351 . S
C2182 C2183 1.434 . S
C2183 C2174 1.429 . S
C2183 N2180 1.350 . S
C2183 C2182 1.434 . S
C2184 C2185 1.369 . S
C2184 C2186 1.419 . S
C2184 H2188 0.930 . S
C2185 C2184 1.369 . S
C2185 C2194 1.429 . S
C2186 C2184 1.419 . S
C2186 C2187 1.363 . S
C2186 H2189 0.929 . S
C2187 C2186 1.363 . S
C2187 C2193 1.428 . S
H2188 C2184 0.930 . S
H2189 C2186 0.929 . S
S2190 N2191 1.613 . S
S2190 N2192 1.610 . S
N2191 S2190 1.613 . S
N2191 C2194 1.350 . S
N2192 S2190 1.610 . S
N2192 C2193 1.351 . S
C2193 C2187 1.428 . S
C2193 N2192 1.351 . S
C2193 C2194 1.434 . S
C2194 C2185 1.429 . S
C2194 N2191 1.350 . S
C2194 C2193 1.434 . S
C2195 C2196 1.341 1_545 S
C2195 C2197 1.426 . S
C2195 H2199 0.952 . S
C2196 C2195 1.341 1_565 S
C2196 C2205 1.429 . S
C2197 C2195 1.426 . S
C2197 C2198 1.363 1_545 S
C2197 H2200 0.929 . S
C2198 C2197 1.363 1_565 S
C2198 C2204 1.428 . S
H2199 C2195 0.952 . S
H2200 C2197 0.929 . S
S2201 N2202 1.613 . S
S2201 N2203 1.610 . S
N2202 S2201 1.613 . S
N2202 C2205 1.350 . S
N2203 S2201 1.610 . S
N2203 C2204 1.351 . S
C2204 C2198 1.428 . S
C2204 N2203 1.351 . S
C2204 C2205 1.434 . S
C2205 C2196 1.429 . S
C2205 N2202 1.350 . S
C2205 C2204 1.434 . S
C2206 C2207 1.369 . S
C2206 C2208 1.419 . S
C2206 H2210 0.930 . S
C2207 C2206 1.369 . S
C2207 C2216 1.429 . S
C2208 C2206 1.419 . S
C2208 C2209 1.363 . S
C2208 H2211 0.929 . S
C2209 C2208 1.363 . S
C2209 C2215 1.428 . S
H2210 C2206 0.930 . S
H2211 C2208 0.929 . S
S2212 N2213 1.613 . S
S2212 N2214 1.610 . S
N2213 S2212 1.613 . S
N2213 C2216 1.350 . S
N2214 S2212 1.610 . S
N2214 C2215 1.351 . S
C2215 C2209 1.428 . S
C2215 N2214 1.351 . S
C2215 C2216 1.434 . S
C2216 C2207 1.429 . S
C2216 N2213 1.350 . S
C2216 C2215 1.434 . S
C2217 C2218 1.369 . S
C2217 C2219 1.419 . S
C2217 H2221 0.930 . S
C2218 C2217 1.369 . S
C2218 C2227 1.429 . S
C2219 C2217 1.419 . S
C2219 C2220 1.363 . S
C2219 H2222 0.929 . S
C2220 C2219 1.363 . S
C2220 C2226 1.428 . S
H2221 C2217 0.930 . S
H2222 C2219 0.929 . S
S2223 N2224 1.613 . S
S2223 N2225 1.610 . S
N2224 S2223 1.613 . S
N2224 C2227 1.350 . S
N2225 S2223 1.610 . S
N2225 C2226 1.351 . S
C2226 C2220 1.428 . S
C2226 N2225 1.351 . S
C2226 C2227 1.434 . S
C2227 C2218 1.429 . S
C2227 N2224 1.350 . S
C2227 C2226 1.434 . S
C2228 C2229 1.369 . S
C2228 C2230 1.419 . S
C2228 H2232 0.930 . S
C2229 C2228 1.369 . S
C2229 C2238 1.429 . S
C2230 C2228 1.419 . S
C2230 C2231 1.363 . S
C2230 H2233 0.929 . S
C2231 C2230 1.363 . S
C2231 C2237 1.428 1_655 S
H2232 C2228 0.930 . S
H2233 C2230 0.929 . S
S2234 N2235 1.613 . S
S2234 N2236 1.610 . S
N2235 S2234 1.613 . S
N2235 C2238 1.350 1_455 S
N2236 S2234 1.610 . S
N2236 C2237 1.351 . S
C2237 C2231 1.428 1_455 S
C2237 N2236 1.351 . S
C2237 C2238 1.434 1_455 S
C2238 C2229 1.429 . S
C2238 N2235 1.350 1_655 S
C2238 C2237 1.434 1_655 S
C2239 C2240 1.369 . S
C2239 C2241 1.419 . S
C2239 H2243 0.930 . S
C2240 C2239 1.369 . S
C2240 C2249 1.429 . S
C2241 C2239 1.419 . S
C2241 C2242 1.363 . S
C2241 H2244 0.929 . S
C2242 C2241 1.363 . S
C2242 C2248 1.428 . S
H2243 C2239 0.930 . S
H2244 C2241 0.929 . S
S2245 N2246 1.613 . S
S2245 N2247 1.610 . S
N2246 S2245 1.613 . S
N2246 C2249 1.350 . S
N2247 S2245 1.610 . S
N2247 C2248 1.351 . S
C2248 C2242 1.428 . S
C2248 N2247 1.351 . S
C2248 C2249 1.434 . S
C2249 C2240 1.429 . S
C2249 N2246 1.350 . S
C2249 C2248 1.434 . S
C2250 C2251 1.369 . S
C2250 C2252 1.419 . S
C2250 H2254 0.930 . S
C2251 C2250 1.369 . S
C2251 C2260 1.429 . S
C2252 C2250 1.419 . S
C2252 C2253 1.363 . S
C2252 H2255 0.929 . S
C2253 C2252 1.363 . S
C2253 C2259 1.428 . S
H2254 C2250 0.930 . S
H2255 C2252 0.929 . S
S2256 N2257 1.613 . S
S2256 N2258 1.610 . S
N2257 S2256 1.613 . S
N2257 C2260 1.350 . S
N2258 S2256 1.610 . S
N2258 C2259 1.351 . S
C2259 C2253 1.428 . S
C2259 N2258 1.351 . S
C2259 C2260 1.434 . S
C2260 C2251 1.429 . S
C2260 N2257 1.350 . S
C2260 C2259 1.434 . S
C2261 C2262 1.369 . S
C2261 C2263 1.419 . S
C2261 H2265 0.930 . S
C2262 C2261 1.369 . S
C2262 C2271 1.429 . S
C2263 C2261 1.419 . S
C2263 C2264 1.363 . S
C2263 H2266 0.929 . S
C2264 C2263 1.363 . S
C2264 C2270 1.428 . S
H2265 C2261 0.930 . S
H2266 C2263 0.929 . S
S2267 N2268 1.613 . S
S2267 N2269 1.610 . S
N2268 S2267 1.613 . S
N2268 C2271 1.350 . S
N2269 S2267 1.610 . S
N2269 C2270 1.351 . S
C2270 C2264 1.428 . S
C2270 N2269 1.351 . S
C2270 C2271 1.434 . S
C2271 C2262 1.429 . S
C2271 N2268 1.350 . S
C2271 C2270 1.434 . S
C2272 C2273 1.369 . S
C2272 C2274 1.419 . S
C2272 H2276 0.930 . S
C2273 C2272 1.369 . S
C2273 C2282 1.429 1_565 S
C2274 C2272 1.419 . S
C2274 C2275 1.363 . S
C2274 H2277 0.929 . S
C2275 C2274 1.363 . S
C2275 C2281 1.428 1_565 S
H2276 C2272 0.930 . S
H2277 C2274 0.929 . S
S2278 N2279 1.613 . S
S2278 N2280 1.610 . S
N2279 S2278 1.613 . S
N2279 C2282 1.350 . S
N2280 S2278 1.610 . S
N2280 C2281 1.351 . S
C2281 C2275 1.428 1_545 S
C2281 N2280 1.351 . S
C2281 C2282 1.434 . S
C2282 C2273 1.429 1_545 S
C2282 N2279 1.350 . S
C2282 C2281 1.434 . S
C2283 C2284 1.369 . S
C2283 C2285 1.419 . S
C2283 H2287 0.930 . S
C2284 C2283 1.369 . S
C2284 C2293 1.429 . S
C2285 C2283 1.419 . S
C2285 C2286 1.363 . S
C2285 H2288 0.929 . S
C2286 C2285 1.363 . S
C2286 C2292 1.428 . S
H2287 C2283 0.930 . S
H2288 C2285 0.929 . S
S2289 N2290 1.613 . S
S2289 N2291 1.610 . S
N2290 S2289 1.613 . S
N2290 C2293 1.350 . S
N2291 S2289 1.610 . S
N2291 C2292 1.351 . S
C2292 C2286 1.428 . S
C2292 N2291 1.351 . S
C2292 C2293 1.434 . S
C2293 C2284 1.429 . S
C2293 N2290 1.350 . S
C2293 C2292 1.434 . S
C2294 C2295 1.369 . S
C2294 C2296 1.419 . S
C2294 H2298 0.930 . S
C2295 C2294 1.369 . S
C2295 C2304 1.429 . S
C2296 C2294 1.419 . S
C2296 C2297 1.363 . S
C2296 H2299 0.929 . S
C2297 C2296 1.363 . S
C2297 C2303 1.428 . S
H2298 C2294 0.930 . S
H2299 C2296 0.929 . S
S2300 N2301 1.613 . S
S2300 N2302 1.610 . S
N2301 S2300 1.613 . S
N2301 C2304 1.350 . S
N2302 S2300 1.610 . S
N2302 C2303 1.351 . S
C2303 C2297 1.428 . S
C2303 N2302 1.351 . S
C2303 C2304 1.434 . S
C2304 C2295 1.429 . S
C2304 N2301 1.350 . S
C2304 C2303 1.434 . S
C2305 C2306 1.369 . S
C2305 C2307 1.419 . S
C2305 H2309 0.930 . S
C2306 C2305 1.369 . S
C2306 C2315 1.430 1_655 S
C2307 C2305 1.419 . S
C2307 C2308 1.363 . S
C2307 H2310 0.929 . S
C2308 C2307 1.363 . S
C2308 C2314 1.428 . S
H2309 C2305 0.930 . S
H2310 C2307 0.929 . S
S2311 N2312 1.613 . S
S2311 N2313 1.610 . S
N2312 S2311 1.613 . S
N2312 C2315 1.348 . S
N2313 S2311 1.610 . S
N2313 C2314 1.351 1_455 S
C2314 C2308 1.428 . S
C2314 N2313 1.351 1_655 S
C2314 C2315 1.435 1_655 S
C2315 C2306 1.430 1_455 S
C2315 N2312 1.348 . S
C2315 C2314 1.435 1_455 S
C2316 C2317 1.369 . S
C2316 C2318 1.419 . S
C2316 H2320 0.930 . S
C2317 C2316 1.369 . S
C2317 C2326 1.429 . S
C2318 C2316 1.419 . S
C2318 C2319 1.363 . S
C2318 H2321 0.929 . S
C2319 C2318 1.363 . S
C2319 C2325 1.428 . S
H2320 C2316 0.930 . S
H2321 C2318 0.929 . S
S2322 N2323 1.613 . S
S2322 N2324 1.610 . S
N2323 S2322 1.613 . S
N2323 C2326 1.350 . S
N2324 S2322 1.610 . S
N2324 C2325 1.351 . S
C2325 C2319 1.428 . S
C2325 N2324 1.351 . S
C2325 C2326 1.434 . S
C2326 C2317 1.429 . S
C2326 N2323 1.350 . S
C2326 C2325 1.434 . S
C2327 C2328 1.369 . S
C2327 C2329 1.419 . S
C2327 H2331 0.930 . S
C2328 C2327 1.369 . S
C2328 C2337 1.428 . S
C2329 C2327 1.419 . S
C2329 C2330 1.363 . S
C2329 H2332 0.929 . S
C2330 C2329 1.363 . S
C2330 C2336 1.428 . S
H2331 C2327 0.930 . S
H2332 C2329 0.929 . S
S2333 N2334 1.613 . S
S2333 N2335 1.610 . S
N2334 S2333 1.613 . S
N2334 C2337 1.350 1_455 S
N2335 S2333 1.610 . S
N2335 C2336 1.351 1_455 S
C2336 C2330 1.428 . S
C2336 N2335 1.351 1_655 S
C2336 C2337 1.434 . S
C2337 C2328 1.428 . S
C2337 N2334 1.350 1_655 S
C2337 C2336 1.434 . S
C2338 C2339 1.369 . S
C2338 C2340 1.419 . S
C2338 H2342 0.930 . S
C2339 C2338 1.369 . S
C2339 C2348 1.429 . S
C2340 C2338 1.419 . S
C2340 C2341 1.363 . S
C2340 H2343 0.929 . S
C2341 C2340 1.363 . S
C2341 C2347 1.428 . S
H2342 C2338 0.930 . S
H2343 C2340 0.929 . S
S2344 N2345 1.613 . S
S2344 N2346 1.610 . S
N2345 S2344 1.613 . S
N2345 C2348 1.350 . S
N2346 S2344 1.610 . S
N2346 C2347 1.351 . S
C2347 C2341 1.428 . S
C2347 N2346 1.351 . S
C2347 C2348 1.434 . S
C2348 C2339 1.429 . S
C2348 N2345 1.350 . S
C2348 C2347 1.434 . S
C2349 C2350 1.369 . S
C2349 C2351 1.419 . S
C2349 H2353 0.930 . S
C2350 C2349 1.369 . S
C2350 C2359 1.429 . S
C2351 C2349 1.419 . S
C2351 C2352 1.363 . S
C2351 H2354 0.929 . S
C2352 C2351 1.363 . S
C2352 C2358 1.428 . S
H2353 C2349 0.930 . S
H2354 C2351 0.929 . S
S2355 N2356 1.613 . S
S2355 N2357 1.610 . S
N2356 S2355 1.613 . S
N2356 C2359 1.350 . S
N2357 S2355 1.610 . S
N2357 C2358 1.351 . S
C2358 C2352 1.428 . S
C2358 N2357 1.351 . S
C2358 C2359 1.434 . S
C2359 C2350 1.429 . S
C2359 N2356 1.350 . S
C2359 C2358 1.434 . S
C2360 C2361 1.369 . S
C2360 C2362 1.419 . S
C2360 H2364 0.930 . S
C2361 C2360 1.369 . S
C2361 C2370 1.429 . S
C2362 C2360 1.419 . S
C2362 C2363 1.363 . S
C2362 H2365 0.929 1_556 S
C2363 C2362 1.363 . S
C2363 C2369 1.428 . S
H2364 C2360 0.930 . S
H2365 C2362 0.929 1_554 S
S2366 N2367 1.613 . S
S2366 N2368 1.610 . S
N2367 S2366 1.613 . S
N2367 C2370 1.350 . S
N2368 S2366 1.610 . S
N2368 C2369 1.351 . S
C2369 C2363 1.428 . S
C2369 N2368 1.351 . S
C2369 C2370 1.434 . S
C2370 C2361 1.429 . S
C2370 N2367 1.350 . S
C2370 C2369 1.434 . S
C2371 C2372 1.369 . S
C2371 C2373 1.419 . S
C2371 H2375 0.930 . S
C2372 C2371 1.369 . S
C2372 C2381 1.429 . S
C2373 C2371 1.419 . S
C2373 C2374 1.363 . S
C2373 H2376 0.929 . S
C2374 C2373 1.363 . S
C2374 C2380 1.428 . S
H2375 C2371 0.930 . S
H2376 C2373 0.929 . S
S2377 N2378 1.613 . S
S2377 N2379 1.610 . S
N2378 S2377 1.613 . S
N2378 C2381 1.350 . S
N2379 S2377 1.610 . S
N2379 C2380 1.351 . S
C2380 C2374 1.428 . S
C2380 N2379 1.351 . S
C2380 C2381 1.434 . S
C2381 C2372 1.429 . S
C2381 N2378 1.350 . S
C2381 C2380 1.434 . S
C2382 C2383 1.369 . S
C2382 C2384 1.419 . S
C2382 H2386 0.930 . S
C2383 C2382 1.369 . S
C2383 C2392 1.429 . S
C2384 C2382 1.419 . S
C2384 C2385 1.363 . S
C2384 H2387 0.929 . S
C2385 C2384 1.363 . S
C2385 C2391 1.428 . S
H2386 C2382 0.930 . S
H2387 C2384 0.929 . S
S2388 N2389 1.613 . S
S2388 N2390 1.610 . S
N2389 S2388 1.613 . S
N2389 C2392 1.350 . S
N2390 S2388 1.610 . S
N2390 C2391 1.351 . S
C2391 C2385 1.428 . S
C2391 N2390 1.351 . S
C2391 C2392 1.434 . S
C2392 C2383 1.429 . S
C2392 N2389 1.350 . S
C2392 C2391 1.434 . S
C2393 C2394 1.369 . S
C2393 C2395 1.419 . S
C2393 H2397 0.930 . S
C2394 C2393 1.369 . S
C2394 C2403 1.429 . S
C2395 C2393 1.419 . S
C2395 C2396 1.363 . S
C2395 H2398 0.929 . S
C2396 C2395 1.363 . S
C2396 C2402 1.428 . S
H2397 C2393 0.930 . S
H2398 C2395 0.929 . S
S2399 N2400 1.613 . S
S2399 N2401 1.610 . S
N2400 S2399 1.613 . S
N2400 C2403 1.350 . S
N2401 S2399 1.610 . S
N2401 C2402 1.351 . S
C2402 C2396 1.428 . S
C2402 N2401 1.351 . S
C2402 C2403 1.434 . S
C2403 C2394 1.429 . S
C2403 N2400 1.350 . S
C2403 C2402 1.434 . S
C2404 C2405 1.369 . S
C2404 C2406 1.419 . S
C2404 H2408 0.930 . S
C2405 C2404 1.369 . S
C2405 C2414 1.429 . S
C2406 C2404 1.419 . S
C2406 C2407 1.363 . S
C2406 H2409 0.929 . S
C2407 C2406 1.363 . S
C2407 C2413 1.428 . S
H2408 C2404 0.930 . S
H2409 C2406 0.929 . S
S2410 N2411 1.613 . S
S2410 N2412 1.610 . S
N2411 S2410 1.613 . S
N2411 C2414 1.350 . S
N2412 S2410 1.610 . S
N2412 C2413 1.351 . S
C2413 C2407 1.428 . S
C2413 N2412 1.351 . S
C2413 C2414 1.434 . S
C2414 C2405 1.429 . S
C2414 N2411 1.350 . S
C2414 C2413 1.434 . S
C2415 C2416 1.369 . S
C2415 C2417 1.409 1_556 S
C2415 H2419 0.930 1_556 S
C2416 C2415 1.369 . S
C2416 C2425 1.429 . S
C2417 C2415 1.409 1_554 S
C2417 C2418 1.345 1_554 S
C2417 H2420 0.960 . S
C2418 C2417 1.345 1_556 S
C2418 C2424 1.428 . S
H2419 C2415 0.930 1_554 S
H2420 C2417 0.960 . S
S2421 N2422 1.613 . S
S2421 N2423 1.610 . S
N2422 S2421 1.613 . S
N2422 C2425 1.350 . S
N2423 S2421 1.610 . S
N2423 C2424 1.351 . S
C2424 C2418 1.428 . S
C2424 N2423 1.351 . S
C2424 C2425 1.434 . S
C2425 C2416 1.429 . S
C2425 N2422 1.350 . S
C2425 C2424 1.434 . S
C2426 C2427 1.369 . S
C2426 C2428 1.419 1_556 S
C2426 H2430 0.930 1_556 S
C2427 C2426 1.369 . S
C2427 C2436 1.429 . S
C2428 C2426 1.419 1_554 S
C2428 C2429 1.363 1_554 S
C2428 H2431 0.929 . S
C2429 C2428 1.363 1_556 S
C2429 C2435 1.428 . S
H2430 C2426 0.930 1_554 S
H2431 C2428 0.929 . S
S2432 N2433 1.613 . S
S2432 N2434 1.610 . S
N2433 S2432 1.613 . S
N2433 C2436 1.350 . S
N2434 S2432 1.610 . S
N2434 C2435 1.351 . S
C2435 C2429 1.428 . S
C2435 N2434 1.351 . S
C2435 C2436 1.434 . S
C2436 C2427 1.429 . S
C2436 N2433 1.350 . S
C2436 C2435 1.434 . S
C2437 C2438 1.369 . S
C2437 C2439 1.419 . S
C2437 H2441 0.930 . S
C2438 C2437 1.369 . S
C2438 C2447 1.429 1_556 S
C2439 C2437 1.419 . S
C2439 C2440 1.363 . S
C2439 H2442 0.929 . S
C2440 C2439 1.363 . S
C2440 C2446 1.428 1_556 S
H2441 C2437 0.930 . S
H2442 C2439 0.929 . S
S2443 N2444 1.613 . S
S2443 N2445 1.610 . S
N2444 S2443 1.613 . S
N2444 C2447 1.350 . S
N2445 S2443 1.610 . S
N2445 C2446 1.351 . S
C2446 C2440 1.428 1_554 S
C2446 N2445 1.351 . S
C2446 C2447 1.434 . S
C2447 C2438 1.429 1_554 S
C2447 N2444 1.350 . S
C2447 C2446 1.434 . S
C2448 C2449 1.369 . S
C2448 C2450 1.419 . S
C2448 H2452 0.930 . S
C2449 C2448 1.369 . S
C2449 C2458 1.429 . S
C2450 C2448 1.419 . S
C2450 C2451 1.363 . S
C2450 H2453 0.929 . S
C2451 C2450 1.363 . S
C2451 C2457 1.428 . S
H2452 C2448 0.930 . S
H2453 C2450 0.929 . S
S2454 N2455 1.615 . S
S2454 N2456 1.610 . S
N2455 S2454 1.615 . S
N2455 C2458 1.348 1_655 S
N2456 S2454 1.610 . S
N2456 C2457 1.351 1_655 S
C2457 C2451 1.428 . S
C2457 N2456 1.351 1_455 S
C2457 C2458 1.434 . S
C2458 C2449 1.429 . S
C2458 N2455 1.348 1_455 S
C2458 C2457 1.434 . S
C2459 C2460 1.369 . S
C2459 C2461 1.419 . S
C2459 H2463 0.930 . S
C2460 C2459 1.369 . S
C2460 C2469 1.429 . S
C2461 C2459 1.419 . S
C2461 C2462 1.363 . S
C2461 H2464 0.929 . S
C2462 C2461 1.363 . S
C2462 C2468 1.428 . S
H2463 C2459 0.930 . S
H2464 C2461 0.929 . S
S2465 N2466 1.613 . S
S2465 N2467 1.610 . S
N2466 S2465 1.613 . S
N2466 C2469 1.350 . S
N2467 S2465 1.610 . S
N2467 C2468 1.351 . S
C2468 C2462 1.428 . S
C2468 N2467 1.351 . S
C2468 C2469 1.434 . S
C2469 C2460 1.429 . S
C2469 N2466 1.350 . S
C2469 C2468 1.434 . S
C2470 C2471 1.369 . S
C2470 C2472 1.419 . S
C2470 H2474 0.930 . S
C2471 C2470 1.369 . S
C2471 C2480 1.429 . S
C2472 C2470 1.419 . S
C2472 C2473 1.363 . S
C2472 H2475 0.929 . S
C2473 C2472 1.363 . S
C2473 C2479 1.428 . S
H2474 C2470 0.930 . S
H2475 C2472 0.929 . S
S2476 N2477 1.613 . S
S2476 N2478 1.610 . S
N2477 S2476 1.613 . S
N2477 C2480 1.350 . S
N2478 S2476 1.610 . S
N2478 C2479 1.351 . S
C2479 C2473 1.428 . S
C2479 N2478 1.351 . S
C2479 C2480 1.434 . S
C2480 C2471 1.429 . S
C2480 N2477 1.350 . S
C2480 C2479 1.434 . S
C2481 C2482 1.369 . S
C2481 C2483 1.419 . S
C2481 H2485 0.930 . S
C2482 C2481 1.369 . S
C2482 C2491 1.429 . S
C2483 C2481 1.419 . S
C2483 C2484 1.363 . S
C2483 H2486 0.929 . S
C2484 C2483 1.363 . S
C2484 C2490 1.428 . S
H2485 C2481 0.930 . S
H2486 C2483 0.929 . S
S2487 N2488 1.613 . S
S2487 N2489 1.610 . S
N2488 S2487 1.613 . S
N2488 C2491 1.350 . S
N2489 S2487 1.610 . S
N2489 C2490 1.351 . S
C2490 C2484 1.428 . S
C2490 N2489 1.351 . S
C2490 C2491 1.434 . S
C2491 C2482 1.429 . S
C2491 N2488 1.350 . S
C2491 C2490 1.434 . S
C2492 C2493 1.369 . S
C2492 C2494 1.419 . S
C2492 H2496 0.930 1_455 S
C2493 C2492 1.369 . S
C2493 C2502 1.429 . S
C2494 C2492 1.419 . S
C2494 C2495 1.363 . S
C2494 H2497 0.929 . S
C2495 C2494 1.363 . S
C2495 C2501 1.428 . S
H2496 C2492 0.930 1_655 S
H2497 C2494 0.929 . S
S2498 N2499 1.613 . S
S2498 N2500 1.610 . S
N2499 S2498 1.613 . S
N2499 C2502 1.350 . S
N2500 S2498 1.610 . S
N2500 C2501 1.351 . S
C2501 C2495 1.428 . S
C2501 N2500 1.351 . S
C2501 C2502 1.434 . S
C2502 C2493 1.429 . S
C2502 N2499 1.350 . S
C2502 C2501 1.434 . S
C2503 C2504 1.369 . S
C2503 C2505 1.419 . S
C2503 H2507 0.930 . S
C2504 C2503 1.369 . S
C2504 C2513 1.429 1_545 S
C2505 C2503 1.419 . S
C2505 C2506 1.363 . S
C2505 H2508 0.929 . S
C2506 C2505 1.363 . S
C2506 C2512 1.461 . S
H2507 C2503 0.930 . S
H2508 C2505 0.929 . S
S2509 N2510 1.613 . S
S2509 N2511 1.610 . S
N2510 S2509 1.613 . S
N2510 C2513 1.350 . S
N2511 S2509 1.610 . S
N2511 C2512 1.325 1_565 S
C2512 C2506 1.461 . S
C2512 N2511 1.325 1_545 S
C2512 C2513 1.425 1_545 S
C2513 C2504 1.429 1_565 S
C2513 N2510 1.350 . S
C2513 C2512 1.425 1_565 S
C2514 C2515 1.369 . S
C2514 C2516 1.419 . S
C2514 H2518 0.930 . S
C2515 C2514 1.369 . S
C2515 C2524 1.429 . S
C2516 C2514 1.419 . S
C2516 C2517 1.363 . S
C2516 H2519 0.929 . S
C2517 C2516 1.363 . S
C2517 C2523 1.428 . S
H2518 C2514 0.930 . S
H2519 C2516 0.929 . S
S2520 N2521 1.613 . S
S2520 N2522 1.610 . S
N2521 S2520 1.613 . S
N2521 C2524 1.350 . S
N2522 S2520 1.610 . S
N2522 C2523 1.351 . S
C2523 C2517 1.428 . S
C2523 N2522 1.351 . S
C2523 C2524 1.434 . S
C2524 C2515 1.429 . S
C2524 N2521 1.350 . S
C2524 C2523 1.434 . S
C2525 C2526 1.369 . S
C2525 C2527 1.419 . S
C2525 H2529 0.930 . S
C2526 C2525 1.369 . S
C2526 C2535 1.429 . S
C2527 C2525 1.419 . S
C2527 C2528 1.363 . S
C2527 H2530 0.929 . S
C2528 C2527 1.363 . S
C2528 C2534 1.428 . S
H2529 C2525 0.930 . S
H2530 C2527 0.929 . S
S2531 N2532 1.613 . S
S2531 N2533 1.610 . S
N2532 S2531 1.613 . S
N2532 C2535 1.350 . S
N2533 S2531 1.610 . S
N2533 C2534 1.351 . S
C2534 C2528 1.428 . S
C2534 N2533 1.351 . S
C2534 C2535 1.434 . S
C2535 C2526 1.429 . S
C2535 N2532 1.350 . S
C2535 C2534 1.434 . S
C2536 C2537 1.369 . S
C2536 C2538 1.419 . S
C2536 H2540 0.930 . S
C2537 C2536 1.369 . S
C2537 C2546 1.429 . S
C2538 C2536 1.419 . S
C2538 C2539 1.363 . S
C2538 H2541 0.929 . S
C2539 C2538 1.363 . S
C2539 C2545 1.428 . S
H2540 C2536 0.930 . S
H2541 C2538 0.929 . S
S2542 N2543 1.613 1_565 S
S2542 N2544 1.610 . S
N2543 S2542 1.613 1_545 S
N2543 C2546 1.350 . S
N2544 S2542 1.610 . S
N2544 C2545 1.351 1_565 S
C2545 C2539 1.428 . S
C2545 N2544 1.351 1_545 S
C2545 C2546 1.434 . S
C2546 C2537 1.429 . S
C2546 N2543 1.350 . S
C2546 C2545 1.434 . S
C2547 C2548 1.369 . S
C2547 C2549 1.419 . S
C2547 H2551 0.930 . S
C2548 C2547 1.369 . S
C2548 C2557 1.429 . S
C2549 C2547 1.419 . S
C2549 C2550 1.363 . S
C2549 H2552 0.929 . S
C2550 C2549 1.363 . S
C2550 C2556 1.428 . S
H2551 C2547 0.930 . S
H2552 C2549 0.929 . S
S2553 N2554 1.613 . S
S2553 N2555 1.610 . S
N2554 S2553 1.613 . S
N2554 C2557 1.350 . S
N2555 S2553 1.610 . S
N2555 C2556 1.351 . S
C2556 C2550 1.428 . S
C2556 N2555 1.351 . S
C2556 C2557 1.434 . S
C2557 C2548 1.429 . S
C2557 N2554 1.350 . S
C2557 C2556 1.434 . S
C2558 C2559 1.369 . S
C2558 C2560 1.419 . S
C2558 H2562 0.930 . S
C2559 C2558 1.369 . S
C2559 C2568 1.429 . S
C2560 C2558 1.419 . S
C2560 C2561 1.363 . S
C2560 H2563 0.929 . S
C2561 C2560 1.363 . S
C2561 C2567 1.428 . S
H2562 C2558 0.930 . S
H2563 C2560 0.929 . S
S2564 N2565 1.613 . S
S2564 N2566 1.610 . S
N2565 S2564 1.613 . S
N2565 C2568 1.350 . S
N2566 S2564 1.610 . S
N2566 C2567 1.351 . S
C2567 C2561 1.428 . S
C2567 N2566 1.351 . S
C2567 C2568 1.434 . S
C2568 C2559 1.429 . S
C2568 N2565 1.350 . S
C2568 C2567 1.434 . S
C2569 C2570 1.369 . S
C2569 C2571 1.419 . S
C2569 H2573 0.930 . S
C2570 C2569 1.369 . S
C2570 C2579 1.429 1_455 S
C2571 C2569 1.419 . S
C2571 C2572 1.363 . S
C2571 H2574 0.929 . S
C2572 C2571 1.363 . S
C2572 C2578 1.428 1_455 S
H2573 C2569 0.930 . S
H2574 C2571 0.929 . S
S2575 N2576 1.613 . S
S2575 N2577 1.610 . S
N2576 S2575 1.613 . S
N2576 C2579 1.350 . S
N2577 S2575 1.610 . S
N2577 C2578 1.351 . S
C2578 C2572 1.428 1_655 S
C2578 N2577 1.351 . S
C2578 C2579 1.434 . S
C2579 C2570 1.429 1_655 S
C2579 N2576 1.350 . S
C2579 C2578 1.434 . S
C2580 C2581 1.369 . S
C2580 C2582 1.419 . S
C2580 H2584 0.930 . S
C2581 C2580 1.369 . S
C2581 C2590 1.429 . S
C2582 C2580 1.419 . S
C2582 C2583 1.363 . S
C2582 H2585 0.929 . S
C2583 C2582 1.363 . S
C2583 C2589 1.428 . S
H2584 C2580 0.930 . S
H2585 C2582 0.929 . S
S2586 N2587 1.613 . S
S2586 N2588 1.610 . S
N2587 S2586 1.613 . S
N2587 C2590 1.350 . S
N2588 S2586 1.610 . S
N2588 C2589 1.351 . S
C2589 C2583 1.428 . S
C2589 N2588 1.351 . S
C2589 C2590 1.434 . S
C2590 C2581 1.429 . S
C2590 N2587 1.350 . S
C2590 C2589 1.434 . S
C2591 C2592 1.369 . S
C2591 C2593 1.419 . S
C2591 H2595 0.930 . S
C2592 C2591 1.369 . S
C2592 C2601 1.429 . S
C2593 C2591 1.419 . S
C2593 C2594 1.363 . S
C2593 H2596 0.929 . S
C2594 C2593 1.363 . S
C2594 C2600 1.428 1_455 S
H2595 C2591 0.930 . S
H2596 C2593 0.929 . S
S2597 N2598 1.613 . S
S2597 N2599 1.610 . S
N2598 S2597 1.613 . S
N2598 C2601 1.350 1_655 S
N2599 S2597 1.610 . S
N2599 C2600 1.351 . S
C2600 C2594 1.428 1_655 S
C2600 N2599 1.351 . S
C2600 C2601 1.434 1_655 S
C2601 C2592 1.429 . S
C2601 N2598 1.350 1_455 S
C2601 C2600 1.434 1_455 S
C2602 C2603 1.369 . S
C2602 C2604 1.419 . S
C2602 H2606 0.930 1_545 S
C2603 C2602 1.369 . S
C2603 C2612 1.429 . S
C2604 C2602 1.419 . S
C2604 C2605 1.363 . S
C2604 H2607 0.929 . S
C2605 C2604 1.363 . S
C2605 C2611 1.428 . S
H2606 C2602 0.930 1_565 S
H2607 C2604 0.929 . S
S2608 N2609 1.613 . S
S2608 N2610 1.610 . S
N2609 S2608 1.613 . S
N2609 C2612 1.350 . S
N2610 S2608 1.610 . S
N2610 C2611 1.351 . S
C2611 C2605 1.428 . S
C2611 N2610 1.351 . S
C2611 C2612 1.434 . S
C2612 C2603 1.429 . S
C2612 N2609 1.350 . S
C2612 C2611 1.434 . S
C2613 C2614 1.369 . S
C2613 C2615 1.419 . S
C2613 H2617 0.930 . S
C2614 C2613 1.369 . S
C2614 C2623 1.429 . S
C2615 C2613 1.419 . S
C2615 C2616 1.363 . S
C2615 H2618 0.929 . S
C2616 C2615 1.363 . S
C2616 C2622 1.428 . S
H2617 C2613 0.930 . S
H2618 C2615 0.929 . S
S2619 N2620 1.613 . S
S2619 N2621 1.610 . S
N2620 S2619 1.613 . S
N2620 C2623 1.350 . S
N2621 S2619 1.610 . S
N2621 C2622 1.351 . S
C2622 C2616 1.428 . S
C2622 N2621 1.351 . S
C2622 C2623 1.434 . S
C2623 C2614 1.429 . S
C2623 N2620 1.350 . S
C2623 C2622 1.434 . S
C2624 C2625 1.369 . S
C2624 C2626 1.419 . S
C2624 H2628 0.930 1_554 S
C2625 C2624 1.369 . S
C2625 C2634 1.429 . S
C2626 C2624 1.419 . S
C2626 C2627 1.363 . S
C2626 H2629 0.929 . S
C2627 C2626 1.363 . S
C2627 C2633 1.428 . S
H2628 C2624 0.930 1_556 S
H2629 C2626 0.929 . S
S2630 N2631 1.613 . S
S2630 N2632 1.610 . S
N2631 S2630 1.613 . S
N2631 C2634 1.350 . S
N2632 S2630 1.610 . S
N2632 C2633 1.351 . S
C2633 C2627 1.428 . S
C2633 N2632 1.351 . S
C2633 C2634 1.434 . S
C2634 C2625 1.429 . S
C2634 N2631 1.350 . S
C2634 C2633 1.434 . S
C2635 C2636 1.369 . S
C2635 C2637 1.419 . S
C2635 H2639 0.930 . S
C2636 C2635 1.369 . S
C2636 C2645 1.429 . S
C2637 C2635 1.419 . S
C2637 C2638 1.363 . S
C2637 H2640 0.929 . S
C2638 C2637 1.363 . S
C2638 C2644 1.428 . S
H2639 C2635 0.930 . S
H2640 C2637 0.929 . S
S2641 N2642 1.613 . S
S2641 N2643 1.610 . S
N2642 S2641 1.613 . S
N2642 C2645 1.350 . S
N2643 S2641 1.610 . S
N2643 C2644 1.351 . S
C2644 C2638 1.428 . S
C2644 N2643 1.351 . S
C2644 C2645 1.434 . S
C2645 C2636 1.429 . S
C2645 N2642 1.350 . S
C2645 C2644 1.434 . S
C2646 C2647 1.369 . S
C2646 C2648 1.419 . S
C2646 H2650 0.930 . S
C2647 C2646 1.369 . S
C2647 C2656 1.429 . S
C2648 C2646 1.419 . S
C2648 C2649 1.363 . S
C2648 H2651 0.929 . S
C2649 C2648 1.363 . S
C2649 C2655 1.428 . S
H2650 C2646 0.930 . S
H2651 C2648 0.929 . S
S2652 N2653 1.613 . S
S2652 N2654 1.610 . S
N2653 S2652 1.613 . S
N2653 C2656 1.350 . S
N2654 S2652 1.610 . S
N2654 C2655 1.351 . S
C2655 C2649 1.428 . S
C2655 N2654 1.351 . S
C2655 C2656 1.434 . S
C2656 C2647 1.429 . S
C2656 N2653 1.350 . S
C2656 C2655 1.434 . S
C2657 C2658 1.369 . S
C2657 C2659 1.419 . S
C2657 H2661 0.930 . S
C2658 C2657 1.369 . S
C2658 C2667 1.429 . S
C2659 C2657 1.419 . S
C2659 C2660 1.363 . S
C2659 H2662 0.929 . S
C2660 C2659 1.363 . S
C2660 C2666 1.428 . S
H2661 C2657 0.930 . S
H2662 C2659 0.929 . S
S2663 N2664 1.613 . S
S2663 N2665 1.610 . S
N2664 S2663 1.613 . S
N2664 C2667 1.350 . S
N2665 S2663 1.610 . S
N2665 C2666 1.351 . S
C2666 C2660 1.428 . S
C2666 N2665 1.351 . S
C2666 C2667 1.434 . S
C2667 C2658 1.429 . S
C2667 N2664 1.350 . S
C2667 C2666 1.434 . S
C2668 C2669 1.369 . S
C2668 C2670 1.419 . S
C2668 H2672 0.930 . S
C2669 C2668 1.369 . S
C2669 C2678 1.429 . S
C2670 C2668 1.419 . S
C2670 C2671 1.363 . S
C2670 H2673 0.929 . S
C2671 C2670 1.363 . S
C2671 C2677 1.428 . S
H2672 C2668 0.930 . S
H2673 C2670 0.929 . S
S2674 N2675 1.613 . S
S2674 N2676 1.610 . S
N2675 S2674 1.613 . S
N2675 C2678 1.350 . S
N2676 S2674 1.610 . S
N2676 C2677 1.351 . S
C2677 C2671 1.428 . S
C2677 N2676 1.351 . S
C2677 C2678 1.434 . S
C2678 C2669 1.429 . S
C2678 N2675 1.350 . S
C2678 C2677 1.434 . S
C2679 C2680 1.369 . S
C2679 C2681 1.419 . S
C2679 H2683 0.930 . S
C2680 C2679 1.369 . S
C2680 C2689 1.429 . S
C2681 C2679 1.419 . S
C2681 C2682 1.363 . S
C2681 H2684 0.929 . S
C2682 C2681 1.363 . S
C2682 C2688 1.428 . S
H2683 C2679 0.930 . S
H2684 C2681 0.929 . S
S2685 N2686 1.613 . S
S2685 N2687 1.610 . S
N2686 S2685 1.613 . S
N2686 C2689 1.350 . S
N2687 S2685 1.610 . S
N2687 C2688 1.351 . S
C2688 C2682 1.428 . S
C2688 N2687 1.351 . S
C2688 C2689 1.434 . S
C2689 C2680 1.429 . S
C2689 N2686 1.350 . S
C2689 C2688 1.434 . S
C2690 C2691 1.369 1_556 S
C2690 C2692 1.419 . S
C2690 H2694 0.930 . S
C2691 C2690 1.369 1_554 S
C2691 C2700 1.429 . S
C2692 C2690 1.419 . S
C2692 C2693 1.363 1_556 S
C2692 H2695 0.929 . S
C2693 C2692 1.363 1_554 S
C2693 C2699 1.428 . S
H2694 C2690 0.930 . S
H2695 C2692 0.929 . S
S2696 N2697 1.613 . S
S2696 N2698 1.610 . S
N2697 S2696 1.613 . S
N2697 C2700 1.350 . S
N2698 S2696 1.610 . S
N2698 C2699 1.351 . S
C2699 C2693 1.428 . S
C2699 N2698 1.351 . S
C2699 C2700 1.434 . S
C2700 C2691 1.429 . S
C2700 N2697 1.350 . S
C2700 C2699 1.434 . S
C2701 C2702 1.369 . S
C2701 C2703 1.419 1_554 S
C2701 H2705 0.930 1_554 S
C2702 C2701 1.369 . S
C2702 C2711 1.429 . S
C2703 C2701 1.419 1_556 S
C2703 C2704 1.363 1_556 S
C2703 H2706 0.929 . S
C2704 C2703 1.363 1_554 S
C2704 C2710 1.428 . S
H2705 C2701 0.930 1_556 S
H2706 C2703 0.929 . S
S2707 N2708 1.613 . S
S2707 N2709 1.610 . S
N2708 S2707 1.613 . S
N2708 C2711 1.350 . S
N2709 S2707 1.610 . S
N2709 C2710 1.351 . S
C2710 C2704 1.428 . S
C2710 N2709 1.351 . S
C2710 C2711 1.434 . S
C2711 C2702 1.429 . S
C2711 N2708 1.350 . S
C2711 C2710 1.434 . S
C2712 C2713 1.369 . S
C2712 C2714 1.419 . S
C2712 H2716 0.930 . S
C2713 C2712 1.369 . S
C2713 C2722 1.429 . S
C2714 C2712 1.419 . S
C2714 C2715 1.363 . S
C2714 H2717 0.929 . S
C2715 C2714 1.363 . S
C2715 C2721 1.428 . S
H2716 C2712 0.930 . S
H2717 C2714 0.929 . S
S2718 N2719 1.613 . S
S2718 N2720 1.610 . S
N2719 S2718 1.613 . S
N2719 C2722 1.350 . S
N2720 S2718 1.610 . S
N2720 C2721 1.351 . S
C2721 C2715 1.428 . S
C2721 N2720 1.351 . S
C2721 C2722 1.434 . S
C2722 C2713 1.429 . S
C2722 N2719 1.350 . S
C2722 C2721 1.434 . S
C2723 C2724 1.369 . S
C2723 C2725 1.419 . S
C2723 H2727 0.930 . S
C2724 C2723 1.369 . S
C2724 C2733 1.429 . S
C2725 C2723 1.419 . S
C2725 C2726 1.363 . S
C2725 H2728 0.929 . S
C2726 C2725 1.363 . S
C2726 C2732 1.428 . S
H2727 C2723 0.930 . S
H2728 C2725 0.929 . S
S2729 N2730 1.613 . S
S2729 N2731 1.610 . S
N2730 S2729 1.613 . S
N2730 C2733 1.350 . S
N2731 S2729 1.610 . S
N2731 C2732 1.351 . S
C2732 C2726 1.428 . S
C2732 N2731 1.351 . S
C2732 C2733 1.434 . S
C2733 C2724 1.429 . S
C2733 N2730 1.350 . S
C2733 C2732 1.434 . S
C2734 C2735 1.369 . S
C2734 C2736 1.419 . S
C2734 H2738 0.930 . S
C2735 C2734 1.369 . S
C2735 C2744 1.429 . S
C2736 C2734 1.419 . S
C2736 C2737 1.363 . S
C2736 H2739 0.929 . S
C2737 C2736 1.363 . S
C2737 C2743 1.428 . S
H2738 C2734 0.930 . S
H2739 C2736 0.929 . S
S2740 N2741 1.613 . S
S2740 N2742 1.610 . S
N2741 S2740 1.613 . S
N2741 C2744 1.350 . S
N2742 S2740 1.610 . S
N2742 C2743 1.351 . S
C2743 C2737 1.428 . S
C2743 N2742 1.351 . S
C2743 C2744 1.434 . S
C2744 C2735 1.429 . S
C2744 N2741 1.350 . S
C2744 C2743 1.434 . S
C2745 C2746 1.369 . S
C2745 C2747 1.419 . S
C2745 H2749 0.930 . S
C2746 C2745 1.369 . S
C2746 C2755 1.429 . S
C2747 C2745 1.419 . S
C2747 C2748 1.363 . S
C2747 H2750 0.929 . S
C2748 C2747 1.363 . S
C2748 C2754 1.428 . S
H2749 C2745 0.930 . S
H2750 C2747 0.929 . S
S2751 N2752 1.613 . S
S2751 N2753 1.610 . S
N2752 S2751 1.613 . S
N2752 C2755 1.350 . S
N2753 S2751 1.610 . S
N2753 C2754 1.351 . S
C2754 C2748 1.428 . S
C2754 N2753 1.351 . S
C2754 C2755 1.434 . S
C2755 C2746 1.429 . S
C2755 N2752 1.350 . S
C2755 C2754 1.434 . S
C2756 C2757 1.369 . S
C2756 C2758 1.419 . S
C2756 H2760 0.930 . S
C2757 C2756 1.369 . S
C2757 C2766 1.429 . S
C2758 C2756 1.419 . S
C2758 C2759 1.363 . S
C2758 H2761 0.929 . S
C2759 C2758 1.363 . S
C2759 C2765 1.428 . S
H2760 C2756 0.930 . S
H2761 C2758 0.929 . S
S2762 N2763 1.613 . S
S2762 N2764 1.610 . S
N2763 S2762 1.613 . S
N2763 C2766 1.350 . S
N2764 S2762 1.610 . S
N2764 C2765 1.351 . S
C2765 C2759 1.428 . S
C2765 N2764 1.351 . S
C2765 C2766 1.434 . S
C2766 C2757 1.429 . S
C2766 N2763 1.350 . S
C2766 C2765 1.434 . S
C2767 C2768 1.369 . S
C2767 C2769 1.419 . S
C2767 H2771 0.930 . S
C2768 C2767 1.369 . S
C2768 C2777 1.429 . S
C2769 C2767 1.419 . S
C2769 C2770 1.363 . S
C2769 H2772 0.929 . S
C2770 C2769 1.363 . S
C2770 C2776 1.428 . S
H2771 C2767 0.930 . S
H2772 C2769 0.929 . S
S2773 N2774 1.613 . S
S2773 N2775 1.610 . S
N2774 S2773 1.613 . S
N2774 C2777 1.350 . S
N2775 S2773 1.610 . S
N2775 C2776 1.351 . S
C2776 C2770 1.428 . S
C2776 N2775 1.351 . S
C2776 C2777 1.434 . S
C2777 C2768 1.429 . S
C2777 N2774 1.350 . S
C2777 C2776 1.434 . S
C2778 C2779 1.369 . S
C2778 C2780 1.419 . S
C2778 H2782 0.930 . S
C2779 C2778 1.369 . S
C2779 C2788 1.429 . S
C2780 C2778 1.419 . S
C2780 C2781 1.363 . S
C2780 H2783 0.929 . S
C2781 C2780 1.363 . S
C2781 C2787 1.428 . S
H2782 C2778 0.930 . S
H2783 C2780 0.929 . S
S2784 N2785 1.613 . S
S2784 N2786 1.610 . S
N2785 S2784 1.613 . S
N2785 C2788 1.350 . S
N2786 S2784 1.610 . S
N2786 C2787 1.351 . S
C2787 C2781 1.428 . S
C2787 N2786 1.351 . S
C2787 C2788 1.434 . S
C2788 C2779 1.429 . S
C2788 N2785 1.350 . S
C2788 C2787 1.434 . S
C2789 C2790 1.369 . S
C2789 C2791 1.419 . S
C2789 H2793 0.930 . S
C2790 C2789 1.369 . S
C2790 C2799 1.429 . S
C2791 C2789 1.419 . S
C2791 C2792 1.363 . S
C2791 H2794 0.929 . S
C2792 C2791 1.363 . S
C2792 C2798 1.428 . S
H2793 C2789 0.930 . S
H2794 C2791 0.929 . S
S2795 N2796 1.613 . S
S2795 N2797 1.610 . S
N2796 S2795 1.613 . S
N2796 C2799 1.350 . S
N2797 S2795 1.610 . S
N2797 C2798 1.351 . S
C2798 C2792 1.428 . S
C2798 N2797 1.351 . S
C2798 C2799 1.434 . S
C2799 C2790 1.429 . S
C2799 N2796 1.350 . S
C2799 C2798 1.434 . S
C2800 C2801 1.369 . S
C2800 C2802 1.419 . S
C2800 H2804 0.930 . S
C2801 C2800 1.369 . S
C2801 C2810 1.429 . S
C2802 C2800 1.419 . S
C2802 C2803 1.363 . S
C2802 H2805 0.929 . S
C2803 C2802 1.363 . S
C2803 C2809 1.428 . S
H2804 C2800 0.930 . S
H2805 C2802 0.929 . S
S2806 N2807 1.613 . S
S2806 N2808 1.610 . S
N2807 S2806 1.613 . S
N2807 C2810 1.350 . S
N2808 S2806 1.610 . S
N2808 C2809 1.351 . S
C2809 C2803 1.428 . S
C2809 N2808 1.351 . S
C2809 C2810 1.434 . S
C2810 C2801 1.429 . S
C2810 N2807 1.350 . S
C2810 C2809 1.434 . S
C2811 C2812 1.369 . S
C2811 C2813 1.419 . S
C2811 H2815 0.930 . S
C2812 C2811 1.369 . S
C2812 C2821 1.429 . S
C2813 C2811 1.419 . S
C2813 C2814 1.363 . S
C2813 H2816 0.929 . S
C2814 C2813 1.363 . S
C2814 C2820 1.428 . S
H2815 C2811 0.930 . S
H2816 C2813 0.929 . S
S2817 N2818 1.613 . S
S2817 N2819 1.610 . S
N2818 S2817 1.613 . S
N2818 C2821 1.350 . S
N2819 S2817 1.610 . S
N2819 C2820 1.351 . S
C2820 C2814 1.428 . S
C2820 N2819 1.351 . S
C2820 C2821 1.434 . S
C2821 C2812 1.429 . S
C2821 N2818 1.350 . S
C2821 C2820 1.434 . S
C2822 C2823 1.369 . S
C2822 C2824 1.419 . S
C2822 H2826 0.930 . S
C2823 C2822 1.369 . S
C2823 C2832 1.429 . S
C2824 C2822 1.419 . S
C2824 C2825 1.363 . S
C2824 H2827 0.929 . S
C2825 C2824 1.363 . S
C2825 C2831 1.428 . S
H2826 C2822 0.930 . S
H2827 C2824 0.929 . S
S2828 N2829 1.613 . S
S2828 N2830 1.610 . S
N2829 S2828 1.613 . S
N2829 C2832 1.350 . S
N2830 S2828 1.610 . S
N2830 C2831 1.351 . S
C2831 C2825 1.428 . S
C2831 N2830 1.351 . S
C2831 C2832 1.434 . S
C2832 C2823 1.429 . S
C2832 N2829 1.350 . S
C2832 C2831 1.434 . S
C2833 C2834 1.369 . S
C2833 C2835 1.419 . S
C2833 H2837 0.930 . S
C2834 C2833 1.369 . S
C2834 C2843 1.429 . S
C2835 C2833 1.419 . S
C2835 C2836 1.363 . S
C2835 H2838 0.929 . S
C2836 C2835 1.363 . S
C2836 C2842 1.428 . S
H2837 C2833 0.930 . S
H2838 C2835 0.929 . S
S2839 N2840 1.613 . S
S2839 N2841 1.610 . S
N2840 S2839 1.613 . S
N2840 C2843 1.350 . S
N2841 S2839 1.610 . S
N2841 C2842 1.351 . S
C2842 C2836 1.428 . S
C2842 N2841 1.351 . S
C2842 C2843 1.434 . S
C2843 C2834 1.429 . S
C2843 N2840 1.350 . S
C2843 C2842 1.434 . S
C2844 C2845 1.369 . S
C2844 C2846 1.419 . S
C2844 H2848 0.930 . S
C2845 C2844 1.369 . S
C2845 C2854 1.429 . S
C2846 C2844 1.419 . S
C2846 C2847 1.363 . S
C2846 H2849 0.929 . S
C2847 C2846 1.363 . S
C2847 C2853 1.428 . S
H2848 C2844 0.930 . S
H2849 C2846 0.929 . S
S2850 N2851 1.613 . S
S2850 N2852 1.610 . S
N2851 S2850 1.613 . S
N2851 C2854 1.350 . S
N2852 S2850 1.610 . S
N2852 C2853 1.351 . S
C2853 C2847 1.428 . S
C2853 N2852 1.351 . S
C2853 C2854 1.434 . S
C2854 C2845 1.429 . S
C2854 N2851 1.350 . S
C2854 C2853 1.434 . S
C2855 C2856 1.369 . S
C2855 C2857 1.419 . S
C2855 H2859 0.930 . S
C2856 C2855 1.369 . S
C2856 C2865 1.429 . S
C2857 C2855 1.419 . S
C2857 C2858 1.363 . S
C2857 H2860 0.929 . S
C2858 C2857 1.363 . S
C2858 C2864 1.428 . S
H2859 C2855 0.930 . S
H2860 C2857 0.929 . S
S2861 N2862 1.613 . S
S2861 N2863 1.610 . S
N2862 S2861 1.613 . S
N2862 C2865 1.350 . S
N2863 S2861 1.610 . S
N2863 C2864 1.351 . S
C2864 C2858 1.428 . S
C2864 N2863 1.351 . S
C2864 C2865 1.434 . S
C2865 C2856 1.429 . S
C2865 N2862 1.350 . S
C2865 C2864 1.434 . S
C2866 C2867 1.369 . S
C2866 C2868 1.419 . S
C2866 H2870 0.930 . S
C2867 C2866 1.369 . S
C2867 C2876 1.429 . S
C2868 C2866 1.419 . S
C2868 C2869 1.363 . S
C2868 H2871 0.929 . S
C2869 C2868 1.363 . S
C2869 C2875 1.428 . S
H2870 C2866 0.930 . S
H2871 C2868 0.929 . S
S2872 N2873 1.613 . S
S2872 N2874 1.610 . S
N2873 S2872 1.613 . S
N2873 C2876 1.350 . S
N2874 S2872 1.610 . S
N2874 C2875 1.351 . S
C2875 C2869 1.428 . S
C2875 N2874 1.351 . S
C2875 C2876 1.434 . S
C2876 C2867 1.429 . S
C2876 N2873 1.350 . S
C2876 C2875 1.434 . S
C2877 C2878 1.369 . S
C2877 C2879 1.419 . S
C2877 H2881 0.930 . S
C2878 C2877 1.369 . S
C2878 C2887 1.429 . S
C2879 C2877 1.419 . S
C2879 C2880 1.363 . S
C2879 H2882 0.929 . S
C2880 C2879 1.363 . S
C2880 C2886 1.428 . S
H2881 C2877 0.930 . S
H2882 C2879 0.929 . S
S2883 N2884 1.613 . S
S2883 N2885 1.610 . S
N2884 S2883 1.613 . S
N2884 C2887 1.350 . S
N2885 S2883 1.610 . S
N2885 C2886 1.351 . S
C2886 C2880 1.428 . S
C2886 N2885 1.351 . S
C2886 C2887 1.434 . S
C2887 C2878 1.429 . S
C2887 N2884 1.350 . S
C2887 C2886 1.434 . S
C2888 C2889 1.369 . S
C2888 C2890 1.419 . S
C2888 H2892 0.930 . S
C2889 C2888 1.369 . S
C2889 C2898 1.429 . S
C2890 C2888 1.419 . S
C2890 C2891 1.363 . S
C2890 H2893 0.929 . S
C2891 C2890 1.363 . S
C2891 C2897 1.428 . S
H2892 C2888 0.930 . S
H2893 C2890 0.929 . S
S2894 N2895 1.613 . S
S2894 N2896 1.610 . S
N2895 S2894 1.613 . S
N2895 C2898 1.350 . S
N2896 S2894 1.610 . S
N2896 C2897 1.351 . S
C2897 C2891 1.428 . S
C2897 N2896 1.351 . S
C2897 C2898 1.434 . S
C2898 C2889 1.429 . S
C2898 N2895 1.350 . S
C2898 C2897 1.434 . S
C2899 C2900 1.369 . S
C2899 C2901 1.419 . S
C2899 H2903 0.930 . S
C2900 C2899 1.369 . S
C2900 C2909 1.429 . S
C2901 C2899 1.419 . S
C2901 C2902 1.363 . S
C2901 H2904 0.929 . S
C2902 C2901 1.363 . S
C2902 C2908 1.428 . S
H2903 C2899 0.930 . S
H2904 C2901 0.929 . S
S2905 N2906 1.613 . S
S2905 N2907 1.610 . S
N2906 S2905 1.613 . S
N2906 C2909 1.350 . S
N2907 S2905 1.610 . S
N2907 C2908 1.351 . S
C2908 C2902 1.428 . S
C2908 N2907 1.351 . S
C2908 C2909 1.434 . S
C2909 C2900 1.429 . S
C2909 N2906 1.350 . S
C2909 C2908 1.434 . S
C2910 C2911 1.369 . S
C2910 C2912 1.419 . S
C2910 H2914 0.930 . S
C2911 C2910 1.369 . S
C2911 C2920 1.429 . S
C2912 C2910 1.419 . S
C2912 C2913 1.363 . S
C2912 H2915 0.929 . S
C2913 C2912 1.363 . S
C2913 C2919 1.428 . S
H2914 C2910 0.930 . S
H2915 C2912 0.929 . S
S2916 N2917 1.613 . S
S2916 N2918 1.610 . S
N2917 S2916 1.613 . S
N2917 C2920 1.350 . S
N2918 S2916 1.610 . S
N2918 C2919 1.351 . S
C2919 C2913 1.428 . S
C2919 N2918 1.351 . S
C2919 C2920 1.434 . S
C2920 C2911 1.429 . S
C2920 N2917 1.350 . S
C2920 C2919 1.434 . S
C2921 C2922 1.369 . S
C2921 C2923 1.419 . S
C2921 H2925 0.930 . S
C2922 C2921 1.369 . S
C2922 C2931 1.429 . S
C2923 C2921 1.419 . S
C2923 C2924 1.363 . S
C2923 H2926 0.929 . S
C2924 C2923 1.363 . S
C2924 C2930 1.428 . S
H2925 C2921 0.930 . S
H2926 C2923 0.929 . S
S2927 N2928 1.613 . S
S2927 N2929 1.610 . S
N2928 S2927 1.613 . S
N2928 C2931 1.350 . S
N2929 S2927 1.610 . S
N2929 C2930 1.351 . S
C2930 C2924 1.428 . S
C2930 N2929 1.351 . S
C2930 C2931 1.434 . S
C2931 C2922 1.429 . S
C2931 N2928 1.350 . S
C2931 C2930 1.434 . S
C2932 C2933 1.369 . S
C2932 C2934 1.419 . S
C2932 H2936 0.930 . S
C2933 C2932 1.369 . S
C2933 C2942 1.429 . S
C2934 C2932 1.419 . S
C2934 C2935 1.363 . S
C2934 H2937 0.929 . S
C2935 C2934 1.363 . S
C2935 C2941 1.428 . S
H2936 C2932 0.930 . S
H2937 C2934 0.929 . S
S2938 N2939 1.613 . S
S2938 N2940 1.610 . S
N2939 S2938 1.613 . S
N2939 C2942 1.350 . S
N2940 S2938 1.610 . S
N2940 C2941 1.351 . S
C2941 C2935 1.428 . S
C2941 N2940 1.351 . S
C2941 C2942 1.434 . S
C2942 C2933 1.429 . S
C2942 N2939 1.350 . S
C2942 C2941 1.434 . S
C2943 C2944 1.369 . S
C2943 C2945 1.419 . S
C2943 H2947 0.930 . S
C2944 C2943 1.369 . S
C2944 C2953 1.429 . S
C2945 C2943 1.419 . S
C2945 C2946 1.363 . S
C2945 H2948 0.929 . S
C2946 C2945 1.363 . S
C2946 C2952 1.428 . S
H2947 C2943 0.930 . S
H2948 C2945 0.929 . S
S2949 N2950 1.613 . S
S2949 N2951 1.610 . S
N2950 S2949 1.613 . S
N2950 C2953 1.350 . S
N2951 S2949 1.610 . S
N2951 C2952 1.351 . S
C2952 C2946 1.428 . S
C2952 N2951 1.351 . S
C2952 C2953 1.434 . S
C2953 C2944 1.429 . S
C2953 N2950 1.350 . S
C2953 C2952 1.434 . S
C2954 C2955 1.369 . S
C2954 C2956 1.419 . S
C2954 H2958 0.930 . S
C2955 C2954 1.369 . S
C2955 C2964 1.429 . S
C2956 C2954 1.419 . S
C2956 C2957 1.363 . S
C2956 H2959 0.929 . S
C2957 C2956 1.363 . S
C2957 C2963 1.428 . S
H2958 C2954 0.930 . S
H2959 C2956 0.929 . S
S2960 N2961 1.613 . S
S2960 N2962 1.610 . S
N2961 S2960 1.613 . S
N2961 C2964 1.350 . S
N2962 S2960 1.610 . S
N2962 C2963 1.351 . S
C2963 C2957 1.428 . S
C2963 N2962 1.351 . S
C2963 C2964 1.434 . S
C2964 C2955 1.429 . S
C2964 N2961 1.350 . S
C2964 C2963 1.434 . S
C2965 C2966 1.369 . S
C2965 C2967 1.419 . S
C2965 H2969 0.930 . S
C2966 C2965 1.369 . S
C2966 C2975 1.429 . S
C2967 C2965 1.419 . S
C2967 C2968 1.363 . S
C2967 H2970 0.929 . S
C2968 C2967 1.363 . S
C2968 C2974 1.428 . S
H2969 C2965 0.930 . S
H2970 C2967 0.929 . S
S2971 N2972 1.613 . S
S2971 N2973 1.610 . S
N2972 S2971 1.613 . S
N2972 C2975 1.350 . S
N2973 S2971 1.610 . S
N2973 C2974 1.351 . S
C2974 C2968 1.428 . S
C2974 N2973 1.351 . S
C2974 C2975 1.434 . S
C2975 C2966 1.429 . S
C2975 N2972 1.350 . S
C2975 C2974 1.434 . S
C2976 C2977 1.369 . S
C2976 C2978 1.419 . S
C2976 H2980 0.930 . S
C2977 C2976 1.369 . S
C2977 C2986 1.429 . S
C2978 C2976 1.419 . S
C2978 C2979 1.363 . S
C2978 H2981 0.929 . S
C2979 C2978 1.363 . S
C2979 C2985 1.428 . S
H2980 C2976 0.930 . S
H2981 C2978 0.929 . S
S2982 N2983 1.613 . S
S2982 N2984 1.610 . S
N2983 S2982 1.613 . S
N2983 C2986 1.350 . S
N2984 S2982 1.610 . S
N2984 C2985 1.351 . S
C2985 C2979 1.428 . S
C2985 N2984 1.351 . S
C2985 C2986 1.434 . S
C2986 C2977 1.429 . S
C2986 N2983 1.350 . S
C2986 C2985 1.434 . S
C2987 C2988 1.369 . S
C2987 C2989 1.419 . S
C2987 H2991 0.930 . S
C2988 C2987 1.369 . S
C2988 C2997 1.429 . S
C2989 C2987 1.419 . S
C2989 C2990 1.363 . S
C2989 H2992 0.929 . S
C2990 C2989 1.363 . S
C2990 C2996 1.428 . S
H2991 C2987 0.930 . S
H2992 C2989 0.929 . S
S2993 N2994 1.613 . S
S2993 N2995 1.610 . S
N2994 S2993 1.613 . S
N2994 C2997 1.350 . S
N2995 S2993 1.610 . S
N2995 C2996 1.351 . S
C2996 C2990 1.428 . S
C2996 N2995 1.351 . S
C2996 C2997 1.434 . S
C2997 C2988 1.429 . S
C2997 N2994 1.350 . S
C2997 C2996 1.434 . S
C2998 C2999 1.369 . S
C2998 C3000 1.419 . S
C2998 H3002 0.930 . S
C2999 C2998 1.369 . S
C2999 C3008 1.429 . S
C3000 C2998 1.419 . S
C3000 C3001 1.363 . S
C3000 H3003 0.929 . S
C3001 C3000 1.363 . S
C3001 C3007 1.428 . S
H3002 C2998 0.930 . S
H3003 C3000 0.929 . S
S3004 N3005 1.613 . S
S3004 N3006 1.610 . S
N3005 S3004 1.613 . S
N3005 C3008 1.350 . S
N3006 S3004 1.610 . S
N3006 C3007 1.351 . S
C3007 C3001 1.428 . S
C3007 N3006 1.351 . S
C3007 C3008 1.434 . S
C3008 C2999 1.429 . S
C3008 N3005 1.350 . S
C3008 C3007 1.434 . S
C3009 C3010 1.369 . S
C3009 C3011 1.419 . S
C3009 H3013 0.930 . S
C3010 C3009 1.369 . S
C3010 C3019 1.429 . S
C3011 C3009 1.419 . S
C3011 C3012 1.363 . S
C3011 H3014 0.929 . S
C3012 C3011 1.363 . S
C3012 C3018 1.428 . S
H3013 C3009 0.930 . S
H3014 C3011 0.929 . S
S3015 N3016 1.613 . S
S3015 N3017 1.610 . S
N3016 S3015 1.613 . S
N3016 C3019 1.350 . S
N3017 S3015 1.610 . S
N3017 C3018 1.351 . S
C3018 C3012 1.428 . S
C3018 N3017 1.351 . S
C3018 C3019 1.434 . S
C3019 C3010 1.429 . S
C3019 N3016 1.350 . S
C3019 C3018 1.434 . S
C3020 C3021 1.369 . S
C3020 C3022 1.419 . S
C3020 H3024 0.930 . S
C3021 C3020 1.369 . S
C3021 C3030 1.429 . S
C3022 C3020 1.419 . S
C3022 C3023 1.363 . S
C3022 H3025 0.929 . S
C3023 C3022 1.363 . S
C3023 C3029 1.428 . S
H3024 C3020 0.930 . S
H3025 C3022 0.929 . S
S3026 N3027 1.613 . S
S3026 N3028 1.610 . S
N3027 S3026 1.613 . S
N3027 C3030 1.350 . S
N3028 S3026 1.610 . S
N3028 C3029 1.351 . S
C3029 C3023 1.428 . S
C3029 N3028 1.351 . S
C3029 C3030 1.434 . S
C3030 C3021 1.429 . S
C3030 N3027 1.350 . S
C3030 C3029 1.434 . S
C3031 C3032 1.369 . S
C3031 C3033 1.419 . S
C3031 H3035 0.930 . S
C3032 C3031 1.369 . S
C3032 C3041 1.429 . S
C3033 C3031 1.419 . S
C3033 C3034 1.363 . S
C3033 H3036 0.929 . S
C3034 C3033 1.363 . S
C3034 C3040 1.428 . S
H3035 C3031 0.930 . S
H3036 C3033 0.929 . S
S3037 N3038 1.613 . S
S3037 N3039 1.610 . S
N3038 S3037 1.613 . S
N3038 C3041 1.350 . S
N3039 S3037 1.610 . S
N3039 C3040 1.351 . S
C3040 C3034 1.428 . S
C3040 N3039 1.351 . S
C3040 C3041 1.434 . S
C3041 C3032 1.429 . S
C3041 N3038 1.350 . S
C3041 C3040 1.434 . S
C3042 C3043 1.369 . S
C3042 C3044 1.419 . S
C3042 H3046 0.930 . S
C3043 C3042 1.369 . S
C3043 C3052 1.429 . S
C3044 C3042 1.419 . S
C3044 C3045 1.363 . S
C3044 H3047 0.929 . S
C3045 C3044 1.363 . S
C3045 C3051 1.428 . S
H3046 C3042 0.930 . S
H3047 C3044 0.929 . S
S3048 N3049 1.613 . S
S3048 N3050 1.610 . S
N3049 S3048 1.613 . S
N3049 C3052 1.350 . S
N3050 S3048 1.610 . S
N3050 C3051 1.351 . S
C3051 C3045 1.428 . S
C3051 N3050 1.351 . S
C3051 C3052 1.434 . S
C3052 C3043 1.429 . S
C3052 N3049 1.350 . S
C3052 C3051 1.434 . S
C3053 C3054 1.369 . S
C3053 C3055 1.419 . S
C3053 H3057 0.930 . S
C3054 C3053 1.369 . S
C3054 C3063 1.429 . S
C3055 C3053 1.419 . S
C3055 C3056 1.363 . S
C3055 H3058 0.929 . S
C3056 C3055 1.363 . S
C3056 C3062 1.428 . S
H3057 C3053 0.930 . S
H3058 C3055 0.929 . S
S3059 N3060 1.613 . S
S3059 N3061 1.610 . S
N3060 S3059 1.613 . S
N3060 C3063 1.350 . S
N3061 S3059 1.610 . S
N3061 C3062 1.351 . S
C3062 C3056 1.428 . S
C3062 N3061 1.351 . S
C3062 C3063 1.434 . S
C3063 C3054 1.429 . S
C3063 N3060 1.350 . S
C3063 C3062 1.434 . S
C3064 C3065 1.369 . S
C3064 C3066 1.419 . S
C3064 H3068 0.930 . S
C3065 C3064 1.369 . S
C3065 C3074 1.429 . S
C3066 C3064 1.419 . S
C3066 C3067 1.363 . S
C3066 H3069 0.929 . S
C3067 C3066 1.363 . S
C3067 C3073 1.428 . S
H3068 C3064 0.930 . S
H3069 C3066 0.929 . S
S3070 N3071 1.613 . S
S3070 N3072 1.610 . S
N3071 S3070 1.613 . S
N3071 C3074 1.350 . S
N3072 S3070 1.610 . S
N3072 C3073 1.351 . S
C3073 C3067 1.428 . S
C3073 N3072 1.351 . S
C3073 C3074 1.434 . S
C3074 C3065 1.429 . S
C3074 N3071 1.350 . S
C3074 C3073 1.434 . S
C3075 C3076 1.369 . S
C3075 C3077 1.419 . S
C3075 H3079 0.930 . S
C3076 C3075 1.369 . S
C3076 C3085 1.429 . S
C3077 C3075 1.419 . S
C3077 C3078 1.363 . S
C3077 H3080 0.929 . S
C3078 C3077 1.363 . S
C3078 C3084 1.428 . S
H3079 C3075 0.930 . S
H3080 C3077 0.929 . S
S3081 N3082 1.613 . S
S3081 N3083 1.610 . S
N3082 S3081 1.613 . S
N3082 C3085 1.350 . S
N3083 S3081 1.610 . S
N3083 C3084 1.351 . S
C3084 C3078 1.428 . S
C3084 N3083 1.351 . S
C3084 C3085 1.434 . S
C3085 C3076 1.429 . S
C3085 N3082 1.350 . S
C3085 C3084 1.434 . S
C3086 C3087 1.369 . S
C3086 C3088 1.419 . S
C3086 H3090 0.930 . S
C3087 C3086 1.369 . S
C3087 C3096 1.429 . S
C3088 C3086 1.419 . S
C3088 C3089 1.363 . S
C3088 H3091 0.929 . S
C3089 C3088 1.363 . S
C3089 C3095 1.428 . S
H3090 C3086 0.930 . S
H3091 C3088 0.929 . S
S3092 N3093 1.613 . S
S3092 N3094 1.610 . S
N3093 S3092 1.613 . S
N3093 C3096 1.350 . S
N3094 S3092 1.610 . S
N3094 C3095 1.351 . S
C3095 C3089 1.428 . S
C3095 N3094 1.351 . S
C3095 C3096 1.434 . S
C3096 C3087 1.429 . S
C3096 N3093 1.350 . S
C3096 C3095 1.434 . S
C3097 C3098 1.369 . S
C3097 C3099 1.419 . S
C3097 H3101 0.930 . S
C3098 C3097 1.369 . S
C3098 C3107 1.429 . S
C3099 C3097 1.419 . S
C3099 C3100 1.363 . S
C3099 H3102 0.929 . S
C3100 C3099 1.363 . S
C3100 C3106 1.428 . S
H3101 C3097 0.930 . S
H3102 C3099 0.929 . S
S3103 N3104 1.613 . S
S3103 N3105 1.610 . S
N3104 S3103 1.613 . S
N3104 C3107 1.350 . S
N3105 S3103 1.610 . S
N3105 C3106 1.351 . S
C3106 C3100 1.428 . S
C3106 N3105 1.351 . S
C3106 C3107 1.434 . S
C3107 C3098 1.429 . S
C3107 N3104 1.350 . S
C3107 C3106 1.434 . S
C3108 C3109 1.369 . S
C3108 C3110 1.419 . S
C3108 H3112 0.930 . S
C3109 C3108 1.369 . S
C3109 C3118 1.429 . S
C3110 C3108 1.419 . S
C3110 C3111 1.363 . S
C3110 H3113 0.929 . S
C3111 C3110 1.363 . S
C3111 C3117 1.428 . S
H3112 C3108 0.930 . S
H3113 C3110 0.929 . S
S3114 N3115 1.613 . S
S3114 N3116 1.610 . S
N3115 S3114 1.613 . S
N3115 C3118 1.350 . S
N3116 S3114 1.610 . S
N3116 C3117 1.351 . S
C3117 C3111 1.428 . S
C3117 N3116 1.351 . S
C3117 C3118 1.434 . S
C3118 C3109 1.429 . S
C3118 N3115 1.350 . S
C3118 C3117 1.434 . S
C3119 C3120 1.369 . S
C3119 C3121 1.419 . S
C3119 H3123 0.930 . S
C3120 C3119 1.369 . S
C3120 C3129 1.429 . S
C3121 C3119 1.419 . S
C3121 C3122 1.363 . S
C3121 H3124 0.929 . S
C3122 C3121 1.363 . S
C3122 C3128 1.428 . S
H3123 C3119 0.930 . S
H3124 C3121 0.929 . S
S3125 N3126 1.613 . S
S3125 N3127 1.610 . S
N3126 S3125 1.613 . S
N3126 C3129 1.350 . S
N3127 S3125 1.610 . S
N3127 C3128 1.351 . S
C3128 C3122 1.428 . S
C3128 N3127 1.351 . S
C3128 C3129 1.434 . S
C3129 C3120 1.429 . S
C3129 N3126 1.350 . S
C3129 C3128 1.434 . S
C3130 C3131 1.369 . S
C3130 C3132 1.419 . S
C3130 H3134 0.930 . S
C3131 C3130 1.369 . S
C3131 C3140 1.429 . S
C3132 C3130 1.419 . S
C3132 C3133 1.363 . S
C3132 H3135 0.929 . S
C3133 C3132 1.363 . S
C3133 C3139 1.428 . S
H3134 C3130 0.930 . S
H3135 C3132 0.929 . S
S3136 N3137 1.613 . S
S3136 N3138 1.610 . S
N3137 S3136 1.613 . S
N3137 C3140 1.350 . S
N3138 S3136 1.610 . S
N3138 C3139 1.351 . S
C3139 C3133 1.428 . S
C3139 N3138 1.351 . S
C3139 C3140 1.434 . S
C3140 C3131 1.429 . S
C3140 N3137 1.350 . S
C3140 C3139 1.434 . S
C3141 C3142 1.369 . S
C3141 C3143 1.419 . S
C3141 H3145 0.930 . S
C3142 C3141 1.369 . S
C3142 C3151 1.429 . S
C3143 C3141 1.419 . S
C3143 C3144 1.363 . S
C3143 H3146 0.929 . S
C3144 C3143 1.363 . S
C3144 C3150 1.428 . S
H3145 C3141 0.930 . S
H3146 C3143 0.929 . S
S3147 N3148 1.613 . S
S3147 N3149 1.610 . S
N3148 S3147 1.613 . S
N3148 C3151 1.350 . S
N3149 S3147 1.610 . S
N3149 C3150 1.351 . S
C3150 C3144 1.428 . S
C3150 N3149 1.351 . S
C3150 C3151 1.434 . S
C3151 C3142 1.429 . S
C3151 N3148 1.350 . S
C3151 C3150 1.434 . S
C3152 C3153 1.369 . S
C3152 C3154 1.419 . S
C3152 H3156 0.930 . S
C3153 C3152 1.369 . S
C3153 C3162 1.429 . S
C3154 C3152 1.419 . S
C3154 C3155 1.363 . S
C3154 H3157 0.929 . S
C3155 C3154 1.363 . S
C3155 C3161 1.428 . S
H3156 C3152 0.930 . S
H3157 C3154 0.929 . S
S3158 N3159 1.613 . S
S3158 N3160 1.610 . S
N3159 S3158 1.613 . S
N3159 C3162 1.350 . S
N3160 S3158 1.610 . S
N3160 C3161 1.351 . S
C3161 C3155 1.428 . S
C3161 N3160 1.351 . S
C3161 C3162 1.434 . S
C3162 C3153 1.429 . S
C3162 N3159 1.350 . S
C3162 C3161 1.434 . S
C3163 C3164 1.369 . S
C3163 C3165 1.419 . S
C3163 H3167 0.930 . S
C3164 C3163 1.369 . S
C3164 C3173 1.429 . S
C3165 C3163 1.419 . S
C3165 C3166 1.363 . S
C3165 H3168 0.929 . S
C3166 C3165 1.363 . S
C3166 C3172 1.428 . S
H3167 C3163 0.930 . S
H3168 C3165 0.929 . S
S3169 N3170 1.613 . S
S3169 N3171 1.610 . S
N3170 S3169 1.613 . S
N3170 C3173 1.350 . S
N3171 S3169 1.610 . S
N3171 C3172 1.351 . S
C3172 C3166 1.428 . S
C3172 N3171 1.351 . S
C3172 C3173 1.434 . S
C3173 C3164 1.429 . S
C3173 N3170 1.350 . S
C3173 C3172 1.434 . S
C3174 C3175 1.369 . S
C3174 C3176 1.419 . S
C3174 H3178 0.930 . S
C3175 C3174 1.369 . S
C3175 C3184 1.429 . S
C3176 C3174 1.419 . S
C3176 C3177 1.363 . S
C3176 H3179 0.929 . S
C3177 C3176 1.363 . S
C3177 C3183 1.428 . S
H3178 C3174 0.930 . S
H3179 C3176 0.929 . S
S3180 N3181 1.613 . S
S3180 N3182 1.610 . S
N3181 S3180 1.613 . S
N3181 C3184 1.350 . S
N3182 S3180 1.610 . S
N3182 C3183 1.351 . S
C3183 C3177 1.428 . S
C3183 N3182 1.351 . S
C3183 C3184 1.434 . S
C3184 C3175 1.429 . S
C3184 N3181 1.350 . S
C3184 C3183 1.434 . S
C3185 C3186 1.369 . S
C3185 C3187 1.419 . S
C3185 H3189 0.930 . S
C3186 C3185 1.369 . S
C3186 C3195 1.429 . S
C3187 C3185 1.419 . S
C3187 C3188 1.363 . S
C3187 H3190 0.929 . S
C3188 C3187 1.363 . S
C3188 C3194 1.428 . S
H3189 C3185 0.930 . S
H3190 C3187 0.929 . S
S3191 N3192 1.613 . S
S3191 N3193 1.610 . S
N3192 S3191 1.613 . S
N3192 C3195 1.350 . S
N3193 S3191 1.610 . S
N3193 C3194 1.351 . S
C3194 C3188 1.428 . S
C3194 N3193 1.351 . S
C3194 C3195 1.434 . S
C3195 C3186 1.429 . S
C3195 N3192 1.350 . S
C3195 C3194 1.434 . S
C3196 C3197 1.369 . S
C3196 C3198 1.419 . S
C3196 H3200 0.930 . S
C3197 C3196 1.369 . S
C3197 C3206 1.429 . S
C3198 C3196 1.419 . S
C3198 C3199 1.363 . S
C3198 H3201 0.929 . S
C3199 C3198 1.363 . S
C3199 C3205 1.428 . S
H3200 C3196 0.930 . S
H3201 C3198 0.929 . S
S3202 N3203 1.613 . S
S3202 N3204 1.610 . S
N3203 S3202 1.613 . S
N3203 C3206 1.350 . S
N3204 S3202 1.610 . S
N3204 C3205 1.351 . S
C3205 C3199 1.428 . S
C3205 N3204 1.351 . S
C3205 C3206 1.434 . S
C3206 C3197 1.429 . S
C3206 N3203 1.350 . S
C3206 C3205 1.434 . S
C3207 C3208 1.369 . S
C3207 C3209 1.419 . S
C3207 H3211 0.930 . S
C3208 C3207 1.369 . S
C3208 C3217 1.429 . S
C3209 C3207 1.419 . S
C3209 C3210 1.363 . S
C3209 H3212 0.929 . S
C3210 C3209 1.363 . S
C3210 C3216 1.428 . S
H3211 C3207 0.930 . S
H3212 C3209 0.929 . S
S3213 N3214 1.613 . S
S3213 N3215 1.610 . S
N3214 S3213 1.613 . S
N3214 C3217 1.350 . S
N3215 S3213 1.610 . S
N3215 C3216 1.351 . S
C3216 C3210 1.428 . S
C3216 N3215 1.351 . S
C3216 C3217 1.434 . S
C3217 C3208 1.429 . S
C3217 N3214 1.350 . S
C3217 C3216 1.434 . S
C3218 C3219 1.369 . S
C3218 C3220 1.419 . S
C3218 H3222 0.930 . S
C3219 C3218 1.369 . S
C3219 C3228 1.429 . S
C3220 C3218 1.419 . S
C3220 C3221 1.363 . S
C3220 H3223 0.929 . S
C3221 C3220 1.363 . S
C3221 C3227 1.428 . S
H3222 C3218 0.930 . S
H3223 C3220 0.929 . S
S3224 N3225 1.613 . S
S3224 N3226 1.610 . S
N3225 S3224 1.613 . S
N3225 C3228 1.350 . S
N3226 S3224 1.610 . S
N3226 C3227 1.351 . S
C3227 C3221 1.428 . S
C3227 N3226 1.351 . S
C3227 C3228 1.434 . S
C3228 C3219 1.429 . S
C3228 N3225 1.350 . S
C3228 C3227 1.434 . S
C3229 C3230 1.369 . S
C3229 C3231 1.419 . S
C3229 H3233 0.930 . S
C3230 C3229 1.369 . S
C3230 C3239 1.429 . S
C3231 C3229 1.419 . S
C3231 C3232 1.363 . S
C3231 H3234 0.929 . S
C3232 C3231 1.363 . S
C3232 C3238 1.428 . S
H3233 C3229 0.930 . S
H3234 C3231 0.929 . S
S3235 N3236 1.613 . S
S3235 N3237 1.610 . S
N3236 S3235 1.613 . S
N3236 C3239 1.350 . S
N3237 S3235 1.610 . S
N3237 C3238 1.351 . S
C3238 C3232 1.428 . S
C3238 N3237 1.351 . S
C3238 C3239 1.434 . S
C3239 C3230 1.429 . S
C3239 N3236 1.350 . S
C3239 C3238 1.434 . S
C1393 C5 2.237 . S
C1395 C208 2.235 . S
C1404 C34 2.244 . S
C1406 C121 2.237 . S
C1415 C150 2.240 . S
C1417 C63 2.234 . S
C1426 C92 2.238 . S
C1428 C179 2.243 . S
C1437 C237 2.244 . S
C1439 C585 2.239 . S
C1448 C266 2.236 . S
C1450 C498 2.243 . S
C1459 C527 2.237 . S
C1461 C295 2.243 . S
C1470 C556 2.233 . S
C1472 C324 2.240 . S
C1481 C672 2.241 . S
C1483 C353 2.242 . S
C1492 C614 2.242 . S
C1494 C382 2.235 . S
C1503 C411 2.240 . S
C1505 C643 2.234 . S
C1514 C440 2.234 . S
C1516 C469 2.236 . S
C1525 C701 2.244 . S
C1527 C904 2.238 . S
C1536 C817 2.234 . S
C1538 C730 2.241 . S
C1547 C846 2.233 . S
C1549 C759 2.240 . S
C1558 C788 2.244 . S
C1560 C875 2.240 . S
C1569 C933 2.239 . S
C1571 C1281 2.234 . S
C1580 C1194 2.235 . S
C1582 C962 2.235 . S
C1591 C1223 2.235 . S
C1593 C991 2.235 . S
C1602 C1252 2.242 . S
C1604 C1020 2.242 . S
C1613 C1049 2.234 . S
C1615 C1368 2.236 . S
C1624 C1078 2.233 . S
C1626 C1310 2.237 . S
C1635 C1107 2.244 . S
C1637 C1339 2.240 . S
C1646 C1136 2.240 . S
C1648 C1165 2.243 . S
C1657 C13 1.474 . S
C1659 C670 1.642 . S
C1668 C612 1.641 . S
C1670 C42 1.483 . S
C1679 C641 1.643 . S
C1681 C71 1.482 . S
C1690 C467 1.642 . S
C1692 C100 1.475 . S
C1701 C129 1.477 . S
C1703 C583 1.641 . S
C1712 C496 1.643 . S
C1714 C158 1.480 . S
C1723 C187 1.477 . S
C1725 C525 1.641 . S
C1734 C216 1.487 . S
C1736 C554 1.642 . S
C1745 C322 1.643 . S
C1747 C245 1.485 . S
C1756 C235 1.641 . S
C1758 C274 1.475 . S
C1767 C303 1.487 . S
C1769 C264 1.642 . S
C1778 C293 1.643 . S
C1780 C332 1.477 . S
C1789 C380 1.642 . S
C1791 C361 1.485 . S
C1800 C390 1.481 . S
C1802 C409 1.641 . S
C1811 C438 1.643 . S
C1813 C419 1.484 . S
C1822 C351 1.640 . S
C1824 C448 1.478 . S
C1833 C477 1.483 . S
C1835 C148 1.641 . S
C1844 C506 1.473 . S
C1846 C90 1.641 . S
C1855 C3 1.641 . S
C1857 C535 1.475 . S
C1866 C564 1.484 . S
C1868 C32 1.641 . S
C1877 C61 1.643 . S
C1879 C593 1.484 . S
C1888 C206 1.641 . S
C1890 C622 1.484 . S
C1899 C651 1.474 . S
C1901 C119 1.641 . S
C1910 C680 1.473 . S
C1912 C177 1.642 . S
C1921 C709 1.484 . S
C1923 C1366 1.641 . S
C1932 C738 1.485 . S
C1934 C1308 1.643 . S
C1943 C767 1.477 . S
C1945 C1337 1.643 . S
C1954 C796 1.487 . S
C1956 C1163 1.642 . S
C1965 C825 1.474 . S
C1967 C1279 1.641 . S
C1976 C854 1.476 . S
C1978 C1192 1.643 . S
C1987 C883 1.476 . S
C1989 C1221 1.643 . S
C1998 C912 1.474 . S
C2000 C1250 1.641 . S
C2009 C941 1.487 . S
C2011 C1018 1.642 . S
C2020 C931 1.642 . S
C2022 C970 1.475 . S
C2031 C999 1.480 . S
C2033 C960 1.641 . S
C2042 C1028 1.473 . S
C2044 C989 1.642 . S
C2053 C1057 1.473 . S
C2055 C1076 1.642 . S
C2064 C1105 1.643 . S
C2066 C1086 1.478 . S
C2075 C1134 1.642 . S
C2077 C1115 1.475 . S
C2086 C1047 1.643 . S
C2088 C1144 1.482 . S
C2097 C844 1.641 . S
C2099 C1173 1.485 . S
C2108 C786 1.643 . S
C2110 C1202 1.483 . S
C2119 C699 1.643 . S
C2121 C1231 1.478 . S
C2130 C728 1.643 . S
C2132 C1260 1.484 . S
C2141 C1289 1.485 . S
C2143 C757 1.643 . S
C2152 C1318 1.476 . S
C2154 C902 1.641 . S
C2163 C1347 1.476 . S
C2165 C815 1.643 . S
C2174 C873 1.641 . S
C2176 C1376 1.484 . S
C2185 C1025 2.302 . S
C2187 C21 1.985 1_655 S
C2196 C938 2.303 . S
C2198 C50 1.990 1_565 S
C2207 C79 1.989 . S
C2209 C967 2.303 . S
C2218 C108 1.989 . S
C2220 C996 2.303 . S
C2229 C1083 2.302 . S
C2231 C137 1.982 1_655 S
C2240 C166 1.981 1_565 S
C2242 C1112 2.302 . S
C2251 C1141 2.303 . S
C2253 C195 1.990 . S
C2262 C224 1.992 . S
C2264 C1054 2.303 . S
C2273 C253 1.982 1_565 S
C2275 C851 2.303 . S
C2284 C282 1.980 . S
C2286 C880 2.303 . S
C2295 C909 2.303 . S
C2297 C311 1.987 . S
C2306 C340 1.988 1_655 S
C2308 C822 2.303 . S
C2317 C369 1.989 . S
C2319 C793 2.303 . S
C2328 C398 1.988 1_655 S
C2330 C706 2.303 . S
C2339 C735 2.303 . S
C2341 C427 1.987 1_565 S
C2350 C764 2.302 . S
C2352 C456 1.985 . S
C2361 C1373 2.302 . S
C2363 C485 1.987 1_556 S
C2372 C514 1.984 . S
C2374 C1286 2.303 . S
C2383 C1199 2.303 . S
C2385 C543 1.986 . S
C2394 C572 1.989 . S
C2396 C1228 2.303 . S
C2405 C601 1.991 . S
C2407 C1257 2.303 . S
C2416 C1344 2.302 . S
C2418 C630 1.988 1_556 S
C2427 C1170 2.302 . S
C2429 C659 1.988 1_556 S
C2438 C1315 2.303 . S
C2440 C688 1.981 1_556 S
C2449 C329 2.302 . S
C2451 C717 1.981 1_455 S
C2460 C242 2.302 . S
C2462 C746 1.982 1_545 S
C2471 C271 2.303 . S
C2473 C775 1.981 . S
C2482 C804 1.983 . S
C2484 C300 2.303 . S
C2493 C833 1.989 1_455 S
C2495 C387 2.303 . S
C2504 C862 1.982 1_545 S
C2506 C416 2.303 . S
C2515 C891 1.992 . S
C2517 C445 2.303 . S
C2526 C920 1.985 . S
C2528 C358 2.303 . S
C2537 C155 2.302 . S
C2539 C949 1.982 1_545 S
C2548 C184 2.302 . S
C2550 C978 1.988 . S
C2559 C1007 1.980 . S
C2561 C213 2.303 . S
C2570 C126 2.303 . S
C2572 C1036 1.982 1_455 S
C2581 C97 2.303 . S
C2583 C1065 1.990 . S
C2592 C10 2.303 . S
C2594 C1094 1.981 1_455 S
C2603 C1123 1.987 1_545 S
C2605 C39 2.302 . S
C2614 C68 2.303 . S
C2616 C1152 1.987 . S
C2625 C1181 1.989 1_554 S
C2627 C677 2.303 . S
C2636 C1210 1.986 . S
C2638 C590 2.302 . S
C2647 C1239 1.983 . S
C2649 C503 2.303 . S
C2658 C532 2.302 . S
C2660 C1268 1.981 . S
C2669 C561 2.303 . S
C2671 C1297 1.981 . S
C2680 C1326 1.987 1_554 S
C2682 C648 2.303 . S
C2691 C1355 1.992 1_554 S
C2693 C474 2.303 . S
C2702 C619 2.302 . S
C2704 C1384 1.986 1_554 S
C2713 C1313 1.179 . S
C2715 C15 1.154 . S
C2724 C44 1.156 . S
C2726 C1342 1.179 . S
C2735 C1168 1.178 . S
C2737 C73 1.155 . S
C2746 C102 1.163 . S
C2748 C1371 1.183 . S
C2757 C1255 1.185 . S
C2759 C131 1.160 . S
C2768 C160 1.153 . S
C2770 C1284 1.179 . S
C2779 C189 1.152 . S
C2781 C1197 1.180 . S
C2790 C1226 1.182 . S
C2792 C218 1.156 . S
C2801 C820 1.178 . S
C2803 C247 1.157 . S
C2812 C849 1.183 . S
C2814 C276 1.162 . S
C2823 C878 1.185 . S
C2825 C305 1.162 . S
C2834 C907 1.178 . S
C2836 C334 1.153 . S
C2845 C704 1.178 . S
C2847 C363 1.154 . S
C2856 C392 1.159 . S
C2858 C733 1.180 . S
C2867 C762 1.179 . S
C2869 C421 1.157 . S
C2878 C791 1.178 . S
C2880 C450 1.155 . S
C2889 C479 1.155 . S
C2891 C1110 1.179 . S
C2900 C994 1.184 . S
C2902 C508 1.162 . S
C2911 C537 1.162 . S
C2913 C1023 1.184 . S
C2922 C936 1.184 . S
C2924 C566 1.162 . S
C2933 C965 1.181 . S
C2935 C595 1.160 . S
C2944 C624 1.161 . S
C2946 C1052 1.181 . S
C2955 C1081 1.181 . S
C2957 C653 1.160 . S
C2966 C682 1.163 . S
C2968 C1139 1.184 . S
C2977 C711 1.153 . S
C2979 C617 1.179 . S
C2988 C646 1.185 . S
C2990 C740 1.161 . S
C2999 C769 1.154 . S
C3001 C472 1.179 . S
C3010 C675 1.181 . S
C3012 C798 1.155 . S
C3021 C559 1.185 . S
C3023 C827 1.161 . S
C3032 C588 1.185 . S
C3034 C856 1.162 . S
C3043 C501 1.185 . S
C3045 C885 1.162 . S
C3054 C530 1.182 . S
C3056 C914 1.156 . S
C3065 C124 1.184 . S
C3067 C943 1.160 . S
C3076 C153 1.182 . S
C3078 C972 1.161 . S
C3087 C182 1.182 . S
C3089 C1001 1.156 . S
C3098 C1030 1.153 . S
C3100 C211 1.179 . S
C3109 C1059 1.161 . S
C3111 C8 1.181 . S
C3120 C1088 1.163 . S
C3122 C37 1.184 . S
C3131 C66 1.181 . S
C3133 C1117 1.160 . S
C3142 C1146 1.163 . S
C3144 C95 1.184 . S
C3153 C1175 1.153 . S
C3155 C414 1.180 . S
C3164 C1204 1.155 . S
C3166 C298 1.181 . S
C3175 C1233 1.153 . S
C3177 C327 1.179 . S
C3186 C1262 1.152 . S
C3188 C240 1.179 . S
C3197 C1291 1.163 . S
C3199 C269 1.183 . S
C3208 C1320 1.162 . S
C3210 C356 1.184 . S
C3219 C385 1.184 . S
C3221 C1349 1.160 . S
C3230 C1378 1.152 . S
C3232 C443 1.179 . S
