# Generated by pormake.
# Topology rob, (6)-cn, num edge types: 1
# Building blocks:
#     Node 0, Type 0, BuildingBlock: KUMJIN_clean_sbu_1, # of connection points: 6
#     Node 1, Type 0, BuildingBlock: KUMJIN_clean_sbu_1, # of connection points: 6
#     Node 2, Type 0, BuildingBlock: KUMJIN_clean_sbu_1, # of connection points: 6
#     Node 3, Type 0, BuildingBlock: KUMJIN_clean_sbu_1, # of connection points: 6
#     Edge 4, Type (0, 0), BuildingBlock: FUNLAD_clean_linker_0, # of connection points: 2
#     Edge 5, Type (0, 0), BuildingBlock: FUNLAD_clean_linker_0, # of connection points: 2
#     Edge 6, Type (0, 0), BuildingBlock: FUNLAD_clean_linker_0, # of connection points: 2
#     Edge 7, Type (0, 0), BuildingBlock: FUNLAD_clean_linker_0, # of connection points: 2
#     Edge 8, Type (0, 0), BuildingBlock: FUNLAD_clean_linker_0, # of connection points: 2
#     Edge 9, Type (0, 0), BuildingBlock: FUNLAD_clean_linker_0, # of connection points: 2
#     Edge 10, Type (0, 0), BuildingBlock: FUNLAD_clean_linker_0, # of connection points: 2
#     Edge 11, Type (0, 0), BuildingBlock: FUNLAD_clean_linker_0, # of connection points: 2
#     Edge 12, Type (0, 0), BuildingBlock: FUNLAD_clean_linker_0, # of connection points: 2
#     Edge 13, Type (0, 0), BuildingBlock: FUNLAD_clean_linker_0, # of connection points: 2
#     Edge 14, Type (0, 0), BuildingBlock: FUNLAD_clean_linker_0, # of connection points: 2
#     Edge 15, Type (0, 0), BuildingBlock: FUNLAD_clean_linker_0, # of connection points: 2
# Relax obj value: 0.018
# Max RMSD: 0.103
# Mean RMSD: 0.103
data_MOF--net-rob--node1-KUMJIN_clean_sbu_1--edge1-FUNLAD_clean_linker_0
_symmetry_space_group_name_H-M    P1
_symmetry_Int_Tables_number       1
_symmetry_cell_setting            triclinic
loop_
_symmetry_equiv_pos_as_xyz
'x, y, z'
_cell_length_a     21.328955
_cell_length_b     27.598143
_cell_length_c     38.458023
_cell_angle_alpha  109.3016
_cell_angle_beta   90.395158
_cell_angle_gamma 89.938353
loop_
_atom_site_label
_atom_site_type_symbol
_atom_site_fract_x
_atom_site_fract_y
_atom_site_fract_z
_atom_type_partial_charge
Eu0 Eu 0.30036 0.19666 0.96764 0.0
C1 C 0.09616 0.36072 0.01911 0.0
N2 N 0.15574 0.36487 0.03265 0.0
C3 C 0.16485 0.44937 0.02862 0.0
C4 C 0.06919 0.40068 0.0088 0.0
C5 C 0.18999 0.40852 0.03805 0.0
C6 C 0.10433 0.44535 0.01374 0.0
C7 C 1.00083 0.31061 1.00082 0.0
C8 C 0.06277 0.31576 0.01476 0.0
C9 C 0.97441 0.34979 0.98967 0.0
C10 C 0.00849 0.39465 0.99363 0.0
Eu11 Eu 0.19437 0.29427 0.04784 0.0
N12 N 0.08968 0.2781 0.0255 0.0
C13 C 0.96647 0.26693 0.99958 0.0
C14 C 0.05389 0.23839 0.02797 0.0
C15 C 0.99266 0.23125 0.01401 0.0
H16 H 0.2368 0.41156 0.0495 0.0
H17 H 0.96522 0.19888 0.0152 0.0
H18 H 0.23415 0.0802 0.94243 0.0
H19 H 0.53368 0.25873 0.02558 0.0
H20 H 0.0712 0.21296 0.04183 0.0
H21 H 0.91876 0.26159 0.98913 0.0
H22 H 0.43084 0.26828 0.99952 0.0
H23 H 0.19223 0.48382 0.03268 0.0
H24 H 0.92716 0.34617 0.97856 0.0
H25 H 0.98724 0.42457 0.98509 0.0
H26 H 0.25796 0.99369 0.94493 0.0
H27 H 0.0852 0.47691 1.00619 0.0
H28 H 0.56461 0.17522 0.03116 0.0
N29 N 0.31969 0.1127 0.96792 0.0
C30 C 0.37639 0.10443 0.98132 0.0
C31 C 0.2915 0.02457 0.95548 0.0
C32 C 0.39241 0.05557 0.98283 0.0
C33 C 0.27773 0.07366 0.95453 0.0
C34 C 0.34898 0.01551 0.96985 0.0
N35 N 0.40118 0.19215 0.99264 0.0
C36 C 0.44241 0.23219 1.00287 0.0
C37 C 0.47748 0.13773 0.00804 0.0
C38 C 0.41846 0.14515 0.99382 0.0
C39 C 0.51884 0.17936 0.02007 0.0
C40 C 0.50142 0.22663 0.01715 0.0
H41 H 0.35957 0.97741 0.97052 0.0
H42 H 0.46393 0.0111 0.99885 0.0
H43 H 0.53843 0.08284 0.02075 0.0
O44 O 0.35343 0.21379 0.92447 0.0
O45 O 0.30759 0.19036 0.02536 0.0
O46 O 0.28822 0.27164 0.06568 0.0
O47 O 0.3049 0.14136 0.91201 0.0
O48 O 0.3209 0.28216 0.98341 0.0
O49 O 0.29352 0.32139 0.04471 0.0
O50 O 0.14595 0.29174 0.09807 0.0
O51 O 0.19913 0.30355 0.99111 0.0
O52 O 0.20512 0.22071 0.95243 0.0
O53 O 0.19161 0.3619 0.09688 0.0
O54 O 0.18341 0.20791 0.03539 0.0
O55 O 0.19979 0.1752 0.97283 0.0
C56 C 0.31204 0.22547 0.05822 0.0
C57 C 0.39645 0.14228 0.87794 0.0
C58 C 0.46156 0.12474 0.82301 0.0
C59 C 0.4958 0.08894 0.83439 0.0
C60 C 0.43141 0.1065 0.88871 0.0
C61 C 0.48082 0.08007 0.86704 0.0
C62 C 0.41186 0.15148 0.84517 0.0
C63 C 0.32472 0.32026 0.015 0.0
C64 C 0.34262 0.16904 0.89984 0.0
C65 C 0.45097 0.04826 0.99726 0.0
C66 C 0.49337 0.08918 0.00979 0.0
C67 C 0.18807 0.26853 0.95903 0.0
C68 C 0.14019 0.3678 0.15408 0.0
C69 C 0.09445 0.37083 0.21307 0.0
C70 C 0.10456 0.42423 0.22624 0.0
C71 C 0.15049 0.42101 0.16836 0.0
C72 C 0.11193 0.34271 0.17656 0.0
C73 C 0.13275 0.44889 0.20411 0.0
C74 C 0.176 0.17151 1.00325 0.0
C75 C 0.15914 0.33969 0.11576 0.0
H76 H 0.53478 0.06824 0.81828 0.0
H77 H 0.42025 0.09856 0.91362 0.0
H78 H 0.50755 0.05252 0.87556 0.0
H79 H 0.38437 0.17869 0.83663 0.0
H80 H 0.08996 0.44717 0.25364 0.0
H81 H 0.17201 0.44139 0.1518 0.0
H82 H 0.10452 0.30157 0.16593 0.0
H83 H 0.14083 0.48985 0.2146 0.0
Eu84 Eu 0.79901 0.69562 0.96152 0.0
C85 C 0.59154 0.85608 1.00676 0.0
N86 N 0.65077 0.86147 0.02092 0.0
C87 C 0.6597 0.94439 0.01416 0.0
C88 C 0.56473 0.89457 0.99473 0.0
C89 C 0.6847 0.905 0.02534 0.0
C90 C 0.59959 0.93908 0.99863 0.0
C91 C 0.49736 0.80445 0.9882 0.0
C92 C 0.55863 0.81107 1.00316 0.0
C93 C 0.47095 0.84235 0.97563 0.0
C94 C 0.50452 0.88723 0.97887 0.0
Eu95 Eu 0.68883 0.79342 0.0393 0.0
N96 N 0.58561 0.77455 0.01514 0.0
C97 C 0.46375 0.76048 0.98712 0.0
C98 C 0.55065 0.73425 0.0173 0.0
C99 C 0.49007 0.72578 1.00242 0.0
H100 H 0.73111 0.90912 0.03741 0.0
H101 H 0.4632 0.69306 1.00351 0.0
H102 H 0.73729 0.57754 0.93597 0.0
H103 H 0.0307 0.76309 0.0195 0.0
H104 H 0.568 0.70943 0.03162 0.0
H105 H 0.41657 0.75403 0.97589 0.0
H106 H 0.92729 0.76995 0.99307 0.0
H107 H 0.68683 0.97875 0.01743 0.0
H108 H 0.42418 0.83761 0.96379 0.0
H109 H 0.48337 0.9161 0.96912 0.0
H110 H 0.76428 0.49172 0.93876 0.0
H111 H 0.58057 0.96951 0.98974 0.0
H112 H 0.06463 0.68063 0.02573 0.0
N113 N 0.82168 0.61216 0.96184 0.0
C114 C 0.8786 0.60533 0.97564 0.0
C115 C 0.79669 0.52341 0.94944 0.0
C116 C 0.89643 0.55693 0.97732 0.0
C117 C 0.78114 0.5721 0.9483 0.0
C118 C 0.85448 0.51581 0.96416 0.0
N119 N 0.90022 0.69342 0.98673 0.0
C120 C 0.94015 0.73435 0.99676 0.0
C121 C 0.97861 0.64107 1.00261 0.0
C122 C 0.91921 0.64699 0.9882 0.0
C123 C 0.0186 0.68362 0.01451 0.0
C124 C 0.99949 0.7303 0.01122 0.0
H125 H 0.86647 0.47803 0.96497 0.0
H126 H 0.96973 0.51433 0.99367 0.0
H127 H 0.04167 0.58779 0.01569 0.0
O128 O 0.84901 0.71512 0.91825 0.0
O129 O 0.80892 0.69252 0.0199 0.0
O130 O 0.78098 0.77221 0.06046 0.0
O131 O 0.80659 0.64033 0.90601 0.0
O132 O 0.81635 0.78159 0.97646 0.0
O133 O 0.78783 0.82074 0.03746 0.0
O134 O 0.63567 0.79442 0.08877 0.0
O135 O 0.69443 0.7984 0.98117 0.0
O136 O 0.70155 0.71416 0.94613 0.0
O137 O 0.6848 0.86297 0.08711 0.0
O138 O 0.68126 0.70768 0.03018 0.0
O139 O 0.70005 0.67087 0.96802 0.0
C140 C 0.80928 0.72755 0.05292 0.0
C141 C 0.8972 0.64564 0.8724 0.0
C142 C 0.9627 0.62974 0.8177 0.0
C143 C 0.99998 0.59653 0.83006 0.0
C144 C 0.93528 0.61243 0.88409 0.0
C145 C 0.98638 0.58814 0.86305 0.0
C146 C 0.91133 0.65451 0.83929 0.0
C147 C 0.81976 0.81964 0.00809 0.0
C148 C 0.84153 0.66973 0.89377 0.0
C149 C 0.95532 0.55111 0.992 0.0
C150 C 0.9963 0.59301 1.00458 0.0
C151 C 0.6831 0.76096 0.95032 0.0
C152 C 0.62848 0.87197 0.14352 0.0
C153 C 0.57587 0.87758 0.20116 0.0
C154 C 0.58844 0.9306 0.21439 0.0
C155 C 0.64022 0.92504 0.15755 0.0
C156 C 0.59642 0.84825 0.16559 0.0
C157 C 0.62038 0.95401 0.19272 0.0
C158 C 0.67698 0.66879 0.99912 0.0
C159 C 0.64969 0.84238 0.10591 0.0
H160 H 0.04026 0.57748 0.81442 0.0
H161 H 0.92524 0.60481 0.90925 0.0
H162 H 0.01548 0.56258 0.87231 0.0
H163 H 0.88162 0.67977 0.83 0.0
H164 H 0.57415 0.95394 0.24178 0.0
H165 H 0.66468 0.94437 0.14128 0.0
H166 H 0.58682 0.80741 0.15501 0.0
H167 H 0.62986 0.99483 0.20322 0.0
Eu168 Eu 0.30886 0.80761 0.54612 0.0
C169 C 0.11792 0.62536 0.49234 0.0
N170 N 0.17704 0.62765 0.4799 0.0
C171 C 0.19858 0.54286 0.48074 0.0
C172 C 0.09723 0.58147 0.50005 0.0
C173 C 0.21719 0.58726 0.47368 0.0
C174 C 0.13839 0.53996 0.49403 0.0
C175 C 0.01785 0.66682 0.51247 0.0
C176 C 0.07887 0.66794 0.49877 0.0
C177 C 0.99719 0.62313 0.52016 0.0
C178 C 0.03673 0.58062 0.51397 0.0
Eu179 Eu 0.20359 0.70326 0.46781 0.0
N180 N 0.10044 0.71028 0.4917 0.0
C181 C 0.97899 0.70945 0.51766 0.0
C182 C 0.0611 0.7504 0.49446 0.0
C183 C 1.00045 0.75109 0.50815 0.0
H184 H 0.26322 0.58903 0.4627 0.0
H185 H 0.96986 0.7834 0.51073 0.0
H186 H 0.25928 0.92147 0.54384 0.0
H187 H 0.54388 0.72235 0.52083 0.0
H188 H 0.07493 0.78131 0.48505 0.0
H189 H 0.93182 0.71005 0.52808 0.0
H190 H 0.43598 0.73146 0.54362 0.0
H191 H 0.23056 0.51086 0.4758 0.0
H192 H 0.95054 0.62176 0.53078 0.0
H193 H 0.02009 0.54729 0.52014 0.0
H194 H 0.29975 0.99441 0.52667 0.0
H195 H 0.12418 0.50556 0.4996 0.0
H196 H 0.58836 0.78709 0.49632 0.0
N197 N 0.34362 0.8787 0.53035 0.0
C198 C 0.40402 0.87731 0.51893 0.0
C199 C 0.32943 0.96163 0.5242 0.0
C200 C 0.42906 0.91804 0.50886 0.0
C201 C 0.30648 0.92023 0.53365 0.0
C202 C 0.39089 0.96047 0.51161 0.0
N203 N 0.41504 0.79588 0.52684 0.0
C204 C 0.45263 0.75771 0.53043 0.0
C205 C 0.50314 0.83211 0.50479 0.0
C206 C 0.44029 0.83439 0.51652 0.0
C207 C 0.5399 0.79024 0.50507 0.0
C208 C 0.51485 0.75342 0.51863 0.0
H209 H 0.40845 0.99253 0.50417 0.0
H210 H 0.51092 0.94584 0.48817 0.0
H211 H 0.57593 0.87088 0.48491 0.0
O212 O 0.35435 0.80884 0.59859 0.0
O213 O 0.30989 0.81089 0.48763 0.0
O214 O 0.29727 0.72696 0.45059 0.0
O215 O 0.30784 0.87688 0.59393 0.0
O216 O 0.32449 0.72213 0.53609 0.0
O217 O 0.30475 0.68357 0.47386 0.0
O218 O 0.15015 0.70596 0.41891 0.0
O219 O 0.20239 0.70077 0.52663 0.0
O220 O 0.2134 0.78545 0.56153 0.0
O221 O 0.20181 0.63699 0.41772 0.0
O222 O 0.18698 0.78766 0.47645 0.0
O223 O 0.20912 0.8302 0.53806 0.0
C224 C 0.31636 0.7741 0.45582 0.0
C225 C 0.35465 0.88714 0.65355 0.0
C226 C 0.40876 0.89847 0.71224 0.0
C227 C 0.38443 0.94857 0.72603 0.0
C228 C 0.33134 0.93745 0.66828 0.0
C229 C 0.34605 0.96774 0.70421 0.0
C230 C 0.39313 0.86754 0.67586 0.0
C231 C 0.33204 0.68418 0.50474 0.0
C232 C 0.33934 0.8568 0.61475 0.0
C233 C 0.49098 0.91506 0.49622 0.0
C234 C 0.5279 0.87223 0.49419 0.0
C235 C 0.19422 0.73881 0.55757 0.0
C236 C 0.14531 0.63177 0.36159 0.0
C237 C 0.08838 0.62844 0.30523 0.0
C238 C 0.10505 0.57644 0.28978 0.0
C239 C 0.16146 0.57985 0.34515 0.0
C240 C 0.10909 0.65622 0.34132 0.0
C241 C 0.1416 0.55256 0.30951 0.0
C242 C 0.18295 0.82811 0.50649 0.0
C243 C 0.16562 0.65893 0.40003 0.0
H244 H 0.39464 0.97298 0.75397 0.0
H245 H 0.30168 0.95366 0.65197 0.0
H246 H 0.3277 0.00637 0.71521 0.0
H247 H 0.41191 0.82903 0.66475 0.0
H248 H 0.09032 0.55433 0.26212 0.0
H249 H 0.18927 0.56002 0.35991 0.0
H250 H 0.09622 0.69621 0.3537 0.0
H251 H 0.15462 0.51266 0.29718 0.0
Eu252 Eu 0.806 0.30811 0.55074 0.0
C253 C 0.61513 0.12404 0.49949 0.0
N254 N 0.6741 0.12685 0.48704 0.0
C255 C 0.69734 0.04279 0.48893 0.0
C256 C 0.59546 0.0804 0.5079 0.0
C257 C 0.71485 0.08688 0.48112 0.0
C258 C 0.63748 0.03959 0.50253 0.0
C259 C 0.51376 0.16384 0.51807 0.0
C260 C 0.57498 0.16564 0.50482 0.0
C261 C 0.49425 0.1206 0.52674 0.0
C262 C 0.53496 0.07903 0.52168 0.0
Eu263 Eu 0.69959 0.20247 0.4744 0.0
N264 N 0.59538 0.20744 0.49667 0.0
C265 C 0.47347 0.20518 0.52161 0.0
C266 C 0.55455 0.24589 0.49745 0.0
C267 C 0.49367 0.24598 0.51069 0.0
H268 H 0.76045 0.08865 0.46969 0.0
H269 H 0.46194 0.27708 0.51179 0.0
H270 H 0.75109 0.42121 0.5501 0.0
H271 H 0.03793 0.221 0.51221 0.0
H272 H 0.56747 0.27576 0.48674 0.0
H273 H 0.4261 0.20523 0.53163 0.0
H274 H 0.93366 0.2296 0.53985 0.0
H275 H 0.7299 0.0112 0.48429 0.0
H276 H 0.4475 0.11874 0.53709 0.0
H277 H 0.51914 0.04595 0.52845 0.0
H278 H 0.78699 0.49504 0.53237 0.0
H279 H 0.62408 0.00541 0.50863 0.0
H280 H 0.07729 0.28755 0.48785 0.0
N281 N 0.83565 0.37948 0.534 0.0
C282 C 0.89461 0.37854 0.5205 0.0
C283 C 0.81759 0.46246 0.52879 0.0
C284 C 0.91691 0.4197 0.50995 0.0
C285 C 0.79724 0.42063 0.5386 0.0
C286 C 0.87762 0.46199 0.51435 0.0
N287 N 0.90899 0.296 0.52629 0.0
C288 C 0.94767 0.25683 0.52688 0.0
C289 C 0.99268 0.33318 0.50136 0.0
C290 C 0.93177 0.33533 0.51593 0.0
C291 C 0.03026 0.29061 0.49885 0.0
C292 C 0.00803 0.25276 0.51229 0.0
H293 H 0.89311 0.49436 0.50658 0.0
H294 H 0.99484 0.44816 0.48636 0.0
H295 H 0.06128 0.37269 0.4791 0.0
O296 O 0.8594 0.30898 0.60043 0.0
O297 O 0.80038 0.31007 0.49194 0.0
O298 O 0.79329 0.22525 0.45692 0.0
O299 O 0.81001 0.3776 0.59878 0.0
O300 O 0.82075 0.22384 0.54327 0.0
O301 O 0.80061 0.18239 0.48151 0.0
O302 O 0.64936 0.20487 0.42425 0.0
O303 O 0.69779 0.20138 0.5335 0.0
O304 O 0.71356 0.28551 0.56999 0.0
O305 O 0.69756 0.13535 0.42503 0.0
O306 O 0.67927 0.28753 0.48505 0.0
O307 O 0.70485 0.3293 0.54643 0.0
C308 C 0.81067 0.2724 0.46111 0.0
C309 C 0.86784 0.3864 0.65518 0.0
C310 C 0.91504 0.39051 0.71444 0.0
C311 C 0.91075 0.44443 0.72592 0.0
C312 C 0.86375 0.44023 0.66763 0.0
C313 C 0.88527 0.46892 0.70268 0.0
C314 C 0.89381 0.36165 0.67868 0.0
C315 C 0.82616 0.18389 0.51306 0.0
C316 C 0.84582 0.35699 0.61752 0.0
C317 C 0.97704 0.41705 0.49483 0.0
C318 C 0.01476 0.37392 0.49052 0.0
C319 C 0.69127 0.23922 0.56478 0.0
C320 C 0.64492 0.1291 0.36766 0.0
C321 C 0.59128 0.12423 0.31001 0.0
C322 C 0.6089 0.07236 0.29523 0.0
C323 C 0.66154 0.07709 0.352 0.0
C324 C 0.60995 0.15273 0.34637 0.0
C325 C 0.64373 0.04909 0.31607 0.0
C326 C 0.67365 0.32635 0.51616 0.0
C327 C 0.66375 0.15723 0.40625 0.0
H328 H 0.9279 0.46789 0.75278 0.0
H329 H 0.84447 0.4603 0.65009 0.0
H330 H 0.88246 0.51041 0.71185 0.0
H331 H 0.89654 0.32012 0.6694 0.0
H332 H 0.59624 0.04981 0.26726 0.0
H333 H 0.68828 0.05778 0.36757 0.0
H334 H 0.59645 0.19267 0.35817 0.0
H335 H 0.65694 0.00912 0.30429 0.0
C336 C 0.62626 0.61384 0.03137 0.0
C337 C 0.63954 0.62348 0.99851 0.0
C338 C 0.58959 0.57162 0.03081 0.0
C339 C 0.56554 0.53826 0.99729 0.0
C340 C 0.5797 0.54753 0.96449 0.0
C341 C 0.61571 0.58996 0.96509 0.0
C342 C 0.52662 0.49289 0.9952 0.0
C343 C 0.48829 0.49097 0.02244 0.0
C344 C 0.44667 0.44657 0.01971 0.0
C345 C 0.42165 0.4419 0.05215 0.0
C346 C 0.38192 0.40102 0.05079 0.0
C347 C 0.36628 0.36393 0.01686 0.0
H348 H 0.44567 0.41272 0.9598 0.0
C349 C 0.39056 0.36896 0.98436 0.0
C350 C 0.42986 0.40988 0.98569 0.0
H351 H 0.37868 0.34153 0.95768 0.0
H352 H 0.64437 0.63883 0.05753 0.0
H353 H 0.58114 0.56485 0.05653 0.0
H354 H 0.56192 0.52231 0.9383 0.0
H355 H 0.62432 0.59671 0.93935 0.0
H356 H 0.52855 0.46098 0.96958 0.0
H357 H 0.48678 0.52334 0.04789 0.0
H358 H 0.43315 0.46983 0.07871 0.0
H359 H 0.36384 0.39838 0.07636 0.0
C360 C 0.39155 0.63198 0.53622 0.0
C361 C 0.37399 0.64108 0.50368 0.0
C362 C 0.43144 0.59124 0.53496 0.0
C363 C 0.45412 0.55846 0.50098 0.0
C364 C 0.43689 0.568 0.46858 0.0
C365 C 0.39714 0.6087 0.46986 0.0
C366 C 0.4972 0.51497 0.49804 0.0
C367 C 0.50277 0.49238 0.52403 0.0
C368 C 0.54662 0.4494 0.5209 0.0
C369 C 0.56923 0.44267 0.55332 0.0
C370 C 0.61067 0.40287 0.55172 0.0
C371 C 0.62982 0.36846 0.51757 0.0
H372 H 0.54714 0.41743 0.46104 0.0
C373 C 0.60648 0.3746 0.48505 0.0
C374 C 0.56514 0.41459 0.48665 0.0
H375 H 0.62008 0.3485 0.45833 0.0
H376 H 0.37465 0.65646 0.56271 0.0
H377 H 0.44503 0.58643 0.56075 0.0
H378 H 0.45405 0.54372 0.44209 0.0
H379 H 0.38487 0.61491 0.44428 0.0
H380 H 0.52493 0.50095 0.47314 0.0
H381 H 0.47556 0.50628 0.5491 0.0
H382 H 0.55524 0.46861 0.58003 0.0
H383 H 0.62735 0.39895 0.57732 0.0
C384 C 0.12374 0.11358 0.03246 0.0
C385 C 0.13656 0.12657 1.00086 0.0
C386 C 0.08599 0.07123 0.03007 0.0
C387 C 0.06039 0.04112 0.99595 0.0
C388 C 0.07392 0.05381 0.96438 0.0
C389 C 0.11105 0.09638 0.96684 0.0
C390 C 0.02076 0.99552 0.99195 0.0
C391 C 0.98288 0.99168 0.0188 0.0
C392 C 0.94129 0.94692 0.01496 0.0
C393 C 0.91504 0.94165 0.04691 0.0
C394 C 0.87548 0.90045 0.04477 0.0
C395 C 0.86122 0.86354 0.01052 0.0
H396 H 0.9431 0.91338 0.95502 0.0
C397 C 0.88681 0.869 0.97848 0.0
C398 C 0.92604 0.91031 0.98058 0.0
H399 H 0.8761 0.8416 0.95159 0.0
H400 H 0.14321 0.13594 0.05901 0.0
H401 H 0.07805 0.06168 0.0548 0.0
H402 H 0.055 0.03108 0.93777 0.0
H403 H 0.11958 0.10568 0.94204 0.0
H404 H 0.022 0.96528 0.96546 0.0
H405 H 0.9819 0.02281 0.04497 0.0
H406 H 0.92542 0.96939 0.07373 0.0
H407 H 0.85645 0.89743 0.07001 0.0
C408 C 0.89026 0.10559 0.48237 0.0
C409 C 0.86528 0.14053 0.51462 0.0
C410 C 0.9286 0.06544 0.48419 0.0
C411 C 0.94307 0.0598 0.51844 0.0
C412 C 0.9169 0.09414 0.55051 0.0
C413 C 0.87868 0.13426 0.54868 0.0
C414 C 0.98408 0.01818 0.52189 0.0
C415 C 0.02805 0.99502 0.497 0.0
C416 C 0.06853 0.95321 0.50052 0.0
C417 C 0.09154 0.91683 0.46837 0.0
C418 C 0.12886 0.87632 0.47038 0.0
C419 C 0.14464 0.87178 0.5047 0.0
H420 H 0.07037 0.97769 0.56042 0.0
C421 C 0.12306 0.90894 0.537 0.0
C422 C 0.0854 0.94935 0.53497 0.0
H423 H 0.13488 0.90664 0.56385 0.0
H424 H 0.88047 0.10937 0.45571 0.0
H425 H 0.94594 0.03875 0.45867 0.0
H426 H 0.92669 0.09032 0.57717 0.0
H427 H 0.8596 0.16036 0.574 0.0
H428 H 0.97823 0.00706 0.54624 0.0
H429 H 0.03404 0.00585 0.47255 0.0
H430 H 0.07984 0.91931 0.44154 0.0
H431 H 0.14538 0.8486 0.44499 0.0
C432 C 0.50384 0.11977 0.26519 0.0
C433 C 0.55382 0.14745 0.28674 0.0
C434 C 0.47296 0.13798 0.23985 0.0
C435 C 0.49163 0.18428 0.23511 0.0
C436 C 0.53926 0.2134 0.2581 0.0
C437 C 0.5702 0.19514 0.28362 0.0
C438 C 0.46218 0.20304 0.20659 0.0
C439 C 0.4367 0.17098 0.1751 0.0
C440 C 0.40683 0.18721 0.14546 0.0
C441 C 0.39265 0.14918 0.11166 0.0
C442 C 0.36232 0.16159 0.08339 0.0
C443 C 0.34554 0.21256 0.08802 0.0
H444 H 0.39851 0.26889 0.1759 0.0
C445 C 0.35977 0.25081 0.12178 0.0
C446 C 0.38989 0.23836 0.15021 0.0
H447 H 0.34721 0.29049 0.12643 0.0
H448 H 0.48903 0.08348 0.2676 0.0
H449 H 0.43457 0.11549 0.22403 0.0
H450 H 0.55397 0.24961 0.25551 0.0
H451 H 0.60851 0.21735 0.29982 0.0
H452 H 0.46485 0.24388 0.21103 0.0
H453 H 0.43934 0.1299 0.16992 0.0
H454 H 0.40451 0.10938 0.10712 0.0
H455 H 0.35107 0.1309 0.05818 0.0
C456 C 0.48912 0.87859 0.245 0.0
C457 C 0.54168 0.85383 0.22506 0.0
C458 C 0.4603 0.8597 0.27041 0.0
C459 C 0.48381 0.81576 0.27692 0.0
C460 C 0.53438 0.78948 0.25562 0.0
C461 C 0.56314 0.80834 0.22997 0.0
C462 C 0.45668 0.79663 0.30567 0.0
C463 C 0.42756 0.82788 0.33589 0.0
C464 C 0.4004 0.81174 0.36606 0.0
C465 C 0.37937 0.85033 0.39783 0.0
C466 C 0.35212 0.83798 0.42672 0.0
C467 C 0.34552 0.7866 0.4249 0.0
H468 H 0.40748 0.72886 0.33988 0.0
C469 C 0.3661 0.7477 0.3931 0.0
C470 C 0.39318 0.76005 0.36395 0.0
H471 H 0.36129 0.70765 0.3907 0.0
H472 H 0.47048 0.91302 0.24115 0.0
H473 H 0.41962 0.87979 0.28484 0.0
H474 H 0.55292 0.75511 0.25959 0.0
H475 H 0.60355 0.78839 0.21502 0.0
H476 H 0.46421 0.75657 0.30256 0.0
H477 H 0.42497 0.8686 0.33967 0.0
H478 H 0.38357 0.89047 0.40031 0.0
H479 H 0.33526 0.8689 0.45024 0.0
C480 C 0.64576 0.82119 0.91794 0.0
C481 C 0.64823 0.77139 0.92007 0.0
C482 C 0.61265 0.83101 0.88943 0.0
C483 C 0.58159 0.791 0.86211 0.0
C484 C 0.58347 0.74136 0.8646 0.0
C485 C 0.6168 0.73155 0.89304 0.0
C486 C 0.54513 0.79993 0.8315 0.0
C487 C 0.55852 0.838 0.81793 0.0
C488 C 0.52153 0.85001 0.78862 0.0
C489 C 0.53161 0.89768 0.78384 0.0
C490 C 0.49654 0.91241 0.75822 0.0
C491 C 0.45036 0.87975 0.7364 0.0
H492 H 0.46856 0.77863 0.76763 0.0
C493 C 0.44185 0.83105 0.73988 0.0
C494 C 0.47695 0.81628 0.76574 0.0
H495 H 0.40664 0.80503 0.72346 0.0
H496 H 0.66974 0.85265 0.93825 0.0
H497 H 0.61073 0.87014 0.88933 0.0
H498 H 0.55944 0.70992 0.84426 0.0
H499 H 0.61738 0.69279 0.89407 0.0
H500 H 0.50679 0.77371 0.81984 0.0
H501 H 0.59814 0.86295 0.82947 0.0
H502 H 0.56598 0.92432 0.8006 0.0
H503 H 0.50509 0.94988 0.75584 0.0
C504 C 0.64759 0.17915 0.59543 0.0
C505 C 0.65786 0.2295 0.59553 0.0
C506 C 0.61758 0.17015 0.62498 0.0
C507 C 0.59719 0.2115 0.65546 0.0
C508 C 0.6075 0.26175 0.65543 0.0
C509 C 0.63726 0.27069 0.62584 0.0
C510 C 0.56877 0.20435 0.68879 0.0
C511 C 0.54246 0.16018 0.68944 0.0
C512 C 0.51835 0.1525 0.72359 0.0
C513 C 0.51363 0.10223 0.72462 0.0
C514 C 0.49419 0.09317 0.75658 0.0
C515 C 0.47841 0.13425 0.78831 0.0
H516 H 0.50094 0.23278 0.75505 0.0
C517 C 0.48069 0.18447 0.7869 0.0
C518 C 0.50029 0.19355 0.75493 0.0
H519 H 0.46872 0.21696 0.81083 0.0
H520 H 0.66435 0.14658 0.573 0.0
H521 H 0.61258 0.13082 0.62417 0.0
H522 H 0.59278 0.29439 0.67855 0.0
H523 H 0.64435 0.31 0.62686 0.0
H524 H 0.57086 0.23712 0.71393 0.0
H525 H 0.54045 0.1273 0.66435 0.0
H526 H 0.52625 0.06976 0.70081 0.0
H527 H 0.49168 0.05391 0.75647 0.0
C528 C 0.85423 0.75424 0.11736 0.0
C529 C 0.84302 0.71583 0.08319 0.0
C530 C 0.88431 0.74251 0.14616 0.0
C531 C 0.90407 0.69198 0.14137 0.0
C532 C 0.89299 0.65386 0.10716 0.0
C533 C 0.86288 0.66552 0.07853 0.0
C534 C 0.93349 0.6763 0.17138 0.0
C535 C 0.95806 0.70871 0.20302 0.0
C536 C 0.9874 0.6901 0.23167 0.0
C537 C 0.03586 0.71866 0.25423 0.0
C538 C 0.06708 0.70002 0.27949 0.0
C539 C 0.05011 0.65254 0.2828 0.0
H540 H 0.929 0.6222 0.22124 0.0
C541 C 0.99909 0.62564 0.26186 0.0
C542 C 0.968 0.64419 0.23675 0.0
H543 H 0.9838 0.58957 0.26443 0.0
H544 H 0.83929 0.79339 0.12203 0.0
H545 H 0.89058 0.77297 0.17218 0.0
H546 H 0.9071 0.61451 0.10258 0.0
H547 H 0.85407 0.63466 0.05301 0.0
H548 H 0.93681 0.63526 0.16632 0.0
H549 H 0.9603 0.74955 0.20735 0.0
H550 H 0.05113 0.75457 0.25138 0.0
H551 H 0.10619 0.72165 0.29521 0.0
C552 C 0.87265 0.24398 0.40232 0.0
C553 C 0.84432 0.28349 0.43095 0.0
C554 C 0.90677 0.25527 0.37488 0.0
C555 C 0.91318 0.30637 0.3756 0.0
C556 C 0.88422 0.34555 0.40399 0.0
C557 C 0.84954 0.33422 0.43099 0.0
C558 C 0.9519 0.32098 0.34854 0.0
C559 C 0.96387 0.28987 0.31393 0.0
C560 C 1.00117 0.30749 0.28771 0.0
C561 C 0.98684 0.28904 0.24985 0.0
C562 C 0.01839 0.30812 0.22518 0.0
C563 C 0.06539 0.34569 0.23791 0.0
H564 H 0.06469 0.35643 0.32873 0.0
C565 C 0.08213 0.36172 0.27548 0.0
C566 C 0.05049 0.34293 0.30004 0.0
H567 H 0.11939 0.38943 0.28608 0.0
H568 H 0.8696 0.20446 0.40153 0.0
H569 H 0.92944 0.22412 0.35387 0.0
H570 H 0.88827 0.38525 0.40528 0.0
H571 H 0.82688 0.36539 0.45198 0.0
H572 H 0.96854 0.36041 0.3571 0.0
H573 H 0.94243 0.25208 0.30369 0.0
H574 H 0.94962 0.2612 0.23953 0.0
H575 H 0.00432 0.29492 0.19646 0.0
C576 C 0.92895 0.38449 0.77785 0.0
C577 C 0.94226 0.3653 0.73995 0.0
C578 C 0.95815 0.36399 0.80251 0.0
C579 C 1.00169 0.32373 0.78994 0.0
C580 C 0.0128 0.30287 0.7519 0.0
C581 C 0.98368 0.32354 0.72716 0.0
C582 C 0.03606 0.3029 0.81583 0.0
C583 C 0.05046 0.332 0.85072 0.0
C584 C 0.08724 0.31363 0.87701 0.0
C585 C 0.11827 0.35015 0.90643 0.0
C586 C 0.15212 0.33522 0.93239 0.0
C587 C 0.15463 0.28346 0.93019 0.0
H588 H 0.06609 0.23229 0.85259 0.0
C589 C 0.12397 0.24664 0.90068 0.0
C590 C 0.09049 0.26152 0.87435 0.0
H591 H 0.12479 0.20642 0.8983 0.0
H592 H 0.89593 0.41563 0.78858 0.0
H593 H 0.94625 0.37975 0.83139 0.0
H594 H 0.04553 0.27144 0.74138 0.0
H595 H 0.99518 0.30786 0.6982 0.0
H596 H 0.05352 0.26385 0.80497 0.0
H597 H 0.03788 0.3724 0.8601 0.0
H598 H 0.11663 0.39053 0.90929 0.0
H599 H 0.17639 0.3644 0.95426 0.0
C600 C 0.14944 0.67932 0.58853 0.0
C601 C 0.16042 0.72949 0.5884 0.0
C602 C 0.11874 0.67083 0.61811 0.0
C603 C 0.09837 0.71251 0.6484 0.0
C604 C 0.10947 0.76255 0.64813 0.0
C605 C 0.13989 0.77098 0.61854 0.0
C606 C 0.06905 0.70601 0.68177 0.0
C607 C 0.04297 0.66196 0.68286 0.0
C608 C 0.01828 0.65507 0.71719 0.0
C609 C 0.0149 0.60518 0.7191 0.0
C610 C 0.99553 0.59693 0.75136 0.0
C611 C 0.97828 0.63839 0.7825 0.0
H612 H 0.99818 0.73534 0.74726 0.0
C613 C 0.97879 0.68814 0.78014 0.0
C614 C 0.99855 0.69646 0.74788 0.0
H615 H 0.96557 0.72086 0.8036 0.0
H616 H 0.16596 0.6465 0.56622 0.0
H617 H 0.11307 0.63162 0.61742 0.0
H618 H 0.09483 0.79546 0.67108 0.0
H619 H 0.14753 0.81018 0.61946 0.0
H620 H 0.0703 0.73922 0.70667 0.0
H621 H 0.04184 0.62855 0.65811 0.0
H622 H 0.02876 0.57244 0.69581 0.0
H623 H 0.99448 0.55799 0.75201 0.0
loop_
_geom_bond_atom_site_label_1
_geom_bond_atom_site_label_2
_geom_bond_distance
_geom_bond_site_symmetry_2
_ccdc_geom_bond_type
Eu0 N29 2.600 . S
Eu0 N35 2.562 . S
Eu0 O44 2.462 . S
Eu0 O45 2.373 1_556 S
Eu0 O47 2.432 . S
Eu0 O48 2.291 . S
Eu0 O52 2.335 . S
Eu0 O55 2.372 . S
Eu0 C64 2.787 . S
C1 N2 1.365 . S
C1 C4 1.405 . S
C1 C8 1.448 . S
N2 C1 1.365 . S
N2 C5 1.319 . S
N2 Eu11 2.600 . S
C3 C5 1.397 . S
C3 C6 1.367 . S
C3 H23 0.931 . S
C4 C1 1.405 . S
C4 C6 1.403 . S
C4 C10 1.439 1_455 S
C5 N2 1.319 . S
C5 C3 1.397 . S
C5 H16 0.930 . S
C6 C3 1.367 . S
C6 C4 1.403 . S
C6 H27 0.929 . S
C7 C8 1.430 1_655 S
C7 C9 1.379 1_554 S
C7 C13 1.404 1_554 S
C8 C1 1.448 . S
C8 C7 1.430 1_455 S
C8 N12 1.351 . S
C9 C7 1.379 1_556 S
C9 C10 1.376 1_556 S
C9 H24 0.938 . S
C10 C4 1.439 1_655 S
C10 C9 1.376 1_554 S
C10 H25 0.931 . S
Eu11 N2 2.600 . S
Eu11 N12 2.562 . S
Eu11 O46 2.335 . S
Eu11 O49 2.372 . S
Eu11 O50 2.462 . S
Eu11 O51 2.373 1_554 S
Eu11 O53 2.432 . S
Eu11 O54 2.291 . S
Eu11 C75 2.787 . S
N12 C8 1.351 . S
N12 Eu11 2.562 . S
N12 C14 1.325 . S
C13 C7 1.404 1_556 S
C13 C15 1.366 . S
C13 H21 0.930 . S
C14 N12 1.325 . S
C14 C15 1.416 1_454 S
C14 H20 0.929 . S
C15 C13 1.366 . S
C15 C14 1.416 1_656 S
C15 H17 0.930 . S
H16 C5 0.930 . S
H17 C15 0.930 . S
H18 C33 0.930 . S
H19 C40 0.930 . S
H20 C14 0.929 . S
H21 C13 0.930 . S
H22 C36 0.929 . S
H23 C3 0.931 . S
H24 C9 0.938 . S
H25 C10 0.931 . S
H26 C31 0.931 1_565 S
H27 C6 0.929 . S
H28 C39 0.930 . S
N29 Eu0 2.600 . S
N29 C30 1.365 . S
N29 C33 1.319 . S
C30 N29 1.365 . S
C30 C32 1.405 . S
C30 C38 1.448 . S
C31 H26 0.931 1_545 S
C31 C33 1.397 . S
C31 C34 1.367 . S
C32 C30 1.405 . S
C32 C34 1.403 . S
C32 C65 1.439 . S
C33 H18 0.930 . S
C33 N29 1.319 . S
C33 C31 1.397 . S
C34 C31 1.367 . S
C34 C32 1.403 . S
C34 H41 0.929 1_545 S
N35 Eu0 2.562 . S
N35 C36 1.325 . S
N35 C38 1.351 . S
C36 H22 0.929 . S
C36 N35 1.325 . S
C36 C40 1.416 1_556 S
C37 C38 1.430 . S
C37 C39 1.404 1_556 S
C37 C66 1.387 1_556 S
C38 C30 1.448 . S
C38 N35 1.351 . S
C38 C37 1.430 . S
C39 H28 0.930 . S
C39 C37 1.404 1_554 S
C39 C40 1.366 . S
C40 H19 0.930 . S
C40 C36 1.416 1_554 S
C40 C39 1.366 . S
H41 C34 0.929 1_565 S
H42 C65 0.931 . S
H43 C66 0.931 . S
O44 Eu0 2.462 . S
O44 C64 1.252 . S
O45 Eu0 2.373 1_554 S
O45 C56 1.249 . S
O46 Eu11 2.335 . S
O46 C56 1.264 . S
O47 Eu0 2.432 . S
O47 C64 1.268 . S
O48 Eu0 2.291 . S
O48 C63 1.255 1_556 S
O49 Eu11 2.372 . S
O49 C63 1.257 . S
O50 Eu11 2.462 . S
O50 C75 1.252 . S
O51 Eu11 2.373 1_556 S
O51 C67 1.249 . S
O52 Eu0 2.335 . S
O52 C67 1.264 . S
O53 Eu11 2.432 . S
O53 C75 1.268 . S
O54 Eu11 2.291 . S
O54 C74 1.255 1_554 S
O55 Eu0 2.372 . S
O55 C74 1.257 . S
C56 O45 1.249 . S
C56 O46 1.264 . S
C57 C60 1.382 . S
C57 C62 1.390 . S
C57 C64 1.506 . S
C58 C59 1.398 . S
C58 C62 1.392 . S
C59 C58 1.398 . S
C59 C61 1.372 . S
C59 H76 0.931 . S
C60 C57 1.382 . S
C60 C61 1.390 . S
C60 H77 0.931 . S
C61 C59 1.372 . S
C61 C60 1.390 . S
C61 H78 0.929 . S
C62 C57 1.390 . S
C62 C58 1.392 . S
C62 H79 0.930 . S
C63 O48 1.255 1_554 S
C63 O49 1.257 . S
C64 Eu0 2.787 . S
C64 O44 1.252 . S
C64 O47 1.268 . S
C64 C57 1.506 . S
C65 C32 1.439 . S
C65 H42 0.931 . S
C65 C66 1.374 1_556 S
C66 C37 1.387 1_554 S
C66 H43 0.931 . S
C66 C65 1.374 1_554 S
C67 O51 1.249 . S
C67 O52 1.264 . S
C68 C71 1.382 . S
C68 C72 1.390 . S
C68 C75 1.506 . S
C69 C70 1.398 . S
C69 C72 1.392 . S
C70 C69 1.398 . S
C70 C73 1.372 . S
C70 H80 0.931 . S
C71 C68 1.382 . S
C71 C73 1.390 . S
C71 H81 0.931 . S
C72 C68 1.390 . S
C72 C69 1.392 . S
C72 H82 0.930 . S
C73 C70 1.372 . S
C73 C71 1.390 . S
C73 H83 0.929 . S
C74 O54 1.255 1_556 S
C74 O55 1.257 . S
C75 Eu11 2.787 . S
C75 O50 1.252 . S
C75 O53 1.268 . S
C75 C68 1.506 . S
H76 C59 0.931 . S
H77 C60 0.931 . S
H78 C61 0.929 . S
H79 C62 0.930 . S
H80 C70 0.931 . S
H81 C71 0.931 . S
H82 C72 0.930 . S
H83 C73 0.929 . S
Eu84 N113 2.600 . S
Eu84 N119 2.562 . S
Eu84 O128 2.462 . S
Eu84 O129 2.373 1_556 S
Eu84 O131 2.432 . S
Eu84 O132 2.291 . S
Eu84 O136 2.335 . S
Eu84 O139 2.372 . S
Eu84 C148 2.787 . S
C85 N86 1.365 . S
C85 C88 1.405 . S
C85 C92 1.448 . S
N86 C85 1.365 . S
N86 C89 1.319 . S
N86 Eu95 2.600 . S
C87 C89 1.397 . S
C87 C90 1.367 . S
C87 H107 0.931 1_565 S
C88 C85 1.405 . S
C88 C90 1.403 . S
C88 C94 1.439 . S
C89 N86 1.319 . S
C89 C87 1.397 . S
C89 H100 0.930 . S
C90 C87 1.367 . S
C90 C88 1.403 . S
C90 H111 0.929 1_565 S
C91 C92 1.430 . S
C91 C93 1.379 1_554 S
C91 C97 1.404 1_554 S
C92 C85 1.448 . S
C92 C91 1.430 . S
C92 N96 1.351 . S
C93 C91 1.379 1_556 S
C93 C94 1.376 1_556 S
C93 H108 0.938 . S
C94 C88 1.439 . S
C94 C93 1.376 1_554 S
C94 H109 0.931 . S
Eu95 N86 2.600 . S
Eu95 N96 2.562 . S
Eu95 O130 2.335 . S
Eu95 O133 2.372 . S
Eu95 O134 2.462 . S
Eu95 O135 2.373 1_554 S
Eu95 O137 2.432 . S
Eu95 O138 2.291 . S
Eu95 C159 2.787 . S
N96 C92 1.351 . S
N96 Eu95 2.562 . S
N96 C98 1.325 . S
C97 C91 1.404 1_556 S
C97 C99 1.366 . S
C97 H105 0.930 . S
C98 N96 1.325 . S
C98 C99 1.416 1_554 S
C98 H104 0.929 . S
C99 C97 1.366 . S
C99 C98 1.416 1_556 S
C99 H101 0.930 . S
H100 C89 0.930 . S
H101 C99 0.930 . S
H102 C117 0.930 . S
H103 C124 0.930 . S
H104 C98 0.929 . S
H105 C97 0.930 . S
H106 C120 0.929 . S
H107 C87 0.931 1_545 S
H108 C93 0.938 . S
H109 C94 0.931 . S
H110 C115 0.931 . S
H111 C90 0.929 1_545 S
H112 C123 0.930 . S
N113 Eu84 2.600 . S
N113 C114 1.365 . S
N113 C117 1.319 . S
C114 N113 1.365 . S
C114 C116 1.405 . S
C114 C122 1.448 . S
C115 H110 0.931 . S
C115 C117 1.397 . S
C115 C118 1.367 . S
C116 C114 1.405 . S
C116 C118 1.403 . S
C116 C149 1.439 1_655 S
C117 H102 0.930 . S
C117 N113 1.319 . S
C117 C115 1.397 . S
C118 C115 1.367 . S
C118 C116 1.403 . S
C118 H125 0.929 . S
N119 Eu84 2.562 . S
N119 C120 1.325 . S
N119 C122 1.351 . S
C120 H106 0.929 . S
C120 N119 1.325 . S
C120 C124 1.416 1_656 S
C121 C122 1.430 1_455 S
C121 C123 1.404 1_556 S
C121 C150 1.387 1_556 S
C122 C114 1.448 . S
C122 N119 1.351 . S
C122 C121 1.430 1_655 S
C123 H112 0.930 . S
C123 C121 1.404 1_554 S
C123 C124 1.366 . S
C124 H103 0.930 . S
C124 C120 1.416 1_454 S
C124 C123 1.366 . S
H125 C118 0.929 . S
H126 C149 0.931 . S
H127 C150 0.931 . S
O128 Eu84 2.462 . S
O128 C148 1.252 . S
O129 Eu84 2.373 1_554 S
O129 C140 1.249 . S
O130 Eu95 2.335 . S
O130 C140 1.264 . S
O131 Eu84 2.432 . S
O131 C148 1.268 . S
O132 Eu84 2.291 . S
O132 C147 1.255 1_556 S
O133 Eu95 2.372 . S
O133 C147 1.257 . S
O134 Eu95 2.462 . S
O134 C159 1.252 . S
O135 Eu95 2.373 1_556 S
O135 C151 1.249 . S
O136 Eu84 2.335 . S
O136 C151 1.264 . S
O137 Eu95 2.432 . S
O137 C159 1.268 . S
O138 Eu95 2.291 . S
O138 C158 1.255 1_554 S
O139 Eu84 2.372 . S
O139 C158 1.257 . S
C140 O129 1.249 . S
C140 O130 1.264 . S
C141 C144 1.382 . S
C141 C146 1.390 . S
C141 C148 1.506 . S
C142 C143 1.398 . S
C142 C146 1.392 . S
C143 C142 1.398 . S
C143 C145 1.372 . S
C143 H160 0.931 . S
C144 C141 1.382 . S
C144 C145 1.390 . S
C144 H161 0.931 . S
C145 C143 1.372 . S
C145 C144 1.390 . S
C145 H162 0.929 . S
C146 C141 1.390 . S
C146 C142 1.392 . S
C146 H163 0.930 . S
C147 O132 1.255 1_554 S
C147 O133 1.257 . S
C148 Eu84 2.787 . S
C148 O128 1.252 . S
C148 O131 1.268 . S
C148 C141 1.506 . S
C149 C116 1.439 1_455 S
C149 H126 0.931 . S
C149 C150 1.374 1_556 S
C150 C121 1.387 1_554 S
C150 H127 0.931 . S
C150 C149 1.374 1_554 S
C151 O135 1.249 . S
C151 O136 1.264 . S
C152 C155 1.382 . S
C152 C156 1.390 . S
C152 C159 1.506 . S
C153 C154 1.398 . S
C153 C156 1.392 . S
C154 C153 1.398 . S
C154 C157 1.372 . S
C154 H164 0.931 . S
C155 C152 1.382 . S
C155 C157 1.390 . S
C155 H165 0.931 . S
C156 C152 1.390 . S
C156 C153 1.392 . S
C156 H166 0.930 . S
C157 C154 1.372 . S
C157 C155 1.390 . S
C157 H167 0.929 . S
C158 O138 1.255 1_556 S
C158 O139 1.257 . S
C159 Eu95 2.787 . S
C159 O134 1.252 . S
C159 O137 1.268 . S
C159 C152 1.506 . S
H160 C143 0.931 . S
H161 C144 0.931 . S
H162 C145 0.929 . S
H163 C146 0.930 . S
H164 C154 0.931 . S
H165 C155 0.931 . S
H166 C156 0.930 . S
H167 C157 0.929 . S
Eu168 N197 2.600 . S
Eu168 N203 2.562 . S
Eu168 O212 2.462 . S
Eu168 O213 2.373 . S
Eu168 O215 2.432 . S
Eu168 O216 2.291 . S
Eu168 O220 2.335 . S
Eu168 O223 2.372 . S
Eu168 C232 2.787 . S
C169 N170 1.365 . S
C169 C172 1.405 . S
C169 C176 1.448 . S
N170 C169 1.365 . S
N170 C173 1.319 . S
N170 Eu179 2.600 . S
C171 C173 1.397 . S
C171 C174 1.367 . S
C171 H191 0.931 . S
C172 C169 1.405 . S
C172 C174 1.403 . S
C172 C178 1.439 1_455 S
C173 N170 1.319 . S
C173 C171 1.397 . S
C173 H184 0.930 . S
C174 C171 1.367 . S
C174 C172 1.403 . S
C174 H195 0.929 . S
C175 C176 1.430 1_655 S
C175 C177 1.387 . S
C175 C181 1.404 . S
C176 C169 1.448 . S
C176 C175 1.430 1_455 S
C176 N180 1.351 . S
C177 C175 1.387 . S
C177 C178 1.374 . S
C177 H192 0.931 . S
C178 C172 1.439 1_655 S
C178 C177 1.374 . S
C178 H193 0.931 . S
Eu179 N170 2.600 . S
Eu179 N180 2.562 . S
Eu179 O214 2.335 . S
Eu179 O217 2.372 . S
Eu179 O218 2.462 . S
Eu179 O219 2.373 . S
Eu179 O221 2.432 . S
Eu179 O222 2.291 . S
Eu179 C243 2.787 . S
N180 C176 1.351 . S
N180 Eu179 2.562 . S
N180 C182 1.325 . S
C181 C175 1.404 . S
C181 C183 1.366 . S
C181 H189 0.930 . S
C182 N180 1.325 . S
C182 C183 1.416 1_455 S
C182 H188 0.929 . S
C183 C181 1.366 . S
C183 C182 1.416 1_655 S
C183 H185 0.930 . S
H184 C173 0.930 . S
H185 C183 0.930 . S
H186 C201 0.930 . S
H187 C208 0.930 . S
H188 C182 0.929 . S
H189 C181 0.930 . S
H190 C204 0.929 . S
H191 C171 0.931 . S
H192 C177 0.931 . S
H193 C178 0.931 . S
H194 C199 0.931 1_545 S
H195 C174 0.929 . S
H196 C207 0.930 . S
N197 Eu168 2.600 . S
N197 C198 1.365 . S
N197 C201 1.319 . S
C198 N197 1.365 . S
C198 C200 1.405 . S
C198 C206 1.448 . S
C199 H194 0.931 1_565 S
C199 C201 1.397 . S
C199 C202 1.367 . S
C200 C198 1.405 . S
C200 C202 1.403 . S
C200 C233 1.439 . S
C201 H186 0.930 . S
C201 N197 1.319 . S
C201 C199 1.397 . S
C202 C199 1.367 . S
C202 C200 1.403 . S
C202 H209 0.929 1_565 S
N203 Eu168 2.562 . S
N203 C204 1.325 . S
N203 C206 1.351 . S
C204 H190 0.929 . S
C204 N203 1.325 . S
C204 C208 1.416 . S
C205 C206 1.430 . S
C205 C207 1.404 . S
C205 C234 1.387 . S
C206 C198 1.448 . S
C206 N203 1.351 . S
C206 C205 1.430 . S
C207 H196 0.930 . S
C207 C205 1.404 . S
C207 C208 1.366 . S
C208 H187 0.930 . S
C208 C204 1.416 . S
C208 C207 1.366 . S
H209 C202 0.929 1_545 S
H210 C233 0.931 . S
H211 C234 0.931 . S
O212 Eu168 2.462 . S
O212 C232 1.252 . S
O213 Eu168 2.373 . S
O213 C224 1.249 . S
O214 Eu179 2.335 . S
O214 C224 1.264 . S
O215 Eu168 2.432 . S
O215 C232 1.268 . S
O216 Eu168 2.291 . S
O216 C231 1.255 . S
O217 Eu179 2.372 . S
O217 C231 1.257 . S
O218 Eu179 2.462 . S
O218 C243 1.252 . S
O219 Eu179 2.373 . S
O219 C235 1.249 . S
O220 Eu168 2.335 . S
O220 C235 1.264 . S
O221 Eu179 2.432 . S
O221 C243 1.268 . S
O222 Eu179 2.291 . S
O222 C242 1.255 . S
O223 Eu168 2.372 . S
O223 C242 1.257 . S
C224 O213 1.249 . S
C224 O214 1.264 . S
C225 C228 1.382 . S
C225 C230 1.390 . S
C225 C232 1.506 . S
C226 C227 1.398 . S
C226 C230 1.392 . S
C227 C226 1.398 . S
C227 C229 1.372 . S
C227 H244 0.931 . S
C228 C225 1.382 . S
C228 C229 1.390 . S
C228 H245 0.931 . S
C229 C227 1.372 . S
C229 C228 1.390 . S
C229 H246 0.929 . S
C230 C225 1.390 . S
C230 C226 1.392 . S
C230 H247 0.930 . S
C231 O216 1.255 . S
C231 O217 1.257 . S
C232 Eu168 2.787 . S
C232 O212 1.252 . S
C232 O215 1.268 . S
C232 C225 1.506 . S
C233 C200 1.439 . S
C233 H210 0.931 . S
C233 C234 1.374 . S
C234 C205 1.387 . S
C234 H211 0.931 . S
C234 C233 1.374 . S
C235 O219 1.249 . S
C235 O220 1.264 . S
C236 C239 1.382 . S
C236 C240 1.390 . S
C236 C243 1.506 . S
C237 C238 1.398 . S
C237 C240 1.392 . S
C238 C237 1.398 . S
C238 C241 1.372 . S
C238 H248 0.931 . S
C239 C236 1.382 . S
C239 C241 1.390 . S
C239 H249 0.931 . S
C240 C236 1.390 . S
C240 C237 1.392 . S
C240 H250 0.930 . S
C241 C238 1.372 . S
C241 C239 1.390 . S
C241 H251 0.929 . S
C242 O222 1.255 . S
C242 O223 1.257 . S
C243 Eu179 2.787 . S
C243 O218 1.252 . S
C243 O221 1.268 . S
C243 C236 1.506 . S
H244 C227 0.931 . S
H245 C228 0.931 . S
H246 C229 0.929 . S
H247 C230 0.930 . S
H248 C238 0.931 . S
H249 C239 0.931 . S
H250 C240 0.930 . S
H251 C241 0.929 . S
Eu252 N281 2.600 . S
Eu252 N287 2.562 . S
Eu252 O296 2.462 . S
Eu252 O297 2.373 . S
Eu252 O299 2.432 . S
Eu252 O300 2.291 . S
Eu252 O304 2.335 . S
Eu252 O307 2.372 . S
Eu252 C316 2.787 . S
C253 N254 1.365 . S
C253 C256 1.405 . S
C253 C260 1.448 . S
N254 C253 1.365 . S
N254 C257 1.319 . S
N254 Eu263 2.600 . S
C255 C257 1.397 . S
C255 C258 1.367 . S
C255 H275 0.931 1_545 S
C256 C253 1.405 . S
C256 C258 1.403 . S
C256 C262 1.439 . S
C257 N254 1.319 . S
C257 C255 1.397 . S
C257 H268 0.930 . S
C258 C255 1.367 . S
C258 C256 1.403 . S
C258 H279 0.929 1_545 S
C259 C260 1.430 . S
C259 C261 1.387 . S
C259 C265 1.404 . S
C260 C253 1.448 . S
C260 C259 1.430 . S
C260 N264 1.351 . S
C261 C259 1.387 . S
C261 C262 1.374 . S
C261 H276 0.931 . S
C262 C256 1.439 . S
C262 C261 1.374 . S
C262 H277 0.931 . S
Eu263 N254 2.600 . S
Eu263 N264 2.562 . S
Eu263 O298 2.335 . S
Eu263 O301 2.372 . S
Eu263 O302 2.462 . S
Eu263 O303 2.373 . S
Eu263 O305 2.432 . S
Eu263 O306 2.291 . S
Eu263 C327 2.787 . S
N264 C260 1.351 . S
N264 Eu263 2.562 . S
N264 C266 1.325 . S
C265 C259 1.404 . S
C265 C267 1.366 . S
C265 H273 0.930 . S
C266 N264 1.325 . S
C266 C267 1.416 . S
C266 H272 0.929 . S
C267 C265 1.366 . S
C267 C266 1.416 . S
C267 H269 0.930 . S
H268 C257 0.930 . S
H269 C267 0.930 . S
H270 C285 0.930 . S
H271 C292 0.930 . S
H272 C266 0.929 . S
H273 C265 0.930 . S
H274 C288 0.929 . S
H275 C255 0.931 1_565 S
H276 C261 0.931 . S
H277 C262 0.931 . S
H278 C283 0.931 . S
H279 C258 0.929 1_565 S
H280 C291 0.930 . S
N281 Eu252 2.600 . S
N281 C282 1.365 . S
N281 C285 1.319 . S
C282 N281 1.365 . S
C282 C284 1.405 . S
C282 C290 1.448 . S
C283 H278 0.931 . S
C283 C285 1.397 . S
C283 C286 1.367 . S
C284 C282 1.405 . S
C284 C286 1.403 . S
C284 C317 1.439 1_655 S
C285 H270 0.930 . S
C285 N281 1.319 . S
C285 C283 1.397 . S
C286 C283 1.367 . S
C286 C284 1.403 . S
C286 H293 0.929 . S
N287 Eu252 2.562 . S
N287 C288 1.325 . S
N287 C290 1.351 . S
C288 H274 0.929 . S
C288 N287 1.325 . S
C288 C292 1.416 1_655 S
C289 C290 1.430 1_455 S
C289 C291 1.404 . S
C289 C318 1.387 . S
C290 C282 1.448 . S
C290 N287 1.351 . S
C290 C289 1.430 1_655 S
C291 H280 0.930 . S
C291 C289 1.404 . S
C291 C292 1.366 . S
C292 H271 0.930 . S
C292 C288 1.416 1_455 S
C292 C291 1.366 . S
H293 C286 0.929 . S
H294 C317 0.931 . S
H295 C318 0.931 . S
O296 Eu252 2.462 . S
O296 C316 1.252 . S
O297 Eu252 2.373 . S
O297 C308 1.249 . S
O298 Eu263 2.335 . S
O298 C308 1.264 . S
O299 Eu252 2.432 . S
O299 C316 1.268 . S
O300 Eu252 2.291 . S
O300 C315 1.255 . S
O301 Eu263 2.372 . S
O301 C315 1.257 . S
O302 Eu263 2.462 . S
O302 C327 1.252 . S
O303 Eu263 2.373 . S
O303 C319 1.249 . S
O304 Eu252 2.335 . S
O304 C319 1.264 . S
O305 Eu263 2.432 . S
O305 C327 1.268 . S
O306 Eu263 2.291 . S
O306 C326 1.255 . S
O307 Eu252 2.372 . S
O307 C326 1.257 . S
C308 O297 1.249 . S
C308 O298 1.264 . S
C309 C312 1.382 . S
C309 C314 1.390 . S
C309 C316 1.506 . S
C310 C311 1.398 . S
C310 C314 1.392 . S
C311 C310 1.398 . S
C311 C313 1.372 . S
C311 H328 0.931 . S
C312 C309 1.382 . S
C312 C313 1.390 . S
C312 H329 0.931 . S
C313 C311 1.372 . S
C313 C312 1.390 . S
C313 H330 0.929 . S
C314 C309 1.390 . S
C314 C310 1.392 . S
C314 H331 0.930 . S
C315 O300 1.255 . S
C315 O301 1.257 . S
C316 Eu252 2.787 . S
C316 O296 1.252 . S
C316 O299 1.268 . S
C316 C309 1.506 . S
C317 C284 1.439 1_455 S
C317 H294 0.931 . S
C317 C318 1.374 . S
C318 C289 1.387 . S
C318 H295 0.931 . S
C318 C317 1.374 . S
C319 O303 1.249 . S
C319 O304 1.264 . S
C320 C323 1.382 . S
C320 C324 1.390 . S
C320 C327 1.506 . S
C321 C322 1.398 . S
C321 C324 1.392 . S
C322 C321 1.398 . S
C322 C325 1.372 . S
C322 H332 0.931 . S
C323 C320 1.382 . S
C323 C325 1.390 . S
C323 H333 0.931 . S
C324 C320 1.390 . S
C324 C321 1.392 . S
C324 H334 0.930 . S
C325 C322 1.372 . S
C325 C323 1.390 . S
C325 H335 0.929 . S
C326 O306 1.255 . S
C326 O307 1.257 . S
C327 Eu263 2.787 . S
C327 O302 1.252 . S
C327 O305 1.268 . S
C327 C320 1.506 . S
H328 C311 0.931 . S
H329 C312 0.931 . S
H330 C313 0.929 . S
H331 C314 0.930 . S
H332 C322 0.931 . S
H333 C323 0.931 . S
H334 C324 0.930 . S
H335 C325 0.929 . S
C336 C337 1.386 1_556 S
C336 C338 1.383 1_556 S
C336 H352 0.951 . S
C337 C336 1.386 1_554 S
C337 C341 1.383 . S
C338 C336 1.383 1_554 S
C338 C339 1.402 . S
C338 H353 0.951 1_554 S
C339 C338 1.402 . S
C339 C340 1.375 . S
C339 C342 1.481 . S
C340 C339 1.375 . S
C340 C341 1.367 . S
C340 H354 0.951 . S
C341 C337 1.383 . S
C341 C340 1.367 . S
C341 H355 0.950 . S
C342 C339 1.481 . S
C342 C343 1.297 . S
C342 H356 0.950 . S
C343 C342 1.297 . S
C343 C344 1.479 . S
C343 H357 0.950 . S
C344 C343 1.479 . S
C344 C345 1.375 . S
C344 C350 1.404 . S
C345 C344 1.375 . S
C345 C346 1.367 . S
C345 H358 0.950 . S
C346 C345 1.367 . S
C346 C347 1.393 . S
C346 H359 0.951 1_554 S
C347 C346 1.393 . S
C347 C349 1.384 . S
H348 C350 0.949 . S
C349 C347 1.384 . S
C349 C350 1.385 . S
C349 H351 0.950 . S
C350 C344 1.404 . S
C350 H348 0.949 . S
C350 C349 1.385 . S
H351 C349 0.950 . S
H352 C336 0.951 . S
H353 C338 0.951 1_556 S
H354 C340 0.951 . S
H355 C341 0.950 . S
H356 C342 0.950 . S
H357 C343 0.950 . S
H358 C345 0.950 . S
H359 C346 0.951 1_556 S
C360 C361 1.386 . S
C360 C362 1.383 . S
C360 H376 0.951 . S
C361 C360 1.386 . S
C361 C365 1.383 . S
C362 C360 1.383 . S
C362 C363 1.402 . S
C362 H377 0.951 . S
C363 C362 1.402 . S
C363 C364 1.375 . S
C363 C366 1.481 . S
C364 C363 1.375 . S
C364 C365 1.367 . S
C364 H378 0.951 . S
C365 C361 1.383 . S
C365 C364 1.367 . S
C365 H379 0.950 . S
C366 C363 1.481 . S
C366 C367 1.297 . S
C366 H380 0.950 . S
C367 C366 1.297 . S
C367 C368 1.479 . S
C367 H381 0.950 . S
C368 C367 1.479 . S
C368 C369 1.375 . S
C368 C374 1.404 . S
C369 C368 1.375 . S
C369 C370 1.369 . S
C369 H382 0.950 . S
C370 C369 1.369 . S
C370 C371 1.392 . S
C370 H383 0.951 . S
C371 C370 1.392 . S
C371 C373 1.384 . S
H372 C374 0.949 . S
C373 C371 1.384 . S
C373 C374 1.385 . S
C373 H375 0.950 . S
C374 C368 1.404 . S
C374 H372 0.949 . S
C374 C373 1.385 . S
H375 C373 0.950 . S
H376 C360 0.951 . S
H377 C362 0.951 . S
H378 C364 0.951 . S
H379 C365 0.950 . S
H380 C366 0.950 . S
H381 C367 0.950 . S
H382 C369 0.950 . S
H383 C370 0.951 . S
C384 C385 1.386 1_554 S
C384 C386 1.383 . S
C384 H400 0.951 . S
C385 C384 1.386 1_556 S
C385 C389 1.383 . S
C386 C384 1.383 . S
C386 C387 1.402 1_554 S
C386 H401 0.951 . S
C387 C386 1.402 1_556 S
C387 C388 1.375 . S
C387 C390 1.481 1_545 S
C388 C387 1.375 . S
C388 C389 1.367 . S
C388 H402 0.951 . S
C389 C385 1.383 . S
C389 C388 1.367 . S
C389 H403 0.950 . S
C390 C387 1.481 1_565 S
C390 C391 1.298 1_465 S
C390 H404 0.950 . S
C391 C390 1.298 1_645 S
C391 C392 1.468 1_545 S
C391 H405 0.961 1_556 S
C392 C391 1.468 1_565 S
C392 C393 1.375 1_556 S
C392 C398 1.404 . S
C393 C392 1.375 1_554 S
C393 C394 1.369 . S
C393 H406 0.958 . S
C394 C393 1.369 . S
C394 C395 1.392 1_554 S
C394 H407 0.951 . S
C395 C394 1.392 1_556 S
C395 C397 1.384 . S
H396 C398 0.949 . S
C397 C395 1.384 . S
C397 C398 1.385 . S
C397 H399 0.950 . S
C398 C392 1.404 . S
C398 H396 0.949 . S
C398 C397 1.385 . S
H399 C397 0.950 . S
H400 C384 0.951 . S
H401 C386 0.951 . S
H402 C388 0.951 . S
H403 C389 0.950 . S
H404 C390 0.950 . S
H405 C391 0.961 1_554 S
H406 C393 0.958 . S
H407 C394 0.951 . S
C408 C409 1.386 . S
C408 C410 1.383 . S
C408 H424 0.951 . S
C409 C408 1.386 . S
C409 C413 1.383 . S
C410 C408 1.383 . S
C410 C411 1.402 . S
C410 H425 0.951 . S
C411 C410 1.402 . S
C411 C412 1.375 . S
C411 C414 1.481 1_655 S
C412 C411 1.375 . S
C412 C413 1.367 . S
C412 H426 0.951 . S
C413 C409 1.383 . S
C413 C412 1.367 . S
C413 H427 0.950 . S
C414 C411 1.481 1_455 S
C414 C415 1.297 1_545 S
C414 H428 0.950 . S
C415 C414 1.297 1_565 S
C415 C416 1.479 . S
C415 H429 0.950 . S
C416 C415 1.479 . S
C416 C417 1.375 . S
C416 C422 1.404 . S
C417 C416 1.375 . S
C417 C418 1.369 . S
C417 H430 0.950 . S
C418 C417 1.369 . S
C418 C419 1.392 . S
C418 H431 0.951 . S
C419 C418 1.392 . S
C419 C421 1.384 . S
H420 C422 0.949 . S
C421 C419 1.384 . S
C421 C422 1.385 . S
C421 H423 0.950 . S
C422 C416 1.404 . S
C422 H420 0.949 . S
C422 C421 1.385 . S
H423 C421 0.950 . S
H424 C408 0.951 . S
H425 C410 0.951 . S
H426 C412 0.951 . S
H427 C413 0.950 . S
H428 C414 0.950 . S
H429 C415 0.950 . S
H430 C417 0.950 . S
H431 C418 0.951 . S
C432 C433 1.386 . S
C432 C434 1.383 . S
C432 H448 0.951 . S
C433 C432 1.386 . S
C433 C437 1.383 . S
C434 C432 1.383 . S
C434 C435 1.402 . S
C434 H449 0.951 . S
C435 C434 1.402 . S
C435 C436 1.375 . S
C435 C438 1.481 . S
C436 C435 1.375 . S
C436 C437 1.367 . S
C436 H450 0.951 . S
C437 C433 1.383 . S
C437 C436 1.367 . S
C437 H451 0.950 . S
C438 C435 1.481 . S
C438 C439 1.297 . S
C438 H452 0.950 . S
C439 C438 1.297 . S
C439 C440 1.479 . S
C439 H453 0.950 . S
C440 C439 1.479 . S
C440 C441 1.375 . S
C440 C446 1.404 . S
C441 C440 1.375 . S
C441 C442 1.369 . S
C441 H454 0.950 . S
C442 C441 1.369 . S
C442 C443 1.392 . S
C442 H455 0.951 . S
C443 C442 1.392 . S
C443 C445 1.384 . S
H444 C446 0.949 . S
C445 C443 1.384 . S
C445 C446 1.385 . S
C445 H447 0.950 . S
C446 C440 1.404 . S
C446 H444 0.949 . S
C446 C445 1.385 . S
H447 C445 0.950 . S
H448 C432 0.951 . S
H449 C434 0.951 . S
H450 C436 0.951 . S
H451 C437 0.950 . S
H452 C438 0.950 . S
H453 C439 0.950 . S
H454 C441 0.950 . S
H455 C442 0.951 . S
C456 C457 1.386 . S
C456 C458 1.383 . S
C456 H472 0.951 . S
C457 C456 1.386 . S
C457 C461 1.383 . S
C458 C456 1.383 . S
C458 C459 1.402 . S
C458 H473 0.951 . S
C459 C458 1.402 . S
C459 C460 1.375 . S
C459 C462 1.481 . S
C460 C459 1.375 . S
C460 C461 1.367 . S
C460 H474 0.951 . S
C461 C457 1.383 . S
C461 C460 1.367 . S
C461 H475 0.950 . S
C462 C459 1.481 . S
C462 C463 1.297 . S
C462 H476 0.950 . S
C463 C462 1.297 . S
C463 C464 1.479 . S
C463 H477 0.950 . S
C464 C463 1.479 . S
C464 C465 1.375 . S
C464 C470 1.404 . S
C465 C464 1.375 . S
C465 C466 1.369 . S
C465 H478 0.950 . S
C466 C465 1.369 . S
C466 C467 1.392 . S
C466 H479 0.951 . S
C467 C466 1.392 . S
C467 C469 1.384 . S
H468 C470 0.949 . S
C469 C467 1.384 . S
C469 C470 1.385 . S
C469 H471 0.950 . S
C470 C464 1.404 . S
C470 H468 0.949 . S
C470 C469 1.385 . S
H471 C469 0.950 . S
H472 C456 0.951 . S
H473 C458 0.951 . S
H474 C460 0.951 . S
H475 C461 0.950 . S
H476 C462 0.950 . S
H477 C463 0.950 . S
H478 C465 0.950 . S
H479 C466 0.951 . S
C480 C481 1.386 . S
C480 C482 1.383 . S
C480 H496 0.951 . S
C481 C480 1.386 . S
C481 C485 1.383 . S
C482 C480 1.383 . S
C482 C483 1.402 . S
C482 H497 0.951 . S
C483 C482 1.402 . S
C483 C484 1.375 . S
C483 C486 1.481 . S
C484 C483 1.375 . S
C484 C485 1.367 . S
C484 H498 0.951 . S
C485 C481 1.383 . S
C485 C484 1.367 . S
C485 H499 0.950 . S
C486 C483 1.481 . S
C486 C487 1.297 . S
C486 H500 0.950 . S
C487 C486 1.297 . S
C487 C488 1.479 . S
C487 H501 0.950 . S
C488 C487 1.479 . S
C488 C489 1.375 . S
C488 C494 1.404 . S
C489 C488 1.375 . S
C489 C490 1.369 . S
C489 H502 0.950 . S
C490 C489 1.369 . S
C490 C491 1.392 . S
C490 H503 0.951 . S
C491 C490 1.392 . S
C491 C493 1.384 . S
H492 C494 0.949 . S
C493 C491 1.384 . S
C493 C494 1.385 . S
C493 H495 0.950 . S
C494 C488 1.404 . S
C494 H492 0.949 . S
C494 C493 1.385 . S
H495 C493 0.950 . S
H496 C480 0.951 . S
H497 C482 0.951 . S
H498 C484 0.951 . S
H499 C485 0.950 . S
H500 C486 0.950 . S
H501 C487 0.950 . S
H502 C489 0.950 . S
H503 C490 0.951 . S
C504 C505 1.386 . S
C504 C506 1.383 . S
C504 H520 0.951 . S
C505 C504 1.386 . S
C505 C509 1.383 . S
C506 C504 1.383 . S
C506 C507 1.402 . S
C506 H521 0.951 . S
C507 C506 1.402 . S
C507 C508 1.375 . S
C507 C510 1.481 . S
C508 C507 1.375 . S
C508 C509 1.367 . S
C508 H522 0.951 . S
C509 C505 1.383 . S
C509 C508 1.367 . S
C509 H523 0.950 . S
C510 C507 1.481 . S
C510 C511 1.297 . S
C510 H524 0.950 . S
C511 C510 1.297 . S
C511 C512 1.479 . S
C511 H525 0.950 . S
C512 C511 1.479 . S
C512 C513 1.375 . S
C512 C518 1.404 . S
C513 C512 1.375 . S
C513 C514 1.369 . S
C513 H526 0.950 . S
C514 C513 1.369 . S
C514 C515 1.392 . S
C514 H527 0.951 . S
C515 C514 1.392 . S
C515 C517 1.384 . S
H516 C518 0.949 . S
C517 C515 1.384 . S
C517 C518 1.385 . S
C517 H519 0.950 . S
C518 C512 1.404 . S
C518 H516 0.949 . S
C518 C517 1.385 . S
H519 C517 0.950 . S
H520 C504 0.951 . S
H521 C506 0.951 . S
H522 C508 0.951 . S
H523 C509 0.950 . S
H524 C510 0.950 . S
H525 C511 0.950 . S
H526 C513 0.950 . S
H527 C514 0.951 . S
C528 C529 1.386 . S
C528 C530 1.383 . S
C528 H544 0.951 . S
C529 C528 1.386 . S
C529 C533 1.383 . S
C530 C528 1.383 . S
C530 C531 1.402 . S
C530 H545 0.951 . S
C531 C530 1.402 . S
C531 C532 1.375 . S
C531 C534 1.481 . S
C532 C531 1.375 . S
C532 C533 1.367 . S
C532 H546 0.951 . S
C533 C529 1.383 . S
C533 C532 1.367 . S
C533 H547 0.950 . S
C534 C531 1.481 . S
C534 C535 1.297 . S
C534 H548 0.950 . S
C535 C534 1.297 . S
C535 C536 1.479 . S
C535 H549 0.950 . S
C536 C535 1.479 . S
C536 C537 1.375 . S
C536 C542 1.404 . S
C537 C536 1.375 . S
C537 C538 1.369 . S
C537 H550 0.950 . S
C538 C537 1.369 . S
C538 C539 1.392 1_655 S
C538 H551 0.951 . S
C539 C538 1.392 1_455 S
C539 C541 1.384 . S
H540 C542 0.949 . S
C541 C539 1.384 . S
C541 C542 1.385 1_455 S
C541 H543 0.950 . S
C542 C536 1.404 . S
C542 H540 0.949 . S
C542 C541 1.385 1_655 S
H543 C541 0.950 . S
H544 C528 0.951 . S
H545 C530 0.951 . S
H546 C532 0.951 . S
H547 C533 0.950 . S
H548 C534 0.950 . S
H549 C535 0.950 . S
H550 C537 0.950 . S
H551 C538 0.951 . S
C552 C553 1.386 . S
C552 C554 1.383 . S
C552 H568 0.951 . S
C553 C552 1.386 . S
C553 C557 1.383 . S
C554 C552 1.383 . S
C554 C555 1.402 . S
C554 H569 0.951 . S
C555 C554 1.402 . S
C555 C556 1.375 . S
C555 C558 1.481 . S
C556 C555 1.375 . S
C556 C557 1.367 . S
C556 H570 0.951 . S
C557 C553 1.383 . S
C557 C556 1.367 . S
C557 H571 0.950 . S
C558 C555 1.481 . S
C558 C559 1.297 . S
C558 H572 0.950 . S
C559 C558 1.297 . S
C559 C560 1.479 . S
C559 H573 0.950 . S
C560 C559 1.479 . S
C560 C561 1.375 . S
C560 C566 1.404 1_655 S
C561 C560 1.375 . S
C561 C562 1.369 . S
C561 H574 0.950 . S
C562 C561 1.369 . S
C562 C563 1.392 1_655 S
C562 H575 0.951 . S
C563 C562 1.392 1_455 S
C563 C565 1.384 . S
H564 C566 0.949 . S
C565 C563 1.384 . S
C565 C566 1.385 . S
C565 H567 0.950 . S
C566 C560 1.404 1_455 S
C566 H564 0.949 . S
C566 C565 1.385 . S
H567 C565 0.950 . S
H568 C552 0.951 . S
H569 C554 0.951 . S
H570 C556 0.951 . S
H571 C557 0.950 . S
H572 C558 0.950 . S
H573 C559 0.950 . S
H574 C561 0.950 . S
H575 C562 0.951 . S
C576 C577 1.386 . S
C576 C578 1.383 . S
C576 H592 0.951 . S
C577 C576 1.386 . S
C577 C581 1.383 1_655 S
C578 C576 1.383 . S
C578 C579 1.402 1_655 S
C578 H593 0.951 . S
C579 C578 1.402 1_455 S
C579 C580 1.375 . S
C579 C582 1.481 . S
C580 C579 1.375 . S
C580 C581 1.367 . S
C580 H594 0.951 . S
C581 C577 1.383 1_455 S
C581 C580 1.367 . S
C581 H595 0.950 . S
C582 C579 1.481 . S
C582 C583 1.297 . S
C582 H596 0.950 . S
C583 C582 1.297 . S
C583 C584 1.479 . S
C583 H597 0.950 . S
C584 C583 1.479 . S
C584 C585 1.375 . S
C584 C590 1.404 . S
C585 C584 1.375 . S
C585 C586 1.369 . S
C585 H598 0.950 . S
C586 C585 1.369 . S
C586 C587 1.392 . S
C586 H599 0.951 . S
C587 C586 1.392 . S
C587 C589 1.384 . S
H588 C590 0.949 . S
C589 C587 1.384 . S
C589 C590 1.385 . S
C589 H591 0.950 . S
C590 C584 1.404 . S
C590 H588 0.949 . S
C590 C589 1.385 . S
H591 C589 0.950 . S
H592 C576 0.951 . S
H593 C578 0.951 . S
H594 C580 0.951 . S
H595 C581 0.950 . S
H596 C582 0.950 . S
H597 C583 0.950 . S
H598 C585 0.950 . S
H599 C586 0.951 . S
C600 C601 1.386 . S
C600 C602 1.383 . S
C600 H616 0.951 . S
C601 C600 1.386 . S
C601 C605 1.383 . S
C602 C600 1.383 . S
C602 C603 1.402 . S
C602 H617 0.951 . S
C603 C602 1.402 . S
C603 C604 1.375 . S
C603 C606 1.481 . S
C604 C603 1.375 . S
C604 C605 1.367 . S
C604 H618 0.951 . S
C605 C601 1.383 . S
C605 C604 1.367 . S
C605 H619 0.950 . S
C606 C603 1.481 . S
C606 C607 1.297 . S
C606 H620 0.950 . S
C607 C606 1.297 . S
C607 C608 1.479 . S
C607 H621 0.950 . S
C608 C607 1.479 . S
C608 C609 1.375 1_455 S
C608 C614 1.404 . S
C609 C608 1.375 1_655 S
C609 C610 1.369 . S
C609 H622 0.950 . S
C610 C609 1.369 . S
C610 C611 1.392 . S
C610 H623 0.951 . S
C611 C610 1.392 . S
C611 C613 1.384 1_655 S
H612 C614 0.949 . S
C613 C611 1.384 1_455 S
C613 C614 1.385 . S
C613 H615 0.950 . S
C614 C608 1.404 . S
C614 H612 0.949 . S
C614 C613 1.385 . S
H615 C613 0.950 . S
H616 C600 0.951 . S
H617 C602 0.951 . S
H618 C604 0.951 . S
H619 C605 0.950 . S
H620 C606 0.950 . S
H621 C607 0.950 . S
H622 C609 0.950 . S
H623 C610 0.951 . S
C337 C158 1.509 1_554 S
C347 C63 1.464 . S
C361 C231 1.485 . S
C371 C326 1.517 . S
C385 C74 1.486 . S
C395 C147 1.519 1_556 S
C409 C315 1.508 . S
C419 C242 1.509 . S
C433 C321 1.244 . S
C443 C56 1.254 . S
C457 C153 1.237 . S
C467 C224 1.275 . S
C481 C151 1.289 . S
C491 C226 1.259 . S
C505 C319 1.269 . S
C515 C58 1.128 . S
C529 C140 1.273 . S
C539 C237 1.200 . S
C553 C308 1.281 . S
C563 C69 1.151 . S
C577 C310 1.246 . S
C587 C67 1.293 . S
C601 C235 1.271 . S
C611 C142 1.117 . S
