# Generated by pormake.
# Topology unh, (4)-cn, num edge types: 1
# Building blocks:
#     Node 0, Type 0, BuildingBlock: KOZSID_clean_sbu_0, # of connection points: 4
#     Node 1, Type 0, BuildingBlock: KOZSID_clean_sbu_0, # of connection points: 4
#     Node 2, Type 0, BuildingBlock: KOZSID_clean_sbu_0, # of connection points: 4
#     Node 3, Type 0, BuildingBlock: KOZSID_clean_sbu_0, # of connection points: 4
#     Node 4, Type 0, BuildingBlock: KOZSID_clean_sbu_0, # of connection points: 4
#     Node 5, Type 0, BuildingBlock: KOZSID_clean_sbu_0, # of connection points: 4
#     Edge 6, Type (0, 0), BuildingBlock: CIFDUS_clean_linker_0, # of connection points: 2
#     Edge 7, Type (0, 0), BuildingBlock: CIFDUS_clean_linker_0, # of connection points: 2
#     Edge 8, Type (0, 0), BuildingBlock: CIFDUS_clean_linker_0, # of connection points: 2
#     Edge 9, Type (0, 0), BuildingBlock: CIFDUS_clean_linker_0, # of connection points: 2
#     Edge 10, Type (0, 0), BuildingBlock: CIFDUS_clean_linker_0, # of connection points: 2
#     Edge 11, Type (0, 0), BuildingBlock: CIFDUS_clean_linker_0, # of connection points: 2
#     Edge 12, Type (0, 0), BuildingBlock: CIFDUS_clean_linker_0, # of connection points: 2
#     Edge 13, Type (0, 0), BuildingBlock: CIFDUS_clean_linker_0, # of connection points: 2
#     Edge 14, Type (0, 0), BuildingBlock: CIFDUS_clean_linker_0, # of connection points: 2
#     Edge 15, Type (0, 0), BuildingBlock: CIFDUS_clean_linker_0, # of connection points: 2
#     Edge 16, Type (0, 0), BuildingBlock: CIFDUS_clean_linker_0, # of connection points: 2
#     Edge 17, Type (0, 0), BuildingBlock: CIFDUS_clean_linker_0, # of connection points: 2
# Relax obj value: 0.012
# Max RMSD: 0.279
# Mean RMSD: 0.251
data_MOF--net-unh--node1-KOZSID_clean_sbu_0--edge1-CIFDUS_clean_linker_0
_symmetry_space_group_name_H-M    P1
_symmetry_Int_Tables_number       1
_symmetry_cell_setting            triclinic
loop_
_symmetry_equiv_pos_as_xyz
'x, y, z'
_cell_length_a     47.469121
_cell_length_b     52.378373
_cell_length_c     20.43477
_cell_angle_alpha  90.064625
_cell_angle_beta   90.231373
_cell_angle_gamma 120.21086
loop_
_atom_site_label
_atom_site_type_symbol
_atom_site_fract_x
_atom_site_fract_y
_atom_site_fract_z
_atom_type_partial_charge
C0 C 0.23836 0.62715 0.21843 0.0
C1 C 0.24496 0.64474 0.27362 0.0
C2 C 0.21774 0.64699 0.28472 0.0
C3 C 0.19618 0.631 0.23546 0.0
N4 N 0.20818 0.6189 0.19415 0.0
Co5 Co 0.18708 0.59732 0.11172 0.0
N6 N 0.15508 0.61137 0.1111 0.0
C7 C 0.14799 0.62299 0.16305 0.0
C8 C 0.12401 0.62962 0.14987 0.0
C9 C 0.115 0.62113 0.08613 0.0
C10 C 0.13397 0.60966 0.06378 0.0
N11 N 0.16712 0.57631 0.02807 0.0
C12 C 0.1461 0.57855 0.98639 0.0
C13 C 0.13778 0.55872 0.93457 0.0
C14 C 0.1534 0.54317 0.94504 0.0
C15 C 0.17046 0.55429 1.0022 0.0
N16 N 0.21748 0.58177 0.11403 0.0
C17 C 0.21334 0.55757 0.08243 0.0
C18 C 0.23692 0.55065 0.09714 0.0
C19 C 0.25728 0.57194 0.14065 0.0
C20 C 0.24507 0.5909 0.1493 0.0
N21 N 0.15535 0.56285 0.16233 0.0
C22 C 0.10821 0.52521 0.25275 0.0
C23 C 0.09908 0.53008 0.19069 0.0
C24 C 0.12293 0.54864 0.14618 0.0
C25 C 0.14163 0.53718 0.26549 0.0
C26 C 0.16472 0.5558 0.21972 0.0
N27 N 0.21915 0.63286 0.06374 0.0
C28 C 0.27124 0.66051 1.00944 0.0
C29 C 0.27307 0.68745 0.02582 0.0
C30 C 0.24583 0.68592 0.05584 0.0
C31 C 0.21991 0.65893 0.07551 0.0
C32 C 0.24378 0.63346 0.02769 0.0
H33 H 0.20155 0.65993 0.10378 0.0
H34 H 0.24338 0.61324 1.01549 0.0
H35 H 0.11482 0.55305 0.10057 0.0
H36 H 0.19016 0.56593 0.23269 0.0
C37 C 0.16759 0.63129 0.21952 0.0
C38 C 0.26003 0.61712 0.19163 0.0
C39 C 0.12908 0.59498 0.99974 0.0
C40 C 0.19097 0.54557 0.03109 0.0
H41 H 0.2671 0.65519 0.3025 0.0
H42 H 0.21477 0.66004 0.32224 0.0
H43 H 0.11472 0.64003 0.18217 0.0
H44 H 0.09623 0.62276 0.05942 0.0
H45 H 0.12088 0.55473 0.89491 0.0
H46 H 0.15218 0.52563 0.91489 0.0
H47 H 0.23984 0.53308 0.07653 0.0
H48 H 0.27881 0.57345 0.16287 0.0
H49 H 0.07371 0.52136 0.17793 0.0
H50 H 0.15003 0.53333 0.31179 0.0
H51 H 0.29127 0.66018 0.98516 0.0
H52 H 0.24476 0.70564 0.06669 0.0
C53 C 0.63284 0.21123 0.3877 0.0
C54 C 0.61594 0.21657 0.43594 0.0
C55 C 0.58466 0.19296 0.43507 0.0
C56 C 0.58408 0.17468 0.38616 0.0
N57 N 0.61305 0.18526 0.35647 0.0
Co58 Co 0.62246 0.16769 0.27903 0.0
N59 N 0.57534 0.14192 0.25784 0.0
C60 C 0.55053 0.13591 0.29874 0.0
C61 C 0.52059 0.11566 0.27375 0.0
C62 C 0.52689 0.10782 0.21401 0.0
C63 C 0.56046 0.12373 0.20592 0.0
N64 N 0.63256 0.15145 0.19986 0.0
C65 C 0.61289 0.13427 0.15036 0.0
C66 C 0.63037 0.12781 0.10548 0.0
C67 C 0.66163 0.14046 0.12873 0.0
C68 C 0.66165 0.15406 0.1861 0.0
N69 N 0.66929 0.1926 0.30169 0.0
C70 C 0.69369 0.18876 0.28037 0.0
C71 C 0.72361 0.2096 0.3045 0.0
C72 C 0.71768 0.22783 0.34288 0.0
C73 C 0.68436 0.21712 0.33959 0.0
N74 N 0.61972 0.13528 0.33377 0.0
C75 C 0.60152 0.08529 0.41397 0.0
C76 C 0.60137 0.08339 0.34537 0.0
C77 C 0.6095 0.10807 0.30686 0.0
C78 C 0.61464 0.11382 0.44105 0.0
C79 C 0.62449 0.13847 0.40017 0.0
N80 N 0.62453 0.19982 0.22592 0.0
C81 C 0.65441 0.24218 0.15622 0.0
C82 C 0.63088 0.25056 0.16528 0.0
C83 C 0.60352 0.23229 0.20304 0.0
C84 C 0.60069 0.20704 0.23229 0.0
C85 C 0.65082 0.21679 0.18704 0.0
H86 H 0.57957 0.1939 0.26185 0.0
H87 H 0.66978 0.2114 0.18091 0.0
H88 H 0.60617 0.10435 0.25526 0.0
H89 H 0.63457 0.15989 0.423 0.0
C90 C 0.55606 0.15119 0.35811 0.0
C91 C 0.66775 0.23047 0.37349 0.0
C92 C 0.57706 0.11819 0.15188 0.0
C93 C 0.68868 0.17037 0.22678 0.0
H94 H 0.62497 0.23566 0.46768 0.0
H95 H 0.56434 0.19038 0.46396 0.0
H96 H 0.49701 0.10749 0.2963 0.0
H97 H 0.50894 0.09152 0.181 0.0
H98 H 0.62104 0.11383 0.06255 0.0
H99 H 0.68177 0.1394 0.10698 0.0
H100 H 0.74717 0.21241 0.29223 0.0
H101 H 0.73588 0.24714 0.36908 0.0
H102 H 0.59401 0.06278 0.32031 0.0
H103 H 0.61632 0.11737 0.49336 0.0
H104 H 0.67594 0.25561 0.12722 0.0
H105 H 0.58437 0.2375 0.21023 0.0
C106 C 0.44563 0.62698 0.31549 0.0
C107 C 0.45999 0.64924 0.26925 0.0
C108 C 0.49127 0.65471 0.26078 0.0
C109 C 0.49454 0.63586 0.30275 0.0
N110 N 0.46724 0.61896 0.33697 0.0
Co111 Co 0.46249 0.59169 0.40931 0.0
N112 N 0.51046 0.60997 0.42087 0.0
C113 C 0.53293 0.62724 0.37649 0.0
C114 C 0.56417 0.63549 0.39534 0.0
C115 C 0.56114 0.62212 0.45465 0.0
C116 C 0.52809 0.60633 0.46878 0.0
N117 N 0.45702 0.56458 0.48249 0.0
C118 C 0.47889 0.56561 0.52701 0.0
C119 C 0.46431 0.54142 0.56872 0.0
C120 C 0.43265 0.52439 0.5485 0.0
C121 C 0.42949 0.53904 0.49602 0.0
N122 N 0.41479 0.57283 0.39651 0.0
C123 C 0.39238 0.54546 0.41548 0.0
C124 C 0.36129 0.53776 0.39674 0.0
C125 C 0.3644 0.56191 0.36419 0.0
C126 C 0.39732 0.58316 0.36567 0.0
N127 N 0.46362 0.56394 0.34583 0.0
C128 C 0.47632 0.53431 0.24573 0.0
C129 C 0.48827 0.5359 0.30933 0.0
C130 C 0.48164 0.55072 0.35848 0.0
C131 C 0.4558 0.54595 0.23472 0.0
C132 C 0.4495 0.56037 0.28545 0.0
N133 N 0.46197 0.62025 0.47081 0.0
C134 C 0.43331 0.63437 0.54656 0.0
C135 C 0.45623 0.6644 0.53691 0.0
C136 C 0.48306 0.67154 0.49716 0.0
C137 C 0.48553 0.64932 0.46505 0.0
C138 C 0.43666 0.61258 0.51301 0.0
H139 H 0.50584 0.65605 0.43278 0.0
H140 H 0.41812 0.5897 0.51894 0.0
H141 H 0.49262 0.55273 0.40574 0.0
H142 H 0.43446 0.5699 0.2748 0.0
C143 C 0.52407 0.63802 0.32199 0.0
C144 C 0.41127 0.61268 0.33668 0.0
C145 C 0.51438 0.5858 0.52439 0.0
C146 C 0.40061 0.53056 0.4614 0.0
H147 H 0.44952 0.66088 0.24508 0.0
H148 H 0.51002 0.67179 0.23082 0.0
H149 H 0.58653 0.64985 0.36959 0.0
H150 H 0.58093 0.62329 0.48351 0.0
H151 H 0.4757 0.53588 0.60783 0.0
H152 H 0.41418 0.50375 0.56949 0.0
H153 H 0.33887 0.51765 0.40822 0.0
H154 H 0.34466 0.56377 0.34261 0.0
H155 H 0.50427 0.5273 0.32035 0.0
H156 H 0.44544 0.54472 0.1867 0.0
H157 H 0.41232 0.62784 0.5775 0.0
H158 H 0.50184 0.69433 0.48967 0.0
C159 C 0.85097 0.44763 0.69624 0.0
C160 C 0.84209 0.43046 0.75232 0.0
C161 C 0.86626 0.42384 0.76413 0.0
C162 C 0.88837 0.43699 0.71443 0.0
N163 N 0.87948 0.4514 0.67232 0.0
Co164 Co 0.90204 0.47064 0.58973 0.0
N165 N 0.92637 0.44895 0.58797 0.0
C166 C 0.93083 0.43539 0.63967 0.0
C167 C 0.95024 0.42363 0.62544 0.0
C168 C 0.95896 0.43066 0.56116 0.0
C169 C 0.94435 0.44638 0.53962 0.0
N170 N 0.92379 0.48985 0.50655 0.0
C171 C 0.94056 0.48284 0.46366 0.0
C172 C 0.95216 0.50281 0.41204 0.0
C173 C 0.94302 0.52331 0.42409 0.0
C174 C 0.92628 0.51477 0.48188 0.0
N175 N 0.8786 0.49291 0.59228 0.0
C176 C 0.88738 0.51849 0.56146 0.0
C177 C 0.8671 0.5294 0.5748 0.0
C178 C 0.84408 0.50933 0.61648 0.0
C179 C 0.85155 0.4871 0.62565 0.0
N180 N 0.93833 0.50231 0.64029 0.0
C181 C 0.99069 0.53969 0.72336 0.0
C182 C 0.99612 0.53067 0.66236 0.0
C183 C 0.96984 0.51219 0.62185 0.0
C184 C 0.95837 0.53077 0.74019 0.0
C185 C 0.93264 0.51238 0.69779 0.0
N186 N 0.86584 0.43831 0.54095 0.0
C187 C 0.822 0.41976 0.46155 0.0
C188 C 0.81083 0.3905 0.4816 0.0
C189 C 0.82852 0.38595 0.53056 0.0
C190 C 0.85561 0.40987 0.55932 0.0
C191 C 0.84955 0.44335 0.49189 0.0
H192 H 0.86792 0.40516 0.59756 0.0
H193 H 0.85737 0.46565 0.47653 0.0
H194 H 0.97518 0.50489 0.57681 0.0
H195 H 0.90804 0.50543 0.71272 0.0
C196 C 0.91318 0.43107 0.69767 0.0
C197 C 0.83312 0.46127 0.66755 0.0
C198 C 0.95067 0.46089 0.47535 0.0
C199 C 0.91014 0.52796 0.51099 0.0
H200 H 0.82031 0.42299 0.78116 0.0
H201 H 0.86655 0.40958 0.80208 0.0
H202 H 0.95682 0.41102 0.65754 0.0
H203 H 0.97478 0.42534 0.53364 0.0
H204 H 0.96689 0.50332 0.37126 0.0
H205 H 0.94789 0.5421 0.3941 0.0
H206 H 0.86791 0.54878 0.55415 0.0
H207 H 0.82397 0.51075 0.6372 0.0
H208 H 1.0205 0.53669 0.647 0.0
H209 H 0.95291 0.53757 0.78619 0.0
H210 H 0.80924 0.42446 0.42373 0.0
H211 H 0.82164 0.36388 0.5467 0.0
C212 C 0.45654 0.8511 0.89209 0.0
C213 C 0.47135 0.83873 0.92855 0.0
C214 C 0.50225 0.85018 0.90485 0.0
C215 C 0.5046 0.86889 0.85558 0.0
N216 N 0.47743 0.87073 0.84763 0.0
Co217 Co 0.47 0.89299 0.77665 0.0
N218 N 0.51693 0.91422 0.7512 0.0
C219 C 0.53943 0.90721 0.76972 0.0
C220 C 0.56984 0.92595 0.74503 0.0
C221 C 0.56637 0.94614 0.70864 0.0
C222 C 0.53393 0.93861 0.71346 0.0
N223 N 0.46247 0.91438 0.70421 0.0
C224 C 0.484 0.93876 0.67054 0.0
C225 C 0.46782 0.9478 0.62792 0.0
C226 C 0.4353 0.92797 0.63369 0.0
C227 C 0.43323 0.90828 0.68017 0.0
N228 N 0.42317 0.87274 0.80369 0.0
C229 C 0.39869 0.87283 0.77034 0.0
C230 C 0.36897 0.85706 0.80003 0.0
C231 C 0.37473 0.84552 0.85494 0.0
C232 C 0.4078 0.85485 0.85553 0.0
N233 N 0.47961 0.92571 0.83735 0.0
C234 C 0.49856 0.97675 0.91353 0.0
C235 C 0.47163 0.96584 0.87118 0.0
C236 C 0.46234 0.94018 0.8343 0.0
C237 C 0.51505 0.96093 0.91857 0.0
C238 C 0.50536 0.93571 0.87999 0.0
N239 N 0.46102 0.8603 0.71571 0.0
C240 C 0.43522 0.80777 0.69652 0.0
C241 C 0.45668 0.81203 0.64555 0.0
C242 C 0.47848 0.84127 0.62647 0.0
C243 C 0.47983 0.865 0.6614 0.0
C244 C 0.43782 0.83193 0.73059 0.0
H245 H 0.49697 0.88709 0.64557 0.0
H246 H 0.42137 0.82715 0.77005 0.0
H247 H 0.44162 0.93257 0.80219 0.0
H248 H 0.51948 0.92491 0.88344 0.0
C249 C 0.53212 0.88565 0.81715 0.0
C250 C 0.42158 0.84062 0.89607 0.0
C251 C 0.5197 0.95366 0.67731 0.0
C252 C 0.40465 0.88864 0.71241 0.0
H253 H 0.4604 0.8222 0.96646 0.0
H254 H 0.52062 0.84506 0.92086 0.0
H255 H 0.59211 0.92556 0.75403 0.0
H256 H 0.58547 0.96419 0.6813 0.0
H257 H 0.47807 0.96714 0.5971 0.0
H258 H 0.41545 0.9291 0.61033 0.0
H259 H 0.34574 0.85378 0.78303 0.0
H260 H 0.35625 0.83039 0.88835 0.0
H261 H 0.45787 0.97712 0.86633 0.0
H262 H 0.53612 0.9686 0.95035 0.0
H263 H 0.41672 0.78579 0.71122 0.0
H264 H 0.49527 0.84597 0.58651 0.0
C265 C 0.64808 0.44588 0.80963 0.0
C266 C 0.63778 0.42085 0.77097 0.0
C267 C 0.60603 0.4017 0.78677 0.0
C268 C 0.59866 0.41584 0.83425 0.0
N269 N 0.62346 0.44317 0.84858 0.0
Co270 Co 0.62362 0.46875 0.92181 0.0
N271 N 0.57571 0.44328 0.93615 0.0
C272 C 0.5564 0.4161 0.91113 0.0
C273 C 0.5243 0.40403 0.92858 0.0
C274 C 0.52325 0.42489 0.96733 0.0
C275 C 0.55491 0.44851 0.97145 0.0
N276 N 0.62419 0.49369 0.99623 0.0
C277 C 0.59929 0.49408 0.02751 0.0
C278 C 0.61072 0.51471 0.07805 0.0
C279 C 0.64391 0.52786 0.07802 0.0
C280 C 0.65089 0.51453 0.02795 0.0
N281 N 0.67133 0.49496 0.90661 0.0
C282 C 0.69223 0.51785 0.94447 0.0
C283 C 0.72301 0.53352 0.91906 0.0
C284 C 0.7218 0.5192 0.8623 0.0
C285 C 0.69038 0.49515 0.85703 0.0
N286 N 0.6145 0.49263 0.85985 0.0
C287 C 0.59618 0.52536 0.77838 0.0
C288 C 0.61969 0.53923 0.82785 0.0
C289 C 0.62872 0.5226 0.86742 0.0
C290 C 0.58279 0.49489 0.76953 0.0
C291 C 0.59206 0.47901 0.81076 0.0
N292 N 0.63189 0.44426 0.98364 0.0
C293 C 0.65737 0.41522 1.0054 0.0
C294 C 0.63493 0.39966 0.05495 0.0
C295 C 0.61266 0.40879 0.07169 0.0
C296 C 0.61187 0.43134 0.03614 0.0
C297 C 0.6554 0.43721 0.97068 0.0
H298 H 0.59402 0.43732 0.04958 0.0
H299 H 0.67226 0.44755 0.93177 0.0
H300 H 0.64672 0.53403 0.90499 0.0
H301 H 0.58026 0.45551 0.80374 0.0
C302 C 0.5686 0.40436 0.86552 0.0
C303 C 0.68235 0.46975 0.81434 0.0
C304 C 0.56464 0.47461 1.01273 0.0
C305 C 0.68176 0.52489 1.00168 0.0
H306 H 0.65188 0.41614 0.7368 0.0
H307 H 0.59041 0.37976 0.76701 0.0
H308 H 0.50394 0.38295 0.91348 0.0
H309 H 0.50171 0.42287 0.99027 0.0
H310 H 0.5966 0.51994 0.1112 0.0
H311 H 0.66095 0.54598 0.10875 0.0
H312 H 0.74393 0.55282 0.93972 0.0
H313 H 0.7423 0.52452 0.83078 0.0
H314 H 0.63097 0.5628 0.83617 0.0
H315 H 0.5643 0.48309 0.73247 0.0
H316 H 0.67602 0.41007 0.99216 0.0
H317 H 0.59494 0.39784 0.11004 0.0
H318 H 0.12542 0.61189 0.87507 0.0
H319 H 0.06596 0.55888 0.03476 0.0
H320 H 1.01724 0.53892 0.96525 0.0
H321 H 0.99243 0.5328 0.85597 0.0
H322 H 0.05214 0.58507 0.69515 0.0
H323 H 0.0996 0.60883 0.76757 0.0
C324 C 0.10162 0.5965 0.89478 0.0
C325 C 0.09916 0.58714 0.96009 0.0
C326 C 0.07378 0.58456 0.85392 0.0
C327 C 0.06833 0.56675 0.98494 0.0
C328 C 1.04053 0.55514 0.94501 0.0
C329 C 1.01563 0.54984 0.83696 0.0
C330 C 1.01857 0.55683 0.76976 0.0
C331 C 1.04303 0.56337 0.87896 0.0
C332 C 0.04912 0.57877 0.74622 0.0
C333 C 0.07634 0.59251 0.78774 0.0
H334 H 0.51516 0.98764 0.0427 0.0
H335 H 0.50849 1.02948 0.8665 0.0
H336 H 0.53102 0.07678 0.9244 0.0
H337 H 0.5552 0.10702 0.02487 0.0
H338 H 0.55984 0.06431 0.20122 0.0
H339 H 0.53572 1.01686 0.14408 0.0
C340 C 0.51858 1.00711 0.01706 0.0
C341 C 0.51028 1.00502 0.95027 0.0
C342 C 0.53132 0.0342 0.05083 0.0
C343 C 0.51447 1.03041 0.91799 0.0
C344 C 0.52752 0.05752 0.95102 0.0
C345 C 0.55053 0.08719 0.05062 0.0
C346 C 0.55939 0.08911 0.11698 0.0
C347 C 0.53634 0.05979 0.01736 0.0
C348 C 0.55333 0.06335 0.15008 0.0
C349 C 0.53956 0.03622 0.11739 0.0
H350 H 0.48317 0.48539 0.24248 0.0
H351 H 0.49608 0.55884 0.12489 0.0
H352 H 0.52117 0.54481 0.03874 0.0
H353 H 0.54468 0.51465 1.00132 0.0
H354 H 0.53275 0.44183 0.1191 0.0
H355 H 0.50202 0.45238 0.20026 0.0
C356 C 0.49122 0.49816 0.19775 0.0
C357 C 0.4878 0.52322 0.19048 0.0
C358 C 0.50591 0.49007 0.14836 0.0
C359 C 0.49805 0.5393 0.13174 0.0
C360 C 0.51266 0.53141 0.08251 0.0
C361 C 0.53451 0.50069 0.04397 0.0
C362 C 0.54045 0.47728 0.05408 0.0
C363 C 0.51733 0.50722 0.0908 0.0
C364 C 0.52787 0.45962 0.11001 0.0
C365 C 0.51062 0.46585 0.15662 0.0
H366 H 1.01545 0.4935 0.4971 0.0
H367 H 0.94463 0.43426 0.35717 0.0
H368 H 0.98796 0.44657 0.2769 0.0
H369 H 0.04519 0.47852 0.24304 0.0
H370 H 0.11497 0.54026 0.3824 0.0
H371 H 0.07326 0.5222 0.46641 0.0
C372 C 1.00979 0.48265 0.44967 0.0
C373 C 0.97713 0.46271 0.43306 0.0
C374 C 1.03466 0.49057 0.40337 0.0
C375 C 0.96974 0.44928 0.37109 0.0
C376 C 0.99447 0.45658 0.32511 0.0
C377 C 0.05138 0.48792 0.29186 0.0
C378 C 0.08341 0.51088 0.30576 0.0
C379 C 1.02691 0.47791 0.34002 0.0
C380 C 0.09086 0.52233 0.36993 0.0
C381 C 0.06685 0.5122 0.41816 0.0
H382 H 0.61103 0.07836 0.54656 0.0
H383 H 0.55537 1.02841 0.37683 0.0
H384 H 0.53043 0.98394 0.44032 0.0
H385 H 0.52077 0.95853 0.54494 0.0
H386 H 0.56697 1.00843 0.71953 0.0
H387 H 0.59893 0.05315 0.65362 0.0
C388 C 0.59329 0.05802 0.52294 0.0
C389 C 0.58634 0.0576 0.45527 0.0
C390 C 0.5769 1.03209 0.56112 0.0
C391 C 0.5631 1.03023 0.42723 0.0
C392 C 0.54807 1.00438 0.46403 0.0
C393 C 0.53767 0.97929 0.56859 0.0
C394 C 0.54099 0.98038 0.63703 0.0
C395 C 0.55446 1.00506 0.53097 0.0
C396 C 0.56372 1.00717 0.66689 0.0
C397 C 0.58184 0.03272 0.62921 0.0
H398 H 0.58623 0.52283 0.64601 0.0
H399 H 0.57928 0.56537 0.82097 0.0
H400 H 0.55574 0.58977 0.75761 0.0
H401 H 0.53335 0.59633 0.65296 0.0
H402 H 0.54084 0.55402 0.47848 0.0
H403 H 0.56795 0.53243 0.54052 0.0
C404 C 0.5797 0.53755 0.67021 0.0
C405 C 0.5844 0.54209 0.73833 0.0
C406 C 0.56623 0.55161 0.63334 0.0
C407 C 0.57617 0.56158 0.76864 0.0
C408 C 0.56252 0.57545 0.73243 0.0
C409 C 0.5416 0.58289 0.62858 0.0
C410 C 0.53547 0.57699 0.5612 0.0
C411 C 0.55701 0.57035 0.66485 0.0
C412 C 0.54574 0.55916 0.53011 0.0
C413 C 0.561 0.54664 0.5657 0.0
H414 H 0.28466 0.62083 0.31613 0.0
H415 H 0.31267 0.63689 0.11335 0.0
H416 H 0.36435 0.63954 0.13958 0.0
H417 H 0.39636 0.62805 0.21747 0.0
H418 H 0.37303 0.62038 0.42275 0.0
H419 H 0.32475 0.62408 0.39841 0.0
C420 C 0.30276 0.62667 0.27821 0.0
C421 C 0.29469 0.62869 0.21274 0.0
C422 C 0.33298 0.62901 0.29391 0.0
C423 C 0.31828 0.63527 0.16411 0.0
C424 C 0.34776 0.63653 0.17899 0.0
C425 C 0.38202 0.62903 0.25744 0.0
C426 C 0.38858 0.62409 0.32205 0.0
C427 C 0.3548 0.63222 0.24338 0.0
C428 C 0.36855 0.62415 0.37261 0.0
C429 C 0.3408 0.62609 0.35869 0.0
H430 H 0.70384 0.28331 0.3129 0.0
H431 H 0.67924 0.24333 0.50375 0.0
H432 H 0.71898 0.29026 0.55432 0.0
H433 H 0.76384 0.34136 0.54364 0.0
H434 H 0.79162 0.38085 0.35233 0.0
H435 H 0.74728 0.33586 0.30279 0.0
C436 C 0.70678 0.2852 0.36567 0.0
C437 C 0.68803 0.26011 0.40476 0.0
C438 C 0.73049 0.31212 0.39424 0.0
C439 C 0.69258 0.26252 0.4729 0.0
C440 C 0.71561 0.28928 0.5017 0.0
C441 C 0.76028 0.34021 0.49104 0.0
C442 C 0.78149 0.3645 0.45183 0.0
C443 C 0.73519 0.31403 0.46277 0.0
C444 C 0.77576 0.3627 0.38392 0.0
C445 C 0.7505 0.33682 0.35545 0.0
H446 H 0.44543 0.76074 0.70408 0.0
H447 H 0.46797 0.80463 0.51669 0.0
H448 H 0.46913 0.76276 0.4671 0.0
H449 H 0.46413 0.71383 0.47679 0.0
H450 H 0.43985 0.66925 0.66295 0.0
H451 H 0.4377 0.71084 0.71257 0.0
C452 C 0.45004 0.76108 0.65209 0.0
C453 C 0.45662 0.7861 0.61441 0.0
C454 C 0.45012 0.73666 0.62352 0.0
C455 C 0.46332 0.78609 0.5474 0.0
C456 C 0.46373 0.76199 0.51879 0.0
C457 C 0.45841 0.71324 0.5283 0.0
C458 C 0.45243 0.68855 0.56629 0.0
C459 C 0.45733 0.73724 0.55642 0.0
C460 C 0.44441 0.68788 0.63259 0.0
C461 C 0.4434 0.71175 0.66102 0.0
H462 H 0.69925 0.45781 0.69392 0.0
H463 H 0.7267 0.46857 0.89796 0.0
H464 H 0.77439 0.46472 0.8723 0.0
H465 H 0.81142 0.46333 0.79045 0.0
H466 H 0.78107 0.44598 0.58855 0.0
H467 H 0.73123 0.44679 0.61477 0.0
C468 C 0.71515 0.45846 0.73294 0.0
C469 C 0.70936 0.46376 0.79769 0.0
C470 C 0.74212 0.45506 0.71823 0.0
C471 C 0.73058 0.46487 0.84752 0.0
C472 C 0.75795 0.4626 0.83298 0.0
C473 C 0.79319 0.45821 0.75277 0.0
C474 C 0.7997 0.45406 0.68782 0.0
C475 C 0.76431 0.45821 0.76838 0.0
C476 C 0.77636 0.44885 0.63909 0.0
C477 C 0.74801 0.4496 0.65395 0.0
H478 H 0.38262 0.82255 1.00387 0.0
H479 H 0.41065 0.78916 0.83911 0.0
H480 H 0.36774 0.73888 0.86379 0.0
H481 H 0.31912 0.7047 0.92753 0.0
H482 H 0.29582 0.73766 0.10086 0.0
H483 H 0.33944 0.78724 0.07731 0.0
C484 C 0.37953 0.80415 0.97408 0.0
C485 C 0.39908 0.80968 0.91861 0.0
C486 C 0.35517 0.77507 0.98948 0.0
C487 C 0.39525 0.78564 0.88089 0.0
C488 C 0.37075 0.75678 0.89518 0.0
C489 C 0.32377 0.72251 0.96088 0.0
C490 C 0.30286 0.71714 1.01443 0.0
C491 C 0.34998 0.75125 0.94855 0.0
C492 C 0.31005 0.74091 0.05718 0.0
C493 C 0.33544 0.76947 0.04437 0.0
H494 H 0.64687 0.35865 0.99838 0.0
H495 H 0.62068 0.38115 0.18294 0.0
H496 H 0.61702 0.33724 0.2327 0.0
H497 H 0.62098 0.29218 0.22394 0.0
H498 H 0.64925 0.27095 0.04062 0.0
H499 H 0.65336 0.31517 0.99097 0.0
C500 C 0.64093 0.35439 0.04984 0.0
C501 C 0.63404 0.37346 0.08656 0.0
C502 C 0.63935 0.3293 0.07855 0.0
C503 C 0.62563 0.36684 0.15288 0.0
C504 C 0.62374 0.34176 0.18162 0.0
C505 C 0.62794 0.2972 0.17304 0.0
C506 C 0.63462 0.27815 0.13594 0.0
C507 C 0.63036 0.32275 0.14485 0.0
C508 C 0.64417 0.28528 0.07039 0.0
C509 C 0.64636 0.31049 0.04189 0.0
loop_
_geom_bond_atom_site_label_1
_geom_bond_atom_site_label_2
_geom_bond_distance
_geom_bond_site_symmetry_2
_ccdc_geom_bond_type
C0 C1 1.443 . S
C0 N4 1.376 . S
C0 C38 1.389 . S
C1 C0 1.443 . S
C1 C2 1.340 . S
C1 H41 0.951 . S
C2 C1 1.340 . S
C2 C3 1.439 . S
C2 H42 0.950 . S
C3 C2 1.439 . S
C3 N4 1.374 . S
C3 C37 1.395 . S
N4 C0 1.376 . S
N4 C3 1.374 . S
N4 Co5 2.008 . S
Co5 N4 2.008 . S
Co5 N6 1.995 . S
Co5 N11 2.008 . S
Co5 N16 1.995 . S
Co5 N21 2.282 . S
Co5 N27 2.282 . S
N6 Co5 1.995 . S
N6 C7 1.376 . S
N6 C10 1.383 . S
C7 N6 1.376 . S
C7 C8 1.446 . S
C7 C37 1.391 . S
C8 C7 1.446 . S
C8 C9 1.339 . S
C8 H43 0.949 . S
C9 C8 1.339 . S
C9 C10 1.439 . S
C9 H44 0.950 . S
C10 N6 1.383 . S
C10 C9 1.439 . S
C10 C39 1.392 . S
N11 Co5 2.008 . S
N11 C12 1.376 . S
N11 C15 1.374 . S
C12 N11 1.376 . S
C12 C13 1.443 1_554 S
C12 C39 1.389 . S
C13 C12 1.443 1_556 S
C13 C14 1.340 . S
C13 H45 0.951 . S
C14 C13 1.340 . S
C14 C15 1.439 1_556 S
C14 H46 0.950 . S
C15 N11 1.374 . S
C15 C14 1.439 1_554 S
C15 C40 1.395 . S
N16 Co5 1.995 . S
N16 C17 1.376 . S
N16 C20 1.383 . S
C17 N16 1.376 . S
C17 C18 1.446 . S
C17 C40 1.391 . S
C18 C17 1.446 . S
C18 C19 1.339 . S
C18 H47 0.949 . S
C19 C18 1.339 . S
C19 C20 1.439 . S
C19 H48 0.950 . S
C20 N16 1.383 . S
C20 C19 1.439 . S
C20 C38 1.392 . S
N21 Co5 2.282 . S
N21 C24 1.332 . S
N21 C26 1.332 . S
C22 C23 1.386 . S
C22 C25 1.388 . S
C23 C22 1.386 . S
C23 C24 1.382 . S
C23 H49 0.950 . S
C24 N21 1.332 . S
C24 C23 1.382 . S
C24 H35 0.952 . S
C25 C22 1.388 . S
C25 C26 1.382 . S
C25 H50 0.950 . S
C26 N21 1.332 . S
C26 C25 1.382 . S
C26 H36 0.948 . S
N27 Co5 2.282 . S
N27 C31 1.332 . S
N27 C32 1.332 . S
C28 C29 1.388 . S
C28 C32 1.382 1_556 S
C28 H51 0.950 . S
C29 C28 1.388 . S
C29 C30 1.386 1_556 S
C30 C29 1.386 1_554 S
C30 C31 1.382 . S
C30 H52 0.950 . S
C31 N27 1.332 . S
C31 C30 1.382 . S
C31 H33 0.952 . S
C32 N27 1.332 . S
C32 C28 1.382 1_554 S
C32 H34 0.948 . S
H33 C31 0.952 . S
H34 C32 0.948 . S
H35 C24 0.952 . S
H36 C26 0.948 . S
C37 C3 1.395 . S
C37 C7 1.391 . S
C38 C0 1.389 . S
C38 C20 1.392 . S
C39 C10 1.392 . S
C39 C12 1.389 . S
C40 C15 1.395 . S
C40 C17 1.391 . S
H41 C1 0.951 . S
H42 C2 0.950 . S
H43 C8 0.949 . S
H44 C9 0.950 . S
H45 C13 0.951 . S
H46 C14 0.950 . S
H47 C18 0.949 . S
H48 C19 0.950 . S
H49 C23 0.950 . S
H50 C25 0.950 . S
H51 C28 0.950 . S
H52 C30 0.950 . S
C53 C54 1.443 . S
C53 N57 1.376 . S
C53 C91 1.389 . S
C54 C53 1.443 . S
C54 C55 1.340 . S
C54 H94 0.951 . S
C55 C54 1.340 . S
C55 C56 1.439 . S
C55 H95 0.950 . S
C56 C55 1.439 . S
C56 N57 1.374 . S
C56 C90 1.395 . S
N57 C53 1.376 . S
N57 C56 1.374 . S
N57 Co58 2.008 . S
Co58 N57 2.008 . S
Co58 N59 1.995 . S
Co58 N64 2.008 . S
Co58 N69 1.995 . S
Co58 N74 2.282 . S
Co58 N80 2.282 . S
N59 Co58 1.995 . S
N59 C60 1.376 . S
N59 C63 1.383 . S
C60 N59 1.376 . S
C60 C61 1.446 . S
C60 C90 1.391 . S
C61 C60 1.446 . S
C61 C62 1.339 . S
C61 H96 0.949 . S
C62 C61 1.339 . S
C62 C63 1.439 . S
C62 H97 0.950 . S
C63 N59 1.383 . S
C63 C62 1.439 . S
C63 C92 1.392 . S
N64 Co58 2.008 . S
N64 C65 1.376 . S
N64 C68 1.374 . S
C65 N64 1.376 . S
C65 C66 1.443 . S
C65 C92 1.389 . S
C66 C65 1.443 . S
C66 C67 1.340 . S
C66 H98 0.951 . S
C67 C66 1.340 . S
C67 C68 1.439 . S
C67 H99 0.950 . S
C68 N64 1.374 . S
C68 C67 1.439 . S
C68 C93 1.395 . S
N69 Co58 1.995 . S
N69 C70 1.376 . S
N69 C73 1.383 . S
C70 N69 1.376 . S
C70 C71 1.446 . S
C70 C93 1.391 . S
C71 C70 1.446 . S
C71 C72 1.339 . S
C71 H100 0.949 . S
C72 C71 1.339 . S
C72 C73 1.439 . S
C72 H101 0.950 . S
C73 N69 1.383 . S
C73 C72 1.439 . S
C73 C91 1.392 . S
N74 Co58 2.282 . S
N74 C77 1.332 . S
N74 C79 1.332 . S
C75 C76 1.386 . S
C75 C78 1.388 . S
C76 C75 1.386 . S
C76 C77 1.382 . S
C76 H102 0.950 . S
C77 N74 1.332 . S
C77 C76 1.382 . S
C77 H88 0.952 . S
C78 C75 1.388 . S
C78 C79 1.382 . S
C78 H103 0.950 . S
C79 N74 1.332 . S
C79 C78 1.382 . S
C79 H89 0.948 . S
N80 Co58 2.282 . S
N80 C84 1.332 . S
N80 C85 1.332 . S
C81 C82 1.388 . S
C81 C85 1.382 . S
C81 H104 0.950 . S
C82 C81 1.388 . S
C82 C83 1.386 . S
C83 C82 1.386 . S
C83 C84 1.382 . S
C83 H105 0.950 . S
C84 N80 1.332 . S
C84 C83 1.382 . S
C84 H86 0.952 . S
C85 N80 1.332 . S
C85 C81 1.382 . S
C85 H87 0.948 . S
H86 C84 0.952 . S
H87 C85 0.948 . S
H88 C77 0.952 . S
H89 C79 0.948 . S
C90 C56 1.395 . S
C90 C60 1.391 . S
C91 C53 1.389 . S
C91 C73 1.392 . S
C92 C63 1.392 . S
C92 C65 1.389 . S
C93 C68 1.395 . S
C93 C70 1.391 . S
H94 C54 0.951 . S
H95 C55 0.950 . S
H96 C61 0.949 . S
H97 C62 0.950 . S
H98 C66 0.951 . S
H99 C67 0.950 . S
H100 C71 0.949 . S
H101 C72 0.950 . S
H102 C76 0.950 . S
H103 C78 0.950 . S
H104 C81 0.950 . S
H105 C83 0.950 . S
C106 C107 1.443 . S
C106 N110 1.376 . S
C106 C144 1.389 . S
C107 C106 1.443 . S
C107 C108 1.340 . S
C107 H147 0.951 . S
C108 C107 1.340 . S
C108 C109 1.439 . S
C108 H148 0.950 . S
C109 C108 1.439 . S
C109 N110 1.374 . S
C109 C143 1.395 . S
N110 C106 1.376 . S
N110 C109 1.374 . S
N110 Co111 2.008 . S
Co111 N110 2.008 . S
Co111 N112 1.995 . S
Co111 N117 2.008 . S
Co111 N122 1.995 . S
Co111 N127 2.282 . S
Co111 N133 2.282 . S
N112 Co111 1.995 . S
N112 C113 1.376 . S
N112 C116 1.383 . S
C113 N112 1.376 . S
C113 C114 1.446 . S
C113 C143 1.391 . S
C114 C113 1.446 . S
C114 C115 1.339 . S
C114 H149 0.949 . S
C115 C114 1.339 . S
C115 C116 1.439 . S
C115 H150 0.950 . S
C116 N112 1.383 . S
C116 C115 1.439 . S
C116 C145 1.392 . S
N117 Co111 2.008 . S
N117 C118 1.376 . S
N117 C121 1.374 . S
C118 N117 1.376 . S
C118 C119 1.443 . S
C118 C145 1.389 . S
C119 C118 1.443 . S
C119 C120 1.340 . S
C119 H151 0.951 . S
C120 C119 1.340 . S
C120 C121 1.439 . S
C120 H152 0.950 . S
C121 N117 1.374 . S
C121 C120 1.439 . S
C121 C146 1.395 . S
N122 Co111 1.995 . S
N122 C123 1.376 . S
N122 C126 1.383 . S
C123 N122 1.376 . S
C123 C124 1.446 . S
C123 C146 1.391 . S
C124 C123 1.446 . S
C124 C125 1.339 . S
C124 H153 0.949 . S
C125 C124 1.339 . S
C125 C126 1.439 . S
C125 H154 0.950 . S
C126 N122 1.383 . S
C126 C125 1.439 . S
C126 C144 1.392 . S
N127 Co111 2.282 . S
N127 C130 1.332 . S
N127 C132 1.332 . S
C128 C129 1.386 . S
C128 C131 1.388 . S
C129 C128 1.386 . S
C129 C130 1.382 . S
C129 H155 0.950 . S
C130 N127 1.332 . S
C130 C129 1.382 . S
C130 H141 0.952 . S
C131 C128 1.388 . S
C131 C132 1.382 . S
C131 H156 0.950 . S
C132 N127 1.332 . S
C132 C131 1.382 . S
C132 H142 0.948 . S
N133 Co111 2.282 . S
N133 C137 1.332 . S
N133 C138 1.332 . S
C134 C135 1.388 . S
C134 C138 1.382 . S
C134 H157 0.950 . S
C135 C134 1.388 . S
C135 C136 1.386 . S
C136 C135 1.386 . S
C136 C137 1.382 . S
C136 H158 0.950 . S
C137 N133 1.332 . S
C137 C136 1.382 . S
C137 H139 0.952 . S
C138 N133 1.332 . S
C138 C134 1.382 . S
C138 H140 0.948 . S
H139 C137 0.952 . S
H140 C138 0.948 . S
H141 C130 0.952 . S
H142 C132 0.948 . S
C143 C109 1.395 . S
C143 C113 1.391 . S
C144 C106 1.389 . S
C144 C126 1.392 . S
C145 C116 1.392 . S
C145 C118 1.389 . S
C146 C121 1.395 . S
C146 C123 1.391 . S
H147 C107 0.951 . S
H148 C108 0.950 . S
H149 C114 0.949 . S
H150 C115 0.950 . S
H151 C119 0.951 . S
H152 C120 0.950 . S
H153 C124 0.949 . S
H154 C125 0.950 . S
H155 C129 0.950 . S
H156 C131 0.950 . S
H157 C134 0.950 . S
H158 C136 0.950 . S
C159 C160 1.443 . S
C159 N163 1.376 . S
C159 C197 1.389 . S
C160 C159 1.443 . S
C160 C161 1.340 . S
C160 H200 0.951 . S
C161 C160 1.340 . S
C161 C162 1.439 . S
C161 H201 0.950 . S
C162 C161 1.439 . S
C162 N163 1.374 . S
C162 C196 1.395 . S
N163 C159 1.376 . S
N163 C162 1.374 . S
N163 Co164 2.008 . S
Co164 N163 2.008 . S
Co164 N165 1.995 . S
Co164 N170 2.008 . S
Co164 N175 1.995 . S
Co164 N180 2.282 . S
Co164 N186 2.282 . S
N165 Co164 1.995 . S
N165 C166 1.376 . S
N165 C169 1.383 . S
C166 N165 1.376 . S
C166 C167 1.446 . S
C166 C196 1.391 . S
C167 C166 1.446 . S
C167 C168 1.339 . S
C167 H202 0.949 . S
C168 C167 1.339 . S
C168 C169 1.439 . S
C168 H203 0.950 . S
C169 N165 1.383 . S
C169 C168 1.439 . S
C169 C198 1.392 . S
N170 Co164 2.008 . S
N170 C171 1.376 . S
N170 C174 1.374 . S
C171 N170 1.376 . S
C171 C172 1.443 . S
C171 C198 1.389 . S
C172 C171 1.443 . S
C172 C173 1.340 . S
C172 H204 0.951 . S
C173 C172 1.340 . S
C173 C174 1.439 . S
C173 H205 0.950 . S
C174 N170 1.374 . S
C174 C173 1.439 . S
C174 C199 1.395 . S
N175 Co164 1.995 . S
N175 C176 1.376 . S
N175 C179 1.383 . S
C176 N175 1.376 . S
C176 C177 1.446 . S
C176 C199 1.391 . S
C177 C176 1.446 . S
C177 C178 1.339 . S
C177 H206 0.949 . S
C178 C177 1.339 . S
C178 C179 1.439 . S
C178 H207 0.950 . S
C179 N175 1.383 . S
C179 C178 1.439 . S
C179 C197 1.392 . S
N180 Co164 2.282 . S
N180 C183 1.332 . S
N180 C185 1.332 . S
C181 C182 1.386 . S
C181 C184 1.388 . S
C182 C181 1.386 . S
C182 C183 1.382 . S
C182 H208 0.950 . S
C183 N180 1.332 . S
C183 C182 1.382 . S
C183 H194 0.952 . S
C184 C181 1.388 . S
C184 C185 1.382 . S
C184 H209 0.950 . S
C185 N180 1.332 . S
C185 C184 1.382 . S
C185 H195 0.948 . S
N186 Co164 2.282 . S
N186 C190 1.332 . S
N186 C191 1.332 . S
C187 C188 1.388 . S
C187 C191 1.382 . S
C187 H210 0.950 . S
C188 C187 1.388 . S
C188 C189 1.386 . S
C189 C188 1.386 . S
C189 C190 1.382 . S
C189 H211 0.950 . S
C190 N186 1.332 . S
C190 C189 1.382 . S
C190 H192 0.952 . S
C191 N186 1.332 . S
C191 C187 1.382 . S
C191 H193 0.948 . S
H192 C190 0.952 . S
H193 C191 0.948 . S
H194 C183 0.952 . S
H195 C185 0.948 . S
C196 C162 1.395 . S
C196 C166 1.391 . S
C197 C159 1.389 . S
C197 C179 1.392 . S
C198 C169 1.392 . S
C198 C171 1.389 . S
C199 C174 1.395 . S
C199 C176 1.391 . S
H200 C160 0.951 . S
H201 C161 0.950 . S
H202 C167 0.949 . S
H203 C168 0.950 . S
H204 C172 0.951 . S
H205 C173 0.950 . S
H206 C177 0.949 . S
H207 C178 0.950 . S
H208 C182 0.950 . S
H209 C184 0.950 . S
H210 C187 0.950 . S
H211 C189 0.950 . S
C212 C213 1.443 . S
C212 N216 1.376 . S
C212 C250 1.389 . S
C213 C212 1.443 . S
C213 C214 1.340 . S
C213 H253 0.951 . S
C214 C213 1.340 . S
C214 C215 1.439 . S
C214 H254 0.950 . S
C215 C214 1.439 . S
C215 N216 1.374 . S
C215 C249 1.395 . S
N216 C212 1.376 . S
N216 C215 1.374 . S
N216 Co217 2.008 . S
Co217 N216 2.008 . S
Co217 N218 1.995 . S
Co217 N223 2.008 . S
Co217 N228 1.995 . S
Co217 N233 2.282 . S
Co217 N239 2.282 . S
N218 Co217 1.995 . S
N218 C219 1.376 . S
N218 C222 1.383 . S
C219 N218 1.376 . S
C219 C220 1.446 . S
C219 C249 1.391 . S
C220 C219 1.446 . S
C220 C221 1.339 . S
C220 H255 0.949 . S
C221 C220 1.339 . S
C221 C222 1.439 . S
C221 H256 0.950 . S
C222 N218 1.383 . S
C222 C221 1.439 . S
C222 C251 1.392 . S
N223 Co217 2.008 . S
N223 C224 1.376 . S
N223 C227 1.374 . S
C224 N223 1.376 . S
C224 C225 1.443 . S
C224 C251 1.389 . S
C225 C224 1.443 . S
C225 C226 1.340 . S
C225 H257 0.951 . S
C226 C225 1.340 . S
C226 C227 1.439 . S
C226 H258 0.950 . S
C227 N223 1.374 . S
C227 C226 1.439 . S
C227 C252 1.395 . S
N228 Co217 1.995 . S
N228 C229 1.376 . S
N228 C232 1.383 . S
C229 N228 1.376 . S
C229 C230 1.446 . S
C229 C252 1.391 . S
C230 C229 1.446 . S
C230 C231 1.339 . S
C230 H259 0.949 . S
C231 C230 1.339 . S
C231 C232 1.439 . S
C231 H260 0.950 . S
C232 N228 1.383 . S
C232 C231 1.439 . S
C232 C250 1.392 . S
N233 Co217 2.282 . S
N233 C236 1.332 . S
N233 C238 1.332 . S
C234 C235 1.386 . S
C234 C237 1.388 . S
C235 C234 1.386 . S
C235 C236 1.382 . S
C235 H261 0.950 . S
C236 N233 1.332 . S
C236 C235 1.382 . S
C236 H247 0.952 . S
C237 C234 1.388 . S
C237 C238 1.382 . S
C237 H262 0.950 . S
C238 N233 1.332 . S
C238 C237 1.382 . S
C238 H248 0.948 . S
N239 Co217 2.282 . S
N239 C243 1.332 . S
N239 C244 1.332 . S
C240 C241 1.388 . S
C240 C244 1.382 . S
C240 H263 0.950 . S
C241 C240 1.388 . S
C241 C242 1.386 . S
C242 C241 1.386 . S
C242 C243 1.382 . S
C242 H264 0.950 . S
C243 N239 1.332 . S
C243 C242 1.382 . S
C243 H245 0.952 . S
C244 N239 1.332 . S
C244 C240 1.382 . S
C244 H246 0.948 . S
H245 C243 0.952 . S
H246 C244 0.948 . S
H247 C236 0.952 . S
H248 C238 0.948 . S
C249 C215 1.395 . S
C249 C219 1.391 . S
C250 C212 1.389 . S
C250 C232 1.392 . S
C251 C222 1.392 . S
C251 C224 1.389 . S
C252 C227 1.395 . S
C252 C229 1.391 . S
H253 C213 0.951 . S
H254 C214 0.950 . S
H255 C220 0.949 . S
H256 C221 0.950 . S
H257 C225 0.951 . S
H258 C226 0.950 . S
H259 C230 0.949 . S
H260 C231 0.950 . S
H261 C235 0.950 . S
H262 C237 0.950 . S
H263 C240 0.950 . S
H264 C242 0.950 . S
C265 C266 1.443 . S
C265 N269 1.376 . S
C265 C303 1.389 . S
C266 C265 1.443 . S
C266 C267 1.340 . S
C266 H306 0.951 . S
C267 C266 1.340 . S
C267 C268 1.439 . S
C267 H307 0.950 . S
C268 C267 1.439 . S
C268 N269 1.374 . S
C268 C302 1.395 . S
N269 C265 1.376 . S
N269 C268 1.374 . S
N269 Co270 2.008 . S
Co270 N269 2.008 . S
Co270 N271 1.995 . S
Co270 N276 2.008 . S
Co270 N281 1.995 . S
Co270 N286 2.282 . S
Co270 N292 2.282 . S
N271 Co270 1.995 . S
N271 C272 1.376 . S
N271 C275 1.383 . S
C272 N271 1.376 . S
C272 C273 1.446 . S
C272 C302 1.391 . S
C273 C272 1.446 . S
C273 C274 1.339 . S
C273 H308 0.949 . S
C274 C273 1.339 . S
C274 C275 1.439 . S
C274 H309 0.950 . S
C275 N271 1.383 . S
C275 C274 1.439 . S
C275 C304 1.392 . S
N276 Co270 2.008 . S
N276 C277 1.376 . S
N276 C280 1.374 . S
C277 N276 1.376 . S
C277 C278 1.443 . S
C277 C304 1.389 . S
C278 C277 1.443 . S
C278 C279 1.340 . S
C278 H310 0.951 1_556 S
C279 C278 1.340 . S
C279 C280 1.439 . S
C279 H311 0.950 1_556 S
C280 N276 1.374 . S
C280 C279 1.439 . S
C280 C305 1.395 . S
N281 Co270 1.995 . S
N281 C282 1.376 . S
N281 C285 1.383 . S
C282 N281 1.376 . S
C282 C283 1.446 . S
C282 C305 1.391 . S
C283 C282 1.446 . S
C283 C284 1.339 . S
C283 H312 0.949 . S
C284 C283 1.339 . S
C284 C285 1.439 . S
C284 H313 0.950 . S
C285 N281 1.383 . S
C285 C284 1.439 . S
C285 C303 1.392 . S
N286 Co270 2.282 . S
N286 C289 1.332 . S
N286 C291 1.332 . S
C287 C288 1.386 . S
C287 C290 1.388 . S
C288 C287 1.386 . S
C288 C289 1.382 . S
C288 H314 0.950 . S
C289 N286 1.332 . S
C289 C288 1.382 . S
C289 H300 0.952 . S
C290 C287 1.388 . S
C290 C291 1.382 . S
C290 H315 0.950 . S
C291 N286 1.332 . S
C291 C290 1.382 . S
C291 H301 0.948 . S
N292 Co270 2.282 . S
N292 C296 1.332 . S
N292 C297 1.332 . S
C293 C294 1.388 . S
C293 C297 1.382 1_554 S
C293 H316 0.950 . S
C294 C293 1.388 . S
C294 C295 1.386 1_554 S
C295 C294 1.386 1_556 S
C295 C296 1.382 . S
C295 H317 0.950 . S
C296 N292 1.332 . S
C296 C295 1.382 . S
C296 H298 0.952 . S
C297 N292 1.332 . S
C297 C293 1.382 1_556 S
C297 H299 0.948 . S
H298 C296 0.952 . S
H299 C297 0.948 . S
H300 C289 0.952 . S
H301 C291 0.948 . S
C302 C268 1.395 . S
C302 C272 1.391 . S
C303 C265 1.389 . S
C303 C285 1.392 . S
C304 C275 1.392 . S
C304 C277 1.389 . S
C305 C280 1.395 . S
C305 C282 1.391 . S
H306 C266 0.951 . S
H307 C267 0.950 . S
H308 C273 0.949 . S
H309 C274 0.950 . S
H310 C278 0.951 1_554 S
H311 C279 0.950 1_554 S
H312 C283 0.949 . S
H313 C284 0.950 . S
H314 C288 0.950 . S
H315 C290 0.950 . S
H316 C293 0.950 . S
H317 C295 0.950 . S
H318 C324 0.930 . S
H319 C327 0.930 1_554 S
H320 C328 0.930 . S
H321 C329 0.930 . S
H322 C332 0.930 . S
H323 C333 0.930 . S
C324 H318 0.930 . S
C324 C325 1.355 . S
C324 C326 1.415 . S
C325 C324 1.355 . S
C325 C327 1.419 . S
C326 C324 1.415 . S
C326 C331 1.425 1_455 S
C326 C333 1.409 . S
C327 H319 0.930 1_556 S
C327 C325 1.419 . S
C327 C328 1.362 1_455 S
C328 H320 0.930 . S
C328 C327 1.362 1_655 S
C328 C331 1.409 . S
C329 H321 0.930 . S
C329 C330 1.355 . S
C329 C331 1.415 . S
C330 C329 1.355 . S
C330 C332 1.419 1_655 S
C331 C326 1.425 1_655 S
C331 C328 1.409 . S
C331 C329 1.415 . S
C332 H322 0.930 . S
C332 C330 1.419 1_455 S
C332 C333 1.362 . S
C333 H323 0.930 . S
C333 C326 1.409 . S
C333 C332 1.362 . S
H334 C340 0.930 . S
H335 C343 0.930 . S
H336 C344 0.930 . S
H337 C345 0.930 . S
H338 C348 0.930 . S
H339 C349 0.930 . S
C340 H334 0.930 . S
C340 C341 1.355 . S
C340 C342 1.415 1_566 S
C341 C340 1.355 . S
C341 C343 1.419 . S
C342 C340 1.415 1_544 S
C342 C347 1.425 . S
C342 C349 1.409 . S
C343 H335 0.930 . S
C343 C341 1.419 . S
C343 C344 1.362 1_566 S
C344 H336 0.930 . S
C344 C343 1.362 1_544 S
C344 C347 1.409 . S
C345 H337 0.930 . S
C345 C346 1.355 . S
C345 C347 1.415 . S
C346 C345 1.355 . S
C346 C348 1.419 . S
C347 C342 1.425 . S
C347 C344 1.409 . S
C347 C345 1.415 . S
C348 H338 0.930 . S
C348 C346 1.419 . S
C348 C349 1.362 . S
C349 H339 0.930 . S
C349 C342 1.409 . S
C349 C348 1.362 . S
H350 C356 0.930 . S
H351 C359 0.930 . S
H352 C360 0.930 . S
H353 C361 0.930 1_556 S
H354 C364 0.930 . S
H355 C365 0.930 . S
C356 H350 0.930 . S
C356 C357 1.355 . S
C356 C358 1.415 . S
C357 C356 1.355 . S
C357 C359 1.419 . S
C358 C356 1.415 . S
C358 C363 1.425 . S
C358 C365 1.409 . S
C359 H351 0.930 . S
C359 C357 1.419 . S
C359 C360 1.362 . S
C360 H352 0.930 . S
C360 C359 1.362 . S
C360 C363 1.409 . S
C361 H353 0.930 1_554 S
C361 C362 1.355 . S
C361 C363 1.415 . S
C362 C361 1.355 . S
C362 C364 1.419 . S
C363 C358 1.425 . S
C363 C360 1.409 . S
C363 C361 1.415 . S
C364 H354 0.930 . S
C364 C362 1.419 . S
C364 C365 1.362 . S
C365 H355 0.930 . S
C365 C358 1.409 . S
C365 C364 1.362 . S
H366 C372 0.930 . S
H367 C375 0.930 . S
H368 C376 0.930 . S
H369 C377 0.930 . S
H370 C380 0.930 . S
H371 C381 0.930 . S
C372 H366 0.930 . S
C372 C373 1.355 . S
C372 C374 1.415 . S
C373 C372 1.355 . S
C373 C375 1.419 . S
C374 C372 1.415 . S
C374 C379 1.425 . S
C374 C381 1.409 1_655 S
C375 H367 0.930 . S
C375 C373 1.419 . S
C375 C376 1.362 . S
C376 H368 0.930 . S
C376 C375 1.362 . S
C376 C379 1.409 . S
C377 H369 0.930 . S
C377 C378 1.355 . S
C377 C379 1.415 1_455 S
C378 C377 1.355 . S
C378 C380 1.419 . S
C379 C374 1.425 . S
C379 C376 1.409 . S
C379 C377 1.415 1_655 S
C380 H370 0.930 . S
C380 C378 1.419 . S
C380 C381 1.362 . S
C381 H371 0.930 . S
C381 C374 1.409 1_455 S
C381 C380 1.362 . S
H382 C388 0.930 . S
H383 C391 0.930 . S
H384 C392 0.930 . S
H385 C393 0.930 . S
H386 C396 0.930 . S
H387 C397 0.930 1_545 S
C388 H382 0.930 . S
C388 C389 1.355 . S
C388 C390 1.415 1_545 S
C389 C388 1.355 . S
C389 C391 1.419 . S
C390 C388 1.415 1_565 S
C390 C395 1.425 . S
C390 C397 1.409 . S
C391 H383 0.930 . S
C391 C389 1.419 . S
C391 C392 1.362 1_545 S
C392 H384 0.930 . S
C392 C391 1.362 1_565 S
C392 C395 1.409 . S
C393 H385 0.930 . S
C393 C394 1.355 . S
C393 C395 1.415 . S
C394 C393 1.355 . S
C394 C396 1.419 . S
C395 C390 1.425 . S
C395 C392 1.409 . S
C395 C393 1.415 . S
C396 H386 0.930 . S
C396 C394 1.419 . S
C396 C397 1.362 . S
C397 H387 0.930 1_565 S
C397 C390 1.409 . S
C397 C396 1.362 . S
H398 C404 0.930 . S
H399 C407 0.930 . S
H400 C408 0.930 . S
H401 C409 0.930 . S
H402 C412 0.930 . S
H403 C413 0.930 . S
C404 H398 0.930 . S
C404 C405 1.355 . S
C404 C406 1.415 . S
C405 C404 1.355 . S
C405 C407 1.419 . S
C406 C404 1.415 . S
C406 C411 1.425 . S
C406 C413 1.409 . S
C407 H399 0.930 . S
C407 C405 1.419 . S
C407 C408 1.362 . S
C408 H400 0.930 . S
C408 C407 1.362 . S
C408 C411 1.409 . S
C409 H401 0.930 . S
C409 C410 1.355 . S
C409 C411 1.415 . S
C410 C409 1.355 . S
C410 C412 1.419 . S
C411 C406 1.425 . S
C411 C408 1.409 . S
C411 C409 1.415 . S
C412 H402 0.930 . S
C412 C410 1.419 . S
C412 C413 1.362 . S
C413 H403 0.930 . S
C413 C406 1.409 . S
C413 C412 1.362 . S
H414 C420 0.930 . S
H415 C423 0.930 . S
H416 C424 0.930 . S
H417 C425 0.930 . S
H418 C428 0.930 . S
H419 C429 0.930 . S
C420 H414 0.930 . S
C420 C421 1.355 . S
C420 C422 1.415 . S
C421 C420 1.355 . S
C421 C423 1.419 . S
C422 C420 1.415 . S
C422 C427 1.425 . S
C422 C429 1.409 . S
C423 H415 0.930 . S
C423 C421 1.419 . S
C423 C424 1.362 . S
C424 H416 0.930 . S
C424 C423 1.362 . S
C424 C427 1.409 . S
C425 H417 0.930 . S
C425 C426 1.355 . S
C425 C427 1.415 . S
C426 C425 1.355 . S
C426 C428 1.419 . S
C427 C422 1.425 . S
C427 C424 1.409 . S
C427 C425 1.415 . S
C428 H418 0.930 . S
C428 C426 1.419 . S
C428 C429 1.362 . S
C429 H419 0.930 . S
C429 C422 1.409 . S
C429 C428 1.362 . S
H430 C436 0.930 . S
H431 C439 0.930 . S
H432 C440 0.930 . S
H433 C441 0.930 . S
H434 C444 0.930 . S
H435 C445 0.930 . S
C436 H430 0.930 . S
C436 C437 1.355 . S
C436 C438 1.415 . S
C437 C436 1.355 . S
C437 C439 1.419 . S
C438 C436 1.415 . S
C438 C443 1.425 . S
C438 C445 1.409 . S
C439 H431 0.930 . S
C439 C437 1.419 . S
C439 C440 1.362 . S
C440 H432 0.930 . S
C440 C439 1.362 . S
C440 C443 1.409 . S
C441 H433 0.930 . S
C441 C442 1.355 . S
C441 C443 1.415 . S
C442 C441 1.355 . S
C442 C444 1.419 . S
C443 C438 1.425 . S
C443 C440 1.409 . S
C443 C441 1.415 . S
C444 H434 0.930 . S
C444 C442 1.419 . S
C444 C445 1.362 . S
C445 H435 0.930 . S
C445 C438 1.409 . S
C445 C444 1.362 . S
H446 C452 0.930 . S
H447 C455 0.930 . S
H448 C456 0.930 . S
H449 C457 0.930 . S
H450 C460 0.930 . S
H451 C461 0.930 . S
C452 H446 0.930 . S
C452 C453 1.355 . S
C452 C454 1.415 . S
C453 C452 1.355 . S
C453 C455 1.419 . S
C454 C452 1.415 . S
C454 C459 1.425 . S
C454 C461 1.409 . S
C455 H447 0.930 . S
C455 C453 1.419 . S
C455 C456 1.362 . S
C456 H448 0.930 . S
C456 C455 1.362 . S
C456 C459 1.409 . S
C457 H449 0.930 . S
C457 C458 1.355 . S
C457 C459 1.415 . S
C458 C457 1.355 . S
C458 C460 1.419 . S
C459 C454 1.425 . S
C459 C456 1.409 . S
C459 C457 1.415 . S
C460 H450 0.930 . S
C460 C458 1.419 . S
C460 C461 1.362 . S
C461 H451 0.930 . S
C461 C454 1.409 . S
C461 C460 1.362 . S
H462 C468 0.930 . S
H463 C471 0.930 . S
H464 C472 0.930 . S
H465 C473 0.930 . S
H466 C476 0.930 . S
H467 C477 0.930 . S
C468 H462 0.930 . S
C468 C469 1.355 . S
C468 C470 1.415 . S
C469 C468 1.355 . S
C469 C471 1.419 . S
C470 C468 1.415 . S
C470 C475 1.425 . S
C470 C477 1.409 . S
C471 H463 0.930 . S
C471 C469 1.419 . S
C471 C472 1.362 . S
C472 H464 0.930 . S
C472 C471 1.362 . S
C472 C475 1.409 . S
C473 H465 0.930 . S
C473 C474 1.355 . S
C473 C475 1.415 . S
C474 C473 1.355 . S
C474 C476 1.419 . S
C475 C470 1.425 . S
C475 C472 1.409 . S
C475 C473 1.415 . S
C476 H466 0.930 . S
C476 C474 1.419 . S
C476 C477 1.362 . S
C477 H467 0.930 . S
C477 C470 1.409 . S
C477 C476 1.362 . S
H478 C484 0.930 . S
H479 C487 0.930 . S
H480 C488 0.930 . S
H481 C489 0.930 . S
H482 C492 0.930 1_554 S
H483 C493 0.930 . S
C484 H478 0.930 . S
C484 C485 1.355 . S
C484 C486 1.415 . S
C485 C484 1.355 . S
C485 C487 1.419 . S
C486 C484 1.415 . S
C486 C491 1.425 . S
C486 C493 1.409 . S
C487 H479 0.930 . S
C487 C485 1.419 . S
C487 C488 1.362 . S
C488 H480 0.930 . S
C488 C487 1.362 . S
C488 C491 1.409 . S
C489 H481 0.930 . S
C489 C490 1.355 . S
C489 C491 1.415 . S
C490 C489 1.355 . S
C490 C492 1.419 . S
C491 C486 1.425 . S
C491 C488 1.409 . S
C491 C489 1.415 . S
C492 H482 0.930 1_556 S
C492 C490 1.419 . S
C492 C493 1.362 . S
C493 H483 0.930 . S
C493 C486 1.409 . S
C493 C492 1.362 . S
H494 C500 0.930 1_556 S
H495 C503 0.930 . S
H496 C504 0.930 . S
H497 C505 0.930 . S
H498 C508 0.930 . S
H499 C509 0.930 1_556 S
C500 H494 0.930 1_554 S
C500 C501 1.355 . S
C500 C502 1.415 . S
C501 C500 1.355 . S
C501 C503 1.419 . S
C502 C500 1.415 . S
C502 C507 1.425 . S
C502 C509 1.409 . S
C503 H495 0.930 . S
C503 C501 1.419 . S
C503 C504 1.362 . S
C504 H496 0.930 . S
C504 C503 1.362 . S
C504 C507 1.409 . S
C505 H497 0.930 . S
C505 C506 1.355 . S
C505 C507 1.415 . S
C506 C505 1.355 . S
C506 C508 1.419 . S
C507 C502 1.425 . S
C507 C504 1.409 . S
C507 C505 1.415 . S
C508 H498 0.930 . S
C508 C506 1.419 . S
C508 C509 1.362 . S
C509 H499 0.930 1_554 S
C509 C502 1.409 . S
C509 C508 1.362 . S
C325 C39 1.897 1_556 S
C330 C181 1.879 . S
C341 C234 1.794 . S
C346 C92 1.815 . S
C357 C128 1.832 . S
C362 C304 1.810 1_554 S
C373 C198 1.864 . S
C378 C22 1.889 . S
C389 C75 1.803 . S
C394 C251 1.816 . S
C405 C287 1.844 . S
C410 C145 1.847 . S
C421 C38 1.926 . S
C426 C144 1.912 . S
C437 C91 1.810 . S
C442 C188 1.816 . S
C453 C241 1.648 . S
C458 C135 1.666 . S
C469 C303 1.942 . S
C474 C197 1.913 . S
C485 C250 1.826 . S
C490 C29 1.787 . S
C501 C294 1.657 . S
C506 C82 1.677 . S
