# Generated by pormake.
# Topology fne, (5)-cn, num edge types: 1
# Building blocks:
#     Node 0, Type 0, BuildingBlock: BEQFEK_clean_sbu_0, # of connection points: 5
#     Node 1, Type 0, BuildingBlock: BEQFEK_clean_sbu_0, # of connection points: 5
#     Node 2, Type 0, BuildingBlock: BEQFEK_clean_sbu_0, # of connection points: 5
#     Node 3, Type 0, BuildingBlock: BEQFEK_clean_sbu_0, # of connection points: 5
#     Node 4, Type 0, BuildingBlock: BEQFEK_clean_sbu_0, # of connection points: 5
#     Node 5, Type 0, BuildingBlock: BEQFEK_clean_sbu_0, # of connection points: 5
#     Edge 6, Type (0, 0), BuildingBlock: XUDNAN_clean_linker_2, # of connection points: 2
#     Edge 7, Type (0, 0), BuildingBlock: XUDNAN_clean_linker_2, # of connection points: 2
#     Edge 8, Type (0, 0), BuildingBlock: XUDNAN_clean_linker_2, # of connection points: 2
#     Edge 9, Type (0, 0), BuildingBlock: XUDNAN_clean_linker_2, # of connection points: 2
#     Edge 10, Type (0, 0), BuildingBlock: XUDNAN_clean_linker_2, # of connection points: 2
#     Edge 11, Type (0, 0), BuildingBlock: XUDNAN_clean_linker_2, # of connection points: 2
#     Edge 12, Type (0, 0), BuildingBlock: XUDNAN_clean_linker_2, # of connection points: 2
#     Edge 13, Type (0, 0), BuildingBlock: XUDNAN_clean_linker_2, # of connection points: 2
#     Edge 14, Type (0, 0), BuildingBlock: XUDNAN_clean_linker_2, # of connection points: 2
#     Edge 15, Type (0, 0), BuildingBlock: XUDNAN_clean_linker_2, # of connection points: 2
#     Edge 16, Type (0, 0), BuildingBlock: XUDNAN_clean_linker_2, # of connection points: 2
#     Edge 17, Type (0, 0), BuildingBlock: XUDNAN_clean_linker_2, # of connection points: 2
#     Edge 18, Type (0, 0), BuildingBlock: XUDNAN_clean_linker_2, # of connection points: 2
#     Edge 19, Type (0, 0), BuildingBlock: XUDNAN_clean_linker_2, # of connection points: 2
#     Edge 20, Type (0, 0), BuildingBlock: XUDNAN_clean_linker_2, # of connection points: 2
# Relax obj value: 0.219
# Max RMSD: 0.180
# Mean RMSD: 0.180
data_MOF--net-fne--node1-BEQFEK_clean_sbu_0--edge1-XUDNAN_clean_linker_2
_symmetry_space_group_name_H-M    P1
_symmetry_Int_Tables_number       1
_symmetry_cell_setting            triclinic
loop_
_symmetry_equiv_pos_as_xyz
'x, y, z'
_cell_length_a     43.786048
_cell_length_b     43.857605
_cell_length_c     18.592278
_cell_angle_alpha  90.074872
_cell_angle_beta   89.92842
_cell_angle_gamma 120.05225
loop_
_atom_site_label
_atom_site_type_symbol
_atom_site_fract_x
_atom_site_fract_y
_atom_site_fract_z
_atom_type_partial_charge
Co0 Co 0.55444 0.28217 0.8959 0.0
Co1 Co 0.53255 0.24396 0.049 0.0
C2 C 0.59816 0.25695 0.97401 0.0
O3 O 0.59176 0.27151 0.92145 0.0
O4 O 0.57786 0.24546 0.02861 0.0
C5 C 0.5786 0.32586 0.74683 0.0
O6 O 0.59603 0.36002 0.73545 0.0
C7 C 0.53732 0.23351 0.20536 0.0
C8 C 0.48126 0.2061 0.23758 0.0
C9 C 0.51515 0.22094 0.26505 0.0
N10 N 0.51743 0.22718 0.14588 0.0
N11 N 0.48391 0.21017 0.16558 0.0
C12 C 0.57672 0.2505 0.20397 0.0
H13 H 0.58398 0.23351 0.17268 0.0
H14 H 0.58841 0.27618 0.17573 0.0
H15 H 0.58804 0.25406 0.25871 0.0
C16 C 0.54572 0.33513 0.97689 0.0
N17 N 0.54493 0.30408 0.97376 0.0
N18 N 0.53778 0.28959 0.03807 0.0
C19 C 0.53481 0.3116 0.08471 0.0
C20 C 0.53964 0.34118 0.04739 0.0
C21 C 0.55031 0.35747 0.91246 0.0
H22 H 0.5353 0.34045 0.86643 0.0
H23 H 0.57864 0.37233 0.89751 0.0
H24 H 0.54093 0.37633 0.92309 0.0
O25 O 0.51269 0.23728 0.8726 0.0
O26 O 0.49643 0.20991 0.97879 0.0
H27 H 0.50394 0.28305 0.17604 0.0
H28 H 0.53405 0.32917 0.19408 0.0
C29 C 0.53048 0.30573 0.16432 0.0
H30 H 0.55053 0.29965 0.18441 0.0
H31 H 0.46285 0.20262 0.13015 0.0
O32 O 0.57228 0.31541 0.81199 0.0
C33 C 0.49231 0.2107 0.91086 0.0
Co34 Co 0.48486 0.57461 0.28519 0.0
Co35 Co 0.50636 0.55436 0.43069 0.0
C36 C 0.54883 0.62658 0.36049 0.0
O37 O 0.5266 0.61907 0.31006 0.0
O38 O 0.54436 0.6041 0.40895 0.0
C39 C 0.48753 0.59644 0.14355 0.0
O40 O 0.52073 0.61623 0.16231 0.0
C41 C 0.51306 0.56296 0.58588 0.0
C42 C 0.50498 0.51137 0.62118 0.0
C43 C 0.50786 0.54247 0.64634 0.0
N44 N 0.51248 0.54449 0.52765 0.0
N45 N 0.50883 0.51414 0.54921 0.0
C46 C 0.51267 0.59688 0.58243 0.0
H47 H 0.50664 0.60177 0.52713 0.0
H48 H 0.49304 0.59656 0.62072 0.0
H49 H 0.53905 0.61879 0.59816 0.0
C50 C 0.42193 0.55987 0.3728 0.0
N51 N 0.45228 0.55963 0.36187 0.0
N52 N 0.4601 0.54799 0.42023 0.0
C53 C 0.43374 0.53826 0.46812 0.0
C54 C 0.40941 0.54663 0.44105 0.0
C55 C 0.40735 0.57573 0.32193 0.0
H56 H 0.38616 0.5544 0.28946 0.0
H57 H 0.42826 0.59451 0.28507 0.0
H58 H 0.39568 0.58936 0.35188 0.0
O59 O 0.50055 0.54024 0.26401 0.0
O60 O 0.51224 0.52199 0.3663 0.0
H61 H 0.4016 0.50122 0.54972 0.0
H62 H 0.44191 0.5375 0.58171 0.0
C63 C 0.42993 0.51871 0.53662 0.0
H64 H 0.44266 0.50246 0.53151 0.0
H65 H 0.50607 0.4942 0.5145 0.0
O66 O 0.46509 0.57808 0.19161 0.0
C67 C 0.5098 0.52109 0.29816 0.0
Co68 Co 0.13194 0.5209 0.63636 0.0
Co69 Co 0.15941 0.54059 0.79382 0.0
C70 C 0.15141 0.59101 0.70024 0.0
O71 O 0.1409 0.56907 0.64871 0.0
O72 O 0.15861 0.58328 0.76138 0.0
C73 C 0.0925 0.51777 0.51313 0.0
O74 O 0.08322 0.53629 0.55382 0.0
C75 C 0.14852 0.55032 0.94313 0.0
C76 C 0.18853 0.54238 -0.00116 0.0
C77 C 0.16028 0.54775 0.01085 0.0
N78 N 0.16854 0.54616 0.89383 0.0
N79 N 0.19289 0.54212 0.92721 0.0
C80 C 0.11634 0.55242 0.92459 0.0
H81 H 0.10822 0.54406 0.86818 0.0
H82 H 0.09427 0.53574 0.9615 0.0
H83 H 0.12244 0.58009 0.93023 0.0
C84 C 0.07484 0.45855 0.70869 0.0
N85 N 0.10389 0.49067 0.71048 0.0
N86 N 0.11619 0.49782 0.77659 0.0
C87 C 0.0957 0.4699 0.81885 0.0
C88 C 0.06864 0.44431 0.77739 0.0
C89 C 0.05466 0.44142 0.64157 0.0
H90 H 0.05009 0.46045 0.61102 0.0
H91 H 0.02888 0.41772 0.65376 0.0
H92 H 0.07055 0.43385 0.60721 0.0
O93 O 0.17811 0.52321 0.63323 0.0
O94 O 0.19878 0.53924 0.74428 0.0
H95 H 0.09302 0.4369 0.90812 0.0
H96 H 0.09511 0.47753 0.93239 0.0
C97 C 0.10504 0.46517 0.89394 0.0
H98 H 0.13401 0.47764 0.89963 0.0
H99 H 0.21131 0.5375 0.9012 0.0
O100 O 0.11082 0.50558 0.54032 0.0
C101 C 0.20236 0.53163 0.67976 0.0
Co102 Co 0.81973 0.15469 0.9497 0.0
Co103 Co 0.8331 0.18918 0.10156 0.0
C104 C 0.77527 0.18286 0.00448 0.0
O105 O 0.78293 0.16729 0.9562 0.0
O106 O 0.79219 0.19245 0.06351 0.0
C107 C 0.78661 0.11472 0.82208 0.0
O108 O 0.75658 0.10295 0.85649 0.0
C109 C 0.81152 0.17905 0.24996 0.0
C110 C 0.8605 0.21597 0.30705 0.0
C111 C 0.82639 0.18828 0.31822 0.0
N112 N 0.83616 0.19918 0.20144 0.0
N113 N 0.86513 0.22184 0.23578 0.0
C114 C 0.77497 0.15111 0.22953 0.0
H115 H 0.76686 0.15819 0.17876 0.0
H116 H 0.77447 0.12587 0.22038 0.0
H117 H 0.75581 0.14756 0.2724 0.0
C118 C 0.82088 0.09777 0.03015 0.0
N119 N 0.81973 0.12781 0.02753 0.0
N120 N 0.82798 0.14325 0.09088 0.0
C121 C 0.83559 0.12374 0.13563 0.0
C122 C 0.83091 0.09413 0.09891 0.0
C123 C 0.81555 0.07492 0.96619 0.0
H124 H 0.79244 0.07138 0.93496 0.0
H125 H 0.81136 0.04876 0.98253 0.0
H126 H 0.83912 0.0881 0.93088 0.0
O127 O 0.86564 0.19804 0.94533 0.0
O128 O 0.87665 0.22504 0.05122 0.0
H129 H 0.87006 0.12431 0.2199 0.0
H130 H 0.83365 0.12897 0.24971 0.0
C131 C 0.85372 0.13637 0.20678 0.0
H132 H 0.87115 0.16531 0.20606 0.0
H133 H 0.88868 0.23968 0.21049 0.0
O134 O 0.81549 0.13309 0.8553 0.0
C135 C 0.8854 0.22358 0.98641 0.0
Co136 Co 0.86726 0.84947 0.30089 0.0
Co137 Co 0.85344 0.87018 0.45466 0.0
C138 C 0.79562 0.81338 0.36725 0.0
O139 O 0.81629 0.81813 0.31508 0.0
O140 O 0.80656 0.83103 0.42512 0.0
C141 C 0.85961 0.80986 0.17388 0.0
O142 O 0.8349 0.78393 0.21167 0.0
C143 C 0.839 0.85124 0.60457 0.0
C144 C 0.85789 0.9022 0.65967 0.0
C145 C 0.84448 0.86652 0.67232 0.0
N146 N 0.84912 0.87669 0.5548 0.0
N147 N 0.85975 0.90704 0.58786 0.0
C148 C 0.82865 0.81397 0.58658 0.0
H149 H 0.83651 0.81201 0.53083 0.0
H150 H 0.84099 0.80383 0.6246 0.0
H151 H 0.79956 0.79719 0.59065 0.0
C152 C 0.9202 0.83989 0.38245 0.0
N153 N 0.89396 0.84743 0.37806 0.0
N154 N 0.88979 0.85861 0.44111 0.0
C155 C 0.91396 0.85943 0.48702 0.0
C156 C 0.93337 0.84685 0.45206 0.0
C157 C 0.93261 0.82697 0.32082 0.0
H158 H 0.95 0.84964 0.28593 0.0
H159 H 0.90971 0.80802 0.28815 0.0
H160 H 0.9476 0.81431 0.33996 0.0
O161 O 0.87566 0.89759 0.2927 0.0
O162 O 0.86377 0.9131 0.39846 0.0
H163 H 0.91615 0.89829 0.56083 0.0
H164 H 0.95001 0.88712 0.57415 0.0
C165 C 0.92186 0.8764 0.55983 0.0
H166 H 0.90562 0.85654 0.60091 0.0
H167 H 0.86989 0.9312 0.56163 0.0
O168 O 0.87965 0.83906 0.20491 0.0
C169 C 0.873 0.91972 0.33261 0.0
Co170 Co 0.22861 0.90564 0.60414 0.0
Co171 Co 0.20793 0.89179 0.76519 0.0
C172 C 0.21724 0.84011 0.6838 0.0
O173 O 0.22386 0.85956 0.62856 0.0
O174 O 0.2115 0.84949 0.74476 0.0
C175 C 0.26265 0.90338 0.47363 0.0
O176 O 0.26166 0.8753 0.5009 0.0
C177 C 0.21165 0.8869 0.92128 0.0
C178 C 0.18732 0.9183 0.95509 0.0
C179 C 0.20561 0.90235 0.98047 0.0
N180 N 0.19841 0.89438 0.86322 0.0
N181 N 0.18288 0.9121 0.88406 0.0
C182 C 0.23406 0.86997 0.9182 0.0
H183 H 0.24467 0.87171 0.86328 0.0
H184 H 0.25626 0.88256 0.95695 0.0
H185 H 0.21766 0.84177 0.93289 0.0
C186 C 0.28492 0.97286 0.66122 0.0
N187 N 0.25643 0.9408 0.67045 0.0
N188 N 0.24979 0.93449 0.73935 0.0
C189 C 0.27496 0.96212 0.77675 0.0
C190 C 0.298 0.98749 0.72835 0.0
C191 C 0.29783 0.98966 0.58912 0.0
H192 H 0.27506 0.98295 0.55335 0.0
H193 H 0.31388 0.97928 0.56435 0.0
H194 H 0.31405 0.01874 0.59352 0.0
O195 O 0.18106 0.8991 0.59835 0.0
O196 O 0.1657 0.88596 0.71268 0.0
H197 H 0.25772 0.96595 0.88238 0.0
H198 H 0.30486 0.98395 0.87531 0.0
C199 C 0.27878 0.96267 0.8568 0.0
H200 H 0.27616 0.93749 0.87458 0.0
H201 H 0.17169 0.92233 0.84894 0.0
O202 O 0.25013 0.91944 0.50884 0.0
C203 C 0.15825 0.88966 0.64823 0.0
H204 H 0.63111 0.24041 0.08109 0.0
H205 H 0.63138 0.25677 0.85054 0.0
H206 H 0.67607 0.23908 0.83477 0.0
H207 H 0.72636 0.27386 0.09478 0.0
H208 H 0.72127 0.24226 0.16248 0.0
H209 H 0.68968 0.25706 0.15649 0.0
H210 H 0.63921 0.19232 0.14489 0.0
H211 H 0.67065 0.17733 0.15001 0.0
H212 H 0.64103 0.16499 0.07442 0.0
H213 H 0.71615 0.21502 0.84136 0.0
H214 H 0.75668 0.19348 0.87182 0.0
H215 H 0.73463 0.19614 0.09892 0.0
C216 C 0.64086 0.2406 0.02747 0.0
C217 C 0.62766 0.24989 0.96706 0.0
C218 C 0.64119 0.24997 0.89773 0.0
C219 C 0.66645 0.23976 0.88806 0.0
C220 C 0.67836 0.23008 0.94832 0.0
C221 C 0.66666 0.23105 0.01686 0.0
C222 C 0.68444 0.21976 0.07228 0.0
C223 C 0.70677 0.25005 0.12459 0.0
C224 C 0.6572 0.18663 0.11277 0.0
C225 C 0.70749 0.21183 0.0238 0.0
C226 C 0.70312 0.21761 0.95248 0.0
C227 C 0.7202 0.21079 0.89703 0.0
C228 C 0.74296 0.19831 0.91491 0.0
C229 C 0.74886 0.19327 0.98772 0.0
C230 C 0.73078 0.20003 0.04287 0.0
H231 H 0.7485 0.76544 0.46344 0.0
H232 H 0.75773 0.80727 0.24821 0.0
H233 H 0.69373 0.76843 0.22995 0.0
H234 H 0.68846 0.67665 0.41352 0.0
H235 H 0.6636 0.66542 0.49616 0.0
H236 H 0.70933 0.69932 0.49576 0.0
H237 H 0.69246 0.74316 0.55105 0.0
H238 H 0.64657 0.70941 0.55098 0.0
H239 H 0.66037 0.75076 0.50629 0.0
H240 H 0.63002 0.72562 0.23385 0.0
H241 H 0.57113 0.6742 0.25094 0.0
H242 H 0.60288 0.65543 0.46014 0.0
C243 C 0.73679 0.76653 0.41292 0.0
C244 C 0.75767 0.78939 0.35732 0.0
C245 C 0.74195 0.78981 0.29124 0.0
C246 C 0.70567 0.76813 0.28067 0.0
C247 C 0.68569 0.74585 0.33637 0.0
C248 C 0.70065 0.74429 0.40069 0.0
C249 C 0.67363 0.71529 0.44852 0.0
C250 C 0.6844 0.68753 0.46438 0.0
C251 C 0.66793 0.73058 0.51835 0.0
C252 C 0.64136 0.70059 0.40048 0.0
C253 C 0.64885 0.7193 0.33693 0.0
C254 C 0.62375 0.71068 0.28332 0.0
C255 C 0.59028 0.68138 0.29375 0.0
C256 C 0.58234 0.66054 0.35676 0.0
C257 C 0.60809 0.67082 0.41148 0.0
H258 H 0.1652 0.64395 0.79773 0.0
H259 H 0.15581 0.6203 0.56895 0.0
H260 H 0.17484 0.68205 0.54162 0.0
H261 H 0.13188 0.70503 0.78671 0.0
H262 H 0.16129 0.73398 0.85511 0.0
H263 H 0.14704 0.68769 0.85728 0.0
H264 H 0.21234 0.70284 0.8585 0.0
H265 H 0.22677 0.74918 0.85525 0.0
H266 H 0.24164 0.72991 0.78794 0.0
H267 H 0.19752 0.74591 0.5376 0.0
H268 H 0.21441 0.80772 0.5568 0.0
H269 H 0.20673 0.79096 0.78814 0.0
C270 C 0.16691 0.65175 0.74196 0.0
C271 C 0.15916 0.62729 0.68553 0.0
C272 C 0.16151 0.63847 0.6132 0.0
C273 C 0.17254 0.67357 0.59698 0.0
C274 C 0.18074 0.69713 0.65361 0.0
C275 C 0.17744 0.68673 0.72464 0.0
C276 C 0.18679 0.71745 0.77492 0.0
C277 C 0.15484 0.71062 0.82122 0.0
C278 C 0.21879 0.7253 0.82192 0.0
C279 C 0.19595 0.74662 0.72078 0.0
C280 C 0.19273 0.73426 0.65125 0.0
C281 C 0.19996 0.75596 0.59174 0.0
C282 C 0.20977 0.79116 0.60338 0.0
C283 C 0.21186 0.80429 0.67404 0.0
C284 C 0.20538 0.78175 0.73352 0.0
H285 H 0.56222 0.28348 0.32787 0.0
H286 H 0.48591 0.17489 0.37718 0.0
H287 H 0.49618 0.18821 0.50762 0.0
H288 H 0.62356 0.29884 0.47698 0.0
H289 H 0.6324 0.34324 0.4906 0.0
H290 H 0.62134 0.32379 0.40221 0.0
H291 H 0.56997 0.33703 0.3952 0.0
H292 H 0.58068 0.35624 0.48364 0.0
H293 H 0.53679 0.32066 0.46472 0.0
H294 H 0.51345 0.21517 0.63457 0.0
H295 H 0.53414 0.25334 0.74286 0.0
H296 H 0.5976 0.3438 0.6071 0.0
C297 C 0.54864 0.2622 0.36603 0.0
C298 C 0.52418 0.22785 0.34252 0.0
C299 C 0.50535 0.20121 0.39425 0.0
C300 C 0.51101 0.20856 0.46835 0.0
C301 C 0.53533 0.24282 0.48985 0.0
C302 C 0.55378 0.26917 0.43992 0.0
C303 C 0.57646 0.30437 0.4762 0.0
C304 C 0.61577 0.31838 0.46057 0.0
C305 C 0.56529 0.33113 0.4536 0.0
C306 C 0.56772 0.29391 0.55434 0.0
C307 C 0.54423 0.2583 0.56161 0.0
C308 C 0.53197 0.24307 0.62924 0.0
C309 C 0.54383 0.26492 0.69062 0.0
C310 C 0.56736 0.3016 0.68389 0.0
C311 C 0.57955 0.3159 0.61459 0.0
H312 H 0.54278 0.59859 0.73752 0.0
H313 H 0.44739 0.49723 0.71563 0.0
H314 H 0.4272 0.50491 0.83502 0.0
H315 H 0.5568 0.5881 0.91931 0.0
H316 H 0.57401 0.63365 0.94334 0.0
H317 H 0.57841 0.62216 0.8526 0.0
H318 H 0.54714 0.65523 0.80597 0.0
H319 H 0.54227 0.66644 0.89696 0.0
H320 H 0.50405 0.64348 0.84001 0.0
H321 H 0.41909 0.52173 0.95902 0.0
H322 H 0.42719 0.54243 0.08471 0.0
H323 H 0.52896 0.63194 0.02834 0.0
C324 C 0.51747 0.57834 0.7578 0.0
C325 C 0.49651 0.5474 0.7179 0.0
C326 C 0.46383 0.52103 0.74603 0.0
C327 C 0.45199 0.52535 0.81325 0.0
C328 C 0.47329 0.55613 0.8517 0.0
C329 C 0.50554 0.582 0.82543 0.0
C330 C 0.52501 0.61069 0.88074 0.0
C331 C 0.56065 0.6138 0.90015 0.0
C332 C 0.5299 0.64606 0.85433 0.0
C333 C 0.4992 0.59633 0.94292 0.0
C334 C 0.46912 0.56532 0.9244 0.0
C335 C 0.44237 0.54616 0.97405 0.0
C336 C 0.44714 0.55821 0.04532 0.0
C337 C 0.47872 0.58878 0.06641 0.0
C338 C 0.50442 0.60863 0.01379 0.0
H339 H 0.15517 0.50555 0.12246 0.0
H340 H 0.12829 0.58437 0.05905 0.0
H341 H 0.099 0.57786 0.17614 0.0
H342 H 0.07552 0.45011 0.22916 0.0
H343 H 0.09971 0.44128 0.29639 0.0
H344 H 0.1148 0.44906 0.20442 0.0
H345 H 0.17599 0.49966 0.24554 0.0
H346 H 0.16124 0.4917 0.33741 0.0
H347 H 0.17837 0.53502 0.29935 0.0
H348 H 0.07677 0.56602 0.3034 0.0
H349 H 0.06884 0.55445 0.43387 0.0
H350 H 0.11121 0.48403 0.41403 0.0
C351 C 0.14286 0.52124 0.13297 0.0
C352 C 0.14322 0.54483 0.08105 0.0
C353 C 0.12724 0.56523 0.09705 0.0
C354 C 0.11063 0.56177 0.16351 0.0
C355 C 0.11031 0.53785 0.21319 0.0
C356 C 0.12624 0.51812 0.19884 0.0
C357 C 0.12492 0.49651 0.26328 0.0
C358 C 0.10239 0.45689 0.24733 0.0
C359 C 0.16234 0.50634 0.28784 0.0
C360 C 0.10694 0.50818 0.31713 0.0
C361 C 0.09804 0.53145 0.28688 0.0
C362 C 0.08324 0.54752 0.32751 0.0
C363 C 0.07873 0.54068 0.40158 0.0
C364 C 0.08945 0.51836 0.43414 0.0
C365 C 0.1025 0.50099 0.39068 0.0
H366 H 0.82952 0.17154 0.74237 0.0
H367 H 0.74402 0.06353 0.72524 0.0
H368 H 0.74433 0.07004 0.59227 0.0
H369 H 0.79584 0.20548 0.60998 0.0
H370 H 0.83882 0.23776 0.57718 0.0
H371 H 0.8334 0.22347 0.6694 0.0
H372 H 0.88115 0.20559 0.65261 0.0
H373 H 0.88697 0.22011 0.56051 0.0
H374 H 0.87646 0.17574 0.5811 0.0
H375 H 0.75723 0.08854 0.46086 0.0
H376 H 0.77698 0.11774 0.34418 0.0
H377 H 0.84807 0.21623 0.45155 0.0
C378 C 0.81127 0.14901 0.71054 0.0
C379 C 0.7873 0.11672 0.74324 0.0
C380 C 0.76289 0.08825 0.70049 0.0
C381 C 0.7629 0.09178 0.62531 0.0
C382 C 0.78686 0.12422 0.59478 0.0
C383 C 0.81025 0.15242 0.63635 0.0
C384 C 0.83188 0.18509 0.59168 0.0
C385 C 0.82452 0.21468 0.61336 0.0
C386 C 0.87145 0.19733 0.59678 0.0
C387 C 0.81743 0.17086 0.51789 0.0
C388 C 0.7918 0.13565 0.52055 0.0
C389 C 0.77641 0.11638 0.45838 0.0
C390 C 0.7874 0.13359 0.3919 0.0
C391 C 0.81276 0.17006 0.38807 0.0
C392 C 0.82794 0.18864 0.45235 0.0
H393 H 0.88751 0.89704 0.78811 0.0
H394 H 0.79599 0.79968 0.71852 0.0
H395 H 0.79528 0.77215 0.83447 0.0
H396 H 0.92962 0.8582 0.89265 0.0
H397 H 0.94372 0.89092 0.96275 0.0
H398 H 0.939 0.9022 0.87185 0.0
H399 H 0.89611 0.92298 0.91549 0.0
H400 H 0.90113 0.91227 0.00646 0.0
H401 H 0.85775 0.89334 0.96729 0.0
H402 H 0.80311 0.75589 0.95981 0.0
H403 H 0.81442 0.75424 0.08928 0.0
H404 H 0.89972 0.86285 0.07859 0.0
C405 C 0.86738 0.86987 0.79712 0.0
C406 C 0.84249 0.85017 0.74321 0.0
C407 C 0.81626 0.81488 0.75761 0.0
C408 C 0.81552 0.79905 0.82359 0.0
C409 C 0.841 0.81896 0.87488 0.0
C410 C 0.86616 0.85374 0.86276 0.0
C411 C 0.88899 0.87011 0.92856 0.0
C412 C 0.92762 0.88099 0.91299 0.0
C413 C 0.88578 0.90152 0.95607 0.0
C414 C 0.87223 0.8393 0.98016 0.0
C415 C 0.84496 0.80987 0.94779 0.0
C416 C 0.82453 0.7787 0.98564 0.0
C417 C 0.83126 0.77799 0.05919 0.0
C418 C 0.85796 0.80839 0.09427 0.0
C419 C 0.87935 0.83903 0.0534 0.0
H420 H 0.25015 0.85814 0.36309 0.0
H421 H 0.29146 0.96837 0.41413 0.0
H422 H 0.29063 0.98146 0.28556 0.0
H423 H 0.29158 0.87189 0.17372 0.0
H424 H 0.25219 0.83392 0.14069 0.0
H425 H 0.2662 0.83487 0.23225 0.0
H426 H 0.20477 0.82185 0.27675 0.0
H427 H 0.1908 0.82176 0.186 0.0
H428 H 0.18877 0.85105 0.25146 0.0
H429 H 0.2721 0.98044 0.1613 0.0
H430 H 0.24155 0.96624 0.04431 0.0
H431 H 0.21054 0.85632 0.07212 0.0
C432 C 0.26082 0.88527 0.34646 0.0
C433 C 0.27125 0.91238 0.3977 0.0
C434 C 0.28367 0.9474 0.37507 0.0
C435 C 0.28338 0.95506 0.30226 0.0
C436 C 0.27066 0.92736 0.25319 0.0
C437 C 0.26015 0.89319 0.27394 0.0
C438 C 0.24222 0.86749 0.21271 0.0
C439 C 0.26438 0.85108 0.1884 0.0
C440 C 0.20442 0.83889 0.23299 0.0
C441 C 0.24214 0.89219 0.15621 0.0
C442 C 0.25936 0.92669 0.1802 0.0
C443 C 0.25943 0.95373 0.14099 0.0
C444 C 0.24161 0.94536 0.07527 0.0
C445 C 0.22397 0.91026 0.04977 0.0
C446 C 0.22449 0.88343 0.09028 0.0
H447 H 0.49323 0.34419 0.14234 0.0
H448 H 0.58822 0.40981 0.01934 0.0
H449 H 0.59019 0.46307 0.06876 0.0
H450 H 0.45442 0.39901 0.13463 0.0
H451 H 0.43925 0.39096 0.22654 0.0
H452 H 0.44389 0.35805 0.17756 0.0
H453 H 0.48516 0.35772 0.27703 0.0
H454 H 0.48064 0.39063 0.32637 0.0
H455 H 0.52386 0.39846 0.30214 0.0
H456 H 0.58061 0.50882 0.12827 0.0
H457 H 0.56307 0.54452 0.20231 0.0
H458 H 0.47927 0.4494 0.29908 0.0
C459 C 0.51462 0.36978 0.12636 0.0
C460 C 0.54046 0.37297 0.0767 0.0
C461 C 0.56777 0.40685 0.05626 0.0
C462 C 0.56926 0.4372 0.08443 0.0
C463 C 0.54363 0.43312 0.13405 0.0
C464 C 0.51711 0.4003 0.15569 0.0
C465 C 0.49393 0.40323 0.21259 0.0
C466 C 0.45561 0.38684 0.18622 0.0
C467 C 0.49604 0.38653 0.28375 0.0
C468 C 0.51133 0.44287 0.21897 0.0
C469 C 0.53968 0.45958 0.17243 0.0
C470 C 0.55882 0.4961 0.16566 0.0
C471 C 0.54872 0.51609 0.20768 0.0
C472 C 0.52034 0.49949 0.25665 0.0
C473 C 0.50152 0.46251 0.2628 0.0
H474 H 0.33967 0.52278 0.40745 0.0
H475 H 0.41926 0.57759 0.57129 0.0
H476 H 0.37455 0.57796 0.65105 0.0
H477 H 0.29183 0.57021 0.44122 0.0
H478 H 0.24919 0.53208 0.42474 0.0
H479 H 0.28768 0.53649 0.3798 0.0
H480 H 0.27367 0.47569 0.42981 0.0
H481 H 0.23543 0.47136 0.47564 0.0
H482 H 0.26896 0.4681 0.52551 0.0
H483 H 0.32162 0.57005 0.71535 0.0
H484 H 0.26372 0.55963 0.7568 0.0
H485 H 0.218 0.51205 0.55043 0.0
C486 C 0.34756 0.53514 0.45981 0.0
C487 C 0.3826 0.54945 0.48411 0.0
C488 C 0.39224 0.56559 0.5527 0.0
C489 C 0.36713 0.56611 0.59821 0.0
C490 C 0.33256 0.55084 0.57388 0.0
C491 C 0.32273 0.53614 0.50601 0.0
C492 C 0.28368 0.52188 0.4935 0.0
C493 C 0.27775 0.54133 0.43113 0.0
C494 C 0.2643 0.48188 0.48035 0.0
C495 C 0.27329 0.53066 0.5651 0.0
C496 C 0.3019 0.54716 0.61068 0.0
C497 C 0.29897 0.55737 0.68009 0.0
C498 C 0.26592 0.55117 0.70325 0.0
C499 C 0.23631 0.53512 0.6569 0.0
C500 C 0.24012 0.52447 0.58714 0.0
H501 H 0.91982 0.2939 0.02266 0.0
H502 H 0.92343 0.21837 0.87687 0.0
H503 H 0.97229 0.26675 0.81047 0.0
H504 H 0.93286 0.35615 0.89165 0.0
H505 H 0.96027 0.39451 0.94551 0.0
H506 H 0.92853 0.35407 0.98823 0.0
H507 H 0.97788 0.35467 0.06609 0.0
H508 H 0.00975 0.39544 0.02434 0.0
H509 H 0.01634 0.35804 0.0229 0.0
H510 H 0.01683 0.3226 0.75361 0.0
H511 H 0.05719 0.3836 0.71326 0.0
H512 H 0.02415 0.42349 0.89276 0.0
C513 C 0.93165 0.2876 0.97809 0.0
C514 C 0.91805 0.25245 0.95509 0.0
C515 C 0.93353 0.24517 0.89537 0.0
C516 C 0.96129 0.27243 0.85732 0.0
C517 C 0.9733 0.30686 0.87963 0.0
C518 C 0.95931 0.31463 0.93894 0.0
C519 C 0.9757 0.3541 0.94839 0.0
C520 C 0.94766 0.36535 0.94311 0.0
C521 C 0.99613 0.36628 0.01966 0.0
C522 C 1.00047 0.36708 0.88442 0.0
C523 C 0.99878 0.33936 0.84578 0.0
C524 C 0.01855 0.34459 0.78353 0.0
C525 C 0.04105 0.3792 0.76058 0.0
C526 C 0.04329 0.40794 0.79956 0.0
C527 C 0.02274 0.40179 0.86214 0.0
H528 H 0.81108 0.05531 0.22207 0.0
H529 H 0.87719 0.07866 0.03304 0.0
H530 H 0.89939 0.04051 0.07904 0.0
H531 H 0.87326 0.05396 0.34914 0.0
H532 H 0.83973 0.01808 0.40103 0.0
H533 H 0.82934 0.04765 0.35394 0.0
H534 H 0.7782 0.99489 0.28715 0.0
H535 H 0.78809 0.96518 0.33479 0.0
H536 H 0.78709 0.96474 0.23786 0.0
H537 H 0.91308 0.99917 0.14326 0.0
H538 H 0.91416 0.95313 0.21706 0.0
H539 H 0.84032 0.95736 0.36701 0.0
C540 C 0.83014 0.05217 0.19049 0.0
C541 C 0.84218 0.06937 0.12373 0.0
C542 C 0.86718 0.06501 0.08361 0.0
C543 C 0.88023 0.04382 0.10975 0.0
C544 C 0.86815 0.02749 0.17623 0.0
C545 C 0.8435 0.03119 0.21591 0.0
C546 C 0.83404 0.00978 0.28457 0.0
C547 C 0.84474 0.03381 0.3511 0.0
C548 C 0.79452 0.982 0.28614 0.0
C549 C 0.85675 0.99291 0.27662 0.0
C550 C 0.87649 0.00387 0.21407 0.0
C551 C 0.89802 0.9906 0.19268 0.0
C552 C 0.89849 0.96451 0.23501 0.0
C553 C 0.87754 0.95194 0.29796 0.0
C554 C 0.85719 0.96706 0.32007 0.0
H555 H 0.13392 0.90341 0.52316 0.0
H556 H 0.09953 0.85269 0.73155 0.0
H557 H 0.0377 0.83146 0.69778 0.0
H558 H 0.07103 0.93289 0.51278 0.0
H559 H 0.06461 0.92591 0.41712 0.0
H560 H 0.10608 0.93589 0.4568 0.0
H561 H 0.10007 0.87909 0.40018 0.0
H562 H 0.05823 0.86863 0.36135 0.0
H563 H 0.06132 0.83721 0.41881 0.0
H564 H 0.98009 0.81566 0.64261 0.0
H565 H 0.93016 0.8125 0.57475 0.0
H566 H 1.00136 0.8747 0.40341 0.0
C567 C 0.11339 0.88787 0.56172 0.0
C568 C 0.12157 0.8796 0.62992 0.0
C569 C 0.09396 0.85946 0.67909 0.0
C570 C 0.05872 0.84701 0.6602 0.0
C571 C 0.05156 0.85509 0.59216 0.0
C572 C 0.07806 0.87548 0.54403 0.0
C573 C 0.06317 0.88191 0.47586 0.0
C574 C 0.07704 0.9215 0.46505 0.0
C575 C 0.07118 0.86574 0.41017 0.0
C576 C 0.02417 0.86222 0.49362 0.0
C577 C 0.01811 0.84651 0.56058 0.0
C578 C 0.98444 0.82775 0.59008 0.0
C579 C 0.95632 0.82603 0.55122 0.0
C580 C 0.96213 0.84324 0.48411 0.0
C581 C 0.99629 0.8608 0.45405 0.0
H582 H 0.30779 0.03653 0.83194 0.0
H583 H 0.36187 0.01441 0.66172 0.0
H584 H 0.416 0.07082 0.68607 0.0
H585 H 0.35121 0.13063 0.81514 0.0
H586 H 0.355 0.1387 0.91069 0.0
H587 H 0.31922 0.09822 0.87558 0.0
H588 H 0.3375 0.06232 0.95755 0.0
H589 H 0.37322 0.10268 0.99321 0.0
H590 H 0.38208 0.07037 0.95355 0.0
H591 H 0.46327 0.12982 0.72587 0.0
H592 H 0.50418 0.18468 0.78951 0.0
H593 H 0.42295 0.16463 0.94683 0.0
C594 C 0.33112 0.04341 0.80024 0.0
C595 C 0.33047 0.02131 0.74414 0.0
C596 C 0.36145 0.03139 0.7035 0.0
C597 C 0.39239 0.06325 0.7173 0.0
C598 C 0.39217 0.08427 0.7732 0.0
C599 C 0.36264 0.07451 0.8151 0.0
C600 C 0.37044 0.10066 0.87555 0.0
C601 C 0.34761 0.11808 0.8688 0.0
C602 C 0.36553 0.08295 0.94933 0.0
C603 C 0.40895 0.12675 0.86065 0.0
C604 C 0.42061 0.11704 0.80038 0.0
C605 C 0.45464 0.13753 0.7736 0.0
C606 C 0.47757 0.16865 0.80988 0.0
C607 C 0.46663 0.17853 0.87309 0.0
C608 C 0.43193 0.15731 0.899 0.0
loop_
_geom_bond_atom_site_label_1
_geom_bond_atom_site_label_2
_geom_bond_distance
_geom_bond_site_symmetry_2
_ccdc_geom_bond_type
Co0 O3 1.970 . S
Co0 N17 1.989 1_556 S
Co0 O25 1.967 . S
Co0 O32 1.920 . S
Co1 O4 1.966 . S
Co1 N10 2.022 . S
Co1 N18 1.993 . S
Co1 O26 1.941 . S
C2 O3 1.258 1_554 S
C2 O4 1.263 . S
O3 Co0 1.970 . S
O3 C2 1.258 1_556 S
O4 Co1 1.966 . S
O4 C2 1.263 . S
C5 O6 1.235 . S
C5 O32 1.289 . S
O6 C5 1.235 . S
C7 C9 1.400 . S
C7 N10 1.351 . S
C7 C12 1.501 . S
C8 C9 1.387 . S
C8 N11 1.341 . S
C9 C7 1.400 . S
C9 C8 1.387 . S
N10 Co1 2.022 . S
N10 C7 1.351 . S
N10 N11 1.365 . S
N11 C8 1.341 . S
N11 N10 1.365 . S
N11 H31 0.862 . S
C12 C7 1.501 . S
C12 H13 0.961 . S
C12 H14 0.961 . S
C12 H15 0.960 . S
H13 C12 0.961 . S
H14 C12 0.961 . S
H15 C12 0.960 . S
C16 N17 1.342 1_556 S
C16 C20 1.401 1_556 S
C16 C21 1.499 . S
N17 Co0 1.989 1_554 S
N17 C16 1.342 1_554 S
N17 N18 1.388 . S
N18 Co1 1.993 . S
N18 N17 1.388 . S
N18 C19 1.346 . S
C19 N18 1.346 . S
C19 C20 1.396 . S
C19 C29 1.510 . S
C20 C16 1.401 1_554 S
C20 C19 1.396 . S
C21 C16 1.499 . S
C21 H22 0.959 . S
C21 H23 0.960 . S
C21 H24 0.961 . S
H22 C21 0.959 . S
H23 C21 0.960 . S
H24 C21 0.961 . S
O25 Co0 1.967 . S
O25 C33 1.251 1_556 S
O26 Co1 1.941 . S
O26 C33 1.276 . S
H27 C29 0.959 . S
H28 C29 0.961 . S
C29 C19 1.510 . S
C29 H27 0.959 . S
C29 H28 0.961 . S
C29 H30 0.960 . S
H30 C29 0.960 . S
H31 N11 0.862 . S
O32 Co0 1.920 . S
O32 C5 1.289 . S
C33 O25 1.251 1_554 S
C33 O26 1.276 . S
Co34 O37 1.970 . S
Co34 N51 1.989 . S
Co34 O59 1.967 . S
Co34 O66 1.920 . S
Co35 O38 1.966 . S
Co35 N44 2.022 . S
Co35 N52 1.993 . S
Co35 O60 1.941 . S
C36 O37 1.258 . S
C36 O38 1.263 . S
O37 Co34 1.970 . S
O37 C36 1.258 . S
O38 Co35 1.966 . S
O38 C36 1.263 . S
C39 O40 1.235 . S
C39 O66 1.289 . S
O40 C39 1.235 . S
C41 C43 1.400 . S
C41 N44 1.351 . S
C41 C46 1.501 . S
C42 C43 1.387 . S
C42 N45 1.341 . S
C43 C41 1.400 . S
C43 C42 1.387 . S
N44 Co35 2.022 . S
N44 C41 1.351 . S
N44 N45 1.365 . S
N45 C42 1.341 . S
N45 N44 1.365 . S
N45 H65 0.862 . S
C46 C41 1.501 . S
C46 H47 0.961 . S
C46 H48 0.961 . S
C46 H49 0.960 . S
H47 C46 0.961 . S
H48 C46 0.961 . S
H49 C46 0.960 . S
C50 N51 1.342 . S
C50 C54 1.401 . S
C50 C55 1.499 . S
N51 Co34 1.989 . S
N51 C50 1.342 . S
N51 N52 1.388 . S
N52 Co35 1.993 . S
N52 N51 1.388 . S
N52 C53 1.346 . S
C53 N52 1.346 . S
C53 C54 1.396 . S
C53 C63 1.510 . S
C54 C50 1.401 . S
C54 C53 1.396 . S
C55 C50 1.499 . S
C55 H56 0.959 . S
C55 H57 0.960 . S
C55 H58 0.961 . S
H56 C55 0.959 . S
H57 C55 0.960 . S
H58 C55 0.961 . S
O59 Co34 1.967 . S
O59 C67 1.258 . S
O60 Co35 1.941 . S
O60 C67 1.266 . S
H61 C63 0.959 . S
H62 C63 0.961 . S
C63 C53 1.510 . S
C63 H61 0.959 . S
C63 H62 0.961 . S
C63 H64 0.960 . S
H64 C63 0.960 . S
H65 N45 0.862 . S
O66 Co34 1.920 . S
O66 C39 1.289 . S
C67 O59 1.258 . S
C67 O60 1.266 . S
Co68 O71 1.970 . S
Co68 N85 1.989 . S
Co68 O93 1.967 . S
Co68 O100 1.920 . S
Co69 O72 1.966 . S
Co69 N78 2.022 . S
Co69 N86 1.993 . S
Co69 O94 1.941 . S
C70 O71 1.258 . S
C70 O72 1.263 . S
O71 Co68 1.970 . S
O71 C70 1.258 . S
O72 Co69 1.966 . S
O72 C70 1.263 . S
C73 O74 1.235 . S
C73 O100 1.289 . S
O74 C73 1.235 . S
C75 C77 1.400 1_556 S
C75 N78 1.351 . S
C75 C80 1.501 . S
C76 C77 1.387 1_556 S
C76 N79 1.341 . S
C77 C75 1.400 1_554 S
C77 C76 1.387 1_554 S
N78 Co69 2.022 . S
N78 C75 1.351 . S
N78 N79 1.365 . S
N79 C76 1.341 . S
N79 N78 1.365 . S
N79 H99 0.862 . S
C80 C75 1.501 . S
C80 H81 0.961 . S
C80 H82 0.961 . S
C80 H83 0.960 . S
H81 C80 0.961 . S
H82 C80 0.961 . S
H83 C80 0.960 . S
C84 N85 1.342 . S
C84 C88 1.401 . S
C84 C89 1.499 . S
N85 Co68 1.989 . S
N85 C84 1.342 . S
N85 N86 1.388 . S
N86 Co69 1.993 . S
N86 N85 1.388 . S
N86 C87 1.346 . S
C87 N86 1.346 . S
C87 C88 1.396 . S
C87 C97 1.510 . S
C88 C84 1.401 . S
C88 C87 1.396 . S
C89 C84 1.499 . S
C89 H90 0.959 . S
C89 H91 0.960 . S
C89 H92 0.961 . S
H90 C89 0.959 . S
H91 C89 0.960 . S
H92 C89 0.961 . S
O93 Co68 1.967 . S
O93 C101 1.258 . S
O94 Co69 1.941 . S
O94 C101 1.266 . S
H95 C97 0.959 . S
H96 C97 0.961 . S
C97 C87 1.510 . S
C97 H95 0.959 . S
C97 H96 0.961 . S
C97 H98 0.960 . S
H98 C97 0.960 . S
H99 N79 0.862 . S
O100 Co68 1.920 . S
O100 C73 1.289 . S
C101 O93 1.258 . S
C101 O94 1.266 . S
Co102 O105 1.970 . S
Co102 N119 1.989 1_556 S
Co102 O127 1.967 . S
Co102 O134 1.920 . S
Co103 O106 1.966 . S
Co103 N112 2.022 . S
Co103 N120 1.993 . S
Co103 O128 1.941 . S
C104 O105 1.258 1_554 S
C104 O106 1.263 . S
O105 Co102 1.970 . S
O105 C104 1.258 1_556 S
O106 Co103 1.966 . S
O106 C104 1.263 . S
C107 O108 1.235 . S
C107 O134 1.289 . S
O108 C107 1.235 . S
C109 C111 1.400 . S
C109 N112 1.351 . S
C109 C114 1.501 . S
C110 C111 1.387 . S
C110 N113 1.341 . S
C111 C109 1.400 . S
C111 C110 1.387 . S
N112 Co103 2.022 . S
N112 C109 1.351 . S
N112 N113 1.365 . S
N113 C110 1.341 . S
N113 N112 1.365 . S
N113 H133 0.862 . S
C114 C109 1.501 . S
C114 H115 0.961 . S
C114 H116 0.961 . S
C114 H117 0.960 . S
H115 C114 0.961 . S
H116 C114 0.961 . S
H117 C114 0.960 . S
C118 N119 1.342 1_556 S
C118 C122 1.401 1_556 S
C118 C123 1.499 . S
N119 Co102 1.989 1_554 S
N119 C118 1.342 1_554 S
N119 N120 1.388 . S
N120 Co103 1.993 . S
N120 N119 1.388 . S
N120 C121 1.346 . S
C121 N120 1.346 . S
C121 C122 1.396 . S
C121 C131 1.510 . S
C122 C118 1.401 1_554 S
C122 C121 1.396 . S
C123 C118 1.499 . S
C123 H124 0.959 . S
C123 H125 0.960 . S
C123 H126 0.961 . S
H124 C123 0.959 . S
H125 C123 0.960 . S
H126 C123 0.961 . S
O127 Co102 1.967 . S
O127 C135 1.251 1_556 S
O128 Co103 1.941 . S
O128 C135 1.276 . S
H129 C131 0.959 . S
H130 C131 0.961 . S
C131 C121 1.510 . S
C131 H129 0.959 . S
C131 H130 0.961 . S
C131 H132 0.960 . S
H132 C131 0.960 . S
H133 N113 0.862 . S
O134 Co102 1.920 . S
O134 C107 1.289 . S
C135 O127 1.251 1_554 S
C135 O128 1.276 . S
Co136 O139 1.970 . S
Co136 N153 1.989 . S
Co136 O161 1.967 . S
Co136 O168 1.920 . S
Co137 O140 1.966 . S
Co137 N146 2.022 . S
Co137 N154 1.993 . S
Co137 O162 1.941 . S
C138 O139 1.258 . S
C138 O140 1.263 . S
O139 Co136 1.970 . S
O139 C138 1.258 . S
O140 Co137 1.966 . S
O140 C138 1.263 . S
C141 O142 1.235 . S
C141 O168 1.289 . S
O142 C141 1.235 . S
C143 C145 1.400 . S
C143 N146 1.351 . S
C143 C148 1.501 . S
C144 C145 1.387 . S
C144 N147 1.341 . S
C145 C143 1.400 . S
C145 C144 1.387 . S
N146 Co137 2.022 . S
N146 C143 1.351 . S
N146 N147 1.365 . S
N147 C144 1.341 . S
N147 N146 1.365 . S
N147 H167 0.862 . S
C148 C143 1.501 . S
C148 H149 0.961 . S
C148 H150 0.961 . S
C148 H151 0.960 . S
H149 C148 0.961 . S
H150 C148 0.961 . S
H151 C148 0.960 . S
C152 N153 1.342 . S
C152 C156 1.401 . S
C152 C157 1.499 . S
N153 Co136 1.989 . S
N153 C152 1.342 . S
N153 N154 1.388 . S
N154 Co137 1.993 . S
N154 N153 1.388 . S
N154 C155 1.346 . S
C155 N154 1.346 . S
C155 C156 1.396 . S
C155 C165 1.510 . S
C156 C152 1.401 . S
C156 C155 1.396 . S
C157 C152 1.499 . S
C157 H158 0.959 . S
C157 H159 0.960 . S
C157 H160 0.961 . S
H158 C157 0.959 . S
H159 C157 0.960 . S
H160 C157 0.961 . S
O161 Co136 1.967 . S
O161 C169 1.258 . S
O162 Co137 1.941 . S
O162 C169 1.266 . S
H163 C165 0.959 . S
H164 C165 0.961 . S
C165 C155 1.510 . S
C165 H163 0.959 . S
C165 H164 0.961 . S
C165 H166 0.960 . S
H166 C165 0.960 . S
H167 N147 0.862 . S
O168 Co136 1.920 . S
O168 C141 1.289 . S
C169 O161 1.258 . S
C169 O162 1.266 . S
Co170 O173 1.970 . S
Co170 N187 1.989 . S
Co170 O195 1.967 . S
Co170 O202 1.920 . S
Co171 O174 1.966 . S
Co171 N180 2.022 . S
Co171 N188 1.993 . S
Co171 O196 1.941 . S
C172 O173 1.258 . S
C172 O174 1.263 . S
O173 Co170 1.970 . S
O173 C172 1.258 . S
O174 Co171 1.966 . S
O174 C172 1.263 . S
C175 O176 1.235 . S
C175 O202 1.289 . S
O176 C175 1.235 . S
C177 C179 1.400 1_556 S
C177 N180 1.351 . S
C177 C182 1.501 . S
C178 C179 1.387 1_556 S
C178 N181 1.341 . S
C179 C177 1.400 1_554 S
C179 C178 1.387 1_554 S
N180 Co171 2.022 . S
N180 C177 1.351 . S
N180 N181 1.365 . S
N181 C178 1.341 . S
N181 N180 1.365 . S
N181 H201 0.862 . S
C182 C177 1.501 . S
C182 H183 0.961 . S
C182 H184 0.961 . S
C182 H185 0.960 . S
H183 C182 0.961 . S
H184 C182 0.961 . S
H185 C182 0.960 . S
C186 N187 1.342 . S
C186 C190 1.401 . S
C186 C191 1.499 . S
N187 Co170 1.989 . S
N187 C186 1.342 . S
N187 N188 1.388 . S
N188 Co171 1.993 . S
N188 N187 1.388 . S
N188 C189 1.346 . S
C189 N188 1.346 . S
C189 C190 1.396 . S
C189 C199 1.510 . S
C190 C186 1.401 . S
C190 C189 1.396 . S
C191 C186 1.499 . S
C191 H192 0.959 . S
C191 H193 0.960 . S
C191 H194 0.961 1_565 S
H192 C191 0.959 . S
H193 C191 0.960 . S
H194 C191 0.961 1_545 S
O195 Co170 1.967 . S
O195 C203 1.258 . S
O196 Co171 1.941 . S
O196 C203 1.266 . S
H197 C199 0.959 . S
H198 C199 0.961 . S
C199 C189 1.510 . S
C199 H197 0.959 . S
C199 H198 0.961 . S
C199 H200 0.960 . S
H200 C199 0.960 . S
H201 N181 0.862 . S
O202 Co170 1.920 . S
O202 C175 1.289 . S
C203 O195 1.258 . S
C203 O196 1.266 . S
H204 C216 0.930 . S
H205 C218 0.930 . S
H206 C219 0.930 . S
H207 C223 0.959 . S
H208 C223 0.959 . S
H209 C223 0.961 . S
H210 C224 0.960 . S
H211 C224 0.961 . S
H212 C224 0.959 . S
H213 C227 0.929 . S
H214 C228 0.931 . S
H215 C230 0.930 . S
C216 H204 0.930 . S
C216 C217 1.399 . S
C216 C221 1.399 . S
C217 C216 1.399 . S
C217 C218 1.376 1_554 S
C218 H205 0.930 . S
C218 C217 1.376 1_556 S
C218 C219 1.388 . S
C219 H206 0.930 . S
C219 C218 1.388 . S
C219 C220 1.390 . S
C220 C219 1.390 . S
C220 C221 1.394 1_556 S
C220 C226 1.465 . S
C221 C216 1.399 . S
C221 C220 1.394 1_554 S
C221 C222 1.516 . S
C222 C221 1.516 . S
C222 C223 1.502 . S
C222 C224 1.561 . S
C222 C225 1.526 . S
C223 H207 0.959 . S
C223 H208 0.959 . S
C223 H209 0.961 . S
C223 C222 1.502 . S
C224 H210 0.960 . S
C224 H211 0.961 . S
C224 H212 0.959 . S
C224 C222 1.561 . S
C225 C222 1.526 . S
C225 C226 1.396 1_554 S
C225 C230 1.390 . S
C226 C220 1.465 . S
C226 C225 1.396 1_556 S
C226 C227 1.399 . S
C227 H213 0.929 . S
C227 C226 1.399 . S
C227 C228 1.385 . S
C228 H214 0.931 . S
C228 C227 1.385 . S
C228 C229 1.389 1_556 S
C229 C228 1.389 1_554 S
C229 C230 1.387 . S
C230 H215 0.930 . S
C230 C225 1.390 . S
C230 C229 1.387 . S
H231 C243 0.930 . S
H232 C245 0.930 . S
H233 C246 0.930 . S
H234 C250 0.959 . S
H235 C250 0.959 . S
H236 C250 0.961 . S
H237 C251 0.960 . S
H238 C251 0.961 . S
H239 C251 0.959 . S
H240 C254 0.929 . S
H241 C255 0.931 . S
H242 C257 0.930 . S
C243 H231 0.930 . S
C243 C244 1.399 . S
C243 C248 1.399 . S
C244 C243 1.399 . S
C244 C245 1.376 . S
C245 H232 0.930 . S
C245 C244 1.376 . S
C245 C246 1.388 . S
C246 H233 0.930 . S
C246 C245 1.388 . S
C246 C247 1.390 . S
C247 C246 1.390 . S
C247 C248 1.394 . S
C247 C253 1.465 . S
C248 C243 1.399 . S
C248 C247 1.394 . S
C248 C249 1.516 . S
C249 C248 1.516 . S
C249 C250 1.502 . S
C249 C251 1.561 . S
C249 C252 1.526 . S
C250 H234 0.959 . S
C250 H235 0.959 . S
C250 H236 0.961 . S
C250 C249 1.502 . S
C251 H237 0.960 . S
C251 H238 0.961 . S
C251 H239 0.959 . S
C251 C249 1.561 . S
C252 C249 1.526 . S
C252 C253 1.396 . S
C252 C257 1.390 . S
C253 C247 1.465 . S
C253 C252 1.396 . S
C253 C254 1.399 . S
C254 H240 0.929 . S
C254 C253 1.399 . S
C254 C255 1.385 . S
C255 H241 0.931 . S
C255 C254 1.385 . S
C255 C256 1.389 . S
C256 C255 1.389 . S
C256 C257 1.387 . S
C257 H242 0.930 . S
C257 C252 1.390 . S
C257 C256 1.387 . S
H258 C270 0.930 . S
H259 C272 0.930 . S
H260 C273 0.930 . S
H261 C277 0.959 . S
H262 C277 0.959 . S
H263 C277 0.961 . S
H264 C278 0.960 . S
H265 C278 0.961 . S
H266 C278 0.959 . S
H267 C281 0.929 . S
H268 C282 0.931 . S
H269 C284 0.930 . S
C270 H258 0.930 . S
C270 C271 1.399 . S
C270 C275 1.399 . S
C271 C270 1.399 . S
C271 C272 1.376 . S
C272 H259 0.930 . S
C272 C271 1.376 . S
C272 C273 1.388 . S
C273 H260 0.930 . S
C273 C272 1.388 . S
C273 C274 1.390 . S
C274 C273 1.390 . S
C274 C275 1.394 . S
C274 C280 1.465 . S
C275 C270 1.399 . S
C275 C274 1.394 . S
C275 C276 1.516 . S
C276 C275 1.516 . S
C276 C277 1.502 . S
C276 C278 1.561 . S
C276 C279 1.526 . S
C277 H261 0.959 . S
C277 H262 0.959 . S
C277 H263 0.961 . S
C277 C276 1.502 . S
C278 H264 0.960 . S
C278 H265 0.961 . S
C278 H266 0.959 . S
C278 C276 1.561 . S
C279 C276 1.526 . S
C279 C280 1.396 . S
C279 C284 1.390 . S
C280 C274 1.465 . S
C280 C279 1.396 . S
C280 C281 1.399 . S
C281 H267 0.929 . S
C281 C280 1.399 . S
C281 C282 1.385 . S
C282 H268 0.931 . S
C282 C281 1.385 . S
C282 C283 1.389 . S
C283 C282 1.389 . S
C283 C284 1.387 . S
C284 H269 0.930 . S
C284 C279 1.390 . S
C284 C283 1.387 . S
H285 C297 0.930 . S
H286 C299 0.930 . S
H287 C300 0.930 . S
H288 C304 0.959 . S
H289 C304 0.959 . S
H290 C304 0.961 . S
H291 C305 0.960 . S
H292 C305 0.961 . S
H293 C305 0.959 . S
H294 C308 0.929 . S
H295 C309 0.931 . S
H296 C311 0.930 . S
C297 H285 0.930 . S
C297 C298 1.399 . S
C297 C302 1.399 . S
C298 C297 1.399 . S
C298 C299 1.376 . S
C299 H286 0.930 . S
C299 C298 1.376 . S
C299 C300 1.388 . S
C300 H287 0.930 . S
C300 C299 1.388 . S
C300 C301 1.390 . S
C301 C300 1.390 . S
C301 C302 1.394 . S
C301 C307 1.465 . S
C302 C297 1.399 . S
C302 C301 1.394 . S
C302 C303 1.516 . S
C303 C302 1.516 . S
C303 C304 1.502 . S
C303 C305 1.561 . S
C303 C306 1.526 . S
C304 H288 0.959 . S
C304 H289 0.959 . S
C304 H290 0.961 . S
C304 C303 1.502 . S
C305 H291 0.960 . S
C305 H292 0.961 . S
C305 H293 0.959 . S
C305 C303 1.561 . S
C306 C303 1.526 . S
C306 C307 1.396 . S
C306 C311 1.390 . S
C307 C301 1.465 . S
C307 C306 1.396 . S
C307 C308 1.399 . S
C308 H294 0.929 . S
C308 C307 1.399 . S
C308 C309 1.385 . S
C309 H295 0.931 . S
C309 C308 1.385 . S
C309 C310 1.389 . S
C310 C309 1.389 . S
C310 C311 1.387 . S
C311 H296 0.930 . S
C311 C306 1.390 . S
C311 C310 1.387 . S
H312 C324 0.930 . S
H313 C326 0.930 . S
H314 C327 0.930 . S
H315 C331 0.959 . S
H316 C331 0.959 . S
H317 C331 0.961 . S
H318 C332 0.960 . S
H319 C332 0.961 . S
H320 C332 0.959 . S
H321 C335 0.929 . S
H322 C336 0.931 . S
H323 C338 0.930 . S
C324 H312 0.930 . S
C324 C325 1.399 . S
C324 C329 1.399 . S
C325 C324 1.399 . S
C325 C326 1.376 . S
C326 H313 0.930 . S
C326 C325 1.376 . S
C326 C327 1.388 . S
C327 H314 0.930 . S
C327 C326 1.388 . S
C327 C328 1.390 . S
C328 C327 1.390 . S
C328 C329 1.394 . S
C328 C334 1.465 . S
C329 C324 1.399 . S
C329 C328 1.394 . S
C329 C330 1.516 . S
C330 C329 1.516 . S
C330 C331 1.502 . S
C330 C332 1.561 . S
C330 C333 1.526 . S
C331 H315 0.959 . S
C331 H316 0.959 . S
C331 H317 0.961 . S
C331 C330 1.502 . S
C332 H318 0.960 . S
C332 H319 0.961 . S
C332 H320 0.959 . S
C332 C330 1.561 . S
C333 C330 1.526 . S
C333 C334 1.396 . S
C333 C338 1.390 1_556 S
C334 C328 1.465 . S
C334 C333 1.396 . S
C334 C335 1.399 . S
C335 H321 0.929 . S
C335 C334 1.399 . S
C335 C336 1.385 1_556 S
C336 H322 0.931 . S
C336 C335 1.385 1_554 S
C336 C337 1.389 . S
C337 C336 1.389 . S
C337 C338 1.387 . S
C338 H323 0.930 . S
C338 C333 1.390 1_554 S
C338 C337 1.387 . S
H339 C351 0.930 . S
H340 C353 0.930 . S
H341 C354 0.930 . S
H342 C358 0.959 . S
H343 C358 0.959 . S
H344 C358 0.961 . S
H345 C359 0.960 . S
H346 C359 0.961 . S
H347 C359 0.959 . S
H348 C362 0.929 . S
H349 C363 0.931 . S
H350 C365 0.930 . S
C351 H339 0.930 . S
C351 C352 1.399 . S
C351 C356 1.399 . S
C352 C351 1.399 . S
C352 C353 1.376 . S
C353 H340 0.930 . S
C353 C352 1.376 . S
C353 C354 1.388 . S
C354 H341 0.930 . S
C354 C353 1.388 . S
C354 C355 1.390 . S
C355 C354 1.390 . S
C355 C356 1.394 . S
C355 C361 1.465 . S
C356 C351 1.399 . S
C356 C355 1.394 . S
C356 C357 1.516 . S
C357 C356 1.516 . S
C357 C358 1.502 . S
C357 C359 1.561 . S
C357 C360 1.526 . S
C358 H342 0.959 . S
C358 H343 0.959 . S
C358 H344 0.961 . S
C358 C357 1.502 . S
C359 H345 0.960 . S
C359 H346 0.961 . S
C359 H347 0.959 . S
C359 C357 1.561 . S
C360 C357 1.526 . S
C360 C361 1.396 . S
C360 C365 1.390 . S
C361 C355 1.465 . S
C361 C360 1.396 . S
C361 C362 1.399 . S
C362 H348 0.929 . S
C362 C361 1.399 . S
C362 C363 1.385 . S
C363 H349 0.931 . S
C363 C362 1.385 . S
C363 C364 1.389 . S
C364 C363 1.389 . S
C364 C365 1.387 . S
C365 H350 0.930 . S
C365 C360 1.390 . S
C365 C364 1.387 . S
H366 C378 0.930 . S
H367 C380 0.930 . S
H368 C381 0.930 . S
H369 C385 0.959 . S
H370 C385 0.959 . S
H371 C385 0.961 . S
H372 C386 0.960 . S
H373 C386 0.961 . S
H374 C386 0.959 . S
H375 C389 0.929 . S
H376 C390 0.931 . S
H377 C392 0.930 . S
C378 H366 0.930 . S
C378 C379 1.399 . S
C378 C383 1.399 . S
C379 C378 1.399 . S
C379 C380 1.376 . S
C380 H367 0.930 . S
C380 C379 1.376 . S
C380 C381 1.388 . S
C381 H368 0.930 . S
C381 C380 1.388 . S
C381 C382 1.390 . S
C382 C381 1.390 . S
C382 C383 1.394 . S
C382 C388 1.465 . S
C383 C378 1.399 . S
C383 C382 1.394 . S
C383 C384 1.516 . S
C384 C383 1.516 . S
C384 C385 1.502 . S
C384 C386 1.561 . S
C384 C387 1.526 . S
C385 H369 0.959 . S
C385 H370 0.959 . S
C385 H371 0.961 . S
C385 C384 1.502 . S
C386 H372 0.960 . S
C386 H373 0.961 . S
C386 H374 0.959 . S
C386 C384 1.561 . S
C387 C384 1.526 . S
C387 C388 1.396 . S
C387 C392 1.390 . S
C388 C382 1.465 . S
C388 C387 1.396 . S
C388 C389 1.399 . S
C389 H375 0.929 . S
C389 C388 1.399 . S
C389 C390 1.385 . S
C390 H376 0.931 . S
C390 C389 1.385 . S
C390 C391 1.389 . S
C391 C390 1.389 . S
C391 C392 1.387 . S
C392 H377 0.930 . S
C392 C387 1.390 . S
C392 C391 1.387 . S
H393 C405 0.930 . S
H394 C407 0.930 . S
H395 C408 0.930 . S
H396 C412 0.959 . S
H397 C412 0.959 . S
H398 C412 0.961 . S
H399 C413 0.960 . S
H400 C413 0.961 . S
H401 C413 0.959 . S
H402 C416 0.929 . S
H403 C417 0.931 . S
H404 C419 0.930 . S
C405 H393 0.930 . S
C405 C406 1.399 . S
C405 C410 1.399 . S
C406 C405 1.399 . S
C406 C407 1.376 . S
C407 H394 0.930 . S
C407 C406 1.376 . S
C407 C408 1.388 . S
C408 H395 0.930 . S
C408 C407 1.388 . S
C408 C409 1.390 . S
C409 C408 1.390 . S
C409 C410 1.394 . S
C409 C415 1.465 . S
C410 C405 1.399 . S
C410 C409 1.394 . S
C410 C411 1.516 . S
C411 C410 1.516 . S
C411 C412 1.502 . S
C411 C413 1.561 . S
C411 C414 1.526 . S
C412 H396 0.959 . S
C412 H397 0.959 . S
C412 H398 0.961 . S
C412 C411 1.502 . S
C413 H399 0.960 . S
C413 H400 0.961 . S
C413 H401 0.959 . S
C413 C411 1.561 . S
C414 C411 1.526 . S
C414 C415 1.396 . S
C414 C419 1.390 1_556 S
C415 C409 1.465 . S
C415 C414 1.396 . S
C415 C416 1.399 . S
C416 H402 0.929 . S
C416 C415 1.399 . S
C416 C417 1.385 1_556 S
C417 H403 0.931 . S
C417 C416 1.385 1_554 S
C417 C418 1.389 . S
C418 C417 1.389 . S
C418 C419 1.387 . S
C419 H404 0.930 . S
C419 C414 1.390 1_554 S
C419 C418 1.387 . S
H420 C432 0.930 . S
H421 C434 0.930 . S
H422 C435 0.930 . S
H423 C439 0.959 . S
H424 C439 0.959 . S
H425 C439 0.961 . S
H426 C440 0.960 . S
H427 C440 0.961 . S
H428 C440 0.959 . S
H429 C443 0.929 . S
H430 C444 0.931 . S
H431 C446 0.930 . S
C432 H420 0.930 . S
C432 C433 1.399 . S
C432 C437 1.399 . S
C433 C432 1.399 . S
C433 C434 1.376 . S
C434 H421 0.930 . S
C434 C433 1.376 . S
C434 C435 1.388 . S
C435 H422 0.930 . S
C435 C434 1.388 . S
C435 C436 1.390 . S
C436 C435 1.390 . S
C436 C437 1.394 . S
C436 C442 1.465 . S
C437 C432 1.399 . S
C437 C436 1.394 . S
C437 C438 1.516 . S
C438 C437 1.516 . S
C438 C439 1.502 . S
C438 C440 1.561 . S
C438 C441 1.526 . S
C439 H423 0.959 . S
C439 H424 0.959 . S
C439 H425 0.961 . S
C439 C438 1.502 . S
C440 H426 0.960 . S
C440 H427 0.961 . S
C440 H428 0.959 . S
C440 C438 1.561 . S
C441 C438 1.526 . S
C441 C442 1.396 . S
C441 C446 1.390 . S
C442 C436 1.465 . S
C442 C441 1.396 . S
C442 C443 1.399 . S
C443 H429 0.929 . S
C443 C442 1.399 . S
C443 C444 1.385 . S
C444 H430 0.931 . S
C444 C443 1.385 . S
C444 C445 1.389 . S
C445 C444 1.389 . S
C445 C446 1.387 . S
C446 H431 0.930 . S
C446 C441 1.390 . S
C446 C445 1.387 . S
H447 C459 0.930 . S
H448 C461 0.930 . S
H449 C462 0.930 . S
H450 C466 0.959 . S
H451 C466 0.959 . S
H452 C466 0.961 . S
H453 C467 0.960 . S
H454 C467 0.961 . S
H455 C467 0.959 . S
H456 C470 0.929 . S
H457 C471 0.931 . S
H458 C473 0.930 . S
C459 H447 0.930 . S
C459 C460 1.399 . S
C459 C464 1.399 . S
C460 C459 1.399 . S
C460 C461 1.376 . S
C461 H448 0.930 . S
C461 C460 1.376 . S
C461 C462 1.388 . S
C462 H449 0.930 . S
C462 C461 1.388 . S
C462 C463 1.390 . S
C463 C462 1.390 . S
C463 C464 1.394 . S
C463 C469 1.465 . S
C464 C459 1.399 . S
C464 C463 1.394 . S
C464 C465 1.516 . S
C465 C464 1.516 . S
C465 C466 1.502 . S
C465 C467 1.561 . S
C465 C468 1.526 . S
C466 H450 0.959 . S
C466 H451 0.959 . S
C466 H452 0.961 . S
C466 C465 1.502 . S
C467 H453 0.960 . S
C467 H454 0.961 . S
C467 H455 0.959 . S
C467 C465 1.561 . S
C468 C465 1.526 . S
C468 C469 1.396 . S
C468 C473 1.390 . S
C469 C463 1.465 . S
C469 C468 1.396 . S
C469 C470 1.399 . S
C470 H456 0.929 . S
C470 C469 1.399 . S
C470 C471 1.385 . S
C471 H457 0.931 . S
C471 C470 1.385 . S
C471 C472 1.389 . S
C472 C471 1.389 . S
C472 C473 1.387 . S
C473 H458 0.930 . S
C473 C468 1.390 . S
C473 C472 1.387 . S
H474 C486 0.930 . S
H475 C488 0.930 . S
H476 C489 0.930 . S
H477 C493 0.959 . S
H478 C493 0.959 . S
H479 C493 0.961 . S
H480 C494 0.960 . S
H481 C494 0.961 . S
H482 C494 0.959 . S
H483 C497 0.929 . S
H484 C498 0.931 . S
H485 C500 0.930 . S
C486 H474 0.930 . S
C486 C487 1.399 . S
C486 C491 1.399 . S
C487 C486 1.399 . S
C487 C488 1.376 . S
C488 H475 0.930 . S
C488 C487 1.376 . S
C488 C489 1.388 . S
C489 H476 0.930 . S
C489 C488 1.388 . S
C489 C490 1.390 . S
C490 C489 1.390 . S
C490 C491 1.394 . S
C490 C496 1.465 . S
C491 C486 1.399 . S
C491 C490 1.394 . S
C491 C492 1.516 . S
C492 C491 1.516 . S
C492 C493 1.502 . S
C492 C494 1.561 . S
C492 C495 1.526 . S
C493 H477 0.959 . S
C493 H478 0.959 . S
C493 H479 0.961 . S
C493 C492 1.502 . S
C494 H480 0.960 . S
C494 H481 0.961 . S
C494 H482 0.959 . S
C494 C492 1.561 . S
C495 C492 1.526 . S
C495 C496 1.396 . S
C495 C500 1.390 . S
C496 C490 1.465 . S
C496 C495 1.396 . S
C496 C497 1.399 . S
C497 H483 0.929 . S
C497 C496 1.399 . S
C497 C498 1.385 . S
C498 H484 0.931 . S
C498 C497 1.385 . S
C498 C499 1.389 . S
C499 C498 1.389 . S
C499 C500 1.387 . S
C500 H485 0.930 . S
C500 C495 1.390 . S
C500 C499 1.387 . S
H501 C513 0.930 1_554 S
H502 C515 0.930 . S
H503 C516 0.930 . S
H504 C520 0.959 . S
H505 C520 0.959 . S
H506 C520 0.961 . S
H507 C521 0.960 1_554 S
H508 C521 0.961 1_455 S
H509 C521 0.959 1_455 S
H510 C524 0.929 . S
H511 C525 0.931 . S
H512 C527 0.925 . S
C513 H501 0.930 1_556 S
C513 C514 1.399 . S
C513 C518 1.399 . S
C514 C513 1.399 . S
C514 C515 1.376 . S
C515 H502 0.930 . S
C515 C514 1.376 . S
C515 C516 1.388 . S
C516 H503 0.930 . S
C516 C515 1.388 . S
C516 C517 1.390 . S
C517 C516 1.390 . S
C517 C518 1.394 . S
C517 C523 1.465 . S
C518 C513 1.399 . S
C518 C517 1.394 . S
C518 C519 1.516 . S
C519 C518 1.516 . S
C519 C520 1.502 . S
C519 C521 1.561 . S
C519 C522 1.526 . S
C520 H504 0.959 . S
C520 H505 0.959 . S
C520 H506 0.961 . S
C520 C519 1.502 . S
C521 H507 0.960 1_556 S
C521 H508 0.961 1_655 S
C521 H509 0.959 1_655 S
C521 C519 1.561 . S
C522 C519 1.526 . S
C522 C523 1.396 . S
C522 C527 1.385 1_655 S
C523 C517 1.465 . S
C523 C522 1.396 . S
C523 C524 1.399 . S
C524 H510 0.929 . S
C524 C523 1.399 . S
C524 C525 1.385 1_655 S
C525 H511 0.931 . S
C525 C524 1.385 1_455 S
C525 C526 1.389 . S
C526 C525 1.389 . S
C526 C527 1.397 . S
C527 H512 0.925 . S
C527 C522 1.385 1_455 S
C527 C526 1.397 . S
H528 C540 0.930 . S
H529 C542 0.925 1_556 S
H530 C543 0.930 . S
H531 C547 0.959 . S
H532 C547 0.959 1_565 S
H533 C547 0.961 . S
H534 C548 0.960 . S
H535 C548 0.961 . S
H536 C548 0.959 . S
H537 C551 0.929 . S
H538 C552 0.931 . S
H539 C554 0.930 . S
C540 H528 0.930 . S
C540 C541 1.399 . S
C540 C545 1.399 . S
C541 C540 1.399 . S
C541 C542 1.376 . S
C542 H529 0.925 1_554 S
C542 C541 1.376 . S
C542 C543 1.388 . S
C543 H530 0.930 . S
C543 C542 1.388 . S
C543 C544 1.390 1_545 S
C544 C543 1.390 1_565 S
C544 C545 1.394 1_565 S
C544 C550 1.465 . S
C545 C540 1.399 . S
C545 C544 1.394 1_545 S
C545 C546 1.516 1_545 S
C546 C545 1.516 1_565 S
C546 C547 1.502 1_565 S
C546 C548 1.561 . S
C546 C549 1.526 . S
C547 H531 0.959 . S
C547 H532 0.959 1_545 S
C547 H533 0.961 . S
C547 C546 1.502 1_545 S
C548 H534 0.960 . S
C548 H535 0.961 . S
C548 H536 0.959 . S
C548 C546 1.561 . S
C549 C546 1.526 . S
C549 C550 1.396 . S
C549 C554 1.390 . S
C550 C544 1.465 . S
C550 C549 1.396 . S
C550 C551 1.399 . S
C551 H537 0.929 . S
C551 C550 1.399 . S
C551 C552 1.385 . S
C552 H538 0.931 . S
C552 C551 1.385 . S
C552 C553 1.389 . S
C553 C552 1.389 . S
C553 C554 1.387 . S
C554 H539 0.930 . S
C554 C549 1.390 . S
C554 C553 1.387 . S
H555 C567 0.930 . S
H556 C569 0.930 . S
H557 C570 0.930 . S
H558 C574 0.959 . S
H559 C574 0.959 . S
H560 C574 0.961 . S
H561 C575 0.960 . S
H562 C575 0.961 . S
H563 C575 0.959 . S
H564 C578 0.929 . S
H565 C579 0.931 . S
H566 C581 0.930 . S
C567 H555 0.930 . S
C567 C568 1.399 . S
C567 C572 1.399 . S
C568 C567 1.399 . S
C568 C569 1.376 . S
C569 H556 0.930 . S
C569 C568 1.376 . S
C569 C570 1.388 . S
C570 H557 0.930 . S
C570 C569 1.388 . S
C570 C571 1.390 . S
C571 C570 1.390 . S
C571 C572 1.394 . S
C571 C577 1.465 . S
C572 C567 1.399 . S
C572 C571 1.394 . S
C572 C573 1.516 . S
C573 C572 1.516 . S
C573 C574 1.502 . S
C573 C575 1.561 . S
C573 C576 1.526 . S
C574 H558 0.959 . S
C574 H559 0.959 . S
C574 H560 0.961 . S
C574 C573 1.502 . S
C575 H561 0.960 . S
C575 H562 0.961 . S
C575 H563 0.959 . S
C575 C573 1.561 . S
C576 C573 1.526 . S
C576 C577 1.396 . S
C576 C581 1.390 . S
C577 C571 1.465 . S
C577 C576 1.396 . S
C577 C578 1.399 . S
C578 H564 0.929 . S
C578 C577 1.399 . S
C578 C579 1.385 1_455 S
C579 H565 0.931 . S
C579 C578 1.385 1_655 S
C579 C580 1.389 . S
C580 C579 1.389 . S
C580 C581 1.387 1_655 S
C581 H566 0.930 . S
C581 C576 1.390 . S
C581 C580 1.387 1_455 S
H582 C594 0.930 . S
H583 C596 0.930 . S
H584 C597 0.930 . S
H585 C601 0.959 . S
H586 C601 0.959 1_554 S
H587 C601 0.961 . S
H588 C602 0.960 . S
H589 C602 0.961 1_554 S
H590 C602 0.959 . S
H591 C605 0.929 . S
H592 C606 0.931 . S
H593 C608 0.930 1_554 S
C594 H582 0.930 . S
C594 C595 1.399 . S
C594 C599 1.399 . S
C595 C594 1.399 . S
C595 C596 1.376 . S
C596 H583 0.930 . S
C596 C595 1.376 . S
C596 C597 1.388 . S
C597 H584 0.930 . S
C597 C596 1.388 . S
C597 C598 1.390 . S
C598 C597 1.390 . S
C598 C599 1.394 . S
C598 C604 1.465 . S
C599 C594 1.399 . S
C599 C598 1.394 . S
C599 C600 1.516 . S
C600 C599 1.516 . S
C600 C601 1.502 . S
C600 C602 1.561 . S
C600 C603 1.526 . S
C601 H585 0.959 . S
C601 H586 0.959 1_556 S
C601 H587 0.961 . S
C601 C600 1.502 . S
C602 H588 0.960 . S
C602 H589 0.961 1_556 S
C602 H590 0.959 . S
C602 C600 1.561 . S
C603 C600 1.526 . S
C603 C604 1.396 . S
C603 C608 1.390 . S
C604 C598 1.465 . S
C604 C603 1.396 . S
C604 C605 1.399 . S
C605 H591 0.929 . S
C605 C604 1.399 . S
C605 C606 1.385 . S
C606 H592 0.931 . S
C606 C605 1.385 . S
C606 C607 1.389 . S
C607 C606 1.389 . S
C607 C608 1.387 . S
C608 H593 0.930 1_556 S
C608 C603 1.390 . S
C608 C607 1.387 . S
C217 C2 1.596 . S
C229 C104 1.592 . S
C244 C138 1.589 . S
C256 C36 1.601 . S
C271 C70 1.590 . S
C283 C172 1.598 . S
C298 C9 1.002 . S
C310 C5 1.063 . S
C325 C43 1.008 . S
C337 C39 1.087 . S
C352 C77 1.009 . S
C364 C73 1.054 . S
C379 C107 1.101 . S
C391 C111 1.039 . S
C406 C145 1.100 . S
C418 C141 1.062 . S
C433 C175 1.077 . S
C445 C179 1.002 . S
C460 C20 1.582 . S
C472 C67 1.584 . S
C487 C54 1.557 . S
C499 C101 1.604 . S
C514 C135 1.589 1_556 S
C526 C88 1.605 . S
C541 C122 1.609 . S
C553 C169 1.584 . S
C568 C203 1.586 . S
C580 C156 1.579 . S
C595 C190 1.597 1_545 S
C607 C33 1.574 1_556 S
