# Generated by pormake.
# Topology upb, (4)-cn, num edge types: 1
# Building blocks:
#     Node 0, Type 0, BuildingBlock: KUFVIS_clean_sbu_0, # of connection points: 4
#     Node 1, Type 0, BuildingBlock: KUFVIS_clean_sbu_0, # of connection points: 4
#     Node 2, Type 0, BuildingBlock: KUFVIS_clean_sbu_0, # of connection points: 4
#     Node 3, Type 0, BuildingBlock: KUFVIS_clean_sbu_0, # of connection points: 4
#     Node 4, Type 0, BuildingBlock: KUFVIS_clean_sbu_0, # of connection points: 4
#     Node 5, Type 0, BuildingBlock: KUFVIS_clean_sbu_0, # of connection points: 4
#     Node 6, Type 0, BuildingBlock: KUFVIS_clean_sbu_0, # of connection points: 4
#     Node 7, Type 0, BuildingBlock: KUFVIS_clean_sbu_0, # of connection points: 4
#     Node 8, Type 0, BuildingBlock: KUFVIS_clean_sbu_0, # of connection points: 4
#     Node 9, Type 0, BuildingBlock: KUFVIS_clean_sbu_0, # of connection points: 4
#     Node 10, Type 0, BuildingBlock: KUFVIS_clean_sbu_0, # of connection points: 4
#     Node 11, Type 0, BuildingBlock: KUFVIS_clean_sbu_0, # of connection points: 4
#     Node 12, Type 0, BuildingBlock: KUFVIS_clean_sbu_0, # of connection points: 4
#     Node 13, Type 0, BuildingBlock: KUFVIS_clean_sbu_0, # of connection points: 4
#     Node 14, Type 0, BuildingBlock: KUFVIS_clean_sbu_0, # of connection points: 4
#     Node 15, Type 0, BuildingBlock: KUFVIS_clean_sbu_0, # of connection points: 4
#     Edge 16, Type (0, 0), BuildingBlock: ZUJKAS_clean_linker_0, # of connection points: 2
#     Edge 17, Type (0, 0), BuildingBlock: ZUJKAS_clean_linker_0, # of connection points: 2
#     Edge 18, Type (0, 0), BuildingBlock: ZUJKAS_clean_linker_0, # of connection points: 2
#     Edge 19, Type (0, 0), BuildingBlock: ZUJKAS_clean_linker_0, # of connection points: 2
#     Edge 20, Type (0, 0), BuildingBlock: ZUJKAS_clean_linker_0, # of connection points: 2
#     Edge 21, Type (0, 0), BuildingBlock: ZUJKAS_clean_linker_0, # of connection points: 2
#     Edge 22, Type (0, 0), BuildingBlock: ZUJKAS_clean_linker_0, # of connection points: 2
#     Edge 23, Type (0, 0), BuildingBlock: ZUJKAS_clean_linker_0, # of connection points: 2
#     Edge 24, Type (0, 0), BuildingBlock: ZUJKAS_clean_linker_0, # of connection points: 2
#     Edge 25, Type (0, 0), BuildingBlock: ZUJKAS_clean_linker_0, # of connection points: 2
#     Edge 26, Type (0, 0), BuildingBlock: ZUJKAS_clean_linker_0, # of connection points: 2
#     Edge 27, Type (0, 0), BuildingBlock: ZUJKAS_clean_linker_0, # of connection points: 2
#     Edge 28, Type (0, 0), BuildingBlock: ZUJKAS_clean_linker_0, # of connection points: 2
#     Edge 29, Type (0, 0), BuildingBlock: ZUJKAS_clean_linker_0, # of connection points: 2
#     Edge 30, Type (0, 0), BuildingBlock: ZUJKAS_clean_linker_0, # of connection points: 2
#     Edge 31, Type (0, 0), BuildingBlock: ZUJKAS_clean_linker_0, # of connection points: 2
#     Edge 32, Type (0, 0), BuildingBlock: ZUJKAS_clean_linker_0, # of connection points: 2
#     Edge 33, Type (0, 0), BuildingBlock: ZUJKAS_clean_linker_0, # of connection points: 2
#     Edge 34, Type (0, 0), BuildingBlock: ZUJKAS_clean_linker_0, # of connection points: 2
#     Edge 35, Type (0, 0), BuildingBlock: ZUJKAS_clean_linker_0, # of connection points: 2
#     Edge 36, Type (0, 0), BuildingBlock: ZUJKAS_clean_linker_0, # of connection points: 2
#     Edge 37, Type (0, 0), BuildingBlock: ZUJKAS_clean_linker_0, # of connection points: 2
#     Edge 38, Type (0, 0), BuildingBlock: ZUJKAS_clean_linker_0, # of connection points: 2
#     Edge 39, Type (0, 0), BuildingBlock: ZUJKAS_clean_linker_0, # of connection points: 2
#     Edge 40, Type (0, 0), BuildingBlock: ZUJKAS_clean_linker_0, # of connection points: 2
#     Edge 41, Type (0, 0), BuildingBlock: ZUJKAS_clean_linker_0, # of connection points: 2
#     Edge 42, Type (0, 0), BuildingBlock: ZUJKAS_clean_linker_0, # of connection points: 2
#     Edge 43, Type (0, 0), BuildingBlock: ZUJKAS_clean_linker_0, # of connection points: 2
#     Edge 44, Type (0, 0), BuildingBlock: ZUJKAS_clean_linker_0, # of connection points: 2
#     Edge 45, Type (0, 0), BuildingBlock: ZUJKAS_clean_linker_0, # of connection points: 2
#     Edge 46, Type (0, 0), BuildingBlock: ZUJKAS_clean_linker_0, # of connection points: 2
#     Edge 47, Type (0, 0), BuildingBlock: ZUJKAS_clean_linker_0, # of connection points: 2
# Relax obj value: 0.214
# Max RMSD: 0.079
# Mean RMSD: 0.079
data_MOF--net-upb--node1-KUFVIS_clean_sbu_0--edge1-ZUJKAS_clean_linker_0
_symmetry_space_group_name_H-M    P1
_symmetry_Int_Tables_number       1
_symmetry_cell_setting            triclinic
loop_
_symmetry_equiv_pos_as_xyz
'x, y, z'
_cell_length_a     57.09384
_cell_length_b     57.096613
_cell_length_c     42.430252
_cell_angle_alpha  90.004454
_cell_angle_beta   89.997572
_cell_angle_gamma 90.006103
loop_
_atom_site_label
_atom_site_type_symbol
_atom_site_fract_x
_atom_site_fract_y
_atom_site_fract_z
_atom_type_partial_charge
Mn0 Mn 0.03869 0.21993 0.28743 0.0
Mn1 Mn 0.07804 0.21804 0.34665 0.0
C2 C 0.02875 0.23389 0.33672 0.0
C3 C 0.00908 0.20101 0.25949 0.0
C4 C 0.07923 0.25425 0.29422 0.0
O5 O 0.06353 0.19745 0.27086 0.0
O6 O 0.08661 0.19484 0.31376 0.0
C7 C 0.0676 0.17057 0.37095 0.0
N8 N 0.0696 0.19405 0.37593 0.0
C9 C 0.05964 0.1897 0.43073 0.0
C10 C 0.0576 0.16545 0.42624 0.0
C11 C 0.06153 0.15586 0.3962 0.0
C12 C 0.06571 0.20348 0.40469 0.0
H13 H 0.07057 0.16315 0.34788 0.0
C14 C 0.08091 0.18873 0.28573 0.0
O15 O 0.02061 0.21833 0.24698 0.0
O16 O 0.01523 0.19454 0.28753 0.0
N17 N 0.07184 0.23947 0.38032 0.0
C18 C 0.07371 0.26327 0.38043 0.0
C19 C 0.07016 0.27562 0.40864 0.0
C20 C 0.06491 0.26339 0.43647 0.0
C21 C 0.06316 0.2389 0.43582 0.0
C22 C 0.06712 0.22752 0.40708 0.0
H23 H 0.07791 0.27277 0.35918 0.0
O24 O 0.01682 0.24022 0.31216 0.0
O25 O 0.04574 0.21924 0.33174 0.0
O26 O 0.06054 0.24792 0.28001 0.0
O27 O 0.08755 0.24359 0.31824 0.0
C28 C 0.05745 0.22535 0.4625 0.0
C29 C 0.05557 0.20078 0.45991 0.0
H30 H 0.05288 0.15406 0.44564 0.0
H31 H 0.05989 0.13718 0.39252 0.0
H32 H 0.07153 0.29452 0.40895 0.0
H33 H 0.06227 0.273 0.45818 0.0
H34 H 0.05422 0.23366 0.48503 0.0
H35 H 0.05086 0.19058 0.48049 0.0
Mn36 Mn 0.78082 0.04999 0.29195 0.0
Mn37 Mn 0.77652 0.09234 0.34725 0.0
C38 C 0.77421 0.03963 0.34381 0.0
C39 C 0.80368 0.0246 0.26217 0.0
C40 C 0.7377 0.0805 0.30094 0.0
O41 O 0.79457 0.07852 0.27013 0.0
O42 O 0.79464 0.1042 0.31042 0.0
C43 C 0.82627 0.09735 0.36577 0.0
N44 N 0.80351 0.09341 0.3738 0.0
C45 C 0.8133 0.09164 0.42891 0.0
C46 C 0.83682 0.09587 0.42125 0.0
C47 C 0.84333 0.09866 0.38954 0.0
C48 C 0.79703 0.09077 0.40425 0.0
H49 H 0.83134 0.09946 0.34141 0.0
C50 C 0.80005 0.09824 0.28219 0.0
O51 O 0.78302 0.03098 0.25268 0.0
O52 O 0.81123 0.03348 0.28841 0.0
N53 N 0.75981 0.08317 0.38436 0.0
C54 C 0.73698 0.07659 0.38739 0.0
C55 C 0.72797 0.0716 0.41744 0.0
C56 C 0.74245 0.07362 0.44407 0.0
C57 C 0.76585 0.08054 0.44039 0.0
C58 C 0.77385 0.08535 0.40986 0.0
H59 H 0.72577 0.07497 0.36702 0.0
O60 O 0.76919 0.0253 0.32107 0.0
O61 O 0.78336 0.05965 0.33563 0.0
O62 O 0.74769 0.06321 0.28756 0.0
O63 O 0.74751 0.09288 0.32219 0.0
C64 C 0.78178 0.08204 0.46568 0.0
C65 C 0.80548 0.08759 0.45995 0.0
H66 H 0.85007 0.09669 0.43949 0.0
H67 H 0.86147 0.10178 0.38343 0.0
H68 H 0.70992 0.06615 0.42008 0.0
H69 H 0.7355 0.06951 0.46718 0.0
H70 H 0.77611 0.07839 0.48954 0.0
H71 H 0.81766 0.08819 0.4795 0.0
Mn72 Mn 0.94703 0.78116 0.28162 0.0
Mn73 Mn 0.89809 0.77995 0.32605 0.0
C74 C 0.94928 0.76994 0.33382 0.0
C75 C 0.97818 0.80237 0.26089 0.0
C76 C 0.91045 0.74259 0.27801 0.0
O77 O 0.92379 0.80014 0.25584 0.0
O78 O 0.89344 0.80131 0.2897 0.0
C79 C 0.89781 0.82886 0.3492 0.0
N80 N 0.89787 0.80542 0.35521 0.0
C81 C 0.89511 0.8121 0.41106 0.0
C82 C 0.89492 0.83632 0.40549 0.0
C83 C 0.89638 0.84472 0.37442 0.0
C84 C 0.89668 0.79715 0.38501 0.0
H85 H 0.8988 0.83539 0.32535 0.0
C86 C 0.90357 0.80741 0.26404 0.0
O87 O 0.97094 0.78325 0.24745 0.0
O88 O 0.96721 0.80915 0.28604 0.0
N89 N 0.90032 0.76021 0.36235 0.0
C90 C 0.90211 0.73643 0.36379 0.0
C91 C 0.90167 0.72525 0.39326 0.0
C92 C 0.89904 0.73858 0.42086 0.0
C93 C 0.89715 0.76301 0.41877 0.0
C94 C 0.89786 0.77319 0.38878 0.0
H95 H 0.90387 0.72607 0.34264 0.0
O96 O 0.96579 0.76442 0.31416 0.0
O97 O 0.9322 0.78244 0.32251 0.0
O98 O 0.93048 0.75055 0.27016 0.0
O99 O 0.89678 0.75281 0.29745 0.0
C100 C 0.89469 0.77768 0.44525 0.0
C101 C 0.8939 0.80222 0.44145 0.0
H102 H 0.89377 0.8486 0.42488 0.0
H103 H 0.8963 0.86338 0.36992 0.0
H104 H 0.90318 0.70639 0.39469 0.0
H105 H 0.89859 0.72987 0.44353 0.0
H106 H 0.89357 0.77028 0.4687 0.0
H107 H 0.89243 0.81332 0.46205 0.0
Mn108 Mn 0.22511 0.95074 0.28422 0.0
Mn109 Mn 0.22747 0.90255 0.33008 0.0
C110 C 0.23823 0.95357 0.33559 0.0
C111 C 0.2032 0.98187 0.26448 0.0
C112 C 0.26288 0.91336 0.27878 0.0
O113 O 0.20475 0.92725 0.26064 0.0
O114 O 0.20462 0.8975 0.29558 0.0
C115 C 0.17965 0.90386 0.35698 0.0
N116 N 0.2033 0.90362 0.36118 0.0
C117 C 0.19897 0.90356 0.41759 0.0
C118 C 0.17456 0.90371 0.41388 0.0
C119 C 0.16487 0.90393 0.38344 0.0
C120 C 0.21281 0.90357 0.39035 0.0
H121 H 0.17213 0.904 0.33362 0.0
C122 C 0.19769 0.90721 0.27001 0.0
O123 O 0.22158 0.97423 0.24961 0.0
O124 O 0.19761 0.9713 0.29044 0.0
N125 N 0.2488 0.90525 0.36469 0.0
C126 C 0.27265 0.90611 0.36419 0.0
C127 C 0.28507 0.90655 0.39275 0.0
C128 C 0.27287 0.90581 0.42148 0.0
C129 C 0.24834 0.90465 0.42139 0.0
C130 C 0.23691 0.90429 0.39221 0.0
H131 H 0.28214 0.90653 0.34219 0.0
O132 O 0.24333 0.9698 0.31532 0.0
O133 O 0.22533 0.93651 0.32527 0.0
O134 O 0.255 0.93346 0.27096 0.0
O135 O 0.25325 0.90023 0.29943 0.0
C136 C 0.23479 0.90399 0.4491 0.0
C137 C 0.21012 0.9036 0.44722 0.0
H138 H 0.16311 0.90376 0.43423 0.0
H139 H 0.14605 0.90412 0.38039 0.0
H140 H 0.30401 0.90742 0.39262 0.0
H141 H 0.28251 0.90623 0.44346 0.0
H142 H 0.24316 0.90411 0.47201 0.0
H143 H 0.19988 0.90351 0.46872 0.0
Mn144 Mn 0.04185 0.78027 0.69853 0.0
Mn145 Mn 0.08947 0.78204 0.65142 0.0
C146 C 0.03843 0.77089 0.64578 0.0
C147 C 0.01032 0.79912 0.72221 0.0
C148 C 0.0791 0.74187 0.69585 0.0
O149 O 0.06504 0.79912 0.72454 0.0
O150 O 0.09536 0.80018 0.69059 0.0
C151 C 0.08843 0.83257 0.63586 0.0
N152 N 0.08867 0.8098 0.62634 0.0
C153 C 0.09037 0.82112 0.57179 0.0
C154 C 0.09025 0.84471 0.58098 0.0
C155 C 0.08914 0.85046 0.61315 0.0
C156 C 0.08938 0.80408 0.59546 0.0
H157 H 0.08776 0.83704 0.66057 0.0
C158 C 0.08563 0.8055 0.71681 0.0
O159 O 0.01888 0.77993 0.73394 0.0
O160 O 0.02033 0.80744 0.69716 0.0
N161 N 0.08666 0.76543 0.61249 0.0
C162 C 0.0858 0.74186 0.60757 0.0
C163 C 0.08652 0.73316 0.57665 0.0
C164 C 0.08854 0.74873 0.55118 0.0
C165 C 0.08946 0.77292 0.55683 0.0
C166 C 0.08858 0.78056 0.58814 0.0
H167 H 0.08468 0.72979 0.6271 0.0
O168 O 0.02282 0.764 0.66596 0.0
O169 O 0.0554 0.7837 0.65688 0.0
O170 O 0.05997 0.74988 0.70707 0.0
O171 O 0.09148 0.75278 0.67557 0.0
C172 C 0.09126 0.78974 0.53266 0.0
C173 C 0.09144 0.81383 0.5401 0.0
H174 H 0.09093 0.85855 0.56354 0.0
H175 H 0.08899 0.86862 0.62043 0.0
H176 H 0.08577 0.71447 0.57247 0.0
H177 H 0.08936 0.74191 0.52739 0.0
H178 H 0.0923 0.78436 0.50822 0.0
H179 H 0.09245 0.82659 0.52126 0.0
Mn180 Mn 0.22111 0.03916 0.70438 0.0
Mn181 Mn 0.22191 0.07831 0.64487 0.0
C182 C 0.23381 0.02791 0.65493 0.0
C183 C 0.20037 0.01147 0.73334 0.0
C184 C 0.25843 0.07687 0.69688 0.0
O185 O 0.20081 0.06571 0.72106 0.0
O186 O 0.19963 0.08876 0.67802 0.0
C187 C 0.17357 0.07148 0.62132 0.0
N188 N 0.19709 0.0717 0.61599 0.0
C189 C 0.19153 0.06222 0.56123 0.0
C190 C 0.16724 0.06203 0.56609 0.0
C191 C 0.15823 0.06661 0.59629 0.0
C192 C 0.20595 0.06713 0.58708 0.0
H193 H 0.16659 0.07496 0.64451 0.0
C194 C 0.19327 0.0836 0.70616 0.0
O195 O 0.21874 0.02169 0.74511 0.0
O196 O 0.19395 0.0177 0.70528 0.0
N197 N 0.24251 0.07037 0.61092 0.0
C198 C 0.26638 0.07033 0.61047 0.0
C199 C 0.27818 0.06607 0.58202 0.0
C200 C 0.26536 0.06203 0.55433 0.0
C201 C 0.24081 0.06205 0.55537 0.0
C202 C 0.23001 0.0667 0.58433 0.0
H203 H 0.27636 0.07354 0.63162 0.0
O204 O 0.2394 0.01566 0.67952 0.0
O205 O 0.22059 0.04603 0.65996 0.0
O206 O 0.25063 0.05884 0.71126 0.0
O207 O 0.24844 0.08592 0.67283 0.0
C208 C 0.22664 0.0575 0.52887 0.0
C209 C 0.20202 0.05744 0.53185 0.0
H210 H 0.15535 0.05825 0.54685 0.0
H211 H 0.13951 0.06639 0.60025 0.0
H212 H 0.29713 0.06599 0.58142 0.0
H213 H 0.27456 0.05892 0.53241 0.0
H214 H 0.23449 0.05377 0.50618 0.0
H215 H 0.19132 0.0536 0.51141 0.0
Mn216 Mn 0.95279 0.22305 0.70662 0.0
Mn217 Mn 0.90574 0.22077 0.65874 0.0
C218 C 0.95567 0.23608 0.65517 0.0
C219 C 0.98524 0.20373 0.72744 0.0
C220 C 0.9124 0.25772 0.70952 0.0
O221 O 0.93054 0.20117 0.72994 0.0
O222 O 0.90201 0.19799 0.69361 0.0
C223 C 0.91174 0.17289 0.6332 0.0
N224 N 0.90934 0.19635 0.62837 0.0
C225 C 0.90915 0.19115 0.57211 0.0
C226 C 0.91151 0.16692 0.57646 0.0
C227 C 0.91293 0.15777 0.60715 0.0
C228 C 0.90826 0.20536 0.59896 0.0
H229 H 0.91268 0.16579 0.65676 0.0
C230 C 0.91152 0.19218 0.7198 0.0
O231 O 0.97602 0.22154 0.74199 0.0
O232 O 0.97544 0.19725 0.70134 0.0
N233 N 0.90709 0.24175 0.62363 0.0
C234 C 0.90603 0.2656 0.62347 0.0
C235 C 0.90526 0.27756 0.59457 0.0
C236 C 0.90514 0.26489 0.56619 0.0
C237 C 0.90593 0.24036 0.56698 0.0
C238 C 0.90691 0.2294 0.59645 0.0
H239 H 0.90582 0.27543 0.6452 0.0
O240 O 0.97098 0.24258 0.67601 0.0
O241 O 0.93957 0.22177 0.66491 0.0
O242 O 0.93279 0.25155 0.71871 0.0
O243 O 0.90075 0.24671 0.6885 0.0
C244 C 0.90584 0.22634 0.53966 0.0
C245 C 0.90773 0.20177 0.54219 0.0
H246 H 0.91235 0.15519 0.55642 0.0
H247 H 0.91483 0.1391 0.6107 0.0
H248 H 0.90461 0.2965 0.59418 0.0
H249 H 0.90451 0.27418 0.54395 0.0
H250 H 0.90471 0.23431 0.51655 0.0
H251 H 0.90815 0.19123 0.52098 0.0
Mn252 Mn 0.77582 0.95699 0.72018 0.0
Mn253 Mn 0.76552 0.91167 0.67095 0.0
C254 C 0.76639 0.9644 0.66816 0.0
C255 C 0.80187 0.98284 0.744 0.0
C256 C 0.73149 0.92784 0.72133 0.0
O257 O 0.7902 0.92909 0.74298 0.0
O258 O 0.78615 0.9011 0.70582 0.0
C259 C 0.81282 0.90233 0.6453 0.0
N260 N 0.78983 0.90762 0.64052 0.0
C261 C 0.79473 0.90626 0.58421 0.0
C262 C 0.81845 0.90073 0.58853 0.0
C263 C 0.82753 0.89879 0.6192 0.0
C264 C 0.78085 0.90931 0.61111 0.0
H265 H 0.81986 0.9008 0.66884 0.0
C266 C 0.79398 0.90851 0.73233 0.0
O267 O 0.78184 0.97789 0.7569 0.0
O268 O 0.80693 0.97231 0.71778 0.0
N269 N 0.74609 0.91995 0.63594 0.0
C270 C 0.72356 0.9278 0.63593 0.0
C271 C 0.71224 0.93203 0.6071 0.0
C272 C 0.72415 0.92804 0.57864 0.0
C273 C 0.74736 0.92002 0.57925 0.0
C274 C 0.75769 0.91599 0.60868 0.0
H275 H 0.71433 0.93091 0.65774 0.0
O276 O 0.76325 0.98034 0.68959 0.0
O277 O 0.77484 0.94448 0.67789 0.0
O278 O 0.74258 0.94593 0.73045 0.0
O279 O 0.73912 0.91369 0.70053 0.0
C280 C 0.76083 0.91648 0.55184 0.0
C281 C 0.78449 0.90956 0.55432 0.0
H282 H 0.82991 0.89821 0.56847 0.0
H283 H 0.84583 0.8946 0.62272 0.0
H284 H 0.69437 0.93836 0.60682 0.0
H285 H 0.7154 0.93145 0.55646 0.0
H286 H 0.75331 0.91948 0.52875 0.0
H287 H 0.79479 0.90733 0.53309 0.0
Mn288 Mn 0.54041 0.7298 0.77484 0.0
Mn289 Mn 0.58835 0.73632 0.82044 0.0
C290 C 0.53638 0.74028 0.82719 0.0
C291 C 0.51215 0.70516 0.75337 0.0
C292 C 0.57277 0.7719 0.7717 0.0
O293 O 0.56616 0.71364 0.74954 0.0
O294 O 0.59578 0.71534 0.78466 0.0
C295 C 0.59311 0.68795 0.84467 0.0
N296 N 0.59049 0.7113 0.85018 0.0
C297 C 0.5918 0.70538 0.90628 0.0
C298 C 0.59458 0.68127 0.90123 0.0
C299 C 0.59516 0.67251 0.87029 0.0
C300 C 0.58972 0.71989 0.87984 0.0
H301 H 0.59364 0.68117 0.82091 0.0
C302 C 0.58689 0.70851 0.75852 0.0
O303 O 0.51722 0.72508 0.74022 0.0
O304 O 0.52361 0.69958 0.77866 0.0
N305 N 0.58345 0.75614 0.85621 0.0
C306 C 0.57989 0.77973 0.85704 0.0
C307 C 0.57842 0.79119 0.88626 0.0
C308 C 0.58093 0.77833 0.91429 0.0
C309 C 0.58491 0.75413 0.91282 0.0
C310 C 0.58616 0.74366 0.88303 0.0
H311 H 0.57814 0.78975 0.83559 0.0
O312 O 0.51942 0.744 0.80747 0.0
O313 O 0.55486 0.73012 0.8158 0.0
O314 O 0.55348 0.76224 0.76396 0.0
O315 O 0.58734 0.76305 0.79116 0.0
C316 C 0.58758 0.73996 0.93975 0.0
C317 C 0.59086 0.71558 0.9365 0.0
H318 H 0.5962 0.66931 0.92093 0.0
H319 H 0.59726 0.65392 0.86619 0.0
H320 H 0.5754 0.80989 0.88719 0.0
H321 H 0.57973 0.78722 0.93679 0.0
H322 H 0.58682 0.74759 0.9631 0.0
H323 H 0.5925 0.70483 0.95741 0.0
Mn324 Mn 0.27564 0.54636 0.79589 0.0
Mn325 Mn 0.27989 0.59664 0.83738 0.0
C326 C 0.26561 0.54702 0.84859 0.0
C327 C 0.29289 0.51237 0.77665 0.0
C328 C 0.23922 0.58561 0.79405 0.0
O329 O 0.29598 0.56662 0.7675 0.0
O330 O 0.29814 0.59889 0.79777 0.0
C331 C 0.33042 0.59383 0.8526 0.0
N332 N 0.30775 0.59579 0.86227 0.0
C333 C 0.31959 0.59983 0.91638 0.0
C334 C 0.34307 0.59794 0.90702 0.0
C335 C 0.3485 0.59481 0.875 0.0
C336 C 0.30232 0.59847 0.89304 0.0
H337 H 0.33469 0.59161 0.82799 0.0
C338 C 0.30333 0.5873 0.77293 0.0
O339 O 0.27426 0.52103 0.76348 0.0
O340 O 0.30156 0.52365 0.80046 0.0
N341 N 0.26343 0.59731 0.87661 0.0
C342 C 0.2399 0.59843 0.88178 0.0
C343 C 0.23151 0.60131 0.91264 0.0
C344 C 0.24739 0.60354 0.93774 0.0
C345 C 0.27154 0.60265 0.93179 0.0
C346 C 0.27886 0.59954 0.9006 0.0
H347 H 0.22762 0.59712 0.8625 0.0
O348 O 0.25805 0.53049 0.83028 0.0
O349 O 0.27954 0.56237 0.83584 0.0
O350 O 0.24638 0.56555 0.78484 0.0
O351 O 0.25062 0.59861 0.81315 0.0
C352 C 0.28865 0.60482 0.95556 0.0
C353 C 0.31264 0.60313 0.94792 0.0
H354 H 0.35707 0.59884 0.92422 0.0
H355 H 0.36657 0.59332 0.86757 0.0
H356 H 0.21286 0.60203 0.91704 0.0
H357 H 0.24084 0.60595 0.96148 0.0
H358 H 0.28356 0.60764 0.97985 0.0
H359 H 0.32559 0.60449 0.96648 0.0
Mn360 Mn 0.45731 0.2796 0.79096 0.0
Mn361 Mn 0.4195 0.27254 0.85161 0.0
C362 C 0.47128 0.27132 0.84078 0.0
C363 C 0.48116 0.30343 0.76012 0.0
C364 C 0.42782 0.23567 0.80159 0.0
O365 O 0.42771 0.29479 0.77442 0.0
O366 O 0.40416 0.29018 0.81667 0.0
C367 C 0.41377 0.32202 0.87107 0.0
N368 N 0.41938 0.29948 0.87834 0.0
C369 C 0.4251 0.30937 0.93294 0.0
C370 C 0.41925 0.33267 0.92606 0.0
C371 C 0.41361 0.33903 0.89498 0.0
C372 C 0.42473 0.29315 0.9082 0.0
H373 H 0.40941 0.32699 0.84722 0.0
C374 C 0.4083 0.29779 0.78875 0.0
O375 O 0.47363 0.28341 0.74968 0.0
O376 O 0.47421 0.30982 0.78791 0.0
N377 N 0.43213 0.25624 0.88719 0.0
C378 C 0.44002 0.23377 0.88911 0.0
C379 C 0.44767 0.22497 0.91825 0.0
C380 C 0.44705 0.23933 0.94513 0.0
C381 C 0.43893 0.26242 0.94256 0.0
C382 C 0.43144 0.2702 0.91291 0.0
H383 H 0.44081 0.22278 0.86847 0.0
O384 O 0.48374 0.26643 0.81607 0.0
O385 O 0.4508 0.28059 0.83567 0.0
O386 O 0.44275 0.24702 0.78529 0.0
O387 O 0.41826 0.24366 0.82651 0.0
C388 C 0.43881 0.27829 0.96799 0.0
C389 C 0.43187 0.30174 0.96319 0.0
H390 H 0.41929 0.34588 0.94439 0.0
H391 H 0.40918 0.35699 0.88947 0.0
H392 H 0.45417 0.20722 0.91996 0.0
H393 H 0.45325 0.23257 0.96748 0.0
H394 H 0.44456 0.27279 0.99117 0.0
H395 H 0.43231 0.3139 0.98279 0.0
Mn396 Mn 0.71342 0.46145 0.79457 0.0
Mn397 Mn 0.70643 0.41367 0.84067 0.0
C398 C 0.72265 0.4634 0.84738 0.0
C399 C 0.697 0.49447 0.77122 0.0
C400 C 0.74832 0.42073 0.79792 0.0
O401 O 0.69301 0.44038 0.76757 0.0
O402 O 0.68889 0.40982 0.80058 0.0
C403 C 0.65586 0.41997 0.85357 0.0
N404 N 0.67818 0.41721 0.86431 0.0
C405 C 0.66512 0.41726 0.9182 0.0
C406 C 0.64198 0.41994 0.90773 0.0
C407 C 0.63735 0.42142 0.87527 0.0
C408 C 0.68286 0.41614 0.89548 0.0
H409 H 0.65222 0.42104 0.82864 0.0
C410 C 0.68488 0.42029 0.77451 0.0
O411 O 0.71573 0.48483 0.75958 0.0
O412 O 0.68803 0.48491 0.79614 0.0
N413 N 0.72205 0.41431 0.88056 0.0
C414 C 0.74535 0.41194 0.88678 0.0
C415 C 0.75297 0.41048 0.9182 0.0
C416 C 0.73654 0.41093 0.94283 0.0
C417 C 0.71261 0.41276 0.93582 0.0
C418 C 0.70607 0.41428 0.90408 0.0
H419 H 0.75804 0.41127 0.86793 0.0
O420 O 0.73093 0.47873 0.82779 0.0
O421 O 0.70844 0.44778 0.83576 0.0
O422 O 0.74223 0.44057 0.78651 0.0
O423 O 0.73601 0.40927 0.81779 0.0
C424 C 0.69498 0.41318 0.95906 0.0
C425 C 0.67128 0.41567 0.95028 0.0
H426 H 0.62764 0.42096 0.9244 0.0
H427 H 0.61955 0.42358 0.867 0.0
H428 H 0.77146 0.40893 0.92341 0.0
H429 H 0.74248 0.40983 0.96703 0.0
H430 H 0.69944 0.41173 0.98379 0.0
H431 H 0.65792 0.41628 0.9684 0.0
Mn432 Mn 0.54022 0.27153 0.22017 0.0
Mn433 Mn 0.58795 0.26148 0.1748 0.0
C434 C 0.53586 0.26497 0.16674 0.0
C435 C 0.5132 0.29681 0.24316 0.0
C436 C 0.56624 0.22487 0.21718 0.0
O437 O 0.56658 0.28386 0.24745 0.0
O438 O 0.59711 0.27658 0.21531 0.0
C439 C 0.60209 0.31057 0.16248 0.0
N440 N 0.59627 0.28891 0.15152 0.0
C441 C 0.60393 0.30052 0.09798 0.0
C442 C 0.61013 0.32291 0.10872 0.0
C443 C 0.60915 0.32796 0.1411 0.0
C444 C 0.59724 0.28383 0.12043 0.0
H445 H 0.60142 0.31455 0.18734 0.0
C446 C 0.58835 0.28471 0.2409 0.0
O447 O 0.51697 0.27606 0.25461 0.0
O448 O 0.52563 0.30305 0.21898 0.0
N449 N 0.58204 0.2475 0.13458 0.0
C450 C 0.57316 0.22594 0.12783 0.0
C451 C 0.57179 0.21854 0.09633 0.0
C452 C 0.57972 0.23332 0.07211 0.0
C453 C 0.58878 0.25545 0.0796 0.0
C454 C 0.58981 0.26183 0.11145 0.0
H455 H 0.56699 0.21459 0.14634 0.0
O456 O 0.5187 0.26105 0.18609 0.0
O457 O 0.55537 0.27244 0.17915 0.0
O458 O 0.55024 0.23766 0.22901 0.0
O459 O 0.58102 0.23201 0.19686 0.0
C460 C 0.59605 0.27175 0.05667 0.0
C461 C 0.6036 0.29427 0.06585 0.0
H462 H 0.61543 0.33642 0.09228 0.0
H463 H 0.61384 0.34522 0.14957 0.0
H464 H 0.56459 0.20152 0.09071 0.0
H465 H 0.57844 0.22764 0.04781 0.0
H466 H 0.59541 0.26732 0.03186 0.0
H467 H 0.60872 0.3068 0.04796 0.0
Mn468 Mn 0.72919 0.5222 0.2265 0.0
Mn469 Mn 0.73194 0.56672 0.17413 0.0
C470 C 0.73994 0.51522 0.17478 0.0
C471 C 0.70771 0.49288 0.25128 0.0
C472 C 0.76937 0.55729 0.22301 0.0
O473 O 0.71045 0.54787 0.24834 0.0
O474 O 0.71247 0.57581 0.21088 0.0
C475 C 0.68213 0.56704 0.15464 0.0
N476 N 0.70524 0.56535 0.147 0.0
C477 C 0.69612 0.56162 0.09186 0.0
C478 C 0.67222 0.56341 0.09912 0.0
C479 C 0.66521 0.56608 0.13066 0.0
C480 C 0.71217 0.56264 0.11676 0.0
H481 H 0.67665 0.56909 0.17885 0.0
C482 C 0.70537 0.56811 0.23759 0.0
O483 O 0.72676 0.50107 0.26389 0.0
O484 O 0.70098 0.50211 0.22489 0.0
N485 N 0.74996 0.56037 0.13707 0.0
C486 C 0.77366 0.55858 0.13407 0.0
C487 C 0.78357 0.55594 0.10401 0.0
C488 C 0.76906 0.55543 0.07731 0.0
C489 C 0.74473 0.55745 0.08092 0.0
C490 C 0.73587 0.56026 0.11146 0.0
H491 H 0.78491 0.55928 0.15444 0.0
O492 O 0.74559 0.50048 0.19676 0.0
O493 O 0.72809 0.53345 0.18367 0.0
O494 O 0.76 0.53936 0.23572 0.0
O495 O 0.76027 0.5689 0.20041 0.0
C496 C 0.72892 0.55674 0.05544 0.0
C497 C 0.70462 0.55868 0.06092 0.0
H498 H 0.65911 0.56267 0.0807 0.0
H499 H 0.6468 0.56742 0.13647 0.0
H500 H 0.80237 0.55443 0.10141 0.0
H501 H 0.77682 0.55356 0.05416 0.0
H502 H 0.73524 0.55453 0.03155 0.0
H503 H 0.69262 0.55785 0.04118 0.0
Mn504 Mn 0.47288 0.7236 0.20659 0.0
Mn505 Mn 0.42736 0.72995 0.15637 0.0
C506 C 0.47937 0.73532 0.15517 0.0
C507 C 0.50093 0.69948 0.22966 0.0
C508 C 0.43996 0.76566 0.20633 0.0
O509 O 0.44662 0.70612 0.22883 0.0
O510 O 0.41802 0.70996 0.19259 0.0
C511 C 0.42439 0.68077 0.13457 0.0
N512 N 0.42683 0.70398 0.12794 0.0
C513 C 0.42877 0.69621 0.07226 0.0
C514 C 0.42614 0.67223 0.07847 0.0
C515 C 0.42402 0.66448 0.10977 0.0
C516 C 0.4291 0.7116 0.09794 0.0
H517 H 0.42278 0.67474 0.15859 0.0
C518 C 0.42594 0.70215 0.21881 0.0
O519 O 0.49443 0.71885 0.24315 0.0
O520 O 0.49101 0.69415 0.20314 0.0
N521 N 0.43368 0.74866 0.11992 0.0
C522 C 0.4364 0.77232 0.11797 0.0
C523 C 0.43868 0.78294 0.0883 0.0
C524 C 0.43784 0.76917 0.06091 0.0
C525 C 0.43483 0.74486 0.06345 0.0
C526 C 0.43244 0.7353 0.09367 0.0
H527 H 0.43671 0.78303 0.13888 0.0
O528 O 0.49497 0.73932 0.17673 0.0
O529 O 0.46065 0.72427 0.16421 0.0
O530 O 0.45782 0.75519 0.21765 0.0
O531 O 0.42723 0.75761 0.1841 0.0
C532 C 0.43414 0.72975 0.03721 0.0
C533 C 0.43128 0.70542 0.04163 0.0
H534 H 0.42584 0.65961 0.05941 0.0
H535 H 0.42208 0.64599 0.11476 0.0
H536 H 0.44093 0.80171 0.08653 0.0
H537 H 0.43942 0.77747 0.03807 0.0
H538 H 0.43599 0.73661 0.01354 0.0
H539 H 0.43105 0.69395 0.0213 0.0
Mn540 Mn 0.27848 0.46404 0.21485 0.0
Mn541 Mn 0.27501 0.41671 0.16733 0.0
C542 C 0.26474 0.46782 0.16389 0.0
C543 C 0.30015 0.49519 0.23493 0.0
C544 C 0.23917 0.42783 0.21754 0.0
O545 O 0.299 0.44042 0.23755 0.0
O546 O 0.29564 0.41008 0.20397 0.0
C547 C 0.32434 0.41652 0.14573 0.0
N548 N 0.30102 0.41705 0.13898 0.0
C549 C 0.30873 0.41674 0.08324 0.0
C550 C 0.33282 0.41605 0.08958 0.0
C551 C 0.34066 0.41604 0.12097 0.0
C552 C 0.29331 0.41735 0.10888 0.0
H553 H 0.33045 0.41643 0.16981 0.0
C554 C 0.3038 0.41958 0.22902 0.0
O555 O 0.28201 0.48715 0.24994 0.0
O556 O 0.30577 0.48489 0.20879 0.0
N557 N 0.25598 0.42037 0.13055 0.0
C558 C 0.23221 0.42169 0.12845 0.0
C559 C 0.22152 0.42197 0.09866 0.0
C560 C 0.23536 0.42053 0.07137 0.0
C561 C 0.25979 0.41911 0.07409 0.0
C562 C 0.26944 0.41885 0.10441 0.0
H563 H 0.22148 0.42239 0.14934 0.0
O564 O 0.25979 0.48347 0.18502 0.0
O565 O 0.27799 0.45058 0.17301 0.0
O566 O 0.24881 0.44633 0.22831 0.0
O567 O 0.24742 0.4155 0.19505 0.0
C568 C 0.27496 0.41789 0.04793 0.0
C569 C 0.29941 0.41692 0.0525 0.0
H570 H 0.34546 0.41562 0.07055 0.0
H571 H 0.35923 0.41559 0.12606 0.0
H572 H 0.20266 0.42307 0.09674 0.0
H573 H 0.227 0.42044 0.04846 0.0
H574 H 0.26803 0.41779 0.02418 0.0
H575 H 0.3109 0.41629 0.03219 0.0
H576 H 0.11946 0.16684 0.30961 0.0
H577 H 0.1405 0.13371 0.28788 0.0
H578 H 0.09561 0.13418 0.20613 0.0
H579 H 0.07385 0.16741 0.22817 0.0
H580 H 0.09906 0.0912 0.23066 0.0
H581 H 0.1882 0.12667 0.2192 0.0
H582 H 0.17741 0.13279 0.25797 0.0
H583 H 0.16295 0.14539 0.22417 0.0
C584 C 0.11414 0.16024 0.28678 0.0
C585 C 0.09487 0.16987 0.27069 0.0
C586 C 0.12644 0.14136 0.27419 0.0
C587 C 0.12002 0.13176 0.24502 0.0
C588 C 0.10105 0.14151 0.22851 0.0
H589 H 0.21135 0.00984 0.21285 0.0
H590 H 0.18977 0.04534 0.19771 0.0
C591 C 0.08863 0.16049 0.24116 0.0
C592 C 0.1317 0.11004 0.23403 0.0
H593 H 0.18569 0.0846 0.23119 0.0
C594 C 0.11801 0.08986 0.22986 0.0
C595 C 0.15638 0.10827 0.23205 0.0
C596 C 0.17201 0.12955 0.23322 0.0
C597 C 0.1284 0.06769 0.22711 0.0
C598 C 0.15305 0.06565 0.2294 0.0
C599 C 0.16676 0.08605 0.23016 0.0
C600 C 0.1646 0.04286 0.23573 0.0
C601 C 0.11278 0.04659 0.22307 0.0
C602 C 0.15768 0.02976 0.2621 0.0
C603 C 0.16987 0.00962 0.27071 0.0
C604 C 0.18949 0.00223 0.25338 0.0
C605 C 0.19626 0.01509 0.22662 0.0
C606 C 0.18395 0.03533 0.21793 0.0
H607 H 0.09686 0.05117 0.20934 0.0
H608 H 0.12202 0.03204 0.21096 0.0
H609 H 0.10693 0.04042 0.24659 0.0
H610 H 0.14332 0.03557 0.27683 0.0
H611 H 0.16423 0.0002 0.29153 0.0
H612 H 0.98752 0.16088 0.27696 0.0
H613 H 0.9502 0.14587 0.25872 0.0
H614 H 0.9462 0.20109 0.18949 0.0
H615 H 0.98383 0.21671 0.20839 0.0
H616 H 0.90698 0.19894 0.22318 0.0
H617 H 0.92701 0.10942 0.18491 0.0
H618 H 0.94008 0.11377 0.22279 0.0
H619 H 0.94966 0.13124 0.18973 0.0
C620 C 0.97902 0.16962 0.25738 0.0
C621 C 0.98858 0.19004 0.24419 0.0
C622 C 0.95772 0.16082 0.2467 0.0
C623 C 0.94552 0.17205 0.2223 0.0
C624 C 0.95544 0.19198 0.20812 0.0
H625 H 0.81445 0.09398 0.22056 0.0
H626 H 0.84599 0.11568 0.19469 0.0
C627 C 0.97694 0.20084 0.21886 0.0
C628 C 0.92122 0.16446 0.21518 0.0
H629 H 0.88881 0.11445 0.21179 0.0
C630 C 0.90293 0.18056 0.21967 0.0
C631 C 0.91571 0.14067 0.20951 0.0
C632 C 0.93424 0.12291 0.20109 0.0
C633 C 0.87961 0.17302 0.22242 0.0
C634 C 0.87462 0.14874 0.22163 0.0
C635 C 0.89254 0.13304 0.21329 0.0
C636 C 0.85234 0.13892 0.2341 0.0
C637 C 0.86075 0.19113 0.22743 0.0
C638 C 0.84492 0.14509 0.26455 0.0
C639 C 0.82675 0.13294 0.27923 0.0
C640 C 0.81588 0.11391 0.26411 0.0
C641 C 0.82248 0.10848 0.23298 0.0
C642 C 0.84054 0.12088 0.21813 0.0
H643 H 0.86472 0.20729 0.21386 0.0
H644 H 0.84324 0.18456 0.22025 0.0
H645 H 0.86019 0.19605 0.25273 0.0
H646 H 0.85412 0.15838 0.2779 0.0
H647 H 0.82228 0.13761 0.30323 0.0
H648 H 0.85034 0.01581 0.26666 0.0
H649 H 0.87065 0.98028 0.24999 0.0
H650 H 0.80702 0.955 0.2069 0.0
H651 H 0.78689 0.99096 0.22247 0.0
H652 H 0.8571 0.9405 0.27508 0.0
H653 H 0.85485 0.93043 0.1454 0.0
H654 H 0.84951 0.95815 0.16465 0.0
H655 H 0.82649 0.93673 0.1615 0.0
C656 C 0.84091 0.00302 0.2527 0.0
C657 C 0.817 0.00599 0.24612 0.0
C658 C 0.85254 0.98275 0.24313 0.0
C659 C 0.8404 0.96495 0.22715 0.0
C660 C 0.81692 0.96865 0.21858 0.0
H661 H 0.85755 0.82011 0.26362 0.0
H662 H 0.8419 0.85786 0.24673 0.0
C663 C 0.80537 0.98916 0.22772 0.0
C664 C 0.85084 0.94123 0.22497 0.0
H665 H 0.86113 0.89501 0.17556 0.0
C666 C 0.85832 0.93078 0.25317 0.0
C667 C 0.85233 0.92844 0.19644 0.0
C668 C 0.84558 0.93911 0.16524 0.0
C669 C 0.86666 0.90778 0.25383 0.0
C670 C 0.86717 0.89465 0.22563 0.0
C671 C 0.86039 0.90514 0.19716 0.0
C672 C 0.87444 0.86988 0.2263 0.0
C673 C 0.87455 0.89751 0.28489 0.0
C674 C 0.89752 0.86375 0.21865 0.0
C675 C 0.90654 0.8421 0.22819 0.0
C676 C 0.89259 0.82653 0.24578 0.0
C677 C 0.86879 0.83184 0.25043 0.0
C678 C 0.85978 0.85334 0.24067 0.0
H679 H 0.87708 0.91118 0.3032 0.0
H680 H 0.8611 0.88501 0.2935 0.0
H681 H 0.89122 0.88773 0.28198 0.0
H682 H 0.90907 0.87641 0.20771 0.0
H683 H 0.92495 0.83853 0.22426 0.0
H684 H 0.99045 0.84704 0.27525 0.0
H685 H 0.02735 0.86665 0.26325 0.0
H686 H 0.05009 0.80633 0.2102 0.0
H687 H 0.01277 0.78681 0.22142 0.0
H688 H 0.06767 0.84895 0.28491 0.0
H689 H 0.07371 0.8599 0.15525 0.0
H690 H 0.04637 0.85399 0.17521 0.0
H691 H 0.06667 0.83062 0.16749 0.0
C692 C 0.00309 0.83815 0.26042 0.0
C693 C 0.99887 0.81532 0.2495 0.0
C694 C 0.02413 0.84941 0.2535 0.0
C695 C 0.04144 0.83802 0.23572 0.0
C696 C 0.03681 0.81565 0.22342 0.0
H697 H 0.1876 0.86066 0.26861 0.0
H698 H 0.15034 0.84301 0.2533 0.0
C699 C 0.01556 0.80445 0.23004 0.0
C700 C 0.0653 0.84814 0.23424 0.0
H701 H 0.10913 0.86561 0.18458 0.0
C702 C 0.07662 0.85274 0.26293 0.0
C703 C 0.07695 0.8531 0.20555 0.0
C704 C 0.06525 0.84936 0.1741 0.0
C705 C 0.09929 0.86194 0.26382 0.0
C706 C 0.11125 0.86619 0.23522 0.0
C707 C 0.09994 0.862 0.20641 0.0
C708 C 0.13547 0.87525 0.23561 0.0
C709 C 0.11026 0.86717 0.29546 0.0
C710 C 0.13985 0.89888 0.22881 0.0
C711 C 0.16125 0.90903 0.23733 0.0
C712 C 0.17833 0.89563 0.25301 0.0
C713 C 0.17465 0.87146 0.25691 0.0
C714 C 0.15342 0.86133 0.24811 0.0
H715 H 0.09703 0.86765 0.31466 0.0
H716 H 0.12319 0.8533 0.3012 0.0
H717 H 0.11962 0.88421 0.29499 0.0
H718 H 0.12612 0.90987 0.21921 0.0
H719 H 0.16358 0.9277 0.23406 0.0
H720 H 0.13193 0.80496 0.73137 0.0
H721 H 0.15449 0.83686 0.75501 0.0
H722 H 0.09066 0.87619 0.76848 0.0
H723 H 0.06807 0.84366 0.74683 0.0
H724 H 0.15816 0.8752 0.72656 0.0
H725 H 0.12428 0.89791 0.84411 0.0
H726 H 0.11725 0.87042 0.82531 0.0
H727 H 0.10038 0.89642 0.81688 0.0
C728 C 0.12271 0.82007 0.74061 0.0
C729 C 0.09834 0.82195 0.73734 0.0
C730 C 0.13558 0.83829 0.75408 0.0
C731 C 0.12436 0.85902 0.76372 0.0
C732 C 0.09978 0.86024 0.76218 0.0
H733 H 0.15584 0.99678 0.72368 0.0
H734 H 0.13874 0.9596 0.74035 0.0
C735 C 0.08684 0.84169 0.74954 0.0
C736 C 0.13839 0.88058 0.76933 0.0
H737 H 0.14105 0.93058 0.81364 0.0
C738 C 0.15488 0.88687 0.74624 0.0
C739 C 0.13422 0.89604 0.79488 0.0
C740 C 0.11823 0.88967 0.82182 0.0
C741 C 0.16613 0.90863 0.74688 0.0
C742 C 0.16055 0.92473 0.77096 0.0
C743 C 0.14511 0.91816 0.79508 0.0
C744 C 0.16853 0.94922 0.7685 0.0
C745 C 0.18293 0.91491 0.72072 0.0
C746 C 0.19058 0.95599 0.77993 0.0
C747 C 0.20038 0.97739 0.77057 0.0
C748 C 0.18834 0.99195 0.74932 0.0
C749 C 0.16557 0.98581 0.73989 0.0
C750 C 0.15571 0.96467 0.74953 0.0
H751 H 0.18704 0.89967 0.70538 0.0
H752 H 0.17516 0.92893 0.70591 0.0
H753 H 0.19952 0.92178 0.73075 0.0
H754 H 0.20077 0.9441 0.79433 0.0
H755 H 0.21801 0.98168 0.77805 0.0
H756 H 0.17615 0.08152 0.76686 0.0
H757 H 0.14353 0.10409 0.78901 0.0
H758 H 0.13629 0.14123 0.70102 0.0
H759 H 0.16899 0.1195 0.67914 0.0
H760 H 0.1305 0.17013 0.75156 0.0
H761 H 0.07651 0.08937 0.76494 0.0
H762 H 0.10364 0.09049 0.78632 0.0
H763 H 0.10398 0.08925 0.74402 0.0
C764 C 0.16776 0.09469 0.75236 0.0
C765 C 0.17508 0.09849 0.72107 0.0
C766 C 0.14906 0.1075 0.76504 0.0
C767 C 0.13721 0.12407 0.74649 0.0
C768 C 0.14516 0.12855 0.7158 0.0
H769 H 0.00615 0.16598 0.70101 0.0
H770 H 0.04282 0.14759 0.71588 0.0
C771 C 0.16388 0.11598 0.70326 0.0
C772 C 0.11553 0.13583 0.75749 0.0
H773 H 0.05741 0.12526 0.76979 0.0
C774 C 0.11456 0.16039 0.75629 0.0
C775 C 0.09481 0.12302 0.76374 0.0
C776 C 0.09458 0.09659 0.7647 0.0
C777 C 0.09315 0.1724 0.75836 0.0
C778 C 0.07225 0.15945 0.76249 0.0
C779 C 0.0735 0.13509 0.7666 0.0
C780 C 0.04896 0.16997 0.75623 0.0
C781 C 0.09288 0.19857 0.75339 0.0
C782 C 0.03992 0.1885 0.77432 0.0
C783 C 0.01882 0.19932 0.76562 0.0
C784 C 0.00649 0.19161 0.73884 0.0
C785 C 0.01523 0.17248 0.72166 0.0
C786 C 0.03619 0.16183 0.73023 0.0
H787 H 0.11036 0.2055 0.74664 0.0
H788 H 0.08012 0.20333 0.7347 0.0
H789 H 0.08738 0.20735 0.77551 0.0
H790 H 0.04933 0.19482 0.79479 0.0
H791 H 0.01242 0.21395 0.77941 0.0
H792 H 0.92558 0.17246 0.77617 0.0
H793 H 0.90923 0.13746 0.80157 0.0
H794 H 0.85706 0.1326 0.72828 0.0
H795 H 0.8725 0.16755 0.70363 0.0
H796 H 0.8388 0.12271 0.78529 0.0
H797 H 0.92153 0.07265 0.76686 0.0
H798 H 0.92286 0.09844 0.79107 0.0
H799 H 0.91708 0.10115 0.74962 0.0
C800 C 0.91041 0.1641 0.76577 0.0
C801 C 0.90054 0.17273 0.73764 0.0
C802 C 0.90119 0.14401 0.78021 0.0
C803 C 0.88218 0.13217 0.76651 0.0
C804 C 0.87174 0.14142 0.73932 0.0
H805 H 0.83877 0.00341 0.7147 0.0
H806 H 0.85999 0.03819 0.73131 0.0
C807 C 0.88071 0.16145 0.72514 0.0
C808 C 0.87362 0.10931 0.77847 0.0
H809 H 0.88782 0.05126 0.77825 0.0
C810 C 0.84956 0.10705 0.78451 0.0
C811 C 0.8878 0.089 0.7776 0.0
C812 C 0.91373 0.09023 0.77081 0.0
C813 C 0.83881 0.085 0.78621 0.0
C814 C 0.85276 0.06461 0.78306 0.0
C815 C 0.87719 0.06692 0.78047 0.0
C816 C 0.84218 0.04141 0.7762 0.0
C817 C 0.81242 0.0839 0.78829 0.0
C818 C 0.82566 0.03103 0.79638 0.0
C819 C 0.81304 0.0113 0.78653 0.0
C820 C 0.81722 0.00137 0.75672 0.0
C821 C 0.83506 0.0107 0.73774 0.0
C822 C 0.84729 0.03058 0.74729 0.0
H823 H 0.80417 0.10138 0.78524 0.0
H824 H 0.80523 0.07196 0.77005 0.0
H825 H 0.80726 0.07711 0.81178 0.0
H826 H 0.8219 0.03865 0.81918 0.0
H827 H 0.79959 0.00425 0.80184 0.0
H828 H 0.82974 0.9226 0.77067 0.0
H829 H 0.86521 0.9002 0.78202 0.0
H830 H 0.83372 0.83859 0.74137 0.0
H831 H 0.79838 0.86097 0.72918 0.0
H832 H 0.88045 0.8561 0.81004 0.0
H833 H 0.88599 0.85856 0.67915 0.0
H834 H 0.86492 0.87562 0.70091 0.0
H835 H 0.8601 0.84487 0.69458 0.0
C836 C 0.82998 0.90407 0.76522 0.0
C837 C 0.81148 0.89365 0.7484 0.0
C838 C 0.8503 0.89129 0.77174 0.0
C839 C 0.85222 0.86793 0.76183 0.0
C840 C 0.83266 0.85673 0.7487 0.0
H841 H 0.97808 0.78037 0.76284 0.0
H842 H 0.93998 0.79713 0.77712 0.0
C843 C 0.81249 0.86954 0.74179 0.0
C844 C 0.8756 0.85688 0.75974 0.0
H845 H 0.9164 0.83946 0.70596 0.0
C846 C 0.88834 0.8523 0.78737 0.0
C847 C 0.88595 0.85245 0.73003 0.0
C848 C 0.87369 0.85829 0.69944 0.0
C849 C 0.91126 0.84327 0.78598 0.0
C850 C 0.92142 0.83859 0.75623 0.0
C851 C 0.90854 0.84305 0.72874 0.0
C852 C 0.94566 0.8298 0.75239 0.0
C853 C 0.92464 0.83944 0.81617 0.0
C854 C 0.96155 0.84268 0.73405 0.0
C855 C 0.98304 0.83304 0.72547 0.0
C856 C 0.98915 0.81035 0.73522 0.0
C857 C 0.97384 0.79794 0.7551 0.0
C858 C 0.95214 0.80754 0.76344 0.0
H859 H 0.91654 0.8489 0.8363 0.0
H860 H 0.92475 0.82047 0.82182 0.0
H861 H 0.9431 0.84529 0.81365 0.0
H862 H 0.95688 0.85989 0.72528 0.0
H863 H 0.99456 0.84309 0.71033 0.0
H864 H 0.57025 0.67053 0.72662 0.0
H865 H 0.59294 0.6354 0.71378 0.0
H866 H 0.65675 0.67155 0.73799 0.0
H867 H 0.63416 0.70648 0.75167 0.0
H868 H 0.63556 0.6204 0.67862 0.0
H869 H 0.64479 0.62264 0.80925 0.0
H870 H 0.62463 0.64136 0.78844 0.0
H871 H 0.65537 0.64808 0.78883 0.0
C872 C 0.58919 0.67131 0.7279 0.0
C873 C 0.60046 0.69103 0.74065 0.0
C874 C 0.60213 0.65122 0.72057 0.0
C875 C 0.62643 0.65081 0.72557 0.0
C876 C 0.63796 0.67149 0.73436 0.0
H877 H 0.71621 0.52536 0.72874 0.0
H878 H 0.69985 0.56335 0.7125 0.0
C879 C 0.62505 0.6914 0.74215 0.0
C880 C 0.63871 0.62809 0.72811 0.0
H881 H 0.66194 0.591 0.78281 0.0
C882 C 0.64155 0.61398 0.70128 0.0
C883 C 0.64612 0.6197 0.75787 0.0
C884 C 0.64245 0.63358 0.78783 0.0
C885 C 0.65157 0.5915 0.70358 0.0
C886 C 0.65888 0.5832 0.73338 0.0
C887 C 0.65637 0.59752 0.75998 0.0
C888 C 0.66753 0.55908 0.73852 0.0
C889 C 0.65352 0.57645 0.67452 0.0
C890 C 0.65467 0.54412 0.75818 0.0
C891 C 0.66401 0.52275 0.76772 0.0
C892 C 0.68642 0.51584 0.75774 0.0
C893 C 0.69887 0.53026 0.73674 0.0
C894 C 0.68952 0.55187 0.72732 0.0
H895 H 0.64411 0.58416 0.65409 0.0
H896 H 0.67226 0.57445 0.66812 0.0
H897 H 0.64638 0.55869 0.67921 0.0
H898 H 0.63768 0.54941 0.76711 0.0
H899 H 0.65388 0.51193 0.78367 0.0
H900 H 0.50653 0.65866 0.76428 0.0
H901 H 0.47235 0.63466 0.75194 0.0
H902 H 0.44018 0.69362 0.70529 0.0
H903 H 0.47484 0.71745 0.71653 0.0
H904 H 0.43154 0.64414 0.77665 0.0
H905 H 0.42065 0.6416 0.64709 0.0
H906 H 0.44763 0.65074 0.66564 0.0
H907 H 0.42359 0.67094 0.6617 0.0
C908 C 0.49241 0.66632 0.75069 0.0
C909 C 0.49321 0.68994 0.74155 0.0
C910 C 0.47291 0.65258 0.74357 0.0
C911 C 0.4537 0.66225 0.72752 0.0
C912 C 0.45496 0.68556 0.71702 0.0
H913 H 0.31114 0.63348 0.7617 0.0
H914 H 0.34756 0.65061 0.7422 0.0
C915 C 0.4747 0.69924 0.72368 0.0
C916 C 0.43127 0.64914 0.72629 0.0
H917 H 0.38641 0.63196 0.67804 0.0
C918 C 0.42195 0.64114 0.75495 0.0
C919 C 0.41863 0.64528 0.69801 0.0
C920 C 0.42826 0.65239 0.66634 0.0
C921 C 0.40016 0.63003 0.7563 0.0
C922 C 0.38712 0.62707 0.72831 0.0
C923 C 0.39651 0.63444 0.69943 0.0
C924 C 0.3632 0.61739 0.7298 0.0
C925 C 0.39083 0.62204 0.78785 0.0
C926 C 0.35957 0.59315 0.72756 0.0
C927 C 0.33866 0.58328 0.73855 0.0
C928 C 0.3214 0.59759 0.75227 0.0
C929 C 0.32423 0.62204 0.75144 0.0
C930 C 0.34496 0.63187 0.74019 0.0
H931 H 0.40423 0.62324 0.80677 0.0
H932 H 0.37565 0.63308 0.79464 0.0
H933 H 0.38461 0.60364 0.78635 0.0
H934 H 0.37361 0.58175 0.71985 0.0
H935 H 0.33701 0.56438 0.73907 0.0
H936 H 0.3369 0.49688 0.78814 0.0
H937 H 0.3524 0.45766 0.77917 0.0
H938 H 0.28731 0.4372 0.73545 0.0
H939 H 0.27188 0.47688 0.74358 0.0
H940 H 0.33263 0.41992 0.807 0.0
H941 H 0.3359 0.40717 0.67718 0.0
H942 H 0.33334 0.43576 0.6951 0.0
H943 H 0.30825 0.41688 0.69268 0.0
C944 C 0.32605 0.48419 0.77601 0.0
C945 C 0.30315 0.48984 0.76674 0.0
C946 C 0.33493 0.4618 0.77087 0.0
C947 C 0.32103 0.44451 0.75662 0.0
C948 C 0.29848 0.45037 0.74601 0.0
H949 H 0.3616 0.30133 0.80247 0.0
H950 H 0.33588 0.33415 0.78927 0.0
C951 C 0.28965 0.47299 0.75079 0.0
C952 C 0.32943 0.41996 0.75646 0.0
H953 H 0.34556 0.37442 0.70894 0.0
C954 C 0.33534 0.40992 0.78556 0.0
C955 C 0.33293 0.40701 0.72844 0.0
C956 C 0.32747 0.41724 0.69651 0.0
C957 C 0.34542 0.38764 0.78746 0.0
C958 C 0.34893 0.37459 0.75948 0.0
C959 C 0.34252 0.38435 0.73034 0.0
C960 C 0.36148 0.35189 0.76022 0.0
C961 C 0.3533 0.37885 0.81936 0.0
C962 C 0.3836 0.35006 0.74608 0.0
C963 C 0.39818 0.33111 0.75307 0.0
C964 C 0.3909 0.31385 0.77461 0.0
C965 C 0.36784 0.31456 0.7862 0.0
C966 C 0.35314 0.33332 0.77876 0.0
H967 H 0.3541 0.39314 0.83711 0.0
H968 H 0.3407 0.36553 0.82802 0.0
H969 H 0.37087 0.37058 0.81784 0.0
H970 H 0.39031 0.36414 0.73153 0.0
H971 H 0.41581 0.33107 0.74363 0.0
H972 H 0.6853 0.37579 0.75221 0.0
H973 H 0.65248 0.35506 0.72775 0.0
H974 H 0.61199 0.41896 0.72896 0.0
H975 H 0.64543 0.4399 0.7511 0.0
H976 H 0.61602 0.34797 0.75869 0.0
H977 H 0.58612 0.39254 0.65095 0.0
H978 H 0.61449 0.39839 0.66802 0.0
H979 H 0.58878 0.41361 0.68196 0.0
C980 C 0.6697 0.38552 0.74586 0.0
C981 C 0.66778 0.40936 0.75328 0.0
C982 C 0.65093 0.37371 0.73198 0.0
C983 C 0.62965 0.38537 0.72629 0.0
C984 C 0.62831 0.4096 0.73208 0.0
H985 H 0.49325 0.34885 0.77025 0.0
H986 H 0.52889 0.36836 0.75218 0.0
C987 C 0.64738 0.42157 0.74501 0.0
C988 C 0.60794 0.37161 0.7205 0.0
H989 H 0.55553 0.37221 0.6814 0.0
C990 C 0.60319 0.35288 0.74104 0.0
C991 C 0.59096 0.37795 0.69765 0.0
C992 C 0.59552 0.39657 0.67323 0.0
C993 C 0.5816 0.34132 0.74064 0.0
C994 C 0.56412 0.34878 0.71939 0.0
C995 C 0.56903 0.36668 0.69777 0.0
C996 C 0.54004 0.33971 0.72244 0.0
C997 C 0.57707 0.32201 0.7642 0.0
C998 C 0.53412 0.31757 0.71054 0.0
C999 C 0.51368 0.30637 0.72076 0.0
C1000 C 0.49916 0.31712 0.74329 0.0
C1001 C 0.50421 0.34008 0.75306 0.0
C1002 C 0.52446 0.35132 0.74262 0.0
H1003 H 0.59261 0.31826 0.77913 0.0
H1004 H 0.56223 0.32694 0.77976 0.0
H1005 H 0.57207 0.30571 0.75162 0.0
H1006 H 0.54612 0.30831 0.69517 0.0
H1007 H 0.51023 0.28866 0.71288 0.0
H1008 H 0.66299 0.4798 0.23907 0.0
H1009 H 0.64449 0.44254 0.25211 0.0
H1010 H 0.70584 0.42195 0.30456 0.0
H1011 H 0.72432 0.45965 0.29216 0.0
H1012 H 0.66509 0.40219 0.23047 0.0
H1013 H 0.65161 0.39771 0.36013 0.0
H1014 H 0.65587 0.42506 0.33945 0.0
H1015 H 0.68039 0.40627 0.34725 0.0
C1016 C 0.67232 0.4676 0.25407 0.0
C1017 C 0.69516 0.4725 0.26438 0.0
C1018 C 0.66171 0.44634 0.26155 0.0
C1019 C 0.67378 0.42948 0.2793 0.0
C1020 C 0.69607 0.43485 0.29126 0.0
H1021 H 0.63624 0.28504 0.24308 0.0
H1022 H 0.66046 0.31789 0.26043 0.0
C1023 C 0.70664 0.45635 0.28405 0.0
C1024 C 0.66429 0.40537 0.28101 0.0
H1025 H 0.64323 0.36329 0.33082 0.0
C1026 C 0.66041 0.39365 0.25244 0.0
C1027 C 0.65822 0.39434 0.30971 0.0
C1028 C 0.66153 0.40648 0.34094 0.0
C1029 C 0.6501 0.37145 0.2516 0.0
C1030 C 0.6441 0.36027 0.28026 0.0
C1031 C 0.64823 0.37179 0.30898 0.0
C1032 C 0.63157 0.3376 0.27997 0.0
C1033 C 0.64484 0.36058 0.21987 0.0
C1034 C 0.60771 0.33698 0.28778 0.0
C1035 C 0.59384 0.31809 0.27826 0.0
C1036 C 0.60366 0.29973 0.26049 0.0
C1037 C 0.6281 0.29909 0.25628 0.0
C1038 C 0.64197 0.31785 0.26616 0.0
H1039 H 0.64619 0.3735 0.20037 0.0
H1040 H 0.65757 0.34633 0.21515 0.0
H1041 H 0.62697 0.35291 0.21951 0.0
H1042 H 0.5994 0.35203 0.29858 0.0
H1043 H 0.57511 0.3191 0.28206 0.0
H1044 H 0.50954 0.65395 0.21563 0.0
H1045 H 0.54362 0.63071 0.23055 0.0
H1046 H 0.56956 0.68826 0.28647 0.0
H1047 H 0.53495 0.71143 0.27231 0.0
H1048 H 0.58654 0.64382 0.21307 0.0
H1049 H 0.58458 0.63262 0.34294 0.0
H1050 H 0.55919 0.64151 0.32053 0.0
H1051 H 0.58159 0.66246 0.33014 0.0
C1052 C 0.52224 0.66149 0.23167 0.0
C1053 C 0.51972 0.68456 0.24261 0.0
C1054 C 0.54168 0.64816 0.24025 0.0
C1055 C 0.55912 0.65768 0.25973 0.0
C1056 C 0.55612 0.68036 0.27193 0.0
H1057 H 0.70251 0.6156 0.23863 0.0
H1058 H 0.6677 0.63862 0.25137 0.0
C1059 C 0.53642 0.69365 0.26365 0.0
C1060 C 0.58165 0.64504 0.26339 0.0
H1061 H 0.62032 0.62236 0.31688 0.0
C1062 C 0.5938 0.63904 0.23581 0.0
C1063 C 0.59112 0.63877 0.29305 0.0
C1064 C 0.57837 0.64396 0.32337 0.0
C1065 C 0.61513 0.62704 0.23696 0.0
C1066 C 0.62497 0.62136 0.26657 0.0
C1067 C 0.61282 0.62706 0.29427 0.0
C1068 C 0.6477 0.60904 0.26835 0.0
C1069 C 0.62686 0.62028 0.20634 0.0
C1070 C 0.64845 0.58511 0.27583 0.0
C1071 C 0.66848 0.57192 0.26891 0.0
C1072 C 0.68779 0.58255 0.25412 0.0
C1073 C 0.68778 0.60695 0.24976 0.0
C1074 C 0.66794 0.62011 0.25704 0.0
H1075 H 0.61463 0.62135 0.18602 0.0
H1076 H 0.64169 0.63237 0.20175 0.0
H1077 H 0.63394 0.60218 0.20761 0.0
H1078 H 0.63295 0.57629 0.28455 0.0
H1079 H 0.66798 0.55313 0.27239 0.0
H1080 H 0.37839 0.70227 0.22257 0.0
H1081 H 0.35343 0.67029 0.24085 0.0
H1082 H 0.41472 0.63173 0.27002 0.0
H1083 H 0.43963 0.66414 0.25308 0.0
H1084 H 0.35508 0.63058 0.21217 0.0
H1085 H 0.37059 0.6126 0.33828 0.0
H1086 H 0.37948 0.63972 0.3199 0.0
H1087 H 0.39773 0.61404 0.31715 0.0
C1088 C 0.38645 0.68731 0.23392 0.0
C1089 C 0.41092 0.68559 0.23626 0.0
C1090 C 0.37218 0.66904 0.24438 0.0
C1091 C 0.38213 0.64856 0.25691 0.0
C1092 C 0.40652 0.64751 0.26119 0.0
H1093 H 0.34249 0.51013 0.21406 0.0
H1094 H 0.36131 0.54765 0.22472 0.0
C1095 C 0.42079 0.66602 0.25129 0.0
C1096 C 0.36765 0.62705 0.2599 0.0
H1097 H 0.35644 0.57973 0.30695 0.0
C1098 C 0.35502 0.61979 0.23322 0.0
C1099 C 0.36743 0.61288 0.2873 0.0
C1100 C 0.37935 0.62036 0.31736 0.0
C1101 C 0.34315 0.59838 0.23264 0.0
C1102 C 0.34433 0.58349 0.25917 0.0
C1103 C 0.35589 0.5911 0.28649 0.0
C1104 C 0.33487 0.55943 0.25758 0.0
C1105 C 0.32992 0.59153 0.20323 0.0
C1106 C 0.31429 0.5533 0.27365 0.0
C1107 C 0.30347 0.53171 0.26769 0.0
C1108 C 0.31311 0.51615 0.24548 0.0
C1109 C 0.3345 0.52185 0.23101 0.0
C1110 C 0.34531 0.54325 0.23711 0.0
H1111 H 0.32574 0.60701 0.18838 0.0
H1112 H 0.34085 0.5794 0.18903 0.0
H1113 H 0.31335 0.58238 0.20924 0.0
H1114 H 0.30602 0.56563 0.28954 0.0
H1115 H 0.28701 0.52774 0.2792 0.0
H1116 H 0.30827 0.37227 0.23336 0.0
H1117 H 0.3429 0.35071 0.25054 0.0
H1118 H 0.37557 0.41547 0.27904 0.0
H1119 H 0.34064 0.43709 0.26273 0.0
H1120 H 0.3827 0.35901 0.21935 0.0
H1121 H 0.39856 0.37105 0.34721 0.0
H1122 H 0.37042 0.37652 0.32916 0.0
H1123 H 0.39336 0.39802 0.32661 0.0
C1124 C 0.32252 0.38183 0.24428 0.0
C1125 C 0.32187 0.40637 0.24643 0.0
C1126 C 0.34227 0.36949 0.25414 0.0
C1127 C 0.36183 0.38145 0.26607 0.0
C1128 C 0.36054 0.4058 0.27048 0.0
H1129 H 0.50351 0.34181 0.22629 0.0
H1130 H 0.46755 0.36358 0.23712 0.0
C1131 C 0.34059 0.41816 0.261 0.0
C1132 C 0.38463 0.36916 0.26821 0.0
H1133 H 0.43119 0.35744 0.31636 0.0
C1134 C 0.39313 0.35846 0.24072 0.0
C1135 C 0.39828 0.36851 0.29604 0.0
C1136 C 0.38961 0.37895 0.32652 0.0
C1137 C 0.41499 0.34746 0.24007 0.0
C1138 C 0.42901 0.34753 0.2675 0.0
C1139 C 0.42044 0.35773 0.29529 0.0
C1140 C 0.45256 0.33685 0.26708 0.0
C1141 C 0.42294 0.33582 0.20994 0.0
C1142 C 0.45641 0.31515 0.28163 0.0
C1143 C 0.477 0.30265 0.27555 0.0
C1144 C 0.49389 0.31171 0.25472 0.0
C1145 C 0.49071 0.33427 0.24218 0.0
C1146 C 0.47022 0.34676 0.24839 0.0
H1147 H 0.40819 0.333 0.19329 0.0
H1148 H 0.43609 0.34714 0.19813 0.0
H1149 H 0.43131 0.31866 0.21495 0.0
H1150 H 0.44291 0.30726 0.29609 0.0
H1151 H 0.47901 0.28535 0.28565 0.0
H1152 H 0.06479 0.28717 0.2509 0.0
H1153 H 0.08447 0.32407 0.2375 0.0
H1154 H 0.14077 0.30691 0.30115 0.0
H1155 H 0.12143 0.27042 0.31485 0.0
H1156 H 0.12242 0.35336 0.30805 0.0
H1157 H 0.14477 0.33075 0.18374 0.0
H1158 H 0.11468 0.32797 0.19576 0.0
H1159 H 0.13635 0.30871 0.21205 0.0
C1160 C 0.08146 0.29116 0.2618 0.0
C1161 C 0.09153 0.27576 0.28389 0.0
C1162 C 0.09264 0.31225 0.25416 0.0
C1163 C 0.11404 0.31813 0.26836 0.0
C1164 C 0.12418 0.30272 0.2901 0.0
H1165 H 0.23292 0.40232 0.27054 0.0
H1166 H 0.19747 0.38057 0.28479 0.0
C1167 C 0.1131 0.28178 0.29776 0.0
C1168 C 0.12641 0.34015 0.26077 0.0
H1169 H 0.16039 0.36543 0.20421 0.0
C1170 C 0.13042 0.35627 0.28518 0.0
C1171 C 0.13662 0.34392 0.23089 0.0
C1172 C 0.13309 0.32694 0.20404 0.0
C1173 C 0.14537 0.3755 0.28092 0.0
C1174 C 0.15681 0.3784 0.25166 0.0
C1175 C 0.1516 0.36313 0.22667 0.0
C1176 C 0.17624 0.39524 0.24732 0.0
C1177 C 0.14922 0.39217 0.308 0.0
C1178 C 0.17596 0.41097 0.22191 0.0
C1179 C 0.19621 0.42327 0.21377 0.0
C1180 C 0.21693 0.41999 0.23096 0.0
C1181 C 0.21691 0.4054 0.25747 0.0
C1182 C 0.19667 0.39305 0.2656 0.0
H1183 H 0.13376 0.39262 0.3239 0.0
H1184 H 0.16447 0.38615 0.32205 0.0
H1185 H 0.15283 0.41021 0.2995 0.0
H1186 H 0.16046 0.41276 0.20738 0.0
H1187 H 0.19605 0.43434 0.19305 0.0
H1188 H 0.71005 0.06075 0.25479 0.0
H1189 H 0.67036 0.07266 0.23945 0.0
H1190 H 0.67078 0.12573 0.31176 0.0
H1191 H 0.70991 0.11391 0.32754 0.0
H1192 H 0.6272 0.10112 0.30596 0.0
H1193 H 0.66142 0.13473 0.19132 0.0
H1194 H 0.66636 0.10444 0.20075 0.0
H1195 H 0.68078 0.12686 0.22317 0.0
C1196 C 0.70162 0.07485 0.26755 0.0
C1197 C 0.71336 0.08662 0.29206 0.0
C1198 C 0.67895 0.08158 0.25878 0.0
C1199 C 0.66778 0.10018 0.27434 0.0
C1200 C 0.67909 0.11128 0.29953 0.0
H1201 H 0.57886 0.21155 0.27586 0.0
H1202 H 0.59666 0.17404 0.28975 0.0
C1203 C 0.70161 0.10461 0.3083 0.0
C1204 C 0.64534 0.10994 0.26303 0.0
H1205 H 0.62407 0.14633 0.20633 0.0
C1206 C 0.6262 0.11057 0.28382 0.0
C1207 C 0.64406 0.12204 0.23404 0.0
C1208 C 0.66421 0.12219 0.21098 0.0
C1209 C 0.6064 0.12431 0.27728 0.0
C1210 C 0.60604 0.13806 0.24958 0.0
C1211 C 0.62434 0.13582 0.22763 0.0
C1212 C 0.5892 0.15751 0.24483 0.0
C1213 C 0.5865 0.12458 0.30062 0.0
C1214 C 0.57843 0.16057 0.21537 0.0
C1215 C 0.56874 0.18218 0.20727 0.0
C1216 C 0.56935 0.20088 0.22869 0.0
C1217 C 0.57791 0.19718 0.25922 0.0
C1218 C 0.58796 0.17567 0.26718 0.0
H1219 H 0.58467 0.10726 0.3123 0.0
H1220 H 0.59028 0.13768 0.31927 0.0
H1221 H 0.56962 0.12918 0.28919 0.0
H1222 H 0.5792 0.14685 0.19775 0.0
H1223 H 0.56214 0.18469 0.18361 0.0
H1224 H 0.81163 0.5487 0.19686 0.0
H1225 H 0.84759 0.57117 0.20615 0.0
H1226 H 0.81344 0.60798 0.28219 0.0
H1227 H 0.77762 0.58546 0.27289 0.0
H1228 H 0.84576 0.61803 0.19678 0.0
H1229 H 0.8795 0.6011 0.31654 0.0
H1230 H 0.86025 0.58089 0.29639 0.0
H1231 H 0.84845 0.6058 0.31708 0.0
C1232 C 0.81222 0.56098 0.2163 0.0
C1233 C 0.79213 0.56542 0.23434 0.0
C1234 C 0.8327 0.57376 0.2216 0.0
C1235 C 0.83328 0.59108 0.24504 0.0
C1236 C 0.81362 0.59429 0.26452 0.0
H1237 H 0.86589 0.72772 0.26876 0.0
H1238 H 0.85288 0.68809 0.25612 0.0
C1239 C 0.79315 0.58152 0.25919 0.0
C1240 C 0.85222 0.60877 0.2453 0.0
H1241 H 0.88635 0.6405 0.2956 0.0
C1242 C 0.85525 0.62247 0.2181 0.0
C1243 C 0.8647 0.6145 0.27302 0.0
C1244 C 0.86324 0.59961 0.30229 0.0
C1245 C 0.86869 0.64299 0.21882 0.0
C1246 C 0.87927 0.64986 0.24736 0.0
C1247 C 0.87803 0.63514 0.27376 0.0
C1248 C 0.88786 0.67395 0.25176 0.0
C1249 C 0.87016 0.65811 0.18975 0.0
C1250 C 0.91186 0.67903 0.25283 0.0
C1251 C 0.9194 0.70182 0.25962 0.0
C1252 C 0.90295 0.71956 0.266 0.0
C1253 C 0.87894 0.7144 0.26401 0.0
C1254 C 0.87149 0.69182 0.25681 0.0
H1255 H 0.86533 0.64825 0.16814 0.0
H1256 H 0.85795 0.67312 0.19228 0.0
H1257 H 0.88813 0.66527 0.18692 0.0
H1258 H 0.92467 0.66532 0.24907 0.0
H1259 H 0.938 0.7053 0.26133 0.0
H1260 H 0.30007 0.93949 0.25777 0.0
H1261 H 0.33898 0.92469 0.24249 0.0
H1262 H 0.31455 0.85381 0.25438 0.0
H1263 H 0.27603 0.86826 0.26991 0.0
H1264 H 0.36425 0.88405 0.28904 0.0
H1265 H 0.35096 0.8663 0.16141 0.0
H1266 H 0.33633 0.88997 0.18185 0.0
H1267 H 0.32657 0.86036 0.18718 0.0
C1268 C 0.30293 0.92076 0.2565 0.0
C1269 C 0.28509 0.905 0.26507 0.0
C1270 C 0.32513 0.9124 0.248 0.0
C1271 C 0.32946 0.88823 0.24748 0.0
C1272 C 0.31142 0.87253 0.25471 0.0
H1273 H 0.41379 0.7738 0.25817 0.0
H1274 H 0.39302 0.81021 0.27029 0.0
C1275 C 0.28946 0.88081 0.26355 0.0
C1276 C 0.35298 0.87877 0.24113 0.0
H1277 H 0.38148 0.84522 0.1871 0.0
C1278 C 0.36848 0.87611 0.26652 0.0
C1279 C 0.35837 0.86864 0.21173 0.0
C1280 C 0.34231 0.87151 0.1838 0.0
C1281 C 0.38844 0.86191 0.26386 0.0
C1282 C 0.39266 0.84994 0.23525 0.0
C1283 C 0.37821 0.85432 0.2091 0.0
C1284 C 0.40948 0.83028 0.23301 0.0
C1285 C 0.40422 0.85901 0.29208 0.0
C1286 C 0.42599 0.8296 0.20853 0.0
C1287 C 0.43779 0.80879 0.20164 0.0
C1288 C 0.43316 0.78846 0.2191 0.0
C1289 C 0.41791 0.78949 0.2449 0.0
C1290 C 0.40612 0.81029 0.25182 0.0
H1291 H 0.40395 0.87493 0.30714 0.0
H1292 H 0.39786 0.84412 0.30656 0.0
H1293 H 0.42256 0.85536 0.28488 0.0
H1294 H 0.42868 0.84475 0.19357 0.0
H1295 H 0.44942 0.80821 0.18149 0.0
H1296 H 0.22162 0.62954 0.80085 0.0
H1297 H 0.18316 0.64372 0.78624 0.0
H1298 H 0.16514 0.57563 0.74944 0.0
H1299 H 0.20425 0.56113 0.76367 0.0
H1300 H 0.15266 0.6099 0.7096 0.0
H1301 H 0.12043 0.63385 0.82704 0.0
H1302 H 0.14921 0.64584 0.82249 0.0
H1303 H 0.14515 0.61449 0.82163 0.0
C1304 C 0.20955 0.61742 0.78981 0.0
C1305 C 0.21604 0.59414 0.78356 0.0
C1306 C 0.18738 0.62552 0.78182 0.0
C1307 C 0.17097 0.61051 0.76779 0.0
C1308 C 0.17742 0.58735 0.76083 0.0
H1309 H 0.05678 0.70947 0.73365 0.0
H1310 H 0.07146 0.67074 0.74929 0.0
C1311 C 0.1998 0.57918 0.76875 0.0
C1312 C 0.14807 0.62024 0.7581 0.0
H1313 H 0.10865 0.66075 0.78368 0.0
C1314 C 0.14246 0.62038 0.72593 0.0
C1315 C 0.13406 0.63315 0.77942 0.0
C1316 C 0.1374 0.63155 0.81461 0.0
C1317 C 0.12545 0.63574 0.71412 0.0
C1318 C 0.11445 0.65169 0.73494 0.0
C1319 C 0.11759 0.64905 0.76752 0.0
C1320 C 0.10397 0.67378 0.72335 0.0
C1321 C 0.12057 0.6358 0.67919 0.0
C1322 C 0.11755 0.68847 0.70419 0.0
C1323 C 0.10936 0.71041 0.69537 0.0
C1324 C 0.08743 0.71847 0.70586 0.0
C1325 C 0.07377 0.70382 0.72522 0.0
C1326 C 0.08204 0.68164 0.73399 0.0
H1327 H 0.12142 0.61771 0.66959 0.0
H1328 H 0.10311 0.64335 0.67376 0.0
H1329 H 0.13421 0.64626 0.66697 0.0
H1330 H 0.13493 0.68325 0.69672 0.0
H1331 H 0.12048 0.72119 0.68062 0.0
H1332 H 0.41928 0.22235 0.74094 0.0
H1333 H 0.39632 0.1882 0.72426 0.0
H1334 H 0.39504 0.16312 0.82015 0.0
H1335 H 0.41684 0.19765 0.83709 0.0
H1336 H 0.39782 0.13971 0.72773 0.0
H1337 H 0.32657 0.1756 0.80284 0.0
H1338 H 0.35305 0.19167 0.79476 0.0
H1339 H 0.35289 0.16887 0.82405 0.0
C1340 C 0.41458 0.20922 0.75826 0.0
C1341 C 0.41947 0.21276 0.79033 0.0
C1342 C 0.40146 0.18977 0.74875 0.0
C1343 C 0.39343 0.17354 0.77117 0.0
C1344 C 0.4005 0.17581 0.80265 0.0
H1345 H 0.28153 0.06944 0.75279 0.0
H1346 H 0.31697 0.0893 0.77155 0.0
C1347 C 0.41308 0.19547 0.81226 0.0
C1348 C 0.37554 0.15596 0.76238 0.0
H1349 H 0.31878 0.14028 0.77647 0.0
C1350 C 0.38059 0.1397 0.73851 0.0
C1351 C 0.35299 0.15614 0.77636 0.0
C1352 C 0.34591 0.17413 0.80069 0.0
C1353 C 0.36358 0.12371 0.72809 0.0
C1354 C 0.34106 0.12412 0.7419 0.0
C1355 C 0.33621 0.13991 0.76627 0.0
C1356 C 0.32144 0.11012 0.72939 0.0
C1357 C 0.36963 0.10669 0.70218 0.0
C1358 C 0.31226 0.11546 0.69966 0.0
C1359 C 0.29192 0.10449 0.68909 0.0
C1360 C 0.28039 0.08786 0.70804 0.0
C1361 C 0.28997 0.08214 0.73761 0.0
C1362 C 0.31024 0.09337 0.74831 0.0
H1363 H 0.38888 0.10457 0.69956 0.0
H1364 H 0.36166 0.08928 0.70676 0.0
H1365 H 0.36255 0.11333 0.67952 0.0
H1366 H 0.32041 0.12871 0.68503 0.0
H1367 H 0.28512 0.1093 0.66616 0.0
H1368 H 0.86704 0.27142 0.70399 0.0
H1369 H 0.84977 0.30849 0.71926 0.0
H1370 H 0.91582 0.33107 0.75808 0.0
H1371 H 0.93356 0.29345 0.74284 0.0
H1372 H 0.87734 0.34066 0.7969 0.0
H1373 H 0.85975 0.37172 0.67635 0.0
H1374 H 0.84956 0.34222 0.68084 0.0
H1375 H 0.88038 0.34851 0.68464 0.0
C1376 C 0.87804 0.28416 0.71576 0.0
C1377 C 0.90179 0.2795 0.72193 0.0
C1378 C 0.86815 0.30549 0.72422 0.0
C1379 C 0.88172 0.3228 0.73882 0.0
C1380 C 0.9052 0.31803 0.74626 0.0
H1381 H 0.78403 0.44068 0.76317 0.0
H1382 H 0.82226 0.42318 0.75072 0.0
C1383 C 0.91523 0.29651 0.73776 0.0
C1384 C 0.87044 0.34522 0.74737 0.0
H1385 H 0.83165 0.38446 0.71673 0.0
C1386 C 0.86792 0.35077 0.77936 0.0
C1387 C 0.85874 0.35892 0.72447 0.0
C1388 C 0.86249 0.35518 0.68964 0.0
C1389 C 0.85176 0.36778 0.78915 0.0
C1390 C 0.8375 0.37896 0.76637 0.0
C1391 C 0.84217 0.3755 0.73427 0.0
C1392 C 0.81532 0.39066 0.77522 0.0
C1393 C 0.84919 0.37263 0.82392 0.0
C1394 C 0.79859 0.37795 0.79229 0.0
C1395 C 0.77691 0.38773 0.79924 0.0
C1396 C 0.77121 0.41046 0.78899 0.0
C1397 C 0.78784 0.42314 0.77139 0.0
C1398 C 0.80973 0.41325 0.76445 0.0
H1399 H 0.86631 0.37081 0.83615 0.0
H1400 H 0.84219 0.39048 0.82834 0.0
H1401 H 0.83703 0.35962 0.8344 0.0
H1402 H 0.80213 0.36016 0.79979 0.0
H1403 H 0.76456 0.37729 0.8126 0.0
H1404 H 0.71691 0.88674 0.74496 0.0
H1405 H 0.67657 0.87498 0.75551 0.0
H1406 H 0.65281 0.94503 0.73488 0.0
H1407 H 0.69367 0.9571 0.72487 0.0
H1408 H 0.63648 0.89865 0.79683 0.0
H1409 H 0.62522 0.89399 0.6665 0.0
H1410 H 0.65443 0.89253 0.68258 0.0
H1411 H 0.63804 0.91924 0.68549 0.0
C1412 C 0.70317 0.89981 0.74369 0.0
C1413 C 0.70823 0.92277 0.73428 0.0
C1414 C 0.68019 0.89312 0.74971 0.0
C1415 C 0.66183 0.90916 0.74588 0.0
C1416 C 0.66685 0.93251 0.73812 0.0
H1417 H 0.54434 0.81034 0.76737 0.0
H1418 H 0.55729 0.85097 0.7579 0.0
C1419 C 0.69009 0.93937 0.73257 0.0
C1420 C 0.63773 0.89989 0.7462 0.0
H1421 H 0.60379 0.86682 0.69736 0.0
C1422 C 0.6284 0.89263 0.77515 0.0
C1423 C 0.62736 0.8921 0.71782 0.0
C1424 C 0.63661 0.89986 0.68621 0.0
C1425 C 0.61085 0.87546 0.77637 0.0
C1426 C 0.60282 0.86532 0.74798 0.0
C1427 C 0.61002 0.87471 0.71905 0.0
C1428 C 0.59321 0.84136 0.74819 0.0
C1429 C 0.60315 0.86611 0.80797 0.0
C1430 C 0.60902 0.82274 0.74492 0.0
C1431 C 0.60183 0.79987 0.75063 0.0
C1432 C 0.5786 0.79517 0.75921 0.0
C1433 C 0.56229 0.81361 0.76035 0.0
C1434 C 0.56963 0.83672 0.75512 0.0
H1435 H 0.60894 0.87754 0.82768 0.0
H1436 H 0.58378 0.86451 0.80869 0.0
H1437 H 0.61064 0.84836 0.81155 0.0
H1438 H 0.62731 0.82607 0.73972 0.0
H1439 H 0.61469 0.78592 0.7497 0.0
H1440 H 0.01672 0.20155 0.37978 0.0
H1441 H 0.00069 0.20823 0.43247 0.0
H1442 H 0.00227 0.28286 0.41645 0.0
H1443 H 0.01861 0.27609 0.36342 0.0
H1444 H 0.02195 0.26786 0.47524 0.0
H1445 H 0.93414 0.22982 0.45525 0.0
H1446 H 0.95726 0.21077 0.44247 0.0
H1447 H 0.95313 0.23858 0.42329 0.0
C1448 C 0.01374 0.21936 0.38765 0.0
C1449 C 0.01942 0.23837 0.36826 0.0
C1450 C 0.00434 0.22316 0.41749 0.0
C1451 C 0.0001 0.24602 0.42812 0.0
C1452 C 0.00539 0.2651 0.40852 0.0
H1453 H 0.96285 0.27781 0.62563 0.0
H1454 H 0.97207 0.28386 0.56957 0.0
C1455 C 0.01469 0.26126 0.37844 0.0
C1456 C 0.99095 0.24963 0.46027 0.0
H1457 H 0.94709 0.23207 0.50895 0.0
C1458 C 0.0054 0.26045 0.48267 0.0
C1459 C 0.96923 0.24013 0.46967 0.0
C1460 C 0.95243 0.22938 0.44633 0.0
C1461 C -0.0005 0.26042 0.51479 0.0
C1462 C 0.97821 0.2499 0.5244 0.0
C1463 C 0.96326 0.24023 0.50163 0.0
C1464 C 0.97193 0.2469 0.558 0.0
C1465 C 0.01679 0.27028 0.5382 0.0
C1466 C 0.96811 0.22424 0.56979 0.0
C1467 C 0.96243 0.22089 0.60139 0.0
C1468 C 0.96022 0.24013 0.62164 0.0
C1469 C 0.96423 0.2628 0.61012 0.0
C1470 C 0.96966 0.26621 0.5783 0.0
H1471 H 0.03448 0.27251 0.52769 0.0
H1472 H 0.01064 0.28771 0.54622 0.0
H1473 H 0.01832 0.25873 0.55916 0.0
H1474 H 0.96982 0.20909 0.55459 0.0
H1475 H 0.96002 0.20322 0.61012 0.0
H1476 H 0.73714 0.99521 0.6388 0.0
H1477 H 0.73933 0.00863 0.58425 0.0
H1478 H 0.7971 0.96112 0.56792 0.0
H1479 H 0.79803 0.95237 0.62374 0.0
H1480 H 0.80595 0.99054 0.53495 0.0
H1481 H 0.71162 0.98479 0.51023 0.0
H1482 H 0.71554 0.00632 0.54028 0.0
H1483 H 0.72317 0.97603 0.54775 0.0
C1484 C 0.75019 0.98769 0.62328 0.0
C1485 C 0.76625 0.97117 0.6347 0.0
C1486 C 0.75118 0.99499 0.59181 0.0
C1487 C 0.76738 0.98492 0.5707 0.0
C1488 C 0.78398 0.96909 0.58288 0.0
H1489 H 0.7414 0.01146 0.37035 0.0
H1490 H 0.74135 0.99531 0.42357 0.0
C1491 C 0.78404 0.96325 0.61474 0.0
C1492 C 0.76809 0.99163 0.53655 0.0
H1493 H 0.73422 0.00814 0.4742 0.0
C1494 C 0.79004 0.99349 0.52162 0.0
C1495 C 0.74766 0.99546 0.51817 0.0
C1496 C 0.72324 0.99023 0.52993 0.0
C1497 C 0.79212 0.99841 0.48939 0.0
C1498 C 0.77191 0.00499 0.47206 0.0
C1499 C 0.74996 0.00348 0.48703 0.0
C1500 C 0.77295 0.01339 0.43866 0.0
C1501 C 0.81593 0.99507 0.47448 0.0
C1502 C 0.79102 0.02831 0.42836 0.0
C1503 C 0.7919 0.03598 0.39717 0.0
C1504 C 0.77345 0.03115 0.37651 0.0
C1505 C 0.7554 0.01622 0.38637 0.0
C1506 C 0.75531 0.00717 0.41697 0.0
H1507 H 0.82575 0.98081 0.48644 0.0
H1508 H 0.81464 0.99054 0.44911 0.0
H1509 H 0.82641 0.0113 0.47736 0.0
H1510 H 0.80445 0.03437 0.44431 0.0
H1511 H 0.80687 0.04602 0.38934 0.0
H1512 H 0.02468 0.73127 0.61613 0.0
H1513 H 0.01017 0.72775 0.56188 0.0
H1514 H 0.02513 0.80087 0.54612 0.0
H1515 H 0.03923 0.80446 0.60049 0.0
H1516 H 0.9716 0.75572 0.53971 0.0
H1517 H 0.05133 0.76775 0.46613 0.0
H1518 H 0.05246 0.75794 0.50653 0.0
H1519 H 0.04731 0.78833 0.49778 0.0
C1520 C 0.02538 0.74639 0.60073 0.0
C1521 C 0.03372 0.76794 0.61197 0.0
C1522 C 0.01708 0.74439 0.56989 0.0
C1523 C 0.01688 0.76396 0.54991 0.0
C1524 C 0.02564 0.78543 0.56093 0.0
H1525 H 0.94627 0.80284 0.37967 0.0
H1526 H 0.95952 0.79917 0.43446 0.0
C1527 C 0.03382 0.78744 0.59186 0.0
C1528 C 0.00529 0.76255 0.51877 0.0
H1529 H 0.01482 0.76865 0.43979 0.0
C1530 C 0.98109 0.75826 0.51783 0.0
C1531 C 0.01767 0.76606 0.49033 0.0
C1532 C 0.04369 0.77014 0.49 0.0
C1533 C 0.96889 0.7579 0.48913 0.0
C1534 C 0.98123 0.76184 0.46085 0.0
C1535 C 0.00546 0.76567 0.46168 0.0
C1536 C 0.96937 0.76275 0.43003 0.0
C1537 C 0.94281 0.75417 0.48923 0.0
C1538 C 0.97013 0.74332 0.40986 0.0
C1539 C 0.96218 0.74528 0.37883 0.0
C1540 C 0.95329 0.76665 0.36772 0.0
C1541 C 0.95211 0.78593 0.38817 0.0
C1542 C 0.95986 0.78392 0.41927 0.0
H1543 H 0.93651 0.74694 0.51201 0.0
H1544 H 0.9342 0.77133 0.48531 0.0
H1545 H 0.93753 0.7422 0.46989 0.0
H1546 H 0.97772 0.72696 0.41777 0.0
H1547 H 0.96372 0.73037 0.36317 0.0
H1548 H 0.20072 0.0182 0.61164 0.0
H1549 H 0.20638 0.00165 0.55895 0.0
H1550 H 0.28088 0.99799 0.57534 0.0
H1551 H 0.27516 0.0147 0.62835 0.0
H1552 H 0.26661 0.01959 0.51663 0.0
H1553 H 0.22433 0.93347 0.53555 0.0
H1554 H 0.20697 0.95778 0.54882 0.0
H1555 H 0.2345 0.95161 0.56768 0.0
C1556 C 0.21829 0.01393 0.60385 0.0
C1557 C 0.23761 0.01825 0.62335 0.0
C1558 C 0.22148 0.00424 0.57402 0.0
C1559 C 0.24402 0.99841 0.56346 0.0
C1560 C 0.26336 0.00232 0.5832 0.0
H1561 H 0.27897 0.96228 0.36692 0.0
H1562 H 0.28337 0.97117 0.42329 0.0
C1563 C 0.26012 0.01185 0.61327 0.0
C1564 C 0.24718 0.98927 0.5312 0.0
H1565 H 0.22908 0.94575 0.48218 0.0
C1566 C 0.25872 0.00332 0.50903 0.0
C1567 C 0.23697 0.96793 0.52157 0.0
C1568 C 0.22518 0.95169 0.5447 0.0
C1569 C 0.25894 0.99742 0.47693 0.0
C1570 C 0.24816 0.97631 0.46706 0.0
C1571 C 0.23752 0.96178 0.48963 0.0
C1572 C 0.24617 0.9697 0.43336 0.0
C1573 C 0.26942 0.01462 0.45388 0.0
C1574 C 0.22398 0.96496 0.42057 0.0
C1575 C 0.22162 0.9592 0.38882 0.0
C1576 C 0.24138 0.95803 0.36932 0.0
C1577 C 0.26356 0.96291 0.38181 0.0
C1578 C 0.26602 0.96821 0.41383 0.0
H1579 H 0.27083 0.03247 0.46417 0.0
H1580 H 0.28734 0.00881 0.44747 0.0
H1581 H 0.25879 0.01573 0.43202 0.0
H1582 H 0.2084 0.96602 0.43508 0.0
H1583 H 0.20428 0.95598 0.37937 0.0
H1584 H 0.53805 0.70524 0.86961 0.0
H1585 H 0.52856 0.70714 0.92576 0.0
H1586 H 0.51598 0.78147 0.91718 0.0
H1587 H 0.52404 0.77911 0.86043 0.0
H1588 H 0.5474 0.72749 0.97258 0.0
H1589 H 0.45789 0.76373 0.96132 0.0
H1590 H 0.47443 0.75396 0.92764 0.0
H1591 H 0.47929 0.78271 0.94395 0.0
C1592 C 0.53322 0.72194 0.87986 0.0
C1593 C 0.53207 0.74212 0.86115 0.0
C1594 C 0.52778 0.72304 0.91187 0.0
C1595 C 0.52113 0.74438 0.92573 0.0
C1596 C 0.52031 0.76466 0.90694 0.0
H1597 H 0.49417 0.77494 0.12551 0.0
H1598 H 0.50541 0.77885 0.06964 0.0
C1599 C 0.52518 0.76341 0.87468 0.0
C1600 C 0.51545 0.74524 0.95989 0.0
H1601 H 0.47377 0.76207 0.01295 0.0
C1602 C 0.53138 0.73526 0.98128 0.0
C1603 C 0.49424 0.75489 0.97144 0.0
C1604 C 0.47539 0.76419 0.94986 0.0
C1605 C 0.52681 0.73478 0.01371 0.0
C1606 C 0.50574 0.74447 0.02509 0.0
C1607 C 0.48995 0.75479 0.00401 0.0
C1608 C 0.49904 0.74242 0.05853 0.0
C1609 C 0.5444 0.72373 0.03567 0.0
C1610 C 0.49174 0.72071 0.07041 0.0
C1611 C 0.48513 0.71856 0.10191 0.0
C1612 C 0.48552 0.73814 0.12184 0.0
C1613 C 0.49337 0.75976 0.11022 0.0
C1614 C 0.49976 0.76198 0.07852 0.0
H1615 H 0.56158 0.7208 0.02398 0.0
H1616 H 0.54709 0.73491 0.05677 0.0
H1617 H 0.5376 0.70656 0.04382 0.0
H1618 H 0.49106 0.70546 0.05523 0.0
H1619 H 0.47973 0.70159 0.11074 0.0
H1620 H 0.22442 0.54038 0.87889 0.0
H1621 H 0.21891 0.5306 0.93471 0.0
H1622 H 0.29347 0.5365 0.9496 0.0
H1623 H 0.2988 0.54684 0.89413 0.0
H1624 H 0.23588 0.4925 0.96188 0.0
H1625 H 0.27037 0.56902 0.02733 0.0
H1626 H 0.26021 0.57064 0.98717 0.0
H1627 H 0.28924 0.55999 0.99576 0.0
C1628 C 0.23946 0.54025 0.89445 0.0
C1629 C 0.26192 0.54498 0.88269 0.0
C1630 C 0.23634 0.53465 0.92622 0.0
C1631 C 0.2557 0.53325 0.94654 0.0
C1632 C 0.27815 0.53827 0.93474 0.0
H1633 H 0.2964 0.46759 0.1166 0.0
H1634 H 0.29076 0.48177 0.06262 0.0
C1635 C 0.28123 0.54411 0.90306 0.0
C1636 C 0.25291 0.52376 0.97886 0.0
H1637 H 0.26872 0.53286 0.05547 0.0
C1638 C 0.2426 0.50157 0.98244 0.0
C1639 C 0.2616 0.53557 0.00573 0.0
C1640 C 0.27079 0.56023 0.00397 0.0
C1641 C 0.24179 0.49048 0.01191 0.0
C1642 C 0.25193 0.50167 0.0382 0.0
C1643 C 0.26136 0.52419 0.03498 0.0
C1644 C 0.25408 0.48999 0.06903 0.0
C1645 C 0.23133 0.46638 0.01448 0.0
C1646 C 0.23522 0.48973 0.09018 0.0
C1647 C 0.23838 0.48146 0.1209 0.0
C1648 C 0.26035 0.47311 0.13058 0.0
C1649 C 0.2791 0.47311 0.10922 0.0
C1650 C 0.27594 0.48135 0.07857 0.0
H1651 H 0.22187 0.46114 0.99271 0.0
H1652 H 0.24564 0.45368 0.01874 0.0
H1653 H 0.21905 0.46547 0.03472 0.0
H1654 H 0.21834 0.49671 0.08326 0.0
H1655 H 0.22386 0.48206 0.13733 0.0
H1656 H 0.50581 0.23771 0.13298 0.0
H1657 H 0.49694 0.24053 0.07689 0.0
H1658 H 0.54768 0.29644 0.06803 0.0
H1659 H 0.55209 0.29681 0.12487 0.0
H1660 H 0.52237 0.30575 0.02969 0.0
H1661 H 0.52643 0.21109 0.00803 0.0
H1662 H 0.50244 0.2158 0.03423 0.0
H1663 H 0.53202 0.22267 0.0466 0.0
C1664 C 0.51498 0.25055 0.11881 0.0
C1665 C 0.53121 0.26582 0.13265 0.0
C1666 C 0.51032 0.25185 0.08651 0.0
C1667 C 0.52281 0.26752 0.06708 0.0
C1668 C 0.53801 0.28366 0.08165 0.0
H1669 H 0.50167 0.23944 0.86566 0.0
H1670 H 0.51956 0.24033 0.91805 0.0
C1671 C 0.54129 0.28342 0.11419 0.0
C1672 C 0.5193 0.26799 0.03209 0.0
H1673 H 0.50577 0.23381 0.96877 0.0
C1674 C 0.5196 0.28975 0.01648 0.0
C1675 C 0.51611 0.24742 0.01373 0.0
C1676 C 0.51957 0.223 0.02657 0.0
C1677 C 0.51671 0.29152 0.98378 0.0
C1678 C 0.51023 0.27135 0.96633 0.0
C1679 C 0.51026 0.24954 0.98174 0.0
C1680 C 0.50232 0.27247 0.93279 0.0
C1681 C 0.52168 0.31494 0.96864 0.0
C1682 C 0.48757 0.29066 0.92254 0.0
C1683 C 0.47861 0.29076 0.89203 0.0
C1684 C 0.48238 0.27169 0.87199 0.0
C1685 C 0.49778 0.2539 0.88133 0.0
C1686 C 0.50784 0.25439 0.91139 0.0
H1687 H 0.53627 0.32397 0.981 0.0
H1688 H 0.52654 0.31319 0.94342 0.0
H1689 H 0.50605 0.32638 0.97089 0.0
H1690 H 0.48211 0.30448 0.93829 0.0
H1691 H 0.46796 0.30541 0.8845 0.0
H1692 H 0.69007 0.46792 0.8933 0.0
H1693 H 0.69702 0.47503 0.94953 0.0
H1694 H 0.77164 0.47344 0.93316 0.0
H1695 H 0.76458 0.46707 0.87674 0.0
H1696 H 0.71915 0.44853 0.99252 0.0
H1697 H 0.76512 0.53371 0.98118 0.0
H1698 H 0.75001 0.5202 0.94857 0.0
H1699 H 0.77878 0.51035 0.95968 0.0
C1700 C 0.70791 0.46897 0.9019 0.0
C1701 C 0.72684 0.46637 0.8812 0.0
C1702 C 0.71188 0.47314 0.93387 0.0
C1703 C 0.73485 0.47501 0.94549 0.0
C1704 C 0.75379 0.47254 0.92464 0.0
H1705 H 0.77841 0.50104 0.14173 0.0
H1706 H 0.77959 0.48892 0.08595 0.0
C1707 C 0.74978 0.46869 0.89258 0.0
C1708 C 0.7388 0.47917 0.97953 0.0
H1709 H 0.76306 0.51723 0.03221 0.0
C1710 C 0.72876 0.46352 0.00115 0.0
C1711 C 0.7515 0.49875 0.99081 0.0
C1712 C 0.7618 0.51685 0.96889 0.0
C1713 C 0.7306 0.46713 0.0337 0.0
C1714 C 0.74277 0.48698 0.04489 0.0
C1715 C 0.75366 0.50212 0.02344 0.0
C1716 C 0.74237 0.49352 0.07853 0.0
C1717 C 0.71931 0.44984 0.05587 0.0
C1718 C 0.72113 0.50017 0.09246 0.0
C1719 C 0.72052 0.50726 0.12386 0.0
C1720 C 0.74118 0.50809 0.14166 0.0
C1721 C 0.76238 0.50085 0.12809 0.0
C1722 C 0.76304 0.49395 0.09644 0.0
H1723 H 0.71625 0.43266 0.04427 0.0
H1724 H 0.73031 0.44709 0.07713 0.0
H1725 H 0.70211 0.45682 0.06362 0.0
H1726 H 0.70505 0.5002 0.07889 0.0
H1727 H 0.7039 0.51225 0.13422 0.0
loop_
_geom_bond_atom_site_label_1
_geom_bond_atom_site_label_2
_geom_bond_distance
_geom_bond_site_symmetry_2
_ccdc_geom_bond_type
Mn0 O5 2.095 . S
Mn0 O15 2.162 1_455 S
Mn0 O16 2.273 1_455 S
Mn0 O24 2.385 . S
Mn0 O25 2.209 . S
Mn0 O26 2.094 . S
Mn1 O6 2.121 . S
Mn1 N8 2.257 . S
Mn1 N17 2.282 . S
Mn1 O25 2.215 . S
Mn1 O27 2.117 . S
C2 O24 1.234 . S
C2 O25 1.283 . S
C3 O15 1.281 . S
C3 O16 1.255 . S
C4 O26 1.240 . S
C4 O27 1.264 . S
O5 Mn0 2.095 . S
O5 C14 1.250 . S
O6 Mn1 2.121 . S
O6 C14 1.258 . S
C7 N8 1.326 . S
C7 C11 1.460 . S
C7 H13 0.929 . S
N8 Mn1 2.257 . S
N8 C7 1.326 . S
N8 C12 1.362 . S
C9 C10 1.258 . S
C9 C12 1.431 . S
C9 C29 1.449 . S
C10 C9 1.258 . S
C10 C11 1.477 . S
C10 H30 0.931 . S
C11 C7 1.460 . S
C11 C10 1.477 . S
C11 H31 0.930 . S
C12 N8 1.362 . S
C12 C9 1.431 . S
C12 C22 1.476 . S
H13 C7 0.929 . S
C14 O5 1.250 . S
C14 O6 1.258 . S
O15 Mn0 2.162 1_655 S
O15 C3 1.281 . S
O16 Mn0 2.273 1_655 S
O16 C3 1.255 . S
N17 Mn1 2.282 . S
N17 C18 1.328 . S
N17 C22 1.318 . S
C18 N17 1.328 . S
C18 C19 1.457 . S
C18 H23 0.929 . S
C19 C18 1.457 . S
C19 C20 1.291 . S
C19 H32 0.931 . S
C20 C19 1.291 . S
C20 C21 1.373 . S
C20 H33 0.929 . S
C21 C20 1.373 . S
C21 C22 1.396 . S
C21 C28 1.403 . S
C22 C12 1.476 . S
C22 N17 1.318 . S
C22 C21 1.396 . S
H23 C18 0.929 . S
O24 Mn0 2.385 . S
O24 C2 1.234 . S
O25 Mn0 2.209 . S
O25 Mn1 2.215 . S
O25 C2 1.283 . S
O26 Mn0 2.094 . S
O26 C4 1.240 . S
O27 Mn1 2.117 . S
O27 C4 1.264 . S
C28 C21 1.403 . S
C28 C29 1.399 . S
C28 H34 0.929 . S
C29 C9 1.449 . S
C29 C28 1.399 . S
C29 H35 0.930 . S
H30 C10 0.931 . S
H31 C11 0.930 . S
H32 C19 0.931 . S
H33 C20 0.929 . S
H34 C28 0.929 . S
H35 C29 0.930 . S
Mn36 O41 2.095 . S
Mn36 O51 2.162 1_545 S
Mn36 O52 2.273 1_545 S
Mn36 O60 2.385 . S
Mn36 O61 2.209 . S
Mn36 O62 2.094 . S
Mn37 O42 2.121 . S
Mn37 N44 2.257 . S
Mn37 N53 2.282 . S
Mn37 O61 2.215 . S
Mn37 O63 2.117 . S
C38 O60 1.234 . S
C38 O61 1.283 . S
C39 O51 1.281 . S
C39 O52 1.255 . S
C40 O62 1.240 . S
C40 O63 1.264 . S
O41 Mn36 2.095 . S
O41 C50 1.250 . S
O42 Mn37 2.121 . S
O42 C50 1.258 . S
C43 N44 1.326 . S
C43 C47 1.460 . S
C43 H49 0.929 . S
N44 Mn37 2.257 . S
N44 C43 1.326 . S
N44 C48 1.362 . S
C45 C46 1.258 . S
C45 C48 1.431 . S
C45 C65 1.449 . S
C46 C45 1.258 . S
C46 C47 1.477 . S
C46 H66 0.931 . S
C47 C43 1.460 . S
C47 C46 1.477 . S
C47 H67 0.930 . S
C48 N44 1.362 . S
C48 C45 1.431 . S
C48 C58 1.476 . S
H49 C43 0.929 . S
C50 O41 1.250 . S
C50 O42 1.258 . S
O51 Mn36 2.162 1_565 S
O51 C39 1.281 . S
O52 Mn36 2.273 1_565 S
O52 C39 1.255 . S
N53 Mn37 2.282 . S
N53 C54 1.328 . S
N53 C58 1.318 . S
C54 N53 1.328 . S
C54 C55 1.457 . S
C54 H59 0.929 . S
C55 C54 1.457 . S
C55 C56 1.291 . S
C55 H68 0.931 . S
C56 C55 1.291 . S
C56 C57 1.373 . S
C56 H69 0.929 . S
C57 C56 1.373 . S
C57 C58 1.396 . S
C57 C64 1.403 . S
C58 C48 1.476 . S
C58 N53 1.318 . S
C58 C57 1.396 . S
H59 C54 0.929 . S
O60 Mn36 2.385 . S
O60 C38 1.234 . S
O61 Mn36 2.209 . S
O61 Mn37 2.215 . S
O61 C38 1.283 . S
O62 Mn36 2.094 . S
O62 C40 1.240 . S
O63 Mn37 2.117 . S
O63 C40 1.264 . S
C64 C57 1.403 . S
C64 C65 1.399 . S
C64 H70 0.929 . S
C65 C45 1.449 . S
C65 C64 1.399 . S
C65 H71 0.930 . S
H66 C46 0.931 . S
H67 C47 0.930 . S
H68 C55 0.931 . S
H69 C56 0.929 . S
H70 C64 0.929 . S
H71 C65 0.930 . S
Mn72 O77 2.095 . S
Mn72 O87 2.162 1_655 S
Mn72 O88 2.273 1_655 S
Mn72 O96 2.385 . S
Mn72 O97 2.209 . S
Mn72 O98 2.094 . S
Mn73 O78 2.121 . S
Mn73 N80 2.257 . S
Mn73 N89 2.282 . S
Mn73 O97 2.215 . S
Mn73 O99 2.117 . S
C74 O96 1.234 . S
C74 O97 1.283 . S
C75 O87 1.281 . S
C75 O88 1.255 . S
C76 O98 1.240 . S
C76 O99 1.264 . S
O77 Mn72 2.095 . S
O77 C86 1.250 . S
O78 Mn73 2.121 . S
O78 C86 1.258 . S
C79 N80 1.326 . S
C79 C83 1.460 . S
C79 H85 0.929 . S
N80 Mn73 2.257 . S
N80 C79 1.326 . S
N80 C84 1.362 . S
C81 C82 1.258 . S
C81 C84 1.431 . S
C81 C101 1.449 . S
C82 C81 1.258 . S
C82 C83 1.477 . S
C82 H102 0.931 . S
C83 C79 1.460 . S
C83 C82 1.477 . S
C83 H103 0.930 . S
C84 N80 1.362 . S
C84 C81 1.431 . S
C84 C94 1.476 . S
H85 C79 0.929 . S
C86 O77 1.250 . S
C86 O78 1.258 . S
O87 Mn72 2.162 1_455 S
O87 C75 1.281 . S
O88 Mn72 2.273 1_455 S
O88 C75 1.255 . S
N89 Mn73 2.282 . S
N89 C90 1.328 . S
N89 C94 1.318 . S
C90 N89 1.328 . S
C90 C91 1.457 . S
C90 H95 0.929 . S
C91 C90 1.457 . S
C91 C92 1.291 . S
C91 H104 0.931 . S
C92 C91 1.291 . S
C92 C93 1.373 . S
C92 H105 0.929 . S
C93 C92 1.373 . S
C93 C94 1.396 . S
C93 C100 1.403 . S
C94 C84 1.476 . S
C94 N89 1.318 . S
C94 C93 1.396 . S
H95 C90 0.929 . S
O96 Mn72 2.385 . S
O96 C74 1.234 . S
O97 Mn72 2.209 . S
O97 Mn73 2.215 . S
O97 C74 1.283 . S
O98 Mn72 2.094 . S
O98 C76 1.240 . S
O99 Mn73 2.117 . S
O99 C76 1.264 . S
C100 C93 1.403 . S
C100 C101 1.399 . S
C100 H106 0.929 . S
C101 C81 1.449 . S
C101 C100 1.399 . S
C101 H107 0.930 . S
H102 C82 0.931 . S
H103 C83 0.930 . S
H104 C91 0.931 . S
H105 C92 0.929 . S
H106 C100 0.929 . S
H107 C101 0.930 . S
Mn108 O113 2.095 . S
Mn108 O123 2.162 1_565 S
Mn108 O124 2.273 1_565 S
Mn108 O132 2.385 . S
Mn108 O133 2.209 . S
Mn108 O134 2.094 . S
Mn109 O114 2.121 . S
Mn109 N116 2.257 . S
Mn109 N125 2.282 . S
Mn109 O133 2.215 . S
Mn109 O135 2.117 . S
C110 O132 1.234 . S
C110 O133 1.283 . S
C111 O123 1.281 . S
C111 O124 1.255 . S
C112 O134 1.240 . S
C112 O135 1.264 . S
O113 Mn108 2.095 . S
O113 C122 1.250 . S
O114 Mn109 2.121 . S
O114 C122 1.258 . S
C115 N116 1.326 . S
C115 C119 1.460 . S
C115 H121 0.929 . S
N116 Mn109 2.257 . S
N116 C115 1.326 . S
N116 C120 1.362 . S
C117 C118 1.258 . S
C117 C120 1.431 . S
C117 C137 1.449 . S
C118 C117 1.258 . S
C118 C119 1.477 . S
C118 H138 0.931 . S
C119 C115 1.460 . S
C119 C118 1.477 . S
C119 H139 0.930 . S
C120 N116 1.362 . S
C120 C117 1.431 . S
C120 C130 1.476 . S
H121 C115 0.929 . S
C122 O113 1.250 . S
C122 O114 1.258 . S
O123 Mn108 2.162 1_545 S
O123 C111 1.281 . S
O124 Mn108 2.273 1_545 S
O124 C111 1.255 . S
N125 Mn109 2.282 . S
N125 C126 1.328 . S
N125 C130 1.318 . S
C126 N125 1.328 . S
C126 C127 1.457 . S
C126 H131 0.929 . S
C127 C126 1.457 . S
C127 C128 1.291 . S
C127 H140 0.931 . S
C128 C127 1.291 . S
C128 C129 1.373 . S
C128 H141 0.929 . S
C129 C128 1.373 . S
C129 C130 1.396 . S
C129 C136 1.403 . S
C130 C120 1.476 . S
C130 N125 1.318 . S
C130 C129 1.396 . S
H131 C126 0.929 . S
O132 Mn108 2.385 . S
O132 C110 1.234 . S
O133 Mn108 2.209 . S
O133 Mn109 2.215 . S
O133 C110 1.283 . S
O134 Mn108 2.094 . S
O134 C112 1.240 . S
O135 Mn109 2.117 . S
O135 C112 1.264 . S
C136 C129 1.403 . S
C136 C137 1.399 . S
C136 H142 0.929 . S
C137 C117 1.449 . S
C137 C136 1.399 . S
C137 H143 0.930 . S
H138 C118 0.931 . S
H139 C119 0.930 . S
H140 C127 0.931 . S
H141 C128 0.929 . S
H142 C136 0.929 . S
H143 C137 0.930 . S
Mn144 O149 2.095 . S
Mn144 O159 2.162 1_455 S
Mn144 O160 2.273 1_455 S
Mn144 O168 2.385 . S
Mn144 O169 2.209 . S
Mn144 O170 2.094 . S
Mn145 O150 2.121 . S
Mn145 N152 2.257 . S
Mn145 N161 2.282 . S
Mn145 O169 2.215 . S
Mn145 O171 2.117 . S
C146 O168 1.234 . S
C146 O169 1.283 . S
C147 O159 1.281 . S
C147 O160 1.255 . S
C148 O170 1.240 . S
C148 O171 1.264 . S
O149 Mn144 2.095 . S
O149 C158 1.250 . S
O150 Mn145 2.121 . S
O150 C158 1.258 . S
C151 N152 1.326 . S
C151 C155 1.460 . S
C151 H157 0.929 . S
N152 Mn145 2.257 . S
N152 C151 1.326 . S
N152 C156 1.362 . S
C153 C154 1.258 . S
C153 C156 1.431 . S
C153 C173 1.449 . S
C154 C153 1.258 . S
C154 C155 1.477 . S
C154 H174 0.931 . S
C155 C151 1.460 . S
C155 C154 1.477 . S
C155 H175 0.930 . S
C156 N152 1.362 . S
C156 C153 1.431 . S
C156 C166 1.476 . S
H157 C151 0.929 . S
C158 O149 1.250 . S
C158 O150 1.258 . S
O159 Mn144 2.162 1_655 S
O159 C147 1.281 . S
O160 Mn144 2.273 1_655 S
O160 C147 1.255 . S
N161 Mn145 2.282 . S
N161 C162 1.328 . S
N161 C166 1.318 . S
C162 N161 1.328 . S
C162 C163 1.457 . S
C162 H167 0.929 . S
C163 C162 1.457 . S
C163 C164 1.291 . S
C163 H176 0.931 . S
C164 C163 1.291 . S
C164 C165 1.373 . S
C164 H177 0.929 . S
C165 C164 1.373 . S
C165 C166 1.396 . S
C165 C172 1.403 . S
C166 C156 1.476 . S
C166 N161 1.318 . S
C166 C165 1.396 . S
H167 C162 0.929 . S
O168 Mn144 2.385 . S
O168 C146 1.234 . S
O169 Mn144 2.209 . S
O169 Mn145 2.215 . S
O169 C146 1.283 . S
O170 Mn144 2.094 . S
O170 C148 1.240 . S
O171 Mn145 2.117 . S
O171 C148 1.264 . S
C172 C165 1.403 . S
C172 C173 1.399 . S
C172 H178 0.929 . S
C173 C153 1.449 . S
C173 C172 1.399 . S
C173 H179 0.930 . S
H174 C154 0.931 . S
H175 C155 0.930 . S
H176 C163 0.931 . S
H177 C164 0.929 . S
H178 C172 0.929 . S
H179 C173 0.930 . S
Mn180 O185 2.095 . S
Mn180 O195 2.162 1_545 S
Mn180 O196 2.273 1_545 S
Mn180 O204 2.385 . S
Mn180 O205 2.209 . S
Mn180 O206 2.094 . S
Mn181 O186 2.121 . S
Mn181 N188 2.257 . S
Mn181 N197 2.282 . S
Mn181 O205 2.215 . S
Mn181 O207 2.117 . S
C182 O204 1.234 . S
C182 O205 1.283 . S
C183 O195 1.281 . S
C183 O196 1.255 . S
C184 O206 1.240 . S
C184 O207 1.264 . S
O185 Mn180 2.095 . S
O185 C194 1.250 . S
O186 Mn181 2.121 . S
O186 C194 1.258 . S
C187 N188 1.326 . S
C187 C191 1.460 . S
C187 H193 0.929 . S
N188 Mn181 2.257 . S
N188 C187 1.326 . S
N188 C192 1.362 . S
C189 C190 1.258 . S
C189 C192 1.431 . S
C189 C209 1.449 . S
C190 C189 1.258 . S
C190 C191 1.477 . S
C190 H210 0.931 . S
C191 C187 1.460 . S
C191 C190 1.477 . S
C191 H211 0.930 . S
C192 N188 1.362 . S
C192 C189 1.431 . S
C192 C202 1.476 . S
H193 C187 0.929 . S
C194 O185 1.250 . S
C194 O186 1.258 . S
O195 Mn180 2.162 1_565 S
O195 C183 1.281 . S
O196 Mn180 2.273 1_565 S
O196 C183 1.255 . S
N197 Mn181 2.282 . S
N197 C198 1.328 . S
N197 C202 1.318 . S
C198 N197 1.328 . S
C198 C199 1.457 . S
C198 H203 0.929 . S
C199 C198 1.457 . S
C199 C200 1.291 . S
C199 H212 0.931 . S
C200 C199 1.291 . S
C200 C201 1.373 . S
C200 H213 0.929 . S
C201 C200 1.373 . S
C201 C202 1.396 . S
C201 C208 1.403 . S
C202 C192 1.476 . S
C202 N197 1.318 . S
C202 C201 1.396 . S
H203 C198 0.929 . S
O204 Mn180 2.385 . S
O204 C182 1.234 . S
O205 Mn180 2.209 . S
O205 Mn181 2.215 . S
O205 C182 1.283 . S
O206 Mn180 2.094 . S
O206 C184 1.240 . S
O207 Mn181 2.117 . S
O207 C184 1.264 . S
C208 C201 1.403 . S
C208 C209 1.399 . S
C208 H214 0.929 . S
C209 C189 1.449 . S
C209 C208 1.399 . S
C209 H215 0.930 . S
H210 C190 0.931 . S
H211 C191 0.930 . S
H212 C199 0.931 . S
H213 C200 0.929 . S
H214 C208 0.929 . S
H215 C209 0.930 . S
Mn216 O221 2.095 . S
Mn216 O231 2.162 1_655 S
Mn216 O232 2.273 1_655 S
Mn216 O240 2.385 . S
Mn216 O241 2.209 . S
Mn216 O242 2.094 . S
Mn217 O222 2.121 . S
Mn217 N224 2.257 . S
Mn217 N233 2.282 . S
Mn217 O241 2.215 . S
Mn217 O243 2.117 . S
C218 O240 1.234 . S
C218 O241 1.283 . S
C219 O231 1.281 . S
C219 O232 1.255 . S
C220 O242 1.240 . S
C220 O243 1.264 . S
O221 Mn216 2.095 . S
O221 C230 1.250 . S
O222 Mn217 2.121 . S
O222 C230 1.258 . S
C223 N224 1.326 . S
C223 C227 1.460 . S
C223 H229 0.929 . S
N224 Mn217 2.257 . S
N224 C223 1.326 . S
N224 C228 1.362 . S
C225 C226 1.258 . S
C225 C228 1.431 . S
C225 C245 1.449 . S
C226 C225 1.258 . S
C226 C227 1.477 . S
C226 H246 0.931 . S
C227 C223 1.460 . S
C227 C226 1.477 . S
C227 H247 0.930 . S
C228 N224 1.362 . S
C228 C225 1.431 . S
C228 C238 1.476 . S
H229 C223 0.929 . S
C230 O221 1.250 . S
C230 O222 1.258 . S
O231 Mn216 2.162 1_455 S
O231 C219 1.281 . S
O232 Mn216 2.273 1_455 S
O232 C219 1.255 . S
N233 Mn217 2.282 . S
N233 C234 1.328 . S
N233 C238 1.318 . S
C234 N233 1.328 . S
C234 C235 1.457 . S
C234 H239 0.929 . S
C235 C234 1.457 . S
C235 C236 1.291 . S
C235 H248 0.931 . S
C236 C235 1.291 . S
C236 C237 1.373 . S
C236 H249 0.929 . S
C237 C236 1.373 . S
C237 C238 1.396 . S
C237 C244 1.403 . S
C238 C228 1.476 . S
C238 N233 1.318 . S
C238 C237 1.396 . S
H239 C234 0.929 . S
O240 Mn216 2.385 . S
O240 C218 1.234 . S
O241 Mn216 2.209 . S
O241 Mn217 2.215 . S
O241 C218 1.283 . S
O242 Mn216 2.094 . S
O242 C220 1.240 . S
O243 Mn217 2.117 . S
O243 C220 1.264 . S
C244 C237 1.403 . S
C244 C245 1.399 . S
C244 H250 0.929 . S
C245 C225 1.449 . S
C245 C244 1.399 . S
C245 H251 0.930 . S
H246 C226 0.931 . S
H247 C227 0.930 . S
H248 C235 0.931 . S
H249 C236 0.929 . S
H250 C244 0.929 . S
H251 C245 0.930 . S
Mn252 O257 2.095 . S
Mn252 O267 2.162 1_565 S
Mn252 O268 2.273 1_565 S
Mn252 O276 2.385 . S
Mn252 O277 2.209 . S
Mn252 O278 2.094 . S
Mn253 O258 2.121 . S
Mn253 N260 2.257 . S
Mn253 N269 2.282 . S
Mn253 O277 2.215 . S
Mn253 O279 2.117 . S
C254 O276 1.234 . S
C254 O277 1.283 . S
C255 O267 1.281 . S
C255 O268 1.255 . S
C256 O278 1.240 . S
C256 O279 1.264 . S
O257 Mn252 2.095 . S
O257 C266 1.250 . S
O258 Mn253 2.121 . S
O258 C266 1.258 . S
C259 N260 1.326 . S
C259 C263 1.460 . S
C259 H265 0.929 . S
N260 Mn253 2.257 . S
N260 C259 1.326 . S
N260 C264 1.362 . S
C261 C262 1.258 . S
C261 C264 1.431 . S
C261 C281 1.449 . S
C262 C261 1.258 . S
C262 C263 1.477 . S
C262 H282 0.931 . S
C263 C259 1.460 . S
C263 C262 1.477 . S
C263 H283 0.930 . S
C264 N260 1.362 . S
C264 C261 1.431 . S
C264 C274 1.476 . S
H265 C259 0.929 . S
C266 O257 1.250 . S
C266 O258 1.258 . S
O267 Mn252 2.162 1_545 S
O267 C255 1.281 . S
O268 Mn252 2.273 1_545 S
O268 C255 1.255 . S
N269 Mn253 2.282 . S
N269 C270 1.328 . S
N269 C274 1.318 . S
C270 N269 1.328 . S
C270 C271 1.457 . S
C270 H275 0.929 . S
C271 C270 1.457 . S
C271 C272 1.291 . S
C271 H284 0.931 . S
C272 C271 1.291 . S
C272 C273 1.373 . S
C272 H285 0.929 . S
C273 C272 1.373 . S
C273 C274 1.396 . S
C273 C280 1.403 . S
C274 C264 1.476 . S
C274 N269 1.318 . S
C274 C273 1.396 . S
H275 C270 0.929 . S
O276 Mn252 2.385 . S
O276 C254 1.234 . S
O277 Mn252 2.209 . S
O277 Mn253 2.215 . S
O277 C254 1.283 . S
O278 Mn252 2.094 . S
O278 C256 1.240 . S
O279 Mn253 2.117 . S
O279 C256 1.264 . S
C280 C273 1.403 . S
C280 C281 1.399 . S
C280 H286 0.929 . S
C281 C261 1.449 . S
C281 C280 1.399 . S
C281 H287 0.930 . S
H282 C262 0.931 . S
H283 C263 0.930 . S
H284 C271 0.931 . S
H285 C272 0.929 . S
H286 C280 0.929 . S
H287 C281 0.930 . S
Mn288 O293 2.095 . S
Mn288 O303 2.162 . S
Mn288 O304 2.297 . S
Mn288 O312 2.385 . S
Mn288 O313 2.209 . S
Mn288 O314 2.094 . S
Mn289 O294 2.121 . S
Mn289 N296 2.257 . S
Mn289 N305 2.282 . S
Mn289 O313 2.215 . S
Mn289 O315 2.117 . S
C290 O312 1.234 . S
C290 O313 1.283 . S
C291 O303 1.281 . S
C291 O304 1.236 . S
C292 O314 1.240 . S
C292 O315 1.264 . S
O293 Mn288 2.095 . S
O293 C302 1.250 . S
O294 Mn289 2.121 . S
O294 C302 1.258 . S
C295 N296 1.326 . S
C295 C299 1.460 . S
C295 H301 0.929 . S
N296 Mn289 2.257 . S
N296 C295 1.326 . S
N296 C300 1.362 . S
C297 C298 1.258 . S
C297 C300 1.431 . S
C297 C317 1.449 . S
C298 C297 1.258 . S
C298 C299 1.477 . S
C298 H318 0.931 . S
C299 C295 1.460 . S
C299 C298 1.477 . S
C299 H319 0.930 . S
C300 N296 1.362 . S
C300 C297 1.431 . S
C300 C310 1.476 . S
H301 C295 0.929 . S
C302 O293 1.250 . S
C302 O294 1.258 . S
O303 Mn288 2.162 . S
O303 C291 1.281 . S
O304 Mn288 2.297 . S
O304 C291 1.236 . S
N305 Mn289 2.282 . S
N305 C306 1.328 . S
N305 C310 1.318 . S
C306 N305 1.328 . S
C306 C307 1.457 . S
C306 H311 0.929 . S
C307 C306 1.457 . S
C307 C308 1.291 . S
C307 H320 0.931 . S
C308 C307 1.291 . S
C308 C309 1.373 . S
C308 H321 0.929 . S
C309 C308 1.373 . S
C309 C310 1.396 . S
C309 C316 1.403 . S
C310 C300 1.476 . S
C310 N305 1.318 . S
C310 C309 1.396 . S
H311 C306 0.929 . S
O312 Mn288 2.385 . S
O312 C290 1.234 . S
O313 Mn288 2.209 . S
O313 Mn289 2.215 . S
O313 C290 1.283 . S
O314 Mn288 2.094 . S
O314 C292 1.240 . S
O315 Mn289 2.117 . S
O315 C292 1.264 . S
C316 C309 1.403 . S
C316 C317 1.399 . S
C316 H322 0.929 . S
C317 C297 1.449 . S
C317 C316 1.399 . S
C317 H323 0.930 . S
H318 C298 0.931 . S
H319 C299 0.930 . S
H320 C307 0.931 . S
H321 C308 0.929 . S
H322 C316 0.929 . S
H323 C317 0.930 . S
Mn324 O329 2.095 . S
Mn324 O339 2.162 . S
Mn324 O340 2.297 . S
Mn324 O348 2.385 . S
Mn324 O349 2.209 . S
Mn324 O350 2.094 . S
Mn325 O330 2.121 . S
Mn325 N332 2.257 . S
Mn325 N341 2.282 . S
Mn325 O349 2.215 . S
Mn325 O351 2.117 . S
C326 O348 1.234 . S
C326 O349 1.283 . S
C327 O339 1.281 . S
C327 O340 1.236 . S
C328 O350 1.240 . S
C328 O351 1.264 . S
O329 Mn324 2.095 . S
O329 C338 1.250 . S
O330 Mn325 2.121 . S
O330 C338 1.258 . S
C331 N332 1.326 . S
C331 C335 1.460 . S
C331 H337 0.929 . S
N332 Mn325 2.257 . S
N332 C331 1.326 . S
N332 C336 1.362 . S
C333 C334 1.258 . S
C333 C336 1.431 . S
C333 C353 1.449 . S
C334 C333 1.258 . S
C334 C335 1.477 . S
C334 H354 0.931 . S
C335 C331 1.460 . S
C335 C334 1.477 . S
C335 H355 0.930 . S
C336 N332 1.362 . S
C336 C333 1.431 . S
C336 C346 1.476 . S
H337 C331 0.929 . S
C338 O329 1.250 . S
C338 O330 1.258 . S
O339 Mn324 2.162 . S
O339 C327 1.281 . S
O340 Mn324 2.297 . S
O340 C327 1.236 . S
N341 Mn325 2.282 . S
N341 C342 1.328 . S
N341 C346 1.318 . S
C342 N341 1.328 . S
C342 C343 1.457 . S
C342 H347 0.929 . S
C343 C342 1.457 . S
C343 C344 1.291 . S
C343 H356 0.931 . S
C344 C343 1.291 . S
C344 C345 1.373 . S
C344 H357 0.929 . S
C345 C344 1.373 . S
C345 C346 1.396 . S
C345 C352 1.403 . S
C346 C336 1.476 . S
C346 N341 1.318 . S
C346 C345 1.396 . S
H347 C342 0.929 . S
O348 Mn324 2.385 . S
O348 C326 1.234 . S
O349 Mn324 2.209 . S
O349 Mn325 2.215 . S
O349 C326 1.283 . S
O350 Mn324 2.094 . S
O350 C328 1.240 . S
O351 Mn325 2.117 . S
O351 C328 1.264 . S
C352 C345 1.403 . S
C352 C353 1.399 . S
C352 H358 0.929 . S
C353 C333 1.449 . S
C353 C352 1.399 . S
C353 H359 0.930 . S
H354 C334 0.931 . S
H355 C335 0.930 . S
H356 C343 0.931 . S
H357 C344 0.929 . S
H358 C352 0.929 . S
H359 C353 0.930 . S
Mn360 O365 2.095 . S
Mn360 O375 2.162 . S
Mn360 O376 2.297 . S
Mn360 O384 2.385 . S
Mn360 O385 2.209 . S
Mn360 O386 2.094 . S
Mn361 O366 2.121 . S
Mn361 N368 2.257 . S
Mn361 N377 2.282 . S
Mn361 O385 2.215 . S
Mn361 O387 2.117 . S
C362 O384 1.234 . S
C362 O385 1.283 . S
C363 O375 1.281 . S
C363 O376 1.236 . S
C364 O386 1.240 . S
C364 O387 1.264 . S
O365 Mn360 2.095 . S
O365 C374 1.250 . S
O366 Mn361 2.121 . S
O366 C374 1.258 . S
C367 N368 1.326 . S
C367 C371 1.460 . S
C367 H373 0.929 . S
N368 Mn361 2.257 . S
N368 C367 1.326 . S
N368 C372 1.362 . S
C369 C370 1.258 . S
C369 C372 1.431 . S
C369 C389 1.449 . S
C370 C369 1.258 . S
C370 C371 1.477 . S
C370 H390 0.931 . S
C371 C367 1.460 . S
C371 C370 1.477 . S
C371 H391 0.930 . S
C372 N368 1.362 . S
C372 C369 1.431 . S
C372 C382 1.476 . S
H373 C367 0.929 . S
C374 O365 1.250 . S
C374 O366 1.258 . S
O375 Mn360 2.162 . S
O375 C363 1.281 . S
O376 Mn360 2.297 . S
O376 C363 1.236 . S
N377 Mn361 2.282 . S
N377 C378 1.328 . S
N377 C382 1.318 . S
C378 N377 1.328 . S
C378 C379 1.457 . S
C378 H383 0.929 . S
C379 C378 1.457 . S
C379 C380 1.291 . S
C379 H392 0.931 . S
C380 C379 1.291 . S
C380 C381 1.373 . S
C380 H393 0.929 . S
C381 C380 1.373 . S
C381 C382 1.396 . S
C381 C388 1.403 . S
C382 C372 1.476 . S
C382 N377 1.318 . S
C382 C381 1.396 . S
H383 C378 0.929 . S
O384 Mn360 2.385 . S
O384 C362 1.234 . S
O385 Mn360 2.209 . S
O385 Mn361 2.215 . S
O385 C362 1.283 . S
O386 Mn360 2.094 . S
O386 C364 1.240 . S
O387 Mn361 2.117 . S
O387 C364 1.264 . S
C388 C381 1.403 . S
C388 C389 1.399 . S
C388 H394 0.929 . S
C389 C369 1.449 . S
C389 C388 1.399 . S
C389 H395 0.930 . S
H390 C370 0.931 . S
H391 C371 0.930 . S
H392 C379 0.931 . S
H393 C380 0.929 . S
H394 C388 0.929 . S
H395 C389 0.930 . S
Mn396 O401 2.095 . S
Mn396 O411 2.162 . S
Mn396 O412 2.297 . S
Mn396 O420 2.385 . S
Mn396 O421 2.209 . S
Mn396 O422 2.094 . S
Mn397 O402 2.121 . S
Mn397 N404 2.257 . S
Mn397 N413 2.282 . S
Mn397 O421 2.215 . S
Mn397 O423 2.117 . S
C398 O420 1.234 . S
C398 O421 1.283 . S
C399 O411 1.281 . S
C399 O412 1.236 . S
C400 O422 1.240 . S
C400 O423 1.264 . S
O401 Mn396 2.095 . S
O401 C410 1.250 . S
O402 Mn397 2.121 . S
O402 C410 1.258 . S
C403 N404 1.326 . S
C403 C407 1.460 . S
C403 H409 0.929 . S
N404 Mn397 2.257 . S
N404 C403 1.326 . S
N404 C408 1.362 . S
C405 C406 1.258 . S
C405 C408 1.431 . S
C405 C425 1.449 . S
C406 C405 1.258 . S
C406 C407 1.477 . S
C406 H426 0.931 . S
C407 C403 1.460 . S
C407 C406 1.477 . S
C407 H427 0.930 . S
C408 N404 1.362 . S
C408 C405 1.431 . S
C408 C418 1.476 . S
H409 C403 0.929 . S
C410 O401 1.250 . S
C410 O402 1.258 . S
O411 Mn396 2.162 . S
O411 C399 1.281 . S
O412 Mn396 2.297 . S
O412 C399 1.236 . S
N413 Mn397 2.282 . S
N413 C414 1.328 . S
N413 C418 1.318 . S
C414 N413 1.328 . S
C414 C415 1.457 . S
C414 H419 0.929 . S
C415 C414 1.457 . S
C415 C416 1.291 . S
C415 H428 0.931 . S
C416 C415 1.291 . S
C416 C417 1.373 . S
C416 H429 0.929 . S
C417 C416 1.373 . S
C417 C418 1.396 . S
C417 C424 1.403 . S
C418 C408 1.476 . S
C418 N413 1.318 . S
C418 C417 1.396 . S
H419 C414 0.929 . S
O420 Mn396 2.385 . S
O420 C398 1.234 . S
O421 Mn396 2.209 . S
O421 Mn397 2.215 . S
O421 C398 1.283 . S
O422 Mn396 2.094 . S
O422 C400 1.240 . S
O423 Mn397 2.117 . S
O423 C400 1.264 . S
C424 C417 1.403 . S
C424 C425 1.399 . S
C424 H430 0.929 . S
C425 C405 1.449 . S
C425 C424 1.399 . S
C425 H431 0.930 . S
H426 C406 0.931 . S
H427 C407 0.930 . S
H428 C415 0.931 . S
H429 C416 0.929 . S
H430 C424 0.929 . S
H431 C425 0.930 . S
Mn432 O437 2.095 . S
Mn432 O447 2.162 . S
Mn432 O448 2.297 . S
Mn432 O456 2.385 . S
Mn432 O457 2.209 . S
Mn432 O458 2.094 . S
Mn433 O438 2.121 . S
Mn433 N440 2.257 . S
Mn433 N449 2.282 . S
Mn433 O457 2.215 . S
Mn433 O459 2.117 . S
C434 O456 1.234 . S
C434 O457 1.283 . S
C435 O447 1.281 . S
C435 O448 1.236 . S
C436 O458 1.240 . S
C436 O459 1.264 . S
O437 Mn432 2.095 . S
O437 C446 1.250 . S
O438 Mn433 2.121 . S
O438 C446 1.258 . S
C439 N440 1.326 . S
C439 C443 1.460 . S
C439 H445 0.929 . S
N440 Mn433 2.257 . S
N440 C439 1.326 . S
N440 C444 1.362 . S
C441 C442 1.258 . S
C441 C444 1.431 . S
C441 C461 1.449 . S
C442 C441 1.258 . S
C442 C443 1.477 . S
C442 H462 0.931 . S
C443 C439 1.460 . S
C443 C442 1.477 . S
C443 H463 0.930 . S
C444 N440 1.362 . S
C444 C441 1.431 . S
C444 C454 1.476 . S
H445 C439 0.929 . S
C446 O437 1.250 . S
C446 O438 1.258 . S
O447 Mn432 2.162 . S
O447 C435 1.281 . S
O448 Mn432 2.297 . S
O448 C435 1.236 . S
N449 Mn433 2.282 . S
N449 C450 1.328 . S
N449 C454 1.318 . S
C450 N449 1.328 . S
C450 C451 1.457 . S
C450 H455 0.929 . S
C451 C450 1.457 . S
C451 C452 1.291 . S
C451 H464 0.931 . S
C452 C451 1.291 . S
C452 C453 1.373 . S
C452 H465 0.929 . S
C453 C452 1.373 . S
C453 C454 1.396 . S
C453 C460 1.403 . S
C454 C444 1.476 . S
C454 N449 1.318 . S
C454 C453 1.396 . S
H455 C450 0.929 . S
O456 Mn432 2.385 . S
O456 C434 1.234 . S
O457 Mn432 2.209 . S
O457 Mn433 2.215 . S
O457 C434 1.283 . S
O458 Mn432 2.094 . S
O458 C436 1.240 . S
O459 Mn433 2.117 . S
O459 C436 1.264 . S
C460 C453 1.403 . S
C460 C461 1.399 . S
C460 H466 0.929 . S
C461 C441 1.449 . S
C461 C460 1.399 . S
C461 H467 0.930 . S
H462 C442 0.931 . S
H463 C443 0.930 . S
H464 C451 0.931 . S
H465 C452 0.929 . S
H466 C460 0.929 . S
H467 C461 0.930 . S
Mn468 O473 2.095 . S
Mn468 O483 2.162 . S
Mn468 O484 2.297 . S
Mn468 O492 2.385 . S
Mn468 O493 2.209 . S
Mn468 O494 2.094 . S
Mn469 O474 2.121 . S
Mn469 N476 2.257 . S
Mn469 N485 2.282 . S
Mn469 O493 2.215 . S
Mn469 O495 2.117 . S
C470 O492 1.234 . S
C470 O493 1.283 . S
C471 O483 1.281 . S
C471 O484 1.236 . S
C472 O494 1.240 . S
C472 O495 1.264 . S
O473 Mn468 2.095 . S
O473 C482 1.250 . S
O474 Mn469 2.121 . S
O474 C482 1.258 . S
C475 N476 1.326 . S
C475 C479 1.460 . S
C475 H481 0.929 . S
N476 Mn469 2.257 . S
N476 C475 1.326 . S
N476 C480 1.362 . S
C477 C478 1.258 . S
C477 C480 1.431 . S
C477 C497 1.449 . S
C478 C477 1.258 . S
C478 C479 1.477 . S
C478 H498 0.931 . S
C479 C475 1.460 . S
C479 C478 1.477 . S
C479 H499 0.930 . S
C480 N476 1.362 . S
C480 C477 1.431 . S
C480 C490 1.476 . S
H481 C475 0.929 . S
C482 O473 1.250 . S
C482 O474 1.258 . S
O483 Mn468 2.162 . S
O483 C471 1.281 . S
O484 Mn468 2.297 . S
O484 C471 1.236 . S
N485 Mn469 2.282 . S
N485 C486 1.328 . S
N485 C490 1.318 . S
C486 N485 1.328 . S
C486 C487 1.457 . S
C486 H491 0.929 . S
C487 C486 1.457 . S
C487 C488 1.291 . S
C487 H500 0.931 . S
C488 C487 1.291 . S
C488 C489 1.373 . S
C488 H501 0.929 . S
C489 C488 1.373 . S
C489 C490 1.396 . S
C489 C496 1.403 . S
C490 C480 1.476 . S
C490 N485 1.318 . S
C490 C489 1.396 . S
H491 C486 0.929 . S
O492 Mn468 2.385 . S
O492 C470 1.234 . S
O493 Mn468 2.209 . S
O493 Mn469 2.215 . S
O493 C470 1.283 . S
O494 Mn468 2.094 . S
O494 C472 1.240 . S
O495 Mn469 2.117 . S
O495 C472 1.264 . S
C496 C489 1.403 . S
C496 C497 1.399 . S
C496 H502 0.929 . S
C497 C477 1.449 . S
C497 C496 1.399 . S
C497 H503 0.930 . S
H498 C478 0.931 . S
H499 C479 0.930 . S
H500 C487 0.931 . S
H501 C488 0.929 . S
H502 C496 0.929 . S
H503 C497 0.930 . S
Mn504 O509 2.095 . S
Mn504 O519 2.162 . S
Mn504 O520 2.297 . S
Mn504 O528 2.385 . S
Mn504 O529 2.209 . S
Mn504 O530 2.094 . S
Mn505 O510 2.121 . S
Mn505 N512 2.257 . S
Mn505 N521 2.282 . S
Mn505 O529 2.215 . S
Mn505 O531 2.117 . S
C506 O528 1.234 . S
C506 O529 1.283 . S
C507 O519 1.281 . S
C507 O520 1.236 . S
C508 O530 1.240 . S
C508 O531 1.264 . S
O509 Mn504 2.095 . S
O509 C518 1.250 . S
O510 Mn505 2.121 . S
O510 C518 1.258 . S
C511 N512 1.326 . S
C511 C515 1.460 . S
C511 H517 0.929 . S
N512 Mn505 2.257 . S
N512 C511 1.326 . S
N512 C516 1.362 . S
C513 C514 1.258 . S
C513 C516 1.431 . S
C513 C533 1.449 . S
C514 C513 1.258 . S
C514 C515 1.477 . S
C514 H534 0.931 . S
C515 C511 1.460 . S
C515 C514 1.477 . S
C515 H535 0.930 . S
C516 N512 1.362 . S
C516 C513 1.431 . S
C516 C526 1.476 . S
H517 C511 0.929 . S
C518 O509 1.250 . S
C518 O510 1.258 . S
O519 Mn504 2.162 . S
O519 C507 1.281 . S
O520 Mn504 2.297 . S
O520 C507 1.236 . S
N521 Mn505 2.282 . S
N521 C522 1.328 . S
N521 C526 1.318 . S
C522 N521 1.328 . S
C522 C523 1.457 . S
C522 H527 0.929 . S
C523 C522 1.457 . S
C523 C524 1.291 . S
C523 H536 0.931 . S
C524 C523 1.291 . S
C524 C525 1.373 . S
C524 H537 0.929 . S
C525 C524 1.373 . S
C525 C526 1.396 . S
C525 C532 1.403 . S
C526 C516 1.476 . S
C526 N521 1.318 . S
C526 C525 1.396 . S
H527 C522 0.929 . S
O528 Mn504 2.385 . S
O528 C506 1.234 . S
O529 Mn504 2.209 . S
O529 Mn505 2.215 . S
O529 C506 1.283 . S
O530 Mn504 2.094 . S
O530 C508 1.240 . S
O531 Mn505 2.117 . S
O531 C508 1.264 . S
C532 C525 1.403 . S
C532 C533 1.399 . S
C532 H538 0.929 . S
C533 C513 1.449 . S
C533 C532 1.399 . S
C533 H539 0.930 . S
H534 C514 0.931 . S
H535 C515 0.930 . S
H536 C523 0.931 . S
H537 C524 0.929 . S
H538 C532 0.929 . S
H539 C533 0.930 . S
Mn540 O545 2.095 . S
Mn540 O555 2.162 . S
Mn540 O556 2.297 . S
Mn540 O564 2.385 . S
Mn540 O565 2.209 . S
Mn540 O566 2.094 . S
Mn541 O546 2.121 . S
Mn541 N548 2.257 . S
Mn541 N557 2.282 . S
Mn541 O565 2.215 . S
Mn541 O567 2.117 . S
C542 O564 1.234 . S
C542 O565 1.283 . S
C543 O555 1.281 . S
C543 O556 1.236 . S
C544 O566 1.240 . S
C544 O567 1.264 . S
O545 Mn540 2.095 . S
O545 C554 1.250 . S
O546 Mn541 2.121 . S
O546 C554 1.258 . S
C547 N548 1.326 . S
C547 C551 1.460 . S
C547 H553 0.929 . S
N548 Mn541 2.257 . S
N548 C547 1.326 . S
N548 C552 1.362 . S
C549 C550 1.258 . S
C549 C552 1.431 . S
C549 C569 1.449 . S
C550 C549 1.258 . S
C550 C551 1.477 . S
C550 H570 0.931 . S
C551 C547 1.460 . S
C551 C550 1.477 . S
C551 H571 0.930 . S
C552 N548 1.362 . S
C552 C549 1.431 . S
C552 C562 1.476 . S
H553 C547 0.929 . S
C554 O545 1.250 . S
C554 O546 1.258 . S
O555 Mn540 2.162 . S
O555 C543 1.281 . S
O556 Mn540 2.297 . S
O556 C543 1.236 . S
N557 Mn541 2.282 . S
N557 C558 1.328 . S
N557 C562 1.318 . S
C558 N557 1.328 . S
C558 C559 1.457 . S
C558 H563 0.929 . S
C559 C558 1.457 . S
C559 C560 1.291 . S
C559 H572 0.931 . S
C560 C559 1.291 . S
C560 C561 1.373 . S
C560 H573 0.929 . S
C561 C560 1.373 . S
C561 C562 1.396 . S
C561 C568 1.403 . S
C562 C552 1.476 . S
C562 N557 1.318 . S
C562 C561 1.396 . S
H563 C558 0.929 . S
O564 Mn540 2.385 . S
O564 C542 1.234 . S
O565 Mn540 2.209 . S
O565 Mn541 2.215 . S
O565 C542 1.283 . S
O566 Mn540 2.094 . S
O566 C544 1.240 . S
O567 Mn541 2.117 . S
O567 C544 1.264 . S
C568 C561 1.403 . S
C568 C569 1.399 . S
C568 H574 0.929 . S
C569 C549 1.449 . S
C569 C568 1.399 . S
C569 H575 0.930 . S
H570 C550 0.931 . S
H571 C551 0.930 . S
H572 C559 0.931 . S
H573 C560 0.929 . S
H574 C568 0.929 . S
H575 C569 0.930 . S
H576 C584 0.929 . S
H577 C586 0.930 . S
H578 C588 0.930 . S
H579 C591 0.929 . S
H580 C594 0.930 . S
H581 C596 0.960 . S
H582 C596 0.960 . S
H583 C596 0.960 . S
C584 H576 0.929 . S
C584 C585 1.377 . S
C584 C586 1.384 . S
C585 C584 1.377 . S
C585 C591 1.390 . S
C586 H577 0.930 . S
C586 C584 1.384 . S
C586 C587 1.372 . S
C587 C586 1.372 . S
C587 C588 1.400 . S
C587 C592 1.490 . S
C588 H578 0.930 . S
C588 C587 1.400 . S
C588 C591 1.386 . S
H589 C605 0.930 . S
H590 C606 0.931 . S
C591 H579 0.929 . S
C591 C585 1.390 . S
C591 C588 1.386 . S
C592 C587 1.490 . S
C592 C594 1.395 . S
C592 C595 1.403 . S
H593 C599 0.930 . S
C594 H580 0.930 . S
C594 C592 1.395 . S
C594 C597 1.403 . S
C595 C592 1.403 . S
C595 C596 1.524 . S
C595 C599 1.400 . S
C596 H581 0.960 . S
C596 H582 0.960 . S
C596 H583 0.960 . S
C596 C595 1.524 . S
C597 C594 1.403 . S
C597 C598 1.392 . S
C597 C601 1.495 . S
C598 C597 1.392 . S
C598 C599 1.385 . S
C598 C600 1.478 . S
C599 H593 0.930 . S
C599 C595 1.400 . S
C599 C598 1.385 . S
C600 C598 1.478 . S
C600 C602 1.381 . S
C600 C606 1.383 . S
C601 C597 1.495 . S
C601 H607 0.959 . S
C601 H608 0.961 . S
C601 H609 0.960 . S
C602 C600 1.381 . S
C602 C603 1.394 . S
C602 H610 0.930 . S
C603 C602 1.394 . S
C603 C604 1.383 . S
C603 H611 0.929 . S
C604 C603 1.383 . S
C604 C605 1.377 . S
C605 H589 0.930 . S
C605 C604 1.377 . S
C605 C606 1.379 . S
C606 H590 0.931 . S
C606 C600 1.383 . S
C606 C605 1.379 . S
H607 C601 0.959 . S
H608 C601 0.961 . S
H609 C601 0.960 . S
H610 C602 0.930 . S
H611 C603 0.929 . S
H612 C620 0.929 . S
H613 C622 0.930 . S
H614 C624 0.930 . S
H615 C627 0.929 . S
H616 C630 0.930 . S
H617 C632 0.960 . S
H618 C632 0.960 . S
H619 C632 0.960 . S
C620 H612 0.929 . S
C620 C621 1.377 . S
C620 C622 1.384 . S
C621 C620 1.377 . S
C621 C627 1.390 . S
C622 H613 0.930 . S
C622 C620 1.384 . S
C622 C623 1.372 . S
C623 C622 1.372 . S
C623 C624 1.400 . S
C623 C628 1.490 . S
C624 H614 0.930 . S
C624 C623 1.400 . S
C624 C627 1.386 . S
H625 C641 0.930 . S
H626 C642 0.931 . S
C627 H615 0.929 . S
C627 C621 1.390 . S
C627 C624 1.386 . S
C628 C623 1.490 . S
C628 C630 1.395 . S
C628 C631 1.403 . S
H629 C635 0.930 . S
C630 H616 0.930 . S
C630 C628 1.395 . S
C630 C633 1.403 . S
C631 C628 1.403 . S
C631 C632 1.524 . S
C631 C635 1.400 . S
C632 H617 0.960 . S
C632 H618 0.960 . S
C632 H619 0.960 . S
C632 C631 1.524 . S
C633 C630 1.403 . S
C633 C634 1.392 . S
C633 C637 1.495 . S
C634 C633 1.392 . S
C634 C635 1.385 . S
C634 C636 1.478 . S
C635 H629 0.930 . S
C635 C631 1.400 . S
C635 C634 1.385 . S
C636 C634 1.478 . S
C636 C638 1.381 . S
C636 C642 1.383 . S
C637 C633 1.495 . S
C637 H643 0.959 . S
C637 H644 0.961 . S
C637 H645 0.960 . S
C638 C636 1.381 . S
C638 C639 1.394 . S
C638 H646 0.930 . S
C639 C638 1.394 . S
C639 C640 1.383 . S
C639 H647 0.929 . S
C640 C639 1.383 . S
C640 C641 1.377 . S
C641 H625 0.930 . S
C641 C640 1.377 . S
C641 C642 1.379 . S
C642 H626 0.931 . S
C642 C636 1.383 . S
C642 C641 1.379 . S
H643 C637 0.959 . S
H644 C637 0.961 . S
H645 C637 0.960 . S
H646 C638 0.930 . S
H647 C639 0.929 . S
H648 C656 0.929 . S
H649 C658 0.930 . S
H650 C660 0.930 . S
H651 C663 0.929 . S
H652 C666 0.930 . S
H653 C668 0.960 . S
H654 C668 0.960 . S
H655 C668 0.960 . S
C656 H648 0.929 . S
C656 C657 1.377 . S
C656 C658 1.384 . S
C657 C656 1.377 . S
C657 C663 1.390 . S
C658 H649 0.930 . S
C658 C656 1.384 . S
C658 C659 1.372 . S
C659 C658 1.372 . S
C659 C660 1.400 . S
C659 C664 1.490 . S
C660 H650 0.930 . S
C660 C659 1.400 . S
C660 C663 1.386 . S
H661 C677 0.930 . S
H662 C678 0.931 . S
C663 H651 0.929 . S
C663 C657 1.390 . S
C663 C660 1.386 . S
C664 C659 1.490 . S
C664 C666 1.395 . S
C664 C667 1.403 . S
H665 C671 0.930 . S
C666 H652 0.930 . S
C666 C664 1.395 . S
C666 C669 1.403 . S
C667 C664 1.403 . S
C667 C668 1.524 . S
C667 C671 1.400 . S
C668 H653 0.960 . S
C668 H654 0.960 . S
C668 H655 0.960 . S
C668 C667 1.524 . S
C669 C666 1.403 . S
C669 C670 1.392 . S
C669 C673 1.495 . S
C670 C669 1.392 . S
C670 C671 1.385 . S
C670 C672 1.478 . S
C671 H665 0.930 . S
C671 C667 1.400 . S
C671 C670 1.385 . S
C672 C670 1.478 . S
C672 C674 1.381 . S
C672 C678 1.383 . S
C673 C669 1.495 . S
C673 H679 0.959 . S
C673 H680 0.961 . S
C673 H681 0.960 . S
C674 C672 1.381 . S
C674 C675 1.394 . S
C674 H682 0.930 . S
C675 C674 1.394 . S
C675 C676 1.383 . S
C675 H683 0.929 . S
C676 C675 1.383 . S
C676 C677 1.377 . S
C677 H661 0.930 . S
C677 C676 1.377 . S
C677 C678 1.379 . S
C678 H662 0.931 . S
C678 C672 1.383 . S
C678 C677 1.379 . S
H679 C673 0.959 . S
H680 C673 0.961 . S
H681 C673 0.960 . S
H682 C674 0.930 . S
H683 C675 0.929 . S
H684 C692 0.929 . S
H685 C694 0.930 . S
H686 C696 0.930 . S
H687 C699 0.929 . S
H688 C702 0.930 . S
H689 C704 0.960 . S
H690 C704 0.960 . S
H691 C704 0.960 . S
C692 H684 0.929 . S
C692 C693 1.377 . S
C692 C694 1.384 . S
C693 C692 1.377 . S
C693 C699 1.390 . S
C694 H685 0.930 . S
C694 C692 1.384 . S
C694 C695 1.372 . S
C695 C694 1.372 . S
C695 C696 1.400 . S
C695 C700 1.490 . S
C696 H686 0.930 . S
C696 C695 1.400 . S
C696 C699 1.386 . S
H697 C713 0.930 . S
H698 C714 0.931 . S
C699 H687 0.929 . S
C699 C693 1.390 . S
C699 C696 1.386 . S
C700 C695 1.490 . S
C700 C702 1.395 . S
C700 C703 1.403 . S
H701 C707 0.930 . S
C702 H688 0.930 . S
C702 C700 1.395 . S
C702 C705 1.403 . S
C703 C700 1.403 . S
C703 C704 1.524 . S
C703 C707 1.400 . S
C704 H689 0.960 . S
C704 H690 0.960 . S
C704 H691 0.960 . S
C704 C703 1.524 . S
C705 C702 1.403 . S
C705 C706 1.392 . S
C705 C709 1.495 . S
C706 C705 1.392 . S
C706 C707 1.385 . S
C706 C708 1.478 . S
C707 H701 0.930 . S
C707 C703 1.400 . S
C707 C706 1.385 . S
C708 C706 1.478 . S
C708 C710 1.381 . S
C708 C714 1.383 . S
C709 C705 1.495 . S
C709 H715 0.959 . S
C709 H716 0.961 . S
C709 H717 0.960 . S
C710 C708 1.381 . S
C710 C711 1.394 . S
C710 H718 0.930 . S
C711 C710 1.394 . S
C711 C712 1.383 . S
C711 H719 0.929 . S
C712 C711 1.383 . S
C712 C713 1.377 . S
C713 H697 0.930 . S
C713 C712 1.377 . S
C713 C714 1.379 . S
C714 H698 0.931 . S
C714 C708 1.383 . S
C714 C713 1.379 . S
H715 C709 0.959 . S
H716 C709 0.961 . S
H717 C709 0.960 . S
H718 C710 0.930 . S
H719 C711 0.929 . S
H720 C728 0.929 . S
H721 C730 0.930 . S
H722 C732 0.930 . S
H723 C735 0.929 . S
H724 C738 0.930 . S
H725 C740 0.960 . S
H726 C740 0.960 . S
H727 C740 0.960 . S
C728 H720 0.929 . S
C728 C729 1.377 . S
C728 C730 1.384 . S
C729 C728 1.377 . S
C729 C735 1.390 . S
C730 H721 0.930 . S
C730 C728 1.384 . S
C730 C731 1.372 . S
C731 C730 1.372 . S
C731 C732 1.400 . S
C731 C736 1.490 . S
C732 H722 0.930 . S
C732 C731 1.400 . S
C732 C735 1.386 . S
H733 C749 0.930 . S
H734 C750 0.931 . S
C735 H723 0.929 . S
C735 C729 1.390 . S
C735 C732 1.386 . S
C736 C731 1.490 . S
C736 C738 1.395 . S
C736 C739 1.403 . S
H737 C743 0.930 . S
C738 H724 0.930 . S
C738 C736 1.395 . S
C738 C741 1.403 . S
C739 C736 1.403 . S
C739 C740 1.524 . S
C739 C743 1.400 . S
C740 H725 0.960 . S
C740 H726 0.960 . S
C740 H727 0.960 . S
C740 C739 1.524 . S
C741 C738 1.403 . S
C741 C742 1.392 . S
C741 C745 1.495 . S
C742 C741 1.392 . S
C742 C743 1.385 . S
C742 C744 1.478 . S
C743 H737 0.930 . S
C743 C739 1.400 . S
C743 C742 1.385 . S
C744 C742 1.478 . S
C744 C746 1.381 . S
C744 C750 1.383 . S
C745 C741 1.495 . S
C745 H751 0.959 . S
C745 H752 0.961 . S
C745 H753 0.960 . S
C746 C744 1.381 . S
C746 C747 1.394 . S
C746 H754 0.930 . S
C747 C746 1.394 . S
C747 C748 1.383 . S
C747 H755 0.929 . S
C748 C747 1.383 . S
C748 C749 1.377 . S
C749 H733 0.930 . S
C749 C748 1.377 . S
C749 C750 1.379 . S
C750 H734 0.931 . S
C750 C744 1.383 . S
C750 C749 1.379 . S
H751 C745 0.959 . S
H752 C745 0.961 . S
H753 C745 0.960 . S
H754 C746 0.930 . S
H755 C747 0.929 . S
H756 C764 0.929 . S
H757 C766 0.930 . S
H758 C768 0.930 . S
H759 C771 0.929 . S
H760 C774 0.930 . S
H761 C776 0.960 . S
H762 C776 0.960 . S
H763 C776 0.960 . S
C764 H756 0.929 . S
C764 C765 1.377 . S
C764 C766 1.384 . S
C765 C764 1.377 . S
C765 C771 1.390 . S
C766 H757 0.930 . S
C766 C764 1.384 . S
C766 C767 1.372 . S
C767 C766 1.372 . S
C767 C768 1.400 . S
C767 C772 1.490 . S
C768 H758 0.930 . S
C768 C767 1.400 . S
C768 C771 1.386 . S
H769 C785 0.930 . S
H770 C786 0.931 . S
C771 H759 0.929 . S
C771 C765 1.390 . S
C771 C768 1.386 . S
C772 C767 1.490 . S
C772 C774 1.395 . S
C772 C775 1.403 . S
H773 C779 0.930 . S
C774 H760 0.930 . S
C774 C772 1.395 . S
C774 C777 1.403 . S
C775 C772 1.403 . S
C775 C776 1.524 . S
C775 C779 1.400 . S
C776 H761 0.960 . S
C776 H762 0.960 . S
C776 H763 0.960 . S
C776 C775 1.524 . S
C777 C774 1.403 . S
C777 C778 1.392 . S
C777 C781 1.495 . S
C778 C777 1.392 . S
C778 C779 1.385 . S
C778 C780 1.478 . S
C779 H773 0.930 . S
C779 C775 1.400 . S
C779 C778 1.385 . S
C780 C778 1.478 . S
C780 C782 1.381 . S
C780 C786 1.383 . S
C781 C777 1.495 . S
C781 H787 0.959 . S
C781 H788 0.961 . S
C781 H789 0.960 . S
C782 C780 1.381 . S
C782 C783 1.394 . S
C782 H790 0.930 . S
C783 C782 1.394 . S
C783 C784 1.383 . S
C783 H791 0.929 . S
C784 C783 1.383 . S
C784 C785 1.377 . S
C785 H769 0.930 . S
C785 C784 1.377 . S
C785 C786 1.379 . S
C786 H770 0.931 . S
C786 C780 1.383 . S
C786 C785 1.379 . S
H787 C781 0.959 . S
H788 C781 0.961 . S
H789 C781 0.960 . S
H790 C782 0.930 . S
H791 C783 0.929 . S
H792 C800 0.929 . S
H793 C802 0.930 . S
H794 C804 0.930 . S
H795 C807 0.929 . S
H796 C810 0.930 . S
H797 C812 0.960 . S
H798 C812 0.960 . S
H799 C812 0.960 . S
C800 H792 0.929 . S
C800 C801 1.377 . S
C800 C802 1.384 . S
C801 C800 1.377 . S
C801 C807 1.390 . S
C802 H793 0.930 . S
C802 C800 1.384 . S
C802 C803 1.372 . S
C803 C802 1.372 . S
C803 C804 1.400 . S
C803 C808 1.490 . S
C804 H794 0.930 . S
C804 C803 1.400 . S
C804 C807 1.386 . S
H805 C821 0.930 . S
H806 C822 0.931 . S
C807 H795 0.929 . S
C807 C801 1.390 . S
C807 C804 1.386 . S
C808 C803 1.490 . S
C808 C810 1.395 . S
C808 C811 1.403 . S
H809 C815 0.930 . S
C810 H796 0.930 . S
C810 C808 1.395 . S
C810 C813 1.403 . S
C811 C808 1.403 . S
C811 C812 1.524 . S
C811 C815 1.400 . S
C812 H797 0.960 . S
C812 H798 0.960 . S
C812 H799 0.960 . S
C812 C811 1.524 . S
C813 C810 1.403 . S
C813 C814 1.392 . S
C813 C817 1.495 . S
C814 C813 1.392 . S
C814 C815 1.385 . S
C814 C816 1.478 . S
C815 H809 0.930 . S
C815 C811 1.400 . S
C815 C814 1.385 . S
C816 C814 1.478 . S
C816 C818 1.381 . S
C816 C822 1.383 . S
C817 C813 1.495 . S
C817 H823 0.959 . S
C817 H824 0.961 . S
C817 H825 0.960 . S
C818 C816 1.381 . S
C818 C819 1.394 . S
C818 H826 0.930 . S
C819 C818 1.394 . S
C819 C820 1.383 . S
C819 H827 0.929 . S
C820 C819 1.383 . S
C820 C821 1.377 . S
C821 H805 0.930 . S
C821 C820 1.377 . S
C821 C822 1.379 . S
C822 H806 0.931 . S
C822 C816 1.383 . S
C822 C821 1.379 . S
H823 C817 0.959 . S
H824 C817 0.961 . S
H825 C817 0.960 . S
H826 C818 0.930 . S
H827 C819 0.929 . S
H828 C836 0.929 . S
H829 C838 0.930 . S
H830 C840 0.930 . S
H831 C843 0.929 . S
H832 C846 0.930 . S
H833 C848 0.960 . S
H834 C848 0.960 . S
H835 C848 0.960 . S
C836 H828 0.929 . S
C836 C837 1.377 . S
C836 C838 1.384 . S
C837 C836 1.377 . S
C837 C843 1.390 . S
C838 H829 0.930 . S
C838 C836 1.384 . S
C838 C839 1.372 . S
C839 C838 1.372 . S
C839 C840 1.400 . S
C839 C844 1.490 . S
C840 H830 0.930 . S
C840 C839 1.400 . S
C840 C843 1.386 . S
H841 C857 0.930 . S
H842 C858 0.931 . S
C843 H831 0.929 . S
C843 C837 1.390 . S
C843 C840 1.386 . S
C844 C839 1.490 . S
C844 C846 1.395 . S
C844 C847 1.403 . S
H845 C851 0.930 . S
C846 H832 0.930 . S
C846 C844 1.395 . S
C846 C849 1.403 . S
C847 C844 1.403 . S
C847 C848 1.524 . S
C847 C851 1.400 . S
C848 H833 0.960 . S
C848 H834 0.960 . S
C848 H835 0.960 . S
C848 C847 1.524 . S
C849 C846 1.403 . S
C849 C850 1.392 . S
C849 C853 1.495 . S
C850 C849 1.392 . S
C850 C851 1.385 . S
C850 C852 1.478 . S
C851 H845 0.930 . S
C851 C847 1.400 . S
C851 C850 1.385 . S
C852 C850 1.478 . S
C852 C854 1.381 . S
C852 C858 1.383 . S
C853 C849 1.495 . S
C853 H859 0.959 . S
C853 H860 0.961 . S
C853 H861 0.960 . S
C854 C852 1.381 . S
C854 C855 1.394 . S
C854 H862 0.930 . S
C855 C854 1.394 . S
C855 C856 1.383 . S
C855 H863 0.929 . S
C856 C855 1.383 . S
C856 C857 1.377 . S
C857 H841 0.930 . S
C857 C856 1.377 . S
C857 C858 1.379 . S
C858 H842 0.931 . S
C858 C852 1.383 . S
C858 C857 1.379 . S
H859 C853 0.959 . S
H860 C853 0.961 . S
H861 C853 0.960 . S
H862 C854 0.930 . S
H863 C855 0.929 . S
H864 C872 0.929 . S
H865 C874 0.930 . S
H866 C876 0.930 . S
H867 C879 0.929 . S
H868 C882 0.930 . S
H869 C884 0.960 . S
H870 C884 0.960 . S
H871 C884 0.960 . S
C872 H864 0.929 . S
C872 C873 1.377 . S
C872 C874 1.384 . S
C873 C872 1.377 . S
C873 C879 1.390 . S
C874 H865 0.930 . S
C874 C872 1.384 . S
C874 C875 1.372 . S
C875 C874 1.372 . S
C875 C876 1.400 . S
C875 C880 1.490 . S
C876 H866 0.930 . S
C876 C875 1.400 . S
C876 C879 1.386 . S
H877 C893 0.930 . S
H878 C894 0.931 . S
C879 H867 0.929 . S
C879 C873 1.390 . S
C879 C876 1.386 . S
C880 C875 1.490 . S
C880 C882 1.395 . S
C880 C883 1.403 . S
H881 C887 0.930 . S
C882 H868 0.930 . S
C882 C880 1.395 . S
C882 C885 1.403 . S
C883 C880 1.403 . S
C883 C884 1.524 . S
C883 C887 1.400 . S
C884 H869 0.960 . S
C884 H870 0.960 . S
C884 H871 0.960 . S
C884 C883 1.524 . S
C885 C882 1.403 . S
C885 C886 1.392 . S
C885 C889 1.495 . S
C886 C885 1.392 . S
C886 C887 1.385 . S
C886 C888 1.478 . S
C887 H881 0.930 . S
C887 C883 1.400 . S
C887 C886 1.385 . S
C888 C886 1.478 . S
C888 C890 1.381 . S
C888 C894 1.383 . S
C889 C885 1.495 . S
C889 H895 0.959 . S
C889 H896 0.961 . S
C889 H897 0.960 . S
C890 C888 1.381 . S
C890 C891 1.394 . S
C890 H898 0.930 . S
C891 C890 1.394 . S
C891 C892 1.383 . S
C891 H899 0.929 . S
C892 C891 1.383 . S
C892 C893 1.377 . S
C893 H877 0.930 . S
C893 C892 1.377 . S
C893 C894 1.379 . S
C894 H878 0.931 . S
C894 C888 1.383 . S
C894 C893 1.379 . S
H895 C889 0.959 . S
H896 C889 0.961 . S
H897 C889 0.960 . S
H898 C890 0.930 . S
H899 C891 0.929 . S
H900 C908 0.929 . S
H901 C910 0.930 . S
H902 C912 0.930 . S
H903 C915 0.929 . S
H904 C918 0.930 . S
H905 C920 0.960 . S
H906 C920 0.960 . S
H907 C920 0.960 . S
C908 H900 0.929 . S
C908 C909 1.377 . S
C908 C910 1.384 . S
C909 C908 1.377 . S
C909 C915 1.390 . S
C910 H901 0.930 . S
C910 C908 1.384 . S
C910 C911 1.372 . S
C911 C910 1.372 . S
C911 C912 1.400 . S
C911 C916 1.490 . S
C912 H902 0.930 . S
C912 C911 1.400 . S
C912 C915 1.386 . S
H913 C929 0.930 . S
H914 C930 0.931 . S
C915 H903 0.929 . S
C915 C909 1.390 . S
C915 C912 1.386 . S
C916 C911 1.490 . S
C916 C918 1.395 . S
C916 C919 1.403 . S
H917 C923 0.930 . S
C918 H904 0.930 . S
C918 C916 1.395 . S
C918 C921 1.403 . S
C919 C916 1.403 . S
C919 C920 1.524 . S
C919 C923 1.400 . S
C920 H905 0.960 . S
C920 H906 0.960 . S
C920 H907 0.960 . S
C920 C919 1.524 . S
C921 C918 1.403 . S
C921 C922 1.392 . S
C921 C925 1.495 . S
C922 C921 1.392 . S
C922 C923 1.385 . S
C922 C924 1.478 . S
C923 H917 0.930 . S
C923 C919 1.400 . S
C923 C922 1.385 . S
C924 C922 1.478 . S
C924 C926 1.381 . S
C924 C930 1.383 . S
C925 C921 1.495 . S
C925 H931 0.959 . S
C925 H932 0.961 . S
C925 H933 0.960 . S
C926 C924 1.381 . S
C926 C927 1.394 . S
C926 H934 0.930 . S
C927 C926 1.394 . S
C927 C928 1.383 . S
C927 H935 0.929 . S
C928 C927 1.383 . S
C928 C929 1.377 . S
C929 H913 0.930 . S
C929 C928 1.377 . S
C929 C930 1.379 . S
C930 H914 0.931 . S
C930 C924 1.383 . S
C930 C929 1.379 . S
H931 C925 0.959 . S
H932 C925 0.961 . S
H933 C925 0.960 . S
H934 C926 0.930 . S
H935 C927 0.929 . S
H936 C944 0.929 . S
H937 C946 0.930 . S
H938 C948 0.930 . S
H939 C951 0.929 . S
H940 C954 0.930 . S
H941 C956 0.960 . S
H942 C956 0.960 . S
H943 C956 0.960 . S
C944 H936 0.929 . S
C944 C945 1.377 . S
C944 C946 1.384 . S
C945 C944 1.377 . S
C945 C951 1.390 . S
C946 H937 0.930 . S
C946 C944 1.384 . S
C946 C947 1.372 . S
C947 C946 1.372 . S
C947 C948 1.400 . S
C947 C952 1.490 . S
C948 H938 0.930 . S
C948 C947 1.400 . S
C948 C951 1.386 . S
H949 C965 0.930 . S
H950 C966 0.931 . S
C951 H939 0.929 . S
C951 C945 1.390 . S
C951 C948 1.386 . S
C952 C947 1.490 . S
C952 C954 1.395 . S
C952 C955 1.403 . S
H953 C959 0.930 . S
C954 H940 0.930 . S
C954 C952 1.395 . S
C954 C957 1.403 . S
C955 C952 1.403 . S
C955 C956 1.524 . S
C955 C959 1.400 . S
C956 H941 0.960 . S
C956 H942 0.960 . S
C956 H943 0.960 . S
C956 C955 1.524 . S
C957 C954 1.403 . S
C957 C958 1.392 . S
C957 C961 1.495 . S
C958 C957 1.392 . S
C958 C959 1.385 . S
C958 C960 1.478 . S
C959 H953 0.930 . S
C959 C955 1.400 . S
C959 C958 1.385 . S
C960 C958 1.478 . S
C960 C962 1.381 . S
C960 C966 1.383 . S
C961 C957 1.495 . S
C961 H967 0.959 . S
C961 H968 0.961 . S
C961 H969 0.960 . S
C962 C960 1.381 . S
C962 C963 1.394 . S
C962 H970 0.930 . S
C963 C962 1.394 . S
C963 C964 1.383 . S
C963 H971 0.929 . S
C964 C963 1.383 . S
C964 C965 1.377 . S
C965 H949 0.930 . S
C965 C964 1.377 . S
C965 C966 1.379 . S
C966 H950 0.931 . S
C966 C960 1.383 . S
C966 C965 1.379 . S
H967 C961 0.959 . S
H968 C961 0.961 . S
H969 C961 0.960 . S
H970 C962 0.930 . S
H971 C963 0.929 . S
H972 C980 0.929 . S
H973 C982 0.930 . S
H974 C984 0.930 . S
H975 C987 0.929 . S
H976 C990 0.930 . S
H977 C992 0.960 . S
H978 C992 0.960 . S
H979 C992 0.960 . S
C980 H972 0.929 . S
C980 C981 1.377 . S
C980 C982 1.384 . S
C981 C980 1.377 . S
C981 C987 1.390 . S
C982 H973 0.930 . S
C982 C980 1.384 . S
C982 C983 1.372 . S
C983 C982 1.372 . S
C983 C984 1.400 . S
C983 C988 1.490 . S
C984 H974 0.930 . S
C984 C983 1.400 . S
C984 C987 1.386 . S
H985 C1001 0.930 . S
H986 C1002 0.931 . S
C987 H975 0.929 . S
C987 C981 1.390 . S
C987 C984 1.386 . S
C988 C983 1.490 . S
C988 C990 1.395 . S
C988 C991 1.403 . S
H989 C995 0.930 . S
C990 H976 0.930 . S
C990 C988 1.395 . S
C990 C993 1.403 . S
C991 C988 1.403 . S
C991 C992 1.524 . S
C991 C995 1.400 . S
C992 H977 0.960 . S
C992 H978 0.960 . S
C992 H979 0.960 . S
C992 C991 1.524 . S
C993 C990 1.403 . S
C993 C994 1.392 . S
C993 C997 1.495 . S
C994 C993 1.392 . S
C994 C995 1.385 . S
C994 C996 1.478 . S
C995 H989 0.930 . S
C995 C991 1.400 . S
C995 C994 1.385 . S
C996 C994 1.478 . S
C996 C998 1.381 . S
C996 C1002 1.383 . S
C997 C993 1.495 . S
C997 H1003 0.959 . S
C997 H1004 0.961 . S
C997 H1005 0.960 . S
C998 C996 1.381 . S
C998 C999 1.394 . S
C998 H1006 0.930 . S
C999 C998 1.394 . S
C999 C1000 1.383 . S
C999 H1007 0.929 . S
C1000 C999 1.383 . S
C1000 C1001 1.377 . S
C1001 H985 0.930 . S
C1001 C1000 1.377 . S
C1001 C1002 1.379 . S
C1002 H986 0.931 . S
C1002 C996 1.383 . S
C1002 C1001 1.379 . S
H1003 C997 0.959 . S
H1004 C997 0.961 . S
H1005 C997 0.960 . S
H1006 C998 0.930 . S
H1007 C999 0.929 . S
H1008 C1016 0.929 . S
H1009 C1018 0.930 . S
H1010 C1020 0.930 . S
H1011 C1023 0.929 . S
H1012 C1026 0.930 . S
H1013 C1028 0.960 . S
H1014 C1028 0.960 . S
H1015 C1028 0.960 . S
C1016 H1008 0.929 . S
C1016 C1017 1.377 . S
C1016 C1018 1.384 . S
C1017 C1016 1.377 . S
C1017 C1023 1.390 . S
C1018 H1009 0.930 . S
C1018 C1016 1.384 . S
C1018 C1019 1.372 . S
C1019 C1018 1.372 . S
C1019 C1020 1.400 . S
C1019 C1024 1.490 . S
C1020 H1010 0.930 . S
C1020 C1019 1.400 . S
C1020 C1023 1.386 . S
H1021 C1037 0.930 . S
H1022 C1038 0.931 . S
C1023 H1011 0.929 . S
C1023 C1017 1.390 . S
C1023 C1020 1.386 . S
C1024 C1019 1.490 . S
C1024 C1026 1.395 . S
C1024 C1027 1.403 . S
H1025 C1031 0.930 . S
C1026 H1012 0.930 . S
C1026 C1024 1.395 . S
C1026 C1029 1.403 . S
C1027 C1024 1.403 . S
C1027 C1028 1.524 . S
C1027 C1031 1.400 . S
C1028 H1013 0.960 . S
C1028 H1014 0.960 . S
C1028 H1015 0.960 . S
C1028 C1027 1.524 . S
C1029 C1026 1.403 . S
C1029 C1030 1.392 . S
C1029 C1033 1.495 . S
C1030 C1029 1.392 . S
C1030 C1031 1.385 . S
C1030 C1032 1.478 . S
C1031 H1025 0.930 . S
C1031 C1027 1.400 . S
C1031 C1030 1.385 . S
C1032 C1030 1.478 . S
C1032 C1034 1.381 . S
C1032 C1038 1.383 . S
C1033 C1029 1.495 . S
C1033 H1039 0.959 . S
C1033 H1040 0.961 . S
C1033 H1041 0.960 . S
C1034 C1032 1.381 . S
C1034 C1035 1.394 . S
C1034 H1042 0.930 . S
C1035 C1034 1.394 . S
C1035 C1036 1.383 . S
C1035 H1043 0.929 . S
C1036 C1035 1.383 . S
C1036 C1037 1.377 . S
C1037 H1021 0.930 . S
C1037 C1036 1.377 . S
C1037 C1038 1.379 . S
C1038 H1022 0.931 . S
C1038 C1032 1.383 . S
C1038 C1037 1.379 . S
H1039 C1033 0.959 . S
H1040 C1033 0.961 . S
H1041 C1033 0.960 . S
H1042 C1034 0.930 . S
H1043 C1035 0.929 . S
H1044 C1052 0.929 . S
H1045 C1054 0.930 . S
H1046 C1056 0.930 . S
H1047 C1059 0.929 . S
H1048 C1062 0.930 . S
H1049 C1064 0.960 . S
H1050 C1064 0.960 . S
H1051 C1064 0.960 . S
C1052 H1044 0.929 . S
C1052 C1053 1.377 . S
C1052 C1054 1.384 . S
C1053 C1052 1.377 . S
C1053 C1059 1.390 . S
C1054 H1045 0.930 . S
C1054 C1052 1.384 . S
C1054 C1055 1.372 . S
C1055 C1054 1.372 . S
C1055 C1056 1.400 . S
C1055 C1060 1.490 . S
C1056 H1046 0.930 . S
C1056 C1055 1.400 . S
C1056 C1059 1.386 . S
H1057 C1073 0.930 . S
H1058 C1074 0.931 . S
C1059 H1047 0.929 . S
C1059 C1053 1.390 . S
C1059 C1056 1.386 . S
C1060 C1055 1.490 . S
C1060 C1062 1.395 . S
C1060 C1063 1.403 . S
H1061 C1067 0.930 . S
C1062 H1048 0.930 . S
C1062 C1060 1.395 . S
C1062 C1065 1.403 . S
C1063 C1060 1.403 . S
C1063 C1064 1.524 . S
C1063 C1067 1.400 . S
C1064 H1049 0.960 . S
C1064 H1050 0.960 . S
C1064 H1051 0.960 . S
C1064 C1063 1.524 . S
C1065 C1062 1.403 . S
C1065 C1066 1.392 . S
C1065 C1069 1.495 . S
C1066 C1065 1.392 . S
C1066 C1067 1.385 . S
C1066 C1068 1.478 . S
C1067 H1061 0.930 . S
C1067 C1063 1.400 . S
C1067 C1066 1.385 . S
C1068 C1066 1.478 . S
C1068 C1070 1.381 . S
C1068 C1074 1.383 . S
C1069 C1065 1.495 . S
C1069 H1075 0.959 . S
C1069 H1076 0.961 . S
C1069 H1077 0.960 . S
C1070 C1068 1.381 . S
C1070 C1071 1.394 . S
C1070 H1078 0.930 . S
C1071 C1070 1.394 . S
C1071 C1072 1.383 . S
C1071 H1079 0.929 . S
C1072 C1071 1.383 . S
C1072 C1073 1.377 . S
C1073 H1057 0.930 . S
C1073 C1072 1.377 . S
C1073 C1074 1.379 . S
C1074 H1058 0.931 . S
C1074 C1068 1.383 . S
C1074 C1073 1.379 . S
H1075 C1069 0.959 . S
H1076 C1069 0.961 . S
H1077 C1069 0.960 . S
H1078 C1070 0.930 . S
H1079 C1071 0.929 . S
H1080 C1088 0.929 . S
H1081 C1090 0.930 . S
H1082 C1092 0.930 . S
H1083 C1095 0.929 . S
H1084 C1098 0.930 . S
H1085 C1100 0.960 . S
H1086 C1100 0.960 . S
H1087 C1100 0.960 . S
C1088 H1080 0.929 . S
C1088 C1089 1.377 . S
C1088 C1090 1.384 . S
C1089 C1088 1.377 . S
C1089 C1095 1.390 . S
C1090 H1081 0.930 . S
C1090 C1088 1.384 . S
C1090 C1091 1.372 . S
C1091 C1090 1.372 . S
C1091 C1092 1.400 . S
C1091 C1096 1.490 . S
C1092 H1082 0.930 . S
C1092 C1091 1.400 . S
C1092 C1095 1.386 . S
H1093 C1109 0.930 . S
H1094 C1110 0.931 . S
C1095 H1083 0.929 . S
C1095 C1089 1.390 . S
C1095 C1092 1.386 . S
C1096 C1091 1.490 . S
C1096 C1098 1.395 . S
C1096 C1099 1.403 . S
H1097 C1103 0.930 . S
C1098 H1084 0.930 . S
C1098 C1096 1.395 . S
C1098 C1101 1.403 . S
C1099 C1096 1.403 . S
C1099 C1100 1.524 . S
C1099 C1103 1.400 . S
C1100 H1085 0.960 . S
C1100 H1086 0.960 . S
C1100 H1087 0.960 . S
C1100 C1099 1.524 . S
C1101 C1098 1.403 . S
C1101 C1102 1.392 . S
C1101 C1105 1.495 . S
C1102 C1101 1.392 . S
C1102 C1103 1.385 . S
C1102 C1104 1.478 . S
C1103 H1097 0.930 . S
C1103 C1099 1.400 . S
C1103 C1102 1.385 . S
C1104 C1102 1.478 . S
C1104 C1106 1.381 . S
C1104 C1110 1.383 . S
C1105 C1101 1.495 . S
C1105 H1111 0.959 . S
C1105 H1112 0.961 . S
C1105 H1113 0.960 . S
C1106 C1104 1.381 . S
C1106 C1107 1.394 . S
C1106 H1114 0.930 . S
C1107 C1106 1.394 . S
C1107 C1108 1.383 . S
C1107 H1115 0.929 . S
C1108 C1107 1.383 . S
C1108 C1109 1.377 . S
C1109 H1093 0.930 . S
C1109 C1108 1.377 . S
C1109 C1110 1.379 . S
C1110 H1094 0.931 . S
C1110 C1104 1.383 . S
C1110 C1109 1.379 . S
H1111 C1105 0.959 . S
H1112 C1105 0.961 . S
H1113 C1105 0.960 . S
H1114 C1106 0.930 . S
H1115 C1107 0.929 . S
H1116 C1124 0.929 . S
H1117 C1126 0.930 . S
H1118 C1128 0.930 . S
H1119 C1131 0.929 . S
H1120 C1134 0.930 . S
H1121 C1136 0.960 . S
H1122 C1136 0.960 . S
H1123 C1136 0.960 . S
C1124 H1116 0.929 . S
C1124 C1125 1.377 . S
C1124 C1126 1.384 . S
C1125 C1124 1.377 . S
C1125 C1131 1.390 . S
C1126 H1117 0.930 . S
C1126 C1124 1.384 . S
C1126 C1127 1.372 . S
C1127 C1126 1.372 . S
C1127 C1128 1.400 . S
C1127 C1132 1.490 . S
C1128 H1118 0.930 . S
C1128 C1127 1.400 . S
C1128 C1131 1.386 . S
H1129 C1145 0.930 . S
H1130 C1146 0.931 . S
C1131 H1119 0.929 . S
C1131 C1125 1.390 . S
C1131 C1128 1.386 . S
C1132 C1127 1.490 . S
C1132 C1134 1.395 . S
C1132 C1135 1.403 . S
H1133 C1139 0.930 . S
C1134 H1120 0.930 . S
C1134 C1132 1.395 . S
C1134 C1137 1.403 . S
C1135 C1132 1.403 . S
C1135 C1136 1.524 . S
C1135 C1139 1.400 . S
C1136 H1121 0.960 . S
C1136 H1122 0.960 . S
C1136 H1123 0.960 . S
C1136 C1135 1.524 . S
C1137 C1134 1.403 . S
C1137 C1138 1.392 . S
C1137 C1141 1.495 . S
C1138 C1137 1.392 . S
C1138 C1139 1.385 . S
C1138 C1140 1.478 . S
C1139 H1133 0.930 . S
C1139 C1135 1.400 . S
C1139 C1138 1.385 . S
C1140 C1138 1.478 . S
C1140 C1142 1.381 . S
C1140 C1146 1.383 . S
C1141 C1137 1.495 . S
C1141 H1147 0.959 . S
C1141 H1148 0.961 . S
C1141 H1149 0.960 . S
C1142 C1140 1.381 . S
C1142 C1143 1.394 . S
C1142 H1150 0.930 . S
C1143 C1142 1.394 . S
C1143 C1144 1.383 . S
C1143 H1151 0.929 . S
C1144 C1143 1.383 . S
C1144 C1145 1.377 . S
C1145 H1129 0.930 . S
C1145 C1144 1.377 . S
C1145 C1146 1.379 . S
C1146 H1130 0.931 . S
C1146 C1140 1.383 . S
C1146 C1145 1.379 . S
H1147 C1141 0.959 . S
H1148 C1141 0.961 . S
H1149 C1141 0.960 . S
H1150 C1142 0.930 . S
H1151 C1143 0.929 . S
H1152 C1160 0.929 . S
H1153 C1162 0.930 . S
H1154 C1164 0.930 . S
H1155 C1167 0.929 . S
H1156 C1170 0.930 . S
H1157 C1172 0.960 . S
H1158 C1172 0.960 . S
H1159 C1172 0.960 . S
C1160 H1152 0.929 . S
C1160 C1161 1.377 . S
C1160 C1162 1.384 . S
C1161 C1160 1.377 . S
C1161 C1167 1.390 . S
C1162 H1153 0.930 . S
C1162 C1160 1.384 . S
C1162 C1163 1.372 . S
C1163 C1162 1.372 . S
C1163 C1164 1.400 . S
C1163 C1168 1.490 . S
C1164 H1154 0.930 . S
C1164 C1163 1.400 . S
C1164 C1167 1.386 . S
H1165 C1181 0.930 . S
H1166 C1182 0.931 . S
C1167 H1155 0.929 . S
C1167 C1161 1.390 . S
C1167 C1164 1.386 . S
C1168 C1163 1.490 . S
C1168 C1170 1.395 . S
C1168 C1171 1.403 . S
H1169 C1175 0.930 . S
C1170 H1156 0.930 . S
C1170 C1168 1.395 . S
C1170 C1173 1.403 . S
C1171 C1168 1.403 . S
C1171 C1172 1.524 . S
C1171 C1175 1.400 . S
C1172 H1157 0.960 . S
C1172 H1158 0.960 . S
C1172 H1159 0.960 . S
C1172 C1171 1.524 . S
C1173 C1170 1.403 . S
C1173 C1174 1.392 . S
C1173 C1177 1.495 . S
C1174 C1173 1.392 . S
C1174 C1175 1.385 . S
C1174 C1176 1.478 . S
C1175 H1169 0.930 . S
C1175 C1171 1.400 . S
C1175 C1174 1.385 . S
C1176 C1174 1.478 . S
C1176 C1178 1.381 . S
C1176 C1182 1.383 . S
C1177 C1173 1.495 . S
C1177 H1183 0.959 . S
C1177 H1184 0.961 . S
C1177 H1185 0.960 . S
C1178 C1176 1.381 . S
C1178 C1179 1.394 . S
C1178 H1186 0.930 . S
C1179 C1178 1.394 . S
C1179 C1180 1.383 . S
C1179 H1187 0.929 . S
C1180 C1179 1.383 . S
C1180 C1181 1.377 . S
C1181 H1165 0.930 . S
C1181 C1180 1.377 . S
C1181 C1182 1.379 . S
C1182 H1166 0.931 . S
C1182 C1176 1.383 . S
C1182 C1181 1.379 . S
H1183 C1177 0.959 . S
H1184 C1177 0.961 . S
H1185 C1177 0.960 . S
H1186 C1178 0.930 . S
H1187 C1179 0.929 . S
H1188 C1196 0.929 . S
H1189 C1198 0.930 . S
H1190 C1200 0.930 . S
H1191 C1203 0.929 . S
H1192 C1206 0.930 . S
H1193 C1208 0.960 . S
H1194 C1208 0.960 . S
H1195 C1208 0.960 . S
C1196 H1188 0.929 . S
C1196 C1197 1.377 . S
C1196 C1198 1.384 . S
C1197 C1196 1.377 . S
C1197 C1203 1.390 . S
C1198 H1189 0.930 . S
C1198 C1196 1.384 . S
C1198 C1199 1.372 . S
C1199 C1198 1.372 . S
C1199 C1200 1.400 . S
C1199 C1204 1.490 . S
C1200 H1190 0.930 . S
C1200 C1199 1.400 . S
C1200 C1203 1.386 . S
H1201 C1217 0.930 . S
H1202 C1218 0.931 . S
C1203 H1191 0.929 . S
C1203 C1197 1.390 . S
C1203 C1200 1.386 . S
C1204 C1199 1.490 . S
C1204 C1206 1.395 . S
C1204 C1207 1.403 . S
H1205 C1211 0.930 . S
C1206 H1192 0.930 . S
C1206 C1204 1.395 . S
C1206 C1209 1.403 . S
C1207 C1204 1.403 . S
C1207 C1208 1.524 . S
C1207 C1211 1.400 . S
C1208 H1193 0.960 . S
C1208 H1194 0.960 . S
C1208 H1195 0.960 . S
C1208 C1207 1.524 . S
C1209 C1206 1.403 . S
C1209 C1210 1.392 . S
C1209 C1213 1.495 . S
C1210 C1209 1.392 . S
C1210 C1211 1.385 . S
C1210 C1212 1.478 . S
C1211 H1205 0.930 . S
C1211 C1207 1.400 . S
C1211 C1210 1.385 . S
C1212 C1210 1.478 . S
C1212 C1214 1.381 . S
C1212 C1218 1.383 . S
C1213 C1209 1.495 . S
C1213 H1219 0.959 . S
C1213 H1220 0.961 . S
C1213 H1221 0.960 . S
C1214 C1212 1.381 . S
C1214 C1215 1.394 . S
C1214 H1222 0.930 . S
C1215 C1214 1.394 . S
C1215 C1216 1.383 . S
C1215 H1223 0.929 . S
C1216 C1215 1.383 . S
C1216 C1217 1.377 . S
C1217 H1201 0.930 . S
C1217 C1216 1.377 . S
C1217 C1218 1.379 . S
C1218 H1202 0.931 . S
C1218 C1212 1.383 . S
C1218 C1217 1.379 . S
H1219 C1213 0.959 . S
H1220 C1213 0.961 . S
H1221 C1213 0.960 . S
H1222 C1214 0.930 . S
H1223 C1215 0.929 . S
H1224 C1232 0.929 . S
H1225 C1234 0.930 . S
H1226 C1236 0.930 . S
H1227 C1239 0.929 . S
H1228 C1242 0.930 . S
H1229 C1244 0.960 . S
H1230 C1244 0.960 . S
H1231 C1244 0.960 . S
C1232 H1224 0.929 . S
C1232 C1233 1.377 . S
C1232 C1234 1.384 . S
C1233 C1232 1.377 . S
C1233 C1239 1.390 . S
C1234 H1225 0.930 . S
C1234 C1232 1.384 . S
C1234 C1235 1.372 . S
C1235 C1234 1.372 . S
C1235 C1236 1.400 . S
C1235 C1240 1.490 . S
C1236 H1226 0.930 . S
C1236 C1235 1.400 . S
C1236 C1239 1.386 . S
H1237 C1253 0.930 . S
H1238 C1254 0.931 . S
C1239 H1227 0.929 . S
C1239 C1233 1.390 . S
C1239 C1236 1.386 . S
C1240 C1235 1.490 . S
C1240 C1242 1.395 . S
C1240 C1243 1.403 . S
H1241 C1247 0.930 . S
C1242 H1228 0.930 . S
C1242 C1240 1.395 . S
C1242 C1245 1.403 . S
C1243 C1240 1.403 . S
C1243 C1244 1.524 . S
C1243 C1247 1.400 . S
C1244 H1229 0.960 . S
C1244 H1230 0.960 . S
C1244 H1231 0.960 . S
C1244 C1243 1.524 . S
C1245 C1242 1.403 . S
C1245 C1246 1.392 . S
C1245 C1249 1.495 . S
C1246 C1245 1.392 . S
C1246 C1247 1.385 . S
C1246 C1248 1.478 . S
C1247 H1241 0.930 . S
C1247 C1243 1.400 . S
C1247 C1246 1.385 . S
C1248 C1246 1.478 . S
C1248 C1250 1.381 . S
C1248 C1254 1.383 . S
C1249 C1245 1.495 . S
C1249 H1255 0.959 . S
C1249 H1256 0.961 . S
C1249 H1257 0.960 . S
C1250 C1248 1.381 . S
C1250 C1251 1.394 . S
C1250 H1258 0.930 . S
C1251 C1250 1.394 . S
C1251 C1252 1.383 . S
C1251 H1259 0.929 . S
C1252 C1251 1.383 . S
C1252 C1253 1.377 . S
C1253 H1237 0.930 . S
C1253 C1252 1.377 . S
C1253 C1254 1.379 . S
C1254 H1238 0.931 . S
C1254 C1248 1.383 . S
C1254 C1253 1.379 . S
H1255 C1249 0.959 . S
H1256 C1249 0.961 . S
H1257 C1249 0.960 . S
H1258 C1250 0.930 . S
H1259 C1251 0.929 . S
H1260 C1268 0.929 . S
H1261 C1270 0.930 . S
H1262 C1272 0.930 . S
H1263 C1275 0.929 . S
H1264 C1278 0.930 . S
H1265 C1280 0.960 . S
H1266 C1280 0.960 . S
H1267 C1280 0.960 . S
C1268 H1260 0.929 . S
C1268 C1269 1.377 . S
C1268 C1270 1.384 . S
C1269 C1268 1.377 . S
C1269 C1275 1.390 . S
C1270 H1261 0.930 . S
C1270 C1268 1.384 . S
C1270 C1271 1.372 . S
C1271 C1270 1.372 . S
C1271 C1272 1.400 . S
C1271 C1276 1.490 . S
C1272 H1262 0.930 . S
C1272 C1271 1.400 . S
C1272 C1275 1.386 . S
H1273 C1289 0.930 . S
H1274 C1290 0.931 . S
C1275 H1263 0.929 . S
C1275 C1269 1.390 . S
C1275 C1272 1.386 . S
C1276 C1271 1.490 . S
C1276 C1278 1.395 . S
C1276 C1279 1.403 . S
H1277 C1283 0.930 . S
C1278 H1264 0.930 . S
C1278 C1276 1.395 . S
C1278 C1281 1.403 . S
C1279 C1276 1.403 . S
C1279 C1280 1.524 . S
C1279 C1283 1.400 . S
C1280 H1265 0.960 . S
C1280 H1266 0.960 . S
C1280 H1267 0.960 . S
C1280 C1279 1.524 . S
C1281 C1278 1.403 . S
C1281 C1282 1.392 . S
C1281 C1285 1.495 . S
C1282 C1281 1.392 . S
C1282 C1283 1.385 . S
C1282 C1284 1.478 . S
C1283 H1277 0.930 . S
C1283 C1279 1.400 . S
C1283 C1282 1.385 . S
C1284 C1282 1.478 . S
C1284 C1286 1.381 . S
C1284 C1290 1.383 . S
C1285 C1281 1.495 . S
C1285 H1291 0.959 . S
C1285 H1292 0.961 . S
C1285 H1293 0.960 . S
C1286 C1284 1.381 . S
C1286 C1287 1.394 . S
C1286 H1294 0.930 . S
C1287 C1286 1.394 . S
C1287 C1288 1.383 . S
C1287 H1295 0.929 . S
C1288 C1287 1.383 . S
C1288 C1289 1.377 . S
C1289 H1273 0.930 . S
C1289 C1288 1.377 . S
C1289 C1290 1.379 . S
C1290 H1274 0.931 . S
C1290 C1284 1.383 . S
C1290 C1289 1.379 . S
H1291 C1285 0.959 . S
H1292 C1285 0.961 . S
H1293 C1285 0.960 . S
H1294 C1286 0.930 . S
H1295 C1287 0.929 . S
H1296 C1304 0.929 . S
H1297 C1306 0.930 . S
H1298 C1308 0.930 . S
H1299 C1311 0.929 . S
H1300 C1314 0.930 . S
H1301 C1316 0.960 . S
H1302 C1316 0.960 . S
H1303 C1316 0.960 . S
C1304 H1296 0.929 . S
C1304 C1305 1.377 . S
C1304 C1306 1.384 . S
C1305 C1304 1.377 . S
C1305 C1311 1.390 . S
C1306 H1297 0.930 . S
C1306 C1304 1.384 . S
C1306 C1307 1.372 . S
C1307 C1306 1.372 . S
C1307 C1308 1.400 . S
C1307 C1312 1.490 . S
C1308 H1298 0.930 . S
C1308 C1307 1.400 . S
C1308 C1311 1.386 . S
H1309 C1325 0.930 . S
H1310 C1326 0.931 . S
C1311 H1299 0.929 . S
C1311 C1305 1.390 . S
C1311 C1308 1.386 . S
C1312 C1307 1.490 . S
C1312 C1314 1.395 . S
C1312 C1315 1.403 . S
H1313 C1319 0.930 . S
C1314 H1300 0.930 . S
C1314 C1312 1.395 . S
C1314 C1317 1.403 . S
C1315 C1312 1.403 . S
C1315 C1316 1.524 . S
C1315 C1319 1.400 . S
C1316 H1301 0.960 . S
C1316 H1302 0.960 . S
C1316 H1303 0.960 . S
C1316 C1315 1.524 . S
C1317 C1314 1.403 . S
C1317 C1318 1.392 . S
C1317 C1321 1.495 . S
C1318 C1317 1.392 . S
C1318 C1319 1.385 . S
C1318 C1320 1.478 . S
C1319 H1313 0.930 . S
C1319 C1315 1.400 . S
C1319 C1318 1.385 . S
C1320 C1318 1.478 . S
C1320 C1322 1.381 . S
C1320 C1326 1.383 . S
C1321 C1317 1.495 . S
C1321 H1327 0.959 . S
C1321 H1328 0.961 . S
C1321 H1329 0.960 . S
C1322 C1320 1.381 . S
C1322 C1323 1.394 . S
C1322 H1330 0.930 . S
C1323 C1322 1.394 . S
C1323 C1324 1.383 . S
C1323 H1331 0.929 . S
C1324 C1323 1.383 . S
C1324 C1325 1.377 . S
C1325 H1309 0.930 . S
C1325 C1324 1.377 . S
C1325 C1326 1.379 . S
C1326 H1310 0.931 . S
C1326 C1320 1.383 . S
C1326 C1325 1.379 . S
H1327 C1321 0.959 . S
H1328 C1321 0.961 . S
H1329 C1321 0.960 . S
H1330 C1322 0.930 . S
H1331 C1323 0.929 . S
H1332 C1340 0.929 . S
H1333 C1342 0.930 . S
H1334 C1344 0.930 . S
H1335 C1347 0.929 . S
H1336 C1350 0.930 . S
H1337 C1352 0.960 . S
H1338 C1352 0.960 . S
H1339 C1352 0.960 . S
C1340 H1332 0.929 . S
C1340 C1341 1.377 . S
C1340 C1342 1.384 . S
C1341 C1340 1.377 . S
C1341 C1347 1.390 . S
C1342 H1333 0.930 . S
C1342 C1340 1.384 . S
C1342 C1343 1.372 . S
C1343 C1342 1.372 . S
C1343 C1344 1.400 . S
C1343 C1348 1.490 . S
C1344 H1334 0.930 . S
C1344 C1343 1.400 . S
C1344 C1347 1.386 . S
H1345 C1361 0.930 . S
H1346 C1362 0.931 . S
C1347 H1335 0.929 . S
C1347 C1341 1.390 . S
C1347 C1344 1.386 . S
C1348 C1343 1.490 . S
C1348 C1350 1.395 . S
C1348 C1351 1.403 . S
H1349 C1355 0.930 . S
C1350 H1336 0.930 . S
C1350 C1348 1.395 . S
C1350 C1353 1.403 . S
C1351 C1348 1.403 . S
C1351 C1352 1.524 . S
C1351 C1355 1.400 . S
C1352 H1337 0.960 . S
C1352 H1338 0.960 . S
C1352 H1339 0.960 . S
C1352 C1351 1.524 . S
C1353 C1350 1.403 . S
C1353 C1354 1.392 . S
C1353 C1357 1.495 . S
C1354 C1353 1.392 . S
C1354 C1355 1.385 . S
C1354 C1356 1.478 . S
C1355 H1349 0.930 . S
C1355 C1351 1.400 . S
C1355 C1354 1.385 . S
C1356 C1354 1.478 . S
C1356 C1358 1.381 . S
C1356 C1362 1.383 . S
C1357 C1353 1.495 . S
C1357 H1363 0.959 . S
C1357 H1364 0.961 . S
C1357 H1365 0.960 . S
C1358 C1356 1.381 . S
C1358 C1359 1.394 . S
C1358 H1366 0.930 . S
C1359 C1358 1.394 . S
C1359 C1360 1.383 . S
C1359 H1367 0.929 . S
C1360 C1359 1.383 . S
C1360 C1361 1.377 . S
C1361 H1345 0.930 . S
C1361 C1360 1.377 . S
C1361 C1362 1.379 . S
C1362 H1346 0.931 . S
C1362 C1356 1.383 . S
C1362 C1361 1.379 . S
H1363 C1357 0.959 . S
H1364 C1357 0.961 . S
H1365 C1357 0.960 . S
H1366 C1358 0.930 . S
H1367 C1359 0.929 . S
H1368 C1376 0.929 . S
H1369 C1378 0.930 . S
H1370 C1380 0.930 . S
H1371 C1383 0.929 . S
H1372 C1386 0.930 . S
H1373 C1388 0.960 . S
H1374 C1388 0.960 . S
H1375 C1388 0.960 . S
C1376 H1368 0.929 . S
C1376 C1377 1.377 . S
C1376 C1378 1.384 . S
C1377 C1376 1.377 . S
C1377 C1383 1.390 . S
C1378 H1369 0.930 . S
C1378 C1376 1.384 . S
C1378 C1379 1.372 . S
C1379 C1378 1.372 . S
C1379 C1380 1.400 . S
C1379 C1384 1.490 . S
C1380 H1370 0.930 . S
C1380 C1379 1.400 . S
C1380 C1383 1.386 . S
H1381 C1397 0.930 . S
H1382 C1398 0.931 . S
C1383 H1371 0.929 . S
C1383 C1377 1.390 . S
C1383 C1380 1.386 . S
C1384 C1379 1.490 . S
C1384 C1386 1.395 . S
C1384 C1387 1.403 . S
H1385 C1391 0.930 . S
C1386 H1372 0.930 . S
C1386 C1384 1.395 . S
C1386 C1389 1.403 . S
C1387 C1384 1.403 . S
C1387 C1388 1.524 . S
C1387 C1391 1.400 . S
C1388 H1373 0.960 . S
C1388 H1374 0.960 . S
C1388 H1375 0.960 . S
C1388 C1387 1.524 . S
C1389 C1386 1.403 . S
C1389 C1390 1.392 . S
C1389 C1393 1.495 . S
C1390 C1389 1.392 . S
C1390 C1391 1.385 . S
C1390 C1392 1.478 . S
C1391 H1385 0.930 . S
C1391 C1387 1.400 . S
C1391 C1390 1.385 . S
C1392 C1390 1.478 . S
C1392 C1394 1.381 . S
C1392 C1398 1.383 . S
C1393 C1389 1.495 . S
C1393 H1399 0.959 . S
C1393 H1400 0.961 . S
C1393 H1401 0.960 . S
C1394 C1392 1.381 . S
C1394 C1395 1.394 . S
C1394 H1402 0.930 . S
C1395 C1394 1.394 . S
C1395 C1396 1.383 . S
C1395 H1403 0.929 . S
C1396 C1395 1.383 . S
C1396 C1397 1.377 . S
C1397 H1381 0.930 . S
C1397 C1396 1.377 . S
C1397 C1398 1.379 . S
C1398 H1382 0.931 . S
C1398 C1392 1.383 . S
C1398 C1397 1.379 . S
H1399 C1393 0.959 . S
H1400 C1393 0.961 . S
H1401 C1393 0.960 . S
H1402 C1394 0.930 . S
H1403 C1395 0.929 . S
H1404 C1412 0.929 . S
H1405 C1414 0.930 . S
H1406 C1416 0.930 . S
H1407 C1419 0.929 . S
H1408 C1422 0.930 . S
H1409 C1424 0.960 . S
H1410 C1424 0.960 . S
H1411 C1424 0.960 . S
C1412 H1404 0.929 . S
C1412 C1413 1.377 . S
C1412 C1414 1.384 . S
C1413 C1412 1.377 . S
C1413 C1419 1.390 . S
C1414 H1405 0.930 . S
C1414 C1412 1.384 . S
C1414 C1415 1.372 . S
C1415 C1414 1.372 . S
C1415 C1416 1.400 . S
C1415 C1420 1.490 . S
C1416 H1406 0.930 . S
C1416 C1415 1.400 . S
C1416 C1419 1.386 . S
H1417 C1433 0.930 . S
H1418 C1434 0.931 . S
C1419 H1407 0.929 . S
C1419 C1413 1.390 . S
C1419 C1416 1.386 . S
C1420 C1415 1.490 . S
C1420 C1422 1.395 . S
C1420 C1423 1.403 . S
H1421 C1427 0.930 . S
C1422 H1408 0.930 . S
C1422 C1420 1.395 . S
C1422 C1425 1.403 . S
C1423 C1420 1.403 . S
C1423 C1424 1.524 . S
C1423 C1427 1.400 . S
C1424 H1409 0.960 . S
C1424 H1410 0.960 . S
C1424 H1411 0.960 . S
C1424 C1423 1.524 . S
C1425 C1422 1.403 . S
C1425 C1426 1.392 . S
C1425 C1429 1.495 . S
C1426 C1425 1.392 . S
C1426 C1427 1.385 . S
C1426 C1428 1.478 . S
C1427 H1421 0.930 . S
C1427 C1423 1.400 . S
C1427 C1426 1.385 . S
C1428 C1426 1.478 . S
C1428 C1430 1.381 . S
C1428 C1434 1.383 . S
C1429 C1425 1.495 . S
C1429 H1435 0.959 . S
C1429 H1436 0.961 . S
C1429 H1437 0.960 . S
C1430 C1428 1.381 . S
C1430 C1431 1.394 . S
C1430 H1438 0.930 . S
C1431 C1430 1.394 . S
C1431 C1432 1.383 . S
C1431 H1439 0.929 . S
C1432 C1431 1.383 . S
C1432 C1433 1.377 . S
C1433 H1417 0.930 . S
C1433 C1432 1.377 . S
C1433 C1434 1.379 . S
C1434 H1418 0.931 . S
C1434 C1428 1.383 . S
C1434 C1433 1.379 . S
H1435 C1429 0.959 . S
H1436 C1429 0.961 . S
H1437 C1429 0.960 . S
H1438 C1430 0.930 . S
H1439 C1431 0.929 . S
H1440 C1448 0.929 . S
H1441 C1450 0.930 . S
H1442 C1452 0.930 . S
H1443 C1455 0.918 1_655 S
H1444 C1458 0.930 . S
H1445 C1460 0.960 . S
H1446 C1460 0.960 . S
H1447 C1460 0.960 . S
C1448 H1440 0.929 . S
C1448 C1449 1.377 . S
C1448 C1450 1.384 . S
C1449 C1448 1.377 . S
C1449 C1455 1.405 . S
C1450 H1441 0.930 . S
C1450 C1448 1.384 . S
C1450 C1451 1.372 . S
C1451 C1450 1.372 . S
C1451 C1452 1.400 1_455 S
C1451 C1456 1.490 . S
C1452 H1442 0.930 . S
C1452 C1451 1.400 1_655 S
C1452 C1455 1.382 1_655 S
H1453 C1469 0.930 . S
H1454 C1470 0.931 . S
C1455 H1443 0.918 1_455 S
C1455 C1449 1.405 . S
C1455 C1452 1.382 1_455 S
C1456 C1451 1.490 . S
C1456 C1458 1.395 . S
C1456 C1459 1.403 1_455 S
H1457 C1463 0.930 . S
C1458 H1444 0.930 . S
C1458 C1456 1.395 . S
C1458 C1461 1.403 . S
C1459 C1456 1.403 1_655 S
C1459 C1460 1.524 . S
C1459 C1463 1.400 . S
C1460 H1445 0.960 . S
C1460 H1446 0.960 . S
C1460 H1447 0.960 . S
C1460 C1459 1.524 . S
C1461 C1458 1.403 . S
C1461 C1462 1.421 . S
C1461 C1465 1.495 . S
C1462 C1461 1.421 . S
C1462 C1463 1.361 1_455 S
C1462 C1464 1.473 1_455 S
C1463 H1457 0.930 . S
C1463 C1459 1.400 . S
C1463 C1462 1.361 1_655 S
C1464 C1462 1.473 1_655 S
C1464 C1466 1.381 1_655 S
C1464 C1470 1.383 . S
C1465 C1461 1.495 . S
C1465 H1471 0.959 . S
C1465 H1472 0.961 . S
C1465 H1473 0.960 . S
C1466 C1464 1.381 1_455 S
C1466 C1467 1.393 1_455 S
C1466 H1474 0.930 . S
C1467 C1466 1.393 1_655 S
C1467 C1468 1.387 . S
C1467 H1475 0.927 1_655 S
C1468 C1467 1.387 . S
C1468 C1469 1.377 . S
C1469 H1453 0.930 . S
C1469 C1468 1.377 . S
C1469 C1470 1.379 . S
C1470 H1454 0.931 . S
C1470 C1464 1.383 . S
C1470 C1469 1.379 . S
H1471 C1465 0.959 . S
H1472 C1465 0.961 . S
H1473 C1465 0.960 . S
H1474 C1466 0.930 . S
H1475 C1467 0.927 1_455 S
H1476 C1484 0.929 . S
H1477 C1486 0.930 . S
H1478 C1488 0.930 . S
H1479 C1491 0.929 . S
H1480 C1494 0.930 . S
H1481 C1496 0.960 . S
H1482 C1496 0.962 . S
H1483 C1496 0.960 . S
C1484 H1476 0.929 . S
C1484 C1485 1.377 1_545 S
C1484 C1486 1.384 . S
C1485 C1484 1.377 1_565 S
C1485 C1491 1.390 . S
C1486 H1477 0.930 . S
C1486 C1484 1.384 . S
C1486 C1487 1.372 1_545 S
C1487 C1486 1.372 1_565 S
C1487 C1488 1.400 . S
C1487 C1492 1.490 . S
C1488 H1478 0.930 . S
C1488 C1487 1.400 . S
C1488 C1491 1.386 . S
H1489 C1505 0.930 . S
H1490 C1506 0.931 . S
C1491 H1479 0.929 . S
C1491 C1485 1.390 . S
C1491 C1488 1.386 . S
C1492 C1487 1.490 . S
C1492 C1494 1.395 1_565 S
C1492 C1495 1.403 . S
H1493 C1499 0.930 . S
C1494 H1480 0.930 . S
C1494 C1492 1.395 1_545 S
C1494 C1497 1.403 . S
C1495 C1492 1.403 . S
C1495 C1496 1.524 . S
C1495 C1499 1.400 . S
C1496 H1481 0.960 . S
C1496 H1482 0.962 . S
C1496 H1483 0.960 . S
C1496 C1495 1.524 . S
C1497 C1494 1.403 . S
C1497 C1498 1.392 . S
C1497 C1501 1.495 . S
C1498 C1497 1.392 . S
C1498 C1499 1.385 1_545 S
C1498 C1500 1.478 . S
C1499 H1493 0.930 . S
C1499 C1495 1.400 . S
C1499 C1498 1.385 1_565 S
C1500 C1498 1.478 . S
C1500 C1502 1.381 . S
C1500 C1506 1.383 1_545 S
C1501 C1497 1.495 . S
C1501 H1507 0.959 . S
C1501 H1508 0.961 . S
C1501 H1509 0.960 . S
C1502 C1500 1.381 . S
C1502 C1503 1.394 . S
C1502 H1510 0.930 . S
C1503 C1502 1.394 . S
C1503 C1504 1.383 . S
C1503 H1511 0.929 . S
C1504 C1503 1.383 . S
C1504 C1505 1.377 1_545 S
C1505 H1489 0.930 . S
C1505 C1504 1.377 1_565 S
C1505 C1506 1.379 . S
C1506 H1490 0.931 . S
C1506 C1500 1.383 1_565 S
C1506 C1505 1.379 . S
H1507 C1501 0.959 . S
H1508 C1501 0.961 . S
H1509 C1501 0.960 . S
H1510 C1502 0.930 . S
H1511 C1503 0.929 . S
H1512 C1520 0.929 . S
H1513 C1522 0.930 . S
H1514 C1524 0.930 . S
H1515 C1527 0.929 . S
H1516 C1530 0.930 . S
H1517 C1532 0.960 . S
H1518 C1532 0.960 . S
H1519 C1532 0.960 . S
C1520 H1512 0.929 . S
C1520 C1521 1.377 1_655 S
C1520 C1522 1.384 . S
C1521 C1520 1.377 1_455 S
C1521 C1527 1.390 . S
C1522 H1513 0.930 . S
C1522 C1520 1.384 . S
C1522 C1523 1.372 1_655 S
C1523 C1522 1.372 1_455 S
C1523 C1524 1.400 . S
C1523 C1528 1.490 . S
C1524 H1514 0.930 . S
C1524 C1523 1.400 . S
C1524 C1527 1.386 . S
H1525 C1541 0.930 1_455 S
H1526 C1542 0.931 . S
C1527 H1515 0.929 . S
C1527 C1521 1.390 . S
C1527 C1524 1.386 . S
C1528 C1523 1.490 . S
C1528 C1530 1.395 1_455 S
C1528 C1531 1.403 . S
H1529 C1535 0.930 . S
C1530 H1516 0.930 . S
C1530 C1528 1.395 1_655 S
C1530 C1533 1.403 . S
C1531 C1528 1.403 . S
C1531 C1532 1.524 . S
C1531 C1535 1.400 . S
C1532 H1517 0.960 . S
C1532 H1518 0.960 . S
C1532 H1519 0.960 . S
C1532 C1531 1.524 . S
C1533 C1530 1.403 . S
C1533 C1534 1.392 . S
C1533 C1537 1.495 . S
C1534 C1533 1.392 . S
C1534 C1535 1.385 1_655 S
C1534 C1536 1.478 . S
C1535 H1529 0.930 . S
C1535 C1531 1.400 . S
C1535 C1534 1.385 1_455 S
C1536 C1534 1.478 . S
C1536 C1538 1.381 . S
C1536 C1542 1.383 1_655 S
C1537 C1533 1.495 . S
C1537 H1543 0.959 . S
C1537 H1544 0.961 . S
C1537 H1545 0.960 . S
C1538 C1536 1.381 . S
C1538 C1539 1.394 . S
C1538 H1546 0.930 . S
C1539 C1538 1.394 . S
C1539 C1540 1.383 . S
C1539 H1547 0.929 . S
C1540 C1539 1.383 . S
C1540 C1541 1.377 . S
C1541 H1525 0.930 1_655 S
C1541 C1540 1.377 . S
C1541 C1542 1.379 1_655 S
C1542 H1526 0.931 . S
C1542 C1536 1.383 1_455 S
C1542 C1541 1.379 1_455 S
H1543 C1537 0.959 . S
H1544 C1537 0.961 . S
H1545 C1537 0.960 . S
H1546 C1538 0.930 . S
H1547 C1539 0.929 . S
H1548 C1556 0.929 . S
H1549 C1558 0.930 . S
H1550 C1560 0.930 . S
H1551 C1563 0.929 . S
H1552 C1566 0.930 . S
H1553 C1568 0.960 . S
H1554 C1568 0.960 . S
H1555 C1568 0.960 . S
C1556 H1548 0.929 . S
C1556 C1557 1.377 . S
C1556 C1558 1.384 . S
C1557 C1556 1.377 . S
C1557 C1563 1.390 1_545 S
C1558 H1549 0.930 . S
C1558 C1556 1.384 . S
C1558 C1559 1.372 . S
C1559 C1558 1.372 . S
C1559 C1560 1.400 1_545 S
C1559 C1564 1.490 . S
C1560 H1550 0.930 . S
C1560 C1559 1.400 1_565 S
C1560 C1563 1.386 . S
H1561 C1577 0.930 . S
H1562 C1578 0.931 . S
C1563 H1551 0.929 . S
C1563 C1557 1.390 1_565 S
C1563 C1560 1.386 . S
C1564 C1559 1.490 . S
C1564 C1566 1.395 . S
C1564 C1567 1.403 1_545 S
H1565 C1571 0.930 . S
C1566 H1552 0.930 . S
C1566 C1564 1.395 . S
C1566 C1569 1.403 . S
C1567 C1564 1.403 1_565 S
C1567 C1568 1.524 . S
C1567 C1571 1.400 . S
C1568 H1553 0.960 . S
C1568 H1554 0.960 . S
C1568 H1555 0.960 . S
C1568 C1567 1.524 . S
C1569 C1566 1.403 . S
C1569 C1570 1.417 . S
C1569 C1573 1.495 . S
C1570 C1569 1.417 . S
C1570 C1571 1.364 1_545 S
C1570 C1572 1.473 1_545 S
C1571 H1565 0.930 . S
C1571 C1567 1.400 . S
C1571 C1570 1.364 1_565 S
C1572 C1570 1.473 1_565 S
C1572 C1574 1.381 1_565 S
C1572 C1578 1.383 . S
C1573 C1569 1.495 . S
C1573 H1579 0.959 . S
C1573 H1580 0.961 . S
C1573 H1581 0.960 . S
C1574 C1572 1.381 1_545 S
C1574 C1575 1.394 . S
C1574 H1582 0.930 . S
C1575 C1574 1.394 . S
C1575 C1576 1.383 1_545 S
C1575 H1583 0.929 . S
C1576 C1575 1.383 1_565 S
C1576 C1577 1.377 . S
C1577 H1561 0.930 . S
C1577 C1576 1.377 . S
C1577 C1578 1.379 . S
C1578 H1562 0.931 . S
C1578 C1572 1.383 . S
C1578 C1577 1.379 . S
H1579 C1573 0.959 . S
H1580 C1573 0.961 . S
H1581 C1573 0.960 . S
H1582 C1574 0.930 . S
H1583 C1575 0.929 . S
H1584 C1592 0.929 . S
H1585 C1594 0.930 . S
H1586 C1596 0.930 . S
H1587 C1599 0.929 . S
H1588 C1602 0.930 . S
H1589 C1604 0.960 . S
H1590 C1604 0.960 . S
H1591 C1604 0.960 . S
C1592 H1584 0.929 . S
C1592 C1593 1.377 . S
C1592 C1594 1.384 . S
C1593 C1592 1.377 . S
C1593 C1599 1.390 . S
C1594 H1585 0.930 . S
C1594 C1592 1.384 . S
C1594 C1595 1.372 . S
C1595 C1594 1.372 . S
C1595 C1596 1.400 . S
C1595 C1600 1.490 . S
C1596 H1586 0.930 . S
C1596 C1595 1.400 . S
C1596 C1599 1.386 . S
H1597 C1613 0.930 . S
H1598 C1614 0.931 . S
C1599 H1587 0.929 . S
C1599 C1593 1.390 . S
C1599 C1596 1.386 . S
C1600 C1595 1.490 . S
C1600 C1602 1.395 . S
C1600 C1603 1.403 . S
H1601 C1607 0.930 . S
C1602 H1588 0.930 . S
C1602 C1600 1.395 . S
C1602 C1605 1.403 1_556 S
C1603 C1600 1.403 . S
C1603 C1604 1.524 . S
C1603 C1607 1.400 1_556 S
C1604 H1589 0.960 . S
C1604 H1590 0.960 . S
C1604 H1591 0.960 . S
C1604 C1603 1.524 . S
C1605 C1602 1.403 1_554 S
C1605 C1606 1.392 . S
C1605 C1609 1.495 . S
C1606 C1605 1.392 . S
C1606 C1607 1.385 . S
C1606 C1608 1.478 . S
C1607 H1601 0.930 . S
C1607 C1603 1.400 1_554 S
C1607 C1606 1.385 . S
C1608 C1606 1.478 . S
C1608 C1610 1.381 . S
C1608 C1614 1.383 . S
C1609 C1605 1.495 . S
C1609 H1615 0.959 . S
C1609 H1616 0.961 . S
C1609 H1617 0.960 . S
C1610 C1608 1.381 . S
C1610 C1611 1.394 . S
C1610 H1618 0.930 . S
C1611 C1610 1.394 . S
C1611 C1612 1.383 . S
C1611 H1619 0.929 . S
C1612 C1611 1.383 . S
C1612 C1613 1.377 . S
C1613 H1597 0.930 . S
C1613 C1612 1.377 . S
C1613 C1614 1.379 . S
C1614 H1598 0.931 . S
C1614 C1608 1.383 . S
C1614 C1613 1.379 . S
H1615 C1609 0.959 . S
H1616 C1609 0.961 . S
H1617 C1609 0.960 . S
H1618 C1610 0.930 . S
H1619 C1611 0.929 . S
H1620 C1628 0.929 . S
H1621 C1630 0.930 . S
H1622 C1632 0.930 . S
H1623 C1635 0.929 . S
H1624 C1638 0.930 . S
H1625 C1640 0.960 . S
H1626 C1640 0.960 . S
H1627 C1640 0.960 . S
C1628 H1620 0.929 . S
C1628 C1629 1.377 . S
C1628 C1630 1.384 . S
C1629 C1628 1.377 . S
C1629 C1635 1.390 . S
C1630 H1621 0.930 . S
C1630 C1628 1.384 . S
C1630 C1631 1.372 . S
C1631 C1630 1.372 . S
C1631 C1632 1.400 . S
C1631 C1636 1.490 . S
C1632 H1622 0.930 . S
C1632 C1631 1.400 . S
C1632 C1635 1.386 . S
H1633 C1649 0.930 . S
H1634 C1650 0.931 . S
C1635 H1623 0.929 . S
C1635 C1629 1.390 . S
C1635 C1632 1.386 . S
C1636 C1631 1.490 . S
C1636 C1638 1.395 . S
C1636 C1639 1.403 . S
H1637 C1643 0.930 . S
C1638 H1624 0.930 . S
C1638 C1636 1.395 . S
C1638 C1641 1.403 1_556 S
C1639 C1636 1.403 . S
C1639 C1640 1.524 . S
C1639 C1643 1.400 1_556 S
C1640 H1625 0.960 . S
C1640 H1626 0.960 . S
C1640 H1627 0.960 . S
C1640 C1639 1.524 . S
C1641 C1638 1.403 1_554 S
C1641 C1642 1.392 . S
C1641 C1645 1.495 . S
C1642 C1641 1.392 . S
C1642 C1643 1.385 . S
C1642 C1644 1.478 . S
C1643 H1637 0.930 . S
C1643 C1639 1.400 1_554 S
C1643 C1642 1.385 . S
C1644 C1642 1.478 . S
C1644 C1646 1.381 . S
C1644 C1650 1.383 . S
C1645 C1641 1.495 . S
C1645 H1651 0.959 . S
C1645 H1652 0.961 . S
C1645 H1653 0.960 . S
C1646 C1644 1.381 . S
C1646 C1647 1.394 . S
C1646 H1654 0.930 . S
C1647 C1646 1.394 . S
C1647 C1648 1.383 . S
C1647 H1655 0.929 . S
C1648 C1647 1.383 . S
C1648 C1649 1.377 . S
C1649 H1633 0.930 . S
C1649 C1648 1.377 . S
C1649 C1650 1.379 . S
C1650 H1634 0.931 . S
C1650 C1644 1.383 . S
C1650 C1649 1.379 . S
H1651 C1645 0.959 . S
H1652 C1645 0.961 . S
H1653 C1645 0.960 . S
H1654 C1646 0.930 . S
H1655 C1647 0.929 . S
H1656 C1664 0.929 . S
H1657 C1666 0.930 . S
H1658 C1668 0.930 . S
H1659 C1671 0.929 . S
H1660 C1674 0.930 . S
H1661 C1676 0.960 . S
H1662 C1676 0.960 . S
H1663 C1676 0.960 . S
C1664 H1656 0.929 . S
C1664 C1665 1.377 . S
C1664 C1666 1.384 . S
C1665 C1664 1.377 . S
C1665 C1671 1.390 . S
C1666 H1657 0.930 . S
C1666 C1664 1.384 . S
C1666 C1667 1.372 . S
C1667 C1666 1.372 . S
C1667 C1668 1.400 . S
C1667 C1672 1.490 . S
C1668 H1658 0.930 . S
C1668 C1667 1.400 . S
C1668 C1671 1.386 . S
H1669 C1685 0.930 . S
H1670 C1686 0.931 . S
C1671 H1659 0.929 . S
C1671 C1665 1.390 . S
C1671 C1668 1.386 . S
C1672 C1667 1.490 . S
C1672 C1674 1.395 . S
C1672 C1675 1.403 . S
H1673 C1679 0.930 . S
C1674 H1660 0.930 . S
C1674 C1672 1.395 . S
C1674 C1677 1.403 1_554 S
C1675 C1672 1.403 . S
C1675 C1676 1.524 . S
C1675 C1679 1.400 1_554 S
C1676 H1661 0.960 . S
C1676 H1662 0.960 . S
C1676 H1663 0.960 . S
C1676 C1675 1.524 . S
C1677 C1674 1.403 1_556 S
C1677 C1678 1.392 . S
C1677 C1681 1.495 . S
C1678 C1677 1.392 . S
C1678 C1679 1.385 . S
C1678 C1680 1.478 . S
C1679 H1673 0.930 . S
C1679 C1675 1.400 1_556 S
C1679 C1678 1.385 . S
C1680 C1678 1.478 . S
C1680 C1682 1.381 . S
C1680 C1686 1.383 . S
C1681 C1677 1.495 . S
C1681 H1687 0.959 . S
C1681 H1688 0.961 . S
C1681 H1689 0.960 . S
C1682 C1680 1.381 . S
C1682 C1683 1.394 . S
C1682 H1690 0.930 . S
C1683 C1682 1.394 . S
C1683 C1684 1.383 . S
C1683 H1691 0.929 . S
C1684 C1683 1.383 . S
C1684 C1685 1.377 . S
C1685 H1669 0.930 . S
C1685 C1684 1.377 . S
C1685 C1686 1.379 . S
C1686 H1670 0.931 . S
C1686 C1680 1.383 . S
C1686 C1685 1.379 . S
H1687 C1681 0.959 . S
H1688 C1681 0.961 . S
H1689 C1681 0.960 . S
H1690 C1682 0.930 . S
H1691 C1683 0.929 . S
H1692 C1700 0.929 . S
H1693 C1702 0.930 . S
H1694 C1704 0.930 . S
H1695 C1707 0.929 . S
H1696 C1710 0.930 . S
H1697 C1712 0.960 . S
H1698 C1712 0.960 . S
H1699 C1712 0.960 . S
C1700 H1692 0.929 . S
C1700 C1701 1.377 . S
C1700 C1702 1.384 . S
C1701 C1700 1.377 . S
C1701 C1707 1.390 . S
C1702 H1693 0.930 . S
C1702 C1700 1.384 . S
C1702 C1703 1.372 . S
C1703 C1702 1.372 . S
C1703 C1704 1.400 . S
C1703 C1708 1.490 . S
C1704 H1694 0.930 . S
C1704 C1703 1.400 . S
C1704 C1707 1.386 . S
H1705 C1721 0.930 . S
H1706 C1722 0.931 . S
C1707 H1695 0.929 . S
C1707 C1701 1.390 . S
C1707 C1704 1.386 . S
C1708 C1703 1.490 . S
C1708 C1710 1.395 . S
C1708 C1711 1.403 . S
H1709 C1715 0.930 . S
C1710 H1696 0.930 . S
C1710 C1708 1.395 . S
C1710 C1713 1.403 1_556 S
C1711 C1708 1.403 . S
C1711 C1712 1.524 . S
C1711 C1715 1.400 1_556 S
C1712 H1697 0.960 . S
C1712 H1698 0.960 . S
C1712 H1699 0.960 . S
C1712 C1711 1.524 . S
C1713 C1710 1.403 1_554 S
C1713 C1714 1.392 . S
C1713 C1717 1.495 . S
C1714 C1713 1.392 . S
C1714 C1715 1.385 . S
C1714 C1716 1.478 . S
C1715 H1709 0.930 . S
C1715 C1711 1.400 1_554 S
C1715 C1714 1.385 . S
C1716 C1714 1.478 . S
C1716 C1718 1.381 . S
C1716 C1722 1.383 . S
C1717 C1713 1.495 . S
C1717 H1723 0.959 . S
C1717 H1724 0.961 . S
C1717 H1725 0.960 . S
C1718 C1716 1.381 . S
C1718 C1719 1.394 . S
C1718 H1726 0.930 . S
C1719 C1718 1.394 . S
C1719 C1720 1.383 . S
C1719 H1727 0.929 . S
C1720 C1719 1.383 . S
C1720 C1721 1.377 . S
C1721 H1705 0.930 . S
C1721 C1720 1.377 . S
C1721 C1722 1.379 . S
C1722 H1706 0.931 . S
C1722 C1716 1.383 . S
C1722 C1721 1.379 . S
H1723 C1717 0.959 . S
H1724 C1717 0.961 . S
H1725 C1717 0.960 . S
H1726 C1718 0.930 . S
H1727 C1719 0.929 . S
C585 C14 1.334 . S
C604 C111 1.360 . S
C621 C3 1.368 . S
C640 C50 1.310 . S
C657 C39 1.369 . S
C676 C86 1.307 . S
C693 C75 1.369 . S
C712 C122 1.306 . S
C729 C158 1.345 . S
C748 C183 1.384 . S
C765 C194 1.346 . S
C784 C219 1.387 . S
C801 C230 1.346 . S
C820 C255 1.387 . S
C837 C266 1.337 . S
C856 C147 1.369 . S
C873 C302 1.338 . S
C892 C399 1.374 . S
C909 C291 1.370 . S
C928 C338 1.312 . S
C945 C327 1.368 . S
C964 C374 1.305 . S
C981 C410 1.345 . S
C1000 C363 1.382 . S
C1017 C471 1.368 . S
C1036 C446 1.305 . S
C1053 C507 1.369 . S
C1072 C482 1.307 . S
C1089 C518 1.345 . S
C1108 C543 1.382 . S
C1125 C554 1.340 . S
C1144 C435 1.363 . S
C1161 C4 1.029 . S
C1180 C544 1.043 . S
C1197 C40 1.032 . S
C1216 C436 1.057 . S
C1233 C472 1.033 . S
C1252 C76 1.062 . S
C1269 C112 1.028 . S
C1288 C508 1.042 . S
C1305 C328 1.021 . S
C1324 C148 1.002 . S
C1341 C364 1.025 . S
C1360 C184 1.025 . S
C1377 C220 1.016 . S
C1396 C400 0.982 . S
C1413 C256 1.025 . S
C1432 C292 1.026 . S
C1449 C2 1.597 . S
C1468 C218 1.593 . S
C1485 C254 1.598 . S
C1504 C38 1.591 . S
C1521 C146 1.599 . S
C1540 C74 1.595 . S
C1557 C182 1.597 . S
C1576 C110 1.593 . S
C1593 C290 1.598 . S
C1612 C506 1.591 . S
C1629 C326 1.599 . S
C1648 C542 1.599 . S
C1665 C434 1.598 . S
C1684 C362 1.592 . S
C1701 C398 1.597 . S
C1720 C470 1.590 . S
