# Generated by pormake.
# Topology wlm, (5)-cn, num edge types: 1
# Building blocks:
#     Node 0, Type 0, BuildingBlock: BEQFEK_clean_sbu_0, # of connection points: 5
#     Node 1, Type 0, BuildingBlock: BEQFEK_clean_sbu_0, # of connection points: 5
#     Node 2, Type 0, BuildingBlock: BEQFEK_clean_sbu_0, # of connection points: 5
#     Node 3, Type 0, BuildingBlock: BEQFEK_clean_sbu_0, # of connection points: 5
#     Node 4, Type 0, BuildingBlock: BEQFEK_clean_sbu_0, # of connection points: 5
#     Node 5, Type 0, BuildingBlock: BEQFEK_clean_sbu_0, # of connection points: 5
#     Node 6, Type 0, BuildingBlock: BEQFEK_clean_sbu_0, # of connection points: 5
#     Node 7, Type 0, BuildingBlock: BEQFEK_clean_sbu_0, # of connection points: 5
#     Node 8, Type 0, BuildingBlock: BEQFEK_clean_sbu_0, # of connection points: 5
#     Node 9, Type 0, BuildingBlock: BEQFEK_clean_sbu_0, # of connection points: 5
#     Node 10, Type 0, BuildingBlock: BEQFEK_clean_sbu_0, # of connection points: 5
#     Node 11, Type 0, BuildingBlock: BEQFEK_clean_sbu_0, # of connection points: 5
#     Node 12, Type 0, BuildingBlock: BEQFEK_clean_sbu_0, # of connection points: 5
#     Node 13, Type 0, BuildingBlock: BEQFEK_clean_sbu_0, # of connection points: 5
#     Node 14, Type 0, BuildingBlock: BEQFEK_clean_sbu_0, # of connection points: 5
#     Node 15, Type 0, BuildingBlock: BEQFEK_clean_sbu_0, # of connection points: 5
#     Node 16, Type 0, BuildingBlock: BEQFEK_clean_sbu_0, # of connection points: 5
#     Node 17, Type 0, BuildingBlock: BEQFEK_clean_sbu_0, # of connection points: 5
#     Node 18, Type 0, BuildingBlock: BEQFEK_clean_sbu_0, # of connection points: 5
#     Node 19, Type 0, BuildingBlock: BEQFEK_clean_sbu_0, # of connection points: 5
#     Node 20, Type 0, BuildingBlock: BEQFEK_clean_sbu_0, # of connection points: 5
#     Node 21, Type 0, BuildingBlock: BEQFEK_clean_sbu_0, # of connection points: 5
#     Node 22, Type 0, BuildingBlock: BEQFEK_clean_sbu_0, # of connection points: 5
#     Node 23, Type 0, BuildingBlock: BEQFEK_clean_sbu_0, # of connection points: 5
#     Node 24, Type 0, BuildingBlock: BEQFEK_clean_sbu_0, # of connection points: 5
#     Node 25, Type 0, BuildingBlock: BEQFEK_clean_sbu_0, # of connection points: 5
#     Node 26, Type 0, BuildingBlock: BEQFEK_clean_sbu_0, # of connection points: 5
#     Node 27, Type 0, BuildingBlock: BEQFEK_clean_sbu_0, # of connection points: 5
#     Node 28, Type 0, BuildingBlock: BEQFEK_clean_sbu_0, # of connection points: 5
#     Node 29, Type 0, BuildingBlock: BEQFEK_clean_sbu_0, # of connection points: 5
#     Node 30, Type 0, BuildingBlock: BEQFEK_clean_sbu_0, # of connection points: 5
#     Node 31, Type 0, BuildingBlock: BEQFEK_clean_sbu_0, # of connection points: 5
#     Node 32, Type 0, BuildingBlock: BEQFEK_clean_sbu_0, # of connection points: 5
#     Node 33, Type 0, BuildingBlock: BEQFEK_clean_sbu_0, # of connection points: 5
#     Node 34, Type 0, BuildingBlock: BEQFEK_clean_sbu_0, # of connection points: 5
#     Node 35, Type 0, BuildingBlock: BEQFEK_clean_sbu_0, # of connection points: 5
#     Edge 36, Type (0, 0), BuildingBlock: AJUNOK_clean_linker_0, # of connection points: 2
#     Edge 37, Type (0, 0), BuildingBlock: AJUNOK_clean_linker_0, # of connection points: 2
#     Edge 38, Type (0, 0), BuildingBlock: AJUNOK_clean_linker_0, # of connection points: 2
#     Edge 39, Type (0, 0), BuildingBlock: AJUNOK_clean_linker_0, # of connection points: 2
#     Edge 40, Type (0, 0), BuildingBlock: AJUNOK_clean_linker_0, # of connection points: 2
#     Edge 41, Type (0, 0), BuildingBlock: AJUNOK_clean_linker_0, # of connection points: 2
#     Edge 42, Type (0, 0), BuildingBlock: AJUNOK_clean_linker_0, # of connection points: 2
#     Edge 43, Type (0, 0), BuildingBlock: AJUNOK_clean_linker_0, # of connection points: 2
#     Edge 44, Type (0, 0), BuildingBlock: AJUNOK_clean_linker_0, # of connection points: 2
#     Edge 45, Type (0, 0), BuildingBlock: AJUNOK_clean_linker_0, # of connection points: 2
#     Edge 46, Type (0, 0), BuildingBlock: AJUNOK_clean_linker_0, # of connection points: 2
#     Edge 47, Type (0, 0), BuildingBlock: AJUNOK_clean_linker_0, # of connection points: 2
#     Edge 48, Type (0, 0), BuildingBlock: AJUNOK_clean_linker_0, # of connection points: 2
#     Edge 49, Type (0, 0), BuildingBlock: AJUNOK_clean_linker_0, # of connection points: 2
#     Edge 50, Type (0, 0), BuildingBlock: AJUNOK_clean_linker_0, # of connection points: 2
#     Edge 51, Type (0, 0), BuildingBlock: AJUNOK_clean_linker_0, # of connection points: 2
#     Edge 52, Type (0, 0), BuildingBlock: AJUNOK_clean_linker_0, # of connection points: 2
#     Edge 53, Type (0, 0), BuildingBlock: AJUNOK_clean_linker_0, # of connection points: 2
#     Edge 54, Type (0, 0), BuildingBlock: AJUNOK_clean_linker_0, # of connection points: 2
#     Edge 55, Type (0, 0), BuildingBlock: AJUNOK_clean_linker_0, # of connection points: 2
#     Edge 56, Type (0, 0), BuildingBlock: AJUNOK_clean_linker_0, # of connection points: 2
#     Edge 57, Type (0, 0), BuildingBlock: AJUNOK_clean_linker_0, # of connection points: 2
#     Edge 58, Type (0, 0), BuildingBlock: AJUNOK_clean_linker_0, # of connection points: 2
#     Edge 59, Type (0, 0), BuildingBlock: AJUNOK_clean_linker_0, # of connection points: 2
#     Edge 60, Type (0, 0), BuildingBlock: AJUNOK_clean_linker_0, # of connection points: 2
#     Edge 61, Type (0, 0), BuildingBlock: AJUNOK_clean_linker_0, # of connection points: 2
#     Edge 62, Type (0, 0), BuildingBlock: AJUNOK_clean_linker_0, # of connection points: 2
#     Edge 63, Type (0, 0), BuildingBlock: AJUNOK_clean_linker_0, # of connection points: 2
#     Edge 64, Type (0, 0), BuildingBlock: AJUNOK_clean_linker_0, # of connection points: 2
#     Edge 65, Type (0, 0), BuildingBlock: AJUNOK_clean_linker_0, # of connection points: 2
#     Edge 66, Type (0, 0), BuildingBlock: AJUNOK_clean_linker_0, # of connection points: 2
#     Edge 67, Type (0, 0), BuildingBlock: AJUNOK_clean_linker_0, # of connection points: 2
#     Edge 68, Type (0, 0), BuildingBlock: AJUNOK_clean_linker_0, # of connection points: 2
#     Edge 69, Type (0, 0), BuildingBlock: AJUNOK_clean_linker_0, # of connection points: 2
#     Edge 70, Type (0, 0), BuildingBlock: AJUNOK_clean_linker_0, # of connection points: 2
#     Edge 71, Type (0, 0), BuildingBlock: AJUNOK_clean_linker_0, # of connection points: 2
#     Edge 72, Type (0, 0), BuildingBlock: AJUNOK_clean_linker_0, # of connection points: 2
#     Edge 73, Type (0, 0), BuildingBlock: AJUNOK_clean_linker_0, # of connection points: 2
#     Edge 74, Type (0, 0), BuildingBlock: AJUNOK_clean_linker_0, # of connection points: 2
#     Edge 75, Type (0, 0), BuildingBlock: AJUNOK_clean_linker_0, # of connection points: 2
#     Edge 76, Type (0, 0), BuildingBlock: AJUNOK_clean_linker_0, # of connection points: 2
#     Edge 77, Type (0, 0), BuildingBlock: AJUNOK_clean_linker_0, # of connection points: 2
#     Edge 78, Type (0, 0), BuildingBlock: AJUNOK_clean_linker_0, # of connection points: 2
#     Edge 79, Type (0, 0), BuildingBlock: AJUNOK_clean_linker_0, # of connection points: 2
#     Edge 80, Type (0, 0), BuildingBlock: AJUNOK_clean_linker_0, # of connection points: 2
#     Edge 81, Type (0, 0), BuildingBlock: AJUNOK_clean_linker_0, # of connection points: 2
#     Edge 82, Type (0, 0), BuildingBlock: AJUNOK_clean_linker_0, # of connection points: 2
#     Edge 83, Type (0, 0), BuildingBlock: AJUNOK_clean_linker_0, # of connection points: 2
#     Edge 84, Type (0, 0), BuildingBlock: AJUNOK_clean_linker_0, # of connection points: 2
#     Edge 85, Type (0, 0), BuildingBlock: AJUNOK_clean_linker_0, # of connection points: 2
#     Edge 86, Type (0, 0), BuildingBlock: AJUNOK_clean_linker_0, # of connection points: 2
#     Edge 87, Type (0, 0), BuildingBlock: AJUNOK_clean_linker_0, # of connection points: 2
#     Edge 88, Type (0, 0), BuildingBlock: AJUNOK_clean_linker_0, # of connection points: 2
#     Edge 89, Type (0, 0), BuildingBlock: AJUNOK_clean_linker_0, # of connection points: 2
#     Edge 90, Type (0, 0), BuildingBlock: AJUNOK_clean_linker_0, # of connection points: 2
#     Edge 91, Type (0, 0), BuildingBlock: AJUNOK_clean_linker_0, # of connection points: 2
#     Edge 92, Type (0, 0), BuildingBlock: AJUNOK_clean_linker_0, # of connection points: 2
#     Edge 93, Type (0, 0), BuildingBlock: AJUNOK_clean_linker_0, # of connection points: 2
#     Edge 94, Type (0, 0), BuildingBlock: AJUNOK_clean_linker_0, # of connection points: 2
#     Edge 95, Type (0, 0), BuildingBlock: AJUNOK_clean_linker_0, # of connection points: 2
#     Edge 96, Type (0, 0), BuildingBlock: AJUNOK_clean_linker_0, # of connection points: 2
#     Edge 97, Type (0, 0), BuildingBlock: AJUNOK_clean_linker_0, # of connection points: 2
#     Edge 98, Type (0, 0), BuildingBlock: AJUNOK_clean_linker_0, # of connection points: 2
#     Edge 99, Type (0, 0), BuildingBlock: AJUNOK_clean_linker_0, # of connection points: 2
#     Edge 100, Type (0, 0), BuildingBlock: AJUNOK_clean_linker_0, # of connection points: 2
#     Edge 101, Type (0, 0), BuildingBlock: AJUNOK_clean_linker_0, # of connection points: 2
#     Edge 102, Type (0, 0), BuildingBlock: AJUNOK_clean_linker_0, # of connection points: 2
#     Edge 103, Type (0, 0), BuildingBlock: AJUNOK_clean_linker_0, # of connection points: 2
#     Edge 104, Type (0, 0), BuildingBlock: AJUNOK_clean_linker_0, # of connection points: 2
#     Edge 105, Type (0, 0), BuildingBlock: AJUNOK_clean_linker_0, # of connection points: 2
#     Edge 106, Type (0, 0), BuildingBlock: AJUNOK_clean_linker_0, # of connection points: 2
#     Edge 107, Type (0, 0), BuildingBlock: AJUNOK_clean_linker_0, # of connection points: 2
#     Edge 108, Type (0, 0), BuildingBlock: AJUNOK_clean_linker_0, # of connection points: 2
#     Edge 109, Type (0, 0), BuildingBlock: AJUNOK_clean_linker_0, # of connection points: 2
#     Edge 110, Type (0, 0), BuildingBlock: AJUNOK_clean_linker_0, # of connection points: 2
#     Edge 111, Type (0, 0), BuildingBlock: AJUNOK_clean_linker_0, # of connection points: 2
#     Edge 112, Type (0, 0), BuildingBlock: AJUNOK_clean_linker_0, # of connection points: 2
#     Edge 113, Type (0, 0), BuildingBlock: AJUNOK_clean_linker_0, # of connection points: 2
#     Edge 114, Type (0, 0), BuildingBlock: AJUNOK_clean_linker_0, # of connection points: 2
#     Edge 115, Type (0, 0), BuildingBlock: AJUNOK_clean_linker_0, # of connection points: 2
#     Edge 116, Type (0, 0), BuildingBlock: AJUNOK_clean_linker_0, # of connection points: 2
#     Edge 117, Type (0, 0), BuildingBlock: AJUNOK_clean_linker_0, # of connection points: 2
#     Edge 118, Type (0, 0), BuildingBlock: AJUNOK_clean_linker_0, # of connection points: 2
#     Edge 119, Type (0, 0), BuildingBlock: AJUNOK_clean_linker_0, # of connection points: 2
#     Edge 120, Type (0, 0), BuildingBlock: AJUNOK_clean_linker_0, # of connection points: 2
#     Edge 121, Type (0, 0), BuildingBlock: AJUNOK_clean_linker_0, # of connection points: 2
#     Edge 122, Type (0, 0), BuildingBlock: AJUNOK_clean_linker_0, # of connection points: 2
#     Edge 123, Type (0, 0), BuildingBlock: AJUNOK_clean_linker_0, # of connection points: 2
#     Edge 124, Type (0, 0), BuildingBlock: AJUNOK_clean_linker_0, # of connection points: 2
#     Edge 125, Type (0, 0), BuildingBlock: AJUNOK_clean_linker_0, # of connection points: 2
# Relax obj value: 0.060
# Max RMSD: 0.106
# Mean RMSD: 0.106
data_MOF--net-wlm--node1-BEQFEK_clean_sbu_0--edge1-AJUNOK_clean_linker_0
_symmetry_space_group_name_H-M    P1
_symmetry_Int_Tables_number       1
_symmetry_cell_setting            triclinic
loop_
_symmetry_equiv_pos_as_xyz
'x, y, z'
_cell_length_a     96.112133
_cell_length_b     96.147495
_cell_length_c     15.427334
_cell_angle_alpha  89.992096
_cell_angle_beta   89.994403
_cell_angle_gamma 119.99262
loop_
_atom_site_label
_atom_site_type_symbol
_atom_site_fract_x
_atom_site_fract_y
_atom_site_fract_z
_atom_type_partial_charge
Co0 Co 0.14717 0.40217 0.33365 0.0
Co1 Co 0.14452 0.3943 0.13563 0.0
C2 C 0.17591 0.407 0.23122 0.0
O3 O 0.16952 0.40779 0.30223 0.0
O4 O 0.1677 0.4021 0.16141 0.0
C5 C 0.15676 0.4131 0.51191 0.0
O6 O 0.17174 0.42099 0.48536 0.0
C7 C 0.14989 0.39781 0.94599 0.0
C8 C 0.12487 0.38452 0.89856 0.0
C9 C 0.1406 0.39414 0.87141 0.0
N10 N 0.14002 0.39122 0.01423 0.0
N11 N 0.12512 0.38303 0.98513 0.0
C12 C 0.16777 0.40626 0.95262 0.0
H13 H 0.17117 0.39894 0.99331 0.0
H14 H 0.17212 0.41804 0.98492 0.0
H15 H 0.17354 0.40799 0.88824 0.0
C16 C 0.13274 0.42179 0.27542 0.0
N17 N 0.13892 0.41213 0.26017 0.0
N18 N 0.13849 0.40938 0.1764 0.0
C19 C 0.13254 0.41769 0.13544 0.0
C20 C 0.12834 0.42553 0.19667 0.0
C21 C 0.13026 0.42643 0.36417 0.0
H22 H 0.12471 0.41566 0.40652 0.0
H23 H 0.14211 0.43507 0.3924 0.0
H24 H 0.12252 0.43194 0.36284 0.0
O25 O 0.13355 0.37882 0.32866 0.0
O26 O 0.13103 0.37256 0.18975 0.0
H27 H 0.12146 0.40821 0.01283 0.0
H28 H 0.13074 0.42969 0.0209 0.0
C29 C 0.13193 0.41917 0.03908 0.0
H30 H 0.14306 0.42057 0.0095 0.0
H31 H 0.11505 0.37692 0.02488 0.0
O32 O 0.14547 0.40607 0.45734 0.0
C33 C 0.12793 0.36838 0.26892 0.0
Co34 Co 0.60306 0.74554 0.33978 0.0
Co35 Co 0.61095 0.75096 0.14219 0.0
C36 C 0.59895 0.77004 0.23962 0.0
O37 O 0.59764 0.76256 0.31023 0.0
O38 O 0.60385 0.76659 0.17047 0.0
C39 C 0.59274 0.74475 0.51796 0.0
O40 O 0.58533 0.75234 0.49166 0.0
C41 C 0.60684 0.75252 0.95201 0.0
C42 C 0.62381 0.74506 0.90468 0.0
C43 C 0.61254 0.74905 0.87699 0.0
N44 N 0.61422 0.75035 0.02059 0.0
N45 N 0.62448 0.74609 0.99155 0.0
C46 C 0.59473 0.75792 0.95874 0.0
H47 H 0.59758 0.7662 0.01408 0.0
H48 H 0.58266 0.74733 0.9699 0.0
H49 H 0.59444 0.76411 0.89861 0.0
C50 C 0.58327 0.71156 0.27935 0.0
N51 N 0.59295 0.72742 0.26501 0.0
N52 N 0.59584 0.72986 0.18141 0.0
C53 C 0.58772 0.71568 0.13964 0.0
C54 C 0.57958 0.70354 0.20006 0.0
C55 C 0.57892 0.70425 0.36785 0.0
H56 H 0.58959 0.71008 0.41082 0.0
H57 H 0.56955 0.70644 0.3957 0.0
H58 H 0.57438 0.69113 0.36595 0.0
O59 O 0.62657 0.75522 0.33543 0.0
O60 O 0.63249 0.75886 0.19603 0.0
H61 H 0.599 0.7156 0.02029 0.0
H62 H 0.57762 0.70177 0.02237 0.0
C63 C 0.58727 0.7138 0.04319 0.0
H64 H 0.58506 0.72292 0.0126 0.0
H65 H 0.63165 0.74347 0.03136 0.0
O66 O 0.599 0.73969 0.46305 0.0
C67 C 0.63686 0.76001 0.27481 0.0
Co68 Co 0.26087 0.85677 0.34363 0.0
Co69 Co 0.25558 0.86186 0.14796 0.0
C70 C 0.23634 0.82965 0.23565 0.0
O71 O 0.24393 0.835 0.30677 0.0
O72 O 0.23967 0.83877 0.16963 0.0
C73 C 0.25522 0.84918 0.51994 0.0
O74 O 0.2406 0.84037 0.48932 0.0
C75 C 0.25526 0.85688 0.95943 0.0
C76 C 0.25957 0.88019 0.90872 0.0
C77 C 0.25764 0.8655 0.88337 0.0
N78 N 0.25599 0.86614 0.02662 0.0
N79 N 0.25837 0.87998 0.99571 0.0
C80 C 0.25369 0.84067 0.96911 0.0
H81 H 0.25856 0.83973 0.0327 0.0
H82 H 0.26003 0.83836 0.91585 0.0
H83 H 0.24077 0.83139 0.96657 0.0
C84 C 0.29461 0.87088 0.28219 0.0
N85 N 0.27884 0.86523 0.26807 0.0
N86 N 0.27663 0.86716 0.18567 0.0
C87 C 0.29096 0.87395 0.14471 0.0
C88 C 0.30279 0.87647 0.2043 0.0
C89 C 0.30169 0.87156 0.36945 0.0
H90 H 0.29497 0.85963 0.40109 0.0
H91 H 0.3146 0.87523 0.36465 0.0
H92 H 0.30035 0.88029 0.41065 0.0
O93 O 0.25159 0.87094 0.34625 0.0
O94 O 0.24814 0.87533 0.20935 0.0
H95 H 0.30649 0.88583 0.03462 0.0
H96 H 0.28723 0.86867 0.00939 0.0
C97 C 0.29356 0.8793 0.05208 0.0
H98 H 0.28854 0.88731 0.04074 0.0
H99 H 0.25963 0.88947 0.03422 0.0
O100 O 0.26676 0.85659 0.4668 0.0
C101 C 0.24713 0.87755 0.29007 0.0
Co102 Co 0.40574 0.14651 0.66295 0.0
Co103 Co 0.39559 0.14192 0.85878 0.0
C104 C 0.40862 0.17394 0.77023 0.0
O105 O 0.41074 0.16836 0.69964 0.0
O106 O 0.40281 0.165 0.83687 0.0
C107 C 0.40683 0.15375 0.48767 0.0
O108 O 0.40026 0.16177 0.51993 0.0
C109 C 0.39916 0.14696 0.04815 0.0
C110 C 0.38204 0.12263 0.09638 0.0
C111 C 0.3935 0.13787 0.12331 0.0
N112 N 0.39158 0.13742 0.97991 0.0
N113 N 0.38121 0.12297 0.00939 0.0
C114 C 0.41266 0.1639 0.04031 0.0
H115 H 0.41919 0.16555 0.97842 0.0
H116 H 0.42112 0.16714 0.09557 0.0
H117 H 0.40764 0.17208 0.04024 0.0
C118 C 0.42514 0.13208 0.72478 0.0
N119 N 0.41513 0.13789 0.7384 0.0
N120 N 0.41133 0.13652 0.82118 0.0
C121 C 0.41917 0.13016 0.86322 0.0
C122 C 0.42812 0.12703 0.80372 0.0
C123 C 0.43049 0.13017 0.6367 0.0
H124 H 0.4203 0.12578 0.59058 0.0
H125 H 0.44009 0.14205 0.61343 0.0
H126 H 0.43511 0.12165 0.63762 0.0
O127 O 0.38235 0.13248 0.66067 0.0
O128 O 0.37457 0.12844 0.79764 0.0
H129 H 0.4065 0.11779 0.97781 0.0
H130 H 0.42775 0.12466 0.98132 0.0
C131 C 0.41858 0.12764 0.95922 0.0
H132 H 0.42086 0.13876 0.99266 0.0
H133 H 0.37393 0.11318 0.96983 0.0
O134 O 0.41176 0.14686 0.53962 0.0
C135 C 0.3713 0.12605 0.71702 0.0
Co136 Co 0.86122 0.25911 0.657 0.0
Co137 Co 0.8637 0.25459 0.85524 0.0
C138 C 0.83258 0.23518 0.7596 0.0
O139 O 0.83885 0.24232 0.68835 0.0
O140 O 0.84087 0.23888 0.82909 0.0
C141 C 0.85193 0.26242 0.47925 0.0
O142 O 0.83755 0.2587 0.50677 0.0
C143 C 0.85776 0.25389 0.04371 0.0
C144 C 0.88229 0.26271 0.09419 0.0
C145 C 0.86682 0.25839 0.1193 0.0
N146 N 0.86761 0.25601 0.97681 0.0
N147 N 0.88219 0.26106 0.00766 0.0
C148 C 0.84003 0.2471 0.0347 0.0
H149 H 0.83769 0.25609 0.00295 0.0
H150 H 0.83385 0.2436 0.09834 0.0
H151 H 0.83501 0.23635 0.99264 0.0
C152 C 0.87547 0.29338 0.71176 0.0
N153 N 0.86927 0.27759 0.72849 0.0
N154 N 0.86963 0.27552 0.81257 0.0
C155 C 0.87556 0.28989 0.8523 0.0
C156 C 0.87967 0.30175 0.79 0.0
C157 C 0.87854 0.30027 0.62222 0.0
H158 H 0.88302 0.29396 0.58045 0.0
H159 H 0.86707 0.29833 0.59417 0.0
H160 H 0.88742 0.31332 0.62248 0.0
O161 O 0.87508 0.24958 0.66406 0.0
O162 O 0.87731 0.24632 0.80407 0.0
H163 H 0.88669 0.2909 0.97398 0.0
H164 H 0.87857 0.30421 0.96681 0.0
C165 C 0.87661 0.2922 0.94853 0.0
H166 H 0.86529 0.28302 0.97891 0.0
H167 H 0.89218 0.26381 0.96921 0.0
O168 O 0.86264 0.26402 0.53284 0.0
C169 C 0.88056 0.24497 0.72557 0.0
Co170 Co 0.74672 0.60173 0.65816 0.0
Co171 Co 0.75273 0.60964 0.85585 0.0
C172 C 0.77096 0.59687 0.75878 0.0
O173 O 0.76364 0.59624 0.68856 0.0
O174 O 0.76784 0.60166 0.82948 0.0
C175 C 0.74757 0.59294 0.48007 0.0
O176 O 0.75752 0.5882 0.50644 0.0
C177 C 0.75547 0.60747 0.04657 0.0
C178 C 0.74398 0.6212 0.09038 0.0
C179 C 0.75037 0.61199 0.12036 0.0
N180 N 0.7518 0.61338 0.97667 0.0
N181 N 0.74523 0.62182 0.00358 0.0
C182 C 0.76438 0.59845 0.04173 0.0
H183 H 0.77417 0.60431 0.99348 0.0
H184 H 0.75608 0.58598 0.01988 0.0
H185 H 0.76975 0.59827 0.10504 0.0
C186 C 0.71281 0.58259 0.72098 0.0
N187 N 0.72876 0.592 0.73403 0.0
N188 N 0.7315 0.59465 0.81762 0.0
C189 C 0.71744 0.58648 0.86062 0.0
C190 C 0.70505 0.57887 0.80099 0.0
C191 C 0.7052 0.57817 0.63324 0.0
H192 H 0.71118 0.58867 0.58921 0.0
H193 H 0.70691 0.56846 0.60596 0.0
H194 H 0.69216 0.574 0.6363 0.0
O195 O 0.7565 0.62516 0.66092 0.0
O196 O 0.76089 0.63115 0.79999 0.0
H197 H 0.71648 0.59568 0.98535 0.0
H198 H 0.70438 0.5742 0.97644 0.0
C199 C 0.71594 0.58483 0.95718 0.0
H200 H 0.72593 0.58353 0.98393 0.0
H201 H 0.74103 0.62752 0.9623 0.0
O202 O 0.74058 0.59716 0.53518 0.0
C203 C 0.76165 0.63549 0.72132 0.0
Co204 Co 0.85987 0.60137 0.65052 0.0
Co205 Co 0.86266 0.60949 0.84832 0.0
C206 C 0.83128 0.5969 0.75403 0.0
O207 O 0.8376 0.59602 0.68293 0.0
O208 O 0.83954 0.60182 0.82361 0.0
C209 C 0.85011 0.59337 0.47222 0.0
O210 O 0.8357 0.58974 0.49856 0.0
C211 C 0.85788 0.60777 0.03904 0.0
C212 C 0.88312 0.62034 0.08301 0.0
C213 C 0.86744 0.61189 0.1129 0.0
N214 N 0.86752 0.61316 0.96913 0.0
N215 N 0.88258 0.62093 0.99612 0.0
C216 C 0.83998 0.59964 0.03421 0.0
H217 H 0.83655 0.60592 0.9859 0.0
H218 H 0.83516 0.58705 0.01257 0.0
H219 H 0.8346 0.59982 0.0975 0.0
C220 C 0.8743 0.58179 0.7107 0.0
N221 N 0.86812 0.59147 0.72514 0.0
N222 N 0.86832 0.59413 0.80889 0.0
C223 C 0.87398 0.58565 0.85068 0.0
C224 C 0.87821 0.57771 0.79014 0.0
C225 C 0.87765 0.5778 0.62218 0.0
H226 H 0.88213 0.58847 0.57948 0.0
H227 H 0.86629 0.56813 0.59393 0.0
H228 H 0.88663 0.57378 0.62433 0.0
O229 O 0.87365 0.62477 0.65272 0.0
O230 O 0.87627 0.63093 0.79195 0.0
H231 H 0.88551 0.59479 0.97265 0.0
H232 H 0.87458 0.57322 0.96616 0.0
C233 C 0.87447 0.5843 0.94717 0.0
H234 H 0.86382 0.58399 0.97671 0.0
H235 H 0.89251 0.62614 0.95488 0.0
O236 O 0.86116 0.59674 0.52735 0.0
C237 C 0.87939 0.63513 0.71281 0.0
Co238 Co 0.4071 0.25967 0.66106 0.0
Co239 Co 0.39644 0.25416 0.85654 0.0
C240 C 0.40939 0.2349 0.7684 0.0
O241 O 0.41178 0.2426 0.69757 0.0
O242 O 0.40355 0.23819 0.83438 0.0
C243 C 0.40901 0.25405 0.48474 0.0
O244 O 0.40313 0.23944 0.51557 0.0
C245 C 0.40108 0.25374 0.04512 0.0
C246 C 0.38222 0.25826 0.096 0.0
C247 C 0.39493 0.25624 0.12124 0.0
N248 N 0.39255 0.25451 0.97801 0.0
N249 N 0.38117 0.25701 0.00903 0.0
C250 C 0.41567 0.25209 0.03527 0.0
H251 H 0.42149 0.25696 0.97168 0.0
H252 H 0.42435 0.25838 0.08851 0.0
H253 H 0.41199 0.23916 0.03766 0.0
C254 C 0.4268 0.29332 0.72399 0.0
N255 N 0.4166 0.27754 0.73733 0.0
N256 N 0.41221 0.27524 0.8194 0.0
C257 C 0.4196 0.28953 0.86072 0.0
C258 C 0.42914 0.3014 0.80197 0.0
C259 C 0.43323 0.30056 0.63706 0.0
H260 H 0.43873 0.29408 0.60564 0.0
H261 H 0.44225 0.31353 0.64233 0.0
H262 H 0.42314 0.29901 0.59538 0.0
O263 O 0.38364 0.25044 0.65824 0.0
O264 O 0.37559 0.24682 0.7948 0.0
H265 H 0.42331 0.30497 0.9711 0.0
H266 H 0.42076 0.28553 0.99606 0.0
C267 C 0.41671 0.29207 0.95319 0.0
H268 H 0.40369 0.28726 0.96368 0.0
H269 H 0.37297 0.25834 0.9706 0.0
O270 O 0.4132 0.26561 0.53778 0.0
C271 C 0.37248 0.24592 0.71394 0.0
Co272 Co 0.74771 0.1462 0.66091 0.0
Co273 Co 0.75269 0.14335 0.85872 0.0
C274 C 0.77203 0.17455 0.76045 0.0
O275 O 0.76454 0.16848 0.68988 0.0
O276 O 0.76859 0.16612 0.82938 0.0
C277 C 0.74352 0.15502 0.48322 0.0
O278 O 0.74647 0.16914 0.51109 0.0
C279 C 0.75227 0.14966 0.04627 0.0
C280 C 0.74814 0.12666 0.10099 0.0
C281 C 0.74956 0.14125 0.12361 0.0
N282 N 0.75195 0.1402 0.98107 0.0
N283 N 0.74967 0.12656 0.01446 0.0
C284 C 0.75584 0.16658 0.03409 0.0
H285 H 0.76552 0.17273 0.98553 0.0
H286 H 0.74497 0.16647 0.00893 0.0
H287 H 0.75965 0.17342 0.09575 0.0
C288 C 0.7138 0.13308 0.71941 0.0
N289 N 0.72953 0.13859 0.73462 0.0
N290 N 0.73165 0.13749 0.81812 0.0
C291 C 0.71732 0.13133 0.85867 0.0
C292 C 0.70557 0.12842 0.79771 0.0
C293 C 0.70688 0.13201 0.63128 0.0
H294 H 0.71382 0.14374 0.59781 0.0
H295 H 0.69403 0.12864 0.63488 0.0
H296 H 0.70806 0.12294 0.59248 0.0
O297 O 0.75721 0.13222 0.66843 0.0
O298 O 0.76033 0.12927 0.80767 0.0
H299 H 0.7199 0.11937 0.96922 0.0
H300 H 0.70167 0.12031 0.96956 0.0
C301 C 0.71462 0.12698 0.95278 0.0
H302 H 0.7206 0.13807 0.9923 0.0
H303 H 0.74879 0.11703 0.97785 0.0
O304 O 0.74252 0.14451 0.53656 0.0
C305 C 0.76161 0.12627 0.72866 0.0
Co306 Co 0.60429 0.8598 0.3357 0.0
Co307 Co 0.61193 0.86203 0.1378 0.0
C308 C 0.59958 0.83095 0.23624 0.0
O309 O 0.59848 0.83734 0.30648 0.0
O310 O 0.60452 0.83916 0.16652 0.0
C311 C 0.59205 0.85064 0.51333 0.0
O312 O 0.58205 0.83606 0.48571 0.0
C313 C 0.60681 0.8559 0.94899 0.0
C314 C 0.62302 0.88028 0.89819 0.0
C315 C 0.61157 0.86491 0.87314 0.0
N316 N 0.61469 0.8657 0.01585 0.0
N317 N 0.62453 0.88018 0.98475 0.0
C318 C 0.59555 0.83824 0.95835 0.0
H319 H 0.60085 0.83311 0.00282 0.0
H320 H 0.58411 0.83618 0.98746 0.0
H321 H 0.59314 0.83197 0.89509 0.0
C322 C 0.58459 0.87415 0.27628 0.0
N323 N 0.59422 0.86792 0.2617 0.0
N324 N 0.59702 0.86829 0.17798 0.0
C325 C 0.58889 0.87438 0.13647 0.0
C326 C 0.58098 0.8786 0.19721 0.0
C327 C 0.57982 0.87663 0.36471 0.0
H328 H 0.59043 0.88179 0.40815 0.0
H329 H 0.5708 0.86482 0.39184 0.0
H330 H 0.57466 0.88468 0.36303 0.0
O331 O 0.62775 0.87331 0.32916 0.0
O332 O 0.63372 0.87569 0.18984 0.0
H333 H 0.59945 0.88486 0.01429 0.0
H334 H 0.5782 0.87778 0.02038 0.0
C335 C 0.58782 0.87525 0.03998 0.0
H336 H 0.58514 0.86365 0.01099 0.0
H337 H 0.63191 0.89012 0.02307 0.0
O338 O 0.60068 0.8616 0.45966 0.0
C339 C 0.63808 0.87884 0.26871 0.0
Co340 Co 0.14798 0.74498 0.33801 0.0
Co341 Co 0.14368 0.7506 0.14156 0.0
C342 C 0.17565 0.76927 0.23085 0.0
O343 O 0.16992 0.76159 0.30128 0.0
O344 O 0.1668 0.76623 0.16393 0.0
C345 C 0.15581 0.75187 0.51106 0.0
O346 O 0.16325 0.76617 0.47523 0.0
C347 C 0.14941 0.75221 0.95317 0.0
C348 C 0.12562 0.7462 0.90125 0.0
C349 C 0.14087 0.74965 0.87652 0.0
N350 N 0.1396 0.75029 0.01997 0.0
N351 N 0.12545 0.74687 0.98839 0.0
C352 C 0.16601 0.75479 0.96383 0.0
H353 H 0.16668 0.74864 0.02325 0.0
H354 H 0.16961 0.75033 0.90656 0.0
H355 H 0.17457 0.76783 0.97157 0.0
C356 C 0.13293 0.71107 0.27662 0.0
N357 N 0.13914 0.72694 0.2628 0.0
N358 N 0.13781 0.7294 0.17998 0.0
C359 C 0.13098 0.71516 0.13827 0.0
C360 C 0.12744 0.70303 0.1981 0.0
C361 C 0.13134 0.7038 0.36437 0.0
H362 H 0.12726 0.70969 0.41175 0.0
H363 H 0.1433 0.70599 0.38566 0.0
H364 H 0.12276 0.69068 0.36384 0.0
O365 O 0.13419 0.75466 0.33903 0.0
O366 O 0.13041 0.75846 0.20166 0.0
H367 H 0.11905 0.71608 0.02318 0.0
H368 H 0.1249 0.70089 0.02071 0.0
C369 C 0.12848 0.71324 0.04225 0.0
H370 H 0.13978 0.72168 0.00879 0.0
H371 H 0.11555 0.74456 0.02649 0.0
O372 O 0.14852 0.73964 0.46205 0.0
C373 C 0.12797 0.75942 0.28216 0.0
Co374 Co 0.26082 0.40358 0.33875 0.0
Co375 Co 0.25533 0.39462 0.14145 0.0
C376 C 0.2365 0.40739 0.23295 0.0
O377 O 0.24384 0.40864 0.30385 0.0
O378 O 0.23981 0.40226 0.1642 0.0
C379 C 0.25404 0.4044 0.5113 0.0
O380 O 0.23972 0.39736 0.47549 0.0
C381 C 0.25406 0.3985 0.9524 0.0
C382 C 0.2597 0.38031 0.90301 0.0
C383 C 0.25649 0.3922 0.87683 0.0
N384 N 0.25578 0.39072 0.02028 0.0
N385 N 0.259 0.37976 0.9902 0.0
C386 C 0.25172 0.4127 0.96052 0.0
H387 H 0.25656 0.41889 0.02328 0.0
H388 H 0.25763 0.42121 0.90608 0.0
H389 H 0.23869 0.40847 0.95835 0.0
C390 C 0.29483 0.42282 0.27723 0.0
N391 N 0.27894 0.41321 0.26339 0.0
N392 N 0.27648 0.40978 0.1802 0.0
C393 C 0.2907 0.41737 0.13832 0.0
C394 C 0.30286 0.42571 0.19833 0.0
C395 C 0.30215 0.42815 0.36515 0.0
H396 H 0.29629 0.41799 0.41145 0.0
H397 H 0.29996 0.43782 0.38828 0.0
H398 H 0.31528 0.43271 0.36398 0.0
O399 O 0.25142 0.3801 0.33907 0.0
O400 O 0.24739 0.37343 0.20042 0.0
H401 H 0.28971 0.40507 0.02093 0.0
H402 H 0.30491 0.42609 0.02073 0.0
C403 C 0.29257 0.41723 0.04202 0.0
H404 H 0.28412 0.42027 0.01011 0.0
H405 H 0.26111 0.37215 0.02936 0.0
O406 O 0.26629 0.40948 0.46234 0.0
C407 C 0.24654 0.3695 0.27996 0.0
Co408 Co 0.81488 0.73734 0.68281 0.0
Co409 Co 0.81127 0.72837 0.48565 0.0
C410 C 0.84285 0.74083 0.58218 0.0
O411 O 0.83709 0.74278 0.65265 0.0
O412 O 0.83411 0.73537 0.51451 0.0
C413 C 0.82359 0.74996 0.86173 0.0
O414 O 0.83801 0.76071 0.83521 0.0
C415 C 0.81752 0.73499 0.29791 0.0
C416 C 0.79469 0.71591 0.24277 0.0
C417 C 0.80918 0.72926 0.22034 0.0
N418 N 0.80811 0.72572 0.363 0.0
N419 N 0.79458 0.71424 0.32932 0.0
C420 C 0.83434 0.74851 0.31045 0.0
H421 H 0.84059 0.7451 0.35894 0.0
H422 H 0.83402 0.75914 0.33586 0.0
H423 H 0.84123 0.75169 0.24892 0.0
C424 C 0.80151 0.75773 0.62185 0.0
N425 N 0.80693 0.74741 0.60783 0.0
N426 N 0.80545 0.74368 0.52489 0.0
C427 C 0.79912 0.75162 0.48358 0.0
C428 C 0.79651 0.76084 0.54337 0.0
C429 C 0.80088 0.76415 0.70909 0.0
H430 H 0.81254 0.76851 0.74267 0.0
H431 H 0.79811 0.77403 0.70393 0.0
H432 H 0.79148 0.75428 0.74869 0.0
O433 O 0.80118 0.71391 0.67736 0.0
O434 O 0.79736 0.7068 0.53959 0.0
H435 H 0.78695 0.73646 0.37532 0.0
H436 H 0.78734 0.75537 0.3733 0.0
C437 C 0.79435 0.74943 0.39002 0.0
H438 H 0.80529 0.75463 0.34915 0.0
H439 H 0.78508 0.70548 0.36575 0.0
O440 O 0.81303 0.74089 0.8073 0.0
C441 C 0.79491 0.70312 0.61966 0.0
Co442 Co 0.27006 0.07908 0.66308 0.0
Co443 Co 0.27931 0.08392 0.46651 0.0
C444 C 0.26719 0.10363 0.55564 0.0
O445 O 0.26525 0.09619 0.62706 0.0
O446 O 0.27252 0.10003 0.48874 0.0
C447 C 0.26844 0.085 0.83854 0.0
O448 O 0.27474 0.09963 0.8073 0.0
C449 C 0.27526 0.08476 0.27722 0.0
C450 C 0.29303 0.07842 0.22908 0.0
C451 C 0.28121 0.08169 0.20231 0.0
N452 N 0.28306 0.08317 0.3455 0.0
N453 N 0.2938 0.07958 0.3161 0.0
C454 C 0.26124 0.08742 0.28414 0.0
H455 H 0.25611 0.08464 0.35048 0.0
H456 H 0.25186 0.07985 0.23626 0.0
H457 H 0.26528 0.10015 0.26902 0.0
C458 C 0.25032 0.04506 0.60418 0.0
N459 N 0.26021 0.06085 0.58894 0.0
N460 N 0.26365 0.06301 0.50573 0.0
C461 C 0.25571 0.04869 0.46502 0.0
C462 C 0.24705 0.03679 0.52586 0.0
C463 C 0.24547 0.03803 0.69308 0.0
H464 H 0.25598 0.04381 0.73714 0.0
H465 H 0.23618 0.04058 0.71848 0.0
H466 H 0.24067 0.02487 0.69284 0.0
O467 O 0.29356 0.08827 0.66414 0.0
O468 O 0.30038 0.09137 0.52562 0.0
H469 H 0.26819 0.04894 0.34967 0.0
H470 H 0.24701 0.03419 0.34833 0.0
C471 C 0.25606 0.04649 0.36913 0.0
H472 H 0.25343 0.05505 0.3353 0.0
H473 H 0.30136 0.07747 0.35568 0.0
O474 O 0.264 0.07336 0.78592 0.0
C475 C 0.30421 0.09259 0.60546 0.0
Co476 Co 0.92822 0.19072 0.6769 0.0
Co477 Co 0.92287 0.19543 0.48099 0.0
C478 C 0.90372 0.16327 0.57216 0.0
O479 O 0.91142 0.16862 0.64308 0.0
O480 O 0.90697 0.17239 0.50604 0.0
C481 C 0.92647 0.18194 0.85654 0.0
O482 O 0.91436 0.16801 0.8329 0.0
C483 C 0.92021 0.1906 0.28983 0.0
C484 C 0.9328 0.21584 0.24639 0.0
C485 C 0.9261 0.20022 0.21594 0.0
N486 N 0.92388 0.2002 0.35978 0.0
N487 N 0.93103 0.21524 0.33289 0.0
C488 C 0.91061 0.17268 0.29463 0.0
H489 H 0.90191 0.169 0.3485 0.0
H490 H 0.91877 0.16785 0.30695 0.0
H491 H 0.90378 0.16748 0.23393 0.0
C492 C 0.96188 0.2046 0.61612 0.0
N493 N 0.94615 0.19914 0.60162 0.0
N494 N 0.94393 0.2006 0.51867 0.0
C495 C 0.95822 0.20664 0.47758 0.0
C496 C 0.97001 0.20943 0.53784 0.0
C497 C 0.96899 0.20576 0.70382 0.0
H498 H 0.96261 0.19385 0.73601 0.0
H499 H 0.98202 0.20989 0.69968 0.0
H500 H 0.96719 0.2143 0.74412 0.0
O501 O 0.91827 0.20424 0.67748 0.0
O502 O 0.91532 0.209 0.54057 0.0
H503 H 0.97284 0.21239 0.36203 0.0
H504 H 0.9515 0.20027 0.34485 0.0
C505 C 0.96091 0.21035 0.38287 0.0
H506 H 0.96044 0.22142 0.36932 0.0
H507 H 0.93539 0.22515 0.37414 0.0
O508 O 0.93479 0.19225 0.79924 0.0
C509 C 0.91378 0.21079 0.6212 0.0
Co510 Co 0.07268 0.48023 0.98819 0.0
Co511 Co 0.0624 0.47558 0.18361 0.0
C512 C 0.07547 0.5077 0.09065 0.0
O513 O 0.07808 0.5024 0.02027 0.0
O514 O 0.06948 0.49855 0.15657 0.0
C515 C 0.08044 0.48882 0.8083 0.0
O516 O 0.08353 0.50323 0.83124 0.0
C517 C 0.06542 0.4807 0.37467 0.0
C518 C 0.05112 0.45559 0.41895 0.0
C519 C 0.06112 0.47108 0.4489 0.0
N520 N 0.05872 0.47116 0.30512 0.0
N521 N 0.04989 0.45623 0.33256 0.0
C522 C 0.07522 0.4986 0.3691 0.0
H523 H 0.0714 0.50298 0.31298 0.0
H524 H 0.08806 0.50226 0.36051 0.0
H525 H 0.07376 0.5043 0.42829 0.0
C526 C 0.09242 0.46641 0.05012 0.0
N527 N 0.08213 0.47186 0.06411 0.0
N528 N 0.07822 0.47023 0.14675 0.0
C529 C 0.08628 0.46401 0.1882 0.0
C530 C 0.09546 0.46133 0.1284 0.0
C531 C 0.09878 0.46566 0.96285 0.0
H532 H 0.10375 0.4775 0.93039 0.0
H533 H 0.10821 0.46225 0.96778 0.0
H534 H 0.08874 0.45671 0.92234 0.0
O535 O 0.04919 0.46689 0.98837 0.0
O536 O 0.0412 0.46196 0.12477 0.0
H537 H 0.0935 0.45634 0.3035 0.0
H538 H 0.08609 0.47 0.32162 0.0
C539 C 0.08454 0.45969 0.28228 0.0
H540 H 0.0724 0.4493 0.29387 0.0
H541 H 0.0436 0.44636 0.29171 0.0
O542 O 0.07751 0.47831 0.86604 0.0
C543 C 0.03803 0.46034 0.04399 0.0
Co544 Co 0.52647 0.59329 0.98559 0.0
Co545 Co 0.53052 0.58786 0.18198 0.0
C546 C 0.49877 0.56863 0.09087 0.0
O547 O 0.50456 0.57626 0.02032 0.0
O548 O 0.5075 0.57192 0.15853 0.0
C549 C 0.51847 0.58785 0.80983 0.0
O550 O 0.50952 0.57326 0.84053 0.0
C551 C 0.52529 0.58744 0.3701 0.0
C552 C 0.54876 0.5922 0.42107 0.0
C553 C 0.53398 0.59009 0.44606 0.0
N554 N 0.53462 0.58824 0.30315 0.0
N555 N 0.54855 0.59086 0.33419 0.0
C556 C 0.50896 0.58558 0.36026 0.0
H557 H 0.50791 0.59032 0.29647 0.0
H558 H 0.50651 0.59188 0.41325 0.0
H559 H 0.49982 0.57263 0.36319 0.0
C560 C 0.54008 0.627 0.04771 0.0
N561 N 0.53456 0.61124 0.06145 0.0
N562 N 0.53595 0.60891 0.14437 0.0
C563 C 0.54226 0.62314 0.18605 0.0
C564 C 0.54502 0.63504 0.12639 0.0
C565 C 0.54094 0.63416 0.96048 0.0
H566 H 0.52908 0.62741 0.92806 0.0
H567 H 0.5445 0.64703 0.96542 0.0
H568 H 0.54979 0.63292 0.91987 0.0
O569 O 0.54078 0.58404 0.98437 0.0
O570 O 0.54423 0.58057 0.12286 0.0
H571 H 0.5548 0.62069 0.29416 0.0
H572 H 0.55309 0.63848 0.29811 0.0
C573 C 0.54679 0.6256 0.27994 0.0
H574 H 0.53581 0.61913 0.32001 0.0
H575 H 0.5581 0.59225 0.2958 0.0
O576 O 0.52632 0.5993 0.86281 0.0
C577 C 0.54701 0.5796 0.043 0.0
Co578 Co 0.41326 0.93514 0.99401 0.0
Co579 Co 0.41897 0.94448 0.19035 0.0
C580 C 0.4372 0.93076 0.09818 0.0
O581 O 0.4296 0.92905 0.02746 0.0
O582 O 0.4342 0.93652 0.16565 0.0
C583 C 0.41489 0.92797 0.81458 0.0
O584 O 0.42662 0.92558 0.83868 0.0
C585 C 0.42185 0.94286 0.38146 0.0
C586 C 0.40836 0.95471 0.42333 0.0
C587 C 0.41566 0.94641 0.45468 0.0
N588 N 0.4178 0.94831 0.31095 0.0
N589 N 0.4101 0.95572 0.33682 0.0
C590 C 0.43207 0.9352 0.37762 0.0
H591 H 0.44093 0.94067 0.32462 0.0
H592 H 0.42439 0.92219 0.36402 0.0
H593 H 0.43871 0.93692 0.43912 0.0
C594 C 0.37935 0.91644 0.05479 0.0
N595 N 0.39522 0.92612 0.06878 0.0
N596 N 0.39774 0.92927 0.15209 0.0
C597 C 0.38356 0.92112 0.19419 0.0
C598 C 0.37138 0.91304 0.13399 0.0
C599 C 0.37203 0.91136 0.96667 0.0
H600 H 0.37719 0.92191 0.92273 0.0
H601 H 0.37511 0.90253 0.93991 0.0
H602 H 0.35878 0.90593 0.96858 0.0
O603 O 0.42388 0.95863 0.99471 0.0
O604 O 0.4274 0.96589 0.13235 0.0
H605 H 0.38143 0.93024 0.31687 0.0
H606 H 0.37041 0.90872 0.30946 0.0
C607 C 0.38174 0.91968 0.29069 0.0
H608 H 0.39196 0.91909 0.31986 0.0
H609 H 0.40535 0.9608 0.29487 0.0
O610 O 0.40678 0.93035 0.87153 0.0
C611 C 0.42889 0.96951 0.05215 0.0
Co612 Co 0.52591 0.93476 0.9946 0.0
Co613 Co 0.52898 0.94233 0.19252 0.0
C614 C 0.49759 0.93038 0.09668 0.0
O615 O 0.50358 0.92914 0.02528 0.0
O616 O 0.50615 0.93531 0.16513 0.0
C617 C 0.51716 0.92165 0.8166 0.0
O618 O 0.50317 0.91014 0.84405 0.0
C619 C 0.52288 0.93569 0.38002 0.0
C620 C 0.54608 0.95433 0.43413 0.0
C621 C 0.53139 0.9413 0.45706 0.0
N622 N 0.53236 0.94473 0.3146 0.0
N623 N 0.54612 0.95594 0.3476 0.0
C624 C 0.50585 0.92255 0.36835 0.0
H625 H 0.49968 0.92637 0.32164 0.0
H626 H 0.50573 0.91181 0.3411 0.0
H627 H 0.49917 0.91937 0.43054 0.0
C628 C 0.53976 0.91446 0.05039 0.0
N629 N 0.53384 0.92429 0.06691 0.0
N630 N 0.53496 0.92735 0.1506 0.0
C631 C 0.54146 0.91939 0.19 0.0
C632 C 0.54468 0.91094 0.12803 0.0
C633 C 0.54114 0.90905 0.96155 0.0
H634 H 0.52931 0.90374 0.92858 0.0
H635 H 0.54523 0.90011 0.96386 0.0
H636 H 0.54978 0.91962 0.92306 0.0
O637 O 0.53982 0.95826 0.00166 0.0
O638 O 0.54273 0.96407 0.14128 0.0
H639 H 0.55219 0.91432 0.3006 0.0
H640 H 0.53483 0.91618 0.3238 0.0
C641 C 0.54587 0.92095 0.28398 0.0
H642 H 0.55381 0.93379 0.30015 0.0
H643 H 0.55569 0.9645 0.31073 0.0
O644 O 0.52746 0.93134 0.87018 0.0
C645 C 0.54567 0.96849 0.06244 0.0
Co646 Co 0.07084 0.59232 0.9936 0.0
Co647 Co 0.06256 0.58719 0.19093 0.0
C648 C 0.07461 0.56788 0.0937 0.0
O649 O 0.07627 0.57546 0.0231 0.0
O650 O 0.06937 0.57123 0.16195 0.0
C651 C 0.08192 0.59394 0.81546 0.0
O652 O 0.09038 0.58749 0.84233 0.0
C653 C 0.06834 0.58703 0.37996 0.0
C654 C 0.04881 0.59048 0.43115 0.0
C655 C 0.06178 0.58889 0.45651 0.0
N656 N 0.05969 0.58769 0.31296 0.0
N657 N 0.04799 0.58963 0.34428 0.0
C658 C 0.08236 0.58442 0.37035 0.0
H659 H 0.08139 0.57782 0.30987 0.0
H660 H 0.09358 0.59623 0.36706 0.0
H661 H 0.08315 0.57763 0.42651 0.0
C662 C 0.0911 0.62614 0.05267 0.0
N663 N 0.08115 0.61038 0.06793 0.0
N664 N 0.07779 0.60823 0.15127 0.0
C665 C 0.08563 0.62258 0.19169 0.0
C666 C 0.09435 0.63437 0.13073 0.0
C667 C 0.09669 0.63316 0.96444 0.0
H668 H 0.08629 0.63192 0.92681 0.0
H669 H 0.10149 0.62634 0.92977 0.0
H670 H 0.10605 0.64604 0.96809 0.0
O671 O 0.04732 0.58279 0.99937 0.0
O672 O 0.04101 0.57969 0.1383 0.0
H673 H 0.0708 0.62022 0.30045 0.0
H674 H 0.09028 0.63817 0.30264 0.0
C675 C 0.08371 0.62524 0.28548 0.0
H676 H 0.08838 0.61892 0.32571 0.0
H677 H 0.03958 0.59066 0.30612 0.0
O678 O 0.07472 0.59803 0.86988 0.0
C679 C 0.03687 0.57844 0.05907 0.0
Co680 Co 0.41335 0.48021 0.98745 0.0
Co681 Co 0.41862 0.47668 0.18461 0.0
C682 C 0.43806 0.50813 0.08846 0.0
O683 O 0.43041 0.50241 0.01783 0.0
O684 O 0.43466 0.4994 0.15613 0.0
C685 C 0.412 0.48984 0.809 0.0
O686 O 0.41899 0.50479 0.8358 0.0
C687 C 0.41871 0.48265 0.37353 0.0
C688 C 0.41585 0.45997 0.42563 0.0
C689 C 0.41709 0.4744 0.45046 0.0
N690 N 0.41827 0.47338 0.30686 0.0
N691 N 0.41668 0.4599 0.33873 0.0
C692 C 0.42091 0.49911 0.36327 0.0
H693 H 0.42722 0.50468 0.30203 0.0
H694 H 0.40895 0.49822 0.36116 0.0
H695 H 0.42779 0.50688 0.41863 0.0
C696 C 0.37955 0.46665 0.04833 0.0
N697 N 0.39534 0.47242 0.06275 0.0
N698 N 0.39758 0.47104 0.14581 0.0
C699 C 0.38326 0.46444 0.18681 0.0
C700 C 0.3714 0.46153 0.12664 0.0
C701 C 0.37241 0.46536 0.96058 0.0
H702 H 0.37337 0.45607 0.92258 0.0
H703 H 0.37935 0.47695 0.92577 0.0
H704 H 0.3596 0.46207 0.9651 0.0
O705 O 0.42278 0.46612 0.99163 0.0
O706 O 0.42593 0.4626 0.13013 0.0
H707 H 0.38607 0.45193 0.29395 0.0
H708 H 0.36775 0.45278 0.29721 0.0
C709 C 0.38069 0.45955 0.28016 0.0
H710 H 0.3867 0.47041 0.32141 0.0
H711 H 0.41587 0.45053 0.30094 0.0
O712 O 0.40755 0.47851 0.86354 0.0
C713 C 0.42712 0.45987 0.05051 0.0
Co714 Co 0.27141 0.1918 0.66889 0.0
Co715 Co 0.27954 0.19654 0.47161 0.0
C716 C 0.26765 0.16446 0.56181 0.0
O717 O 0.26587 0.1697 0.63443 0.0
O718 O 0.27289 0.17366 0.49589 0.0
C719 C 0.25719 0.18451 0.84898 0.0
O720 O 0.24312 0.17294 0.82288 0.0
C721 C 0.27135 0.19118 0.28551 0.0
C722 C 0.29215 0.2125 0.22807 0.0
C723 C 0.27766 0.19899 0.20738 0.0
N724 N 0.28153 0.19992 0.34944 0.0
N725 N 0.29394 0.2126 0.31451 0.0
C726 C 0.25632 0.17541 0.29916 0.0
H727 H 0.25749 0.16921 0.35666 0.0
H728 H 0.24613 0.17748 0.31139 0.0
H729 H 0.25352 0.16762 0.24118 0.0
C730 C 0.25091 0.2058 0.61733 0.0
N731 N 0.26096 0.20019 0.59932 0.0
N732 N 0.26452 0.20224 0.51611 0.0
C733 C 0.25684 0.20922 0.4788 0.0
C734 C 0.24784 0.21151 0.54124 0.0
C735 C 0.24484 0.20614 0.70604 0.0
H736 H 0.23678 0.19364 0.72813 0.0
H737 H 0.23814 0.21278 0.70679 0.0
H738 H 0.25509 0.21182 0.75189 0.0
O739 O 0.29493 0.20581 0.6614 0.0
O740 O 0.30128 0.21036 0.52272 0.0
H741 H 0.25435 0.22325 0.37631 0.0
H742 H 0.25276 0.20462 0.343 0.0
C743 C 0.25915 0.21502 0.387 0.0
H744 H 0.27211 0.22141 0.37052 0.0
H745 H 0.30359 0.22139 0.34983 0.0
O746 O 0.26823 0.19253 0.79447 0.0
C747 C 0.3054 0.21249 0.60218 0.0
Co748 Co 0.8156 0.07828 0.67701 0.0
Co749 Co 0.81086 0.08388 0.48132 0.0
C750 C 0.84298 0.10283 0.57059 0.0
O751 O 0.83751 0.09516 0.64137 0.0
O752 O 0.83395 0.09965 0.50425 0.0
C753 C 0.82334 0.0837 0.85323 0.0
O754 O 0.83253 0.09825 0.82258 0.0
C755 C 0.81593 0.08422 0.29278 0.0
C756 C 0.7927 0.08018 0.24207 0.0
C757 C 0.80731 0.0819 0.21673 0.0
N758 N 0.80672 0.08364 0.35994 0.0
N759 N 0.79294 0.08143 0.32903 0.0
C760 C 0.83204 0.08556 0.30253 0.0
H761 H 0.83296 0.0808 0.36653 0.0
H762 H 0.83417 0.07898 0.24983 0.0
H763 H 0.84147 0.09841 0.29898 0.0
C764 C 0.80156 0.04461 0.61398 0.0
N765 N 0.80716 0.0604 0.60072 0.0
N766 N 0.80538 0.06276 0.51834 0.0
C767 C 0.7987 0.04852 0.47659 0.0
C768 C 0.79616 0.0366 0.53554 0.0
C769 C 0.80074 0.03735 0.70086 0.0
H770 H 0.81269 0.04386 0.73247 0.0
H771 H 0.79684 0.0244 0.69548 0.0
H772 H 0.79214 0.03884 0.74242 0.0
O773 O 0.80155 0.08775 0.67931 0.0
O774 O 0.79743 0.09138 0.54225 0.0
H775 H 0.78714 0.03316 0.36564 0.0
H776 H 0.80444 0.05238 0.34179 0.0
C777 C 0.79366 0.04606 0.38349 0.0
H778 H 0.78574 0.05115 0.37123 0.0
H779 H 0.7835 0.0803 0.36753 0.0
O780 O 0.81559 0.07224 0.80011 0.0
C781 C 0.79511 0.09235 0.62285 0.0
Co782 Co 0.92785 0.73676 0.67976 0.0
Co783 Co 0.92231 0.72831 0.48155 0.0
C784 C 0.90327 0.74049 0.58009 0.0
O785 O 0.91088 0.74203 0.6504 0.0
O786 O 0.90658 0.73535 0.51134 0.0
C787 C 0.92997 0.74877 0.85689 0.0
O788 O 0.92431 0.75777 0.82732 0.0
C789 C 0.92288 0.73512 0.29322 0.0
C790 C 0.92247 0.71374 0.23779 0.0
C791 C 0.92305 0.72797 0.21517 0.0
N792 N 0.92233 0.72556 0.35862 0.0
N793 N 0.92204 0.71279 0.32477 0.0
C794 C 0.92269 0.75047 0.30544 0.0
H795 H 0.91806 0.75092 0.3705 0.0
H796 H 0.93509 0.76077 0.29968 0.0
H797 H 0.91523 0.75174 0.25459 0.0
C798 C 0.96156 0.757 0.61805 0.0
N799 N 0.94578 0.74696 0.60393 0.0
N800 N 0.94347 0.74334 0.52083 0.0
C801 C 0.95777 0.75099 0.47964 0.0
C802 C 0.96966 0.75999 0.53959 0.0
C803 C 0.96871 0.76314 0.70546 0.0
H804 H 0.96146 0.76741 0.74044 0.0
H805 H 0.98136 0.77302 0.70035 0.0
H806 H 0.96828 0.75315 0.74363 0.0
O807 O 0.91842 0.71327 0.6739 0.0
O808 O 0.91465 0.70675 0.53502 0.0
H809 H 0.95361 0.73557 0.37066 0.0
H810 H 0.97321 0.75338 0.37147 0.0
C811 C 0.96031 0.74854 0.38641 0.0
H812 H 0.95574 0.75479 0.34497 0.0
H813 H 0.92165 0.70346 0.36117 0.0
O814 O 0.93339 0.74073 0.80445 0.0
C815 C 0.9138 0.70276 0.61444 0.0
Co816 Co 0.48309 0.07115 0.01062 0.0
Co817 Co 0.47945 0.06251 0.81368 0.0
C818 C 0.51115 0.0752 0.90405 0.0
O819 O 0.5052 0.07649 0.97541 0.0
O820 O 0.50252 0.07006 0.83597 0.0
C821 C 0.49138 0.07419 0.18652 0.0
O822 O 0.50087 0.06914 0.15649 0.0
C823 C 0.48446 0.06742 0.62587 0.0
C824 C 0.46107 0.04847 0.57536 0.0
C825 C 0.47576 0.06123 0.55013 0.0
N826 N 0.47521 0.05886 0.69294 0.0
N827 N 0.46133 0.04743 0.66224 0.0
C828 C 0.50071 0.08199 0.63542 0.0
H829 H 0.50168 0.08784 0.69889 0.0
H830 H 0.50309 0.09064 0.58201 0.0
H831 H 0.50994 0.07828 0.63311 0.0
C832 C 0.46873 0.09077 0.95177 0.0
N833 N 0.47467 0.08093 0.93644 0.0
N834 N 0.47346 0.07758 0.85311 0.0
C835 C 0.4669 0.08538 0.81268 0.0
C836 C 0.46373 0.09401 0.87369 0.0
C837 C 0.46754 0.09658 0.03984 0.0
H838 H 0.47948 0.10223 0.07169 0.0
H839 H 0.46323 0.10534 0.03644 0.0
H840 H 0.45915 0.08616 0.08009 0.0
O841 O 0.46907 0.04751 0.01084 0.0
O842 O 0.46643 0.04135 0.8714 0.0
H843 H 0.45463 0.07087 0.70267 0.0
H844 H 0.45642 0.09043 0.70095 0.0
C845 C 0.46262 0.08372 0.71849 0.0
H846 H 0.47371 0.08834 0.67918 0.0
H847 H 0.45187 0.03918 0.70085 0.0
O848 O 0.48314 0.07718 0.13316 0.0
C849 C 0.46346 0.03712 0.95053 0.0
Co850 Co 0.93692 0.41258 0.99439 0.0
Co851 Co 0.94564 0.41765 0.79711 0.0
C852 C 0.93331 0.43693 0.89201 0.0
O853 O 0.93157 0.42952 0.9634 0.0
O854 O 0.9386 0.43341 0.82468 0.0
C855 C 0.92638 0.41187 0.17211 0.0
O856 O 0.91956 0.41997 0.14491 0.0
C857 C 0.93955 0.41716 0.60834 0.0
C858 C 0.96026 0.41588 0.55615 0.0
C859 C 0.94657 0.41621 0.53113 0.0
N860 N 0.94869 0.41731 0.67494 0.0
N861 N 0.96107 0.4166 0.64307 0.0
C862 C 0.92461 0.41817 0.61933 0.0
H863 H 0.9241 0.42262 0.68463 0.0
H864 H 0.91394 0.40603 0.6124 0.0
H865 H 0.924 0.42613 0.56917 0.0
C866 C 0.91671 0.37875 0.93429 0.0
N867 N 0.92685 0.39449 0.91952 0.0
N868 N 0.93054 0.39662 0.83654 0.0
C869 C 0.92281 0.38228 0.79596 0.0
C870 C 0.91371 0.37051 0.8563 0.0
C871 C 0.91039 0.37177 0.02182 0.0
H872 H 0.90608 0.3791 0.05552 0.0
H873 H 0.9005 0.35913 0.0171 0.0
H874 H 0.92031 0.37226 0.06102 0.0
O875 O 0.96051 0.42224 0.99099 0.0
O876 O 0.96703 0.42551 0.85205 0.0
H877 H 0.91981 0.36664 0.68759 0.0
H878 H 0.91952 0.38473 0.66108 0.0
C879 C 0.9252 0.37959 0.70287 0.0
H880 H 0.93822 0.38572 0.68795 0.0
H881 H 0.96999 0.41643 0.68082 0.0
O882 O 0.93262 0.40666 0.11789 0.0
C883 C 0.97104 0.42683 0.93156 0.0
Co884 Co 0.59366 0.52486 0.00335 0.0
Co885 Co 0.58967 0.52953 0.80588 0.0
C886 C 0.56933 0.49768 0.89826 0.0
O887 O 0.57659 0.50284 0.97044 0.0
O888 O 0.5733 0.50687 0.83228 0.0
C889 C 0.59739 0.51565 0.18284 0.0
O890 O 0.59514 0.50174 0.15565 0.0
C891 C 0.59122 0.52346 0.61897 0.0
C892 C 0.59044 0.54407 0.5611 0.0
C893 C 0.59132 0.53051 0.54022 0.0
N894 N 0.59036 0.5325 0.6832 0.0
N895 N 0.58991 0.54479 0.64797 0.0
C896 C 0.59128 0.5081 0.63296 0.0
H897 H 0.58787 0.50379 0.70044 0.0
H898 H 0.60352 0.51009 0.62094 0.0
H899 H 0.58296 0.49882 0.58666 0.0
C900 C 0.62777 0.5381 0.94763 0.0
N901 N 0.61211 0.53272 0.93107 0.0
N902 N 0.61041 0.5348 0.84815 0.0
C903 C 0.62494 0.54158 0.80951 0.0
C904 C 0.63639 0.54376 0.87088 0.0
C905 C 0.63432 0.53842 0.03594 0.0
H906 H 0.63313 0.54729 0.07661 0.0
H907 H 0.62713 0.52647 0.06691 0.0
H908 H 0.64714 0.54169 0.03303 0.0
O909 O 0.58464 0.53931 0.99668 0.0
O910 O 0.58234 0.54375 0.85833 0.0
H911 H 0.6214 0.5538 0.70294 0.0
H912 H 0.6411 0.55582 0.70616 0.0
C913 C 0.62812 0.5475 0.71787 0.0
H914 H 0.62399 0.53712 0.67345 0.0
H915 H 0.58922 0.55368 0.68331 0.0
O916 O 0.59822 0.52601 0.1289 0.0
C917 C 0.58086 0.54611 0.93819 0.0
Co918 Co 0.73866 0.81298 0.32355 0.0
Co919 Co 0.72909 0.80929 0.52017 0.0
C920 C 0.74269 0.84119 0.42924 0.0
O921 O 0.7442 0.83519 0.35838 0.0
O922 O 0.73707 0.83258 0.49737 0.0
C923 C 0.74419 0.82176 0.14499 0.0
O924 O 0.74406 0.8347 0.17091 0.0
C925 C 0.72912 0.81312 0.71168 0.0
C926 C 0.71984 0.78801 0.7524 0.0
C927 C 0.72646 0.8035 0.78464 0.0
N928 N 0.72492 0.80377 0.64056 0.0
N929 N 0.71894 0.78873 0.66577 0.0
C930 C 0.73459 0.83063 0.70865 0.0
H931 H 0.72853 0.83303 0.65443 0.0
H932 H 0.74776 0.83748 0.69748 0.0
H933 H 0.73168 0.83471 0.76975 0.0
C934 C 0.75771 0.79821 0.38593 0.0
N935 N 0.74783 0.80419 0.39913 0.0
N936 N 0.74478 0.80381 0.4825 0.0
C937 C 0.75339 0.79838 0.52537 0.0
C938 C 0.76162 0.79434 0.46588 0.0
C939 C 0.76223 0.7952 0.29798 0.0
H940 H 0.75175 0.7907 0.25378 0.0
H941 H 0.77194 0.80668 0.27115 0.0
H942 H 0.76641 0.78634 0.30066 0.0
O943 O 0.71531 0.7997 0.32226 0.0
O944 O 0.70784 0.7962 0.45957 0.0
H945 H 0.74542 0.78688 0.64853 0.0
H946 H 0.76677 0.79963 0.64026 0.0
C947 C 0.75504 0.79841 0.62188 0.0
H948 H 0.75421 0.80851 0.65079 0.0
H949 H 0.71504 0.77903 0.62334 0.0
O950 O 0.74391 0.81192 0.20084 0.0
C951 C 0.70435 0.79383 0.37919 0.0
Co952 Co 0.19379 0.92532 0.33081 0.0
Co953 Co 0.19724 0.92102 0.52855 0.0
C954 C 0.16568 0.90151 0.4338 0.0
O955 O 0.17155 0.90876 0.36238 0.0
O956 O 0.17435 0.90509 0.50184 0.0
C957 C 0.18516 0.92985 0.15234 0.0
O958 O 0.1713 0.92779 0.17941 0.0
C959 C 0.19119 0.92173 0.71594 0.0
C960 C 0.21446 0.92651 0.77015 0.0
C961 C 0.19973 0.92475 0.79297 0.0
N962 N 0.2007 0.9222 0.6506 0.0
N963 N 0.21451 0.92489 0.68366 0.0
C964 C 0.17412 0.91772 0.70427 0.0
H965 H 0.16796 0.9076 0.6583 0.0
H966 H 0.1739 0.92823 0.67613 0.0
H967 H 0.16747 0.91432 0.76659 0.0
C968 C 0.20743 0.95944 0.38532 0.0
N969 N 0.20181 0.94377 0.40233 0.0
N970 N 0.20308 0.94193 0.486 0.0
C971 C 0.20938 0.95641 0.52494 0.0
C972 C 0.2123 0.96795 0.46263 0.0
C973 C 0.20837 0.96606 0.29646 0.0
H974 H 0.19633 0.95963 0.26573 0.0
H975 H 0.21267 0.97913 0.29826 0.0
H976 H 0.21664 0.96385 0.25617 0.0
O977 O 0.20762 0.91569 0.33833 0.0
O978 O 0.21112 0.91309 0.47748 0.0
H979 H 0.21982 0.9724 0.63502 0.0
H980 H 0.20254 0.95312 0.65843 0.0
C981 C 0.21364 0.95942 0.61905 0.0
H982 H 0.22164 0.95465 0.63634 0.0
H983 H 0.2241 0.92594 0.64685 0.0
O984 O 0.19527 0.93013 0.20621 0.0
C985 C 0.21378 0.91148 0.3983 0.0
Co986 Co 0.08076 0.26669 0.33003 0.0
Co987 Co 0.08572 0.27759 0.52534 0.0
C988 C 0.10525 0.26457 0.43986 0.0
O989 O 0.09776 0.26187 0.368 0.0
O990 O 0.10169 0.27057 0.50393 0.0
C991 C 0.08663 0.26546 0.15372 0.0
O992 O 0.10127 0.2717 0.18482 0.0
C993 C 0.08633 0.27328 0.71486 0.0
C994 C 0.08166 0.29211 0.76443 0.0
C995 C 0.08394 0.2796 0.79053 0.0
N996 N 0.0853 0.28154 0.647 0.0
N997 N 0.0827 0.2929 0.67732 0.0
C998 C 0.08778 0.25856 0.70681 0.0
H999 H 0.08486 0.25367 0.63998 0.0
H1000 H 0.07967 0.24929 0.75378 0.0
H1001 H 0.10026 0.26166 0.72248 0.0
C1002 C 0.04684 0.2473 0.39108 0.0
N1003 N 0.06262 0.25743 0.40521 0.0
N1004 N 0.06477 0.26186 0.48716 0.0
C1005 C 0.05043 0.25455 0.52788 0.0
C1006 C 0.03855 0.24519 0.46841 0.0
C1007 C 0.03986 0.24088 0.30364 0.0
H1008 H 0.04361 0.25104 0.25783 0.0
H1009 H 0.04477 0.23336 0.27904 0.0
H1010 H 0.02655 0.23369 0.30556 0.0
O1011 O 0.09018 0.29016 0.32665 0.0
O1012 O 0.09316 0.29837 0.46282 0.0
H1013 H 0.05182 0.26885 0.63736 0.0
H1014 H 0.03552 0.24831 0.64328 0.0
C1015 C 0.04814 0.25619 0.62257 0.0
H1016 H 0.05578 0.25281 0.66039 0.0
H1017 H 0.0812 0.30092 0.63835 0.0
O1018 O 0.07495 0.2607 0.20659 0.0
C1019 C 0.09444 0.30138 0.38175 0.0
Co1020 Co 0.19324 0.26781 0.33666 0.0
Co1021 Co 0.19839 0.27813 0.53281 0.0
C1022 C 0.1661 0.26503 0.44513 0.0
O1023 O 0.17131 0.26266 0.37386 0.0
O1024 O 0.17535 0.27092 0.5105 0.0
C1025 C 0.1856 0.26698 0.16296 0.0
O1026 O 0.17804 0.27376 0.19827 0.0
C1027 C 0.19288 0.27362 0.72161 0.0
C1028 C 0.2161 0.29258 0.77356 0.0
C1029 C 0.20121 0.2801 0.79821 0.0
N1030 N 0.20244 0.28191 0.65469 0.0
N1031 N 0.21625 0.29331 0.68635 0.0
C1032 C 0.17688 0.25872 0.71176 0.0
H1033 H 0.17586 0.25325 0.64704 0.0
H1034 H 0.17508 0.24994 0.76344 0.0
H1035 H 0.16728 0.26182 0.71797 0.0
C1036 C 0.20802 0.2486 0.3977 0.0
N1037 N 0.20213 0.25853 0.41175 0.0
N1038 N 0.20392 0.2626 0.49424 0.0
C1039 C 0.21074 0.25514 0.53553 0.0
C1040 C 0.21364 0.24604 0.47594 0.0
C1041 C 0.20947 0.24291 0.30968 0.0
H1042 H 0.21349 0.25288 0.26234 0.0
H1043 H 0.19748 0.23315 0.28877 0.0
H1044 H 0.21807 0.23839 0.30959 0.0
O1045 O 0.20709 0.29128 0.33512 0.0
O1046 O 0.21169 0.29916 0.47195 0.0
H1047 H 0.22319 0.26894 0.6473 0.0
H1048 H 0.21839 0.24821 0.65256 0.0
C1049 C 0.21408 0.2564 0.63087 0.0
H1050 H 0.20291 0.25317 0.66672 0.0
H1051 H 0.22592 0.30138 0.64828 0.0
O1052 O 0.19278 0.26198 0.21247 0.0
C1053 C 0.21369 0.30238 0.39114 0.0
Co1054 Co 0.74 0.92634 0.31968 0.0
Co1055 Co 0.7299 0.92056 0.5158 0.0
C1056 C 0.7432 0.90185 0.42608 0.0
O1057 O 0.74507 0.90939 0.35508 0.0
O1058 O 0.73753 0.90502 0.4932 0.0
C1059 C 0.74112 0.92049 0.14457 0.0
O1060 O 0.73479 0.90592 0.17672 0.0
C1061 C 0.73363 0.91965 0.70584 0.0
C1062 C 0.7152 0.92515 0.75281 0.0
C1063 C 0.72735 0.92245 0.78047 0.0
N1064 N 0.72571 0.92089 0.637 0.0
N1065 N 0.71456 0.92396 0.66577 0.0
C1066 C 0.748 0.91757 0.69966 0.0
H1067 H 0.75333 0.92073 0.63382 0.0
H1068 H 0.75713 0.92515 0.74865 0.0
H1069 H 0.74426 0.90486 0.71343 0.0
C1070 C 0.75879 0.96021 0.38251 0.0
N1071 N 0.74917 0.94431 0.39585 0.0
N1072 N 0.74528 0.94178 0.4785 0.0
C1073 C 0.75259 0.95598 0.52061 0.0
C1074 C 0.76121 0.96818 0.46124 0.0
C1075 C 0.76445 0.96757 0.29491 0.0
H1076 H 0.75419 0.96243 0.24902 0.0
H1077 H 0.77343 0.96447 0.27059 0.0
H1078 H 0.76991 0.98082 0.29674 0.0
O1079 O 0.71657 0.91679 0.31711 0.0
O1080 O 0.7089 0.9128 0.45429 0.0
H1081 H 0.73954 0.95463 0.6357 0.0
H1082 H 0.7604 0.97023 0.63841 0.0
C1083 C 0.7519 0.95783 0.61663 0.0
H1084 H 0.75512 0.94963 0.64992 0.0
H1085 H 0.70685 0.92576 0.62573 0.0
O1086 O 0.74596 0.93228 0.19659 0.0
C1087 C 0.70555 0.91196 0.37378 0.0
Co1088 Co 0.08046 0.81329 0.33029 0.0
Co1089 Co 0.08564 0.80963 0.52707 0.0
C1090 C 0.10488 0.8412 0.43676 0.0
O1091 O 0.09739 0.83527 0.36598 0.0
O1092 O 0.1015 0.8326 0.50489 0.0
C1093 C 0.08655 0.82094 0.15542 0.0
O1094 O 0.10115 0.82901 0.18735 0.0
C1095 C 0.08709 0.8147 0.71595 0.0
C1096 C 0.07911 0.79018 0.76395 0.0
C1097 C 0.08334 0.80554 0.79083 0.0
N1098 N 0.08488 0.8051 0.64775 0.0
N1099 N 0.08034 0.79053 0.67702 0.0
C1100 C 0.09112 0.83183 0.70832 0.0
H1101 H 0.0862 0.83366 0.64706 0.0
H1102 H 0.08632 0.83539 0.76427 0.0
H1103 H 0.10437 0.83964 0.7069 0.0
C1104 C 0.04642 0.79867 0.38984 0.0
N1105 N 0.06227 0.80486 0.40462 0.0
N1106 N 0.06462 0.8041 0.48809 0.0
C1107 C 0.05037 0.79787 0.52945 0.0
C1108 C 0.0383 0.79406 0.46878 0.0
C1109 C 0.03924 0.79586 0.30107 0.0
H1110 H 0.04545 0.79156 0.25736 0.0
H1111 H 0.04104 0.80739 0.27478 0.0
H1112 H 0.0262 0.78693 0.30208 0.0
O1113 O 0.08983 0.79916 0.32957 0.0
O1114 O 0.09334 0.79618 0.46852 0.0
H1115 H 0.05003 0.78603 0.64746 0.0
H1116 H 0.03634 0.79377 0.64663 0.0
C1117 C 0.04837 0.7961 0.62578 0.0
H1118 H 0.05751 0.80728 0.65749 0.0
H1119 H 0.07758 0.78069 0.63734 0.0
O1120 O 0.07481 0.81374 0.20749 0.0
C1121 C 0.09443 0.79324 0.38907 0.0
Co1122 Co 0.93505 0.52413 0.00349 0.0
Co1123 Co 0.94563 0.52955 0.80799 0.0
C1124 C 0.93278 0.49723 0.89588 0.0
O1125 O 0.93032 0.50229 0.96744 0.0
O1126 O 0.93861 0.50656 0.83068 0.0
C1127 C 0.93278 0.5165 0.18029 0.0
O1128 O 0.93809 0.50723 0.15031 0.0
C1129 C 0.94053 0.52463 0.6194 0.0
C1130 C 0.96052 0.54728 0.56806 0.0
C1131 C 0.94716 0.53301 0.54315 0.0
N1132 N 0.94945 0.53363 0.68639 0.0
N1133 N 0.96148 0.54708 0.65508 0.0
C1134 C 0.92517 0.50904 0.62905 0.0
H1135 H 0.92057 0.50754 0.69639 0.0
H1136 H 0.91605 0.50846 0.58279 0.0
H1137 H 0.92737 0.49904 0.61365 0.0
C1138 C 0.91499 0.53776 0.94111 0.0
N1139 N 0.92548 0.53254 0.92757 0.0
N1140 N 0.92983 0.53472 0.84547 0.0
C1141 C 0.92214 0.54132 0.80421 0.0
C1142 C 0.91242 0.54336 0.86316 0.0
C1143 C 0.90797 0.53775 0.02759 0.0
H1144 H 0.90328 0.52581 0.05854 0.0
H1145 H 0.89819 0.54066 0.02173 0.0
H1146 H 0.91758 0.54676 0.07 0.0
O1147 O 0.95855 0.53834 0.0058 0.0
O1148 O 0.96649 0.54309 0.86912 0.0
H1149 H 0.93807 0.55406 0.69937 0.0
H1150 H 0.91938 0.55418 0.69615 0.0
C1151 C 0.92499 0.54683 0.71184 0.0
H1152 H 0.91981 0.53621 0.66857 0.0
H1153 H 0.97013 0.55631 0.69331 0.0
O1154 O 0.92907 0.52418 0.12667 0.0
C1155 C 0.96966 0.54512 0.94992 0.0
Co1156 Co 0.48142 0.41275 0.00071 0.0
Co1157 Co 0.47642 0.41705 0.8044 0.0
C1158 C 0.50856 0.4371 0.89617 0.0
O1159 O 0.50348 0.42957 0.96767 0.0
O1160 O 0.49927 0.43341 0.83068 0.0
C1161 C 0.48903 0.40692 0.18159 0.0
O1162 O 0.5021 0.40689 0.15708 0.0
C1163 C 0.48228 0.41558 0.61699 0.0
C1164 C 0.45979 0.41264 0.56117 0.0
C1165 C 0.47402 0.41312 0.53937 0.0
N1166 N 0.47309 0.41603 0.68171 0.0
N1167 N 0.45975 0.4144 0.64762 0.0
C1168 C 0.4987 0.41778 0.62969 0.0
H1169 H 0.5048 0.42593 0.68463 0.0
H1170 H 0.49768 0.40607 0.64584 0.0
H1171 H 0.50609 0.42265 0.57025 0.0
C1172 C 0.46746 0.37857 0.94493 0.0
N1173 N 0.47307 0.39428 0.92869 0.0
N1174 N 0.47083 0.39611 0.84619 0.0
C1175 C 0.46369 0.38158 0.80745 0.0
C1176 C 0.46125 0.36997 0.86858 0.0
C1177 C 0.46701 0.37195 0.03325 0.0
H1178 H 0.46078 0.37599 0.07859 0.0
H1179 H 0.47948 0.37682 0.05716 0.0
H1180 H 0.46078 0.35863 0.03289 0.0
O1181 O 0.46744 0.42217 0.9951 0.0
O1182 O 0.46234 0.42456 0.85819 0.0
H1183 H 0.45123 0.38355 0.69727 0.0
H1184 H 0.45334 0.36589 0.69573 0.0
C1185 C 0.45929 0.37878 0.71338 0.0
H1186 H 0.47031 0.38515 0.67385 0.0
H1187 H 0.45045 0.41419 0.68365 0.0
O1188 O 0.48007 0.40824 0.12585 0.0
C1189 C 0.46046 0.42612 0.93869 0.0
Co1190 Co 0.59529 0.07042 0.01315 0.0
Co1191 Co 0.58968 0.06064 0.81693 0.0
C1192 C 0.57129 0.07439 0.90597 0.0
O1193 O 0.57882 0.07619 0.97706 0.0
O1194 O 0.57433 0.06852 0.8391 0.0
C1195 C 0.59185 0.07572 0.19188 0.0
O1196 O 0.57852 0.07505 0.1661 0.0
C1197 C 0.58596 0.06103 0.62569 0.0
C1198 C 0.60149 0.05143 0.58416 0.0
C1199 C 0.59281 0.0583 0.55239 0.0
N1200 N 0.59099 0.05659 0.69645 0.0
N1201 N 0.59989 0.05045 0.67077 0.0
C1202 C 0.5741 0.06676 0.62948 0.0
H1203 H 0.56553 0.06059 0.68306 0.0
H1204 H 0.5805 0.07987 0.64224 0.0
H1205 H 0.56717 0.06412 0.56829 0.0
C1206 C 0.62918 0.08943 0.95193 0.0
N1207 N 0.61335 0.07947 0.93825 0.0
N1208 N 0.61082 0.07631 0.85492 0.0
C1209 C 0.62491 0.08486 0.81252 0.0
C1210 C 0.63708 0.09322 0.87234 0.0
C1211 C 0.63657 0.09418 0.04008 0.0
H1212 H 0.63074 0.08373 0.08456 0.0
H1213 H 0.63448 0.10374 0.06612 0.0
H1214 H 0.64968 0.09864 0.03808 0.0
O1215 O 0.58501 0.04699 0.01482 0.0
O1216 O 0.58148 0.03944 0.87765 0.0
H1217 H 0.62847 0.0765 0.69069 0.0
H1218 H 0.63734 0.0979 0.69733 0.0
C1219 C 0.6267 0.0863 0.71602 0.0
H1220 H 0.6159 0.08559 0.68612 0.0
H1221 H 0.60556 0.04635 0.71286 0.0
O1222 O 0.60156 0.07574 0.13593 0.0
C1223 C 0.5801 0.036 0.95816 0.0
C1224 C 0.12594 0.45029 0.2113 0.0
C1225 C 0.11974 0.43452 0.18047 0.0
C1226 C 0.11817 0.45907 0.19318 0.0
C1227 C 0.10404 0.45236 0.14319 0.0
H1228 H 0.13693 0.45592 0.24889 0.0
H1229 H 0.1232 0.47115 0.21838 0.0
S1230 S 0.08238 0.41123 0.05257 0.0
N1231 N 0.09813 0.4123 0.10191 0.0
N1232 N 0.08384 0.42895 0.06629 0.0
C1233 C 0.09768 0.43661 0.11273 0.0
C1234 C 0.10546 0.42764 0.13181 0.0
C1235 C 0.56881 0.66251 0.11065 0.0
C1236 C 0.55325 0.65253 0.1428 0.0
C1237 C 0.57731 0.67893 0.13079 0.0
C1238 C 0.57044 0.68599 0.18274 0.0
H1239 H 0.57457 0.65751 0.07114 0.0
H1240 H 0.58939 0.68617 0.10582 0.0
S1241 S 0.52971 0.66495 0.27982 0.0
N1242 N 0.53121 0.65068 0.22831 0.0
N1243 N 0.54691 0.68171 0.2635 0.0
C1244 C 0.5548 0.67611 0.21447 0.0
C1245 C 0.54625 0.65934 0.19494 0.0
C1246 C 0.34435 0.88807 0.12008 0.0
C1247 C 0.35383 0.90382 0.15149 0.0
C1248 C 0.32782 0.87913 0.13848 0.0
C1249 C 0.32035 0.88561 0.18977 0.0
H1250 H 0.34976 0.8826 0.0816 0.0
H1251 H 0.32084 0.8671 0.1125 0.0
S1252 S 0.33949 0.92657 0.28227 0.0
N1253 N 0.35423 0.92579 0.23172 0.0
N1254 N 0.32335 0.90877 0.26847 0.0
C1255 C 0.32962 0.90131 0.221 0.0
C1256 C 0.34634 0.91048 0.20135 0.0
C1257 C 0.43928 0.09665 0.88712 0.0
C1258 C 0.45519 0.10301 0.85874 0.0
C1259 C 0.43057 0.10441 0.86795 0.0
C1260 C 0.43755 0.1189 0.82086 0.0
H1261 H 0.43345 0.08545 0.92281 0.0
H1262 H 0.41822 0.09896 0.88971 0.0
S1263 S 0.47913 0.14065 0.73499 0.0
N1264 N 0.47767 0.12453 0.78193 0.0
N1265 N 0.46153 0.1395 0.74881 0.0
C1266 C 0.45353 0.12544 0.79303 0.0
C1267 C 0.46231 0.11741 0.81147 0.0
C1268 C 0.90185 0.32654 0.8586 0.0
C1269 C 0.88814 0.31937 0.80506 0.0
C1270 C 0.90981 0.34304 0.8769 0.0
C1271 C 0.90449 0.35298 0.84116 0.0
H1272 H 0.90651 0.31934 0.88635 0.0
H1273 H 0.92037 0.34811 0.91788 0.0
S1274 S 0.86914 0.34029 0.69874 0.0
N1275 N 0.86935 0.32352 0.71896 0.0
N1276 N 0.88476 0.35468 0.75053 0.0
C1277 C 0.8909 0.34606 0.78727 0.0
C1278 C 0.88264 0.32922 0.7697 0.0
C1279 C 0.66107 0.54596 0.80325 0.0
C1280 C 0.654 0.55239 0.858 0.0
C1281 C 0.67761 0.55457 0.78482 0.0
C1282 C 0.68753 0.56997 0.8196 0.0
H1283 H 0.65374 0.53424 0.77428 0.0
H1284 H 0.68267 0.54913 0.74336 0.0
S1285 S 0.67438 0.59262 0.95993 0.0
N1286 N 0.65788 0.57521 0.94348 0.0
N1287 N 0.68878 0.59166 0.90666 0.0
C1288 C 0.68046 0.57661 0.87305 0.0
C1289 C 0.66373 0.56775 0.89278 0.0
C1290 C 0.90796 0.56658 0.88363 0.0
C1291 C 0.90301 0.55145 0.84715 0.0
C1292 C 0.89995 0.57502 0.86386 0.0
C1293 C 0.88658 0.56853 0.80789 0.0
H1294 H 0.91831 0.57207 0.92614 0.0
H1295 H 0.90439 0.58682 0.89195 0.0
S1296 S 0.86847 0.52883 0.69962 0.0
N1297 N 0.8839 0.53013 0.75386 0.0
N1298 N 0.86837 0.54567 0.71952 0.0
C1299 C 0.88138 0.55326 0.7722 0.0
C1300 C 0.8897 0.54479 0.79131 0.0
C1301 C 0.4531 0.3271 0.84956 0.0
C1302 C 0.43734 0.31891 0.81694 0.0
C1303 C 0.46071 0.34362 0.86827 0.0
C1304 C 0.45271 0.35234 0.85527 0.0
H1305 H 0.45955 0.32071 0.8606 0.0
H1306 H 0.47297 0.34965 0.89179 0.0
S1307 S 0.41092 0.33599 0.77715 0.0
N1308 N 0.41378 0.32042 0.77602 0.0
N1309 N 0.4279 0.35134 0.81248 0.0
C1310 C 0.43681 0.34412 0.82476 0.0
C1311 C 0.42916 0.32741 0.80518 0.0
C1312 C 0.66166 0.09615 0.79945 0.0
C1313 C 0.65458 0.10269 0.85364 0.0
C1314 C 0.67808 0.10478 0.77912 0.0
C1315 C 0.68803 0.1202 0.81298 0.0
H1316 H 0.65449 0.08414 0.77347 0.0
H1317 H 0.68311 0.0992 0.73847 0.0
S1318 S 0.67546 0.14312 0.9541 0.0
N1319 N 0.65874 0.12592 0.93695 0.0
N1320 N 0.68976 0.14191 0.90115 0.0
C1321 C 0.68115 0.12697 0.8665 0.0
C1322 C 0.66439 0.11826 0.88641 0.0
C1323 C 0.54715 0.88833 0.19202 0.0
C1324 C 0.55374 0.9024 0.14161 0.0
C1325 C 0.55605 0.88072 0.21074 0.0
C1326 C 0.57188 0.88706 0.18031 0.0
H1327 H 0.53505 0.88323 0.21731 0.0
H1328 H 0.5505 0.86977 0.24862 0.0
S1329 S 0.59496 0.92442 0.05213 0.0
N1330 N 0.57713 0.92275 0.06507 0.0
N1331 N 0.59404 0.90877 0.10193 0.0
C1332 C 0.57866 0.90131 0.13138 0.0
C1333 C 0.56954 0.9089 0.11153 0.0
C1334 C 0.11757 0.65947 0.19001 0.0
C1335 C 0.1029 0.65192 0.14495 0.0
C1336 C 0.12543 0.67602 0.20777 0.0
C1337 C 0.11874 0.68545 0.18182 0.0
H1338 H 0.12299 0.65253 0.21149 0.0
H1339 H 0.13686 0.6815 0.24131 0.0
S1340 S 0.07976 0.6709 0.06943 0.0
N1341 N 0.0816 0.65478 0.07863 0.0
N1342 N 0.09602 0.68573 0.11434 0.0
C1343 C 0.10385 0.67788 0.13874 0.0
C1344 C 0.09601 0.66113 0.11967 0.0
C1345 C 0.34642 0.45945 0.18931 0.0
C1346 C 0.35387 0.4525 0.14175 0.0
C1347 C 0.32991 0.45067 0.20846 0.0
C1348 C 0.32042 0.43463 0.18147 0.0
H1349 H 0.3534 0.47174 0.2117 0.0
H1350 H 0.3245 0.45651 0.2438 0.0
S1351 S 0.33474 0.41058 0.06285 0.0
N1352 N 0.35087 0.42854 0.07219 0.0
N1353 N 0.32002 0.41185 0.11044 0.0
C1354 C 0.32791 0.42746 0.13601 0.0
C1355 C 0.34461 0.43646 0.11552 0.0
C1356 C 0.76455 0.7729 0.54141 0.0
C1357 C 0.77102 0.78625 0.48527 0.0
C1358 C 0.77311 0.76508 0.56238 0.0
C1359 C 0.78838 0.77021 0.52713 0.0
H1360 H 0.75264 0.7683 0.56842 0.0
H1361 H 0.76759 0.75469 0.60462 0.0
S1362 S 0.81108 0.8049 0.38055 0.0
N1363 N 0.79405 0.80472 0.3986 0.0
N1364 N 0.80987 0.78957 0.43542 0.0
C1365 C 0.79507 0.78356 0.47156 0.0
C1366 C 0.78645 0.79168 0.4511 0.0
C1367 C 0.23636 0.9952 0.44588 0.0
C1368 C 0.22058 0.98552 0.47582 0.0
C1369 C 0.24489 0.01172 0.46349 0.0
C1370 C 0.23783 0.01917 0.51049 0.0
H1371 H 0.24226 0.98988 0.41021 0.0
H1372 H 0.25715 0.01872 0.44057 0.0
S1373 S 0.19654 0.99901 0.60043 0.0
N1374 N 0.19815 0.98437 0.55421 0.0
N1375 N 0.21393 0.01558 0.58442 0.0
C1376 C 0.22197 0.0096 0.53996 0.0
C1377 C 0.21339 0.99273 0.52311 0.0
C1378 C 0.99546 0.21085 0.48753 0.0
C1379 C 0.98754 0.21848 0.52299 0.0
C1380 C 0.01197 0.2196 0.46847 0.0
C1381 C 0.02097 0.23623 0.48377 0.0
H1382 H 0.98883 0.19807 0.4744 0.0
H1383 H 0.01777 0.21331 0.44255 0.0
S1384 S 0.00539 0.26185 0.56967 0.0
N1385 N 0.98961 0.24354 0.56925 0.0
N1386 N 0.02051 0.26007 0.53184 0.0
C1387 C 0.01303 0.24398 0.5174 0.0
C1388 C 0.99633 0.23508 0.53746 0.0
C1389 C 0.24501 0.23583 0.55392 0.0
C1390 C 0.23849 0.21973 0.52889 0.0
C1391 C 0.23699 0.2443 0.53531 0.0
C1392 C 0.22207 0.23689 0.49214 0.0
H1393 H 0.25655 0.24199 0.58636 0.0
H1394 H 0.24254 0.2568 0.55442 0.0
S1395 S 0.19998 0.1948 0.41432 0.0
N1396 N 0.21652 0.19669 0.45815 0.0
N1397 N 0.20105 0.21239 0.42635 0.0
C1398 C 0.21543 0.22074 0.46728 0.0
C1399 C 0.22373 0.21221 0.48508 0.0
C1400 C 0.78615 0.99531 0.45494 0.0
C1401 C 0.76991 0.98573 0.47836 0.0
C1402 C 0.79471 0.01178 0.47479 0.0
C1403 C 0.78732 0.0191 0.51953 0.0
H1404 H 0.79231 0.98999 0.42191 0.0
H1405 H 0.80717 0.01885 0.4552 0.0
S1406 S 0.74483 0.9997 0.58903 0.0
N1407 N 0.74654 0.9851 0.54323 0.0
N1408 N 0.76281 0.01589 0.58284 0.0
C1409 C 0.7711 0.00976 0.54218 0.0
C1410 C 0.76233 0.9931 0.52098 0.0
C1411 C 0.99712 0.76366 0.55646 0.0
C1412 C 0.98716 0.76919 0.52348 0.0
C1413 C 0.01359 0.77164 0.53708 0.0
C1414 C 0.0207 0.78558 0.48533 0.0
H1415 H 0.99209 0.75292 0.59605 0.0
H1416 H 0.0208 0.7668 0.56253 0.0
S1417 S 0.99969 0.80514 0.38626 0.0
N1418 N 0.98536 0.78932 0.4371 0.0
N1419 N 0.01647 0.80479 0.40385 0.0
C1420 C 0.01083 0.79129 0.45274 0.0
C1421 C 0.99401 0.78299 0.47125 0.0
C1422 C 0.10794 0.33097 0.4104 0.0
C1423 C 0.10179 0.31827 0.35045 0.0
C1424 C 0.11597 0.34701 0.383 0.0
C1425 C 0.11829 0.35114 0.29427 0.0
H1426 H 0.10683 0.32858 0.47941 0.0
H1427 H 0.12067 0.35624 0.43248 0.0
S1428 S 0.1035 0.32242 0.11015 0.0
N1429 N 0.0978 0.31094 0.19734 0.0
N1430 N 0.11296 0.34108 0.14626 0.0
C1431 C 0.11177 0.33858 0.23334 0.0
C1432 C 0.10353 0.32218 0.26126 0.0
C1433 C 0.65881 0.76714 0.3839 0.0
C1434 C 0.65421 0.76782 0.29785 0.0
C1435 C 0.67499 0.77539 0.40955 0.0
C1436 C 0.6873 0.78465 0.35019 0.0
H1437 H 0.64983 0.76029 0.43243 0.0
H1438 H 0.67783 0.77456 0.47662 0.0
S1439 S 0.68174 0.79063 0.11701 0.0
N1440 N 0.66339 0.77859 0.15322 0.0
N1441 N 0.69369 0.7941 0.20086 0.0
C1442 C 0.68289 0.78528 0.26349 0.0
C1443 C 0.66641 0.77687 0.23748 0.0
C1444 C 0.22528 0.90137 0.28522 0.0
C1445 C 0.22346 0.90389 0.37363 0.0
C1446 C 0.23328 0.89326 0.25895 0.0
C1447 C 0.23986 0.88727 0.31977 0.0
H1448 H 0.2202 0.90542 0.23525 0.0
H1449 H 0.23398 0.8914 0.1902 0.0
S1450 S 0.23957 0.8917 0.55939 0.0
N1451 N 0.22976 0.90046 0.52208 0.0
N1452 N 0.24483 0.88527 0.47309 0.0
C1453 C 0.23863 0.89016 0.40851 0.0
C1454 C 0.23044 0.89844 0.43528 0.0
C1455 C 0.32557 0.10289 0.72032 0.0
C1456 C 0.32138 0.09997 0.63183 0.0
C1457 C 0.34165 0.1109 0.74739 0.0
C1458 C 0.35431 0.11636 0.68726 0.0
H1459 H 0.31635 0.09928 0.76953 0.0
H1460 H 0.34413 0.11312 0.81603 0.0
S1461 S 0.34995 0.11063 0.4481 0.0
N1462 N 0.33134 0.10239 0.48436 0.0
N1463 N 0.36149 0.11736 0.53479 0.0
C1464 C 0.35031 0.11303 0.59862 0.0
C1465 C 0.33391 0.10487 0.57107 0.0
C1466 C 0.90443 0.23056 0.59391 0.0
C1467 C 0.90606 0.22006 0.65093 0.0
C1468 C 0.8966 0.2389 0.61965 0.0
C1469 C 0.89006 0.2371 0.70353 0.0
H1470 H 0.90913 0.2323 0.52854 0.0
H1471 H 0.89552 0.2467 0.57277 0.0
S1472 S 0.89051 0.21057 0.87686 0.0
N1473 N 0.9001 0.20805 0.7951 0.0
N1474 N 0.88556 0.22381 0.84314 0.0
C1475 C 0.89177 0.22679 0.76162 0.0
C1476 C 0.8997 0.21825 0.73541 0.0
C1477 C 0.77982 0.67364 0.58521 0.0
C1478 C 0.78539 0.68599 0.64725 0.0
C1479 C 0.77193 0.65744 0.60999 0.0
C1480 C 0.76923 0.65281 0.69794 0.0
H1481 H 0.78183 0.67646 0.51676 0.0
H1482 H 0.76821 0.64849 0.55937 0.0
S1483 S 0.78045 0.68039 0.8864 0.0
N1484 N 0.78689 0.69237 0.80127 0.0
N1485 N 0.77212 0.66198 0.84724 0.0
C1486 C 0.77433 0.665 0.76073 0.0
C1487 C 0.78237 0.68154 0.73558 0.0
C1488 C 0.88825 0.65727 0.60374 0.0
C1489 C 0.88919 0.65236 0.68864 0.0
C1490 C 0.89664 0.6735 0.57955 0.0
C1491 C 0.90635 0.68554 0.63919 0.0
H1492 H 0.88063 0.64855 0.55578 0.0
H1493 H 0.89511 0.67662 0.51417 0.0
S1494 S 0.91469 0.67886 0.86618 0.0
N1495 N 0.90179 0.66074 0.83012 0.0
N1496 N 0.91762 0.69123 0.78498 0.0
C1497 C 0.90795 0.68074 0.72336 0.0
C1498 C 0.89936 0.66419 0.74799 0.0
C1499 C 0.32679 0.22393 0.71649 0.0
C1500 C 0.32262 0.22221 0.62786 0.0
C1501 C 0.34286 0.23197 0.74361 0.0
C1502 C 0.35554 0.23867 0.68344 0.0
H1503 H 0.31758 0.21877 0.76595 0.0
H1504 H 0.34531 0.2326 0.81247 0.0
S1505 S 0.35125 0.23861 0.44358 0.0
N1506 N 0.33261 0.22869 0.47993 0.0
N1507 N 0.36278 0.24383 0.5305 0.0
C1508 C 0.35158 0.23753 0.59451 0.0
C1509 C 0.33516 0.22931 0.56688 0.0
C1510 C 0.77154 0.11445 0.61633 0.0
C1511 C 0.76907 0.11644 0.70457 0.0
C1512 C 0.77955 0.10632 0.59068 0.0
C1513 C 0.78548 0.09976 0.65199 0.0
H1514 H 0.76754 0.11951 0.56602 0.0
H1515 H 0.78137 0.10549 0.52201 0.0
S1516 S 0.78115 0.10047 0.89148 0.0
N1517 N 0.77249 0.11033 0.85344 0.0
N1518 N 0.78749 0.095 0.8056 0.0
C1519 C 0.78264 0.10116 0.74058 0.0
C1520 C 0.77447 0.10949 0.76672 0.0
C1521 C 0.67604 0.89831 0.40625 0.0
C1522 C 0.68851 0.9046 0.34481 0.0
C1523 C 0.65988 0.8904 0.38075 0.0
C1524 C 0.65541 0.88837 0.29252 0.0
H1525 H 0.67871 0.89923 0.47492 0.0
H1526 H 0.65083 0.88557 0.43118 0.0
S1527 S 0.68341 0.90355 0.10521 0.0
N1528 N 0.69524 0.90897 0.19098 0.0
N1529 N 0.6649 0.89406 0.14349 0.0
C1530 C 0.66774 0.895 0.23022 0.0
C1531 C 0.68425 0.90311 0.25619 0.0
C1532 C 0.11262 0.77364 0.24992 0.0
C1533 C 0.1184 0.76689 0.31106 0.0
C1534 C 0.10457 0.78174 0.27583 0.0
C1535 C 0.10194 0.7835 0.36413 0.0
H1536 H 0.11457 0.77295 0.18128 0.0
H1537 H 0.10068 0.78695 0.22581 0.0
S1538 S 0.11366 0.76708 0.55052 0.0
N1539 N 0.12013 0.7618 0.4645 0.0
N1540 N 0.10508 0.77703 0.51275 0.0
C1541 C 0.10722 0.77639 0.42601 0.0
C1542 C 0.11541 0.76811 0.39965 0.0
C1543 C 0.23692 0.34809 0.39434 0.0
C1544 C 0.23913 0.35229 0.30572 0.0
C1545 C 0.22909 0.33201 0.4213 0.0
C1546 C 0.2231 0.31936 0.36094 0.0
H1547 H 0.24099 0.35729 0.44387 0.0
H1548 H 0.22745 0.32952 0.49017 0.0
S1549 S 0.22672 0.32377 0.12092 0.0
N1550 N 0.23536 0.34237 0.15756 0.0
N1551 N 0.22071 0.31221 0.20776 0.0
C1552 C 0.22566 0.32337 0.27198 0.0
C1553 C 0.23364 0.33978 0.24454 0.0
C1554 C 0.99262 0.43253 0.04081 0.0
C1555 C 0.98826 0.43468 0.95665 0.0
C1556 C 0.0087 0.44069 0.06842 0.0
C1557 C 0.02109 0.45136 0.01304 0.0
H1558 H 0.98351 0.42455 0.08619 0.0
H1559 H 0.0114 0.43867 0.13381 0.0
S1560 S 0.01596 0.46211 0.78821 0.0
N1561 N 0.99764 0.44871 0.8193 0.0
N1562 N 0.02773 0.46414 0.87083 0.0
C1563 C 0.01688 0.45363 0.92864 0.0
C1564 C 1.00053 0.44527 0.90054 0.0
C1565 C 0.56471 0.55943 0.90473 0.0
C1566 C 0.5737 0.55608 0.96448 0.0
C1567 C 0.5565 0.56739 0.93032 0.0
C1568 C 0.55692 0.57236 0.01678 0.0
H1569 H 0.56357 0.55543 0.83811 0.0
H1570 H 0.54939 0.56925 0.88211 0.0
S1571 S 0.58055 0.5685 0.19597 0.0
N1572 N 0.5838 0.55977 0.11247 0.0
N1573 N 0.56836 0.57466 0.16025 0.0
C1574 C 0.56646 0.56973 0.07633 0.0
C1575 C 0.57484 0.56163 0.05029 0.0
C1576 C 0.43984 0.99885 0.08333 0.0
C1577 C 0.43717 0.98662 0.02416 0.0
C1578 C 0.44807 0.01508 0.05857 0.0
C1579 C 0.45397 0.01979 0.97357 0.0
H1580 H 0.4356 0.99589 0.14951 0.0
H1581 H 0.44988 0.02402 0.10682 0.0
S1582 S 0.45089 0.99254 0.79465 0.0
N1583 N 0.4416 0.98046 0.87695 0.0
N1584 N 0.45687 0.01082 0.83073 0.0
C1585 C 0.45133 0.00767 0.91363 0.0
C1586 C 0.443 0.99116 0.93882 0.0
C1587 C 0.56053 0.9904 0.95321 0.0
C1588 C 0.55537 0.98583 0.03948 0.0
C1589 C 0.56869 0.00658 0.92775 0.0
C1590 C 0.57208 0.01894 0.98738 0.0
H1591 H 0.5581 0.98138 0.90428 0.0
H1592 H 0.57225 0.00938 0.86051 0.0
S1593 S 0.56097 0.01347 0.22118 0.0
N1594 N 0.55427 0.99508 0.18462 0.0
N1595 N 0.56946 0.0254 0.13724 0.0
C1596 C 0.56716 0.01456 0.07427 0.0
C1597 C 0.55887 0.99807 0.10016 0.0
C1598 C 0.99924 0.56096 0.91926 0.0
C1599 C 0.98663 0.55476 0.97995 0.0
C1600 C 0.01533 0.56893 0.94577 0.0
C1601 C 0.01962 0.57107 0.03421 0.0
H1602 H 0.99671 0.55937 0.8504 0.0
H1603 H 0.02449 0.57317 0.89601 0.0
S1604 S 0.99123 0.55832 0.21984 0.0
N1605 N 0.97958 0.55224 0.13332 0.0
N1606 N 0.00982 0.56714 0.18271 0.0
C1607 C 0.00716 0.56545 0.09579 0.0
C1608 C 0.99071 0.55733 0.06881 0.0
C1609 C 0.44492 0.44024 0.90837 0.0
C1610 C 0.45074 0.43339 0.96851 0.0
C1611 C 0.43694 0.44833 0.93568 0.0
C1612 C 0.43444 0.45 0.02432 0.0
H1613 H 0.44684 0.43969 0.83956 0.0
H1614 H 0.433 0.45362 0.88653 0.0
S1615 S 0.44603 0.433 0.2083 0.0
N1616 N 0.45242 0.42786 0.12138 0.0
N1617 N 0.43757 0.44316 0.17204 0.0
C1618 C 0.43967 0.4427 0.08513 0.0
C1619 C 0.44777 0.4344 0.05743 0.0
C1620 C 0.19901 0.40751 0.30959 0.0
C1621 C 0.19266 0.40994 0.23245 0.0
C1622 C 0.21365 0.4076 0.31001 0.0
C1623 C 0.22254 0.41006 0.23327 0.0
H1624 H 0.19225 0.40472 0.36949 0.0
H1625 H 0.21759 0.40488 0.37022 0.0
S1626 S 0.21291 0.42032 0.01809 0.0
N1627 N 0.19771 0.41739 0.08039 0.0
N1628 N 0.22504 0.41728 0.08089 0.0
C1629 C 0.21692 0.41366 0.15717 0.0
C1630 C 0.20205 0.41367 0.15685 0.0
C1631 C 0.59933 0.79314 0.1621 0.0
C1632 C 0.59644 0.78417 0.23888 0.0
C1633 C 0.59948 0.80778 0.16123 0.0
C1634 C 0.59675 0.81421 0.23707 0.0
H1635 H 0.60217 0.78922 0.10229 0.0
H1636 H 0.60243 0.81438 0.10085 0.0
S1637 S 0.58661 0.79459 0.45358 0.0
N1638 N 0.58929 0.78214 0.39161 0.0
N1639 N 0.58956 0.80963 0.39 0.0
C1640 C 0.59287 0.80492 0.31341 0.0
C1641 C 0.59273 0.78994 0.3143 0.0
C1642 C 0.21267 0.80771 0.15692 0.0
C1643 C 0.22229 0.81301 0.23198 0.0
C1644 C 0.19805 0.79315 0.15569 0.0
C1645 C 0.19237 0.7832 0.22947 0.0
H1646 H 0.21608 0.81514 0.09932 0.0
H1647 H 0.19086 0.79003 0.09727 0.0
S1648 S 0.21405 0.79041 0.43903 0.0
N1649 N 0.22584 0.80625 0.37942 0.0
N1650 N 0.19845 0.77896 0.37713 0.0
C1651 C 0.20238 0.78783 0.3032 0.0
C1652 C 0.21729 0.80269 0.30446 0.0
C1653 C 0.40686 0.19613 0.84603 0.0
C1654 C 0.41139 0.19066 0.77244 0.0
C1655 C 0.40706 0.21082 0.84561 0.0
C1656 C 0.4118 0.22073 0.77157 0.0
H1657 H 0.40248 0.18874 0.90367 0.0
H1658 H 0.40283 0.21408 0.90295 0.0
S1659 S 0.427 0.21309 0.56579 0.0
N1660 N 0.42242 0.19721 0.62631 0.0
N1661 N 0.4228 0.22474 0.62553 0.0
C1662 C 0.41737 0.21591 0.69941 0.0
C1663 C 0.41717 0.20093 0.69983 0.0
C1664 C 0.79545 0.19719 0.83649 0.0
C1665 C 0.78608 0.19121 0.76094 0.0
C1666 C 0.81001 0.21177 0.83625 0.0
C1667 C 0.81592 0.22112 0.76052 0.0
H1668 H 0.79189 0.19027 0.89594 0.0
H1669 H 0.81696 0.21534 0.89549 0.0
S1670 S 0.795 0.21201 0.54785 0.0
N1671 N 0.78304 0.19665 0.60999 0.0
N1672 N 0.81038 0.22405 0.60967 0.0
C1673 C 0.80621 0.2158 0.68572 0.0
C1674 C 0.79132 0.20089 0.68592 0.0
C1675 C 0.8084 0.59715 0.67785 0.0
C1676 C 0.81457 0.59399 0.75344 0.0
C1677 C 0.79379 0.59713 0.67898 0.0
C1678 C 0.78475 0.59395 0.75576 0.0
H1679 H 0.81531 0.60052 0.61832 0.0
H1680 H 0.79 0.60048 0.62027 0.0
S1681 S 0.79387 0.58151 0.96604 0.0
N1682 N 0.80925 0.58513 0.90339 0.0
N1683 N 0.78184 0.5851 0.90557 0.0
C1684 C 0.79016 0.58954 0.82988 0.0
C1685 C 0.80504 0.58956 0.82871 0.0
C1686 C 0.87984 0.73979 0.50426 0.0
C1687 C 0.88925 0.74315 0.57972 0.0
C1688 C 0.8653 0.73987 0.50475 0.0
C1689 C 0.85947 0.74334 0.58067 0.0
H1690 H 0.88339 0.73645 0.44468 0.0
H1691 H 0.85832 0.73656 0.44556 0.0
S1692 S 0.8805 0.75506 0.79312 0.0
N1693 N 0.89239 0.75161 0.73065 0.0
N1694 N 0.86512 0.75181 0.73153 0.0
C1695 C 0.86923 0.74773 0.6553 0.0
C1696 C 0.88407 0.74762 0.65483 0.0
C1697 C 0.26257 0.13876 0.63219 0.0
C1698 C 0.26514 0.14786 0.55619 0.0
C1699 C 0.26244 0.1241 0.63069 0.0
C1700 C 0.26486 0.11786 0.55311 0.0
H1701 H 0.2613 0.14326 0.69428 0.0
H1702 H 0.26108 0.11797 0.6917 0.0
S1703 S 0.26984 0.13583 0.33394 0.0
N1704 N 0.26851 0.14867 0.39949 0.0
N1705 N 0.26823 0.12121 0.39675 0.0
C1706 C 0.26644 0.12634 0.47582 0.0
C1707 C 0.26659 0.14129 0.47733 0.0
C1708 C 0.87919 0.14186 0.4966 0.0
C1709 C 0.88957 0.14667 0.5687 0.0
C1710 C 0.8646 0.1273 0.49607 0.0
C1711 C 0.85963 0.11685 0.56784 0.0
H1712 H 0.88194 0.14968 0.44112 0.0
H1713 H 0.85686 0.12459 0.44007 0.0
S1714 S 0.88334 0.12262 0.76846 0.0
N1715 N 0.89456 0.13888 0.71041 0.0
N1716 N 0.86711 0.1116 0.70979 0.0
C1717 C 0.87032 0.12101 0.63839 0.0
C1718 C 0.88525 0.13586 0.63875 0.0
C1719 C 0.07244 0.54367 0.1678 0.0
C1720 C 0.07727 0.55387 0.09499 0.0
C1721 C 0.07264 0.5292 0.16705 0.0
C1722 C 0.07776 0.52424 0.09367 0.0
H1723 H 0.06782 0.54651 0.22506 0.0
H1724 H 0.0681 0.52158 0.22365 0.0
S1725 S 0.09375 0.54762 0.8901 0.0
N1726 N 0.08884 0.55872 0.95019 0.0
N1727 N 0.08935 0.53161 0.94906 0.0
C1728 C 0.08358 0.5348 0.02226 0.0
C1729 C 0.0833 0.54956 0.02286 0.0
C1730 C 0.46179 0.53026 0.16576 0.0
C1731 C 0.45221 0.52473 0.09057 0.0
C1732 C 0.47639 0.54483 0.16647 0.0
C1733 C 0.48211 0.55458 0.09203 0.0
H1734 H 0.45833 0.52302 0.22408 0.0
H1735 H 0.48352 0.54813 0.22521 0.0
S1736 S 0.46057 0.54676 0.88166 0.0
N1737 N 0.44878 0.53105 0.94207 0.0
N1738 N 0.47612 0.55841 0.94343 0.0
C1739 C 0.47217 0.54971 0.01799 0.0
C1740 C 0.45728 0.53483 0.01724 0.0
C1741 C 0.47546 0.93199 0.17353 0.0
C1742 C 0.48093 0.92776 0.09882 0.0
C1743 C 0.46092 0.93204 0.17394 0.0
C1744 C 0.45108 0.92785 0.09979 0.0
H1745 H 0.48278 0.93599 0.23152 0.0
H1746 H 0.45778 0.93611 0.23217 0.0
S1747 S 0.45862 0.91338 0.89119 0.0
N1748 N 0.47443 0.9175 0.95132 0.0
N1749 N 0.44704 0.91749 0.95233 0.0
C1750 C 0.45584 0.9225 0.02642 0.0
C1751 C 0.47074 0.92249 0.02587 0.0
C1752 C 0.54782 0.07336 0.82845 0.0
C1753 C 0.55751 0.07746 0.90317 0.0
C1754 C 0.53335 0.07357 0.82791 0.0
C1755 C 0.52784 0.07788 0.90217 0.0
H1756 H 0.55102 0.06927 0.77052 0.0
H1757 H 0.5261 0.06962 0.76963 0.0
S1758 S 0.54993 0.09225 0.1105 0.0
N1759 N 0.56146 0.08792 0.05035 0.0
N1760 N 0.53426 0.08826 0.0495 0.0
C1761 C 0.53795 0.08314 0.97546 0.0
C1762 C 0.55275 0.08295 0.97593 0.0
C1763 C 0.92836 0.45729 0.96681 0.0
C1764 C 0.9307 0.45097 0.88931 0.0
C1765 C 0.92823 0.47182 0.96771 0.0
C1766 C 0.93044 0.4807 0.89117 0.0
H1767 H 0.92729 0.45134 0.0281 0.0
H1768 H 0.92706 0.47644 0.02969 0.0
S1769 S 0.93469 0.46832 0.66907 0.0
N1770 N 0.93356 0.45397 0.73246 0.0
N1771 N 0.93331 0.48117 0.73432 0.0
C1772 C 0.93178 0.47402 0.81251 0.0
C1773 C 0.93191 0.45922 0.81154 0.0
C1774 C 0.53445 0.45714 0.96754 0.0
C1775 C 0.52506 0.4514 0.89176 0.0
C1776 C 0.54908 0.47172 0.96816 0.0
C1777 C 0.55503 0.48122 0.89295 0.0
H1778 H 0.53022 0.45064 0.02806 0.0
H1779 H 0.55545 0.47581 0.0291 0.0
S1780 S 0.53615 0.47075 0.67459 0.0
N1781 N 0.52358 0.45586 0.73746 0.0
N1782 N 0.55106 0.483 0.73828 0.0
C1783 C 0.54625 0.47517 0.81546 0.0
C1784 C 0.5313 0.46037 0.81496 0.0
C1785 C 0.74489 0.87968 0.35017 0.0
C1786 C 0.74585 0.88787 0.42764 0.0
C1787 C 0.74478 0.86503 0.35096 0.0
C1788 C 0.74567 0.85796 0.42923 0.0
H1789 H 0.74338 0.88418 0.28857 0.0
H1790 H 0.74316 0.85884 0.28992 0.0
S1791 S 0.75163 0.87613 0.64808 0.0
N1792 N 0.7499 0.88887 0.58349 0.0
N1793 N 0.74999 0.86155 0.58475 0.0
C1794 C 0.74789 0.86664 0.50635 0.0
C1795 C 0.7479 0.88152 0.50562 0.0
C1796 C 0.12866 0.86355 0.5124 0.0
C1797 C 0.11896 0.85784 0.43779 0.0
C1798 C 0.14332 0.87806 0.51161 0.0
C1799 C 0.14898 0.88755 0.4362 0.0
H1800 H 0.12527 0.85648 0.57131 0.0
H1801 H 0.15055 0.88147 0.56996 0.0
S1802 S 0.1271 0.87921 0.22675 0.0
N1803 N 0.1153 0.86375 0.28875 0.0
N1804 N 0.14281 0.89096 0.28727 0.0
C1805 C 0.13891 0.88251 0.36268 0.0
C1806 C 0.12394 0.86771 0.36349 0.0
C1807 C 0.14011 0.25868 0.37306 0.0
C1808 C 0.14949 0.26254 0.44897 0.0
C1809 C 0.12545 0.25857 0.37175 0.0
C1810 C 0.11949 0.2623 0.44629 0.0
H1811 H 0.1444 0.25634 0.31293 0.0
H1812 H 0.11909 0.25615 0.31068 0.0
S1813 S 0.13836 0.27126 0.66474 0.0
N1814 N 0.15092 0.26875 0.60278 0.0
N1815 N 0.12348 0.26848 0.60045 0.0
C1816 C 0.12827 0.26524 0.5239 0.0
C1817 C 0.14321 0.26537 0.5252 0.0
C1818 C 0.13769 0.38856 0.7134 0.0
C1819 C 0.14552 0.39951 0.78103 0.0
C1820 C 0.14133 0.39322 0.62675 0.0
C1821 C 0.15303 0.40899 0.60428 0.0
H1822 H 0.12869 0.37625 0.72754 0.0
H1823 H 0.13508 0.38428 0.57691 0.0
S1824 S 0.17565 0.44278 0.75595 0.0
N1825 N 0.1643 0.42733 0.81927 0.0
N1826 N 0.17183 0.4358 0.65572 0.0
C1827 C 0.16086 0.42014 0.67086 0.0
C1828 C 0.1569 0.41549 0.75946 0.0
C1829 C 0.58656 0.74202 0.67679 0.0
C1830 C 0.59767 0.74589 0.60922 0.0
C1831 C 0.59137 0.74309 0.76368 0.0
C1832 C 0.60755 0.74861 0.78563 0.0
H1833 H 0.57404 0.73776 0.66234 0.0
H1834 H 0.58226 0.73919 0.81347 0.0
S1835 S 0.64146 0.76148 0.63152 0.0
N1836 N 0.62558 0.75598 0.56934 0.0
N1837 N 0.63471 0.75859 0.73207 0.0
C1838 C 0.61878 0.75282 0.71817 0.0
C1839 C 0.61384 0.75139 0.63013 0.0
C1840 C 0.24635 0.8458 0.76112 0.0
C1841 C 0.25837 0.86069 0.7931 0.0
C1842 C 0.24586 0.84187 0.67313 0.0
C1843 C 0.25751 0.85257 0.61425 0.0
H1844 H 0.23684 0.83744 0.80343 0.0
H1845 H 0.236 0.83053 0.65064 0.0
S1846 S 0.29219 0.89261 0.66776 0.0
N1847 N 0.28264 0.88583 0.76074 0.0
N1848 N 0.28192 0.87839 0.59582 0.0
C1849 C 0.27002 0.86719 0.64652 0.0
C1850 C 0.27036 0.87128 0.73578 0.0
C1851 C 0.40337 0.16067 0.33594 0.0
C1852 C 0.40579 0.15063 0.39305 0.0
C1853 C 0.40003 0.15682 0.24784 0.0
C1854 C 0.39877 0.14269 0.2139 0.0
H1855 H 0.40364 0.17139 0.35991 0.0
H1856 H 0.39774 0.16462 0.20694 0.0
S1857 S 0.40499 0.11281 0.33385 0.0
N1858 N 0.40752 0.12632 0.40756 0.0
N1859 N 0.40103 0.11905 0.24234 0.0
C1860 C 0.40165 0.1328 0.26936 0.0
C1861 C 0.40528 0.13681 0.35878 0.0
C1862 C 0.86459 0.25478 0.36279 0.0
C1863 C 0.85499 0.26141 0.38645 0.0
C1864 C 0.86796 0.25357 0.27603 0.0
C1865 C 0.86193 0.25899 0.20937 0.0
H1866 H 0.86948 0.25034 0.41179 0.0
H1867 H 0.87539 0.24835 0.26103 0.0
S1868 S 0.83749 0.27876 0.23739 0.0
N1869 N 0.83997 0.27404 0.33694 0.0
N1870 N 0.84697 0.27249 0.17304 0.0
C1871 C 0.85253 0.26593 0.23191 0.0
C1872 C 0.84886 0.26692 0.32072 0.0
C1873 C 0.74662 0.58722 0.32128 0.0
C1874 C 0.74788 0.59757 0.38878 0.0
C1875 C 0.74742 0.59188 0.23429 0.0
C1876 C 0.75018 0.60729 0.21217 0.0
H1877 H 0.74468 0.57536 0.33579 0.0
H1878 H 0.74552 0.5832 0.18444 0.0
S1879 S 0.75527 0.63915 0.36629 0.0
N1880 N 0.75225 0.62392 0.42851 0.0
N1881 N 0.75453 0.63296 0.26574 0.0
C1882 C 0.75165 0.61778 0.27962 0.0
C1883 C 0.7504 0.61288 0.36773 0.0
C1884 C 0.84542 0.58771 0.31346 0.0
C1885 C 0.85467 0.59789 0.3811 0.0
C1886 C 0.84957 0.59225 0.22657 0.0
C1887 C 0.86272 0.60738 0.20465 0.0
H1888 H 0.83514 0.57606 0.32781 0.0
H1889 H 0.84261 0.58367 0.17662 0.0
S1890 S 0.89006 0.63876 0.35931 0.0
N1891 N 0.87729 0.62381 0.42133 0.0
N1892 N 0.88466 0.63263 0.25859 0.0
C1893 C 0.87189 0.61771 0.27225 0.0
C1894 C 0.86792 0.61293 0.36033 0.0
C1895 C 0.4068 0.24454 0.33177 0.0
C1896 C 0.4079 0.2563 0.39032 0.0
C1897 C 0.40331 0.24497 0.24379 0.0
C1898 C 0.40056 0.25704 0.21144 0.0
H1899 H 0.40819 0.23464 0.35455 0.0
H1900 H 0.40204 0.23537 0.20178 0.0
S1901 S 0.40295 0.29118 0.33565 0.0
N1902 N 0.40681 0.28089 0.40791 0.0
N1903 N 0.4 0.28149 0.24301 0.0
C1904 C 0.40213 0.26915 0.26837 0.0
C1905 C 0.40593 0.26887 0.35763 0.0
C1906 C 0.75545 0.14171 0.28023 0.0
C1907 C 0.74838 0.14598 0.21343 0.0
C1908 C 0.75378 0.14477 0.36693 0.0
C1909 C 0.74504 0.15235 0.39046 0.0
H1910 H 0.76231 0.13585 0.26545 0.0
H1911 H 0.75947 0.14124 0.41604 0.0
S1912 S 0.723 0.16474 0.24171 0.0
N1913 N 0.73119 0.15706 0.17739 0.0
N1914 N 0.7288 0.16362 0.34105 0.0
C1915 C 0.73794 0.15678 0.32475 0.0
C1916 C 0.73939 0.15337 0.236 0.0
C1917 C 0.61727 0.86638 0.71571 0.0
C1918 C 0.60592 0.86019 0.78299 0.0
C1919 C 0.61255 0.86323 0.62899 0.0
C1920 C 0.59628 0.85366 0.60597 0.0
H1921 H 0.62995 0.87379 0.73017 0.0
H1922 H 0.62178 0.86823 0.5795 0.0
S1923 S 0.56166 0.83584 0.75649 0.0
N1924 N 0.5775 0.8452 0.82031 0.0
N1925 N 0.56873 0.83853 0.65655 0.0
C1926 C 0.58476 0.84738 0.67219 0.0
C1927 C 0.58955 0.85086 0.76096 0.0
C1928 C 0.13989 0.73725 0.64236 0.0
C1929 C 0.15358 0.75046 0.60643 0.0
C1930 C 0.13612 0.73694 0.73046 0.0
C1931 C 0.14605 0.74965 0.78619 0.0
H1932 H 0.1316 0.72741 0.60147 0.0
H1933 H 0.12518 0.72679 0.75489 0.0
S1934 S 0.18374 0.78659 0.72574 0.0
N1935 N 0.17751 0.77625 0.63466 0.0
N1936 N 0.17034 0.7756 0.8 0.0
C1937 C 0.16009 0.76262 0.75205 0.0
C1938 C 0.16387 0.76303 0.66222 0.0
C1939 C 0.26919 0.40009 0.73079 0.0
C1940 C 0.25638 0.39711 0.78623 0.0
C1941 C 0.26883 0.40347 0.64265 0.0
C1942 C 0.25547 0.40366 0.60657 0.0
H1943 H 0.27946 0.39954 0.75552 0.0
H1944 H 0.27875 0.4052 0.60187 0.0
S1945 S 0.21905 0.39705 0.72539 0.0
N1946 N 0.23019 0.39491 0.79976 0.0
N1947 N 0.22944 0.4013 0.6344 0.0
C1948 C 0.2428 0.40117 0.66215 0.0
C1949 C 0.24326 0.39786 0.75194 0.0
C1950 C 0.81294 0.72913 0.97654 0.0
C1951 C 0.82057 0.74549 0.95413 0.0
C1952 C 0.80972 0.72417 0.06297 0.0
C1953 C 0.81387 0.73535 0.1306 0.0
H1954 H 0.80954 0.72004 0.92677 0.0
H1955 H 0.80387 0.71143 0.07688 0.0
S1956 S 0.83245 0.77952 0.10498 0.0
N1957 N 0.8316 0.77285 0.00531 0.0
N1958 N 0.8247 0.76351 0.16823 0.0
C1959 C 0.8212 0.75177 0.10898 0.0
C1960 C 0.82479 0.75684 0.02058 0.0
C1961 C 0.27164 0.09505 0.99067 0.0
C1962 C 0.26925 0.08268 0.93301 0.0
C1963 C 0.27487 0.09436 0.07869 0.0
C1964 C 0.27601 0.08137 0.11193 0.0
H1965 H 0.2715 0.10559 0.96721 0.0
H1966 H 0.2772 0.1044 0.12001 0.0
S1967 S 0.26956 0.04533 0.99085 0.0
N1968 N 0.26723 0.05652 0.91751 0.0
N1969 N 0.27354 0.05542 0.08273 0.0
C1970 C 0.27308 0.06866 0.05611 0.0
C1971 C 0.26957 0.06923 0.96674 0.0
C1972 C 0.92622 0.17683 0.01547 0.0
C1973 C 0.9277 0.18715 0.94745 0.0
C1974 C 0.92614 0.18123 0.10212 0.0
C1975 C 0.92657 0.19571 0.12383 0.0
H1976 H 0.92535 0.16537 0.00164 0.0
H1977 H 0.926 0.17325 0.15169 0.0
S1978 S 0.93106 0.22717 0.96761 0.0
N1979 N 0.93063 0.21288 0.90647 0.0
N1980 N 0.92924 0.22067 0.06825 0.0
C1981 C 0.92831 0.20623 0.0556 0.0
C1982 C 0.92907 0.20203 0.96778 0.0
C1983 C 0.08541 0.49375 0.6493 0.0
C1984 C 0.07628 0.48365 0.71739 0.0
C1985 C 0.08079 0.48948 0.56269 0.0
C1986 C 0.06634 0.47539 0.54099 0.0
H1987 H 0.09632 0.50495 0.66305 0.0
H1988 H 0.08886 0.49726 0.5133 0.0
S1989 S 0.03859 0.44447 0.6974 0.0
N1990 N 0.05281 0.45842 0.75842 0.0
N1991 N 0.04342 0.45093 0.59681 0.0
C1992 C 0.0573 0.46505 0.60932 0.0
C1993 C 0.06238 0.46909 0.6971 0.0
C1994 C 0.51086 0.57816 0.65748 0.0
C1995 C 0.52146 0.59015 0.7152 0.0
C1996 C 0.5146 0.5786 0.56927 0.0
C1997 C 0.52916 0.59095 0.53595 0.0
H1998 H 0.49981 0.56804 0.68109 0.0
H1999 H 0.5064 0.56881 0.52789 0.0
S2000 S 0.56038 0.62601 0.65692 0.0
N2001 N 0.54661 0.61543 0.73046 0.0
N2002 N 0.55369 0.61604 0.56501 0.0
C2003 C 0.53953 0.60337 0.59175 0.0
C2004 C 0.53564 0.60307 0.68127 0.0
C2005 C 0.41583 0.92764 0.56913 0.0
C2006 C 0.41528 0.9416 0.54687 0.0
C2007 C 0.41557 0.92316 0.65594 0.0
C2008 C 0.41387 0.93197 0.72344 0.0
H2009 H 0.41618 0.91986 0.51978 0.0
H2010 H 0.41649 0.91262 0.67031 0.0
S2011 S 0.41045 0.96857 0.70129 0.0
N2012 N 0.41243 0.96385 0.60102 0.0
N2013 N 0.41082 0.95476 0.76315 0.0
C2014 C 0.4125 0.94545 0.70242 0.0
C2015 C 0.41338 0.95037 0.61447 0.0
C2016 C 0.52767 0.94212 0.70009 0.0
C2017 C 0.51995 0.92582 0.72382 0.0
C2018 C 0.53088 0.94683 0.61343 0.0
C2019 C 0.52661 0.93546 0.54686 0.0
H2020 H 0.5312 0.95138 0.74902 0.0
H2021 H 0.53684 0.95954 0.59847 0.0
S2022 S 0.50752 0.89132 0.57558 0.0
N2023 N 0.50858 0.89828 0.67475 0.0
N2024 N 0.51539 0.90717 0.51115 0.0
C2025 C 0.5191 0.91909 0.56959 0.0
C2026 C 0.51554 0.91426 0.65829 0.0
C2027 C 0.08342 0.59681 0.56983 0.0
C2028 C 0.067 0.58942 0.54756 0.0
C2029 C 0.08831 0.59805 0.65674 0.0
C2030 C 0.07697 0.59237 0.72402 0.0
H2031 H 0.0926 0.60211 0.52047 0.0
H2032 H 0.10102 0.60387 0.67151 0.0
S2033 S 0.03263 0.57125 0.70077 0.0
N2034 N 0.03948 0.57559 0.60056 0.0
N2035 N 0.04869 0.57844 0.7632 0.0
C2036 C 0.06058 0.58486 0.70276 0.0
C2037 C 0.0556 0.58332 0.61474 0.0
C2038 C 0.40885 0.48796 0.56335 0.0
C2039 C 0.41649 0.47915 0.54141 0.0
C2040 C 0.40761 0.49171 0.65012 0.0
C2041 C 0.41353 0.48635 0.71766 0.0
H2042 H 0.40337 0.49161 0.51385 0.0
H2043 H 0.40161 0.49843 0.6646 0.0
S2044 S 0.43532 0.46378 0.6954 0.0
N2045 N 0.43079 0.46599 0.59508 0.0
N2046 N 0.42793 0.47252 0.75745 0.0
C2047 C 0.42127 0.47768 0.69676 0.0
C2048 C 0.42281 0.47415 0.60887 0.0
C2049 C 0.28226 0.19571 0.05274 0.0
C2050 C 0.27145 0.19415 0.11827 0.0
C2051 C 0.27736 0.19231 0.96644 0.0
C2052 C 0.26141 0.18718 0.94193 0.0
H2053 H 0.29469 0.19967 0.06822 0.0
H2054 H 0.28622 0.19375 0.91841 0.0
S2055 S 0.22861 0.18226 0.08765 0.0
N2056 N 0.24425 0.18804 0.15237 0.0
N2057 N 0.23487 0.18109 0.98956 0.0
C2058 C 0.25038 0.18544 0.00665 0.0
C2059 C 0.25545 0.1891 0.095 0.0
C2060 C 0.83087 0.09304 0.00624 0.0
C2061 C 0.81998 0.08149 0.94761 0.0
C2062 C 0.82701 0.09271 0.09424 0.0
C2063 C 0.81202 0.08095 0.12651 0.0
H2064 H 0.84232 0.10271 0.98353 0.0
H2065 H 0.83553 0.10215 0.13629 0.0
S2066 S 0.7796 0.04743 0.00201 0.0
N2067 N 0.79386 0.05742 0.9298 0.0
N2068 N 0.78657 0.05699 0.09476 0.0
C2069 C 0.80123 0.06903 0.06948 0.0
C2070 C 0.80524 0.06921 0.9802 0.0
C2071 C 0.93592 0.75495 0.0152 0.0
C2072 C 0.9276 0.74391 0.94868 0.0
C2073 C 0.93415 0.74989 0.10215 0.0
C2074 C 0.92381 0.73369 0.12501 0.0
H2075 H 0.94418 0.76742 -0.00033 0.0
H2076 H 0.94137 0.7586 0.15098 0.0
S2077 S 0.89782 0.70069 0.97476 0.0
N2078 N 0.9078 0.71648 0.91139 0.0
N2079 N 0.9042 0.70704 0.07414 0.0
C2080 C 0.915 0.72275 0.05887 0.0
C2081 C 0.91693 0.72785 0.97087 0.0
C2082 C 0.49525 0.06926 0.42751 0.0
C2083 C 0.48054 0.06678 0.46015 0.0
C2084 C 0.49902 0.07248 0.33932 0.0
C2085 C 0.48829 0.07351 0.28096 0.0
H2086 H 0.50355 0.06794 0.46944 0.0
H2087 H 0.5102 0.07364 0.31628 0.0
S2088 S 0.44892 0.06963 0.33729 0.0
N2089 N 0.45573 0.06671 0.42978 0.0
N2090 N 0.46283 0.073 0.2643 0.0
C2091 C 0.47394 0.07196 0.31417 0.0
C2092 C 0.47003 0.06847 0.40368 0.0
C2093 C 0.92489 0.40816 0.41726 0.0
C2094 C 0.94131 0.41564 0.43977 0.0
C2095 C 0.91999 0.40716 0.33051 0.0
C2096 C 0.93133 0.41313 0.26334 0.0
H2097 H 0.91566 0.40259 0.46599 0.0
H2098 H 0.90728 0.40131 0.31575 0.0
S2099 S 0.97564 0.43417 0.28586 0.0
N2100 N 0.96884 0.42966 0.38613 0.0
N2101 N 0.95954 0.4271 0.22375 0.0
C2102 C 0.9477 0.42058 0.28439 0.0
C2103 C 0.95271 0.42194 0.37235 0.0
C2104 C 0.60412 0.51626 0.34075 0.0
C2105 C 0.59504 0.51805 0.27494 0.0
C2106 C 0.60263 0.51987 0.42752 0.0
C2107 C 0.59182 0.52512 0.45087 0.0
H2108 H 0.61283 0.51264 0.32466 0.0
H2109 H 0.61043 0.51916 0.47565 0.0
S2110 S 0.56369 0.5294 0.30365 0.0
N2111 N 0.5739 0.52397 0.23965 0.0
N2112 N 0.57089 0.53043 0.40204 0.0
C2113 C 0.5822 0.52622 0.38581 0.0
C2114 C 0.58383 0.52272 0.29802 0.0
C2115 C 0.74812 0.8278 0.98654 0.0
C2116 C 0.74048 0.81671 0.05369 0.0
C2117 C 0.74377 0.82345 0.89971 0.0
C2118 C 0.731 0.80812 0.87707 0.0
H2119 H 0.75769 0.83985 0.00117 0.0
H2120 H 0.75076 0.83218 0.85066 0.0
S2121 S 0.70724 0.77468 0.03075 0.0
N2122 N 0.72006 0.78959 0.09277 0.0
N2123 N 0.71106 0.78171 0.93076 0.0
C2124 C 0.72336 0.7969 0.9444 0.0
C2125 C 0.72823 0.80115 0.03233 0.0
C2126 C 0.1991 0.91859 0.94923 0.0
C2127 C 0.19488 0.92574 0.8827 0.0
C2128 C 0.19579 0.92 0.03584 0.0
C2129 C 0.18803 0.92855 0.05955 0.0
H2130 H 0.20509 0.91187 0.93428 0.0
H2131 H 0.19929 0.91424 0.08471 0.0
S2132 S 0.17568 0.9507 0.91126 0.0
N2133 N 0.18362 0.94278 0.84691 0.0
N2134 N 0.17666 0.94474 0.0104 0.0
C2135 C 0.18367 0.93575 0.99401 0.0
C2136 C 0.18731 0.93455 0.90536 0.0
C2137 C 0.09624 0.2682 0.00067 0.0
C2138 C 0.08437 0.26675 0.0595 0.0
C2139 C 0.0957 0.27174 0.91289 0.0
C2140 C 0.08341 0.2742 0.88099 0.0
H2141 H 0.10628 0.26701 0.02304 0.0
H2142 H 0.10537 0.27326 0.87071 0.0
S2143 S 0.04905 0.27108 0.0064 0.0
N2144 N 0.05954 0.26737 0.0781 0.0
N2145 N 0.05873 0.27428 0.91352 0.0
C2146 C 0.07125 0.27238 0.93832 0.0
C2147 C 0.07164 0.26852 0.02739 0.0
C2148 C 0.20599 0.27237 0.94498 0.0
C2149 C 0.19599 0.2749 0.88845 0.0
C2150 C 0.20203 0.26878 0.03288 0.0
C2151 C 0.1881 0.26796 0.06775 0.0
H2152 H 0.21709 0.27342 0.92132 0.0
H2153 H 0.21034 0.2674 0.07447 0.0
S2154 S 0.15781 0.27337 0.94597 0.0
N2155 N 0.17146 0.27606 0.87274 0.0
N2156 N 0.16398 0.26937 0.03763 0.0
C2157 C 0.1778 0.27006 0.01113 0.0
C2158 C 0.18176 0.27354 0.92154 0.0
C2159 C 0.73471 0.91071 0.90481 0.0
C2160 C 0.73261 0.92311 0.87122 0.0
C2161 C 0.73818 0.91036 0.99279 0.0
C2162 C 0.73992 0.92253 0.05014 0.0
H2163 H 0.73296 0.90083 0.86376 0.0
H2164 H 0.7391 0.90024 0.01649 0.0
S2165 S 0.73667 0.95828 0.99217 0.0
N2166 N 0.73324 0.94824 0.90038 0.0
N2167 N 0.74001 0.94777 0.06551 0.0
C2168 C 0.73853 0.93537 0.01633 0.0
C2169 C 0.73474 0.93558 0.92699 0.0
C2170 C 0.09639 0.8241 0.91576 0.0
C2171 C 0.08306 0.81043 0.88122 0.0
C2172 C 0.09706 0.82784 0.00404 0.0
C2173 C 0.08435 0.81814 0.06066 0.0
H2174 H 0.10667 0.83156 0.87519 0.0
H2175 H 0.10785 0.83816 0.02852 0.0
S2176 S 0.04602 0.78187 0.99896 0.0
N2177 N 0.05641 0.78779 0.90791 0.0
N2178 N 0.05749 0.79487 0.07358 0.0
C2179 C 0.07057 0.8049 0.02555 0.0
C2180 C 0.07 0.801 0.93592 0.0
C2181 C 0.93432 0.50911 0.33395 0.0
C2182 C 0.93401 0.52006 0.27443 0.0
C2183 C 0.93788 0.51308 0.4218 0.0
C2184 C 0.94148 0.52825 0.45303 0.0
H2185 H 0.93226 0.49752 0.31204 0.0
H2186 H 0.93856 0.50451 0.46451 0.0
S2187 S 0.94149 0.56096 0.32579 0.0
N2188 N 0.93684 0.54648 0.25455 0.0
N2189 N 0.94379 0.55398 0.41927 0.0
C2190 C 0.94074 0.53913 0.39507 0.0
C2191 C 0.93687 0.53501 0.30593 0.0
C2192 C 0.47546 0.41933 0.38249 0.0
C2193 C 0.47875 0.4116 0.44999 0.0
C2194 C 0.47891 0.41771 0.29638 0.0
C2195 C 0.48588 0.40834 0.27401 0.0
H2196 H 0.47014 0.42672 0.39627 0.0
H2197 H 0.47619 0.42399 0.24688 0.0
S2198 S 0.49541 0.38432 0.42494 0.0
N2199 N 0.48811 0.39306 0.48777 0.0
N2200 N 0.49534 0.39067 0.32551 0.0
C2201 C 0.48922 0.40048 0.34051 0.0
C2202 C 0.48544 0.40192 0.4286 0.0
C2203 C 0.59002 0.07987 0.35031 0.0
C2204 C 0.59339 0.07217 0.28317 0.0
C2205 C 0.59014 0.07561 0.43721 0.0
C2206 C 0.59272 0.06285 0.45993 0.0
H2207 H 0.58748 0.0894 0.3356 0.0
H2208 H 0.58847 0.08265 0.48623 0.0
S2209 S 0.60237 0.03907 0.30618 0.0
N2210 N 0.60017 0.05181 0.24411 0.0
N2211 N 0.59921 0.04292 0.4062 0.0
C2212 C 0.59626 0.05518 0.39255 0.0
C2213 C 0.59678 0.05999 0.30457 0.0
loop_
_geom_bond_atom_site_label_1
_geom_bond_atom_site_label_2
_geom_bond_distance
_geom_bond_site_symmetry_2
_ccdc_geom_bond_type
Co0 O3 1.970 . S
Co0 N17 1.989 . S
Co0 O25 1.967 . S
Co0 O32 1.920 . S
Co1 O4 1.966 . S
Co1 N10 2.022 . S
Co1 N18 1.993 . S
Co1 O26 1.941 . S
C2 O3 1.258 . S
C2 O4 1.263 . S
O3 Co0 1.970 . S
O3 C2 1.258 . S
O4 Co1 1.966 . S
O4 C2 1.263 . S
C5 O6 1.235 . S
C5 O32 1.289 . S
O6 C5 1.235 . S
C7 C9 1.400 . S
C7 N10 1.351 1_556 S
C7 C12 1.501 . S
C8 C9 1.387 . S
C8 N11 1.341 . S
C9 C7 1.400 . S
C9 C8 1.387 . S
N10 Co1 2.022 . S
N10 C7 1.351 1_554 S
N10 N11 1.365 1_554 S
N11 C8 1.341 . S
N11 N10 1.365 1_556 S
N11 H31 0.862 . S
C12 C7 1.501 . S
C12 H13 0.961 1_556 S
C12 H14 0.961 . S
C12 H15 0.960 . S
H13 C12 0.961 1_554 S
H14 C12 0.961 . S
H15 C12 0.960 . S
C16 N17 1.342 . S
C16 C20 1.401 . S
C16 C21 1.499 . S
N17 Co0 1.989 . S
N17 C16 1.342 . S
N17 N18 1.388 . S
N18 Co1 1.993 . S
N18 N17 1.388 . S
N18 C19 1.346 . S
C19 N18 1.346 . S
C19 C20 1.396 . S
C19 C29 1.510 . S
C20 C16 1.401 . S
C20 C19 1.396 . S
C21 C16 1.499 . S
C21 H22 0.959 . S
C21 H23 0.960 . S
C21 H24 0.961 . S
H22 C21 0.959 . S
H23 C21 0.960 . S
H24 C21 0.961 . S
O25 Co0 1.967 . S
O25 C33 1.258 . S
O26 Co1 1.941 . S
O26 C33 1.266 . S
H27 C29 0.959 . S
H28 C29 0.961 . S
C29 C19 1.510 . S
C29 H27 0.959 . S
C29 H28 0.961 . S
C29 H30 0.960 . S
H30 C29 0.960 . S
H31 N11 0.862 . S
O32 Co0 1.920 . S
O32 C5 1.289 . S
C33 O25 1.258 . S
C33 O26 1.266 . S
Co34 O37 1.970 . S
Co34 N51 1.989 . S
Co34 O59 1.967 . S
Co34 O66 1.920 . S
Co35 O38 1.966 . S
Co35 N44 2.022 . S
Co35 N52 1.993 . S
Co35 O60 1.941 . S
C36 O37 1.258 . S
C36 O38 1.263 . S
O37 Co34 1.970 . S
O37 C36 1.258 . S
O38 Co35 1.966 . S
O38 C36 1.263 . S
C39 O40 1.235 . S
C39 O66 1.289 . S
O40 C39 1.235 . S
C41 C43 1.400 . S
C41 N44 1.351 1_556 S
C41 C46 1.501 . S
C42 C43 1.387 . S
C42 N45 1.341 . S
C43 C41 1.400 . S
C43 C42 1.387 . S
N44 Co35 2.022 . S
N44 C41 1.351 1_554 S
N44 N45 1.365 1_554 S
N45 C42 1.341 . S
N45 N44 1.365 1_556 S
N45 H65 0.862 . S
C46 C41 1.501 . S
C46 H47 0.961 1_556 S
C46 H48 0.961 . S
C46 H49 0.960 . S
H47 C46 0.961 1_554 S
H48 C46 0.961 . S
H49 C46 0.960 . S
C50 N51 1.342 . S
C50 C54 1.401 . S
C50 C55 1.499 . S
N51 Co34 1.989 . S
N51 C50 1.342 . S
N51 N52 1.388 . S
N52 Co35 1.993 . S
N52 N51 1.388 . S
N52 C53 1.346 . S
C53 N52 1.346 . S
C53 C54 1.396 . S
C53 C63 1.510 . S
C54 C50 1.401 . S
C54 C53 1.396 . S
C55 C50 1.499 . S
C55 H56 0.959 . S
C55 H57 0.960 . S
C55 H58 0.961 . S
H56 C55 0.959 . S
H57 C55 0.960 . S
H58 C55 0.961 . S
O59 Co34 1.967 . S
O59 C67 1.258 . S
O60 Co35 1.941 . S
O60 C67 1.266 . S
H61 C63 0.959 . S
H62 C63 0.961 . S
C63 C53 1.510 . S
C63 H61 0.959 . S
C63 H62 0.961 . S
C63 H64 0.960 . S
H64 C63 0.960 . S
H65 N45 0.862 . S
O66 Co34 1.920 . S
O66 C39 1.289 . S
C67 O59 1.258 . S
C67 O60 1.266 . S
Co68 O71 1.970 . S
Co68 N85 1.989 . S
Co68 O93 1.967 . S
Co68 O100 1.920 . S
Co69 O72 1.966 . S
Co69 N78 2.022 . S
Co69 N86 1.993 . S
Co69 O94 1.941 . S
C70 O71 1.258 . S
C70 O72 1.263 . S
O71 Co68 1.970 . S
O71 C70 1.258 . S
O72 Co69 1.966 . S
O72 C70 1.263 . S
C73 O74 1.235 . S
C73 O100 1.289 . S
O74 C73 1.235 . S
C75 C77 1.400 . S
C75 N78 1.351 1_556 S
C75 C80 1.501 . S
C76 C77 1.387 . S
C76 N79 1.341 . S
C77 C75 1.400 . S
C77 C76 1.387 . S
N78 Co69 2.022 . S
N78 C75 1.351 1_554 S
N78 N79 1.365 1_554 S
N79 C76 1.341 . S
N79 N78 1.365 1_556 S
N79 H99 0.862 . S
C80 C75 1.501 . S
C80 H81 0.961 1_556 S
C80 H82 0.961 . S
C80 H83 0.960 . S
H81 C80 0.961 1_554 S
H82 C80 0.961 . S
H83 C80 0.960 . S
C84 N85 1.342 . S
C84 C88 1.401 . S
C84 C89 1.499 . S
N85 Co68 1.989 . S
N85 C84 1.342 . S
N85 N86 1.388 . S
N86 Co69 1.993 . S
N86 N85 1.388 . S
N86 C87 1.346 . S
C87 N86 1.346 . S
C87 C88 1.396 . S
C87 C97 1.510 . S
C88 C84 1.401 . S
C88 C87 1.396 . S
C89 C84 1.499 . S
C89 H90 0.959 . S
C89 H91 0.960 . S
C89 H92 0.961 . S
H90 C89 0.959 . S
H91 C89 0.960 . S
H92 C89 0.961 . S
O93 Co68 1.967 . S
O93 C101 1.258 . S
O94 Co69 1.941 . S
O94 C101 1.266 . S
H95 C97 0.959 . S
H96 C97 0.961 . S
C97 C87 1.510 . S
C97 H95 0.959 . S
C97 H96 0.961 . S
C97 H98 0.960 . S
H98 C97 0.960 . S
H99 N79 0.862 . S
O100 Co68 1.920 . S
O100 C73 1.289 . S
C101 O93 1.258 . S
C101 O94 1.266 . S
Co102 O105 1.970 . S
Co102 N119 1.989 . S
Co102 O127 1.967 . S
Co102 O134 1.920 . S
Co103 O106 1.966 . S
Co103 N112 2.022 . S
Co103 N120 1.993 . S
Co103 O128 1.941 . S
C104 O105 1.258 . S
C104 O106 1.263 . S
O105 Co102 1.970 . S
O105 C104 1.258 . S
O106 Co103 1.966 . S
O106 C104 1.263 . S
C107 O108 1.235 . S
C107 O134 1.289 . S
O108 C107 1.235 . S
C109 C111 1.400 . S
C109 N112 1.351 1_554 S
C109 C114 1.501 . S
C110 C111 1.387 . S
C110 N113 1.341 . S
C111 C109 1.400 . S
C111 C110 1.387 . S
N112 Co103 2.022 . S
N112 C109 1.351 1_556 S
N112 N113 1.365 1_556 S
N113 C110 1.341 . S
N113 N112 1.365 1_554 S
N113 H133 0.862 . S
C114 C109 1.501 . S
C114 H115 0.961 1_554 S
C114 H116 0.961 . S
C114 H117 0.960 . S
H115 C114 0.961 1_556 S
H116 C114 0.961 . S
H117 C114 0.960 . S
C118 N119 1.342 . S
C118 C122 1.401 . S
C118 C123 1.499 . S
N119 Co102 1.989 . S
N119 C118 1.342 . S
N119 N120 1.388 . S
N120 Co103 1.993 . S
N120 N119 1.388 . S
N120 C121 1.346 . S
C121 N120 1.346 . S
C121 C122 1.396 . S
C121 C131 1.510 . S
C122 C118 1.401 . S
C122 C121 1.396 . S
C123 C118 1.499 . S
C123 H124 0.959 . S
C123 H125 0.960 . S
C123 H126 0.961 . S
H124 C123 0.959 . S
H125 C123 0.960 . S
H126 C123 0.961 . S
O127 Co102 1.967 . S
O127 C135 1.258 . S
O128 Co103 1.941 . S
O128 C135 1.266 . S
H129 C131 0.959 . S
H130 C131 0.961 . S
C131 C121 1.510 . S
C131 H129 0.959 . S
C131 H130 0.961 . S
C131 H132 0.960 . S
H132 C131 0.960 . S
H133 N113 0.862 . S
O134 Co102 1.920 . S
O134 C107 1.289 . S
C135 O127 1.258 . S
C135 O128 1.266 . S
Co136 O139 1.970 . S
Co136 N153 1.989 . S
Co136 O161 1.967 . S
Co136 O168 1.920 . S
Co137 O140 1.966 . S
Co137 N146 2.022 . S
Co137 N154 1.993 . S
Co137 O162 1.941 . S
C138 O139 1.258 . S
C138 O140 1.263 . S
O139 Co136 1.970 . S
O139 C138 1.258 . S
O140 Co137 1.966 . S
O140 C138 1.263 . S
C141 O142 1.235 . S
C141 O168 1.289 . S
O142 C141 1.235 . S
C143 C145 1.400 . S
C143 N146 1.351 1_554 S
C143 C148 1.501 . S
C144 C145 1.387 . S
C144 N147 1.341 . S
C145 C143 1.400 . S
C145 C144 1.387 . S
N146 Co137 2.022 . S
N146 C143 1.351 1_556 S
N146 N147 1.365 1_556 S
N147 C144 1.341 . S
N147 N146 1.365 1_554 S
N147 H167 0.862 . S
C148 C143 1.501 . S
C148 H149 0.961 1_554 S
C148 H150 0.961 . S
C148 H151 0.960 . S
H149 C148 0.961 1_556 S
H150 C148 0.961 . S
H151 C148 0.960 . S
C152 N153 1.342 . S
C152 C156 1.401 . S
C152 C157 1.499 . S
N153 Co136 1.989 . S
N153 C152 1.342 . S
N153 N154 1.388 . S
N154 Co137 1.993 . S
N154 N153 1.388 . S
N154 C155 1.346 . S
C155 N154 1.346 . S
C155 C156 1.396 . S
C155 C165 1.510 . S
C156 C152 1.401 . S
C156 C155 1.396 . S
C157 C152 1.499 . S
C157 H158 0.959 . S
C157 H159 0.960 . S
C157 H160 0.961 . S
H158 C157 0.959 . S
H159 C157 0.960 . S
H160 C157 0.961 . S
O161 Co136 1.967 . S
O161 C169 1.258 . S
O162 Co137 1.941 . S
O162 C169 1.266 . S
H163 C165 0.959 . S
H164 C165 0.961 . S
C165 C155 1.510 . S
C165 H163 0.959 . S
C165 H164 0.961 . S
C165 H166 0.960 . S
H166 C165 0.960 . S
H167 N147 0.862 . S
O168 Co136 1.920 . S
O168 C141 1.289 . S
C169 O161 1.258 . S
C169 O162 1.266 . S
Co170 O173 1.970 . S
Co170 N187 1.989 . S
Co170 O195 1.967 . S
Co170 O202 1.920 . S
Co171 O174 1.966 . S
Co171 N180 2.022 . S
Co171 N188 1.993 . S
Co171 O196 1.941 . S
C172 O173 1.258 . S
C172 O174 1.263 . S
O173 Co170 1.970 . S
O173 C172 1.258 . S
O174 Co171 1.966 . S
O174 C172 1.263 . S
C175 O176 1.235 . S
C175 O202 1.289 . S
O176 C175 1.235 . S
C177 C179 1.400 . S
C177 N180 1.351 1_554 S
C177 C182 1.501 . S
C178 C179 1.387 . S
C178 N181 1.341 . S
C179 C177 1.400 . S
C179 C178 1.387 . S
N180 Co171 2.022 . S
N180 C177 1.351 1_556 S
N180 N181 1.365 1_556 S
N181 C178 1.341 . S
N181 N180 1.365 1_554 S
N181 H201 0.862 . S
C182 C177 1.501 . S
C182 H183 0.961 1_554 S
C182 H184 0.961 . S
C182 H185 0.960 . S
H183 C182 0.961 1_556 S
H184 C182 0.961 . S
H185 C182 0.960 . S
C186 N187 1.342 . S
C186 C190 1.401 . S
C186 C191 1.499 . S
N187 Co170 1.989 . S
N187 C186 1.342 . S
N187 N188 1.388 . S
N188 Co171 1.993 . S
N188 N187 1.388 . S
N188 C189 1.346 . S
C189 N188 1.346 . S
C189 C190 1.396 . S
C189 C199 1.510 . S
C190 C186 1.401 . S
C190 C189 1.396 . S
C191 C186 1.499 . S
C191 H192 0.959 . S
C191 H193 0.960 . S
C191 H194 0.961 . S
H192 C191 0.959 . S
H193 C191 0.960 . S
H194 C191 0.961 . S
O195 Co170 1.967 . S
O195 C203 1.258 . S
O196 Co171 1.941 . S
O196 C203 1.266 . S
H197 C199 0.959 . S
H198 C199 0.961 . S
C199 C189 1.510 . S
C199 H197 0.959 . S
C199 H198 0.961 . S
C199 H200 0.960 . S
H200 C199 0.960 . S
H201 N181 0.862 . S
O202 Co170 1.920 . S
O202 C175 1.289 . S
C203 O195 1.258 . S
C203 O196 1.266 . S
Co204 O207 1.970 . S
Co204 N221 1.989 . S
Co204 O229 1.967 . S
Co204 O236 1.920 . S
Co205 O208 1.966 . S
Co205 N214 2.022 . S
Co205 N222 1.993 . S
Co205 O230 1.941 . S
C206 O207 1.258 . S
C206 O208 1.263 . S
O207 Co204 1.970 . S
O207 C206 1.258 . S
O208 Co205 1.966 . S
O208 C206 1.263 . S
C209 O210 1.235 . S
C209 O236 1.289 . S
O210 C209 1.235 . S
C211 C213 1.400 . S
C211 N214 1.351 1_554 S
C211 C216 1.501 . S
C212 C213 1.387 . S
C212 N215 1.341 . S
C213 C211 1.400 . S
C213 C212 1.387 . S
N214 Co205 2.022 . S
N214 C211 1.351 1_556 S
N214 N215 1.365 1_556 S
N215 C212 1.341 . S
N215 N214 1.365 1_554 S
N215 H235 0.862 . S
C216 C211 1.501 . S
C216 H217 0.961 1_554 S
C216 H218 0.961 . S
C216 H219 0.960 . S
H217 C216 0.961 1_556 S
H218 C216 0.961 . S
H219 C216 0.960 . S
C220 N221 1.342 . S
C220 C224 1.401 . S
C220 C225 1.499 . S
N221 Co204 1.989 . S
N221 C220 1.342 . S
N221 N222 1.388 . S
N222 Co205 1.993 . S
N222 N221 1.388 . S
N222 C223 1.346 . S
C223 N222 1.346 . S
C223 C224 1.396 . S
C223 C233 1.510 . S
C224 C220 1.401 . S
C224 C223 1.396 . S
C225 C220 1.499 . S
C225 H226 0.959 . S
C225 H227 0.960 . S
C225 H228 0.961 . S
H226 C225 0.959 . S
H227 C225 0.960 . S
H228 C225 0.961 . S
O229 Co204 1.967 . S
O229 C237 1.258 . S
O230 Co205 1.941 . S
O230 C237 1.266 . S
H231 C233 0.959 . S
H232 C233 0.961 . S
C233 C223 1.510 . S
C233 H231 0.959 . S
C233 H232 0.961 . S
C233 H234 0.960 . S
H234 C233 0.960 . S
H235 N215 0.862 . S
O236 Co204 1.920 . S
O236 C209 1.289 . S
C237 O229 1.258 . S
C237 O230 1.266 . S
Co238 O241 1.970 . S
Co238 N255 1.989 . S
Co238 O263 1.967 . S
Co238 O270 1.920 . S
Co239 O242 1.966 . S
Co239 N248 2.022 . S
Co239 N256 1.993 . S
Co239 O264 1.941 . S
C240 O241 1.258 . S
C240 O242 1.263 . S
O241 Co238 1.970 . S
O241 C240 1.258 . S
O242 Co239 1.966 . S
O242 C240 1.263 . S
C243 O244 1.235 . S
C243 O270 1.289 . S
O244 C243 1.235 . S
C245 C247 1.400 . S
C245 N248 1.351 1_554 S
C245 C250 1.501 . S
C246 C247 1.387 . S
C246 N249 1.341 . S
C247 C245 1.400 . S
C247 C246 1.387 . S
N248 Co239 2.022 . S
N248 C245 1.351 1_556 S
N248 N249 1.365 1_556 S
N249 C246 1.341 . S
N249 N248 1.365 1_554 S
N249 H269 0.862 . S
C250 C245 1.501 . S
C250 H251 0.961 1_554 S
C250 H252 0.961 . S
C250 H253 0.960 . S
H251 C250 0.961 1_556 S
H252 C250 0.961 . S
H253 C250 0.960 . S
C254 N255 1.342 . S
C254 C258 1.401 . S
C254 C259 1.499 . S
N255 Co238 1.989 . S
N255 C254 1.342 . S
N255 N256 1.388 . S
N256 Co239 1.993 . S
N256 N255 1.388 . S
N256 C257 1.346 . S
C257 N256 1.346 . S
C257 C258 1.396 . S
C257 C267 1.510 . S
C258 C254 1.401 . S
C258 C257 1.396 . S
C259 C254 1.499 . S
C259 H260 0.959 . S
C259 H261 0.960 . S
C259 H262 0.961 . S
H260 C259 0.959 . S
H261 C259 0.960 . S
H262 C259 0.961 . S
O263 Co238 1.967 . S
O263 C271 1.258 . S
O264 Co239 1.941 . S
O264 C271 1.266 . S
H265 C267 0.959 . S
H266 C267 0.961 . S
C267 C257 1.510 . S
C267 H265 0.959 . S
C267 H266 0.961 . S
C267 H268 0.960 . S
H268 C267 0.960 . S
H269 N249 0.862 . S
O270 Co238 1.920 . S
O270 C243 1.289 . S
C271 O263 1.258 . S
C271 O264 1.266 . S
Co272 O275 1.970 . S
Co272 N289 1.989 . S
Co272 O297 1.967 . S
Co272 O304 1.920 . S
Co273 O276 1.966 . S
Co273 N282 2.022 . S
Co273 N290 1.993 . S
Co273 O298 1.941 . S
C274 O275 1.258 . S
C274 O276 1.263 . S
O275 Co272 1.970 . S
O275 C274 1.258 . S
O276 Co273 1.966 . S
O276 C274 1.263 . S
C277 O278 1.235 . S
C277 O304 1.289 . S
O278 C277 1.235 . S
C279 C281 1.400 . S
C279 N282 1.351 1_554 S
C279 C284 1.501 . S
C280 C281 1.387 . S
C280 N283 1.341 . S
C281 C279 1.400 . S
C281 C280 1.387 . S
N282 Co273 2.022 . S
N282 C279 1.351 1_556 S
N282 N283 1.365 1_556 S
N283 C280 1.341 . S
N283 N282 1.365 1_554 S
N283 H303 0.862 . S
C284 C279 1.501 . S
C284 H285 0.961 1_554 S
C284 H286 0.961 . S
C284 H287 0.960 . S
H285 C284 0.961 1_556 S
H286 C284 0.961 . S
H287 C284 0.960 . S
C288 N289 1.342 . S
C288 C292 1.401 . S
C288 C293 1.499 . S
N289 Co272 1.989 . S
N289 C288 1.342 . S
N289 N290 1.388 . S
N290 Co273 1.993 . S
N290 N289 1.388 . S
N290 C291 1.346 . S
C291 N290 1.346 . S
C291 C292 1.396 . S
C291 C301 1.510 . S
C292 C288 1.401 . S
C292 C291 1.396 . S
C293 C288 1.499 . S
C293 H294 0.959 . S
C293 H295 0.960 . S
C293 H296 0.961 . S
H294 C293 0.959 . S
H295 C293 0.960 . S
H296 C293 0.961 . S
O297 Co272 1.967 . S
O297 C305 1.258 . S
O298 Co273 1.941 . S
O298 C305 1.266 . S
H299 C301 0.959 . S
H300 C301 0.961 . S
C301 C291 1.510 . S
C301 H299 0.959 . S
C301 H300 0.961 . S
C301 H302 0.960 . S
H302 C301 0.960 . S
H303 N283 0.862 . S
O304 Co272 1.920 . S
O304 C277 1.289 . S
C305 O297 1.258 . S
C305 O298 1.266 . S
Co306 O309 1.970 . S
Co306 N323 1.989 . S
Co306 O331 1.967 . S
Co306 O338 1.920 . S
Co307 O310 1.966 . S
Co307 N316 2.022 . S
Co307 N324 1.993 . S
Co307 O332 1.941 . S
C308 O309 1.258 . S
C308 O310 1.263 . S
O309 Co306 1.970 . S
O309 C308 1.258 . S
O310 Co307 1.966 . S
O310 C308 1.263 . S
C311 O312 1.235 . S
C311 O338 1.289 . S
O312 C311 1.235 . S
C313 C315 1.400 . S
C313 N316 1.351 1_556 S
C313 C318 1.501 . S
C314 C315 1.387 . S
C314 N317 1.341 . S
C315 C313 1.400 . S
C315 C314 1.387 . S
N316 Co307 2.022 . S
N316 C313 1.351 1_554 S
N316 N317 1.365 1_554 S
N317 C314 1.341 . S
N317 N316 1.365 1_556 S
N317 H337 0.862 . S
C318 C313 1.501 . S
C318 H319 0.961 1_556 S
C318 H320 0.961 . S
C318 H321 0.960 . S
H319 C318 0.961 1_554 S
H320 C318 0.961 . S
H321 C318 0.960 . S
C322 N323 1.342 . S
C322 C326 1.401 . S
C322 C327 1.499 . S
N323 Co306 1.989 . S
N323 C322 1.342 . S
N323 N324 1.388 . S
N324 Co307 1.993 . S
N324 N323 1.388 . S
N324 C325 1.346 . S
C325 N324 1.346 . S
C325 C326 1.396 . S
C325 C335 1.510 . S
C326 C322 1.401 . S
C326 C325 1.396 . S
C327 C322 1.499 . S
C327 H328 0.959 . S
C327 H329 0.960 . S
C327 H330 0.961 . S
H328 C327 0.959 . S
H329 C327 0.960 . S
H330 C327 0.961 . S
O331 Co306 1.967 . S
O331 C339 1.258 . S
O332 Co307 1.941 . S
O332 C339 1.266 . S
H333 C335 0.959 . S
H334 C335 0.961 . S
C335 C325 1.510 . S
C335 H333 0.959 . S
C335 H334 0.961 . S
C335 H336 0.960 . S
H336 C335 0.960 . S
H337 N317 0.862 . S
O338 Co306 1.920 . S
O338 C311 1.289 . S
C339 O331 1.258 . S
C339 O332 1.266 . S
Co340 O343 1.970 . S
Co340 N357 1.989 . S
Co340 O365 1.967 . S
Co340 O372 1.920 . S
Co341 O344 1.966 . S
Co341 N350 2.022 . S
Co341 N358 1.993 . S
Co341 O366 1.941 . S
C342 O343 1.258 . S
C342 O344 1.263 . S
O343 Co340 1.970 . S
O343 C342 1.258 . S
O344 Co341 1.966 . S
O344 C342 1.263 . S
C345 O346 1.235 . S
C345 O372 1.289 . S
O346 C345 1.235 . S
C347 C349 1.400 . S
C347 N350 1.351 1_556 S
C347 C352 1.501 . S
C348 C349 1.387 . S
C348 N351 1.341 . S
C349 C347 1.400 . S
C349 C348 1.387 . S
N350 Co341 2.022 . S
N350 C347 1.351 1_554 S
N350 N351 1.365 1_554 S
N351 C348 1.341 . S
N351 N350 1.365 1_556 S
N351 H371 0.862 . S
C352 C347 1.501 . S
C352 H353 0.961 1_556 S
C352 H354 0.961 . S
C352 H355 0.960 . S
H353 C352 0.961 1_554 S
H354 C352 0.961 . S
H355 C352 0.960 . S
C356 N357 1.342 . S
C356 C360 1.401 . S
C356 C361 1.499 . S
N357 Co340 1.989 . S
N357 C356 1.342 . S
N357 N358 1.388 . S
N358 Co341 1.993 . S
N358 N357 1.388 . S
N358 C359 1.346 . S
C359 N358 1.346 . S
C359 C360 1.396 . S
C359 C369 1.510 . S
C360 C356 1.401 . S
C360 C359 1.396 . S
C361 C356 1.499 . S
C361 H362 0.959 . S
C361 H363 0.960 . S
C361 H364 0.961 . S
H362 C361 0.959 . S
H363 C361 0.960 . S
H364 C361 0.961 . S
O365 Co340 1.967 . S
O365 C373 1.258 . S
O366 Co341 1.941 . S
O366 C373 1.266 . S
H367 C369 0.959 . S
H368 C369 0.961 . S
C369 C359 1.510 . S
C369 H367 0.959 . S
C369 H368 0.961 . S
C369 H370 0.960 . S
H370 C369 0.960 . S
H371 N351 0.862 . S
O372 Co340 1.920 . S
O372 C345 1.289 . S
C373 O365 1.258 . S
C373 O366 1.266 . S
Co374 O377 1.970 . S
Co374 N391 1.989 . S
Co374 O399 1.967 . S
Co374 O406 1.920 . S
Co375 O378 1.966 . S
Co375 N384 2.022 . S
Co375 N392 1.993 . S
Co375 O400 1.941 . S
C376 O377 1.258 . S
C376 O378 1.263 . S
O377 Co374 1.970 . S
O377 C376 1.258 . S
O378 Co375 1.966 . S
O378 C376 1.263 . S
C379 O380 1.235 . S
C379 O406 1.289 . S
O380 C379 1.235 . S
C381 C383 1.400 . S
C381 N384 1.351 1_556 S
C381 C386 1.501 . S
C382 C383 1.387 . S
C382 N385 1.341 . S
C383 C381 1.400 . S
C383 C382 1.387 . S
N384 Co375 2.022 . S
N384 C381 1.351 1_554 S
N384 N385 1.365 1_554 S
N385 C382 1.341 . S
N385 N384 1.365 1_556 S
N385 H405 0.862 . S
C386 C381 1.501 . S
C386 H387 0.961 1_556 S
C386 H388 0.961 . S
C386 H389 0.960 . S
H387 C386 0.961 1_554 S
H388 C386 0.961 . S
H389 C386 0.960 . S
C390 N391 1.342 . S
C390 C394 1.401 . S
C390 C395 1.499 . S
N391 Co374 1.989 . S
N391 C390 1.342 . S
N391 N392 1.388 . S
N392 Co375 1.993 . S
N392 N391 1.388 . S
N392 C393 1.346 . S
C393 N392 1.346 . S
C393 C394 1.396 . S
C393 C403 1.510 . S
C394 C390 1.401 . S
C394 C393 1.396 . S
C395 C390 1.499 . S
C395 H396 0.959 . S
C395 H397 0.960 . S
C395 H398 0.961 . S
H396 C395 0.959 . S
H397 C395 0.960 . S
H398 C395 0.961 . S
O399 Co374 1.967 . S
O399 C407 1.258 . S
O400 Co375 1.941 . S
O400 C407 1.266 . S
H401 C403 0.959 . S
H402 C403 0.961 . S
C403 C393 1.510 . S
C403 H401 0.959 . S
C403 H402 0.961 . S
C403 H404 0.960 . S
H404 C403 0.960 . S
H405 N385 0.862 . S
O406 Co374 1.920 . S
O406 C379 1.289 . S
C407 O399 1.258 . S
C407 O400 1.266 . S
Co408 O411 1.970 . S
Co408 N425 1.989 . S
Co408 O433 1.967 . S
Co408 O440 1.920 . S
Co409 O412 1.966 . S
Co409 N418 2.022 . S
Co409 N426 1.993 . S
Co409 O434 1.941 . S
C410 O411 1.258 . S
C410 O412 1.263 . S
O411 Co408 1.970 . S
O411 C410 1.258 . S
O412 Co409 1.966 . S
O412 C410 1.263 . S
C413 O414 1.235 . S
C413 O440 1.289 . S
O414 C413 1.235 . S
C415 C417 1.400 . S
C415 N418 1.351 . S
C415 C420 1.501 . S
C416 C417 1.387 . S
C416 N419 1.341 . S
C417 C415 1.400 . S
C417 C416 1.387 . S
N418 Co409 2.022 . S
N418 C415 1.351 . S
N418 N419 1.365 . S
N419 C416 1.341 . S
N419 N418 1.365 . S
N419 H439 0.862 . S
C420 C415 1.501 . S
C420 H421 0.961 . S
C420 H422 0.961 . S
C420 H423 0.960 . S
H421 C420 0.961 . S
H422 C420 0.961 . S
H423 C420 0.960 . S
C424 N425 1.342 . S
C424 C428 1.401 . S
C424 C429 1.499 . S
N425 Co408 1.989 . S
N425 C424 1.342 . S
N425 N426 1.388 . S
N426 Co409 1.993 . S
N426 N425 1.388 . S
N426 C427 1.346 . S
C427 N426 1.346 . S
C427 C428 1.396 . S
C427 C437 1.510 . S
C428 C424 1.401 . S
C428 C427 1.396 . S
C429 C424 1.499 . S
C429 H430 0.959 . S
C429 H431 0.960 . S
C429 H432 0.961 . S
H430 C429 0.959 . S
H431 C429 0.960 . S
H432 C429 0.961 . S
O433 Co408 1.967 . S
O433 C441 1.258 . S
O434 Co409 1.941 . S
O434 C441 1.266 . S
H435 C437 0.959 . S
H436 C437 0.961 . S
C437 C427 1.510 . S
C437 H435 0.959 . S
C437 H436 0.961 . S
C437 H438 0.960 . S
H438 C437 0.960 . S
H439 N419 0.862 . S
O440 Co408 1.920 . S
O440 C413 1.289 . S
C441 O433 1.258 . S
C441 O434 1.266 . S
Co442 O445 1.970 . S
Co442 N459 1.989 . S
Co442 O467 1.967 . S
Co442 O474 1.920 . S
Co443 O446 1.966 . S
Co443 N452 2.022 . S
Co443 N460 1.993 . S
Co443 O468 1.941 . S
C444 O445 1.258 . S
C444 O446 1.263 . S
O445 Co442 1.970 . S
O445 C444 1.258 . S
O446 Co443 1.966 . S
O446 C444 1.263 . S
C447 O448 1.235 . S
C447 O474 1.289 . S
O448 C447 1.235 . S
C449 C451 1.400 . S
C449 N452 1.351 . S
C449 C454 1.501 . S
C450 C451 1.387 . S
C450 N453 1.341 . S
C451 C449 1.400 . S
C451 C450 1.387 . S
N452 Co443 2.022 . S
N452 C449 1.351 . S
N452 N453 1.365 . S
N453 C450 1.341 . S
N453 N452 1.365 . S
N453 H473 0.862 . S
C454 C449 1.501 . S
C454 H455 0.961 . S
C454 H456 0.961 . S
C454 H457 0.960 . S
H455 C454 0.961 . S
H456 C454 0.961 . S
H457 C454 0.960 . S
C458 N459 1.342 . S
C458 C462 1.401 . S
C458 C463 1.499 . S
N459 Co442 1.989 . S
N459 C458 1.342 . S
N459 N460 1.388 . S
N460 Co443 1.993 . S
N460 N459 1.388 . S
N460 C461 1.346 . S
C461 N460 1.346 . S
C461 C462 1.396 . S
C461 C471 1.510 . S
C462 C458 1.401 . S
C462 C461 1.396 . S
C463 C458 1.499 . S
C463 H464 0.959 . S
C463 H465 0.960 . S
C463 H466 0.961 . S
H464 C463 0.959 . S
H465 C463 0.960 . S
H466 C463 0.961 . S
O467 Co442 1.967 . S
O467 C475 1.258 . S
O468 Co443 1.941 . S
O468 C475 1.266 . S
H469 C471 0.959 . S
H470 C471 0.961 . S
C471 C461 1.510 . S
C471 H469 0.959 . S
C471 H470 0.961 . S
C471 H472 0.960 . S
H472 C471 0.960 . S
H473 N453 0.862 . S
O474 Co442 1.920 . S
O474 C447 1.289 . S
C475 O467 1.258 . S
C475 O468 1.266 . S
Co476 O479 1.970 . S
Co476 N493 1.989 . S
Co476 O501 1.967 . S
Co476 O508 1.920 . S
Co477 O480 1.966 . S
Co477 N486 2.022 . S
Co477 N494 1.993 . S
Co477 O502 1.941 . S
C478 O479 1.258 . S
C478 O480 1.263 . S
O479 Co476 1.970 . S
O479 C478 1.258 . S
O480 Co477 1.966 . S
O480 C478 1.263 . S
C481 O482 1.235 . S
C481 O508 1.289 . S
O482 C481 1.235 . S
C483 C485 1.400 . S
C483 N486 1.351 . S
C483 C488 1.501 . S
C484 C485 1.387 . S
C484 N487 1.341 . S
C485 C483 1.400 . S
C485 C484 1.387 . S
N486 Co477 2.022 . S
N486 C483 1.351 . S
N486 N487 1.365 . S
N487 C484 1.341 . S
N487 N486 1.365 . S
N487 H507 0.862 . S
C488 C483 1.501 . S
C488 H489 0.961 . S
C488 H490 0.961 . S
C488 H491 0.960 . S
H489 C488 0.961 . S
H490 C488 0.961 . S
H491 C488 0.960 . S
C492 N493 1.342 . S
C492 C496 1.401 . S
C492 C497 1.499 . S
N493 Co476 1.989 . S
N493 C492 1.342 . S
N493 N494 1.388 . S
N494 Co477 1.993 . S
N494 N493 1.388 . S
N494 C495 1.346 . S
C495 N494 1.346 . S
C495 C496 1.396 . S
C495 C505 1.510 . S
C496 C492 1.401 . S
C496 C495 1.396 . S
C497 C492 1.499 . S
C497 H498 0.959 . S
C497 H499 0.960 . S
C497 H500 0.961 . S
H498 C497 0.959 . S
H499 C497 0.960 . S
H500 C497 0.961 . S
O501 Co476 1.967 . S
O501 C509 1.258 . S
O502 Co477 1.941 . S
O502 C509 1.266 . S
H503 C505 0.959 . S
H504 C505 0.961 . S
C505 C495 1.510 . S
C505 H503 0.959 . S
C505 H504 0.961 . S
C505 H506 0.960 . S
H506 C505 0.960 . S
H507 N487 0.862 . S
O508 Co476 1.920 . S
O508 C481 1.289 . S
C509 O501 1.258 . S
C509 O502 1.266 . S
Co510 O513 1.970 1_556 S
Co510 N527 1.989 1_556 S
Co510 O535 1.967 1_556 S
Co510 O542 1.920 . S
Co511 O514 1.966 . S
Co511 N520 2.022 . S
Co511 N528 1.993 . S
Co511 O536 1.941 . S
C512 O513 1.258 . S
C512 O514 1.263 . S
O513 Co510 1.970 1_554 S
O513 C512 1.258 . S
O514 Co511 1.966 . S
O514 C512 1.263 . S
C515 O516 1.235 . S
C515 O542 1.289 . S
O516 C515 1.235 . S
C517 C519 1.400 . S
C517 N520 1.351 . S
C517 C522 1.501 . S
C518 C519 1.387 . S
C518 N521 1.341 . S
C519 C517 1.400 . S
C519 C518 1.387 . S
N520 Co511 2.022 . S
N520 C517 1.351 . S
N520 N521 1.365 . S
N521 C518 1.341 . S
N521 N520 1.365 . S
N521 H541 0.862 . S
C522 C517 1.501 . S
C522 H523 0.961 . S
C522 H524 0.961 . S
C522 H525 0.960 . S
H523 C522 0.961 . S
H524 C522 0.961 . S
H525 C522 0.960 . S
C526 N527 1.342 . S
C526 C530 1.401 . S
C526 C531 1.499 1_554 S
N527 Co510 1.989 1_554 S
N527 C526 1.342 . S
N527 N528 1.388 . S
N528 Co511 1.993 . S
N528 N527 1.388 . S
N528 C529 1.346 . S
C529 N528 1.346 . S
C529 C530 1.396 . S
C529 C539 1.510 . S
C530 C526 1.401 . S
C530 C529 1.396 . S
C531 C526 1.499 1_556 S
C531 H532 0.959 . S
C531 H533 0.960 . S
C531 H534 0.961 . S
H532 C531 0.959 . S
H533 C531 0.960 . S
H534 C531 0.961 . S
O535 Co510 1.967 1_554 S
O535 C543 1.258 . S
O536 Co511 1.941 . S
O536 C543 1.266 . S
H537 C539 0.959 . S
H538 C539 0.961 . S
C539 C529 1.510 . S
C539 H537 0.959 . S
C539 H538 0.961 . S
C539 H540 0.960 . S
H540 C539 0.960 . S
H541 N521 0.862 . S
O542 Co510 1.920 . S
O542 C515 1.289 . S
C543 O535 1.258 . S
C543 O536 1.266 . S
Co544 O547 1.970 1_556 S
Co544 N561 1.989 1_556 S
Co544 O569 1.967 1_556 S
Co544 O576 1.920 . S
Co545 O548 1.966 . S
Co545 N554 2.022 . S
Co545 N562 1.993 . S
Co545 O570 1.941 . S
C546 O547 1.258 . S
C546 O548 1.263 . S
O547 Co544 1.970 1_554 S
O547 C546 1.258 . S
O548 Co545 1.966 . S
O548 C546 1.263 . S
C549 O550 1.235 . S
C549 O576 1.289 . S
O550 C549 1.235 . S
C551 C553 1.400 . S
C551 N554 1.351 . S
C551 C556 1.501 . S
C552 C553 1.387 . S
C552 N555 1.341 . S
C553 C551 1.400 . S
C553 C552 1.387 . S
N554 Co545 2.022 . S
N554 C551 1.351 . S
N554 N555 1.365 . S
N555 C552 1.341 . S
N555 N554 1.365 . S
N555 H575 0.862 . S
C556 C551 1.501 . S
C556 H557 0.961 . S
C556 H558 0.961 . S
C556 H559 0.960 . S
H557 C556 0.961 . S
H558 C556 0.961 . S
H559 C556 0.960 . S
C560 N561 1.342 . S
C560 C564 1.401 . S
C560 C565 1.499 1_554 S
N561 Co544 1.989 1_554 S
N561 C560 1.342 . S
N561 N562 1.388 . S
N562 Co545 1.993 . S
N562 N561 1.388 . S
N562 C563 1.346 . S
C563 N562 1.346 . S
C563 C564 1.396 . S
C563 C573 1.510 . S
C564 C560 1.401 . S
C564 C563 1.396 . S
C565 C560 1.499 1_556 S
C565 H566 0.959 . S
C565 H567 0.960 . S
C565 H568 0.961 . S
H566 C565 0.959 . S
H567 C565 0.960 . S
H568 C565 0.961 . S
O569 Co544 1.967 1_554 S
O569 C577 1.258 . S
O570 Co545 1.941 . S
O570 C577 1.266 . S
H571 C573 0.959 . S
H572 C573 0.961 . S
C573 C563 1.510 . S
C573 H571 0.959 . S
C573 H572 0.961 . S
C573 H574 0.960 . S
H574 C573 0.960 . S
H575 N555 0.862 . S
O576 Co544 1.920 . S
O576 C549 1.289 . S
C577 O569 1.258 . S
C577 O570 1.266 . S
Co578 O581 1.970 1_556 S
Co578 N595 1.989 1_556 S
Co578 O603 1.967 1_556 S
Co578 O610 1.920 . S
Co579 O582 1.966 . S
Co579 N588 2.022 . S
Co579 N596 1.993 . S
Co579 O604 1.941 . S
C580 O581 1.258 . S
C580 O582 1.263 . S
O581 Co578 1.970 1_554 S
O581 C580 1.258 . S
O582 Co579 1.966 . S
O582 C580 1.263 . S
C583 O584 1.235 . S
C583 O610 1.289 . S
O584 C583 1.235 . S
C585 C587 1.400 . S
C585 N588 1.351 . S
C585 C590 1.501 . S
C586 C587 1.387 . S
C586 N589 1.341 . S
C587 C585 1.400 . S
C587 C586 1.387 . S
N588 Co579 2.022 . S
N588 C585 1.351 . S
N588 N589 1.365 . S
N589 C586 1.341 . S
N589 N588 1.365 . S
N589 H609 0.862 . S
C590 C585 1.501 . S
C590 H591 0.961 . S
C590 H592 0.961 . S
C590 H593 0.960 . S
H591 C590 0.961 . S
H592 C590 0.961 . S
H593 C590 0.960 . S
C594 N595 1.342 . S
C594 C598 1.401 . S
C594 C599 1.499 1_554 S
N595 Co578 1.989 1_554 S
N595 C594 1.342 . S
N595 N596 1.388 . S
N596 Co579 1.993 . S
N596 N595 1.388 . S
N596 C597 1.346 . S
C597 N596 1.346 . S
C597 C598 1.396 . S
C597 C607 1.510 . S
C598 C594 1.401 . S
C598 C597 1.396 . S
C599 C594 1.499 1_556 S
C599 H600 0.959 . S
C599 H601 0.960 . S
C599 H602 0.961 . S
H600 C599 0.959 . S
H601 C599 0.960 . S
H602 C599 0.961 . S
O603 Co578 1.967 1_554 S
O603 C611 1.258 . S
O604 Co579 1.941 . S
O604 C611 1.266 . S
H605 C607 0.959 . S
H606 C607 0.961 . S
C607 C597 1.510 . S
C607 H605 0.959 . S
C607 H606 0.961 . S
C607 H608 0.960 . S
H608 C607 0.960 . S
H609 N589 0.862 . S
O610 Co578 1.920 . S
O610 C583 1.289 . S
C611 O603 1.258 . S
C611 O604 1.266 . S
Co612 O615 1.970 1_556 S
Co612 N629 1.989 1_556 S
Co612 O637 1.967 1_556 S
Co612 O644 1.920 . S
Co613 O616 1.966 . S
Co613 N622 2.022 . S
Co613 N630 1.993 . S
Co613 O638 1.941 . S
C614 O615 1.258 . S
C614 O616 1.263 . S
O615 Co612 1.970 1_554 S
O615 C614 1.258 . S
O616 Co613 1.966 . S
O616 C614 1.263 . S
C617 O618 1.235 . S
C617 O644 1.289 . S
O618 C617 1.235 . S
C619 C621 1.400 . S
C619 N622 1.351 . S
C619 C624 1.501 . S
C620 C621 1.387 . S
C620 N623 1.341 . S
C621 C619 1.400 . S
C621 C620 1.387 . S
N622 Co613 2.022 . S
N622 C619 1.351 . S
N622 N623 1.365 . S
N623 C620 1.341 . S
N623 N622 1.365 . S
N623 H643 0.862 . S
C624 C619 1.501 . S
C624 H625 0.961 . S
C624 H626 0.961 . S
C624 H627 0.960 . S
H625 C624 0.961 . S
H626 C624 0.961 . S
H627 C624 0.960 . S
C628 N629 1.342 . S
C628 C632 1.401 . S
C628 C633 1.499 1_554 S
N629 Co612 1.989 1_554 S
N629 C628 1.342 . S
N629 N630 1.388 . S
N630 Co613 1.993 . S
N630 N629 1.388 . S
N630 C631 1.346 . S
C631 N630 1.346 . S
C631 C632 1.396 . S
C631 C641 1.510 . S
C632 C628 1.401 . S
C632 C631 1.396 . S
C633 C628 1.499 1_556 S
C633 H634 0.959 . S
C633 H635 0.960 . S
C633 H636 0.961 . S
H634 C633 0.959 . S
H635 C633 0.960 . S
H636 C633 0.961 . S
O637 Co612 1.967 1_554 S
O637 C645 1.258 . S
O638 Co613 1.941 . S
O638 C645 1.266 . S
H639 C641 0.959 . S
H640 C641 0.961 . S
C641 C631 1.510 . S
C641 H639 0.959 . S
C641 H640 0.961 . S
C641 H642 0.960 . S
H642 C641 0.960 . S
H643 N623 0.862 . S
O644 Co612 1.920 . S
O644 C617 1.289 . S
C645 O637 1.258 . S
C645 O638 1.266 . S
Co646 O649 1.970 1_556 S
Co646 N663 1.989 1_556 S
Co646 O671 1.967 1_556 S
Co646 O678 1.920 . S
Co647 O650 1.966 . S
Co647 N656 2.022 . S
Co647 N664 1.993 . S
Co647 O672 1.941 . S
C648 O649 1.258 . S
C648 O650 1.263 . S
O649 Co646 1.970 1_554 S
O649 C648 1.258 . S
O650 Co647 1.966 . S
O650 C648 1.263 . S
C651 O652 1.235 . S
C651 O678 1.289 . S
O652 C651 1.235 . S
C653 C655 1.400 . S
C653 N656 1.351 . S
C653 C658 1.501 . S
C654 C655 1.387 . S
C654 N657 1.341 . S
C655 C653 1.400 . S
C655 C654 1.387 . S
N656 Co647 2.022 . S
N656 C653 1.351 . S
N656 N657 1.365 . S
N657 C654 1.341 . S
N657 N656 1.365 . S
N657 H677 0.862 . S
C658 C653 1.501 . S
C658 H659 0.961 . S
C658 H660 0.961 . S
C658 H661 0.960 . S
H659 C658 0.961 . S
H660 C658 0.961 . S
H661 C658 0.960 . S
C662 N663 1.342 . S
C662 C666 1.401 . S
C662 C667 1.499 1_554 S
N663 Co646 1.989 1_554 S
N663 C662 1.342 . S
N663 N664 1.388 . S
N664 Co647 1.993 . S
N664 N663 1.388 . S
N664 C665 1.346 . S
C665 N664 1.346 . S
C665 C666 1.396 . S
C665 C675 1.510 . S
C666 C662 1.401 . S
C666 C665 1.396 . S
C667 C662 1.499 1_556 S
C667 H668 0.959 . S
C667 H669 0.960 . S
C667 H670 0.961 . S
H668 C667 0.959 . S
H669 C667 0.960 . S
H670 C667 0.961 . S
O671 Co646 1.967 1_554 S
O671 C679 1.258 . S
O672 Co647 1.941 . S
O672 C679 1.266 . S
H673 C675 0.959 . S
H674 C675 0.961 . S
C675 C665 1.510 . S
C675 H673 0.959 . S
C675 H674 0.961 . S
C675 H676 0.960 . S
H676 C675 0.960 . S
H677 N657 0.862 . S
O678 Co646 1.920 . S
O678 C651 1.289 . S
C679 O671 1.258 . S
C679 O672 1.266 . S
Co680 O683 1.970 1_556 S
Co680 N697 1.989 1_556 S
Co680 O705 1.967 1_556 S
Co680 O712 1.920 . S
Co681 O684 1.966 . S
Co681 N690 2.022 . S
Co681 N698 1.993 . S
Co681 O706 1.941 . S
C682 O683 1.258 . S
C682 O684 1.263 . S
O683 Co680 1.970 1_554 S
O683 C682 1.258 . S
O684 Co681 1.966 . S
O684 C682 1.263 . S
C685 O686 1.235 . S
C685 O712 1.289 . S
O686 C685 1.235 . S
C687 C689 1.400 . S
C687 N690 1.351 . S
C687 C692 1.501 . S
C688 C689 1.387 . S
C688 N691 1.341 . S
C689 C687 1.400 . S
C689 C688 1.387 . S
N690 Co681 2.022 . S
N690 C687 1.351 . S
N690 N691 1.365 . S
N691 C688 1.341 . S
N691 N690 1.365 . S
N691 H711 0.862 . S
C692 C687 1.501 . S
C692 H693 0.961 . S
C692 H694 0.961 . S
C692 H695 0.960 . S
H693 C692 0.961 . S
H694 C692 0.961 . S
H695 C692 0.960 . S
C696 N697 1.342 . S
C696 C700 1.401 . S
C696 C701 1.499 1_554 S
N697 Co680 1.989 1_554 S
N697 C696 1.342 . S
N697 N698 1.388 . S
N698 Co681 1.993 . S
N698 N697 1.388 . S
N698 C699 1.346 . S
C699 N698 1.346 . S
C699 C700 1.396 . S
C699 C709 1.510 . S
C700 C696 1.401 . S
C700 C699 1.396 . S
C701 C696 1.499 1_556 S
C701 H702 0.959 . S
C701 H703 0.960 . S
C701 H704 0.961 . S
H702 C701 0.959 . S
H703 C701 0.960 . S
H704 C701 0.961 . S
O705 Co680 1.967 1_554 S
O705 C713 1.258 . S
O706 Co681 1.941 . S
O706 C713 1.266 . S
H707 C709 0.959 . S
H708 C709 0.961 . S
C709 C699 1.510 . S
C709 H707 0.959 . S
C709 H708 0.961 . S
C709 H710 0.960 . S
H710 C709 0.960 . S
H711 N691 0.862 . S
O712 Co680 1.920 . S
O712 C685 1.289 . S
C713 O705 1.258 . S
C713 O706 1.266 . S
Co714 O717 1.970 . S
Co714 N731 1.989 . S
Co714 O739 1.967 . S
Co714 O746 1.920 . S
Co715 O718 1.966 . S
Co715 N724 2.022 . S
Co715 N732 1.993 . S
Co715 O740 1.941 . S
C716 O717 1.258 . S
C716 O718 1.263 . S
O717 Co714 1.970 . S
O717 C716 1.258 . S
O718 Co715 1.966 . S
O718 C716 1.263 . S
C719 O720 1.235 . S
C719 O746 1.289 . S
O720 C719 1.235 . S
C721 C723 1.400 . S
C721 N724 1.351 . S
C721 C726 1.501 . S
C722 C723 1.387 . S
C722 N725 1.341 . S
C723 C721 1.400 . S
C723 C722 1.387 . S
N724 Co715 2.022 . S
N724 C721 1.351 . S
N724 N725 1.365 . S
N725 C722 1.341 . S
N725 N724 1.365 . S
N725 H745 0.862 . S
C726 C721 1.501 . S
C726 H727 0.961 . S
C726 H728 0.961 . S
C726 H729 0.960 . S
H727 C726 0.961 . S
H728 C726 0.961 . S
H729 C726 0.960 . S
C730 N731 1.342 . S
C730 C734 1.401 . S
C730 C735 1.499 . S
N731 Co714 1.989 . S
N731 C730 1.342 . S
N731 N732 1.388 . S
N732 Co715 1.993 . S
N732 N731 1.388 . S
N732 C733 1.346 . S
C733 N732 1.346 . S
C733 C734 1.396 . S
C733 C743 1.510 . S
C734 C730 1.401 . S
C734 C733 1.396 . S
C735 C730 1.499 . S
C735 H736 0.959 . S
C735 H737 0.960 . S
C735 H738 0.961 . S
H736 C735 0.959 . S
H737 C735 0.960 . S
H738 C735 0.961 . S
O739 Co714 1.967 . S
O739 C747 1.258 . S
O740 Co715 1.941 . S
O740 C747 1.266 . S
H741 C743 0.959 . S
H742 C743 0.961 . S
C743 C733 1.510 . S
C743 H741 0.959 . S
C743 H742 0.961 . S
C743 H744 0.960 . S
H744 C743 0.960 . S
H745 N725 0.862 . S
O746 Co714 1.920 . S
O746 C719 1.289 . S
C747 O739 1.258 . S
C747 O740 1.266 . S
Co748 O751 1.970 . S
Co748 N765 1.989 . S
Co748 O773 1.967 . S
Co748 O780 1.920 . S
Co749 O752 1.966 . S
Co749 N758 2.022 . S
Co749 N766 1.993 . S
Co749 O774 1.941 . S
C750 O751 1.258 . S
C750 O752 1.263 . S
O751 Co748 1.970 . S
O751 C750 1.258 . S
O752 Co749 1.966 . S
O752 C750 1.263 . S
C753 O754 1.235 . S
C753 O780 1.289 . S
O754 C753 1.235 . S
C755 C757 1.400 . S
C755 N758 1.351 . S
C755 C760 1.501 . S
C756 C757 1.387 . S
C756 N759 1.341 . S
C757 C755 1.400 . S
C757 C756 1.387 . S
N758 Co749 2.022 . S
N758 C755 1.351 . S
N758 N759 1.365 . S
N759 C756 1.341 . S
N759 N758 1.365 . S
N759 H779 0.862 . S
C760 C755 1.501 . S
C760 H761 0.961 . S
C760 H762 0.961 . S
C760 H763 0.960 . S
H761 C760 0.961 . S
H762 C760 0.961 . S
H763 C760 0.960 . S
C764 N765 1.342 . S
C764 C768 1.401 . S
C764 C769 1.499 . S
N765 Co748 1.989 . S
N765 C764 1.342 . S
N765 N766 1.388 . S
N766 Co749 1.993 . S
N766 N765 1.388 . S
N766 C767 1.346 . S
C767 N766 1.346 . S
C767 C768 1.396 . S
C767 C777 1.510 . S
C768 C764 1.401 . S
C768 C767 1.396 . S
C769 C764 1.499 . S
C769 H770 0.959 . S
C769 H771 0.960 . S
C769 H772 0.961 . S
H770 C769 0.959 . S
H771 C769 0.960 . S
H772 C769 0.961 . S
O773 Co748 1.967 . S
O773 C781 1.258 . S
O774 Co749 1.941 . S
O774 C781 1.266 . S
H775 C777 0.959 . S
H776 C777 0.961 . S
C777 C767 1.510 . S
C777 H775 0.959 . S
C777 H776 0.961 . S
C777 H778 0.960 . S
H778 C777 0.960 . S
H779 N759 0.862 . S
O780 Co748 1.920 . S
O780 C753 1.289 . S
C781 O773 1.258 . S
C781 O774 1.266 . S
Co782 O785 1.970 . S
Co782 N799 1.989 . S
Co782 O807 1.967 . S
Co782 O814 1.920 . S
Co783 O786 1.966 . S
Co783 N792 2.022 . S
Co783 N800 1.993 . S
Co783 O808 1.941 . S
C784 O785 1.258 . S
C784 O786 1.263 . S
O785 Co782 1.970 . S
O785 C784 1.258 . S
O786 Co783 1.966 . S
O786 C784 1.263 . S
C787 O788 1.235 . S
C787 O814 1.289 . S
O788 C787 1.235 . S
C789 C791 1.400 . S
C789 N792 1.351 . S
C789 C794 1.501 . S
C790 C791 1.387 . S
C790 N793 1.341 . S
C791 C789 1.400 . S
C791 C790 1.387 . S
N792 Co783 2.022 . S
N792 C789 1.351 . S
N792 N793 1.365 . S
N793 C790 1.341 . S
N793 N792 1.365 . S
N793 H813 0.862 . S
C794 C789 1.501 . S
C794 H795 0.961 . S
C794 H796 0.961 . S
C794 H797 0.960 . S
H795 C794 0.961 . S
H796 C794 0.961 . S
H797 C794 0.960 . S
C798 N799 1.342 . S
C798 C802 1.401 . S
C798 C803 1.499 . S
N799 Co782 1.989 . S
N799 C798 1.342 . S
N799 N800 1.388 . S
N800 Co783 1.993 . S
N800 N799 1.388 . S
N800 C801 1.346 . S
C801 N800 1.346 . S
C801 C802 1.396 . S
C801 C811 1.510 . S
C802 C798 1.401 . S
C802 C801 1.396 . S
C803 C798 1.499 . S
C803 H804 0.959 . S
C803 H805 0.960 . S
C803 H806 0.961 . S
H804 C803 0.959 . S
H805 C803 0.960 . S
H806 C803 0.961 . S
O807 Co782 1.967 . S
O807 C815 1.258 . S
O808 Co783 1.941 . S
O808 C815 1.266 . S
H809 C811 0.959 . S
H810 C811 0.961 . S
C811 C801 1.510 . S
C811 H809 0.959 . S
C811 H810 0.961 . S
C811 H812 0.960 . S
H812 C811 0.960 . S
H813 N793 0.862 . S
O814 Co782 1.920 . S
O814 C787 1.289 . S
C815 O807 1.258 . S
C815 O808 1.266 . S
Co816 O819 1.970 1_554 S
Co816 N833 1.989 1_554 S
Co816 O841 1.967 1_554 S
Co816 O848 1.920 . S
Co817 O820 1.966 . S
Co817 N826 2.022 . S
Co817 N834 1.993 . S
Co817 O842 1.941 . S
C818 O819 1.258 . S
C818 O820 1.263 . S
O819 Co816 1.970 1_556 S
O819 C818 1.258 . S
O820 Co817 1.966 . S
O820 C818 1.263 . S
C821 O822 1.235 . S
C821 O848 1.289 . S
O822 C821 1.235 . S
C823 C825 1.400 . S
C823 N826 1.351 . S
C823 C828 1.501 . S
C824 C825 1.387 . S
C824 N827 1.341 . S
C825 C823 1.400 . S
C825 C824 1.387 . S
N826 Co817 2.022 . S
N826 C823 1.351 . S
N826 N827 1.365 . S
N827 C824 1.341 . S
N827 N826 1.365 . S
N827 H847 0.862 . S
C828 C823 1.501 . S
C828 H829 0.961 . S
C828 H830 0.961 . S
C828 H831 0.960 . S
H829 C828 0.961 . S
H830 C828 0.961 . S
H831 C828 0.960 . S
C832 N833 1.342 . S
C832 C836 1.401 . S
C832 C837 1.499 1_556 S
N833 Co816 1.989 1_556 S
N833 C832 1.342 . S
N833 N834 1.388 . S
N834 Co817 1.993 . S
N834 N833 1.388 . S
N834 C835 1.346 . S
C835 N834 1.346 . S
C835 C836 1.396 . S
C835 C845 1.510 . S
C836 C832 1.401 . S
C836 C835 1.396 . S
C837 C832 1.499 1_554 S
C837 H838 0.959 . S
C837 H839 0.960 . S
C837 H840 0.961 . S
H838 C837 0.959 . S
H839 C837 0.960 . S
H840 C837 0.961 . S
O841 Co816 1.967 1_556 S
O841 C849 1.258 . S
O842 Co817 1.941 . S
O842 C849 1.266 . S
H843 C845 0.959 . S
H844 C845 0.961 . S
C845 C835 1.510 . S
C845 H843 0.959 . S
C845 H844 0.961 . S
C845 H846 0.960 . S
H846 C845 0.960 . S
H847 N827 0.862 . S
O848 Co816 1.920 . S
O848 C821 1.289 . S
C849 O841 1.258 . S
C849 O842 1.266 . S
Co850 O853 1.970 1_554 S
Co850 N867 1.989 1_554 S
Co850 O875 1.967 1_554 S
Co850 O882 1.920 . S
Co851 O854 1.966 . S
Co851 N860 2.022 . S
Co851 N868 1.993 . S
Co851 O876 1.941 . S
C852 O853 1.258 . S
C852 O854 1.263 . S
O853 Co850 1.970 1_556 S
O853 C852 1.258 . S
O854 Co851 1.966 . S
O854 C852 1.263 . S
C855 O856 1.235 . S
C855 O882 1.289 . S
O856 C855 1.235 . S
C857 C859 1.400 . S
C857 N860 1.351 . S
C857 C862 1.501 . S
C858 C859 1.387 . S
C858 N861 1.341 . S
C859 C857 1.400 . S
C859 C858 1.387 . S
N860 Co851 2.022 . S
N860 C857 1.351 . S
N860 N861 1.365 . S
N861 C858 1.341 . S
N861 N860 1.365 . S
N861 H881 0.862 . S
C862 C857 1.501 . S
C862 H863 0.961 . S
C862 H864 0.961 . S
C862 H865 0.960 . S
H863 C862 0.961 . S
H864 C862 0.961 . S
H865 C862 0.960 . S
C866 N867 1.342 . S
C866 C870 1.401 . S
C866 C871 1.499 1_556 S
N867 Co850 1.989 1_556 S
N867 C866 1.342 . S
N867 N868 1.388 . S
N868 Co851 1.993 . S
N868 N867 1.388 . S
N868 C869 1.346 . S
C869 N868 1.346 . S
C869 C870 1.396 . S
C869 C879 1.510 . S
C870 C866 1.401 . S
C870 C869 1.396 . S
C871 C866 1.499 1_554 S
C871 H872 0.959 . S
C871 H873 0.960 . S
C871 H874 0.961 . S
H872 C871 0.959 . S
H873 C871 0.960 . S
H874 C871 0.961 . S
O875 Co850 1.967 1_556 S
O875 C883 1.258 . S
O876 Co851 1.941 . S
O876 C883 1.266 . S
H877 C879 0.959 . S
H878 C879 0.961 . S
C879 C869 1.510 . S
C879 H877 0.959 . S
C879 H878 0.961 . S
C879 H880 0.960 . S
H880 C879 0.960 . S
H881 N861 0.862 . S
O882 Co850 1.920 . S
O882 C855 1.289 . S
C883 O875 1.258 . S
C883 O876 1.266 . S
Co884 O887 1.970 1_554 S
Co884 N901 1.989 1_554 S
Co884 O909 1.967 1_554 S
Co884 O916 1.920 . S
Co885 O888 1.966 . S
Co885 N894 2.022 . S
Co885 N902 1.993 . S
Co885 O910 1.941 . S
C886 O887 1.258 . S
C886 O888 1.263 . S
O887 Co884 1.970 1_556 S
O887 C886 1.258 . S
O888 Co885 1.966 . S
O888 C886 1.263 . S
C889 O890 1.235 . S
C889 O916 1.289 . S
O890 C889 1.235 . S
C891 C893 1.400 . S
C891 N894 1.351 . S
C891 C896 1.501 . S
C892 C893 1.387 . S
C892 N895 1.341 . S
C893 C891 1.400 . S
C893 C892 1.387 . S
N894 Co885 2.022 . S
N894 C891 1.351 . S
N894 N895 1.365 . S
N895 C892 1.341 . S
N895 N894 1.365 . S
N895 H915 0.862 . S
C896 C891 1.501 . S
C896 H897 0.961 . S
C896 H898 0.961 . S
C896 H899 0.960 . S
H897 C896 0.961 . S
H898 C896 0.961 . S
H899 C896 0.960 . S
C900 N901 1.342 . S
C900 C904 1.401 . S
C900 C905 1.499 1_556 S
N901 Co884 1.989 1_556 S
N901 C900 1.342 . S
N901 N902 1.388 . S
N902 Co885 1.993 . S
N902 N901 1.388 . S
N902 C903 1.346 . S
C903 N902 1.346 . S
C903 C904 1.396 . S
C903 C913 1.510 . S
C904 C900 1.401 . S
C904 C903 1.396 . S
C905 C900 1.499 1_554 S
C905 H906 0.959 . S
C905 H907 0.960 . S
C905 H908 0.961 . S
H906 C905 0.959 . S
H907 C905 0.960 . S
H908 C905 0.961 . S
O909 Co884 1.967 1_556 S
O909 C917 1.258 . S
O910 Co885 1.941 . S
O910 C917 1.266 . S
H911 C913 0.959 . S
H912 C913 0.961 . S
C913 C903 1.510 . S
C913 H911 0.959 . S
C913 H912 0.961 . S
C913 H914 0.960 . S
H914 C913 0.960 . S
H915 N895 0.862 . S
O916 Co884 1.920 . S
O916 C889 1.289 . S
C917 O909 1.258 . S
C917 O910 1.266 . S
Co918 O921 1.970 . S
Co918 N935 1.989 . S
Co918 O943 1.967 . S
Co918 O950 1.920 . S
Co919 O922 1.966 . S
Co919 N928 2.022 . S
Co919 N936 1.993 . S
Co919 O944 1.941 . S
C920 O921 1.258 . S
C920 O922 1.263 . S
O921 Co918 1.970 . S
O921 C920 1.258 . S
O922 Co919 1.966 . S
O922 C920 1.263 . S
C923 O924 1.235 . S
C923 O950 1.289 . S
O924 C923 1.235 . S
C925 C927 1.400 . S
C925 N928 1.351 . S
C925 C930 1.501 . S
C926 C927 1.387 . S
C926 N929 1.341 . S
C927 C925 1.400 . S
C927 C926 1.387 . S
N928 Co919 2.022 . S
N928 C925 1.351 . S
N928 N929 1.365 . S
N929 C926 1.341 . S
N929 N928 1.365 . S
N929 H949 0.862 . S
C930 C925 1.501 . S
C930 H931 0.961 . S
C930 H932 0.961 . S
C930 H933 0.960 . S
H931 C930 0.961 . S
H932 C930 0.961 . S
H933 C930 0.960 . S
C934 N935 1.342 . S
C934 C938 1.401 . S
C934 C939 1.499 . S
N935 Co918 1.989 . S
N935 C934 1.342 . S
N935 N936 1.388 . S
N936 Co919 1.993 . S
N936 N935 1.388 . S
N936 C937 1.346 . S
C937 N936 1.346 . S
C937 C938 1.396 . S
C937 C947 1.510 . S
C938 C934 1.401 . S
C938 C937 1.396 . S
C939 C934 1.499 . S
C939 H940 0.959 . S
C939 H941 0.960 . S
C939 H942 0.961 . S
H940 C939 0.959 . S
H941 C939 0.960 . S
H942 C939 0.961 . S
O943 Co918 1.967 . S
O943 C951 1.258 . S
O944 Co919 1.941 . S
O944 C951 1.266 . S
H945 C947 0.959 . S
H946 C947 0.961 . S
C947 C937 1.510 . S
C947 H945 0.959 . S
C947 H946 0.961 . S
C947 H948 0.960 . S
H948 C947 0.960 . S
H949 N929 0.862 . S
O950 Co918 1.920 . S
O950 C923 1.289 . S
C951 O943 1.258 . S
C951 O944 1.266 . S
Co952 O955 1.970 . S
Co952 N969 1.989 . S
Co952 O977 1.967 . S
Co952 O984 1.920 . S
Co953 O956 1.966 . S
Co953 N962 2.022 . S
Co953 N970 1.993 . S
Co953 O978 1.941 . S
C954 O955 1.258 . S
C954 O956 1.263 . S
O955 Co952 1.970 . S
O955 C954 1.258 . S
O956 Co953 1.966 . S
O956 C954 1.263 . S
C957 O958 1.235 . S
C957 O984 1.289 . S
O958 C957 1.235 . S
C959 C961 1.400 . S
C959 N962 1.351 . S
C959 C964 1.501 . S
C960 C961 1.387 . S
C960 N963 1.341 . S
C961 C959 1.400 . S
C961 C960 1.387 . S
N962 Co953 2.022 . S
N962 C959 1.351 . S
N962 N963 1.365 . S
N963 C960 1.341 . S
N963 N962 1.365 . S
N963 H983 0.862 . S
C964 C959 1.501 . S
C964 H965 0.961 . S
C964 H966 0.961 . S
C964 H967 0.960 . S
H965 C964 0.961 . S
H966 C964 0.961 . S
H967 C964 0.960 . S
C968 N969 1.342 . S
C968 C972 1.401 . S
C968 C973 1.499 . S
N969 Co952 1.989 . S
N969 C968 1.342 . S
N969 N970 1.388 . S
N970 Co953 1.993 . S
N970 N969 1.388 . S
N970 C971 1.346 . S
C971 N970 1.346 . S
C971 C972 1.396 . S
C971 C981 1.510 . S
C972 C968 1.401 . S
C972 C971 1.396 . S
C973 C968 1.499 . S
C973 H974 0.959 . S
C973 H975 0.960 . S
C973 H976 0.961 . S
H974 C973 0.959 . S
H975 C973 0.960 . S
H976 C973 0.961 . S
O977 Co952 1.967 . S
O977 C985 1.258 . S
O978 Co953 1.941 . S
O978 C985 1.266 . S
H979 C981 0.959 . S
H980 C981 0.961 . S
C981 C971 1.510 . S
C981 H979 0.959 . S
C981 H980 0.961 . S
C981 H982 0.960 . S
H982 C981 0.960 . S
H983 N963 0.862 . S
O984 Co952 1.920 . S
O984 C957 1.289 . S
C985 O977 1.258 . S
C985 O978 1.266 . S
Co986 O989 1.970 . S
Co986 N1003 1.989 . S
Co986 O1011 1.967 . S
Co986 O1018 1.920 . S
Co987 O990 1.966 . S
Co987 N996 2.022 . S
Co987 N1004 1.993 . S
Co987 O1012 1.941 . S
C988 O989 1.258 . S
C988 O990 1.263 . S
O989 Co986 1.970 . S
O989 C988 1.258 . S
O990 Co987 1.966 . S
O990 C988 1.263 . S
C991 O992 1.235 . S
C991 O1018 1.289 . S
O992 C991 1.235 . S
C993 C995 1.400 . S
C993 N996 1.351 . S
C993 C998 1.501 . S
C994 C995 1.387 . S
C994 N997 1.341 . S
C995 C993 1.400 . S
C995 C994 1.387 . S
N996 Co987 2.022 . S
N996 C993 1.351 . S
N996 N997 1.365 . S
N997 C994 1.341 . S
N997 N996 1.365 . S
N997 H1017 0.862 . S
C998 C993 1.501 . S
C998 H999 0.961 . S
C998 H1000 0.961 . S
C998 H1001 0.960 . S
H999 C998 0.961 . S
H1000 C998 0.961 . S
H1001 C998 0.960 . S
C1002 N1003 1.342 . S
C1002 C1006 1.401 . S
C1002 C1007 1.499 . S
N1003 Co986 1.989 . S
N1003 C1002 1.342 . S
N1003 N1004 1.388 . S
N1004 Co987 1.993 . S
N1004 N1003 1.388 . S
N1004 C1005 1.346 . S
C1005 N1004 1.346 . S
C1005 C1006 1.396 . S
C1005 C1015 1.510 . S
C1006 C1002 1.401 . S
C1006 C1005 1.396 . S
C1007 C1002 1.499 . S
C1007 H1008 0.959 . S
C1007 H1009 0.960 . S
C1007 H1010 0.961 . S
H1008 C1007 0.959 . S
H1009 C1007 0.960 . S
H1010 C1007 0.961 . S
O1011 Co986 1.967 . S
O1011 C1019 1.258 . S
O1012 Co987 1.941 . S
O1012 C1019 1.266 . S
H1013 C1015 0.959 . S
H1014 C1015 0.961 . S
C1015 C1005 1.510 . S
C1015 H1013 0.959 . S
C1015 H1014 0.961 . S
C1015 H1016 0.960 . S
H1016 C1015 0.960 . S
H1017 N997 0.862 . S
O1018 Co986 1.920 . S
O1018 C991 1.289 . S
C1019 O1011 1.258 . S
C1019 O1012 1.266 . S
Co1020 O1023 1.970 . S
Co1020 N1037 1.989 . S
Co1020 O1045 1.967 . S
Co1020 O1052 1.920 . S
Co1021 O1024 1.966 . S
Co1021 N1030 2.022 . S
Co1021 N1038 1.993 . S
Co1021 O1046 1.941 . S
C1022 O1023 1.258 . S
C1022 O1024 1.263 . S
O1023 Co1020 1.970 . S
O1023 C1022 1.258 . S
O1024 Co1021 1.966 . S
O1024 C1022 1.263 . S
C1025 O1026 1.235 . S
C1025 O1052 1.289 . S
O1026 C1025 1.235 . S
C1027 C1029 1.400 . S
C1027 N1030 1.351 . S
C1027 C1032 1.501 . S
C1028 C1029 1.387 . S
C1028 N1031 1.341 . S
C1029 C1027 1.400 . S
C1029 C1028 1.387 . S
N1030 Co1021 2.022 . S
N1030 C1027 1.351 . S
N1030 N1031 1.365 . S
N1031 C1028 1.341 . S
N1031 N1030 1.365 . S
N1031 H1051 0.862 . S
C1032 C1027 1.501 . S
C1032 H1033 0.961 . S
C1032 H1034 0.961 . S
C1032 H1035 0.960 . S
H1033 C1032 0.961 . S
H1034 C1032 0.961 . S
H1035 C1032 0.960 . S
C1036 N1037 1.342 . S
C1036 C1040 1.401 . S
C1036 C1041 1.499 . S
N1037 Co1020 1.989 . S
N1037 C1036 1.342 . S
N1037 N1038 1.388 . S
N1038 Co1021 1.993 . S
N1038 N1037 1.388 . S
N1038 C1039 1.346 . S
C1039 N1038 1.346 . S
C1039 C1040 1.396 . S
C1039 C1049 1.510 . S
C1040 C1036 1.401 . S
C1040 C1039 1.396 . S
C1041 C1036 1.499 . S
C1041 H1042 0.959 . S
C1041 H1043 0.960 . S
C1041 H1044 0.961 . S
H1042 C1041 0.959 . S
H1043 C1041 0.960 . S
H1044 C1041 0.961 . S
O1045 Co1020 1.967 . S
O1045 C1053 1.258 . S
O1046 Co1021 1.941 . S
O1046 C1053 1.266 . S
H1047 C1049 0.959 . S
H1048 C1049 0.961 . S
C1049 C1039 1.510 . S
C1049 H1047 0.959 . S
C1049 H1048 0.961 . S
C1049 H1050 0.960 . S
H1050 C1049 0.960 . S
H1051 N1031 0.862 . S
O1052 Co1020 1.920 . S
O1052 C1025 1.289 . S
C1053 O1045 1.258 . S
C1053 O1046 1.266 . S
Co1054 O1057 1.970 . S
Co1054 N1071 1.989 . S
Co1054 O1079 1.967 . S
Co1054 O1086 1.920 . S
Co1055 O1058 1.966 . S
Co1055 N1064 2.022 . S
Co1055 N1072 1.993 . S
Co1055 O1080 1.941 . S
C1056 O1057 1.258 . S
C1056 O1058 1.263 . S
O1057 Co1054 1.970 . S
O1057 C1056 1.258 . S
O1058 Co1055 1.966 . S
O1058 C1056 1.263 . S
C1059 O1060 1.235 . S
C1059 O1086 1.289 . S
O1060 C1059 1.235 . S
C1061 C1063 1.400 . S
C1061 N1064 1.351 . S
C1061 C1066 1.501 . S
C1062 C1063 1.387 . S
C1062 N1065 1.341 . S
C1063 C1061 1.400 . S
C1063 C1062 1.387 . S
N1064 Co1055 2.022 . S
N1064 C1061 1.351 . S
N1064 N1065 1.365 . S
N1065 C1062 1.341 . S
N1065 N1064 1.365 . S
N1065 H1085 0.862 . S
C1066 C1061 1.501 . S
C1066 H1067 0.961 . S
C1066 H1068 0.961 . S
C1066 H1069 0.960 . S
H1067 C1066 0.961 . S
H1068 C1066 0.961 . S
H1069 C1066 0.960 . S
C1070 N1071 1.342 . S
C1070 C1074 1.401 . S
C1070 C1075 1.499 . S
N1071 Co1054 1.989 . S
N1071 C1070 1.342 . S
N1071 N1072 1.388 . S
N1072 Co1055 1.993 . S
N1072 N1071 1.388 . S
N1072 C1073 1.346 . S
C1073 N1072 1.346 . S
C1073 C1074 1.396 . S
C1073 C1083 1.510 . S
C1074 C1070 1.401 . S
C1074 C1073 1.396 . S
C1075 C1070 1.499 . S
C1075 H1076 0.959 . S
C1075 H1077 0.960 . S
C1075 H1078 0.961 . S
H1076 C1075 0.959 . S
H1077 C1075 0.960 . S
H1078 C1075 0.961 . S
O1079 Co1054 1.967 . S
O1079 C1087 1.258 . S
O1080 Co1055 1.941 . S
O1080 C1087 1.266 . S
H1081 C1083 0.959 . S
H1082 C1083 0.961 . S
C1083 C1073 1.510 . S
C1083 H1081 0.959 . S
C1083 H1082 0.961 . S
C1083 H1084 0.960 . S
H1084 C1083 0.960 . S
H1085 N1065 0.862 . S
O1086 Co1054 1.920 . S
O1086 C1059 1.289 . S
C1087 O1079 1.258 . S
C1087 O1080 1.266 . S
Co1088 O1091 1.970 . S
Co1088 N1105 1.989 . S
Co1088 O1113 1.967 . S
Co1088 O1120 1.920 . S
Co1089 O1092 1.966 . S
Co1089 N1098 2.022 . S
Co1089 N1106 1.993 . S
Co1089 O1114 1.941 . S
C1090 O1091 1.258 . S
C1090 O1092 1.263 . S
O1091 Co1088 1.970 . S
O1091 C1090 1.258 . S
O1092 Co1089 1.966 . S
O1092 C1090 1.263 . S
C1093 O1094 1.235 . S
C1093 O1120 1.289 . S
O1094 C1093 1.235 . S
C1095 C1097 1.400 . S
C1095 N1098 1.351 . S
C1095 C1100 1.501 . S
C1096 C1097 1.387 . S
C1096 N1099 1.341 . S
C1097 C1095 1.400 . S
C1097 C1096 1.387 . S
N1098 Co1089 2.022 . S
N1098 C1095 1.351 . S
N1098 N1099 1.365 . S
N1099 C1096 1.341 . S
N1099 N1098 1.365 . S
N1099 H1119 0.862 . S
C1100 C1095 1.501 . S
C1100 H1101 0.961 . S
C1100 H1102 0.961 . S
C1100 H1103 0.960 . S
H1101 C1100 0.961 . S
H1102 C1100 0.961 . S
H1103 C1100 0.960 . S
C1104 N1105 1.342 . S
C1104 C1108 1.401 . S
C1104 C1109 1.499 . S
N1105 Co1088 1.989 . S
N1105 C1104 1.342 . S
N1105 N1106 1.388 . S
N1106 Co1089 1.993 . S
N1106 N1105 1.388 . S
N1106 C1107 1.346 . S
C1107 N1106 1.346 . S
C1107 C1108 1.396 . S
C1107 C1117 1.510 . S
C1108 C1104 1.401 . S
C1108 C1107 1.396 . S
C1109 C1104 1.499 . S
C1109 H1110 0.959 . S
C1109 H1111 0.960 . S
C1109 H1112 0.961 . S
H1110 C1109 0.959 . S
H1111 C1109 0.960 . S
H1112 C1109 0.961 . S
O1113 Co1088 1.967 . S
O1113 C1121 1.258 . S
O1114 Co1089 1.941 . S
O1114 C1121 1.266 . S
H1115 C1117 0.959 . S
H1116 C1117 0.961 . S
C1117 C1107 1.510 . S
C1117 H1115 0.959 . S
C1117 H1116 0.961 . S
C1117 H1118 0.960 . S
H1118 C1117 0.960 . S
H1119 N1099 0.862 . S
O1120 Co1088 1.920 . S
O1120 C1093 1.289 . S
C1121 O1113 1.258 . S
C1121 O1114 1.266 . S
Co1122 O1125 1.970 1_554 S
Co1122 N1139 1.989 1_554 S
Co1122 O1147 1.967 1_554 S
Co1122 O1154 1.920 . S
Co1123 O1126 1.966 . S
Co1123 N1132 2.022 . S
Co1123 N1140 1.993 . S
Co1123 O1148 1.941 . S
C1124 O1125 1.258 . S
C1124 O1126 1.263 . S
O1125 Co1122 1.970 1_556 S
O1125 C1124 1.258 . S
O1126 Co1123 1.966 . S
O1126 C1124 1.263 . S
C1127 O1128 1.235 . S
C1127 O1154 1.289 . S
O1128 C1127 1.235 . S
C1129 C1131 1.400 . S
C1129 N1132 1.351 . S
C1129 C1134 1.501 . S
C1130 C1131 1.387 . S
C1130 N1133 1.341 . S
C1131 C1129 1.400 . S
C1131 C1130 1.387 . S
N1132 Co1123 2.022 . S
N1132 C1129 1.351 . S
N1132 N1133 1.365 . S
N1133 C1130 1.341 . S
N1133 N1132 1.365 . S
N1133 H1153 0.862 . S
C1134 C1129 1.501 . S
C1134 H1135 0.961 . S
C1134 H1136 0.961 . S
C1134 H1137 0.960 . S
H1135 C1134 0.961 . S
H1136 C1134 0.961 . S
H1137 C1134 0.960 . S
C1138 N1139 1.342 . S
C1138 C1142 1.401 . S
C1138 C1143 1.499 1_556 S
N1139 Co1122 1.989 1_556 S
N1139 C1138 1.342 . S
N1139 N1140 1.388 . S
N1140 Co1123 1.993 . S
N1140 N1139 1.388 . S
N1140 C1141 1.346 . S
C1141 N1140 1.346 . S
C1141 C1142 1.396 . S
C1141 C1151 1.510 . S
C1142 C1138 1.401 . S
C1142 C1141 1.396 . S
C1143 C1138 1.499 1_554 S
C1143 H1144 0.959 . S
C1143 H1145 0.960 . S
C1143 H1146 0.961 . S
H1144 C1143 0.959 . S
H1145 C1143 0.960 . S
H1146 C1143 0.961 . S
O1147 Co1122 1.967 1_556 S
O1147 C1155 1.258 . S
O1148 Co1123 1.941 . S
O1148 C1155 1.266 . S
H1149 C1151 0.959 . S
H1150 C1151 0.961 . S
C1151 C1141 1.510 . S
C1151 H1149 0.959 . S
C1151 H1150 0.961 . S
C1151 H1152 0.960 . S
H1152 C1151 0.960 . S
H1153 N1133 0.862 . S
O1154 Co1122 1.920 . S
O1154 C1127 1.289 . S
C1155 O1147 1.258 . S
C1155 O1148 1.266 . S
Co1156 O1159 1.970 1_554 S
Co1156 N1173 1.989 1_554 S
Co1156 O1181 1.967 1_554 S
Co1156 O1188 1.920 . S
Co1157 O1160 1.966 . S
Co1157 N1166 2.022 . S
Co1157 N1174 1.993 . S
Co1157 O1182 1.941 . S
C1158 O1159 1.258 . S
C1158 O1160 1.263 . S
O1159 Co1156 1.970 1_556 S
O1159 C1158 1.258 . S
O1160 Co1157 1.966 . S
O1160 C1158 1.263 . S
C1161 O1162 1.235 . S
C1161 O1188 1.289 . S
O1162 C1161 1.235 . S
C1163 C1165 1.400 . S
C1163 N1166 1.351 . S
C1163 C1168 1.501 . S
C1164 C1165 1.387 . S
C1164 N1167 1.341 . S
C1165 C1163 1.400 . S
C1165 C1164 1.387 . S
N1166 Co1157 2.022 . S
N1166 C1163 1.351 . S
N1166 N1167 1.365 . S
N1167 C1164 1.341 . S
N1167 N1166 1.365 . S
N1167 H1187 0.862 . S
C1168 C1163 1.501 . S
C1168 H1169 0.961 . S
C1168 H1170 0.961 . S
C1168 H1171 0.960 . S
H1169 C1168 0.961 . S
H1170 C1168 0.961 . S
H1171 C1168 0.960 . S
C1172 N1173 1.342 . S
C1172 C1176 1.401 . S
C1172 C1177 1.499 1_556 S
N1173 Co1156 1.989 1_556 S
N1173 C1172 1.342 . S
N1173 N1174 1.388 . S
N1174 Co1157 1.993 . S
N1174 N1173 1.388 . S
N1174 C1175 1.346 . S
C1175 N1174 1.346 . S
C1175 C1176 1.396 . S
C1175 C1185 1.510 . S
C1176 C1172 1.401 . S
C1176 C1175 1.396 . S
C1177 C1172 1.499 1_554 S
C1177 H1178 0.959 . S
C1177 H1179 0.960 . S
C1177 H1180 0.961 . S
H1178 C1177 0.959 . S
H1179 C1177 0.960 . S
H1180 C1177 0.961 . S
O1181 Co1156 1.967 1_556 S
O1181 C1189 1.258 . S
O1182 Co1157 1.941 . S
O1182 C1189 1.266 . S
H1183 C1185 0.959 . S
H1184 C1185 0.961 . S
C1185 C1175 1.510 . S
C1185 H1183 0.959 . S
C1185 H1184 0.961 . S
C1185 H1186 0.960 . S
H1186 C1185 0.960 . S
H1187 N1167 0.862 . S
O1188 Co1156 1.920 . S
O1188 C1161 1.289 . S
C1189 O1181 1.258 . S
C1189 O1182 1.266 . S
Co1190 O1193 1.970 1_554 S
Co1190 N1207 1.989 1_554 S
Co1190 O1215 1.967 1_554 S
Co1190 O1222 1.920 . S
Co1191 O1194 1.966 . S
Co1191 N1200 2.022 . S
Co1191 N1208 1.993 . S
Co1191 O1216 1.941 . S
C1192 O1193 1.258 . S
C1192 O1194 1.263 . S
O1193 Co1190 1.970 1_556 S
O1193 C1192 1.258 . S
O1194 Co1191 1.966 . S
O1194 C1192 1.263 . S
C1195 O1196 1.235 . S
C1195 O1222 1.289 . S
O1196 C1195 1.235 . S
C1197 C1199 1.400 . S
C1197 N1200 1.351 . S
C1197 C1202 1.501 . S
C1198 C1199 1.387 . S
C1198 N1201 1.341 . S
C1199 C1197 1.400 . S
C1199 C1198 1.387 . S
N1200 Co1191 2.022 . S
N1200 C1197 1.351 . S
N1200 N1201 1.365 . S
N1201 C1198 1.341 . S
N1201 N1200 1.365 . S
N1201 H1221 0.862 . S
C1202 C1197 1.501 . S
C1202 H1203 0.961 . S
C1202 H1204 0.961 . S
C1202 H1205 0.960 . S
H1203 C1202 0.961 . S
H1204 C1202 0.961 . S
H1205 C1202 0.960 . S
C1206 N1207 1.342 . S
C1206 C1210 1.401 . S
C1206 C1211 1.499 1_556 S
N1207 Co1190 1.989 1_556 S
N1207 C1206 1.342 . S
N1207 N1208 1.388 . S
N1208 Co1191 1.993 . S
N1208 N1207 1.388 . S
N1208 C1209 1.346 . S
C1209 N1208 1.346 . S
C1209 C1210 1.396 . S
C1209 C1219 1.510 . S
C1210 C1206 1.401 . S
C1210 C1209 1.396 . S
C1211 C1206 1.499 1_554 S
C1211 H1212 0.959 . S
C1211 H1213 0.960 . S
C1211 H1214 0.961 . S
H1212 C1211 0.959 . S
H1213 C1211 0.960 . S
H1214 C1211 0.961 . S
O1215 Co1190 1.967 1_556 S
O1215 C1223 1.258 . S
O1216 Co1191 1.941 . S
O1216 C1223 1.266 . S
H1217 C1219 0.959 . S
H1218 C1219 0.961 . S
C1219 C1209 1.510 . S
C1219 H1217 0.959 . S
C1219 H1218 0.961 . S
C1219 H1220 0.960 . S
H1220 C1219 0.960 . S
H1221 N1201 0.862 . S
O1222 Co1190 1.920 . S
O1222 C1195 1.289 . S
C1223 O1215 1.258 . S
C1223 O1216 1.266 . S
C1224 C1225 1.369 . S
C1224 C1226 1.419 . S
C1224 H1228 0.930 . S
C1225 C1224 1.369 . S
C1225 C1234 1.429 . S
C1226 C1224 1.419 . S
C1226 C1227 1.363 . S
C1226 H1229 0.929 . S
C1227 C1226 1.363 . S
C1227 C1233 1.428 . S
H1228 C1224 0.930 . S
H1229 C1226 0.929 . S
S1230 N1231 1.613 1_556 S
S1230 N1232 1.610 . S
N1231 S1230 1.613 1_554 S
N1231 C1234 1.350 . S
N1232 S1230 1.610 . S
N1232 C1233 1.351 1_556 S
C1233 C1227 1.428 . S
C1233 N1232 1.351 1_554 S
C1233 C1234 1.434 . S
C1234 C1225 1.429 . S
C1234 N1231 1.350 . S
C1234 C1233 1.434 . S
C1235 C1236 1.369 . S
C1235 C1237 1.419 . S
C1235 H1239 0.930 . S
C1236 C1235 1.369 . S
C1236 C1245 1.429 . S
C1237 C1235 1.419 . S
C1237 C1238 1.363 . S
C1237 H1240 0.929 . S
C1238 C1237 1.363 . S
C1238 C1244 1.428 . S
H1239 C1235 0.930 . S
H1240 C1237 0.929 . S
S1241 N1242 1.613 . S
S1241 N1243 1.610 . S
N1242 S1241 1.613 . S
N1242 C1245 1.350 . S
N1243 S1241 1.610 . S
N1243 C1244 1.351 . S
C1244 C1238 1.428 . S
C1244 N1243 1.351 . S
C1244 C1245 1.434 . S
C1245 C1236 1.429 . S
C1245 N1242 1.350 . S
C1245 C1244 1.434 . S
C1246 C1247 1.369 . S
C1246 C1248 1.419 . S
C1246 H1250 0.930 . S
C1247 C1246 1.369 . S
C1247 C1256 1.429 . S
C1248 C1246 1.419 . S
C1248 C1249 1.363 . S
C1248 H1251 0.929 . S
C1249 C1248 1.363 . S
C1249 C1255 1.428 . S
H1250 C1246 0.930 . S
H1251 C1248 0.929 . S
S1252 N1253 1.613 . S
S1252 N1254 1.610 . S
N1253 S1252 1.613 . S
N1253 C1256 1.350 . S
N1254 S1252 1.610 . S
N1254 C1255 1.351 . S
C1255 C1249 1.428 . S
C1255 N1254 1.351 . S
C1255 C1256 1.434 . S
C1256 C1247 1.429 . S
C1256 N1253 1.350 . S
C1256 C1255 1.434 . S
C1257 C1258 1.369 . S
C1257 C1259 1.419 . S
C1257 H1261 0.930 . S
C1258 C1257 1.369 . S
C1258 C1267 1.429 . S
C1259 C1257 1.419 . S
C1259 C1260 1.363 . S
C1259 H1262 0.929 . S
C1260 C1259 1.363 . S
C1260 C1266 1.428 . S
H1261 C1257 0.930 . S
H1262 C1259 0.929 . S
S1263 N1264 1.613 . S
S1263 N1265 1.610 . S
N1264 S1263 1.613 . S
N1264 C1267 1.350 . S
N1265 S1263 1.610 . S
N1265 C1266 1.351 . S
C1266 C1260 1.428 . S
C1266 N1265 1.351 . S
C1266 C1267 1.434 . S
C1267 C1258 1.429 . S
C1267 N1264 1.350 . S
C1267 C1266 1.434 . S
C1268 C1269 1.369 . S
C1268 C1270 1.419 . S
C1268 H1272 0.930 . S
C1269 C1268 1.369 . S
C1269 C1278 1.429 . S
C1270 C1268 1.419 . S
C1270 C1271 1.363 . S
C1270 H1273 0.929 . S
C1271 C1270 1.363 . S
C1271 C1277 1.428 . S
H1272 C1268 0.930 . S
H1273 C1270 0.929 . S
S1274 N1275 1.613 . S
S1274 N1276 1.610 . S
N1275 S1274 1.613 . S
N1275 C1278 1.350 . S
N1276 S1274 1.610 . S
N1276 C1277 1.351 . S
C1277 C1271 1.428 . S
C1277 N1276 1.351 . S
C1277 C1278 1.434 . S
C1278 C1269 1.429 . S
C1278 N1275 1.350 . S
C1278 C1277 1.434 . S
C1279 C1280 1.369 . S
C1279 C1281 1.419 . S
C1279 H1283 0.930 . S
C1280 C1279 1.369 . S
C1280 C1289 1.429 . S
C1281 C1279 1.419 . S
C1281 C1282 1.363 . S
C1281 H1284 0.929 . S
C1282 C1281 1.363 . S
C1282 C1288 1.428 . S
H1283 C1279 0.930 . S
H1284 C1281 0.929 . S
S1285 N1286 1.613 . S
S1285 N1287 1.610 . S
N1286 S1285 1.613 . S
N1286 C1289 1.350 . S
N1287 S1285 1.610 . S
N1287 C1288 1.351 . S
C1288 C1282 1.428 . S
C1288 N1287 1.351 . S
C1288 C1289 1.434 . S
C1289 C1280 1.429 . S
C1289 N1286 1.350 . S
C1289 C1288 1.434 . S
C1290 C1291 1.369 . S
C1290 C1292 1.419 . S
C1290 H1294 0.930 . S
C1291 C1290 1.369 . S
C1291 C1300 1.429 . S
C1292 C1290 1.419 . S
C1292 C1293 1.363 . S
C1292 H1295 0.929 . S
C1293 C1292 1.363 . S
C1293 C1299 1.428 . S
H1294 C1290 0.930 . S
H1295 C1292 0.929 . S
S1296 N1297 1.613 . S
S1296 N1298 1.610 . S
N1297 S1296 1.613 . S
N1297 C1300 1.350 . S
N1298 S1296 1.610 . S
N1298 C1299 1.351 . S
C1299 C1293 1.428 . S
C1299 N1298 1.351 . S
C1299 C1300 1.434 . S
C1300 C1291 1.429 . S
C1300 N1297 1.350 . S
C1300 C1299 1.434 . S
C1301 C1302 1.369 . S
C1301 C1303 1.419 . S
C1301 H1305 0.930 . S
C1302 C1301 1.369 . S
C1302 C1311 1.429 . S
C1303 C1301 1.419 . S
C1303 C1304 1.363 . S
C1303 H1306 0.929 . S
C1304 C1303 1.363 . S
C1304 C1310 1.428 . S
H1305 C1301 0.930 . S
H1306 C1303 0.929 . S
S1307 N1308 1.613 . S
S1307 N1309 1.610 . S
N1308 S1307 1.613 . S
N1308 C1311 1.350 . S
N1309 S1307 1.610 . S
N1309 C1310 1.351 . S
C1310 C1304 1.428 . S
C1310 N1309 1.351 . S
C1310 C1311 1.434 . S
C1311 C1302 1.429 . S
C1311 N1308 1.350 . S
C1311 C1310 1.434 . S
C1312 C1313 1.369 . S
C1312 C1314 1.419 . S
C1312 H1316 0.930 . S
C1313 C1312 1.369 . S
C1313 C1322 1.429 . S
C1314 C1312 1.419 . S
C1314 C1315 1.363 . S
C1314 H1317 0.929 . S
C1315 C1314 1.363 . S
C1315 C1321 1.428 . S
H1316 C1312 0.930 . S
H1317 C1314 0.929 . S
S1318 N1319 1.613 . S
S1318 N1320 1.610 . S
N1319 S1318 1.613 . S
N1319 C1322 1.350 . S
N1320 S1318 1.610 . S
N1320 C1321 1.351 . S
C1321 C1315 1.428 . S
C1321 N1320 1.351 . S
C1321 C1322 1.434 . S
C1322 C1313 1.429 . S
C1322 N1319 1.350 . S
C1322 C1321 1.434 . S
C1323 C1324 1.369 . S
C1323 C1325 1.419 . S
C1323 H1327 0.930 . S
C1324 C1323 1.369 . S
C1324 C1333 1.429 . S
C1325 C1323 1.419 . S
C1325 C1326 1.363 . S
C1325 H1328 0.929 . S
C1326 C1325 1.363 . S
C1326 C1332 1.428 . S
H1327 C1323 0.930 . S
H1328 C1325 0.929 . S
S1329 N1330 1.613 . S
S1329 N1331 1.610 1_556 S
N1330 S1329 1.613 . S
N1330 C1333 1.350 1_556 S
N1331 S1329 1.610 1_554 S
N1331 C1332 1.351 . S
C1332 C1326 1.428 . S
C1332 N1331 1.351 . S
C1332 C1333 1.434 . S
C1333 C1324 1.429 . S
C1333 N1330 1.350 1_554 S
C1333 C1332 1.434 . S
C1334 C1335 1.369 . S
C1334 C1336 1.419 . S
C1334 H1338 0.930 . S
C1335 C1334 1.369 . S
C1335 C1344 1.429 . S
C1336 C1334 1.419 . S
C1336 C1337 1.363 . S
C1336 H1339 0.929 . S
C1337 C1336 1.363 . S
C1337 C1343 1.428 . S
H1338 C1334 0.930 . S
H1339 C1336 0.929 . S
S1340 N1341 1.613 . S
S1340 N1342 1.610 . S
N1341 S1340 1.613 . S
N1341 C1344 1.350 . S
N1342 S1340 1.610 . S
N1342 C1343 1.351 . S
C1343 C1337 1.428 . S
C1343 N1342 1.351 . S
C1343 C1344 1.434 . S
C1344 C1335 1.429 . S
C1344 N1341 1.350 . S
C1344 C1343 1.434 . S
C1345 C1346 1.369 . S
C1345 C1347 1.419 . S
C1345 H1349 0.930 . S
C1346 C1345 1.369 . S
C1346 C1355 1.429 . S
C1347 C1345 1.419 . S
C1347 C1348 1.363 . S
C1347 H1350 0.929 . S
C1348 C1347 1.363 . S
C1348 C1354 1.428 . S
H1349 C1345 0.930 . S
H1350 C1347 0.929 . S
S1351 N1352 1.613 . S
S1351 N1353 1.610 . S
N1352 S1351 1.613 . S
N1352 C1355 1.350 . S
N1353 S1351 1.610 . S
N1353 C1354 1.351 . S
C1354 C1348 1.428 . S
C1354 N1353 1.351 . S
C1354 C1355 1.434 . S
C1355 C1346 1.429 . S
C1355 N1352 1.350 . S
C1355 C1354 1.434 . S
C1356 C1357 1.369 . S
C1356 C1358 1.419 . S
C1356 H1360 0.930 . S
C1357 C1356 1.369 . S
C1357 C1366 1.429 . S
C1358 C1356 1.419 . S
C1358 C1359 1.363 . S
C1358 H1361 0.929 . S
C1359 C1358 1.363 . S
C1359 C1365 1.428 . S
H1360 C1356 0.930 . S
H1361 C1358 0.929 . S
S1362 N1363 1.613 . S
S1362 N1364 1.610 . S
N1363 S1362 1.613 . S
N1363 C1366 1.350 . S
N1364 S1362 1.610 . S
N1364 C1365 1.351 . S
C1365 C1359 1.428 . S
C1365 N1364 1.351 . S
C1365 C1366 1.434 . S
C1366 C1357 1.429 . S
C1366 N1363 1.350 . S
C1366 C1365 1.434 . S
C1367 C1368 1.369 . S
C1367 C1369 1.419 1_565 S
C1367 H1371 0.930 . S
C1368 C1367 1.369 . S
C1368 C1377 1.429 . S
C1369 C1367 1.419 1_545 S
C1369 C1370 1.363 . S
C1369 H1372 0.929 . S
C1370 C1369 1.363 . S
C1370 C1376 1.428 . S
H1371 C1367 0.930 . S
H1372 C1369 0.929 . S
S1373 N1374 1.613 . S
S1373 N1375 1.610 1_565 S
N1374 S1373 1.613 . S
N1374 C1377 1.350 . S
N1375 S1373 1.610 1_545 S
N1375 C1376 1.351 . S
C1376 C1370 1.428 . S
C1376 N1375 1.351 . S
C1376 C1377 1.434 1_545 S
C1377 C1368 1.429 . S
C1377 N1374 1.350 . S
C1377 C1376 1.434 1_565 S
C1378 C1379 1.369 . S
C1378 C1380 1.419 1_655 S
C1378 H1382 0.930 . S
C1379 C1378 1.369 . S
C1379 C1388 1.429 . S
C1380 C1378 1.419 1_455 S
C1380 C1381 1.363 . S
C1380 H1383 0.929 . S
C1381 C1380 1.363 . S
C1381 C1387 1.428 . S
H1382 C1378 0.930 . S
H1383 C1380 0.929 . S
S1384 N1385 1.613 1_455 S
S1384 N1386 1.610 . S
N1385 S1384 1.613 1_655 S
N1385 C1388 1.350 . S
N1386 S1384 1.610 . S
N1386 C1387 1.351 . S
C1387 C1381 1.428 . S
C1387 N1386 1.351 . S
C1387 C1388 1.434 1_455 S
C1388 C1379 1.429 . S
C1388 N1385 1.350 . S
C1388 C1387 1.434 1_655 S
C1389 C1390 1.369 . S
C1389 C1391 1.419 . S
C1389 H1393 0.930 . S
C1390 C1389 1.369 . S
C1390 C1399 1.429 . S
C1391 C1389 1.419 . S
C1391 C1392 1.363 . S
C1391 H1394 0.929 . S
C1392 C1391 1.363 . S
C1392 C1398 1.428 . S
H1393 C1389 0.930 . S
H1394 C1391 0.929 . S
S1395 N1396 1.613 . S
S1395 N1397 1.610 . S
N1396 S1395 1.613 . S
N1396 C1399 1.350 . S
N1397 S1395 1.610 . S
N1397 C1398 1.351 . S
C1398 C1392 1.428 . S
C1398 N1397 1.351 . S
C1398 C1399 1.434 . S
C1399 C1390 1.429 . S
C1399 N1396 1.350 . S
C1399 C1398 1.434 . S
C1400 C1401 1.369 . S
C1400 C1402 1.419 1_565 S
C1400 H1404 0.930 . S
C1401 C1400 1.369 . S
C1401 C1410 1.429 . S
C1402 C1400 1.419 1_545 S
C1402 C1403 1.363 . S
C1402 H1405 0.929 . S
C1403 C1402 1.363 . S
C1403 C1409 1.428 . S
H1404 C1400 0.930 . S
H1405 C1402 0.929 . S
S1406 N1407 1.613 . S
S1406 N1408 1.610 1_565 S
N1407 S1406 1.613 . S
N1407 C1410 1.350 . S
N1408 S1406 1.610 1_545 S
N1408 C1409 1.351 . S
C1409 C1403 1.428 . S
C1409 N1408 1.351 . S
C1409 C1410 1.434 1_545 S
C1410 C1401 1.429 . S
C1410 N1407 1.350 . S
C1410 C1409 1.434 1_565 S
C1411 C1412 1.369 . S
C1411 C1413 1.419 1_655 S
C1411 H1415 0.930 . S
C1412 C1411 1.369 . S
C1412 C1421 1.429 . S
C1413 C1411 1.419 1_455 S
C1413 C1414 1.363 . S
C1413 H1416 0.929 . S
C1414 C1413 1.363 . S
C1414 C1420 1.428 . S
H1415 C1411 0.930 . S
H1416 C1413 0.929 . S
S1417 N1418 1.613 . S
S1417 N1419 1.610 1_655 S
N1418 S1417 1.613 . S
N1418 C1421 1.350 . S
N1419 S1417 1.610 1_455 S
N1419 C1420 1.351 . S
C1420 C1414 1.428 . S
C1420 N1419 1.351 . S
C1420 C1421 1.434 1_455 S
C1421 C1412 1.429 . S
C1421 N1418 1.350 . S
C1421 C1420 1.434 1_655 S
C1422 C1423 1.369 . S
C1422 C1424 1.419 . S
C1422 H1426 0.930 . S
C1423 C1422 1.369 . S
C1423 C1432 1.429 . S
C1424 C1422 1.419 . S
C1424 C1425 1.363 . S
C1424 H1427 0.929 . S
C1425 C1424 1.363 . S
C1425 C1431 1.428 . S
H1426 C1422 0.930 . S
H1427 C1424 0.929 . S
S1428 N1429 1.613 . S
S1428 N1430 1.610 . S
N1429 S1428 1.613 . S
N1429 C1432 1.350 . S
N1430 S1428 1.610 . S
N1430 C1431 1.351 . S
C1431 C1425 1.428 . S
C1431 N1430 1.351 . S
C1431 C1432 1.434 . S
C1432 C1423 1.429 . S
C1432 N1429 1.350 . S
C1432 C1431 1.434 . S
C1433 C1434 1.369 . S
C1433 C1435 1.419 . S
C1433 H1437 0.930 . S
C1434 C1433 1.369 . S
C1434 C1443 1.429 . S
C1435 C1433 1.419 . S
C1435 C1436 1.363 . S
C1435 H1438 0.929 . S
C1436 C1435 1.363 . S
C1436 C1442 1.428 . S
H1437 C1433 0.930 . S
H1438 C1435 0.929 . S
S1439 N1440 1.613 . S
S1439 N1441 1.610 . S
N1440 S1439 1.613 . S
N1440 C1443 1.350 . S
N1441 S1439 1.610 . S
N1441 C1442 1.351 . S
C1442 C1436 1.428 . S
C1442 N1441 1.351 . S
C1442 C1443 1.434 . S
C1443 C1434 1.429 . S
C1443 N1440 1.350 . S
C1443 C1442 1.434 . S
C1444 C1445 1.369 . S
C1444 C1446 1.419 . S
C1444 H1448 0.930 . S
C1445 C1444 1.369 . S
C1445 C1454 1.429 . S
C1446 C1444 1.419 . S
C1446 C1447 1.363 . S
C1446 H1449 0.929 . S
C1447 C1446 1.363 . S
C1447 C1453 1.428 . S
H1448 C1444 0.930 . S
H1449 C1446 0.929 . S
S1450 N1451 1.613 . S
S1450 N1452 1.610 . S
N1451 S1450 1.613 . S
N1451 C1454 1.350 . S
N1452 S1450 1.610 . S
N1452 C1453 1.351 . S
C1453 C1447 1.428 . S
C1453 N1452 1.351 . S
C1453 C1454 1.434 . S
C1454 C1445 1.429 . S
C1454 N1451 1.350 . S
C1454 C1453 1.434 . S
C1455 C1456 1.369 . S
C1455 C1457 1.419 . S
C1455 H1459 0.930 . S
C1456 C1455 1.369 . S
C1456 C1465 1.429 . S
C1457 C1455 1.419 . S
C1457 C1458 1.363 . S
C1457 H1460 0.929 . S
C1458 C1457 1.363 . S
C1458 C1464 1.428 . S
H1459 C1455 0.930 . S
H1460 C1457 0.929 . S
S1461 N1462 1.613 . S
S1461 N1463 1.610 . S
N1462 S1461 1.613 . S
N1462 C1465 1.350 . S
N1463 S1461 1.610 . S
N1463 C1464 1.351 . S
C1464 C1458 1.428 . S
C1464 N1463 1.351 . S
C1464 C1465 1.434 . S
C1465 C1456 1.429 . S
C1465 N1462 1.350 . S
C1465 C1464 1.434 . S
C1466 C1467 1.369 . S
C1466 C1468 1.419 . S
C1466 H1470 0.930 . S
C1467 C1466 1.369 . S
C1467 C1476 1.429 . S
C1468 C1466 1.419 . S
C1468 C1469 1.363 . S
C1468 H1471 0.929 . S
C1469 C1468 1.363 . S
C1469 C1475 1.428 . S
H1470 C1466 0.930 . S
H1471 C1468 0.929 . S
S1472 N1473 1.613 . S
S1472 N1474 1.610 . S
N1473 S1472 1.613 . S
N1473 C1476 1.350 . S
N1474 S1472 1.610 . S
N1474 C1475 1.351 . S
C1475 C1469 1.428 . S
C1475 N1474 1.351 . S
C1475 C1476 1.434 . S
C1476 C1467 1.429 . S
C1476 N1473 1.350 . S
C1476 C1475 1.434 . S
C1477 C1478 1.369 . S
C1477 C1479 1.419 . S
C1477 H1481 0.930 . S
C1478 C1477 1.369 . S
C1478 C1487 1.429 . S
C1479 C1477 1.419 . S
C1479 C1480 1.363 . S
C1479 H1482 0.929 . S
C1480 C1479 1.363 . S
C1480 C1486 1.428 . S
H1481 C1477 0.930 . S
H1482 C1479 0.929 . S
S1483 N1484 1.613 . S
S1483 N1485 1.610 . S
N1484 S1483 1.613 . S
N1484 C1487 1.350 . S
N1485 S1483 1.610 . S
N1485 C1486 1.351 . S
C1486 C1480 1.428 . S
C1486 N1485 1.351 . S
C1486 C1487 1.434 . S
C1487 C1478 1.429 . S
C1487 N1484 1.350 . S
C1487 C1486 1.434 . S
C1488 C1489 1.369 . S
C1488 C1490 1.419 . S
C1488 H1492 0.930 . S
C1489 C1488 1.369 . S
C1489 C1498 1.429 . S
C1490 C1488 1.419 . S
C1490 C1491 1.363 . S
C1490 H1493 0.929 . S
C1491 C1490 1.363 . S
C1491 C1497 1.428 . S
H1492 C1488 0.930 . S
H1493 C1490 0.929 . S
S1494 N1495 1.613 . S
S1494 N1496 1.610 . S
N1495 S1494 1.613 . S
N1495 C1498 1.350 . S
N1496 S1494 1.610 . S
N1496 C1497 1.351 . S
C1497 C1491 1.428 . S
C1497 N1496 1.351 . S
C1497 C1498 1.434 . S
C1498 C1489 1.429 . S
C1498 N1495 1.350 . S
C1498 C1497 1.434 . S
C1499 C1500 1.369 . S
C1499 C1501 1.419 . S
C1499 H1503 0.930 . S
C1500 C1499 1.369 . S
C1500 C1509 1.429 . S
C1501 C1499 1.419 . S
C1501 C1502 1.363 . S
C1501 H1504 0.929 . S
C1502 C1501 1.363 . S
C1502 C1508 1.428 . S
H1503 C1499 0.930 . S
H1504 C1501 0.929 . S
S1505 N1506 1.613 . S
S1505 N1507 1.610 . S
N1506 S1505 1.613 . S
N1506 C1509 1.350 . S
N1507 S1505 1.610 . S
N1507 C1508 1.351 . S
C1508 C1502 1.428 . S
C1508 N1507 1.351 . S
C1508 C1509 1.434 . S
C1509 C1500 1.429 . S
C1509 N1506 1.350 . S
C1509 C1508 1.434 . S
C1510 C1511 1.369 . S
C1510 C1512 1.419 . S
C1510 H1514 0.930 . S
C1511 C1510 1.369 . S
C1511 C1520 1.429 . S
C1512 C1510 1.419 . S
C1512 C1513 1.363 . S
C1512 H1515 0.929 . S
C1513 C1512 1.363 . S
C1513 C1519 1.428 . S
H1514 C1510 0.930 . S
H1515 C1512 0.929 . S
S1516 N1517 1.613 . S
S1516 N1518 1.610 . S
N1517 S1516 1.613 . S
N1517 C1520 1.350 . S
N1518 S1516 1.610 . S
N1518 C1519 1.351 . S
C1519 C1513 1.428 . S
C1519 N1518 1.351 . S
C1519 C1520 1.434 . S
C1520 C1511 1.429 . S
C1520 N1517 1.350 . S
C1520 C1519 1.434 . S
C1521 C1522 1.369 . S
C1521 C1523 1.419 . S
C1521 H1525 0.930 . S
C1522 C1521 1.369 . S
C1522 C1531 1.429 . S
C1523 C1521 1.419 . S
C1523 C1524 1.363 . S
C1523 H1526 0.929 . S
C1524 C1523 1.363 . S
C1524 C1530 1.428 . S
H1525 C1521 0.930 . S
H1526 C1523 0.929 . S
S1527 N1528 1.613 . S
S1527 N1529 1.610 . S
N1528 S1527 1.613 . S
N1528 C1531 1.350 . S
N1529 S1527 1.610 . S
N1529 C1530 1.351 . S
C1530 C1524 1.428 . S
C1530 N1529 1.351 . S
C1530 C1531 1.434 . S
C1531 C1522 1.429 . S
C1531 N1528 1.350 . S
C1531 C1530 1.434 . S
C1532 C1533 1.369 . S
C1532 C1534 1.419 . S
C1532 H1536 0.930 . S
C1533 C1532 1.369 . S
C1533 C1542 1.429 . S
C1534 C1532 1.419 . S
C1534 C1535 1.363 . S
C1534 H1537 0.929 . S
C1535 C1534 1.363 . S
C1535 C1541 1.428 . S
H1536 C1532 0.930 . S
H1537 C1534 0.929 . S
S1538 N1539 1.613 . S
S1538 N1540 1.610 . S
N1539 S1538 1.613 . S
N1539 C1542 1.350 . S
N1540 S1538 1.610 . S
N1540 C1541 1.351 . S
C1541 C1535 1.428 . S
C1541 N1540 1.351 . S
C1541 C1542 1.434 . S
C1542 C1533 1.429 . S
C1542 N1539 1.350 . S
C1542 C1541 1.434 . S
C1543 C1544 1.369 . S
C1543 C1545 1.419 . S
C1543 H1547 0.930 . S
C1544 C1543 1.369 . S
C1544 C1553 1.429 . S
C1545 C1543 1.419 . S
C1545 C1546 1.363 . S
C1545 H1548 0.929 . S
C1546 C1545 1.363 . S
C1546 C1552 1.428 . S
H1547 C1543 0.930 . S
H1548 C1545 0.929 . S
S1549 N1550 1.613 . S
S1549 N1551 1.610 . S
N1550 S1549 1.613 . S
N1550 C1553 1.350 . S
N1551 S1549 1.610 . S
N1551 C1552 1.351 . S
C1552 C1546 1.428 . S
C1552 N1551 1.351 . S
C1552 C1553 1.434 . S
C1553 C1544 1.429 . S
C1553 N1550 1.350 . S
C1553 C1552 1.434 . S
C1554 C1555 1.369 1_554 S
C1554 C1556 1.419 1_655 S
C1554 H1558 0.930 . S
C1555 C1554 1.369 1_556 S
C1555 C1564 1.429 . S
C1556 C1554 1.419 1_455 S
C1556 C1557 1.363 . S
C1556 H1559 0.929 . S
C1557 C1556 1.363 . S
C1557 C1563 1.428 1_554 S
H1558 C1554 0.930 . S
H1559 C1556 0.929 . S
S1560 N1561 1.613 1_455 S
S1560 N1562 1.610 . S
N1561 S1560 1.613 1_655 S
N1561 C1564 1.350 . S
N1562 S1560 1.610 . S
N1562 C1563 1.351 . S
C1563 C1557 1.428 1_556 S
C1563 N1562 1.351 . S
C1563 C1564 1.434 1_455 S
C1564 C1555 1.429 . S
C1564 N1561 1.350 . S
C1564 C1563 1.434 1_655 S
C1565 C1566 1.369 . S
C1565 C1567 1.419 . S
C1565 H1569 0.930 . S
C1566 C1565 1.369 . S
C1566 C1575 1.429 1_556 S
C1567 C1565 1.419 . S
C1567 C1568 1.363 1_556 S
C1567 H1570 0.929 . S
C1568 C1567 1.363 1_554 S
C1568 C1574 1.428 . S
H1569 C1565 0.930 . S
H1570 C1567 0.929 . S
S1571 N1572 1.613 . S
S1571 N1573 1.610 . S
N1572 S1571 1.613 . S
N1572 C1575 1.350 . S
N1573 S1571 1.610 . S
N1573 C1574 1.351 . S
C1574 C1568 1.428 . S
C1574 N1573 1.351 . S
C1574 C1575 1.434 . S
C1575 C1566 1.429 1_554 S
C1575 N1572 1.350 . S
C1575 C1574 1.434 . S
C1576 C1577 1.369 . S
C1576 C1578 1.419 1_564 S
C1576 H1580 0.930 . S
C1577 C1576 1.369 . S
C1577 C1586 1.429 . S
C1578 C1576 1.419 1_546 S
C1578 C1579 1.363 . S
C1578 H1581 0.929 . S
C1579 C1578 1.363 . S
C1579 C1585 1.428 . S
H1580 C1576 0.930 . S
H1581 C1578 0.929 . S
S1582 N1583 1.613 1_556 S
S1582 N1584 1.610 1_565 S
N1583 S1582 1.613 1_554 S
N1583 C1586 1.350 . S
N1584 S1582 1.610 1_545 S
N1584 C1585 1.351 . S
C1585 C1579 1.428 . S
C1585 N1584 1.351 . S
C1585 C1586 1.434 1_546 S
C1586 C1577 1.429 . S
C1586 N1583 1.350 . S
C1586 C1585 1.434 1_564 S
C1587 C1588 1.369 1_556 S
C1587 C1589 1.419 1_565 S
C1587 H1591 0.930 . S
C1588 C1587 1.369 1_554 S
C1588 C1597 1.429 . S
C1589 C1587 1.419 1_545 S
C1589 C1590 1.363 . S
C1589 H1592 0.929 . S
C1590 C1589 1.363 . S
C1590 C1596 1.428 1_556 S
H1591 C1587 0.930 . S
H1592 C1589 0.929 . S
S1593 N1594 1.555 1_545 S
S1593 N1595 1.610 . S
N1594 S1593 1.555 1_565 S
N1594 C1597 1.350 . S
N1595 S1593 1.610 . S
N1595 C1596 1.351 . S
C1596 C1590 1.428 1_554 S
C1596 N1595 1.351 . S
C1596 C1597 1.434 1_545 S
C1597 C1588 1.429 . S
C1597 N1594 1.350 . S
C1597 C1596 1.434 1_565 S
C1598 C1599 1.369 . S
C1598 C1600 1.419 1_655 S
C1598 H1602 0.930 . S
C1599 C1598 1.369 . S
C1599 C1608 1.429 1_556 S
C1600 C1598 1.419 1_455 S
C1600 C1601 1.363 1_556 S
C1600 H1603 0.929 . S
C1601 C1600 1.363 1_554 S
C1601 C1607 1.428 . S
H1602 C1598 0.930 . S
H1603 C1600 0.929 . S
S1604 N1605 1.613 . S
S1604 N1606 1.610 1_655 S
N1605 S1604 1.613 . S
N1605 C1608 1.350 . S
N1606 S1604 1.610 1_455 S
N1606 C1607 1.351 . S
C1607 C1601 1.428 . S
C1607 N1606 1.351 . S
C1607 C1608 1.434 1_455 S
C1608 C1599 1.429 1_554 S
C1608 N1605 1.350 . S
C1608 C1607 1.434 1_655 S
C1609 C1610 1.369 . S
C1609 C1611 1.419 . S
C1609 H1613 0.930 . S
C1610 C1609 1.369 . S
C1610 C1619 1.429 1_556 S
C1611 C1609 1.419 . S
C1611 C1612 1.363 1_556 S
C1611 H1614 0.929 . S
C1612 C1611 1.363 1_554 S
C1612 C1618 1.428 . S
H1613 C1609 0.930 . S
H1614 C1611 0.929 . S
S1615 N1616 1.613 . S
S1615 N1617 1.610 . S
N1616 S1615 1.613 . S
N1616 C1619 1.350 . S
N1617 S1615 1.610 . S
N1617 C1618 1.351 . S
C1618 C1612 1.428 . S
C1618 N1617 1.351 . S
C1618 C1619 1.434 . S
C1619 C1610 1.429 1_554 S
C1619 N1616 1.350 . S
C1619 C1618 1.434 . S
C1620 C1621 1.369 . S
C1620 C1622 1.419 . S
C1620 H1624 0.930 . S
C1621 C1620 1.369 . S
C1621 C1630 1.429 . S
C1622 C1620 1.419 . S
C1622 C1623 1.363 . S
C1622 H1625 0.929 . S
C1623 C1622 1.363 . S
C1623 C1629 1.428 . S
H1624 C1620 0.930 . S
H1625 C1622 0.929 . S
S1626 N1627 1.613 . S
S1626 N1628 1.610 . S
N1627 S1626 1.613 . S
N1627 C1630 1.350 . S
N1628 S1626 1.610 . S
N1628 C1629 1.351 . S
C1629 C1623 1.428 . S
C1629 N1628 1.351 . S
C1629 C1630 1.434 . S
C1630 C1621 1.429 . S
C1630 N1627 1.350 . S
C1630 C1629 1.434 . S
C1631 C1632 1.369 . S
C1631 C1633 1.419 . S
C1631 H1635 0.930 . S
C1632 C1631 1.369 . S
C1632 C1641 1.429 . S
C1633 C1631 1.419 . S
C1633 C1634 1.363 . S
C1633 H1636 0.929 . S
C1634 C1633 1.363 . S
C1634 C1640 1.428 . S
H1635 C1631 0.930 . S
H1636 C1633 0.929 . S
S1637 N1638 1.613 . S
S1637 N1639 1.610 . S
N1638 S1637 1.613 . S
N1638 C1641 1.350 . S
N1639 S1637 1.610 . S
N1639 C1640 1.351 . S
C1640 C1634 1.428 . S
C1640 N1639 1.351 . S
C1640 C1641 1.434 . S
C1641 C1632 1.429 . S
C1641 N1638 1.350 . S
C1641 C1640 1.434 . S
C1642 C1643 1.369 . S
C1642 C1644 1.419 . S
C1642 H1646 0.930 . S
C1643 C1642 1.369 . S
C1643 C1652 1.429 . S
C1644 C1642 1.419 . S
C1644 C1645 1.363 . S
C1644 H1647 0.929 . S
C1645 C1644 1.363 . S
C1645 C1651 1.428 . S
H1646 C1642 0.930 . S
H1647 C1644 0.929 . S
S1648 N1649 1.613 . S
S1648 N1650 1.610 . S
N1649 S1648 1.613 . S
N1649 C1652 1.350 . S
N1650 S1648 1.610 . S
N1650 C1651 1.351 . S
C1651 C1645 1.428 . S
C1651 N1650 1.351 . S
C1651 C1652 1.434 . S
C1652 C1643 1.429 . S
C1652 N1649 1.350 . S
C1652 C1651 1.434 . S
C1653 C1654 1.369 . S
C1653 C1655 1.419 . S
C1653 H1657 0.930 . S
C1654 C1653 1.369 . S
C1654 C1663 1.429 . S
C1655 C1653 1.419 . S
C1655 C1656 1.363 . S
C1655 H1658 0.929 . S
C1656 C1655 1.363 . S
C1656 C1662 1.428 . S
H1657 C1653 0.930 . S
H1658 C1655 0.929 . S
S1659 N1660 1.613 . S
S1659 N1661 1.610 . S
N1660 S1659 1.613 . S
N1660 C1663 1.350 . S
N1661 S1659 1.610 . S
N1661 C1662 1.351 . S
C1662 C1656 1.428 . S
C1662 N1661 1.351 . S
C1662 C1663 1.434 . S
C1663 C1654 1.429 . S
C1663 N1660 1.350 . S
C1663 C1662 1.434 . S
C1664 C1665 1.369 . S
C1664 C1666 1.419 . S
C1664 H1668 0.930 . S
C1665 C1664 1.369 . S
C1665 C1674 1.429 . S
C1666 C1664 1.419 . S
C1666 C1667 1.363 . S
C1666 H1669 0.929 . S
C1667 C1666 1.363 . S
C1667 C1673 1.428 . S
H1668 C1664 0.930 . S
H1669 C1666 0.929 . S
S1670 N1671 1.613 . S
S1670 N1672 1.610 . S
N1671 S1670 1.613 . S
N1671 C1674 1.350 . S
N1672 S1670 1.610 . S
N1672 C1673 1.351 . S
C1673 C1667 1.428 . S
C1673 N1672 1.351 . S
C1673 C1674 1.434 . S
C1674 C1665 1.429 . S
C1674 N1671 1.350 . S
C1674 C1673 1.434 . S
C1675 C1676 1.369 . S
C1675 C1677 1.419 . S
C1675 H1679 0.930 . S
C1676 C1675 1.369 . S
C1676 C1685 1.429 . S
C1677 C1675 1.419 . S
C1677 C1678 1.363 . S
C1677 H1680 0.929 . S
C1678 C1677 1.363 . S
C1678 C1684 1.428 . S
H1679 C1675 0.930 . S
H1680 C1677 0.929 . S
S1681 N1682 1.613 . S
S1681 N1683 1.610 . S
N1682 S1681 1.613 . S
N1682 C1685 1.350 . S
N1683 S1681 1.610 . S
N1683 C1684 1.351 . S
C1684 C1678 1.428 . S
C1684 N1683 1.351 . S
C1684 C1685 1.434 . S
C1685 C1676 1.429 . S
C1685 N1682 1.350 . S
C1685 C1684 1.434 . S
C1686 C1687 1.369 . S
C1686 C1688 1.419 . S
C1686 H1690 0.930 . S
C1687 C1686 1.369 . S
C1687 C1696 1.429 . S
C1688 C1686 1.419 . S
C1688 C1689 1.363 . S
C1688 H1691 0.929 . S
C1689 C1688 1.363 . S
C1689 C1695 1.428 . S
H1690 C1686 0.930 . S
H1691 C1688 0.929 . S
S1692 N1693 1.613 . S
S1692 N1694 1.610 . S
N1693 S1692 1.613 . S
N1693 C1696 1.350 . S
N1694 S1692 1.610 . S
N1694 C1695 1.351 . S
C1695 C1689 1.428 . S
C1695 N1694 1.351 . S
C1695 C1696 1.434 . S
C1696 C1687 1.429 . S
C1696 N1693 1.350 . S
C1696 C1695 1.434 . S
C1697 C1698 1.369 . S
C1697 C1699 1.419 . S
C1697 H1701 0.930 . S
C1698 C1697 1.369 . S
C1698 C1707 1.429 . S
C1699 C1697 1.419 . S
C1699 C1700 1.363 . S
C1699 H1702 0.929 . S
C1700 C1699 1.363 . S
C1700 C1706 1.428 . S
H1701 C1697 0.930 . S
H1702 C1699 0.929 . S
S1703 N1704 1.613 . S
S1703 N1705 1.610 . S
N1704 S1703 1.613 . S
N1704 C1707 1.350 . S
N1705 S1703 1.610 . S
N1705 C1706 1.351 . S
C1706 C1700 1.428 . S
C1706 N1705 1.351 . S
C1706 C1707 1.434 . S
C1707 C1698 1.429 . S
C1707 N1704 1.350 . S
C1707 C1706 1.434 . S
C1708 C1709 1.369 . S
C1708 C1710 1.419 . S
C1708 H1712 0.930 . S
C1709 C1708 1.369 . S
C1709 C1718 1.429 . S
C1710 C1708 1.419 . S
C1710 C1711 1.363 . S
C1710 H1713 0.929 . S
C1711 C1710 1.363 . S
C1711 C1717 1.428 . S
H1712 C1708 0.930 . S
H1713 C1710 0.929 . S
S1714 N1715 1.613 . S
S1714 N1716 1.610 . S
N1715 S1714 1.613 . S
N1715 C1718 1.350 . S
N1716 S1714 1.610 . S
N1716 C1717 1.351 . S
C1717 C1711 1.428 . S
C1717 N1716 1.351 . S
C1717 C1718 1.434 . S
C1718 C1709 1.429 . S
C1718 N1715 1.350 . S
C1718 C1717 1.434 . S
C1719 C1720 1.369 . S
C1719 C1721 1.419 . S
C1719 H1723 0.930 . S
C1720 C1719 1.369 . S
C1720 C1729 1.429 . S
C1721 C1719 1.419 . S
C1721 C1722 1.363 . S
C1721 H1724 0.929 . S
C1722 C1721 1.363 . S
C1722 C1728 1.428 . S
H1723 C1719 0.930 . S
H1724 C1721 0.929 . S
S1725 N1726 1.613 . S
S1725 N1727 1.610 . S
N1726 S1725 1.613 . S
N1726 C1729 1.350 1_556 S
N1727 S1725 1.610 . S
N1727 C1728 1.351 1_556 S
C1728 C1722 1.428 . S
C1728 N1727 1.351 1_554 S
C1728 C1729 1.434 . S
C1729 C1720 1.429 . S
C1729 N1726 1.350 1_554 S
C1729 C1728 1.434 . S
C1730 C1731 1.369 . S
C1730 C1732 1.419 . S
C1730 H1734 0.930 . S
C1731 C1730 1.369 . S
C1731 C1740 1.429 . S
C1732 C1730 1.419 . S
C1732 C1733 1.363 . S
C1732 H1735 0.929 . S
C1733 C1732 1.363 . S
C1733 C1739 1.428 . S
H1734 C1730 0.930 . S
H1735 C1732 0.929 . S
S1736 N1737 1.613 . S
S1736 N1738 1.610 . S
N1737 S1736 1.613 . S
N1737 C1740 1.350 . S
N1738 S1736 1.610 . S
N1738 C1739 1.351 . S
C1739 C1733 1.428 . S
C1739 N1738 1.351 . S
C1739 C1740 1.434 . S
C1740 C1731 1.429 . S
C1740 N1737 1.350 . S
C1740 C1739 1.434 . S
C1741 C1742 1.369 . S
C1741 C1743 1.419 . S
C1741 H1745 0.930 . S
C1742 C1741 1.369 . S
C1742 C1751 1.429 . S
C1743 C1741 1.419 . S
C1743 C1744 1.363 . S
C1743 H1746 0.929 . S
C1744 C1743 1.363 . S
C1744 C1750 1.428 . S
H1745 C1741 0.930 . S
H1746 C1743 0.929 . S
S1747 N1748 1.613 . S
S1747 N1749 1.610 . S
N1748 S1747 1.613 . S
N1748 C1751 1.350 1_556 S
N1749 S1747 1.610 . S
N1749 C1750 1.351 1_556 S
C1750 C1744 1.428 . S
C1750 N1749 1.351 1_554 S
C1750 C1751 1.434 . S
C1751 C1742 1.429 . S
C1751 N1748 1.350 1_554 S
C1751 C1750 1.434 . S
C1752 C1753 1.369 . S
C1752 C1754 1.419 . S
C1752 H1756 0.930 . S
C1753 C1752 1.369 . S
C1753 C1762 1.429 . S
C1754 C1752 1.419 . S
C1754 C1755 1.363 . S
C1754 H1757 0.929 . S
C1755 C1754 1.363 . S
C1755 C1761 1.428 . S
H1756 C1752 0.930 . S
H1757 C1754 0.929 . S
S1758 N1759 1.616 . S
S1758 N1760 1.610 . S
N1759 S1758 1.616 . S
N1759 C1762 1.346 1_554 S
N1760 S1758 1.610 . S
N1760 C1761 1.351 1_554 S
C1761 C1755 1.428 . S
C1761 N1760 1.351 1_556 S
C1761 C1762 1.434 . S
C1762 C1753 1.429 . S
C1762 N1759 1.346 1_556 S
C1762 C1761 1.434 . S
C1763 C1764 1.369 . S
C1763 C1765 1.419 . S
C1763 H1767 0.930 1_556 S
C1764 C1763 1.369 . S
C1764 C1773 1.429 . S
C1765 C1763 1.419 . S
C1765 C1766 1.363 . S
C1765 H1768 0.929 1_556 S
C1766 C1765 1.363 . S
C1766 C1772 1.428 . S
H1767 C1763 0.930 1_554 S
H1768 C1765 0.929 1_554 S
S1769 N1770 1.613 . S
S1769 N1771 1.610 . S
N1770 S1769 1.613 . S
N1770 C1773 1.350 . S
N1771 S1769 1.610 . S
N1771 C1772 1.351 . S
C1772 C1766 1.428 . S
C1772 N1771 1.351 . S
C1772 C1773 1.434 . S
C1773 C1764 1.429 . S
C1773 N1770 1.350 . S
C1773 C1772 1.434 . S
C1774 C1775 1.369 . S
C1774 C1776 1.419 . S
C1774 H1778 0.930 . S
C1775 C1774 1.369 . S
C1775 C1784 1.429 . S
C1776 C1774 1.419 . S
C1776 C1777 1.363 . S
C1776 H1779 0.929 . S
C1777 C1776 1.363 . S
C1777 C1783 1.428 . S
H1778 C1774 0.930 . S
H1779 C1776 0.929 . S
S1780 N1781 1.613 . S
S1780 N1782 1.610 . S
N1781 S1780 1.613 . S
N1781 C1784 1.350 . S
N1782 S1780 1.610 . S
N1782 C1783 1.351 . S
C1783 C1777 1.428 . S
C1783 N1782 1.351 . S
C1783 C1784 1.434 . S
C1784 C1775 1.429 . S
C1784 N1781 1.350 . S
C1784 C1783 1.434 . S
C1785 C1786 1.369 . S
C1785 C1787 1.419 . S
C1785 H1789 0.930 . S
C1786 C1785 1.369 . S
C1786 C1795 1.429 . S
C1787 C1785 1.419 . S
C1787 C1788 1.363 . S
C1787 H1790 0.929 . S
C1788 C1787 1.363 . S
C1788 C1794 1.428 . S
H1789 C1785 0.930 . S
H1790 C1787 0.929 . S
S1791 N1792 1.613 . S
S1791 N1793 1.610 . S
N1792 S1791 1.613 . S
N1792 C1795 1.350 . S
N1793 S1791 1.610 . S
N1793 C1794 1.351 . S
C1794 C1788 1.428 . S
C1794 N1793 1.351 . S
C1794 C1795 1.434 . S
C1795 C1786 1.429 . S
C1795 N1792 1.350 . S
C1795 C1794 1.434 . S
C1796 C1797 1.369 . S
C1796 C1798 1.419 . S
C1796 H1800 0.930 . S
C1797 C1796 1.369 . S
C1797 C1806 1.429 . S
C1798 C1796 1.419 . S
C1798 C1799 1.363 . S
C1798 H1801 0.929 . S
C1799 C1798 1.363 . S
C1799 C1805 1.428 . S
H1800 C1796 0.930 . S
H1801 C1798 0.929 . S
S1802 N1803 1.613 . S
S1802 N1804 1.610 . S
N1803 S1802 1.613 . S
N1803 C1806 1.350 . S
N1804 S1802 1.610 . S
N1804 C1805 1.351 . S
C1805 C1799 1.428 . S
C1805 N1804 1.351 . S
C1805 C1806 1.434 . S
C1806 C1797 1.429 . S
C1806 N1803 1.350 . S
C1806 C1805 1.434 . S
C1807 C1808 1.369 . S
C1807 C1809 1.419 . S
C1807 H1811 0.930 . S
C1808 C1807 1.369 . S
C1808 C1817 1.429 . S
C1809 C1807 1.419 . S
C1809 C1810 1.363 . S
C1809 H1812 0.929 . S
C1810 C1809 1.363 . S
C1810 C1816 1.428 . S
H1811 C1807 0.930 . S
H1812 C1809 0.929 . S
S1813 N1814 1.613 . S
S1813 N1815 1.610 . S
N1814 S1813 1.613 . S
N1814 C1817 1.350 . S
N1815 S1813 1.610 . S
N1815 C1816 1.351 . S
C1816 C1810 1.428 . S
C1816 N1815 1.351 . S
C1816 C1817 1.434 . S
C1817 C1808 1.429 . S
C1817 N1814 1.350 . S
C1817 C1816 1.434 . S
C1818 C1819 1.369 . S
C1818 C1820 1.419 . S
C1818 H1822 0.930 . S
C1819 C1818 1.369 . S
C1819 C1828 1.429 . S
C1820 C1818 1.419 . S
C1820 C1821 1.363 . S
C1820 H1823 0.929 . S
C1821 C1820 1.363 . S
C1821 C1827 1.428 . S
H1822 C1818 0.930 . S
H1823 C1820 0.929 . S
S1824 N1825 1.613 . S
S1824 N1826 1.610 . S
N1825 S1824 1.613 . S
N1825 C1828 1.350 . S
N1826 S1824 1.610 . S
N1826 C1827 1.351 . S
C1827 C1821 1.428 . S
C1827 N1826 1.351 . S
C1827 C1828 1.434 . S
C1828 C1819 1.429 . S
C1828 N1825 1.350 . S
C1828 C1827 1.434 . S
C1829 C1830 1.369 . S
C1829 C1831 1.419 . S
C1829 H1833 0.930 . S
C1830 C1829 1.369 . S
C1830 C1839 1.429 . S
C1831 C1829 1.419 . S
C1831 C1832 1.363 . S
C1831 H1834 0.929 . S
C1832 C1831 1.363 . S
C1832 C1838 1.428 . S
H1833 C1829 0.930 . S
H1834 C1831 0.929 . S
S1835 N1836 1.613 . S
S1835 N1837 1.610 . S
N1836 S1835 1.613 . S
N1836 C1839 1.350 . S
N1837 S1835 1.610 . S
N1837 C1838 1.351 . S
C1838 C1832 1.428 . S
C1838 N1837 1.351 . S
C1838 C1839 1.434 . S
C1839 C1830 1.429 . S
C1839 N1836 1.350 . S
C1839 C1838 1.434 . S
C1840 C1841 1.369 . S
C1840 C1842 1.419 . S
C1840 H1844 0.930 . S
C1841 C1840 1.369 . S
C1841 C1850 1.429 . S
C1842 C1840 1.419 . S
C1842 C1843 1.363 . S
C1842 H1845 0.929 . S
C1843 C1842 1.363 . S
C1843 C1849 1.428 . S
H1844 C1840 0.930 . S
H1845 C1842 0.929 . S
S1846 N1847 1.613 . S
S1846 N1848 1.610 . S
N1847 S1846 1.613 . S
N1847 C1850 1.350 . S
N1848 S1846 1.610 . S
N1848 C1849 1.351 . S
C1849 C1843 1.428 . S
C1849 N1848 1.351 . S
C1849 C1850 1.434 . S
C1850 C1841 1.429 . S
C1850 N1847 1.350 . S
C1850 C1849 1.434 . S
C1851 C1852 1.369 . S
C1851 C1853 1.419 . S
C1851 H1855 0.930 . S
C1852 C1851 1.369 . S
C1852 C1861 1.429 . S
C1853 C1851 1.419 . S
C1853 C1854 1.363 . S
C1853 H1856 0.929 . S
C1854 C1853 1.363 . S
C1854 C1860 1.428 . S
H1855 C1851 0.930 . S
H1856 C1853 0.929 . S
S1857 N1858 1.613 . S
S1857 N1859 1.610 . S
N1858 S1857 1.613 . S
N1858 C1861 1.350 . S
N1859 S1857 1.610 . S
N1859 C1860 1.351 . S
C1860 C1854 1.428 . S
C1860 N1859 1.351 . S
C1860 C1861 1.434 . S
C1861 C1852 1.429 . S
C1861 N1858 1.350 . S
C1861 C1860 1.434 . S
C1862 C1863 1.369 . S
C1862 C1864 1.419 . S
C1862 H1866 0.930 . S
C1863 C1862 1.369 . S
C1863 C1872 1.429 . S
C1864 C1862 1.419 . S
C1864 C1865 1.363 . S
C1864 H1867 0.929 . S
C1865 C1864 1.363 . S
C1865 C1871 1.428 . S
H1866 C1862 0.930 . S
H1867 C1864 0.929 . S
S1868 N1869 1.613 . S
S1868 N1870 1.610 . S
N1869 S1868 1.613 . S
N1869 C1872 1.350 . S
N1870 S1868 1.610 . S
N1870 C1871 1.351 . S
C1871 C1865 1.428 . S
C1871 N1870 1.351 . S
C1871 C1872 1.434 . S
C1872 C1863 1.429 . S
C1872 N1869 1.350 . S
C1872 C1871 1.434 . S
C1873 C1874 1.369 . S
C1873 C1875 1.419 . S
C1873 H1877 0.930 . S
C1874 C1873 1.369 . S
C1874 C1883 1.429 . S
C1875 C1873 1.419 . S
C1875 C1876 1.363 . S
C1875 H1878 0.929 . S
C1876 C1875 1.363 . S
C1876 C1882 1.428 . S
H1877 C1873 0.930 . S
H1878 C1875 0.929 . S
S1879 N1880 1.613 . S
S1879 N1881 1.610 . S
N1880 S1879 1.613 . S
N1880 C1883 1.350 . S
N1881 S1879 1.610 . S
N1881 C1882 1.351 . S
C1882 C1876 1.428 . S
C1882 N1881 1.351 . S
C1882 C1883 1.434 . S
C1883 C1874 1.429 . S
C1883 N1880 1.350 . S
C1883 C1882 1.434 . S
C1884 C1885 1.369 . S
C1884 C1886 1.419 . S
C1884 H1888 0.930 . S
C1885 C1884 1.369 . S
C1885 C1894 1.429 . S
C1886 C1884 1.419 . S
C1886 C1887 1.363 . S
C1886 H1889 0.929 . S
C1887 C1886 1.363 . S
C1887 C1893 1.428 . S
H1888 C1884 0.930 . S
H1889 C1886 0.929 . S
S1890 N1891 1.613 . S
S1890 N1892 1.610 . S
N1891 S1890 1.613 . S
N1891 C1894 1.350 . S
N1892 S1890 1.610 . S
N1892 C1893 1.351 . S
C1893 C1887 1.428 . S
C1893 N1892 1.351 . S
C1893 C1894 1.434 . S
C1894 C1885 1.429 . S
C1894 N1891 1.350 . S
C1894 C1893 1.434 . S
C1895 C1896 1.369 . S
C1895 C1897 1.419 . S
C1895 H1899 0.930 . S
C1896 C1895 1.369 . S
C1896 C1905 1.429 . S
C1897 C1895 1.419 . S
C1897 C1898 1.363 . S
C1897 H1900 0.929 . S
C1898 C1897 1.363 . S
C1898 C1904 1.428 . S
H1899 C1895 0.930 . S
H1900 C1897 0.929 . S
S1901 N1902 1.613 . S
S1901 N1903 1.610 . S
N1902 S1901 1.613 . S
N1902 C1905 1.350 . S
N1903 S1901 1.610 . S
N1903 C1904 1.351 . S
C1904 C1898 1.428 . S
C1904 N1903 1.351 . S
C1904 C1905 1.434 . S
C1905 C1896 1.429 . S
C1905 N1902 1.350 . S
C1905 C1904 1.434 . S
C1906 C1907 1.369 . S
C1906 C1908 1.419 . S
C1906 H1910 0.930 . S
C1907 C1906 1.369 . S
C1907 C1916 1.429 . S
C1908 C1906 1.419 . S
C1908 C1909 1.363 . S
C1908 H1911 0.929 . S
C1909 C1908 1.363 . S
C1909 C1915 1.428 . S
H1910 C1906 0.930 . S
H1911 C1908 0.929 . S
S1912 N1913 1.613 . S
S1912 N1914 1.610 . S
N1913 S1912 1.613 . S
N1913 C1916 1.350 . S
N1914 S1912 1.610 . S
N1914 C1915 1.351 . S
C1915 C1909 1.428 . S
C1915 N1914 1.351 . S
C1915 C1916 1.434 . S
C1916 C1907 1.429 . S
C1916 N1913 1.350 . S
C1916 C1915 1.434 . S
C1917 C1918 1.369 . S
C1917 C1919 1.419 . S
C1917 H1921 0.930 . S
C1918 C1917 1.369 . S
C1918 C1927 1.429 . S
C1919 C1917 1.419 . S
C1919 C1920 1.363 . S
C1919 H1922 0.929 . S
C1920 C1919 1.363 . S
C1920 C1926 1.428 . S
H1921 C1917 0.930 . S
H1922 C1919 0.929 . S
S1923 N1924 1.613 . S
S1923 N1925 1.610 . S
N1924 S1923 1.613 . S
N1924 C1927 1.350 . S
N1925 S1923 1.610 . S
N1925 C1926 1.351 . S
C1926 C1920 1.428 . S
C1926 N1925 1.351 . S
C1926 C1927 1.434 . S
C1927 C1918 1.429 . S
C1927 N1924 1.350 . S
C1927 C1926 1.434 . S
C1928 C1929 1.369 . S
C1928 C1930 1.419 . S
C1928 H1932 0.930 . S
C1929 C1928 1.369 . S
C1929 C1938 1.429 . S
C1930 C1928 1.419 . S
C1930 C1931 1.363 . S
C1930 H1933 0.929 . S
C1931 C1930 1.363 . S
C1931 C1937 1.428 . S
H1932 C1928 0.930 . S
H1933 C1930 0.929 . S
S1934 N1935 1.613 . S
S1934 N1936 1.610 . S
N1935 S1934 1.613 . S
N1935 C1938 1.350 . S
N1936 S1934 1.610 . S
N1936 C1937 1.351 . S
C1937 C1931 1.428 . S
C1937 N1936 1.351 . S
C1937 C1938 1.434 . S
C1938 C1929 1.429 . S
C1938 N1935 1.350 . S
C1938 C1937 1.434 . S
C1939 C1940 1.369 . S
C1939 C1941 1.419 . S
C1939 H1943 0.930 . S
C1940 C1939 1.369 . S
C1940 C1949 1.429 . S
C1941 C1939 1.419 . S
C1941 C1942 1.363 . S
C1941 H1944 0.929 . S
C1942 C1941 1.363 . S
C1942 C1948 1.428 . S
H1943 C1939 0.930 . S
H1944 C1941 0.929 . S
S1945 N1946 1.613 . S
S1945 N1947 1.610 . S
N1946 S1945 1.613 . S
N1946 C1949 1.350 . S
N1947 S1945 1.610 . S
N1947 C1948 1.351 . S
C1948 C1942 1.428 . S
C1948 N1947 1.351 . S
C1948 C1949 1.434 . S
C1949 C1940 1.429 . S
C1949 N1946 1.350 . S
C1949 C1948 1.434 . S
C1950 C1951 1.369 . S
C1950 C1952 1.419 1_556 S
C1950 H1954 0.930 . S
C1951 C1950 1.369 . S
C1951 C1960 1.429 . S
C1952 C1950 1.419 1_554 S
C1952 C1953 1.363 . S
C1952 H1955 0.929 . S
C1953 C1952 1.363 . S
C1953 C1959 1.428 . S
H1954 C1950 0.930 . S
H1955 C1952 0.929 . S
S1956 N1957 1.613 1_554 S
S1956 N1958 1.610 . S
N1957 S1956 1.613 1_556 S
N1957 C1960 1.350 . S
N1958 S1956 1.610 . S
N1958 C1959 1.351 . S
C1959 C1953 1.428 . S
C1959 N1958 1.351 . S
C1959 C1960 1.434 1_554 S
C1960 C1951 1.429 . S
C1960 N1957 1.350 . S
C1960 C1959 1.434 1_556 S
C1961 C1962 1.369 . S
C1961 C1963 1.419 1_556 S
C1961 H1965 0.930 . S
C1962 C1961 1.369 . S
C1962 C1971 1.429 . S
C1963 C1961 1.419 1_554 S
C1963 C1964 1.363 . S
C1963 H1966 0.929 . S
C1964 C1963 1.363 . S
C1964 C1970 1.428 . S
H1965 C1961 0.930 . S
H1966 C1963 0.929 . S
S1967 N1968 1.613 1_554 S
S1967 N1969 1.610 . S
N1968 S1967 1.613 1_556 S
N1968 C1971 1.350 . S
N1969 S1967 1.610 . S
N1969 C1970 1.351 . S
C1970 C1964 1.428 . S
C1970 N1969 1.351 . S
C1970 C1971 1.434 1_554 S
C1971 C1962 1.429 . S
C1971 N1968 1.350 . S
C1971 C1970 1.434 1_556 S
C1972 C1973 1.369 . S
C1972 C1974 1.419 1_556 S
C1972 H1976 0.930 . S
C1973 C1972 1.369 . S
C1973 C1982 1.429 . S
C1974 C1972 1.419 1_554 S
C1974 C1975 1.363 . S
C1974 H1977 0.929 . S
C1975 C1974 1.363 . S
C1975 C1981 1.428 . S
H1976 C1972 0.930 . S
H1977 C1974 0.929 . S
S1978 N1979 1.613 . S
S1978 N1980 1.610 1_556 S
N1979 S1978 1.613 . S
N1979 C1982 1.350 . S
N1980 S1978 1.610 1_554 S
N1980 C1981 1.351 . S
C1981 C1975 1.428 . S
C1981 N1980 1.351 . S
C1981 C1982 1.434 1_554 S
C1982 C1973 1.429 . S
C1982 N1979 1.350 . S
C1982 C1981 1.434 1_556 S
C1983 C1984 1.369 . S
C1983 C1985 1.419 . S
C1983 H1987 0.930 . S
C1984 C1983 1.369 . S
C1984 C1993 1.429 . S
C1985 C1983 1.419 . S
C1985 C1986 1.363 . S
C1985 H1988 0.929 . S
C1986 C1985 1.363 . S
C1986 C1992 1.428 . S
H1987 C1983 0.930 . S
H1988 C1985 0.929 . S
S1989 N1990 1.613 . S
S1989 N1991 1.610 . S
N1990 S1989 1.613 . S
N1990 C1993 1.350 . S
N1991 S1989 1.610 . S
N1991 C1992 1.351 . S
C1992 C1986 1.428 . S
C1992 N1991 1.351 . S
C1992 C1993 1.434 . S
C1993 C1984 1.429 . S
C1993 N1990 1.350 . S
C1993 C1992 1.434 . S
C1994 C1995 1.369 . S
C1994 C1996 1.419 . S
C1994 H1998 0.930 . S
C1995 C1994 1.369 . S
C1995 C2004 1.429 . S
C1996 C1994 1.419 . S
C1996 C1997 1.363 . S
C1996 H1999 0.929 . S
C1997 C1996 1.363 . S
C1997 C2003 1.428 . S
H1998 C1994 0.930 . S
H1999 C1996 0.929 . S
S2000 N2001 1.613 . S
S2000 N2002 1.610 . S
N2001 S2000 1.613 . S
N2001 C2004 1.350 . S
N2002 S2000 1.610 . S
N2002 C2003 1.351 . S
C2003 C1997 1.428 . S
C2003 N2002 1.351 . S
C2003 C2004 1.434 . S
C2004 C1995 1.429 . S
C2004 N2001 1.350 . S
C2004 C2003 1.434 . S
C2005 C2006 1.369 . S
C2005 C2007 1.419 . S
C2005 H2009 0.930 . S
C2006 C2005 1.369 . S
C2006 C2015 1.429 . S
C2007 C2005 1.419 . S
C2007 C2008 1.363 . S
C2007 H2010 0.929 . S
C2008 C2007 1.363 . S
C2008 C2014 1.428 . S
H2009 C2005 0.930 . S
H2010 C2007 0.929 . S
S2011 N2012 1.613 . S
S2011 N2013 1.610 . S
N2012 S2011 1.613 . S
N2012 C2015 1.350 . S
N2013 S2011 1.610 . S
N2013 C2014 1.351 . S
C2014 C2008 1.428 . S
C2014 N2013 1.351 . S
C2014 C2015 1.434 . S
C2015 C2006 1.429 . S
C2015 N2012 1.350 . S
C2015 C2014 1.434 . S
C2016 C2017 1.369 . S
C2016 C2018 1.419 . S
C2016 H2020 0.930 . S
C2017 C2016 1.369 . S
C2017 C2026 1.429 . S
C2018 C2016 1.419 . S
C2018 C2019 1.363 . S
C2018 H2021 0.929 . S
C2019 C2018 1.363 . S
C2019 C2025 1.428 . S
H2020 C2016 0.930 . S
H2021 C2018 0.929 . S
S2022 N2023 1.613 . S
S2022 N2024 1.610 . S
N2023 S2022 1.613 . S
N2023 C2026 1.350 . S
N2024 S2022 1.610 . S
N2024 C2025 1.351 . S
C2025 C2019 1.428 . S
C2025 N2024 1.351 . S
C2025 C2026 1.434 . S
C2026 C2017 1.429 . S
C2026 N2023 1.350 . S
C2026 C2025 1.434 . S
C2027 C2028 1.369 . S
C2027 C2029 1.419 . S
C2027 H2031 0.930 . S
C2028 C2027 1.369 . S
C2028 C2037 1.429 . S
C2029 C2027 1.419 . S
C2029 C2030 1.363 . S
C2029 H2032 0.929 . S
C2030 C2029 1.363 . S
C2030 C2036 1.428 . S
H2031 C2027 0.930 . S
H2032 C2029 0.929 . S
S2033 N2034 1.613 . S
S2033 N2035 1.610 . S
N2034 S2033 1.613 . S
N2034 C2037 1.350 . S
N2035 S2033 1.610 . S
N2035 C2036 1.351 . S
C2036 C2030 1.428 . S
C2036 N2035 1.351 . S
C2036 C2037 1.434 . S
C2037 C2028 1.429 . S
C2037 N2034 1.350 . S
C2037 C2036 1.434 . S
C2038 C2039 1.369 . S
C2038 C2040 1.419 . S
C2038 H2042 0.930 . S
C2039 C2038 1.369 . S
C2039 C2048 1.429 . S
C2040 C2038 1.419 . S
C2040 C2041 1.363 . S
C2040 H2043 0.929 . S
C2041 C2040 1.363 . S
C2041 C2047 1.428 . S
H2042 C2038 0.930 . S
H2043 C2040 0.929 . S
S2044 N2045 1.613 . S
S2044 N2046 1.610 . S
N2045 S2044 1.613 . S
N2045 C2048 1.350 . S
N2046 S2044 1.610 . S
N2046 C2047 1.351 . S
C2047 C2041 1.428 . S
C2047 N2046 1.351 . S
C2047 C2048 1.434 . S
C2048 C2039 1.429 . S
C2048 N2045 1.350 . S
C2048 C2047 1.434 . S
C2049 C2050 1.369 . S
C2049 C2051 1.419 1_554 S
C2049 H2053 0.930 . S
C2050 C2049 1.369 . S
C2050 C2059 1.429 . S
C2051 C2049 1.419 1_556 S
C2051 C2052 1.363 . S
C2051 H2054 0.929 . S
C2052 C2051 1.363 . S
C2052 C2058 1.428 . S
H2053 C2049 0.930 . S
H2054 C2051 0.929 . S
S2055 N2056 1.613 . S
S2055 N2057 1.610 1_554 S
N2056 S2055 1.613 . S
N2056 C2059 1.350 . S
N2057 S2055 1.610 1_556 S
N2057 C2058 1.351 . S
C2058 C2052 1.428 . S
C2058 N2057 1.351 . S
C2058 C2059 1.434 1_556 S
C2059 C2050 1.429 . S
C2059 N2056 1.350 . S
C2059 C2058 1.434 1_554 S
C2060 C2061 1.369 . S
C2060 C2062 1.419 1_556 S
C2060 H2064 0.930 . S
C2061 C2060 1.369 . S
C2061 C2070 1.429 . S
C2062 C2060 1.419 1_554 S
C2062 C2063 1.363 . S
C2062 H2065 0.929 . S
C2063 C2062 1.363 . S
C2063 C2069 1.428 . S
H2064 C2060 0.930 . S
H2065 C2062 0.929 . S
S2066 N2067 1.613 . S
S2066 N2068 1.610 1_556 S
N2067 S2066 1.613 . S
N2067 C2070 1.350 . S
N2068 S2066 1.610 1_554 S
N2068 C2069 1.351 . S
C2069 C2063 1.428 . S
C2069 N2068 1.351 . S
C2069 C2070 1.434 1_554 S
C2070 C2061 1.429 . S
C2070 N2067 1.350 . S
C2070 C2069 1.434 1_556 S
C2071 C2072 1.369 . S
C2071 C2073 1.419 1_556 S
C2071 H2075 0.930 . S
C2072 C2071 1.369 . S
C2072 C2081 1.429 . S
C2073 C2071 1.419 1_554 S
C2073 C2074 1.363 . S
C2073 H2076 0.929 . S
C2074 C2073 1.363 . S
C2074 C2080 1.428 . S
H2075 C2071 0.930 . S
H2076 C2073 0.929 . S
S2077 N2078 1.613 . S
S2077 N2079 1.610 1_556 S
N2078 S2077 1.613 . S
N2078 C2081 1.350 . S
N2079 S2077 1.610 1_554 S
N2079 C2080 1.351 . S
C2080 C2074 1.428 . S
C2080 N2079 1.351 . S
C2080 C2081 1.434 1_554 S
C2081 C2072 1.429 . S
C2081 N2078 1.350 . S
C2081 C2080 1.434 1_556 S
C2082 C2083 1.369 . S
C2082 C2084 1.419 . S
C2082 H2086 0.930 . S
C2083 C2082 1.369 . S
C2083 C2092 1.429 . S
C2084 C2082 1.419 . S
C2084 C2085 1.363 . S
C2084 H2087 0.929 . S
C2085 C2084 1.363 . S
C2085 C2091 1.428 . S
H2086 C2082 0.930 . S
H2087 C2084 0.929 . S
S2088 N2089 1.613 . S
S2088 N2090 1.610 . S
N2089 S2088 1.613 . S
N2089 C2092 1.350 . S
N2090 S2088 1.610 . S
N2090 C2091 1.351 . S
C2091 C2085 1.428 . S
C2091 N2090 1.351 . S
C2091 C2092 1.434 . S
C2092 C2083 1.429 . S
C2092 N2089 1.350 . S
C2092 C2091 1.434 . S
C2093 C2094 1.369 . S
C2093 C2095 1.419 . S
C2093 H2097 0.930 . S
C2094 C2093 1.369 . S
C2094 C2103 1.429 . S
C2095 C2093 1.419 . S
C2095 C2096 1.363 . S
C2095 H2098 0.929 . S
C2096 C2095 1.363 . S
C2096 C2102 1.428 . S
H2097 C2093 0.930 . S
H2098 C2095 0.929 . S
S2099 N2100 1.613 . S
S2099 N2101 1.610 . S
N2100 S2099 1.613 . S
N2100 C2103 1.350 . S
N2101 S2099 1.610 . S
N2101 C2102 1.351 . S
C2102 C2096 1.428 . S
C2102 N2101 1.351 . S
C2102 C2103 1.434 . S
C2103 C2094 1.429 . S
C2103 N2100 1.350 . S
C2103 C2102 1.434 . S
C2104 C2105 1.369 . S
C2104 C2106 1.419 . S
C2104 H2108 0.930 . S
C2105 C2104 1.369 . S
C2105 C2114 1.429 . S
C2106 C2104 1.419 . S
C2106 C2107 1.363 . S
C2106 H2109 0.929 . S
C2107 C2106 1.363 . S
C2107 C2113 1.428 . S
H2108 C2104 0.930 . S
H2109 C2106 0.929 . S
S2110 N2111 1.613 . S
S2110 N2112 1.610 . S
N2111 S2110 1.613 . S
N2111 C2114 1.350 . S
N2112 S2110 1.610 . S
N2112 C2113 1.351 . S
C2113 C2107 1.428 . S
C2113 N2112 1.351 . S
C2113 C2114 1.434 . S
C2114 C2105 1.429 . S
C2114 N2111 1.350 . S
C2114 C2113 1.434 . S
C2115 C2116 1.369 . S
C2115 C2117 1.419 1_554 S
C2115 H2119 0.930 . S
C2116 C2115 1.369 . S
C2116 C2125 1.429 . S
C2117 C2115 1.419 1_556 S
C2117 C2118 1.363 . S
C2117 H2120 0.929 . S
C2118 C2117 1.363 . S
C2118 C2124 1.428 . S
H2119 C2115 0.930 . S
H2120 C2117 0.929 . S
S2121 N2122 1.613 . S
S2121 N2123 1.610 1_554 S
N2122 S2121 1.613 . S
N2122 C2125 1.350 . S
N2123 S2121 1.610 1_556 S
N2123 C2124 1.351 . S
C2124 C2118 1.428 . S
C2124 N2123 1.351 . S
C2124 C2125 1.434 1_556 S
C2125 C2116 1.429 . S
C2125 N2122 1.350 . S
C2125 C2124 1.434 1_554 S
C2126 C2127 1.369 . S
C2126 C2128 1.419 1_556 S
C2126 H2130 0.930 . S
C2127 C2126 1.369 . S
C2127 C2136 1.429 . S
C2128 C2126 1.419 1_554 S
C2128 C2129 1.363 . S
C2128 H2131 0.929 . S
C2129 C2128 1.363 . S
C2129 C2135 1.428 . S
H2130 C2126 0.930 . S
H2131 C2128 0.929 . S
S2132 N2133 1.613 . S
S2132 N2134 1.610 1_556 S
N2133 S2132 1.613 . S
N2133 C2136 1.350 . S
N2134 S2132 1.610 1_554 S
N2134 C2135 1.351 . S
C2135 C2129 1.428 . S
C2135 N2134 1.351 . S
C2135 C2136 1.434 1_554 S
C2136 C2127 1.429 . S
C2136 N2133 1.350 . S
C2136 C2135 1.434 1_556 S
C2137 C2138 1.369 . S
C2137 C2139 1.419 1_554 S
C2137 H2141 0.930 . S
C2138 C2137 1.369 . S
C2138 C2147 1.429 . S
C2139 C2137 1.419 1_556 S
C2139 C2140 1.363 . S
C2139 H2142 0.929 . S
C2140 C2139 1.363 . S
C2140 C2146 1.428 . S
H2141 C2137 0.930 . S
H2142 C2139 0.929 . S
S2143 N2144 1.621 . S
S2143 N2145 1.601 1_554 S
N2144 S2143 1.621 . S
N2144 C2147 1.350 . S
N2145 S2143 1.601 1_556 S
N2145 C2146 1.351 . S
C2146 C2140 1.428 . S
C2146 N2145 1.351 . S
C2146 C2147 1.434 1_556 S
C2147 C2138 1.429 . S
C2147 N2144 1.350 . S
C2147 C2146 1.434 1_554 S
C2148 C2149 1.369 . S
C2148 C2150 1.419 1_556 S
C2148 H2152 0.930 . S
C2149 C2148 1.369 . S
C2149 C2158 1.429 . S
C2150 C2148 1.419 1_554 S
C2150 C2151 1.363 . S
C2150 H2153 0.929 . S
C2151 C2150 1.363 . S
C2151 C2157 1.428 . S
H2152 C2148 0.930 . S
H2153 C2150 0.929 . S
S2154 N2155 1.613 . S
S2154 N2156 1.610 1_556 S
N2155 S2154 1.613 . S
N2155 C2158 1.350 . S
N2156 S2154 1.610 1_554 S
N2156 C2157 1.351 . S
C2157 C2151 1.428 . S
C2157 N2156 1.351 . S
C2157 C2158 1.434 1_554 S
C2158 C2149 1.429 . S
C2158 N2155 1.350 . S
C2158 C2157 1.434 1_556 S
C2159 C2160 1.369 . S
C2159 C2161 1.419 1_556 S
C2159 H2163 0.930 . S
C2160 C2159 1.369 . S
C2160 C2169 1.429 . S
C2161 C2159 1.419 1_554 S
C2161 C2162 1.363 . S
C2161 H2164 0.929 . S
C2162 C2161 1.363 . S
C2162 C2168 1.428 . S
H2163 C2159 0.930 . S
H2164 C2161 0.929 . S
S2165 N2166 1.613 . S
S2165 N2167 1.610 1_556 S
N2166 S2165 1.613 . S
N2166 C2169 1.350 . S
N2167 S2165 1.610 1_554 S
N2167 C2168 1.351 . S
C2168 C2162 1.428 . S
C2168 N2167 1.351 . S
C2168 C2169 1.434 1_554 S
C2169 C2160 1.429 . S
C2169 N2166 1.350 . S
C2169 C2168 1.434 1_556 S
C2170 C2171 1.369 . S
C2170 C2172 1.419 1_556 S
C2170 H2174 0.930 . S
C2171 C2170 1.369 . S
C2171 C2180 1.429 . S
C2172 C2170 1.419 1_554 S
C2172 C2173 1.363 . S
C2172 H2175 0.929 . S
C2173 C2172 1.363 . S
C2173 C2179 1.428 . S
H2174 C2170 0.930 . S
H2175 C2172 0.929 . S
S2176 N2177 1.613 . S
S2176 N2178 1.610 1_556 S
N2177 S2176 1.613 . S
N2177 C2180 1.350 . S
N2178 S2176 1.610 1_554 S
N2178 C2179 1.351 . S
C2179 C2173 1.428 . S
C2179 N2178 1.351 . S
C2179 C2180 1.434 1_554 S
C2180 C2171 1.429 . S
C2180 N2177 1.350 . S
C2180 C2179 1.434 1_556 S
C2181 C2182 1.369 . S
C2181 C2183 1.419 . S
C2181 H2185 0.930 . S
C2182 C2181 1.369 . S
C2182 C2191 1.429 . S
C2183 C2181 1.419 . S
C2183 C2184 1.363 . S
C2183 H2186 0.929 . S
C2184 C2183 1.363 . S
C2184 C2190 1.428 . S
H2185 C2181 0.930 . S
H2186 C2183 0.929 . S
S2187 N2188 1.613 . S
S2187 N2189 1.610 . S
N2188 S2187 1.613 . S
N2188 C2191 1.350 . S
N2189 S2187 1.610 . S
N2189 C2190 1.351 . S
C2190 C2184 1.428 . S
C2190 N2189 1.351 . S
C2190 C2191 1.434 . S
C2191 C2182 1.429 . S
C2191 N2188 1.350 . S
C2191 C2190 1.434 . S
C2192 C2193 1.369 . S
C2192 C2194 1.419 . S
C2192 H2196 0.930 . S
C2193 C2192 1.369 . S
C2193 C2202 1.429 . S
C2194 C2192 1.419 . S
C2194 C2195 1.363 . S
C2194 H2197 0.929 . S
C2195 C2194 1.363 . S
C2195 C2201 1.428 . S
H2196 C2192 0.930 . S
H2197 C2194 0.929 . S
S2198 N2199 1.613 . S
S2198 N2200 1.610 . S
N2199 S2198 1.613 . S
N2199 C2202 1.350 . S
N2200 S2198 1.610 . S
N2200 C2201 1.351 . S
C2201 C2195 1.428 . S
C2201 N2200 1.351 . S
C2201 C2202 1.434 . S
C2202 C2193 1.429 . S
C2202 N2199 1.350 . S
C2202 C2201 1.434 . S
C2203 C2204 1.369 . S
C2203 C2205 1.419 . S
C2203 H2207 0.930 . S
C2204 C2203 1.369 . S
C2204 C2213 1.429 . S
C2205 C2203 1.419 . S
C2205 C2206 1.363 . S
C2205 H2208 0.929 . S
C2206 C2205 1.363 . S
C2206 C2212 1.428 . S
H2207 C2203 0.930 . S
H2208 C2205 0.929 . S
S2209 N2210 1.613 . S
S2209 N2211 1.610 . S
N2210 S2209 1.613 . S
N2210 C2213 1.350 . S
N2211 S2209 1.610 . S
N2211 C2212 1.351 . S
C2212 C2206 1.428 . S
C2212 N2211 1.351 . S
C2212 C2213 1.434 . S
C2213 C2204 1.429 . S
C2213 N2210 1.350 . S
C2213 C2212 1.434 . S
C1225 C20 1.521 . S
C1227 C530 1.524 . S
C1236 C564 1.523 . S
C1238 C54 1.523 . S
C1247 C598 1.522 . S
C1249 C88 1.525 . S
C1258 C836 1.522 . S
C1260 C122 1.521 . S
C1269 C156 1.525 . S
C1271 C870 1.522 . S
C1280 C904 1.524 . S
C1282 C190 1.524 . S
C1291 C1142 1.520 . S
C1293 C224 1.522 . S
C1302 C258 1.525 . S
C1304 C1176 1.522 . S
C1313 C1210 1.524 . S
C1315 C292 1.522 . S
C1324 C632 1.524 . S
C1326 C326 1.521 . S
C1335 C666 1.525 . S
C1337 C360 1.523 . S
C1346 C700 1.525 . S
C1348 C394 1.524 . S
C1357 C938 1.523 . S
C1359 C428 1.521 . S
C1368 C972 1.522 . S
C1370 C462 1.525 . S
C1379 C496 1.525 . S
C1381 C1006 1.522 . S
C1390 C734 1.520 . S
C1392 C1040 1.523 . S
C1401 C1074 1.523 . S
C1403 C768 1.525 . S
C1412 C802 1.522 . S
C1414 C1108 1.524 . S
C1423 C1019 1.503 . S
C1425 C33 1.506 . S
C1434 C67 1.506 . S
C1436 C951 1.503 . S
C1445 C985 1.506 . S
C1447 C101 1.504 . S
C1456 C475 1.506 . S
C1458 C135 1.503 . S
C1467 C509 1.504 . S
C1469 C169 1.505 . S
C1478 C441 1.504 . S
C1480 C203 1.504 . S
C1489 C237 1.506 . S
C1491 C815 1.503 . S
C1500 C747 1.504 . S
C1502 C271 1.504 . S
C1511 C305 1.505 . S
C1513 C781 1.504 . S
C1522 C1087 1.503 . S
C1524 C339 1.506 . S
C1533 C373 1.503 . S
C1535 C1121 1.505 . S
C1544 C407 1.506 . S
C1546 C1053 1.504 . S
C1555 C883 1.505 . S
C1557 C543 1.503 . S
C1566 C917 1.504 . S
C1568 C577 1.504 . S
C1577 C611 1.504 . S
C1579 C849 1.504 . S
C1588 C645 1.506 . S
C1590 C1223 1.503 . S
C1599 C1155 1.504 . S
C1601 C679 1.506 . S
C1610 C1189 1.503 . S
C1612 C713 1.506 . S
C1621 C2 1.490 . S
C1623 C376 1.490 . S
C1632 C36 1.489 . S
C1634 C308 1.489 . S
C1643 C70 1.489 . S
C1645 C342 1.489 . S
C1654 C104 1.491 . S
C1656 C240 1.491 . S
C1665 C274 1.489 . S
C1667 C138 1.490 . S
C1676 C206 1.491 . S
C1678 C172 1.491 . S
C1687 C784 1.490 . S
C1689 C410 1.490 . S
C1698 C716 1.491 . S
C1700 C444 1.490 . S
C1709 C478 1.491 . S
C1711 C750 1.491 . S
C1720 C648 1.489 . S
C1722 C512 1.489 . S
C1731 C682 1.490 . S
C1733 C546 1.490 . S
C1742 C614 1.490 . S
C1744 C580 1.490 . S
C1753 C1192 1.489 . S
C1755 C818 1.490 . S
C1764 C852 1.490 . S
C1766 C1124 1.490 . S
C1775 C1158 1.490 . S
C1777 C886 1.490 . S
C1786 C1056 1.491 . S
C1788 C920 1.491 . S
C1797 C1090 1.490 . S
C1799 C954 1.490 . S
C1808 C1022 1.491 . S
C1810 C988 1.491 . S
C1819 C9 1.408 . S
C1821 C5 1.444 . S
C1830 C39 1.442 . S
C1832 C43 1.403 . S
C1841 C77 1.401 . S
C1843 C73 1.443 . S
C1852 C107 1.444 . S
C1854 C111 1.404 . S
C1863 C141 1.444 . S
C1865 C145 1.408 . S
C1874 C175 1.442 . S
C1876 C179 1.403 . S
C1885 C209 1.442 . S
C1887 C213 1.403 . S
C1896 C243 1.444 . S
C1898 C247 1.404 . S
C1907 C281 1.410 . S
C1909 C277 1.443 . S
C1918 C315 1.410 . S
C1920 C311 1.443 . S
C1929 C345 1.442 . S
C1931 C349 1.408 . S
C1940 C383 1.405 . S
C1942 C379 1.442 . S
C1951 C413 1.444 . S
C1953 C417 1.408 . S
C1962 C447 1.445 . S
C1964 C451 1.406 . S
C1973 C481 1.443 . S
C1975 C485 1.402 . S
C1984 C515 1.443 . S
C1986 C519 1.402 . S
C1995 C549 1.444 . S
C1997 C553 1.403 . S
C2006 C587 1.402 . S
C2008 C583 1.442 . S
C2017 C617 1.444 . S
C2019 C621 1.408 . S
C2028 C655 1.403 . S
C2030 C651 1.442 . S
C2039 C689 1.402 . S
C2041 C685 1.442 . S
C2050 C723 1.409 . S
C2052 C719 1.444 . S
C2061 C753 1.442 . S
C2063 C757 1.402 . S
C2072 C787 1.442 . S
C2074 C791 1.404 . S
C2083 C825 1.401 . S
C2085 C821 1.443 . S
C2094 C859 1.406 . S
C2096 C855 1.442 . S
C2105 C889 1.442 . S
C2107 C893 1.404 . S
C2116 C923 1.443 . S
C2118 C927 1.402 . S
C2127 C961 1.409 . S
C2129 C957 1.444 . S
C2138 C991 1.443 . S
C2140 C995 1.402 . S
C2149 C1029 1.407 . S
C2151 C1025 1.442 . S
C2160 C1063 1.403 . S
C2162 C1059 1.444 . S
C2171 C1097 1.406 . S
C2173 C1093 1.444 . S
C2182 C1127 1.443 . S
C2184 C1131 1.402 . S
C2193 C1165 1.409 . S
C2195 C1161 1.443 . S
C2204 C1195 1.442 . S
C2206 C1199 1.403 . S
