# Generated by pormake.
# Topology fnz, (5)-cn, num edge types: 1
# Building blocks:
#     Node 0, Type 0, BuildingBlock: XOMCOT_clean_sbu_0, # of connection points: 5
#     Node 1, Type 0, BuildingBlock: XOMCOT_clean_sbu_0, # of connection points: 5
#     Node 2, Type 0, BuildingBlock: XOMCOT_clean_sbu_0, # of connection points: 5
#     Node 3, Type 0, BuildingBlock: XOMCOT_clean_sbu_0, # of connection points: 5
#     Node 4, Type 0, BuildingBlock: XOMCOT_clean_sbu_0, # of connection points: 5
#     Node 5, Type 0, BuildingBlock: XOMCOT_clean_sbu_0, # of connection points: 5
#     Node 6, Type 0, BuildingBlock: XOMCOT_clean_sbu_0, # of connection points: 5
#     Node 7, Type 0, BuildingBlock: XOMCOT_clean_sbu_0, # of connection points: 5
#     Node 8, Type 0, BuildingBlock: XOMCOT_clean_sbu_0, # of connection points: 5
#     Node 9, Type 0, BuildingBlock: XOMCOT_clean_sbu_0, # of connection points: 5
#     Node 10, Type 0, BuildingBlock: XOMCOT_clean_sbu_0, # of connection points: 5
#     Node 11, Type 0, BuildingBlock: XOMCOT_clean_sbu_0, # of connection points: 5
#     Edge 12, Type (0, 0), BuildingBlock: XUDNAN_clean_linker_2, # of connection points: 2
#     Edge 13, Type (0, 0), BuildingBlock: XUDNAN_clean_linker_2, # of connection points: 2
#     Edge 14, Type (0, 0), BuildingBlock: XUDNAN_clean_linker_2, # of connection points: 2
#     Edge 15, Type (0, 0), BuildingBlock: XUDNAN_clean_linker_2, # of connection points: 2
#     Edge 16, Type (0, 0), BuildingBlock: XUDNAN_clean_linker_2, # of connection points: 2
#     Edge 17, Type (0, 0), BuildingBlock: XUDNAN_clean_linker_2, # of connection points: 2
#     Edge 18, Type (0, 0), BuildingBlock: XUDNAN_clean_linker_2, # of connection points: 2
#     Edge 19, Type (0, 0), BuildingBlock: XUDNAN_clean_linker_2, # of connection points: 2
#     Edge 20, Type (0, 0), BuildingBlock: XUDNAN_clean_linker_2, # of connection points: 2
#     Edge 21, Type (0, 0), BuildingBlock: XUDNAN_clean_linker_2, # of connection points: 2
#     Edge 22, Type (0, 0), BuildingBlock: XUDNAN_clean_linker_2, # of connection points: 2
#     Edge 23, Type (0, 0), BuildingBlock: XUDNAN_clean_linker_2, # of connection points: 2
#     Edge 24, Type (0, 0), BuildingBlock: XUDNAN_clean_linker_2, # of connection points: 2
#     Edge 25, Type (0, 0), BuildingBlock: XUDNAN_clean_linker_2, # of connection points: 2
#     Edge 26, Type (0, 0), BuildingBlock: XUDNAN_clean_linker_2, # of connection points: 2
#     Edge 27, Type (0, 0), BuildingBlock: XUDNAN_clean_linker_2, # of connection points: 2
#     Edge 28, Type (0, 0), BuildingBlock: XUDNAN_clean_linker_2, # of connection points: 2
#     Edge 29, Type (0, 0), BuildingBlock: XUDNAN_clean_linker_2, # of connection points: 2
#     Edge 30, Type (0, 0), BuildingBlock: XUDNAN_clean_linker_2, # of connection points: 2
#     Edge 31, Type (0, 0), BuildingBlock: XUDNAN_clean_linker_2, # of connection points: 2
#     Edge 32, Type (0, 0), BuildingBlock: XUDNAN_clean_linker_2, # of connection points: 2
#     Edge 33, Type (0, 0), BuildingBlock: XUDNAN_clean_linker_2, # of connection points: 2
#     Edge 34, Type (0, 0), BuildingBlock: XUDNAN_clean_linker_2, # of connection points: 2
#     Edge 35, Type (0, 0), BuildingBlock: XUDNAN_clean_linker_2, # of connection points: 2
#     Edge 36, Type (0, 0), BuildingBlock: XUDNAN_clean_linker_2, # of connection points: 2
#     Edge 37, Type (0, 0), BuildingBlock: XUDNAN_clean_linker_2, # of connection points: 2
#     Edge 38, Type (0, 0), BuildingBlock: XUDNAN_clean_linker_2, # of connection points: 2
#     Edge 39, Type (0, 0), BuildingBlock: XUDNAN_clean_linker_2, # of connection points: 2
#     Edge 40, Type (0, 0), BuildingBlock: XUDNAN_clean_linker_2, # of connection points: 2
#     Edge 41, Type (0, 0), BuildingBlock: XUDNAN_clean_linker_2, # of connection points: 2
# Relax obj value: 0.175
# Max RMSD: 0.246
# Mean RMSD: 0.246
data_MOF--net-fnz--node1-XOMCOT_clean_sbu_0--edge1-XUDNAN_clean_linker_2
_symmetry_space_group_name_H-M    P1
_symmetry_Int_Tables_number       1
_symmetry_cell_setting            triclinic
loop_
_symmetry_equiv_pos_as_xyz
'x, y, z'
_cell_length_a     44.454084
_cell_length_b     44.485454
_cell_length_c     30.582084
_cell_angle_alpha  90.051356
_cell_angle_beta   89.951233
_cell_angle_gamma 119.91247
loop_
_atom_site_label
_atom_site_type_symbol
_atom_site_fract_x
_atom_site_fract_y
_atom_site_fract_z
_atom_type_partial_charge
Co0 Co 0.42157 0.14234 0.05475 0.0
C1 C 0.3802 0.17777 0.0562 0.0
C2 C 0.35055 0.12485 0.07757 0.0
C3 C 0.33013 0.13991 0.08081 0.0
N4 N 0.38186 0.14856 0.06209 0.0
N5 N 0.34882 0.17328 0.06769 0.0
H6 H 0.40192 0.20207 0.04531 0.0
H7 H 0.34321 0.09864 0.08689 0.0
C8 C 0.3928 0.06989 0.02226 0.0
O9 O 0.41837 0.08155 0.99387 0.0
N10 N 0.46125 0.13507 0.04911 0.0
C11 C 0.48798 0.14838 0.02048 0.0
C12 C 0.50559 0.13029 0.02397 0.0
C13 C 0.46409 0.11006 0.07076 0.0
N14 N 0.49038 0.10613 0.0554 0.0
C15 C 0.44527 0.18037 0.97338 0.0
C16 C 0.38897 0.13453 0.92391 0.0
C17 C 0.41627 0.16321 0.90297 0.0
C18 C 0.44435 0.18684 0.92866 0.0
C19 C 0.39108 0.12903 0.96843 0.0
N20 N 0.42006 0.15048 0.99211 0.0
H21 H 0.46648 0.19939 0.99293 0.0
H22 H 0.36886 0.10774 0.98389 0.0
H23 H 0.49396 0.16862 0.9971 0.0
H24 H 0.44532 0.09298 0.09459 0.0
O25 O 0.45157 0.18952 0.07431 0.0
O26 O 0.42681 0.14352 0.11758 0.0
O27 O 0.38955 0.09075 0.04798 0.0
C28 C 0.44588 0.17702 0.11386 0.0
H29 H 0.3036 0.12718 0.09239 0.0
H30 H 0.52709 0.13372 1.00378 0.0
H31 H 0.36573 0.11664 0.90623 0.0
H32 H 0.46566 0.20993 0.91439 0.0
Co33 Co 0.27677 0.41525 0.06158 0.0
C34 C 0.20095 0.38039 0.0484 0.0
C35 C 0.21361 0.36055 0.10508 0.0
C36 C 0.17788 0.34439 0.10148 0.0
N37 N 0.22797 0.38307 0.07164 0.0
N38 N 0.17025 0.35684 0.06559 0.0
H39 H 0.20337 0.39571 0.01985 0.0
H40 H 0.22809 0.35642 0.13048 0.0
C41 C 0.30801 0.36998 0.04061 0.0
O42 O 0.32853 0.39217 0.01104 0.0
N43 N 0.32588 0.44788 0.05228 0.0
C44 C 0.34069 0.47324 0.02203 0.0
C45 C 0.37616 0.48819 0.02475 0.0
C46 C 0.35281 0.44877 0.07411 0.0
N47 N 0.38372 0.47271 0.05732 0.0
C48 C 0.26347 0.43768 0.97854 0.0
C49 C 0.24831 0.37852 0.93227 0.0
C50 C 0.24421 0.40425 0.91107 0.0
C51 C 0.25221 0.43433 0.935 0.0
C52 C 0.25836 0.38236 0.97599 0.0
N53 N 0.26704 0.41213 0.99854 0.0
H54 H 0.26798 0.46036 0.99677 0.0
H55 H 0.25715 0.36023 0.99177 0.0
H56 H 0.32722 0.48051 0.99892 0.0
H57 H 0.3498 0.43095 0.10008 0.0
O58 O 0.26861 0.45291 0.07825 0.0
O59 O 0.28372 0.42372 0.1234 0.0
O60 O 0.28578 0.37508 0.06087 0.0
C61 C 0.27519 0.4474 0.11807 0.0
H62 H 0.15903 0.32468 0.12301 0.0
H63 H 0.39502 0.50862 1.00399 0.0
H64 H 0.24299 0.35485 0.9158 0.0
H65 H 0.24862 0.45465 0.92102 0.0
Co66 Co 0.86482 0.27845 0.03596 0.0
C67 C 0.82919 0.20124 0.04086 0.0
C68 C 0.88137 0.22547 0.06471 0.0
C69 C 0.86614 0.19032 0.07149 0.0
N70 N 0.85847 0.23236 0.04461 0.0
N71 N 0.83329 0.17516 0.0565 0.0
H72 H 0.80451 0.19765 0.03043 0.0
H73 H 0.90694 0.24484 0.07563 0.0
C74 C 0.92838 0.28249 0.9969 0.0
O75 O 0.9082 0.25423 0.97455 0.0
N76 N 0.87113 0.32421 0.02867 0.0
C77 C 0.84737 0.33174 0.01302 0.0
C78 C 0.86096 0.36706 0.01475 0.0
C79 C 0.89881 0.35486 0.03987 0.0
N80 N 0.89326 0.38158 0.03172 0.0
C81 C 0.8151 0.24623 0.96762 0.0
C82 C 0.85821 0.28003 0.89775 0.0
C83 C 0.82324 0.25587 0.88985 0.0
C84 C 0.80162 0.23914 0.92548 0.0
C85 C 0.87062 0.28673 0.94087 0.0
N86 N 0.84952 0.2685 0.97511 0.0
H87 H 0.79717 0.23471 0.99428 0.0
H88 H 0.89692 0.30717 0.9466 0.0
H89 H 0.82184 0.31282 1.00144 0.0
H90 H 0.92212 0.35741 0.05455 0.0
O91 O 0.82045 0.2638 0.06302 0.0
O92 O 0.87039 0.28543 0.09858 0.0
O93 O 0.91527 0.29648 0.02107 0.0
C94 C 0.83688 0.27237 0.10008 0.0
H95 H 0.87804 0.17715 0.08745 0.0
H96 H 0.84811 0.38096 1.00393 0.0
H97 H 0.87543 0.29445 0.87106 0.0
H98 H 0.77424 0.22092 0.9209 0.0
Co99 Co 0.59083 0.86336 0.0669 0.0
C100 C 0.62452 0.82044 0.0738 0.0
C101 C 0.65387 0.86991 0.10542 0.0
C102 C 0.67049 0.85131 0.11196 0.0
N103 N 0.62521 0.85067 0.0814 0.0
N104 N 0.65196 0.82011 0.09238 0.0
H105 H 0.60371 0.79875 0.05666 0.0
H106 H 0.6616 0.89527 0.11856 0.0
C107 C 0.63377 0.93936 0.0412 0.0
O108 O 0.61229 0.93591 0.00957 0.0
N109 N 0.55662 0.87714 0.05353 0.0
C110 C 0.53351 0.86706 0.02043 0.0
C111 C 0.51811 0.88735 0.02065 0.0
C112 C 0.55413 0.90278 0.07405 0.0
N113 N 0.53121 0.90985 0.05426 0.0
C114 C 0.57113 0.82401 0.98615 0.0
C115 C 0.63033 0.8676 0.9397 0.0
C116 C 0.60507 0.83716 0.91906 0.0
C117 C 0.57508 0.81519 0.9432 0.0
C118 C 0.62567 0.875 0.98277 0.0
N119 N 0.59572 0.85421 1.00513 0.0
H120 H 0.54827 0.80624 1.00438 0.0
H121 H 0.6471 0.89696 0.99822 0.0
H122 H 0.52854 0.84721 0.99673 0.0
H123 H 0.57048 0.91749 0.10121 0.0
O124 O 0.55462 0.81758 0.08554 0.0
O125 O 0.58125 0.8635 0.12848 0.0
O126 O 0.6289 0.91321 0.06383 0.0
C127 C 0.55931 0.83056 0.12487 0.0
H128 H 0.69424 0.86005 0.13027 0.0
H129 H 0.49921 0.88612 0.99734 0.0
H130 H 0.65404 0.88571 0.92311 0.0
H131 H 0.55517 0.79085 0.92967 0.0
Co132 Co 0.72932 0.58372 0.06782 0.0
C133 C 0.80548 0.62516 0.05425 0.0
C134 C 0.78961 0.64055 0.11242 0.0
C135 C 0.82532 0.65976 0.10931 0.0
N136 N 0.77725 0.6188 0.07793 0.0
N137 N 0.83499 0.6501 0.07259 0.0
H138 H 0.80481 0.61148 0.02473 0.0
H139 H 0.7738 0.64203 0.1383 0.0
C140 C 0.69338 0.62533 0.04957 0.0
O141 O 0.67422 0.60411 0.01833 0.0
N142 N 0.68105 0.54849 0.05861 0.0
C143 C 0.66785 0.52246 0.0291 0.0
C144 C 0.6322 0.50576 0.0311 0.0
C145 C 0.65309 0.54623 0.07938 0.0
N146 N 0.62299 0.52082 0.06253 0.0
C147 C 0.74458 0.56398 0.98421 0.0
C148 C 0.75327 0.62097 0.93797 0.0
C149 C 0.75917 0.59659 0.91608 0.0
C150 C 0.75468 0.56772 0.94015 0.0
C151 C 0.74449 0.61687 0.98222 0.0
N152 N 0.73878 0.58796 1.00469 0.0
H153 H 0.74252 0.54219 1.00229 0.0
H154 H 0.74394 0.63807 0.99834 0.0
H155 H 0.68258 0.51598 0.00695 0.0
H156 H 0.65471 0.56412 0.10454 0.0
O157 O 0.7411 0.54835 0.08336 0.0
O158 O 0.72325 0.57446 0.12959 0.0
O159 O 0.71653 0.62116 0.06883 0.0
C160 C 0.73449 0.55289 0.12365 0.0
H161 H 0.84279 0.67952 0.13189 0.0
H162 H 0.61436 0.48449 0.0105 0.0
H163 H 0.75595 0.64371 0.92159 0.0
H164 H 0.75996 0.54859 0.9258 0.0
Co165 Co 0.13959 0.72686 0.04333 0.0
C166 C 0.19077 0.80181 0.03775 0.0
C167 C 0.14538 0.79268 0.07283 0.0
C168 C 0.16963 0.82753 0.0755 0.0
N169 N 0.15851 0.77663 0.04847 0.0
N170 N 0.19831 0.83314 0.05353 0.0
H171 H 0.20916 0.79724 0.02069 0.0
H172 H 0.1206 0.77967 0.08942 0.0
C173 C 0.08117 0.73752 0.01354 0.0
O174 O 0.10313 0.76393 0.98959 0.0
N175 N 0.12095 0.67752 0.03939 0.0
C176 C 0.13636 0.66101 0.02151 0.0
C177 C 0.11331 0.62587 0.02257 0.0
C178 C 0.08904 0.65248 0.05146 0.0
N179 N 0.08347 0.62049 0.0413 0.0
C180 C 0.18226 0.74445 0.96587 0.0
C181 C 0.12895 0.71894 0.90568 0.0
C182 C 0.16328 0.73726 0.89049 0.0
C183 C 0.19013 0.74928 0.92127 0.0
C184 C 0.12233 0.71504 0.95066 0.0
N185 N 0.14882 0.73013 0.98031 0.0
H186 H 0.20324 0.75179 0.98868 0.0
H187 H 0.09579 0.69958 0.96137 0.0
H188 H 0.16217 0.67369 0.00761 0.0
H189 H 0.0703 0.65775 0.06699 0.0
O190 O 0.18317 0.73269 0.06526 0.0
O191 O 0.13815 0.72376 0.10618 0.0
O192 O 0.09143 0.71979 0.03524 0.0
C193 C 0.16969 0.72931 0.104 0.0
H194 H 0.1669 0.84676 0.09404 0.0
H195 H 0.1179 0.60603 0.00906 0.0
H196 H 0.10733 0.70799 0.88307 0.0
H197 H 0.217 0.76168 0.91096 0.0
Co198 Co 0.86406 0.58442 0.46483 0.0
C199 C 0.8246 0.62117 0.45732 0.0
C200 C 0.87606 0.65134 0.431 0.0
C201 C 0.85865 0.66942 0.42534 0.0
N202 N 0.85465 0.62119 0.45103 0.0
N203 N 0.82627 0.65038 0.44183 0.0
H204 H 0.80172 0.59975 0.47177 0.0
H205 H 0.90228 0.65939 0.42065 0.0
C206 C 0.93486 0.61887 0.50452 0.0
O207 O 0.92258 0.59455 0.53459 0.0
N208 N 0.87418 0.54748 0.47736 0.0
C209 C 0.86289 0.52348 0.50953 0.0
C210 C 0.88207 0.50682 0.50846 0.0
C211 C 0.89934 0.54432 0.45669 0.0
N212 N 0.90491 0.52004 0.47521 0.0
C213 C 0.82047 0.56185 0.54229 0.0
C214 C 0.86048 0.62148 0.59006 0.0
C215 C 0.82955 0.5955 0.60877 0.0
C216 C 0.80938 0.56525 0.58415 0.0
C217 C 0.8701 0.61732 0.54816 0.0
N218 N 0.85124 0.58715 0.52539 0.0
H219 H 0.804 0.53905 0.5231 0.0
H220 H 0.89226 0.63924 0.53364 0.0
H221 H 0.84341 0.51902 0.53357 0.0
H222 H 0.91504 0.56127 0.43051 0.0
O223 O 0.8189 0.55124 0.44088 0.0
O224 O 0.86813 0.57755 0.40337 0.0
O225 O 0.91463 0.61955 0.4753 0.0
C226 C 0.83487 0.55638 0.40349 0.0
H227 H 0.86908 0.69464 0.41017 0.0
H228 H 0.88005 0.48719 0.53109 0.0
H229 H 0.8772 0.6454 0.60722 0.0
H230 H 0.78475 0.54484 0.59639 0.0
Co231 Co 0.27891 0.8568 0.44597 0.0
C232 C 0.20443 0.81059 0.46014 0.0
C233 C 0.21367 0.85633 0.42544 0.0
C234 C 0.17837 0.83561 0.43198 0.0
N235 N 0.22981 0.84055 0.44338 0.0
N236 N 0.17276 0.807 0.45408 0.0
H237 H 0.2091 0.79166 0.47622 0.0
H238 H 0.22661 0.88119 0.4091 0.0
C239 C 0.30993 0.93213 0.47558 0.0
O240 O 0.33097 0.92986 0.5038 0.0
N241 N 0.32836 0.8729 0.44798 0.0
C242 C 0.34425 0.85612 0.46385 0.0
C243 C 0.37932 0.8759 0.45647 0.0
C244 C 0.35406 0.90219 0.42985 0.0
N245 N 0.38561 0.90504 0.4353 0.0
C246 C 0.27199 0.81567 0.52106 0.0
C247 C 0.25129 0.84943 0.57919 0.0
C248 C 0.24887 0.81801 0.59177 0.0
C249 C 0.26016 0.80158 0.56245 0.0
C250 C 0.26304 0.86258 0.53708 0.0
N251 N 0.27337 0.8458 0.50844 0.0
H252 H 0.27725 0.80054 0.49805 0.0
H253 H 0.26109 0.88469 0.52681 0.0
H254 H 0.33166 0.83081 0.47861 0.0
H255 H 0.34964 0.92109 0.41324 0.0
O256 O 0.26998 0.81254 0.42237 0.0
O257 O 0.28104 0.85862 0.38296 0.0
O258 O 0.28779 0.90546 0.45437 0.0
C259 C 0.27312 0.8263 0.38388 0.0
H260 H 0.15852 0.84152 0.42209 0.0
H261 H 0.39855 0.86882 0.46523 0.0
H262 H 0.24194 0.86245 0.60053 0.0
H263 H 0.25836 0.77705 0.57069 0.0
Co264 Co 0.41144 0.27482 0.45566 0.0
C265 C 0.38132 0.19818 0.44971 0.0
C266 C 0.34803 0.21569 0.42284 0.0
C267 C 0.33252 0.18051 0.41695 0.0
N268 N 0.37851 0.22678 0.44339 0.0
N269 N 0.35344 0.16946 0.43356 0.0
H270 H 0.40368 0.19859 0.46433 0.0
H271 H 0.33809 0.23218 0.41193 0.0
C272 C 0.36646 0.30207 0.49355 0.0
O273 O 0.39067 0.32228 0.52135 0.0
N274 N 0.44403 0.32381 0.46635 0.0
C275 C 0.4741 0.33941 0.48894 0.0
C276 C 0.48741 0.37484 0.48783 0.0
C277 C 0.4403 0.35018 0.45066 0.0
N278 N 0.46591 0.38159 0.46409 0.0
C279 C 0.44205 0.2617 0.5309 0.0
C280 C 0.38371 0.23479 0.58342 0.0
C281 C 0.41365 0.23576 0.59928 0.0
C282 C 0.4431 0.24937 0.57264 0.0
C283 C 0.38385 0.24768 0.5417 0.0
N284 N 0.41312 0.26197 0.51633 0.0
H285 H 0.46413 0.26973 0.50965 0.0
H286 H 0.35968 0.24425 0.52921 0.0
H287 H 0.48592 0.32658 0.50547 0.0
H288 H 0.41867 0.34624 0.43043 0.0
O289 O 0.44791 0.26827 0.43067 0.0
O290 O 0.41539 0.28449 0.39382 0.0
O291 O 0.37116 0.28244 0.46735 0.0
C292 C 0.43957 0.27619 0.39336 0.0
H293 H 0.30774 0.16431 0.40125 0.0
H294 H 0.51055 0.394 0.50453 0.0
H295 H 0.36004 0.22307 0.60255 0.0
H296 H 0.46623 0.24914 0.58327 0.0
Co297 Co 0.14209 0.41716 0.45838 0.0
C298 C 0.1764 0.37509 0.46109 0.0
C299 C 0.12931 0.35032 0.42356 0.0
C300 C 0.14397 0.32939 0.42345 0.0
N301 N 0.14962 0.37879 0.44732 0.0
N302 N 0.17355 0.34492 0.44721 0.0
H303 H 0.19721 0.39395 0.48133 0.0
H304 H 0.10565 0.34527 0.40728 0.0
C305 C 0.07016 0.38548 0.49428 0.0
O306 O 0.08236 0.4103 0.52374 0.0
N307 N 0.13383 0.45568 0.46815 0.0
C308 C 0.14676 0.48097 0.49873 0.0
C309 C 0.12813 0.49814 0.4978 0.0
C310 C 0.10842 0.4588 0.44812 0.0
N311 N 0.10399 0.48401 0.46611 0.0
C312 C 0.18315 0.43862 0.53786 0.0
C313 C 0.13933 0.38061 0.58608 0.0
C314 C 0.17062 0.40544 0.60535 0.0
C315 C 0.19271 0.43487 0.58043 0.0
C316 C 0.13138 0.38488 0.54334 0.0
N317 N 0.15216 0.41438 0.52022 0.0
H318 H 0.20124 0.4606 0.51857 0.0
H319 H 0.10901 0.3634 0.5285 0.0
H320 H 0.16701 0.48598 0.52176 0.0
H321 H 0.09149 0.44092 0.42343 0.0
O322 O 0.18855 0.44869 0.43715 0.0
O323 O 0.14132 0.42393 0.39602 0.0
O324 O 0.09071 0.38367 0.46642 0.0
C325 C 0.17481 0.44378 0.39831 0.0
H326 H 0.13373 0.30485 0.40654 0.0
H327 H 0.13119 0.51855 0.51982 0.0
H328 H 0.12107 0.35735 0.60334 0.0
H329 H 0.21773 0.45431 0.59292 0.0
Co330 Co 0.7285 0.14031 0.44251 0.0
C331 C 0.8022 0.18585 0.46162 0.0
C332 C 0.79412 0.14018 0.4276 0.0
C333 C 0.82929 0.16151 0.43435 0.0
N334 N 0.77736 0.15557 0.44492 0.0
N335 N 0.83419 0.19014 0.45587 0.0
H336 H 0.7969 0.20479 0.47655 0.0
H337 H 0.78173 0.11556 0.41064 0.0
C338 C 0.69695 0.06702 0.47843 0.0
O339 O 0.67497 0.07091 0.50321 0.0
N340 N 0.67919 0.12566 0.43878 0.0
C341 C 0.66586 0.14715 0.4384 0.0
C342 C 0.63124 0.12866 0.42829 0.0
C343 C 0.65222 0.09434 0.42717 0.0
N344 N 0.62269 0.09552 0.42144 0.0
C345 C 0.72459 0.17698 0.51745 0.0
C346 C 0.74803 0.14726 0.57791 0.0
C347 C 0.74159 0.17362 0.59158 0.0
C348 C 0.72966 0.18843 0.56066 0.0
C349 C 0.74241 0.1364 0.53425 0.0
N350 N 0.73006 0.15069 0.50469 0.0
H351 H 0.71823 0.19082 0.49392 0.0
H352 H 0.74967 0.11769 0.52392 0.0
H353 H 0.68038 0.17492 0.44216 0.0
H354 H 0.6543 0.07156 0.42061 0.0
O355 O 0.74013 0.18512 0.41868 0.0
O356 O 0.73008 0.13874 0.37973 0.0
O357 O 0.71841 0.09156 0.45383 0.0
C358 C 0.73824 0.17114 0.38068 0.0
H359 H 0.8496 0.15633 0.42424 0.0
H360 H 0.61376 0.1389 0.42537 0.0
H361 H 0.75779 0.13544 0.60056 0.0
H362 H 0.7257 0.20982 0.56929 0.0
Co363 Co 0.58842 0.72688 0.46187 0.0
C364 C 0.62816 0.80352 0.462 0.0
C365 C 0.65075 0.78181 0.41923 0.0
C366 C 0.6704 0.8174 0.41726 0.0
N367 N 0.62455 0.77321 0.44756 0.0
N368 N 0.65621 0.83101 0.44422 0.0
H369 H 0.61077 0.80538 0.48519 0.0
H370 H 0.65493 0.76351 0.40074 0.0
C371 C 0.63 0.69061 0.48434 0.0
O372 O 0.60967 0.67266 0.5169 0.0
N373 N 0.55177 0.68003 0.47545 0.0
C374 C 0.52202 0.67093 0.49714 0.0
C375 C 0.50137 0.63544 0.49608 0.0
C376 C 0.54833 0.64977 0.46057 0.0
N377 N 0.51795 0.62213 0.47324 0.0
C378 C 0.5708 0.74749 0.54348 0.0
C379 C 0.62823 0.75758 0.59003 0.0
C380 C 0.60423 0.76453 0.61114 0.0
C381 C 0.57517 0.75935 0.58688 0.0
C382 C 0.62331 0.74663 0.54644 0.0
N383 N 0.59418 0.7403 0.52393 0.0
H384 H 0.54913 0.74538 0.5251 0.0
H385 H 0.64391 0.74465 0.53079 0.0
H386 H 0.51487 0.68861 0.51148 0.0
H387 H 0.5671 0.64802 0.43975 0.0
O388 O 0.55426 0.73983 0.4437 0.0
O389 O 0.57795 0.71721 0.40064 0.0
O390 O 0.6247 0.71234 0.46331 0.0
C391 C 0.55742 0.7299 0.40464 0.0
H392 H 0.69301 0.83209 0.39684 0.0
H393 H 0.47593 0.62055 0.51076 0.0
H394 H 0.65118 0.76094 0.60665 0.0
H395 H 0.55641 0.76545 0.60061 0.0
H396 H 0.50092 0.06703 0.99634 0.0
H397 H 0.49254 0.08082 0.13506 0.0
H398 H 0.50275 0.03182 0.15075 0.0
H399 H 0.45515 0.9738 0.99949 0.0
H400 H 0.48138 0.96969 0.95753 0.0
H401 H 0.47497 0.0066 0.95782 0.0
H402 H 0.54157 0.04801 0.95872 0.0
H403 H 0.54822 0.01126 0.95827 0.0
H404 H 0.5673 0.04337 1.00088 0.0
H405 H 0.51641 0.98237 0.15049 0.0
H406 H 0.52702 0.93374 0.13431 0.0
H407 H 0.52217 0.9503 0.99556 0.0
C408 C 0.50166 0.05992 0.03001 0.0
C409 C 0.49659 0.07794 0.06465 0.0
C410 C 0.49664 0.06736 0.10824 0.0
C411 C 0.50247 0.03967 0.11735 0.0
C412 C 0.50751 0.02246 0.08237 0.0
C413 C 0.50668 0.03195 0.03954 0.0
C414 C 0.5112 0.00838 0.00772 0.0
C415 C 0.47874 0.98844 0.97895 0.0
C416 C 0.54403 0.02899 0.97976 0.0
C417 C 0.51519 0.98437 0.03924 0.0
C418 C 0.51333 0.99304 0.08218 0.0
C419 C 0.51757 0.97519 0.11697 0.0
C420 C 0.5237 0.94774 0.10755 0.0
C421 C 0.52499 0.93805 0.06378 0.0
C422 C 0.52063 0.9567 0.02934 0.0
H423 H 0.57315 0.50827 1.00325 0.0
H424 H 0.59488 0.51873 0.14209 0.0
H425 H 0.53454 0.50565 0.15712 0.0
H426 H 0.52179 0.54988 1.00422 0.0
H427 H 0.49253 0.52224 0.96234 0.0
H428 H 0.53666 0.53095 0.96347 0.0
H429 H 0.51466 0.46492 0.96573 0.0
H430 H 0.47045 0.456 0.96468 0.0
H431 H 0.48482 0.43875 0.00806 0.0
H432 H 0.47006 0.48877 0.1559 0.0
H433 H 0.4103 0.47634 0.13829 0.0
H434 H 0.4336 0.48121 1.00016 0.0
C435 C 0.56506 0.50749 0.03682 0.0
C436 C 0.58834 0.51398 0.07164 0.0
C437 C 0.57725 0.51369 0.1151 0.0
C438 C 0.54307 0.50616 0.12383 0.0
C439 C 0.5206 0.49959 0.08863 0.0
C440 C 0.53143 0.50072 0.04595 0.0
C441 C 0.50311 0.49443 0.01368 0.0
C442 C 0.51419 0.52627 0.9842 0.0
C443 C 0.49265 0.46157 0.98645 0.0
C444 C 0.47444 0.48933 0.04471 0.0
C445 C 0.48471 0.4919 0.08787 0.0
C446 C 0.46195 0.48703 0.12219 0.0
C447 C 0.4281 0.47985 0.11201 0.0
C448 C 0.41766 0.47826 0.06798 0.0
C449 C 0.44117 0.48288 0.03411 0.0
H450 H 0.07556 0.55548 0.03945 0.0
H451 H 0.01824 0.61058 0.05321 0.0
H452 H 0.96378 0.55494 0.05769 0.0
H453 H 0.01531 0.49022 0.96916 0.0
H454 H 0.02094 0.45602 0.99203 0.0
H455 H 0.05599 0.50019 0.99411 0.0
H456 H 0.05929 0.49569 0.07827 0.0
H457 H 0.0242 0.45145 0.07641 0.0
H458 H 0.0209 0.48259 0.11083 0.0
H459 H 0.91507 0.49359 0.05603 0.0
H460 H 0.87553 0.43072 0.04787 0.0
H461 H 0.96397 0.41531 0.03234 0.0
C462 C 0.05168 0.55604 0.04353 0.0
C463 C 0.05158 0.58778 0.04614 0.0
C464 C 0.01947 0.58693 0.05183 0.0
C465 C 0.9882 0.55533 0.05423 0.0
C466 C 0.98932 0.52469 0.05093 0.0
C467 C 0.0202 0.52474 0.04576 0.0
C468 C 0.01405 0.48817 0.04085 0.0
C469 C 0.02735 0.48338 0.99639 0.0
C470 C 0.03059 0.47894 0.07887 0.0
C471 C 0.9748 0.46761 0.04326 0.0
C472 C 0.96111 0.48919 0.04944 0.0
C473 C 0.92548 0.47641 0.05132 0.0
C474 C 0.90322 0.44066 0.04631 0.0
C475 C 0.91658 0.41802 0.03926 0.0
C476 C 0.95293 0.4318 0.03826 0.0
H477 H 0.06552 0.49376 0.52718 0.0
H478 H 0.07732 0.48643 0.38767 0.0
H479 H 0.02692 0.49481 0.37427 0.0
H480 H 0.97246 0.44584 0.52707 0.0
H481 H 0.96806 0.47152 0.56953 0.0
H482 H 0.00593 0.46668 0.5678 0.0
H483 H 0.04557 0.5335 0.56623 0.0
H484 H 0.00785 0.53856 0.56826 0.0
H485 H 0.03896 0.55836 0.52469 0.0
H486 H 0.97626 0.50595 0.37665 0.0
H487 H 0.92702 0.51516 0.39463 0.0
H488 H 0.9461 0.511 0.53272 0.0
C489 C 0.05773 0.49443 0.49383 0.0
C490 C 0.0755 0.49003 0.45831 0.0
C491 C 0.06404 0.48998 0.41516 0.0
C492 C 0.03554 0.49474 0.40734 0.0
C493 C 0.01847 0.4989 0.44314 0.0
C494 C 0.02896 0.49845 0.48555 0.0
C495 C 0.00537 0.50203 0.51836 0.0
C496 C 0.98686 0.46958 0.5474 0.0
C497 C 0.02565 0.53508 0.546 0.0
C498 C 0.98012 0.5049 0.48782 0.0
C499 C 0.98829 0.50337 0.44454 0.0
C500 C 0.96945 0.50685 0.41042 0.0
C501 C 0.94164 0.51211 0.42085 0.0
C502 C 0.93259 0.51329 0.46494 0.0
C503 C 0.95203 0.50944 0.49875 0.0
H504 H 0.58932 0.03144 0.45736 0.0
H505 H 0.57886 0.09789 0.36261 0.0
H506 H 0.51733 0.0535 0.35101 0.0
H507 H 0.52861 0.94696 0.40518 0.0
H508 H 0.51139 0.92618 0.45704 0.0
H509 H 0.55567 0.96101 0.45324 0.0
H510 H 0.54419 0.99441 0.51403 0.0
H511 H 0.49985 0.95997 0.51803 0.0
H512 H 0.50933 0.0037 0.50752 0.0
H513 H 0.45594 0.00447 0.35476 0.0
H514 H 0.39902 0.95437 0.37342 0.0
H515 H 0.44883 0.9211 0.46871 0.0
C516 C 0.57423 0.03598 0.43321 0.0
C517 C 0.58869 0.06772 0.4104 0.0
C518 C 0.56808 0.07354 0.38012 0.0
C519 C 0.53322 0.04849 0.37329 0.0
C520 C 0.51933 0.01782 0.39724 0.0
C521 C 0.53918 0.01141 0.42654 0.0
C522 C 0.51713 0.97784 0.45109 0.0
C523 C 0.52889 0.95141 0.441 0.0
C524 C 0.51766 0.98439 0.50059 0.0
C525 C 0.48178 0.96674 0.43154 0.0
C526 C 0.48367 0.98994 0.40023 0.0
C527 C 0.45416 0.98594 0.379 0.0
C528 C 0.42182 0.95749 0.39014 0.0
C529 C 0.41911 0.93348 0.42256 0.0
C530 C 0.44975 0.93833 0.44319 0.0
H531 H 0.52383 0.44604 0.46714 0.0
H532 H 0.41201 0.39295 0.44988 0.0
H533 H 0.4143 0.44923 0.44478 0.0
H534 H 0.52956 0.513 0.53558 0.0
H535 H 0.56985 0.54657 0.51293 0.0
H536 H 0.56001 0.50211 0.51173 0.0
H537 H 0.56872 0.5059 0.42775 0.0
H538 H 0.57855 0.55041 0.42878 0.0
H539 H 0.54427 0.51939 0.39415 0.0
H540 H 0.42768 0.51079 0.44717 0.0
H541 H 0.45154 0.57383 0.45599 0.0
H542 H 0.5548 0.58817 0.4714 0.0
C543 C 0.49985 0.44621 0.46199 0.0
C544 C 0.46775 0.41479 0.45853 0.0
C545 C 0.43701 0.41639 0.45173 0.0
C546 C 0.43801 0.44835 0.44903 0.0
C547 C 0.46996 0.47869 0.45292 0.0
C548 C 0.50039 0.47799 0.45905 0.0
C549 C 0.5311 0.51449 0.46388 0.0
C550 C 0.54865 0.51931 0.5087 0.0
C551 C 0.5572 0.52305 0.4264 0.0
C552 C 0.51304 0.53574 0.46044 0.0
C553 C 0.47779 0.51448 0.45393 0.0
C554 C 0.45527 0.52771 0.45186 0.0
C555 C 0.46902 0.56352 0.45709 0.0
C556 C 0.50498 0.58587 0.46421 0.0
C557 C 0.52732 0.57176 0.46522 0.0
H558 H 0.32478 0.03797 0.04808 0.0
H559 H 0.40537 0.01746 1.00275 0.0
H560 H 0.36465 0.95447 0.00886 0.0
H561 H 0.28419 0.96736 0.1253 0.0
H562 H 0.2407 0.95775 0.11258 0.0
H563 H 0.27649 1.0013 0.10634 0.0
H564 H 0.25944 0.00166 0.02542 0.0
H565 H 0.22352 0.9582 0.03145 0.0
H566 H 0.25529 0.96785 0.98911 0.0
H567 H 0.31611 0.89435 0.02169 0.0
H568 H 0.26154 0.84031 0.03359 0.0
H569 H 0.21042 0.89926 0.06528 0.0
C570 C 0.33382 0.02015 0.03968 0.0
C571 C 0.36816 0.0324 0.02512 0.0
C572 C 0.37906 0.00847 0.01376 0.0
C573 C 0.35621 0.97272 0.01737 0.0
C574 C 0.32252 0.96144 0.03188 0.0
C575 C 0.31117 0.98435 0.04235 0.0
C576 C 0.27315 0.96528 0.05513 0.0
C577 C 0.26836 0.97341 0.10267 0.0
C578 C 0.25158 0.97375 0.02337 0.0
C579 C 0.26492 0.92805 0.05022 0.0
C580 C 0.29391 0.92653 0.0373 0.0
C581 C 0.29308 0.89517 0.03122 0.0
C582 C 0.26162 0.86446 0.03775 0.0
C583 C 0.23103 0.86512 0.04955 0.0
C584 C 0.23307 0.89757 0.05634 0.0
H585 H 0.3752 0.23332 0.02018 0.0
H586 H 0.29832 0.17234 0.11875 0.0
H587 H 0.27939 0.21557 0.12107 0.0
H588 H 0.39879 0.31697 0.06679 0.0
H589 H 0.40436 0.33789 0.01458 0.0
H590 H 0.41175 0.30175 0.01971 0.0
H591 H 0.36725 0.26947 0.95795 0.0
H592 H 0.35967 0.30548 0.95268 0.0
H593 H 0.32382 0.26254 0.96284 0.0
H594 H 0.26863 0.26488 0.11361 0.0
H595 H 0.26702 0.31816 0.09725 0.0
H596 H 0.35151 0.34885 1.00449 0.0
C597 C 0.35453 0.22911 0.04243 0.0
C598 C 0.33809 0.19905 0.06897 0.0
C599 C 0.31093 0.1946 0.09738 0.0
C600 C 0.3001 0.2192 0.09921 0.0
C601 C 0.3167 0.24832 0.07258 0.0
C602 C 0.34338 0.25354 0.04479 0.0
C603 C 0.35689 0.28739 0.01992 0.0
C604 C 0.39522 0.31248 0.03092 0.0
C605 C 0.35158 0.28081 0.97041 0.0
C606 C 0.33357 0.30025 0.03817 0.0
C607 C 0.31061 0.27721 0.06846 0.0
C608 C 0.28648 0.28317 0.08996 0.0
C609 C 0.28579 0.31358 0.08037 0.0
C610 C 0.30911 0.33778 0.04952 0.0
C611 C 0.33329 0.33088 0.02815 0.0
H612 H 0.97221 0.30925 0.06669 0.0
H613 H 0.96908 0.28432 0.9291 0.0
H614 H 0.03169 0.30301 0.93132 0.0
H615 H 0.06006 0.38406 0.06973 0.0
H616 H 0.06977 0.37261 0.12227 0.0
H617 H 0.02574 0.36065 0.10874 0.0
H618 H 0.00603 0.29636 0.12549 0.0
H619 H 0.04999 0.30806 0.13881 0.0
H620 H 0.02664 0.27568 0.09758 0.0
H621 H 0.09437 0.32425 0.94866 0.0
H622 H 0.15193 0.3423 0.9811 0.0
H623 H 0.11311 0.34814 0.1089 0.0
C624 C 0.98496 0.30843 0.03688 0.0
C625 C 0.96615 0.29598 0.99747 0.0
C626 C 0.98325 0.29412 0.95943 0.0
C627 C 0.01873 0.3047 0.96041 0.0
C628 C 0.03649 0.31643 0.99993 0.0
C629 C 0.02014 0.31804 0.03759 0.0
C630 C 0.0445 0.3291 0.07651 0.0
C631 C 0.05036 0.36366 0.09541 0.0
C632 C 0.03098 0.30059 0.11166 0.0
C633 C 0.07709 0.33336 0.05488 0.0
C634 C 0.07204 0.32649 0.01055 0.0
C635 C 0.09857 0.32951 0.98335 0.0
C636 C 0.13109 0.33978 1.00195 0.0
C637 C 0.13662 0.34621 0.04738 0.0
C638 C 0.10923 0.34284 0.07417 0.0
H639 H 0.77701 0.13902 1.0039 0.0
H640 H 0.82919 0.12986 0.11878 0.0
H641 H 0.78351 0.0688 0.12683 0.0
H642 H 0.68963 0.08572 0.04408 0.0
H643 H 0.67215 0.06614 0.99175 0.0
H644 H 0.70916 0.10927 0.99443 0.0
H645 H 0.74412 0.09016 0.94526 0.0
H646 H 0.70722 0.04699 0.94236 0.0
H647 H 0.74845 0.05349 0.96124 0.0
H648 H 0.73242 0.00975 0.12365 0.0
H649 H 0.67937 0.95479 0.10839 0.0
H650 H 0.6592 1.0009 0.99503 0.0
C651 C 0.77871 0.12421 0.03087 0.0
C652 C 0.80681 0.13926 0.06065 0.0
C653 C 0.8083 0.11885 0.09519 0.0
C654 C 0.78232 0.08419 0.10023 0.0
C655 C 0.75501 0.07026 0.07043 0.0
C656 C 0.75299 0.08947 0.03633 0.0
C657 C 0.72085 0.06792 0.00878 0.0
C658 C 0.69651 0.08318 0.00984 0.0
C659 C 0.73076 0.06444 0.96162 0.0
C660 C 0.70517 0.03358 0.03282 0.0
C661 C 0.72536 0.03571 0.06832 0.0
C662 C 0.71646 0.00766 0.09582 0.0
C663 C 0.68623 0.97643 0.08669 0.0
C664 C 0.66516 0.97324 0.05018 0.0
C665 C 0.67474 0.0024 0.02307 0.0
H666 H 0.63285 0.76756 0.03308 0.0
H667 H 0.68719 0.8083 0.1559 0.0
H668 H 0.70246 0.76239 0.15788 0.0
H669 H 0.59786 0.67591 0.06104 0.0
H670 H 0.60299 0.66381 0.00646 0.0
H671 H 0.59535 0.69957 0.01468 0.0
H672 H 0.65114 0.73977 0.97101 0.0
H673 H 0.65904 0.70419 0.96279 0.0
H674 H 0.69189 0.74379 0.98769 0.0
H675 H 0.71418 0.71458 0.146 0.0
H676 H 0.72019 0.66515 0.12215 0.0
H677 H 0.6569 0.65253 0.0078 0.0
C678 C 0.64759 0.76654 0.0606 0.0
C679 C 0.65917 0.79191 0.09407 0.0
C680 C 0.67866 0.78977 0.12936 0.0
C681 C 0.68726 0.76357 0.13101 0.0
C682 C 0.67597 0.7394 0.09729 0.0
C683 C 0.65637 0.74033 0.06287 0.0
C684 C 0.64808 0.71115 0.03072 0.0
C685 C 0.60873 0.68613 0.02808 0.0
C686 C 0.66346 0.7256 0.98537 0.0
C687 C 0.66649 0.69408 0.05236 0.0
C688 C 0.68234 0.71095 0.09072 0.0
C689 C 0.70173 0.70096 0.11618 0.0
C690 C 0.70507 0.67287 0.10217 0.0
C691 C 0.68902 0.65489 0.06306 0.0
C692 C 0.66931 0.66561 0.03794 0.0
H693 H 0.891 0.65687 0.116 0.0
H694 H 0.85644 0.67403 0.99108 0.0
H695 H 0.91637 0.69948 0.96195 0.0
H696 H 0.97519 0.73283 0.11842 0.0
H697 H 0.99653 0.71119 0.14175 0.0
H698 H 0.95129 0.69537 0.15286 0.0
H699 H 0.93609 0.63461 0.12387 0.0
H700 H 0.98132 0.65024 0.11278 0.0
H701 H 0.94975 0.63059 0.0697 0.0
H702 H 0.98089 0.72603 0.94835 0.0
H703 H 0.0437 0.74547 0.9482 0.0
H704 H 0.0348 0.70577 0.07989 0.0
C705 C 0.8963 0.66616 0.08261 0.0
C706 C 0.86955 0.66403 0.05572 0.0
C707 C 0.87688 0.67568 0.01194 0.0
C708 C 0.91073 0.69019 0.9953 0.0
C709 C 0.93671 0.6921 0.02269 0.0
C710 C 0.92975 0.67981 0.06516 0.0
C711 C 0.96191 0.68335 0.08709 0.0
C712 C 0.97181 0.7071 0.12741 0.0
C713 C 0.95696 0.64757 0.09905 0.0
C714 C 0.98818 0.70014 0.05064 0.0
C715 C 0.97326 0.70534 0.01392 0.0
C716 C 0.99277 0.72174 0.97674 0.0
C717 C 0.0284 0.73282 0.977 0.0
C718 C 0.04394 0.72688 0.01387 0.0
C719 C 0.02347 0.71027 0.05105 0.0
H720 H 0.10891 0.78336 0.41772 0.0
H721 H 0.16251 0.76678 0.52542 0.0
H722 H 0.10723 0.71742 0.55058 0.0
H723 H 0.03022 0.76243 0.47792 0.0
H724 H 1.00206 0.74106 0.43208 0.0
H725 H 0.04584 0.77565 0.42291 0.0
H726 H 0.05749 0.73506 0.37374 0.0
H727 H 0.0138 0.70036 0.38283 0.0
H728 H 0.04996 0.69414 0.39522 0.0
H729 H 0.04655 0.66912 0.56322 0.0
H730 H 0.98435 0.62518 0.56276 0.0
H731 H 0.96965 0.67335 0.44742 0.0
C732 C 0.10894 0.76959 0.44685 0.0
C733 C 0.14013 0.77885 0.46939 0.0
C734 C 0.13911 0.75985 0.50712 0.0
C735 C 0.10777 0.7319 0.52188 0.0
C736 C 0.0776 0.72325 0.49866 0.0
C737 C 0.07785 0.74154 0.46202 0.0
C738 C 0.0418 0.72643 0.44263 0.0
C739 C 0.02925 0.75298 0.44398 0.0
C740 C 0.04071 0.71321 0.39584 0.0
C741 C 0.02132 0.69671 0.47398 0.0
C742 C 0.04248 0.69541 0.50609 0.0
C743 C 0.02967 0.66995 0.53836 0.0
C744 C 0.99426 0.64509 0.5378 0.0
C745 C 0.97203 0.64583 0.50516 0.0
C746 C 0.98588 0.67212 0.47294 0.0
H747 H 0.3736 0.1364 0.49241 0.0
H748 H 0.3194 0.12299 0.36962 0.0
H749 H 0.30323 0.06156 0.36807 0.0
H750 H 0.40676 0.07713 0.46485 0.0
H751 H 0.40145 0.06039 0.51969 0.0
H752 H 0.41029 0.10411 0.51081 0.0
H753 H 0.3552 0.09059 0.55485 0.0
H754 H 0.34597 0.04675 0.56351 0.0
H755 H 0.31384 0.05467 0.5386 0.0
H756 H 0.28916 0.00174 0.38123 0.0
H757 H 0.28188 0.94597 0.40497 0.0
H758 H 0.34687 0.99575 0.51842 0.0
C759 C 0.35881 0.12057 0.46495 0.0
C760 C 0.34729 0.13443 0.43143 0.0
C761 C 0.32781 0.11285 0.39614 0.0
C762 C 0.31866 0.07792 0.39481 0.0
C763 C 0.32943 0.0648 0.42882 0.0
C764 C 0.34945 0.08534 0.46299 0.0
C765 C 0.35705 0.064 0.4954 0.0
C766 C 0.39622 0.0772 0.49782 0.0
C767 C 0.34212 0.06401 0.54077 0.0
C768 C 0.33767 0.02831 0.47423 0.0
C769 C 0.32193 0.02967 0.43595 0.0
C770 C 0.30161 1.00031 0.41093 0.0
C771 C 0.29748 0.96861 0.42498 0.0
C772 C 0.31377 0.96625 0.46367 0.0
C773 C 0.33418 0.99666 0.48865 0.0
H774 H 0.24148 0.38193 0.47343 0.0
H775 H 0.15892 0.27789 0.44165 0.0
H776 H 0.1988 0.25561 0.4544 0.0
H777 H 0.31011 0.37607 0.42368 0.0
H778 H 0.34167 0.40029 0.46539 0.0
H779 H 0.30636 0.40826 0.45533 0.0
H780 H 0.28829 0.39604 0.53681 0.0
H781 H 0.3236 0.38803 0.54713 0.0
H782 H 0.2798 0.35558 0.56092 0.0
H783 H 0.24795 0.24487 0.46561 0.0
H784 H 0.30363 0.24624 0.47618 0.0
H785 H 0.35408 0.35628 0.50508 0.0
C786 C 0.23149 0.35439 0.46975 0.0
C787 C 0.19685 0.33181 0.45617 0.0
C788 C 0.18532 0.29597 0.45121 0.0
C789 C 0.20775 0.28293 0.45878 0.0
C790 C 0.24163 0.30591 0.47179 0.0
C791 C 0.25349 0.34083 0.47752 0.0
C792 C 0.29147 0.35999 0.49075 0.0
C793 C 0.3137 0.38779 0.45676 0.0
C794 C 0.29605 0.37584 0.53664 0.0
C795 C 0.29919 0.33041 0.49072 0.0
C796 C 0.26997 0.29945 0.47972 0.0
C797 C 0.2709 0.26882 0.47484 0.0
C798 C 0.30262 0.26987 0.4808 0.0
C799 C 0.33293 0.30126 0.4919 0.0
C800 C 0.33107 0.33181 0.49759 0.0
H801 H 0.03555 0.3293 0.43945 0.0
H802 H 0.02065 0.3806 0.55148 0.0
H803 H 0.95894 0.33548 0.55435 0.0
H804 H 0.95313 0.30378 0.38853 0.0
H805 H 0.94699 0.26273 0.36951 0.0
H806 H 0.9902 0.29896 0.37639 0.0
H807 H 0.00524 0.26202 0.42774 0.0
H808 H 0.96203 0.22571 0.42115 0.0
H809 H 0.97857 0.24174 0.47511 0.0
H810 H 0.89908 0.28494 0.54556 0.0
H811 H 0.84442 0.23285 0.52443 0.0
H812 H 0.89752 0.21463 0.41737 0.0
C813 C 0.01933 0.33105 0.46461 0.0
C814 C 0.03303 0.35847 0.49535 0.0
C815 C 0.01085 0.35984 0.52763 0.0
C816 C 0.97573 0.3343 0.52957 0.0
C817 C 0.96311 0.30758 0.49896 0.0
C818 C 0.98414 0.3058 0.46698 0.0
C819 C 0.96387 0.2745 0.43773 0.0
C820 C 0.96353 0.28567 0.39023 0.0
C821 C 0.97829 0.24952 0.44063 0.0
C822 C 0.9282 0.25895 0.45839 0.0
C823 C 0.9284 0.27847 0.49367 0.0
C824 C 0.89856 0.26952 0.51787 0.0
C825 C 0.86758 0.23998 0.50545 0.0
C826 C 0.86658 0.21971 0.4691 0.0
C827 C 0.89747 0.22932 0.44555 0.0
H828 H 0.6422 1.00046 0.48955 0.0
H829 H 0.75309 0.05952 0.4653 0.0
H830 H 0.75484 0.00524 0.45838 0.0
H831 H 0.64162 0.92883 0.55081 0.0
H832 H 0.60188 0.89614 0.52602 0.0
H833 H 0.60947 0.93961 0.53311 0.0
H834 H 0.59974 0.9433 0.45017 0.0
H835 H 0.59185 0.89979 0.44305 0.0
H836 H 0.62499 0.93473 0.41125 0.0
H837 H 0.74464 0.94551 0.44971 0.0
H838 H 0.72286 0.88311 0.43938 0.0
H839 H 0.61813 0.86148 0.46689 0.0
C840 C 0.6669 0.00183 0.48374 0.0
C841 C 0.69759 0.03414 0.47829 0.0
C842 C 0.7293 0.03502 0.46957 0.0
C843 C 0.73059 0.00434 0.46572 0.0
C844 C 0.69988 0.9729 0.47041 0.0
C845 C 0.66858 0.97127 0.47918 0.0
C846 C 0.63914 0.9339 0.47977 0.0
C847 C 0.62202 0.92405 0.52514 0.0
C848 C 0.61235 0.92756 0.44392 0.0
C849 C 0.65884 0.91497 0.46972 0.0
C850 C 0.69385 0.93806 0.46467 0.0
C851 C 0.71728 0.92712 0.45376 0.0
C852 C 0.70461 0.89162 0.44761 0.0
C853 C 0.66879 0.86733 0.45219 0.0
C854 C 0.6457 0.87929 0.46377 0.0
H855 H 0.65609 0.65208 0.52416 0.0
H856 H 0.67257 0.72078 0.41455 0.0
H857 H 0.72324 0.71669 0.39196 0.0
H858 H 0.74635 0.68558 0.54917 0.0
H859 H 0.74171 0.64398 0.56231 0.0
H860 H 0.70572 0.65132 0.57014 0.0
H861 H 0.66723 0.59839 0.52098 0.0
H862 H 0.70314 0.5909 0.51303 0.0
H863 H 0.68156 0.59642 0.46644 0.0
H864 H 0.77248 0.70673 0.38102 0.0
H865 H 0.81819 0.69094 0.38249 0.0
H866 H 0.77181 0.62878 0.49875 0.0
C867 C 0.67032 0.66616 0.49538 0.0
C868 C 0.66025 0.68695 0.4714 0.0
C869 C 0.67967 0.70491 0.43385 0.0
C870 C 0.70857 0.70269 0.42052 0.0
C871 C 0.71792 0.6823 0.44487 0.0
C872 C 0.6995 0.66425 0.48144 0.0
C873 C 0.71577 0.64454 0.50172 0.0
C874 C 0.72812 0.65712 0.54862 0.0
C875 C 0.69041 0.60523 0.50045 0.0
C876 C 0.74626 0.65473 0.47099 0.0
C877 C 0.74679 0.67644 0.43842 0.0
C878 C 0.77245 0.68978 0.40639 0.0
C879 C 0.79849 0.68085 0.4077 0.0
C880 C 0.79885 0.65881 0.44085 0.0
C881 C 0.77214 0.64544 0.47276 0.0
H882 H 0.43836 0.2177 0.36562 0.0
H883 H 0.46679 0.32195 0.32596 0.0
H884 H 0.47992 0.30988 0.25135 0.0
H885 H 0.49905 0.20486 0.29337 0.0
H886 H 0.46665 0.16063 0.28159 0.0
H887 H 0.46649 0.17961 0.33364 0.0
H888 H 0.40275 0.16408 0.32084 0.0
H889 H 0.40273 0.14523 0.26879 0.0
H890 H 0.39176 0.1791 0.27193 0.0
H891 H 0.48425 0.28472 0.17971 0.0
H892 H 0.47492 0.24756 0.11533 0.0
H893 H 0.43925 0.15809 0.20034 0.0
C894 C 0.44876 0.23833 0.34158 0.0
C895 C 0.45281 0.27112 0.35155 0.0
C896 C 0.46446 0.297 0.31892 0.0
C897 C 0.47196 0.29034 0.27659 0.0
C898 C 0.46699 0.25743 0.26733 0.0
C899 C 0.45541 0.23175 0.29886 0.0
C900 C 0.44737 0.19725 0.27907 0.0
C901 C 0.47133 0.18487 0.29805 0.0
C902 C 0.40888 0.16982 0.28554 0.0
C903 C 0.4556 0.20736 0.23138 0.0
C904 C 0.46757 0.24234 0.22547 0.0
C905 C 0.47528 0.25739 0.18402 0.0
C906 C 0.46996 0.23606 0.14762 0.0
C907 C 0.45654 0.19995 0.15277 0.0
C908 C 0.4499 0.18565 0.19535 0.0
H909 H 0.21276 0.43674 0.14583 0.0
H910 H 0.32167 0.48794 0.17967 0.0
H911 H 0.30805 0.50062 0.25359 0.0
H912 H 0.18706 0.49053 0.2163 0.0
H913 H 0.14656 0.45274 0.23097 0.0
H914 H 0.16563 0.45516 0.1781 0.0
H915 H 0.16371 0.39701 0.19337 0.0
H916 H 0.14511 0.39455 0.24637 0.0
H917 H 0.18464 0.39282 0.24161 0.0
H918 H 0.28189 0.49966 0.3266 0.0
H919 H 0.24554 0.48441 0.39304 0.0
H920 H 0.15299 0.43127 0.31291 0.0
C921 C 0.23379 0.45229 0.16816 0.0
C922 C 0.26841 0.46277 0.15678 0.0
C923 C 0.29519 0.48091 0.18754 0.0
C924 C 0.28762 0.48805 0.22957 0.0
C925 C 0.25304 0.47639 0.24049 0.0
C926 C 0.22651 0.45897 0.21058 0.0
C927 C 0.19129 0.44472 0.23226 0.0
C928 C 0.17147 0.46182 0.21328 0.0
C929 C 0.16996 0.40494 0.22816 0.0
C930 C 0.20209 0.4559 0.27921 0.0
C931 C 0.23781 0.47465 0.28314 0.0
C932 C 0.2539 0.48557 0.32379 0.0
C933 C 0.23302 0.47674 0.3614 0.0
C934 C 0.19641 0.4569 0.35824 0.0
C935 C 0.18088 0.44695 0.31643 0.0
H936 H 0.86119 0.27167 0.18211 0.0
H937 H 0.76882 0.2531 0.11158 0.0
H938 H 0.73438 0.23132 0.17924 0.0
H939 H 0.82208 0.19634 0.24215 0.0
H940 H 0.8463 0.21437 0.29183 0.0
H941 H 0.86496 0.23388 0.24004 0.0
H942 H 0.8744 0.29306 0.26765 0.0
H943 H 0.85596 0.27373 0.31978 0.0
H944 H 0.83818 0.29592 0.28931 0.0
H945 H 0.70853 0.20409 0.25106 0.0
H946 H 0.6937 0.17466 0.32322 0.0
H947 H 0.80248 0.21121 0.3474 0.0
C948 C 0.83395 0.26405 0.18127 0.0
C949 C 0.81769 0.26431 0.14176 0.0
C950 C 0.78181 0.25327 0.14161 0.0
C951 C 0.76204 0.24095 0.17989 0.0
C952 C 0.7786 0.24001 0.21807 0.0
C953 C 0.81381 0.25153 0.2192 0.0
C954 C 0.82462 0.24471 0.26336 0.0
C955 C 0.8404 0.2209 0.25906 0.0
C956 C 0.84978 0.2789 0.28639 0.0
C957 C 0.78982 0.22652 0.28631 0.0
C958 C 0.76364 0.22441 0.2598 0.0
C959 C 0.72886 0.20626 0.27252 0.0
C960 C 0.72064 0.18964 0.3133 0.0
C961 C 0.74712 0.19149 0.34051 0.0
C962 C 0.78205 0.21036 0.32721 0.0
H963 H 0.56908 0.85156 0.21054 0.0
H964 H 0.51981 0.75959 0.12896 0.0
H965 H 0.50574 0.72286 0.1949 0.0
H966 H 0.61 0.82282 0.27987 0.0
H967 H 0.60476 0.84221 0.32895 0.0
H968 H 0.60571 0.86097 0.27658 0.0
H969 H 0.54607 0.8558 0.29266 0.0
H970 H 0.54503 0.83707 0.34529 0.0
H971 H 0.50971 0.81429 0.3074 0.0
H972 H 0.50644 0.69682 0.26755 0.0
H973 H 0.51973 0.68364 0.34128 0.0
H974 H 0.56594 0.79188 0.37693 0.0
C975 C 0.55431 0.82367 0.2066 0.0
C976 C 0.54523 0.80846 0.16447 0.0
C977 C 0.52665 0.77186 0.1608 0.0
C978 C 0.51858 0.75078 0.19815 0.0
C979 C 0.52888 0.76663 0.23907 0.0
C980 C 0.54598 0.80229 0.24357 0.0
C981 C 0.55702 0.81299 0.29066 0.0
C982 C 0.59671 0.83609 0.29419 0.0
C983 C 0.53833 0.83111 0.31015 0.0
C984 C 0.54458 0.77787 0.31173 0.0
C985 C 0.5282 0.75143 0.28144 0.0
C986 C 0.51819 0.71716 0.29183 0.0
C987 C 0.52573 0.70985 0.33378 0.0
C988 C 0.5426 0.73652 0.3651 0.0
C989 C 0.55147 0.77081 0.35419 0.0
H990 H 0.77627 0.55534 0.37522 0.0
H991 H 0.85405 0.52896 0.33702 0.0
H992 H 0.82938 0.51502 0.26233 0.0
H993 H 0.70388 0.49306 0.30163 0.0
H994 H 0.69114 0.52481 0.28959 0.0
H995 H 0.70972 0.52505 0.34207 0.0
H996 H 0.75695 0.58927 0.33039 0.0
H997 H 0.73863 0.5892 0.27802 0.0
H998 H 0.78368 0.60112 0.28204 0.0
H999 H 0.80122 0.51132 0.18966 0.0
H1000 H 0.77522 0.52253 0.12461 0.0
H1001 H 0.71793 0.55452 0.20926 0.0
C1002 C 0.787 0.54511 0.35155 0.0
C1003 C 0.81631 0.54214 0.36196 0.0
C1004 C 0.83107 0.53062 0.3297 0.0
C1005 C 0.81719 0.52261 0.28728 0.0
C1006 C 0.78882 0.52673 0.27748 0.0
C1007 C 0.77395 0.53785 0.30873 0.0
C1008 C 0.74725 0.54526 0.28836 0.0
C1009 C 0.71083 0.52056 0.30649 0.0
C1010 C 0.75724 0.58347 0.29509 0.0
C1011 C 0.75011 0.53754 0.24071 0.0
C1012 C 0.77363 0.52612 0.23518 0.0
C1013 C 0.78232 0.51969 0.19367 0.0
C1014 C 0.76734 0.52601 0.15686 0.0
C1015 C 0.74436 0.53913 0.16181 0.0
C1016 C 0.73505 0.54403 0.20439 0.0
H1017 H 0.2187 0.79174 0.13421 0.0
H1018 H 0.16404 0.68222 0.16488 0.0
H1019 H 0.1922 0.69502 0.23783 0.0
H1020 H 0.29997 0.81732 0.19769 0.0
H1021 H 0.30278 0.85728 0.21548 0.0
H1022 H 0.28376 0.83893 0.16318 0.0
H1023 H 0.22782 0.83951 0.18524 0.0
H1024 H 0.24649 0.85769 0.23754 0.0
H1025 H 0.20543 0.8179 0.23474 0.0
H1026 H 0.22112 0.7204 0.30991 0.0
H1027 H 0.24512 0.75595 0.37656 0.0
H1028 H 0.27858 0.84927 0.29971 0.0
C1029 C 0.21386 0.77049 0.15582 0.0
C1030 C 0.19027 0.73597 0.14394 0.0
C1031 C 0.18286 0.70872 0.17341 0.0
C1032 C 0.19871 0.7158 0.21474 0.0
C1033 C 0.2215 0.7503 0.22604 0.0
C1034 C 0.22898 0.77722 0.19741 0.0
C1035 C 0.25054 0.81213 0.21933 0.0
C1036 C 0.2864 0.83262 0.19763 0.0
C1037 C 0.23142 0.83301 0.21921 0.0
C1038 C 0.25333 0.80071 0.26508 0.0
C1039 C 0.237 0.76498 0.2681 0.0
C1040 C 0.23439 0.7484 0.30778 0.0
C1041 C 0.24814 0.76881 0.34548 0.0
C1042 C 0.26388 0.80537 0.34332 0.0
C1043 C 0.26707 0.82141 0.30236 0.0
H1044 H 0.55603 0.7562 0.67571 0.0
H1045 H 0.66714 0.80629 0.6515 0.0
H1046 H 0.67836 0.82724 0.72706 0.0
H1047 H 0.56171 0.82694 0.74192 0.0
H1048 H 0.52723 0.7987 0.77837 0.0
H1049 H 0.52734 0.78575 0.72256 0.0
H1050 H 0.52413 0.7291 0.7497 0.0
H1051 H 0.52428 0.742 0.8056 0.0
H1052 H 0.55652 0.73155 0.78726 0.0
H1053 H 0.67832 0.84108 0.80593 0.0
H1054 H 0.66729 0.85235 0.88097 0.0
H1055 H 0.55657 0.80015 0.85364 0.0
C1056 C 0.58278 0.77179 0.68595 0.0
C1057 C 0.61059 0.77856 0.65711 0.0
C1058 C 0.64511 0.79923 0.67267 0.0
C1059 C 0.6519 0.8117 0.71573 0.0
C1060 C 0.62401 0.80408 0.74316 0.0
C1061 C 0.59014 0.78513 0.72883 0.0
C1062 C 0.5651 0.78204 0.76488 0.0
C1063 C 0.54411 0.7994 0.75111 0.0
C1064 C 0.54109 0.7439 0.7776 0.0
C1065 C 0.5903 0.80206 0.80163 0.0
C1066 C 0.62409 0.81416 0.78831 0.0
C1067 C 0.65199 0.83235 0.81649 0.0
C1068 C 0.64536 0.83895 0.85919 0.0
C1069 C 0.61104 0.8281 0.87366 0.0
C1070 C 0.58315 0.80898 0.84418 0.0
H1071 H 0.79323 0.54713 0.6742 0.0
H1072 H 0.83936 0.65676 0.64327 0.0
H1073 H 0.82712 0.66815 0.71765 0.0
H1074 H 0.72249 0.54429 0.74084 0.0
H1075 H 0.72242 0.51342 0.77903 0.0
H1076 H 0.73491 0.51337 0.72297 0.0
H1077 H 0.79328 0.51992 0.74911 0.0
H1078 H 0.78115 0.52038 0.80521 0.0
H1079 H 0.82109 0.55568 0.78423 0.0
H1080 H 0.8158 0.66921 0.79667 0.0
H1081 H 0.79793 0.65906 0.87324 0.0
H1082 H 0.75042 0.54772 0.85225 0.0
C1083 C 0.80033 0.57346 0.68276 0.0
C1084 C 0.81837 0.60114 0.65278 0.0
C1085 C 0.82693 0.63517 0.66574 0.0
C1086 C 0.81976 0.64197 0.70797 0.0
C1087 C 0.80309 0.61442 0.73693 0.0
C1088 C 0.79265 0.58072 0.72478 0.0
C1089 C 0.77422 0.55594 0.76245 0.0
C1090 C 0.73625 0.53023 0.75061 0.0
C1091 C 0.7936 0.53686 0.77604 0.0
C1092 C 0.77665 0.58119 0.7977 0.0
C1093 C 0.79377 0.61476 0.78217 0.0
C1094 C 0.80135 0.64293 0.80893 0.0
C1095 C 0.7906 0.6367 0.85262 0.0
C1096 C 0.77146 0.6024 0.8694 0.0
C1097 C 0.76474 0.57432 0.84115 0.0
H1098 H 0.26085 0.84504 0.67533 0.0
H1099 H 0.19708 0.75115 0.60112 0.0
H1100 H 0.16796 0.72053 0.66908 0.0
H1101 H 0.27304 0.80289 0.76838 0.0
H1102 H 0.27109 0.83192 0.80795 0.0
H1103 H 0.28633 0.84696 0.75333 0.0
H1104 H 0.23984 0.86544 0.74454 0.0
H1105 H 0.22453 0.85054 0.79919 0.0
H1106 H 0.1948 0.83405 0.75377 0.0
H1107 H 0.14571 0.69995 0.74481 0.0
H1108 H 0.1328 0.69041 0.82382 0.0
H1109 H 0.21151 0.79713 0.84967 0.0
C1110 C 0.24062 0.81811 0.67351 0.0
C1111 C 0.23134 0.80037 0.63305 0.0
C1112 C 0.2049 0.76506 0.63188 0.0
C1113 C 0.18809 0.74751 0.67025 0.0
C1114 C 0.19807 0.76554 0.70968 0.0
C1115 C 0.22377 0.80001 0.71169 0.0
C1116 C 0.23001 0.813 0.75852 0.0
C1117 C 0.26734 0.82436 0.77288 0.0
C1118 C 0.2218 0.8425 0.76433 0.0
C1119 C 0.20386 0.78046 0.7824 0.0
C1120 C 0.18557 0.75347 0.75355 0.0
C1121 C 0.15983 0.7209 0.76774 0.0
C1122 C 0.15257 0.71577 0.81265 0.0
C1123 C 0.17111 0.74299 0.84293 0.0
C1124 C 0.19713 0.77571 0.82739 0.0
H1125 H 0.43811 0.22439 0.85692 0.0
H1126 H 0.3916 0.11305 0.83959 0.0
H1127 H 0.38666 0.11987 0.76051 0.0
H1128 H 0.38689 0.23752 0.77814 0.0
H1129 H 0.42181 0.27819 0.75835 0.0
H1130 H 0.42242 0.26492 0.81381 0.0
H1131 H 0.48285 0.27115 0.80068 0.0
H1132 H 0.48249 0.28457 0.7452 0.0
H1133 H 0.48872 0.24819 0.75588 0.0
H1134 H 0.38462 0.13804 0.68376 0.0
H1135 H 0.38754 0.1672 0.6136 0.0
H1136 H 0.43733 0.26683 0.67913 0.0
C1137 C 0.42731 0.20147 0.83649 0.0
C1138 C 0.41495 0.16809 0.85483 0.0
C1139 C 0.40062 0.13881 0.8267 0.0
C1140 C 0.39791 0.14242 0.78159 0.0
C1141 C 0.40991 0.17553 0.76475 0.0
C1142 C 0.42455 0.20461 0.79118 0.0
C1143 C 0.43519 0.2372 0.76457 0.0
C1144 C 0.41539 0.25552 0.77962 0.0
C1145 C 0.47466 0.26172 0.76671 0.0
C1146 C 0.4239 0.22181 0.71919 0.0
C1147 C 0.40937 0.18615 0.72012 0.0
C1148 C 0.39617 0.16595 0.68255 0.0
C1149 C 0.39788 0.18263 0.64297 0.0
C1150 C 0.41279 0.21905 0.6413 0.0
C1151 C 0.42606 0.23892 0.67978 0.0
H1152 H 0.25549 0.4531 0.84621 0.0
H1153 H 0.1985 0.34208 0.87195 0.0
H1154 H 0.17761 0.33141 0.79658 0.0
H1155 H 0.18605 0.45133 0.78105 0.0
H1156 H 0.21524 0.48476 0.74408 0.0
H1157 H 0.22826 0.48424 0.79971 0.0
H1158 H 0.28303 0.48377 0.77175 0.0
H1159 H 0.27 0.48394 0.71601 0.0
H1160 H 0.27826 0.45026 0.73444 0.0
H1161 H 0.16524 0.33165 0.71789 0.0
H1162 H 0.15421 0.34294 0.64307 0.0
H1163 H 0.21059 0.45387 0.66931 0.0
C1164 C 0.23844 0.42652 0.83635 0.0
C1165 C 0.22994 0.39848 0.86542 0.0
C1166 C 0.20718 0.36417 0.85046 0.0
C1167 C 0.19469 0.3577 0.80753 0.0
C1168 C 0.20419 0.38574 0.7798 0.0
C1169 C 0.22482 0.41951 0.79368 0.0
C1170 C 0.22907 0.44482 0.75753 0.0
C1171 C 0.21373 0.46763 0.77143 0.0
C1172 C 0.26737 0.46701 0.74415 0.0
C1173 C 0.20777 0.41982 0.72126 0.0
C1174 C 0.19422 0.38593 0.73486 0.0
C1175 C 0.17493 0.35807 0.70713 0.0
C1176 C 0.16846 0.36488 0.66459 0.0
C1177 C 0.18035 0.39935 0.65008 0.0
C1178 C 0.20083 0.42719 0.67896 0.0
H1179 H 0.84715 0.23835 0.81674 0.0
H1180 H 0.76524 0.25645 0.86293 0.0
H1181 H 0.73615 0.2383 0.79126 0.0
H1182 H 0.84875 0.26699 0.70317 0.0
H1183 H 0.85632 0.23391 0.68054 0.0
H1184 H 0.87212 0.25087 0.7344 0.0
H1185 H 0.83911 0.18854 0.76586 0.0
H1186 H 0.82285 0.17142 0.71224 0.0
H1187 H 0.79302 0.16227 0.75689 0.0
H1188 H 0.71413 0.21512 0.71691 0.0
H1189 H 0.70155 0.19035 0.64254 0.0
H1190 H 0.79759 0.18714 0.64358 0.0
C1191 C 0.82348 0.23915 0.81131 0.0
C1192 C 0.80838 0.24879 0.84521 0.0
C1193 C 0.77707 0.24896 0.83735 0.0
C1194 C 0.76041 0.23876 0.79679 0.0
C1195 C 0.77541 0.22848 0.76439 0.0
C1196 C 0.80634 0.22881 0.77095 0.0
C1197 C 0.81604 0.21518 0.73105 0.0
C1198 C 0.85034 0.24343 0.71111 0.0
C1199 C 0.81785 0.18241 0.7422 0.0
C1200 C 0.78553 0.20682 0.70139 0.0
C1201 C 0.76251 0.21483 0.72128 0.0
C1202 C 0.73211 0.20902 0.70078 0.0
C1203 C 0.72522 0.195 0.65853 0.0
C1204 C 0.74858 0.18688 0.63718 0.0
C1205 C 0.77904 0.19273 0.65917 0.0
loop_
_geom_bond_atom_site_label_1
_geom_bond_atom_site_label_2
_geom_bond_distance
_geom_bond_site_symmetry_2
_ccdc_geom_bond_type
Co0 N4 2.148 . S
Co0 N10 2.128 . S
Co0 N20 2.194 1_554 S
Co0 O25 2.351 . S
Co0 O26 2.155 . S
Co0 O27 2.096 . S
C1 N4 1.301 . S
C1 N5 1.328 . S
C1 H6 0.930 . S
C2 C3 1.333 . S
C2 N4 1.317 . S
C2 H7 0.930 . S
C3 C2 1.333 . S
C3 N5 1.350 . S
C3 H29 0.931 . S
N4 Co0 2.148 . S
N4 C1 1.301 . S
N4 C2 1.317 . S
N5 C1 1.328 . S
N5 C3 1.350 . S
H6 C1 0.930 . S
H7 C2 0.930 . S
C8 O9 1.224 1_554 S
C8 O27 1.247 . S
O9 C8 1.224 1_556 S
N10 Co0 2.128 . S
N10 C11 1.355 . S
N10 C13 1.311 . S
C11 N10 1.355 . S
C11 C12 1.363 . S
C11 H23 0.929 . S
C12 C11 1.363 . S
C12 N14 1.375 . S
C12 H30 0.931 . S
C13 N10 1.311 . S
C13 N14 1.347 . S
C13 H24 0.929 . S
N14 C12 1.375 . S
N14 C13 1.347 . S
C15 C18 1.365 . S
C15 N20 1.328 . S
C15 H21 0.929 1_556 S
C16 C17 1.362 . S
C16 C19 1.378 . S
C16 H31 0.929 . S
C17 C16 1.362 . S
C17 C18 1.366 . S
C18 C15 1.365 . S
C18 C17 1.366 . S
C18 H32 0.930 . S
C19 C16 1.378 . S
C19 N20 1.315 . S
C19 H22 0.930 . S
N20 Co0 2.194 1_556 S
N20 C15 1.328 . S
N20 C19 1.315 . S
H21 C15 0.929 1_554 S
H22 C19 0.930 . S
H23 C11 0.929 . S
H24 C13 0.929 . S
O25 Co0 2.351 . S
O25 C28 1.244 . S
O26 Co0 2.155 . S
O26 C28 1.240 . S
O27 Co0 2.096 . S
O27 C8 1.247 . S
C28 O25 1.244 . S
C28 O26 1.240 . S
H29 C3 0.931 . S
H30 C12 0.931 . S
H31 C16 0.929 . S
H32 C18 0.930 . S
Co33 N37 2.148 . S
Co33 N43 2.128 . S
Co33 N53 2.194 1_554 S
Co33 O58 2.351 . S
Co33 O59 2.155 . S
Co33 O60 2.096 . S
C34 N37 1.301 . S
C34 N38 1.328 . S
C34 H39 0.930 . S
C35 C36 1.333 . S
C35 N37 1.317 . S
C35 H40 0.930 . S
C36 C35 1.333 . S
C36 N38 1.350 . S
C36 H62 0.931 . S
N37 Co33 2.148 . S
N37 C34 1.301 . S
N37 C35 1.317 . S
N38 C34 1.328 . S
N38 C36 1.350 . S
H39 C34 0.930 . S
H40 C35 0.930 . S
C41 O42 1.224 1_554 S
C41 O60 1.247 . S
O42 C41 1.224 1_556 S
N43 Co33 2.128 . S
N43 C44 1.355 . S
N43 C46 1.311 . S
C44 N43 1.355 . S
C44 C45 1.363 . S
C44 H56 0.929 . S
C45 C44 1.363 . S
C45 N47 1.375 . S
C45 H63 0.931 . S
C46 N43 1.311 . S
C46 N47 1.347 . S
C46 H57 0.929 . S
N47 C45 1.375 . S
N47 C46 1.347 . S
C48 C51 1.365 . S
C48 N53 1.328 . S
C48 H54 0.929 1_556 S
C49 C50 1.362 . S
C49 C52 1.378 . S
C49 H64 0.929 . S
C50 C49 1.362 . S
C50 C51 1.366 . S
C51 C48 1.365 . S
C51 C50 1.366 . S
C51 H65 0.930 . S
C52 C49 1.378 . S
C52 N53 1.315 . S
C52 H55 0.930 . S
N53 Co33 2.194 1_556 S
N53 C48 1.328 . S
N53 C52 1.315 . S
H54 C48 0.929 1_554 S
H55 C52 0.930 . S
H56 C44 0.929 . S
H57 C46 0.929 . S
O58 Co33 2.351 . S
O58 C61 1.244 . S
O59 Co33 2.155 . S
O59 C61 1.240 . S
O60 Co33 2.096 . S
O60 C41 1.247 . S
C61 O58 1.244 . S
C61 O59 1.240 . S
H62 C36 0.931 . S
H63 C45 0.931 . S
H64 C49 0.929 . S
H65 C51 0.930 . S
Co66 N70 2.148 . S
Co66 N76 2.128 . S
Co66 N86 2.194 1_554 S
Co66 O91 2.351 . S
Co66 O92 2.155 . S
Co66 O93 2.096 . S
C67 N70 1.301 . S
C67 N71 1.328 . S
C67 H72 0.930 . S
C68 C69 1.333 . S
C68 N70 1.317 . S
C68 H73 0.930 . S
C69 C68 1.333 . S
C69 N71 1.350 . S
C69 H95 0.931 . S
N70 Co66 2.148 . S
N70 C67 1.301 . S
N70 C68 1.317 . S
N71 C67 1.328 . S
N71 C69 1.350 . S
H72 C67 0.930 . S
H73 C68 0.930 . S
C74 O75 1.224 1_554 S
C74 O93 1.247 . S
O75 C74 1.224 1_556 S
N76 Co66 2.128 . S
N76 C77 1.355 . S
N76 C79 1.311 . S
C77 N76 1.355 . S
C77 C78 1.363 . S
C77 H89 0.929 . S
C78 C77 1.363 . S
C78 N80 1.375 . S
C78 H96 0.931 . S
C79 N76 1.311 . S
C79 N80 1.347 . S
C79 H90 0.929 . S
N80 C78 1.375 . S
N80 C79 1.347 . S
C81 C84 1.365 . S
C81 N86 1.328 . S
C81 H87 0.929 1_556 S
C82 C83 1.362 . S
C82 C85 1.378 . S
C82 H97 0.929 . S
C83 C82 1.362 . S
C83 C84 1.366 . S
C84 C81 1.365 . S
C84 C83 1.366 . S
C84 H98 0.930 . S
C85 C82 1.378 . S
C85 N86 1.315 . S
C85 H88 0.930 . S
N86 Co66 2.194 1_556 S
N86 C81 1.328 . S
N86 C85 1.315 . S
H87 C81 0.929 1_554 S
H88 C85 0.930 . S
H89 C77 0.929 . S
H90 C79 0.929 . S
O91 Co66 2.351 . S
O91 C94 1.244 . S
O92 Co66 2.155 . S
O92 C94 1.240 . S
O93 Co66 2.096 . S
O93 C74 1.247 . S
C94 O91 1.244 . S
C94 O92 1.240 . S
H95 C69 0.931 . S
H96 C78 0.931 . S
H97 C82 0.929 . S
H98 C84 0.930 . S
Co99 N103 2.148 . S
Co99 N109 2.128 . S
Co99 N119 2.194 1_554 S
Co99 O124 2.351 . S
Co99 O125 2.155 . S
Co99 O126 2.096 . S
C100 N103 1.301 . S
C100 N104 1.328 . S
C100 H105 0.930 . S
C101 C102 1.333 . S
C101 N103 1.317 . S
C101 H106 0.930 . S
C102 C101 1.333 . S
C102 N104 1.350 . S
C102 H128 0.931 . S
N103 Co99 2.148 . S
N103 C100 1.301 . S
N103 C101 1.317 . S
N104 C100 1.328 . S
N104 C102 1.350 . S
H105 C100 0.930 . S
H106 C101 0.930 . S
C107 O108 1.224 1_554 S
C107 O126 1.247 . S
O108 C107 1.224 1_556 S
N109 Co99 2.128 . S
N109 C110 1.355 . S
N109 C112 1.311 . S
C110 N109 1.355 . S
C110 C111 1.363 . S
C110 H122 0.929 . S
C111 C110 1.363 . S
C111 N113 1.375 . S
C111 H129 0.931 . S
C112 N109 1.311 . S
C112 N113 1.347 . S
C112 H123 0.929 . S
N113 C111 1.375 . S
N113 C112 1.347 . S
C114 C117 1.365 . S
C114 N119 1.328 . S
C114 H120 0.929 1_556 S
C115 C116 1.362 . S
C115 C118 1.378 . S
C115 H130 0.929 . S
C116 C115 1.362 . S
C116 C117 1.366 . S
C117 C114 1.365 . S
C117 C116 1.366 . S
C117 H131 0.930 . S
C118 C115 1.378 . S
C118 N119 1.315 . S
C118 H121 0.930 . S
N119 Co99 2.194 1_556 S
N119 C114 1.328 . S
N119 C118 1.315 . S
H120 C114 0.929 1_554 S
H121 C118 0.930 . S
H122 C110 0.929 . S
H123 C112 0.929 . S
O124 Co99 2.351 . S
O124 C127 1.244 . S
O125 Co99 2.155 . S
O125 C127 1.240 . S
O126 Co99 2.096 . S
O126 C107 1.247 . S
C127 O124 1.244 . S
C127 O125 1.240 . S
H128 C102 0.931 . S
H129 C111 0.931 . S
H130 C115 0.929 . S
H131 C117 0.930 . S
Co132 N136 2.148 . S
Co132 N142 2.128 . S
Co132 N152 2.194 1_554 S
Co132 O157 2.351 . S
Co132 O158 2.155 . S
Co132 O159 2.096 . S
C133 N136 1.301 . S
C133 N137 1.328 . S
C133 H138 0.930 . S
C134 C135 1.333 . S
C134 N136 1.317 . S
C134 H139 0.930 . S
C135 C134 1.333 . S
C135 N137 1.350 . S
C135 H161 0.931 . S
N136 Co132 2.148 . S
N136 C133 1.301 . S
N136 C134 1.317 . S
N137 C133 1.328 . S
N137 C135 1.350 . S
H138 C133 0.930 . S
H139 C134 0.930 . S
C140 O141 1.224 1_554 S
C140 O159 1.247 . S
O141 C140 1.224 1_556 S
N142 Co132 2.128 . S
N142 C143 1.355 . S
N142 C145 1.311 . S
C143 N142 1.355 . S
C143 C144 1.363 . S
C143 H155 0.929 . S
C144 C143 1.363 . S
C144 N146 1.375 . S
C144 H162 0.931 . S
C145 N142 1.311 . S
C145 N146 1.347 . S
C145 H156 0.929 . S
N146 C144 1.375 . S
N146 C145 1.347 . S
C147 C150 1.365 . S
C147 N152 1.328 . S
C147 H153 0.929 1_556 S
C148 C149 1.362 . S
C148 C151 1.378 . S
C148 H163 0.929 . S
C149 C148 1.362 . S
C149 C150 1.366 . S
C150 C147 1.365 . S
C150 C149 1.366 . S
C150 H164 0.930 . S
C151 C148 1.378 . S
C151 N152 1.315 . S
C151 H154 0.930 . S
N152 Co132 2.194 1_556 S
N152 C147 1.328 . S
N152 C151 1.315 . S
H153 C147 0.929 1_554 S
H154 C151 0.930 . S
H155 C143 0.929 . S
H156 C145 0.929 . S
O157 Co132 2.351 . S
O157 C160 1.244 . S
O158 Co132 2.155 . S
O158 C160 1.240 . S
O159 Co132 2.096 . S
O159 C140 1.247 . S
C160 O157 1.244 . S
C160 O158 1.240 . S
H161 C135 0.931 . S
H162 C144 0.931 . S
H163 C148 0.929 . S
H164 C150 0.930 . S
Co165 N169 2.148 . S
Co165 N175 2.128 . S
Co165 N185 2.194 1_554 S
Co165 O190 2.351 . S
Co165 O191 2.155 . S
Co165 O192 2.096 . S
C166 N169 1.301 . S
C166 N170 1.328 . S
C166 H171 0.930 . S
C167 C168 1.333 . S
C167 N169 1.317 . S
C167 H172 0.930 . S
C168 C167 1.333 . S
C168 N170 1.350 . S
C168 H194 0.931 . S
N169 Co165 2.148 . S
N169 C166 1.301 . S
N169 C167 1.317 . S
N170 C166 1.328 . S
N170 C168 1.350 . S
H171 C166 0.930 . S
H172 C167 0.930 . S
C173 O174 1.224 1_554 S
C173 O192 1.247 . S
O174 C173 1.224 1_556 S
N175 Co165 2.128 . S
N175 C176 1.355 . S
N175 C178 1.311 . S
C176 N175 1.355 . S
C176 C177 1.363 . S
C176 H188 0.929 . S
C177 C176 1.363 . S
C177 N179 1.375 . S
C177 H195 0.931 . S
C178 N175 1.311 . S
C178 N179 1.347 . S
C178 H189 0.929 . S
N179 C177 1.375 . S
N179 C178 1.347 . S
C180 C183 1.365 . S
C180 N185 1.328 . S
C180 H186 0.929 1_556 S
C181 C182 1.362 . S
C181 C184 1.378 . S
C181 H196 0.929 . S
C182 C181 1.362 . S
C182 C183 1.366 . S
C183 C180 1.365 . S
C183 C182 1.366 . S
C183 H197 0.930 . S
C184 C181 1.378 . S
C184 N185 1.315 . S
C184 H187 0.930 . S
N185 Co165 2.194 1_556 S
N185 C180 1.328 . S
N185 C184 1.315 . S
H186 C180 0.929 1_554 S
H187 C184 0.930 . S
H188 C176 0.929 . S
H189 C178 0.929 . S
O190 Co165 2.351 . S
O190 C193 1.244 . S
O191 Co165 2.155 . S
O191 C193 1.240 . S
O192 Co165 2.096 . S
O192 C173 1.247 . S
C193 O190 1.244 . S
C193 O191 1.240 . S
H194 C168 0.931 . S
H195 C177 0.931 . S
H196 C181 0.929 . S
H197 C183 0.930 . S
Co198 N202 2.148 . S
Co198 N208 2.128 . S
Co198 N218 2.194 . S
Co198 O223 2.351 . S
Co198 O224 2.155 . S
Co198 O225 2.096 . S
C199 N202 1.301 . S
C199 N203 1.328 . S
C199 H204 0.930 . S
C200 C201 1.333 . S
C200 N202 1.317 . S
C200 H205 0.930 . S
C201 C200 1.333 . S
C201 N203 1.350 . S
C201 H227 0.931 . S
N202 Co198 2.148 . S
N202 C199 1.301 . S
N202 C200 1.317 . S
N203 C199 1.328 . S
N203 C201 1.350 . S
H204 C199 0.930 . S
H205 C200 0.930 . S
C206 O207 1.224 . S
C206 O225 1.247 . S
O207 C206 1.224 . S
N208 Co198 2.128 . S
N208 C209 1.355 . S
N208 C211 1.311 . S
C209 N208 1.355 . S
C209 C210 1.363 . S
C209 H221 0.929 . S
C210 C209 1.363 . S
C210 N212 1.375 . S
C210 H228 0.931 . S
C211 N208 1.311 . S
C211 N212 1.347 . S
C211 H222 0.929 . S
N212 C210 1.375 . S
N212 C211 1.347 . S
C213 C216 1.365 . S
C213 N218 1.328 . S
C213 H219 0.929 . S
C214 C215 1.362 . S
C214 C217 1.378 . S
C214 H229 0.929 . S
C215 C214 1.362 . S
C215 C216 1.366 . S
C216 C213 1.365 . S
C216 C215 1.366 . S
C216 H230 0.930 . S
C217 C214 1.378 . S
C217 N218 1.315 . S
C217 H220 0.930 . S
N218 Co198 2.194 . S
N218 C213 1.328 . S
N218 C217 1.315 . S
H219 C213 0.929 . S
H220 C217 0.930 . S
H221 C209 0.929 . S
H222 C211 0.929 . S
O223 Co198 2.351 . S
O223 C226 1.244 . S
O224 Co198 2.155 . S
O224 C226 1.240 . S
O225 Co198 2.096 . S
O225 C206 1.247 . S
C226 O223 1.244 . S
C226 O224 1.240 . S
H227 C201 0.931 . S
H228 C210 0.931 . S
H229 C214 0.929 . S
H230 C216 0.930 . S
Co231 N235 2.148 . S
Co231 N241 2.128 . S
Co231 N251 2.194 . S
Co231 O256 2.351 . S
Co231 O257 2.155 . S
Co231 O258 2.096 . S
C232 N235 1.301 . S
C232 N236 1.328 . S
C232 H237 0.930 . S
C233 C234 1.333 . S
C233 N235 1.317 . S
C233 H238 0.930 . S
C234 C233 1.333 . S
C234 N236 1.350 . S
C234 H260 0.931 . S
N235 Co231 2.148 . S
N235 C232 1.301 . S
N235 C233 1.317 . S
N236 C232 1.328 . S
N236 C234 1.350 . S
H237 C232 0.930 . S
H238 C233 0.930 . S
C239 O240 1.224 . S
C239 O258 1.247 . S
O240 C239 1.224 . S
N241 Co231 2.128 . S
N241 C242 1.355 . S
N241 C244 1.311 . S
C242 N241 1.355 . S
C242 C243 1.363 . S
C242 H254 0.929 . S
C243 C242 1.363 . S
C243 N245 1.375 . S
C243 H261 0.931 . S
C244 N241 1.311 . S
C244 N245 1.347 . S
C244 H255 0.929 . S
N245 C243 1.375 . S
N245 C244 1.347 . S
C246 C249 1.365 . S
C246 N251 1.328 . S
C246 H252 0.929 . S
C247 C248 1.362 . S
C247 C250 1.378 . S
C247 H262 0.929 . S
C248 C247 1.362 . S
C248 C249 1.366 . S
C249 C246 1.365 . S
C249 C248 1.366 . S
C249 H263 0.930 . S
C250 C247 1.378 . S
C250 N251 1.315 . S
C250 H253 0.930 . S
N251 Co231 2.194 . S
N251 C246 1.328 . S
N251 C250 1.315 . S
H252 C246 0.929 . S
H253 C250 0.930 . S
H254 C242 0.929 . S
H255 C244 0.929 . S
O256 Co231 2.351 . S
O256 C259 1.244 . S
O257 Co231 2.155 . S
O257 C259 1.240 . S
O258 Co231 2.096 . S
O258 C239 1.247 . S
C259 O256 1.244 . S
C259 O257 1.240 . S
H260 C234 0.931 . S
H261 C243 0.931 . S
H262 C247 0.929 . S
H263 C249 0.930 . S
Co264 N268 2.148 . S
Co264 N274 2.128 . S
Co264 N284 2.194 . S
Co264 O289 2.351 . S
Co264 O290 2.155 . S
Co264 O291 2.096 . S
C265 N268 1.301 . S
C265 N269 1.328 . S
C265 H270 0.930 . S
C266 C267 1.333 . S
C266 N268 1.317 . S
C266 H271 0.930 . S
C267 C266 1.333 . S
C267 N269 1.350 . S
C267 H293 0.931 . S
N268 Co264 2.148 . S
N268 C265 1.301 . S
N268 C266 1.317 . S
N269 C265 1.328 . S
N269 C267 1.350 . S
H270 C265 0.930 . S
H271 C266 0.930 . S
C272 O273 1.224 . S
C272 O291 1.247 . S
O273 C272 1.224 . S
N274 Co264 2.128 . S
N274 C275 1.355 . S
N274 C277 1.311 . S
C275 N274 1.355 . S
C275 C276 1.363 . S
C275 H287 0.929 . S
C276 C275 1.363 . S
C276 N278 1.375 . S
C276 H294 0.931 . S
C277 N274 1.311 . S
C277 N278 1.347 . S
C277 H288 0.929 . S
N278 C276 1.375 . S
N278 C277 1.347 . S
C279 C282 1.365 . S
C279 N284 1.328 . S
C279 H285 0.929 . S
C280 C281 1.362 . S
C280 C283 1.378 . S
C280 H295 0.929 . S
C281 C280 1.362 . S
C281 C282 1.366 . S
C282 C279 1.365 . S
C282 C281 1.366 . S
C282 H296 0.930 . S
C283 C280 1.378 . S
C283 N284 1.315 . S
C283 H286 0.930 . S
N284 Co264 2.194 . S
N284 C279 1.328 . S
N284 C283 1.315 . S
H285 C279 0.929 . S
H286 C283 0.930 . S
H287 C275 0.929 . S
H288 C277 0.929 . S
O289 Co264 2.351 . S
O289 C292 1.244 . S
O290 Co264 2.155 . S
O290 C292 1.240 . S
O291 Co264 2.096 . S
O291 C272 1.247 . S
C292 O289 1.244 . S
C292 O290 1.240 . S
H293 C267 0.931 . S
H294 C276 0.931 . S
H295 C280 0.929 . S
H296 C282 0.930 . S
Co297 N301 2.148 . S
Co297 N307 2.128 . S
Co297 N317 2.194 . S
Co297 O322 2.351 . S
Co297 O323 2.155 . S
Co297 O324 2.096 . S
C298 N301 1.301 . S
C298 N302 1.328 . S
C298 H303 0.930 . S
C299 C300 1.333 . S
C299 N301 1.317 . S
C299 H304 0.930 . S
C300 C299 1.333 . S
C300 N302 1.350 . S
C300 H326 0.931 . S
N301 Co297 2.148 . S
N301 C298 1.301 . S
N301 C299 1.317 . S
N302 C298 1.328 . S
N302 C300 1.350 . S
H303 C298 0.930 . S
H304 C299 0.930 . S
C305 O306 1.224 . S
C305 O324 1.247 . S
O306 C305 1.224 . S
N307 Co297 2.128 . S
N307 C308 1.355 . S
N307 C310 1.311 . S
C308 N307 1.355 . S
C308 C309 1.363 . S
C308 H320 0.929 . S
C309 C308 1.363 . S
C309 N311 1.375 . S
C309 H327 0.931 . S
C310 N307 1.311 . S
C310 N311 1.347 . S
C310 H321 0.929 . S
N311 C309 1.375 . S
N311 C310 1.347 . S
C312 C315 1.365 . S
C312 N317 1.328 . S
C312 H318 0.929 . S
C313 C314 1.362 . S
C313 C316 1.378 . S
C313 H328 0.929 . S
C314 C313 1.362 . S
C314 C315 1.366 . S
C315 C312 1.365 . S
C315 C314 1.366 . S
C315 H329 0.930 . S
C316 C313 1.378 . S
C316 N317 1.315 . S
C316 H319 0.930 . S
N317 Co297 2.194 . S
N317 C312 1.328 . S
N317 C316 1.315 . S
H318 C312 0.929 . S
H319 C316 0.930 . S
H320 C308 0.929 . S
H321 C310 0.929 . S
O322 Co297 2.351 . S
O322 C325 1.244 . S
O323 Co297 2.155 . S
O323 C325 1.240 . S
O324 Co297 2.096 . S
O324 C305 1.247 . S
C325 O322 1.244 . S
C325 O323 1.240 . S
H326 C300 0.931 . S
H327 C309 0.931 . S
H328 C313 0.929 . S
H329 C315 0.930 . S
Co330 N334 2.148 . S
Co330 N340 2.128 . S
Co330 N350 2.194 . S
Co330 O355 2.351 . S
Co330 O356 2.155 . S
Co330 O357 2.096 . S
C331 N334 1.301 . S
C331 N335 1.328 . S
C331 H336 0.930 . S
C332 C333 1.333 . S
C332 N334 1.317 . S
C332 H337 0.930 . S
C333 C332 1.333 . S
C333 N335 1.350 . S
C333 H359 0.931 . S
N334 Co330 2.148 . S
N334 C331 1.301 . S
N334 C332 1.317 . S
N335 C331 1.328 . S
N335 C333 1.350 . S
H336 C331 0.930 . S
H337 C332 0.930 . S
C338 O339 1.224 . S
C338 O357 1.247 . S
O339 C338 1.224 . S
N340 Co330 2.128 . S
N340 C341 1.355 . S
N340 C343 1.311 . S
C341 N340 1.355 . S
C341 C342 1.363 . S
C341 H353 0.929 . S
C342 C341 1.363 . S
C342 N344 1.375 . S
C342 H360 0.931 . S
C343 N340 1.311 . S
C343 N344 1.347 . S
C343 H354 0.929 . S
N344 C342 1.375 . S
N344 C343 1.347 . S
C345 C348 1.365 . S
C345 N350 1.328 . S
C345 H351 0.929 . S
C346 C347 1.362 . S
C346 C349 1.378 . S
C346 H361 0.929 . S
C347 C346 1.362 . S
C347 C348 1.366 . S
C348 C345 1.365 . S
C348 C347 1.366 . S
C348 H362 0.930 . S
C349 C346 1.378 . S
C349 N350 1.315 . S
C349 H352 0.930 . S
N350 Co330 2.194 . S
N350 C345 1.328 . S
N350 C349 1.315 . S
H351 C345 0.929 . S
H352 C349 0.930 . S
H353 C341 0.929 . S
H354 C343 0.929 . S
O355 Co330 2.351 . S
O355 C358 1.244 . S
O356 Co330 2.155 . S
O356 C358 1.240 . S
O357 Co330 2.096 . S
O357 C338 1.247 . S
C358 O355 1.244 . S
C358 O356 1.240 . S
H359 C333 0.931 . S
H360 C342 0.931 . S
H361 C346 0.929 . S
H362 C348 0.930 . S
Co363 N367 2.148 . S
Co363 N373 2.128 . S
Co363 N383 2.194 . S
Co363 O388 2.351 . S
Co363 O389 2.155 . S
Co363 O390 2.096 . S
C364 N367 1.301 . S
C364 N368 1.328 . S
C364 H369 0.930 . S
C365 C366 1.333 . S
C365 N367 1.317 . S
C365 H370 0.930 . S
C366 C365 1.333 . S
C366 N368 1.350 . S
C366 H392 0.931 . S
N367 Co363 2.148 . S
N367 C364 1.301 . S
N367 C365 1.317 . S
N368 C364 1.328 . S
N368 C366 1.350 . S
H369 C364 0.930 . S
H370 C365 0.930 . S
C371 O372 1.224 . S
C371 O390 1.247 . S
O372 C371 1.224 . S
N373 Co363 2.128 . S
N373 C374 1.355 . S
N373 C376 1.311 . S
C374 N373 1.355 . S
C374 C375 1.363 . S
C374 H386 0.929 . S
C375 C374 1.363 . S
C375 N377 1.375 . S
C375 H393 0.931 . S
C376 N373 1.311 . S
C376 N377 1.347 . S
C376 H387 0.929 . S
N377 C375 1.375 . S
N377 C376 1.347 . S
C378 C381 1.365 . S
C378 N383 1.328 . S
C378 H384 0.929 . S
C379 C380 1.362 . S
C379 C382 1.378 . S
C379 H394 0.929 . S
C380 C379 1.362 . S
C380 C381 1.366 . S
C381 C378 1.365 . S
C381 C380 1.366 . S
C381 H395 0.930 . S
C382 C379 1.378 . S
C382 N383 1.315 . S
C382 H385 0.930 . S
N383 Co363 2.194 . S
N383 C378 1.328 . S
N383 C382 1.315 . S
H384 C378 0.929 . S
H385 C382 0.930 . S
H386 C374 0.929 . S
H387 C376 0.929 . S
O388 Co363 2.351 . S
O388 C391 1.244 . S
O389 Co363 2.155 . S
O389 C391 1.240 . S
O390 Co363 2.096 . S
O390 C371 1.247 . S
C391 O388 1.244 . S
C391 O389 1.240 . S
H392 C366 0.931 . S
H393 C375 0.931 . S
H394 C379 0.929 . S
H395 C381 0.930 . S
H396 C408 0.930 1_556 S
H397 C410 0.930 . S
H398 C411 0.930 . S
H399 C415 0.959 . S
H400 C415 0.959 . S
H401 C415 0.961 . S
H402 C416 0.960 . S
H403 C416 0.961 . S
H404 C416 0.959 . S
H405 C419 0.929 . S
H406 C420 0.931 . S
H407 C422 0.930 1_556 S
C408 H396 0.930 1_554 S
C408 C409 1.399 . S
C408 C413 1.399 . S
C409 C408 1.399 . S
C409 C410 1.376 . S
C410 H397 0.930 . S
C410 C409 1.376 . S
C410 C411 1.388 . S
C411 H398 0.930 . S
C411 C410 1.388 . S
C411 C412 1.390 . S
C412 C411 1.390 . S
C412 C413 1.394 . S
C412 C418 1.465 1_545 S
C413 C408 1.399 . S
C413 C412 1.394 . S
C413 C414 1.516 1_544 S
C414 C413 1.516 1_566 S
C414 C415 1.502 . S
C414 C416 1.561 1_565 S
C414 C417 1.526 1_556 S
C415 H399 0.959 . S
C415 H400 0.959 . S
C415 H401 0.961 . S
C415 C414 1.502 . S
C416 H402 0.960 . S
C416 H403 0.961 . S
C416 H404 0.959 . S
C416 C414 1.561 1_545 S
C417 C414 1.526 1_554 S
C417 C418 1.396 . S
C417 C422 1.390 . S
C418 C412 1.465 1_565 S
C418 C417 1.396 . S
C418 C419 1.399 . S
C419 H405 0.929 . S
C419 C418 1.399 . S
C419 C420 1.385 . S
C420 H406 0.931 . S
C420 C419 1.385 . S
C420 C421 1.389 . S
C421 C420 1.389 . S
C421 C422 1.387 . S
C422 H407 0.930 1_554 S
C422 C417 1.390 . S
C422 C421 1.387 . S
H423 C435 0.930 1_556 S
H424 C437 0.930 . S
H425 C438 0.930 . S
H426 C442 0.959 . S
H427 C442 0.959 . S
H428 C442 0.961 . S
H429 C443 0.960 . S
H430 C443 0.961 . S
H431 C443 0.959 . S
H432 C446 0.929 . S
H433 C447 0.931 . S
H434 C449 0.930 1_556 S
C435 H423 0.930 1_554 S
C435 C436 1.399 . S
C435 C440 1.399 . S
C436 C435 1.399 . S
C436 C437 1.376 . S
C437 H424 0.930 . S
C437 C436 1.376 . S
C437 C438 1.388 . S
C438 H425 0.930 . S
C438 C437 1.388 . S
C438 C439 1.390 . S
C439 C438 1.390 . S
C439 C440 1.394 . S
C439 C445 1.465 . S
C440 C435 1.399 . S
C440 C439 1.394 . S
C440 C441 1.516 1_554 S
C441 C440 1.516 1_556 S
C441 C442 1.502 . S
C441 C443 1.561 . S
C441 C444 1.526 1_556 S
C442 H426 0.959 . S
C442 H427 0.959 . S
C442 H428 0.961 . S
C442 C441 1.502 . S
C443 H429 0.960 . S
C443 H430 0.961 . S
C443 H431 0.959 . S
C443 C441 1.561 . S
C444 C441 1.526 1_554 S
C444 C445 1.396 . S
C444 C449 1.390 . S
C445 C439 1.465 . S
C445 C444 1.396 . S
C445 C446 1.399 . S
C446 H432 0.929 . S
C446 C445 1.399 . S
C446 C447 1.385 . S
C447 H433 0.931 . S
C447 C446 1.385 . S
C447 C448 1.389 . S
C448 C447 1.389 . S
C448 C449 1.387 . S
C449 H434 0.930 1_554 S
C449 C444 1.390 . S
C449 C448 1.387 . S
H450 C462 0.930 . S
H451 C464 0.930 . S
H452 C465 0.930 . S
H453 C469 0.959 . S
H454 C469 0.959 . S
H455 C469 0.961 . S
H456 C470 0.960 1_455 S
H457 C470 0.961 . S
H458 C470 0.959 . S
H459 C473 0.929 . S
H460 C474 0.931 . S
H461 C476 0.930 . S
C462 H450 0.930 . S
C462 C463 1.399 . S
C462 C467 1.399 . S
C463 C462 1.399 . S
C463 C464 1.376 1_554 S
C464 H451 0.930 . S
C464 C463 1.376 1_556 S
C464 C465 1.388 . S
C465 H452 0.930 . S
C465 C464 1.388 . S
C465 C466 1.390 1_556 S
C466 C465 1.390 1_554 S
C466 C467 1.394 . S
C466 C472 1.465 1_455 S
C467 C462 1.399 . S
C467 C466 1.394 . S
C467 C468 1.516 . S
C468 C467 1.516 . S
C468 C469 1.502 . S
C468 C470 1.561 1_455 S
C468 C471 1.526 1_455 S
C469 H453 0.959 . S
C469 H454 0.959 . S
C469 H455 0.961 . S
C469 C468 1.502 . S
C470 H456 0.960 1_655 S
C470 H457 0.961 . S
C470 H458 0.959 . S
C470 C468 1.561 1_655 S
C471 C468 1.526 1_655 S
C471 C472 1.396 . S
C471 C476 1.390 . S
C472 C466 1.465 1_655 S
C472 C471 1.396 . S
C472 C473 1.399 1_554 S
C473 H459 0.929 . S
C473 C472 1.399 1_556 S
C473 C474 1.385 . S
C474 H460 0.931 . S
C474 C473 1.385 . S
C474 C475 1.389 1_556 S
C475 C474 1.389 1_554 S
C475 C476 1.387 . S
C476 H461 0.930 . S
C476 C471 1.390 . S
C476 C475 1.387 . S
H477 C489 0.930 . S
H478 C491 0.930 . S
H479 C492 0.930 . S
H480 C496 0.959 . S
H481 C496 0.959 . S
H482 C496 0.961 . S
H483 C497 0.960 . S
H484 C497 0.961 . S
H485 C497 0.959 . S
H486 C500 0.929 . S
H487 C501 0.931 . S
H488 C503 0.930 . S
C489 H477 0.930 . S
C489 C490 1.399 . S
C489 C494 1.399 . S
C490 C489 1.399 . S
C490 C491 1.376 . S
C491 H478 0.930 . S
C491 C490 1.376 . S
C491 C492 1.388 . S
C492 H479 0.930 . S
C492 C491 1.388 . S
C492 C493 1.390 . S
C493 C492 1.390 . S
C493 C494 1.394 . S
C493 C499 1.465 1_455 S
C494 C489 1.399 . S
C494 C493 1.394 . S
C494 C495 1.516 1_455 S
C495 C494 1.516 1_655 S
C495 C496 1.502 . S
C495 C497 1.561 1_655 S
C495 C498 1.526 . S
C496 H480 0.959 . S
C496 H481 0.959 . S
C496 H482 0.961 . S
C496 C495 1.502 . S
C497 H483 0.960 . S
C497 H484 0.961 . S
C497 H485 0.959 . S
C497 C495 1.561 1_455 S
C498 C495 1.526 . S
C498 C499 1.396 . S
C498 C503 1.390 . S
C499 C493 1.465 1_655 S
C499 C498 1.396 . S
C499 C500 1.399 . S
C500 H486 0.929 . S
C500 C499 1.399 . S
C500 C501 1.385 . S
C501 H487 0.931 . S
C501 C500 1.385 . S
C501 C502 1.389 . S
C502 C501 1.389 . S
C502 C503 1.387 . S
C503 H488 0.930 . S
C503 C498 1.390 . S
C503 C502 1.387 . S
H504 C516 0.930 . S
H505 C518 0.930 . S
H506 C519 0.930 . S
H507 C523 0.959 . S
H508 C523 0.959 . S
H509 C523 0.961 . S
H510 C524 0.960 . S
H511 C524 0.961 . S
H512 C524 0.959 . S
H513 C527 0.929 . S
H514 C528 0.931 . S
H515 C530 0.930 . S
C516 H504 0.930 . S
C516 C517 1.399 . S
C516 C521 1.399 . S
C517 C516 1.399 . S
C517 C518 1.376 . S
C518 H505 0.930 . S
C518 C517 1.376 . S
C518 C519 1.388 . S
C519 H506 0.930 . S
C519 C518 1.388 . S
C519 C520 1.390 . S
C520 C519 1.390 . S
C520 C521 1.394 . S
C520 C526 1.470 . S
C521 C516 1.399 . S
C521 C520 1.394 . S
C521 C522 1.516 1_545 S
C522 C521 1.516 1_565 S
C522 C523 1.502 . S
C522 C524 1.561 . S
C522 C525 1.526 . S
C523 H507 0.959 . S
C523 H508 0.959 . S
C523 H509 0.961 . S
C523 C522 1.502 . S
C524 H510 0.960 . S
C524 H511 0.961 . S
C524 H512 0.959 . S
C524 C522 1.561 . S
C525 C522 1.526 . S
C525 C526 1.373 1_565 S
C525 C530 1.390 . S
C526 C520 1.470 . S
C526 C525 1.373 1_545 S
C526 C527 1.413 . S
C527 H513 0.929 . S
C527 C526 1.413 . S
C527 C528 1.385 1_545 S
C528 H514 0.931 . S
C528 C527 1.385 1_565 S
C528 C529 1.389 . S
C529 C528 1.389 . S
C529 C530 1.387 . S
C530 H515 0.930 . S
C530 C525 1.390 . S
C530 C529 1.387 . S
H531 C543 0.930 . S
H532 C545 0.930 . S
H533 C546 0.930 . S
H534 C550 0.959 . S
H535 C550 0.959 . S
H536 C550 0.961 . S
H537 C551 0.960 . S
H538 C551 0.961 . S
H539 C551 0.959 . S
H540 C554 0.929 . S
H541 C555 0.931 . S
H542 C557 0.930 . S
C543 H531 0.930 . S
C543 C544 1.399 . S
C543 C548 1.399 . S
C544 C543 1.399 . S
C544 C545 1.376 . S
C545 H532 0.930 . S
C545 C544 1.376 . S
C545 C546 1.388 . S
C546 H533 0.930 . S
C546 C545 1.388 . S
C546 C547 1.390 . S
C547 C546 1.390 . S
C547 C548 1.394 . S
C547 C553 1.465 . S
C548 C543 1.399 . S
C548 C547 1.394 . S
C548 C549 1.516 . S
C549 C548 1.516 . S
C549 C550 1.502 . S
C549 C551 1.561 . S
C549 C552 1.526 . S
C550 H534 0.959 . S
C550 H535 0.959 . S
C550 H536 0.961 . S
C550 C549 1.502 . S
C551 H537 0.960 . S
C551 H538 0.961 . S
C551 H539 0.959 . S
C551 C549 1.561 . S
C552 C549 1.526 . S
C552 C553 1.396 . S
C552 C557 1.390 . S
C553 C547 1.465 . S
C553 C552 1.396 . S
C553 C554 1.399 . S
C554 H540 0.929 . S
C554 C553 1.399 . S
C554 C555 1.385 . S
C555 H541 0.931 . S
C555 C554 1.385 . S
C555 C556 1.389 . S
C556 C555 1.389 . S
C556 C557 1.387 . S
C557 H542 0.930 . S
C557 C552 1.390 . S
C557 C556 1.387 . S
H558 C570 0.930 1_556 S
H559 C572 0.930 . S
H560 C573 0.930 . S
H561 C577 0.959 1_554 S
H562 C577 0.959 . S
H563 C577 0.961 . S
H564 C578 0.960 . S
H565 C578 0.961 . S
H566 C578 0.959 . S
H567 C581 0.929 . S
H568 C582 0.931 . S
H569 C584 0.930 1_556 S
C570 H558 0.930 1_554 S
C570 C571 1.399 . S
C570 C575 1.399 1_545 S
C571 C570 1.399 . S
C571 C572 1.376 . S
C572 H559 0.930 . S
C572 C571 1.376 . S
C572 C573 1.388 1_545 S
C573 H560 0.930 . S
C573 C572 1.388 1_565 S
C573 C574 1.390 . S
C574 C573 1.390 . S
C574 C575 1.394 . S
C574 C580 1.465 . S
C575 C570 1.399 1_565 S
C575 C574 1.394 . S
C575 C576 1.516 1_554 S
C576 C575 1.516 1_556 S
C576 C577 1.502 . S
C576 C578 1.561 . S
C576 C579 1.526 1_556 S
C577 H561 0.959 1_556 S
C577 H562 0.959 . S
C577 H563 0.961 . S
C577 C576 1.502 . S
C578 H564 0.960 . S
C578 H565 0.961 . S
C578 H566 0.959 . S
C578 C576 1.561 . S
C579 C576 1.526 1_554 S
C579 C580 1.396 . S
C579 C584 1.390 . S
C580 C574 1.465 . S
C580 C579 1.396 . S
C580 C581 1.399 . S
C581 H567 0.929 . S
C581 C580 1.399 . S
C581 C582 1.385 . S
C582 H568 0.931 . S
C582 C581 1.385 . S
C582 C583 1.389 . S
C583 C582 1.389 . S
C583 C584 1.387 . S
C584 H569 0.930 1_554 S
C584 C579 1.390 . S
C584 C583 1.387 . S
H585 C597 0.930 1_556 S
H586 C599 0.930 . S
H587 C600 0.930 . S
H588 C604 0.959 . S
H589 C604 0.959 . S
H590 C604 0.961 . S
H591 C605 0.960 . S
H592 C605 0.961 . S
H593 C605 0.959 . S
H594 C608 0.929 . S
H595 C609 0.931 . S
H596 C611 0.930 1_556 S
C597 H585 0.930 1_554 S
C597 C598 1.399 . S
C597 C602 1.399 . S
C598 C597 1.399 . S
C598 C599 1.376 . S
C599 H586 0.930 . S
C599 C598 1.376 . S
C599 C600 1.388 . S
C600 H587 0.930 . S
C600 C599 1.388 . S
C600 C601 1.390 . S
C601 C600 1.390 . S
C601 C602 1.394 . S
C601 C607 1.465 . S
C602 C597 1.399 . S
C602 C601 1.394 . S
C602 C603 1.516 1_554 S
C603 C602 1.516 1_556 S
C603 C604 1.502 . S
C603 C605 1.561 . S
C603 C606 1.526 1_556 S
C604 H588 0.959 . S
C604 H589 0.959 . S
C604 H590 0.961 . S
C604 C603 1.502 . S
C605 H591 0.960 . S
C605 H592 0.961 . S
C605 H593 0.959 . S
C605 C603 1.561 . S
C606 C603 1.526 1_554 S
C606 C607 1.396 . S
C606 C611 1.390 . S
C607 C601 1.465 . S
C607 C606 1.396 . S
C607 C608 1.399 . S
C608 H594 0.929 . S
C608 C607 1.399 . S
C608 C609 1.385 . S
C609 H595 0.931 . S
C609 C608 1.385 . S
C609 C610 1.389 . S
C610 C609 1.389 . S
C610 C611 1.387 . S
C611 H596 0.930 1_554 S
C611 C606 1.390 . S
C611 C610 1.387 . S
H612 C624 0.930 . S
H613 C626 0.930 . S
H614 C627 0.930 . S
H615 C631 0.959 . S
H616 C631 0.959 . S
H617 C631 0.961 . S
H618 C632 0.964 1_655 S
H619 C632 0.961 . S
H620 C632 0.959 . S
H621 C635 0.929 . S
H622 C636 0.931 1_556 S
H623 C638 0.930 . S
C624 H612 0.930 . S
C624 C625 1.399 . S
C624 C629 1.399 1_655 S
C625 C624 1.399 . S
C625 C626 1.376 1_554 S
C626 H613 0.930 . S
C626 C625 1.376 1_556 S
C626 C627 1.388 1_655 S
C627 H614 0.930 . S
C627 C626 1.388 1_455 S
C627 C628 1.390 1_556 S
C628 C627 1.390 1_554 S
C628 C629 1.394 . S
C628 C634 1.465 . S
C629 C624 1.399 1_455 S
C629 C628 1.394 . S
C629 C630 1.516 . S
C630 C629 1.516 . S
C630 C631 1.502 . S
C630 C632 1.561 . S
C630 C633 1.526 . S
C631 H615 0.959 . S
C631 H616 0.959 . S
C631 H617 0.961 . S
C631 C630 1.502 . S
C632 H618 0.964 1_455 S
C632 H619 0.961 . S
C632 H620 0.959 . S
C632 C630 1.561 . S
C633 C630 1.526 . S
C633 C634 1.396 . S
C633 C638 1.390 . S
C634 C628 1.465 . S
C634 C633 1.396 . S
C634 C635 1.399 1_554 S
C635 H621 0.929 . S
C635 C634 1.399 1_556 S
C635 C636 1.385 1_556 S
C636 H622 0.931 1_554 S
C636 C635 1.385 1_554 S
C636 C637 1.389 . S
C637 C636 1.389 . S
C637 C638 1.387 . S
C638 H623 0.930 . S
C638 C633 1.390 . S
C638 C637 1.387 . S
H639 C651 0.930 1_556 S
H640 C653 0.930 . S
H641 C654 0.930 . S
H642 C658 0.959 . S
H643 C658 0.959 . S
H644 C658 0.961 . S
H645 C659 0.960 . S
H646 C659 0.961 . S
H647 C659 0.959 . S
H648 C662 0.928 1_545 S
H649 C663 0.931 . S
H650 C665 0.930 1_556 S
C651 H639 0.930 1_554 S
C651 C652 1.399 . S
C651 C656 1.399 . S
C652 C651 1.399 . S
C652 C653 1.376 . S
C653 H640 0.930 . S
C653 C652 1.376 . S
C653 C654 1.388 . S
C654 H641 0.930 . S
C654 C653 1.388 . S
C654 C655 1.390 . S
C655 C654 1.390 . S
C655 C656 1.394 . S
C655 C661 1.465 . S
C656 C651 1.399 . S
C656 C655 1.394 . S
C656 C657 1.516 1_554 S
C657 C656 1.516 1_556 S
C657 C658 1.502 . S
C657 C659 1.561 . S
C657 C660 1.526 1_556 S
C658 H642 0.959 . S
C658 H643 0.959 . S
C658 H644 0.961 . S
C658 C657 1.502 . S
C659 H645 0.960 . S
C659 H646 0.961 . S
C659 H647 0.959 . S
C659 C657 1.561 . S
C660 C657 1.526 1_554 S
C660 C661 1.396 . S
C660 C665 1.390 1_545 S
C661 C655 1.465 . S
C661 C660 1.396 . S
C661 C662 1.393 1_545 S
C662 H648 0.928 1_565 S
C662 C661 1.393 1_565 S
C662 C663 1.392 . S
C663 H649 0.931 . S
C663 C662 1.392 . S
C663 C664 1.389 . S
C664 C663 1.389 . S
C664 C665 1.387 . S
C665 H650 0.930 1_554 S
C665 C660 1.390 1_565 S
C665 C664 1.387 . S
H666 C678 0.930 1_556 S
H667 C680 0.930 . S
H668 C681 0.930 . S
H669 C685 0.959 . S
H670 C685 0.959 . S
H671 C685 0.961 . S
H672 C686 0.960 . S
H673 C686 0.961 . S
H674 C686 0.959 . S
H675 C689 0.929 . S
H676 C690 0.931 . S
H677 C692 0.930 1_556 S
C678 H666 0.930 1_554 S
C678 C679 1.399 . S
C678 C683 1.399 . S
C679 C678 1.399 . S
C679 C680 1.376 . S
C680 H667 0.930 . S
C680 C679 1.376 . S
C680 C681 1.388 . S
C681 H668 0.930 . S
C681 C680 1.388 . S
C681 C682 1.390 . S
C682 C681 1.390 . S
C682 C683 1.394 . S
C682 C688 1.465 . S
C683 C678 1.399 . S
C683 C682 1.394 . S
C683 C684 1.516 1_554 S
C684 C683 1.516 1_556 S
C684 C685 1.502 . S
C684 C686 1.561 . S
C684 C687 1.526 1_556 S
C685 H669 0.959 . S
C685 H670 0.959 . S
C685 H671 0.961 . S
C685 C684 1.502 . S
C686 H672 0.960 . S
C686 H673 0.961 . S
C686 H674 0.959 . S
C686 C684 1.561 . S
C687 C684 1.526 1_554 S
C687 C688 1.396 . S
C687 C692 1.390 . S
C688 C682 1.465 . S
C688 C687 1.396 . S
C688 C689 1.399 . S
C689 H675 0.929 . S
C689 C688 1.399 . S
C689 C690 1.385 . S
C690 H676 0.931 . S
C690 C689 1.385 . S
C690 C691 1.389 . S
C691 C690 1.389 . S
C691 C692 1.387 . S
C692 H677 0.930 1_554 S
C692 C687 1.390 . S
C692 C691 1.387 . S
H693 C705 0.930 . S
H694 C707 0.930 1_556 S
H695 C708 0.930 . S
H696 C712 0.959 . S
H697 C712 0.959 . S
H698 C712 0.961 . S
H699 C713 0.960 . S
H700 C713 0.961 . S
H701 C713 0.959 . S
H702 C716 0.929 . S
H703 C717 0.931 . S
H704 C719 0.930 . S
C705 H693 0.930 . S
C705 C706 1.399 . S
C705 C710 1.399 . S
C706 C705 1.399 . S
C706 C707 1.376 . S
C707 H694 0.930 1_554 S
C707 C706 1.376 . S
C707 C708 1.388 1_554 S
C708 H695 0.930 . S
C708 C707 1.388 1_556 S
C708 C709 1.390 1_556 S
C709 C708 1.390 1_554 S
C709 C710 1.394 . S
C709 C715 1.465 . S
C710 C705 1.399 . S
C710 C709 1.394 . S
C710 C711 1.516 . S
C711 C710 1.516 . S
C711 C712 1.502 . S
C711 C713 1.561 . S
C711 C714 1.526 . S
C712 H696 0.959 . S
C712 H697 0.959 . S
C712 H698 0.961 . S
C712 C711 1.502 . S
C713 H699 0.960 . S
C713 H700 0.961 . S
C713 H701 0.959 . S
C713 C711 1.561 . S
C714 C711 1.526 . S
C714 C715 1.396 . S
C714 C719 1.390 1_655 S
C715 C709 1.465 . S
C715 C714 1.396 . S
C715 C716 1.399 1_554 S
C716 H702 0.929 . S
C716 C715 1.399 1_556 S
C716 C717 1.385 1_655 S
C717 H703 0.931 . S
C717 C716 1.385 1_455 S
C717 C718 1.389 1_556 S
C718 C717 1.389 1_554 S
C718 C719 1.387 . S
C719 H704 0.930 . S
C719 C714 1.390 1_455 S
C719 C718 1.387 . S
H720 C732 0.930 . S
H721 C734 0.930 . S
H722 C735 0.930 . S
H723 C739 0.959 . S
H724 C739 0.959 . S
H725 C739 0.961 . S
H726 C740 0.960 . S
H727 C740 0.961 . S
H728 C740 0.959 . S
H729 C743 0.929 . S
H730 C744 0.931 . S
H731 C746 0.930 . S
C732 H720 0.930 . S
C732 C733 1.399 . S
C732 C737 1.399 . S
C733 C732 1.399 . S
C733 C734 1.376 . S
C734 H721 0.930 . S
C734 C733 1.376 . S
C734 C735 1.388 . S
C735 H722 0.930 . S
C735 C734 1.388 . S
C735 C736 1.390 . S
C736 C735 1.390 . S
C736 C737 1.394 . S
C736 C742 1.465 . S
C737 C732 1.399 . S
C737 C736 1.394 . S
C737 C738 1.516 . S
C738 C737 1.516 . S
C738 C739 1.502 . S
C738 C740 1.561 . S
C738 C741 1.526 . S
C739 H723 0.959 . S
C739 H724 0.959 . S
C739 H725 0.961 . S
C739 C738 1.502 . S
C740 H726 0.960 . S
C740 H727 0.961 . S
C740 H728 0.959 . S
C740 C738 1.561 . S
C741 C738 1.526 . S
C741 C742 1.396 . S
C741 C746 1.390 1_455 S
C742 C736 1.465 . S
C742 C741 1.396 . S
C742 C743 1.399 . S
C743 H729 0.929 . S
C743 C742 1.399 . S
C743 C744 1.385 1_455 S
C744 H730 0.931 . S
C744 C743 1.385 1_655 S
C744 C745 1.389 . S
C745 C744 1.389 . S
C745 C746 1.387 . S
C746 H731 0.930 . S
C746 C741 1.390 1_655 S
C746 C745 1.387 . S
H747 C759 0.930 . S
H748 C761 0.930 . S
H749 C762 0.930 . S
H750 C766 0.959 . S
H751 C766 0.959 . S
H752 C766 0.961 . S
H753 C767 0.960 . S
H754 C767 0.961 . S
H755 C767 0.959 . S
H756 C770 0.929 . S
H757 C771 0.931 . S
H758 C773 0.930 . S
C759 H747 0.930 . S
C759 C760 1.399 . S
C759 C764 1.399 . S
C760 C759 1.399 . S
C760 C761 1.376 . S
C761 H748 0.930 . S
C761 C760 1.376 . S
C761 C762 1.388 . S
C762 H749 0.930 . S
C762 C761 1.388 . S
C762 C763 1.390 . S
C763 C762 1.390 . S
C763 C764 1.394 . S
C763 C769 1.465 . S
C764 C759 1.399 . S
C764 C763 1.394 . S
C764 C765 1.516 . S
C765 C764 1.516 . S
C765 C766 1.502 . S
C765 C767 1.561 . S
C765 C768 1.526 . S
C766 H750 0.959 . S
C766 H751 0.959 . S
C766 H752 0.961 . S
C766 C765 1.502 . S
C767 H753 0.960 . S
C767 H754 0.961 . S
C767 H755 0.959 . S
C767 C765 1.561 . S
C768 C765 1.526 . S
C768 C769 1.396 . S
C768 C773 1.390 1_545 S
C769 C763 1.465 . S
C769 C768 1.396 . S
C769 C770 1.399 1_545 S
C770 H756 0.929 . S
C770 C769 1.399 1_565 S
C770 C771 1.385 . S
C771 H757 0.931 . S
C771 C770 1.385 . S
C771 C772 1.389 . S
C772 C771 1.389 . S
C772 C773 1.387 . S
C773 H758 0.930 . S
C773 C768 1.390 1_565 S
C773 C772 1.387 . S
H774 C786 0.930 . S
H775 C788 0.930 . S
H776 C789 0.930 . S
H777 C793 0.959 . S
H778 C793 0.959 . S
H779 C793 0.961 . S
H780 C794 0.960 . S
H781 C794 0.961 . S
H782 C794 0.959 . S
H783 C797 0.929 . S
H784 C798 0.931 . S
H785 C800 0.930 . S
C786 H774 0.930 . S
C786 C787 1.399 . S
C786 C791 1.399 . S
C787 C786 1.399 . S
C787 C788 1.376 . S
C788 H775 0.930 . S
C788 C787 1.376 . S
C788 C789 1.388 . S
C789 H776 0.930 . S
C789 C788 1.388 . S
C789 C790 1.390 . S
C790 C789 1.390 . S
C790 C791 1.394 . S
C790 C796 1.465 . S
C791 C786 1.399 . S
C791 C790 1.394 . S
C791 C792 1.516 . S
C792 C791 1.516 . S
C792 C793 1.502 . S
C792 C794 1.561 . S
C792 C795 1.526 . S
C793 H777 0.959 . S
C793 H778 0.959 . S
C793 H779 0.961 . S
C793 C792 1.502 . S
C794 H780 0.960 . S
C794 H781 0.961 . S
C794 H782 0.959 . S
C794 C792 1.561 . S
C795 C792 1.526 . S
C795 C796 1.396 . S
C795 C800 1.390 . S
C796 C790 1.465 . S
C796 C795 1.396 . S
C796 C797 1.399 . S
C797 H783 0.929 . S
C797 C796 1.399 . S
C797 C798 1.385 . S
C798 H784 0.931 . S
C798 C797 1.385 . S
C798 C799 1.389 . S
C799 C798 1.389 . S
C799 C800 1.387 . S
C800 H785 0.930 . S
C800 C795 1.390 . S
C800 C799 1.387 . S
H801 C813 0.930 . S
H802 C815 0.930 . S
H803 C816 0.930 1_655 S
H804 C820 0.959 . S
H805 C820 0.959 . S
H806 C820 0.961 . S
H807 C821 0.960 . S
H808 C821 0.961 . S
H809 C821 0.959 . S
H810 C824 0.929 . S
H811 C825 0.931 . S
H812 C827 0.930 . S
C813 H801 0.930 . S
C813 C814 1.399 . S
C813 C818 1.399 1_455 S
C814 C813 1.399 . S
C814 C815 1.376 . S
C815 H802 0.930 . S
C815 C814 1.376 . S
C815 C816 1.388 . S
C816 H803 0.930 1_455 S
C816 C815 1.388 . S
C816 C817 1.391 1_455 S
C817 C816 1.391 1_655 S
C817 C818 1.394 . S
C817 C823 1.465 . S
C818 C813 1.399 1_655 S
C818 C817 1.394 . S
C818 C819 1.516 . S
C819 C818 1.516 . S
C819 C820 1.502 . S
C819 C821 1.561 . S
C819 C822 1.526 . S
C820 H804 0.959 . S
C820 H805 0.959 . S
C820 H806 0.961 . S
C820 C819 1.502 . S
C821 H807 0.960 . S
C821 H808 0.961 . S
C821 H809 0.959 . S
C821 C819 1.561 . S
C822 C819 1.526 . S
C822 C823 1.396 . S
C822 C827 1.390 . S
C823 C817 1.465 . S
C823 C822 1.396 . S
C823 C824 1.399 . S
C824 H810 0.929 . S
C824 C823 1.399 . S
C824 C825 1.385 . S
C825 H811 0.931 . S
C825 C824 1.385 . S
C825 C826 1.389 . S
C826 C825 1.389 . S
C826 C827 1.387 . S
C827 H812 0.930 . S
C827 C822 1.390 . S
C827 C826 1.387 . S
H828 C840 0.930 . S
H829 C842 0.930 . S
H830 C843 0.920 1_565 S
H831 C847 0.959 . S
H832 C847 0.959 . S
H833 C847 0.961 . S
H834 C848 0.960 . S
H835 C848 0.961 . S
H836 C848 0.959 . S
H837 C851 0.929 . S
H838 C852 0.931 . S
H839 C854 0.930 . S
C840 H828 0.930 . S
C840 C841 1.399 . S
C840 C845 1.399 1_545 S
C841 C840 1.399 . S
C841 C842 1.376 . S
C842 H829 0.930 . S
C842 C841 1.376 . S
C842 C843 1.388 . S
C843 H830 0.920 1_545 S
C843 C842 1.388 . S
C843 C844 1.390 1_545 S
C844 C843 1.390 1_565 S
C844 C845 1.394 . S
C844 C850 1.465 . S
C845 C840 1.399 1_565 S
C845 C844 1.394 . S
C845 C846 1.516 . S
C846 C845 1.516 . S
C846 C847 1.502 . S
C846 C848 1.561 . S
C846 C849 1.526 . S
C847 H831 0.959 . S
C847 H832 0.959 . S
C847 H833 0.961 . S
C847 C846 1.502 . S
C848 H834 0.960 . S
C848 H835 0.961 . S
C848 H836 0.959 . S
C848 C846 1.561 . S
C849 C846 1.526 . S
C849 C850 1.396 . S
C849 C854 1.390 . S
C850 C844 1.465 . S
C850 C849 1.396 . S
C850 C851 1.399 . S
C851 H837 0.929 . S
C851 C850 1.399 . S
C851 C852 1.385 . S
C852 H838 0.931 . S
C852 C851 1.385 . S
C852 C853 1.389 . S
C853 C852 1.389 . S
C853 C854 1.387 . S
C854 H839 0.930 . S
C854 C849 1.390 . S
C854 C853 1.387 . S
H855 C867 0.930 . S
H856 C869 0.930 . S
H857 C870 0.930 . S
H858 C874 0.959 . S
H859 C874 0.959 . S
H860 C874 0.961 . S
H861 C875 0.960 . S
H862 C875 0.961 . S
H863 C875 0.959 . S
H864 C878 0.929 . S
H865 C879 0.931 . S
H866 C881 0.930 . S
C867 H855 0.930 . S
C867 C868 1.399 . S
C867 C872 1.399 . S
C868 C867 1.399 . S
C868 C869 1.376 . S
C869 H856 0.930 . S
C869 C868 1.376 . S
C869 C870 1.388 . S
C870 H857 0.930 . S
C870 C869 1.388 . S
C870 C871 1.390 . S
C871 C870 1.390 . S
C871 C872 1.394 . S
C871 C877 1.465 . S
C872 C867 1.399 . S
C872 C871 1.394 . S
C872 C873 1.516 . S
C873 C872 1.516 . S
C873 C874 1.502 . S
C873 C875 1.561 . S
C873 C876 1.526 . S
C874 H858 0.959 . S
C874 H859 0.959 . S
C874 H860 0.961 . S
C874 C873 1.502 . S
C875 H861 0.960 . S
C875 H862 0.961 . S
C875 H863 0.959 . S
C875 C873 1.561 . S
C876 C873 1.526 . S
C876 C877 1.396 . S
C876 C881 1.390 . S
C877 C871 1.465 . S
C877 C876 1.396 . S
C877 C878 1.399 . S
C878 H864 0.929 . S
C878 C877 1.399 . S
C878 C879 1.385 . S
C879 H865 0.931 . S
C879 C878 1.385 . S
C879 C880 1.389 . S
C880 C879 1.389 . S
C880 C881 1.387 . S
C881 H866 0.930 . S
C881 C876 1.390 . S
C881 C880 1.387 . S
H882 C894 0.930 . S
H883 C896 0.930 . S
H884 C897 0.930 . S
H885 C901 0.959 . S
H886 C901 0.959 . S
H887 C901 0.961 . S
H888 C902 0.960 . S
H889 C902 0.961 . S
H890 C902 0.959 . S
H891 C905 0.929 . S
H892 C906 0.931 . S
H893 C908 0.930 . S
C894 H882 0.930 . S
C894 C895 1.399 . S
C894 C899 1.399 . S
C895 C894 1.399 . S
C895 C896 1.376 . S
C896 H883 0.930 . S
C896 C895 1.376 . S
C896 C897 1.388 . S
C897 H884 0.930 . S
C897 C896 1.388 . S
C897 C898 1.390 . S
C898 C897 1.390 . S
C898 C899 1.394 . S
C898 C904 1.465 . S
C899 C894 1.399 . S
C899 C898 1.394 . S
C899 C900 1.516 . S
C900 C899 1.516 . S
C900 C901 1.502 . S
C900 C902 1.561 . S
C900 C903 1.526 . S
C901 H885 0.959 . S
C901 H886 0.959 . S
C901 H887 0.961 . S
C901 C900 1.502 . S
C902 H888 0.960 . S
C902 H889 0.961 . S
C902 H890 0.959 . S
C902 C900 1.561 . S
C903 C900 1.526 . S
C903 C904 1.396 . S
C903 C908 1.390 . S
C904 C898 1.465 . S
C904 C903 1.396 . S
C904 C905 1.399 . S
C905 H891 0.929 . S
C905 C904 1.399 . S
C905 C906 1.385 . S
C906 H892 0.931 . S
C906 C905 1.385 . S
C906 C907 1.389 . S
C907 C906 1.389 . S
C907 C908 1.387 . S
C908 H893 0.930 . S
C908 C903 1.390 . S
C908 C907 1.387 . S
H909 C921 0.930 . S
H910 C923 0.930 . S
H911 C924 0.930 . S
H912 C928 0.959 . S
H913 C928 0.959 . S
H914 C928 0.961 . S
H915 C929 0.960 . S
H916 C929 0.961 . S
H917 C929 0.959 . S
H918 C932 0.929 . S
H919 C933 0.931 . S
H920 C935 0.930 . S
C921 H909 0.930 . S
C921 C922 1.399 . S
C921 C926 1.399 . S
C922 C921 1.399 . S
C922 C923 1.376 . S
C923 H910 0.930 . S
C923 C922 1.376 . S
C923 C924 1.388 . S
C924 H911 0.930 . S
C924 C923 1.388 . S
C924 C925 1.390 . S
C925 C924 1.390 . S
C925 C926 1.394 . S
C925 C931 1.465 . S
C926 C921 1.399 . S
C926 C925 1.394 . S
C926 C927 1.516 . S
C927 C926 1.516 . S
C927 C928 1.502 . S
C927 C929 1.561 . S
C927 C930 1.526 . S
C928 H912 0.959 . S
C928 H913 0.959 . S
C928 H914 0.961 . S
C928 C927 1.502 . S
C929 H915 0.960 . S
C929 H916 0.961 . S
C929 H917 0.959 . S
C929 C927 1.561 . S
C930 C927 1.526 . S
C930 C931 1.396 . S
C930 C935 1.390 . S
C931 C925 1.465 . S
C931 C930 1.396 . S
C931 C932 1.399 . S
C932 H918 0.929 . S
C932 C931 1.399 . S
C932 C933 1.385 . S
C933 H919 0.931 . S
C933 C932 1.385 . S
C933 C934 1.389 . S
C934 C933 1.389 . S
C934 C935 1.387 . S
C935 H920 0.930 . S
C935 C930 1.390 . S
C935 C934 1.387 . S
H936 C948 0.930 . S
H937 C950 0.930 . S
H938 C951 0.930 . S
H939 C955 0.959 . S
H940 C955 0.959 . S
H941 C955 0.961 . S
H942 C956 0.960 . S
H943 C956 0.961 . S
H944 C956 0.959 . S
H945 C959 0.929 . S
H946 C960 0.931 . S
H947 C962 0.930 . S
C948 H936 0.930 . S
C948 C949 1.399 . S
C948 C953 1.399 . S
C949 C948 1.399 . S
C949 C950 1.376 . S
C950 H937 0.930 . S
C950 C949 1.376 . S
C950 C951 1.388 . S
C951 H938 0.930 . S
C951 C950 1.388 . S
C951 C952 1.390 . S
C952 C951 1.390 . S
C952 C953 1.394 . S
C952 C958 1.465 . S
C953 C948 1.399 . S
C953 C952 1.394 . S
C953 C954 1.516 . S
C954 C953 1.516 . S
C954 C955 1.502 . S
C954 C956 1.561 . S
C954 C957 1.526 . S
C955 H939 0.959 . S
C955 H940 0.959 . S
C955 H941 0.961 . S
C955 C954 1.502 . S
C956 H942 0.960 . S
C956 H943 0.961 . S
C956 H944 0.959 . S
C956 C954 1.561 . S
C957 C954 1.526 . S
C957 C958 1.396 . S
C957 C962 1.390 . S
C958 C952 1.465 . S
C958 C957 1.396 . S
C958 C959 1.399 . S
C959 H945 0.929 . S
C959 C958 1.399 . S
C959 C960 1.385 . S
C960 H946 0.931 . S
C960 C959 1.385 . S
C960 C961 1.389 . S
C961 C960 1.389 . S
C961 C962 1.387 . S
C962 H947 0.930 . S
C962 C957 1.390 . S
C962 C961 1.387 . S
H963 C975 0.930 . S
H964 C977 0.930 . S
H965 C978 0.930 . S
H966 C982 0.959 . S
H967 C982 0.959 . S
H968 C982 0.961 . S
H969 C983 0.960 . S
H970 C983 0.961 . S
H971 C983 0.959 . S
H972 C986 0.929 . S
H973 C987 0.931 . S
H974 C989 0.930 . S
C975 H963 0.930 . S
C975 C976 1.399 . S
C975 C980 1.399 . S
C976 C975 1.399 . S
C976 C977 1.376 . S
C977 H964 0.930 . S
C977 C976 1.376 . S
C977 C978 1.388 . S
C978 H965 0.930 . S
C978 C977 1.388 . S
C978 C979 1.390 . S
C979 C978 1.390 . S
C979 C980 1.394 . S
C979 C985 1.465 . S
C980 C975 1.399 . S
C980 C979 1.394 . S
C980 C981 1.516 . S
C981 C980 1.516 . S
C981 C982 1.502 . S
C981 C983 1.561 . S
C981 C984 1.526 . S
C982 H966 0.959 . S
C982 H967 0.959 . S
C982 H968 0.961 . S
C982 C981 1.502 . S
C983 H969 0.960 . S
C983 H970 0.961 . S
C983 H971 0.959 . S
C983 C981 1.561 . S
C984 C981 1.526 . S
C984 C985 1.396 . S
C984 C989 1.390 . S
C985 C979 1.465 . S
C985 C984 1.396 . S
C985 C986 1.399 . S
C986 H972 0.929 . S
C986 C985 1.399 . S
C986 C987 1.385 . S
C987 H973 0.931 . S
C987 C986 1.385 . S
C987 C988 1.389 . S
C988 C987 1.389 . S
C988 C989 1.387 . S
C989 H974 0.930 . S
C989 C984 1.390 . S
C989 C988 1.387 . S
H990 C1002 0.930 . S
H991 C1004 0.930 . S
H992 C1005 0.930 . S
H993 C1009 0.959 . S
H994 C1009 0.959 . S
H995 C1009 0.961 . S
H996 C1010 0.960 . S
H997 C1010 0.961 . S
H998 C1010 0.959 . S
H999 C1013 0.929 . S
H1000 C1014 0.931 . S
H1001 C1016 0.930 . S
C1002 H990 0.930 . S
C1002 C1003 1.399 . S
C1002 C1007 1.399 . S
C1003 C1002 1.399 . S
C1003 C1004 1.376 . S
C1004 H991 0.930 . S
C1004 C1003 1.376 . S
C1004 C1005 1.388 . S
C1005 H992 0.930 . S
C1005 C1004 1.388 . S
C1005 C1006 1.390 . S
C1006 C1005 1.390 . S
C1006 C1007 1.394 . S
C1006 C1012 1.465 . S
C1007 C1002 1.399 . S
C1007 C1006 1.394 . S
C1007 C1008 1.516 . S
C1008 C1007 1.516 . S
C1008 C1009 1.502 . S
C1008 C1010 1.561 . S
C1008 C1011 1.526 . S
C1009 H993 0.959 . S
C1009 H994 0.959 . S
C1009 H995 0.961 . S
C1009 C1008 1.502 . S
C1010 H996 0.960 . S
C1010 H997 0.961 . S
C1010 H998 0.959 . S
C1010 C1008 1.561 . S
C1011 C1008 1.526 . S
C1011 C1012 1.396 . S
C1011 C1016 1.390 . S
C1012 C1006 1.465 . S
C1012 C1011 1.396 . S
C1012 C1013 1.399 . S
C1013 H999 0.929 . S
C1013 C1012 1.399 . S
C1013 C1014 1.385 . S
C1014 H1000 0.931 . S
C1014 C1013 1.385 . S
C1014 C1015 1.389 . S
C1015 C1014 1.389 . S
C1015 C1016 1.387 . S
C1016 H1001 0.930 . S
C1016 C1011 1.390 . S
C1016 C1015 1.387 . S
H1017 C1029 0.930 . S
H1018 C1031 0.930 . S
H1019 C1032 0.930 . S
H1020 C1036 0.959 . S
H1021 C1036 0.959 . S
H1022 C1036 0.961 . S
H1023 C1037 0.960 . S
H1024 C1037 0.961 . S
H1025 C1037 0.959 . S
H1026 C1040 0.929 . S
H1027 C1041 0.931 . S
H1028 C1043 0.930 . S
C1029 H1017 0.930 . S
C1029 C1030 1.399 . S
C1029 C1034 1.399 . S
C1030 C1029 1.399 . S
C1030 C1031 1.376 . S
C1031 H1018 0.930 . S
C1031 C1030 1.376 . S
C1031 C1032 1.388 . S
C1032 H1019 0.930 . S
C1032 C1031 1.388 . S
C1032 C1033 1.390 . S
C1033 C1032 1.390 . S
C1033 C1034 1.394 . S
C1033 C1039 1.465 . S
C1034 C1029 1.399 . S
C1034 C1033 1.394 . S
C1034 C1035 1.516 . S
C1035 C1034 1.516 . S
C1035 C1036 1.502 . S
C1035 C1037 1.561 . S
C1035 C1038 1.526 . S
C1036 H1020 0.959 . S
C1036 H1021 0.959 . S
C1036 H1022 0.961 . S
C1036 C1035 1.502 . S
C1037 H1023 0.960 . S
C1037 H1024 0.961 . S
C1037 H1025 0.959 . S
C1037 C1035 1.561 . S
C1038 C1035 1.526 . S
C1038 C1039 1.396 . S
C1038 C1043 1.390 . S
C1039 C1033 1.465 . S
C1039 C1038 1.396 . S
C1039 C1040 1.399 . S
C1040 H1026 0.929 . S
C1040 C1039 1.399 . S
C1040 C1041 1.385 . S
C1041 H1027 0.931 . S
C1041 C1040 1.385 . S
C1041 C1042 1.389 . S
C1042 C1041 1.389 . S
C1042 C1043 1.387 . S
C1043 H1028 0.930 . S
C1043 C1038 1.390 . S
C1043 C1042 1.387 . S
H1044 C1056 0.930 . S
H1045 C1058 0.930 . S
H1046 C1059 0.930 . S
H1047 C1063 0.959 . S
H1048 C1063 0.959 . S
H1049 C1063 0.961 . S
H1050 C1064 0.960 . S
H1051 C1064 0.961 . S
H1052 C1064 0.959 . S
H1053 C1067 0.929 . S
H1054 C1068 0.931 . S
H1055 C1070 0.930 . S
C1056 H1044 0.930 . S
C1056 C1057 1.399 . S
C1056 C1061 1.399 . S
C1057 C1056 1.399 . S
C1057 C1058 1.376 . S
C1058 H1045 0.930 . S
C1058 C1057 1.376 . S
C1058 C1059 1.388 . S
C1059 H1046 0.930 . S
C1059 C1058 1.388 . S
C1059 C1060 1.390 . S
C1060 C1059 1.390 . S
C1060 C1061 1.394 . S
C1060 C1066 1.465 . S
C1061 C1056 1.399 . S
C1061 C1060 1.394 . S
C1061 C1062 1.516 . S
C1062 C1061 1.516 . S
C1062 C1063 1.502 . S
C1062 C1064 1.561 . S
C1062 C1065 1.526 . S
C1063 H1047 0.959 . S
C1063 H1048 0.959 . S
C1063 H1049 0.961 . S
C1063 C1062 1.502 . S
C1064 H1050 0.960 . S
C1064 H1051 0.961 . S
C1064 H1052 0.959 . S
C1064 C1062 1.561 . S
C1065 C1062 1.526 . S
C1065 C1066 1.396 . S
C1065 C1070 1.390 . S
C1066 C1060 1.465 . S
C1066 C1065 1.396 . S
C1066 C1067 1.399 . S
C1067 H1053 0.929 . S
C1067 C1066 1.399 . S
C1067 C1068 1.385 . S
C1068 H1054 0.931 . S
C1068 C1067 1.385 . S
C1068 C1069 1.389 . S
C1069 C1068 1.389 . S
C1069 C1070 1.387 . S
C1070 H1055 0.930 . S
C1070 C1065 1.390 . S
C1070 C1069 1.387 . S
H1071 C1083 0.930 . S
H1072 C1085 0.930 . S
H1073 C1086 0.930 . S
H1074 C1090 0.959 . S
H1075 C1090 0.959 . S
H1076 C1090 0.961 . S
H1077 C1091 0.960 . S
H1078 C1091 0.961 . S
H1079 C1091 0.959 . S
H1080 C1094 0.929 . S
H1081 C1095 0.931 . S
H1082 C1097 0.930 . S
C1083 H1071 0.930 . S
C1083 C1084 1.399 . S
C1083 C1088 1.399 . S
C1084 C1083 1.399 . S
C1084 C1085 1.376 . S
C1085 H1072 0.930 . S
C1085 C1084 1.376 . S
C1085 C1086 1.388 . S
C1086 H1073 0.930 . S
C1086 C1085 1.388 . S
C1086 C1087 1.390 . S
C1087 C1086 1.390 . S
C1087 C1088 1.394 . S
C1087 C1093 1.465 . S
C1088 C1083 1.399 . S
C1088 C1087 1.394 . S
C1088 C1089 1.516 . S
C1089 C1088 1.516 . S
C1089 C1090 1.502 . S
C1089 C1091 1.561 . S
C1089 C1092 1.526 . S
C1090 H1074 0.959 . S
C1090 H1075 0.959 . S
C1090 H1076 0.961 . S
C1090 C1089 1.502 . S
C1091 H1077 0.960 . S
C1091 H1078 0.961 . S
C1091 H1079 0.959 . S
C1091 C1089 1.561 . S
C1092 C1089 1.526 . S
C1092 C1093 1.396 . S
C1092 C1097 1.390 . S
C1093 C1087 1.465 . S
C1093 C1092 1.396 . S
C1093 C1094 1.399 . S
C1094 H1080 0.929 . S
C1094 C1093 1.399 . S
C1094 C1095 1.385 . S
C1095 H1081 0.931 . S
C1095 C1094 1.385 . S
C1095 C1096 1.389 . S
C1096 C1095 1.389 . S
C1096 C1097 1.387 . S
C1097 H1082 0.930 . S
C1097 C1092 1.390 . S
C1097 C1096 1.387 . S
H1098 C1110 0.930 . S
H1099 C1112 0.930 . S
H1100 C1113 0.930 . S
H1101 C1117 0.959 . S
H1102 C1117 0.959 . S
H1103 C1117 0.961 . S
H1104 C1118 0.960 . S
H1105 C1118 0.961 . S
H1106 C1118 0.959 . S
H1107 C1121 0.929 . S
H1108 C1122 0.931 . S
H1109 C1124 0.930 . S
C1110 H1098 0.930 . S
C1110 C1111 1.399 . S
C1110 C1115 1.399 . S
C1111 C1110 1.399 . S
C1111 C1112 1.376 . S
C1112 H1099 0.930 . S
C1112 C1111 1.376 . S
C1112 C1113 1.388 . S
C1113 H1100 0.930 . S
C1113 C1112 1.388 . S
C1113 C1114 1.390 . S
C1114 C1113 1.390 . S
C1114 C1115 1.394 . S
C1114 C1120 1.465 . S
C1115 C1110 1.399 . S
C1115 C1114 1.394 . S
C1115 C1116 1.516 . S
C1116 C1115 1.516 . S
C1116 C1117 1.502 . S
C1116 C1118 1.561 . S
C1116 C1119 1.526 . S
C1117 H1101 0.959 . S
C1117 H1102 0.959 . S
C1117 H1103 0.961 . S
C1117 C1116 1.502 . S
C1118 H1104 0.960 . S
C1118 H1105 0.961 . S
C1118 H1106 0.959 . S
C1118 C1116 1.561 . S
C1119 C1116 1.526 . S
C1119 C1120 1.396 . S
C1119 C1124 1.390 . S
C1120 C1114 1.465 . S
C1120 C1119 1.396 . S
C1120 C1121 1.399 . S
C1121 H1107 0.929 . S
C1121 C1120 1.399 . S
C1121 C1122 1.385 . S
C1122 H1108 0.931 . S
C1122 C1121 1.385 . S
C1122 C1123 1.389 . S
C1123 C1122 1.389 . S
C1123 C1124 1.387 . S
C1124 H1109 0.930 . S
C1124 C1119 1.390 . S
C1124 C1123 1.387 . S
H1125 C1137 0.930 . S
H1126 C1139 0.930 . S
H1127 C1140 0.930 . S
H1128 C1144 0.959 . S
H1129 C1144 0.959 . S
H1130 C1144 0.961 . S
H1131 C1145 0.960 . S
H1132 C1145 0.961 . S
H1133 C1145 0.959 . S
H1134 C1148 0.929 . S
H1135 C1149 0.931 . S
H1136 C1151 0.930 . S
C1137 H1125 0.930 . S
C1137 C1138 1.399 . S
C1137 C1142 1.399 . S
C1138 C1137 1.399 . S
C1138 C1139 1.376 . S
C1139 H1126 0.930 . S
C1139 C1138 1.376 . S
C1139 C1140 1.388 . S
C1140 H1127 0.930 . S
C1140 C1139 1.388 . S
C1140 C1141 1.390 . S
C1141 C1140 1.390 . S
C1141 C1142 1.394 . S
C1141 C1147 1.465 . S
C1142 C1137 1.399 . S
C1142 C1141 1.394 . S
C1142 C1143 1.516 . S
C1143 C1142 1.516 . S
C1143 C1144 1.502 . S
C1143 C1145 1.561 . S
C1143 C1146 1.526 . S
C1144 H1128 0.959 . S
C1144 H1129 0.959 . S
C1144 H1130 0.961 . S
C1144 C1143 1.502 . S
C1145 H1131 0.960 . S
C1145 H1132 0.961 . S
C1145 H1133 0.959 . S
C1145 C1143 1.561 . S
C1146 C1143 1.526 . S
C1146 C1147 1.396 . S
C1146 C1151 1.390 . S
C1147 C1141 1.465 . S
C1147 C1146 1.396 . S
C1147 C1148 1.399 . S
C1148 H1134 0.929 . S
C1148 C1147 1.399 . S
C1148 C1149 1.385 . S
C1149 H1135 0.931 . S
C1149 C1148 1.385 . S
C1149 C1150 1.389 . S
C1150 C1149 1.389 . S
C1150 C1151 1.387 . S
C1151 H1136 0.930 . S
C1151 C1146 1.390 . S
C1151 C1150 1.387 . S
H1152 C1164 0.930 . S
H1153 C1166 0.930 . S
H1154 C1167 0.930 . S
H1155 C1171 0.959 . S
H1156 C1171 0.959 . S
H1157 C1171 0.961 . S
H1158 C1172 0.960 . S
H1159 C1172 0.961 . S
H1160 C1172 0.959 . S
H1161 C1175 0.929 . S
H1162 C1176 0.931 . S
H1163 C1178 0.930 . S
C1164 H1152 0.930 . S
C1164 C1165 1.399 . S
C1164 C1169 1.399 . S
C1165 C1164 1.399 . S
C1165 C1166 1.376 . S
C1166 H1153 0.930 . S
C1166 C1165 1.376 . S
C1166 C1167 1.388 . S
C1167 H1154 0.930 . S
C1167 C1166 1.388 . S
C1167 C1168 1.390 . S
C1168 C1167 1.390 . S
C1168 C1169 1.394 . S
C1168 C1174 1.465 . S
C1169 C1164 1.399 . S
C1169 C1168 1.394 . S
C1169 C1170 1.516 . S
C1170 C1169 1.516 . S
C1170 C1171 1.502 . S
C1170 C1172 1.561 . S
C1170 C1173 1.526 . S
C1171 H1155 0.959 . S
C1171 H1156 0.959 . S
C1171 H1157 0.961 . S
C1171 C1170 1.502 . S
C1172 H1158 0.960 . S
C1172 H1159 0.961 . S
C1172 H1160 0.959 . S
C1172 C1170 1.561 . S
C1173 C1170 1.526 . S
C1173 C1174 1.396 . S
C1173 C1178 1.390 . S
C1174 C1168 1.465 . S
C1174 C1173 1.396 . S
C1174 C1175 1.399 . S
C1175 H1161 0.929 . S
C1175 C1174 1.399 . S
C1175 C1176 1.385 . S
C1176 H1162 0.931 . S
C1176 C1175 1.385 . S
C1176 C1177 1.389 . S
C1177 C1176 1.389 . S
C1177 C1178 1.387 . S
C1178 H1163 0.930 . S
C1178 C1173 1.390 . S
C1178 C1177 1.387 . S
H1179 C1191 0.930 . S
H1180 C1193 0.930 . S
H1181 C1194 0.930 . S
H1182 C1198 0.959 . S
H1183 C1198 0.959 . S
H1184 C1198 0.961 . S
H1185 C1199 0.960 . S
H1186 C1199 0.961 . S
H1187 C1199 0.959 . S
H1188 C1202 0.929 . S
H1189 C1203 0.931 . S
H1190 C1205 0.930 . S
C1191 H1179 0.930 . S
C1191 C1192 1.399 . S
C1191 C1196 1.399 . S
C1192 C1191 1.399 . S
C1192 C1193 1.376 . S
C1193 H1180 0.930 . S
C1193 C1192 1.376 . S
C1193 C1194 1.388 . S
C1194 H1181 0.930 . S
C1194 C1193 1.388 . S
C1194 C1195 1.390 . S
C1195 C1194 1.390 . S
C1195 C1196 1.394 . S
C1195 C1201 1.465 . S
C1196 C1191 1.399 . S
C1196 C1195 1.394 . S
C1196 C1197 1.516 . S
C1197 C1196 1.516 . S
C1197 C1198 1.502 . S
C1197 C1199 1.561 . S
C1197 C1200 1.526 . S
C1198 H1182 0.959 . S
C1198 H1183 0.959 . S
C1198 H1184 0.961 . S
C1198 C1197 1.502 . S
C1199 H1185 0.960 . S
C1199 H1186 0.961 . S
C1199 H1187 0.959 . S
C1199 C1197 1.561 . S
C1200 C1197 1.526 . S
C1200 C1201 1.396 . S
C1200 C1205 1.390 . S
C1201 C1195 1.465 . S
C1201 C1200 1.396 . S
C1201 C1202 1.399 . S
C1202 H1188 0.929 . S
C1202 C1201 1.399 . S
C1202 C1203 1.385 . S
C1203 H1189 0.931 . S
C1203 C1202 1.385 . S
C1203 C1204 1.389 . S
C1204 C1203 1.389 . S
C1204 C1205 1.387 . S
C1205 H1190 0.930 . S
C1205 C1200 1.390 . S
C1205 C1204 1.387 . S
C409 N14 1.524 . S
C421 N113 1.536 . S
C436 N146 1.522 . S
C448 N47 1.539 . S
C463 N179 1.541 . S
C475 N80 1.526 . S
C490 N311 1.524 . S
C502 N212 1.536 . S
C517 N344 1.520 . S
C529 N245 1.544 . S
C544 N278 1.540 . S
C556 N377 1.528 . S
C571 C8 1.062 . S
C583 N170 1.072 . S
C598 N5 1.067 . S
C610 C41 1.065 . S
C625 C74 1.058 . S
C637 N38 1.054 . S
C652 N71 1.067 . S
C664 C107 1.065 . S
C679 N104 1.064 . S
C691 C140 1.065 . S
C706 N137 1.057 . S
C718 C173 1.059 . S
C733 N236 1.052 . S
C745 C206 1.059 . S
C760 N269 1.060 . S
C772 C239 1.065 . S
C787 N302 1.061 . S
C799 C272 1.065 . S
C814 C305 1.060 . S
C826 N335 1.048 . S
C841 C338 1.065 . S
C853 N368 1.069 . S
C868 C371 1.065 . S
C880 N203 1.060 . S
C895 C292 1.225 . S
C907 C28 1.261 . S
C922 C61 1.255 . S
C934 C325 1.271 . S
C949 C94 1.264 . S
C961 C358 1.229 . S
C976 C127 1.272 . S
C988 C391 1.256 . S
C1003 C226 1.255 . S
C1015 C160 1.271 . S
C1030 C193 1.216 . S
C1042 C259 1.254 . S
C1057 C380 1.478 . S
C1069 C116 1.485 . S
C1084 C215 1.495 . S
C1096 C149 1.480 . S
C1111 C248 1.489 . S
C1123 C182 1.512 . S
C1138 C17 1.523 . S
C1150 C281 1.500 . S
C1165 C50 1.492 . S
C1177 C314 1.480 . S
C1192 C83 1.537 . S
C1204 C347 1.533 . S
