# Generated by pormake.
# Topology pcb, (4)-cn, num edge types: 1
# Building blocks:
#     Node 0, Type 0, BuildingBlock: ICAMEG_clean_sbu_1, # of connection points: 4
#     Node 1, Type 0, BuildingBlock: ICAMEG_clean_sbu_1, # of connection points: 4
#     Node 2, Type 0, BuildingBlock: ICAMEG_clean_sbu_1, # of connection points: 4
#     Node 3, Type 0, BuildingBlock: ICAMEG_clean_sbu_1, # of connection points: 4
#     Node 4, Type 0, BuildingBlock: ICAMEG_clean_sbu_1, # of connection points: 4
#     Node 5, Type 0, BuildingBlock: ICAMEG_clean_sbu_1, # of connection points: 4
#     Node 6, Type 0, BuildingBlock: ICAMEG_clean_sbu_1, # of connection points: 4
#     Node 7, Type 0, BuildingBlock: ICAMEG_clean_sbu_1, # of connection points: 4
#     Node 8, Type 0, BuildingBlock: ICAMEG_clean_sbu_1, # of connection points: 4
#     Node 9, Type 0, BuildingBlock: ICAMEG_clean_sbu_1, # of connection points: 4
#     Node 10, Type 0, BuildingBlock: ICAMEG_clean_sbu_1, # of connection points: 4
#     Node 11, Type 0, BuildingBlock: ICAMEG_clean_sbu_1, # of connection points: 4
#     Node 12, Type 0, BuildingBlock: ICAMEG_clean_sbu_1, # of connection points: 4
#     Node 13, Type 0, BuildingBlock: ICAMEG_clean_sbu_1, # of connection points: 4
#     Node 14, Type 0, BuildingBlock: ICAMEG_clean_sbu_1, # of connection points: 4
#     Node 15, Type 0, BuildingBlock: ICAMEG_clean_sbu_1, # of connection points: 4
#     Edge 16, Type (0, 0), BuildingBlock: XUDNAN_clean_linker_2, # of connection points: 2
#     Edge 17, Type (0, 0), BuildingBlock: XUDNAN_clean_linker_2, # of connection points: 2
#     Edge 18, Type (0, 0), BuildingBlock: XUDNAN_clean_linker_2, # of connection points: 2
#     Edge 19, Type (0, 0), BuildingBlock: XUDNAN_clean_linker_2, # of connection points: 2
#     Edge 20, Type (0, 0), BuildingBlock: XUDNAN_clean_linker_2, # of connection points: 2
#     Edge 21, Type (0, 0), BuildingBlock: XUDNAN_clean_linker_2, # of connection points: 2
#     Edge 22, Type (0, 0), BuildingBlock: XUDNAN_clean_linker_2, # of connection points: 2
#     Edge 23, Type (0, 0), BuildingBlock: XUDNAN_clean_linker_2, # of connection points: 2
#     Edge 24, Type (0, 0), BuildingBlock: XUDNAN_clean_linker_2, # of connection points: 2
#     Edge 25, Type (0, 0), BuildingBlock: XUDNAN_clean_linker_2, # of connection points: 2
#     Edge 26, Type (0, 0), BuildingBlock: XUDNAN_clean_linker_2, # of connection points: 2
#     Edge 27, Type (0, 0), BuildingBlock: XUDNAN_clean_linker_2, # of connection points: 2
#     Edge 28, Type (0, 0), BuildingBlock: XUDNAN_clean_linker_2, # of connection points: 2
#     Edge 29, Type (0, 0), BuildingBlock: XUDNAN_clean_linker_2, # of connection points: 2
#     Edge 30, Type (0, 0), BuildingBlock: XUDNAN_clean_linker_2, # of connection points: 2
#     Edge 31, Type (0, 0), BuildingBlock: XUDNAN_clean_linker_2, # of connection points: 2
#     Edge 32, Type (0, 0), BuildingBlock: XUDNAN_clean_linker_2, # of connection points: 2
#     Edge 33, Type (0, 0), BuildingBlock: XUDNAN_clean_linker_2, # of connection points: 2
#     Edge 34, Type (0, 0), BuildingBlock: XUDNAN_clean_linker_2, # of connection points: 2
#     Edge 35, Type (0, 0), BuildingBlock: XUDNAN_clean_linker_2, # of connection points: 2
#     Edge 36, Type (0, 0), BuildingBlock: XUDNAN_clean_linker_2, # of connection points: 2
#     Edge 37, Type (0, 0), BuildingBlock: XUDNAN_clean_linker_2, # of connection points: 2
#     Edge 38, Type (0, 0), BuildingBlock: XUDNAN_clean_linker_2, # of connection points: 2
#     Edge 39, Type (0, 0), BuildingBlock: XUDNAN_clean_linker_2, # of connection points: 2
#     Edge 40, Type (0, 0), BuildingBlock: XUDNAN_clean_linker_2, # of connection points: 2
#     Edge 41, Type (0, 0), BuildingBlock: XUDNAN_clean_linker_2, # of connection points: 2
#     Edge 42, Type (0, 0), BuildingBlock: XUDNAN_clean_linker_2, # of connection points: 2
#     Edge 43, Type (0, 0), BuildingBlock: XUDNAN_clean_linker_2, # of connection points: 2
#     Edge 44, Type (0, 0), BuildingBlock: XUDNAN_clean_linker_2, # of connection points: 2
#     Edge 45, Type (0, 0), BuildingBlock: XUDNAN_clean_linker_2, # of connection points: 2
#     Edge 46, Type (0, 0), BuildingBlock: XUDNAN_clean_linker_2, # of connection points: 2
#     Edge 47, Type (0, 0), BuildingBlock: XUDNAN_clean_linker_2, # of connection points: 2
# Relax obj value: 0.342
# Max RMSD: 0.267
# Mean RMSD: 0.202
data_MOF--net-pcb--node1-ICAMEG_clean_sbu_1--edge1-XUDNAN_clean_linker_2
_symmetry_space_group_name_H-M    P1
_symmetry_Int_Tables_number       1
_symmetry_cell_setting            triclinic
loop_
_symmetry_equiv_pos_as_xyz
'x, y, z'
_cell_length_a     54.45111
_cell_length_b     43.507654
_cell_length_c     44.753099
_cell_angle_alpha  95.142858
_cell_angle_beta   94.039226
_cell_angle_gamma 99.362054
loop_
_atom_site_label
_atom_site_type_symbol
_atom_site_fract_x
_atom_site_fract_y
_atom_site_fract_z
_atom_type_partial_charge
Co0 Co 0.13262 0.11632 0.13802 0.0
Co1 Co 0.13885 0.19579 0.14038 0.0
O2 O 0.15046 0.15807 0.15301 0.0
C3 C 0.1281 0.08742 0.19558 0.0
O4 O 0.10396 0.08742 0.19215 0.0
C5 C 0.19447 0.20751 0.13899 0.0
O6 O 0.19338 0.17843 0.12758 0.0
O7 O 0.14091 0.18068 0.09739 0.0
O8 O 0.12279 0.13069 0.0981 0.0
H9 H 0.08767 0.25514 0.07612 0.0
H10 H 0.18511 0.12203 0.16337 0.0
O11 O 0.14248 0.10056 0.17735 0.0
H12 H 0.18354 0.07456 0.05884 0.0
H13 H 0.12003 0.99841 0.12288 0.0
H14 H 0.08293 0.09211 0.10556 0.0
H15 H 0.14513 0.08782 0.07884 0.0
H16 H 0.14322 0.05117 0.14016 0.0
O17 O 0.17447 0.21815 0.14369 0.0
H18 H 0.10134 0.20794 0.09354 0.0
H19 H 0.15371 0.26426 0.15928 0.0
H20 H 0.05907 0.0397 0.08768 0.0
H21 H 0.22387 0.10856 0.14446 0.0
H22 H 0.07762 0.99237 0.09635 0.0
H23 H 0.22326 0.08475 0.09178 0.0
O24 O 0.10221 0.12805 0.15431 0.0
H25 H 0.16938 0.21592 0.25015 0.0
H26 H 0.10055 0.22235 0.17449 0.0
H27 H 0.09699 0.23888 0.22791 0.0
H28 H 0.13161 0.23583 0.26617 0.0
H29 H 0.17203 0.19922 0.19652 0.0
H30 H 0.14068 0.31209 0.14248 0.0
H31 H 0.10738 0.30769 0.10067 0.0
O32 O 0.10257 0.1752 0.13781 0.0
C33 C 0.13006 0.15434 0.08395 0.0
C34 C 0.10214 0.25736 0.09443 0.0
C35 C 0.13192 0.28932 0.13164 0.0
N36 N 0.12818 0.23332 0.12753 0.0
C37 C 0.10992 0.23071 0.10443 0.0
C38 C 0.13926 0.26216 0.14101 0.0
C39 C 0.11323 0.28683 0.10819 0.0
C40 C 0.18463 0.11138 0.14052 0.0
N41 N 0.16286 0.10576 0.12225 0.0
C42 C 0.20667 0.10393 0.12989 0.0
C43 C 0.20632 0.09064 0.10033 0.0
C44 C 0.18405 0.08497 0.08181 0.0
C45 C 0.16238 0.09272 0.09321 0.0
C46 C 0.11171 0.01882 0.11898 0.0
C47 C 0.09112 0.07163 0.10936 0.0
C48 C 0.12475 0.04879 0.12879 0.0
N49 N 0.11444 0.07474 0.12389 0.0
C50 C 0.07753 0.04201 0.0992 0.0
C51 C 0.08794 0.01546 0.10409 0.0
C52 C 0.09175 0.15139 0.14937 0.0
C53 C 0.1542 0.21745 0.23368 0.0
C54 C 0.11568 0.22085 0.19098 0.0
C55 C 0.11357 0.23031 0.22121 0.0
C56 C 0.13299 0.22859 0.24266 0.0
N57 N 0.13656 0.20997 0.18233 0.0
C58 C 0.15564 0.20812 0.20325 0.0
Co59 Co 0.86744 0.13437 0.17669 0.0
Co60 Co 0.88334 0.18669 0.24094 0.0
O61 O 0.86335 0.17177 0.20251 0.0
C62 C 0.87012 0.18453 0.13518 0.0
O63 O 0.88089 0.2051 0.15737 0.0
C64 C 0.83062 0.18304 0.25699 0.0
O65 O 0.82447 0.15655 0.2396 0.0
O66 O 0.87697 0.14421 0.25551 0.0
O67 O 0.87151 0.11143 0.21281 0.0
H68 H 0.94809 0.18322 0.32584 0.0
H69 H 0.82346 0.16501 0.16496 0.0
O70 O 0.86342 0.15596 0.13941 0.0
H71 H 0.78897 0.05699 0.18324 0.0
H72 H 0.8476 0.05445 0.08588 0.0
H73 H 0.90111 0.0875 0.18056 0.0
H74 H 0.83449 0.07418 0.18414 0.0
H75 H 0.84257 0.10166 0.1181 0.0
O76 O 0.85304 0.19768 0.25962 0.0
H77 H 0.9231 0.16438 0.27765 0.0
H78 H 0.88523 0.24218 0.28587 0.0
H79 H 0.90657 0.03993 0.14917 0.0
H80 H 0.77777 0.14875 0.16349 0.0
H81 H 0.87965 0.02307 0.1015 0.0
H82 H 0.76026 0.09441 0.17282 0.0
O83 O 0.90434 0.14842 0.1784 0.0
H84 H 0.85946 0.28055 0.19591 0.0
H85 H 0.92933 0.23353 0.23735 0.0
H86 H 0.938 0.28558 0.21885 0.0
H87 H 0.90291 0.30948 0.19803 0.0
H88 H 0.85165 0.22835 0.21424 0.0
H89 H 0.90961 0.26181 0.33426 0.0
H90 H 0.94139 0.23233 0.35452 0.0
O91 O 0.91419 0.17612 0.22374 0.0
C92 C 0.87407 0.11686 0.24142 0.0
C93 C 0.93434 0.19633 0.31724 0.0
C94 C 0.91273 0.2404 0.32198 0.0
N95 N 0.90283 0.20216 0.27886 0.0
C96 C 0.92018 0.18577 0.28992 0.0
C97 C 0.89893 0.22912 0.29458 0.0
C98 C 0.93056 0.22386 0.33332 0.0
C99 C 0.81595 0.14127 0.1688 0.0
N100 N 0.8316 0.12059 0.17473 0.0
C101 C 0.79008 0.13222 0.16804 0.0
C102 C 0.78027 0.10174 0.17332 0.0
C103 C 0.79636 0.08074 0.17921 0.0
C104 C 0.82212 0.09064 0.17984 0.0
C105 C 0.85939 0.0615 0.10665 0.0
C106 C 0.88924 0.08024 0.15992 0.0
C107 C 0.85669 0.08828 0.12494 0.0
N108 N 0.87142 0.09722 0.15131 0.0
C109 C 0.89245 0.05331 0.14221 0.0
C110 C 0.87737 0.0439 0.11543 0.0
C111 C 0.92021 0.16278 0.19942 0.0
C112 C 0.8749 0.27043 0.20502 0.0
C113 C 0.91397 0.24366 0.22814 0.0
C114 C 0.91899 0.27321 0.21781 0.0
C115 C 0.89929 0.28662 0.20616 0.0
N116 N 0.88999 0.22794 0.22695 0.0
C117 C 0.87058 0.24095 0.21559 0.0
Co118 Co 0.88776 0.88005 0.17447 0.0
Co119 Co 0.86651 0.801 0.16168 0.0
O120 O 0.86516 0.8424 0.18189 0.0
C121 C 0.904 0.91254 0.23541 0.0
O122 O 0.92715 0.9102 0.23043 0.0
C123 C 0.81278 0.80757 0.15533 0.0
O124 O 0.81965 0.83536 0.14641 0.0
O125 O 0.8646 0.81733 0.12106 0.0
O126 O 0.88929 0.864 0.13181 0.0
H127 H 0.89718 0.72553 0.08742 0.0
H128 H 0.84012 0.88594 0.20106 0.0
O129 O 0.88612 0.89744 0.21723 0.0
H130 H 0.83641 0.93734 0.10744 0.0
H131 H 0.91781 0.9967 0.18015 0.0
H132 H 0.93466 0.89228 0.14436 0.0
H133 H 0.87305 0.91388 0.12239 0.0
H134 H 0.88884 0.94913 0.18822 0.0
O135 O 0.82901 0.79013 0.16009 0.0
H136 H 0.89577 0.77729 0.11405 0.0
H137 H 0.83884 0.73646 0.16562 0.0
H138 H 0.96412 0.93928 0.1356 0.0
H139 H 0.80326 0.90948 0.18716 0.0
H140 H 0.9558 0.99202 0.15357 0.0
H141 H 0.80121 0.9354 0.14003 0.0
O142 O 0.9171 0.86004 0.18588 0.0
H143 H 0.842 0.78971 0.26689 0.0
H144 H 0.89684 0.75869 0.19074 0.0
H145 H 0.89994 0.73935 0.24075 0.0
H146 H 0.87227 0.75477 0.27922 0.0
H147 H 0.83989 0.8089 0.21675 0.0
H148 H 0.83947 0.68432 0.13937 0.0
H149 H 0.86888 0.67859 0.10005 0.0
O150 O 0.90423 0.81061 0.16443 0.0
C151 C 0.87765 0.84187 0.11297 0.0
C152 C 0.88434 0.72771 0.10458 0.0
C153 C 0.85192 0.70459 0.1337 0.0
N154 N 0.86737 0.75987 0.1415 0.0
C155 C 0.88351 0.75694 0.1198 0.0
C156 C 0.85159 0.7342 0.14841 0.0
C157 C 0.86843 0.70139 0.11165 0.0
C158 C 0.83951 0.89743 0.18066 0.0
N159 N 0.85886 0.89867 0.16269 0.0
C160 C 0.8185 0.91056 0.17281 0.0
C161 C 0.81735 0.92505 0.14634 0.0
C162 C 0.83708 0.92611 0.12804 0.0
C163 C 0.85775 0.91263 0.13655 0.0
C164 C 0.92172 0.97388 0.17228 0.0
C165 C 0.93101 0.91509 0.15249 0.0
C166 C 0.90543 0.94681 0.17697 0.0
N167 N 0.91028 0.91782 0.16738 0.0
C168 C 0.9477 0.94165 0.14733 0.0
C169 C 0.94301 0.97123 0.1574 0.0
C170 C 0.92135 0.83282 0.17676 0.0
C171 C 0.85422 0.78291 0.25036 0.0
C172 C 0.88511 0.76594 0.2075 0.0
C173 C 0.88677 0.75471 0.23572 0.0
C174 C 0.87121 0.76332 0.25727 0.0
N175 N 0.86847 0.78521 0.20089 0.0
C176 C 0.85311 0.79369 0.2219 0.0
Co177 Co 0.14626 0.85198 0.15008 0.0
Co178 Co 0.15067 0.81642 0.21632 0.0
O179 O 0.15858 0.82174 0.17473 0.0
C180 C 0.13722 0.79064 0.10985 0.0
O181 O 0.1425 0.77465 0.13222 0.0
C182 C 0.20611 0.83332 0.22157 0.0
O183 O 0.20353 0.85695 0.20602 0.0
O184 O 0.15644 0.86281 0.22813 0.0
O185 O 0.15383 0.88462 0.18461 0.0
H186 H 0.10816 0.83678 0.31041 0.0
H187 H 0.18587 0.81706 0.12987 0.0
O188 O 0.13805 0.82018 0.11396 0.0
H189 H 0.22254 0.92879 0.1335 0.0
H190 H 0.13529 0.90561 0.05593 0.0
H191 H 0.11521 0.90115 0.16135 0.0
H192 H 0.17936 0.91292 0.14642 0.0
H193 H 0.15092 0.86746 0.08671 0.0
O194 O 0.18685 0.8152 0.22821 0.0
H195 H 0.11814 0.84349 0.25822 0.0
H196 H 0.16712 0.77707 0.2626 0.0
H197 H 0.09953 0.93997 0.13151 0.0
H198 H 0.22899 0.83186 0.11644 0.0
H199 H 0.10959 0.94243 0.07841 0.0
H200 H 0.24766 0.8881 0.11828 0.0
O201 O 0.11156 0.84001 0.16183 0.0
H202 H 0.17261 0.71482 0.17263 0.0
H203 H 0.10949 0.76419 0.22386 0.0
H204 H 0.10175 0.70706 0.21026 0.0
H205 H 0.1335 0.68198 0.18457 0.0
H206 H 0.17936 0.77194 0.18604 0.0
H207 H 0.15782 0.76981 0.31491 0.0
H208 H 0.12808 0.79972 0.33911 0.0
O209 O 0.11451 0.81711 0.20488 0.0
C210 C 0.15714 0.88649 0.21314 0.0
C211 C 0.1211 0.82356 0.30009 0.0
C212 C 0.14901 0.78601 0.30262 0.0
N213 N 0.14308 0.81057 0.25733 0.0
C214 C 0.12678 0.82721 0.27052 0.0
C215 C 0.15425 0.79027 0.27302 0.0
C216 C 0.1323 0.80278 0.31619 0.0
C217 C 0.19367 0.84155 0.13035 0.0
N218 N 0.17994 0.86406 0.13859 0.0
C219 C 0.21819 0.84981 0.12288 0.0
C220 C 0.22867 0.88136 0.12397 0.0
C221 C 0.21459 0.9042 0.13251 0.0
C222 C 0.19015 0.89506 0.13984 0.0
C223 C 0.13085 0.90485 0.07907 0.0
C224 C 0.1198 0.90218 0.13832 0.0
C225 C 0.13956 0.8832 0.09659 0.0
N226 N 0.13412 0.88219 0.12589 0.0
C227 C 0.11081 0.92416 0.1215 0.0
C228 C 0.11643 0.92549 0.09169 0.0
C229 C 0.10191 0.82693 0.18365 0.0
C230 C 0.15864 0.72547 0.18383 0.0
C231 C 0.12325 0.75352 0.21234 0.0
C232 C 0.11883 0.72113 0.20486 0.0
C233 C 0.13668 0.70706 0.1905 0.0
N234 N 0.14481 0.77144 0.20565 0.0
C235 C 0.16241 0.7578 0.19163 0.0
Co236 Co 0.13002 0.83234 0.86415 0.0
Co237 Co 0.13229 0.76042 0.82848 0.0
O238 O 0.14575 0.80524 0.83721 0.0
C239 C 0.14986 0.87353 0.81652 0.0
O240 O 0.15952 0.85136 0.80219 0.0
C241 C 0.17849 0.73235 0.8356 0.0
O242 O 0.16639 0.71111 0.85075 0.0
O243 O 0.13576 0.75527 0.87246 0.0
O244 O 0.12073 0.79775 0.88965 0.0
H245 H 0.07879 0.65873 0.84447 0.0
H246 H 0.18369 0.8497 0.85234 0.0
O247 O 0.13834 0.86865 0.83991 0.0
H248 H 0.18339 0.85397 0.96267 0.0
H249 H 0.12088 0.93359 0.92303 0.0
H250 H 0.08253 0.82339 0.89354 0.0
H251 H 0.14402 0.83972 0.93023 0.0
H252 H 0.14209 0.89915 0.89073 0.0
O253 O 0.16765 0.75354 0.82529 0.0
H254 H 0.0954 0.71522 0.85488 0.0
H255 H 0.14221 0.70993 0.78325 0.0
H256 H 0.06089 0.85687 0.92624 0.0
H257 H 0.22341 0.86445 0.88392 0.0
H258 H 0.08005 0.91243 0.94118 0.0
H259 H 0.2235 0.86668 0.93957 0.0
O260 O 0.0982 0.81934 0.83881 0.0
H261 H 0.16237 0.79893 0.73259 0.0
H262 H 0.09136 0.74199 0.77885 0.0
H263 H 0.08677 0.74991 0.72506 0.0
H264 H 0.12247 0.77849 0.70153 0.0
H265 H 0.16608 0.79082 0.78642 0.0
H266 H 0.12611 0.65339 0.77205 0.0
H267 H 0.09417 0.62744 0.8028 0.0
O268 O 0.09669 0.76741 0.83158 0.0
C269 C 0.12725 0.77143 0.8933 0.0
C270 C 0.09271 0.66978 0.83092 0.0
C271 C 0.11925 0.66678 0.79025 0.0
N272 N 0.11973 0.71586 0.81969 0.0
C273 C 0.10218 0.70175 0.83671 0.0
C274 C 0.12827 0.6988 0.79667 0.0
C275 C 0.10133 0.65223 0.80752 0.0
C276 C 0.18339 0.85113 0.87644 0.0
N277 N 0.16136 0.8446 0.88928 0.0
C278 C 0.20604 0.85928 0.89427 0.0
C279 C 0.20609 0.86046 0.92549 0.0
C280 C 0.1836 0.85335 0.93846 0.0
C281 C 0.16134 0.84532 0.91992 0.0
C282 C 0.11237 0.90939 0.91675 0.0
C283 C 0.09112 0.84745 0.90012 0.0
C284 C 0.12425 0.88979 0.89837 0.0
N285 N 0.11365 0.85918 0.89039 0.0
C286 C 0.07872 0.86633 0.91858 0.0
C287 C 0.08947 0.89751 0.92692 0.0
C288 C 0.08614 0.79165 0.83203 0.0
C289 C 0.14669 0.78643 0.74258 0.0
C290 C 0.10692 0.75473 0.76891 0.0
C291 C 0.10424 0.75899 0.73837 0.0
C292 C 0.12429 0.77499 0.72517 0.0
N293 N 0.12896 0.76603 0.78587 0.0
C294 C 0.14869 0.7817 0.77305 0.0
Co295 Co 0.10859 0.13387 0.79952 0.0
Co296 Co 0.14191 0.20746 0.82299 0.0
O297 O 0.13828 0.16603 0.79977 0.0
C298 C 0.15165 0.09672 0.8007 0.0
O299 O 0.16922 0.12129 0.80105 0.0
C300 C 0.154 0.22372 0.76133 0.0
O301 O 0.13229 0.20774 0.74994 0.0
O302 O 0.10866 0.21473 0.80482 0.0
O303 O 0.0868 0.16611 0.80003 0.0
H304 H 0.11397 0.29253 0.88899 0.0
H305 H 0.14399 0.13018 0.75204 0.0
O306 O 0.12868 0.0993 0.7995 0.0
H307 H 0.06193 0.12859 0.69744 0.0
H308 H 0.0539 0.02917 0.76863 0.0
H309 H 0.06329 0.12916 0.83306 0.0
H310 H 0.06625 0.13146 0.75283 0.0
H311 H 0.09082 0.07003 0.76729 0.0
O312 O 0.15972 0.22678 0.78964 0.0
H313 H 0.10948 0.24052 0.86028 0.0
H314 H 0.183 0.26279 0.83335 0.0
H315 H 0.02589 0.08911 0.83477 0.0
H316 H 0.14049 0.12695 0.69669 0.0
H317 H 0.02102 0.03867 0.80241 0.0
H318 H 0.09922 0.12618 0.66895 0.0
O319 O 0.11207 0.1375 0.84414 0.0
H320 H 0.22707 0.177 0.82108 0.0
H321 H 0.16642 0.21514 0.88569 0.0
H322 H 0.20669 0.20612 0.90882 0.0
H323 H 0.23744 0.18706 0.87642 0.0
H324 H 0.18633 0.18569 0.79899 0.0
H325 H 0.1882 0.31513 0.86153 0.0
H326 H 0.15357 0.33024 0.88973 0.0
O327 O 0.12535 0.18881 0.85764 0.0
C328 C 0.08803 0.19553 0.79996 0.0
C329 C 0.12922 0.28619 0.87685 0.0
C330 C 0.17087 0.29889 0.8614 0.0
N331 N 0.146 0.24855 0.84531 0.0
C332 C 0.12681 0.25675 0.86062 0.0
C333 C 0.16778 0.26925 0.84541 0.0
C334 C 0.15143 0.30735 0.87724 0.0
C335 C 0.12592 0.12936 0.74024 0.0
N336 N 0.10531 0.13044 0.75577 0.0
C337 C 0.12407 0.12775 0.70883 0.0
C338 C 0.10092 0.12739 0.69328 0.0
C339 C 0.08 0.12874 0.70925 0.0
C340 C 0.08258 0.13038 0.74065 0.0
C341 C 0.05575 0.05111 0.78275 0.0
C342 C 0.0612 0.10739 0.8187 0.0
C343 C 0.07665 0.07431 0.78214 0.0
N344 N 0.07911 0.10211 0.79987 0.0
C345 C 0.04002 0.08475 0.81985 0.0
C346 C 0.03732 0.05645 0.80171 0.0
C347 C 0.11703 0.16114 0.86391 0.0
C348 C 0.21382 0.18527 0.83545 0.0
C349 C 0.17949 0.20639 0.87148 0.0
C350 C 0.20237 0.20154 0.88469 0.0
C351 C 0.21962 0.19089 0.8665 0.0
N352 N 0.17388 0.20073 0.84102 0.0
C353 C 0.19073 0.19033 0.82306 0.0
Co354 Co 0.89548 0.1981 0.87248 0.0
Co355 Co 0.85988 0.20365 0.80792 0.0
O356 O 0.86868 0.21551 0.85145 0.0
C357 C 0.8587 0.20721 0.9194 0.0
O358 O 0.84401 0.21927 0.90094 0.0
C359 C 0.84925 0.26988 0.81987 0.0
O360 O 0.85982 0.27284 0.84746 0.0
O361 O 0.89517 0.22046 0.80044 0.0
O362 O 0.9139 0.19639 0.83538 0.0
H363 H 0.87499 0.15626 0.70573 0.0
H364 H 0.88266 0.25893 0.8983 0.0
O365 O 0.87855 0.19841 0.91097 0.0
H366 H 0.97256 0.2811 0.88486 0.0
H367 H 0.95535 0.18587 0.96006 0.0
H368 H 0.9234 0.14696 0.85537 0.0
H369 H 0.94858 0.22806 0.87141 0.0
H370 H 0.92297 0.20963 0.93375 0.0
O371 O 0.85006 0.2456 0.80202 0.0
H372 H 0.88384 0.17032 0.7605 0.0
H373 H 0.81932 0.21355 0.76274 0.0
H374 H 0.95604 0.1229 0.88067 0.0
H375 H 0.90597 0.31208 0.91248 0.0
H376 H 0.97221 0.14231 0.93343 0.0
H377 H 0.95131 0.3236 0.90572 0.0
O378 O 0.87666 0.15558 0.86014 0.0
H379 H 0.78015 0.20541 0.85844 0.0
H380 H 0.82258 0.14685 0.78459 0.0
H381 H 0.77972 0.12538 0.79483 0.0
H382 H 0.75807 0.15482 0.83192 0.0
H383 H 0.82311 0.2256 0.84789 0.0
H384 H 0.81 0.20034 0.70798 0.0
H385 H 0.83785 0.17132 0.67911 0.0
O386 O 0.86791 0.16013 0.81129 0.0
C387 C 0.91445 0.21159 0.81237 0.0
C388 C 0.86267 0.16883 0.71808 0.0
C389 C 0.82623 0.19362 0.71933 0.0
N390 N 0.85207 0.19259 0.76487 0.0
C391 C 0.86755 0.17678 0.74911 0.0
C392 C 0.83168 0.20116 0.75034 0.0
C393 C 0.84185 0.17732 0.70315 0.0
C394 C 0.90234 0.26341 0.89563 0.0
N395 N 0.91413 0.24009 0.8843 0.0
C396 C 0.91548 0.29373 0.90357 0.0
C397 C 0.9409 0.3002 0.89973 0.0
C398 C 0.95283 0.27638 0.88804 0.0
C399 C 0.93909 0.24635 0.88041 0.0
C400 C 0.94848 0.17725 0.93705 0.0
C401 C 0.93046 0.15573 0.87824 0.0
C402 C 0.93009 0.19054 0.92206 0.0
N403 N 0.92139 0.17984 0.89295 0.0
C404 C 0.9489 0.14193 0.89249 0.0
C405 C 0.95794 0.15281 0.9221 0.0
C406 C 0.86964 0.14352 0.83331 0.0
C407 C 0.78935 0.19234 0.84221 0.0
C408 C 0.81353 0.15961 0.80103 0.0
C409 C 0.78913 0.14742 0.8066 0.0
C410 C 0.77699 0.16396 0.82736 0.0
N411 N 0.82561 0.1875 0.81564 0.0
C412 C 0.81376 0.20376 0.83605 0.0
Co413 Co 0.89034 0.87706 0.83762 0.0
Co414 Co 0.85511 0.8032 0.83604 0.0
O415 O 0.86072 0.84578 0.8226 0.0
C416 C 0.84863 0.91559 0.83066 0.0
O417 O 0.83163 0.89127 0.82043 0.0
C418 C 0.83738 0.79541 0.76944 0.0
O419 O 0.84523 0.82515 0.76723 0.0
O420 O 0.88891 0.79635 0.82489 0.0
O421 O 0.91135 0.84388 0.83879 0.0
H422 H 0.87905 0.71562 0.89156 0.0
H423 H 0.86171 0.88666 0.78044 0.0
O424 O 0.87108 0.91258 0.83776 0.0
H425 H 0.9477 0.88426 0.75409 0.0
H426 H 0.94845 0.9807 0.84414 0.0
H427 H 0.93152 0.87857 0.8851 0.0
H428 H 0.93673 0.87836 0.80588 0.0
H429 H 0.91171 0.94159 0.82398 0.0
O430 O 0.84042 0.78388 0.79442 0.0
H431 H 0.88506 0.76851 0.87458 0.0
H432 H 0.81386 0.74797 0.82506 0.0
H433 H 0.96874 0.91678 0.90549 0.0
H434 H 0.87194 0.89329 0.72859 0.0
H435 H 0.97739 0.96831 0.88504 0.0
H436 H 0.91521 0.89197 0.71496 0.0
O437 O 0.88226 0.87187 0.87938 0.0
H438 H 0.77118 0.83692 0.82052 0.0
H439 H 0.82685 0.79212 0.88978 0.0
H440 H 0.78569 0.80066 0.90489 0.0
H441 H 0.75742 0.82306 0.87007 0.0
H442 H 0.8126 0.82852 0.80659 0.0
H443 H 0.8072 0.69475 0.84125 0.0
H444 H 0.83989 0.67833 0.87487 0.0
O445 O 0.86914 0.82014 0.87838 0.0
C446 C 0.90976 0.8148 0.83075 0.0
C447 C 0.86464 0.72253 0.87698 0.0
C448 C 0.82433 0.71081 0.84871 0.0
N449 N 0.84978 0.76141 0.84902 0.0
C450 C 0.86791 0.75248 0.86736 0.0
C451 C 0.82825 0.74094 0.83953 0.0
C452 C 0.84267 0.70161 0.86758 0.0
C453 C 0.88061 0.88645 0.77502 0.0
N454 N 0.89852 0.88218 0.79646 0.0
C455 C 0.88629 0.89003 0.74544 0.0
C456 C 0.91055 0.88923 0.73779 0.0
C457 C 0.92876 0.88486 0.75971 0.0
C458 C 0.92237 0.88135 0.78904 0.0
C459 C 0.94492 0.9583 0.85319 0.0
C460 C 0.93525 0.90083 0.87589 0.0
C461 C 0.92408 0.93608 0.84194 0.0
N462 N 0.91953 0.90769 0.8532 0.0
C463 C 0.95632 0.92242 0.88761 0.0
C464 C 0.96115 0.95133 0.87614 0.0
C465 C 0.87659 0.84725 0.89257 0.0
C466 C 0.78327 0.82701 0.83584 0.0
C467 C 0.8148 0.80207 0.87454 0.0
C468 C 0.79143 0.80675 0.8832 0.0
C469 C 0.77558 0.81929 0.86366 0.0
N470 N 0.82222 0.80955 0.84714 0.0
C471 C 0.80679 0.822 0.82796 0.0
Co472 Co 0.62288 0.62092 0.62888 0.0
Co473 Co 0.64213 0.69993 0.63249 0.0
O474 O 0.64623 0.65877 0.64439 0.0
C475 C 0.61346 0.59071 0.68498 0.0
O476 O 0.58975 0.59293 0.68045 0.0
C477 C 0.69591 0.69601 0.62902 0.0
O478 O 0.68917 0.66789 0.61471 0.0
O479 O 0.64145 0.68399 0.58901 0.0
O480 O 0.61674 0.63747 0.58919 0.0
H481 H 0.60406 0.77402 0.57095 0.0
H482 H 0.6733 0.61457 0.6548 0.0
O483 O 0.62921 0.60338 0.66806 0.0
H484 H 0.66659 0.5653 0.5503 0.0
H485 H 0.59282 0.50424 0.61259 0.0
H486 H 0.57258 0.60815 0.59587 0.0
H487 H 0.63174 0.58838 0.56985 0.0
H488 H 0.62284 0.55222 0.63038 0.0
O489 O 0.67942 0.71262 0.63542 0.0
H490 H 0.6088 0.72245 0.5872 0.0
H491 H 0.66835 0.76526 0.65159 0.0
H492 H 0.54199 0.56074 0.57769 0.0
H493 H 0.70836 0.59109 0.63638 0.0
H494 H 0.55203 0.50831 0.58602 0.0
H495 H 0.70518 0.56634 0.58372 0.0
O496 O 0.59496 0.64013 0.64441 0.0
H497 H 0.67481 0.71264 0.74157 0.0
H498 H 0.6114 0.73829 0.6681 0.0
H499 H 0.6115 0.75696 0.72175 0.0
H500 H 0.64347 0.74427 0.75892 0.0
H501 H 0.67378 0.69404 0.68776 0.0
H502 H 0.66438 0.81726 0.63589 0.0
H503 H 0.63198 0.82189 0.59538 0.0
O504 O 0.60465 0.68869 0.63067 0.0
C505 C 0.62733 0.65973 0.57533 0.0
C506 C 0.6182 0.77232 0.58869 0.0
C507 C 0.65208 0.79658 0.62511 0.0
N508 N 0.63871 0.74086 0.62044 0.0
C509 C 0.62093 0.74319 0.59804 0.0
C510 C 0.65428 0.76706 0.63384 0.0
C511 C 0.63389 0.79916 0.60239 0.0
C512 C 0.67162 0.60351 0.63197 0.0
N513 N 0.65041 0.60279 0.61349 0.0
C514 C 0.69161 0.5904 0.62161 0.0
C515 C 0.68984 0.57658 0.59206 0.0
C516 C 0.6682 0.57603 0.57328 0.0
C517 C 0.64858 0.58933 0.58443 0.0
C518 C 0.58822 0.52694 0.60882 0.0
C519 C 0.5771 0.58543 0.59957 0.0
C520 C 0.60514 0.55422 0.61886 0.0
N521 N 0.59947 0.58301 0.61421 0.0
C522 C 0.5597 0.55866 0.58922 0.0
C523 C 0.56534 0.52925 0.59391 0.0
C524 C 0.58923 0.66666 0.6396 0.0
C525 C 0.66079 0.71833 0.7256 0.0
C526 C 0.62519 0.73239 0.68413 0.0
C527 C 0.62524 0.74316 0.71449 0.0
C528 C 0.64319 0.73606 0.73532 0.0
N529 N 0.64254 0.71507 0.67473 0.0
C530 C 0.66014 0.70793 0.69506 0.0
Co531 Co 0.36238 0.63764 0.67299 0.0
Co532 Co 0.38316 0.69251 0.73435 0.0
O533 O 0.36009 0.67544 0.69903 0.0
C534 C 0.36547 0.68738 0.63212 0.0
O535 O 0.38009 0.70536 0.65357 0.0
C536 C 0.33334 0.68212 0.75879 0.0
O537 O 0.32935 0.65346 0.74533 0.0
O538 O 0.38203 0.65023 0.74924 0.0
O539 O 0.36856 0.61543 0.70877 0.0
H540 H 0.45799 0.69694 0.808 0.0
H541 H 0.31833 0.6691 0.66522 0.0
O542 O 0.35626 0.6594 0.63624 0.0
H543 H 0.28478 0.56229 0.68801 0.0
H544 H 0.33638 0.55705 0.5836 0.0
H545 H 0.39535 0.58977 0.67389 0.0
H546 H 0.32992 0.57839 0.68418 0.0
H547 H 0.33392 0.60494 0.61644 0.0
O548 O 0.35411 0.70007 0.75743 0.0
H549 H 0.42912 0.67565 0.76328 0.0
H550 H 0.38542 0.74661 0.78099 0.0
H551 H 0.39825 0.54153 0.64192 0.0
H552 H 0.27301 0.65394 0.66861 0.0
H553 H 0.3686 0.52484 0.59642 0.0
H554 H 0.25598 0.60023 0.6802 0.0
O555 O 0.39916 0.65067 0.67134 0.0
H556 H 0.34669 0.78028 0.69241 0.0
H557 H 0.42443 0.74443 0.72627 0.0
H558 H 0.42673 0.79601 0.70685 0.0
H559 H 0.38765 0.81426 0.68977 0.0
H560 H 0.34526 0.72873 0.71168 0.0
H561 H 0.41372 0.76854 0.82602 0.0
H562 H 0.45035 0.74371 0.83972 0.0
O563 O 0.41237 0.686 0.71154 0.0
C564 C 0.37611 0.62227 0.7365 0.0
C565 C 0.44212 0.708 0.80223 0.0
C566 C 0.41725 0.74816 0.81237 0.0
N567 N 0.40568 0.70994 0.76947 0.0
C568 C 0.42574 0.69609 0.7769 0.0
C569 C 0.40125 0.73558 0.7869 0.0
C570 C 0.43781 0.73423 0.82003 0.0
C571 C 0.31102 0.64561 0.67002 0.0
N572 N 0.32672 0.62464 0.67445 0.0
C573 C 0.28536 0.63719 0.67201 0.0
C574 C 0.27582 0.60706 0.67855 0.0
C575 C 0.29196 0.58577 0.68295 0.0
C576 C 0.31751 0.59504 0.68084 0.0
C577 C 0.34937 0.56403 0.6034 0.0
C578 C 0.38229 0.58258 0.65422 0.0
C579 C 0.34812 0.59118 0.62202 0.0
N580 N 0.36437 0.60003 0.64716 0.0
C581 C 0.38407 0.55528 0.63616 0.0
C582 C 0.36745 0.54596 0.61061 0.0
C583 C 0.41622 0.66949 0.68788 0.0
C584 C 0.36384 0.77262 0.69983 0.0
C585 C 0.40735 0.75216 0.71879 0.0
C586 C 0.40877 0.78142 0.70788 0.0
C587 C 0.38683 0.79165 0.69833 0.0
N588 N 0.38474 0.7336 0.72016 0.0
C589 C 0.36315 0.7435 0.71088 0.0
Co590 Co 0.3818 0.37611 0.66741 0.0
Co591 Co 0.3611 0.29843 0.67399 0.0
O592 O 0.36079 0.34277 0.68472 0.0
C593 C 0.4044 0.41755 0.72207 0.0
O594 O 0.42653 0.41309 0.71451 0.0
C595 C 0.30614 0.29985 0.66449 0.0
O596 O 0.31048 0.31921 0.64385 0.0
O597 O 0.35572 0.30362 0.63011 0.0
O598 O 0.37862 0.35096 0.62749 0.0
H599 H 0.38579 0.20621 0.61498 0.0
H600 H 0.33761 0.38918 0.69834 0.0
O601 O 0.38477 0.40215 0.70712 0.0
H602 H 0.32359 0.41889 0.59554 0.0
H603 H 0.41131 0.48841 0.64943 0.0
H604 H 0.42379 0.37906 0.62843 0.0
H605 H 0.36159 0.39824 0.6108 0.0
H606 H 0.38464 0.44564 0.67034 0.0
O607 O 0.32407 0.28931 0.67768 0.0
H608 H 0.38596 0.2623 0.62948 0.0
H609 H 0.33519 0.23947 0.69516 0.0
H610 H 0.45078 0.42112 0.60689 0.0
H611 H 0.29952 0.41021 0.68416 0.0
H612 H 0.44463 0.47628 0.61737 0.0
H613 H 0.2923 0.42521 0.63242 0.0
O614 O 0.41225 0.35843 0.67915 0.0
H615 H 0.34529 0.31426 0.78315 0.0
H616 H 0.39553 0.26651 0.71039 0.0
H617 H 0.40309 0.26076 0.7644 0.0
H618 H 0.37777 0.28461 0.8012 0.0
H619 H 0.33864 0.31982 0.72897 0.0
H620 H 0.33431 0.18314 0.68119 0.0
H621 H 0.35983 0.1662 0.64092 0.0
O622 O 0.39824 0.30659 0.6713 0.0
C623 C 0.36646 0.32487 0.61515 0.0
C624 C 0.37466 0.2133 0.63263 0.0
C625 C 0.34573 0.20036 0.66976 0.0
N626 N 0.36075 0.25416 0.66328 0.0
C627 C 0.37473 0.24503 0.64099 0.0
C628 C 0.34625 0.23229 0.67751 0.0
C629 C 0.36006 0.19086 0.64717 0.0
C630 C 0.3347 0.39584 0.67583 0.0
N631 N 0.35193 0.39265 0.6555 0.0
C632 C 0.31304 0.40764 0.66791 0.0
C633 C 0.30899 0.41602 0.63887 0.0
C634 C 0.32653 0.41246 0.61816 0.0
C635 C 0.34797 0.40061 0.6269 0.0
C636 C 0.41419 0.46449 0.6447 0.0
C637 C 0.42099 0.40299 0.63309 0.0
C638 C 0.39918 0.44016 0.65654 0.0
N639 N 0.4027 0.40985 0.65071 0.0
C640 C 0.43633 0.42672 0.62083 0.0
C641 C 0.43287 0.45766 0.62672 0.0
C642 C 0.41597 0.33012 0.67613 0.0
C643 C 0.35646 0.30376 0.76734 0.0
C644 C 0.38466 0.27726 0.72627 0.0
C645 C 0.38892 0.27378 0.75683 0.0
C646 C 0.37469 0.28715 0.77746 0.0
N647 N 0.36673 0.29354 0.7165 0.0
C648 C 0.35275 0.30679 0.73662 0.0
Co649 Co 0.64348 0.34784 0.65225 0.0
Co650 Co 0.64288 0.32037 0.72286 0.0
O651 O 0.65398 0.32103 0.68201 0.0
C652 C 0.61771 0.30288 0.60207 0.0
O653 O 0.59824 0.3167 0.6057 0.0
C654 C 0.69921 0.33402 0.73136 0.0
O655 O 0.70005 0.34329 0.70434 0.0
O656 O 0.64542 0.36707 0.72857 0.0
O657 O 0.64961 0.38438 0.68307 0.0
H658 H 0.58996 0.34771 0.80556 0.0
H659 H 0.68184 0.30914 0.63699 0.0
O660 O 0.63729 0.31101 0.62031 0.0
H661 H 0.72325 0.41855 0.63578 0.0
H662 H 0.64122 0.39078 0.55121 0.0
H663 H 0.61175 0.39712 0.65292 0.0
H664 H 0.67926 0.40656 0.64709 0.0
H665 H 0.65381 0.35647 0.58838 0.0
O666 O 0.67831 0.32469 0.74164 0.0
H667 H 0.60475 0.34857 0.75475 0.0
H668 H 0.65678 0.28957 0.77712 0.0
H669 H 0.59899 0.43215 0.61658 0.0
H670 H 0.72574 0.32008 0.62505 0.0
H671 H 0.6137 0.42905 0.56527 0.0
H672 H 0.74677 0.37513 0.62455 0.0
O673 O 0.60785 0.33866 0.66234 0.0
H674 H 0.67268 0.219 0.6946 0.0
H675 H 0.60351 0.26706 0.73285 0.0
H676 H 0.59937 0.20953 0.72596 0.0
H677 H 0.63417 0.18513 0.70684 0.0
H678 H 0.67591 0.27641 0.70147 0.0
H679 H 0.64268 0.28827 0.82824 0.0
H680 H 0.60898 0.3174 0.84271 0.0
O681 O 0.60761 0.31604 0.70566 0.0
C682 C 0.64863 0.389 0.71139 0.0
C683 C 0.60463 0.33488 0.79951 0.0
C684 C 0.63425 0.30156 0.81225 0.0
N685 N 0.63155 0.31907 0.76294 0.0
C686 C 0.61305 0.33523 0.77076 0.0
C687 C 0.6422 0.30246 0.7833 0.0
C688 C 0.61533 0.31789 0.82035 0.0
C689 C 0.69075 0.33314 0.63643 0.0
N690 N 0.67796 0.35716 0.64268 0.0
C691 C 0.71567 0.3392 0.62983 0.0
C692 C 0.72747 0.37009 0.62961 0.0
C693 C 0.7143 0.39447 0.63596 0.0
C694 C 0.68942 0.38753 0.64251 0.0
C695 C 0.63469 0.39236 0.57349 0.0
C696 C 0.6183 0.39568 0.63067 0.0
C697 C 0.64172 0.37295 0.59462 0.0
N698 N 0.63351 0.37476 0.62281 0.0
C699 C 0.61098 0.41556 0.61018 0.0
C700 C 0.61924 0.41382 0.5814 0.0
C701 C 0.59654 0.32536 0.68299 0.0
C702 C 0.65743 0.22936 0.70308 0.0
C703 C 0.61871 0.25663 0.72442 0.0
C704 C 0.61627 0.22403 0.72063 0.0
C705 C 0.63581 0.21036 0.70991 0.0
N706 N 0.64005 0.27512 0.71787 0.0
C707 C 0.65921 0.26188 0.70716 0.0
Co708 Co 0.6324 0.32945 0.36367 0.0
Co709 Co 0.6311 0.25687 0.32578 0.0
O710 O 0.64595 0.30141 0.3349 0.0
C711 C 0.65006 0.37019 0.31469 0.0
O712 O 0.6579 0.34741 0.29886 0.0
C713 C 0.68485 0.25624 0.34 0.0
O714 O 0.68332 0.27469 0.36443 0.0
O715 O 0.63395 0.25046 0.36952 0.0
O716 O 0.62338 0.29507 0.38946 0.0
H717 H 0.57297 0.15784 0.33926 0.0
H718 H 0.68497 0.34616 0.34763 0.0
O719 O 0.6403 0.36578 0.33932 0.0
H720 H 0.69106 0.34611 0.45796 0.0
H721 H 0.62963 0.43137 0.42543 0.0
H722 H 0.58681 0.32276 0.39688 0.0
H723 H 0.65004 0.33421 0.42869 0.0
H724 H 0.64776 0.3958 0.39062 0.0
O725 O 0.66544 0.24633 0.32197 0.0
H726 H 0.59115 0.21385 0.35006 0.0
H727 H 0.64125 0.20521 0.28242 0.0
H728 H 0.56822 0.35742 0.43206 0.0
H729 H 0.72626 0.35864 0.37603 0.0
H730 H 0.58964 0.41217 0.44654 0.0
H731 H 0.72958 0.35859 0.43165 0.0
O732 O 0.59932 0.31823 0.34076 0.0
H733 H 0.663 0.29464 0.23053 0.0
H734 H 0.59035 0.24033 0.27589 0.0
H735 H 0.58652 0.24857 0.2221 0.0
H736 H 0.62305 0.27583 0.19904 0.0
H737 H 0.66591 0.28622 0.28434 0.0
H738 H 0.62378 0.14907 0.27108 0.0
H739 H 0.58931 0.12506 0.29952 0.0
O740 O 0.59613 0.26639 0.32889 0.0
C741 C 0.62728 0.26724 0.39129 0.0
C742 C 0.58793 0.16805 0.32665 0.0
C743 C 0.61647 0.16312 0.28841 0.0
N744 N 0.6171 0.21282 0.31674 0.0
C745 C 0.59824 0.19976 0.33261 0.0
C746 C 0.62633 0.1949 0.29498 0.0
C747 C 0.59713 0.14966 0.30437 0.0
C748 C 0.68608 0.34674 0.37179 0.0
N749 N 0.66494 0.3401 0.3864 0.0
C750 C 0.7096 0.35354 0.38779 0.0
C751 C 0.71146 0.35342 0.41898 0.0
C752 C 0.68987 0.34642 0.43375 0.0
C753 C 0.66667 0.3397 0.417 0.0
C754 C 0.62015 0.40753 0.41935 0.0
C755 C 0.59637 0.34646 0.40324 0.0
C756 C 0.63028 0.3873 0.39957 0.0
N757 N 0.61844 0.35713 0.39182 0.0
C758 C 0.5857 0.36602 0.4231 0.0
C759 C 0.59771 0.39675 0.43119 0.0
C760 C 0.5865 0.29134 0.3319 0.0
C761 C 0.64695 0.28274 0.24032 0.0
C762 C 0.60625 0.2525 0.26613 0.0
C763 C 0.60401 0.25695 0.2356 0.0
C764 C 0.62452 0.27221 0.22267 0.0
N765 N 0.6283 0.26295 0.28331 0.0
C766 C 0.6485 0.27785 0.27077 0.0
Co767 Co 0.60994 0.63076 0.29111 0.0
Co768 Co 0.64486 0.70506 0.31088 0.0
O769 O 0.64016 0.66225 0.28963 0.0
C770 C 0.65255 0.59312 0.29559 0.0
O771 O 0.67015 0.6174 0.29469 0.0
C772 C 0.66578 0.71243 0.25006 0.0
O773 O 0.65857 0.68253 0.24147 0.0
O774 O 0.61123 0.71162 0.29375 0.0
O775 O 0.58855 0.66344 0.28919 0.0
H776 H 0.61833 0.79258 0.37504 0.0
H777 H 0.64446 0.61911 0.24393 0.0
O778 O 0.62958 0.59581 0.29382 0.0
H779 H 0.56317 0.61983 0.18853 0.0
H780 H 0.55406 0.5259 0.26629 0.0
H781 H 0.5645 0.6298 0.32412 0.0
H782 H 0.56798 0.62801 0.24391 0.0
H783 H 0.59149 0.56537 0.26291 0.0
O784 O 0.66082 0.72426 0.27566 0.0
H785 H 0.61349 0.73949 0.34849 0.0
H786 H 0.68573 0.76083 0.31762 0.0
H787 H 0.5266 0.59119 0.32776 0.0
H788 H 0.64039 0.61026 0.18864 0.0
H789 H 0.5212 0.53877 0.29875 0.0
H790 H 0.59952 0.61071 0.16045 0.0
O791 O 0.61326 0.63738 0.33566 0.0
H792 H 0.72948 0.67196 0.30903 0.0
H793 H 0.67138 0.7176 0.37229 0.0
H794 H 0.71203 0.70992 0.39529 0.0
H795 H 0.74155 0.68714 0.36356 0.0
H796 H 0.68849 0.67934 0.28717 0.0
H797 H 0.69122 0.81424 0.34358 0.0
H798 H 0.65742 0.83037 0.37267 0.0
O799 O 0.62984 0.68815 0.34722 0.0
C800 C 0.59039 0.69289 0.28888 0.0
C801 C 0.63322 0.7858 0.3625 0.0
C802 C 0.67411 0.79797 0.3448 0.0
N803 N 0.64935 0.74699 0.33166 0.0
C804 C 0.63062 0.75574 0.34749 0.0
C805 C 0.67085 0.76772 0.33005 0.0
C806 C 0.65515 0.807 0.36114 0.0
C807 C 0.62655 0.61895 0.23203 0.0
N808 N 0.60652 0.62399 0.24735 0.0
C809 C 0.62438 0.61411 0.2006 0.0
C810 C 0.60147 0.61443 0.1848 0.0
C811 C 0.58109 0.61959 0.20053 0.0
C812 C 0.58398 0.62438 0.23195 0.0
C813 C 0.55615 0.54869 0.27896 0.0
C814 C 0.5622 0.60716 0.3112 0.0
C815 C 0.57734 0.57113 0.2772 0.0
N816 N 0.58011 0.6 0.29311 0.0
C817 C 0.54073 0.58534 0.31344 0.0
C818 C 0.53773 0.55593 0.29718 0.0
C819 C 0.61989 0.66153 0.35456 0.0
C820 C 0.71685 0.68208 0.32307 0.0
C821 C 0.68395 0.70744 0.35831 0.0
C822 C 0.70704 0.70327 0.37147 0.0
C823 C 0.72359 0.69053 0.35367 0.0
N824 N 0.67745 0.69926 0.32821 0.0
C825 C 0.69358 0.68658 0.31071 0.0
Co826 Co 0.40239 0.72941 0.37703 0.0
Co827 Co 0.36732 0.69167 0.31323 0.0
O828 O 0.37233 0.72196 0.3492 0.0
C829 C 0.36421 0.71424 0.41997 0.0
O830 O 0.35521 0.68842 0.40247 0.0
C831 C 0.35602 0.75074 0.29072 0.0
O832 O 0.37775 0.76532 0.30348 0.0
O833 O 0.40039 0.70983 0.29943 0.0
O834 O 0.4239 0.7256 0.34317 0.0
H835 H 0.39147 0.6115 0.23798 0.0
H836 H 0.36692 0.7742 0.37942 0.0
O837 O 0.38188 0.73391 0.41202 0.0
H838 H 0.44731 0.83623 0.35994 0.0
H839 H 0.45773 0.78186 0.46843 0.0
H840 H 0.44805 0.7007 0.38215 0.0
H841 H 0.44396 0.78003 0.36636 0.0
H842 H 0.42025 0.77313 0.4324 0.0
O843 O 0.34989 0.72127 0.29117 0.0
H844 H 0.39784 0.64945 0.28334 0.0
H845 H 0.32505 0.67056 0.26589 0.0
H846 H 0.48596 0.70886 0.41747 0.0
H847 H 0.36946 0.83044 0.3734 0.0
H848 H 0.49097 0.74969 0.46099 0.0
H849 H 0.40987 0.8618 0.36349 0.0
O850 O 0.39926 0.68371 0.38087 0.0
H851 H 0.28424 0.69556 0.35457 0.0
H852 H 0.34198 0.62656 0.31926 0.0
H853 H 0.30213 0.60341 0.33744 0.0
H854 H 0.27287 0.63798 0.35515 0.0
H855 H 0.32448 0.7178 0.33665 0.0
H856 H 0.31797 0.63305 0.22017 0.0
H857 H 0.35128 0.6031 0.20603 0.0
O858 O 0.38354 0.66093 0.33498 0.0
C859 C 0.42134 0.72014 0.31461 0.0
C860 C 0.3768 0.62438 0.24392 0.0
C861 C 0.33556 0.63651 0.23391 0.0
N862 N 0.36183 0.66213 0.27731 0.0
C863 C 0.38029 0.64587 0.2696 0.0
C864 C 0.33972 0.6578 0.25976 0.0
C865 C 0.35425 0.61969 0.226 0.0
C866 C 0.3846 0.78778 0.37534 0.0
N867 N 0.40526 0.77388 0.37325 0.0
C868 C 0.38591 0.81957 0.37186 0.0
C869 C 0.40858 0.83715 0.36626 0.0
C870 C 0.42959 0.82281 0.36425 0.0
C871 C 0.42757 0.79096 0.36781 0.0
C872 C 0.45579 0.76405 0.44952 0.0
C873 C 0.45018 0.71866 0.40092 0.0
C874 C 0.43458 0.75895 0.42908 0.0
N875 N 0.43207 0.7366 0.40506 0.0
C876 C 0.47165 0.7231 0.42089 0.0
C877 C 0.47443 0.74599 0.44532 0.0
C878 C 0.3926 0.65962 0.36183 0.0
C879 C 0.2968 0.68025 0.34684 0.0
C880 C 0.32944 0.6418 0.32707 0.0
C881 C 0.30685 0.62853 0.33726 0.0
C882 C 0.29045 0.64794 0.34719 0.0
N883 N 0.33554 0.67352 0.32673 0.0
C884 C 0.31958 0.6927 0.33655 0.0
Co885 Co 0.39586 0.38443 0.35695 0.0
Co886 Co 0.357 0.31515 0.3324 0.0
O887 O 0.36626 0.36081 0.33307 0.0
C888 C 0.37753 0.4363 0.39047 0.0
O889 O 0.38483 0.42466 0.41501 0.0
C890 C 0.34586 0.29309 0.26721 0.0
O891 O 0.3607 0.2725 0.27096 0.0
O892 O 0.39094 0.30924 0.32037 0.0
O893 O 0.41461 0.34939 0.34935 0.0
H894 H 0.3707 0.20732 0.35322 0.0
H895 H 0.37187 0.41323 0.30771 0.0
O896 O 0.37799 0.42105 0.36481 0.0
H897 H 0.45836 0.41302 0.2817 0.0
H898 H 0.46134 0.47956 0.39133 0.0
H899 H 0.43145 0.36865 0.40395 0.0
H900 H 0.44422 0.39204 0.32804 0.0
H901 H 0.42379 0.45032 0.36119 0.0
O902 O 0.34391 0.31342 0.28894 0.0
H903 H 0.38186 0.26467 0.35419 0.0
H904 H 0.31145 0.2685 0.30863 0.0
H905 H 0.46919 0.39696 0.43439 0.0
H906 H 0.38536 0.43506 0.26137 0.0
H907 H 0.48437 0.45284 0.42818 0.0
H908 H 0.42888 0.43497 0.24806 0.0
O909 O 0.3838 0.36624 0.39369 0.0
H910 H 0.27848 0.36202 0.32684 0.0
H911 H 0.32443 0.29104 0.3793 0.0
H912 H 0.28357 0.29982 0.3954 0.0
H913 H 0.26022 0.33542 0.36899 0.0
H914 H 0.3196 0.35295 0.31176 0.0
H915 H 0.29959 0.21121 0.30709 0.0
H916 H 0.32932 0.1802 0.3295 0.0
O917 O 0.36912 0.31627 0.37593 0.0
C918 C 0.41213 0.32366 0.33255 0.0
C919 C 0.35759 0.22057 0.34336 0.0
C920 C 0.31767 0.22275 0.3175 0.0
N921 N 0.34739 0.26996 0.3314 0.0
C922 C 0.36381 0.25306 0.34383 0.0
C923 C 0.32451 0.2552 0.31845 0.0
C924 C 0.33437 0.20537 0.33006 0.0
C925 C 0.39088 0.41327 0.30217 0.0
N926 N 0.40723 0.40138 0.32064 0.0
C927 C 0.39839 0.42559 0.27585 0.0
C928 C 0.4228 0.42551 0.26838 0.0
C929 C 0.43934 0.41317 0.28722 0.0
C930 C 0.43117 0.4011 0.31337 0.0
C931 C 0.45492 0.45522 0.39424 0.0
C932 C 0.43792 0.39296 0.40111 0.0
C933 C 0.43364 0.43853 0.37726 0.0
N934 N 0.42539 0.40776 0.3808 0.0
C935 C 0.45931 0.40887 0.41841 0.0
C936 C 0.46782 0.44021 0.41491 0.0
C937 C 0.37592 0.33774 0.39767 0.0
C938 C 0.28845 0.34641 0.33848 0.0
C939 C 0.31454 0.30679 0.36787 0.0
C940 C 0.29133 0.31156 0.377 0.0
C941 C 0.27823 0.33151 0.36216 0.0
N942 N 0.32443 0.32139 0.34454 0.0
C943 C 0.31172 0.34109 0.32998 0.0
H944 H 0.32772 0.23833 0.23151 0.0
H945 H 0.31942 0.3359 0.24576 0.0
H946 H 0.28244 0.32552 0.20879 0.0
H947 H 0.30437 0.22447 0.14965 0.0
H948 H 0.28823 0.18571 0.15386 0.0
H949 H 0.31649 0.20184 0.17731 0.0
H950 H 0.29309 0.19203 0.2249 0.0
H951 H 0.26478 0.1761 0.20168 0.0
H952 H 0.26512 0.20839 0.23001 0.0
H953 H 0.24329 0.30336 0.17617 0.0
H954 H 0.20504 0.27119 0.1499 0.0
H955 H 0.23826 0.18767 0.15648 0.0
C956 C 0.31872 0.25777 0.22596 0.0
C957 C 0.32675 0.2881 0.24114 0.0
C958 C 0.31381 0.31261 0.23414 0.0
C959 C 0.29277 0.30692 0.21314 0.0
C960 C 0.28485 0.27657 0.19929 0.0
C961 C 0.2975 0.2524 0.20524 0.0
C962 C 0.28358 0.22132 0.1898 0.0
C963 C 0.2991 0.20753 0.16625 0.0
C964 C 0.27621 0.19811 0.21298 0.0
C965 C 0.26081 0.23164 0.1749 0.0
C966 C 0.26206 0.26367 0.18043 0.0
C967 C 0.24233 0.27837 0.17118 0.0
C968 C 0.22065 0.25988 0.15631 0.0
C969 C 0.21877 0.22698 0.15074 0.0
C970 C 0.23937 0.21284 0.15969 0.0
H971 H 0.69418 0.21331 0.29488 0.0
H972 H 0.73092 0.28077 0.36838 0.0
H973 H 0.77181 0.26854 0.3555 0.0
H974 H 0.73509 0.15603 0.30371 0.0
H975 H 0.73475 0.14536 0.26381 0.0
H976 H 0.70822 0.1591 0.27892 0.0
H977 H 0.71141 0.20252 0.2427 0.0
H978 H 0.73795 0.18894 0.2275 0.0
H979 H 0.74045 0.22921 0.24276 0.0
H980 H 0.80874 0.25077 0.33364 0.0
H981 H 0.83944 0.22712 0.30549 0.0
H982 H 0.77913 0.16967 0.24684 0.0
C983 C 0.71082 0.22543 0.30836 0.0
C984 C 0.7093 0.24802 0.33271 0.0
C985 C 0.73154 0.2633 0.34974 0.0
C986 C 0.75489 0.25655 0.34256 0.0
C987 C 0.75573 0.2343 0.3184 0.0
C988 C 0.73431 0.2188 0.30164 0.0
C989 C 0.7405 0.19592 0.27678 0.0
C990 C 0.72895 0.1621 0.28107 0.0
C991 C 0.73208 0.20468 0.24559 0.0
C992 C 0.76877 0.20114 0.28207 0.0
C993 C 0.77711 0.22349 0.30613 0.0
C994 C 0.80244 0.23309 0.31489 0.0
C995 C 0.81974 0.21955 0.29867 0.0
C996 C 0.81173 0.19641 0.27401 0.0
C997 C 0.78584 0.18703 0.26576 0.0
H998 H 0.78974 0.74882 0.16551 0.0
H999 H 0.77816 0.84529 0.16727 0.0
H1000 H 0.73791 0.83103 0.1891 0.0
H1001 H 0.72369 0.71286 0.14616 0.0
H1002 H 0.7259 0.68152 0.16943 0.0
H1003 H 0.75295 0.69906 0.15218 0.0
H1004 H 0.77786 0.7111 0.20456 0.0
H1005 H 0.7509 0.69378 0.222 0.0
H1006 H 0.76576 0.73344 0.2343 0.0
H1007 H 0.70139 0.80727 0.21679 0.0
H1008 H 0.66958 0.77483 0.24296 0.0
H1009 H 0.70324 0.69325 0.21948 0.0
C1010 C 0.77852 0.76685 0.16994 0.0
C1011 C 0.78713 0.7982 0.16455 0.0
C1012 C 0.77192 0.82108 0.1709 0.0
C1013 C 0.74904 0.81322 0.18345 0.0
C1014 C 0.74137 0.78224 0.18908 0.0
C1015 C 0.75547 0.75931 0.18202 0.0
C1016 C 0.74332 0.72789 0.19086 0.0
C1017 C 0.73603 0.70392 0.16299 0.0
C1018 C 0.76048 0.71586 0.21432 0.0
C1019 C 0.7204 0.73679 0.20447 0.0
C1020 C 0.7197 0.76831 0.20349 0.0
C1021 C 0.70144 0.78243 0.21702 0.0
C1022 C 0.68347 0.76388 0.23186 0.0
C1023 C 0.68359 0.73144 0.23257 0.0
C1024 C 0.70222 0.7178 0.21845 0.0
H1025 H 0.30568 0.7308 0.27873 0.0
H1026 H 0.36376 0.81127 0.27552 0.0
H1027 H 0.33189 0.84115 0.2566 0.0
H1028 H 0.26721 0.74076 0.21244 0.0
H1029 H 0.23834 0.72883 0.22889 0.0
H1030 H 0.26591 0.71362 0.2407 0.0
H1031 H 0.26164 0.73344 0.29612 0.0
H1032 H 0.23409 0.74877 0.2845 0.0
H1033 H 0.26011 0.77417 0.3058 0.0
H1034 H 0.29314 0.86195 0.23746 0.0
H1035 H 0.25103 0.87273 0.22234 0.0
H1036 H 0.2185 0.77929 0.24101 0.0
C1037 C 0.31181 0.7546 0.27374 0.0
C1038 C 0.33732 0.76859 0.27827 0.0
C1039 C 0.34438 0.8 0.27204 0.0
C1040 C 0.3264 0.81713 0.26128 0.0
C1041 C 0.30139 0.80264 0.25722 0.0
C1042 C 0.29412 0.77212 0.26347 0.0
C1043 C 0.26602 0.76226 0.25846 0.0
C1044 C 0.25897 0.73474 0.23364 0.0
C1045 C 0.25481 0.7542 0.28798 0.0
C1046 C 0.25853 0.79195 0.2483 0.0
C1047 C 0.27918 0.81492 0.24747 0.0
C1048 C 0.27687 0.84416 0.23819 0.0
C1049 C 0.25286 0.85006 0.22961 0.0
C1050 C 0.23142 0.82698 0.2307 0.0
C1051 C 0.23445 0.79758 0.24022 0.0
H1052 H 0.2888 0.6501 0.77452 0.0
H1053 H 0.33198 0.74351 0.77598 0.0
H1054 H 0.29784 0.76601 0.7979 0.0
H1055 H 0.22939 0.66975 0.7546 0.0
H1056 H 0.2126 0.64394 0.7784 0.0
H1057 H 0.2408 0.63479 0.76372 0.0
H1058 H 0.25982 0.63192 0.81792 0.0
H1059 H 0.23166 0.64109 0.83277 0.0
H1060 H 0.26139 0.66489 0.84585 0.0
H1061 H 0.25799 0.77896 0.81552 0.0
H1062 H 0.21561 0.78116 0.83116 0.0
H1063 H 0.19887 0.67967 0.82192 0.0
C1064 C 0.29114 0.67525 0.77971 0.0
C1065 C 0.31312 0.69499 0.77354 0.0
C1066 C 0.31543 0.72782 0.78063 0.0
C1067 C 0.2961 0.74089 0.79306 0.0
C1068 C 0.27465 0.72086 0.79868 0.0
C1069 C 0.27211 0.68873 0.79258 0.0
C1070 C 0.24694 0.67262 0.80065 0.0
C1071 C 0.23153 0.65419 0.77267 0.0
C1072 C 0.25015 0.65137 0.8258 0.0
C1073 C 0.23564 0.70075 0.81175 0.0
C1074 C 0.25194 0.72835 0.81023 0.0
C1075 C 0.24521 0.75752 0.81732 0.0
C1076 C 0.22113 0.75856 0.82611 0.0
C1077 C 0.20424 0.73062 0.82821 0.0
C1078 C 0.21169 0.70136 0.82122 0.0
H1079 H 0.20458 0.23694 0.77445 0.0
H1080 H 0.14674 0.23862 0.70313 0.0
H1081 H 0.17918 0.25969 0.67055 0.0
H1082 H 0.24591 0.30665 0.76151 0.0
H1083 H 0.2738 0.29037 0.76931 0.0
H1084 H 0.24592 0.27689 0.78707 0.0
H1085 H 0.2473 0.21979 0.76608 0.0
H1086 H 0.27519 0.23308 0.74829 0.0
H1087 H 0.24827 0.21049 0.72615 0.0
H1088 H 0.21878 0.2824 0.64642 0.0
H1089 H 0.26148 0.29973 0.63154 0.0
H1090 H 0.2927 0.27885 0.71777 0.0
C1091 C 0.19864 0.24193 0.75205 0.0
C1092 C 0.17305 0.23648 0.74144 0.0
C1093 C 0.1662 0.24276 0.71177 0.0
C1094 C 0.18451 0.25479 0.69316 0.0
C1095 C 0.2096 0.2599 0.70438 0.0
C1096 C 0.21662 0.25325 0.73306 0.0
C1097 C 0.24476 0.25926 0.73947 0.0
C1098 C 0.25308 0.28482 0.7659 0.0
C1099 C 0.25444 0.22884 0.74533 0.0
C1100 C 0.25261 0.27057 0.70999 0.0
C1101 C 0.23212 0.27118 0.69011 0.0
C1102 C 0.23491 0.28174 0.66177 0.0
C1103 C 0.25922 0.29162 0.65353 0.0
C1104 C 0.28043 0.29039 0.67335 0.0
C1105 C 0.2769 0.27974 0.70193 0.0
H1106 H 0.82911 0.2764 0.76329 0.0
H1107 H 0.82606 0.30667 0.85782 0.0
H1108 H 0.78887 0.33019 0.8449 0.0
H1109 H 0.80709 0.34568 0.7333 0.0
H1110 H 0.78957 0.32187 0.70135 0.0
H1111 H 0.8177 0.31097 0.71773 0.0
H1112 H 0.79301 0.25636 0.72466 0.0
H1113 H 0.76475 0.26712 0.70872 0.0
H1114 H 0.7658 0.25363 0.74565 0.0
H1115 H 0.74801 0.34214 0.82269 0.0
H1116 H 0.70974 0.34807 0.79195 0.0
H1117 H 0.74077 0.31368 0.71148 0.0
C1118 C 0.82108 0.28881 0.78119 0.0
C1119 C 0.83063 0.28979 0.81159 0.0
C1120 C 0.81936 0.30593 0.83435 0.0
C1121 C 0.79809 0.31921 0.82724 0.0
C1122 C 0.78858 0.31671 0.79719 0.0
C1123 C 0.80006 0.30255 0.77443 0.0
C1124 C 0.78544 0.30163 0.74413 0.0
C1125 C 0.80087 0.32122 0.72287 0.0
C1126 C 0.77674 0.26767 0.72997 0.0
C1127 C 0.76356 0.3167 0.75348 0.0
C1128 C 0.76564 0.32505 0.78422 0.0
C1129 C 0.74652 0.33652 0.79852 0.0
C1130 C 0.72484 0.33969 0.78094 0.0
C1131 C 0.72262 0.33199 0.74936 0.0
C1132 C 0.74235 0.32062 0.73549 0.0
H1133 H 0.80144 0.81367 0.73286 0.0
H1134 H 0.83574 0.73342 0.75116 0.0
H1135 H 0.8062 0.70028 0.71188 0.0
H1136 H 0.74005 0.77227 0.72667 0.0
H1137 H 0.72842 0.79403 0.69796 0.0
H1138 H 0.75454 0.81213 0.72397 0.0
H1139 H 0.78099 0.82468 0.67925 0.0
H1140 H 0.7549 0.80648 0.65308 0.0
H1141 H 0.7846 0.79344 0.65145 0.0
H1142 H 0.77133 0.67543 0.6723 0.0
H1143 H 0.73144 0.6596 0.64056 0.0
H1144 H 0.71818 0.7555 0.65117 0.0
C1145 C 0.80315 0.78931 0.72794 0.0
C1146 C 0.82122 0.77617 0.7444 0.0
C1147 C 0.82224 0.74393 0.73839 0.0
C1148 C 0.80561 0.72502 0.71609 0.0
C1149 C 0.78779 0.73861 0.7004 0.0
C1150 C 0.78627 0.76997 0.70636 0.0
C1151 C 0.76364 0.77805 0.68907 0.0
C1152 C 0.7456 0.7898 0.71071 0.0
C1153 C 0.77151 0.80209 0.66689 0.0
C1154 C 0.75253 0.74635 0.67261 0.0
C1155 C 0.76697 0.72401 0.67895 0.0
C1156 C 0.75998 0.69279 0.66704 0.0
C1157 C 0.73733 0.68404 0.64888 0.0
C1158 C 0.72173 0.70632 0.64324 0.0
C1159 C 0.72978 0.73796 0.65486 0.0
H1160 H 0.1321 0.20261 0.91499 0.0
H1161 H 0.09514 0.10736 0.88555 0.0
H1162 H 0.09315 0.09653 0.93844 0.0
H1163 H 0.17059 0.18299 0.97513 0.0
H1164 H 0.1688 0.21725 1.00017 0.0
H1165 H 0.16549 0.2187 0.96001 0.0
H1166 H 0.12279 0.23697 0.96419 0.0
H1167 H 0.12598 0.23565 0.0044 0.0
H1168 H 0.09872 0.21386 0.98228 0.0
H1169 H 0.09706 0.09473 0.99386 0.0
H1170 H 0.10606 0.10202 0.04877 0.0
H1171 H 0.14161 0.19814 0.04338 0.0
C1172 C 0.12341 0.17953 0.91958 0.0
C1173 C 0.11392 0.1558 0.89589 0.0
C1174 C 0.10264 0.12596 0.90313 0.0
C1175 C 0.10138 0.11955 0.93316 0.0
C1176 C 0.11148 0.14316 0.95585 0.0
C1177 C 0.12221 0.17259 0.94952 0.0
C1178 C 0.13267 0.19327 0.97824 0.0
C1179 C 0.16107 0.20366 0.97839 0.0
C1180 C 0.11923 0.22161 0.98253 0.0
C1181 C 0.12636 0.17069 1.00165 0.0
C1182 C 0.11401 0.14201 0.98813 0.0
C1183 C 0.10661 0.11712 0.00474 0.0
C1184 C 0.11191 0.12155 0.03604 0.0
C1185 C 0.12465 0.15068 0.05064 0.0
C1186 C 0.13187 0.1756 0.03304 0.0
H1187 H 0.86895 0.16423 0.95678 0.0
H1188 H 0.84031 0.25139 0.95476 0.0
H1189 H 0.83975 0.25543 0.01035 0.0
H1190 H 0.83192 0.13494 0.01707 0.0
H1191 H 0.85668 0.11682 0.03282 0.0
H1192 H 0.85367 0.12059 0.99303 0.0
H1193 H 0.89944 0.14971 0.99669 0.0
H1194 H 0.90251 0.14639 0.03653 0.0
H1195 H 0.90884 0.18435 0.02282 0.0
H1196 H 0.84728 0.25251 0.06701 0.0
H1197 H 0.85582 0.23872 0.11897 0.0
H1198 H 0.87581 0.15131 0.08261 0.0
C1199 C 0.86213 0.18387 0.96803 0.0
C1200 C 0.85462 0.20749 0.95164 0.0
C1201 C 0.84586 0.23289 0.96699 0.0
C1202 C 0.84567 0.23547 0.99852 0.0
C1203 C 0.8538 0.2121 0.01414 0.0
C1204 C 0.86128 0.1864 0.99927 0.0
C1205 C 0.869 0.16435 0.02104 0.0
C1206 C 0.85179 0.13228 0.01567 0.0
C1207 C 0.89658 0.16102 0.01915 0.0
C1208 C 0.86513 0.18186 0.0506 0.0
C1209 C 0.85671 0.20958 0.0463 0.0
C1210 C 0.85341 0.23058 0.07058 0.0
C1211 C 0.85844 0.22271 0.09995 0.0
C1212 C 0.86614 0.19386 0.10459 0.0
C1213 C 0.86952 0.1733 0.07959 0.0
H1214 H 0.85878 0.80441 0.93187 0.0
H1215 H 0.90133 0.89771 0.92928 0.0
H1216 H 0.90644 0.90467 0.98444 0.0
H1217 H 0.82574 0.82479 0.99595 0.0
H1218 H 0.82631 0.78836 0.01204 0.0
H1219 H 0.82657 0.78949 0.97191 0.0
H1220 H 0.86709 0.7655 0.97277 0.0
H1221 H 0.86698 0.76434 0.01292 0.0
H1222 H 0.89399 0.7844 0.99733 0.0
H1223 H 0.90741 0.90253 0.03857 0.0
H1224 H 0.90309 0.89267 0.09074 0.0
H1225 H 0.8582 0.80128 0.06142 0.0
C1226 C 0.86918 0.82628 0.9429 0.0
C1227 C 0.87958 0.85055 0.92601 0.0
C1228 C 0.89306 0.87878 0.94147 0.0
C1229 C 0.89615 0.88298 0.9729 0.0
C1230 C 0.88554 0.85886 0.98877 0.0
C1231 C 0.87222 0.8311 0.97454 0.0
C1232 C 0.86222 0.80955 0.99754 0.0
C1233 C 0.8335 0.80264 0.99415 0.0
C1234 C 0.87323 0.77914 0.99498 0.0
C1235 C 0.87203 0.82973 0.02683 0.0
C1236 C 0.88555 0.85791 0.02088 0.0
C1237 C 0.89678 0.88063 0.0436 0.0
C1238 C 0.89409 0.87466 0.07336 0.0
C1239 C 0.88003 0.8462 0.08058 0.0
C1240 C 0.86891 0.82331 0.05681 0.0
H1241 H 0.11012 0.80917 0.06395 0.0
H1242 H 0.15509 0.73921 0.08516 0.0
H1243 H 0.15293 0.72056 0.03079 0.0
H1244 H 0.07015 0.76173 0.99969 0.0
H1245 H 0.06973 0.7957 0.97949 0.0
H1246 H 0.07197 0.79982 0.02007 0.0
H1247 H 0.11243 0.841 0.02107 0.0
H1248 H 0.11021 0.83691 0.98063 0.0
H1249 H 0.13825 0.83078 1.00146 0.0
H1250 H 0.15133 0.71614 0.97272 0.0
H1251 H 0.14883 0.72511 0.91861 0.0
H1252 H 0.10271 0.79574 0.93784 0.0
C1253 C 0.11896 0.78936 0.05726 0.0
C1254 C 0.13271 0.77555 0.07863 0.0
C1255 C 0.14421 0.74985 0.06906 0.0
C1256 C 0.14312 0.73919 0.03825 0.0
C1257 C 0.13002 0.7541 0.01755 0.0
C1258 C 0.11779 0.7783 0.0269 0.0
C1259 C 0.10655 0.79223 1.0006 0.0
C1260 C 0.0779 0.78704 0.99993 0.0
C1261 C 0.11752 0.82727 1.00098 0.0
C1262 C 0.11503 0.77288 0.97487 0.0
C1263 C 0.12848 0.75087 0.98477 0.0
C1264 C 0.14031 0.7328 0.96473 0.0
C1265 C 0.13877 0.73797 0.93402 0.0
C1266 C 0.12557 0.76109 0.92388 0.0
C1267 C 0.1129 0.77776 0.94462 0.0
H1268 H 0.04735 0.15796 0.11886 0.0
H1269 H 0.08182 0.14789 0.20696 0.0
H1270 H 0.04199 0.15144 0.22917 0.0
H1271 H 0.0064 0.21138 0.14279 0.0
H1272 H 0.98034 0.19324 0.11656 0.0
H1273 H 0.01181 0.19135 0.10744 0.0
H1274 H 1.00097 0.13082 0.09908 0.0
H1275 H 0.96946 0.13254 0.10809 0.0
H1276 H 0.98807 0.10946 0.12867 0.0
H1277 H 0.99968 0.15793 0.24222 0.0
H1278 H 0.95529 0.16127 0.24512 0.0
H1279 H 0.94585 0.16236 0.14811 0.0
C1280 C 0.04633 0.15656 0.14279 0.0
C1281 C 0.06747 0.15274 0.16138 0.0
C1282 C 0.06567 0.15065 0.1925 0.0
C1283 C 0.04322 0.1528 0.20528 0.0
C1284 C 0.02263 0.15644 0.18649 0.0
C1285 C 0.02375 0.1578 0.15586 0.0
C1286 C 0.99832 0.16014 0.14076 0.0
C1287 C 0.99928 0.19086 0.12602 0.0
C1288 C 0.98864 0.13153 0.11779 0.0
C1289 C 0.98289 0.16012 0.16776 0.0
C1290 C 0.99751 0.15844 0.19389 0.0
C1291 C 0.98796 0.15903 0.22191 0.0
C1292 C 0.96271 0.1611 0.22333 0.0
C1293 C 0.94707 0.16203 0.19688 0.0
C1294 C 0.95733 0.16146 0.16868 0.0
H1295 H 0.86102 0.93705 0.23363 0.0
H1296 H 0.93637 0.95302 0.27695 0.0
H1297 H 0.93152 0.00684 0.29521 0.0
H1298 H 0.87016 0.00369 0.20152 0.0
H1299 H 0.83861 0.01124 0.20212 0.0
H1300 H 0.8445 0.9719 0.20193 0.0
H1301 H 0.82187 0.96571 0.25076 0.0
H1302 H 0.81606 0.00538 0.25112 0.0
H1303 H 0.832 0.99325 0.28358 0.0
H1304 H 0.922 0.06173 0.29915 0.0
H1305 H 0.91089 0.11143 0.28441 0.0
H1306 H 0.8438 0.06036 0.23379 0.0
C1307 C 0.87615 0.95121 0.24815 0.0
C1308 C 0.89903 0.94057 0.25402 0.0
C1309 C 0.91855 0.96044 0.27242 0.0
C1310 C 0.91593 0.99111 0.28288 0.0
C1311 C 0.89376 0.00165 0.27457 0.0
C1312 C 0.87422 0.98215 0.25747 0.0
C1313 C 0.85483 1.00031 0.24552 0.0
C1314 C 0.85188 0.99657 0.21075 0.0
C1315 C 0.8297 0.99058 0.25854 0.0
C1316 C 0.86679 0.03325 0.25775 0.0
C1317 C 0.88885 0.03358 0.27524 0.0
C1318 C 0.90448 0.06166 0.28611 0.0
C1319 C 0.89797 0.08988 0.27777 0.0
C1320 C 0.87637 0.08965 0.25819 0.0
C1321 C 0.86018 0.06112 0.24916 0.0
H1322 H 0.96563 0.87484 0.17853 0.0
H1323 H 0.93637 0.77622 0.18065 0.0
H1324 H 0.97911 0.76477 0.18484 0.0
H1325 H 0.01374 0.86097 0.13035 0.0
H1326 H 0.03629 0.89375 0.14783 0.0
H1327 H 1.00338 0.895 0.14788 0.0
H1328 H 0.00822 0.90604 0.20599 0.0
H1329 H 0.04115 0.90485 0.20614 0.0
H1330 H 0.02192 0.87962 0.22826 0.0
H1331 H 0.02506 0.76388 0.19027 0.0
H1332 H 0.07113 0.77279 0.19043 0.0
H1333 H 0.07102 0.87049 0.17821 0.0
C1334 C 0.9682 0.85088 0.18012 0.0
C1335 C 0.94743 0.82651 0.17985 0.0
C1336 C 0.95176 0.7954 0.18134 0.0
C1337 C 0.97607 0.78862 0.18368 0.0
C1338 C 0.99604 0.81306 0.18374 0.0
C1339 C 0.99242 0.8435 0.18147 0.0
C1340 C 0.01715 0.86496 0.17973 0.0
C1341 C 0.01766 0.87952 0.14966 0.0
C1342 C 0.02242 0.89037 0.20664 0.0
C1343 C 0.03516 0.84179 0.18155 0.0
C1344 C 0.02256 0.8121 0.18443 0.0
C1345 C 0.03512 0.78695 0.18773 0.0
C1346 C 0.06125 0.79221 0.1879 0.0
C1347 C 0.07447 0.82217 0.18407 0.0
C1348 C 0.06124 0.84725 0.18077 0.0
H1349 H 0.16923 0.06015 0.18884 0.0
H1350 H 0.10655 0.06165 0.24315 0.0
H1351 H 0.11573 0.01421 0.26503 0.0
H1352 H 0.15388 0.9845 0.16571 0.0
H1353 H 0.18515 0.97632 0.16366 0.0
H1354 H 0.17921 0.01522 0.1603 0.0
H1355 H 0.21259 0.03651 0.20482 0.0
H1356 H 0.21853 0.99734 0.20833 0.0
H1357 H 0.21019 0.02032 0.24042 0.0
H1358 H 0.12517 0.96077 0.27178 0.0
H1359 H 0.13163 0.9062 0.25958 0.0
H1360 H 0.18667 0.93816 0.19909 0.0
C1361 C 0.15816 0.05141 0.20641 0.0
C1362 C 0.13733 0.06479 0.21453 0.0
C1363 C 0.12278 0.05197 0.23684 0.0
C1364 C 0.12793 0.02505 0.24947 0.0
C1365 C 0.14765 0.01115 0.23948 0.0
C1366 C 0.16259 0.02405 0.21843 0.0
C1367 C 0.17901 0.00166 0.20652 0.0
C1368 C 0.17398 0.99398 0.17205 0.0
C1369 C 0.20673 0.01475 0.21558 0.0
C1370 C 0.17014 0.97357 0.22297 0.0
C1371 C 0.15261 0.97971 0.24262 0.0
C1372 C 0.1394 0.95596 0.25718 0.0
C1373 C 0.14328 0.92502 0.25033 0.0
C1374 C 0.15987 0.91826 0.22873 0.0
C1375 C 0.17428 0.94299 0.21615 0.0
H1376 H 0.95644 0.84924 0.8416 0.0
H1377 H 0.91799 0.75423 0.81459 0.0
H1378 H 0.95915 0.73711 0.8104 0.0
H1379 H 1.00429 0.84888 0.79146 0.0
H1380 H 0.02759 0.87286 0.81806 0.0
H1381 H 0.99521 0.87666 0.81912 0.0
H1382 H 0.99687 0.86585 0.87525 0.0
H1383 H 0.02928 0.86229 0.87436 0.0
H1384 H 0.00737 0.83084 0.88595 0.0
H1385 H 0.00599 0.73127 0.81054 0.0
H1386 H 0.05223 0.73725 0.81472 0.0
H1387 H 0.05729 0.83703 0.83942 0.0
C1388 C 0.95633 0.82476 0.8346 0.0
C1389 C 0.93379 0.80313 0.82824 0.0
C1390 C 0.93496 0.7713 0.8195 0.0
C1391 C 0.95825 0.76141 0.81705 0.0
C1392 C 0.98006 0.78368 0.82326 0.0
C1393 C 0.97909 0.81471 0.83181 0.0
C1394 C 1.00475 0.8345 0.83724 0.0
C1395 C 0.00815 0.8597 0.81514 0.0
C1396 C 0.00985 0.84921 0.87015 0.0
C1397 C 0.02063 0.80981 0.83063 0.0
C1398 C 0.00627 0.78056 0.82268 0.0
C1399 C 0.01731 0.75414 0.81656 0.0
C1400 C 0.04359 0.75777 0.81895 0.0
C1401 C 0.0585 0.78765 0.82724 0.0
C1402 C 0.04663 0.81387 0.83277 0.0
H1403 H 0.12115 0.91781 0.82805 0.0
H1404 H 0.18816 0.90236 0.78624 0.0
H1405 H 0.19705 0.95866 0.77796 0.0
H1406 H 0.10355 0.9738 0.77856 0.0
H1407 H 0.09185 0.9963 0.8085 0.0
H1408 H 0.09084 0.95485 0.80966 0.0
H1409 H 0.11549 0.96555 0.86233 0.0
H1410 H 0.11684 0.00704 0.86118 0.0
H1411 H 0.14526 0.99134 0.86708 0.0
H1412 H 0.19957 0.01858 0.77787 0.0
H1413 H 0.19283 0.07394 0.78072 0.0
H1414 H 0.12357 0.04733 0.82144 0.0
C1415 C 0.13758 0.92613 0.81684 0.0
C1416 C 0.15401 0.90582 0.80782 0.0
C1417 C 0.17524 0.91757 0.79311 0.0
C1418 C 0.1805 0.94951 0.78853 0.0
C1419 C 0.16415 0.96911 0.79846 0.0
C1420 C 0.14289 0.95759 0.81184 0.0
C1421 C 0.12813 0.98301 0.82055 0.0
C1422 C 0.10206 0.9766 0.80328 0.0
C1423 C 0.12634 0.98696 0.85481 0.0
C1424 C 0.14446 0.01085 0.81026 0.0
C1425 C 0.16528 0.00268 0.79777 0.0
C1426 C 0.1832 0.02511 0.78738 0.0
C1427 C 0.17934 0.05647 0.78926 0.0
C1428 C 0.15763 0.06482 0.8011 0.0
C1429 C 0.14026 0.04164 0.81198 0.0
H1430 H 0.04219 0.15911 0.78826 0.0
H1431 H 0.07798 0.2566 0.80215 0.0
H1432 H 0.03603 0.27241 0.79873 0.0
H1433 H 0.98901 0.167 0.73727 0.0
H1434 H 0.96837 0.13827 0.75441 0.0
H1435 H 1.00101 0.13557 0.75383 0.0
H1436 H 0.00496 0.13549 0.81191 0.0
H1437 H 0.97239 0.13788 0.81267 0.0
H1438 H 0.99544 0.1668 0.83506 0.0
H1439 H 0.98875 0.27636 0.79874 0.0
H1440 H 0.94336 0.26795 0.80591 0.0
H1441 H 0.94092 0.16777 0.7933 0.0
C1442 C 0.04158 0.18393 0.79002 0.0
C1443 C 0.06365 0.2066 0.79524 0.0
C1444 C 0.06146 0.23874 0.79783 0.0
C1445 C 0.03767 0.24788 0.79588 0.0
C1446 C 0.01633 0.22462 0.79124 0.0
C1447 C 0.0183 0.19328 0.78844 0.0
C1448 C 0.99311 0.17236 0.78667 0.0
C1449 C 0.98755 0.15211 0.75622 0.0
C1450 C 0.99139 0.15196 0.81315 0.0
C1451 C 0.97634 0.19667 0.78933 0.0
C1452 C 0.98982 0.22678 0.79153 0.0
C1453 C 0.97809 0.25288 0.79641 0.0
C1454 C 0.95226 0.24796 0.80011 0.0
C1455 C 0.93865 0.21722 0.79923 0.0
C1456 C 0.9508 0.19147 0.79306 0.0
H1457 H 0.86719 0.96682 0.86976 0.0
H1458 H 0.82094 0.93695 0.78611 0.0
H1459 H 0.82093 0.99249 0.77759 0.0
H1460 H 0.83764 0.03565 0.89149 0.0
H1461 H 0.86693 0.05842 0.90777 0.0
H1462 H 0.86148 0.01647 0.90794 0.0
H1463 H 0.90184 0.01383 0.88108 0.0
H1464 H 0.90716 0.05566 0.88021 0.0
H1465 H 0.90523 0.03025 0.84573 0.0
H1466 H 0.83193 0.05104 0.77474 0.0
H1467 H 0.84564 0.10821 0.78222 0.0
H1468 H 0.88089 0.09988 0.87052 0.0
C1469 C 0.85646 0.97203 0.8501 0.0
C1470 C 0.84386 0.94776 0.82868 0.0
C1471 C 0.8303 0.95529 0.803 0.0
C1472 C 0.83044 0.98672 0.79787 0.0
C1473 C 0.84379 0.01016 0.81897 0.0
C1474 C 0.85596 0.00316 0.845 0.0
C1475 C 0.86913 0.03257 0.86401 0.0
C1476 C 0.85813 0.03598 0.89461 0.0
C1477 C 0.89751 0.03309 0.86798 0.0
C1478 C 0.86283 0.05727 0.84438 0.0
C1479 C 0.84857 0.04387 0.81828 0.0
C1480 C 0.84233 0.06185 0.79557 0.0
C1481 C 0.85015 0.09442 0.8001 0.0
C1482 C 0.86344 0.10886 0.8275 0.0
C1483 C 0.87012 0.08978 0.84967 0.0
H1484 H 0.64024 0.70179 0.405 0.0
H1485 H 0.59123 0.61304 0.37731 0.0
H1486 H 0.58675 0.60484 0.43042 0.0
H1487 H 0.67273 0.67546 0.46694 0.0
H1488 H 0.67563 0.71157 0.49106 0.0
H1489 H 0.67364 0.71207 0.45076 0.0
H1490 H 0.63564 0.74082 0.45335 0.0
H1491 H 0.63752 0.74043 0.49369 0.0
H1492 H 0.60878 0.72394 0.47135 0.0
H1493 H 0.58867 0.60463 0.48562 0.0
H1494 H 0.59699 0.61187 0.54046 0.0
H1495 H 0.64594 0.70022 0.53424 0.0
C1496 C 0.62841 0.68075 0.41005 0.0
C1497 C 0.61617 0.65802 0.38676 0.0
C1498 C 0.60091 0.63078 0.39455 0.0
C1499 C 0.59818 0.62591 0.42473 0.0
C1500 C 0.61086 0.64841 0.44702 0.0
C1501 C 0.62567 0.67531 0.4402 0.0
C1502 C 0.6381 0.69494 0.46875 0.0
C1503 C 0.66672 0.69873 0.4694 0.0
C1504 C 0.62949 0.72693 0.47197 0.0
C1505 C 0.62812 0.67462 0.49259 0.0
C1506 C 0.6123 0.64805 0.47937 0.0
C1507 C 0.60096 0.62537 0.49628 0.0
C1508 C 0.60592 0.62976 0.52757 0.0
C1509 C 0.62225 0.65662 0.54197 0.0
C1510 C 0.63339 0.67945 0.52407 0.0
H1511 H 0.34718 0.65243 0.57892 0.0
H1512 H 0.37471 0.74785 0.61797 0.0
H1513 H 0.37087 0.76619 0.56746 0.0
H1514 H 0.3808 0.65657 0.51641 0.0
H1515 H 0.35705 0.63225 0.49063 0.0
H1516 H 0.35811 0.62739 0.53014 0.0
H1517 H 0.3122 0.6361 0.53106 0.0
H1518 H 0.31101 0.64111 0.49145 0.0
H1519 H 0.30345 0.67113 0.51796 0.0
H1520 H 0.36901 0.77326 0.5127 0.0
H1521 H 0.37109 0.76832 0.45765 0.0
H1522 H 0.3448 0.66829 0.45392 0.0
C1523 C 0.35179 0.6773 0.57697 0.0
C1524 C 0.36107 0.69878 0.6024 0.0
C1525 C 0.36749 0.73101 0.5988 0.0
C1526 C 0.36523 0.74166 0.57023 0.0
C1527 C 0.35645 0.7198 0.54552 0.0
C1528 C 0.34982 0.68828 0.5486 0.0
C1529 C 0.34346 0.66921 0.5182 0.0
C1530 C 0.3609 0.64495 0.51358 0.0
C1531 C 0.31588 0.65346 0.51445 0.0
C1532 C 0.34837 0.6948 0.49749 0.0
C1533 C 0.35544 0.72387 0.51372 0.0
C1534 C 0.36305 0.75073 0.49972 0.0
C1535 C 0.36417 0.74769 0.46844 0.0
C1536 C 0.35783 0.71798 0.45149 0.0
C1537 C 0.34912 0.69141 0.46616 0.0
H1538 H 0.38938 0.37535 0.45113 0.0
H1539 H 0.35784 0.27994 0.41505 0.0
H1540 H 0.35175 0.26595 0.46646 0.0
H1541 H 0.42257 0.35477 0.51758 0.0
H1542 H 0.41664 0.38814 0.54113 0.0
H1543 H 0.41884 0.39039 0.50139 0.0
H1544 H 0.37506 0.40653 0.49674 0.0
H1545 H 0.37266 0.40408 0.53642 0.0
H1546 H 0.34881 0.38174 0.50943 0.0
H1547 H 0.34746 0.26284 0.52238 0.0
H1548 H 0.34775 0.27065 0.57797 0.0
H1549 H 0.38324 0.36741 0.57656 0.0
C1550 C 0.38127 0.35148 0.45395 0.0
C1551 C 0.37385 0.32893 0.42884 0.0
C1552 C 0.3635 0.29785 0.43377 0.0
C1553 C 0.35996 0.28959 0.46295 0.0
C1554 C 0.36707 0.31253 0.48712 0.0
C1555 C 0.37775 0.34276 0.48292 0.0
C1556 C 0.38386 0.36302 0.51264 0.0
C1557 C 0.41216 0.37476 0.51853 0.0
C1558 C 0.36922 0.39046 0.51386 0.0
C1559 C 0.37476 0.33955 0.53412 0.0
C1560 C 0.36505 0.31057 0.51909 0.0
C1561 C 0.35513 0.28544 0.53441 0.0
C1562 C 0.35529 0.2901 0.56597 0.0
C1563 C 0.36542 0.31962 0.58179 0.0
C1564 C 0.37525 0.3445 0.56539 0.0
H1565 H 0.59034 0.2735 0.42703 0.0
H1566 H 0.66012 0.23844 0.42338 0.0
H1567 H 0.66172 0.23473 0.47848 0.0
H1568 H 0.60716 0.3232 0.4883 0.0
H1569 H 0.5776 0.31846 0.5046 0.0
H1570 H 0.57843 0.31048 0.46469 0.0
H1571 H 0.55427 0.25434 0.4659 0.0
H1572 H 0.55274 0.26213 0.50592 0.0
H1573 H 0.56572 0.2289 0.49124 0.0
H1574 H 0.66016 0.24656 0.53488 0.0
H1575 H 0.65444 0.26945 0.58604 0.0
H1576 H 0.585 0.29556 0.55194 0.0
C1577 C 0.60532 0.26359 0.43767 0.0
C1578 C 0.6249 0.25575 0.4211 0.0
C1579 C 0.64463 0.24376 0.43568 0.0
C1580 C 0.64573 0.2418 0.46697 0.0
C1581 C 0.6267 0.2514 0.48304 0.0
C1582 C 0.60656 0.26141 0.46864 0.0
C1583 C 0.59017 0.27421 0.49091 0.0
C1584 C 0.58826 0.30861 0.48689 0.0
C1585 C 0.56418 0.25366 0.48834 0.0
C1586 C 0.60481 0.27138 0.52021 0.0
C1587 C 0.62567 0.25783 0.51537 0.0
C1588 C 0.6435 0.25632 0.53896 0.0
C1589 C 0.64012 0.26944 0.56797 0.0
C1590 C 0.6191 0.28397 0.57314 0.0
C1591 C 0.60096 0.284 0.54899 0.0
H1592 H 0.54789 0.62394 0.64965 0.0
H1593 H 0.57215 0.72246 0.63974 0.0
H1594 H 0.53046 0.73314 0.65002 0.0
H1595 H 0.48517 0.61979 0.61288 0.0
H1596 H 0.47067 0.59293 0.63744 0.0
H1597 H 0.50259 0.5927 0.6293 0.0
H1598 H 0.51653 0.60103 0.68641 0.0
H1599 H 0.48468 0.60135 0.6947 0.0
H1600 H 0.50873 0.63391 0.70903 0.0
H1601 H 0.48747 0.73426 0.66491 0.0
H1602 H 0.4441 0.72472 0.67928 0.0
H1603 H 0.44574 0.62518 0.6755 0.0
C1604 C 0.54444 0.64776 0.64959 0.0
C1605 C 0.56359 0.67244 0.64441 0.0
C1606 C 0.55808 0.70318 0.64411 0.0
C1607 C 0.53436 0.70952 0.64983 0.0
C1608 C 0.51609 0.68482 0.65522 0.0
C1609 C 0.52065 0.65447 0.65471 0.0
C1610 C 0.49744 0.63221 0.6608 0.0
C1611 C 0.48844 0.60798 0.63347 0.0
C1612 C 0.50213 0.61619 0.68944 0.0
C1613 C 0.47932 0.65496 0.66533 0.0
C1614 C 0.49061 0.68521 0.6622 0.0
C1615 C 0.47829 0.71065 0.66702 0.0
C1616 C 0.45376 0.70506 0.67529 0.0
C1617 C 0.44171 0.67428 0.6782 0.0
C1618 C 0.45453 0.64886 0.67289 0.0
H1619 H 0.34526 0.5669 0.73474 0.0
H1620 H 0.41737 0.61716 0.77287 0.0
H1621 H 0.42992 0.56722 0.78492 0.0
H1622 H 0.34053 0.49911 0.78501 0.0
H1623 H 0.32628 0.47213 0.75324 0.0
H1624 H 0.32056 0.51192 0.7565 0.0
H1625 H 0.33562 0.51841 0.70336 0.0
H1626 H 0.3417 0.47905 0.7001 0.0
H1627 H 0.36636 0.51103 0.69588 0.0
H1628 H 0.43855 0.51212 0.77852 0.0
H1629 H 0.44108 0.4581 0.75815 0.0
H1630 H 0.36251 0.4436 0.72666 0.0
C1631 C 0.36317 0.56744 0.7471 0.0
C1632 C 0.38028 0.59569 0.7532 0.0
C1633 C 0.40383 0.59575 0.76867 0.0
C1634 C 0.41112 0.56742 0.77542 0.0
C1635 C 0.39441 0.53951 0.7671 0.0
C1636 C 0.37061 0.53947 0.75395 0.0
C1637 C 0.35753 0.50667 0.7427 0.0
C1638 C 0.33489 0.49688 0.76044 0.0
C1639 C 0.34989 0.50364 0.70852 0.0
C1640 C 0.37816 0.48838 0.74987 0.0
C1641 C 0.39923 0.50752 0.76424 0.0
C1642 C 0.42189 0.49667 0.76833 0.0
C1643 C 0.42319 0.46593 0.75663 0.0
C1644 C 0.40195 0.44643 0.74107 0.0
C1645 C 0.37897 0.45751 0.73906 0.0
H1646 H 0.56519 0.36703 0.67057 0.0
H1647 H 0.566 0.27179 0.69151 0.0
H1648 H 0.51994 0.26252 0.69059 0.0
H1649 H 0.51711 0.38049 0.71853 0.0
H1650 H 0.50274 0.4044 0.69399 0.0
H1651 H 0.53561 0.40306 0.69365 0.0
H1652 H 0.52964 0.38622 0.63627 0.0
H1653 H 0.49675 0.38763 0.6364 0.0
H1654 H 0.50693 0.35226 0.62185 0.0
H1655 H 0.47423 0.26317 0.68679 0.0
H1656 H 0.43144 0.27449 0.68423 0.0
H1657 H 0.45967 0.37107 0.67061 0.0
C1658 C 0.55552 0.34414 0.67448 0.0
C1659 C 0.56897 0.31991 0.6807 0.0
C1660 C 0.55593 0.29051 0.68654 0.0
C1661 C 0.52982 0.28504 0.68601 0.0
C1662 C 0.51705 0.30943 0.68016 0.0
C1663 C 0.5294 0.33851 0.6748 0.0
C1664 C 0.51116 0.36117 0.67111 0.0
C1665 C 0.51701 0.38892 0.6958 0.0
C1666 C 0.51112 0.37248 0.63952 0.0
C1667 C 0.48669 0.3402 0.67511 0.0
C1668 C 0.49059 0.31037 0.67991 0.0
C1669 C 0.47095 0.28652 0.68337 0.0
C1670 C 0.44664 0.29327 0.68198 0.0
C1671 C 0.44205 0.32383 0.67776 0.0
C1672 C 0.46249 0.34758 0.67431 0.0
H1673 H 0.6539 0.56208 0.67937 0.0
H1674 H 0.58874 0.5625 0.72966 0.0
H1675 H 0.5972 0.51466 0.75174 0.0
H1676 H 0.63986 0.4852 0.65617 0.0
H1677 H 0.6716 0.47828 0.656 0.0
H1678 H 0.66478 0.51661 0.65122 0.0
H1679 H 0.69645 0.5402 0.69669 0.0
H1680 H 0.70348 0.50178 0.70164 0.0
H1681 H 0.69345 0.52476 0.73258 0.0
H1682 H 0.60877 0.46215 0.76148 0.0
H1683 H 0.61917 0.40887 0.75367 0.0
H1684 H 0.67464 0.44195 0.69395 0.0
C1685 C 0.64197 0.55302 0.69603 0.0
C1686 C 0.62089 0.5664 0.70321 0.0
C1687 C 0.60521 0.55291 0.72419 0.0
C1688 C 0.60994 0.52578 0.73689 0.0
C1689 C 0.6303 0.51236 0.72819 0.0
C1690 C 0.64599 0.52561 0.70808 0.0
C1691 C 0.66356 0.50406 0.6977 0.0
C1692 C 0.6597 0.49554 0.66327 0.0
C1693 C 0.69086 0.51857 0.70777 0.0
C1694 C 0.65493 0.47614 0.71442 0.0
C1695 C 0.6362 0.48156 0.73256 0.0
C1696 C 0.62377 0.45792 0.74786 0.0
C1697 C 0.6299 0.42775 0.74348 0.0
C1698 C 0.64787 0.42148 0.72344 0.0
C1699 C 0.66113 0.44629 0.70977 0.0
H1700 H 0.45936 0.3524 0.35204 0.0
H1701 H 0.41853 0.26666 0.30278 0.0
H1702 H 0.4589 0.24793 0.29639 0.0
H1703 H 0.51007 0.3618 0.30568 0.0
H1704 H 0.53245 0.3781 0.33698 0.0
H1705 H 0.50037 0.38334 0.3378 0.0
H1706 H 0.49795 0.35879 0.38845 0.0
H1707 H 0.53 0.35346 0.38776 0.0
H1708 H 0.50597 0.32043 0.39093 0.0
H1709 H 0.50544 0.23891 0.29773 0.0
H1710 H 0.55145 0.24171 0.30414 0.0
H1711 H 0.55899 0.33577 0.34917 0.0
C1712 C 0.45853 0.32974 0.33956 0.0
C1713 C 0.43557 0.31114 0.32771 0.0
C1714 C 0.43585 0.28145 0.31197 0.0
C1715 C 0.45869 0.27066 0.30829 0.0
C1716 C 0.48098 0.29 0.3202 0.0
C1717 C 0.48084 0.31906 0.33529 0.0
C1718 C 0.50683 0.33615 0.34568 0.0
C1719 C 0.51278 0.36664 0.33062 0.0
C1720 C 0.51038 0.34256 0.38025 0.0
C1721 C 0.52196 0.31217 0.33432 0.0
C1722 C 0.50696 0.28551 0.31989 0.0
C1723 C 0.51725 0.25986 0.30872 0.0
C1724 C 0.54341 0.26167 0.31245 0.0
C1725 C 0.55897 0.28909 0.32689 0.0
C1726 C 0.54785 0.31455 0.33771 0.0
H1727 H 0.62292 0.41561 0.32886 0.0
H1728 H 0.68676 0.3978 0.28147 0.0
H1729 H 0.69574 0.45386 0.27241 0.0
H1730 H 0.60333 0.47081 0.28001 0.0
H1731 H 0.5934 0.49432 0.31062 0.0
H1732 H 0.59226 0.45295 0.31247 0.0
H1733 H 0.61953 0.46458 0.36341 0.0
H1734 H 0.62101 0.506 0.36153 0.0
H1735 H 0.64942 0.48994 0.3656 0.0
H1736 H 0.69879 0.51364 0.27173 0.0
H1737 H 0.69244 0.56908 0.27382 0.0
H1738 H 0.62559 0.54519 0.31992 0.0
C1739 C 0.63869 0.4234 0.31633 0.0
C1740 C 0.65421 0.40246 0.30592 0.0
C1741 C 0.67455 0.41349 0.28946 0.0
C1742 C 0.67987 0.4453 0.28442 0.0
C1743 C 0.66445 0.46551 0.29566 0.0
C1744 C 0.644 0.45473 0.31079 0.0
C1745 C 0.62995 0.48069 0.32024 0.0
C1746 C 0.60316 0.47431 0.30491 0.0
C1747 C 0.62999 0.48558 0.35474 0.0
C1748 C 0.64573 0.50796 0.3083 0.0
C1749 C 0.66573 0.49904 0.29445 0.0
C1750 C 0.68307 0.52077 0.28232 0.0
C1751 C 0.67945 0.5522 0.28378 0.0
C1752 C 0.65849 0.5613 0.2969 0.0
C1753 C 0.6417 0.53886 0.30955 0.0
H1754 H 0.54346 0.65877 0.27558 0.0
H1755 H 0.58274 0.75451 0.2943 0.0
H1756 H 0.54203 0.77303 0.29411 0.0
H1757 H 0.48912 0.6747 0.22811 0.0
H1758 H 0.46798 0.6455 0.24404 0.0
H1759 H 0.49996 0.64061 0.24065 0.0
H1760 H 0.50556 0.63498 0.29772 0.0
H1761 H 0.47373 0.63977 0.30134 0.0
H1762 H 0.49867 0.66537 0.32434 0.0
H1763 H 0.49709 0.77995 0.29954 0.0
H1764 H 0.45287 0.77458 0.311 0.0
H1765 H 0.44345 0.67438 0.28825 0.0
C1766 C 0.54373 0.68377 0.27883 0.0
C1767 C 0.56651 0.70519 0.28471 0.0
C1768 C 0.56566 0.73762 0.2894 0.0
C1769 C 0.54258 0.74834 0.2893 0.0
C1770 C 0.52052 0.72638 0.2842 0.0
C1771 C 0.52101 0.69474 0.27886 0.0
C1772 C 0.49503 0.67547 0.27717 0.0
C1773 C 0.48759 0.65805 0.24561 0.0
C1774 C 0.49315 0.65258 0.3016 0.0
C1775 C 0.47973 0.70107 0.28334 0.0
C1776 C 0.4947 0.73035 0.28695 0.0
C1777 C 0.48516 0.75726 0.29596 0.0
C1778 C 0.46001 0.75404 0.30231 0.0
C1779 C 0.44465 0.72421 0.29948 0.0
C1780 C 0.4545 0.69757 0.28916 0.0
H1781 H 0.37365 0.47263 0.34354 0.0
H1782 H 0.37891 0.47691 0.44116 0.0
H1783 H 0.38402 0.5345 0.44441 0.0
H1784 H 0.41955 0.53793 0.33848 0.0
H1785 H 0.40375 0.552 0.30705 0.0
H1786 H 0.39827 0.51088 0.31194 0.0
H1787 H 0.35068 0.51102 0.31175 0.0
H1788 H 0.35597 0.55202 0.30625 0.0
H1789 H 0.33948 0.5388 0.33752 0.0
H1790 H 0.39209 0.59188 0.43722 0.0
H1791 H 0.39757 0.64467 0.41996 0.0
H1792 H 0.38673 0.60304 0.32704 0.0
C1793 C 0.37523 0.48557 0.36561 0.0
C1794 C 0.3758 0.47011 0.39211 0.0
C1795 C 0.37831 0.4881 0.42052 0.0
C1796 C 0.38136 0.52089 0.42262 0.0
C1797 C 0.3817 0.53541 0.39612 0.0
C1798 C 0.37826 0.51834 0.36813 0.0
C1799 C 0.37996 0.53974 0.34315 0.0
C1800 C 0.40168 0.53484 0.32403 0.0
C1801 C 0.35504 0.53512 0.32351 0.0
C1802 C 0.38515 0.57148 0.36148 0.0
C1803 C 0.38619 0.56847 0.39198 0.0
C1804 C 0.39115 0.59452 0.41338 0.0
C1805 C 0.39446 0.62445 0.40332 0.0
C1806 C 0.39265 0.62813 0.37213 0.0
C1807 C 0.38825 0.60114 0.35104 0.0
loop_
_geom_bond_atom_site_label_1
_geom_bond_atom_site_label_2
_geom_bond_distance
_geom_bond_site_symmetry_2
_ccdc_geom_bond_type
Co0 O2 2.143 . S
Co0 O8 2.074 . S
Co0 O11 2.093 . S
Co0 O24 2.097 . S
Co0 N41 2.151 . S
Co0 N49 2.214 . S
Co1 O2 2.160 . S
Co1 O7 2.058 . S
Co1 O17 2.057 . S
Co1 O32 2.037 . S
Co1 N36 2.145 . S
Co1 N57 2.257 . S
O2 Co0 2.143 . S
O2 Co1 2.160 . S
C3 O4 1.278 . S
C3 O11 1.224 . S
O4 C3 1.278 . S
C5 O6 1.245 . S
C5 O17 1.232 . S
O6 C5 1.245 . S
O7 Co1 2.058 . S
O7 C33 1.269 . S
O8 Co0 2.074 . S
O8 C33 1.257 . S
H9 C34 0.930 . S
H10 C40 0.930 . S
O11 Co0 2.093 . S
O11 C3 1.224 . S
H12 C44 0.929 . S
H13 C46 0.930 . S
H14 C47 0.930 . S
H15 C45 0.929 . S
H16 C48 0.928 . S
O17 Co1 2.057 . S
O17 C5 1.232 . S
H18 C37 0.929 . S
H19 C38 0.929 . S
H20 C50 0.931 . S
H21 C42 0.929 . S
H22 C51 0.930 . S
H23 C43 0.931 . S
O24 Co0 2.097 . S
O24 C52 1.214 . S
H25 C53 0.929 . S
H26 C54 0.929 . S
H27 C55 0.930 . S
H28 C56 0.929 . S
H29 C58 0.930 . S
H30 C35 0.930 . S
H31 C39 0.930 . S
O32 Co1 2.037 . S
O32 C52 1.234 . S
C33 O7 1.269 . S
C33 O8 1.257 . S
C34 H9 0.930 . S
C34 C37 1.388 . S
C34 C39 1.418 . S
C35 H30 0.930 . S
C35 C38 1.404 . S
C35 C39 1.353 . S
N36 Co1 2.145 . S
N36 C37 1.397 . S
N36 C38 1.334 . S
C37 H18 0.929 . S
C37 C34 1.388 . S
C37 N36 1.397 . S
C38 H19 0.929 . S
C38 C35 1.404 . S
C38 N36 1.334 . S
C39 H31 0.930 . S
C39 C34 1.418 . S
C39 C35 1.353 . S
C40 H10 0.930 . S
C40 N41 1.330 . S
C40 C42 1.446 . S
N41 Co0 2.151 . S
N41 C40 1.330 . S
N41 C45 1.418 . S
C42 H21 0.929 . S
C42 C40 1.446 . S
C42 C43 1.332 . S
C43 H23 0.931 . S
C43 C42 1.332 . S
C43 C44 1.267 . S
C44 H12 0.929 . S
C44 C43 1.267 . S
C44 C45 1.251 . S
C45 H15 0.929 . S
C45 N41 1.418 . S
C45 C44 1.251 . S
C46 H13 0.930 . S
C46 C48 1.406 . S
C46 C51 1.261 . S
C47 H14 0.930 . S
C47 N49 1.325 . S
C47 C50 1.357 . S
C48 H16 0.928 . S
C48 C46 1.406 . S
C48 N49 1.261 . S
N49 Co0 2.214 . S
N49 C47 1.325 . S
N49 C48 1.261 . S
C50 H20 0.931 . S
C50 C47 1.357 . S
C50 C51 1.312 . S
C51 H22 0.930 . S
C51 C46 1.261 . S
C51 C50 1.312 . S
C52 O24 1.214 . S
C52 O32 1.234 . S
C53 H25 0.929 . S
C53 C56 1.391 . S
C53 C58 1.391 . S
C54 H26 0.929 . S
C54 C55 1.390 . S
C54 N57 1.391 . S
C55 H27 0.930 . S
C55 C54 1.390 . S
C55 C56 1.392 . S
C56 H28 0.929 . S
C56 C53 1.391 . S
C56 C55 1.392 . S
N57 Co1 2.257 . S
N57 C54 1.391 . S
N57 C58 1.388 . S
C58 H29 0.930 . S
C58 C53 1.391 . S
C58 N57 1.388 . S
Co59 O61 2.143 . S
Co59 O67 2.074 . S
Co59 O70 2.093 . S
Co59 O83 2.097 . S
Co59 N100 2.151 . S
Co59 N108 2.214 . S
Co60 O61 2.160 . S
Co60 O66 2.058 . S
Co60 O76 2.057 . S
Co60 O91 2.037 . S
Co60 N95 2.145 . S
Co60 N116 2.257 . S
O61 Co59 2.143 . S
O61 Co60 2.160 . S
C62 O63 1.278 . S
C62 O70 1.224 . S
O63 C62 1.278 . S
C64 O65 1.245 . S
C64 O76 1.232 . S
O65 C64 1.245 . S
O66 Co60 2.058 . S
O66 C92 1.269 . S
O67 Co59 2.074 . S
O67 C92 1.257 . S
H68 C93 0.930 . S
H69 C99 0.930 . S
O70 Co59 2.093 . S
O70 C62 1.224 . S
H71 C103 0.929 . S
H72 C105 0.930 . S
H73 C106 0.930 . S
H74 C104 0.929 . S
H75 C107 0.928 . S
O76 Co60 2.057 . S
O76 C64 1.232 . S
H77 C96 0.929 . S
H78 C97 0.929 . S
H79 C109 0.931 . S
H80 C101 0.929 . S
H81 C110 0.930 . S
H82 C102 0.931 . S
O83 Co59 2.097 . S
O83 C111 1.214 . S
H84 C112 0.929 . S
H85 C113 0.929 . S
H86 C114 0.930 . S
H87 C115 0.929 . S
H88 C117 0.930 . S
H89 C94 0.930 . S
H90 C98 0.930 . S
O91 Co60 2.037 . S
O91 C111 1.234 . S
C92 O66 1.269 . S
C92 O67 1.257 . S
C93 H68 0.930 . S
C93 C96 1.388 . S
C93 C98 1.418 . S
C94 H89 0.930 . S
C94 C97 1.404 . S
C94 C98 1.353 . S
N95 Co60 2.145 . S
N95 C96 1.397 . S
N95 C97 1.334 . S
C96 H77 0.929 . S
C96 C93 1.388 . S
C96 N95 1.397 . S
C97 H78 0.929 . S
C97 C94 1.404 . S
C97 N95 1.334 . S
C98 H90 0.930 . S
C98 C93 1.418 . S
C98 C94 1.353 . S
C99 H69 0.930 . S
C99 N100 1.330 . S
C99 C101 1.446 . S
N100 Co59 2.151 . S
N100 C99 1.330 . S
N100 C104 1.418 . S
C101 H80 0.929 . S
C101 C99 1.446 . S
C101 C102 1.332 . S
C102 H82 0.931 . S
C102 C101 1.332 . S
C102 C103 1.267 . S
C103 H71 0.929 . S
C103 C102 1.267 . S
C103 C104 1.251 . S
C104 H74 0.929 . S
C104 N100 1.418 . S
C104 C103 1.251 . S
C105 H72 0.930 . S
C105 C107 1.406 . S
C105 C110 1.261 . S
C106 H73 0.930 . S
C106 N108 1.325 . S
C106 C109 1.357 . S
C107 H75 0.928 . S
C107 C105 1.406 . S
C107 N108 1.261 . S
N108 Co59 2.214 . S
N108 C106 1.325 . S
N108 C107 1.261 . S
C109 H79 0.931 . S
C109 C106 1.357 . S
C109 C110 1.312 . S
C110 H81 0.930 . S
C110 C105 1.261 . S
C110 C109 1.312 . S
C111 O83 1.214 . S
C111 O91 1.234 . S
C112 H84 0.929 . S
C112 C115 1.391 . S
C112 C117 1.391 . S
C113 H85 0.929 . S
C113 C114 1.390 . S
C113 N116 1.391 . S
C114 H86 0.930 . S
C114 C113 1.390 . S
C114 C115 1.392 . S
C115 H87 0.929 . S
C115 C112 1.391 . S
C115 C114 1.392 . S
N116 Co60 2.257 . S
N116 C113 1.391 . S
N116 C117 1.388 . S
C117 H88 0.930 . S
C117 C112 1.391 . S
C117 N116 1.388 . S
Co118 O120 2.143 . S
Co118 O126 2.074 . S
Co118 O129 2.093 . S
Co118 O142 2.097 . S
Co118 N159 2.151 . S
Co118 N167 2.214 . S
Co119 O120 2.160 . S
Co119 O125 2.058 . S
Co119 O135 2.057 . S
Co119 O150 2.037 . S
Co119 N154 2.145 . S
Co119 N175 2.257 . S
O120 Co118 2.143 . S
O120 Co119 2.160 . S
C121 O122 1.278 . S
C121 O129 1.224 . S
O122 C121 1.278 . S
C123 O124 1.245 . S
C123 O135 1.232 . S
O124 C123 1.245 . S
O125 Co119 2.058 . S
O125 C151 1.269 . S
O126 Co118 2.074 . S
O126 C151 1.257 . S
H127 C152 0.930 . S
H128 C158 0.930 . S
O129 Co118 2.093 . S
O129 C121 1.224 . S
H130 C162 0.929 . S
H131 C164 0.930 . S
H132 C165 0.930 . S
H133 C163 0.929 . S
H134 C166 0.928 . S
O135 Co119 2.057 . S
O135 C123 1.232 . S
H136 C155 0.929 . S
H137 C156 0.929 . S
H138 C168 0.931 . S
H139 C160 0.929 . S
H140 C169 0.930 . S
H141 C161 0.931 . S
O142 Co118 2.097 . S
O142 C170 1.214 . S
H143 C171 0.929 . S
H144 C172 0.929 . S
H145 C173 0.930 . S
H146 C174 0.929 . S
H147 C176 0.930 . S
H148 C153 0.930 . S
H149 C157 0.930 . S
O150 Co119 2.037 . S
O150 C170 1.234 . S
C151 O125 1.269 . S
C151 O126 1.257 . S
C152 H127 0.930 . S
C152 C155 1.388 . S
C152 C157 1.418 . S
C153 H148 0.930 . S
C153 C156 1.404 . S
C153 C157 1.353 . S
N154 Co119 2.145 . S
N154 C155 1.397 . S
N154 C156 1.334 . S
C155 H136 0.929 . S
C155 C152 1.388 . S
C155 N154 1.397 . S
C156 H137 0.929 . S
C156 C153 1.404 . S
C156 N154 1.334 . S
C157 H149 0.930 . S
C157 C152 1.418 . S
C157 C153 1.353 . S
C158 H128 0.930 . S
C158 N159 1.330 . S
C158 C160 1.446 . S
N159 Co118 2.151 . S
N159 C158 1.330 . S
N159 C163 1.418 . S
C160 H139 0.929 . S
C160 C158 1.446 . S
C160 C161 1.332 . S
C161 H141 0.931 . S
C161 C160 1.332 . S
C161 C162 1.267 . S
C162 H130 0.929 . S
C162 C161 1.267 . S
C162 C163 1.251 . S
C163 H133 0.929 . S
C163 N159 1.418 . S
C163 C162 1.251 . S
C164 H131 0.930 . S
C164 C166 1.406 . S
C164 C169 1.261 . S
C165 H132 0.930 . S
C165 N167 1.325 . S
C165 C168 1.357 . S
C166 H134 0.928 . S
C166 C164 1.406 . S
C166 N167 1.261 . S
N167 Co118 2.214 . S
N167 C165 1.325 . S
N167 C166 1.261 . S
C168 H138 0.931 . S
C168 C165 1.357 . S
C168 C169 1.312 . S
C169 H140 0.930 . S
C169 C164 1.261 . S
C169 C168 1.312 . S
C170 O142 1.214 . S
C170 O150 1.234 . S
C171 H143 0.929 . S
C171 C174 1.391 . S
C171 C176 1.391 . S
C172 H144 0.929 . S
C172 C173 1.390 . S
C172 N175 1.391 . S
C173 H145 0.930 . S
C173 C172 1.390 . S
C173 C174 1.392 . S
C174 H146 0.929 . S
C174 C171 1.391 . S
C174 C173 1.392 . S
N175 Co119 2.257 . S
N175 C172 1.391 . S
N175 C176 1.388 . S
C176 H147 0.930 . S
C176 C171 1.391 . S
C176 N175 1.388 . S
Co177 O179 2.143 . S
Co177 O185 2.074 . S
Co177 O188 2.093 . S
Co177 O201 2.097 . S
Co177 N218 2.151 . S
Co177 N226 2.214 . S
Co178 O179 2.160 . S
Co178 O184 2.058 . S
Co178 O194 2.057 . S
Co178 O209 2.037 . S
Co178 N213 2.145 . S
Co178 N234 2.257 . S
O179 Co177 2.143 . S
O179 Co178 2.160 . S
C180 O181 1.278 . S
C180 O188 1.224 . S
O181 C180 1.278 . S
C182 O183 1.245 . S
C182 O194 1.232 . S
O183 C182 1.245 . S
O184 Co178 2.058 . S
O184 C210 1.269 . S
O185 Co177 2.074 . S
O185 C210 1.257 . S
H186 C211 0.930 . S
H187 C217 0.930 . S
O188 Co177 2.093 . S
O188 C180 1.224 . S
H189 C221 0.929 . S
H190 C223 0.930 . S
H191 C224 0.930 . S
H192 C222 0.929 . S
H193 C225 0.928 . S
O194 Co178 2.057 . S
O194 C182 1.232 . S
H195 C214 0.929 . S
H196 C215 0.929 . S
H197 C227 0.931 . S
H198 C219 0.929 . S
H199 C228 0.930 . S
H200 C220 0.931 . S
O201 Co177 2.097 . S
O201 C229 1.214 . S
H202 C230 0.929 . S
H203 C231 0.929 . S
H204 C232 0.930 . S
H205 C233 0.929 . S
H206 C235 0.930 . S
H207 C212 0.930 . S
H208 C216 0.930 . S
O209 Co178 2.037 . S
O209 C229 1.234 . S
C210 O184 1.269 . S
C210 O185 1.257 . S
C211 H186 0.930 . S
C211 C214 1.388 . S
C211 C216 1.418 . S
C212 H207 0.930 . S
C212 C215 1.404 . S
C212 C216 1.353 . S
N213 Co178 2.145 . S
N213 C214 1.397 . S
N213 C215 1.334 . S
C214 H195 0.929 . S
C214 C211 1.388 . S
C214 N213 1.397 . S
C215 H196 0.929 . S
C215 C212 1.404 . S
C215 N213 1.334 . S
C216 H208 0.930 . S
C216 C211 1.418 . S
C216 C212 1.353 . S
C217 H187 0.930 . S
C217 N218 1.330 . S
C217 C219 1.446 . S
N218 Co177 2.151 . S
N218 C217 1.330 . S
N218 C222 1.418 . S
C219 H198 0.929 . S
C219 C217 1.446 . S
C219 C220 1.332 . S
C220 H200 0.931 . S
C220 C219 1.332 . S
C220 C221 1.267 . S
C221 H189 0.929 . S
C221 C220 1.267 . S
C221 C222 1.251 . S
C222 H192 0.929 . S
C222 N218 1.418 . S
C222 C221 1.251 . S
C223 H190 0.930 . S
C223 C225 1.406 . S
C223 C228 1.261 . S
C224 H191 0.930 . S
C224 N226 1.325 . S
C224 C227 1.357 . S
C225 H193 0.928 . S
C225 C223 1.406 . S
C225 N226 1.261 . S
N226 Co177 2.214 . S
N226 C224 1.325 . S
N226 C225 1.261 . S
C227 H197 0.931 . S
C227 C224 1.357 . S
C227 C228 1.312 . S
C228 H199 0.930 . S
C228 C223 1.261 . S
C228 C227 1.312 . S
C229 O201 1.214 . S
C229 O209 1.234 . S
C230 H202 0.929 . S
C230 C233 1.391 . S
C230 C235 1.391 . S
C231 H203 0.929 . S
C231 C232 1.390 . S
C231 N234 1.391 . S
C232 H204 0.930 . S
C232 C231 1.390 . S
C232 C233 1.392 . S
C233 H205 0.929 . S
C233 C230 1.391 . S
C233 C232 1.392 . S
N234 Co178 2.257 . S
N234 C231 1.391 . S
N234 C235 1.388 . S
C235 H206 0.930 . S
C235 C230 1.391 . S
C235 N234 1.388 . S
Co236 O238 2.143 . S
Co236 O244 2.074 . S
Co236 O247 2.093 . S
Co236 O260 2.097 . S
Co236 N277 2.151 . S
Co236 N285 2.214 . S
Co237 O238 2.160 . S
Co237 O243 2.058 . S
Co237 O253 2.057 . S
Co237 O268 2.037 . S
Co237 N272 2.145 . S
Co237 N293 2.257 . S
O238 Co236 2.143 . S
O238 Co237 2.160 . S
C239 O240 1.278 . S
C239 O247 1.224 . S
O240 C239 1.278 . S
C241 O242 1.245 . S
C241 O253 1.232 . S
O242 C241 1.245 . S
O243 Co237 2.058 . S
O243 C269 1.269 . S
O244 Co236 2.074 . S
O244 C269 1.257 . S
H245 C270 0.930 . S
H246 C276 0.930 . S
O247 Co236 2.093 . S
O247 C239 1.224 . S
H248 C280 0.929 . S
H249 C282 0.930 . S
H250 C283 0.930 . S
H251 C281 0.929 . S
H252 C284 0.928 . S
O253 Co237 2.057 . S
O253 C241 1.232 . S
H254 C273 0.929 . S
H255 C274 0.929 . S
H256 C286 0.931 . S
H257 C278 0.929 . S
H258 C287 0.930 . S
H259 C279 0.931 . S
O260 Co236 2.097 . S
O260 C288 1.214 . S
H261 C289 0.929 . S
H262 C290 0.929 . S
H263 C291 0.930 . S
H264 C292 0.929 . S
H265 C294 0.930 . S
H266 C271 0.930 . S
H267 C275 0.930 . S
O268 Co237 2.037 . S
O268 C288 1.234 . S
C269 O243 1.269 . S
C269 O244 1.257 . S
C270 H245 0.930 . S
C270 C273 1.388 . S
C270 C275 1.418 . S
C271 H266 0.930 . S
C271 C274 1.404 . S
C271 C275 1.353 . S
N272 Co237 2.145 . S
N272 C273 1.397 . S
N272 C274 1.334 . S
C273 H254 0.929 . S
C273 C270 1.388 . S
C273 N272 1.397 . S
C274 H255 0.929 . S
C274 C271 1.404 . S
C274 N272 1.334 . S
C275 H267 0.930 . S
C275 C270 1.418 . S
C275 C271 1.353 . S
C276 H246 0.930 . S
C276 N277 1.330 . S
C276 C278 1.446 . S
N277 Co236 2.151 . S
N277 C276 1.330 . S
N277 C281 1.418 . S
C278 H257 0.929 . S
C278 C276 1.446 . S
C278 C279 1.332 . S
C279 H259 0.931 . S
C279 C278 1.332 . S
C279 C280 1.267 . S
C280 H248 0.929 . S
C280 C279 1.267 . S
C280 C281 1.251 . S
C281 H251 0.929 . S
C281 N277 1.418 . S
C281 C280 1.251 . S
C282 H249 0.930 . S
C282 C284 1.406 . S
C282 C287 1.261 . S
C283 H250 0.930 . S
C283 N285 1.325 . S
C283 C286 1.357 . S
C284 H252 0.928 . S
C284 C282 1.406 . S
C284 N285 1.261 . S
N285 Co236 2.214 . S
N285 C283 1.325 . S
N285 C284 1.261 . S
C286 H256 0.931 . S
C286 C283 1.357 . S
C286 C287 1.312 . S
C287 H258 0.930 . S
C287 C282 1.261 . S
C287 C286 1.312 . S
C288 O260 1.214 . S
C288 O268 1.234 . S
C289 H261 0.929 . S
C289 C292 1.391 . S
C289 C294 1.391 . S
C290 H262 0.929 . S
C290 C291 1.390 . S
C290 N293 1.391 . S
C291 H263 0.930 . S
C291 C290 1.390 . S
C291 C292 1.392 . S
C292 H264 0.929 . S
C292 C289 1.391 . S
C292 C291 1.392 . S
N293 Co237 2.257 . S
N293 C290 1.391 . S
N293 C294 1.388 . S
C294 H265 0.930 . S
C294 C289 1.391 . S
C294 N293 1.388 . S
Co295 O297 2.143 . S
Co295 O303 2.074 . S
Co295 O306 2.093 . S
Co295 O319 2.097 . S
Co295 N336 2.151 . S
Co295 N344 2.214 . S
Co296 O297 2.160 . S
Co296 O302 2.058 . S
Co296 O312 2.057 . S
Co296 O327 2.037 . S
Co296 N331 2.145 . S
Co296 N352 2.257 . S
O297 Co295 2.143 . S
O297 Co296 2.160 . S
C298 O299 1.278 . S
C298 O306 1.224 . S
O299 C298 1.278 . S
C300 O301 1.245 . S
C300 O312 1.232 . S
O301 C300 1.245 . S
O302 Co296 2.058 . S
O302 C328 1.269 . S
O303 Co295 2.074 . S
O303 C328 1.257 . S
H304 C329 0.930 . S
H305 C335 0.930 . S
O306 Co295 2.093 . S
O306 C298 1.224 . S
H307 C339 0.929 . S
H308 C341 0.930 . S
H309 C342 0.930 . S
H310 C340 0.929 . S
H311 C343 0.928 . S
O312 Co296 2.057 . S
O312 C300 1.232 . S
H313 C332 0.929 . S
H314 C333 0.929 . S
H315 C345 0.931 . S
H316 C337 0.929 . S
H317 C346 0.930 1_655 S
H318 C338 0.931 . S
O319 Co295 2.097 . S
O319 C347 1.214 . S
H320 C348 0.929 . S
H321 C349 0.929 . S
H322 C350 0.930 . S
H323 C351 0.929 . S
H324 C353 0.930 . S
H325 C330 0.930 . S
H326 C334 0.930 . S
O327 Co296 2.037 . S
O327 C347 1.234 . S
C328 O302 1.269 . S
C328 O303 1.257 . S
C329 H304 0.930 . S
C329 C332 1.388 . S
C329 C334 1.418 . S
C330 H325 0.930 . S
C330 C333 1.404 . S
C330 C334 1.353 . S
N331 Co296 2.145 . S
N331 C332 1.397 . S
N331 C333 1.334 . S
C332 H313 0.929 . S
C332 C329 1.388 . S
C332 N331 1.397 . S
C333 H314 0.929 . S
C333 C330 1.404 . S
C333 N331 1.334 . S
C334 H326 0.930 . S
C334 C329 1.418 . S
C334 C330 1.353 . S
C335 H305 0.930 . S
C335 N336 1.330 . S
C335 C337 1.446 . S
N336 Co295 2.151 . S
N336 C335 1.330 . S
N336 C340 1.418 . S
C337 H316 0.929 . S
C337 C335 1.446 . S
C337 C338 1.332 . S
C338 H318 0.931 . S
C338 C337 1.332 . S
C338 C339 1.267 . S
C339 H307 0.929 . S
C339 C338 1.267 . S
C339 C340 1.251 . S
C340 H310 0.929 . S
C340 N336 1.418 . S
C340 C339 1.251 . S
C341 H308 0.930 . S
C341 C343 1.406 . S
C341 C346 1.261 . S
C342 H309 0.930 . S
C342 N344 1.325 . S
C342 C345 1.357 . S
C343 H311 0.928 . S
C343 C341 1.406 . S
C343 N344 1.261 . S
N344 Co295 2.214 . S
N344 C342 1.325 . S
N344 C343 1.261 . S
C345 H315 0.931 . S
C345 C342 1.357 . S
C345 C346 1.312 . S
C346 H317 0.930 1_455 S
C346 C341 1.261 . S
C346 C345 1.312 . S
C347 O319 1.214 . S
C347 O327 1.234 . S
C348 H320 0.929 . S
C348 C351 1.391 . S
C348 C353 1.391 . S
C349 H321 0.929 . S
C349 C350 1.390 . S
C349 N352 1.391 . S
C350 H322 0.930 . S
C350 C349 1.390 . S
C350 C351 1.392 . S
C351 H323 0.929 . S
C351 C348 1.391 . S
C351 C350 1.392 . S
N352 Co296 2.257 . S
N352 C349 1.391 . S
N352 C353 1.388 . S
C353 H324 0.930 . S
C353 C348 1.391 . S
C353 N352 1.388 . S
Co354 O356 2.143 . S
Co354 O362 2.074 . S
Co354 O365 2.093 . S
Co354 O378 2.097 . S
Co354 N395 2.151 . S
Co354 N403 2.214 . S
Co355 O356 2.160 . S
Co355 O361 2.058 . S
Co355 O371 2.057 . S
Co355 O386 2.037 . S
Co355 N390 2.145 . S
Co355 N411 2.257 . S
O356 Co354 2.143 . S
O356 Co355 2.160 . S
C357 O358 1.278 . S
C357 O365 1.224 . S
O358 C357 1.278 . S
C359 O360 1.245 . S
C359 O371 1.232 . S
O360 C359 1.245 . S
O361 Co355 2.058 . S
O361 C387 1.269 . S
O362 Co354 2.074 . S
O362 C387 1.257 . S
H363 C388 0.930 . S
H364 C394 0.930 . S
O365 Co354 2.093 . S
O365 C357 1.224 . S
H366 C398 0.929 . S
H367 C400 0.930 . S
H368 C401 0.930 . S
H369 C399 0.929 . S
H370 C402 0.928 . S
O371 Co355 2.057 . S
O371 C359 1.232 . S
H372 C391 0.929 . S
H373 C392 0.929 . S
H374 C404 0.931 . S
H375 C396 0.929 . S
H376 C405 0.930 . S
H377 C397 0.931 . S
O378 Co354 2.097 . S
O378 C406 1.214 . S
H379 C407 0.929 . S
H380 C408 0.929 . S
H381 C409 0.930 . S
H382 C410 0.929 . S
H383 C412 0.930 . S
H384 C389 0.930 . S
H385 C393 0.930 . S
O386 Co355 2.037 . S
O386 C406 1.234 . S
C387 O361 1.269 . S
C387 O362 1.257 . S
C388 H363 0.930 . S
C388 C391 1.388 . S
C388 C393 1.418 . S
C389 H384 0.930 . S
C389 C392 1.404 . S
C389 C393 1.353 . S
N390 Co355 2.145 . S
N390 C391 1.397 . S
N390 C392 1.334 . S
C391 H372 0.929 . S
C391 C388 1.388 . S
C391 N390 1.397 . S
C392 H373 0.929 . S
C392 C389 1.404 . S
C392 N390 1.334 . S
C393 H385 0.930 . S
C393 C388 1.418 . S
C393 C389 1.353 . S
C394 H364 0.930 . S
C394 N395 1.330 . S
C394 C396 1.446 . S
N395 Co354 2.151 . S
N395 C394 1.330 . S
N395 C399 1.418 . S
C396 H375 0.929 . S
C396 C394 1.446 . S
C396 C397 1.332 . S
C397 H377 0.931 . S
C397 C396 1.332 . S
C397 C398 1.267 . S
C398 H366 0.929 . S
C398 C397 1.267 . S
C398 C399 1.251 . S
C399 H369 0.929 . S
C399 N395 1.418 . S
C399 C398 1.251 . S
C400 H367 0.930 . S
C400 C402 1.406 . S
C400 C405 1.261 . S
C401 H368 0.930 . S
C401 N403 1.325 . S
C401 C404 1.357 . S
C402 H370 0.928 . S
C402 C400 1.406 . S
C402 N403 1.261 . S
N403 Co354 2.214 . S
N403 C401 1.325 . S
N403 C402 1.261 . S
C404 H374 0.931 . S
C404 C401 1.357 . S
C404 C405 1.312 . S
C405 H376 0.930 . S
C405 C400 1.261 . S
C405 C404 1.312 . S
C406 O378 1.214 . S
C406 O386 1.234 . S
C407 H379 0.929 . S
C407 C410 1.391 . S
C407 C412 1.391 . S
C408 H380 0.929 . S
C408 C409 1.390 . S
C408 N411 1.391 . S
C409 H381 0.930 . S
C409 C408 1.390 . S
C409 C410 1.392 . S
C410 H382 0.929 . S
C410 C407 1.391 . S
C410 C409 1.392 . S
N411 Co355 2.257 . S
N411 C408 1.391 . S
N411 C412 1.388 . S
C412 H383 0.930 . S
C412 C407 1.391 . S
C412 N411 1.388 . S
Co413 O415 2.143 . S
Co413 O421 2.074 . S
Co413 O424 2.093 . S
Co413 O437 2.097 . S
Co413 N454 2.151 . S
Co413 N462 2.214 . S
Co414 O415 2.160 . S
Co414 O420 2.058 . S
Co414 O430 2.057 . S
Co414 O445 2.037 . S
Co414 N449 2.145 . S
Co414 N470 2.257 . S
O415 Co413 2.143 . S
O415 Co414 2.160 . S
C416 O417 1.278 . S
C416 O424 1.224 . S
O417 C416 1.278 . S
C418 O419 1.245 . S
C418 O430 1.232 . S
O419 C418 1.245 . S
O420 Co414 2.058 . S
O420 C446 1.269 . S
O421 Co413 2.074 . S
O421 C446 1.257 . S
H422 C447 0.930 . S
H423 C453 0.930 . S
O424 Co413 2.093 . S
O424 C416 1.224 . S
H425 C457 0.929 . S
H426 C459 0.930 . S
H427 C460 0.930 . S
H428 C458 0.929 . S
H429 C461 0.928 . S
O430 Co414 2.057 . S
O430 C418 1.232 . S
H431 C450 0.929 . S
H432 C451 0.929 . S
H433 C463 0.931 . S
H434 C455 0.929 . S
H435 C464 0.943 . S
H436 C456 0.931 . S
O437 Co413 2.097 . S
O437 C465 1.214 . S
H438 C466 0.929 . S
H439 C467 0.929 . S
H440 C468 0.930 . S
H441 C469 0.929 . S
H442 C471 0.930 . S
H443 C448 0.930 . S
H444 C452 0.930 . S
O445 Co414 2.037 . S
O445 C465 1.234 . S
C446 O420 1.269 . S
C446 O421 1.257 . S
C447 H422 0.930 . S
C447 C450 1.388 . S
C447 C452 1.418 . S
C448 H443 0.930 . S
C448 C451 1.404 . S
C448 C452 1.353 . S
N449 Co414 2.145 . S
N449 C450 1.397 . S
N449 C451 1.334 . S
C450 H431 0.929 . S
C450 C447 1.388 . S
C450 N449 1.397 . S
C451 H432 0.929 . S
C451 C448 1.404 . S
C451 N449 1.334 . S
C452 H444 0.930 . S
C452 C447 1.418 . S
C452 C448 1.353 . S
C453 H423 0.930 . S
C453 N454 1.330 . S
C453 C455 1.446 . S
N454 Co413 2.151 . S
N454 C453 1.330 . S
N454 C458 1.418 . S
C455 H434 0.929 . S
C455 C453 1.446 . S
C455 C456 1.332 . S
C456 H436 0.931 . S
C456 C455 1.332 . S
C456 C457 1.267 . S
C457 H425 0.929 . S
C457 C456 1.267 . S
C457 C458 1.251 . S
C458 H428 0.929 . S
C458 N454 1.418 . S
C458 C457 1.251 . S
C459 H426 0.930 . S
C459 C461 1.406 . S
C459 C464 1.261 . S
C460 H427 0.930 . S
C460 N462 1.325 . S
C460 C463 1.357 . S
C461 H429 0.928 . S
C461 C459 1.406 . S
C461 N462 1.261 . S
N462 Co413 2.214 . S
N462 C460 1.325 . S
N462 C461 1.261 . S
C463 H433 0.931 . S
C463 C460 1.357 . S
C463 C464 1.312 . S
C464 H435 0.943 . S
C464 C459 1.261 . S
C464 C463 1.312 . S
C465 O437 1.214 . S
C465 O445 1.234 . S
C466 H438 0.929 . S
C466 C469 1.391 . S
C466 C471 1.391 . S
C467 H439 0.929 . S
C467 C468 1.390 . S
C467 N470 1.391 . S
C468 H440 0.930 . S
C468 C467 1.390 . S
C468 C469 1.392 . S
C469 H441 0.929 . S
C469 C466 1.391 . S
C469 C468 1.392 . S
N470 Co414 2.257 . S
N470 C467 1.391 . S
N470 C471 1.388 . S
C471 H442 0.930 . S
C471 C466 1.391 . S
C471 N470 1.388 . S
Co472 O474 2.143 . S
Co472 O480 2.074 . S
Co472 O483 2.093 . S
Co472 O496 2.097 . S
Co472 N513 2.151 . S
Co472 N521 2.214 . S
Co473 O474 2.160 . S
Co473 O479 2.058 . S
Co473 O489 2.057 . S
Co473 O504 2.037 . S
Co473 N508 2.145 . S
Co473 N529 2.257 . S
O474 Co472 2.143 . S
O474 Co473 2.160 . S
C475 O476 1.278 . S
C475 O483 1.224 . S
O476 C475 1.278 . S
C477 O478 1.245 . S
C477 O489 1.232 . S
O478 C477 1.245 . S
O479 Co473 2.058 . S
O479 C505 1.269 . S
O480 Co472 2.074 . S
O480 C505 1.257 . S
H481 C506 0.930 . S
H482 C512 0.930 . S
O483 Co472 2.093 . S
O483 C475 1.224 . S
H484 C516 0.929 . S
H485 C518 0.930 . S
H486 C519 0.930 . S
H487 C517 0.929 . S
H488 C520 0.928 . S
O489 Co473 2.057 . S
O489 C477 1.232 . S
H490 C509 0.929 . S
H491 C510 0.929 . S
H492 C522 0.931 . S
H493 C514 0.929 . S
H494 C523 0.930 . S
H495 C515 0.931 . S
O496 Co472 2.097 . S
O496 C524 1.214 . S
H497 C525 0.929 . S
H498 C526 0.929 . S
H499 C527 0.930 . S
H500 C528 0.929 . S
H501 C530 0.930 . S
H502 C507 0.930 . S
H503 C511 0.930 . S
O504 Co473 2.037 . S
O504 C524 1.234 . S
C505 O479 1.269 . S
C505 O480 1.257 . S
C506 H481 0.930 . S
C506 C509 1.388 . S
C506 C511 1.418 . S
C507 H502 0.930 . S
C507 C510 1.404 . S
C507 C511 1.353 . S
N508 Co473 2.145 . S
N508 C509 1.397 . S
N508 C510 1.334 . S
C509 H490 0.929 . S
C509 C506 1.388 . S
C509 N508 1.397 . S
C510 H491 0.929 . S
C510 C507 1.404 . S
C510 N508 1.334 . S
C511 H503 0.930 . S
C511 C506 1.418 . S
C511 C507 1.353 . S
C512 H482 0.930 . S
C512 N513 1.330 . S
C512 C514 1.446 . S
N513 Co472 2.151 . S
N513 C512 1.330 . S
N513 C517 1.418 . S
C514 H493 0.929 . S
C514 C512 1.446 . S
C514 C515 1.332 . S
C515 H495 0.931 . S
C515 C514 1.332 . S
C515 C516 1.267 . S
C516 H484 0.929 . S
C516 C515 1.267 . S
C516 C517 1.251 . S
C517 H487 0.929 . S
C517 N513 1.418 . S
C517 C516 1.251 . S
C518 H485 0.930 . S
C518 C520 1.406 . S
C518 C523 1.261 . S
C519 H486 0.930 . S
C519 N521 1.325 . S
C519 C522 1.357 . S
C520 H488 0.928 . S
C520 C518 1.406 . S
C520 N521 1.261 . S
N521 Co472 2.214 . S
N521 C519 1.325 . S
N521 C520 1.261 . S
C522 H492 0.931 . S
C522 C519 1.357 . S
C522 C523 1.312 . S
C523 H494 0.930 . S
C523 C518 1.261 . S
C523 C522 1.312 . S
C524 O496 1.214 . S
C524 O504 1.234 . S
C525 H497 0.929 . S
C525 C528 1.391 . S
C525 C530 1.391 . S
C526 H498 0.929 . S
C526 C527 1.390 . S
C526 N529 1.391 . S
C527 H499 0.930 . S
C527 C526 1.390 . S
C527 C528 1.392 . S
C528 H500 0.929 . S
C528 C525 1.391 . S
C528 C527 1.392 . S
N529 Co473 2.257 . S
N529 C526 1.391 . S
N529 C530 1.388 . S
C530 H501 0.930 . S
C530 C525 1.391 . S
C530 N529 1.388 . S
Co531 O533 2.143 . S
Co531 O539 2.074 . S
Co531 O542 2.093 . S
Co531 O555 2.097 . S
Co531 N572 2.151 . S
Co531 N580 2.214 . S
Co532 O533 2.160 . S
Co532 O538 2.058 . S
Co532 O548 2.057 . S
Co532 O563 2.037 . S
Co532 N567 2.145 . S
Co532 N588 2.257 . S
O533 Co531 2.143 . S
O533 Co532 2.160 . S
C534 O535 1.278 . S
C534 O542 1.224 . S
O535 C534 1.278 . S
C536 O537 1.245 . S
C536 O548 1.232 . S
O537 C536 1.245 . S
O538 Co532 2.058 . S
O538 C564 1.269 . S
O539 Co531 2.074 . S
O539 C564 1.257 . S
H540 C565 0.930 . S
H541 C571 0.930 . S
O542 Co531 2.093 . S
O542 C534 1.224 . S
H543 C575 0.929 . S
H544 C577 0.930 . S
H545 C578 0.930 . S
H546 C576 0.929 . S
H547 C579 0.928 . S
O548 Co532 2.057 . S
O548 C536 1.232 . S
H549 C568 0.929 . S
H550 C569 0.929 . S
H551 C581 0.931 . S
H552 C573 0.929 . S
H553 C582 0.930 . S
H554 C574 0.931 . S
O555 Co531 2.097 . S
O555 C583 1.214 . S
H556 C584 0.929 . S
H557 C585 0.929 . S
H558 C586 0.930 . S
H559 C587 0.929 . S
H560 C589 0.930 . S
H561 C566 0.930 . S
H562 C570 0.930 . S
O563 Co532 2.037 . S
O563 C583 1.234 . S
C564 O538 1.269 . S
C564 O539 1.257 . S
C565 H540 0.930 . S
C565 C568 1.388 . S
C565 C570 1.418 . S
C566 H561 0.930 . S
C566 C569 1.404 . S
C566 C570 1.353 . S
N567 Co532 2.145 . S
N567 C568 1.397 . S
N567 C569 1.334 . S
C568 H549 0.929 . S
C568 C565 1.388 . S
C568 N567 1.397 . S
C569 H550 0.929 . S
C569 C566 1.404 . S
C569 N567 1.334 . S
C570 H562 0.930 . S
C570 C565 1.418 . S
C570 C566 1.353 . S
C571 H541 0.930 . S
C571 N572 1.330 . S
C571 C573 1.446 . S
N572 Co531 2.151 . S
N572 C571 1.330 . S
N572 C576 1.418 . S
C573 H552 0.929 . S
C573 C571 1.446 . S
C573 C574 1.332 . S
C574 H554 0.931 . S
C574 C573 1.332 . S
C574 C575 1.267 . S
C575 H543 0.929 . S
C575 C574 1.267 . S
C575 C576 1.251 . S
C576 H546 0.929 . S
C576 N572 1.418 . S
C576 C575 1.251 . S
C577 H544 0.930 . S
C577 C579 1.406 . S
C577 C582 1.261 . S
C578 H545 0.930 . S
C578 N580 1.325 . S
C578 C581 1.357 . S
C579 H547 0.928 . S
C579 C577 1.406 . S
C579 N580 1.261 . S
N580 Co531 2.214 . S
N580 C578 1.325 . S
N580 C579 1.261 . S
C581 H551 0.931 . S
C581 C578 1.357 . S
C581 C582 1.312 . S
C582 H553 0.930 . S
C582 C577 1.261 . S
C582 C581 1.312 . S
C583 O555 1.214 . S
C583 O563 1.234 . S
C584 H556 0.929 . S
C584 C587 1.391 . S
C584 C589 1.391 . S
C585 H557 0.929 . S
C585 C586 1.390 . S
C585 N588 1.391 . S
C586 H558 0.930 . S
C586 C585 1.390 . S
C586 C587 1.392 . S
C587 H559 0.929 . S
C587 C584 1.391 . S
C587 C586 1.392 . S
N588 Co532 2.257 . S
N588 C585 1.391 . S
N588 C589 1.388 . S
C589 H560 0.930 . S
C589 C584 1.391 . S
C589 N588 1.388 . S
Co590 O592 2.143 . S
Co590 O598 2.074 . S
Co590 O601 2.093 . S
Co590 O614 2.097 . S
Co590 N631 2.151 . S
Co590 N639 2.214 . S
Co591 O592 2.160 . S
Co591 O597 2.058 . S
Co591 O607 2.057 . S
Co591 O622 2.037 . S
Co591 N626 2.145 . S
Co591 N647 2.257 . S
O592 Co590 2.143 . S
O592 Co591 2.160 . S
C593 O594 1.278 . S
C593 O601 1.224 . S
O594 C593 1.278 . S
C595 O596 1.245 . S
C595 O607 1.232 . S
O596 C595 1.245 . S
O597 Co591 2.058 . S
O597 C623 1.269 . S
O598 Co590 2.074 . S
O598 C623 1.257 . S
H599 C624 0.930 . S
H600 C630 0.930 . S
O601 Co590 2.093 . S
O601 C593 1.224 . S
H602 C634 0.929 . S
H603 C636 0.930 . S
H604 C637 0.930 . S
H605 C635 0.929 . S
H606 C638 0.928 . S
O607 Co591 2.057 . S
O607 C595 1.232 . S
H608 C627 0.929 . S
H609 C628 0.929 . S
H610 C640 0.931 . S
H611 C632 0.929 . S
H612 C641 0.930 . S
H613 C633 0.931 . S
O614 Co590 2.097 . S
O614 C642 1.214 . S
H615 C643 0.929 . S
H616 C644 0.929 . S
H617 C645 0.930 . S
H618 C646 0.929 . S
H619 C648 0.930 . S
H620 C625 0.930 . S
H621 C629 0.930 . S
O622 Co591 2.037 . S
O622 C642 1.234 . S
C623 O597 1.269 . S
C623 O598 1.257 . S
C624 H599 0.930 . S
C624 C627 1.388 . S
C624 C629 1.418 . S
C625 H620 0.930 . S
C625 C628 1.404 . S
C625 C629 1.353 . S
N626 Co591 2.145 . S
N626 C627 1.397 . S
N626 C628 1.334 . S
C627 H608 0.929 . S
C627 C624 1.388 . S
C627 N626 1.397 . S
C628 H609 0.929 . S
C628 C625 1.404 . S
C628 N626 1.334 . S
C629 H621 0.930 . S
C629 C624 1.418 . S
C629 C625 1.353 . S
C630 H600 0.930 . S
C630 N631 1.330 . S
C630 C632 1.446 . S
N631 Co590 2.151 . S
N631 C630 1.330 . S
N631 C635 1.418 . S
C632 H611 0.929 . S
C632 C630 1.446 . S
C632 C633 1.332 . S
C633 H613 0.931 . S
C633 C632 1.332 . S
C633 C634 1.267 . S
C634 H602 0.929 . S
C634 C633 1.267 . S
C634 C635 1.251 . S
C635 H605 0.929 . S
C635 N631 1.418 . S
C635 C634 1.251 . S
C636 H603 0.930 . S
C636 C638 1.406 . S
C636 C641 1.261 . S
C637 H604 0.930 . S
C637 N639 1.325 . S
C637 C640 1.357 . S
C638 H606 0.928 . S
C638 C636 1.406 . S
C638 N639 1.261 . S
N639 Co590 2.214 . S
N639 C637 1.325 . S
N639 C638 1.261 . S
C640 H610 0.931 . S
C640 C637 1.357 . S
C640 C641 1.312 . S
C641 H612 0.930 . S
C641 C636 1.261 . S
C641 C640 1.312 . S
C642 O614 1.214 . S
C642 O622 1.234 . S
C643 H615 0.929 . S
C643 C646 1.391 . S
C643 C648 1.391 . S
C644 H616 0.929 . S
C644 C645 1.390 . S
C644 N647 1.391 . S
C645 H617 0.930 . S
C645 C644 1.390 . S
C645 C646 1.392 . S
C646 H618 0.929 . S
C646 C643 1.391 . S
C646 C645 1.392 . S
N647 Co591 2.257 . S
N647 C644 1.391 . S
N647 C648 1.388 . S
C648 H619 0.930 . S
C648 C643 1.391 . S
C648 N647 1.388 . S
Co649 O651 2.143 . S
Co649 O657 2.074 . S
Co649 O660 2.093 . S
Co649 O673 2.097 . S
Co649 N690 2.151 . S
Co649 N698 2.214 . S
Co650 O651 2.160 . S
Co650 O656 2.058 . S
Co650 O666 2.057 . S
Co650 O681 2.037 . S
Co650 N685 2.145 . S
Co650 N706 2.257 . S
O651 Co649 2.143 . S
O651 Co650 2.160 . S
C652 O653 1.278 . S
C652 O660 1.224 . S
O653 C652 1.278 . S
C654 O655 1.245 . S
C654 O666 1.232 . S
O655 C654 1.245 . S
O656 Co650 2.058 . S
O656 C682 1.269 . S
O657 Co649 2.074 . S
O657 C682 1.257 . S
H658 C683 0.930 . S
H659 C689 0.930 . S
O660 Co649 2.093 . S
O660 C652 1.224 . S
H661 C693 0.929 . S
H662 C695 0.930 . S
H663 C696 0.930 . S
H664 C694 0.929 . S
H665 C697 0.928 . S
O666 Co650 2.057 . S
O666 C654 1.232 . S
H667 C686 0.929 . S
H668 C687 0.929 . S
H669 C699 0.931 . S
H670 C691 0.929 . S
H671 C700 0.930 . S
H672 C692 0.931 . S
O673 Co649 2.097 . S
O673 C701 1.214 . S
H674 C702 0.929 . S
H675 C703 0.929 . S
H676 C704 0.930 . S
H677 C705 0.929 . S
H678 C707 0.930 . S
H679 C684 0.930 . S
H680 C688 0.930 . S
O681 Co650 2.037 . S
O681 C701 1.234 . S
C682 O656 1.269 . S
C682 O657 1.257 . S
C683 H658 0.930 . S
C683 C686 1.388 . S
C683 C688 1.418 . S
C684 H679 0.930 . S
C684 C687 1.404 . S
C684 C688 1.353 . S
N685 Co650 2.145 . S
N685 C686 1.397 . S
N685 C687 1.334 . S
C686 H667 0.929 . S
C686 C683 1.388 . S
C686 N685 1.397 . S
C687 H668 0.929 . S
C687 C684 1.404 . S
C687 N685 1.334 . S
C688 H680 0.930 . S
C688 C683 1.418 . S
C688 C684 1.353 . S
C689 H659 0.930 . S
C689 N690 1.330 . S
C689 C691 1.446 . S
N690 Co649 2.151 . S
N690 C689 1.330 . S
N690 C694 1.418 . S
C691 H670 0.929 . S
C691 C689 1.446 . S
C691 C692 1.332 . S
C692 H672 0.931 . S
C692 C691 1.332 . S
C692 C693 1.267 . S
C693 H661 0.929 . S
C693 C692 1.267 . S
C693 C694 1.251 . S
C694 H664 0.929 . S
C694 N690 1.418 . S
C694 C693 1.251 . S
C695 H662 0.930 . S
C695 C697 1.406 . S
C695 C700 1.261 . S
C696 H663 0.930 . S
C696 N698 1.325 . S
C696 C699 1.357 . S
C697 H665 0.928 . S
C697 C695 1.406 . S
C697 N698 1.261 . S
N698 Co649 2.214 . S
N698 C696 1.325 . S
N698 C697 1.261 . S
C699 H669 0.931 . S
C699 C696 1.357 . S
C699 C700 1.312 . S
C700 H671 0.930 . S
C700 C695 1.261 . S
C700 C699 1.312 . S
C701 O673 1.214 . S
C701 O681 1.234 . S
C702 H674 0.929 . S
C702 C705 1.391 . S
C702 C707 1.391 . S
C703 H675 0.929 . S
C703 C704 1.390 . S
C703 N706 1.391 . S
C704 H676 0.930 . S
C704 C703 1.390 . S
C704 C705 1.392 . S
C705 H677 0.929 . S
C705 C702 1.391 . S
C705 C704 1.392 . S
N706 Co650 2.257 . S
N706 C703 1.391 . S
N706 C707 1.388 . S
C707 H678 0.930 . S
C707 C702 1.391 . S
C707 N706 1.388 . S
Co708 O710 2.143 . S
Co708 O716 2.074 . S
Co708 O719 2.093 . S
Co708 O732 2.097 . S
Co708 N749 2.151 . S
Co708 N757 2.214 . S
Co709 O710 2.160 . S
Co709 O715 2.058 . S
Co709 O725 2.057 . S
Co709 O740 2.037 . S
Co709 N744 2.145 . S
Co709 N765 2.257 . S
O710 Co708 2.143 . S
O710 Co709 2.160 . S
C711 O712 1.278 . S
C711 O719 1.224 . S
O712 C711 1.278 . S
C713 O714 1.245 . S
C713 O725 1.232 . S
O714 C713 1.245 . S
O715 Co709 2.058 . S
O715 C741 1.269 . S
O716 Co708 2.074 . S
O716 C741 1.257 . S
H717 C742 0.930 . S
H718 C748 0.930 . S
O719 Co708 2.093 . S
O719 C711 1.224 . S
H720 C752 0.929 . S
H721 C754 0.930 . S
H722 C755 0.930 . S
H723 C753 0.929 . S
H724 C756 0.928 . S
O725 Co709 2.057 . S
O725 C713 1.232 . S
H726 C745 0.929 . S
H727 C746 0.929 . S
H728 C758 0.931 . S
H729 C750 0.929 . S
H730 C759 0.930 . S
H731 C751 0.931 . S
O732 Co708 2.097 . S
O732 C760 1.214 . S
H733 C761 0.929 . S
H734 C762 0.929 . S
H735 C763 0.930 . S
H736 C764 0.929 . S
H737 C766 0.930 . S
H738 C743 0.930 . S
H739 C747 0.930 . S
O740 Co709 2.037 . S
O740 C760 1.234 . S
C741 O715 1.269 . S
C741 O716 1.257 . S
C742 H717 0.930 . S
C742 C745 1.388 . S
C742 C747 1.418 . S
C743 H738 0.930 . S
C743 C746 1.404 . S
C743 C747 1.353 . S
N744 Co709 2.145 . S
N744 C745 1.397 . S
N744 C746 1.334 . S
C745 H726 0.929 . S
C745 C742 1.388 . S
C745 N744 1.397 . S
C746 H727 0.929 . S
C746 C743 1.404 . S
C746 N744 1.334 . S
C747 H739 0.930 . S
C747 C742 1.418 . S
C747 C743 1.353 . S
C748 H718 0.930 . S
C748 N749 1.330 . S
C748 C750 1.446 . S
N749 Co708 2.151 . S
N749 C748 1.330 . S
N749 C753 1.418 . S
C750 H729 0.929 . S
C750 C748 1.446 . S
C750 C751 1.332 . S
C751 H731 0.931 . S
C751 C750 1.332 . S
C751 C752 1.267 . S
C752 H720 0.929 . S
C752 C751 1.267 . S
C752 C753 1.251 . S
C753 H723 0.929 . S
C753 N749 1.418 . S
C753 C752 1.251 . S
C754 H721 0.930 . S
C754 C756 1.406 . S
C754 C759 1.261 . S
C755 H722 0.930 . S
C755 N757 1.325 . S
C755 C758 1.357 . S
C756 H724 0.928 . S
C756 C754 1.406 . S
C756 N757 1.261 . S
N757 Co708 2.214 . S
N757 C755 1.325 . S
N757 C756 1.261 . S
C758 H728 0.931 . S
C758 C755 1.357 . S
C758 C759 1.312 . S
C759 H730 0.930 . S
C759 C754 1.261 . S
C759 C758 1.312 . S
C760 O732 1.214 . S
C760 O740 1.234 . S
C761 H733 0.929 . S
C761 C764 1.391 . S
C761 C766 1.391 . S
C762 H734 0.929 . S
C762 C763 1.390 . S
C762 N765 1.391 . S
C763 H735 0.930 . S
C763 C762 1.390 . S
C763 C764 1.392 . S
C764 H736 0.929 . S
C764 C761 1.391 . S
C764 C763 1.392 . S
N765 Co709 2.257 . S
N765 C762 1.391 . S
N765 C766 1.388 . S
C766 H737 0.930 . S
C766 C761 1.391 . S
C766 N765 1.388 . S
Co767 O769 2.143 . S
Co767 O775 2.074 . S
Co767 O778 2.093 . S
Co767 O791 2.097 . S
Co767 N808 2.151 . S
Co767 N816 2.214 . S
Co768 O769 2.160 . S
Co768 O774 2.058 . S
Co768 O784 2.057 . S
Co768 O799 2.037 . S
Co768 N803 2.145 . S
Co768 N824 2.257 . S
O769 Co767 2.143 . S
O769 Co768 2.160 . S
C770 O771 1.278 . S
C770 O778 1.224 . S
O771 C770 1.278 . S
C772 O773 1.245 . S
C772 O784 1.232 . S
O773 C772 1.245 . S
O774 Co768 2.058 . S
O774 C800 1.269 . S
O775 Co767 2.074 . S
O775 C800 1.257 . S
H776 C801 0.930 . S
H777 C807 0.930 . S
O778 Co767 2.093 . S
O778 C770 1.224 . S
H779 C811 0.929 . S
H780 C813 0.930 . S
H781 C814 0.930 . S
H782 C812 0.929 . S
H783 C815 0.928 . S
O784 Co768 2.057 . S
O784 C772 1.232 . S
H785 C804 0.929 . S
H786 C805 0.929 . S
H787 C817 0.931 . S
H788 C809 0.929 . S
H789 C818 0.930 . S
H790 C810 0.931 . S
O791 Co767 2.097 . S
O791 C819 1.214 . S
H792 C820 0.929 . S
H793 C821 0.929 . S
H794 C822 0.930 . S
H795 C823 0.929 . S
H796 C825 0.930 . S
H797 C802 0.930 . S
H798 C806 0.930 . S
O799 Co768 2.037 . S
O799 C819 1.234 . S
C800 O774 1.269 . S
C800 O775 1.257 . S
C801 H776 0.930 . S
C801 C804 1.388 . S
C801 C806 1.418 . S
C802 H797 0.930 . S
C802 C805 1.404 . S
C802 C806 1.353 . S
N803 Co768 2.145 . S
N803 C804 1.397 . S
N803 C805 1.334 . S
C804 H785 0.929 . S
C804 C801 1.388 . S
C804 N803 1.397 . S
C805 H786 0.929 . S
C805 C802 1.404 . S
C805 N803 1.334 . S
C806 H798 0.930 . S
C806 C801 1.418 . S
C806 C802 1.353 . S
C807 H777 0.930 . S
C807 N808 1.330 . S
C807 C809 1.446 . S
N808 Co767 2.151 . S
N808 C807 1.330 . S
N808 C812 1.418 . S
C809 H788 0.929 . S
C809 C807 1.446 . S
C809 C810 1.332 . S
C810 H790 0.931 . S
C810 C809 1.332 . S
C810 C811 1.267 . S
C811 H779 0.929 . S
C811 C810 1.267 . S
C811 C812 1.251 . S
C812 H782 0.929 . S
C812 N808 1.418 . S
C812 C811 1.251 . S
C813 H780 0.930 . S
C813 C815 1.406 . S
C813 C818 1.261 . S
C814 H781 0.930 . S
C814 N816 1.325 . S
C814 C817 1.357 . S
C815 H783 0.928 . S
C815 C813 1.406 . S
C815 N816 1.261 . S
N816 Co767 2.214 . S
N816 C814 1.325 . S
N816 C815 1.261 . S
C817 H787 0.931 . S
C817 C814 1.357 . S
C817 C818 1.312 . S
C818 H789 0.930 . S
C818 C813 1.261 . S
C818 C817 1.312 . S
C819 O791 1.214 . S
C819 O799 1.234 . S
C820 H792 0.929 . S
C820 C823 1.391 . S
C820 C825 1.391 . S
C821 H793 0.929 . S
C821 C822 1.390 . S
C821 N824 1.391 . S
C822 H794 0.930 . S
C822 C821 1.390 . S
C822 C823 1.392 . S
C823 H795 0.929 . S
C823 C820 1.391 . S
C823 C822 1.392 . S
N824 Co768 2.257 . S
N824 C821 1.391 . S
N824 C825 1.388 . S
C825 H796 0.930 . S
C825 C820 1.391 . S
C825 N824 1.388 . S
Co826 O828 2.143 . S
Co826 O834 2.074 . S
Co826 O837 2.093 . S
Co826 O850 2.097 . S
Co826 N867 2.151 . S
Co826 N875 2.214 . S
Co827 O828 2.160 . S
Co827 O833 2.058 . S
Co827 O843 2.057 . S
Co827 O858 2.037 . S
Co827 N862 2.145 . S
Co827 N883 2.257 . S
O828 Co826 2.143 . S
O828 Co827 2.160 . S
C829 O830 1.278 . S
C829 O837 1.224 . S
O830 C829 1.278 . S
C831 O832 1.245 . S
C831 O843 1.232 . S
O832 C831 1.245 . S
O833 Co827 2.058 . S
O833 C859 1.269 . S
O834 Co826 2.074 . S
O834 C859 1.257 . S
H835 C860 0.930 . S
H836 C866 0.930 . S
O837 Co826 2.093 . S
O837 C829 1.224 . S
H838 C870 0.929 . S
H839 C872 0.930 . S
H840 C873 0.930 . S
H841 C871 0.929 . S
H842 C874 0.928 . S
O843 Co827 2.057 . S
O843 C831 1.232 . S
H844 C863 0.929 . S
H845 C864 0.929 . S
H846 C876 0.931 . S
H847 C868 0.929 . S
H848 C877 0.930 . S
H849 C869 0.931 . S
O850 Co826 2.097 . S
O850 C878 1.214 . S
H851 C879 0.929 . S
H852 C880 0.929 . S
H853 C881 0.930 . S
H854 C882 0.929 . S
H855 C884 0.930 . S
H856 C861 0.930 . S
H857 C865 0.930 . S
O858 Co827 2.037 . S
O858 C878 1.234 . S
C859 O833 1.269 . S
C859 O834 1.257 . S
C860 H835 0.930 . S
C860 C863 1.388 . S
C860 C865 1.418 . S
C861 H856 0.930 . S
C861 C864 1.404 . S
C861 C865 1.353 . S
N862 Co827 2.145 . S
N862 C863 1.397 . S
N862 C864 1.334 . S
C863 H844 0.929 . S
C863 C860 1.388 . S
C863 N862 1.397 . S
C864 H845 0.929 . S
C864 C861 1.404 . S
C864 N862 1.334 . S
C865 H857 0.930 . S
C865 C860 1.418 . S
C865 C861 1.353 . S
C866 H836 0.930 . S
C866 N867 1.330 . S
C866 C868 1.446 . S
N867 Co826 2.151 . S
N867 C866 1.330 . S
N867 C871 1.418 . S
C868 H847 0.929 . S
C868 C866 1.446 . S
C868 C869 1.332 . S
C869 H849 0.931 . S
C869 C868 1.332 . S
C869 C870 1.267 . S
C870 H838 0.929 . S
C870 C869 1.267 . S
C870 C871 1.251 . S
C871 H841 0.929 . S
C871 N867 1.418 . S
C871 C870 1.251 . S
C872 H839 0.930 . S
C872 C874 1.406 . S
C872 C877 1.261 . S
C873 H840 0.930 . S
C873 N875 1.325 . S
C873 C876 1.357 . S
C874 H842 0.928 . S
C874 C872 1.406 . S
C874 N875 1.261 . S
N875 Co826 2.214 . S
N875 C873 1.325 . S
N875 C874 1.261 . S
C876 H846 0.931 . S
C876 C873 1.357 . S
C876 C877 1.312 . S
C877 H848 0.930 . S
C877 C872 1.261 . S
C877 C876 1.312 . S
C878 O850 1.214 . S
C878 O858 1.234 . S
C879 H851 0.929 . S
C879 C882 1.391 . S
C879 C884 1.391 . S
C880 H852 0.929 . S
C880 C881 1.390 . S
C880 N883 1.391 . S
C881 H853 0.930 . S
C881 C880 1.390 . S
C881 C882 1.392 . S
C882 H854 0.929 . S
C882 C879 1.391 . S
C882 C881 1.392 . S
N883 Co827 2.257 . S
N883 C880 1.391 . S
N883 C884 1.388 . S
C884 H855 0.930 . S
C884 C879 1.391 . S
C884 N883 1.388 . S
Co885 O887 2.143 . S
Co885 O893 2.074 . S
Co885 O896 2.093 . S
Co885 O909 2.097 . S
Co885 N926 2.151 . S
Co885 N934 2.214 . S
Co886 O887 2.160 . S
Co886 O892 2.058 . S
Co886 O902 2.057 . S
Co886 O917 2.037 . S
Co886 N921 2.145 . S
Co886 N942 2.257 . S
O887 Co885 2.143 . S
O887 Co886 2.160 . S
C888 O889 1.278 . S
C888 O896 1.224 . S
O889 C888 1.278 . S
C890 O891 1.245 . S
C890 O902 1.232 . S
O891 C890 1.245 . S
O892 Co886 2.058 . S
O892 C918 1.269 . S
O893 Co885 2.074 . S
O893 C918 1.257 . S
H894 C919 0.930 . S
H895 C925 0.930 . S
O896 Co885 2.093 . S
O896 C888 1.224 . S
H897 C929 0.929 . S
H898 C931 0.930 . S
H899 C932 0.930 . S
H900 C930 0.929 . S
H901 C933 0.928 . S
O902 Co886 2.057 . S
O902 C890 1.232 . S
H903 C922 0.929 . S
H904 C923 0.929 . S
H905 C935 0.931 . S
H906 C927 0.929 . S
H907 C936 0.930 . S
H908 C928 0.931 . S
O909 Co885 2.097 . S
O909 C937 1.214 . S
H910 C938 0.929 . S
H911 C939 0.929 . S
H912 C940 0.930 . S
H913 C941 0.929 . S
H914 C943 0.930 . S
H915 C920 0.930 . S
H916 C924 0.930 . S
O917 Co886 2.037 . S
O917 C937 1.234 . S
C918 O892 1.269 . S
C918 O893 1.257 . S
C919 H894 0.930 . S
C919 C922 1.388 . S
C919 C924 1.418 . S
C920 H915 0.930 . S
C920 C923 1.404 . S
C920 C924 1.353 . S
N921 Co886 2.145 . S
N921 C922 1.397 . S
N921 C923 1.334 . S
C922 H903 0.929 . S
C922 C919 1.388 . S
C922 N921 1.397 . S
C923 H904 0.929 . S
C923 C920 1.404 . S
C923 N921 1.334 . S
C924 H916 0.930 . S
C924 C919 1.418 . S
C924 C920 1.353 . S
C925 H895 0.930 . S
C925 N926 1.330 . S
C925 C927 1.446 . S
N926 Co885 2.151 . S
N926 C925 1.330 . S
N926 C930 1.418 . S
C927 H906 0.929 . S
C927 C925 1.446 . S
C927 C928 1.332 . S
C928 H908 0.931 . S
C928 C927 1.332 . S
C928 C929 1.267 . S
C929 H897 0.929 . S
C929 C928 1.267 . S
C929 C930 1.251 . S
C930 H900 0.929 . S
C930 N926 1.418 . S
C930 C929 1.251 . S
C931 H898 0.930 . S
C931 C933 1.406 . S
C931 C936 1.261 . S
C932 H899 0.930 . S
C932 N934 1.325 . S
C932 C935 1.357 . S
C933 H901 0.928 . S
C933 C931 1.406 . S
C933 N934 1.261 . S
N934 Co885 2.214 . S
N934 C932 1.325 . S
N934 C933 1.261 . S
C935 H905 0.931 . S
C935 C932 1.357 . S
C935 C936 1.312 . S
C936 H907 0.930 . S
C936 C931 1.261 . S
C936 C935 1.312 . S
C937 O909 1.214 . S
C937 O917 1.234 . S
C938 H910 0.929 . S
C938 C941 1.391 . S
C938 C943 1.391 . S
C939 H911 0.929 . S
C939 C940 1.390 . S
C939 N942 1.391 . S
C940 H912 0.930 . S
C940 C939 1.390 . S
C940 C941 1.392 . S
C941 H913 0.929 . S
C941 C938 1.391 . S
C941 C940 1.392 . S
N942 Co886 2.257 . S
N942 C939 1.391 . S
N942 C943 1.388 . S
C943 H914 0.930 . S
C943 C938 1.391 . S
C943 N942 1.388 . S
H944 C956 0.930 . S
H945 C958 0.930 . S
H946 C959 0.930 . S
H947 C963 0.959 . S
H948 C963 0.959 . S
H949 C963 0.961 . S
H950 C964 0.960 . S
H951 C964 0.961 . S
H952 C964 0.959 . S
H953 C967 0.929 . S
H954 C968 0.931 . S
H955 C970 0.930 . S
C956 H944 0.930 . S
C956 C957 1.399 . S
C956 C961 1.399 . S
C957 C956 1.399 . S
C957 C958 1.376 . S
C958 H945 0.930 . S
C958 C957 1.376 . S
C958 C959 1.388 . S
C959 H946 0.930 . S
C959 C958 1.388 . S
C959 C960 1.390 . S
C960 C959 1.390 . S
C960 C961 1.394 . S
C960 C966 1.465 . S
C961 C956 1.399 . S
C961 C960 1.394 . S
C961 C962 1.516 . S
C962 C961 1.516 . S
C962 C963 1.502 . S
C962 C964 1.561 . S
C962 C965 1.526 . S
C963 H947 0.959 . S
C963 H948 0.959 . S
C963 H949 0.961 . S
C963 C962 1.502 . S
C964 H950 0.960 . S
C964 H951 0.961 . S
C964 H952 0.959 . S
C964 C962 1.561 . S
C965 C962 1.526 . S
C965 C966 1.396 . S
C965 C970 1.390 . S
C966 C960 1.465 . S
C966 C965 1.396 . S
C966 C967 1.399 . S
C967 H953 0.929 . S
C967 C966 1.399 . S
C967 C968 1.385 . S
C968 H954 0.931 . S
C968 C967 1.385 . S
C968 C969 1.389 . S
C969 C968 1.389 . S
C969 C970 1.387 . S
C970 H955 0.930 . S
C970 C965 1.390 . S
C970 C969 1.387 . S
H971 C983 0.930 . S
H972 C985 0.930 . S
H973 C986 0.930 . S
H974 C990 0.959 . S
H975 C990 0.959 . S
H976 C990 0.961 . S
H977 C991 0.960 . S
H978 C991 0.961 . S
H979 C991 0.959 . S
H980 C994 0.929 . S
H981 C995 0.931 . S
H982 C997 0.930 . S
C983 H971 0.930 . S
C983 C984 1.399 . S
C983 C988 1.399 . S
C984 C983 1.399 . S
C984 C985 1.376 . S
C985 H972 0.930 . S
C985 C984 1.376 . S
C985 C986 1.388 . S
C986 H973 0.930 . S
C986 C985 1.388 . S
C986 C987 1.390 . S
C987 C986 1.390 . S
C987 C988 1.394 . S
C987 C993 1.465 . S
C988 C983 1.399 . S
C988 C987 1.394 . S
C988 C989 1.516 . S
C989 C988 1.516 . S
C989 C990 1.502 . S
C989 C991 1.561 . S
C989 C992 1.526 . S
C990 H974 0.959 . S
C990 H975 0.959 . S
C990 H976 0.961 . S
C990 C989 1.502 . S
C991 H977 0.960 . S
C991 H978 0.961 . S
C991 H979 0.959 . S
C991 C989 1.561 . S
C992 C989 1.526 . S
C992 C993 1.396 . S
C992 C997 1.390 . S
C993 C987 1.465 . S
C993 C992 1.396 . S
C993 C994 1.399 . S
C994 H980 0.929 . S
C994 C993 1.399 . S
C994 C995 1.385 . S
C995 H981 0.931 . S
C995 C994 1.385 . S
C995 C996 1.389 . S
C996 C995 1.389 . S
C996 C997 1.387 . S
C997 H982 0.930 . S
C997 C992 1.390 . S
C997 C996 1.387 . S
H998 C1010 0.930 . S
H999 C1012 0.930 . S
H1000 C1013 0.930 . S
H1001 C1017 0.959 . S
H1002 C1017 0.959 . S
H1003 C1017 0.961 . S
H1004 C1018 0.960 . S
H1005 C1018 0.961 . S
H1006 C1018 0.959 . S
H1007 C1021 0.929 . S
H1008 C1022 0.931 . S
H1009 C1024 0.930 . S
C1010 H998 0.930 . S
C1010 C1011 1.399 . S
C1010 C1015 1.399 . S
C1011 C1010 1.399 . S
C1011 C1012 1.376 . S
C1012 H999 0.930 . S
C1012 C1011 1.376 . S
C1012 C1013 1.388 . S
C1013 H1000 0.930 . S
C1013 C1012 1.388 . S
C1013 C1014 1.390 . S
C1014 C1013 1.390 . S
C1014 C1015 1.394 . S
C1014 C1020 1.465 . S
C1015 C1010 1.399 . S
C1015 C1014 1.394 . S
C1015 C1016 1.516 . S
C1016 C1015 1.516 . S
C1016 C1017 1.502 . S
C1016 C1018 1.561 . S
C1016 C1019 1.526 . S
C1017 H1001 0.959 . S
C1017 H1002 0.959 . S
C1017 H1003 0.961 . S
C1017 C1016 1.502 . S
C1018 H1004 0.960 . S
C1018 H1005 0.961 . S
C1018 H1006 0.959 . S
C1018 C1016 1.561 . S
C1019 C1016 1.526 . S
C1019 C1020 1.396 . S
C1019 C1024 1.390 . S
C1020 C1014 1.465 . S
C1020 C1019 1.396 . S
C1020 C1021 1.399 . S
C1021 H1007 0.929 . S
C1021 C1020 1.399 . S
C1021 C1022 1.385 . S
C1022 H1008 0.931 . S
C1022 C1021 1.385 . S
C1022 C1023 1.389 . S
C1023 C1022 1.389 . S
C1023 C1024 1.387 . S
C1024 H1009 0.930 . S
C1024 C1019 1.390 . S
C1024 C1023 1.387 . S
H1025 C1037 0.930 . S
H1026 C1039 0.930 . S
H1027 C1040 0.930 . S
H1028 C1044 0.959 . S
H1029 C1044 0.959 . S
H1030 C1044 0.961 . S
H1031 C1045 0.960 . S
H1032 C1045 0.961 . S
H1033 C1045 0.959 . S
H1034 C1048 0.929 . S
H1035 C1049 0.931 . S
H1036 C1051 0.930 . S
C1037 H1025 0.930 . S
C1037 C1038 1.399 . S
C1037 C1042 1.399 . S
C1038 C1037 1.399 . S
C1038 C1039 1.376 . S
C1039 H1026 0.930 . S
C1039 C1038 1.376 . S
C1039 C1040 1.388 . S
C1040 H1027 0.930 . S
C1040 C1039 1.388 . S
C1040 C1041 1.390 . S
C1041 C1040 1.390 . S
C1041 C1042 1.394 . S
C1041 C1047 1.465 . S
C1042 C1037 1.399 . S
C1042 C1041 1.394 . S
C1042 C1043 1.516 . S
C1043 C1042 1.516 . S
C1043 C1044 1.502 . S
C1043 C1045 1.561 . S
C1043 C1046 1.526 . S
C1044 H1028 0.959 . S
C1044 H1029 0.959 . S
C1044 H1030 0.961 . S
C1044 C1043 1.502 . S
C1045 H1031 0.960 . S
C1045 H1032 0.961 . S
C1045 H1033 0.959 . S
C1045 C1043 1.561 . S
C1046 C1043 1.526 . S
C1046 C1047 1.396 . S
C1046 C1051 1.390 . S
C1047 C1041 1.465 . S
C1047 C1046 1.396 . S
C1047 C1048 1.399 . S
C1048 H1034 0.929 . S
C1048 C1047 1.399 . S
C1048 C1049 1.385 . S
C1049 H1035 0.931 . S
C1049 C1048 1.385 . S
C1049 C1050 1.389 . S
C1050 C1049 1.389 . S
C1050 C1051 1.387 . S
C1051 H1036 0.930 . S
C1051 C1046 1.390 . S
C1051 C1050 1.387 . S
H1052 C1064 0.930 . S
H1053 C1066 0.930 . S
H1054 C1067 0.930 . S
H1055 C1071 0.959 . S
H1056 C1071 0.959 . S
H1057 C1071 0.961 . S
H1058 C1072 0.960 . S
H1059 C1072 0.961 . S
H1060 C1072 0.959 . S
H1061 C1075 0.929 . S
H1062 C1076 0.931 . S
H1063 C1078 0.930 . S
C1064 H1052 0.930 . S
C1064 C1065 1.399 . S
C1064 C1069 1.399 . S
C1065 C1064 1.399 . S
C1065 C1066 1.376 . S
C1066 H1053 0.930 . S
C1066 C1065 1.376 . S
C1066 C1067 1.388 . S
C1067 H1054 0.930 . S
C1067 C1066 1.388 . S
C1067 C1068 1.390 . S
C1068 C1067 1.390 . S
C1068 C1069 1.394 . S
C1068 C1074 1.465 . S
C1069 C1064 1.399 . S
C1069 C1068 1.394 . S
C1069 C1070 1.516 . S
C1070 C1069 1.516 . S
C1070 C1071 1.502 . S
C1070 C1072 1.561 . S
C1070 C1073 1.526 . S
C1071 H1055 0.959 . S
C1071 H1056 0.959 . S
C1071 H1057 0.961 . S
C1071 C1070 1.502 . S
C1072 H1058 0.960 . S
C1072 H1059 0.961 . S
C1072 H1060 0.959 . S
C1072 C1070 1.561 . S
C1073 C1070 1.526 . S
C1073 C1074 1.396 . S
C1073 C1078 1.390 . S
C1074 C1068 1.465 . S
C1074 C1073 1.396 . S
C1074 C1075 1.399 . S
C1075 H1061 0.929 . S
C1075 C1074 1.399 . S
C1075 C1076 1.385 . S
C1076 H1062 0.931 . S
C1076 C1075 1.385 . S
C1076 C1077 1.389 . S
C1077 C1076 1.389 . S
C1077 C1078 1.387 . S
C1078 H1063 0.930 . S
C1078 C1073 1.390 . S
C1078 C1077 1.387 . S
H1079 C1091 0.930 . S
H1080 C1093 0.930 . S
H1081 C1094 0.930 . S
H1082 C1098 0.959 . S
H1083 C1098 0.959 . S
H1084 C1098 0.961 . S
H1085 C1099 0.960 . S
H1086 C1099 0.961 . S
H1087 C1099 0.959 . S
H1088 C1102 0.929 . S
H1089 C1103 0.931 . S
H1090 C1105 0.930 . S
C1091 H1079 0.930 . S
C1091 C1092 1.399 . S
C1091 C1096 1.399 . S
C1092 C1091 1.399 . S
C1092 C1093 1.376 . S
C1093 H1080 0.930 . S
C1093 C1092 1.376 . S
C1093 C1094 1.388 . S
C1094 H1081 0.930 . S
C1094 C1093 1.388 . S
C1094 C1095 1.390 . S
C1095 C1094 1.390 . S
C1095 C1096 1.394 . S
C1095 C1101 1.465 . S
C1096 C1091 1.399 . S
C1096 C1095 1.394 . S
C1096 C1097 1.516 . S
C1097 C1096 1.516 . S
C1097 C1098 1.502 . S
C1097 C1099 1.561 . S
C1097 C1100 1.526 . S
C1098 H1082 0.959 . S
C1098 H1083 0.959 . S
C1098 H1084 0.961 . S
C1098 C1097 1.502 . S
C1099 H1085 0.960 . S
C1099 H1086 0.961 . S
C1099 H1087 0.959 . S
C1099 C1097 1.561 . S
C1100 C1097 1.526 . S
C1100 C1101 1.396 . S
C1100 C1105 1.390 . S
C1101 C1095 1.465 . S
C1101 C1100 1.396 . S
C1101 C1102 1.399 . S
C1102 H1088 0.929 . S
C1102 C1101 1.399 . S
C1102 C1103 1.385 . S
C1103 H1089 0.931 . S
C1103 C1102 1.385 . S
C1103 C1104 1.389 . S
C1104 C1103 1.389 . S
C1104 C1105 1.387 . S
C1105 H1090 0.930 . S
C1105 C1100 1.390 . S
C1105 C1104 1.387 . S
H1106 C1118 0.930 . S
H1107 C1120 0.930 . S
H1108 C1121 0.930 . S
H1109 C1125 0.959 . S
H1110 C1125 0.959 . S
H1111 C1125 0.961 . S
H1112 C1126 0.960 . S
H1113 C1126 0.961 . S
H1114 C1126 0.959 . S
H1115 C1129 0.929 . S
H1116 C1130 0.931 . S
H1117 C1132 0.930 . S
C1118 H1106 0.930 . S
C1118 C1119 1.399 . S
C1118 C1123 1.399 . S
C1119 C1118 1.399 . S
C1119 C1120 1.376 . S
C1120 H1107 0.930 . S
C1120 C1119 1.376 . S
C1120 C1121 1.388 . S
C1121 H1108 0.930 . S
C1121 C1120 1.388 . S
C1121 C1122 1.390 . S
C1122 C1121 1.390 . S
C1122 C1123 1.394 . S
C1122 C1128 1.465 . S
C1123 C1118 1.399 . S
C1123 C1122 1.394 . S
C1123 C1124 1.516 . S
C1124 C1123 1.516 . S
C1124 C1125 1.502 . S
C1124 C1126 1.561 . S
C1124 C1127 1.526 . S
C1125 H1109 0.959 . S
C1125 H1110 0.959 . S
C1125 H1111 0.961 . S
C1125 C1124 1.502 . S
C1126 H1112 0.960 . S
C1126 H1113 0.961 . S
C1126 H1114 0.959 . S
C1126 C1124 1.561 . S
C1127 C1124 1.526 . S
C1127 C1128 1.396 . S
C1127 C1132 1.390 . S
C1128 C1122 1.465 . S
C1128 C1127 1.396 . S
C1128 C1129 1.399 . S
C1129 H1115 0.929 . S
C1129 C1128 1.399 . S
C1129 C1130 1.385 . S
C1130 H1116 0.931 . S
C1130 C1129 1.385 . S
C1130 C1131 1.389 . S
C1131 C1130 1.389 . S
C1131 C1132 1.387 . S
C1132 H1117 0.930 . S
C1132 C1127 1.390 . S
C1132 C1131 1.387 . S
H1133 C1145 0.930 . S
H1134 C1147 0.930 . S
H1135 C1148 0.930 . S
H1136 C1152 0.959 . S
H1137 C1152 0.959 . S
H1138 C1152 0.961 . S
H1139 C1153 0.960 . S
H1140 C1153 0.961 . S
H1141 C1153 0.959 . S
H1142 C1156 0.929 . S
H1143 C1157 0.931 . S
H1144 C1159 0.930 . S
C1145 H1133 0.930 . S
C1145 C1146 1.399 . S
C1145 C1150 1.399 . S
C1146 C1145 1.399 . S
C1146 C1147 1.376 . S
C1147 H1134 0.930 . S
C1147 C1146 1.376 . S
C1147 C1148 1.388 . S
C1148 H1135 0.930 . S
C1148 C1147 1.388 . S
C1148 C1149 1.390 . S
C1149 C1148 1.390 . S
C1149 C1150 1.394 . S
C1149 C1155 1.465 . S
C1150 C1145 1.399 . S
C1150 C1149 1.394 . S
C1150 C1151 1.516 . S
C1151 C1150 1.516 . S
C1151 C1152 1.502 . S
C1151 C1153 1.561 . S
C1151 C1154 1.526 . S
C1152 H1136 0.959 . S
C1152 H1137 0.959 . S
C1152 H1138 0.961 . S
C1152 C1151 1.502 . S
C1153 H1139 0.960 . S
C1153 H1140 0.961 . S
C1153 H1141 0.959 . S
C1153 C1151 1.561 . S
C1154 C1151 1.526 . S
C1154 C1155 1.396 . S
C1154 C1159 1.390 . S
C1155 C1149 1.465 . S
C1155 C1154 1.396 . S
C1155 C1156 1.399 . S
C1156 H1142 0.929 . S
C1156 C1155 1.399 . S
C1156 C1157 1.385 . S
C1157 H1143 0.931 . S
C1157 C1156 1.385 . S
C1157 C1158 1.389 . S
C1158 C1157 1.389 . S
C1158 C1159 1.387 . S
C1159 H1144 0.930 . S
C1159 C1154 1.390 . S
C1159 C1158 1.387 . S
H1160 C1172 0.930 . S
H1161 C1174 0.930 . S
H1162 C1175 0.930 . S
H1163 C1179 0.959 . S
H1164 C1179 0.959 . S
H1165 C1179 0.961 . S
H1166 C1180 0.960 . S
H1167 C1180 0.961 . S
H1168 C1180 0.959 . S
H1169 C1183 0.929 . S
H1170 C1184 0.931 . S
H1171 C1186 0.930 . S
C1172 H1160 0.930 . S
C1172 C1173 1.399 . S
C1172 C1177 1.399 . S
C1173 C1172 1.399 . S
C1173 C1174 1.376 . S
C1174 H1161 0.930 . S
C1174 C1173 1.376 . S
C1174 C1175 1.388 . S
C1175 H1162 0.930 . S
C1175 C1174 1.388 . S
C1175 C1176 1.390 . S
C1176 C1175 1.390 . S
C1176 C1177 1.394 . S
C1176 C1182 1.465 . S
C1177 C1172 1.399 . S
C1177 C1176 1.394 . S
C1177 C1178 1.516 . S
C1178 C1177 1.516 . S
C1178 C1179 1.502 . S
C1178 C1180 1.561 . S
C1178 C1181 1.534 . S
C1179 H1163 0.959 . S
C1179 H1164 0.959 . S
C1179 H1165 0.961 . S
C1179 C1178 1.502 . S
C1180 H1166 0.960 . S
C1180 H1167 0.961 . S
C1180 H1168 0.959 . S
C1180 C1178 1.561 . S
C1181 C1178 1.534 . S
C1181 C1182 1.398 . S
C1181 C1186 1.381 1_556 S
C1182 C1176 1.465 . S
C1182 C1181 1.398 . S
C1182 C1183 1.399 1_556 S
C1183 H1169 0.929 . S
C1183 C1182 1.399 1_554 S
C1183 C1184 1.385 . S
C1184 H1170 0.931 . S
C1184 C1183 1.385 . S
C1184 C1185 1.389 . S
C1185 C1184 1.389 . S
C1185 C1186 1.387 . S
C1186 H1171 0.930 . S
C1186 C1181 1.381 1_554 S
C1186 C1185 1.387 . S
H1187 C1199 0.930 . S
H1188 C1201 0.930 . S
H1189 C1202 0.930 1_554 S
H1190 C1206 0.959 . S
H1191 C1206 0.959 . S
H1192 C1206 0.961 1_556 S
H1193 C1207 0.960 1_556 S
H1194 C1207 0.961 . S
H1195 C1207 0.959 . S
H1196 C1210 0.929 . S
H1197 C1211 0.931 . S
H1198 C1213 0.930 . S
C1199 H1187 0.930 . S
C1199 C1200 1.399 . S
C1199 C1204 1.399 . S
C1200 C1199 1.399 . S
C1200 C1201 1.376 . S
C1201 H1188 0.930 . S
C1201 C1200 1.376 . S
C1201 C1202 1.388 . S
C1202 H1189 0.930 1_556 S
C1202 C1201 1.388 . S
C1202 C1203 1.390 1_556 S
C1203 C1202 1.390 1_554 S
C1203 C1204 1.394 1_554 S
C1203 C1209 1.465 . S
C1204 C1199 1.399 . S
C1204 C1203 1.394 1_556 S
C1204 C1205 1.516 1_556 S
C1205 C1204 1.516 1_554 S
C1205 C1206 1.502 . S
C1205 C1207 1.561 . S
C1205 C1208 1.526 . S
C1206 H1190 0.959 . S
C1206 H1191 0.959 . S
C1206 H1192 0.961 1_554 S
C1206 C1205 1.502 . S
C1207 H1193 0.960 1_554 S
C1207 H1194 0.961 . S
C1207 H1195 0.959 . S
C1207 C1205 1.561 . S
C1208 C1205 1.526 . S
C1208 C1209 1.396 . S
C1208 C1213 1.390 . S
C1209 C1203 1.465 . S
C1209 C1208 1.396 . S
C1209 C1210 1.399 . S
C1210 H1196 0.929 . S
C1210 C1209 1.399 . S
C1210 C1211 1.385 . S
C1211 H1197 0.931 . S
C1211 C1210 1.385 . S
C1211 C1212 1.389 . S
C1212 C1211 1.389 . S
C1212 C1213 1.387 . S
C1213 H1198 0.930 . S
C1213 C1208 1.390 . S
C1213 C1212 1.387 . S
H1214 C1226 0.930 . S
H1215 C1228 0.930 . S
H1216 C1229 0.930 1_554 S
H1217 C1233 0.959 . S
H1218 C1233 0.959 . S
H1219 C1233 0.961 1_556 S
H1220 C1234 0.960 1_556 S
H1221 C1234 0.961 . S
H1222 C1234 0.959 . S
H1223 C1237 0.929 . S
H1224 C1238 0.931 . S
H1225 C1240 0.930 . S
C1226 H1214 0.930 . S
C1226 C1227 1.399 . S
C1226 C1231 1.399 . S
C1227 C1226 1.399 . S
C1227 C1228 1.376 . S
C1228 H1215 0.930 . S
C1228 C1227 1.376 . S
C1228 C1229 1.388 . S
C1229 H1216 0.930 1_556 S
C1229 C1228 1.388 . S
C1229 C1230 1.390 1_556 S
C1230 C1229 1.390 1_554 S
C1230 C1231 1.394 1_554 S
C1230 C1236 1.465 . S
C1231 C1226 1.399 . S
C1231 C1230 1.394 1_556 S
C1231 C1232 1.516 1_556 S
C1232 C1231 1.516 1_554 S
C1232 C1233 1.502 . S
C1232 C1234 1.561 . S
C1232 C1235 1.526 . S
C1233 H1217 0.959 . S
C1233 H1218 0.959 . S
C1233 H1219 0.961 1_554 S
C1233 C1232 1.502 . S
C1234 H1220 0.960 1_554 S
C1234 H1221 0.961 . S
C1234 H1222 0.959 . S
C1234 C1232 1.561 . S
C1235 C1232 1.526 . S
C1235 C1236 1.396 . S
C1235 C1240 1.390 . S
C1236 C1230 1.465 . S
C1236 C1235 1.396 . S
C1236 C1237 1.399 . S
C1237 H1223 0.929 . S
C1237 C1236 1.399 . S
C1237 C1238 1.385 . S
C1238 H1224 0.931 . S
C1238 C1237 1.385 . S
C1238 C1239 1.389 . S
C1239 C1238 1.389 . S
C1239 C1240 1.387 . S
C1240 H1225 0.930 . S
C1240 C1235 1.390 . S
C1240 C1239 1.387 . S
H1241 C1253 0.930 . S
H1242 C1255 0.930 . S
H1243 C1256 0.930 . S
H1244 C1260 0.959 . S
H1245 C1260 0.959 . S
H1246 C1260 0.961 1_554 S
H1247 C1261 0.960 1_554 S
H1248 C1261 0.961 . S
H1249 C1261 0.959 . S
H1250 C1264 0.929 . S
H1251 C1265 0.931 . S
H1252 C1267 0.930 . S
C1253 H1241 0.930 . S
C1253 C1254 1.399 . S
C1253 C1258 1.399 . S
C1254 C1253 1.399 . S
C1254 C1255 1.376 . S
C1255 H1242 0.930 . S
C1255 C1254 1.376 . S
C1255 C1256 1.388 . S
C1256 H1243 0.930 . S
C1256 C1255 1.388 . S
C1256 C1257 1.390 . S
C1257 C1256 1.390 . S
C1257 C1258 1.394 . S
C1257 C1263 1.465 1_554 S
C1258 C1253 1.399 . S
C1258 C1257 1.394 . S
C1258 C1259 1.516 1_554 S
C1259 C1258 1.516 1_556 S
C1259 C1260 1.502 . S
C1259 C1261 1.561 . S
C1259 C1262 1.526 . S
C1260 H1244 0.959 . S
C1260 H1245 0.959 . S
C1260 H1246 0.961 1_556 S
C1260 C1259 1.502 . S
C1261 H1247 0.960 1_556 S
C1261 H1248 0.961 . S
C1261 H1249 0.959 . S
C1261 C1259 1.561 . S
C1262 C1259 1.526 . S
C1262 C1263 1.396 . S
C1262 C1267 1.390 . S
C1263 C1257 1.465 1_556 S
C1263 C1262 1.396 . S
C1263 C1264 1.399 . S
C1264 H1250 0.929 . S
C1264 C1263 1.399 . S
C1264 C1265 1.385 . S
C1265 H1251 0.931 . S
C1265 C1264 1.385 . S
C1265 C1266 1.389 . S
C1266 C1265 1.389 . S
C1266 C1267 1.387 . S
C1267 H1252 0.930 . S
C1267 C1262 1.390 . S
C1267 C1266 1.387 . S
H1268 C1280 0.930 . S
H1269 C1282 0.930 . S
H1270 C1283 0.930 . S
H1271 C1287 0.959 . S
H1272 C1287 0.959 . S
H1273 C1287 0.961 . S
H1274 C1288 0.960 1_455 S
H1275 C1288 0.961 . S
H1276 C1288 0.959 . S
H1277 C1291 0.929 . S
H1278 C1292 0.931 . S
H1279 C1294 0.930 . S
C1280 H1268 0.930 . S
C1280 C1281 1.399 . S
C1280 C1285 1.399 . S
C1281 C1280 1.399 . S
C1281 C1282 1.376 . S
C1282 H1269 0.930 . S
C1282 C1281 1.376 . S
C1282 C1283 1.388 . S
C1283 H1270 0.930 . S
C1283 C1282 1.388 . S
C1283 C1284 1.390 . S
C1284 C1283 1.390 . S
C1284 C1285 1.394 . S
C1284 C1290 1.465 1_455 S
C1285 C1280 1.399 . S
C1285 C1284 1.394 . S
C1285 C1286 1.516 . S
C1286 C1285 1.516 . S
C1286 C1287 1.502 . S
C1286 C1288 1.561 1_455 S
C1286 C1289 1.526 1_455 S
C1287 H1271 0.959 . S
C1287 H1272 0.959 . S
C1287 H1273 0.961 . S
C1287 C1286 1.502 . S
C1288 H1274 0.960 1_655 S
C1288 H1275 0.961 . S
C1288 H1276 0.959 . S
C1288 C1286 1.561 1_655 S
C1289 C1286 1.526 1_655 S
C1289 C1290 1.396 . S
C1289 C1294 1.390 . S
C1290 C1284 1.465 1_655 S
C1290 C1289 1.396 . S
C1290 C1291 1.399 . S
C1291 H1277 0.929 . S
C1291 C1290 1.399 . S
C1291 C1292 1.385 . S
C1292 H1278 0.931 . S
C1292 C1291 1.385 . S
C1292 C1293 1.389 . S
C1293 C1292 1.389 . S
C1293 C1294 1.387 . S
C1294 H1279 0.930 . S
C1294 C1289 1.390 . S
C1294 C1293 1.387 . S
H1295 C1307 0.930 . S
H1296 C1309 0.930 . S
H1297 C1310 0.930 . S
H1298 C1314 0.959 . S
H1299 C1314 0.959 . S
H1300 C1314 0.961 1_565 S
H1301 C1315 0.960 1_565 S
H1302 C1315 0.961 . S
H1303 C1315 0.959 . S
H1304 C1318 0.929 . S
H1305 C1319 0.931 . S
H1306 C1321 0.930 . S
C1307 H1295 0.930 . S
C1307 C1308 1.399 . S
C1307 C1312 1.399 1_565 S
C1308 C1307 1.399 . S
C1308 C1309 1.376 . S
C1309 H1296 0.930 . S
C1309 C1308 1.376 . S
C1309 C1310 1.388 1_565 S
C1310 H1297 0.930 . S
C1310 C1309 1.388 1_545 S
C1310 C1311 1.390 . S
C1311 C1310 1.390 . S
C1311 C1312 1.394 . S
C1311 C1317 1.465 . S
C1312 C1307 1.399 1_545 S
C1312 C1311 1.394 . S
C1312 C1313 1.516 . S
C1313 C1312 1.516 . S
C1313 C1314 1.502 . S
C1313 C1315 1.561 . S
C1313 C1316 1.526 . S
C1314 H1298 0.959 . S
C1314 H1299 0.959 . S
C1314 H1300 0.961 1_545 S
C1314 C1313 1.502 . S
C1315 H1301 0.960 1_545 S
C1315 H1302 0.961 . S
C1315 H1303 0.959 . S
C1315 C1313 1.561 . S
C1316 C1313 1.526 . S
C1316 C1317 1.396 . S
C1316 C1321 1.390 . S
C1317 C1311 1.465 . S
C1317 C1316 1.396 . S
C1317 C1318 1.399 . S
C1318 H1304 0.929 . S
C1318 C1317 1.399 . S
C1318 C1319 1.385 . S
C1319 H1305 0.931 . S
C1319 C1318 1.385 . S
C1319 C1320 1.389 . S
C1320 C1319 1.389 . S
C1320 C1321 1.387 . S
C1321 H1306 0.930 . S
C1321 C1316 1.390 . S
C1321 C1320 1.387 . S
H1322 C1334 0.930 . S
H1323 C1336 0.930 . S
H1324 C1337 0.930 . S
H1325 C1341 0.959 . S
H1326 C1341 0.959 . S
H1327 C1341 0.961 . S
H1328 C1342 0.960 . S
H1329 C1342 0.961 . S
H1330 C1342 0.959 . S
H1331 C1345 0.929 . S
H1332 C1346 0.931 . S
H1333 C1348 0.930 . S
C1334 H1322 0.930 . S
C1334 C1335 1.399 . S
C1334 C1339 1.399 . S
C1335 C1334 1.399 . S
C1335 C1336 1.376 . S
C1336 H1323 0.930 . S
C1336 C1335 1.376 . S
C1336 C1337 1.388 . S
C1337 H1324 0.930 . S
C1337 C1336 1.388 . S
C1337 C1338 1.390 . S
C1338 C1337 1.390 . S
C1338 C1339 1.394 . S
C1338 C1344 1.465 1_655 S
C1339 C1334 1.399 . S
C1339 C1338 1.394 . S
C1339 C1340 1.516 1_655 S
C1340 C1339 1.516 1_455 S
C1340 C1341 1.502 . S
C1340 C1342 1.561 . S
C1340 C1343 1.526 . S
C1341 H1325 0.959 . S
C1341 H1326 0.959 . S
C1341 H1327 0.961 . S
C1341 C1340 1.502 . S
C1342 H1328 0.960 . S
C1342 H1329 0.961 . S
C1342 H1330 0.959 . S
C1342 C1340 1.561 . S
C1343 C1340 1.526 . S
C1343 C1344 1.396 . S
C1343 C1348 1.390 . S
C1344 C1338 1.465 1_455 S
C1344 C1343 1.396 . S
C1344 C1345 1.399 . S
C1345 H1331 0.929 . S
C1345 C1344 1.399 . S
C1345 C1346 1.385 . S
C1346 H1332 0.931 . S
C1346 C1345 1.385 . S
C1346 C1347 1.389 . S
C1347 C1346 1.389 . S
C1347 C1348 1.387 . S
C1348 H1333 0.930 . S
C1348 C1343 1.390 . S
C1348 C1347 1.387 . S
H1349 C1361 0.930 . S
H1350 C1363 0.930 . S
H1351 C1364 0.930 1_565 S
H1352 C1368 0.959 . S
H1353 C1368 0.959 . S
H1354 C1368 0.961 1_545 S
H1355 C1369 0.960 1_545 S
H1356 C1369 0.961 . S
H1357 C1369 0.959 . S
H1358 C1372 0.929 . S
H1359 C1373 0.931 . S
H1360 C1375 0.930 . S
C1361 H1349 0.930 . S
C1361 C1362 1.399 . S
C1361 C1366 1.399 . S
C1362 C1361 1.399 . S
C1362 C1363 1.376 . S
C1363 H1350 0.930 . S
C1363 C1362 1.376 . S
C1363 C1364 1.388 . S
C1364 H1351 0.930 1_545 S
C1364 C1363 1.388 . S
C1364 C1365 1.390 1_545 S
C1365 C1364 1.390 1_565 S
C1365 C1366 1.394 1_565 S
C1365 C1371 1.465 . S
C1366 C1361 1.399 . S
C1366 C1365 1.394 1_545 S
C1366 C1367 1.516 1_545 S
C1367 C1366 1.516 1_565 S
C1367 C1368 1.502 . S
C1367 C1369 1.561 . S
C1367 C1370 1.526 . S
C1368 H1352 0.959 . S
C1368 H1353 0.959 . S
C1368 H1354 0.961 1_565 S
C1368 C1367 1.502 . S
C1369 H1355 0.960 1_565 S
C1369 H1356 0.961 . S
C1369 H1357 0.959 . S
C1369 C1367 1.561 . S
C1370 C1367 1.526 . S
C1370 C1371 1.396 . S
C1370 C1375 1.390 . S
C1371 C1365 1.465 . S
C1371 C1370 1.396 . S
C1371 C1372 1.399 . S
C1372 H1358 0.929 . S
C1372 C1371 1.399 . S
C1372 C1373 1.385 . S
C1373 H1359 0.931 . S
C1373 C1372 1.385 . S
C1373 C1374 1.389 . S
C1374 C1373 1.389 . S
C1374 C1375 1.387 . S
C1375 H1360 0.930 . S
C1375 C1370 1.390 . S
C1375 C1374 1.387 . S
H1376 C1388 0.930 . S
H1377 C1390 0.930 . S
H1378 C1391 0.930 . S
H1379 C1395 0.959 . S
H1380 C1395 0.959 1_455 S
H1381 C1395 0.961 . S
H1382 C1396 0.960 1_655 S
H1383 C1396 0.961 . S
H1384 C1396 0.959 . S
H1385 C1399 0.929 . S
H1386 C1400 0.931 . S
H1387 C1402 0.930 . S
C1388 H1376 0.930 . S
C1388 C1389 1.399 . S
C1388 C1393 1.399 . S
C1389 C1388 1.399 . S
C1389 C1390 1.376 . S
C1390 H1377 0.930 . S
C1390 C1389 1.376 . S
C1390 C1391 1.388 . S
C1391 H1378 0.930 . S
C1391 C1390 1.388 . S
C1391 C1392 1.390 . S
C1392 C1391 1.390 . S
C1392 C1393 1.394 . S
C1392 C1398 1.465 1_655 S
C1393 C1388 1.399 . S
C1393 C1392 1.394 . S
C1393 C1394 1.516 . S
C1394 C1393 1.516 . S
C1394 C1395 1.502 . S
C1394 C1396 1.561 1_655 S
C1394 C1397 1.526 1_655 S
C1395 H1379 0.959 . S
C1395 H1380 0.959 1_655 S
C1395 H1381 0.961 . S
C1395 C1394 1.502 . S
C1396 H1382 0.960 1_455 S
C1396 H1383 0.961 . S
C1396 H1384 0.959 . S
C1396 C1394 1.561 1_455 S
C1397 C1394 1.526 1_455 S
C1397 C1398 1.396 . S
C1397 C1402 1.390 . S
C1398 C1392 1.465 1_455 S
C1398 C1397 1.396 . S
C1398 C1399 1.399 . S
C1399 H1385 0.929 . S
C1399 C1398 1.399 . S
C1399 C1400 1.385 . S
C1400 H1386 0.931 . S
C1400 C1399 1.385 . S
C1400 C1401 1.389 . S
C1401 C1400 1.389 . S
C1401 C1402 1.387 . S
C1402 H1387 0.930 . S
C1402 C1397 1.390 . S
C1402 C1401 1.387 . S
H1403 C1415 0.930 . S
H1404 C1417 0.930 . S
H1405 C1418 0.930 . S
H1406 C1422 0.959 . S
H1407 C1422 0.959 . S
H1408 C1422 0.961 . S
H1409 C1423 0.960 . S
H1410 C1423 0.961 . S
H1411 C1423 0.959 . S
H1412 C1426 0.929 . S
H1413 C1427 0.931 . S
H1414 C1429 0.930 . S
C1415 H1403 0.930 . S
C1415 C1416 1.399 . S
C1415 C1420 1.399 . S
C1416 C1415 1.399 . S
C1416 C1417 1.376 . S
C1417 H1404 0.930 . S
C1417 C1416 1.376 . S
C1417 C1418 1.388 . S
C1418 H1405 0.930 . S
C1418 C1417 1.388 . S
C1418 C1419 1.390 . S
C1419 C1418 1.390 . S
C1419 C1420 1.394 . S
C1419 C1425 1.465 . S
C1420 C1415 1.399 . S
C1420 C1419 1.394 . S
C1420 C1421 1.516 . S
C1421 C1420 1.516 . S
C1421 C1422 1.502 . S
C1421 C1423 1.561 . S
C1421 C1424 1.526 . S
C1422 H1406 0.959 . S
C1422 H1407 0.959 . S
C1422 H1408 0.961 . S
C1422 C1421 1.502 . S
C1423 H1409 0.960 . S
C1423 H1410 0.961 . S
C1423 H1411 0.959 . S
C1423 C1421 1.561 . S
C1424 C1421 1.526 . S
C1424 C1425 1.396 . S
C1424 C1429 1.390 1_565 S
C1425 C1419 1.465 . S
C1425 C1424 1.396 . S
C1425 C1426 1.399 . S
C1426 H1412 0.929 . S
C1426 C1425 1.399 . S
C1426 C1427 1.385 1_565 S
C1427 H1413 0.931 . S
C1427 C1426 1.385 1_545 S
C1427 C1428 1.389 . S
C1428 C1427 1.389 . S
C1428 C1429 1.387 . S
C1429 H1414 0.930 . S
C1429 C1424 1.390 1_545 S
C1429 C1428 1.387 . S
H1430 C1442 0.930 . S
H1431 C1444 0.930 . S
H1432 C1445 0.930 . S
H1433 C1449 0.960 1_455 S
H1434 C1449 0.959 . S
H1435 C1449 0.961 1_455 S
H1436 C1450 0.960 . S
H1437 C1450 0.961 . S
H1438 C1450 0.959 . S
H1439 C1453 0.929 . S
H1440 C1454 0.931 . S
H1441 C1456 0.930 . S
C1442 H1430 0.930 . S
C1442 C1443 1.399 . S
C1442 C1447 1.399 . S
C1443 C1442 1.399 . S
C1443 C1444 1.376 . S
C1444 H1431 0.930 . S
C1444 C1443 1.376 . S
C1444 C1445 1.388 . S
C1445 H1432 0.930 . S
C1445 C1444 1.388 . S
C1445 C1446 1.390 . S
C1446 C1445 1.390 . S
C1446 C1447 1.394 . S
C1446 C1452 1.465 1_455 S
C1447 C1442 1.399 . S
C1447 C1446 1.394 . S
C1447 C1448 1.516 1_455 S
C1448 C1447 1.516 1_655 S
C1448 C1449 1.502 . S
C1448 C1450 1.561 . S
C1448 C1451 1.526 . S
C1449 H1433 0.960 1_655 S
C1449 H1434 0.959 . S
C1449 H1435 0.961 1_655 S
C1449 C1448 1.502 . S
C1450 H1436 0.960 . S
C1450 H1437 0.961 . S
C1450 H1438 0.959 . S
C1450 C1448 1.561 . S
C1451 C1448 1.526 . S
C1451 C1452 1.396 . S
C1451 C1456 1.390 . S
C1452 C1446 1.465 1_655 S
C1452 C1451 1.396 . S
C1452 C1453 1.399 . S
C1453 H1439 0.929 . S
C1453 C1452 1.399 . S
C1453 C1454 1.385 . S
C1454 H1440 0.931 . S
C1454 C1453 1.385 . S
C1454 C1455 1.389 . S
C1455 C1454 1.389 . S
C1455 C1456 1.387 . S
C1456 H1441 0.930 . S
C1456 C1451 1.390 . S
C1456 C1455 1.387 . S
H1457 C1469 0.930 . S
H1458 C1471 0.930 . S
H1459 C1472 0.930 . S
H1460 C1476 0.959 . S
H1461 C1476 0.959 . S
H1462 C1476 0.961 . S
H1463 C1477 0.960 . S
H1464 C1477 0.961 . S
H1465 C1477 0.959 . S
H1466 C1480 0.929 . S
H1467 C1481 0.931 . S
H1468 C1483 0.930 . S
C1469 H1457 0.930 . S
C1469 C1470 1.399 . S
C1469 C1474 1.399 1_565 S
C1470 C1469 1.399 . S
C1470 C1471 1.376 . S
C1471 H1458 0.930 . S
C1471 C1470 1.376 . S
C1471 C1472 1.388 . S
C1472 H1459 0.930 . S
C1472 C1471 1.388 . S
C1472 C1473 1.390 1_565 S
C1473 C1472 1.390 1_545 S
C1473 C1474 1.394 . S
C1473 C1479 1.465 . S
C1474 C1469 1.399 1_545 S
C1474 C1473 1.394 . S
C1474 C1475 1.516 . S
C1475 C1474 1.516 . S
C1475 C1476 1.502 . S
C1475 C1477 1.561 . S
C1475 C1478 1.526 . S
C1476 H1460 0.959 . S
C1476 H1461 0.959 . S
C1476 H1462 0.961 . S
C1476 C1475 1.502 . S
C1477 H1463 0.960 . S
C1477 H1464 0.961 . S
C1477 H1465 0.959 . S
C1477 C1475 1.561 . S
C1478 C1475 1.526 . S
C1478 C1479 1.396 . S
C1478 C1483 1.390 . S
C1479 C1473 1.465 . S
C1479 C1478 1.396 . S
C1479 C1480 1.399 . S
C1480 H1466 0.929 . S
C1480 C1479 1.399 . S
C1480 C1481 1.385 . S
C1481 H1467 0.931 . S
C1481 C1480 1.385 . S
C1481 C1482 1.389 . S
C1482 C1481 1.389 . S
C1482 C1483 1.387 . S
C1483 H1468 0.930 . S
C1483 C1478 1.390 . S
C1483 C1482 1.387 . S
H1484 C1496 0.930 . S
H1485 C1498 0.930 . S
H1486 C1499 0.930 . S
H1487 C1503 0.959 . S
H1488 C1503 0.959 . S
H1489 C1503 0.961 . S
H1490 C1504 0.960 . S
H1491 C1504 0.961 . S
H1492 C1504 0.959 . S
H1493 C1507 0.929 . S
H1494 C1508 0.931 . S
H1495 C1510 0.930 . S
C1496 H1484 0.930 . S
C1496 C1497 1.399 . S
C1496 C1501 1.399 . S
C1497 C1496 1.399 . S
C1497 C1498 1.376 . S
C1498 H1485 0.930 . S
C1498 C1497 1.376 . S
C1498 C1499 1.388 . S
C1499 H1486 0.930 . S
C1499 C1498 1.388 . S
C1499 C1500 1.390 . S
C1500 C1499 1.390 . S
C1500 C1501 1.394 . S
C1500 C1506 1.465 . S
C1501 C1496 1.399 . S
C1501 C1500 1.394 . S
C1501 C1502 1.516 . S
C1502 C1501 1.516 . S
C1502 C1503 1.502 . S
C1502 C1504 1.561 . S
C1502 C1505 1.526 . S
C1503 H1487 0.959 . S
C1503 H1488 0.959 . S
C1503 H1489 0.961 . S
C1503 C1502 1.502 . S
C1504 H1490 0.960 . S
C1504 H1491 0.961 . S
C1504 H1492 0.959 . S
C1504 C1502 1.561 . S
C1505 C1502 1.526 . S
C1505 C1506 1.396 . S
C1505 C1510 1.390 . S
C1506 C1500 1.465 . S
C1506 C1505 1.396 . S
C1506 C1507 1.399 . S
C1507 H1493 0.929 . S
C1507 C1506 1.399 . S
C1507 C1508 1.385 . S
C1508 H1494 0.931 . S
C1508 C1507 1.385 . S
C1508 C1509 1.389 . S
C1509 C1508 1.389 . S
C1509 C1510 1.387 . S
C1510 H1495 0.930 . S
C1510 C1505 1.390 . S
C1510 C1509 1.387 . S
H1511 C1523 0.930 . S
H1512 C1525 0.930 . S
H1513 C1526 0.930 . S
H1514 C1530 0.959 . S
H1515 C1530 0.959 . S
H1516 C1530 0.961 . S
H1517 C1531 0.960 . S
H1518 C1531 0.961 . S
H1519 C1531 0.959 . S
H1520 C1534 0.929 . S
H1521 C1535 0.931 . S
H1522 C1537 0.930 . S
C1523 H1511 0.930 . S
C1523 C1524 1.399 . S
C1523 C1528 1.399 . S
C1524 C1523 1.399 . S
C1524 C1525 1.376 . S
C1525 H1512 0.930 . S
C1525 C1524 1.376 . S
C1525 C1526 1.388 . S
C1526 H1513 0.930 . S
C1526 C1525 1.388 . S
C1526 C1527 1.390 . S
C1527 C1526 1.390 . S
C1527 C1528 1.394 . S
C1527 C1533 1.465 . S
C1528 C1523 1.399 . S
C1528 C1527 1.394 . S
C1528 C1529 1.516 . S
C1529 C1528 1.516 . S
C1529 C1530 1.502 . S
C1529 C1531 1.561 . S
C1529 C1532 1.526 . S
C1530 H1514 0.959 . S
C1530 H1515 0.959 . S
C1530 H1516 0.961 . S
C1530 C1529 1.502 . S
C1531 H1517 0.960 . S
C1531 H1518 0.961 . S
C1531 H1519 0.959 . S
C1531 C1529 1.561 . S
C1532 C1529 1.526 . S
C1532 C1533 1.396 . S
C1532 C1537 1.390 . S
C1533 C1527 1.465 . S
C1533 C1532 1.396 . S
C1533 C1534 1.399 . S
C1534 H1520 0.929 . S
C1534 C1533 1.399 . S
C1534 C1535 1.385 . S
C1535 H1521 0.931 . S
C1535 C1534 1.385 . S
C1535 C1536 1.389 . S
C1536 C1535 1.389 . S
C1536 C1537 1.387 . S
C1537 H1522 0.930 . S
C1537 C1532 1.390 . S
C1537 C1536 1.387 . S
H1538 C1550 0.930 . S
H1539 C1552 0.930 . S
H1540 C1553 0.930 . S
H1541 C1557 0.959 . S
H1542 C1557 0.959 . S
H1543 C1557 0.961 . S
H1544 C1558 0.960 . S
H1545 C1558 0.961 . S
H1546 C1558 0.959 . S
H1547 C1561 0.929 . S
H1548 C1562 0.931 . S
H1549 C1564 0.930 . S
C1550 H1538 0.930 . S
C1550 C1551 1.399 . S
C1550 C1555 1.399 . S
C1551 C1550 1.399 . S
C1551 C1552 1.376 . S
C1552 H1539 0.930 . S
C1552 C1551 1.376 . S
C1552 C1553 1.388 . S
C1553 H1540 0.930 . S
C1553 C1552 1.388 . S
C1553 C1554 1.390 . S
C1554 C1553 1.390 . S
C1554 C1555 1.394 . S
C1554 C1560 1.465 . S
C1555 C1550 1.399 . S
C1555 C1554 1.394 . S
C1555 C1556 1.516 . S
C1556 C1555 1.516 . S
C1556 C1557 1.502 . S
C1556 C1558 1.561 . S
C1556 C1559 1.526 . S
C1557 H1541 0.959 . S
C1557 H1542 0.959 . S
C1557 H1543 0.961 . S
C1557 C1556 1.502 . S
C1558 H1544 0.960 . S
C1558 H1545 0.961 . S
C1558 H1546 0.959 . S
C1558 C1556 1.561 . S
C1559 C1556 1.526 . S
C1559 C1560 1.396 . S
C1559 C1564 1.390 . S
C1560 C1554 1.465 . S
C1560 C1559 1.396 . S
C1560 C1561 1.399 . S
C1561 H1547 0.929 . S
C1561 C1560 1.399 . S
C1561 C1562 1.385 . S
C1562 H1548 0.931 . S
C1562 C1561 1.385 . S
C1562 C1563 1.389 . S
C1563 C1562 1.389 . S
C1563 C1564 1.387 . S
C1564 H1549 0.930 . S
C1564 C1559 1.390 . S
C1564 C1563 1.387 . S
H1565 C1577 0.930 . S
H1566 C1579 0.930 . S
H1567 C1580 0.930 . S
H1568 C1584 0.959 . S
H1569 C1584 0.959 . S
H1570 C1584 0.961 . S
H1571 C1585 0.960 . S
H1572 C1585 0.961 . S
H1573 C1585 0.959 . S
H1574 C1588 0.929 . S
H1575 C1589 0.931 . S
H1576 C1591 0.930 . S
C1577 H1565 0.930 . S
C1577 C1578 1.399 . S
C1577 C1582 1.399 . S
C1578 C1577 1.399 . S
C1578 C1579 1.376 . S
C1579 H1566 0.930 . S
C1579 C1578 1.376 . S
C1579 C1580 1.388 . S
C1580 H1567 0.930 . S
C1580 C1579 1.388 . S
C1580 C1581 1.390 . S
C1581 C1580 1.390 . S
C1581 C1582 1.394 . S
C1581 C1587 1.465 . S
C1582 C1577 1.399 . S
C1582 C1581 1.394 . S
C1582 C1583 1.516 . S
C1583 C1582 1.516 . S
C1583 C1584 1.502 . S
C1583 C1585 1.561 . S
C1583 C1586 1.526 . S
C1584 H1568 0.959 . S
C1584 H1569 0.959 . S
C1584 H1570 0.961 . S
C1584 C1583 1.502 . S
C1585 H1571 0.960 . S
C1585 H1572 0.961 . S
C1585 H1573 0.959 . S
C1585 C1583 1.561 . S
C1586 C1583 1.526 . S
C1586 C1587 1.396 . S
C1586 C1591 1.390 . S
C1587 C1581 1.465 . S
C1587 C1586 1.396 . S
C1587 C1588 1.399 . S
C1588 H1574 0.929 . S
C1588 C1587 1.399 . S
C1588 C1589 1.385 . S
C1589 H1575 0.931 . S
C1589 C1588 1.385 . S
C1589 C1590 1.389 . S
C1590 C1589 1.389 . S
C1590 C1591 1.387 . S
C1591 H1576 0.930 . S
C1591 C1586 1.390 . S
C1591 C1590 1.387 . S
H1592 C1604 0.930 . S
H1593 C1606 0.930 . S
H1594 C1607 0.930 . S
H1595 C1611 0.959 . S
H1596 C1611 0.959 . S
H1597 C1611 0.961 . S
H1598 C1612 0.960 . S
H1599 C1612 0.961 . S
H1600 C1612 0.959 . S
H1601 C1615 0.929 . S
H1602 C1616 0.931 . S
H1603 C1618 0.930 . S
C1604 H1592 0.930 . S
C1604 C1605 1.399 . S
C1604 C1609 1.399 . S
C1605 C1604 1.399 . S
C1605 C1606 1.376 . S
C1606 H1593 0.930 . S
C1606 C1605 1.376 . S
C1606 C1607 1.388 . S
C1607 H1594 0.930 . S
C1607 C1606 1.388 . S
C1607 C1608 1.390 . S
C1608 C1607 1.390 . S
C1608 C1609 1.394 . S
C1608 C1614 1.465 . S
C1609 C1604 1.399 . S
C1609 C1608 1.394 . S
C1609 C1610 1.516 . S
C1610 C1609 1.516 . S
C1610 C1611 1.502 . S
C1610 C1612 1.561 . S
C1610 C1613 1.526 . S
C1611 H1595 0.959 . S
C1611 H1596 0.959 . S
C1611 H1597 0.961 . S
C1611 C1610 1.502 . S
C1612 H1598 0.960 . S
C1612 H1599 0.961 . S
C1612 H1600 0.959 . S
C1612 C1610 1.561 . S
C1613 C1610 1.526 . S
C1613 C1614 1.396 . S
C1613 C1618 1.390 . S
C1614 C1608 1.465 . S
C1614 C1613 1.396 . S
C1614 C1615 1.399 . S
C1615 H1601 0.929 . S
C1615 C1614 1.399 . S
C1615 C1616 1.385 . S
C1616 H1602 0.931 . S
C1616 C1615 1.385 . S
C1616 C1617 1.389 . S
C1617 C1616 1.389 . S
C1617 C1618 1.387 . S
C1618 H1603 0.930 . S
C1618 C1613 1.390 . S
C1618 C1617 1.387 . S
H1619 C1631 0.930 . S
H1620 C1633 0.930 . S
H1621 C1634 0.930 . S
H1622 C1638 0.959 . S
H1623 C1638 0.959 . S
H1624 C1638 0.961 . S
H1625 C1639 0.960 . S
H1626 C1639 0.961 . S
H1627 C1639 0.959 . S
H1628 C1642 0.929 . S
H1629 C1643 0.931 . S
H1630 C1645 0.930 . S
C1631 H1619 0.930 . S
C1631 C1632 1.399 . S
C1631 C1636 1.399 . S
C1632 C1631 1.399 . S
C1632 C1633 1.376 . S
C1633 H1620 0.930 . S
C1633 C1632 1.376 . S
C1633 C1634 1.388 . S
C1634 H1621 0.930 . S
C1634 C1633 1.388 . S
C1634 C1635 1.390 . S
C1635 C1634 1.390 . S
C1635 C1636 1.394 . S
C1635 C1641 1.465 . S
C1636 C1631 1.399 . S
C1636 C1635 1.394 . S
C1636 C1637 1.516 . S
C1637 C1636 1.516 . S
C1637 C1638 1.502 . S
C1637 C1639 1.561 . S
C1637 C1640 1.526 . S
C1638 H1622 0.959 . S
C1638 H1623 0.959 . S
C1638 H1624 0.961 . S
C1638 C1637 1.502 . S
C1639 H1625 0.960 . S
C1639 H1626 0.961 . S
C1639 H1627 0.959 . S
C1639 C1637 1.561 . S
C1640 C1637 1.526 . S
C1640 C1641 1.396 . S
C1640 C1645 1.390 . S
C1641 C1635 1.465 . S
C1641 C1640 1.396 . S
C1641 C1642 1.399 . S
C1642 H1628 0.929 . S
C1642 C1641 1.399 . S
C1642 C1643 1.385 . S
C1643 H1629 0.931 . S
C1643 C1642 1.385 . S
C1643 C1644 1.389 . S
C1644 C1643 1.389 . S
C1644 C1645 1.387 . S
C1645 H1630 0.930 . S
C1645 C1640 1.390 . S
C1645 C1644 1.387 . S
H1646 C1658 0.930 . S
H1647 C1660 0.930 . S
H1648 C1661 0.930 . S
H1649 C1665 0.959 . S
H1650 C1665 0.959 . S
H1651 C1665 0.961 . S
H1652 C1666 0.960 . S
H1653 C1666 0.961 . S
H1654 C1666 0.959 . S
H1655 C1669 0.929 . S
H1656 C1670 0.931 . S
H1657 C1672 0.930 . S
C1658 H1646 0.930 . S
C1658 C1659 1.399 . S
C1658 C1663 1.399 . S
C1659 C1658 1.399 . S
C1659 C1660 1.376 . S
C1660 H1647 0.930 . S
C1660 C1659 1.376 . S
C1660 C1661 1.388 . S
C1661 H1648 0.930 . S
C1661 C1660 1.388 . S
C1661 C1662 1.390 . S
C1662 C1661 1.390 . S
C1662 C1663 1.394 . S
C1662 C1668 1.465 . S
C1663 C1658 1.399 . S
C1663 C1662 1.394 . S
C1663 C1664 1.516 . S
C1664 C1663 1.516 . S
C1664 C1665 1.502 . S
C1664 C1666 1.561 . S
C1664 C1667 1.526 . S
C1665 H1649 0.959 . S
C1665 H1650 0.959 . S
C1665 H1651 0.961 . S
C1665 C1664 1.502 . S
C1666 H1652 0.960 . S
C1666 H1653 0.961 . S
C1666 H1654 0.959 . S
C1666 C1664 1.561 . S
C1667 C1664 1.526 . S
C1667 C1668 1.396 . S
C1667 C1672 1.390 . S
C1668 C1662 1.465 . S
C1668 C1667 1.396 . S
C1668 C1669 1.399 . S
C1669 H1655 0.929 . S
C1669 C1668 1.399 . S
C1669 C1670 1.385 . S
C1670 H1656 0.931 . S
C1670 C1669 1.385 . S
C1670 C1671 1.389 . S
C1671 C1670 1.389 . S
C1671 C1672 1.387 . S
C1672 H1657 0.930 . S
C1672 C1667 1.390 . S
C1672 C1671 1.387 . S
H1673 C1685 0.930 . S
H1674 C1687 0.930 . S
H1675 C1688 0.930 . S
H1676 C1692 0.959 . S
H1677 C1692 0.959 . S
H1678 C1692 0.961 . S
H1679 C1693 0.960 . S
H1680 C1693 0.961 . S
H1681 C1693 0.959 . S
H1682 C1696 0.929 . S
H1683 C1697 0.931 . S
H1684 C1699 0.930 . S
C1685 H1673 0.930 . S
C1685 C1686 1.399 . S
C1685 C1690 1.399 . S
C1686 C1685 1.399 . S
C1686 C1687 1.376 . S
C1687 H1674 0.930 . S
C1687 C1686 1.376 . S
C1687 C1688 1.388 . S
C1688 H1675 0.930 . S
C1688 C1687 1.388 . S
C1688 C1689 1.390 . S
C1689 C1688 1.390 . S
C1689 C1690 1.394 . S
C1689 C1695 1.465 . S
C1690 C1685 1.399 . S
C1690 C1689 1.394 . S
C1690 C1691 1.516 . S
C1691 C1690 1.516 . S
C1691 C1692 1.502 . S
C1691 C1693 1.561 . S
C1691 C1694 1.526 . S
C1692 H1676 0.959 . S
C1692 H1677 0.959 . S
C1692 H1678 0.961 . S
C1692 C1691 1.502 . S
C1693 H1679 0.960 . S
C1693 H1680 0.961 . S
C1693 H1681 0.959 . S
C1693 C1691 1.561 . S
C1694 C1691 1.526 . S
C1694 C1695 1.396 . S
C1694 C1699 1.390 . S
C1695 C1689 1.465 . S
C1695 C1694 1.396 . S
C1695 C1696 1.399 . S
C1696 H1682 0.929 . S
C1696 C1695 1.399 . S
C1696 C1697 1.385 . S
C1697 H1683 0.931 . S
C1697 C1696 1.385 . S
C1697 C1698 1.389 . S
C1698 C1697 1.389 . S
C1698 C1699 1.387 . S
C1699 H1684 0.930 . S
C1699 C1694 1.390 . S
C1699 C1698 1.387 . S
H1700 C1712 0.930 . S
H1701 C1714 0.930 . S
H1702 C1715 0.930 . S
H1703 C1719 0.959 . S
H1704 C1719 0.959 . S
H1705 C1719 0.961 . S
H1706 C1720 0.960 . S
H1707 C1720 0.961 . S
H1708 C1720 0.959 . S
H1709 C1723 0.929 . S
H1710 C1724 0.931 . S
H1711 C1726 0.930 . S
C1712 H1700 0.930 . S
C1712 C1713 1.399 . S
C1712 C1717 1.399 . S
C1713 C1712 1.399 . S
C1713 C1714 1.376 . S
C1714 H1701 0.930 . S
C1714 C1713 1.376 . S
C1714 C1715 1.388 . S
C1715 H1702 0.930 . S
C1715 C1714 1.388 . S
C1715 C1716 1.390 . S
C1716 C1715 1.390 . S
C1716 C1717 1.394 . S
C1716 C1722 1.465 . S
C1717 C1712 1.399 . S
C1717 C1716 1.394 . S
C1717 C1718 1.516 . S
C1718 C1717 1.516 . S
C1718 C1719 1.502 . S
C1718 C1720 1.561 . S
C1718 C1721 1.526 . S
C1719 H1703 0.959 . S
C1719 H1704 0.959 . S
C1719 H1705 0.961 . S
C1719 C1718 1.502 . S
C1720 H1706 0.960 . S
C1720 H1707 0.961 . S
C1720 H1708 0.959 . S
C1720 C1718 1.561 . S
C1721 C1718 1.526 . S
C1721 C1722 1.396 . S
C1721 C1726 1.390 . S
C1722 C1716 1.465 . S
C1722 C1721 1.396 . S
C1722 C1723 1.399 . S
C1723 H1709 0.929 . S
C1723 C1722 1.399 . S
C1723 C1724 1.385 . S
C1724 H1710 0.931 . S
C1724 C1723 1.385 . S
C1724 C1725 1.389 . S
C1725 C1724 1.389 . S
C1725 C1726 1.387 . S
C1726 H1711 0.930 . S
C1726 C1721 1.390 . S
C1726 C1725 1.387 . S
H1727 C1739 0.930 . S
H1728 C1741 0.930 . S
H1729 C1742 0.930 . S
H1730 C1746 0.959 . S
H1731 C1746 0.959 . S
H1732 C1746 0.961 . S
H1733 C1747 0.960 . S
H1734 C1747 0.961 . S
H1735 C1747 0.959 . S
H1736 C1750 0.929 . S
H1737 C1751 0.931 . S
H1738 C1753 0.930 . S
C1739 H1727 0.930 . S
C1739 C1740 1.399 . S
C1739 C1744 1.399 . S
C1740 C1739 1.399 . S
C1740 C1741 1.376 . S
C1741 H1728 0.930 . S
C1741 C1740 1.376 . S
C1741 C1742 1.388 . S
C1742 H1729 0.930 . S
C1742 C1741 1.388 . S
C1742 C1743 1.390 . S
C1743 C1742 1.390 . S
C1743 C1744 1.394 . S
C1743 C1749 1.465 . S
C1744 C1739 1.399 . S
C1744 C1743 1.394 . S
C1744 C1745 1.516 . S
C1745 C1744 1.516 . S
C1745 C1746 1.502 . S
C1745 C1747 1.561 . S
C1745 C1748 1.526 . S
C1746 H1730 0.959 . S
C1746 H1731 0.959 . S
C1746 H1732 0.961 . S
C1746 C1745 1.502 . S
C1747 H1733 0.960 . S
C1747 H1734 0.961 . S
C1747 H1735 0.959 . S
C1747 C1745 1.561 . S
C1748 C1745 1.526 . S
C1748 C1749 1.396 . S
C1748 C1753 1.390 . S
C1749 C1743 1.465 . S
C1749 C1748 1.396 . S
C1749 C1750 1.399 . S
C1750 H1736 0.929 . S
C1750 C1749 1.399 . S
C1750 C1751 1.385 . S
C1751 H1737 0.931 . S
C1751 C1750 1.385 . S
C1751 C1752 1.389 . S
C1752 C1751 1.389 . S
C1752 C1753 1.387 . S
C1753 H1738 0.930 . S
C1753 C1748 1.390 . S
C1753 C1752 1.387 . S
H1754 C1766 0.930 . S
H1755 C1768 0.930 . S
H1756 C1769 0.930 . S
H1757 C1773 0.959 . S
H1758 C1773 0.959 . S
H1759 C1773 0.961 . S
H1760 C1774 0.960 . S
H1761 C1774 0.961 . S
H1762 C1774 0.959 . S
H1763 C1777 0.929 . S
H1764 C1778 0.931 . S
H1765 C1780 0.930 . S
C1766 H1754 0.930 . S
C1766 C1767 1.399 . S
C1766 C1771 1.399 . S
C1767 C1766 1.399 . S
C1767 C1768 1.376 . S
C1768 H1755 0.930 . S
C1768 C1767 1.376 . S
C1768 C1769 1.388 . S
C1769 H1756 0.930 . S
C1769 C1768 1.388 . S
C1769 C1770 1.390 . S
C1770 C1769 1.390 . S
C1770 C1771 1.394 . S
C1770 C1776 1.465 . S
C1771 C1766 1.399 . S
C1771 C1770 1.394 . S
C1771 C1772 1.516 . S
C1772 C1771 1.516 . S
C1772 C1773 1.502 . S
C1772 C1774 1.561 . S
C1772 C1775 1.526 . S
C1773 H1757 0.959 . S
C1773 H1758 0.959 . S
C1773 H1759 0.961 . S
C1773 C1772 1.502 . S
C1774 H1760 0.960 . S
C1774 H1761 0.961 . S
C1774 H1762 0.959 . S
C1774 C1772 1.561 . S
C1775 C1772 1.526 . S
C1775 C1776 1.396 . S
C1775 C1780 1.390 . S
C1776 C1770 1.465 . S
C1776 C1775 1.396 . S
C1776 C1777 1.399 . S
C1777 H1763 0.929 . S
C1777 C1776 1.399 . S
C1777 C1778 1.385 . S
C1778 H1764 0.931 . S
C1778 C1777 1.385 . S
C1778 C1779 1.389 . S
C1779 C1778 1.389 . S
C1779 C1780 1.387 . S
C1780 H1765 0.930 . S
C1780 C1775 1.390 . S
C1780 C1779 1.387 . S
H1781 C1793 0.930 . S
H1782 C1795 0.930 . S
H1783 C1796 0.930 . S
H1784 C1800 0.959 . S
H1785 C1800 0.959 . S
H1786 C1800 0.961 . S
H1787 C1801 0.960 . S
H1788 C1801 0.961 . S
H1789 C1801 0.959 . S
H1790 C1804 0.929 . S
H1791 C1805 0.931 . S
H1792 C1807 0.930 . S
C1793 H1781 0.930 . S
C1793 C1794 1.399 . S
C1793 C1798 1.399 . S
C1794 C1793 1.399 . S
C1794 C1795 1.376 . S
C1795 H1782 0.930 . S
C1795 C1794 1.376 . S
C1795 C1796 1.388 . S
C1796 H1783 0.930 . S
C1796 C1795 1.388 . S
C1796 C1797 1.390 . S
C1797 C1796 1.390 . S
C1797 C1798 1.394 . S
C1797 C1803 1.465 . S
C1798 C1793 1.399 . S
C1798 C1797 1.394 . S
C1798 C1799 1.516 . S
C1799 C1798 1.516 . S
C1799 C1800 1.502 . S
C1799 C1801 1.561 . S
C1799 C1802 1.526 . S
C1800 H1784 0.959 . S
C1800 H1785 0.959 . S
C1800 H1786 0.961 . S
C1800 C1799 1.502 . S
C1801 H1787 0.960 . S
C1801 H1788 0.961 . S
C1801 H1789 0.959 . S
C1801 C1799 1.561 . S
C1802 C1799 1.526 . S
C1802 C1803 1.396 . S
C1802 C1807 1.390 . S
C1803 C1797 1.465 . S
C1803 C1802 1.396 . S
C1803 C1804 1.399 . S
C1804 H1790 0.929 . S
C1804 C1803 1.399 . S
C1804 C1805 1.385 . S
C1805 H1791 0.931 . S
C1805 C1804 1.385 . S
C1805 C1806 1.389 . S
C1806 C1805 1.389 . S
C1806 C1807 1.387 . S
C1807 H1792 0.930 . S
C1807 C1802 1.390 . S
C1807 C1806 1.387 . S
C957 C890 1.203 . S
C969 C5 1.232 . S
C984 C713 1.177 . S
C996 C64 1.174 . S
C1011 C123 1.565 . S
C1023 C772 1.530 . S
C1038 C831 1.437 . S
C1050 C182 1.445 . S
C1065 C536 1.204 . S
C1077 C241 1.170 . S
C1092 C300 1.548 . S
C1104 C595 1.544 . S
C1119 C359 1.380 . S
C1131 C654 1.481 . S
C1146 C418 1.224 . S
C1158 C477 1.227 . S
C1173 C347 2.267 . S
C1185 C33 2.194 . S
C1200 C357 1.211 . S
C1212 C62 1.235 . S
C1227 C465 1.663 . S
C1239 C151 1.581 . S
C1254 C180 1.638 . S
C1266 C269 1.668 . S
C1281 C52 1.485 . S
C1293 C111 1.459 . S
C1308 C121 1.326 . S
C1320 C92 1.337 . S
C1335 C170 1.333 . S
C1347 C229 1.358 . S
C1362 C3 1.257 . S
C1374 C210 1.230 . S
C1389 C446 1.197 . S
C1401 C288 1.192 . S
C1416 C239 1.832 . S
C1428 C298 1.831 . S
C1443 C328 1.327 . S
C1455 C387 1.296 . S
C1470 C416 2.027 . S
C1482 C406 2.056 . S
C1497 C819 2.266 . S
C1509 C505 2.193 . S
C1524 C534 1.164 . S
C1536 C829 1.150 . S
C1551 C937 1.618 . S
C1563 C623 1.641 . S
C1578 C741 1.626 . S
C1590 C652 1.575 . S
C1605 C524 1.495 . S
C1617 C583 1.434 . S
C1632 C564 1.341 . S
C1644 C593 1.329 . S
C1659 C701 1.336 . S
C1671 C642 1.334 . S
C1686 C475 1.264 . S
C1698 C682 1.234 . S
C1713 C918 1.206 . S
C1725 C760 1.196 . S
C1740 C711 1.832 . S
C1752 C770 1.831 . S
C1767 C800 1.362 . S
C1779 C859 1.343 . S
C1794 C888 2.038 . S
C1806 C878 2.040 . S
