# Generated by pormake.
# Topology smm, (6)-cn, num edge types: 1
# Building blocks:
#     Node 0, Type 0, BuildingBlock: BETDIP_clean_sbu_0, # of connection points: 6
#     Node 1, Type 0, BuildingBlock: BETDIP_clean_sbu_0, # of connection points: 6
#     Node 2, Type 0, BuildingBlock: BETDIP_clean_sbu_0, # of connection points: 6
#     Node 3, Type 0, BuildingBlock: BETDIP_clean_sbu_0, # of connection points: 6
#     Node 4, Type 0, BuildingBlock: BETDIP_clean_sbu_0, # of connection points: 6
#     Node 5, Type 0, BuildingBlock: BETDIP_clean_sbu_0, # of connection points: 6
#     Node 6, Type 0, BuildingBlock: BETDIP_clean_sbu_0, # of connection points: 6
#     Node 7, Type 0, BuildingBlock: BETDIP_clean_sbu_0, # of connection points: 6
#     Node 8, Type 0, BuildingBlock: BETDIP_clean_sbu_0, # of connection points: 6
#     Edge 9, Type (0, 0), BuildingBlock: KIFKEQ_clean_linker_1, # of connection points: 2
#     Edge 10, Type (0, 0), BuildingBlock: KIFKEQ_clean_linker_1, # of connection points: 2
#     Edge 11, Type (0, 0), BuildingBlock: KIFKEQ_clean_linker_1, # of connection points: 2
#     Edge 12, Type (0, 0), BuildingBlock: KIFKEQ_clean_linker_1, # of connection points: 2
#     Edge 13, Type (0, 0), BuildingBlock: KIFKEQ_clean_linker_1, # of connection points: 2
#     Edge 14, Type (0, 0), BuildingBlock: KIFKEQ_clean_linker_1, # of connection points: 2
#     Edge 15, Type (0, 0), BuildingBlock: KIFKEQ_clean_linker_1, # of connection points: 2
#     Edge 16, Type (0, 0), BuildingBlock: KIFKEQ_clean_linker_1, # of connection points: 2
#     Edge 17, Type (0, 0), BuildingBlock: KIFKEQ_clean_linker_1, # of connection points: 2
#     Edge 18, Type (0, 0), BuildingBlock: KIFKEQ_clean_linker_1, # of connection points: 2
#     Edge 19, Type (0, 0), BuildingBlock: KIFKEQ_clean_linker_1, # of connection points: 2
#     Edge 20, Type (0, 0), BuildingBlock: KIFKEQ_clean_linker_1, # of connection points: 2
#     Edge 21, Type (0, 0), BuildingBlock: KIFKEQ_clean_linker_1, # of connection points: 2
#     Edge 22, Type (0, 0), BuildingBlock: KIFKEQ_clean_linker_1, # of connection points: 2
#     Edge 23, Type (0, 0), BuildingBlock: KIFKEQ_clean_linker_1, # of connection points: 2
#     Edge 24, Type (0, 0), BuildingBlock: KIFKEQ_clean_linker_1, # of connection points: 2
#     Edge 25, Type (0, 0), BuildingBlock: KIFKEQ_clean_linker_1, # of connection points: 2
#     Edge 26, Type (0, 0), BuildingBlock: KIFKEQ_clean_linker_1, # of connection points: 2
#     Edge 27, Type (0, 0), BuildingBlock: KIFKEQ_clean_linker_1, # of connection points: 2
#     Edge 28, Type (0, 0), BuildingBlock: KIFKEQ_clean_linker_1, # of connection points: 2
#     Edge 29, Type (0, 0), BuildingBlock: KIFKEQ_clean_linker_1, # of connection points: 2
#     Edge 30, Type (0, 0), BuildingBlock: KIFKEQ_clean_linker_1, # of connection points: 2
#     Edge 31, Type (0, 0), BuildingBlock: KIFKEQ_clean_linker_1, # of connection points: 2
#     Edge 32, Type (0, 0), BuildingBlock: KIFKEQ_clean_linker_1, # of connection points: 2
#     Edge 33, Type (0, 0), BuildingBlock: KIFKEQ_clean_linker_1, # of connection points: 2
#     Edge 34, Type (0, 0), BuildingBlock: KIFKEQ_clean_linker_1, # of connection points: 2
#     Edge 35, Type (0, 0), BuildingBlock: KIFKEQ_clean_linker_1, # of connection points: 2
# Relax obj value: 0.037
# Max RMSD: 0.111
# Mean RMSD: 0.111
data_MOF--net-smm--node1-BETDIP_clean_sbu_0--edge1-KIFKEQ_clean_linker_1
_symmetry_space_group_name_H-M    P1
_symmetry_Int_Tables_number       1
_symmetry_cell_setting            triclinic
loop_
_symmetry_equiv_pos_as_xyz
'x, y, z'
_cell_length_a     70.740182
_cell_length_b     70.710877
_cell_length_c     14.450084
_cell_angle_alpha  90.094129
_cell_angle_beta   89.994205
_cell_angle_gamma 120.02373
loop_
_atom_site_label
_atom_site_type_symbol
_atom_site_fract_x
_atom_site_fract_y
_atom_site_fract_z
_atom_type_partial_charge
Tb0 Tb 1.0318 0.20388 -0.00249 0.0
Tb1 Tb 0.07274 0.20219 0.95525 0.0
C2 C 1.00409 0.21102 0.07549 0.0
C3 C 0.99753 0.2278 0.08677 0.0
C4 C 1.01092 0.24784 0.13174 0.0
C5 C 1.00318 0.2623 0.14969 0.0
C6 C 0.98196 0.25706 0.12289 0.0
C7 C 0.96885 0.23719 0.07633 0.0
C8 C 0.97652 0.22276 0.05878 0.0
C9 C 1.03788 0.19943 0.82065 0.0
C10 C 0.07658 0.24823 0.95416 0.0
C11 C 0.10129 0.19442 0.89072 0.0
C12 C 0.10843 0.17823 0.90309 0.0
C13 C 0.11875 0.17405 0.82957 0.0
C14 C 0.12674 0.15966 0.84074 0.0
C15 C 0.12464 0.14917 0.92598 0.0
C16 C 0.11395 0.15316 -0.00073 0.0
C17 C 0.10585 0.16749 0.98783 0.0
C18 C 0.06548 0.20576 0.13196 0.0
C19 C 1.02713 0.15764 0.98102 0.0
O20 O 1.02224 0.21449 0.11499 0.0
O21 O 1.00121 0.20197 -0.00627 0.0
O22 O 0.0524 0.21066 0.8791 0.0
O23 O 1.01887 0.19217 0.85849 0.0
O24 O 0.05703 0.23895 -0.006 0.0
O25 O 0.08455 0.23622 0.92023 0.0
O26 O 0.08214 0.18741 0.85248 0.0
O27 O 0.10463 0.20754 0.96054 0.0
O28 O 0.05161 0.19445 0.07188 0.0
O29 O 0.08471 0.21432 0.09551 0.0
O30 O 0.04739 0.16751 0.94878 0.0
O31 O 1.01847 0.16888 0.01644 0.0
H32 H 1.02718 0.2522 0.15454 0.0
H33 H 1.0138 0.27755 0.18487 0.0
H34 H 0.95231 0.2324 0.05597 0.0
H35 H 0.96575 0.20731 0.0252 0.0
H36 H 0.12094 0.1822 0.76371 0.0
H37 H 0.13508 0.15718 0.78318 0.0
H38 H 0.1118 0.14515 0.06541 0.0
H39 H 0.0978 0.17038 0.04541 0.0
Tb40 Tb 0.88003 0.84484 -0.00287 0.0
Tb41 Tb 0.88233 0.8878 0.95468 0.0
C42 C 0.87288 0.81022 0.07708 0.0
C43 C 0.85549 0.78767 0.09851 0.0
C44 C 0.85387 0.77991 0.18912 0.0
C45 C 0.83938 0.758 0.21031 0.0
C46 C 0.82618 0.74327 0.14113 0.0
C47 C 0.82731 0.75127 0.05081 0.0
C48 C 0.8418 0.77325 0.02968 0.0
C49 C 0.88466 0.8554 0.82044 0.0
C50 C 0.83606 0.84585 0.95442 0.0
C51 C 0.89025 0.92411 0.88972 0.0
C52 C 0.90628 0.9475 0.90249 0.0
C53 C 0.91069 0.9619 0.8285 0.0
C54 C 0.92489 0.98434 0.8399 0.0
C55 C 0.93495 0.99288 0.92585 0.0
C56 C 0.93074 0.9783 -0.00033 0.0
C57 C 0.9166 0.95581 -0.01199 0.0
C58 C 0.87885 0.87714 0.13148 0.0
C59 C 0.92656 0.88598 0.97882 0.0
O60 O 0.87192 0.82616 0.119 0.0
O61 O 0.87925 0.81485 -0.00913 0.0
O62 O 0.87349 0.85882 0.87869 0.0
O63 O 0.89188 0.84362 0.85848 0.0
O64 O 0.84515 0.83554 -0.0046 0.0
O65 O 0.84824 0.86568 0.91943 0.0
O66 O 0.89745 0.91202 0.85256 0.0
O67 O 0.87693 0.91431 0.95875 0.0
O68 O 0.88991 0.87429 0.07115 0.0
O69 O 0.87052 0.88802 0.09515 0.0
O70 O 0.91694 0.8968 0.94867 0.0
O71 O 0.91516 0.86594 0.01252 0.0
H72 H 0.86436 0.79068 0.24323 0.0
H73 H 0.83919 0.75244 0.28027 0.0
H74 H 0.81717 0.74047 -0.00389 0.0
H75 H 0.84264 0.7788 0.95919 0.0
H76 H 0.90286 0.95582 0.76204 0.0
H77 H 0.92754 0.99507 0.78189 0.0
H78 H 0.93843 0.98428 0.06639 0.0
H79 H 0.91352 0.94495 0.046 0.0
Tb80 Tb 0.23913 0.05314 -0.00305 0.0
Tb81 Tb 0.19683 1.01183 0.955 0.0
C82 C 0.27386 0.08128 0.07452 0.0
C83 C 0.29719 0.08798 0.08637 0.0
C84 C 0.3039 0.07453 0.13003 0.0
C85 C 0.32608 0.08236 0.14839 0.0
C86 C 0.342 0.10375 0.12327 0.0
C87 C 0.3352 0.11693 0.07797 0.0
C88 C 0.3131 0.10916 0.06003 0.0
C89 C 0.22846 0.04693 0.82031 0.0
C90 C 0.23941 1.00876 0.95291 0.0
C91 C 0.16051 0.98253 0.89331 0.0
C92 C 0.1369 0.97417 0.90866 0.0
C93 C 0.12704 0.98671 0.88817 0.0
C94 C 0.10446 0.97785 0.8991 0.0
C95 C 0.09124 0.95625 0.93053 0.0
C96 C 0.10127 0.94394 0.95224 0.0
C97 C 0.12376 0.95275 0.94106 0.0
C98 C 0.20775 1.01932 0.13166 0.0
C99 C 0.1972 0.05711 0.98067 0.0
O100 O 0.25921 0.06322 0.11464 0.0
O101 O 0.2677 0.08382 -0.00774 0.0
O102 O 0.22546 0.03246 0.87832 0.0
O103 O 0.23997 0.06599 0.85839 0.0
O104 O 0.2494 0.02826 -0.00651 0.0
O105 O 0.21947 1.00061 0.91846 0.0
O106 O 0.17206 1.00179 0.85498 0.0
O107 O 0.17103 0.97945 0.96059 0.0
O108 O 0.21003 0.03307 0.07172 0.0
O109 O 0.19736 1.00007 0.09511 0.0
O110 O 0.18703 0.03683 0.94812 0.0
O111 O 0.21709 0.06598 0.01632 0.0
H112 H 0.29202 0.05813 0.15144 0.0
H113 H 0.33076 0.0717 0.18255 0.0
H114 H 0.3469 0.13358 0.05891 0.0
H115 H 0.30837 0.11996 0.02742 0.0
H116 H 0.13667 1.00324 0.86255 0.0
H117 H 0.0973 0.98775 0.88077 0.0
H118 H 0.09174 0.92741 0.97815 0.0
H119 H 0.1309 0.9427 0.95714 0.0
Tb120 Tb 0.69849 0.53729 0.33528 0.0
Tb121 Tb 0.73937 0.53551 0.29289 0.0
C122 C 0.67044 0.5445 0.40959 0.0
C123 C 0.66369 0.56116 0.41908 0.0
C124 C 0.67709 0.58152 0.46161 0.0
C125 C 0.66915 0.59583 0.479 0.0
C126 C 0.64769 0.59011 0.45406 0.0
C127 C 0.63457 0.56995 0.40953 0.0
C128 C 0.64246 0.55567 0.39254 0.0
C129 C 0.70494 0.53282 0.15894 0.0
C130 C 0.74338 0.58169 0.29449 0.0
C131 C 0.76761 0.52771 0.22516 0.0
C132 C 0.77479 0.51151 0.23641 0.0
C133 C 0.78481 0.50726 0.16194 0.0
C134 C 0.79301 0.49301 0.17232 0.0
C135 C 0.79142 0.48276 0.2577 0.0
C136 C 0.78098 0.48678 0.3319 0.0
C137 C 0.77267 0.50096 0.32126 0.0
C138 C 0.73241 0.53879 0.47033 0.0
C139 C 0.69374 0.49106 0.32064 0.0
O140 O 0.68856 0.54826 0.45025 0.0
O141 O 0.66784 0.53525 0.32845 0.0
O142 O 0.71922 0.54434 0.2175 0.0
O143 O 0.68581 0.52473 0.19639 0.0
O144 O 0.7237 0.57231 0.33305 0.0
O145 O 0.7515 0.56979 0.26083 0.0
O146 O 0.74832 0.52074 0.18831 0.0
O147 O 0.77126 0.54087 0.29516 0.0
O148 O 0.71832 0.5279 0.41013 0.0
O149 O 0.75154 0.54662 0.43349 0.0
O150 O 0.71386 0.50082 0.28666 0.0
O151 O 0.68536 0.50244 0.35716 0.0
H152 H 0.69354 0.58624 0.48316 0.0
H153 H 0.67978 0.61131 0.51249 0.0
H154 H 0.61787 0.56482 0.39057 0.0
H155 H 0.63168 0.53998 0.36081 0.0
H156 H 0.78666 0.51527 0.09599 0.0
H157 H 0.80114 0.4905 0.11403 0.0
H158 H 0.77922 0.47894 0.39819 0.0
H159 H 0.76487 0.50392 0.37961 0.0
Tb160 Tb 0.54688 0.17875 0.32978 0.0
Tb161 Tb 0.54903 0.22162 0.28707 0.0
C162 C 0.53987 0.1442 0.40991 0.0
C163 C 0.52254 0.1216 0.43075 0.0
C164 C 0.521 0.11366 0.52098 0.0
C165 C 0.50651 0.09172 0.54157 0.0
C166 C 0.49323 0.07713 0.47214 0.0
C167 C 0.4943 0.0853 0.38222 0.0
C168 C 0.50879 0.10732 0.3617 0.0
C169 C 0.5514 0.18922 0.15298 0.0
C170 C 0.50281 0.17957 0.28729 0.0
C171 C 0.5565 0.25771 0.22103 0.0
C172 C 0.57221 0.28116 0.23296 0.0
C173 C 0.57168 0.29609 0.17099 0.0
C174 C 0.58549 0.31854 0.1835 0.0
C175 C 0.60013 0.32658 0.25858 0.0
C176 C 0.60095 0.31147 0.31959 0.0
C177 C 0.58709 0.28894 0.30692 0.0
C178 C 0.54562 0.21104 0.46397 0.0
C179 C 0.59334 0.22002 0.31138 0.0
O180 O 0.53867 0.16004 0.45156 0.0
O181 O 0.54641 0.14891 0.32392 0.0
O182 O 0.54023 0.19264 0.2113 0.0
O183 O 0.55867 0.17749 0.19103 0.0
O184 O 0.51195 0.1693 0.32813 0.0
O185 O 0.51494 0.19939 0.25221 0.0
O186 O 0.564 0.24578 0.1848 0.0
O187 O 0.5434 0.24801 0.29075 0.0
O188 O 0.55668 0.2082 0.40364 0.0
O189 O 0.53726 0.2219 0.4276 0.0
O190 O 0.58367 0.23078 0.28105 0.0
O191 O 0.58199 0.19999 0.34523 0.0
H192 H 0.53153 0.12433 0.57524 0.0
H193 H 0.50636 0.08602 0.61122 0.0
H194 H 0.4841 0.07461 0.32736 0.0
H195 H 0.50957 0.11301 0.2915 0.0
H196 H 0.56036 0.29038 0.1133 0.0
H197 H 0.58468 0.32963 0.13414 0.0
H198 H 0.6119 0.31705 0.37846 0.0
H199 H 0.58771 0.27762 0.35557 0.0
Tb200 Tb 0.90619 0.38656 0.3291 0.0
Tb201 Tb 0.86361 0.3455 0.28689 0.0
C202 C 0.9408 0.41428 0.40878 0.0
C203 C 0.96331 0.4193 0.42985 0.0
C204 C 0.97144 0.42605 0.51971 0.0
C205 C 0.9933 0.43314 0.54036 0.0
C206 C 1.00762 0.43372 0.47137 0.0
C207 C 0.99925 0.42626 0.38188 0.0
C208 C 0.9773 0.41909 0.36131 0.0
C209 C 0.89544 0.38053 0.15262 0.0
C210 C 0.90589 0.34192 0.28513 0.0
C211 C 0.82722 0.31644 0.22487 0.0
C212 C 0.80363 0.30813 0.2405 0.0
C213 C 0.79381 0.32072 0.22034 0.0
C214 C 0.77124 0.31191 0.23141 0.0
C215 C 0.75799 0.2903 0.26263 0.0
C216 C 0.76798 0.27793 0.28404 0.0
C217 C 0.79046 0.2867 0.27273 0.0
C218 C 0.87447 0.35292 0.46362 0.0
C219 C 0.86462 0.39118 0.31075 0.0
O220 O 0.92489 0.39747 0.45101 0.0
O221 O 0.93608 0.41587 0.32252 0.0
O222 O 0.89233 0.36597 0.21042 0.0
O223 O 0.90699 0.39957 0.19093 0.0
O224 O 0.91595 0.36128 0.32682 0.0
O225 O 0.88606 0.3341 0.24987 0.0
O226 O 0.83883 0.33576 0.18717 0.0
O227 O 0.83773 0.31316 0.29166 0.0
O228 O 0.87695 0.3667 0.40347 0.0
O229 O 0.86392 0.33367 0.42715 0.0
O230 O 0.85412 0.37072 0.28031 0.0
O231 O 0.88468 0.40015 0.34472 0.0
H232 H 0.96099 0.42646 0.57358 0.0
H233 H 0.99917 0.43899 0.60965 0.0
H234 H 1.00973 0.4262 0.32739 0.0
H235 H 0.97145 0.41386 0.29145 0.0
H236 H 0.80347 0.33727 0.19483 0.0
H237 H 0.76412 0.32185 0.21332 0.0
H238 H 0.75842 0.26139 0.30978 0.0
H239 H 0.79756 0.2766 0.28854 0.0
Tb240 Tb 0.36517 0.87114 0.6631 0.0
Tb241 Tb 0.406 0.86921 0.62002 0.0
C242 C 0.33765 0.87819 0.74332 0.0
C243 C 0.33254 0.89564 0.76399 0.0
C244 C 0.32584 0.89712 0.85377 0.0
C245 C 0.31863 0.91183 0.87405 0.0
C246 C 0.31789 0.9254 0.80476 0.0
C247 C 0.3253 0.92439 0.71533 0.0
C248 C 0.33258 0.90968 0.69513 0.0
C249 C 0.37118 0.86669 0.48619 0.0
C250 C 0.41002 0.91535 0.6214 0.0
C251 C 0.43466 0.86183 0.55351 0.0
C252 C 0.44241 0.84612 0.5647 0.0
C253 C 0.45786 0.84672 0.50237 0.0
C254 C 0.46653 0.83293 0.51418 0.0
C255 C 0.45996 0.81824 0.58894 0.0
C256 C 0.44404 0.81736 0.65031 0.0
C257 C 0.43535 0.8312 0.63832 0.0
C258 C 0.39881 0.87258 0.79702 0.0
C259 C 0.36012 0.82475 0.64438 0.0
O260 O 0.35464 0.87934 0.78501 0.0
O261 O 0.33581 0.87159 0.65733 0.0
O262 O 0.38574 0.8779 0.54458 0.0
O263 O 0.35216 0.8593 0.52427 0.0
O264 O 0.39058 0.90607 0.66204 0.0
O265 O 0.41784 0.90334 0.58603 0.0
O266 O 0.41526 0.85437 0.51713 0.0
O267 O 0.43801 0.87484 0.62371 0.0
O268 O 0.38491 0.86146 0.73665 0.0
O269 O 0.41803 0.88101 0.76061 0.0
O270 O 0.38055 0.83449 0.61394 0.0
O271 O 0.35139 0.83605 0.67841 0.0
H272 H 0.32555 0.88638 0.90787 0.0
H273 H 0.31283 0.91193 0.94331 0.0
H274 H 0.32524 0.93481 0.66061 0.0
H275 H 0.33777 0.90897 0.62531 0.0
H276 H 0.46343 0.85808 0.44492 0.0
H277 H 0.4784 0.83379 0.46455 0.0
H278 H 0.4387 0.80637 0.70895 0.0
H279 H 0.42342 0.83053 0.68725 0.0
Tb280 Tb 0.21394 0.51192 0.665 0.0
Tb281 Tb 0.21507 0.55428 0.62363 0.0
C282 C 0.20724 0.47717 0.74222 0.0
C283 C 0.19055 0.45383 0.75396 0.0
C284 C 0.17039 0.44717 0.7975 0.0
C285 C 0.15597 0.42499 0.81573 0.0
C286 C 0.1614 0.40903 0.79057 0.0
C287 C 0.18139 0.41579 0.7454 0.0
C288 C 0.19577 0.43789 0.7276 0.0
C289 C 0.21841 0.52257 0.48846 0.0
C290 C 0.16934 0.51175 0.62134 0.0
C291 C 0.22224 0.59064 0.56219 0.0
C292 C 0.23764 0.61425 0.57716 0.0
C293 C 0.26 0.62399 0.55598 0.0
C294 C 0.27384 0.64658 0.5664 0.0
C295 C 0.26563 0.65994 0.59796 0.0
C296 C 0.24333 0.65004 0.62044 0.0
C297 C 0.22953 0.62753 0.60979 0.0
C298 C 0.2116 0.54336 0.80015 0.0
C299 C 0.2599 0.55382 0.64886 0.0
O300 O 0.20388 0.49185 0.78253 0.0
O301 O 0.21594 0.48329 0.65997 0.0
O302 O 0.20697 0.52561 0.54664 0.0
O303 O 0.2259 0.51103 0.52629 0.0
O304 O 0.1788 0.50171 0.66158 0.0
O305 O 0.18118 0.53171 0.5872 0.0
O306 O 0.22976 0.57895 0.52341 0.0
O307 O 0.20872 0.58023 0.62988 0.0
O308 O 0.22306 0.54105 0.74008 0.0
O309 O 0.20279 0.55378 0.76383 0.0
O310 O 0.24984 0.56403 0.61667 0.0
O311 O 0.24885 0.53391 0.68422 0.0
H312 H 0.16589 0.45908 0.81892 0.0
H313 H 0.14062 0.42034 0.8498 0.0
H314 H 0.18631 0.40406 0.72633 0.0
H315 H 0.21131 0.44258 0.69508 0.0
H316 H 0.26677 0.61424 0.53016 0.0
H317 H 0.29086 0.65363 0.54752 0.0
H318 H 0.23647 0.65968 0.64649 0.0
H319 H 0.21237 0.62049 0.62642 0.0
Tb320 Tb 0.57228 0.71972 0.66277 0.0
Tb321 Tb 0.52948 0.67893 0.62012 0.0
C322 C 0.60714 0.74739 0.741 0.0
C323 C 0.63048 0.75404 0.75225 0.0
C324 C 0.63718 0.74071 0.79706 0.0
C325 C 0.65937 0.74856 0.81535 0.0
C326 C 0.67531 0.76985 0.78909 0.0
C327 C 0.66851 0.78289 0.74259 0.0
C328 C 0.64641 0.7751 0.72468 0.0
C329 C 0.56173 0.71372 0.48587 0.0
C330 C 0.57157 0.67486 0.6185 0.0
C331 C 0.49314 0.65044 0.55533 0.0
C332 C 0.4698 0.64319 0.56823 0.0
C333 C 0.45526 0.63293 0.4947 0.0
C334 C 0.43287 0.62482 0.50633 0.0
C335 C 0.42451 0.62673 0.59205 0.0
C336 C 0.43922 0.63736 0.66537 0.0
C337 C 0.46167 0.64558 0.65347 0.0
C338 C 0.54031 0.6861 0.79693 0.0
C339 C 0.53087 0.72467 0.64713 0.0
O340 O 0.59247 0.72918 0.78009 0.0
O341 O 0.60096 0.75032 0.65944 0.0
O342 O 0.55834 0.69916 0.54408 0.0
O343 O 0.57359 0.73271 0.52395 0.0
O344 O 0.58193 0.69439 0.65875 0.0
O345 O 0.55161 0.667 0.58455 0.0
O346 O 0.50523 0.66968 0.51787 0.0
O347 O 0.50297 0.647 0.62449 0.0
O348 O 0.54299 0.70001 0.73705 0.0
O349 O 0.5295 0.66688 0.76025 0.0
O350 O 0.52034 0.70443 0.61426 0.0
O351 O 0.55074 0.73314 0.68266 0.0
H352 H 0.6253 0.72441 0.81954 0.0
H353 H 0.66404 0.73799 0.85046 0.0
H354 H 0.68022 0.79947 0.72263 0.0
H355 H 0.64169 0.78583 0.69125 0.0
H356 H 0.46121 0.63088 0.42846 0.0
H357 H 0.42204 0.61653 0.44872 0.0
H358 H 0.43338 0.63936 0.73189 0.0
H359 H 0.47263 0.65358 0.71108 0.0
H360 H 0.06464 0.2787 -0.00054 0.0
H361 H 0.11583 0.27203 0.86732 0.0
H362 H 0.08373 0.31756 0.95972 0.0
H363 H 0.13484 0.31062 0.82908 0.0
H364 H 0.15139 0.37335 0.68266 0.0
H365 H 0.13029 0.33493 0.72472 0.0
H366 H 0.11714 0.35271 -0.00685 0.0
H367 H 0.13837 0.39131 0.95101 0.0
C368 C 0.08001 0.2855 0.96262 0.0
C369 C 0.0886 0.27214 0.93618 0.0
C370 C 0.09097 0.3078 0.94005 0.0
C371 C 0.11071 0.31719 0.89021 0.0
C372 C 0.11946 0.30388 0.86574 0.0
C373 C 0.10859 0.28171 0.8884 0.0
C374 C 0.14404 0.36911 0.75075 0.0
C375 C 0.14679 0.38549 0.8137 0.0
C376 C 0.13195 0.34705 0.77496 0.0
C377 C 0.12223 0.34069 0.86284 0.0
C378 C 0.12428 0.357 0.92472 0.0
C379 C 0.13643 0.37915 0.90046 0.0
H380 H 0.81248 0.86135 0.86593 0.0
H381 H 0.8054 0.80366 0.00091 0.0
H382 H 0.77388 0.84186 0.8273 0.0
H383 H 0.76656 0.78398 0.96088 0.0
H384 H 0.69302 0.76508 0.95066 0.0
H385 H 0.7316 0.78256 -0.0067 0.0
H386 H 0.74939 0.81273 0.72373 0.0
H387 H 0.71098 0.79527 0.68112 0.0
C388 C 0.8027 0.8445 0.88761 0.0
C389 C 0.81215 0.83409 0.93634 0.0
C390 C 0.78053 0.83325 0.86472 0.0
C391 C 0.76712 0.81125 0.88994 0.0
C392 C 0.7764 0.80094 0.94067 0.0
C393 C 0.79868 0.81221 0.96344 0.0
C394 C 0.70518 0.77516 0.89996 0.0
C395 C 0.69884 0.7789 0.81267 0.0
C396 C 0.72731 0.78522 0.92452 0.0
C397 C 0.74362 0.79929 0.86243 0.0
C398 C 0.73727 0.80242 0.77411 0.0
C399 C 0.71521 0.79237 0.74959 0.0
H400 H 0.2243 0.96914 0.86892 0.0
H401 H 0.28206 1.02161 -0.00331 0.0
H402 H 0.24422 0.95029 0.83344 0.0
H403 H 0.30218 1.00278 0.95952 0.0
H404 H 0.32306 0.94998 0.96046 0.0
H405 H 0.30463 0.97041 -0.00179 0.0
H406 H 0.27281 0.95366 0.7314 0.0
H407 H 0.29057 0.93264 0.69509 0.0
C408 C 0.24128 0.97671 0.88947 0.0
C409 C 0.25155 0.99697 0.93549 0.0
C410 C 0.25277 0.96593 0.86838 0.0
C411 C 0.2749 0.97508 0.89266 0.0
C412 C 0.28512 0.99518 0.94023 0.0
C413 C 0.27359 1.00601 0.96132 0.0
C414 C 0.3121 0.95063 0.9099 0.0
C415 C 0.30825 0.93954 0.82484 0.0
C416 C 0.30169 0.96253 0.93123 0.0
C417 C 0.28708 0.96357 0.86821 0.0
C418 C 0.28368 0.95295 0.78225 0.0
C419 C 0.29412 0.94111 0.76085 0.0
H420 H 0.47222 0.13726 0.33274 0.0
H421 H 0.47912 0.19516 0.20048 0.0
H422 H 0.43337 0.11759 0.29302 0.0
H423 H 0.44051 0.17569 0.1622 0.0
H424 H 0.37763 0.12942 0.01562 0.0
H425 H 0.41606 0.14678 0.05792 0.0
H426 H 0.39835 0.11599 0.3263 0.0
H427 H 0.35976 0.09858 0.28391 0.0
C428 C 0.46547 0.14586 0.29594 0.0
C429 C 0.47889 0.16779 0.26946 0.0
C430 C 0.44317 0.13459 0.27335 0.0
C431 C 0.43383 0.14497 0.22345 0.0
C432 C 0.44721 0.16702 0.19893 0.0
C433 C 0.46939 0.17826 0.22161 0.0
C434 C 0.38189 0.12636 0.08376 0.0
C435 C 0.36554 0.11274 0.1466 0.0
C436 C 0.40395 0.13635 0.10811 0.0
C437 C 0.41033 0.13303 0.19602 0.0
C438 C 0.39404 0.11881 0.25783 0.0
C439 C 0.3719 0.10879 0.23343 0.0
H440 H 0.89068 0.3029 0.19604 0.0
H441 H 0.94816 0.35374 0.33216 0.0
H442 H 0.9103 0.28391 0.158 0.0
H443 H 0.96798 0.33468 0.29273 0.0
H444 H 0.98677 0.27979 0.28409 0.0
H445 H 0.96942 0.30108 0.32564 0.0
H446 H 0.9395 0.28859 0.05524 0.0
H447 H 0.95682 0.26744 0.01372 0.0
C448 C 0.90752 0.31007 0.21804 0.0
C449 C 0.91782 0.32994 0.26697 0.0
C450 C 0.91885 0.29921 0.1955 0.0
C451 C 0.94082 0.30786 0.22125 0.0
C452 C 0.95105 0.3275 0.27209 0.0
C453 C 0.93969 0.33846 0.29451 0.0
C454 C 0.97677 0.28188 0.23298 0.0
C455 C 0.97304 0.27169 0.1458 0.0
C456 C 0.96679 0.29407 0.25691 0.0
C457 C 0.95282 0.29633 0.19428 0.0
C458 C 0.94974 0.28678 0.10603 0.0
C459 C 0.9597 0.27465 0.08214 0.0
H460 H 0.80135 0.72418 0.29624 0.0
H461 H 0.81982 0.70846 0.03475 0.0
H462 H 0.7813 0.68544 0.33604 0.0
H463 H 0.79915 0.66977 0.07298 0.0
H464 H 0.7834 0.60616 0.21388 0.0
H465 H 0.8023 0.6449 0.17757 0.0
H466 H 0.74933 0.65043 0.29746 0.0
H467 H 0.73048 0.61156 0.33555 0.0
C468 C 0.80104 0.71247 0.24697 0.0
C469 C 0.81232 0.71952 0.16238 0.0
C470 C 0.78936 0.69022 0.26946 0.0
C471 C 0.78871 0.67444 0.2081 0.0
C472 C 0.79955 0.68147 0.12262 0.0
C473 C 0.81118 0.70368 0.10008 0.0
C474 C 0.77576 0.61559 0.23302 0.0
C475 C 0.75535 0.60564 0.27751 0.0
C476 C 0.78656 0.63784 0.21143 0.0
C477 C 0.77727 0.65081 0.23361 0.0
C478 C 0.75704 0.64098 0.27983 0.0
C479 C 0.7462 0.61866 0.30146 0.0
H480 H 0.14497 0.52696 0.53758 0.0
H481 H 0.13941 0.46911 0.6647 0.0
H482 H 0.10622 0.50711 0.50172 0.0
H483 H 0.10046 0.44906 0.62719 0.0
H484 H 1.0268 0.42849 0.62741 0.0
H485 H 0.06563 0.44677 0.66569 0.0
H486 H 0.08108 0.47849 0.39898 0.0
H487 H 0.04233 0.46086 0.36211 0.0
C488 C 0.1355 0.50998 0.55792 0.0
C489 C 0.14541 0.49965 0.60384 0.0
C490 C 0.11324 0.49852 0.53662 0.0
C491 C 0.1002 0.47639 0.56058 0.0
C492 C 0.10998 0.46612 0.60811 0.0
C493 C 0.13234 0.47761 0.6294 0.0
C494 C 1.03849 0.43939 0.57699 0.0
C495 C 1.03137 0.44326 0.49179 0.0
C496 C 0.06078 0.44972 0.59862 0.0
C497 C 0.07652 0.46426 0.53579 0.0
C498 C 0.06942 0.46767 0.44968 0.0
C499 C 0.04717 0.45731 0.42797 0.0
H500 H 0.55595 0.63552 0.53144 0.0
H501 H 0.61396 0.68674 0.66301 0.0
H502 H 0.57542 0.61639 0.49283 0.0
H503 H 0.63363 0.66759 0.62281 0.0
H504 H 0.65302 0.61339 0.61398 0.0
H505 H 0.63551 0.63447 0.65611 0.0
H506 H 0.60404 0.62046 0.38871 0.0
H507 H 0.6215 0.59946 0.34669 0.0
C508 C 0.57288 0.64274 0.5523 0.0
C509 C 0.58338 0.66276 0.6001 0.0
C510 C 0.58412 0.63181 0.52941 0.0
C511 C 0.6062 0.64055 0.55364 0.0
C512 C 0.61661 0.66034 0.60338 0.0
C513 C 0.60534 0.67135 0.6262 0.0
C514 C 0.64263 0.61509 0.56363 0.0
C515 C 0.63855 0.60454 0.47715 0.0
C516 C 0.63256 0.62716 0.58789 0.0
C517 C 0.61813 0.62896 0.52631 0.0
C518 C 0.61464 0.619 0.43876 0.0
C519 C 0.62469 0.60697 0.41455 0.0
H520 H 0.46849 0.05783 0.62717 0.0
H521 H 0.48671 0.04247 0.36431 0.0
H522 H 0.44834 1.01904 0.66577 0.0
H523 H 0.46594 1.00372 0.40137 0.0
H524 H 0.44996 0.93975 0.54008 0.0
H525 H 0.46898 0.97855 0.50463 0.0
H526 H 0.41626 0.9842 0.62649 0.0
H527 H 0.39729 0.94528 0.66365 0.0
C528 C 0.4681 0.04619 0.57735 0.0
C529 C 0.47933 0.05335 0.49272 0.0
C530 C 0.45636 1.0239 0.59915 0.0
C531 C 0.45562 1.0082 0.53704 0.0
C532 C 0.46643 1.01535 0.45155 0.0
C533 C 0.47811 0.0376 0.42969 0.0
C534 C 0.4424 0.94922 0.55978 0.0
C535 C 0.42203 0.9393 0.60461 0.0
C536 C 0.45327 0.9715 0.53871 0.0
C537 C 0.44409 0.98453 0.56178 0.0
C538 C 0.42389 0.97472 0.60823 0.0
C539 C 0.41298 0.95237 0.62934 0.0
H540 H 0.21232 0.09913 0.0405 0.0
H541 H 0.1561 0.0442 0.91572 0.0
H542 H 0.19408 0.12059 0.03054 0.0
H543 H 0.13777 0.06553 0.90729 0.0
H544 H 0.12347 0.11871 0.80491 0.0
H545 H 0.14054 0.09631 0.82165 0.0
H546 H 0.1638 0.12376 0.09325 0.0
H547 H 0.14727 0.14669 0.07522 0.0
C548 C 0.19601 0.09154 0.01162 0.0
C549 C 0.18575 0.06992 0.97866 0.0
C550 C 0.18549 0.10383 0.00638 0.0
C551 C 0.16445 0.09484 0.96788 0.0
C552 C 0.15408 0.07311 0.93612 0.0
C553 C 0.16458 0.06081 0.94148 0.0
C554 C 0.13229 0.12004 0.86808 0.0
C555 C 0.13404 0.13458 0.93855 0.0
C556 C 0.1419 0.10701 0.87812 0.0
C557 C 0.15359 0.10821 0.95881 0.0
C558 C 0.15512 0.12257 0.02979 0.0
C559 C 0.14543 0.13554 0.01989 0.0
H560 H 0.93671 1.01815 0.0736 0.0
H561 H 0.9658 1.02211 0.80637 0.0
H562 H 0.95951 0.05766 0.09176 0.0
H563 H 0.98805 0.06162 0.82315 0.0
H564 H 1.03998 0.12919 0.91918 0.0
H565 H 1.01848 0.08952 0.91068 0.0
H566 H 0.96319 0.09125 0.02784 0.0
H567 H 0.98483 0.13099 0.03791 0.0
C568 C 0.94806 1.02742 0.01897 0.0
C569 C 0.94939 1.01691 0.93848 0.0
C570 C 0.96096 0.05012 0.02892 0.0
C571 C 0.97561 0.06289 0.95885 0.0
C572 C 0.97713 0.05232 0.87895 0.0
C573 C 0.96418 0.02966 0.86886 0.0
C574 C 1.02327 0.12116 0.94355 0.0
C575 C 1.01415 0.13337 0.97905 0.0
C576 C 1.01088 0.09836 0.93814 0.0
C577 C 0.98904 0.08713 0.96812 0.0
C578 C 0.98002 0.09931 0.00502 0.0
C579 C 0.99241 0.12215 0.01035 0.0
H580 H 0.95578 0.92761 0.92204 0.0
H581 H 0.95234 0.86896 0.02962 0.0
H582 H 0.99541 0.94482 0.91198 0.0
H583 H 0.99196 0.88632 0.02078 0.0
H584 H 0.05947 0.91451 0.88712 0.0
H585 H 1.0201 0.89806 0.90235 0.0
H586 H 1.02851 0.95905 0.00687 0.0
H587 H 0.06807 0.97555 -0.00758 0.0
C588 C 0.96345 0.91841 0.94414 0.0
C589 C 0.95079 0.89683 0.97636 0.0
C590 C 0.98622 0.92835 0.93881 0.0
C591 C 0.99691 0.91694 0.96521 0.0
C592 C 0.98426 0.89548 -0.00144 0.0
C593 C 0.96151 0.88556 0.00417 0.0
C594 C 0.053 0.9244 0.91445 0.0
C595 C 0.06706 0.94637 0.93903 0.0
C596 C 1.03037 0.91493 0.92312 0.0
C597 C 1.02109 0.92717 0.95628 0.0
C598 C 1.03508 0.9492 0.98016 0.0
C599 C 0.05778 0.95868 0.97175 0.0
H600 H 0.81492 0.48094 0.40503 0.0
H601 H 0.79005 0.45216 0.13684 0.0
H602 H 0.83179 0.4583 0.42205 0.0
H603 H 0.80745 0.43003 0.15256 0.0
H604 H 0.82335 0.37818 0.24784 0.0
H605 H 0.80506 0.39954 0.23931 0.0
H606 H 0.86189 0.455 0.35732 0.0
H607 H 0.88012 0.43352 0.36735 0.0
C608 C 0.81292 0.46968 0.34993 0.0
C609 C 0.80111 0.4684 0.26952 0.0
C610 C 0.82282 0.45688 0.35923 0.0
C611 C 0.82106 0.44236 0.28859 0.0
C612 C 0.80899 0.44087 0.20876 0.0
C613 C 0.79919 0.45373 0.1993 0.0
C614 C 0.83197 0.3949 0.27236 0.0
C615 C 0.85328 0.4041 0.30817 0.0
C616 C 0.82149 0.40721 0.26693 0.0
C617 C 0.832 0.42904 0.29727 0.0
C618 C 0.85319 0.43816 0.33426 0.0
C619 C 0.86371 0.42586 0.33954 0.0
H620 H 0.65179 0.46499 0.38176 0.0
H621 H 0.70566 0.46208 0.25552 0.0
H622 H 0.62963 0.42533 0.37318 0.0
H623 H 0.68333 0.42244 0.24536 0.0
H624 H 0.64311 0.34959 0.31361 0.0
H625 H 0.66586 0.38902 0.33588 0.0
H626 H 0.61162 0.3974 0.25679 0.0
H627 H 0.58874 0.35808 0.23804 0.0
C628 C 0.65895 0.45592 0.35233 0.0
C629 C 0.68053 0.46681 0.31911 0.0
C630 C 0.64617 0.43314 0.34687 0.0
C631 C 0.65462 0.42063 0.3081 0.0
C632 C 0.67634 0.43149 0.27652 0.0
C633 C 0.68912 0.45428 0.28187 0.0
C634 C 0.63598 0.35983 0.30202 0.0
C635 C 0.61409 0.35061 0.27361 0.0
C636 C 0.64909 0.38247 0.31386 0.0
C637 C 0.64062 0.39645 0.29801 0.0
C638 C 0.61866 0.38717 0.27064 0.0
C639 C 0.6056 0.36459 0.25867 0.0
H640 H 0.61916 0.20303 0.36168 0.0
H641 H 0.62252 0.26173 0.25533 0.0
H642 H 0.65877 0.22042 0.35277 0.0
H643 H 0.66217 0.27898 0.24516 0.0
H644 H 0.73488 0.30962 0.32516 0.0
H645 H 0.69533 0.29315 0.33977 0.0
H646 H 0.68682 0.23222 0.23396 0.0
H647 H 0.72618 0.24863 0.2186 0.0
C648 C 0.62831 0.21965 0.33649 0.0
C649 C 0.61757 0.23092 0.30899 0.0
C650 C 0.65106 0.22959 0.33083 0.0
C651 C 0.66369 0.25108 0.29773 0.0
C652 C 0.65299 0.26249 0.27174 0.0
C653 C 0.63021 0.25253 0.27712 0.0
C654 C 0.72457 0.29276 0.30425 0.0
C655 C 0.73382 0.28046 0.27116 0.0
C656 C 0.70188 0.28331 0.31274 0.0
C657 C 0.68786 0.2613 0.28858 0.0
C658 C 0.69711 0.24907 0.25498 0.0
C659 C 0.71974 0.25851 0.24623 0.0
H660 H 0.48991 0.71272 0.58287 0.0
H661 H 0.54691 0.76673 0.70793 0.0
H662 H 0.47263 0.73504 0.57348 0.0
H663 H 0.52942 0.78889 0.70017 0.0
H664 H 0.50284 0.82969 0.56741 0.0
H665 H 0.51932 0.80685 0.58497 0.0
H666 H 0.45678 0.75253 0.66449 0.0
H667 H 0.44006 0.77523 0.64333 0.0
C668 C 0.49871 0.72929 0.60911 0.0
C669 C 0.51988 0.73792 0.64579 0.0
C670 C 0.48871 0.74207 0.60421 0.0
C671 C 0.49962 0.76383 0.63574 0.0
C672 C 0.52064 0.77232 0.6739 0.0
C673 C 0.53064 0.75954 0.67887 0.0
C674 C 0.49252 0.81282 0.58786 0.0
C675 C 0.47005 0.8043 0.60324 0.0
C676 C 0.50206 0.79978 0.59916 0.0
C677 C 0.48942 0.77781 0.6263 0.0
C678 C 0.46698 0.7693 0.6426 0.0
C679 C 0.45742 0.78239 0.63142 0.0
H680 H 0.30823 0.68315 0.65852 0.0
H681 H 0.25577 0.69171 0.55405 0.0
H682 H 0.3314 0.72274 0.67222 0.0
H683 H 0.2788 0.7311 0.56848 0.0
H684 H 0.3174 0.79887 0.69572 0.0
H685 H 0.29521 0.75923 0.68704 0.0
H686 H 0.35027 0.75589 0.57746 0.0
H687 H 0.37264 0.79558 0.58741 0.0
C688 C 0.30166 0.69343 0.63786 0.0
C689 C 0.28003 0.68414 0.6057 0.0
C690 C 0.31496 0.71615 0.64582 0.0
C691 C 0.30694 0.73014 0.62204 0.0
C692 C 0.28539 0.72084 0.58922 0.0
C693 C 0.27215 0.69819 0.58102 0.0
C694 C 0.32485 0.78973 0.67012 0.0
C695 C 0.34683 0.8005 0.64201 0.0
C696 C 0.31206 0.76696 0.6646 0.0
C697 C 0.32089 0.75434 0.63099 0.0
C698 C 0.34298 0.76507 0.6044 0.0
C699 C 0.35578 0.78787 0.60966 0.0
H700 H 0.39512 0.62797 0.47226 0.0
H701 H 0.39951 0.60378 0.74093 0.0
H702 H 0.35565 0.61076 0.48959 0.0
H703 H 0.36005 0.58711 0.7596 0.0
H704 H 0.2868 0.5386 0.7069 0.0
H705 H 0.32651 0.55688 0.69653 0.0
H706 H 0.32775 0.6134 0.57664 0.0
H707 H 0.28809 0.59504 0.58546 0.0
C708 C 0.38767 0.61903 0.53519 0.0
C709 C 0.40052 0.61722 0.60503 0.0
C710 C 0.36503 0.60934 0.54558 0.0
C711 C 0.35461 0.59751 0.62601 0.0
C712 C 0.36748 0.5959 0.69635 0.0
C713 C 0.39016 0.60568 0.68609 0.0
C714 C 0.29553 0.55496 0.67869 0.0
C715 C 0.28417 0.56527 0.64673 0.0
C716 C 0.31834 0.56551 0.6732 0.0
C717 C 0.33038 0.58662 0.63547 0.0
C718 C 0.31902 0.59703 0.60481 0.0
C719 C 0.29623 0.58652 0.61039 0.0
H720 H 0.07667 0.21354 0.7321 0.0
H721 H 1.00777 0.18669 0.68243 0.0
H722 H 0.08308 0.21452 0.56625 0.0
H723 H 1.01419 0.18913 0.51631 0.0
H724 H 1.02875 0.17672 0.22408 0.0
H725 H 1.02218 0.17452 0.3901 0.0
H726 H 0.08526 0.23248 0.43027 0.0
H727 H 0.09221 0.23361 0.26459 0.0
C728 C 0.0629 0.2079 0.68545 0.0
C729 C 1.04171 0.19985 0.72006 0.0
C730 C 0.06658 0.20873 0.59006 0.0
C731 C 0.0492 0.20201 0.52678 0.0
C732 C 1.02798 0.19406 0.56215 0.0
C733 C 1.02427 0.19279 0.6576 0.0
C734 C 1.04117 0.18895 0.26872 0.0
C735 C 0.06103 0.20527 0.23187 0.0
C736 C 1.03737 0.18782 0.36407 0.0
C737 C 0.05318 0.20329 0.4247 0.0
C738 C 0.07287 0.21993 0.38675 0.0
C739 C 0.07683 0.22075 0.29157 0.0
H740 H 0.87098 0.88042 0.73186 0.0
H741 H 0.89732 0.83794 0.68207 0.0
H742 H 0.87019 0.886 0.5661 0.0
H743 H 0.89507 0.84208 0.51592 0.0
H744 H 0.90764 0.86906 0.22373 0.0
H745 H 0.90977 0.86458 0.38975 0.0
H746 H 0.85228 0.87047 0.4297 0.0
H747 H 0.85123 0.87637 0.26412 0.0
C748 C 0.87655 0.87222 0.6852 0.0
C749 C 0.8844 0.85892 0.7198 0.0
C750 C 0.87582 0.87516 0.58982 0.0
C751 C 0.88245 0.86443 0.52645 0.0
C752 C 0.89022 0.851 0.5618 0.0
C753 C 0.89138 0.84847 0.65728 0.0
C754 C 0.8955 0.86939 0.26834 0.0
C755 C 0.87933 0.87316 0.23143 0.0
C756 C 0.89658 0.86666 0.3637 0.0
C757 C 0.88123 0.86718 0.42431 0.0
C758 C 0.86475 0.87048 0.38627 0.0
C759 C 0.86397 0.87366 0.29111 0.0
H760 H 0.24575 0.0771 0.68264 0.0
H761 H 0.20386 1.00813 0.73136 0.0
H762 H 0.24188 0.0707 0.51642 0.0
H763 H 0.19858 1.00172 0.56535 0.0
H764 H 0.20918 0.99281 0.26398 0.0
H765 H 0.2148 0.99978 0.42977 0.0
H766 H 0.21917 0.06251 0.39014 0.0
H767 H 0.21497 0.05593 0.224 0.0
C768 C 0.23541 0.06059 0.65757 0.0
C769 C 0.22506 0.04312 0.71973 0.0
C770 C 0.23303 0.05689 0.56209 0.0
C771 C 0.21987 0.03565 0.52646 0.0
C772 C 0.20922 1.01824 0.58944 0.0
C773 C 0.21199 1.02191 0.68488 0.0
C774 C 0.2115 1.00812 0.2911 0.0
C775 C 0.21165 1.02382 0.23155 0.0
C776 C 0.21452 1.01208 0.38631 0.0
C777 C 0.2173 0.03168 0.4244 0.0
C778 C 0.21748 0.04739 0.36393 0.0
C779 C 0.21492 0.04359 0.26855 0.0
H780 H 0.69305 0.52114 0.55857 0.0
H781 H 0.76242 0.55326 0.60886 0.0
H782 H 0.6864 0.52007 0.72419 0.0
H783 H 0.7559 0.5505 0.77462 0.0
H784 H 0.74052 0.56269 0.06386 0.0
H785 H 0.74674 0.56435 0.89808 0.0
H786 H 0.68537 0.50404 0.86331 0.0
H787 H 0.67861 0.50351 0.02912 0.0
C788 C 0.70688 0.52797 0.60527 0.0
C789 C 0.72826 0.53768 0.57085 0.0
C790 C 0.70308 0.52703 0.70062 0.0
C791 C 0.72058 0.53523 0.76402 0.0
C792 C 0.74197 0.54451 0.72879 0.0
C793 C 0.74575 0.54594 0.63347 0.0
C794 C 0.72839 0.54981 0.02051 0.0
C795 C 0.70906 0.533 0.05892 0.0
C796 C 0.73201 0.55062 0.9252 0.0
C797 C 0.71662 0.5343 0.86607 0.0
C798 C 0.69743 0.51721 0.90556 0.0
C799 C 0.69359 0.51673 0.00079 0.0
H800 H 0.51795 0.21019 0.59657 0.0
H801 H 0.57445 0.20304 0.55631 0.0
H802 H 0.51897 0.20425 0.76213 0.0
H803 H 0.57655 0.19853 0.72232 0.0
H804 H 0.56416 0.17186 0.01456 0.0
H805 H 0.56191 0.17601 0.84842 0.0
H806 H 0.53678 0.21973 0.89869 0.0
H807 H 0.53757 0.21412 0.06442 0.0
C808 C 0.5307 0.20751 0.62359 0.0
C809 C 0.5461 0.20706 0.56393 0.0
C810 C 0.53147 0.20431 0.71874 0.0
C811 C 0.54796 0.20105 0.75683 0.0
C812 C 0.56335 0.20058 0.69624 0.0
C813 C 0.56228 0.20333 0.60088 0.0
C814 C 0.55815 0.18234 -0.01021 0.0
C815 C 0.55111 0.19273 0.05234 0.0
C816 C 0.557 0.18489 0.89431 0.0
C817 C 0.54917 0.19826 0.85897 0.0
C818 C 0.54247 0.20893 0.92237 0.0
C819 C 0.54319 0.20598 0.01776 0.0
H820 H 0.87565 0.32633 0.59622 0.0
H821 H 0.88191 0.38963 0.55589 0.0
H822 H 0.8813 0.33332 0.76198 0.0
H823 H 0.88617 0.39626 0.72203 0.0
H824 H 0.91275 0.41072 0.01488 0.0
H825 H 0.90878 0.40434 0.84861 0.0
H826 H 0.86522 0.33541 0.89758 0.0
H827 H 0.8706 0.3418 0.06354 0.0
C828 C 0.87809 0.34169 0.62325 0.0
C829 C 0.87836 0.35743 0.56358 0.0
C830 C 0.88112 0.34566 0.71847 0.0
C831 C 0.88404 0.36533 0.7565 0.0
C832 C 0.88436 0.38109 0.69591 0.0
C833 C 0.88177 0.37726 0.60051 0.0
C834 C 0.90234 0.39423 -0.0102 0.0
C835 C 0.89195 0.37676 0.05199 0.0
C836 C 0.8999 0.39054 0.89428 0.0
C837 C 0.88665 0.36931 0.85862 0.0
C838 C 0.87594 0.35192 0.92164 0.0
C839 C 0.87876 0.35558 0.01708 0.0
H840 H 0.34105 0.85374 0.34783 0.0
H841 H 0.40995 0.88076 0.39751 0.0
H842 H 0.34745 0.85601 0.18168 0.0
H843 H 0.41636 0.88157 0.23174 0.0
H844 H 0.42556 0.90036 0.92978 0.0
H845 H 0.4186 0.89931 0.09538 0.0
H846 H 0.35542 0.84146 0.05531 0.0
H847 H 0.36202 0.84359 0.88928 0.0
C848 C 0.35755 0.85984 0.32302 0.0
C849 C 0.37499 0.867 0.38552 0.0
C850 C 0.36125 0.86101 0.22752 0.0
C851 C 0.38247 0.86896 0.19212 0.0
C852 C 0.39985 0.87578 0.25547 0.0
C853 C 0.39618 0.87504 0.35088 0.0
C854 C 0.41015 0.88754 0.95675 0.0
C855 C 0.39434 0.87208 0.89701 0.0
C856 C 0.40619 0.88676 0.05193 0.0
C857 C 0.38646 0.87018 0.08996 0.0
C858 C 0.37064 0.85473 0.02929 0.0
C859 C 0.37446 0.85581 0.93391 0.0
H860 H 0.24096 0.53612 0.89218 0.0
H861 H 0.18367 0.54193 0.93265 0.0
H862 H 0.24331 0.53189 0.05822 0.0
H863 H 0.18498 0.53628 0.09833 0.0
H864 H 0.20422 0.54716 0.39999 0.0
H865 H 0.20312 0.55247 0.23409 0.0
H866 H 0.22878 0.50918 0.18427 0.0
H867 H 0.23128 0.5053 0.3504 0.0
C868 C 0.22867 0.53616 0.93681 0.0
C869 C 0.21219 0.53945 0.89998 0.0
C870 C 0.22989 0.53358 0.03215 0.0
C871 C 0.21437 0.53377 0.09273 0.0
C872 C 0.19757 0.53656 0.05479 0.0
C873 C 0.19664 0.53959 0.95964 0.0
C874 C 0.20987 0.53904 0.35334 0.0
C875 C 0.218 0.52598 0.38793 0.0
C876 C 0.20898 0.54182 0.25795 0.0
C877 C 0.21575 0.53118 0.19475 0.0
C878 C 0.22381 0.51802 0.23011 0.0
C879 C 0.22512 0.51563 0.32554 0.0
H880 H 0.53674 0.67497 0.39699 0.0
H881 H 0.57933 0.7438 0.34791 0.0
H882 H 0.53127 0.66855 0.2311 0.0
H883 H 0.57531 0.73737 0.18173 0.0
H884 H 0.54835 0.72296 0.88946 0.0
H885 H 0.55275 0.72955 0.05552 0.0
H886 H 0.54694 0.66617 0.095 0.0
H887 H 0.54109 0.65923 0.92926 0.0
C888 C 0.54498 0.68872 0.35046 0.0
C889 C 0.55829 0.70989 0.38524 0.0
C890 C 0.54212 0.68504 0.25504 0.0
C891 C 0.55291 0.70239 0.19191 0.0
C892 C 0.56634 0.7236 0.22745 0.0
C893 C 0.56881 0.72732 0.32294 0.0
C894 C 0.54802 0.71048 0.93395 0.0
C895 C 0.54428 0.69055 0.89689 0.0
C896 C 0.55071 0.71428 0.02933 0.0
C897 C 0.55019 0.69841 0.08979 0.0
C898 C 0.54693 0.67863 0.05162 0.0
C899 C 0.54378 0.67467 0.95641 0.0
loop_
_geom_bond_atom_site_label_1
_geom_bond_atom_site_label_2
_geom_bond_distance
_geom_bond_site_symmetry_2
_ccdc_geom_bond_type
Tb0 C2 2.808 1_556 S
Tb0 O20 2.480 1_556 S
Tb0 O21 2.443 . S
Tb0 O22 2.662 1_655 S
Tb0 O23 2.416 . S
Tb0 O24 2.380 1_655 S
Tb0 O28 2.320 1_656 S
Tb0 O31 2.341 1_556 S
Tb1 C11 2.809 1_554 S
Tb1 O22 2.325 1_554 S
Tb1 O25 2.341 1_554 S
Tb1 O26 2.484 1_554 S
Tb1 O27 2.440 . S
Tb1 O28 2.658 . S
Tb1 O29 2.409 . S
Tb1 O30 2.378 . S
C2 Tb0 2.808 1_554 S
C2 C3 1.514 . S
C2 O20 1.248 . S
C2 O21 1.266 1_554 S
C3 C2 1.514 . S
C3 C4 1.359 . S
C3 C8 1.348 1_554 S
C4 C3 1.359 . S
C4 C5 1.380 . S
C4 H32 0.929 . S
C5 C4 1.380 . S
C5 C6 1.347 . S
C5 H33 0.931 . S
C6 C5 1.347 . S
C6 C7 1.369 1_554 S
C7 C6 1.369 1_556 S
C7 C8 1.408 . S
C7 H34 0.930 . S
C8 C3 1.348 1_556 S
C8 C7 1.408 . S
C8 H35 0.930 . S
C9 O22 1.281 . S
C9 O23 1.254 1_455 S
C10 O24 1.236 . S
C10 O25 1.266 . S
C11 Tb1 2.809 1_556 S
C11 C12 1.514 . S
C11 O26 1.248 . S
C11 O27 1.266 1_556 S
C12 C11 1.514 . S
C12 C13 1.359 . S
C12 C17 1.348 1_556 S
C13 C12 1.359 . S
C13 C14 1.380 . S
C13 H36 0.929 . S
C14 C13 1.380 . S
C14 C15 1.347 . S
C14 H37 0.931 . S
C15 C14 1.347 . S
C15 C16 1.369 1_556 S
C16 C15 1.369 1_554 S
C16 C17 1.408 . S
C16 H38 0.930 . S
C17 C12 1.348 1_554 S
C17 C16 1.408 . S
C17 H39 0.930 . S
C18 O28 1.281 . S
C18 O29 1.254 . S
C19 O30 1.236 1_655 S
C19 O31 1.266 . S
O20 Tb0 2.480 1_554 S
O20 C2 1.248 . S
O21 Tb0 2.443 . S
O21 C2 1.266 1_556 S
O22 Tb0 2.662 1_455 S
O22 Tb1 2.325 1_556 S
O22 C9 1.281 . S
O23 Tb0 2.416 . S
O23 C9 1.254 1_655 S
O24 Tb0 2.380 1_455 S
O24 C10 1.236 . S
O25 Tb1 2.341 1_556 S
O25 C10 1.266 . S
O26 Tb1 2.484 1_556 S
O26 C11 1.248 . S
O27 Tb1 2.440 . S
O27 C11 1.266 1_554 S
O28 Tb0 2.320 1_454 S
O28 Tb1 2.658 . S
O28 C18 1.281 . S
O29 Tb1 2.409 . S
O29 C18 1.254 . S
O30 Tb1 2.378 . S
O30 C19 1.236 1_455 S
O31 Tb0 2.341 1_554 S
O31 C19 1.266 . S
H32 C4 0.929 . S
H33 C5 0.931 . S
H34 C7 0.930 . S
H35 C8 0.930 . S
H36 C13 0.929 . S
H37 C14 0.931 . S
H38 C16 0.930 . S
H39 C17 0.930 . S
Tb40 C42 2.808 1_556 S
Tb40 O60 2.480 1_556 S
Tb40 O61 2.443 . S
Tb40 O62 2.663 . S
Tb40 O63 2.417 . S
Tb40 O64 2.380 . S
Tb40 O68 2.319 1_556 S
Tb40 O71 2.341 1_556 S
Tb41 C51 2.809 1_554 S
Tb41 O62 2.325 1_554 S
Tb41 O65 2.341 1_554 S
Tb41 O66 2.484 1_554 S
Tb41 O67 2.440 . S
Tb41 O68 2.658 . S
Tb41 O69 2.409 . S
Tb41 O70 2.378 . S
C42 Tb40 2.808 1_554 S
C42 C43 1.514 . S
C42 O60 1.248 . S
C42 O61 1.266 1_554 S
C43 C42 1.514 . S
C43 C44 1.359 . S
C43 C48 1.348 1_554 S
C44 C43 1.359 . S
C44 C45 1.380 . S
C44 H72 0.929 . S
C45 C44 1.380 . S
C45 C46 1.347 . S
C45 H73 0.931 . S
C46 C45 1.347 . S
C46 C47 1.369 1_554 S
C47 C46 1.369 1_556 S
C47 C48 1.408 . S
C47 H74 0.930 . S
C48 C43 1.348 1_556 S
C48 C47 1.408 . S
C48 H75 0.930 . S
C49 O62 1.281 . S
C49 O63 1.254 . S
C50 O64 1.236 . S
C50 O65 1.266 . S
C51 Tb41 2.809 1_556 S
C51 C52 1.514 . S
C51 O66 1.248 . S
C51 O67 1.266 1_556 S
C52 C51 1.514 . S
C52 C53 1.359 . S
C52 C57 1.348 1_556 S
C53 C52 1.359 . S
C53 C54 1.380 . S
C53 H76 0.929 . S
C54 C53 1.380 . S
C54 C55 1.347 . S
C54 H77 0.931 . S
C55 C54 1.347 . S
C55 C56 1.369 1_556 S
C56 C55 1.369 1_554 S
C56 C57 1.408 . S
C56 H78 0.930 . S
C57 C52 1.348 1_554 S
C57 C56 1.408 . S
C57 H79 0.930 . S
C58 O68 1.281 . S
C58 O69 1.254 . S
C59 O70 1.236 . S
C59 O71 1.266 . S
O60 Tb40 2.480 1_554 S
O60 C42 1.248 . S
O61 Tb40 2.443 . S
O61 C42 1.266 1_556 S
O62 Tb40 2.663 . S
O62 Tb41 2.325 1_556 S
O62 C49 1.281 . S
O63 Tb40 2.417 . S
O63 C49 1.254 . S
O64 Tb40 2.380 . S
O64 C50 1.236 . S
O65 Tb41 2.341 1_556 S
O65 C50 1.266 . S
O66 Tb41 2.484 1_556 S
O66 C51 1.248 . S
O67 Tb41 2.440 . S
O67 C51 1.266 1_554 S
O68 Tb40 2.319 1_554 S
O68 Tb41 2.658 . S
O68 C58 1.281 . S
O69 Tb41 2.409 . S
O69 C58 1.254 . S
O70 Tb41 2.378 . S
O70 C59 1.236 . S
O71 Tb40 2.341 1_554 S
O71 C59 1.266 . S
H72 C44 0.929 . S
H73 C45 0.931 . S
H74 C47 0.930 . S
H75 C48 0.930 . S
H76 C53 0.929 . S
H77 C54 0.931 . S
H78 C56 0.930 . S
H79 C57 0.930 . S
Tb80 C82 2.808 1_556 S
Tb80 O100 2.480 1_556 S
Tb80 O101 2.443 . S
Tb80 O102 2.663 . S
Tb80 O103 2.418 . S
Tb80 O104 2.380 . S
Tb80 O108 2.319 1_556 S
Tb80 O111 2.341 1_556 S
Tb81 C91 2.809 1_554 S
Tb81 O102 2.325 1_564 S
Tb81 O105 2.341 1_554 S
Tb81 O106 2.484 1_554 S
Tb81 O107 2.440 . S
Tb81 O108 2.658 1_565 S
Tb81 O109 2.409 . S
Tb81 O110 2.378 1_565 S
C82 Tb80 2.808 1_554 S
C82 C83 1.514 . S
C82 O100 1.248 . S
C82 O101 1.266 1_554 S
C83 C82 1.514 . S
C83 C84 1.359 . S
C83 C88 1.348 1_554 S
C84 C83 1.359 . S
C84 C85 1.380 . S
C84 H112 0.929 . S
C85 C84 1.380 . S
C85 C86 1.347 . S
C85 H113 0.931 . S
C86 C85 1.347 . S
C86 C87 1.369 1_554 S
C87 C86 1.369 1_556 S
C87 C88 1.408 . S
C87 H114 0.930 . S
C88 C83 1.348 1_556 S
C88 C87 1.408 . S
C88 H115 0.930 . S
C89 O102 1.281 . S
C89 O103 1.254 . S
C90 O104 1.236 1_565 S
C90 O105 1.266 . S
C91 Tb81 2.809 1_556 S
C91 C92 1.514 . S
C91 O106 1.248 . S
C91 O107 1.266 1_556 S
C92 C91 1.514 . S
C92 C93 1.359 . S
C92 C97 1.348 1_556 S
C93 C92 1.359 . S
C93 C94 1.380 . S
C93 H116 0.929 . S
C94 C93 1.380 . S
C94 C95 1.347 . S
C94 H117 0.931 . S
C95 C94 1.347 . S
C95 C96 1.369 1_556 S
C96 C95 1.369 1_554 S
C96 C97 1.408 . S
C96 H118 0.930 . S
C97 C92 1.348 1_554 S
C97 C96 1.408 . S
C97 H119 0.930 . S
C98 O108 1.276 1_565 S
C98 O109 1.270 . S
C99 O110 1.236 . S
C99 O111 1.266 . S
O100 Tb80 2.480 1_554 S
O100 C82 1.248 . S
O101 Tb80 2.443 . S
O101 C82 1.266 1_556 S
O102 Tb80 2.663 . S
O102 Tb81 2.325 1_546 S
O102 C89 1.281 . S
O103 Tb80 2.418 . S
O103 C89 1.254 . S
O104 Tb80 2.380 . S
O104 C90 1.236 1_545 S
O105 Tb81 2.341 1_556 S
O105 C90 1.266 . S
O106 Tb81 2.484 1_556 S
O106 C91 1.248 . S
O107 Tb81 2.440 . S
O107 C91 1.266 1_554 S
O108 Tb80 2.319 1_554 S
O108 Tb81 2.658 1_545 S
O108 C98 1.276 1_545 S
O109 Tb81 2.409 . S
O109 C98 1.270 . S
O110 Tb81 2.378 1_545 S
O110 C99 1.236 . S
O111 Tb80 2.341 1_554 S
O111 C99 1.266 . S
H112 C84 0.929 . S
H113 C85 0.931 . S
H114 C87 0.930 . S
H115 C88 0.930 . S
H116 C93 0.929 . S
H117 C94 0.931 . S
H118 C96 0.930 . S
H119 C97 0.930 . S
Tb120 C122 2.809 . S
Tb120 O140 2.484 . S
Tb120 O141 2.440 . S
Tb120 O142 2.658 . S
Tb120 O143 2.409 . S
Tb120 O144 2.378 . S
Tb120 O148 2.325 . S
Tb120 O151 2.341 . S
Tb121 C131 2.809 . S
Tb121 O142 2.325 . S
Tb121 O145 2.341 . S
Tb121 O146 2.484 . S
Tb121 O147 2.440 . S
Tb121 O148 2.658 . S
Tb121 O149 2.409 . S
Tb121 O150 2.378 . S
C122 Tb120 2.809 . S
C122 C123 1.514 . S
C122 O140 1.248 . S
C122 O141 1.266 . S
C123 C122 1.514 . S
C123 C124 1.359 . S
C123 C128 1.348 . S
C124 C123 1.359 . S
C124 C125 1.380 . S
C124 H152 0.929 . S
C125 C124 1.380 . S
C125 C126 1.347 . S
C125 H153 0.931 . S
C126 C125 1.347 . S
C126 C127 1.369 . S
C127 C126 1.369 . S
C127 C128 1.408 . S
C127 H154 0.930 . S
C128 C123 1.348 . S
C128 C127 1.408 . S
C128 H155 0.930 . S
C129 O142 1.281 . S
C129 O143 1.254 . S
C130 O144 1.236 . S
C130 O145 1.266 . S
C131 Tb121 2.809 . S
C131 C132 1.514 . S
C131 O146 1.248 . S
C131 O147 1.266 . S
C132 C131 1.514 . S
C132 C133 1.359 . S
C132 C137 1.348 . S
C133 C132 1.359 . S
C133 C134 1.380 . S
C133 H156 0.929 . S
C134 C133 1.380 . S
C134 C135 1.347 . S
C134 H157 0.931 . S
C135 C134 1.347 . S
C135 C136 1.369 . S
C136 C135 1.369 . S
C136 C137 1.408 . S
C136 H158 0.930 . S
C137 C132 1.348 . S
C137 C136 1.408 . S
C137 H159 0.930 . S
C138 O148 1.281 . S
C138 O149 1.254 . S
C139 O150 1.236 . S
C139 O151 1.266 . S
O140 Tb120 2.484 . S
O140 C122 1.248 . S
O141 Tb120 2.440 . S
O141 C122 1.266 . S
O142 Tb120 2.658 . S
O142 Tb121 2.325 . S
O142 C129 1.281 . S
O143 Tb120 2.409 . S
O143 C129 1.254 . S
O144 Tb120 2.378 . S
O144 C130 1.236 . S
O145 Tb121 2.341 . S
O145 C130 1.266 . S
O146 Tb121 2.484 . S
O146 C131 1.248 . S
O147 Tb121 2.440 . S
O147 C131 1.266 . S
O148 Tb120 2.325 . S
O148 Tb121 2.658 . S
O148 C138 1.281 . S
O149 Tb121 2.409 . S
O149 C138 1.254 . S
O150 Tb121 2.378 . S
O150 C139 1.236 . S
O151 Tb120 2.341 . S
O151 C139 1.266 . S
H152 C124 0.929 . S
H153 C125 0.931 . S
H154 C127 0.930 . S
H155 C128 0.930 . S
H156 C133 0.929 . S
H157 C134 0.931 . S
H158 C136 0.930 . S
H159 C137 0.930 . S
Tb160 C162 2.809 . S
Tb160 O180 2.484 . S
Tb160 O181 2.440 . S
Tb160 O182 2.658 . S
Tb160 O183 2.409 . S
Tb160 O184 2.378 . S
Tb160 O188 2.325 . S
Tb160 O191 2.341 . S
Tb161 C171 2.809 . S
Tb161 O182 2.325 . S
Tb161 O185 2.341 . S
Tb161 O186 2.484 . S
Tb161 O187 2.440 . S
Tb161 O188 2.658 . S
Tb161 O189 2.409 . S
Tb161 O190 2.378 . S
C162 Tb160 2.809 . S
C162 C163 1.514 . S
C162 O180 1.248 . S
C162 O181 1.266 . S
C163 C162 1.514 . S
C163 C164 1.359 . S
C163 C168 1.348 . S
C164 C163 1.359 . S
C164 C165 1.380 . S
C164 H192 0.929 . S
C165 C164 1.380 . S
C165 C166 1.347 . S
C165 H193 0.931 . S
C166 C165 1.347 . S
C166 C167 1.369 . S
C167 C166 1.369 . S
C167 C168 1.408 . S
C167 H194 0.930 . S
C168 C163 1.348 . S
C168 C167 1.408 . S
C168 H195 0.930 . S
C169 O182 1.281 . S
C169 O183 1.254 . S
C170 O184 1.236 . S
C170 O185 1.266 . S
C171 Tb161 2.809 . S
C171 C172 1.514 . S
C171 O186 1.248 . S
C171 O187 1.266 . S
C172 C171 1.514 . S
C172 C173 1.359 . S
C172 C177 1.348 . S
C173 C172 1.359 . S
C173 C174 1.380 . S
C173 H196 0.929 . S
C174 C173 1.380 . S
C174 C175 1.347 . S
C174 H197 0.931 . S
C175 C174 1.347 . S
C175 C176 1.369 . S
C176 C175 1.369 . S
C176 C177 1.408 . S
C176 H198 0.930 . S
C177 C172 1.348 . S
C177 C176 1.408 . S
C177 H199 0.930 . S
C178 O188 1.281 . S
C178 O189 1.254 . S
C179 O190 1.236 . S
C179 O191 1.266 . S
O180 Tb160 2.484 . S
O180 C162 1.248 . S
O181 Tb160 2.440 . S
O181 C162 1.266 . S
O182 Tb160 2.658 . S
O182 Tb161 2.325 . S
O182 C169 1.281 . S
O183 Tb160 2.409 . S
O183 C169 1.254 . S
O184 Tb160 2.378 . S
O184 C170 1.236 . S
O185 Tb161 2.341 . S
O185 C170 1.266 . S
O186 Tb161 2.484 . S
O186 C171 1.248 . S
O187 Tb161 2.440 . S
O187 C171 1.266 . S
O188 Tb160 2.325 . S
O188 Tb161 2.658 . S
O188 C178 1.281 . S
O189 Tb161 2.409 . S
O189 C178 1.254 . S
O190 Tb161 2.378 . S
O190 C179 1.236 . S
O191 Tb160 2.341 . S
O191 C179 1.266 . S
H192 C164 0.929 . S
H193 C165 0.931 . S
H194 C167 0.930 . S
H195 C168 0.930 . S
H196 C173 0.929 . S
H197 C174 0.931 . S
H198 C176 0.930 . S
H199 C177 0.930 . S
Tb200 C202 2.809 . S
Tb200 O220 2.484 . S
Tb200 O221 2.440 . S
Tb200 O222 2.658 . S
Tb200 O223 2.409 . S
Tb200 O224 2.378 . S
Tb200 O228 2.325 . S
Tb200 O231 2.341 . S
Tb201 C211 2.809 . S
Tb201 O222 2.325 . S
Tb201 O225 2.341 . S
Tb201 O226 2.484 . S
Tb201 O227 2.440 . S
Tb201 O228 2.658 . S
Tb201 O229 2.409 . S
Tb201 O230 2.378 . S
C202 Tb200 2.809 . S
C202 C203 1.514 . S
C202 O220 1.248 . S
C202 O221 1.266 . S
C203 C202 1.514 . S
C203 C204 1.359 . S
C203 C208 1.348 . S
C204 C203 1.359 . S
C204 C205 1.380 . S
C204 H232 0.929 . S
C205 C204 1.380 . S
C205 C206 1.347 . S
C205 H233 0.931 . S
C206 C205 1.347 . S
C206 C207 1.369 . S
C207 C206 1.369 . S
C207 C208 1.408 . S
C207 H234 0.930 . S
C208 C203 1.348 . S
C208 C207 1.408 . S
C208 H235 0.930 . S
C209 O222 1.281 . S
C209 O223 1.254 . S
C210 O224 1.236 . S
C210 O225 1.266 . S
C211 Tb201 2.809 . S
C211 C212 1.514 . S
C211 O226 1.248 . S
C211 O227 1.266 . S
C212 C211 1.514 . S
C212 C213 1.359 . S
C212 C217 1.348 . S
C213 C212 1.359 . S
C213 C214 1.380 . S
C213 H236 0.929 . S
C214 C213 1.380 . S
C214 C215 1.347 . S
C214 H237 0.931 . S
C215 C214 1.347 . S
C215 C216 1.369 . S
C216 C215 1.369 . S
C216 C217 1.408 . S
C216 H238 0.930 . S
C217 C212 1.348 . S
C217 C216 1.408 . S
C217 H239 0.930 . S
C218 O228 1.281 . S
C218 O229 1.254 . S
C219 O230 1.236 . S
C219 O231 1.266 . S
O220 Tb200 2.484 . S
O220 C202 1.248 . S
O221 Tb200 2.440 . S
O221 C202 1.266 . S
O222 Tb200 2.658 . S
O222 Tb201 2.325 . S
O222 C209 1.281 . S
O223 Tb200 2.409 . S
O223 C209 1.254 . S
O224 Tb200 2.378 . S
O224 C210 1.236 . S
O225 Tb201 2.341 . S
O225 C210 1.266 . S
O226 Tb201 2.484 . S
O226 C211 1.248 . S
O227 Tb201 2.440 . S
O227 C211 1.266 . S
O228 Tb200 2.325 . S
O228 Tb201 2.658 . S
O228 C218 1.281 . S
O229 Tb201 2.409 . S
O229 C218 1.254 . S
O230 Tb201 2.378 . S
O230 C219 1.236 . S
O231 Tb200 2.341 . S
O231 C219 1.266 . S
H232 C204 0.929 . S
H233 C205 0.931 . S
H234 C207 0.930 . S
H235 C208 0.930 . S
H236 C213 0.929 . S
H237 C214 0.931 . S
H238 C216 0.930 . S
H239 C217 0.930 . S
Tb240 C242 2.809 . S
Tb240 O260 2.484 . S
Tb240 O261 2.440 . S
Tb240 O262 2.658 . S
Tb240 O263 2.409 . S
Tb240 O264 2.378 . S
Tb240 O268 2.325 . S
Tb240 O271 2.341 . S
Tb241 C251 2.809 . S
Tb241 O262 2.325 . S
Tb241 O265 2.341 . S
Tb241 O266 2.484 . S
Tb241 O267 2.440 . S
Tb241 O268 2.658 . S
Tb241 O269 2.409 . S
Tb241 O270 2.378 . S
C242 Tb240 2.809 . S
C242 C243 1.514 . S
C242 O260 1.248 . S
C242 O261 1.266 . S
C243 C242 1.514 . S
C243 C244 1.359 . S
C243 C248 1.348 . S
C244 C243 1.359 . S
C244 C245 1.380 . S
C244 H272 0.929 . S
C245 C244 1.380 . S
C245 C246 1.347 . S
C245 H273 0.931 . S
C246 C245 1.347 . S
C246 C247 1.369 . S
C247 C246 1.369 . S
C247 C248 1.408 . S
C247 H274 0.930 . S
C248 C243 1.348 . S
C248 C247 1.408 . S
C248 H275 0.930 . S
C249 O262 1.281 . S
C249 O263 1.254 . S
C250 O264 1.236 . S
C250 O265 1.266 . S
C251 Tb241 2.809 . S
C251 C252 1.514 . S
C251 O266 1.248 . S
C251 O267 1.266 . S
C252 C251 1.514 . S
C252 C253 1.359 . S
C252 C257 1.348 . S
C253 C252 1.359 . S
C253 C254 1.380 . S
C253 H276 0.929 . S
C254 C253 1.380 . S
C254 C255 1.347 . S
C254 H277 0.931 . S
C255 C254 1.347 . S
C255 C256 1.369 . S
C256 C255 1.369 . S
C256 C257 1.408 . S
C256 H278 0.930 . S
C257 C252 1.348 . S
C257 C256 1.408 . S
C257 H279 0.930 . S
C258 O268 1.281 . S
C258 O269 1.254 . S
C259 O270 1.236 . S
C259 O271 1.266 . S
O260 Tb240 2.484 . S
O260 C242 1.248 . S
O261 Tb240 2.440 . S
O261 C242 1.266 . S
O262 Tb240 2.658 . S
O262 Tb241 2.325 . S
O262 C249 1.281 . S
O263 Tb240 2.409 . S
O263 C249 1.254 . S
O264 Tb240 2.378 . S
O264 C250 1.236 . S
O265 Tb241 2.341 . S
O265 C250 1.266 . S
O266 Tb241 2.484 . S
O266 C251 1.248 . S
O267 Tb241 2.440 . S
O267 C251 1.266 . S
O268 Tb240 2.325 . S
O268 Tb241 2.658 . S
O268 C258 1.281 . S
O269 Tb241 2.409 . S
O269 C258 1.254 . S
O270 Tb241 2.378 . S
O270 C259 1.236 . S
O271 Tb240 2.341 . S
O271 C259 1.266 . S
H272 C244 0.929 . S
H273 C245 0.931 . S
H274 C247 0.930 . S
H275 C248 0.930 . S
H276 C253 0.929 . S
H277 C254 0.931 . S
H278 C256 0.930 . S
H279 C257 0.930 . S
Tb280 C282 2.809 . S
Tb280 O300 2.484 . S
Tb280 O301 2.440 . S
Tb280 O302 2.658 . S
Tb280 O303 2.409 . S
Tb280 O304 2.378 . S
Tb280 O308 2.325 . S
Tb280 O311 2.341 . S
Tb281 C291 2.809 . S
Tb281 O302 2.325 . S
Tb281 O305 2.341 . S
Tb281 O306 2.484 . S
Tb281 O307 2.440 . S
Tb281 O308 2.658 . S
Tb281 O309 2.409 . S
Tb281 O310 2.378 . S
C282 Tb280 2.809 . S
C282 C283 1.514 . S
C282 O300 1.248 . S
C282 O301 1.266 . S
C283 C282 1.514 . S
C283 C284 1.359 . S
C283 C288 1.348 . S
C284 C283 1.359 . S
C284 C285 1.380 . S
C284 H312 0.929 . S
C285 C284 1.380 . S
C285 C286 1.347 . S
C285 H313 0.931 . S
C286 C285 1.347 . S
C286 C287 1.369 . S
C287 C286 1.369 . S
C287 C288 1.408 . S
C287 H314 0.930 . S
C288 C283 1.348 . S
C288 C287 1.408 . S
C288 H315 0.930 . S
C289 O302 1.281 . S
C289 O303 1.254 . S
C290 O304 1.236 . S
C290 O305 1.266 . S
C291 Tb281 2.809 . S
C291 C292 1.514 . S
C291 O306 1.248 . S
C291 O307 1.266 . S
C292 C291 1.514 . S
C292 C293 1.359 . S
C292 C297 1.348 . S
C293 C292 1.359 . S
C293 C294 1.380 . S
C293 H316 0.929 . S
C294 C293 1.380 . S
C294 C295 1.347 . S
C294 H317 0.931 . S
C295 C294 1.347 . S
C295 C296 1.369 . S
C296 C295 1.369 . S
C296 C297 1.408 . S
C296 H318 0.930 . S
C297 C292 1.348 . S
C297 C296 1.408 . S
C297 H319 0.930 . S
C298 O308 1.281 . S
C298 O309 1.254 . S
C299 O310 1.236 . S
C299 O311 1.266 . S
O300 Tb280 2.484 . S
O300 C282 1.248 . S
O301 Tb280 2.440 . S
O301 C282 1.266 . S
O302 Tb280 2.658 . S
O302 Tb281 2.325 . S
O302 C289 1.281 . S
O303 Tb280 2.409 . S
O303 C289 1.254 . S
O304 Tb280 2.378 . S
O304 C290 1.236 . S
O305 Tb281 2.341 . S
O305 C290 1.266 . S
O306 Tb281 2.484 . S
O306 C291 1.248 . S
O307 Tb281 2.440 . S
O307 C291 1.266 . S
O308 Tb280 2.325 . S
O308 Tb281 2.658 . S
O308 C298 1.281 . S
O309 Tb281 2.409 . S
O309 C298 1.254 . S
O310 Tb281 2.378 . S
O310 C299 1.236 . S
O311 Tb280 2.341 . S
O311 C299 1.266 . S
H312 C284 0.929 . S
H313 C285 0.931 . S
H314 C287 0.930 . S
H315 C288 0.930 . S
H316 C293 0.929 . S
H317 C294 0.931 . S
H318 C296 0.930 . S
H319 C297 0.930 . S
Tb320 C322 2.809 . S
Tb320 O340 2.484 . S
Tb320 O341 2.440 . S
Tb320 O342 2.658 . S
Tb320 O343 2.409 . S
Tb320 O344 2.378 . S
Tb320 O348 2.325 . S
Tb320 O351 2.341 . S
Tb321 C331 2.809 . S
Tb321 O342 2.325 . S
Tb321 O345 2.341 . S
Tb321 O346 2.484 . S
Tb321 O347 2.440 . S
Tb321 O348 2.658 . S
Tb321 O349 2.409 . S
Tb321 O350 2.378 . S
C322 Tb320 2.809 . S
C322 C323 1.514 . S
C322 O340 1.248 . S
C322 O341 1.266 . S
C323 C322 1.514 . S
C323 C324 1.359 . S
C323 C328 1.348 . S
C324 C323 1.359 . S
C324 C325 1.380 . S
C324 H352 0.929 . S
C325 C324 1.380 . S
C325 C326 1.347 . S
C325 H353 0.931 . S
C326 C325 1.347 . S
C326 C327 1.369 . S
C327 C326 1.369 . S
C327 C328 1.408 . S
C327 H354 0.930 . S
C328 C323 1.348 . S
C328 C327 1.408 . S
C328 H355 0.930 . S
C329 O342 1.281 . S
C329 O343 1.254 . S
C330 O344 1.236 . S
C330 O345 1.266 . S
C331 Tb321 2.809 . S
C331 C332 1.514 . S
C331 O346 1.248 . S
C331 O347 1.266 . S
C332 C331 1.514 . S
C332 C333 1.359 . S
C332 C337 1.348 . S
C333 C332 1.359 . S
C333 C334 1.380 . S
C333 H356 0.929 . S
C334 C333 1.380 . S
C334 C335 1.347 . S
C334 H357 0.931 . S
C335 C334 1.347 . S
C335 C336 1.369 . S
C336 C335 1.369 . S
C336 C337 1.408 . S
C336 H358 0.930 . S
C337 C332 1.348 . S
C337 C336 1.408 . S
C337 H359 0.930 . S
C338 O348 1.281 . S
C338 O349 1.254 . S
C339 O350 1.236 . S
C339 O351 1.266 . S
O340 Tb320 2.484 . S
O340 C322 1.248 . S
O341 Tb320 2.440 . S
O341 C322 1.266 . S
O342 Tb320 2.658 . S
O342 Tb321 2.325 . S
O342 C329 1.281 . S
O343 Tb320 2.409 . S
O343 C329 1.254 . S
O344 Tb320 2.378 . S
O344 C330 1.236 . S
O345 Tb321 2.341 . S
O345 C330 1.266 . S
O346 Tb321 2.484 . S
O346 C331 1.248 . S
O347 Tb321 2.440 . S
O347 C331 1.266 . S
O348 Tb320 2.325 . S
O348 Tb321 2.658 . S
O348 C338 1.281 . S
O349 Tb321 2.409 . S
O349 C338 1.254 . S
O350 Tb321 2.378 . S
O350 C339 1.236 . S
O351 Tb320 2.341 . S
O351 C339 1.266 . S
H352 C324 0.929 . S
H353 C325 0.931 . S
H354 C327 0.930 . S
H355 C328 0.930 . S
H356 C333 0.929 . S
H357 C334 0.931 . S
H358 C336 0.930 . S
H359 C337 0.930 . S
H360 C368 0.950 . S
H361 C373 0.950 . S
H362 C370 0.950 1_554 S
H363 C372 0.950 . S
H364 C374 0.950 . S
H365 C376 0.950 . S
H366 C378 0.950 . S
H367 C379 0.950 . S
C368 H360 0.950 . S
C368 C369 1.386 1_554 S
C368 C370 1.391 1_554 S
C369 C368 1.386 1_556 S
C369 C373 1.393 . S
C370 H362 0.950 1_556 S
C370 C368 1.391 1_556 S
C370 C371 1.400 . S
C371 C370 1.400 . S
C371 C372 1.398 . S
C371 C377 1.491 . S
C372 H363 0.950 . S
C372 C371 1.398 . S
C372 C373 1.391 . S
C373 H361 0.950 . S
C373 C369 1.393 . S
C373 C372 1.391 . S
C374 H364 0.950 . S
C374 C375 1.386 . S
C374 C376 1.391 . S
C375 C374 1.386 . S
C375 C379 1.393 . S
C376 H365 0.950 . S
C376 C374 1.391 . S
C376 C377 1.400 . S
C377 C371 1.491 . S
C377 C376 1.400 . S
C377 C378 1.398 . S
C378 H366 0.950 . S
C378 C377 1.398 . S
C378 C379 1.391 . S
C379 H367 0.950 . S
C379 C375 1.393 . S
C379 C378 1.391 . S
H380 C388 0.950 . S
H381 C393 0.950 . S
H382 C390 0.950 . S
H383 C392 0.950 1_554 S
H384 C394 0.950 . S
H385 C396 0.950 . S
H386 C398 0.950 . S
H387 C399 0.950 . S
C388 H380 0.950 . S
C388 C389 1.386 . S
C388 C390 1.391 . S
C389 C388 1.386 . S
C389 C393 1.393 1_556 S
C390 H382 0.950 . S
C390 C388 1.391 . S
C390 C391 1.400 . S
C391 C390 1.400 . S
C391 C392 1.398 . S
C391 C397 1.491 . S
C392 H383 0.950 1_556 S
C392 C391 1.398 . S
C392 C393 1.391 1_556 S
C393 H381 0.950 . S
C393 C389 1.393 1_554 S
C393 C392 1.391 1_554 S
C394 H384 0.950 . S
C394 C395 1.386 . S
C394 C396 1.391 . S
C395 C394 1.386 . S
C395 C399 1.393 . S
C396 H385 0.950 . S
C396 C394 1.391 . S
C396 C397 1.400 . S
C397 C391 1.491 . S
C397 C396 1.400 . S
C397 C398 1.398 . S
C398 H386 0.950 . S
C398 C397 1.398 . S
C398 C399 1.391 . S
C399 H387 0.950 . S
C399 C395 1.393 . S
C399 C398 1.391 . S
H400 C408 0.950 . S
H401 C413 0.950 1_554 S
H402 C410 0.950 . S
H403 C412 0.950 . S
H404 C414 0.950 . S
H405 C416 0.950 . S
H406 C418 0.950 . S
H407 C419 0.950 . S
C408 H400 0.950 . S
C408 C409 1.386 . S
C408 C410 1.391 . S
C409 C408 1.386 . S
C409 C413 1.393 . S
C410 H402 0.950 . S
C410 C408 1.391 . S
C410 C411 1.400 . S
C411 C410 1.400 . S
C411 C412 1.398 . S
C411 C417 1.491 . S
C412 H403 0.950 . S
C412 C411 1.398 . S
C412 C413 1.391 . S
C413 H401 0.950 1_556 S
C413 C409 1.393 . S
C413 C412 1.391 . S
C414 H404 0.950 . S
C414 C415 1.386 . S
C414 C416 1.391 . S
C415 C414 1.386 . S
C415 C419 1.393 . S
C416 H405 0.950 . S
C416 C414 1.391 . S
C416 C417 1.400 . S
C417 C411 1.491 . S
C417 C416 1.400 . S
C417 C418 1.398 . S
C418 H406 0.950 . S
C418 C417 1.398 . S
C418 C419 1.391 . S
C419 H407 0.950 . S
C419 C415 1.393 . S
C419 C418 1.391 . S
H420 C428 0.950 . S
H421 C433 0.950 . S
H422 C430 0.950 . S
H423 C432 0.950 . S
H424 C434 0.950 1_556 S
H425 C436 0.950 . S
H426 C438 0.950 . S
H427 C439 0.950 . S
C428 H420 0.950 . S
C428 C429 1.386 . S
C428 C430 1.391 . S
C429 C428 1.386 . S
C429 C433 1.393 . S
C430 H422 0.950 . S
C430 C428 1.391 . S
C430 C431 1.400 . S
C431 C430 1.400 . S
C431 C432 1.398 . S
C431 C437 1.491 . S
C432 H423 0.950 . S
C432 C431 1.398 . S
C432 C433 1.391 . S
C433 H421 0.950 . S
C433 C429 1.393 . S
C433 C432 1.391 . S
C434 H424 0.950 1_554 S
C434 C435 1.386 . S
C434 C436 1.391 . S
C435 C434 1.386 . S
C435 C439 1.393 . S
C436 H425 0.950 . S
C436 C434 1.391 . S
C436 C437 1.400 . S
C437 C431 1.491 . S
C437 C436 1.400 . S
C437 C438 1.398 . S
C438 H426 0.950 . S
C438 C437 1.398 . S
C438 C439 1.391 . S
C439 H427 0.950 . S
C439 C435 1.393 . S
C439 C438 1.391 . S
H440 C448 0.950 . S
H441 C453 0.950 . S
H442 C450 0.950 . S
H443 C452 0.950 . S
H444 C454 0.950 . S
H445 C456 0.950 . S
H446 C458 0.950 . S
H447 C459 0.950 1_556 S
C448 H440 0.950 . S
C448 C449 1.386 . S
C448 C450 1.391 . S
C449 C448 1.386 . S
C449 C453 1.393 . S
C450 H442 0.950 . S
C450 C448 1.391 . S
C450 C451 1.400 . S
C451 C450 1.400 . S
C451 C452 1.398 . S
C451 C457 1.491 . S
C452 H443 0.950 . S
C452 C451 1.398 . S
C452 C453 1.391 . S
C453 H441 0.950 . S
C453 C449 1.393 . S
C453 C452 1.391 . S
C454 H444 0.950 . S
C454 C455 1.386 . S
C454 C456 1.391 . S
C455 C454 1.386 . S
C455 C459 1.393 . S
C456 H445 0.950 . S
C456 C454 1.391 . S
C456 C457 1.400 . S
C457 C451 1.491 . S
C457 C456 1.400 . S
C457 C458 1.398 . S
C458 H446 0.950 . S
C458 C457 1.398 . S
C458 C459 1.391 . S
C459 H447 0.950 1_554 S
C459 C455 1.393 . S
C459 C458 1.391 . S
H460 C468 0.950 . S
H461 C473 0.950 1_556 S
H462 C470 0.950 . S
H463 C472 0.950 . S
H464 C474 0.950 . S
H465 C476 0.950 . S
H466 C478 0.950 . S
H467 C479 0.950 . S
C468 H460 0.950 . S
C468 C469 1.386 . S
C468 C470 1.391 . S
C469 C468 1.386 . S
C469 C473 1.393 . S
C470 H462 0.950 . S
C470 C468 1.391 . S
C470 C471 1.400 . S
C471 C470 1.400 . S
C471 C472 1.398 . S
C471 C477 1.491 . S
C472 H463 0.950 . S
C472 C471 1.398 . S
C472 C473 1.391 . S
C473 H461 0.950 1_554 S
C473 C469 1.393 . S
C473 C472 1.391 . S
C474 H464 0.950 . S
C474 C475 1.386 . S
C474 C476 1.391 . S
C475 C474 1.386 . S
C475 C479 1.393 . S
C476 H465 0.950 . S
C476 C474 1.391 . S
C476 C477 1.400 . S
C477 C471 1.491 . S
C477 C476 1.400 . S
C477 C478 1.398 . S
C478 H466 0.950 . S
C478 C477 1.398 . S
C478 C479 1.391 . S
C479 H467 0.950 . S
C479 C475 1.393 . S
C479 C478 1.391 . S
H480 C488 0.950 . S
H481 C493 0.950 . S
H482 C490 0.950 . S
H483 C492 0.950 . S
H484 C494 0.950 . S
H485 C496 0.950 . S
H486 C498 0.950 . S
H487 C499 0.950 . S
C488 H480 0.950 . S
C488 C489 1.386 . S
C488 C490 1.391 . S
C489 C488 1.386 . S
C489 C493 1.393 . S
C490 H482 0.950 . S
C490 C488 1.391 . S
C490 C491 1.400 . S
C491 C490 1.400 . S
C491 C492 1.398 . S
C491 C497 1.491 . S
C492 H483 0.950 . S
C492 C491 1.398 . S
C492 C493 1.391 . S
C493 H481 0.950 . S
C493 C489 1.393 . S
C493 C492 1.391 . S
C494 H484 0.950 . S
C494 C495 1.386 . S
C494 C496 1.391 . S
C495 C494 1.386 . S
C495 C499 1.393 . S
C496 H485 0.950 . S
C496 C494 1.391 . S
C496 C497 1.400 . S
C497 C491 1.491 . S
C497 C496 1.400 . S
C497 C498 1.398 . S
C498 H486 0.950 . S
C498 C497 1.398 . S
C498 C499 1.391 . S
C499 H487 0.950 . S
C499 C495 1.393 . S
C499 C498 1.391 . S
H500 C508 0.950 . S
H501 C513 0.950 . S
H502 C510 0.950 . S
H503 C512 0.950 . S
H504 C514 0.950 . S
H505 C516 0.950 . S
H506 C518 0.950 . S
H507 C519 0.950 . S
C508 H500 0.950 . S
C508 C509 1.386 . S
C508 C510 1.391 . S
C509 C508 1.386 . S
C509 C513 1.393 . S
C510 H502 0.950 . S
C510 C508 1.391 . S
C510 C511 1.400 . S
C511 C510 1.400 . S
C511 C512 1.398 . S
C511 C517 1.491 . S
C512 H503 0.950 . S
C512 C511 1.398 . S
C512 C513 1.391 . S
C513 H501 0.950 . S
C513 C509 1.393 . S
C513 C512 1.391 . S
C514 H504 0.950 . S
C514 C515 1.386 . S
C514 C516 1.391 . S
C515 C514 1.386 . S
C515 C519 1.393 . S
C516 H505 0.950 . S
C516 C514 1.391 . S
C516 C517 1.400 . S
C517 C511 1.491 . S
C517 C516 1.400 . S
C517 C518 1.398 . S
C518 H506 0.950 . S
C518 C517 1.398 . S
C518 C519 1.391 . S
C519 H507 0.950 . S
C519 C515 1.393 . S
C519 C518 1.391 . S
H520 C528 0.902 1_545 S
H521 C533 0.950 . S
H522 C530 0.950 . S
H523 C532 0.950 . S
H524 C534 0.950 . S
H525 C536 0.950 . S
H526 C538 0.950 . S
H527 C539 0.950 . S
C528 H520 0.902 1_565 S
C528 C529 1.382 1_565 S
C528 C530 1.445 . S
C529 C528 1.382 1_545 S
C529 C533 1.393 . S
C530 H522 0.950 . S
C530 C528 1.445 . S
C530 C531 1.400 . S
C531 C530 1.400 . S
C531 C532 1.398 . S
C531 C537 1.491 . S
C532 H523 0.950 . S
C532 C531 1.398 . S
C532 C533 1.391 1_565 S
C533 H521 0.950 . S
C533 C529 1.393 . S
C533 C532 1.391 1_545 S
C534 H524 0.950 . S
C534 C535 1.386 . S
C534 C536 1.391 . S
C535 C534 1.386 . S
C535 C539 1.393 . S
C536 H525 0.950 . S
C536 C534 1.391 . S
C536 C537 1.400 . S
C537 C531 1.491 . S
C537 C536 1.400 . S
C537 C538 1.398 . S
C538 H526 0.950 . S
C538 C537 1.398 . S
C538 C539 1.391 . S
C539 H527 0.950 . S
C539 C535 1.393 . S
C539 C538 1.391 . S
H540 C548 0.950 . S
H541 C553 0.950 . S
H542 C550 0.950 . S
H543 C552 0.950 . S
H544 C554 0.950 . S
H545 C556 0.950 . S
H546 C558 0.950 . S
H547 C559 0.950 . S
C548 H540 0.950 . S
C548 C549 1.386 . S
C548 C550 1.391 . S
C549 C548 1.386 . S
C549 C553 1.393 1_554 S
C550 H542 0.950 . S
C550 C548 1.391 . S
C550 C551 1.400 1_554 S
C551 C550 1.400 1_556 S
C551 C552 1.398 . S
C551 C557 1.491 . S
C552 H543 0.950 . S
C552 C551 1.398 . S
C552 C553 1.391 . S
C553 H541 0.950 . S
C553 C549 1.393 1_556 S
C553 C552 1.391 . S
C554 H544 0.950 . S
C554 C555 1.386 . S
C554 C556 1.391 . S
C555 C554 1.386 . S
C555 C559 1.393 1_556 S
C556 H545 0.950 . S
C556 C554 1.391 . S
C556 C557 1.400 . S
C557 C551 1.491 . S
C557 C556 1.400 . S
C557 C558 1.398 1_556 S
C558 H546 0.950 . S
C558 C557 1.398 1_554 S
C558 C559 1.391 . S
C559 H547 0.950 . S
C559 C555 1.393 1_554 S
C559 C558 1.391 . S
H560 C568 0.950 1_565 S
H561 C573 0.950 . S
H562 C570 0.950 . S
H563 C572 0.950 . S
H564 C574 0.950 . S
H565 C576 0.950 . S
H566 C578 0.950 . S
H567 C579 0.950 . S
C568 H560 0.950 1_545 S
C568 C569 1.386 1_544 S
C568 C570 1.391 . S
C569 C568 1.386 1_566 S
C569 C573 1.393 1_565 S
C570 H562 0.950 . S
C570 C568 1.391 . S
C570 C571 1.400 1_554 S
C571 C570 1.400 1_556 S
C571 C572 1.398 . S
C571 C577 1.491 . S
C572 H563 0.950 . S
C572 C571 1.398 . S
C572 C573 1.391 . S
C573 H561 0.950 . S
C573 C569 1.393 1_545 S
C573 C572 1.391 . S
C574 H564 0.950 . S
C574 C575 1.386 1_556 S
C574 C576 1.391 . S
C575 C574 1.386 1_554 S
C575 C579 1.393 . S
C576 H565 0.950 . S
C576 C574 1.391 . S
C576 C577 1.400 . S
C577 C571 1.491 . S
C577 C576 1.400 . S
C577 C578 1.398 1_556 S
C578 H566 0.950 . S
C578 C577 1.398 1_554 S
C578 C579 1.391 . S
C579 H567 0.950 . S
C579 C575 1.393 . S
C579 C578 1.391 . S
H580 C588 0.950 . S
H581 C593 0.950 . S
H582 C590 0.950 . S
H583 C592 0.950 . S
H584 C594 0.950 . S
H585 C596 0.950 . S
H586 C598 0.950 1_554 S
H587 C599 0.950 . S
C588 H580 0.950 . S
C588 C589 1.386 . S
C588 C590 1.391 . S
C589 C588 1.386 . S
C589 C593 1.393 1_554 S
C590 H582 0.950 . S
C590 C588 1.391 . S
C590 C591 1.400 1_554 S
C591 C590 1.400 1_556 S
C591 C592 1.398 . S
C591 C597 1.491 . S
C592 H583 0.950 . S
C592 C591 1.398 . S
C592 C593 1.391 . S
C593 H581 0.950 . S
C593 C589 1.393 1_556 S
C593 C592 1.391 . S
C594 H584 0.950 . S
C594 C595 1.386 . S
C594 C596 1.391 1_455 S
C595 C594 1.386 . S
C595 C599 1.393 . S
C596 H585 0.950 . S
C596 C594 1.391 1_655 S
C596 C597 1.400 . S
C597 C591 1.491 . S
C597 C596 1.400 . S
C597 C598 1.398 . S
C598 H586 0.950 1_556 S
C598 C597 1.398 . S
C598 C599 1.391 1_655 S
C599 H587 0.950 . S
C599 C595 1.393 . S
C599 C598 1.391 1_455 S
H600 C608 0.950 . S
H601 C613 0.950 . S
H602 C610 0.950 . S
H603 C612 0.950 . S
H604 C614 0.950 . S
H605 C616 0.950 . S
H606 C618 0.950 . S
H607 C619 0.950 . S
C608 H600 0.950 . S
C608 C609 1.386 . S
C608 C610 1.391 . S
C609 C608 1.386 . S
C609 C613 1.393 . S
C610 H602 0.950 . S
C610 C608 1.391 . S
C610 C611 1.400 . S
C611 C610 1.400 . S
C611 C612 1.398 . S
C611 C617 1.491 . S
C612 H603 0.950 . S
C612 C611 1.398 . S
C612 C613 1.391 . S
C613 H601 0.950 . S
C613 C609 1.393 . S
C613 C612 1.391 . S
C614 H604 0.950 . S
C614 C615 1.386 . S
C614 C616 1.391 . S
C615 C614 1.386 . S
C615 C619 1.393 . S
C616 H605 0.950 . S
C616 C614 1.391 . S
C616 C617 1.400 . S
C617 C611 1.491 . S
C617 C616 1.400 . S
C617 C618 1.398 . S
C618 H606 0.950 . S
C618 C617 1.398 . S
C618 C619 1.391 . S
C619 H607 0.950 . S
C619 C615 1.393 . S
C619 C618 1.391 . S
H620 C628 0.950 . S
H621 C633 0.950 . S
H622 C630 0.950 . S
H623 C632 0.950 . S
H624 C634 0.950 . S
H625 C636 0.950 . S
H626 C638 0.950 . S
H627 C639 0.950 . S
C628 H620 0.950 . S
C628 C629 1.386 . S
C628 C630 1.391 . S
C629 C628 1.386 . S
C629 C633 1.393 . S
C630 H622 0.950 . S
C630 C628 1.391 . S
C630 C631 1.400 . S
C631 C630 1.400 . S
C631 C632 1.398 . S
C631 C637 1.491 . S
C632 H623 0.950 . S
C632 C631 1.398 . S
C632 C633 1.391 . S
C633 H621 0.950 . S
C633 C629 1.393 . S
C633 C632 1.391 . S
C634 H624 0.950 . S
C634 C635 1.386 . S
C634 C636 1.391 . S
C635 C634 1.386 . S
C635 C639 1.393 . S
C636 H625 0.950 . S
C636 C634 1.391 . S
C636 C637 1.400 . S
C637 C631 1.491 . S
C637 C636 1.400 . S
C637 C638 1.398 . S
C638 H626 0.950 . S
C638 C637 1.398 . S
C638 C639 1.391 . S
C639 H627 0.950 . S
C639 C635 1.393 . S
C639 C638 1.391 . S
H640 C648 0.950 . S
H641 C653 0.950 . S
H642 C650 0.950 . S
H643 C652 0.950 . S
H644 C654 0.950 . S
H645 C656 0.950 . S
H646 C658 0.950 . S
H647 C659 0.950 . S
C648 H640 0.950 . S
C648 C649 1.386 . S
C648 C650 1.391 . S
C649 C648 1.386 . S
C649 C653 1.393 . S
C650 H642 0.950 . S
C650 C648 1.391 . S
C650 C651 1.400 . S
C651 C650 1.400 . S
C651 C652 1.398 . S
C651 C657 1.491 . S
C652 H643 0.950 . S
C652 C651 1.398 . S
C652 C653 1.391 . S
C653 H641 0.950 . S
C653 C649 1.393 . S
C653 C652 1.391 . S
C654 H644 0.950 . S
C654 C655 1.386 . S
C654 C656 1.391 . S
C655 C654 1.386 . S
C655 C659 1.393 . S
C656 H645 0.950 . S
C656 C654 1.391 . S
C656 C657 1.400 . S
C657 C651 1.491 . S
C657 C656 1.400 . S
C657 C658 1.398 . S
C658 H646 0.950 . S
C658 C657 1.398 . S
C658 C659 1.391 . S
C659 H647 0.950 . S
C659 C655 1.393 . S
C659 C658 1.391 . S
H660 C668 0.950 . S
H661 C673 0.950 . S
H662 C670 0.950 . S
H663 C672 0.950 . S
H664 C674 0.950 . S
H665 C676 0.950 . S
H666 C678 0.950 . S
H667 C679 0.950 . S
C668 H660 0.950 . S
C668 C669 1.386 . S
C668 C670 1.391 . S
C669 C668 1.386 . S
C669 C673 1.393 . S
C670 H662 0.950 . S
C670 C668 1.391 . S
C670 C671 1.400 . S
C671 C670 1.400 . S
C671 C672 1.398 . S
C671 C677 1.491 . S
C672 H663 0.950 . S
C672 C671 1.398 . S
C672 C673 1.391 . S
C673 H661 0.950 . S
C673 C669 1.393 . S
C673 C672 1.391 . S
C674 H664 0.950 . S
C674 C675 1.386 . S
C674 C676 1.391 . S
C675 C674 1.386 . S
C675 C679 1.393 . S
C676 H665 0.950 . S
C676 C674 1.391 . S
C676 C677 1.400 . S
C677 C671 1.491 . S
C677 C676 1.400 . S
C677 C678 1.398 . S
C678 H666 0.950 . S
C678 C677 1.398 . S
C678 C679 1.391 . S
C679 H667 0.950 . S
C679 C675 1.393 . S
C679 C678 1.391 . S
H680 C688 0.950 . S
H681 C693 0.950 . S
H682 C690 0.950 . S
H683 C692 0.950 . S
H684 C694 0.950 . S
H685 C696 0.950 . S
H686 C698 0.950 . S
H687 C699 0.950 . S
C688 H680 0.950 . S
C688 C689 1.386 . S
C688 C690 1.391 . S
C689 C688 1.386 . S
C689 C693 1.393 . S
C690 H682 0.950 . S
C690 C688 1.391 . S
C690 C691 1.400 . S
C691 C690 1.400 . S
C691 C692 1.398 . S
C691 C697 1.491 . S
C692 H683 0.950 . S
C692 C691 1.398 . S
C692 C693 1.391 . S
C693 H681 0.950 . S
C693 C689 1.393 . S
C693 C692 1.391 . S
C694 H684 0.950 . S
C694 C695 1.386 . S
C694 C696 1.391 . S
C695 C694 1.386 . S
C695 C699 1.393 . S
C696 H685 0.950 . S
C696 C694 1.391 . S
C696 C697 1.400 . S
C697 C691 1.491 . S
C697 C696 1.400 . S
C697 C698 1.398 . S
C698 H686 0.950 . S
C698 C697 1.398 . S
C698 C699 1.391 . S
C699 H687 0.950 . S
C699 C695 1.393 . S
C699 C698 1.391 . S
H700 C708 0.950 . S
H701 C713 0.950 . S
H702 C710 0.950 . S
H703 C712 0.950 . S
H704 C714 0.950 . S
H705 C716 0.950 . S
H706 C718 0.950 . S
H707 C719 0.950 . S
C708 H700 0.950 . S
C708 C709 1.386 . S
C708 C710 1.391 . S
C709 C708 1.386 . S
C709 C713 1.393 . S
C710 H702 0.950 . S
C710 C708 1.391 . S
C710 C711 1.400 . S
C711 C710 1.400 . S
C711 C712 1.398 . S
C711 C717 1.491 . S
C712 H703 0.950 . S
C712 C711 1.398 . S
C712 C713 1.391 . S
C713 H701 0.950 . S
C713 C709 1.393 . S
C713 C712 1.391 . S
C714 H704 0.950 . S
C714 C715 1.386 . S
C714 C716 1.391 . S
C715 C714 1.386 . S
C715 C719 1.393 . S
C716 H705 0.950 . S
C716 C714 1.391 . S
C716 C717 1.400 . S
C717 C711 1.491 . S
C717 C716 1.400 . S
C717 C718 1.398 . S
C718 H706 0.950 . S
C718 C717 1.398 . S
C718 C719 1.391 . S
C719 H707 0.950 . S
C719 C715 1.393 . S
C719 C718 1.391 . S
H720 C728 0.947 1_655 S
H721 C733 0.950 . S
H722 C730 0.951 . S
H723 C732 0.950 . S
H724 C734 0.950 . S
H725 C736 0.950 . S
H726 C738 0.950 1_655 S
H727 C739 0.955 . S
C728 H720 0.947 1_455 S
C728 C729 1.386 . S
C728 C730 1.391 . S
C729 C728 1.386 . S
C729 C733 1.393 . S
C730 H722 0.951 . S
C730 C728 1.391 . S
C730 C731 1.400 . S
C731 C730 1.400 . S
C731 C732 1.398 . S
C731 C737 1.491 . S
C732 H723 0.950 . S
C732 C731 1.398 . S
C732 C733 1.391 . S
C733 H721 0.950 . S
C733 C729 1.393 . S
C733 C732 1.391 . S
C734 H724 0.950 . S
C734 C735 1.386 . S
C734 C736 1.391 . S
C735 C734 1.386 . S
C735 C739 1.393 . S
C736 H725 0.950 . S
C736 C734 1.391 . S
C736 C737 1.400 . S
C737 C731 1.491 . S
C737 C736 1.400 . S
C737 C738 1.398 . S
C738 H726 0.950 1_455 S
C738 C737 1.398 . S
C738 C739 1.391 . S
C739 H727 0.955 . S
C739 C735 1.393 . S
C739 C738 1.391 . S
H740 C748 0.950 . S
H741 C753 0.950 . S
H742 C750 0.950 . S
H743 C752 0.950 . S
H744 C754 0.950 . S
H745 C756 0.950 . S
H746 C758 0.950 . S
H747 C759 0.950 . S
C748 H740 0.950 . S
C748 C749 1.386 . S
C748 C750 1.391 . S
C749 C748 1.386 . S
C749 C753 1.393 . S
C750 H742 0.950 . S
C750 C748 1.391 . S
C750 C751 1.400 . S
C751 C750 1.400 . S
C751 C752 1.398 . S
C751 C757 1.491 . S
C752 H743 0.950 . S
C752 C751 1.398 . S
C752 C753 1.391 . S
C753 H741 0.950 . S
C753 C749 1.393 . S
C753 C752 1.391 . S
C754 H744 0.950 . S
C754 C755 1.386 . S
C754 C756 1.391 . S
C755 C754 1.386 . S
C755 C759 1.393 . S
C756 H745 0.950 . S
C756 C754 1.391 . S
C756 C757 1.400 . S
C757 C751 1.491 . S
C757 C756 1.400 . S
C757 C758 1.398 . S
C758 H746 0.950 . S
C758 C757 1.398 . S
C758 C759 1.391 . S
C759 H747 0.950 . S
C759 C755 1.393 . S
C759 C758 1.391 . S
H760 C768 0.950 . S
H761 C773 0.950 1_565 S
H762 C770 0.950 . S
H763 C772 0.950 1_565 S
H764 C774 0.950 . S
H765 C776 0.977 . S
H766 C778 0.950 . S
H767 C779 0.950 . S
C768 H760 0.950 . S
C768 C769 1.386 . S
C768 C770 1.391 . S
C769 C768 1.386 . S
C769 C773 1.393 . S
C770 H762 0.950 . S
C770 C768 1.391 . S
C770 C771 1.400 . S
C771 C770 1.400 . S
C771 C772 1.398 . S
C771 C777 1.491 . S
C772 H763 0.950 1_545 S
C772 C771 1.398 . S
C772 C773 1.391 . S
C773 H761 0.950 1_545 S
C773 C769 1.393 . S
C773 C772 1.391 . S
C774 H764 0.950 . S
C774 C775 1.386 1_565 S
C774 C776 1.394 . S
C775 C774 1.386 1_545 S
C775 C779 1.393 . S
C776 H765 0.977 . S
C776 C774 1.394 . S
C776 C777 1.373 1_565 S
C777 C771 1.491 . S
C777 C776 1.373 1_545 S
C777 C778 1.398 . S
C778 H766 0.950 . S
C778 C777 1.398 . S
C778 C779 1.391 . S
C779 H767 0.950 . S
C779 C775 1.393 . S
C779 C778 1.391 . S
H780 C788 0.950 . S
H781 C793 0.950 . S
H782 C790 0.950 . S
H783 C792 0.950 . S
H784 C794 0.950 . S
H785 C796 0.950 . S
H786 C798 0.950 . S
H787 C799 0.950 . S
C788 H780 0.950 . S
C788 C789 1.386 . S
C788 C790 1.391 . S
C789 C788 1.386 . S
C789 C793 1.393 . S
C790 H782 0.950 . S
C790 C788 1.391 . S
C790 C791 1.400 . S
C791 C790 1.400 . S
C791 C792 1.398 . S
C791 C797 1.491 . S
C792 H783 0.950 . S
C792 C791 1.398 . S
C792 C793 1.391 . S
C793 H781 0.950 . S
C793 C789 1.393 . S
C793 C792 1.391 . S
C794 H784 0.950 . S
C794 C795 1.386 . S
C794 C796 1.391 1_554 S
C795 C794 1.386 . S
C795 C799 1.393 . S
C796 H785 0.950 . S
C796 C794 1.391 1_556 S
C796 C797 1.400 . S
C797 C791 1.491 . S
C797 C796 1.400 . S
C797 C798 1.398 . S
C798 H786 0.950 . S
C798 C797 1.398 . S
C798 C799 1.391 1_556 S
C799 H787 0.950 . S
C799 C795 1.393 . S
C799 C798 1.391 1_554 S
H800 C808 0.950 . S
H801 C813 0.950 . S
H802 C810 0.950 . S
H803 C812 0.950 . S
H804 C814 0.950 . S
H805 C816 0.950 . S
H806 C818 0.950 . S
H807 C819 0.950 . S
C808 H800 0.950 . S
C808 C809 1.386 . S
C808 C810 1.391 . S
C809 C808 1.386 . S
C809 C813 1.393 . S
C810 H802 0.950 . S
C810 C808 1.391 . S
C810 C811 1.400 . S
C811 C810 1.400 . S
C811 C812 1.398 . S
C811 C817 1.491 . S
C812 H803 0.950 . S
C812 C811 1.398 . S
C812 C813 1.391 . S
C813 H801 0.950 . S
C813 C809 1.393 . S
C813 C812 1.391 . S
C814 H804 0.950 . S
C814 C815 1.386 . S
C814 C816 1.391 1_554 S
C815 C814 1.386 . S
C815 C819 1.393 . S
C816 H805 0.950 . S
C816 C814 1.391 1_556 S
C816 C817 1.400 . S
C817 C811 1.491 . S
C817 C816 1.400 . S
C817 C818 1.398 . S
C818 H806 0.950 . S
C818 C817 1.398 . S
C818 C819 1.391 1_556 S
C819 H807 0.950 . S
C819 C815 1.393 . S
C819 C818 1.391 1_554 S
H820 C828 0.950 . S
H821 C833 0.950 . S
H822 C830 0.950 . S
H823 C832 0.950 . S
H824 C834 0.950 . S
H825 C836 0.950 . S
H826 C838 0.950 . S
H827 C839 0.950 . S
C828 H820 0.950 . S
C828 C829 1.386 . S
C828 C830 1.391 . S
C829 C828 1.386 . S
C829 C833 1.393 . S
C830 H822 0.950 . S
C830 C828 1.391 . S
C830 C831 1.400 . S
C831 C830 1.400 . S
C831 C832 1.398 . S
C831 C837 1.491 . S
C832 H823 0.950 . S
C832 C831 1.398 . S
C832 C833 1.391 . S
C833 H821 0.950 . S
C833 C829 1.393 . S
C833 C832 1.391 . S
C834 H824 0.950 . S
C834 C835 1.386 . S
C834 C836 1.391 1_554 S
C835 C834 1.386 . S
C835 C839 1.393 . S
C836 H825 0.950 . S
C836 C834 1.391 1_556 S
C836 C837 1.400 . S
C837 C831 1.491 . S
C837 C836 1.400 . S
C837 C838 1.398 . S
C838 H826 0.950 . S
C838 C837 1.398 . S
C838 C839 1.391 1_556 S
C839 H827 0.950 . S
C839 C835 1.393 . S
C839 C838 1.391 1_554 S
H840 C848 0.950 . S
H841 C853 0.950 . S
H842 C850 0.950 . S
H843 C852 0.950 . S
H844 C854 0.950 . S
H845 C856 0.950 . S
H846 C858 0.950 . S
H847 C859 0.950 . S
C848 H840 0.950 . S
C848 C849 1.386 . S
C848 C850 1.391 . S
C849 C848 1.386 . S
C849 C853 1.393 . S
C850 H842 0.950 . S
C850 C848 1.391 . S
C850 C851 1.400 . S
C851 C850 1.400 . S
C851 C852 1.398 . S
C851 C857 1.491 . S
C852 H843 0.950 . S
C852 C851 1.398 . S
C852 C853 1.391 . S
C853 H841 0.950 . S
C853 C849 1.393 . S
C853 C852 1.391 . S
C854 H844 0.950 . S
C854 C855 1.386 . S
C854 C856 1.391 1_556 S
C855 C854 1.386 . S
C855 C859 1.393 . S
C856 H845 0.950 . S
C856 C854 1.391 1_554 S
C856 C857 1.400 . S
C857 C851 1.491 . S
C857 C856 1.400 . S
C857 C858 1.398 . S
C858 H846 0.950 . S
C858 C857 1.398 . S
C858 C859 1.391 1_554 S
C859 H847 0.950 . S
C859 C855 1.393 . S
C859 C858 1.391 1_556 S
H860 C868 0.950 . S
H861 C873 0.950 . S
H862 C870 0.950 . S
H863 C872 0.950 . S
H864 C874 0.950 . S
H865 C876 0.950 . S
H866 C878 0.950 . S
H867 C879 0.950 . S
C868 H860 0.950 . S
C868 C869 1.386 . S
C868 C870 1.391 1_556 S
C869 C868 1.386 . S
C869 C873 1.393 . S
C870 H862 0.950 . S
C870 C868 1.391 1_554 S
C870 C871 1.400 . S
C871 C870 1.400 . S
C871 C872 1.398 . S
C871 C877 1.491 . S
C872 H863 0.950 . S
C872 C871 1.398 . S
C872 C873 1.391 1_554 S
C873 H861 0.950 . S
C873 C869 1.393 . S
C873 C872 1.391 1_556 S
C874 H864 0.950 . S
C874 C875 1.386 . S
C874 C876 1.391 . S
C875 C874 1.386 . S
C875 C879 1.393 . S
C876 H865 0.950 . S
C876 C874 1.391 . S
C876 C877 1.400 . S
C877 C871 1.491 . S
C877 C876 1.400 . S
C877 C878 1.398 . S
C878 H866 0.950 . S
C878 C877 1.398 . S
C878 C879 1.391 . S
C879 H867 0.950 . S
C879 C875 1.393 . S
C879 C878 1.391 . S
H880 C888 0.950 . S
H881 C893 0.950 . S
H882 C890 0.950 . S
H883 C892 0.950 . S
H884 C894 0.950 . S
H885 C896 0.950 . S
H886 C898 0.950 . S
H887 C899 0.950 . S
C888 H880 0.950 . S
C888 C889 1.386 . S
C888 C890 1.391 . S
C889 C888 1.386 . S
C889 C893 1.393 . S
C890 H882 0.950 . S
C890 C888 1.391 . S
C890 C891 1.400 . S
C891 C890 1.400 . S
C891 C892 1.398 . S
C891 C897 1.491 . S
C892 H883 0.950 . S
C892 C891 1.398 . S
C892 C893 1.391 . S
C893 H881 0.950 . S
C893 C889 1.393 . S
C893 C892 1.391 . S
C894 H884 0.950 . S
C894 C895 1.386 . S
C894 C896 1.391 1_556 S
C895 C894 1.386 . S
C895 C899 1.393 . S
C896 H885 0.950 . S
C896 C894 1.391 1_554 S
C896 C897 1.400 . S
C897 C891 1.491 . S
C897 C896 1.400 . S
C897 C898 1.398 . S
C898 H886 0.950 . S
C898 C897 1.398 . S
C898 C899 1.391 1_554 S
C899 H887 0.950 . S
C899 C895 1.393 . S
C899 C898 1.391 1_556 S
C369 C10 1.843 . S
C375 C286 1.897 . S
C389 C50 1.843 . S
C395 C326 1.890 . S
C409 C90 1.837 . S
C415 C246 1.887 . S
C429 C170 1.843 . S
C435 C86 1.898 . S
C449 C210 1.845 . S
C455 C6 1.891 . S
C469 C46 1.899 . S
C475 C130 1.848 . S
C489 C290 1.831 . S
C495 C206 1.888 1_455 S
C509 C330 1.844 . S
C515 C126 1.890 . S
C529 C166 1.898 . S
C535 C250 1.853 . S
C549 C99 1.734 . S
C555 C15 1.720 . S
C569 C55 1.721 . S
C575 C19 1.733 . S
C589 C59 1.731 . S
C595 C95 1.726 . S
C609 C135 1.720 . S
C615 C219 1.734 . S
C629 C139 1.735 . S
C635 C175 1.717 . S
C649 C179 1.735 . S
C655 C215 1.716 . S
C669 C339 1.731 . S
C675 C255 1.727 . S
C689 C295 1.725 . S
C695 C259 1.732 . S
C709 C335 1.722 . S
C715 C299 1.733 . S
C729 C9 1.049 . S
C735 C18 1.049 . S
C749 C49 1.049 . S
C755 C58 1.049 . S
C769 C89 1.019 . S
C775 C98 1.013 1_545 S
C789 C138 1.039 . S
C795 C129 1.039 . S
C809 C178 1.040 . S
C815 C169 1.040 . S
C829 C218 1.029 . S
C835 C209 1.029 . S
C849 C249 1.032 . S
C855 C258 1.032 . S
C869 C298 1.020 . S
C875 C289 1.020 . S
C889 C329 1.050 . S
C895 C338 1.050 . S
