# Generated by pormake.
# Topology pcl, (4)-cn, num edge types: 1
# Building blocks:
#     Node 0, Type 0, BuildingBlock: CEKHIL_clean_sbu_0, # of connection points: 4
#     Node 1, Type 0, BuildingBlock: CEKHIL_clean_sbu_0, # of connection points: 4
#     Node 2, Type 0, BuildingBlock: CEKHIL_clean_sbu_0, # of connection points: 4
#     Node 3, Type 0, BuildingBlock: CEKHIL_clean_sbu_0, # of connection points: 4
#     Node 4, Type 0, BuildingBlock: CEKHIL_clean_sbu_0, # of connection points: 4
#     Node 5, Type 0, BuildingBlock: CEKHIL_clean_sbu_0, # of connection points: 4
#     Node 6, Type 0, BuildingBlock: CEKHIL_clean_sbu_0, # of connection points: 4
#     Node 7, Type 0, BuildingBlock: CEKHIL_clean_sbu_0, # of connection points: 4
#     Node 8, Type 0, BuildingBlock: CEKHIL_clean_sbu_0, # of connection points: 4
#     Node 9, Type 0, BuildingBlock: CEKHIL_clean_sbu_0, # of connection points: 4
#     Node 10, Type 0, BuildingBlock: CEKHIL_clean_sbu_0, # of connection points: 4
#     Node 11, Type 0, BuildingBlock: CEKHIL_clean_sbu_0, # of connection points: 4
#     Node 12, Type 0, BuildingBlock: CEKHIL_clean_sbu_0, # of connection points: 4
#     Node 13, Type 0, BuildingBlock: CEKHIL_clean_sbu_0, # of connection points: 4
#     Node 14, Type 0, BuildingBlock: CEKHIL_clean_sbu_0, # of connection points: 4
#     Node 15, Type 0, BuildingBlock: CEKHIL_clean_sbu_0, # of connection points: 4
#     Edge 16, Type (0, 0), BuildingBlock: EZIPEK_clean_linker_0, # of connection points: 2
#     Edge 17, Type (0, 0), BuildingBlock: EZIPEK_clean_linker_0, # of connection points: 2
#     Edge 18, Type (0, 0), BuildingBlock: EZIPEK_clean_linker_0, # of connection points: 2
#     Edge 19, Type (0, 0), BuildingBlock: EZIPEK_clean_linker_0, # of connection points: 2
#     Edge 20, Type (0, 0), BuildingBlock: EZIPEK_clean_linker_0, # of connection points: 2
#     Edge 21, Type (0, 0), BuildingBlock: EZIPEK_clean_linker_0, # of connection points: 2
#     Edge 22, Type (0, 0), BuildingBlock: EZIPEK_clean_linker_0, # of connection points: 2
#     Edge 23, Type (0, 0), BuildingBlock: EZIPEK_clean_linker_0, # of connection points: 2
#     Edge 24, Type (0, 0), BuildingBlock: EZIPEK_clean_linker_0, # of connection points: 2
#     Edge 25, Type (0, 0), BuildingBlock: EZIPEK_clean_linker_0, # of connection points: 2
#     Edge 26, Type (0, 0), BuildingBlock: EZIPEK_clean_linker_0, # of connection points: 2
#     Edge 27, Type (0, 0), BuildingBlock: EZIPEK_clean_linker_0, # of connection points: 2
#     Edge 28, Type (0, 0), BuildingBlock: EZIPEK_clean_linker_0, # of connection points: 2
#     Edge 29, Type (0, 0), BuildingBlock: EZIPEK_clean_linker_0, # of connection points: 2
#     Edge 30, Type (0, 0), BuildingBlock: EZIPEK_clean_linker_0, # of connection points: 2
#     Edge 31, Type (0, 0), BuildingBlock: EZIPEK_clean_linker_0, # of connection points: 2
#     Edge 32, Type (0, 0), BuildingBlock: EZIPEK_clean_linker_0, # of connection points: 2
#     Edge 33, Type (0, 0), BuildingBlock: EZIPEK_clean_linker_0, # of connection points: 2
#     Edge 34, Type (0, 0), BuildingBlock: EZIPEK_clean_linker_0, # of connection points: 2
#     Edge 35, Type (0, 0), BuildingBlock: EZIPEK_clean_linker_0, # of connection points: 2
#     Edge 36, Type (0, 0), BuildingBlock: EZIPEK_clean_linker_0, # of connection points: 2
#     Edge 37, Type (0, 0), BuildingBlock: EZIPEK_clean_linker_0, # of connection points: 2
#     Edge 38, Type (0, 0), BuildingBlock: EZIPEK_clean_linker_0, # of connection points: 2
#     Edge 39, Type (0, 0), BuildingBlock: EZIPEK_clean_linker_0, # of connection points: 2
#     Edge 40, Type (0, 0), BuildingBlock: EZIPEK_clean_linker_0, # of connection points: 2
#     Edge 41, Type (0, 0), BuildingBlock: EZIPEK_clean_linker_0, # of connection points: 2
#     Edge 42, Type (0, 0), BuildingBlock: EZIPEK_clean_linker_0, # of connection points: 2
#     Edge 43, Type (0, 0), BuildingBlock: EZIPEK_clean_linker_0, # of connection points: 2
#     Edge 44, Type (0, 0), BuildingBlock: EZIPEK_clean_linker_0, # of connection points: 2
#     Edge 45, Type (0, 0), BuildingBlock: EZIPEK_clean_linker_0, # of connection points: 2
#     Edge 46, Type (0, 0), BuildingBlock: EZIPEK_clean_linker_0, # of connection points: 2
#     Edge 47, Type (0, 0), BuildingBlock: EZIPEK_clean_linker_0, # of connection points: 2
# Relax obj value: 0.071
# Max RMSD: 0.055
# Mean RMSD: 0.054
data_MOF--net-pcl--node1-CEKHIL_clean_sbu_0--edge1-EZIPEK_clean_linker_0
_symmetry_space_group_name_H-M    P1
_symmetry_Int_Tables_number       1
_symmetry_cell_setting            triclinic
loop_
_symmetry_equiv_pos_as_xyz
'x, y, z'
_cell_length_a     38.80875
_cell_length_b     29.853807
_cell_length_c     31.044954
_cell_angle_alpha  89.999517
_cell_angle_beta   90.001058
_cell_angle_gamma 89.994561
loop_
_atom_site_label
_atom_site_type_symbol
_atom_site_fract_x
_atom_site_fract_y
_atom_site_fract_z
_atom_type_partial_charge
Co0 Co 0.14275 0.34256 0.07031 0.0
O1 O 0.19208 0.33705 0.06256 0.0
O2 O 0.15582 0.28254 0.05119 0.0
C3 C 0.13813 0.40956 0.03564 0.0
O4 O 0.08959 0.33615 0.07319 0.0
Co5 Co 0.11182 0.42167 0.12312 0.0
O6 O 0.06678 0.39812 0.10359 0.0
C7 C 0.14726 0.34783 0.16802 0.0
C8 C 0.18785 0.29547 0.05186 0.0
C9 C 0.06348 0.36009 0.08545 0.0
O10 O 0.14777 0.32442 0.13309 0.0
O11 O 0.13714 0.38858 0.16962 0.0
O12 O 0.1392 0.37236 0.01391 0.0
O13 O 0.14234 0.40501 0.07661 0.0
Co14 Co 0.87185 0.65964 0.57051 0.0
O15 O 0.8232 0.66448 0.55651 0.0
O16 O 0.86089 0.71905 0.54789 0.0
C17 C 0.87895 0.59184 0.5382 0.0
O18 O 0.92441 0.66719 0.57947 0.0
Co19 Co 0.90033 0.58268 0.6273 0.0
O20 O 0.94631 0.605 0.61012 0.0
C21 C 0.86287 0.65793 0.66789 0.0
C22 C 0.82931 0.70502 0.54379 0.0
C23 C 0.95015 0.64326 0.59267 0.0
O24 O 0.86214 0.67956 0.63191 0.0
O25 O 0.87435 0.61794 0.67165 0.0
O26 O 0.88021 0.6285 0.51572 0.0
O27 O 0.87155 0.59689 0.57839 0.0
Co28 Co 0.13828 0.66013 0.93611 0.0
O29 O 0.18709 0.66236 0.94983 0.0
O30 O 0.15126 0.71848 0.95995 0.0
C31 C 0.1296 0.59172 0.96832 0.0
O32 O 0.08586 0.6703 0.92811 0.0
Co33 Co 0.10865 0.58723 0.87718 0.0
O34 O 0.06341 0.61622 0.88606 0.0
C35 C 0.14801 0.66079 0.83848 0.0
C36 C 0.18246 0.70289 0.9636 0.0
C37 C 0.06011 0.65116 0.90905 0.0
O38 O 0.1487 0.68121 0.8751 0.0
O39 O 0.136 0.62127 0.83361 0.0
O40 O 0.1287 0.62872 0.99019 0.0
O41 O 0.13702 0.59685 0.92797 0.0
Co42 Co 0.87248 0.34416 0.43431 0.0
O43 O 0.82358 0.34073 0.44685 0.0
O44 O 0.86023 0.28566 0.45825 0.0
C45 C 0.8798 0.4126 0.46536 0.0
O46 O 0.9251 0.3354 0.42723 0.0
Co47 Co 0.90273 0.41897 0.37649 0.0
O48 O 0.94812 0.39624 0.39535 0.0
C49 C 0.86545 0.34325 0.33657 0.0
C50 C 0.82879 0.30056 0.46125 0.0
C51 C 0.95127 0.35853 0.41406 0.0
O52 O 0.86364 0.32276 0.37312 0.0
O53 O 0.87749 0.38288 0.33214 0.0
O54 O 0.88018 0.37644 0.4886 0.0
O55 O 0.87303 0.40679 0.42508 0.0
Co56 Co 0.83603 0.67276 0.91619 0.0
O57 O 0.78657 0.67783 0.92395 0.0
O58 O 0.82504 0.70978 0.96622 0.0
C59 C 0.8359 0.68666 0.84414 0.0
O60 O 0.88925 0.67685 0.91731 0.0
Co61 Co 0.86674 0.59861 0.85702 0.0
O62 O 0.91145 0.62814 0.86927 0.0
C63 C 0.84036 0.57424 0.94265 0.0
C64 C 0.79272 0.70358 0.9567 0.0
C65 C 0.91512 0.65878 0.8975 0.0
O66 O 0.83696 0.61605 0.95255 0.0
O67 O 0.84894 0.56044 0.90517 0.0
O68 O 0.83455 0.71952 0.87151 0.0
O69 O 0.83405 0.64725 0.86098 0.0
Co70 Co 0.17524 0.33469 0.41667 0.0
O71 O 0.22475 0.3293 0.42401 0.0
O72 O 0.18643 0.2983 0.4671 0.0
C73 C 0.17527 0.31984 0.34471 0.0
O74 O 0.12198 0.33125 0.41854 0.0
Co75 Co 0.14433 0.4078 0.35615 0.0
O76 O 0.09975 0.37823 0.3689 0.0
C77 C 0.17119 0.43353 0.4414 0.0
C78 C 0.21872 0.30406 0.45716 0.0
C79 C 0.09609 0.34881 0.3983 0.0
O80 O 0.1748 0.39196 0.45208 0.0
O81 O 0.16221 0.44657 0.4038 0.0
O82 O 0.17629 0.28732 0.37248 0.0
O83 O 0.17704 0.3594 0.36117 0.0
Co84 Co 0.83951 0.33009 0.08899 0.0
O85 O 0.78999 0.32349 0.08178 0.0
O86 O 0.82885 0.29489 0.03776 0.0
C87 C 0.8399 0.31368 0.16071 0.0
O88 O 0.89267 0.32798 0.08592 0.0
Co89 Co 0.87108 0.4011 0.15104 0.0
O90 O 0.91586 0.37266 0.13674 0.0
C91 C 0.84336 0.42948 0.06669 0.0
C92 C 0.79653 0.29968 0.04782 0.0
C93 C 0.91891 0.34465 0.10603 0.0
O94 O 0.83918 0.38829 0.05495 0.0
O95 O 0.85257 0.44116 0.10466 0.0
O96 O 0.8393 0.2817 0.13232 0.0
O97 O 0.83776 0.35354 0.1451 0.0
Co98 Co 0.17394 0.67607 0.59107 0.0
O99 O 0.2231 0.68393 0.58194 0.0
O100 O 0.18277 0.71271 0.54015 0.0
C101 C 0.1749 0.69107 0.66301 0.0
O102 O 0.12059 0.67672 0.59096 0.0
Co103 Co 0.14662 0.60151 0.65263 0.0
O104 O 0.10071 0.62765 0.64028 0.0
C105 C 0.17165 0.57713 0.56618 0.0
C106 C 0.21541 0.70833 0.54879 0.0
C107 C 0.09561 0.65718 0.61131 0.0
O108 O 0.17427 0.61884 0.55563 0.0
O109 O 0.16391 0.5636 0.60405 0.0
O110 O 0.17456 0.72358 0.6352 0.0
O111 O 0.17767 0.6516 0.64656 0.0
Co112 Co 0.6384 0.84338 0.07111 0.0
O113 O 0.6871 0.83831 0.05754 0.0
O114 O 0.64909 0.78439 0.04739 0.0
C115 C 0.63175 0.91197 0.04006 0.0
O116 O 0.58573 0.83615 0.07918 0.0
Co117 Co 0.61026 0.91895 0.12957 0.0
O118 O 0.56413 0.89651 0.11337 0.0
C119 C 0.64737 0.8427 0.16856 0.0
C120 C 0.68078 0.79814 0.0439 0.0
C121 C 0.56014 0.85934 0.09392 0.0
O122 O 0.64772 0.82185 0.13215 0.0
O123 O 0.63632 0.88279 0.17312 0.0
O124 O 0.63056 0.87577 0.01691 0.0
O125 O 0.63901 0.90607 0.0802 0.0
Co126 Co 0.37282 0.16369 0.57156 0.0
O127 O 0.32417 0.16912 0.55782 0.0
O128 O 0.3624 0.22283 0.54796 0.0
C129 C 0.37905 0.09516 0.5404 0.0
O130 O 0.42548 0.17036 0.58012 0.0
Co131 Co 0.40055 0.08721 0.62962 0.0
O132 O 0.44667 0.10814 0.61148 0.0
C133 C 0.36438 0.16421 0.66904 0.0
C134 C 0.33065 0.2093 0.54432 0.0
C135 C 0.45095 0.14605 0.59349 0.0
O136 O 0.36365 0.18506 0.63264 0.0
O137 O 0.37539 0.12408 0.67351 0.0
O138 O 0.38062 0.13136 0.51728 0.0
O139 O 0.37187 0.10112 0.58055 0.0
Co140 Co 0.6417 0.15892 0.93469 0.0
O141 O 0.69035 0.16297 0.94852 0.0
O142 O 0.65326 0.21797 0.95797 0.0
C143 C 0.63446 0.09097 0.9666 0.0
O144 O 0.58915 0.16688 0.92589 0.0
Co145 Co 0.61299 0.08242 0.87742 0.0
O146 O 0.56719 0.10463 0.89538 0.0
C147 C 0.65028 0.15808 0.8372 0.0
C148 C 0.68471 0.20336 0.96206 0.0
C149 C 0.56339 0.14289 0.91283 0.0
O150 O 0.65137 0.1793 0.87341 0.0
O151 O 0.63862 0.11821 0.83315 0.0
O152 O 0.63328 0.12748 0.98927 0.0
O153 O 0.64176 0.09624 0.9264 0.0
Co154 Co 0.37145 0.84766 0.43621 0.0
O155 O 0.32252 0.84497 0.44897 0.0
O156 O 0.35858 0.7891 0.45952 0.0
C157 C 0.37964 0.91564 0.468 0.0
O158 O 0.42397 0.83781 0.42882 0.0
Co159 Co 0.40267 0.92241 0.3792 0.0
O160 O 0.44786 0.89795 0.39672 0.0
C161 C 0.36391 0.8484 0.33856 0.0
C162 C 0.32732 0.80453 0.46289 0.0
C163 C 0.45046 0.86012 0.41531 0.0
O164 O 0.36209 0.82732 0.3748 0.0
O165 O 0.37648 0.8878 0.33463 0.0
O166 O 0.37965 0.87918 0.49082 0.0
O167 O 0.37276 0.91043 0.42767 0.0
Co168 Co 0.33975 0.17339 0.91582 0.0
O169 O 0.29072 0.18174 0.92574 0.0
O170 O 0.3316 0.20712 0.96855 0.0
C171 C 0.33881 0.1915 0.8447 0.0
O172 O 0.39302 0.17354 0.91565 0.0
Co173 Co 0.36653 0.10122 0.85154 0.0
O174 O 0.41259 0.12683 0.86415 0.0
C175 C 0.3414 0.07335 0.93683 0.0
C176 C 0.29881 0.2039 0.96025 0.0
C177 C 0.41786 0.15507 0.89424 0.0
O178 O 0.33901 0.11463 0.94883 0.0
O179 O 0.3492 0.06121 0.89855 0.0
O180 O 0.33943 0.22283 0.87378 0.0
O181 O 0.3357 0.15138 0.85949 0.0
Co182 Co 0.67403 0.83038 0.41591 0.0
O183 O 0.72348 0.82423 0.42308 0.0
O184 O 0.68501 0.79459 0.46683 0.0
C185 C 0.67373 0.81438 0.34418 0.0
O186 O 0.62073 0.82809 0.41809 0.0
Co187 Co 0.64373 0.90292 0.35432 0.0
O188 O 0.59887 0.87428 0.36749 0.0
C189 C 0.67044 0.92957 0.43948 0.0
C190 C 0.71732 0.79965 0.45663 0.0
C191 C 0.59498 0.84566 0.39756 0.0
O192 O 0.67422 0.88815 0.45055 0.0
O193 O 0.66141 0.94216 0.40175 0.0
O194 O 0.67446 0.78229 0.37242 0.0
O195 O 0.67604 0.85417 0.36 0.0
Co196 Co 0.33617 0.83253 0.09016 0.0
O197 O 0.28699 0.82535 0.08084 0.0
O198 O 0.32728 0.79493 0.04002 0.0
C199 C 0.33536 0.81928 0.16234 0.0
O200 O 0.38942 0.83077 0.09061 0.0
Co201 Co 0.36375 0.9088 0.14943 0.0
O202 O 0.4097 0.88323 0.13628 0.0
C203 C 0.33912 0.93075 0.06248 0.0
C204 C 0.29463 0.8001 0.04824 0.0
C205 C 0.41455 0.85159 0.10937 0.0
O206 O 0.33656 0.88873 0.0532 0.0
O207 O 0.34662 0.9455 0.09997 0.0
O208 O 0.33504 0.78612 0.13524 0.0
O209 O 0.33266 0.85843 0.1451 0.0
Co210 Co 0.67509 0.17255 0.58898 0.0
O211 O 0.72433 0.17946 0.57993 0.0
O212 O 0.68432 0.20921 0.53825 0.0
C213 C 0.67601 0.18726 0.66091 0.0
O214 O 0.62181 0.17454 0.58892 0.0
Co215 Co 0.64681 0.0982 0.64998 0.0
O216 O 0.60134 0.12589 0.6382 0.0
C217 C 0.67208 0.07368 0.56377 0.0
C218 C 0.71691 0.20423 0.54691 0.0
C219 C 0.5966 0.15573 0.60942 0.0
O220 O 0.67481 0.11542 0.55333 0.0
O221 O 0.66419 0.0601 0.60156 0.0
O222 O 0.67621 0.21986 0.63319 0.0
O223 O 0.67843 0.14778 0.64439 0.0
C224 C 1.00424 0.36755 0.05273 0.0
C225 C 0.02724 0.3437 0.08005 0.0
C226 C 0.97767 0.30993 0.11724 0.0
C227 C 0.95483 0.33518 0.091 0.0
N228 N 0.946 0.37652 0.0254 0.0
N229 N 0.03599 0.28312 0.12997 0.0
C230 C 0.96807 0.35982 0.05567 0.0
C231 C 0.01392 0.31151 0.10929 0.0
N232 N 0.01688 0.39954 0.0256 0.0
N233 N 0.96465 0.28588 0.15086 0.0
H234 H 0.06247 0.28348 0.12443 0.0
H235 H 0.02795 0.25665 0.14932 0.0
H236 H 0.93824 0.28241 0.15563 0.0
H237 H 0.97972 0.27108 0.17467 0.0
H238 H 1.00147 0.42207 0.00873 0.0
H239 H 0.04316 0.40528 0.02218 0.0
H240 H 0.95417 0.39155 0.9969 0.0
H241 H 0.91944 0.37148 0.02681 0.0
C242 C 0.00699 0.65921 0.55622 0.0
C243 C 0.98587 0.66195 0.59337 0.0
C244 C 0.0369 0.68005 0.63696 0.0
C245 C 0.05862 0.66829 0.60187 0.0
N246 N 0.06436 0.64715 0.52713 0.0
N247 N 0.9799 0.6773 0.66909 0.0
C248 C 0.04371 0.65904 0.56087 0.0
C249 C 1.0006 0.67387 0.6336 0.0
N250 N 0.99183 0.65644 0.51663 0.0
N251 N 0.05125 0.69718 0.67359 0.0
H252 H 0.9531 0.67529 0.66728 0.0
H253 H 0.98913 0.68016 0.70045 0.0
H254 H 0.07772 0.70177 0.67673 0.0
H255 H 0.03708 0.71042 0.69905 0.0
H256 H 1.00542 0.65794 0.48776 0.0
H257 H 0.96513 0.65713 0.51275 0.0
H258 H 0.05502 0.63433 0.49821 0.0
H259 H 0.09115 0.64784 0.52867 0.0
C260 C 0.97243 0.68771 0.87148 0.0
C261 C 0.95151 0.67319 0.90647 0.0
C262 C 1.00377 0.65792 0.94908 0.0
C263 C 0.02441 0.66928 0.91296 0.0
N264 N 0.02964 0.70681 0.845 0.0
N265 N 0.94712 0.65806 0.98257 0.0
C266 C 0.009 0.68844 0.87597 0.0
C267 C 0.96716 0.66318 0.94677 0.0
N268 N 0.95723 0.69896 0.83329 0.0
N269 N 0.01901 0.63939 0.98454 0.0
H270 H 0.92048 0.66201 0.98205 0.0
H271 H 0.95703 0.65424 0.01351 0.0
H272 H 0.04569 0.63667 0.98771 0.0
H273 H 1.00536 0.62487 0.0098 0.0
H274 H 0.97068 0.70454 0.8048 0.0
H275 H 0.93059 0.701 0.82983 0.0
H276 H 0.02044 0.72458 0.81854 0.0
H277 H 0.05641 0.70759 0.84799 0.0
C278 C 0.04426 0.34582 0.44862 0.0
C279 C 0.05968 0.33529 0.40823 0.0
C280 C 1.00215 0.32523 0.37624 0.0
C281 C 0.98688 0.3396 0.41536 0.0
N282 N 0.99176 0.35028 0.49166 0.0
N283 N 0.05384 0.30194 0.3382 0.0
C284 C 0.0075 0.34522 0.45263 0.0
C285 C 0.03862 0.32047 0.37363 0.0
N286 N 0.06452 0.35904 0.48226 0.0
N287 N 0.98173 0.31817 0.34099 0.0
H288 H 0.08045 0.29813 0.33599 0.0
H289 H 0.04037 0.28694 0.31307 0.0
H290 H 0.95488 0.31901 0.34263 0.0
H291 H 0.99115 0.31312 0.30999 0.0
H292 H 0.05494 0.37277 0.51064 0.0
H293 H 0.09132 0.35782 0.48124 0.0
H294 H 1.0049 0.35128 0.52087 0.0
H295 H 0.96502 0.34918 0.49499 0.0
C296 C 0.47278 0.82802 0.13699 0.0
C297 C 0.4514 0.83878 0.10113 0.0
C298 C 0.50328 0.84752 0.05578 0.0
C299 C 0.52421 0.84138 0.09275 0.0
N300 N 0.53035 0.81313 0.16461 0.0
N301 N 0.44575 0.84943 0.02436 0.0
C302 C 0.50927 0.82722 0.13203 0.0
C303 C 0.4665 0.84495 0.05967 0.0
N304 N 0.45809 0.82053 0.17636 0.0
N305 N 0.51877 0.85761 0.01747 0.0
H306 H 0.41898 0.84886 0.02603 0.0
H307 H 0.45469 0.85119 0.99284 0.0
H308 H 0.54544 0.85607 0.0135 0.0
H309 H 0.50576 0.86773 0.98987 0.0
H310 H 0.47181 0.818 0.20504 0.0
H311 H 0.43154 0.81854 0.18068 0.0
H312 H 0.52169 0.79862 0.19308 0.0
H313 H 0.55709 0.81253 0.16143 0.0
C314 C 0.53876 0.1801 0.63652 0.0
C315 C 0.5598 0.16847 0.60078 0.0
C316 C 0.50746 0.16177 0.55604 0.0
C317 C 0.48692 0.16394 0.59374 0.0
N318 N 0.48222 0.17792 0.66987 0.0
N319 N 0.5643 0.14995 0.52527 0.0
C320 C 0.50236 0.17473 0.63386 0.0
C321 C 0.54423 0.16085 0.55985 0.0
N322 N 0.55386 0.19639 0.67305 0.0
N323 N 0.4917 0.16028 0.51675 0.0
H324 H 0.5911 0.15079 0.52609 0.0
H325 H 0.55449 0.13814 0.49621 0.0
H326 H 0.46496 0.16152 0.51348 0.0
H327 H 0.50486 0.16226 0.4876 0.0
H328 H 0.54022 0.20935 0.69909 0.0
H329 H 0.58042 0.20072 0.67554 0.0
H330 H 0.49194 0.17995 0.70106 0.0
H331 H 0.45538 0.17657 0.66863 0.0
C332 C 0.50654 0.15811 0.94934 0.0
C333 C 0.52764 0.16146 0.91225 0.0
C334 C 0.47641 0.17892 0.86879 0.0
C335 C 0.45484 0.16616 0.9037 0.0
N336 N 0.4495 0.14344 0.97813 0.0
N337 N 0.53338 0.17709 0.83655 0.0
C338 C 0.46987 0.15672 0.9446 0.0
C339 C 0.51276 0.17326 0.87207 0.0
N340 N 0.52168 0.15599 0.98897 0.0
N341 N 0.46193 0.19657 0.83246 0.0
H342 H 0.56019 0.17539 0.8383 0.0
H343 H 0.52403 0.17989 0.80523 0.0
H344 H 0.43543 0.20113 0.82942 0.0
H345 H 0.47605 0.21039 0.80724 0.0
H346 H 0.50798 0.15707 0.01778 0.0
H347 H 0.54834 0.15792 0.99288 0.0
H348 H 0.45918 0.13055 0.00685 0.0
H349 H 0.42271 0.14278 0.97653 0.0
C350 C 0.50042 0.82378 0.37794 0.0
C351 C 0.48578 0.8403 0.41668 0.0
C352 C 0.54364 0.84697 0.44854 0.0
C353 C 0.55845 0.83375 0.40854 0.0
N354 N 0.55132 0.7971 0.34025 0.0
N355 N 0.49178 0.8545 0.49232 0.0
C356 C 0.53679 0.81782 0.375 0.0
C357 C 0.50694 0.84726 0.45326 0.0
N358 N 0.47953 0.81584 0.34331 0.0
N359 N 0.56442 0.862 0.48097 0.0
H360 H 0.46506 0.85407 0.4962 0.0
H361 H 0.50533 0.85654 0.52118 0.0
H362 H 0.5912 0.86073 0.4794 0.0
H363 H 0.55524 0.87757 0.50869 0.0
H364 H 0.48857 0.80914 0.31241 0.0
H365 H 0.45272 0.81765 0.34529 0.0
H366 H 0.5373 0.78132 0.31603 0.0
H367 H 0.57784 0.7923 0.33783 0.0
C368 C 0.1913 0.34368 0.22632 0.0
C369 C 0.15978 0.32804 0.20899 0.0
C370 C 0.14725 0.28933 0.27699 0.0
C371 C 0.17433 0.31363 0.29698 0.0
N372 N 0.22625 0.35722 0.28994 0.0
N373 N 0.10774 0.28491 0.21656 0.0
C374 C 0.19786 0.3384 0.27118 0.0
C375 C 0.13811 0.29968 0.23366 0.0
N376 N 0.21485 0.36332 0.19955 0.0
N377 N 0.13044 0.25635 0.29899 0.0
H378 H 0.10088 0.29073 0.18459 0.0
H379 H 0.08861 0.26918 0.23459 0.0
H380 H 0.13626 0.24778 0.33064 0.0
H381 H 0.11277 0.23473 0.28466 0.0
H382 H 0.23951 0.37282 0.20895 0.0
H383 H 0.21059 0.36681 0.16651 0.0
H384 H 0.24226 0.38029 0.27477 0.0
H385 H 0.23365 0.34993 0.3215 0.0
C386 C 0.87019 0.7094 0.73125 0.0
C387 C 0.84932 0.67887 0.70787 0.0
C388 C 0.81248 0.66815 0.77126 0.0
C389 C 0.83665 0.69246 0.79637 0.0
N390 N 0.88082 0.74936 0.79813 0.0
N391 N 0.79831 0.63367 0.70245 0.0
C392 C 0.86297 0.71761 0.77566 0.0
C393 C 0.8193 0.66035 0.72683 0.0
N394 N 0.89834 0.72793 0.7117 0.0
N395 N 0.78249 0.65395 0.78997 0.0
H396 H 0.80166 0.62995 0.66927 0.0
H397 H 0.77816 0.6146 0.71471 0.0
H398 H 0.77623 0.6614 0.82187 0.0
H399 H 0.76249 0.63839 0.77348 0.0
H400 H 0.9176 0.74529 0.72797 0.0
H401 H 0.90308 0.72452 0.6788 0.0
H402 H 0.89789 0.77186 0.78402 0.0
H403 H 0.87696 0.75562 0.83072 0.0
C404 C 0.14305 0.71565 0.77731 0.0
C405 C 0.16236 0.68233 0.79921 0.0
C406 C 0.19871 0.67243 0.7354 0.0
C407 C 0.17456 0.69725 0.71079 0.0
N408 N 0.12708 0.74952 0.70885 0.0
N409 N 0.21104 0.63261 0.80179 0.0
C410 C 0.14816 0.72193 0.73205 0.0
C411 C 0.19136 0.66244 0.77919 0.0
N412 N 0.11944 0.74031 0.79977 0.0
N413 N 0.22902 0.65934 0.71683 0.0
H414 H 0.20765 0.6271 0.83473 0.0
H415 H 0.22981 0.61235 0.78785 0.0
H416 H 0.23553 0.66795 0.68527 0.0
H417 H 0.24908 0.64418 0.73364 0.0
H418 H 0.10565 0.76707 0.78706 0.0
H419 H 0.1155 0.73615 0.83274 0.0
H420 H 0.10535 0.76528 0.72124 0.0
H421 H 0.13046 0.75583 0.67619 0.0
C422 C 0.86698 0.28296 0.22942 0.0
C423 C 0.84002 0.30669 0.20838 0.0
C424 C 0.82235 0.34024 0.27704 0.0
C425 C 0.85201 0.32172 0.2968 0.0
N426 N 0.89758 0.2673 0.29658 0.0
N427 N 0.78492 0.34288 0.21437 0.0
C428 C 0.87248 0.28983 0.27455 0.0
C429 C 0.81535 0.33048 0.2331 0.0
N430 N 0.88787 0.25534 0.20603 0.0
N431 N 0.80177 0.3687 0.30002 0.0
H432 H 0.77881 0.33453 0.18262 0.0
H433 H 0.76449 0.35731 0.23107 0.0
H434 H 0.80505 0.37403 0.33301 0.0
H435 H 0.78228 0.38803 0.28643 0.0
H436 H 0.90962 0.23938 0.21807 0.0
H437 H 0.88347 0.2481 0.17371 0.0
H438 H 0.91316 0.24248 0.28348 0.0
H439 H 0.90162 0.27177 0.32951 0.0
C440 C 0.69796 0.83113 0.27143 0.0
C441 C 0.67343 0.80745 0.29654 0.0
C442 C 0.64033 0.79012 0.23116 0.0
C443 C 0.66116 0.82089 0.208 0.0
N444 N 0.71233 0.86578 0.20281 0.0
N445 N 0.62874 0.75135 0.29856 0.0
C446 C 0.69122 0.83912 0.22704 0.0
C447 C 0.64706 0.78243 0.27582 0.0
N448 N 0.7281 0.8447 0.29015 0.0
N449 N 0.61287 0.77066 0.21095 0.0
H450 H 0.63275 0.74514 0.33114 0.0
H451 H 0.61108 0.72937 0.28486 0.0
H452 H 0.60899 0.77341 0.17783 0.0
H453 H 0.59368 0.75261 0.2266 0.0
H454 H 0.74835 0.85963 0.27357 0.0
H455 H 0.7342 0.83719 0.3221 0.0
H456 H 0.73247 0.88476 0.21525 0.0
H457 H 0.70902 0.86961 0.16963 0.0
C458 C 0.31389 0.17798 0.77169 0.0
C459 C 0.33924 0.1996 0.79726 0.0
C460 C 0.37366 0.21482 0.73252 0.0
C461 C 0.35144 0.18635 0.7087 0.0
N462 N 0.29815 0.14609 0.70223 0.0
N463 N 0.38616 0.25248 0.80021 0.0
C464 C 0.3204 0.17036 0.72716 0.0
C465 C 0.3668 0.22282 0.77706 0.0
N466 N 0.28333 0.16581 0.79025 0.0
N467 N 0.40253 0.23155 0.71313 0.0
H468 H 0.38215 0.25873 0.83278 0.0
H469 H 0.40467 0.2734 0.78671 0.0
H470 H 0.40695 0.22829 0.68013 0.0
H471 H 0.42249 0.2474 0.72949 0.0
H472 H 0.26264 0.15207 0.77359 0.0
H473 H 0.27755 0.17308 0.82234 0.0
H474 H 0.27679 0.12899 0.71398 0.0
H475 H 0.30156 0.1425 0.66904 0.0
C476 C 0.64228 0.20978 0.77417 0.0
C477 C 0.66352 0.17943 0.79726 0.0
C478 C 0.70013 0.16954 0.73357 0.0
C479 C 0.67553 0.19338 0.70866 0.0
N480 N 0.63052 0.24917 0.70722 0.0
N481 N 0.71474 0.13452 0.80192 0.0
C482 C 0.64901 0.21797 0.72961 0.0
C483 C 0.69354 0.16132 0.77796 0.0
N484 N 0.61428 0.22815 0.7942 0.0
N485 N 0.73026 0.15616 0.71468 0.0
H486 H 0.71158 0.13043 0.83509 0.0
H487 H 0.7348 0.11555 0.78923 0.0
H488 H 0.7363 0.16382 0.68276 0.0
H489 H 0.75059 0.14125 0.73114 0.0
H490 H 0.59479 0.24547 0.77835 0.0
H491 H 0.60999 0.22477 0.8272 0.0
H492 H 0.6131 0.27119 0.72136 0.0
H493 H 0.63409 0.25546 0.67459 0.0
C494 C 0.31291 0.83872 0.23529 0.0
C495 C 0.33677 0.81396 0.21017 0.0
C496 C 0.36902 0.79519 0.27609 0.0
C497 C 0.34972 0.82804 0.29862 0.0
N498 N 0.30125 0.87811 0.30209 0.0
N499 N 0.385 0.76285 0.207 0.0
C500 C 0.32066 0.84833 0.27906 0.0
C501 C 0.36363 0.7895 0.23081 0.0
N502 N 0.28242 0.85201 0.21731 0.0
N503 N 0.3929 0.7704 0.29796 0.0
H504 H 0.38184 0.75743 0.17415 0.0
H505 H 0.40704 0.74749 0.219 0.0
H506 H 0.39727 0.77436 0.33087 0.0
H507 H 0.40645 0.74365 0.28481 0.0
H508 H 0.26253 0.86699 0.23459 0.0
H509 H 0.27554 0.84374 0.18579 0.0
H510 H 0.28253 0.89867 0.28846 0.0
H511 H 0.30486 0.88338 0.33503 0.0
C512 C 0.27563 0.26885 0.00439 0.0
C513 C 0.27167 0.22458 0.98853 0.0
C514 C 0.21399 0.22155 0.02246 0.0
C515 C 0.2181 0.26647 0.03758 0.0
N516 N 0.26142 0.31868 0.06272 0.0
N517 N 0.2414 0.15431 0.99435 0.0
C518 C 0.25151 0.28594 0.03463 0.0
C519 C 0.24195 0.19963 1.00077 0.0
N520 N 0.3015 0.29575 0.98954 0.0
N521 N 0.1841 0.19883 0.03007 0.0
H522 H 0.26209 0.13673 0.98121 0.0
H523 H 0.22215 0.13333 0.00611 0.0
H524 H 0.16693 0.20772 0.05434 0.0
H525 H 0.17703 0.17011 0.01319 0.0
H526 H 0.30324 0.32957 0.99768 0.0
H527 H 0.31873 0.28597 0.96558 0.0
H528 H 0.28632 0.33178 0.0632 0.0
H529 H 0.24695 0.32699 0.08986 0.0
C530 C 0.79927 0.73089 0.47642 0.0
C531 C 0.80189 0.73201 0.52199 0.0
C532 C 0.75051 0.78061 0.52501 0.0
C533 C 0.746 0.77586 0.47975 0.0
N534 N 0.76237 0.73836 0.4139 0.0
N535 N 0.77783 0.75324 0.59048 0.0
C536 C 0.76951 0.749 0.45582 0.0
C537 C 0.7768 0.75545 0.54653 0.0
N538 N 0.82534 0.71255 0.45262 0.0
N539 N 0.73075 0.81068 0.54718 0.0
H540 H 0.79743 0.73678 0.60719 0.0
H541 H 0.75818 0.76514 0.61024 0.0
H542 H 0.7118 0.83019 0.53253 0.0
H543 H 0.7351 0.8192 0.57925 0.0
H544 H 0.82687 0.7153 0.41923 0.0
H545 H 0.84708 0.69787 0.46644 0.0
H546 H 0.77649 0.71509 0.39621 0.0
H547 H 0.7402 0.749 0.39798 0.0
C548 C 0.24524 0.79778 0.9948 0.0
C549 C 0.26718 0.7752 0.02434 0.0
C550 C 0.23147 0.70756 0.01737 0.0
C551 C 0.21126 0.72857 0.98479 0.0
N552 N 0.20333 0.79144 0.93696 0.0
N553 N 0.28453 0.70632 0.05857 0.0
C554 C 0.21924 0.77322 0.9721 0.0
C555 C 0.26144 0.72932 0.03372 0.0
N556 N 0.24914 0.84281 0.98853 0.0
N557 N 0.22081 0.66797 0.03495 0.0
H558 H 0.30597 0.72128 0.07281 0.0
H559 H 0.284 0.67164 0.06221 0.0
H560 H 0.1982 0.65202 0.0257 0.0
H561 H 0.2322 0.65342 0.06191 0.0
H562 H 0.23158 0.86228 0.97141 0.0
H563 H 0.26884 0.86132 1.00289 0.0
H564 H 0.21049 0.82195 0.9234 0.0
H565 H 0.18507 0.77421 0.91874 0.0
C566 C 0.76568 0.20633 0.49265 0.0
C567 C 0.74451 0.22889 0.52305 0.0
C568 C 0.78117 0.29579 0.51654 0.0
C569 C 0.80042 0.2749 0.48305 0.0
N570 N 0.80724 0.21257 0.43437 0.0
N571 N 0.72882 0.29738 0.5592 0.0
C572 C 0.79177 0.23064 0.4699 0.0
C573 C 0.75118 0.27439 0.5333 0.0
N574 N 0.76104 0.16152 0.48573 0.0
N575 N 0.79272 0.33493 0.53434 0.0
H576 H 0.70729 0.28263 0.57343 0.0
H577 H 0.73001 0.33191 0.56372 0.0
H578 H 0.81541 0.35071 0.52476 0.0
H579 H 0.78193 0.34931 0.56176 0.0
H580 H 0.77801 0.14193 0.46784 0.0
H581 H 0.74132 0.14321 0.5003 0.0
H582 H 0.79957 0.18248 0.42041 0.0
H583 H 0.82583 0.22953 0.41643 0.0
C584 C 0.70999 0.77079 0.97648 0.0
C585 C 0.7082 0.77118 0.02212 0.0
C586 C 0.76033 0.72395 0.02525 0.0
C587 C 0.76397 0.72725 0.97975 0.0
N588 N 0.74592 0.76206 0.91322 0.0
N589 N 0.73377 0.75286 0.09057 0.0
C590 C 0.73964 0.75268 0.95563 0.0
C591 C 0.73408 0.74922 0.04669 0.0
N592 N 0.68333 0.78787 0.95284 0.0
N593 N 0.78087 0.6951 0.0478 0.0
H594 H 0.71417 0.76925 0.10735 0.0
H595 H 0.75396 0.74219 0.11012 0.0
H596 H 0.7998 0.67546 0.03324 0.0
H597 H 0.7772 0.68759 0.08023 0.0
H598 H 0.68123 0.78387 0.91961 0.0
H599 H 0.66175 0.80284 0.96675 0.0
H600 H 0.73117 0.78436 0.89519 0.0
H601 H 0.76798 0.75144 0.89704 0.0
C602 C 0.30135 0.23655 0.4769 0.0
C603 C 0.30334 0.23648 0.52254 0.0
C604 C 0.25143 0.28413 0.52564 0.0
C605 C 0.24753 0.28045 0.4802 0.0
N606 N 0.26514 0.24487 0.41385 0.0
N607 N 0.27814 0.25554 0.591 0.0
C608 C 0.27165 0.25465 0.45612 0.0
C609 C 0.27767 0.25884 0.5471 0.0
N610 N 0.32787 0.21918 0.45321 0.0
N611 N 0.23115 0.31337 0.5481 0.0
H612 H 0.29772 0.2391 0.60777 0.0
H613 H 0.25807 0.26652 0.6106 0.0
H614 H 0.21226 0.33305 0.53352 0.0
H615 H 0.23502 0.32113 0.58044 0.0
H616 H 0.32982 0.22289 0.41994 0.0
H617 H 0.3495 0.2043 0.4671 0.0
H618 H 0.27974 0.22232 0.39591 0.0
H619 H 0.24302 0.25542 0.39775 0.0
C620 C 0.74862 0.29713 0.9923 0.0
C621 C 0.76844 0.27531 0.02457 0.0
C622 C 0.73045 0.20953 0.01952 0.0
C623 C 0.71258 0.22945 0.98435 0.0
N624 N 0.70795 0.28983 0.93311 0.0
N625 N 0.7816 0.20816 0.06439 0.0
C626 C 0.72242 0.27279 0.96974 0.0
C627 C 0.76039 0.23069 0.03668 0.0
N628 N 0.75466 0.34127 0.98347 0.0
N629 N 0.71771 0.1715 0.03825 0.0
H630 H 0.80321 0.22274 0.07859 0.0
H631 H 0.77947 0.17397 0.07051 0.0
H632 H 0.69513 0.15586 0.02805 0.0
H633 H 0.72737 0.15804 0.06673 0.0
H634 H 0.73873 0.3607 0.964 0.0
H635 H 0.77453 0.35937 0.99796 0.0
H636 H 0.71651 0.31898 0.91813 0.0
H637 H 0.68914 0.27289 0.91551 0.0
C638 C 0.24974 0.77847 0.53517 0.0
C639 C 0.24281 0.7331 0.52462 0.0
C640 C 0.28974 0.73502 0.471 0.0
C641 C 0.29875 0.77904 0.48453 0.0
N642 N 0.29161 0.83861 0.53645 0.0
N643 N 0.25873 0.66601 0.48646 0.0
C644 C 0.27977 0.79977 0.51835 0.0
C645 C 0.26366 0.7107 0.49377 0.0
N646 N 0.22759 0.8014 0.56137 0.0
N647 N 0.30489 0.71719 0.43515 0.0
H648 H 0.23899 0.64774 0.50103 0.0
H649 H 0.27549 0.64645 0.46823 0.0
H650 H 0.32343 0.73418 0.41718 0.0
H651 H 0.29696 0.68731 0.42097 0.0
H652 H 0.22898 0.83587 0.56621 0.0
H653 H 0.20599 0.78671 0.5755 0.0
H654 H 0.281 0.85282 0.56406 0.0
H655 H 0.31437 0.85424 0.5269 0.0
C656 C 0.10823 0.51142 0.9693 0.0
C657 C 0.12828 0.54592 0.98874 0.0
C658 C 0.15834 0.489 0.0317 0.0
C659 C 0.13635 0.45505 0.01546 0.0
N660 N 0.08953 0.43373 0.96853 0.0
N661 N 0.16503 0.56704 0.04874 0.0
C662 C 0.11128 0.46606 0.98376 0.0
C663 C 0.15099 0.53469 0.02309 0.0
N664 N 0.08521 0.52254 0.93792 0.0
N665 N 0.18772 0.47755 0.05342 0.0
H666 H 0.15873 0.60068 0.04667 0.0
H667 H 0.17926 0.55973 0.07633 0.0
H668 H 0.19556 0.44442 0.05768 0.0
H669 H 0.20654 0.50077 0.06208 0.0
H670 H 0.07354 0.49972 0.91722 0.0
H671 H 0.07765 0.5555 0.93308 0.0
H672 H 0.06828 0.44006 0.94906 0.0
H673 H 0.09133 0.40013 0.97703 0.0
C674 C 0.91119 0.52566 0.50784 0.0
C675 C 0.8794 0.54661 0.51805 0.0
C676 C 0.84798 0.48031 0.49216 0.0
C677 C 0.87985 0.45815 0.48483 0.0
N678 N 0.94165 0.45675 0.49095 0.0
N679 N 0.8175 0.54296 0.52423 0.0
C680 C 0.91145 0.48001 0.4942 0.0
C681 C 0.84778 0.52362 0.51143 0.0
N682 N 0.94107 0.54968 0.51054 0.0
N683 N 0.81784 0.46021 0.47996 0.0
H684 H 0.81591 0.57559 0.53599 0.0
H685 H 0.79411 0.52597 0.52562 0.0
H686 H 0.81663 0.42766 0.46792 0.0
H687 H 0.79415 0.47652 0.47924 0.0
H688 H 0.96479 0.53817 0.49951 0.0
H689 H 0.94167 0.58283 0.52092 0.0
H690 H 0.96535 0.46893 0.50138 0.0
H691 H 0.9426 0.42354 0.48078 0.0
C692 C 0.87219 0.49073 0.02529 0.0
C693 C 0.84177 0.46579 0.03399 0.0
C694 C 0.80949 0.51309 0.98321 0.0
C695 C 0.83934 0.53985 0.97711 0.0
N696 N 0.89783 0.55828 0.99621 0.0
N697 N 0.78047 0.45619 0.02599 0.0
C698 C 0.87025 0.52996 0.99951 0.0
C699 C 0.8101 0.47765 0.01412 0.0
N700 N 0.90334 0.47567 0.04007 0.0
N701 N 0.7808 0.52114 0.95888 0.0
H702 H 0.78011 0.43004 0.04827 0.0
H703 H 0.756 0.46612 0.01615 0.0
H704 H 0.77905 0.54807 0.93755 0.0
H705 H 0.75953 0.49992 0.95798 0.0
H706 H 0.9269 0.48915 0.03065 0.0
H707 H 0.90607 0.44696 0.05887 0.0
H708 H 0.91966 0.55605 0.01559 0.0
H709 H 0.89789 0.58636 0.97628 0.0
C710 C 0.20408 0.48956 0.48605 0.0
C711 C 0.17243 0.46857 0.47516 0.0
C712 C 0.14067 0.52318 0.51885 0.0
C713 C 0.1724 0.54237 0.53213 0.0
N714 N 0.23441 0.54255 0.53207 0.0
N715 N 0.11101 0.46136 0.48437 0.0
C716 C 0.2042 0.52531 0.51662 0.0
C717 C 0.14084 0.48429 0.4925 0.0
N718 N 0.23378 0.47595 0.46633 0.0
N719 N 0.11029 0.54308 0.53051 0.0
H720 H 0.10991 0.43355 0.46411 0.0
H721 H 0.08777 0.46765 0.49998 0.0
H722 H 0.10907 0.57124 0.55033 0.0
H723 H 0.08639 0.53412 0.51799 0.0
H724 H 0.25719 0.49267 0.46908 0.0
H725 H 0.2346 0.44887 0.44508 0.0
H726 H 0.25852 0.52882 0.52578 0.0
H727 H 0.23522 0.56964 0.5533 0.0
C728 C 0.66478 0.02108 0.99093 0.0
C729 C 0.6336 0.04565 0.98652 0.0
C730 C 0.60081 0.98105 0.01367 0.0
C731 C 0.63212 0.95749 0.02047 0.0
N732 N 0.69424 0.95625 0.02045 0.0
N733 N 0.57252 0.05192 0.99849 0.0
C734 C 0.6642 0.97786 0.0104 0.0
C735 C 0.60177 0.02647 0.99941 0.0
N736 N 0.69499 0.03895 0.97606 0.0
N737 N 0.57015 0.95959 0.01994 0.0
H738 H 0.57228 0.08474 0.98718 0.0
H739 H 0.54908 0.04191 0.0116 0.0
H740 H 0.56875 0.92672 0.03089 0.0
H741 H 0.54631 0.97286 0.01141 0.0
H742 H 0.71775 0.02081 0.97296 0.0
H743 H 0.69708 0.07161 0.96449 0.0
H744 H 0.71843 0.97121 0.01908 0.0
H745 H 0.69501 0.92384 0.03288 0.0
C746 C 0.34801 0.98219 0.4977 0.0
C747 C 0.37984 0.96097 0.48798 0.0
C748 C 0.41104 0.02941 0.50866 0.0
C749 C 0.37942 0.04953 0.52107 0.0
N750 N 0.31796 0.0441 0.53167 0.0
N751 N 0.44181 0.96129 0.4897 0.0
C752 C 0.34796 0.02555 0.51689 0.0
C753 C 0.41143 0.98375 0.49504 0.0
N754 N 0.3177 0.96128 0.48756 0.0
N755 N 0.44064 0.05418 0.50939 0.0
H756 H 0.44279 0.92803 0.47973 0.0
H757 H 0.46575 0.97416 0.49833 0.0
H758 H 0.44126 0.08723 0.52008 0.0
H759 H 0.46399 0.04334 0.49663 0.0
H760 H 0.29374 0.97688 0.48863 0.0
H761 H 0.31652 0.92882 0.47534 0.0
H762 H 0.29501 0.0264 0.53491 0.0
H763 H 0.31625 0.07685 0.54312 0.0
C764 C 0.30716 0.98432 0.01423 0.0
C765 C 0.33861 0.96429 0.02737 0.0
C766 C 0.37134 0.01863 0.98454 0.0
C767 C 0.33991 0.03745 0.96971 0.0
N768 N 0.27799 0.03568 0.96545 0.0
N769 N 0.40021 0.95701 0.02044 0.0
C770 C 0.30777 0.0196 0.98319 0.0
C771 C 0.37058 0.97991 0.01109 0.0
N772 N 0.2769 0.97024 0.03224 0.0
N773 N 0.40195 0.0387 0.97418 0.0
H774 H 0.40072 0.92889 0.04036 0.0
H775 H 0.42385 0.96344 0.00586 0.0
H776 H 0.40367 0.06659 0.95407 0.0
H777 H 0.42547 0.03003 0.98797 0.0
H778 H 0.2534 0.98637 0.02783 0.0
H779 H 0.2756 0.94332 0.05363 0.0
H780 H 0.25387 0.02137 0.9704 0.0
H781 H 0.27766 0.06209 0.94343 0.0
C782 C 0.64102 0.02391 0.51246 0.0
C783 C 0.67284 0.03901 0.52964 0.0
C784 C 0.70381 0.98169 0.48795 0.0
C785 C 0.67175 0.965 0.47289 0.0
N786 N 0.60963 0.9655 0.47503 0.0
N787 N 0.73419 0.03086 0.53769 0.0
C788 C 0.64029 0.98491 0.48628 0.0
C789 C 0.70422 0.01754 0.51842 0.0
N790 N 0.61149 0.04745 0.52072 0.0
N791 N 0.73376 0.96407 0.47212 0.0
H792 H 0.73542 0.05812 0.55868 0.0
H793 H 0.75744 0.01378 0.53474 0.0
H794 H 0.73422 0.93705 0.45081 0.0
H795 H 0.75802 0.97754 0.47808 0.0
H796 H 0.58814 0.04162 0.50522 0.0
H797 H 0.61081 0.07531 0.54094 0.0
H798 H 0.58591 0.97503 0.4877 0.0
H799 H 0.60796 0.93721 0.45545 0.0
loop_
_geom_bond_atom_site_label_1
_geom_bond_atom_site_label_2
_geom_bond_distance
_geom_bond_site_symmetry_2
_ccdc_geom_bond_type
Co0 O1 2.216 . S
Co0 O2 2.091 . S
Co0 O4 2.004 . S
Co0 O10 2.021 . S
Co0 O12 2.137 . S
Co0 O13 2.244 . S
O1 Co0 2.216 . S
O1 C8 1.247 . S
O2 Co0 2.091 . S
O2 C8 1.261 . S
C3 O12 1.247 . S
C3 O13 1.272 . S
O4 Co0 2.004 . S
O4 C9 1.259 . S
Co5 O6 2.061 . S
Co5 O11 2.052 . S
Co5 O13 2.135 . S
O6 Co5 2.061 . S
O6 C9 1.235 . S
C7 O10 1.238 . S
C7 O11 1.241 . S
C8 O1 1.247 . S
C8 O2 1.261 . S
C9 O4 1.259 . S
C9 O6 1.235 . S
O10 Co0 2.021 . S
O10 C7 1.238 . S
O11 Co5 2.052 . S
O11 C7 1.241 . S
O12 Co0 2.137 . S
O12 C3 1.247 . S
O13 Co0 2.244 . S
O13 C3 1.272 . S
O13 Co5 2.135 . S
Co14 O15 2.216 . S
Co14 O16 2.091 . S
Co14 O18 2.004 . S
Co14 O24 2.021 . S
Co14 O26 2.137 . S
Co14 O27 2.244 . S
O15 Co14 2.216 . S
O15 C22 1.247 . S
O16 Co14 2.091 . S
O16 C22 1.261 . S
C17 O26 1.247 . S
C17 O27 1.272 . S
O18 Co14 2.004 . S
O18 C23 1.259 . S
Co19 O20 2.061 . S
Co19 O25 2.052 . S
Co19 O27 2.135 . S
O20 Co19 2.061 . S
O20 C23 1.235 . S
C21 O24 1.238 . S
C21 O25 1.241 . S
C22 O15 1.247 . S
C22 O16 1.261 . S
C23 O18 1.259 . S
C23 O20 1.235 . S
O24 Co14 2.021 . S
O24 C21 1.238 . S
O25 Co19 2.052 . S
O25 C21 1.241 . S
O26 Co14 2.137 . S
O26 C17 1.247 . S
O27 Co14 2.244 . S
O27 C17 1.272 . S
O27 Co19 2.135 . S
Co28 O29 2.216 . S
Co28 O30 2.091 . S
Co28 O32 2.004 . S
Co28 O38 2.021 . S
Co28 O40 2.137 . S
Co28 O41 2.244 . S
O29 Co28 2.216 . S
O29 C36 1.247 . S
O30 Co28 2.091 . S
O30 C36 1.261 . S
C31 O40 1.247 . S
C31 O41 1.272 . S
O32 Co28 2.004 . S
O32 C37 1.259 . S
Co33 O34 2.061 . S
Co33 O39 2.052 . S
Co33 O41 2.135 . S
O34 Co33 2.061 . S
O34 C37 1.235 . S
C35 O38 1.238 . S
C35 O39 1.241 . S
C36 O29 1.247 . S
C36 O30 1.261 . S
C37 O32 1.259 . S
C37 O34 1.235 . S
O38 Co28 2.021 . S
O38 C35 1.238 . S
O39 Co33 2.052 . S
O39 C35 1.241 . S
O40 Co28 2.137 . S
O40 C31 1.247 . S
O41 Co28 2.244 . S
O41 C31 1.272 . S
O41 Co33 2.135 . S
Co42 O43 2.216 . S
Co42 O44 2.091 . S
Co42 O46 2.004 . S
Co42 O52 2.021 . S
Co42 O54 2.137 . S
Co42 O55 2.244 . S
O43 Co42 2.216 . S
O43 C50 1.247 . S
O44 Co42 2.091 . S
O44 C50 1.261 . S
C45 O54 1.247 . S
C45 O55 1.272 . S
O46 Co42 2.004 . S
O46 C51 1.259 . S
Co47 O48 2.061 . S
Co47 O53 2.052 . S
Co47 O55 2.135 . S
O48 Co47 2.061 . S
O48 C51 1.235 . S
C49 O52 1.238 . S
C49 O53 1.241 . S
C50 O43 1.247 . S
C50 O44 1.261 . S
C51 O46 1.259 . S
C51 O48 1.235 . S
O52 Co42 2.021 . S
O52 C49 1.238 . S
O53 Co47 2.052 . S
O53 C49 1.241 . S
O54 Co42 2.137 . S
O54 C45 1.247 . S
O55 Co42 2.244 . S
O55 C45 1.272 . S
O55 Co47 2.135 . S
Co56 O57 2.216 . S
Co56 O58 2.091 . S
Co56 O60 2.004 . S
Co56 O66 2.021 . S
Co56 O68 2.137 . S
Co56 O69 2.244 . S
O57 Co56 2.216 . S
O57 C64 1.247 . S
O58 Co56 2.091 . S
O58 C64 1.261 . S
C59 O68 1.247 . S
C59 O69 1.272 . S
O60 Co56 2.004 . S
O60 C65 1.259 . S
Co61 O62 2.061 . S
Co61 O67 2.052 . S
Co61 O69 2.135 . S
O62 Co61 2.061 . S
O62 C65 1.235 . S
C63 O66 1.238 . S
C63 O67 1.241 . S
C64 O57 1.247 . S
C64 O58 1.261 . S
C65 O60 1.259 . S
C65 O62 1.235 . S
O66 Co56 2.021 . S
O66 C63 1.238 . S
O67 Co61 2.052 . S
O67 C63 1.241 . S
O68 Co56 2.137 . S
O68 C59 1.247 . S
O69 Co56 2.244 . S
O69 C59 1.272 . S
O69 Co61 2.135 . S
Co70 O71 2.216 . S
Co70 O72 2.091 . S
Co70 O74 2.004 . S
Co70 O80 2.021 . S
Co70 O82 2.137 . S
Co70 O83 2.244 . S
O71 Co70 2.216 . S
O71 C78 1.247 . S
O72 Co70 2.091 . S
O72 C78 1.261 . S
C73 O82 1.247 . S
C73 O83 1.272 . S
O74 Co70 2.004 . S
O74 C79 1.259 . S
Co75 O76 2.061 . S
Co75 O81 2.052 . S
Co75 O83 2.135 . S
O76 Co75 2.061 . S
O76 C79 1.235 . S
C77 O80 1.238 . S
C77 O81 1.241 . S
C78 O71 1.247 . S
C78 O72 1.261 . S
C79 O74 1.259 . S
C79 O76 1.235 . S
O80 Co70 2.021 . S
O80 C77 1.238 . S
O81 Co75 2.052 . S
O81 C77 1.241 . S
O82 Co70 2.137 . S
O82 C73 1.247 . S
O83 Co70 2.244 . S
O83 C73 1.272 . S
O83 Co75 2.135 . S
Co84 O85 2.216 . S
Co84 O86 2.091 . S
Co84 O88 2.004 . S
Co84 O94 2.021 . S
Co84 O96 2.137 . S
Co84 O97 2.244 . S
O85 Co84 2.216 . S
O85 C92 1.247 . S
O86 Co84 2.091 . S
O86 C92 1.261 . S
C87 O96 1.247 . S
C87 O97 1.272 . S
O88 Co84 2.004 . S
O88 C93 1.259 . S
Co89 O90 2.061 . S
Co89 O95 2.052 . S
Co89 O97 2.135 . S
O90 Co89 2.061 . S
O90 C93 1.235 . S
C91 O94 1.238 . S
C91 O95 1.241 . S
C92 O85 1.247 . S
C92 O86 1.261 . S
C93 O88 1.259 . S
C93 O90 1.235 . S
O94 Co84 2.021 . S
O94 C91 1.238 . S
O95 Co89 2.052 . S
O95 C91 1.241 . S
O96 Co84 2.137 . S
O96 C87 1.247 . S
O97 Co84 2.244 . S
O97 C87 1.272 . S
O97 Co89 2.135 . S
Co98 O99 2.216 . S
Co98 O100 2.091 . S
Co98 O102 2.004 . S
Co98 O108 2.021 . S
Co98 O110 2.137 . S
Co98 O111 2.244 . S
O99 Co98 2.216 . S
O99 C106 1.247 . S
O100 Co98 2.091 . S
O100 C106 1.261 . S
C101 O110 1.247 . S
C101 O111 1.272 . S
O102 Co98 2.004 . S
O102 C107 1.259 . S
Co103 O104 2.061 . S
Co103 O109 2.052 . S
Co103 O111 2.135 . S
O104 Co103 2.061 . S
O104 C107 1.235 . S
C105 O108 1.238 . S
C105 O109 1.241 . S
C106 O99 1.247 . S
C106 O100 1.261 . S
C107 O102 1.259 . S
C107 O104 1.235 . S
O108 Co98 2.021 . S
O108 C105 1.238 . S
O109 Co103 2.052 . S
O109 C105 1.241 . S
O110 Co98 2.137 . S
O110 C101 1.247 . S
O111 Co98 2.244 . S
O111 C101 1.272 . S
O111 Co103 2.135 . S
Co112 O113 2.216 . S
Co112 O114 2.091 . S
Co112 O116 2.004 . S
Co112 O122 2.021 . S
Co112 O124 2.137 . S
Co112 O125 2.244 . S
O113 Co112 2.216 . S
O113 C120 1.247 . S
O114 Co112 2.091 . S
O114 C120 1.261 . S
C115 O124 1.247 . S
C115 O125 1.272 . S
O116 Co112 2.004 . S
O116 C121 1.259 . S
Co117 O118 2.061 . S
Co117 O123 2.052 . S
Co117 O125 2.135 . S
O118 Co117 2.061 . S
O118 C121 1.235 . S
C119 O122 1.238 . S
C119 O123 1.241 . S
C120 O113 1.247 . S
C120 O114 1.261 . S
C121 O116 1.259 . S
C121 O118 1.235 . S
O122 Co112 2.021 . S
O122 C119 1.238 . S
O123 Co117 2.052 . S
O123 C119 1.241 . S
O124 Co112 2.137 . S
O124 C115 1.247 . S
O125 Co112 2.244 . S
O125 C115 1.272 . S
O125 Co117 2.135 . S
Co126 O127 2.216 . S
Co126 O128 2.091 . S
Co126 O130 2.004 . S
Co126 O136 2.021 . S
Co126 O138 2.137 . S
Co126 O139 2.244 . S
O127 Co126 2.216 . S
O127 C134 1.247 . S
O128 Co126 2.091 . S
O128 C134 1.261 . S
C129 O138 1.247 . S
C129 O139 1.272 . S
O130 Co126 2.004 . S
O130 C135 1.259 . S
Co131 O132 2.061 . S
Co131 O137 2.052 . S
Co131 O139 2.135 . S
O132 Co131 2.061 . S
O132 C135 1.235 . S
C133 O136 1.238 . S
C133 O137 1.241 . S
C134 O127 1.247 . S
C134 O128 1.261 . S
C135 O130 1.259 . S
C135 O132 1.235 . S
O136 Co126 2.021 . S
O136 C133 1.238 . S
O137 Co131 2.052 . S
O137 C133 1.241 . S
O138 Co126 2.137 . S
O138 C129 1.247 . S
O139 Co126 2.244 . S
O139 C129 1.272 . S
O139 Co131 2.135 . S
Co140 O141 2.216 . S
Co140 O142 2.091 . S
Co140 O144 2.004 . S
Co140 O150 2.021 . S
Co140 O152 2.137 . S
Co140 O153 2.244 . S
O141 Co140 2.216 . S
O141 C148 1.247 . S
O142 Co140 2.091 . S
O142 C148 1.261 . S
C143 O152 1.247 . S
C143 O153 1.272 . S
O144 Co140 2.004 . S
O144 C149 1.259 . S
Co145 O146 2.061 . S
Co145 O151 2.052 . S
Co145 O153 2.135 . S
O146 Co145 2.061 . S
O146 C149 1.235 . S
C147 O150 1.238 . S
C147 O151 1.241 . S
C148 O141 1.247 . S
C148 O142 1.261 . S
C149 O144 1.259 . S
C149 O146 1.235 . S
O150 Co140 2.021 . S
O150 C147 1.238 . S
O151 Co145 2.052 . S
O151 C147 1.241 . S
O152 Co140 2.137 . S
O152 C143 1.247 . S
O153 Co140 2.244 . S
O153 C143 1.272 . S
O153 Co145 2.135 . S
Co154 O155 2.216 . S
Co154 O156 2.091 . S
Co154 O158 2.004 . S
Co154 O164 2.021 . S
Co154 O166 2.137 . S
Co154 O167 2.244 . S
O155 Co154 2.216 . S
O155 C162 1.247 . S
O156 Co154 2.091 . S
O156 C162 1.261 . S
C157 O166 1.247 . S
C157 O167 1.272 . S
O158 Co154 2.004 . S
O158 C163 1.259 . S
Co159 O160 2.061 . S
Co159 O165 2.052 . S
Co159 O167 2.135 . S
O160 Co159 2.061 . S
O160 C163 1.235 . S
C161 O164 1.238 . S
C161 O165 1.241 . S
C162 O155 1.247 . S
C162 O156 1.261 . S
C163 O158 1.259 . S
C163 O160 1.235 . S
O164 Co154 2.021 . S
O164 C161 1.238 . S
O165 Co159 2.052 . S
O165 C161 1.241 . S
O166 Co154 2.137 . S
O166 C157 1.247 . S
O167 Co154 2.244 . S
O167 C157 1.272 . S
O167 Co159 2.135 . S
Co168 O169 2.216 . S
Co168 O170 2.091 . S
Co168 O172 2.004 . S
Co168 O178 2.021 . S
Co168 O180 2.137 . S
Co168 O181 2.244 . S
O169 Co168 2.216 . S
O169 C176 1.247 . S
O170 Co168 2.091 . S
O170 C176 1.261 . S
C171 O180 1.247 . S
C171 O181 1.272 . S
O172 Co168 2.004 . S
O172 C177 1.259 . S
Co173 O174 2.061 . S
Co173 O179 2.052 . S
Co173 O181 2.135 . S
O174 Co173 2.061 . S
O174 C177 1.235 . S
C175 O178 1.238 . S
C175 O179 1.241 . S
C176 O169 1.247 . S
C176 O170 1.261 . S
C177 O172 1.259 . S
C177 O174 1.235 . S
O178 Co168 2.021 . S
O178 C175 1.238 . S
O179 Co173 2.052 . S
O179 C175 1.241 . S
O180 Co168 2.137 . S
O180 C171 1.247 . S
O181 Co168 2.244 . S
O181 C171 1.272 . S
O181 Co173 2.135 . S
Co182 O183 2.216 . S
Co182 O184 2.091 . S
Co182 O186 2.004 . S
Co182 O192 2.021 . S
Co182 O194 2.137 . S
Co182 O195 2.244 . S
O183 Co182 2.216 . S
O183 C190 1.247 . S
O184 Co182 2.091 . S
O184 C190 1.261 . S
C185 O194 1.247 . S
C185 O195 1.272 . S
O186 Co182 2.004 . S
O186 C191 1.259 . S
Co187 O188 2.061 . S
Co187 O193 2.052 . S
Co187 O195 2.135 . S
O188 Co187 2.061 . S
O188 C191 1.235 . S
C189 O192 1.238 . S
C189 O193 1.241 . S
C190 O183 1.247 . S
C190 O184 1.261 . S
C191 O186 1.259 . S
C191 O188 1.235 . S
O192 Co182 2.021 . S
O192 C189 1.238 . S
O193 Co187 2.052 . S
O193 C189 1.241 . S
O194 Co182 2.137 . S
O194 C185 1.247 . S
O195 Co182 2.244 . S
O195 C185 1.272 . S
O195 Co187 2.135 . S
Co196 O197 2.216 . S
Co196 O198 2.091 . S
Co196 O200 2.004 . S
Co196 O206 2.021 . S
Co196 O208 2.137 . S
Co196 O209 2.244 . S
O197 Co196 2.216 . S
O197 C204 1.247 . S
O198 Co196 2.091 . S
O198 C204 1.261 . S
C199 O208 1.247 . S
C199 O209 1.272 . S
O200 Co196 2.004 . S
O200 C205 1.259 . S
Co201 O202 2.061 . S
Co201 O207 2.052 . S
Co201 O209 2.135 . S
O202 Co201 2.061 . S
O202 C205 1.235 . S
C203 O206 1.238 . S
C203 O207 1.241 . S
C204 O197 1.247 . S
C204 O198 1.261 . S
C205 O200 1.259 . S
C205 O202 1.235 . S
O206 Co196 2.021 . S
O206 C203 1.238 . S
O207 Co201 2.052 . S
O207 C203 1.241 . S
O208 Co196 2.137 . S
O208 C199 1.247 . S
O209 Co196 2.244 . S
O209 C199 1.272 . S
O209 Co201 2.135 . S
Co210 O211 2.216 . S
Co210 O212 2.091 . S
Co210 O214 2.004 . S
Co210 O220 2.021 . S
Co210 O222 2.137 . S
Co210 O223 2.244 . S
O211 Co210 2.216 . S
O211 C218 1.247 . S
O212 Co210 2.091 . S
O212 C218 1.261 . S
C213 O222 1.247 . S
C213 O223 1.272 . S
O214 Co210 2.004 . S
O214 C219 1.259 . S
Co215 O216 2.061 . S
Co215 O221 2.052 . S
Co215 O223 2.135 . S
O216 Co215 2.061 . S
O216 C219 1.235 . S
C217 O220 1.238 . S
C217 O221 1.241 . S
C218 O211 1.247 . S
C218 O212 1.261 . S
C219 O214 1.259 . S
C219 O216 1.235 . S
O220 Co210 2.021 . S
O220 C217 1.238 . S
O221 Co215 2.052 . S
O221 C217 1.241 . S
O222 Co210 2.137 . S
O222 C213 1.247 . S
O223 Co210 2.244 . S
O223 C213 1.272 . S
O223 Co215 2.135 . S
C224 C225 1.363 . S
C224 C230 1.379 1_455 S
C224 N232 1.356 . S
C225 C224 1.363 . S
C225 C231 1.363 . S
C226 C227 1.363 . S
C226 C231 1.379 1_655 S
C226 N233 1.356 . S
C227 C226 1.363 . S
C227 C230 1.363 . S
N228 C230 1.356 . S
N228 H240 0.984 . S
N228 H241 0.985 . S
N229 C231 1.356 . S
N229 H234 0.984 . S
N229 H235 0.985 . S
C230 C224 1.379 1_655 S
C230 C227 1.363 . S
C230 N228 1.356 . S
C231 C225 1.363 . S
C231 C226 1.379 1_455 S
C231 N229 1.356 . S
N232 C224 1.356 . S
N232 H238 0.984 . S
N232 H239 0.984 . S
N233 C226 1.356 . S
N233 H236 0.984 . S
N233 H237 0.985 . S
H234 N229 0.984 . S
H235 N229 0.985 . S
H236 N233 0.984 . S
H237 N233 0.985 . S
H238 N232 0.984 . S
H239 N232 0.984 . S
H240 N228 0.984 . S
H241 N228 0.985 . S
C242 C243 1.363 . S
C242 C248 1.379 1_655 S
C242 N250 1.356 . S
C243 C242 1.363 . S
C243 C249 1.363 . S
C244 C245 1.363 . S
C244 C249 1.379 1_455 S
C244 N251 1.356 . S
C245 C244 1.363 . S
C245 C248 1.363 . S
N246 C248 1.356 . S
N246 H258 0.984 . S
N246 H259 0.985 . S
N247 C249 1.356 . S
N247 H252 0.984 . S
N247 H253 0.985 . S
C248 C242 1.379 1_455 S
C248 C245 1.363 . S
C248 N246 1.356 . S
C249 C243 1.363 . S
C249 C244 1.379 1_655 S
C249 N247 1.356 . S
N250 C242 1.356 . S
N250 H256 0.984 . S
N250 H257 0.984 . S
N251 C244 1.356 . S
N251 H254 0.984 . S
N251 H255 0.985 . S
H252 N247 0.984 . S
H253 N247 0.985 . S
H254 N251 0.984 . S
H255 N251 0.985 . S
H256 N250 0.984 . S
H257 N250 0.984 . S
H258 N246 0.984 . S
H259 N246 0.985 . S
C260 C261 1.363 . S
C260 C266 1.379 1_655 S
C260 N268 1.356 . S
C261 C260 1.363 . S
C261 C267 1.363 . S
C262 C263 1.363 . S
C262 C267 1.379 1_455 S
C262 N269 1.356 . S
C263 C262 1.363 . S
C263 C266 1.363 . S
N264 C266 1.356 . S
N264 H276 0.984 . S
N264 H277 0.985 . S
N265 C267 1.356 . S
N265 H270 0.984 . S
N265 H271 0.985 1_556 S
C266 C260 1.379 1_455 S
C266 C263 1.363 . S
C266 N264 1.356 . S
C267 C261 1.363 . S
C267 C262 1.379 1_655 S
C267 N265 1.356 . S
N268 C260 1.356 . S
N268 H274 0.984 . S
N268 H275 0.984 . S
N269 C262 1.356 . S
N269 H272 0.984 . S
N269 H273 0.985 1_556 S
H270 N265 0.984 . S
H271 N265 0.985 1_554 S
H272 N269 0.984 . S
H273 N269 0.985 1_554 S
H274 N268 0.984 . S
H275 N268 0.984 . S
H276 N264 0.984 . S
H277 N264 0.985 . S
C278 C279 1.363 . S
C278 C284 1.379 1_455 S
C278 N286 1.356 . S
C279 C278 1.363 . S
C279 C285 1.363 . S
C280 C281 1.363 . S
C280 C285 1.379 1_655 S
C280 N287 1.356 . S
C281 C280 1.363 . S
C281 C284 1.363 . S
N282 C284 1.356 . S
N282 H294 0.984 . S
N282 H295 0.985 . S
N283 C285 1.356 . S
N283 H288 0.984 . S
N283 H289 0.985 . S
C284 C278 1.379 1_655 S
C284 C281 1.363 . S
C284 N282 1.356 . S
C285 C279 1.363 . S
C285 C280 1.379 1_455 S
C285 N283 1.356 . S
N286 C278 1.356 . S
N286 H292 0.984 . S
N286 H293 0.984 . S
N287 C280 1.356 . S
N287 H290 0.984 . S
N287 H291 0.985 . S
H288 N283 0.984 . S
H289 N283 0.985 . S
H290 N287 0.984 . S
H291 N287 0.985 . S
H292 N286 0.984 . S
H293 N286 0.984 . S
H294 N282 0.984 . S
H295 N282 0.985 . S
C296 C297 1.363 . S
C296 C302 1.379 . S
C296 N304 1.356 . S
C297 C296 1.363 . S
C297 C303 1.363 . S
C298 C299 1.363 . S
C298 C303 1.379 . S
C298 N305 1.356 . S
C299 C298 1.363 . S
C299 C302 1.363 . S
N300 C302 1.356 . S
N300 H312 0.984 . S
N300 H313 0.985 . S
N301 C303 1.356 . S
N301 H306 0.984 . S
N301 H307 0.985 1_554 S
C302 C296 1.379 . S
C302 C299 1.363 . S
C302 N300 1.356 . S
C303 C297 1.363 . S
C303 C298 1.379 . S
C303 N301 1.356 . S
N304 C296 1.356 . S
N304 H310 0.984 . S
N304 H311 0.984 . S
N305 C298 1.356 . S
N305 H308 0.984 . S
N305 H309 0.985 1_554 S
H306 N301 0.984 . S
H307 N301 0.985 1_556 S
H308 N305 0.984 . S
H309 N305 0.985 1_556 S
H310 N304 0.984 . S
H311 N304 0.984 . S
H312 N300 0.984 . S
H313 N300 0.985 . S
C314 C315 1.363 . S
C314 C320 1.379 . S
C314 N322 1.356 . S
C315 C314 1.363 . S
C315 C321 1.363 . S
C316 C317 1.363 . S
C316 C321 1.379 . S
C316 N323 1.356 . S
C317 C316 1.363 . S
C317 C320 1.363 . S
N318 C320 1.356 . S
N318 H330 0.984 . S
N318 H331 0.985 . S
N319 C321 1.356 . S
N319 H324 0.984 . S
N319 H325 0.985 . S
C320 C314 1.379 . S
C320 C317 1.363 . S
C320 N318 1.356 . S
C321 C315 1.363 . S
C321 C316 1.379 . S
C321 N319 1.356 . S
N322 C314 1.356 . S
N322 H328 0.984 . S
N322 H329 0.984 . S
N323 C316 1.356 . S
N323 H326 0.984 . S
N323 H327 0.985 . S
H324 N319 0.984 . S
H325 N319 0.985 . S
H326 N323 0.984 . S
H327 N323 0.985 . S
H328 N322 0.984 . S
H329 N322 0.984 . S
H330 N318 0.984 . S
H331 N318 0.985 . S
C332 C333 1.363 . S
C332 C338 1.379 . S
C332 N340 1.356 . S
C333 C332 1.363 . S
C333 C339 1.363 . S
C334 C335 1.363 . S
C334 C339 1.379 . S
C334 N341 1.356 . S
C335 C334 1.363 . S
C335 C338 1.363 . S
N336 C338 1.356 . S
N336 H348 0.984 . S
N336 H349 0.985 . S
N337 C339 1.356 . S
N337 H342 0.984 . S
N337 H343 0.985 . S
C338 C332 1.379 . S
C338 C335 1.363 . S
C338 N336 1.356 . S
C339 C333 1.363 . S
C339 C334 1.379 . S
C339 N337 1.356 . S
N340 C332 1.356 . S
N340 H346 0.984 . S
N340 H347 0.984 . S
N341 C334 1.356 . S
N341 H344 0.984 . S
N341 H345 0.985 . S
H342 N337 0.984 . S
H343 N337 0.985 . S
H344 N341 0.984 . S
H345 N341 0.985 . S
H346 N340 0.984 . S
H347 N340 0.984 . S
H348 N336 0.984 . S
H349 N336 0.985 . S
C350 C351 1.363 . S
C350 C356 1.379 . S
C350 N358 1.356 . S
C351 C350 1.363 . S
C351 C357 1.363 . S
C352 C353 1.363 . S
C352 C357 1.379 . S
C352 N359 1.356 . S
C353 C352 1.363 . S
C353 C356 1.363 . S
N354 C356 1.356 . S
N354 H366 0.984 . S
N354 H367 0.985 . S
N355 C357 1.356 . S
N355 H360 0.984 . S
N355 H361 0.985 . S
C356 C350 1.379 . S
C356 C353 1.363 . S
C356 N354 1.356 . S
C357 C351 1.363 . S
C357 C352 1.379 . S
C357 N355 1.356 . S
N358 C350 1.356 . S
N358 H364 0.984 . S
N358 H365 0.984 . S
N359 C352 1.356 . S
N359 H362 0.984 . S
N359 H363 0.985 . S
H360 N355 0.984 . S
H361 N355 0.985 . S
H362 N359 0.984 . S
H363 N359 0.985 . S
H364 N358 0.984 . S
H365 N358 0.984 . S
H366 N354 0.984 . S
H367 N354 0.985 . S
C368 C369 1.363 . S
C368 C374 1.379 . S
C368 N376 1.356 . S
C369 C368 1.363 . S
C369 C375 1.363 . S
C370 C371 1.363 . S
C370 C375 1.379 . S
C370 N377 1.356 . S
C371 C370 1.363 . S
C371 C374 1.363 . S
N372 C374 1.356 . S
N372 H384 0.984 . S
N372 H385 0.985 . S
N373 C375 1.356 . S
N373 H378 0.984 . S
N373 H379 0.985 . S
C374 C368 1.379 . S
C374 C371 1.363 . S
C374 N372 1.356 . S
C375 C369 1.363 . S
C375 C370 1.379 . S
C375 N373 1.356 . S
N376 C368 1.356 . S
N376 H382 0.984 . S
N376 H383 0.984 . S
N377 C370 1.356 . S
N377 H380 0.984 . S
N377 H381 0.985 . S
H378 N373 0.984 . S
H379 N373 0.985 . S
H380 N377 0.984 . S
H381 N377 0.985 . S
H382 N376 0.984 . S
H383 N376 0.984 . S
H384 N372 0.984 . S
H385 N372 0.985 . S
C386 C387 1.363 . S
C386 C392 1.379 . S
C386 N394 1.356 . S
C387 C386 1.363 . S
C387 C393 1.363 . S
C388 C389 1.363 . S
C388 C393 1.379 . S
C388 N395 1.356 . S
C389 C388 1.363 . S
C389 C392 1.363 . S
N390 C392 1.356 . S
N390 H402 0.984 . S
N390 H403 0.985 . S
N391 C393 1.356 . S
N391 H396 0.984 . S
N391 H397 0.985 . S
C392 C386 1.379 . S
C392 C389 1.363 . S
C392 N390 1.356 . S
C393 C387 1.363 . S
C393 C388 1.379 . S
C393 N391 1.356 . S
N394 C386 1.356 . S
N394 H400 0.984 . S
N394 H401 0.984 . S
N395 C388 1.356 . S
N395 H398 0.984 . S
N395 H399 0.985 . S
H396 N391 0.984 . S
H397 N391 0.985 . S
H398 N395 0.984 . S
H399 N395 0.985 . S
H400 N394 0.984 . S
H401 N394 0.984 . S
H402 N390 0.984 . S
H403 N390 0.985 . S
C404 C405 1.363 . S
C404 C410 1.379 . S
C404 N412 1.356 . S
C405 C404 1.363 . S
C405 C411 1.363 . S
C406 C407 1.363 . S
C406 C411 1.379 . S
C406 N413 1.356 . S
C407 C406 1.363 . S
C407 C410 1.363 . S
N408 C410 1.356 . S
N408 H420 0.984 . S
N408 H421 0.985 . S
N409 C411 1.356 . S
N409 H414 0.984 . S
N409 H415 0.985 . S
C410 C404 1.379 . S
C410 C407 1.363 . S
C410 N408 1.356 . S
C411 C405 1.363 . S
C411 C406 1.379 . S
C411 N409 1.356 . S
N412 C404 1.356 . S
N412 H418 0.984 . S
N412 H419 0.984 . S
N413 C406 1.356 . S
N413 H416 0.984 . S
N413 H417 0.985 . S
H414 N409 0.984 . S
H415 N409 0.985 . S
H416 N413 0.984 . S
H417 N413 0.985 . S
H418 N412 0.984 . S
H419 N412 0.984 . S
H420 N408 0.984 . S
H421 N408 0.985 . S
C422 C423 1.363 . S
C422 C428 1.379 . S
C422 N430 1.356 . S
C423 C422 1.363 . S
C423 C429 1.363 . S
C424 C425 1.363 . S
C424 C429 1.379 . S
C424 N431 1.356 . S
C425 C424 1.363 . S
C425 C428 1.363 . S
N426 C428 1.356 . S
N426 H438 0.984 . S
N426 H439 0.985 . S
N427 C429 1.356 . S
N427 H432 0.984 . S
N427 H433 0.985 . S
C428 C422 1.379 . S
C428 C425 1.363 . S
C428 N426 1.356 . S
C429 C423 1.363 . S
C429 C424 1.379 . S
C429 N427 1.356 . S
N430 C422 1.356 . S
N430 H436 0.984 . S
N430 H437 0.984 . S
N431 C424 1.356 . S
N431 H434 0.984 . S
N431 H435 0.985 . S
H432 N427 0.984 . S
H433 N427 0.985 . S
H434 N431 0.984 . S
H435 N431 0.985 . S
H436 N430 0.984 . S
H437 N430 0.984 . S
H438 N426 0.984 . S
H439 N426 0.985 . S
C440 C441 1.363 . S
C440 C446 1.379 . S
C440 N448 1.356 . S
C441 C440 1.363 . S
C441 C447 1.363 . S
C442 C443 1.363 . S
C442 C447 1.379 . S
C442 N449 1.356 . S
C443 C442 1.363 . S
C443 C446 1.363 . S
N444 C446 1.356 . S
N444 H456 0.984 . S
N444 H457 0.985 . S
N445 C447 1.356 . S
N445 H450 0.984 . S
N445 H451 0.985 . S
C446 C440 1.379 . S
C446 C443 1.363 . S
C446 N444 1.356 . S
C447 C441 1.363 . S
C447 C442 1.379 . S
C447 N445 1.356 . S
N448 C440 1.356 . S
N448 H454 0.984 . S
N448 H455 0.984 . S
N449 C442 1.356 . S
N449 H452 0.984 . S
N449 H453 0.985 . S
H450 N445 0.984 . S
H451 N445 0.985 . S
H452 N449 0.984 . S
H453 N449 0.985 . S
H454 N448 0.984 . S
H455 N448 0.984 . S
H456 N444 0.984 . S
H457 N444 0.985 . S
C458 C459 1.363 . S
C458 C464 1.379 . S
C458 N466 1.356 . S
C459 C458 1.363 . S
C459 C465 1.363 . S
C460 C461 1.363 . S
C460 C465 1.379 . S
C460 N467 1.356 . S
C461 C460 1.363 . S
C461 C464 1.363 . S
N462 C464 1.356 . S
N462 H474 0.984 . S
N462 H475 0.985 . S
N463 C465 1.356 . S
N463 H468 0.984 . S
N463 H469 0.985 . S
C464 C458 1.379 . S
C464 C461 1.363 . S
C464 N462 1.356 . S
C465 C459 1.363 . S
C465 C460 1.379 . S
C465 N463 1.356 . S
N466 C458 1.356 . S
N466 H472 0.984 . S
N466 H473 0.984 . S
N467 C460 1.356 . S
N467 H470 0.984 . S
N467 H471 0.985 . S
H468 N463 0.984 . S
H469 N463 0.985 . S
H470 N467 0.984 . S
H471 N467 0.985 . S
H472 N466 0.984 . S
H473 N466 0.984 . S
H474 N462 0.984 . S
H475 N462 0.985 . S
C476 C477 1.363 . S
C476 C482 1.379 . S
C476 N484 1.356 . S
C477 C476 1.363 . S
C477 C483 1.363 . S
C478 C479 1.363 . S
C478 C483 1.379 . S
C478 N485 1.356 . S
C479 C478 1.363 . S
C479 C482 1.363 . S
N480 C482 1.356 . S
N480 H492 0.984 . S
N480 H493 0.985 . S
N481 C483 1.356 . S
N481 H486 0.984 . S
N481 H487 0.985 . S
C482 C476 1.379 . S
C482 C479 1.363 . S
C482 N480 1.356 . S
C483 C477 1.363 . S
C483 C478 1.379 . S
C483 N481 1.356 . S
N484 C476 1.356 . S
N484 H490 0.984 . S
N484 H491 0.984 . S
N485 C478 1.356 . S
N485 H488 0.984 . S
N485 H489 0.985 . S
H486 N481 0.984 . S
H487 N481 0.985 . S
H488 N485 0.984 . S
H489 N485 0.985 . S
H490 N484 0.984 . S
H491 N484 0.984 . S
H492 N480 0.984 . S
H493 N480 0.985 . S
C494 C495 1.363 . S
C494 C500 1.379 . S
C494 N502 1.356 . S
C495 C494 1.363 . S
C495 C501 1.363 . S
C496 C497 1.363 . S
C496 C501 1.379 . S
C496 N503 1.356 . S
C497 C496 1.363 . S
C497 C500 1.363 . S
N498 C500 1.356 . S
N498 H510 0.984 . S
N498 H511 0.985 . S
N499 C501 1.356 . S
N499 H504 0.984 . S
N499 H505 0.985 . S
C500 C494 1.379 . S
C500 C497 1.363 . S
C500 N498 1.356 . S
C501 C495 1.363 . S
C501 C496 1.379 . S
C501 N499 1.356 . S
N502 C494 1.356 . S
N502 H508 0.984 . S
N502 H509 0.984 . S
N503 C496 1.356 . S
N503 H506 0.984 . S
N503 H507 0.985 . S
H504 N499 0.984 . S
H505 N499 0.985 . S
H506 N503 0.984 . S
H507 N503 0.985 . S
H508 N502 0.984 . S
H509 N502 0.984 . S
H510 N498 0.984 . S
H511 N498 0.985 . S
C512 C513 1.363 . S
C512 C518 1.379 1_556 S
C512 N520 1.356 . S
C513 C512 1.363 . S
C513 C519 1.363 . S
C514 C515 1.363 . S
C514 C519 1.379 1_554 S
C514 N521 1.356 . S
C515 C514 1.363 . S
C515 C518 1.363 . S
N516 C518 1.356 . S
N516 H528 0.984 . S
N516 H529 0.985 . S
N517 C519 1.356 . S
N517 H522 0.984 . S
N517 H523 0.985 . S
C518 C512 1.379 1_554 S
C518 C515 1.363 . S
C518 N516 1.356 . S
C519 C513 1.363 . S
C519 C514 1.379 1_556 S
C519 N517 1.356 . S
N520 C512 1.356 . S
N520 H526 0.984 . S
N520 H527 0.984 . S
N521 C514 1.356 . S
N521 H524 0.984 . S
N521 H525 0.985 . S
H522 N517 0.984 . S
H523 N517 0.985 . S
H524 N521 0.984 . S
H525 N521 0.985 . S
H526 N520 0.984 . S
H527 N520 0.984 . S
H528 N516 0.984 . S
H529 N516 0.985 . S
C530 C531 1.363 . S
C530 C536 1.379 . S
C530 N538 1.356 . S
C531 C530 1.363 . S
C531 C537 1.363 . S
C532 C533 1.363 . S
C532 C537 1.379 . S
C532 N539 1.356 . S
C533 C532 1.363 . S
C533 C536 1.363 . S
N534 C536 1.356 . S
N534 H546 0.984 . S
N534 H547 0.985 . S
N535 C537 1.356 . S
N535 H540 0.984 . S
N535 H541 0.985 . S
C536 C530 1.379 . S
C536 C533 1.363 . S
C536 N534 1.356 . S
C537 C531 1.363 . S
C537 C532 1.379 . S
C537 N535 1.356 . S
N538 C530 1.356 . S
N538 H544 0.984 . S
N538 H545 0.984 . S
N539 C532 1.356 . S
N539 H542 0.984 . S
N539 H543 0.985 . S
H540 N535 0.984 . S
H541 N535 0.985 . S
H542 N539 0.984 . S
H543 N539 0.985 . S
H544 N538 0.984 . S
H545 N538 0.984 . S
H546 N534 0.984 . S
H547 N534 0.985 . S
C548 C549 1.363 . S
C548 C554 1.379 1_554 S
C548 N556 1.356 . S
C549 C548 1.363 . S
C549 C555 1.363 . S
C550 C551 1.363 . S
C550 C555 1.379 1_556 S
C550 N557 1.356 . S
C551 C550 1.363 . S
C551 C554 1.363 . S
N552 C554 1.356 . S
N552 H564 0.984 . S
N552 H565 0.985 . S
N553 C555 1.356 . S
N553 H558 0.984 . S
N553 H559 0.985 . S
C554 C548 1.379 1_556 S
C554 C551 1.363 . S
C554 N552 1.356 . S
C555 C549 1.363 . S
C555 C550 1.379 1_554 S
C555 N553 1.356 . S
N556 C548 1.356 . S
N556 H562 0.984 . S
N556 H563 0.984 . S
N557 C550 1.356 . S
N557 H560 0.984 . S
N557 H561 0.985 . S
H558 N553 0.984 . S
H559 N553 0.985 . S
H560 N557 0.984 . S
H561 N557 0.985 . S
H562 N556 0.984 . S
H563 N556 0.984 . S
H564 N552 0.984 . S
H565 N552 0.985 . S
C566 C567 1.363 . S
C566 C572 1.379 . S
C566 N574 1.356 . S
C567 C566 1.363 . S
C567 C573 1.363 . S
C568 C569 1.363 . S
C568 C573 1.379 . S
C568 N575 1.356 . S
C569 C568 1.363 . S
C569 C572 1.363 . S
N570 C572 1.356 . S
N570 H582 0.984 . S
N570 H583 0.985 . S
N571 C573 1.356 . S
N571 H576 0.984 . S
N571 H577 0.985 . S
C572 C566 1.379 . S
C572 C569 1.363 . S
C572 N570 1.356 . S
C573 C567 1.363 . S
C573 C568 1.379 . S
C573 N571 1.356 . S
N574 C566 1.356 . S
N574 H580 0.984 . S
N574 H581 0.984 . S
N575 C568 1.356 . S
N575 H578 0.984 . S
N575 H579 0.985 . S
H576 N571 0.984 . S
H577 N571 0.985 . S
H578 N575 0.984 . S
H579 N575 0.985 . S
H580 N574 0.984 . S
H581 N574 0.984 . S
H582 N570 0.984 . S
H583 N570 0.985 . S
C584 C585 1.363 1_556 S
C584 C590 1.379 . S
C584 N592 1.356 . S
C585 C584 1.363 1_554 S
C585 C591 1.363 . S
C586 C587 1.363 1_554 S
C586 C591 1.379 . S
C586 N593 1.356 . S
C587 C586 1.363 1_556 S
C587 C590 1.363 . S
N588 C590 1.356 . S
N588 H600 0.984 . S
N588 H601 0.985 . S
N589 C591 1.356 . S
N589 H594 0.984 . S
N589 H595 0.985 . S
C590 C584 1.379 . S
C590 C587 1.363 . S
C590 N588 1.356 . S
C591 C585 1.363 . S
C591 C586 1.379 . S
C591 N589 1.356 . S
N592 C584 1.356 . S
N592 H598 0.984 . S
N592 H599 0.984 1_556 S
N593 C586 1.356 . S
N593 H596 0.984 1_554 S
N593 H597 0.985 . S
H594 N589 0.984 . S
H595 N589 0.985 . S
H596 N593 0.984 1_556 S
H597 N593 0.985 . S
H598 N592 0.984 . S
H599 N592 0.984 1_554 S
H600 N588 0.984 . S
H601 N588 0.985 . S
C602 C603 1.363 . S
C602 C608 1.379 . S
C602 N610 1.356 . S
C603 C602 1.363 . S
C603 C609 1.363 . S
C604 C605 1.363 . S
C604 C609 1.379 . S
C604 N611 1.356 . S
C605 C604 1.363 . S
C605 C608 1.363 . S
N606 C608 1.356 . S
N606 H618 0.984 . S
N606 H619 0.985 . S
N607 C609 1.356 . S
N607 H612 0.984 . S
N607 H613 0.985 . S
C608 C602 1.379 . S
C608 C605 1.363 . S
C608 N606 1.356 . S
C609 C603 1.363 . S
C609 C604 1.379 . S
C609 N607 1.356 . S
N610 C602 1.356 . S
N610 H616 0.984 . S
N610 H617 0.984 . S
N611 C604 1.356 . S
N611 H614 0.984 . S
N611 H615 0.985 . S
H612 N607 0.984 . S
H613 N607 0.985 . S
H614 N611 0.984 . S
H615 N611 0.985 . S
H616 N610 0.984 . S
H617 N610 0.984 . S
H618 N606 0.984 . S
H619 N606 0.985 . S
C620 C621 1.363 . S
C620 C626 1.379 1_554 S
C620 N628 1.356 . S
C621 C620 1.363 . S
C621 C627 1.363 . S
C622 C623 1.363 . S
C622 C627 1.379 1_556 S
C622 N629 1.356 . S
C623 C622 1.363 . S
C623 C626 1.363 . S
N624 C626 1.356 . S
N624 H636 0.984 . S
N624 H637 0.985 . S
N625 C627 1.356 . S
N625 H630 0.984 . S
N625 H631 0.985 . S
C626 C620 1.379 1_556 S
C626 C623 1.363 . S
C626 N624 1.356 . S
C627 C621 1.363 . S
C627 C622 1.379 1_554 S
C627 N625 1.356 . S
N628 C620 1.356 . S
N628 H634 0.984 . S
N628 H635 0.984 . S
N629 C622 1.356 . S
N629 H632 0.984 . S
N629 H633 0.985 . S
H630 N625 0.984 . S
H631 N625 0.985 . S
H632 N629 0.984 . S
H633 N629 0.985 . S
H634 N628 0.984 . S
H635 N628 0.984 . S
H636 N624 0.984 . S
H637 N624 0.985 . S
C638 C639 1.363 . S
C638 C644 1.379 . S
C638 N646 1.356 . S
C639 C638 1.363 . S
C639 C645 1.363 . S
C640 C641 1.363 . S
C640 C645 1.379 . S
C640 N647 1.356 . S
C641 C640 1.363 . S
C641 C644 1.363 . S
N642 C644 1.356 . S
N642 H654 0.984 . S
N642 H655 0.985 . S
N643 C645 1.356 . S
N643 H648 0.984 . S
N643 H649 0.985 . S
C644 C638 1.379 . S
C644 C641 1.363 . S
C644 N642 1.356 . S
C645 C639 1.363 . S
C645 C640 1.379 . S
C645 N643 1.356 . S
N646 C638 1.356 . S
N646 H652 0.984 . S
N646 H653 0.984 . S
N647 C640 1.356 . S
N647 H650 0.984 . S
N647 H651 0.985 . S
H648 N643 0.984 . S
H649 N643 0.985 . S
H650 N647 0.984 . S
H651 N647 0.985 . S
H652 N646 0.984 . S
H653 N646 0.984 . S
H654 N642 0.984 . S
H655 N642 0.985 . S
C656 C657 1.363 . S
C656 C662 1.379 . S
C656 N664 1.356 . S
C657 C656 1.363 . S
C657 C663 1.363 1_556 S
C658 C659 1.363 . S
C658 C663 1.379 . S
C658 N665 1.356 . S
C659 C658 1.363 . S
C659 C662 1.363 1_554 S
N660 C662 1.356 . S
N660 H672 0.984 . S
N660 H673 0.985 . S
N661 C663 1.356 . S
N661 H666 0.984 . S
N661 H667 0.985 . S
C662 C656 1.379 . S
C662 C659 1.363 1_556 S
C662 N660 1.356 . S
C663 C657 1.363 1_554 S
C663 C658 1.379 . S
C663 N661 1.356 . S
N664 C656 1.356 . S
N664 H670 0.984 . S
N664 H671 0.984 . S
N665 C658 1.356 . S
N665 H668 0.984 . S
N665 H669 0.985 . S
H666 N661 0.984 . S
H667 N661 0.985 . S
H668 N665 0.984 . S
H669 N665 0.985 . S
H670 N664 0.984 . S
H671 N664 0.984 . S
H672 N660 0.984 . S
H673 N660 0.985 . S
C674 C675 1.363 . S
C674 C680 1.379 . S
C674 N682 1.356 . S
C675 C674 1.363 . S
C675 C681 1.363 . S
C676 C677 1.363 . S
C676 C681 1.379 . S
C676 N683 1.356 . S
C677 C676 1.363 . S
C677 C680 1.363 . S
N678 C680 1.356 . S
N678 H690 0.984 . S
N678 H691 0.985 . S
N679 C681 1.356 . S
N679 H684 0.984 . S
N679 H685 0.985 . S
C680 C674 1.379 . S
C680 C677 1.363 . S
C680 N678 1.356 . S
C681 C675 1.363 . S
C681 C676 1.379 . S
C681 N679 1.356 . S
N682 C674 1.356 . S
N682 H688 0.984 . S
N682 H689 0.984 . S
N683 C676 1.356 . S
N683 H686 0.984 . S
N683 H687 0.985 . S
H684 N679 0.984 . S
H685 N679 0.985 . S
H686 N683 0.984 . S
H687 N683 0.985 . S
H688 N682 0.984 . S
H689 N682 0.984 . S
H690 N678 0.984 . S
H691 N678 0.985 . S
C692 C693 1.363 . S
C692 C698 1.379 . S
C692 N700 1.356 . S
C693 C692 1.363 . S
C693 C699 1.363 1_554 S
C694 C695 1.363 . S
C694 C699 1.379 . S
C694 N701 1.356 . S
C695 C694 1.363 . S
C695 C698 1.363 1_556 S
N696 C698 1.356 . S
N696 H708 0.984 . S
N696 H709 0.985 . S
N697 C699 1.356 . S
N697 H702 0.984 . S
N697 H703 0.985 . S
C698 C692 1.379 . S
C698 C695 1.363 1_554 S
C698 N696 1.356 . S
C699 C693 1.363 1_556 S
C699 C694 1.379 . S
C699 N697 1.356 . S
N700 C692 1.356 . S
N700 H706 0.984 . S
N700 H707 0.984 . S
N701 C694 1.356 . S
N701 H704 0.984 . S
N701 H705 0.985 . S
H702 N697 0.984 . S
H703 N697 0.985 . S
H704 N701 0.984 . S
H705 N701 0.985 . S
H706 N700 0.984 . S
H707 N700 0.984 . S
H708 N696 0.984 . S
H709 N696 0.985 . S
C710 C711 1.363 . S
C710 C716 1.379 . S
C710 N718 1.356 . S
C711 C710 1.363 . S
C711 C717 1.363 . S
C712 C713 1.363 . S
C712 C717 1.379 . S
C712 N719 1.356 . S
C713 C712 1.363 . S
C713 C716 1.363 . S
N714 C716 1.356 . S
N714 H726 0.984 . S
N714 H727 0.985 . S
N715 C717 1.356 . S
N715 H720 0.984 . S
N715 H721 0.985 . S
C716 C710 1.379 . S
C716 C713 1.363 . S
C716 N714 1.356 . S
C717 C711 1.363 . S
C717 C712 1.379 . S
C717 N715 1.356 . S
N718 C710 1.356 . S
N718 H724 0.984 . S
N718 H725 0.984 . S
N719 C712 1.356 . S
N719 H722 0.984 . S
N719 H723 0.985 . S
H720 N715 0.984 . S
H721 N715 0.985 . S
H722 N719 0.984 . S
H723 N719 0.985 . S
H724 N718 0.984 . S
H725 N718 0.984 . S
H726 N714 0.984 . S
H727 N714 0.985 . S
C728 C729 1.363 . S
C728 C734 1.379 1_545 S
C728 N736 1.356 . S
C729 C728 1.363 . S
C729 C735 1.363 1_556 S
C730 C731 1.363 . S
C730 C735 1.379 1_565 S
C730 N737 1.356 . S
C731 C730 1.363 . S
C731 C734 1.363 1_554 S
N732 C734 1.356 . S
N732 H744 0.984 . S
N732 H745 0.985 . S
N733 C735 1.356 . S
N733 H738 0.984 . S
N733 H739 0.985 . S
C734 C728 1.379 1_565 S
C734 C731 1.363 1_556 S
C734 N732 1.356 . S
C735 C729 1.363 1_554 S
C735 C730 1.379 1_545 S
C735 N733 1.356 . S
N736 C728 1.356 . S
N736 H742 0.984 . S
N736 H743 0.984 . S
N737 C730 1.356 . S
N737 H740 0.984 . S
N737 H741 0.985 . S
H738 N733 0.984 . S
H739 N733 0.985 . S
H740 N737 0.984 . S
H741 N737 0.985 . S
H742 N736 0.984 . S
H743 N736 0.984 . S
H744 N732 0.984 . S
H745 N732 0.985 . S
C746 C747 1.363 . S
C746 C752 1.379 1_565 S
C746 N754 1.356 . S
C747 C746 1.363 . S
C747 C753 1.363 . S
C748 C749 1.363 . S
C748 C753 1.379 1_545 S
C748 N755 1.356 . S
C749 C748 1.363 . S
C749 C752 1.363 . S
N750 C752 1.356 . S
N750 H762 0.984 . S
N750 H763 0.985 . S
N751 C753 1.356 . S
N751 H756 0.984 . S
N751 H757 0.985 . S
C752 C746 1.379 1_545 S
C752 C749 1.363 . S
C752 N750 1.356 . S
C753 C747 1.363 . S
C753 C748 1.379 1_565 S
C753 N751 1.356 . S
N754 C746 1.356 . S
N754 H760 0.984 . S
N754 H761 0.984 . S
N755 C748 1.356 . S
N755 H758 0.984 . S
N755 H759 0.985 . S
H756 N751 0.984 . S
H757 N751 0.985 . S
H758 N755 0.984 . S
H759 N755 0.985 . S
H760 N754 0.984 . S
H761 N754 0.984 . S
H762 N750 0.984 . S
H763 N750 0.985 . S
C764 C765 1.363 . S
C764 C770 1.376 1_564 S
C764 N772 1.356 . S
C765 C764 1.363 . S
C765 C771 1.366 . S
C766 C767 1.363 . S
C766 C771 1.376 1_546 S
C766 N773 1.356 . S
C767 C766 1.363 . S
C767 C770 1.366 . S
N768 C770 1.357 . S
N768 H780 0.984 1_556 S
N768 H781 0.985 . S
N769 C771 1.357 . S
N769 H774 0.984 . S
N769 H775 0.985 1_554 S
C770 C764 1.376 1_546 S
C770 C767 1.366 . S
C770 N768 1.357 . S
C771 C765 1.366 . S
C771 C766 1.376 1_564 S
C771 N769 1.357 . S
N772 C764 1.356 . S
N772 H778 0.984 . S
N772 H779 0.984 . S
N773 C766 1.356 . S
N773 H776 0.984 . S
N773 H777 0.985 . S
H774 N769 0.984 . S
H775 N769 0.985 1_556 S
H776 N773 0.984 . S
H777 N773 0.985 . S
H778 N772 0.984 . S
H779 N772 0.984 . S
H780 N768 0.984 1_554 S
H781 N768 0.985 . S
C782 C783 1.363 . S
C782 C788 1.379 1_545 S
C782 N790 1.356 . S
C783 C782 1.363 . S
C783 C789 1.363 . S
C784 C785 1.363 . S
C784 C789 1.379 1_565 S
C784 N791 1.356 . S
C785 C784 1.363 . S
C785 C788 1.363 . S
N786 C788 1.356 . S
N786 H798 0.984 . S
N786 H799 0.985 . S
N787 C789 1.356 . S
N787 H792 0.984 . S
N787 H793 0.985 . S
C788 C782 1.379 1_565 S
C788 C785 1.363 . S
C788 N786 1.356 . S
C789 C783 1.363 . S
C789 C784 1.379 1_545 S
C789 N787 1.356 . S
N790 C782 1.356 . S
N790 H796 0.984 . S
N790 H797 0.984 . S
N791 C784 1.356 . S
N791 H794 0.984 . S
N791 H795 0.985 . S
H792 N787 0.984 . S
H793 N787 0.985 . S
H794 N791 0.984 . S
H795 N791 0.985 . S
H796 N790 0.984 . S
H797 N790 0.984 . S
H798 N786 0.984 . S
H799 N786 0.985 . S
C225 C9 1.438 . S
C227 C93 1.439 . S
C243 C23 1.438 . S
C245 C107 1.439 . S
C261 C65 1.439 . S
C263 C37 1.438 . S
C279 C79 1.439 . S
C281 C51 1.438 . S
C297 C205 1.439 . S
C299 C121 1.438 . S
C315 C219 1.439 . S
C317 C135 1.438 . S
C333 C149 1.438 . S
C335 C177 1.439 . S
C351 C163 1.438 . S
C353 C191 1.439 . S
C369 C7 1.446 . S
C371 C73 1.505 . S
C387 C21 1.446 . S
C389 C59 1.505 . S
C405 C35 1.446 . S
C407 C101 1.505 . S
C423 C87 1.505 . S
C425 C49 1.446 . S
C441 C185 1.505 . S
C443 C119 1.446 . S
C459 C171 1.505 . S
C461 C133 1.446 . S
C477 C147 1.446 . S
C479 C213 1.505 . S
C495 C199 1.505 . S
C497 C161 1.446 . S
C513 C176 1.436 . S
C515 C8 1.425 . S
C531 C22 1.425 . S
C533 C190 1.436 . S
C549 C204 1.436 . S
C551 C36 1.425 . S
C567 C218 1.436 . S
C569 C50 1.425 . S
C585 C120 1.425 . S
C587 C64 1.436 . S
C603 C134 1.425 . S
C605 C78 1.436 . S
C621 C92 1.436 . S
C623 C148 1.425 . S
C639 C106 1.436 . S
C641 C162 1.425 . S
C657 C31 1.514 . S
C659 C3 1.514 . S
C675 C17 1.514 . S
C677 C45 1.514 . S
C693 C91 1.431 . S
C695 C63 1.431 . S
C711 C77 1.431 . S
C713 C105 1.431 . S
C729 C143 1.514 . S
C731 C115 1.514 . S
C747 C157 1.514 . S
C749 C129 1.514 . S
C765 C203 1.431 . S
C767 C175 1.431 . S
C783 C217 1.431 . S
C785 C189 1.431 . S
