# Generated by pormake.
# Topology wlq, (5)-cn, num edge types: 1
# Building blocks:
#     Node 0, Type 0, BuildingBlock: XOMCOT_clean_sbu_0, # of connection points: 5
#     Node 1, Type 0, BuildingBlock: XOMCOT_clean_sbu_0, # of connection points: 5
#     Node 2, Type 0, BuildingBlock: XOMCOT_clean_sbu_0, # of connection points: 5
#     Node 3, Type 0, BuildingBlock: XOMCOT_clean_sbu_0, # of connection points: 5
#     Node 4, Type 0, BuildingBlock: XOMCOT_clean_sbu_0, # of connection points: 5
#     Node 5, Type 0, BuildingBlock: XOMCOT_clean_sbu_0, # of connection points: 5
#     Node 6, Type 0, BuildingBlock: XOMCOT_clean_sbu_0, # of connection points: 5
#     Node 7, Type 0, BuildingBlock: XOMCOT_clean_sbu_0, # of connection points: 5
#     Node 8, Type 0, BuildingBlock: XOMCOT_clean_sbu_0, # of connection points: 5
#     Node 9, Type 0, BuildingBlock: XOMCOT_clean_sbu_0, # of connection points: 5
#     Node 10, Type 0, BuildingBlock: XOMCOT_clean_sbu_0, # of connection points: 5
#     Node 11, Type 0, BuildingBlock: XOMCOT_clean_sbu_0, # of connection points: 5
#     Node 12, Type 0, BuildingBlock: XOMCOT_clean_sbu_0, # of connection points: 5
#     Node 13, Type 0, BuildingBlock: XOMCOT_clean_sbu_0, # of connection points: 5
#     Node 14, Type 0, BuildingBlock: XOMCOT_clean_sbu_0, # of connection points: 5
#     Node 15, Type 0, BuildingBlock: XOMCOT_clean_sbu_0, # of connection points: 5
#     Node 16, Type 0, BuildingBlock: XOMCOT_clean_sbu_0, # of connection points: 5
#     Node 17, Type 0, BuildingBlock: XOMCOT_clean_sbu_0, # of connection points: 5
#     Node 18, Type 0, BuildingBlock: XOMCOT_clean_sbu_0, # of connection points: 5
#     Node 19, Type 0, BuildingBlock: XOMCOT_clean_sbu_0, # of connection points: 5
#     Node 20, Type 0, BuildingBlock: XOMCOT_clean_sbu_0, # of connection points: 5
#     Node 21, Type 0, BuildingBlock: XOMCOT_clean_sbu_0, # of connection points: 5
#     Node 22, Type 0, BuildingBlock: XOMCOT_clean_sbu_0, # of connection points: 5
#     Node 23, Type 0, BuildingBlock: XOMCOT_clean_sbu_0, # of connection points: 5
#     Node 24, Type 0, BuildingBlock: XOMCOT_clean_sbu_0, # of connection points: 5
#     Node 25, Type 0, BuildingBlock: XOMCOT_clean_sbu_0, # of connection points: 5
#     Node 26, Type 0, BuildingBlock: XOMCOT_clean_sbu_0, # of connection points: 5
#     Node 27, Type 0, BuildingBlock: XOMCOT_clean_sbu_0, # of connection points: 5
#     Node 28, Type 0, BuildingBlock: XOMCOT_clean_sbu_0, # of connection points: 5
#     Node 29, Type 0, BuildingBlock: XOMCOT_clean_sbu_0, # of connection points: 5
#     Node 30, Type 0, BuildingBlock: XOMCOT_clean_sbu_0, # of connection points: 5
#     Node 31, Type 0, BuildingBlock: XOMCOT_clean_sbu_0, # of connection points: 5
#     Node 32, Type 0, BuildingBlock: XOMCOT_clean_sbu_0, # of connection points: 5
#     Node 33, Type 0, BuildingBlock: XOMCOT_clean_sbu_0, # of connection points: 5
#     Node 34, Type 0, BuildingBlock: XOMCOT_clean_sbu_0, # of connection points: 5
#     Node 35, Type 0, BuildingBlock: XOMCOT_clean_sbu_0, # of connection points: 5
#     Edge 36, Type (0, 0), BuildingBlock: OJICUG_clean_linker_0, # of connection points: 2
#     Edge 37, Type (0, 0), BuildingBlock: OJICUG_clean_linker_0, # of connection points: 2
#     Edge 38, Type (0, 0), BuildingBlock: OJICUG_clean_linker_0, # of connection points: 2
#     Edge 39, Type (0, 0), BuildingBlock: OJICUG_clean_linker_0, # of connection points: 2
#     Edge 40, Type (0, 0), BuildingBlock: OJICUG_clean_linker_0, # of connection points: 2
#     Edge 41, Type (0, 0), BuildingBlock: OJICUG_clean_linker_0, # of connection points: 2
#     Edge 42, Type (0, 0), BuildingBlock: OJICUG_clean_linker_0, # of connection points: 2
#     Edge 43, Type (0, 0), BuildingBlock: OJICUG_clean_linker_0, # of connection points: 2
#     Edge 44, Type (0, 0), BuildingBlock: OJICUG_clean_linker_0, # of connection points: 2
#     Edge 45, Type (0, 0), BuildingBlock: OJICUG_clean_linker_0, # of connection points: 2
#     Edge 46, Type (0, 0), BuildingBlock: OJICUG_clean_linker_0, # of connection points: 2
#     Edge 47, Type (0, 0), BuildingBlock: OJICUG_clean_linker_0, # of connection points: 2
#     Edge 48, Type (0, 0), BuildingBlock: OJICUG_clean_linker_0, # of connection points: 2
#     Edge 49, Type (0, 0), BuildingBlock: OJICUG_clean_linker_0, # of connection points: 2
#     Edge 50, Type (0, 0), BuildingBlock: OJICUG_clean_linker_0, # of connection points: 2
#     Edge 51, Type (0, 0), BuildingBlock: OJICUG_clean_linker_0, # of connection points: 2
#     Edge 52, Type (0, 0), BuildingBlock: OJICUG_clean_linker_0, # of connection points: 2
#     Edge 53, Type (0, 0), BuildingBlock: OJICUG_clean_linker_0, # of connection points: 2
#     Edge 54, Type (0, 0), BuildingBlock: OJICUG_clean_linker_0, # of connection points: 2
#     Edge 55, Type (0, 0), BuildingBlock: OJICUG_clean_linker_0, # of connection points: 2
#     Edge 56, Type (0, 0), BuildingBlock: OJICUG_clean_linker_0, # of connection points: 2
#     Edge 57, Type (0, 0), BuildingBlock: OJICUG_clean_linker_0, # of connection points: 2
#     Edge 58, Type (0, 0), BuildingBlock: OJICUG_clean_linker_0, # of connection points: 2
#     Edge 59, Type (0, 0), BuildingBlock: OJICUG_clean_linker_0, # of connection points: 2
#     Edge 60, Type (0, 0), BuildingBlock: OJICUG_clean_linker_0, # of connection points: 2
#     Edge 61, Type (0, 0), BuildingBlock: OJICUG_clean_linker_0, # of connection points: 2
#     Edge 62, Type (0, 0), BuildingBlock: OJICUG_clean_linker_0, # of connection points: 2
#     Edge 63, Type (0, 0), BuildingBlock: OJICUG_clean_linker_0, # of connection points: 2
#     Edge 64, Type (0, 0), BuildingBlock: OJICUG_clean_linker_0, # of connection points: 2
#     Edge 65, Type (0, 0), BuildingBlock: OJICUG_clean_linker_0, # of connection points: 2
#     Edge 66, Type (0, 0), BuildingBlock: OJICUG_clean_linker_0, # of connection points: 2
#     Edge 67, Type (0, 0), BuildingBlock: OJICUG_clean_linker_0, # of connection points: 2
#     Edge 68, Type (0, 0), BuildingBlock: OJICUG_clean_linker_0, # of connection points: 2
#     Edge 69, Type (0, 0), BuildingBlock: OJICUG_clean_linker_0, # of connection points: 2
#     Edge 70, Type (0, 0), BuildingBlock: OJICUG_clean_linker_0, # of connection points: 2
#     Edge 71, Type (0, 0), BuildingBlock: OJICUG_clean_linker_0, # of connection points: 2
#     Edge 72, Type (0, 0), BuildingBlock: OJICUG_clean_linker_0, # of connection points: 2
#     Edge 73, Type (0, 0), BuildingBlock: OJICUG_clean_linker_0, # of connection points: 2
#     Edge 74, Type (0, 0), BuildingBlock: OJICUG_clean_linker_0, # of connection points: 2
#     Edge 75, Type (0, 0), BuildingBlock: OJICUG_clean_linker_0, # of connection points: 2
#     Edge 76, Type (0, 0), BuildingBlock: OJICUG_clean_linker_0, # of connection points: 2
#     Edge 77, Type (0, 0), BuildingBlock: OJICUG_clean_linker_0, # of connection points: 2
#     Edge 78, Type (0, 0), BuildingBlock: OJICUG_clean_linker_0, # of connection points: 2
#     Edge 79, Type (0, 0), BuildingBlock: OJICUG_clean_linker_0, # of connection points: 2
#     Edge 80, Type (0, 0), BuildingBlock: OJICUG_clean_linker_0, # of connection points: 2
#     Edge 81, Type (0, 0), BuildingBlock: OJICUG_clean_linker_0, # of connection points: 2
#     Edge 82, Type (0, 0), BuildingBlock: OJICUG_clean_linker_0, # of connection points: 2
#     Edge 83, Type (0, 0), BuildingBlock: OJICUG_clean_linker_0, # of connection points: 2
#     Edge 84, Type (0, 0), BuildingBlock: OJICUG_clean_linker_0, # of connection points: 2
#     Edge 85, Type (0, 0), BuildingBlock: OJICUG_clean_linker_0, # of connection points: 2
#     Edge 86, Type (0, 0), BuildingBlock: OJICUG_clean_linker_0, # of connection points: 2
#     Edge 87, Type (0, 0), BuildingBlock: OJICUG_clean_linker_0, # of connection points: 2
#     Edge 88, Type (0, 0), BuildingBlock: OJICUG_clean_linker_0, # of connection points: 2
#     Edge 89, Type (0, 0), BuildingBlock: OJICUG_clean_linker_0, # of connection points: 2
#     Edge 90, Type (0, 0), BuildingBlock: OJICUG_clean_linker_0, # of connection points: 2
#     Edge 91, Type (0, 0), BuildingBlock: OJICUG_clean_linker_0, # of connection points: 2
#     Edge 92, Type (0, 0), BuildingBlock: OJICUG_clean_linker_0, # of connection points: 2
#     Edge 93, Type (0, 0), BuildingBlock: OJICUG_clean_linker_0, # of connection points: 2
#     Edge 94, Type (0, 0), BuildingBlock: OJICUG_clean_linker_0, # of connection points: 2
#     Edge 95, Type (0, 0), BuildingBlock: OJICUG_clean_linker_0, # of connection points: 2
#     Edge 96, Type (0, 0), BuildingBlock: OJICUG_clean_linker_0, # of connection points: 2
#     Edge 97, Type (0, 0), BuildingBlock: OJICUG_clean_linker_0, # of connection points: 2
#     Edge 98, Type (0, 0), BuildingBlock: OJICUG_clean_linker_0, # of connection points: 2
#     Edge 99, Type (0, 0), BuildingBlock: OJICUG_clean_linker_0, # of connection points: 2
#     Edge 100, Type (0, 0), BuildingBlock: OJICUG_clean_linker_0, # of connection points: 2
#     Edge 101, Type (0, 0), BuildingBlock: OJICUG_clean_linker_0, # of connection points: 2
#     Edge 102, Type (0, 0), BuildingBlock: OJICUG_clean_linker_0, # of connection points: 2
#     Edge 103, Type (0, 0), BuildingBlock: OJICUG_clean_linker_0, # of connection points: 2
#     Edge 104, Type (0, 0), BuildingBlock: OJICUG_clean_linker_0, # of connection points: 2
#     Edge 105, Type (0, 0), BuildingBlock: OJICUG_clean_linker_0, # of connection points: 2
#     Edge 106, Type (0, 0), BuildingBlock: OJICUG_clean_linker_0, # of connection points: 2
#     Edge 107, Type (0, 0), BuildingBlock: OJICUG_clean_linker_0, # of connection points: 2
#     Edge 108, Type (0, 0), BuildingBlock: OJICUG_clean_linker_0, # of connection points: 2
#     Edge 109, Type (0, 0), BuildingBlock: OJICUG_clean_linker_0, # of connection points: 2
#     Edge 110, Type (0, 0), BuildingBlock: OJICUG_clean_linker_0, # of connection points: 2
#     Edge 111, Type (0, 0), BuildingBlock: OJICUG_clean_linker_0, # of connection points: 2
#     Edge 112, Type (0, 0), BuildingBlock: OJICUG_clean_linker_0, # of connection points: 2
#     Edge 113, Type (0, 0), BuildingBlock: OJICUG_clean_linker_0, # of connection points: 2
#     Edge 114, Type (0, 0), BuildingBlock: OJICUG_clean_linker_0, # of connection points: 2
#     Edge 115, Type (0, 0), BuildingBlock: OJICUG_clean_linker_0, # of connection points: 2
#     Edge 116, Type (0, 0), BuildingBlock: OJICUG_clean_linker_0, # of connection points: 2
#     Edge 117, Type (0, 0), BuildingBlock: OJICUG_clean_linker_0, # of connection points: 2
#     Edge 118, Type (0, 0), BuildingBlock: OJICUG_clean_linker_0, # of connection points: 2
#     Edge 119, Type (0, 0), BuildingBlock: OJICUG_clean_linker_0, # of connection points: 2
#     Edge 120, Type (0, 0), BuildingBlock: OJICUG_clean_linker_0, # of connection points: 2
#     Edge 121, Type (0, 0), BuildingBlock: OJICUG_clean_linker_0, # of connection points: 2
#     Edge 122, Type (0, 0), BuildingBlock: OJICUG_clean_linker_0, # of connection points: 2
#     Edge 123, Type (0, 0), BuildingBlock: OJICUG_clean_linker_0, # of connection points: 2
#     Edge 124, Type (0, 0), BuildingBlock: OJICUG_clean_linker_0, # of connection points: 2
#     Edge 125, Type (0, 0), BuildingBlock: OJICUG_clean_linker_0, # of connection points: 2
# Relax obj value: 0.115
# Max RMSD: 0.175
# Mean RMSD: 0.175
data_MOF--net-wlq--node1-XOMCOT_clean_sbu_0--edge1-OJICUG_clean_linker_0
_symmetry_space_group_name_H-M    P1
_symmetry_Int_Tables_number       1
_symmetry_cell_setting            triclinic
loop_
_symmetry_equiv_pos_as_xyz
'x, y, z'
_cell_length_a     56.683139
_cell_length_b     56.903289
_cell_length_c     26.838811
_cell_angle_alpha  90.030566
_cell_angle_beta   89.957835
_cell_angle_gamma 119.88005
loop_
_atom_site_label
_atom_site_type_symbol
_atom_site_fract_x
_atom_site_fract_y
_atom_site_fract_z
_atom_type_partial_charge
Co0 Co 0.23556 0.22232 0.04048 0.0
C1 C 0.24501 0.23234 0.15166 0.0
C2 C 0.26464 0.26839 0.10724 0.0
C3 C 0.2689 0.27571 0.15657 0.0
N4 N 0.25011 0.24118 0.10367 0.0
N5 N 0.25663 0.25312 0.18484 0.0
H6 H 0.23267 0.21143 0.16245 0.0
H7 H 0.27102 0.28212 0.07585 0.0
C8 C 0.29584 0.25404 0.02245 0.0
O9 O 0.29971 0.24769 0.06759 0.0
N10 N 0.22052 0.20399 0.97816 0.0
C11 C 0.2006 0.17804 0.9738 0.0
C12 C 0.19469 0.17221 0.92426 0.0
C13 C 0.22648 0.21374 0.93123 0.0
N14 N 0.211 0.19458 0.89724 0.0
C15 C 0.22991 0.17441 0.08963 0.0
C16 C 0.26296 0.16678 0.02339 0.0
C17 C 0.24796 0.14656 0.05809 0.0
C18 C 0.23157 0.15061 0.09215 0.0
C19 C 0.26077 0.19009 1.0221 0.0
N20 N 0.24461 0.19403 0.05516 0.0
H21 H 0.2151 0.17592 0.11257 0.0
H22 H 0.27021 0.20359 0.99111 0.0
H23 H 0.19083 0.16437 1.00468 0.0
H24 H 0.24173 0.23434 0.92239 0.0
O25 O 0.19876 0.20593 0.06685 0.0
O26 O 0.22058 0.24554 0.02806 0.0
O27 O 0.27171 0.24561 1.00644 0.0
C28 C 0.19833 0.227 0.04876 0.0
H29 H 0.27944 0.29631 0.17041 0.0
H30 H 0.179 0.15303 0.90965 0.0
H31 H 0.27498 0.16382 0.99528 0.0
H32 H 0.21885 0.13481 0.11826 0.0
Co33 Co 0.78942 0.00933 0.03854 0.0
C34 C 0.78009 0.00788 0.14981 0.0
C35 C 0.74343 0.99188 0.10669 0.0
C36 C 0.73666 0.98955 0.15633 0.0
N37 N 0.7707 1.00393 0.10221 0.0
N38 N 0.75965 0.99956 0.18354 0.0
H39 H 0.80119 0.01642 0.15997 0.0
H40 H 0.72935 0.98498 0.07573 0.0
C41 C 0.75819 0.03902 0.0256 0.0
O42 O 0.76402 0.04769 0.07178 0.0
N43 N 0.80785 0.01402 0.97574 0.0
C44 C 0.83394 0.02019 0.97075 0.0
C45 C 0.84014 0.02216 0.921 0.0
C46 C 0.79833 0.01203 0.92892 0.0
N47 N 0.81783 0.01714 0.89462 0.0
C48 C 0.83873 0.048 0.08796 0.0
C49 C 0.84686 0.09202 0.03134 0.0
C50 C 0.86792 0.09458 0.06192 0.0
C51 C 0.86357 0.07235 0.09111 0.0
C52 C 0.82277 0.06728 0.02828 0.0
N53 N 0.8186 0.04553 0.05666 0.0
H54 H 0.83666 0.03054 0.10761 0.0
H55 H 0.80883 0.06529 0.99925 0.0
H56 H 0.84752 0.02293 1.00128 0.0
H57 H 0.77774 0.0071 0.92025 0.0
O58 O 0.80491 0.98757 0.06137 0.0
O59 O 0.76534 0.97175 0.0226 0.0
O60 O 0.76686 0.02397 1.0074 0.0
C61 C 0.78358 0.96699 0.04181 0.0
H62 H 0.71625 0.98057 0.17134 0.0
H63 H 0.85949 0.02636 0.9055 0.0
H64 H 0.84978 0.10839 1.00684 0.0
H65 H 0.87961 0.07342 0.11461 0.0
Co66 Co 1.00294 0.78081 0.03889 0.0
C67 C 1.00381 0.77182 0.15014 0.0
C68 C 0.01984 0.75152 0.10606 0.0
C69 C 0.02195 0.74654 0.15548 0.0
N70 N 1.00789 0.76683 0.10224 0.0
N71 N 0.01193 0.75929 0.18335 0.0
H72 H 0.99536 0.78435 0.16089 0.0
H73 H 0.02683 0.74462 0.07478 0.0
C74 C 0.97311 0.7204 0.02404 0.0
O75 O 0.96398 0.71715 0.06999 0.0
N76 N 0.99885 0.79508 0.97617 0.0
C77 C 0.99238 0.81473 0.97113 0.0
C78 C 0.99352 0.82112 0.92153 0.0
C79 C 1.00386 0.78969 0.92952 0.0
N80 N 1.00081 0.80547 0.89539 0.0
C81 C 0.96392 0.79089 0.08953 0.0
C82 C 0.91946 0.75516 0.03339 0.0
C83 C 0.91664 0.77279 0.06588 0.0
C84 C 0.93918 0.79068 0.09459 0.0
C85 C 0.94461 0.7565 0.02849 0.0
N86 N 0.96652 0.77386 0.0569 0.0
H87 H 0.98147 0.80617 0.10923 0.0
H88 H 0.94667 0.74504 0.99861 0.0
H89 H 0.98777 0.82424 1.00159 0.0
H90 H 0.01064 0.7754 0.92098 0.0
O91 O 0.02497 0.81763 0.06312 0.0
O92 O 0.04073 0.79414 0.02343 0.0
O93 O 0.98827 0.74416 1.00654 0.0
C94 C 0.04568 0.8169 0.04364 0.0
H95 H 0.03084 0.73493 0.16992 0.0
H96 H 0.9896 0.83637 0.90588 0.0
H97 H 0.90289 0.74179 1.00911 0.0
H98 H 0.93797 0.80507 0.11941 0.0
Co99 Co 0.22666 0.22984 0.54407 0.0
C100 C 0.23592 0.23998 0.43289 0.0
C101 C 0.27219 0.26063 0.4769 0.0
C102 C 0.27929 0.26549 0.42752 0.0
N103 N 0.24498 0.24503 0.48076 0.0
N104 N 0.25656 0.25259 0.39953 0.0
H105 H 0.21494 0.22711 0.42239 0.0
H106 H 0.28609 0.26746 0.50813 0.0
C107 C 0.25455 0.29002 0.56062 0.0
O108 O 0.24805 0.29285 0.51491 0.0
N109 N 0.20905 0.21434 0.60668 0.0
C110 C 0.18365 0.1932 0.61199 0.0
C111 C 0.17928 0.18614 0.66146 0.0
C112 C 0.21984 0.22 0.65291 0.0
N113 N 0.20201 0.20295 0.68704 0.0
C114 C 0.17636 0.21815 0.49625 0.0
C115 C 0.1659 0.25091 0.5578 0.0
C116 C 0.14542 0.23305 0.52568 0.0
C117 C 0.15088 0.21664 0.49423 0.0
C118 C 0.19062 0.25124 0.55966 0.0
N119 N 0.19602 0.23536 0.52866 0.0
H120 H 0.17942 0.20396 0.47444 0.0
H121 H 0.2042 0.2626 0.58951 0.0
H122 H 0.16957 0.18311 0.58175 0.0
H123 H 0.24059 0.23538 0.66106 0.0
O124 O 0.21293 0.19355 0.51813 0.0
O125 O 0.25228 0.2176 0.5572 0.0
O126 O 0.2476 0.26645 0.57752 0.0
C127 C 0.23479 0.1948 0.5366 0.0
H128 H 0.29986 0.27695 0.41339 0.0
H129 H 0.16093 0.16966 0.67739 0.0
H130 H 0.16216 0.26319 0.58397 0.0
H131 H 0.13533 0.20218 0.46947 0.0
Co132 Co 0.78296 0.99327 0.54115 0.0
C133 C 0.77456 0.99497 0.43132 0.0
C134 C 0.74059 0.99032 0.47448 0.0
C135 C 0.73527 0.99167 0.42498 0.0
N136 N 0.76514 0.99227 0.47869 0.0
N137 N 0.75666 0.99484 0.39746 0.0
H138 H 0.79431 0.9976 0.42208 0.0
H139 H 0.72747 0.98846 0.50526 0.0
C140 C 0.73832 0.95585 0.61019 0.0
O141 O 0.75433 0.94644 0.62378 0.0
N142 N 0.80127 0.99542 0.6041 0.0
C143 C 0.82618 0.99815 0.61039 0.0
C144 C 0.83364 1.00369 0.65945 0.0
C145 C 0.79462 1.00064 0.64967 0.0
N146 N 0.81376 0.00516 0.68412 0.0
C147 C 0.80461 0.95871 0.51694 0.0
C148 C 0.75626 0.91025 0.51885 0.0
C149 C 0.78079 0.90961 0.52089 0.0
C150 C 0.80517 0.93453 0.51742 0.0
C151 C 0.7568 0.93518 0.51969 0.0
N152 N 0.78092 0.95891 0.52394 0.0
H153 H 0.82353 0.97738 0.51269 0.0
H154 H 0.73778 0.93525 0.51916 0.0
H155 H 0.83932 0.99823 0.58141 0.0
H156 H 0.77672 1.00227 0.65714 0.0
O157 O 0.81798 0.01778 0.51253 0.0
O158 O 0.79194 0.03057 0.55212 0.0
O159 O 0.74614 0.97414 0.57637 0.0
C160 C 0.81521 0.03739 0.53102 0.0
H161 H 0.7168 0.99031 0.41068 0.0
H162 H 0.85257 0.00701 0.67555 0.0
H163 H 0.73676 0.89178 0.51771 0.0
H164 H 0.82486 0.93586 0.51718 0.0
Co165 Co 0.01981 0.78837 0.54085 0.0
C166 C 0.01698 0.7773 0.43158 0.0
C167 C 0.01822 0.74628 0.47507 0.0
C168 C 0.0164 0.73943 0.4255 0.0
N169 N 0.01869 0.77005 0.47902 0.0
N170 N 0.01542 0.75878 0.39773 0.0
H171 H 0.01645 0.79553 0.42236 0.0
H172 H 0.01886 0.73449 0.50607 0.0
C173 C 0.05741 0.78043 0.60854 0.0
O174 O 0.06806 0.80603 0.62135 0.0
N175 N 0.0199 0.80646 0.60301 0.0
C176 C 0.01958 0.82991 0.60747 0.0
C177 C 0.01703 0.83457 0.65672 0.0
C178 C 0.01593 0.79649 0.65011 0.0
N179 N 0.01508 0.81376 0.68389 0.0
C180 C 0.05595 0.84341 0.51046 0.0
C181 C 0.10345 0.84122 0.51647 0.0
C182 C 0.10507 0.86665 0.5165 0.0
C183 C 0.08093 0.86745 0.50981 0.0
C184 C 0.07784 0.81763 0.51682 0.0
N185 N 0.05462 0.81927 0.52015 0.0
H186 H 0.03762 0.84441 0.50534 0.0
H187 H 0.07688 0.7982 0.51773 0.0
H188 H 0.01949 0.84229 0.57728 0.0
H189 H 0.0137 0.777 0.65938 0.0
O190 O 0.99506 0.799 0.51275 0.0
O191 O 0.98258 0.76128 0.55546 0.0
O192 O 0.03853 0.77024 0.57566 0.0
C193 C 0.97555 0.77713 0.53297 0.0
H194 H 0.01596 0.72142 0.41146 0.0
H195 H 0.01562 0.85161 0.67101 0.0
H196 H 0.12159 0.8395 0.51914 0.0
H197 H 0.08127 0.88656 0.5059 0.0
Co198 Co 0.78016 0.7832 0.0467 0.0
C199 C 0.77381 0.77306 0.93502 0.0
C200 C 0.75723 0.73703 0.97963 0.0
C201 C 0.75371 0.7296 0.93038 0.0
N202 N 0.76956 0.76423 0.98295 0.0
N203 N 0.76402 0.75218 0.9021 0.0
H204 H 0.78355 0.79406 0.92405 0.0
H205 H 0.75134 0.72345 1.0112 0.0
C206 C 0.71961 0.75377 0.04736 0.0
O207 O 0.72166 0.76192 1.00095 0.0
N208 N 0.79136 0.80163 0.10991 0.0
C209 C 0.81036 0.82787 0.11552 0.0
C210 C 0.81496 0.83346 0.16533 0.0
C211 C 0.78472 0.79145 0.15644 0.0
N212 N 0.79888 0.81062 0.19133 0.0
C213 C 0.79143 0.83187 0.99422 0.0
C214 C 0.7551 0.84089 0.04818 0.0
C215 C 0.77428 0.8617 1.01823 0.0
C216 C 0.79235 0.85689 0.99026 0.0
C217 C 0.75537 0.81664 0.05217 0.0
N218 N 0.7732 0.81203 0.02518 0.0
H219 H 0.80703 0.82947 0.97578 0.0
H220 H 0.74299 0.80294 0.08111 0.0
H221 H 0.82089 0.84179 0.08534 0.0
H222 H 0.77035 0.7704 0.16428 0.0
O223 O 0.81814 0.79945 0.02831 0.0
O224 O 0.79449 0.75994 0.06654 0.0
O225 O 0.74131 0.76022 0.07225 0.0
C226 C 0.81775 0.77854 0.04875 0.0
H227 H 0.74464 0.70905 0.91655 0.0
H228 H 0.83004 0.8527 0.1808 0.0
H229 H 0.74146 0.84415 0.07178 0.0
H230 H 0.80782 0.87273 0.96731 0.0
Co231 Co 0.22992 0.99815 0.04186 0.0
C232 C 0.24083 1.0014 0.93224 0.0
C233 C 0.27274 1.00152 0.97557 0.0
C234 C 0.27985 0.00406 0.92603 0.0
N235 N 0.24828 0.99981 0.97964 0.0
N236 N 0.25995 0.00419 0.89848 0.0
H237 H 0.22221 1.00129 0.92289 0.0
H238 H 0.28488 1.00143 1.00653 0.0
C239 C 0.23925 0.96165 0.11017 0.0
O240 O 0.21376 0.95109 0.12437 0.0
N241 N 0.21181 0.99744 0.10434 0.0
C242 C 0.18719 0.99544 0.10976 0.0
C243 C 0.18305 0.99866 0.15906 0.0
C244 C 0.22272 1.00301 0.15078 0.0
N245 N 0.2053 1.00328 0.18492 0.0
C246 C 0.17536 0.96323 1.00789 0.0
C247 C 0.17504 0.91492 1.01966 0.0
C248 C 0.15007 0.91442 1.01588 0.0
C249 C 0.15067 0.93893 1.00641 0.0
C250 C 0.19936 0.93987 1.02053 0.0
N251 N 0.19882 0.96362 1.0208 0.0
H252 H 0.1752 0.98185 1.0016 0.0
H253 H 0.21834 0.93989 0.0237 0.0
H254 H 0.1734 0.99315 0.08019 0.0
H255 H 0.24316 0.00732 0.15925 0.0
O256 O 0.21878 0.02259 1.01487 0.0
O257 O 0.25686 0.03542 0.05693 0.0
O258 O 0.2487 0.97972 0.07583 0.0
C259 C 0.24056 0.04214 0.03512 0.0
H260 H 0.29843 0.00567 0.91158 0.0
H261 H 0.16505 0.99786 0.17465 0.0
H262 H 0.17581 0.89643 0.02458 0.0
H263 H 0.1321 0.93946 0.99965 0.0
Co264 Co 0.01505 0.22819 0.04558 0.0
C265 C 0.015 0.23706 0.93412 0.0
C266 C 0.99692 0.25568 0.97741 0.0
C267 C 0.99437 0.26001 0.92792 0.0
N268 N 0.01025 0.24171 0.98177 0.0
N269 N 1.00573 0.24837 0.90044 0.0
H270 H 0.0247 0.22556 0.92396 0.0
H271 H 0.98906 0.26187 1.00841 0.0
C272 C 0.04429 0.28873 0.05885 0.0
O273 O 0.05326 0.29148 1.01286 0.0
N274 N 0.0188 0.2143 0.10875 0.0
C275 C 0.02489 0.19442 0.11487 0.0
C276 C 0.02221 0.18753 0.16439 0.0
C277 C 0.01256 0.21937 0.15455 0.0
N278 N 0.01445 0.20317 0.18916 0.0
C279 C 0.05468 0.21806 0.9982 0.0
C280 C 0.09773 0.25293 0.05804 0.0
C281 C 0.10075 0.2346 0.02784 0.0
C282 C 0.07902 0.21726 0.99698 0.0
C283 C 0.07299 0.2526 0.05912 0.0
N284 N 0.0517 0.23544 0.02932 0.0
H285 H 0.03755 0.20309 0.97714 0.0
H286 H 0.07054 0.26444 0.08776 0.0
H287 H 0.02988 0.18485 0.08508 0.0
H288 H 1.00543 0.2335 0.16195 0.0
O289 O 0.99384 0.1912 1.02189 0.0
O290 O 0.97699 0.21429 0.05963 0.0
O291 O 0.02918 0.26511 0.07711 0.0
C292 C 0.97276 0.19156 0.04035 0.0
H293 H 0.98416 0.27031 0.91328 0.0
H294 H 0.02512 0.17179 0.18087 0.0
H295 H 0.1137 0.26606 0.08359 0.0
H296 H 0.08047 0.20255 0.97348 0.0
Co297 Co 0.79028 0.77437 0.54283 0.0
C298 C 0.78215 0.76502 0.6544 0.0
C299 C 0.74566 0.7435 0.61131 0.0
C300 C 0.73891 0.73878 0.6608 0.0
N301 N 0.77282 0.75944 0.60678 0.0
N302 N 0.7618 0.75223 0.68813 0.0
H303 H 0.80304 0.77847 0.66461 0.0
H304 H 0.73152 0.73638 0.58046 0.0
C305 C 0.76112 0.71452 0.52553 0.0
O306 O 0.76942 0.71164 0.56963 0.0
N307 N 0.8067 0.78951 0.47937 0.0
C308 C 0.83223 0.81013 0.47225 0.0
C309 C 0.83536 0.81724 0.42277 0.0
C310 C 0.79462 0.78416 0.4343 0.0
N311 N 0.81176 0.8009 0.39915 0.0
C312 C 0.8396 0.78133 0.58887 0.0
C313 C 0.84878 0.75119 0.51854 0.0
C314 C 0.86892 0.76587 0.55371 0.0
C315 C 0.86407 0.78074 0.58982 0.0
C316 C 0.82465 0.75209 0.51916 0.0
N317 N 0.81997 0.76681 0.55425 0.0
H318 H 0.83753 0.79521 0.61334 0.0
H319 H 0.81089 0.74275 0.48837 0.0
H320 H 0.84721 0.81985 0.50136 0.0
H321 H 0.77349 0.76928 0.4278 0.0
O322 O 0.80653 0.81085 0.56899 0.0
O323 O 0.76577 0.78838 0.53368 0.0
O324 O 0.76737 0.73807 0.50966 0.0
C325 C 0.78476 0.81077 0.55314 0.0
H326 H 0.71849 0.72708 0.6755 0.0
H327 H 0.85341 0.83346 0.40551 0.0
H328 H 0.85226 0.74022 0.4891 0.0
H329 H 0.87972 0.79314 0.61648 0.0
Co330 Co 0.23688 0.01314 0.5409 0.0
C331 C 0.24594 0.01259 0.65052 0.0
C332 C 0.27634 0.0098 0.60714 0.0
C333 C 0.28196 0.0093 0.6569 0.0
N334 N 0.2539 0.01206 0.60301 0.0
N335 N 0.26292 0.01106 0.68438 0.0
H336 H 0.22829 0.01428 0.66003 0.0
H337 H 0.2877 0.00831 0.57611 0.0
C338 C 0.28268 0.05025 0.47316 0.0
O339 O 0.26787 0.06112 0.46016 0.0
N340 N 0.21909 0.01331 0.47844 0.0
C341 C 0.19575 0.014 0.47362 0.0
C342 C 0.18935 0.01277 0.42411 0.0
C343 C 0.22553 0.00992 0.43125 0.0
N344 N 0.20827 0.01064 0.39721 0.0
C345 C 0.21711 0.04839 0.57241 0.0
C346 C 0.26567 0.09642 0.56336 0.0
C347 C 0.24131 0.09723 0.56502 0.0
C348 C 0.21704 0.07285 0.57326 0.0
C349 C 0.2647 0.0713 0.56313 0.0
N350 N 0.24025 0.04774 0.56127 0.0
H351 H 0.19816 0.02989 0.57831 0.0
H352 H 0.28355 0.07097 0.56135 0.0
H353 H 0.18327 0.01421 0.50363 0.0
H354 H 0.24276 0.00749 0.42194 0.0
O355 O 0.20154 0.98885 0.56869 0.0
O356 O 0.22667 0.97579 0.52677 0.0
O357 O 0.27394 0.03161 0.50643 0.0
C358 C 0.20372 0.96916 0.54887 0.0
H359 H 0.2986 0.00723 0.67168 0.0
H360 H 0.17162 0.01279 0.40922 0.0
H361 H 0.28515 0.11479 0.55953 0.0
H362 H 0.19795 0.07255 0.57867 0.0
Co363 Co 0.9974 0.21938 0.54162 0.0
C364 C 0.99844 0.22908 0.65277 0.0
C365 C 0.01723 0.26547 0.60908 0.0
C366 C 0.02024 0.27252 0.65855 0.0
N367 N 1.00317 0.23827 0.60504 0.0
N368 N 0.00845 0.24972 0.68626 0.0
H369 H 0.98823 0.20796 0.6631 0.0
H370 H 0.02525 0.27931 0.57792 0.0
C371 C 0.96953 0.25222 0.52813 0.0
O372 O 0.96115 0.24707 0.57457 0.0
N373 N 0.99254 0.20092 0.479 0.0
C374 C 0.98585 0.17482 0.47391 0.0
C375 C 0.9859 0.16931 0.4242 0.0
C376 C 0.9967 0.21107 0.43239 0.0
N377 N 0.99266 0.19205 0.39782 0.0
C378 C 0.95708 0.17062 0.59035 0.0
C379 C 0.91374 0.16419 0.53282 0.0
C380 C 0.91036 0.14267 0.56267 0.0
C381 C 0.93221 0.1462 0.59249 0.0
C382 C 0.93902 0.18779 0.53056 0.0
N383 N 0.96048 0.19108 0.5592 0.0
H384 H 0.97423 0.17206 0.61047 0.0
H385 H 0.94161 0.20198 0.50171 0.0
H386 H 0.9819 0.16092 0.50438 0.0
H387 H 1.00289 0.23197 0.4243 0.0
O388 O 0.01845 0.20306 0.5651 0.0
O389 O 0.03536 0.24253 0.52623 0.0
O390 O 0.98386 0.24266 0.50993 0.0
C391 C 0.03955 0.22408 0.54591 0.0
H392 H 0.03105 0.293 0.67297 0.0
H393 H 0.98214 0.15012 0.40917 0.0
H394 H 0.8977 0.16188 0.50786 0.0
H395 H 0.93052 0.12974 0.61534 0.0
Co396 Co 0.90545 0.55691 0.37489 0.0
C397 C 0.91245 0.56654 0.48675 0.0
C398 C 0.92894 0.60278 0.4427 0.0
C399 C 0.9332 0.61003 0.49203 0.0
N400 N 0.91621 0.57556 0.43896 0.0
N401 N 0.92294 0.58733 0.5199 0.0
H402 H 0.90273 0.54551 0.49745 0.0
H403 H 0.93479 0.61651 0.41136 0.0
C404 C 0.96589 0.58556 0.37468 0.0
O405 O 0.96373 0.57695 0.42078 0.0
N406 N 0.89418 0.53888 0.31131 0.0
C407 C 0.87491 0.51279 0.30513 0.0
C408 C 0.87019 0.50764 0.25522 0.0
C409 C 0.90087 0.54942 0.26503 0.0
N410 N 0.88647 0.53061 0.22971 0.0
C411 C 0.89309 0.50771 0.4265 0.0
C412 C 0.92894 0.49807 0.37231 0.0
C413 C 0.9094 0.47727 0.40183 0.0
C414 C 0.89158 0.4824 0.42993 0.0
C415 C 0.92927 0.52263 0.36888 0.0
N416 N 0.91165 0.52753 0.39593 0.0
H417 H 0.87773 0.51043 0.44511 0.0
H418 H 0.94196 0.53642 0.3403 0.0
H419 H 0.86422 0.4987 0.33501 0.0
H420 H 0.91541 0.57047 0.25771 0.0
O421 O 0.86749 0.5412 0.39285 0.0
O422 O 0.89194 0.58083 0.3553 0.0
O423 O 0.9443 0.57947 0.34979 0.0
C424 C 0.86845 0.56241 0.37249 0.0
H425 H 0.94286 0.63054 0.50628 0.0
H426 H 0.85488 0.48862 0.2394 0.0
H427 H 0.94242 0.49462 0.34867 0.0
H428 H 0.87588 0.46662 0.45264 0.0
Co429 Co 0.45743 0.34624 0.36757 0.0
C430 C 0.44724 0.34487 0.47887 0.0
C431 C 0.41085 0.32474 0.43501 0.0
C432 C 0.40363 0.32219 0.48443 0.0
N433 N 0.43816 0.33928 0.43108 0.0
N434 N 0.42645 0.33483 0.51221 0.0
H435 H 0.46838 0.35602 0.48945 0.0
H436 H 0.39705 0.31641 0.40379 0.0
C437 C 0.42469 0.37456 0.35728 0.0
O438 O 0.42896 0.38149 0.40451 0.0
N439 N 0.47615 0.35236 0.30454 0.0
C440 C 0.50307 0.36245 0.29859 0.0
C441 C 0.50847 0.36218 0.24887 0.0
C442 C 0.4654 0.34571 0.25831 0.0
N443 N 0.4848 0.35143 0.22339 0.0
C444 C 0.50626 0.38389 0.41894 0.0
C445 C 0.51465 0.42905 0.36584 0.0
C446 C 0.53592 0.43066 0.39467 0.0
C447 C 0.53134 0.40792 0.42246 0.0
C448 C 0.49023 0.40458 0.36239 0.0
N449 N 0.48615 0.38215 0.38841 0.0
H450 H 0.50401 0.36603 0.43737 0.0
H451 H 0.47602 0.40337 0.3346 0.0
H452 H 0.51782 0.36904 0.32838 0.0
H453 H 0.4438 0.33598 0.2508 0.0
O454 O 0.47325 0.32441 0.3883 0.0
O455 O 0.43386 0.30892 0.34909 0.0
O456 O 0.43477 0.36101 0.33781 0.0
C457 C 0.45216 0.30406 0.36763 0.0
H458 H 0.38307 0.31134 0.49883 0.0
H459 H 0.52841 0.36917 0.23297 0.0
H460 H 0.51763 0.44593 0.34276 0.0
H461 H 0.54742 0.40833 0.44491 0.0
Co462 Co 0.66508 0.10998 0.37666 0.0
C463 C 0.66607 0.10141 0.48811 0.0
C464 C 0.68391 0.08279 0.44422 0.0
C465 C 0.68684 0.0786 0.49364 0.0
N466 N 0.67049 0.09668 0.44028 0.0
N467 N 0.67563 0.09024 0.5215 0.0
H468 H 0.65638 0.11287 0.49861 0.0
H469 H 0.69156 0.07654 0.41298 0.0
C470 C 0.63589 0.04937 0.36344 0.0
O471 O 0.6274 0.04648 0.40979 0.0
N472 N 0.6607 0.12359 0.31359 0.0
C473 C 0.65392 0.14299 0.30757 0.0
C474 C 0.65633 0.14983 0.25801 0.0
C475 C 0.66711 0.11879 0.26769 0.0
N476 N 0.66466 0.13467 0.23309 0.0
C477 C 0.6259 0.12004 0.42601 0.0
C478 C 0.58192 0.08453 0.36866 0.0
C479 C 0.57926 0.10291 0.39933 0.0
C480 C 0.60146 0.12054 0.42897 0.0
C481 C 0.6068 0.08517 0.3658 0.0
N482 N 0.62855 0.10265 0.39439 0.0
H483 H 0.64332 0.13525 0.4461 0.0
H484 H 0.60891 0.07326 0.33684 0.0
H485 H 0.64863 0.15229 0.33742 0.0
H486 H 0.67479 0.10512 0.26023 0.0
O487 O 0.68646 0.14707 0.39985 0.0
O488 O 0.70304 0.12394 0.36141 0.0
O489 O 0.65075 0.07304 0.3452 0.0
C490 C 0.70742 0.14671 0.38078 0.0
H491 H 0.6972 0.06837 0.50793 0.0
H492 H 0.65288 0.16524 0.24165 0.0
H493 H 0.56557 0.07123 0.34391 0.0
H494 H 0.60032 0.13538 0.45261 0.0
Co495 Co 0.8987 0.56733 0.87862 0.0
C496 C 0.90746 0.57591 0.76755 0.0
C497 C 0.94438 0.59462 0.81011 0.0
C498 C 0.95099 0.59873 0.76042 0.0
N499 N 0.91709 0.58073 0.81494 0.0
N500 N 0.92783 0.58699 0.7335 0.0
H501 H 0.88622 0.56442 0.75779 0.0
H502 H 0.95857 0.60091 0.84085 0.0
C503 C 0.93004 0.62773 0.89217 0.0
O504 O 0.92424 0.63065 0.846 0.0
N505 N 0.88099 0.55361 0.94174 0.0
C506 C 0.85503 0.53377 0.94826 0.0
C507 C 0.85108 0.52695 0.99787 0.0
C508 C 0.89252 0.55875 0.98729 0.0
N509 N 0.87462 0.54265 1.02218 0.0
C510 C 0.84922 0.55771 0.83068 0.0
C511 C 0.84159 0.59358 0.88871 0.0
C512 C 0.82037 0.5755 0.85811 0.0
C513 C 0.8245 0.55766 0.82816 0.0
C514 C 0.86559 0.59247 0.89116 0.0
N515 N 0.86951 0.57491 0.86205 0.0
H516 H 0.85106 0.54231 0.81044 0.0
H517 H 0.87966 0.60407 0.92023 0.0
H518 H 0.84036 0.52414 0.91867 0.0
H519 H 0.91385 0.57276 0.99429 0.0
O520 O 0.88288 0.53037 0.85474 0.0
O521 O 0.92262 0.55318 0.89307 0.0
O522 O 0.92147 0.60407 0.91019 0.0
C523 C 0.90414 0.53051 0.87356 0.0
H524 H 0.97141 0.60894 0.74529 0.0
H525 H 0.83257 0.51115 1.01469 0.0
H526 H 0.8388 0.60693 0.91382 0.0
H527 H 0.8083 0.54295 0.80476 0.0
Co528 Co 0.44794 0.33065 0.87102 0.0
C529 C 0.43888 0.33121 0.76009 0.0
C530 C 0.42043 0.34948 0.80325 0.0
C531 C 0.41605 0.35191 0.7536 0.0
N532 N 0.43433 0.33608 0.8077 0.0
N533 N 0.42764 0.34046 0.72627 0.0
H534 H 0.45026 0.3214 0.74995 0.0
H535 H 0.41424 0.35736 0.8342 0.0
C536 C 0.38722 0.30226 0.88633 0.0
O537 O 0.38353 0.29398 0.83982 0.0
N538 N 0.46196 0.32604 0.93363 0.0
C539 C 0.47934 0.31658 0.93907 0.0
C540 C 0.48576 0.31757 0.98855 0.0
C541 C 0.45823 0.333 0.97987 0.0
N542 N 0.4727 0.32809 1.01433 0.0
C543 C 0.45767 0.29149 0.82122 0.0
C544 C 0.4217 0.24765 0.87817 0.0
C545 C 0.44027 0.24501 0.84785 0.0
C546 C 0.45808 0.26711 0.81829 0.0
C547 C 0.4224 0.27246 0.88098 0.0
N548 N 0.44019 0.29418 0.85273 0.0
H549 H 0.47315 0.30886 0.80147 0.0
H550 H 0.41041 0.27451 0.90986 0.0
H551 H 0.48725 0.30984 0.90905 0.0
H552 H 0.44598 0.34228 0.98772 0.0
O553 O 0.48498 0.35188 0.84694 0.0
O554 O 0.46216 0.3684 0.88676 0.0
O555 O 0.41126 0.31667 0.90359 0.0
C556 C 0.48485 0.37275 0.86669 0.0
H557 H 0.40571 0.36204 0.73876 0.0
H558 H 0.49922 0.31113 1.0041 0.0
H559 H 0.40823 0.23135 0.9028 0.0
H560 H 0.47304 0.26595 0.79486 0.0
Co561 Co 0.6844 0.11956 0.88056 0.0
C562 C 0.68357 0.10987 0.76931 0.0
C563 C 0.66522 0.0735 0.81308 0.0
C564 C 0.66226 0.06643 0.76362 0.0
N565 N 0.67899 0.10072 0.8171 0.0
N566 N 0.67379 0.08922 0.73584 0.0
H567 H 0.69346 0.13096 0.7589 0.0
H568 H 0.65729 0.05966 0.84425 0.0
C569 C 0.71227 0.08685 0.89495 0.0
O570 O 0.72116 0.09246 0.84885 0.0
N571 N 0.68884 0.13791 0.94328 0.0
C572 C 0.69575 0.16406 0.94838 0.0
C573 C 0.69518 0.16945 0.99801 0.0
C574 C 0.68402 0.12761 0.98986 0.0
N575 N 0.68784 0.14658 0.02445 0.0
C576 C 0.72495 0.1681 0.83193 0.0
C577 C 0.76796 0.17497 0.8909 0.0
C578 C 0.77145 0.19629 0.86032 0.0
C579 C 0.74976 0.19253 0.82981 0.0
C580 C 0.74271 0.1513 0.89302 0.0
N581 N 0.72142 0.14782 0.86365 0.0
H582 H 0.70791 0.16655 0.81127 0.0
H583 H 0.73994 0.13718 0.92216 0.0
H584 H 0.70023 0.1781 0.91793 0.0
H585 H 0.67746 0.10662 0.99785 0.0
O586 O 0.66385 0.13613 0.85618 0.0
O587 O 0.64625 0.09656 0.89494 0.0
O588 O 0.69765 0.09615 0.91284 0.0
C589 C 0.64248 0.11519 0.8748 0.0
H590 H 0.65164 0.04594 0.74924 0.0
H591 H 0.69907 0.18872 1.01283 0.0
H592 H 0.78389 0.17746 0.91633 0.0
H593 H 0.75155 0.20883 0.80635 0.0
Co594 Co 0.44679 0.1192 0.37039 0.0
C595 C 0.44025 0.10969 0.2588 0.0
C596 C 0.42238 0.07327 0.30244 0.0
C597 C 0.41871 0.06624 0.25296 0.0
N598 N 0.43559 0.10048 0.30648 0.0
N599 N 0.42987 0.08907 0.22532 0.0
H600 H 0.45073 0.13078 0.2484 0.0
H601 H 0.41597 0.05942 0.33365 0.0
C602 C 0.38625 0.09101 0.37198 0.0
O603 O 0.38805 0.09921 0.32566 0.0
N604 N 0.45864 0.13754 0.43358 0.0
C605 C 0.47822 0.16359 0.43885 0.0
C606 C 0.48322 0.16925 0.48853 0.0
C607 C 0.45206 0.12751 0.48024 0.0
N608 N 0.46682 0.14664 0.51481 0.0
C609 C 0.45953 0.16858 0.31862 0.0
C610 C 0.42347 0.17824 0.37202 0.0
C611 C 0.44288 0.1989 0.34214 0.0
C612 C 0.46089 0.19381 0.31458 0.0
C613 C 0.42333 0.15381 0.37614 0.0
N614 N 0.44093 0.14882 0.34927 0.0
H615 H 0.475 0.16588 0.30041 0.0
H616 H 0.41075 0.14022 0.40502 0.0
H617 H 0.48889 0.17731 0.40851 0.0
H618 H 0.4373 0.10662 0.4884 0.0
O619 O 0.48465 0.13424 0.35192 0.0
O620 O 0.45971 0.09486 0.38999 0.0
O621 O 0.40801 0.09713 0.39629 0.0
C622 C 0.48329 0.11287 0.37247 0.0
H623 H 0.40896 0.04577 0.23851 0.0
H624 H 0.49879 0.18833 0.50376 0.0
H625 H 0.40991 0.18173 0.3954 0.0
H626 H 0.47658 0.20955 0.2918 0.0
Co627 Co 0.8916 0.32855 0.38277 0.0
C628 C 0.90099 0.32933 0.27134 0.0
C629 C 0.93748 0.34483 0.31483 0.0
C630 C 0.94436 0.34688 0.26528 0.0
N631 N 0.91024 0.33325 0.31909 0.0
N632 N 0.9215 0.3372 0.23778 0.0
H633 H 0.87997 0.32117 0.26095 0.0
H634 H 0.95149 0.35163 0.34588 0.0
C635 C 0.92203 0.29823 0.39699 0.0
O636 O 0.91588 0.28913 0.3511 0.0
N637 N 0.87338 0.32468 0.44562 0.0
C638 C 0.84728 0.31856 0.45054 0.0
C639 C 0.84196 0.31974 0.50005 0.0
C640 C 0.88369 0.32952 0.49228 0.0
N641 N 0.86481 0.3267 0.52625 0.0
C642 C 0.84215 0.28995 0.33347 0.0
C643 C 0.83334 0.24608 0.39131 0.0
C644 C 0.81253 0.24352 0.35999 0.0
C645 C 0.8172 0.26569 0.33027 0.0
C646 C 0.85752 0.27075 0.39441 0.0
N647 N 0.86204 0.2924 0.36536 0.0
H648 H 0.84449 0.30737 0.31327 0.0
H649 H 0.87131 0.27279 0.42379 0.0
H650 H 0.83326 0.31422 0.42003 0.0
H651 H 0.90471 0.33601 0.50093 0.0
O652 O 0.87659 0.35062 0.35915 0.0
O653 O 0.91615 0.36612 0.39781 0.0
O654 O 0.91373 0.31368 0.4147 0.0
C655 C 0.89814 0.37114 0.37835 0.0
H656 H 0.96479 0.35551 0.2505 0.0
H657 H 0.8228 0.3161 0.5156 0.0
H658 H 0.83016 0.22977 0.4162 0.0
H659 H 0.80136 0.26462 0.30621 0.0
Co660 Co 0.68489 0.56202 0.37726 0.0
C661 C 0.68137 0.56929 0.26624 0.0
C662 C 0.66824 0.5918 0.31111 0.0
C663 C 0.66431 0.59548 0.26194 0.0
N664 N 0.67949 0.57587 0.31422 0.0
N665 N 0.67233 0.5812 0.23326 0.0
H666 H 0.688 0.55525 0.25563 0.0
H667 H 0.66273 0.59984 0.34276 0.0
C668 C 0.71502 0.62247 0.39227 0.0
O669 O 0.72402 0.62575 0.34623 0.0
N670 N 0.68941 0.54783 0.43963 0.0
C671 C 0.69604 0.52826 0.44418 0.0
C672 C 0.69528 0.52192 0.4937 0.0
C673 C 0.6847 0.55322 0.48646 0.0
N674 N 0.6881 0.53752 0.52023 0.0
C675 C 0.72389 0.55239 0.32545 0.0
C676 C 0.76814 0.58746 0.38275 0.0
C677 C 0.77093 0.56992 0.35002 0.0
C678 C 0.74854 0.55241 0.32061 0.0
C679 C 0.74309 0.58627 0.38746 0.0
N680 N 0.72126 0.56918 0.35863 0.0
H681 H 0.70638 0.53728 0.30546 0.0
H682 H 0.74097 0.59747 0.41775 0.0
H683 H 0.70049 0.5188 0.41344 0.0
H684 H 0.67791 0.56745 0.4954 0.0
O685 O 0.66294 0.52509 0.35339 0.0
O686 O 0.64717 0.54857 0.39321 0.0
O687 O 0.69965 0.5987 0.40961 0.0
C688 C 0.64228 0.52581 0.37309 0.0
H689 H 0.6559 0.60773 0.24882 0.0
H690 H 0.69939 0.50672 0.50903 0.0
H691 H 0.7846 0.60051 0.40753 0.0
H692 H 0.74975 0.53809 0.29562 0.0
Co693 Co 0.45742 0.11353 0.86665 0.0
C694 C 0.4486 0.10406 0.97798 0.0
C695 C 0.41193 0.0852 0.93469 0.0
C696 C 0.40505 0.08026 0.98413 0.0
N697 N 0.43921 0.09975 0.9304 0.0
N698 N 0.42803 0.09205 1.01154 0.0
H699 H 0.46976 0.11571 0.98822 0.0
H700 H 0.39789 0.0789 0.9037 0.0
C701 C 0.42847 0.0531 0.8543 0.0
O702 O 0.43498 0.05104 0.90042 0.0
N703 N 0.4747 0.12742 0.80333 0.0
C704 C 0.50024 0.14801 0.79629 0.0
C705 C 0.50375 0.15443 0.74648 0.0
C706 C 0.46298 0.12143 0.75794 0.0
N707 N 0.48035 0.13771 0.72262 0.0
C708 C 0.50739 0.12503 0.91513 0.0
C709 C 0.51685 0.09036 0.85713 0.0
C710 C 0.53741 0.1084 0.88893 0.0
C711 C 0.53245 0.12578 0.91857 0.0
C712 C 0.49251 0.09075 0.85387 0.0
N713 N 0.4876 0.10754 0.88324 0.0
H714 H 0.50473 0.13988 0.93557 0.0
H715 H 0.47882 0.07906 0.82437 0.0
H716 H 0.51489 0.15836 0.82563 0.0
H717 H 0.44184 0.1066 0.75133 0.0
O718 O 0.47217 0.15047 0.88991 0.0
O719 O 0.43236 0.12634 0.85232 0.0
O720 O 0.43573 0.07639 0.83567 0.0
C721 C 0.45041 0.14937 0.8714 0.0
H722 H 0.38455 0.06937 0.99879 0.0
H723 H 0.52184 0.1706 0.72921 0.0
H724 H 0.52026 0.07734 0.83226 0.0
H725 H 0.5481 0.14041 0.94298 0.0
Co726 Co 0.8999 0.34569 0.88039 0.0
C727 C 0.90808 0.34275 0.98972 0.0
C728 C 0.94095 0.345 0.94625 0.0
C729 C 0.946 0.34313 0.99577 0.0
N730 N 0.91725 0.34486 0.94229 0.0
N731 N 0.92528 0.34149 0.02352 0.0
H732 H 0.88899 0.34166 0.99901 0.0
H733 H 0.95366 0.34609 0.91528 0.0
C734 C 0.94495 0.38276 0.81157 0.0
O735 O 0.92967 0.39322 0.79922 0.0
N736 N 0.88178 0.3455 0.81826 0.0
C737 C 0.85815 0.34564 0.81359 0.0
C738 C 0.85098 0.34298 0.76432 0.0
C739 C 0.88771 0.34114 0.77138 0.0
N740 N 0.86975 0.34053 0.73746 0.0
C741 C 0.88056 0.38156 0.91089 0.0
C742 C 0.92979 0.42901 0.9033 0.0
C743 C 0.90576 0.43045 0.90437 0.0
C744 C 0.8811 0.40633 0.91179 0.0
C745 C 0.9282 0.40363 0.90299 0.0
N746 N 0.9035 0.3804 0.90044 0.0
H747 H 0.8614 0.36325 0.91655 0.0
H748 H 0.94682 0.40284 0.90157 0.0
H749 H 0.8458 0.34606 0.84365 0.0
H750 H 0.90491 0.33861 0.76234 0.0
O751 O 0.86456 0.32149 0.90845 0.0
O752 O 0.88975 0.30835 0.86681 0.0
O753 O 0.93674 0.36419 0.84497 0.0
C754 C 0.86675 0.3018 0.88862 0.0
H755 H 0.96386 0.34313 1.00987 0.0
H756 H 0.83271 0.34198 0.74978 0.0
H757 H 0.94953 0.4471 0.89998 0.0
H758 H 0.86221 0.40649 0.91675 0.0
Co759 Co 0.66977 0.55335 0.87529 0.0
C760 C 0.66995 0.56232 0.98484 0.0
C761 C 0.67115 0.59488 0.94226 0.0
C762 C 0.67093 0.60042 0.99215 0.0
N763 N 0.67029 0.57092 0.93759 0.0
N764 N 0.67021 0.58001 1.01899 0.0
H765 H 0.66905 0.54336 0.99398 0.0
H766 H 0.67195 0.60755 0.91156 0.0
C767 C 0.63229 0.56169 0.80786 0.0
O768 O 0.62202 0.53626 0.79415 0.0
N769 N 0.67021 0.53593 0.81267 0.0
C770 C 0.67084 0.51265 0.80778 0.0
C771 C 0.67345 0.50824 0.75846 0.0
C772 C 0.67408 0.54609 0.76575 0.0
N773 N 0.67511 0.52904 0.73169 0.0
C774 C 0.63401 0.49806 0.90423 0.0
C775 C 0.58619 0.49953 0.89777 0.0
C776 C 0.58493 0.47424 0.89796 0.0
C777 C 0.60924 0.47382 0.90481 0.0
C778 C 0.61158 0.52332 0.89778 0.0
N779 N 0.63499 0.52206 0.89466 0.0
H780 H 0.65244 0.4973 0.9096 0.0
H781 H 0.61224 0.54261 0.89718 0.0
H782 H 0.67103 0.5002 0.83774 0.0
H783 H 0.676 0.56549 0.75677 0.0
O784 O 0.69409 0.54227 0.90303 0.0
O785 O 0.70725 0.5807 0.86233 0.0
O786 O 0.65107 0.57173 0.841 0.0
C787 C 0.71386 0.56427 0.8838 0.0
H788 H 0.67156 0.6183 1.00757 0.0
H789 H 0.67502 0.49135 0.74381 0.0
H790 H 0.56794 0.50104 0.89496 0.0
H791 H 0.60922 0.45489 0.90913 0.0
Co792 Co 0.57375 0.88421 0.71466 0.0
C793 C 0.57988 0.89408 0.82673 0.0
C794 C 0.59959 0.9301 0.78216 0.0
C795 C 0.60295 0.93753 0.83139 0.0
N796 N 0.58545 0.90287 0.77875 0.0
N797 N 0.59068 0.91497 0.85975 0.0
H798 H 0.56824 0.8731 0.83763 0.0
H799 H 0.60666 0.94373 0.7506 0.0
C800 C 0.6343 0.91167 0.71174 0.0
O801 O 0.63267 0.90309 0.75775 0.0
N802 N 0.5615 0.86618 0.6511 0.0
C803 C 0.54214 0.84008 0.64543 0.0
C804 C 0.53637 0.83494 0.59576 0.0
C805 C 0.56715 0.87674 0.60467 0.0
N806 N 0.55204 0.85792 0.56978 0.0
C807 C 0.56121 0.83497 0.76697 0.0
C808 C 0.59635 0.82443 0.71246 0.0
C809 C 0.57741 0.8042 0.74368 0.0
C810 C 0.55988 0.80978 0.77176 0.0
C811 C 0.5965 0.84889 0.70772 0.0
N812 N 0.57937 0.85431 0.73518 0.0
H813 H 0.54602 0.83794 0.78564 0.0
H814 H 0.60877 0.86223 0.67825 0.0
H815 H 0.53206 0.82599 0.67559 0.0
H816 H 0.58144 0.89782 0.597 0.0
O817 O 0.53599 0.86946 0.73383 0.0
O818 O 0.56104 0.90889 0.69604 0.0
O819 O 0.61245 0.90599 0.68811 0.0
C820 C 0.5375 0.89103 0.71391 0.0
H821 H 0.61316 0.95816 0.84508 0.0
H822 H 0.52075 0.81591 0.58054 0.0
H823 H 0.6095 0.82058 0.68864 0.0
H824 H 0.54451 0.79439 0.79556 0.0
Co825 Co 0.12675 0.68464 0.70579 0.0
C826 C 0.11774 0.68144 0.81785 0.0
C827 C 0.08119 0.66615 0.77454 0.0
C828 C 0.07431 0.66361 0.82408 0.0
N829 N 0.10844 0.6778 0.77022 0.0
N830 N 0.09721 0.67319 0.85139 0.0
H831 H 0.13882 0.6901 0.82825 0.0
H832 H 0.06722 0.66005 0.74346 0.0
C833 C 0.10057 0.7188 0.70548 0.0
O834 O 0.10987 0.72557 0.75116 0.0
N835 N 0.14458 0.69051 0.64198 0.0
C836 C 0.17046 0.69618 0.63591 0.0
C837 C 0.17604 0.69773 0.58601 0.0
C838 C 0.13455 0.68838 0.59555 0.0
N839 N 0.15356 0.6929 0.56043 0.0
C840 C 0.17684 0.72018 0.75725 0.0
C841 C 0.18785 0.76606 0.70369 0.0
C842 C 0.20815 0.76684 0.73419 0.0
C843 C 0.20241 0.74364 0.7617 0.0
C844 C 0.16305 0.74217 0.69925 0.0
N845 N 0.15735 0.71956 0.72639 0.0
H846 H 0.17363 0.70191 0.77544 0.0
H847 H 0.14963 0.74145 0.67018 0.0
H848 H 0.18418 0.69839 0.66582 0.0
H849 H 0.11383 0.68338 0.58778 0.0
O850 O 0.14093 0.66103 0.7235 0.0
O851 O 0.1013 0.64769 0.68655 0.0
O852 O 0.10542 0.70234 0.68092 0.0
C853 C 0.11903 0.64148 0.70335 0.0
H854 H 0.05392 0.65509 0.839 0.0
H855 H 0.19498 0.70108 0.56991 0.0
H856 H 0.19184 0.78317 0.68027 0.0
H857 H 0.21787 0.7433 0.78488 0.0
Co858 Co 0.32652 0.44303 0.70828 0.0
C859 C 0.32766 0.4343 0.81972 0.0
C860 C 0.34426 0.4147 0.77518 0.0
C861 C 0.34745 0.41052 0.82446 0.0
N862 N 0.33146 0.4292 0.77172 0.0
N863 N 0.33701 0.42275 0.8528 0.0
H864 H 0.3187 0.44639 0.8305 0.0
H865 H 0.35144 0.40812 0.74371 0.0
C866 C 0.29655 0.38236 0.69379 0.0
O867 O 0.28785 0.379 0.74005 0.0
N868 N 0.32261 0.45713 0.64539 0.0
C869 C 0.31668 0.47713 0.63955 0.0
C870 C 0.31922 0.48402 0.59 0.0
C871 C 0.32862 0.45201 0.5994 0.0
N872 N 0.32675 0.46828 0.56491 0.0
C873 C 0.28811 0.45423 0.75785 0.0
C874 C 0.24367 0.41912 0.70101 0.0
C875 C 0.24143 0.43771 0.73182 0.0
C876 C 0.26389 0.45517 0.76114 0.0
C877 C 0.26833 0.41932 0.69781 0.0
N878 N 0.2903 0.43659 0.72616 0.0
H879 H 0.30572 0.4692 0.77788 0.0
H880 H 0.27008 0.40717 0.66891 0.0
H881 H 0.31191 0.48678 0.66951 0.0
H882 H 0.33562 0.4378 0.59178 0.0
O883 O 0.34888 0.48003 0.7317 0.0
O884 O 0.36418 0.45589 0.69284 0.0
O885 O 0.31149 0.40618 0.6763 0.0
C886 C 0.36939 0.47887 0.71238 0.0
H887 H 0.35757 0.39997 0.83825 0.0
H888 H 0.31639 0.49986 0.57374 0.0
H889 H 0.22713 0.40592 0.67651 0.0
H890 H 0.26309 0.47015 0.78491 0.0
Co891 Co 0.55962 0.89509 0.21912 0.0
C892 C 0.56896 0.90377 0.10753 0.0
C893 C 0.60521 0.9243 0.15165 0.0
C894 C 0.61244 0.92851 0.10231 0.0
N895 N 0.57795 0.90921 0.15542 0.0
N896 N 0.58974 0.9157 0.07425 0.0
H897 H 0.54796 0.89114 0.09695 0.0
H898 H 0.61905 0.9312 0.18297 0.0
C899 C 0.58905 0.95556 0.23343 0.0
O900 O 0.58253 0.95824 0.18765 0.0
N901 N 0.54231 0.88083 0.28246 0.0
C902 C 0.51662 0.86052 0.28943 0.0
C903 C 0.51319 0.85358 0.33905 0.0
C904 C 0.55418 0.88611 0.32777 0.0
N905 N 0.53678 0.86966 0.36298 0.0
C906 C 0.50986 0.88427 0.17022 0.0
C907 C 0.50031 0.91871 0.22871 0.0
C908 C 0.47985 0.90103 0.19626 0.0
C909 C 0.48491 0.88378 0.1664 0.0
C910 C 0.52456 0.91808 0.23232 0.0
N911 N 0.5295 0.90136 0.20276 0.0
H912 H 0.5125 0.8695 0.1495 0.0
H913 H 0.53821 0.92958 0.26203 0.0
H914 H 0.5018 0.85068 0.26012 0.0
H915 H 0.57545 0.90052 0.33431 0.0
O916 O 0.54491 0.85835 0.1947 0.0
O917 O 0.58455 0.882 0.23295 0.0
O918 O 0.58143 0.932 0.25113 0.0
C919 C 0.56662 0.85919 0.21296 0.0
H920 H 0.63307 0.93948 0.08827 0.0
H921 H 0.49499 0.83744 0.3561 0.0
H922 H 0.49687 0.93165 0.25374 0.0
H923 H 0.4694 0.86942 0.14146 0.0
Co924 Co 0.1162 0.66416 0.20891 0.0
C925 C 0.10933 0.66738 0.09924 0.0
C926 C 0.07596 0.66491 0.14142 0.0
C927 C 0.07143 0.667 0.09177 0.0
N928 N 0.09963 0.66504 0.14626 0.0
N929 N 0.09247 0.66879 0.06491 0.0
H930 H 0.12855 0.6686 0.09062 0.0
H931 H 0.06293 0.66375 0.17187 0.0
C932 C 0.07065 0.62825 0.27746 0.0
O933 O 0.08585 0.61807 0.29202 0.0
N934 N 0.13329 0.66437 0.27201 0.0
C935 C 0.15628 0.66321 0.2793 0.0
C936 C 0.16394 0.66888 0.32833 0.0
C937 C 0.12792 0.67166 0.31678 0.0
N938 N 0.14603 0.67406 0.35177 0.0
C939 C 0.1355 0.62818 0.17942 0.0
C940 C 0.0863 0.58063 0.18668 0.0
C941 C 0.11034 0.57924 0.18477 0.0
C942 C 0.13498 0.60344 0.17777 0.0
C943 C 0.08784 0.60599 0.18776 0.0
N944 N 0.11253 0.62928 0.18996 0.0
H945 H 0.15471 0.64653 0.17432 0.0
H946 H 0.06919 0.6067 0.18939 0.0
H947 H 0.16798 0.66026 0.25098 0.0
H948 H 0.11175 0.6762 0.32315 0.0
O949 O 0.15201 0.68807 0.18227 0.0
O950 O 0.12657 0.70163 0.22173 0.0
O951 O 0.07906 0.64613 0.24282 0.0
C952 C 0.14987 0.7079 0.20148 0.0
H953 H 0.05374 0.66705 0.07692 0.0
H954 H 0.18169 0.66975 0.34526 0.0
H955 H 0.0666 0.56248 0.18982 0.0
H956 H 0.15388 0.60335 0.17248 0.0
Co957 Co 0.34877 0.45342 0.21234 0.0
C958 C 0.34797 0.44391 0.1007 0.0
C959 C 0.33361 0.40803 0.145 0.0
C960 C 0.33026 0.4007 0.09572 0.0
N961 N 0.34529 0.43517 0.14867 0.0
N962 N 0.33932 0.42318 0.06746 0.0
H963 H 0.35524 0.46465 0.09002 0.0
H964 H 0.32698 0.39427 0.17636 0.0
C965 C 0.37876 0.42329 0.22907 0.0
O966 O 0.3895 0.4313 0.18458 0.0
N967 N 0.35102 0.47099 0.27516 0.0
C968 C 0.35666 0.49679 0.28004 0.0
C969 C 0.35544 0.50201 0.32955 0.0
C970 C 0.34636 0.46072 0.32177 0.0
N971 N 0.34906 0.47941 0.3561 0.0
C972 C 0.39211 0.50151 0.16408 0.0
C973 C 0.43109 0.50955 0.23457 0.0
C974 C 0.43735 0.52946 0.19864 0.0
C975 C 0.41778 0.52518 0.16242 0.0
C976 C 0.40554 0.48633 0.23473 0.0
N977 N 0.38628 0.48215 0.1996 0.0
H978 H 0.3764 0.49987 0.13934 0.0
H979 H 0.40069 0.47294 0.2662 0.0
H980 H 0.36097 0.51074 0.24948 0.0
H981 H 0.34101 0.44006 0.3301 0.0
O982 O 0.32837 0.46976 0.18575 0.0
O983 O 0.31043 0.42974 0.22307 0.0
O984 O 0.36193 0.43016 0.24583 0.0
C985 C 0.30674 0.44833 0.20258 0.0
H986 H 0.32076 0.38011 0.08196 0.0
H987 H 0.35835 0.52095 0.34435 0.0
H988 H 0.44536 0.5126 0.26412 0.0
H989 H 0.42165 0.54073 0.13515 0.0
Co990 Co 0.10893 0.45445 0.70583 0.0
C991 C 0.10245 0.44437 0.59394 0.0
C992 C 0.08401 0.40835 0.63868 0.0
C993 C 0.0804 0.40088 0.58946 0.0
N994 N 0.09754 0.43559 0.64195 0.0
N995 N 0.09187 0.42343 0.56105 0.0
H996 H 0.11334 0.46537 0.58292 0.0
H997 H 0.07744 0.39476 0.67029 0.0
C998 C 0.04834 0.42619 0.70844 0.0
O999 O 0.04979 0.43447 0.66225 0.0
N1000 N 0.12079 0.47266 0.7692 0.0
C1001 C 0.14011 0.49875 0.77505 0.0
C1002 C 0.14527 0.50395 0.82488 0.0
C1003 C 0.11452 0.46217 0.81559 0.0
N1004 N 0.12922 0.48101 0.85066 0.0
C1005 C 0.12145 0.50355 0.65344 0.0
C1006 C 0.08601 0.51391 0.70738 0.0
C1007 C 0.1054 0.53439 0.67708 0.0
C1008 C 0.123 0.52886 0.64913 0.0
C1009 C 0.08563 0.48932 0.71166 0.0
N1010 N 0.10302 0.48406 0.68469 0.0
H1011 H 0.1367 0.50062 0.63497 0.0
H1012 H 0.07305 0.4758 0.74066 0.0
H1013 H 0.15054 0.5128 0.74499 0.0
H1014 H 0.10004 0.44112 0.82315 0.0
O1015 O 0.1468 0.46952 0.68714 0.0
O1016 O 0.12197 0.43014 0.72522 0.0
O1017 O 0.07027 0.43238 0.73218 0.0
C1018 C 0.14551 0.44816 0.70756 0.0
H1019 H 0.0705 0.38025 0.57576 0.0
H1020 H 0.16071 0.52299 0.84044 0.0
H1021 H 0.07273 0.51768 0.73099 0.0
H1022 H 0.13863 0.54438 0.62593 0.0
Co1023 Co 0.5582 0.65463 0.71704 0.0
C1024 C 0.56708 0.65819 0.60483 0.0
C1025 C 0.60371 0.67391 0.64802 0.0
C1026 C 0.61057 0.6767 0.59846 0.0
N1027 N 0.57644 0.66184 0.65244 0.0
N1028 N 0.58763 0.66686 0.57121 0.0
H1029 H 0.54596 0.64923 0.59452 0.0
H1030 H 0.61772 0.68014 0.67905 0.0
C1031 C 0.58517 0.6212 0.71624 0.0
O1032 O 0.57558 0.61437 0.67075 0.0
N1033 N 0.54043 0.64841 0.781 0.0
C1034 C 0.51443 0.64234 0.78717 0.0
C1035 C 0.50888 0.64078 0.83707 0.0
C1036 C 0.55056 0.65078 0.82742 0.0
N1037 N 0.5315 0.64602 0.8626 0.0
C1038 C 0.50811 0.61892 0.66607 0.0
C1039 C 0.49735 0.57321 0.71994 0.0
C1040 C 0.47673 0.57251 0.69049 0.0
C1041 C 0.48239 0.59558 0.66264 0.0
C1042 C 0.52235 0.59699 0.72337 0.0
N1043 N 0.52783 0.61958 0.69636 0.0
H1044 H 0.51123 0.63714 0.6478 0.0
H1045 H 0.53607 0.59771 0.75182 0.0
H1046 H 0.5006 0.63993 0.75733 0.0
H1047 H 0.5714 0.6562 0.83513 0.0
O1048 O 0.5435 0.67783 0.69978 0.0
O1049 O 0.5833 0.69169 0.73639 0.0
O1050 O 0.58007 0.63733 0.74135 0.0
C1051 C 0.56528 0.69757 0.71982 0.0
H1052 H 0.63098 0.68558 0.58348 0.0
H1053 H 0.48986 0.63718 0.85319 0.0
H1054 H 0.4935 0.55617 0.74344 0.0
H1055 H 0.46675 0.59596 0.64007 0.0
Co1056 Co 0.35736 0.89788 0.71569 0.0
C1057 C 0.35603 0.90597 0.60392 0.0
C1058 C 0.33824 0.92456 0.64811 0.0
C1059 C 0.3352 0.92878 0.59883 0.0
N1060 N 0.35166 0.91066 0.65181 0.0
N1061 N 0.34638 0.91719 0.57078 0.0
H1062 H 0.36582 0.89462 0.59322 0.0
H1063 H 0.33074 0.93088 0.67947 0.0
C1064 C 0.38689 0.95865 0.72677 0.0
O1065 O 0.39533 0.96129 0.68043 0.0
N1066 N 0.36193 0.88507 0.77936 0.0
C1067 C 0.36806 0.86534 0.78712 0.0
C1068 C 0.36514 0.85912 0.83707 0.0
C1069 C 0.3555 0.89075 0.82447 0.0
N1070 N 0.35728 0.87511 0.86032 0.0
C1071 C 0.39549 0.88636 0.66636 0.0
C1072 C 0.44029 0.922 0.72184 0.0
C1073 C 0.44223 0.90293 0.69188 0.0
C1074 C 0.41961 0.88526 0.66314 0.0
C1075 C 0.4157 0.922 0.72492 0.0
N1076 N 0.39353 0.90438 0.69736 0.0
H1077 H 0.37776 0.87122 0.64684 0.0
H1078 H 0.41415 0.93461 0.75313 0.0
H1079 H 0.37296 0.85524 0.75818 0.0
H1080 H 0.34796 0.90466 0.8304 0.0
O1081 O 0.33531 0.86053 0.69414 0.0
O1082 O 0.31966 0.88468 0.73179 0.0
O1083 O 0.37225 0.93513 0.74562 0.0
C1084 C 0.31473 0.86156 0.71336 0.0
H1085 H 0.32487 0.93907 0.58472 0.0
H1086 H 0.36761 0.84338 0.85476 0.0
H1087 H 0.457 0.93544 0.74579 0.0
H1088 H 0.42019 0.86998 0.63991 0.0
Co1089 Co 0.11993 0.44348 0.20155 0.0
C1090 C 0.11126 0.43459 0.31303 0.0
C1091 C 0.07467 0.41433 0.26976 0.0
C1092 C 0.06779 0.41006 0.31927 0.0
N1093 N 0.10192 0.42927 0.26539 0.0
N1094 N 0.09072 0.42273 0.34675 0.0
H1095 H 0.13236 0.44708 0.32315 0.0
H1096 H 0.06061 0.40754 0.23877 0.0
C1097 C 0.09042 0.3831 0.18731 0.0
O1098 O 0.09738 0.38063 0.23286 0.0
N1099 N 0.13707 0.45794 0.13821 0.0
C1100 C 0.1627 0.47841 0.13145 0.0
C1101 C 0.16619 0.48547 0.08192 0.0
C1102 C 0.12526 0.45268 0.09287 0.0
N1103 N 0.14267 0.46931 0.05788 0.0
C1104 C 0.17006 0.45434 0.24847 0.0
C1105 C 0.17954 0.42087 0.18705 0.0
C1106 C 0.20045 0.43894 0.21831 0.0
C1107 C 0.19541 0.4556 0.24984 0.0
C1108 C 0.15486 0.42071 0.18592 0.0
N1109 N 0.15004 0.43708 0.21669 0.0
H1110 H 0.16743 0.46883 0.27017 0.0
H1111 H 0.14083 0.40908 0.15679 0.0
H1112 H 0.17746 0.48825 0.16082 0.0
H1113 H 0.10405 0.43812 0.08614 0.0
O1114 O 0.13501 0.48009 0.22645 0.0
O1115 O 0.09514 0.45685 0.1887 0.0
O1116 O 0.09782 0.4066 0.16947 0.0
C1117 C 0.11337 0.47954 0.20866 0.0
H1118 H 0.04728 0.39917 0.33385 0.0
H1119 H 0.18436 0.5017 0.065 0.0
H1120 H 0.18288 0.40828 0.16096 0.0
H1121 H 0.21122 0.47013 0.27412 0.0
Co1122 Co 0.56901 0.67676 0.21363 0.0
C1123 C 0.5759 0.67364 0.32337 0.0
C1124 C 0.60984 0.67728 0.28145 0.0
C1125 C 0.61432 0.67514 0.33111 0.0
N1126 N 0.58584 0.67644 0.27642 0.0
N1127 N 0.59292 0.6726 0.3578 0.0
H1128 H 0.55637 0.67175 0.33188 0.0
H1129 H 0.62313 0.67889 0.25114 0.0
C1130 C 0.61463 0.7123 0.14414 0.0
O1131 O 0.59941 0.72224 0.12848 0.0
N1132 N 0.55172 0.676 0.15054 0.0
C1133 C 0.5287 0.67706 0.14303 0.0
C1134 C 0.521 0.67107 0.09406 0.0
C1135 C 0.55709 0.66847 0.10602 0.0
N1136 N 0.53894 0.66582 0.07092 0.0
C1137 C 0.54904 0.71216 0.24298 0.0
C1138 C 0.59737 0.76035 0.23291 0.0
C1139 C 0.57298 0.76106 0.23589 0.0
C1140 C 0.54883 0.73656 0.24416 0.0
C1141 C 0.59658 0.73531 0.23231 0.0
N1142 N 0.57224 0.7116 0.23177 0.0
H1143 H 0.53012 0.6936 0.24883 0.0
H1144 H 0.61551 0.73518 0.22997 0.0
H1145 H 0.51706 0.68023 0.1712 0.0
H1146 H 0.57332 0.66399 0.09991 0.0
O1147 O 0.53341 0.65269 0.24118 0.0
O1148 O 0.55881 0.63924 0.20133 0.0
O1149 O 0.60618 0.69482 0.17949 0.0
C1150 C 0.53568 0.63284 0.22245 0.0
H1151 H 0.63221 0.67553 0.34611 0.0
H1152 H 0.50323 0.67007 0.07694 0.0
H1153 H 0.61676 0.77879 0.22874 0.0
H1154 H 0.52972 0.73612 0.25015 0.0
Co1155 Co 0.33223 0.88974 0.21078 0.0
C1156 C 0.33593 0.89859 0.32295 0.0
C1157 C 0.35398 0.93514 0.27968 0.0
C1158 C 0.35811 0.94202 0.32917 0.0
N1159 N 0.33973 0.90795 0.27534 0.0
N1160 N 0.34676 0.91913 0.35665 0.0
H1161 H 0.32567 0.87745 0.33309 0.0
H1162 H 0.36126 0.94909 0.24861 0.0
C1163 C 0.30179 0.91983 0.20908 0.0
O1164 O 0.2949 0.91117 0.25507 0.0
N1165 N 0.32598 0.87197 0.1469 0.0
C1166 C 0.31773 0.84551 0.14111 0.0
C1167 C 0.31858 0.84033 0.09158 0.0
C1168 C 0.33204 0.88271 0.10065 0.0
N1169 N 0.32759 0.86365 0.06575 0.0
C1170 C 0.29268 0.84078 0.26094 0.0
C1171 C 0.24885 0.83375 0.20423 0.0
C1172 C 0.24578 0.81244 0.23433 0.0
C1173 C 0.26792 0.81624 0.26366 0.0
C1174 C 0.27399 0.85741 0.20139 0.0
N1175 N 0.29567 0.86111 0.22984 0.0
H1176 H 0.31008 0.84234 0.28031 0.0
H1177 H 0.27639 0.87139 0.17218 0.0
H1178 H 0.31258 0.83112 0.17116 0.0
H1179 H 0.34025 0.90406 0.09321 0.0
O1180 O 0.35336 0.87287 0.22995 0.0
O1181 O 0.37018 0.91291 0.19336 0.0
O1182 O 0.31732 0.91349 0.18477 0.0
C1183 C 0.37437 0.89401 0.21103 0.0
H1184 H 0.36926 0.96245 0.34371 0.0
H1185 H 0.31416 0.82094 0.0765 0.0
H1186 H 0.23266 0.83123 0.17947 0.0
H1187 H 0.2665 0.79992 0.28656 0.0
C1188 C 0.33697 0.27881 0.90303 0.0
C1189 C 0.36378 0.29167 0.9211 0.0
H1190 H 0.29451 0.25717 0.9208 0.0
C1191 C 0.36803 0.29321 0.97296 0.0
H1192 H 0.333 0.27735 0.86335 0.0
C1193 C 0.34598 0.28139 1.0059 0.0
C1194 C 0.31918 0.2681 0.98781 0.0
H1195 H 0.38843 0.30291 0.98821 0.0
H1196 H 0.34997 0.28244 0.04554 0.0
C1197 C 0.31491 0.26732 0.93603 0.0
C1198 C 0.73491 0.05911 0.90866 0.0
C1199 C 0.72221 0.07288 0.92836 0.0
H1200 H 0.75589 0.03737 0.92375 0.0
C1201 C 0.72025 0.07427 0.98046 0.0
H1202 H 0.73667 0.05758 0.86875 0.0
C1203 C 0.73153 0.0629 1.01208 0.0
C1204 C 0.74468 0.04957 0.99235 0.0
H1205 H 0.71066 0.0848 0.99692 0.0
H1206 H 0.73018 0.06482 0.05199 0.0
C1207 C 0.74585 0.04743 0.94027 0.0
C1208 C 0.94085 0.64792 0.97788 0.0
C1209 C 0.9428 0.65149 0.92585 0.0
H1210 H 0.94869 0.66684 0.04967 0.0
C1211 C 0.95579 0.67794 0.90652 0.0
H1212 H 0.93086 0.6278 0.99404 0.0
C1213 C 0.96622 0.70031 0.93849 0.0
C1214 C 0.96355 0.69671 0.99048 0.0
H1215 H 0.95766 0.68137 0.86666 0.0
H1216 H 0.97578 0.72042 0.92232 0.0
C1217 C 0.95094 0.67028 1.00983 0.0
C1218 C 0.26507 0.30995 0.64674 0.0
C1219 C 0.2667 0.31367 0.59474 0.0
H1220 H 0.27295 0.32866 0.71881 0.0
C1221 C 0.27897 0.34017 0.57576 0.0
H1222 H 0.2556 0.28977 0.66262 0.0
C1223 C 0.28915 0.36244 0.60797 0.0
C1224 C 0.28693 0.35871 0.65996 0.0
H1225 H 0.28059 0.34373 0.53593 0.0
H1226 H 0.29824 0.38257 0.592 0.0
C1227 C 0.27489 0.33222 0.67899 0.0
C1228 C 0.68303 0.92335 0.70783 0.0
C1229 C 0.66104 0.9243 0.68573 0.0
H1230 H 0.72426 0.93231 0.7013 0.0
C1231 C 0.66483 0.93647 0.63851 0.0
H1232 H 0.68095 0.91413 0.74405 0.0
C1233 C 0.69007 0.94729 0.614 0.0
C1234 C 0.71176 0.94565 0.63586 0.0
H1235 H 0.64831 0.93754 0.62046 0.0
H1236 H 0.69241 0.9564 0.57759 0.0
C1237 C 0.70792 0.93368 0.68312 0.0
C1238 C 0.0905 0.75681 0.70316 0.0
C1239 C 0.08821 0.73343 0.68076 0.0
H1240 H 0.08283 0.78987 0.69783 0.0
C1241 C 0.07496 0.72506 0.63442 0.0
H1242 H 0.10062 0.76395 0.73873 0.0
C1243 C 0.06437 0.73992 0.61104 0.0
C1244 C 0.06734 0.76367 0.63316 0.0
H1245 H 0.07286 0.70713 0.61619 0.0
H1246 H 0.0544 0.73316 0.57526 0.0
C1247 C 0.08041 0.77182 0.67953 0.0
C1248 C 0.67066 0.74138 0.04754 0.0
C1249 C 0.69255 0.7414 0.07223 0.0
H1250 H 0.62935 0.73244 0.0509 0.0
C1251 C 0.68835 0.73074 0.12087 0.0
H1252 H 0.673 0.74939 1.01015 0.0
C1253 C 0.66286 0.72058 0.14425 0.0
C1254 C 0.64134 0.72144 0.11977 0.0
H1255 H 0.70477 0.73046 0.14095 0.0
H1256 H 0.66021 0.71274 0.18184 0.0
C1257 C 0.64555 0.73176 0.07107 0.0
C1258 C 0.26519 0.93212 0.20754 0.0
C1259 C 0.28747 0.93244 0.18375 0.0
H1260 H 0.2327 0.94083 0.20293 0.0
C1261 C 0.29459 0.94356 0.13551 0.0
H1262 H 0.25899 0.92375 0.2446 0.0
C1263 C 0.27948 0.95381 0.1116 0.0
C1264 C 0.25668 0.95255 0.13514 0.0
H1265 H 0.31163 0.94412 0.11613 0.0
H1266 H 0.28518 0.96201 0.07432 0.0
C1267 C 0.24993 0.94181 0.18347 0.0
C1268 C 0.05285 0.30992 0.14378 0.0
C1269 C 0.05443 0.31285 0.09163 0.0
H1270 H 0.06311 0.32976 0.21482 0.0
C1271 C 0.06682 0.33908 0.07129 0.0
H1272 H 0.04353 0.29 0.16072 0.0
C1273 C 0.07775 0.36188 0.10237 0.0
C1274 C 0.07693 0.35895 0.1545 0.0
H1275 H 0.06828 0.34204 0.0313 0.0
H1276 H 0.08752 0.38181 0.08545 0.0
C1277 C 0.06416 0.33271 0.17484 0.0
C1278 C 0.73722 0.67253 0.40739 0.0
C1279 C 0.72525 0.64603 0.42628 0.0
H1280 H 0.75754 0.71497 0.42399 0.0
C1281 C 0.72403 0.64222 0.47822 0.0
H1282 H 0.73838 0.67611 0.36759 0.0
C1283 C 0.73529 0.66445 0.5105 0.0
C1284 C 0.74758 0.69096 0.49161 0.0
H1285 H 0.71503 0.62205 0.494 0.0
H1286 H 0.73456 0.66087 0.55026 0.0
C1287 C 0.74806 0.69477 0.43974 0.0
C1288 C 0.3131 0.07089 0.39985 0.0
C1289 C 0.30902 0.05933 0.44751 0.0
H1290 H 0.34017 0.08934 0.33865 0.0
C1291 C 0.33028 0.05711 0.4698 0.0
H1292 H 0.29705 0.07265 0.38138 0.0
C1293 C 0.35544 0.06711 0.44533 0.0
C1294 C 0.3595 0.07895 0.39774 0.0
H1295 H 0.3277 0.04827 0.50653 0.0
H1296 H 0.3717 0.06573 0.46373 0.0
C1297 C 0.33786 0.08034 0.37517 0.0
C1298 C 0.93506 0.29074 0.4824 0.0
C1299 C 0.93579 0.28805 0.43037 0.0
H1300 H 0.94501 0.28147 0.55405 0.0
C1301 C 0.94889 0.27463 0.4108 0.0
H1302 H 0.92507 0.3009 0.49876 0.0
C1303 C 0.96058 0.26375 0.44253 0.0
C1304 C 0.95911 0.26571 0.49461 0.0
H1305 H 0.94991 0.27231 0.37093 0.0
H1306 H 0.97013 0.25316 0.42618 0.0
C1307 C 0.94643 0.27954 0.51415 0.0
C1308 C 0.99709 0.60956 0.30186 0.0
C1309 C 0.99293 0.59825 0.34993 0.0
H1310 H 0.02518 0.62837 0.24115 0.0
C1311 C 0.0148 0.59797 0.37404 0.0
H1312 H 0.98066 0.6101 0.2823 0.0
C1313 C 0.03989 0.60794 0.35035 0.0
C1314 C 0.04404 0.61887 0.30215 0.0
H1315 H 0.01245 0.58946 0.41101 0.0
H1316 H 0.05612 0.60702 0.36997 0.0
C1317 C 0.02255 0.62004 0.27835 0.0
C1318 C 0.38518 0.40856 0.31383 0.0
C1319 C 0.38862 0.40903 0.26184 0.0
H1320 H 0.39404 0.39748 0.38486 0.0
C1321 C 0.40286 0.39695 0.24156 0.0
H1322 H 0.37439 0.41779 0.33065 0.0
C1323 C 0.41385 0.38509 0.27253 0.0
C1324 C 0.41121 0.38538 0.32463 0.0
H1325 H 0.40579 0.39689 0.20168 0.0
H1326 H 0.42506 0.37633 0.25558 0.0
C1327 C 0.39653 0.39702 0.34492 0.0
C1328 C 0.60183 0.97641 0.31866 0.0
C1329 C 0.60253 0.97958 0.26658 0.0
H1330 H 0.61163 0.9959 0.39007 0.0
C1331 C 0.61532 0.00592 0.24668 0.0
H1332 H 0.59206 0.9564 0.33527 0.0
C1333 C 0.62682 0.02856 0.27812 0.0
C1334 C 0.62543 0.02538 0.33024 0.0
H1335 H 0.61629 0.00907 0.20676 0.0
H1336 H 0.63619 0.04855 0.26151 0.0
C1337 C 0.61297 0.99905 0.35013 0.0
C1338 C 0.39412 0.97997 0.81126 0.0
C1339 C 0.39634 0.98283 0.75911 0.0
H1340 H 0.40258 0.99987 0.88214 0.0
C1341 C 0.40816 0.00896 0.7385 0.0
H1342 H 0.38516 0.96012 0.82841 0.0
C1343 C 0.41784 0.03174 0.76939 0.0
C1344 C 0.41626 0.0289 0.82159 0.0
H1345 H 0.41006 0.01184 0.69851 0.0
H1346 H 0.42719 0.05163 0.75233 0.0
C1347 C 0.40415 1.00275 0.84213 0.0
C1348 C 0.97483 0.40411 0.73784 0.0
C1349 C 0.97123 0.3924 0.7853 0.0
H1350 H 1.0015 0.42337 0.67642 0.0
C1351 C 0.99298 0.39076 0.8069 0.0
H1352 H 0.95842 0.40546 0.71989 0.0
C1353 C 0.01809 0.40147 0.78199 0.0
C1354 C 0.02167 0.41348 0.73464 0.0
H1355 H 0.9908 0.38186 0.84347 0.0
H1356 H 0.03471 0.40051 0.79988 0.0
C1357 C 0.99957 0.41429 0.71273 0.0
C1358 C 0.59739 0.58464 0.71592 0.0
C1359 C 0.59859 0.60723 0.73975 0.0
H1360 H 0.60689 0.55277 0.71875 0.0
C1361 C 0.61192 0.61545 0.78607 0.0
H1362 H 0.58731 0.57764 0.68029 0.0
C1363 C 0.62358 0.60118 0.80806 0.0
C1364 C 0.62164 0.57817 0.78452 0.0
H1365 H 0.61324 0.63278 0.80536 0.0
H1366 H 0.63351 0.60775 0.84391 0.0
C1367 C 0.60855 0.57024 0.73813 0.0
C1368 C 0.27642 0.27401 0.31836 0.0
C1369 C 0.25563 0.25245 0.3454 0.0
H1370 H 0.29346 0.2908 0.24754 0.0
C1371 C 0.23483 0.23077 0.31838 0.0
H1372 H 0.2926 0.29127 0.33742 0.0
C1373 C 0.23515 0.23064 0.26579 0.0
C1374 C 0.25615 0.25231 0.239 0.0
H1375 H 0.21858 0.21372 0.3378 0.0
H1376 H 0.21882 0.21375 0.2462 0.0
C1377 C 0.27673 0.27389 0.26632 0.0
C1378 C 0.74216 0.00468 0.31648 0.0
C1379 C 0.75927 0.99793 0.34355 0.0
H1380 H 0.72909 0.01063 0.2452 0.0
C1381 C 0.7782 0.99366 0.31652 0.0
H1382 H 0.7279 0.00904 0.33522 0.0
C1383 C 0.77916 0.99515 0.26402 0.0
C1384 C 0.76106 1.00066 0.23744 0.0
H1385 H 0.79174 0.98845 0.33568 0.0
H1386 H 0.79333 0.99101 0.24417 0.0
C1387 C 0.74291 0.0058 0.26448 0.0
C1388 C 1.00564 0.73566 0.26353 0.0
C1389 C 0.01071 0.75906 0.23731 0.0
H1390 H 1.00223 0.71677 0.33346 0.0
C1391 C 0.01603 0.78226 0.26481 0.0
H1392 H 1.00099 0.71731 0.24358 0.0
C1393 C 0.0173 0.78225 0.31733 0.0
C1394 C 0.01295 0.75891 0.34362 0.0
H1395 H 0.02016 0.80067 0.24567 0.0
H1396 H 0.02228 0.80073 0.33701 0.0
C1397 C 1.00653 0.73549 0.31558 0.0
C1398 C 0.78353 0.77493 0.76844 0.0
C1399 C 0.76319 0.75259 0.74208 0.0
H1400 H 0.79969 0.79252 0.84021 0.0
C1401 C 0.74337 0.73051 0.7695 0.0
H1402 H 0.799 0.79238 0.74858 0.0
C1403 C 0.74361 0.73069 0.82147 0.0
C1404 C 0.76378 0.75291 0.84811 0.0
H1405 H 0.72758 0.7128 0.75075 0.0
H1406 H 0.72769 0.71334 0.84078 0.0
C1407 C 0.78374 0.77515 0.82095 0.0
C1408 C 0.23604 0.99802 0.81687 0.0
C1409 C 0.26024 0.00752 0.84466 0.0
H1410 H 0.21782 0.99163 0.74401 0.0
C1411 C 0.28509 0.01977 0.81849 0.0
H1412 H 0.21651 0.98846 0.8355 0.0
C1413 C 0.28579 0.02146 0.76648 0.0
C1414 C 0.26171 0.01112 0.73845 0.0
H1415 H 0.30425 0.02813 0.83813 0.0
H1416 H 0.30539 0.03089 0.74811 0.0
C1417 C 0.23678 0.99986 0.76436 0.0
C1418 C 1.00778 0.26997 0.7674 0.0
C1419 C 1.00735 0.2486 0.74028 0.0
H1420 H 1.00823 0.28691 0.83854 0.0
C1421 C 1.0067 0.22697 0.76704 0.0
H1422 H 1.00797 0.28682 0.74837 0.0
C1423 C 1.00671 0.22697 0.81961 0.0
C1424 C 1.00703 0.24842 0.84644 0.0
H1425 H 1.00657 0.21029 0.74742 0.0
H1426 H 1.00603 0.21001 0.83918 0.0
C1427 C 1.00765 0.26989 0.81942 0.0
C1428 C 0.94554 0.6078 0.59972 0.0
C1429 C 0.92402 0.5864 0.57374 0.0
H1430 H 0.96334 0.62496 0.67005 0.0
C1431 C 0.90349 0.56492 0.60142 0.0
H1432 H 0.96189 0.62452 0.57981 0.0
C1433 C 0.90437 0.56514 0.65387 0.0
C1434 C 0.92601 0.58667 0.67963 0.0
H1435 H 0.88654 0.54822 0.58258 0.0
H1436 H 0.88835 0.54832 0.67419 0.0
C1437 C 0.94652 0.60792 0.65169 0.0
C1438 C 0.40611 0.33696 0.59255 0.0
C1439 C 0.42752 0.33689 0.56616 0.0
H1440 H 0.38919 0.33779 0.66326 0.0
C1441 C 0.44923 0.33798 0.5936 0.0
H1442 H 0.38919 0.33642 0.57287 0.0
C1443 C 0.44923 0.33876 0.64611 0.0
C1444 C 0.42771 0.33887 0.67229 0.0
H1445 H 0.46596 0.33776 0.57454 0.0
H1446 H 0.46622 0.33965 0.66614 0.0
C1447 C 0.40623 0.33799 0.64461 0.0
C1448 C 0.67498 0.11172 0.65504 0.0
C1449 C 0.67475 0.09029 0.68179 0.0
H1450 H 0.6751 0.12844 0.58293 0.0
C1451 C 0.67457 0.06906 0.65462 0.0
H1452 H 0.6749 0.1283 0.67468 0.0
C1453 C 0.6745 0.06906 0.60258 0.0
C1454 C 0.67466 0.09031 0.57556 0.0
H1455 H 0.6747 0.05236 0.67363 0.0
H1456 H 0.67411 0.05212 0.58346 0.0
C1457 C 0.67476 0.11164 0.60246 0.0
C1458 C 0.45037 0.11292 0.09247 0.0
C1459 C 0.4294 0.09148 0.06541 0.0
H1460 H 0.46691 0.12917 0.16476 0.0
C1461 C 0.4089 0.06952 0.09205 0.0
H1462 H 0.46637 0.13024 0.07317 0.0
C1463 C 0.40909 0.06899 0.14404 0.0
C1464 C 0.42984 0.09038 0.17138 0.0
H1465 H 0.3926 0.0525 0.07266 0.0
H1466 H 0.39266 0.0518 0.16282 0.0
C1467 C 0.4505 0.11245 0.14495 0.0
C1468 C 0.93939 0.33172 0.10514 0.0
C1469 C 0.92261 0.3387 0.07755 0.0
H1470 H 0.95197 0.32559 0.17679 0.0
C1471 C 0.90381 0.34334 0.10422 0.0
H1472 H 0.9536 0.32712 0.08684 0.0
C1473 C 0.90258 0.34189 0.15674 0.0
C1474 C 0.92032 0.33607 0.18382 0.0
H1475 H 0.89048 0.34875 0.08481 0.0
H1476 H 0.8885 0.34629 0.17622 0.0
C1477 C 0.93839 0.33064 0.15717 0.0
C1478 C 0.65481 0.58775 0.10017 0.0
C1479 C 0.66927 0.57802 0.07283 0.0
H1480 H 0.6435 0.59554 0.17104 0.0
C1481 C 0.68372 0.56782 0.09911 0.0
H1482 H 0.64306 0.59526 0.0811 0.0
C1483 C 0.68453 0.56844 0.15165 0.0
C1484 C 0.6706 0.57896 0.17911 0.0
H1485 H 0.69516 0.56028 0.07902 0.0
H1486 H 0.69661 0.56127 0.17049 0.0
C1487 C 0.65525 0.58802 0.15222 0.0
C1488 C 0.56884 0.89288 0.9407 0.0
C1489 C 0.58999 0.91437 0.91388 0.0
H1490 H 0.55191 0.87645 1.01284 0.0
C1491 C 0.6105 0.93608 0.94106 0.0
H1492 H 0.55259 0.87591 0.92113 0.0
C1493 C 0.60994 0.93653 0.99303 0.0
C1494 C 0.58899 0.91518 1.02014 0.0
H1495 H 0.62734 0.95284 0.92222 0.0
H1496 H 0.62607 0.95388 1.01199 0.0
C1497 C 0.56827 0.89334 0.99329 0.0
C1498 C 0.11388 0.66619 0.98488 0.0
C1499 C 0.09572 0.67191 1.01112 0.0
H1500 H 0.12881 0.66236 0.9131 0.0
C1501 C 0.07997 0.68013 0.98339 0.0
H1502 H 0.12637 0.65982 1.00458 0.0
C1503 C 0.08118 0.68121 0.93143 0.0
C1504 C 0.09849 0.67458 0.90519 0.0
H1505 H 0.06639 0.68563 1.00156 0.0
H1506 H 0.06832 0.6871 0.91152 0.0
C1507 C 0.11535 0.66767 0.93243 0.0
C1508 C 0.33723 0.40211 0.93377 0.0
C1509 C 0.33678 0.42311 0.90695 0.0
H1510 H 0.33921 0.38605 1.00425 0.0
C1511 C 0.33714 0.4445 0.93415 0.0
H1512 H 0.33658 0.38507 0.91459 0.0
C1513 C 0.3383 0.4449 0.98674 0.0
C1514 C 0.33889 0.4238 1.01329 0.0
H1515 H 0.337 0.46112 0.91484 0.0
H1516 H 0.33844 0.46155 1.00649 0.0
C1517 C 0.3384 0.40251 0.98574 0.0
C1518 C 0.11276 0.44561 0.47975 0.0
C1519 C 0.09197 0.42403 0.50697 0.0
H1520 H 0.12893 0.46209 0.40729 0.0
C1521 C 0.07128 0.40224 0.48026 0.0
H1522 H 0.12913 0.46264 0.49901 0.0
C1523 C 0.07131 0.40181 0.42827 0.0
C1524 C 0.09194 0.42323 0.40078 0.0
H1525 H 0.05472 0.38541 0.49953 0.0
H1526 H 0.05507 0.38442 0.40958 0.0
C1527 C 0.11282 0.44515 0.42718 0.0
C1528 C 0.56938 0.67244 0.4903 0.0
C1529 C 0.58639 0.66565 0.51738 0.0
H1530 H 0.55839 0.68054 0.4183 0.0
C1531 C 0.60397 0.65946 0.49096 0.0
H1532 H 0.55571 0.67742 0.50977 0.0
C1533 C 0.60534 0.66089 0.43903 0.0
C1534 C 0.58947 0.66903 0.4115 0.0
H1535 H 0.61695 0.65368 0.51073 0.0
H1536 H 0.61916 0.65576 0.42071 0.0
C1537 C 0.571 0.67426 0.43787 0.0
C1538 C 0.34757 0.93936 0.43856 0.0
C1539 C 0.34643 0.9179 0.41067 0.0
H1540 H 0.34914 0.95626 0.51023 0.0
C1541 C 0.34577 0.89604 0.43664 0.0
H1542 H 0.34777 0.95639 0.42023 0.0
C1543 C 0.3464 0.89589 0.4892 0.0
C1544 C 0.34735 0.91744 0.51677 0.0
H1545 H 0.34511 0.87927 0.41639 0.0
H1546 H 0.34563 0.87876 0.50822 0.0
C1547 C 0.34807 0.93916 0.49052 0.0
C1548 C 0.23023 0.10222 1.01513 0.0
C1549 C 0.24638 0.11996 0.05296 0.0
H1550 H 0.21594 0.06378 0.97954 0.0
C1551 C 0.26187 0.11272 0.08335 0.0
H1552 H 0.21839 0.10763 0.99092 0.0
C1553 C 0.26094 0.08783 0.07626 0.0
C1554 C 0.24429 0.06976 0.03897 0.0
H1555 H 0.27468 0.12631 0.11239 0.0
H1556 H 0.27264 0.08243 0.10081 0.0
C1557 C 0.22902 0.07728 1.00843 0.0
C1558 C 0.92258 0.16858 0.05528 0.0
C1559 C 0.94586 0.16675 0.04436 0.0
H1560 H 0.87965 0.14711 0.06964 0.0
C1561 C 0.94349 0.14101 0.04088 0.0
H1562 H 0.92384 0.18815 0.05852 0.0
C1563 C 0.91832 0.11757 0.04839 0.0
C1564 C 0.895 0.11942 0.05877 0.0
H1565 H 0.96115 0.13899 0.0331 0.0
H1566 H 0.91696 0.09796 0.04495 0.0
C1567 C 0.89735 0.14515 0.06193 0.0
C1568 C 0.84168 0.75207 0.06391 0.0
C1569 C 0.84291 0.77692 0.05416 0.0
H1570 H 0.86413 0.73126 0.07512 0.0
C1571 C 0.86853 0.8005 0.05069 0.0
H1572 H 0.82223 0.73357 0.06694 0.0
C1573 C 0.89242 0.79927 0.05654 0.0
C1574 C 0.89123 0.77435 0.06511 0.0
H1575 H 0.87014 0.81999 0.04365 0.0
H1576 H 0.91187 0.81771 0.05286 0.0
C1577 C 0.86561 0.75075 0.06873 0.0
C1578 C 0.09478 0.20501 0.53732 0.0
C1579 C 0.11803 0.23037 0.52863 0.0
H1580 H 0.05171 0.18319 0.551 0.0
C1581 C 0.11528 0.25355 0.52682 0.0
H1582 H 0.09643 0.18688 0.53963 0.0
C1583 C 0.08981 0.25145 0.53308 0.0
C1584 C 0.06659 0.22618 0.54232 0.0
H1585 H 0.13288 0.27335 0.52044 0.0
H1586 H 0.08833 0.26968 0.53091 0.0
C1587 C 0.06931 0.20297 0.54453 0.0
C1588 C 0.76084 0.83755 0.56159 0.0
C1589 C 0.78392 0.83607 0.54784 0.0
H1590 H 0.74211 0.86204 0.56612 0.0
C1591 C 0.8054 0.85816 0.52367 0.0
H1592 H 0.74385 0.82049 0.57968 0.0
C1593 C 0.80388 0.88138 0.51306 0.0
C1594 C 0.78124 0.88365 0.52822 0.0
H1595 H 0.82303 0.85708 0.5112 0.0
H1596 H 0.82051 0.89733 0.49237 0.0
C1597 C 0.75973 0.86127 0.55284 0.0
C1598 C 0.15509 0.93612 0.5676 0.0
C1599 C 0.17966 0.94161 0.545 0.0
H1600 H 0.11262 0.90832 0.57652 0.0
C1601 C 0.17997 0.92163 0.51451 0.0
H1602 H 0.1541 0.95099 0.59139 0.0
C1603 C 0.15593 0.89704 0.50555 0.0
C1604 C 0.13113 0.8921 0.52663 0.0
H1605 H 0.19856 0.92533 0.49625 0.0
H1606 H 0.1566 0.88231 0.48092 0.0
C1607 C 0.13119 0.91174 0.55855 0.0
C1608 C 0.75401 0.89202 1.01701 0.0
C1609 C 0.77704 0.88898 1.02124 0.0
H1610 H 0.73804 0.91907 1.02032 0.0
C1611 C 0.80223 0.91174 0.03314 0.0
H1612 H 0.73433 0.87476 1.00817 0.0
C1613 C 0.80427 0.937 0.04122 0.0
C1614 C 0.78122 0.94002 0.03685 0.0
H1615 H 0.82021 0.90984 0.03747 0.0
H1616 H 0.82394 0.95421 0.05028 0.0
C1617 C 0.75612 0.91733 0.02428 0.0
C1618 C 0.0776 0.86634 0.05844 0.0
C1619 C 0.07294 0.84137 0.03972 0.0
H1620 H 0.10556 0.90876 0.06609 0.0
C1621 C 0.09406 0.84036 1.01395 0.0
H1622 H 0.06178 0.86782 0.07845 0.0
C1623 C 0.11912 0.86392 1.00623 0.0
C1624 C 0.12361 0.88906 0.02402 0.0
H1625 H 0.09107 0.82142 0.99878 0.0
H1626 H 0.13472 0.86252 0.98535 0.0
C1627 C 0.10263 0.88988 0.05078 0.0
C1628 C 0.17499 0.25399 0.03722 0.0
C1629 C 0.17323 0.22885 0.04642 0.0
H1630 H 0.15345 0.27544 0.02389 0.0
C1631 C 0.14744 0.20547 0.04873 0.0
H1632 H 0.1946 0.27235 0.03493 0.0
C1633 C 0.12386 0.20719 0.04127 0.0
C1634 C 0.12568 0.23238 0.03217 0.0
H1635 H 0.14549 0.18578 0.05513 0.0
H1636 H 0.1042 0.1889 0.04343 0.0
C1637 C 0.15147 0.25577 0.03063 0.0
C1638 C 0.939 0.78638 0.50393 0.0
C1639 C 0.94749 0.77257 0.53608 0.0
H1640 H 0.9072 0.79478 0.48438 0.0
C1641 C 0.92977 0.75626 0.57411 0.0
H1642 H 0.95224 0.79918 0.47448 0.0
C1643 C 0.90428 0.75428 0.58044 0.0
C1644 C 0.89597 0.76822 0.54836 0.0
H1645 H 0.9359 0.74565 0.59988 0.0
H1646 H 0.89106 0.74187 0.61026 0.0
C1647 C 0.91336 0.784 0.50971 0.0
C1648 C 0.2597 0.17142 0.56687 0.0
C1649 C 0.238 0.17056 0.53987 0.0
H1650 H 0.27762 0.14901 0.59685 0.0
C1651 C 0.21812 0.14575 0.51983 0.0
H1652 H 0.27528 0.19023 0.58306 0.0
C1653 C 0.21948 0.12218 0.5277 0.0
C1654 C 0.24068 0.12277 0.55603 0.0
H1655 H 0.20118 0.14439 0.4988 0.0
H1656 H 0.20381 0.10341 0.5115 0.0
C1657 C 0.26105 0.14778 0.57483 0.0
C1658 C 0.88841 0.09351 0.5417 0.0
C1659 C 0.88568 0.11569 0.55646 0.0
H1660 H 0.86836 0.05178 0.52058 0.0
C1661 C 0.85944 0.11235 0.56072 0.0
H1662 H 0.9084 0.09568 0.53715 0.0
C1663 C 0.83634 0.08705 0.55152 0.0
C1664 C 0.83914 0.06489 0.5365 0.0
H1665 H 0.85685 0.12927 0.57154 0.0
H1666 H 0.81634 0.08481 0.55624 0.0
C1667 C 0.86545 0.0685 0.53143 0.0
C1668 C 0.88072 0.42728 0.38671 0.0
C1669 C 0.90613 0.44979 0.39848 0.0
H1670 H 0.85838 0.38479 0.36978 0.0
C1671 C 0.92889 0.44629 0.40249 0.0
H1672 H 0.86294 0.42953 0.38257 0.0
C1673 C 0.92631 0.42079 0.3952 0.0
C1674 C 0.90099 0.39833 0.38287 0.0
H1675 H 0.94873 0.46334 0.41126 0.0
H1676 H 0.94419 0.41869 0.39907 0.0
C1677 C 0.87821 0.40181 0.37863 0.0
C1678 C 0.5667 0.48108 0.3957 0.0
C1679 C 0.56338 0.45501 0.39111 0.0
H1680 H 0.59427 0.52388 0.39356 0.0
C1681 C 0.58613 0.45238 0.3793 0.0
H1682 H 0.54947 0.48366 0.40455 0.0
C1683 C 0.61167 0.47539 0.37193 0.0
C1684 C 0.61501 0.50145 0.37696 0.0
H1685 H 0.58403 0.43251 0.37473 0.0
H1686 H 0.62887 0.47277 0.36307 0.0
C1687 C 0.59229 0.50405 0.38917 0.0
C1688 C 0.52846 0.08262 0.39817 0.0
C1689 C 0.55457 0.10558 0.39549 0.0
H1690 H 0.4854 0.06695 0.3933 0.0
C1691 C 0.55702 0.13089 0.38492 0.0
H1692 H 0.52603 0.06286 0.40602 0.0
C1693 C 0.53386 0.13314 0.37647 0.0
C1694 C 0.50775 0.1102 0.37924 0.0
H1695 H 0.57691 0.14885 0.38185 0.0
H1696 H 0.53641 0.15291 0.36821 0.0
C1697 C 0.50526 0.08496 0.39069 0.0
C1698 C 0.74512 0.54526 0.8836 0.0
C1699 C 0.74151 0.56791 0.87938 0.0
H1700 H 0.77271 0.5299 0.87889 0.0
C1701 C 0.76401 0.59314 0.86693 0.0
H1702 H 0.72812 0.52545 0.89248 0.0
C1703 C 0.78968 0.59569 0.8595 0.0
C1704 C 0.79309 0.5729 0.86301 0.0
H1705 H 0.76177 0.61088 0.86303 0.0
H1706 H 0.80684 0.6154 0.85063 0.0
C1707 C 0.77055 0.54769 0.87508 0.0
C1708 C 0.41986 0.19445 0.84923 0.0
C1709 C 0.44293 0.22042 0.85189 0.0
H1710 H 0.40416 0.15155 0.85324 0.0
C1711 C 0.46834 0.22285 0.8623 0.0
H1712 H 0.40002 0.19204 0.84153 0.0
C1713 C 0.47063 0.19976 0.87019 0.0
C1714 C 0.4476 0.17377 0.86704 0.0
H1715 H 0.48638 0.24265 0.8654 0.0
H1716 H 0.4905 0.20226 0.87793 0.0
C1717 C 0.42222 0.17133 0.8562 0.0
C1718 C 0.82232 0.22656 0.86193 0.0
C1719 C 0.79612 0.22331 0.86594 0.0
H1720 H 0.86542 0.25411 0.86568 0.0
C1721 C 0.79345 0.24571 0.87931 0.0
H1722 H 0.82488 0.20949 0.85211 0.0
C1723 C 0.81646 0.27088 0.88855 0.0
C1724 C 0.84271 0.27435 0.88374 0.0
H1725 H 0.77348 0.24363 0.88354 0.0
H1726 H 0.81364 0.28778 0.89839 0.0
C1727 C 0.84545 0.25197 0.87007 0.0
C1728 C 0.47094 0.24889 0.35768 0.0
C1729 C 0.44584 0.22627 0.34484 0.0
H1730 H 0.49252 0.2912 0.37622 0.0
C1731 C 0.42292 0.22943 0.33984 0.0
H1732 H 0.48882 0.24687 0.36258 0.0
C1733 C 0.42501 0.25469 0.34758 0.0
C1734 C 0.44996 0.27722 0.36137 0.0
H1735 H 0.4033 0.21227 0.33027 0.0
H1736 H 0.40698 0.2565 0.34323 0.0
C1737 C 0.47295 0.27411 0.36621 0.0
C1738 C 0.73682 0.19726 0.38001 0.0
C1739 C 0.73435 0.17148 0.37665 0.0
H1740 H 0.76349 0.24031 0.37609 0.0
C1741 C 0.75762 0.16957 0.36603 0.0
H1742 H 0.71917 0.19934 0.38756 0.0
C1743 C 0.78293 0.19296 0.35969 0.0
C1744 C 0.78538 0.21873 0.36278 0.0
H1745 H 0.75631 0.14997 0.36292 0.0
H1746 H 0.80063 0.19094 0.35231 0.0
C1747 C 0.76206 0.22066 0.37274 0.0
C1748 C 0.79424 0.54274 0.36099 0.0
C1749 C 0.796 0.56785 0.35172 0.0
H1750 H 0.81578 0.52146 0.37593 0.0
C1751 C 0.82182 0.59122 0.34896 0.0
H1752 H 0.77459 0.52448 0.36409 0.0
C1753 C 0.84543 0.58949 0.3554 0.0
C1754 C 0.84362 0.56446 0.36588 0.0
H1755 H 0.82371 0.61085 0.34213 0.0
H1756 H 0.86507 0.60781 0.35299 0.0
C1757 C 0.8178 0.54109 0.36842 0.0
C1758 C 0.56673 0.08696 0.89102 0.0
C1759 C 0.56452 0.11041 0.88737 0.0
H1760 H 0.59315 0.07013 0.88997 0.0
C1761 C 0.58811 0.13545 0.87855 0.0
H1762 H 0.54884 0.06739 0.89759 0.0
C1763 C 0.6134 0.13695 0.87303 0.0
C1764 C 0.61561 0.1135 0.87707 0.0
H1765 H 0.58688 0.15377 0.87486 0.0
H1766 H 0.63126 0.15651 0.86636 0.0
C1767 C 0.59205 0.08852 0.88644 0.0
C1768 C 0.88529 0.45672 0.86704 0.0
C1769 C 0.90601 0.45645 0.89557 0.0
H1770 H 0.8686 0.48022 0.83722 0.0
C1771 C 0.92698 0.48116 0.9143 0.0
H1772 H 0.86915 0.4382 0.85094 0.0
C1773 C 0.92685 0.50536 0.90567 0.0
C1774 C 0.90576 0.50542 0.87815 0.0
H1775 H 0.94319 0.48175 0.93658 0.0
H1776 H 0.94297 0.52394 0.92162 0.0
C1777 C 0.88512 0.48087 0.85857 0.0
C1778 C 0.55874 0.42788 0.85976 0.0
C1779 C 0.55892 0.44855 0.88898 0.0
H1780 H 0.53528 0.38794 0.82932 0.0
C1781 C 0.53414 0.44454 0.90834 0.0
H1782 H 0.57733 0.43049 0.84318 0.0
C1783 C 0.50993 0.42024 0.89964 0.0
C1784 C 0.50995 0.39939 0.87144 0.0
H1785 H 0.53349 0.4599 0.93117 0.0
H1786 H 0.49129 0.41756 0.91607 0.0
C1787 C 0.53458 0.40358 0.85122 0.0
C1788 C 0.54845 0.75404 0.73138 0.0
C1789 C 0.57405 0.7766 0.74165 0.0
H1790 H 0.52574 0.71151 0.71536 0.0
C1791 C 0.59677 0.77294 0.74505 0.0
H1792 H 0.53067 0.75634 0.72776 0.0
C1793 C 0.59395 0.74725 0.7382 0.0
C1794 C 0.56844 0.72482 0.72674 0.0
H1795 H 0.61677 0.79002 0.75269 0.0
H1796 H 0.6118 0.74504 0.74112 0.0
C1797 C 0.54571 0.72846 0.72362 0.0
C1798 C 0.2841 0.8111 0.71366 0.0
C1799 C 0.28752 0.83723 0.71831 0.0
H1800 H 0.25627 0.76824 0.71633 0.0
C1801 C 0.26491 0.83996 0.73067 0.0
H1802 H 0.30123 0.80839 0.70474 0.0
C1803 C 0.23929 0.81706 0.73725 0.0
C1804 C 0.23581 0.79094 0.73246 0.0
H1805 H 0.26695 0.85982 0.73485 0.0
H1806 H 0.2221 0.81975 0.74582 0.0
C1807 C 0.2585 0.78815 0.72102 0.0
C1808 C 0.19065 0.41768 0.73177 0.0
C1809 C 0.2168 0.44057 0.72874 0.0
H1810 H 0.14758 0.40216 0.72777 0.0
C1811 C 0.21929 0.46593 0.71856 0.0
H1812 H 0.18816 0.39787 0.73934 0.0
C1813 C 0.19614 0.4683 0.71076 0.0
C1814 C 0.16999 0.44542 0.71383 0.0
H1815 H 0.2392 0.48384 0.71526 0.0
H1816 H 0.19872 0.4881 0.70274 0.0
C1817 C 0.16747 0.42013 0.72495 0.0
C1818 C 0.42897 0.87395 0.20476 0.0
C1819 C 0.45268 0.8991 0.19741 0.0
H1820 H 0.38574 0.8527 0.21593 0.0
C1821 C 0.45041 0.92257 0.19465 0.0
H1822 H 0.43014 0.85557 0.20771 0.0
C1823 C 0.42498 0.92092 0.19887 0.0
C1824 C 0.40134 0.89583 0.20712 0.0
H1825 H 0.46835 0.94223 0.18915 0.0
H1826 H 0.42387 0.93934 0.19632 0.0
C1827 C 0.40361 0.87236 0.21002 0.0
C1828 C 0.13091 0.55273 0.22029 0.0
C1829 C 0.11017 0.5532 0.19218 0.0
H1830 H 0.14798 0.52919 0.24802 0.0
C1831 C 0.08946 0.52871 0.17221 0.0
H1832 H 0.14683 0.57105 0.23734 0.0
C1833 C 0.08995 0.50453 0.17902 0.0
C1834 C 0.11113 0.50434 0.20597 0.0
H1835 H 0.07324 0.5283 0.15025 0.0
H1836 H 0.07409 0.48614 0.16206 0.0
C1837 C 0.13142 0.52865 0.22698 0.0
C1838 C 0.4654 0.57287 0.24406 0.0
C1839 C 0.46273 0.55585 0.20398 0.0
H1840 H 0.49068 0.61052 0.28147 0.0
C1841 C 0.48478 0.56353 0.17148 0.0
H1842 H 0.44869 0.56717 0.26984 0.0
C1843 C 0.50913 0.58803 0.17889 0.0
C1844 C 0.51159 0.60537 0.21847 0.0
H1845 H 0.48321 0.55054 0.14064 0.0
H1846 H 0.5257 0.5938 0.15276 0.0
C1847 C 0.48946 0.59751 0.25093 0.0
C1848 C 0.13792 0.61001 0.69956 0.0
C1849 C 0.11547 0.61409 0.69624 0.0
H1850 H 0.15239 0.5817 0.6949 0.0
C1851 C 0.08987 0.59199 0.68408 0.0
H1852 H 0.15796 0.6267 0.70837 0.0
C1853 C 0.08668 0.5662 0.67658 0.0
C1854 C 0.10913 0.56211 0.68005 0.0
H1855 H 0.07222 0.59454 0.68098 0.0
H1856 H 0.06663 0.54938 0.6683 0.0
C1857 C 0.13482 0.58434 0.69117 0.0
C1858 C 0.40073 0.52923 0.71271 0.0
C1859 C 0.39684 0.50293 0.70814 0.0
H1860 H 0.42909 0.57197 0.70946 0.0
C1861 C 0.4192 0.49974 0.69591 0.0
H1862 H 0.38381 0.5323 0.72151 0.0
C1863 C 0.44499 0.52235 0.68905 0.0
C1864 C 0.44892 0.54866 0.69343 0.0
H1865 H 0.41681 0.47973 0.69182 0.0
H1866 H 0.46194 0.51929 0.68035 0.0
C1867 C 0.42652 0.5519 0.70507 0.0
C1868 C 0.51602 0.91965 0.6977 0.0
C1869 C 0.51322 0.89421 0.70856 0.0
H1870 H 0.49572 0.94237 0.68399 0.0
C1871 C 0.48694 0.87158 0.71227 0.0
H1872 H 0.536 0.93744 0.69443 0.0
C1873 C 0.46395 0.87431 0.70519 0.0
C1874 C 0.46672 0.8998 0.69507 0.0
H1875 H 0.48412 0.85167 0.72016 0.0
H1876 H 0.44395 0.85656 0.70884 0.0
C1877 C 0.493 0.92247 0.69158 0.0
C1878 C 0.25618 0.4206 0.21059 0.0
C1879 C 0.27956 0.44604 0.20347 0.0
H1880 H 0.21293 0.39847 0.22093 0.0
C1881 C 0.2768 0.46924 0.20166 0.0
H1882 H 0.25768 0.40237 0.21241 0.0
C1883 C 0.2512 0.46703 0.20768 0.0
C1884 C 0.22783 0.44155 0.21478 0.0
H1885 H 0.2945 0.48913 0.19681 0.0
H1886 H 0.2496 0.48521 0.20609 0.0
C1887 C 0.23059 0.41835 0.21568 0.0
C1888 C 0.55074 0.78639 0.20175 0.0
C1889 C 0.57223 0.78669 0.22864 0.0
H1890 H 0.53226 0.80892 0.17528 0.0
C1891 C 0.59275 0.81153 0.24781 0.0
H1892 H 0.5349 0.76778 0.18538 0.0
C1893 C 0.59137 0.83527 0.24139 0.0
C1894 C 0.56949 0.83471 0.2156 0.0
H1895 H 0.60953 0.81255 0.26884 0.0
H1896 H 0.60717 0.85394 0.25766 0.0
C1897 C 0.54935 0.81005 0.19543 0.0
C1898 C 0.22341 0.76287 0.21578 0.0
C1899 C 0.22098 0.78546 0.22891 0.0
H1900 H 0.2029 0.72097 0.19536 0.0
C1901 C 0.19489 0.7826 0.23157 0.0
H1902 H 0.24328 0.76463 0.21252 0.0
C1903 C 0.17166 0.75752 0.22189 0.0
C1904 C 0.17415 0.73503 0.2081 0.0
H1905 H 0.1925 0.7998 0.24116 0.0
H1906 H 0.15178 0.75575 0.22504 0.0
C1907 C 0.20029 0.73801 0.20511 0.0
C1908 C 0.19572 0.17588 0.76223 0.0
C1909 C 0.20643 0.2013 0.73935 0.0
H1910 H 0.18968 0.15376 0.82929 0.0
C1911 C 0.22038 0.22476 0.76858 0.0
H1912 H 0.18542 0.1575 0.74031 0.0
C1913 C 0.2224 0.22273 0.82032 0.0
C1914 C 0.21081 0.19715 0.84361 0.0
H1915 H 0.22878 0.2446 0.75163 0.0
H1916 H 0.23235 0.24119 0.84199 0.0
C1917 C 0.19809 0.17381 0.81348 0.0
C1918 C 0.83923 0.03144 0.8119 0.0
C1919 C 0.81574 0.01654 0.84101 0.0
H1920 H 0.85685 0.03971 0.7391 0.0
C1921 C 0.7908 0.99993 0.81682 0.0
H1922 H 0.85859 0.04506 0.82907 0.0
C1923 C 0.7898 0.99714 0.76481 0.0
C1924 C 0.81373 0.01078 0.73635 0.0
H1925 H 0.77235 0.98817 0.83812 0.0
H1926 H 0.77065 0.98331 0.7471 0.0
C1927 C 0.83825 0.02849 0.76031 0.0
C1928 C 1.00224 0.78598 0.76168 0.0
C1929 C 0.01275 0.81128 0.73763 0.0
H1930 H 0.99023 0.7643 0.83131 0.0
C1931 C 0.0208 0.83449 0.76717 0.0
H1932 H 0.99585 0.76766 0.74035 0.0
C1933 C 0.01732 0.83246 0.81868 0.0
C1934 C 1.00602 0.80723 0.84255 0.0
H1935 H 0.02986 0.85444 0.75066 0.0
H1936 H 0.02354 0.85078 0.84 0.0
C1937 C 0.99901 0.78401 0.81375 0.0
C1938 C 0.81471 0.82821 0.3264 0.0
C1939 C 0.80585 0.80275 0.34782 0.0
H1940 H 0.81823 0.85064 0.26084 0.0
C1941 C 0.7924 0.77946 0.31806 0.0
H1942 H 0.82461 0.84637 0.34901 0.0
C1943 C 0.78931 0.78181 0.2668 0.0
C1944 C 0.79925 0.80752 0.24474 0.0
H1945 H 0.78539 0.7596 0.33411 0.0
H1946 H 0.78002 0.76358 0.24446 0.0
C1947 C 0.81116 0.83057 0.27569 0.0
C1948 C 0.19749 0.02216 0.31485 0.0
C1949 C 0.20976 0.01044 0.34341 0.0
H1950 H 0.18695 0.02947 0.2424 0.0
C1951 C 0.22284 0.99833 0.31836 0.0
H1952 H 0.18805 0.03249 0.33251 0.0
C1953 C 0.22245 0.9969 0.26603 0.0
C1954 C 0.20891 0.00747 0.23799 0.0
H1955 H 0.23255 0.98918 0.33912 0.0
H1956 H 0.23172 0.98657 0.24762 0.0
C1957 C 0.19698 0.0206 0.26302 0.0
C1958 C 0.01541 0.22381 0.27071 0.0
C1959 C 1.00716 0.20076 0.2409 0.0
H1960 H 0.01786 0.23933 0.34425 0.0
C1961 C 0.99253 0.17504 0.26262 0.0
H1962 H 0.02673 0.24387 0.25453 0.0
C1963 C 0.98695 0.17228 0.31348 0.0
C1964 C 0.99637 0.19524 0.34438 0.0
H1965 H 0.98545 0.15697 0.24008 0.0
H1966 H 0.97543 0.152 0.32834 0.0
C1967 C 0.01026 0.22111 0.3221 0.0
C1968 C 0.89404 0.5631 0.10388 0.0
C1969 C 0.87998 0.54014 0.07354 0.0
H1970 H 0.90675 0.57824 0.1778 0.0
C1971 C 0.87019 0.51437 0.0943 0.0
H1972 H 0.90179 0.58318 0.08834 0.0
C1973 C 0.8735 0.51143 0.14488 0.0
C1974 C 0.88611 0.5342 0.17642 0.0
H1975 H 0.85983 0.49642 0.07124 0.0
H1976 H 0.86575 0.49113 0.15911 0.0
C1977 C 0.89689 0.56018 0.15504 0.0
C1978 C 0.45822 0.34226 0.14485 0.0
C1979 C 0.48132 0.34558 0.17061 0.0
H1980 H 0.43721 0.33395 0.07485 0.0
C1981 C 0.50129 0.34311 0.14382 0.0
H1982 H 0.44251 0.3442 0.16416 0.0
C1983 C 0.49848 0.3377 0.09293 0.0
C1984 C 0.47543 0.33422 0.06699 0.0
H1985 H 0.51917 0.34504 0.16209 0.0
H1986 H 0.51467 0.33648 0.07398 0.0
C1987 C 0.45531 0.33666 0.09353 0.0
C1988 C 0.69149 0.16609 0.10864 0.0
C1989 C 0.68354 0.14329 0.07785 0.0
H1990 H 0.69164 0.18109 0.18176 0.0
C1991 C 0.67066 0.11741 0.1003 0.0
H1992 H 0.70215 0.18644 0.0939 0.0
C1993 C 0.66517 0.11453 0.15162 0.0
C1994 C 0.67205 0.13737 0.18129 0.0
H1995 H 0.66422 0.09929 0.07839 0.0
H1996 H 0.65472 0.09444 0.16785 0.0
C1997 C 0.68558 0.16312 0.15941 0.0
C1998 C 0.48327 0.16474 0.64946 0.0
C1999 C 0.47451 0.13936 0.67118 0.0
H2000 H 0.48644 0.18689 0.58368 0.0
C2001 C 0.46093 0.11594 0.64175 0.0
H2002 H 0.49321 0.18299 0.67182 0.0
C2003 C 0.45759 0.11809 0.59051 0.0
C2004 C 0.46741 0.14371 0.5682 0.0
H2005 H 0.45396 0.09615 0.65806 0.0
H2006 H 0.44821 0.09979 0.56835 0.0
C2007 C 0.47947 0.16689 0.5988 0.0
C2008 C 0.85559 0.34699 0.65399 0.0
C2009 C 0.87018 0.33829 0.68381 0.0
H2010 H 0.84278 0.35038 0.58087 0.0
C2011 C 0.88473 0.3273 0.66016 0.0
H2012 H 0.84491 0.35643 0.67028 0.0
C2013 C 0.8838 0.32423 0.60811 0.0
C2014 C 0.86813 0.33188 0.57902 0.0
H2015 H 0.89623 0.32041 0.68177 0.0
H2016 H 0.8945 0.31504 0.59078 0.0
C2017 C 0.85446 0.34369 0.6025 0.0
C2018 C 0.69047 0.55894 0.60209 0.0
C2019 C 0.68319 0.53572 0.57312 0.0
H2020 H 0.69416 0.57523 0.67569 0.0
C2021 C 0.67192 0.51045 0.59679 0.0
H2022 H 0.69923 0.57868 0.58461 0.0
C2023 C 0.66875 0.50838 0.64832 0.0
C2024 C 0.6771 0.53159 0.67801 0.0
H2025 H 0.66549 0.49215 0.5753 0.0
H2026 H 0.65971 0.48841 0.66475 0.0
C2027 C 0.68756 0.55692 0.65418 0.0
C2028 C 0.55739 0.89021 0.44422 0.0
C2029 C 0.5427 0.86721 0.41416 0.0
H2030 H 0.57153 0.90547 0.51766 0.0
C2031 C 0.53304 0.84147 0.43504 0.0
H2032 H 0.56509 0.91029 0.42869 0.0
C2033 C 0.53718 0.83861 0.48532 0.0
C2034 C 0.55055 0.86144 0.51662 0.0
H2035 H 0.52221 0.82347 0.41228 0.0
H2036 H 0.52953 0.81832 0.49948 0.0
C2037 C 0.56111 0.88738 0.49513 0.0
C2038 C 0.12522 0.67458 0.48422 0.0
C2039 C 0.1507 0.69091 0.50691 0.0
H2040 H 0.10381 0.65648 0.41611 0.0
C2041 C 0.17396 0.70381 0.47646 0.0
H2042 H 0.1069 0.66433 0.50645 0.0
C2043 C 0.17219 0.69895 0.42538 0.0
C2044 C 0.14705 0.68151 0.40318 0.0
H2045 H 0.19378 0.71722 0.49224 0.0
H2046 H 0.19059 0.70846 0.40317 0.0
C2047 C 0.12342 0.67004 0.43263 0.0
C2048 C 0.3314 0.45036 0.4319 0.0
C2049 C 0.34501 0.47622 0.40951 0.0
H2050 H 0.31505 0.42761 0.49955 0.0
C2051 C 0.35394 0.49916 0.44028 0.0
H2052 H 0.32418 0.43217 0.40979 0.0
C2053 C 0.34823 0.49641 0.49112 0.0
C2054 C 0.33394 0.4707 0.51303 0.0
H2055 H 0.36524 0.51945 0.42535 0.0
H2056 H 0.35503 0.51449 0.5135 0.0
C2057 C 0.3261 0.44766 0.4833 0.0
C2058 C 0.14269 0.50029 0.93537 0.0
C2059 C 0.13002 0.47748 0.90391 0.0
H2060 H 0.15673 0.51542 1.0088 0.0
C2061 C 0.11959 0.45154 0.92532 0.0
H2062 H 0.15018 0.52055 0.92112 0.0
C2063 C 0.12283 0.44871 0.97638 0.0
C2064 C 0.13691 0.47171 1.00664 0.0
H2065 H 0.10972 0.43347 0.90261 0.0
H2066 H 0.11534 0.42865 0.99188 0.0
C2067 C 0.14636 0.49744 0.98584 0.0
C2068 C 0.55983 0.66495 0.93866 0.0
C2069 C 0.5344 0.64824 0.91611 0.0
H2070 H 0.58117 0.68357 1.00657 0.0
C2071 C 0.51118 0.63523 0.94665 0.0
H2072 H 0.57812 0.6753 0.91637 0.0
C2073 C 0.51292 0.64036 0.99765 0.0
C2074 C 0.53798 0.65815 1.01966 0.0
H2075 H 0.4914 0.62153 0.93102 0.0
H2076 H 0.49454 0.63077 1.01991 0.0
C2077 C 0.56161 0.66974 0.99018 0.0
C2078 C 0.33194 0.84706 0.93177 0.0
C2079 C 0.34854 0.87275 0.9112 0.0
H2080 H 0.31109 0.824 0.99542 0.0
C2081 C 0.35673 0.89579 0.94103 0.0
H2082 H 0.32485 0.82905 0.90903 0.0
C2083 C 0.34948 0.89303 0.99159 0.0
C2084 C 0.33347 0.86712 1.01285 0.0
H2085 H 0.36948 0.91583 0.9256 0.0
H2086 H 0.35702 0.91116 1.01397 0.0
C2087 C 0.32419 0.84427 0.98162 0.0
loop_
_geom_bond_atom_site_label_1
_geom_bond_atom_site_label_2
_geom_bond_distance
_geom_bond_site_symmetry_2
_ccdc_geom_bond_type
Co0 N4 2.148 . S
Co0 N10 2.128 1_554 S
Co0 N20 2.194 . S
Co0 O25 2.351 . S
Co0 O26 2.155 . S
Co0 O27 2.096 1_554 S
C1 N4 1.301 . S
C1 N5 1.328 . S
C1 H6 0.930 . S
C2 C3 1.333 . S
C2 N4 1.317 . S
C2 H7 0.930 . S
C3 C2 1.333 . S
C3 N5 1.350 . S
C3 H29 0.931 . S
N4 Co0 2.148 . S
N4 C1 1.301 . S
N4 C2 1.317 . S
N5 C1 1.328 . S
N5 C3 1.350 . S
H6 C1 0.930 . S
H7 C2 0.930 . S
C8 O9 1.224 . S
C8 O27 1.247 . S
O9 C8 1.224 . S
N10 Co0 2.128 1_556 S
N10 C11 1.355 . S
N10 C13 1.311 . S
C11 N10 1.355 . S
C11 C12 1.363 . S
C11 H23 0.929 . S
C12 C11 1.363 . S
C12 N14 1.375 . S
C12 H30 0.931 . S
C13 N10 1.311 . S
C13 N14 1.347 . S
C13 H24 0.929 . S
N14 C12 1.375 . S
N14 C13 1.347 . S
C15 C18 1.365 . S
C15 N20 1.328 . S
C15 H21 0.929 . S
C16 C17 1.362 . S
C16 C19 1.378 . S
C16 H31 0.929 . S
C17 C16 1.362 . S
C17 C18 1.366 . S
C18 C15 1.365 . S
C18 C17 1.366 . S
C18 H32 0.930 . S
C19 C16 1.378 . S
C19 N20 1.315 . S
C19 H22 0.930 . S
N20 Co0 2.194 . S
N20 C15 1.328 . S
N20 C19 1.315 . S
H21 C15 0.929 . S
H22 C19 0.930 . S
H23 C11 0.929 . S
H24 C13 0.929 . S
O25 Co0 2.351 . S
O25 C28 1.244 . S
O26 Co0 2.155 . S
O26 C28 1.240 . S
O27 Co0 2.096 1_556 S
O27 C8 1.247 . S
C28 O25 1.244 . S
C28 O26 1.240 . S
H29 C3 0.931 . S
H30 C12 0.931 . S
H31 C16 0.929 . S
H32 C18 0.930 . S
Co33 N37 2.148 . S
Co33 N43 2.128 1_554 S
Co33 N53 2.194 . S
Co33 O58 2.351 1_545 S
Co33 O59 2.155 1_545 S
Co33 O60 2.096 1_554 S
C34 N37 1.301 . S
C34 N38 1.328 . S
C34 H39 0.930 . S
C35 C36 1.333 . S
C35 N37 1.317 . S
C35 H40 0.930 . S
C36 C35 1.333 . S
C36 N38 1.350 . S
C36 H62 0.931 . S
N37 Co33 2.148 . S
N37 C34 1.301 . S
N37 C35 1.317 . S
N38 C34 1.328 . S
N38 C36 1.350 . S
H39 C34 0.930 . S
H40 C35 0.930 . S
C41 O42 1.224 . S
C41 O60 1.247 . S
O42 C41 1.224 . S
N43 Co33 2.128 1_556 S
N43 C44 1.355 . S
N43 C46 1.311 . S
C44 N43 1.355 . S
C44 C45 1.363 . S
C44 H56 0.929 . S
C45 C44 1.363 . S
C45 N47 1.375 . S
C45 H63 0.931 . S
C46 N43 1.311 . S
C46 N47 1.347 . S
C46 H57 0.929 . S
N47 C45 1.375 . S
N47 C46 1.347 . S
C48 C51 1.365 . S
C48 N53 1.328 . S
C48 H54 0.929 . S
C49 C50 1.362 . S
C49 C52 1.378 . S
C49 H64 0.929 . S
C50 C49 1.362 . S
C50 C51 1.366 . S
C51 C48 1.365 . S
C51 C50 1.366 . S
C51 H65 0.930 . S
C52 C49 1.378 . S
C52 N53 1.315 . S
C52 H55 0.930 . S
N53 Co33 2.194 . S
N53 C48 1.328 . S
N53 C52 1.315 . S
H54 C48 0.929 . S
H55 C52 0.930 . S
H56 C44 0.929 . S
H57 C46 0.929 . S
O58 Co33 2.351 1_565 S
O58 C61 1.244 . S
O59 Co33 2.155 1_565 S
O59 C61 1.240 . S
O60 Co33 2.096 1_556 S
O60 C41 1.247 . S
C61 O58 1.244 . S
C61 O59 1.240 . S
H62 C36 0.931 . S
H63 C45 0.931 . S
H64 C49 0.929 . S
H65 C51 0.930 . S
Co66 N70 2.148 . S
Co66 N76 2.128 1_554 S
Co66 N86 2.194 . S
Co66 O91 2.351 1_655 S
Co66 O92 2.155 1_655 S
Co66 O93 2.096 1_554 S
C67 N70 1.301 . S
C67 N71 1.328 . S
C67 H72 0.930 . S
C68 C69 1.333 . S
C68 N70 1.317 . S
C68 H73 0.930 . S
C69 C68 1.333 . S
C69 N71 1.350 . S
C69 H95 0.931 . S
N70 Co66 2.148 . S
N70 C67 1.301 . S
N70 C68 1.317 . S
N71 C67 1.328 . S
N71 C69 1.350 . S
H72 C67 0.930 . S
H73 C68 0.930 . S
C74 O75 1.224 . S
C74 O93 1.247 . S
O75 C74 1.224 . S
N76 Co66 2.128 1_556 S
N76 C77 1.355 . S
N76 C79 1.311 . S
C77 N76 1.355 . S
C77 C78 1.363 . S
C77 H89 0.929 . S
C78 C77 1.363 . S
C78 N80 1.375 . S
C78 H96 0.931 . S
C79 N76 1.311 . S
C79 N80 1.347 . S
C79 H90 0.929 . S
N80 C78 1.375 . S
N80 C79 1.347 . S
C81 C84 1.365 . S
C81 N86 1.328 . S
C81 H87 0.929 . S
C82 C83 1.362 . S
C82 C85 1.378 . S
C82 H97 0.929 . S
C83 C82 1.362 . S
C83 C84 1.366 . S
C84 C81 1.365 . S
C84 C83 1.366 . S
C84 H98 0.930 . S
C85 C82 1.378 . S
C85 N86 1.315 . S
C85 H88 0.930 . S
N86 Co66 2.194 . S
N86 C81 1.328 . S
N86 C85 1.315 . S
H87 C81 0.929 . S
H88 C85 0.930 . S
H89 C77 0.929 . S
H90 C79 0.929 . S
O91 Co66 2.351 1_455 S
O91 C94 1.244 . S
O92 Co66 2.155 1_455 S
O92 C94 1.240 . S
O93 Co66 2.096 1_556 S
O93 C74 1.247 . S
C94 O91 1.244 . S
C94 O92 1.240 . S
H95 C69 0.931 . S
H96 C78 0.931 . S
H97 C82 0.929 . S
H98 C84 0.930 . S
Co99 N103 2.148 . S
Co99 N109 2.128 . S
Co99 N119 2.194 . S
Co99 O124 2.351 . S
Co99 O125 2.155 . S
Co99 O126 2.096 . S
C100 N103 1.301 . S
C100 N104 1.328 . S
C100 H105 0.930 . S
C101 C102 1.333 . S
C101 N103 1.317 . S
C101 H106 0.930 . S
C102 C101 1.333 . S
C102 N104 1.350 . S
C102 H128 0.931 . S
N103 Co99 2.148 . S
N103 C100 1.301 . S
N103 C101 1.317 . S
N104 C100 1.328 . S
N104 C102 1.350 . S
H105 C100 0.930 . S
H106 C101 0.930 . S
C107 O108 1.224 . S
C107 O126 1.247 . S
O108 C107 1.224 . S
N109 Co99 2.128 . S
N109 C110 1.355 . S
N109 C112 1.311 . S
C110 N109 1.355 . S
C110 C111 1.363 . S
C110 H122 0.929 . S
C111 C110 1.363 . S
C111 N113 1.375 . S
C111 H129 0.931 . S
C112 N109 1.311 . S
C112 N113 1.347 . S
C112 H123 0.929 . S
N113 C111 1.375 . S
N113 C112 1.347 . S
C114 C117 1.365 . S
C114 N119 1.328 . S
C114 H120 0.929 . S
C115 C116 1.362 . S
C115 C118 1.378 . S
C115 H130 0.929 . S
C116 C115 1.362 . S
C116 C117 1.366 . S
C117 C114 1.365 . S
C117 C116 1.366 . S
C117 H131 0.930 . S
C118 C115 1.378 . S
C118 N119 1.315 . S
C118 H121 0.930 . S
N119 Co99 2.194 . S
N119 C114 1.328 . S
N119 C118 1.315 . S
H120 C114 0.929 . S
H121 C118 0.930 . S
H122 C110 0.929 . S
H123 C112 0.929 . S
O124 Co99 2.351 . S
O124 C127 1.244 . S
O125 Co99 2.155 . S
O125 C127 1.240 . S
O126 Co99 2.096 . S
O126 C107 1.247 . S
C127 O124 1.244 . S
C127 O125 1.240 . S
H128 C102 0.931 . S
H129 C111 0.931 . S
H130 C115 0.929 . S
H131 C117 0.930 . S
Co132 N136 2.148 . S
Co132 N142 2.128 . S
Co132 N152 2.194 . S
Co132 O157 2.351 1_565 S
Co132 O158 2.155 1_565 S
Co132 O159 2.096 . S
C133 N136 1.301 . S
C133 N137 1.328 . S
C133 H138 0.930 . S
C134 C135 1.333 . S
C134 N136 1.317 . S
C134 H139 0.930 . S
C135 C134 1.333 . S
C135 N137 1.350 . S
C135 H161 0.931 . S
N136 Co132 2.148 . S
N136 C133 1.301 . S
N136 C134 1.317 . S
N137 C133 1.328 . S
N137 C135 1.350 . S
H138 C133 0.930 . S
H139 C134 0.930 . S
C140 O141 1.224 . S
C140 O159 1.247 . S
O141 C140 1.224 . S
N142 Co132 2.128 . S
N142 C143 1.355 . S
N142 C145 1.311 . S
C143 N142 1.355 . S
C143 C144 1.363 . S
C143 H155 0.929 . S
C144 C143 1.363 . S
C144 N146 1.375 . S
C144 H162 0.931 . S
C145 N142 1.311 . S
C145 N146 1.347 . S
C145 H156 0.929 . S
N146 C144 1.375 . S
N146 C145 1.347 . S
C147 C150 1.365 . S
C147 N152 1.328 . S
C147 H153 0.929 . S
C148 C149 1.362 . S
C148 C151 1.378 . S
C148 H163 0.929 . S
C149 C148 1.362 . S
C149 C150 1.366 . S
C150 C147 1.365 . S
C150 C149 1.366 . S
C150 H164 0.930 . S
C151 C148 1.378 . S
C151 N152 1.315 . S
C151 H154 0.930 . S
N152 Co132 2.194 . S
N152 C147 1.328 . S
N152 C151 1.315 . S
H153 C147 0.929 . S
H154 C151 0.930 . S
H155 C143 0.929 . S
H156 C145 0.929 . S
O157 Co132 2.351 1_545 S
O157 C160 1.244 . S
O158 Co132 2.155 1_545 S
O158 C160 1.240 . S
O159 Co132 2.096 . S
O159 C140 1.247 . S
C160 O157 1.244 . S
C160 O158 1.240 . S
H161 C135 0.931 . S
H162 C144 0.931 . S
H163 C148 0.929 . S
H164 C150 0.930 . S
Co165 N169 2.148 . S
Co165 N175 2.128 . S
Co165 N185 2.194 . S
Co165 O190 2.351 1_455 S
Co165 O191 2.155 1_455 S
Co165 O192 2.096 . S
C166 N169 1.301 . S
C166 N170 1.328 . S
C166 H171 0.930 . S
C167 C168 1.333 . S
C167 N169 1.317 . S
C167 H172 0.930 . S
C168 C167 1.333 . S
C168 N170 1.350 . S
C168 H194 0.931 . S
N169 Co165 2.148 . S
N169 C166 1.301 . S
N169 C167 1.317 . S
N170 C166 1.328 . S
N170 C168 1.350 . S
H171 C166 0.930 . S
H172 C167 0.930 . S
C173 O174 1.224 . S
C173 O192 1.247 . S
O174 C173 1.224 . S
N175 Co165 2.128 . S
N175 C176 1.355 . S
N175 C178 1.311 . S
C176 N175 1.355 . S
C176 C177 1.363 . S
C176 H188 0.929 . S
C177 C176 1.363 . S
C177 N179 1.375 . S
C177 H195 0.931 . S
C178 N175 1.311 . S
C178 N179 1.347 . S
C178 H189 0.929 . S
N179 C177 1.375 . S
N179 C178 1.347 . S
C180 C183 1.365 . S
C180 N185 1.328 . S
C180 H186 0.929 . S
C181 C182 1.362 . S
C181 C184 1.378 . S
C181 H196 0.929 . S
C182 C181 1.362 . S
C182 C183 1.366 . S
C183 C180 1.365 . S
C183 C182 1.366 . S
C183 H197 0.930 . S
C184 C181 1.378 . S
C184 N185 1.315 . S
C184 H187 0.930 . S
N185 Co165 2.194 . S
N185 C180 1.328 . S
N185 C184 1.315 . S
H186 C180 0.929 . S
H187 C184 0.930 . S
H188 C176 0.929 . S
H189 C178 0.929 . S
O190 Co165 2.351 1_655 S
O190 C193 1.244 . S
O191 Co165 2.155 1_655 S
O191 C193 1.240 . S
O192 Co165 2.096 . S
O192 C173 1.247 . S
C193 O190 1.244 . S
C193 O191 1.240 . S
H194 C168 0.931 . S
H195 C177 0.931 . S
H196 C181 0.929 . S
H197 C183 0.930 . S
Co198 N202 2.148 1_554 S
Co198 N208 2.128 . S
Co198 N218 2.194 . S
Co198 O223 2.351 . S
Co198 O224 2.155 . S
Co198 O225 2.096 . S
C199 N202 1.301 . S
C199 N203 1.328 . S
C199 H204 0.930 . S
C200 C201 1.333 . S
C200 N202 1.317 . S
C200 H205 0.930 . S
C201 C200 1.333 . S
C201 N203 1.350 . S
C201 H227 0.931 . S
N202 Co198 2.148 1_556 S
N202 C199 1.301 . S
N202 C200 1.317 . S
N203 C199 1.328 . S
N203 C201 1.350 . S
H204 C199 0.930 . S
H205 C200 0.930 . S
C206 O207 1.224 . S
C206 O225 1.247 . S
O207 C206 1.224 . S
N208 Co198 2.128 . S
N208 C209 1.355 . S
N208 C211 1.311 . S
C209 N208 1.355 . S
C209 C210 1.363 . S
C209 H221 0.929 . S
C210 C209 1.363 . S
C210 N212 1.375 . S
C210 H228 0.931 . S
C211 N208 1.311 . S
C211 N212 1.347 . S
C211 H222 0.929 . S
N212 C210 1.375 . S
N212 C211 1.347 . S
C213 C216 1.365 . S
C213 N218 1.328 . S
C213 H219 0.929 1_554 S
C214 C215 1.362 . S
C214 C217 1.378 . S
C214 H229 0.929 . S
C215 C214 1.362 . S
C215 C216 1.366 . S
C216 C213 1.365 . S
C216 C215 1.366 . S
C216 H230 0.930 1_554 S
C217 C214 1.378 . S
C217 N218 1.315 . S
C217 H220 0.930 . S
N218 Co198 2.194 . S
N218 C213 1.328 . S
N218 C217 1.315 . S
H219 C213 0.929 1_556 S
H220 C217 0.930 . S
H221 C209 0.929 . S
H222 C211 0.929 . S
O223 Co198 2.351 . S
O223 C226 1.244 . S
O224 Co198 2.155 . S
O224 C226 1.240 . S
O225 Co198 2.096 . S
O225 C206 1.247 . S
C226 O223 1.244 . S
C226 O224 1.240 . S
H227 C201 0.931 . S
H228 C210 0.931 . S
H229 C214 0.929 . S
H230 C216 0.930 1_556 S
Co231 N235 2.148 1_554 S
Co231 N241 2.128 . S
Co231 N251 2.194 . S
Co231 O256 2.351 1_565 S
Co231 O257 2.155 1_565 S
Co231 O258 2.096 . S
C232 N235 1.301 . S
C232 N236 1.328 . S
C232 H237 0.930 . S
C233 C234 1.333 . S
C233 N235 1.317 . S
C233 H238 0.930 . S
C234 C233 1.333 . S
C234 N236 1.350 . S
C234 H260 0.931 . S
N235 Co231 2.148 1_556 S
N235 C232 1.301 . S
N235 C233 1.317 . S
N236 C232 1.328 . S
N236 C234 1.350 . S
H237 C232 0.930 . S
H238 C233 0.930 . S
C239 O240 1.224 . S
C239 O258 1.247 . S
O240 C239 1.224 . S
N241 Co231 2.128 . S
N241 C242 1.355 . S
N241 C244 1.311 . S
C242 N241 1.355 . S
C242 C243 1.363 . S
C242 H254 0.929 . S
C243 C242 1.363 . S
C243 N245 1.375 . S
C243 H261 0.931 . S
C244 N241 1.311 . S
C244 N245 1.347 . S
C244 H255 0.929 . S
N245 C243 1.375 . S
N245 C244 1.347 . S
C246 C249 1.365 . S
C246 N251 1.328 . S
C246 H252 0.929 1_554 S
C247 C248 1.362 . S
C247 C250 1.378 . S
C247 H262 0.929 . S
C248 C247 1.362 . S
C248 C249 1.366 . S
C249 C246 1.365 . S
C249 C248 1.366 . S
C249 H263 0.930 1_554 S
C250 C247 1.378 . S
C250 N251 1.315 . S
C250 H253 0.930 . S
N251 Co231 2.194 . S
N251 C246 1.328 . S
N251 C250 1.315 . S
H252 C246 0.929 1_556 S
H253 C250 0.930 . S
H254 C242 0.929 . S
H255 C244 0.929 . S
O256 Co231 2.351 1_545 S
O256 C259 1.244 . S
O257 Co231 2.155 1_545 S
O257 C259 1.240 . S
O258 Co231 2.096 . S
O258 C239 1.247 . S
C259 O256 1.244 . S
C259 O257 1.240 . S
H260 C234 0.931 . S
H261 C243 0.931 . S
H262 C247 0.929 . S
H263 C249 0.930 1_556 S
Co264 N268 2.148 1_554 S
Co264 N274 2.128 . S
Co264 N284 2.194 . S
Co264 O289 2.351 1_455 S
Co264 O290 2.155 1_455 S
Co264 O291 2.096 . S
C265 N268 1.301 . S
C265 N269 1.328 . S
C265 H270 0.930 . S
C266 C267 1.333 . S
C266 N268 1.317 . S
C266 H271 0.930 . S
C267 C266 1.333 . S
C267 N269 1.350 . S
C267 H293 0.931 . S
N268 Co264 2.148 1_556 S
N268 C265 1.301 . S
N268 C266 1.317 . S
N269 C265 1.328 . S
N269 C267 1.350 . S
H270 C265 0.930 . S
H271 C266 0.930 . S
C272 O273 1.224 . S
C272 O291 1.247 . S
O273 C272 1.224 . S
N274 Co264 2.128 . S
N274 C275 1.355 . S
N274 C277 1.311 . S
C275 N274 1.355 . S
C275 C276 1.363 . S
C275 H287 0.929 . S
C276 C275 1.363 . S
C276 N278 1.375 . S
C276 H294 0.931 . S
C277 N274 1.311 . S
C277 N278 1.347 . S
C277 H288 0.929 . S
N278 C276 1.375 . S
N278 C277 1.347 . S
C279 C282 1.365 . S
C279 N284 1.328 . S
C279 H285 0.929 1_554 S
C280 C281 1.362 . S
C280 C283 1.378 . S
C280 H295 0.929 . S
C281 C280 1.362 . S
C281 C282 1.366 . S
C282 C279 1.365 . S
C282 C281 1.366 . S
C282 H296 0.930 1_554 S
C283 C280 1.378 . S
C283 N284 1.315 . S
C283 H286 0.930 . S
N284 Co264 2.194 . S
N284 C279 1.328 . S
N284 C283 1.315 . S
H285 C279 0.929 1_556 S
H286 C283 0.930 . S
H287 C275 0.929 . S
H288 C277 0.929 . S
O289 Co264 2.351 1_655 S
O289 C292 1.244 . S
O290 Co264 2.155 1_655 S
O290 C292 1.240 . S
O291 Co264 2.096 . S
O291 C272 1.247 . S
C292 O289 1.244 . S
C292 O290 1.240 . S
H293 C267 0.931 . S
H294 C276 0.931 . S
H295 C280 0.929 . S
H296 C282 0.930 1_556 S
Co297 N301 2.148 . S
Co297 N307 2.128 . S
Co297 N317 2.194 . S
Co297 O322 2.351 . S
Co297 O323 2.155 . S
Co297 O324 2.096 . S
C298 N301 1.301 . S
C298 N302 1.328 . S
C298 H303 0.930 . S
C299 C300 1.333 . S
C299 N301 1.317 . S
C299 H304 0.930 . S
C300 C299 1.333 . S
C300 N302 1.350 . S
C300 H326 0.931 . S
N301 Co297 2.148 . S
N301 C298 1.301 . S
N301 C299 1.317 . S
N302 C298 1.328 . S
N302 C300 1.350 . S
H303 C298 0.930 . S
H304 C299 0.930 . S
C305 O306 1.224 . S
C305 O324 1.247 . S
O306 C305 1.224 . S
N307 Co297 2.128 . S
N307 C308 1.355 . S
N307 C310 1.311 . S
C308 N307 1.355 . S
C308 C309 1.363 . S
C308 H320 0.929 . S
C309 C308 1.363 . S
C309 N311 1.375 . S
C309 H327 0.931 . S
C310 N307 1.311 . S
C310 N311 1.347 . S
C310 H321 0.929 . S
N311 C309 1.375 . S
N311 C310 1.347 . S
C312 C315 1.365 . S
C312 N317 1.328 . S
C312 H318 0.929 . S
C313 C314 1.362 . S
C313 C316 1.378 . S
C313 H328 0.929 . S
C314 C313 1.362 . S
C314 C315 1.366 . S
C315 C312 1.365 . S
C315 C314 1.366 . S
C315 H329 0.930 . S
C316 C313 1.378 . S
C316 N317 1.315 . S
C316 H319 0.930 . S
N317 Co297 2.194 . S
N317 C312 1.328 . S
N317 C316 1.315 . S
H318 C312 0.929 . S
H319 C316 0.930 . S
H320 C308 0.929 . S
H321 C310 0.929 . S
O322 Co297 2.351 . S
O322 C325 1.244 . S
O323 Co297 2.155 . S
O323 C325 1.240 . S
O324 Co297 2.096 . S
O324 C305 1.247 . S
C325 O322 1.244 . S
C325 O323 1.240 . S
H326 C300 0.931 . S
H327 C309 0.931 . S
H328 C313 0.929 . S
H329 C315 0.930 . S
Co330 N334 2.148 . S
Co330 N340 2.128 . S
Co330 N350 2.194 . S
Co330 O355 2.351 1_545 S
Co330 O356 2.155 1_545 S
Co330 O357 2.096 . S
C331 N334 1.301 . S
C331 N335 1.328 . S
C331 H336 0.930 . S
C332 C333 1.333 . S
C332 N334 1.317 . S
C332 H337 0.930 . S
C333 C332 1.333 . S
C333 N335 1.350 . S
C333 H359 0.931 . S
N334 Co330 2.148 . S
N334 C331 1.301 . S
N334 C332 1.317 . S
N335 C331 1.328 . S
N335 C333 1.350 . S
H336 C331 0.930 . S
H337 C332 0.930 . S
C338 O339 1.224 . S
C338 O357 1.247 . S
O339 C338 1.224 . S
N340 Co330 2.128 . S
N340 C341 1.355 . S
N340 C343 1.311 . S
C341 N340 1.355 . S
C341 C342 1.363 . S
C341 H353 0.929 . S
C342 C341 1.363 . S
C342 N344 1.375 . S
C342 H360 0.931 . S
C343 N340 1.311 . S
C343 N344 1.347 . S
C343 H354 0.929 . S
N344 C342 1.375 . S
N344 C343 1.347 . S
C345 C348 1.365 . S
C345 N350 1.328 . S
C345 H351 0.929 . S
C346 C347 1.362 . S
C346 C349 1.378 . S
C346 H361 0.929 . S
C347 C346 1.362 . S
C347 C348 1.366 . S
C348 C345 1.365 . S
C348 C347 1.366 . S
C348 H362 0.930 . S
C349 C346 1.378 . S
C349 N350 1.315 . S
C349 H352 0.930 . S
N350 Co330 2.194 . S
N350 C345 1.328 . S
N350 C349 1.315 . S
H351 C345 0.929 . S
H352 C349 0.930 . S
H353 C341 0.929 . S
H354 C343 0.929 . S
O355 Co330 2.351 1_565 S
O355 C358 1.244 . S
O356 Co330 2.155 1_565 S
O356 C358 1.240 . S
O357 Co330 2.096 . S
O357 C338 1.247 . S
C358 O355 1.244 . S
C358 O356 1.240 . S
H359 C333 0.931 . S
H360 C342 0.931 . S
H361 C346 0.929 . S
H362 C348 0.930 . S
Co363 N367 2.148 . S
Co363 N373 2.128 . S
Co363 N383 2.194 . S
Co363 O388 2.351 1_655 S
Co363 O389 2.155 1_655 S
Co363 O390 2.096 . S
C364 N367 1.301 . S
C364 N368 1.328 . S
C364 H369 0.930 . S
C365 C366 1.333 . S
C365 N367 1.317 . S
C365 H370 0.930 . S
C366 C365 1.333 . S
C366 N368 1.350 . S
C366 H392 0.931 . S
N367 Co363 2.148 . S
N367 C364 1.301 . S
N367 C365 1.317 . S
N368 C364 1.328 . S
N368 C366 1.350 . S
H369 C364 0.930 . S
H370 C365 0.930 . S
C371 O372 1.224 . S
C371 O390 1.247 . S
O372 C371 1.224 . S
N373 Co363 2.128 . S
N373 C374 1.355 . S
N373 C376 1.311 . S
C374 N373 1.355 . S
C374 C375 1.363 . S
C374 H386 0.929 . S
C375 C374 1.363 . S
C375 N377 1.375 . S
C375 H393 0.931 . S
C376 N373 1.311 . S
C376 N377 1.347 . S
C376 H387 0.929 . S
N377 C375 1.375 . S
N377 C376 1.347 . S
C378 C381 1.365 . S
C378 N383 1.328 . S
C378 H384 0.929 . S
C379 C380 1.362 . S
C379 C382 1.378 . S
C379 H394 0.929 . S
C380 C379 1.362 . S
C380 C381 1.366 . S
C381 C378 1.365 . S
C381 C380 1.366 . S
C381 H395 0.930 . S
C382 C379 1.378 . S
C382 N383 1.315 . S
C382 H385 0.930 . S
N383 Co363 2.194 . S
N383 C378 1.328 . S
N383 C382 1.315 . S
H384 C378 0.929 . S
H385 C382 0.930 . S
H386 C374 0.929 . S
H387 C376 0.929 . S
O388 Co363 2.351 1_455 S
O388 C391 1.244 . S
O389 Co363 2.155 1_455 S
O389 C391 1.240 . S
O390 Co363 2.096 . S
O390 C371 1.247 . S
C391 O388 1.244 . S
C391 O389 1.240 . S
H392 C366 0.931 . S
H393 C375 0.931 . S
H394 C379 0.929 . S
H395 C381 0.930 . S
Co396 N400 2.148 . S
Co396 N406 2.128 . S
Co396 N416 2.194 . S
Co396 O421 2.351 . S
Co396 O422 2.155 . S
Co396 O423 2.096 . S
C397 N400 1.301 . S
C397 N401 1.328 . S
C397 H402 0.930 . S
C398 C399 1.333 . S
C398 N400 1.317 . S
C398 H403 0.930 . S
C399 C398 1.333 . S
C399 N401 1.350 . S
C399 H425 0.931 . S
N400 Co396 2.148 . S
N400 C397 1.301 . S
N400 C398 1.317 . S
N401 C397 1.328 . S
N401 C399 1.350 . S
H402 C397 0.930 . S
H403 C398 0.930 . S
C404 O405 1.224 . S
C404 O423 1.247 . S
O405 C404 1.224 . S
N406 Co396 2.128 . S
N406 C407 1.355 . S
N406 C409 1.311 . S
C407 N406 1.355 . S
C407 C408 1.363 . S
C407 H419 0.929 . S
C408 C407 1.363 . S
C408 N410 1.375 . S
C408 H426 0.931 . S
C409 N406 1.311 . S
C409 N410 1.347 . S
C409 H420 0.929 . S
N410 C408 1.375 . S
N410 C409 1.347 . S
C411 C414 1.365 . S
C411 N416 1.328 . S
C411 H417 0.929 . S
C412 C413 1.362 . S
C412 C415 1.378 . S
C412 H427 0.929 . S
C413 C412 1.362 . S
C413 C414 1.366 . S
C414 C411 1.365 . S
C414 C413 1.366 . S
C414 H428 0.930 . S
C415 C412 1.378 . S
C415 N416 1.315 . S
C415 H418 0.930 . S
N416 Co396 2.194 . S
N416 C411 1.328 . S
N416 C415 1.315 . S
H417 C411 0.929 . S
H418 C415 0.930 . S
H419 C407 0.929 . S
H420 C409 0.929 . S
O421 Co396 2.351 . S
O421 C424 1.244 . S
O422 Co396 2.155 . S
O422 C424 1.240 . S
O423 Co396 2.096 . S
O423 C404 1.247 . S
C424 O421 1.244 . S
C424 O422 1.240 . S
H425 C399 0.931 . S
H426 C408 0.931 . S
H427 C412 0.929 . S
H428 C414 0.930 . S
Co429 N433 2.148 . S
Co429 N439 2.128 . S
Co429 N449 2.194 . S
Co429 O454 2.351 . S
Co429 O455 2.155 . S
Co429 O456 2.096 . S
C430 N433 1.301 . S
C430 N434 1.328 . S
C430 H435 0.930 . S
C431 C432 1.333 . S
C431 N433 1.317 . S
C431 H436 0.930 . S
C432 C431 1.333 . S
C432 N434 1.350 . S
C432 H458 0.931 . S
N433 Co429 2.148 . S
N433 C430 1.301 . S
N433 C431 1.317 . S
N434 C430 1.328 . S
N434 C432 1.350 . S
H435 C430 0.930 . S
H436 C431 0.930 . S
C437 O438 1.224 . S
C437 O456 1.247 . S
O438 C437 1.224 . S
N439 Co429 2.128 . S
N439 C440 1.355 . S
N439 C442 1.311 . S
C440 N439 1.355 . S
C440 C441 1.363 . S
C440 H452 0.929 . S
C441 C440 1.363 . S
C441 N443 1.375 . S
C441 H459 0.931 . S
C442 N439 1.311 . S
C442 N443 1.347 . S
C442 H453 0.929 . S
N443 C441 1.375 . S
N443 C442 1.347 . S
C444 C447 1.365 . S
C444 N449 1.328 . S
C444 H450 0.929 . S
C445 C446 1.362 . S
C445 C448 1.378 . S
C445 H460 0.929 . S
C446 C445 1.362 . S
C446 C447 1.366 . S
C447 C444 1.365 . S
C447 C446 1.366 . S
C447 H461 0.930 . S
C448 C445 1.378 . S
C448 N449 1.315 . S
C448 H451 0.930 . S
N449 Co429 2.194 . S
N449 C444 1.328 . S
N449 C448 1.315 . S
H450 C444 0.929 . S
H451 C448 0.930 . S
H452 C440 0.929 . S
H453 C442 0.929 . S
O454 Co429 2.351 . S
O454 C457 1.244 . S
O455 Co429 2.155 . S
O455 C457 1.240 . S
O456 Co429 2.096 . S
O456 C437 1.247 . S
C457 O454 1.244 . S
C457 O455 1.240 . S
H458 C432 0.931 . S
H459 C441 0.931 . S
H460 C445 0.929 . S
H461 C447 0.930 . S
Co462 N466 2.148 . S
Co462 N472 2.128 . S
Co462 N482 2.194 . S
Co462 O487 2.351 . S
Co462 O488 2.155 . S
Co462 O489 2.096 . S
C463 N466 1.301 . S
C463 N467 1.328 . S
C463 H468 0.930 . S
C464 C465 1.333 . S
C464 N466 1.317 . S
C464 H469 0.930 . S
C465 C464 1.333 . S
C465 N467 1.350 . S
C465 H491 0.931 . S
N466 Co462 2.148 . S
N466 C463 1.301 . S
N466 C464 1.317 . S
N467 C463 1.328 . S
N467 C465 1.350 . S
H468 C463 0.930 . S
H469 C464 0.930 . S
C470 O471 1.224 . S
C470 O489 1.247 . S
O471 C470 1.224 . S
N472 Co462 2.128 . S
N472 C473 1.355 . S
N472 C475 1.311 . S
C473 N472 1.355 . S
C473 C474 1.363 . S
C473 H485 0.929 . S
C474 C473 1.363 . S
C474 N476 1.375 . S
C474 H492 0.931 . S
C475 N472 1.311 . S
C475 N476 1.347 . S
C475 H486 0.929 . S
N476 C474 1.375 . S
N476 C475 1.347 . S
C477 C480 1.365 . S
C477 N482 1.328 . S
C477 H483 0.929 . S
C478 C479 1.362 . S
C478 C481 1.378 . S
C478 H493 0.929 . S
C479 C478 1.362 . S
C479 C480 1.366 . S
C480 C477 1.365 . S
C480 C479 1.366 . S
C480 H494 0.930 . S
C481 C478 1.378 . S
C481 N482 1.315 . S
C481 H484 0.930 . S
N482 Co462 2.194 . S
N482 C477 1.328 . S
N482 C481 1.315 . S
H483 C477 0.929 . S
H484 C481 0.930 . S
H485 C473 0.929 . S
H486 C475 0.929 . S
O487 Co462 2.351 . S
O487 C490 1.244 . S
O488 Co462 2.155 . S
O488 C490 1.240 . S
O489 Co462 2.096 . S
O489 C470 1.247 . S
C490 O487 1.244 . S
C490 O488 1.240 . S
H491 C465 0.931 . S
H492 C474 0.931 . S
H493 C478 0.929 . S
H494 C480 0.930 . S
Co495 N499 2.148 . S
Co495 N505 2.128 . S
Co495 N515 2.194 . S
Co495 O520 2.351 . S
Co495 O521 2.155 . S
Co495 O522 2.096 . S
C496 N499 1.301 . S
C496 N500 1.328 . S
C496 H501 0.930 . S
C497 C498 1.333 . S
C497 N499 1.317 . S
C497 H502 0.930 . S
C498 C497 1.333 . S
C498 N500 1.350 . S
C498 H524 0.931 . S
N499 Co495 2.148 . S
N499 C496 1.301 . S
N499 C497 1.317 . S
N500 C496 1.328 . S
N500 C498 1.350 . S
H501 C496 0.930 . S
H502 C497 0.930 . S
C503 O504 1.224 . S
C503 O522 1.247 . S
O504 C503 1.224 . S
N505 Co495 2.128 . S
N505 C506 1.355 . S
N505 C508 1.311 . S
C506 N505 1.355 . S
C506 C507 1.363 1_556 S
C506 H518 0.929 . S
C507 C506 1.363 1_554 S
C507 N509 1.375 . S
C507 H525 0.931 . S
C508 N505 1.311 . S
C508 N509 1.347 1_556 S
C508 H519 0.929 . S
N509 C507 1.375 . S
N509 C508 1.347 1_554 S
C510 C513 1.365 . S
C510 N515 1.328 . S
C510 H516 0.929 . S
C511 C512 1.362 . S
C511 C514 1.378 . S
C511 H526 0.929 . S
C512 C511 1.362 . S
C512 C513 1.366 . S
C513 C510 1.365 . S
C513 C512 1.366 . S
C513 H527 0.930 . S
C514 C511 1.378 . S
C514 N515 1.315 . S
C514 H517 0.930 . S
N515 Co495 2.194 . S
N515 C510 1.328 . S
N515 C514 1.315 . S
H516 C510 0.929 . S
H517 C514 0.930 . S
H518 C506 0.929 . S
H519 C508 0.929 . S
O520 Co495 2.351 . S
O520 C523 1.244 . S
O521 Co495 2.155 . S
O521 C523 1.240 . S
O522 Co495 2.096 . S
O522 C503 1.247 . S
C523 O520 1.244 . S
C523 O521 1.240 . S
H524 C498 0.931 . S
H525 C507 0.931 . S
H526 C511 0.929 . S
H527 C513 0.930 . S
Co528 N532 2.148 . S
Co528 N538 2.128 . S
Co528 N548 2.194 . S
Co528 O553 2.351 . S
Co528 O554 2.155 . S
Co528 O555 2.096 . S
C529 N532 1.301 . S
C529 N533 1.328 . S
C529 H534 0.930 . S
C530 C531 1.333 . S
C530 N532 1.317 . S
C530 H535 0.930 . S
C531 C530 1.333 . S
C531 N533 1.350 . S
C531 H557 0.931 . S
N532 Co528 2.148 . S
N532 C529 1.301 . S
N532 C530 1.317 . S
N533 C529 1.328 . S
N533 C531 1.350 . S
H534 C529 0.930 . S
H535 C530 0.930 . S
C536 O537 1.224 . S
C536 O555 1.247 . S
O537 C536 1.224 . S
N538 Co528 2.128 . S
N538 C539 1.355 . S
N538 C541 1.311 . S
C539 N538 1.355 . S
C539 C540 1.363 1_556 S
C539 H551 0.929 . S
C540 C539 1.363 1_554 S
C540 N542 1.375 . S
C540 H558 0.931 . S
C541 N538 1.311 . S
C541 N542 1.347 1_556 S
C541 H552 0.929 . S
N542 C540 1.375 . S
N542 C541 1.347 1_554 S
C543 C546 1.365 . S
C543 N548 1.328 . S
C543 H549 0.929 . S
C544 C545 1.362 . S
C544 C547 1.378 . S
C544 H559 0.929 . S
C545 C544 1.362 . S
C545 C546 1.366 . S
C546 C543 1.365 . S
C546 C545 1.366 . S
C546 H560 0.930 . S
C547 C544 1.378 . S
C547 N548 1.315 . S
C547 H550 0.930 . S
N548 Co528 2.194 . S
N548 C543 1.328 . S
N548 C547 1.315 . S
H549 C543 0.929 . S
H550 C547 0.930 . S
H551 C539 0.929 . S
H552 C541 0.929 . S
O553 Co528 2.351 . S
O553 C556 1.244 . S
O554 Co528 2.155 . S
O554 C556 1.240 . S
O555 Co528 2.096 . S
O555 C536 1.247 . S
C556 O553 1.244 . S
C556 O554 1.240 . S
H557 C531 0.931 . S
H558 C540 0.931 . S
H559 C544 0.929 . S
H560 C546 0.930 . S
Co561 N565 2.148 . S
Co561 N571 2.128 . S
Co561 N581 2.194 . S
Co561 O586 2.351 . S
Co561 O587 2.155 . S
Co561 O588 2.096 . S
C562 N565 1.301 . S
C562 N566 1.328 . S
C562 H567 0.930 . S
C563 C564 1.333 . S
C563 N565 1.317 . S
C563 H568 0.930 . S
C564 C563 1.333 . S
C564 N566 1.350 . S
C564 H590 0.931 . S
N565 Co561 2.148 . S
N565 C562 1.301 . S
N565 C563 1.317 . S
N566 C562 1.328 . S
N566 C564 1.350 . S
H567 C562 0.930 . S
H568 C563 0.930 . S
C569 O570 1.224 . S
C569 O588 1.247 . S
O570 C569 1.224 . S
N571 Co561 2.128 . S
N571 C572 1.355 . S
N571 C574 1.311 . S
C572 N571 1.355 . S
C572 C573 1.363 1_556 S
C572 H584 0.929 . S
C573 C572 1.363 1_554 S
C573 N575 1.375 . S
C573 H591 0.931 . S
C574 N571 1.311 . S
C574 N575 1.347 1_556 S
C574 H585 0.929 . S
N575 C573 1.375 . S
N575 C574 1.347 1_554 S
C576 C579 1.365 . S
C576 N581 1.328 . S
C576 H582 0.929 . S
C577 C578 1.362 . S
C577 C580 1.378 . S
C577 H592 0.929 . S
C578 C577 1.362 . S
C578 C579 1.366 . S
C579 C576 1.365 . S
C579 C578 1.366 . S
C579 H593 0.930 . S
C580 C577 1.378 . S
C580 N581 1.315 . S
C580 H583 0.930 . S
N581 Co561 2.194 . S
N581 C576 1.328 . S
N581 C580 1.315 . S
H582 C576 0.929 . S
H583 C580 0.930 . S
H584 C572 0.929 . S
H585 C574 0.929 . S
O586 Co561 2.351 . S
O586 C589 1.244 . S
O587 Co561 2.155 . S
O587 C589 1.240 . S
O588 Co561 2.096 . S
O588 C569 1.247 . S
C589 O586 1.244 . S
C589 O587 1.240 . S
H590 C564 0.931 . S
H591 C573 0.931 . S
H592 C577 0.929 . S
H593 C579 0.930 . S
Co594 N598 2.148 . S
Co594 N604 2.128 . S
Co594 N614 2.194 . S
Co594 O619 2.351 . S
Co594 O620 2.155 . S
Co594 O621 2.096 . S
C595 N598 1.301 . S
C595 N599 1.328 . S
C595 H600 0.930 . S
C596 C597 1.333 . S
C596 N598 1.317 . S
C596 H601 0.930 . S
C597 C596 1.333 . S
C597 N599 1.350 . S
C597 H623 0.931 . S
N598 Co594 2.148 . S
N598 C595 1.301 . S
N598 C596 1.317 . S
N599 C595 1.328 . S
N599 C597 1.350 . S
H600 C595 0.930 . S
H601 C596 0.930 . S
C602 O603 1.224 . S
C602 O621 1.247 . S
O603 C602 1.224 . S
N604 Co594 2.128 . S
N604 C605 1.355 . S
N604 C607 1.311 . S
C605 N604 1.355 . S
C605 C606 1.363 . S
C605 H617 0.929 . S
C606 C605 1.363 . S
C606 N608 1.375 . S
C606 H624 0.931 . S
C607 N604 1.311 . S
C607 N608 1.347 . S
C607 H618 0.929 . S
N608 C606 1.375 . S
N608 C607 1.347 . S
C609 C612 1.365 . S
C609 N614 1.328 . S
C609 H615 0.929 . S
C610 C611 1.362 . S
C610 C613 1.378 . S
C610 H625 0.929 . S
C611 C610 1.362 . S
C611 C612 1.366 . S
C612 C609 1.365 . S
C612 C611 1.366 . S
C612 H626 0.930 . S
C613 C610 1.378 . S
C613 N614 1.315 . S
C613 H616 0.930 . S
N614 Co594 2.194 . S
N614 C609 1.328 . S
N614 C613 1.315 . S
H615 C609 0.929 . S
H616 C613 0.930 . S
H617 C605 0.929 . S
H618 C607 0.929 . S
O619 Co594 2.351 . S
O619 C622 1.244 . S
O620 Co594 2.155 . S
O620 C622 1.240 . S
O621 Co594 2.096 . S
O621 C602 1.247 . S
C622 O619 1.244 . S
C622 O620 1.240 . S
H623 C597 0.931 . S
H624 C606 0.931 . S
H625 C610 0.929 . S
H626 C612 0.930 . S
Co627 N631 2.148 . S
Co627 N637 2.128 . S
Co627 N647 2.194 . S
Co627 O652 2.351 . S
Co627 O653 2.155 . S
Co627 O654 2.096 . S
C628 N631 1.301 . S
C628 N632 1.328 . S
C628 H633 0.930 . S
C629 C630 1.333 . S
C629 N631 1.317 . S
C629 H634 0.930 . S
C630 C629 1.333 . S
C630 N632 1.350 . S
C630 H656 0.931 . S
N631 Co627 2.148 . S
N631 C628 1.301 . S
N631 C629 1.317 . S
N632 C628 1.328 . S
N632 C630 1.350 . S
H633 C628 0.930 . S
H634 C629 0.930 . S
C635 O636 1.224 . S
C635 O654 1.247 . S
O636 C635 1.224 . S
N637 Co627 2.128 . S
N637 C638 1.355 . S
N637 C640 1.311 . S
C638 N637 1.355 . S
C638 C639 1.363 . S
C638 H650 0.929 . S
C639 C638 1.363 . S
C639 N641 1.375 . S
C639 H657 0.931 . S
C640 N637 1.311 . S
C640 N641 1.347 . S
C640 H651 0.929 . S
N641 C639 1.375 . S
N641 C640 1.347 . S
C642 C645 1.365 . S
C642 N647 1.328 . S
C642 H648 0.929 . S
C643 C644 1.362 . S
C643 C646 1.378 . S
C643 H658 0.929 . S
C644 C643 1.362 . S
C644 C645 1.366 . S
C645 C642 1.365 . S
C645 C644 1.366 . S
C645 H659 0.930 . S
C646 C643 1.378 . S
C646 N647 1.315 . S
C646 H649 0.930 . S
N647 Co627 2.194 . S
N647 C642 1.328 . S
N647 C646 1.315 . S
H648 C642 0.929 . S
H649 C646 0.930 . S
H650 C638 0.929 . S
H651 C640 0.929 . S
O652 Co627 2.351 . S
O652 C655 1.244 . S
O653 Co627 2.155 . S
O653 C655 1.240 . S
O654 Co627 2.096 . S
O654 C635 1.247 . S
C655 O652 1.244 . S
C655 O653 1.240 . S
H656 C630 0.931 . S
H657 C639 0.931 . S
H658 C643 0.929 . S
H659 C645 0.930 . S
Co660 N664 2.148 . S
Co660 N670 2.128 . S
Co660 N680 2.194 . S
Co660 O685 2.351 . S
Co660 O686 2.155 . S
Co660 O687 2.096 . S
C661 N664 1.301 . S
C661 N665 1.328 . S
C661 H666 0.930 . S
C662 C663 1.333 . S
C662 N664 1.317 . S
C662 H667 0.930 . S
C663 C662 1.333 . S
C663 N665 1.350 . S
C663 H689 0.931 . S
N664 Co660 2.148 . S
N664 C661 1.301 . S
N664 C662 1.317 . S
N665 C661 1.328 . S
N665 C663 1.350 . S
H666 C661 0.930 . S
H667 C662 0.930 . S
C668 O669 1.224 . S
C668 O687 1.247 . S
O669 C668 1.224 . S
N670 Co660 2.128 . S
N670 C671 1.355 . S
N670 C673 1.311 . S
C671 N670 1.355 . S
C671 C672 1.363 . S
C671 H683 0.929 . S
C672 C671 1.363 . S
C672 N674 1.375 . S
C672 H690 0.931 . S
C673 N670 1.311 . S
C673 N674 1.347 . S
C673 H684 0.929 . S
N674 C672 1.375 . S
N674 C673 1.347 . S
C675 C678 1.365 . S
C675 N680 1.328 . S
C675 H681 0.929 . S
C676 C677 1.362 . S
C676 C679 1.378 . S
C676 H691 0.929 . S
C677 C676 1.362 . S
C677 C678 1.366 . S
C678 C675 1.365 . S
C678 C677 1.366 . S
C678 H692 0.930 . S
C679 C676 1.378 . S
C679 N680 1.315 . S
C679 H682 0.930 . S
N680 Co660 2.194 . S
N680 C675 1.328 . S
N680 C679 1.315 . S
H681 C675 0.929 . S
H682 C679 0.930 . S
H683 C671 0.929 . S
H684 C673 0.929 . S
O685 Co660 2.351 . S
O685 C688 1.244 . S
O686 Co660 2.155 . S
O686 C688 1.240 . S
O687 Co660 2.096 . S
O687 C668 1.247 . S
C688 O685 1.244 . S
C688 O686 1.240 . S
H689 C663 0.931 . S
H690 C672 0.931 . S
H691 C676 0.929 . S
H692 C678 0.930 . S
Co693 N697 2.148 . S
Co693 N703 2.128 . S
Co693 N713 2.194 . S
Co693 O718 2.351 . S
Co693 O719 2.155 . S
Co693 O720 2.096 . S
C694 N697 1.301 . S
C694 N698 1.328 . S
C694 H699 0.930 . S
C695 C696 1.333 . S
C695 N697 1.317 . S
C695 H700 0.930 . S
C696 C695 1.333 . S
C696 N698 1.350 . S
C696 H722 0.931 1_556 S
N697 Co693 2.148 . S
N697 C694 1.301 . S
N697 C695 1.317 . S
N698 C694 1.328 . S
N698 C696 1.350 . S
H699 C694 0.930 . S
H700 C695 0.930 . S
C701 O702 1.224 . S
C701 O720 1.247 . S
O702 C701 1.224 . S
N703 Co693 2.128 . S
N703 C704 1.355 . S
N703 C706 1.311 . S
C704 N703 1.355 . S
C704 C705 1.363 . S
C704 H716 0.929 . S
C705 C704 1.363 . S
C705 N707 1.375 . S
C705 H723 0.931 . S
C706 N703 1.311 . S
C706 N707 1.347 . S
C706 H717 0.929 . S
N707 C705 1.375 . S
N707 C706 1.347 . S
C708 C711 1.365 . S
C708 N713 1.328 . S
C708 H714 0.929 . S
C709 C710 1.362 . S
C709 C712 1.378 . S
C709 H724 0.929 . S
C710 C709 1.362 . S
C710 C711 1.366 . S
C711 C708 1.365 . S
C711 C710 1.366 . S
C711 H725 0.930 . S
C712 C709 1.378 . S
C712 N713 1.315 . S
C712 H715 0.930 . S
N713 Co693 2.194 . S
N713 C708 1.328 . S
N713 C712 1.315 . S
H714 C708 0.929 . S
H715 C712 0.930 . S
H716 C704 0.929 . S
H717 C706 0.929 . S
O718 Co693 2.351 . S
O718 C721 1.244 . S
O719 Co693 2.155 . S
O719 C721 1.240 . S
O720 Co693 2.096 . S
O720 C701 1.247 . S
C721 O718 1.244 . S
C721 O719 1.240 . S
H722 C696 0.931 1_554 S
H723 C705 0.931 . S
H724 C709 0.929 . S
H725 C711 0.930 . S
Co726 N730 2.148 . S
Co726 N736 2.128 . S
Co726 N746 2.194 . S
Co726 O751 2.351 . S
Co726 O752 2.155 . S
Co726 O753 2.096 . S
C727 N730 1.301 . S
C727 N731 1.328 . S
C727 H732 0.930 . S
C728 C729 1.333 . S
C728 N730 1.317 . S
C728 H733 0.930 . S
C729 C728 1.333 . S
C729 N731 1.350 . S
C729 H755 0.931 1_556 S
N730 Co726 2.148 . S
N730 C727 1.301 . S
N730 C728 1.317 . S
N731 C727 1.328 . S
N731 C729 1.350 . S
H732 C727 0.930 . S
H733 C728 0.930 . S
C734 O735 1.224 . S
C734 O753 1.247 . S
O735 C734 1.224 . S
N736 Co726 2.128 . S
N736 C737 1.355 . S
N736 C739 1.311 . S
C737 N736 1.355 . S
C737 C738 1.363 . S
C737 H749 0.929 . S
C738 C737 1.363 . S
C738 N740 1.375 . S
C738 H756 0.931 . S
C739 N736 1.311 . S
C739 N740 1.347 . S
C739 H750 0.929 . S
N740 C738 1.375 . S
N740 C739 1.347 . S
C741 C744 1.365 . S
C741 N746 1.328 . S
C741 H747 0.929 . S
C742 C743 1.362 . S
C742 C745 1.378 . S
C742 H757 0.929 . S
C743 C742 1.362 . S
C743 C744 1.366 . S
C744 C741 1.365 . S
C744 C743 1.366 . S
C744 H758 0.930 . S
C745 C742 1.378 . S
C745 N746 1.315 . S
C745 H748 0.930 . S
N746 Co726 2.194 . S
N746 C741 1.328 . S
N746 C745 1.315 . S
H747 C741 0.929 . S
H748 C745 0.930 . S
H749 C737 0.929 . S
H750 C739 0.929 . S
O751 Co726 2.351 . S
O751 C754 1.244 . S
O752 Co726 2.155 . S
O752 C754 1.240 . S
O753 Co726 2.096 . S
O753 C734 1.247 . S
C754 O751 1.244 . S
C754 O752 1.240 . S
H755 C729 0.931 1_554 S
H756 C738 0.931 . S
H757 C742 0.929 . S
H758 C744 0.930 . S
Co759 N763 2.148 . S
Co759 N769 2.128 . S
Co759 N779 2.194 . S
Co759 O784 2.351 . S
Co759 O785 2.155 . S
Co759 O786 2.096 . S
C760 N763 1.301 . S
C760 N764 1.328 . S
C760 H765 0.930 . S
C761 C762 1.333 . S
C761 N763 1.317 . S
C761 H766 0.930 . S
C762 C761 1.333 . S
C762 N764 1.350 . S
C762 H788 0.931 1_556 S
N763 Co759 2.148 . S
N763 C760 1.301 . S
N763 C761 1.317 . S
N764 C760 1.328 . S
N764 C762 1.350 . S
H765 C760 0.930 . S
H766 C761 0.930 . S
C767 O768 1.224 . S
C767 O786 1.247 . S
O768 C767 1.224 . S
N769 Co759 2.128 . S
N769 C770 1.355 . S
N769 C772 1.311 . S
C770 N769 1.355 . S
C770 C771 1.363 . S
C770 H782 0.929 . S
C771 C770 1.363 . S
C771 N773 1.375 . S
C771 H789 0.931 . S
C772 N769 1.311 . S
C772 N773 1.347 . S
C772 H783 0.929 . S
N773 C771 1.375 . S
N773 C772 1.347 . S
C774 C777 1.365 . S
C774 N779 1.328 . S
C774 H780 0.929 . S
C775 C776 1.362 . S
C775 C778 1.378 . S
C775 H790 0.929 . S
C776 C775 1.362 . S
C776 C777 1.366 . S
C777 C774 1.365 . S
C777 C776 1.366 . S
C777 H791 0.930 . S
C778 C775 1.378 . S
C778 N779 1.315 . S
C778 H781 0.930 . S
N779 Co759 2.194 . S
N779 C774 1.328 . S
N779 C778 1.315 . S
H780 C774 0.929 . S
H781 C778 0.930 . S
H782 C770 0.929 . S
H783 C772 0.929 . S
O784 Co759 2.351 . S
O784 C787 1.244 . S
O785 Co759 2.155 . S
O785 C787 1.240 . S
O786 Co759 2.096 . S
O786 C767 1.247 . S
C787 O784 1.244 . S
C787 O785 1.240 . S
H788 C762 0.931 1_554 S
H789 C771 0.931 . S
H790 C775 0.929 . S
H791 C777 0.930 . S
Co792 N796 2.148 . S
Co792 N802 2.128 . S
Co792 N812 2.194 . S
Co792 O817 2.351 . S
Co792 O818 2.155 . S
Co792 O819 2.096 . S
C793 N796 1.301 . S
C793 N797 1.328 . S
C793 H798 0.930 . S
C794 C795 1.333 . S
C794 N796 1.317 . S
C794 H799 0.930 . S
C795 C794 1.333 . S
C795 N797 1.350 . S
C795 H821 0.931 . S
N796 Co792 2.148 . S
N796 C793 1.301 . S
N796 C794 1.317 . S
N797 C793 1.328 . S
N797 C795 1.350 . S
H798 C793 0.930 . S
H799 C794 0.930 . S
C800 O801 1.224 . S
C800 O819 1.247 . S
O801 C800 1.224 . S
N802 Co792 2.128 . S
N802 C803 1.355 . S
N802 C805 1.311 . S
C803 N802 1.355 . S
C803 C804 1.363 . S
C803 H815 0.929 . S
C804 C803 1.363 . S
C804 N806 1.375 . S
C804 H822 0.931 . S
C805 N802 1.311 . S
C805 N806 1.347 . S
C805 H816 0.929 . S
N806 C804 1.375 . S
N806 C805 1.347 . S
C807 C810 1.365 . S
C807 N812 1.328 . S
C807 H813 0.929 . S
C808 C809 1.362 . S
C808 C811 1.378 . S
C808 H823 0.929 . S
C809 C808 1.362 . S
C809 C810 1.366 . S
C810 C807 1.365 . S
C810 C809 1.366 . S
C810 H824 0.930 . S
C811 C808 1.378 . S
C811 N812 1.315 . S
C811 H814 0.930 . S
N812 Co792 2.194 . S
N812 C807 1.328 . S
N812 C811 1.315 . S
H813 C807 0.929 . S
H814 C811 0.930 . S
H815 C803 0.929 . S
H816 C805 0.929 . S
O817 Co792 2.351 . S
O817 C820 1.244 . S
O818 Co792 2.155 . S
O818 C820 1.240 . S
O819 Co792 2.096 . S
O819 C800 1.247 . S
C820 O817 1.244 . S
C820 O818 1.240 . S
H821 C795 0.931 . S
H822 C804 0.931 . S
H823 C808 0.929 . S
H824 C810 0.930 . S
Co825 N829 2.148 . S
Co825 N835 2.128 . S
Co825 N845 2.194 . S
Co825 O850 2.351 . S
Co825 O851 2.155 . S
Co825 O852 2.096 . S
C826 N829 1.301 . S
C826 N830 1.328 . S
C826 H831 0.930 . S
C827 C828 1.333 . S
C827 N829 1.317 . S
C827 H832 0.930 . S
C828 C827 1.333 . S
C828 N830 1.350 . S
C828 H854 0.931 . S
N829 Co825 2.148 . S
N829 C826 1.301 . S
N829 C827 1.317 . S
N830 C826 1.328 . S
N830 C828 1.350 . S
H831 C826 0.930 . S
H832 C827 0.930 . S
C833 O834 1.224 . S
C833 O852 1.247 . S
O834 C833 1.224 . S
N835 Co825 2.128 . S
N835 C836 1.355 . S
N835 C838 1.311 . S
C836 N835 1.355 . S
C836 C837 1.363 . S
C836 H848 0.929 . S
C837 C836 1.363 . S
C837 N839 1.375 . S
C837 H855 0.931 . S
C838 N835 1.311 . S
C838 N839 1.347 . S
C838 H849 0.929 . S
N839 C837 1.375 . S
N839 C838 1.347 . S
C840 C843 1.365 . S
C840 N845 1.328 . S
C840 H846 0.929 . S
C841 C842 1.362 . S
C841 C844 1.378 . S
C841 H856 0.929 . S
C842 C841 1.362 . S
C842 C843 1.366 . S
C843 C840 1.365 . S
C843 C842 1.366 . S
C843 H857 0.930 . S
C844 C841 1.378 . S
C844 N845 1.315 . S
C844 H847 0.930 . S
N845 Co825 2.194 . S
N845 C840 1.328 . S
N845 C844 1.315 . S
H846 C840 0.929 . S
H847 C844 0.930 . S
H848 C836 0.929 . S
H849 C838 0.929 . S
O850 Co825 2.351 . S
O850 C853 1.244 . S
O851 Co825 2.155 . S
O851 C853 1.240 . S
O852 Co825 2.096 . S
O852 C833 1.247 . S
C853 O850 1.244 . S
C853 O851 1.240 . S
H854 C828 0.931 . S
H855 C837 0.931 . S
H856 C841 0.929 . S
H857 C843 0.930 . S
Co858 N862 2.148 . S
Co858 N868 2.128 . S
Co858 N878 2.194 . S
Co858 O883 2.351 . S
Co858 O884 2.155 . S
Co858 O885 2.096 . S
C859 N862 1.301 . S
C859 N863 1.328 . S
C859 H864 0.930 . S
C860 C861 1.333 . S
C860 N862 1.317 . S
C860 H865 0.930 . S
C861 C860 1.333 . S
C861 N863 1.350 . S
C861 H887 0.931 . S
N862 Co858 2.148 . S
N862 C859 1.301 . S
N862 C860 1.317 . S
N863 C859 1.328 . S
N863 C861 1.350 . S
H864 C859 0.930 . S
H865 C860 0.930 . S
C866 O867 1.224 . S
C866 O885 1.247 . S
O867 C866 1.224 . S
N868 Co858 2.128 . S
N868 C869 1.355 . S
N868 C871 1.311 . S
C869 N868 1.355 . S
C869 C870 1.363 . S
C869 H881 0.929 . S
C870 C869 1.363 . S
C870 N872 1.375 . S
C870 H888 0.931 . S
C871 N868 1.311 . S
C871 N872 1.347 . S
C871 H882 0.929 . S
N872 C870 1.375 . S
N872 C871 1.347 . S
C873 C876 1.365 . S
C873 N878 1.328 . S
C873 H879 0.929 . S
C874 C875 1.362 . S
C874 C877 1.378 . S
C874 H889 0.929 . S
C875 C874 1.362 . S
C875 C876 1.366 . S
C876 C873 1.365 . S
C876 C875 1.366 . S
C876 H890 0.930 . S
C877 C874 1.378 . S
C877 N878 1.315 . S
C877 H880 0.930 . S
N878 Co858 2.194 . S
N878 C873 1.328 . S
N878 C877 1.315 . S
H879 C873 0.929 . S
H880 C877 0.930 . S
H881 C869 0.929 . S
H882 C871 0.929 . S
O883 Co858 2.351 . S
O883 C886 1.244 . S
O884 Co858 2.155 . S
O884 C886 1.240 . S
O885 Co858 2.096 . S
O885 C866 1.247 . S
C886 O883 1.244 . S
C886 O884 1.240 . S
H887 C861 0.931 . S
H888 C870 0.931 . S
H889 C874 0.929 . S
H890 C876 0.930 . S
Co891 N895 2.148 . S
Co891 N901 2.128 . S
Co891 N911 2.194 . S
Co891 O916 2.351 . S
Co891 O917 2.155 . S
Co891 O918 2.096 . S
C892 N895 1.301 . S
C892 N896 1.328 . S
C892 H897 0.930 . S
C893 C894 1.333 . S
C893 N895 1.317 . S
C893 H898 0.930 . S
C894 C893 1.333 . S
C894 N896 1.350 . S
C894 H920 0.931 . S
N895 Co891 2.148 . S
N895 C892 1.301 . S
N895 C893 1.317 . S
N896 C892 1.328 . S
N896 C894 1.350 . S
H897 C892 0.930 . S
H898 C893 0.930 . S
C899 O900 1.224 . S
C899 O918 1.247 . S
O900 C899 1.224 . S
N901 Co891 2.128 . S
N901 C902 1.355 . S
N901 C904 1.311 . S
C902 N901 1.355 . S
C902 C903 1.363 . S
C902 H914 0.929 . S
C903 C902 1.363 . S
C903 N905 1.375 . S
C903 H921 0.931 . S
C904 N901 1.311 . S
C904 N905 1.347 . S
C904 H915 0.929 . S
N905 C903 1.375 . S
N905 C904 1.347 . S
C906 C909 1.365 . S
C906 N911 1.328 . S
C906 H912 0.929 . S
C907 C908 1.362 . S
C907 C910 1.378 . S
C907 H922 0.929 . S
C908 C907 1.362 . S
C908 C909 1.366 . S
C909 C906 1.365 . S
C909 C908 1.366 . S
C909 H923 0.930 . S
C910 C907 1.378 . S
C910 N911 1.315 . S
C910 H913 0.930 . S
N911 Co891 2.194 . S
N911 C906 1.328 . S
N911 C910 1.315 . S
H912 C906 0.929 . S
H913 C910 0.930 . S
H914 C902 0.929 . S
H915 C904 0.929 . S
O916 Co891 2.351 . S
O916 C919 1.244 . S
O917 Co891 2.155 . S
O917 C919 1.240 . S
O918 Co891 2.096 . S
O918 C899 1.247 . S
C919 O916 1.244 . S
C919 O917 1.240 . S
H920 C894 0.931 . S
H921 C903 0.931 . S
H922 C907 0.929 . S
H923 C909 0.930 . S
Co924 N928 2.148 . S
Co924 N934 2.128 . S
Co924 N944 2.194 . S
Co924 O949 2.351 . S
Co924 O950 2.155 . S
Co924 O951 2.096 . S
C925 N928 1.301 . S
C925 N929 1.328 . S
C925 H930 0.930 . S
C926 C927 1.333 . S
C926 N928 1.317 . S
C926 H931 0.930 . S
C927 C926 1.333 . S
C927 N929 1.350 . S
C927 H953 0.931 . S
N928 Co924 2.148 . S
N928 C925 1.301 . S
N928 C926 1.317 . S
N929 C925 1.328 . S
N929 C927 1.350 . S
H930 C925 0.930 . S
H931 C926 0.930 . S
C932 O933 1.224 . S
C932 O951 1.247 . S
O933 C932 1.224 . S
N934 Co924 2.128 . S
N934 C935 1.355 . S
N934 C937 1.311 . S
C935 N934 1.355 . S
C935 C936 1.363 . S
C935 H947 0.929 . S
C936 C935 1.363 . S
C936 N938 1.375 . S
C936 H954 0.931 . S
C937 N934 1.311 . S
C937 N938 1.347 . S
C937 H948 0.929 . S
N938 C936 1.375 . S
N938 C937 1.347 . S
C939 C942 1.365 . S
C939 N944 1.328 . S
C939 H945 0.929 . S
C940 C941 1.362 . S
C940 C943 1.378 . S
C940 H955 0.929 . S
C941 C940 1.362 . S
C941 C942 1.366 . S
C942 C939 1.365 . S
C942 C941 1.366 . S
C942 H956 0.930 . S
C943 C940 1.378 . S
C943 N944 1.315 . S
C943 H946 0.930 . S
N944 Co924 2.194 . S
N944 C939 1.328 . S
N944 C943 1.315 . S
H945 C939 0.929 . S
H946 C943 0.930 . S
H947 C935 0.929 . S
H948 C937 0.929 . S
O949 Co924 2.351 . S
O949 C952 1.244 . S
O950 Co924 2.155 . S
O950 C952 1.240 . S
O951 Co924 2.096 . S
O951 C932 1.247 . S
C952 O949 1.244 . S
C952 O950 1.240 . S
H953 C927 0.931 . S
H954 C936 0.931 . S
H955 C940 0.929 . S
H956 C942 0.930 . S
Co957 N961 2.148 . S
Co957 N967 2.128 . S
Co957 N977 2.194 . S
Co957 O982 2.351 . S
Co957 O983 2.155 . S
Co957 O984 2.096 . S
C958 N961 1.301 . S
C958 N962 1.328 . S
C958 H963 0.930 . S
C959 C960 1.333 . S
C959 N961 1.317 . S
C959 H964 0.930 . S
C960 C959 1.333 . S
C960 N962 1.350 . S
C960 H986 0.931 . S
N961 Co957 2.148 . S
N961 C958 1.301 . S
N961 C959 1.317 . S
N962 C958 1.328 . S
N962 C960 1.350 . S
H963 C958 0.930 . S
H964 C959 0.930 . S
C965 O966 1.224 . S
C965 O984 1.247 . S
O966 C965 1.224 . S
N967 Co957 2.128 . S
N967 C968 1.355 . S
N967 C970 1.311 . S
C968 N967 1.355 . S
C968 C969 1.363 . S
C968 H980 0.929 . S
C969 C968 1.363 . S
C969 N971 1.375 . S
C969 H987 0.931 . S
C970 N967 1.311 . S
C970 N971 1.347 . S
C970 H981 0.929 . S
N971 C969 1.375 . S
N971 C970 1.347 . S
C972 C975 1.365 . S
C972 N977 1.328 . S
C972 H978 0.929 . S
C973 C974 1.362 . S
C973 C976 1.378 . S
C973 H988 0.929 . S
C974 C973 1.362 . S
C974 C975 1.366 . S
C975 C972 1.365 . S
C975 C974 1.366 . S
C975 H989 0.930 . S
C976 C973 1.378 . S
C976 N977 1.315 . S
C976 H979 0.930 . S
N977 Co957 2.194 . S
N977 C972 1.328 . S
N977 C976 1.315 . S
H978 C972 0.929 . S
H979 C976 0.930 . S
H980 C968 0.929 . S
H981 C970 0.929 . S
O982 Co957 2.351 . S
O982 C985 1.244 . S
O983 Co957 2.155 . S
O983 C985 1.240 . S
O984 Co957 2.096 . S
O984 C965 1.247 . S
C985 O982 1.244 . S
C985 O983 1.240 . S
H986 C960 0.931 . S
H987 C969 0.931 . S
H988 C973 0.929 . S
H989 C975 0.930 . S
Co990 N994 2.148 . S
Co990 N1000 2.128 . S
Co990 N1010 2.194 . S
Co990 O1015 2.351 . S
Co990 O1016 2.155 . S
Co990 O1017 2.096 . S
C991 N994 1.301 . S
C991 N995 1.328 . S
C991 H996 0.930 . S
C992 C993 1.333 . S
C992 N994 1.317 . S
C992 H997 0.930 . S
C993 C992 1.333 . S
C993 N995 1.350 . S
C993 H1019 0.931 . S
N994 Co990 2.148 . S
N994 C991 1.301 . S
N994 C992 1.317 . S
N995 C991 1.328 . S
N995 C993 1.350 . S
H996 C991 0.930 . S
H997 C992 0.930 . S
C998 O999 1.224 . S
C998 O1017 1.247 . S
O999 C998 1.224 . S
N1000 Co990 2.128 . S
N1000 C1001 1.355 . S
N1000 C1003 1.311 . S
C1001 N1000 1.355 . S
C1001 C1002 1.363 . S
C1001 H1013 0.929 . S
C1002 C1001 1.363 . S
C1002 N1004 1.375 . S
C1002 H1020 0.931 . S
C1003 N1000 1.311 . S
C1003 N1004 1.347 . S
C1003 H1014 0.929 . S
N1004 C1002 1.375 . S
N1004 C1003 1.347 . S
C1005 C1008 1.365 . S
C1005 N1010 1.328 . S
C1005 H1011 0.929 . S
C1006 C1007 1.362 . S
C1006 C1009 1.378 . S
C1006 H1021 0.929 . S
C1007 C1006 1.362 . S
C1007 C1008 1.366 . S
C1008 C1005 1.365 . S
C1008 C1007 1.366 . S
C1008 H1022 0.930 . S
C1009 C1006 1.378 . S
C1009 N1010 1.315 . S
C1009 H1012 0.930 . S
N1010 Co990 2.194 . S
N1010 C1005 1.328 . S
N1010 C1009 1.315 . S
H1011 C1005 0.929 . S
H1012 C1009 0.930 . S
H1013 C1001 0.929 . S
H1014 C1003 0.929 . S
O1015 Co990 2.351 . S
O1015 C1018 1.244 . S
O1016 Co990 2.155 . S
O1016 C1018 1.240 . S
O1017 Co990 2.096 . S
O1017 C998 1.247 . S
C1018 O1015 1.244 . S
C1018 O1016 1.240 . S
H1019 C993 0.931 . S
H1020 C1002 0.931 . S
H1021 C1006 0.929 . S
H1022 C1008 0.930 . S
Co1023 N1027 2.148 . S
Co1023 N1033 2.128 . S
Co1023 N1043 2.194 . S
Co1023 O1048 2.351 . S
Co1023 O1049 2.155 . S
Co1023 O1050 2.096 . S
C1024 N1027 1.301 . S
C1024 N1028 1.328 . S
C1024 H1029 0.930 . S
C1025 C1026 1.333 . S
C1025 N1027 1.317 . S
C1025 H1030 0.930 . S
C1026 C1025 1.333 . S
C1026 N1028 1.350 . S
C1026 H1052 0.931 . S
N1027 Co1023 2.148 . S
N1027 C1024 1.301 . S
N1027 C1025 1.317 . S
N1028 C1024 1.328 . S
N1028 C1026 1.350 . S
H1029 C1024 0.930 . S
H1030 C1025 0.930 . S
C1031 O1032 1.224 . S
C1031 O1050 1.247 . S
O1032 C1031 1.224 . S
N1033 Co1023 2.128 . S
N1033 C1034 1.355 . S
N1033 C1036 1.311 . S
C1034 N1033 1.355 . S
C1034 C1035 1.363 . S
C1034 H1046 0.929 . S
C1035 C1034 1.363 . S
C1035 N1037 1.375 . S
C1035 H1053 0.931 . S
C1036 N1033 1.311 . S
C1036 N1037 1.347 . S
C1036 H1047 0.929 . S
N1037 C1035 1.375 . S
N1037 C1036 1.347 . S
C1038 C1041 1.365 . S
C1038 N1043 1.328 . S
C1038 H1044 0.929 . S
C1039 C1040 1.362 . S
C1039 C1042 1.378 . S
C1039 H1054 0.929 . S
C1040 C1039 1.362 . S
C1040 C1041 1.366 . S
C1041 C1038 1.365 . S
C1041 C1040 1.366 . S
C1041 H1055 0.930 . S
C1042 C1039 1.378 . S
C1042 N1043 1.315 . S
C1042 H1045 0.930 . S
N1043 Co1023 2.194 . S
N1043 C1038 1.328 . S
N1043 C1042 1.315 . S
H1044 C1038 0.929 . S
H1045 C1042 0.930 . S
H1046 C1034 0.929 . S
H1047 C1036 0.929 . S
O1048 Co1023 2.351 . S
O1048 C1051 1.244 . S
O1049 Co1023 2.155 . S
O1049 C1051 1.240 . S
O1050 Co1023 2.096 . S
O1050 C1031 1.247 . S
C1051 O1048 1.244 . S
C1051 O1049 1.240 . S
H1052 C1026 0.931 . S
H1053 C1035 0.931 . S
H1054 C1039 0.929 . S
H1055 C1041 0.930 . S
Co1056 N1060 2.148 . S
Co1056 N1066 2.128 . S
Co1056 N1076 2.194 . S
Co1056 O1081 2.351 . S
Co1056 O1082 2.155 . S
Co1056 O1083 2.096 . S
C1057 N1060 1.301 . S
C1057 N1061 1.328 . S
C1057 H1062 0.930 . S
C1058 C1059 1.333 . S
C1058 N1060 1.317 . S
C1058 H1063 0.930 . S
C1059 C1058 1.333 . S
C1059 N1061 1.350 . S
C1059 H1085 0.931 . S
N1060 Co1056 2.148 . S
N1060 C1057 1.301 . S
N1060 C1058 1.317 . S
N1061 C1057 1.328 . S
N1061 C1059 1.350 . S
H1062 C1057 0.930 . S
H1063 C1058 0.930 . S
C1064 O1065 1.224 . S
C1064 O1083 1.247 . S
O1065 C1064 1.224 . S
N1066 Co1056 2.128 . S
N1066 C1067 1.355 . S
N1066 C1069 1.311 . S
C1067 N1066 1.355 . S
C1067 C1068 1.363 . S
C1067 H1079 0.929 . S
C1068 C1067 1.363 . S
C1068 N1070 1.375 . S
C1068 H1086 0.931 . S
C1069 N1066 1.311 . S
C1069 N1070 1.347 . S
C1069 H1080 0.929 . S
N1070 C1068 1.375 . S
N1070 C1069 1.347 . S
C1071 C1074 1.365 . S
C1071 N1076 1.328 . S
C1071 H1077 0.929 . S
C1072 C1073 1.362 . S
C1072 C1075 1.378 . S
C1072 H1087 0.929 . S
C1073 C1072 1.362 . S
C1073 C1074 1.366 . S
C1074 C1071 1.365 . S
C1074 C1073 1.366 . S
C1074 H1088 0.930 . S
C1075 C1072 1.378 . S
C1075 N1076 1.315 . S
C1075 H1078 0.930 . S
N1076 Co1056 2.194 . S
N1076 C1071 1.328 . S
N1076 C1075 1.315 . S
H1077 C1071 0.929 . S
H1078 C1075 0.930 . S
H1079 C1067 0.929 . S
H1080 C1069 0.929 . S
O1081 Co1056 2.351 . S
O1081 C1084 1.244 . S
O1082 Co1056 2.155 . S
O1082 C1084 1.240 . S
O1083 Co1056 2.096 . S
O1083 C1064 1.247 . S
C1084 O1081 1.244 . S
C1084 O1082 1.240 . S
H1085 C1059 0.931 . S
H1086 C1068 0.931 . S
H1087 C1072 0.929 . S
H1088 C1074 0.930 . S
Co1089 N1093 2.148 . S
Co1089 N1099 2.128 . S
Co1089 N1109 2.194 . S
Co1089 O1114 2.351 . S
Co1089 O1115 2.155 . S
Co1089 O1116 2.096 . S
C1090 N1093 1.301 . S
C1090 N1094 1.328 . S
C1090 H1095 0.930 . S
C1091 C1092 1.333 . S
C1091 N1093 1.317 . S
C1091 H1096 0.930 . S
C1092 C1091 1.333 . S
C1092 N1094 1.350 . S
C1092 H1118 0.931 . S
N1093 Co1089 2.148 . S
N1093 C1090 1.301 . S
N1093 C1091 1.317 . S
N1094 C1090 1.328 . S
N1094 C1092 1.350 . S
H1095 C1090 0.930 . S
H1096 C1091 0.930 . S
C1097 O1098 1.224 . S
C1097 O1116 1.247 . S
O1098 C1097 1.224 . S
N1099 Co1089 2.128 . S
N1099 C1100 1.355 . S
N1099 C1102 1.311 . S
C1100 N1099 1.355 . S
C1100 C1101 1.363 . S
C1100 H1112 0.929 . S
C1101 C1100 1.363 . S
C1101 N1103 1.375 . S
C1101 H1119 0.931 . S
C1102 N1099 1.311 . S
C1102 N1103 1.347 . S
C1102 H1113 0.929 . S
N1103 C1101 1.375 . S
N1103 C1102 1.347 . S
C1104 C1107 1.365 . S
C1104 N1109 1.328 . S
C1104 H1110 0.929 . S
C1105 C1106 1.362 . S
C1105 C1108 1.378 . S
C1105 H1120 0.929 . S
C1106 C1105 1.362 . S
C1106 C1107 1.366 . S
C1107 C1104 1.365 . S
C1107 C1106 1.366 . S
C1107 H1121 0.930 . S
C1108 C1105 1.378 . S
C1108 N1109 1.315 . S
C1108 H1111 0.930 . S
N1109 Co1089 2.194 . S
N1109 C1104 1.328 . S
N1109 C1108 1.315 . S
H1110 C1104 0.929 . S
H1111 C1108 0.930 . S
H1112 C1100 0.929 . S
H1113 C1102 0.929 . S
O1114 Co1089 2.351 . S
O1114 C1117 1.244 . S
O1115 Co1089 2.155 . S
O1115 C1117 1.240 . S
O1116 Co1089 2.096 . S
O1116 C1097 1.247 . S
C1117 O1114 1.244 . S
C1117 O1115 1.240 . S
H1118 C1092 0.931 . S
H1119 C1101 0.931 . S
H1120 C1105 0.929 . S
H1121 C1107 0.930 . S
Co1122 N1126 2.148 . S
Co1122 N1132 2.128 . S
Co1122 N1142 2.194 . S
Co1122 O1147 2.351 . S
Co1122 O1148 2.155 . S
Co1122 O1149 2.096 . S
C1123 N1126 1.301 . S
C1123 N1127 1.328 . S
C1123 H1128 0.930 . S
C1124 C1125 1.333 . S
C1124 N1126 1.317 . S
C1124 H1129 0.930 . S
C1125 C1124 1.333 . S
C1125 N1127 1.350 . S
C1125 H1151 0.931 . S
N1126 Co1122 2.148 . S
N1126 C1123 1.301 . S
N1126 C1124 1.317 . S
N1127 C1123 1.328 . S
N1127 C1125 1.350 . S
H1128 C1123 0.930 . S
H1129 C1124 0.930 . S
C1130 O1131 1.224 . S
C1130 O1149 1.247 . S
O1131 C1130 1.224 . S
N1132 Co1122 2.128 . S
N1132 C1133 1.355 . S
N1132 C1135 1.311 . S
C1133 N1132 1.355 . S
C1133 C1134 1.363 . S
C1133 H1145 0.929 . S
C1134 C1133 1.363 . S
C1134 N1136 1.375 . S
C1134 H1152 0.931 . S
C1135 N1132 1.311 . S
C1135 N1136 1.347 . S
C1135 H1146 0.929 . S
N1136 C1134 1.375 . S
N1136 C1135 1.347 . S
C1137 C1140 1.365 . S
C1137 N1142 1.328 . S
C1137 H1143 0.929 . S
C1138 C1139 1.362 . S
C1138 C1141 1.378 . S
C1138 H1153 0.929 . S
C1139 C1138 1.362 . S
C1139 C1140 1.366 . S
C1140 C1137 1.365 . S
C1140 C1139 1.366 . S
C1140 H1154 0.930 . S
C1141 C1138 1.378 . S
C1141 N1142 1.315 . S
C1141 H1144 0.930 . S
N1142 Co1122 2.194 . S
N1142 C1137 1.328 . S
N1142 C1141 1.315 . S
H1143 C1137 0.929 . S
H1144 C1141 0.930 . S
H1145 C1133 0.929 . S
H1146 C1135 0.929 . S
O1147 Co1122 2.351 . S
O1147 C1150 1.244 . S
O1148 Co1122 2.155 . S
O1148 C1150 1.240 . S
O1149 Co1122 2.096 . S
O1149 C1130 1.247 . S
C1150 O1147 1.244 . S
C1150 O1148 1.240 . S
H1151 C1125 0.931 . S
H1152 C1134 0.931 . S
H1153 C1138 0.929 . S
H1154 C1140 0.930 . S
Co1155 N1159 2.148 . S
Co1155 N1165 2.128 . S
Co1155 N1175 2.194 . S
Co1155 O1180 2.351 . S
Co1155 O1181 2.155 . S
Co1155 O1182 2.096 . S
C1156 N1159 1.301 . S
C1156 N1160 1.328 . S
C1156 H1161 0.930 . S
C1157 C1158 1.333 . S
C1157 N1159 1.317 . S
C1157 H1162 0.930 . S
C1158 C1157 1.333 . S
C1158 N1160 1.350 . S
C1158 H1184 0.931 . S
N1159 Co1155 2.148 . S
N1159 C1156 1.301 . S
N1159 C1157 1.317 . S
N1160 C1156 1.328 . S
N1160 C1158 1.350 . S
H1161 C1156 0.930 . S
H1162 C1157 0.930 . S
C1163 O1164 1.224 . S
C1163 O1182 1.247 . S
O1164 C1163 1.224 . S
N1165 Co1155 2.128 . S
N1165 C1166 1.355 . S
N1165 C1168 1.311 . S
C1166 N1165 1.355 . S
C1166 C1167 1.363 . S
C1166 H1178 0.929 . S
C1167 C1166 1.363 . S
C1167 N1169 1.375 . S
C1167 H1185 0.931 . S
C1168 N1165 1.311 . S
C1168 N1169 1.347 . S
C1168 H1179 0.929 . S
N1169 C1167 1.375 . S
N1169 C1168 1.347 . S
C1170 C1173 1.365 . S
C1170 N1175 1.328 . S
C1170 H1176 0.929 . S
C1171 C1172 1.362 . S
C1171 C1174 1.378 . S
C1171 H1186 0.929 . S
C1172 C1171 1.362 . S
C1172 C1173 1.366 . S
C1173 C1170 1.365 . S
C1173 C1172 1.366 . S
C1173 H1187 0.930 . S
C1174 C1171 1.378 . S
C1174 N1175 1.315 . S
C1174 H1177 0.930 . S
N1175 Co1155 2.194 . S
N1175 C1170 1.328 . S
N1175 C1174 1.315 . S
H1176 C1170 0.929 . S
H1177 C1174 0.930 . S
H1178 C1166 0.929 . S
H1179 C1168 0.929 . S
O1180 Co1155 2.351 . S
O1180 C1183 1.244 . S
O1181 Co1155 2.155 . S
O1181 C1183 1.240 . S
O1182 Co1155 2.096 . S
O1182 C1163 1.247 . S
C1183 O1180 1.244 . S
C1183 O1181 1.240 . S
H1184 C1158 0.931 . S
H1185 C1167 0.931 . S
H1186 C1171 0.929 . S
H1187 C1173 0.930 . S
C1188 C1189 1.387 . S
C1188 H1192 0.950 . S
C1188 C1197 1.390 . S
C1189 C1188 1.387 . S
C1189 C1191 1.387 . S
H1190 C1197 0.950 . S
C1191 C1189 1.387 . S
C1191 C1193 1.390 . S
C1191 H1195 0.950 . S
H1192 C1188 0.950 . S
C1193 C1191 1.390 . S
C1193 C1194 1.387 . S
C1193 H1196 0.950 1_556 S
C1194 C1193 1.387 . S
C1194 C1197 1.387 . S
H1195 C1191 0.950 . S
H1196 C1193 0.950 1_554 S
C1197 C1188 1.390 . S
C1197 H1190 0.950 . S
C1197 C1194 1.387 . S
C1198 C1199 1.387 . S
C1198 H1202 0.950 . S
C1198 C1207 1.390 . S
C1199 C1198 1.387 . S
C1199 C1201 1.387 . S
H1200 C1207 0.950 . S
C1201 C1199 1.387 . S
C1201 C1203 1.390 . S
C1201 H1205 0.950 . S
H1202 C1198 0.950 . S
C1203 C1201 1.390 . S
C1203 C1204 1.387 . S
C1203 H1206 0.950 1_556 S
C1204 C1203 1.387 . S
C1204 C1207 1.387 . S
H1205 C1201 0.950 . S
H1206 C1203 0.950 1_554 S
C1207 C1198 1.390 . S
C1207 H1200 0.950 . S
C1207 C1204 1.387 . S
C1208 C1209 1.387 . S
C1208 H1212 0.950 . S
C1208 C1217 1.390 . S
C1209 C1208 1.387 . S
C1209 C1211 1.387 . S
H1210 C1217 0.950 . S
C1211 C1209 1.387 . S
C1211 C1213 1.390 . S
C1211 H1215 0.950 . S
H1212 C1208 0.950 . S
C1213 C1211 1.390 . S
C1213 C1214 1.387 . S
C1213 H1216 0.950 . S
C1214 C1213 1.387 . S
C1214 C1217 1.387 . S
H1215 C1211 0.950 . S
H1216 C1213 0.950 . S
C1217 C1208 1.390 . S
C1217 H1210 0.950 . S
C1217 C1214 1.387 . S
C1218 C1219 1.387 . S
C1218 H1222 0.950 . S
C1218 C1227 1.390 . S
C1219 C1218 1.387 . S
C1219 C1221 1.387 . S
H1220 C1227 0.950 . S
C1221 C1219 1.387 . S
C1221 C1223 1.390 . S
C1221 H1225 0.950 . S
H1222 C1218 0.950 . S
C1223 C1221 1.390 . S
C1223 C1224 1.387 . S
C1223 H1226 0.950 . S
C1224 C1223 1.387 . S
C1224 C1227 1.387 . S
H1225 C1221 0.950 . S
H1226 C1223 0.950 . S
C1227 C1218 1.390 . S
C1227 H1220 0.950 . S
C1227 C1224 1.387 . S
C1228 C1229 1.387 . S
C1228 H1232 0.950 . S
C1228 C1237 1.390 . S
C1229 C1228 1.387 . S
C1229 C1231 1.387 . S
H1230 C1237 0.972 . S
C1231 C1229 1.387 . S
C1231 C1233 1.390 . S
C1231 H1235 0.950 . S
H1232 C1228 0.950 . S
C1233 C1231 1.390 . S
C1233 C1234 1.387 . S
C1233 H1236 0.950 . S
C1234 C1233 1.387 . S
C1234 C1237 1.387 . S
H1235 C1231 0.950 . S
H1236 C1233 0.950 . S
C1237 C1228 1.390 . S
C1237 H1230 0.972 . S
C1237 C1234 1.387 . S
C1238 C1239 1.387 . S
C1238 H1242 0.950 . S
C1238 C1247 1.390 . S
C1239 C1238 1.387 . S
C1239 C1241 1.387 . S
H1240 C1247 0.950 . S
C1241 C1239 1.387 . S
C1241 C1243 1.390 . S
C1241 H1245 0.950 . S
H1242 C1238 0.950 . S
C1243 C1241 1.390 . S
C1243 C1244 1.387 . S
C1243 H1246 0.950 . S
C1244 C1243 1.387 . S
C1244 C1247 1.387 . S
H1245 C1241 0.950 . S
H1246 C1243 0.950 . S
C1247 C1238 1.390 . S
C1247 H1240 0.950 . S
C1247 C1244 1.387 . S
C1248 C1249 1.387 . S
C1248 H1252 0.950 . S
C1248 C1257 1.390 . S
C1249 C1248 1.387 . S
C1249 C1251 1.387 . S
H1250 C1257 0.950 . S
C1251 C1249 1.387 . S
C1251 C1253 1.390 . S
C1251 H1255 0.950 . S
H1252 C1248 0.950 . S
C1253 C1251 1.390 . S
C1253 C1254 1.387 . S
C1253 H1256 0.950 . S
C1254 C1253 1.387 . S
C1254 C1257 1.387 . S
H1255 C1251 0.950 . S
H1256 C1253 0.950 . S
C1257 C1248 1.390 . S
C1257 H1250 0.950 . S
C1257 C1254 1.387 . S
C1258 C1259 1.387 . S
C1258 H1262 0.950 . S
C1258 C1267 1.390 . S
C1259 C1258 1.387 . S
C1259 C1261 1.387 . S
H1260 C1267 0.950 . S
C1261 C1259 1.387 . S
C1261 C1263 1.390 . S
C1261 H1265 0.950 . S
H1262 C1258 0.950 . S
C1263 C1261 1.390 . S
C1263 C1264 1.387 . S
C1263 H1266 0.950 . S
C1264 C1263 1.387 . S
C1264 C1267 1.387 . S
H1265 C1261 0.950 . S
H1266 C1263 0.950 . S
C1267 C1258 1.390 . S
C1267 H1260 0.950 . S
C1267 C1264 1.387 . S
C1268 C1269 1.387 . S
C1268 H1272 0.950 . S
C1268 C1277 1.390 . S
C1269 C1268 1.387 . S
C1269 C1271 1.387 . S
H1270 C1277 0.950 . S
C1271 C1269 1.387 . S
C1271 C1273 1.390 . S
C1271 H1275 0.950 . S
H1272 C1268 0.950 . S
C1273 C1271 1.390 . S
C1273 C1274 1.387 . S
C1273 H1276 0.950 . S
C1274 C1273 1.387 . S
C1274 C1277 1.387 . S
H1275 C1271 0.950 . S
H1276 C1273 0.950 . S
C1277 C1268 1.390 . S
C1277 H1270 0.950 . S
C1277 C1274 1.387 . S
C1278 C1279 1.387 . S
C1278 H1282 0.950 . S
C1278 C1287 1.390 . S
C1279 C1278 1.387 . S
C1279 C1281 1.387 . S
H1280 C1287 0.950 . S
C1281 C1279 1.387 . S
C1281 C1283 1.390 . S
C1281 H1285 0.950 . S
H1282 C1278 0.950 . S
C1283 C1281 1.390 . S
C1283 C1284 1.387 . S
C1283 H1286 0.950 . S
C1284 C1283 1.387 . S
C1284 C1287 1.387 . S
H1285 C1281 0.950 . S
H1286 C1283 0.950 . S
C1287 C1278 1.390 . S
C1287 H1280 0.950 . S
C1287 C1284 1.387 . S
C1288 C1289 1.387 . S
C1288 H1292 0.950 . S
C1288 C1297 1.390 . S
C1289 C1288 1.387 . S
C1289 C1291 1.387 . S
H1290 C1297 0.950 . S
C1291 C1289 1.387 . S
C1291 C1293 1.390 . S
C1291 H1295 0.950 . S
H1292 C1288 0.950 . S
C1293 C1291 1.390 . S
C1293 C1294 1.387 . S
C1293 H1296 0.950 . S
C1294 C1293 1.387 . S
C1294 C1297 1.387 . S
H1295 C1291 0.950 . S
H1296 C1293 0.950 . S
C1297 C1288 1.390 . S
C1297 H1290 0.950 . S
C1297 C1294 1.387 . S
C1298 C1299 1.387 . S
C1298 H1302 0.950 . S
C1298 C1307 1.390 . S
C1299 C1298 1.387 . S
C1299 C1301 1.387 . S
H1300 C1307 0.950 . S
C1301 C1299 1.387 . S
C1301 C1303 1.390 . S
C1301 H1305 0.950 . S
H1302 C1298 0.950 . S
C1303 C1301 1.390 . S
C1303 C1304 1.387 . S
C1303 H1306 0.950 . S
C1304 C1303 1.387 . S
C1304 C1307 1.387 . S
H1305 C1301 0.950 . S
H1306 C1303 0.950 . S
C1307 C1298 1.390 . S
C1307 H1300 0.950 . S
C1307 C1304 1.387 . S
C1308 C1309 1.387 . S
C1308 H1312 0.950 . S
C1308 C1317 1.401 . S
C1309 C1308 1.387 . S
C1309 C1311 1.368 1_655 S
H1310 C1317 0.954 . S
C1311 C1309 1.368 1_455 S
C1311 C1313 1.417 . S
C1311 H1315 0.943 . S
H1312 C1308 0.950 . S
C1313 C1311 1.417 . S
C1313 C1314 1.387 . S
C1313 H1316 0.950 . S
C1314 C1313 1.387 . S
C1314 C1317 1.380 1_455 S
H1315 C1311 0.943 . S
H1316 C1313 0.950 . S
C1317 C1308 1.401 . S
C1317 H1310 0.954 . S
C1317 C1314 1.380 1_655 S
C1318 C1319 1.387 . S
C1318 H1322 0.950 . S
C1318 C1327 1.390 . S
C1319 C1318 1.387 . S
C1319 C1321 1.387 . S
H1320 C1327 0.950 . S
C1321 C1319 1.387 . S
C1321 C1323 1.390 . S
C1321 H1325 0.950 . S
H1322 C1318 0.950 . S
C1323 C1321 1.390 . S
C1323 C1324 1.387 . S
C1323 H1326 0.950 . S
C1324 C1323 1.387 . S
C1324 C1327 1.387 . S
H1325 C1321 0.950 . S
H1326 C1323 0.950 . S
C1327 C1318 1.390 . S
C1327 H1320 0.950 . S
C1327 C1324 1.387 . S
C1328 C1329 1.387 . S
C1328 H1332 0.950 . S
C1328 C1337 1.390 1_565 S
C1329 C1328 1.387 . S
C1329 C1331 1.387 . S
H1330 C1337 0.950 . S
C1331 C1329 1.387 . S
C1331 C1333 1.390 1_565 S
C1331 H1335 0.950 . S
H1332 C1328 0.950 . S
C1333 C1331 1.390 1_545 S
C1333 C1334 1.387 . S
C1333 H1336 0.950 . S
C1334 C1333 1.387 . S
C1334 C1337 1.387 . S
H1335 C1331 0.950 . S
H1336 C1333 0.950 . S
C1337 C1328 1.390 1_545 S
C1337 H1330 0.950 . S
C1337 C1334 1.387 . S
C1338 C1339 1.387 . S
C1338 H1342 0.950 . S
C1338 C1347 1.390 1_565 S
C1339 C1338 1.387 . S
C1339 C1341 1.387 . S
H1340 C1347 0.950 . S
C1341 C1339 1.387 . S
C1341 C1343 1.390 1_565 S
C1341 H1345 0.950 . S
H1342 C1338 0.950 . S
C1343 C1341 1.390 1_545 S
C1343 C1344 1.387 . S
C1343 H1346 0.950 . S
C1344 C1343 1.387 . S
C1344 C1347 1.387 . S
H1345 C1341 0.950 . S
H1346 C1343 0.950 . S
C1347 C1338 1.390 1_545 S
C1347 H1340 0.950 . S
C1347 C1344 1.387 . S
C1348 C1349 1.387 . S
C1348 H1352 0.950 . S
C1348 C1357 1.390 1_655 S
C1349 C1348 1.387 . S
C1349 C1351 1.387 . S
H1350 C1357 0.950 . S
C1351 C1349 1.387 . S
C1351 C1353 1.390 1_655 S
C1351 H1355 0.950 . S
H1352 C1348 0.950 . S
C1353 C1351 1.390 1_455 S
C1353 C1354 1.387 . S
C1353 H1356 0.950 . S
C1354 C1353 1.387 . S
C1354 C1357 1.387 . S
H1355 C1351 0.950 . S
H1356 C1353 0.950 . S
C1357 C1348 1.390 1_455 S
C1357 H1350 0.950 . S
C1357 C1354 1.387 . S
C1358 C1359 1.387 . S
C1358 H1362 0.950 . S
C1358 C1367 1.390 . S
C1359 C1358 1.387 . S
C1359 C1361 1.387 . S
H1360 C1367 0.950 . S
C1361 C1359 1.387 . S
C1361 C1363 1.390 . S
C1361 H1365 0.950 . S
H1362 C1358 0.950 . S
C1363 C1361 1.390 . S
C1363 C1364 1.387 . S
C1363 H1366 0.950 . S
C1364 C1363 1.387 . S
C1364 C1367 1.387 . S
H1365 C1361 0.950 . S
H1366 C1363 0.950 . S
C1367 C1358 1.390 . S
C1367 H1360 0.950 . S
C1367 C1364 1.387 . S
C1368 C1369 1.387 . S
C1368 H1372 0.950 . S
C1368 C1377 1.390 . S
C1369 C1368 1.387 . S
C1369 C1371 1.387 . S
H1370 C1377 0.950 . S
C1371 C1369 1.387 . S
C1371 C1373 1.390 . S
C1371 H1375 0.950 . S
H1372 C1368 0.950 . S
C1373 C1371 1.390 . S
C1373 C1374 1.387 . S
C1373 H1376 0.950 . S
C1374 C1373 1.387 . S
C1374 C1377 1.387 . S
H1375 C1371 0.950 . S
H1376 C1373 0.950 . S
C1377 C1368 1.390 . S
C1377 H1370 0.950 . S
C1377 C1374 1.387 . S
C1378 C1379 1.387 . S
C1378 H1382 0.950 . S
C1378 C1387 1.390 1_565 S
C1379 C1378 1.387 . S
C1379 C1381 1.387 . S
H1380 C1387 0.950 . S
C1381 C1379 1.387 . S
C1381 C1383 1.385 1_565 S
C1381 H1385 0.950 . S
H1382 C1378 0.950 . S
C1383 C1381 1.385 1_545 S
C1383 C1384 1.413 . S
C1383 H1386 0.932 . S
C1384 C1383 1.413 . S
C1384 C1387 1.387 . S
H1385 C1381 0.950 . S
H1386 C1383 0.932 . S
C1387 C1378 1.390 1_545 S
C1387 H1380 0.950 . S
C1387 C1384 1.387 . S
C1388 C1389 1.387 . S
C1388 H1392 0.950 . S
C1388 C1397 1.390 . S
C1389 C1388 1.387 . S
C1389 C1391 1.387 1_655 S
H1390 C1397 0.950 . S
C1391 C1389 1.387 1_455 S
C1391 C1393 1.390 . S
C1391 H1395 0.950 . S
H1392 C1388 0.950 . S
C1393 C1391 1.390 . S
C1393 C1394 1.387 . S
C1393 H1396 0.950 . S
C1394 C1393 1.387 . S
C1394 C1397 1.387 1_455 S
H1395 C1391 0.950 . S
H1396 C1393 0.950 . S
C1397 C1388 1.390 . S
C1397 H1390 0.950 . S
C1397 C1394 1.387 1_655 S
C1398 C1399 1.387 . S
C1398 H1402 0.950 . S
C1398 C1407 1.390 . S
C1399 C1398 1.387 . S
C1399 C1401 1.387 . S
H1400 C1407 0.950 . S
C1401 C1399 1.387 . S
C1401 C1403 1.390 . S
C1401 H1405 0.950 . S
H1402 C1398 0.950 . S
C1403 C1401 1.390 . S
C1403 C1404 1.387 . S
C1403 H1406 0.950 . S
C1404 C1403 1.387 . S
C1404 C1407 1.387 . S
H1405 C1401 0.950 . S
H1406 C1403 0.950 . S
C1407 C1398 1.390 . S
C1407 H1400 0.950 . S
C1407 C1404 1.387 . S
C1408 C1409 1.387 . S
C1408 H1412 0.950 . S
C1408 C1417 1.390 1_565 S
C1409 C1408 1.387 . S
C1409 C1411 1.387 . S
H1410 C1417 0.950 . S
C1411 C1409 1.387 . S
C1411 C1413 1.390 1_565 S
C1411 H1415 0.950 . S
H1412 C1408 0.950 . S
C1413 C1411 1.390 1_545 S
C1413 C1414 1.387 . S
C1413 H1416 0.950 . S
C1414 C1413 1.387 . S
C1414 C1417 1.387 . S
H1415 C1411 0.950 . S
H1416 C1413 0.950 . S
C1417 C1408 1.390 1_545 S
C1417 H1410 0.950 . S
C1417 C1414 1.387 . S
C1418 C1419 1.387 1_455 S
C1418 H1422 0.950 . S
C1418 C1427 1.390 . S
C1419 C1418 1.387 1_655 S
C1419 C1421 1.387 . S
H1420 C1427 0.950 . S
C1421 C1419 1.387 . S
C1421 C1423 1.390 . S
C1421 H1425 0.950 . S
H1422 C1418 0.950 . S
C1423 C1421 1.390 . S
C1423 C1424 1.387 1_655 S
C1423 H1426 0.950 . S
C1424 C1423 1.387 1_455 S
C1424 C1427 1.387 . S
H1425 C1421 0.950 . S
H1426 C1423 0.950 . S
C1427 C1418 1.390 . S
C1427 H1420 0.950 . S
C1427 C1424 1.387 . S
C1428 C1429 1.387 . S
C1428 H1432 0.950 . S
C1428 C1437 1.390 . S
C1429 C1428 1.387 . S
C1429 C1431 1.387 . S
H1430 C1437 0.950 . S
C1431 C1429 1.387 . S
C1431 C1433 1.390 . S
C1431 H1435 0.950 . S
H1432 C1428 0.950 . S
C1433 C1431 1.390 . S
C1433 C1434 1.387 . S
C1433 H1436 0.950 . S
C1434 C1433 1.387 . S
C1434 C1437 1.387 . S
H1435 C1431 0.950 . S
H1436 C1433 0.950 . S
C1437 C1428 1.390 . S
C1437 H1430 0.950 . S
C1437 C1434 1.387 . S
C1438 C1439 1.387 . S
C1438 H1442 0.950 . S
C1438 C1447 1.390 . S
C1439 C1438 1.387 . S
C1439 C1441 1.387 . S
H1440 C1447 0.950 . S
C1441 C1439 1.387 . S
C1441 C1443 1.390 . S
C1441 H1445 0.950 . S
H1442 C1438 0.950 . S
C1443 C1441 1.390 . S
C1443 C1444 1.387 . S
C1443 H1446 0.950 . S
C1444 C1443 1.387 . S
C1444 C1447 1.387 . S
H1445 C1441 0.950 . S
H1446 C1443 0.950 . S
C1447 C1438 1.390 . S
C1447 H1440 0.950 . S
C1447 C1444 1.387 . S
C1448 C1449 1.387 . S
C1448 H1452 0.950 . S
C1448 C1457 1.390 . S
C1449 C1448 1.387 . S
C1449 C1451 1.387 . S
H1450 C1457 0.950 . S
C1451 C1449 1.387 . S
C1451 C1453 1.390 . S
C1451 H1455 0.950 . S
H1452 C1448 0.950 . S
C1453 C1451 1.390 . S
C1453 C1454 1.387 . S
C1453 H1456 0.950 . S
C1454 C1453 1.387 . S
C1454 C1457 1.387 . S
H1455 C1451 0.950 . S
H1456 C1453 0.950 . S
C1457 C1448 1.390 . S
C1457 H1450 0.950 . S
C1457 C1454 1.387 . S
C1458 C1459 1.387 . S
C1458 H1462 0.950 . S
C1458 C1467 1.390 . S
C1459 C1458 1.387 . S
C1459 C1461 1.387 . S
H1460 C1467 0.950 . S
C1461 C1459 1.387 . S
C1461 C1463 1.390 . S
C1461 H1465 0.950 . S
H1462 C1458 0.950 . S
C1463 C1461 1.390 . S
C1463 C1464 1.387 . S
C1463 H1466 0.950 . S
C1464 C1463 1.387 . S
C1464 C1467 1.387 . S
H1465 C1461 0.950 . S
H1466 C1463 0.950 . S
C1467 C1458 1.390 . S
C1467 H1460 0.950 . S
C1467 C1464 1.387 . S
C1468 C1469 1.387 . S
C1468 H1472 0.950 . S
C1468 C1477 1.390 . S
C1469 C1468 1.387 . S
C1469 C1471 1.387 . S
H1470 C1477 0.950 . S
C1471 C1469 1.387 . S
C1471 C1473 1.390 . S
C1471 H1475 0.950 . S
H1472 C1468 0.950 . S
C1473 C1471 1.390 . S
C1473 C1474 1.387 . S
C1473 H1476 0.950 . S
C1474 C1473 1.387 . S
C1474 C1477 1.387 . S
H1475 C1471 0.950 . S
H1476 C1473 0.950 . S
C1477 C1468 1.390 . S
C1477 H1470 0.950 . S
C1477 C1474 1.387 . S
C1478 C1479 1.387 . S
C1478 H1482 0.950 . S
C1478 C1487 1.390 . S
C1479 C1478 1.387 . S
C1479 C1481 1.387 . S
H1480 C1487 0.950 . S
C1481 C1479 1.387 . S
C1481 C1483 1.390 . S
C1481 H1485 0.950 . S
H1482 C1478 0.950 . S
C1483 C1481 1.390 . S
C1483 C1484 1.387 . S
C1483 H1486 0.950 . S
C1484 C1483 1.387 . S
C1484 C1487 1.387 . S
H1485 C1481 0.950 . S
H1486 C1483 0.950 . S
C1487 C1478 1.390 . S
C1487 H1480 0.950 . S
C1487 C1484 1.387 . S
C1488 C1489 1.387 . S
C1488 H1492 0.950 . S
C1488 C1497 1.390 . S
C1489 C1488 1.387 . S
C1489 C1491 1.387 . S
H1490 C1497 0.950 . S
C1491 C1489 1.387 . S
C1491 C1493 1.390 . S
C1491 H1495 0.950 . S
H1492 C1488 0.950 . S
C1493 C1491 1.390 . S
C1493 C1494 1.387 . S
C1493 H1496 0.950 . S
C1494 C1493 1.387 . S
C1494 C1497 1.387 . S
H1495 C1491 0.950 . S
H1496 C1493 0.950 . S
C1497 C1488 1.390 . S
C1497 H1490 0.950 . S
C1497 C1494 1.387 . S
C1498 C1499 1.387 . S
C1498 H1502 0.950 . S
C1498 C1507 1.390 . S
C1499 C1498 1.387 . S
C1499 C1501 1.387 . S
H1500 C1507 0.950 . S
C1501 C1499 1.387 . S
C1501 C1503 1.390 . S
C1501 H1505 0.950 . S
H1502 C1498 0.950 . S
C1503 C1501 1.390 . S
C1503 C1504 1.387 . S
C1503 H1506 0.950 . S
C1504 C1503 1.387 . S
C1504 C1507 1.387 . S
H1505 C1501 0.950 . S
H1506 C1503 0.950 . S
C1507 C1498 1.390 . S
C1507 H1500 0.950 . S
C1507 C1504 1.387 . S
C1508 C1509 1.387 . S
C1508 H1512 0.950 . S
C1508 C1517 1.390 . S
C1509 C1508 1.387 . S
C1509 C1511 1.387 . S
H1510 C1517 0.950 . S
C1511 C1509 1.387 . S
C1511 C1513 1.390 . S
C1511 H1515 0.950 . S
H1512 C1508 0.950 . S
C1513 C1511 1.390 . S
C1513 C1514 1.387 . S
C1513 H1516 0.950 . S
C1514 C1513 1.387 . S
C1514 C1517 1.387 . S
H1515 C1511 0.950 . S
H1516 C1513 0.950 . S
C1517 C1508 1.390 . S
C1517 H1510 0.950 . S
C1517 C1514 1.387 . S
C1518 C1519 1.387 . S
C1518 H1522 0.950 . S
C1518 C1527 1.390 . S
C1519 C1518 1.387 . S
C1519 C1521 1.387 . S
H1520 C1527 0.950 . S
C1521 C1519 1.387 . S
C1521 C1523 1.390 . S
C1521 H1525 0.950 . S
H1522 C1518 0.950 . S
C1523 C1521 1.390 . S
C1523 C1524 1.387 . S
C1523 H1526 0.950 . S
C1524 C1523 1.387 . S
C1524 C1527 1.387 . S
H1525 C1521 0.950 . S
H1526 C1523 0.950 . S
C1527 C1518 1.390 . S
C1527 H1520 0.950 . S
C1527 C1524 1.387 . S
C1528 C1529 1.387 . S
C1528 H1532 0.950 . S
C1528 C1537 1.390 . S
C1529 C1528 1.387 . S
C1529 C1531 1.387 . S
H1530 C1537 0.950 . S
C1531 C1529 1.387 . S
C1531 C1533 1.390 . S
C1531 H1535 0.950 . S
H1532 C1528 0.950 . S
C1533 C1531 1.390 . S
C1533 C1534 1.387 . S
C1533 H1536 0.950 . S
C1534 C1533 1.387 . S
C1534 C1537 1.387 . S
H1535 C1531 0.950 . S
H1536 C1533 0.950 . S
C1537 C1528 1.390 . S
C1537 H1530 0.950 . S
C1537 C1534 1.387 . S
C1538 C1539 1.387 . S
C1538 H1542 0.950 . S
C1538 C1547 1.390 . S
C1539 C1538 1.387 . S
C1539 C1541 1.387 . S
H1540 C1547 0.950 . S
C1541 C1539 1.387 . S
C1541 C1543 1.390 . S
C1541 H1545 0.950 . S
H1542 C1538 0.950 . S
C1543 C1541 1.390 . S
C1543 C1544 1.387 . S
C1543 H1546 0.950 . S
C1544 C1543 1.387 . S
C1544 C1547 1.387 . S
H1545 C1541 0.950 . S
H1546 C1543 0.950 . S
C1547 C1538 1.390 . S
C1547 H1540 0.950 . S
C1547 C1544 1.387 . S
C1548 C1549 1.387 1_556 S
C1548 H1552 0.950 . S
C1548 C1557 1.390 . S
C1549 C1548 1.387 1_554 S
C1549 C1551 1.387 . S
H1550 C1557 0.950 . S
C1551 C1549 1.387 . S
C1551 C1553 1.390 . S
C1551 H1555 0.950 . S
H1552 C1548 0.950 . S
C1553 C1551 1.390 . S
C1553 C1554 1.387 . S
C1553 H1556 0.950 . S
C1554 C1553 1.387 . S
C1554 C1557 1.387 1_554 S
H1555 C1551 0.950 . S
H1556 C1553 0.950 . S
C1557 C1548 1.390 . S
C1557 H1550 0.950 . S
C1557 C1554 1.387 1_556 S
C1558 C1559 1.387 . S
C1558 H1562 0.950 . S
C1558 C1567 1.390 . S
C1559 C1558 1.387 . S
C1559 C1561 1.387 1_554 S
H1560 C1567 0.950 . S
C1561 C1559 1.387 1_556 S
C1561 C1563 1.390 . S
C1561 H1565 0.950 . S
H1562 C1558 0.950 . S
C1563 C1561 1.390 . S
C1563 C1564 1.387 1_556 S
C1563 H1566 0.950 . S
C1564 C1563 1.387 1_554 S
C1564 C1567 1.387 . S
H1565 C1561 0.950 . S
H1566 C1563 0.950 . S
C1567 C1558 1.390 . S
C1567 H1560 0.950 . S
C1567 C1564 1.387 . S
C1568 C1569 1.387 . S
C1568 H1572 0.950 . S
C1568 C1577 1.390 . S
C1569 C1568 1.387 . S
C1569 C1571 1.387 1_554 S
H1570 C1577 0.950 . S
C1571 C1569 1.387 1_556 S
C1571 C1573 1.390 . S
C1571 H1575 0.950 . S
H1572 C1568 0.950 . S
C1573 C1571 1.390 . S
C1573 C1574 1.387 1_556 S
C1573 H1576 0.950 . S
C1574 C1573 1.387 1_554 S
C1574 C1577 1.387 . S
H1575 C1571 0.950 . S
H1576 C1573 0.950 . S
C1577 C1568 1.390 . S
C1577 H1570 0.950 . S
C1577 C1574 1.387 . S
C1578 C1579 1.387 . S
C1578 H1582 0.950 . S
C1578 C1587 1.390 . S
C1579 C1578 1.387 . S
C1579 C1581 1.387 . S
H1580 C1587 0.950 . S
C1581 C1579 1.387 . S
C1581 C1583 1.390 . S
C1581 H1585 0.950 . S
H1582 C1578 0.950 . S
C1583 C1581 1.390 . S
C1583 C1584 1.387 . S
C1583 H1586 0.950 . S
C1584 C1583 1.387 . S
C1584 C1587 1.387 . S
H1585 C1581 0.950 . S
H1586 C1583 0.950 . S
C1587 C1578 1.390 . S
C1587 H1580 0.950 . S
C1587 C1584 1.387 . S
C1588 C1589 1.387 . S
C1588 H1592 0.950 . S
C1588 C1597 1.390 . S
C1589 C1588 1.387 . S
C1589 C1591 1.387 . S
H1590 C1597 0.950 . S
C1591 C1589 1.387 . S
C1591 C1593 1.390 . S
C1591 H1595 0.950 . S
H1592 C1588 0.950 . S
C1593 C1591 1.390 . S
C1593 C1594 1.387 . S
C1593 H1596 0.950 . S
C1594 C1593 1.387 . S
C1594 C1597 1.387 . S
H1595 C1591 0.950 . S
H1596 C1593 0.950 . S
C1597 C1588 1.390 . S
C1597 H1590 0.950 . S
C1597 C1594 1.387 . S
C1598 C1599 1.387 . S
C1598 H1602 0.950 . S
C1598 C1607 1.390 . S
C1599 C1598 1.387 . S
C1599 C1601 1.387 . S
H1600 C1607 0.950 . S
C1601 C1599 1.387 . S
C1601 C1603 1.390 . S
C1601 H1605 0.950 . S
H1602 C1598 0.950 . S
C1603 C1601 1.390 . S
C1603 C1604 1.387 . S
C1603 H1606 0.950 . S
C1604 C1603 1.387 . S
C1604 C1607 1.387 . S
H1605 C1601 0.950 . S
H1606 C1603 0.950 . S
C1607 C1598 1.390 . S
C1607 H1600 0.950 . S
C1607 C1604 1.387 . S
C1608 C1609 1.387 1_556 S
C1608 H1612 0.950 . S
C1608 C1617 1.390 . S
C1609 C1608 1.387 1_554 S
C1609 C1611 1.387 . S
H1610 C1617 0.950 . S
C1611 C1609 1.387 . S
C1611 C1613 1.390 . S
C1611 H1615 0.950 . S
H1612 C1608 0.950 . S
C1613 C1611 1.390 . S
C1613 C1614 1.387 . S
C1613 H1616 0.950 . S
C1614 C1613 1.387 . S
C1614 C1617 1.387 1_554 S
H1615 C1611 0.950 . S
H1616 C1613 0.950 . S
C1617 C1608 1.390 . S
C1617 H1610 0.950 . S
C1617 C1614 1.387 1_556 S
C1618 C1619 1.387 . S
C1618 H1622 0.950 . S
C1618 C1627 1.390 . S
C1619 C1618 1.387 . S
C1619 C1621 1.387 1_554 S
H1620 C1627 0.950 . S
C1621 C1619 1.387 1_556 S
C1621 C1623 1.390 . S
C1621 H1625 0.950 . S
H1622 C1618 0.950 . S
C1623 C1621 1.390 . S
C1623 C1624 1.387 1_556 S
C1623 H1626 0.950 . S
C1624 C1623 1.387 1_554 S
C1624 C1627 1.387 . S
H1625 C1621 0.950 . S
H1626 C1623 0.950 . S
C1627 C1618 1.390 . S
C1627 H1620 0.950 . S
C1627 C1624 1.387 . S
C1628 C1629 1.387 1_556 S
C1628 H1632 0.950 . S
C1628 C1637 1.390 . S
C1629 C1628 1.387 1_554 S
C1629 C1631 1.387 . S
H1630 C1637 0.950 . S
C1631 C1629 1.387 . S
C1631 C1633 1.390 . S
C1631 H1635 0.950 . S
H1632 C1628 0.950 . S
C1633 C1631 1.390 . S
C1633 C1634 1.387 . S
C1633 H1636 0.950 . S
C1634 C1633 1.387 . S
C1634 C1637 1.387 1_554 S
H1635 C1631 0.950 . S
H1636 C1633 0.950 . S
C1637 C1628 1.390 . S
C1637 H1630 0.950 . S
C1637 C1634 1.387 1_556 S
C1638 C1639 1.387 . S
C1638 H1642 0.950 . S
C1638 C1647 1.390 . S
C1639 C1638 1.387 . S
C1639 C1641 1.387 . S
H1640 C1647 0.950 . S
C1641 C1639 1.387 . S
C1641 C1643 1.390 . S
C1641 H1645 0.950 . S
H1642 C1638 0.950 . S
C1643 C1641 1.390 . S
C1643 C1644 1.387 . S
C1643 H1646 0.950 . S
C1644 C1643 1.387 . S
C1644 C1647 1.387 . S
H1645 C1641 0.950 . S
H1646 C1643 0.950 . S
C1647 C1638 1.390 . S
C1647 H1640 0.950 . S
C1647 C1644 1.387 . S
C1648 C1649 1.387 . S
C1648 H1652 0.950 . S
C1648 C1657 1.390 . S
C1649 C1648 1.387 . S
C1649 C1651 1.387 . S
H1650 C1657 0.950 . S
C1651 C1649 1.387 . S
C1651 C1653 1.390 . S
C1651 H1655 0.950 . S
H1652 C1648 0.950 . S
C1653 C1651 1.390 . S
C1653 C1654 1.387 . S
C1653 H1656 0.950 . S
C1654 C1653 1.387 . S
C1654 C1657 1.387 . S
H1655 C1651 0.950 . S
H1656 C1653 0.950 . S
C1657 C1648 1.390 . S
C1657 H1650 0.950 . S
C1657 C1654 1.387 . S
C1658 C1659 1.387 . S
C1658 H1662 0.950 . S
C1658 C1667 1.390 . S
C1659 C1658 1.387 . S
C1659 C1661 1.387 . S
H1660 C1667 0.950 . S
C1661 C1659 1.387 . S
C1661 C1663 1.390 . S
C1661 H1665 0.950 . S
H1662 C1658 0.950 . S
C1663 C1661 1.390 . S
C1663 C1664 1.387 . S
C1663 H1666 0.950 . S
C1664 C1663 1.387 . S
C1664 C1667 1.387 . S
H1665 C1661 0.950 . S
H1666 C1663 0.950 . S
C1667 C1658 1.390 . S
C1667 H1660 0.950 . S
C1667 C1664 1.387 . S
C1668 C1669 1.387 . S
C1668 H1672 0.950 . S
C1668 C1677 1.390 . S
C1669 C1668 1.387 . S
C1669 C1671 1.387 . S
H1670 C1677 0.950 . S
C1671 C1669 1.387 . S
C1671 C1673 1.390 . S
C1671 H1675 0.950 . S
H1672 C1668 0.950 . S
C1673 C1671 1.390 . S
C1673 C1674 1.387 . S
C1673 H1676 0.950 . S
C1674 C1673 1.387 . S
C1674 C1677 1.387 . S
H1675 C1671 0.950 . S
H1676 C1673 0.950 . S
C1677 C1668 1.390 . S
C1677 H1670 0.950 . S
C1677 C1674 1.387 . S
C1678 C1679 1.387 . S
C1678 H1682 0.950 . S
C1678 C1687 1.390 . S
C1679 C1678 1.387 . S
C1679 C1681 1.387 . S
H1680 C1687 0.950 . S
C1681 C1679 1.387 . S
C1681 C1683 1.390 . S
C1681 H1685 0.950 . S
H1682 C1678 0.950 . S
C1683 C1681 1.390 . S
C1683 C1684 1.387 . S
C1683 H1686 0.950 . S
C1684 C1683 1.387 . S
C1684 C1687 1.387 . S
H1685 C1681 0.950 . S
H1686 C1683 0.950 . S
C1687 C1678 1.390 . S
C1687 H1680 0.950 . S
C1687 C1684 1.387 . S
C1688 C1689 1.387 . S
C1688 H1692 0.950 . S
C1688 C1697 1.390 . S
C1689 C1688 1.387 . S
C1689 C1691 1.387 . S
H1690 C1697 0.950 . S
C1691 C1689 1.387 . S
C1691 C1693 1.390 . S
C1691 H1695 0.950 . S
H1692 C1688 0.950 . S
C1693 C1691 1.390 . S
C1693 C1694 1.387 . S
C1693 H1696 0.950 . S
C1694 C1693 1.387 . S
C1694 C1697 1.387 . S
H1695 C1691 0.950 . S
H1696 C1693 0.950 . S
C1697 C1688 1.390 . S
C1697 H1690 0.950 . S
C1697 C1694 1.387 . S
C1698 C1699 1.387 . S
C1698 H1702 0.950 . S
C1698 C1707 1.390 . S
C1699 C1698 1.387 . S
C1699 C1701 1.387 . S
H1700 C1707 0.950 . S
C1701 C1699 1.387 . S
C1701 C1703 1.390 . S
C1701 H1705 0.950 . S
H1702 C1698 0.950 . S
C1703 C1701 1.390 . S
C1703 C1704 1.387 . S
C1703 H1706 0.950 . S
C1704 C1703 1.387 . S
C1704 C1707 1.387 . S
H1705 C1701 0.950 . S
H1706 C1703 0.950 . S
C1707 C1698 1.390 . S
C1707 H1700 0.950 . S
C1707 C1704 1.387 . S
C1708 C1709 1.387 . S
C1708 H1712 0.950 . S
C1708 C1717 1.390 . S
C1709 C1708 1.387 . S
C1709 C1711 1.387 . S
H1710 C1717 0.950 . S
C1711 C1709 1.387 . S
C1711 C1713 1.390 . S
C1711 H1715 0.950 . S
H1712 C1708 0.950 . S
C1713 C1711 1.390 . S
C1713 C1714 1.387 . S
C1713 H1716 0.950 . S
C1714 C1713 1.387 . S
C1714 C1717 1.387 . S
H1715 C1711 0.950 . S
H1716 C1713 0.950 . S
C1717 C1708 1.390 . S
C1717 H1710 0.950 . S
C1717 C1714 1.387 . S
C1718 C1719 1.387 . S
C1718 H1722 0.950 . S
C1718 C1727 1.390 . S
C1719 C1718 1.387 . S
C1719 C1721 1.387 . S
H1720 C1727 0.950 . S
C1721 C1719 1.387 . S
C1721 C1723 1.390 . S
C1721 H1725 0.950 . S
H1722 C1718 0.950 . S
C1723 C1721 1.390 . S
C1723 C1724 1.387 . S
C1723 H1726 0.950 . S
C1724 C1723 1.387 . S
C1724 C1727 1.387 . S
H1725 C1721 0.950 . S
H1726 C1723 0.950 . S
C1727 C1718 1.390 . S
C1727 H1720 0.950 . S
C1727 C1724 1.387 . S
C1728 C1729 1.387 . S
C1728 H1732 0.950 . S
C1728 C1737 1.390 . S
C1729 C1728 1.387 . S
C1729 C1731 1.387 . S
H1730 C1737 0.950 . S
C1731 C1729 1.387 . S
C1731 C1733 1.390 . S
C1731 H1735 0.950 . S
H1732 C1728 0.950 . S
C1733 C1731 1.390 . S
C1733 C1734 1.387 . S
C1733 H1736 0.950 . S
C1734 C1733 1.387 . S
C1734 C1737 1.387 . S
H1735 C1731 0.950 . S
H1736 C1733 0.950 . S
C1737 C1728 1.390 . S
C1737 H1730 0.950 . S
C1737 C1734 1.387 . S
C1738 C1739 1.387 . S
C1738 H1742 0.950 . S
C1738 C1747 1.390 . S
C1739 C1738 1.387 . S
C1739 C1741 1.387 . S
H1740 C1747 0.950 . S
C1741 C1739 1.387 . S
C1741 C1743 1.390 . S
C1741 H1745 0.950 . S
H1742 C1738 0.950 . S
C1743 C1741 1.390 . S
C1743 C1744 1.387 . S
C1743 H1746 0.950 . S
C1744 C1743 1.387 . S
C1744 C1747 1.387 . S
H1745 C1741 0.950 . S
H1746 C1743 0.950 . S
C1747 C1738 1.390 . S
C1747 H1740 0.950 . S
C1747 C1744 1.387 . S
C1748 C1749 1.387 . S
C1748 H1752 0.950 . S
C1748 C1757 1.390 . S
C1749 C1748 1.387 . S
C1749 C1751 1.387 . S
H1750 C1757 0.950 . S
C1751 C1749 1.387 . S
C1751 C1753 1.390 . S
C1751 H1755 0.950 . S
H1752 C1748 0.950 . S
C1753 C1751 1.390 . S
C1753 C1754 1.387 . S
C1753 H1756 0.950 . S
C1754 C1753 1.387 . S
C1754 C1757 1.387 . S
H1755 C1751 0.950 . S
H1756 C1753 0.950 . S
C1757 C1748 1.390 . S
C1757 H1750 0.950 . S
C1757 C1754 1.387 . S
C1758 C1759 1.387 . S
C1758 H1762 0.950 . S
C1758 C1767 1.390 . S
C1759 C1758 1.387 . S
C1759 C1761 1.387 . S
H1760 C1767 0.950 . S
C1761 C1759 1.387 . S
C1761 C1763 1.390 . S
C1761 H1765 0.950 . S
H1762 C1758 0.950 . S
C1763 C1761 1.390 . S
C1763 C1764 1.387 . S
C1763 H1766 0.950 . S
C1764 C1763 1.387 . S
C1764 C1767 1.387 . S
H1765 C1761 0.950 . S
H1766 C1763 0.950 . S
C1767 C1758 1.390 . S
C1767 H1760 0.950 . S
C1767 C1764 1.387 . S
C1768 C1769 1.387 . S
C1768 H1772 0.950 . S
C1768 C1777 1.390 . S
C1769 C1768 1.387 . S
C1769 C1771 1.387 . S
H1770 C1777 0.950 . S
C1771 C1769 1.387 . S
C1771 C1773 1.390 . S
C1771 H1775 0.950 . S
H1772 C1768 0.950 . S
C1773 C1771 1.390 . S
C1773 C1774 1.387 . S
C1773 H1776 0.950 . S
C1774 C1773 1.387 . S
C1774 C1777 1.387 . S
H1775 C1771 0.950 . S
H1776 C1773 0.950 . S
C1777 C1768 1.390 . S
C1777 H1770 0.950 . S
C1777 C1774 1.387 . S
C1778 C1779 1.387 . S
C1778 H1782 0.950 . S
C1778 C1787 1.390 . S
C1779 C1778 1.387 . S
C1779 C1781 1.387 . S
H1780 C1787 0.950 . S
C1781 C1779 1.387 . S
C1781 C1783 1.390 . S
C1781 H1785 0.950 . S
H1782 C1778 0.950 . S
C1783 C1781 1.390 . S
C1783 C1784 1.387 . S
C1783 H1786 0.950 . S
C1784 C1783 1.387 . S
C1784 C1787 1.387 . S
H1785 C1781 0.950 . S
H1786 C1783 0.950 . S
C1787 C1778 1.390 . S
C1787 H1780 0.950 . S
C1787 C1784 1.387 . S
C1788 C1789 1.387 . S
C1788 H1792 0.950 . S
C1788 C1797 1.390 . S
C1789 C1788 1.387 . S
C1789 C1791 1.387 . S
H1790 C1797 0.950 . S
C1791 C1789 1.387 . S
C1791 C1793 1.390 . S
C1791 H1795 0.950 . S
H1792 C1788 0.950 . S
C1793 C1791 1.390 . S
C1793 C1794 1.387 . S
C1793 H1796 0.950 . S
C1794 C1793 1.387 . S
C1794 C1797 1.387 . S
H1795 C1791 0.950 . S
H1796 C1793 0.950 . S
C1797 C1788 1.390 . S
C1797 H1790 0.950 . S
C1797 C1794 1.387 . S
C1798 C1799 1.387 . S
C1798 H1802 0.950 . S
C1798 C1807 1.390 . S
C1799 C1798 1.387 . S
C1799 C1801 1.387 . S
H1800 C1807 0.950 . S
C1801 C1799 1.387 . S
C1801 C1803 1.390 . S
C1801 H1805 0.950 . S
H1802 C1798 0.950 . S
C1803 C1801 1.390 . S
C1803 C1804 1.387 . S
C1803 H1806 0.950 . S
C1804 C1803 1.387 . S
C1804 C1807 1.387 . S
H1805 C1801 0.950 . S
H1806 C1803 0.950 . S
C1807 C1798 1.390 . S
C1807 H1800 0.950 . S
C1807 C1804 1.387 . S
C1808 C1809 1.387 . S
C1808 H1812 0.950 . S
C1808 C1817 1.390 . S
C1809 C1808 1.387 . S
C1809 C1811 1.387 . S
H1810 C1817 0.950 . S
C1811 C1809 1.387 . S
C1811 C1813 1.390 . S
C1811 H1815 0.950 . S
H1812 C1808 0.950 . S
C1813 C1811 1.390 . S
C1813 C1814 1.387 . S
C1813 H1816 0.950 . S
C1814 C1813 1.387 . S
C1814 C1817 1.387 . S
H1815 C1811 0.950 . S
H1816 C1813 0.950 . S
C1817 C1808 1.390 . S
C1817 H1810 0.950 . S
C1817 C1814 1.387 . S
C1818 C1819 1.387 . S
C1818 H1822 0.950 . S
C1818 C1827 1.390 . S
C1819 C1818 1.387 . S
C1819 C1821 1.387 . S
H1820 C1827 0.950 . S
C1821 C1819 1.387 . S
C1821 C1823 1.390 . S
C1821 H1825 0.950 . S
H1822 C1818 0.950 . S
C1823 C1821 1.390 . S
C1823 C1824 1.387 . S
C1823 H1826 0.950 . S
C1824 C1823 1.387 . S
C1824 C1827 1.387 . S
H1825 C1821 0.950 . S
H1826 C1823 0.950 . S
C1827 C1818 1.390 . S
C1827 H1820 0.950 . S
C1827 C1824 1.387 . S
C1828 C1829 1.387 . S
C1828 H1832 0.950 . S
C1828 C1837 1.390 . S
C1829 C1828 1.387 . S
C1829 C1831 1.387 . S
H1830 C1837 0.950 . S
C1831 C1829 1.387 . S
C1831 C1833 1.390 . S
C1831 H1835 0.950 . S
H1832 C1828 0.950 . S
C1833 C1831 1.390 . S
C1833 C1834 1.387 . S
C1833 H1836 0.950 . S
C1834 C1833 1.387 . S
C1834 C1837 1.387 . S
H1835 C1831 0.950 . S
H1836 C1833 0.950 . S
C1837 C1828 1.390 . S
C1837 H1830 0.950 . S
C1837 C1834 1.387 . S
C1838 C1839 1.387 . S
C1838 H1842 0.950 . S
C1838 C1847 1.390 . S
C1839 C1838 1.387 . S
C1839 C1841 1.387 . S
H1840 C1847 0.950 . S
C1841 C1839 1.387 . S
C1841 C1843 1.390 . S
C1841 H1845 0.950 . S
H1842 C1838 0.950 . S
C1843 C1841 1.390 . S
C1843 C1844 1.387 . S
C1843 H1846 0.950 . S
C1844 C1843 1.387 . S
C1844 C1847 1.387 . S
H1845 C1841 0.950 . S
H1846 C1843 0.950 . S
C1847 C1838 1.390 . S
C1847 H1840 0.950 . S
C1847 C1844 1.387 . S
C1848 C1849 1.387 . S
C1848 H1852 0.950 . S
C1848 C1857 1.390 . S
C1849 C1848 1.387 . S
C1849 C1851 1.387 . S
H1850 C1857 0.950 . S
C1851 C1849 1.387 . S
C1851 C1853 1.390 . S
C1851 H1855 0.950 . S
H1852 C1848 0.950 . S
C1853 C1851 1.390 . S
C1853 C1854 1.387 . S
C1853 H1856 0.950 . S
C1854 C1853 1.387 . S
C1854 C1857 1.387 . S
H1855 C1851 0.950 . S
H1856 C1853 0.950 . S
C1857 C1848 1.390 . S
C1857 H1850 0.950 . S
C1857 C1854 1.387 . S
C1858 C1859 1.387 . S
C1858 H1862 0.950 . S
C1858 C1867 1.390 . S
C1859 C1858 1.387 . S
C1859 C1861 1.387 . S
H1860 C1867 0.950 . S
C1861 C1859 1.387 . S
C1861 C1863 1.390 . S
C1861 H1865 0.950 . S
H1862 C1858 0.950 . S
C1863 C1861 1.390 . S
C1863 C1864 1.387 . S
C1863 H1866 0.950 . S
C1864 C1863 1.387 . S
C1864 C1867 1.387 . S
H1865 C1861 0.950 . S
H1866 C1863 0.950 . S
C1867 C1858 1.390 . S
C1867 H1860 0.950 . S
C1867 C1864 1.387 . S
C1868 C1869 1.387 . S
C1868 H1872 0.950 . S
C1868 C1877 1.390 . S
C1869 C1868 1.387 . S
C1869 C1871 1.387 . S
H1870 C1877 0.950 . S
C1871 C1869 1.387 . S
C1871 C1873 1.390 . S
C1871 H1875 0.950 . S
H1872 C1868 0.950 . S
C1873 C1871 1.390 . S
C1873 C1874 1.387 . S
C1873 H1876 0.950 . S
C1874 C1873 1.387 . S
C1874 C1877 1.387 . S
H1875 C1871 0.950 . S
H1876 C1873 0.950 . S
C1877 C1868 1.390 . S
C1877 H1870 0.950 . S
C1877 C1874 1.387 . S
C1878 C1879 1.387 . S
C1878 H1882 0.950 . S
C1878 C1887 1.390 . S
C1879 C1878 1.387 . S
C1879 C1881 1.387 . S
H1880 C1887 0.950 . S
C1881 C1879 1.387 . S
C1881 C1883 1.390 . S
C1881 H1885 0.950 . S
H1882 C1878 0.950 . S
C1883 C1881 1.390 . S
C1883 C1884 1.387 . S
C1883 H1886 0.950 . S
C1884 C1883 1.387 . S
C1884 C1887 1.387 . S
H1885 C1881 0.950 . S
H1886 C1883 0.950 . S
C1887 C1878 1.390 . S
C1887 H1880 0.950 . S
C1887 C1884 1.387 . S
C1888 C1889 1.387 . S
C1888 H1892 0.950 . S
C1888 C1897 1.390 . S
C1889 C1888 1.387 . S
C1889 C1891 1.387 . S
H1890 C1897 0.950 . S
C1891 C1889 1.387 . S
C1891 C1893 1.390 . S
C1891 H1895 0.950 . S
H1892 C1888 0.950 . S
C1893 C1891 1.390 . S
C1893 C1894 1.387 . S
C1893 H1896 0.950 . S
C1894 C1893 1.387 . S
C1894 C1897 1.387 . S
H1895 C1891 0.950 . S
H1896 C1893 0.950 . S
C1897 C1888 1.390 . S
C1897 H1890 0.950 . S
C1897 C1894 1.387 . S
C1898 C1899 1.387 . S
C1898 H1902 0.950 . S
C1898 C1907 1.390 . S
C1899 C1898 1.387 . S
C1899 C1901 1.387 . S
H1900 C1907 0.950 . S
C1901 C1899 1.387 . S
C1901 C1903 1.390 . S
C1901 H1905 0.950 . S
H1902 C1898 0.950 . S
C1903 C1901 1.390 . S
C1903 C1904 1.387 . S
C1903 H1906 0.950 . S
C1904 C1903 1.387 . S
C1904 C1907 1.387 . S
H1905 C1901 0.950 . S
H1906 C1903 0.950 . S
C1907 C1898 1.390 . S
C1907 H1900 0.950 . S
C1907 C1904 1.387 . S
C1908 C1909 1.387 . S
C1908 H1912 0.950 . S
C1908 C1917 1.390 . S
C1909 C1908 1.387 . S
C1909 C1911 1.387 . S
H1910 C1917 0.950 . S
C1911 C1909 1.387 . S
C1911 C1913 1.390 . S
C1911 H1915 0.950 . S
H1912 C1908 0.950 . S
C1913 C1911 1.390 . S
C1913 C1914 1.387 . S
C1913 H1916 0.950 . S
C1914 C1913 1.387 . S
C1914 C1917 1.387 . S
H1915 C1911 0.950 . S
H1916 C1913 0.950 . S
C1917 C1908 1.390 . S
C1917 H1910 0.950 . S
C1917 C1914 1.387 . S
C1918 C1919 1.387 . S
C1918 H1922 0.950 . S
C1918 C1927 1.390 1_545 S
C1919 C1918 1.387 . S
C1919 C1921 1.387 . S
H1920 C1927 0.950 . S
C1921 C1919 1.387 . S
C1921 C1923 1.390 1_545 S
C1921 H1925 0.950 . S
H1922 C1918 0.950 . S
C1923 C1921 1.390 1_565 S
C1923 C1924 1.387 . S
C1923 H1926 0.950 . S
C1924 C1923 1.387 . S
C1924 C1927 1.387 . S
H1925 C1921 0.950 . S
H1926 C1923 0.950 . S
C1927 C1918 1.390 1_565 S
C1927 H1920 0.950 . S
C1927 C1924 1.387 . S
C1928 C1929 1.387 1_655 S
C1928 H1932 0.950 . S
C1928 C1937 1.390 . S
C1929 C1928 1.387 1_455 S
C1929 C1931 1.387 . S
H1930 C1937 0.950 . S
C1931 C1929 1.387 . S
C1931 C1933 1.390 . S
C1931 H1935 0.950 . S
H1932 C1928 0.950 . S
C1933 C1931 1.390 . S
C1933 C1934 1.387 1_455 S
C1933 H1936 0.950 . S
C1934 C1933 1.387 1_655 S
C1934 C1937 1.387 . S
H1935 C1931 0.950 . S
H1936 C1933 0.950 . S
C1937 C1928 1.390 . S
C1937 H1930 0.950 . S
C1937 C1934 1.387 . S
C1938 C1939 1.387 . S
C1938 H1942 0.950 . S
C1938 C1947 1.390 . S
C1939 C1938 1.387 . S
C1939 C1941 1.387 . S
H1940 C1947 0.950 . S
C1941 C1939 1.387 . S
C1941 C1943 1.390 . S
C1941 H1945 0.950 . S
H1942 C1938 0.950 . S
C1943 C1941 1.390 . S
C1943 C1944 1.387 . S
C1943 H1946 0.950 . S
C1944 C1943 1.387 . S
C1944 C1947 1.387 . S
H1945 C1941 0.950 . S
H1946 C1943 0.950 . S
C1947 C1938 1.390 . S
C1947 H1940 0.950 . S
C1947 C1944 1.387 . S
C1948 C1949 1.387 . S
C1948 H1952 0.950 . S
C1948 C1957 1.390 1_545 S
C1949 C1948 1.387 . S
C1949 C1951 1.387 . S
H1950 C1957 0.950 . S
C1951 C1949 1.387 . S
C1951 C1953 1.390 1_545 S
C1951 H1955 0.950 . S
H1952 C1948 0.950 . S
C1953 C1951 1.390 1_565 S
C1953 C1954 1.387 . S
C1953 H1956 0.950 . S
C1954 C1953 1.387 . S
C1954 C1957 1.387 . S
H1955 C1951 0.950 . S
H1956 C1953 0.950 . S
C1957 C1948 1.390 1_565 S
C1957 H1950 0.950 . S
C1957 C1954 1.387 . S
C1958 C1959 1.387 . S
C1958 H1962 0.950 . S
C1958 C1967 1.390 . S
C1959 C1958 1.387 . S
C1959 C1961 1.387 1_455 S
H1960 C1967 0.950 . S
C1961 C1959 1.387 1_655 S
C1961 C1963 1.390 . S
C1961 H1965 0.950 . S
H1962 C1958 0.950 . S
C1963 C1961 1.390 . S
C1963 C1964 1.387 . S
C1963 H1966 0.950 . S
C1964 C1963 1.387 . S
C1964 C1967 1.387 1_655 S
H1965 C1961 0.950 . S
H1966 C1963 0.950 . S
C1967 C1958 1.390 . S
C1967 H1960 0.950 . S
C1967 C1964 1.387 1_455 S
C1968 C1969 1.387 . S
C1968 H1972 0.950 . S
C1968 C1977 1.390 . S
C1969 C1968 1.387 . S
C1969 C1971 1.387 . S
H1970 C1977 0.950 . S
C1971 C1969 1.387 . S
C1971 C1973 1.390 . S
C1971 H1975 0.950 . S
H1972 C1968 0.950 . S
C1973 C1971 1.390 . S
C1973 C1974 1.387 . S
C1973 H1976 0.950 . S
C1974 C1973 1.387 . S
C1974 C1977 1.387 . S
H1975 C1971 0.950 . S
H1976 C1973 0.950 . S
C1977 C1968 1.390 . S
C1977 H1970 0.950 . S
C1977 C1974 1.387 . S
C1978 C1979 1.387 . S
C1978 H1982 0.950 . S
C1978 C1987 1.390 . S
C1979 C1978 1.387 . S
C1979 C1981 1.387 . S
H1980 C1987 0.950 . S
C1981 C1979 1.387 . S
C1981 C1983 1.390 . S
C1981 H1985 0.950 . S
H1982 C1978 0.950 . S
C1983 C1981 1.390 . S
C1983 C1984 1.387 . S
C1983 H1986 0.950 . S
C1984 C1983 1.387 . S
C1984 C1987 1.387 . S
H1985 C1981 0.950 . S
H1986 C1983 0.950 . S
C1987 C1978 1.390 . S
C1987 H1980 0.950 . S
C1987 C1984 1.387 . S
C1988 C1989 1.387 . S
C1988 H1992 0.950 . S
C1988 C1997 1.390 . S
C1989 C1988 1.387 . S
C1989 C1991 1.387 . S
H1990 C1997 0.950 . S
C1991 C1989 1.387 . S
C1991 C1993 1.390 . S
C1991 H1995 0.950 . S
H1992 C1988 0.950 . S
C1993 C1991 1.390 . S
C1993 C1994 1.387 . S
C1993 H1996 0.950 . S
C1994 C1993 1.387 . S
C1994 C1997 1.387 . S
H1995 C1991 0.950 . S
H1996 C1993 0.950 . S
C1997 C1988 1.390 . S
C1997 H1990 0.950 . S
C1997 C1994 1.387 . S
C1998 C1999 1.387 . S
C1998 H2002 0.950 . S
C1998 C2007 1.390 . S
C1999 C1998 1.387 . S
C1999 C2001 1.387 . S
H2000 C2007 0.950 . S
C2001 C1999 1.387 . S
C2001 C2003 1.390 . S
C2001 H2005 0.950 . S
H2002 C1998 0.950 . S
C2003 C2001 1.390 . S
C2003 C2004 1.387 . S
C2003 H2006 0.950 . S
C2004 C2003 1.387 . S
C2004 C2007 1.387 . S
H2005 C2001 0.950 . S
H2006 C2003 0.950 . S
C2007 C1998 1.390 . S
C2007 H2000 0.950 . S
C2007 C2004 1.387 . S
C2008 C2009 1.387 . S
C2008 H2012 0.950 . S
C2008 C2017 1.390 . S
C2009 C2008 1.387 . S
C2009 C2011 1.387 . S
H2010 C2017 0.950 . S
C2011 C2009 1.387 . S
C2011 C2013 1.390 . S
C2011 H2015 0.950 . S
H2012 C2008 0.950 . S
C2013 C2011 1.390 . S
C2013 C2014 1.387 . S
C2013 H2016 0.950 . S
C2014 C2013 1.387 . S
C2014 C2017 1.387 . S
H2015 C2011 0.950 . S
H2016 C2013 0.950 . S
C2017 C2008 1.390 . S
C2017 H2010 0.950 . S
C2017 C2014 1.387 . S
C2018 C2019 1.387 . S
C2018 H2022 0.950 . S
C2018 C2027 1.390 . S
C2019 C2018 1.387 . S
C2019 C2021 1.387 . S
H2020 C2027 0.950 . S
C2021 C2019 1.387 . S
C2021 C2023 1.390 . S
C2021 H2025 0.950 . S
H2022 C2018 0.950 . S
C2023 C2021 1.390 . S
C2023 C2024 1.387 . S
C2023 H2026 0.950 . S
C2024 C2023 1.387 . S
C2024 C2027 1.387 . S
H2025 C2021 0.950 . S
H2026 C2023 0.950 . S
C2027 C2018 1.390 . S
C2027 H2020 0.950 . S
C2027 C2024 1.387 . S
C2028 C2029 1.387 . S
C2028 H2032 0.950 . S
C2028 C2037 1.390 . S
C2029 C2028 1.387 . S
C2029 C2031 1.387 . S
H2030 C2037 0.950 . S
C2031 C2029 1.387 . S
C2031 C2033 1.390 . S
C2031 H2035 0.950 . S
H2032 C2028 0.950 . S
C2033 C2031 1.390 . S
C2033 C2034 1.387 . S
C2033 H2036 0.950 . S
C2034 C2033 1.387 . S
C2034 C2037 1.387 . S
H2035 C2031 0.950 . S
H2036 C2033 0.950 . S
C2037 C2028 1.390 . S
C2037 H2030 0.950 . S
C2037 C2034 1.387 . S
C2038 C2039 1.387 . S
C2038 H2042 0.950 . S
C2038 C2047 1.390 . S
C2039 C2038 1.387 . S
C2039 C2041 1.387 . S
H2040 C2047 0.950 . S
C2041 C2039 1.387 . S
C2041 C2043 1.390 . S
C2041 H2045 0.950 . S
H2042 C2038 0.950 . S
C2043 C2041 1.390 . S
C2043 C2044 1.387 . S
C2043 H2046 0.950 . S
C2044 C2043 1.387 . S
C2044 C2047 1.387 . S
H2045 C2041 0.950 . S
H2046 C2043 0.950 . S
C2047 C2038 1.390 . S
C2047 H2040 0.950 . S
C2047 C2044 1.387 . S
C2048 C2049 1.387 . S
C2048 H2052 0.950 . S
C2048 C2057 1.390 . S
C2049 C2048 1.387 . S
C2049 C2051 1.387 . S
H2050 C2057 0.950 . S
C2051 C2049 1.387 . S
C2051 C2053 1.390 . S
C2051 H2055 0.950 . S
H2052 C2048 0.950 . S
C2053 C2051 1.390 . S
C2053 C2054 1.387 . S
C2053 H2056 0.950 . S
C2054 C2053 1.387 . S
C2054 C2057 1.387 . S
H2055 C2051 0.950 . S
H2056 C2053 0.950 . S
C2057 C2048 1.390 . S
C2057 H2050 0.950 . S
C2057 C2054 1.387 . S
C2058 C2059 1.387 . S
C2058 H2062 0.950 . S
C2058 C2067 1.390 . S
C2059 C2058 1.387 . S
C2059 C2061 1.387 . S
H2060 C2067 0.950 . S
C2061 C2059 1.387 . S
C2061 C2063 1.390 . S
C2061 H2065 0.950 . S
H2062 C2058 0.950 . S
C2063 C2061 1.390 . S
C2063 C2064 1.387 . S
C2063 H2066 0.950 . S
C2064 C2063 1.387 . S
C2064 C2067 1.387 . S
H2065 C2061 0.950 . S
H2066 C2063 0.950 . S
C2067 C2058 1.390 . S
C2067 H2060 0.950 . S
C2067 C2064 1.387 . S
C2068 C2069 1.387 . S
C2068 H2072 0.950 . S
C2068 C2077 1.390 . S
C2069 C2068 1.387 . S
C2069 C2071 1.387 . S
H2070 C2077 0.950 . S
C2071 C2069 1.387 . S
C2071 C2073 1.390 . S
C2071 H2075 0.950 . S
H2072 C2068 0.950 . S
C2073 C2071 1.390 . S
C2073 C2074 1.387 . S
C2073 H2076 0.950 . S
C2074 C2073 1.387 . S
C2074 C2077 1.387 . S
H2075 C2071 0.950 . S
H2076 C2073 0.950 . S
C2077 C2068 1.390 . S
C2077 H2070 0.950 . S
C2077 C2074 1.387 . S
C2078 C2079 1.387 . S
C2078 H2082 0.950 . S
C2078 C2087 1.390 . S
C2079 C2078 1.387 . S
C2079 C2081 1.387 . S
H2080 C2087 0.950 . S
C2081 C2079 1.387 . S
C2081 C2083 1.390 . S
C2081 H2085 0.950 . S
H2082 C2078 0.950 . S
C2083 C2081 1.390 . S
C2083 C2084 1.387 . S
C2083 H2086 0.950 . S
C2084 C2083 1.387 . S
C2084 C2087 1.387 . S
H2085 C2081 0.950 . S
H2086 C2083 0.950 . S
C2087 C2078 1.390 . S
C2087 H2080 0.950 . S
C2087 C2084 1.387 . S
C1189 C536 1.290 . S
C1194 C8 1.287 . S
C1199 C569 1.289 . S
C1204 C41 1.287 . S
C1209 C503 1.287 . S
C1214 C74 1.287 . S
C1219 C107 1.287 . S
C1224 C866 1.287 . S
C1229 C800 1.288 . S
C1234 C140 1.287 . S
C1239 C833 1.288 . S
C1244 C173 1.286 . S
C1249 C206 1.289 . S
C1254 C1130 1.290 . S
C1259 C1163 1.289 . S
C1264 C239 1.290 . S
C1269 C272 1.287 . S
C1274 C1097 1.287 . S
C1279 C668 1.287 . S
C1284 C305 1.287 . S
C1289 C338 1.290 . S
C1294 C602 1.289 . S
C1299 C635 1.289 . S
C1304 C371 1.287 . S
C1309 C404 1.288 . S
C1314 C932 1.290 . S
C1319 C965 1.287 . S
C1324 C437 1.290 . S
C1329 C899 1.287 . S
C1334 C470 1.287 . S
C1339 C1064 1.287 . S
C1344 C701 1.287 . S
C1349 C734 1.290 . S
C1354 C998 1.289 . S
C1359 C1031 1.288 . S
C1364 C767 1.290 . S
C1369 N104 1.723 . S
C1374 N5 1.722 . S
C1379 N137 1.722 . S
C1384 N38 1.722 . S
C1389 N71 1.723 . S
C1394 N170 1.722 . S
C1399 N302 1.723 . S
C1404 N203 1.722 . S
C1409 N236 1.722 . S
C1414 N335 1.722 . S
C1419 N368 1.723 . S
C1424 N269 1.722 . S
C1429 N401 1.722 . S
C1434 N500 1.723 . S
C1439 N434 1.722 . S
C1444 N533 1.722 . S
C1449 N566 1.723 . S
C1454 N467 1.722 . S
C1459 N698 1.723 1_554 S
C1464 N599 1.722 . S
C1469 N731 1.722 1_554 S
C1474 N632 1.722 . S
C1479 N764 1.722 1_554 S
C1484 N665 1.723 . S
C1489 N797 1.723 . S
C1494 N896 1.722 1_556 S
C1499 N929 1.722 1_556 S
C1504 N830 1.722 . S
C1509 N863 1.723 . S
C1514 N962 1.722 1_556 S
C1519 N995 1.722 . S
C1524 N1094 1.723 . S
C1529 N1028 1.722 . S
C1534 N1127 1.722 . S
C1539 N1160 1.723 . S
C1544 N1061 1.722 . S
C1549 C17 1.529 . S
C1554 C259 1.517 . S
C1559 C292 1.514 . S
C1564 C50 1.527 . S
C1569 C226 1.514 . S
C1574 C83 1.527 . S
C1579 C116 1.529 . S
C1584 C391 1.516 . S
C1589 C325 1.517 . S
C1594 C149 1.529 . S
C1599 C358 1.517 . S
C1604 C182 1.529 . S
C1609 C215 1.529 . S
C1614 C61 1.516 . S
C1619 C94 1.515 . S
C1624 C248 1.527 . S
C1629 C28 1.517 . S
C1634 C281 1.529 . S
C1639 C193 1.514 . S
C1644 C314 1.527 . S
C1649 C127 1.517 . S
C1654 C347 1.529 . S
C1659 C380 1.527 . S
C1664 C160 1.515 . S
C1669 C413 1.529 . S
C1674 C655 1.517 . S
C1679 C446 1.527 . S
C1684 C688 1.515 . S
C1689 C479 1.527 . S
C1694 C622 1.514 . S
C1699 C787 1.517 . S
C1704 C512 1.529 . S
C1709 C545 1.527 . S
C1714 C721 1.515 . S
C1719 C578 1.527 . S
C1724 C754 1.515 . S
C1729 C611 1.527 . S
C1734 C457 1.515 . S
C1739 C490 1.515 . S
C1744 C644 1.527 . S
C1749 C677 1.526 . S
C1754 C424 1.514 . S
C1759 C710 1.529 . S
C1764 C589 1.517 . S
C1769 C743 1.526 . S
C1774 C523 1.514 . S
C1779 C776 1.527 . S
C1784 C556 1.515 . S
C1789 C809 1.529 . S
C1794 C1051 1.517 . S
C1799 C1084 1.517 . S
C1804 C842 1.529 . S
C1809 C875 1.527 . S
C1814 C1018 1.514 . S
C1819 C908 1.529 . S
C1824 C1183 1.517 . S
C1829 C941 1.529 . S
C1834 C1117 1.517 . S
C1839 C974 1.529 . S
C1844 C1150 1.517 . S
C1849 C853 1.515 . S
C1854 C1007 1.527 . S
C1859 C886 1.515 . S
C1864 C1040 1.527 . S
C1869 C820 1.517 . S
C1874 C1073 1.529 . S
C1879 C985 1.517 . S
C1884 C1106 1.529 . S
C1889 C1139 1.527 . S
C1894 C919 1.515 . S
C1899 C1172 1.527 . S
C1904 C952 1.515 . S
C1909 N113 1.194 . S
C1914 N14 1.196 . S
C1919 N47 1.195 . S
C1924 N146 1.195 . S
C1929 N179 1.191 . S
C1934 N80 1.193 . S
C1939 N311 1.193 . S
C1944 N212 1.191 . S
C1949 N344 1.192 . S
C1954 N245 1.192 . S
C1959 N278 1.194 . S
C1964 N377 1.196 . S
C1969 N509 1.193 . S
C1974 N410 1.191 . S
C1979 N443 1.192 . S
C1984 N542 1.192 . S
C1989 N575 1.195 . S
C1994 N476 1.195 . S
C1999 N707 1.193 . S
C2004 N608 1.191 . S
C2009 N740 1.192 . S
C2014 N641 1.192 . S
C2019 N674 1.194 . S
C2024 N773 1.196 . S
C2029 N905 1.193 . S
C2034 N806 1.191 . S
C2039 N839 1.192 . S
C2044 N938 1.192 . S
C2049 N971 1.191 . S
C2054 N872 1.193 . S
C2059 N1004 1.191 . S
C2064 N1103 1.193 1_556 S
C2069 N1037 1.195 . S
C2074 N1136 1.195 1_556 S
C2079 N1070 1.193 . S
C2084 N1169 1.191 1_556 S
