# Generated by pormake.
# Topology smk, (6)-cn, num edge types: 1
# Building blocks:
#     Node 0, Type 0, BuildingBlock: JUFBIX_clean_sbu_0, # of connection points: 6
#     Node 1, Type 0, BuildingBlock: JUFBIX_clean_sbu_0, # of connection points: 6
#     Node 2, Type 0, BuildingBlock: JUFBIX_clean_sbu_0, # of connection points: 6
#     Node 3, Type 0, BuildingBlock: JUFBIX_clean_sbu_0, # of connection points: 6
#     Node 4, Type 0, BuildingBlock: JUFBIX_clean_sbu_0, # of connection points: 6
#     Node 5, Type 0, BuildingBlock: JUFBIX_clean_sbu_0, # of connection points: 6
#     Edge 6, Type (0, 0), BuildingBlock: UVAHIK_clean_linker_0, # of connection points: 2
#     Edge 7, Type (0, 0), BuildingBlock: UVAHIK_clean_linker_0, # of connection points: 2
#     Edge 8, Type (0, 0), BuildingBlock: UVAHIK_clean_linker_0, # of connection points: 2
#     Edge 9, Type (0, 0), BuildingBlock: UVAHIK_clean_linker_0, # of connection points: 2
#     Edge 10, Type (0, 0), BuildingBlock: UVAHIK_clean_linker_0, # of connection points: 2
#     Edge 11, Type (0, 0), BuildingBlock: UVAHIK_clean_linker_0, # of connection points: 2
#     Edge 12, Type (0, 0), BuildingBlock: UVAHIK_clean_linker_0, # of connection points: 2
#     Edge 13, Type (0, 0), BuildingBlock: UVAHIK_clean_linker_0, # of connection points: 2
#     Edge 14, Type (0, 0), BuildingBlock: UVAHIK_clean_linker_0, # of connection points: 2
#     Edge 15, Type (0, 0), BuildingBlock: UVAHIK_clean_linker_0, # of connection points: 2
#     Edge 16, Type (0, 0), BuildingBlock: UVAHIK_clean_linker_0, # of connection points: 2
#     Edge 17, Type (0, 0), BuildingBlock: UVAHIK_clean_linker_0, # of connection points: 2
#     Edge 18, Type (0, 0), BuildingBlock: UVAHIK_clean_linker_0, # of connection points: 2
#     Edge 19, Type (0, 0), BuildingBlock: UVAHIK_clean_linker_0, # of connection points: 2
#     Edge 20, Type (0, 0), BuildingBlock: UVAHIK_clean_linker_0, # of connection points: 2
#     Edge 21, Type (0, 0), BuildingBlock: UVAHIK_clean_linker_0, # of connection points: 2
#     Edge 22, Type (0, 0), BuildingBlock: UVAHIK_clean_linker_0, # of connection points: 2
#     Edge 23, Type (0, 0), BuildingBlock: UVAHIK_clean_linker_0, # of connection points: 2
# Relax obj value: 0.356
# Max RMSD: 0.249
# Mean RMSD: 0.249
data_MOF--net-smk--node1-JUFBIX_clean_sbu_0--edge1-UVAHIK_clean_linker_0
_symmetry_space_group_name_H-M    P1
_symmetry_Int_Tables_number       1
_symmetry_cell_setting            triclinic
loop_
_symmetry_equiv_pos_as_xyz
'x, y, z'
_cell_length_a     57.436935
_cell_length_b     57.365955
_cell_length_c     19.007922
_cell_angle_alpha  90.288875
_cell_angle_beta   90.211735
_cell_angle_gamma 120.00144
loop_
_atom_site_label
_atom_site_type_symbol
_atom_site_fract_x
_atom_site_fract_y
_atom_site_fract_z
_atom_type_partial_charge
Co0 Co 0.4228 0.19716 0.54157 0.0
C1 C 0.40633 0.14274 0.52363 0.0
Co2 Co 0.45621 0.18833 0.54397 0.0
C3 C 0.39202 0.22405 0.57023 0.0
C4 C 0.37289 0.19179 0.4954 0.0
N5 N 0.39479 0.20461 0.53724 0.0
N6 N 0.36933 0.22394 0.55004 0.0
C7 C 0.35726 0.20352 0.50322 0.0
H8 H 0.40676 0.23848 0.60666 0.0
H9 H 0.36877 0.17523 0.46035 0.0
C10 C 0.47346 0.24267 0.55746 0.0
N11 N 0.484 0.18067 0.54751 0.0
C12 C 0.50266 0.18696 0.59869 0.0
C13 C 0.48975 0.16723 0.49854 0.0
N14 N 0.51987 0.17811 0.5833 0.0
C15 C 0.51186 0.16576 0.52018 0.0
C16 C 0.44518 0.1995 0.41311 0.0
O17 O 0.44846 0.23474 0.55237 0.0
O18 O 0.48103 0.22529 0.5579 0.0
O19 O 0.46058 0.19358 0.44682 0.0
O20 O 0.42674 0.2012 0.44486 0.0
O21 O 0.43141 0.15151 0.52889 0.0
H22 H 0.47852 0.15894 0.45022 0.0
H23 H 0.50384 0.19816 0.64587 0.0
O24 O 0.39771 0.15924 0.52936 0.0
O25 O 0.41918 0.19335 0.63852 0.0
O26 O 0.4515 0.18342 0.64084 0.0
C27 C 0.4341 0.18691 0.67268 0.0
H28 H 0.33844 0.19743 0.47619 0.0
H29 H 0.52112 0.15606 0.49213 0.0
Co30 Co 0.19838 0.41037 0.74234 0.0
C31 C 0.14439 0.39456 0.76482 0.0
Co32 Co 0.19007 0.44423 0.74557 0.0
C33 C 0.22783 0.38065 0.73696 0.0
C34 C 0.18624 0.35679 0.70872 0.0
N35 N 0.20465 0.38144 0.73298 0.0
N36 N 0.22446 0.35665 0.71521 0.0
C37 C 0.19829 0.34163 0.69789 0.0
H38 H 0.24711 0.3978 0.75102 0.0
H39 H 0.16561 0.35058 0.69555 0.0
C40 C 0.24395 0.46094 0.72685 0.0
N41 N 0.18328 0.47255 0.75237 0.0
C42 C 0.19081 0.4934 0.70797 0.0
C43 C 0.16824 0.47583 0.80144 0.0
N44 N 0.18085 0.50942 0.72702 0.0
C45 C 0.16667 0.4984 0.78597 0.0
C46 C 0.20287 0.43036 0.87353 0.0
O47 O 0.23592 0.43583 0.72904 0.0
O48 O 0.22681 0.46871 0.73087 0.0
O49 O 0.19678 0.44616 0.84242 0.0
O50 O 0.20443 0.41218 0.83898 0.0
O51 O 0.15331 0.4197 0.76104 0.0
H52 H 0.15868 0.46239 0.8451 0.0
H53 H 0.20272 0.4963 0.66139 0.0
O54 O 0.16067 0.38579 0.7575 0.0
O55 O 0.19226 0.40876 0.64538 0.0
O56 O 0.18356 0.44189 0.64892 0.0
C57 C 0.18568 0.42413 0.61426 0.0
H58 H 0.18876 0.32143 0.67616 0.0
H59 H 0.15595 0.50612 0.8159 0.0
Co60 Co 0.80589 0.21466 0.89471 0.0
C61 C 0.86078 0.25214 0.88503 0.0
Co62 Co 0.81565 0.25726 0.90055 0.0
C63 C 0.77975 0.15664 0.92021 0.0
C64 C 0.81062 0.1705 0.84237 0.0
N65 N 0.79801 0.17906 0.88628 0.0
N66 N 0.7808 0.13457 0.89952 0.0
C67 C 0.80021 0.14331 0.85055 0.0
H68 H 0.76635 0.1566 0.96016 0.0
H69 H 0.82645 0.18327 0.80657 0.0
C70 C 0.76102 0.22086 0.90766 0.0
N71 N 0.82407 0.29295 0.90804 0.0
C72 C 0.8171 0.30485 0.95883 0.0
C73 C 0.84008 0.31309 0.86454 0.0
N74 N 0.82829 0.33167 0.94899 0.0
C75 C 0.84268 0.33683 0.88942 0.0
C76 C 0.80585 0.23713 0.76762 0.0
O77 O 0.76832 0.20327 0.90208 0.0
O78 O 0.77885 0.24565 0.91043 0.0
O79 O 0.81185 0.25813 0.80327 0.0
O80 O 0.80299 0.21622 0.79781 0.0
O81 O 0.85232 0.2687 0.89018 0.0
H82 H 0.84955 0.31071 0.81811 0.0
H83 H 0.80462 0.29409 0.00312 0.0
O84 O 0.84388 0.22701 0.88634 0.0
O85 O 0.80875 0.21337 -0.00787 0.0
O86 O 0.81933 0.25587 -0.00289 0.0
C87 C 0.81554 0.23465 0.02756 0.0
H88 H 0.8063 0.13086 0.82211 0.0
H89 H 0.8542 0.35635 0.86514 0.0
Co90 Co 0.59022 0.77447 0.07326 0.0
C91 C 0.60812 0.73791 0.04969 0.0
Co92 Co 0.55754 0.7318 0.06748 0.0
C93 C 0.62104 0.83311 0.05439 0.0
C94 C 0.64124 0.81758 0.11692 0.0
N95 N 0.61815 0.80999 0.08138 0.0
N96 N 0.6452 0.85468 0.07127 0.0
C97 C 0.65782 0.84485 0.11076 0.0
H98 H 0.606 0.834 0.02184 0.0
H99 H 0.64581 0.80404 0.14534 0.0
C100 C 0.53911 0.7673 0.09434 0.0
N101 N 0.53024 0.69606 0.05976 0.0
C102 C 0.50907 0.68495 0.01476 0.0
C103 C 0.52867 0.67509 0.09551 0.0
N104 N 0.49447 0.65785 0.02058 0.0
C105 C 0.50676 0.65168 0.07179 0.0
C106 C 0.57768 0.74777 0.19989 0.0
O107 O 0.56392 0.78521 0.09047 0.0
O108 O 0.53214 0.7427 0.08486 0.0
O109 O 0.5603 0.7278 0.16442 0.0
O110 O 0.5925 0.77003 0.16979 0.0
O111 O 0.58313 0.72101 0.05088 0.0
H112 H 0.54289 0.67664 0.13533 0.0
H113 H 0.505 0.69651 -0.02312 0.0
O114 O 0.61597 0.76284 0.05711 0.0
O115 O 0.5877 0.77858 -0.02362 0.0
O116 O 0.5552 0.7364 0.97114 0.0
C117 C 0.5702 0.75862 0.94098 0.0
H118 H 0.67763 0.8566 0.1341 0.0
H119 H 0.5005 0.63167 0.09085 0.0
Co120 Co 0.78887 0.58371 0.21992 0.0
C121 C 0.74973 0.59811 0.19227 0.0
Co122 Co 0.74698 0.54945 0.21781 0.0
C123 C 0.84793 0.61542 0.21373 0.0
C124 C 0.82958 0.63779 0.24992 0.0
N125 N 0.82369 0.61324 0.22601 0.0
N126 N 0.86855 0.64045 0.22855 0.0
C127 C 0.85692 0.65446 0.25121 0.0
H128 H 0.85042 0.59896 0.19499 0.0
H129 H 0.81495 0.64312 0.26757 0.0
C130 C 0.78519 0.53412 0.2412 0.0
N131 N 0.71215 0.52042 0.21408 0.0
C132 C 0.69913 0.50162 0.26383 0.0
C133 C 0.6939 0.51424 0.16211 0.0
N134 N 0.67345 0.48398 0.24513 0.0
C135 C 0.67016 0.49184 0.18092 0.0
C136 C 0.77291 0.5617 0.08964 0.0
O137 O 0.80196 0.55923 0.23637 0.0
O138 O 0.76018 0.52593 0.23709 0.0
O139 O 0.75129 0.54584 0.12135 0.0
O140 O 0.79244 0.58052 0.12342 0.0
O141 O 0.73382 0.57296 0.1976 0.0
H142 H 0.69749 0.52559 0.11417 0.0
H143 H 0.70837 0.50093 0.31293 0.0
O144 O 0.77481 0.60737 0.20144 0.0
O145 O 0.78505 0.58669 0.31686 0.0
O146 O 0.7433 0.55353 0.31392 0.0
C147 C 0.76316 0.57159 0.34819 0.0
H148 H 0.86745 0.67507 0.27013 0.0
H149 H 0.65169 0.48255 0.15046 0.0
Co150 Co 0.22588 0.8052 0.41412 0.0
C151 C 0.26329 0.85946 0.39473 0.0
Co152 Co 0.26819 0.81415 0.41339 0.0
C153 C 0.16863 0.77744 0.38087 0.0
C154 C 0.18131 0.81287 0.4439 0.0
N155 N 0.19041 0.7977 0.41343 0.0
N156 N 0.14643 0.77962 0.38925 0.0
C157 C 0.15439 0.8019 0.42897 0.0
H158 H 0.16925 0.76187 0.34989 0.0
H159 H 0.19359 0.83101 0.47428 0.0
C160 C 0.23159 0.7603 0.43567 0.0
N161 N 0.30381 0.82214 0.4141 0.0
C162 C 0.31585 0.81193 0.37328 0.0
C163 C 0.32362 0.84039 0.45607 0.0
N164 N 0.3423 0.82299 0.38855 0.0
C165 C 0.34722 0.84084 0.4408 0.0
C166 C 0.2497 0.818 0.54355 0.0
O167 O 0.21436 0.76805 0.43074 0.0
O168 O 0.25642 0.77741 0.42875 0.0
O169 O 0.26973 0.81996 0.51057 0.0
O170 O 0.22796 0.81137 0.51088 0.0
O171 O 0.27978 0.85086 0.39858 0.0
H172 H 0.32116 0.85283 0.49489 0.0
H173 H 0.30538 0.79653 0.33351 0.0
O174 O 0.23821 0.84272 0.3987 0.0
O175 O 0.22409 0.7991 0.31703 0.0
O176 O 0.26607 0.80826 0.31666 0.0
C177 C 0.2443 0.80147 0.28397 0.0
H178 H 0.14163 0.8097 0.44608 0.0
H179 H 0.36662 0.85371 0.4652 0.0
C180 C 0.43377 0.21444 0.30318 0.0
C181 C 0.44836 0.20421 0.33766 0.0
C182 C 0.43463 0.21656 0.23056 0.0
C183 C 0.4695 0.2149 0.0723 0.0
H184 H 0.39745 0.17677 -0.00765 0.0
C185 C 0.44995 0.17936 0.78699 0.0
C186 C 0.43303 0.18597 0.74924 0.0
C187 C 0.45171 0.18207 0.85966 0.0
C188 C 0.41763 0.18771 0.01403 0.0
H189 H 0.47674 0.18998 0.32486 0.0
H190 H 0.47778 0.19319 0.19696 0.0
H191 H 0.40332 0.18471 0.11873 0.0
H192 H 0.40367 0.19919 0.75721 0.0
H193 H 0.40695 0.20408 0.88453 0.0
H194 H 0.48376 0.21763 0.96739 0.0
C195 C 0.46592 0.19974 0.22633 0.0
C196 C 0.421 0.19236 0.08593 0.0
C197 C 0.46514 0.1977 0.29916 0.0
C198 C 0.41689 0.19399 0.78523 0.0
C199 C 0.41872 0.19676 0.85789 0.0
C200 C 0.46612 0.21031 0.00022 0.0
C201 C 0.45 0.20838 0.19173 0.0
C202 C 0.44693 0.2058 0.11542 0.0
C203 C 0.43659 0.1914 0.89521 0.0
C204 C 0.44015 0.19647 0.97091 0.0
H205 H 0.42108 0.2201 0.33199 0.0
H206 H 0.42253 0.22364 0.20452 0.0
H207 H 0.48963 0.2254 0.0944 0.0
H208 H 0.46245 0.17292 0.76039 0.0
H209 H 0.46522 0.17734 0.88795 0.0
C210 C 0.18324 0.40163 0.50084 0.0
C211 C 0.18241 0.42242 0.5379 0.0
C212 C 0.18395 0.40192 0.42792 0.0
C213 C 0.20822 0.45006 0.2875 0.0
H214 H 0.17011 0.38716 0.16691 0.0
C215 C 0.20554 0.45296 -0.01301 0.0
C216 C 0.20635 0.43218 0.94985 0.0
C217 C 0.20509 0.45278 0.05994 0.0
C218 C 0.18115 0.40474 0.20034 0.0
H219 H 0.1797 0.4587 0.52857 0.0
H220 H 0.18085 0.45909 0.40029 0.0
H221 H 0.16001 0.38354 0.29225 0.0
H222 H 0.20935 0.39605 0.95907 0.0
H223 H 0.20859 0.39582 0.08736 0.0
H224 H 0.22934 0.47126 0.19554 0.0
C225 C 0.18135 0.44288 0.42799 0.0
C226 C 0.17522 0.40272 0.27155 0.0
C227 C 0.18057 0.44257 0.50107 0.0
C228 C 0.20845 0.41216 -0.01339 0.0
C229 C 0.20792 0.41195 0.0597 0.0
C230 C 0.21415 0.45208 0.21627 0.0
C231 C 0.18383 0.42298 0.39124 0.0
C232 C 0.18871 0.42537 0.31547 0.0
C233 C 0.20543 0.43182 0.09655 0.0
C234 C 0.20065 0.42942 0.17236 0.0
H235 H 0.18441 0.3857 0.52811 0.0
H236 H 0.186 0.38644 0.40048 0.0
H237 H 0.21926 0.46764 0.32092 0.0
H238 H 0.20417 0.4688 0.95982 0.0
H239 H 0.20302 0.46823 0.08748 0.0
C240 C 0.82842 0.25918 0.14091 0.0
C241 C 0.81813 0.23477 0.10374 0.0
C242 C 0.82824 0.25925 0.21372 0.0
C243 C 0.78911 0.21695 0.35511 0.0
H244 H 0.84733 0.26937 0.47284 0.0
C245 C 0.79265 0.21258 0.65429 0.0
C246 C 0.80289 0.23696 0.69157 0.0
C247 C 0.79234 0.21252 0.58147 0.0
C248 C 0.83084 0.25495 0.44017 0.0
H249 H 0.80119 0.19154 0.11244 0.0
H250 H 0.80091 0.19176 0.24088 0.0
H251 H 0.85447 0.26778 0.34689 0.0
H252 H 0.81921 0.28011 0.68321 0.0
H253 H 0.81875 0.27992 0.55476 0.0
H254 H 0.76551 0.20406 0.44849 0.0
C255 C 0.80878 0.21067 0.21323 0.0
C256 C 0.83499 0.25388 0.36871 0.0
C257 C 0.80903 0.21058 0.14018 0.0
C258 C 0.81144 0.2611 0.65535 0.0
C259 C 0.81123 0.26103 0.5823 0.0
C260 C 0.78496 0.218 0.42659 0.0
C261 C 0.81777 0.23494 0.2501 0.0
C262 C 0.81415 0.23487 0.32595 0.0
C263 C 0.80232 0.23682 0.54524 0.0
C264 C 0.80581 0.23701 0.46934 0.0
H265 H 0.83582 0.27816 0.11388 0.0
H266 H 0.8351 0.27816 0.2414 0.0
H267 H 0.77263 0.20251 0.32244 0.0
H268 H 0.78564 0.19364 0.68123 0.0
H269 H 0.78556 0.19366 0.55358 0.0
C270 C 0.55963 0.7237 0.31242 0.0
C271 C 0.57952 0.74596 0.27612 0.0
C272 C 0.55929 0.72399 0.38556 0.0
C273 C 0.59888 0.75839 0.54301 0.0
H274 H 0.52997 0.74316 0.61831 0.0
C275 C 0.58847 0.78244 0.82821 0.0
C276 C 0.56844 0.76033 0.86467 0.0
C277 C 0.58891 0.78196 0.75508 0.0
C278 C 0.54926 0.74737 0.59783 0.0
H279 H 0.61586 0.78493 0.28689 0.0
H280 H 0.61507 0.78546 0.41457 0.0
H281 H 0.53395 0.73653 0.49302 0.0
H282 H 0.53198 0.72144 0.85408 0.0
H283 H 0.53293 0.7206 0.7265 0.0
H284 H 0.6142 0.76924 0.64782 0.0
C285 C 0.5998 0.76787 0.3867 0.0
C286 C 0.55149 0.74336 0.52661 0.0
C287 C 0.60011 0.76764 0.31373 0.0
C288 C 0.54783 0.73863 0.82716 0.0
C289 C 0.54824 0.73821 0.75421 0.0
C290 C 0.59666 0.76239 0.61424 0.0
C291 C 0.57892 0.74646 0.42292 0.0
C292 C 0.57631 0.74886 0.49882 0.0
C293 C 0.56925 0.75947 0.71788 0.0
C294 C 0.57184 0.75692 0.64202 0.0
H295 H 0.54368 0.70664 0.28449 0.0
H296 H 0.54323 0.7071 0.41286 0.0
H297 H 0.61818 0.76263 0.52249 0.0
H298 H 0.60446 0.79951 0.85604 0.0
H299 H 0.60506 0.79874 0.72769 0.0
C300 C 0.73905 0.55411 0.46088 0.0
C301 C 0.76166 0.57351 0.42458 0.0
C302 C 0.7394 0.55348 0.53395 0.0
C303 C 0.77489 0.59178 0.69198 0.0
H304 H 0.75539 0.52141 0.76599 0.0
C305 C 0.79691 0.57896 -0.02331 0.0
C306 C 0.77434 0.55964 0.01325 0.0
C307 C 0.79647 0.57948 0.90361 0.0
C308 C 0.76078 0.5411 0.74589 0.0
H309 H 0.80146 0.60868 0.43555 0.0
H310 H 0.80208 0.60737 0.56329 0.0
H311 H 0.74977 0.52632 0.64066 0.0
H312 H 0.73452 0.52446 0.00268 0.0
H313 H 0.73375 0.52557 0.87496 0.0
H314 H 0.78591 0.60657 0.79719 0.0
C315 C 0.78416 0.59273 0.53534 0.0
C316 C 0.75738 0.54388 0.67461 0.0
C317 C 0.78385 0.59336 0.46233 0.0
C318 C 0.75211 0.53973 -0.02427 0.0
C319 C 0.75171 0.54025 0.90271 0.0
C320 C 0.77829 0.589 0.76324 0.0
C321 C 0.76229 0.57228 0.57141 0.0
C322 C 0.76441 0.56924 0.64726 0.0
C323 C 0.77352 0.56065 0.8664 0.0
C324 C 0.77129 0.56365 0.79058 0.0
H325 H 0.72158 0.53872 0.43295 0.0
H326 H 0.72215 0.5378 0.56108 0.0
H327 H 0.78028 0.61147 0.67188 0.0
H328 H 0.81443 0.59437 0.00441 0.0
H329 H 0.8137 0.59512 0.87628 0.0
C330 C 0.21992 0.79335 0.17049 0.0
C331 C 0.24319 0.79848 0.20757 0.0
C332 C 0.22021 0.79444 0.09753 0.0
C333 C 0.25717 0.79486 0.94119 0.0
H334 H 0.2318 0.84106 0.86585 0.0
C335 C 0.27484 0.82782 0.65623 0.0
C336 C 0.25117 0.82177 0.61973 0.0
C337 C 0.27511 0.82779 0.72924 0.0
C338 C 0.23886 0.8281 0.88642 0.0
H339 H 0.28432 0.8067 0.19816 0.0
H340 H 0.28484 0.80886 0.07051 0.0
H341 H 0.22764 0.83124 -0.00856 0.0
H342 H 0.20993 0.81308 0.63001 0.0
H343 H 0.21038 0.81273 0.75792 0.0
H344 H 0.26835 0.79168 0.8362 0.0
C345 C 0.26644 0.804 0.09781 0.0
C346 C 0.23631 0.82232 0.95775 0.0
C347 C 0.26617 0.80291 0.17073 0.0
C348 C 0.22836 0.81754 0.65704 0.0
C349 C 0.22865 0.81752 0.73006 0.0
C350 C 0.25975 0.80066 0.8699 0.0
C351 C 0.24374 0.8006 0.06105 0.0
C352 C 0.24539 0.80561 -0.01458 0.0
C353 C 0.25175 0.82178 0.76637 0.0
C354 C 0.25058 0.81729 0.84219 0.0
H355 H 0.20183 0.78956 0.19775 0.0
H356 H 0.20235 0.7913 0.06973 0.0
H357 H 0.26414 0.78181 0.96163 0.0
H358 H 0.29283 0.83154 0.62858 0.0
H359 H 0.29325 0.83155 0.75666 0.0
C360 C 0.39871 0.09725 0.49051 0.0
C361 C 0.38793 0.11384 0.50721 0.0
C362 C 0.38197 0.07038 0.47126 0.0
C363 C 0.31411 1.01291 0.48654 0.0
H364 H 0.33595 0.98582 0.32759 0.0
C365 C 0.25698 0.89977 0.40517 0.0
C366 C 0.27372 0.88888 0.39198 0.0
C367 C 0.26787 0.92773 0.41089 0.0
C368 C 0.32959 0.99299 0.37226 0.0
H369 H 0.3509 0.11492 0.51807 0.0
H370 H 0.32142 0.06744 0.4853 0.0
H371 H 0.36069 0.0337 0.35608 0.0
H372 H 0.31485 0.89888 0.37199 0.0
H373 H 0.33368 0.94715 0.38214 0.0
H374 H 0.2836 0.97196 0.50431 0.0
C375 C 0.34297 0.07553 0.48687 0.0
C376 C 0.34375 0.02045 0.3885 0.0
C377 C 0.35983 0.10267 0.5055 0.0
C378 C 0.30133 0.90653 0.38207 0.0
C379 C 0.31215 0.93432 0.38749 0.0
C380 C 0.29998 0.9853 0.47053 0.0
C381 C 0.35395 0.05923 0.46863 0.0
C382 C 0.33663 0.03062 0.44686 0.0
C383 C 0.29567 0.94533 0.40298 0.0
C384 C 0.30803 0.97493 0.41428 0.0
H385 H 0.42022 0.1051 0.49128 0.0
H386 H 0.39101 0.05823 0.4587 0.0
H387 H 0.30822 0.02018 0.53196 0.0
H388 H 0.23562 0.88671 0.41331 0.0
H389 H 0.25459 0.93555 0.42224 0.0
C390 C 0.34372 0.2471 0.52519 0.0
C391 C 0.36024 0.24236 0.57067 0.0
C392 C 0.33409 0.26416 0.54511 0.0
C393 C 0.31925 0.2932 0.70027 0.0
H394 H 0.30985 0.33601 0.55776 0.0
C395 C 0.26561 0.35575 0.75072 0.0
C396 C 0.24479 0.34949 0.70204 0.0
C397 C 0.28412 0.3469 0.73906 0.0
C398 C 0.31244 0.32426 0.59825 0.0
H399 H 0.37982 0.25226 0.67291 0.0
H400 H 0.36315 0.28247 0.70766 0.0
H401 H 0.33463 0.31298 0.52973 0.0
H402 H 0.22767 0.33025 0.60191 0.0
H403 H 0.25995 0.31529 0.581 0.0
H404 H 0.29654 0.30432 0.76832 0.0
C405 C 0.35751 0.27269 0.6566 0.0
C406 C 0.32653 0.31094 0.58215 0.0
C407 C 0.36725 0.25556 0.63646 0.0
C408 C 0.24334 0.3351 0.64064 0.0
C409 C 0.26197 0.32674 0.62841 0.0
C410 C 0.30527 0.30675 0.71657 0.0
C411 C 0.34075 0.27715 0.61109 0.0
C412 C 0.32934 0.29448 0.63212 0.0
C413 C 0.28241 0.33227 0.67768 0.0
C414 C 0.301 0.32171 0.66496 0.0
H415 H 0.3382 0.23767 0.47375 0.0
H416 H 0.32091 0.2667 0.50903 0.0
H417 H 0.32092 0.28064 0.73997 0.0
H418 H 0.26706 0.36676 0.79851 0.0
H419 H 0.29972 0.35148 0.77784 0.0
C420 C 0.90055 0.24553 0.86384 0.0
C421 C 0.89007 0.26261 0.8778 0.0
C422 C 0.92838 0.25622 0.85615 0.0
C423 C 0.99341 0.317 0.90031 0.0
H424 H 1.02203 0.29717 0.74099 0.0
C425 C 0.09908 0.38695 0.79774 0.0
C426 C 0.11551 0.37617 0.77961 0.0
C427 C 0.07203 0.37011 0.81363 0.0
C428 C 1.01434 0.3026 0.78635 0.0
H429 H 0.90068 0.30426 0.89462 0.0
H430 H 0.94859 0.32261 0.88124 0.0
H431 H 0.97349 0.27257 0.76291 0.0
H432 H 0.1162 0.33908 0.76294 0.0
H433 H 0.06847 0.30946 0.79024 0.0
H434 H 0.03393 0.34746 0.92274 0.0
C435 C 0.93555 0.301 0.87696 0.0
C436 C 0.98657 0.28851 0.79895 0.0
C437 C 0.90796 0.29044 0.88415 0.0
C438 C 0.10408 0.34801 0.77686 0.0
C439 C 0.07677 0.33106 0.79223 0.0
C440 C 1.02099 0.33105 0.88767 0.0
C441 C 0.94618 0.2841 0.86308 0.0
C442 C 0.97575 0.29611 0.85492 0.0
C443 C 0.06056 0.34199 0.81151 0.0
C444 C 0.03171 0.32455 0.82944 0.0
H445 H 0.88729 0.22401 0.85844 0.0
H446 H 0.93599 0.24268 0.84554 0.0
H447 H 0.98579 0.32294 0.94485 0.0
H448 H 0.10715 0.40851 0.8003 0.0
H449 H 0.05999 0.37916 0.8271 0.0
C450 C 0.68396 0.89897 0.04244 0.0
C451 C 0.65611 0.88247 0.05138 0.0
C452 C 0.69519 0.92637 0.02873 0.0
C453 C 0.68009 0.97882 0.96835 0.0
H454 H 0.74868 0.02604 0.05884 0.0
C455 C 0.73797 0.09625 0.94228 0.0
C456 C 0.7652 0.1073 0.92446 0.0
C457 C 0.72265 0.06915 0.96212 0.0
C458 C 0.72956 1.01314 0.03306 0.0
H459 H 0.61806 0.88172 0.05072 0.0
H460 H 0.63774 0.93 0.02726 0.0
H461 H 0.72537 0.97809 0.08358 0.0
H462 H 0.7979 0.09892 0.91577 0.0
H463 H 0.77148 0.05203 0.95087 0.0
H464 H 0.68457 1.01426 0.91783 0.0
C465 C 0.65088 0.92156 0.03047 0.0
C466 C 0.71621 0.98559 0.04695 0.0
C467 C 0.63958 0.89392 0.04385 0.0
C468 C 0.77693 0.09093 0.92855 0.0
C469 C 0.76182 0.06411 0.94922 0.0
C470 C 0.69343 1.00656 0.95478 0.0
C471 C 0.67893 0.93823 0.02403 0.0
C472 C 0.69163 0.96791 0.01348 0.0
C473 C 0.73447 0.0528 0.9658 0.0
C474 C 0.71863 0.02392 -0.0142 0.0
H475 H 0.6972 0.89067 0.04618 0.0
H476 H 0.71674 0.93829 0.02189 0.0
H477 H 0.66125 0.96584 0.94147 0.0
H478 H 0.72839 0.10837 0.93912 0.0
H479 H 0.70164 0.06101 -0.02511 0.0
C480 C 0.75533 0.64415 0.17401 0.0
C481 C 0.739 0.61594 0.17253 0.0
C482 C 0.74492 0.66061 0.15343 0.0
C483 C 0.69051 0.65934 0.04667 0.0
H484 H 0.6991 0.71821 0.16583 0.0
C485 C 0.61815 0.70061 0.03318 0.0
C486 C 0.62752 0.72802 0.04669 0.0
C487 C 0.63532 0.69009 0.03933 0.0
C488 C 0.69695 0.70221 0.13111 0.0
H489 H 0.69894 0.58299 0.14826 0.0
H490 H 0.68102 0.61155 0.1123 0.0
H491 H 0.72265 0.69392 0.19572 0.0
H492 H 0.66267 0.76609 0.07473 0.0
H493 H 0.69289 0.74766 0.08482 0.0
H494 H 0.66459 0.66722 -0.01746 0.0
C495 C 0.70186 0.62099 0.12895 0.0
C496 C 0.71039 0.68825 0.14842 0.0
C497 C 0.71211 0.60462 0.15016 0.0
C498 C 0.65483 0.7449 0.06379 0.0
C499 C 0.67208 0.7343 0.0702 0.0
C500 C 0.67724 0.67335 0.02914 0.0
C501 C 0.71812 0.64915 0.13003 0.0
C502 C 0.7067 0.66618 0.10742 0.0
C503 C 0.66239 0.70664 0.05915 0.0
C504 C 0.67965 0.69447 0.0722 0.0
H505 H 0.77612 0.65349 0.19098 0.0
H506 H 0.75793 0.68226 0.15472 0.0
H507 H 0.68771 0.64276 0.01323 0.0
H508 H 0.59723 0.687 0.01998 0.0
H509 H 0.62699 0.66865 0.03138 0.0
C510 C 0.91504 0.6779 0.21547 0.0
C511 C 0.89713 0.65037 0.22631 0.0
C512 C 0.94276 0.68848 0.22106 0.0
C513 C 0.99302 0.67552 0.30562 0.0
H514 H 0.04229 0.73719 0.19514 0.0
C515 C 0.10912 0.73465 0.35335 0.0
C516 C 0.11991 0.76262 0.36005 0.0
C517 C 0.08274 0.71818 0.32848 0.0
C518 C 0.0288 0.71995 0.22637 0.0
H519 H 0.89446 0.61215 0.2489 0.0
H520 H 0.94319 0.6306 0.2577 0.0
H521 H 0.99466 0.71267 0.16427 0.0
H522 H 0.11194 0.79532 0.34348 0.0
H523 H 0.06624 0.76679 0.29962 0.0
H524 H 0.02736 0.68319 0.36821 0.0
C525 C 0.93563 0.64406 0.24577 0.0
C526 C 1.00146 0.70592 0.20885 0.0
C527 C 0.90772 0.63342 0.23999 0.0
C528 C 0.10409 0.77382 0.33961 0.0
C529 C 0.07799 0.75749 0.31384 0.0
C530 C 1.02048 0.68947 0.3228 0.0
C531 C 0.95349 0.67185 0.23741 0.0
C532 C 0.98304 0.68403 0.24954 0.0
C533 C 0.06689 0.72946 0.30853 0.0
C534 C 0.03853 0.71232 0.28459 0.0
H535 H 0.90758 0.69146 0.20392 0.0
H536 H 0.95572 0.70999 0.21511 0.0
H537 H 0.97946 0.65892 0.33854 0.0
H538 H 0.12083 0.72549 0.36906 0.0
H539 H 0.07474 0.69665 0.32477 0.0
C540 C 0.48626 0.29078 0.53565 0.0
C541 C 0.49388 0.2716 0.55148 0.0
C542 C 0.50557 0.31687 0.51576 0.0
C543 C 0.57969 0.36454 0.50355 0.0
H544 H 0.55923 0.38958 0.33822 0.0
C545 C 0.65444 0.46278 0.35989 0.0
C546 C 0.6534 0.46196 0.28592 0.0
C547 C 0.63462 0.44163 0.39923 0.0
C548 C 0.56534 0.38284 0.38418 0.0
H549 H 0.52801 0.26544 0.56384 0.0
H550 H 0.56139 0.31051 0.52851 0.0
H551 H 0.52564 0.34969 0.39866 0.0
H552 H 0.63104 0.43795 0.19547 0.0
H553 H 0.59679 0.401 0.26364 0.0
H554 H 0.61972 0.39696 0.48677 0.0
C555 C 0.54062 0.30566 0.53179 0.0
C556 C 0.54594 0.36016 0.41964 0.0
C557 C 0.52138 0.27966 0.5518 0.0
C558 C 0.63221 0.43943 0.25229 0.0
C559 C 0.6125 0.41826 0.29151 0.0
C560 C 0.59915 0.38719 0.46786 0.0
C561 C 0.5329 0.32435 0.51123 0.0
C562 C 0.55293 0.3504 0.47908 0.0
C563 C 0.61335 0.41911 0.36552 0.0
C564 C 0.59232 0.39632 0.40689 0.0
H565 H 0.46527 0.28529 0.53516 0.0
H566 H 0.49896 0.33093 0.50169 0.0
H567 H 0.58575 0.35782 0.54963 0.0
H568 H 0.67027 0.48001 0.3875 0.0
H569 H 0.63577 0.44313 0.45608 0.0
C570 C 0.16383 0.53997 0.695 0.0
C571 C 0.18395 0.53289 0.69106 0.0
C572 C 0.16695 0.56293 0.66122 0.0
C573 C 0.20692 0.61297 0.52381 0.0
H574 H 0.18349 0.65708 0.62154 0.0
C575 C 0.24207 0.72319 0.45032 0.0
C576 C 0.2233 0.73208 0.45334 0.0
C577 C 0.2352 0.69738 0.47268 0.0
C578 C 0.18978 0.64478 0.59306 0.0
H579 H 0.22316 0.54445 0.6485 0.0
H580 H 0.2289 0.5848 0.59049 0.0
H581 H 0.17594 0.61528 0.67428 0.0
H582 H 0.18228 0.72052 0.48036 0.0
H583 H 0.1703 0.67535 0.51981 0.0
H584 H 0.22142 0.643 0.44349 0.0
C585 C 0.2104 0.5723 0.61849 0.0
C586 C 0.18545 0.62078 0.62327 0.0
C587 C 0.20718 0.54919 0.65192 0.0
C588 C 0.19721 0.71428 0.4774 0.0
C589 C 0.1904 0.68849 0.5004 0.0
C590 C 0.2114 0.63708 0.49382 0.0
C591 C 0.19037 0.57955 0.62297 0.0
C592 C 0.19414 0.60463 0.58933 0.0
C593 C 0.20944 0.67989 0.49909 0.0
C594 C 0.20307 0.65337 0.52837 0.0
H595 H 0.14548 0.52757 0.7236 0.0
H596 H 0.15086 0.56754 0.66472 0.0
H597 H 0.21344 0.60084 0.4955 0.0
H598 H 0.26233 0.73636 0.43193 0.0
H599 H 0.25041 0.69148 0.47158 0.0
C600 C 0.71277 0.18735 0.87847 0.0
C601 C 0.73241 0.2134 0.90008 0.0
C602 C 0.68725 0.18218 0.85669 0.0
C603 C 0.65842 0.21792 0.76952 0.0
H604 H 0.58875 0.15602 0.80958 0.0
C605 C 0.56588 0.18537 0.59154 0.0
C606 C 0.54238 0.18139 0.62472 0.0
C607 C 0.58785 0.1887 0.63127 0.0
C608 C 0.6081 0.17345 0.79831 0.0
H609 H 0.73983 0.25378 0.92172 0.0
H610 H 0.69559 0.24472 0.88347 0.0
H611 H 0.62887 0.1623 0.8733 0.0
H612 H 0.52318 0.17721 0.72539 0.0
H613 H 0.56167 0.1826 0.79529 0.0
H614 H 0.638 0.22875 0.69338 0.0
C615 C 0.7 0.22843 0.8825 0.0
C616 C 0.63099 0.17695 0.8344 0.0
C617 C 0.72532 0.23355 0.90463 0.0
C618 C 0.54116 0.18048 0.6986 0.0
C619 C 0.56303 0.18333 0.73844 0.0
C620 C 0.63573 0.21418 0.73277 0.0
C621 C 0.68106 0.203 0.85585 0.0
C622 C 0.65637 0.19927 0.82031 0.0
C623 C 0.58665 0.18769 0.70506 0.0
C624 C 0.61037 0.19189 0.74654 0.0
H625 H 0.71757 0.17139 0.87439 0.0
H626 H 0.673 0.16238 0.83633 0.0
H627 H 0.67777 0.23514 0.75696 0.0
H628 H 0.56743 0.18635 0.53477 0.0
H629 H 0.60579 0.19193 0.60425 0.0
C630 C 0.45506 0.64774 0.94533 0.0
C631 C 0.4713 0.63922 -0.02076 0.0
C632 C 0.43232 0.62948 0.90668 0.0
C633 C 0.3994 0.5615 0.8223 0.0
H634 H 0.3346 0.56567 0.84603 0.0
C635 C 0.29192 0.47443 0.75394 0.0
C636 C 0.27292 0.48135 0.73058 0.0
C637 C 0.31803 0.49455 0.77239 0.0
C638 C 0.3526 0.56444 0.83769 0.0
H639 H 0.47659 0.60477 -0.00332 0.0
H640 H 0.4367 0.57298 0.93132 0.0
H641 H 0.37615 0.59921 0.90201 0.0
H642 H 0.26711 0.5147 0.70233 0.0
H643 H 0.31262 0.54958 0.73295 0.0
H644 H 0.37547 0.52623 0.7592 0.0
C645 C 0.44168 0.59383 0.9339 0.0
C646 C 0.37649 0.58374 0.86992 0.0
C647 C 0.46441 0.61206 0.97241 0.0
C648 C 0.28117 0.50868 0.7209 0.0
C649 C 0.30721 0.52871 0.739 0.0
C650 C 0.37542 0.54211 0.79011 0.0
C651 C 0.4252 0.60224 0.90094 0.0
C652 C 0.40017 0.58243 0.86316 0.0
C653 C 0.32565 0.52194 0.76756 0.0
C654 C 0.35168 0.54327 0.79777 0.0
H655 H 0.4596 0.6684 0.94959 0.0
H656 H 0.42028 0.63676 0.8813 0.0
H657 H 0.41735 0.56008 0.81513 0.0
H658 H 0.28617 0.45357 0.76225 0.0
H659 H 0.33169 0.48861 0.79436 0.0
C660 C 0.81907 0.52023 0.21166 0.0
C661 C 0.79408 0.51394 0.24018 0.0
C662 C 0.82464 0.4997 0.19485 0.0
C663 C 0.78729 0.42788 0.14531 0.0
H664 H 0.85758 0.43394 0.1476 0.0
C665 C 0.80321 0.34289 0.03594 0.0
C666 C 0.8258 0.35095 -0.0071 0.0
C667 C 0.80035 0.36183 0.07604 0.0
C668 C 0.83784 0.43201 0.1463 0.0
H669 H 0.75641 0.48158 0.27968 0.0
H670 H 0.76641 0.44601 0.25247 0.0
H671 H 0.85148 0.46899 0.20343 0.0
H672 H 0.86362 0.38525 0.96092 0.0
H673 H 0.85835 0.41822 0.02931 0.0
H674 H 0.77372 0.39134 0.08699 0.0
C675 C 0.78138 0.46662 0.24081 0.0
C676 C 0.83435 0.45209 0.17836 0.0
C677 C 0.77574 0.48704 0.25702 0.0
C678 C 0.84575 0.37833 -0.00756 0.0
C679 C 0.84291 0.39724 0.03255 0.0
C680 C 0.79078 0.40786 0.11339 0.0
C681 C 0.80539 0.47253 0.20672 0.0
C682 C 0.80906 0.45039 0.17771 0.0
C683 C 0.82003 0.3893 0.07425 0.0
C684 C 0.81614 0.40978 0.11277 0.0
H685 H 0.83356 0.54075 0.19772 0.0
H686 H 0.84331 0.50502 0.1685 0.0
H687 H 0.76765 0.42614 0.1423 0.0
H688 H 0.78739 0.32204 0.03743 0.0
H689 H 0.78261 0.35496 0.1082 0.0
C690 C 0.52477 0.80126 0.12276 0.0
C691 C 0.51847 0.77433 0.11477 0.0
C692 C 0.5054 0.80732 0.1475 0.0
C693 C 0.44623 0.77929 0.2593 0.0
H694 H 0.42944 0.8301 0.17179 0.0
C695 C 0.38276 0.81848 0.39552 0.0
C696 C 0.36159 0.81743 0.35573 0.0
C697 C 0.40185 0.81362 0.36389 0.0
C698 C 0.43392 0.81582 0.19656 0.0
H699 H 0.48663 0.73271 0.12471 0.0
H700 H 0.45329 0.74334 0.16853 0.0
H701 H 0.46335 0.82138 0.11894 0.0
H702 H 0.34399 0.81083 0.25143 0.0
H703 H 0.37772 0.8026 0.1956 0.0
H704 H 0.41715 0.77387 0.33723 0.0
C705 C 0.47314 0.75973 0.1558 0.0
C706 C 0.45341 0.811 0.16669 0.0
C707 C 0.49227 0.75369 0.13036 0.0
C708 C 0.35997 0.81152 0.28341 0.0
C709 C 0.37936 0.80708 0.25143 0.0
C710 C 0.42713 0.78441 0.28968 0.0
C711 C 0.47957 0.78656 0.16558 0.0
C712 C 0.45959 0.79253 0.19758 0.0
C713 C 0.40042 0.80798 0.29149 0.0
C714 C 0.42069 0.80263 0.25853 0.0
H715 H 0.54475 0.81762 0.11112 0.0
H716 H 0.51087 0.82819 0.15476 0.0
H717 H 0.45075 0.76509 0.28448 0.0
H718 H 0.38438 0.8228 0.4514 0.0
H719 H 0.41793 0.81455 0.39595 0.0
loop_
_geom_bond_atom_site_label_1
_geom_bond_atom_site_label_2
_geom_bond_distance
_geom_bond_site_symmetry_2
_ccdc_geom_bond_type
Co0 N5 2.057 . S
Co0 O17 2.021 . S
Co0 O20 2.062 . S
Co0 O24 2.117 . S
Co0 O25 2.020 . S
C1 O21 1.259 . S
C1 O24 1.258 . S
Co2 N11 2.057 . S
Co2 O18 2.117 . S
Co2 O19 2.020 . S
Co2 O21 2.021 . S
Co2 O26 2.062 . S
C3 N5 1.316 . S
C3 N6 1.347 . S
C3 H8 0.931 . S
C4 N5 1.375 . S
C4 C7 1.350 . S
C4 H9 0.930 . S
N5 Co0 2.057 . S
N5 C3 1.316 . S
N5 C4 1.375 . S
N6 C3 1.347 . S
N6 C7 1.373 . S
C7 C4 1.350 . S
C7 N6 1.373 . S
C7 H28 0.931 . S
H8 C3 0.931 . S
H9 C4 0.930 . S
C10 O17 1.259 . S
C10 O18 1.258 . S
N11 Co2 2.057 . S
N11 C12 1.316 . S
N11 C13 1.375 . S
C12 N11 1.316 . S
C12 N14 1.347 . S
C12 H23 0.931 . S
C13 N11 1.375 . S
C13 C15 1.350 . S
C13 H22 0.930 . S
N14 C12 1.347 . S
N14 C15 1.373 . S
C15 C13 1.350 . S
C15 N14 1.373 . S
C15 H29 0.931 . S
C16 O19 1.256 . S
C16 O20 1.255 . S
O17 Co0 2.021 . S
O17 C10 1.259 . S
O18 Co2 2.117 . S
O18 C10 1.258 . S
O19 Co2 2.020 . S
O19 C16 1.256 . S
O20 Co0 2.062 . S
O20 C16 1.255 . S
O21 C1 1.259 . S
O21 Co2 2.021 . S
H22 C13 0.930 . S
H23 C12 0.931 . S
O24 Co0 2.117 . S
O24 C1 1.258 . S
O25 Co0 2.020 . S
O25 C27 1.256 . S
O26 Co2 2.062 . S
O26 C27 1.255 . S
C27 O25 1.256 . S
C27 O26 1.255 . S
H28 C7 0.931 . S
H29 C15 0.931 . S
Co30 N35 2.057 . S
Co30 O47 2.021 . S
Co30 O50 2.062 . S
Co30 O54 2.117 . S
Co30 O55 2.020 . S
C31 O51 1.259 . S
C31 O54 1.258 . S
Co32 N41 2.057 . S
Co32 O48 2.117 . S
Co32 O49 2.020 . S
Co32 O51 2.021 . S
Co32 O56 2.062 . S
C33 N35 1.316 . S
C33 N36 1.347 . S
C33 H38 0.931 . S
C34 N35 1.375 . S
C34 C37 1.350 . S
C34 H39 0.930 . S
N35 Co30 2.057 . S
N35 C33 1.316 . S
N35 C34 1.375 . S
N36 C33 1.347 . S
N36 C37 1.373 . S
C37 C34 1.350 . S
C37 N36 1.373 . S
C37 H58 0.931 . S
H38 C33 0.931 . S
H39 C34 0.930 . S
C40 O47 1.259 . S
C40 O48 1.258 . S
N41 Co32 2.057 . S
N41 C42 1.316 . S
N41 C43 1.375 . S
C42 N41 1.316 . S
C42 N44 1.347 . S
C42 H53 0.931 . S
C43 N41 1.375 . S
C43 C45 1.350 . S
C43 H52 0.930 . S
N44 C42 1.347 . S
N44 C45 1.373 . S
C45 C43 1.350 . S
C45 N44 1.373 . S
C45 H59 0.931 . S
C46 O49 1.256 . S
C46 O50 1.255 . S
O47 Co30 2.021 . S
O47 C40 1.259 . S
O48 Co32 2.117 . S
O48 C40 1.258 . S
O49 Co32 2.020 . S
O49 C46 1.256 . S
O50 Co30 2.062 . S
O50 C46 1.255 . S
O51 C31 1.259 . S
O51 Co32 2.021 . S
H52 C43 0.930 . S
H53 C42 0.931 . S
O54 Co30 2.117 . S
O54 C31 1.258 . S
O55 Co30 2.020 . S
O55 C57 1.256 . S
O56 Co32 2.062 . S
O56 C57 1.255 . S
C57 O55 1.256 . S
C57 O56 1.255 . S
H58 C37 0.931 . S
H59 C45 0.931 . S
Co60 N65 2.057 . S
Co60 O77 2.021 . S
Co60 O80 2.062 . S
Co60 O84 2.117 . S
Co60 O85 2.020 1_556 S
C61 O81 1.259 . S
C61 O84 1.258 . S
Co62 N71 2.057 . S
Co62 O78 2.117 . S
Co62 O79 2.020 . S
Co62 O81 2.021 . S
Co62 O86 2.062 1_556 S
C63 N65 1.316 . S
C63 N66 1.347 . S
C63 H68 0.931 . S
C64 N65 1.375 . S
C64 C67 1.350 . S
C64 H69 0.930 . S
N65 Co60 2.057 . S
N65 C63 1.316 . S
N65 C64 1.375 . S
N66 C63 1.347 . S
N66 C67 1.373 . S
C67 C64 1.350 . S
C67 N66 1.373 . S
C67 H88 0.931 . S
H68 C63 0.931 . S
H69 C64 0.930 . S
C70 O77 1.259 . S
C70 O78 1.258 . S
N71 Co62 2.057 . S
N71 C72 1.316 . S
N71 C73 1.375 . S
C72 N71 1.316 . S
C72 N74 1.347 1_556 S
C72 H83 0.931 . S
C73 N71 1.375 . S
C73 C75 1.350 . S
C73 H82 0.930 . S
N74 C72 1.347 1_554 S
N74 C75 1.373 1_554 S
C75 C73 1.350 . S
C75 N74 1.373 1_556 S
C75 H89 0.931 . S
C76 O79 1.256 . S
C76 O80 1.255 . S
O77 Co60 2.021 . S
O77 C70 1.259 . S
O78 Co62 2.117 . S
O78 C70 1.258 . S
O79 Co62 2.020 . S
O79 C76 1.256 . S
O80 Co60 2.062 . S
O80 C76 1.255 . S
O81 C61 1.259 . S
O81 Co62 2.021 . S
H82 C73 0.930 . S
H83 C72 0.931 . S
O84 Co60 2.117 . S
O84 C61 1.258 . S
O85 Co60 2.020 1_554 S
O85 C87 1.256 . S
O86 Co62 2.062 1_554 S
O86 C87 1.255 . S
C87 O85 1.256 . S
C87 O86 1.255 . S
H88 C67 0.931 . S
H89 C75 0.931 . S
Co90 N95 2.057 . S
Co90 O107 2.021 . S
Co90 O110 2.062 . S
Co90 O114 2.117 . S
Co90 O115 2.020 1_554 S
C91 O111 1.259 . S
C91 O114 1.258 . S
Co92 N101 2.057 . S
Co92 O108 2.117 . S
Co92 O109 2.020 . S
Co92 O111 2.021 . S
Co92 O116 2.062 1_554 S
C93 N95 1.316 . S
C93 N96 1.347 . S
C93 H98 0.931 . S
C94 N95 1.375 . S
C94 C97 1.350 . S
C94 H99 0.930 . S
N95 Co90 2.057 . S
N95 C93 1.316 . S
N95 C94 1.375 . S
N96 C93 1.347 . S
N96 C97 1.373 . S
C97 C94 1.350 . S
C97 N96 1.373 . S
C97 H118 0.931 . S
H98 C93 0.931 . S
H99 C94 0.930 . S
C100 O107 1.259 . S
C100 O108 1.258 . S
N101 Co92 2.057 . S
N101 C102 1.316 . S
N101 C103 1.375 . S
C102 N101 1.316 . S
C102 N104 1.347 . S
C102 H113 0.931 . S
C103 N101 1.375 . S
C103 C105 1.350 . S
C103 H112 0.930 . S
N104 C102 1.347 . S
N104 C105 1.373 . S
C105 C103 1.350 . S
C105 N104 1.373 . S
C105 H119 0.931 . S
C106 O109 1.256 . S
C106 O110 1.255 . S
O107 Co90 2.021 . S
O107 C100 1.259 . S
O108 Co92 2.117 . S
O108 C100 1.258 . S
O109 Co92 2.020 . S
O109 C106 1.256 . S
O110 Co90 2.062 . S
O110 C106 1.255 . S
O111 C91 1.259 . S
O111 Co92 2.021 . S
H112 C103 0.930 . S
H113 C102 0.931 . S
O114 Co90 2.117 . S
O114 C91 1.258 . S
O115 Co90 2.020 1_556 S
O115 C117 1.256 . S
O116 Co92 2.062 1_556 S
O116 C117 1.255 . S
C117 O115 1.256 . S
C117 O116 1.255 . S
H118 C97 0.931 . S
H119 C105 0.931 . S
Co120 N125 2.057 . S
Co120 O137 2.021 . S
Co120 O140 2.062 . S
Co120 O144 2.117 . S
Co120 O145 2.020 . S
C121 O141 1.259 . S
C121 O144 1.258 . S
Co122 N131 2.057 . S
Co122 O138 2.117 . S
Co122 O139 2.020 . S
Co122 O141 2.021 . S
Co122 O146 2.062 . S
C123 N125 1.316 . S
C123 N126 1.347 . S
C123 H128 0.931 . S
C124 N125 1.375 . S
C124 C127 1.350 . S
C124 H129 0.930 . S
N125 Co120 2.057 . S
N125 C123 1.316 . S
N125 C124 1.375 . S
N126 C123 1.347 . S
N126 C127 1.373 . S
C127 C124 1.350 . S
C127 N126 1.373 . S
C127 H148 0.931 . S
H128 C123 0.931 . S
H129 C124 0.930 . S
C130 O137 1.259 . S
C130 O138 1.258 . S
N131 Co122 2.057 . S
N131 C132 1.316 . S
N131 C133 1.375 . S
C132 N131 1.316 . S
C132 N134 1.347 . S
C132 H143 0.931 . S
C133 N131 1.375 . S
C133 C135 1.350 . S
C133 H142 0.930 . S
N134 C132 1.347 . S
N134 C135 1.373 . S
C135 C133 1.350 . S
C135 N134 1.373 . S
C135 H149 0.931 . S
C136 O139 1.256 . S
C136 O140 1.255 . S
O137 Co120 2.021 . S
O137 C130 1.259 . S
O138 Co122 2.117 . S
O138 C130 1.258 . S
O139 Co122 2.020 . S
O139 C136 1.256 . S
O140 Co120 2.062 . S
O140 C136 1.255 . S
O141 C121 1.259 . S
O141 Co122 2.021 . S
H142 C133 0.930 . S
H143 C132 0.931 . S
O144 Co120 2.117 . S
O144 C121 1.258 . S
O145 Co120 2.020 . S
O145 C147 1.256 . S
O146 Co122 2.062 . S
O146 C147 1.255 . S
C147 O145 1.256 . S
C147 O146 1.255 . S
H148 C127 0.931 . S
H149 C135 0.931 . S
Co150 N155 2.057 . S
Co150 O167 2.021 . S
Co150 O170 2.062 . S
Co150 O174 2.117 . S
Co150 O175 2.020 . S
C151 O171 1.259 . S
C151 O174 1.258 . S
Co152 N161 2.057 . S
Co152 O168 2.117 . S
Co152 O169 2.020 . S
Co152 O171 2.021 . S
Co152 O176 2.062 . S
C153 N155 1.316 . S
C153 N156 1.347 . S
C153 H158 0.931 . S
C154 N155 1.375 . S
C154 C157 1.350 . S
C154 H159 0.930 . S
N155 Co150 2.057 . S
N155 C153 1.316 . S
N155 C154 1.375 . S
N156 C153 1.347 . S
N156 C157 1.373 . S
C157 C154 1.350 . S
C157 N156 1.373 . S
C157 H178 0.931 . S
H158 C153 0.931 . S
H159 C154 0.930 . S
C160 O167 1.259 . S
C160 O168 1.258 . S
N161 Co152 2.057 . S
N161 C162 1.316 . S
N161 C163 1.375 . S
C162 N161 1.316 . S
C162 N164 1.347 . S
C162 H173 0.931 . S
C163 N161 1.375 . S
C163 C165 1.350 . S
C163 H172 0.930 . S
N164 C162 1.347 . S
N164 C165 1.373 . S
C165 C163 1.350 . S
C165 N164 1.373 . S
C165 H179 0.931 . S
C166 O169 1.256 . S
C166 O170 1.255 . S
O167 Co150 2.021 . S
O167 C160 1.259 . S
O168 Co152 2.117 . S
O168 C160 1.258 . S
O169 Co152 2.020 . S
O169 C166 1.256 . S
O170 Co150 2.062 . S
O170 C166 1.255 . S
O171 C151 1.259 . S
O171 Co152 2.021 . S
H172 C163 0.930 . S
H173 C162 0.931 . S
O174 Co150 2.117 . S
O174 C151 1.258 . S
O175 Co150 2.020 . S
O175 C177 1.256 . S
O176 Co152 2.062 . S
O176 C177 1.255 . S
C177 O175 1.256 . S
C177 O176 1.255 . S
H178 C157 0.931 . S
H179 C165 0.931 . S
C180 C181 1.349 . S
C180 C182 1.327 . S
C180 H205 0.950 . S
C181 C180 1.349 . S
C181 C197 1.349 . S
C182 C180 1.327 . S
C182 C201 1.429 . S
C182 H206 0.950 . S
C183 C200 1.574 . S
C183 C202 1.368 . S
C183 H207 0.949 . S
H184 C188 0.949 . S
C185 C186 1.349 . S
C185 C187 1.327 . S
C185 H208 0.950 . S
C186 C185 1.349 . S
C186 C198 1.349 . S
C187 C185 1.327 . S
C187 C203 1.429 . S
C187 H209 0.950 . S
C188 H184 0.949 . S
C188 C196 1.574 . S
C188 C204 1.368 . S
H189 C197 0.950 . S
H190 C195 0.950 . S
H191 C196 0.949 . S
H192 C198 0.950 . S
H193 C199 0.950 . S
H194 C200 0.949 . S
C195 H190 0.950 . S
C195 C197 1.327 . S
C195 C201 1.429 . S
C196 C188 1.574 . S
C196 H191 0.949 . S
C196 C202 1.368 . S
C197 C181 1.349 . S
C197 H189 0.950 . S
C197 C195 1.327 . S
C198 C186 1.349 . S
C198 H192 0.950 . S
C198 C199 1.327 . S
C199 H193 0.950 . S
C199 C198 1.327 . S
C199 C203 1.429 . S
C200 C183 1.574 . S
C200 H194 0.949 . S
C200 C204 1.368 . S
C201 C182 1.429 . S
C201 C195 1.429 . S
C201 C202 1.523 . S
C202 C183 1.368 . S
C202 C196 1.368 . S
C202 C201 1.523 . S
C203 C187 1.429 . S
C203 C199 1.429 . S
C203 C204 1.523 1_556 S
C204 C188 1.368 . S
C204 C200 1.368 . S
C204 C203 1.523 1_554 S
H205 C180 0.950 . S
H206 C182 0.950 . S
H207 C183 0.949 . S
H208 C185 0.950 . S
H209 C187 0.950 . S
C210 C211 1.349 . S
C210 C212 1.327 . S
C210 H235 0.950 . S
C211 C210 1.349 . S
C211 C227 1.349 . S
C212 C210 1.327 . S
C212 C231 1.429 . S
C212 H236 0.950 . S
C213 C230 1.574 . S
C213 C232 1.368 . S
C213 H237 0.949 . S
H214 C218 0.949 . S
C215 C216 1.349 . S
C215 C217 1.327 1_556 S
C215 H238 0.950 . S
C216 C215 1.349 . S
C216 C228 1.349 . S
C217 C215 1.327 1_554 S
C217 C233 1.429 . S
C217 H239 0.950 . S
C218 H214 0.949 . S
C218 C226 1.574 . S
C218 C234 1.368 . S
H219 C227 0.950 . S
H220 C225 0.950 . S
H221 C226 0.949 . S
H222 C228 0.950 . S
H223 C229 0.950 . S
H224 C230 0.949 . S
C225 H220 0.950 . S
C225 C227 1.327 . S
C225 C231 1.429 . S
C226 C218 1.574 . S
C226 H221 0.949 . S
C226 C232 1.368 . S
C227 C211 1.349 . S
C227 H219 0.950 . S
C227 C225 1.327 . S
C228 C216 1.349 . S
C228 H222 0.950 . S
C228 C229 1.327 1_556 S
C229 H223 0.950 . S
C229 C228 1.327 1_554 S
C229 C233 1.429 . S
C230 C213 1.574 . S
C230 H224 0.949 . S
C230 C234 1.368 . S
C231 C212 1.429 . S
C231 C225 1.429 . S
C231 C232 1.523 . S
C232 C213 1.368 . S
C232 C226 1.368 . S
C232 C231 1.523 . S
C233 C217 1.429 . S
C233 C229 1.429 . S
C233 C234 1.523 . S
C234 C218 1.368 . S
C234 C230 1.368 . S
C234 C233 1.523 . S
H235 C210 0.950 . S
H236 C212 0.950 . S
H237 C213 0.949 . S
H238 C215 0.950 . S
H239 C217 0.950 . S
C240 C241 1.349 . S
C240 C242 1.327 . S
C240 H265 0.950 . S
C241 C240 1.349 . S
C241 C257 1.349 . S
C242 C240 1.327 . S
C242 C261 1.429 . S
C242 H266 0.950 . S
C243 C260 1.574 . S
C243 C262 1.368 . S
C243 H267 0.949 . S
H244 C248 0.949 . S
C245 C246 1.349 . S
C245 C247 1.327 . S
C245 H268 0.950 . S
C246 C245 1.349 . S
C246 C258 1.349 . S
C247 C245 1.327 . S
C247 C263 1.429 . S
C247 H269 0.950 . S
C248 H244 0.949 . S
C248 C256 1.574 . S
C248 C264 1.368 . S
H249 C257 0.950 . S
H250 C255 0.950 . S
H251 C256 0.949 . S
H252 C258 0.950 . S
H253 C259 0.950 . S
H254 C260 0.949 . S
C255 H250 0.950 . S
C255 C257 1.327 . S
C255 C261 1.429 . S
C256 C248 1.574 . S
C256 H251 0.949 . S
C256 C262 1.368 . S
C257 C241 1.349 . S
C257 H249 0.950 . S
C257 C255 1.327 . S
C258 C246 1.349 . S
C258 H252 0.950 . S
C258 C259 1.327 . S
C259 H253 0.950 . S
C259 C258 1.327 . S
C259 C263 1.429 . S
C260 C243 1.574 . S
C260 H254 0.949 . S
C260 C264 1.368 . S
C261 C242 1.429 . S
C261 C255 1.429 . S
C261 C262 1.523 . S
C262 C243 1.368 . S
C262 C256 1.368 . S
C262 C261 1.523 . S
C263 C247 1.429 . S
C263 C259 1.429 . S
C263 C264 1.523 . S
C264 C248 1.368 . S
C264 C260 1.368 . S
C264 C263 1.523 . S
H265 C240 0.950 . S
H266 C242 0.950 . S
H267 C243 0.949 . S
H268 C245 0.950 . S
H269 C247 0.950 . S
C270 C271 1.349 . S
C270 C272 1.327 . S
C270 H295 0.950 . S
C271 C270 1.349 . S
C271 C287 1.349 . S
C272 C270 1.327 . S
C272 C291 1.429 . S
C272 H296 0.950 . S
C273 C290 1.574 . S
C273 C292 1.368 . S
C273 H297 0.949 . S
H274 C278 0.949 . S
C275 C276 1.349 . S
C275 C277 1.327 . S
C275 H298 0.950 . S
C276 C275 1.349 . S
C276 C288 1.349 . S
C277 C275 1.327 . S
C277 C293 1.429 . S
C277 H299 0.950 . S
C278 H274 0.949 . S
C278 C286 1.574 . S
C278 C294 1.368 . S
H279 C287 0.950 . S
H280 C285 0.950 . S
H281 C286 0.949 . S
H282 C288 0.950 . S
H283 C289 0.950 . S
H284 C290 0.949 . S
C285 H280 0.950 . S
C285 C287 1.327 . S
C285 C291 1.429 . S
C286 C278 1.574 . S
C286 H281 0.949 . S
C286 C292 1.368 . S
C287 C271 1.349 . S
C287 H279 0.950 . S
C287 C285 1.327 . S
C288 C276 1.349 . S
C288 H282 0.950 . S
C288 C289 1.327 . S
C289 H283 0.950 . S
C289 C288 1.327 . S
C289 C293 1.429 . S
C290 C273 1.574 . S
C290 H284 0.949 . S
C290 C294 1.368 . S
C291 C272 1.429 . S
C291 C285 1.429 . S
C291 C292 1.523 . S
C292 C273 1.368 . S
C292 C286 1.368 . S
C292 C291 1.523 . S
C293 C277 1.429 . S
C293 C289 1.429 . S
C293 C294 1.523 . S
C294 C278 1.368 . S
C294 C290 1.368 . S
C294 C293 1.523 . S
H295 C270 0.950 . S
H296 C272 0.950 . S
H297 C273 0.949 . S
H298 C275 0.950 . S
H299 C277 0.950 . S
C300 C301 1.349 . S
C300 C302 1.327 . S
C300 H325 0.950 . S
C301 C300 1.349 . S
C301 C317 1.349 . S
C302 C300 1.327 . S
C302 C321 1.429 . S
C302 H326 0.950 . S
C303 C320 1.574 . S
C303 C322 1.368 . S
C303 H327 0.949 . S
H304 C308 0.949 . S
C305 C306 1.349 . S
C305 C307 1.327 . S
C305 H328 0.950 . S
C306 C305 1.349 . S
C306 C318 1.349 . S
C307 C305 1.327 . S
C307 C323 1.429 1_554 S
C307 H329 0.950 1_554 S
C308 H304 0.949 . S
C308 C316 1.574 . S
C308 C324 1.368 . S
H309 C317 0.950 . S
H310 C315 0.950 . S
H311 C316 0.949 . S
H312 C318 0.950 . S
H313 C319 0.950 1_556 S
H314 C320 0.949 . S
C315 H310 0.950 . S
C315 C317 1.327 . S
C315 C321 1.429 . S
C316 C308 1.574 . S
C316 H311 0.949 . S
C316 C322 1.368 . S
C317 C301 1.349 . S
C317 H309 0.950 . S
C317 C315 1.327 . S
C318 C306 1.349 . S
C318 H312 0.950 . S
C318 C319 1.327 . S
C319 H313 0.950 1_554 S
C319 C318 1.327 . S
C319 C323 1.429 1_554 S
C320 C303 1.574 . S
C320 H314 0.949 . S
C320 C324 1.368 . S
C321 C302 1.429 . S
C321 C315 1.429 . S
C321 C322 1.523 . S
C322 C303 1.368 . S
C322 C316 1.368 . S
C322 C321 1.523 . S
C323 C307 1.429 1_556 S
C323 C319 1.429 1_556 S
C323 C324 1.523 . S
C324 C308 1.368 . S
C324 C320 1.368 . S
C324 C323 1.523 . S
H325 C300 0.950 . S
H326 C302 0.950 . S
H327 C303 0.949 . S
H328 C305 0.950 . S
H329 C307 0.950 1_556 S
C330 C331 1.349 . S
C330 C332 1.327 . S
C330 H355 0.950 . S
C331 C330 1.349 . S
C331 C347 1.349 . S
C332 C330 1.327 . S
C332 C351 1.429 . S
C332 H356 0.950 . S
C333 C350 1.574 . S
C333 C352 1.368 . S
C333 H357 0.949 . S
H334 C338 0.949 . S
C335 C336 1.349 . S
C335 C337 1.327 . S
C335 H358 0.950 . S
C336 C335 1.349 . S
C336 C348 1.349 . S
C337 C335 1.327 . S
C337 C353 1.429 . S
C337 H359 0.950 . S
C338 H334 0.949 . S
C338 C346 1.574 . S
C338 C354 1.368 . S
H339 C347 0.950 . S
H340 C345 0.950 . S
H341 C346 0.949 . S
H342 C348 0.950 . S
H343 C349 0.950 . S
H344 C350 0.949 . S
C345 H340 0.950 . S
C345 C347 1.327 . S
C345 C351 1.429 . S
C346 C338 1.574 . S
C346 H341 0.949 . S
C346 C352 1.368 . S
C347 C331 1.349 . S
C347 H339 0.950 . S
C347 C345 1.327 . S
C348 C336 1.349 . S
C348 H342 0.950 . S
C348 C349 1.327 . S
C349 H343 0.950 . S
C349 C348 1.327 . S
C349 C353 1.429 . S
C350 C333 1.574 . S
C350 H344 0.949 . S
C350 C354 1.368 . S
C351 C332 1.429 . S
C351 C345 1.429 . S
C351 C352 1.523 1_554 S
C352 C333 1.368 . S
C352 C346 1.368 . S
C352 C351 1.523 1_556 S
C353 C337 1.429 . S
C353 C349 1.429 . S
C353 C354 1.523 . S
C354 C338 1.368 . S
C354 C350 1.368 . S
C354 C353 1.523 . S
H355 C330 0.950 . S
H356 C332 0.950 . S
H357 C333 0.949 . S
H358 C335 0.950 . S
H359 C337 0.950 . S
C360 C361 1.349 . S
C360 C362 1.327 . S
C360 H385 0.950 . S
C361 C360 1.349 . S
C361 C377 1.349 . S
C362 C360 1.327 . S
C362 C381 1.429 . S
C362 H386 0.950 . S
C363 C380 1.574 . S
C363 C382 1.368 1_565 S
C363 H387 0.949 . S
H364 C368 0.949 . S
C365 C366 1.349 . S
C365 C367 1.327 . S
C365 H388 0.950 . S
C366 C365 1.349 . S
C366 C378 1.349 . S
C367 C365 1.327 . S
C367 C383 1.429 . S
C367 H389 0.950 . S
C368 H364 0.949 . S
C368 C376 1.574 1_565 S
C368 C384 1.368 . S
H369 C377 0.950 . S
H370 C375 0.950 . S
H371 C376 0.949 . S
H372 C378 0.950 . S
H373 C379 0.950 . S
H374 C380 0.949 . S
C375 H370 0.950 . S
C375 C377 1.327 . S
C375 C381 1.429 . S
C376 C368 1.574 1_545 S
C376 H371 0.949 . S
C376 C382 1.368 . S
C377 C361 1.349 . S
C377 H369 0.950 . S
C377 C375 1.327 . S
C378 C366 1.349 . S
C378 H372 0.950 . S
C378 C379 1.327 . S
C379 H373 0.950 . S
C379 C378 1.327 . S
C379 C383 1.429 . S
C380 C363 1.574 . S
C380 H374 0.949 . S
C380 C384 1.368 . S
C381 C362 1.429 . S
C381 C375 1.429 . S
C381 C382 1.523 . S
C382 C363 1.368 1_545 S
C382 C376 1.368 . S
C382 C381 1.523 . S
C383 C367 1.429 . S
C383 C379 1.429 . S
C383 C384 1.523 . S
C384 C368 1.368 . S
C384 C380 1.368 . S
C384 C383 1.523 . S
H385 C360 0.950 . S
H386 C362 0.950 . S
H387 C363 0.949 . S
H388 C365 0.950 . S
H389 C367 0.950 . S
C390 C391 1.349 . S
C390 C392 1.327 . S
C390 H415 0.950 . S
C391 C390 1.349 . S
C391 C407 1.349 . S
C392 C390 1.327 . S
C392 C411 1.429 . S
C392 H416 0.950 . S
C393 C410 1.574 . S
C393 C412 1.368 . S
C393 H417 0.949 . S
H394 C398 0.949 . S
C395 C396 1.349 . S
C395 C397 1.327 . S
C395 H418 0.950 . S
C396 C395 1.349 . S
C396 C408 1.349 . S
C397 C395 1.327 . S
C397 C413 1.429 . S
C397 H419 0.950 . S
C398 H394 0.949 . S
C398 C406 1.574 . S
C398 C414 1.368 . S
H399 C407 0.950 . S
H400 C405 0.950 . S
H401 C406 0.949 . S
H402 C408 0.950 . S
H403 C409 0.950 . S
H404 C410 0.949 . S
C405 H400 0.950 . S
C405 C407 1.327 . S
C405 C411 1.429 . S
C406 C398 1.574 . S
C406 H401 0.949 . S
C406 C412 1.368 . S
C407 C391 1.349 . S
C407 H399 0.950 . S
C407 C405 1.327 . S
C408 C396 1.349 . S
C408 H402 0.950 . S
C408 C409 1.327 . S
C409 H403 0.950 . S
C409 C408 1.327 . S
C409 C413 1.429 . S
C410 C393 1.574 . S
C410 H404 0.949 . S
C410 C414 1.368 . S
C411 C392 1.429 . S
C411 C405 1.429 . S
C411 C412 1.523 . S
C412 C393 1.368 . S
C412 C406 1.368 . S
C412 C411 1.523 . S
C413 C397 1.429 . S
C413 C409 1.429 . S
C413 C414 1.523 . S
C414 C398 1.368 . S
C414 C410 1.368 . S
C414 C413 1.523 . S
H415 C390 0.950 . S
H416 C392 0.950 . S
H417 C393 0.949 . S
H418 C395 0.950 . S
H419 C397 0.950 . S
C420 C421 1.349 . S
C420 C422 1.327 . S
C420 H445 0.950 . S
C421 C420 1.349 . S
C421 C437 1.349 . S
C422 C420 1.327 . S
C422 C441 1.429 . S
C422 H446 0.950 . S
C423 C440 1.593 . S
C423 C442 1.368 . S
C423 H447 0.949 . S
H424 C428 0.949 . S
C425 C426 1.349 . S
C425 C427 1.327 . S
C425 H448 0.950 . S
C426 C425 1.349 . S
C426 C438 1.349 . S
C427 C425 1.327 . S
C427 C443 1.429 . S
C427 H449 0.950 . S
C428 H424 0.949 . S
C428 C436 1.574 . S
C428 C444 1.368 1_655 S
H429 C437 0.950 . S
H430 C435 0.950 . S
H431 C436 0.949 . S
H432 C438 0.950 . S
H433 C439 0.950 . S
H434 C440 0.945 1_455 S
C435 H430 0.950 . S
C435 C437 1.327 . S
C435 C441 1.429 . S
C436 C428 1.574 . S
C436 H431 0.949 . S
C436 C442 1.368 . S
C437 C421 1.349 . S
C437 H429 0.950 . S
C437 C435 1.327 . S
C438 C426 1.349 . S
C438 H432 0.950 . S
C438 C439 1.327 . S
C439 H433 0.950 . S
C439 C438 1.327 . S
C439 C443 1.429 . S
C440 C423 1.593 . S
C440 H434 0.945 1_655 S
C440 C444 1.355 1_655 S
C441 C422 1.429 . S
C441 C435 1.429 . S
C441 C442 1.523 . S
C442 C423 1.368 . S
C442 C436 1.368 . S
C442 C441 1.523 . S
C443 C427 1.429 . S
C443 C439 1.429 . S
C443 C444 1.523 . S
C444 C428 1.368 1_455 S
C444 C440 1.355 1_455 S
C444 C443 1.523 . S
H445 C420 0.950 . S
H446 C422 0.950 . S
H447 C423 0.949 . S
H448 C425 0.950 . S
H449 C427 0.950 . S
C450 C451 1.349 . S
C450 C452 1.327 . S
C450 H475 0.950 . S
C451 C450 1.349 . S
C451 C467 1.349 . S
C452 C450 1.327 . S
C452 C471 1.429 . S
C452 H476 0.950 . S
C453 C470 1.574 . S
C453 C472 1.368 1_556 S
C453 H477 0.949 . S
H454 C458 0.946 1_545 S
C455 C456 1.349 . S
C455 C457 1.327 . S
C455 H478 0.950 . S
C456 C455 1.349 . S
C456 C468 1.349 . S
C457 C455 1.327 . S
C457 C473 1.429 . S
C457 H479 0.950 . S
C458 H454 0.946 1_565 S
C458 C466 1.586 . S
C458 C474 1.360 1_564 S
H459 C467 0.950 . S
H460 C465 0.950 1_556 S
H461 C466 0.949 . S
H462 C468 0.950 1_554 S
H463 C469 0.945 1_554 S
H464 C470 0.958 . S
C465 H460 0.950 1_554 S
C465 C467 1.327 . S
C465 C471 1.429 . S
C466 C458 1.586 . S
C466 H461 0.949 . S
C466 C472 1.368 . S
C467 C451 1.349 . S
C467 H459 0.950 . S
C467 C465 1.327 . S
C468 C456 1.349 . S
C468 H462 0.950 1_556 S
C468 C469 1.329 . S
C469 H463 0.945 1_556 S
C469 C468 1.329 . S
C469 C473 1.431 . S
C470 C453 1.574 . S
C470 H464 0.958 . S
C470 C474 1.368 1_565 S
C471 C452 1.429 . S
C471 C465 1.429 . S
C471 C472 1.523 . S
C472 C453 1.368 1_554 S
C472 C466 1.368 . S
C472 C471 1.523 . S
C473 C457 1.429 . S
C473 C469 1.431 . S
C473 C474 1.523 . S
C474 C458 1.360 1_546 S
C474 C470 1.368 1_545 S
C474 C473 1.523 . S
H475 C450 0.950 . S
H476 C452 0.950 . S
H477 C453 0.949 . S
H478 C455 0.950 . S
H479 C457 0.950 . S
C480 C481 1.349 . S
C480 C482 1.327 . S
C480 H505 0.950 . S
C481 C480 1.349 . S
C481 C497 1.349 . S
C482 C480 1.327 . S
C482 C501 1.429 . S
C482 H506 0.950 . S
C483 C500 1.574 . S
C483 C502 1.368 . S
C483 H507 0.949 . S
H484 C488 0.949 . S
C485 C486 1.349 . S
C485 C487 1.327 . S
C485 H508 0.950 1_554 S
C486 C485 1.349 . S
C486 C498 1.349 . S
C487 C485 1.327 . S
C487 C503 1.429 . S
C487 H509 0.950 . S
C488 H484 0.949 . S
C488 C496 1.574 . S
C488 C504 1.368 . S
H489 C497 0.950 . S
H490 C495 0.950 . S
H491 C496 0.949 . S
H492 C498 0.950 . S
H493 C499 0.950 . S
H494 C500 0.949 . S
C495 H490 0.950 . S
C495 C497 1.327 . S
C495 C501 1.429 . S
C496 C488 1.574 . S
C496 H491 0.949 . S
C496 C502 1.368 . S
C497 C481 1.349 . S
C497 H489 0.950 . S
C497 C495 1.327 . S
C498 C486 1.349 . S
C498 H492 0.950 . S
C498 C499 1.327 . S
C499 H493 0.950 . S
C499 C498 1.327 . S
C499 C503 1.429 . S
C500 C483 1.574 . S
C500 H494 0.949 . S
C500 C504 1.368 . S
C501 C482 1.429 . S
C501 C495 1.429 . S
C501 C502 1.523 . S
C502 C483 1.368 . S
C502 C496 1.368 . S
C502 C501 1.523 . S
C503 C487 1.429 . S
C503 C499 1.429 . S
C503 C504 1.523 . S
C504 C488 1.368 . S
C504 C500 1.368 . S
C504 C503 1.523 . S
H505 C480 0.950 . S
H506 C482 0.950 . S
H507 C483 0.949 . S
H508 C485 0.950 1_556 S
H509 C487 0.950 . S
C510 C511 1.349 . S
C510 C512 1.327 . S
C510 H535 0.950 . S
C511 C510 1.349 . S
C511 C527 1.349 . S
C512 C510 1.327 . S
C512 C531 1.429 . S
C512 H536 0.950 . S
C513 C530 1.574 . S
C513 C532 1.368 . S
C513 H537 0.949 . S
H514 C518 0.949 . S
C515 C516 1.349 . S
C515 C517 1.327 . S
C515 H538 0.950 . S
C516 C515 1.349 . S
C516 C528 1.349 . S
C517 C515 1.327 . S
C517 C533 1.429 . S
C517 H539 0.950 . S
C518 H514 0.949 . S
C518 C526 1.574 1_455 S
C518 C534 1.368 . S
H519 C527 0.950 . S
H520 C525 0.950 . S
H521 C526 0.949 . S
H522 C528 0.950 . S
H523 C529 0.950 . S
H524 C530 0.949 . S
C525 H520 0.950 . S
C525 C527 1.327 . S
C525 C531 1.429 . S
C526 C518 1.574 1_655 S
C526 H521 0.949 . S
C526 C532 1.368 . S
C527 C511 1.349 . S
C527 H519 0.950 . S
C527 C525 1.327 . S
C528 C516 1.349 . S
C528 H522 0.950 . S
C528 C529 1.327 . S
C529 H523 0.950 . S
C529 C528 1.327 . S
C529 C533 1.429 . S
C530 C513 1.574 . S
C530 H524 0.949 . S
C530 C534 1.368 1_655 S
C531 C512 1.429 . S
C531 C525 1.429 . S
C531 C532 1.523 . S
C532 C513 1.368 . S
C532 C526 1.368 . S
C532 C531 1.523 . S
C533 C517 1.429 . S
C533 C529 1.429 . S
C533 C534 1.523 . S
C534 C518 1.368 . S
C534 C530 1.368 1_455 S
C534 C533 1.523 . S
H535 C510 0.950 . S
H536 C512 0.950 . S
H537 C513 0.949 . S
H538 C515 0.950 . S
H539 C517 0.950 . S
C540 C541 1.349 . S
C540 C542 1.327 . S
C540 H565 0.950 . S
C541 C540 1.349 . S
C541 C557 1.349 . S
C542 C540 1.327 . S
C542 C561 1.429 . S
C542 H566 0.950 . S
C543 C560 1.574 . S
C543 C562 1.368 . S
C543 H567 0.949 . S
H544 C548 0.949 . S
C545 C546 1.349 . S
C545 C547 1.327 . S
C545 H568 0.950 . S
C546 C545 1.349 . S
C546 C558 1.349 . S
C547 C545 1.327 . S
C547 C563 1.429 . S
C547 H569 0.950 . S
C548 H544 0.949 . S
C548 C556 1.574 . S
C548 C564 1.368 . S
H549 C557 0.950 . S
H550 C555 0.950 . S
H551 C556 0.949 . S
H552 C558 0.950 . S
H553 C559 0.950 . S
H554 C560 0.949 . S
C555 H550 0.950 . S
C555 C557 1.327 . S
C555 C561 1.429 . S
C556 C548 1.574 . S
C556 H551 0.949 . S
C556 C562 1.368 . S
C557 C541 1.349 . S
C557 H549 0.950 . S
C557 C555 1.327 . S
C558 C546 1.349 . S
C558 H552 0.950 . S
C558 C559 1.327 . S
C559 H553 0.950 . S
C559 C558 1.327 . S
C559 C563 1.429 . S
C560 C543 1.574 . S
C560 H554 0.949 . S
C560 C564 1.368 . S
C561 C542 1.429 . S
C561 C555 1.429 . S
C561 C562 1.523 . S
C562 C543 1.368 . S
C562 C556 1.368 . S
C562 C561 1.523 . S
C563 C547 1.429 . S
C563 C559 1.429 . S
C563 C564 1.523 . S
C564 C548 1.368 . S
C564 C560 1.368 . S
C564 C563 1.523 . S
H565 C540 0.950 . S
H566 C542 0.950 . S
H567 C543 0.949 . S
H568 C545 0.950 . S
H569 C547 0.950 . S
C570 C571 1.349 . S
C570 C572 1.327 . S
C570 H595 0.950 . S
C571 C570 1.349 . S
C571 C587 1.349 . S
C572 C570 1.327 . S
C572 C591 1.429 . S
C572 H596 0.950 . S
C573 C590 1.574 . S
C573 C592 1.368 . S
C573 H597 0.949 . S
H574 C578 0.949 . S
C575 C576 1.349 . S
C575 C577 1.327 . S
C575 H598 0.950 . S
C576 C575 1.349 . S
C576 C588 1.349 . S
C577 C575 1.327 . S
C577 C593 1.429 . S
C577 H599 0.950 . S
C578 H574 0.949 . S
C578 C586 1.574 . S
C578 C594 1.368 . S
H579 C587 0.950 . S
H580 C585 0.950 . S
H581 C586 0.949 . S
H582 C588 0.950 . S
H583 C589 0.950 . S
H584 C590 0.949 . S
C585 H580 0.950 . S
C585 C587 1.327 . S
C585 C591 1.429 . S
C586 C578 1.574 . S
C586 H581 0.949 . S
C586 C592 1.368 . S
C587 C571 1.349 . S
C587 H579 0.950 . S
C587 C585 1.327 . S
C588 C576 1.349 . S
C588 H582 0.950 . S
C588 C589 1.327 . S
C589 H583 0.950 . S
C589 C588 1.327 . S
C589 C593 1.429 . S
C590 C573 1.574 . S
C590 H584 0.949 . S
C590 C594 1.368 . S
C591 C572 1.429 . S
C591 C585 1.429 . S
C591 C592 1.523 . S
C592 C573 1.368 . S
C592 C586 1.368 . S
C592 C591 1.523 . S
C593 C577 1.429 . S
C593 C589 1.429 . S
C593 C594 1.523 . S
C594 C578 1.368 . S
C594 C590 1.368 . S
C594 C593 1.523 . S
H595 C570 0.950 . S
H596 C572 0.950 . S
H597 C573 0.949 . S
H598 C575 0.950 . S
H599 C577 0.950 . S
C600 C601 1.349 . S
C600 C602 1.327 . S
C600 H625 0.950 1_556 S
C601 C600 1.349 . S
C601 C617 1.349 . S
C602 C600 1.327 . S
C602 C621 1.429 . S
C602 H626 0.950 . S
C603 C620 1.574 . S
C603 C622 1.368 . S
C603 H627 0.949 . S
H604 C608 0.949 . S
C605 C606 1.349 . S
C605 C607 1.327 . S
C605 H628 0.950 . S
C606 C605 1.349 . S
C606 C618 1.349 . S
C607 C605 1.327 . S
C607 C623 1.429 . S
C607 H629 0.950 . S
C608 H604 0.949 . S
C608 C616 1.574 . S
C608 C624 1.368 . S
H609 C617 0.950 . S
H610 C615 0.950 . S
H611 C616 0.949 . S
H612 C618 0.950 . S
H613 C619 0.950 . S
H614 C620 0.949 . S
C615 H610 0.950 . S
C615 C617 1.327 . S
C615 C621 1.429 . S
C616 C608 1.574 . S
C616 H611 0.949 . S
C616 C622 1.368 . S
C617 C601 1.349 . S
C617 H609 0.950 . S
C617 C615 1.327 . S
C618 C606 1.349 . S
C618 H612 0.950 . S
C618 C619 1.327 . S
C619 H613 0.950 . S
C619 C618 1.327 . S
C619 C623 1.429 . S
C620 C603 1.574 . S
C620 H614 0.949 . S
C620 C624 1.368 . S
C621 C602 1.429 . S
C621 C615 1.429 . S
C621 C622 1.523 . S
C622 C603 1.368 . S
C622 C616 1.368 . S
C622 C621 1.523 . S
C623 C607 1.429 . S
C623 C619 1.429 . S
C623 C624 1.523 . S
C624 C608 1.368 . S
C624 C620 1.368 . S
C624 C623 1.523 . S
H625 C600 0.950 1_554 S
H626 C602 0.950 . S
H627 C603 0.949 . S
H628 C605 0.950 . S
H629 C607 0.950 . S
C630 C631 1.349 . S
C630 C632 1.327 . S
C630 H655 0.950 . S
C631 C630 1.349 . S
C631 C647 1.349 . S
C632 C630 1.327 . S
C632 C651 1.429 . S
C632 H656 0.950 . S
C633 C650 1.574 . S
C633 C652 1.368 . S
C633 H657 0.949 . S
H634 C638 0.949 . S
C635 C636 1.349 . S
C635 C637 1.327 . S
C635 H658 0.950 . S
C636 C635 1.349 . S
C636 C648 1.349 . S
C637 C635 1.327 . S
C637 C653 1.429 . S
C637 H659 0.950 . S
C638 H634 0.949 . S
C638 C646 1.574 . S
C638 C654 1.368 . S
H639 C647 0.950 . S
H640 C645 0.950 . S
H641 C646 0.949 . S
H642 C648 0.950 . S
H643 C649 0.950 . S
H644 C650 0.949 . S
C645 H640 0.950 . S
C645 C647 1.327 . S
C645 C651 1.429 . S
C646 C638 1.574 . S
C646 H641 0.949 . S
C646 C652 1.368 . S
C647 C631 1.349 . S
C647 H639 0.950 . S
C647 C645 1.327 . S
C648 C636 1.349 . S
C648 H642 0.950 . S
C648 C649 1.327 . S
C649 H643 0.950 . S
C649 C648 1.327 . S
C649 C653 1.429 . S
C650 C633 1.574 . S
C650 H644 0.949 . S
C650 C654 1.368 . S
C651 C632 1.429 . S
C651 C645 1.429 . S
C651 C652 1.523 . S
C652 C633 1.368 . S
C652 C646 1.368 . S
C652 C651 1.523 . S
C653 C637 1.429 . S
C653 C649 1.429 . S
C653 C654 1.523 . S
C654 C638 1.368 . S
C654 C650 1.368 . S
C654 C653 1.523 . S
H655 C630 0.950 . S
H656 C632 0.950 . S
H657 C633 0.949 . S
H658 C635 0.950 . S
H659 C637 0.950 . S
C660 C661 1.349 . S
C660 C662 1.327 . S
C660 H685 0.950 . S
C661 C660 1.349 . S
C661 C677 1.349 . S
C662 C660 1.327 . S
C662 C681 1.429 . S
C662 H686 0.950 . S
C663 C680 1.574 . S
C663 C682 1.368 . S
C663 H687 0.949 . S
H664 C668 0.949 . S
C665 C666 1.349 . S
C665 C667 1.327 . S
C665 H688 0.950 . S
C666 C665 1.349 . S
C666 C678 1.349 . S
C667 C665 1.327 . S
C667 C683 1.429 . S
C667 H689 0.950 . S
C668 H664 0.949 . S
C668 C676 1.574 . S
C668 C684 1.368 . S
H669 C677 0.950 . S
H670 C675 0.950 . S
H671 C676 0.949 . S
H672 C678 0.950 1_556 S
H673 C679 0.950 . S
H674 C680 0.949 . S
C675 H670 0.950 . S
C675 C677 1.327 . S
C675 C681 1.429 . S
C676 C668 1.574 . S
C676 H671 0.949 . S
C676 C682 1.368 . S
C677 C661 1.349 . S
C677 H669 0.950 . S
C677 C675 1.327 . S
C678 C666 1.349 . S
C678 H672 0.950 1_554 S
C678 C679 1.327 . S
C679 H673 0.950 . S
C679 C678 1.327 . S
C679 C683 1.429 . S
C680 C663 1.574 . S
C680 H674 0.949 . S
C680 C684 1.368 . S
C681 C662 1.429 . S
C681 C675 1.429 . S
C681 C682 1.523 . S
C682 C663 1.368 . S
C682 C676 1.368 . S
C682 C681 1.523 . S
C683 C667 1.429 . S
C683 C679 1.429 . S
C683 C684 1.523 . S
C684 C668 1.368 . S
C684 C680 1.368 . S
C684 C683 1.523 . S
H685 C660 0.950 . S
H686 C662 0.950 . S
H687 C663 0.949 . S
H688 C665 0.950 . S
H689 C667 0.950 . S
C690 C691 1.349 . S
C690 C692 1.327 . S
C690 H715 0.950 1_554 S
C691 C690 1.349 . S
C691 C707 1.349 . S
C692 C690 1.327 . S
C692 C711 1.429 . S
C692 H716 0.950 . S
C693 C710 1.574 . S
C693 C712 1.368 . S
C693 H717 0.949 . S
H694 C698 0.949 . S
C695 C696 1.349 . S
C695 C697 1.327 . S
C695 H718 0.950 . S
C696 C695 1.349 . S
C696 C708 1.349 . S
C697 C695 1.327 . S
C697 C713 1.429 . S
C697 H719 0.950 . S
C698 H694 0.949 . S
C698 C706 1.574 . S
C698 C714 1.368 . S
H699 C707 0.950 . S
H700 C705 0.950 . S
H701 C706 0.949 . S
H702 C708 0.950 . S
H703 C709 0.950 . S
H704 C710 0.949 . S
C705 H700 0.950 . S
C705 C707 1.327 . S
C705 C711 1.429 . S
C706 C698 1.574 . S
C706 H701 0.949 . S
C706 C712 1.368 . S
C707 C691 1.349 . S
C707 H699 0.950 . S
C707 C705 1.327 . S
C708 C696 1.349 . S
C708 H702 0.950 . S
C708 C709 1.327 . S
C709 H703 0.950 . S
C709 C708 1.327 . S
C709 C713 1.429 . S
C710 C693 1.574 . S
C710 H704 0.949 . S
C710 C714 1.368 . S
C711 C692 1.429 . S
C711 C705 1.429 . S
C711 C712 1.523 . S
C712 C693 1.368 . S
C712 C706 1.368 . S
C712 C711 1.523 . S
C713 C697 1.429 . S
C713 C709 1.429 . S
C713 C714 1.523 . S
C714 C698 1.368 . S
C714 C710 1.368 . S
C714 C713 1.523 . S
H715 C690 0.950 1_556 S
H716 C692 0.950 . S
H717 C693 0.949 . S
H718 C695 0.950 . S
H719 C697 0.950 . S
C181 C16 0.820 . S
C186 C27 0.820 . S
C211 C57 0.820 . S
C216 C46 0.820 . S
C241 C87 0.820 . S
C246 C76 0.820 . S
C271 C106 0.820 . S
C276 C117 0.820 . S
C301 C147 0.820 . S
C306 C136 0.820 . S
C331 C177 0.820 . S
C336 C166 0.820 . S
C361 C1 1.928 . S
C366 C151 1.928 . S
C391 N6 1.560 . S
C396 N36 1.560 . S
C421 C61 1.928 . S
C426 C31 1.928 . S
C451 N96 1.560 . S
C456 N66 1.560 . S
C481 C121 1.928 . S
C486 C91 1.928 . S
C511 N126 1.560 . S
C516 N156 1.560 . S
C541 C10 1.839 . S
C546 N134 1.714 . S
C571 N44 1.714 . S
C576 C160 1.839 . S
C601 C70 1.839 . S
C606 N14 1.714 . S
C631 N104 1.714 1_556 S
C636 C40 1.839 . S
C661 C130 1.839 . S
C666 N74 1.714 . S
C691 C100 1.838 . S
C696 N164 1.714 . S
