# Generated by pormake.
# Topology why, (6)-cn, num edge types: 1
# Building blocks:
#     Node 0, Type 0, BuildingBlock: JUFBIX_clean_sbu_0, # of connection points: 6
#     Node 1, Type 0, BuildingBlock: JUFBIX_clean_sbu_0, # of connection points: 6
#     Node 2, Type 0, BuildingBlock: JUFBIX_clean_sbu_0, # of connection points: 6
#     Node 3, Type 0, BuildingBlock: JUFBIX_clean_sbu_0, # of connection points: 6
#     Node 4, Type 0, BuildingBlock: JUFBIX_clean_sbu_0, # of connection points: 6
#     Node 5, Type 0, BuildingBlock: JUFBIX_clean_sbu_0, # of connection points: 6
#     Node 6, Type 0, BuildingBlock: JUFBIX_clean_sbu_0, # of connection points: 6
#     Node 7, Type 0, BuildingBlock: JUFBIX_clean_sbu_0, # of connection points: 6
#     Node 8, Type 0, BuildingBlock: JUFBIX_clean_sbu_0, # of connection points: 6
#     Node 9, Type 0, BuildingBlock: JUFBIX_clean_sbu_0, # of connection points: 6
#     Node 10, Type 0, BuildingBlock: JUFBIX_clean_sbu_0, # of connection points: 6
#     Node 11, Type 0, BuildingBlock: JUFBIX_clean_sbu_0, # of connection points: 6
#     Node 12, Type 0, BuildingBlock: JUFBIX_clean_sbu_0, # of connection points: 6
#     Node 13, Type 0, BuildingBlock: JUFBIX_clean_sbu_0, # of connection points: 6
#     Node 14, Type 0, BuildingBlock: JUFBIX_clean_sbu_0, # of connection points: 6
#     Node 15, Type 0, BuildingBlock: JUFBIX_clean_sbu_0, # of connection points: 6
#     Edge 16, Type (0, 0), BuildingBlock: CIFDUS_clean_linker_0, # of connection points: 2
#     Edge 17, Type (0, 0), BuildingBlock: CIFDUS_clean_linker_0, # of connection points: 2
#     Edge 18, Type (0, 0), BuildingBlock: CIFDUS_clean_linker_0, # of connection points: 2
#     Edge 19, Type (0, 0), BuildingBlock: CIFDUS_clean_linker_0, # of connection points: 2
#     Edge 20, Type (0, 0), BuildingBlock: CIFDUS_clean_linker_0, # of connection points: 2
#     Edge 21, Type (0, 0), BuildingBlock: CIFDUS_clean_linker_0, # of connection points: 2
#     Edge 22, Type (0, 0), BuildingBlock: CIFDUS_clean_linker_0, # of connection points: 2
#     Edge 23, Type (0, 0), BuildingBlock: CIFDUS_clean_linker_0, # of connection points: 2
#     Edge 24, Type (0, 0), BuildingBlock: CIFDUS_clean_linker_0, # of connection points: 2
#     Edge 25, Type (0, 0), BuildingBlock: CIFDUS_clean_linker_0, # of connection points: 2
#     Edge 26, Type (0, 0), BuildingBlock: CIFDUS_clean_linker_0, # of connection points: 2
#     Edge 27, Type (0, 0), BuildingBlock: CIFDUS_clean_linker_0, # of connection points: 2
#     Edge 28, Type (0, 0), BuildingBlock: CIFDUS_clean_linker_0, # of connection points: 2
#     Edge 29, Type (0, 0), BuildingBlock: CIFDUS_clean_linker_0, # of connection points: 2
#     Edge 30, Type (0, 0), BuildingBlock: CIFDUS_clean_linker_0, # of connection points: 2
#     Edge 31, Type (0, 0), BuildingBlock: CIFDUS_clean_linker_0, # of connection points: 2
#     Edge 32, Type (0, 0), BuildingBlock: CIFDUS_clean_linker_0, # of connection points: 2
#     Edge 33, Type (0, 0), BuildingBlock: CIFDUS_clean_linker_0, # of connection points: 2
#     Edge 34, Type (0, 0), BuildingBlock: CIFDUS_clean_linker_0, # of connection points: 2
#     Edge 35, Type (0, 0), BuildingBlock: CIFDUS_clean_linker_0, # of connection points: 2
#     Edge 36, Type (0, 0), BuildingBlock: CIFDUS_clean_linker_0, # of connection points: 2
#     Edge 37, Type (0, 0), BuildingBlock: CIFDUS_clean_linker_0, # of connection points: 2
#     Edge 38, Type (0, 0), BuildingBlock: CIFDUS_clean_linker_0, # of connection points: 2
#     Edge 39, Type (0, 0), BuildingBlock: CIFDUS_clean_linker_0, # of connection points: 2
#     Edge 40, Type (0, 0), BuildingBlock: CIFDUS_clean_linker_0, # of connection points: 2
#     Edge 41, Type (0, 0), BuildingBlock: CIFDUS_clean_linker_0, # of connection points: 2
#     Edge 42, Type (0, 0), BuildingBlock: CIFDUS_clean_linker_0, # of connection points: 2
#     Edge 43, Type (0, 0), BuildingBlock: CIFDUS_clean_linker_0, # of connection points: 2
#     Edge 44, Type (0, 0), BuildingBlock: CIFDUS_clean_linker_0, # of connection points: 2
#     Edge 45, Type (0, 0), BuildingBlock: CIFDUS_clean_linker_0, # of connection points: 2
#     Edge 46, Type (0, 0), BuildingBlock: CIFDUS_clean_linker_0, # of connection points: 2
#     Edge 47, Type (0, 0), BuildingBlock: CIFDUS_clean_linker_0, # of connection points: 2
#     Edge 48, Type (0, 0), BuildingBlock: CIFDUS_clean_linker_0, # of connection points: 2
#     Edge 49, Type (0, 0), BuildingBlock: CIFDUS_clean_linker_0, # of connection points: 2
#     Edge 50, Type (0, 0), BuildingBlock: CIFDUS_clean_linker_0, # of connection points: 2
#     Edge 51, Type (0, 0), BuildingBlock: CIFDUS_clean_linker_0, # of connection points: 2
#     Edge 52, Type (0, 0), BuildingBlock: CIFDUS_clean_linker_0, # of connection points: 2
#     Edge 53, Type (0, 0), BuildingBlock: CIFDUS_clean_linker_0, # of connection points: 2
#     Edge 54, Type (0, 0), BuildingBlock: CIFDUS_clean_linker_0, # of connection points: 2
#     Edge 55, Type (0, 0), BuildingBlock: CIFDUS_clean_linker_0, # of connection points: 2
#     Edge 56, Type (0, 0), BuildingBlock: CIFDUS_clean_linker_0, # of connection points: 2
#     Edge 57, Type (0, 0), BuildingBlock: CIFDUS_clean_linker_0, # of connection points: 2
#     Edge 58, Type (0, 0), BuildingBlock: CIFDUS_clean_linker_0, # of connection points: 2
#     Edge 59, Type (0, 0), BuildingBlock: CIFDUS_clean_linker_0, # of connection points: 2
#     Edge 60, Type (0, 0), BuildingBlock: CIFDUS_clean_linker_0, # of connection points: 2
#     Edge 61, Type (0, 0), BuildingBlock: CIFDUS_clean_linker_0, # of connection points: 2
#     Edge 62, Type (0, 0), BuildingBlock: CIFDUS_clean_linker_0, # of connection points: 2
#     Edge 63, Type (0, 0), BuildingBlock: CIFDUS_clean_linker_0, # of connection points: 2
# Relax obj value: 0.376
# Max RMSD: 0.190
# Mean RMSD: 0.180
data_MOF--net-why--node1-JUFBIX_clean_sbu_0--edge1-CIFDUS_clean_linker_0
_symmetry_space_group_name_H-M    P1
_symmetry_Int_Tables_number       1
_symmetry_cell_setting            triclinic
loop_
_symmetry_equiv_pos_as_xyz
'x, y, z'
_cell_length_a     45.412894
_cell_length_b     44.798466
_cell_length_c     24.113135
_cell_angle_alpha  92.888855
_cell_angle_beta   79.117473
_cell_angle_gamma 96.349723
loop_
_atom_site_label
_atom_site_type_symbol
_atom_site_fract_x
_atom_site_fract_y
_atom_site_fract_z
_atom_type_partial_charge
Co0 Co 0.33551 0.20246 0.06661 0.0
C1 C 0.35813 0.25867 1.02123 0.0
Co2 Co 0.37326 0.22461 0.10366 0.0
C3 C 0.27878 0.16916 0.04229 0.0
C4 C 0.31223 0.18216 0.97018 0.0
N5 N 0.30669 0.18376 1.02727 0.0
N6 N 0.2674 0.15811 0.99645 0.0
C7 C 0.28845 0.16644 0.95135 0.0
H8 H 0.26709 0.16676 0.08556 0.0
H9 H 0.33233 0.19219 0.94337 0.0
C10 C 0.35258 0.16634 0.14284 0.0
N11 N 0.40314 0.24325 0.13883 0.0
C12 C 0.42786 0.26015 0.11351 0.0
C13 C 0.40655 0.24164 0.19297 0.0
N14 N 0.44675 0.26898 0.14932 0.0
C15 C 0.43365 0.25728 0.19943 0.0
C16 C 0.31526 0.23724 0.16238 0.0
O17 O 0.33344 0.16775 0.11082 0.0
O18 O 0.3712 0.18932 0.14801 0.0
O19 O 0.34364 0.24155 0.16029 0.0
O20 O 0.30537 0.22009 0.12434 0.0
O21 O 0.37573 0.25948 0.05674 0.0
H22 H 0.39079 0.2292 0.22514 0.0
H23 H 0.43267 0.26466 0.06883 0.0
O24 O 0.33833 0.23641 1.02102 0.0
O25 O 0.36573 0.18567 1.01063 0.0
O26 O 0.40312 0.20779 0.04745 0.0
C27 C 0.39382 0.19077 1.00941 0.0
H28 H 0.28623 0.16254 0.90757 0.0
H29 H 0.44324 0.25944 0.23745 0.0
Co30 Co 0.58553 0.59455 0.31446 0.0
C31 C 0.5315 0.61831 0.31209 0.0
Co32 Co 0.57586 0.63207 0.3756 0.0
C33 C 0.61149 0.54148 0.2559 0.0
C34 C 0.58553 0.56378 0.2083 0.0
N35 N 0.59379 0.56427 0.25926 0.0
N36 N 0.61468 0.52727 0.20459 0.0
C37 C 0.59827 0.54122 0.17485 0.0
H38 H 0.62322 0.53658 0.28897 0.0
H39 H 0.5723 0.57983 0.19509 0.0
C40 C 0.62905 0.60797 0.37992 0.0
N41 N 0.56769 0.66194 0.42982 0.0
C42 C 0.55669 0.68797 0.4234 0.0
C43 C 0.56908 0.66158 0.48521 0.0
N44 N 0.55084 0.70378 0.47258 0.0
C45 C 0.55855 0.68728 0.51174 0.0
C46 C 0.55242 0.57585 0.41765 0.0
O47 O 0.62333 0.59191 0.33752 0.0
O48 O 0.61105 0.6267 0.40261 0.0
O49 O 0.55411 0.60404 0.42631 0.0
O50 O 0.56558 0.56531 0.37028 0.0
O51 O 0.5401 0.63708 0.34847 0.0
H52 H 0.57649 0.64341 0.50524 0.0
H53 H 0.55183 0.69456 0.38376 0.0
O54 O 0.54775 0.59745 0.29277 0.0
O55 O 0.60464 0.62475 0.25946 0.0
O56 O 0.59774 0.66059 0.32452 0.0
C57 C 0.60772 0.65258 0.27387 0.0
H58 H 0.59659 0.53615 0.1311 0.0
H59 H 0.55637 0.6932 0.5563 0.0
Co60 Co 0.15976 0.84043 0.48461 0.0
C61 C 0.16285 0.87406 0.58326 0.0
Co62 Co 0.17348 0.81547 0.5508 0.0
C63 C 0.12081 0.87324 0.43195 0.0
C64 C 0.16204 0.86572 0.37603 0.0
N65 N 0.14734 0.86155 0.42952 0.0
N66 N 0.11821 0.8841 0.3819 0.0
C67 C 0.14429 0.87951 0.34679 0.0
H68 H 0.10313 0.87253 0.46904 0.0
H69 H 0.18386 0.85828 0.35877 0.0
C70 C 0.16689 0.78083 0.45299 0.0
N71 N 0.1846 0.79359 0.60505 0.0
C72 C 0.20608 0.80075 0.63663 0.0
C73 C 0.17239 0.76575 0.62057 0.0
N74 N 0.20767 0.77844 0.67136 0.0
C75 C 0.18647 0.7564 0.66123 0.0
C76 C 0.11238 0.81172 0.55877 0.0
O77 O 0.16229 0.80584 0.4351 0.0
O78 O 0.17324 0.78016 0.50205 0.0
O79 O 0.13337 0.80457 0.58153 0.0
O80 O 0.11878 0.82674 0.51398 0.0
O81 O 0.17247 0.85095 0.59962 0.0
H82 H 0.15451 0.75293 0.60302 0.0
H83 H 0.2201 0.82198 0.63433 0.0
O84 O 0.15633 0.87394 0.53429 0.0
O85 O 0.20167 0.85453 0.45755 0.0
O86 O 0.21403 0.82682 0.52048 0.0
C87 C 0.22185 0.84539 0.48101 0.0
H88 H 0.15001 0.88519 0.3027 0.0
H89 H 0.18185 0.73477 0.68085 0.0
Co90 Co 0.93278 0.45779 0.81432 0.0
C91 C 0.98634 0.43033 0.7791 0.0
Co92 Co 0.93996 0.42264 0.87025 0.0
C93 C 0.90395 0.49983 0.75408 0.0
C94 C 0.95187 0.50892 0.74468 0.0
N95 N 0.92861 0.48913 0.76731 0.0
N96 N 0.91124 0.52535 0.72426 0.0
C97 C 0.94132 0.53105 0.71856 0.0
H98 H 0.88106 0.48995 0.76811 0.0
H99 H 0.97504 0.50813 0.74904 0.0
C100 C 0.88494 0.44631 0.90123 0.0
N101 N 0.94371 0.39376 0.91946 0.0
C102 C 0.9571 0.36822 0.90875 0.0
C103 C 0.93531 0.39547 0.97622 0.0
N104 N 0.95763 0.3541 0.95666 0.0
C105 C 0.94375 0.37109 0.99917 0.0
C106 C 0.96361 0.4783 0.9043 0.0
O107 O 0.8938 0.4622 0.85788 0.0
O108 O 0.90289 0.42981 0.91585 0.0
O109 O 0.96073 0.45046 0.91251 0.0
O110 O 0.95225 0.48772 0.86442 0.0
O111 O 0.97666 0.4148 0.82268 0.0
H112 H 0.92471 0.41389 0.99968 0.0
H113 H 0.96676 0.36049 0.86669 0.0
O114 O 0.97173 0.45158 0.76926 0.0
O115 O 0.91393 0.42675 0.76682 0.0
O116 O 0.91973 0.39413 0.82811 0.0
C117 C 0.91078 0.39957 0.78321 0.0
H118 H 0.9546 0.55049 0.69845 0.0
H119 H 0.94118 0.36697 0.04376 0.0
Co120 Co 0.63317 0.81739 0.95881 0.0
C121 C 0.65438 0.87636 0.932 0.0
Co122 Co 0.6652 0.83776 1.01143 0.0
C123 C 0.57865 0.78603 0.93683 0.0
C124 C 0.60612 0.80214 0.86 0.0
N125 N 0.60573 0.8005 0.91585 0.0
N126 N 0.56184 0.77879 0.89675 0.0
C127 C 0.57897 0.78893 0.84815 0.0
H128 H 0.57078 0.78236 0.98145 0.0
H129 H 0.62446 0.81319 0.83032 0.0
C130 C 0.64225 0.77894 0.0405 0.0
N131 N 0.69153 0.85495 0.05692 0.0
C132 C 0.71866 0.87115 0.04358 0.0
C133 C 0.68584 0.85443 0.11385 0.0
N134 N 0.72991 0.88095 0.09016 0.0
C135 C 0.70927 0.87037 0.13432 0.0
C136 C 0.60592 0.8488 0.05517 0.0
O137 O 0.62814 0.78116 1.00031 0.0
O138 O 0.66018 0.8012 0.05236 0.0
O139 O 0.63274 0.85277 0.06399 0.0
O140 O 0.60075 0.83328 1.01176 0.0
O141 O 0.66937 0.87427 0.97106 0.0
H142 H 0.66586 0.84308 0.13899 0.0
H143 H 0.72981 0.87581 1.00065 0.0
O144 O 0.63791 0.85341 0.91833 0.0
O145 O 0.66567 0.80219 0.90586 0.0
O146 O 0.6979 0.82279 0.95747 0.0
C147 C 0.6928 0.80748 0.91349 0.0
H148 H 0.57215 0.78749 0.80737 0.0
H149 H 0.71136 0.87315 0.17831 0.0
Co150 Co 0.42971 0.4028 0.68285 0.0
C151 C 0.3752 0.42123 0.66745 0.0
Co152 Co 0.41607 0.44247 0.73438 0.0
C153 C 0.4542 0.34843 0.63986 0.0
C154 C 0.43759 0.37061 0.57734 0.0
N155 N 0.44026 0.37236 0.63228 0.0
N156 N 0.46066 0.33193 0.59166 0.0
C157 C 0.45007 0.34565 0.55222 0.0
H158 H 0.4598 0.34348 0.67987 0.0
H159 H 0.42803 0.38698 0.55647 0.0
C160 C 0.47143 0.42335 0.74678 0.0
N161 N 0.40525 0.4736 0.78534 0.0
C162 C 0.3919 0.49883 0.78168 0.0
C163 C 0.40875 0.47342 0.83967 0.0
N164 N 0.38661 0.51384 0.8321 0.0
C165 C 0.39734 0.49792 0.86833 0.0
C166 C 0.39794 0.38581 0.78648 0.0
O167 O 0.4657 0.40303 0.7107 0.0
O168 O 0.45304 0.44293 0.76202 0.0
O169 O 0.39696 0.41412 0.79175 0.0
O170 O 0.4104 0.37487 0.73928 0.0
O171 O 0.37899 0.44172 0.70488 0.0
H172 H 0.41868 0.45623 0.85768 0.0
H173 H 0.3855 0.50559 0.74351 0.0
O174 O 0.39432 0.40237 0.655 0.0
O175 O 0.44931 0.43025 0.62723 0.0
O176 O 0.43595 0.47025 0.67747 0.0
C177 C 0.44979 0.45859 0.63202 0.0
H178 H 0.4522 0.33877 0.50808 0.0
H179 H 0.39701 0.50373 0.91257 0.0
Co180 Co 0.81993 0.22702 0.51944 0.0
C181 C 0.83437 0.26122 0.61563 0.0
Co182 Co 0.8385 0.20253 0.57989 0.0
C183 C 0.80032 0.24971 0.41985 0.0
C184 C 0.78179 0.2696 0.49954 0.0
N185 N 0.80084 0.24943 0.47586 0.0
N186 N 0.78212 0.26971 0.40828 0.0
C187 C 0.77056 0.28216 0.45843 0.0
H188 H 0.81282 0.23551 0.38837 0.0
H189 H 0.77565 0.27442 0.54436 0.0
C190 C 0.82784 0.16883 0.48261 0.0
N191 N 0.85532 0.17994 0.62531 0.0
C192 C 0.88092 0.1861 0.64631 0.0
C193 C 0.84433 0.152 0.64233 0.0
N194 N 0.88638 0.16293 0.6753 0.0
C195 C 0.86336 0.14149 0.67296 0.0
C196 C 0.77735 0.19522 0.60156 0.0
O197 O 0.81988 0.19301 0.46678 0.0
O198 O 0.83511 0.16848 0.53083 0.0
O199 O 0.80014 0.19048 0.62167 0.0
O200 O 0.78097 0.21127 0.55833 0.0
O201 O 0.84279 0.23675 0.62834 0.0
H202 H 0.82399 0.13982 0.63222 0.0
H203 H 0.89571 0.20674 0.6389 0.0
O204 O 0.82193 0.26126 0.57253 0.0
O205 O 0.85869 0.24142 0.48023 0.0
O206 O 0.87674 0.21433 0.53717 0.0
C207 C 0.8811 0.23152 0.49536 0.0
H208 H 0.75423 0.29847 0.46511 0.0
H209 H 0.86056 0.1197 0.69183 0.0
Co210 Co 0.06281 0.63384 0.1743 0.0
C211 C 0.11697 0.60824 0.14169 0.0
Co212 Co 0.06865 0.59738 0.22827 0.0
C213 C 0.04653 0.68885 0.13644 0.0
C214 C 0.07017 0.66269 0.06939 0.0
N215 N 0.06061 0.66374 0.12598 0.0
N216 N 0.04665 0.70326 0.08856 0.0
C217 C 0.06174 0.68702 0.04635 0.0
H218 H 0.03554 0.69588 0.1781 0.0
H219 H 0.08116 0.64455 0.0458 0.0
C220 C 0.01625 0.62726 0.26615 0.0
N221 N 0.07106 0.56454 0.2732 0.0
C222 C 0.09476 0.55099 0.28377 0.0
C223 C 0.04662 0.54582 0.29458 0.0
N224 N 0.08577 0.52455 0.31017 0.0
C225 C 0.05551 0.52147 0.317 0.0
C226 C 0.09472 0.65347 0.25968 0.0
O227 O 0.02673 0.64339 0.2236 0.0
O228 O 0.02986 0.60485 0.27413 0.0
O229 O 0.08903 0.62635 0.27647 0.0
O230 O 0.08517 0.66036 0.21625 0.0
O231 O 0.10753 0.59193 0.18435 0.0
H232 H 0.0237 0.54876 0.29131 0.0
H233 H 0.11813 0.55933 0.26939 0.0
O234 O 0.09931 0.6251 0.12726 0.0
O235 O 0.04018 0.60781 0.13174 0.0
O236 O 0.04816 0.56927 0.17696 0.0
C237 C 0.0367 0.5798 0.13835 0.0
H238 H 0.06483 0.69138 1.00177 0.0
H239 H 0.04087 0.50235 0.33534 0.0
Co240 Co 0.8365 0.7085 0.55606 0.0
C241 C 0.85665 0.76972 0.52873 0.0
Co242 Co 0.8685 0.73142 0.60553 0.0
C243 C 0.79973 0.66539 0.49382 0.0
C244 C 0.78696 0.7103 0.50242 0.0
N245 N 0.80705 0.69305 0.51573 0.0
N246 N 0.77627 0.66532 0.46671 0.0
C247 C 0.76817 0.69339 0.47233 0.0
H248 H 0.81089 0.64577 0.49848 0.0
H249 H 0.78558 0.7337 0.51491 0.0
C250 C 0.85122 0.67076 0.63243 0.0
N251 N 0.8968 0.74859 0.64522 0.0
C252 C 0.92105 0.76705 0.62327 0.0
C253 C 0.89885 0.74595 0.69981 0.0
N254 N 0.93836 0.77605 0.66156 0.0
C255 C 0.9248 0.76264 0.70985 0.0
C256 C 0.81028 0.73812 0.65838 0.0
O257 O 0.83401 0.67093 0.59614 0.0
O258 O 0.86732 0.69481 0.64198 0.0
O259 O 0.83749 0.74418 0.66434 0.0
O260 O 0.80508 0.72315 0.61428 0.0
O261 O 0.87015 0.76825 0.56961 0.0
H262 H 0.88297 0.73223 0.72978 0.0
H263 H 0.92676 0.77258 0.57905 0.0
O264 O 0.84071 0.74627 0.51507 0.0
O265 O 0.86721 0.69387 0.49928 0.0
O266 O 0.90004 0.71849 0.54537 0.0
C267 C 0.8945 0.70173 0.50338 0.0
H268 H 0.7492 0.70076 0.45736 0.0
H269 H 0.93352 0.76406 0.74881 0.0
Co270 Co 0.07982 0.09781 0.80413 0.0
C271 C 0.02668 0.12207 0.7973 0.0
Co272 Co 0.07157 0.13828 0.85767 0.0
C273 C 0.09543 0.03782 0.76045 0.0
C274 C 0.08015 0.06419 0.70182 0.0
N275 N 0.08608 0.06499 0.75469 0.0
N276 N 0.09508 1.02026 0.71325 0.0
C277 C 0.08547 0.03679 0.67652 0.0
H278 H 0.1014 0.03073 0.79879 0.0
H279 H 0.07189 0.08229 0.6831 0.0
C280 C 0.12408 0.11414 0.86639 0.0
N281 N 0.06516 0.17105 0.90517 0.0
C282 C 0.05781 0.19747 0.8908 0.0
C283 C 0.06499 0.17379 0.96123 0.0
N284 N 0.05277 0.21655 0.93554 0.0
C285 C 0.05702 0.20182 0.98023 0.0
C286 C 0.04741 0.0844 0.911 0.0
O287 O 0.11743 0.09558 0.82777 0.0
O288 O 0.10701 0.13446 0.8843 0.0
O289 O 0.04964 0.1129 0.91547 0.0
O290 O 0.05967 0.07202 0.86483 0.0
O291 O 0.03565 0.14211 0.83109 0.0
H292 H 0.06954 0.15628 0.98678 0.0
H293 H 0.05478 0.20212 0.8487 0.0
O294 O 0.04221 0.10025 0.78171 0.0
O295 O 0.09937 0.12427 0.74357 0.0
O296 O 0.09341 0.16394 0.7994 0.0
C297 C 0.10262 0.15273 0.75065 0.0
H298 H 0.08221 0.02933 0.63448 0.0
H299 H 0.054 0.21049 1.02343 0.0
Co300 Co 0.6615 0.35131 0.96872 0.0
C301 C 0.67357 0.37909 0.07022 0.0
Co302 Co 0.68098 0.32286 1.02206 0.0
C303 C 0.61905 0.36935 0.90502 0.0
C304 C 0.65105 0.40587 0.92187 0.0
N305 N 0.64319 0.37628 0.9301 0.0
N306 N 0.61147 0.39349 0.88168 0.0
C307 C 0.63153 0.41654 0.89227 0.0
H308 H 0.60695 0.34714 0.90487 0.0
H309 H 0.66974 0.41888 0.93665 0.0
C310 C 0.66595 0.2951 0.92031 0.0
N311 N 0.70075 0.29773 0.05939 0.0
C312 C 0.70417 0.29743 0.11398 0.0
C313 C 0.71734 0.27614 0.03307 0.0
N314 N 0.72192 0.27627 0.12234 0.0
C315 C 0.73008 0.26286 0.07144 0.0
C316 C 0.62003 0.31724 0.04866 0.0
O317 O 0.65829 0.32077 0.91296 0.0
O318 O 0.67745 0.29147 0.96348 0.0
O319 O 0.64298 0.30728 0.06139 0.0
O320 O 0.62353 0.3362 1.00976 0.0
O321 O 0.68255 0.35425 0.08016 0.0
H322 H 0.72096 0.27088 0.98821 0.0
H323 H 0.69417 0.31259 0.14676 0.0
O324 O 0.66431 0.38176 1.02448 0.0
O325 O 0.69942 0.36652 0.92899 0.0
O326 O 0.71942 0.33969 0.98296 0.0
C327 C 0.72254 0.35913 0.94501 0.0
H328 H 0.63223 0.43939 0.8791 0.0
H329 H 0.74525 0.24551 0.06212 0.0
Co330 Co 0.43424 0.95087 0.32605 0.0
C331 C 0.49113 0.9305 0.29181 0.0
Co332 Co 0.44462 0.91783 0.38256 0.0
C333 C 0.41617 1.00739 0.29005 0.0
C334 C 0.42542 0.97487 0.22264 0.0
N335 N 0.42553 0.97957 0.27831 0.0
N336 N 0.40979 1.01976 0.24399 0.0
C337 C 0.41564 0.99926 0.20169 0.0
H338 H 0.41325 1.01798 0.3318 0.0
H339 H 0.43169 0.95473 0.19872 0.0
C340 C 0.38624 0.93376 0.41103 0.0
N341 N 0.453 0.88983 0.42902 0.0
C342 C 0.46904 0.86644 0.41211 0.0
C343 C 0.44748 0.8895 0.48592 0.0
N344 N 0.47435 0.8517 0.456 0.0
C345 C 0.46059 0.86601 0.50269 0.0
C346 C 0.46129 0.97556 0.41826 0.0
O347 O 0.39529 0.9526 0.37209 0.0
O348 O 0.40503 0.9177 0.4246 0.0
O349 O 0.45878 0.94803 0.42925 0.0
O350 O 0.45238 0.98302 0.37383 0.0
O351 O 0.48393 0.91733 0.33854 0.0
H352 H 0.43564 0.9059 0.51335 0.0
H353 H 0.47704 0.86069 0.36813 0.0
O354 O 0.47298 0.9473 0.27787 0.0
O355 O 0.4165 0.91781 0.28155 0.0
O356 O 0.43053 0.88701 0.33676 0.0
C357 C 0.41816 0.89094 0.29522 0.0
H358 H 0.41321 1.00184 0.15842 0.0
H359 H 0.46093 0.86067 0.54582 0.0
Co360 Co 0.1259 0.3164 0.44812 0.0
C361 C 0.14068 0.37591 0.40604 0.0
Co362 Co 0.16049 0.34506 0.48432 0.0
C363 C 0.07374 0.27758 0.43402 0.0
C364 C 0.09658 0.29588 0.35528 0.0
N365 N 0.09855 0.29489 0.41031 0.0
N366 N 0.05601 0.26815 0.39642 0.0
C367 C 0.07013 0.27966 0.34673 0.0
H368 H 0.06768 0.27376 0.47892 0.0
H369 H 0.11252 0.30883 0.32414 0.0
C370 C 0.14323 0.28625 0.52993 0.0
N371 N 0.1862 0.36714 0.52736 0.0
C372 C 0.21315 0.38415 0.51685 0.0
C373 C 0.17773 0.36901 0.58422 0.0
N374 N 0.22081 0.39705 0.56503 0.0
C375 C 0.19853 0.3874 0.60708 0.0
C376 C 0.09988 0.34969 0.53887 0.0
O377 O 0.12707 0.28228 0.49205 0.0
O378 O 0.15916 0.31134 0.53275 0.0
O379 O 0.12716 0.36022 0.53596 0.0
O380 O 0.09359 0.32893 0.50404 0.0
O381 O 0.16069 0.37886 0.43719 0.0
H382 H 0.15767 0.35725 0.6083 0.0
H383 H 0.22688 0.38686 0.4752 0.0
O384 O 0.12442 0.35088 0.40518 0.0
O385 O 0.15771 0.30365 0.39272 0.0
O386 O 0.19385 0.32917 0.42942 0.0
C387 C 0.18574 0.31077 0.39116 0.0
H388 H 0.06136 0.27749 0.30781 0.0
H389 H 0.19815 0.39206 0.65171 0.0
Co390 Co 0.93255 0.91406 0.19088 0.0
C391 C 0.88067 0.93956 0.18851 0.0
Co392 Co 0.92636 0.95206 0.25196 0.0
C393 C 0.94272 0.85427 0.15477 0.0
C394 C 0.93604 0.87985 0.08637 0.0
N395 N 0.93676 0.88156 0.14218 0.0
N396 N 0.94609 0.83566 0.10911 0.0
C397 C 0.9422 0.85158 0.06567 0.0
H398 H 0.9462 0.84865 0.19607 0.0
H399 H 0.93225 0.89825 0.06207 0.0
C400 C 0.9787 0.92494 0.25294 0.0
N401 N 0.92159 0.98633 0.29905 0.0
C402 C 0.89604 0.99777 0.32579 0.0
C403 C 0.94382 1.00854 0.30296 0.0
N404 N 0.90163 0.02634 0.34496 0.0
C405 C 0.93161 0.03314 0.33081 0.0
C406 C 0.9002 0.89765 0.2983 0.0
O407 O 0.96845 0.9081 0.21552 0.0
O408 O 0.96409 0.9466 0.27541 0.0
O409 O 0.90494 0.9255 0.31195 0.0
O410 O 0.90989 0.88894 0.2479 0.0
O411 O 0.88862 0.95644 0.22831 0.0
H412 H 0.96724 1.00758 0.28374 0.0
H413 H 0.87366 0.98616 0.32804 0.0
O414 O 0.89736 0.91981 0.16597 0.0
O415 O 0.95492 0.93854 0.13423 0.0
O416 O 0.94829 0.9779 0.19049 0.0
C417 C 0.95918 0.96665 0.14226 0.0
H418 H 0.94461 0.84361 1.02207 0.0
H419 H 0.94368 0.05469 0.33876 0.0
Co420 Co 0.33316 0.71702 0.03137 0.0
C421 C 0.34205 0.75352 0.12656 0.0
Co422 Co 0.34419 0.6931 0.1011 0.0
C423 C 0.30182 0.73185 0.944 0.0
C424 C 0.33655 0.76603 0.95869 0.0
N425 N 0.32338 0.73869 0.97546 0.0
N426 N 0.30099 0.75391 0.9082 0.0
C427 C 0.32288 0.77543 0.91746 0.0
H428 H 0.28712 0.71104 0.94732 0.0
H429 H 0.3547 0.77853 0.97596 0.0
C430 C 0.33714 0.65705 1.00573 0.0
N431 N 0.3547 0.67184 0.15697 0.0
C432 C 0.37901 0.67833 0.18178 0.0
C433 C 0.34243 0.64455 0.17572 0.0
N434 N 0.38278 0.65594 0.21425 0.0
C435 C 0.35979 0.63462 0.21068 0.0
C436 C 0.28304 0.69078 0.10583 0.0
O437 O 0.33352 0.68135 0.98398 0.0
O438 O 0.34163 0.65755 0.05619 0.0
O439 O 0.303 0.68484 0.13291 0.0
O440 O 0.29108 0.70582 0.06098 0.0
O441 O 0.34707 0.72895 0.14538 0.0
H442 H 0.32306 0.63202 0.16244 0.0
H443 H 0.39483 0.6982 0.17311 0.0
O444 O 0.33359 0.75308 0.07908 0.0
O445 O 0.37487 0.72693 1.0018 0.0
O446 O 0.38537 0.70088 0.06853 0.0
C447 C 0.39428 0.71661 1.02513 0.0
H448 H 0.3282 0.79681 0.89699 0.0
H449 H 0.35646 0.61296 0.2302 0.0
Co450 Co 0.56347 0.12299 0.69226 0.0
C451 C 0.6187 0.10069 0.6559 0.0
Co452 Co 0.57251 0.08776 0.74483 0.0
C453 C 0.55017 0.17912 0.65689 0.0
C454 C 0.56175 0.1482 0.58754 0.0
N455 N 0.55794 0.15119 0.64438 0.0
N456 N 0.54884 0.19362 0.61006 0.0
C457 C 0.55597 0.1743 0.56628 0.0
H458 H 0.54485 0.18832 0.69956 0.0
H459 H 0.56823 0.12825 0.56318 0.0
C460 C 0.51865 0.11373 0.78582 0.0
N461 N 0.57944 0.05871 0.7923 0.0
C462 C 0.59163 0.03235 0.78019 0.0
C463 C 0.57581 0.0621 0.84902 0.0
N464 N 0.59615 1.01958 0.8272 0.0
C465 C 0.58612 0.03825 0.87047 0.0
C466 C 0.59522 0.14603 0.77542 0.0
O467 O 0.52672 0.12959 0.74215 0.0
O468 O 0.53447 0.09293 0.79289 0.0
O469 O 0.59185 0.11862 0.78929 0.0
O470 O 0.58447 0.15288 0.73338 0.0
O471 O 0.611 0.08414 0.69853 0.0
H472 H 0.56695 0.08118 0.87321 0.0
H473 H 0.5981 0.02328 0.73769 0.0
O474 O 0.60005 0.1172 0.64404 0.0
O475 O 0.54276 0.09386 0.65068 0.0
O476 O 0.55292 0.05711 0.69793 0.0
C477 C 0.54113 0.06595 0.65812 0.0
H478 H 0.55674 0.17872 0.52227 0.0
H479 H 0.58628 0.03487 0.91455 0.0
H480 H 0.49704 0.25623 0.18224 0.0
H481 H 0.46256 0.31535 0.08017 0.0
H482 H 0.51377 0.33692 0.04201 0.0
H483 H 0.56795 0.33606 0.03241 0.0
H484 H 0.6033 0.27564 0.13133 0.0
H485 H 0.55201 0.25743 0.17641 0.0
C486 C 0.50087 0.27428 0.1526 0.0
C487 C 0.47634 0.28429 0.13379 0.0
C488 C 0.53038 0.28596 0.12987 0.0
C489 C 0.48133 0.30732 0.09474 0.0
C490 C 0.5105 0.31954 0.07294 0.0
C491 C 0.56454 0.319 0.06402 0.0
C492 C 0.58936 0.30701 0.07811 0.0
C493 C 0.53517 0.30851 0.08921 0.0
C494 C 0.58451 0.28508 0.11947 0.0
C495 C 0.55522 0.27469 0.14529 0.0
H496 H 0.55826 0.74826 0.3999 0.0
H497 H 0.51168 0.72067 0.56486 0.0
H498 H 0.4842 0.76525 0.57559 0.0
H499 H 0.47118 0.81022 0.53489 0.0
H500 H 0.51895 0.83776 0.37014 0.0
H501 H 0.54768 0.79464 0.36194 0.0
C502 C 0.54208 0.75207 0.43815 0.0
C503 C 0.53676 0.7312 0.48127 0.0
C504 C 0.5263 0.77747 0.44371 0.0
C505 C 0.51625 0.73659 0.53123 0.0
C506 C 0.5004 0.76192 0.53717 0.0
C507 C 0.48811 0.80702 0.49753 0.0
C508 C 0.49241 0.82699 0.45287 0.0
C509 C 0.50494 0.78228 0.49327 0.0
C510 C 0.51444 0.82237 0.40458 0.0
C511 C 0.53115 0.79782 0.39998 0.0
H512 H 0.06245 0.83477 0.54041 0.0
H513 H 0.09254 0.77079 0.64007 0.0
H514 H 0.0409 0.75733 0.68766 0.0
H515 H 0.98697 0.76088 0.69572 0.0
H516 H 0.9563 0.82323 0.59451 0.0
H517 H 0.00849 0.84085 0.55354 0.0
C518 C 0.05762 0.81784 0.57242 0.0
C519 C 0.08108 0.80351 0.58621 0.0
C520 C 0.02791 0.81023 0.59979 0.0
C521 C 0.07473 0.78198 0.62845 0.0
C522 C 0.04526 0.77434 0.65588 0.0
C523 C 0.99186 0.77894 0.66601 0.0
C524 C 0.9682 0.79085 0.64797 0.0
C525 C 0.02168 0.78808 0.64146 0.0
C526 C 0.97449 0.81385 0.60866 0.0
C527 C 0.00418 0.82369 0.58502 0.0
H528 H 0.00613 0.33626 0.88639 0.0
H529 H 0.94311 0.3138 0.03969 0.0
H530 H 0.96928 0.27017 0.04994 0.0
H531 H 0.00872 0.23719 1.01261 0.0
H532 H 0.06992 0.25844 0.85699 0.0
H533 H 0.04578 0.30396 0.84997 0.0
C534 C 0.99789 0.32165 0.92166 0.0
C535 C 0.97262 0.3281 0.96199 0.0
C536 C 0.01282 0.29658 0.92694 0.0
C537 C 0.96265 0.30936 1.00828 0.0
C538 C 0.97754 0.28441 1.0141 0.0
C539 C 0.01702 0.25219 0.97789 0.0
C540 C 0.04099 0.24484 0.9355 0.0
C541 C 0.00257 0.27776 0.97354 0.0
C542 C 0.05137 0.2639 0.88992 0.0
C543 C 0.03757 0.28975 0.88587 0.0
H544 H 0.53578 0.73929 0.97531 0.0
H545 H 0.51805 0.79053 0.84088 0.0
H546 H 0.46408 0.77436 0.8668 0.0
H547 H 0.42165 0.74889 0.93295 0.0
H548 H 0.44031 0.69896 0.06891 0.0
H549 H 0.49415 0.71175 0.03756 0.0
C550 C 0.52009 0.74686 0.95165 0.0
C551 C 0.53079 0.76632 0.90675 0.0
C552 C 0.48923 0.73799 0.96748 0.0
C553 C 0.51035 0.77541 0.87548 0.0
C554 C 0.47948 0.76639 0.89063 0.0
C555 C 0.43752 0.74067 0.95547 0.0
C556 C 0.42691 0.72322 1.00348 0.0
C557 C 0.46861 0.74821 0.93737 0.0
C558 C 0.44778 0.71258 0.03201 0.0
C559 C 0.47863 0.71985 1.01414 0.0
H560 H 0.50303 0.32003 0.64845 0.0
H561 H 0.45517 0.28599 0.51617 0.0
H562 H 0.48123 0.24061 0.50606 0.0
H563 H 0.51431 0.20918 0.54056 0.0
H564 H 0.55978 0.24204 0.67651 0.0
H565 H 0.53752 0.28958 0.68034 0.0
C566 C 0.49811 0.30258 0.61776 0.0
C567 C 0.47695 0.30603 0.58368 0.0
C568 C 0.51261 0.27649 0.61312 0.0
C569 C 0.47147 0.28374 0.54277 0.0
C570 C 0.48621 0.25781 0.53718 0.0
C571 C 0.51974 0.22703 0.57018 0.0
C572 C 0.53845 0.2224 0.60828 0.0
C573 C 0.50643 0.25379 0.57279 0.0
C574 C 0.5451 0.24529 0.64726 0.0
C575 C 0.53246 0.27233 0.64937 0.0
H576 H 0.9311 0.20888 0.51233 0.0
H577 H 0.90079 0.27156 0.41038 0.0
H578 H 0.95305 0.28599 0.36495 0.0
H579 H 0.00754 0.28361 0.36049 0.0
H580 H 0.03692 0.22241 0.46592 0.0
H581 H 0.98454 0.20412 0.50351 0.0
C582 C 0.9358 0.22564 0.48 0.0
C583 C 0.91216 0.23943 0.46523 0.0
C584 C 0.96567 0.23393 0.45467 0.0
C585 C 0.91866 0.2608 0.42278 0.0
C586 C 0.94849 0.26902 0.3968 0.0
C587 C 0.00233 0.26576 0.39061 0.0
C588 C 0.02577 0.2542 0.41057 0.0
C589 C 0.9722 0.25607 0.41311 0.0
C590 C 0.01901 0.2315 0.45033 0.0
C591 C 0.98919 0.22121 0.47187 0.0
H592 H 0.99512 0.71702 0.15418 0.0
H593 H 0.06133 0.74493 1.00822 0.0
H594 H 0.03318 0.78698 0.99694 0.0
H595 H 0.99156 0.81755 0.03278 0.0
H596 H 0.92744 0.79135 0.18208 0.0
H597 H 0.95285 0.74647 0.18809 0.0
C598 C 0.00358 0.73249 0.12032 0.0
C599 C 0.0304 0.72818 0.0825 0.0
C600 C 0.98751 0.75662 0.11453 0.0
C601 C 0.04066 0.74787 0.03778 0.0
C602 C 0.02463 0.77186 0.03135 0.0
C603 C 0.98286 0.80152 0.06564 0.0
C604 C 0.95775 0.80725 0.10672 0.0
C605 C 0.99818 0.77656 0.06979 0.0
C606 C 0.9468 0.78697 0.15008 0.0
C607 C 0.96137 0.76158 0.15365 0.0
H608 H 0.13476 0.13952 0.96549 0.0
H609 H 0.17416 0.08563 0.82295 0.0
H610 H 0.22158 0.08985 0.85849 0.0
H611 H 0.25344 0.11505 0.92227 0.0
H612 H 0.21478 0.17135 0.06106 0.0
H613 H 0.16488 0.15907 0.03617 0.0
C614 C 0.15365 0.12845 0.94239 0.0
C615 C 0.15131 0.11291 0.89089 0.0
C616 C 0.18077 0.1313 0.96268 0.0
C617 C 0.1756 0.09802 0.86226 0.0
C618 C 0.20267 0.10046 0.88256 0.0
C619 C 0.23389 0.12408 0.94767 0.0
C620 C 0.23769 0.14447 0.99273 0.0
C621 C 0.20575 0.11792 0.93159 0.0
C622 C 0.21231 0.15561 1.02626 0.0
C623 C 0.18393 0.14891 1.01151 0.0
H624 H 0.68792 0.43711 0.04712 0.0
H625 H 0.65153 0.37814 0.18445 0.0
H626 H 0.63279 0.42094 0.2434 0.0
H627 H 0.61934 0.4739 0.24881 0.0
H628 H 0.65443 0.53082 0.10769 0.0
H629 H 0.6813 0.49041 0.05739 0.0
C630 C 0.67672 0.43382 0.09063 0.0
C631 C 0.67102 0.40464 0.11148 0.0
C632 C 0.66528 0.45821 0.12316 0.0
C633 C 0.65646 0.40051 0.16776 0.0
C634 C 0.64538 0.42494 0.20111 0.0
C635 C 0.63355 0.47748 0.20774 0.0
C636 C 0.63467 0.50509 0.18148 0.0
C637 C 0.64851 0.45371 0.17835 0.0
C638 C 0.65299 0.5096 0.12816 0.0
C639 C 0.66833 0.48652 0.09945 0.0
H640 H 0.36047 0.88365 0.466 0.0
H641 H 0.33837 0.96239 0.39307 0.0
H642 H 0.28541 0.94145 0.4054 0.0
H643 H 0.24568 0.89927 0.4332 0.0
H644 H 0.2699 0.82029 0.50224 0.0
H645 H 0.32181 0.84252 0.49353 0.0
C646 C 0.34408 0.89664 0.45372 0.0
C647 C 0.35347 0.92475 0.42912 0.0
C648 C 0.31407 0.88398 0.45879 0.0
C649 C 0.33178 0.94086 0.41274 0.0
C650 C 0.30153 0.92872 0.41914 0.0
C651 C 0.26245 0.88682 0.4455 0.0
C652 C 0.25388 0.85802 0.46792 0.0
C653 C 0.29251 0.89996 0.44103 0.0
C654 C 0.27582 0.84239 0.4846 0.0
C655 C 0.30553 0.85518 0.48005 0.0
H656 H 0.84868 0.61105 0.59479 0.0
H657 H 0.86332 0.66917 0.73733 0.0
H658 H 0.8802 0.62816 0.78152 0.0
H659 H 0.89709 0.57757 0.77487 0.0
H660 H 0.88388 0.51873 0.63357 0.0
H661 H 0.86013 0.55756 0.59403 0.0
C662 C 0.85474 0.61443 0.6362 0.0
C663 C 0.85474 0.64335 0.66249 0.0
C664 C 0.86511 0.59055 0.66142 0.0
C665 C 0.86316 0.64732 0.71589 0.0
C666 C 0.87298 0.62384 0.74125 0.0
C667 C 0.88816 0.57308 0.73629 0.0
C668 C 0.8918 0.54529 0.70749 0.0
C669 C 0.87496 0.59566 0.71373 0.0
C670 C 0.88079 0.5398 0.65687 0.0
C671 C 0.86747 0.56214 0.63411 0.0
H672 H 0.74399 0.91923 0.17324 0.0
H673 H 0.78151 0.87781 1.01398 0.0
H674 H 0.83222 0.89735 1.02671 0.0
H675 H 0.86585 0.91954 0.08925 0.0
H676 H 0.82898 0.95908 0.25078 0.0
H677 H 0.77793 0.94737 0.23076 0.0
C678 C 0.76328 0.91473 0.14115 0.0
C679 C 0.75905 0.89661 0.09322 0.0
C680 C 0.79241 0.92557 0.14934 0.0
C681 C 0.78413 0.89164 0.05119 0.0
C682 C 0.81315 0.90264 0.05867 0.0
C683 C 0.84666 0.92614 0.11966 0.0
C684 C 0.85105 0.93971 0.1718 0.0
C685 C 0.81755 0.91867 0.10845 0.0
C686 C 0.82613 0.94858 0.2104 0.0
C687 C 0.79696 0.94162 0.19916 0.0
H688 H 0.35997 0.64626 0.894 0.0
H689 H 0.31406 0.6031 0.04697 0.0
H690 H 0.32102 0.55386 1.00187 0.0
H691 H 0.34646 0.52355 0.92474 0.0
H692 H 0.39597 0.56525 0.77358 0.0
H693 H 0.38083 0.61451 0.81105 0.0
C694 C 0.35092 0.62599 0.91672 0.0
C695 C 0.33679 0.62815 0.97379 0.0
C696 C 0.35591 0.59758 0.89097 0.0
C697 C 0.32528 0.60187 1.00318 0.0
C698 C 0.32927 0.57374 0.97748 0.0
C699 C 0.35345 0.54342 0.8997 0.0
C700 C 0.37257 0.54106 0.84706 0.0
C701 C 0.34554 0.57139 0.9223 0.0
C702 C 0.38119 0.56668 0.81427 0.0
C703 C 0.37278 0.59479 0.83599 0.0
H704 H 0.66416 0.11026 0.71365 0.0
H705 H 0.64326 0.11348 0.54711 0.0
H706 H 0.69065 0.14475 0.51603 0.0
H707 H 0.7353 0.17521 0.53915 0.0
H708 H 0.75579 0.17302 0.70633 0.0
H709 H 0.71064 0.13809 0.73505 0.0
C710 C 0.67062 0.11678 0.66993 0.0
C711 C 0.65063 0.10913 0.63229 0.0
C712 C 0.69707 0.13604 0.65336 0.0
C713 C 0.65869 0.1186 0.57633 0.0
C714 C 0.68545 0.13695 0.55895 0.0
C715 C 0.72962 0.16741 0.58211 0.0
C716 C 0.74836 0.17723 0.62105 0.0
C717 C 0.7042 0.14672 0.59772 0.0
C718 C 0.74133 0.16619 0.676 0.0
C719 C 0.71576 0.14597 0.69219 0.0
H720 H 0.15835 0.43713 0.41642 0.0
H721 H 0.10579 0.37241 0.32593 0.0
H722 H 0.08602 0.41271 0.28543 0.0
H723 H 0.07945 0.46605 0.28202 0.0
H724 H 0.13169 0.53208 0.36898 0.0
H725 H 0.15595 0.492 0.40375 0.0
C726 C 0.14305 0.43189 0.38698 0.0
C727 C 0.13344 0.4015 0.37497 0.0
C728 C 0.13142 0.45552 0.36345 0.0
C729 C 0.11349 0.39535 0.33667 0.0
C730 C 0.10203 0.41847 0.31337 0.0
C731 C 0.09649 0.47164 0.30795 0.0
C732 C 0.10365 0.50192 0.32323 0.0
C733 C 0.11018 0.44855 0.32754 0.0
C734 C 0.12593 0.50895 0.35644 0.0
C735 C 0.1396 0.48597 0.3766 0.0
H736 H 0.68695 0.60813 0.32387 0.0
H737 H 0.63135 0.60389 0.48975 0.0
H738 H 0.67598 0.61293 0.5333 0.0
H739 H 0.72871 0.63379 0.52369 0.0
H740 H 0.78344 0.64506 0.35899 0.0
H741 H 0.7421 0.62071 0.315 0.0
C742 C 0.68489 0.60816 0.36943 0.0
C743 C 0.65614 0.60565 0.40378 0.0
C744 C 0.71063 0.61487 0.3942 0.0
C745 C 0.65341 0.60605 0.46276 0.0
C746 C 0.67887 0.61128 0.48762 0.0
C747 C 0.73187 0.62929 0.47844 0.0
C748 C 0.75886 0.64069 0.44442 0.0
C749 C 0.70738 0.61733 0.45381 0.0
C750 C 0.76286 0.63584 0.38569 0.0
C751 C 0.73905 0.62246 0.36067 0.0
H752 H 0.14622 0.99635 0.72055 0.0
H753 H 0.05749 0.97578 0.68102 0.0
H754 H 0.07014 0.92638 0.64266 0.0
H755 H 0.10827 0.89233 0.60863 0.0
H756 H 0.19784 0.91163 0.64463 0.0
H757 H 0.18331 0.95816 0.6966 0.0
C758 C 0.12957 0.98055 0.705 0.0
C759 C 0.101 0.98946 0.70323 0.0
C760 C 0.13737 0.95234 0.68163 0.0
C761 C 0.07956 0.96918 0.68246 0.0
C762 C 0.08684 0.9411 0.66033 0.0
C763 C 0.12444 0.90653 0.62878 0.0
C764 C 0.15405 0.89903 0.62264 0.0
C765 C 0.11596 0.93296 0.6578 0.0
C766 C 0.17488 0.91718 0.64907 0.0
C767 C 0.16658 0.94377 0.67841 0.0
H768 H 0.76454 0.37482 1.00924 0.0
H769 H 0.74472 0.38548 0.84386 0.0
H770 H 0.79152 0.4188 0.81887 0.0
H771 H 0.83949 0.44213 0.84253 0.0
H772 H 0.85893 0.43103 1.00812 0.0
H773 H 0.81006 0.40179 0.0357 0.0
C774 C 0.77068 0.38417 0.96749 0.0
C775 C 0.75178 0.37708 0.92777 0.0
C776 C 0.79702 0.40393 0.9542 0.0
C777 C 0.75934 0.39018 0.8746 0.0
C778 C 0.78588 0.40944 0.86058 0.0
C779 C 0.83249 0.43433 0.88536 0.0
C780 C 0.8526 0.43897 0.92352 0.0
C781 C 0.80495 0.41639 0.90002 0.0
C782 C 0.8436 0.42805 0.97838 0.0
C783 C 0.81592 0.41089 0.99378 0.0
H784 H 0.36665 0.03116 0.18782 0.0
H785 H 0.42927 0.0735 0.28839 0.0
H786 H 0.41581 0.12319 0.26943 0.0
H787 H 0.38894 0.15473 0.21735 0.0
H788 H 0.32475 0.11118 0.12023 0.0
H789 H 0.33583 0.06214 0.14509 0.0
C790 C 0.37711 0.05129 0.20601 0.0
C791 C 0.39915 0.04866 0.23906 0.0
C792 C 0.369 0.07966 0.19533 0.0
C793 C 0.41221 0.07491 0.26302 0.0
C794 C 0.40461 0.10332 0.25185 0.0
C795 C 0.37699 0.13453 0.20238 0.0
C796 C 0.3561 0.13692 0.1665 0.0
C797 C 0.3834 0.10604 0.21714 0.0
C798 C 0.34087 0.11032 0.14783 0.0
C799 C 0.34732 0.08211 0.1618 0.0
H800 H 0.27595 0.38226 0.52101 0.0
H801 H 0.228 0.44528 0.63399 0.0
H802 H 0.27311 0.46115 0.67414 0.0
H803 H 0.32404 0.45114 0.68675 0.0
H804 H 0.37025 0.38585 0.57475 0.0
H805 H 0.32848 0.37704 0.52503 0.0
C806 C 0.27585 0.40028 0.5528 0.0
C807 C 0.24889 0.41255 0.57465 0.0
C808 C 0.30144 0.40832 0.57719 0.0
C809 C 0.24872 0.43556 0.61666 0.0
C810 C 0.27437 0.44437 0.64003 0.0
C811 C 0.32502 0.43527 0.65115 0.0
C812 C 0.35003 0.41877 0.63569 0.0
C813 C 0.30052 0.4299 0.62242 0.0
C814 C 0.35108 0.39851 0.58876 0.0
C815 C 0.3272 0.39346 0.55978 0.0
H816 H 0.82225 0.11021 0.50943 0.0
H817 H 0.84909 0.1692 0.36891 0.0
H818 H 0.87294 0.12877 0.31116 0.0
H819 H 0.89238 0.07881 0.30568 0.0
H820 H 0.86398 1.01941 0.44471 0.0
H821 H 0.83438 0.05763 0.49828 0.0
C822 C 0.83255 0.11392 0.46559 0.0
C823 C 0.83401 0.14271 0.4435 0.0
C824 C 0.84637 0.09062 0.43287 0.0
C825 C 0.8474 0.14721 0.38671 0.0
C826 C 0.86138 0.12419 0.35392 0.0
C827 C 0.87914 0.07419 0.34725 0.0
C828 C 0.88038 0.04659 0.37174 0.0
C829 C 0.86198 0.09617 0.37727 0.0
C830 C 0.86315 0.04052 0.42535 0.0
C831 C 0.84641 0.0624 0.45589 0.0
H832 H 0.16025 0.61527 0.20523 0.0
H833 H 0.14564 0.62282 0.03528 0.0
H834 H 0.19552 0.65074 1.00954 0.0
H835 H 0.24183 0.67614 0.03743 0.0
H836 H 0.25525 0.66993 0.20874 0.0
H837 H 0.20696 0.63923 0.23233 0.0
C838 C 0.16845 0.62204 0.16201 0.0
C839 C 0.1496 0.61626 0.12177 0.0
C840 C 0.19647 0.6394 0.14839 0.0
C841 C 0.16006 0.62633 0.06656 0.0
C842 C 0.18834 0.64276 0.05215 0.0
C843 C 0.23397 0.66844 0.08014 0.0
C844 C 0.25195 0.67578 0.12151 0.0
C845 C 0.20639 0.65018 0.09316 0.0
C846 C 0.24172 0.66496 0.17628 0.0
C847 C 0.21423 0.64712 0.18967 0.0
H848 H 0.63452 1.01018 0.89505 0.0
H849 H 0.58675 0.96711 0.76966 0.0
H850 H 0.60342 0.91864 0.7867 0.0
H851 H 0.62731 0.88796 0.84447 0.0
H852 H 0.67563 0.93173 0.96919 0.0
H853 H 0.66342 0.98051 0.94467 0.0
C854 C 0.62801 0.99017 0.87119 0.0
C855 C 0.6091 0.99203 0.83174 0.0
C856 C 0.63774 0.96255 0.8812 0.0
C857 C 0.60128 0.96616 0.80019 0.0
C858 C 0.61069 0.93848 0.81019 0.0
C859 C 0.63565 0.90821 0.86561 0.0
C860 C 0.65214 0.90605 0.9091 0.0
C861 C 0.62834 0.93629 0.85157 0.0
C862 C 0.6629 0.93261 0.93566 0.0
C863 C 0.65575 0.96056 0.92193 0.0
H864 H 0.43349 0.14999 1.01315 0.0
H865 H 0.40069 0.20365 0.89929 0.0
H866 H 0.4354 0.18374 0.81899 0.0
H867 H 0.47615 0.15196 0.78157 0.0
H868 H 0.50651 0.09563 0.89493 0.0
H869 H 0.47148 0.11509 0.97443 0.0
C870 C 0.43413 0.15728 0.97068 0.0
C871 C 0.41507 0.17855 0.96191 0.0
C872 C 0.45349 0.145 0.92453 0.0
C873 C 0.41546 0.18747 0.90679 0.0
C874 C 0.43521 0.17603 0.86096 0.0
C875 C 0.47482 0.14363 0.82352 0.0
C876 C 0.49406 0.12234 0.832 0.0
C877 C 0.45443 0.15484 0.86929 0.0
C878 C 0.49192 0.11183 0.88683 0.0
C879 C 0.47201 0.12314 0.93257 0.0
H880 H 0.60152 0.6549 0.1634 0.0
H881 H 0.64215 0.70403 0.29286 0.0
H882 H 0.65833 0.74657 0.23088 0.0
H883 H 0.65782 0.77146 0.14256 0.0
H884 H 0.61386 0.72414 1.01537 0.0
H885 H 0.60218 0.6796 0.0733 0.0
C886 C 0.61445 0.6747 0.17745 0.0
C887 C 0.62089 0.67616 0.2325 0.0
C888 C 0.62277 0.69968 0.14214 0.0
C889 C 0.63704 0.70228 0.25063 0.0
C890 C 0.6462 0.72669 0.21526 0.0
C891 C 0.64596 0.75131 0.12718 0.0
C892 C 0.6368 0.75127 0.07449 0.0
C893 C 0.6387 0.72592 0.16134 0.0
C894 C 0.62117 0.72494 0.05571 0.0
C895 C 0.61447 0.69938 0.08887 0.0
H896 H 0.99749 0.93542 0.35514 0.0
H897 H 0.0244 0.89963 0.18582 0.0
H898 H 0.07025 0.88491 0.21018 0.0
H899 H 0.1017 0.87978 0.27995 0.0
H900 H 0.07515 0.9132 0.45081 0.0
H901 H 0.03022 0.93082 0.42588 0.0
C902 C 0.01363 0.92475 0.32355 0.0
C903 C 0.0075 0.91874 0.26865 0.0
C904 C 0.03991 0.91556 0.33827 0.0
C905 C 0.02845 0.90447 0.2284 0.0
C906 C 0.05473 0.89599 0.24227 0.0
C907 C 0.0864 0.8913 0.31167 0.0
C908 C 0.09202 0.89526 0.36715 0.0
C909 C 0.06054 0.90108 0.29716 0.0
C910 C 0.07136 0.90965 0.40787 0.0
C911 C 0.04569 0.91986 0.39354 0.0
H912 H 0.87663 0.27085 0.6816 0.0
H913 H 0.81309 0.3167 0.61457 0.0
H914 H 0.8314 0.36435 0.65786 0.0
H915 H 0.8664 0.3933 0.71565 0.0
H916 H 0.93066 0.34528 0.77688 0.0
H917 H 0.91155 0.29881 0.73445 0.0
C918 C 0.86642 0.29113 0.67687 0.0
C919 C 0.84314 0.28994 0.64552 0.0
C920 C 0.8776 0.31845 0.70041 0.0
C921 C 0.83082 0.31679 0.63898 0.0
C922 C 0.84145 0.34413 0.66349 0.0
C923 C 0.87637 0.37272 0.71896 0.0
C924 C 0.89987 0.37297 0.74998 0.0
C925 C 0.86507 0.34537 0.69416 0.0
C926 C 0.91236 0.34591 0.75401 0.0
C927 C 0.90143 0.31913 0.72975 0.0
H928 H 0.60733 0.87558 0.15918 0.0
H929 H 0.54984 0.85646 0.03556 0.0
H930 H 0.51087 0.88348 0.09471 0.0
H931 H 0.49225 0.91131 0.18326 0.0
H932 H 0.54779 0.92634 0.31037 0.0
H933 H 0.58853 0.90285 0.24801 0.0
C934 C 0.58626 0.87728 0.14515 0.0
C935 C 0.5816 0.86387 0.09285 0.0
C936 C 0.56372 0.89257 0.1798 0.0
C937 C 0.55405 0.86629 0.07565 0.0
C938 C 0.53178 0.88194 0.10936 0.0
C939 C 0.5136 0.91011 0.19657 0.0
C940 C 0.5174 0.92133 0.25067 0.0
C941 C 0.53633 0.89519 0.16153 0.0
C942 C 0.54465 0.91849 0.26844 0.0
C943 C 0.5678 0.90478 0.23299 0.0
H944 H 0.38128 0.3252 0.78884 0.0
H945 H 0.39379 0.40303 0.89774 0.0
H946 H 0.38367 0.37126 0.98014 0.0
H947 H 0.37271 0.32045 1.02176 0.0
H948 H 0.35611 0.24372 0.91249 0.0
H949 H 0.36637 0.27559 0.83078 0.0
C950 C 0.38148 0.33525 0.83067 0.0
C951 C 0.38832 0.36652 0.8368 0.0
C952 C 0.37507 0.31686 0.87824 0.0
C953 C 0.38836 0.37909 0.89155 0.0
C954 C 0.38276 0.36086 0.93885 0.0
C955 C 0.37125 0.31084 0.98007 0.0
C956 C 0.36365 0.27967 0.97345 0.0
C957 C 0.37635 0.3296 0.93281 0.0
C958 C 0.36165 0.26762 0.91906 0.0
C959 C 0.36761 0.28584 0.87206 0.0
H960 H 0.99839 0.17217 0.79497 0.0
H961 H 0.99391 0.07783 0.7471 0.0
H962 H 0.94961 0.08225 0.7056 0.0
H963 H 0.91295 0.11302 0.68119 0.0
H964 H 0.918 0.2076 0.72555 0.0
H965 H 0.96168 0.20317 0.76962 0.0
C966 C 0.98754 0.15255 0.77584 0.0
C967 C 0.99924 0.12467 0.77437 0.0
C968 C 0.96243 0.15537 0.75109 0.0
C969 C 0.98528 0.09952 0.74876 0.0
C970 C 0.95999 0.10203 0.725 0.0
C971 C 0.92343 0.13258 0.70103 0.0
C972 C 0.91221 0.16054 0.7006 0.0
C973 C 0.94849 0.12985 0.72573 0.0
C974 C 0.92642 0.18589 0.72519 0.0
C975 C 0.95123 0.18331 0.75057 0.0
H976 H 0.15918 0.7746 0.34397 0.0
H977 H 0.15736 0.72306 0.49099 0.0
H978 H 0.1363 0.67811 0.4441 0.0
H979 H 0.11368 0.65442 0.36344 0.0
H980 H 0.11667 0.7079 0.21778 0.0
H981 H 0.14173 0.75042 0.26184 0.0
C982 C 0.15468 0.75344 0.36554 0.0
C983 C 0.15977 0.7524 0.42105 0.0
C984 C 0.14222 0.7278 0.33869 0.0
C985 C 0.15384 0.72462 0.44809 0.0
C986 C 0.1415 0.69888 0.42142 0.0
C987 C 0.12007 0.67528 0.34128 0.0
C988 C 0.11255 0.67779 0.28764 0.0
C989 C 0.13482 0.70032 0.36709 0.0
C990 C 0.12143 0.70511 0.25947 0.0
C991 C 0.13597 0.72967 0.28453 0.0
H992 H 0.8994 0.64646 0.45091 0.0
H993 H 0.94584 0.7355 0.45661 0.0
H994 H 0.9864 0.72093 0.38122 0.0
H995 H 0.009 0.6827 0.31367 0.0
H996 H 0.96614 0.59196 0.31614 0.0
H997 H 0.92396 0.60712 0.38786 0.0
C998 C 0.91843 0.66262 0.43553 0.0
C999 C 0.91948 0.69214 0.45901 0.0
C1000 C 0.94229 0.65371 0.39346 0.0
C1001 C 0.94451 0.71269 0.43934 0.0
C1002 C 0.96767 0.70437 0.39608 0.0
C1003 C 0.99028 0.66632 0.32973 0.0
C1004 C 0.99038 0.63634 0.30891 0.0
C1005 C 0.96681 0.67496 0.37274 0.0
C1006 C 0.96642 0.61518 0.33112 0.0
C1007 C 0.94234 0.62387 0.37218 0.0
H1008 H 0.12732 0.21128 0.75167 0.0
H1009 H 0.10114 0.13951 0.63927 0.0
H1010 H 0.11187 0.1739 0.56063 0.0
H1011 H 0.12568 0.22551 0.52472 0.0
H1012 H 0.1551 0.29623 0.63618 0.0
H1013 H 0.14633 0.26132 0.71349 0.0
C1014 C 0.12436 0.20305 0.70979 0.0
C1015 C 0.11333 0.17278 0.70165 0.0
C1016 C 0.13101 0.22292 0.66436 0.0
C1017 C 0.10978 0.16257 0.6469 0.0
C1018 C 0.11573 0.18233 0.60185 0.0
C1019 C 0.13049 0.23317 0.56575 0.0
C1020 C 0.14092 0.26361 0.57443 0.0
C1021 C 0.12591 0.21271 0.61019 0.0
C1022 C 0.1472 0.27301 0.62795 0.0
C1023 C 0.14205 0.25303 0.67244 0.0
H1024 H 0.50667 0.37798 0.74337 0.0
H1025 H 0.49608 0.46824 0.80988 0.0
H1026 H 0.5392 0.46713 0.85668 0.0
H1027 H 0.57896 0.43999 0.88077 0.0
H1028 H 0.58851 0.34927 0.81687 0.0
H1029 H 0.54646 0.35092 0.76734 0.0
C1030 C 0.51394 0.39751 0.76774 0.0
C1031 C 0.49831 0.42322 0.77293 0.0
C1032 C 0.53836 0.39652 0.79532 0.0
C1033 C 0.50776 0.44819 0.8052 0.0
C1034 C 0.53238 0.44757 0.83201 0.0
C1035 C 0.572 0.42072 0.85555 0.0
C1036 C 0.58682 0.39458 0.85235 0.0
C1037 C 0.54772 0.42179 0.82762 0.0
C1038 C 0.57723 0.36953 0.82039 0.0
C1039 C 0.55332 0.37053 0.79186 0.0
H1040 H 0.37332 0.76133 0.21168 0.0
H1041 H 0.33148 0.81103 0.10473 0.0
H1042 H 0.35122 0.85849 0.14645 0.0
H1043 H 0.38222 0.88599 0.21252 0.0
H1044 H 0.42538 0.83353 0.31364 0.0
H1045 H 0.40364 0.78757 0.27453 0.0
C1046 C 0.36807 0.78247 0.1978 0.0
C1047 C 0.35062 0.78247 0.15551 0.0
C1048 C 0.38019 0.80947 0.22056 0.0
C1049 C 0.34462 0.81027 0.13764 0.0
C1050 C 0.3561 0.83746 0.16124 0.0
C1051 C 0.38694 0.8645 0.22564 0.0
C1052 C 0.40545 0.8636 0.26635 0.0
C1053 C 0.37431 0.83741 0.20243 0.0
C1054 C 0.41121 0.83534 0.28277 0.0
C1055 C 0.3987 0.80877 0.26048 0.0
H1056 H 0.09734 0.40622 0.5858 0.0
H1057 H 0.04926 0.31751 0.59288 0.0
H1058 H 0.01122 0.3343 0.67065 0.0
H1059 H 0.99145 0.37421 0.73648 0.0
H1060 H 0.03573 0.46436 0.72268 0.0
H1061 H 0.07557 0.44718 0.64798 0.0
C1062 C 0.07848 0.39064 0.6044 0.0
C1063 C 0.07616 0.36061 0.58385 0.0
C1064 C 0.05617 0.40072 0.64806 0.0
C1065 C 0.05144 0.34073 0.60779 0.0
C1066 C 0.02978 0.35029 0.65242 0.0
C1067 C 0.01004 0.38999 0.7174 0.0
C1068 C 0.01116 0.42036 0.73566 0.0
C1069 C 0.03196 0.38018 0.67298 0.0
C1070 C 0.03472 0.44083 0.70962 0.0
C1071 C 0.05738 0.431 0.66689 0.0
H1072 H 0.90108 0.8949 0.412 0.0
H1073 H 0.86551 0.84719 0.27529 0.0
H1074 H 0.8465 0.80442 0.33519 0.0
H1075 H 0.8438 0.77828 0.42395 0.0
H1076 H 0.88167 0.82482 0.55933 0.0
H1077 H 0.89554 0.86974 0.50325 0.0
C1078 C 0.88857 0.87541 0.39585 0.0
C1079 C 0.88469 0.87442 0.33916 0.0
C1080 C 0.87832 0.85026 0.4303 0.0
C1081 C 0.86887 0.84865 0.3187 0.0
C1082 C 0.85804 0.82403 0.35292 0.0
C1083 C 0.85466 0.79838 0.44152 0.0
C1084 C 0.86165 0.79791 0.49594 0.0
C1085 C 0.86322 0.82421 0.40843 0.0
C1086 C 0.87601 0.82428 0.51759 0.0
C1087 C 0.88404 0.85012 0.48544 0.0
H1088 H 0.41156 0.60679 0.2132 0.0
H1089 H 0.41285 0.6997 0.26881 0.0
H1090 H 0.4589 0.69616 0.30633 0.0
H1091 H 0.49944 0.66673 0.32084 0.0
H1092 H 0.4994 0.57454 0.25939 0.0
H1093 H 0.45217 0.57759 0.22671 0.0
C1094 C 0.42174 0.62608 0.23429 0.0
C1095 C 0.40879 0.65336 0.23894 0.0
C1096 C 0.44849 0.62402 0.2543 0.0
C1097 C 0.42253 0.67849 0.26498 0.0
C1098 C 0.44878 0.67644 0.28633 0.0
C1099 C 0.48899 0.64729 0.30051 0.0
C1100 C 0.50285 0.62043 0.29268 0.0
C1101 C 0.46209 0.64936 0.28084 0.0
C1102 C 0.48924 0.59551 0.26576 0.0
C1103 C 0.4622 0.5972 0.24717 0.0
H1104 H 0.65924 0.2347 0.94122 0.0
H1105 H 0.65264 0.29765 0.81546 0.0
H1106 H 0.63119 0.25715 0.75927 0.0
H1107 H 0.61102 0.20463 0.7484 0.0
H1108 H 0.61637 0.1411 0.87387 0.0
H1109 H 0.64144 0.18088 0.92727 0.0
C1110 C 0.65367 0.23944 0.90098 0.0
C1111 C 0.65767 0.26932 0.88271 0.0
C1112 C 0.64065 0.21596 0.86907 0.0
C1113 C 0.64989 0.27499 0.83072 0.0
C1114 C 0.63744 0.25181 0.79856 0.0
C1115 C 0.61771 0.19936 0.78736 0.0
C1116 C 0.61148 0.16985 0.80721 0.0
C1117 C 0.63211 0.22234 0.81785 0.0
C1118 C 0.62068 0.16358 0.85759 0.0
C1119 C 0.63507 0.18636 0.88818 0.0
H1120 H 0.25344 0.23874 0.17865 0.0
H1121 H 0.33099 0.27109 0.25201 0.0
H1122 H 0.29915 0.29711 0.32773 0.0
H1123 H 0.24853 0.31093 0.37511 0.0
H1124 H 0.17149 0.27833 0.29999 0.0
H1125 H 0.20348 0.2529 0.2247 0.0
C1126 C 0.26342 0.25141 0.21118 0.0
C1127 C 0.29478 0.25266 0.20898 0.0
C1128 C 0.24487 0.26665 0.25512 0.0
C1129 C 0.30702 0.26948 0.25195 0.0
C1130 C 0.28875 0.28453 0.29564 0.0
C1131 C 0.23876 0.29842 0.34217 0.0
C1132 C 0.20732 0.29678 0.34423 0.0
C1133 C 0.25753 0.28337 0.29791 0.0
C1134 C 0.19541 0.28018 0.30059 0.0
C1135 C 0.21377 0.26544 0.25697 0.0
H1136 H 0.53112 0.51588 0.41227 0.0
H1137 H 0.53277 0.5933 0.52629 0.0
H1138 H 0.50024 0.56484 0.60122 0.0
H1139 H 0.47079 0.51802 0.63561 0.0
H1140 H 0.46947 0.44 0.5234 0.0
H1141 H 0.50181 0.46849 0.44739 0.0
C1142 C 0.52454 0.52638 0.45362 0.0
C1143 C 0.53443 0.55673 0.46321 0.0
C1144 C 0.5055 0.50984 0.49718 0.0
C1145 C 0.52548 0.57001 0.51722 0.0
C1146 C 0.50675 0.55377 0.5604 0.0
C1147 C 0.47735 0.50736 0.59439 0.0
C1148 C 0.46759 0.47699 0.58534 0.0
C1149 C 0.49641 0.52374 0.55088 0.0
C1150 C 0.47664 0.46341 0.5317 0.0
C1151 C 0.49525 0.47965 0.48808 0.0
H1152 H 0.19793 0.74688 0.76636 0.0
H1153 H 0.26345 0.80836 0.66411 0.0
H1154 H 0.2984 0.80608 0.72894 0.0
H1155 H 0.31069 0.78572 0.81328 0.0
H1156 H 0.24498 0.7244 0.91567 0.0
H1157 H 0.21011 0.72674 0.85091 0.0
C1158 C 0.21994 0.75958 0.75791 0.0
C1159 C 0.22804 0.77771 0.71031 0.0
C1160 C 0.24 0.75796 0.79505 0.0
C1161 C 0.25647 0.79451 0.70072 0.0
C1162 C 0.27656 0.79304 0.73756 0.0
C1163 C 0.28866 0.77308 0.82184 0.0
C1164 C 0.28056 0.75491 0.86942 0.0
C1165 C 0.26857 0.77478 0.78476 0.0
C1166 C 0.25205 0.73824 0.87908 0.0
C1167 C 0.23197 0.73974 0.84227 0.0
H1168 H 0.05134 0.53053 0.06953 0.0
H1169 H 0.9816 0.58929 0.12114 0.0
H1170 H 0.95368 0.56573 0.05032 0.0
H1171 H 0.94888 0.52818 0.9721 0.0
H1172 H 0.01909 0.46995 0.91991 0.0
H1173 H 0.04693 0.49359 0.99058 0.0
C1174 C 0.02972 0.53765 0.06601 0.0
C1175 C 0.01827 0.56118 0.10166 0.0
C1176 C 0.01408 0.52453 1.02365 0.0
C1177 C 0.99067 0.57083 0.09504 0.0
C1178 C 0.9748 0.55757 0.05404 0.0
C1179 C 0.97062 0.52127 0.97532 0.0
C1180 C 0.98215 0.49773 0.9397 0.0
C1181 C 0.98638 0.53459 1.01744 0.0
C1182 C 0.00994 0.48839 0.94597 0.0
C1183 C 0.02578 0.50169 0.98693 0.0
H1184 H 0.68964 0.77424 0.81556 0.0
H1185 H 0.75333 0.81529 0.91593 0.0
H1186 H 0.79488 0.7975 0.84696 0.0
H1187 H 0.81352 0.7705 0.75739 0.0
H1188 H 0.74973 0.72955 0.65713 0.0
H1189 H 0.70821 0.74699 0.72649 0.0
C1190 C 0.71259 0.7793 0.82253 0.0
C1191 C 0.71813 0.79618 0.8713 0.0
C1192 C 0.73655 0.76897 0.78246 0.0
C1193 C 0.74817 0.8024 0.87912 0.0
C1194 C 0.77205 0.79221 0.83953 0.0
C1195 C 0.79055 0.76532 0.75065 0.0
C1196 C 0.78498 0.74862 0.70169 0.0
C1197 C 0.76657 0.77551 0.79094 0.0
C1198 C 0.75491 0.74226 0.69411 0.0
C1199 C 0.73105 0.75228 0.73389 0.0
H1200 H 0.73471 0.31632 0.20384 0.0
H1201 H 0.73334 0.2225 0.1543 0.0
H1202 H 0.75429 0.21219 0.23672 0.0
H1203 H 0.77227 0.22981 0.32449 0.0
H1204 H 0.77327 0.3236 0.37387 0.0
H1205 H 0.75353 0.33406 0.2902 0.0
C1206 C 0.73869 0.29361 0.21153 0.0
C1207 C 0.73237 0.27023 0.17314 0.0
C1208 C 0.751 0.28789 0.25881 0.0
C1209 C 0.73817 0.24093 0.18309 0.0
C1210 C 0.75017 0.23501 0.23021 0.0
C1211 C 0.76862 0.25255 0.31623 0.0
C1212 C 0.7742 0.27589 0.3552 0.0
C1213 C 0.7568 0.25833 0.26832 0.0
C1214 C 0.76895 0.30525 0.34456 0.0
C1215 C 0.75759 0.31123 0.29683 0.0
H1216 H 0.03516 0.02319 0.91694 0.0
H1217 H 0.02159 0.10538 1.01518 0.0
H1218 H 0.99354 0.0769 0.09528 0.0
H1219 H 0.9722 0.0283 0.13822 0.0
H1220 H 0.9858 0.9464 0.03876 0.0
H1221 H 0.01415 0.97495 0.95958 0.0
C1222 C 0.02612 0.03489 0.95586 0.0
C1223 C 0.03057 0.06644 0.95961 0.0
C1224 C 0.00982 1.01835 1.00211 0.0
C1225 C 0.01857 0.08112 1.01067 0.0
C1226 C 0.00246 0.06482 0.05677 0.0
C1227 C 0.98139 1.01673 0.09927 0.0
C1228 C 0.97669 0.98516 0.09494 0.0
C1229 C 0.99783 0.03338 0.05309 0.0
C1230 C 0.98887 0.97064 0.0438 0.0
C1231 C 0.0052 0.98696 0.99814 0.0
H1232 H 0.51818 0.08028 0.56683 0.0
H1233 H 0.53061 1.00415 0.65983 0.0
H1234 H 0.50689 0.97031 0.59417 0.0
H1235 H 0.48314 0.96226 0.51067 0.0
H1236 H 0.47099 0.03788 0.41612 0.0
H1237 H 0.4942 0.07208 0.48245 0.0
C1238 C 0.51569 0.05626 0.57308 0.0
C1239 C 0.52625 0.04488 0.61884 0.0
C1240 C 0.50213 0.03689 0.53481 0.0
C1241 C 0.52279 1.01366 0.6255 0.0
C1242 C 0.5092 0.99429 0.5878 0.0
C1243 C 0.48542 0.98624 0.50418 0.0
C1244 C 0.47513 0.99735 0.4579 0.0
C1245 C 0.49886 1.00565 0.54233 0.0
C1246 C 0.47856 0.02857 0.45093 0.0
C1247 C 0.49187 0.04811 0.48899 0.0
loop_
_geom_bond_atom_site_label_1
_geom_bond_atom_site_label_2
_geom_bond_distance
_geom_bond_site_symmetry_2
_ccdc_geom_bond_type
Co0 N5 2.057 1_554 S
Co0 O17 2.021 . S
Co0 O20 2.062 . S
Co0 O24 2.117 1_554 S
Co0 O25 2.020 1_554 S
C1 O21 1.259 1_556 S
C1 O24 1.258 . S
Co2 N11 2.057 . S
Co2 O18 2.117 . S
Co2 O19 2.020 . S
Co2 O21 2.021 . S
Co2 O26 2.062 1_554 S
C3 N5 1.316 . S
C3 N6 1.347 . S
C3 H8 0.931 1_556 S
C4 N5 1.375 . S
C4 C7 1.350 . S
C4 H9 0.930 . S
N5 Co0 2.057 1_556 S
N5 C3 1.316 . S
N5 C4 1.375 . S
N6 C3 1.347 . S
N6 C7 1.373 . S
C7 C4 1.350 . S
C7 N6 1.373 . S
C7 H28 0.931 . S
H8 C3 0.931 1_554 S
H9 C4 0.930 . S
C10 O17 1.259 . S
C10 O18 1.258 . S
N11 Co2 2.057 . S
N11 C12 1.316 . S
N11 C13 1.375 . S
C12 N11 1.316 . S
C12 N14 1.347 . S
C12 H23 0.931 . S
C13 N11 1.375 . S
C13 C15 1.350 . S
C13 H22 0.930 . S
N14 C12 1.347 . S
N14 C15 1.373 . S
C15 C13 1.350 . S
C15 N14 1.373 . S
C15 H29 0.931 . S
C16 O19 1.256 . S
C16 O20 1.255 . S
O17 Co0 2.021 . S
O17 C10 1.259 . S
O18 Co2 2.117 . S
O18 C10 1.258 . S
O19 Co2 2.020 . S
O19 C16 1.256 . S
O20 Co0 2.062 . S
O20 C16 1.255 . S
O21 C1 1.259 1_554 S
O21 Co2 2.021 . S
H22 C13 0.930 . S
H23 C12 0.931 . S
O24 Co0 2.117 1_556 S
O24 C1 1.258 . S
O25 Co0 2.020 1_556 S
O25 C27 1.256 . S
O26 Co2 2.062 1_556 S
O26 C27 1.255 . S
C27 O25 1.256 . S
C27 O26 1.255 . S
H28 C7 0.931 . S
H29 C15 0.931 . S
Co30 N35 2.057 . S
Co30 O47 2.021 . S
Co30 O50 2.062 . S
Co30 O54 2.117 . S
Co30 O55 2.020 . S
C31 O51 1.259 . S
C31 O54 1.258 . S
Co32 N41 2.057 . S
Co32 O48 2.117 . S
Co32 O49 2.020 . S
Co32 O51 2.021 . S
Co32 O56 2.062 . S
C33 N35 1.316 . S
C33 N36 1.347 . S
C33 H38 0.931 . S
C34 N35 1.375 . S
C34 C37 1.350 . S
C34 H39 0.930 . S
N35 Co30 2.057 . S
N35 C33 1.316 . S
N35 C34 1.375 . S
N36 C33 1.347 . S
N36 C37 1.373 . S
C37 C34 1.350 . S
C37 N36 1.373 . S
C37 H58 0.931 . S
H38 C33 0.931 . S
H39 C34 0.930 . S
C40 O47 1.259 . S
C40 O48 1.258 . S
N41 Co32 2.057 . S
N41 C42 1.316 . S
N41 C43 1.375 . S
C42 N41 1.316 . S
C42 N44 1.347 . S
C42 H53 0.931 . S
C43 N41 1.375 . S
C43 C45 1.350 . S
C43 H52 0.930 . S
N44 C42 1.347 . S
N44 C45 1.373 . S
C45 C43 1.350 . S
C45 N44 1.373 . S
C45 H59 0.931 . S
C46 O49 1.256 . S
C46 O50 1.255 . S
O47 Co30 2.021 . S
O47 C40 1.259 . S
O48 Co32 2.117 . S
O48 C40 1.258 . S
O49 Co32 2.020 . S
O49 C46 1.256 . S
O50 Co30 2.062 . S
O50 C46 1.255 . S
O51 C31 1.259 . S
O51 Co32 2.021 . S
H52 C43 0.930 . S
H53 C42 0.931 . S
O54 Co30 2.117 . S
O54 C31 1.258 . S
O55 Co30 2.020 . S
O55 C57 1.256 . S
O56 Co32 2.062 . S
O56 C57 1.255 . S
C57 O55 1.256 . S
C57 O56 1.255 . S
H58 C37 0.931 . S
H59 C45 0.931 . S
Co60 N65 2.057 . S
Co60 O77 2.021 . S
Co60 O80 2.062 . S
Co60 O84 2.117 . S
Co60 O85 2.020 . S
C61 O81 1.259 . S
C61 O84 1.258 . S
Co62 N71 2.057 . S
Co62 O78 2.117 . S
Co62 O79 2.020 . S
Co62 O81 2.021 . S
Co62 O86 2.062 . S
C63 N65 1.316 . S
C63 N66 1.347 . S
C63 H68 0.931 . S
C64 N65 1.375 . S
C64 C67 1.350 . S
C64 H69 0.930 . S
N65 Co60 2.057 . S
N65 C63 1.316 . S
N65 C64 1.375 . S
N66 C63 1.347 . S
N66 C67 1.373 . S
C67 C64 1.350 . S
C67 N66 1.373 . S
C67 H88 0.931 . S
H68 C63 0.931 . S
H69 C64 0.930 . S
C70 O77 1.259 . S
C70 O78 1.258 . S
N71 Co62 2.057 . S
N71 C72 1.316 . S
N71 C73 1.375 . S
C72 N71 1.316 . S
C72 N74 1.347 . S
C72 H83 0.931 . S
C73 N71 1.375 . S
C73 C75 1.350 . S
C73 H82 0.930 . S
N74 C72 1.347 . S
N74 C75 1.373 . S
C75 C73 1.350 . S
C75 N74 1.373 . S
C75 H89 0.931 . S
C76 O79 1.256 . S
C76 O80 1.255 . S
O77 Co60 2.021 . S
O77 C70 1.259 . S
O78 Co62 2.117 . S
O78 C70 1.258 . S
O79 Co62 2.020 . S
O79 C76 1.256 . S
O80 Co60 2.062 . S
O80 C76 1.255 . S
O81 C61 1.259 . S
O81 Co62 2.021 . S
H82 C73 0.930 . S
H83 C72 0.931 . S
O84 Co60 2.117 . S
O84 C61 1.258 . S
O85 Co60 2.020 . S
O85 C87 1.256 . S
O86 Co62 2.062 . S
O86 C87 1.255 . S
C87 O85 1.256 . S
C87 O86 1.255 . S
H88 C67 0.931 . S
H89 C75 0.931 . S
Co90 N95 2.057 . S
Co90 O107 2.021 . S
Co90 O110 2.062 . S
Co90 O114 2.117 . S
Co90 O115 2.020 . S
C91 O111 1.259 . S
C91 O114 1.258 . S
Co92 N101 2.057 . S
Co92 O108 2.117 . S
Co92 O109 2.020 . S
Co92 O111 2.021 . S
Co92 O116 2.062 . S
C93 N95 1.316 . S
C93 N96 1.347 . S
C93 H98 0.931 . S
C94 N95 1.375 . S
C94 C97 1.350 . S
C94 H99 0.930 . S
N95 Co90 2.057 . S
N95 C93 1.316 . S
N95 C94 1.375 . S
N96 C93 1.347 . S
N96 C97 1.373 . S
C97 C94 1.350 . S
C97 N96 1.373 . S
C97 H118 0.931 . S
H98 C93 0.931 . S
H99 C94 0.930 . S
C100 O107 1.259 . S
C100 O108 1.258 . S
N101 Co92 2.057 . S
N101 C102 1.316 . S
N101 C103 1.375 . S
C102 N101 1.316 . S
C102 N104 1.347 . S
C102 H113 0.931 . S
C103 N101 1.375 . S
C103 C105 1.350 . S
C103 H112 0.930 . S
N104 C102 1.347 . S
N104 C105 1.373 . S
C105 C103 1.350 . S
C105 N104 1.373 . S
C105 H119 0.931 . S
C106 O109 1.256 . S
C106 O110 1.255 . S
O107 Co90 2.021 . S
O107 C100 1.259 . S
O108 Co92 2.117 . S
O108 C100 1.258 . S
O109 Co92 2.020 . S
O109 C106 1.256 . S
O110 Co90 2.062 . S
O110 C106 1.255 . S
O111 C91 1.259 . S
O111 Co92 2.021 . S
H112 C103 0.930 . S
H113 C102 0.931 . S
O114 Co90 2.117 . S
O114 C91 1.258 . S
O115 Co90 2.020 . S
O115 C117 1.256 . S
O116 Co92 2.062 . S
O116 C117 1.255 . S
C117 O115 1.256 . S
C117 O116 1.255 . S
H118 C97 0.931 . S
H119 C105 0.931 . S
Co120 N125 2.057 . S
Co120 O137 2.021 . S
Co120 O140 2.062 1_556 S
Co120 O144 2.117 . S
Co120 O145 2.020 . S
C121 O141 1.259 . S
C121 O144 1.258 . S
Co122 N131 2.057 1_556 S
Co122 O138 2.117 1_556 S
Co122 O139 2.020 1_556 S
Co122 O141 2.021 . S
Co122 O146 2.062 . S
C123 N125 1.316 . S
C123 N126 1.347 . S
C123 H128 0.931 . S
C124 N125 1.375 . S
C124 C127 1.350 . S
C124 H129 0.930 . S
N125 Co120 2.057 . S
N125 C123 1.316 . S
N125 C124 1.375 . S
N126 C123 1.347 . S
N126 C127 1.373 . S
C127 C124 1.350 . S
C127 N126 1.373 . S
C127 H148 0.931 . S
H128 C123 0.931 . S
H129 C124 0.930 . S
C130 O137 1.259 1_554 S
C130 O138 1.258 . S
N131 Co122 2.057 1_554 S
N131 C132 1.316 . S
N131 C133 1.375 . S
C132 N131 1.316 . S
C132 N134 1.347 . S
C132 H143 0.931 1_554 S
C133 N131 1.375 . S
C133 C135 1.350 . S
C133 H142 0.930 . S
N134 C132 1.347 . S
N134 C135 1.373 . S
C135 C133 1.350 . S
C135 N134 1.373 . S
C135 H149 0.931 . S
C136 O139 1.256 . S
C136 O140 1.255 . S
O137 Co120 2.021 . S
O137 C130 1.259 1_556 S
O138 Co122 2.117 1_554 S
O138 C130 1.258 . S
O139 Co122 2.020 1_554 S
O139 C136 1.256 . S
O140 Co120 2.062 1_554 S
O140 C136 1.255 . S
O141 C121 1.259 . S
O141 Co122 2.021 . S
H142 C133 0.930 . S
H143 C132 0.931 1_556 S
O144 Co120 2.117 . S
O144 C121 1.258 . S
O145 Co120 2.020 . S
O145 C147 1.256 . S
O146 Co122 2.062 . S
O146 C147 1.255 . S
C147 O145 1.256 . S
C147 O146 1.255 . S
H148 C127 0.931 . S
H149 C135 0.931 . S
Co150 N155 2.057 . S
Co150 O167 2.021 . S
Co150 O170 2.062 . S
Co150 O174 2.117 . S
Co150 O175 2.020 . S
C151 O171 1.259 . S
C151 O174 1.258 . S
Co152 N161 2.057 . S
Co152 O168 2.117 . S
Co152 O169 2.020 . S
Co152 O171 2.021 . S
Co152 O176 2.062 . S
C153 N155 1.316 . S
C153 N156 1.347 . S
C153 H158 0.931 . S
C154 N155 1.375 . S
C154 C157 1.350 . S
C154 H159 0.930 . S
N155 Co150 2.057 . S
N155 C153 1.316 . S
N155 C154 1.375 . S
N156 C153 1.347 . S
N156 C157 1.373 . S
C157 C154 1.350 . S
C157 N156 1.373 . S
C157 H178 0.931 . S
H158 C153 0.931 . S
H159 C154 0.930 . S
C160 O167 1.259 . S
C160 O168 1.258 . S
N161 Co152 2.057 . S
N161 C162 1.316 . S
N161 C163 1.375 . S
C162 N161 1.316 . S
C162 N164 1.347 . S
C162 H173 0.931 . S
C163 N161 1.375 . S
C163 C165 1.350 . S
C163 H172 0.930 . S
N164 C162 1.347 . S
N164 C165 1.373 . S
C165 C163 1.350 . S
C165 N164 1.373 . S
C165 H179 0.931 . S
C166 O169 1.256 . S
C166 O170 1.255 . S
O167 Co150 2.021 . S
O167 C160 1.259 . S
O168 Co152 2.117 . S
O168 C160 1.258 . S
O169 Co152 2.020 . S
O169 C166 1.256 . S
O170 Co150 2.062 . S
O170 C166 1.255 . S
O171 C151 1.259 . S
O171 Co152 2.021 . S
H172 C163 0.930 . S
H173 C162 0.931 . S
O174 Co150 2.117 . S
O174 C151 1.258 . S
O175 Co150 2.020 . S
O175 C177 1.256 . S
O176 Co152 2.062 . S
O176 C177 1.255 . S
C177 O175 1.256 . S
C177 O176 1.255 . S
H178 C157 0.931 . S
H179 C165 0.931 . S
Co180 N185 2.057 . S
Co180 O197 2.021 . S
Co180 O200 2.062 . S
Co180 O204 2.117 . S
Co180 O205 2.020 . S
C181 O201 1.259 . S
C181 O204 1.258 . S
Co182 N191 2.057 . S
Co182 O198 2.117 . S
Co182 O199 2.020 . S
Co182 O201 2.021 . S
Co182 O206 2.062 . S
C183 N185 1.316 . S
C183 N186 1.347 . S
C183 H188 0.931 . S
C184 N185 1.375 . S
C184 C187 1.350 . S
C184 H189 0.930 . S
N185 Co180 2.057 . S
N185 C183 1.316 . S
N185 C184 1.375 . S
N186 C183 1.347 . S
N186 C187 1.373 . S
C187 C184 1.350 . S
C187 N186 1.373 . S
C187 H208 0.931 . S
H188 C183 0.931 . S
H189 C184 0.930 . S
C190 O197 1.259 . S
C190 O198 1.258 . S
N191 Co182 2.057 . S
N191 C192 1.316 . S
N191 C193 1.375 . S
C192 N191 1.316 . S
C192 N194 1.347 . S
C192 H203 0.931 . S
C193 N191 1.375 . S
C193 C195 1.350 . S
C193 H202 0.930 . S
N194 C192 1.347 . S
N194 C195 1.373 . S
C195 C193 1.350 . S
C195 N194 1.373 . S
C195 H209 0.931 . S
C196 O199 1.256 . S
C196 O200 1.255 . S
O197 Co180 2.021 . S
O197 C190 1.259 . S
O198 Co182 2.117 . S
O198 C190 1.258 . S
O199 Co182 2.020 . S
O199 C196 1.256 . S
O200 Co180 2.062 . S
O200 C196 1.255 . S
O201 C181 1.259 . S
O201 Co182 2.021 . S
H202 C193 0.930 . S
H203 C192 0.931 . S
O204 Co180 2.117 . S
O204 C181 1.258 . S
O205 Co180 2.020 . S
O205 C207 1.256 . S
O206 Co182 2.062 . S
O206 C207 1.255 . S
C207 O205 1.256 . S
C207 O206 1.255 . S
H208 C187 0.931 . S
H209 C195 0.931 . S
Co210 N215 2.057 . S
Co210 O227 2.021 . S
Co210 O230 2.062 . S
Co210 O234 2.117 . S
Co210 O235 2.020 . S
C211 O231 1.259 . S
C211 O234 1.258 . S
Co212 N221 2.057 . S
Co212 O228 2.117 . S
Co212 O229 2.020 . S
Co212 O231 2.021 . S
Co212 O236 2.062 . S
C213 N215 1.316 . S
C213 N216 1.347 . S
C213 H218 0.931 . S
C214 N215 1.375 . S
C214 C217 1.350 . S
C214 H219 0.930 . S
N215 Co210 2.057 . S
N215 C213 1.316 . S
N215 C214 1.375 . S
N216 C213 1.347 . S
N216 C217 1.373 . S
C217 C214 1.350 . S
C217 N216 1.373 . S
C217 H238 0.931 . S
H218 C213 0.931 . S
H219 C214 0.930 . S
C220 O227 1.259 . S
C220 O228 1.258 . S
N221 Co212 2.057 . S
N221 C222 1.316 . S
N221 C223 1.375 . S
C222 N221 1.316 . S
C222 N224 1.347 . S
C222 H233 0.931 . S
C223 N221 1.375 . S
C223 C225 1.350 . S
C223 H232 0.930 . S
N224 C222 1.347 . S
N224 C225 1.373 . S
C225 C223 1.350 . S
C225 N224 1.373 . S
C225 H239 0.931 . S
C226 O229 1.256 . S
C226 O230 1.255 . S
O227 Co210 2.021 . S
O227 C220 1.259 . S
O228 Co212 2.117 . S
O228 C220 1.258 . S
O229 Co212 2.020 . S
O229 C226 1.256 . S
O230 Co210 2.062 . S
O230 C226 1.255 . S
O231 C211 1.259 . S
O231 Co212 2.021 . S
H232 C223 0.930 . S
H233 C222 0.931 . S
O234 Co210 2.117 . S
O234 C211 1.258 . S
O235 Co210 2.020 . S
O235 C237 1.256 . S
O236 Co212 2.062 . S
O236 C237 1.255 . S
C237 O235 1.256 . S
C237 O236 1.255 . S
H238 C217 0.931 . S
H239 C225 0.931 . S
Co240 N245 2.057 . S
Co240 O257 2.021 . S
Co240 O260 2.062 . S
Co240 O264 2.117 . S
Co240 O265 2.020 . S
C241 O261 1.259 . S
C241 O264 1.258 . S
Co242 N251 2.057 . S
Co242 O258 2.117 . S
Co242 O259 2.020 . S
Co242 O261 2.021 . S
Co242 O266 2.062 . S
C243 N245 1.316 . S
C243 N246 1.347 . S
C243 H248 0.931 . S
C244 N245 1.375 . S
C244 C247 1.350 . S
C244 H249 0.930 . S
N245 Co240 2.057 . S
N245 C243 1.316 . S
N245 C244 1.375 . S
N246 C243 1.347 . S
N246 C247 1.373 . S
C247 C244 1.350 . S
C247 N246 1.373 . S
C247 H268 0.931 . S
H248 C243 0.931 . S
H249 C244 0.930 . S
C250 O257 1.259 . S
C250 O258 1.258 . S
N251 Co242 2.057 . S
N251 C252 1.316 . S
N251 C253 1.375 . S
C252 N251 1.316 . S
C252 N254 1.347 . S
C252 H263 0.931 . S
C253 N251 1.375 . S
C253 C255 1.350 . S
C253 H262 0.930 . S
N254 C252 1.347 . S
N254 C255 1.373 . S
C255 C253 1.350 . S
C255 N254 1.373 . S
C255 H269 0.931 . S
C256 O259 1.256 . S
C256 O260 1.255 . S
O257 Co240 2.021 . S
O257 C250 1.259 . S
O258 Co242 2.117 . S
O258 C250 1.258 . S
O259 Co242 2.020 . S
O259 C256 1.256 . S
O260 Co240 2.062 . S
O260 C256 1.255 . S
O261 C241 1.259 . S
O261 Co242 2.021 . S
H262 C253 0.930 . S
H263 C252 0.931 . S
O264 Co240 2.117 . S
O264 C241 1.258 . S
O265 Co240 2.020 . S
O265 C267 1.256 . S
O266 Co242 2.062 . S
O266 C267 1.255 . S
C267 O265 1.256 . S
C267 O266 1.255 . S
H268 C247 0.931 . S
H269 C255 0.931 . S
Co270 N275 2.057 . S
Co270 O287 2.021 . S
Co270 O290 2.062 . S
Co270 O294 2.117 . S
Co270 O295 2.020 . S
C271 O291 1.259 . S
C271 O294 1.258 . S
Co272 N281 2.057 . S
Co272 O288 2.117 . S
Co272 O289 2.020 . S
Co272 O291 2.021 . S
Co272 O296 2.062 . S
C273 N275 1.316 . S
C273 N276 1.347 1_545 S
C273 H278 0.931 . S
C274 N275 1.375 . S
C274 C277 1.350 1_545 S
C274 H279 0.930 . S
N275 Co270 2.057 . S
N275 C273 1.316 . S
N275 C274 1.375 . S
N276 C273 1.347 1_565 S
N276 C277 1.373 . S
C277 C274 1.350 1_565 S
C277 N276 1.373 . S
C277 H298 0.931 . S
H278 C273 0.931 . S
H279 C274 0.930 . S
C280 O287 1.259 . S
C280 O288 1.258 . S
N281 Co272 2.057 . S
N281 C282 1.316 . S
N281 C283 1.375 . S
C282 N281 1.316 . S
C282 N284 1.347 . S
C282 H293 0.931 . S
C283 N281 1.375 . S
C283 C285 1.350 . S
C283 H292 0.930 . S
N284 C282 1.347 . S
N284 C285 1.373 . S
C285 C283 1.350 . S
C285 N284 1.373 . S
C285 H299 0.931 . S
C286 O289 1.256 . S
C286 O290 1.255 . S
O287 Co270 2.021 . S
O287 C280 1.259 . S
O288 Co272 2.117 . S
O288 C280 1.258 . S
O289 Co272 2.020 . S
O289 C286 1.256 . S
O290 Co270 2.062 . S
O290 C286 1.255 . S
O291 C271 1.259 . S
O291 Co272 2.021 . S
H292 C283 0.930 . S
H293 C282 0.931 . S
O294 Co270 2.117 . S
O294 C271 1.258 . S
O295 Co270 2.020 . S
O295 C297 1.256 . S
O296 Co272 2.062 . S
O296 C297 1.255 . S
C297 O295 1.256 . S
C297 O296 1.255 . S
H298 C277 0.931 . S
H299 C285 0.931 . S
Co300 N305 2.057 . S
Co300 O317 2.021 . S
Co300 O320 2.062 . S
Co300 O324 2.117 1_556 S
Co300 O325 2.020 . S
C301 O321 1.259 . S
C301 O324 1.258 . S
Co302 N311 2.057 . S
Co302 O318 2.117 1_554 S
Co302 O319 2.020 . S
Co302 O321 2.021 . S
Co302 O326 2.062 . S
C303 N305 1.316 . S
C303 N306 1.347 . S
C303 H308 0.931 . S
C304 N305 1.375 . S
C304 C307 1.350 . S
C304 H309 0.930 . S
N305 Co300 2.057 . S
N305 C303 1.316 . S
N305 C304 1.375 . S
N306 C303 1.347 . S
N306 C307 1.373 . S
C307 C304 1.350 . S
C307 N306 1.373 . S
C307 H328 0.931 . S
H308 C303 0.931 . S
H309 C304 0.930 . S
C310 O317 1.259 . S
C310 O318 1.258 . S
N311 Co302 2.057 . S
N311 C312 1.316 . S
N311 C313 1.375 . S
C312 N311 1.316 . S
C312 N314 1.347 . S
C312 H323 0.931 . S
C313 N311 1.375 . S
C313 C315 1.350 . S
C313 H322 0.930 . S
N314 C312 1.347 . S
N314 C315 1.373 . S
C315 C313 1.350 . S
C315 N314 1.373 . S
C315 H329 0.931 . S
C316 O319 1.256 . S
C316 O320 1.255 1_554 S
O317 Co300 2.021 . S
O317 C310 1.259 . S
O318 Co302 2.117 1_556 S
O318 C310 1.258 . S
O319 Co302 2.020 . S
O319 C316 1.256 . S
O320 Co300 2.062 . S
O320 C316 1.255 1_556 S
O321 C301 1.259 . S
O321 Co302 2.021 . S
H322 C313 0.930 . S
H323 C312 0.931 . S
O324 Co300 2.117 1_554 S
O324 C301 1.258 . S
O325 Co300 2.020 . S
O325 C327 1.256 . S
O326 Co302 2.062 . S
O326 C327 1.255 1_554 S
C327 O325 1.256 . S
C327 O326 1.255 1_556 S
H328 C307 0.931 . S
H329 C315 0.931 . S
Co330 N335 2.057 . S
Co330 O347 2.021 . S
Co330 O350 2.062 . S
Co330 O354 2.117 . S
Co330 O355 2.020 . S
C331 O351 1.259 . S
C331 O354 1.258 . S
Co332 N341 2.057 . S
Co332 O348 2.117 . S
Co332 O349 2.020 . S
Co332 O351 2.021 . S
Co332 O356 2.062 . S
C333 N335 1.316 . S
C333 N336 1.347 1_565 S
C333 H338 0.931 . S
C334 N335 1.375 . S
C334 C337 1.350 . S
C334 H339 0.930 . S
N335 Co330 2.057 . S
N335 C333 1.316 . S
N335 C334 1.375 . S
N336 C333 1.347 1_545 S
N336 C337 1.373 1_545 S
C337 C334 1.350 . S
C337 N336 1.373 1_565 S
C337 H358 0.931 1_565 S
H338 C333 0.931 . S
H339 C334 0.930 . S
C340 O347 1.259 . S
C340 O348 1.258 . S
N341 Co332 2.057 . S
N341 C342 1.316 . S
N341 C343 1.375 . S
C342 N341 1.316 . S
C342 N344 1.347 . S
C342 H353 0.931 . S
C343 N341 1.375 . S
C343 C345 1.350 . S
C343 H352 0.930 . S
N344 C342 1.347 . S
N344 C345 1.373 . S
C345 C343 1.350 . S
C345 N344 1.373 . S
C345 H359 0.931 . S
C346 O349 1.256 . S
C346 O350 1.255 . S
O347 Co330 2.021 . S
O347 C340 1.259 . S
O348 Co332 2.117 . S
O348 C340 1.258 . S
O349 Co332 2.020 . S
O349 C346 1.256 . S
O350 Co330 2.062 . S
O350 C346 1.255 . S
O351 C331 1.259 . S
O351 Co332 2.021 . S
H352 C343 0.930 . S
H353 C342 0.931 . S
O354 Co330 2.117 . S
O354 C331 1.258 . S
O355 Co330 2.020 . S
O355 C357 1.256 . S
O356 Co332 2.062 . S
O356 C357 1.255 . S
C357 O355 1.256 . S
C357 O356 1.255 . S
H358 C337 0.931 1_545 S
H359 C345 0.931 . S
Co360 N365 2.057 . S
Co360 O377 2.021 . S
Co360 O380 2.062 . S
Co360 O384 2.117 . S
Co360 O385 2.020 . S
C361 O381 1.259 . S
C361 O384 1.258 . S
Co362 N371 2.057 . S
Co362 O378 2.117 . S
Co362 O379 2.020 . S
Co362 O381 2.021 . S
Co362 O386 2.062 . S
C363 N365 1.316 . S
C363 N366 1.347 . S
C363 H368 0.931 . S
C364 N365 1.375 . S
C364 C367 1.350 . S
C364 H369 0.930 . S
N365 Co360 2.057 . S
N365 C363 1.316 . S
N365 C364 1.375 . S
N366 C363 1.347 . S
N366 C367 1.373 . S
C367 C364 1.350 . S
C367 N366 1.373 . S
C367 H388 0.931 . S
H368 C363 0.931 . S
H369 C364 0.930 . S
C370 O377 1.259 . S
C370 O378 1.258 . S
N371 Co362 2.057 . S
N371 C372 1.316 . S
N371 C373 1.375 . S
C372 N371 1.316 . S
C372 N374 1.347 . S
C372 H383 0.931 . S
C373 N371 1.375 . S
C373 C375 1.350 . S
C373 H382 0.930 . S
N374 C372 1.347 . S
N374 C375 1.373 . S
C375 C373 1.350 . S
C375 N374 1.373 . S
C375 H389 0.931 . S
C376 O379 1.256 . S
C376 O380 1.255 . S
O377 Co360 2.021 . S
O377 C370 1.259 . S
O378 Co362 2.117 . S
O378 C370 1.258 . S
O379 Co362 2.020 . S
O379 C376 1.256 . S
O380 Co360 2.062 . S
O380 C376 1.255 . S
O381 C361 1.259 . S
O381 Co362 2.021 . S
H382 C373 0.930 . S
H383 C372 0.931 . S
O384 Co360 2.117 . S
O384 C361 1.258 . S
O385 Co360 2.020 . S
O385 C387 1.256 . S
O386 Co362 2.062 . S
O386 C387 1.255 . S
C387 O385 1.256 . S
C387 O386 1.255 . S
H388 C367 0.931 . S
H389 C375 0.931 . S
Co390 N395 2.057 . S
Co390 O407 2.021 . S
Co390 O410 2.062 . S
Co390 O414 2.117 . S
Co390 O415 2.020 . S
C391 O411 1.259 . S
C391 O414 1.258 . S
Co392 N401 2.057 . S
Co392 O408 2.117 . S
Co392 O409 2.020 . S
Co392 O411 2.021 . S
Co392 O416 2.062 . S
C393 N395 1.316 . S
C393 N396 1.347 . S
C393 H398 0.931 . S
C394 N395 1.375 . S
C394 C397 1.350 . S
C394 H399 0.930 . S
N395 Co390 2.057 . S
N395 C393 1.316 . S
N395 C394 1.375 . S
N396 C393 1.347 . S
N396 C397 1.373 . S
C397 C394 1.350 . S
C397 N396 1.373 . S
C397 H418 0.931 . S
H398 C393 0.931 . S
H399 C394 0.930 . S
C400 O407 1.259 . S
C400 O408 1.258 . S
N401 Co392 2.057 . S
N401 C402 1.316 . S
N401 C403 1.375 . S
C402 N401 1.316 . S
C402 N404 1.347 1_565 S
C402 H413 0.931 . S
C403 N401 1.375 . S
C403 C405 1.350 1_565 S
C403 H412 0.930 . S
N404 C402 1.347 1_545 S
N404 C405 1.373 . S
C405 C403 1.350 1_545 S
C405 N404 1.373 . S
C405 H419 0.931 . S
C406 O409 1.256 . S
C406 O410 1.255 . S
O407 Co390 2.021 . S
O407 C400 1.259 . S
O408 Co392 2.117 . S
O408 C400 1.258 . S
O409 Co392 2.020 . S
O409 C406 1.256 . S
O410 Co390 2.062 . S
O410 C406 1.255 . S
O411 C391 1.259 . S
O411 Co392 2.021 . S
H412 C403 0.930 . S
H413 C402 0.931 . S
O414 Co390 2.117 . S
O414 C391 1.258 . S
O415 Co390 2.020 . S
O415 C417 1.256 . S
O416 Co392 2.062 . S
O416 C417 1.255 . S
C417 O415 1.256 . S
C417 O416 1.255 . S
H418 C397 0.931 . S
H419 C405 0.931 . S
Co420 N425 2.057 . S
Co420 O437 2.021 . S
Co420 O440 2.062 . S
Co420 O444 2.117 1_556 S
Co420 O445 2.020 . S
C421 O441 1.259 . S
C421 O444 1.258 . S
Co422 N431 2.057 . S
Co422 O438 2.117 1_554 S
Co422 O439 2.020 . S
Co422 O441 2.021 . S
Co422 O446 2.062 . S
C423 N425 1.316 . S
C423 N426 1.347 . S
C423 H428 0.931 . S
C424 N425 1.375 . S
C424 C427 1.350 . S
C424 H429 0.930 . S
N425 Co420 2.057 . S
N425 C423 1.316 . S
N425 C424 1.375 . S
N426 C423 1.347 . S
N426 C427 1.373 . S
C427 C424 1.350 . S
C427 N426 1.373 . S
C427 H448 0.931 . S
H428 C423 0.931 . S
H429 C424 0.930 . S
C430 O437 1.259 . S
C430 O438 1.258 . S
N431 Co422 2.057 . S
N431 C432 1.316 . S
N431 C433 1.375 . S
C432 N431 1.316 . S
C432 N434 1.347 . S
C432 H443 0.931 . S
C433 N431 1.375 . S
C433 C435 1.350 . S
C433 H442 0.930 . S
N434 C432 1.347 . S
N434 C435 1.373 . S
C435 C433 1.350 . S
C435 N434 1.373 . S
C435 H449 0.931 . S
C436 O439 1.256 . S
C436 O440 1.255 1_554 S
O437 Co420 2.021 . S
O437 C430 1.259 . S
O438 Co422 2.117 1_556 S
O438 C430 1.258 . S
O439 Co422 2.020 . S
O439 C436 1.256 . S
O440 Co420 2.062 . S
O440 C436 1.255 1_556 S
O441 C421 1.259 . S
O441 Co422 2.021 . S
H442 C433 0.930 . S
H443 C432 0.931 . S
O444 Co420 2.117 1_554 S
O444 C421 1.258 . S
O445 Co420 2.020 . S
O445 C447 1.256 . S
O446 Co422 2.062 . S
O446 C447 1.255 1_554 S
C447 O445 1.256 . S
C447 O446 1.255 1_556 S
H448 C427 0.931 . S
H449 C435 0.931 . S
Co450 N455 2.057 . S
Co450 O467 2.021 . S
Co450 O470 2.062 . S
Co450 O474 2.117 . S
Co450 O475 2.020 . S
C451 O471 1.259 . S
C451 O474 1.258 . S
Co452 N461 2.057 . S
Co452 O468 2.117 . S
Co452 O469 2.020 . S
Co452 O471 2.021 . S
Co452 O476 2.062 . S
C453 N455 1.316 . S
C453 N456 1.347 . S
C453 H458 0.931 . S
C454 N455 1.375 . S
C454 C457 1.350 . S
C454 H459 0.930 . S
N455 Co450 2.057 . S
N455 C453 1.316 . S
N455 C454 1.375 . S
N456 C453 1.347 . S
N456 C457 1.373 . S
C457 C454 1.350 . S
C457 N456 1.373 . S
C457 H478 0.931 . S
H458 C453 0.931 . S
H459 C454 0.930 . S
C460 O467 1.259 . S
C460 O468 1.258 . S
N461 Co452 2.057 . S
N461 C462 1.316 . S
N461 C463 1.375 . S
C462 N461 1.316 . S
C462 N464 1.347 1_545 S
C462 H473 0.931 . S
C463 N461 1.375 . S
C463 C465 1.350 . S
C463 H472 0.930 . S
N464 C462 1.347 1_565 S
N464 C465 1.373 1_565 S
C465 C463 1.350 . S
C465 N464 1.373 1_545 S
C465 H479 0.931 1_545 S
C466 O469 1.256 . S
C466 O470 1.255 . S
O467 Co450 2.021 . S
O467 C460 1.259 . S
O468 Co452 2.117 . S
O468 C460 1.258 . S
O469 Co452 2.020 . S
O469 C466 1.256 . S
O470 Co450 2.062 . S
O470 C466 1.255 . S
O471 C451 1.259 . S
O471 Co452 2.021 . S
H472 C463 0.930 . S
H473 C462 0.931 . S
O474 Co450 2.117 . S
O474 C451 1.258 . S
O475 Co450 2.020 . S
O475 C477 1.256 . S
O476 Co452 2.062 . S
O476 C477 1.255 . S
C477 O475 1.256 . S
C477 O476 1.255 . S
H478 C457 0.931 . S
H479 C465 0.931 1_565 S
H480 C486 0.930 . S
H481 C489 0.930 . S
H482 C490 0.930 . S
H483 C491 0.930 . S
H484 C494 0.930 1_556 S
H485 C495 0.930 1_556 S
C486 H480 0.930 . S
C486 C487 1.355 . S
C486 C488 1.415 . S
C487 C486 1.355 . S
C487 C489 1.419 . S
C488 C486 1.415 . S
C488 C493 1.425 . S
C488 C495 1.409 . S
C489 H481 0.930 . S
C489 C487 1.419 . S
C489 C490 1.362 . S
C490 H482 0.930 . S
C490 C489 1.362 . S
C490 C493 1.409 . S
C491 H483 0.930 . S
C491 C492 1.355 . S
C491 C493 1.415 . S
C492 C491 1.355 . S
C492 C494 1.419 . S
C493 C488 1.425 . S
C493 C490 1.409 . S
C493 C491 1.415 . S
C494 H484 0.930 1_554 S
C494 C492 1.419 . S
C494 C495 1.362 . S
C495 H485 0.930 1_554 S
C495 C488 1.409 . S
C495 C494 1.362 . S
H496 C502 0.930 . S
H497 C505 0.930 . S
H498 C506 0.930 . S
H499 C507 0.930 . S
H500 C510 0.930 . S
H501 C511 0.930 . S
C502 H496 0.930 . S
C502 C503 1.355 . S
C502 C504 1.415 . S
C503 C502 1.355 . S
C503 C505 1.419 . S
C504 C502 1.415 . S
C504 C509 1.425 . S
C504 C511 1.409 . S
C505 H497 0.930 . S
C505 C503 1.419 . S
C505 C506 1.362 . S
C506 H498 0.930 . S
C506 C505 1.362 . S
C506 C509 1.409 . S
C507 H499 0.930 . S
C507 C508 1.355 . S
C507 C509 1.415 . S
C508 C507 1.355 . S
C508 C510 1.419 . S
C509 C504 1.425 . S
C509 C506 1.409 . S
C509 C507 1.415 . S
C510 H500 0.930 . S
C510 C508 1.419 . S
C510 C511 1.362 . S
C511 H501 0.930 . S
C511 C504 1.409 . S
C511 C510 1.362 . S
H512 C518 0.930 . S
H513 C521 0.930 . S
H514 C522 0.930 . S
H515 C523 0.930 . S
H516 C526 0.930 . S
H517 C527 0.930 . S
C518 H512 0.930 . S
C518 C519 1.355 . S
C518 C520 1.415 . S
C519 C518 1.355 . S
C519 C521 1.419 . S
C520 C518 1.415 . S
C520 C525 1.425 . S
C520 C527 1.409 . S
C521 H513 0.930 . S
C521 C519 1.419 . S
C521 C522 1.362 . S
C522 H514 0.930 . S
C522 C521 1.362 . S
C522 C525 1.409 . S
C523 H515 0.930 . S
C523 C524 1.355 1_455 S
C523 C525 1.415 . S
C524 C523 1.355 1_655 S
C524 C526 1.419 . S
C525 C520 1.425 . S
C525 C522 1.409 . S
C525 C523 1.415 . S
C526 H516 0.930 . S
C526 C524 1.419 . S
C526 C527 1.362 1_655 S
C527 H517 0.930 . S
C527 C520 1.409 . S
C527 C526 1.362 1_455 S
H528 C534 0.930 . S
H529 C537 0.930 . S
H530 C538 0.930 1_554 S
H531 C539 0.930 . S
H532 C542 0.930 . S
H533 C543 0.930 . S
C534 H528 0.930 . S
C534 C535 1.355 . S
C534 C536 1.415 . S
C535 C534 1.355 . S
C535 C537 1.419 . S
C536 C534 1.415 . S
C536 C541 1.425 . S
C536 C543 1.409 1_655 S
C537 H529 0.930 . S
C537 C535 1.419 . S
C537 C538 1.362 . S
C538 H530 0.930 1_556 S
C538 C537 1.362 . S
C538 C541 1.409 . S
C539 H531 0.930 . S
C539 C540 1.355 1_655 S
C539 C541 1.415 . S
C540 C539 1.355 1_455 S
C540 C542 1.419 . S
C541 C536 1.425 . S
C541 C538 1.409 . S
C541 C539 1.415 . S
C542 H532 0.930 . S
C542 C540 1.419 . S
C542 C543 1.362 . S
C543 H533 0.930 . S
C543 C536 1.409 1_455 S
C543 C542 1.362 . S
H544 C550 0.930 . S
H545 C553 0.930 . S
H546 C554 0.930 . S
H547 C555 0.930 . S
H548 C558 0.930 . S
H549 C559 0.930 . S
C550 H544 0.930 . S
C550 C551 1.355 . S
C550 C552 1.415 . S
C551 C550 1.355 . S
C551 C553 1.419 . S
C552 C550 1.415 . S
C552 C557 1.425 . S
C552 C559 1.409 . S
C553 H545 0.930 . S
C553 C551 1.419 . S
C553 C554 1.362 . S
C554 H546 0.930 . S
C554 C553 1.362 . S
C554 C557 1.409 . S
C555 H547 0.930 . S
C555 C556 1.355 . S
C555 C557 1.415 . S
C556 C555 1.355 . S
C556 C558 1.419 . S
C557 C552 1.425 . S
C557 C554 1.409 . S
C557 C555 1.415 . S
C558 H548 0.930 . S
C558 C556 1.419 . S
C558 C559 1.362 . S
C559 H549 0.930 . S
C559 C552 1.409 . S
C559 C558 1.362 . S
H560 C566 0.930 . S
H561 C569 0.930 . S
H562 C570 0.930 . S
H563 C571 0.930 . S
H564 C574 0.930 . S
H565 C575 0.930 . S
C566 H560 0.930 . S
C566 C567 1.355 . S
C566 C568 1.415 . S
C567 C566 1.355 . S
C567 C569 1.419 . S
C568 C566 1.415 . S
C568 C573 1.425 . S
C568 C575 1.409 . S
C569 H561 0.930 . S
C569 C567 1.419 . S
C569 C570 1.362 . S
C570 H562 0.930 . S
C570 C569 1.362 . S
C570 C573 1.409 . S
C571 H563 0.930 . S
C571 C572 1.355 . S
C571 C573 1.415 . S
C572 C571 1.355 . S
C572 C574 1.419 . S
C573 C568 1.425 . S
C573 C570 1.409 . S
C573 C571 1.415 . S
C574 H564 0.930 . S
C574 C572 1.419 . S
C574 C575 1.362 . S
C575 H565 0.930 . S
C575 C568 1.409 . S
C575 C574 1.362 . S
H576 C582 0.930 . S
H577 C585 0.930 . S
H578 C586 0.930 . S
H579 C587 0.930 1_455 S
H580 C590 0.930 . S
H581 C591 0.930 . S
C582 H576 0.930 . S
C582 C583 1.355 . S
C582 C584 1.415 . S
C583 C582 1.355 . S
C583 C585 1.419 . S
C584 C582 1.415 . S
C584 C589 1.425 . S
C584 C591 1.409 . S
C585 H577 0.930 . S
C585 C583 1.419 . S
C585 C586 1.362 . S
C586 H578 0.930 . S
C586 C585 1.362 . S
C586 C589 1.409 . S
C587 H579 0.930 1_655 S
C587 C588 1.355 1_655 S
C587 C589 1.415 . S
C588 C587 1.355 1_455 S
C588 C590 1.419 . S
C589 C584 1.425 . S
C589 C586 1.409 . S
C589 C587 1.415 . S
C590 H580 0.930 . S
C590 C588 1.419 . S
C590 C591 1.362 1_455 S
C591 H581 0.930 . S
C591 C584 1.409 . S
C591 C590 1.362 1_655 S
H592 C598 0.930 . S
H593 C601 0.930 . S
H594 C602 0.930 . S
H595 C603 0.930 . S
H596 C606 0.930 . S
H597 C607 0.930 . S
C598 H592 0.930 . S
C598 C599 1.355 . S
C598 C600 1.415 . S
C599 C598 1.355 . S
C599 C601 1.419 . S
C600 C598 1.415 . S
C600 C605 1.425 . S
C600 C607 1.409 1_455 S
C601 H593 0.930 . S
C601 C599 1.419 . S
C601 C602 1.362 . S
C602 H594 0.930 . S
C602 C601 1.362 . S
C602 C605 1.409 . S
C603 H595 0.930 . S
C603 C604 1.355 1_455 S
C603 C605 1.415 . S
C604 C603 1.355 1_655 S
C604 C606 1.419 . S
C605 C600 1.425 . S
C605 C602 1.409 . S
C605 C603 1.415 . S
C606 H596 0.930 . S
C606 C604 1.419 . S
C606 C607 1.362 . S
C607 H597 0.930 . S
C607 C600 1.409 1_655 S
C607 C606 1.362 . S
H608 C614 0.930 . S
H609 C617 0.930 . S
H610 C618 0.930 . S
H611 C619 0.930 . S
H612 C622 0.930 . S
H613 C623 0.930 . S
C614 H608 0.930 . S
C614 C615 1.355 . S
C614 C616 1.415 . S
C615 C614 1.355 . S
C615 C617 1.419 . S
C616 C614 1.415 . S
C616 C621 1.425 . S
C616 C623 1.409 1_556 S
C617 H609 0.930 . S
C617 C615 1.419 . S
C617 C618 1.362 . S
C618 H610 0.930 . S
C618 C617 1.362 . S
C618 C621 1.409 . S
C619 H611 0.930 . S
C619 C620 1.355 . S
C619 C621 1.415 . S
C620 C619 1.355 . S
C620 C622 1.419 1_556 S
C621 C616 1.425 . S
C621 C618 1.409 . S
C621 C619 1.415 . S
C622 H612 0.930 . S
C622 C620 1.419 1_554 S
C622 C623 1.362 . S
C623 H613 0.930 . S
C623 C616 1.409 1_554 S
C623 C622 1.362 . S
H624 C630 0.930 . S
H625 C633 0.930 . S
H626 C634 0.930 . S
H627 C635 0.930 . S
H628 C638 0.930 . S
H629 C639 0.930 . S
C630 H624 0.930 . S
C630 C631 1.355 . S
C630 C632 1.415 . S
C631 C630 1.355 . S
C631 C633 1.419 . S
C632 C630 1.415 . S
C632 C637 1.425 . S
C632 C639 1.409 . S
C633 H625 0.930 . S
C633 C631 1.419 . S
C633 C634 1.362 . S
C634 H626 0.930 . S
C634 C633 1.362 . S
C634 C637 1.409 . S
C635 H627 0.930 . S
C635 C636 1.355 . S
C635 C637 1.415 . S
C636 C635 1.355 . S
C636 C638 1.419 . S
C637 C632 1.425 . S
C637 C634 1.409 . S
C637 C635 1.415 . S
C638 H628 0.930 . S
C638 C636 1.419 . S
C638 C639 1.362 . S
C639 H629 0.930 . S
C639 C632 1.409 . S
C639 C638 1.362 . S
H640 C646 0.930 . S
H641 C649 0.930 . S
H642 C650 0.930 . S
H643 C651 0.930 . S
H644 C654 0.930 . S
H645 C655 0.930 . S
C646 H640 0.930 . S
C646 C647 1.355 . S
C646 C648 1.415 . S
C647 C646 1.355 . S
C647 C649 1.419 . S
C648 C646 1.415 . S
C648 C653 1.425 . S
C648 C655 1.409 . S
C649 H641 0.930 . S
C649 C647 1.419 . S
C649 C650 1.362 . S
C650 H642 0.930 . S
C650 C649 1.362 . S
C650 C653 1.409 . S
C651 H643 0.930 . S
C651 C652 1.355 . S
C651 C653 1.415 . S
C652 C651 1.355 . S
C652 C654 1.419 . S
C653 C648 1.425 . S
C653 C650 1.409 . S
C653 C651 1.415 . S
C654 H644 0.930 . S
C654 C652 1.419 . S
C654 C655 1.362 . S
C655 H645 0.930 . S
C655 C648 1.409 . S
C655 C654 1.362 . S
H656 C662 0.930 . S
H657 C665 0.930 . S
H658 C666 0.930 . S
H659 C667 0.930 . S
H660 C670 0.930 . S
H661 C671 0.930 . S
C662 H656 0.930 . S
C662 C663 1.355 . S
C662 C664 1.415 . S
C663 C662 1.355 . S
C663 C665 1.419 . S
C664 C662 1.415 . S
C664 C669 1.425 . S
C664 C671 1.409 . S
C665 H657 0.930 . S
C665 C663 1.419 . S
C665 C666 1.362 . S
C666 H658 0.930 . S
C666 C665 1.362 . S
C666 C669 1.409 . S
C667 H659 0.930 . S
C667 C668 1.355 . S
C667 C669 1.415 . S
C668 C667 1.355 . S
C668 C670 1.419 . S
C669 C664 1.425 . S
C669 C666 1.409 . S
C669 C667 1.415 . S
C670 H660 0.930 . S
C670 C668 1.419 . S
C670 C671 1.362 . S
C671 H661 0.930 . S
C671 C664 1.409 . S
C671 C670 1.362 . S
H672 C678 0.930 . S
H673 C681 0.930 . S
H674 C682 0.930 . S
H675 C683 0.930 . S
H676 C686 0.930 . S
H677 C687 0.930 . S
C678 H672 0.930 . S
C678 C679 1.355 . S
C678 C680 1.415 . S
C679 C678 1.355 . S
C679 C681 1.419 . S
C680 C678 1.415 . S
C680 C685 1.425 . S
C680 C687 1.409 . S
C681 H673 0.930 . S
C681 C679 1.419 . S
C681 C682 1.362 . S
C682 H674 0.930 . S
C682 C681 1.362 . S
C682 C685 1.409 . S
C683 H675 0.930 . S
C683 C684 1.355 . S
C683 C685 1.415 . S
C684 C683 1.355 . S
C684 C686 1.419 . S
C685 C680 1.425 . S
C685 C682 1.409 . S
C685 C683 1.415 . S
C686 H676 0.930 . S
C686 C684 1.419 . S
C686 C687 1.362 . S
C687 H677 0.930 . S
C687 C680 1.409 . S
C687 C686 1.362 . S
H688 C694 0.930 . S
H689 C697 0.930 . S
H690 C698 0.930 . S
H691 C699 0.930 . S
H692 C702 0.930 . S
H693 C703 0.930 . S
C694 H688 0.930 . S
C694 C695 1.355 . S
C694 C696 1.415 . S
C695 C694 1.355 . S
C695 C697 1.419 . S
C696 C694 1.415 . S
C696 C701 1.425 . S
C696 C703 1.409 . S
C697 H689 0.930 . S
C697 C695 1.419 . S
C697 C698 1.362 . S
C698 H690 0.930 . S
C698 C697 1.362 . S
C698 C701 1.409 . S
C699 H691 0.930 . S
C699 C700 1.355 . S
C699 C701 1.415 . S
C700 C699 1.355 . S
C700 C702 1.419 . S
C701 C696 1.425 . S
C701 C698 1.409 . S
C701 C699 1.415 . S
C702 H692 0.930 . S
C702 C700 1.419 . S
C702 C703 1.362 . S
C703 H693 0.930 . S
C703 C696 1.409 . S
C703 C702 1.362 . S
H704 C710 0.930 . S
H705 C713 0.930 . S
H706 C714 0.930 . S
H707 C715 0.930 . S
H708 C718 0.930 . S
H709 C719 0.930 . S
C710 H704 0.930 . S
C710 C711 1.355 . S
C710 C712 1.415 . S
C711 C710 1.355 . S
C711 C713 1.419 . S
C712 C710 1.415 . S
C712 C717 1.425 . S
C712 C719 1.409 . S
C713 H705 0.930 . S
C713 C711 1.419 . S
C713 C714 1.362 . S
C714 H706 0.930 . S
C714 C713 1.362 . S
C714 C717 1.409 . S
C715 H707 0.930 . S
C715 C716 1.355 . S
C715 C717 1.415 . S
C716 C715 1.355 . S
C716 C718 1.419 . S
C717 C712 1.425 . S
C717 C714 1.409 . S
C717 C715 1.415 . S
C718 H708 0.930 . S
C718 C716 1.419 . S
C718 C719 1.362 . S
C719 H709 0.930 . S
C719 C712 1.409 . S
C719 C718 1.362 . S
H720 C726 0.930 . S
H721 C729 0.930 . S
H722 C730 0.930 . S
H723 C731 0.930 . S
H724 C734 0.930 . S
H725 C735 0.930 . S
C726 H720 0.930 . S
C726 C727 1.355 . S
C726 C728 1.415 . S
C727 C726 1.355 . S
C727 C729 1.419 . S
C728 C726 1.415 . S
C728 C733 1.425 . S
C728 C735 1.409 . S
C729 H721 0.930 . S
C729 C727 1.419 . S
C729 C730 1.362 . S
C730 H722 0.930 . S
C730 C729 1.362 . S
C730 C733 1.409 . S
C731 H723 0.930 . S
C731 C732 1.355 . S
C731 C733 1.415 . S
C732 C731 1.355 . S
C732 C734 1.419 . S
C733 C728 1.425 . S
C733 C730 1.409 . S
C733 C731 1.415 . S
C734 H724 0.930 . S
C734 C732 1.419 . S
C734 C735 1.362 . S
C735 H725 0.930 . S
C735 C728 1.409 . S
C735 C734 1.362 . S
H736 C742 0.930 . S
H737 C745 0.930 . S
H738 C746 0.930 . S
H739 C747 0.930 . S
H740 C750 0.930 . S
H741 C751 0.930 . S
C742 H736 0.930 . S
C742 C743 1.355 . S
C742 C744 1.415 . S
C743 C742 1.355 . S
C743 C745 1.419 . S
C744 C742 1.415 . S
C744 C749 1.425 . S
C744 C751 1.409 . S
C745 H737 0.930 . S
C745 C743 1.419 . S
C745 C746 1.362 . S
C746 H738 0.930 . S
C746 C745 1.362 . S
C746 C749 1.409 . S
C747 H739 0.930 . S
C747 C748 1.355 . S
C747 C749 1.415 . S
C748 C747 1.355 . S
C748 C750 1.419 . S
C749 C744 1.425 . S
C749 C746 1.409 . S
C749 C747 1.415 . S
C750 H740 0.930 . S
C750 C748 1.419 . S
C750 C751 1.362 . S
C751 H741 0.930 . S
C751 C744 1.409 . S
C751 C750 1.362 . S
H752 C758 0.930 . S
H753 C761 0.930 . S
H754 C762 0.930 . S
H755 C763 0.930 . S
H756 C766 0.930 . S
H757 C767 0.930 . S
C758 H752 0.930 . S
C758 C759 1.355 . S
C758 C760 1.415 . S
C759 C758 1.355 . S
C759 C761 1.419 . S
C760 C758 1.415 . S
C760 C765 1.425 . S
C760 C767 1.409 . S
C761 H753 0.930 . S
C761 C759 1.419 . S
C761 C762 1.362 . S
C762 H754 0.930 . S
C762 C761 1.362 . S
C762 C765 1.409 . S
C763 H755 0.930 . S
C763 C764 1.355 . S
C763 C765 1.415 . S
C764 C763 1.355 . S
C764 C766 1.419 . S
C765 C760 1.425 . S
C765 C762 1.409 . S
C765 C763 1.415 . S
C766 H756 0.930 . S
C766 C764 1.419 . S
C766 C767 1.362 . S
C767 H757 0.930 . S
C767 C760 1.409 . S
C767 C766 1.362 . S
H768 C774 0.930 . S
H769 C777 0.930 . S
H770 C778 0.930 . S
H771 C779 0.930 . S
H772 C782 0.930 . S
H773 C783 0.930 . S
C774 H768 0.930 . S
C774 C775 1.355 . S
C774 C776 1.415 . S
C775 C774 1.355 . S
C775 C777 1.419 . S
C776 C774 1.415 . S
C776 C781 1.425 . S
C776 C783 1.409 . S
C777 H769 0.930 . S
C777 C775 1.419 . S
C777 C778 1.362 . S
C778 H770 0.930 . S
C778 C777 1.362 . S
C778 C781 1.409 . S
C779 H771 0.930 . S
C779 C780 1.355 . S
C779 C781 1.415 . S
C780 C779 1.355 . S
C780 C782 1.419 . S
C781 C776 1.425 . S
C781 C778 1.409 . S
C781 C779 1.415 . S
C782 H772 0.930 . S
C782 C780 1.419 . S
C782 C783 1.362 . S
C783 H773 0.930 . S
C783 C776 1.409 . S
C783 C782 1.362 . S
H784 C790 0.930 . S
H785 C793 0.930 . S
H786 C794 0.930 . S
H787 C795 0.930 . S
H788 C798 0.930 . S
H789 C799 0.930 . S
C790 H784 0.930 . S
C790 C791 1.355 . S
C790 C792 1.415 . S
C791 C790 1.355 . S
C791 C793 1.419 . S
C792 C790 1.415 . S
C792 C797 1.425 . S
C792 C799 1.409 . S
C793 H785 0.930 . S
C793 C791 1.419 . S
C793 C794 1.362 . S
C794 H786 0.930 . S
C794 C793 1.362 . S
C794 C797 1.409 . S
C795 H787 0.930 . S
C795 C796 1.355 . S
C795 C797 1.415 . S
C796 C795 1.355 . S
C796 C798 1.419 . S
C797 C792 1.425 . S
C797 C794 1.409 . S
C797 C795 1.415 . S
C798 H788 0.930 . S
C798 C796 1.419 . S
C798 C799 1.362 . S
C799 H789 0.930 . S
C799 C792 1.409 . S
C799 C798 1.362 . S
H800 C806 0.930 . S
H801 C809 0.930 . S
H802 C810 0.930 . S
H803 C811 0.930 . S
H804 C814 0.930 . S
H805 C815 0.930 . S
C806 H800 0.930 . S
C806 C807 1.355 . S
C806 C808 1.415 . S
C807 C806 1.355 . S
C807 C809 1.419 . S
C808 C806 1.415 . S
C808 C813 1.425 . S
C808 C815 1.409 . S
C809 H801 0.930 . S
C809 C807 1.419 . S
C809 C810 1.362 . S
C810 H802 0.930 . S
C810 C809 1.362 . S
C810 C813 1.409 . S
C811 H803 0.930 . S
C811 C812 1.355 . S
C811 C813 1.415 . S
C812 C811 1.355 . S
C812 C814 1.419 . S
C813 C808 1.425 . S
C813 C810 1.409 . S
C813 C811 1.415 . S
C814 H804 0.930 . S
C814 C812 1.419 . S
C814 C815 1.362 . S
C815 H805 0.930 . S
C815 C808 1.409 . S
C815 C814 1.362 . S
H816 C822 0.930 . S
H817 C825 0.930 . S
H818 C826 0.930 . S
H819 C827 0.930 . S
H820 C830 0.930 . S
H821 C831 0.930 . S
C822 H816 0.930 . S
C822 C823 1.355 . S
C822 C824 1.415 . S
C823 C822 1.355 . S
C823 C825 1.419 . S
C824 C822 1.415 . S
C824 C829 1.425 . S
C824 C831 1.409 . S
C825 H817 0.930 . S
C825 C823 1.419 . S
C825 C826 1.362 . S
C826 H818 0.930 . S
C826 C825 1.362 . S
C826 C829 1.409 . S
C827 H819 0.930 . S
C827 C828 1.355 . S
C827 C829 1.415 . S
C828 C827 1.355 . S
C828 C830 1.419 . S
C829 C824 1.425 . S
C829 C826 1.409 . S
C829 C827 1.415 . S
C830 H820 0.930 . S
C830 C828 1.419 . S
C830 C831 1.362 . S
C831 H821 0.930 . S
C831 C824 1.409 . S
C831 C830 1.362 . S
H832 C838 0.930 . S
H833 C841 0.930 . S
H834 C842 0.930 1_556 S
H835 C843 0.930 1_556 S
H836 C846 0.930 . S
H837 C847 0.930 . S
C838 H832 0.930 . S
C838 C839 1.355 . S
C838 C840 1.415 . S
C839 C838 1.355 . S
C839 C841 1.419 . S
C840 C838 1.415 . S
C840 C845 1.425 . S
C840 C847 1.409 . S
C841 H833 0.930 . S
C841 C839 1.419 . S
C841 C842 1.362 . S
C842 H834 0.930 1_554 S
C842 C841 1.362 . S
C842 C845 1.409 . S
C843 H835 0.930 1_554 S
C843 C844 1.355 . S
C843 C845 1.415 . S
C844 C843 1.355 . S
C844 C846 1.419 . S
C845 C840 1.425 . S
C845 C842 1.409 . S
C845 C843 1.415 . S
C846 H836 0.930 . S
C846 C844 1.419 . S
C846 C847 1.362 . S
C847 H837 0.930 . S
C847 C840 1.409 . S
C847 C846 1.362 . S
H848 C854 0.930 . S
H849 C857 0.930 . S
H850 C858 0.930 . S
H851 C859 0.930 . S
H852 C862 0.930 . S
H853 C863 0.930 . S
C854 H848 0.930 . S
C854 C855 1.355 . S
C854 C856 1.415 . S
C855 C854 1.355 . S
C855 C857 1.419 . S
C856 C854 1.415 . S
C856 C861 1.425 . S
C856 C863 1.409 . S
C857 H849 0.930 . S
C857 C855 1.419 . S
C857 C858 1.362 . S
C858 H850 0.930 . S
C858 C857 1.362 . S
C858 C861 1.409 . S
C859 H851 0.930 . S
C859 C860 1.355 . S
C859 C861 1.415 . S
C860 C859 1.355 . S
C860 C862 1.419 . S
C861 C856 1.425 . S
C861 C858 1.409 . S
C861 C859 1.415 . S
C862 H852 0.930 . S
C862 C860 1.419 . S
C862 C863 1.362 . S
C863 H853 0.930 . S
C863 C856 1.409 . S
C863 C862 1.362 . S
H864 C870 0.930 . S
H865 C873 0.930 . S
H866 C874 0.930 . S
H867 C875 0.930 . S
H868 C878 0.930 . S
H869 C879 0.930 . S
C870 H864 0.930 . S
C870 C871 1.355 . S
C870 C872 1.415 . S
C871 C870 1.355 . S
C871 C873 1.419 . S
C872 C870 1.415 . S
C872 C877 1.425 . S
C872 C879 1.409 . S
C873 H865 0.930 . S
C873 C871 1.419 . S
C873 C874 1.362 . S
C874 H866 0.930 . S
C874 C873 1.362 . S
C874 C877 1.409 . S
C875 H867 0.930 . S
C875 C876 1.355 . S
C875 C877 1.415 . S
C876 C875 1.355 . S
C876 C878 1.419 . S
C877 C872 1.425 . S
C877 C874 1.409 . S
C877 C875 1.415 . S
C878 H868 0.930 . S
C878 C876 1.419 . S
C878 C879 1.362 . S
C879 H869 0.930 . S
C879 C872 1.409 . S
C879 C878 1.362 . S
H880 C886 0.930 . S
H881 C889 0.930 . S
H882 C890 0.930 . S
H883 C891 0.930 . S
H884 C894 0.930 . S
H885 C895 0.930 . S
C886 H880 0.930 . S
C886 C887 1.355 . S
C886 C888 1.415 . S
C887 C886 1.355 . S
C887 C889 1.419 . S
C888 C886 1.415 . S
C888 C893 1.425 . S
C888 C895 1.409 . S
C889 H881 0.930 . S
C889 C887 1.419 . S
C889 C890 1.362 . S
C890 H882 0.930 . S
C890 C889 1.362 . S
C890 C893 1.409 . S
C891 H883 0.930 . S
C891 C892 1.355 . S
C891 C893 1.415 . S
C892 C891 1.355 . S
C892 C894 1.419 . S
C893 C888 1.425 . S
C893 C890 1.409 . S
C893 C891 1.415 . S
C894 H884 0.930 . S
C894 C892 1.419 . S
C894 C895 1.362 . S
C895 H885 0.930 . S
C895 C888 1.409 . S
C895 C894 1.362 . S
H896 C902 0.930 . S
H897 C905 0.930 . S
H898 C906 0.930 . S
H899 C907 0.930 . S
H900 C910 0.930 . S
H901 C911 0.930 . S
C902 H896 0.930 . S
C902 C903 1.340 1_455 S
C902 C904 1.415 . S
C903 C902 1.340 1_655 S
C903 C905 1.407 1_655 S
C904 C902 1.415 . S
C904 C909 1.425 . S
C904 C911 1.409 . S
C905 H897 0.930 . S
C905 C903 1.407 1_455 S
C905 C906 1.362 . S
C906 H898 0.930 . S
C906 C905 1.362 . S
C906 C909 1.409 . S
C907 H899 0.930 . S
C907 C908 1.355 . S
C907 C909 1.415 . S
C908 C907 1.355 . S
C908 C910 1.419 . S
C909 C904 1.425 . S
C909 C906 1.409 . S
C909 C907 1.415 . S
C910 H900 0.930 . S
C910 C908 1.419 . S
C910 C911 1.362 . S
C911 H901 0.930 . S
C911 C904 1.409 . S
C911 C910 1.362 . S
H912 C918 0.930 . S
H913 C921 0.930 . S
H914 C922 0.930 . S
H915 C923 0.930 . S
H916 C926 0.930 . S
H917 C927 0.930 . S
C918 H912 0.930 . S
C918 C919 1.355 . S
C918 C920 1.415 . S
C919 C918 1.355 . S
C919 C921 1.419 . S
C920 C918 1.415 . S
C920 C925 1.425 . S
C920 C927 1.409 . S
C921 H913 0.930 . S
C921 C919 1.419 . S
C921 C922 1.362 . S
C922 H914 0.930 . S
C922 C921 1.362 . S
C922 C925 1.409 . S
C923 H915 0.930 . S
C923 C924 1.355 . S
C923 C925 1.415 . S
C924 C923 1.355 . S
C924 C926 1.419 . S
C925 C920 1.425 . S
C925 C922 1.409 . S
C925 C923 1.415 . S
C926 H916 0.930 . S
C926 C924 1.419 . S
C926 C927 1.362 . S
C927 H917 0.930 . S
C927 C920 1.409 . S
C927 C926 1.362 . S
H928 C934 0.930 . S
H929 C937 0.930 . S
H930 C938 0.930 . S
H931 C939 0.930 . S
H932 C942 0.930 . S
H933 C943 0.930 . S
C934 H928 0.930 . S
C934 C935 1.355 . S
C934 C936 1.415 . S
C935 C934 1.355 . S
C935 C937 1.419 . S
C936 C934 1.415 . S
C936 C941 1.425 . S
C936 C943 1.409 . S
C937 H929 0.930 . S
C937 C935 1.419 . S
C937 C938 1.362 . S
C938 H930 0.930 . S
C938 C937 1.362 . S
C938 C941 1.409 . S
C939 H931 0.930 . S
C939 C940 1.355 . S
C939 C941 1.415 . S
C940 C939 1.355 . S
C940 C942 1.419 . S
C941 C936 1.425 . S
C941 C938 1.409 . S
C941 C939 1.415 . S
C942 H932 0.930 . S
C942 C940 1.419 . S
C942 C943 1.362 . S
C943 H933 0.930 . S
C943 C936 1.409 . S
C943 C942 1.362 . S
H944 C950 0.930 . S
H945 C953 0.930 . S
H946 C954 0.930 . S
H947 C955 0.930 . S
H948 C958 0.930 . S
H949 C959 0.930 . S
C950 H944 0.930 . S
C950 C951 1.355 . S
C950 C952 1.415 . S
C951 C950 1.355 . S
C951 C953 1.419 . S
C952 C950 1.415 . S
C952 C957 1.425 . S
C952 C959 1.409 . S
C953 H945 0.930 . S
C953 C951 1.419 . S
C953 C954 1.362 . S
C954 H946 0.930 . S
C954 C953 1.362 . S
C954 C957 1.409 . S
C955 H947 0.930 . S
C955 C956 1.355 . S
C955 C957 1.415 . S
C956 C955 1.355 . S
C956 C958 1.419 . S
C957 C952 1.425 . S
C957 C954 1.409 . S
C957 C955 1.415 . S
C958 H948 0.930 . S
C958 C956 1.419 . S
C958 C959 1.362 . S
C959 H949 0.930 . S
C959 C952 1.409 . S
C959 C958 1.362 . S
H960 C966 0.930 . S
H961 C969 0.930 . S
H962 C970 0.930 . S
H963 C971 0.930 . S
H964 C974 0.930 . S
H965 C975 0.930 . S
C966 H960 0.930 . S
C966 C967 1.355 1_655 S
C966 C968 1.415 . S
C967 C966 1.355 1_455 S
C967 C969 1.419 . S
C968 C966 1.415 . S
C968 C973 1.425 . S
C968 C975 1.409 . S
C969 H961 0.930 . S
C969 C967 1.419 . S
C969 C970 1.362 1_455 S
C970 H962 0.930 . S
C970 C969 1.362 1_655 S
C970 C973 1.409 . S
C971 H963 0.930 . S
C971 C972 1.355 . S
C971 C973 1.415 . S
C972 C971 1.355 . S
C972 C974 1.419 . S
C973 C968 1.425 . S
C973 C970 1.409 . S
C973 C971 1.415 . S
C974 H964 0.930 . S
C974 C972 1.419 . S
C974 C975 1.362 . S
C975 H965 0.930 . S
C975 C968 1.409 . S
C975 C974 1.362 . S
H976 C982 0.930 . S
H977 C985 0.930 . S
H978 C986 0.930 . S
H979 C987 0.930 . S
H980 C990 0.930 . S
H981 C991 0.930 . S
C982 H976 0.930 . S
C982 C983 1.355 . S
C982 C984 1.415 . S
C983 C982 1.355 . S
C983 C985 1.419 . S
C984 C982 1.415 . S
C984 C989 1.425 . S
C984 C991 1.409 . S
C985 H977 0.930 . S
C985 C983 1.419 . S
C985 C986 1.362 . S
C986 H978 0.930 . S
C986 C985 1.362 . S
C986 C989 1.409 . S
C987 H979 0.930 . S
C987 C988 1.355 . S
C987 C989 1.415 . S
C988 C987 1.355 . S
C988 C990 1.419 . S
C989 C984 1.425 . S
C989 C986 1.409 . S
C989 C987 1.415 . S
C990 H980 0.930 . S
C990 C988 1.419 . S
C990 C991 1.362 . S
C991 H981 0.930 . S
C991 C984 1.409 . S
C991 C990 1.362 . S
H992 C998 0.930 . S
H993 C1001 0.930 . S
H994 C1002 0.930 . S
H995 C1003 0.930 . S
H996 C1006 0.930 . S
H997 C1007 0.930 . S
C998 H992 0.930 . S
C998 C999 1.355 . S
C998 C1000 1.415 . S
C999 C998 1.355 . S
C999 C1001 1.419 . S
C1000 C998 1.415 . S
C1000 C1005 1.425 . S
C1000 C1007 1.409 . S
C1001 H993 0.930 . S
C1001 C999 1.419 . S
C1001 C1002 1.362 . S
C1002 H994 0.930 . S
C1002 C1001 1.362 . S
C1002 C1005 1.409 . S
C1003 H995 0.930 . S
C1003 C1004 1.355 1_655 S
C1003 C1005 1.415 . S
C1004 C1003 1.355 1_455 S
C1004 C1006 1.419 . S
C1005 C1000 1.425 . S
C1005 C1002 1.409 . S
C1005 C1003 1.415 . S
C1006 H996 0.930 . S
C1006 C1004 1.419 . S
C1006 C1007 1.362 1_455 S
C1007 H997 0.930 . S
C1007 C1000 1.409 . S
C1007 C1006 1.362 1_655 S
H1008 C1014 0.930 . S
H1009 C1017 0.930 . S
H1010 C1018 0.930 . S
H1011 C1019 0.930 . S
H1012 C1022 0.930 . S
H1013 C1023 0.930 . S
C1014 H1008 0.930 . S
C1014 C1015 1.355 . S
C1014 C1016 1.415 . S
C1015 C1014 1.355 . S
C1015 C1017 1.419 . S
C1016 C1014 1.415 . S
C1016 C1021 1.425 . S
C1016 C1023 1.409 . S
C1017 H1009 0.930 . S
C1017 C1015 1.419 . S
C1017 C1018 1.362 . S
C1018 H1010 0.930 . S
C1018 C1017 1.362 . S
C1018 C1021 1.409 . S
C1019 H1011 0.930 . S
C1019 C1020 1.355 . S
C1019 C1021 1.415 . S
C1020 C1019 1.355 . S
C1020 C1022 1.419 . S
C1021 C1016 1.425 . S
C1021 C1018 1.409 . S
C1021 C1019 1.415 . S
C1022 H1012 0.930 . S
C1022 C1020 1.419 . S
C1022 C1023 1.362 . S
C1023 H1013 0.930 . S
C1023 C1016 1.409 . S
C1023 C1022 1.362 . S
H1024 C1030 0.930 . S
H1025 C1033 0.930 . S
H1026 C1034 0.930 . S
H1027 C1035 0.930 . S
H1028 C1038 0.930 . S
H1029 C1039 0.930 . S
C1030 H1024 0.930 . S
C1030 C1031 1.355 . S
C1030 C1032 1.415 . S
C1031 C1030 1.355 . S
C1031 C1033 1.419 . S
C1032 C1030 1.415 . S
C1032 C1037 1.425 . S
C1032 C1039 1.409 . S
C1033 H1025 0.930 . S
C1033 C1031 1.419 . S
C1033 C1034 1.362 . S
C1034 H1026 0.930 . S
C1034 C1033 1.362 . S
C1034 C1037 1.409 . S
C1035 H1027 0.930 . S
C1035 C1036 1.355 . S
C1035 C1037 1.415 . S
C1036 C1035 1.355 . S
C1036 C1038 1.419 . S
C1037 C1032 1.425 . S
C1037 C1034 1.409 . S
C1037 C1035 1.415 . S
C1038 H1028 0.930 . S
C1038 C1036 1.419 . S
C1038 C1039 1.362 . S
C1039 H1029 0.930 . S
C1039 C1032 1.409 . S
C1039 C1038 1.362 . S
H1040 C1046 0.930 . S
H1041 C1049 0.930 . S
H1042 C1050 0.930 . S
H1043 C1051 0.930 . S
H1044 C1054 0.930 . S
H1045 C1055 0.930 . S
C1046 H1040 0.930 . S
C1046 C1047 1.355 . S
C1046 C1048 1.415 . S
C1047 C1046 1.355 . S
C1047 C1049 1.419 . S
C1048 C1046 1.415 . S
C1048 C1053 1.425 . S
C1048 C1055 1.409 . S
C1049 H1041 0.930 . S
C1049 C1047 1.419 . S
C1049 C1050 1.362 . S
C1050 H1042 0.930 . S
C1050 C1049 1.362 . S
C1050 C1053 1.409 . S
C1051 H1043 0.930 . S
C1051 C1052 1.355 . S
C1051 C1053 1.415 . S
C1052 C1051 1.355 . S
C1052 C1054 1.419 . S
C1053 C1048 1.425 . S
C1053 C1050 1.409 . S
C1053 C1051 1.415 . S
C1054 H1044 0.930 . S
C1054 C1052 1.419 . S
C1054 C1055 1.362 . S
C1055 H1045 0.930 . S
C1055 C1048 1.409 . S
C1055 C1054 1.362 . S
H1056 C1062 0.930 . S
H1057 C1065 0.930 . S
H1058 C1066 0.930 . S
H1059 C1067 0.930 . S
H1060 C1070 0.930 . S
H1061 C1071 0.930 . S
C1062 H1056 0.930 . S
C1062 C1063 1.355 . S
C1062 C1064 1.415 . S
C1063 C1062 1.355 . S
C1063 C1065 1.419 . S
C1064 C1062 1.415 . S
C1064 C1069 1.425 . S
C1064 C1071 1.409 . S
C1065 H1057 0.930 . S
C1065 C1063 1.419 . S
C1065 C1066 1.362 . S
C1066 H1058 0.930 . S
C1066 C1065 1.362 . S
C1066 C1069 1.409 . S
C1067 H1059 0.930 . S
C1067 C1068 1.355 . S
C1067 C1069 1.415 . S
C1068 C1067 1.355 . S
C1068 C1070 1.419 . S
C1069 C1064 1.425 . S
C1069 C1066 1.409 . S
C1069 C1067 1.415 . S
C1070 H1060 0.930 . S
C1070 C1068 1.419 . S
C1070 C1071 1.362 . S
C1071 H1061 0.930 . S
C1071 C1064 1.409 . S
C1071 C1070 1.362 . S
H1072 C1078 0.930 . S
H1073 C1081 0.930 . S
H1074 C1082 0.930 . S
H1075 C1083 0.930 . S
H1076 C1086 0.930 . S
H1077 C1087 0.930 . S
C1078 H1072 0.930 . S
C1078 C1079 1.355 . S
C1078 C1080 1.415 . S
C1079 C1078 1.355 . S
C1079 C1081 1.419 . S
C1080 C1078 1.415 . S
C1080 C1085 1.425 . S
C1080 C1087 1.409 . S
C1081 H1073 0.930 . S
C1081 C1079 1.419 . S
C1081 C1082 1.362 . S
C1082 H1074 0.930 . S
C1082 C1081 1.362 . S
C1082 C1085 1.409 . S
C1083 H1075 0.930 . S
C1083 C1084 1.355 . S
C1083 C1085 1.415 . S
C1084 C1083 1.355 . S
C1084 C1086 1.419 . S
C1085 C1080 1.425 . S
C1085 C1082 1.409 . S
C1085 C1083 1.415 . S
C1086 H1076 0.930 . S
C1086 C1084 1.419 . S
C1086 C1087 1.362 . S
C1087 H1077 0.930 . S
C1087 C1080 1.409 . S
C1087 C1086 1.362 . S
H1088 C1094 0.930 . S
H1089 C1097 0.930 . S
H1090 C1098 0.930 . S
H1091 C1099 0.930 . S
H1092 C1102 0.930 . S
H1093 C1103 0.930 . S
C1094 H1088 0.930 . S
C1094 C1095 1.355 . S
C1094 C1096 1.415 . S
C1095 C1094 1.355 . S
C1095 C1097 1.419 . S
C1096 C1094 1.415 . S
C1096 C1101 1.425 . S
C1096 C1103 1.409 . S
C1097 H1089 0.930 . S
C1097 C1095 1.419 . S
C1097 C1098 1.362 . S
C1098 H1090 0.930 . S
C1098 C1097 1.362 . S
C1098 C1101 1.409 . S
C1099 H1091 0.930 . S
C1099 C1100 1.355 . S
C1099 C1101 1.415 . S
C1100 C1099 1.355 . S
C1100 C1102 1.419 . S
C1101 C1096 1.425 . S
C1101 C1098 1.409 . S
C1101 C1099 1.415 . S
C1102 H1092 0.930 . S
C1102 C1100 1.419 . S
C1102 C1103 1.362 . S
C1103 H1093 0.930 . S
C1103 C1096 1.409 . S
C1103 C1102 1.362 . S
H1104 C1110 0.930 . S
H1105 C1113 0.930 . S
H1106 C1114 0.930 . S
H1107 C1115 0.930 . S
H1108 C1118 0.930 . S
H1109 C1119 0.930 . S
C1110 H1104 0.930 . S
C1110 C1111 1.355 . S
C1110 C1112 1.415 . S
C1111 C1110 1.355 . S
C1111 C1113 1.419 . S
C1112 C1110 1.415 . S
C1112 C1117 1.425 . S
C1112 C1119 1.409 . S
C1113 H1105 0.930 . S
C1113 C1111 1.419 . S
C1113 C1114 1.362 . S
C1114 H1106 0.930 . S
C1114 C1113 1.362 . S
C1114 C1117 1.409 . S
C1115 H1107 0.930 . S
C1115 C1116 1.355 . S
C1115 C1117 1.415 . S
C1116 C1115 1.355 . S
C1116 C1118 1.419 . S
C1117 C1112 1.425 . S
C1117 C1114 1.409 . S
C1117 C1115 1.415 . S
C1118 H1108 0.930 . S
C1118 C1116 1.419 . S
C1118 C1119 1.362 . S
C1119 H1109 0.930 . S
C1119 C1112 1.409 . S
C1119 C1118 1.362 . S
H1120 C1126 0.930 . S
H1121 C1129 0.930 . S
H1122 C1130 0.930 . S
H1123 C1131 0.930 . S
H1124 C1134 0.930 . S
H1125 C1135 0.930 . S
C1126 H1120 0.930 . S
C1126 C1127 1.355 . S
C1126 C1128 1.415 . S
C1127 C1126 1.355 . S
C1127 C1129 1.419 . S
C1128 C1126 1.415 . S
C1128 C1133 1.425 . S
C1128 C1135 1.409 . S
C1129 H1121 0.930 . S
C1129 C1127 1.419 . S
C1129 C1130 1.362 . S
C1130 H1122 0.930 . S
C1130 C1129 1.362 . S
C1130 C1133 1.409 . S
C1131 H1123 0.930 . S
C1131 C1132 1.355 . S
C1131 C1133 1.415 . S
C1132 C1131 1.355 . S
C1132 C1134 1.419 . S
C1133 C1128 1.425 . S
C1133 C1130 1.409 . S
C1133 C1131 1.415 . S
C1134 H1124 0.930 . S
C1134 C1132 1.419 . S
C1134 C1135 1.362 . S
C1135 H1125 0.930 . S
C1135 C1128 1.409 . S
C1135 C1134 1.362 . S
H1136 C1142 0.930 . S
H1137 C1145 0.930 . S
H1138 C1146 0.930 . S
H1139 C1147 0.930 . S
H1140 C1150 0.930 . S
H1141 C1151 0.930 . S
C1142 H1136 0.930 . S
C1142 C1143 1.355 . S
C1142 C1144 1.415 . S
C1143 C1142 1.355 . S
C1143 C1145 1.419 . S
C1144 C1142 1.415 . S
C1144 C1149 1.425 . S
C1144 C1151 1.409 . S
C1145 H1137 0.930 . S
C1145 C1143 1.419 . S
C1145 C1146 1.362 . S
C1146 H1138 0.930 . S
C1146 C1145 1.362 . S
C1146 C1149 1.409 . S
C1147 H1139 0.930 . S
C1147 C1148 1.355 . S
C1147 C1149 1.415 . S
C1148 C1147 1.355 . S
C1148 C1150 1.419 . S
C1149 C1144 1.425 . S
C1149 C1146 1.409 . S
C1149 C1147 1.415 . S
C1150 H1140 0.930 . S
C1150 C1148 1.419 . S
C1150 C1151 1.362 . S
C1151 H1141 0.930 . S
C1151 C1144 1.409 . S
C1151 C1150 1.362 . S
H1152 C1158 0.930 . S
H1153 C1161 0.930 . S
H1154 C1162 0.930 . S
H1155 C1163 0.930 . S
H1156 C1166 0.930 . S
H1157 C1167 0.930 . S
C1158 H1152 0.930 . S
C1158 C1159 1.355 . S
C1158 C1160 1.415 . S
C1159 C1158 1.355 . S
C1159 C1161 1.419 . S
C1160 C1158 1.415 . S
C1160 C1165 1.425 . S
C1160 C1167 1.409 . S
C1161 H1153 0.930 . S
C1161 C1159 1.419 . S
C1161 C1162 1.362 . S
C1162 H1154 0.930 . S
C1162 C1161 1.362 . S
C1162 C1165 1.409 . S
C1163 H1155 0.930 . S
C1163 C1164 1.355 . S
C1163 C1165 1.415 . S
C1164 C1163 1.355 . S
C1164 C1166 1.419 . S
C1165 C1160 1.425 . S
C1165 C1162 1.409 . S
C1165 C1163 1.415 . S
C1166 H1156 0.930 . S
C1166 C1164 1.419 . S
C1166 C1167 1.362 . S
C1167 H1157 0.930 . S
C1167 C1160 1.409 . S
C1167 C1166 1.362 . S
H1168 C1174 0.930 . S
H1169 C1177 0.930 . S
H1170 C1178 0.932 . S
H1171 C1179 0.930 . S
H1172 C1182 0.930 . S
H1173 C1183 0.932 . S
C1174 H1168 0.930 . S
C1174 C1175 1.355 . S
C1174 C1176 1.415 . S
C1175 C1174 1.355 . S
C1175 C1177 1.419 . S
C1176 C1174 1.415 . S
C1176 C1181 1.425 1_454 S
C1176 C1183 1.409 . S
C1177 H1169 0.930 . S
C1177 C1175 1.419 . S
C1177 C1178 1.360 1_454 S
C1178 H1170 0.932 . S
C1178 C1177 1.360 1_656 S
C1178 C1181 1.409 . S
C1179 H1171 0.930 . S
C1179 C1180 1.355 . S
C1179 C1181 1.415 . S
C1180 C1179 1.355 . S
C1180 C1182 1.419 . S
C1181 C1176 1.425 1_656 S
C1181 C1178 1.409 . S
C1181 C1179 1.415 . S
C1182 H1172 0.930 . S
C1182 C1180 1.419 . S
C1182 C1183 1.360 1_656 S
C1183 H1173 0.932 . S
C1183 C1176 1.409 . S
C1183 C1182 1.360 1_454 S
H1184 C1190 0.930 . S
H1185 C1193 0.930 . S
H1186 C1194 0.930 . S
H1187 C1195 0.930 . S
H1188 C1198 0.930 . S
H1189 C1199 0.930 . S
C1190 H1184 0.930 . S
C1190 C1191 1.355 . S
C1190 C1192 1.415 . S
C1191 C1190 1.355 . S
C1191 C1193 1.419 . S
C1192 C1190 1.415 . S
C1192 C1197 1.425 . S
C1192 C1199 1.409 . S
C1193 H1185 0.930 . S
C1193 C1191 1.419 . S
C1193 C1194 1.362 . S
C1194 H1186 0.930 . S
C1194 C1193 1.362 . S
C1194 C1197 1.409 . S
C1195 H1187 0.930 . S
C1195 C1196 1.355 . S
C1195 C1197 1.415 . S
C1196 C1195 1.355 . S
C1196 C1198 1.419 . S
C1197 C1192 1.425 . S
C1197 C1194 1.409 . S
C1197 C1195 1.415 . S
C1198 H1188 0.930 . S
C1198 C1196 1.419 . S
C1198 C1199 1.362 . S
C1199 H1189 0.930 . S
C1199 C1192 1.409 . S
C1199 C1198 1.362 . S
H1200 C1206 0.930 . S
H1201 C1209 0.930 . S
H1202 C1210 0.930 . S
H1203 C1211 0.930 . S
H1204 C1214 0.930 . S
H1205 C1215 0.930 . S
C1206 H1200 0.930 . S
C1206 C1207 1.355 . S
C1206 C1208 1.415 . S
C1207 C1206 1.355 . S
C1207 C1209 1.419 . S
C1208 C1206 1.415 . S
C1208 C1213 1.425 . S
C1208 C1215 1.409 . S
C1209 H1201 0.930 . S
C1209 C1207 1.419 . S
C1209 C1210 1.362 . S
C1210 H1202 0.930 . S
C1210 C1209 1.362 . S
C1210 C1213 1.409 . S
C1211 H1203 0.930 . S
C1211 C1212 1.355 . S
C1211 C1213 1.415 . S
C1212 C1211 1.355 . S
C1212 C1214 1.419 . S
C1213 C1208 1.425 . S
C1213 C1210 1.409 . S
C1213 C1211 1.415 . S
C1214 H1204 0.930 . S
C1214 C1212 1.419 . S
C1214 C1215 1.362 . S
C1215 H1205 0.930 . S
C1215 C1208 1.409 . S
C1215 C1214 1.362 . S
H1216 C1222 0.930 . S
H1217 C1225 0.930 . S
H1218 C1226 0.930 . S
H1219 C1227 0.930 . S
H1220 C1230 0.930 . S
H1221 C1231 0.930 . S
C1222 H1216 0.930 . S
C1222 C1223 1.355 . S
C1222 C1224 1.415 1_545 S
C1223 C1222 1.355 . S
C1223 C1225 1.419 1_455 S
C1224 C1222 1.415 1_565 S
C1224 C1229 1.425 1_466 S
C1224 C1231 1.409 1_556 S
C1225 H1217 0.930 . S
C1225 C1223 1.419 1_655 S
C1225 C1226 1.362 . S
C1226 H1218 0.930 . S
C1226 C1225 1.362 . S
C1226 C1229 1.409 1_556 S
C1227 H1219 0.930 . S
C1227 C1228 1.355 . S
C1227 C1229 1.415 1_565 S
C1228 C1227 1.355 . S
C1228 C1230 1.419 1_655 S
C1229 C1224 1.425 1_644 S
C1229 C1226 1.409 1_554 S
C1229 C1227 1.415 1_545 S
C1230 H1220 0.930 . S
C1230 C1228 1.419 1_455 S
C1230 C1231 1.362 . S
C1231 H1221 0.930 . S
C1231 C1224 1.409 1_554 S
C1231 C1230 1.362 . S
H1232 C1238 0.930 1_565 S
H1233 C1241 0.930 . S
H1234 C1242 0.930 . S
H1235 C1243 0.930 1_545 S
H1236 C1246 0.930 . S
H1237 C1247 0.930 . S
C1238 H1232 0.930 1_545 S
C1238 C1239 1.355 . S
C1238 C1240 1.415 1_545 S
C1239 C1238 1.355 . S
C1239 C1241 1.419 . S
C1240 C1238 1.415 1_565 S
C1240 C1245 1.425 1_565 S
C1240 C1247 1.409 . S
C1241 H1233 0.930 . S
C1241 C1239 1.419 . S
C1241 C1242 1.362 . S
C1242 H1234 0.930 . S
C1242 C1241 1.362 . S
C1242 C1245 1.409 . S
C1243 H1235 0.930 1_565 S
C1243 C1244 1.355 . S
C1243 C1245 1.415 1_565 S
C1244 C1243 1.355 . S
C1244 C1246 1.419 . S
C1245 C1240 1.425 1_545 S
C1245 C1242 1.409 . S
C1245 C1243 1.415 1_545 S
C1246 H1236 0.930 . S
C1246 C1244 1.419 . S
C1246 C1247 1.362 . S
C1247 H1237 0.930 . S
C1247 C1240 1.409 . S
C1247 C1246 1.362 . S
C487 N14 0.867 . S
C492 C316 0.835 . S
C503 N44 0.787 . S
C508 N344 0.785 . S
C519 C76 0.897 . S
C524 N254 0.902 . S
C535 N104 0.804 . S
C540 N284 0.802 . S
C551 N126 0.849 . S
C556 C447 0.860 . S
C567 N156 0.804 . S
C572 N456 0.813 . S
C583 C207 0.905 . S
C588 N366 0.892 . S
C599 N216 0.806 . S
C604 N396 0.804 . S
C615 C280 1.172 . S
C620 N6 1.189 . S
C631 C301 1.063 . S
C636 N36 1.042 . S
C647 C340 1.144 . S
C652 C87 1.196 . S
C663 C250 1.620 . S
C668 N96 1.553 . S
C679 N134 1.111 . S
C684 C391 1.194 . S
C695 C430 1.098 . S
C700 N164 0.997 . S
C711 C451 1.120 . S
C716 C196 1.198 . S
C727 C361 1.618 . S
C732 N224 1.557 . S
C743 C40 1.230 . S
C748 N246 1.122 . S
C759 N276 1.067 . S
C764 C61 1.184 . S
C775 C327 1.271 . S
C780 C100 1.183 . S
C791 N336 1.513 . S
C796 C10 1.595 . S
C807 N374 1.120 . S
C812 C151 1.230 . S
C823 C190 1.178 . S
C828 N404 1.062 . S
C839 C211 1.252 . S
C844 C436 1.288 . S
C855 N464 1.561 . S
C860 C121 1.569 . S
C871 C27 1.723 . S
C876 C460 1.634 . S
C887 C57 1.793 . S
C892 C130 1.767 . S
C903 C400 1.060 . S
C908 N66 1.020 . S
C919 C181 1.817 . S
C924 C117 1.839 . S
C935 C136 1.719 . S
C940 C331 1.686 . S
C951 C166 1.802 . S
C956 C1 1.763 . S
C967 C271 1.092 . S
C972 N194 1.108 . S
C983 C70 1.781 . S
C988 C226 1.834 . S
C999 C267 1.723 . S
C1004 C220 1.632 . S
C1015 C297 1.766 . S
C1020 C370 1.776 . S
C1031 C160 1.107 . S
C1036 N306 1.090 . S
C1047 C421 1.836 . S
C1052 C357 1.880 . S
C1063 C376 1.712 . S
C1068 C91 1.641 1_455 S
C1079 C406 1.783 . S
C1084 C241 1.752 . S
C1095 N434 1.120 . S
C1100 C31 1.139 . S
C1111 C310 1.870 . S
C1116 C466 1.880 . S
C1127 C16 2.217 . S
C1132 C387 2.216 . S
C1143 C46 1.539 . S
C1148 C177 1.539 . S
C1159 N74 1.385 . S
C1164 N426 1.382 . S
C1175 C237 2.317 . S
C1180 C106 2.317 . S
C1191 C147 2.217 . S
C1196 C256 2.217 . S
C1207 N314 1.345 . S
C1212 N186 1.344 . S
C1223 C286 1.523 . S
C1228 C417 1.523 . S
C1239 C477 2.389 . S
C1244 C346 2.389 . S
