# Generated by pormake.
# Topology uma, (4)-cn, num edge types: 1
# Building blocks:
#     Node 0, Type 0, BuildingBlock: NAWXER_clean_sbu_0, # of connection points: 4
#     Node 1, Type 0, BuildingBlock: NAWXER_clean_sbu_0, # of connection points: 4
#     Node 2, Type 0, BuildingBlock: NAWXER_clean_sbu_0, # of connection points: 4
#     Node 3, Type 0, BuildingBlock: NAWXER_clean_sbu_0, # of connection points: 4
#     Node 4, Type 0, BuildingBlock: NAWXER_clean_sbu_0, # of connection points: 4
#     Node 5, Type 0, BuildingBlock: NAWXER_clean_sbu_0, # of connection points: 4
#     Node 6, Type 0, BuildingBlock: NAWXER_clean_sbu_0, # of connection points: 4
#     Node 7, Type 0, BuildingBlock: NAWXER_clean_sbu_0, # of connection points: 4
#     Node 8, Type 0, BuildingBlock: NAWXER_clean_sbu_0, # of connection points: 4
#     Node 9, Type 0, BuildingBlock: NAWXER_clean_sbu_0, # of connection points: 4
#     Node 10, Type 0, BuildingBlock: NAWXER_clean_sbu_0, # of connection points: 4
#     Node 11, Type 0, BuildingBlock: NAWXER_clean_sbu_0, # of connection points: 4
#     Node 12, Type 0, BuildingBlock: NAWXER_clean_sbu_0, # of connection points: 4
#     Node 13, Type 0, BuildingBlock: NAWXER_clean_sbu_0, # of connection points: 4
#     Node 14, Type 0, BuildingBlock: NAWXER_clean_sbu_0, # of connection points: 4
#     Node 15, Type 0, BuildingBlock: NAWXER_clean_sbu_0, # of connection points: 4
#     Node 16, Type 0, BuildingBlock: NAWXER_clean_sbu_0, # of connection points: 4
#     Node 17, Type 0, BuildingBlock: NAWXER_clean_sbu_0, # of connection points: 4
#     Node 18, Type 0, BuildingBlock: NAWXER_clean_sbu_0, # of connection points: 4
#     Node 19, Type 0, BuildingBlock: NAWXER_clean_sbu_0, # of connection points: 4
#     Node 20, Type 0, BuildingBlock: NAWXER_clean_sbu_0, # of connection points: 4
#     Node 21, Type 0, BuildingBlock: NAWXER_clean_sbu_0, # of connection points: 4
#     Node 22, Type 0, BuildingBlock: NAWXER_clean_sbu_0, # of connection points: 4
#     Node 23, Type 0, BuildingBlock: NAWXER_clean_sbu_0, # of connection points: 4
#     Node 24, Type 0, BuildingBlock: NAWXER_clean_sbu_0, # of connection points: 4
#     Node 25, Type 0, BuildingBlock: NAWXER_clean_sbu_0, # of connection points: 4
#     Node 26, Type 0, BuildingBlock: NAWXER_clean_sbu_0, # of connection points: 4
#     Node 27, Type 0, BuildingBlock: NAWXER_clean_sbu_0, # of connection points: 4
#     Node 28, Type 0, BuildingBlock: NAWXER_clean_sbu_0, # of connection points: 4
#     Node 29, Type 0, BuildingBlock: NAWXER_clean_sbu_0, # of connection points: 4
#     Node 30, Type 0, BuildingBlock: NAWXER_clean_sbu_0, # of connection points: 4
#     Node 31, Type 0, BuildingBlock: NAWXER_clean_sbu_0, # of connection points: 4
#     Node 32, Type 0, BuildingBlock: NAWXER_clean_sbu_0, # of connection points: 4
#     Node 33, Type 0, BuildingBlock: NAWXER_clean_sbu_0, # of connection points: 4
#     Node 34, Type 0, BuildingBlock: NAWXER_clean_sbu_0, # of connection points: 4
#     Node 35, Type 0, BuildingBlock: NAWXER_clean_sbu_0, # of connection points: 4
#     Edge 36, Type (0, 0), BuildingBlock: EZIPEK_clean_linker_0, # of connection points: 2
#     Edge 37, Type (0, 0), BuildingBlock: EZIPEK_clean_linker_0, # of connection points: 2
#     Edge 38, Type (0, 0), BuildingBlock: EZIPEK_clean_linker_0, # of connection points: 2
#     Edge 39, Type (0, 0), BuildingBlock: EZIPEK_clean_linker_0, # of connection points: 2
#     Edge 40, Type (0, 0), BuildingBlock: EZIPEK_clean_linker_0, # of connection points: 2
#     Edge 41, Type (0, 0), BuildingBlock: EZIPEK_clean_linker_0, # of connection points: 2
#     Edge 42, Type (0, 0), BuildingBlock: EZIPEK_clean_linker_0, # of connection points: 2
#     Edge 43, Type (0, 0), BuildingBlock: EZIPEK_clean_linker_0, # of connection points: 2
#     Edge 44, Type (0, 0), BuildingBlock: EZIPEK_clean_linker_0, # of connection points: 2
#     Edge 45, Type (0, 0), BuildingBlock: EZIPEK_clean_linker_0, # of connection points: 2
#     Edge 46, Type (0, 0), BuildingBlock: EZIPEK_clean_linker_0, # of connection points: 2
#     Edge 47, Type (0, 0), BuildingBlock: EZIPEK_clean_linker_0, # of connection points: 2
#     Edge 48, Type (0, 0), BuildingBlock: EZIPEK_clean_linker_0, # of connection points: 2
#     Edge 49, Type (0, 0), BuildingBlock: EZIPEK_clean_linker_0, # of connection points: 2
#     Edge 50, Type (0, 0), BuildingBlock: EZIPEK_clean_linker_0, # of connection points: 2
#     Edge 51, Type (0, 0), BuildingBlock: EZIPEK_clean_linker_0, # of connection points: 2
#     Edge 52, Type (0, 0), BuildingBlock: EZIPEK_clean_linker_0, # of connection points: 2
#     Edge 53, Type (0, 0), BuildingBlock: EZIPEK_clean_linker_0, # of connection points: 2
#     Edge 54, Type (0, 0), BuildingBlock: EZIPEK_clean_linker_0, # of connection points: 2
#     Edge 55, Type (0, 0), BuildingBlock: EZIPEK_clean_linker_0, # of connection points: 2
#     Edge 56, Type (0, 0), BuildingBlock: EZIPEK_clean_linker_0, # of connection points: 2
#     Edge 57, Type (0, 0), BuildingBlock: EZIPEK_clean_linker_0, # of connection points: 2
#     Edge 58, Type (0, 0), BuildingBlock: EZIPEK_clean_linker_0, # of connection points: 2
#     Edge 59, Type (0, 0), BuildingBlock: EZIPEK_clean_linker_0, # of connection points: 2
#     Edge 60, Type (0, 0), BuildingBlock: EZIPEK_clean_linker_0, # of connection points: 2
#     Edge 61, Type (0, 0), BuildingBlock: EZIPEK_clean_linker_0, # of connection points: 2
#     Edge 62, Type (0, 0), BuildingBlock: EZIPEK_clean_linker_0, # of connection points: 2
#     Edge 63, Type (0, 0), BuildingBlock: EZIPEK_clean_linker_0, # of connection points: 2
#     Edge 64, Type (0, 0), BuildingBlock: EZIPEK_clean_linker_0, # of connection points: 2
#     Edge 65, Type (0, 0), BuildingBlock: EZIPEK_clean_linker_0, # of connection points: 2
#     Edge 66, Type (0, 0), BuildingBlock: EZIPEK_clean_linker_0, # of connection points: 2
#     Edge 67, Type (0, 0), BuildingBlock: EZIPEK_clean_linker_0, # of connection points: 2
#     Edge 68, Type (0, 0), BuildingBlock: EZIPEK_clean_linker_0, # of connection points: 2
#     Edge 69, Type (0, 0), BuildingBlock: EZIPEK_clean_linker_0, # of connection points: 2
#     Edge 70, Type (0, 0), BuildingBlock: EZIPEK_clean_linker_0, # of connection points: 2
#     Edge 71, Type (0, 0), BuildingBlock: EZIPEK_clean_linker_0, # of connection points: 2
#     Edge 72, Type (0, 0), BuildingBlock: EZIPEK_clean_linker_0, # of connection points: 2
#     Edge 73, Type (0, 0), BuildingBlock: EZIPEK_clean_linker_0, # of connection points: 2
#     Edge 74, Type (0, 0), BuildingBlock: EZIPEK_clean_linker_0, # of connection points: 2
#     Edge 75, Type (0, 0), BuildingBlock: EZIPEK_clean_linker_0, # of connection points: 2
#     Edge 76, Type (0, 0), BuildingBlock: EZIPEK_clean_linker_0, # of connection points: 2
#     Edge 77, Type (0, 0), BuildingBlock: EZIPEK_clean_linker_0, # of connection points: 2
#     Edge 78, Type (0, 0), BuildingBlock: EZIPEK_clean_linker_0, # of connection points: 2
#     Edge 79, Type (0, 0), BuildingBlock: EZIPEK_clean_linker_0, # of connection points: 2
#     Edge 80, Type (0, 0), BuildingBlock: EZIPEK_clean_linker_0, # of connection points: 2
#     Edge 81, Type (0, 0), BuildingBlock: EZIPEK_clean_linker_0, # of connection points: 2
#     Edge 82, Type (0, 0), BuildingBlock: EZIPEK_clean_linker_0, # of connection points: 2
#     Edge 83, Type (0, 0), BuildingBlock: EZIPEK_clean_linker_0, # of connection points: 2
#     Edge 84, Type (0, 0), BuildingBlock: EZIPEK_clean_linker_0, # of connection points: 2
#     Edge 85, Type (0, 0), BuildingBlock: EZIPEK_clean_linker_0, # of connection points: 2
#     Edge 86, Type (0, 0), BuildingBlock: EZIPEK_clean_linker_0, # of connection points: 2
#     Edge 87, Type (0, 0), BuildingBlock: EZIPEK_clean_linker_0, # of connection points: 2
#     Edge 88, Type (0, 0), BuildingBlock: EZIPEK_clean_linker_0, # of connection points: 2
#     Edge 89, Type (0, 0), BuildingBlock: EZIPEK_clean_linker_0, # of connection points: 2
#     Edge 90, Type (0, 0), BuildingBlock: EZIPEK_clean_linker_0, # of connection points: 2
#     Edge 91, Type (0, 0), BuildingBlock: EZIPEK_clean_linker_0, # of connection points: 2
#     Edge 92, Type (0, 0), BuildingBlock: EZIPEK_clean_linker_0, # of connection points: 2
#     Edge 93, Type (0, 0), BuildingBlock: EZIPEK_clean_linker_0, # of connection points: 2
#     Edge 94, Type (0, 0), BuildingBlock: EZIPEK_clean_linker_0, # of connection points: 2
#     Edge 95, Type (0, 0), BuildingBlock: EZIPEK_clean_linker_0, # of connection points: 2
#     Edge 96, Type (0, 0), BuildingBlock: EZIPEK_clean_linker_0, # of connection points: 2
#     Edge 97, Type (0, 0), BuildingBlock: EZIPEK_clean_linker_0, # of connection points: 2
#     Edge 98, Type (0, 0), BuildingBlock: EZIPEK_clean_linker_0, # of connection points: 2
#     Edge 99, Type (0, 0), BuildingBlock: EZIPEK_clean_linker_0, # of connection points: 2
#     Edge 100, Type (0, 0), BuildingBlock: EZIPEK_clean_linker_0, # of connection points: 2
#     Edge 101, Type (0, 0), BuildingBlock: EZIPEK_clean_linker_0, # of connection points: 2
#     Edge 102, Type (0, 0), BuildingBlock: EZIPEK_clean_linker_0, # of connection points: 2
#     Edge 103, Type (0, 0), BuildingBlock: EZIPEK_clean_linker_0, # of connection points: 2
#     Edge 104, Type (0, 0), BuildingBlock: EZIPEK_clean_linker_0, # of connection points: 2
#     Edge 105, Type (0, 0), BuildingBlock: EZIPEK_clean_linker_0, # of connection points: 2
#     Edge 106, Type (0, 0), BuildingBlock: EZIPEK_clean_linker_0, # of connection points: 2
#     Edge 107, Type (0, 0), BuildingBlock: EZIPEK_clean_linker_0, # of connection points: 2
# Relax obj value: 0.097
# Max RMSD: 0.105
# Mean RMSD: 0.098
data_MOF--net-uma--node1-NAWXER_clean_sbu_0--edge1-EZIPEK_clean_linker_0
_symmetry_space_group_name_H-M    P1
_symmetry_Int_Tables_number       1
_symmetry_cell_setting            triclinic
loop_
_symmetry_equiv_pos_as_xyz
'x, y, z'
_cell_length_a     56.165651
_cell_length_b     56.138474
_cell_length_c     28.838312
_cell_angle_alpha  89.99226
_cell_angle_beta   89.960089
_cell_angle_gamma 119.96842
loop_
_atom_site_label
_atom_site_type_symbol
_atom_site_fract_x
_atom_site_fract_y
_atom_site_fract_z
_atom_type_partial_charge
C0 C 0.11085 0.40446 0.08687 0.0
C1 C 0.10439 0.37146 0.92653 0.0
O2 O 0.11928 0.42335 0.05608 0.0
Zn3 Zn 0.12513 0.42805 0.98318 0.0
O4 O 0.10645 0.3806 0.07575 0.0
Zn5 Zn 0.11116 0.38694 1.00861 0.0
O6 O 0.15458 0.40994 0.99815 0.0
O7 O 0.16598 0.4516 0.9749 0.0
O8 O 0.09971 0.3572 0.9633 0.0
O9 O 0.1136 0.39742 0.92978 0.0
O10 O 0.09713 0.43972 0.97431 0.0
O11 O 0.07951 0.3971 0.99985 0.0
C12 C 0.17318 0.43406 0.98559 0.0
C13 C 0.07642 0.41741 0.98869 0.0
C14 C 0.68162 0.76394 0.95431 0.0
C15 C 0.64269 0.73275 0.11717 0.0
O16 O 0.65693 0.74424 0.95811 0.0
Zn17 Zn 0.62627 0.72337 1.00892 0.0
O18 O 0.69462 0.77537 0.99171 0.0
Zn19 Zn 0.6664 0.75267 0.03998 0.0
O20 O 0.66236 0.71375 0.02608 0.0
O21 O 0.62147 0.68516 0.99786 0.0
O22 O 0.6678 0.75098 0.10985 0.0
O23 O 0.62668 0.72299 0.08219 0.0
O24 O 0.60265 0.74117 0.99686 0.0
O25 O 0.64146 0.7704 0.03049 0.0
C26 C 0.64516 0.68974 0.01132 0.0
C27 C 0.61841 0.76523 0.01339 0.0
C28 C 0.28899 0.85891 0.98157 0.0
C29 C 0.35859 0.96264 0.97518 0.0
O30 O 0.28231 0.87585 0.99807 0.0
Zn31 Zn 0.29771 0.91839 1.00586 0.0
O32 O 0.3131 0.86825 0.96441 0.0
Zn33 Zn 0.3282 0.9092 0.97299 0.0
O34 O 0.33253 0.91211 0.04485 0.0
O35 O 0.30422 0.92401 0.07528 0.0
O36 O 0.36458 0.94465 0.96064 0.0
O37 O 0.33421 0.9543 0.9893 0.0
O38 O 0.27297 0.92241 0.9595 0.0
O39 O 0.30297 0.91394 0.92493 0.0
C40 C 0.32446 0.9197 0.08014 0.0
C41 C 0.28286 0.91838 0.92219 0.0
C42 C 0.41731 0.08075 1.00037 0.0
C43 C 0.43702 0.17857 0.02025 0.0
O44 O 0.39856 0.08603 0.98876 0.0
Zn45 Zn 0.39064 0.11872 0.98487 0.0
O46 O 0.43933 0.09981 0.01889 0.0
Zn47 Zn 0.43047 0.13057 0.01712 0.0
O48 O 0.39846 0.11652 0.06711 0.0
O49 O 0.35971 0.10581 0.03168 0.0
O50 O 0.45298 0.17013 0.03511 0.0
O51 O 0.4142 0.16142 1.00127 0.0
O52 O 0.3914 0.11937 0.91479 0.0
O53 O 0.43236 0.13547 0.94443 0.0
C54 C 0.37268 0.10785 0.06928 0.0
C55 C 0.41725 0.12931 0.90853 0.0
C56 C 0.92915 0.28406 0.07685 0.0
C57 C 0.91269 0.31924 0.92719 0.0
O58 O 0.92169 0.30213 0.07873 0.0
Zn59 Zn 0.90978 0.32482 0.03604 0.0
O60 O 0.93115 0.27475 0.03742 0.0
Zn61 Zn 0.91987 0.29662 0.99825 0.0
O62 O 0.95443 0.33537 1.00895 0.0
O63 O 0.94322 0.36323 0.04338 0.0
O64 O 0.91942 0.30059 0.92973 0.0
O65 O 0.90694 0.32744 0.96438 0.0
O66 O 0.86958 0.30709 0.05389 0.0
O67 O 0.87791 0.27779 0.01663 0.0
C68 C 0.96154 0.35934 0.02392 0.0
C69 C 0.86089 0.283 0.03722 0.0
C70 C 0.74689 0.61842 0.92932 0.0
C71 C 0.78239 0.65875 0.09059 0.0
O72 O 0.73483 0.60361 0.96467 0.0
Zn73 Zn 0.73486 0.60564 0.03773 0.0
O74 O 0.76753 0.64245 0.93603 0.0
Zn75 Zn 0.76837 0.64318 1.0065 0.0
O76 O 0.77948 0.61315 0.0196 0.0
O77 O 0.74554 0.57664 0.05243 0.0
O78 O 0.79443 0.67064 0.05279 0.0
O79 O 0.76002 0.63568 0.08759 0.0
O80 O 0.69927 0.60697 0.04301 0.0
O81 O 0.73254 0.64632 0.01757 0.0
C82 C 0.77032 0.58936 0.0374 0.0
C83 C 0.70724 0.63147 0.02882 0.0
C84 C 0.97362 0.61735 0.02242 0.0
C85 C 0.8719 0.58852 0.03518 0.0
O86 O 0.95592 0.59539 0.0433 0.0
Zn87 Zn 0.92195 0.59903 0.03439 0.0
O88 O 0.96553 0.63306 1.00551 0.0
Zn89 Zn 0.92969 0.63498 0.99271 0.0
O90 O 0.93998 0.66923 0.02779 0.0
O91 O 0.93327 0.6349 0.07369 0.0
O92 O 0.88755 0.6101 0.01155 0.0
O93 O 0.88242 0.57534 0.05431 0.0
O94 O 0.91873 0.59131 0.96278 0.0
O95 O 0.92978 0.62921 0.92438 0.0
C96 C 0.9396 0.65998 0.06844 0.0
C97 C 0.92388 0.60405 0.92427 0.0
C98 C 0.37486 0.28701 0.08233 0.0
C99 C 0.40617 0.31618 0.92212 0.0
O100 O 0.36025 0.27711 0.04604 0.0
Zn101 Zn 0.3893 0.29607 0.99975 0.0
O102 O 0.40062 0.3041 0.07855 0.0
Zn103 Zn 0.43051 0.3234 0.0249 0.0
O104 O 0.44221 0.36287 0.03529 0.0
O105 O 0.39924 0.33761 0.01133 0.0
O106 O 0.42513 0.32576 0.95275 0.0
O107 O 0.38249 0.29617 0.93263 0.0
O108 O 0.4126 0.27568 1.00692 0.0
O109 O 0.45394 0.30612 0.03127 0.0
C110 C 0.41958 0.36102 0.02222 0.0
C111 C 0.43673 0.28148 0.01965 0.0
C112 C 0.75082 0.10743 0.10641 0.0
C113 C 0.72893 0.11126 0.94237 0.0
O114 O 0.763 0.10403 0.07187 0.0
Zn115 Zn 0.74552 0.11351 0.02205 0.0
O116 O 0.73339 0.11536 0.09952 0.0
Zn117 Zn 0.71727 0.12719 0.04345 0.0
O118 O 0.6774 0.09863 0.05068 0.0
O119 O 0.70357 0.08136 0.03 0.0
O120 O 0.71795 0.12017 0.97138 0.0
O121 O 0.7482 0.10708 0.95573 0.0
O122 O 0.76603 0.15713 0.02732 0.0
O123 O 0.73599 0.16853 0.05104 0.0
C124 C 0.67978 0.07783 0.03945 0.0
C125 C 0.76072 0.17584 0.03988 0.0
C126 C 0.63915 0.934 0.11178 0.0
C127 C 0.67596 0.93683 0.95518 0.0
O128 O 0.6637 0.93939 0.10369 0.0
Zn129 Zn 0.65897 0.93215 0.03694 0.0
O130 O 0.62114 0.92395 0.07948 0.0
Zn131 Zn 0.61864 0.91632 1.00668 0.0
O132 O 0.5986 0.87485 0.99841 0.0
O133 O 0.63791 0.8886 0.0334 0.0
O134 O 0.65023 0.9285 0.9565 0.0
O135 O 0.68918 0.94147 0.99314 0.0
O136 O 0.64793 0.96276 0.02124 0.0
O137 O 0.6061 0.94328 0.9917 0.0
C138 C 0.61593 0.86898 0.0159 0.0
C139 C 0.62771 0.96488 1.00589 0.0
C140 C 0.12199 0.71836 0.09371 0.0
C141 C 0.11526 0.74766 0.93515 0.0
O142 O 0.11785 0.73823 0.08441 0.0
Zn143 Zn 0.12394 0.73943 0.01677 0.0
O144 O 0.13113 0.70913 0.06196 0.0
Zn145 Zn 0.13765 0.71263 0.98891 0.0
O146 O 0.1784 0.73099 0.97903 0.0
O147 O 0.16768 0.76089 1.0068 0.0
O148 O 0.12461 0.73105 0.93733 0.0
O149 O 0.11182 0.75785 0.97234 0.0
O150 O 0.09237 0.69781 1.00498 0.0
O151 O 0.11 0.67319 0.97744 0.0
C152 C 0.18594 0.75551 0.99169 0.0
C153 C 0.08923 0.67468 0.99194 0.0
C154 C 0.28005 0.36864 0.9335 0.0
C155 C 0.316 0.41569 0.08642 0.0
O156 O 0.26985 0.35683 0.97227 0.0
Zn157 Zn 0.29217 0.38816 0.01442 0.0
O158 O 0.29881 0.39386 0.93323 0.0
Zn159 Zn 0.31965 0.42716 0.97845 0.0
O160 O 0.35857 0.43349 0.97101 0.0
O161 O 0.33095 0.3928 1.00033 0.0
O162 O 0.3229 0.43055 0.05023 0.0
O163 O 0.29747 0.39032 0.08312 0.0
O164 O 0.27254 0.41114 1.00317 0.0
O165 O 0.29999 0.44847 0.96387 0.0
C166 C 0.35507 0.41073 0.98766 0.0
C167 C 0.27649 0.43291 0.98251 0.0
C168 C 0.86675 0.7739 0.32767 0.0
C169 C 0.76303 0.72698 0.31617 0.0
O170 O 0.85248 0.751 0.34859 0.0
Zn171 Zn 0.8115 0.72131 0.36173 0.0
O172 O 0.85437 0.78552 0.30944 0.0
Zn173 Zn 0.81454 0.75732 0.3223 0.0
O174 O 0.80865 0.76172 0.39407 0.0
O175 O 0.80388 0.72523 0.43 0.0
O176 O 0.77763 0.75143 0.30006 0.0
O177 O 0.77485 0.71617 0.33806 0.0
O178 O 0.80954 0.69114 0.3197 0.0
O179 O 0.81262 0.72586 0.27986 0.0
C180 C 0.80323 0.74775 0.43152 0.0
C181 C 0.81048 0.70215 0.28021 0.0
C182 C 0.28547 0.04745 0.41997 0.0
C183 C 0.32709 0.08017 0.25828 0.0
O184 O 0.26966 0.03927 0.38468 0.0
Zn185 Zn 0.26958 0.0435 0.31131 0.0
O186 O 0.3107 0.06534 0.41248 0.0
Zn187 Zn 0.31007 0.06941 0.34279 0.0
O188 O 0.28824 0.09106 0.33418 0.0
O189 O 0.24807 0.06311 0.30276 0.0
O190 O 0.34066 0.08881 0.29609 0.0
O191 O 0.30118 0.06356 0.26047 0.0
O192 O 0.25895 1.00415 0.2989 0.0
O193 O 0.30017 0.02864 0.3299 0.0
C194 C 0.26521 0.08694 0.31839 0.0
C195 C 0.28093 1.00569 0.31498 0.0
C196 C 0.95104 0.25793 0.26169 0.0
C197 C 0.98178 0.25541 0.4216 0.0
O198 O 0.96736 0.24828 0.26489 0.0
Zn199 Zn 0.98651 0.23712 0.31779 0.0
O200 O 0.94212 0.2634 0.29849 0.0
Zn201 Zn 0.96106 0.25285 0.34447 0.0
O202 O 1.00299 0.28359 0.33101 0.0
O203 O 0.02625 0.26431 0.30465 0.0
O204 O 0.9626 0.26048 0.41166 0.0
O205 O 0.9904 0.24535 0.39036 0.0
O206 O 0.96693 0.19573 0.31298 0.0
O207 O 0.93879 0.20876 0.34064 0.0
C208 C 0.02574 0.28587 0.31761 0.0
C209 C 0.943 0.18938 0.3275 0.0
C210 C 0.08625 0.39903 0.35255 0.0
C211 C 0.10412 0.49748 0.35038 0.0
O212 O 0.06641 0.40291 0.3416 0.0
Zn213 Zn 0.05733 0.43526 0.33211 0.0
O214 O 0.10926 0.41962 0.36498 0.0
Zn215 Zn 0.09885 0.4489 0.35647 0.0
O216 O 0.06977 0.43788 0.41127 0.0
O217 O 0.02987 0.42704 0.38047 0.0
O218 O 0.1217 0.49062 0.36283 0.0
O219 O 0.08025 0.47846 0.33821 0.0
O220 O 0.05024 0.42985 0.26494 0.0
O221 O 0.09304 0.44269 0.28409 0.0
C222 C 0.04449 0.43079 0.41656 0.0
C223 C 0.07416 0.43452 0.25341 0.0
C224 C 0.60612 0.62248 0.42929 0.0
C225 C 0.59918 0.67274 0.29034 0.0
O226 O 0.60291 0.64345 0.42945 0.0
Zn227 Zn 0.59616 0.64634 0.36264 0.0
O228 O 0.60517 0.61164 0.38979 0.0
Zn229 Zn 0.59797 0.6166 0.318 0.0
O230 O 0.63337 0.62372 0.29145 0.0
O231 O 0.63585 0.65619 0.33822 0.0
O232 O 0.59813 0.64983 0.28223 0.0
O233 O 0.5964 0.67857 0.33208 0.0
O234 O 0.55573 0.61087 0.3515 0.0
O235 O 0.56211 0.5838 0.30435 0.0
C236 C 0.64745 0.6472 0.31085 0.0
C237 C 0.54577 0.58838 0.32832 0.0
C238 C 0.38771 0.95915 0.25243 0.0
C239 C 0.41946 1.0118 0.4037 0.0
O240 O 0.38036 0.94524 0.28997 0.0
Zn241 Zn 0.38451 0.95016 0.36341 0.0
O242 O 0.40372 0.98515 0.25583 0.0
Zn243 Zn 0.40753 0.98817 0.32444 0.0
O244 O 0.4314 0.96891 0.33725 0.0
O245 O 0.40667 0.93162 0.37846 0.0
O246 O 0.42705 0.0222 0.36328 0.0
O247 O 0.40343 0.98578 0.40704 0.0
O248 O 0.34457 0.93749 0.37559 0.0
O249 O 0.36587 0.97645 0.33666 0.0
C250 C 0.42945 0.94801 0.35859 0.0
C251 C 0.34387 0.95731 0.35488 0.0
C252 C 0.60172 0.99804 0.43121 0.0
C253 C 0.60003 0.96944 0.26912 0.0
O254 O 0.60805 1.0138 0.39596 0.0
Zn255 Zn 0.59753 0.98604 0.34681 0.0
O256 O 0.59162 0.97223 0.42532 0.0
Zn257 Zn 0.5791 0.94369 0.37055 0.0
O258 O 0.60492 0.92912 0.38251 0.0
O259 O 0.62624 0.97246 0.35966 0.0
O260 O 0.58844 0.94987 0.29861 0.0
O261 O 0.60635 0.99384 0.28086 0.0
O262 O 0.5541 0.96678 0.3476 0.0
O263 O 0.53755 0.92549 0.3765 0.0
C264 C 0.62723 0.95107 0.37153 0.0
C265 C 0.53329 0.94448 0.36162 0.0
C266 C 0.09539 0.68828 0.35665 0.0
C267 C 0.10457 0.60267 0.34908 0.0
O268 O 0.11709 0.68813 0.3699 0.0
Zn269 Zn 0.10327 0.64811 0.35731 0.0
O270 O 0.07457 0.66589 0.34317 0.0
Zn271 Zn 0.06205 0.62383 0.32968 0.0
O272 O 0.03253 0.60553 0.37637 0.0
O273 O 0.07271 0.63077 0.40995 0.0
O274 O 0.08208 0.60022 0.33376 0.0
O275 O 0.12273 0.62614 0.3645 0.0
O276 O 0.09985 0.65231 0.28455 0.0
O277 O 0.05684 0.62594 0.26236 0.0
C278 C 0.04676 0.61464 0.41332 0.0
C279 C 0.0815 0.64443 0.25289 0.0
C280 C 0.34233 0.40265 0.36112 0.0
C281 C 0.43302 0.49452 0.3467 0.0
O282 O 0.34399 0.42463 0.37779 0.0
Zn283 Zn 0.38403 0.4515 0.36093 0.0
O284 O 0.36339 0.40399 0.34208 0.0
Zn285 Zn 0.40394 0.43081 0.32325 0.0
O286 O 0.42352 0.41872 0.3672 0.0
O287 O 0.40211 0.43643 0.40532 0.0
O288 O 0.43062 0.47308 0.32726 0.0
O289 O 0.41223 0.49244 0.36879 0.0
O290 O 0.378 0.44848 0.28966 0.0
O291 O 0.39639 0.42669 0.2554 0.0
C292 C 0.41716 0.42545 0.40573 0.0
C293 C 0.38222 0.43882 0.25272 0.0
C294 C 0.33114 0.26242 0.26962 0.0
C295 C 0.29646 0.25327 0.42952 0.0
O296 O 0.3451 0.26579 0.30632 0.0
Zn297 Zn 0.31509 0.25406 0.35149 0.0
O298 O 0.30532 0.25354 0.27258 0.0
Zn299 Zn 0.27443 0.2409 0.32465 0.0
O300 O 0.26318 0.26931 0.31583 0.0
O301 O 0.30526 0.28629 0.34339 0.0
O302 O 0.27818 0.24553 0.39779 0.0
O303 O 0.32049 0.25787 0.41919 0.0
O304 O 0.29231 0.21049 0.34048 0.0
O305 O 0.25155 0.20014 0.31412 0.0
C306 C 0.28535 0.28982 0.33112 0.0
C307 C 0.26851 0.19239 0.32594 0.0
C308 C 0.83897 0.0852 0.34073 0.0
C309 C 0.74081 1.00433 0.34377 0.0
O310 O 0.83157 0.06065 0.3281 0.0
Zn311 Zn 0.79067 0.04191 0.33965 0.0
O312 O 0.8207 0.09008 0.35744 0.0
Zn313 Zn 0.77748 0.06865 0.37131 0.0
O314 O 0.77499 0.06828 0.43944 0.0
O315 O 0.7866 0.0387 0.4126 0.0
O316 O 0.74512 0.02737 0.35984 0.0
O317 O 0.76103 1.00274 0.32666 0.0
O318 O 0.77895 0.06285 0.29216 0.0
O319 O 0.76485 0.08776 0.32999 0.0
C320 C 0.77965 0.04855 0.44659 0.0
C321 C 0.76934 0.07925 0.29176 0.0
C322 C 0.04321 0.74852 0.31788 0.0
C323 C 0.96787 0.77263 0.31956 0.0
O324 O 0.04645 0.77184 0.30555 0.0
Zn325 Zn 1.00732 0.76256 0.31372 0.0
O326 O 1.01908 0.729 0.32788 0.0
Zn327 Zn 0.97779 0.72143 0.33544 0.0
O328 O 0.95827 0.69425 0.28632 0.0
O329 O 0.98748 0.73487 0.25715 0.0
O330 O 0.96028 0.74773 0.33056 0.0
O331 O 0.99289 0.78864 0.30822 0.0
O332 O 1.00604 0.75508 0.38663 0.0
O333 O 0.97441 0.71222 0.40204 0.0
C334 C 0.96926 0.70958 0.25108 0.0
C335 C 0.99402 0.73537 0.41577 0.0
C336 C 0.46027 0.12029 0.7293 0.0
C337 C 0.45472 0.07556 0.57777 0.0
O338 O 0.46394 0.13178 0.68973 0.0
Zn339 Zn 0.46447 0.10233 0.65243 0.0
O340 O 0.46065 0.09774 0.73263 0.0
Zn341 Zn 0.46068 0.06728 0.68757 0.0
O342 O 0.49515 0.06708 0.69952 0.0
O343 O 0.50435 0.10545 0.66439 0.0
O344 O 0.45435 0.06166 0.61341 0.0
O345 O 0.46079 0.10047 0.58372 0.0
O346 O 0.42329 0.07091 0.67146 0.0
O347 O 0.42503 0.03739 0.70901 0.0
C348 C 0.51283 0.08995 0.68198 0.0
C349 C 0.4112 0.04818 0.69388 0.0
C350 C 0.94075 0.37584 0.7497 0.0
C351 C 0.98954 0.4114 0.59688 0.0
O352 O 0.92634 0.36719 0.71311 0.0
Zn353 Zn 0.93097 0.36939 0.64165 0.0
O354 O 0.96588 0.39497 0.74631 0.0
Zn355 Zn 0.96975 0.399 0.67748 0.0
O356 O 0.94578 0.41716 0.65969 0.0
O357 O 0.90812 0.38699 0.62375 0.0
O358 O 1.00183 0.42094 0.63556 0.0
O359 O 0.96453 0.39231 0.59826 0.0
O360 O 0.92775 0.33158 0.63443 0.0
O361 O 0.96697 0.36084 0.66671 0.0
C362 C 0.92335 0.41143 0.63932 0.0
C363 C 0.95064 0.33654 0.65258 0.0
C364 C 0.60499 0.53732 0.69728 0.0
C365 C 0.67466 0.63934 0.70788 0.0
O366 O 0.60119 0.55539 0.7175 0.0
Zn367 Zn 0.63723 0.58916 0.70615 0.0
O368 O 0.6286 0.54488 0.67883 0.0
Zn369 Zn 0.66753 0.58285 0.66826 0.0
O370 O 0.69669 0.58268 0.70965 0.0
O371 O 0.66453 0.58388 0.75048 0.0
O372 O 0.6812 0.62328 0.6878 0.0
O373 O 0.65014 0.6289 0.72359 0.0
O374 O 0.63512 0.59328 0.63385 0.0
O375 O 0.66812 0.5899 0.59944 0.0
C376 C 0.68781 0.58494 0.74935 0.0
C377 C 0.64784 0.59421 0.59659 0.0
C378 C 0.72861 0.7864 0.76366 0.0
C379 C 0.76819 0.78101 0.60452 0.0
O380 O 0.75426 0.7956 0.75887 0.0
Zn381 Zn 0.78407 0.79857 0.71118 0.0
O382 O 0.71378 0.77885 0.72684 0.0
Zn383 Zn 0.74362 0.78643 0.67913 0.0
O384 O 0.74662 0.75366 0.70443 0.0
O385 O 0.78616 0.7657 0.73783 0.0
O386 O 0.74379 0.77683 0.61062 0.0
O387 O 0.78478 0.79052 0.63889 0.0
O388 O 0.80861 0.83943 0.71724 0.0
O389 O 0.7691 0.83012 0.6857 0.0
C390 C 0.76194 0.7469 0.72627 0.0
C391 C 0.7928 0.84783 0.70138 0.0
C392 C 0.25069 0.92454 0.73343 0.0
C393 C 0.25047 0.97578 0.58625 0.0
O394 O 0.24539 0.94406 0.73579 0.0
Zn395 Zn 0.23948 0.97156 0.69516 0.0
O396 O 0.25306 0.91584 0.69348 0.0
Zn397 Zn 0.246 0.94127 0.65324 0.0
O398 O 0.2814 0.97474 0.67599 0.0
O399 O 0.2758 1.00512 0.71488 0.0
O400 O 0.25236 0.95394 0.58551 0.0
O401 O 0.24385 0.98244 0.62442 0.0
O402 O 0.19893 0.95582 0.70874 0.0
O403 O 0.20417 0.92575 0.6674 0.0
C404 C 0.29194 0.99755 0.69705 0.0
C405 C 0.18843 0.93221 0.68924 0.0
C406 C 0.08957 0.26117 0.6813 0.0
C407 C 1.01015 0.27965 0.68267 0.0
O408 O 0.09548 0.2851 0.66683 0.0
Zn409 Zn 0.07498 0.30862 0.65861 0.0
O410 O 0.06502 0.24468 0.69445 0.0
Zn411 Zn 0.04764 0.26812 0.68588 0.0
O412 O 0.04494 0.27194 0.61294 0.0
O413 O 0.07445 0.3144 0.59126 0.0
O414 O 1.00827 0.25717 0.69691 0.0
O415 O 0.03352 0.29945 0.67008 0.0
O416 O 0.09403 0.33866 0.70349 0.0
O417 O 0.06696 0.29901 0.73806 0.0
C418 C 0.05459 0.2905 0.5815 0.0
C419 C 0.084 0.32485 0.74055 0.0
C420 C 0.25573 0.31741 0.75013 0.0
C421 C 0.25644 0.28447 0.59075 0.0
O422 O 0.26101 0.33216 0.71363 0.0
Zn423 Zn 0.2516 0.30347 0.66634 0.0
O424 O 0.24694 0.29169 0.74597 0.0
Zn425 Zn 0.23986 0.26194 0.69491 0.0
O426 O 0.27317 0.25671 0.71133 0.0
O427 O 0.28355 0.29651 0.68173 0.0
O428 O 0.24787 0.26623 0.62268 0.0
O429 O 0.25947 0.30818 0.59928 0.0
O430 O 0.20867 0.27963 0.67243 0.0
O431 O 0.19809 0.23886 0.69948 0.0
C432 C 0.29165 0.2806 0.69732 0.0
C433 C 0.19042 0.2557 0.68581 0.0
C434 C 0.7278 0.95397 0.77283 0.0
C435 C 0.75515 0.97968 0.60964 0.0
O436 O 0.71266 0.94227 0.73759 0.0
Zn437 Zn 0.74009 0.95983 0.68824 0.0
O438 O 0.75339 0.9709 0.76672 0.0
Zn439 Zn 0.78155 0.99123 0.71167 0.0
O440 O 0.78705 0.03014 0.72285 0.0
O441 O 0.74637 0.99929 0.6983 0.0
O442 O 0.77463 0.9913 0.63918 0.0
O443 O 0.73221 0.95906 0.62178 0.0
O444 O 0.76583 0.94251 0.69437 0.0
O445 O 0.80669 0.9751 0.71679 0.0
C446 C 0.76273 0.02401 0.71031 0.0
C447 C 0.79057 0.94996 0.70574 0.0
C448 C 1.009 0.72979 0.68959 0.0
C449 C 0.08649 0.82844 0.68901 0.0
O450 O 1.00668 0.75015 0.70364 0.0
Zn451 Zn 0.04573 0.77932 0.69299 0.0
O452 O 0.03261 0.73383 0.67722 0.0
Zn453 Zn 0.07396 0.76699 0.6671 0.0
O454 O 0.0942 0.75797 0.71276 0.0
O455 O 0.06626 0.76983 0.74616 0.0
O456 O 0.09309 0.81078 0.67545 0.0
O457 O 0.06167 0.81998 0.701 0.0
O458 O 0.04445 0.77341 0.61977 0.0
O459 O 0.07513 0.76168 0.59972 0.0
C460 C 0.08424 0.76225 0.74943 0.0
C461 C 0.05531 0.76555 0.58871 0.0
C462 C 0.94661 0.56862 0.74901 0.0
C463 C 0.99296 0.58681 0.59471 0.0
O464 O 0.97171 0.5754 0.74239 0.0
Zn465 Zn 0.97214 0.57588 0.67395 0.0
O466 O 0.9316 0.56449 0.71338 0.0
Zn467 Zn 0.9334 0.56545 0.64006 0.0
O468 O 0.91012 0.52513 0.62404 0.0
O469 O 0.94892 0.53325 0.65639 0.0
O470 O 0.96714 0.57829 0.5938 0.0
O471 O 1.00466 0.58873 0.63357 0.0
O472 O 0.96532 0.60953 0.66637 0.0
O473 O 0.92592 0.59694 0.63157 0.0
C474 C 0.92584 0.51621 0.63804 0.0
C475 C 0.94784 0.61573 0.65084 0.0
C476 C 0.43962 0.38976 0.76459 0.0
C477 C 0.44146 0.41189 0.59718 0.0
O478 O 0.43362 0.40781 0.75083 0.0
Zn479 Zn 0.444 0.4088 0.68472 0.0
O480 O 0.45084 0.3807 0.73655 0.0
Zn481 Zn 0.46089 0.38072 0.66669 0.0
O482 O 0.50293 0.40373 0.66847 0.0
O483 O 0.4869 0.43134 0.68515 0.0
O484 O 0.45222 0.39731 0.6081 0.0
O485 O 0.43427 0.42279 0.62921 0.0
O486 O 0.41559 0.368 0.67417 0.0
O487 O 0.43017 0.33974 0.65646 0.0
C488 C 0.5074 0.42785 0.67872 0.0
C489 C 0.4099 0.34365 0.66465 0.0
C490 C 0.62792 0.04022 0.62025 0.0
C491 C 0.65915 0.07387 0.77996 0.0
O492 O 0.61867 0.02517 0.65646 0.0
Zn493 Zn 0.63676 0.054 0.7041 0.0
O494 O 0.64397 0.06607 0.62475 0.0
Zn495 Zn 0.66536 0.09603 0.67564 0.0
O496 O 0.70452 0.10307 0.66048 0.0
O497 O 0.67645 0.06282 0.69018 0.0
O498 O 0.66838 0.092 0.74785 0.0
O499 O 0.63942 0.04963 0.77137 0.0
O500 O 0.61653 0.07671 0.69732 0.0
O501 O 0.64557 0.11782 0.66988 0.0
C502 C 0.7003 0.07967 0.67503 0.0
C503 C 0.62131 0.10032 0.68362 0.0
C504 C 1.00943 0.39649 0.05057 0.0
C505 C 0.99079 0.38188 0.01381 0.0
C506 C 0.02983 0.40315 0.95827 0.0
C507 C 0.04837 0.41372 0.99531 0.0
N508 N 0.05689 0.42774 0.07466 0.0
N509 N 0.98495 0.36953 0.93201 0.0
C510 C 0.03838 0.41272 0.04092 0.0
C511 C 1.00142 0.38522 0.96736 0.0
N512 N 0.99981 0.3929 0.09505 0.0
N513 N 0.03961 0.41018 0.91405 0.0
H514 H 0.9642 0.35601 0.93596 0.0
H515 H 0.9922 0.3682 0.89943 0.0
H516 H 0.06046 0.42318 0.90709 0.0
H517 H 0.02702 0.40568 0.88506 0.0
H518 H 1.01227 0.40035 0.12421 0.0
H519 H 0.97901 0.38129 0.1033 0.0
H520 H 0.05165 0.43006 0.10826 0.0
H521 H 0.07786 0.43982 0.06754 0.0
C522 C 0.6651 0.63686 0.04999 0.0
C523 C 0.68778 0.64285 0.02013 0.0
C524 C 0.67821 0.67596 0.97813 0.0
C525 C 0.65533 0.66934 1.00718 0.0
N526 N 0.622 0.63683 0.06008 0.0
N527 N 0.70958 0.66278 0.94601 0.0
C528 C 0.64714 0.64755 0.03954 0.0
C529 C 0.69244 0.66081 0.98136 0.0
N530 N 0.66158 0.62261 0.09018 0.0
N531 N 0.68676 0.69723 0.94735 0.0
H532 H 0.72029 0.65218 0.94484 0.0
H533 H 0.71088 0.67267 0.91476 0.0
H534 H 0.67541 0.7069 0.94037 0.0
H535 H 0.70569 0.70609 0.93047 0.0
H536 H 0.64719 0.62014 0.11531 0.0
H537 H 0.67485 0.6158 0.10096 0.0
H538 H 0.61374 0.61951 0.08134 0.0
H539 H 0.60818 0.64334 0.051 0.0
C540 C 0.40572 0.0396 0.94835 0.0
C541 C 0.41119 0.05163 0.99357 0.0
C542 C 0.38326 1.00573 0.02643 0.0
C543 C 0.37943 0.99297 0.98172 0.0
N544 N 0.39172 0.99891 0.90072 0.0
N545 N 0.41187 0.04467 0.07558 0.0
C546 C 0.39267 1.01028 0.94301 0.0
C547 C 0.40267 0.03411 0.03239 0.0
N548 N 0.41149 0.05606 0.91033 0.0
N549 N 0.36683 0.99175 0.06305 0.0
H550 H 0.42565 0.06547 0.08131 0.0
H551 H 0.40809 0.03229 0.10476 0.0
H552 H 0.35136 0.97151 0.06137 0.0
H553 H 0.36681 1.00115 0.09421 0.0
H554 H 0.40515 0.04857 0.87689 0.0
H555 H 0.42093 0.07733 0.91286 0.0
H556 H 0.4031 1.0104 0.87226 0.0
H557 H 0.38117 0.97776 0.89497 0.0
C558 C 0.05029 0.64006 0.04082 0.0
C559 C 0.06091 0.65053 0.99613 0.0
C560 C 1.01426 0.63303 0.96682 0.0
C561 C 1.00315 0.62477 0.01288 0.0
N562 N 1.01153 0.62166 0.09419 0.0
N563 N 0.05352 0.64938 0.91462 0.0
C564 C 1.02137 0.62788 0.04985 0.0
C565 C 0.04293 0.64434 0.95855 0.0
N566 N 0.06818 0.64169 0.07439 0.0
N567 N 0.99782 0.63196 0.93111 0.0
H568 H 0.07452 0.65784 0.90831 0.0
H569 H 0.04163 0.64281 0.88466 0.0
H570 H 0.97675 0.62298 0.93383 0.0
H571 H 1.00511 0.64145 0.89914 0.0
H572 H 0.06224 0.63254 0.10689 0.0
H573 H 0.08919 0.65037 0.06788 0.0
H574 H 0.02393 0.62634 0.1234 0.0
H575 H 0.99082 0.61316 0.10248 0.0
C576 C 0.40071 0.38844 0.05428 0.0
C577 C 0.4151 0.38494 0.01799 0.0
C578 C 0.39767 0.40737 0.96463 0.0
C579 C 0.37829 0.40504 0.99901 0.0
N580 N 0.35974 0.38796 0.07671 0.0
N581 N 0.43032 0.39319 0.93916 0.0
C582 C 0.37962 0.39449 0.04407 0.0
C583 C 0.41488 0.39559 0.97343 0.0
N584 N 0.40637 0.38452 0.09878 0.0
N585 N 0.39872 0.41943 0.92297 0.0
H586 H 0.44364 0.38567 0.94583 0.0
H587 H 0.42973 0.39806 0.90456 0.0
H588 H 0.3853 0.42638 0.91394 0.0
H589 H 0.41374 0.42385 0.898 0.0
H590 H 0.39827 0.38909 0.12775 0.0
H591 H 0.42155 0.37954 0.10632 0.0
H592 H 0.35804 0.37683 0.10665 0.0
H593 H 0.34363 0.39159 0.07331 0.0
C594 C 0.63881 1.01154 0.97465 0.0
C595 C 0.62961 0.99235 0.01159 0.0
C596 C 0.64459 0.03033 0.06779 0.0
C597 C 0.65582 0.0496 0.03109 0.0
N598 N 0.65457 0.05857 0.95005 0.0
N599 N 0.61438 0.98273 0.09067 0.0
C600 C 0.64975 0.0401 0.98458 0.0
C601 C 0.62931 1.0016 0.05735 0.0
N602 N 0.63852 1.00266 0.93049 0.0
N603 N 0.64979 0.03942 0.11254 0.0
H604 H 0.60282 0.96176 0.08326 0.0
H605 H 0.6112 0.98805 0.12375 0.0
H606 H 0.66016 0.06032 0.12078 0.0
H607 H 0.64477 0.0264 0.14106 0.0
H608 H 0.6477 0.01588 0.90251 0.0
H609 H 0.62984 0.98183 0.92242 0.0
H610 H 0.64821 0.05283 0.91596 0.0
H611 H 0.66232 0.07942 0.95693 0.0
C612 C 0.718 0.70368 0.26987 0.0
C613 C 0.73238 0.70934 0.31278 0.0
C614 C 0.69305 0.66824 0.34663 0.0
C615 C 0.67762 0.66451 0.30612 0.0
N616 N 0.67353 0.68123 0.23131 0.0
N617 N 0.72953 0.70042 0.39553 0.0
C618 C 0.68954 0.68296 0.26822 0.0
C619 C 0.71858 0.69263 0.35217 0.0
N620 N 0.73153 0.71696 0.23039 0.0
N621 N 0.68316 0.64834 0.38016 0.0
H622 H 0.7479 0.7184 0.4018 0.0
H623 H 0.71897 0.69058 0.42571 0.0
H624 H 0.6645 0.63 0.37678 0.0
H625 H 0.69473 0.64874 0.40871 0.0
H626 H 0.72271 0.71144 0.19755 0.0
H627 H 0.75216 0.73218 0.22996 0.0
H628 H 0.68015 0.69605 0.20524 0.0
H629 H 0.65301 0.66575 0.22841 0.0
C630 C 0.31119 0.95956 0.29841 0.0
C631 C 0.31794 0.95809 0.34547 0.0
C632 C 0.28578 0.97352 0.36849 0.0
C633 C 0.28494 0.98156 0.32207 0.0
N634 N 0.29582 0.98105 0.24179 0.0
N635 N 0.31038 0.96252 0.42626 0.0
C636 C 0.29684 0.97366 0.28651 0.0
C637 C 0.30433 0.9641 0.38095 0.0
N638 N 0.31863 0.94729 0.26527 0.0
N639 N 0.26893 0.97531 0.40052 0.0
H640 H 0.3233 0.95505 0.43613 0.0
H641 H 0.30363 0.96974 0.45366 0.0
H642 H 0.25485 0.98144 0.39109 0.0
H643 H 0.26686 0.96795 0.43428 0.0
H644 H 0.31296 0.94588 0.23056 0.0
H645 H 0.32776 0.93579 0.27449 0.0
H646 H 0.307 0.97897 0.21485 0.0
H647 H 0.28453 0.99045 0.23229 0.0
C648 C 0.06166 0.33273 0.28754 0.0
C649 C 0.05107 0.31344 0.32431 0.0
C650 C 0.07319 0.35129 0.381 0.0
C651 C 0.08184 0.37068 0.34439 0.0
N652 N 0.09314 0.37989 0.26368 0.0
N653 N 0.05536 0.30361 0.40385 0.0
C654 C 0.07907 0.36129 0.29785 0.0
C655 C 0.05985 0.32257 0.37039 0.0
N656 N 0.05394 0.3239 0.24309 0.0
N657 N 0.07638 0.36025 0.42577 0.0
H658 H 0.04606 0.28265 0.39637 0.0
H659 H 0.06334 0.30882 0.43726 0.0
H660 H 0.08685 0.38112 0.43421 0.0
H661 H 0.06785 0.34715 0.45408 0.0
H662 H 0.05861 0.3371 0.21491 0.0
H663 H 0.04194 0.30309 0.23485 0.0
H664 H 0.09415 0.37434 0.2296 0.0
H665 H 0.10612 0.40072 0.27087 0.0
C666 C 0.66483 0.9534 0.32139 0.0
C667 C 0.65466 0.95277 0.36682 0.0
C668 C 0.70192 0.97329 0.39623 0.0
C669 C 0.71234 0.98007 0.35028 0.0
N670 N 0.70385 0.97399 0.26835 0.0
N671 N 0.66341 0.96089 0.44839 0.0
C672 C 0.69382 0.96879 0.31254 0.0
C673 C 0.67316 0.96181 0.40467 0.0
N674 N 0.64655 0.93942 0.28681 0.0
N675 N 0.71974 0.97782 0.43169 0.0
H676 H 0.64242 0.95172 0.45548 0.0
H677 H 0.67606 0.9701 0.47696 0.0
H678 H 0.7407 0.98566 0.42584 0.0
H679 H 0.7134 0.97109 0.46549 0.0
H680 H 0.65231 0.93697 0.25363 0.0
H681 H 0.62542 0.92805 0.29296 0.0
H682 H 0.69154 0.96927 0.23898 0.0
H683 H 0.72488 0.98396 0.26135 0.0
C684 C 0.07892 0.73618 0.29203 0.0
C685 C 0.06675 0.74377 0.32784 0.0
C686 C 0.08376 0.72363 0.38597 0.0
C687 C 0.09379 0.7139 0.34992 0.0
N688 N 0.10961 0.71892 0.2713 0.0
N689 N 0.06663 0.75408 0.40861 0.0
C690 C 0.09437 0.72306 0.30376 0.0
C691 C 0.0723 0.74063 0.37483 0.0
N692 N 0.07454 0.74025 0.24691 0.0
N693 N 0.08385 0.71538 0.43047 0.0
H694 H 0.05879 0.767 0.40084 0.0
H695 H 0.07233 0.75474 0.44314 0.0
H696 H 0.09298 0.70375 0.4394 0.0
H697 H 0.07415 0.7192 0.45788 0.0
H698 H 0.0802 0.73253 0.21881 0.0
H699 H 0.06428 0.75077 0.23783 0.0
H700 H 0.11293 0.72698 0.23788 0.0
H701 H 0.12115 0.70961 0.27965 0.0
C702 C 0.30697 0.36514 0.31208 0.0
C703 C 0.31642 0.37525 0.35749 0.0
C704 C 0.29166 0.32753 0.38547 0.0
C705 C 0.28876 0.31777 0.33914 0.0
N706 N 0.29248 0.32741 0.25745 0.0
N707 N 0.31638 0.36584 0.43865 0.0
C708 C 0.29551 0.33657 0.30208 0.0
C709 C 0.30778 0.35636 0.3948 0.0
N710 N 0.30944 0.38328 0.27855 0.0
N711 N 0.27882 0.3091 0.42038 0.0
H712 H 0.32743 0.38683 0.44617 0.0
H713 H 0.31346 0.35301 0.46678 0.0
H714 H 0.26661 0.28807 0.41394 0.0
H715 H 0.27785 0.31494 0.45429 0.0
H716 H 0.30159 0.37753 0.24516 0.0
H717 H 0.31671 0.40383 0.28678 0.0
H718 H 0.3001 0.34046 0.22889 0.0
H719 H 0.2834 0.30656 0.2493 0.0
C720 C 0.33704 1.01397 0.65492 0.0
C721 C 0.32296 1.01401 0.69666 0.0
C722 C 0.36747 0.0353 0.73798 0.0
C723 C 0.38073 0.03385 0.69695 0.0
N724 N 0.37938 0.02445 0.61547 0.0
N725 N 0.32475 0.02028 0.77973 0.0
C726 C 0.36574 0.02371 0.65539 0.0
C727 C 0.33824 0.02381 0.73862 0.0
N728 N 0.32273 1.00322 0.61475 0.0
N729 N 0.38301 0.04869 0.7759 0.0
H730 H 0.30355 1.01182 0.7822 0.0
H731 H 0.33428 0.02377 0.81195 0.0
H732 H 0.4042 0.05651 0.77717 0.0
H733 H 0.37532 0.05377 0.80479 0.0
H734 H 0.3301 0.99753 0.58623 0.0
H735 H 0.30272 0.99876 0.60983 0.0
H736 H 0.37149 0.02259 0.5822 0.0
H737 H 0.39952 0.02817 0.61517 0.0
C738 C 0.96171 0.29955 0.62542 0.0
C739 C 0.95877 0.31489 0.66225 0.0
C740 C 0.98006 0.29615 0.71601 0.0
C741 C 0.98615 0.28421 0.67844 0.0
N742 N 0.97734 0.26798 0.60019 0.0
N743 N 0.9682 0.32934 0.743 0.0
C744 C 0.97511 0.28381 0.63397 0.0
C745 C 0.96831 0.31315 0.70781 0.0
N746 N 0.95397 0.30199 0.58154 0.0
N747 N 0.98564 0.29116 0.75993 0.0
H748 H 0.95943 0.34164 0.74028 0.0
H749 H 0.97855 0.3322 0.77425 0.0
H750 H 0.99448 0.27896 0.76638 0.0
H751 H 0.97903 0.29654 0.78983 0.0
H752 H 0.95811 0.29401 0.55207 0.0
H753 H 0.94435 0.31328 0.5739 0.0
H754 H 0.96826 0.26461 0.56765 0.0
H755 H 0.98677 0.25628 0.60634 0.0
C756 C 0.74666 0.70079 0.69663 0.0
C757 C 0.74951 0.71679 0.73555 0.0
C758 C 0.70242 0.68223 0.75969 0.0
C759 C 0.69806 0.66841 0.7161 0.0
N760 N 0.71608 0.67009 0.63869 0.0
N761 N 0.7364 0.7146 0.81416 0.0
C762 C 0.72031 0.67923 0.68346 0.0
C763 C 0.72902 0.70521 0.77007 0.0
N764 N 0.76974 0.7056 0.6735 0.0
N765 N 0.68143 0.67431 0.79071 0.0
H766 H 0.75691 0.72865 0.82182 0.0
H767 H 0.72374 0.70609 0.84297 0.0
H768 H 0.66158 0.65833 0.78494 0.0
H769 H 0.68304 0.68533 0.82073 0.0
H770 H 0.76966 0.69307 0.64674 0.0
H771 H 0.78914 0.72045 0.68542 0.0
H772 H 0.73114 0.67904 0.61309 0.0
H773 H 0.6968 0.65595 0.62583 0.0
C774 C 0.3669 0.2941 0.67922 0.0
C775 C 0.37926 0.32251 0.66632 0.0
C776 C 0.33799 0.32182 0.69308 0.0
C777 C 0.32275 0.29281 0.69694 0.0
N778 N 0.32386 0.25048 0.68856 0.0
N779 N 0.36747 0.35647 0.63986 0.0
C780 C 0.33748 0.27847 0.68858 0.0
C781 C 0.36169 0.33389 0.66585 0.0
N782 N 0.38267 0.28206 0.68325 0.0
N783 N 0.32979 0.33818 0.71453 0.0
H784 H 0.38356 0.36495 0.61607 0.0
H785 H 0.35414 0.36437 0.63834 0.0
H786 H 0.31349 0.33043 0.73792 0.0
H787 H 0.34138 0.35961 0.71288 0.0
H788 H 0.37519 0.26241 0.69695 0.0
H789 H 0.40349 0.29225 0.67501 0.0
H790 H 0.33304 0.23915 0.67819 0.0
H791 H 0.30306 0.23871 0.69658 0.0
C792 C 0.76504 0.07147 0.69512 0.0
C793 C 0.75069 0.04298 0.70785 0.0
C794 C 0.70852 0.04029 0.6807 0.0
C795 C 0.72062 0.06922 0.67666 0.0
N796 N 0.76219 0.11325 0.68585 0.0
N797 N 0.70598 1.00603 0.73242 0.0
C798 C 0.74954 0.08529 0.68551 0.0
C799 C 0.72158 0.02948 0.70753 0.0
N800 N 0.79293 0.08525 0.69108 0.0
N801 N 0.68433 0.02271 0.65931 0.0
H802 H 0.7145 0.99811 0.75544 0.0
H803 H 0.68459 0.99665 0.73395 0.0
H804 H 0.67477 0.02943 0.63606 0.0
H805 H 0.67587 1.0014 0.6606 0.0
H806 H 0.80396 0.10505 0.67739 0.0
H807 H 0.80483 0.07633 0.69887 0.0
H808 H 0.78243 0.12566 0.69674 0.0
H809 H 0.752 0.12391 0.67779 0.0
C810 C 0.97527 0.68192 0.71809 0.0
C811 C 0.9848 0.7016 0.68192 0.0
C812 C 0.96155 0.66426 0.62439 0.0
C813 C 0.95358 0.6445 0.6604 0.0
N814 N 0.94467 0.6346 0.74153 0.0
N815 N 0.98032 0.71235 0.60289 0.0
C816 C 0.95775 0.65351 0.70733 0.0
C817 C 0.97557 0.69295 0.63575 0.0
N818 N 0.98407 0.69024 0.76239 0.0
N819 N 0.95704 0.65567 0.57935 0.0
H820 H 0.9901 0.73328 0.61075 0.0
H821 H 0.97247 0.70771 0.56936 0.0
H822 H 0.94579 0.63493 0.57037 0.0
H823 H 0.96529 0.66888 0.5511 0.0
H824 H 0.98075 0.67673 0.78959 0.0
H825 H 0.99594 0.71096 0.77139 0.0
H826 H 0.94501 0.63962 0.77637 0.0
H827 H 0.93102 0.61404 0.73377 0.0
C828 C 0.22808 0.41695 0.95325 0.0
C829 C 0.25203 0.43716 0.97701 0.0
C830 C 0.22502 0.45864 1.00352 0.0
C831 C 0.20188 0.43905 0.9777 0.0
N832 N 0.18563 0.40651 0.91503 0.0
N833 N 0.27421 0.47999 0.01894 0.0
C834 C 0.20492 0.42058 0.94833 0.0
C835 C 0.25087 0.45912 0.9998 0.0
N836 N 0.22643 0.39325 0.9374 0.0
N837 N 0.22195 0.47577 0.03341 0.0
H838 H 0.29295 0.48034 0.0184 0.0
H839 H 0.27547 0.49781 0.03229 0.0
H840 H 0.2036 0.47609 0.03631 0.0
H841 H 0.23692 0.48842 0.05713 0.0
H842 H 0.20833 0.37684 0.92443 0.0
H843 H 0.24193 0.3885 0.94156 0.0
H844 H 0.18819 0.39485 0.88946 0.0
H845 H 0.16871 0.40916 0.9097 0.0
C846 C 0.59157 0.79085 0.02846 0.0
C847 C 0.61376 0.7895 1.00716 0.0
C848 C 0.63615 0.83931 0.99026 0.0
C849 C 0.61372 0.84092 0.01043 0.0
N850 N 0.56819 0.8169 0.04342 0.0
N851 N 0.65346 0.81142 0.95737 0.0
C852 C 0.59069 0.81617 0.02736 0.0
C853 C 0.63477 0.81344 0.98499 0.0
N854 N 0.57217 0.76842 0.05205 0.0
N855 N 0.6596 0.86263 0.977 0.0
H856 H 0.65413 0.7934 0.95388 0.0
H857 H 0.66663 0.82681 0.93458 0.0
H858 H 0.66164 0.882 0.97524 0.0
H859 H 0.67806 0.86312 0.97011 0.0
H860 H 0.55714 0.76858 0.07295 0.0
H861 H 0.57209 0.7498 0.05281 0.0
H862 H 0.54964 0.7994 0.05156 0.0
H863 H 0.56749 0.83505 0.04616 0.0
C864 C 0.23264 0.78858 0.02624 0.0
C865 C 0.21531 0.77865 0.98667 0.0
C866 C 0.25138 0.81703 0.94054 0.0
C867 C 0.26709 0.82886 0.98141 0.0
N868 N 0.27269 0.82625 0.06357 0.0
N869 N 0.20753 0.78377 0.90617 0.0
C870 C 0.25781 0.81449 0.02427 0.0
C871 C 0.22473 0.79278 0.94363 0.0
N872 N 0.22505 0.77299 0.06569 0.0
N873 N 0.26186 0.82931 0.89875 0.0
H874 H 0.18842 0.7658 0.90673 0.0
H875 H 0.21132 0.79472 0.87534 0.0
H876 H 0.28088 0.84722 0.89557 0.0
H877 H 0.25293 0.82078 0.86696 0.0
H878 H 0.23759 0.77746 0.09468 0.0
H879 H 0.20681 0.75416 0.06808 0.0
H880 H 0.26575 0.81901 0.09691 0.0
H881 H 0.29184 0.84419 0.06285 0.0
C882 C 0.44977 0.24895 0.98134 0.0
C883 C 0.4434 0.25867 0.02236 0.0
C884 C 0.43789 0.21795 0.0648 0.0
C885 C 0.44394 0.20807 0.02362 0.0
N886 N 0.46096 0.21646 0.94538 0.0
N887 N 0.43679 0.25553 0.10506 0.0
C888 C 0.45166 0.22443 0.98277 0.0
C889 C 0.43937 0.24419 0.06478 0.0
N890 N 0.45308 0.26273 0.94061 0.0
N891 N 0.42924 0.20151 0.10326 0.0
H892 H 0.43726 0.27434 0.10602 0.0
H893 H 0.43631 0.24751 0.1378 0.0
H894 H 0.42883 0.18273 0.1049 0.0
H895 H 0.42109 0.20562 0.13258 0.0
H896 H 0.45447 0.25527 0.9083 0.0
H897 H 0.45322 0.28136 0.93892 0.0
H898 H 0.46919 0.22835 0.91571 0.0
H899 H 0.46258 0.19872 0.94563 0.0
C900 C 0.82981 0.23855 0.07746 0.0
C901 C 0.83244 0.25905 0.04591 0.0
C902 C 0.78522 0.22711 0.01781 0.0
C903 C 0.7843 0.20526 0.0446 0.0
N904 N 0.80819 0.19027 0.09653 0.0
N905 N 0.81324 0.27295 0.98448 0.0
C906 C 0.80723 0.2111 0.07368 0.0
C907 C 0.8101 0.25347 0.0161 0.0
N908 N 0.84909 0.24546 0.11153 0.0
N909 N 0.76262 0.22254 0.993 0.0
H910 H 0.83064 0.29252 0.98378 0.0
H911 H 0.79941 0.26944 0.95778 0.0
H912 H 0.74486 0.20334 0.99098 0.0
H913 H 0.76077 0.23807 0.97667 0.0
H914 H 0.84713 0.23245 0.13882 0.0
H915 H 0.86576 0.26535 0.1152 0.0
H916 H 0.82573 0.19263 0.11302 0.0
H917 H 0.79231 0.16999 0.09616 0.0
C918 C 0.82924 0.58036 0.08082 0.0
C919 C 0.84167 0.57966 0.03814 0.0
C920 C 0.80163 0.57604 0.99605 0.0
C921 C 0.78985 0.57813 0.0385 0.0
N922 N 0.788 0.57308 0.12128 0.0
N923 N 0.83606 0.56907 0.95672 0.0
C924 C 0.80217 0.57709 0.0809 0.0
C925 C 0.82656 0.57491 0.99629 0.0
N926 N 0.84394 0.586 0.12099 0.0
N927 N 0.7893 0.57609 0.95523 0.0
H928 H 0.85393 0.56769 0.95613 0.0
H929 H 0.82515 0.56312 0.92572 0.0
H930 H 0.77011 0.5748 0.95406 0.0
H931 H 0.79836 0.57835 0.92281 0.0
H932 H 0.83754 0.59022 0.15227 0.0
H933 H 0.8635 0.58823 0.12244 0.0
H934 H 0.7947 0.56999 0.15318 0.0
H935 H 0.76807 0.56994 0.12184 0.0
C936 C 0.91264 0.78749 0.36455 0.0
C937 C 0.89726 0.78448 0.32357 0.0
C938 C 0.93222 0.78021 0.27797 0.0
C939 C 0.94674 0.78175 0.31926 0.0
N940 N 0.95554 0.79528 0.3991 0.0
N941 N 0.89767 0.78757 0.2403 0.0
C942 C 0.93845 0.78817 0.3617 0.0
C943 C 0.90889 0.78415 0.27991 0.0
N944 N 0.90208 0.78894 0.40646 0.0
N945 N 0.93985 0.77357 0.23717 0.0
H946 H 0.88093 0.79076 0.24064 0.0
H947 H 0.9065 0.78988 0.20764 0.0
H948 H 0.95722 0.77144 0.23425 0.0
H949 H 0.92816 0.76864 0.20699 0.0
H950 H 0.9102 0.78764 0.43818 0.0
H951 H 0.8844 0.79055 0.40929 0.0
H952 H 0.95199 0.80219 0.43042 0.0
H953 H 0.97484 0.79691 0.39691 0.0
C954 C 0.25239 0.14492 0.3598 0.0
C955 C 0.26207 0.16294 0.32099 0.0
C956 C 0.26632 0.12735 0.27686 0.0
C957 C 0.25994 0.11084 0.31744 0.0
N958 N 0.24777 0.10414 0.39827 0.0
N959 N 0.27947 0.17201 0.24286 0.0
C960 C 0.25297 0.11963 0.35901 0.0
C961 C 0.26905 0.15416 0.2794 0.0
N962 N 0.24238 0.15197 0.39736 0.0
N963 N 0.26986 0.11735 0.23579 0.0
H964 H 0.28072 0.19119 0.2428 0.0
H965 H 0.28826 0.16862 0.21367 0.0
H966 H 0.26852 0.09819 0.23302 0.0
H967 H 0.27204 0.12692 0.20392 0.0
H968 H 0.23271 0.13898 0.42535 0.0
H969 H 0.24172 0.17021 0.39872 0.0
H970 H 0.24582 0.11066 0.43111 0.0
H971 H 0.24667 0.08502 0.39832 0.0
C972 C 0.88057 0.1192 0.29258 0.0
C973 C 0.86836 0.1088 0.3368 0.0
C974 C 0.9091 0.14764 0.37388 0.0
C975 C 0.91951 0.15988 0.32992 0.0
N976 N 0.91504 0.15764 0.24691 0.0
N977 N 0.87097 0.11361 0.41994 0.0
C978 C 0.9054 0.14549 0.28909 0.0
C979 C 0.88276 0.12316 0.3775 0.0
N980 N 0.8682 0.10413 0.25373 0.0
N981 N 0.92501 0.15909 0.41226 0.0
H982 H 0.85293 0.09485 0.42436 0.0
H983 H 0.87826 0.12475 0.45056 0.0
H984 H 0.94454 0.17637 0.41018 0.0
H985 H 0.92027 0.15016 0.44506 0.0
H986 H 0.87716 0.10878 0.22097 0.0
H987 H 0.84954 0.08572 0.25458 0.0
H988 H 0.90429 0.15035 0.21597 0.0
H989 H 0.93348 0.17612 0.24304 0.0
C990 C 0.08926 0.52968 0.38277 0.0
C991 C 0.10847 0.52629 0.35562 0.0
C992 C 0.12898 0.57509 0.33099 0.0
C993 C 0.10725 0.57706 0.35318 0.0
N994 N 0.06405 0.55344 0.39525 0.0
N995 N 0.14572 0.54542 0.30087 0.0
C996 C 0.08673 0.55359 0.37766 0.0
C997 C 0.12838 0.54907 0.32939 0.0
N998 N 0.07366 0.51012 0.41488 0.0
N999 N 0.14989 0.59788 0.31046 0.0
H1000 H 0.14597 0.52699 0.29939 0.0
H1001 H 0.1586 0.55991 0.27668 0.0
H1002 H 0.15013 0.61652 0.30811 0.0
H1003 H 0.16777 0.59883 0.29817 0.0
H1004 H 0.06181 0.51279 0.43991 0.0
H1005 H 0.07483 0.49238 0.41976 0.0
H1006 H 0.04679 0.53569 0.40718 0.0
H1007 H 0.06115 0.5703 0.39498 0.0
C1008 C 0.51166 0.54162 0.3594 0.0
C1009 C 0.51644 0.56577 0.33601 0.0
C1010 C 0.46592 0.54578 0.32866 0.0
C1011 C 0.46142 0.52012 0.34654 0.0
N1012 N 0.48223 0.49321 0.37213 0.0
N1013 N 0.49829 0.59078 0.29604 0.0
C1014 C 0.4849 0.51797 0.35992 0.0
C1015 C 0.49356 0.56796 0.32046 0.0
N1016 N 0.53266 0.54154 0.38323 0.0
N1017 N 0.44385 0.54886 0.31859 0.0
H1018 H 0.51804 0.60721 0.29005 0.0
H1019 H 0.48301 0.59277 0.27918 0.0
H1020 H 0.4236 0.53285 0.32128 0.0
H1021 H 0.44543 0.56763 0.31023 0.0
H1022 H 0.52982 0.52589 0.40593 0.0
H1023 H 0.55241 0.55851 0.38444 0.0
H1024 H 0.49895 0.49005 0.375 0.0
H1025 H 0.46367 0.47516 0.37631 0.0
C1026 C 0.4794 0.96736 0.38202 0.0
C1027 C 0.45497 0.94522 0.36286 0.0
C1028 C 0.4806 0.9203 0.34831 0.0
C1029 C 0.5055 0.94327 0.36491 0.0
N1030 N 0.52803 0.98918 0.39779 0.0
N1031 N 0.43289 0.90163 0.32367 0.0
C1032 C 0.50456 0.96676 0.38198 0.0
C1033 C 0.45566 0.92176 0.3456 0.0
N1034 N 0.47846 0.98893 0.40218 0.0
N1035 N 0.4808 0.89718 0.33414 0.0
H1036 H 0.41462 0.90209 0.32083 0.0
H1037 H 0.43238 0.88538 0.30552 0.0
H1038 H 0.49869 0.89609 0.3309 0.0
H1039 H 0.46314 0.8785 0.32742 0.0
H1040 H 0.49351 1.00309 0.4243 0.0
H1041 H 0.46187 0.99213 0.39917 0.0
H1042 H 0.53042 1.00872 0.40103 0.0
H1043 H 0.54575 0.98884 0.40673 0.0
C1044 C 0.58336 0.1025 0.63925 0.0
C1045 C 0.59726 0.10527 0.68183 0.0
C1046 C 0.55716 0.10149 0.7243 0.0
C1047 C 0.54301 0.09828 0.68171 0.0
N1048 N 0.5454 0.10216 0.59822 0.0
N1049 N 0.60011 0.11342 0.76378 0.0
C1050 C 0.55711 0.10106 0.63909 0.0
C1051 C 0.5849 0.10664 0.724 0.0
N1052 N 0.59448 0.09952 0.59901 0.0
N1053 N 0.54392 0.09936 0.76521 0.0
H1054 H 0.62049 0.11784 0.76398 0.0
H1055 H 0.59367 0.11711 0.79544 0.0
H1056 H 0.52468 0.09791 0.76683 0.0
H1057 H 0.55141 0.09803 0.79751 0.0
H1058 H 0.58393 0.09361 0.56765 0.0
H1059 H 0.6139 0.10139 0.59749 0.0
H1060 H 0.55572 0.10714 0.5666 0.0
H1061 H 0.52606 0.10035 0.59618 0.0
C1062 C 0.89965 0.43889 0.65933 0.0
C1063 C 0.91796 0.43496 0.63045 0.0
C1064 C 0.93478 0.48152 0.59749 0.0
C1065 C 0.91937 0.48685 0.6308 0.0
N1066 N 0.88716 0.47085 0.69401 0.0
N1067 N 0.95334 0.45277 0.57202 0.0
C1068 C 0.90143 0.46539 0.66139 0.0
C1069 C 0.93537 0.45629 0.59915 0.0
N1070 N 0.88079 0.41729 0.68521 0.0
N1071 N 0.9487 0.50065 0.56376 0.0
H1072 H 0.9531 0.43413 0.56998 0.0
H1073 H 0.96924 0.46847 0.55318 0.0
H1074 H 0.9486 0.51916 0.56161 0.0
H1075 H 0.95833 0.49737 0.53566 0.0
H1076 H 0.86523 0.41763 0.70427 0.0
H1077 H 0.87944 0.39807 0.68472 0.0
H1078 H 0.87606 0.45753 0.72088 0.0
H1079 H 0.88746 0.48958 0.69543 0.0
C1080 C 0.57214 0.48933 0.7297 0.0
C1081 C 0.58161 0.50795 0.6915 0.0
C1082 C 0.54505 0.47183 0.64262 0.0
C1083 C 0.53572 0.45315 0.68065 0.0
N1084 N 0.5428 0.44244 0.75812 0.0
N1085 N 0.57973 0.51541 0.60954 0.0
C1086 C 0.55015 0.46146 0.72348 0.0
C1087 C 0.56894 0.49861 0.64731 0.0
N1088 N 0.58396 0.4985 0.77221 0.0
N1089 N 0.53023 0.46432 0.60233 0.0
H1090 H 0.59597 0.53559 0.6117 0.0
H1091 H 0.57379 0.50896 0.57556 0.0
H1092 H 0.51375 0.44454 0.59671 0.0
H1093 H 0.53326 0.47786 0.57535 0.0
H1094 H 0.57658 0.48732 0.80275 0.0
H1095 H 0.60068 0.51818 0.77745 0.0
H1096 H 0.55341 0.44594 0.78922 0.0
H1097 H 0.52707 0.42211 0.75413 0.0
C1098 C 0.8016 0.91713 0.6628 0.0
C1099 C 0.79919 0.92836 0.70565 0.0
C1100 C 0.79825 0.8892 0.74695 0.0
C1101 C 0.79985 0.87757 0.70392 0.0
N1102 N 0.80878 0.88313 0.62207 0.0
N1103 N 0.80111 0.92829 0.78888 0.0
C1104 C 0.80339 0.8925 0.66223 0.0
C1105 C 0.79966 0.91548 0.74784 0.0
N1106 N 0.80142 0.92977 0.62244 0.0
N1107 N 0.79356 0.87428 0.78677 0.0
H1108 H 0.80157 0.94707 0.79057 0.0
H1109 H 0.80414 0.92163 0.82084 0.0
H1110 H 0.79302 0.85545 0.78775 0.0
H1111 H 0.78867 0.87966 0.81843 0.0
H1112 H 0.79962 0.9213 0.58966 0.0
H1113 H 0.8022 0.94873 0.622 0.0
H1114 H 0.81389 0.89387 0.59088 0.0
H1115 H 0.81036 0.86538 0.6209 0.0
C1116 C 0.12352 0.86851 0.73461 0.0
C1117 C 0.10864 0.85831 0.69249 0.0
C1118 C 0.14171 0.9018 0.65364 0.0
C1119 C 0.15859 0.91028 0.69385 0.0
N1120 N 0.16582 0.90196 0.77302 0.0
N1121 N 0.10253 0.86542 0.61229 0.0
C1122 C 0.14925 0.89392 0.73477 0.0
C1123 C 0.11731 0.87523 0.65226 0.0
N1124 N 0.11304 0.85365 0.77443 0.0
N1125 N 0.14913 0.91945 0.61684 0.0
H1126 H 0.0838 0.84705 0.61128 0.0
H1127 H 0.10894 0.87483 0.58007 0.0
H1128 H 0.16664 0.93895 0.61745 0.0
H1129 H 0.13715 0.91593 0.58739 0.0
H1130 H 0.12125 0.86061 0.80724 0.0
H1131 H 0.09468 0.83488 0.77514 0.0
H1132 H 0.16215 0.88981 0.80233 0.0
H1133 H 0.18418 0.92067 0.7748 0.0
C1134 C 0.14688 0.24657 0.64384 0.0
C1135 C 0.16087 0.24941 0.68645 0.0
C1136 C 0.12582 0.25632 0.72696 0.0
C1137 C 0.11205 0.25379 0.68421 0.0
N1138 N 0.10619 0.24106 0.60376 0.0
N1139 N 0.16088 0.25183 0.76965 0.0
C1140 C 0.12161 0.24717 0.64323 0.0
C1141 C 0.14925 0.25242 0.72837 0.0
N1142 N 0.15834 0.24413 0.6036 0.0
N1143 N 0.11737 0.26393 0.76588 0.0
H1144 H 0.17816 0.24953 0.77168 0.0
H1145 H 0.15227 0.25135 0.80184 0.0
H1146 H 0.10006 0.26625 0.76643 0.0
H1147 H 0.12825 0.26952 0.79692 0.0
H1148 H 0.15151 0.24546 0.57069 0.0
H1149 H 0.17563 0.24179 0.60325 0.0
H1150 H 0.11033 0.23364 0.57356 0.0
H1151 H 0.08775 0.24129 0.60245 0.0
C1152 C 0.10678 0.44559 0.18736 0.0
C1153 C 0.08067 0.42739 0.207 0.0
C1154 C 0.07359 0.3936 0.1465 0.0
C1155 C 0.10138 0.41011 0.13176 0.0
N1156 N 0.14589 0.44997 0.14456 0.0
N1157 N 0.04167 0.38103 0.21024 0.0
C1158 C 0.1184 0.43557 0.1542 0.0
C1159 C 0.06462 0.40058 0.1879 0.0
N1160 N 0.12029 0.47269 0.19982 0.0
N1161 N 0.05509 0.37218 0.1199 0.0
H1162 H 0.03437 0.38443 0.24123 0.0
H1163 H 0.03141 0.36046 0.20015 0.0
H1164 H 0.0599 0.36665 0.08832 0.0
H1165 H 0.0341 0.36175 0.1268 0.0
H1166 H 0.13828 0.48744 0.1837 0.0
H1167 H 0.11186 0.48091 0.22269 0.0
H1168 H 0.15974 0.46744 0.16292 0.0
H1169 H 0.15523 0.44277 0.12157 0.0
C1170 C 0.59499 0.68015 0.20667 0.0
C1171 C 0.60653 0.69221 0.24986 0.0
C1172 C 0.63962 0.73421 0.20695 0.0
C1173 C 0.63145 0.71957 0.16415 0.0
N1174 N 0.6068 0.67421 0.12946 0.0
N1175 N 0.64333 0.73092 0.29031 0.0
C1176 C 0.61043 0.69136 0.16563 0.0
C1177 C 0.62973 0.71946 0.24999 0.0
N1178 N 0.56963 0.65711 0.20491 0.0
N1179 N 0.65608 0.76211 0.20698 0.0
H1180 H 0.63691 0.72139 0.32245 0.0
H1181 H 0.66214 0.7492 0.29121 0.0
H1182 H 0.66278 0.77368 0.17663 0.0
H1183 H 0.66059 0.7739 0.23703 0.0
H1184 H 0.55963 0.64855 0.17368 0.0
H1185 H 0.55762 0.64865 0.23457 0.0
H1186 H 0.59291 0.65313 0.13063 0.0
H1187 H 0.62058 0.68013 0.10194 0.0
C1188 C 0.37131 0.94623 0.12166 0.0
C1189 C 0.34209 0.92755 0.12351 0.0
C1190 C 0.34846 0.9204 0.20554 0.0
C1191 C 0.37458 0.94517 0.20666 0.0
N1192 N 0.41262 0.97921 0.16166 0.0
N1193 N 0.30328 0.89646 0.17039 0.0
C1194 C 0.38642 0.95745 0.1635 0.0
C1195 C 0.33073 0.91481 0.1666 0.0
N1196 N 0.38539 0.95252 0.08066 0.0
N1197 N 0.34124 0.90094 0.23933 0.0
H1198 H 0.28987 0.89029 0.14223 0.0
H1199 H 0.29376 0.88881 0.20232 0.0
H1200 H 0.35513 0.90144 0.26371 0.0
H1201 H 0.32303 0.88206 0.23827 0.0
H1202 H 0.40678 0.96297 0.07878 0.0
H1203 H 0.37651 0.94579 0.04846 0.0
H1204 H 0.42042 0.99198 0.13272 0.0
H1205 H 0.42655 0.98438 0.18885 0.0
C1206 C 0.41767 0.13345 0.81955 0.0
C1207 C 0.43036 0.13146 0.86113 0.0
C1208 C 0.46829 0.13485 0.81207 0.0
C1209 C 0.45248 0.13027 0.77176 0.0
N1210 N 0.40973 0.12198 0.73784 0.0
N1211 N 0.46732 0.12467 0.89279 0.0
C1212 C 0.42655 0.12886 0.77556 0.0
C1213 C 0.45578 0.13104 0.85649 0.0
N1214 N 0.39796 0.14089 0.82142 0.0
N1215 N 0.49535 0.14221 0.80792 0.0
H1216 H 0.4589 0.11852 0.92555 0.0
H1217 H 0.48401 0.12157 0.88863 0.0
H1218 H 0.50488 0.14491 0.7757 0.0
H1219 H 0.50882 0.1486 0.83602 0.0
H1220 H 0.38965 0.14456 0.7918 0.0
H1221 H 0.39268 0.14701 0.85199 0.0
H1222 H 0.38936 0.11746 0.74013 0.0
H1223 H 0.41545 0.11884 0.70502 0.0
C1224 C 0.9277 0.36352 0.87962 0.0
C1225 C 0.91464 0.334 0.88245 0.0
C1226 C 0.91338 0.33149 0.79748 0.0
C1227 C 0.92858 0.36104 0.79465 0.0
N1228 N 0.93962 0.40359 0.83172 0.0
N1229 N 0.88526 0.2911 0.84458 0.0
C1230 C 0.93251 0.37653 0.83539 0.0
C1231 C 0.90452 0.31841 0.84146 0.0
N1232 N 0.93678 0.37965 0.91842 0.0
N1233 N 0.90817 0.31544 0.75893 0.0
H1234 H 0.87757 0.28119 0.87624 0.0
H1235 H 0.87448 0.27909 0.81618 0.0
H1236 H 0.91234 0.32264 0.72517 0.0
H1237 H 0.90146 0.29449 0.76057 0.0
H1238 H 0.9503 0.40078 0.91717 0.0
H1239 H 0.93305 0.37253 0.95225 0.0
H1240 H 0.93956 0.41536 0.85958 0.0
H1241 H 0.94244 0.41348 0.79987 0.0
C1242 C 0.70635 0.60564 0.87635 0.0
C1243 C 0.73286 0.60894 0.88266 0.0
C1244 C 0.72896 0.59129 0.80223 0.0
C1245 C 0.70499 0.59361 0.79409 0.0
N1246 N 0.68203 0.61782 0.82329 0.0
N1247 N 0.77065 0.60645 0.84835 0.0
C1248 C 0.69681 0.60497 0.83104 0.0
C1249 C 0.74475 0.60254 0.84433 0.0
N1250 N 0.68984 0.60347 0.91273 0.0
N1251 N 0.73611 0.57741 0.77164 0.0
H1252 H 0.78192 0.61333 0.87903 0.0
H1253 H 0.78144 0.60466 0.82044 0.0
H1254 H 0.72447 0.5674 0.74254 0.0
H1255 H 0.75194 0.57325 0.77793 0.0
H1256 H 0.66971 0.59934 0.9078 0.0
H1257 H 0.69475 0.60301 0.94722 0.0
H1258 H 0.67715 0.62735 0.84975 0.0
H1259 H 0.67934 0.62354 0.79048 0.0
C1260 C 0.91127 0.58852 0.84076 0.0
C1261 C 0.92627 0.59007 0.88126 0.0
C1262 C 0.94931 0.56921 0.83751 0.0
C1263 C 0.93556 0.56952 0.79658 0.0
N1264 N 0.89173 0.56307 0.77025 0.0
N1265 N 0.95124 0.5706 0.92092 0.0
C1266 C 0.91293 0.57421 0.80122 0.0
C1267 C 0.94264 0.57688 0.88071 0.0
N1268 N 0.89458 0.59974 0.84015 0.0
N1269 N 0.96838 0.56091 0.83565 0.0
H1270 H 0.9485 0.57615 0.95386 0.0
H1271 H 0.95969 0.5578 0.92209 0.0
H1272 H 0.96971 0.54974 0.80787 0.0
H1273 H 0.98277 0.56509 0.86176 0.0
H1274 H 0.88585 0.60191 0.80968 0.0
H1275 H 0.8906 0.6081 0.8694 0.0
H1276 H 0.87414 0.56473 0.7738 0.0
H1277 H 0.88937 0.54827 0.74607 0.0
C1278 C 0.39425 0.34224 0.86215 0.0
C1279 C 0.41201 0.33266 0.87847 0.0
C1280 C 0.44922 0.36844 0.83185 0.0
C1281 C 0.43059 0.37485 0.80974 0.0
N1282 N 0.38304 0.3625 0.79788 0.0
N1283 N 0.45476 0.33285 0.86853 0.0
C1284 C 0.40241 0.3603 0.82313 0.0
C1285 C 0.439 0.34463 0.86002 0.0
N1286 N 0.37046 0.33577 0.885 0.0
N1287 N 0.47686 0.38522 0.82584 0.0
H1288 H 0.44733 0.31446 0.88688 0.0
H1289 H 0.47381 0.33957 0.85288 0.0
H1290 H 0.48494 0.40338 0.80659 0.0
H1291 H 0.49147 0.38268 0.84403 0.0
H1292 H 0.35868 0.34483 0.87687 0.0
H1293 H 0.36383 0.32379 0.91483 0.0
H1294 H 0.36201 0.34982 0.80355 0.0
H1295 H 0.38762 0.3752 0.76904 0.0
C1296 C 0.70544 0.07524 0.87889 0.0
C1297 C 0.7152 0.10238 0.89619 0.0
C1298 C 0.68314 0.10704 0.84434 0.0
C1299 C 0.67543 0.08126 0.82372 0.0
N1300 N 0.68602 0.0447 0.81326 0.0
N1301 N 0.71856 0.14651 0.88513 0.0
C1302 C 0.68854 0.06644 0.83851 0.0
C1303 C 0.70571 0.11903 0.87545 0.0
N1304 N 0.71056 0.05704 0.90208 0.0
N1305 N 0.66843 0.11985 0.83504 0.0
H1306 H 0.73589 0.15612 0.90638 0.0
H1307 H 0.71396 0.16009 0.86808 0.0
H1308 H 0.65108 0.11107 0.81384 0.0
H1309 H 0.67164 0.13754 0.85226 0.0
H1310 H 0.70119 0.03628 0.89328 0.0
H1311 H 0.72197 0.06169 0.93245 0.0
H1312 H 0.69766 0.03532 0.82006 0.0
H1313 H 0.67448 0.0377 0.78296 0.0
C1314 C 0.6472 0.9706 0.17167 0.0
C1315 C 0.63128 0.94314 0.15494 0.0
C1316 C 0.59284 0.93753 0.20335 0.0
C1317 C 0.61004 0.96313 0.22535 0.0
N1318 N 0.6567 1.00054 0.23741 0.0
N1319 N 0.59074 0.89856 0.16375 0.0
C1320 C 0.6381 0.9788 0.2115 0.0
C1321 C 0.60463 0.92604 0.17358 0.0
N1322 N 0.67009 0.98957 0.14843 0.0
N1323 N 0.56508 0.92437 0.21023 0.0
H1324 H 0.59928 0.88917 0.14384 0.0
H1325 H 0.57221 0.88476 0.17961 0.0
H1326 H 0.55563 0.93282 0.23023 0.0
H1327 H 0.55136 0.90678 0.19197 0.0
H1328 H 0.6803 1.0104 0.15695 0.0
H1329 H 0.67711 0.98545 0.11776 0.0
H1330 H 0.6777 1.01063 0.23057 0.0
H1331 H 0.65199 1.00671 0.26841 0.0
C1332 C 0.07413 0.67289 0.19141 0.0
C1333 C 0.08944 0.66079 0.20871 0.0
C1334 C 0.12807 0.69203 0.15859 0.0
C1335 C 0.11164 0.70159 0.13721 0.0
N1336 N 0.0656 0.69407 0.12552 0.0
N1337 N 0.12873 0.65469 0.19951 0.0
C1338 C 0.0837 0.69011 0.15138 0.0
C1339 C 0.11574 0.66914 0.18938 0.0
N1340 N 0.05136 0.66957 0.21428 0.0
N1341 N 0.1557 0.70522 0.15023 0.0
H1342 H 0.11976 0.63706 0.22017 0.0
H1343 H 0.14684 0.65835 0.18329 0.0
H1344 H 0.16556 0.72263 0.12918 0.0
H1345 H 0.16911 0.70071 0.16805 0.0
H1346 H 0.0414 0.68036 0.20524 0.0
H1347 H 0.04404 0.65858 0.24501 0.0
H1348 H 0.04448 0.6833 0.13172 0.0
H1349 H 0.0709 0.70551 0.09503 0.0
C1350 C 0.34155 0.43782 0.21068 0.0
C1351 C 0.36786 0.43952 0.20894 0.0
C1352 C 0.36365 0.43848 0.12448 0.0
C1353 C 0.33436 0.42689 0.12825 0.0
N1354 N 0.29578 0.41612 0.17809 0.0
N1355 N 0.40518 0.44455 0.16052 0.0
C1356 C 0.32332 0.42628 0.17248 0.0
C1357 C 0.37915 0.44038 0.16473 0.0
N1358 N 0.33467 0.44954 0.24588 0.0
N1359 N 0.37731 0.44915 0.08375 0.0
H1360 H 0.41915 0.45102 0.18785 0.0
H1361 H 0.41267 0.44119 0.12956 0.0
H1362 H 0.36845 0.45161 0.05409 0.0
H1363 H 0.39867 0.45944 0.08108 0.0
H1364 H 0.3162 0.44973 0.24632 0.0
H1365 H 0.34867 0.4629 0.27007 0.0
H1366 H 0.28675 0.41316 0.21078 0.0
H1367 H 0.28197 0.40935 0.15046 0.0
C1368 C 0.771 0.77936 0.51514 0.0
C1369 C 0.77749 0.77319 0.55959 0.0
C1370 C 0.80528 0.7558 0.51947 0.0
C1371 C 0.79507 0.75761 0.47535 0.0
N1372 N 0.76506 0.76967 0.43292 0.0
N1373 N 0.79815 0.75094 0.60222 0.0
C1374 C 0.77715 0.76908 0.47368 0.0
C1375 C 0.79397 0.76025 0.5611 0.0
N1376 N 0.76038 0.79653 0.51194 0.0
N1377 N 0.82698 0.75123 0.52195 0.0
H1378 H 0.78961 0.75239 0.63325 0.0
H1379 H 0.80754 0.73901 0.60468 0.0
H1380 H 0.83677 0.74926 0.4927 0.0
H1381 H 0.83744 0.75283 0.55266 0.0
H1382 H 0.75824 0.80452 0.48063 0.0
H1383 H 0.75665 0.80537 0.54078 0.0
H1384 H 0.74898 0.77387 0.4313 0.0
H1385 H 0.76917 0.76398 0.401 0.0
C1386 C 0.24831 1.00771 0.46871 0.0
C1387 C 0.27444 0.03254 0.46661 0.0
C1388 C 0.28012 0.02377 0.54898 0.0
C1389 C 0.25857 0.99557 0.54528 0.0
N1390 N 0.2223 0.96111 0.49811 0.0
N1391 N 0.31386 0.06551 0.51063 0.0
C1392 C 0.24302 0.98759 0.50377 0.0
C1393 C 0.29007 0.04082 0.50834 0.0
N1394 N 0.22735 1.00421 0.44033 0.0
N1395 N 0.29014 0.03528 0.59139 0.0
H1396 H 0.31892 0.08139 0.48712 0.0
H1397 H 0.32839 0.07023 0.53675 0.0
H1398 H 0.28337 0.0248 0.62257 0.0
H1399 H 0.3034 0.05626 0.5962 0.0
H1400 H 0.20764 0.98716 0.44243 0.0
H1401 H 0.22809 0.02024 0.42099 0.0
H1402 H 0.21221 0.95377 0.46653 0.0
H1403 H 0.2166 0.94612 0.52375 0.0
C1404 C 0.02982 0.25834 0.51615 0.0
C1405 C 0.03854 0.28416 0.53739 0.0
C1406 C 1.0092 0.29183 0.48292 0.0
C1407 C 0.99784 0.26441 0.46599 0.0
N1408 N 0.99298 0.21961 0.47638 0.0
N1409 N 0.03028 0.32229 0.54807 0.0
C1410 C 1.00689 0.24711 0.48569 0.0
C1411 C 0.02655 0.3001 0.52281 0.0
N1412 N 0.04376 0.24464 0.52454 0.0
N1413 N 1.00502 0.31069 0.45984 0.0
H1414 H 0.04202 0.32894 0.57817 0.0
H1415 H 1.01931 0.33242 0.54157 0.0
H1416 H 0.99365 0.30642 0.42945 0.0
H1417 H 1.01533 0.33152 0.4684 0.0
H1418 H 0.03978 0.22683 0.50685 0.0
H1419 H 0.06127 0.25279 0.54539 0.0
H1420 H 0.99721 0.20559 0.49278 0.0
H1421 H 0.97512 0.21056 0.45652 0.0
C1422 C 0.30542 0.28703 0.49546 0.0
C1423 C 0.28931 0.26039 0.47553 0.0
C1424 C 0.25045 0.25291 0.52486 0.0
C1425 C 0.26715 0.27832 0.54766 0.0
N1426 N 0.31325 0.3157 0.56277 0.0
N1427 N 0.24908 0.21546 0.481 0.0
C1428 C 0.29545 0.29429 0.53542 0.0
C1429 C 0.26263 0.24256 0.49345 0.0
N1430 N 0.32934 0.30625 0.475 0.0
N1431 N 0.22273 0.23889 0.53236 0.0
H1432 H 0.25801 0.20706 0.45964 0.0
H1433 H 0.23055 0.2009 0.49592 0.0
H1434 H 0.21304 0.24635 0.55399 0.0
H1435 H 0.20918 0.22151 0.51351 0.0
H1436 H 0.33993 0.32677 0.48543 0.0
H1437 H 0.33745 0.30271 0.4451 0.0
H1438 H 0.33449 0.32584 0.55801 0.0
H1439 H 0.30731 0.32169 0.59277 0.0
C1440 C 0.74239 1.00688 0.55517 0.0
C1441 C 0.75875 0.99465 0.56518 0.0
C1442 C 0.792 0.02433 0.50648 0.0
C1443 C 0.77385 0.03359 0.49179 0.0
N1444 N 0.72825 0.02818 0.49694 0.0
N1445 N 0.79659 0.98823 0.54397 0.0
C1446 C 0.74811 0.02352 0.51479 0.0
C1447 C 0.78278 1.00234 0.53876 0.0
N1448 N 0.72213 1.00379 0.58501 0.0
N1449 N 0.81845 0.03712 0.49055 0.0
H1450 H 0.78972 0.97144 0.56626 0.0
H1451 H 0.81287 0.99125 0.52271 0.0
H1452 H 0.82626 0.05412 0.46855 0.0
H1453 H 0.83332 0.03289 0.50318 0.0
H1454 H 0.71203 1.01503 0.58188 0.0
H1455 H 0.71701 0.99201 0.61513 0.0
H1456 H 0.70825 0.01867 0.50989 0.0
H1457 H 0.73053 0.03906 0.46652 0.0
C1458 C 0.03059 0.73034 0.52494 0.0
C1459 C 0.04134 0.75754 0.54251 0.0
C1460 C 1.01333 0.76521 0.48569 0.0
C1461 C 1.00609 0.73997 0.46346 0.0
N1462 N 1.01263 0.70052 0.4581 0.0
N1463 N 0.04678 0.80261 0.53278 0.0
C1464 C 1.01588 0.72293 0.4821 0.0
C1465 C 0.0338 0.77547 0.52078 0.0
N1466 N 0.03303 0.711 0.54999 0.0
N1467 N 1.00002 0.7791 0.47399 0.0
H1468 H 0.06281 0.81103 0.55674 0.0
H1469 H 0.04379 0.81715 0.51528 0.0
H1470 H 0.9838 0.77113 0.45038 0.0
H1471 H 1.00279 0.79652 0.49158 0.0
H1472 H 1.02293 0.69027 0.54099 0.0
H1473 H 0.04269 0.71491 0.58212 0.0
H1474 H 1.02213 0.6894 0.46788 0.0
H1475 H 1.00265 0.6944 0.42628 0.0
C1476 C 0.07776 0.35866 0.85152 0.0
C1477 C 0.09853 0.35845 0.87951 0.0
C1478 C 0.1118 0.33911 0.81419 0.0
C1479 C 0.09034 0.33831 0.78701 0.0
N1480 N 0.05081 0.34415 0.78053 0.0
N1481 N 0.13329 0.34569 0.88992 0.0
C1482 C 0.07281 0.34732 0.80586 0.0
C1483 C 0.11492 0.34778 0.86154 0.0
N1484 N 0.0627 0.36972 0.86875 0.0
N1485 N 0.12955 0.3321 0.79423 0.0
H1486 H 0.13692 0.35275 0.92403 0.0
H1487 H 0.14387 0.33556 0.88091 0.0
H1488 H 0.12756 0.32535 0.75998 0.0
H1489 H 0.1473 0.33467 0.8101 0.0
H1490 H 0.0498 0.37388 0.84874 0.0
H1491 H 0.06383 0.37581 0.90321 0.0
H1492 H 0.03519 0.34702 0.79378 0.0
H1493 H 0.04722 0.33708 0.74639 0.0
C1494 C 0.67967 0.77419 0.86719 0.0
C1495 C 0.69446 0.77195 0.90615 0.0
C1496 C 0.73063 0.77734 0.85121 0.0
C1497 C 0.71711 0.78227 0.81303 0.0
N1498 N 0.68316 0.79447 0.79145 0.0
N1499 N 0.7371 0.77614 0.93383 0.0
C1500 C 0.69292 0.7833 0.82301 0.0
C1501 C 0.72107 0.77568 0.89777 0.0
N1502 N 0.65274 0.76735 0.87108 0.0
N1503 N 0.75137 0.77176 0.84362 0.0
H1504 H 0.73001 0.76959 0.9673 0.0
H1505 H 0.75826 0.78426 0.93063 0.0
H1506 H 0.75757 0.76898 0.81131 0.0
H1507 H 0.7601 0.76571 0.86962 0.0
H1508 H 0.64067 0.76546 0.84232 0.0
H1509 H 0.6414 0.76127 0.9015 0.0
H1510 H 0.66726 0.79838 0.79887 0.0
H1511 H 0.69317 0.80322 0.76034 0.0
C1512 C 0.24682 0.8991 0.85791 0.0
C1513 C 0.27304 0.91971 0.87425 0.0
C1514 C 0.28651 0.93572 0.79366 0.0
C1515 C 0.25936 0.91753 0.77816 0.0
N1516 N 0.21283 0.88321 0.79594 0.0
N1517 N 0.31646 0.9604 0.8582 0.0
C1518 C 0.23928 0.89952 0.81048 0.0
C1519 C 0.29251 0.93872 0.8421 0.0
N1520 N 0.22951 0.87855 0.88716 0.0
N1521 N 0.30664 0.95023 0.76173 0.0
H1522 H 0.32115 0.96382 0.89344 0.0
H1523 H 0.33043 0.97645 0.83731 0.0
H1524 H 0.30289 0.94809 0.72612 0.0
H1525 H 0.32738 0.96213 0.77003 0.0
H1526 H 0.21149 0.86127 0.87624 0.0
H1527 H 0.23415 0.87783 0.92197 0.0
H1528 H 0.19645 0.87187 0.81839 0.0
H1529 H 0.20716 0.88207 0.76118 0.0
C1530 C 0.35409 0.11888 0.14197 0.0
C1531 C 0.35889 0.1 0.11631 0.0
C1532 C 0.34684 0.07039 0.18622 0.0
C1533 C 0.34042 0.08842 0.21094 0.0
N1534 N 0.33443 0.12798 0.2104 0.0
N1535 N 0.35703 0.0563 0.11226 0.0
C1536 C 0.3431 0.11217 0.18819 0.0
C1537 C 0.35449 0.07535 0.13811 0.0
N1538 N 0.36102 0.14377 0.12273 0.0
N1539 N 0.34613 0.04873 0.20921 0.0
H1540 H 0.36258 0.05928 0.0773 0.0
H1541 H 0.35168 0.03674 0.12403 0.0
H1542 H 0.34043 0.04444 0.24399 0.0
H1543 H 0.35302 0.03617 0.19525 0.0
H1544 H 0.3613 0.15987 0.14113 0.0
H1545 H 0.36826 0.14904 0.08881 0.0
H1546 H 0.33259 0.14357 0.19423 0.0
H1547 H 0.32736 0.12438 0.24457 0.0
C1548 C 0.95826 0.29177 0.19851 0.0
C1549 C 0.94447 0.26421 0.21464 0.0
C1550 C 0.92134 0.24868 0.13884 0.0
C1551 C 0.93661 0.27602 0.1217 0.0
N1552 N 0.97299 0.32276 0.13249 0.0
N1553 N 0.91523 0.21588 0.19926 0.0
C1554 C 0.956 0.29732 0.15092 0.0
C1555 C 0.92682 0.24249 0.18437 0.0
N1556 N 0.97357 0.31271 0.22873 0.0
N1557 N 0.90048 0.22896 0.11277 0.0
H1558 H 0.91715 0.2107 0.23324 0.0
H1559 H 0.90495 0.19896 0.17744 0.0
H1560 H 0.89594 0.23262 0.0794 0.0
H1561 H 0.88639 0.20954 0.12533 0.0
H1562 H 0.98115 0.33337 0.22105 0.0
H1563 H 0.97701 0.30947 0.26308 0.0
H1564 H 0.98848 0.339 0.15092 0.0
H1565 H 0.97319 0.32709 0.09727 0.0
C1566 C 0.8212 0.70667 0.19446 0.0
C1567 C 0.80817 0.68895 0.23309 0.0
C1568 C 0.78718 0.65099 0.1768 0.0
C1569 C 0.79386 0.66975 0.1388 0.0
N1570 N 0.81499 0.71772 0.11616 0.0
N1571 N 0.77503 0.64278 0.25801 0.0
C1572 C 0.81046 0.69827 0.14876 0.0
C1573 C 0.79019 0.66062 0.22358 0.0
N1574 N 0.84432 0.73149 0.20124 0.0
N1575 N 0.7794 0.62414 0.16869 0.0
H1576 H 0.77597 0.64846 0.29254 0.0
H1577 H 0.7597 0.62262 0.25119 0.0
H1578 H 0.78024 0.61698 0.13578 0.0
H1579 H 0.77623 0.61026 0.19527 0.0
H1580 H 0.85571 0.74436 0.17395 0.0
H1581 H 0.85387 0.73722 0.23356 0.0
H1582 H 0.82516 0.73867 0.12384 0.0
H1583 H 0.80601 0.71315 0.08347 0.0
C1584 C 0.9823 0.7006 0.17165 0.0
C1585 C 0.96162 0.69856 0.20271 0.0
C1586 C 0.92661 0.67457 0.14231 0.0
C1587 C 0.94739 0.67749 0.11088 0.0
N1588 N 0.99536 0.69737 0.09238 0.0
N1589 N 0.91523 0.68936 0.21398 0.0
C1590 C 0.97539 0.69207 0.12451 0.0
C1591 C 0.93407 0.68718 0.18699 0.0
N1592 N 1.00821 0.70921 0.18792 0.0
N1593 N 0.8996 0.65906 0.12986 0.0
H1594 H 0.91999 0.6988 0.24645 0.0
H1595 H 0.89562 0.68409 0.20256 0.0
H1596 H 0.89346 0.65084 0.09667 0.0
H1597 H 0.88336 0.65312 0.15302 0.0
H1598 H 0.02372 0.70914 0.16832 0.0
H1599 H 1.01376 0.7143 0.22253 0.0
H1600 H 1.01627 0.71007 0.0985 0.0
H1601 H 0.99086 0.69093 0.05797 0.0
C1602 C 0.34701 0.29304 0.19961 0.0
C1603 C 0.34421 0.26947 0.22291 0.0
C1604 C 0.3617 0.25734 0.15388 0.0
C1605 C 0.36256 0.27976 0.12954 0.0
N1606 N 0.3534 0.31731 0.12673 0.0
N1607 N 0.34554 0.22724 0.22119 0.0
C1608 C 0.35445 0.29715 0.15176 0.0
C1609 C 0.35076 0.25112 0.19981 0.0
N1610 N 0.34332 0.31192 0.2238 0.0
N1611 N 0.37193 0.24235 0.13336 0.0
H1612 H 0.33824 0.22239 0.25514 0.0
H1613 H 0.3467 0.21142 0.20449 0.0
H1614 H 0.37903 0.24559 0.09921 0.0
H1615 H 0.37497 0.22786 0.15086 0.0
H1616 H 0.34764 0.3309 0.21051 0.0
H1617 H 0.33801 0.30961 0.25885 0.0
H1618 H 0.34494 0.32887 0.13917 0.0
H1619 H 0.35914 0.32119 0.09192 0.0
C1620 C 0.7721 0.1145 0.23392 0.0
C1621 C 0.76258 0.0867 0.24596 0.0
C1622 C 0.74709 0.07275 0.16557 0.0
C1623 C 0.75482 0.10034 0.15451 0.0
N1624 N 0.7671 0.14575 0.18283 0.0
N1625 N 0.73484 0.03871 0.2262 0.0
C1626 C 0.76488 0.12067 0.1901 0.0
C1627 C 0.74839 0.06562 0.2125 0.0
N1628 N 0.78931 0.13523 0.26297 0.0
N1629 N 0.73769 0.05312 0.13162 0.0
H1630 H 0.73296 0.03284 0.2609 0.0
H1631 H 0.72295 0.02233 0.20419 0.0
H1632 H 0.73354 0.05659 0.09786 0.0
H1633 H 0.73532 0.03366 0.13628 0.0
H1634 H 0.79926 0.15589 0.25336 0.0
H1635 H 0.79594 0.13182 0.29471 0.0
H1636 H 0.77178 0.1601 0.20921 0.0
H1637 H 0.76136 0.15117 0.15213 0.0
C1638 C 0.69614 0.92278 0.83544 0.0
C1639 C 0.71588 0.94962 0.82079 0.0
C1640 C 0.71203 0.96751 0.89718 0.0
C1641 C 0.68986 0.94117 0.90914 0.0
N1642 N 0.65672 0.89501 0.88353 0.0
N1643 N 0.7395 0.9988 0.83648 0.0
C1644 C 0.68062 0.91922 0.87646 0.0
C1645 C 0.72325 0.97233 0.85146 0.0
N1646 N 0.69308 0.90039 0.81153 0.0
N1647 N 0.72205 0.98837 0.92898 0.0
H1648 H 0.74863 1.00421 0.80402 0.0
H1649 H 0.74203 0.01587 0.85487 0.0
H1650 H 0.71263 0.98712 0.96072 0.0
H1651 H 0.74067 1.00659 0.92485 0.0
H1652 H 0.68103 0.88029 0.82347 0.0
H1653 H 0.7051 0.90196 0.78285 0.0
H1654 H 0.64785 0.87979 0.85821 0.0
H1655 H 0.64416 0.89092 0.91236 0.0
C1656 C 0.07493 0.73472 0.82275 0.0
C1657 C 0.09285 0.75841 0.79648 0.0
C1658 C 0.12539 0.77578 0.8619 0.0
C1659 C 0.10672 0.75287 0.88904 0.0
N1660 N 0.06216 0.71251 0.89825 0.0
N1661 N 0.13305 0.80351 0.79276 0.0
C1662 C 0.08101 0.73291 0.87025 0.0
C1663 C 0.11755 0.77952 0.81654 0.0
N1664 N 0.05246 0.71359 0.80178 0.0
N1665 N 0.15093 0.79356 0.87906 0.0
H1666 H 0.1283 0.80671 0.75919 0.0
H1667 H 0.1495 0.82094 0.80728 0.0
H1668 H 0.15693 0.79202 0.91265 0.0
H1669 H 0.16671 0.80879 0.85928 0.0
H1670 H 0.04003 0.69453 0.81721 0.0
H1671 H 0.04735 0.71429 0.76722 0.0
H1672 H 0.04202 0.69885 0.88839 0.0
H1673 H 0.06596 0.71055 0.93304 0.0
C1674 C 0.27316 0.32129 0.83294 0.0
C1675 C 0.26071 0.32953 0.7979 0.0
C1676 C 0.26242 0.3644 0.85098 0.0
C1677 C 0.27156 0.35394 0.88792 0.0
N1678 N 0.28247 0.31966 0.91451 0.0
N1679 N 0.23598 0.35329 0.7802 0.0
C1680 C 0.2755 0.33125 0.87919 0.0
C1681 C 0.2531 0.34939 0.80889 0.0
N1682 N 0.28463 0.30551 0.82188 0.0
N1683 N 0.26338 0.38913 0.85471 0.0
H1684 H 0.22741 0.34172 0.75027 0.0
H1685 H 0.22767 0.36563 0.78915 0.0
H1686 H 0.27086 0.40188 0.88348 0.0
H1687 H 0.25947 0.39848 0.8268 0.0
H1688 H 0.297 0.30206 0.84461 0.0
H1689 H 0.2845 0.29812 0.78883 0.0
H1690 H 0.28193 0.30091 0.91125 0.0
H1691 H 0.28707 0.32764 0.94797 0.0
C1692 C 1.00477 0.40464 0.47048 0.0
C1693 C 0.03202 0.42641 0.46428 0.0
C1694 C 0.03078 0.44211 0.54437 0.0
C1695 C 1.00344 0.41999 0.54977 0.0
N1696 N 0.96155 0.39219 0.5055 0.0
N1697 N 0.0731 0.46354 0.50021 0.0
C1698 C 0.98948 0.40458 0.50942 0.0
C1699 C 0.04572 0.44451 0.50256 0.0
N1700 N 0.99359 0.38299 0.44028 0.0
N1701 N 0.04127 0.4628 0.57645 0.0
H1702 H 0.08519 0.46776 0.47082 0.0
H1703 H 0.08478 0.47397 0.52907 0.0
H1704 H 0.02951 0.46395 0.60336 0.0
H1705 H 0.05994 0.48097 0.57276 0.0
H1706 H 0.97455 0.36546 0.44609 0.0
H1707 H 1.00473 0.38087 0.41322 0.0
H1708 H 0.9511 0.38223 0.47531 0.0
H1709 H 0.94942 0.3962 0.52785 0.0
C1710 C 0.63113 0.62244 0.55335 0.0
C1711 C 0.63861 0.60159 0.55204 0.0
C1712 C 0.61969 0.59018 0.47227 0.0
C1713 C 0.61343 0.61207 0.47329 0.0
N1714 N 0.6001 0.63709 0.5252 0.0
N1715 N 0.6418 0.56685 0.50773 0.0
C1716 C 0.61554 0.62495 0.51668 0.0
C1717 C 0.63362 0.58601 0.51061 0.0
N1718 N 0.63977 0.64088 0.58906 0.0
N1719 N 0.60909 0.57093 0.43779 0.0
H1720 H 0.64892 0.56062 0.53588 0.0
H1721 H 0.64318 0.55821 0.47663 0.0
H1722 H 0.59426 0.56945 0.41471 0.0
H1723 H 0.61109 0.55351 0.4363 0.0
H1724 H 0.63764 0.65829 0.58883 0.0
H1725 H 0.65176 0.64069 0.61633 0.0
H1726 H 0.5991 0.64476 0.55761 0.0
H1727 H 0.58464 0.63513 0.50292 0.0
C1728 C 0.42935 0.06451 0.49928 0.0
C1729 C 0.4475 0.06175 0.53064 0.0
C1730 C 0.44373 0.02383 0.48234 0.0
C1731 C 0.42906 0.02918 0.44733 0.0
N1732 N 0.41018 0.05727 0.42158 0.0
N1733 N 0.47807 0.04368 0.54248 0.0
C1734 C 0.42299 0.05066 0.45524 0.0
C1735 C 0.45655 0.04295 0.51914 0.0
N1736 N 0.41637 0.07849 0.5126 0.0
N1737 N 0.44473 1.00003 0.48229 0.0
H1738 H 0.48904 0.05817 0.56805 0.0
H1739 H 0.48706 0.03212 0.53242 0.0
H1740 H 0.43436 0.98426 0.45856 0.0
H1741 H 0.45316 0.99447 0.50954 0.0
H1742 H 0.40076 0.07863 0.49331 0.0
H1743 H 0.41888 0.08748 0.54512 0.0
H1744 H 0.40816 0.07472 0.42321 0.0
H1745 H 0.40302 0.04628 0.39073 0.0
C1746 C 0.58696 1.00086 0.51297 0.0
C1747 C 0.60825 1.00916 0.47933 0.0
C1748 C 0.64267 0.03586 0.53896 0.0
C1749 C 0.62117 0.02856 0.57225 0.0
N1750 N 0.57277 1.00967 0.58729 0.0
N1751 N 0.65649 0.02882 0.46268 0.0
C1752 C 0.5933 1.01237 0.55838 0.0
C1753 C 0.63614 0.02539 0.49285 0.0
N1754 N 0.56067 0.98112 0.5023 0.0
N1755 N 0.66948 0.05339 0.55084 0.0
H1756 H 0.65274 0.02124 0.42887 0.0
H1757 H 0.67701 0.03701 0.47191 0.0
H1758 H 0.67615 0.05969 0.58452 0.0
H1759 H 0.68534 0.06308 0.52687 0.0
H1760 H 0.54509 0.97178 0.5269 0.0
H1761 H 0.55481 0.97198 0.46983 0.0
H1762 H 0.55236 1.00118 0.57699 0.0
H1763 H 0.57632 0.01845 0.62021 0.0
C1764 C 0.02553 0.5846 0.536 0.0
C1765 C 1.00862 0.59542 0.54995 0.0
C1766 C 1.01517 0.61728 0.47311 0.0
C1767 C 0.03371 0.60808 0.46047 0.0
N1768 N 0.06256 0.58991 0.48648 0.0
N1769 N 0.99317 0.62787 0.5358 0.0
C1770 C 0.04081 0.59394 0.49393 0.0
C1771 C 1.00498 0.61333 0.5195 0.0
N1772 N 0.02605 0.56435 0.56153 0.0
N1773 N 1.00776 0.63044 0.44127 0.0
H1774 H 0.98742 0.62716 0.57038 0.0
H1775 H 0.99177 0.64283 0.51664 0.0
H1776 H 1.01657 0.63609 0.4084 0.0
H1777 H 0.99172 0.63441 0.44652 0.0
H1778 H 0.0356 0.55358 0.55007 0.0
H1779 H 1.01467 0.55635 0.59183 0.0
H1780 H 0.07004 0.58206 0.51173 0.0
H1781 H 0.07511 0.59716 0.45738 0.0
C1782 C 0.44001 0.44538 0.48301 0.0
C1783 C 0.42733 0.42231 0.45216 0.0
C1784 C 0.4236 0.39205 0.51697 0.0
C1785 C 0.43732 0.41537 0.54688 0.0
N1786 N 0.46605 0.46443 0.55357 0.0
N1787 N 0.41097 0.37414 0.43872 0.0
C1788 C 0.44771 0.44206 0.52846 0.0
C1789 C 0.42068 0.39587 0.46871 0.0
N1790 N 0.44408 0.47056 0.46993 0.0
N1791 N 0.41191 0.36605 0.53487 0.0
H1792 H 0.40655 0.37532 0.40405 0.0
H1793 H 0.40913 0.35527 0.4473 0.0
H1794 H 0.41404 0.3618 0.56918 0.0
H1795 H 0.39825 0.34848 0.51658 0.0
H1796 H 0.44962 0.4867 0.49319 0.0
H1797 H 0.44003 0.4751 0.43702 0.0
H1798 H 0.47686 0.48421 0.53976 0.0
H1799 H 0.47285 0.46289 0.58649 0.0
loop_
_geom_bond_atom_site_label_1
_geom_bond_atom_site_label_2
_geom_bond_distance
_geom_bond_site_symmetry_2
_ccdc_geom_bond_type
C0 O2 1.247 . S
C0 O4 1.258 . S
C1 O8 1.247 . S
C1 O9 1.258 . S
O2 C0 1.247 . S
O2 Zn3 2.028 1_554 S
Zn3 O2 2.028 1_556 S
Zn3 O7 2.035 . S
Zn3 O9 2.035 . S
Zn3 O10 2.028 . S
O4 C0 1.258 . S
O4 Zn5 2.035 . S
Zn5 O4 2.035 . S
Zn5 O6 2.028 . S
Zn5 O8 2.028 1_554 S
Zn5 O11 2.035 . S
O6 Zn5 2.028 . S
O6 C12 1.247 1_554 S
O7 Zn3 2.035 . S
O7 C12 1.258 . S
O8 C1 1.247 . S
O8 Zn5 2.028 1_556 S
O9 C1 1.258 . S
O9 Zn3 2.035 . S
O10 Zn3 2.028 . S
O10 C13 1.247 1_556 S
O11 Zn5 2.035 . S
O11 C13 1.258 . S
C12 O6 1.247 1_556 S
C12 O7 1.258 . S
C13 O10 1.247 1_554 S
C13 O11 1.258 . S
C14 O16 1.247 . S
C14 O18 1.258 . S
C15 O22 1.247 . S
C15 O23 1.258 . S
O16 C14 1.247 . S
O16 Zn17 2.028 . S
Zn17 O16 2.028 . S
Zn17 O21 2.035 . S
Zn17 O23 2.035 1_556 S
Zn17 O24 2.028 . S
O18 C14 1.258 . S
O18 Zn19 2.035 1_556 S
Zn19 O18 2.035 1_554 S
Zn19 O20 2.028 . S
Zn19 O22 2.028 . S
Zn19 O25 2.035 . S
O20 Zn19 2.028 . S
O20 C26 1.247 . S
O21 Zn17 2.035 . S
O21 C26 1.258 1_556 S
O22 C15 1.247 . S
O22 Zn19 2.028 . S
O23 C15 1.258 . S
O23 Zn17 2.035 1_554 S
O24 Zn17 2.028 . S
O24 C27 1.247 . S
O25 Zn19 2.035 . S
O25 C27 1.258 1_554 S
C26 O20 1.247 . S
C26 O21 1.258 1_554 S
C27 O24 1.247 . S
C27 O25 1.258 1_556 S
C28 O30 1.247 1_556 S
C28 O32 1.258 . S
C29 O36 1.247 1_554 S
C29 O37 1.258 . S
O30 C28 1.247 1_554 S
O30 Zn31 2.028 . S
Zn31 O30 2.028 . S
Zn31 O35 2.035 . S
Zn31 O37 2.035 . S
Zn31 O38 2.028 1_554 S
O32 C28 1.258 . S
O32 Zn33 2.035 . S
Zn33 O32 2.035 . S
Zn33 O34 2.028 1_556 S
Zn33 O36 2.028 . S
Zn33 O39 2.035 . S
O34 Zn33 2.028 1_554 S
O34 C40 1.247 . S
O35 Zn31 2.035 . S
O35 C40 1.258 . S
O36 C29 1.247 1_556 S
O36 Zn33 2.028 . S
O37 C29 1.258 . S
O37 Zn31 2.035 . S
O38 Zn31 2.028 1_556 S
O38 C41 1.247 . S
O39 Zn33 2.035 . S
O39 C41 1.258 . S
C40 O34 1.247 . S
C40 O35 1.258 . S
C41 O38 1.247 . S
C41 O39 1.258 . S
C42 O44 1.247 . S
C42 O46 1.258 1_556 S
C43 O50 1.247 . S
C43 O51 1.258 1_554 S
O44 C42 1.247 . S
O44 Zn45 2.028 . S
Zn45 O44 2.028 . S
Zn45 O49 2.035 1_556 S
Zn45 O51 2.035 . S
Zn45 O52 2.028 . S
O46 C42 1.258 1_554 S
O46 Zn47 2.035 . S
Zn47 O46 2.035 . S
Zn47 O48 2.028 . S
Zn47 O50 2.028 . S
Zn47 O53 2.035 1_554 S
O48 Zn47 2.028 . S
O48 C54 1.247 . S
O49 Zn45 2.035 1_554 S
O49 C54 1.258 . S
O50 C43 1.247 . S
O50 Zn47 2.028 . S
O51 C43 1.258 1_556 S
O51 Zn45 2.035 . S
O52 Zn45 2.028 . S
O52 C55 1.247 . S
O53 Zn47 2.035 1_556 S
O53 C55 1.258 . S
C54 O48 1.247 . S
C54 O49 1.258 . S
C55 O52 1.247 . S
C55 O53 1.258 . S
C56 O58 1.247 . S
C56 O60 1.258 . S
C57 O64 1.247 . S
C57 O65 1.258 . S
O58 C56 1.247 . S
O58 Zn59 2.028 . S
Zn59 O58 2.028 . S
Zn59 O63 2.035 . S
Zn59 O65 2.035 1_554 S
Zn59 O66 2.028 . S
O60 C56 1.258 . S
O60 Zn61 2.035 1_554 S
Zn61 O60 2.035 1_556 S
Zn61 O62 2.028 . S
Zn61 O64 2.028 . S
Zn61 O67 2.035 . S
O62 Zn61 2.028 . S
O62 C68 1.247 . S
O63 Zn59 2.035 . S
O63 C68 1.258 1_554 S
O64 C57 1.247 . S
O64 Zn61 2.028 . S
O65 C57 1.258 . S
O65 Zn59 2.035 1_556 S
O66 Zn59 2.028 . S
O66 C69 1.247 . S
O67 Zn61 2.035 . S
O67 C69 1.258 1_556 S
C68 O62 1.247 . S
C68 O63 1.258 1_556 S
C69 O66 1.247 . S
C69 O67 1.258 1_554 S
C70 O72 1.247 . S
C70 O74 1.258 . S
C71 O78 1.247 . S
C71 O79 1.258 . S
O72 C70 1.247 . S
O72 Zn73 2.028 1_556 S
Zn73 O72 2.028 1_554 S
Zn73 O77 2.035 . S
Zn73 O79 2.035 . S
Zn73 O80 2.028 . S
O74 C70 1.258 . S
O74 Zn75 2.035 . S
Zn75 O74 2.035 . S
Zn75 O76 2.028 . S
Zn75 O78 2.028 1_556 S
Zn75 O81 2.035 . S
O76 Zn75 2.028 . S
O76 C82 1.247 1_556 S
O77 Zn73 2.035 . S
O77 C82 1.258 . S
O78 C71 1.247 . S
O78 Zn75 2.028 1_554 S
O79 C71 1.258 . S
O79 Zn73 2.035 . S
O80 Zn73 2.028 . S
O80 C83 1.247 1_554 S
O81 Zn75 2.035 . S
O81 C83 1.258 . S
C82 O76 1.247 1_554 S
C82 O77 1.258 . S
C83 O80 1.247 1_556 S
C83 O81 1.258 . S
C84 O86 1.247 1_556 S
C84 O88 1.258 . S
C85 O92 1.247 1_554 S
C85 O93 1.258 . S
O86 C84 1.247 1_554 S
O86 Zn87 2.028 . S
Zn87 O86 2.028 . S
Zn87 O91 2.035 . S
Zn87 O93 2.035 . S
Zn87 O94 2.028 1_554 S
O88 C84 1.258 . S
O88 Zn89 2.035 . S
Zn89 O88 2.035 . S
Zn89 O90 2.028 1_556 S
Zn89 O92 2.028 . S
Zn89 O95 2.035 . S
O90 Zn89 2.028 1_554 S
O90 C96 1.247 . S
O91 Zn87 2.035 . S
O91 C96 1.258 . S
O92 C85 1.247 1_556 S
O92 Zn89 2.028 . S
O93 C85 1.258 . S
O93 Zn87 2.035 . S
O94 Zn87 2.028 1_556 S
O94 C97 1.247 . S
O95 Zn89 2.035 . S
O95 C97 1.258 . S
C96 O90 1.247 . S
C96 O91 1.258 . S
C97 O94 1.247 . S
C97 O95 1.258 . S
C98 O100 1.247 . S
C98 O102 1.258 . S
C99 O106 1.247 . S
C99 O107 1.258 . S
O100 C98 1.247 . S
O100 Zn101 2.028 1_554 S
Zn101 O100 2.028 1_556 S
Zn101 O105 2.035 . S
Zn101 O107 2.035 . S
Zn101 O108 2.028 . S
O102 C98 1.258 . S
O102 Zn103 2.035 . S
Zn103 O102 2.035 . S
Zn103 O104 2.028 . S
Zn103 O106 2.028 1_554 S
Zn103 O109 2.035 . S
O104 Zn103 2.028 . S
O104 C110 1.247 1_554 S
O105 Zn101 2.035 . S
O105 C110 1.258 . S
O106 C99 1.247 . S
O106 Zn103 2.028 1_556 S
O107 C99 1.258 . S
O107 Zn101 2.035 . S
O108 Zn101 2.028 . S
O108 C111 1.247 1_556 S
O109 Zn103 2.035 . S
O109 C111 1.258 . S
C110 O104 1.247 1_556 S
C110 O105 1.258 . S
C111 O108 1.247 1_554 S
C111 O109 1.258 . S
C112 O114 1.247 . S
C112 O116 1.258 . S
C113 O120 1.247 . S
C113 O121 1.258 . S
O114 C112 1.247 . S
O114 Zn115 2.028 1_554 S
Zn115 O114 2.028 1_556 S
Zn115 O119 2.035 . S
Zn115 O121 2.035 . S
Zn115 O122 2.028 . S
O116 C112 1.258 . S
O116 Zn117 2.035 . S
Zn117 O116 2.035 . S
Zn117 O118 2.028 . S
Zn117 O120 2.028 1_554 S
Zn117 O123 2.035 . S
O118 Zn117 2.028 . S
O118 C124 1.247 1_554 S
O119 Zn115 2.035 . S
O119 C124 1.258 . S
O120 C113 1.247 . S
O120 Zn117 2.028 1_556 S
O121 C113 1.258 . S
O121 Zn115 2.035 . S
O122 Zn115 2.028 . S
O122 C125 1.247 1_556 S
O123 Zn117 2.035 . S
O123 C125 1.258 . S
C124 O118 1.247 1_556 S
C124 O119 1.258 . S
C125 O122 1.247 1_554 S
C125 O123 1.258 . S
C126 O128 1.247 . S
C126 O130 1.258 . S
C127 O134 1.247 . S
C127 O135 1.258 . S
O128 C126 1.247 . S
O128 Zn129 2.028 . S
Zn129 O128 2.028 . S
Zn129 O133 2.035 . S
Zn129 O135 2.035 1_554 S
Zn129 O136 2.028 . S
O130 C126 1.258 . S
O130 Zn131 2.035 1_554 S
Zn131 O130 2.035 1_556 S
Zn131 O132 2.028 . S
Zn131 O134 2.028 . S
Zn131 O137 2.035 . S
O132 Zn131 2.028 . S
O132 C138 1.247 . S
O133 Zn129 2.035 . S
O133 C138 1.258 1_554 S
O134 C127 1.247 . S
O134 Zn131 2.028 . S
O135 C127 1.258 . S
O135 Zn129 2.035 1_556 S
O136 Zn129 2.028 . S
O136 C139 1.247 . S
O137 Zn131 2.035 . S
O137 C139 1.258 1_556 S
C138 O132 1.247 . S
C138 O133 1.258 1_556 S
C139 O136 1.247 . S
C139 O137 1.258 1_554 S
C140 O142 1.247 . S
C140 O144 1.258 . S
C141 O148 1.247 . S
C141 O149 1.258 . S
O142 C140 1.247 . S
O142 Zn143 2.028 . S
Zn143 O142 2.028 . S
Zn143 O147 2.035 . S
Zn143 O149 2.035 1_554 S
Zn143 O150 2.028 . S
O144 C140 1.258 . S
O144 Zn145 2.035 1_554 S
Zn145 O144 2.035 1_556 S
Zn145 O146 2.028 . S
Zn145 O148 2.028 . S
Zn145 O151 2.035 . S
O146 Zn145 2.028 . S
O146 C152 1.247 . S
O147 Zn143 2.035 . S
O147 C152 1.258 1_554 S
O148 C141 1.247 . S
O148 Zn145 2.028 . S
O149 C141 1.258 . S
O149 Zn143 2.035 1_556 S
O150 Zn143 2.028 . S
O150 C153 1.247 . S
O151 Zn145 2.035 . S
O151 C153 1.258 1_556 S
C152 O146 1.247 . S
C152 O147 1.258 1_556 S
C153 O150 1.247 . S
C153 O151 1.258 1_554 S
C154 O156 1.247 . S
C154 O158 1.258 . S
C155 O162 1.247 . S
C155 O163 1.258 . S
O156 C154 1.247 . S
O156 Zn157 2.028 1_556 S
Zn157 O156 2.028 1_554 S
Zn157 O161 2.035 . S
Zn157 O163 2.035 . S
Zn157 O164 2.028 . S
O158 C154 1.258 . S
O158 Zn159 2.035 . S
Zn159 O158 2.035 . S
Zn159 O160 2.028 . S
Zn159 O162 2.028 1_556 S
Zn159 O165 2.035 . S
O160 Zn159 2.028 . S
O160 C166 1.247 1_556 S
O161 Zn157 2.035 . S
O161 C166 1.258 . S
O162 C155 1.247 . S
O162 Zn159 2.028 1_554 S
O163 C155 1.258 . S
O163 Zn157 2.035 . S
O164 Zn157 2.028 . S
O164 C167 1.247 1_554 S
O165 Zn159 2.035 . S
O165 C167 1.258 . S
C166 O160 1.247 1_554 S
C166 O161 1.258 . S
C167 O164 1.247 1_556 S
C167 O165 1.258 . S
C168 O170 1.247 . S
C168 O172 1.258 . S
C169 O176 1.247 . S
C169 O177 1.258 . S
O170 C168 1.247 . S
O170 Zn171 2.028 . S
Zn171 O170 2.028 . S
Zn171 O175 2.035 . S
Zn171 O177 2.035 . S
Zn171 O178 2.028 . S
O172 C168 1.258 . S
O172 Zn173 2.035 . S
Zn173 O172 2.035 . S
Zn173 O174 2.028 . S
Zn173 O176 2.028 . S
Zn173 O179 2.035 . S
O174 Zn173 2.028 . S
O174 C180 1.247 . S
O175 Zn171 2.035 . S
O175 C180 1.258 . S
O176 C169 1.247 . S
O176 Zn173 2.028 . S
O177 C169 1.258 . S
O177 Zn171 2.035 . S
O178 Zn171 2.028 . S
O178 C181 1.247 . S
O179 Zn173 2.035 . S
O179 C181 1.258 . S
C180 O174 1.247 . S
C180 O175 1.258 . S
C181 O178 1.247 . S
C181 O179 1.258 . S
C182 O184 1.247 . S
C182 O186 1.258 . S
C183 O190 1.247 . S
C183 O191 1.258 . S
O184 C182 1.247 . S
O184 Zn185 2.028 . S
Zn185 O184 2.028 . S
Zn185 O189 2.035 . S
Zn185 O191 2.035 . S
Zn185 O192 2.028 1_545 S
O186 C182 1.258 . S
O186 Zn187 2.035 . S
Zn187 O186 2.035 . S
Zn187 O188 2.028 . S
Zn187 O190 2.028 . S
Zn187 O193 2.035 . S
O188 Zn187 2.028 . S
O188 C194 1.247 . S
O189 Zn185 2.035 . S
O189 C194 1.258 . S
O190 C183 1.247 . S
O190 Zn187 2.028 . S
O191 C183 1.258 . S
O191 Zn185 2.035 . S
O192 Zn185 2.028 1_565 S
O192 C195 1.247 1_565 S
O193 Zn187 2.035 . S
O193 C195 1.258 . S
C194 O188 1.247 . S
C194 O189 1.258 . S
C195 O192 1.247 1_545 S
C195 O193 1.258 . S
C196 O198 1.247 . S
C196 O200 1.258 . S
C197 O204 1.247 . S
C197 O205 1.258 . S
O198 C196 1.247 . S
O198 Zn199 2.028 . S
Zn199 O198 2.028 . S
Zn199 O203 2.035 1_655 S
Zn199 O205 2.035 . S
Zn199 O206 2.028 . S
O200 C196 1.258 . S
O200 Zn201 2.035 . S
Zn201 O200 2.035 . S
Zn201 O202 2.028 . S
Zn201 O204 2.028 . S
Zn201 O207 2.035 . S
O202 Zn201 2.028 . S
O202 C208 1.247 . S
O203 Zn199 2.035 1_455 S
O203 C208 1.258 1_455 S
O204 C197 1.247 . S
O204 Zn201 2.028 . S
O205 C197 1.258 . S
O205 Zn199 2.035 . S
O206 Zn199 2.028 . S
O206 C209 1.247 . S
O207 Zn201 2.035 . S
O207 C209 1.258 . S
C208 O202 1.247 . S
C208 O203 1.258 1_655 S
C209 O206 1.247 . S
C209 O207 1.258 . S
C210 O212 1.247 . S
C210 O214 1.258 . S
C211 O218 1.247 . S
C211 O219 1.258 . S
O212 C210 1.247 . S
O212 Zn213 2.028 . S
Zn213 O212 2.028 . S
Zn213 O217 2.035 . S
Zn213 O219 2.035 . S
Zn213 O220 2.028 . S
O214 C210 1.258 . S
O214 Zn215 2.035 . S
Zn215 O214 2.035 . S
Zn215 O216 2.028 . S
Zn215 O218 2.028 . S
Zn215 O221 2.035 . S
O216 Zn215 2.028 . S
O216 C222 1.247 . S
O217 Zn213 2.035 . S
O217 C222 1.258 . S
O218 C211 1.247 . S
O218 Zn215 2.028 . S
O219 C211 1.258 . S
O219 Zn213 2.035 . S
O220 Zn213 2.028 . S
O220 C223 1.247 . S
O221 Zn215 2.035 . S
O221 C223 1.258 . S
C222 O216 1.247 . S
C222 O217 1.258 . S
C223 O220 1.247 . S
C223 O221 1.258 . S
C224 O226 1.247 . S
C224 O228 1.258 . S
C225 O232 1.247 . S
C225 O233 1.258 . S
O226 C224 1.247 . S
O226 Zn227 2.028 . S
Zn227 O226 2.028 . S
Zn227 O231 2.035 . S
Zn227 O233 2.035 . S
Zn227 O234 2.028 . S
O228 C224 1.258 . S
O228 Zn229 2.035 . S
Zn229 O228 2.035 . S
Zn229 O230 2.028 . S
Zn229 O232 2.028 . S
Zn229 O235 2.035 . S
O230 Zn229 2.028 . S
O230 C236 1.247 . S
O231 Zn227 2.035 . S
O231 C236 1.258 . S
O232 C225 1.247 . S
O232 Zn229 2.028 . S
O233 C225 1.258 . S
O233 Zn227 2.035 . S
O234 Zn227 2.028 . S
O234 C237 1.247 . S
O235 Zn229 2.035 . S
O235 C237 1.258 . S
C236 O230 1.247 . S
C236 O231 1.258 . S
C237 O234 1.247 . S
C237 O235 1.258 . S
C238 O240 1.247 . S
C238 O242 1.258 . S
C239 O246 1.247 . S
C239 O247 1.258 . S
O240 C238 1.247 . S
O240 Zn241 2.028 . S
Zn241 O240 2.028 . S
Zn241 O245 2.035 . S
Zn241 O247 2.035 . S
Zn241 O248 2.028 . S
O242 C238 1.258 . S
O242 Zn243 2.035 . S
Zn243 O242 2.035 . S
Zn243 O244 2.028 . S
Zn243 O246 2.028 . S
Zn243 O249 2.035 . S
O244 Zn243 2.028 . S
O244 C250 1.247 . S
O245 Zn241 2.035 . S
O245 C250 1.258 . S
O246 C239 1.247 . S
O246 Zn243 2.028 . S
O247 C239 1.258 . S
O247 Zn241 2.035 . S
O248 Zn241 2.028 . S
O248 C251 1.247 . S
O249 Zn243 2.035 . S
O249 C251 1.258 . S
C250 O244 1.247 . S
C250 O245 1.258 . S
C251 O248 1.247 . S
C251 O249 1.258 . S
C252 O254 1.247 . S
C252 O256 1.258 . S
C253 O260 1.247 . S
C253 O261 1.258 . S
O254 C252 1.247 . S
O254 Zn255 2.028 . S
Zn255 O254 2.028 . S
Zn255 O259 2.035 . S
Zn255 O261 2.035 . S
Zn255 O262 2.028 . S
O256 C252 1.258 . S
O256 Zn257 2.035 . S
Zn257 O256 2.035 . S
Zn257 O258 2.028 . S
Zn257 O260 2.028 . S
Zn257 O263 2.035 . S
O258 Zn257 2.028 . S
O258 C264 1.247 . S
O259 Zn255 2.035 . S
O259 C264 1.258 . S
O260 C253 1.247 . S
O260 Zn257 2.028 . S
O261 C253 1.258 . S
O261 Zn255 2.035 . S
O262 Zn255 2.028 . S
O262 C265 1.247 . S
O263 Zn257 2.035 . S
O263 C265 1.258 . S
C264 O258 1.247 . S
C264 O259 1.258 . S
C265 O262 1.247 . S
C265 O263 1.258 . S
C266 O268 1.247 . S
C266 O270 1.258 . S
C267 O274 1.247 . S
C267 O275 1.258 . S
O268 C266 1.247 . S
O268 Zn269 2.028 . S
Zn269 O268 2.028 . S
Zn269 O273 2.035 . S
Zn269 O275 2.035 . S
Zn269 O276 2.028 . S
O270 C266 1.258 . S
O270 Zn271 2.035 . S
Zn271 O270 2.035 . S
Zn271 O272 2.028 . S
Zn271 O274 2.028 . S
Zn271 O277 2.035 . S
O272 Zn271 2.028 . S
O272 C278 1.247 . S
O273 Zn269 2.035 . S
O273 C278 1.258 . S
O274 C267 1.247 . S
O274 Zn271 2.028 . S
O275 C267 1.258 . S
O275 Zn269 2.035 . S
O276 Zn269 2.028 . S
O276 C279 1.247 . S
O277 Zn271 2.035 . S
O277 C279 1.258 . S
C278 O272 1.247 . S
C278 O273 1.258 . S
C279 O276 1.247 . S
C279 O277 1.258 . S
C280 O282 1.247 . S
C280 O284 1.258 . S
C281 O288 1.247 . S
C281 O289 1.258 . S
O282 C280 1.247 . S
O282 Zn283 2.028 . S
Zn283 O282 2.028 . S
Zn283 O287 2.035 . S
Zn283 O289 2.035 . S
Zn283 O290 2.028 . S
O284 C280 1.258 . S
O284 Zn285 2.035 . S
Zn285 O284 2.035 . S
Zn285 O286 2.028 . S
Zn285 O288 2.028 . S
Zn285 O291 2.035 . S
O286 Zn285 2.028 . S
O286 C292 1.247 . S
O287 Zn283 2.035 . S
O287 C292 1.258 . S
O288 C281 1.247 . S
O288 Zn285 2.028 . S
O289 C281 1.258 . S
O289 Zn283 2.035 . S
O290 Zn283 2.028 . S
O290 C293 1.247 . S
O291 Zn285 2.035 . S
O291 C293 1.258 . S
C292 O286 1.247 . S
C292 O287 1.258 . S
C293 O290 1.247 . S
C293 O291 1.258 . S
C294 O296 1.247 . S
C294 O298 1.258 . S
C295 O302 1.247 . S
C295 O303 1.258 . S
O296 C294 1.247 . S
O296 Zn297 2.028 . S
Zn297 O296 2.028 . S
Zn297 O301 2.035 . S
Zn297 O303 2.035 . S
Zn297 O304 2.028 . S
O298 C294 1.258 . S
O298 Zn299 2.035 . S
Zn299 O298 2.035 . S
Zn299 O300 2.028 . S
Zn299 O302 2.028 . S
Zn299 O305 2.035 . S
O300 Zn299 2.028 . S
O300 C306 1.247 . S
O301 Zn297 2.035 . S
O301 C306 1.258 . S
O302 C295 1.247 . S
O302 Zn299 2.028 . S
O303 C295 1.258 . S
O303 Zn297 2.035 . S
O304 Zn297 2.028 . S
O304 C307 1.247 . S
O305 Zn299 2.035 . S
O305 C307 1.258 . S
C306 O300 1.247 . S
C306 O301 1.258 . S
C307 O304 1.247 . S
C307 O305 1.258 . S
C308 O310 1.247 . S
C308 O312 1.258 . S
C309 O316 1.247 . S
C309 O317 1.258 1_545 S
O310 C308 1.247 . S
O310 Zn311 2.028 . S
Zn311 O310 2.028 . S
Zn311 O315 2.035 . S
Zn311 O317 2.035 1_545 S
Zn311 O318 2.028 . S
O312 C308 1.258 . S
O312 Zn313 2.035 . S
Zn313 O312 2.035 . S
Zn313 O314 2.028 . S
Zn313 O316 2.028 . S
Zn313 O319 2.035 . S
O314 Zn313 2.028 . S
O314 C320 1.247 . S
O315 Zn311 2.035 . S
O315 C320 1.258 . S
O316 C309 1.247 . S
O316 Zn313 2.028 . S
O317 C309 1.258 1_565 S
O317 Zn311 2.035 1_565 S
O318 Zn311 2.028 . S
O318 C321 1.247 . S
O319 Zn313 2.035 . S
O319 C321 1.258 . S
C320 O314 1.247 . S
C320 O315 1.258 . S
C321 O318 1.247 . S
C321 O319 1.258 . S
C322 O324 1.247 1_655 S
C322 O326 1.258 . S
C323 O330 1.247 . S
C323 O331 1.258 . S
O324 C322 1.247 1_455 S
O324 Zn325 2.028 1_455 S
Zn325 O324 2.028 1_655 S
Zn325 O329 2.035 . S
Zn325 O331 2.035 . S
Zn325 O332 2.028 . S
O326 C322 1.258 . S
O326 Zn327 2.035 . S
Zn327 O326 2.035 . S
Zn327 O328 2.028 . S
Zn327 O330 2.028 . S
Zn327 O333 2.035 . S
O328 Zn327 2.028 . S
O328 C334 1.247 . S
O329 Zn325 2.035 . S
O329 C334 1.258 . S
O330 C323 1.247 . S
O330 Zn327 2.028 . S
O331 C323 1.258 . S
O331 Zn325 2.035 . S
O332 Zn325 2.028 . S
O332 C335 1.247 . S
O333 Zn327 2.035 . S
O333 C335 1.258 . S
C334 O328 1.247 . S
C334 O329 1.258 . S
C335 O332 1.247 . S
C335 O333 1.258 . S
C336 O338 1.247 . S
C336 O340 1.258 . S
C337 O344 1.247 . S
C337 O345 1.258 . S
O338 C336 1.247 . S
O338 Zn339 2.028 . S
Zn339 O338 2.028 . S
Zn339 O343 2.035 . S
Zn339 O345 2.035 . S
Zn339 O346 2.028 . S
O340 C336 1.258 . S
O340 Zn341 2.035 . S
Zn341 O340 2.035 . S
Zn341 O342 2.028 . S
Zn341 O344 2.028 . S
Zn341 O347 2.035 . S
O342 Zn341 2.028 . S
O342 C348 1.247 . S
O343 Zn339 2.035 . S
O343 C348 1.258 . S
O344 C337 1.247 . S
O344 Zn341 2.028 . S
O345 C337 1.258 . S
O345 Zn339 2.035 . S
O346 Zn339 2.028 . S
O346 C349 1.247 . S
O347 Zn341 2.035 . S
O347 C349 1.258 . S
C348 O342 1.247 . S
C348 O343 1.258 . S
C349 O346 1.247 . S
C349 O347 1.258 . S
C350 O352 1.247 . S
C350 O354 1.258 . S
C351 O358 1.247 . S
C351 O359 1.258 . S
O352 C350 1.247 . S
O352 Zn353 2.028 . S
Zn353 O352 2.028 . S
Zn353 O357 2.035 . S
Zn353 O359 2.035 . S
Zn353 O360 2.028 . S
O354 C350 1.258 . S
O354 Zn355 2.035 . S
Zn355 O354 2.035 . S
Zn355 O356 2.028 . S
Zn355 O358 2.028 . S
Zn355 O361 2.035 . S
O356 Zn355 2.028 . S
O356 C362 1.247 . S
O357 Zn353 2.035 . S
O357 C362 1.258 . S
O358 C351 1.247 . S
O358 Zn355 2.028 . S
O359 C351 1.258 . S
O359 Zn353 2.035 . S
O360 Zn353 2.028 . S
O360 C363 1.247 . S
O361 Zn355 2.035 . S
O361 C363 1.258 . S
C362 O356 1.247 . S
C362 O357 1.258 . S
C363 O360 1.247 . S
C363 O361 1.258 . S
C364 O366 1.247 . S
C364 O368 1.258 . S
C365 O372 1.247 . S
C365 O373 1.258 . S
O366 C364 1.247 . S
O366 Zn367 2.028 . S
Zn367 O366 2.028 . S
Zn367 O371 2.035 . S
Zn367 O373 2.035 . S
Zn367 O374 2.028 . S
O368 C364 1.258 . S
O368 Zn369 2.035 . S
Zn369 O368 2.035 . S
Zn369 O370 2.028 . S
Zn369 O372 2.028 . S
Zn369 O375 2.035 . S
O370 Zn369 2.028 . S
O370 C376 1.247 . S
O371 Zn367 2.035 . S
O371 C376 1.258 . S
O372 C365 1.247 . S
O372 Zn369 2.028 . S
O373 C365 1.258 . S
O373 Zn367 2.035 . S
O374 Zn367 2.028 . S
O374 C377 1.247 . S
O375 Zn369 2.035 . S
O375 C377 1.258 . S
C376 O370 1.247 . S
C376 O371 1.258 . S
C377 O374 1.247 . S
C377 O375 1.258 . S
C378 O380 1.247 . S
C378 O382 1.258 . S
C379 O386 1.247 . S
C379 O387 1.258 . S
O380 C378 1.247 . S
O380 Zn381 2.028 . S
Zn381 O380 2.028 . S
Zn381 O385 2.035 . S
Zn381 O387 2.035 . S
Zn381 O388 2.028 . S
O382 C378 1.258 . S
O382 Zn383 2.035 . S
Zn383 O382 2.035 . S
Zn383 O384 2.028 . S
Zn383 O386 2.028 . S
Zn383 O389 2.035 . S
O384 Zn383 2.028 . S
O384 C390 1.247 . S
O385 Zn381 2.035 . S
O385 C390 1.258 . S
O386 C379 1.247 . S
O386 Zn383 2.028 . S
O387 C379 1.258 . S
O387 Zn381 2.035 . S
O388 Zn381 2.028 . S
O388 C391 1.247 . S
O389 Zn383 2.035 . S
O389 C391 1.258 . S
C390 O384 1.247 . S
C390 O385 1.258 . S
C391 O388 1.247 . S
C391 O389 1.258 . S
C392 O394 1.247 . S
C392 O396 1.258 . S
C393 O400 1.247 . S
C393 O401 1.258 . S
O394 C392 1.247 . S
O394 Zn395 2.028 . S
Zn395 O394 2.028 . S
Zn395 O399 2.035 1_565 S
Zn395 O401 2.035 . S
Zn395 O402 2.028 . S
O396 C392 1.258 . S
O396 Zn397 2.035 . S
Zn397 O396 2.035 . S
Zn397 O398 2.028 . S
Zn397 O400 2.028 . S
Zn397 O403 2.035 . S
O398 Zn397 2.028 . S
O398 C404 1.247 . S
O399 Zn395 2.035 1_545 S
O399 C404 1.258 1_545 S
O400 C393 1.247 . S
O400 Zn397 2.028 . S
O401 C393 1.258 . S
O401 Zn395 2.035 . S
O402 Zn395 2.028 . S
O402 C405 1.247 . S
O403 Zn397 2.035 . S
O403 C405 1.258 . S
C404 O398 1.247 . S
C404 O399 1.258 1_565 S
C405 O402 1.247 . S
C405 O403 1.258 . S
C406 O408 1.247 . S
C406 O410 1.258 . S
C407 O414 1.247 1_455 S
C407 O415 1.258 . S
O408 C406 1.247 . S
O408 Zn409 2.028 . S
Zn409 O408 2.028 . S
Zn409 O413 2.035 . S
Zn409 O415 2.035 . S
Zn409 O416 2.028 . S
O410 C406 1.258 . S
O410 Zn411 2.035 . S
Zn411 O410 2.035 . S
Zn411 O412 2.028 . S
Zn411 O414 2.028 1_455 S
Zn411 O417 2.035 . S
O412 Zn411 2.028 . S
O412 C418 1.247 . S
O413 Zn409 2.035 . S
O413 C418 1.258 . S
O414 C407 1.247 1_655 S
O414 Zn411 2.028 1_655 S
O415 C407 1.258 . S
O415 Zn409 2.035 . S
O416 Zn409 2.028 . S
O416 C419 1.247 . S
O417 Zn411 2.035 . S
O417 C419 1.258 . S
C418 O412 1.247 . S
C418 O413 1.258 . S
C419 O416 1.247 . S
C419 O417 1.258 . S
C420 O422 1.247 . S
C420 O424 1.258 . S
C421 O428 1.247 . S
C421 O429 1.258 . S
O422 C420 1.247 . S
O422 Zn423 2.028 . S
Zn423 O422 2.028 . S
Zn423 O427 2.035 . S
Zn423 O429 2.035 . S
Zn423 O430 2.028 . S
O424 C420 1.258 . S
O424 Zn425 2.035 . S
Zn425 O424 2.035 . S
Zn425 O426 2.028 . S
Zn425 O428 2.028 . S
Zn425 O431 2.035 . S
O426 Zn425 2.028 . S
O426 C432 1.247 . S
O427 Zn423 2.035 . S
O427 C432 1.258 . S
O428 C421 1.247 . S
O428 Zn425 2.028 . S
O429 C421 1.258 . S
O429 Zn423 2.035 . S
O430 Zn423 2.028 . S
O430 C433 1.247 . S
O431 Zn425 2.035 . S
O431 C433 1.258 . S
C432 O426 1.247 . S
C432 O427 1.258 . S
C433 O430 1.247 . S
C433 O431 1.258 . S
C434 O436 1.247 . S
C434 O438 1.258 . S
C435 O442 1.247 . S
C435 O443 1.258 . S
O436 C434 1.247 . S
O436 Zn437 2.028 . S
Zn437 O436 2.028 . S
Zn437 O441 2.035 . S
Zn437 O443 2.035 . S
Zn437 O444 2.028 . S
O438 C434 1.258 . S
O438 Zn439 2.035 . S
Zn439 O438 2.035 . S
Zn439 O440 2.028 1_565 S
Zn439 O442 2.028 . S
Zn439 O445 2.035 . S
O440 Zn439 2.028 1_545 S
O440 C446 1.247 1_545 S
O441 Zn437 2.035 . S
O441 C446 1.258 . S
O442 C435 1.247 . S
O442 Zn439 2.028 . S
O443 C435 1.258 . S
O443 Zn437 2.035 . S
O444 Zn437 2.028 . S
O444 C447 1.247 . S
O445 Zn439 2.035 . S
O445 C447 1.258 . S
C446 O440 1.247 1_565 S
C446 O441 1.258 . S
C447 O444 1.247 . S
C447 O445 1.258 . S
C448 O450 1.247 1_455 S
C448 O452 1.258 . S
C449 O456 1.247 . S
C449 O457 1.258 . S
O450 C448 1.247 1_655 S
O450 Zn451 2.028 1_655 S
Zn451 O450 2.028 1_455 S
Zn451 O455 2.035 . S
Zn451 O457 2.035 . S
Zn451 O458 2.028 . S
O452 C448 1.258 . S
O452 Zn453 2.035 . S
Zn453 O452 2.035 . S
Zn453 O454 2.028 . S
Zn453 O456 2.028 . S
Zn453 O459 2.035 . S
O454 Zn453 2.028 . S
O454 C460 1.247 . S
O455 Zn451 2.035 . S
O455 C460 1.258 . S
O456 C449 1.247 . S
O456 Zn453 2.028 . S
O457 C449 1.258 . S
O457 Zn451 2.035 . S
O458 Zn451 2.028 . S
O458 C461 1.247 . S
O459 Zn453 2.035 . S
O459 C461 1.258 . S
C460 O454 1.247 . S
C460 O455 1.258 . S
C461 O458 1.247 . S
C461 O459 1.258 . S
C462 O464 1.247 . S
C462 O466 1.258 . S
C463 O470 1.247 . S
C463 O471 1.258 . S
O464 C462 1.247 . S
O464 Zn465 2.028 . S
Zn465 O464 2.028 . S
Zn465 O469 2.035 . S
Zn465 O471 2.035 . S
Zn465 O472 2.028 . S
O466 C462 1.258 . S
O466 Zn467 2.035 . S
Zn467 O466 2.035 . S
Zn467 O468 2.028 . S
Zn467 O470 2.028 . S
Zn467 O473 2.035 . S
O468 Zn467 2.028 . S
O468 C474 1.247 . S
O469 Zn465 2.035 . S
O469 C474 1.258 . S
O470 C463 1.247 . S
O470 Zn467 2.028 . S
O471 C463 1.258 . S
O471 Zn465 2.035 . S
O472 Zn465 2.028 . S
O472 C475 1.247 . S
O473 Zn467 2.035 . S
O473 C475 1.258 . S
C474 O468 1.247 . S
C474 O469 1.258 . S
C475 O472 1.247 . S
C475 O473 1.258 . S
C476 O478 1.247 . S
C476 O480 1.258 . S
C477 O484 1.247 . S
C477 O485 1.258 . S
O478 C476 1.247 . S
O478 Zn479 2.028 . S
Zn479 O478 2.028 . S
Zn479 O483 2.035 . S
Zn479 O485 2.035 . S
Zn479 O486 2.028 . S
O480 C476 1.258 . S
O480 Zn481 2.035 . S
Zn481 O480 2.035 . S
Zn481 O482 2.028 . S
Zn481 O484 2.028 . S
Zn481 O487 2.035 . S
O482 Zn481 2.028 . S
O482 C488 1.247 . S
O483 Zn479 2.035 . S
O483 C488 1.258 . S
O484 C477 1.247 . S
O484 Zn481 2.028 . S
O485 C477 1.258 . S
O485 Zn479 2.035 . S
O486 Zn479 2.028 . S
O486 C489 1.247 . S
O487 Zn481 2.035 . S
O487 C489 1.258 . S
C488 O482 1.247 . S
C488 O483 1.258 . S
C489 O486 1.247 . S
C489 O487 1.258 . S
C490 O492 1.247 . S
C490 O494 1.258 . S
C491 O498 1.247 . S
C491 O499 1.258 . S
O492 C490 1.247 . S
O492 Zn493 2.028 . S
Zn493 O492 2.028 . S
Zn493 O497 2.035 . S
Zn493 O499 2.035 . S
Zn493 O500 2.028 . S
O494 C490 1.258 . S
O494 Zn495 2.035 . S
Zn495 O494 2.035 . S
Zn495 O496 2.028 . S
Zn495 O498 2.028 . S
Zn495 O501 2.035 . S
O496 Zn495 2.028 . S
O496 C502 1.247 . S
O497 Zn493 2.035 . S
O497 C502 1.258 . S
O498 C491 1.247 . S
O498 Zn495 2.028 . S
O499 C491 1.258 . S
O499 Zn493 2.035 . S
O500 Zn493 2.028 . S
O500 C503 1.247 . S
O501 Zn495 2.035 . S
O501 C503 1.258 . S
C502 O496 1.247 . S
C502 O497 1.258 . S
C503 O500 1.247 . S
C503 O501 1.258 . S
C504 C505 1.363 1_554 S
C504 C510 1.379 1_655 S
C504 N512 1.356 . S
C505 C504 1.363 1_556 S
C505 C511 1.363 . S
C506 C507 1.363 1_556 S
C506 C511 1.379 1_455 S
C506 N513 1.356 . S
C507 C506 1.363 1_554 S
C507 C510 1.363 . S
N508 C510 1.356 . S
N508 H520 0.984 . S
N508 H521 0.985 . S
N509 C511 1.356 . S
N509 H514 0.984 . S
N509 H515 0.985 . S
C510 C504 1.379 1_455 S
C510 C507 1.363 . S
C510 N508 1.356 . S
C511 C505 1.363 . S
C511 C506 1.379 1_655 S
C511 N509 1.356 . S
N512 C504 1.356 . S
N512 H518 0.984 . S
N512 H519 0.984 . S
N513 C506 1.356 . S
N513 H516 0.984 . S
N513 H517 0.985 . S
H514 N509 0.984 . S
H515 N509 0.985 . S
H516 N513 0.984 . S
H517 N513 0.985 . S
H518 N512 0.984 . S
H519 N512 0.984 . S
H520 N508 0.984 . S
H521 N508 0.985 . S
C522 C523 1.363 1_554 S
C522 C528 1.379 . S
C522 N530 1.356 . S
C523 C522 1.363 1_556 S
C523 C529 1.363 . S
C524 C525 1.363 1_556 S
C524 C529 1.379 . S
C524 N531 1.356 . S
C525 C524 1.363 1_554 S
C525 C528 1.363 . S
N526 C528 1.356 . S
N526 H538 0.984 . S
N526 H539 0.985 . S
N527 C529 1.356 . S
N527 H532 0.984 . S
N527 H533 0.985 . S
C528 C522 1.379 . S
C528 C525 1.363 . S
C528 N526 1.356 . S
C529 C523 1.363 . S
C529 C524 1.379 . S
C529 N527 1.356 . S
N530 C522 1.356 . S
N530 H536 0.984 . S
N530 H537 0.984 . S
N531 C524 1.356 . S
N531 H534 0.984 . S
N531 H535 0.985 . S
H532 N527 0.984 . S
H533 N527 0.985 . S
H534 N531 0.984 . S
H535 N531 0.985 . S
H536 N530 0.984 . S
H537 N530 0.984 . S
H538 N526 0.984 . S
H539 N526 0.985 . S
C540 C541 1.363 . S
C540 C546 1.379 1_545 S
C540 N548 1.356 . S
C541 C540 1.363 . S
C541 C547 1.363 1_556 S
C542 C543 1.363 . S
C542 C547 1.379 1_565 S
C542 N549 1.356 . S
C543 C542 1.363 . S
C543 C546 1.363 1_554 S
N544 C546 1.356 . S
N544 H556 0.984 . S
N544 H557 0.985 . S
N545 C547 1.356 . S
N545 H550 0.984 . S
N545 H551 0.985 . S
C546 C540 1.379 1_565 S
C546 C543 1.363 1_556 S
C546 N544 1.356 . S
C547 C541 1.363 1_554 S
C547 C542 1.379 1_545 S
C547 N545 1.356 . S
N548 C540 1.356 . S
N548 H554 0.984 . S
N548 H555 0.984 . S
N549 C542 1.356 . S
N549 H552 0.984 . S
N549 H553 0.985 . S
H550 N545 0.984 . S
H551 N545 0.985 . S
H552 N549 0.984 . S
H553 N549 0.985 . S
H554 N548 0.984 . S
H555 N548 0.984 . S
H556 N544 0.984 . S
H557 N544 0.985 . S
C558 C559 1.363 . S
C558 C564 1.379 1_455 S
C558 N566 1.356 . S
C559 C558 1.363 . S
C559 C565 1.363 1_554 S
C560 C561 1.363 . S
C560 C565 1.379 1_655 S
C560 N567 1.356 . S
C561 C560 1.363 . S
C561 C564 1.363 1_556 S
N562 C564 1.356 . S
N562 H574 0.984 . S
N562 H575 0.985 . S
N563 C565 1.356 . S
N563 H568 0.984 . S
N563 H569 0.985 . S
C564 C558 1.379 1_655 S
C564 C561 1.363 1_554 S
C564 N562 1.356 . S
C565 C559 1.363 1_556 S
C565 C560 1.379 1_455 S
C565 N563 1.356 . S
N566 C558 1.356 . S
N566 H572 0.984 . S
N566 H573 0.984 . S
N567 C560 1.356 . S
N567 H570 0.984 . S
N567 H571 0.985 . S
H568 N563 0.984 . S
H569 N563 0.985 . S
H570 N567 0.984 . S
H571 N567 0.985 . S
H572 N566 0.984 . S
H573 N566 0.984 . S
H574 N562 0.984 . S
H575 N562 0.985 . S
C576 C577 1.363 1_554 S
C576 C582 1.379 . S
C576 N584 1.356 . S
C577 C576 1.363 1_556 S
C577 C583 1.363 . S
C578 C579 1.363 1_556 S
C578 C583 1.379 . S
C578 N585 1.356 . S
C579 C578 1.363 1_554 S
C579 C582 1.363 . S
N580 C582 1.356 . S
N580 H592 0.984 . S
N580 H593 0.985 . S
N581 C583 1.356 . S
N581 H586 0.984 . S
N581 H587 0.985 . S
C582 C576 1.379 . S
C582 C579 1.363 . S
C582 N580 1.356 . S
C583 C577 1.363 . S
C583 C578 1.379 . S
C583 N581 1.356 . S
N584 C576 1.356 . S
N584 H590 0.984 . S
N584 H591 0.984 . S
N585 C578 1.356 . S
N585 H588 0.984 . S
N585 H589 0.985 . S
H586 N581 0.984 . S
H587 N581 0.985 . S
H588 N585 0.984 . S
H589 N585 0.985 . S
H590 N584 0.984 . S
H591 N584 0.984 . S
H592 N580 0.984 . S
H593 N580 0.985 . S
C594 C595 1.363 1_556 S
C594 C600 1.379 1_565 S
C594 N602 1.356 . S
C595 C594 1.363 1_554 S
C595 C601 1.363 . S
C596 C597 1.363 1_554 S
C596 C601 1.379 1_545 S
C596 N603 1.356 . S
C597 C596 1.363 1_556 S
C597 C600 1.363 . S
N598 C600 1.356 . S
N598 H610 0.984 . S
N598 H611 0.985 . S
N599 C601 1.356 . S
N599 H604 0.984 . S
N599 H605 0.985 . S
C600 C594 1.379 1_545 S
C600 C597 1.363 . S
C600 N598 1.356 . S
C601 C595 1.363 . S
C601 C596 1.379 1_565 S
C601 N599 1.356 . S
N602 C594 1.356 . S
N602 H608 0.984 . S
N602 H609 0.984 . S
N603 C596 1.356 . S
N603 H606 0.984 . S
N603 H607 0.985 . S
H604 N599 0.984 . S
H605 N599 0.985 . S
H606 N603 0.984 . S
H607 N603 0.985 . S
H608 N602 0.984 . S
H609 N602 0.984 . S
H610 N598 0.984 . S
H611 N598 0.985 . S
C612 C613 1.363 . S
C612 C618 1.379 . S
C612 N620 1.356 . S
C613 C612 1.363 . S
C613 C619 1.363 . S
C614 C615 1.363 . S
C614 C619 1.379 . S
C614 N621 1.356 . S
C615 C614 1.363 . S
C615 C618 1.363 . S
N616 C618 1.356 . S
N616 H628 0.984 . S
N616 H629 0.985 . S
N617 C619 1.356 . S
N617 H622 0.984 . S
N617 H623 0.985 . S
C618 C612 1.379 . S
C618 C615 1.363 . S
C618 N616 1.356 . S
C619 C613 1.363 . S
C619 C614 1.379 . S
C619 N617 1.356 . S
N620 C612 1.356 . S
N620 H626 0.984 . S
N620 H627 0.984 . S
N621 C614 1.356 . S
N621 H624 0.984 . S
N621 H625 0.985 . S
H622 N617 0.984 . S
H623 N617 0.985 . S
H624 N621 0.984 . S
H625 N621 0.985 . S
H626 N620 0.984 . S
H627 N620 0.984 . S
H628 N616 0.984 . S
H629 N616 0.985 . S
C630 C631 1.363 . S
C630 C636 1.379 . S
C630 N638 1.356 . S
C631 C630 1.363 . S
C631 C637 1.363 . S
C632 C633 1.363 . S
C632 C637 1.379 . S
C632 N639 1.356 . S
C633 C632 1.363 . S
C633 C636 1.363 . S
N634 C636 1.356 . S
N634 H646 0.984 . S
N634 H647 0.985 . S
N635 C637 1.356 . S
N635 H640 0.984 . S
N635 H641 0.985 . S
C636 C630 1.379 . S
C636 C633 1.363 . S
C636 N634 1.356 . S
C637 C631 1.363 . S
C637 C632 1.379 . S
C637 N635 1.356 . S
N638 C630 1.356 . S
N638 H644 0.984 . S
N638 H645 0.984 . S
N639 C632 1.356 . S
N639 H642 0.965 1_565 S
N639 H643 0.985 . S
H640 N635 0.984 . S
H641 N635 0.985 . S
H642 N639 0.965 1_545 S
H643 N639 0.985 . S
H644 N638 0.984 . S
H645 N638 0.984 . S
H646 N634 0.984 . S
H647 N634 0.985 . S
C648 C649 1.363 . S
C648 C654 1.379 . S
C648 N656 1.356 . S
C649 C648 1.363 . S
C649 C655 1.363 . S
C650 C651 1.363 . S
C650 C655 1.379 . S
C650 N657 1.356 . S
C651 C650 1.363 . S
C651 C654 1.363 . S
N652 C654 1.356 . S
N652 H664 0.984 . S
N652 H665 0.985 . S
N653 C655 1.356 1_655 S
N653 H658 0.984 . S
N653 H659 0.985 . S
C654 C648 1.379 . S
C654 C651 1.363 . S
C654 N652 1.356 . S
C655 C649 1.363 . S
C655 C650 1.379 . S
C655 N653 1.356 1_455 S
N656 C648 1.356 . S
N656 H662 0.984 . S
N656 H663 0.984 . S
N657 C650 1.356 . S
N657 H660 0.984 . S
N657 H661 0.985 . S
H658 N653 0.984 . S
H659 N653 0.985 . S
H660 N657 0.984 . S
H661 N657 0.985 . S
H662 N656 0.984 . S
H663 N656 0.984 . S
H664 N652 0.984 . S
H665 N652 0.985 . S
C666 C667 1.363 . S
C666 C672 1.379 . S
C666 N674 1.356 . S
C667 C666 1.363 . S
C667 C673 1.363 . S
C668 C669 1.363 . S
C668 C673 1.379 . S
C668 N675 1.356 1_565 S
C669 C668 1.363 . S
C669 C672 1.363 . S
N670 C672 1.356 . S
N670 H682 0.984 . S
N670 H683 0.985 . S
N671 C673 1.356 . S
N671 H676 0.984 . S
N671 H677 0.985 . S
C672 C666 1.379 . S
C672 C669 1.363 . S
C672 N670 1.356 . S
C673 C667 1.363 . S
C673 C668 1.379 . S
C673 N671 1.356 . S
N674 C666 1.356 . S
N674 H680 0.984 . S
N674 H681 0.984 . S
N675 C668 1.356 1_545 S
N675 H678 0.984 . S
N675 H679 0.985 . S
H676 N671 0.984 . S
H677 N671 0.985 . S
H678 N675 0.984 . S
H679 N675 0.985 . S
H680 N674 0.984 . S
H681 N674 0.984 . S
H682 N670 0.984 . S
H683 N670 0.985 . S
C684 C685 1.363 . S
C684 C690 1.379 . S
C684 N692 1.356 1_455 S
C685 C684 1.363 . S
C685 C691 1.363 . S
C686 C687 1.363 . S
C686 C691 1.379 . S
C686 N693 1.356 . S
C687 C686 1.363 . S
C687 C690 1.363 . S
N688 C690 1.356 . S
N688 H700 0.984 . S
N688 H701 0.985 . S
N689 C691 1.356 . S
N689 H694 0.984 . S
N689 H695 0.985 . S
C690 C684 1.379 . S
C690 C687 1.363 . S
C690 N688 1.356 . S
C691 C685 1.363 . S
C691 C686 1.379 . S
C691 N689 1.356 . S
N692 C684 1.356 1_655 S
N692 H698 0.984 . S
N692 H699 0.984 . S
N693 C686 1.356 . S
N693 H696 0.984 . S
N693 H697 0.985 . S
H694 N689 0.984 . S
H695 N689 0.985 . S
H696 N693 0.984 . S
H697 N693 0.985 . S
H698 N692 0.984 . S
H699 N692 0.984 . S
H700 N688 0.984 . S
H701 N688 0.985 . S
C702 C703 1.363 . S
C702 C708 1.379 . S
C702 N710 1.356 . S
C703 C702 1.363 . S
C703 C709 1.363 . S
C704 C705 1.363 . S
C704 C709 1.379 . S
C704 N711 1.356 . S
C705 C704 1.363 . S
C705 C708 1.363 . S
N706 C708 1.356 . S
N706 H718 0.984 . S
N706 H719 0.985 . S
N707 C709 1.356 . S
N707 H712 0.984 . S
N707 H713 0.985 . S
C708 C702 1.379 . S
C708 C705 1.363 . S
C708 N706 1.356 . S
C709 C703 1.363 . S
C709 C704 1.379 . S
C709 N707 1.356 . S
N710 C702 1.356 . S
N710 H716 0.984 . S
N710 H717 0.984 . S
N711 C704 1.356 . S
N711 H714 0.984 . S
N711 H715 0.985 . S
H712 N707 0.984 . S
H713 N707 0.985 . S
H714 N711 0.984 . S
H715 N711 0.985 . S
H716 N710 0.984 . S
H717 N710 0.984 . S
H718 N706 0.984 . S
H719 N706 0.985 . S
C720 C721 1.363 . S
C720 C726 1.379 . S
C720 N728 1.356 . S
C721 C720 1.363 . S
C721 C727 1.363 . S
C722 C723 1.363 . S
C722 C727 1.379 . S
C722 N729 1.356 . S
C723 C722 1.363 . S
C723 C726 1.363 . S
N724 C726 1.356 . S
N724 H736 0.984 . S
N724 H737 0.985 . S
N725 C727 1.356 . S
N725 H730 0.984 . S
N725 H731 0.985 . S
C726 C720 1.379 . S
C726 C723 1.363 . S
C726 N724 1.356 . S
C727 C721 1.363 . S
C727 C722 1.379 . S
C727 N725 1.356 . S
N728 C720 1.356 . S
N728 H734 0.984 1_545 S
N728 H735 0.984 1_545 S
N729 C722 1.356 . S
N729 H732 0.984 . S
N729 H733 0.985 . S
H730 N725 0.984 . S
H731 N725 0.985 . S
H732 N729 0.984 . S
H733 N729 0.985 . S
H734 N728 0.984 1_565 S
H735 N728 0.984 1_565 S
H736 N724 0.984 . S
H737 N724 0.985 . S
C738 C739 1.363 . S
C738 C744 1.379 . S
C738 N746 1.356 . S
C739 C738 1.363 . S
C739 C745 1.363 . S
C740 C741 1.363 . S
C740 C745 1.379 . S
C740 N747 1.356 1_655 S
C741 C740 1.363 . S
C741 C744 1.363 . S
N742 C744 1.356 . S
N742 H754 0.984 . S
N742 H755 0.985 . S
N743 C745 1.356 . S
N743 H748 0.984 . S
N743 H749 0.985 . S
C744 C738 1.379 . S
C744 C741 1.363 . S
C744 N742 1.356 . S
C745 C739 1.363 . S
C745 C740 1.379 . S
C745 N743 1.356 . S
N746 C738 1.356 . S
N746 H752 0.984 . S
N746 H753 0.984 . S
N747 C740 1.356 1_455 S
N747 H750 0.984 . S
N747 H751 0.985 . S
H748 N743 0.984 . S
H749 N743 0.985 . S
H750 N747 0.984 . S
H751 N747 0.985 . S
H752 N746 0.984 . S
H753 N746 0.984 . S
H754 N742 0.984 . S
H755 N742 0.985 . S
C756 C757 1.363 . S
C756 C762 1.379 . S
C756 N764 1.356 . S
C757 C756 1.363 . S
C757 C763 1.363 . S
C758 C759 1.363 . S
C758 C763 1.379 . S
C758 N765 1.356 . S
C759 C758 1.363 . S
C759 C762 1.363 . S
N760 C762 1.356 . S
N760 H772 0.984 . S
N760 H773 0.985 . S
N761 C763 1.356 . S
N761 H766 0.984 . S
N761 H767 0.985 . S
C762 C756 1.379 . S
C762 C759 1.363 . S
C762 N760 1.356 . S
C763 C757 1.363 . S
C763 C758 1.379 . S
C763 N761 1.356 . S
N764 C756 1.356 . S
N764 H770 0.984 . S
N764 H771 0.984 . S
N765 C758 1.356 . S
N765 H768 0.984 . S
N765 H769 0.985 . S
H766 N761 0.984 . S
H767 N761 0.985 . S
H768 N765 0.984 . S
H769 N765 0.985 . S
H770 N764 0.984 . S
H771 N764 0.984 . S
H772 N760 0.984 . S
H773 N760 0.985 . S
C774 C775 1.363 . S
C774 C780 1.379 . S
C774 N782 1.356 . S
C775 C774 1.363 . S
C775 C781 1.363 . S
C776 C777 1.363 . S
C776 C781 1.379 . S
C776 N783 1.356 . S
C777 C776 1.363 . S
C777 C780 1.363 . S
N778 C780 1.356 . S
N778 H790 0.984 . S
N778 H791 0.985 . S
N779 C781 1.356 . S
N779 H784 0.984 . S
N779 H785 0.985 . S
C780 C774 1.379 . S
C780 C777 1.363 . S
C780 N778 1.356 . S
C781 C775 1.363 . S
C781 C776 1.379 . S
C781 N779 1.356 . S
N782 C774 1.356 . S
N782 H788 0.984 . S
N782 H789 0.984 . S
N783 C776 1.356 . S
N783 H786 0.984 . S
N783 H787 0.985 . S
H784 N779 0.984 . S
H785 N779 0.985 . S
H786 N783 0.984 . S
H787 N783 0.985 . S
H788 N782 0.984 . S
H789 N782 0.984 . S
H790 N778 0.984 . S
H791 N778 0.985 . S
C792 C793 1.363 . S
C792 C798 1.379 . S
C792 N800 1.356 . S
C793 C792 1.363 . S
C793 C799 1.363 . S
C794 C795 1.363 . S
C794 C799 1.379 . S
C794 N801 1.356 . S
C795 C794 1.363 . S
C795 C798 1.363 . S
N796 C798 1.356 . S
N796 H808 0.984 . S
N796 H809 0.985 . S
N797 C799 1.356 1_565 S
N797 H802 0.984 . S
N797 H803 0.985 . S
C798 C792 1.379 . S
C798 C795 1.363 . S
C798 N796 1.356 . S
C799 C793 1.363 . S
C799 C794 1.379 . S
C799 N797 1.356 1_545 S
N800 C792 1.356 . S
N800 H806 0.984 . S
N800 H807 0.984 . S
N801 C794 1.356 . S
N801 H804 0.984 . S
N801 H805 0.985 1_545 S
H802 N797 0.984 . S
H803 N797 0.985 . S
H804 N801 0.984 . S
H805 N801 0.985 1_565 S
H806 N800 0.984 . S
H807 N800 0.984 . S
H808 N796 0.984 . S
H809 N796 0.985 . S
C810 C811 1.363 . S
C810 C816 1.379 . S
C810 N818 1.356 1_655 S
C811 C810 1.363 . S
C811 C817 1.363 . S
C812 C813 1.363 . S
C812 C817 1.379 . S
C812 N819 1.356 . S
C813 C812 1.363 . S
C813 C816 1.363 . S
N814 C816 1.356 . S
N814 H826 0.984 . S
N814 H827 0.985 . S
N815 C817 1.356 . S
N815 H820 0.984 . S
N815 H821 0.985 . S
C816 C810 1.379 . S
C816 C813 1.363 . S
C816 N814 1.356 . S
C817 C811 1.363 . S
C817 C812 1.379 . S
C817 N815 1.356 . S
N818 C810 1.356 1_455 S
N818 H824 0.984 . S
N818 H825 0.984 . S
N819 C812 1.356 . S
N819 H822 0.984 . S
N819 H823 0.985 . S
H820 N815 0.984 . S
H821 N815 0.985 . S
H822 N819 0.984 . S
H823 N819 0.985 . S
H824 N818 0.984 . S
H825 N818 0.984 . S
H826 N814 0.984 . S
H827 N814 0.985 . S
C828 C829 1.363 . S
C828 C834 1.379 . S
C828 N836 1.356 . S
C829 C828 1.363 . S
C829 C835 1.363 1_556 S
C830 C831 1.363 1_554 S
C830 C835 1.379 . S
C830 N837 1.356 . S
C831 C830 1.363 1_556 S
C831 C834 1.363 . S
N832 C834 1.356 . S
N832 H844 0.984 . S
N832 H845 0.985 . S
N833 C835 1.356 . S
N833 H838 0.984 . S
N833 H839 0.985 . S
C834 C828 1.379 . S
C834 C831 1.363 . S
C834 N832 1.356 . S
C835 C829 1.363 1_554 S
C835 C830 1.379 . S
C835 N833 1.356 . S
N836 C828 1.356 . S
N836 H842 0.984 . S
N836 H843 0.984 . S
N837 C830 1.356 . S
N837 H840 0.984 . S
N837 H841 0.985 . S
H838 N833 0.984 . S
H839 N833 0.985 . S
H840 N837 0.984 . S
H841 N837 0.985 . S
H842 N836 0.984 . S
H843 N836 0.984 . S
H844 N832 0.984 . S
H845 N832 0.985 . S
C846 C847 1.363 1_554 S
C846 C852 1.379 . S
C846 N854 1.356 . S
C847 C846 1.363 1_556 S
C847 C853 1.363 . S
C848 C849 1.363 . S
C848 C853 1.379 . S
C848 N855 1.356 . S
C849 C848 1.363 . S
C849 C852 1.363 1_556 S
N850 C852 1.356 . S
N850 H862 0.984 . S
N850 H863 0.985 . S
N851 C853 1.356 . S
N851 H856 0.984 . S
N851 H857 0.985 . S
C852 C846 1.379 . S
C852 C849 1.363 1_554 S
C852 N850 1.356 . S
C853 C847 1.363 . S
C853 C848 1.379 . S
C853 N851 1.356 . S
N854 C846 1.356 . S
N854 H860 0.984 . S
N854 H861 0.984 . S
N855 C848 1.356 . S
N855 H858 0.984 . S
N855 H859 0.985 . S
H856 N851 0.984 . S
H857 N851 0.985 . S
H858 N855 0.984 . S
H859 N855 0.985 . S
H860 N854 0.984 . S
H861 N854 0.984 . S
H862 N850 0.984 . S
H863 N850 0.985 . S
C864 C865 1.363 1_554 S
C864 C870 1.379 . S
C864 N872 1.356 . S
C865 C864 1.363 1_556 S
C865 C871 1.363 . S
C866 C867 1.363 . S
C866 C871 1.379 . S
C866 N873 1.356 . S
C867 C866 1.363 . S
C867 C870 1.363 1_556 S
N868 C870 1.356 . S
N868 H880 0.984 . S
N868 H881 0.985 . S
N869 C871 1.356 . S
N869 H874 0.984 . S
N869 H875 0.985 . S
C870 C864 1.379 . S
C870 C867 1.363 1_554 S
C870 N868 1.356 . S
C871 C865 1.363 . S
C871 C866 1.379 . S
C871 N869 1.356 . S
N872 C864 1.356 . S
N872 H878 0.984 . S
N872 H879 0.984 . S
N873 C866 1.356 . S
N873 H876 0.984 . S
N873 H877 0.985 . S
H874 N869 0.984 . S
H875 N869 0.985 . S
H876 N873 0.984 . S
H877 N873 0.985 . S
H878 N872 0.984 . S
H879 N872 0.984 . S
H880 N868 0.984 . S
H881 N868 0.985 . S
C882 C883 1.363 1_556 S
C882 C888 1.379 . S
C882 N890 1.356 . S
C883 C882 1.363 1_554 S
C883 C889 1.363 . S
C884 C885 1.363 . S
C884 C889 1.379 . S
C884 N891 1.356 . S
C885 C884 1.363 . S
C885 C888 1.363 1_554 S
N886 C888 1.356 . S
N886 H898 0.984 . S
N886 H899 0.985 . S
N887 C889 1.356 . S
N887 H892 0.984 . S
N887 H893 0.985 . S
C888 C882 1.379 . S
C888 C885 1.363 1_556 S
C888 N886 1.356 . S
C889 C883 1.363 . S
C889 C884 1.379 . S
C889 N887 1.356 . S
N890 C882 1.356 . S
N890 H896 0.984 . S
N890 H897 0.984 . S
N891 C884 1.356 . S
N891 H894 0.984 . S
N891 H895 0.985 . S
H892 N887 0.984 . S
H893 N887 0.985 . S
H894 N891 0.984 . S
H895 N891 0.985 . S
H896 N890 0.984 . S
H897 N890 0.984 . S
H898 N886 0.984 . S
H899 N886 0.985 . S
C900 C901 1.363 . S
C900 C906 1.379 . S
C900 N908 1.356 . S
C901 C900 1.363 . S
C901 C907 1.363 1_554 S
C902 C903 1.363 1_556 S
C902 C907 1.379 . S
C902 N909 1.356 . S
C903 C902 1.363 1_554 S
C903 C906 1.363 . S
N904 C906 1.356 . S
N904 H916 0.984 . S
N904 H917 0.985 . S
N905 C907 1.356 . S
N905 H910 0.984 . S
N905 H911 0.985 . S
C906 C900 1.379 . S
C906 C903 1.363 . S
C906 N904 1.356 . S
C907 C901 1.363 1_556 S
C907 C902 1.379 . S
C907 N905 1.356 . S
N908 C900 1.356 . S
N908 H914 0.984 . S
N908 H915 0.984 . S
N909 C902 1.356 . S
N909 H912 0.984 . S
N909 H913 0.985 . S
H910 N905 0.984 . S
H911 N905 0.985 . S
H912 N909 0.984 . S
H913 N909 0.985 . S
H914 N908 0.984 . S
H915 N908 0.984 . S
H916 N904 0.984 . S
H917 N904 0.985 . S
C918 C919 1.363 . S
C918 C924 1.379 . S
C918 N926 1.356 . S
C919 C918 1.363 . S
C919 C925 1.363 1_554 S
C920 C921 1.363 1_556 S
C920 C925 1.379 . S
C920 N927 1.356 . S
C921 C920 1.363 1_554 S
C921 C924 1.363 . S
N922 C924 1.356 . S
N922 H934 0.984 . S
N922 H935 0.985 . S
N923 C925 1.356 . S
N923 H928 0.984 . S
N923 H929 0.985 . S
C924 C918 1.379 . S
C924 C921 1.363 . S
C924 N922 1.356 . S
C925 C919 1.363 1_556 S
C925 C920 1.379 . S
C925 N923 1.356 . S
N926 C918 1.356 . S
N926 H932 0.984 . S
N926 H933 0.984 . S
N927 C920 1.356 . S
N927 H930 0.984 . S
N927 H931 0.985 . S
H928 N923 0.984 . S
H929 N923 0.985 . S
H930 N927 0.984 . S
H931 N927 0.985 . S
H932 N926 0.984 . S
H933 N926 0.984 . S
H934 N922 0.984 . S
H935 N922 0.985 . S
C936 C937 1.363 . S
C936 C942 1.379 . S
C936 N944 1.356 . S
C937 C936 1.363 . S
C937 C943 1.363 . S
C938 C939 1.363 . S
C938 C943 1.379 . S
C938 N945 1.356 . S
C939 C938 1.363 . S
C939 C942 1.363 . S
N940 C942 1.356 . S
N940 H952 0.984 . S
N940 H953 0.985 . S
N941 C943 1.356 . S
N941 H946 0.984 . S
N941 H947 0.985 . S
C942 C936 1.379 . S
C942 C939 1.363 . S
C942 N940 1.356 . S
C943 C937 1.363 . S
C943 C938 1.379 . S
C943 N941 1.356 . S
N944 C936 1.356 . S
N944 H950 0.984 . S
N944 H951 0.984 . S
N945 C938 1.356 . S
N945 H948 0.984 . S
N945 H949 0.985 . S
H946 N941 0.984 . S
H947 N941 0.985 . S
H948 N945 0.984 . S
H949 N945 0.985 . S
H950 N944 0.984 . S
H951 N944 0.984 . S
H952 N940 0.984 . S
H953 N940 0.985 . S
C954 C955 1.363 . S
C954 C960 1.379 . S
C954 N962 1.356 . S
C955 C954 1.363 . S
C955 C961 1.363 . S
C956 C957 1.363 . S
C956 C961 1.379 . S
C956 N963 1.356 . S
C957 C956 1.363 . S
C957 C960 1.363 . S
N958 C960 1.356 . S
N958 H970 0.984 . S
N958 H971 0.985 . S
N959 C961 1.356 . S
N959 H964 0.984 . S
N959 H965 0.985 . S
C960 C954 1.379 . S
C960 C957 1.363 . S
C960 N958 1.356 . S
C961 C955 1.363 . S
C961 C956 1.379 . S
C961 N959 1.356 . S
N962 C954 1.356 . S
N962 H968 0.984 . S
N962 H969 0.984 . S
N963 C956 1.356 . S
N963 H966 0.984 . S
N963 H967 0.985 . S
H964 N959 0.984 . S
H965 N959 0.985 . S
H966 N963 0.984 . S
H967 N963 0.985 . S
H968 N962 0.984 . S
H969 N962 0.984 . S
H970 N958 0.984 . S
H971 N958 0.985 . S
C972 C973 1.363 . S
C972 C978 1.379 . S
C972 N980 1.356 . S
C973 C972 1.363 . S
C973 C979 1.363 . S
C974 C975 1.363 . S
C974 C979 1.379 . S
C974 N981 1.356 . S
C975 C974 1.363 . S
C975 C978 1.363 . S
N976 C978 1.356 . S
N976 H988 0.984 . S
N976 H989 0.985 . S
N977 C979 1.356 . S
N977 H982 0.984 . S
N977 H983 0.985 . S
C978 C972 1.379 . S
C978 C975 1.363 . S
C978 N976 1.356 . S
C979 C973 1.363 . S
C979 C974 1.379 . S
C979 N977 1.356 . S
N980 C972 1.356 . S
N980 H986 0.984 . S
N980 H987 0.984 . S
N981 C974 1.356 . S
N981 H984 0.984 . S
N981 H985 0.985 . S
H982 N977 0.984 . S
H983 N977 0.985 . S
H984 N981 0.984 . S
H985 N981 0.985 . S
H986 N980 0.984 . S
H987 N980 0.984 . S
H988 N976 0.984 . S
H989 N976 0.985 . S
C990 C991 1.363 . S
C990 C996 1.379 . S
C990 N998 1.356 . S
C991 C990 1.363 . S
C991 C997 1.363 . S
C992 C993 1.363 . S
C992 C997 1.379 . S
C992 N999 1.356 . S
C993 C992 1.363 . S
C993 C996 1.363 . S
N994 C996 1.356 . S
N994 H1006 0.984 . S
N994 H1007 0.985 . S
N995 C997 1.356 . S
N995 H1000 0.984 . S
N995 H1001 0.985 . S
C996 C990 1.379 . S
C996 C993 1.363 . S
C996 N994 1.356 . S
C997 C991 1.363 . S
C997 C992 1.379 . S
C997 N995 1.356 . S
N998 C990 1.356 . S
N998 H1004 0.984 . S
N998 H1005 0.984 . S
N999 C992 1.356 . S
N999 H1002 0.984 . S
N999 H1003 0.985 . S
H1000 N995 0.984 . S
H1001 N995 0.985 . S
H1002 N999 0.984 . S
H1003 N999 0.985 . S
H1004 N998 0.984 . S
H1005 N998 0.984 . S
H1006 N994 0.984 . S
H1007 N994 0.985 . S
C1008 C1009 1.363 . S
C1008 C1014 1.379 . S
C1008 N1016 1.356 . S
C1009 C1008 1.363 . S
C1009 C1015 1.363 . S
C1010 C1011 1.363 . S
C1010 C1015 1.379 . S
C1010 N1017 1.356 . S
C1011 C1010 1.363 . S
C1011 C1014 1.363 . S
N1012 C1014 1.356 . S
N1012 H1024 0.984 . S
N1012 H1025 0.985 . S
N1013 C1015 1.356 . S
N1013 H1018 0.984 . S
N1013 H1019 0.985 . S
C1014 C1008 1.379 . S
C1014 C1011 1.363 . S
C1014 N1012 1.356 . S
C1015 C1009 1.363 . S
C1015 C1010 1.379 . S
C1015 N1013 1.356 . S
N1016 C1008 1.356 . S
N1016 H1022 0.984 . S
N1016 H1023 0.984 . S
N1017 C1010 1.356 . S
N1017 H1020 0.984 . S
N1017 H1021 0.985 . S
H1018 N1013 0.984 . S
H1019 N1013 0.985 . S
H1020 N1017 0.984 . S
H1021 N1017 0.985 . S
H1022 N1016 0.984 . S
H1023 N1016 0.984 . S
H1024 N1012 0.984 . S
H1025 N1012 0.985 . S
C1026 C1027 1.363 . S
C1026 C1032 1.379 . S
C1026 N1034 1.356 . S
C1027 C1026 1.363 . S
C1027 C1033 1.363 . S
C1028 C1029 1.363 . S
C1028 C1033 1.379 . S
C1028 N1035 1.356 . S
C1029 C1028 1.363 . S
C1029 C1032 1.363 . S
N1030 C1032 1.356 . S
N1030 H1042 0.984 . S
N1030 H1043 0.985 . S
N1031 C1033 1.356 . S
N1031 H1036 0.984 . S
N1031 H1037 0.985 . S
C1032 C1026 1.379 . S
C1032 C1029 1.363 . S
C1032 N1030 1.356 . S
C1033 C1027 1.363 . S
C1033 C1028 1.379 . S
C1033 N1031 1.356 . S
N1034 C1026 1.356 . S
N1034 H1040 0.984 . S
N1034 H1041 0.984 . S
N1035 C1028 1.356 . S
N1035 H1038 0.984 . S
N1035 H1039 0.985 . S
H1036 N1031 0.984 . S
H1037 N1031 0.985 . S
H1038 N1035 0.984 . S
H1039 N1035 0.985 . S
H1040 N1034 0.984 . S
H1041 N1034 0.984 . S
H1042 N1030 0.984 . S
H1043 N1030 0.985 . S
C1044 C1045 1.363 . S
C1044 C1050 1.379 . S
C1044 N1052 1.356 . S
C1045 C1044 1.363 . S
C1045 C1051 1.363 . S
C1046 C1047 1.363 . S
C1046 C1051 1.379 . S
C1046 N1053 1.356 . S
C1047 C1046 1.363 . S
C1047 C1050 1.363 . S
N1048 C1050 1.356 . S
N1048 H1060 0.984 . S
N1048 H1061 0.985 . S
N1049 C1051 1.356 . S
N1049 H1054 0.984 . S
N1049 H1055 0.985 . S
C1050 C1044 1.379 . S
C1050 C1047 1.363 . S
C1050 N1048 1.356 . S
C1051 C1045 1.363 . S
C1051 C1046 1.379 . S
C1051 N1049 1.356 . S
N1052 C1044 1.356 . S
N1052 H1058 0.984 . S
N1052 H1059 0.984 . S
N1053 C1046 1.356 . S
N1053 H1056 0.984 . S
N1053 H1057 0.985 . S
H1054 N1049 0.984 . S
H1055 N1049 0.985 . S
H1056 N1053 0.984 . S
H1057 N1053 0.985 . S
H1058 N1052 0.984 . S
H1059 N1052 0.984 . S
H1060 N1048 0.984 . S
H1061 N1048 0.985 . S
C1062 C1063 1.363 . S
C1062 C1068 1.379 . S
C1062 N1070 1.356 . S
C1063 C1062 1.363 . S
C1063 C1069 1.363 . S
C1064 C1065 1.363 . S
C1064 C1069 1.379 . S
C1064 N1071 1.356 . S
C1065 C1064 1.363 . S
C1065 C1068 1.363 . S
N1066 C1068 1.356 . S
N1066 H1078 0.984 . S
N1066 H1079 0.985 . S
N1067 C1069 1.356 . S
N1067 H1072 0.984 . S
N1067 H1073 0.985 . S
C1068 C1062 1.379 . S
C1068 C1065 1.363 . S
C1068 N1066 1.356 . S
C1069 C1063 1.363 . S
C1069 C1064 1.379 . S
C1069 N1067 1.356 . S
N1070 C1062 1.356 . S
N1070 H1076 0.984 . S
N1070 H1077 0.984 . S
N1071 C1064 1.356 . S
N1071 H1074 0.984 . S
N1071 H1075 0.985 . S
H1072 N1067 0.984 . S
H1073 N1067 0.985 . S
H1074 N1071 0.984 . S
H1075 N1071 0.985 . S
H1076 N1070 0.984 . S
H1077 N1070 0.984 . S
H1078 N1066 0.984 . S
H1079 N1066 0.985 . S
C1080 C1081 1.363 . S
C1080 C1086 1.379 . S
C1080 N1088 1.356 . S
C1081 C1080 1.363 . S
C1081 C1087 1.363 . S
C1082 C1083 1.363 . S
C1082 C1087 1.379 . S
C1082 N1089 1.356 . S
C1083 C1082 1.363 . S
C1083 C1086 1.363 . S
N1084 C1086 1.356 . S
N1084 H1096 0.984 . S
N1084 H1097 0.985 . S
N1085 C1087 1.356 . S
N1085 H1090 0.984 . S
N1085 H1091 0.985 . S
C1086 C1080 1.379 . S
C1086 C1083 1.363 . S
C1086 N1084 1.356 . S
C1087 C1081 1.363 . S
C1087 C1082 1.379 . S
C1087 N1085 1.356 . S
N1088 C1080 1.356 . S
N1088 H1094 0.984 . S
N1088 H1095 0.984 . S
N1089 C1082 1.356 . S
N1089 H1092 0.984 . S
N1089 H1093 0.985 . S
H1090 N1085 0.984 . S
H1091 N1085 0.985 . S
H1092 N1089 0.984 . S
H1093 N1089 0.985 . S
H1094 N1088 0.984 . S
H1095 N1088 0.984 . S
H1096 N1084 0.984 . S
H1097 N1084 0.985 . S
C1098 C1099 1.363 . S
C1098 C1104 1.379 . S
C1098 N1106 1.356 . S
C1099 C1098 1.363 . S
C1099 C1105 1.363 . S
C1100 C1101 1.363 . S
C1100 C1105 1.379 . S
C1100 N1107 1.356 . S
C1101 C1100 1.363 . S
C1101 C1104 1.363 . S
N1102 C1104 1.356 . S
N1102 H1114 0.984 . S
N1102 H1115 0.985 . S
N1103 C1105 1.356 . S
N1103 H1108 0.984 . S
N1103 H1109 0.985 . S
C1104 C1098 1.379 . S
C1104 C1101 1.363 . S
C1104 N1102 1.356 . S
C1105 C1099 1.363 . S
C1105 C1100 1.379 . S
C1105 N1103 1.356 . S
N1106 C1098 1.356 . S
N1106 H1112 0.984 . S
N1106 H1113 0.984 . S
N1107 C1100 1.356 . S
N1107 H1110 0.984 . S
N1107 H1111 0.985 . S
H1108 N1103 0.984 . S
H1109 N1103 0.985 . S
H1110 N1107 0.984 . S
H1111 N1107 0.985 . S
H1112 N1106 0.984 . S
H1113 N1106 0.984 . S
H1114 N1102 0.984 . S
H1115 N1102 0.985 . S
C1116 C1117 1.363 . S
C1116 C1122 1.379 . S
C1116 N1124 1.356 . S
C1117 C1116 1.363 . S
C1117 C1123 1.363 . S
C1118 C1119 1.363 . S
C1118 C1123 1.379 . S
C1118 N1125 1.356 . S
C1119 C1118 1.363 . S
C1119 C1122 1.363 . S
N1120 C1122 1.356 . S
N1120 H1132 0.984 . S
N1120 H1133 0.985 . S
N1121 C1123 1.356 . S
N1121 H1126 0.984 . S
N1121 H1127 0.985 . S
C1122 C1116 1.379 . S
C1122 C1119 1.363 . S
C1122 N1120 1.356 . S
C1123 C1117 1.363 . S
C1123 C1118 1.379 . S
C1123 N1121 1.356 . S
N1124 C1116 1.356 . S
N1124 H1130 0.984 . S
N1124 H1131 0.984 . S
N1125 C1118 1.356 . S
N1125 H1128 0.984 . S
N1125 H1129 0.985 . S
H1126 N1121 0.984 . S
H1127 N1121 0.985 . S
H1128 N1125 0.984 . S
H1129 N1125 0.985 . S
H1130 N1124 0.984 . S
H1131 N1124 0.984 . S
H1132 N1120 0.984 . S
H1133 N1120 0.985 . S
C1134 C1135 1.363 . S
C1134 C1140 1.379 . S
C1134 N1142 1.356 . S
C1135 C1134 1.363 . S
C1135 C1141 1.363 . S
C1136 C1137 1.363 . S
C1136 C1141 1.379 . S
C1136 N1143 1.356 . S
C1137 C1136 1.363 . S
C1137 C1140 1.363 . S
N1138 C1140 1.356 . S
N1138 H1150 0.984 . S
N1138 H1151 0.985 . S
N1139 C1141 1.356 . S
N1139 H1144 0.984 . S
N1139 H1145 0.985 . S
C1140 C1134 1.379 . S
C1140 C1137 1.363 . S
C1140 N1138 1.356 . S
C1141 C1135 1.363 . S
C1141 C1136 1.379 . S
C1141 N1139 1.356 . S
N1142 C1134 1.356 . S
N1142 H1148 0.984 . S
N1142 H1149 0.984 . S
N1143 C1136 1.356 . S
N1143 H1146 0.984 . S
N1143 H1147 0.985 . S
H1144 N1139 0.984 . S
H1145 N1139 0.985 . S
H1146 N1143 0.984 . S
H1147 N1143 0.985 . S
H1148 N1142 0.984 . S
H1149 N1142 0.984 . S
H1150 N1138 0.984 . S
H1151 N1138 0.985 . S
C1152 C1153 1.363 . S
C1152 C1158 1.379 . S
C1152 N1160 1.356 . S
C1153 C1152 1.363 . S
C1153 C1159 1.363 . S
C1154 C1155 1.363 . S
C1154 C1159 1.379 . S
C1154 N1161 1.356 . S
C1155 C1154 1.363 . S
C1155 C1158 1.363 . S
N1156 C1158 1.356 . S
N1156 H1168 0.984 . S
N1156 H1169 0.985 . S
N1157 C1159 1.356 . S
N1157 H1162 0.984 . S
N1157 H1163 0.985 . S
C1158 C1152 1.379 . S
C1158 C1155 1.363 . S
C1158 N1156 1.356 . S
C1159 C1153 1.363 . S
C1159 C1154 1.379 . S
C1159 N1157 1.356 . S
N1160 C1152 1.356 . S
N1160 H1166 0.984 . S
N1160 H1167 0.984 . S
N1161 C1154 1.356 . S
N1161 H1164 0.984 . S
N1161 H1165 0.985 . S
H1162 N1157 0.984 . S
H1163 N1157 0.985 . S
H1164 N1161 0.984 . S
H1165 N1161 0.985 . S
H1166 N1160 0.984 . S
H1167 N1160 0.984 . S
H1168 N1156 0.984 . S
H1169 N1156 0.985 . S
C1170 C1171 1.363 . S
C1170 C1176 1.379 . S
C1170 N1178 1.356 . S
C1171 C1170 1.363 . S
C1171 C1177 1.363 . S
C1172 C1173 1.363 . S
C1172 C1177 1.379 . S
C1172 N1179 1.356 . S
C1173 C1172 1.363 . S
C1173 C1176 1.363 . S
N1174 C1176 1.356 . S
N1174 H1186 0.984 . S
N1174 H1187 0.985 . S
N1175 C1177 1.356 . S
N1175 H1180 0.984 . S
N1175 H1181 0.985 . S
C1176 C1170 1.379 . S
C1176 C1173 1.363 . S
C1176 N1174 1.356 . S
C1177 C1171 1.363 . S
C1177 C1172 1.379 . S
C1177 N1175 1.356 . S
N1178 C1170 1.356 . S
N1178 H1184 0.984 . S
N1178 H1185 0.984 . S
N1179 C1172 1.356 . S
N1179 H1182 0.984 . S
N1179 H1183 0.985 . S
H1180 N1175 0.984 . S
H1181 N1175 0.985 . S
H1182 N1179 0.984 . S
H1183 N1179 0.985 . S
H1184 N1178 0.984 . S
H1185 N1178 0.984 . S
H1186 N1174 0.984 . S
H1187 N1174 0.985 . S
C1188 C1189 1.363 . S
C1188 C1194 1.379 . S
C1188 N1196 1.356 . S
C1189 C1188 1.363 . S
C1189 C1195 1.363 . S
C1190 C1191 1.363 . S
C1190 C1195 1.379 . S
C1190 N1197 1.356 . S
C1191 C1190 1.363 . S
C1191 C1194 1.363 . S
N1192 C1194 1.356 . S
N1192 H1204 0.984 . S
N1192 H1205 0.985 . S
N1193 C1195 1.356 . S
N1193 H1198 0.984 . S
N1193 H1199 0.985 . S
C1194 C1188 1.379 . S
C1194 C1191 1.363 . S
C1194 N1192 1.356 . S
C1195 C1189 1.363 . S
C1195 C1190 1.379 . S
C1195 N1193 1.356 . S
N1196 C1188 1.356 . S
N1196 H1202 0.984 . S
N1196 H1203 0.984 . S
N1197 C1190 1.356 . S
N1197 H1200 0.984 . S
N1197 H1201 0.985 . S
H1198 N1193 0.984 . S
H1199 N1193 0.985 . S
H1200 N1197 0.984 . S
H1201 N1197 0.985 . S
H1202 N1196 0.984 . S
H1203 N1196 0.984 . S
H1204 N1192 0.984 . S
H1205 N1192 0.985 . S
C1206 C1207 1.363 . S
C1206 C1212 1.379 . S
C1206 N1214 1.356 . S
C1207 C1206 1.363 . S
C1207 C1213 1.363 . S
C1208 C1209 1.363 . S
C1208 C1213 1.379 . S
C1208 N1215 1.356 . S
C1209 C1208 1.363 . S
C1209 C1212 1.363 . S
N1210 C1212 1.356 . S
N1210 H1222 0.984 . S
N1210 H1223 0.985 . S
N1211 C1213 1.356 . S
N1211 H1216 0.984 . S
N1211 H1217 0.985 . S
C1212 C1206 1.379 . S
C1212 C1209 1.363 . S
C1212 N1210 1.356 . S
C1213 C1207 1.363 . S
C1213 C1208 1.379 . S
C1213 N1211 1.356 . S
N1214 C1206 1.356 . S
N1214 H1220 0.984 . S
N1214 H1221 0.984 . S
N1215 C1208 1.356 . S
N1215 H1218 0.984 . S
N1215 H1219 0.985 . S
H1216 N1211 0.984 . S
H1217 N1211 0.985 . S
H1218 N1215 0.984 . S
H1219 N1215 0.985 . S
H1220 N1214 0.984 . S
H1221 N1214 0.984 . S
H1222 N1210 0.984 . S
H1223 N1210 0.985 . S
C1224 C1225 1.363 . S
C1224 C1230 1.379 . S
C1224 N1232 1.356 . S
C1225 C1224 1.363 . S
C1225 C1231 1.363 . S
C1226 C1227 1.363 . S
C1226 C1231 1.379 . S
C1226 N1233 1.356 . S
C1227 C1226 1.363 . S
C1227 C1230 1.363 . S
N1228 C1230 1.356 . S
N1228 H1240 0.984 . S
N1228 H1241 0.985 . S
N1229 C1231 1.356 . S
N1229 H1234 0.984 . S
N1229 H1235 0.985 . S
C1230 C1224 1.379 . S
C1230 C1227 1.363 . S
C1230 N1228 1.356 . S
C1231 C1225 1.363 . S
C1231 C1226 1.379 . S
C1231 N1229 1.356 . S
N1232 C1224 1.356 . S
N1232 H1238 0.984 . S
N1232 H1239 0.984 . S
N1233 C1226 1.356 . S
N1233 H1236 0.984 . S
N1233 H1237 0.985 . S
H1234 N1229 0.984 . S
H1235 N1229 0.985 . S
H1236 N1233 0.984 . S
H1237 N1233 0.985 . S
H1238 N1232 0.984 . S
H1239 N1232 0.984 . S
H1240 N1228 0.984 . S
H1241 N1228 0.985 . S
C1242 C1243 1.363 . S
C1242 C1248 1.379 . S
C1242 N1250 1.356 . S
C1243 C1242 1.363 . S
C1243 C1249 1.363 . S
C1244 C1245 1.363 . S
C1244 C1249 1.379 . S
C1244 N1251 1.356 . S
C1245 C1244 1.363 . S
C1245 C1248 1.363 . S
N1246 C1248 1.356 . S
N1246 H1258 0.984 . S
N1246 H1259 0.985 . S
N1247 C1249 1.356 . S
N1247 H1252 0.984 . S
N1247 H1253 0.985 . S
C1248 C1242 1.379 . S
C1248 C1245 1.363 . S
C1248 N1246 1.356 . S
C1249 C1243 1.363 . S
C1249 C1244 1.379 . S
C1249 N1247 1.356 . S
N1250 C1242 1.356 . S
N1250 H1256 0.984 . S
N1250 H1257 0.984 . S
N1251 C1244 1.356 . S
N1251 H1254 0.984 . S
N1251 H1255 0.985 . S
H1252 N1247 0.984 . S
H1253 N1247 0.985 . S
H1254 N1251 0.984 . S
H1255 N1251 0.985 . S
H1256 N1250 0.984 . S
H1257 N1250 0.984 . S
H1258 N1246 0.984 . S
H1259 N1246 0.985 . S
C1260 C1261 1.363 . S
C1260 C1266 1.379 . S
C1260 N1268 1.356 . S
C1261 C1260 1.363 . S
C1261 C1267 1.363 . S
C1262 C1263 1.363 . S
C1262 C1267 1.379 . S
C1262 N1269 1.356 . S
C1263 C1262 1.363 . S
C1263 C1266 1.363 . S
N1264 C1266 1.356 . S
N1264 H1276 0.984 . S
N1264 H1277 0.985 . S
N1265 C1267 1.356 . S
N1265 H1270 0.984 . S
N1265 H1271 0.985 . S
C1266 C1260 1.379 . S
C1266 C1263 1.363 . S
C1266 N1264 1.356 . S
C1267 C1261 1.363 . S
C1267 C1262 1.379 . S
C1267 N1265 1.356 . S
N1268 C1260 1.356 . S
N1268 H1274 0.984 . S
N1268 H1275 0.984 . S
N1269 C1262 1.356 . S
N1269 H1272 0.984 . S
N1269 H1273 0.985 . S
H1270 N1265 0.984 . S
H1271 N1265 0.985 . S
H1272 N1269 0.984 . S
H1273 N1269 0.985 . S
H1274 N1268 0.984 . S
H1275 N1268 0.984 . S
H1276 N1264 0.984 . S
H1277 N1264 0.985 . S
C1278 C1279 1.363 . S
C1278 C1284 1.379 . S
C1278 N1286 1.356 . S
C1279 C1278 1.363 . S
C1279 C1285 1.363 . S
C1280 C1281 1.363 . S
C1280 C1285 1.379 . S
C1280 N1287 1.356 . S
C1281 C1280 1.363 . S
C1281 C1284 1.363 . S
N1282 C1284 1.356 . S
N1282 H1294 0.984 . S
N1282 H1295 0.985 . S
N1283 C1285 1.356 . S
N1283 H1288 0.984 . S
N1283 H1289 0.985 . S
C1284 C1278 1.379 . S
C1284 C1281 1.363 . S
C1284 N1282 1.356 . S
C1285 C1279 1.363 . S
C1285 C1280 1.379 . S
C1285 N1283 1.356 . S
N1286 C1278 1.356 . S
N1286 H1292 0.984 . S
N1286 H1293 0.984 . S
N1287 C1280 1.356 . S
N1287 H1290 0.984 . S
N1287 H1291 0.985 . S
H1288 N1283 0.984 . S
H1289 N1283 0.985 . S
H1290 N1287 0.984 . S
H1291 N1287 0.985 . S
H1292 N1286 0.984 . S
H1293 N1286 0.984 . S
H1294 N1282 0.984 . S
H1295 N1282 0.985 . S
C1296 C1297 1.363 . S
C1296 C1302 1.379 . S
C1296 N1304 1.356 . S
C1297 C1296 1.363 . S
C1297 C1303 1.363 . S
C1298 C1299 1.363 . S
C1298 C1303 1.379 . S
C1298 N1305 1.356 . S
C1299 C1298 1.363 . S
C1299 C1302 1.363 . S
N1300 C1302 1.356 . S
N1300 H1312 0.984 . S
N1300 H1313 0.985 . S
N1301 C1303 1.356 . S
N1301 H1306 0.984 . S
N1301 H1307 0.985 . S
C1302 C1296 1.379 . S
C1302 C1299 1.363 . S
C1302 N1300 1.356 . S
C1303 C1297 1.363 . S
C1303 C1298 1.379 . S
C1303 N1301 1.356 . S
N1304 C1296 1.356 . S
N1304 H1310 0.984 . S
N1304 H1311 0.984 . S
N1305 C1298 1.356 . S
N1305 H1308 0.984 . S
N1305 H1309 0.985 . S
H1306 N1301 0.984 . S
H1307 N1301 0.985 . S
H1308 N1305 0.984 . S
H1309 N1305 0.985 . S
H1310 N1304 0.984 . S
H1311 N1304 0.984 . S
H1312 N1300 0.984 . S
H1313 N1300 0.985 . S
C1314 C1315 1.363 . S
C1314 C1320 1.379 . S
C1314 N1322 1.356 . S
C1315 C1314 1.363 . S
C1315 C1321 1.363 . S
C1316 C1317 1.363 . S
C1316 C1321 1.379 . S
C1316 N1323 1.356 . S
C1317 C1316 1.363 . S
C1317 C1320 1.363 . S
N1318 C1320 1.356 . S
N1318 H1330 0.984 . S
N1318 H1331 0.985 . S
N1319 C1321 1.356 . S
N1319 H1324 0.984 . S
N1319 H1325 0.985 . S
C1320 C1314 1.379 . S
C1320 C1317 1.363 . S
C1320 N1318 1.356 . S
C1321 C1315 1.363 . S
C1321 C1316 1.379 . S
C1321 N1319 1.356 . S
N1322 C1314 1.356 . S
N1322 H1328 0.984 . S
N1322 H1329 0.984 . S
N1323 C1316 1.356 . S
N1323 H1326 0.984 . S
N1323 H1327 0.985 . S
H1324 N1319 0.984 . S
H1325 N1319 0.985 . S
H1326 N1323 0.984 . S
H1327 N1323 0.985 . S
H1328 N1322 0.984 . S
H1329 N1322 0.984 . S
H1330 N1318 0.984 . S
H1331 N1318 0.985 . S
C1332 C1333 1.363 . S
C1332 C1338 1.379 . S
C1332 N1340 1.356 . S
C1333 C1332 1.363 . S
C1333 C1339 1.363 . S
C1334 C1335 1.363 . S
C1334 C1339 1.379 . S
C1334 N1341 1.356 . S
C1335 C1334 1.363 . S
C1335 C1338 1.363 . S
N1336 C1338 1.356 . S
N1336 H1348 0.984 . S
N1336 H1349 0.985 . S
N1337 C1339 1.356 . S
N1337 H1342 0.984 . S
N1337 H1343 0.985 . S
C1338 C1332 1.379 . S
C1338 C1335 1.363 . S
C1338 N1336 1.356 . S
C1339 C1333 1.363 . S
C1339 C1334 1.379 . S
C1339 N1337 1.356 . S
N1340 C1332 1.356 . S
N1340 H1346 0.984 . S
N1340 H1347 0.984 . S
N1341 C1334 1.356 . S
N1341 H1344 0.984 . S
N1341 H1345 0.985 . S
H1342 N1337 0.984 . S
H1343 N1337 0.985 . S
H1344 N1341 0.984 . S
H1345 N1341 0.985 . S
H1346 N1340 0.984 . S
H1347 N1340 0.984 . S
H1348 N1336 0.984 . S
H1349 N1336 0.985 . S
C1350 C1351 1.363 . S
C1350 C1356 1.379 . S
C1350 N1358 1.356 . S
C1351 C1350 1.363 . S
C1351 C1357 1.363 . S
C1352 C1353 1.363 . S
C1352 C1357 1.379 . S
C1352 N1359 1.356 . S
C1353 C1352 1.363 . S
C1353 C1356 1.363 . S
N1354 C1356 1.356 . S
N1354 H1366 0.984 . S
N1354 H1367 0.985 . S
N1355 C1357 1.356 . S
N1355 H1360 0.984 . S
N1355 H1361 0.985 . S
C1356 C1350 1.379 . S
C1356 C1353 1.363 . S
C1356 N1354 1.356 . S
C1357 C1351 1.363 . S
C1357 C1352 1.379 . S
C1357 N1355 1.356 . S
N1358 C1350 1.356 . S
N1358 H1364 0.984 . S
N1358 H1365 0.984 . S
N1359 C1352 1.356 . S
N1359 H1362 0.984 . S
N1359 H1363 0.985 . S
H1360 N1355 0.984 . S
H1361 N1355 0.985 . S
H1362 N1359 0.984 . S
H1363 N1359 0.985 . S
H1364 N1358 0.984 . S
H1365 N1358 0.984 . S
H1366 N1354 0.984 . S
H1367 N1354 0.985 . S
C1368 C1369 1.363 . S
C1368 C1374 1.379 . S
C1368 N1376 1.356 . S
C1369 C1368 1.363 . S
C1369 C1375 1.363 . S
C1370 C1371 1.363 . S
C1370 C1375 1.379 . S
C1370 N1377 1.356 . S
C1371 C1370 1.363 . S
C1371 C1374 1.363 . S
N1372 C1374 1.356 . S
N1372 H1384 0.984 . S
N1372 H1385 0.985 . S
N1373 C1375 1.356 . S
N1373 H1378 0.984 . S
N1373 H1379 0.985 . S
C1374 C1368 1.379 . S
C1374 C1371 1.363 . S
C1374 N1372 1.356 . S
C1375 C1369 1.363 . S
C1375 C1370 1.379 . S
C1375 N1373 1.356 . S
N1376 C1368 1.356 . S
N1376 H1382 0.984 . S
N1376 H1383 0.984 . S
N1377 C1370 1.356 . S
N1377 H1380 0.984 . S
N1377 H1381 0.985 . S
H1378 N1373 0.984 . S
H1379 N1373 0.985 . S
H1380 N1377 0.984 . S
H1381 N1377 0.985 . S
H1382 N1376 0.984 . S
H1383 N1376 0.984 . S
H1384 N1372 0.984 . S
H1385 N1372 0.985 . S
C1386 C1387 1.363 1_565 S
C1386 C1392 1.379 . S
C1386 N1394 1.356 . S
C1387 C1386 1.363 1_545 S
C1387 C1393 1.363 . S
C1388 C1389 1.363 1_545 S
C1388 C1393 1.379 . S
C1388 N1395 1.356 . S
C1389 C1388 1.363 1_565 S
C1389 C1392 1.363 . S
N1390 C1392 1.356 . S
N1390 H1402 0.984 . S
N1390 H1403 0.985 . S
N1391 C1393 1.356 . S
N1391 H1396 0.984 . S
N1391 H1397 0.985 . S
C1392 C1386 1.379 . S
C1392 C1389 1.363 . S
C1392 N1390 1.356 . S
C1393 C1387 1.363 . S
C1393 C1388 1.379 . S
C1393 N1391 1.356 . S
N1394 C1386 1.356 . S
N1394 H1400 0.984 . S
N1394 H1401 0.984 . S
N1395 C1388 1.356 . S
N1395 H1398 0.984 . S
N1395 H1399 0.985 . S
H1396 N1391 0.984 . S
H1397 N1391 0.985 . S
H1398 N1395 0.984 . S
H1399 N1395 0.985 . S
H1400 N1394 0.984 . S
H1401 N1394 0.984 . S
H1402 N1390 0.984 . S
H1403 N1390 0.985 . S
C1404 C1405 1.363 . S
C1404 C1410 1.379 1_455 S
C1404 N1412 1.356 . S
C1405 C1404 1.363 . S
C1405 C1411 1.363 . S
C1406 C1407 1.363 . S
C1406 C1411 1.379 1_655 S
C1406 N1413 1.356 . S
C1407 C1406 1.363 . S
C1407 C1410 1.363 . S
N1408 C1410 1.356 . S
N1408 H1420 0.984 . S
N1408 H1421 0.985 . S
N1409 C1411 1.356 . S
N1409 H1414 0.984 . S
N1409 H1415 0.985 . S
C1410 C1404 1.379 1_655 S
C1410 C1407 1.363 . S
C1410 N1408 1.356 . S
C1411 C1405 1.363 . S
C1411 C1406 1.379 1_455 S
C1411 N1409 1.356 . S
N1412 C1404 1.356 . S
N1412 H1418 0.984 . S
N1412 H1419 0.984 . S
N1413 C1406 1.356 . S
N1413 H1416 0.984 . S
N1413 H1417 0.985 . S
H1414 N1409 0.984 . S
H1415 N1409 0.985 . S
H1416 N1413 0.984 . S
H1417 N1413 0.985 . S
H1418 N1412 0.984 . S
H1419 N1412 0.984 . S
H1420 N1408 0.984 . S
H1421 N1408 0.985 . S
C1422 C1423 1.363 . S
C1422 C1428 1.379 . S
C1422 N1430 1.356 . S
C1423 C1422 1.363 . S
C1423 C1429 1.363 . S
C1424 C1425 1.363 . S
C1424 C1429 1.379 . S
C1424 N1431 1.356 . S
C1425 C1424 1.363 . S
C1425 C1428 1.363 . S
N1426 C1428 1.356 . S
N1426 H1438 0.984 . S
N1426 H1439 0.985 . S
N1427 C1429 1.356 . S
N1427 H1432 0.984 . S
N1427 H1433 0.985 . S
C1428 C1422 1.379 . S
C1428 C1425 1.363 . S
C1428 N1426 1.356 . S
C1429 C1423 1.363 . S
C1429 C1424 1.379 . S
C1429 N1427 1.356 . S
N1430 C1422 1.356 . S
N1430 H1436 0.984 . S
N1430 H1437 0.984 . S
N1431 C1424 1.356 . S
N1431 H1434 0.984 . S
N1431 H1435 0.985 . S
H1432 N1427 0.984 . S
H1433 N1427 0.985 . S
H1434 N1431 0.984 . S
H1435 N1431 0.985 . S
H1436 N1430 0.984 . S
H1437 N1430 0.984 . S
H1438 N1426 0.984 . S
H1439 N1426 0.985 . S
C1440 C1441 1.363 1_545 S
C1440 C1446 1.379 . S
C1440 N1448 1.356 . S
C1441 C1440 1.363 1_565 S
C1441 C1447 1.363 . S
C1442 C1443 1.363 1_565 S
C1442 C1447 1.379 . S
C1442 N1449 1.356 . S
C1443 C1442 1.363 1_545 S
C1443 C1446 1.363 . S
N1444 C1446 1.356 . S
N1444 H1456 0.984 . S
N1444 H1457 0.985 . S
N1445 C1447 1.356 . S
N1445 H1450 0.984 . S
N1445 H1451 0.985 . S
C1446 C1440 1.379 . S
C1446 C1443 1.363 . S
C1446 N1444 1.356 . S
C1447 C1441 1.363 . S
C1447 C1442 1.379 . S
C1447 N1445 1.356 . S
N1448 C1440 1.356 . S
N1448 H1454 0.984 . S
N1448 H1455 0.984 . S
N1449 C1442 1.356 . S
N1449 H1452 0.984 . S
N1449 H1453 0.985 . S
H1450 N1445 0.984 . S
H1451 N1445 0.985 . S
H1452 N1449 0.984 . S
H1453 N1449 0.985 . S
H1454 N1448 0.984 . S
H1455 N1448 0.984 . S
H1456 N1444 0.984 . S
H1457 N1444 0.985 . S
C1458 C1459 1.363 1_655 S
C1458 C1464 1.379 . S
C1458 N1466 1.356 . S
C1459 C1458 1.363 1_455 S
C1459 C1465 1.363 . S
C1460 C1461 1.363 1_455 S
C1460 C1465 1.379 . S
C1460 N1467 1.356 . S
C1461 C1460 1.363 1_655 S
C1461 C1464 1.363 . S
N1462 C1464 1.356 . S
N1462 H1474 0.984 . S
N1462 H1475 0.985 . S
N1463 C1465 1.356 . S
N1463 H1468 0.984 . S
N1463 H1469 0.985 . S
C1464 C1458 1.379 . S
C1464 C1461 1.363 . S
C1464 N1462 1.356 . S
C1465 C1459 1.363 . S
C1465 C1460 1.379 . S
C1465 N1463 1.356 . S
N1466 C1458 1.356 . S
N1466 H1472 0.984 . S
N1466 H1473 0.984 . S
N1467 C1460 1.356 . S
N1467 H1470 0.984 . S
N1467 H1471 0.985 . S
H1468 N1463 0.984 . S
H1469 N1463 0.985 . S
H1470 N1467 0.984 . S
H1471 N1467 0.985 . S
H1472 N1466 0.984 . S
H1473 N1466 0.984 . S
H1474 N1462 0.984 . S
H1475 N1462 0.985 . S
C1476 C1477 1.363 . S
C1476 C1482 1.379 . S
C1476 N1484 1.356 . S
C1477 C1476 1.363 . S
C1477 C1483 1.363 . S
C1478 C1479 1.363 . S
C1478 C1483 1.379 . S
C1478 N1485 1.356 . S
C1479 C1478 1.363 . S
C1479 C1482 1.363 . S
N1480 C1482 1.356 . S
N1480 H1492 0.984 . S
N1480 H1493 0.985 . S
N1481 C1483 1.356 . S
N1481 H1486 0.984 . S
N1481 H1487 0.985 . S
C1482 C1476 1.379 . S
C1482 C1479 1.363 . S
C1482 N1480 1.356 . S
C1483 C1477 1.363 . S
C1483 C1478 1.379 . S
C1483 N1481 1.356 . S
N1484 C1476 1.356 . S
N1484 H1490 0.984 . S
N1484 H1491 0.984 . S
N1485 C1478 1.356 . S
N1485 H1488 0.984 . S
N1485 H1489 0.985 . S
H1486 N1481 0.984 . S
H1487 N1481 0.985 . S
H1488 N1485 0.984 . S
H1489 N1485 0.985 . S
H1490 N1484 0.984 . S
H1491 N1484 0.984 . S
H1492 N1480 0.984 . S
H1493 N1480 0.985 . S
C1494 C1495 1.363 . S
C1494 C1500 1.379 . S
C1494 N1502 1.356 . S
C1495 C1494 1.363 . S
C1495 C1501 1.363 . S
C1496 C1497 1.363 . S
C1496 C1501 1.379 . S
C1496 N1503 1.356 . S
C1497 C1496 1.363 . S
C1497 C1500 1.363 . S
N1498 C1500 1.356 . S
N1498 H1510 0.984 . S
N1498 H1511 0.985 . S
N1499 C1501 1.356 . S
N1499 H1504 0.984 . S
N1499 H1505 0.985 . S
C1500 C1494 1.379 . S
C1500 C1497 1.363 . S
C1500 N1498 1.356 . S
C1501 C1495 1.363 . S
C1501 C1496 1.379 . S
C1501 N1499 1.356 . S
N1502 C1494 1.356 . S
N1502 H1508 0.984 . S
N1502 H1509 0.984 . S
N1503 C1496 1.356 . S
N1503 H1506 0.984 . S
N1503 H1507 0.985 . S
H1504 N1499 0.984 . S
H1505 N1499 0.985 . S
H1506 N1503 0.984 . S
H1507 N1503 0.985 . S
H1508 N1502 0.984 . S
H1509 N1502 0.984 . S
H1510 N1498 0.984 . S
H1511 N1498 0.985 . S
C1512 C1513 1.363 . S
C1512 C1518 1.379 . S
C1512 N1520 1.356 . S
C1513 C1512 1.363 . S
C1513 C1519 1.363 . S
C1514 C1515 1.363 . S
C1514 C1519 1.379 . S
C1514 N1521 1.356 . S
C1515 C1514 1.363 . S
C1515 C1518 1.363 . S
N1516 C1518 1.356 . S
N1516 H1528 0.984 . S
N1516 H1529 0.985 . S
N1517 C1519 1.356 . S
N1517 H1522 0.984 . S
N1517 H1523 0.985 . S
C1518 C1512 1.379 . S
C1518 C1515 1.363 . S
C1518 N1516 1.356 . S
C1519 C1513 1.363 . S
C1519 C1514 1.379 . S
C1519 N1517 1.356 . S
N1520 C1512 1.356 . S
N1520 H1526 0.984 . S
N1520 H1527 0.984 . S
N1521 C1514 1.356 . S
N1521 H1524 0.984 . S
N1521 H1525 0.985 . S
H1522 N1517 0.984 . S
H1523 N1517 0.985 . S
H1524 N1521 0.984 . S
H1525 N1521 0.985 . S
H1526 N1520 0.984 . S
H1527 N1520 0.984 . S
H1528 N1516 0.984 . S
H1529 N1516 0.985 . S
C1530 C1531 1.363 . S
C1530 C1536 1.379 . S
C1530 N1538 1.356 . S
C1531 C1530 1.363 . S
C1531 C1537 1.363 . S
C1532 C1533 1.363 . S
C1532 C1537 1.379 . S
C1532 N1539 1.356 . S
C1533 C1532 1.363 . S
C1533 C1536 1.363 . S
N1534 C1536 1.356 . S
N1534 H1546 0.984 . S
N1534 H1547 0.985 . S
N1535 C1537 1.356 . S
N1535 H1540 0.984 . S
N1535 H1541 0.985 . S
C1536 C1530 1.379 . S
C1536 C1533 1.363 . S
C1536 N1534 1.356 . S
C1537 C1531 1.363 . S
C1537 C1532 1.379 . S
C1537 N1535 1.356 . S
N1538 C1530 1.356 . S
N1538 H1544 0.984 . S
N1538 H1545 0.984 . S
N1539 C1532 1.356 . S
N1539 H1542 0.984 . S
N1539 H1543 0.985 . S
H1540 N1535 0.984 . S
H1541 N1535 0.985 . S
H1542 N1539 0.984 . S
H1543 N1539 0.985 . S
H1544 N1538 0.984 . S
H1545 N1538 0.984 . S
H1546 N1534 0.984 . S
H1547 N1534 0.985 . S
C1548 C1549 1.363 . S
C1548 C1554 1.379 . S
C1548 N1556 1.356 . S
C1549 C1548 1.363 . S
C1549 C1555 1.363 . S
C1550 C1551 1.363 . S
C1550 C1555 1.379 . S
C1550 N1557 1.356 . S
C1551 C1550 1.363 . S
C1551 C1554 1.363 . S
N1552 C1554 1.356 . S
N1552 H1564 0.984 . S
N1552 H1565 0.985 . S
N1553 C1555 1.356 . S
N1553 H1558 0.984 . S
N1553 H1559 0.985 . S
C1554 C1548 1.379 . S
C1554 C1551 1.363 . S
C1554 N1552 1.356 . S
C1555 C1549 1.363 . S
C1555 C1550 1.379 . S
C1555 N1553 1.356 . S
N1556 C1548 1.356 . S
N1556 H1562 0.984 . S
N1556 H1563 0.984 . S
N1557 C1550 1.356 . S
N1557 H1560 0.984 . S
N1557 H1561 0.985 . S
H1558 N1553 0.984 . S
H1559 N1553 0.985 . S
H1560 N1557 0.984 . S
H1561 N1557 0.985 . S
H1562 N1556 0.984 . S
H1563 N1556 0.984 . S
H1564 N1552 0.984 . S
H1565 N1552 0.985 . S
C1566 C1567 1.363 . S
C1566 C1572 1.379 . S
C1566 N1574 1.356 . S
C1567 C1566 1.363 . S
C1567 C1573 1.363 . S
C1568 C1569 1.363 . S
C1568 C1573 1.379 . S
C1568 N1575 1.356 . S
C1569 C1568 1.363 . S
C1569 C1572 1.363 . S
N1570 C1572 1.356 . S
N1570 H1582 0.984 . S
N1570 H1583 0.985 . S
N1571 C1573 1.356 . S
N1571 H1576 0.984 . S
N1571 H1577 0.985 . S
C1572 C1566 1.379 . S
C1572 C1569 1.363 . S
C1572 N1570 1.356 . S
C1573 C1567 1.363 . S
C1573 C1568 1.379 . S
C1573 N1571 1.356 . S
N1574 C1566 1.356 . S
N1574 H1580 0.984 . S
N1574 H1581 0.984 . S
N1575 C1568 1.356 . S
N1575 H1578 0.984 . S
N1575 H1579 0.985 . S
H1576 N1571 0.984 . S
H1577 N1571 0.985 . S
H1578 N1575 0.984 . S
H1579 N1575 0.985 . S
H1580 N1574 0.984 . S
H1581 N1574 0.984 . S
H1582 N1570 0.984 . S
H1583 N1570 0.985 . S
C1584 C1585 1.363 . S
C1584 C1590 1.379 . S
C1584 N1592 1.356 . S
C1585 C1584 1.363 . S
C1585 C1591 1.363 . S
C1586 C1587 1.363 . S
C1586 C1591 1.379 . S
C1586 N1593 1.356 . S
C1587 C1586 1.363 . S
C1587 C1590 1.363 . S
N1588 C1590 1.356 . S
N1588 H1600 0.984 . S
N1588 H1601 0.985 . S
N1589 C1591 1.356 . S
N1589 H1594 0.984 . S
N1589 H1595 0.985 . S
C1590 C1584 1.379 . S
C1590 C1587 1.363 . S
C1590 N1588 1.356 . S
C1591 C1585 1.363 . S
C1591 C1586 1.379 . S
C1591 N1589 1.356 . S
N1592 C1584 1.356 . S
N1592 H1598 0.984 . S
N1592 H1599 0.984 . S
N1593 C1586 1.356 . S
N1593 H1596 0.984 . S
N1593 H1597 0.985 . S
H1594 N1589 0.984 . S
H1595 N1589 0.985 . S
H1596 N1593 0.984 . S
H1597 N1593 0.985 . S
H1598 N1592 0.984 . S
H1599 N1592 0.984 . S
H1600 N1588 0.984 . S
H1601 N1588 0.985 . S
C1602 C1603 1.363 . S
C1602 C1608 1.379 . S
C1602 N1610 1.356 . S
C1603 C1602 1.363 . S
C1603 C1609 1.363 . S
C1604 C1605 1.363 . S
C1604 C1609 1.379 . S
C1604 N1611 1.356 . S
C1605 C1604 1.363 . S
C1605 C1608 1.363 . S
N1606 C1608 1.356 . S
N1606 H1618 0.984 . S
N1606 H1619 0.985 . S
N1607 C1609 1.356 . S
N1607 H1612 0.984 . S
N1607 H1613 0.985 . S
C1608 C1602 1.379 . S
C1608 C1605 1.363 . S
C1608 N1606 1.356 . S
C1609 C1603 1.363 . S
C1609 C1604 1.379 . S
C1609 N1607 1.356 . S
N1610 C1602 1.356 . S
N1610 H1616 0.984 . S
N1610 H1617 0.984 . S
N1611 C1604 1.356 . S
N1611 H1614 0.984 . S
N1611 H1615 0.985 . S
H1612 N1607 0.984 . S
H1613 N1607 0.985 . S
H1614 N1611 0.984 . S
H1615 N1611 0.985 . S
H1616 N1610 0.984 . S
H1617 N1610 0.984 . S
H1618 N1606 0.984 . S
H1619 N1606 0.985 . S
C1620 C1621 1.363 . S
C1620 C1626 1.379 . S
C1620 N1628 1.356 . S
C1621 C1620 1.363 . S
C1621 C1627 1.363 . S
C1622 C1623 1.363 . S
C1622 C1627 1.379 . S
C1622 N1629 1.356 . S
C1623 C1622 1.363 . S
C1623 C1626 1.363 . S
N1624 C1626 1.356 . S
N1624 H1636 0.984 . S
N1624 H1637 0.985 . S
N1625 C1627 1.356 . S
N1625 H1630 0.984 . S
N1625 H1631 0.985 . S
C1626 C1620 1.379 . S
C1626 C1623 1.363 . S
C1626 N1624 1.356 . S
C1627 C1621 1.363 . S
C1627 C1622 1.379 . S
C1627 N1625 1.356 . S
N1628 C1620 1.356 . S
N1628 H1634 0.984 . S
N1628 H1635 0.984 . S
N1629 C1622 1.356 . S
N1629 H1632 0.984 . S
N1629 H1633 0.985 . S
H1630 N1625 0.984 . S
H1631 N1625 0.985 . S
H1632 N1629 0.984 . S
H1633 N1629 0.985 . S
H1634 N1628 0.984 . S
H1635 N1628 0.984 . S
H1636 N1624 0.984 . S
H1637 N1624 0.985 . S
C1638 C1639 1.363 . S
C1638 C1644 1.379 . S
C1638 N1646 1.356 . S
C1639 C1638 1.363 . S
C1639 C1645 1.363 . S
C1640 C1641 1.363 . S
C1640 C1645 1.379 . S
C1640 N1647 1.356 . S
C1641 C1640 1.363 . S
C1641 C1644 1.363 . S
N1642 C1644 1.356 . S
N1642 H1654 0.984 . S
N1642 H1655 0.985 . S
N1643 C1645 1.356 . S
N1643 H1648 0.984 . S
N1643 H1649 0.985 . S
C1644 C1638 1.379 . S
C1644 C1641 1.363 . S
C1644 N1642 1.356 . S
C1645 C1639 1.363 . S
C1645 C1640 1.379 . S
C1645 N1643 1.356 . S
N1646 C1638 1.356 . S
N1646 H1652 0.984 . S
N1646 H1653 0.984 . S
N1647 C1640 1.356 . S
N1647 H1650 0.984 . S
N1647 H1651 0.985 . S
H1648 N1643 0.984 . S
H1649 N1643 0.985 . S
H1650 N1647 0.984 . S
H1651 N1647 0.985 . S
H1652 N1646 0.984 . S
H1653 N1646 0.984 . S
H1654 N1642 0.984 . S
H1655 N1642 0.985 . S
C1656 C1657 1.363 . S
C1656 C1662 1.379 . S
C1656 N1664 1.356 . S
C1657 C1656 1.363 . S
C1657 C1663 1.363 . S
C1658 C1659 1.363 . S
C1658 C1663 1.379 . S
C1658 N1665 1.356 . S
C1659 C1658 1.363 . S
C1659 C1662 1.363 . S
N1660 C1662 1.356 . S
N1660 H1672 0.984 . S
N1660 H1673 0.985 . S
N1661 C1663 1.356 . S
N1661 H1666 0.984 . S
N1661 H1667 0.985 . S
C1662 C1656 1.379 . S
C1662 C1659 1.363 . S
C1662 N1660 1.356 . S
C1663 C1657 1.363 . S
C1663 C1658 1.379 . S
C1663 N1661 1.356 . S
N1664 C1656 1.356 . S
N1664 H1670 0.984 . S
N1664 H1671 0.984 . S
N1665 C1658 1.356 . S
N1665 H1668 0.984 . S
N1665 H1669 0.985 . S
H1666 N1661 0.984 . S
H1667 N1661 0.985 . S
H1668 N1665 0.984 . S
H1669 N1665 0.985 . S
H1670 N1664 0.984 . S
H1671 N1664 0.984 . S
H1672 N1660 0.984 . S
H1673 N1660 0.985 . S
C1674 C1675 1.363 . S
C1674 C1680 1.379 . S
C1674 N1682 1.356 . S
C1675 C1674 1.363 . S
C1675 C1681 1.363 . S
C1676 C1677 1.363 . S
C1676 C1681 1.379 . S
C1676 N1683 1.356 . S
C1677 C1676 1.363 . S
C1677 C1680 1.363 . S
N1678 C1680 1.356 . S
N1678 H1690 0.984 . S
N1678 H1691 0.985 . S
N1679 C1681 1.356 . S
N1679 H1684 0.984 . S
N1679 H1685 0.985 . S
C1680 C1674 1.379 . S
C1680 C1677 1.363 . S
C1680 N1678 1.356 . S
C1681 C1675 1.363 . S
C1681 C1676 1.379 . S
C1681 N1679 1.356 . S
N1682 C1674 1.356 . S
N1682 H1688 0.984 . S
N1682 H1689 0.984 . S
N1683 C1676 1.356 . S
N1683 H1686 0.984 . S
N1683 H1687 0.985 . S
H1684 N1679 0.984 . S
H1685 N1679 0.985 . S
H1686 N1683 0.984 . S
H1687 N1683 0.985 . S
H1688 N1682 0.984 . S
H1689 N1682 0.984 . S
H1690 N1678 0.984 . S
H1691 N1678 0.985 . S
C1692 C1693 1.358 1_655 S
C1692 C1698 1.384 . S
C1692 N1700 1.354 1_655 S
C1693 C1692 1.358 1_455 S
C1693 C1699 1.363 . S
C1694 C1695 1.359 1_455 S
C1694 C1699 1.384 . S
C1694 N1701 1.354 1_455 S
C1695 C1694 1.359 1_655 S
C1695 C1698 1.363 . S
N1696 C1698 1.356 . S
N1696 H1708 0.984 . S
N1696 H1709 0.985 . S
N1697 C1699 1.356 . S
N1697 H1702 0.984 . S
N1697 H1703 0.985 . S
C1698 C1692 1.384 . S
C1698 C1695 1.363 . S
C1698 N1696 1.356 . S
C1699 C1693 1.363 . S
C1699 C1694 1.384 . S
C1699 N1697 1.356 . S
N1700 C1692 1.354 1_455 S
N1700 H1706 0.984 1_455 S
N1700 H1707 0.984 . S
N1701 C1694 1.354 1_655 S
N1701 H1704 0.984 . S
N1701 H1705 0.985 1_655 S
H1702 N1697 0.984 . S
H1703 N1697 0.985 . S
H1704 N1701 0.984 . S
H1705 N1701 0.985 1_455 S
H1706 N1700 0.984 1_655 S
H1707 N1700 0.984 . S
H1708 N1696 0.984 . S
H1709 N1696 0.985 . S
C1710 C1711 1.363 . S
C1710 C1716 1.379 . S
C1710 N1718 1.356 . S
C1711 C1710 1.363 . S
C1711 C1717 1.363 . S
C1712 C1713 1.363 . S
C1712 C1717 1.379 . S
C1712 N1719 1.356 . S
C1713 C1712 1.363 . S
C1713 C1716 1.363 . S
N1714 C1716 1.356 . S
N1714 H1726 0.984 . S
N1714 H1727 0.985 . S
N1715 C1717 1.356 . S
N1715 H1720 0.984 . S
N1715 H1721 0.985 . S
C1716 C1710 1.379 . S
C1716 C1713 1.363 . S
C1716 N1714 1.356 . S
C1717 C1711 1.363 . S
C1717 C1712 1.379 . S
C1717 N1715 1.356 . S
N1718 C1710 1.356 . S
N1718 H1724 0.984 . S
N1718 H1725 0.984 . S
N1719 C1712 1.356 . S
N1719 H1722 0.984 . S
N1719 H1723 0.985 . S
H1720 N1715 0.984 . S
H1721 N1715 0.985 . S
H1722 N1719 0.984 . S
H1723 N1719 0.985 . S
H1724 N1718 0.984 . S
H1725 N1718 0.984 . S
H1726 N1714 0.984 . S
H1727 N1714 0.985 . S
C1728 C1729 1.363 . S
C1728 C1734 1.401 . S
C1728 N1736 1.356 . S
C1729 C1728 1.363 . S
C1729 C1735 1.336 1_545 S
C1730 C1731 1.363 . S
C1730 C1735 1.401 . S
C1730 N1737 1.356 . S
C1731 C1730 1.363 . S
C1731 C1734 1.337 1_565 S
N1732 C1734 1.352 1_565 S
N1732 H1744 0.984 1_565 S
N1732 H1745 0.985 . S
N1733 C1735 1.352 1_545 S
N1733 H1738 0.984 . S
N1733 H1739 0.985 1_545 S
C1734 C1728 1.401 . S
C1734 C1731 1.337 1_545 S
C1734 N1732 1.352 1_545 S
C1735 C1729 1.336 1_565 S
C1735 C1730 1.401 . S
C1735 N1733 1.352 1_565 S
N1736 C1728 1.356 . S
N1736 H1742 0.984 . S
N1736 H1743 0.984 . S
N1737 C1730 1.356 . S
N1737 H1740 0.984 . S
N1737 H1741 0.985 . S
H1738 N1733 0.984 . S
H1739 N1733 0.985 1_565 S
H1740 N1737 0.984 . S
H1741 N1737 0.985 . S
H1742 N1736 0.984 . S
H1743 N1736 0.984 . S
H1744 N1732 0.984 1_545 S
H1745 N1732 0.985 . S
C1746 C1747 1.363 . S
C1746 C1752 1.370 1_565 S
C1746 N1754 1.356 . S
C1747 C1746 1.363 . S
C1747 C1753 1.369 . S
C1748 C1749 1.363 . S
C1748 C1753 1.371 1_545 S
C1748 N1755 1.356 . S
C1749 C1748 1.363 . S
C1749 C1752 1.370 . S
N1750 C1752 1.361 . S
N1750 H1762 0.984 1_545 S
N1750 H1763 0.985 . S
N1751 C1753 1.361 . S
N1751 H1756 0.984 . S
N1751 H1757 0.985 1_565 S
C1752 C1746 1.370 1_545 S
C1752 C1749 1.370 . S
C1752 N1750 1.361 . S
C1753 C1747 1.369 . S
C1753 C1748 1.371 1_565 S
C1753 N1751 1.361 . S
N1754 C1746 1.356 . S
N1754 H1760 0.984 . S
N1754 H1761 0.984 . S
N1755 C1748 1.356 . S
N1755 H1758 0.984 . S
N1755 H1759 0.985 . S
H1756 N1751 0.984 . S
H1757 N1751 0.985 1_545 S
H1758 N1755 0.984 . S
H1759 N1755 0.985 . S
H1760 N1754 0.984 . S
H1761 N1754 0.984 . S
H1762 N1750 0.984 1_565 S
H1763 N1750 0.985 . S
C1764 C1765 1.363 . S
C1764 C1770 1.379 1_655 S
C1764 N1772 1.356 . S
C1765 C1764 1.363 . S
C1765 C1771 1.363 . S
C1766 C1767 1.363 . S
C1766 C1771 1.379 1_455 S
C1766 N1773 1.356 . S
C1767 C1766 1.363 . S
C1767 C1770 1.363 . S
N1768 C1770 1.356 . S
N1768 H1780 0.984 . S
N1768 H1781 0.985 . S
N1769 C1771 1.356 . S
N1769 H1774 0.984 . S
N1769 H1775 0.985 . S
C1770 C1764 1.379 1_455 S
C1770 C1767 1.363 . S
C1770 N1768 1.356 . S
C1771 C1765 1.363 . S
C1771 C1766 1.379 1_655 S
C1771 N1769 1.356 . S
N1772 C1764 1.356 . S
N1772 H1778 0.984 . S
N1772 H1779 0.984 . S
N1773 C1766 1.356 . S
N1773 H1776 0.984 . S
N1773 H1777 0.985 . S
H1774 N1769 0.984 . S
H1775 N1769 0.985 . S
H1776 N1773 0.984 . S
H1777 N1773 0.985 . S
H1778 N1772 0.984 . S
H1779 N1772 0.984 . S
H1780 N1768 0.984 . S
H1781 N1768 0.985 . S
C1782 C1783 1.363 . S
C1782 C1788 1.379 . S
C1782 N1790 1.356 . S
C1783 C1782 1.363 . S
C1783 C1789 1.363 . S
C1784 C1785 1.363 . S
C1784 C1789 1.379 . S
C1784 N1791 1.356 . S
C1785 C1784 1.363 . S
C1785 C1788 1.363 . S
N1786 C1788 1.356 . S
N1786 H1798 0.984 . S
N1786 H1799 0.985 . S
N1787 C1789 1.356 . S
N1787 H1792 0.984 . S
N1787 H1793 0.985 . S
C1788 C1782 1.379 . S
C1788 C1785 1.363 . S
C1788 N1786 1.356 . S
C1789 C1783 1.363 . S
C1789 C1784 1.379 . S
C1789 N1787 1.356 . S
N1790 C1782 1.356 . S
N1790 H1796 0.984 . S
N1790 H1797 0.984 . S
N1791 C1784 1.356 . S
N1791 H1794 0.984 . S
N1791 H1795 0.985 . S
H1792 N1787 0.984 . S
H1793 N1787 0.985 . S
H1794 N1791 0.984 . S
H1795 N1791 0.985 . S
H1796 N1790 0.984 . S
H1797 N1790 0.984 . S
H1798 N1786 0.984 . S
H1799 N1786 0.985 . S
C505 C68 1.324 . S
C507 C13 1.324 . S
C523 C83 1.325 . S
C525 C26 1.323 . S
C541 C42 1.324 . S
C543 C29 1.324 . S
C559 C153 1.324 . S
C561 C84 1.324 . S
C577 C110 1.324 . S
C579 C166 1.324 . S
C595 C139 1.323 . S
C597 C124 1.324 . S
C613 C169 1.347 . S
C615 C236 1.344 . S
C631 C251 1.345 . S
C633 C195 1.347 1_565 S
C649 C208 1.346 1_455 S
C651 C210 1.344 . S
C667 C264 1.345 . S
C669 C309 1.346 1_565 S
C685 C322 1.347 1_455 S
C687 C266 1.345 . S
C703 C280 1.345 . S
C705 C306 1.347 . S
C721 C404 1.346 1_545 S
C723 C349 1.345 . S
C739 C363 1.345 . S
C741 C407 1.347 1_655 S
C757 C390 1.346 . S
C759 C365 1.345 . S
C775 C489 1.344 . S
C777 C432 1.347 . S
C793 C446 1.347 1_545 S
C795 C502 1.345 . S
C811 C448 1.347 1_655 S
C813 C475 1.344 . S
C829 C167 1.673 . S
C831 C12 1.673 . S
C847 C27 1.674 . S
C849 C138 1.674 . S
C865 C152 1.674 . S
C867 C28 1.673 . S
C883 C111 1.673 . S
C885 C43 1.674 . S
C901 C69 1.674 . S
C903 C125 1.673 . S
C919 C85 1.673 . S
C921 C82 1.673 . S
C937 C168 1.726 . S
C939 C323 1.726 . S
C955 C307 1.726 . S
C957 C194 1.726 . S
C973 C308 1.727 . S
C975 C209 1.727 . S
C991 C211 1.710 . S
C993 C267 1.708 . S
C1009 C237 1.710 . S
C1011 C281 1.708 . S
C1027 C250 1.708 . S
C1029 C265 1.708 . S
C1045 C503 1.708 . S
C1047 C348 1.708 . S
C1063 C362 1.708 . S
C1065 C474 1.710 . S
C1081 C364 1.708 . S
C1083 C488 1.710 . S
C1099 C447 1.726 . S
C1101 C391 1.727 . S
C1117 C449 1.726 . S
C1119 C405 1.727 . S
C1135 C433 1.726 . S
C1137 C406 1.726 . S
C1153 C223 1.664 . S
C1155 C0 1.669 . S
C1171 C225 1.664 . S
C1173 C15 1.668 . S
C1189 C40 1.672 . S
C1191 C238 1.663 . S
C1207 C55 1.671 . S
C1209 C336 1.662 . S
C1225 C57 1.671 . S
C1227 C350 1.663 . S
C1243 C70 1.671 . S
C1245 C376 1.662 . S
C1261 C97 1.672 . S
C1263 C462 1.661 . S
C1279 C99 1.671 . S
C1281 C476 1.661 . S
C1297 C113 1.672 . S
C1299 C491 1.663 . S
C1315 C126 1.671 . S
C1317 C253 1.662 . S
C1333 C279 1.665 . S
C1335 C140 1.668 . S
C1351 C293 1.665 . S
C1353 C155 1.669 . S
C1369 C379 1.890 . S
C1371 C180 1.891 . S
C1387 C182 1.891 . S
C1389 C393 1.890 . S
C1405 C418 1.891 . S
C1407 C197 1.890 . S
C1423 C295 1.891 . S
C1425 C421 1.891 . S
C1441 C435 1.891 . S
C1443 C320 1.890 . S
C1459 C461 1.891 . S
C1461 C335 1.891 . S
C1477 C1 1.846 . S
C1479 C419 1.856 . S
C1495 C14 1.849 . S
C1497 C378 1.859 . S
C1513 C41 1.846 . S
C1515 C392 1.859 . S
C1531 C54 1.849 . S
C1533 C183 1.856 . S
C1549 C196 1.857 . S
C1551 C56 1.851 . S
C1567 C181 1.854 . S
C1569 C71 1.849 . S
C1585 C334 1.854 . S
C1587 C96 1.848 . S
C1603 C294 1.854 . S
C1605 C98 1.849 . S
C1621 C321 1.857 . S
C1623 C112 1.848 . S
C1639 C434 1.854 . S
C1641 C127 1.851 . S
C1657 C460 1.854 . S
C1659 C141 1.851 . S
C1675 C420 1.854 . S
C1677 C154 1.849 . S
C1693 C222 1.663 . S
C1695 C351 1.660 . S
C1711 C377 1.660 . S
C1713 C224 1.663 . S
C1729 C337 1.660 . S
C1731 C239 1.660 . S
C1747 C252 1.660 . S
C1749 C490 1.660 . S
C1765 C463 1.663 . S
C1767 C278 1.660 . S
C1783 C292 1.660 . S
C1785 C477 1.663 . S
