# Generated by pormake.
# Topology bcu-l, (5)-cn, num edge types: 1
# Building blocks:
#     Node 0, Type 0, BuildingBlock: XOMCOT_clean_sbu_0, # of connection points: 5
#     Node 1, Type 0, BuildingBlock: XOMCOT_clean_sbu_0, # of connection points: 5
#     Node 2, Type 0, BuildingBlock: XOMCOT_clean_sbu_0, # of connection points: 5
#     Node 3, Type 0, BuildingBlock: XOMCOT_clean_sbu_0, # of connection points: 5
#     Node 4, Type 0, BuildingBlock: XOMCOT_clean_sbu_0, # of connection points: 5
#     Node 5, Type 0, BuildingBlock: XOMCOT_clean_sbu_0, # of connection points: 5
#     Node 6, Type 0, BuildingBlock: XOMCOT_clean_sbu_0, # of connection points: 5
#     Node 7, Type 0, BuildingBlock: XOMCOT_clean_sbu_0, # of connection points: 5
#     Node 8, Type 0, BuildingBlock: XOMCOT_clean_sbu_0, # of connection points: 5
#     Node 9, Type 0, BuildingBlock: XOMCOT_clean_sbu_0, # of connection points: 5
#     Node 10, Type 0, BuildingBlock: XOMCOT_clean_sbu_0, # of connection points: 5
#     Node 11, Type 0, BuildingBlock: XOMCOT_clean_sbu_0, # of connection points: 5
#     Node 12, Type 0, BuildingBlock: XOMCOT_clean_sbu_0, # of connection points: 5
#     Node 13, Type 0, BuildingBlock: XOMCOT_clean_sbu_0, # of connection points: 5
#     Node 14, Type 0, BuildingBlock: XOMCOT_clean_sbu_0, # of connection points: 5
#     Node 15, Type 0, BuildingBlock: XOMCOT_clean_sbu_0, # of connection points: 5
#     Node 16, Type 0, BuildingBlock: XOMCOT_clean_sbu_0, # of connection points: 5
#     Node 17, Type 0, BuildingBlock: XOMCOT_clean_sbu_0, # of connection points: 5
#     Node 18, Type 0, BuildingBlock: XOMCOT_clean_sbu_0, # of connection points: 5
#     Node 19, Type 0, BuildingBlock: XOMCOT_clean_sbu_0, # of connection points: 5
#     Node 20, Type 0, BuildingBlock: XOMCOT_clean_sbu_0, # of connection points: 5
#     Node 21, Type 0, BuildingBlock: XOMCOT_clean_sbu_0, # of connection points: 5
#     Node 22, Type 0, BuildingBlock: XOMCOT_clean_sbu_0, # of connection points: 5
#     Node 23, Type 0, BuildingBlock: XOMCOT_clean_sbu_0, # of connection points: 5
#     Node 24, Type 0, BuildingBlock: XOMCOT_clean_sbu_0, # of connection points: 5
#     Node 25, Type 0, BuildingBlock: XOMCOT_clean_sbu_0, # of connection points: 5
#     Node 26, Type 0, BuildingBlock: XOMCOT_clean_sbu_0, # of connection points: 5
#     Node 27, Type 0, BuildingBlock: XOMCOT_clean_sbu_0, # of connection points: 5
#     Node 28, Type 0, BuildingBlock: XOMCOT_clean_sbu_0, # of connection points: 5
#     Node 29, Type 0, BuildingBlock: XOMCOT_clean_sbu_0, # of connection points: 5
#     Node 30, Type 0, BuildingBlock: XOMCOT_clean_sbu_0, # of connection points: 5
#     Node 31, Type 0, BuildingBlock: XOMCOT_clean_sbu_0, # of connection points: 5
#     Node 32, Type 0, BuildingBlock: XOMCOT_clean_sbu_0, # of connection points: 5
#     Node 33, Type 0, BuildingBlock: XOMCOT_clean_sbu_0, # of connection points: 5
#     Node 34, Type 0, BuildingBlock: XOMCOT_clean_sbu_0, # of connection points: 5
#     Node 35, Type 0, BuildingBlock: XOMCOT_clean_sbu_0, # of connection points: 5
#     Node 36, Type 0, BuildingBlock: XOMCOT_clean_sbu_0, # of connection points: 5
#     Node 37, Type 0, BuildingBlock: XOMCOT_clean_sbu_0, # of connection points: 5
#     Node 38, Type 0, BuildingBlock: XOMCOT_clean_sbu_0, # of connection points: 5
#     Node 39, Type 0, BuildingBlock: XOMCOT_clean_sbu_0, # of connection points: 5
#     Node 40, Type 0, BuildingBlock: XOMCOT_clean_sbu_0, # of connection points: 5
#     Node 41, Type 0, BuildingBlock: XOMCOT_clean_sbu_0, # of connection points: 5
#     Node 42, Type 0, BuildingBlock: XOMCOT_clean_sbu_0, # of connection points: 5
#     Node 43, Type 0, BuildingBlock: XOMCOT_clean_sbu_0, # of connection points: 5
#     Node 44, Type 0, BuildingBlock: XOMCOT_clean_sbu_0, # of connection points: 5
#     Node 45, Type 0, BuildingBlock: XOMCOT_clean_sbu_0, # of connection points: 5
#     Node 46, Type 0, BuildingBlock: XOMCOT_clean_sbu_0, # of connection points: 5
#     Node 47, Type 0, BuildingBlock: XOMCOT_clean_sbu_0, # of connection points: 5
#     Edge 48, Type (0, 0), BuildingBlock: AJUNOK_clean_linker_0, # of connection points: 2
#     Edge 49, Type (0, 0), BuildingBlock: AJUNOK_clean_linker_0, # of connection points: 2
#     Edge 50, Type (0, 0), BuildingBlock: AJUNOK_clean_linker_0, # of connection points: 2
#     Edge 51, Type (0, 0), BuildingBlock: AJUNOK_clean_linker_0, # of connection points: 2
#     Edge 52, Type (0, 0), BuildingBlock: AJUNOK_clean_linker_0, # of connection points: 2
#     Edge 53, Type (0, 0), BuildingBlock: AJUNOK_clean_linker_0, # of connection points: 2
#     Edge 54, Type (0, 0), BuildingBlock: AJUNOK_clean_linker_0, # of connection points: 2
#     Edge 55, Type (0, 0), BuildingBlock: AJUNOK_clean_linker_0, # of connection points: 2
#     Edge 56, Type (0, 0), BuildingBlock: AJUNOK_clean_linker_0, # of connection points: 2
#     Edge 57, Type (0, 0), BuildingBlock: AJUNOK_clean_linker_0, # of connection points: 2
#     Edge 58, Type (0, 0), BuildingBlock: AJUNOK_clean_linker_0, # of connection points: 2
#     Edge 59, Type (0, 0), BuildingBlock: AJUNOK_clean_linker_0, # of connection points: 2
#     Edge 60, Type (0, 0), BuildingBlock: AJUNOK_clean_linker_0, # of connection points: 2
#     Edge 61, Type (0, 0), BuildingBlock: AJUNOK_clean_linker_0, # of connection points: 2
#     Edge 62, Type (0, 0), BuildingBlock: AJUNOK_clean_linker_0, # of connection points: 2
#     Edge 63, Type (0, 0), BuildingBlock: AJUNOK_clean_linker_0, # of connection points: 2
#     Edge 64, Type (0, 0), BuildingBlock: AJUNOK_clean_linker_0, # of connection points: 2
#     Edge 65, Type (0, 0), BuildingBlock: AJUNOK_clean_linker_0, # of connection points: 2
#     Edge 66, Type (0, 0), BuildingBlock: AJUNOK_clean_linker_0, # of connection points: 2
#     Edge 67, Type (0, 0), BuildingBlock: AJUNOK_clean_linker_0, # of connection points: 2
#     Edge 68, Type (0, 0), BuildingBlock: AJUNOK_clean_linker_0, # of connection points: 2
#     Edge 69, Type (0, 0), BuildingBlock: AJUNOK_clean_linker_0, # of connection points: 2
#     Edge 70, Type (0, 0), BuildingBlock: AJUNOK_clean_linker_0, # of connection points: 2
#     Edge 71, Type (0, 0), BuildingBlock: AJUNOK_clean_linker_0, # of connection points: 2
#     Edge 72, Type (0, 0), BuildingBlock: AJUNOK_clean_linker_0, # of connection points: 2
#     Edge 73, Type (0, 0), BuildingBlock: AJUNOK_clean_linker_0, # of connection points: 2
#     Edge 74, Type (0, 0), BuildingBlock: AJUNOK_clean_linker_0, # of connection points: 2
#     Edge 75, Type (0, 0), BuildingBlock: AJUNOK_clean_linker_0, # of connection points: 2
#     Edge 76, Type (0, 0), BuildingBlock: AJUNOK_clean_linker_0, # of connection points: 2
#     Edge 77, Type (0, 0), BuildingBlock: AJUNOK_clean_linker_0, # of connection points: 2
#     Edge 78, Type (0, 0), BuildingBlock: AJUNOK_clean_linker_0, # of connection points: 2
#     Edge 79, Type (0, 0), BuildingBlock: AJUNOK_clean_linker_0, # of connection points: 2
#     Edge 80, Type (0, 0), BuildingBlock: AJUNOK_clean_linker_0, # of connection points: 2
#     Edge 81, Type (0, 0), BuildingBlock: AJUNOK_clean_linker_0, # of connection points: 2
#     Edge 82, Type (0, 0), BuildingBlock: AJUNOK_clean_linker_0, # of connection points: 2
#     Edge 83, Type (0, 0), BuildingBlock: AJUNOK_clean_linker_0, # of connection points: 2
#     Edge 84, Type (0, 0), BuildingBlock: AJUNOK_clean_linker_0, # of connection points: 2
#     Edge 85, Type (0, 0), BuildingBlock: AJUNOK_clean_linker_0, # of connection points: 2
#     Edge 86, Type (0, 0), BuildingBlock: AJUNOK_clean_linker_0, # of connection points: 2
#     Edge 87, Type (0, 0), BuildingBlock: AJUNOK_clean_linker_0, # of connection points: 2
#     Edge 88, Type (0, 0), BuildingBlock: AJUNOK_clean_linker_0, # of connection points: 2
#     Edge 89, Type (0, 0), BuildingBlock: AJUNOK_clean_linker_0, # of connection points: 2
#     Edge 90, Type (0, 0), BuildingBlock: AJUNOK_clean_linker_0, # of connection points: 2
#     Edge 91, Type (0, 0), BuildingBlock: AJUNOK_clean_linker_0, # of connection points: 2
#     Edge 92, Type (0, 0), BuildingBlock: AJUNOK_clean_linker_0, # of connection points: 2
#     Edge 93, Type (0, 0), BuildingBlock: AJUNOK_clean_linker_0, # of connection points: 2
#     Edge 94, Type (0, 0), BuildingBlock: AJUNOK_clean_linker_0, # of connection points: 2
#     Edge 95, Type (0, 0), BuildingBlock: AJUNOK_clean_linker_0, # of connection points: 2
#     Edge 96, Type (0, 0), BuildingBlock: AJUNOK_clean_linker_0, # of connection points: 2
#     Edge 97, Type (0, 0), BuildingBlock: AJUNOK_clean_linker_0, # of connection points: 2
#     Edge 98, Type (0, 0), BuildingBlock: AJUNOK_clean_linker_0, # of connection points: 2
#     Edge 99, Type (0, 0), BuildingBlock: AJUNOK_clean_linker_0, # of connection points: 2
#     Edge 100, Type (0, 0), BuildingBlock: AJUNOK_clean_linker_0, # of connection points: 2
#     Edge 101, Type (0, 0), BuildingBlock: AJUNOK_clean_linker_0, # of connection points: 2
#     Edge 102, Type (0, 0), BuildingBlock: AJUNOK_clean_linker_0, # of connection points: 2
#     Edge 103, Type (0, 0), BuildingBlock: AJUNOK_clean_linker_0, # of connection points: 2
#     Edge 104, Type (0, 0), BuildingBlock: AJUNOK_clean_linker_0, # of connection points: 2
#     Edge 105, Type (0, 0), BuildingBlock: AJUNOK_clean_linker_0, # of connection points: 2
#     Edge 106, Type (0, 0), BuildingBlock: AJUNOK_clean_linker_0, # of connection points: 2
#     Edge 107, Type (0, 0), BuildingBlock: AJUNOK_clean_linker_0, # of connection points: 2
#     Edge 108, Type (0, 0), BuildingBlock: AJUNOK_clean_linker_0, # of connection points: 2
#     Edge 109, Type (0, 0), BuildingBlock: AJUNOK_clean_linker_0, # of connection points: 2
#     Edge 110, Type (0, 0), BuildingBlock: AJUNOK_clean_linker_0, # of connection points: 2
#     Edge 111, Type (0, 0), BuildingBlock: AJUNOK_clean_linker_0, # of connection points: 2
#     Edge 112, Type (0, 0), BuildingBlock: AJUNOK_clean_linker_0, # of connection points: 2
#     Edge 113, Type (0, 0), BuildingBlock: AJUNOK_clean_linker_0, # of connection points: 2
#     Edge 114, Type (0, 0), BuildingBlock: AJUNOK_clean_linker_0, # of connection points: 2
#     Edge 115, Type (0, 0), BuildingBlock: AJUNOK_clean_linker_0, # of connection points: 2
#     Edge 116, Type (0, 0), BuildingBlock: AJUNOK_clean_linker_0, # of connection points: 2
#     Edge 117, Type (0, 0), BuildingBlock: AJUNOK_clean_linker_0, # of connection points: 2
#     Edge 118, Type (0, 0), BuildingBlock: AJUNOK_clean_linker_0, # of connection points: 2
#     Edge 119, Type (0, 0), BuildingBlock: AJUNOK_clean_linker_0, # of connection points: 2
#     Edge 120, Type (0, 0), BuildingBlock: AJUNOK_clean_linker_0, # of connection points: 2
#     Edge 121, Type (0, 0), BuildingBlock: AJUNOK_clean_linker_0, # of connection points: 2
#     Edge 122, Type (0, 0), BuildingBlock: AJUNOK_clean_linker_0, # of connection points: 2
#     Edge 123, Type (0, 0), BuildingBlock: AJUNOK_clean_linker_0, # of connection points: 2
#     Edge 124, Type (0, 0), BuildingBlock: AJUNOK_clean_linker_0, # of connection points: 2
#     Edge 125, Type (0, 0), BuildingBlock: AJUNOK_clean_linker_0, # of connection points: 2
#     Edge 126, Type (0, 0), BuildingBlock: AJUNOK_clean_linker_0, # of connection points: 2
#     Edge 127, Type (0, 0), BuildingBlock: AJUNOK_clean_linker_0, # of connection points: 2
#     Edge 128, Type (0, 0), BuildingBlock: AJUNOK_clean_linker_0, # of connection points: 2
#     Edge 129, Type (0, 0), BuildingBlock: AJUNOK_clean_linker_0, # of connection points: 2
#     Edge 130, Type (0, 0), BuildingBlock: AJUNOK_clean_linker_0, # of connection points: 2
#     Edge 131, Type (0, 0), BuildingBlock: AJUNOK_clean_linker_0, # of connection points: 2
#     Edge 132, Type (0, 0), BuildingBlock: AJUNOK_clean_linker_0, # of connection points: 2
#     Edge 133, Type (0, 0), BuildingBlock: AJUNOK_clean_linker_0, # of connection points: 2
#     Edge 134, Type (0, 0), BuildingBlock: AJUNOK_clean_linker_0, # of connection points: 2
#     Edge 135, Type (0, 0), BuildingBlock: AJUNOK_clean_linker_0, # of connection points: 2
#     Edge 136, Type (0, 0), BuildingBlock: AJUNOK_clean_linker_0, # of connection points: 2
#     Edge 137, Type (0, 0), BuildingBlock: AJUNOK_clean_linker_0, # of connection points: 2
#     Edge 138, Type (0, 0), BuildingBlock: AJUNOK_clean_linker_0, # of connection points: 2
#     Edge 139, Type (0, 0), BuildingBlock: AJUNOK_clean_linker_0, # of connection points: 2
#     Edge 140, Type (0, 0), BuildingBlock: AJUNOK_clean_linker_0, # of connection points: 2
#     Edge 141, Type (0, 0), BuildingBlock: AJUNOK_clean_linker_0, # of connection points: 2
#     Edge 142, Type (0, 0), BuildingBlock: AJUNOK_clean_linker_0, # of connection points: 2
#     Edge 143, Type (0, 0), BuildingBlock: AJUNOK_clean_linker_0, # of connection points: 2
#     Edge 144, Type (0, 0), BuildingBlock: AJUNOK_clean_linker_0, # of connection points: 2
#     Edge 145, Type (0, 0), BuildingBlock: AJUNOK_clean_linker_0, # of connection points: 2
#     Edge 146, Type (0, 0), BuildingBlock: AJUNOK_clean_linker_0, # of connection points: 2
#     Edge 147, Type (0, 0), BuildingBlock: AJUNOK_clean_linker_0, # of connection points: 2
#     Edge 148, Type (0, 0), BuildingBlock: AJUNOK_clean_linker_0, # of connection points: 2
#     Edge 149, Type (0, 0), BuildingBlock: AJUNOK_clean_linker_0, # of connection points: 2
#     Edge 150, Type (0, 0), BuildingBlock: AJUNOK_clean_linker_0, # of connection points: 2
#     Edge 151, Type (0, 0), BuildingBlock: AJUNOK_clean_linker_0, # of connection points: 2
#     Edge 152, Type (0, 0), BuildingBlock: AJUNOK_clean_linker_0, # of connection points: 2
#     Edge 153, Type (0, 0), BuildingBlock: AJUNOK_clean_linker_0, # of connection points: 2
#     Edge 154, Type (0, 0), BuildingBlock: AJUNOK_clean_linker_0, # of connection points: 2
#     Edge 155, Type (0, 0), BuildingBlock: AJUNOK_clean_linker_0, # of connection points: 2
#     Edge 156, Type (0, 0), BuildingBlock: AJUNOK_clean_linker_0, # of connection points: 2
#     Edge 157, Type (0, 0), BuildingBlock: AJUNOK_clean_linker_0, # of connection points: 2
#     Edge 158, Type (0, 0), BuildingBlock: AJUNOK_clean_linker_0, # of connection points: 2
#     Edge 159, Type (0, 0), BuildingBlock: AJUNOK_clean_linker_0, # of connection points: 2
#     Edge 160, Type (0, 0), BuildingBlock: AJUNOK_clean_linker_0, # of connection points: 2
#     Edge 161, Type (0, 0), BuildingBlock: AJUNOK_clean_linker_0, # of connection points: 2
#     Edge 162, Type (0, 0), BuildingBlock: AJUNOK_clean_linker_0, # of connection points: 2
#     Edge 163, Type (0, 0), BuildingBlock: AJUNOK_clean_linker_0, # of connection points: 2
#     Edge 164, Type (0, 0), BuildingBlock: AJUNOK_clean_linker_0, # of connection points: 2
#     Edge 165, Type (0, 0), BuildingBlock: AJUNOK_clean_linker_0, # of connection points: 2
#     Edge 166, Type (0, 0), BuildingBlock: AJUNOK_clean_linker_0, # of connection points: 2
#     Edge 167, Type (0, 0), BuildingBlock: AJUNOK_clean_linker_0, # of connection points: 2
# Relax obj value: 0.290
# Max RMSD: 0.243
# Mean RMSD: 0.240
data_MOF--net-bcu-l--node1-XOMCOT_clean_sbu_0--edge1-AJUNOK_clean_linker_0
_symmetry_space_group_name_H-M    P1
_symmetry_Int_Tables_number       1
_symmetry_cell_setting            triclinic
loop_
_symmetry_equiv_pos_as_xyz
'x, y, z'
_cell_length_a     50.19825
_cell_length_b     50.170535
_cell_length_c     50.30063
_cell_angle_alpha  90.027276
_cell_angle_beta   90.13484
_cell_angle_gamma 89.948425
loop_
_atom_site_label
_atom_site_type_symbol
_atom_site_fract_x
_atom_site_fract_y
_atom_site_fract_z
_atom_type_partial_charge
Co0 Co 0.03347 0.19935 0.39855 0.0
C1 C 0.07331 0.15549 0.38782 0.0
C2 C 0.08629 0.18257 0.41799 0.0
C3 C 0.10365 0.16144 0.41727 0.0
N4 N 0.0674 0.17954 0.39909 0.0
N5 N 0.0955 0.14402 0.39855 0.0
H6 H 0.06043 0.14556 0.37371 0.0
H7 H 0.08645 0.19787 0.43306 0.0
C8 C 0.07082 0.24448 0.41293 0.0
O9 O 0.08538 0.23544 0.39321 0.0
N10 N 0.9995 0.21732 0.39976 0.0
C11 C 0.97972 0.21666 0.3816 0.0
C12 C 0.95676 0.22635 0.39323 0.0
C13 C 0.98841 0.22697 0.42207 0.0
N14 N 0.96233 0.2326 0.41875 0.0
C15 C 0.04901 0.20481 0.34299 0.0
C16 C 0.03796 0.25884 0.34044 0.0
C17 C 0.04533 0.24563 0.31716 0.0
C18 C 0.05091 0.21821 0.31847 0.0
C19 C 0.03572 0.24477 0.3641 0.0
N20 N 0.04165 0.21817 0.3655 0.0
H21 H 0.0525 0.18358 0.34368 0.0
H22 H 0.02848 0.25534 0.38135 0.0
H23 H 0.98151 0.20839 0.36181 0.0
H24 H 0.99908 0.22892 0.44069 0.0
O25 O 1.01573 0.16885 0.38303 0.0
O26 O 0.01947 0.17545 0.42623 0.0
O27 O 0.05012 0.23088 0.4201 0.0
C28 C 1.00966 0.16108 0.40682 0.0
H29 H 0.12036 0.15857 0.4306 0.0
H30 H 0.93732 0.22759 0.38398 0.0
H31 H 0.03288 0.27984 0.34017 0.0
H32 H 0.05635 0.20726 0.30073 0.0
Co33 Co 0.8583 0.03668 0.39628 0.0
C34 C 0.90356 0.07464 0.40746 0.0
C35 C 0.87711 0.09068 0.3781 0.0
C36 C 0.89798 0.10816 0.38156 0.0
N37 N 0.88018 0.0695 0.39449 0.0
N38 N 0.91458 0.09817 0.40002 0.0
H39 H 0.91287 0.06117 0.42145 0.0
H40 H 0.8612 0.09339 0.36391 0.0
C41 C 0.81838 0.07681 0.41825 0.0
O42 O 0.8247 0.09131 0.39756 0.0
N43 N 0.83826 1.00405 0.39847 0.0
C44 C 0.83643 0.98495 0.3797 0.0
C45 C 0.82657 0.96211 0.39126 0.0
C46 C 0.82975 0.99267 0.42108 0.0
N47 N 0.8225 0.96703 0.41732 0.0
C48 C 0.8501 0.04727 0.34066 0.0
C49 C 0.79515 0.04384 0.34154 0.0
C50 C 0.80803 0.04443 0.31686 0.0
C51 C 0.83587 0.0467 0.31662 0.0
C52 C 0.81011 0.04411 0.36509 0.0
N53 N 0.83732 0.046 0.36462 0.0
H54 H 0.87162 0.04758 0.34 0.0
H55 H 0.7998 0.04082 0.38361 0.0
H56 H 0.8433 0.987 0.35944 0.0
H57 H 0.82975 1.00277 0.4401 0.0
O58 O 0.88603 1.01719 0.37798 0.0
O59 O 0.88359 0.0203 0.42152 0.0
O60 O 0.83083 0.05457 0.42183 0.0
C61 C 0.89518 1.00956 0.40084 0.0
H62 H 0.90127 0.12642 0.37058 0.0
H63 H 0.82381 0.94312 0.38146 0.0
H64 H 0.77373 0.04147 0.34265 0.0
H65 H 0.84664 0.0472 0.298 0.0
Co66 Co 1.0099 0.8507 0.40845 0.0
C67 C 0.04881 0.80564 0.41582 0.0
C68 C 0.05665 0.84061 0.43934 0.0
C69 C 0.0762 0.82254 0.44436 0.0
N70 N 0.03988 0.8305 0.42101 0.0
N71 N 0.0714 0.80072 0.42961 0.0
H72 H 0.03885 0.79148 0.40295 0.0
H73 H 0.05423 0.85955 0.44928 0.0
C74 C 0.04047 0.90082 0.39389 0.0
O75 O 0.02749 0.90142 0.37119 0.0
N76 N 0.97955 0.87337 0.39818 0.0
C77 C 0.95564 0.866 0.38816 0.0
C78 C 0.93895 0.88789 0.38726 0.0
C79 C 0.97625 0.89957 0.40454 0.0
N80 N 0.95189 0.90892 0.39768 0.0
C81 C 1.00354 0.83208 0.35471 0.0
C82 C 0.05696 0.83132 0.34185 0.0
C83 C 0.03904 0.81765 0.32521 0.0
C84 C 1.01191 0.81896 0.33161 0.0
C85 C 0.04768 0.84452 0.36475 0.0
N86 N 0.02122 0.84426 0.37147 0.0
H87 H 0.98303 0.82999 0.36023 0.0
H88 H 0.06221 0.85296 0.37821 0.0
H89 H 0.94988 0.8459 0.38313 0.0
H90 H 0.991 0.91153 0.41469 0.0
O91 O 0.98728 0.8195 0.41121 0.0
O92 O 0.99464 0.84688 0.4446 0.0
O93 O 0.03395 0.88359 0.41159 0.0
C94 C 0.98364 0.8248 0.43606 0.0
H95 H 0.09189 0.82446 0.45906 0.0
H96 H 0.91854 0.88816 0.38027 0.0
H97 H 0.07815 0.83071 0.33793 0.0
H98 H 0.99732 0.80803 0.32006 0.0
Co99 Co 0.20222 1.01286 0.39636 0.0
C100 C 0.24361 0.05152 0.41591 0.0
C101 C 0.21349 0.07082 0.39314 0.0
C102 C 0.22861 0.09009 0.40501 0.0
N103 N 0.22291 0.04618 0.39931 0.0
N104 N 0.24725 0.07796 0.41963 0.0
H105 H 0.25424 0.03676 0.42736 0.0
H106 H 0.19465 0.0753 0.38401 0.0
C107 C 0.15128 0.04301 0.38149 0.0
O108 O 0.14991 0.02988 0.35894 0.0
N109 N 0.17982 0.98034 0.3951 0.0
C110 C 0.18833 0.95479 0.39682 0.0
C111 C 0.16677 0.93789 0.39796 0.0
C112 C 0.15274 0.97821 0.39586 0.0
N113 N 0.14431 0.95254 0.39726 0.0
C114 C 0.21513 0.99094 0.34598 0.0
C115 C 0.21832 0.03764 0.31747 0.0
C116 C 0.23175 1.0151 0.30773 0.0
C117 C 0.22844 0.99117 0.3216 0.0
C118 C 0.20458 0.03635 0.34178 0.0
N119 N 0.20481 1.01367 0.35699 0.0
H120 H 0.21582 0.97271 0.35714 0.0
H121 H 0.19479 0.0541 0.34828 0.0
H122 H 0.2089 0.94849 0.3975 0.0
H123 H 0.13925 0.99488 0.39675 0.0
O124 O 0.23422 0.99148 0.40063 0.0
O125 O 0.21049 1.00506 0.43452 0.0
O126 O 0.16889 0.03642 0.3989 0.0
C127 C 0.23122 0.99159 0.42608 0.0
H128 H 0.22395 0.11116 0.40584 0.0
H129 H 0.16758 0.91637 0.39925 0.0
H130 H 0.21979 0.05666 0.30747 0.0
H131 H 0.23772 0.97296 0.31465 0.0
Co132 Co 0.06002 0.85279 0.65685 0.0
C133 C 1.01238 0.82943 0.63442 0.0
C134 C 0.02615 0.80539 0.66707 0.0
C135 C 1.00345 0.79391 0.65659 0.0
N136 N 0.03124 0.82789 0.65335 0.0
N137 N 0.99509 0.80918 0.63617 0.0
H138 H 1.01156 0.84482 0.61935 0.0
H139 H 0.03812 0.79786 0.68333 0.0
C140 C 0.02527 0.90203 0.66472 0.0
O141 O 0.03922 0.90762 0.68613 0.0
N142 N 0.08958 0.87865 0.65856 0.0
C143 C 0.11562 0.87249 0.66201 0.0
C144 C 0.13095 0.89492 0.65864 0.0
C145 C 0.08982 0.90512 0.65248 0.0
N146 N 0.11478 0.9154 0.65267 0.0
C147 C 0.07552 0.84777 0.71132 0.0
C148 C 0.02463 0.84112 0.73099 0.0
C149 C 0.04624 0.8318 0.74619 0.0
C150 C 0.07196 0.83685 0.73663 0.0
C151 C 0.02908 0.85242 0.70581 0.0
N152 N 0.05427 0.854 0.69547 0.0
H153 H 0.09543 0.84832 0.70354 0.0
H154 H 1.01198 0.85677 0.69343 0.0
H155 H 0.12335 0.85287 0.6663 0.0
H156 H 0.07251 0.9166 0.6469 0.0
O157 O 0.08482 0.82317 0.65741 0.0
O158 O 0.07108 0.84217 0.62048 0.0
O159 O 0.0324 0.88239 0.64988 0.0
C160 C 0.08509 0.82321 0.63171 0.0
H161 H 0.99424 0.77546 0.66287 0.0
H162 H 0.15241 0.89617 0.66049 0.0
H163 H 1.00434 0.83748 0.73725 0.0
H164 H 0.08932 0.83044 0.74777 0.0
Co165 Co 0.20295 0.04456 0.66324 0.0
C166 C 0.15606 0.08102 0.67109 0.0
C167 C 0.18156 0.09376 0.63955 0.0
C168 C 0.15941 0.10983 0.6398 0.0
N169 N 0.18006 0.076 0.6596 0.0
N170 N 0.14311 0.10182 0.65949 0.0
H171 H 0.14733 0.06844 0.68615 0.0
H172 H 0.19678 0.09408 0.62442 0.0
C173 C 0.24464 0.0848 0.64673 0.0
O174 O 0.23454 0.1004 0.66514 0.0
N175 N 0.22479 1.01317 0.66554 0.0
C176 C 0.22798 0.99612 0.68605 0.0
C177 C 0.24313 0.97481 0.67744 0.0
C178 C 0.23751 1.0021 0.64488 0.0
N179 N 0.24898 0.97891 0.65166 0.0
C180 C 0.20238 0.0591 0.71875 0.0
C181 C 0.2569 0.05467 0.7252 0.0
C182 C 0.24077 0.05473 0.74782 0.0
C183 C 0.21323 0.05816 0.74454 0.0
C184 C 0.24536 0.05505 0.70009 0.0
N185 N 0.21833 0.05662 0.69688 0.0
H186 H 0.18102 0.05921 0.71656 0.0
H187 H 0.25822 0.05104 0.68341 0.0
H188 H 0.21913 0.99855 0.7055 0.0
H189 H 0.23731 1.01021 0.62494 0.0
O190 O 0.17353 0.0243 0.67761 0.0
O191 O 0.18289 0.02692 0.63484 0.0
O192 O 0.23319 0.06238 0.64186 0.0
C193 C 0.1683 1.01641 0.65359 0.0
H194 H 0.15526 0.12566 0.62578 0.0
H195 H 0.24831 0.95717 0.68871 0.0
H196 H 0.27826 0.05199 0.72687 0.0
H197 H 0.20005 0.05794 0.76155 0.0
Co198 Co 1.01312 0.20673 0.67087 0.0
C199 C 0.04788 0.25281 0.65604 0.0
C200 C 0.0707 0.21909 0.66818 0.0
C201 C 0.08777 0.23751 0.65773 0.0
N202 N 0.04537 0.2284 0.66706 0.0
N203 N 0.07335 0.25842 0.6494 0.0
H204 H 0.03133 0.26517 0.65001 0.0
H205 H 0.07669 0.19908 0.67314 0.0
C206 C 0.04137 0.15373 0.67936 0.0
O207 O 0.0271 0.14966 0.70085 0.0
N208 N 0.98142 0.18368 0.67375 0.0
C209 C 0.95664 0.19056 0.68164 0.0
C210 C 0.94011 0.16862 0.6799 0.0
C211 C 0.97903 0.15767 0.66637 0.0
N212 N 0.95427 0.14781 0.67059 0.0
C213 C 1.00061 0.22115 0.7242 0.0
C214 C 0.05099 0.21391 0.74491 0.0
C215 C 0.03374 0.2317 0.75767 0.0
C216 C 1.00764 0.23374 0.74805 0.0
C217 C 0.04319 0.20178 0.72106 0.0
N218 N 1.01885 0.20701 0.70974 0.0
H219 H 0.98135 0.2257 0.716 0.0
H220 H 0.05798 0.19019 0.71099 0.0
H221 H 0.95054 0.21027 0.68775 0.0
H222 H 0.9947 0.1462 0.65719 0.0
O223 O 0.99072 0.23842 0.66957 0.0
O224 O 1.00242 0.21641 0.63387 0.0
O225 O 0.03657 0.17405 0.66462 0.0
C226 C 0.98938 0.23663 0.64396 0.0
H227 H 0.10848 0.23396 0.6529 0.0
H228 H 0.91926 0.16798 0.68533 0.0
H229 H 0.07111 0.21098 0.75217 0.0
H230 H 0.99347 0.24709 0.75736 0.0
Co231 Co 0.85901 1.00849 0.66087 0.0
C232 C 0.83709 0.05747 0.63893 0.0
C233 C 0.81355 0.04452 0.67212 0.0
C234 C 0.80179 0.06677 0.66104 0.0
N235 N 0.83573 0.03892 0.65823 0.0
N236 N 0.81654 0.07475 0.64004 0.0
H237 H 0.85245 0.05769 0.62391 0.0
H238 H 0.80595 0.0327 0.68841 0.0
C239 C 0.90992 0.04067 0.66857 0.0
O240 O 0.91609 0.02576 0.68915 0.0
N241 N 0.8834 0.9774 0.66214 0.0
C242 C 0.87611 0.95186 0.6666 0.0
C243 C 0.8981 0.93549 0.6651 0.0
C244 C 0.91008 0.97571 0.65715 0.0
N245 N 0.91963 0.95039 0.65937 0.0
C246 C 0.85126 0.993 0.71485 0.0
C247 C 0.85529 0.04313 0.73696 0.0
C248 C 0.84271 0.02302 0.75191 0.0
C249 C 0.84178 0.9974 0.74063 0.0
C250 C 0.86336 0.03817 0.71072 0.0
N251 N 0.86072 1.0134 0.69959 0.0
H252 H 0.84796 0.97365 0.70622 0.0
H253 H 0.86931 0.05496 0.69871 0.0
H254 H 0.85606 0.9452 0.67057 0.0
H255 H 0.92227 0.9923 0.65107 0.0
O256 O 0.82797 0.98536 0.66082 0.0
O257 O 0.8475 0.99891 0.62428 0.0
O258 O 0.88965 0.03461 0.65415 0.0
C259 C 0.82759 0.98607 0.63514 0.0
H260 H 0.78294 0.07541 0.66696 0.0
H261 H 0.89827 0.91417 0.66838 0.0
H262 H 0.85699 0.06323 0.74459 0.0
H263 H 0.83154 0.98118 0.75034 0.0
Co264 Co 0.40483 0.05229 0.20653 0.0
C265 C 0.4055 1.01335 0.25185 0.0
C266 C 0.43329 1.00474 0.22051 0.0
C267 C 0.43543 0.98521 0.23917 0.0
N268 N 0.4141 0.02195 0.22793 0.0
N269 N 0.41797 0.99049 0.2587 0.0
H270 H 0.39099 0.02365 0.264 0.0
H271 H 0.44562 1.00675 0.20304 0.0
C272 C 0.3952 1.01923 0.15639 0.0
O273 O 0.37163 0.03029 0.15358 0.0
N274 N 0.3975 0.08314 0.18333 0.0
C275 C 0.39251 0.10842 0.19121 0.0
C276 C 0.39078 0.12478 0.16932 0.0
C277 C 0.39941 0.08495 0.15639 0.0
N278 N 0.39494 0.11002 0.14739 0.0
C279 C 0.34954 0.06237 0.21579 0.0
C280 C 0.33409 1.00981 0.22054 0.0
C281 C 0.31688 0.02983 0.22984 0.0
C282 C 0.32449 0.0564 0.22625 0.0
C283 C 0.35892 1.01668 0.20964 0.0
N284 N 0.36693 0.04275 0.2084 0.0
H285 H 0.35572 0.08285 0.21623 0.0
H286 H 0.37254 1.00086 0.20433 0.0
H287 H 0.39019 0.11482 0.21153 0.0
H288 H 0.40519 0.06881 0.14349 0.0
O289 O 0.4048 0.07463 0.23801 0.0
O290 O 0.4409 0.06639 0.21476 0.0
O291 O 0.41129 0.02788 0.17433 0.0
C292 C 0.43028 0.07754 0.23578 0.0
H293 H 0.44987 0.96915 0.23928 0.0
H294 H 0.38665 0.14597 0.16949 0.0
H295 H 0.32905 0.98898 0.22302 0.0
H296 H 0.31221 0.07251 0.23368 0.0
Co297 Co 1.00872 0.41028 0.21376 0.0
C298 C 0.05574 0.43307 0.23953 0.0
C299 C 0.04145 0.39907 0.26123 0.0
C300 C 0.06338 0.40914 0.2743 0.0
N301 N 0.03709 0.41387 0.23924 0.0
N302 N 0.07214 0.43033 0.26047 0.0
H303 H 0.05692 0.44902 0.22511 0.0
H304 H 0.02942 0.3823 0.26738 0.0
C305 C 0.04263 0.40333 0.16394 0.0
O306 O 0.02789 0.38256 0.15786 0.0
N307 N 0.9791 0.40744 0.18794 0.0
C308 C 0.95376 0.40094 0.19428 0.0
C309 C 0.93791 0.40226 0.17202 0.0
C310 C 0.97782 0.41338 0.1615 0.0
N311 N 0.95293 0.41005 0.15135 0.0
C312 C 0.9964 0.35491 0.2207 0.0
C313 C 0.04873 0.33776 0.22109 0.0
C314 C 0.0292 0.32125 0.2322 0.0
C315 C 1.00256 0.32958 0.23064 0.0
C316 C 0.04177 0.36298 0.21147 0.0
N317 N 1.01596 0.37188 0.21245 0.0
H318 H 0.97621 0.36181 0.22263 0.0
H319 H 0.05776 0.37643 0.20644 0.0
H320 H 0.9468 0.39576 0.21391 0.0
H321 H 0.9943 0.42082 0.14993 0.0
O322 O 0.98369 0.40981 0.24332 0.0
O323 O 0.99717 0.44663 0.22387 0.0
O324 O 0.03627 0.41771 0.18421 0.0
C325 C 0.98345 0.43562 0.24303 0.0
H326 H 0.07194 0.4019 0.2927 0.0
H327 H 0.91689 0.39756 0.17104 0.0
H328 H 0.06958 0.33223 0.22201 0.0
H329 H 0.98682 0.31785 0.23951 0.0
Co330 Co 0.65176 1.0094 0.19677 0.0
C331 C 0.63495 0.04841 0.23955 0.0
C332 C 0.65308 0.06721 0.20615 0.0
C333 C 0.64367 0.0866 0.22232 0.0
N334 N 0.64817 0.04288 0.21665 0.0
N335 N 0.632 0.075 0.24324 0.0
H336 H 0.62675 0.03361 0.25276 0.0
H337 H 0.66085 0.07143 0.18685 0.0
C338 C 0.66188 0.03832 0.14387 0.0
O339 O 0.68409 0.0248 0.14077 0.0
N340 N 0.65421 0.97626 0.17539 0.0
C341 C 0.65657 0.95105 0.18461 0.0
C342 C 0.65746 0.93346 0.1635 0.0
C343 C 0.65286 0.97315 0.14848 0.0
N344 N 0.65541 0.94735 0.14069 0.0
C345 C 0.70391 0.99301 0.21097 0.0
C346 C 0.72766 0.04241 0.20891 0.0
C347 C 0.73844 0.02318 0.22603 0.0
C348 C 0.72726 0.99766 0.22551 0.0
C349 C 0.70448 0.0367 0.19429 0.0
N350 N 0.69113 1.01308 0.19757 0.0
H351 H 0.69451 0.97392 0.21347 0.0
H352 H 0.69705 0.05208 0.18158 0.0
H353 H 0.65773 0.94548 0.20532 0.0
H354 H 0.6491 0.98907 0.13465 0.0
O355 O 0.65043 0.9891 0.22948 0.0
O356 O 0.61439 0.99966 0.2076 0.0
O357 O 0.64606 0.03212 0.16301 0.0
C358 C 0.62483 0.98786 0.22844 0.0
H359 H 0.64349 0.10773 0.21787 0.0
H360 H 0.65998 0.91207 0.16485 0.0
H361 H 0.73635 0.06213 0.20778 0.0
H362 H 0.73497 0.98199 0.2382 0.0
Co363 Co 0.05287 0.65306 0.19998 0.0
C364 C 0.09281 0.66647 0.15626 0.0
C365 C 0.0984 0.62838 0.17463 0.0
C366 C 0.11497 0.6299 0.15308 0.0
N367 N 0.08464 0.65137 0.17728 0.0
N368 N 0.11156 0.65372 0.14133 0.0
H369 H 0.08399 0.68536 0.1508 0.0
H370 H 0.09526 0.61072 0.18649 0.0
C371 C 0.09461 0.63287 0.23789 0.0
O372 O 0.10909 0.65223 0.22789 0.0
N373 N 0.0211 0.65256 0.22125 0.0
C374 C 1.00222 0.67154 0.22343 0.0
C375 C 0.98102 0.66103 0.23733 0.0
C376 C 1.01127 0.63091 0.23354 0.0
N377 N 0.9869 0.63556 0.24367 0.0
C378 C 0.06697 0.70904 0.20731 0.0
C379 C 0.06317 0.7077 0.26219 0.0
C380 C 0.06481 0.73262 0.24983 0.0
C381 C 0.06734 0.73307 0.22194 0.0
C382 C 0.06248 0.68443 0.24699 0.0
N383 N 0.06428 0.68498 0.2198 0.0
H384 H 0.06698 0.70999 0.18589 0.0
H385 H 0.0582 0.66605 0.25727 0.0
H386 H 1.00345 0.69125 0.21482 0.0
H387 H 0.02122 0.61177 0.23393 0.0
O388 O 0.03303 0.67065 0.17173 0.0
O389 O 0.03538 0.62705 0.17651 0.0
O390 O 0.07126 0.62875 0.22796 0.0
C391 C 0.02526 0.64734 0.16368 0.0
H392 H 0.12799 0.61422 0.146 0.0
H393 H 0.96264 0.67119 0.24223 0.0
H394 H 0.0605 0.7062 0.2835 0.0
H395 H 0.06868 0.75185 0.21143 0.0
Co396 Co 0.39409 1.01591 0.85411 0.0
C397 C 0.41251 0.06332 0.82536 0.0
C398 C 0.37766 0.0465 0.80703 0.0
C399 C 0.38756 0.066 0.79058 0.0
N400 N 0.39331 0.0449 0.82883 0.0
N401 N 0.40944 0.07637 0.80215 0.0
H402 H 0.42963 0.06545 0.83832 0.0
H403 H 0.36131 0.03317 0.80258 0.0
C404 C 0.39038 0.04937 0.90419 0.0
O405 O 0.37037 0.03428 0.91164 0.0
N406 N 0.39589 0.98545 0.87943 0.0
C407 C 0.39236 0.95969 0.87225 0.0
C408 C 0.39531 0.94336 0.89394 0.0
C409 C 0.40169 0.98389 0.906 0.0
N410 N 0.40123 0.95836 0.9153 0.0
C411 C 0.33943 0.99982 0.85564 0.0
C412 C 0.32017 0.05109 0.84944 0.0
C413 C 0.3045 0.02966 0.84068 0.0
C414 C 0.31346 1.00375 0.84639 0.0
C415 C 0.34568 0.04626 0.85954 0.0
N416 N 0.35594 0.02096 0.86006 0.0
H417 H 0.34709 0.97979 0.85582 0.0
H418 H 0.35851 0.06325 0.86278 0.0
H419 H 0.38745 0.95281 0.8525 0.0
H420 H 0.40691 1.0007 0.91833 0.0
O421 O 0.39114 0.99161 0.82407 0.0
O422 O 0.42936 1.00664 0.83937 0.0
O423 O 0.40346 0.04336 0.88303 0.0
C424 C 0.41671 0.99315 0.82097 0.0
H425 H 0.38022 0.07112 0.77098 0.0
H426 H 0.39262 0.92195 0.89408 0.0
H427 H 0.31446 0.07149 0.84539 0.0
H428 H 0.30177 0.98654 0.84064 0.0
Co429 Co 0.04287 0.40614 0.86385 0.0
C430 C 0.08354 0.39996 0.90778 0.0
C431 C 0.08934 0.43462 0.88366 0.0
C432 C 0.10649 0.43593 0.90487 0.0
N433 N 0.07527 0.41177 0.88481 0.0
N434 N 0.1031 0.41412 0.9201 0.0
H435 H 0.07451 0.38233 0.91616 0.0
H436 H 0.08591 0.4505 0.86957 0.0
C437 C 0.08128 0.42401 0.82126 0.0
O438 O 0.09789 0.40701 0.83229 0.0
N439 N 1.01023 0.40208 0.84426 0.0
C440 C 0.99399 0.38073 0.84244 0.0
C441 C 0.97109 0.38833 0.82912 0.0
C442 C 0.99704 0.42226 0.83277 0.0
N443 N 0.97315 0.41451 0.82346 0.0
C444 C 0.05958 0.35073 0.86337 0.0
C445 C 0.05547 0.34507 0.80879 0.0
C446 C 0.05891 0.32221 0.82426 0.0
C447 C 0.0612 0.32516 0.85192 0.0
C448 C 0.05322 0.36988 0.82093 0.0
N449 N 0.05543 0.37278 0.84792 0.0
H450 H 0.0597 0.35248 0.88473 0.0
H451 H 0.04735 0.38642 0.80854 0.0
H452 H 0.99825 0.36127 0.85067 0.0
H453 H 1.00471 0.44239 0.83151 0.0
O454 O 0.02516 0.39143 0.89475 0.0
O455 O 0.02533 0.4342 0.88435 0.0
O456 O 0.05843 0.42785 0.83231 0.0
C457 C 1.01669 0.41532 0.89998 0.0
H458 H 0.11911 0.45273 0.90971 0.0
H459 H 0.95414 0.37586 0.82442 0.0
H460 H 0.05254 0.3436 0.78749 0.0
H461 H 0.06326 0.30784 0.8646 0.0
Co462 Co 0.66773 0.05691 0.85539 0.0
C463 C 0.65915 1.01632 0.81026 0.0
C464 C 0.63617 1.01073 0.84556 0.0
C465 C 0.63005 0.99072 0.82839 0.0
N466 N 0.65495 0.02659 0.83487 0.0
N467 N 0.64441 0.99403 0.8061 0.0
H468 H 0.67128 0.02532 0.79508 0.0
H469 H 0.62652 1.01418 0.86445 0.0
C470 C 0.67663 0.02617 0.90981 0.0
O471 O 0.69142 0.04416 0.9217 0.0
N472 N 0.67859 0.08662 0.87815 0.0
C473 C 0.69654 0.10575 0.8726 0.0
C474 C 0.69761 0.12349 0.89366 0.0
C475 C 0.66876 0.09325 0.90244 0.0
N476 N 0.68033 0.11553 0.91258 0.0
C477 C 0.7109 0.05288 0.8197 0.0
C478 C 0.75146 0.03736 0.85321 0.0
C479 C 0.75718 0.04181 0.82614 0.0
C480 C 0.7362 0.04923 0.80956 0.0
C481 C 0.72513 0.04107 0.86276 0.0
N482 N 0.70501 0.0487 0.84591 0.0
H483 H 0.69608 0.05938 0.80575 0.0
H484 H 0.72141 0.03829 0.88358 0.0
H485 H 0.70808 0.10675 0.85449 0.0
H486 H 0.65341 0.082 0.9125 0.0
O487 O 0.66217 0.08114 0.82616 0.0
O488 O 0.63022 0.07078 0.85357 0.0
O489 O 0.66738 0.03045 0.88641 0.0
C490 C 0.63729 0.08266 0.83147 0.0
H491 H 0.61421 0.97634 0.83109 0.0
H492 H 0.71058 0.14066 0.89521 0.0
H493 H 0.76714 0.0317 0.86689 0.0
H494 H 0.73926 0.05245 0.78847 0.0
Co495 Co 1.00897 0.66325 0.85061 0.0
C496 C 0.05733 0.63965 0.82907 0.0
C497 C 0.04452 0.67209 0.80429 0.0
C498 C 0.0667 0.66042 0.79303 0.0
N499 N 0.03892 0.65909 0.82701 0.0
N500 N 0.07474 0.64007 0.80873 0.0
H501 H 0.0572 0.62468 0.84456 0.0
H502 H 0.03274 0.68816 0.79603 0.0
C503 C 0.04145 0.67082 0.90115 0.0
O504 O 0.02743 0.69235 0.90623 0.0
N505 N 0.97842 0.66577 0.87543 0.0
C506 C 0.95286 0.67108 0.86875 0.0
C507 C 0.93695 0.66946 0.891 0.0
C508 C 0.97715 0.66003 0.90193 0.0
N509 N 0.95216 0.66271 0.91204 0.0
C510 C 0.99521 0.718 0.84305 0.0
C511 C 0.04694 0.73641 0.84052 0.0
C512 C 0.02665 0.75186 0.82892 0.0
C513 C 1.00035 0.74292 0.83162 0.0
C514 C 0.04094 0.71155 0.85181 0.0
N515 N 1.01544 0.70186 0.85161 0.0
H516 H 0.97517 0.71056 0.84191 0.0
H517 H 0.05733 0.69886 0.8577 0.0
H518 H 0.94586 0.67555 0.84891 0.0
H519 H 0.99378 0.65293 0.91356 0.0
O520 O 0.98532 0.66394 0.82 0.0
O521 O 0.99789 0.62691 0.83969 0.0
O522 O 0.03512 0.65607 0.8812 0.0
C523 C 0.98514 0.63818 0.8199 0.0
H524 H 0.07507 0.66535 0.77384 0.0
H525 H 0.91573 0.67323 0.89165 0.0
H526 H 0.06757 0.74252 0.83906 0.0
H527 H 0.984 0.75375 0.82262 0.0
Co528 Co 0.20578 0.40877 0.05505 0.0
C529 C 0.25008 0.41101 1.01405 0.0
C530 C 0.22157 0.44303 1.013 0.0
C531 C 0.24025 0.44788 0.99407 0.0
N532 N 0.22719 0.41981 0.02525 0.0
N533 N 0.25801 0.42786 0.9946 0.0
H534 H 0.26072 0.39325 0.02013 0.0
H535 H 0.20499 0.45588 0.01793 0.0
C536 C 0.15512 0.39993 0.023 0.0
O537 O 0.1512 0.37731 0.03554 0.0
N538 N 0.18248 0.40058 0.08565 0.0
C539 C 0.1905 0.3939 0.11045 0.0
C540 C 0.16908 0.39482 0.12757 0.0
C541 C 0.15602 0.40618 0.08857 0.0
N542 N 0.14736 0.40256 0.11386 0.0
C543 C 0.21638 0.35321 0.06217 0.0
C544 C 0.21505 0.33867 1.00926 0.0
C545 C 0.22615 0.32069 0.0277 0.0
C546 C 0.22566 0.32805 0.05461 0.0
C547 C 0.20646 0.364 0.01763 0.0
N548 N 0.20762 0.37129 0.04384 0.0
H549 H 0.21856 0.35886 0.08268 0.0
H550 H 0.20054 0.37826 1.0027 0.0
H551 H 0.21082 0.38969 0.11625 0.0
H552 H 0.14351 0.41429 0.07307 0.0
O553 O 0.23736 0.40766 0.07707 0.0
O554 O 0.21411 0.44422 0.07058 0.0
O555 O 0.17361 0.41585 0.03085 0.0
C556 C 0.23549 0.43308 0.08066 0.0
H557 H 0.24114 0.46507 0.98108 0.0
H558 H 0.16953 0.39048 0.14865 0.0
H559 H 0.21417 0.33385 0.98831 0.0
H560 H 0.23429 0.3153 0.06972 0.0
Co561 Co 0.21109 0.66611 1.0015 0.0
C562 C 0.24151 0.64038 0.04458 0.0
C563 C 0.25877 0.67826 0.03515 0.0
C564 C 0.27425 0.66617 0.05423 0.0
N565 N 0.23814 0.6621 0.02903 0.0
N566 N 0.26357 0.64223 0.05988 0.0
H567 H 0.2285 0.62319 0.04415 0.0
H568 H 0.26285 0.69745 0.02658 0.0
C569 C 0.18325 0.67538 0.05408 0.0
O570 O 0.20479 0.68811 0.06172 0.0
N571 N 0.18429 0.66957 0.97342 0.0
C572 C 0.18967 0.6779 0.94853 0.0
C573 C 0.16683 0.67677 0.93346 0.0
C574 C 0.15781 0.66377 0.97318 0.0
N575 N 0.14672 0.66797 0.9488 0.0
C576 C 0.23616 0.71524 0.98739 0.0
C577 C 0.20802 0.74945 0.01963 0.0
C578 C 0.23209 0.75844 1.00838 0.0
C579 C 0.24516 0.74119 0.99086 0.0
C580 C 0.19962 0.7229 1.01553 0.0
N581 N 0.21525 0.70533 1.00173 0.0
H582 H 0.24803 0.7027 0.9748 0.0
H583 H 0.18097 0.71666 0.02402 0.0
H584 H 0.20902 0.68428 0.94164 0.0
H585 H 0.14702 0.65623 0.99018 0.0
O586 O 0.2381 0.65859 0.97515 0.0
O587 O 0.21458 0.62725 0.99433 0.0
O588 O 0.18185 0.66591 0.03027 0.0
C589 C 0.23374 0.63348 0.97795 0.0
H590 H 0.29195 0.67448 0.06331 0.0
H591 H 0.16502 0.68234 0.91273 0.0
H592 H 0.19603 0.76253 0.03185 0.0
H593 H 0.26353 0.74686 0.98117 0.0
Co594 Co 0.39564 0.21095 1.01328 0.0
C595 C 0.42625 0.23923 0.05554 0.0
C596 C 0.38832 0.22556 0.06901 0.0
C597 C 0.40267 0.23367 0.09079 0.0
N598 N 0.40282 0.22943 0.04665 0.0
N599 N 0.42666 0.24175 0.08228 0.0
H600 H 0.4431 0.24343 0.04301 0.0
H601 H 0.36935 0.21537 0.06976 0.0
C602 C 0.38311 0.15859 0.04331 0.0
O603 O 0.36108 0.15402 0.03008 0.0
N604 N 0.38966 0.18959 0.98126 0.0
C605 C 0.37902 0.19742 0.95791 0.0
C606 C 0.37937 0.17612 0.94042 0.0
C607 C 0.39657 0.16369 0.97746 0.0
N608 N 0.39024 0.15481 0.95276 0.0
C609 C 0.35206 0.24374 0.02513 0.0
C610 C 0.31022 0.21339 1.00687 0.0
C611 C 0.3054 0.23972 1.01528 0.0
C612 C 0.3267 0.2545 0.02492 0.0
C613 C 0.33647 0.2029 1.00796 0.0
N614 N 0.35714 0.21789 0.01781 0.0
H615 H 0.36804 0.25733 0.02974 0.0
H616 H 0.34013 0.18369 0.99909 0.0
H617 H 0.3714 0.21719 0.95389 0.0
H618 H 0.40652 0.15166 0.99229 0.0
O619 O 0.40024 0.24268 0.99208 0.0
O620 O 0.43347 0.21622 1.00255 0.0
O621 O 0.39824 0.17805 0.03687 0.0
C622 C 0.42542 0.23807 0.99071 0.0
H623 H 0.39664 0.23215 0.11138 0.0
H624 H 0.37171 0.17617 0.92028 0.0
H625 H 0.29429 0.20163 0.99832 0.0
H626 H 0.32405 0.27513 0.0308 0.0
Co627 Co 0.85566 0.40664 1.01166 0.0
C628 C 0.82764 0.42768 0.05812 0.0
C629 C 0.80823 0.39259 0.04323 0.0
C630 C 0.79381 0.40221 0.06442 0.0
N631 N 0.82961 0.40842 0.03966 0.0
N632 N 0.80599 0.42435 0.07359 0.0
H633 H 0.84148 0.44408 0.05969 0.0
H634 H 0.80321 0.37561 0.03096 0.0
C635 C 0.9056 0.40253 0.04617 0.0
O636 O 0.91332 0.38196 0.03194 0.0
N637 N 0.88183 0.40568 0.98247 0.0
C638 C 0.87588 0.39975 0.95689 0.0
C639 C 0.89783 0.40375 0.94118 0.0
C640 C 0.9077 0.41387 0.98155 0.0
N641 N 0.91787 0.4125 0.95659 0.0
C642 C 0.85095 0.35141 0.99789 0.0
C643 C 0.85087 0.33291 0.0496 0.0
C644 C 0.84037 0.31652 0.02955 0.0
C645 C 0.84178 0.32561 1.00323 0.0
C646 C 0.85982 0.35861 0.04343 0.0
N647 N 0.8586 0.36815 0.01793 0.0
H648 H 0.84889 0.35876 0.97791 0.0
H649 H 0.86452 0.3718 0.05974 0.0
H650 H 0.85661 0.39353 0.94961 0.0
H651 H 0.91869 0.42168 0.99829 0.0
O652 O 0.8265 0.40553 0.98633 0.0
O653 O 0.84467 0.44275 1.00095 0.0
O654 O 0.88438 0.41523 0.03946 0.0
C655 C 0.82615 0.43138 0.98659 0.0
H656 H 0.77526 0.39418 0.07187 0.0
H657 H 0.89902 0.40047 0.91994 0.0
H658 H 0.85015 0.32677 0.07023 0.0
H659 H 0.83344 0.31399 0.9871 0.0
Co660 Co 0.66449 0.85046 0.99949 0.0
C661 C 0.63833 0.82531 0.04477 0.0
C662 C 0.66712 0.79881 0.02735 0.0
C663 C 0.65343 0.78521 0.04679 0.0
N664 N 0.65756 0.82392 0.02621 0.0
N665 N 0.63556 0.80203 0.05763 0.0
H666 H 0.62555 0.84244 0.04776 0.0
H667 H 0.68215 0.79072 1.01424 0.0
C668 C 0.67206 0.89716 0.0373 0.0
O669 O 0.69512 0.90173 0.02588 0.0
N670 N 0.67018 0.87786 0.97184 0.0
C671 C 0.67624 0.87284 0.94617 0.0
C672 C 0.67746 0.89633 0.93226 0.0
C673 C 0.66675 0.90485 0.97263 0.0
N674 N 0.67159 0.91663 0.94877 0.0
C675 C 0.71992 0.84365 0.98823 0.0
C676 C 0.7357 0.83343 0.03986 0.0
C677 C 0.75253 0.82564 0.01897 0.0
C678 C 0.74484 0.83221 0.99302 0.0
C679 C 0.71083 0.84514 0.0342 0.0
N680 N 0.7026 0.84898 1.00847 0.0
H681 H 0.71372 0.84548 0.96788 0.0
H682 H 0.6972 0.84861 0.05045 0.0
H683 H 0.6795 0.85332 0.9377 0.0
H684 H 0.65968 0.91566 0.98975 0.0
O685 O 0.66546 0.82226 0.97322 0.0
O686 O 0.62853 0.84252 0.98489 0.0
O687 O 0.65675 0.87885 0.02795 0.0
C688 C 0.63978 0.8233 0.97128 0.0
H689 H 0.65588 0.76445 0.05213 0.0
H690 H 0.68233 0.89828 0.91139 0.0
H691 H 0.74062 0.82851 0.06025 0.0
H692 H 0.75722 0.82673 0.97627 0.0
Co693 Co 0.85986 0.65909 0.05547 0.0
C694 C 0.82956 0.63664 1.01064 0.0
C695 C 0.80994 0.67111 0.02659 0.0
C696 C 0.79448 0.66084 1.0064 0.0
N697 N 0.83209 0.65611 0.02891 0.0
N698 N 0.80682 0.63914 0.99634 0.0
H699 H 0.8435 0.62028 1.00891 0.0
H700 H 0.80515 0.68805 0.03901 0.0
C701 C 0.90769 0.66488 0.01919 0.0
O702 O 0.91504 0.68519 0.03398 0.0
N703 N 0.88801 0.66093 0.08321 0.0
C704 C 0.88365 0.66765 0.10891 0.0
C705 C 0.90638 0.66368 0.12364 0.0
C706 C 0.91383 0.65219 0.08318 0.0
N707 N 0.92544 0.65408 0.1076 0.0
C708 C 0.85365 0.71407 0.06907 0.0
C709 C 0.84823 0.73182 1.01744 0.0
C710 C 0.83732 0.74733 0.03801 0.0
C711 C 0.84155 0.73875 0.06419 0.0
C712 C 0.85995 0.70706 0.02316 0.0
N713 N 0.86112 0.69765 0.0487 0.0
H714 H 0.85366 0.70696 0.08919 0.0
H715 H 0.86469 0.69414 1.00665 0.0
H716 H 0.86489 0.67416 0.11707 0.0
H717 H 0.92372 0.64365 0.06613 0.0
O718 O 0.83254 0.66053 0.08234 0.0
O719 O 0.84979 0.62294 0.06786 0.0
O720 O 0.88714 0.65121 0.026 0.0
C721 C 0.83232 0.6348 0.08313 0.0
H722 H 0.77544 0.6686 0.99987 0.0
H723 H 0.90871 0.66736 0.14473 0.0
H724 H 0.84569 0.73766 0.99687 0.0
H725 H 0.83318 0.74956 0.08082 0.0
Co726 Co 0.40274 0.85391 0.0505 0.0
C727 C 0.419 0.80782 1.0154 0.0
C728 C 0.39387 0.83589 0.99548 0.0
C729 C 0.40166 0.81711 0.97743 0.0
N730 N 0.40427 0.83015 0.01963 0.0
N731 N 0.41764 0.79958 0.9898 0.0
H732 H 0.43143 0.79833 0.03016 0.0
H733 H 0.38345 0.85381 0.99016 0.0
C734 C 0.39698 0.90756 0.01957 0.0
O735 O 0.37847 0.91622 0.03587 0.0
N736 N 0.40145 0.87839 0.08119 0.0
C737 C 0.39234 0.8721 0.10564 0.0
C738 C 0.39357 0.89418 0.12185 0.0
C739 C 0.40877 0.90447 0.08336 0.0
N740 N 0.40357 0.91468 0.10783 0.0
C741 C 0.35048 0.83741 0.06559 0.0
C742 C 0.3218 0.8567 0.02312 0.0
C743 C 0.30984 0.83736 0.0394 0.0
C744 C 0.32447 0.82856 0.06143 0.0
C745 C 0.34833 0.86461 0.02766 0.0
N746 N 0.36315 0.85388 0.04797 0.0
H747 H 0.36082 0.82893 0.08226 0.0
H748 H 0.35682 0.87793 1.01341 0.0
H749 H 0.38519 0.85274 0.11161 0.0
H750 H 0.4181 0.9158 0.06769 0.0
O751 O 0.40559 0.82351 0.07448 0.0
O752 O 0.44052 0.8444 0.05949 0.0
O753 O 0.40815 0.88485 0.02393 0.0
C754 C 0.43118 0.82507 0.07424 0.0
H755 H 0.39783 0.81768 0.95624 0.0
H756 H 0.38692 0.89528 0.14228 0.0
H757 H 0.31131 0.86464 1.00604 0.0
H758 H 0.31694 0.81321 0.07448 0.0
Co759 Co 0.67252 0.2139 0.05402 0.0
C760 C 0.65745 0.24565 1.00798 0.0
C761 C 0.68837 0.26509 0.03026 0.0
C762 C 0.67917 0.28249 1.01114 0.0
N763 N 0.67457 0.24211 0.02821 0.0
N764 N 0.65987 0.27005 0.99724 0.0
H765 H 0.6417 0.23175 1.00304 0.0
H766 H 0.70258 0.26957 0.04583 0.0
C767 C 0.6802 0.16681 1.01648 0.0
O768 O 0.69951 0.15843 0.03206 0.0
N769 N 0.6695 0.18515 0.08091 0.0
C770 C 0.67179 0.1887 0.10747 0.0
C771 C 0.66741 0.16494 0.12041 0.0
C772 C 0.66301 0.15881 0.07841 0.0
N773 N 0.66211 0.14603 0.10222 0.0
C774 C 0.72573 0.21568 0.07429 0.0
C775 C 0.74893 0.22345 0.0251 0.0
C776 C 0.76268 0.23208 0.04784 0.0
C777 C 0.75142 0.22646 0.07273 0.0
C778 C 0.72339 0.21253 0.02753 0.0
N779 N 0.71131 0.21043 0.05184 0.0
H780 H 0.71642 0.21471 0.09352 0.0
H781 H 0.71206 0.20946 1.00951 0.0
H782 H 0.6763 0.20737 0.11718 0.0
H783 H 0.65809 0.14912 0.05991 0.0
O784 O 0.67158 0.24118 0.08161 0.0
O785 O 0.63575 0.22608 0.0616 0.0
O786 O 0.66667 0.1876 0.02303 0.0
C787 C 0.6461 0.24344 0.07807 0.0
H788 H 0.68473 0.30321 1.00889 0.0
H789 H 0.6685 0.16168 0.14167 0.0
H790 H 0.75642 0.22774 1.0054 0.0
H791 H 0.7614 0.23249 0.09088 0.0
Co792 Co 0.54627 0.69945 0.88873 0.0
C793 C 0.58346 0.65251 0.89343 0.0
C794 C 0.59781 0.68037 0.86463 0.0
C795 C 0.61541 0.65933 0.86601 0.0
N796 N 0.57772 0.67655 0.88211 0.0
N797 N 0.60637 0.6417 0.88397 0.0
H798 H 0.57124 0.64297 0.90831 0.0
H799 H 0.60004 0.69734 0.85166 0.0
C800 C 0.5902 0.73447 0.91216 0.0
O801 O 0.60454 0.72863 0.89123 0.0
N802 N 0.51517 0.7208 0.89583 0.0
C803 C 0.49632 0.72831 0.87828 0.0
C804 C 0.47615 0.74079 0.89195 0.0
C805 C 0.50616 0.72839 0.91989 0.0
N806 N 0.48233 0.7408 0.9181 0.0
C807 C 0.55343 0.71374 0.83345 0.0
C808 C 0.55342 0.76819 0.84185 0.0
C809 C 0.55179 0.75874 0.81571 0.0
C810 C 0.5525 0.73112 0.81152 0.0
C811 C 0.5545 0.7503 0.86306 0.0
N812 N 0.55443 0.72334 0.85893 0.0
H813 H 0.55211 0.69251 0.83004 0.0
H814 H 0.55298 0.75833 0.88286 0.0
H815 H 0.49699 0.72452 0.85712 0.0
H816 H 0.51636 0.72389 0.93831 0.0
O817 O 0.52371 0.67435 0.86956 0.0
O818 O 0.53116 0.67246 0.91261 0.0
O819 O 0.56721 0.72344 0.91513 0.0
C820 C 0.51819 0.66305 0.89207 0.0
H821 H 0.63324 0.65685 0.8542 0.0
H822 H 0.45826 0.74921 0.8833 0.0
H823 H 0.55237 0.78937 0.84597 0.0
H824 H 0.55071 0.72303 0.79163 0.0
Co825 Co 0.3628 0.54233 0.90458 0.0
C826 C 0.40692 0.58217 0.89324 0.0
C827 C 0.38312 0.5921 0.92702 0.0
C828 C 0.4049 0.60851 0.92682 0.0
N829 N 0.38359 0.57571 0.9057 0.0
N830 N 0.42027 0.60227 0.90586 0.0
H831 H 0.41513 0.57089 0.87685 0.0
H832 H 0.36939 0.59063 0.94343 0.0
C833 C 0.32143 0.58136 0.92318 0.0
O834 O 0.3298 0.59596 0.90317 0.0
N835 N 0.34396 0.50878 0.905 0.0
C836 C 0.34366 0.49025 0.8856 0.0
C837 C 0.33278 0.46713 0.89559 0.0
C838 C 0.33359 0.49673 0.92651 0.0
N839 N 0.3265 0.47126 0.92134 0.0
C840 C 0.35438 0.55487 0.84799 0.0
C841 C 0.29981 0.54723 0.85027 0.0
C842 C 0.31163 0.54861 0.8252 0.0
C843 C 0.33928 0.55346 0.82414 0.0
C844 C 0.31541 0.54789 0.87314 0.0
N845 N 0.34245 0.55161 0.87222 0.0
H846 H 0.37581 0.55668 0.84687 0.0
H847 H 0.30562 0.54307 0.89158 0.0
H848 H 0.3519 0.49299 0.86594 0.0
H849 H 0.33182 0.5063 0.94572 0.0
O850 O 0.39264 0.52391 0.88836 0.0
O851 O 0.3864 0.52759 0.93169 0.0
O852 O 0.33334 0.55912 0.92808 0.0
C853 C 0.40021 0.51737 0.91223 0.0
H854 H 0.40985 0.62297 0.94203 0.0
H855 H 0.33062 0.4485 0.88497 0.0
H856 H 0.27861 0.54365 0.85222 0.0
H857 H 0.34934 0.5545 0.80515 0.0
Co858 Co 0.50942 0.35384 0.91419 0.0
C859 C 0.55715 0.32797 0.93582 0.0
C860 C 0.53871 0.30386 0.90575 0.0
C861 C 0.56042 0.2904 0.91565 0.0
N862 N 0.53691 0.32744 0.91836 0.0
N863 N 0.57208 0.30559 0.93458 0.0
H864 H 0.56047 0.34444 0.94907 0.0
H865 H 0.52503 0.29685 0.89065 0.0
C866 C 0.54304 0.40383 0.90848 0.0
O867 O 0.52846 0.40985 0.88759 0.0
N868 N 0.48065 0.38035 0.91053 0.0
C869 C 0.45575 0.37514 0.9016 0.0
C870 C 0.44035 0.39775 0.90343 0.0
C871 C 0.4795 0.40627 0.91855 0.0
N872 N 0.45528 0.41731 0.91392 0.0
C873 C 0.4994 0.34491 0.8588 0.0
C874 C 0.55256 0.3445 0.84466 0.0
C875 C 0.53417 0.33167 0.82807 0.0
C876 C 0.50709 0.33325 0.83471 0.0
C877 C 0.54412 0.35559 0.86869 0.0
N878 N 0.51792 0.3546 0.87623 0.0
H879 H 0.47892 0.34292 0.86469 0.0
H880 H 0.55937 0.36157 0.88261 0.0
H881 H 0.44869 0.356 0.89476 0.0
H882 H 0.4956 0.41681 0.92819 0.0
O883 O 0.48362 0.32505 0.91314 0.0
O884 O 0.49701 0.34448 0.95014 0.0
O885 O 0.53708 0.38306 0.92227 0.0
C886 C 0.48305 0.32557 0.93888 0.0
H887 H 0.5667 0.27064 0.90971 0.0
H888 H 0.41971 0.39973 0.89745 0.0
H889 H 0.57369 0.34374 0.84036 0.0
H890 H 0.49216 0.32314 0.82286 0.0
Co891 Co 0.7105 0.50693 0.90121 0.0
C892 C 0.74089 0.55242 0.92193 0.0
C893 C 0.75742 0.53866 0.88513 0.0
C894 C 0.7736 0.5584 0.89517 0.0
N895 N 0.73673 0.53518 0.90178 0.0
N896 N 0.76346 0.56672 0.91861 0.0
H897 H 0.72845 0.55328 0.93946 0.0
H898 H 0.76112 0.52703 0.86741 0.0
C899 C 0.66011 0.53953 0.892 0.0
O900 O 0.65313 0.52244 0.87345 0.0
N901 N 0.68418 0.47763 0.90168 0.0
C902 C 0.68999 0.4517 0.89704 0.0
C903 C 0.66775 0.43632 0.901 0.0
C904 C 0.65813 0.4772 0.90935 0.0
N905 N 0.64766 0.45225 0.90868 0.0
C906 C 0.71949 0.488 0.84848 0.0
C907 C 0.71556 0.53667 0.82337 0.0
C908 C 0.72911 0.51591 0.81024 0.0
C909 C 0.72979 0.49098 0.82287 0.0
C910 C 0.70655 0.53315 0.84951 0.0
N911 N 0.70942 0.5092 0.86224 0.0
H912 H 0.72289 0.46927 0.85825 0.0
H913 H 0.70016 0.55061 0.86029 0.0
H914 H 0.70933 0.44393 0.89181 0.0
H915 H 0.64714 0.49437 0.91623 0.0
O916 O 0.73941 0.48145 0.9038 0.0
O917 O 0.71978 0.4994 0.93861 0.0
O918 O 0.68155 0.53557 0.90548 0.0
C919 C 0.73857 0.4839 0.92938 0.0
H920 H 0.79159 0.56571 0.88593 0.0
H921 H 0.66638 0.41495 0.89831 0.0
H922 H 0.71408 0.55629 0.81455 0.0
H923 H 0.74063 0.47437 0.81449 0.0
Co924 Co 0.56026 0.35696 0.15407 0.0
C925 C 0.52464 0.30944 0.14394 0.0
C926 C 0.52403 0.34015 0.11407 0.0
C927 C 0.5075 0.32027 0.10596 0.0
N928 N 0.5348 0.33356 0.13774 0.0
N929 N 0.50789 0.30111 0.12459 0.0
H930 H 0.52911 0.29847 0.16193 0.0
H931 H 0.5281 0.35839 0.10338 0.0
C932 C 0.52352 0.40417 0.16545 0.0
O933 O 0.53495 0.40683 0.18877 0.0
N934 N 0.58586 0.38315 0.16838 0.0
C935 C 0.58924 0.39092 0.19393 0.0
C936 C 0.60585 0.41252 0.19493 0.0
C937 C 0.60035 0.40118 0.15416 0.0
N938 N 0.61306 0.41905 0.17004 0.0
C939 C 0.56583 0.33559 0.20589 0.0
C940 C 0.5128 0.33219 0.21961 0.0
C941 C 0.53193 0.32012 0.23637 0.0
C942 C 0.55876 0.32298 0.22944 0.0
C943 C 0.52093 0.34575 0.19635 0.0
N944 N 0.54732 0.34723 0.18965 0.0
H945 H 0.58667 0.33589 0.2006 0.0
H946 H 0.50592 0.35339 0.18291 0.0
H947 H 0.57878 0.3834 0.211 0.0
H948 H 0.60107 0.40167 0.13268 0.0
O949 O 0.5871 0.32906 0.15285 0.0
O950 O 0.57924 0.35571 0.11928 0.0
O951 O 0.53229 0.38654 0.14907 0.0
C952 C 0.59177 0.33467 0.12836 0.0
H953 H 0.49557 0.31998 0.08799 0.0
H954 H 0.61114 0.42353 0.21269 0.0
H955 H 0.49174 0.33 0.22355 0.0
H956 H 0.57444 0.31463 0.24169 0.0
Co957 Co 0.70377 0.55041 0.163 0.0
C958 C 0.65442 0.58541 0.17179 0.0
C959 C 0.67523 0.59282 0.13547 0.0
C960 C 0.65255 0.60796 0.13556 0.0
N961 N 0.67723 0.57904 0.15839 0.0
N962 N 0.63899 0.60335 0.15818 0.0
H963 H 0.64844 0.57589 0.19009 0.0
H964 H 0.68861 0.59096 0.1188 0.0
C965 C 0.73862 0.59343 0.13971 0.0
O966 O 0.72706 0.60949 0.15681 0.0
N967 N 0.72941 0.52195 0.16562 0.0
C968 C 0.73753 0.50769 0.18687 0.0
C969 C 0.75549 0.48867 0.17829 0.0
C970 C 0.74232 0.51164 0.14468 0.0
N971 N 0.75858 0.49154 0.15181 0.0
C972 C 0.7066 0.56602 0.218 0.0
C973 C 0.76157 0.56813 0.21936 0.0
C974 C 0.74801 0.564 0.2433 0.0
C975 C 0.72002 0.56441 0.2426 0.0
C976 C 0.74761 0.56873 0.19538 0.0
N977 N 0.7204 0.56652 0.19457 0.0
H978 H 0.68524 0.56355 0.21777 0.0
H979 H 0.75936 0.56694 0.17759 0.0
H980 H 0.73056 0.51058 0.207 0.0
H981 H 0.73904 0.51813 0.12442 0.0
O982 O 0.67822 0.52838 0.18135 0.0
O983 O 0.68349 0.52805 0.13785 0.0
O984 O 0.73017 0.56934 0.13788 0.0
C985 C 0.67215 0.51756 0.15873 0.0
H986 H 0.64622 0.62094 0.11957 0.0
H987 H 0.76528 0.47377 0.19043 0.0
H988 H 0.78315 0.56815 0.21883 0.0
H989 H 0.70859 0.56109 0.26052 0.0
Co990 Co 0.50992 0.71197 0.16315 0.0
C991 C 0.54575 0.75647 0.14464 0.0
C992 C 0.5677 0.72367 0.16048 0.0
C993 C 0.58539 0.74151 0.15019 0.0
N994 N 0.54252 0.73299 0.15766 0.0
N995 N 0.57165 0.76196 0.13987 0.0
H996 H 0.52972 0.76843 0.13677 0.0
H997 H 0.57334 0.70402 0.16705 0.0
C998 C 0.53936 0.66065 0.17779 0.0
O999 O 0.52641 0.65973 0.20043 0.0
N1000 N 0.4775 0.68971 0.16725 0.0
C1001 C 0.45248 0.69908 0.17046 0.0
C1002 C 0.4346 0.67846 0.16906 0.0
C1003 C 0.47395 0.66296 0.16312 0.0
N1004 N 0.44783 0.65558 0.16435 0.0
C1005 C 0.4939 0.72757 0.21547 0.0
C1006 C 0.54406 0.72951 0.23778 0.0
C1007 C 0.52368 0.74445 0.24976 0.0
C1008 C 0.49792 0.74148 0.23926 0.0
C1009 C 0.53888 0.71477 0.21454 0.0
N1010 N 0.51449 0.71573 0.20219 0.0
H1011 H 0.47452 0.72895 0.20657 0.0
H1012 H 0.55523 0.70414 0.20594 0.0
H1013 H 0.44704 0.71979 0.17265 0.0
H1014 H 0.48978 0.64936 0.15787 0.0
O1015 O 0.48809 0.74385 0.1588 0.0
O1016 O 0.50011 0.71856 0.1253 0.0
O1017 O 0.53317 0.67838 0.16037 0.0
C1018 C 0.48725 0.73977 0.13344 0.0
H1019 H 0.60646 0.73796 0.14721 0.0
H1020 H 0.41319 0.68033 0.17086 0.0
H1021 H 0.56437 0.73062 0.24492 0.0
H1022 H 0.48112 0.75169 0.24813 0.0
Co1023 Co 0.355 0.50746 0.16002 0.0
C1024 C 0.32537 0.55071 0.13454 0.0
C1025 C 0.30684 0.54102 0.17162 0.0
C1026 C 0.29188 0.56037 0.15911 0.0
N1027 N 0.32806 0.53513 0.15626 0.0
N1028 N 0.30358 0.56647 0.13579 0.0
H1029 H 0.33864 0.54957 0.11769 0.0
H1030 H 0.30186 0.53179 0.19027 0.0
C1031 C 0.38291 0.56059 0.16526 0.0
O1032 O 0.36202 0.56812 0.17901 0.0
N1033 N 0.38177 0.47904 0.16296 0.0
C1034 C 0.37634 0.45421 0.17166 0.0
C1035 C 0.399 0.43885 0.17032 0.0
C1036 C 0.40822 0.47846 0.15684 0.0
N1037 N 0.41909 0.4539 0.16098 0.0
C1038 C 0.33289 0.49673 0.21103 0.0
C1039 C 0.36631 0.52704 0.24224 0.0
C1040 C 0.34302 0.51642 0.25365 0.0
C1041 C 0.32705 0.50015 0.23772 0.0
C1042 C 0.37166 0.5228 0.21499 0.0
N1043 N 0.35369 0.50966 0.19918 0.0
H1044 H 0.31893 0.48505 0.19982 0.0
H1045 H 0.38989 0.53059 0.20684 0.0
H1046 H 0.35711 0.44754 0.17861 0.0
H1047 H 0.41917 0.49538 0.14925 0.0
O1048 O 0.32706 0.48111 0.15592 0.0
O1049 O 0.34791 0.4985 0.12198 0.0
O1050 O 0.38449 0.53632 0.15677 0.0
C1051 C 0.32877 0.48308 0.13054 0.0
H1052 H 0.27365 0.56913 0.16656 0.0
H1053 H 0.40072 0.41814 0.17616 0.0
H1054 H 0.38003 0.53876 0.25406 0.0
H1055 H 0.30892 0.49128 0.24528 0.0
Co1056 Co 0.90573 0.55346 0.70893 0.0
C1057 C 0.9154 0.50915 0.74914 0.0
C1058 C 0.94895 0.51938 0.72493 0.0
C1059 C 0.95577 0.49779 0.74003 0.0
N1060 N 0.92376 0.52695 0.73067 0.0
N1061 N 0.93468 0.49142 0.75501 0.0
H1062 H 0.89571 0.508 0.7575 0.0
H1063 H 0.9613 0.52821 0.70973 0.0
C1064 C 0.89976 0.52108 0.65614 0.0
O1065 O 0.88429 0.5389 0.64482 0.0
N1066 N 0.88911 0.57985 0.68537 0.0
C1067 C 0.86429 0.5896 0.68791 0.0
C1068 C 0.85878 0.60596 0.66677 0.0
C1069 C 0.89876 0.59156 0.66289 0.0
N1070 N 0.8805 0.60785 0.651 0.0
C1071 C 0.86448 0.54548 0.74608 0.0
C1072 C 0.82516 0.52513 0.7136 0.0
C1073 C 0.81892 0.53141 0.74017 0.0
C1074 C 0.83939 0.54088 0.75643 0.0
C1075 C 0.85124 0.52958 0.70394 0.0
N1076 N 0.87055 0.54015 0.72013 0.0
H1077 H 0.87936 0.55299 0.75961 0.0
H1078 H 0.85517 0.52576 0.68331 0.0
H1079 H 0.85062 0.58485 0.70376 0.0
H1080 H 0.91853 0.58782 0.6552 0.0
O1081 O 0.90841 0.58018 0.7367 0.0
O1082 O 0.94043 0.57301 0.70822 0.0
O1083 O 0.90928 0.52541 0.67945 0.0
C1084 C 0.93247 0.5852 0.72981 0.0
H1085 H 0.97461 0.48726 0.73983 0.0
H1086 H 0.83948 0.61473 0.66303 0.0
H1087 H 0.80993 0.51782 0.7002 0.0
H1088 H 0.83601 0.54514 0.77728 0.0
Co1089 Co 0.50279 0.92728 0.70404 0.0
C1090 C 0.55476 0.94231 0.72917 0.0
C1091 C 0.5272 0.97477 0.7282 0.0
C1092 C 0.55122 0.98434 0.73642 0.0
N1093 N 0.52878 0.94814 0.72426 0.0
N1094 N 0.56869 0.96407 0.73687 0.0
H1095 H 0.56374 0.92307 0.72544 0.0
H1096 H 0.51071 0.98746 0.72319 0.0
C1097 C 0.53516 0.9183 0.65243 0.0
O1098 O 0.51827 0.90056 0.64331 0.0
N1099 N 0.4768 0.90884 0.68151 0.0
C1100 C 0.46232 0.88698 0.68717 0.0
C1101 C 0.44462 0.88236 0.66651 0.0
C1102 C 0.46709 0.91759 0.65779 0.0
N1103 N 0.44761 0.90161 0.64796 0.0
C1104 C 0.52225 0.89257 0.74326 0.0
C1105 C 0.53022 0.84688 0.71388 0.0
C1106 C 0.5326 0.84565 0.74173 0.0
C1107 C 0.52926 0.86915 0.75616 0.0
C1108 C 0.52333 0.87123 0.70147 0.0
N1109 N 0.51925 0.89381 0.71625 0.0
H1110 H 0.51818 0.9098 0.75548 0.0
H1111 H 0.5197 0.87119 0.68043 0.0
H1112 H 0.46427 0.87533 0.70516 0.0
H1113 H 0.47409 0.93545 0.64797 0.0
O1114 O 0.47751 0.9276 0.73305 0.0
O1115 O 0.47923 0.9596 0.70369 0.0
O1116 O 0.52962 0.93162 0.67355 0.0
C1117 C 0.46893 0.95053 0.72588 0.0
H1118 H 0.55564 1.00492 0.74118 0.0
H1119 H 0.43082 0.86586 0.66514 0.0
H1120 H 0.53222 0.82899 0.702 0.0
H1121 H 0.53098 0.86925 0.77764 0.0
Co1122 Co 0.15226 0.50278 0.70176 0.0
C1123 C 0.14268 0.54129 0.74786 0.0
C1124 C 0.11772 0.5461 0.71339 0.0
C1125 C 0.11019 0.56454 0.73168 0.0
N1126 N 0.13833 0.53176 0.723 0.0
N1127 N 0.12577 0.56168 0.75319 0.0
H1128 H 0.1575 0.53362 0.76152 0.0
H1129 H 0.10825 0.5429 0.69433 0.0
C1130 C 0.16752 0.53669 0.6547 0.0
O1131 O 0.19065 0.52445 0.65419 0.0
N1132 N 0.1628 0.47334 0.67765 0.0
C1133 C 0.16827 0.44787 0.68458 0.0
C1134 C 0.16811 0.43187 0.66223 0.0
C1135 C 0.15859 0.4719 0.65082 0.0
N1136 N 0.16195 0.44693 0.64094 0.0
C1137 C 0.20777 0.49463 0.71457 0.0
C1138 C 0.21835 0.54646 0.7297 0.0
C1139 C 0.23584 0.52626 0.73828 0.0
C1140 C 0.23121 0.50045 0.72852 0.0
C1141 C 0.19554 0.53994 0.71457 0.0
N1142 N 0.18941 0.51392 0.70881 0.0
H1143 H 0.2037 0.47406 0.71043 0.0
H1144 H 0.18168 0.55567 0.70955 0.0
H1145 H 0.17115 0.44093 0.70472 0.0
H1146 H 0.15133 0.48823 0.63886 0.0
O1147 O 0.14993 0.47893 0.73189 0.0
O1148 O 0.11623 0.48681 0.70494 0.0
O1149 O 0.14918 0.52844 0.67038 0.0
C1150 C 0.12505 0.47519 0.72658 0.0
H1151 H 0.09413 0.57885 0.72964 0.0
H1152 H 0.17169 0.41059 0.66179 0.0
H1153 H 0.2212 0.56687 0.73609 0.0
H1154 H 0.24476 0.48429 0.73313 0.0
Co1155 Co 0.54709 0.16689 0.70637 0.0
C1156 C 0.57968 0.16082 0.65584 0.0
C1157 C 0.60252 0.1782 0.68735 0.0
C1158 C 0.61852 0.176 0.66526 0.0
N1159 N 0.57805 0.16834 0.68193 0.0
N1160 N 0.60427 0.16519 0.64533 0.0
H1161 H 0.56329 0.15242 0.64464 0.0
H1162 H 0.60841 0.18774 0.70561 0.0
C1163 C 0.58607 0.14141 0.74608 0.0
O1164 O 0.60104 0.16272 0.74491 0.0
N1165 N 0.51643 0.16498 0.72951 0.0
C1166 C 0.50028 0.18508 0.73707 0.0
C1167 C 0.47976 0.17467 0.75191 0.0
C1168 C 0.50542 0.14266 0.73947 0.0
N1169 N 0.48296 0.14802 0.75317 0.0
C1170 C 0.56384 0.2208 0.7148 0.0
C1171 C 0.55854 0.21998 0.76949 0.0
C1172 C 0.56087 0.24463 0.75667 0.0
C1173 C 0.56445 0.24483 0.72902 0.0
C1174 C 0.55781 0.19654 0.7546 0.0
N1175 N 0.56003 0.19701 0.72748 0.0
H1176 H 0.56457 0.22146 0.69333 0.0
H1177 H 0.55304 0.17824 0.76482 0.0
H1178 H 0.50307 0.20581 0.73185 0.0
H1179 H 0.51361 0.12292 0.73652 0.0
O1180 O 0.52617 0.1877 0.68184 0.0
O1181 O 0.5272 0.1438 0.68143 0.0
O1182 O 0.56555 0.13905 0.73075 0.0
C1183 C 0.51633 0.16577 0.67245 0.0
H1184 H 0.63889 0.18287 0.66362 0.0
H1185 H 0.46331 0.1857 0.76041 0.0
H1186 H 0.55525 0.2189 0.79074 0.0
H1187 H 0.56653 0.26345 0.71835 0.0
Co1188 Co 0.90137 0.51202 0.36191 0.0
C1189 C 0.91652 0.54642 0.31485 0.0
C1190 C 0.90231 0.56936 0.34764 0.0
C1191 C 0.91017 0.58659 0.32822 0.0
N1192 N 0.90562 0.54385 0.33942 0.0
N1193 N 0.9192 0.57225 0.3077 0.0
H1194 H 0.92398 0.53014 0.30296 0.0
H1195 H 0.89664 0.57574 0.36723 0.0
C1196 C 0.89216 0.54314 0.41355 0.0
O1197 O 0.87029 0.52948 0.41797 0.0
N1198 N 0.89813 0.48029 0.38543 0.0
C1199 C 0.89391 0.45496 0.37722 0.0
C1200 C 0.8948 0.43789 0.39866 0.0
C1201 C 0.9021 0.47774 0.41223 0.0
N1202 N 0.89978 0.45209 0.42082 0.0
C1203 C 0.84834 0.49759 0.34801 0.0
C1204 C 0.82726 0.54835 0.34941 0.0
C1205 C 0.81516 0.52944 0.33277 0.0
C1206 C 0.8249 0.50324 0.33394 0.0
C1207 C 0.85035 0.54163 0.36375 0.0
N1208 N 0.86227 0.51719 0.36083 0.0
H1209 H 0.85676 0.478 0.34577 0.0
H1210 H 0.85942 0.55711 0.37528 0.0
H1211 H 0.89081 0.44883 0.35687 0.0
H1212 H 0.90767 0.49393 0.42522 0.0
O1213 O 0.90306 0.48918 0.33066 0.0
O1214 O 0.93855 0.50152 0.35295 0.0
O1215 O 0.90723 0.53663 0.39398 0.0
C1216 C 0.9287 0.48827 0.33276 0.0
H1217 H 0.91179 0.60804 0.33012 0.0
H1218 H 0.89186 0.41653 0.398 0.0
H1219 H 0.82048 0.56883 0.34972 0.0
H1220 H 0.81579 0.48759 0.32221 0.0
Co1221 Co 0.53933 0.91678 0.36566 0.0
C1222 C 0.581 0.90791 0.40839 0.0
C1223 C 0.58552 0.9445 0.38706 0.0
C1224 C 0.60274 0.94473 0.40824 0.0
N1225 N 0.57214 0.92121 0.38645 0.0
N1226 N 0.59998 0.92187 0.42201 0.0
H1227 H 0.5728 0.88913 0.41491 0.0
H1228 H 0.5815 0.96132 0.37426 0.0
C1229 C 0.57815 0.9374 0.32468 0.0
O1230 O 0.59404 0.91934 0.33509 0.0
N1231 N 0.50622 0.91373 0.3467 0.0
C1232 C 0.48912 0.89305 0.34765 0.0
C1233 C 0.46472 0.90148 0.33832 0.0
C1234 C 0.49216 0.93434 0.33705 0.0
N1235 N 0.46661 0.92757 0.33211 0.0
C1236 C 0.55344 0.86065 0.36074 0.0
C1237 C 0.54871 0.85989 0.30598 0.0
C1238 C 0.54876 0.83546 0.31936 0.0
C1239 C 0.55212 0.83598 0.34718 0.0
C1240 C 0.54896 0.88371 0.32013 0.0
N1241 N 0.55116 0.88425 0.34728 0.0
H1242 H 0.55378 0.86063 0.3822 0.0
H1243 H 0.54448 0.90152 0.30904 0.0
H1244 H 0.49365 0.8737 0.35597 0.0
H1245 H 0.50049 0.95402 0.33433 0.0
O1246 O 0.52193 0.90035 0.39609 0.0
O1247 O 0.52199 0.94352 0.3883 0.0
O1248 O 0.55479 0.94039 0.33507 0.0
C1249 C 0.51313 0.92377 0.40272 0.0
H1250 H 0.61498 0.96148 0.41416 0.0
H1251 H 0.4468 0.88958 0.33691 0.0
H1252 H 0.54632 0.86075 0.28458 0.0
H1253 H 0.5518 0.81769 0.35857 0.0
Co1254 Co 0.17712 0.55308 0.3529 0.0
C1255 C 0.15651 0.51928 0.3085 0.0
C1256 C 0.18877 0.50069 0.32905 0.0
C1257 C 0.17779 0.4824 0.31204 0.0
N1258 N 0.17552 0.52406 0.32703 0.0
N1259 N 0.1573 0.49401 0.29925 0.0
H1260 H 0.14093 0.53306 0.30326 0.0
H1261 H 0.20321 0.49567 0.344 0.0
C1262 C 0.18404 0.51986 0.40434 0.0
O1263 O 0.20041 0.53762 0.41444 0.0
N1264 N 0.17864 0.58195 0.37923 0.0
C1265 C 0.19011 0.60591 0.37506 0.0
C1266 C 0.18737 0.62143 0.39742 0.0
C1267 C 0.16854 0.5836 0.40427 0.0
N1268 N 0.174 0.60742 0.41585 0.0
C1269 C 0.2284 0.56906 0.334 0.0
C1270 C 0.25939 0.52926 0.35545 0.0
C1271 C 0.2705 0.54544 0.33557 0.0
C1272 C 0.25466 0.56611 0.32561 0.0
C1273 C 0.23261 0.53259 0.363 0.0
N1274 N 0.21674 0.55164 0.35142 0.0
H1275 H 0.21724 0.58469 0.32459 0.0
H1276 H 0.22472 0.51796 0.37628 0.0
H1277 H 0.19979 0.61199 0.35693 0.0
H1278 H 0.15737 0.56789 0.41385 0.0
O1279 O 0.17235 0.57927 0.32487 0.0
O1280 O 0.13875 0.56142 0.34585 0.0
O1281 O 0.17338 0.52403 0.3815 0.0
C1282 C 0.14688 0.57789 0.32743 0.0
H1283 H 0.18248 0.46135 0.31169 0.0
H1284 H 0.19507 0.6414 0.40017 0.0
H1285 H 0.27074 0.513 0.36398 0.0
H1286 H 0.26152 0.57886 0.30971 0.0
Co1287 Co 0.50386 0.16189 0.35553 0.0
C1288 C 0.54216 0.14482 0.31284 0.0
C1289 C 0.56059 0.16854 0.34281 0.0
C1290 C 0.58013 0.15788 0.32757 0.0
N1291 N 0.53632 0.16084 0.33384 0.0
N1292 N 0.56875 0.14255 0.30895 0.0
H1293 H 0.5276 0.13383 0.3015 0.0
H1294 H 0.56499 0.17782 0.36146 0.0
C1295 C 0.53647 0.17121 0.407 0.0
O1296 O 0.52317 0.19305 0.41267 0.0
N1297 N 0.47214 0.16166 0.37879 0.0
C1298 C 0.44633 0.1621 0.37102 0.0
C1299 C 0.43005 0.16039 0.39297 0.0
C1300 C 0.47082 0.15914 0.40573 0.0
N1301 N 0.44542 0.15847 0.41485 0.0
C1302 C 0.48281 0.21274 0.34291 0.0
C1303 C 0.53008 0.24036 0.34343 0.0
C1304 C 0.50956 0.24934 0.32671 0.0
C1305 C 0.48503 0.23634 0.3282 0.0
C1306 C 0.52675 0.2169 0.35832 0.0
N1307 N 0.50437 0.20152 0.35544 0.0
H1308 H 0.46443 0.2019 0.34109 0.0
H1309 H 0.5429 0.21096 0.37087 0.0
H1310 H 0.43944 0.16359 0.35075 0.0
H1311 H 0.4878 0.1569 0.41865 0.0
O1312 O 0.4817 0.15947 0.32397 0.0
O1313 O 0.49623 0.12417 0.34496 0.0
O1314 O 0.52891 0.15653 0.38746 0.0
C1315 C 0.48225 0.13384 0.32515 0.0
H1316 H 0.60126 0.15896 0.33183 0.0
H1317 H 0.4085 0.16103 0.39283 0.0
H1318 H 0.54908 0.25056 0.34388 0.0
H1319 H 0.46842 0.24275 0.31598 0.0
Co1320 Co 0.70475 0.91479 0.55622 0.0
C1321 C 0.75033 0.9154 0.51701 0.0
C1322 C 0.72149 0.94692 0.51275 0.0
C1323 C 0.74042 0.95023 0.4937 0.0
N1324 N 0.72733 0.92504 0.52715 0.0
N1325 N 0.75833 0.93048 0.49628 0.0
H1326 H 0.76065 0.89789 0.52428 0.0
H1327 H 0.70451 0.95977 0.51607 0.0
C1328 C 0.65517 0.90483 0.52311 0.0
O1329 O 0.65204 0.88213 0.53575 0.0
N1330 N 0.6801 0.90729 0.58573 0.0
C1331 C 0.68647 0.90065 0.61102 0.0
C1332 C 0.66399 0.90218 0.62675 0.0
C1333 C 0.65372 0.91358 0.58696 0.0
N1334 N 0.6434 0.91026 0.61156 0.0
C1335 C 0.71511 0.85934 0.56465 0.0
C1336 C 0.719 0.8455 0.51164 0.0
C1337 C 0.72944 0.82804 0.53085 0.0
C1338 C 0.72611 0.8347 0.55768 0.0
C1339 C 0.70795 0.86998 0.51948 0.0
N1340 N 0.70713 0.87719 0.54574 0.0
H1341 H 0.71551 0.86493 0.58528 0.0
H1342 H 0.70229 0.88405 0.50421 0.0
H1343 H 0.70632 0.89614 0.61806 0.0
H1344 H 0.64243 0.92214 0.5708 0.0
O1345 O 0.73535 0.91414 0.57984 0.0
O1346 O 0.71239 0.95051 0.57136 0.0
O1347 O 0.67344 0.92115 0.53067 0.0
C1348 C 0.73312 0.93958 0.58293 0.0
H1349 H 0.74112 0.96593 0.47894 0.0
H1350 H 0.66297 0.89816 0.64787 0.0
H1351 H 0.72081 0.84103 0.49066 0.0
H1352 H 0.73402 0.82198 0.5732 0.0
Co1353 Co 0.70384 0.15075 0.50804 0.0
C1354 C 0.75018 0.14394 0.5465 0.0
C1355 C 0.71533 0.12054 0.55484 0.0
C1356 C 0.7338 0.11523 0.57392 0.0
N1357 N 0.72502 0.13901 0.53798 0.0
N1358 N 0.75557 0.12987 0.56887 0.0
H1359 H 0.76414 0.15694 0.5365 0.0
H1360 H 0.69629 0.11071 0.55287 0.0
C1361 C 0.65561 0.16585 0.54186 0.0
O1362 O 0.65532 0.18937 0.53041 0.0
N1363 N 0.68022 0.16001 0.47781 0.0
C1364 C 0.68752 0.16329 0.45214 0.0
C1365 C 0.66512 0.16482 0.43626 0.0
C1366 C 0.65306 0.15894 0.47669 0.0
N1367 N 0.64344 0.1621 0.45168 0.0
C1368 C 0.71833 0.20465 0.49712 0.0
C1369 C 0.72829 0.21967 0.54892 0.0
C1370 C 0.73923 0.23512 0.52826 0.0
C1371 C 0.73276 0.22796 0.50214 0.0
C1372 C 0.71374 0.19639 0.54302 0.0
N1373 N 0.70998 0.18838 0.51726 0.0
H1374 H 0.71645 0.19847 0.47675 0.0
H1375 H 0.70745 0.18374 0.55923 0.0
H1376 H 0.70781 0.16377 0.44504 0.0
H1377 H 0.64039 0.15425 0.49332 0.0
O1378 O 0.73458 0.14843 0.48504 0.0
O1379 O 0.70889 0.11409 0.493 0.0
O1380 O 0.6716 0.14772 0.53327 0.0
C1381 C 0.73034 0.12337 0.48138 0.0
H1382 H 0.73201 0.10061 0.58967 0.0
H1383 H 0.66481 0.1673 0.41488 0.0
H1384 H 0.7321 0.22473 0.56951 0.0
H1385 H 0.74071 0.23904 0.48547 0.0
Co1386 Co 0.89451 0.71216 0.51455 0.0
C1387 C 0.90878 0.75999 0.5483 0.0
C1388 C 0.89285 0.728 0.57109 0.0
C1389 C 0.90176 0.7469 0.58827 0.0
N1390 N 0.89656 0.73595 0.54567 0.0
N1391 N 0.91245 0.76683 0.57413 0.0
H1392 H 0.91664 0.77149 0.53199 0.0
H1393 H 0.88648 0.70867 0.57751 0.0
C1394 C 0.87993 0.66354 0.54852 0.0
O1395 O 0.85724 0.66184 0.53562 0.0
N1396 N 0.89413 0.68716 0.48396 0.0
C1397 C 0.89681 0.69381 0.45802 0.0
C1398 C 0.89878 0.67108 0.4428 0.0
C1399 C 0.89488 0.65995 0.48378 0.0
N1400 N 0.89767 0.64975 0.45894 0.0
C1401 C 0.84342 0.72151 0.49151 0.0
C1402 C 0.8166 0.73108 0.53828 0.0
C1403 C 0.80641 0.74205 0.51476 0.0
C1404 C 0.81921 0.73542 0.49094 0.0
C1405 C 0.84078 0.71707 0.5379 0.0
N1406 N 0.85513 0.71404 0.51499 0.0
H1407 H 0.85405 0.71963 0.47307 0.0
H1408 H 0.84846 0.7105 0.55645 0.0
H1409 H 0.89753 0.71387 0.4503 0.0
H1410 H 0.89459 0.6476 0.50129 0.0
O1411 O 0.89778 0.74237 0.49095 0.0
O1412 O 0.93253 0.72114 0.50648 0.0
O1413 O 0.8976 0.68054 0.54092 0.0
C1414 C 0.92338 0.74062 0.49164 0.0
H1415 H 0.90342 0.74448 0.60961 0.0
H1416 H 0.90084 0.6703 0.42139 0.0
H1417 H 0.80719 0.73506 0.55722 0.0
H1418 H 0.81161 0.74257 0.47207 0.0
Co1419 Co 0.3464 0.90803 0.50735 0.0
C1420 C 0.31589 0.92198 0.55503 0.0
C1421 C 0.29735 0.88986 0.53368 0.0
C1422 C 0.28202 0.89577 0.55552 0.0
N1423 N 0.31871 0.90608 0.5337 0.0
N1424 N 0.29372 0.91595 0.56893 0.0
H1425 H 0.32916 0.93837 0.55942 0.0
H1426 H 0.29312 0.87497 0.5187 0.0
C1427 C 0.39441 0.90064 0.54456 0.0
O1428 O 0.40364 0.88195 0.52876 0.0
N1429 N 0.37445 0.91074 0.47977 0.0
C1430 C 0.36994 0.90777 0.4534 0.0
C1431 C 0.39294 0.91249 0.43945 0.0
C1432 C 0.40069 0.91794 0.48114 0.0
N1433 N 0.41233 0.9188 0.45675 0.0
C1434 C 0.34315 0.85467 0.48699 0.0
C1435 C 0.33918 0.83058 0.5362 0.0
C1436 C 0.32988 0.81663 0.51384 0.0
C1437 C 0.33339 0.82856 0.48885 0.0
C1438 C 0.34907 0.85657 0.53345 0.0
N1439 N 0.34954 0.869 0.50922 0.0
H1440 H 0.34266 0.86417 0.46783 0.0
H1441 H 0.35273 0.86777 0.55135 0.0
H1442 H 0.35102 0.90281 0.44441 0.0
H1443 H 0.41098 0.92329 0.49923 0.0
O1444 O 0.3187 0.90967 0.48022 0.0
O1445 O 0.33493 0.94513 0.50011 0.0
O1446 O 0.3732 0.91354 0.53807 0.0
C1447 C 0.31748 0.93528 0.48345 0.0
H1448 H 0.26347 0.88622 0.56088 0.0
H1449 H 0.39533 0.91129 0.41809 0.0
H1450 H 0.33641 0.82268 0.55603 0.0
H1451 H 0.32676 0.81855 0.47093 0.0
Co1452 Co 0.14525 0.35466 0.49715 0.0
C1453 C 0.12589 0.32055 0.54362 0.0
C1454 C 0.09586 0.34317 0.52351 0.0
C1455 C 0.08429 0.3311 0.54461 0.0
N1456 N 0.12184 0.33604 0.52184 0.0
N1457 N 0.10295 0.31678 0.55721 0.0
H1458 H 0.14493 0.3129 0.55007 0.0
H1459 H 0.08577 0.35775 0.51137 0.0
C1460 C 0.15895 0.40425 0.53251 0.0
O1461 O 0.17732 0.4131 0.51625 0.0
N1462 N 0.16583 0.37646 0.47246 0.0
C1463 C 0.18878 0.37089 0.45974 0.0
C1464 C 0.19632 0.39304 0.44518 0.0
C1465 C 0.15912 0.4014 0.46435 0.0
N1466 N 0.17769 0.41223 0.44816 0.0
C1467 C 0.17744 0.31042 0.51028 0.0
C1468 C 0.22523 0.33582 0.51935 0.0
C1469 C 0.22523 0.30788 0.51627 0.0
C1470 C 0.20058 0.29535 0.51307 0.0
C1471 C 0.20116 0.35036 0.51707 0.0
N1472 N 0.17758 0.33766 0.51178 0.0
H1473 H 0.15924 0.29989 0.50574 0.0
H1474 H 0.20211 0.37174 0.5175 0.0
H1475 H 0.19953 0.35226 0.46118 0.0
H1476 H 0.14159 0.4119 0.47124 0.0
O1477 O 0.1407 0.32731 0.4702 0.0
O1478 O 0.11281 0.36034 0.47454 0.0
O1479 O 0.14478 0.38388 0.52602 0.0
C1480 C 0.11839 0.33752 0.46322 0.0
H1481 H 0.06381 0.33353 0.55093 0.0
H1482 H 0.21426 0.39498 0.43343 0.0
H1483 H 0.24377 0.34646 0.52218 0.0
H1484 H 0.19909 0.27385 0.51189 0.0
Co1485 Co 0.35671 0.15351 0.55998 0.0
C1486 C 0.31197 0.13855 0.52155 0.0
C1487 C 0.34196 0.10882 0.52874 0.0
C1488 C 0.32447 0.09874 0.5107 0.0
N1489 N 0.33429 0.1336 0.53588 0.0
N1490 N 0.30579 0.11729 0.50613 0.0
H1491 H 0.30101 0.15712 0.52177 0.0
H1492 H 0.35988 0.09899 0.53557 0.0
C1493 C 0.40139 0.16649 0.52143 0.0
O1494 O 0.40308 0.19043 0.53177 0.0
N1495 N 0.38225 0.17104 0.58414 0.0
C1496 C 0.38828 0.19722 0.58609 0.0
C1497 C 0.41022 0.20037 0.6021 0.0
C1498 C 0.40144 0.1587 0.59895 0.0
N1499 N 0.41853 0.17625 0.61047 0.0
C1500 C 0.3308 0.20345 0.56401 0.0
C1501 C 0.32728 0.21675 0.51101 0.0
C1502 C 0.31316 0.23235 0.52969 0.0
C1503 C 0.31577 0.2255 0.5565 0.0
C1504 C 0.34227 0.19438 0.51947 0.0
N1505 N 0.34378 0.18784 0.54586 0.0
H1506 H 0.33165 0.19874 0.58493 0.0
H1507 H 0.3513 0.18163 0.5047 0.0
H1508 H 0.37913 0.21324 0.57512 0.0
H1509 H 0.40331 0.1373 0.60075 0.0
O1510 O 0.32988 0.1517 0.5873 0.0
O1511 O 0.35903 0.11983 0.58099 0.0
O1512 O 0.38557 0.14929 0.5317 0.0
C1513 C 0.33775 0.12817 0.59348 0.0
H1514 H 0.32591 0.07969 0.50066 0.0
H1515 H 0.42018 0.21908 0.6061 0.0
H1516 H 0.32627 0.22127 0.49 0.0
H1517 H 0.30517 0.23634 0.5718 0.0
Co1518 Co 0.90825 0.35039 0.55864 0.0
C1519 C 0.91009 0.30424 0.51926 0.0
C1520 C 0.93913 0.33526 0.51378 0.0
C1521 C 0.94253 0.31695 0.49412 0.0
N1522 N 0.91859 0.32783 0.5293 0.0
N1523 N 0.9243 0.29767 0.49738 0.0
H1524 H 0.89389 0.29257 0.52734 0.0
H1525 H 0.95097 0.35302 0.51666 0.0
C1526 C 0.89445 0.39839 0.52374 0.0
O1527 O 0.87128 0.3999 0.53574 0.0
N1528 N 0.90071 0.37539 0.58821 0.0
C1529 C 0.89695 0.36893 0.61403 0.0
C1530 C 0.89706 0.39166 0.62939 0.0
C1531 C 0.90379 0.40244 0.58871 0.0
N1532 N 0.9014 0.41279 0.61353 0.0
C1533 C 0.85427 0.33827 0.57144 0.0
C1534 C 0.83737 0.3264 0.52057 0.0
C1535 C 0.82265 0.31651 0.5422 0.0
C1536 C 0.83058 0.3242 0.56773 0.0
C1537 C 0.86101 0.34099 0.52517 0.0
N1538 N 0.87012 0.34534 0.55053 0.0
H1539 H 0.86097 0.3408 0.59151 0.0
H1540 H 0.87322 0.34643 0.50834 0.0
H1541 H 0.89482 0.34894 0.62158 0.0
H1542 H 0.90929 0.41435 0.57174 0.0
O1543 O 0.91042 0.32023 0.58282 0.0
O1544 O 0.94506 0.34475 0.57268 0.0
O1545 O 0.91195 0.38157 0.5321 0.0
C1546 C 0.93573 0.32388 0.58526 0.0
H1547 H 0.95738 0.31755 0.47853 0.0
H1548 H 0.89449 0.39256 0.65074 0.0
H1549 H 0.83183 0.32122 0.5004 0.0
H1550 H 0.81953 0.31765 0.58502 0.0
Co1551 Co 0.16678 0.70528 0.5543 0.0
C1552 C 0.14095 0.72732 0.50794 0.0
C1553 C 0.17416 0.75202 0.51884 0.0
C1554 C 0.16234 0.76244 0.49636 0.0
N1555 N 0.1609 0.72971 0.52557 0.0
N1556 N 0.1415 0.74678 0.48962 0.0
H1557 H 0.12618 0.7117 0.50884 0.0
H1558 H 0.19108 0.76008 0.52949 0.0
C1559 C 0.17502 0.65559 0.52034 0.0
O1560 O 0.19676 0.6504 0.534 0.0
N1561 N 0.17123 0.67979 0.5838 0.0
C1562 C 0.17743 0.68598 0.60924 0.0
C1563 C 0.17591 0.66344 0.62477 0.0
C1564 C 0.16527 0.65332 0.58467 0.0
N1565 N 0.16847 0.64284 0.60932 0.0
C1566 C 0.2216 0.71533 0.56628 0.0
C1567 C 0.2382 0.71824 0.51407 0.0
C1568 C 0.25389 0.73044 0.53375 0.0
C1569 C 0.24593 0.72757 0.56029 0.0
C1570 C 0.21402 0.70603 0.52092 0.0
N1571 N 0.20516 0.70603 0.54667 0.0
H1572 H 0.21477 0.71631 0.58651 0.0
H1573 H 0.20101 0.69975 0.50497 0.0
H1574 H 0.18207 0.7057 0.61649 0.0
H1575 H 0.15755 0.64202 0.5681 0.0
O1576 O 0.16652 0.73513 0.57881 0.0
O1577 O 0.13026 0.71383 0.5665 0.0
O1578 O 0.16005 0.67514 0.52742 0.0
C1579 C 0.1408 0.73367 0.57975 0.0
H1580 H 0.16803 0.78062 0.48628 0.0
H1581 H 0.17993 0.66227 0.64589 0.0
H1582 H 0.24353 0.71992 0.49328 0.0
H1583 H 0.25704 0.737 0.5762 0.0
C1584 C 0.08297 0.3019 0.46292 0.0
C1585 C 0.09926 0.31984 0.44852 0.0
C1586 C 0.07243 0.27834 0.45122 0.0
C1587 C 0.07818 0.27135 0.42469 0.0
H1588 H 0.07989 0.30504 0.48397 0.0
H1589 H 0.06112 0.26477 0.46354 0.0
S1590 S 0.11739 0.31295 0.37753 0.0
N1591 N 0.11881 0.32967 0.40578 0.0
N1592 N 0.09904 0.28636 0.38363 0.0
C1593 C 0.09308 0.29006 0.40972 0.0
C1594 C 0.10365 0.3139 0.42164 0.0
C1595 C 0.76178 0.12171 0.4431 0.0
C1596 C 0.74988 0.10803 0.46442 0.0
C1597 C 0.78344 0.11122 0.42889 0.0
C1598 C 0.79504 0.08628 0.43506 0.0
H1599 H 0.75459 0.14131 0.43755 0.0
H1600 H 0.79137 0.12331 0.41294 0.0
S1601 S 0.77157 0.04171 0.48921 0.0
N1602 N 0.75137 0.06771 0.49114 0.0
N1603 N 0.79211 0.04773 0.46426 0.0
C1604 C 0.78313 0.07192 0.45615 0.0
C1605 C 0.76065 0.08277 0.47077 0.0
C1606 C 0.96617 0.76805 0.48465 0.0
C1607 C 0.93969 0.76165 0.47749 0.0
C1608 C 0.97996 0.7897 0.4726 0.0
C1609 C 0.96791 0.80565 0.45273 0.0
H1610 H 0.97626 0.75636 0.49968 0.0
H1611 H 1.00045 0.79341 0.47826 0.0
S1612 S 0.8999 0.79664 0.42545 0.0
N1613 N 0.90264 0.77314 0.44822 0.0
N1614 N 0.92855 0.8127 0.42585 0.0
C1615 C 0.94181 0.79915 0.44519 0.0
C1616 C 0.92775 0.77754 0.45745 0.0
C1617 C 0.26401 0.95442 0.43255 0.0
C1618 C 0.25162 0.97738 0.44305 0.0
C1619 C 0.28524 0.9415 0.44562 0.0
C1620 C 0.29596 0.95117 0.46967 0.0
H1621 H 0.25726 0.94623 0.41378 0.0
H1622 H 0.29354 0.92377 0.43653 0.0
S1623 S 0.27136 1.01077 0.50597 0.0
N1624 N 0.25184 1.00919 0.47947 0.0
N1625 N 0.2922 0.98534 0.50372 0.0
C1626 C 0.28396 0.97422 0.48051 0.0
C1627 C 0.26174 0.98714 0.46738 0.0
C1628 C 0.08932 0.78905 0.59413 0.0
C1629 C 0.09972 0.80142 0.61717 0.0
C1630 C 0.10176 0.7663 0.58267 0.0
C1631 C 0.12528 0.75525 0.59359 0.0
H1632 H 0.07115 0.7966 0.58525 0.0
H1633 H 0.09327 0.75774 0.56479 0.0
S1634 S 0.16063 0.78013 0.65358 0.0
N1635 N 0.13494 0.80043 0.65034 0.0
N1636 N 0.15827 0.75877 0.62874 0.0
C1637 C 0.1358 0.76761 0.61645 0.0
C1638 C 0.12305 0.79031 0.62823 0.0
C1639 C 0.28503 0.11443 0.64472 0.0
C1640 C 0.2708 0.09254 0.63421 0.0
C1641 C 0.30861 0.12381 0.63299 0.0
C1642 C 0.31957 0.11173 0.61026 0.0
H1643 H 0.27748 0.12515 0.66181 0.0
H1644 H 0.31756 0.14179 0.64094 0.0
S1645 S 0.29149 0.0529 0.57533 0.0
N1646 N 0.27059 0.05807 0.60016 0.0
N1647 N 0.31485 0.07594 0.5781 0.0
C1648 C 0.30648 0.08899 0.60021 0.0
C1649 C 0.2822 0.07936 0.61216 0.0
C1650 C 0.98413 0.2664 0.60254 0.0
C1651 C 0.97574 0.2585 0.62819 0.0
C1652 C 0.97258 0.28873 0.58927 0.0
C1653 C 0.9519 0.3039 0.60092 0.0
H1654 H 0.99983 0.25542 0.5927 0.0
H1655 H 0.97923 0.29352 0.56937 0.0
S1656 S 0.92194 0.29117 0.66712 0.0
N1657 N 0.94507 0.26795 0.66428 0.0
N1658 N 0.92332 0.30864 0.63938 0.0
C1659 C 0.94331 0.29594 0.62633 0.0
C1660 C 0.9552 0.2737 0.63991 0.0
C1661 C 0.76483 0.94483 0.62119 0.0
C1662 C 0.75518 0.9544 0.59669 0.0
C1663 C 0.78828 0.95498 0.63292 0.0
C1664 C 0.80396 0.97466 0.62039 0.0
H1665 H 0.75425 0.92902 0.63135 0.0
H1666 H 0.79434 0.94699 0.65201 0.0
S1667 S 0.78839 1.0055 0.55506 0.0
N1668 N 0.76364 0.98434 0.55979 0.0
N1669 N 0.80792 1.00307 0.58147 0.0
C1670 C 0.79474 0.98423 0.59563 0.0
C1671 C 0.77039 0.97422 0.58391 0.0
C1672 C 0.47901 0.09383 0.29322 0.0
C1673 C 0.46872 0.11801 0.30341 0.0
C1674 C 0.46766 0.08134 0.2704 0.0
C1675 C 0.44528 0.0923 0.25716 0.0
H1676 H 0.49617 0.08476 0.30263 0.0
H1677 H 0.47597 0.06263 0.26357 0.0
S1678 S 0.40999 0.1544 0.27643 0.0
N1679 N 0.43441 0.15184 0.29828 0.0
N1680 N 0.41301 0.12824 0.2568 0.0
C1681 C 0.43468 0.11606 0.26757 0.0
C1682 C 0.44637 0.1289 0.29023 0.0
C1683 C 0.9457 0.44093 0.27547 0.0
C1684 C 0.96982 0.4507 0.26506 0.0
C1685 C 0.93324 0.45288 0.2976 0.0
C1686 C 0.94465 0.47469 0.31122 0.0
H1687 H 0.93617 0.42388 0.26627 0.0
H1688 H 0.91435 0.44481 0.30416 0.0
S1689 S 1.00854 0.50713 0.29313 0.0
N1690 N 1.0051 0.48332 0.27066 0.0
N1691 N 0.98217 0.50523 0.31267 0.0
C1692 C 0.96913 0.48437 0.30143 0.0
C1693 C 0.98153 0.47256 0.27832 0.0
C1694 C 0.6257 0.96023 0.26986 0.0
C1695 C 0.61025 0.97502 0.25159 0.0
C1696 C 0.61496 0.94912 0.29308 0.0
C1697 C 0.58785 0.95179 0.29991 0.0
H1698 H 0.64676 0.95712 0.26639 0.0
H1699 H 0.62846 0.93815 0.30587 0.0
S1700 S 0.53777 0.98816 0.25911 0.0
N1701 N 0.56573 0.99168 0.2421 0.0
N1702 N 0.54534 0.97039 0.28577 0.0
C1703 C 0.57179 0.96644 0.28189 0.0
C1704 C 0.58294 0.978 0.25784 0.0
C1705 C 0.13983 0.61646 0.29699 0.0
C1706 C 0.1296 0.59276 0.30789 0.0
C1707 C 0.12796 0.62903 0.27502 0.0
C1708 C 0.10512 0.61865 0.26228 0.0
H1709 H 0.15788 0.62513 0.30509 0.0
H1710 H 0.13732 0.64703 0.26772 0.0
S1711 S 0.06964 0.55717 0.28312 0.0
N1712 N 0.09438 0.5597 0.30472 0.0
N1713 N 0.07216 0.58316 0.26308 0.0
C1714 C 0.09395 0.59535 0.27345 0.0
C1715 C 0.1061 0.58252 0.29626 0.0
C1716 C 0.45138 0.99617 0.78419 0.0
C1717 C 0.42936 0.98312 0.79571 0.0
C1718 C 0.46238 0.9877 0.75963 0.0
C1719 C 0.45206 0.96559 0.7455 0.0
H1720 H 0.46025 1.01309 0.79424 0.0
H1721 H 0.47989 0.99788 0.75259 0.0
S1722 S 0.39367 0.92537 0.76616 0.0
N1723 N 0.3967 0.94787 0.78994 0.0
N1724 N 0.41784 0.93157 0.74483 0.0
C1725 C 0.42955 0.95303 0.75649 0.0
C1726 C 0.41812 0.96185 0.78117 0.0
C1727 C 0.07993 0.46131 0.78633 0.0
C1728 C 0.0886 0.4358 0.7946 0.0
C1729 C 0.08984 0.47332 0.76272 0.0
C1730 C 0.10842 0.46012 0.74621 0.0
H1731 H 0.06656 0.47264 0.79887 0.0
H1732 H 0.08419 0.49368 0.75827 0.0
S1733 S 0.1345 0.39177 0.75659 0.0
N1734 N 0.11477 0.39685 0.7823 0.0
N1735 N 0.13313 0.41937 0.7388 0.0
C1736 C 0.11586 0.43414 0.75348 0.0
C1737 C 0.10598 0.422 0.77732 0.0
C1738 C 0.58556 0.12521 0.79375 0.0
C1739 C 0.59305 0.1213 0.76689 0.0
C1740 C 0.59814 0.11122 0.81493 0.0
C1741 C 0.61913 0.09323 0.81 0.0
H1742 H 0.57095 0.14035 0.79855 0.0
H1743 H 0.59269 0.1159 0.83522 0.0
S1744 S 0.64536 0.07527 0.74308 0.0
N1745 N 0.62181 0.09735 0.73678 0.0
N1746 N 0.64549 0.0714 0.77566 0.0
C1747 C 0.62574 0.0884 0.78303 0.0
C1748 C 0.61281 0.10236 0.76175 0.0
C1749 C 0.9508 0.63538 0.78349 0.0
C1750 C 0.9727 0.6237 0.79674 0.0
C1751 C 0.93931 0.62376 0.76065 0.0
C1752 C 0.94964 0.60034 0.74911 0.0
H1753 H 0.94201 0.65353 0.7912 0.0
H1754 H 0.9216 0.63288 0.7523 0.0
S1755 S 1.0078 0.56237 0.77483 0.0
N1756 N 1.00491 0.58756 0.79584 0.0
N1757 N 0.9837 0.56608 0.75267 0.0
C1758 C 0.97209 0.58882 0.7616 0.0
C1759 C 0.98348 0.60037 0.78538 0.0
C1760 C 0.2756 0.43329 0.11038 0.0
C1761 C 0.25862 0.44756 0.0931 0.0
C1762 C 0.29907 0.44452 0.1208 0.0
C1763 C 0.30738 0.47042 0.11401 0.0
H1764 H 0.27057 0.41313 0.11621 0.0
H1765 H 0.31064 0.43289 0.13484 0.0
S1766 S 0.27072 0.51656 0.06929 0.0
N1767 N 0.25218 0.48932 0.06941 0.0
N1768 N 0.29645 0.51033 0.08892 0.0
C1769 C 0.29093 0.48495 0.09644 0.0
C1770 C 0.26658 0.4736 0.08606 0.0
C1771 C 0.27916 0.60783 0.92411 0.0
C1772 C 0.29663 0.59024 0.93741 0.0
C1773 C 0.25735 0.61964 0.93696 0.0
C1774 C 0.25154 0.61435 0.96376 0.0
H1775 H 0.28281 0.61336 0.90363 0.0
H1776 H 0.24562 0.63417 0.9261 0.0
S1777 S 0.28983 0.56886 1.00773 0.0
N1778 N 0.3056 0.56708 0.97894 0.0
N1779 N 0.26454 0.58952 1.00315 0.0
C1780 C 0.26786 0.59576 0.97711 0.0
C1781 C 0.29034 0.58362 0.96393 0.0
C1782 C 0.44481 0.29394 0.94343 0.0
C1783 C 0.46896 0.30384 0.95364 0.0
C1784 C 0.43183 0.27203 0.95504 0.0
C1785 C 0.44268 0.25821 0.97697 0.0
H1786 H 0.43565 0.30342 0.92634 0.0
H1787 H 0.41282 0.26594 0.94678 0.0
S1788 S 0.5067 0.27473 1.01019 0.0
N1789 N 0.50392 0.29744 0.98653 0.0
N1790 N 0.47997 0.25564 1.00779 0.0
C1791 C 0.46734 0.2673 0.98693 0.0
C1792 C 0.4803 0.29024 0.97546 0.0
C1793 C 0.79129 0.43374 0.95092 0.0
C1794 C 0.80436 0.44614 0.97244 0.0
C1795 C 0.76966 0.44586 0.93784 0.0
C1796 C 0.75948 0.47069 0.94603 0.0
H1797 H 0.79798 0.41446 0.94387 0.0
H1798 H 0.76084 0.43563 0.92101 0.0
S1799 S 0.78609 0.51174 1.00142 0.0
N1800 N 0.80534 0.48498 1.00137 0.0
N1801 N 0.76433 0.50749 0.97706 0.0
C1802 C 0.77205 0.48329 0.96772 0.0
C1803 C 0.79456 0.47114 0.98079 0.0
C1804 C 0.62802 0.75672 0.93586 0.0
C1805 C 0.60057 0.75606 0.93022 0.0
C1806 C 0.63995 0.77841 0.94901 0.0
C1807 C 0.62524 0.80104 0.95709 0.0
H1808 H 0.64065 0.74036 0.92962 0.0
H1809 H 0.66119 0.77735 0.95268 0.0
S1810 S 0.55284 0.81054 0.94549 0.0
N1811 N 0.55895 0.78069 0.93297 0.0
N1812 N 0.58141 0.82153 0.95765 0.0
C1813 C 0.59765 0.80073 0.95172 0.0
C1814 C 0.58535 0.77833 0.93835 0.0
C1815 C 0.79761 0.5983 0.09048 0.0
C1816 C 0.81141 0.62111 0.09948 0.0
C1817 C 0.77437 0.58901 0.10363 0.0
C1818 C 0.76389 0.60232 0.12612 0.0
H1819 H 0.80406 0.58829 0.07253 0.0
H1820 H 0.76412 0.57178 0.09565 0.0
S1821 S 0.79501 0.6607 0.15966 0.0
N1822 N 0.81434 0.65492 0.13384 0.0
N1823 N 0.77139 0.63793 0.15819 0.0
C1824 C 0.77847 0.6243 0.13591 0.0
C1825 C 0.80196 0.63353 0.12271 0.0
C1826 C 0.44788 0.76893 0.12325 0.0
C1827 C 0.47331 0.75977 0.11582 0.0
C1828 C 0.4351 0.79008 0.10987 0.0
C1829 C 0.4473 0.80406 0.08876 0.0
H1830 H 0.43767 0.75966 0.1398 0.0
H1831 H 0.41534 0.79572 0.11643 0.0
S1832 S 0.51489 0.78949 0.06259 0.0
N1833 N 0.51071 0.76695 0.08616 0.0
N1834 N 0.48722 0.80741 0.06174 0.0
C1835 C 0.47306 0.79552 0.08137 0.0
C1836 C 0.48585 0.77327 0.09463 0.0
C1837 C 0.64318 0.28151 0.11084 0.0
C1838 C 0.63134 0.26693 0.08988 0.0
C1839 C 0.63106 0.3044 0.12182 0.0
C1840 C 0.60683 0.31463 0.11195 0.0
H1841 H 0.66192 0.27491 0.1193 0.0
H1842 H 0.64052 0.3139 0.13873 0.0
S1843 S 0.56711 0.28436 0.05738 0.0
N1844 N 0.5935 0.26477 0.05971 0.0
N1845 N 0.57109 0.30788 0.08006 0.0
C1846 C 0.59489 0.30063 0.09069 0.0
C1847 C 0.60701 0.27687 0.07977 0.0
C1848 C 0.94741 0.80405 0.62741 0.0
C1849 C 0.97369 0.80367 0.61828 0.0
C1850 C 0.9266 0.79516 0.61114 0.0
C1851 C 0.93159 0.78484 0.58556 0.0
H1852 H 0.94316 0.81021 0.6476 0.0
H1853 H 0.90673 0.79417 0.61941 0.0
S1854 S 0.99736 0.78252 0.55203 0.0
N1855 N 1.00373 0.79531 0.58162 0.0
N1856 N 0.96488 0.77724 0.55122 0.0
C1857 C 0.95773 0.78638 0.57558 0.0
C1858 C 0.97879 0.79598 0.59204 0.0
C1859 C 0.25514 0.93256 0.59422 0.0
C1860 C 0.28294 0.93006 0.59142 0.0
C1861 C 0.24415 0.94767 0.6148 0.0
C1862 C 0.26049 0.96051 0.63339 0.0
H1863 H 0.24177 0.92366 0.57985 0.0
H1864 H 0.22276 0.95002 0.6159 0.0
S1865 S 0.33399 0.9596 0.63616 0.0
N1866 N 0.32644 0.94116 0.60999 0.0
N1867 N 0.30527 0.96957 0.64869 0.0
C1868 C 0.28808 0.95769 0.63151 0.0
C1869 C 0.29945 0.94248 0.61045 0.0
C1870 C 0.06512 0.27425 0.60426 0.0
C1871 C 0.08102 0.27453 0.62721 0.0
C1872 C 0.07324 0.28708 0.58123 0.0
C1873 C 0.09755 0.30084 0.58016 0.0
H1874 H 0.04654 0.26335 0.60382 0.0
H1875 H 0.06025 0.28636 0.56402 0.0
S1876 S 0.14698 0.30677 0.6346 0.0
N1877 N 0.12261 0.2888 0.64746 0.0
N1878 N 0.13795 0.31351 0.60369 0.0
C1879 C 0.11408 0.30086 0.60269 0.0
C1880 C 0.10574 0.28762 0.62636 0.0
C1881 C 0.78016 0.13247 0.61024 0.0
C1882 C 0.77991 0.12581 0.58312 0.0
C1883 C 0.79433 0.11703 0.62868 0.0
C1884 C 0.80882 0.09446 0.62057 0.0
H1885 H 0.76659 0.14756 0.61758 0.0
H1886 H 0.79213 0.12144 0.64963 0.0
S1887 S 0.81863 0.07229 0.55076 0.0
N1888 N 0.79857 0.09827 0.54842 0.0
N1889 N 0.82536 0.06894 0.58275 0.0
C1890 C 0.81152 0.0898 0.59303 0.0
C1891 C 0.79713 0.10572 0.57435 0.0
C1892 C 0.93785 0.25265 0.48598 0.0
C1893 C 0.92255 0.27525 0.47994 0.0
C1894 C 0.94886 0.23703 0.46567 0.0
C1895 C 0.94493 0.24361 0.4387 0.0
H1896 H 0.94396 0.24901 0.50633 0.0
H1897 H 0.96227 0.221 0.47108 0.0
S1898 S 0.90226 0.2982 0.41306 0.0
N1899 N 0.90063 0.30111 0.44572 0.0
N1900 N 0.92136 0.272 0.40732 0.0
C1901 C 0.92692 0.26417 0.43257 0.0
C1902 C 0.91564 0.27989 0.45332 0.0
C1903 C 0.81904 0.95298 0.46414 0.0
C1904 C 0.81174 0.94952 0.43728 0.0
C1905 C 0.80354 0.94229 0.48463 0.0
C1906 C 0.78049 0.92764 0.47886 0.0
H1907 H 0.83549 0.96591 0.46939 0.0
H1908 H 0.80763 0.94827 0.50493 0.0
S1909 S 0.75591 0.90792 0.41244 0.0
N1910 N 0.78227 0.92659 0.40631 0.0
N1911 N 0.75366 0.9062 0.44514 0.0
C1912 C 0.7753 0.92077 0.45237 0.0
C1913 C 0.79076 0.93189 0.43142 0.0
C1914 C 0.1306 0.76351 0.44504 0.0
C1915 C 0.12231 0.75177 0.46897 0.0
C1916 C 0.11213 0.77545 0.42793 0.0
C1917 C 0.08499 0.77629 0.4345 0.0
H1918 H 0.15163 0.76555 0.44075 0.0
H1919 H 0.11946 0.78751 0.41167 0.0
S1920 S 0.05244 0.74339 0.49143 0.0
N1921 N 0.08453 0.73755 0.49579 0.0
N1922 N 0.05009 0.76006 0.46324 0.0
C1923 C 0.07611 0.7609 0.4559 0.0
C1924 C 0.0948 0.74888 0.47354 0.0
C1925 C 0.29421 0.12026 0.45922 0.0
C1926 C 0.28654 0.11452 0.48546 0.0
C1927 C 0.28101 0.10852 0.43758 0.0
C1928 C 0.26022 0.09036 0.44175 0.0
H1929 H 0.31172 0.13232 0.45561 0.0
H1930 H 0.28775 0.11269 0.41758 0.0
S1931 S 0.23052 0.07171 0.5064 0.0
N1932 N 0.25551 0.09166 0.51428 0.0
N1933 N 0.23038 0.06976 0.47359 0.0
C1934 C 0.25129 0.08586 0.46776 0.0
C1935 C 0.26456 0.09795 0.48965 0.0
C1936 C 0.60923 0.99079 0.7426 0.0
C1937 C 0.59579 0.96636 0.74592 0.0
C1938 C 0.62949 0.99849 0.76009 0.0
C1939 C 0.63685 0.98193 0.78131 0.0
H1940 H 0.60197 1.00529 0.72837 0.0
H1941 H 0.63657 1.01878 0.75925 0.0
S1942 S 0.61533 0.91217 0.79193 0.0
N1943 N 0.59656 0.92286 0.76711 0.0
N1944 N 0.6354 0.93714 0.79949 0.0
C1945 C 0.62759 0.95546 0.78118 0.0
C1946 C 0.60667 0.9477 0.76362 0.0
C1947 C 0.08693 0.59247 0.80594 0.0
C1948 C 0.09353 0.61945 0.80187 0.0
C1949 C 0.10123 0.57208 0.79327 0.0
C1950 C 0.12252 0.57801 0.77623 0.0
H1951 H 0.06905 0.58716 0.81669 0.0
H1952 H 0.09348 0.55195 0.794 0.0
S1953 S 0.15145 0.64462 0.76398 0.0
N1954 N 0.12582 0.65048 0.78371 0.0
N1955 N 0.15228 0.61199 0.75957 0.0
C1956 C 0.1314 0.60445 0.77494 0.0
C1957 C 0.11686 0.62526 0.78767 0.0
C1958 C 0.45365 0.13535 0.79038 0.0
C1959 C 0.46521 0.12931 0.76561 0.0
C1960 C 0.43574 0.11771 0.80253 0.0
C1961 C 0.42841 0.09384 0.78998 0.0
H1962 H 0.45864 0.15377 0.80044 0.0
H1963 H 0.42716 0.12292 0.82158 0.0
S1964 S 0.45318 0.06841 0.72549 0.0
N1965 N 0.4682 0.09746 0.72926 0.0
N1966 N 0.43444 0.06448 0.75215 0.0
C1967 C 0.43991 0.08743 0.76542 0.0
C1968 C 0.45837 0.10514 0.75321 0.0
C1969 C 0.95073 0.4575 0.81793 0.0
C1970 C 0.95512 0.43127 0.80904 0.0
C1971 C 0.94051 0.47693 0.80077 0.0
C1972 C 0.93453 0.47061 0.7743 0.0
H1973 H 0.95731 0.46344 0.83758 0.0
H1974 H 0.93982 0.49748 0.80734 0.0
S1975 S 0.93848 0.40425 0.7426 0.0
N1976 N 0.94955 0.39934 0.77318 0.0
N1977 N 0.93033 0.43612 0.74089 0.0
C1978 C 0.9362 0.44401 0.76604 0.0
C1979 C 0.94646 0.42417 0.7835 0.0
C1980 C 0.60896 0.13252 0.28362 0.0
C1981 C 0.58351 0.12473 0.29209 0.0
C1982 C 0.6253 0.11523 0.26953 0.0
C1983 C 0.61666 0.0896 0.26239 0.0
H1984 H 0.6164 0.15232 0.28791 0.0
H1985 H 0.6447 0.12232 0.26339 0.0
S1986 S 0.55211 0.05877 0.2805 0.0
N1987 N 0.55095 0.08883 0.29387 0.0
N1988 N 0.58117 0.05677 0.26528 0.0
C1989 C 0.59139 0.08118 0.27093 0.0
C1990 C 0.57482 0.09874 0.28603 0.0
C1991 C 0.92612 0.59949 0.26795 0.0
C1992 C 0.9366 0.58317 0.28807 0.0
C1993 C 0.94277 0.61604 0.25288 0.0
C1994 C 0.97038 0.61693 0.25772 0.0
H1995 H 0.90479 0.60031 0.26478 0.0
H1996 H 0.93398 0.62873 0.23782 0.0
S1997 S 1.00689 0.57956 0.30985 0.0
N1998 N 0.9757 0.56959 0.31284 0.0
N1999 N 1.00718 0.60071 0.2847 0.0
C2000 C 0.98108 0.6003 0.27751 0.0
C2001 C 0.96413 0.58342 0.29268 0.0
C2002 C 0.4292 0.93281 0.301 0.0
C2003 C 0.44656 0.94402 0.31989 0.0
C2004 C 0.41543 0.94903 0.28305 0.0
C2005 C 0.41862 0.97682 0.2835 0.0
H2006 H 0.42851 0.91145 0.29808 0.0
H2007 H 0.40507 0.93974 0.26656 0.0
S2008 S 0.45528 1.01613 0.33377 0.0
N2009 N 0.46102 0.98476 0.34196 0.0
N2010 N 0.43558 1.01509 0.30745 0.0
C2011 C 0.43246 0.98833 0.30475 0.0
C2012 C 0.44653 0.97191 0.32308 0.0
C2013 C 0.10932 0.48695 0.29095 0.0
C2014 C 0.13608 0.47999 0.28596 0.0
C2015 C 0.08837 0.47101 0.28179 0.0
C2016 C 0.09353 0.44755 0.26765 0.0
H2017 H 0.1045 0.504 0.30317 0.0
H2018 H 0.06805 0.47643 0.28658 0.0
S2019 S 0.1592 0.42156 0.24707 0.0
N2020 N 0.16612 0.44912 0.26371 0.0
N2021 N 0.12642 0.41862 0.24757 0.0
C2022 C 0.11983 0.44077 0.26163 0.0
C2023 C 0.14121 0.45716 0.27053 0.0
C2024 C 0.75831 0.60026 0.95423 0.0
C2025 C 0.77496 0.58531 0.9374 0.0
C2026 C 0.76884 0.61783 0.97321 0.0
C2027 C 0.79653 0.62131 0.97619 0.0
H2028 H 0.73688 0.59843 0.95271 0.0
H2029 H 0.7551 0.62843 0.98596 0.0
S2030 S 0.84901 0.58725 0.93688 0.0
N2031 N 0.82079 0.57491 0.92535 0.0
N2032 N 0.84042 0.60896 0.95996 0.0
C2033 C 0.81346 0.60677 0.95927 0.0
C2034 C 0.80274 0.5886 0.94011 0.0
C2035 C 0.78421 0.43074 0.11698 0.0
C2036 C 0.79654 0.44163 0.09436 0.0
C2037 C 0.77301 0.44719 0.13653 0.0
C2038 C 0.77357 0.47505 0.13392 0.0
H2039 H 0.78286 0.40934 0.11933 0.0
H2040 H 0.76283 0.43808 0.15315 0.0
S2041 S 0.80474 0.51359 0.07938 0.0
N2042 N 0.80938 0.4821 0.07103 0.0
N2043 N 0.78891 0.51292 0.1081 0.0
C2044 C 0.78674 0.4862 0.11198 0.0
C2045 C 0.79812 0.46951 0.0921 0.0
C2046 C 0.59782 0.77486 0.07236 0.0
C2047 C 0.61591 0.7956 0.07716 0.0
C2048 C 0.58087 0.76588 0.0925 0.0
C2049 C 0.5819 0.77708 0.1181 0.0
H2050 H 0.5976 0.76489 0.05326 0.0
H2051 H 0.5684 0.74867 0.08876 0.0
S2052 S 0.62467 0.83295 0.13998 0.0
N2053 N 0.63259 0.82846 0.10841 0.0
N2054 N 0.60138 0.81069 0.14676 0.0
C2055 C 0.59894 0.79869 0.12269 0.0
C2056 C 0.61582 0.80821 0.10202 0.0
C2057 C 0.26636 0.58933 0.11278 0.0
C2058 C 0.29393 0.58497 0.11595 0.0
C2059 C 0.25654 0.60767 0.0941 0.0
C2060 C 0.27391 0.62252 0.07802 0.0
H2061 H 0.25221 0.57839 0.12476 0.0
H2062 H 0.23523 0.61067 0.09262 0.0
S2063 S 0.34765 0.61773 0.07725 0.0
N2064 N 0.33835 0.59674 0.10069 0.0
N2065 N 0.31984 0.63056 0.06524 0.0
C2066 C 0.30144 0.61795 0.08048 0.0
C2067 C 0.31145 0.59931 0.09948 0.0
C2068 C 0.4433 0.26855 0.11969 0.0
C2069 C 0.44831 0.2509 0.09857 0.0
C2070 C 0.46421 0.28232 0.132 0.0
C2071 C 0.49059 0.27868 0.12357 0.0
H2072 H 0.42302 0.27357 0.12503 0.0
H2073 H 0.45951 0.2982 0.14581 0.0
S2074 S 0.51464 0.22991 0.07405 0.0
N2075 N 0.48189 0.22657 0.07358 0.0
N2076 N 0.52108 0.25305 0.09654 0.0
C2077 C 0.49603 0.25864 0.10503 0.0
C2078 C 0.47486 0.24468 0.09239 0.0
C2079 C 0.3196 0.45475 0.96704 0.0
C2080 C 0.31397 0.45306 0.93964 0.0
C2081 C 0.30327 0.4422 0.98582 0.0
C2082 C 0.28089 0.42751 0.9778 0.0
H2083 H 0.33557 0.46743 0.97409 0.0
H2084 H 0.30629 0.44654 1.00671 0.0
S2085 S 0.25975 0.41334 0.90882 0.0
N2086 N 0.2862 0.4326 0.90555 0.0
N2087 N 0.2559 0.40893 0.94111 0.0
C2088 C 0.27697 0.42303 0.95059 0.0
C2089 C 0.29337 0.43592 0.93139 0.0
C2090 C 0.63557 0.27147 0.95513 0.0
C2091 C 0.64032 0.28206 0.98042 0.0
C2092 C 0.61379 0.28 0.93998 0.0
C2093 C 0.59547 0.29884 0.94997 0.0
H2094 H 0.64854 0.2561 0.94732 0.0
H2095 H 0.61113 0.27139 0.92044 0.0
S2096 S 0.5997 0.33208 1.01605 0.0
N2097 N 0.62606 0.31245 1.01497 0.0
N2098 N 0.58406 0.3276 0.9875 0.0
C2099 C 0.60042 0.30979 0.97539 0.0
C2100 C 0.62308 0.30155 0.9904 0.0
C2101 C 0.43838 0.75167 0.93698 0.0
C2102 C 0.46631 0.75177 0.93924 0.0
C2103 C 0.42243 0.76564 0.95502 0.0
C2104 C 0.43372 0.78024 0.97606 0.0
H2105 H 0.4288 0.74144 0.9206 0.0
H2106 H 0.4011 0.76615 0.95177 0.0
S2107 S 0.50559 0.78514 0.99218 0.0
N2108 N 0.50447 0.76612 0.96541 0.0
N2109 N 0.47436 0.79258 0.99922 0.0
C2110 C 0.46146 0.7791 0.97964 0.0
C2111 C 0.47778 0.76482 0.96124 0.0
C2112 C 0.13388 0.07996 0.41083 0.0
C2113 C 0.13431 0.06741 0.38579 0.0
C2114 C 0.12048 0.10428 0.4149 0.0
C2115 C 0.10695 0.11763 0.3941 0.0
H2116 H 0.14438 0.07116 0.42749 0.0
H2117 H 0.12098 0.11277 0.43466 0.0
S2118 S 0.10127 0.0932 0.32466 0.0
N2119 N 0.11903 0.07002 0.33986 0.0
N2120 N 0.09446 0.11585 0.34749 0.0
C2121 C 0.10655 0.10499 0.3691 0.0
C2122 C 0.12007 0.07999 0.36496 0.0
C2123 C 0.96667 0.14509 0.42726 0.0
C2124 C 0.9885 0.14039 0.41026 0.0
C2125 C 0.943 0.1299 0.42519 0.0
C2126 C 0.94048 0.10914 0.40647 0.0
H2127 H 0.96705 0.16192 0.44075 0.0
H2128 H 0.92601 0.13537 0.43725 0.0
S2129 S 0.99232 0.08731 0.35897 0.0
N2130 N 1.00632 0.11232 0.37518 0.0
N2131 N 0.96228 0.08378 0.37185 0.0
C2132 C 0.96265 0.10327 0.39058 0.0
C2133 C 0.98653 0.11885 0.39237 0.0
C2134 C 0.93792 0.95135 0.37715 0.0
C2135 C 0.94152 0.93575 0.40003 0.0
C2136 C 0.92464 0.97604 0.37819 0.0
C2137 C 0.91389 0.98617 0.40212 0.0
H2138 H 0.94478 0.94394 0.35813 0.0
H2139 H 0.92178 0.98673 0.35969 0.0
S2140 S 0.91867 0.95289 0.46789 0.0
N2141 N 0.93423 0.93229 0.44749 0.0
N2142 N 0.90877 0.97841 0.44957 0.0
C2143 C 0.9182 0.97105 0.42538 0.0
C2144 C 0.93204 0.94592 0.42429 0.0
C2145 C 0.11133 0.92003 0.41453 0.0
C2146 C 0.11729 0.94218 0.39837 0.0
C2147 C 0.08609 0.9078 0.41403 0.0
C2148 C 0.06562 0.9168 0.39699 0.0
H2149 H 0.12653 0.91178 0.42743 0.0
H2150 H 0.08309 0.89041 0.42632 0.0
S2151 S 0.07045 0.97497 0.35151 0.0
N2152 N 0.10014 0.97336 0.36566 0.0
N2153 N 0.05291 0.95031 0.36438 0.0
C2154 C 0.07107 0.93948 0.38129 0.0
C2155 C 0.09674 0.95218 0.3821 0.0
C2156 C 0.13139 0.98644 0.66909 0.0
C2157 C 0.15008 0.99325 0.64926 0.0
C2158 C 0.11811 0.96171 0.6689 0.0
C2159 C 0.12325 0.94266 0.64911 0.0
H2160 H 0.12795 0.99982 0.68564 0.0
H2161 H 0.10508 0.95672 0.68529 0.0
S2162 S 0.16803 0.95111 0.59132 0.0
N2163 N 0.171 0.97939 0.60792 0.0
N2164 N 0.14658 0.93279 0.60818 0.0
C2165 C 0.14066 0.94966 0.62844 0.0
C2166 C 0.15386 0.975 0.62831 0.0
C2167 C 0.10171 0.12431 0.64405 0.0
C2168 C 0.11658 0.11228 0.6647 0.0
C2169 C 0.07711 0.13679 0.64881 0.0
C2170 C 0.06587 0.13752 0.67437 0.0
H2171 H 0.10924 0.12439 0.62392 0.0
H2172 H 0.06698 0.1463 0.6323 0.0
S2173 S 0.0961 0.10877 0.73549 0.0
N2174 N 0.11784 0.10192 0.71187 0.0
N2175 N 0.07133 0.1246 0.72069 0.0
C2176 C 0.07996 0.12478 0.69511 0.0
C2177 C 0.10529 0.11235 0.69031 0.0
C2178 C 0.91893 0.11556 0.65754 0.0
C2179 C 0.94483 0.12061 0.66722 0.0
C2180 C 0.90843 0.08951 0.65646 0.0
C2181 C 0.92313 0.06732 0.66556 0.0
H2182 H 0.90651 0.13201 0.65112 0.0
H2183 H 0.88813 0.08696 0.64961 0.0
S2184 S 0.99226 0.06945 0.69195 0.0
N2185 N 0.98526 0.1009 0.68514 0.0
N2186 N 0.96546 0.05223 0.68364 0.0
C2187 C 0.9493 0.07202 0.67466 0.0
C2188 C 0.96015 0.0985 0.67531 0.0
C2189 C 0.97782 0.90351 0.64749 0.0
C2190 C 0.99939 0.9165 0.65997 0.0
C2191 C 0.95218 0.91512 0.6465 0.0
C2192 C 0.94691 0.94051 0.65748 0.0
H2193 H 0.9804 0.88363 0.6395 0.0
H2194 H 0.93614 0.90384 0.63752 0.0
S2195 S 0.99677 0.98395 0.69055 0.0
N2196 N 1.01384 0.95703 0.68229 0.0
N2197 N 0.96601 0.97876 0.68007 0.0
C2198 C 0.96855 0.95427 0.66886 0.0
C2199 C 0.99459 0.9423 0.67022 0.0
C2200 C 0.40422 0.15572 0.08865 0.0
C2201 C 0.38873 0.14367 0.06853 0.0
C2202 C 0.40677 0.14422 0.11401 0.0
C2203 C 0.39461 0.11976 0.12027 0.0
H2204 H 0.41364 0.1748 0.08522 0.0
H2205 H 0.41803 0.15479 0.12908 0.0
S2206 S 0.35428 0.07841 0.07421 0.0
N2207 N 0.36246 0.10478 0.05633 0.0
N2208 N 0.36799 0.08292 0.10377 0.0
C2209 C 0.38034 0.10668 0.10001 0.0
C2210 C 0.37721 0.11868 0.07426 0.0
C2211 C 0.94431 0.39617 0.07803 0.0
C2212 C 0.91959 0.40839 0.07205 0.0
C2213 C 0.95615 0.39828 0.10346 0.0
C2214 C 0.94361 0.41238 0.12413 0.0
H2215 H 0.95425 0.38412 0.06319 0.0
H2216 H 0.97448 0.38759 0.10742 0.0
S2217 S 0.8803 0.45019 0.1188 0.0
N2218 N 0.88439 0.43708 0.08898 0.0
N2219 N 0.90628 0.4404 0.13648 0.0
C2220 C 0.91966 0.42569 0.11817 0.0
C2221 C 0.90779 0.4239 0.09226 0.0
C2222 C 0.64977 0.89949 0.08241 0.0
C2223 C 0.66521 0.91178 0.06249 0.0
C2224 C 0.64614 0.91146 0.10759 0.0
C2225 C 0.65728 0.93653 0.11386 0.0
H2226 H 0.64131 0.87995 0.07896 0.0
H2227 H 0.63476 0.90081 0.12243 0.0
S2228 S 0.69817 0.97785 0.06837 0.0
N2229 N 0.69092 0.95107 0.05068 0.0
N2230 N 0.68375 0.97351 0.09751 0.0
C2231 C 0.6719 0.94947 0.09379 0.0
C2232 C 0.67596 0.93712 0.06833 0.0
C2233 C 0.12852 0.64351 0.09607 0.0
C2234 C 0.12503 0.66186 0.11713 0.0
C2235 C 0.14592 0.64871 0.07469 0.0
C2236 C 0.16106 0.67227 0.07374 0.0
H2237 H 0.1184 0.62447 0.09669 0.0
H2238 H 0.1487 0.63347 0.05968 0.0
S2239 S 0.15744 0.7279 0.1225 0.0
N2240 N 0.13663 0.7054 0.13439 0.0
N2241 N 0.16954 0.71518 0.09473 0.0
C2242 C 0.15667 0.69137 0.09395 0.0
C2243 C 0.13861 0.68622 0.11545 0.0
C2244 C 0.38884 0.94699 0.98875 0.0
C2245 C 0.40169 0.92234 0.9938 0.0
C2246 C 0.39014 0.95966 0.96363 0.0
C2247 C 0.40416 0.94818 0.94228 0.0
H2248 H 0.37689 0.95626 1.00408 0.0
H2249 H 0.37895 0.97786 0.96049 0.0
S2250 S 0.44385 0.88572 0.94528 0.0
N2251 N 0.43099 0.88843 0.97533 0.0
N2252 N 0.43312 0.91196 0.92857 0.0
C2253 C 0.41818 0.92433 0.94739 0.0
C2254 C 0.41707 0.91155 0.97294 0.0
C2255 C 0.10251 0.39861 0.96737 0.0
C2256 C 0.11626 0.40933 0.94542 0.0
C2257 C 0.11496 0.39601 0.99252 0.0
C2258 C 0.14147 0.40441 0.99683 0.0
H2259 H 0.08189 0.39266 0.96523 0.0
H2260 H 0.10366 0.38757 1.00879 0.0
S2261 S 0.18723 0.43008 0.94489 0.0
N2262 N 0.15874 0.42554 0.92914 0.0
N2263 N 0.18156 0.42142 0.97599 0.0
C2264 C 0.15548 0.41445 0.9748 0.0
C2265 C 0.14305 0.41669 0.94927 0.0
C2266 C 0.67457 0.15564 0.94132 0.0
C2267 C 0.67681 0.1277 0.93864 0.0
C2268 C 0.67387 0.1681 0.96655 0.0
C2269 C 0.67621 0.1532 0.99021 0.0
H2270 H 0.67377 0.16798 0.92368 0.0
H2271 H 0.67285 0.18965 0.96749 0.0
S2272 S 0.68189 0.07953 0.99438 0.0
N2273 N 0.6803 0.08561 0.96214 0.0
N2274 N 0.68007 0.10887 1.00919 0.0
C2275 C 0.67795 0.12526 0.98779 0.0
C2276 C 0.67795 0.11257 0.96217 0.0
C2277 C 0.90664 0.6501 0.97097 0.0
C2278 C 0.92093 0.66081 0.99264 0.0
C2279 C 0.9173 0.64995 0.94498 0.0
C2280 C 0.94296 0.6601 0.93942 0.0
H2281 H 0.88654 0.64285 0.97384 0.0
H2282 H 0.9051 0.64226 0.92896 0.0
S2283 S 0.98947 0.68864 0.98932 0.0
N2284 N 0.96287 0.68056 1.0068 0.0
N2285 N 0.98276 0.68006 0.95832 0.0
C2286 C 0.95792 0.66974 0.9611 0.0
C2287 C 0.94696 0.67019 0.98751 0.0
C2288 C 0.0987 0.39318 0.11299 0.0
C2289 C 0.12069 0.40612 0.12458 0.0
C2290 C 0.07339 0.3934 0.12528 0.0
C2291 C 0.06873 0.40699 0.1495 0.0
H2292 H 0.10138 0.38176 0.09491 0.0
H2293 H 0.05749 0.38216 0.11598 0.0
S2294 S 0.11925 0.44692 0.18607 0.0
N2295 N 0.13577 0.43468 0.16046 0.0
N2296 N 0.08846 0.43572 0.18315 0.0
C2297 C 0.09035 0.42129 0.1604 0.0
C2298 C 0.1162 0.42065 0.14811 0.0
C2299 C 0.0886 0.65346 0.90328 0.0
C2300 C 0.06707 0.66624 0.91594 0.0
C2301 C 0.1142 0.65295 0.91481 0.0
C2302 C 0.11942 0.66466 0.93978 0.0
H2303 H 0.08607 0.64503 0.88361 0.0
H2304 H 0.13036 0.64403 0.90368 0.0
S2305 S 0.0697 0.69844 0.98247 0.0
N2306 N 0.05256 0.68947 0.95585 0.0
N2307 N 0.1005 0.68794 0.97752 0.0
C2308 C 0.09784 0.67611 0.95338 0.0
C2309 C 0.07179 0.67708 0.94146 0.0
C2310 C 0.40043 0.12427 0.91499 0.0
C2311 C 0.39316 0.12808 0.94182 0.0
C2312 C 0.40124 0.09862 0.90337 0.0
C2313 C 0.39428 0.07566 0.91794 0.0
H2314 H 0.40516 0.14135 0.90274 0.0
H2315 H 0.40612 0.09695 0.88247 0.0
S2316 S 0.37459 0.07448 0.9891 0.0
N2317 N 0.37976 0.10636 0.98278 0.0
N2318 N 0.38082 0.05853 0.96106 0.0
C2319 C 0.38763 0.07916 0.94496 0.0
C2320 C 0.38722 0.1052 0.95687 0.0
C2321 C 0.97284 0.43609 0.91176 0.0
C2322 C 0.99418 0.41928 0.91887 0.0
C2323 C 0.94839 0.43512 0.92543 0.0
C2324 C 0.94454 0.41789 0.94719 0.0
H2325 H 0.97428 0.44857 0.89425 0.0
H2326 H 0.93187 0.44694 0.91812 0.0
S2327 S 0.99484 0.3719 0.97551 0.0
N2328 N 1.01031 0.38617 0.95029 0.0
N2329 N 0.96469 0.38514 0.97636 0.0
C2330 C 0.96627 0.40244 0.95568 0.0
C2331 C 0.99098 0.40293 0.94142 0.0
C2332 C 0.66229 0.95149 0.91516 0.0
C2333 C 0.67033 0.94458 0.94111 0.0
C2334 C 0.66378 0.97777 0.90576 0.0
C2335 C 0.67332 0.99882 0.92174 0.0
H2336 H 0.65514 0.93626 0.90168 0.0
H2337 H 0.65816 0.98127 0.88534 0.0
S2338 S 0.69581 0.99192 0.99188 0.0
N2339 N 0.6875 0.96128 0.98312 0.0
N2340 N 0.68998 1.01084 0.96562 0.0
C2341 C 0.68069 0.99242 0.94812 0.0
C2342 C 0.67917 0.9654 0.95776 0.0
C2343 C 0.98148 0.62698 0.14973 0.0
C2344 C 1.00238 0.64498 0.14458 0.0
C2345 C 0.95687 0.62877 0.13611 0.0
C2346 C 0.95239 0.64807 0.1162 0.0
H2347 H 0.98337 0.61271 0.16578 0.0
H2348 H 0.94069 0.61586 0.14211 0.0
S2349 S 1.00123 0.69832 0.09342 0.0
N2350 N 1.01724 0.68182 0.117 0.0
N2351 N 0.97149 0.6844 0.09101 0.0
C2352 C 0.97365 0.66499 0.10969 0.0
C2353 C 0.99847 0.66363 0.12394 0.0
C2354 C 0.41412 0.97267 0.15456 0.0
C2355 C 0.40123 0.99399 0.14155 0.0
C2356 C 0.41594 0.9472 0.14286 0.0
C2357 C 0.40555 0.94195 0.11735 0.0
H2358 H 0.42148 0.97514 0.1746 0.0
H2359 H 0.42483 0.93115 0.15424 0.0
S2360 S 0.37165 0.99116 0.07387 0.0
N2361 N 0.37896 1.00825 0.10102 0.0
N2362 N 0.38308 0.96067 0.07889 0.0
C2363 C 0.39386 0.96337 0.10352 0.0
C2364 C 0.39148 0.98922 0.11566 0.0
C2365 C 0.64062 0.11007 0.12839 0.0
C2366 C 0.65824 0.11793 0.10809 0.0
C2367 C 0.64008 0.08366 0.13805 0.0
C2368 C 0.65806 0.0641 0.12875 0.0
H2369 H 0.62771 0.12476 0.13748 0.0
H2370 H 0.62653 0.0791 0.15412 0.0
S2371 S 0.70594 0.07377 0.07322 0.0
N2372 N 0.69193 0.10334 0.0769 0.0
N2373 N 0.69192 0.05417 0.09555 0.0
C2374 C 0.6746 0.07139 0.1072 0.0
C2375 C 0.67453 0.09814 0.09686 0.0
C2376 C 0.6461 0.61436 0.89513 0.0
C2377 C 0.61853 0.61612 0.88995 0.0
C2378 C 0.65912 0.58952 0.89753 0.0
C2379 C 0.64524 0.56536 0.89405 0.0
H2380 H 0.65779 0.63242 0.89674 0.0
H2381 H 0.68047 0.58931 0.90074 0.0
S2382 S 0.57266 0.55896 0.88106 0.0
N2383 N 0.57765 0.59148 0.88261 0.0
N2384 N 0.60204 0.54494 0.88617 0.0
C2385 C 0.61753 0.56688 0.88952 0.0
C2386 C 0.60421 0.59217 0.88774 0.0
C2387 C 0.46312 0.62049 0.92305 0.0
C2388 C 0.44673 0.61336 0.90126 0.0
C2389 C 0.48683 0.63518 0.9198 0.0
C2390 C 0.49545 0.64359 0.89455 0.0
H2391 H 0.45718 0.61527 0.94305 0.0
H2392 H 0.49791 0.64087 0.93741 0.0
S2393 S 0.46117 0.62829 0.83062 0.0
N2394 N 0.44191 0.61448 0.85335 0.0
N2395 N 0.48634 0.64183 0.84697 0.0
C2396 C 0.48 0.63537 0.8724 0.0
C2397 C 0.4558 0.62032 0.87579 0.0
C2398 C 0.41368 0.47552 0.93601 0.0
C2399 C 0.4191 0.49476 0.91633 0.0
C2400 C 0.42691 0.45072 0.93625 0.0
C2401 C 0.44659 0.44453 0.91736 0.0
H2402 H 0.39771 0.47877 0.95009 0.0
H2403 H 0.42083 0.43573 0.95047 0.0
S2404 S 0.46995 0.48861 0.86326 0.0
N2405 N 0.44667 0.50628 0.87839 0.0
N2406 N 0.47197 0.46009 0.87957 0.0
C2407 C 0.45338 0.46415 0.89871 0.0
C2408 C 0.43955 0.48915 0.89804 0.0
C2409 C 0.57404 0.44216 0.89806 0.0
C2410 C 0.56865 0.41884 0.91294 0.0
C2411 C 0.59939 0.45433 0.89828 0.0
C2412 C 0.62054 0.44354 0.91314 0.0
H2413 H 0.55885 0.45057 0.88524 0.0
H2414 H 0.60292 0.47132 0.88549 0.0
S2415 S 0.61674 0.38522 0.95816 0.0
N2416 N 0.58652 0.38755 0.94535 0.0
N2417 N 0.63399 0.40987 0.94497 0.0
C2418 C 0.61514 0.42131 0.92925 0.0
C2419 C 0.58928 0.40916 0.9294 0.0
C2420 C 0.62268 0.46063 0.14414 0.0
C2421 C 0.63002 0.4415 0.16342 0.0
C2422 C 0.63685 0.485 0.14155 0.0
C2423 C 0.65846 0.49108 0.15849 0.0
H2424 H 0.60521 0.4573 0.13192 0.0
H2425 H 0.63011 0.49958 0.12716 0.0
S2426 S 0.68779 0.44594 0.20926 0.0
N2427 N 0.66235 0.42908 0.19707 0.0
N2428 N 0.68783 0.4746 0.19322 0.0
C2429 C 0.66659 0.47142 0.17675 0.0
C2430 C 0.6527 0.44674 0.17894 0.0
C2431 C 0.59575 0.62286 0.14317 0.0
C2432 C 0.61279 0.61468 0.16413 0.0
C2433 C 0.57196 0.63702 0.14777 0.0
C2434 C 0.56346 0.64328 0.17363 0.0
H2435 H 0.60095 0.61865 0.12274 0.0
H2436 H 0.56023 0.64334 0.1308 0.0
S2437 S 0.59971 0.62593 0.23585 0.0
N2438 N 0.61877 0.61375 0.21203 0.0
N2439 N 0.57375 0.63946 0.22078 0.0
C2440 C 0.57961 0.63432 0.19493 0.0
C2441 C 0.6042 0.62022 0.19019 0.0
C2442 C 0.4098 0.62877 0.14767 0.0
C2443 C 0.43506 0.62977 0.16 0.0
C2444 C 0.39423 0.60549 0.14766 0.0
C2445 C 0.40319 0.58166 0.1594 0.0
H2446 H 0.40134 0.6466 0.13893 0.0
H2447 H 0.37426 0.6066 0.13957 0.0
S2448 S 0.46851 0.57248 0.1928 0.0
N2449 N 0.4689 0.604 0.18319 0.0
N2450 N 0.43971 0.56007 0.18266 0.0
C2451 C 0.42906 0.5817 0.17038 0.0
C2452 C 0.44498 0.6057 0.17069 0.0
C2453 C 0.49256 0.44326 0.17381 0.0
C2454 C 0.49804 0.41918 0.16017 0.0
C2455 C 0.46732 0.45579 0.17239 0.0
C2456 C 0.4463 0.44456 0.15764 0.0
H2457 H 0.50768 0.4521 0.18642 0.0
H2458 H 0.46376 0.47352 0.18414 0.0
S2459 S 0.44999 0.38271 0.11732 0.0
N2460 N 0.48011 0.38558 0.13028 0.0
N2461 N 0.43293 0.40867 0.1282 0.0
C2462 C 0.45173 0.42112 0.14318 0.0
C2463 C 0.47747 0.40861 0.14424 0.0
C2464 C 0.8999 0.62927 0.5806 0.0
C2465 C 0.88195 0.65028 0.57526 0.0
C2466 C 0.89992 0.61579 0.60548 0.0
C2467 C 0.88242 0.6232 0.62627 0.0
H2468 H 0.91339 0.62263 0.56518 0.0
H2469 H 0.91326 0.59904 0.60814 0.0
S2470 S 0.83416 0.67959 0.62334 0.0
N2471 N 0.84695 0.67821 0.59325 0.0
N2472 N 0.84933 0.65587 0.64023 0.0
C2473 C 0.86564 0.64534 0.62143 0.0
C2474 C 0.86478 0.65801 0.59593 0.0
C2475 C 0.43465 0.90906 0.57384 0.0
C2476 C 0.40708 0.9041 0.57142 0.0
C2477 C 0.44755 0.90938 0.59891 0.0
C2478 C 0.43363 0.90377 0.6226 0.0
H2479 H 0.44643 0.9124 0.55614 0.0
H2480 H 0.4688 0.91297 0.59967 0.0
S2481 S 0.36141 0.88863 0.62723 0.0
N2482 N 0.36639 0.89358 0.59516 0.0
N2483 N 0.39059 0.89317 0.64177 0.0
C2484 C 0.40606 0.89887 0.62041 0.0
C2485 C 0.39283 0.89929 0.59502 0.0
C2486 C 0.1716 0.45054 0.59246 0.0
C2487 C 0.15866 0.43765 0.61365 0.0
C2488 C 0.17091 0.44007 0.56633 0.0
C2489 C 0.15684 0.41644 0.55998 0.0
H2490 H 0.18319 0.46832 0.59631 0.0
H2491 H 0.182 0.45041 0.55105 0.0
S2492 S 0.1168 0.37696 0.60802 0.0
N2493 N 0.12965 0.40117 0.62622 0.0
N2494 N 0.12783 0.38181 0.5775 0.0
C2495 C 0.14273 0.40414 0.58093 0.0
C2496 C 0.14381 0.41461 0.60757 0.0
C2497 C 0.65096 0.14829 0.58878 0.0
C2498 C 0.63972 0.16184 0.56689 0.0
C2499 C 0.63859 0.14839 0.61399 0.0
C2500 C 0.61403 0.16137 0.61838 0.0
H2501 H 0.67026 0.13887 0.5869 0.0
H2502 H 0.64874 0.13894 0.6305 0.0
S2503 S 0.57516 0.19812 0.5675 0.0
N2504 N 0.60181 0.18769 0.55128 0.0
N2505 N 0.57839 0.18703 0.59828 0.0
C2506 C 0.6019 0.17378 0.59641 0.0
C2507 C 0.61477 0.17425 0.57086 0.0
C2508 C 0.9144 0.41652 0.45233 0.0
C2509 C 0.90149 0.44114 0.44767 0.0
C2510 C 0.91342 0.40366 0.47733 0.0
C2511 C 0.89891 0.41444 0.49878 0.0
H2512 H 0.92494 0.40681 0.43625 0.0
H2513 H 0.92304 0.38444 0.47943 0.0
S2514 S 0.86245 0.47897 0.49756 0.0
N2515 N 0.87478 0.47629 0.46725 0.0
N2516 N 0.87229 0.45205 0.51377 0.0
C2517 C 0.88652 0.43941 0.49459 0.0
C2518 C 0.888 0.45276 0.46927 0.0
C2519 C 0.65153 0.92439 0.47716 0.0
C2520 C 0.63992 0.90964 0.49789 0.0
C2521 C 0.63868 0.92744 0.45245 0.0
C2522 C 0.61336 0.91625 0.44719 0.0
H2523 H 0.67106 0.93317 0.47977 0.0
H2524 H 0.64889 0.93866 0.43719 0.0
S2525 S 0.57363 0.87685 0.49541 0.0
N2526 N 0.60133 0.88396 0.51171 0.0
N2527 N 0.57683 0.8905 0.46571 0.0
C2528 C 0.6014 0.90158 0.46787 0.0
C2529 C 0.61471 0.89815 0.49303 0.0
C2530 C 0.18323 0.61642 0.48965 0.0
C2531 C 0.17023 0.64093 0.49465 0.0
C2532 C 0.18264 0.60428 0.4643 0.0
C2533 C 0.16931 0.61631 0.44281 0.0
H2534 H 0.19481 0.60696 0.50521 0.0
H2535 H 0.19401 0.58622 0.46106 0.0
S2536 S 0.13066 0.67916 0.44502 0.0
N2537 N 0.14202 0.67551 0.47563 0.0
N2538 N 0.14172 0.65311 0.42828 0.0
C2539 C 0.15534 0.64004 0.44768 0.0
C2540 C 0.15552 0.65219 0.47349 0.0
C2541 C 0.44799 0.17404 0.46171 0.0
C2542 C 0.43623 0.15768 0.4422 0.0
C2543 C 0.43719 0.17603 0.48752 0.0
C2544 C 0.41452 0.16127 0.49517 0.0
H2545 H 0.46496 0.18631 0.45661 0.0
H2546 H 0.44638 0.18971 0.50146 0.0
S2547 S 0.37751 0.11387 0.45201 0.0
N2548 N 0.40151 0.12535 0.43276 0.0
N2549 N 0.38154 0.1287 0.48105 0.0
C2550 C 0.40335 0.14391 0.47613 0.0
C2551 C 0.41407 0.14225 0.44975 0.0
C2552 C 0.56853 0.90453 0.61726 0.0
C2553 C 0.56253 0.91976 0.64018 0.0
C2554 C 0.59474 0.90238 0.60735 0.0
C2555 C 0.61624 0.91495 0.62017 0.0
H2556 H 0.55296 0.89349 0.60719 0.0
H2557 H 0.59841 0.88991 0.59017 0.0
S2558 S 0.61171 0.95993 0.67837 0.0
N2559 N 0.58072 0.95005 0.67342 0.0
N2560 N 0.62974 0.94506 0.65531 0.0
C2561 C 0.61057 0.9311 0.64227 0.0
C2562 C 0.58385 0.93378 0.65208 0.0
C2563 C 0.59702 0.17953 0.45334 0.0
C2564 C 0.61591 0.16175 0.4427 0.0
C2565 C 0.57111 0.1817 0.44242 0.0
C2566 C 0.56272 0.16578 0.42074 0.0
H2567 H 0.60273 0.19267 0.46944 0.0
H2568 H 0.5578 0.19654 0.45067 0.0
S2569 S 0.60401 0.11364 0.38799 0.0
N2570 N 0.62402 0.12666 0.41063 0.0
N2571 N 0.57541 0.12962 0.39095 0.0
C2572 C 0.58112 0.14674 0.4111 0.0
C2573 C 0.60764 0.14507 0.42179 0.0
C2574 C 0.87944 0.60365 0.45867 0.0
C2575 C 0.89894 0.62205 0.45062 0.0
C2576 C 0.87818 0.57779 0.44757 0.0
C2577 C 0.89663 0.56902 0.42819 0.0
H2578 H 0.86424 0.60975 0.47266 0.0
H2579 H 0.86198 0.56492 0.4536 0.0
S2580 S 0.95406 0.60863 0.40346 0.0
N2581 N 0.93856 0.62902 0.42405 0.0
N2582 N 0.93697 0.58053 0.40395 0.0
C2583 C 0.91734 0.5868 0.42144 0.0
C2584 C 0.91825 0.61323 0.43237 0.0
C2585 C 0.45916 0.90382 0.45248 0.0
C2586 C 0.43975 0.9238 0.44926 0.0
C2587 C 0.48375 0.90499 0.43889 0.0
C2588 C 0.49009 0.9263 0.42163 0.0
H2589 H 0.45452 0.88628 0.46411 0.0
H2590 H 0.49733 0.88831 0.44085 0.0
S2591 S 0.44657 0.98471 0.40826 0.0
N2592 N 0.42897 0.96612 0.42884 0.0
N2593 N 0.47509 0.96884 0.40388 0.0
C2594 C 0.47142 0.94723 0.4197 0.0
C2595 C 0.44629 0.9458 0.43326 0.0
C2596 C 0.15782 0.45034 0.42321 0.0
C2597 C 0.17886 0.43938 0.43825 0.0
C2598 C 0.15948 0.47634 0.41244 0.0
C2599 C 0.1819 0.49276 0.41695 0.0
H2600 H 0.14028 0.43844 0.41921 0.0
H2601 H 0.14305 0.48364 0.40048 0.0
S2602 S 0.24186 0.47351 0.45606 0.0
N2603 N 0.22247 0.44699 0.45748 0.0
N2604 N 0.22544 0.49572 0.43817 0.0
C2605 C 0.20274 0.48207 0.43256 0.0
C2606 C 0.20126 0.45548 0.44294 0.0
C2607 C 0.45979 0.15048 0.62248 0.0
C2608 C 0.44159 0.17144 0.62739 0.0
C2609 C 0.48384 0.14805 0.63724 0.0
C2610 C 0.49067 0.16674 0.6571 0.0
H2611 H 0.45582 0.13643 0.60662 0.0
H2612 H 0.49748 0.13199 0.63255 0.0
S2613 S 0.44778 0.22254 0.6804 0.0
N2614 N 0.43069 0.20883 0.65594 0.0
N2615 N 0.47559 0.20517 0.68249 0.0
C2616 C 0.47197 0.18696 0.66278 0.0
C2617 C 0.44757 0.18907 0.64827 0.0
C2618 C 0.88785 0.48677 0.62077 0.0
C2619 C 0.90293 0.49394 0.6435 0.0
C2620 C 0.88833 0.46061 0.61026 0.0
C2621 C 0.90372 0.44036 0.62213 0.0
H2622 H 0.87488 0.50126 0.61141 0.0
H2623 H 0.87574 0.45589 0.5934 0.0
S2624 S 0.94983 0.44895 0.67918 0.0
N2625 N 0.93602 0.4786 0.67549 0.0
N2626 N 0.93645 0.42983 0.65602 0.0
C2627 C 0.91979 0.44744 0.64396 0.0
C2628 C 0.91954 0.47404 0.65453 0.0
C2629 C 0.15112 0.58405 0.65282 0.0
C2630 C 0.16447 0.56268 0.64044 0.0
C2631 C 0.15173 0.60996 0.64206 0.0
C2632 C 0.1651 0.61552 0.61809 0.0
H2633 H 0.14132 0.5811 0.67175 0.0
H2634 H 0.14217 0.62598 0.65288 0.0
S2635 S 0.20147 0.56641 0.57673 0.0
N2636 N 0.19052 0.54876 0.60219 0.0
N2637 N 0.19086 0.5972 0.58166 0.0
C2638 C 0.17737 0.59413 0.60482 0.0
C2639 C 0.1773 0.56784 0.61608 0.0
C2640 C 0.06036 0.28466 0.29044 0.0
C2641 C 0.04547 0.26098 0.29189 0.0
C2642 C 0.05626 0.30307 0.26988 0.0
C2643 C 0.0369 0.2987 0.25002 0.0
H2644 H 0.07427 0.28967 0.30617 0.0
H2645 H 0.06711 0.32171 0.27066 0.0
S2646 S 0.9947 0.23839 0.24327 0.0
N2647 N 1.01221 0.23303 0.27061 0.0
N2648 N 1.00452 0.26762 0.23178 0.0
C2649 C 0.02307 0.27429 0.25032 0.0
C2650 C 0.02741 0.25541 0.27125 0.0
C2651 C 0.7535 0.05164 0.26429 0.0
C2652 C 0.75864 0.03036 0.24672 0.0
C2653 C 0.76992 0.05652 0.28648 0.0
C2654 C 0.79243 0.04061 0.29178 0.0
H2655 H 0.73594 0.06391 0.26156 0.0
H2656 H 0.76467 0.07257 0.2999 0.0
S2657 S 0.81549 0.98329 0.25119 0.0
N2658 N 0.78848 0.99391 0.23563 0.0
N2659 N 0.81942 1.00318 0.27708 0.0
C2660 C 0.79836 0.01989 0.27383 0.0
C2661 C 0.78144 1.01472 0.25143 0.0
C2662 C 0.07492 0.75998 0.2908 0.0
C2663 C 0.06136 0.75738 0.26633 0.0
C2664 C 0.06873 0.78046 0.30894 0.0
C2665 C 0.04849 0.79922 0.30359 0.0
H2666 H 0.08986 0.74543 0.29643 0.0
H2667 H 0.07892 0.78069 0.32794 0.0
S2668 S 1.00853 0.8029 0.24147 0.0
N2669 N 0.02781 0.77657 0.23713 0.0
N2670 N 1.01647 0.81513 0.27093 0.0
C2671 C 0.03574 0.79771 0.27862 0.0
C2672 C 0.04213 0.77689 0.26008 0.0
C2673 C 0.2968 1.00699 0.26928 0.0
C2674 C 0.29339 0.02347 0.24692 0.0
C2675 C 0.27651 1.00389 0.28819 0.0
C2676 C 0.25169 1.01693 0.28557 0.0
H2677 H 0.31582 0.99743 0.27294 0.0
H2678 H 0.28084 0.992 0.30564 0.0
S2679 S 0.2315 0.05965 0.2287 0.0
N2680 N 0.26262 0.05135 0.22203 0.0
N2681 N 0.22421 0.04503 0.25719 0.0
C2682 C 0.24759 0.03249 0.26259 0.0
C2683 C 0.26843 0.03584 0.2434 0.0
C2684 C 0.05741 0.78974 0.77098 0.0
C2685 C 0.0423 0.81341 0.76939 0.0
C2686 C 0.05294 0.77073 0.79094 0.0
C2687 C 0.03309 0.77434 0.81035 0.0
H2688 H 0.07222 0.78526 0.75599 0.0
H2689 H 0.06443 0.75245 0.79038 0.0
S2690 S 0.98974 0.83398 0.81697 0.0
N2691 N 1.00788 0.84022 0.79033 0.0
N2692 N 0.99943 0.80445 0.82784 0.0
C2693 C 1.01839 0.7983 0.80961 0.0
C2694 C 0.02297 0.81776 0.78919 0.0
C2695 C 0.2841 1.01783 0.79702 0.0
C2696 C 0.28355 0.03395 0.81996 0.0
C2697 C 0.26903 0.02413 0.77454 0.0
C2698 C 0.25284 0.04698 0.7737 0.0
H2699 H 0.29756 1.00102 0.79561 0.0
H2700 H 0.27094 1.01148 0.75716 0.0
S2701 S 0.24104 0.09384 0.82939 0.0
N2702 N 0.26276 0.07217 0.84143 0.0
N2703 N 0.23483 0.08436 0.79852 0.0
C2704 C 0.25053 0.06237 0.79691 0.0
C2705 C 0.26587 0.05585 0.82011 0.0
C2706 C 0.02902 0.25682 0.80092 0.0
C2707 C 0.04378 0.25122 0.77777 0.0
C2708 C 0.03552 0.27857 0.8174 0.0
C2709 C 0.05678 0.29571 0.81113 0.0
H2710 H 1.01165 0.24498 0.80569 0.0
H2711 H 0.02272 0.28305 0.83413 0.0
S2712 S 0.10261 0.28908 0.75384 0.0
N2713 N 0.08154 0.26406 0.75035 0.0
N2714 N 0.09359 0.30467 0.7813 0.0
C2715 C 0.07252 0.28951 0.78891 0.0
C2716 C 0.06607 0.26735 0.77226 0.0
C2717 C 0.81255 0.05425 0.77703 0.0
C2718 C 0.82631 0.02974 0.77615 0.0
C2719 C 0.79234 0.05902 0.79558 0.0
C2720 C 0.78418 0.03933 0.81378 0.0
H2721 H 0.81576 0.06935 0.76204 0.0
H2722 H 0.78148 0.07765 0.7942 0.0
S2723 S 0.81769 0.97438 0.82461 0.0
N2724 N 0.83399 0.98777 0.79945 0.0
N2725 N 0.79437 0.9961 0.83286 0.0
C2726 C 0.79941 1.01586 0.81514 0.0
C2727 C 0.82068 1.01118 0.7966 0.0
C2728 C 0.26018 0.25255 0.03193 0.0
C2729 C 0.27967 0.25414 1.01199 0.0
C2730 C 0.24123 0.27303 0.03534 0.0
C2731 C 0.24135 0.29619 0.0193 0.0
H2732 H 0.26095 0.23652 0.04633 0.0
H2733 H 0.22748 0.27148 0.05182 0.0
S2734 S 0.28717 0.30838 0.9626 0.0
N2735 N 0.29637 0.27905 0.97432 0.0
N2736 N 0.26188 0.31795 0.98121 0.0
C2737 C 0.25954 0.29684 0.99795 0.0
C2738 C 0.2784 0.27575 0.99424 0.0
C2739 C 0.28021 0.81673 1.00454 0.0
C2740 C 0.28457 0.82329 0.03144 0.0
C2741 C 0.26093 0.79792 0.997 0.0
C2742 C 0.24556 0.78411 1.01599 0.0
H2743 H 0.29305 0.82462 0.98918 0.0
H2744 H 0.25942 0.79282 0.97612 0.0
S2745 S 0.24432 0.79883 0.08837 0.0
N2746 N 0.2674 0.81894 0.07647 0.0
N2747 N 0.23295 0.78187 0.06261 0.0
C2748 C 0.24765 0.79255 0.04264 0.0
C2749 C 0.26678 0.8124 0.05026 0.0
C2750 C 0.78542 0.27474 0.06053 0.0
C2751 C 0.78558 0.25106 0.04545 0.0
C2752 C 0.80408 0.29505 0.05612 0.0
C2753 C 0.8238 0.29272 0.03638 0.0
H2754 H 0.76985 0.27833 0.07497 0.0
H2755 H 0.80209 0.31336 0.06738 0.0
S2756 S 0.83524 0.23343 0.99377 0.0
N2757 N 0.80889 0.22544 1.01168 0.0
N2758 N 0.84389 0.26374 1.00329 0.0
C2759 C 0.82506 0.26865 0.02202 0.0
C2760 C 0.80602 0.24785 0.02657 0.0
C2761 C 0.79829 0.76537 1.01235 0.0
C2762 C 0.81785 0.76931 0.0321 0.0
C2763 C 0.7778 0.78393 1.00808 0.0
C2764 C 0.7757 0.80734 0.02341 0.0
H2765 H 0.7981 0.74723 1.00067 0.0
H2766 H 0.76291 0.77941 0.99312 0.0
S2767 S 0.82284 0.82856 0.07619 0.0
N2768 N 0.83467 0.79955 0.06606 0.0
N2769 N 0.7958 0.83419 0.05824 0.0
C2770 C 0.79535 0.81194 0.04286 0.0
C2771 C 0.81646 0.79305 0.04713 0.0
C2772 C 0.52307 0.79409 0.79588 0.0
C2773 C 0.54582 0.77787 0.79383 0.0
C2774 C 0.51821 0.81471 0.77775 0.0
C2775 C 0.536 0.82026 0.75685 0.0
H2776 H 0.50925 0.79128 0.81215 0.0
H2777 H 0.50082 0.82716 0.78076 0.0
S2778 S 0.59766 0.78256 0.74169 0.0
N2779 N 0.58554 0.76758 0.76831 0.0
N2780 N 0.57659 0.80682 0.73431 0.0
C2781 C 0.55815 0.80336 0.7537 0.0
C2782 C 0.56304 0.78209 0.7722 0.0
C2783 C 0.29165 0.5595 0.77977 0.0
C2784 C 0.29498 0.54176 0.80125 0.0
C2785 C 0.27291 0.55436 0.75925 0.0
C2786 C 0.25688 0.53118 0.75928 0.0
H2787 H 0.30291 0.5779 0.77928 0.0
H2788 H 0.27082 0.56878 0.74337 0.0
S2789 S 0.25847 0.47819 0.81108 0.0
N2790 N 0.28149 0.49959 0.82063 0.0
N2791 N 0.24583 0.49059 0.78342 0.0
C2792 C 0.26052 0.51317 0.78057 0.0
C2793 C 0.27964 0.51826 0.8011 0.0
C2794 C 0.57014 0.27299 0.79663 0.0
C2795 C 0.55692 0.26962 0.77218 0.0
C2796 C 0.56363 0.29401 0.81379 0.0
C2797 C 0.54353 0.31257 0.80731 0.0
H2798 H 0.585 0.25866 0.80299 0.0
H2799 H 0.5735 0.29484 0.83295 0.0
S2800 S 0.50425 0.31382 0.74478 0.0
N2801 N 0.52366 0.2874 0.74173 0.0
N2802 N 0.51181 0.32725 0.77381 0.0
C2803 C 0.53103 0.31019 0.78237 0.0
C2804 C 0.53768 0.28872 0.76483 0.0
C2805 C 0.78267 0.54956 0.76896 0.0
C2806 C 0.7917 0.5291 0.75201 0.0
C2807 C 0.76118 0.54577 0.7862 0.0
C2808 C 0.74703 0.52153 0.78693 0.0
H2809 H 0.79352 0.56818 0.77026 0.0
H2810 H 0.75711 0.56146 0.80039 0.0
S2811 S 0.75817 0.46415 0.74139 0.0
N2812 N 0.78225 0.48524 0.7339 0.0
N2813 N 0.7404 0.47873 0.76487 0.0
C2814 C 0.75379 0.50208 0.76768 0.0
C2815 C 0.77632 0.50576 0.75049 0.0
C2816 C 0.53516 0.2629 0.28648 0.0
C2817 C 0.51496 0.26875 0.30485 0.0
C2818 C 0.5398 0.27923 0.26437 0.0
C2819 C 0.52487 0.30267 0.25969 0.0
H2820 H 0.54712 0.24506 0.28883 0.0
H2821 H 0.55522 0.27314 0.25062 0.0
S2822 S 0.46974 0.3272 0.30238 0.0
N2823 N 0.47951 0.29934 0.31698 0.0
N2824 N 0.48897 0.33087 0.27601 0.0
C2825 C 0.50448 0.30878 0.278 0.0
C2826 C 0.49942 0.29171 0.3004 0.0
C2827 C 0.78346 0.53568 0.26416 0.0
C2828 C 0.7634 0.55508 0.26731 0.0
C2829 C 0.79929 0.52723 0.28551 0.0
C2830 C 0.79582 0.53749 0.31136 0.0
H2831 H 0.78717 0.52692 0.24482 0.0
H2832 H 0.81498 0.51299 0.28142 0.0
S2833 S 0.74477 0.5874 0.33097 0.0
N2834 N 0.74016 0.58363 0.29865 0.0
N2835 N 0.76952 0.56724 0.33912 0.0
C2836 C 0.77527 0.55636 0.31508 0.0
C2837 C 0.75909 0.56511 0.2931 0.0
C2838 C 0.51568 0.79038 0.26803 0.0
C2839 C 0.52936 0.7659 0.27001 0.0
C2840 C 0.52153 0.81193 0.28472 0.0
C2841 C 0.54185 0.81063 0.30405 0.0
H2842 H 0.50073 0.79345 0.25279 0.0
H2843 H 0.51013 0.83008 0.28202 0.0
S2844 S 0.58259 0.75077 0.31931 0.0
N2845 N 0.56297 0.74106 0.29474 0.0
N2846 N 0.57486 0.78223 0.32526 0.0
C2847 C 0.55525 0.78612 0.30703 0.0
C2848 C 0.54897 0.76377 0.29014 0.0
C2849 C 0.31949 0.50415 0.29586 0.0
C2850 C 0.33292 0.5236 0.28072 0.0
C2851 C 0.30116 0.51127 0.31563 0.0
C2852 C 0.29596 0.53819 0.32168 0.0
H2853 H 0.32126 0.48326 0.29069 0.0
H2854 H 0.28931 0.49554 0.32437 0.0
S2855 S 0.33255 0.59631 0.29422 0.0
N2856 N 0.3439 0.57064 0.27709 0.0
N2857 N 0.31115 0.5839 0.3158 0.0
C2858 C 0.31248 0.55754 0.30972 0.0
C2859 C 0.33064 0.5503 0.28897 0.0
C2860 C 0.74386 0.78007 0.53601 0.0
C2861 C 0.74681 0.80497 0.52341 0.0
C2862 C 0.76244 0.75937 0.5322 0.0
C2863 C 0.78484 0.76272 0.51568 0.0
H2864 H 0.72737 0.77677 0.54947 0.0
H2865 H 0.75959 0.7408 0.54279 0.0
S2866 S 0.80237 0.82451 0.47892 0.0
N2867 N 0.77414 0.83185 0.494 0.0
N2868 N 0.80901 0.79332 0.487 0.0
C2869 C 0.78769 0.78738 0.50253 0.0
C2870 C 0.76874 0.80837 0.50635 0.0
C2871 C 0.75908 0.28076 0.51883 0.0
C2872 C 0.75956 0.25659 0.5333 0.0
C2873 C 0.77943 0.30003 0.52154 0.0
C2874 C 0.80109 0.29601 0.53892 0.0
H2875 H 0.74286 0.28478 0.50517 0.0
H2876 H 0.77809 0.31827 0.51011 0.0
S2877 S 0.81347 0.23523 0.57931 0.0
N2878 N 0.78484 0.22926 0.56427 0.0
N2879 N 0.8226 0.26524 0.56951 0.0
C2880 C 0.80197 0.27185 0.55322 0.0
C2881 C 0.78137 0.25228 0.55043 0.0
C2882 C 0.28867 0.79028 0.5027 0.0
C2883 C 0.31287 0.79219 0.51689 0.0
C2884 C 0.27049 0.76953 0.50738 0.0
C2885 C 0.27554 0.74969 0.52655 0.0
H2886 H 0.28304 0.80567 0.48867 0.0
H2887 H 0.25169 0.76984 0.49677 0.0
S2888 S 0.33727 0.74336 0.5668 0.0
N2889 N 0.34192 0.77076 0.54921 0.0
N2890 N 0.30762 0.73197 0.55818 0.0
C2891 C 0.30012 0.75062 0.54008 0.0
C2892 C 0.31876 0.77176 0.53523 0.0
C2893 C 0.27009 0.29518 0.5357 0.0
C2894 C 0.25029 0.29136 0.51625 0.0
C2895 C 0.29144 0.27712 0.53855 0.0
C2896 C 0.29392 0.25424 0.52225 0.0
H2897 H 0.26841 0.31148 0.54972 0.0
H2898 H 0.30557 0.28057 0.55449 0.0
S2899 S 0.24966 0.23751 0.46538 0.0
N2900 N 0.23683 0.26515 0.47776 0.0
N2901 N 0.27578 0.23056 0.48413 0.0
C2902 C 0.27528 0.2513 0.5015 0.0
C2903 C 0.25378 0.26992 0.49833 0.0
loop_
_geom_bond_atom_site_label_1
_geom_bond_atom_site_label_2
_geom_bond_distance
_geom_bond_site_symmetry_2
_ccdc_geom_bond_type
Co0 N4 2.148 . S
Co0 N10 2.128 1_455 S
Co0 N20 2.194 . S
Co0 O25 2.351 1_455 S
Co0 O26 2.155 1_455 S
Co0 O27 2.096 . S
C1 N4 1.301 . S
C1 N5 1.328 . S
C1 H6 0.930 . S
C2 C3 1.333 . S
C2 N4 1.317 . S
C2 H7 0.930 . S
C3 C2 1.333 . S
C3 N5 1.350 . S
C3 H29 0.931 . S
N4 Co0 2.148 . S
N4 C1 1.301 . S
N4 C2 1.317 . S
N5 C1 1.328 . S
N5 C3 1.350 . S
H6 C1 0.930 . S
H7 C2 0.930 . S
C8 O9 1.224 . S
C8 O27 1.247 . S
O9 C8 1.224 . S
N10 Co0 2.128 1_655 S
N10 C11 1.355 . S
N10 C13 1.311 . S
C11 N10 1.355 . S
C11 C12 1.363 . S
C11 H23 0.929 . S
C12 C11 1.363 . S
C12 N14 1.375 . S
C12 H30 0.931 . S
C13 N10 1.311 . S
C13 N14 1.347 . S
C13 H24 0.929 . S
N14 C12 1.375 . S
N14 C13 1.347 . S
C15 C18 1.365 . S
C15 N20 1.328 . S
C15 H21 0.929 1_455 S
C16 C17 1.362 . S
C16 C19 1.378 . S
C16 H31 0.929 . S
C17 C16 1.362 . S
C17 C18 1.366 . S
C18 C15 1.365 . S
C18 C17 1.366 . S
C18 H32 0.930 1_455 S
C19 C16 1.378 . S
C19 N20 1.315 . S
C19 H22 0.930 . S
N20 Co0 2.194 . S
N20 C15 1.328 . S
N20 C19 1.315 . S
H21 C15 0.929 1_655 S
H22 C19 0.930 . S
H23 C11 0.929 . S
H24 C13 0.929 . S
O25 Co0 2.351 1_655 S
O25 C28 1.244 . S
O26 Co0 2.155 1_655 S
O26 C28 1.240 . S
O27 Co0 2.096 . S
O27 C8 1.247 . S
C28 O25 1.244 . S
C28 O26 1.240 . S
H29 C3 0.931 . S
H30 C12 0.931 . S
H31 C16 0.929 . S
H32 C18 0.930 1_655 S
Co33 N37 2.148 . S
Co33 N43 2.128 1_545 S
Co33 N53 2.194 . S
Co33 O58 2.351 1_545 S
Co33 O59 2.155 1_545 S
Co33 O60 2.096 . S
C34 N37 1.301 . S
C34 N38 1.328 . S
C34 H39 0.930 . S
C35 C36 1.333 . S
C35 N37 1.317 . S
C35 H40 0.930 . S
C36 C35 1.333 . S
C36 N38 1.350 . S
C36 H62 0.931 . S
N37 Co33 2.148 . S
N37 C34 1.301 . S
N37 C35 1.317 . S
N38 C34 1.328 . S
N38 C36 1.350 . S
H39 C34 0.930 . S
H40 C35 0.930 . S
C41 O42 1.224 . S
C41 O60 1.247 . S
O42 C41 1.224 . S
N43 Co33 2.128 1_565 S
N43 C44 1.355 . S
N43 C46 1.311 . S
C44 N43 1.355 . S
C44 C45 1.363 . S
C44 H56 0.929 . S
C45 C44 1.363 . S
C45 N47 1.375 . S
C45 H63 0.931 . S
C46 N43 1.311 . S
C46 N47 1.347 . S
C46 H57 0.929 . S
N47 C45 1.375 . S
N47 C46 1.347 . S
C48 C51 1.365 . S
C48 N53 1.328 . S
C48 H54 0.941 . S
C49 C50 1.362 . S
C49 C52 1.378 . S
C49 H64 0.929 . S
C50 C49 1.362 . S
C50 C51 1.366 . S
C51 C48 1.365 . S
C51 C50 1.366 . S
C51 H65 0.916 1_545 S
C52 C49 1.378 . S
C52 N53 1.315 . S
C52 H55 0.930 . S
N53 Co33 2.194 . S
N53 C48 1.328 . S
N53 C52 1.315 . S
H54 C48 0.941 . S
H55 C52 0.930 . S
H56 C44 0.929 . S
H57 C46 0.929 . S
O58 Co33 2.351 1_565 S
O58 C61 1.244 . S
O59 Co33 2.155 1_565 S
O59 C61 1.240 . S
O60 Co33 2.096 . S
O60 C41 1.247 . S
C61 O58 1.244 . S
C61 O59 1.240 . S
H62 C36 0.931 . S
H63 C45 0.931 . S
H64 C49 0.929 . S
H65 C51 0.916 1_565 S
Co66 N70 2.148 . S
Co66 N76 2.128 1_455 S
Co66 N86 2.194 . S
Co66 O91 2.351 1_455 S
Co66 O92 2.155 1_455 S
Co66 O93 2.096 . S
C67 N70 1.301 . S
C67 N71 1.328 . S
C67 H72 0.930 . S
C68 C69 1.333 . S
C68 N70 1.317 . S
C68 H73 0.930 . S
C69 C68 1.333 . S
C69 N71 1.350 . S
C69 H95 0.931 . S
N70 Co66 2.148 . S
N70 C67 1.301 . S
N70 C68 1.317 . S
N71 C67 1.328 . S
N71 C69 1.350 . S
H72 C67 0.930 . S
H73 C68 0.930 . S
C74 O75 1.224 . S
C74 O93 1.247 . S
O75 C74 1.224 . S
N76 Co66 2.128 1_655 S
N76 C77 1.355 . S
N76 C79 1.311 . S
C77 N76 1.355 . S
C77 C78 1.363 . S
C77 H89 0.929 . S
C78 C77 1.363 . S
C78 N80 1.375 . S
C78 H96 0.931 . S
C79 N76 1.311 . S
C79 N80 1.347 . S
C79 H90 0.929 . S
N80 C78 1.375 . S
N80 C79 1.347 . S
C81 C84 1.365 . S
C81 N86 1.328 1_655 S
C81 H87 0.929 . S
C82 C83 1.362 . S
C82 C85 1.378 . S
C82 H97 0.929 . S
C83 C82 1.362 . S
C83 C84 1.366 1_455 S
C84 C81 1.365 . S
C84 C83 1.366 1_655 S
C84 H98 0.930 . S
C85 C82 1.378 . S
C85 N86 1.315 . S
C85 H88 0.930 . S
N86 Co66 2.194 . S
N86 C81 1.328 1_455 S
N86 C85 1.315 . S
H87 C81 0.929 . S
H88 C85 0.930 . S
H89 C77 0.929 . S
H90 C79 0.929 . S
O91 Co66 2.351 1_655 S
O91 C94 1.244 . S
O92 Co66 2.155 1_655 S
O92 C94 1.240 . S
O93 Co66 2.096 . S
O93 C74 1.247 . S
C94 O91 1.244 . S
C94 O92 1.240 . S
H95 C69 0.931 . S
H96 C78 0.931 . S
H97 C82 0.929 . S
H98 C84 0.930 . S
Co99 N103 2.148 . S
Co99 N109 2.128 1_545 S
Co99 N119 2.194 . S
Co99 O124 2.351 1_545 S
Co99 O125 2.155 1_545 S
Co99 O126 2.096 . S
C100 N103 1.301 . S
C100 N104 1.328 . S
C100 H105 0.930 . S
C101 C102 1.333 . S
C101 N103 1.317 . S
C101 H106 0.930 . S
C102 C101 1.333 . S
C102 N104 1.350 . S
C102 H128 0.931 . S
N103 Co99 2.148 . S
N103 C100 1.301 . S
N103 C101 1.317 . S
N104 C100 1.328 . S
N104 C102 1.350 . S
H105 C100 0.930 . S
H106 C101 0.930 . S
C107 O108 1.224 . S
C107 O126 1.247 . S
O108 C107 1.224 . S
N109 Co99 2.128 1_565 S
N109 C110 1.355 . S
N109 C112 1.311 . S
C110 N109 1.355 . S
C110 C111 1.363 . S
C110 H122 0.929 . S
C111 C110 1.363 . S
C111 N113 1.375 . S
C111 H129 0.931 . S
C112 N109 1.311 . S
C112 N113 1.347 . S
C112 H123 0.929 . S
N113 C111 1.375 . S
N113 C112 1.347 . S
C114 C117 1.365 . S
C114 N119 1.317 1_565 S
C114 H120 0.942 . S
C115 C116 1.362 . S
C115 C118 1.378 . S
C115 H130 0.929 . S
C116 C115 1.362 . S
C116 C117 1.348 1_545 S
C117 C114 1.365 . S
C117 C116 1.348 1_565 S
C117 H131 0.949 . S
C118 C115 1.378 . S
C118 N119 1.315 . S
C118 H121 0.930 . S
N119 Co99 2.194 . S
N119 C114 1.317 1_545 S
N119 C118 1.315 . S
H120 C114 0.942 . S
H121 C118 0.930 . S
H122 C110 0.929 . S
H123 C112 0.929 . S
O124 Co99 2.351 1_565 S
O124 C127 1.244 . S
O125 Co99 2.155 1_565 S
O125 C127 1.240 . S
O126 Co99 2.096 . S
O126 C107 1.247 . S
C127 O124 1.244 . S
C127 O125 1.240 . S
H128 C102 0.931 . S
H129 C111 0.931 . S
H130 C115 0.929 . S
H131 C117 0.949 . S
Co132 N136 2.148 1_455 S
Co132 N142 2.128 . S
Co132 N152 2.194 . S
Co132 O157 2.351 . S
Co132 O158 2.155 . S
Co132 O159 2.096 . S
C133 N136 1.301 . S
C133 N137 1.328 . S
C133 H138 0.930 . S
C134 C135 1.333 . S
C134 N136 1.317 . S
C134 H139 0.930 . S
C135 C134 1.333 . S
C135 N137 1.350 . S
C135 H161 0.931 . S
N136 Co132 2.148 1_655 S
N136 C133 1.301 . S
N136 C134 1.317 . S
N137 C133 1.328 . S
N137 C135 1.350 . S
H138 C133 0.930 . S
H139 C134 0.930 . S
C140 O141 1.224 . S
C140 O159 1.247 1_655 S
O141 C140 1.224 . S
N142 Co132 2.128 . S
N142 C143 1.355 . S
N142 C145 1.311 . S
C143 N142 1.355 . S
C143 C144 1.363 . S
C143 H155 0.929 . S
C144 C143 1.363 . S
C144 N146 1.375 . S
C144 H162 0.931 . S
C145 N142 1.311 . S
C145 N146 1.347 . S
C145 H156 0.929 . S
N146 C144 1.375 . S
N146 C145 1.347 . S
C147 C150 1.365 . S
C147 N152 1.328 . S
C147 H153 0.929 . S
C148 C149 1.362 . S
C148 C151 1.378 . S
C148 H163 0.929 1_455 S
C149 C148 1.362 . S
C149 C150 1.366 . S
C150 C147 1.365 . S
C150 C149 1.366 . S
C150 H164 0.930 . S
C151 C148 1.378 . S
C151 N152 1.315 . S
C151 H154 0.930 1_455 S
N152 Co132 2.194 . S
N152 C147 1.328 . S
N152 C151 1.315 . S
H153 C147 0.929 . S
H154 C151 0.930 1_655 S
H155 C143 0.929 . S
H156 C145 0.929 . S
O157 Co132 2.351 . S
O157 C160 1.244 . S
O158 Co132 2.155 . S
O158 C160 1.240 . S
O159 Co132 2.096 . S
O159 C140 1.247 1_455 S
C160 O157 1.244 . S
C160 O158 1.240 . S
H161 C135 0.931 . S
H162 C144 0.931 . S
H163 C148 0.929 1_655 S
H164 C150 0.930 . S
Co165 N169 2.148 . S
Co165 N175 2.128 1_545 S
Co165 N185 2.194 . S
Co165 O190 2.351 1_545 S
Co165 O191 2.155 1_545 S
Co165 O192 2.096 . S
C166 N169 1.301 . S
C166 N170 1.328 . S
C166 H171 0.930 . S
C167 C168 1.333 . S
C167 N169 1.317 . S
C167 H172 0.930 . S
C168 C167 1.333 . S
C168 N170 1.350 . S
C168 H194 0.931 . S
N169 Co165 2.148 . S
N169 C166 1.301 . S
N169 C167 1.317 . S
N170 C166 1.328 . S
N170 C168 1.350 . S
H171 C166 0.930 . S
H172 C167 0.930 . S
C173 O174 1.224 . S
C173 O192 1.247 . S
O174 C173 1.224 . S
N175 Co165 2.128 1_565 S
N175 C176 1.355 . S
N175 C178 1.311 . S
C176 N175 1.355 . S
C176 C177 1.363 . S
C176 H188 0.929 . S
C177 C176 1.363 . S
C177 N179 1.375 . S
C177 H195 0.931 . S
C178 N175 1.311 . S
C178 N179 1.347 . S
C178 H189 0.929 . S
N179 C177 1.375 . S
N179 C178 1.347 . S
C180 C183 1.365 . S
C180 N185 1.328 . S
C180 H186 0.916 1_545 S
C181 C182 1.362 . S
C181 C184 1.378 . S
C181 H196 0.929 . S
C182 C181 1.362 . S
C182 C183 1.366 . S
C183 C180 1.365 . S
C183 C182 1.366 . S
C183 H197 0.930 1_545 S
C184 C181 1.378 . S
C184 N185 1.315 . S
C184 H187 0.930 . S
N185 Co165 2.194 . S
N185 C180 1.328 . S
N185 C184 1.315 . S
H186 C180 0.916 1_565 S
H187 C184 0.930 . S
H188 C176 0.929 . S
H189 C178 0.929 . S
O190 Co165 2.351 1_565 S
O190 C193 1.244 . S
O191 Co165 2.155 1_565 S
O191 C193 1.240 . S
O192 Co165 2.096 . S
O192 C173 1.247 . S
C193 O190 1.244 . S
C193 O191 1.240 . S
H194 C168 0.931 . S
H195 C177 0.931 . S
H196 C181 0.929 . S
H197 C183 0.930 1_565 S
Co198 N202 2.148 . S
Co198 N208 2.128 1_455 S
Co198 N218 2.194 . S
Co198 O223 2.351 1_455 S
Co198 O224 2.155 1_455 S
Co198 O225 2.096 . S
C199 N202 1.301 . S
C199 N203 1.328 . S
C199 H204 0.930 . S
C200 C201 1.333 . S
C200 N202 1.317 . S
C200 H205 0.930 . S
C201 C200 1.333 . S
C201 N203 1.350 . S
C201 H227 0.931 . S
N202 Co198 2.148 . S
N202 C199 1.301 . S
N202 C200 1.317 . S
N203 C199 1.328 . S
N203 C201 1.350 . S
H204 C199 0.930 . S
H205 C200 0.930 . S
C206 O207 1.224 . S
C206 O225 1.247 . S
O207 C206 1.224 . S
N208 Co198 2.128 1_655 S
N208 C209 1.355 . S
N208 C211 1.311 . S
C209 N208 1.355 . S
C209 C210 1.363 . S
C209 H221 0.929 . S
C210 C209 1.363 . S
C210 N212 1.375 . S
C210 H228 0.931 . S
C211 N208 1.311 . S
C211 N212 1.347 . S
C211 H222 0.929 . S
N212 C210 1.375 . S
N212 C211 1.347 . S
C213 C216 1.365 . S
C213 N218 1.330 . S
C213 H219 0.928 1_455 S
C214 C215 1.362 . S
C214 C217 1.378 . S
C214 H229 0.929 . S
C215 C214 1.362 . S
C215 C216 1.364 . S
C216 C213 1.365 . S
C216 C215 1.364 . S
C216 H230 0.933 1_455 S
C217 C214 1.378 . S
C217 N218 1.315 . S
C217 H220 0.930 . S
N218 Co198 2.194 . S
N218 C213 1.330 . S
N218 C217 1.315 . S
H219 C213 0.928 1_655 S
H220 C217 0.930 . S
H221 C209 0.929 . S
H222 C211 0.929 . S
O223 Co198 2.351 1_655 S
O223 C226 1.244 . S
O224 Co198 2.155 1_655 S
O224 C226 1.240 . S
O225 Co198 2.096 . S
O225 C206 1.247 . S
C226 O223 1.244 . S
C226 O224 1.240 . S
H227 C201 0.931 . S
H228 C210 0.931 . S
H229 C214 0.929 . S
H230 C216 0.933 1_655 S
Co231 N235 2.148 . S
Co231 N241 2.128 1_545 S
Co231 N251 2.194 . S
Co231 O256 2.351 1_545 S
Co231 O257 2.155 1_545 S
Co231 O258 2.096 . S
C232 N235 1.301 . S
C232 N236 1.328 . S
C232 H237 0.930 . S
C233 C234 1.333 . S
C233 N235 1.317 . S
C233 H238 0.930 . S
C234 C233 1.333 . S
C234 N236 1.350 . S
C234 H260 0.931 . S
N235 Co231 2.148 . S
N235 C232 1.301 . S
N235 C233 1.317 . S
N236 C232 1.328 . S
N236 C234 1.350 . S
H237 C232 0.930 . S
H238 C233 0.930 . S
C239 O240 1.224 . S
C239 O258 1.247 . S
O240 C239 1.224 . S
N241 Co231 2.128 1_565 S
N241 C242 1.355 . S
N241 C244 1.311 . S
C242 N241 1.355 . S
C242 C243 1.363 . S
C242 H254 0.929 . S
C243 C242 1.363 . S
C243 N245 1.375 . S
C243 H261 0.931 . S
C244 N241 1.311 . S
C244 N245 1.347 . S
C244 H255 0.929 . S
N245 C243 1.375 . S
N245 C244 1.347 . S
C246 C249 1.365 . S
C246 N251 1.328 1_565 S
C246 H252 0.929 . S
C247 C248 1.362 . S
C247 C250 1.378 . S
C247 H262 0.929 . S
C248 C247 1.362 . S
C248 C249 1.366 1_545 S
C249 C246 1.365 . S
C249 C248 1.366 1_565 S
C249 H263 0.930 . S
C250 C247 1.378 . S
C250 N251 1.315 . S
C250 H253 0.930 . S
N251 Co231 2.194 . S
N251 C246 1.328 1_545 S
N251 C250 1.315 . S
H252 C246 0.929 . S
H253 C250 0.930 . S
H254 C242 0.929 . S
H255 C244 0.929 . S
O256 Co231 2.351 1_565 S
O256 C259 1.244 . S
O257 Co231 2.155 1_565 S
O257 C259 1.240 . S
O258 Co231 2.096 . S
O258 C239 1.247 . S
C259 O256 1.244 . S
C259 O257 1.240 . S
H260 C234 0.931 . S
H261 C243 0.931 . S
H262 C247 0.929 . S
H263 C249 0.930 . S
Co264 N268 2.148 1_545 S
Co264 N274 2.128 . S
Co264 N284 2.194 . S
Co264 O289 2.351 . S
Co264 O290 2.155 . S
Co264 O291 2.096 . S
C265 N268 1.301 . S
C265 N269 1.328 . S
C265 H270 0.953 . S
C266 C267 1.333 . S
C266 N268 1.317 . S
C266 H271 0.930 . S
C267 C266 1.333 . S
C267 N269 1.350 . S
C267 H293 0.931 . S
N268 Co264 2.148 1_565 S
N268 C265 1.301 . S
N268 C266 1.317 . S
N269 C265 1.328 . S
N269 C267 1.350 . S
H270 C265 0.953 . S
H271 C266 0.930 . S
C272 O273 1.224 . S
C272 O291 1.247 1_565 S
O273 C272 1.224 . S
N274 Co264 2.128 . S
N274 C275 1.355 . S
N274 C277 1.311 . S
C275 N274 1.355 . S
C275 C276 1.363 . S
C275 H287 0.929 . S
C276 C275 1.363 . S
C276 N278 1.375 . S
C276 H294 0.931 . S
C277 N274 1.311 . S
C277 N278 1.347 . S
C277 H288 0.929 . S
N278 C276 1.375 . S
N278 C277 1.347 . S
C279 C282 1.365 . S
C279 N284 1.328 . S
C279 H285 0.929 . S
C280 C281 1.362 . S
C280 C283 1.378 . S
C280 H295 0.929 1_545 S
C281 C280 1.362 . S
C281 C282 1.366 . S
C282 C279 1.365 . S
C282 C281 1.366 . S
C282 H296 0.930 . S
C283 C280 1.378 . S
C283 N284 1.315 . S
C283 H286 0.930 1_545 S
N284 Co264 2.194 . S
N284 C279 1.328 . S
N284 C283 1.315 . S
H285 C279 0.929 . S
H286 C283 0.930 1_565 S
H287 C275 0.929 . S
H288 C277 0.929 . S
O289 Co264 2.351 . S
O289 C292 1.244 . S
O290 Co264 2.155 . S
O290 C292 1.240 . S
O291 Co264 2.096 . S
O291 C272 1.247 1_545 S
C292 O289 1.244 . S
C292 O290 1.240 . S
H293 C267 0.931 . S
H294 C276 0.931 . S
H295 C280 0.929 1_565 S
H296 C282 0.930 . S
Co297 N301 2.148 . S
Co297 N307 2.128 1_455 S
Co297 N317 2.194 . S
Co297 O322 2.351 1_455 S
Co297 O323 2.155 1_455 S
Co297 O324 2.096 . S
C298 N301 1.301 . S
C298 N302 1.328 . S
C298 H303 0.930 . S
C299 C300 1.333 . S
C299 N301 1.317 . S
C299 H304 0.930 . S
C300 C299 1.333 . S
C300 N302 1.350 . S
C300 H326 0.931 . S
N301 Co297 2.148 . S
N301 C298 1.301 . S
N301 C299 1.317 . S
N302 C298 1.328 . S
N302 C300 1.350 . S
H303 C298 0.930 . S
H304 C299 0.930 . S
C305 O306 1.224 . S
C305 O324 1.247 . S
O306 C305 1.224 . S
N307 Co297 2.128 1_655 S
N307 C308 1.355 . S
N307 C310 1.311 . S
C308 N307 1.355 . S
C308 C309 1.363 . S
C308 H320 0.929 . S
C309 C308 1.363 . S
C309 N311 1.375 . S
C309 H327 0.931 . S
C310 N307 1.311 . S
C310 N311 1.347 . S
C310 H321 0.929 . S
N311 C309 1.375 . S
N311 C310 1.347 . S
C312 C315 1.367 . S
C312 N317 1.308 1_655 S
C312 H318 0.952 . S
C313 C314 1.362 . S
C313 C316 1.378 . S
C313 H328 0.929 . S
C314 C313 1.362 . S
C314 C315 1.366 1_455 S
C315 C312 1.367 . S
C315 C314 1.366 1_655 S
C315 H329 0.930 . S
C316 C313 1.378 . S
C316 N317 1.315 . S
C316 H319 0.930 . S
N317 Co297 2.194 . S
N317 C312 1.308 1_455 S
N317 C316 1.315 . S
H318 C312 0.952 . S
H319 C316 0.930 . S
H320 C308 0.929 . S
H321 C310 0.929 . S
O322 Co297 2.351 1_655 S
O322 C325 1.244 . S
O323 Co297 2.155 1_655 S
O323 C325 1.240 . S
O324 Co297 2.096 . S
O324 C305 1.247 . S
C325 O322 1.244 . S
C325 O323 1.240 . S
H326 C300 0.931 . S
H327 C309 0.931 . S
H328 C313 0.929 . S
H329 C315 0.930 . S
Co330 N334 2.148 . S
Co330 N340 2.128 1_545 S
Co330 N350 2.194 . S
Co330 O355 2.351 1_545 S
Co330 O356 2.155 1_545 S
Co330 O357 2.096 . S
C331 N334 1.301 . S
C331 N335 1.328 . S
C331 H336 0.930 . S
C332 C333 1.333 . S
C332 N334 1.317 . S
C332 H337 0.930 . S
C333 C332 1.333 . S
C333 N335 1.350 . S
C333 H359 0.931 . S
N334 Co330 2.148 . S
N334 C331 1.301 . S
N334 C332 1.317 . S
N335 C331 1.328 . S
N335 C333 1.350 . S
H336 C331 0.930 . S
H337 C332 0.930 . S
C338 O339 1.224 . S
C338 O357 1.247 . S
O339 C338 1.224 . S
N340 Co330 2.128 1_565 S
N340 C341 1.355 . S
N340 C343 1.311 . S
C341 N340 1.355 . S
C341 C342 1.363 . S
C341 H353 0.929 . S
C342 C341 1.363 . S
C342 N344 1.375 . S
C342 H360 0.931 . S
C343 N340 1.311 . S
C343 N344 1.347 . S
C343 H354 0.929 . S
N344 C342 1.375 . S
N344 C343 1.347 . S
C345 C348 1.365 . S
C345 N350 1.335 . S
C345 H351 0.923 1_545 S
C346 C347 1.362 . S
C346 C349 1.378 . S
C346 H361 0.929 . S
C347 C346 1.362 . S
C347 C348 1.366 . S
C348 C345 1.365 . S
C348 C347 1.366 . S
C348 H362 0.930 1_545 S
C349 C346 1.378 . S
C349 N350 1.315 . S
C349 H352 0.930 . S
N350 Co330 2.194 . S
N350 C345 1.335 . S
N350 C349 1.315 . S
H351 C345 0.923 1_565 S
H352 C349 0.930 . S
H353 C341 0.929 . S
H354 C343 0.929 . S
O355 Co330 2.351 1_565 S
O355 C358 1.244 . S
O356 Co330 2.155 1_565 S
O356 C358 1.240 . S
O357 Co330 2.096 . S
O357 C338 1.247 . S
C358 O355 1.244 . S
C358 O356 1.240 . S
H359 C333 0.931 . S
H360 C342 0.931 . S
H361 C346 0.929 . S
H362 C348 0.930 1_565 S
Co363 N367 2.148 . S
Co363 N373 2.128 1_455 S
Co363 N383 2.194 . S
Co363 O388 2.351 1_455 S
Co363 O389 2.155 1_455 S
Co363 O390 2.096 . S
C364 N367 1.301 . S
C364 N368 1.328 . S
C364 H369 0.930 . S
C365 C366 1.333 . S
C365 N367 1.317 . S
C365 H370 0.930 . S
C366 C365 1.333 . S
C366 N368 1.350 . S
C366 H392 0.931 . S
N367 Co363 2.148 . S
N367 C364 1.301 . S
N367 C365 1.317 . S
N368 C364 1.328 . S
N368 C366 1.350 . S
H369 C364 0.930 . S
H370 C365 0.930 . S
C371 O372 1.224 . S
C371 O390 1.247 . S
O372 C371 1.224 . S
N373 Co363 2.128 1_655 S
N373 C374 1.355 . S
N373 C376 1.311 . S
C374 N373 1.355 . S
C374 C375 1.363 . S
C374 H386 0.929 . S
C375 C374 1.363 . S
C375 N377 1.375 . S
C375 H393 0.931 . S
C376 N373 1.311 . S
C376 N377 1.347 . S
C376 H387 0.929 . S
N377 C375 1.375 . S
N377 C376 1.347 . S
C378 C381 1.365 . S
C378 N383 1.328 . S
C378 H384 0.929 1_455 S
C379 C380 1.362 . S
C379 C382 1.378 . S
C379 H394 0.929 . S
C380 C379 1.362 . S
C380 C381 1.366 . S
C381 C378 1.365 . S
C381 C380 1.366 . S
C381 H395 0.930 1_455 S
C382 C379 1.378 . S
C382 N383 1.315 . S
C382 H385 0.930 . S
N383 Co363 2.194 . S
N383 C378 1.328 . S
N383 C382 1.315 . S
H384 C378 0.929 1_655 S
H385 C382 0.930 . S
H386 C374 0.929 . S
H387 C376 0.929 . S
O388 Co363 2.351 1_655 S
O388 C391 1.244 . S
O389 Co363 2.155 1_655 S
O389 C391 1.240 . S
O390 Co363 2.096 . S
O390 C371 1.247 . S
C391 O388 1.244 . S
C391 O389 1.240 . S
H392 C366 0.931 . S
H393 C375 0.931 . S
H394 C379 0.929 . S
H395 C381 0.930 1_655 S
Co396 N400 2.148 . S
Co396 N406 2.128 1_545 S
Co396 N416 2.194 . S
Co396 O421 2.351 1_545 S
Co396 O422 2.155 1_545 S
Co396 O423 2.096 . S
C397 N400 1.301 . S
C397 N401 1.328 . S
C397 H402 0.930 . S
C398 C399 1.333 . S
C398 N400 1.317 . S
C398 H403 0.930 . S
C399 C398 1.333 . S
C399 N401 1.350 . S
C399 H425 0.931 . S
N400 Co396 2.148 . S
N400 C397 1.301 . S
N400 C398 1.317 . S
N401 C397 1.328 . S
N401 C399 1.350 . S
H402 C397 0.930 . S
H403 C398 0.930 . S
C404 O405 1.224 . S
C404 O423 1.247 . S
O405 C404 1.224 . S
N406 Co396 2.128 1_565 S
N406 C407 1.355 . S
N406 C409 1.311 . S
C407 N406 1.355 . S
C407 C408 1.363 . S
C407 H419 0.929 . S
C408 C407 1.363 . S
C408 N410 1.375 . S
C408 H426 0.931 . S
C409 N406 1.311 . S
C409 N410 1.347 . S
C409 H420 0.929 . S
N410 C408 1.375 . S
N410 C409 1.347 . S
C411 C414 1.365 . S
C411 N416 1.328 1_565 S
C411 H417 0.929 . S
C412 C413 1.362 . S
C412 C415 1.378 . S
C412 H427 0.929 . S
C413 C412 1.362 . S
C413 C414 1.366 1_545 S
C414 C411 1.365 . S
C414 C413 1.366 1_565 S
C414 H428 0.930 . S
C415 C412 1.378 . S
C415 N416 1.315 . S
C415 H418 0.930 . S
N416 Co396 2.194 . S
N416 C411 1.328 1_545 S
N416 C415 1.315 . S
H417 C411 0.929 . S
H418 C415 0.930 . S
H419 C407 0.929 . S
H420 C409 0.929 . S
O421 Co396 2.351 1_565 S
O421 C424 1.244 . S
O422 Co396 2.155 1_565 S
O422 C424 1.240 . S
O423 Co396 2.096 . S
O423 C404 1.247 . S
C424 O421 1.244 . S
C424 O422 1.240 . S
H425 C399 0.931 . S
H426 C408 0.931 . S
H427 C412 0.929 . S
H428 C414 0.930 . S
Co429 N433 2.148 . S
Co429 N439 2.128 1_455 S
Co429 N449 2.194 . S
Co429 O454 2.351 1_455 S
Co429 O455 2.155 1_455 S
Co429 O456 2.096 . S
C430 N433 1.301 . S
C430 N434 1.328 . S
C430 H435 0.930 . S
C431 C432 1.333 . S
C431 N433 1.317 . S
C431 H436 0.930 . S
C432 C431 1.333 . S
C432 N434 1.350 . S
C432 H458 0.931 . S
N433 Co429 2.148 . S
N433 C430 1.301 . S
N433 C431 1.317 . S
N434 C430 1.328 . S
N434 C432 1.350 . S
H435 C430 0.930 . S
H436 C431 0.930 . S
C437 O438 1.224 . S
C437 O456 1.247 . S
O438 C437 1.224 . S
N439 Co429 2.128 1_655 S
N439 C440 1.355 . S
N439 C442 1.311 . S
C440 N439 1.355 . S
C440 C441 1.363 . S
C440 H452 0.929 . S
C441 C440 1.363 . S
C441 N443 1.375 . S
C441 H459 0.931 . S
C442 N439 1.311 . S
C442 N443 1.347 . S
C442 H453 0.929 . S
N443 C441 1.375 . S
N443 C442 1.347 . S
C444 C447 1.365 . S
C444 N449 1.328 . S
C444 H450 0.931 . S
C445 C446 1.362 . S
C445 C448 1.378 . S
C445 H460 0.929 . S
C446 C445 1.362 . S
C446 C447 1.366 . S
C447 C444 1.365 . S
C447 C446 1.366 . S
C447 H461 0.930 1_455 S
C448 C445 1.378 . S
C448 N449 1.315 . S
C448 H451 0.930 . S
N449 Co429 2.194 . S
N449 C444 1.328 . S
N449 C448 1.315 . S
H450 C444 0.931 . S
H451 C448 0.930 . S
H452 C440 0.929 . S
H453 C442 0.929 . S
O454 Co429 2.351 1_655 S
O454 C457 1.244 . S
O455 Co429 2.155 1_655 S
O455 C457 1.240 . S
O456 Co429 2.096 . S
O456 C437 1.247 . S
C457 O454 1.244 . S
C457 O455 1.240 . S
H458 C432 0.931 . S
H459 C441 0.931 . S
H460 C445 0.929 . S
H461 C447 0.930 1_655 S
Co462 N466 2.148 1_545 S
Co462 N472 2.128 . S
Co462 N482 2.194 . S
Co462 O487 2.351 . S
Co462 O488 2.155 . S
Co462 O489 2.096 . S
C463 N466 1.301 . S
C463 N467 1.328 . S
C463 H468 0.930 . S
C464 C465 1.333 . S
C464 N466 1.317 . S
C464 H469 0.930 . S
C465 C464 1.333 . S
C465 N467 1.350 . S
C465 H491 0.931 . S
N466 Co462 2.148 1_565 S
N466 C463 1.301 . S
N466 C464 1.317 . S
N467 C463 1.328 . S
N467 C465 1.350 . S
H468 C463 0.930 . S
H469 C464 0.930 . S
C470 O471 1.224 . S
C470 O489 1.247 1_565 S
O471 C470 1.224 . S
N472 Co462 2.128 . S
N472 C473 1.355 . S
N472 C475 1.311 . S
C473 N472 1.355 . S
C473 C474 1.363 . S
C473 H485 0.929 . S
C474 C473 1.363 . S
C474 N476 1.375 . S
C474 H492 0.931 . S
C475 N472 1.311 . S
C475 N476 1.347 . S
C475 H486 0.929 . S
N476 C474 1.375 . S
N476 C475 1.347 . S
C477 C480 1.365 . S
C477 N482 1.328 . S
C477 H483 0.929 . S
C478 C479 1.362 . S
C478 C481 1.378 . S
C478 H493 0.929 1_545 S
C479 C478 1.362 . S
C479 C480 1.366 . S
C480 C477 1.365 . S
C480 C479 1.366 . S
C480 H494 0.930 . S
C481 C478 1.378 . S
C481 N482 1.315 . S
C481 H484 0.930 1_545 S
N482 Co462 2.194 . S
N482 C477 1.328 . S
N482 C481 1.315 . S
H483 C477 0.929 . S
H484 C481 0.930 1_565 S
H485 C473 0.929 . S
H486 C475 0.929 . S
O487 Co462 2.351 . S
O487 C490 1.244 . S
O488 Co462 2.155 . S
O488 C490 1.240 . S
O489 Co462 2.096 . S
O489 C470 1.247 1_545 S
C490 O487 1.244 . S
C490 O488 1.240 . S
H491 C465 0.931 . S
H492 C474 0.931 . S
H493 C478 0.929 1_565 S
H494 C480 0.930 . S
Co495 N499 2.148 . S
Co495 N505 2.128 1_455 S
Co495 N515 2.194 . S
Co495 O520 2.351 1_455 S
Co495 O521 2.155 1_455 S
Co495 O522 2.096 . S
C496 N499 1.301 . S
C496 N500 1.328 . S
C496 H501 0.930 . S
C497 C498 1.333 . S
C497 N499 1.317 . S
C497 H502 0.930 . S
C498 C497 1.333 . S
C498 N500 1.350 . S
C498 H524 0.931 . S
N499 Co495 2.148 . S
N499 C496 1.301 . S
N499 C497 1.317 . S
N500 C496 1.328 . S
N500 C498 1.350 . S
H501 C496 0.930 . S
H502 C497 0.930 . S
C503 O504 1.224 . S
C503 O522 1.247 . S
O504 C503 1.224 . S
N505 Co495 2.128 1_655 S
N505 C506 1.355 . S
N505 C508 1.311 . S
C506 N505 1.355 . S
C506 C507 1.363 . S
C506 H518 0.929 . S
C507 C506 1.363 . S
C507 N509 1.375 . S
C507 H525 0.931 . S
C508 N505 1.311 . S
C508 N509 1.347 . S
C508 H519 0.929 . S
N509 C507 1.375 . S
N509 C508 1.347 . S
C510 C513 1.365 . S
C510 N515 1.328 1_655 S
C510 H516 0.929 . S
C511 C512 1.362 . S
C511 C514 1.378 . S
C511 H526 0.929 . S
C512 C511 1.362 . S
C512 C513 1.366 1_455 S
C513 C510 1.365 . S
C513 C512 1.366 1_655 S
C513 H527 0.930 . S
C514 C511 1.378 . S
C514 N515 1.315 . S
C514 H517 0.930 . S
N515 Co495 2.194 . S
N515 C510 1.328 1_455 S
N515 C514 1.315 . S
H516 C510 0.929 . S
H517 C514 0.930 . S
H518 C506 0.929 . S
H519 C508 0.929 . S
O520 Co495 2.351 1_655 S
O520 C523 1.244 . S
O521 Co495 2.155 1_655 S
O521 C523 1.240 . S
O522 Co495 2.096 . S
O522 C503 1.247 . S
C523 O520 1.244 . S
C523 O521 1.240 . S
H524 C498 0.931 . S
H525 C507 0.931 . S
H526 C511 0.929 . S
H527 C513 0.930 . S
Co528 N532 2.148 1_554 S
Co528 N538 2.128 . S
Co528 N548 2.194 . S
Co528 O553 2.351 . S
Co528 O554 2.155 . S
Co528 O555 2.096 . S
C529 N532 1.301 . S
C529 N533 1.328 . S
C529 H534 0.921 1_556 S
C530 C531 1.333 . S
C530 N532 1.317 . S
C530 H535 0.930 . S
C531 C530 1.333 . S
C531 N533 1.350 . S
C531 H557 0.931 . S
N532 Co528 2.148 1_556 S
N532 C529 1.301 . S
N532 C530 1.317 . S
N533 C529 1.328 . S
N533 C531 1.350 . S
H534 C529 0.921 1_554 S
H535 C530 0.930 . S
C536 O537 1.224 . S
C536 O555 1.247 1_556 S
O537 C536 1.224 . S
N538 Co528 2.128 . S
N538 C539 1.355 . S
N538 C541 1.311 . S
C539 N538 1.355 . S
C539 C540 1.363 . S
C539 H551 0.929 . S
C540 C539 1.363 . S
C540 N542 1.375 . S
C540 H558 0.931 . S
C541 N538 1.311 . S
C541 N542 1.347 . S
C541 H552 0.929 . S
N542 C540 1.375 . S
N542 C541 1.347 . S
C543 C546 1.365 . S
C543 N548 1.328 . S
C543 H549 0.929 . S
C544 C545 1.362 . S
C544 C547 1.378 . S
C544 H559 0.929 1_554 S
C545 C544 1.362 . S
C545 C546 1.366 . S
C546 C543 1.365 . S
C546 C545 1.366 . S
C546 H560 0.930 . S
C547 C544 1.378 . S
C547 N548 1.315 . S
C547 H550 0.930 1_554 S
N548 Co528 2.194 . S
N548 C543 1.328 . S
N548 C547 1.315 . S
H549 C543 0.929 . S
H550 C547 0.930 1_556 S
H551 C539 0.929 . S
H552 C541 0.929 . S
O553 Co528 2.351 . S
O553 C556 1.244 . S
O554 Co528 2.155 . S
O554 C556 1.240 . S
O555 Co528 2.096 . S
O555 C536 1.247 1_554 S
C556 O553 1.244 . S
C556 O554 1.240 . S
H557 C531 0.931 . S
H558 C540 0.931 . S
H559 C544 0.929 1_556 S
H560 C546 0.930 . S
Co561 N565 2.148 . S
Co561 N571 2.128 1_554 S
Co561 N581 2.194 . S
Co561 O586 2.351 1_554 S
Co561 O587 2.155 1_554 S
Co561 O588 2.096 . S
C562 N565 1.301 . S
C562 N566 1.328 . S
C562 H567 0.930 . S
C563 C564 1.333 . S
C563 N565 1.317 . S
C563 H568 0.930 . S
C564 C563 1.333 . S
C564 N566 1.350 . S
C564 H590 0.931 . S
N565 Co561 2.148 . S
N565 C562 1.301 . S
N565 C563 1.317 . S
N566 C562 1.328 . S
N566 C564 1.350 . S
H567 C562 0.930 . S
H568 C563 0.930 . S
C569 O570 1.224 . S
C569 O588 1.247 . S
O570 C569 1.224 . S
N571 Co561 2.128 1_556 S
N571 C572 1.355 . S
N571 C574 1.311 . S
C572 N571 1.355 . S
C572 C573 1.363 . S
C572 H584 0.929 . S
C573 C572 1.363 . S
C573 N575 1.375 . S
C573 H591 0.931 . S
C574 N571 1.311 . S
C574 N575 1.347 . S
C574 H585 0.929 . S
N575 C573 1.375 . S
N575 C574 1.347 . S
C576 C579 1.366 . S
C576 N581 1.328 . S
C576 H582 0.929 1_554 S
C577 C578 1.362 . S
C577 C580 1.378 . S
C577 H592 0.929 . S
C578 C577 1.362 . S
C578 C579 1.383 . S
C579 C576 1.366 . S
C579 C578 1.383 . S
C579 H593 0.913 1_554 S
C580 C577 1.378 . S
C580 N581 1.315 . S
C580 H583 0.930 . S
N581 Co561 2.194 . S
N581 C576 1.328 . S
N581 C580 1.315 . S
H582 C576 0.929 1_556 S
H583 C580 0.930 . S
H584 C572 0.929 . S
H585 C574 0.929 . S
O586 Co561 2.351 1_556 S
O586 C589 1.244 . S
O587 Co561 2.155 1_556 S
O587 C589 1.240 . S
O588 Co561 2.096 . S
O588 C569 1.247 . S
C589 O586 1.244 . S
C589 O587 1.240 . S
H590 C564 0.931 . S
H591 C573 0.931 . S
H592 C577 0.929 . S
H593 C579 0.913 1_556 S
Co594 N598 2.148 . S
Co594 N604 2.128 1_554 S
Co594 N614 2.194 . S
Co594 O619 2.351 1_554 S
Co594 O620 2.155 1_554 S
Co594 O621 2.096 . S
C595 N598 1.301 . S
C595 N599 1.328 . S
C595 H600 0.930 . S
C596 C597 1.333 . S
C596 N598 1.317 . S
C596 H601 0.930 . S
C597 C596 1.333 . S
C597 N599 1.350 . S
C597 H623 0.931 . S
N598 Co594 2.148 . S
N598 C595 1.301 . S
N598 C596 1.317 . S
N599 C595 1.328 . S
N599 C597 1.350 . S
H600 C595 0.930 . S
H601 C596 0.930 . S
C602 O603 1.224 . S
C602 O621 1.247 . S
O603 C602 1.224 . S
N604 Co594 2.128 1_556 S
N604 C605 1.355 . S
N604 C607 1.311 . S
C605 N604 1.355 . S
C605 C606 1.363 . S
C605 H617 0.929 . S
C606 C605 1.363 . S
C606 N608 1.375 . S
C606 H624 0.931 . S
C607 N604 1.311 . S
C607 N608 1.347 . S
C607 H618 0.929 . S
N608 C606 1.375 . S
N608 C607 1.347 . S
C609 C612 1.367 . S
C609 N614 1.309 1_556 S
C609 H615 0.951 . S
C610 C611 1.362 . S
C610 C613 1.378 . S
C610 H625 0.929 . S
C611 C610 1.362 . S
C611 C612 1.366 1_554 S
C612 C609 1.367 . S
C612 C611 1.366 1_556 S
C612 H626 0.930 . S
C613 C610 1.378 . S
C613 N614 1.315 . S
C613 H616 0.930 . S
N614 Co594 2.194 . S
N614 C609 1.309 1_554 S
N614 C613 1.315 . S
H615 C609 0.951 . S
H616 C613 0.930 . S
H617 C605 0.929 . S
H618 C607 0.929 . S
O619 Co594 2.351 1_556 S
O619 C622 1.244 . S
O620 Co594 2.155 1_556 S
O620 C622 1.240 . S
O621 Co594 2.096 . S
O621 C602 1.247 . S
C622 O619 1.244 . S
C622 O620 1.240 . S
H623 C597 0.931 . S
H624 C606 0.931 . S
H625 C610 0.929 . S
H626 C612 0.930 . S
Co627 N631 2.148 . S
Co627 N637 2.128 1_554 S
Co627 N647 2.194 . S
Co627 O652 2.351 1_554 S
Co627 O653 2.155 1_554 S
Co627 O654 2.096 . S
C628 N631 1.301 . S
C628 N632 1.328 . S
C628 H633 0.930 . S
C629 C630 1.333 . S
C629 N631 1.317 . S
C629 H634 0.930 . S
C630 C629 1.333 . S
C630 N632 1.350 . S
C630 H656 0.931 . S
N631 Co627 2.148 . S
N631 C628 1.301 . S
N631 C629 1.317 . S
N632 C628 1.328 . S
N632 C630 1.350 . S
H633 C628 0.930 . S
H634 C629 0.930 . S
C635 O636 1.224 . S
C635 O654 1.247 . S
O636 C635 1.224 . S
N637 Co627 2.128 1_556 S
N637 C638 1.355 . S
N637 C640 1.311 . S
C638 N637 1.355 . S
C638 C639 1.363 . S
C638 H650 0.929 . S
C639 C638 1.363 . S
C639 N641 1.375 . S
C639 H657 0.931 . S
C640 N637 1.311 . S
C640 N641 1.347 . S
C640 H651 0.929 . S
N641 C639 1.375 . S
N641 C640 1.347 . S
C642 C645 1.365 . S
C642 N647 1.328 1_556 S
C642 H648 0.929 . S
C643 C644 1.362 . S
C643 C646 1.378 . S
C643 H658 0.929 . S
C644 C643 1.362 . S
C644 C645 1.366 1_554 S
C645 C642 1.365 . S
C645 C644 1.366 1_556 S
C645 H659 0.930 . S
C646 C643 1.378 . S
C646 N647 1.315 . S
C646 H649 0.930 . S
N647 Co627 2.194 . S
N647 C642 1.328 1_554 S
N647 C646 1.315 . S
H648 C642 0.929 . S
H649 C646 0.930 . S
H650 C638 0.929 . S
H651 C640 0.929 . S
O652 Co627 2.351 1_556 S
O652 C655 1.244 . S
O653 Co627 2.155 1_556 S
O653 C655 1.240 . S
O654 Co627 2.096 . S
O654 C635 1.247 . S
C655 O652 1.244 . S
C655 O653 1.240 . S
H656 C630 0.931 . S
H657 C639 0.931 . S
H658 C643 0.929 . S
H659 C645 0.930 . S
Co660 N664 2.148 . S
Co660 N670 2.128 1_554 S
Co660 N680 2.194 . S
Co660 O685 2.351 1_554 S
Co660 O686 2.155 1_554 S
Co660 O687 2.096 . S
C661 N664 1.301 . S
C661 N665 1.328 . S
C661 H666 0.930 . S
C662 C663 1.333 . S
C662 N664 1.317 . S
C662 H667 0.930 . S
C663 C662 1.333 . S
C663 N665 1.350 . S
C663 H689 0.931 . S
N664 Co660 2.148 . S
N664 C661 1.301 . S
N664 C662 1.317 . S
N665 C661 1.328 . S
N665 C663 1.350 . S
H666 C661 0.930 . S
H667 C662 0.930 . S
C668 O669 1.224 . S
C668 O687 1.247 . S
O669 C668 1.224 . S
N670 Co660 2.128 1_556 S
N670 C671 1.355 . S
N670 C673 1.311 . S
C671 N670 1.355 . S
C671 C672 1.363 . S
C671 H683 0.929 . S
C672 C671 1.363 . S
C672 N674 1.375 . S
C672 H690 0.931 . S
C673 N670 1.311 . S
C673 N674 1.347 . S
C673 H684 0.929 . S
N674 C672 1.375 . S
N674 C673 1.347 . S
C675 C678 1.365 1_554 S
C675 N680 1.327 . S
C675 H681 0.930 1_554 S
C676 C677 1.362 . S
C676 C679 1.378 . S
C676 H691 0.929 . S
C677 C676 1.362 . S
C677 C678 1.364 1_554 S
C678 C675 1.365 1_556 S
C678 C677 1.364 1_556 S
C678 H692 0.933 . S
C679 C676 1.378 . S
C679 N680 1.315 . S
C679 H682 0.930 . S
N680 Co660 2.194 . S
N680 C675 1.327 . S
N680 C679 1.315 . S
H681 C675 0.930 1_556 S
H682 C679 0.930 . S
H683 C671 0.929 . S
H684 C673 0.929 . S
O685 Co660 2.351 1_556 S
O685 C688 1.244 . S
O686 Co660 2.155 1_556 S
O686 C688 1.240 . S
O687 Co660 2.096 . S
O687 C668 1.247 . S
C688 O685 1.244 . S
C688 O686 1.240 . S
H689 C663 0.931 . S
H690 C672 0.931 . S
H691 C676 0.929 . S
H692 C678 0.933 . S
Co693 N697 2.148 1_554 S
Co693 N703 2.128 . S
Co693 N713 2.194 . S
Co693 O718 2.351 . S
Co693 O719 2.155 . S
Co693 O720 2.096 . S
C694 N697 1.301 . S
C694 N698 1.328 . S
C694 H699 0.953 . S
C695 C696 1.333 . S
C695 N697 1.317 . S
C695 H700 0.930 . S
C696 C695 1.333 . S
C696 N698 1.350 . S
C696 H722 0.931 . S
N697 Co693 2.148 1_556 S
N697 C694 1.301 . S
N697 C695 1.317 . S
N698 C694 1.328 . S
N698 C696 1.350 . S
H699 C694 0.953 . S
H700 C695 0.930 . S
C701 O702 1.224 . S
C701 O720 1.247 1_556 S
O702 C701 1.224 . S
N703 Co693 2.128 . S
N703 C704 1.355 . S
N703 C706 1.311 . S
C704 N703 1.355 . S
C704 C705 1.363 . S
C704 H716 0.929 . S
C705 C704 1.363 . S
C705 N707 1.375 . S
C705 H723 0.931 . S
C706 N703 1.311 . S
C706 N707 1.347 . S
C706 H717 0.929 . S
N707 C705 1.375 . S
N707 C706 1.347 . S
C708 C711 1.365 . S
C708 N713 1.328 . S
C708 H714 0.929 . S
C709 C710 1.362 . S
C709 C712 1.378 . S
C709 H724 0.929 1_554 S
C710 C709 1.362 . S
C710 C711 1.366 . S
C711 C708 1.365 . S
C711 C710 1.366 . S
C711 H725 0.930 . S
C712 C709 1.378 . S
C712 N713 1.315 . S
C712 H715 0.930 1_554 S
N713 Co693 2.194 . S
N713 C708 1.328 . S
N713 C712 1.315 . S
H714 C708 0.929 . S
H715 C712 0.930 1_556 S
H716 C704 0.929 . S
H717 C706 0.929 . S
O718 Co693 2.351 . S
O718 C721 1.244 . S
O719 Co693 2.155 . S
O719 C721 1.240 . S
O720 Co693 2.096 . S
O720 C701 1.247 1_554 S
C721 O718 1.244 . S
C721 O719 1.240 . S
H722 C696 0.931 . S
H723 C705 0.931 . S
H724 C709 0.929 1_556 S
H725 C711 0.930 . S
Co726 N730 2.148 1_554 S
Co726 N736 2.128 . S
Co726 N746 2.194 . S
Co726 O751 2.351 . S
Co726 O752 2.155 . S
Co726 O753 2.096 . S
C727 N730 1.301 . S
C727 N731 1.328 . S
C727 H732 0.913 1_556 S
C728 C729 1.333 . S
C728 N730 1.317 . S
C728 H733 0.930 . S
C729 C728 1.333 . S
C729 N731 1.350 . S
C729 H755 0.931 . S
N730 Co726 2.148 1_556 S
N730 C727 1.301 . S
N730 C728 1.317 . S
N731 C727 1.328 . S
N731 C729 1.350 . S
H732 C727 0.913 1_554 S
H733 C728 0.930 . S
C734 O735 1.224 . S
C734 O753 1.247 1_556 S
O735 C734 1.224 . S
N736 Co726 2.128 . S
N736 C737 1.355 . S
N736 C739 1.311 . S
C737 N736 1.355 . S
C737 C738 1.363 . S
C737 H749 0.929 . S
C738 C737 1.363 . S
C738 N740 1.375 . S
C738 H756 0.931 . S
C739 N736 1.311 . S
C739 N740 1.347 . S
C739 H750 0.929 . S
N740 C738 1.375 . S
N740 C739 1.347 . S
C741 C744 1.365 . S
C741 N746 1.328 . S
C741 H747 0.929 . S
C742 C743 1.362 . S
C742 C745 1.378 . S
C742 H757 0.929 1_554 S
C743 C742 1.362 . S
C743 C744 1.366 . S
C744 C741 1.365 . S
C744 C743 1.366 . S
C744 H758 0.930 . S
C745 C742 1.378 . S
C745 N746 1.315 . S
C745 H748 0.930 1_554 S
N746 Co726 2.194 . S
N746 C741 1.328 . S
N746 C745 1.315 . S
H747 C741 0.929 . S
H748 C745 0.930 1_556 S
H749 C737 0.929 . S
H750 C739 0.929 . S
O751 Co726 2.351 . S
O751 C754 1.244 . S
O752 Co726 2.155 . S
O752 C754 1.240 . S
O753 Co726 2.096 . S
O753 C734 1.247 1_554 S
C754 O751 1.244 . S
C754 O752 1.240 . S
H755 C729 0.931 . S
H756 C738 0.931 . S
H757 C742 0.929 1_556 S
H758 C744 0.930 . S
Co759 N763 2.148 1_554 S
Co759 N769 2.128 . S
Co759 N779 2.194 . S
Co759 O784 2.351 . S
Co759 O785 2.155 . S
Co759 O786 2.096 . S
C760 N763 1.301 . S
C760 N764 1.328 . S
C760 H765 0.964 . S
C761 C762 1.333 . S
C761 N763 1.317 . S
C761 H766 0.930 . S
C762 C761 1.333 . S
C762 N764 1.350 . S
C762 H788 0.931 . S
N763 Co759 2.148 1_556 S
N763 C760 1.301 . S
N763 C761 1.317 . S
N764 C760 1.328 . S
N764 C762 1.350 . S
H765 C760 0.964 . S
H766 C761 0.930 . S
C767 O768 1.224 . S
C767 O786 1.247 1_556 S
O768 C767 1.224 . S
N769 Co759 2.128 . S
N769 C770 1.355 . S
N769 C772 1.311 . S
C770 N769 1.355 . S
C770 C771 1.363 . S
C770 H782 0.929 . S
C771 C770 1.363 . S
C771 N773 1.375 . S
C771 H789 0.931 . S
C772 N769 1.311 . S
C772 N773 1.347 . S
C772 H783 0.929 . S
N773 C771 1.375 . S
N773 C772 1.347 . S
C774 C777 1.365 . S
C774 N779 1.328 . S
C774 H780 0.929 . S
C775 C776 1.362 . S
C775 C778 1.378 . S
C775 H790 0.929 1_554 S
C776 C775 1.362 . S
C776 C777 1.366 . S
C777 C774 1.365 . S
C777 C776 1.366 . S
C777 H791 0.930 . S
C778 C775 1.378 . S
C778 N779 1.315 . S
C778 H781 0.930 1_554 S
N779 Co759 2.194 . S
N779 C774 1.328 . S
N779 C778 1.315 . S
H780 C774 0.929 . S
H781 C778 0.930 1_556 S
H782 C770 0.929 . S
H783 C772 0.929 . S
O784 Co759 2.351 . S
O784 C787 1.244 . S
O785 Co759 2.155 . S
O785 C787 1.240 . S
O786 Co759 2.096 . S
O786 C767 1.247 1_554 S
C787 O784 1.244 . S
C787 O785 1.240 . S
H788 C762 0.931 . S
H789 C771 0.931 . S
H790 C775 0.929 1_556 S
H791 C777 0.930 . S
Co792 N796 2.148 . S
Co792 N802 2.128 . S
Co792 N812 2.194 . S
Co792 O817 2.351 . S
Co792 O818 2.155 . S
Co792 O819 2.096 . S
C793 N796 1.301 . S
C793 N797 1.328 . S
C793 H798 0.930 . S
C794 C795 1.333 . S
C794 N796 1.317 . S
C794 H799 0.930 . S
C795 C794 1.333 . S
C795 N797 1.350 . S
C795 H821 0.931 . S
N796 Co792 2.148 . S
N796 C793 1.301 . S
N796 C794 1.317 . S
N797 C793 1.328 . S
N797 C795 1.350 . S
H798 C793 0.930 . S
H799 C794 0.930 . S
C800 O801 1.224 . S
C800 O819 1.247 . S
O801 C800 1.224 . S
N802 Co792 2.128 . S
N802 C803 1.355 . S
N802 C805 1.311 . S
C803 N802 1.355 . S
C803 C804 1.363 . S
C803 H815 0.929 . S
C804 C803 1.363 . S
C804 N806 1.375 . S
C804 H822 0.931 . S
C805 N802 1.311 . S
C805 N806 1.347 . S
C805 H816 0.929 . S
N806 C804 1.375 . S
N806 C805 1.347 . S
C807 C810 1.365 . S
C807 N812 1.328 . S
C807 H813 0.929 . S
C808 C809 1.362 . S
C808 C811 1.378 . S
C808 H823 0.929 . S
C809 C808 1.362 . S
C809 C810 1.366 . S
C810 C807 1.365 . S
C810 C809 1.366 . S
C810 H824 0.930 . S
C811 C808 1.378 . S
C811 N812 1.315 . S
C811 H814 0.930 . S
N812 Co792 2.194 . S
N812 C807 1.328 . S
N812 C811 1.315 . S
H813 C807 0.929 . S
H814 C811 0.930 . S
H815 C803 0.929 . S
H816 C805 0.929 . S
O817 Co792 2.351 . S
O817 C820 1.244 . S
O818 Co792 2.155 . S
O818 C820 1.240 . S
O819 Co792 2.096 . S
O819 C800 1.247 . S
C820 O817 1.244 . S
C820 O818 1.240 . S
H821 C795 0.931 . S
H822 C804 0.931 . S
H823 C808 0.929 . S
H824 C810 0.930 . S
Co825 N829 2.148 . S
Co825 N835 2.128 . S
Co825 N845 2.194 . S
Co825 O850 2.351 . S
Co825 O851 2.155 . S
Co825 O852 2.096 . S
C826 N829 1.301 . S
C826 N830 1.328 . S
C826 H831 0.930 . S
C827 C828 1.333 . S
C827 N829 1.317 . S
C827 H832 0.930 . S
C828 C827 1.333 . S
C828 N830 1.350 . S
C828 H854 0.931 . S
N829 Co825 2.148 . S
N829 C826 1.301 . S
N829 C827 1.317 . S
N830 C826 1.328 . S
N830 C828 1.350 . S
H831 C826 0.930 . S
H832 C827 0.930 . S
C833 O834 1.224 . S
C833 O852 1.247 . S
O834 C833 1.224 . S
N835 Co825 2.128 . S
N835 C836 1.355 . S
N835 C838 1.311 . S
C836 N835 1.355 . S
C836 C837 1.363 . S
C836 H848 0.929 . S
C837 C836 1.363 . S
C837 N839 1.375 . S
C837 H855 0.931 . S
C838 N835 1.311 . S
C838 N839 1.347 . S
C838 H849 0.929 . S
N839 C837 1.375 . S
N839 C838 1.347 . S
C840 C843 1.365 . S
C840 N845 1.328 . S
C840 H846 0.929 . S
C841 C842 1.362 . S
C841 C844 1.378 . S
C841 H856 0.929 . S
C842 C841 1.362 . S
C842 C843 1.366 . S
C843 C840 1.365 . S
C843 C842 1.366 . S
C843 H857 0.930 . S
C844 C841 1.378 . S
C844 N845 1.315 . S
C844 H847 0.930 . S
N845 Co825 2.194 . S
N845 C840 1.328 . S
N845 C844 1.315 . S
H846 C840 0.929 . S
H847 C844 0.930 . S
H848 C836 0.929 . S
H849 C838 0.929 . S
O850 Co825 2.351 . S
O850 C853 1.244 . S
O851 Co825 2.155 . S
O851 C853 1.240 . S
O852 Co825 2.096 . S
O852 C833 1.247 . S
C853 O850 1.244 . S
C853 O851 1.240 . S
H854 C828 0.931 . S
H855 C837 0.931 . S
H856 C841 0.929 . S
H857 C843 0.930 . S
Co858 N862 2.148 . S
Co858 N868 2.128 . S
Co858 N878 2.194 . S
Co858 O883 2.351 . S
Co858 O884 2.155 . S
Co858 O885 2.096 . S
C859 N862 1.301 . S
C859 N863 1.328 . S
C859 H864 0.930 . S
C860 C861 1.333 . S
C860 N862 1.317 . S
C860 H865 0.930 . S
C861 C860 1.333 . S
C861 N863 1.350 . S
C861 H887 0.931 . S
N862 Co858 2.148 . S
N862 C859 1.301 . S
N862 C860 1.317 . S
N863 C859 1.328 . S
N863 C861 1.350 . S
H864 C859 0.930 . S
H865 C860 0.930 . S
C866 O867 1.224 . S
C866 O885 1.247 . S
O867 C866 1.224 . S
N868 Co858 2.128 . S
N868 C869 1.355 . S
N868 C871 1.311 . S
C869 N868 1.355 . S
C869 C870 1.363 . S
C869 H881 0.929 . S
C870 C869 1.363 . S
C870 N872 1.375 . S
C870 H888 0.931 . S
C871 N868 1.311 . S
C871 N872 1.347 . S
C871 H882 0.929 . S
N872 C870 1.375 . S
N872 C871 1.347 . S
C873 C876 1.365 . S
C873 N878 1.328 . S
C873 H879 0.929 . S
C874 C875 1.362 . S
C874 C877 1.378 . S
C874 H889 0.929 . S
C875 C874 1.362 . S
C875 C876 1.366 . S
C876 C873 1.365 . S
C876 C875 1.366 . S
C876 H890 0.930 . S
C877 C874 1.378 . S
C877 N878 1.315 . S
C877 H880 0.930 . S
N878 Co858 2.194 . S
N878 C873 1.328 . S
N878 C877 1.315 . S
H879 C873 0.929 . S
H880 C877 0.930 . S
H881 C869 0.929 . S
H882 C871 0.929 . S
O883 Co858 2.351 . S
O883 C886 1.244 . S
O884 Co858 2.155 . S
O884 C886 1.240 . S
O885 Co858 2.096 . S
O885 C866 1.247 . S
C886 O883 1.244 . S
C886 O884 1.240 . S
H887 C861 0.931 . S
H888 C870 0.931 . S
H889 C874 0.929 . S
H890 C876 0.930 . S
Co891 N895 2.148 . S
Co891 N901 2.128 . S
Co891 N911 2.194 . S
Co891 O916 2.351 . S
Co891 O917 2.155 . S
Co891 O918 2.096 . S
C892 N895 1.301 . S
C892 N896 1.328 . S
C892 H897 0.930 . S
C893 C894 1.333 . S
C893 N895 1.317 . S
C893 H898 0.930 . S
C894 C893 1.333 . S
C894 N896 1.350 . S
C894 H920 0.931 . S
N895 Co891 2.148 . S
N895 C892 1.301 . S
N895 C893 1.317 . S
N896 C892 1.328 . S
N896 C894 1.350 . S
H897 C892 0.930 . S
H898 C893 0.930 . S
C899 O900 1.224 . S
C899 O918 1.247 . S
O900 C899 1.224 . S
N901 Co891 2.128 . S
N901 C902 1.355 . S
N901 C904 1.311 . S
C902 N901 1.355 . S
C902 C903 1.363 . S
C902 H914 0.929 . S
C903 C902 1.363 . S
C903 N905 1.375 . S
C903 H921 0.931 . S
C904 N901 1.311 . S
C904 N905 1.347 . S
C904 H915 0.929 . S
N905 C903 1.375 . S
N905 C904 1.347 . S
C906 C909 1.365 . S
C906 N911 1.328 . S
C906 H912 0.929 . S
C907 C908 1.362 . S
C907 C910 1.378 . S
C907 H922 0.929 . S
C908 C907 1.362 . S
C908 C909 1.366 . S
C909 C906 1.365 . S
C909 C908 1.366 . S
C909 H923 0.930 . S
C910 C907 1.378 . S
C910 N911 1.315 . S
C910 H913 0.930 . S
N911 Co891 2.194 . S
N911 C906 1.328 . S
N911 C910 1.315 . S
H912 C906 0.929 . S
H913 C910 0.930 . S
H914 C902 0.929 . S
H915 C904 0.929 . S
O916 Co891 2.351 . S
O916 C919 1.244 . S
O917 Co891 2.155 . S
O917 C919 1.240 . S
O918 Co891 2.096 . S
O918 C899 1.247 . S
C919 O916 1.244 . S
C919 O917 1.240 . S
H920 C894 0.931 . S
H921 C903 0.931 . S
H922 C907 0.929 . S
H923 C909 0.930 . S
Co924 N928 2.148 . S
Co924 N934 2.128 . S
Co924 N944 2.194 . S
Co924 O949 2.351 . S
Co924 O950 2.155 . S
Co924 O951 2.096 . S
C925 N928 1.301 . S
C925 N929 1.328 . S
C925 H930 0.930 . S
C926 C927 1.333 . S
C926 N928 1.317 . S
C926 H931 0.930 . S
C927 C926 1.333 . S
C927 N929 1.350 . S
C927 H953 0.931 . S
N928 Co924 2.148 . S
N928 C925 1.301 . S
N928 C926 1.317 . S
N929 C925 1.328 . S
N929 C927 1.350 . S
H930 C925 0.930 . S
H931 C926 0.930 . S
C932 O933 1.224 . S
C932 O951 1.247 . S
O933 C932 1.224 . S
N934 Co924 2.128 . S
N934 C935 1.355 . S
N934 C937 1.311 . S
C935 N934 1.355 . S
C935 C936 1.363 . S
C935 H947 0.929 . S
C936 C935 1.363 . S
C936 N938 1.375 . S
C936 H954 0.931 . S
C937 N934 1.311 . S
C937 N938 1.347 . S
C937 H948 0.929 . S
N938 C936 1.375 . S
N938 C937 1.347 . S
C939 C942 1.365 . S
C939 N944 1.328 . S
C939 H945 0.929 . S
C940 C941 1.362 . S
C940 C943 1.378 . S
C940 H955 0.929 . S
C941 C940 1.362 . S
C941 C942 1.366 . S
C942 C939 1.365 . S
C942 C941 1.366 . S
C942 H956 0.930 . S
C943 C940 1.378 . S
C943 N944 1.315 . S
C943 H946 0.930 . S
N944 Co924 2.194 . S
N944 C939 1.328 . S
N944 C943 1.315 . S
H945 C939 0.929 . S
H946 C943 0.930 . S
H947 C935 0.929 . S
H948 C937 0.929 . S
O949 Co924 2.351 . S
O949 C952 1.244 . S
O950 Co924 2.155 . S
O950 C952 1.240 . S
O951 Co924 2.096 . S
O951 C932 1.247 . S
C952 O949 1.244 . S
C952 O950 1.240 . S
H953 C927 0.931 . S
H954 C936 0.931 . S
H955 C940 0.929 . S
H956 C942 0.930 . S
Co957 N961 2.148 . S
Co957 N967 2.128 . S
Co957 N977 2.194 . S
Co957 O982 2.351 . S
Co957 O983 2.155 . S
Co957 O984 2.096 . S
C958 N961 1.301 . S
C958 N962 1.328 . S
C958 H963 0.930 . S
C959 C960 1.333 . S
C959 N961 1.317 . S
C959 H964 0.930 . S
C960 C959 1.333 . S
C960 N962 1.350 . S
C960 H986 0.931 . S
N961 Co957 2.148 . S
N961 C958 1.301 . S
N961 C959 1.317 . S
N962 C958 1.328 . S
N962 C960 1.350 . S
H963 C958 0.930 . S
H964 C959 0.930 . S
C965 O966 1.224 . S
C965 O984 1.247 . S
O966 C965 1.224 . S
N967 Co957 2.128 . S
N967 C968 1.355 . S
N967 C970 1.311 . S
C968 N967 1.355 . S
C968 C969 1.363 . S
C968 H980 0.929 . S
C969 C968 1.363 . S
C969 N971 1.375 . S
C969 H987 0.931 . S
C970 N967 1.311 . S
C970 N971 1.347 . S
C970 H981 0.929 . S
N971 C969 1.375 . S
N971 C970 1.347 . S
C972 C975 1.365 . S
C972 N977 1.328 . S
C972 H978 0.929 . S
C973 C974 1.362 . S
C973 C976 1.378 . S
C973 H988 0.929 . S
C974 C973 1.362 . S
C974 C975 1.366 . S
C975 C972 1.365 . S
C975 C974 1.366 . S
C975 H989 0.930 . S
C976 C973 1.378 . S
C976 N977 1.315 . S
C976 H979 0.930 . S
N977 Co957 2.194 . S
N977 C972 1.328 . S
N977 C976 1.315 . S
H978 C972 0.929 . S
H979 C976 0.930 . S
H980 C968 0.929 . S
H981 C970 0.929 . S
O982 Co957 2.351 . S
O982 C985 1.244 . S
O983 Co957 2.155 . S
O983 C985 1.240 . S
O984 Co957 2.096 . S
O984 C965 1.247 . S
C985 O982 1.244 . S
C985 O983 1.240 . S
H986 C960 0.931 . S
H987 C969 0.931 . S
H988 C973 0.929 . S
H989 C975 0.930 . S
Co990 N994 2.148 . S
Co990 N1000 2.128 . S
Co990 N1010 2.194 . S
Co990 O1015 2.351 . S
Co990 O1016 2.155 . S
Co990 O1017 2.096 . S
C991 N994 1.301 . S
C991 N995 1.328 . S
C991 H996 0.930 . S
C992 C993 1.333 . S
C992 N994 1.317 . S
C992 H997 0.930 . S
C993 C992 1.333 . S
C993 N995 1.350 . S
C993 H1019 0.931 . S
N994 Co990 2.148 . S
N994 C991 1.301 . S
N994 C992 1.317 . S
N995 C991 1.328 . S
N995 C993 1.350 . S
H996 C991 0.930 . S
H997 C992 0.930 . S
C998 O999 1.224 . S
C998 O1017 1.247 . S
O999 C998 1.224 . S
N1000 Co990 2.128 . S
N1000 C1001 1.355 . S
N1000 C1003 1.311 . S
C1001 N1000 1.355 . S
C1001 C1002 1.363 . S
C1001 H1013 0.929 . S
C1002 C1001 1.363 . S
C1002 N1004 1.375 . S
C1002 H1020 0.931 . S
C1003 N1000 1.311 . S
C1003 N1004 1.347 . S
C1003 H1014 0.929 . S
N1004 C1002 1.375 . S
N1004 C1003 1.347 . S
C1005 C1008 1.365 . S
C1005 N1010 1.328 . S
C1005 H1011 0.929 . S
C1006 C1007 1.362 . S
C1006 C1009 1.378 . S
C1006 H1021 0.929 . S
C1007 C1006 1.362 . S
C1007 C1008 1.366 . S
C1008 C1005 1.365 . S
C1008 C1007 1.366 . S
C1008 H1022 0.930 . S
C1009 C1006 1.378 . S
C1009 N1010 1.315 . S
C1009 H1012 0.930 . S
N1010 Co990 2.194 . S
N1010 C1005 1.328 . S
N1010 C1009 1.315 . S
H1011 C1005 0.929 . S
H1012 C1009 0.930 . S
H1013 C1001 0.929 . S
H1014 C1003 0.929 . S
O1015 Co990 2.351 . S
O1015 C1018 1.244 . S
O1016 Co990 2.155 . S
O1016 C1018 1.240 . S
O1017 Co990 2.096 . S
O1017 C998 1.247 . S
C1018 O1015 1.244 . S
C1018 O1016 1.240 . S
H1019 C993 0.931 . S
H1020 C1002 0.931 . S
H1021 C1006 0.929 . S
H1022 C1008 0.930 . S
Co1023 N1027 2.148 . S
Co1023 N1033 2.128 . S
Co1023 N1043 2.194 . S
Co1023 O1048 2.351 . S
Co1023 O1049 2.155 . S
Co1023 O1050 2.096 . S
C1024 N1027 1.301 . S
C1024 N1028 1.328 . S
C1024 H1029 0.930 . S
C1025 C1026 1.333 . S
C1025 N1027 1.317 . S
C1025 H1030 0.930 . S
C1026 C1025 1.333 . S
C1026 N1028 1.350 . S
C1026 H1052 0.931 . S
N1027 Co1023 2.148 . S
N1027 C1024 1.301 . S
N1027 C1025 1.317 . S
N1028 C1024 1.328 . S
N1028 C1026 1.350 . S
H1029 C1024 0.930 . S
H1030 C1025 0.930 . S
C1031 O1032 1.224 . S
C1031 O1050 1.247 . S
O1032 C1031 1.224 . S
N1033 Co1023 2.128 . S
N1033 C1034 1.355 . S
N1033 C1036 1.311 . S
C1034 N1033 1.355 . S
C1034 C1035 1.363 . S
C1034 H1046 0.929 . S
C1035 C1034 1.363 . S
C1035 N1037 1.375 . S
C1035 H1053 0.931 . S
C1036 N1033 1.311 . S
C1036 N1037 1.347 . S
C1036 H1047 0.929 . S
N1037 C1035 1.375 . S
N1037 C1036 1.347 . S
C1038 C1041 1.365 . S
C1038 N1043 1.328 . S
C1038 H1044 0.929 . S
C1039 C1040 1.362 . S
C1039 C1042 1.378 . S
C1039 H1054 0.929 . S
C1040 C1039 1.362 . S
C1040 C1041 1.366 . S
C1041 C1038 1.365 . S
C1041 C1040 1.366 . S
C1041 H1055 0.930 . S
C1042 C1039 1.378 . S
C1042 N1043 1.315 . S
C1042 H1045 0.930 . S
N1043 Co1023 2.194 . S
N1043 C1038 1.328 . S
N1043 C1042 1.315 . S
H1044 C1038 0.929 . S
H1045 C1042 0.930 . S
H1046 C1034 0.929 . S
H1047 C1036 0.929 . S
O1048 Co1023 2.351 . S
O1048 C1051 1.244 . S
O1049 Co1023 2.155 . S
O1049 C1051 1.240 . S
O1050 Co1023 2.096 . S
O1050 C1031 1.247 . S
C1051 O1048 1.244 . S
C1051 O1049 1.240 . S
H1052 C1026 0.931 . S
H1053 C1035 0.931 . S
H1054 C1039 0.929 . S
H1055 C1041 0.930 . S
Co1056 N1060 2.148 . S
Co1056 N1066 2.128 . S
Co1056 N1076 2.194 . S
Co1056 O1081 2.351 . S
Co1056 O1082 2.155 . S
Co1056 O1083 2.096 . S
C1057 N1060 1.301 . S
C1057 N1061 1.328 . S
C1057 H1062 0.930 . S
C1058 C1059 1.333 . S
C1058 N1060 1.317 . S
C1058 H1063 0.930 . S
C1059 C1058 1.333 . S
C1059 N1061 1.350 . S
C1059 H1085 0.931 . S
N1060 Co1056 2.148 . S
N1060 C1057 1.301 . S
N1060 C1058 1.317 . S
N1061 C1057 1.328 . S
N1061 C1059 1.350 . S
H1062 C1057 0.930 . S
H1063 C1058 0.930 . S
C1064 O1065 1.224 . S
C1064 O1083 1.247 . S
O1065 C1064 1.224 . S
N1066 Co1056 2.128 . S
N1066 C1067 1.355 . S
N1066 C1069 1.311 . S
C1067 N1066 1.355 . S
C1067 C1068 1.363 . S
C1067 H1079 0.929 . S
C1068 C1067 1.363 . S
C1068 N1070 1.375 . S
C1068 H1086 0.931 . S
C1069 N1066 1.311 . S
C1069 N1070 1.347 . S
C1069 H1080 0.929 . S
N1070 C1068 1.375 . S
N1070 C1069 1.347 . S
C1071 C1074 1.365 . S
C1071 N1076 1.328 . S
C1071 H1077 0.929 . S
C1072 C1073 1.362 . S
C1072 C1075 1.378 . S
C1072 H1087 0.929 . S
C1073 C1072 1.362 . S
C1073 C1074 1.366 . S
C1074 C1071 1.365 . S
C1074 C1073 1.366 . S
C1074 H1088 0.930 . S
C1075 C1072 1.378 . S
C1075 N1076 1.315 . S
C1075 H1078 0.930 . S
N1076 Co1056 2.194 . S
N1076 C1071 1.328 . S
N1076 C1075 1.315 . S
H1077 C1071 0.929 . S
H1078 C1075 0.930 . S
H1079 C1067 0.929 . S
H1080 C1069 0.929 . S
O1081 Co1056 2.351 . S
O1081 C1084 1.244 . S
O1082 Co1056 2.155 . S
O1082 C1084 1.240 . S
O1083 Co1056 2.096 . S
O1083 C1064 1.247 . S
C1084 O1081 1.244 . S
C1084 O1082 1.240 . S
H1085 C1059 0.931 . S
H1086 C1068 0.931 . S
H1087 C1072 0.929 . S
H1088 C1074 0.930 . S
Co1089 N1093 2.148 . S
Co1089 N1099 2.128 . S
Co1089 N1109 2.194 . S
Co1089 O1114 2.351 . S
Co1089 O1115 2.155 . S
Co1089 O1116 2.096 . S
C1090 N1093 1.301 . S
C1090 N1094 1.328 . S
C1090 H1095 0.930 . S
C1091 C1092 1.333 . S
C1091 N1093 1.317 . S
C1091 H1096 0.930 . S
C1092 C1091 1.333 . S
C1092 N1094 1.350 . S
C1092 H1118 0.931 . S
N1093 Co1089 2.148 . S
N1093 C1090 1.301 . S
N1093 C1091 1.317 . S
N1094 C1090 1.328 . S
N1094 C1092 1.350 . S
H1095 C1090 0.930 . S
H1096 C1091 0.930 . S
C1097 O1098 1.224 . S
C1097 O1116 1.247 . S
O1098 C1097 1.224 . S
N1099 Co1089 2.128 . S
N1099 C1100 1.355 . S
N1099 C1102 1.311 . S
C1100 N1099 1.355 . S
C1100 C1101 1.363 . S
C1100 H1112 0.929 . S
C1101 C1100 1.363 . S
C1101 N1103 1.375 . S
C1101 H1119 0.931 . S
C1102 N1099 1.311 . S
C1102 N1103 1.347 . S
C1102 H1113 0.929 . S
N1103 C1101 1.375 . S
N1103 C1102 1.347 . S
C1104 C1107 1.365 . S
C1104 N1109 1.328 . S
C1104 H1110 0.929 . S
C1105 C1106 1.362 . S
C1105 C1108 1.378 . S
C1105 H1120 0.929 . S
C1106 C1105 1.362 . S
C1106 C1107 1.366 . S
C1107 C1104 1.365 . S
C1107 C1106 1.366 . S
C1107 H1121 0.930 . S
C1108 C1105 1.378 . S
C1108 N1109 1.315 . S
C1108 H1111 0.930 . S
N1109 Co1089 2.194 . S
N1109 C1104 1.328 . S
N1109 C1108 1.315 . S
H1110 C1104 0.929 . S
H1111 C1108 0.930 . S
H1112 C1100 0.929 . S
H1113 C1102 0.929 . S
O1114 Co1089 2.351 . S
O1114 C1117 1.244 . S
O1115 Co1089 2.155 . S
O1115 C1117 1.240 . S
O1116 Co1089 2.096 . S
O1116 C1097 1.247 . S
C1117 O1114 1.244 . S
C1117 O1115 1.240 . S
H1118 C1092 0.931 . S
H1119 C1101 0.931 . S
H1120 C1105 0.929 . S
H1121 C1107 0.930 . S
Co1122 N1126 2.148 . S
Co1122 N1132 2.128 . S
Co1122 N1142 2.194 . S
Co1122 O1147 2.351 . S
Co1122 O1148 2.155 . S
Co1122 O1149 2.096 . S
C1123 N1126 1.301 . S
C1123 N1127 1.328 . S
C1123 H1128 0.930 . S
C1124 C1125 1.333 . S
C1124 N1126 1.317 . S
C1124 H1129 0.930 . S
C1125 C1124 1.333 . S
C1125 N1127 1.350 . S
C1125 H1151 0.931 . S
N1126 Co1122 2.148 . S
N1126 C1123 1.301 . S
N1126 C1124 1.317 . S
N1127 C1123 1.328 . S
N1127 C1125 1.350 . S
H1128 C1123 0.930 . S
H1129 C1124 0.930 . S
C1130 O1131 1.224 . S
C1130 O1149 1.247 . S
O1131 C1130 1.224 . S
N1132 Co1122 2.128 . S
N1132 C1133 1.355 . S
N1132 C1135 1.311 . S
C1133 N1132 1.355 . S
C1133 C1134 1.363 . S
C1133 H1145 0.929 . S
C1134 C1133 1.363 . S
C1134 N1136 1.375 . S
C1134 H1152 0.931 . S
C1135 N1132 1.311 . S
C1135 N1136 1.347 . S
C1135 H1146 0.929 . S
N1136 C1134 1.375 . S
N1136 C1135 1.347 . S
C1137 C1140 1.365 . S
C1137 N1142 1.328 . S
C1137 H1143 0.929 . S
C1138 C1139 1.362 . S
C1138 C1141 1.378 . S
C1138 H1153 0.929 . S
C1139 C1138 1.362 . S
C1139 C1140 1.366 . S
C1140 C1137 1.365 . S
C1140 C1139 1.366 . S
C1140 H1154 0.930 . S
C1141 C1138 1.378 . S
C1141 N1142 1.315 . S
C1141 H1144 0.930 . S
N1142 Co1122 2.194 . S
N1142 C1137 1.328 . S
N1142 C1141 1.315 . S
H1143 C1137 0.929 . S
H1144 C1141 0.930 . S
H1145 C1133 0.929 . S
H1146 C1135 0.929 . S
O1147 Co1122 2.351 . S
O1147 C1150 1.244 . S
O1148 Co1122 2.155 . S
O1148 C1150 1.240 . S
O1149 Co1122 2.096 . S
O1149 C1130 1.247 . S
C1150 O1147 1.244 . S
C1150 O1148 1.240 . S
H1151 C1125 0.931 . S
H1152 C1134 0.931 . S
H1153 C1138 0.929 . S
H1154 C1140 0.930 . S
Co1155 N1159 2.148 . S
Co1155 N1165 2.128 . S
Co1155 N1175 2.194 . S
Co1155 O1180 2.351 . S
Co1155 O1181 2.155 . S
Co1155 O1182 2.096 . S
C1156 N1159 1.301 . S
C1156 N1160 1.328 . S
C1156 H1161 0.930 . S
C1157 C1158 1.333 . S
C1157 N1159 1.317 . S
C1157 H1162 0.930 . S
C1158 C1157 1.333 . S
C1158 N1160 1.350 . S
C1158 H1184 0.931 . S
N1159 Co1155 2.148 . S
N1159 C1156 1.301 . S
N1159 C1157 1.317 . S
N1160 C1156 1.328 . S
N1160 C1158 1.350 . S
H1161 C1156 0.930 . S
H1162 C1157 0.930 . S
C1163 O1164 1.224 . S
C1163 O1182 1.247 . S
O1164 C1163 1.224 . S
N1165 Co1155 2.128 . S
N1165 C1166 1.355 . S
N1165 C1168 1.311 . S
C1166 N1165 1.355 . S
C1166 C1167 1.363 . S
C1166 H1178 0.929 . S
C1167 C1166 1.363 . S
C1167 N1169 1.375 . S
C1167 H1185 0.931 . S
C1168 N1165 1.311 . S
C1168 N1169 1.347 . S
C1168 H1179 0.929 . S
N1169 C1167 1.375 . S
N1169 C1168 1.347 . S
C1170 C1173 1.365 . S
C1170 N1175 1.328 . S
C1170 H1176 0.929 . S
C1171 C1172 1.362 . S
C1171 C1174 1.378 . S
C1171 H1186 0.929 . S
C1172 C1171 1.362 . S
C1172 C1173 1.366 . S
C1173 C1170 1.365 . S
C1173 C1172 1.366 . S
C1173 H1187 0.930 . S
C1174 C1171 1.378 . S
C1174 N1175 1.315 . S
C1174 H1177 0.930 . S
N1175 Co1155 2.194 . S
N1175 C1170 1.328 . S
N1175 C1174 1.315 . S
H1176 C1170 0.929 . S
H1177 C1174 0.930 . S
H1178 C1166 0.929 . S
H1179 C1168 0.929 . S
O1180 Co1155 2.351 . S
O1180 C1183 1.244 . S
O1181 Co1155 2.155 . S
O1181 C1183 1.240 . S
O1182 Co1155 2.096 . S
O1182 C1163 1.247 . S
C1183 O1180 1.244 . S
C1183 O1181 1.240 . S
H1184 C1158 0.931 . S
H1185 C1167 0.931 . S
H1186 C1171 0.929 . S
H1187 C1173 0.930 . S
Co1188 N1192 2.148 . S
Co1188 N1198 2.128 . S
Co1188 N1208 2.194 . S
Co1188 O1213 2.351 . S
Co1188 O1214 2.155 . S
Co1188 O1215 2.096 . S
C1189 N1192 1.301 . S
C1189 N1193 1.328 . S
C1189 H1194 0.930 . S
C1190 C1191 1.333 . S
C1190 N1192 1.317 . S
C1190 H1195 0.930 . S
C1191 C1190 1.333 . S
C1191 N1193 1.350 . S
C1191 H1217 0.931 . S
N1192 Co1188 2.148 . S
N1192 C1189 1.301 . S
N1192 C1190 1.317 . S
N1193 C1189 1.328 . S
N1193 C1191 1.350 . S
H1194 C1189 0.930 . S
H1195 C1190 0.930 . S
C1196 O1197 1.224 . S
C1196 O1215 1.247 . S
O1197 C1196 1.224 . S
N1198 Co1188 2.128 . S
N1198 C1199 1.355 . S
N1198 C1201 1.311 . S
C1199 N1198 1.355 . S
C1199 C1200 1.363 . S
C1199 H1211 0.929 . S
C1200 C1199 1.363 . S
C1200 N1202 1.375 . S
C1200 H1218 0.931 . S
C1201 N1198 1.311 . S
C1201 N1202 1.347 . S
C1201 H1212 0.929 . S
N1202 C1200 1.375 . S
N1202 C1201 1.347 . S
C1203 C1206 1.365 . S
C1203 N1208 1.328 . S
C1203 H1209 0.929 . S
C1204 C1205 1.362 . S
C1204 C1207 1.378 . S
C1204 H1219 0.929 . S
C1205 C1204 1.362 . S
C1205 C1206 1.366 . S
C1206 C1203 1.365 . S
C1206 C1205 1.366 . S
C1206 H1220 0.930 . S
C1207 C1204 1.378 . S
C1207 N1208 1.315 . S
C1207 H1210 0.930 . S
N1208 Co1188 2.194 . S
N1208 C1203 1.328 . S
N1208 C1207 1.315 . S
H1209 C1203 0.929 . S
H1210 C1207 0.930 . S
H1211 C1199 0.929 . S
H1212 C1201 0.929 . S
O1213 Co1188 2.351 . S
O1213 C1216 1.244 . S
O1214 Co1188 2.155 . S
O1214 C1216 1.240 . S
O1215 Co1188 2.096 . S
O1215 C1196 1.247 . S
C1216 O1213 1.244 . S
C1216 O1214 1.240 . S
H1217 C1191 0.931 . S
H1218 C1200 0.931 . S
H1219 C1204 0.929 . S
H1220 C1206 0.930 . S
Co1221 N1225 2.148 . S
Co1221 N1231 2.128 . S
Co1221 N1241 2.194 . S
Co1221 O1246 2.351 . S
Co1221 O1247 2.155 . S
Co1221 O1248 2.096 . S
C1222 N1225 1.301 . S
C1222 N1226 1.328 . S
C1222 H1227 0.930 . S
C1223 C1224 1.333 . S
C1223 N1225 1.317 . S
C1223 H1228 0.930 . S
C1224 C1223 1.333 . S
C1224 N1226 1.350 . S
C1224 H1250 0.931 . S
N1225 Co1221 2.148 . S
N1225 C1222 1.301 . S
N1225 C1223 1.317 . S
N1226 C1222 1.328 . S
N1226 C1224 1.350 . S
H1227 C1222 0.930 . S
H1228 C1223 0.930 . S
C1229 O1230 1.224 . S
C1229 O1248 1.247 . S
O1230 C1229 1.224 . S
N1231 Co1221 2.128 . S
N1231 C1232 1.355 . S
N1231 C1234 1.311 . S
C1232 N1231 1.355 . S
C1232 C1233 1.363 . S
C1232 H1244 0.929 . S
C1233 C1232 1.363 . S
C1233 N1235 1.375 . S
C1233 H1251 0.931 . S
C1234 N1231 1.311 . S
C1234 N1235 1.347 . S
C1234 H1245 0.929 . S
N1235 C1233 1.375 . S
N1235 C1234 1.347 . S
C1236 C1239 1.365 . S
C1236 N1241 1.328 . S
C1236 H1242 0.929 . S
C1237 C1238 1.362 . S
C1237 C1240 1.378 . S
C1237 H1252 0.929 . S
C1238 C1237 1.362 . S
C1238 C1239 1.366 . S
C1239 C1236 1.365 . S
C1239 C1238 1.366 . S
C1239 H1253 0.930 . S
C1240 C1237 1.378 . S
C1240 N1241 1.315 . S
C1240 H1243 0.930 . S
N1241 Co1221 2.194 . S
N1241 C1236 1.328 . S
N1241 C1240 1.315 . S
H1242 C1236 0.929 . S
H1243 C1240 0.930 . S
H1244 C1232 0.929 . S
H1245 C1234 0.929 . S
O1246 Co1221 2.351 . S
O1246 C1249 1.244 . S
O1247 Co1221 2.155 . S
O1247 C1249 1.240 . S
O1248 Co1221 2.096 . S
O1248 C1229 1.247 . S
C1249 O1246 1.244 . S
C1249 O1247 1.240 . S
H1250 C1224 0.931 . S
H1251 C1233 0.931 . S
H1252 C1237 0.929 . S
H1253 C1239 0.930 . S
Co1254 N1258 2.148 . S
Co1254 N1264 2.128 . S
Co1254 N1274 2.194 . S
Co1254 O1279 2.351 . S
Co1254 O1280 2.155 . S
Co1254 O1281 2.096 . S
C1255 N1258 1.301 . S
C1255 N1259 1.328 . S
C1255 H1260 0.930 . S
C1256 C1257 1.333 . S
C1256 N1258 1.317 . S
C1256 H1261 0.930 . S
C1257 C1256 1.333 . S
C1257 N1259 1.350 . S
C1257 H1283 0.931 . S
N1258 Co1254 2.148 . S
N1258 C1255 1.301 . S
N1258 C1256 1.317 . S
N1259 C1255 1.328 . S
N1259 C1257 1.350 . S
H1260 C1255 0.930 . S
H1261 C1256 0.930 . S
C1262 O1263 1.224 . S
C1262 O1281 1.247 . S
O1263 C1262 1.224 . S
N1264 Co1254 2.128 . S
N1264 C1265 1.355 . S
N1264 C1267 1.311 . S
C1265 N1264 1.355 . S
C1265 C1266 1.363 . S
C1265 H1277 0.929 . S
C1266 C1265 1.363 . S
C1266 N1268 1.375 . S
C1266 H1284 0.931 . S
C1267 N1264 1.311 . S
C1267 N1268 1.347 . S
C1267 H1278 0.929 . S
N1268 C1266 1.375 . S
N1268 C1267 1.347 . S
C1269 C1272 1.365 . S
C1269 N1274 1.328 . S
C1269 H1275 0.929 . S
C1270 C1271 1.362 . S
C1270 C1273 1.378 . S
C1270 H1285 0.929 . S
C1271 C1270 1.362 . S
C1271 C1272 1.366 . S
C1272 C1269 1.365 . S
C1272 C1271 1.366 . S
C1272 H1286 0.930 . S
C1273 C1270 1.378 . S
C1273 N1274 1.315 . S
C1273 H1276 0.930 . S
N1274 Co1254 2.194 . S
N1274 C1269 1.328 . S
N1274 C1273 1.315 . S
H1275 C1269 0.929 . S
H1276 C1273 0.930 . S
H1277 C1265 0.929 . S
H1278 C1267 0.929 . S
O1279 Co1254 2.351 . S
O1279 C1282 1.244 . S
O1280 Co1254 2.155 . S
O1280 C1282 1.240 . S
O1281 Co1254 2.096 . S
O1281 C1262 1.247 . S
C1282 O1279 1.244 . S
C1282 O1280 1.240 . S
H1283 C1257 0.931 . S
H1284 C1266 0.931 . S
H1285 C1270 0.929 . S
H1286 C1272 0.930 . S
Co1287 N1291 2.148 . S
Co1287 N1297 2.128 . S
Co1287 N1307 2.194 . S
Co1287 O1312 2.351 . S
Co1287 O1313 2.155 . S
Co1287 O1314 2.096 . S
C1288 N1291 1.301 . S
C1288 N1292 1.328 . S
C1288 H1293 0.930 . S
C1289 C1290 1.333 . S
C1289 N1291 1.317 . S
C1289 H1294 0.930 . S
C1290 C1289 1.333 . S
C1290 N1292 1.350 . S
C1290 H1316 0.931 . S
N1291 Co1287 2.148 . S
N1291 C1288 1.301 . S
N1291 C1289 1.317 . S
N1292 C1288 1.328 . S
N1292 C1290 1.350 . S
H1293 C1288 0.930 . S
H1294 C1289 0.930 . S
C1295 O1296 1.224 . S
C1295 O1314 1.247 . S
O1296 C1295 1.224 . S
N1297 Co1287 2.128 . S
N1297 C1298 1.355 . S
N1297 C1300 1.311 . S
C1298 N1297 1.355 . S
C1298 C1299 1.363 . S
C1298 H1310 0.929 . S
C1299 C1298 1.363 . S
C1299 N1301 1.375 . S
C1299 H1317 0.931 . S
C1300 N1297 1.311 . S
C1300 N1301 1.347 . S
C1300 H1311 0.929 . S
N1301 C1299 1.375 . S
N1301 C1300 1.347 . S
C1302 C1305 1.365 . S
C1302 N1307 1.328 . S
C1302 H1308 0.929 . S
C1303 C1304 1.362 . S
C1303 C1306 1.378 . S
C1303 H1318 0.929 . S
C1304 C1303 1.362 . S
C1304 C1305 1.366 . S
C1305 C1302 1.365 . S
C1305 C1304 1.366 . S
C1305 H1319 0.930 . S
C1306 C1303 1.378 . S
C1306 N1307 1.315 . S
C1306 H1309 0.930 . S
N1307 Co1287 2.194 . S
N1307 C1302 1.328 . S
N1307 C1306 1.315 . S
H1308 C1302 0.929 . S
H1309 C1306 0.930 . S
H1310 C1298 0.929 . S
H1311 C1300 0.929 . S
O1312 Co1287 2.351 . S
O1312 C1315 1.244 . S
O1313 Co1287 2.155 . S
O1313 C1315 1.240 . S
O1314 Co1287 2.096 . S
O1314 C1295 1.247 . S
C1315 O1312 1.244 . S
C1315 O1313 1.240 . S
H1316 C1290 0.931 . S
H1317 C1299 0.931 . S
H1318 C1303 0.929 . S
H1319 C1305 0.930 . S
Co1320 N1324 2.148 . S
Co1320 N1330 2.128 . S
Co1320 N1340 2.194 . S
Co1320 O1345 2.351 . S
Co1320 O1346 2.155 . S
Co1320 O1347 2.096 . S
C1321 N1324 1.301 . S
C1321 N1325 1.328 . S
C1321 H1326 0.930 . S
C1322 C1323 1.333 . S
C1322 N1324 1.317 . S
C1322 H1327 0.930 . S
C1323 C1322 1.333 . S
C1323 N1325 1.350 . S
C1323 H1349 0.931 . S
N1324 Co1320 2.148 . S
N1324 C1321 1.301 . S
N1324 C1322 1.317 . S
N1325 C1321 1.328 . S
N1325 C1323 1.350 . S
H1326 C1321 0.930 . S
H1327 C1322 0.930 . S
C1328 O1329 1.224 . S
C1328 O1347 1.247 . S
O1329 C1328 1.224 . S
N1330 Co1320 2.128 . S
N1330 C1331 1.355 . S
N1330 C1333 1.311 . S
C1331 N1330 1.355 . S
C1331 C1332 1.363 . S
C1331 H1343 0.929 . S
C1332 C1331 1.363 . S
C1332 N1334 1.375 . S
C1332 H1350 0.931 . S
C1333 N1330 1.311 . S
C1333 N1334 1.347 . S
C1333 H1344 0.929 . S
N1334 C1332 1.375 . S
N1334 C1333 1.347 . S
C1335 C1338 1.365 . S
C1335 N1340 1.328 . S
C1335 H1341 0.929 . S
C1336 C1337 1.362 . S
C1336 C1339 1.378 . S
C1336 H1351 0.929 . S
C1337 C1336 1.362 . S
C1337 C1338 1.366 . S
C1338 C1335 1.365 . S
C1338 C1337 1.366 . S
C1338 H1352 0.930 . S
C1339 C1336 1.378 . S
C1339 N1340 1.315 . S
C1339 H1342 0.930 . S
N1340 Co1320 2.194 . S
N1340 C1335 1.328 . S
N1340 C1339 1.315 . S
H1341 C1335 0.929 . S
H1342 C1339 0.930 . S
H1343 C1331 0.929 . S
H1344 C1333 0.929 . S
O1345 Co1320 2.351 . S
O1345 C1348 1.244 . S
O1346 Co1320 2.155 . S
O1346 C1348 1.240 . S
O1347 Co1320 2.096 . S
O1347 C1328 1.247 . S
C1348 O1345 1.244 . S
C1348 O1346 1.240 . S
H1349 C1323 0.931 . S
H1350 C1332 0.931 . S
H1351 C1336 0.929 . S
H1352 C1338 0.930 . S
Co1353 N1357 2.148 . S
Co1353 N1363 2.128 . S
Co1353 N1373 2.194 . S
Co1353 O1378 2.351 . S
Co1353 O1379 2.155 . S
Co1353 O1380 2.096 . S
C1354 N1357 1.301 . S
C1354 N1358 1.328 . S
C1354 H1359 0.930 . S
C1355 C1356 1.333 . S
C1355 N1357 1.317 . S
C1355 H1360 0.930 . S
C1356 C1355 1.333 . S
C1356 N1358 1.350 . S
C1356 H1382 0.931 . S
N1357 Co1353 2.148 . S
N1357 C1354 1.301 . S
N1357 C1355 1.317 . S
N1358 C1354 1.328 . S
N1358 C1356 1.350 . S
H1359 C1354 0.930 . S
H1360 C1355 0.930 . S
C1361 O1362 1.224 . S
C1361 O1380 1.247 . S
O1362 C1361 1.224 . S
N1363 Co1353 2.128 . S
N1363 C1364 1.355 . S
N1363 C1366 1.311 . S
C1364 N1363 1.355 . S
C1364 C1365 1.363 . S
C1364 H1376 0.929 . S
C1365 C1364 1.363 . S
C1365 N1367 1.375 . S
C1365 H1383 0.931 . S
C1366 N1363 1.311 . S
C1366 N1367 1.347 . S
C1366 H1377 0.929 . S
N1367 C1365 1.375 . S
N1367 C1366 1.347 . S
C1368 C1371 1.365 . S
C1368 N1373 1.328 . S
C1368 H1374 0.929 . S
C1369 C1370 1.362 . S
C1369 C1372 1.378 . S
C1369 H1384 0.929 . S
C1370 C1369 1.362 . S
C1370 C1371 1.366 . S
C1371 C1368 1.365 . S
C1371 C1370 1.366 . S
C1371 H1385 0.930 . S
C1372 C1369 1.378 . S
C1372 N1373 1.315 . S
C1372 H1375 0.930 . S
N1373 Co1353 2.194 . S
N1373 C1368 1.328 . S
N1373 C1372 1.315 . S
H1374 C1368 0.929 . S
H1375 C1372 0.930 . S
H1376 C1364 0.929 . S
H1377 C1366 0.929 . S
O1378 Co1353 2.351 . S
O1378 C1381 1.244 . S
O1379 Co1353 2.155 . S
O1379 C1381 1.240 . S
O1380 Co1353 2.096 . S
O1380 C1361 1.247 . S
C1381 O1378 1.244 . S
C1381 O1379 1.240 . S
H1382 C1356 0.931 . S
H1383 C1365 0.931 . S
H1384 C1369 0.929 . S
H1385 C1371 0.930 . S
Co1386 N1390 2.148 . S
Co1386 N1396 2.128 . S
Co1386 N1406 2.194 . S
Co1386 O1411 2.351 . S
Co1386 O1412 2.155 . S
Co1386 O1413 2.096 . S
C1387 N1390 1.301 . S
C1387 N1391 1.328 . S
C1387 H1392 0.930 . S
C1388 C1389 1.333 . S
C1388 N1390 1.317 . S
C1388 H1393 0.930 . S
C1389 C1388 1.333 . S
C1389 N1391 1.350 . S
C1389 H1415 0.931 . S
N1390 Co1386 2.148 . S
N1390 C1387 1.301 . S
N1390 C1388 1.317 . S
N1391 C1387 1.328 . S
N1391 C1389 1.350 . S
H1392 C1387 0.930 . S
H1393 C1388 0.930 . S
C1394 O1395 1.224 . S
C1394 O1413 1.247 . S
O1395 C1394 1.224 . S
N1396 Co1386 2.128 . S
N1396 C1397 1.355 . S
N1396 C1399 1.311 . S
C1397 N1396 1.355 . S
C1397 C1398 1.363 . S
C1397 H1409 0.929 . S
C1398 C1397 1.363 . S
C1398 N1400 1.375 . S
C1398 H1416 0.931 . S
C1399 N1396 1.311 . S
C1399 N1400 1.347 . S
C1399 H1410 0.929 . S
N1400 C1398 1.375 . S
N1400 C1399 1.347 . S
C1401 C1404 1.365 . S
C1401 N1406 1.328 . S
C1401 H1407 0.929 . S
C1402 C1403 1.362 . S
C1402 C1405 1.378 . S
C1402 H1417 0.929 . S
C1403 C1402 1.362 . S
C1403 C1404 1.366 . S
C1404 C1401 1.365 . S
C1404 C1403 1.366 . S
C1404 H1418 0.930 . S
C1405 C1402 1.378 . S
C1405 N1406 1.315 . S
C1405 H1408 0.930 . S
N1406 Co1386 2.194 . S
N1406 C1401 1.328 . S
N1406 C1405 1.315 . S
H1407 C1401 0.929 . S
H1408 C1405 0.930 . S
H1409 C1397 0.929 . S
H1410 C1399 0.929 . S
O1411 Co1386 2.351 . S
O1411 C1414 1.244 . S
O1412 Co1386 2.155 . S
O1412 C1414 1.240 . S
O1413 Co1386 2.096 . S
O1413 C1394 1.247 . S
C1414 O1411 1.244 . S
C1414 O1412 1.240 . S
H1415 C1389 0.931 . S
H1416 C1398 0.931 . S
H1417 C1402 0.929 . S
H1418 C1404 0.930 . S
Co1419 N1423 2.148 . S
Co1419 N1429 2.128 . S
Co1419 N1439 2.194 . S
Co1419 O1444 2.351 . S
Co1419 O1445 2.155 . S
Co1419 O1446 2.096 . S
C1420 N1423 1.301 . S
C1420 N1424 1.328 . S
C1420 H1425 0.930 . S
C1421 C1422 1.333 . S
C1421 N1423 1.317 . S
C1421 H1426 0.930 . S
C1422 C1421 1.333 . S
C1422 N1424 1.350 . S
C1422 H1448 0.931 . S
N1423 Co1419 2.148 . S
N1423 C1420 1.301 . S
N1423 C1421 1.317 . S
N1424 C1420 1.328 . S
N1424 C1422 1.350 . S
H1425 C1420 0.930 . S
H1426 C1421 0.930 . S
C1427 O1428 1.224 . S
C1427 O1446 1.247 . S
O1428 C1427 1.224 . S
N1429 Co1419 2.128 . S
N1429 C1430 1.355 . S
N1429 C1432 1.311 . S
C1430 N1429 1.355 . S
C1430 C1431 1.363 . S
C1430 H1442 0.929 . S
C1431 C1430 1.363 . S
C1431 N1433 1.375 . S
C1431 H1449 0.931 . S
C1432 N1429 1.311 . S
C1432 N1433 1.347 . S
C1432 H1443 0.929 . S
N1433 C1431 1.375 . S
N1433 C1432 1.347 . S
C1434 C1437 1.365 . S
C1434 N1439 1.328 . S
C1434 H1440 0.929 . S
C1435 C1436 1.362 . S
C1435 C1438 1.378 . S
C1435 H1450 0.929 . S
C1436 C1435 1.362 . S
C1436 C1437 1.366 . S
C1437 C1434 1.365 . S
C1437 C1436 1.366 . S
C1437 H1451 0.930 . S
C1438 C1435 1.378 . S
C1438 N1439 1.315 . S
C1438 H1441 0.930 . S
N1439 Co1419 2.194 . S
N1439 C1434 1.328 . S
N1439 C1438 1.315 . S
H1440 C1434 0.929 . S
H1441 C1438 0.930 . S
H1442 C1430 0.929 . S
H1443 C1432 0.929 . S
O1444 Co1419 2.351 . S
O1444 C1447 1.244 . S
O1445 Co1419 2.155 . S
O1445 C1447 1.240 . S
O1446 Co1419 2.096 . S
O1446 C1427 1.247 . S
C1447 O1444 1.244 . S
C1447 O1445 1.240 . S
H1448 C1422 0.931 . S
H1449 C1431 0.931 . S
H1450 C1435 0.929 . S
H1451 C1437 0.930 . S
Co1452 N1456 2.148 . S
Co1452 N1462 2.128 . S
Co1452 N1472 2.194 . S
Co1452 O1477 2.351 . S
Co1452 O1478 2.155 . S
Co1452 O1479 2.096 . S
C1453 N1456 1.301 . S
C1453 N1457 1.328 . S
C1453 H1458 0.930 . S
C1454 C1455 1.333 . S
C1454 N1456 1.317 . S
C1454 H1459 0.930 . S
C1455 C1454 1.333 . S
C1455 N1457 1.350 . S
C1455 H1481 0.931 . S
N1456 Co1452 2.148 . S
N1456 C1453 1.301 . S
N1456 C1454 1.317 . S
N1457 C1453 1.328 . S
N1457 C1455 1.350 . S
H1458 C1453 0.930 . S
H1459 C1454 0.930 . S
C1460 O1461 1.224 . S
C1460 O1479 1.247 . S
O1461 C1460 1.224 . S
N1462 Co1452 2.128 . S
N1462 C1463 1.355 . S
N1462 C1465 1.311 . S
C1463 N1462 1.355 . S
C1463 C1464 1.363 . S
C1463 H1475 0.929 . S
C1464 C1463 1.363 . S
C1464 N1466 1.375 . S
C1464 H1482 0.931 . S
C1465 N1462 1.311 . S
C1465 N1466 1.347 . S
C1465 H1476 0.929 . S
N1466 C1464 1.375 . S
N1466 C1465 1.347 . S
C1467 C1470 1.365 . S
C1467 N1472 1.328 . S
C1467 H1473 0.929 . S
C1468 C1469 1.362 . S
C1468 C1471 1.378 . S
C1468 H1483 0.929 . S
C1469 C1468 1.362 . S
C1469 C1470 1.366 . S
C1470 C1467 1.365 . S
C1470 C1469 1.366 . S
C1470 H1484 0.930 . S
C1471 C1468 1.378 . S
C1471 N1472 1.315 . S
C1471 H1474 0.930 . S
N1472 Co1452 2.194 . S
N1472 C1467 1.328 . S
N1472 C1471 1.315 . S
H1473 C1467 0.929 . S
H1474 C1471 0.930 . S
H1475 C1463 0.929 . S
H1476 C1465 0.929 . S
O1477 Co1452 2.351 . S
O1477 C1480 1.244 . S
O1478 Co1452 2.155 . S
O1478 C1480 1.240 . S
O1479 Co1452 2.096 . S
O1479 C1460 1.247 . S
C1480 O1477 1.244 . S
C1480 O1478 1.240 . S
H1481 C1455 0.931 . S
H1482 C1464 0.931 . S
H1483 C1468 0.929 . S
H1484 C1470 0.930 . S
Co1485 N1489 2.148 . S
Co1485 N1495 2.128 . S
Co1485 N1505 2.194 . S
Co1485 O1510 2.351 . S
Co1485 O1511 2.155 . S
Co1485 O1512 2.096 . S
C1486 N1489 1.301 . S
C1486 N1490 1.328 . S
C1486 H1491 0.930 . S
C1487 C1488 1.333 . S
C1487 N1489 1.317 . S
C1487 H1492 0.930 . S
C1488 C1487 1.333 . S
C1488 N1490 1.350 . S
C1488 H1514 0.931 . S
N1489 Co1485 2.148 . S
N1489 C1486 1.301 . S
N1489 C1487 1.317 . S
N1490 C1486 1.328 . S
N1490 C1488 1.350 . S
H1491 C1486 0.930 . S
H1492 C1487 0.930 . S
C1493 O1494 1.224 . S
C1493 O1512 1.247 . S
O1494 C1493 1.224 . S
N1495 Co1485 2.128 . S
N1495 C1496 1.355 . S
N1495 C1498 1.311 . S
C1496 N1495 1.355 . S
C1496 C1497 1.363 . S
C1496 H1508 0.929 . S
C1497 C1496 1.363 . S
C1497 N1499 1.375 . S
C1497 H1515 0.931 . S
C1498 N1495 1.311 . S
C1498 N1499 1.347 . S
C1498 H1509 0.929 . S
N1499 C1497 1.375 . S
N1499 C1498 1.347 . S
C1500 C1503 1.365 . S
C1500 N1505 1.328 . S
C1500 H1506 0.929 . S
C1501 C1502 1.362 . S
C1501 C1504 1.378 . S
C1501 H1516 0.929 . S
C1502 C1501 1.362 . S
C1502 C1503 1.366 . S
C1503 C1500 1.365 . S
C1503 C1502 1.366 . S
C1503 H1517 0.930 . S
C1504 C1501 1.378 . S
C1504 N1505 1.315 . S
C1504 H1507 0.930 . S
N1505 Co1485 2.194 . S
N1505 C1500 1.328 . S
N1505 C1504 1.315 . S
H1506 C1500 0.929 . S
H1507 C1504 0.930 . S
H1508 C1496 0.929 . S
H1509 C1498 0.929 . S
O1510 Co1485 2.351 . S
O1510 C1513 1.244 . S
O1511 Co1485 2.155 . S
O1511 C1513 1.240 . S
O1512 Co1485 2.096 . S
O1512 C1493 1.247 . S
C1513 O1510 1.244 . S
C1513 O1511 1.240 . S
H1514 C1488 0.931 . S
H1515 C1497 0.931 . S
H1516 C1501 0.929 . S
H1517 C1503 0.930 . S
Co1518 N1522 2.148 . S
Co1518 N1528 2.128 . S
Co1518 N1538 2.194 . S
Co1518 O1543 2.351 . S
Co1518 O1544 2.155 . S
Co1518 O1545 2.096 . S
C1519 N1522 1.301 . S
C1519 N1523 1.328 . S
C1519 H1524 0.930 . S
C1520 C1521 1.333 . S
C1520 N1522 1.317 . S
C1520 H1525 0.930 . S
C1521 C1520 1.333 . S
C1521 N1523 1.350 . S
C1521 H1547 0.931 . S
N1522 Co1518 2.148 . S
N1522 C1519 1.301 . S
N1522 C1520 1.317 . S
N1523 C1519 1.328 . S
N1523 C1521 1.350 . S
H1524 C1519 0.930 . S
H1525 C1520 0.930 . S
C1526 O1527 1.224 . S
C1526 O1545 1.247 . S
O1527 C1526 1.224 . S
N1528 Co1518 2.128 . S
N1528 C1529 1.355 . S
N1528 C1531 1.311 . S
C1529 N1528 1.355 . S
C1529 C1530 1.363 . S
C1529 H1541 0.929 . S
C1530 C1529 1.363 . S
C1530 N1532 1.375 . S
C1530 H1548 0.931 . S
C1531 N1528 1.311 . S
C1531 N1532 1.347 . S
C1531 H1542 0.929 . S
N1532 C1530 1.375 . S
N1532 C1531 1.347 . S
C1533 C1536 1.365 . S
C1533 N1538 1.328 . S
C1533 H1539 0.929 . S
C1534 C1535 1.362 . S
C1534 C1537 1.378 . S
C1534 H1549 0.929 . S
C1535 C1534 1.362 . S
C1535 C1536 1.366 . S
C1536 C1533 1.365 . S
C1536 C1535 1.366 . S
C1536 H1550 0.930 . S
C1537 C1534 1.378 . S
C1537 N1538 1.315 . S
C1537 H1540 0.930 . S
N1538 Co1518 2.194 . S
N1538 C1533 1.328 . S
N1538 C1537 1.315 . S
H1539 C1533 0.929 . S
H1540 C1537 0.930 . S
H1541 C1529 0.929 . S
H1542 C1531 0.929 . S
O1543 Co1518 2.351 . S
O1543 C1546 1.244 . S
O1544 Co1518 2.155 . S
O1544 C1546 1.240 . S
O1545 Co1518 2.096 . S
O1545 C1526 1.247 . S
C1546 O1543 1.244 . S
C1546 O1544 1.240 . S
H1547 C1521 0.931 . S
H1548 C1530 0.931 . S
H1549 C1534 0.929 . S
H1550 C1536 0.930 . S
Co1551 N1555 2.148 . S
Co1551 N1561 2.128 . S
Co1551 N1571 2.194 . S
Co1551 O1576 2.351 . S
Co1551 O1577 2.155 . S
Co1551 O1578 2.096 . S
C1552 N1555 1.301 . S
C1552 N1556 1.328 . S
C1552 H1557 0.930 . S
C1553 C1554 1.333 . S
C1553 N1555 1.317 . S
C1553 H1558 0.930 . S
C1554 C1553 1.333 . S
C1554 N1556 1.350 . S
C1554 H1580 0.931 . S
N1555 Co1551 2.148 . S
N1555 C1552 1.301 . S
N1555 C1553 1.317 . S
N1556 C1552 1.328 . S
N1556 C1554 1.350 . S
H1557 C1552 0.930 . S
H1558 C1553 0.930 . S
C1559 O1560 1.224 . S
C1559 O1578 1.247 . S
O1560 C1559 1.224 . S
N1561 Co1551 2.128 . S
N1561 C1562 1.355 . S
N1561 C1564 1.311 . S
C1562 N1561 1.355 . S
C1562 C1563 1.363 . S
C1562 H1574 0.929 . S
C1563 C1562 1.363 . S
C1563 N1565 1.375 . S
C1563 H1581 0.931 . S
C1564 N1561 1.311 . S
C1564 N1565 1.347 . S
C1564 H1575 0.929 . S
N1565 C1563 1.375 . S
N1565 C1564 1.347 . S
C1566 C1569 1.365 . S
C1566 N1571 1.328 . S
C1566 H1572 0.929 . S
C1567 C1568 1.362 . S
C1567 C1570 1.378 . S
C1567 H1582 0.929 . S
C1568 C1567 1.362 . S
C1568 C1569 1.366 . S
C1569 C1566 1.365 . S
C1569 C1568 1.366 . S
C1569 H1583 0.930 . S
C1570 C1567 1.378 . S
C1570 N1571 1.315 . S
C1570 H1573 0.930 . S
N1571 Co1551 2.194 . S
N1571 C1566 1.328 . S
N1571 C1570 1.315 . S
H1572 C1566 0.929 . S
H1573 C1570 0.930 . S
H1574 C1562 0.929 . S
H1575 C1564 0.929 . S
O1576 Co1551 2.351 . S
O1576 C1579 1.244 . S
O1577 Co1551 2.155 . S
O1577 C1579 1.240 . S
O1578 Co1551 2.096 . S
O1578 C1559 1.247 . S
C1579 O1576 1.244 . S
C1579 O1577 1.240 . S
H1580 C1554 0.931 . S
H1581 C1563 0.931 . S
H1582 C1567 0.929 . S
H1583 C1569 0.930 . S
C1584 C1585 1.369 . S
C1584 C1586 1.419 . S
C1584 H1588 0.930 . S
C1585 C1584 1.369 . S
C1585 C1594 1.429 . S
C1586 C1584 1.419 . S
C1586 C1587 1.363 . S
C1586 H1589 0.929 . S
C1587 C1586 1.363 . S
C1587 C1593 1.428 . S
H1588 C1584 0.930 . S
H1589 C1586 0.929 . S
S1590 N1591 1.613 . S
S1590 N1592 1.610 . S
N1591 S1590 1.613 . S
N1591 C1594 1.350 . S
N1592 S1590 1.610 . S
N1592 C1593 1.351 . S
C1593 C1587 1.428 . S
C1593 N1592 1.351 . S
C1593 C1594 1.434 . S
C1594 C1585 1.429 . S
C1594 N1591 1.350 . S
C1594 C1593 1.434 . S
C1595 C1596 1.369 . S
C1595 C1597 1.419 . S
C1595 H1599 0.930 . S
C1596 C1595 1.369 . S
C1596 C1605 1.429 . S
C1597 C1595 1.419 . S
C1597 C1598 1.363 . S
C1597 H1600 0.929 . S
C1598 C1597 1.363 . S
C1598 C1604 1.428 . S
H1599 C1595 0.930 . S
H1600 C1597 0.929 . S
S1601 N1602 1.613 . S
S1601 N1603 1.610 . S
N1602 S1601 1.613 . S
N1602 C1605 1.350 . S
N1603 S1601 1.610 . S
N1603 C1604 1.351 . S
C1604 C1598 1.428 . S
C1604 N1603 1.351 . S
C1604 C1605 1.434 . S
C1605 C1596 1.429 . S
C1605 N1602 1.350 . S
C1605 C1604 1.434 . S
C1606 C1607 1.369 . S
C1606 C1608 1.419 . S
C1606 H1610 0.930 . S
C1607 C1606 1.369 . S
C1607 C1616 1.429 . S
C1608 C1606 1.419 . S
C1608 C1609 1.363 . S
C1608 H1611 0.929 . S
C1609 C1608 1.363 . S
C1609 C1615 1.428 . S
H1610 C1606 0.930 . S
H1611 C1608 0.929 . S
S1612 N1613 1.613 . S
S1612 N1614 1.610 . S
N1613 S1612 1.613 . S
N1613 C1616 1.350 . S
N1614 S1612 1.610 . S
N1614 C1615 1.351 . S
C1615 C1609 1.428 . S
C1615 N1614 1.351 . S
C1615 C1616 1.434 . S
C1616 C1607 1.429 . S
C1616 N1613 1.350 . S
C1616 C1615 1.434 . S
C1617 C1618 1.369 . S
C1617 C1619 1.419 . S
C1617 H1621 0.930 . S
C1618 C1617 1.369 . S
C1618 C1627 1.429 . S
C1619 C1617 1.419 . S
C1619 C1620 1.363 . S
C1619 H1622 0.929 . S
C1620 C1619 1.363 . S
C1620 C1626 1.428 . S
H1621 C1617 0.930 . S
H1622 C1619 0.929 . S
S1623 N1624 1.613 . S
S1623 N1625 1.610 . S
N1624 S1623 1.613 . S
N1624 C1627 1.350 . S
N1625 S1623 1.610 . S
N1625 C1626 1.351 . S
C1626 C1620 1.428 . S
C1626 N1625 1.351 . S
C1626 C1627 1.434 . S
C1627 C1618 1.429 . S
C1627 N1624 1.350 . S
C1627 C1626 1.434 . S
C1628 C1629 1.369 . S
C1628 C1630 1.419 . S
C1628 H1632 0.930 . S
C1629 C1628 1.369 . S
C1629 C1638 1.429 . S
C1630 C1628 1.419 . S
C1630 C1631 1.363 . S
C1630 H1633 0.929 . S
C1631 C1630 1.363 . S
C1631 C1637 1.428 . S
H1632 C1628 0.930 . S
H1633 C1630 0.929 . S
S1634 N1635 1.613 . S
S1634 N1636 1.610 . S
N1635 S1634 1.613 . S
N1635 C1638 1.350 . S
N1636 S1634 1.610 . S
N1636 C1637 1.351 . S
C1637 C1631 1.428 . S
C1637 N1636 1.351 . S
C1637 C1638 1.434 . S
C1638 C1629 1.429 . S
C1638 N1635 1.350 . S
C1638 C1637 1.434 . S
C1639 C1640 1.369 . S
C1639 C1641 1.419 . S
C1639 H1643 0.930 . S
C1640 C1639 1.369 . S
C1640 C1649 1.429 . S
C1641 C1639 1.419 . S
C1641 C1642 1.363 . S
C1641 H1644 0.929 . S
C1642 C1641 1.363 . S
C1642 C1648 1.428 . S
H1643 C1639 0.930 . S
H1644 C1641 0.929 . S
S1645 N1646 1.613 . S
S1645 N1647 1.610 . S
N1646 S1645 1.613 . S
N1646 C1649 1.350 . S
N1647 S1645 1.610 . S
N1647 C1648 1.351 . S
C1648 C1642 1.428 . S
C1648 N1647 1.351 . S
C1648 C1649 1.434 . S
C1649 C1640 1.429 . S
C1649 N1646 1.350 . S
C1649 C1648 1.434 . S
C1650 C1651 1.369 . S
C1650 C1652 1.419 . S
C1650 H1654 0.930 . S
C1651 C1650 1.369 . S
C1651 C1660 1.429 . S
C1652 C1650 1.419 . S
C1652 C1653 1.363 . S
C1652 H1655 0.929 . S
C1653 C1652 1.363 . S
C1653 C1659 1.428 . S
H1654 C1650 0.930 . S
H1655 C1652 0.929 . S
S1656 N1657 1.613 . S
S1656 N1658 1.610 . S
N1657 S1656 1.613 . S
N1657 C1660 1.350 . S
N1658 S1656 1.610 . S
N1658 C1659 1.351 . S
C1659 C1653 1.428 . S
C1659 N1658 1.351 . S
C1659 C1660 1.434 . S
C1660 C1651 1.429 . S
C1660 N1657 1.350 . S
C1660 C1659 1.434 . S
C1661 C1662 1.369 . S
C1661 C1663 1.419 . S
C1661 H1665 0.930 . S
C1662 C1661 1.369 . S
C1662 C1671 1.429 . S
C1663 C1661 1.419 . S
C1663 C1664 1.363 . S
C1663 H1666 0.929 . S
C1664 C1663 1.363 . S
C1664 C1670 1.428 . S
H1665 C1661 0.930 . S
H1666 C1663 0.929 . S
S1667 N1668 1.613 . S
S1667 N1669 1.610 . S
N1668 S1667 1.613 . S
N1668 C1671 1.350 . S
N1669 S1667 1.610 . S
N1669 C1670 1.351 . S
C1670 C1664 1.428 . S
C1670 N1669 1.351 . S
C1670 C1671 1.434 . S
C1671 C1662 1.429 . S
C1671 N1668 1.350 . S
C1671 C1670 1.434 . S
C1672 C1673 1.369 . S
C1672 C1674 1.419 . S
C1672 H1676 0.930 . S
C1673 C1672 1.369 . S
C1673 C1682 1.429 . S
C1674 C1672 1.419 . S
C1674 C1675 1.363 . S
C1674 H1677 0.929 . S
C1675 C1674 1.363 . S
C1675 C1681 1.428 . S
H1676 C1672 0.930 . S
H1677 C1674 0.929 . S
S1678 N1679 1.613 . S
S1678 N1680 1.610 . S
N1679 S1678 1.613 . S
N1679 C1682 1.350 . S
N1680 S1678 1.610 . S
N1680 C1681 1.351 . S
C1681 C1675 1.428 . S
C1681 N1680 1.351 . S
C1681 C1682 1.434 . S
C1682 C1673 1.429 . S
C1682 N1679 1.350 . S
C1682 C1681 1.434 . S
C1683 C1684 1.369 . S
C1683 C1685 1.419 . S
C1683 H1687 0.930 . S
C1684 C1683 1.369 . S
C1684 C1693 1.429 . S
C1685 C1683 1.419 . S
C1685 C1686 1.363 . S
C1685 H1688 0.929 . S
C1686 C1685 1.363 . S
C1686 C1692 1.428 . S
H1687 C1683 0.930 . S
H1688 C1685 0.929 . S
S1689 N1690 1.613 . S
S1689 N1691 1.610 . S
N1690 S1689 1.613 . S
N1690 C1693 1.350 . S
N1691 S1689 1.610 . S
N1691 C1692 1.351 . S
C1692 C1686 1.428 . S
C1692 N1691 1.351 . S
C1692 C1693 1.434 . S
C1693 C1684 1.429 . S
C1693 N1690 1.350 . S
C1693 C1692 1.434 . S
C1694 C1695 1.369 . S
C1694 C1696 1.419 . S
C1694 H1698 0.930 . S
C1695 C1694 1.369 . S
C1695 C1704 1.429 . S
C1696 C1694 1.419 . S
C1696 C1697 1.363 . S
C1696 H1699 0.929 . S
C1697 C1696 1.363 . S
C1697 C1703 1.428 . S
H1698 C1694 0.930 . S
H1699 C1696 0.929 . S
S1700 N1701 1.613 . S
S1700 N1702 1.610 . S
N1701 S1700 1.613 . S
N1701 C1704 1.350 . S
N1702 S1700 1.610 . S
N1702 C1703 1.351 . S
C1703 C1697 1.428 . S
C1703 N1702 1.351 . S
C1703 C1704 1.434 . S
C1704 C1695 1.429 . S
C1704 N1701 1.350 . S
C1704 C1703 1.434 . S
C1705 C1706 1.369 . S
C1705 C1707 1.419 . S
C1705 H1709 0.930 . S
C1706 C1705 1.369 . S
C1706 C1715 1.429 . S
C1707 C1705 1.419 . S
C1707 C1708 1.363 . S
C1707 H1710 0.929 . S
C1708 C1707 1.363 . S
C1708 C1714 1.428 . S
H1709 C1705 0.930 . S
H1710 C1707 0.929 . S
S1711 N1712 1.613 . S
S1711 N1713 1.610 . S
N1712 S1711 1.613 . S
N1712 C1715 1.350 . S
N1713 S1711 1.610 . S
N1713 C1714 1.351 . S
C1714 C1708 1.428 . S
C1714 N1713 1.351 . S
C1714 C1715 1.434 . S
C1715 C1706 1.429 . S
C1715 N1712 1.350 . S
C1715 C1714 1.434 . S
C1716 C1717 1.369 . S
C1716 C1718 1.419 . S
C1716 H1720 0.930 . S
C1717 C1716 1.369 . S
C1717 C1726 1.429 . S
C1718 C1716 1.419 . S
C1718 C1719 1.363 . S
C1718 H1721 0.929 . S
C1719 C1718 1.363 . S
C1719 C1725 1.428 . S
H1720 C1716 0.930 . S
H1721 C1718 0.929 . S
S1722 N1723 1.613 . S
S1722 N1724 1.610 . S
N1723 S1722 1.613 . S
N1723 C1726 1.350 . S
N1724 S1722 1.610 . S
N1724 C1725 1.351 . S
C1725 C1719 1.428 . S
C1725 N1724 1.351 . S
C1725 C1726 1.434 . S
C1726 C1717 1.429 . S
C1726 N1723 1.350 . S
C1726 C1725 1.434 . S
C1727 C1728 1.369 . S
C1727 C1729 1.419 . S
C1727 H1731 0.930 . S
C1728 C1727 1.369 . S
C1728 C1737 1.429 . S
C1729 C1727 1.419 . S
C1729 C1730 1.363 . S
C1729 H1732 0.929 . S
C1730 C1729 1.363 . S
C1730 C1736 1.428 . S
H1731 C1727 0.930 . S
H1732 C1729 0.929 . S
S1733 N1734 1.613 . S
S1733 N1735 1.610 . S
N1734 S1733 1.613 . S
N1734 C1737 1.350 . S
N1735 S1733 1.610 . S
N1735 C1736 1.351 . S
C1736 C1730 1.428 . S
C1736 N1735 1.351 . S
C1736 C1737 1.434 . S
C1737 C1728 1.429 . S
C1737 N1734 1.350 . S
C1737 C1736 1.434 . S
C1738 C1739 1.369 . S
C1738 C1740 1.419 . S
C1738 H1742 0.930 . S
C1739 C1738 1.369 . S
C1739 C1748 1.429 . S
C1740 C1738 1.419 . S
C1740 C1741 1.363 . S
C1740 H1743 0.929 . S
C1741 C1740 1.363 . S
C1741 C1747 1.428 . S
H1742 C1738 0.930 . S
H1743 C1740 0.929 . S
S1744 N1745 1.613 . S
S1744 N1746 1.610 . S
N1745 S1744 1.613 . S
N1745 C1748 1.350 . S
N1746 S1744 1.610 . S
N1746 C1747 1.351 . S
C1747 C1741 1.428 . S
C1747 N1746 1.351 . S
C1747 C1748 1.434 . S
C1748 C1739 1.429 . S
C1748 N1745 1.350 . S
C1748 C1747 1.434 . S
C1749 C1750 1.369 . S
C1749 C1751 1.419 . S
C1749 H1753 0.930 . S
C1750 C1749 1.369 . S
C1750 C1759 1.429 . S
C1751 C1749 1.419 . S
C1751 C1752 1.363 . S
C1751 H1754 0.929 . S
C1752 C1751 1.363 . S
C1752 C1758 1.428 . S
H1753 C1749 0.930 . S
H1754 C1751 0.929 . S
S1755 N1756 1.602 1_455 S
S1755 N1757 1.610 1_455 S
N1756 S1755 1.602 1_655 S
N1756 C1759 1.387 . S
N1757 S1755 1.610 1_655 S
N1757 C1758 1.351 . S
C1758 C1752 1.428 . S
C1758 N1757 1.351 . S
C1758 C1759 1.434 . S
C1759 C1750 1.429 . S
C1759 N1756 1.387 . S
C1759 C1758 1.434 . S
C1760 C1761 1.369 . S
C1760 C1762 1.419 . S
C1760 H1764 0.930 . S
C1761 C1760 1.369 . S
C1761 C1770 1.429 . S
C1762 C1760 1.419 . S
C1762 C1763 1.363 . S
C1762 H1765 0.929 . S
C1763 C1762 1.363 . S
C1763 C1769 1.428 . S
H1764 C1760 0.930 . S
H1765 C1762 0.929 . S
S1766 N1767 1.613 . S
S1766 N1768 1.610 . S
N1767 S1766 1.613 . S
N1767 C1770 1.350 . S
N1768 S1766 1.610 . S
N1768 C1769 1.351 . S
C1769 C1763 1.428 . S
C1769 N1768 1.351 . S
C1769 C1770 1.434 . S
C1770 C1761 1.429 . S
C1770 N1767 1.350 . S
C1770 C1769 1.434 . S
C1771 C1772 1.369 . S
C1771 C1773 1.419 . S
C1771 H1775 0.930 . S
C1772 C1771 1.369 . S
C1772 C1781 1.429 . S
C1773 C1771 1.419 . S
C1773 C1774 1.363 . S
C1773 H1776 0.929 . S
C1774 C1773 1.363 . S
C1774 C1780 1.428 . S
H1775 C1771 0.930 . S
H1776 C1773 0.929 . S
S1777 N1778 1.613 . S
S1777 N1779 1.610 . S
N1778 S1777 1.613 . S
N1778 C1781 1.350 . S
N1779 S1777 1.610 . S
N1779 C1780 1.351 . S
C1780 C1774 1.428 . S
C1780 N1779 1.351 . S
C1780 C1781 1.434 . S
C1781 C1772 1.429 . S
C1781 N1778 1.350 . S
C1781 C1780 1.434 . S
C1782 C1783 1.369 . S
C1782 C1784 1.419 . S
C1782 H1786 0.930 . S
C1783 C1782 1.369 . S
C1783 C1792 1.429 . S
C1784 C1782 1.419 . S
C1784 C1785 1.363 . S
C1784 H1787 0.929 . S
C1785 C1784 1.363 . S
C1785 C1791 1.428 . S
H1786 C1782 0.930 . S
H1787 C1784 0.929 . S
S1788 N1789 1.613 . S
S1788 N1790 1.610 . S
N1789 S1788 1.613 . S
N1789 C1792 1.350 . S
N1790 S1788 1.610 . S
N1790 C1791 1.351 . S
C1791 C1785 1.428 . S
C1791 N1790 1.351 . S
C1791 C1792 1.434 . S
C1792 C1783 1.429 . S
C1792 N1789 1.350 . S
C1792 C1791 1.434 . S
C1793 C1794 1.369 . S
C1793 C1795 1.419 . S
C1793 H1797 0.930 . S
C1794 C1793 1.369 . S
C1794 C1803 1.429 . S
C1795 C1793 1.419 . S
C1795 C1796 1.363 . S
C1795 H1798 0.929 . S
C1796 C1795 1.363 . S
C1796 C1802 1.428 . S
H1797 C1793 0.930 . S
H1798 C1795 0.929 . S
S1799 N1800 1.613 . S
S1799 N1801 1.610 . S
N1800 S1799 1.613 . S
N1800 C1803 1.350 . S
N1801 S1799 1.610 . S
N1801 C1802 1.351 . S
C1802 C1796 1.428 . S
C1802 N1801 1.351 . S
C1802 C1803 1.434 . S
C1803 C1794 1.429 . S
C1803 N1800 1.350 . S
C1803 C1802 1.434 . S
C1804 C1805 1.369 . S
C1804 C1806 1.419 . S
C1804 H1808 0.930 . S
C1805 C1804 1.369 . S
C1805 C1814 1.429 . S
C1806 C1804 1.419 . S
C1806 C1807 1.363 . S
C1806 H1809 0.929 . S
C1807 C1806 1.363 . S
C1807 C1813 1.428 . S
H1808 C1804 0.930 . S
H1809 C1806 0.929 . S
S1810 N1811 1.613 . S
S1810 N1812 1.610 . S
N1811 S1810 1.613 . S
N1811 C1814 1.350 . S
N1812 S1810 1.610 . S
N1812 C1813 1.351 . S
C1813 C1807 1.428 . S
C1813 N1812 1.351 . S
C1813 C1814 1.434 . S
C1814 C1805 1.429 . S
C1814 N1811 1.350 . S
C1814 C1813 1.434 . S
C1815 C1816 1.369 . S
C1815 C1817 1.419 . S
C1815 H1819 0.930 . S
C1816 C1815 1.369 . S
C1816 C1825 1.429 . S
C1817 C1815 1.419 . S
C1817 C1818 1.363 . S
C1817 H1820 0.929 . S
C1818 C1817 1.363 . S
C1818 C1824 1.428 . S
H1819 C1815 0.930 . S
H1820 C1817 0.929 . S
S1821 N1822 1.613 . S
S1821 N1823 1.610 . S
N1822 S1821 1.613 . S
N1822 C1825 1.350 . S
N1823 S1821 1.610 . S
N1823 C1824 1.351 . S
C1824 C1818 1.428 . S
C1824 N1823 1.351 . S
C1824 C1825 1.434 . S
C1825 C1816 1.429 . S
C1825 N1822 1.350 . S
C1825 C1824 1.434 . S
C1826 C1827 1.369 . S
C1826 C1828 1.419 . S
C1826 H1830 0.930 . S
C1827 C1826 1.369 . S
C1827 C1836 1.429 . S
C1828 C1826 1.419 . S
C1828 C1829 1.363 . S
C1828 H1831 0.929 . S
C1829 C1828 1.363 . S
C1829 C1835 1.428 . S
H1830 C1826 0.930 . S
H1831 C1828 0.929 . S
S1832 N1833 1.613 . S
S1832 N1834 1.610 . S
N1833 S1832 1.613 . S
N1833 C1836 1.350 . S
N1834 S1832 1.610 . S
N1834 C1835 1.351 . S
C1835 C1829 1.428 . S
C1835 N1834 1.351 . S
C1835 C1836 1.434 . S
C1836 C1827 1.429 . S
C1836 N1833 1.350 . S
C1836 C1835 1.434 . S
C1837 C1838 1.369 . S
C1837 C1839 1.419 . S
C1837 H1841 0.930 . S
C1838 C1837 1.369 . S
C1838 C1847 1.429 . S
C1839 C1837 1.419 . S
C1839 C1840 1.363 . S
C1839 H1842 0.929 . S
C1840 C1839 1.363 . S
C1840 C1846 1.428 . S
H1841 C1837 0.930 . S
H1842 C1839 0.929 . S
S1843 N1844 1.613 . S
S1843 N1845 1.610 . S
N1844 S1843 1.613 . S
N1844 C1847 1.350 . S
N1845 S1843 1.610 . S
N1845 C1846 1.351 . S
C1846 C1840 1.428 . S
C1846 N1845 1.351 . S
C1846 C1847 1.434 . S
C1847 C1838 1.429 . S
C1847 N1844 1.350 . S
C1847 C1846 1.434 . S
C1848 C1849 1.369 . S
C1848 C1850 1.419 . S
C1848 H1852 0.930 . S
C1849 C1848 1.369 . S
C1849 C1858 1.429 . S
C1850 C1848 1.419 . S
C1850 C1851 1.363 . S
C1850 H1853 0.929 . S
C1851 C1850 1.363 . S
C1851 C1857 1.428 . S
H1852 C1848 0.930 . S
H1853 C1850 0.929 . S
S1854 N1855 1.613 . S
S1854 N1856 1.610 . S
N1855 S1854 1.613 . S
N1855 C1858 1.350 . S
N1856 S1854 1.610 . S
N1856 C1857 1.351 . S
C1857 C1851 1.428 . S
C1857 N1856 1.351 . S
C1857 C1858 1.434 . S
C1858 C1849 1.429 . S
C1858 N1855 1.350 . S
C1858 C1857 1.434 . S
C1859 C1860 1.369 . S
C1859 C1861 1.419 . S
C1859 H1863 0.930 . S
C1860 C1859 1.369 . S
C1860 C1869 1.429 . S
C1861 C1859 1.419 . S
C1861 C1862 1.363 . S
C1861 H1864 0.929 . S
C1862 C1861 1.363 . S
C1862 C1868 1.428 . S
H1863 C1859 0.930 . S
H1864 C1861 0.929 . S
S1865 N1866 1.613 . S
S1865 N1867 1.610 . S
N1866 S1865 1.613 . S
N1866 C1869 1.350 . S
N1867 S1865 1.610 . S
N1867 C1868 1.351 . S
C1868 C1862 1.428 . S
C1868 N1867 1.351 . S
C1868 C1869 1.434 . S
C1869 C1860 1.429 . S
C1869 N1866 1.350 . S
C1869 C1868 1.434 . S
C1870 C1871 1.369 . S
C1870 C1872 1.419 . S
C1870 H1874 0.930 . S
C1871 C1870 1.369 . S
C1871 C1880 1.429 . S
C1872 C1870 1.419 . S
C1872 C1873 1.363 . S
C1872 H1875 0.929 . S
C1873 C1872 1.363 . S
C1873 C1879 1.428 . S
H1874 C1870 0.930 . S
H1875 C1872 0.929 . S
S1876 N1877 1.613 . S
S1876 N1878 1.610 . S
N1877 S1876 1.613 . S
N1877 C1880 1.350 . S
N1878 S1876 1.610 . S
N1878 C1879 1.351 . S
C1879 C1873 1.428 . S
C1879 N1878 1.351 . S
C1879 C1880 1.434 . S
C1880 C1871 1.429 . S
C1880 N1877 1.350 . S
C1880 C1879 1.434 . S
C1881 C1882 1.369 . S
C1881 C1883 1.419 . S
C1881 H1885 0.930 . S
C1882 C1881 1.369 . S
C1882 C1891 1.429 . S
C1883 C1881 1.419 . S
C1883 C1884 1.363 . S
C1883 H1886 0.929 . S
C1884 C1883 1.363 . S
C1884 C1890 1.428 . S
H1885 C1881 0.930 . S
H1886 C1883 0.929 . S
S1887 N1888 1.613 . S
S1887 N1889 1.610 . S
N1888 S1887 1.613 . S
N1888 C1891 1.350 . S
N1889 S1887 1.610 . S
N1889 C1890 1.351 . S
C1890 C1884 1.428 . S
C1890 N1889 1.351 . S
C1890 C1891 1.434 . S
C1891 C1882 1.429 . S
C1891 N1888 1.350 . S
C1891 C1890 1.434 . S
C1892 C1893 1.369 . S
C1892 C1894 1.419 . S
C1892 H1896 0.930 . S
C1893 C1892 1.369 . S
C1893 C1902 1.429 . S
C1894 C1892 1.419 . S
C1894 C1895 1.363 . S
C1894 H1897 0.929 . S
C1895 C1894 1.363 . S
C1895 C1901 1.428 . S
H1896 C1892 0.930 . S
H1897 C1894 0.929 . S
S1898 N1899 1.613 . S
S1898 N1900 1.610 . S
N1899 S1898 1.613 . S
N1899 C1902 1.350 . S
N1900 S1898 1.610 . S
N1900 C1901 1.351 . S
C1901 C1895 1.428 . S
C1901 N1900 1.351 . S
C1901 C1902 1.434 . S
C1902 C1893 1.429 . S
C1902 N1899 1.350 . S
C1902 C1901 1.434 . S
C1903 C1904 1.369 . S
C1903 C1905 1.419 . S
C1903 H1907 0.930 . S
C1904 C1903 1.369 . S
C1904 C1913 1.429 . S
C1905 C1903 1.419 . S
C1905 C1906 1.363 . S
C1905 H1908 0.929 . S
C1906 C1905 1.363 . S
C1906 C1912 1.428 . S
H1907 C1903 0.930 . S
H1908 C1905 0.929 . S
S1909 N1910 1.613 . S
S1909 N1911 1.610 . S
N1910 S1909 1.613 . S
N1910 C1913 1.350 . S
N1911 S1909 1.610 . S
N1911 C1912 1.351 . S
C1912 C1906 1.428 . S
C1912 N1911 1.351 . S
C1912 C1913 1.434 . S
C1913 C1904 1.429 . S
C1913 N1910 1.350 . S
C1913 C1912 1.434 . S
C1914 C1915 1.369 . S
C1914 C1916 1.419 . S
C1914 H1918 0.930 . S
C1915 C1914 1.369 . S
C1915 C1924 1.429 . S
C1916 C1914 1.419 . S
C1916 C1917 1.363 . S
C1916 H1919 0.929 . S
C1917 C1916 1.363 . S
C1917 C1923 1.428 . S
H1918 C1914 0.930 . S
H1919 C1916 0.929 . S
S1920 N1921 1.613 . S
S1920 N1922 1.610 . S
N1921 S1920 1.613 . S
N1921 C1924 1.350 . S
N1922 S1920 1.610 . S
N1922 C1923 1.351 . S
C1923 C1917 1.428 . S
C1923 N1922 1.351 . S
C1923 C1924 1.434 . S
C1924 C1915 1.429 . S
C1924 N1921 1.350 . S
C1924 C1923 1.434 . S
C1925 C1926 1.369 . S
C1925 C1927 1.419 . S
C1925 H1929 0.930 . S
C1926 C1925 1.369 . S
C1926 C1935 1.429 . S
C1927 C1925 1.419 . S
C1927 C1928 1.363 . S
C1927 H1930 0.929 . S
C1928 C1927 1.363 . S
C1928 C1934 1.428 . S
H1929 C1925 0.930 . S
H1930 C1927 0.929 . S
S1931 N1932 1.613 . S
S1931 N1933 1.610 . S
N1932 S1931 1.613 . S
N1932 C1935 1.350 . S
N1933 S1931 1.610 . S
N1933 C1934 1.351 . S
C1934 C1928 1.428 . S
C1934 N1933 1.351 . S
C1934 C1935 1.434 . S
C1935 C1926 1.429 . S
C1935 N1932 1.350 . S
C1935 C1934 1.434 . S
C1936 C1937 1.369 . S
C1936 C1938 1.419 . S
C1936 H1940 0.930 . S
C1937 C1936 1.369 . S
C1937 C1946 1.429 . S
C1938 C1936 1.419 . S
C1938 C1939 1.363 . S
C1938 H1941 0.929 . S
C1939 C1938 1.363 . S
C1939 C1945 1.428 . S
H1940 C1936 0.930 . S
H1941 C1938 0.929 . S
S1942 N1943 1.613 . S
S1942 N1944 1.610 . S
N1943 S1942 1.613 . S
N1943 C1946 1.350 . S
N1944 S1942 1.610 . S
N1944 C1945 1.351 . S
C1945 C1939 1.428 . S
C1945 N1944 1.351 . S
C1945 C1946 1.434 . S
C1946 C1937 1.429 . S
C1946 N1943 1.350 . S
C1946 C1945 1.434 . S
C1947 C1948 1.369 . S
C1947 C1949 1.419 . S
C1947 H1951 0.930 . S
C1948 C1947 1.369 . S
C1948 C1957 1.429 . S
C1949 C1947 1.419 . S
C1949 C1950 1.363 . S
C1949 H1952 0.929 . S
C1950 C1949 1.363 . S
C1950 C1956 1.428 . S
H1951 C1947 0.930 . S
H1952 C1949 0.929 . S
S1953 N1954 1.613 . S
S1953 N1955 1.610 . S
N1954 S1953 1.613 . S
N1954 C1957 1.350 . S
N1955 S1953 1.610 . S
N1955 C1956 1.351 . S
C1956 C1950 1.428 . S
C1956 N1955 1.351 . S
C1956 C1957 1.434 . S
C1957 C1948 1.429 . S
C1957 N1954 1.350 . S
C1957 C1956 1.434 . S
C1958 C1959 1.369 . S
C1958 C1960 1.419 . S
C1958 H1962 0.930 . S
C1959 C1958 1.369 . S
C1959 C1968 1.429 . S
C1960 C1958 1.419 . S
C1960 C1961 1.363 . S
C1960 H1963 0.929 . S
C1961 C1960 1.363 . S
C1961 C1967 1.428 . S
H1962 C1958 0.930 . S
H1963 C1960 0.929 . S
S1964 N1965 1.613 . S
S1964 N1966 1.610 . S
N1965 S1964 1.613 . S
N1965 C1968 1.350 . S
N1966 S1964 1.610 . S
N1966 C1967 1.351 . S
C1967 C1961 1.428 . S
C1967 N1966 1.351 . S
C1967 C1968 1.434 . S
C1968 C1959 1.429 . S
C1968 N1965 1.350 . S
C1968 C1967 1.434 . S
C1969 C1970 1.369 . S
C1969 C1971 1.419 . S
C1969 H1973 0.930 . S
C1970 C1969 1.369 . S
C1970 C1979 1.429 . S
C1971 C1969 1.419 . S
C1971 C1972 1.363 . S
C1971 H1974 0.929 . S
C1972 C1971 1.363 . S
C1972 C1978 1.428 . S
H1973 C1969 0.930 . S
H1974 C1971 0.929 . S
S1975 N1976 1.613 . S
S1975 N1977 1.610 . S
N1976 S1975 1.613 . S
N1976 C1979 1.350 . S
N1977 S1975 1.610 . S
N1977 C1978 1.351 . S
C1978 C1972 1.428 . S
C1978 N1977 1.351 . S
C1978 C1979 1.434 . S
C1979 C1970 1.429 . S
C1979 N1976 1.350 . S
C1979 C1978 1.434 . S
C1980 C1981 1.369 . S
C1980 C1982 1.419 . S
C1980 H1984 0.930 . S
C1981 C1980 1.369 . S
C1981 C1990 1.429 . S
C1982 C1980 1.419 . S
C1982 C1983 1.363 . S
C1982 H1985 0.929 . S
C1983 C1982 1.363 . S
C1983 C1989 1.428 . S
H1984 C1980 0.930 . S
H1985 C1982 0.929 . S
S1986 N1987 1.613 . S
S1986 N1988 1.610 . S
N1987 S1986 1.613 . S
N1987 C1990 1.350 . S
N1988 S1986 1.610 . S
N1988 C1989 1.351 . S
C1989 C1983 1.428 . S
C1989 N1988 1.351 . S
C1989 C1990 1.434 . S
C1990 C1981 1.429 . S
C1990 N1987 1.350 . S
C1990 C1989 1.434 . S
C1991 C1992 1.369 . S
C1991 C1993 1.419 . S
C1991 H1995 0.930 . S
C1992 C1991 1.369 . S
C1992 C2001 1.429 . S
C1993 C1991 1.419 . S
C1993 C1994 1.363 . S
C1993 H1996 0.929 . S
C1994 C1993 1.363 . S
C1994 C2000 1.428 . S
H1995 C1991 0.930 . S
H1996 C1993 0.929 . S
S1997 N1998 1.613 . S
S1997 N1999 1.610 . S
N1998 S1997 1.613 . S
N1998 C2001 1.350 . S
N1999 S1997 1.610 . S
N1999 C2000 1.351 . S
C2000 C1994 1.428 . S
C2000 N1999 1.351 . S
C2000 C2001 1.434 . S
C2001 C1992 1.429 . S
C2001 N1998 1.350 . S
C2001 C2000 1.434 . S
C2002 C2003 1.369 . S
C2002 C2004 1.419 . S
C2002 H2006 0.930 . S
C2003 C2002 1.369 . S
C2003 C2012 1.429 . S
C2004 C2002 1.419 . S
C2004 C2005 1.363 . S
C2004 H2007 0.929 . S
C2005 C2004 1.363 . S
C2005 C2011 1.428 . S
H2006 C2002 0.930 . S
H2007 C2004 0.929 . S
S2008 N2009 1.613 . S
S2008 N2010 1.610 . S
N2009 S2008 1.613 . S
N2009 C2012 1.350 . S
N2010 S2008 1.610 . S
N2010 C2011 1.351 . S
C2011 C2005 1.428 . S
C2011 N2010 1.351 . S
C2011 C2012 1.434 . S
C2012 C2003 1.429 . S
C2012 N2009 1.350 . S
C2012 C2011 1.434 . S
C2013 C2014 1.369 . S
C2013 C2015 1.419 . S
C2013 H2017 0.930 . S
C2014 C2013 1.369 . S
C2014 C2023 1.429 . S
C2015 C2013 1.419 . S
C2015 C2016 1.363 . S
C2015 H2018 0.929 . S
C2016 C2015 1.363 . S
C2016 C2022 1.428 . S
H2017 C2013 0.930 . S
H2018 C2015 0.929 . S
S2019 N2020 1.613 . S
S2019 N2021 1.610 . S
N2020 S2019 1.613 . S
N2020 C2023 1.350 . S
N2021 S2019 1.610 . S
N2021 C2022 1.351 . S
C2022 C2016 1.428 . S
C2022 N2021 1.351 . S
C2022 C2023 1.434 . S
C2023 C2014 1.429 . S
C2023 N2020 1.350 . S
C2023 C2022 1.434 . S
C2024 C2025 1.369 . S
C2024 C2026 1.419 . S
C2024 H2028 0.930 . S
C2025 C2024 1.369 . S
C2025 C2034 1.429 . S
C2026 C2024 1.419 . S
C2026 C2027 1.363 . S
C2026 H2029 0.929 . S
C2027 C2026 1.363 . S
C2027 C2033 1.428 . S
H2028 C2024 0.930 . S
H2029 C2026 0.929 . S
S2030 N2031 1.613 . S
S2030 N2032 1.610 . S
N2031 S2030 1.613 . S
N2031 C2034 1.350 . S
N2032 S2030 1.610 . S
N2032 C2033 1.351 . S
C2033 C2027 1.428 . S
C2033 N2032 1.351 . S
C2033 C2034 1.434 . S
C2034 C2025 1.429 . S
C2034 N2031 1.350 . S
C2034 C2033 1.434 . S
C2035 C2036 1.369 . S
C2035 C2037 1.419 . S
C2035 H2039 0.930 . S
C2036 C2035 1.369 . S
C2036 C2045 1.429 . S
C2037 C2035 1.419 . S
C2037 C2038 1.363 . S
C2037 H2040 0.929 . S
C2038 C2037 1.363 . S
C2038 C2044 1.428 . S
H2039 C2035 0.930 . S
H2040 C2037 0.929 . S
S2041 N2042 1.613 . S
S2041 N2043 1.610 . S
N2042 S2041 1.613 . S
N2042 C2045 1.350 . S
N2043 S2041 1.610 . S
N2043 C2044 1.351 . S
C2044 C2038 1.428 . S
C2044 N2043 1.351 . S
C2044 C2045 1.434 . S
C2045 C2036 1.429 . S
C2045 N2042 1.350 . S
C2045 C2044 1.434 . S
C2046 C2047 1.369 . S
C2046 C2048 1.419 . S
C2046 H2050 0.930 . S
C2047 C2046 1.369 . S
C2047 C2056 1.429 . S
C2048 C2046 1.419 . S
C2048 C2049 1.363 . S
C2048 H2051 0.929 . S
C2049 C2048 1.363 . S
C2049 C2055 1.428 . S
H2050 C2046 0.930 . S
H2051 C2048 0.929 . S
S2052 N2053 1.613 . S
S2052 N2054 1.610 . S
N2053 S2052 1.613 . S
N2053 C2056 1.350 . S
N2054 S2052 1.610 . S
N2054 C2055 1.351 . S
C2055 C2049 1.428 . S
C2055 N2054 1.351 . S
C2055 C2056 1.434 . S
C2056 C2047 1.429 . S
C2056 N2053 1.350 . S
C2056 C2055 1.434 . S
C2057 C2058 1.369 . S
C2057 C2059 1.419 . S
C2057 H2061 0.930 . S
C2058 C2057 1.369 . S
C2058 C2067 1.429 . S
C2059 C2057 1.419 . S
C2059 C2060 1.363 . S
C2059 H2062 0.929 . S
C2060 C2059 1.363 . S
C2060 C2066 1.428 . S
H2061 C2057 0.930 . S
H2062 C2059 0.929 . S
S2063 N2064 1.613 . S
S2063 N2065 1.610 . S
N2064 S2063 1.613 . S
N2064 C2067 1.350 . S
N2065 S2063 1.610 . S
N2065 C2066 1.351 . S
C2066 C2060 1.428 . S
C2066 N2065 1.351 . S
C2066 C2067 1.434 . S
C2067 C2058 1.429 . S
C2067 N2064 1.350 . S
C2067 C2066 1.434 . S
C2068 C2069 1.369 . S
C2068 C2070 1.419 . S
C2068 H2072 0.930 . S
C2069 C2068 1.369 . S
C2069 C2078 1.429 . S
C2070 C2068 1.419 . S
C2070 C2071 1.363 . S
C2070 H2073 0.929 . S
C2071 C2070 1.363 . S
C2071 C2077 1.428 . S
H2072 C2068 0.930 . S
H2073 C2070 0.929 . S
S2074 N2075 1.613 . S
S2074 N2076 1.610 . S
N2075 S2074 1.613 . S
N2075 C2078 1.350 . S
N2076 S2074 1.610 . S
N2076 C2077 1.351 . S
C2077 C2071 1.428 . S
C2077 N2076 1.351 . S
C2077 C2078 1.434 . S
C2078 C2069 1.429 . S
C2078 N2075 1.350 . S
C2078 C2077 1.434 . S
C2079 C2080 1.369 . S
C2079 C2081 1.419 . S
C2079 H2083 0.930 . S
C2080 C2079 1.369 . S
C2080 C2089 1.429 . S
C2081 C2079 1.419 . S
C2081 C2082 1.363 . S
C2081 H2084 0.929 . S
C2082 C2081 1.363 . S
C2082 C2088 1.428 . S
H2083 C2079 0.930 . S
H2084 C2081 0.929 . S
S2085 N2086 1.613 . S
S2085 N2087 1.610 . S
N2086 S2085 1.613 . S
N2086 C2089 1.350 . S
N2087 S2085 1.610 . S
N2087 C2088 1.351 . S
C2088 C2082 1.428 . S
C2088 N2087 1.351 . S
C2088 C2089 1.434 . S
C2089 C2080 1.429 . S
C2089 N2086 1.350 . S
C2089 C2088 1.434 . S
C2090 C2091 1.369 . S
C2090 C2092 1.419 . S
C2090 H2094 0.930 . S
C2091 C2090 1.369 . S
C2091 C2100 1.429 . S
C2092 C2090 1.419 . S
C2092 C2093 1.363 . S
C2092 H2095 0.929 . S
C2093 C2092 1.363 . S
C2093 C2099 1.428 . S
H2094 C2090 0.930 . S
H2095 C2092 0.929 . S
S2096 N2097 1.613 . S
S2096 N2098 1.610 . S
N2097 S2096 1.613 . S
N2097 C2100 1.350 . S
N2098 S2096 1.610 . S
N2098 C2099 1.351 . S
C2099 C2093 1.428 . S
C2099 N2098 1.351 . S
C2099 C2100 1.434 . S
C2100 C2091 1.429 . S
C2100 N2097 1.350 . S
C2100 C2099 1.434 . S
C2101 C2102 1.369 . S
C2101 C2103 1.419 . S
C2101 H2105 0.930 . S
C2102 C2101 1.369 . S
C2102 C2111 1.429 . S
C2103 C2101 1.419 . S
C2103 C2104 1.363 . S
C2103 H2106 0.929 . S
C2104 C2103 1.363 . S
C2104 C2110 1.428 . S
H2105 C2101 0.930 . S
H2106 C2103 0.929 . S
S2107 N2108 1.613 . S
S2107 N2109 1.610 . S
N2108 S2107 1.613 . S
N2108 C2111 1.350 . S
N2109 S2107 1.610 . S
N2109 C2110 1.351 . S
C2110 C2104 1.428 . S
C2110 N2109 1.351 . S
C2110 C2111 1.434 . S
C2111 C2102 1.429 . S
C2111 N2108 1.350 . S
C2111 C2110 1.434 . S
C2112 C2113 1.369 . S
C2112 C2114 1.419 . S
C2112 H2116 0.930 . S
C2113 C2112 1.369 . S
C2113 C2122 1.429 . S
C2114 C2112 1.419 . S
C2114 C2115 1.363 . S
C2114 H2117 0.929 . S
C2115 C2114 1.363 . S
C2115 C2121 1.428 . S
H2116 C2112 0.930 . S
H2117 C2114 0.929 . S
S2118 N2119 1.613 . S
S2118 N2120 1.610 . S
N2119 S2118 1.613 . S
N2119 C2122 1.350 . S
N2120 S2118 1.610 . S
N2120 C2121 1.351 . S
C2121 C2115 1.428 . S
C2121 N2120 1.351 . S
C2121 C2122 1.434 . S
C2122 C2113 1.429 . S
C2122 N2119 1.350 . S
C2122 C2121 1.434 . S
C2123 C2124 1.369 . S
C2123 C2125 1.419 . S
C2123 H2127 0.930 . S
C2124 C2123 1.369 . S
C2124 C2133 1.429 . S
C2125 C2123 1.419 . S
C2125 C2126 1.363 . S
C2125 H2128 0.929 . S
C2126 C2125 1.363 . S
C2126 C2132 1.428 . S
H2127 C2123 0.930 . S
H2128 C2125 0.929 . S
S2129 N2130 1.613 . S
S2129 N2131 1.610 . S
N2130 S2129 1.613 . S
N2130 C2133 1.350 . S
N2131 S2129 1.610 . S
N2131 C2132 1.351 . S
C2132 C2126 1.428 . S
C2132 N2131 1.351 . S
C2132 C2133 1.434 . S
C2133 C2124 1.429 . S
C2133 N2130 1.350 . S
C2133 C2132 1.434 . S
C2134 C2135 1.369 . S
C2134 C2136 1.419 . S
C2134 H2138 0.930 . S
C2135 C2134 1.369 . S
C2135 C2144 1.429 . S
C2136 C2134 1.419 . S
C2136 C2137 1.363 . S
C2136 H2139 0.929 . S
C2137 C2136 1.363 . S
C2137 C2143 1.428 . S
H2138 C2134 0.930 . S
H2139 C2136 0.929 . S
S2140 N2141 1.613 . S
S2140 N2142 1.610 . S
N2141 S2140 1.613 . S
N2141 C2144 1.350 . S
N2142 S2140 1.610 . S
N2142 C2143 1.351 . S
C2143 C2137 1.428 . S
C2143 N2142 1.351 . S
C2143 C2144 1.434 . S
C2144 C2135 1.429 . S
C2144 N2141 1.350 . S
C2144 C2143 1.434 . S
C2145 C2146 1.369 . S
C2145 C2147 1.419 . S
C2145 H2149 0.930 . S
C2146 C2145 1.369 . S
C2146 C2155 1.429 . S
C2147 C2145 1.419 . S
C2147 C2148 1.363 . S
C2147 H2150 0.929 . S
C2148 C2147 1.363 . S
C2148 C2154 1.428 . S
H2149 C2145 0.930 . S
H2150 C2147 0.929 . S
S2151 N2152 1.613 . S
S2151 N2153 1.610 . S
N2152 S2151 1.613 . S
N2152 C2155 1.350 . S
N2153 S2151 1.610 . S
N2153 C2154 1.351 . S
C2154 C2148 1.428 . S
C2154 N2153 1.351 . S
C2154 C2155 1.434 . S
C2155 C2146 1.429 . S
C2155 N2152 1.350 . S
C2155 C2154 1.434 . S
C2156 C2157 1.369 . S
C2156 C2158 1.419 . S
C2156 H2160 0.930 . S
C2157 C2156 1.369 . S
C2157 C2166 1.429 . S
C2158 C2156 1.419 . S
C2158 C2159 1.363 . S
C2158 H2161 0.929 . S
C2159 C2158 1.363 . S
C2159 C2165 1.428 . S
H2160 C2156 0.930 . S
H2161 C2158 0.929 . S
S2162 N2163 1.613 . S
S2162 N2164 1.610 . S
N2163 S2162 1.613 . S
N2163 C2166 1.350 . S
N2164 S2162 1.610 . S
N2164 C2165 1.351 . S
C2165 C2159 1.428 . S
C2165 N2164 1.351 . S
C2165 C2166 1.434 . S
C2166 C2157 1.429 . S
C2166 N2163 1.350 . S
C2166 C2165 1.434 . S
C2167 C2168 1.369 . S
C2167 C2169 1.419 . S
C2167 H2171 0.930 . S
C2168 C2167 1.369 . S
C2168 C2177 1.429 . S
C2169 C2167 1.419 . S
C2169 C2170 1.363 . S
C2169 H2172 0.929 . S
C2170 C2169 1.363 . S
C2170 C2176 1.428 . S
H2171 C2167 0.930 . S
H2172 C2169 0.929 . S
S2173 N2174 1.613 . S
S2173 N2175 1.610 . S
N2174 S2173 1.613 . S
N2174 C2177 1.350 . S
N2175 S2173 1.610 . S
N2175 C2176 1.351 . S
C2176 C2170 1.428 . S
C2176 N2175 1.351 . S
C2176 C2177 1.434 . S
C2177 C2168 1.429 . S
C2177 N2174 1.350 . S
C2177 C2176 1.434 . S
C2178 C2179 1.369 . S
C2178 C2180 1.419 . S
C2178 H2182 0.930 . S
C2179 C2178 1.369 . S
C2179 C2188 1.429 . S
C2180 C2178 1.419 . S
C2180 C2181 1.363 . S
C2180 H2183 0.929 . S
C2181 C2180 1.363 . S
C2181 C2187 1.428 . S
H2182 C2178 0.930 . S
H2183 C2180 0.929 . S
S2184 N2185 1.613 . S
S2184 N2186 1.610 . S
N2185 S2184 1.613 . S
N2185 C2188 1.350 . S
N2186 S2184 1.610 . S
N2186 C2187 1.351 . S
C2187 C2181 1.428 . S
C2187 N2186 1.351 . S
C2187 C2188 1.434 . S
C2188 C2179 1.429 . S
C2188 N2185 1.350 . S
C2188 C2187 1.434 . S
C2189 C2190 1.369 . S
C2189 C2191 1.419 . S
C2189 H2193 0.930 . S
C2190 C2189 1.369 . S
C2190 C2199 1.429 . S
C2191 C2189 1.419 . S
C2191 C2192 1.363 . S
C2191 H2194 0.929 . S
C2192 C2191 1.363 . S
C2192 C2198 1.428 . S
H2193 C2189 0.930 . S
H2194 C2191 0.929 . S
S2195 N2196 1.613 . S
S2195 N2197 1.610 . S
N2196 S2195 1.613 . S
N2196 C2199 1.350 . S
N2197 S2195 1.610 . S
N2197 C2198 1.351 . S
C2198 C2192 1.428 . S
C2198 N2197 1.351 . S
C2198 C2199 1.434 . S
C2199 C2190 1.429 . S
C2199 N2196 1.350 . S
C2199 C2198 1.434 . S
C2200 C2201 1.369 . S
C2200 C2202 1.419 . S
C2200 H2204 0.930 . S
C2201 C2200 1.369 . S
C2201 C2210 1.429 . S
C2202 C2200 1.419 . S
C2202 C2203 1.363 . S
C2202 H2205 0.929 . S
C2203 C2202 1.363 . S
C2203 C2209 1.428 . S
H2204 C2200 0.930 . S
H2205 C2202 0.929 . S
S2206 N2207 1.613 . S
S2206 N2208 1.610 . S
N2207 S2206 1.613 . S
N2207 C2210 1.350 . S
N2208 S2206 1.610 . S
N2208 C2209 1.351 . S
C2209 C2203 1.428 . S
C2209 N2208 1.351 . S
C2209 C2210 1.434 . S
C2210 C2201 1.429 . S
C2210 N2207 1.350 . S
C2210 C2209 1.434 . S
C2211 C2212 1.369 . S
C2211 C2213 1.419 . S
C2211 H2215 0.930 . S
C2212 C2211 1.369 . S
C2212 C2221 1.429 . S
C2213 C2211 1.419 . S
C2213 C2214 1.363 . S
C2213 H2216 0.929 . S
C2214 C2213 1.363 . S
C2214 C2220 1.428 . S
H2215 C2211 0.930 . S
H2216 C2213 0.929 . S
S2217 N2218 1.613 . S
S2217 N2219 1.610 . S
N2218 S2217 1.613 . S
N2218 C2221 1.350 . S
N2219 S2217 1.610 . S
N2219 C2220 1.351 . S
C2220 C2214 1.428 . S
C2220 N2219 1.351 . S
C2220 C2221 1.434 . S
C2221 C2212 1.429 . S
C2221 N2218 1.350 . S
C2221 C2220 1.434 . S
C2222 C2223 1.369 . S
C2222 C2224 1.419 . S
C2222 H2226 0.930 . S
C2223 C2222 1.369 . S
C2223 C2232 1.429 . S
C2224 C2222 1.419 . S
C2224 C2225 1.363 . S
C2224 H2227 0.929 . S
C2225 C2224 1.363 . S
C2225 C2231 1.428 . S
H2226 C2222 0.930 . S
H2227 C2224 0.929 . S
S2228 N2229 1.613 . S
S2228 N2230 1.610 . S
N2229 S2228 1.613 . S
N2229 C2232 1.350 . S
N2230 S2228 1.610 . S
N2230 C2231 1.351 . S
C2231 C2225 1.428 . S
C2231 N2230 1.351 . S
C2231 C2232 1.434 . S
C2232 C2223 1.429 . S
C2232 N2229 1.350 . S
C2232 C2231 1.434 . S
C2233 C2234 1.369 . S
C2233 C2235 1.419 . S
C2233 H2237 0.930 . S
C2234 C2233 1.369 . S
C2234 C2243 1.429 . S
C2235 C2233 1.419 . S
C2235 C2236 1.363 . S
C2235 H2238 0.929 . S
C2236 C2235 1.363 . S
C2236 C2242 1.428 . S
H2237 C2233 0.930 . S
H2238 C2235 0.929 . S
S2239 N2240 1.613 . S
S2239 N2241 1.610 . S
N2240 S2239 1.613 . S
N2240 C2243 1.350 . S
N2241 S2239 1.610 . S
N2241 C2242 1.351 . S
C2242 C2236 1.428 . S
C2242 N2241 1.351 . S
C2242 C2243 1.434 . S
C2243 C2234 1.429 . S
C2243 N2240 1.350 . S
C2243 C2242 1.434 . S
C2244 C2245 1.369 . S
C2244 C2246 1.419 . S
C2244 H2248 0.930 . S
C2245 C2244 1.369 . S
C2245 C2254 1.429 . S
C2246 C2244 1.419 . S
C2246 C2247 1.363 . S
C2246 H2249 0.929 . S
C2247 C2246 1.363 . S
C2247 C2253 1.428 . S
H2248 C2244 0.930 . S
H2249 C2246 0.929 . S
S2250 N2251 1.613 . S
S2250 N2252 1.610 . S
N2251 S2250 1.613 . S
N2251 C2254 1.350 . S
N2252 S2250 1.610 . S
N2252 C2253 1.351 . S
C2253 C2247 1.428 . S
C2253 N2252 1.351 . S
C2253 C2254 1.434 . S
C2254 C2245 1.429 . S
C2254 N2251 1.350 . S
C2254 C2253 1.434 . S
C2255 C2256 1.369 . S
C2255 C2257 1.419 . S
C2255 H2259 0.930 . S
C2256 C2255 1.369 . S
C2256 C2265 1.429 . S
C2257 C2255 1.419 . S
C2257 C2258 1.363 . S
C2257 H2260 0.929 . S
C2258 C2257 1.363 . S
C2258 C2264 1.428 . S
H2259 C2255 0.930 . S
H2260 C2257 0.929 . S
S2261 N2262 1.613 . S
S2261 N2263 1.610 . S
N2262 S2261 1.613 . S
N2262 C2265 1.350 . S
N2263 S2261 1.610 . S
N2263 C2264 1.351 . S
C2264 C2258 1.428 . S
C2264 N2263 1.351 . S
C2264 C2265 1.434 . S
C2265 C2256 1.429 . S
C2265 N2262 1.350 . S
C2265 C2264 1.434 . S
C2266 C2267 1.369 . S
C2266 C2268 1.419 . S
C2266 H2270 0.930 . S
C2267 C2266 1.369 . S
C2267 C2276 1.429 . S
C2268 C2266 1.419 . S
C2268 C2269 1.363 . S
C2268 H2271 0.929 . S
C2269 C2268 1.363 . S
C2269 C2275 1.428 . S
H2270 C2266 0.930 . S
H2271 C2268 0.929 . S
S2272 N2273 1.613 . S
S2272 N2274 1.610 . S
N2273 S2272 1.613 . S
N2273 C2276 1.350 . S
N2274 S2272 1.610 . S
N2274 C2275 1.351 . S
C2275 C2269 1.428 . S
C2275 N2274 1.351 . S
C2275 C2276 1.434 . S
C2276 C2267 1.429 . S
C2276 N2273 1.350 . S
C2276 C2275 1.434 . S
C2277 C2278 1.369 . S
C2277 C2279 1.419 . S
C2277 H2281 0.930 . S
C2278 C2277 1.369 . S
C2278 C2287 1.429 . S
C2279 C2277 1.419 . S
C2279 C2280 1.363 . S
C2279 H2282 0.929 . S
C2280 C2279 1.363 . S
C2280 C2286 1.428 . S
H2281 C2277 0.930 . S
H2282 C2279 0.929 . S
S2283 N2284 1.613 . S
S2283 N2285 1.610 . S
N2284 S2283 1.613 . S
N2284 C2287 1.350 . S
N2285 S2283 1.610 . S
N2285 C2286 1.351 . S
C2286 C2280 1.428 . S
C2286 N2285 1.351 . S
C2286 C2287 1.434 . S
C2287 C2278 1.429 . S
C2287 N2284 1.350 . S
C2287 C2286 1.434 . S
C2288 C2289 1.369 . S
C2288 C2290 1.419 . S
C2288 H2292 0.930 . S
C2289 C2288 1.369 . S
C2289 C2298 1.429 . S
C2290 C2288 1.419 . S
C2290 C2291 1.363 . S
C2290 H2293 0.929 . S
C2291 C2290 1.363 . S
C2291 C2297 1.428 . S
H2292 C2288 0.930 . S
H2293 C2290 0.929 . S
S2294 N2295 1.613 . S
S2294 N2296 1.610 . S
N2295 S2294 1.613 . S
N2295 C2298 1.350 . S
N2296 S2294 1.610 . S
N2296 C2297 1.351 . S
C2297 C2291 1.428 . S
C2297 N2296 1.351 . S
C2297 C2298 1.434 . S
C2298 C2289 1.429 . S
C2298 N2295 1.350 . S
C2298 C2297 1.434 . S
C2299 C2300 1.369 . S
C2299 C2301 1.419 . S
C2299 H2303 0.930 . S
C2300 C2299 1.369 . S
C2300 C2309 1.429 . S
C2301 C2299 1.419 . S
C2301 C2302 1.363 . S
C2301 H2304 0.929 . S
C2302 C2301 1.363 . S
C2302 C2308 1.428 . S
H2303 C2299 0.930 . S
H2304 C2301 0.929 . S
S2305 N2306 1.613 . S
S2305 N2307 1.610 . S
N2306 S2305 1.613 . S
N2306 C2309 1.350 . S
N2307 S2305 1.610 . S
N2307 C2308 1.351 . S
C2308 C2302 1.428 . S
C2308 N2307 1.351 . S
C2308 C2309 1.434 . S
C2309 C2300 1.429 . S
C2309 N2306 1.350 . S
C2309 C2308 1.434 . S
C2310 C2311 1.369 . S
C2310 C2312 1.419 . S
C2310 H2314 0.930 . S
C2311 C2310 1.369 . S
C2311 C2320 1.429 . S
C2312 C2310 1.419 . S
C2312 C2313 1.363 . S
C2312 H2315 0.929 . S
C2313 C2312 1.363 . S
C2313 C2319 1.428 . S
H2314 C2310 0.930 . S
H2315 C2312 0.929 . S
S2316 N2317 1.613 . S
S2316 N2318 1.610 . S
N2317 S2316 1.613 . S
N2317 C2320 1.350 . S
N2318 S2316 1.610 . S
N2318 C2319 1.351 . S
C2319 C2313 1.428 . S
C2319 N2318 1.351 . S
C2319 C2320 1.434 . S
C2320 C2311 1.429 . S
C2320 N2317 1.350 . S
C2320 C2319 1.434 . S
C2321 C2322 1.369 . S
C2321 C2323 1.419 . S
C2321 H2325 0.930 . S
C2322 C2321 1.369 . S
C2322 C2331 1.429 . S
C2323 C2321 1.419 . S
C2323 C2324 1.363 . S
C2323 H2326 0.929 . S
C2324 C2323 1.363 . S
C2324 C2330 1.428 . S
H2325 C2321 0.930 . S
H2326 C2323 0.929 . S
S2327 N2328 1.613 . S
S2327 N2329 1.610 . S
N2328 S2327 1.613 . S
N2328 C2331 1.350 . S
N2329 S2327 1.610 . S
N2329 C2330 1.351 . S
C2330 C2324 1.428 . S
C2330 N2329 1.351 . S
C2330 C2331 1.434 . S
C2331 C2322 1.429 . S
C2331 N2328 1.350 . S
C2331 C2330 1.434 . S
C2332 C2333 1.369 . S
C2332 C2334 1.419 . S
C2332 H2336 0.930 . S
C2333 C2332 1.369 . S
C2333 C2342 1.429 . S
C2334 C2332 1.419 . S
C2334 C2335 1.363 . S
C2334 H2337 0.929 . S
C2335 C2334 1.363 . S
C2335 C2341 1.428 . S
H2336 C2332 0.930 . S
H2337 C2334 0.929 . S
S2338 N2339 1.613 . S
S2338 N2340 1.610 . S
N2339 S2338 1.613 . S
N2339 C2342 1.350 . S
N2340 S2338 1.610 . S
N2340 C2341 1.351 . S
C2341 C2335 1.428 . S
C2341 N2340 1.351 . S
C2341 C2342 1.434 . S
C2342 C2333 1.429 . S
C2342 N2339 1.350 . S
C2342 C2341 1.434 . S
C2343 C2344 1.369 . S
C2343 C2345 1.419 . S
C2343 H2347 0.930 . S
C2344 C2343 1.369 . S
C2344 C2353 1.429 . S
C2345 C2343 1.419 . S
C2345 C2346 1.363 . S
C2345 H2348 0.929 . S
C2346 C2345 1.363 . S
C2346 C2352 1.428 . S
H2347 C2343 0.930 . S
H2348 C2345 0.929 . S
S2349 N2350 1.613 . S
S2349 N2351 1.610 . S
N2350 S2349 1.613 . S
N2350 C2353 1.350 . S
N2351 S2349 1.610 . S
N2351 C2352 1.351 . S
C2352 C2346 1.428 . S
C2352 N2351 1.351 . S
C2352 C2353 1.434 . S
C2353 C2344 1.429 . S
C2353 N2350 1.350 . S
C2353 C2352 1.434 . S
C2354 C2355 1.369 . S
C2354 C2356 1.419 . S
C2354 H2358 0.930 . S
C2355 C2354 1.369 . S
C2355 C2364 1.429 . S
C2356 C2354 1.419 . S
C2356 C2357 1.363 . S
C2356 H2359 0.929 . S
C2357 C2356 1.363 . S
C2357 C2363 1.428 . S
H2358 C2354 0.930 . S
H2359 C2356 0.929 . S
S2360 N2361 1.613 . S
S2360 N2362 1.610 . S
N2361 S2360 1.613 . S
N2361 C2364 1.350 . S
N2362 S2360 1.610 . S
N2362 C2363 1.351 . S
C2363 C2357 1.428 . S
C2363 N2362 1.351 . S
C2363 C2364 1.434 . S
C2364 C2355 1.429 . S
C2364 N2361 1.350 . S
C2364 C2363 1.434 . S
C2365 C2366 1.369 . S
C2365 C2367 1.419 . S
C2365 H2369 0.930 . S
C2366 C2365 1.369 . S
C2366 C2375 1.429 . S
C2367 C2365 1.419 . S
C2367 C2368 1.363 . S
C2367 H2370 0.929 . S
C2368 C2367 1.363 . S
C2368 C2374 1.428 . S
H2369 C2365 0.930 . S
H2370 C2367 0.929 . S
S2371 N2372 1.613 . S
S2371 N2373 1.610 . S
N2372 S2371 1.613 . S
N2372 C2375 1.350 . S
N2373 S2371 1.610 . S
N2373 C2374 1.351 . S
C2374 C2368 1.428 . S
C2374 N2373 1.351 . S
C2374 C2375 1.434 . S
C2375 C2366 1.429 . S
C2375 N2372 1.350 . S
C2375 C2374 1.434 . S
C2376 C2377 1.369 . S
C2376 C2378 1.419 . S
C2376 H2380 0.930 . S
C2377 C2376 1.369 . S
C2377 C2386 1.429 . S
C2378 C2376 1.419 . S
C2378 C2379 1.363 . S
C2378 H2381 0.929 . S
C2379 C2378 1.363 . S
C2379 C2385 1.428 . S
H2380 C2376 0.930 . S
H2381 C2378 0.929 . S
S2382 N2383 1.613 . S
S2382 N2384 1.610 . S
N2383 S2382 1.613 . S
N2383 C2386 1.350 . S
N2384 S2382 1.610 . S
N2384 C2385 1.351 . S
C2385 C2379 1.428 . S
C2385 N2384 1.351 . S
C2385 C2386 1.434 . S
C2386 C2377 1.429 . S
C2386 N2383 1.350 . S
C2386 C2385 1.434 . S
C2387 C2388 1.369 . S
C2387 C2389 1.419 . S
C2387 H2391 0.930 . S
C2388 C2387 1.369 . S
C2388 C2397 1.429 . S
C2389 C2387 1.419 . S
C2389 C2390 1.363 . S
C2389 H2392 0.929 . S
C2390 C2389 1.363 . S
C2390 C2396 1.428 . S
H2391 C2387 0.930 . S
H2392 C2389 0.929 . S
S2393 N2394 1.613 . S
S2393 N2395 1.610 . S
N2394 S2393 1.613 . S
N2394 C2397 1.350 . S
N2395 S2393 1.610 . S
N2395 C2396 1.351 . S
C2396 C2390 1.428 . S
C2396 N2395 1.351 . S
C2396 C2397 1.434 . S
C2397 C2388 1.429 . S
C2397 N2394 1.350 . S
C2397 C2396 1.434 . S
C2398 C2399 1.369 . S
C2398 C2400 1.419 . S
C2398 H2402 0.930 . S
C2399 C2398 1.369 . S
C2399 C2408 1.429 . S
C2400 C2398 1.419 . S
C2400 C2401 1.363 . S
C2400 H2403 0.929 . S
C2401 C2400 1.363 . S
C2401 C2407 1.428 . S
H2402 C2398 0.930 . S
H2403 C2400 0.929 . S
S2404 N2405 1.613 . S
S2404 N2406 1.610 . S
N2405 S2404 1.613 . S
N2405 C2408 1.350 . S
N2406 S2404 1.610 . S
N2406 C2407 1.351 . S
C2407 C2401 1.428 . S
C2407 N2406 1.351 . S
C2407 C2408 1.434 . S
C2408 C2399 1.429 . S
C2408 N2405 1.350 . S
C2408 C2407 1.434 . S
C2409 C2410 1.369 . S
C2409 C2411 1.419 . S
C2409 H2413 0.930 . S
C2410 C2409 1.369 . S
C2410 C2419 1.429 . S
C2411 C2409 1.419 . S
C2411 C2412 1.363 . S
C2411 H2414 0.929 . S
C2412 C2411 1.363 . S
C2412 C2418 1.428 . S
H2413 C2409 0.930 . S
H2414 C2411 0.929 . S
S2415 N2416 1.613 . S
S2415 N2417 1.610 . S
N2416 S2415 1.613 . S
N2416 C2419 1.350 . S
N2417 S2415 1.610 . S
N2417 C2418 1.351 . S
C2418 C2412 1.428 . S
C2418 N2417 1.351 . S
C2418 C2419 1.434 . S
C2419 C2410 1.429 . S
C2419 N2416 1.350 . S
C2419 C2418 1.434 . S
C2420 C2421 1.369 . S
C2420 C2422 1.419 . S
C2420 H2424 0.930 . S
C2421 C2420 1.369 . S
C2421 C2430 1.429 . S
C2422 C2420 1.419 . S
C2422 C2423 1.363 . S
C2422 H2425 0.929 . S
C2423 C2422 1.363 . S
C2423 C2429 1.428 . S
H2424 C2420 0.930 . S
H2425 C2422 0.929 . S
S2426 N2427 1.613 . S
S2426 N2428 1.610 . S
N2427 S2426 1.613 . S
N2427 C2430 1.350 . S
N2428 S2426 1.610 . S
N2428 C2429 1.351 . S
C2429 C2423 1.428 . S
C2429 N2428 1.351 . S
C2429 C2430 1.434 . S
C2430 C2421 1.429 . S
C2430 N2427 1.350 . S
C2430 C2429 1.434 . S
C2431 C2432 1.369 . S
C2431 C2433 1.419 . S
C2431 H2435 0.930 . S
C2432 C2431 1.369 . S
C2432 C2441 1.429 . S
C2433 C2431 1.419 . S
C2433 C2434 1.363 . S
C2433 H2436 0.929 . S
C2434 C2433 1.363 . S
C2434 C2440 1.428 . S
H2435 C2431 0.930 . S
H2436 C2433 0.929 . S
S2437 N2438 1.613 . S
S2437 N2439 1.610 . S
N2438 S2437 1.613 . S
N2438 C2441 1.350 . S
N2439 S2437 1.610 . S
N2439 C2440 1.351 . S
C2440 C2434 1.428 . S
C2440 N2439 1.351 . S
C2440 C2441 1.434 . S
C2441 C2432 1.429 . S
C2441 N2438 1.350 . S
C2441 C2440 1.434 . S
C2442 C2443 1.369 . S
C2442 C2444 1.419 . S
C2442 H2446 0.930 . S
C2443 C2442 1.369 . S
C2443 C2452 1.429 . S
C2444 C2442 1.419 . S
C2444 C2445 1.363 . S
C2444 H2447 0.929 . S
C2445 C2444 1.363 . S
C2445 C2451 1.428 . S
H2446 C2442 0.930 . S
H2447 C2444 0.929 . S
S2448 N2449 1.613 . S
S2448 N2450 1.610 . S
N2449 S2448 1.613 . S
N2449 C2452 1.350 . S
N2450 S2448 1.610 . S
N2450 C2451 1.351 . S
C2451 C2445 1.428 . S
C2451 N2450 1.351 . S
C2451 C2452 1.434 . S
C2452 C2443 1.429 . S
C2452 N2449 1.350 . S
C2452 C2451 1.434 . S
C2453 C2454 1.369 . S
C2453 C2455 1.419 . S
C2453 H2457 0.930 . S
C2454 C2453 1.369 . S
C2454 C2463 1.429 . S
C2455 C2453 1.419 . S
C2455 C2456 1.363 . S
C2455 H2458 0.929 . S
C2456 C2455 1.363 . S
C2456 C2462 1.428 . S
H2457 C2453 0.930 . S
H2458 C2455 0.929 . S
S2459 N2460 1.613 . S
S2459 N2461 1.610 . S
N2460 S2459 1.613 . S
N2460 C2463 1.350 . S
N2461 S2459 1.610 . S
N2461 C2462 1.351 . S
C2462 C2456 1.428 . S
C2462 N2461 1.351 . S
C2462 C2463 1.434 . S
C2463 C2454 1.429 . S
C2463 N2460 1.350 . S
C2463 C2462 1.434 . S
C2464 C2465 1.369 . S
C2464 C2466 1.419 . S
C2464 H2468 0.930 . S
C2465 C2464 1.369 . S
C2465 C2474 1.429 . S
C2466 C2464 1.419 . S
C2466 C2467 1.363 . S
C2466 H2469 0.929 . S
C2467 C2466 1.363 . S
C2467 C2473 1.428 . S
H2468 C2464 0.930 . S
H2469 C2466 0.929 . S
S2470 N2471 1.613 . S
S2470 N2472 1.610 . S
N2471 S2470 1.613 . S
N2471 C2474 1.350 . S
N2472 S2470 1.610 . S
N2472 C2473 1.351 . S
C2473 C2467 1.428 . S
C2473 N2472 1.351 . S
C2473 C2474 1.434 . S
C2474 C2465 1.429 . S
C2474 N2471 1.350 . S
C2474 C2473 1.434 . S
C2475 C2476 1.369 . S
C2475 C2477 1.419 . S
C2475 H2479 0.930 . S
C2476 C2475 1.369 . S
C2476 C2485 1.429 . S
C2477 C2475 1.419 . S
C2477 C2478 1.363 . S
C2477 H2480 0.929 . S
C2478 C2477 1.363 . S
C2478 C2484 1.428 . S
H2479 C2475 0.930 . S
H2480 C2477 0.929 . S
S2481 N2482 1.613 . S
S2481 N2483 1.610 . S
N2482 S2481 1.613 . S
N2482 C2485 1.350 . S
N2483 S2481 1.610 . S
N2483 C2484 1.351 . S
C2484 C2478 1.428 . S
C2484 N2483 1.351 . S
C2484 C2485 1.434 . S
C2485 C2476 1.429 . S
C2485 N2482 1.350 . S
C2485 C2484 1.434 . S
C2486 C2487 1.369 . S
C2486 C2488 1.419 . S
C2486 H2490 0.930 . S
C2487 C2486 1.369 . S
C2487 C2496 1.429 . S
C2488 C2486 1.419 . S
C2488 C2489 1.363 . S
C2488 H2491 0.929 . S
C2489 C2488 1.363 . S
C2489 C2495 1.428 . S
H2490 C2486 0.930 . S
H2491 C2488 0.929 . S
S2492 N2493 1.613 . S
S2492 N2494 1.610 . S
N2493 S2492 1.613 . S
N2493 C2496 1.350 . S
N2494 S2492 1.610 . S
N2494 C2495 1.351 . S
C2495 C2489 1.428 . S
C2495 N2494 1.351 . S
C2495 C2496 1.434 . S
C2496 C2487 1.429 . S
C2496 N2493 1.350 . S
C2496 C2495 1.434 . S
C2497 C2498 1.369 . S
C2497 C2499 1.419 . S
C2497 H2501 0.930 . S
C2498 C2497 1.369 . S
C2498 C2507 1.429 . S
C2499 C2497 1.419 . S
C2499 C2500 1.363 . S
C2499 H2502 0.929 . S
C2500 C2499 1.363 . S
C2500 C2506 1.428 . S
H2501 C2497 0.930 . S
H2502 C2499 0.929 . S
S2503 N2504 1.613 . S
S2503 N2505 1.610 . S
N2504 S2503 1.613 . S
N2504 C2507 1.350 . S
N2505 S2503 1.610 . S
N2505 C2506 1.351 . S
C2506 C2500 1.428 . S
C2506 N2505 1.351 . S
C2506 C2507 1.434 . S
C2507 C2498 1.429 . S
C2507 N2504 1.350 . S
C2507 C2506 1.434 . S
C2508 C2509 1.369 . S
C2508 C2510 1.419 . S
C2508 H2512 0.930 . S
C2509 C2508 1.369 . S
C2509 C2518 1.429 . S
C2510 C2508 1.419 . S
C2510 C2511 1.363 . S
C2510 H2513 0.929 . S
C2511 C2510 1.363 . S
C2511 C2517 1.428 . S
H2512 C2508 0.930 . S
H2513 C2510 0.929 . S
S2514 N2515 1.613 . S
S2514 N2516 1.610 . S
N2515 S2514 1.613 . S
N2515 C2518 1.350 . S
N2516 S2514 1.610 . S
N2516 C2517 1.351 . S
C2517 C2511 1.428 . S
C2517 N2516 1.351 . S
C2517 C2518 1.434 . S
C2518 C2509 1.429 . S
C2518 N2515 1.350 . S
C2518 C2517 1.434 . S
C2519 C2520 1.369 . S
C2519 C2521 1.419 . S
C2519 H2523 0.930 . S
C2520 C2519 1.369 . S
C2520 C2529 1.429 . S
C2521 C2519 1.419 . S
C2521 C2522 1.363 . S
C2521 H2524 0.929 . S
C2522 C2521 1.363 . S
C2522 C2528 1.428 . S
H2523 C2519 0.930 . S
H2524 C2521 0.929 . S
S2525 N2526 1.613 . S
S2525 N2527 1.610 . S
N2526 S2525 1.613 . S
N2526 C2529 1.350 . S
N2527 S2525 1.610 . S
N2527 C2528 1.351 . S
C2528 C2522 1.428 . S
C2528 N2527 1.351 . S
C2528 C2529 1.434 . S
C2529 C2520 1.429 . S
C2529 N2526 1.350 . S
C2529 C2528 1.434 . S
C2530 C2531 1.369 . S
C2530 C2532 1.419 . S
C2530 H2534 0.930 . S
C2531 C2530 1.369 . S
C2531 C2540 1.429 . S
C2532 C2530 1.419 . S
C2532 C2533 1.363 . S
C2532 H2535 0.929 . S
C2533 C2532 1.363 . S
C2533 C2539 1.428 . S
H2534 C2530 0.930 . S
H2535 C2532 0.929 . S
S2536 N2537 1.613 . S
S2536 N2538 1.610 . S
N2537 S2536 1.613 . S
N2537 C2540 1.350 . S
N2538 S2536 1.610 . S
N2538 C2539 1.351 . S
C2539 C2533 1.428 . S
C2539 N2538 1.351 . S
C2539 C2540 1.434 . S
C2540 C2531 1.429 . S
C2540 N2537 1.350 . S
C2540 C2539 1.434 . S
C2541 C2542 1.369 . S
C2541 C2543 1.419 . S
C2541 H2545 0.930 . S
C2542 C2541 1.369 . S
C2542 C2551 1.429 . S
C2543 C2541 1.419 . S
C2543 C2544 1.363 . S
C2543 H2546 0.929 . S
C2544 C2543 1.363 . S
C2544 C2550 1.428 . S
H2545 C2541 0.930 . S
H2546 C2543 0.929 . S
S2547 N2548 1.613 . S
S2547 N2549 1.610 . S
N2548 S2547 1.613 . S
N2548 C2551 1.350 . S
N2549 S2547 1.610 . S
N2549 C2550 1.351 . S
C2550 C2544 1.428 . S
C2550 N2549 1.351 . S
C2550 C2551 1.434 . S
C2551 C2542 1.429 . S
C2551 N2548 1.350 . S
C2551 C2550 1.434 . S
C2552 C2553 1.369 . S
C2552 C2554 1.419 . S
C2552 H2556 0.930 . S
C2553 C2552 1.369 . S
C2553 C2562 1.429 . S
C2554 C2552 1.419 . S
C2554 C2555 1.363 . S
C2554 H2557 0.929 . S
C2555 C2554 1.363 . S
C2555 C2561 1.428 . S
H2556 C2552 0.930 . S
H2557 C2554 0.929 . S
S2558 N2559 1.613 . S
S2558 N2560 1.610 . S
N2559 S2558 1.613 . S
N2559 C2562 1.350 . S
N2560 S2558 1.610 . S
N2560 C2561 1.351 . S
C2561 C2555 1.428 . S
C2561 N2560 1.351 . S
C2561 C2562 1.434 . S
C2562 C2553 1.429 . S
C2562 N2559 1.350 . S
C2562 C2561 1.434 . S
C2563 C2564 1.369 . S
C2563 C2565 1.419 . S
C2563 H2567 0.930 . S
C2564 C2563 1.369 . S
C2564 C2573 1.429 . S
C2565 C2563 1.419 . S
C2565 C2566 1.363 . S
C2565 H2568 0.929 . S
C2566 C2565 1.363 . S
C2566 C2572 1.428 . S
H2567 C2563 0.930 . S
H2568 C2565 0.929 . S
S2569 N2570 1.613 . S
S2569 N2571 1.610 . S
N2570 S2569 1.613 . S
N2570 C2573 1.350 . S
N2571 S2569 1.610 . S
N2571 C2572 1.351 . S
C2572 C2566 1.428 . S
C2572 N2571 1.351 . S
C2572 C2573 1.434 . S
C2573 C2564 1.429 . S
C2573 N2570 1.350 . S
C2573 C2572 1.434 . S
C2574 C2575 1.369 . S
C2574 C2576 1.419 . S
C2574 H2578 0.930 . S
C2575 C2574 1.369 . S
C2575 C2584 1.429 . S
C2576 C2574 1.419 . S
C2576 C2577 1.363 . S
C2576 H2579 0.929 . S
C2577 C2576 1.363 . S
C2577 C2583 1.428 . S
H2578 C2574 0.930 . S
H2579 C2576 0.929 . S
S2580 N2581 1.613 . S
S2580 N2582 1.610 . S
N2581 S2580 1.613 . S
N2581 C2584 1.350 . S
N2582 S2580 1.610 . S
N2582 C2583 1.351 . S
C2583 C2577 1.428 . S
C2583 N2582 1.351 . S
C2583 C2584 1.434 . S
C2584 C2575 1.429 . S
C2584 N2581 1.350 . S
C2584 C2583 1.434 . S
C2585 C2586 1.369 . S
C2585 C2587 1.419 . S
C2585 H2589 0.930 . S
C2586 C2585 1.369 . S
C2586 C2595 1.429 . S
C2587 C2585 1.419 . S
C2587 C2588 1.363 . S
C2587 H2590 0.929 . S
C2588 C2587 1.363 . S
C2588 C2594 1.428 . S
H2589 C2585 0.930 . S
H2590 C2587 0.929 . S
S2591 N2592 1.613 . S
S2591 N2593 1.610 . S
N2592 S2591 1.613 . S
N2592 C2595 1.350 . S
N2593 S2591 1.610 . S
N2593 C2594 1.351 . S
C2594 C2588 1.428 . S
C2594 N2593 1.351 . S
C2594 C2595 1.434 . S
C2595 C2586 1.429 . S
C2595 N2592 1.350 . S
C2595 C2594 1.434 . S
C2596 C2597 1.369 . S
C2596 C2598 1.419 . S
C2596 H2600 0.930 . S
C2597 C2596 1.369 . S
C2597 C2606 1.429 . S
C2598 C2596 1.419 . S
C2598 C2599 1.363 . S
C2598 H2601 0.929 . S
C2599 C2598 1.363 . S
C2599 C2605 1.428 . S
H2600 C2596 0.930 . S
H2601 C2598 0.929 . S
S2602 N2603 1.613 . S
S2602 N2604 1.610 . S
N2603 S2602 1.613 . S
N2603 C2606 1.350 . S
N2604 S2602 1.610 . S
N2604 C2605 1.351 . S
C2605 C2599 1.428 . S
C2605 N2604 1.351 . S
C2605 C2606 1.434 . S
C2606 C2597 1.429 . S
C2606 N2603 1.350 . S
C2606 C2605 1.434 . S
C2607 C2608 1.369 . S
C2607 C2609 1.419 . S
C2607 H2611 0.930 . S
C2608 C2607 1.369 . S
C2608 C2617 1.429 . S
C2609 C2607 1.419 . S
C2609 C2610 1.363 . S
C2609 H2612 0.929 . S
C2610 C2609 1.363 . S
C2610 C2616 1.428 . S
H2611 C2607 0.930 . S
H2612 C2609 0.929 . S
S2613 N2614 1.613 . S
S2613 N2615 1.610 . S
N2614 S2613 1.613 . S
N2614 C2617 1.350 . S
N2615 S2613 1.610 . S
N2615 C2616 1.351 . S
C2616 C2610 1.428 . S
C2616 N2615 1.351 . S
C2616 C2617 1.434 . S
C2617 C2608 1.429 . S
C2617 N2614 1.350 . S
C2617 C2616 1.434 . S
C2618 C2619 1.369 . S
C2618 C2620 1.419 . S
C2618 H2622 0.930 . S
C2619 C2618 1.369 . S
C2619 C2628 1.429 . S
C2620 C2618 1.419 . S
C2620 C2621 1.363 . S
C2620 H2623 0.929 . S
C2621 C2620 1.363 . S
C2621 C2627 1.428 . S
H2622 C2618 0.930 . S
H2623 C2620 0.929 . S
S2624 N2625 1.613 . S
S2624 N2626 1.610 . S
N2625 S2624 1.613 . S
N2625 C2628 1.350 . S
N2626 S2624 1.610 . S
N2626 C2627 1.351 . S
C2627 C2621 1.428 . S
C2627 N2626 1.351 . S
C2627 C2628 1.434 . S
C2628 C2619 1.429 . S
C2628 N2625 1.350 . S
C2628 C2627 1.434 . S
C2629 C2630 1.369 . S
C2629 C2631 1.419 . S
C2629 H2633 0.930 . S
C2630 C2629 1.369 . S
C2630 C2639 1.429 . S
C2631 C2629 1.419 . S
C2631 C2632 1.363 . S
C2631 H2634 0.929 . S
C2632 C2631 1.363 . S
C2632 C2638 1.428 . S
H2633 C2629 0.930 . S
H2634 C2631 0.929 . S
S2635 N2636 1.613 . S
S2635 N2637 1.610 . S
N2636 S2635 1.613 . S
N2636 C2639 1.350 . S
N2637 S2635 1.610 . S
N2637 C2638 1.351 . S
C2638 C2632 1.428 . S
C2638 N2637 1.351 . S
C2638 C2639 1.434 . S
C2639 C2630 1.429 . S
C2639 N2636 1.350 . S
C2639 C2638 1.434 . S
C2640 C2641 1.369 . S
C2640 C2642 1.419 . S
C2640 H2644 0.930 . S
C2641 C2640 1.369 . S
C2641 C2650 1.429 . S
C2642 C2640 1.419 . S
C2642 C2643 1.363 . S
C2642 H2645 0.929 . S
C2643 C2642 1.363 . S
C2643 C2649 1.428 . S
H2644 C2640 0.930 . S
H2645 C2642 0.929 . S
S2646 N2647 1.613 1_655 S
S2646 N2648 1.610 . S
N2647 S2646 1.613 1_455 S
N2647 C2650 1.350 . S
N2648 S2646 1.610 . S
N2648 C2649 1.351 1_655 S
C2649 C2643 1.428 . S
C2649 N2648 1.351 1_455 S
C2649 C2650 1.434 . S
C2650 C2641 1.429 . S
C2650 N2647 1.350 . S
C2650 C2649 1.434 . S
C2651 C2652 1.369 . S
C2651 C2653 1.419 . S
C2651 H2655 0.930 . S
C2652 C2651 1.369 . S
C2652 C2661 1.429 1_545 S
C2653 C2651 1.419 . S
C2653 C2654 1.363 . S
C2653 H2656 0.929 . S
C2654 C2653 1.363 . S
C2654 C2660 1.428 1_545 S
H2655 C2651 0.930 . S
H2656 C2653 0.929 . S
S2657 N2658 1.613 . S
S2657 N2659 1.610 . S
N2658 S2657 1.613 . S
N2658 C2661 1.350 . S
N2659 S2657 1.610 . S
N2659 C2660 1.351 . S
C2660 C2654 1.428 1_565 S
C2660 N2659 1.351 . S
C2660 C2661 1.434 . S
C2661 C2652 1.429 1_565 S
C2661 N2658 1.350 . S
C2661 C2660 1.434 . S
C2662 C2663 1.369 . S
C2662 C2664 1.419 . S
C2662 H2666 0.930 . S
C2663 C2662 1.369 . S
C2663 C2672 1.429 . S
C2664 C2662 1.419 . S
C2664 C2665 1.363 . S
C2664 H2667 0.929 . S
C2665 C2664 1.363 . S
C2665 C2671 1.425 1_455 S
H2666 C2662 0.930 . S
H2667 C2664 0.929 . S
S2668 N2669 1.613 . S
S2668 N2670 1.610 . S
N2669 S2668 1.613 . S
N2669 C2672 1.350 1_655 S
N2670 S2668 1.610 . S
N2670 C2671 1.356 . S
C2671 C2665 1.425 1_655 S
C2671 N2670 1.356 . S
C2671 C2672 1.433 1_655 S
C2672 C2663 1.429 . S
C2672 N2669 1.350 1_455 S
C2672 C2671 1.433 1_455 S
C2673 C2674 1.369 . S
C2673 C2675 1.419 . S
C2673 H2677 0.930 . S
C2674 C2673 1.369 . S
C2674 C2683 1.429 . S
C2675 C2673 1.419 . S
C2675 C2676 1.363 . S
C2675 H2678 0.933 . S
C2676 C2675 1.363 . S
C2676 C2682 1.428 . S
H2677 C2673 0.930 . S
H2678 C2675 0.933 . S
S2679 N2680 1.613 . S
S2679 N2681 1.610 . S
N2680 S2679 1.613 . S
N2680 C2683 1.350 . S
N2681 S2679 1.610 . S
N2681 C2682 1.351 . S
C2682 C2676 1.428 . S
C2682 N2681 1.351 . S
C2682 C2683 1.434 . S
C2683 C2674 1.429 . S
C2683 N2680 1.350 . S
C2683 C2682 1.434 . S
C2684 C2685 1.369 . S
C2684 C2686 1.419 . S
C2684 H2688 0.930 . S
C2685 C2684 1.369 . S
C2685 C2694 1.429 . S
C2686 C2684 1.419 . S
C2686 C2687 1.363 . S
C2686 H2689 0.929 . S
C2687 C2686 1.363 . S
C2687 C2693 1.428 . S
H2688 C2684 0.930 . S
H2689 C2686 0.929 . S
S2690 N2691 1.613 . S
S2690 N2692 1.610 . S
N2691 S2690 1.613 . S
N2691 C2694 1.350 . S
N2692 S2690 1.610 . S
N2692 C2693 1.351 . S
C2693 C2687 1.428 . S
C2693 N2692 1.351 . S
C2693 C2694 1.434 . S
C2694 C2685 1.429 . S
C2694 N2691 1.350 . S
C2694 C2693 1.434 . S
C2695 C2696 1.369 . S
C2695 C2697 1.419 . S
C2695 H2699 0.930 . S
C2696 C2695 1.369 . S
C2696 C2705 1.429 . S
C2697 C2695 1.419 . S
C2697 C2698 1.363 . S
C2697 H2700 0.929 . S
C2698 C2697 1.363 . S
C2698 C2704 1.428 . S
H2699 C2695 0.930 . S
H2700 C2697 0.929 . S
S2701 N2702 1.613 . S
S2701 N2703 1.610 1_565 S
N2702 S2701 1.613 . S
N2702 C2705 1.350 1_565 S
N2703 S2701 1.610 1_545 S
N2703 C2704 1.351 . S
C2704 C2698 1.428 . S
C2704 N2703 1.351 . S
C2704 C2705 1.434 . S
C2705 C2696 1.429 . S
C2705 N2702 1.350 1_545 S
C2705 C2704 1.434 . S
C2706 C2707 1.369 1_655 S
C2706 C2708 1.419 . S
C2706 H2710 0.930 . S
C2707 C2706 1.369 1_455 S
C2707 C2716 1.429 . S
C2708 C2706 1.419 . S
C2708 C2709 1.363 1_655 S
C2708 H2711 0.929 . S
C2709 C2708 1.363 1_455 S
C2709 C2715 1.428 . S
H2710 C2706 0.930 . S
H2711 C2708 0.929 . S
S2712 N2713 1.613 . S
S2712 N2714 1.610 . S
N2713 S2712 1.613 . S
N2713 C2716 1.350 . S
N2714 S2712 1.610 . S
N2714 C2715 1.351 . S
C2715 C2709 1.428 . S
C2715 N2714 1.351 . S
C2715 C2716 1.434 . S
C2716 C2707 1.429 . S
C2716 N2713 1.350 . S
C2716 C2715 1.434 . S
C2717 C2718 1.369 . S
C2717 C2719 1.419 . S
C2717 H2721 0.930 . S
C2718 C2717 1.369 . S
C2718 C2727 1.429 1_545 S
C2719 C2717 1.419 . S
C2719 C2720 1.363 . S
C2719 H2722 0.929 . S
C2720 C2719 1.363 . S
C2720 C2726 1.428 1_545 S
H2721 C2717 0.930 . S
H2722 C2719 0.929 . S
S2723 N2724 1.613 . S
S2723 N2725 1.610 . S
N2724 S2723 1.613 . S
N2724 C2727 1.350 . S
N2725 S2723 1.610 . S
N2725 C2726 1.351 . S
C2726 C2720 1.428 1_565 S
C2726 N2725 1.351 . S
C2726 C2727 1.434 . S
C2727 C2718 1.429 1_565 S
C2727 N2724 1.350 . S
C2727 C2726 1.434 . S
C2728 C2729 1.369 . S
C2728 C2730 1.419 . S
C2728 H2732 0.930 . S
C2729 C2728 1.369 . S
C2729 C2738 1.429 1_554 S
C2730 C2728 1.419 . S
C2730 C2731 1.363 . S
C2730 H2733 0.929 . S
C2731 C2730 1.363 . S
C2731 C2737 1.428 1_554 S
H2732 C2728 0.930 . S
H2733 C2730 0.929 . S
S2734 N2735 1.613 . S
S2734 N2736 1.610 . S
N2735 S2734 1.613 . S
N2735 C2738 1.350 . S
N2736 S2734 1.610 . S
N2736 C2737 1.351 . S
C2737 C2731 1.428 1_556 S
C2737 N2736 1.351 . S
C2737 C2738 1.434 . S
C2738 C2729 1.429 1_556 S
C2738 N2735 1.350 . S
C2738 C2737 1.434 . S
C2739 C2740 1.369 . S
C2739 C2741 1.419 . S
C2739 H2743 0.930 1_554 S
C2740 C2739 1.369 . S
C2740 C2749 1.429 . S
C2741 C2739 1.419 . S
C2741 C2742 1.363 . S
C2741 H2744 0.929 1_554 S
C2742 C2741 1.363 . S
C2742 C2748 1.428 . S
H2743 C2739 0.930 1_556 S
H2744 C2741 0.929 1_556 S
S2745 N2746 1.613 . S
S2745 N2747 1.610 . S
N2746 S2745 1.613 . S
N2746 C2749 1.350 . S
N2747 S2745 1.610 . S
N2747 C2748 1.351 . S
C2748 C2742 1.428 . S
C2748 N2747 1.351 . S
C2748 C2749 1.434 . S
C2749 C2740 1.429 . S
C2749 N2746 1.350 . S
C2749 C2748 1.434 . S
C2750 C2751 1.369 . S
C2750 C2752 1.419 . S
C2750 H2754 0.930 . S
C2751 C2750 1.369 . S
C2751 C2760 1.429 . S
C2752 C2750 1.419 . S
C2752 C2753 1.363 . S
C2752 H2755 0.929 . S
C2753 C2752 1.363 . S
C2753 C2759 1.428 . S
H2754 C2750 0.930 . S
H2755 C2752 0.929 . S
S2756 N2757 1.613 . S
S2756 N2758 1.610 . S
N2757 S2756 1.613 . S
N2757 C2760 1.350 . S
N2758 S2756 1.610 . S
N2758 C2759 1.351 . S
C2759 C2753 1.428 . S
C2759 N2758 1.351 . S
C2759 C2760 1.434 . S
C2760 C2751 1.429 . S
C2760 N2757 1.350 . S
C2760 C2759 1.434 . S
C2761 C2762 1.369 . S
C2761 C2763 1.419 . S
C2761 H2765 0.930 . S
C2762 C2761 1.369 . S
C2762 C2771 1.429 . S
C2763 C2761 1.419 . S
C2763 C2764 1.363 . S
C2763 H2766 0.929 . S
C2764 C2763 1.363 . S
C2764 C2770 1.428 . S
H2765 C2761 0.930 . S
H2766 C2763 0.929 . S
S2767 N2768 1.613 . S
S2767 N2769 1.610 . S
N2768 S2767 1.613 . S
N2768 C2771 1.350 . S
N2769 S2767 1.610 . S
N2769 C2770 1.351 . S
C2770 C2764 1.428 . S
C2770 N2769 1.351 . S
C2770 C2771 1.434 . S
C2771 C2762 1.429 . S
C2771 N2768 1.350 . S
C2771 C2770 1.434 . S
C2772 C2773 1.369 . S
C2772 C2774 1.419 . S
C2772 H2776 0.930 . S
C2773 C2772 1.369 . S
C2773 C2782 1.429 . S
C2774 C2772 1.419 . S
C2774 C2775 1.363 . S
C2774 H2777 0.929 . S
C2775 C2774 1.363 . S
C2775 C2781 1.428 . S
H2776 C2772 0.930 . S
H2777 C2774 0.929 . S
S2778 N2779 1.613 . S
S2778 N2780 1.610 . S
N2779 S2778 1.613 . S
N2779 C2782 1.350 . S
N2780 S2778 1.610 . S
N2780 C2781 1.351 . S
C2781 C2775 1.428 . S
C2781 N2780 1.351 . S
C2781 C2782 1.434 . S
C2782 C2773 1.429 . S
C2782 N2779 1.350 . S
C2782 C2781 1.434 . S
C2783 C2784 1.369 . S
C2783 C2785 1.419 . S
C2783 H2787 0.930 . S
C2784 C2783 1.369 . S
C2784 C2793 1.429 . S
C2785 C2783 1.419 . S
C2785 C2786 1.363 . S
C2785 H2788 0.929 . S
C2786 C2785 1.363 . S
C2786 C2792 1.428 . S
H2787 C2783 0.930 . S
H2788 C2785 0.929 . S
S2789 N2790 1.613 . S
S2789 N2791 1.610 . S
N2790 S2789 1.613 . S
N2790 C2793 1.350 . S
N2791 S2789 1.610 . S
N2791 C2792 1.351 . S
C2792 C2786 1.428 . S
C2792 N2791 1.351 . S
C2792 C2793 1.434 . S
C2793 C2784 1.429 . S
C2793 N2790 1.350 . S
C2793 C2792 1.434 . S
C2794 C2795 1.369 . S
C2794 C2796 1.419 . S
C2794 H2798 0.930 . S
C2795 C2794 1.369 . S
C2795 C2804 1.429 . S
C2796 C2794 1.419 . S
C2796 C2797 1.363 . S
C2796 H2799 0.929 . S
C2797 C2796 1.363 . S
C2797 C2803 1.428 . S
H2798 C2794 0.930 . S
H2799 C2796 0.929 . S
S2800 N2801 1.613 . S
S2800 N2802 1.610 . S
N2801 S2800 1.613 . S
N2801 C2804 1.350 . S
N2802 S2800 1.610 . S
N2802 C2803 1.351 . S
C2803 C2797 1.428 . S
C2803 N2802 1.351 . S
C2803 C2804 1.434 . S
C2804 C2795 1.429 . S
C2804 N2801 1.350 . S
C2804 C2803 1.434 . S
C2805 C2806 1.369 . S
C2805 C2807 1.419 . S
C2805 H2809 0.930 . S
C2806 C2805 1.369 . S
C2806 C2815 1.429 . S
C2807 C2805 1.419 . S
C2807 C2808 1.363 . S
C2807 H2810 0.929 . S
C2808 C2807 1.363 . S
C2808 C2814 1.428 . S
H2809 C2805 0.930 . S
H2810 C2807 0.929 . S
S2811 N2812 1.613 . S
S2811 N2813 1.610 . S
N2812 S2811 1.613 . S
N2812 C2815 1.350 . S
N2813 S2811 1.610 . S
N2813 C2814 1.351 . S
C2814 C2808 1.428 . S
C2814 N2813 1.351 . S
C2814 C2815 1.434 . S
C2815 C2806 1.429 . S
C2815 N2812 1.350 . S
C2815 C2814 1.434 . S
C2816 C2817 1.369 . S
C2816 C2818 1.419 . S
C2816 H2820 0.930 . S
C2817 C2816 1.369 . S
C2817 C2826 1.429 . S
C2818 C2816 1.419 . S
C2818 C2819 1.363 . S
C2818 H2821 0.929 . S
C2819 C2818 1.363 . S
C2819 C2825 1.428 . S
H2820 C2816 0.930 . S
H2821 C2818 0.929 . S
S2822 N2823 1.613 . S
S2822 N2824 1.610 . S
N2823 S2822 1.613 . S
N2823 C2826 1.350 . S
N2824 S2822 1.610 . S
N2824 C2825 1.351 . S
C2825 C2819 1.428 . S
C2825 N2824 1.351 . S
C2825 C2826 1.434 . S
C2826 C2817 1.429 . S
C2826 N2823 1.350 . S
C2826 C2825 1.434 . S
C2827 C2828 1.369 . S
C2827 C2829 1.419 . S
C2827 H2831 0.930 . S
C2828 C2827 1.369 . S
C2828 C2837 1.429 . S
C2829 C2827 1.419 . S
C2829 C2830 1.363 . S
C2829 H2832 0.929 . S
C2830 C2829 1.363 . S
C2830 C2836 1.428 . S
H2831 C2827 0.930 . S
H2832 C2829 0.929 . S
S2833 N2834 1.613 . S
S2833 N2835 1.610 . S
N2834 S2833 1.613 . S
N2834 C2837 1.350 . S
N2835 S2833 1.610 . S
N2835 C2836 1.351 . S
C2836 C2830 1.428 . S
C2836 N2835 1.351 . S
C2836 C2837 1.434 . S
C2837 C2828 1.429 . S
C2837 N2834 1.350 . S
C2837 C2836 1.434 . S
C2838 C2839 1.369 . S
C2838 C2840 1.419 . S
C2838 H2842 0.930 . S
C2839 C2838 1.369 . S
C2839 C2848 1.429 . S
C2840 C2838 1.419 . S
C2840 C2841 1.363 . S
C2840 H2843 0.929 . S
C2841 C2840 1.363 . S
C2841 C2847 1.428 . S
H2842 C2838 0.930 . S
H2843 C2840 0.929 . S
S2844 N2845 1.613 . S
S2844 N2846 1.610 . S
N2845 S2844 1.613 . S
N2845 C2848 1.350 . S
N2846 S2844 1.610 . S
N2846 C2847 1.351 . S
C2847 C2841 1.428 . S
C2847 N2846 1.351 . S
C2847 C2848 1.434 . S
C2848 C2839 1.429 . S
C2848 N2845 1.350 . S
C2848 C2847 1.434 . S
C2849 C2850 1.369 . S
C2849 C2851 1.419 . S
C2849 H2853 0.930 . S
C2850 C2849 1.369 . S
C2850 C2859 1.429 . S
C2851 C2849 1.419 . S
C2851 C2852 1.363 . S
C2851 H2854 0.929 . S
C2852 C2851 1.363 . S
C2852 C2858 1.428 . S
H2853 C2849 0.930 . S
H2854 C2851 0.929 . S
S2855 N2856 1.613 . S
S2855 N2857 1.610 . S
N2856 S2855 1.613 . S
N2856 C2859 1.350 . S
N2857 S2855 1.610 . S
N2857 C2858 1.351 . S
C2858 C2852 1.428 . S
C2858 N2857 1.351 . S
C2858 C2859 1.434 . S
C2859 C2850 1.429 . S
C2859 N2856 1.350 . S
C2859 C2858 1.434 . S
C2860 C2861 1.369 . S
C2860 C2862 1.419 . S
C2860 H2864 0.930 . S
C2861 C2860 1.369 . S
C2861 C2870 1.429 . S
C2862 C2860 1.419 . S
C2862 C2863 1.363 . S
C2862 H2865 0.929 . S
C2863 C2862 1.363 . S
C2863 C2869 1.428 . S
H2864 C2860 0.930 . S
H2865 C2862 0.929 . S
S2866 N2867 1.613 . S
S2866 N2868 1.610 . S
N2867 S2866 1.613 . S
N2867 C2870 1.350 . S
N2868 S2866 1.610 . S
N2868 C2869 1.351 . S
C2869 C2863 1.428 . S
C2869 N2868 1.351 . S
C2869 C2870 1.434 . S
C2870 C2861 1.429 . S
C2870 N2867 1.350 . S
C2870 C2869 1.434 . S
C2871 C2872 1.369 . S
C2871 C2873 1.419 . S
C2871 H2875 0.930 . S
C2872 C2871 1.369 . S
C2872 C2881 1.429 . S
C2873 C2871 1.419 . S
C2873 C2874 1.363 . S
C2873 H2876 0.929 . S
C2874 C2873 1.363 . S
C2874 C2880 1.428 . S
H2875 C2871 0.930 . S
H2876 C2873 0.929 . S
S2877 N2878 1.613 . S
S2877 N2879 1.610 . S
N2878 S2877 1.613 . S
N2878 C2881 1.350 . S
N2879 S2877 1.610 . S
N2879 C2880 1.351 . S
C2880 C2874 1.428 . S
C2880 N2879 1.351 . S
C2880 C2881 1.434 . S
C2881 C2872 1.429 . S
C2881 N2878 1.350 . S
C2881 C2880 1.434 . S
C2882 C2883 1.369 . S
C2882 C2884 1.419 . S
C2882 H2886 0.930 . S
C2883 C2882 1.369 . S
C2883 C2892 1.429 . S
C2884 C2882 1.419 . S
C2884 C2885 1.363 . S
C2884 H2887 0.929 . S
C2885 C2884 1.363 . S
C2885 C2891 1.428 . S
H2886 C2882 0.930 . S
H2887 C2884 0.929 . S
S2888 N2889 1.613 . S
S2888 N2890 1.610 . S
N2889 S2888 1.613 . S
N2889 C2892 1.350 . S
N2890 S2888 1.610 . S
N2890 C2891 1.351 . S
C2891 C2885 1.428 . S
C2891 N2890 1.351 . S
C2891 C2892 1.434 . S
C2892 C2883 1.429 . S
C2892 N2889 1.350 . S
C2892 C2891 1.434 . S
C2893 C2894 1.369 . S
C2893 C2895 1.419 . S
C2893 H2897 0.930 . S
C2894 C2893 1.369 . S
C2894 C2903 1.429 . S
C2895 C2893 1.419 . S
C2895 C2896 1.363 . S
C2895 H2898 0.929 . S
C2896 C2895 1.363 . S
C2896 C2902 1.428 . S
H2897 C2893 0.930 . S
H2898 C2895 0.929 . S
S2899 N2900 1.613 . S
S2899 N2901 1.610 . S
N2900 S2899 1.613 . S
N2900 C2903 1.350 . S
N2901 S2899 1.610 . S
N2901 C2902 1.351 . S
C2902 C2896 1.428 . S
C2902 N2901 1.351 . S
C2902 C2903 1.434 . S
C2903 C2894 1.429 . S
C2903 N2900 1.350 . S
C2903 C2902 1.434 . S
C1585 C1480 2.250 . S
C1587 C8 2.212 . S
C1596 C1381 2.233 . S
C1598 C41 2.193 . S
C1607 C1414 2.251 . S
C1609 C94 2.252 . S
C1618 C127 2.217 . S
C1620 C1447 2.212 . S
C1629 C160 2.220 . S
C1631 C1579 2.221 . S
C1640 C173 2.184 . S
C1642 C1513 2.227 . S
C1651 C226 2.254 . S
C1653 C1546 2.254 . S
C1662 C1348 2.236 . S
C1664 C259 2.236 . S
C1673 C1315 2.224 . S
C1675 C292 2.225 . S
C1684 C325 2.265 . S
C1686 C1216 2.271 . S
C1695 C358 2.261 . S
C1697 C1229 2.224 . S
C1706 C1282 2.232 . S
C1708 C371 2.197 . S
C1717 C424 2.271 . S
C1719 C1117 2.265 . S
C1728 C437 2.225 . S
C1730 C1150 2.258 . S
C1739 C1163 2.199 . S
C1741 C490 2.230 . S
C1750 C523 2.223 . S
C1752 C1084 2.227 . S
C1761 C556 2.239 . S
C1763 C1051 2.232 . S
C1772 C833 2.192 . S
C1774 C589 2.233 . S
C1783 C886 2.250 . S
C1785 C622 2.255 . S
C1794 C655 2.211 . S
C1796 C919 2.217 . S
C1805 C800 2.210 . S
C1807 C688 2.252 . S
C1816 C721 2.228 . S
C1818 C965 2.185 . S
C1827 C1018 2.257 . S
C1829 C754 2.254 . S
C1838 C787 2.221 . S
C1840 C952 2.222 . S
C1849 N137 0.929 . S
C1851 N1391 0.946 . S
C1860 N1424 0.945 . S
C1862 N179 0.984 . S
C1871 N203 0.957 . S
C1873 N1457 0.940 . S
C1882 N1358 0.962 . S
C1884 N236 0.952 . S
C1893 N1523 0.958 . S
C1895 N14 0.998 . S
C1904 N47 0.988 . S
C1906 N1325 0.955 . S
C1915 N1556 0.927 . S
C1917 N71 0.944 . S
C1926 N1490 0.953 . S
C1928 N104 0.941 . S
C1937 N1094 0.952 . S
C1939 N467 0.935 . S
C1948 N500 0.935 . S
C1950 N1127 0.941 . S
C1959 N1169 0.975 . S
C1961 N401 0.960 . S
C1970 N443 0.989 . S
C1972 N1061 0.948 . S
C1981 N1292 0.938 . S
C1983 N335 0.937 . S
C1992 N1193 0.944 . S
C1994 N377 0.986 . S
C2003 N1235 0.985 . S
C2005 N269 0.958 . S
C2014 N1259 0.943 . S
C2016 N302 0.943 . S
C2025 N896 0.956 . S
C2027 N698 0.940 . S
C2036 N632 0.944 . S
C2038 N971 0.986 . S
C2047 N665 0.939 . S
C2049 N995 0.954 . S
C2058 N1028 0.949 . S
C2060 N566 0.963 . S
C2069 N599 0.930 . S
C2071 N929 0.945 . S
C2080 N839 0.985 . S
C2082 N533 0.958 . S
C2091 N764 0.946 . S
C2093 N863 0.929 . S
C2102 N806 0.996 . S
C2104 N731 0.969 . S
C2113 C107 1.800 . S
C2115 N5 1.652 . S
C2124 C28 1.795 . S
C2126 N38 1.623 . S
C2135 N80 1.785 . S
C2137 C61 1.842 . S
C2146 N113 1.789 . S
C2148 C74 1.816 . S
C2157 C193 1.805 . S
C2159 N146 1.753 . S
C2168 N170 1.611 . S
C2170 C206 1.761 . S
C2179 N212 1.805 . S
C2181 C239 1.837 . S
C2190 C140 1.812 . S
C2192 N245 1.793 . S
C2201 C602 1.800 . S
C2203 N278 1.784 . S
C2212 C635 1.837 . S
C2214 N311 1.810 . S
C2223 C668 1.793 . S
C2225 N344 1.774 . S
C2234 N368 1.645 . S
C2236 C569 1.789 . S
C2245 C734 1.829 . S
C2247 N410 1.804 . S
C2256 N434 1.648 . S
C2258 C536 1.797 . S
C2267 N476 1.748 . S
C2269 C767 1.774 . S
C2278 C701 1.812 . S
C2280 N509 1.795 . S
C2289 N542 1.773 . S
C2291 C305 1.796 . S
C2300 C503 1.794 . S
C2302 N575 1.774 . S
C2311 N608 1.772 . S
C2313 C404 1.785 . S
C2322 C457 1.804 . S
C2324 N641 1.766 . S
C2333 N674 1.755 . S
C2335 C470 1.768 . S
C2344 C391 1.774 . S
C2346 N707 1.735 . S
C2355 C272 1.809 . S
C2357 N740 1.792 . S
C2366 N773 1.762 . S
C2368 C338 1.779 . S
C2377 N797 1.658 . S
C2379 C899 1.800 . S
C2388 N830 1.623 . S
C2390 C820 1.793 . S
C2399 C853 1.836 . S
C2401 N872 1.788 . S
C2410 C866 1.811 . S
C2412 N905 1.786 . S
C2421 N938 1.758 . S
C2423 C985 1.799 . S
C2432 N962 1.607 . S
C2434 C998 1.762 . S
C2443 N1004 1.813 . S
C2445 C1031 1.833 . S
C2454 C932 1.813 . S
C2456 N1037 1.787 . S
C2465 C1394 1.798 . S
C2467 N1070 1.779 . S
C2476 C1427 1.838 . S
C2478 N1103 1.810 . S
C2487 N1136 1.771 . S
C2489 C1460 1.795 . S
C2498 C1361 1.788 . S
C2500 N1160 1.644 . S
C2509 N1202 1.810 . S
C2511 C1526 1.826 . S
C2520 C1328 1.800 . S
C2522 N1226 1.651 . S
C2531 C1559 1.769 . S
C2533 N1268 1.747 . S
C2542 N1301 1.795 . S
C2544 C1493 1.813 . S
C2553 C1097 1.794 . S
C2555 N1334 1.775 . S
C2564 N1367 1.769 . S
C2566 C1295 1.796 . S
C2575 N1400 1.763 . S
C2577 C1196 1.788 . S
C2586 N1433 1.760 . S
C2588 C1249 1.801 . S
C2597 N1466 1.755 . S
C2599 C1262 1.768 . S
C2608 N1499 1.736 . S
C2610 C1183 1.775 . S
C2619 C1064 1.802 . S
C2621 N1532 1.791 . S
C2630 C1130 1.777 . S
C2632 N1565 1.762 . S
C2641 C17 1.011 . S
C2643 C314 1.002 . S
C2652 C347 1.026 . S
C2654 C50 1.037 . S
C2663 C380 1.020 . S
C2665 C83 1.011 . S
C2674 C281 1.000 . S
C2676 C116 0.995 . S
C2685 C149 1.012 . S
C2687 C512 1.006 . S
C2696 C413 1.007 . S
C2698 C182 1.014 . S
C2707 C215 0.996 . S
C2709 C446 1.011 . S
C2718 C248 1.043 . S
C2720 C479 1.043 . S
C2729 C611 0.991 . S
C2731 C545 0.990 . S
C2740 C743 1.029 . S
C2742 C578 1.025 . S
C2751 C776 1.013 . S
C2753 C644 1.015 . S
C2762 C710 1.060 . S
C2764 C677 1.055 . S
C2773 C809 1.009 . S
C2775 C1106 0.996 . S
C2784 C842 1.036 . S
C2786 C1139 1.023 . S
C2795 C1172 1.020 . S
C2797 C875 1.010 . S
C2806 C1073 0.999 . S
C2808 C908 0.996 . S
C2817 C1304 1.008 . S
C2819 C941 1.009 . S
C2828 C974 1.015 . S
C2830 C1205 1.006 . S
C2839 C1007 1.003 . S
C2841 C1238 1.012 . S
C2850 C1040 1.044 . S
C2852 C1271 1.045 . S
C2861 C1337 0.988 . S
C2863 C1403 0.990 . S
C2872 C1370 1.019 . S
C2874 C1535 1.023 . S
C2883 C1436 1.016 . S
C2885 C1568 1.012 . S
C2894 C1469 1.048 . S
C2896 C1502 1.052 . S
