# Generated by pormake.
# Topology uoj, (4)-cn, num edge types: 1
# Building blocks:
#     Node 0, Type 0, BuildingBlock: QUQFOY_clean_sbu_1, # of connection points: 4
#     Node 1, Type 0, BuildingBlock: QUQFOY_clean_sbu_1, # of connection points: 4
#     Node 2, Type 0, BuildingBlock: QUQFOY_clean_sbu_1, # of connection points: 4
#     Node 3, Type 0, BuildingBlock: QUQFOY_clean_sbu_1, # of connection points: 4
#     Node 4, Type 0, BuildingBlock: QUQFOY_clean_sbu_1, # of connection points: 4
#     Node 5, Type 0, BuildingBlock: QUQFOY_clean_sbu_1, # of connection points: 4
#     Node 6, Type 0, BuildingBlock: QUQFOY_clean_sbu_1, # of connection points: 4
#     Node 7, Type 0, BuildingBlock: QUQFOY_clean_sbu_1, # of connection points: 4
#     Edge 8, Type (0, 0), BuildingBlock: UVAHIK_clean_linker_0, # of connection points: 2
#     Edge 9, Type (0, 0), BuildingBlock: UVAHIK_clean_linker_0, # of connection points: 2
#     Edge 10, Type (0, 0), BuildingBlock: UVAHIK_clean_linker_0, # of connection points: 2
#     Edge 11, Type (0, 0), BuildingBlock: UVAHIK_clean_linker_0, # of connection points: 2
#     Edge 12, Type (0, 0), BuildingBlock: UVAHIK_clean_linker_0, # of connection points: 2
#     Edge 13, Type (0, 0), BuildingBlock: UVAHIK_clean_linker_0, # of connection points: 2
#     Edge 14, Type (0, 0), BuildingBlock: UVAHIK_clean_linker_0, # of connection points: 2
#     Edge 15, Type (0, 0), BuildingBlock: UVAHIK_clean_linker_0, # of connection points: 2
#     Edge 16, Type (0, 0), BuildingBlock: UVAHIK_clean_linker_0, # of connection points: 2
#     Edge 17, Type (0, 0), BuildingBlock: UVAHIK_clean_linker_0, # of connection points: 2
#     Edge 18, Type (0, 0), BuildingBlock: UVAHIK_clean_linker_0, # of connection points: 2
#     Edge 19, Type (0, 0), BuildingBlock: UVAHIK_clean_linker_0, # of connection points: 2
#     Edge 20, Type (0, 0), BuildingBlock: UVAHIK_clean_linker_0, # of connection points: 2
#     Edge 21, Type (0, 0), BuildingBlock: UVAHIK_clean_linker_0, # of connection points: 2
#     Edge 22, Type (0, 0), BuildingBlock: UVAHIK_clean_linker_0, # of connection points: 2
#     Edge 23, Type (0, 0), BuildingBlock: UVAHIK_clean_linker_0, # of connection points: 2
# Relax obj value: 0.060
# Max RMSD: 0.098
# Mean RMSD: 0.098
data_MOF--net-uoj--node1-QUQFOY_clean_sbu_1--edge1-UVAHIK_clean_linker_0
_symmetry_space_group_name_H-M    P1
_symmetry_Int_Tables_number       1
_symmetry_cell_setting            triclinic
loop_
_symmetry_equiv_pos_as_xyz
'x, y, z'
_cell_length_a     41.381289
_cell_length_b     41.403785
_cell_length_c     54.444379
_cell_angle_alpha  90.051621
_cell_angle_beta   89.984373
_cell_angle_gamma 89.994051
loop_
_atom_site_label
_atom_site_type_symbol
_atom_site_fract_x
_atom_site_fract_y
_atom_site_fract_z
_atom_type_partial_charge
O0 O 0.04648 0.26075 0.458 0.0
Cd1 Cd 0.09058 0.28108 0.45094 0.0
Cd2 Cd 0.0686 0.27629 0.40538 0.0
O3 O 0.03279 0.24716 0.42028 0.0
O4 O 0.11546 0.27221 0.48139 0.0
O5 O 0.12759 0.25078 0.44526 0.0
C6 C 0.13267 0.25233 0.46867 0.0
C7 C 0.09858 0.2644 0.37021 0.0
C8 C 0.02717 0.2469 0.44327 0.0
C9 C 0.07449 0.34273 0.42785 0.0
O10 O 0.06276 0.32509 0.41095 0.0
O11 O 0.09014 0.33016 0.44549 0.0
O12 O 0.06823 0.27136 0.36898 0.0
O13 O 0.11148 0.26185 0.39175 0.0
O14 O 0.2571 0.94463 0.56716 0.0
Cd15 Cd 0.27814 0.90064 0.57338 0.0
Cd16 Cd 0.27327 0.92112 0.61934 0.0
O17 O 0.24402 0.95733 0.60519 0.0
O18 O 0.26947 0.87642 0.54257 0.0
O19 O 0.24868 0.86287 0.5786 0.0
C20 C 0.25015 0.8584 0.55511 0.0
C21 C 0.26178 0.89053 0.65427 0.0
C22 C 0.24348 0.96356 0.58231 0.0
C23 C 0.33971 0.9172 0.5965 0.0
O24 O 0.32197 0.92775 0.61379 0.0
O25 O 0.32731 0.90204 0.57853 0.0
O26 O 0.26858 0.92087 0.65575 0.0
O27 O 0.25918 0.87795 0.63262 0.0
O28 O 0.94408 0.72861 0.45694 0.0
Cd29 Cd 0.89962 0.70868 0.45052 0.0
Cd30 Cd 0.92008 0.71316 0.40464 0.0
O31 O 0.95668 0.74188 0.41894 0.0
O32 O 0.87435 0.71935 0.48049 0.0
O33 O 0.86318 0.73906 0.44363 0.0
C34 C 0.85764 0.73878 0.46701 0.0
C35 C 0.89019 0.72485 0.36938 0.0
C36 C 0.96311 0.7421 0.44181 0.0
C37 C 0.91473 0.64683 0.42754 0.0
O38 O 0.9257 0.66438 0.41032 0.0
O39 O 0.89978 0.65949 0.44552 0.0
O40 O 0.92046 0.71757 0.3682 0.0
O41 O 0.87733 0.72783 0.3909 0.0
O42 O 0.72481 0.04703 0.56465 0.0
Cd43 Cd 0.70576 0.0916 0.57206 0.0
Cd44 Cd 0.70995 0.0693 0.61743 0.0
O45 O 0.73852 0.03314 0.60229 0.0
O46 O 0.71664 0.1174 0.54244 0.0
O47 O 0.73714 0.12708 0.5793 0.0
C48 C 0.73672 0.13319 0.55602 0.0
C49 C 0.7221 0.09837 0.65301 0.0
C50 C 0.73845 0.02748 0.5793 0.0
C51 C 0.64367 0.07699 0.59485 0.0
O52 O 0.66104 0.06465 0.61165 0.0
O53 O 0.65663 0.09254 0.57731 0.0
O54 O 0.71456 0.06815 0.65386 0.0
O55 O 0.7251 0.11159 0.63163 0.0
O56 O 0.44339 0.75729 0.956 0.0
Cd57 Cd 0.39943 0.77845 0.94984 0.0
Cd58 Cd 0.41981 0.77348 0.90389 0.0
O59 O 0.45572 0.74382 0.91799 0.0
O60 O 0.37536 0.7699 0.98073 0.0
O61 O 0.3616 0.74901 0.94476 0.0
C62 C 0.3573 0.75052 0.96826 0.0
C63 C 0.38903 0.76235 0.86897 0.0
C64 C 0.4621 0.74336 0.94085 0.0
C65 C 0.41628 0.83988 0.92678 0.0
O66 O 0.42688 0.82208 0.90955 0.0
O67 O 0.4009 0.82757 0.94467 0.0
O68 O 0.41945 0.76887 0.86748 0.0
O69 O 0.37646 0.75984 0.89063 0.0
O70 O 0.76195 0.5435 0.06591 0.0
Cd71 Cd 0.78098 0.58846 0.07189 0.0
Cd72 Cd 0.77774 0.56812 0.11801 0.0
O73 O 0.74961 0.53085 0.10407 0.0
O74 O 0.7708 0.61213 0.04113 0.0
O75 O 0.74985 0.62483 0.07731 0.0
C76 C 0.75086 0.62931 0.05382 0.0
C77 C 0.76564 0.59792 0.15326 0.0
C78 C 0.74912 0.52429 0.08123 0.0
C79 C 0.84358 0.57531 0.09464 0.0
O80 O 0.82664 0.56378 0.11201 0.0
O81 O 0.83018 0.58972 0.07676 0.0
O82 O 0.77369 0.56787 0.15446 0.0
O83 O 0.76214 0.61058 0.13172 0.0
O84 O 0.54393 0.22629 0.95824 0.0
Cd85 Cd 0.58873 0.20685 0.95218 0.0
Cd86 Cd 0.56818 0.21018 0.90604 0.0
O87 O 0.53102 0.23839 0.92009 0.0
O88 O 0.6127 0.21681 0.98287 0.0
O89 O 0.6255 0.23749 0.94666 0.0
C90 C 0.63014 0.23642 0.97013 0.0
C91 C 0.59776 0.22208 0.87066 0.0
C92 C 0.52462 0.23905 0.94295 0.0
C93 C 0.57505 0.14434 0.92938 0.0
O94 O 0.56367 0.16133 0.91199 0.0
O95 O 0.5895 0.15766 0.9473 0.0
O96 O 0.56764 0.21419 0.86959 0.0
O97 O 0.61062 0.22555 0.89214 0.0
O98 O 0.23111 0.44413 0.06725 0.0
Cd99 Cd 0.20995 0.40019 0.07342 0.0
Cd100 Cd 0.21472 0.42066 0.11939 0.0
O101 O 0.24418 0.45673 0.10529 0.0
O102 O 0.21865 0.37592 0.04262 0.0
O103 O 0.23925 0.36229 0.07869 0.0
C104 C 0.23783 0.3578 0.05521 0.0
C105 C 0.22585 0.39014 0.15442 0.0
C106 C 0.24476 0.46301 0.08241 0.0
C107 C 0.14836 0.41698 0.09643 0.0
O108 O 0.16608 0.42752 0.11372 0.0
O109 O 0.16077 0.40172 0.0785 0.0
O110 O 0.21921 0.42052 0.15582 0.0
O111 O 0.22849 0.37746 0.1328 0.0
C112 C 0.22576 0.33614 0.17549 0.0
C113 C 0.2264 0.37004 0.17695 0.0
C114 C 0.22015 0.3175 0.19655 0.0
C115 C 0.21436 0.32171 0.26508 0.0
H116 H 0.14764 0.25699 0.25641 0.0
C117 C 0.10364 0.26681 0.32448 0.0
C118 C 0.11847 0.26344 0.34755 0.0
C119 C 0.12216 0.27201 0.30339 0.0
C120 C 0.16637 0.2749 0.25917 0.0
H121 H 0.2238 0.4108 0.20192 0.0
H122 H 0.21387 0.37858 0.23836 0.0
H123 H 0.17204 0.28219 0.22053 0.0
H124 H 0.16462 0.26072 0.36629 0.0
H125 H 0.19707 0.26941 0.32936 0.0
H126 H 0.20723 0.31592 0.30373 0.0
C127 C 0.21788 0.36618 0.2211 0.0
C128 C 0.18069 0.2891 0.23855 0.0
C129 C 0.22341 0.38475 0.20011 0.0
C130 C 0.15241 0.26331 0.34881 0.0
C131 C 0.17101 0.26857 0.32766 0.0
C132 C 0.19998 0.30758 0.2857 0.0
C133 C 0.2152 0.33237 0.21951 0.0
C134 C 0.20416 0.31343 0.24124 0.0
C135 C 0.15605 0.27395 0.3048 0.0
C136 C 0.17508 0.28471 0.28302 0.0
H137 H 0.22802 0.32403 0.15793 0.0
H138 H 0.21872 0.29149 0.19472 0.0
H139 H 0.23273 0.33999 0.26784 0.0
H140 H 0.07755 0.26701 0.32281 0.0
H141 H 0.10971 0.27636 0.28623 0.0
C142 C 0.26424 0.88491 0.69995 0.0
C143 C 0.26098 0.87035 0.67675 0.0
C144 C 0.26956 0.86617 0.72088 0.0
C145 C 0.30566 0.78841 0.738 0.0
H146 H 0.28023 0.81561 0.80335 0.0
C147 C 0.33487 0.76221 0.84805 0.0
C148 C 0.36879 0.76176 0.84649 0.0
C149 C 0.31607 0.76776 0.82705 0.0
C150 C 0.28715 0.80716 0.78527 0.0
H151 H 0.2586 0.82445 0.65763 0.0
H152 H 0.26749 0.79162 0.69431 0.0
H153 H 0.25475 0.84012 0.76765 0.0
H154 H 0.40941 0.76462 0.82141 0.0
H155 H 0.37692 0.77449 0.7851 0.0
H156 H 0.33834 0.75573 0.75562 0.0
C157 C 0.26647 0.81763 0.69622 0.0
C158 C 0.27279 0.82155 0.76475 0.0
C159 C 0.2611 0.83644 0.67521 0.0
C160 C 0.38336 0.76487 0.8233 0.0
C161 C 0.36463 0.77036 0.80237 0.0
C162 C 0.31994 0.77395 0.75852 0.0
C163 C 0.27173 0.83233 0.7192 0.0
C164 C 0.28263 0.81314 0.74085 0.0
C165 C 0.3308 0.77285 0.80406 0.0
C166 C 0.31166 0.7839 0.78242 0.0
H167 H 0.26425 0.91096 0.70182 0.0
H168 H 0.27383 0.87844 0.73815 0.0
H169 H 0.31402 0.78139 0.71992 0.0
H170 H 0.32288 0.75984 0.86564 0.0
H171 H 0.29006 0.76903 0.82897 0.0
C172 C 0.8852 0.72245 0.32365 0.0
C173 C 0.87031 0.72568 0.34672 0.0
C174 C 0.86673 0.71709 0.30256 0.0
C175 C 0.78953 0.68043 0.28484 0.0
H176 H 0.81683 0.7066 0.21972 0.0
C177 C 0.76412 0.65176 0.1746 0.0
C178 C 0.76448 0.61784 0.17589 0.0
C179 C 0.76928 0.67042 0.19573 0.0
C180 C 0.80836 0.69947 0.23773 0.0
H181 H 0.82414 0.72792 0.36548 0.0
H182 H 0.79179 0.71886 0.32854 0.0
H183 H 0.84085 0.73211 0.25566 0.0
H184 H 0.76833 0.57702 0.20065 0.0
H185 H 0.77742 0.60931 0.23724 0.0
H186 H 0.75743 0.64741 0.26692 0.0
C187 C 0.81785 0.72001 0.32685 0.0
C188 C 0.82246 0.71386 0.25838 0.0
C189 C 0.83637 0.72547 0.34799 0.0
C190 C 0.76796 0.60309 0.19897 0.0
C191 C 0.77301 0.62168 0.22005 0.0
C192 C 0.7754 0.66608 0.2642 0.0
C193 C 0.83287 0.71479 0.30398 0.0
C194 C 0.81399 0.70378 0.2822 0.0
C195 C 0.77473 0.65556 0.2186 0.0
C196 C 0.78539 0.67466 0.24038 0.0
H197 H 0.91128 0.72252 0.32199 0.0
H198 H 0.87923 0.71288 0.28538 0.0
H199 H 0.7825 0.67189 0.30286 0.0
H200 H 0.76147 0.66389 0.1571 0.0
H201 H 0.76999 0.69647 0.19402 0.0
C202 C 0.60249 0.21991 0.82492 0.0
C203 C 0.61751 0.22309 0.84794 0.0
C204 C 0.62085 0.21474 0.80374 0.0
C205 C 0.66492 0.2122 0.75939 0.0
H206 H 0.73012 0.14576 0.76723 0.0
C207 C 0.7234 0.15177 0.67497 0.0
C208 C 0.72317 0.11782 0.67588 0.0
C209 C 0.71817 0.17 0.6963 0.0
C210 C 0.7121 0.16443 0.76471 0.0
H211 H 0.66378 0.22537 0.86653 0.0
H212 H 0.69594 0.2166 0.82943 0.0
H213 H 0.70513 0.1697 0.80344 0.0
H214 H 0.71948 0.07651 0.70018 0.0
H215 H 0.71026 0.10808 0.73713 0.0
H216 H 0.67045 0.20552 0.72066 0.0
C217 C 0.66987 0.21768 0.82784 0.0
C218 C 0.69801 0.17847 0.7855 0.0
C219 C 0.65145 0.22298 0.84908 0.0
C220 C 0.71975 0.10261 0.6988 0.0
C221 C 0.71462 0.12079 0.72008 0.0
C222 C 0.67898 0.19814 0.7386 0.0
C223 C 0.65473 0.21256 0.80502 0.0
C224 C 0.67352 0.20182 0.7831 0.0
C225 C 0.71276 0.15468 0.71901 0.0
C226 C 0.70203 0.17335 0.74098 0.0
H227 H 0.5764 0.21991 0.82336 0.0
H228 H 0.60827 0.2106 0.78658 0.0
H229 H 0.64648 0.23046 0.75686 0.0
H230 H 0.72601 0.16425 0.65761 0.0
H231 H 0.71736 0.19608 0.69488 0.0
C232 C 0.22702 -0.0011 0.54746 0.0
C233 C 0.22998 0.99429 0.57295 0.0
C234 C 0.21899 0.02906 0.53794 0.0
C235 C 0.18274 0.10762 0.55242 0.0
H236 H 0.23224 0.13563 0.49574 0.0
C237 C 0.15777 0.23012 0.50683 0.0
C238 C 0.15398 0.22886 0.48118 0.0
C239 C 0.17186 0.20436 0.51946 0.0
C240 C 0.21813 0.12813 0.5115 0.0
H241 H 0.22528 0.0175 0.60849 0.0
H242 H 0.21093 0.07051 0.59172 0.0
H243 H 0.24505 0.08434 0.51544 0.0
H244 H 0.16409 0.20064 0.4485 0.0
H245 H 0.1885 0.15567 0.47049 0.0
H246 H 0.15527 0.15101 0.54813 0.0
C247 C 0.21498 0.05059 0.57918 0.0
C248 C 0.22542 0.09874 0.52276 0.0
C249 C 0.22311 0.02025 0.58878 0.0
C250 C 0.16669 0.20238 0.46825 0.0
C251 C 0.18074 0.17658 0.48089 0.0
C252 C 0.17537 0.13702 0.54111 0.0
C253 C 0.21367 0.05544 0.55363 0.0
C254 C 0.2074 0.08787 0.54305 0.0
C255 C 0.18245 0.1768 0.50671 0.0
C256 C 0.19264 0.14735 0.52025 0.0
H257 H 0.23178 0.97937 0.53471 0.0
H258 H 0.21732 0.03181 0.51819 0.0
H259 H 0.16831 0.0998 0.56792 0.0
H260 H 0.14843 0.2503 0.51733 0.0
H261 H 0.17346 0.20557 0.53929 0.0
C262 C 0.22836 0.83354 0.51669 0.0
C263 C 0.22723 0.83669 0.54239 0.0
C264 C 0.20302 0.81878 0.50398 0.0
C265 C 0.12872 0.76939 0.51163 0.0
H266 H 0.09777 0.81947 0.45619 0.0
C267 C -0.00087 0.75737 0.47663 0.0
C268 C 0.99401 0.75534 0.45114 0.0
C269 C 0.02932 0.76571 0.48599 0.0
C270 C 0.10635 0.80496 0.47139 0.0
H271 H 0.19973 0.82478 0.57505 0.0
H272 H 0.15546 0.79919 0.55293 0.0
H273 H 0.14872 0.83394 0.47584 0.0
H274 H 0.01639 0.76182 0.41547 0.0
H275 H 0.06945 0.7767 0.43196 0.0
H276 H 0.08591 0.74094 0.50756 0.0
C277 C 0.17597 0.80798 0.54254 0.0
C278 C 0.1356 0.81315 0.48263 0.0
C279 C 0.20135 0.82271 0.55526 0.0
C280 C 0.01953 0.76324 0.43519 0.0
C281 C 0.0499 0.77169 0.44462 0.0
C282 C 0.09948 0.76126 0.50043 0.0
C283 C 0.17601 0.80684 0.51671 0.0
C284 C 0.14684 0.79582 0.50316 0.0
C285 C 0.05524 0.77228 0.47014 0.0
C286 C 0.08765 0.77935 0.48051 0.0
H287 H 0.24809 0.84385 0.50622 0.0
H288 H 0.20409 0.81766 0.48412 0.0
H289 H 0.13695 0.75522 0.52713 0.0
H290 H 0.97995 0.75178 0.4895 0.0
H291 H 0.03242 0.76677 0.50573 0.0
C292 C 0.76161 0.97157 0.58442 0.0
C293 C 0.75236 -0.00267 0.56915 0.0
C294 C 0.77189 0.94223 0.57419 0.0
C295 C 0.80282 0.90672 0.51626 0.0
H296 H 0.77039 0.82596 0.54255 0.0
C297 C 0.82337 0.78843 0.46446 0.0
C298 C 0.83643 0.76322 0.47856 0.0
C299 C 0.80958 0.81531 0.47591 0.0
C300 C 0.77972 0.84833 0.53509 0.0
H301 H 0.74748 0.01267 0.53117 0.0
H302 H 0.76503 0.96192 0.51357 0.0
H303 H 0.75622 0.87692 0.56267 0.0
H304 H 0.84282 0.74519 0.51566 0.0
H305 H 0.81878 0.79209 0.53559 0.0
H306 H 0.82626 0.87838 0.48871 0.0
C307 C 0.76468 0.96427 0.53339 0.0
C308 C 0.77178 0.87747 0.54668 0.0
C309 C 0.75441 0.99339 0.54354 0.0
C310 C 0.83309 0.76427 0.50426 0.0
C311 C 0.81924 0.79114 0.51571 0.0
C312 C 0.81063 0.87771 0.50466 0.0
C313 C 0.7733 0.93823 0.54853 0.0
C314 C 0.78309 0.90702 0.53727 0.0
C315 C 0.8085 0.81749 0.50168 0.0
C316 C 0.79902 0.84819 0.51383 0.0
H317 H 0.76022 0.97382 0.60421 0.0
H318 H 0.77871 0.92269 0.58634 0.0
H319 H 0.81244 0.92898 0.5088 0.0
H320 H 0.82539 0.78828 0.44462 0.0
H321 H 0.80085 0.83498 0.4646 0.0
C322 C 0.76243 0.15787 0.51895 0.0
C323 C 0.76172 0.15382 0.54459 0.0
C324 C 0.78965 0.17091 0.50744 0.0
C325 C 0.87676 0.17556 0.51764 0.0
H326 H 0.87709 0.23188 0.46077 0.0
C327 C 0.99366 0.2294 0.47889 0.0
C328 C -0.00285 0.23261 0.45332 0.0
C329 C 0.96449 0.21932 0.48906 0.0
C330 C 0.87731 0.21575 0.47642 0.0
H331 H 0.78788 0.16281 0.57843 0.0
H332 H 0.83521 0.18594 0.55836 0.0
H333 H 0.82595 0.21909 0.48113 0.0
H334 H 0.97287 0.22682 0.4183 0.0
H335 H 0.92164 0.20866 0.43619 0.0
H336 H 0.92787 0.17186 0.51292 0.0
C337 C 0.81497 0.17839 0.54712 0.0
C338 C 0.84808 0.20861 0.48816 0.0
C339 C 0.78773 0.16542 0.55864 0.0
C340 C 0.97097 0.22451 0.43807 0.0
C341 C 0.94157 0.21444 0.44832 0.0
C342 C 0.90586 0.18258 0.50589 0.0
C343 C 0.81671 0.18011 0.52136 0.0
C344 C 0.84755 0.18866 0.50904 0.0
C345 C 0.93795 0.21208 0.47396 0.0
C346 C 0.90657 0.20298 0.48528 0.0
H347 H 0.74274 0.14927 0.50759 0.0
H348 H 0.79024 0.17191 0.48757 0.0
H349 H 0.87709 0.15941 0.53327 0.0
H350 H 0.01331 0.23541 0.49122 0.0
H351 H 0.96247 0.21818 0.50887 0.0
C352 C 0.26565 0.51949 0.089 0.0
C353 C 0.25832 0.49374 0.07309 0.0
C354 C 0.27389 0.54986 0.07949 0.0
C355 C 0.26292 0.59868 0.0235 0.0
H356 H 0.33452 0.64962 0.04802 0.0
C357 C 0.32218 0.70134 0.96833 0.0
C358 C 0.33582 0.7275 0.98108 0.0
C359 C 0.30791 0.67583 0.98116 0.0
C360 C 0.31401 0.63602 0.04125 0.0
H361 H 0.25575 0.47922 0.03479 0.0
H362 H 0.27035 0.5317 0.01842 0.0
H363 H 0.32109 0.59852 0.06784 0.0
H364 H 0.34279 0.74872 0.01716 0.0
H365 H 0.31735 0.7045 0.03947 0.0
H366 H 0.25606 0.63582 0.9967 0.0
C367 C 0.269 0.52876 0.03817 0.0
C368 C 0.30643 0.60669 0.05258 0.0
C369 C 0.26088 0.49858 0.0476 0.0
C370 C 0.33274 0.72877 1.00679 0.0
C371 C 0.31841 0.7033 0.01961 0.0
C372 C 0.27041 0.62801 0.01223 0.0
C373 C 0.27482 0.55494 0.05395 0.0
C374 C 0.28125 0.58738 0.04347 0.0
C375 C 0.30688 0.67602 1.007 0.0
C376 C 0.29645 0.64674 0.02066 0.0
H377 H 0.2638 0.51657 0.10871 0.0
H378 H 0.27835 0.56961 0.09209 0.0
H379 H 0.24291 0.58463 0.01639 0.0
H380 H 0.32422 0.6996 0.94854 0.0
H381 H 0.29944 0.65512 0.97086 0.0
C382 C 0.72786 0.6535 0.01558 0.0
C383 C 0.72701 0.65015 0.04128 0.0
C384 C 0.70201 0.66758 1.00306 0.0
C385 C 0.62666 0.71511 1.01129 0.0
H386 H 0.59685 0.66554 0.95516 0.0
C387 C 0.49737 0.72661 0.97567 0.0
C388 C 0.49267 0.72945 0.95019 0.0
C389 C 0.52742 0.718 0.98514 0.0
C390 C 0.6051 0.67989 0.97057 0.0
H391 H 0.69931 0.66087 0.0741 0.0
H392 H 0.65414 0.68527 0.05227 0.0
H393 H 0.64796 0.65157 0.97481 0.0
H394 H 0.51557 0.72398 0.9146 0.0
H395 H 0.56839 0.70862 0.93127 0.0
H396 H 0.58341 0.74293 1.0074 0.0
C397 C 0.67485 0.67718 0.04177 0.0
C398 C 0.63443 0.67199 0.98181 0.0
C399 C 0.70074 0.66314 0.05431 0.0
C400 C 0.5184 0.72192 0.93431 0.0
C401 C 0.54863 0.71321 0.94385 0.0
C402 C 0.59734 0.72295 1.0001 0.0
C403 C 0.67474 0.67862 0.01594 0.0
C404 C 0.64529 0.68918 1.00255 0.0
C405 C 0.5536 0.71197 0.9694 0.0
C406 C 0.58594 0.70504 0.97992 0.0
H407 H 0.74787 0.64394 1.005 0.0
H408 H 0.70296 0.66894 0.9832 0.0
H409 H 0.63458 0.72918 0.02695 0.0
H410 H 0.47801 0.73188 0.98846 0.0
H411 H 0.53024 0.71642 1.00489 0.0
C412 C 0.73394 0.48783 0.04664 0.0
C413 C 0.73607 0.49322 0.07209 0.0
C414 C 0.72534 0.45762 0.03747 0.0
C415 C 0.68523 0.38129 0.05271 0.0
H416 H 0.73377 0.34961 0.99663 0.0
C417 C 0.65501 0.25904 1.00828 0.0
C418 C 0.65162 0.25981 0.98259 0.0
C419 C 0.66995 0.2845 0.02071 0.0
C420 C 0.71992 0.35815 0.01223 0.0
H421 H 0.72964 0.47126 0.10791 0.0
H422 H 0.71434 0.41815 0.09176 0.0
H423 H 0.74905 0.40055 0.0159 0.0
H424 H 0.66312 0.28691 0.94967 0.0
H425 H 0.68903 0.33141 0.97132 0.0
H426 H 0.6556 0.3393 0.04868 0.0
C427 C 0.71944 0.43752 0.07897 0.0
C428 C 0.72863 0.38734 0.02325 0.0
C429 C 0.72815 0.46791 0.08821 0.0
C430 C 0.66538 0.28555 0.96946 0.0
C431 C 0.6803 0.31106 0.9819 0.0
C432 C 0.67647 0.35209 0.04165 0.0
C433 C 0.71861 0.43194 0.05348 0.0
C434 C 0.71098 0.39955 0.0433 0.0
C435 C 0.68184 0.31129 1.00772 0.0
C436 C 0.69337 0.34047 0.021 0.0
H437 H 0.73955 0.50682 0.03365 0.0
H438 H 0.72412 0.45433 0.01775 0.0
H439 H 0.67103 0.39018 0.06801 0.0
H440 H 0.64486 0.23943 0.01895 0.0
H441 H 0.67134 0.28366 0.04057 0.0
C442 C 0.48816 0.25408 0.9776 0.0
C443 C 0.49353 0.25206 0.95214 0.0
C444 C 0.4579 0.26249 0.98681 0.0
C445 C 0.38136 0.30234 0.9718 0.0
H446 H 0.34991 0.25321 0.02759 0.0
C447 C 0.25954 0.33267 0.01684 0.0
C448 C 0.26061 0.33586 0.04254 0.0
C449 C 0.28474 0.31755 1.0042 0.0
C450 C 0.35838 0.26721 0.01207 0.0
H451 H 0.47148 0.25853 0.91635 0.0
H452 H 0.4183 0.27355 0.93257 0.0
H453 H 0.40088 0.23824 1.00817 0.0
H454 H 0.28785 0.32371 0.07527 0.0
H455 H 0.33188 0.29752 0.05326 0.0
H456 H 0.33932 0.33186 0.97609 0.0
C457 C 0.43772 0.26848 0.94533 0.0
C458 C 0.38758 0.25868 1.00097 0.0
C459 C 0.46815 0.25994 0.93605 0.0
C460 C 0.28628 0.32162 0.05547 0.0
C461 C 0.31152 0.30654 0.04282 0.0
C462 C 0.35216 0.31094 0.98296 0.0
C463 C 0.43215 0.26916 0.97083 0.0
C464 C 0.39972 0.27656 0.98104 0.0
C465 C 0.31155 0.3053 0.01699 0.0
C466 C 0.34063 0.29383 1.00351 0.0
H467 H 0.5072 0.24848 0.99057 0.0
H468 H 0.45462 0.26359 1.00653 0.0
H469 H 0.39019 0.3167 0.9566 0.0
H470 H 0.23997 0.34318 1.00633 0.0
H471 H 0.28372 0.31639 0.98434 0.0
C472 C 0.93322 0.59694 0.40631 0.0
C473 C 0.92403 0.61249 0.42813 0.0
C474 C 0.94898 0.56721 0.40707 0.0
C475 C 0.97205 0.49884 0.44759 0.0
H476 H 0.04378 0.49242 0.40189 0.0
C477 C 0.06337 0.39378 0.45086 0.0
C478 C 0.0659 0.37727 0.42838 0.0
C479 C 0.04879 0.42421 0.45184 0.0
C480 C 0.02384 0.49393 0.41475 0.0
H481 H 0.92219 0.60828 0.46779 0.0
H482 H 0.95034 0.55657 0.4692 0.0
H483 H 0.00953 0.54025 0.40148 0.0
H484 H 0.05747 0.38047 0.38915 0.0
H485 H 0.03274 0.43384 0.39082 0.0
H486 H 0.98681 0.45247 0.46093 0.0
C487 C 0.94505 0.5671 0.45145 0.0
C488 C 0.004 0.52114 0.41439 0.0
C489 C 0.92884 0.59672 0.45066 0.0
C490 C 0.05575 0.39263 0.40673 0.0
C491 C 0.04166 0.42319 0.40767 0.0
C492 C 0.99213 0.47172 0.44809 0.0
C493 C 0.95634 0.55263 0.42969 0.0
C494 C 0.97755 0.52372 0.43054 0.0
C495 C 0.03709 0.43877 0.43032 0.0
C496 C 0.01795 0.46887 0.43146 0.0
H497 H 0.92949 0.60843 0.38866 0.0
H498 H 0.95641 0.55621 0.38992 0.0
H499 H 0.9518 0.49995 0.46016 0.0
H500 H 0.07085 0.38243 0.46785 0.0
H501 H 0.0458 0.43595 0.46949 0.0
C502 C 0.59326 0.05965 0.61598 0.0
C503 C 0.60895 0.06916 0.59429 0.0
C504 C 0.56251 0.04597 0.61506 0.0
C505 C 0.51418 -0.00405 0.57503 0.0
H506 H 0.44529 0.01433 0.62121 0.0
C507 C 0.38965 0.93167 0.57322 0.0
C508 C 0.37387 0.92722 0.59581 0.0
C509 C 0.41904 0.94826 0.5722 0.0
C510 C 0.46449 0.00854 0.60842 0.0
H511 H 0.60418 0.0735 0.55476 0.0
H512 H 0.55031 0.04914 0.55315 0.0
H513 H 0.49309 0.04864 0.62047 0.0
H514 H 0.37772 0.93384 0.63519 0.0
H515 H 0.42957 0.96148 0.63356 0.0
H516 H 0.48613 0.95527 0.56345 0.0
C517 C 0.56194 0.05233 0.57082 0.0
C518 C 0.49168 0.02842 0.60786 0.0
C519 C 0.59257 0.06651 0.57178 0.0
C520 C 0.3892 0.93727 0.6175 0.0
C521 C 0.41872 0.95344 0.61652 0.0
C522 C 0.48709 0.97584 0.57573 0.0
C523 C 0.54706 0.04117 0.5924 0.0
C524 C 0.51688 0.02214 0.59132 0.0
C525 C 0.43331 0.96033 0.59379 0.0
C526 C 0.46209 0.98169 0.59265 0.0
H527 H 0.60534 0.06148 0.63358 0.0
H528 H 0.55162 0.03747 0.63196 0.0
H529 H 0.53355 0.99034 0.56233 0.0
H530 H 0.37827 0.92435 0.55618 0.0
H531 H 0.42958 0.95318 0.55439 0.0
C532 C 0.55862 0.09357 0.9083 0.0
C533 C 0.56731 0.10962 0.93005 0.0
C534 C 0.54507 0.06277 0.90919 0.0
C535 C 0.49405 0.01469 0.94868 0.0
H536 H 0.51411 0.94542 0.90324 0.0
C537 C 0.4303 0.88993 0.95012 0.0
C538 C 0.4264 0.874 0.92752 0.0
C539 C 0.44681 0.91935 0.95127 0.0
C540 C 0.50787 0.96472 0.91581 0.0
H541 H 0.57033 0.10542 0.96969 0.0
H542 H 0.54622 0.05147 0.97122 0.0
H543 H 0.54815 0.99339 0.90426 0.0
H544 H 0.43401 0.87758 0.88822 0.0
H545 H 0.46156 0.92944 0.89008 0.0
H546 H 0.4532 0.98654 0.95975 0.0
C547 C 0.54993 0.06286 0.95354 0.0
C548 C 0.52758 0.99201 0.91653 0.0
C549 C 0.56397 0.09354 0.95262 0.0
C550 C 0.437 0.88918 0.90593 0.0
C551 C 0.45311 0.9187 0.90704 0.0
C552 C 0.47411 0.98748 0.94781 0.0
C553 C 0.53959 0.04762 0.93186 0.0
C554 C 0.52069 0.01736 0.9328 0.0
C555 C 0.45938 0.93347 0.9298 0.0
C556 C 0.48058 0.96235 0.93115 0.0
H557 H 0.561 0.10538 0.89064 0.0
H558 H 0.5372 0.0516 0.89221 0.0
H559 H 0.48796 0.03416 0.96116 0.0
H560 H 0.42254 0.87869 0.96708 0.0
H561 H 0.45125 0.93003 0.96911 0.0
C562 C 0.09838 0.43119 0.07309 0.0
C563 C 0.11421 0.42706 0.09569 0.0
C564 C 0.06896 0.44773 0.07199 0.0
C565 C 0.02343 0.50841 0.10776 0.0
H566 H 0.95408 0.48895 0.06225 0.0
C567 C 0.89445 0.55891 0.1156 0.0
C568 C 0.87836 0.56773 0.09391 0.0
C569 C 0.9253 0.54546 0.11461 0.0
C570 C 0.97352 0.49492 0.07478 0.0
H571 H 0.11044 0.43425 0.13503 0.0
H572 H 0.05857 0.46182 0.13325 0.0
H573 H 0.00174 0.45422 0.06346 0.0
H574 H 0.88258 0.57111 0.05428 0.0
H575 H 0.93662 0.54719 0.05257 0.0
H576 H -0.00531 0.54855 0.11955 0.0
C577 C 0.06939 0.45355 0.11626 0.0
C578 C 0.00075 0.475 0.07553 0.0
C579 C 0.09892 0.43742 0.11732 0.0
C580 C 0.89447 0.56464 0.0713 0.0
C581 C 0.92521 0.55071 0.07029 0.0
C582 C -0.00388 0.52811 0.10715 0.0
C583 C 0.05473 0.46007 0.09351 0.0
C584 C 0.02585 0.48129 0.09226 0.0
C585 C 0.94048 0.54022 0.09189 0.0
C586 C 0.97079 0.52138 0.09082 0.0
H587 H 0.10972 0.42363 0.05609 0.0
H588 H 0.05835 0.45236 0.05416 0.0
H589 H 0.04271 0.51452 0.12038 0.0
H590 H 0.88262 0.5611 0.13328 0.0
H591 H 0.9365 0.53747 0.13154 0.0
loop_
_geom_bond_atom_site_label_1
_geom_bond_atom_site_label_2
_geom_bond_distance
_geom_bond_site_symmetry_2
_ccdc_geom_bond_type
O0 Cd1 2.223 . S
O0 C8 1.315 . S
Cd1 O0 2.223 . S
Cd1 O4 2.297 . S
Cd1 O5 2.439 . S
Cd1 O11 2.240 . S
Cd2 O3 2.240 . S
Cd2 O10 2.223 . S
Cd2 O12 2.297 . S
Cd2 O13 2.439 . S
O3 Cd2 2.240 . S
O3 C8 1.279 . S
O4 Cd1 2.297 . S
O4 C6 1.247 . S
O5 Cd1 2.439 . S
O5 C6 1.208 . S
C6 O4 1.247 . S
C6 O5 1.208 . S
C7 O12 1.247 . S
C7 O13 1.208 . S
C8 O0 1.315 . S
C8 O3 1.279 . S
C9 O10 1.315 . S
C9 O11 1.279 . S
O10 Cd2 2.223 . S
O10 C9 1.315 . S
O11 Cd1 2.240 . S
O11 C9 1.279 . S
O12 Cd2 2.297 . S
O12 C7 1.247 . S
O13 Cd2 2.439 . S
O13 C7 1.208 . S
O14 Cd15 2.223 . S
O14 C22 1.315 . S
Cd15 O14 2.223 . S
Cd15 O18 2.297 . S
Cd15 O19 2.439 . S
Cd15 O25 2.240 . S
Cd16 O17 2.240 . S
Cd16 O24 2.223 . S
Cd16 O26 2.297 . S
Cd16 O27 2.439 . S
O17 Cd16 2.240 . S
O17 C22 1.279 . S
O18 Cd15 2.297 . S
O18 C20 1.247 . S
O19 Cd15 2.439 . S
O19 C20 1.208 . S
C20 O18 1.247 . S
C20 O19 1.208 . S
C21 O26 1.247 . S
C21 O27 1.208 . S
C22 O14 1.315 . S
C22 O17 1.279 . S
C23 O24 1.315 . S
C23 O25 1.279 . S
O24 Cd16 2.223 . S
O24 C23 1.315 . S
O25 Cd15 2.240 . S
O25 C23 1.279 . S
O26 Cd16 2.297 . S
O26 C21 1.247 . S
O27 Cd16 2.439 . S
O27 C21 1.208 . S
O28 Cd29 2.223 . S
O28 C36 1.315 . S
Cd29 O28 2.223 . S
Cd29 O32 2.297 . S
Cd29 O33 2.439 . S
Cd29 O39 2.240 . S
Cd30 O31 2.240 . S
Cd30 O38 2.223 . S
Cd30 O40 2.297 . S
Cd30 O41 2.439 . S
O31 Cd30 2.240 . S
O31 C36 1.279 . S
O32 Cd29 2.297 . S
O32 C34 1.247 . S
O33 Cd29 2.439 . S
O33 C34 1.208 . S
C34 O32 1.247 . S
C34 O33 1.208 . S
C35 O40 1.247 . S
C35 O41 1.208 . S
C36 O28 1.315 . S
C36 O31 1.279 . S
C37 O38 1.315 . S
C37 O39 1.279 . S
O38 Cd30 2.223 . S
O38 C37 1.315 . S
O39 Cd29 2.240 . S
O39 C37 1.279 . S
O40 Cd30 2.297 . S
O40 C35 1.247 . S
O41 Cd30 2.439 . S
O41 C35 1.208 . S
O42 Cd43 2.223 . S
O42 C50 1.315 . S
Cd43 O42 2.223 . S
Cd43 O46 2.297 . S
Cd43 O47 2.439 . S
Cd43 O53 2.240 . S
Cd44 O45 2.240 . S
Cd44 O52 2.223 . S
Cd44 O54 2.297 . S
Cd44 O55 2.439 . S
O45 Cd44 2.240 . S
O45 C50 1.279 . S
O46 Cd43 2.297 . S
O46 C48 1.247 . S
O47 Cd43 2.439 . S
O47 C48 1.208 . S
C48 O46 1.247 . S
C48 O47 1.208 . S
C49 O54 1.247 . S
C49 O55 1.208 . S
C50 O42 1.315 . S
C50 O45 1.279 . S
C51 O52 1.315 . S
C51 O53 1.279 . S
O52 Cd44 2.223 . S
O52 C51 1.315 . S
O53 Cd43 2.240 . S
O53 C51 1.279 . S
O54 Cd44 2.297 . S
O54 C49 1.247 . S
O55 Cd44 2.439 . S
O55 C49 1.208 . S
O56 Cd57 2.223 . S
O56 C64 1.315 . S
Cd57 O56 2.223 . S
Cd57 O60 2.297 . S
Cd57 O61 2.439 . S
Cd57 O67 2.240 . S
Cd58 O59 2.240 . S
Cd58 O66 2.223 . S
Cd58 O68 2.297 . S
Cd58 O69 2.439 . S
O59 Cd58 2.240 . S
O59 C64 1.279 . S
O60 Cd57 2.297 . S
O60 C62 1.247 . S
O61 Cd57 2.439 . S
O61 C62 1.208 . S
C62 O60 1.247 . S
C62 O61 1.208 . S
C63 O68 1.247 . S
C63 O69 1.208 . S
C64 O56 1.315 . S
C64 O59 1.279 . S
C65 O66 1.315 . S
C65 O67 1.279 . S
O66 Cd58 2.223 . S
O66 C65 1.315 . S
O67 Cd57 2.240 . S
O67 C65 1.279 . S
O68 Cd58 2.297 . S
O68 C63 1.247 . S
O69 Cd58 2.439 . S
O69 C63 1.208 . S
O70 Cd71 2.223 . S
O70 C78 1.315 . S
Cd71 O70 2.223 . S
Cd71 O74 2.297 . S
Cd71 O75 2.439 . S
Cd71 O81 2.240 . S
Cd72 O73 2.240 . S
Cd72 O80 2.223 . S
Cd72 O82 2.297 . S
Cd72 O83 2.439 . S
O73 Cd72 2.240 . S
O73 C78 1.279 . S
O74 Cd71 2.297 . S
O74 C76 1.247 . S
O75 Cd71 2.439 . S
O75 C76 1.208 . S
C76 O74 1.247 . S
C76 O75 1.208 . S
C77 O82 1.247 . S
C77 O83 1.208 . S
C78 O70 1.315 . S
C78 O73 1.279 . S
C79 O80 1.315 . S
C79 O81 1.279 . S
O80 Cd72 2.223 . S
O80 C79 1.315 . S
O81 Cd71 2.240 . S
O81 C79 1.279 . S
O82 Cd72 2.297 . S
O82 C77 1.247 . S
O83 Cd72 2.439 . S
O83 C77 1.208 . S
O84 Cd85 2.223 . S
O84 C92 1.315 . S
Cd85 O84 2.223 . S
Cd85 O88 2.297 . S
Cd85 O89 2.439 . S
Cd85 O95 2.240 . S
Cd86 O87 2.240 . S
Cd86 O94 2.223 . S
Cd86 O96 2.297 . S
Cd86 O97 2.439 . S
O87 Cd86 2.240 . S
O87 C92 1.279 . S
O88 Cd85 2.297 . S
O88 C90 1.247 . S
O89 Cd85 2.439 . S
O89 C90 1.208 . S
C90 O88 1.247 . S
C90 O89 1.208 . S
C91 O96 1.247 . S
C91 O97 1.208 . S
C92 O84 1.315 . S
C92 O87 1.279 . S
C93 O94 1.315 . S
C93 O95 1.279 . S
O94 Cd86 2.223 . S
O94 C93 1.315 . S
O95 Cd85 2.240 . S
O95 C93 1.279 . S
O96 Cd86 2.297 . S
O96 C91 1.247 . S
O97 Cd86 2.439 . S
O97 C91 1.208 . S
O98 Cd99 2.223 . S
O98 C106 1.315 . S
Cd99 O98 2.223 . S
Cd99 O102 2.297 . S
Cd99 O103 2.439 . S
Cd99 O109 2.240 . S
Cd100 O101 2.240 . S
Cd100 O108 2.223 . S
Cd100 O110 2.297 . S
Cd100 O111 2.439 . S
O101 Cd100 2.240 . S
O101 C106 1.279 . S
O102 Cd99 2.297 . S
O102 C104 1.247 . S
O103 Cd99 2.439 . S
O103 C104 1.208 . S
C104 O102 1.247 . S
C104 O103 1.208 . S
C105 O110 1.247 . S
C105 O111 1.208 . S
C106 O98 1.315 . S
C106 O101 1.279 . S
C107 O108 1.315 . S
C107 O109 1.279 . S
O108 Cd100 2.223 . S
O108 C107 1.315 . S
O109 Cd99 2.240 . S
O109 C107 1.279 . S
O110 Cd100 2.297 . S
O110 C105 1.247 . S
O111 Cd100 2.439 . S
O111 C105 1.208 . S
C112 C113 1.349 . S
C112 C114 1.327 . S
C112 H137 0.950 . S
C113 C112 1.349 . S
C113 C129 1.349 . S
C114 C112 1.327 . S
C114 C133 1.429 . S
C114 H138 0.950 . S
C115 C132 1.574 . S
C115 C134 1.368 . S
C115 H139 0.949 . S
H116 C120 0.949 . S
C117 C118 1.349 . S
C117 C119 1.327 . S
C117 H140 0.950 . S
C118 C117 1.349 . S
C118 C130 1.349 . S
C119 C117 1.327 . S
C119 C135 1.429 . S
C119 H141 0.950 . S
C120 H116 0.949 . S
C120 C128 1.574 . S
C120 C136 1.368 . S
H121 C129 0.950 . S
H122 C127 0.950 . S
H123 C128 0.949 . S
H124 C130 0.950 . S
H125 C131 0.950 . S
H126 C132 0.949 . S
C127 H122 0.950 . S
C127 C129 1.327 . S
C127 C133 1.429 . S
C128 C120 1.574 . S
C128 H123 0.949 . S
C128 C134 1.368 . S
C129 C113 1.349 . S
C129 H121 0.950 . S
C129 C127 1.327 . S
C130 C118 1.349 . S
C130 H124 0.950 . S
C130 C131 1.327 . S
C131 H125 0.950 . S
C131 C130 1.327 . S
C131 C135 1.429 . S
C132 C115 1.574 . S
C132 H126 0.949 . S
C132 C136 1.368 . S
C133 C114 1.429 . S
C133 C127 1.429 . S
C133 C134 1.523 . S
C134 C115 1.368 . S
C134 C128 1.368 . S
C134 C133 1.523 . S
C135 C119 1.429 . S
C135 C131 1.429 . S
C135 C136 1.523 . S
C136 C120 1.368 . S
C136 C132 1.368 . S
C136 C135 1.523 . S
H137 C112 0.950 . S
H138 C114 0.950 . S
H139 C115 0.949 . S
H140 C117 0.950 . S
H141 C119 0.950 . S
C142 C143 1.349 . S
C142 C144 1.327 . S
C142 H167 0.950 . S
C143 C142 1.349 . S
C143 C159 1.349 . S
C144 C142 1.327 . S
C144 C163 1.429 . S
C144 H168 0.950 . S
C145 C162 1.574 . S
C145 C164 1.368 . S
C145 H169 0.949 . S
H146 C150 0.949 . S
C147 C148 1.349 . S
C147 C149 1.327 . S
C147 H170 0.950 . S
C148 C147 1.349 . S
C148 C160 1.349 . S
C149 C147 1.327 . S
C149 C165 1.429 . S
C149 H171 0.950 . S
C150 H146 0.949 . S
C150 C158 1.574 . S
C150 C166 1.368 . S
H151 C159 0.950 . S
H152 C157 0.950 . S
H153 C158 0.949 . S
H154 C160 0.950 . S
H155 C161 0.950 . S
H156 C162 0.949 . S
C157 H152 0.950 . S
C157 C159 1.327 . S
C157 C163 1.429 . S
C158 C150 1.574 . S
C158 H153 0.949 . S
C158 C164 1.368 . S
C159 C143 1.349 . S
C159 H151 0.950 . S
C159 C157 1.327 . S
C160 C148 1.349 . S
C160 H154 0.950 . S
C160 C161 1.327 . S
C161 H155 0.950 . S
C161 C160 1.327 . S
C161 C165 1.429 . S
C162 C145 1.574 . S
C162 H156 0.949 . S
C162 C166 1.368 . S
C163 C144 1.429 . S
C163 C157 1.429 . S
C163 C164 1.523 . S
C164 C145 1.368 . S
C164 C158 1.368 . S
C164 C163 1.523 . S
C165 C149 1.429 . S
C165 C161 1.429 . S
C165 C166 1.523 . S
C166 C150 1.368 . S
C166 C162 1.368 . S
C166 C165 1.523 . S
H167 C142 0.950 . S
H168 C144 0.950 . S
H169 C145 0.949 . S
H170 C147 0.950 . S
H171 C149 0.950 . S
C172 C173 1.349 . S
C172 C174 1.327 . S
C172 H197 0.950 . S
C173 C172 1.349 . S
C173 C189 1.349 . S
C174 C172 1.327 . S
C174 C193 1.429 . S
C174 H198 0.950 . S
C175 C192 1.574 . S
C175 C194 1.368 . S
C175 H199 0.949 . S
H176 C180 0.949 . S
C177 C178 1.349 . S
C177 C179 1.327 . S
C177 H200 0.950 . S
C178 C177 1.349 . S
C178 C190 1.349 . S
C179 C177 1.327 . S
C179 C195 1.429 . S
C179 H201 0.950 . S
C180 H176 0.949 . S
C180 C188 1.574 . S
C180 C196 1.368 . S
H181 C189 0.950 . S
H182 C187 0.950 . S
H183 C188 0.949 . S
H184 C190 0.950 . S
H185 C191 0.950 . S
H186 C192 0.949 . S
C187 H182 0.950 . S
C187 C189 1.327 . S
C187 C193 1.429 . S
C188 C180 1.574 . S
C188 H183 0.949 . S
C188 C194 1.368 . S
C189 C173 1.349 . S
C189 H181 0.950 . S
C189 C187 1.327 . S
C190 C178 1.349 . S
C190 H184 0.950 . S
C190 C191 1.327 . S
C191 H185 0.950 . S
C191 C190 1.327 . S
C191 C195 1.429 . S
C192 C175 1.574 . S
C192 H186 0.949 . S
C192 C196 1.368 . S
C193 C174 1.429 . S
C193 C187 1.429 . S
C193 C194 1.523 . S
C194 C175 1.368 . S
C194 C188 1.368 . S
C194 C193 1.523 . S
C195 C179 1.429 . S
C195 C191 1.429 . S
C195 C196 1.523 . S
C196 C180 1.368 . S
C196 C192 1.368 . S
C196 C195 1.523 . S
H197 C172 0.950 . S
H198 C174 0.950 . S
H199 C175 0.949 . S
H200 C177 0.950 . S
H201 C179 0.950 . S
C202 C203 1.349 . S
C202 C204 1.327 . S
C202 H227 0.950 . S
C203 C202 1.349 . S
C203 C219 1.349 . S
C204 C202 1.327 . S
C204 C223 1.429 . S
C204 H228 0.950 . S
C205 C222 1.574 . S
C205 C224 1.368 . S
C205 H229 0.949 . S
H206 C210 0.949 . S
C207 C208 1.349 . S
C207 C209 1.327 . S
C207 H230 0.950 . S
C208 C207 1.349 . S
C208 C220 1.349 . S
C209 C207 1.327 . S
C209 C225 1.429 . S
C209 H231 0.950 . S
C210 H206 0.949 . S
C210 C218 1.574 . S
C210 C226 1.368 . S
H211 C219 0.950 . S
H212 C217 0.950 . S
H213 C218 0.949 . S
H214 C220 0.950 . S
H215 C221 0.950 . S
H216 C222 0.949 . S
C217 H212 0.950 . S
C217 C219 1.327 . S
C217 C223 1.429 . S
C218 C210 1.574 . S
C218 H213 0.949 . S
C218 C224 1.368 . S
C219 C203 1.349 . S
C219 H211 0.950 . S
C219 C217 1.327 . S
C220 C208 1.349 . S
C220 H214 0.950 . S
C220 C221 1.327 . S
C221 H215 0.950 . S
C221 C220 1.327 . S
C221 C225 1.429 . S
C222 C205 1.574 . S
C222 H216 0.949 . S
C222 C226 1.368 . S
C223 C204 1.429 . S
C223 C217 1.429 . S
C223 C224 1.523 . S
C224 C205 1.368 . S
C224 C218 1.368 . S
C224 C223 1.523 . S
C225 C209 1.429 . S
C225 C221 1.429 . S
C225 C226 1.523 . S
C226 C210 1.368 . S
C226 C222 1.368 . S
C226 C225 1.523 . S
H227 C202 0.950 . S
H228 C204 0.950 . S
H229 C205 0.949 . S
H230 C207 0.950 . S
H231 C209 0.950 . S
C232 C233 1.349 . S
C232 C234 1.327 1_565 S
C232 H257 0.950 . S
C233 C232 1.349 . S
C233 C249 1.367 . S
C234 C232 1.327 1_545 S
C234 C253 1.429 . S
C234 H258 0.950 . S
C235 C252 1.574 . S
C235 C254 1.368 . S
C235 H259 0.949 . S
H236 C240 0.949 . S
C237 C238 1.349 . S
C237 C239 1.327 . S
C237 H260 0.950 . S
C238 C237 1.349 . S
C238 C250 1.349 . S
C239 C237 1.327 . S
C239 C255 1.429 . S
C239 H261 0.950 . S
C240 H236 0.949 . S
C240 C248 1.574 . S
C240 C256 1.368 . S
H241 C249 0.954 . S
H242 C247 0.950 . S
H243 C248 0.949 . S
H244 C250 0.950 . S
H245 C251 0.950 . S
H246 C252 0.949 . S
C247 H242 0.950 . S
C247 C249 1.305 1_545 S
C247 C253 1.429 . S
C248 C240 1.574 . S
C248 H243 0.949 . S
C248 C254 1.368 . S
C249 C233 1.367 . S
C249 H241 0.954 . S
C249 C247 1.305 1_565 S
C250 C238 1.349 . S
C250 H244 0.950 . S
C250 C251 1.327 . S
C251 H245 0.950 . S
C251 C250 1.327 . S
C251 C255 1.429 . S
C252 C235 1.574 . S
C252 H246 0.949 . S
C252 C256 1.368 . S
C253 C234 1.429 . S
C253 C247 1.429 . S
C253 C254 1.523 . S
C254 C235 1.368 . S
C254 C248 1.368 . S
C254 C253 1.523 . S
C255 C239 1.429 . S
C255 C251 1.429 . S
C255 C256 1.523 . S
C256 C240 1.368 . S
C256 C252 1.368 . S
C256 C255 1.523 . S
H257 C232 0.950 . S
H258 C234 0.950 . S
H259 C235 0.949 . S
H260 C237 0.950 . S
H261 C239 0.950 . S
C262 C263 1.349 . S
C262 C264 1.327 . S
C262 H287 0.950 . S
C263 C262 1.349 . S
C263 C279 1.349 . S
C264 C262 1.327 . S
C264 C283 1.429 . S
C264 H288 0.950 . S
C265 C282 1.574 . S
C265 C284 1.368 . S
C265 H289 0.949 . S
H266 C270 0.949 . S
C267 C268 1.349 . S
C267 C269 1.327 1_655 S
C267 H290 0.950 . S
C268 C267 1.349 . S
C268 C280 1.349 . S
C269 C267 1.327 1_455 S
C269 C285 1.429 . S
C269 H291 0.950 . S
C270 H266 0.949 . S
C270 C278 1.574 . S
C270 C286 1.368 . S
H271 C279 0.950 . S
H272 C277 0.950 . S
H273 C278 0.949 . S
H274 C280 0.950 . S
H275 C281 0.950 . S
H276 C282 0.949 . S
C277 H272 0.950 . S
C277 C279 1.327 . S
C277 C283 1.429 . S
C278 C270 1.574 . S
C278 H273 0.949 . S
C278 C284 1.368 . S
C279 C263 1.349 . S
C279 H271 0.950 . S
C279 C277 1.327 . S
C280 C268 1.349 . S
C280 H274 0.950 . S
C280 C281 1.327 1_655 S
C281 H275 0.950 . S
C281 C280 1.327 1_455 S
C281 C285 1.429 . S
C282 C265 1.574 . S
C282 H276 0.949 . S
C282 C286 1.368 . S
C283 C264 1.429 . S
C283 C277 1.429 . S
C283 C284 1.523 . S
C284 C265 1.368 . S
C284 C278 1.368 . S
C284 C283 1.523 . S
C285 C269 1.429 . S
C285 C281 1.429 . S
C285 C286 1.523 . S
C286 C270 1.368 . S
C286 C282 1.368 . S
C286 C285 1.523 . S
H287 C262 0.950 . S
H288 C264 0.950 . S
H289 C265 0.949 . S
H290 C267 0.950 . S
H291 C269 0.950 . S
C292 C293 1.349 1_565 S
C292 C294 1.327 . S
C292 H317 0.952 . S
C293 C292 1.349 1_545 S
C293 C309 1.349 . S
C294 C292 1.327 . S
C294 C313 1.429 . S
C294 H318 0.950 . S
C295 C312 1.574 . S
C295 C314 1.368 . S
C295 H319 0.949 . S
H296 C300 0.949 . S
C297 C298 1.349 . S
C297 C299 1.327 . S
C297 H320 0.950 . S
C298 C297 1.349 . S
C298 C310 1.349 . S
C299 C297 1.327 . S
C299 C315 1.429 . S
C299 H321 0.950 . S
C300 H296 0.949 . S
C300 C308 1.574 . S
C300 C316 1.368 . S
H301 C309 0.950 . S
H302 C307 0.950 . S
H303 C308 0.949 . S
H304 C310 0.950 . S
H305 C311 0.950 . S
H306 C312 0.949 . S
C307 H302 0.950 . S
C307 C309 1.327 1_565 S
C307 C313 1.429 . S
C308 C300 1.574 . S
C308 H303 0.949 . S
C308 C314 1.368 . S
C309 C293 1.349 . S
C309 H301 0.950 . S
C309 C307 1.327 1_545 S
C310 C298 1.349 . S
C310 H304 0.950 . S
C310 C311 1.327 . S
C311 H305 0.950 . S
C311 C310 1.327 . S
C311 C315 1.429 . S
C312 C295 1.574 . S
C312 H306 0.949 . S
C312 C316 1.368 . S
C313 C294 1.429 . S
C313 C307 1.429 . S
C313 C314 1.523 . S
C314 C295 1.368 . S
C314 C308 1.368 . S
C314 C313 1.523 . S
C315 C299 1.429 . S
C315 C311 1.429 . S
C315 C316 1.523 . S
C316 C300 1.368 . S
C316 C312 1.368 . S
C316 C315 1.523 . S
H317 C292 0.952 . S
H318 C294 0.950 . S
H319 C295 0.949 . S
H320 C297 0.950 . S
H321 C299 0.950 . S
C322 C323 1.349 . S
C322 C324 1.327 . S
C322 H347 0.950 . S
C323 C322 1.349 . S
C323 C339 1.349 . S
C324 C322 1.327 . S
C324 C343 1.429 . S
C324 H348 0.950 . S
C325 C342 1.574 . S
C325 C344 1.368 . S
C325 H349 0.949 . S
H326 C330 0.949 . S
C327 C328 1.349 . S
C327 C329 1.327 1_455 S
C327 H350 0.950 . S
C328 C327 1.349 . S
C328 C340 1.349 1_455 S
C329 C327 1.327 1_655 S
C329 C345 1.429 . S
C329 H351 0.950 . S
C330 H326 0.949 . S
C330 C338 1.574 . S
C330 C346 1.368 . S
H331 C339 0.950 . S
H332 C337 0.950 . S
H333 C338 0.949 . S
H334 C340 0.950 1_455 S
H335 C341 0.950 . S
H336 C342 0.949 . S
C337 H332 0.950 . S
C337 C339 1.327 . S
C337 C343 1.429 . S
C338 C330 1.574 . S
C338 H333 0.949 . S
C338 C344 1.368 . S
C339 C323 1.349 . S
C339 H331 0.950 . S
C339 C337 1.327 . S
C340 C328 1.349 1_655 S
C340 H334 0.950 1_655 S
C340 C341 1.327 . S
C341 H335 0.950 . S
C341 C340 1.327 . S
C341 C345 1.429 . S
C342 C325 1.574 . S
C342 H336 0.949 . S
C342 C346 1.368 . S
C343 C324 1.429 . S
C343 C337 1.429 . S
C343 C344 1.523 . S
C344 C325 1.368 . S
C344 C338 1.368 . S
C344 C343 1.523 . S
C345 C329 1.429 . S
C345 C341 1.429 . S
C345 C346 1.523 . S
C346 C330 1.368 . S
C346 C342 1.368 . S
C346 C345 1.523 . S
H347 C322 0.950 . S
H348 C324 0.950 . S
H349 C325 0.949 . S
H350 C327 0.950 . S
H351 C329 0.950 . S
C352 C353 1.349 . S
C352 C354 1.327 . S
C352 H377 0.950 . S
C353 C352 1.349 . S
C353 C369 1.349 . S
C354 C352 1.327 . S
C354 C373 1.429 . S
C354 H378 0.950 . S
C355 C372 1.574 . S
C355 C374 1.368 1_556 S
C355 H379 0.949 . S
H356 C360 0.949 . S
C357 C358 1.349 . S
C357 C359 1.327 . S
C357 H380 0.950 . S
C358 C357 1.349 . S
C358 C370 1.349 . S
C359 C357 1.327 . S
C359 C375 1.429 . S
C359 H381 0.950 . S
C360 H356 0.949 . S
C360 C368 1.574 . S
C360 C376 1.368 1_554 S
H361 C369 0.950 . S
H362 C367 0.950 1_556 S
H363 C368 0.949 . S
H364 C370 0.950 1_554 S
H365 C371 0.950 . S
H366 C372 0.949 . S
C367 H362 0.950 1_554 S
C367 C369 1.327 . S
C367 C373 1.429 . S
C368 C360 1.574 . S
C368 H363 0.949 . S
C368 C374 1.368 . S
C369 C353 1.349 . S
C369 H361 0.950 . S
C369 C367 1.327 . S
C370 C358 1.349 . S
C370 H364 0.950 1_556 S
C370 C371 1.327 1_556 S
C371 H365 0.950 . S
C371 C370 1.327 1_554 S
C371 C375 1.429 1_554 S
C372 C355 1.574 . S
C372 H366 0.949 . S
C372 C376 1.368 . S
C373 C354 1.429 . S
C373 C367 1.429 . S
C373 C374 1.523 . S
C374 C355 1.368 1_554 S
C374 C368 1.368 . S
C374 C373 1.523 . S
C375 C359 1.429 . S
C375 C371 1.429 1_556 S
C375 C376 1.523 . S
C376 C360 1.368 1_556 S
C376 C372 1.368 . S
C376 C375 1.523 . S
H377 C352 0.950 . S
H378 C354 0.950 . S
H379 C355 0.949 . S
H380 C357 0.950 . S
H381 C359 0.950 . S
C382 C383 1.349 . S
C382 C384 1.342 . S
C382 H407 0.971 . S
C383 C382 1.349 . S
C383 C399 1.349 . S
C384 C382 1.342 . S
C384 C403 1.448 . S
C384 H408 0.915 1_554 S
C385 C402 1.574 . S
C385 C404 1.368 . S
C385 H409 0.949 . S
H386 C390 0.949 . S
C387 C388 1.349 . S
C387 C389 1.327 . S
C387 H410 0.950 . S
C388 C387 1.349 . S
C388 C400 1.349 . S
C389 C387 1.327 . S
C389 C405 1.429 . S
C389 H411 0.950 1_556 S
C390 H386 0.949 . S
C390 C398 1.574 . S
C390 C406 1.368 . S
H391 C399 0.950 . S
H392 C397 0.950 . S
H393 C398 0.949 . S
H394 C400 0.950 . S
H395 C401 0.950 . S
H396 C402 0.949 . S
C397 H392 0.950 . S
C397 C399 1.327 . S
C397 C403 1.429 . S
C398 C390 1.574 . S
C398 H393 0.949 . S
C398 C404 1.368 1_556 S
C399 C383 1.349 . S
C399 H391 0.950 . S
C399 C397 1.327 . S
C400 C388 1.349 . S
C400 H394 0.950 . S
C400 C401 1.327 . S
C401 H395 0.950 . S
C401 C400 1.327 . S
C401 C405 1.429 . S
C402 C385 1.574 . S
C402 H396 0.949 . S
C402 C406 1.368 1_554 S
C403 C384 1.448 . S
C403 C397 1.429 . S
C403 C404 1.523 . S
C404 C385 1.368 . S
C404 C398 1.368 1_554 S
C404 C403 1.523 . S
C405 C389 1.429 . S
C405 C401 1.429 . S
C405 C406 1.523 . S
C406 C390 1.368 . S
C406 C402 1.368 1_556 S
C406 C405 1.523 . S
H407 C382 0.971 . S
H408 C384 0.915 1_556 S
H409 C385 0.949 . S
H410 C387 0.950 . S
H411 C389 0.950 1_554 S
C412 C413 1.349 . S
C412 C414 1.327 . S
C412 H437 0.966 . S
C413 C412 1.349 . S
C413 C429 1.349 . S
C414 C412 1.327 . S
C414 C433 1.429 . S
C414 H438 0.950 1_554 S
C415 C432 1.574 . S
C415 C434 1.368 . S
C415 H439 0.949 . S
H416 C420 0.949 . S
C417 C418 1.349 . S
C417 C419 1.327 1_556 S
C417 H440 0.950 1_556 S
C418 C417 1.349 . S
C418 C430 1.349 . S
C419 C417 1.327 1_554 S
C419 C435 1.429 1_554 S
C419 H441 0.950 . S
C420 H416 0.949 . S
C420 C428 1.574 . S
C420 C436 1.368 . S
H421 C429 0.950 . S
H422 C427 0.950 . S
H423 C428 0.949 . S
H424 C430 0.950 . S
H425 C431 0.950 . S
H426 C432 0.949 . S
C427 H422 0.950 . S
C427 C429 1.327 . S
C427 C433 1.429 . S
C428 C420 1.574 . S
C428 H423 0.949 . S
C428 C434 1.368 1_556 S
C429 C413 1.349 . S
C429 H421 0.950 . S
C429 C427 1.327 . S
C430 C418 1.349 . S
C430 H424 0.950 . S
C430 C431 1.327 . S
C431 H425 0.950 . S
C431 C430 1.327 . S
C431 C435 1.429 . S
C432 C415 1.574 . S
C432 H426 0.949 . S
C432 C436 1.368 1_554 S
C433 C414 1.429 . S
C433 C427 1.429 . S
C433 C434 1.523 . S
C434 C415 1.368 . S
C434 C428 1.368 1_554 S
C434 C433 1.523 . S
C435 C419 1.429 1_556 S
C435 C431 1.429 . S
C435 C436 1.523 . S
C436 C420 1.368 . S
C436 C432 1.368 1_556 S
C436 C435 1.523 . S
H437 C412 0.966 . S
H438 C414 0.950 1_556 S
H439 C415 0.949 . S
H440 C417 0.950 1_554 S
H441 C419 0.950 . S
C442 C443 1.349 . S
C442 C444 1.327 . S
C442 H467 0.950 . S
C443 C442 1.349 . S
C443 C459 1.349 . S
C444 C442 1.327 . S
C444 C463 1.429 . S
C444 H468 0.950 . S
C445 C462 1.574 . S
C445 C464 1.368 . S
C445 H469 0.949 . S
H446 C450 0.949 . S
C447 C448 1.349 . S
C447 C449 1.327 . S
C447 H470 0.950 . S
C448 C447 1.349 . S
C448 C460 1.349 . S
C449 C447 1.327 . S
C449 C465 1.429 . S
C449 H471 0.950 . S
C450 H446 0.949 . S
C450 C458 1.574 1_554 S
C450 C466 1.368 . S
H451 C459 0.950 . S
H452 C457 0.950 . S
H453 C458 0.949 . S
H454 C460 0.950 . S
H455 C461 0.950 . S
H456 C462 0.952 . S
C457 H452 0.950 . S
C457 C459 1.327 . S
C457 C463 1.429 . S
C458 C450 1.574 1_556 S
C458 H453 0.949 . S
C458 C464 1.368 . S
C459 C443 1.349 . S
C459 H451 0.950 . S
C459 C457 1.327 . S
C460 C448 1.349 . S
C460 H454 0.950 . S
C460 C461 1.327 . S
C461 H455 0.950 . S
C461 C460 1.327 . S
C461 C465 1.429 . S
C462 C445 1.574 . S
C462 H456 0.952 . S
C462 C466 1.368 1_556 S
C463 C444 1.429 . S
C463 C457 1.429 . S
C463 C464 1.523 . S
C464 C445 1.368 . S
C464 C458 1.368 . S
C464 C463 1.523 . S
C465 C449 1.429 . S
C465 C461 1.429 . S
C465 C466 1.523 . S
C466 C450 1.368 . S
C466 C462 1.368 1_554 S
C466 C465 1.523 . S
H467 C442 0.950 . S
H468 C444 0.950 . S
H469 C445 0.949 . S
H470 C447 0.950 . S
H471 C449 0.950 . S
C472 C473 1.349 . S
C472 C474 1.327 . S
C472 H497 0.950 . S
C473 C472 1.349 . S
C473 C489 1.349 . S
C474 C472 1.327 . S
C474 C493 1.429 . S
C474 H498 0.950 . S
C475 C492 1.574 . S
C475 C494 1.368 . S
C475 H499 0.949 . S
H476 C480 0.949 . S
C477 C478 1.349 . S
C477 C479 1.327 . S
C477 H500 0.950 . S
C478 C477 1.349 . S
C478 C490 1.349 . S
C479 C477 1.327 . S
C479 C495 1.429 . S
C479 H501 0.950 . S
C480 H476 0.949 . S
C480 C488 1.574 . S
C480 C496 1.368 . S
H481 C489 0.950 . S
H482 C487 0.950 . S
H483 C488 0.949 . S
H484 C490 0.950 . S
H485 C491 0.950 . S
H486 C492 0.949 . S
C487 H482 0.950 . S
C487 C489 1.327 . S
C487 C493 1.429 . S
C488 C480 1.574 . S
C488 H483 0.949 . S
C488 C494 1.368 1_455 S
C489 C473 1.349 . S
C489 H481 0.950 . S
C489 C487 1.327 . S
C490 C478 1.349 . S
C490 H484 0.950 . S
C490 C491 1.327 . S
C491 H485 0.950 . S
C491 C490 1.327 . S
C491 C495 1.429 . S
C492 C475 1.574 . S
C492 H486 0.949 . S
C492 C496 1.368 1_655 S
C493 C474 1.429 . S
C493 C487 1.429 . S
C493 C494 1.523 . S
C494 C475 1.368 . S
C494 C488 1.368 1_655 S
C494 C493 1.523 . S
C495 C479 1.429 . S
C495 C491 1.429 . S
C495 C496 1.523 . S
C496 C480 1.368 . S
C496 C492 1.368 1_455 S
C496 C495 1.523 . S
H497 C472 0.950 . S
H498 C474 0.950 . S
H499 C475 0.949 . S
H500 C477 0.950 . S
H501 C479 0.950 . S
C502 C503 1.349 . S
C502 C504 1.327 . S
C502 H527 0.950 . S
C503 C502 1.349 . S
C503 C519 1.349 . S
C504 C502 1.327 . S
C504 C523 1.429 . S
C504 H528 0.950 . S
C505 C522 1.574 . S
C505 C524 1.368 1_565 S
C505 H529 0.949 . S
H506 C510 0.949 . S
C507 C508 1.349 . S
C507 C509 1.327 . S
C507 H530 0.950 . S
C508 C507 1.349 . S
C508 C520 1.349 . S
C509 C507 1.327 . S
C509 C525 1.429 . S
C509 H531 0.950 . S
C510 H506 0.949 . S
C510 C518 1.574 . S
C510 C526 1.368 1_545 S
H511 C519 0.950 . S
H512 C517 0.950 . S
H513 C518 0.949 . S
H514 C520 0.950 . S
H515 C521 0.950 . S
H516 C522 0.949 . S
C517 H512 0.950 . S
C517 C519 1.327 . S
C517 C523 1.429 . S
C518 C510 1.574 . S
C518 H513 0.949 . S
C518 C524 1.368 . S
C519 C503 1.349 . S
C519 H511 0.950 . S
C519 C517 1.327 . S
C520 C508 1.349 . S
C520 H514 0.950 . S
C520 C521 1.327 . S
C521 H515 0.950 . S
C521 C520 1.327 . S
C521 C525 1.429 . S
C522 C505 1.574 . S
C522 H516 0.949 . S
C522 C526 1.368 . S
C523 C504 1.429 . S
C523 C517 1.429 . S
C523 C524 1.523 . S
C524 C505 1.368 1_545 S
C524 C518 1.368 . S
C524 C523 1.523 . S
C525 C509 1.429 . S
C525 C521 1.429 . S
C525 C526 1.523 . S
C526 C510 1.368 1_565 S
C526 C522 1.368 . S
C526 C525 1.523 . S
H527 C502 0.950 . S
H528 C504 0.950 . S
H529 C505 0.949 . S
H530 C507 0.950 . S
H531 C509 0.950 . S
C532 C533 1.349 . S
C532 C534 1.327 . S
C532 H557 0.950 . S
C533 C532 1.349 . S
C533 C549 1.349 . S
C534 C532 1.327 . S
C534 C553 1.429 . S
C534 H558 0.950 . S
C535 C552 1.574 1_545 S
C535 C554 1.368 . S
C535 H559 0.949 . S
H536 C540 0.949 . S
C537 C538 1.349 . S
C537 C539 1.327 . S
C537 H560 0.950 . S
C538 C537 1.349 . S
C538 C550 1.349 . S
C539 C537 1.327 . S
C539 C555 1.429 . S
C539 H561 0.950 . S
C540 H536 0.949 . S
C540 C548 1.574 1_565 S
C540 C556 1.368 . S
H541 C549 0.950 . S
H542 C547 0.950 . S
H543 C548 0.949 . S
H544 C550 0.950 . S
H545 C551 0.950 . S
H546 C552 0.949 . S
C547 H542 0.950 . S
C547 C549 1.327 . S
C547 C553 1.429 . S
C548 C540 1.574 1_545 S
C548 H543 0.949 . S
C548 C554 1.368 . S
C549 C533 1.349 . S
C549 H541 0.950 . S
C549 C547 1.327 . S
C550 C538 1.349 . S
C550 H544 0.950 . S
C550 C551 1.327 . S
C551 H545 0.950 . S
C551 C550 1.327 . S
C551 C555 1.429 . S
C552 C535 1.574 1_565 S
C552 H546 0.949 . S
C552 C556 1.368 . S
C553 C534 1.429 . S
C553 C547 1.429 . S
C553 C554 1.523 . S
C554 C535 1.368 . S
C554 C548 1.368 . S
C554 C553 1.523 . S
C555 C539 1.429 . S
C555 C551 1.429 . S
C555 C556 1.523 . S
C556 C540 1.368 . S
C556 C552 1.368 . S
C556 C555 1.523 . S
H557 C532 0.950 . S
H558 C534 0.950 . S
H559 C535 0.949 . S
H560 C537 0.950 . S
H561 C539 0.950 . S
C562 C563 1.349 . S
C562 C564 1.327 . S
C562 H587 0.950 . S
C563 C562 1.349 . S
C563 C579 1.349 . S
C564 C562 1.327 . S
C564 C583 1.429 . S
C564 H588 0.950 . S
C565 C582 1.574 1_455 S
C565 C584 1.368 . S
C565 H589 0.949 . S
H566 C570 0.949 . S
C567 C568 1.349 . S
C567 C569 1.327 . S
C567 H590 0.950 . S
C568 C567 1.349 . S
C568 C580 1.349 . S
C569 C567 1.327 . S
C569 C585 1.429 . S
C569 H591 0.950 . S
C570 H566 0.949 . S
C570 C578 1.574 1_655 S
C570 C586 1.368 . S
H571 C579 0.950 . S
H572 C577 0.950 . S
H573 C578 0.949 . S
H574 C580 0.950 . S
H575 C581 0.950 . S
H576 C582 0.949 . S
C577 H572 0.950 . S
C577 C579 1.327 . S
C577 C583 1.429 . S
C578 C570 1.574 1_455 S
C578 H573 0.949 . S
C578 C584 1.368 . S
C579 C563 1.349 . S
C579 H571 0.950 . S
C579 C577 1.327 . S
C580 C568 1.349 . S
C580 H574 0.950 . S
C580 C581 1.327 . S
C581 H575 0.950 . S
C581 C580 1.327 . S
C581 C585 1.429 . S
C582 C565 1.574 1_655 S
C582 H576 0.949 . S
C582 C586 1.368 . S
C583 C564 1.429 . S
C583 C577 1.429 . S
C583 C584 1.523 . S
C584 C565 1.368 . S
C584 C578 1.368 . S
C584 C583 1.523 . S
C585 C569 1.429 . S
C585 C581 1.429 . S
C585 C586 1.523 . S
C586 C570 1.368 . S
C586 C582 1.368 . S
C586 C585 1.523 . S
H587 C562 0.950 . S
H588 C564 0.950 . S
H589 C565 0.949 . S
H590 C567 0.950 . S
H591 C569 0.950 . S
C113 C105 1.579 . S
C118 C7 1.579 . S
C143 C21 1.579 . S
C148 C63 1.579 . S
C173 C35 1.579 . S
C178 C77 1.579 . S
C203 C91 1.579 . S
C208 C49 1.579 . S
C233 C22 1.457 . S
C238 C6 1.449 . S
C263 C20 1.449 . S
C268 C36 1.457 . S
C293 C50 1.457 . S
C298 C34 1.449 . S
C323 C48 1.449 . S
C328 C8 1.457 . S
C353 C106 1.457 . S
C358 C62 1.449 . S
C383 C76 1.449 . S
C388 C64 1.457 . S
C413 C78 1.457 . S
C418 C90 1.449 . S
C443 C92 1.457 . S
C448 C104 1.449 . S
C473 C37 1.196 . S
C478 C9 1.196 . S
C503 C51 1.196 . S
C508 C23 1.196 . S
C533 C93 1.196 . S
C538 C65 1.196 . S
C563 C107 1.196 . S
C568 C79 1.196 . S
