# Generated by pormake.
# Topology tzs, (4)-cn, num edge types: 1
# Building blocks:
#     Node 0, Type 0, BuildingBlock: TATPOV_clean_sbu_0, # of connection points: 4
#     Node 1, Type 0, BuildingBlock: TATPOV_clean_sbu_0, # of connection points: 4
#     Node 2, Type 0, BuildingBlock: TATPOV_clean_sbu_0, # of connection points: 4
#     Node 3, Type 0, BuildingBlock: TATPOV_clean_sbu_0, # of connection points: 4
#     Node 4, Type 0, BuildingBlock: TATPOV_clean_sbu_0, # of connection points: 4
#     Node 5, Type 0, BuildingBlock: TATPOV_clean_sbu_0, # of connection points: 4
#     Node 6, Type 0, BuildingBlock: TATPOV_clean_sbu_0, # of connection points: 4
#     Node 7, Type 0, BuildingBlock: TATPOV_clean_sbu_0, # of connection points: 4
#     Node 8, Type 0, BuildingBlock: TATPOV_clean_sbu_0, # of connection points: 4
#     Node 9, Type 0, BuildingBlock: TATPOV_clean_sbu_0, # of connection points: 4
#     Node 10, Type 0, BuildingBlock: TATPOV_clean_sbu_0, # of connection points: 4
#     Node 11, Type 0, BuildingBlock: TATPOV_clean_sbu_0, # of connection points: 4
#     Node 12, Type 0, BuildingBlock: TATPOV_clean_sbu_0, # of connection points: 4
#     Node 13, Type 0, BuildingBlock: TATPOV_clean_sbu_0, # of connection points: 4
#     Node 14, Type 0, BuildingBlock: TATPOV_clean_sbu_0, # of connection points: 4
#     Node 15, Type 0, BuildingBlock: TATPOV_clean_sbu_0, # of connection points: 4
#     Edge 16, Type (0, 0), BuildingBlock: OJICUG_clean_linker_0, # of connection points: 2
#     Edge 17, Type (0, 0), BuildingBlock: OJICUG_clean_linker_0, # of connection points: 2
#     Edge 18, Type (0, 0), BuildingBlock: OJICUG_clean_linker_0, # of connection points: 2
#     Edge 19, Type (0, 0), BuildingBlock: OJICUG_clean_linker_0, # of connection points: 2
#     Edge 20, Type (0, 0), BuildingBlock: OJICUG_clean_linker_0, # of connection points: 2
#     Edge 21, Type (0, 0), BuildingBlock: OJICUG_clean_linker_0, # of connection points: 2
#     Edge 22, Type (0, 0), BuildingBlock: OJICUG_clean_linker_0, # of connection points: 2
#     Edge 23, Type (0, 0), BuildingBlock: OJICUG_clean_linker_0, # of connection points: 2
#     Edge 24, Type (0, 0), BuildingBlock: OJICUG_clean_linker_0, # of connection points: 2
#     Edge 25, Type (0, 0), BuildingBlock: OJICUG_clean_linker_0, # of connection points: 2
#     Edge 26, Type (0, 0), BuildingBlock: OJICUG_clean_linker_0, # of connection points: 2
#     Edge 27, Type (0, 0), BuildingBlock: OJICUG_clean_linker_0, # of connection points: 2
#     Edge 28, Type (0, 0), BuildingBlock: OJICUG_clean_linker_0, # of connection points: 2
#     Edge 29, Type (0, 0), BuildingBlock: OJICUG_clean_linker_0, # of connection points: 2
#     Edge 30, Type (0, 0), BuildingBlock: OJICUG_clean_linker_0, # of connection points: 2
#     Edge 31, Type (0, 0), BuildingBlock: OJICUG_clean_linker_0, # of connection points: 2
#     Edge 32, Type (0, 0), BuildingBlock: OJICUG_clean_linker_0, # of connection points: 2
#     Edge 33, Type (0, 0), BuildingBlock: OJICUG_clean_linker_0, # of connection points: 2
#     Edge 34, Type (0, 0), BuildingBlock: OJICUG_clean_linker_0, # of connection points: 2
#     Edge 35, Type (0, 0), BuildingBlock: OJICUG_clean_linker_0, # of connection points: 2
#     Edge 36, Type (0, 0), BuildingBlock: OJICUG_clean_linker_0, # of connection points: 2
#     Edge 37, Type (0, 0), BuildingBlock: OJICUG_clean_linker_0, # of connection points: 2
#     Edge 38, Type (0, 0), BuildingBlock: OJICUG_clean_linker_0, # of connection points: 2
#     Edge 39, Type (0, 0), BuildingBlock: OJICUG_clean_linker_0, # of connection points: 2
#     Edge 40, Type (0, 0), BuildingBlock: OJICUG_clean_linker_0, # of connection points: 2
#     Edge 41, Type (0, 0), BuildingBlock: OJICUG_clean_linker_0, # of connection points: 2
#     Edge 42, Type (0, 0), BuildingBlock: OJICUG_clean_linker_0, # of connection points: 2
#     Edge 43, Type (0, 0), BuildingBlock: OJICUG_clean_linker_0, # of connection points: 2
#     Edge 44, Type (0, 0), BuildingBlock: OJICUG_clean_linker_0, # of connection points: 2
#     Edge 45, Type (0, 0), BuildingBlock: OJICUG_clean_linker_0, # of connection points: 2
#     Edge 46, Type (0, 0), BuildingBlock: OJICUG_clean_linker_0, # of connection points: 2
#     Edge 47, Type (0, 0), BuildingBlock: OJICUG_clean_linker_0, # of connection points: 2
# Relax obj value: 0.050
# Max RMSD: 0.079
# Mean RMSD: 0.079
data_MOF--net-tzs--node1-TATPOV_clean_sbu_0--edge1-OJICUG_clean_linker_0
_symmetry_space_group_name_H-M    P1
_symmetry_Int_Tables_number       1
_symmetry_cell_setting            triclinic
loop_
_symmetry_equiv_pos_as_xyz
'x, y, z'
_cell_length_a     34.526083
_cell_length_b     34.206628
_cell_length_c     32.07307
_cell_angle_alpha  90.431258
_cell_angle_beta   90.204408
_cell_angle_gamma 87.22287
loop_
_atom_site_label
_atom_site_type_symbol
_atom_site_fract_x
_atom_site_fract_y
_atom_site_fract_z
_atom_type_partial_charge
Zn0 Zn 0.11504 0.45538 0.12232 0.0
Zn1 Zn 0.14083 0.38681 0.13491 0.0
O2 O 0.08587 0.38574 0.16208 0.0
O3 O 0.06969 0.44865 0.16003 0.0
O4 O 0.1663 0.33364 0.14646 0.0
O5 O 0.11075 0.44882 0.06176 0.0
O6 O 0.14272 0.39227 0.06997 0.0
C7 C 0.06255 0.4145 0.17173 0.0
C8 C 0.1838 0.45845 0.1656 0.0
O9 O 0.17747 0.42215 0.16794 0.0
O10 O 0.16198 0.48042 0.1433 0.0
C11 C 0.17073 0.32441 0.18457 0.0
O12 O 0.15608 0.3483 0.21335 0.0
C13 C 0.12833 0.41901 0.04613 0.0
Zn14 Zn 0.58756 0.11075 0.11479 0.0
Zn15 Zn 0.63209 0.15834 0.15828 0.0
O16 O 0.65116 0.10475 0.17974 0.0
O17 O 0.61771 0.06466 0.1413 0.0
O18 O 0.66473 0.19547 0.18963 0.0
O19 O 0.60523 0.13343 0.06149 0.0
O20 O 0.64497 0.17004 0.09673 0.0
C21 C 0.64285 0.07015 0.16938 0.0
C22 C 0.54356 0.16084 0.1707 0.0
O23 O 0.57702 0.17269 0.17976 0.0
O24 O 0.53984 0.13473 0.14299 0.0
C25 C 0.70071 0.19731 0.18217 0.0
O26 O 0.7168 0.17407 0.15366 0.0
C27 C 0.63108 0.15834 0.06228 0.0
Zn28 Zn 0.88905 0.56335 0.13486 0.0
Zn29 Zn 0.85759 0.62968 0.1474 0.0
O30 O 0.90779 0.63107 0.18381 0.0
O31 O 0.92513 0.56837 0.18376 0.0
O32 O 0.82824 0.6809 0.15975 0.0
O33 O 0.90627 0.57703 0.07844 0.0
O34 O 0.86728 0.6296 0.08343 0.0
C35 C 0.92975 0.60272 0.19716 0.0
C36 C 0.81379 0.55429 0.15928 0.0
O37 O 0.81802 0.59031 0.16766 0.0
O38 O 0.84018 0.53511 0.13971 0.0
C39 C 0.81743 0.68681 0.19724 0.0
O40 O 0.82798 0.66083 0.22559 0.0
C41 C 0.88966 0.6067 0.06177 0.0
Zn42 Zn 0.39166 0.90595 0.10885 0.0
Zn43 Zn 0.34912 0.8532 0.14571 0.0
O44 O 0.32905 0.90507 0.17317 0.0
O45 O 0.36295 0.94892 0.14146 0.0
O46 O 0.31896 0.81287 0.17438 0.0
O47 O 0.37084 0.88995 0.05381 0.0
O48 O 0.33672 0.84469 0.08305 0.0
C49 C 0.33741 0.94057 0.16775 0.0
C50 C 0.43776 0.85007 0.15601 0.0
O51 O 0.40452 0.83765 0.16436 0.0
O52 O 0.44069 0.87886 0.13179 0.0
C53 C 0.28274 0.80937 0.16978 0.0
O54 O 0.26309 0.83322 0.14469 0.0
C55 C 0.34777 0.86248 0.05078 0.0
Zn56 Zn 0.13338 0.58541 0.34707 0.0
Zn57 Zn 0.15189 0.64403 0.29651 0.0
O58 O 0.09461 0.64003 0.2809 0.0
O59 O 0.07892 0.59157 0.32142 0.0
O60 O 0.17169 0.68565 0.25962 0.0
O61 O 0.15056 0.61721 0.39588 0.0
O62 O 0.16152 0.66668 0.35467 0.0
C63 C 0.06966 0.61666 0.29369 0.0
C64 C 0.19101 0.5601 0.2902 0.0
O65 O 0.1852 0.5954 0.2783 0.0
O66 O 0.17248 0.5478 0.32099 0.0
C67 C 0.20773 0.69085 0.26329 0.0
O68 O 0.22818 0.66918 0.28984 0.0
C69 C 0.16121 0.6517 0.39079 0.0
Zn70 Zn 0.377 0.10709 0.33322 0.0
Zn71 Zn 0.32745 0.15663 0.29612 0.0
O72 O 0.31268 0.10248 0.27329 0.0
O73 O 0.35242 0.06107 0.30652 0.0
O74 O 0.28653 0.19443 0.27279 0.0
O75 O 0.36169 0.12468 0.39008 0.0
O76 O 0.32365 0.16963 0.35976 0.0
C77 C 0.32536 0.0675 0.28039 0.0
C78 C 0.41299 0.15996 0.27638 0.0
O79 O 0.37816 0.17189 0.26883 0.0
O80 O 0.42014 0.13375 0.30343 0.0
C81 C 0.27807 0.19813 0.23437 0.0
O82 O 0.29681 0.17598 0.20672 0.0
C83 C 0.33816 0.154 0.39259 0.0
Zn84 Zn 0.86033 0.43273 0.32371 0.0
Zn85 Zn 0.84343 0.36908 0.28265 0.0
O86 O 0.89854 0.37408 0.25987 0.0
O87 O 0.91185 0.42882 0.29234 0.0
O88 O 0.82187 0.32254 0.25398 0.0
O89 O 0.85325 0.40763 0.37846 0.0
O90 O 0.84208 0.35308 0.34455 0.0
C91 C 0.9216 0.40136 0.26706 0.0
C92 C 0.79746 0.44924 0.27163 0.0
O93 O 0.80602 0.41377 0.26139 0.0
O94 O 0.8158 0.46494 0.30097 0.0
C95 C 0.78747 0.31575 0.26475 0.0
O96 O 0.77032 0.33843 0.2931 0.0
C97 C 0.8454 0.37198 0.37859 0.0
Zn98 Zn 0.59328 0.9004 0.32072 0.0
Zn99 Zn 0.64828 0.85226 0.29436 0.0
O100 O 0.66354 0.90454 0.26885 0.0
O101 O 0.62037 0.94599 0.29732 0.0
O102 O 0.69142 0.81362 0.27723 0.0
O103 O 0.59949 0.886 0.37945 0.0
O104 O 0.64953 0.84806 0.35983 0.0
C105 C 0.6496 0.93938 0.27417 0.0
C106 C 0.56463 0.84469 0.26404 0.0
O107 O 0.60015 0.83262 0.26303 0.0
O108 O 0.55395 0.87346 0.28686 0.0
C109 C 0.70409 0.81071 0.2401 0.0
O110 O 0.6888 0.83386 0.2113 0.0
C111 C 0.62745 0.86243 0.38853 0.0
Zn112 Zn 0.95762 0.61505 0.81137 0.0
Zn113 Zn 0.88824 0.64318 0.79622 0.0
O114 O 0.88978 0.5916 0.76125 0.0
O115 O 0.95183 0.57419 0.76633 0.0
O116 O 0.83687 0.67028 0.78268 0.0
O117 O 0.94382 0.6047 0.87013 0.0
O118 O 0.88768 0.63653 0.86026 0.0
C119 C 0.91864 0.56886 0.75098 0.0
C120 C 0.96044 0.69084 0.78086 0.0
O121 O 0.92472 0.68472 0.77526 0.0
O122 O 0.98203 0.66545 0.79918 0.0
C123 C 0.83203 0.6815 0.74525 0.0
O124 O 0.85875 0.67156 0.71754 0.0
C125 C 0.91225 0.61932 0.88453 0.0
Zn126 Zn 0.4054 0.91696 0.83543 0.0
Zn127 Zn 0.37596 0.86209 0.78883 0.0
O128 O 0.434 0.85055 0.77819 0.0
O129 O 0.45861 0.89586 0.81799 0.0
O130 O 0.34875 0.82172 0.75513 0.0
O131 O 0.37993 0.89913 0.88654 0.0
O132 O 0.35671 0.8513 0.8491 0.0
C133 C 0.46333 0.86768 0.79233 0.0
C134 C 0.36098 0.95004 0.76956 0.0
O135 O 0.35795 0.91402 0.76014 0.0
O136 O 0.37893 0.9596 0.80221 0.0
C137 C 0.31272 0.81952 0.76215 0.0
O138 O 0.29617 0.84335 0.78983 0.0
C139 C 0.36013 0.86916 0.8838 0.0
Zn140 Zn 0.07628 0.41618 0.79795 0.0
Zn141 Zn 0.14233 0.388 0.7784 0.0
O142 O 0.1385 0.44155 0.74725 0.0
O143 O 0.07612 0.45665 0.75295 0.0
O144 O 0.19356 0.36337 0.75937 0.0
O145 O 0.09432 0.42948 0.85471 0.0
O146 O 0.14668 0.39182 0.84288 0.0
C147 C 0.10889 0.46365 0.73797 0.0
C148 C 0.06918 0.34109 0.76717 0.0
O149 O 0.10407 0.34735 0.75733 0.0
O150 O 0.05028 0.36585 0.78949 0.0
C151 C 0.20216 0.32802 0.76904 0.0
O152 O 0.17848 0.30961 0.79321 0.0
C153 C 0.1251 0.41217 0.86782 0.0
Zn154 Zn 0.62629 0.10691 0.83041 0.0
Zn155 Zn 0.6721 0.15926 0.7991 0.0
O156 O 0.62039 0.17487 0.76967 0.0
O157 O 0.58178 0.13317 0.79827 0.0
O158 O 0.7107 0.19768 0.78025 0.0
O159 O 0.63575 0.12412 0.88846 0.0
O160 O 0.67232 0.16932 0.86314 0.0
C161 C 0.58683 0.16144 0.7739 0.0
C162 C 0.68742 0.07088 0.78197 0.0
O163 O 0.69539 0.10645 0.77621 0.0
O164 O 0.65941 0.06284 0.80523 0.0
C165 C 0.7077 0.2188 0.74788 0.0
O166 O 0.6772 0.21633 0.72358 0.0
C167 C 0.65688 0.15282 0.89398 0.0
Zn168 Zn 0.94525 0.3668 0.59597 0.0
Zn169 Zn 0.88332 0.34739 0.6374 0.0
O170 O 0.88506 0.4047 0.65694 0.0
O171 O 0.93781 0.42056 0.62391 0.0
O172 O 0.83611 0.32614 0.66402 0.0
O173 O 0.92246 0.35385 0.54099 0.0
O174 O 0.86977 0.3401 0.57527 0.0
C175 C 0.91024 0.4296 0.64879 0.0
C176 C 0.96505 0.30829 0.65374 0.0
O177 O 0.92926 0.31427 0.66273 0.0
O178 O 0.97918 0.3259 0.62327 0.0
C179 C 0.83573 0.31153 0.7003 0.0
O180 O 0.8671 0.31205 0.72356 0.0
C181 C 0.88817 0.34261 0.54117 0.0
Zn182 Zn 0.6336 0.9181 0.63357 0.0
Zn183 Zn 0.67611 0.86056 0.65303 0.0
O184 O 0.62603 0.8472 0.68374 0.0
O185 O 0.59809 0.90632 0.681 0.0
O186 O 0.71394 0.81632 0.66811 0.0
O187 O 0.62291 0.89697 0.57712 0.0
O188 O 0.67249 0.85563 0.58822 0.0
C189 C 0.59925 0.87184 0.69505 0.0
C190 C 0.69729 0.94613 0.67055 0.0
O191 O 0.69963 0.90989 0.68 0.0
O192 O 0.67371 0.95772 0.64253 0.0
C193 C 0.71501 0.80166 0.70442 0.0
O194 O 0.6913 0.81623 0.73315 0.0
C195 C 0.6467 0.8706 0.56382 0.0
Zn196 Zn 0.07624 0.67543 0.60158 0.0
Zn197 Zn 0.13842 0.69259 0.64466 0.0
O198 O 0.13778 0.63452 0.65983 0.0
O199 O 0.08457 0.62038 0.62593 0.0
O200 O 0.18108 0.71508 0.67851 0.0
O201 O 0.10077 0.69107 0.54879 0.0
O202 O 0.15437 0.70145 0.58369 0.0
C203 C 0.11264 0.61001 0.64975 0.0
C204 C 0.05518 0.72997 0.66176 0.0
O205 O 0.09106 0.72323 0.6699 0.0
O206 O 0.0405 0.71425 0.63004 0.0
C207 C 0.21633 0.71718 0.66789 0.0
O208 O 0.22822 0.70148 0.63239 0.0
C209 C 0.13561 0.70077 0.54948 0.0
Zn210 Zn 0.41624 0.12322 0.60997 0.0
Zn211 Zn 0.36717 0.1692 0.65509 0.0
O212 O 0.42145 0.18288 0.67697 0.0
O213 O 0.46194 0.14665 0.63823 0.0
O214 O 0.32998 0.20375 0.68882 0.0
O215 O 0.39491 0.14655 0.55745 0.0
O216 O 0.35143 0.18157 0.59379 0.0
C217 C 0.45601 0.17151 0.66722 0.0
C218 C 0.36604 0.08024 0.66282 0.0
O219 O 0.35404 0.11454 0.67387 0.0
O220 O 0.39196 0.0757 0.63507 0.0
C221 C 0.32691 0.24072 0.68496 0.0
O222 O 0.34926 0.25777 0.65822 0.0
C223 C 0.366 0.17063 0.55892 0.0
C224 C 0.22785 0.25108 0.25119 0.0
C225 C 0.24852 0.22845 0.22116 0.0
H226 H 0.18693 0.29864 0.26321 0.0
C227 C 0.24146 0.236 0.17869 0.0
H228 H 0.23233 0.24591 0.28417 0.0
C229 C 0.21525 0.26639 0.16661 0.0
C230 C 0.19555 0.28979 0.19676 0.0
H231 H 0.25678 0.21901 0.15476 0.0
H232 H 0.21116 0.27212 0.13368 0.0
C233 C 0.20169 0.28133 0.23914 0.0
C234 C 0.7836 0.26019 0.21357 0.0
C235 C 0.76618 0.28417 0.24469 0.0
H236 H 0.7766 0.21375 0.16941 0.0
C237 C 0.72758 0.27845 0.25593 0.0
H238 H 0.81333 0.26384 0.20428 0.0
C239 C 0.70658 0.24991 0.23597 0.0
C240 C 0.72371 0.22634 0.20436 0.0
H241 H 0.7133 0.29634 0.27986 0.0
H242 H 0.67675 0.24661 0.24513 0.0
C243 C 0.76256 0.23149 0.19362 0.0
C244 C 0.77547 0.74599 0.17765 0.0
C245 C 0.79056 0.72034 0.20837 0.0
H246 H 0.73633 0.79465 0.16351 0.0
C247 C 0.77817 0.72576 0.2498 0.0
H248 H 0.7844 0.74262 0.14543 0.0
C249 C 0.75062 0.75548 0.26014 0.0
C250 C 0.73476 0.78053 0.2293 0.0
H251 H 0.78924 0.70662 0.27428 0.0
H252 H 0.74136 0.75841 0.29229 0.0
C253 C 0.74785 0.77577 0.18801 0.0
C254 C 0.28466 0.75418 0.22038 0.0
C255 C 0.26319 0.77885 0.19307 0.0
H256 H 0.28404 0.70723 0.26379 0.0
C257 C 0.22317 0.77413 0.18861 0.0
H258 H 0.31556 0.75698 0.22456 0.0
C259 C 0.205 0.74541 0.21123 0.0
C260 C 0.22655 0.72094 0.23871 0.0
H261 H 0.20584 0.79266 0.16779 0.0
H262 H 0.1741 0.74251 0.2073 0.0
C263 C 0.26656 0.7256 0.24293 0.0
C264 C 0.76851 0.75352 0.68357 0.0
C265 C 0.74323 0.76909 0.71437 0.0
H266 H 0.816 0.71337 0.66904 0.0
C267 C 0.7457 0.75371 0.75487 0.0
H268 H 0.76722 0.7645 0.65198 0.0
C269 C 0.77367 0.72424 0.76466 0.0
C270 C 0.79973 0.70955 0.73413 0.0
H271 H 0.7265 0.76491 0.77927 0.0
H272 H 0.77544 0.71367 0.79639 0.0
C273 C 0.79643 0.72408 0.69333 0.0
C274 C 0.28115 0.74516 0.68203 0.0
C275 C 0.24234 0.74081 0.69353 0.0
H276 H 0.33407 0.77342 0.69482 0.0
C277 C 0.22768 0.76114 0.72879 0.0
H278 H 0.29332 0.72986 0.65507 0.0
C279 C 0.25081 0.78618 0.75123 0.0
C280 C 0.28928 0.79134 0.73921 0.0
H281 H 0.19796 0.75844 0.73864 0.0
H282 H 0.2383 0.80182 0.77782 0.0
C283 C 0.30447 0.77012 0.70477 0.0
C284 C 0.2435 0.26665 0.75817 0.0
C285 C 0.23616 0.30666 0.75012 0.0
H286 H 0.27781 0.21455 0.74407 0.0
C287 C 0.26032 0.32534 0.72209 0.0
H288 H 0.22554 0.25135 0.77966 0.0
C289 C 0.29041 0.30417 0.70163 0.0
C290 C 0.29691 0.26387 0.7087 0.0
H291 H 0.25552 0.35616 0.71524 0.0
H292 H 0.30801 0.31926 0.67961 0.0
C293 C 0.27348 0.2455 0.73768 0.0
C294 C 0.77187 0.24715 0.76314 0.0
C295 C 0.73924 0.2447 0.73703 0.0
H296 H 0.82774 0.27039 0.77226 0.0
C297 C 0.73762 0.26637 0.69998 0.0
H298 H 0.77397 0.231 0.79205 0.0
C299 C 0.76848 0.28901 0.68866 0.0
C300 C 0.80162 0.29052 0.71418 0.0
H301 H 0.71284 0.26531 0.67927 0.0
H302 H 0.76665 0.30471 0.65946 0.0
C303 C 0.80269 0.26984 0.75186 0.0
C304 C 0.14726 0.38195 0.93551 0.0
C305 C 0.13353 0.41471 0.91264 0.0
H306 H 0.15597 0.35717 -0.00348 0.0
C307 C 0.12177 0.44917 0.9338 0.0
H308 H 0.15618 0.35494 0.91968 0.0
C309 C 0.12139 0.45041 -0.02302 0.0
C310 C 0.13258 0.41709 0.00033 0.0
H311 H 0.11135 0.47491 0.91684 0.0
H312 H 0.11116 0.47743 -0.00801 0.0
C313 C 0.14673 0.38312 -0.0207 0.0
C314 C 0.68737 0.15216 0.96389 0.0
C315 C 0.65957 0.16856 0.93632 0.0
H316 H 0.70037 0.13745 0.02752 0.0
C317 C 0.62724 0.19007 0.95216 0.0
H318 H 0.71199 0.13466 0.9521 0.0
C319 C 0.62034 0.19119 -0.00503 0.0
C320 C 0.64597 0.17121 0.02229 0.0
H321 H 0.60511 0.20218 0.93125 0.0
H322 H 0.59308 0.20421 0.00627 0.0
C323 C 0.6807 0.15374 0.0069 0.0
C324 C 0.87437 0.63809 0.94936 0.0
C325 C 0.90546 0.61713 0.92985 0.0
H326 H 0.84511 0.65186 0.00711 0.0
C327 C 0.93164 0.59453 0.95436 0.0
H328 H 0.85393 0.65602 0.93126 0.0
C329 C 0.92679 0.59235 -0.00284 0.0
C330 C 0.89559 0.61275 0.01683 0.0
H331 H 0.95605 0.57813 0.94052 0.0
H332 H 0.94748 0.57429 0.01482 0.0
C333 C 0.86957 0.63602 -0.0073 0.0
C334 C 0.35682 0.82222 -0.01285 0.0
C335 C 0.33533 0.85171 0.00878 0.0
H336 H 0.38088 0.80413 0.92807 0.0
C337 C 0.31298 0.87967 -0.01366 0.0
H338 H 0.3749 0.80091 0.00406 0.0
C339 C 0.31653 0.88162 0.94314 0.0
C340 C 0.34234 0.85554 0.92207 0.0
H341 H 0.29677 0.90304 0.00255 0.0
H342 H 0.30283 0.90636 0.92697 0.0
C343 C 0.36029 0.8241 0.94373 0.0
C344 C 0.18486 0.6734 0.50122 0.0
C345 C 0.15553 0.70216 0.50944 0.0
H346 H 0.20946 0.63391 0.45528 0.0
C347 C 0.13678 0.7217 0.47613 0.0
H348 H 0.19935 0.65774 0.52655 0.0
C349 C 0.14329 0.70873 0.4353 0.0
C350 C 0.16773 0.67553 0.42794 0.0
H351 H 0.11385 0.7438 0.48203 0.0
H352 H 0.12541 0.72124 0.41047 0.0
C353 C 0.19044 0.6596 0.46056 0.0
C354 C 0.31621 0.15905 0.50568 0.0
C355 C 0.34717 0.18107 0.51927 0.0
H356 H 0.28846 0.13333 0.45291 0.0
C357 C 0.36765 0.20234 0.49018 0.0
H358 H 0.30072 0.14167 0.52762 0.0
C359 C 0.36012 0.19817 0.44759 0.0
C360 C 0.33257 0.17213 0.43377 0.0
H361 H 0.39219 0.21875 0.50002 0.0
H362 H 0.37904 0.2115 0.42548 0.0
C363 C 0.30919 0.15425 0.463 0.0
C364 C 0.87699 0.32513 0.42713 0.0
C365 C 0.84616 0.35205 0.41866 0.0
H366 H 0.91503 0.30108 0.47426 0.0
C367 C 0.82369 0.36799 0.45155 0.0
H368 H 0.89494 0.31303 0.40207 0.0
C369 C 0.83451 0.36036 0.49275 0.0
C370 C 0.86861 0.33784 0.50107 0.0
H371 H 0.80004 0.38918 0.44541 0.0
H372 H 0.81897 0.37576 0.51769 0.0
C373 C 0.88856 0.3185 0.46827 0.0
C374 C 0.67607 0.85269 0.49408 0.0
C375 C 0.64343 0.85824 0.51994 0.0
H376 H 0.6967 0.84939 0.43076 0.0
C377 C 0.60627 0.85758 0.50234 0.0
H378 H 0.70503 0.85314 0.50711 0.0
C379 C 0.60157 0.8552 0.45943 0.0
C380 C 0.63392 0.8537 0.43301 0.0
H381 H 0.58065 0.86118 0.52171 0.0
H382 H 0.5724 0.85708 0.44675 0.0
C383 C 0.67132 0.85048 0.45056 0.0
C384 C 0.20929 0.49109 0.27062 0.0
C385 C 0.21085 0.53128 0.26204 0.0
H386 H 0.20067 0.43443 0.24469 0.0
C387 C 0.22055 0.54271 0.22157 0.0
H388 H 0.20331 0.48115 0.30183 0.0
C389 C 0.21919 0.51578 0.18882 0.0
C390 C 0.20828 0.47748 0.19657 0.0
H391 H 0.22342 0.57328 0.21416 0.0
H392 H 0.22072 0.52643 0.15716 0.0
C393 C 0.20808 0.46411 0.2378 0.0
C394 C 0.51452 0.17529 0.24031 0.0
C395 C 0.50982 0.17213 0.19693 0.0
H396 H 0.48688 0.17351 0.29997 0.0
C397 C 0.4722 0.1725 0.18005 0.0
H398 H 0.54323 0.17477 0.25412 0.0
C399 C 0.43991 0.17292 0.20628 0.0
C400 C 0.44496 0.17171 0.2497 0.0
H401 H 0.46788 0.17008 0.14667 0.0
H402 H 0.41138 0.17055 0.19258 0.0
C403 C 0.48235 0.17444 0.26653 0.0
C404 C 0.77999 0.49294 0.16961 0.0
C405 C 0.78514 0.53193 0.1818 0.0
H406 H 0.7779 0.43404 0.19053 0.0
C407 C 0.77499 0.54365 0.2225 0.0
H408 H 0.7861 0.48343 0.1379 0.0
C409 C 0.77031 0.51522 0.25283 0.0
C410 C 0.77598 0.47535 0.24222 0.0
H411 H 0.77732 0.57377 0.23251 0.0
H412 H 0.76905 0.52442 0.28522 0.0
C413 C 0.77519 0.46455 0.19991 0.0
C414 C 0.54165 0.83828 0.19147 0.0
C415 C 0.53632 0.83071 0.23393 0.0
H416 H 0.51384 0.85072 0.13288 0.0
C417 C 0.49958 0.82124 0.2481 0.0
H418 H 0.56968 0.84628 0.1801 0.0
C419 C 0.46778 0.82305 0.22104 0.0
C420 C 0.47218 0.83569 0.17981 0.0
H421 H 0.49485 0.81581 0.2809 0.0
H422 H 0.43926 0.81858 0.23361 0.0
C423 C 0.50965 0.84122 0.16463 0.0
C424 C 0.94629 0.52191 0.69797 0.0
C425 C 0.91424 0.53573 0.72162 0.0
H426 H 0.96981 0.4784 0.65596 0.0
C427 C 0.87949 0.51608 0.71871 0.0
H428 H 0.97341 0.53657 0.69931 0.0
C429 C 0.87756 0.48203 0.69418 0.0
C430 C 0.9101 0.46764 0.67144 0.0
H431 H 0.85437 0.52607 0.73668 0.0
H432 H 0.8509 0.46659 0.69365 0.0
C433 C 0.94414 0.48858 0.67291 0.0
C434 C 0.56624 0.88403 0.76211 0.0
C435 C 0.56984 0.86176 0.72542 0.0
H436 H 0.53025 0.90205 0.81323 0.0
C437 C 0.54113 0.83577 0.71487 0.0
H438 H 0.58818 0.90428 0.77065 0.0
C439 C 0.50734 0.83489 0.73888 0.0
C440 C 0.50217 0.85988 0.77373 0.0
H441 H 0.54339 0.81861 0.68638 0.0
H442 H 0.48424 0.81684 0.72839 0.0
C443 C 0.53297 0.88274 0.78637 0.0
C444 C 0.07936 0.51344 0.68957 0.0
C445 C 0.11213 0.49857 0.71143 0.0
H446 H 0.05412 0.55961 0.6525 0.0
C447 C 0.14637 0.51916 0.71024 0.0
H448 H 0.05259 0.49816 0.68973 0.0
C449 C 0.14709 0.55503 0.68932 0.0
C450 C 0.11383 0.57044 0.66853 0.0
H451 H 0.17199 0.50845 0.72697 0.0
H452 H 0.1734 0.57103 0.69013 0.0
C453 C 0.08031 0.54869 0.66809 0.0
C454 C 0.52669 0.18103 0.67782 0.0
C455 C 0.489 0.18092 0.69431 0.0
H456 H 0.58777 0.17637 0.69074 0.0
C457 C 0.48416 0.18169 0.73775 0.0
H458 H 0.53115 0.1803 0.64439 0.0
C459 C 0.51646 0.17825 0.7641 0.0
C460 C 0.55407 0.17531 0.74746 0.0
H461 H 0.45548 0.18123 0.7513 0.0
H462 H 0.51199 0.17557 0.79736 0.0
C463 C 0.55904 0.17885 0.70428 0.0
C464 C 0.71292 0.04586 0.71377 0.0
C465 C 0.70545 0.03915 0.75606 0.0
H466 H 0.71679 0.02054 0.65253 0.0
C467 C 0.70674 1.00047 0.77063 0.0
H468 H 0.71213 0.07539 0.70171 0.0
C469 C 0.71042 0.96903 0.74261 0.0
C470 C 0.71172 0.97593 0.69953 0.0
H471 H 0.70139 0.99456 0.8032 0.0
H472 H 0.70733 0.93972 0.75434 0.0
C473 C 0.71563 0.01442 0.68559 0.0
C474 C 0.96358 0.73389 0.71922 0.0
C475 C 0.97899 0.72197 0.7579 0.0
H476 H 0.97712 0.74831 0.65646 0.0
C477 C 0.01729 0.73062 0.7679 0.0
H478 H 0.93376 0.72874 0.71107 0.0
C479 C 0.04213 0.74225 0.73664 0.0
C480 C 0.02876 0.74427 0.69525 0.0
H481 H 0.02947 0.7231 0.79815 0.0
H482 H 0.07279 0.743 0.74377 0.0
C483 C 0.98853 0.74521 0.68784 0.0
C484 C 0.36154 1.00782 0.67092 0.0
C485 C 0.35422 0.04597 0.68659 0.0
H486 H 0.36788 0.94672 0.68515 0.0
C487 C 0.34095 0.05094 0.72775 0.0
H488 H 0.37145 1.00311 0.63919 0.0
C489 C 0.33948 0.01877 0.75411 0.0
C490 C 0.3503 0.98105 0.73948 0.0
H491 H 0.33491 0.07992 0.7407 0.0
H492 H 0.33251 0.02371 0.7867 0.0
C493 C 0.35917 0.97551 0.69711 0.0
C494 C 0.05971 0.29858 0.70516 0.0
C495 C 0.04744 0.31122 0.7449 0.0
H496 H 0.04143 0.28507 0.64327 0.0
C497 C 0.00925 0.30469 0.75724 0.0
H498 H 0.08929 0.30197 0.69514 0.0
C499 C 0.98176 0.29481 0.72747 0.0
C500 C 0.99246 0.29205 0.68531 0.0
H501 H 0.99937 0.3127 0.78831 0.0
H502 H 0.95152 0.29601 0.73648 0.0
C503 C 0.03218 0.28875 0.67537 0.0
C504 C 0.31243 0.04167 0.20934 0.0
C505 C 0.31517 0.0351 0.25244 0.0
H506 H 0.31784 0.01624 0.14822 0.0
C507 C 0.31725 0.99641 0.26705 0.0
H508 H 0.31119 0.07119 0.19722 0.0
C509 C 0.32008 0.96492 0.23897 0.0
C510 C 0.32205 0.97179 0.19596 0.0
H511 H 0.31954 0.99063 0.30016 0.0
H512 H 0.32453 0.93554 0.25106 0.0
C513 C 0.31647 1.01026 0.1813 0.0
C514 C 0.97777 0.43839 0.24313 0.0
C515 C 0.95879 0.403 0.2442 0.0
H516 H 0.02485 0.46958 0.21943 0.0
C517 C 0.97506 0.37043 0.2222 0.0
H518 H 0.96613 0.46414 0.25952 0.0
C519 C 0.00946 0.37346 0.19936 0.0
C520 C 0.02761 0.40933 0.19747 0.0
H521 H 0.96114 0.34273 0.22249 0.0
H522 H 0.02125 0.34813 0.1824 0.0
C523 C 0.01146 0.44158 0.21988 0.0
C524 C 0.66333 1.00924 0.26428 0.0
C525 C 0.6616 0.97135 0.24755 0.0
H526 H 0.66029 0.07068 0.25198 0.0
C527 C 0.66163 0.96612 0.20411 0.0
H528 H 0.663 0.01387 0.29774 0.0
C529 C 0.65874 0.99863 0.17791 0.0
C530 C 0.65696 0.03667 0.19486 0.0
H531 H 0.65977 0.93714 0.19056 0.0
H532 H 0.65523 0.99403 0.14468 0.0
C533 C 0.66172 0.04169 0.23806 0.0
C534 C 0.01666 0.64713 0.24846 0.0
C535 C 0.03106 0.61587 0.27329 0.0
H536 H 0.9725 0.66793 0.20553 0.0
C537 C 0.0096 0.58209 0.27582 0.0
H538 H 0.03248 0.67359 0.24597 0.0
C539 C 0.97586 0.57865 0.25225 0.0
C540 C 0.96223 0.60922 0.22623 0.0
H541 H 0.01981 0.55742 0.29453 0.0
H542 H 0.96094 0.55154 0.25359 0.0
C543 C 0.98227 0.64399 0.22548 0.0
loop_
_geom_bond_atom_site_label_1
_geom_bond_atom_site_label_2
_geom_bond_distance
_geom_bond_site_symmetry_2
_ccdc_geom_bond_type
Zn0 O3 2.031 . S
Zn0 O5 2.049 . S
Zn0 O10 2.067 . S
Zn1 O2 1.962 . S
Zn1 O4 1.986 . S
Zn1 O6 1.996 . S
Zn1 O9 1.943 . S
O2 Zn1 1.962 . S
O2 C7 1.254 . S
O3 Zn0 2.031 . S
O3 C7 1.269 . S
O4 Zn1 1.986 . S
O4 C11 1.262 . S
O5 Zn0 2.049 . S
O5 C13 1.260 . S
O6 Zn1 1.996 . S
O6 C13 1.257 . S
C7 O2 1.254 . S
C7 O3 1.269 . S
C8 O9 1.249 . S
C8 O10 1.270 . S
O9 Zn1 1.943 . S
O9 C8 1.249 . S
O10 Zn0 2.067 . S
O10 C8 1.270 . S
C11 O4 1.262 . S
C11 O12 1.232 . S
O12 C11 1.232 . S
C13 O5 1.260 . S
C13 O6 1.257 . S
Zn14 O17 2.031 . S
Zn14 O19 2.049 . S
Zn14 O24 2.067 . S
Zn15 O16 1.962 . S
Zn15 O18 1.986 . S
Zn15 O20 1.996 . S
Zn15 O23 1.943 . S
O16 Zn15 1.962 . S
O16 C21 1.254 . S
O17 Zn14 2.031 . S
O17 C21 1.269 . S
O18 Zn15 1.986 . S
O18 C25 1.262 . S
O19 Zn14 2.049 . S
O19 C27 1.260 . S
O20 Zn15 1.996 . S
O20 C27 1.257 . S
C21 O16 1.254 . S
C21 O17 1.269 . S
C22 O23 1.249 . S
C22 O24 1.270 . S
O23 Zn15 1.943 . S
O23 C22 1.249 . S
O24 Zn14 2.067 . S
O24 C22 1.270 . S
C25 O18 1.262 . S
C25 O26 1.232 . S
O26 C25 1.232 . S
C27 O19 1.260 . S
C27 O20 1.257 . S
Zn28 O31 2.031 . S
Zn28 O33 2.049 . S
Zn28 O38 2.067 . S
Zn29 O30 1.962 . S
Zn29 O32 1.986 . S
Zn29 O34 1.996 . S
Zn29 O37 1.943 . S
O30 Zn29 1.962 . S
O30 C35 1.254 . S
O31 Zn28 2.031 . S
O31 C35 1.269 . S
O32 Zn29 1.986 . S
O32 C39 1.262 . S
O33 Zn28 2.049 . S
O33 C41 1.260 . S
O34 Zn29 1.996 . S
O34 C41 1.257 . S
C35 O30 1.254 . S
C35 O31 1.269 . S
C36 O37 1.249 . S
C36 O38 1.270 . S
O37 Zn29 1.943 . S
O37 C36 1.249 . S
O38 Zn28 2.067 . S
O38 C36 1.270 . S
C39 O32 1.262 . S
C39 O40 1.232 . S
O40 C39 1.232 . S
C41 O33 1.260 . S
C41 O34 1.257 . S
Zn42 O45 2.031 . S
Zn42 O47 2.049 . S
Zn42 O52 2.067 . S
Zn43 O44 1.962 . S
Zn43 O46 1.986 . S
Zn43 O48 1.996 . S
Zn43 O51 1.943 . S
O44 Zn43 1.962 . S
O44 C49 1.254 . S
O45 Zn42 2.031 . S
O45 C49 1.269 . S
O46 Zn43 1.986 . S
O46 C53 1.262 . S
O47 Zn42 2.049 . S
O47 C55 1.260 . S
O48 Zn43 1.996 . S
O48 C55 1.257 . S
C49 O44 1.254 . S
C49 O45 1.269 . S
C50 O51 1.249 . S
C50 O52 1.270 . S
O51 Zn43 1.943 . S
O51 C50 1.249 . S
O52 Zn42 2.067 . S
O52 C50 1.270 . S
C53 O46 1.262 . S
C53 O54 1.232 . S
O54 C53 1.232 . S
C55 O47 1.260 . S
C55 O48 1.257 . S
Zn56 O59 2.031 . S
Zn56 O61 2.049 . S
Zn56 O66 2.067 . S
Zn57 O58 1.962 . S
Zn57 O60 1.986 . S
Zn57 O62 1.996 . S
Zn57 O65 1.943 . S
O58 Zn57 1.962 . S
O58 C63 1.254 . S
O59 Zn56 2.031 . S
O59 C63 1.269 . S
O60 Zn57 1.986 . S
O60 C67 1.262 . S
O61 Zn56 2.049 . S
O61 C69 1.260 . S
O62 Zn57 1.996 . S
O62 C69 1.257 . S
C63 O58 1.254 . S
C63 O59 1.269 . S
C64 O65 1.249 . S
C64 O66 1.270 . S
O65 Zn57 1.943 . S
O65 C64 1.249 . S
O66 Zn56 2.067 . S
O66 C64 1.270 . S
C67 O60 1.262 . S
C67 O68 1.232 . S
O68 C67 1.232 . S
C69 O61 1.260 . S
C69 O62 1.257 . S
Zn70 O73 2.031 . S
Zn70 O75 2.049 . S
Zn70 O80 2.067 . S
Zn71 O72 1.962 . S
Zn71 O74 1.986 . S
Zn71 O76 1.996 . S
Zn71 O79 1.943 . S
O72 Zn71 1.962 . S
O72 C77 1.254 . S
O73 Zn70 2.031 . S
O73 C77 1.269 . S
O74 Zn71 1.986 . S
O74 C81 1.262 . S
O75 Zn70 2.049 . S
O75 C83 1.260 . S
O76 Zn71 1.996 . S
O76 C83 1.257 . S
C77 O72 1.254 . S
C77 O73 1.269 . S
C78 O79 1.249 . S
C78 O80 1.270 . S
O79 Zn71 1.943 . S
O79 C78 1.249 . S
O80 Zn70 2.067 . S
O80 C78 1.270 . S
C81 O74 1.262 . S
C81 O82 1.232 . S
O82 C81 1.232 . S
C83 O75 1.260 . S
C83 O76 1.257 . S
Zn84 O87 2.031 . S
Zn84 O89 2.049 . S
Zn84 O94 2.067 . S
Zn85 O86 1.962 . S
Zn85 O88 1.986 . S
Zn85 O90 1.996 . S
Zn85 O93 1.943 . S
O86 Zn85 1.962 . S
O86 C91 1.254 . S
O87 Zn84 2.031 . S
O87 C91 1.269 . S
O88 Zn85 1.986 . S
O88 C95 1.262 . S
O89 Zn84 2.049 . S
O89 C97 1.260 . S
O90 Zn85 1.996 . S
O90 C97 1.257 . S
C91 O86 1.254 . S
C91 O87 1.269 . S
C92 O93 1.249 . S
C92 O94 1.270 . S
O93 Zn85 1.943 . S
O93 C92 1.249 . S
O94 Zn84 2.067 . S
O94 C92 1.270 . S
C95 O88 1.262 . S
C95 O96 1.232 . S
O96 C95 1.232 . S
C97 O89 1.260 . S
C97 O90 1.257 . S
Zn98 O101 2.031 . S
Zn98 O103 2.049 . S
Zn98 O108 2.067 . S
Zn99 O100 1.962 . S
Zn99 O102 1.986 . S
Zn99 O104 1.996 . S
Zn99 O107 1.943 . S
O100 Zn99 1.962 . S
O100 C105 1.254 . S
O101 Zn98 2.031 . S
O101 C105 1.269 . S
O102 Zn99 1.986 . S
O102 C109 1.262 . S
O103 Zn98 2.049 . S
O103 C111 1.260 . S
O104 Zn99 1.996 . S
O104 C111 1.257 . S
C105 O100 1.254 . S
C105 O101 1.269 . S
C106 O107 1.249 . S
C106 O108 1.270 . S
O107 Zn99 1.943 . S
O107 C106 1.249 . S
O108 Zn98 2.067 . S
O108 C106 1.270 . S
C109 O102 1.262 . S
C109 O110 1.232 . S
O110 C109 1.232 . S
C111 O103 1.260 . S
C111 O104 1.257 . S
Zn112 O115 2.031 . S
Zn112 O117 2.049 . S
Zn112 O122 2.067 . S
Zn113 O114 1.962 . S
Zn113 O116 1.986 . S
Zn113 O118 1.996 . S
Zn113 O121 1.943 . S
O114 Zn113 1.962 . S
O114 C119 1.254 . S
O115 Zn112 2.031 . S
O115 C119 1.269 . S
O116 Zn113 1.986 . S
O116 C123 1.262 . S
O117 Zn112 2.049 . S
O117 C125 1.260 . S
O118 Zn113 1.996 . S
O118 C125 1.257 . S
C119 O114 1.254 . S
C119 O115 1.269 . S
C120 O121 1.249 . S
C120 O122 1.270 . S
O121 Zn113 1.943 . S
O121 C120 1.249 . S
O122 Zn112 2.067 . S
O122 C120 1.270 . S
C123 O116 1.262 . S
C123 O124 1.232 . S
O124 C123 1.232 . S
C125 O117 1.260 . S
C125 O118 1.257 . S
Zn126 O129 2.031 . S
Zn126 O131 2.049 . S
Zn126 O136 2.067 . S
Zn127 O128 1.962 . S
Zn127 O130 1.986 . S
Zn127 O132 1.996 . S
Zn127 O135 1.943 . S
O128 Zn127 1.962 . S
O128 C133 1.254 . S
O129 Zn126 2.031 . S
O129 C133 1.269 . S
O130 Zn127 1.986 . S
O130 C137 1.262 . S
O131 Zn126 2.049 . S
O131 C139 1.260 . S
O132 Zn127 1.996 . S
O132 C139 1.257 . S
C133 O128 1.254 . S
C133 O129 1.269 . S
C134 O135 1.249 . S
C134 O136 1.270 . S
O135 Zn127 1.943 . S
O135 C134 1.249 . S
O136 Zn126 2.067 . S
O136 C134 1.270 . S
C137 O130 1.262 . S
C137 O138 1.232 . S
O138 C137 1.232 . S
C139 O131 1.260 . S
C139 O132 1.257 . S
Zn140 O143 2.031 . S
Zn140 O145 2.049 . S
Zn140 O150 2.067 . S
Zn141 O142 1.962 . S
Zn141 O144 1.986 . S
Zn141 O146 1.996 . S
Zn141 O149 1.943 . S
O142 Zn141 1.962 . S
O142 C147 1.254 . S
O143 Zn140 2.031 . S
O143 C147 1.269 . S
O144 Zn141 1.986 . S
O144 C151 1.262 . S
O145 Zn140 2.049 . S
O145 C153 1.260 . S
O146 Zn141 1.996 . S
O146 C153 1.257 . S
C147 O142 1.254 . S
C147 O143 1.269 . S
C148 O149 1.249 . S
C148 O150 1.270 . S
O149 Zn141 1.943 . S
O149 C148 1.249 . S
O150 Zn140 2.067 . S
O150 C148 1.270 . S
C151 O144 1.262 . S
C151 O152 1.232 . S
O152 C151 1.232 . S
C153 O145 1.260 . S
C153 O146 1.257 . S
Zn154 O157 2.031 . S
Zn154 O159 2.049 . S
Zn154 O164 2.067 . S
Zn155 O156 1.962 . S
Zn155 O158 1.986 . S
Zn155 O160 1.996 . S
Zn155 O163 1.943 . S
O156 Zn155 1.962 . S
O156 C161 1.254 . S
O157 Zn154 2.031 . S
O157 C161 1.269 . S
O158 Zn155 1.986 . S
O158 C165 1.262 . S
O159 Zn154 2.049 . S
O159 C167 1.260 . S
O160 Zn155 1.996 . S
O160 C167 1.257 . S
C161 O156 1.254 . S
C161 O157 1.269 . S
C162 O163 1.249 . S
C162 O164 1.270 . S
O163 Zn155 1.943 . S
O163 C162 1.249 . S
O164 Zn154 2.067 . S
O164 C162 1.270 . S
C165 O158 1.262 . S
C165 O166 1.232 . S
O166 C165 1.232 . S
C167 O159 1.260 . S
C167 O160 1.257 . S
Zn168 O171 2.031 . S
Zn168 O173 2.049 . S
Zn168 O178 2.067 . S
Zn169 O170 1.962 . S
Zn169 O172 1.986 . S
Zn169 O174 1.996 . S
Zn169 O177 1.943 . S
O170 Zn169 1.962 . S
O170 C175 1.254 . S
O171 Zn168 2.031 . S
O171 C175 1.269 . S
O172 Zn169 1.986 . S
O172 C179 1.262 . S
O173 Zn168 2.049 . S
O173 C181 1.260 . S
O174 Zn169 1.996 . S
O174 C181 1.257 . S
C175 O170 1.254 . S
C175 O171 1.269 . S
C176 O177 1.249 . S
C176 O178 1.270 . S
O177 Zn169 1.943 . S
O177 C176 1.249 . S
O178 Zn168 2.067 . S
O178 C176 1.270 . S
C179 O172 1.262 . S
C179 O180 1.232 . S
O180 C179 1.232 . S
C181 O173 1.260 . S
C181 O174 1.257 . S
Zn182 O185 2.031 . S
Zn182 O187 2.049 . S
Zn182 O192 2.067 . S
Zn183 O184 1.962 . S
Zn183 O186 1.986 . S
Zn183 O188 1.996 . S
Zn183 O191 1.943 . S
O184 Zn183 1.962 . S
O184 C189 1.254 . S
O185 Zn182 2.031 . S
O185 C189 1.269 . S
O186 Zn183 1.986 . S
O186 C193 1.262 . S
O187 Zn182 2.049 . S
O187 C195 1.260 . S
O188 Zn183 1.996 . S
O188 C195 1.257 . S
C189 O184 1.254 . S
C189 O185 1.269 . S
C190 O191 1.249 . S
C190 O192 1.270 . S
O191 Zn183 1.943 . S
O191 C190 1.249 . S
O192 Zn182 2.067 . S
O192 C190 1.270 . S
C193 O186 1.262 . S
C193 O194 1.232 . S
O194 C193 1.232 . S
C195 O187 1.260 . S
C195 O188 1.257 . S
Zn196 O199 2.031 . S
Zn196 O201 2.049 . S
Zn196 O206 2.067 . S
Zn197 O198 1.962 . S
Zn197 O200 1.986 . S
Zn197 O202 1.996 . S
Zn197 O205 1.943 . S
O198 Zn197 1.962 . S
O198 C203 1.254 . S
O199 Zn196 2.031 . S
O199 C203 1.269 . S
O200 Zn197 1.986 . S
O200 C207 1.262 . S
O201 Zn196 2.049 . S
O201 C209 1.260 . S
O202 Zn197 1.996 . S
O202 C209 1.257 . S
C203 O198 1.254 . S
C203 O199 1.269 . S
C204 O205 1.249 . S
C204 O206 1.270 . S
O205 Zn197 1.943 . S
O205 C204 1.249 . S
O206 Zn196 2.067 . S
O206 C204 1.270 . S
C207 O200 1.262 . S
C207 O208 1.232 . S
O208 C207 1.232 . S
C209 O201 1.260 . S
C209 O202 1.257 . S
Zn210 O213 2.031 . S
Zn210 O215 2.049 . S
Zn210 O220 2.067 . S
Zn211 O212 1.962 . S
Zn211 O214 1.986 . S
Zn211 O216 1.996 . S
Zn211 O219 1.943 . S
O212 Zn211 1.962 . S
O212 C217 1.254 . S
O213 Zn210 2.031 . S
O213 C217 1.269 . S
O214 Zn211 1.986 . S
O214 C221 1.262 . S
O215 Zn210 2.049 . S
O215 C223 1.260 . S
O216 Zn211 1.996 . S
O216 C223 1.257 . S
C217 O212 1.254 . S
C217 O213 1.269 . S
C218 O219 1.249 . S
C218 O220 1.270 . S
O219 Zn211 1.943 . S
O219 C218 1.249 . S
O220 Zn210 2.067 . S
O220 C218 1.270 . S
C221 O214 1.262 . S
C221 O222 1.232 . S
O222 C221 1.232 . S
C223 O215 1.260 . S
C223 O216 1.257 . S
C224 C225 1.387 . S
C224 H228 0.950 . S
C224 C233 1.390 . S
C225 C224 1.387 . S
C225 C227 1.387 . S
H226 C233 0.950 . S
C227 C225 1.387 . S
C227 C229 1.390 . S
C227 H231 0.950 . S
H228 C224 0.950 . S
C229 C227 1.390 . S
C229 C230 1.387 . S
C229 H232 0.950 . S
C230 C229 1.387 . S
C230 C233 1.387 . S
H231 C227 0.950 . S
H232 C229 0.950 . S
C233 C224 1.390 . S
C233 H226 0.950 . S
C233 C230 1.387 . S
C234 C235 1.387 . S
C234 H238 0.950 . S
C234 C243 1.390 . S
C235 C234 1.387 . S
C235 C237 1.387 . S
H236 C243 0.950 . S
C237 C235 1.387 . S
C237 C239 1.390 . S
C237 H241 0.950 . S
H238 C234 0.950 . S
C239 C237 1.390 . S
C239 C240 1.387 . S
C239 H242 0.950 . S
C240 C239 1.387 . S
C240 C243 1.387 . S
H241 C237 0.950 . S
H242 C239 0.950 . S
C243 C234 1.390 . S
C243 H236 0.950 . S
C243 C240 1.387 . S
C244 C245 1.387 . S
C244 H248 0.950 . S
C244 C253 1.390 . S
C245 C244 1.387 . S
C245 C247 1.387 . S
H246 C253 0.950 . S
C247 C245 1.387 . S
C247 C249 1.390 . S
C247 H251 0.950 . S
H248 C244 0.950 . S
C249 C247 1.390 . S
C249 C250 1.387 . S
C249 H252 0.950 . S
C250 C249 1.387 . S
C250 C253 1.387 . S
H251 C247 0.950 . S
H252 C249 0.950 . S
C253 C244 1.390 . S
C253 H246 0.950 . S
C253 C250 1.387 . S
C254 C255 1.387 . S
C254 H258 0.950 . S
C254 C263 1.390 . S
C255 C254 1.387 . S
C255 C257 1.387 . S
H256 C263 0.950 . S
C257 C255 1.387 . S
C257 C259 1.390 . S
C257 H261 0.950 . S
H258 C254 0.950 . S
C259 C257 1.390 . S
C259 C260 1.387 . S
C259 H262 0.950 . S
C260 C259 1.387 . S
C260 C263 1.387 . S
H261 C257 0.950 . S
H262 C259 0.950 . S
C263 C254 1.390 . S
C263 H256 0.950 . S
C263 C260 1.387 . S
C264 C265 1.387 . S
C264 H268 0.950 . S
C264 C273 1.390 . S
C265 C264 1.387 . S
C265 C267 1.387 . S
H266 C273 0.950 . S
C267 C265 1.387 . S
C267 C269 1.390 . S
C267 H271 0.950 . S
H268 C264 0.950 . S
C269 C267 1.390 . S
C269 C270 1.387 . S
C269 H272 0.950 . S
C270 C269 1.387 . S
C270 C273 1.387 . S
H271 C267 0.950 . S
H272 C269 0.950 . S
C273 C264 1.390 . S
C273 H266 0.950 . S
C273 C270 1.387 . S
C274 C275 1.387 . S
C274 H278 0.950 . S
C274 C283 1.390 . S
C275 C274 1.387 . S
C275 C277 1.387 . S
H276 C283 0.950 . S
C277 C275 1.387 . S
C277 C279 1.390 . S
C277 H281 0.950 . S
H278 C274 0.950 . S
C279 C277 1.390 . S
C279 C280 1.387 . S
C279 H282 0.950 . S
C280 C279 1.387 . S
C280 C283 1.387 . S
H281 C277 0.950 . S
H282 C279 0.950 . S
C283 C274 1.390 . S
C283 H276 0.950 . S
C283 C280 1.387 . S
C284 C285 1.387 . S
C284 H288 0.950 . S
C284 C293 1.390 . S
C285 C284 1.387 . S
C285 C287 1.387 . S
H286 C293 0.950 . S
C287 C285 1.387 . S
C287 C289 1.390 . S
C287 H291 0.950 . S
H288 C284 0.950 . S
C289 C287 1.390 . S
C289 C290 1.387 . S
C289 H292 0.950 . S
C290 C289 1.387 . S
C290 C293 1.387 . S
H291 C287 0.950 . S
H292 C289 0.950 . S
C293 C284 1.390 . S
C293 H286 0.950 . S
C293 C290 1.387 . S
C294 C295 1.387 . S
C294 H298 0.950 . S
C294 C303 1.390 . S
C295 C294 1.387 . S
C295 C297 1.387 . S
H296 C303 0.950 . S
C297 C295 1.387 . S
C297 C299 1.390 . S
C297 H301 0.950 . S
H298 C294 0.950 . S
C299 C297 1.390 . S
C299 C300 1.387 . S
C299 H302 0.950 . S
C300 C299 1.387 . S
C300 C303 1.387 . S
H301 C297 0.950 . S
H302 C299 0.950 . S
C303 C294 1.390 . S
C303 H296 0.950 . S
C303 C300 1.387 . S
C304 C305 1.387 . S
C304 H308 0.950 . S
C304 C313 1.390 1_556 S
C305 C304 1.387 . S
C305 C307 1.387 . S
H306 C313 0.950 . S
C307 C305 1.387 . S
C307 C309 1.390 1_556 S
C307 H311 0.950 . S
H308 C304 0.950 . S
C309 C307 1.390 1_554 S
C309 C310 1.387 . S
C309 H312 0.950 . S
C310 C309 1.387 . S
C310 C313 1.387 . S
H311 C307 0.950 . S
H312 C309 0.950 . S
C313 C304 1.390 1_554 S
C313 H306 0.950 . S
C313 C310 1.387 . S
C314 C315 1.387 . S
C314 H318 0.950 . S
C314 C323 1.390 1_556 S
C315 C314 1.387 . S
C315 C317 1.387 . S
H316 C323 0.950 . S
C317 C315 1.387 . S
C317 C319 1.390 1_556 S
C317 H321 0.950 . S
H318 C314 0.950 . S
C319 C317 1.390 1_554 S
C319 C320 1.387 . S
C319 H322 0.950 . S
C320 C319 1.387 . S
C320 C323 1.387 . S
H321 C317 0.950 . S
H322 C319 0.950 . S
C323 C314 1.390 1_554 S
C323 H316 0.950 . S
C323 C320 1.387 . S
C324 C325 1.387 . S
C324 H328 0.950 . S
C324 C333 1.390 1_556 S
C325 C324 1.387 . S
C325 C327 1.387 . S
H326 C333 0.950 . S
C327 C325 1.387 . S
C327 C329 1.390 1_556 S
C327 H331 0.950 . S
H328 C324 0.950 . S
C329 C327 1.390 1_554 S
C329 C330 1.387 . S
C329 H332 0.950 . S
C330 C329 1.387 . S
C330 C333 1.387 . S
H331 C327 0.950 . S
H332 C329 0.950 . S
C333 C324 1.390 1_554 S
C333 H326 0.950 . S
C333 C330 1.387 . S
C334 C335 1.387 . S
C334 H338 0.950 . S
C334 C343 1.390 1_554 S
C335 C334 1.387 . S
C335 C337 1.387 . S
H336 C343 0.950 . S
C337 C335 1.387 . S
C337 C339 1.390 1_554 S
C337 H341 0.950 . S
H338 C334 0.950 . S
C339 C337 1.390 1_556 S
C339 C340 1.387 . S
C339 H342 0.950 . S
C340 C339 1.387 . S
C340 C343 1.387 . S
H341 C337 0.950 . S
H342 C339 0.950 . S
C343 C334 1.390 1_556 S
C343 H336 0.950 . S
C343 C340 1.387 . S
C344 C345 1.387 . S
C344 H348 0.950 . S
C344 C353 1.390 . S
C345 C344 1.387 . S
C345 C347 1.387 . S
H346 C353 0.950 . S
C347 C345 1.387 . S
C347 C349 1.390 . S
C347 H351 0.950 . S
H348 C344 0.950 . S
C349 C347 1.390 . S
C349 C350 1.387 . S
C349 H352 0.950 . S
C350 C349 1.387 . S
C350 C353 1.387 . S
H351 C347 0.950 . S
H352 C349 0.950 . S
C353 C344 1.390 . S
C353 H346 0.950 . S
C353 C350 1.387 . S
C354 C355 1.387 . S
C354 H358 0.950 . S
C354 C363 1.390 . S
C355 C354 1.387 . S
C355 C357 1.387 . S
H356 C363 0.950 . S
C357 C355 1.387 . S
C357 C359 1.390 . S
C357 H361 0.950 . S
H358 C354 0.950 . S
C359 C357 1.390 . S
C359 C360 1.387 . S
C359 H362 0.950 . S
C360 C359 1.387 . S
C360 C363 1.387 . S
H361 C357 0.950 . S
H362 C359 0.950 . S
C363 C354 1.390 . S
C363 H356 0.950 . S
C363 C360 1.387 . S
C364 C365 1.387 . S
C364 H368 0.950 . S
C364 C373 1.390 . S
C365 C364 1.387 . S
C365 C367 1.387 . S
H366 C373 0.950 . S
C367 C365 1.387 . S
C367 C369 1.390 . S
C367 H371 0.950 . S
H368 C364 0.950 . S
C369 C367 1.390 . S
C369 C370 1.387 . S
C369 H372 0.950 . S
C370 C369 1.387 . S
C370 C373 1.387 . S
H371 C367 0.950 . S
H372 C369 0.950 . S
C373 C364 1.390 . S
C373 H366 0.950 . S
C373 C370 1.387 . S
C374 C375 1.387 . S
C374 H378 0.950 . S
C374 C383 1.390 . S
C375 C374 1.387 . S
C375 C377 1.387 . S
H376 C383 0.950 . S
C377 C375 1.387 . S
C377 C379 1.390 . S
C377 H381 0.950 . S
H378 C374 0.950 . S
C379 C377 1.390 . S
C379 C380 1.387 . S
C379 H382 0.950 . S
C380 C379 1.387 . S
C380 C383 1.387 . S
H381 C377 0.950 . S
H382 C379 0.950 . S
C383 C374 1.390 . S
C383 H376 0.950 . S
C383 C380 1.387 . S
C384 C385 1.387 . S
C384 H388 0.950 . S
C384 C393 1.390 . S
C385 C384 1.387 . S
C385 C387 1.387 . S
H386 C393 0.950 . S
C387 C385 1.387 . S
C387 C389 1.390 . S
C387 H391 0.950 . S
H388 C384 0.950 . S
C389 C387 1.390 . S
C389 C390 1.387 . S
C389 H392 0.950 . S
C390 C389 1.387 . S
C390 C393 1.387 . S
H391 C387 0.950 . S
H392 C389 0.950 . S
C393 C384 1.390 . S
C393 H386 0.950 . S
C393 C390 1.387 . S
C394 C395 1.387 . S
C394 H398 0.950 . S
C394 C403 1.390 . S
C395 C394 1.387 . S
C395 C397 1.387 . S
H396 C403 0.950 . S
C397 C395 1.387 . S
C397 C399 1.390 . S
C397 H401 0.950 . S
H398 C394 0.950 . S
C399 C397 1.390 . S
C399 C400 1.387 . S
C399 H402 0.950 . S
C400 C399 1.387 . S
C400 C403 1.387 . S
H401 C397 0.950 . S
H402 C399 0.950 . S
C403 C394 1.390 . S
C403 H396 0.950 . S
C403 C400 1.387 . S
C404 C405 1.387 . S
C404 H408 0.950 . S
C404 C413 1.390 . S
C405 C404 1.387 . S
C405 C407 1.387 . S
H406 C413 0.950 . S
C407 C405 1.387 . S
C407 C409 1.390 . S
C407 H411 0.950 . S
H408 C404 0.950 . S
C409 C407 1.390 . S
C409 C410 1.387 . S
C409 H412 0.950 . S
C410 C409 1.387 . S
C410 C413 1.387 . S
H411 C407 0.950 . S
H412 C409 0.950 . S
C413 C404 1.390 . S
C413 H406 0.950 . S
C413 C410 1.387 . S
C414 C415 1.387 . S
C414 H418 0.950 . S
C414 C423 1.390 . S
C415 C414 1.387 . S
C415 C417 1.387 . S
H416 C423 0.950 . S
C417 C415 1.387 . S
C417 C419 1.390 . S
C417 H421 0.950 . S
H418 C414 0.950 . S
C419 C417 1.390 . S
C419 C420 1.387 . S
C419 H422 0.950 . S
C420 C419 1.387 . S
C420 C423 1.387 . S
H421 C417 0.950 . S
H422 C419 0.950 . S
C423 C414 1.390 . S
C423 H416 0.950 . S
C423 C420 1.387 . S
C424 C425 1.387 . S
C424 H428 0.950 . S
C424 C433 1.390 . S
C425 C424 1.387 . S
C425 C427 1.387 . S
H426 C433 0.950 . S
C427 C425 1.387 . S
C427 C429 1.390 . S
C427 H431 0.950 . S
H428 C424 0.950 . S
C429 C427 1.390 . S
C429 C430 1.387 . S
C429 H432 0.950 . S
C430 C429 1.387 . S
C430 C433 1.387 . S
H431 C427 0.950 . S
H432 C429 0.950 . S
C433 C424 1.390 . S
C433 H426 0.950 . S
C433 C430 1.387 . S
C434 C435 1.387 . S
C434 H438 0.950 . S
C434 C443 1.390 . S
C435 C434 1.387 . S
C435 C437 1.387 . S
H436 C443 0.950 . S
C437 C435 1.387 . S
C437 C439 1.390 . S
C437 H441 0.950 . S
H438 C434 0.950 . S
C439 C437 1.390 . S
C439 C440 1.387 . S
C439 H442 0.950 . S
C440 C439 1.387 . S
C440 C443 1.387 . S
H441 C437 0.950 . S
H442 C439 0.950 . S
C443 C434 1.390 . S
C443 H436 0.950 . S
C443 C440 1.387 . S
C444 C445 1.387 . S
C444 H448 0.950 . S
C444 C453 1.390 . S
C445 C444 1.387 . S
C445 C447 1.387 . S
H446 C453 0.950 . S
C447 C445 1.387 . S
C447 C449 1.390 . S
C447 H451 0.950 . S
H448 C444 0.950 . S
C449 C447 1.390 . S
C449 C450 1.387 . S
C449 H452 0.950 . S
C450 C449 1.387 . S
C450 C453 1.387 . S
H451 C447 0.950 . S
H452 C449 0.950 . S
C453 C444 1.390 . S
C453 H446 0.950 . S
C453 C450 1.387 . S
C454 C455 1.387 . S
C454 H458 0.950 . S
C454 C463 1.390 . S
C455 C454 1.387 . S
C455 C457 1.387 . S
H456 C463 0.950 . S
C457 C455 1.387 . S
C457 C459 1.390 . S
C457 H461 0.950 . S
H458 C454 0.950 . S
C459 C457 1.390 . S
C459 C460 1.387 . S
C459 H462 0.950 . S
C460 C459 1.387 . S
C460 C463 1.387 . S
H461 C457 0.950 . S
H462 C459 0.950 . S
C463 C454 1.390 . S
C463 H456 0.950 . S
C463 C460 1.387 . S
C464 C465 1.387 . S
C464 H468 0.950 . S
C464 C473 1.390 1_545 S
C465 C464 1.387 . S
C465 C467 1.387 . S
H466 C473 0.950 . S
C467 C465 1.387 . S
C467 C469 1.390 1_545 S
C467 H471 0.950 . S
H468 C464 0.950 . S
C469 C467 1.390 1_565 S
C469 C470 1.387 . S
C469 H472 0.950 . S
C470 C469 1.387 . S
C470 C473 1.387 . S
H471 C467 0.950 . S
H472 C469 0.950 . S
C473 C464 1.390 1_565 S
C473 H466 0.950 . S
C473 C470 1.387 . S
C474 C475 1.387 . S
C474 H478 0.950 . S
C474 C483 1.390 1_655 S
C475 C474 1.387 . S
C475 C477 1.387 . S
H476 C483 0.950 . S
C477 C475 1.387 . S
C477 C479 1.390 1_655 S
C477 H481 0.950 . S
H478 C474 0.950 . S
C479 C477 1.390 1_455 S
C479 C480 1.387 . S
C479 H482 0.950 . S
C480 C479 1.387 . S
C480 C483 1.387 . S
H481 C477 0.950 . S
H482 C479 0.950 . S
C483 C474 1.390 1_455 S
C483 H476 0.950 . S
C483 C480 1.387 . S
C484 C485 1.387 . S
C484 H488 0.950 . S
C484 C493 1.390 1_545 S
C485 C484 1.387 . S
C485 C487 1.387 . S
H486 C493 0.950 . S
C487 C485 1.387 . S
C487 C489 1.390 1_545 S
C487 H491 0.950 . S
H488 C484 0.950 . S
C489 C487 1.390 1_565 S
C489 C490 1.387 . S
C489 H492 0.950 . S
C490 C489 1.387 . S
C490 C493 1.387 . S
H491 C487 0.950 . S
H492 C489 0.950 . S
C493 C484 1.390 1_565 S
C493 H486 0.950 . S
C493 C490 1.387 . S
C494 C495 1.387 . S
C494 H498 0.950 . S
C494 C503 1.390 1_455 S
C495 C494 1.387 . S
C495 C497 1.387 . S
H496 C503 0.950 . S
C497 C495 1.387 . S
C497 C499 1.390 1_455 S
C497 H501 0.950 . S
H498 C494 0.950 . S
C499 C497 1.390 1_655 S
C499 C500 1.387 . S
C499 H502 0.950 . S
C500 C499 1.387 . S
C500 C503 1.387 . S
H501 C497 0.950 . S
H502 C499 0.950 . S
C503 C494 1.390 1_655 S
C503 H496 0.950 . S
C503 C500 1.387 . S
C504 C505 1.387 . S
C504 H508 0.950 . S
C504 C513 1.390 1_545 S
C505 C504 1.387 . S
C505 C507 1.387 . S
H506 C513 0.950 . S
C507 C505 1.387 . S
C507 C509 1.390 1_545 S
C507 H511 0.950 . S
H508 C504 0.950 . S
C509 C507 1.390 1_565 S
C509 C510 1.387 . S
C509 H512 0.950 . S
C510 C509 1.387 . S
C510 C513 1.387 . S
H511 C507 0.950 . S
H512 C509 0.950 . S
C513 C504 1.390 1_565 S
C513 H506 0.950 . S
C513 C510 1.387 . S
C514 C515 1.387 . S
C514 H518 0.950 . S
C514 C523 1.390 1_655 S
C515 C514 1.387 . S
C515 C517 1.387 . S
H516 C523 0.950 . S
C517 C515 1.387 . S
C517 C519 1.390 1_655 S
C517 H521 0.950 . S
H518 C514 0.950 . S
C519 C517 1.390 1_455 S
C519 C520 1.387 . S
C519 H522 0.950 . S
C520 C519 1.387 . S
C520 C523 1.387 . S
H521 C517 0.950 . S
H522 C519 0.950 . S
C523 C514 1.390 1_455 S
C523 H516 0.950 . S
C523 C520 1.387 . S
C524 C525 1.387 . S
C524 H528 0.950 . S
C524 C533 1.390 1_565 S
C525 C524 1.387 . S
C525 C527 1.387 . S
H526 C533 0.950 . S
C527 C525 1.387 . S
C527 C529 1.390 1_565 S
C527 H531 0.950 . S
H528 C524 0.950 . S
C529 C527 1.390 1_545 S
C529 C530 1.387 . S
C529 H532 0.950 . S
C530 C529 1.387 . S
C530 C533 1.387 . S
H531 C527 0.950 . S
H532 C529 0.950 . S
C533 C524 1.390 1_545 S
C533 H526 0.950 . S
C533 C530 1.387 . S
C534 C535 1.387 . S
C534 H538 0.950 . S
C534 C543 1.390 1_455 S
C535 C534 1.387 . S
C535 C537 1.387 . S
H536 C543 0.950 . S
C537 C535 1.387 . S
C537 C539 1.390 1_455 S
C537 H541 0.950 . S
H538 C534 0.950 . S
C539 C537 1.390 1_655 S
C539 C540 1.387 . S
C539 H542 0.950 . S
C540 C539 1.387 . S
C540 C543 1.387 . S
H541 C537 0.950 . S
H542 C539 0.950 . S
C543 C534 1.390 1_655 S
C543 H536 0.950 . S
C543 C540 1.387 . S
C225 C81 1.367 . S
C230 C11 1.368 . S
C235 C95 1.367 . S
C240 C25 1.367 . S
C245 C39 1.367 . S
C250 C109 1.368 . S
C255 C53 1.367 . S
C260 C67 1.368 . S
C265 C193 1.367 . S
C270 C123 1.368 . S
C275 C207 1.368 . S
C280 C137 1.367 . S
C285 C151 1.368 . S
C290 C221 1.367 . S
C295 C165 1.367 . S
C300 C179 1.368 . S
C305 C153 1.395 . S
C310 C13 1.397 . S
C315 C167 1.394 . S
C320 C27 1.395 . S
C325 C125 1.396 . S
C330 C41 1.396 . S
C335 C55 1.395 . S
C340 C139 1.397 . S
C345 C209 1.396 . S
C350 C69 1.393 . S
C355 C223 1.393 . S
C360 C83 1.396 . S
C365 C97 1.397 . S
C370 C181 1.393 . S
C375 C195 1.396 . S
C380 C111 1.396 . S
C385 C64 1.581 . S
C390 C8 1.581 . S
C395 C22 1.581 . S
C400 C78 1.581 . S
C405 C36 1.581 . S
C410 C92 1.581 . S
C415 C106 1.581 . S
C420 C50 1.581 . S
C425 C119 1.283 . S
C430 C175 1.283 . S
C435 C189 1.283 . S
C440 C133 1.283 . S
C445 C147 1.283 . S
C450 C203 1.283 . S
C455 C217 1.282 . S
C460 C161 1.282 . S
C465 C162 1.581 . S
C470 C190 1.581 . S
C475 C120 1.581 . S
C480 C204 1.581 . S
C485 C218 1.581 . S
C490 C134 1.581 . S
C495 C148 1.582 . S
C500 C176 1.582 . S
C505 C77 1.283 . S
C510 C49 1.283 . S
C515 C91 1.283 . S
C520 C7 1.283 . S
C525 C105 1.282 . S
C530 C21 1.282 . S
C535 C63 1.282 . S
C540 C35 1.282 . S
