# Generated by pormake.
# Topology sou, (8)-cn, num edge types: 1
# Building blocks:
#     Node 0, Type 0, BuildingBlock: XADDAJ01_clean_sbu_3, # of connection points: 8
#     Node 1, Type 0, BuildingBlock: XADDAJ01_clean_sbu_3, # of connection points: 8
#     Node 2, Type 0, BuildingBlock: XADDAJ01_clean_sbu_3, # of connection points: 8
#     Node 3, Type 0, BuildingBlock: XADDAJ01_clean_sbu_3, # of connection points: 8
#     Node 4, Type 0, BuildingBlock: XADDAJ01_clean_sbu_3, # of connection points: 8
#     Node 5, Type 0, BuildingBlock: XADDAJ01_clean_sbu_3, # of connection points: 8
#     Node 6, Type 0, BuildingBlock: XADDAJ01_clean_sbu_3, # of connection points: 8
#     Node 7, Type 0, BuildingBlock: XADDAJ01_clean_sbu_3, # of connection points: 8
#     Node 8, Type 0, BuildingBlock: XADDAJ01_clean_sbu_3, # of connection points: 8
#     Node 9, Type 0, BuildingBlock: XADDAJ01_clean_sbu_3, # of connection points: 8
#     Node 10, Type 0, BuildingBlock: XADDAJ01_clean_sbu_3, # of connection points: 8
#     Node 11, Type 0, BuildingBlock: XADDAJ01_clean_sbu_3, # of connection points: 8
#     Node 12, Type 0, BuildingBlock: XADDAJ01_clean_sbu_3, # of connection points: 8
#     Node 13, Type 0, BuildingBlock: XADDAJ01_clean_sbu_3, # of connection points: 8
#     Node 14, Type 0, BuildingBlock: XADDAJ01_clean_sbu_3, # of connection points: 8
#     Node 15, Type 0, BuildingBlock: XADDAJ01_clean_sbu_3, # of connection points: 8
#     Node 16, Type 0, BuildingBlock: XADDAJ01_clean_sbu_3, # of connection points: 8
#     Node 17, Type 0, BuildingBlock: XADDAJ01_clean_sbu_3, # of connection points: 8
#     Node 18, Type 0, BuildingBlock: XADDAJ01_clean_sbu_3, # of connection points: 8
#     Node 19, Type 0, BuildingBlock: XADDAJ01_clean_sbu_3, # of connection points: 8
#     Node 20, Type 0, BuildingBlock: XADDAJ01_clean_sbu_3, # of connection points: 8
#     Node 21, Type 0, BuildingBlock: XADDAJ01_clean_sbu_3, # of connection points: 8
#     Node 22, Type 0, BuildingBlock: XADDAJ01_clean_sbu_3, # of connection points: 8
#     Node 23, Type 0, BuildingBlock: XADDAJ01_clean_sbu_3, # of connection points: 8
#     Node 24, Type 0, BuildingBlock: XADDAJ01_clean_sbu_3, # of connection points: 8
#     Node 25, Type 0, BuildingBlock: XADDAJ01_clean_sbu_3, # of connection points: 8
#     Node 26, Type 0, BuildingBlock: XADDAJ01_clean_sbu_3, # of connection points: 8
#     Node 27, Type 0, BuildingBlock: XADDAJ01_clean_sbu_3, # of connection points: 8
#     Node 28, Type 0, BuildingBlock: XADDAJ01_clean_sbu_3, # of connection points: 8
#     Node 29, Type 0, BuildingBlock: XADDAJ01_clean_sbu_3, # of connection points: 8
#     Node 30, Type 0, BuildingBlock: XADDAJ01_clean_sbu_3, # of connection points: 8
#     Node 31, Type 0, BuildingBlock: XADDAJ01_clean_sbu_3, # of connection points: 8
#     Edge 32, Type (0, 0), BuildingBlock: XIVTED_clean_linker_0, # of connection points: 2
#     Edge 33, Type (0, 0), BuildingBlock: XIVTED_clean_linker_0, # of connection points: 2
#     Edge 34, Type (0, 0), BuildingBlock: XIVTED_clean_linker_0, # of connection points: 2
#     Edge 35, Type (0, 0), BuildingBlock: XIVTED_clean_linker_0, # of connection points: 2
#     Edge 36, Type (0, 0), BuildingBlock: XIVTED_clean_linker_0, # of connection points: 2
#     Edge 37, Type (0, 0), BuildingBlock: XIVTED_clean_linker_0, # of connection points: 2
#     Edge 38, Type (0, 0), BuildingBlock: XIVTED_clean_linker_0, # of connection points: 2
#     Edge 39, Type (0, 0), BuildingBlock: XIVTED_clean_linker_0, # of connection points: 2
#     Edge 40, Type (0, 0), BuildingBlock: XIVTED_clean_linker_0, # of connection points: 2
#     Edge 41, Type (0, 0), BuildingBlock: XIVTED_clean_linker_0, # of connection points: 2
#     Edge 42, Type (0, 0), BuildingBlock: XIVTED_clean_linker_0, # of connection points: 2
#     Edge 43, Type (0, 0), BuildingBlock: XIVTED_clean_linker_0, # of connection points: 2
#     Edge 44, Type (0, 0), BuildingBlock: XIVTED_clean_linker_0, # of connection points: 2
#     Edge 45, Type (0, 0), BuildingBlock: XIVTED_clean_linker_0, # of connection points: 2
#     Edge 46, Type (0, 0), BuildingBlock: XIVTED_clean_linker_0, # of connection points: 2
#     Edge 47, Type (0, 0), BuildingBlock: XIVTED_clean_linker_0, # of connection points: 2
#     Edge 48, Type (0, 0), BuildingBlock: XIVTED_clean_linker_0, # of connection points: 2
#     Edge 49, Type (0, 0), BuildingBlock: XIVTED_clean_linker_0, # of connection points: 2
#     Edge 50, Type (0, 0), BuildingBlock: XIVTED_clean_linker_0, # of connection points: 2
#     Edge 51, Type (0, 0), BuildingBlock: XIVTED_clean_linker_0, # of connection points: 2
#     Edge 52, Type (0, 0), BuildingBlock: XIVTED_clean_linker_0, # of connection points: 2
#     Edge 53, Type (0, 0), BuildingBlock: XIVTED_clean_linker_0, # of connection points: 2
#     Edge 54, Type (0, 0), BuildingBlock: XIVTED_clean_linker_0, # of connection points: 2
#     Edge 55, Type (0, 0), BuildingBlock: XIVTED_clean_linker_0, # of connection points: 2
#     Edge 56, Type (0, 0), BuildingBlock: XIVTED_clean_linker_0, # of connection points: 2
#     Edge 57, Type (0, 0), BuildingBlock: XIVTED_clean_linker_0, # of connection points: 2
#     Edge 58, Type (0, 0), BuildingBlock: XIVTED_clean_linker_0, # of connection points: 2
#     Edge 59, Type (0, 0), BuildingBlock: XIVTED_clean_linker_0, # of connection points: 2
#     Edge 60, Type (0, 0), BuildingBlock: XIVTED_clean_linker_0, # of connection points: 2
#     Edge 61, Type (0, 0), BuildingBlock: XIVTED_clean_linker_0, # of connection points: 2
#     Edge 62, Type (0, 0), BuildingBlock: XIVTED_clean_linker_0, # of connection points: 2
#     Edge 63, Type (0, 0), BuildingBlock: XIVTED_clean_linker_0, # of connection points: 2
#     Edge 64, Type (0, 0), BuildingBlock: XIVTED_clean_linker_0, # of connection points: 2
#     Edge 65, Type (0, 0), BuildingBlock: XIVTED_clean_linker_0, # of connection points: 2
#     Edge 66, Type (0, 0), BuildingBlock: XIVTED_clean_linker_0, # of connection points: 2
#     Edge 67, Type (0, 0), BuildingBlock: XIVTED_clean_linker_0, # of connection points: 2
#     Edge 68, Type (0, 0), BuildingBlock: XIVTED_clean_linker_0, # of connection points: 2
#     Edge 69, Type (0, 0), BuildingBlock: XIVTED_clean_linker_0, # of connection points: 2
#     Edge 70, Type (0, 0), BuildingBlock: XIVTED_clean_linker_0, # of connection points: 2
#     Edge 71, Type (0, 0), BuildingBlock: XIVTED_clean_linker_0, # of connection points: 2
#     Edge 72, Type (0, 0), BuildingBlock: XIVTED_clean_linker_0, # of connection points: 2
#     Edge 73, Type (0, 0), BuildingBlock: XIVTED_clean_linker_0, # of connection points: 2
#     Edge 74, Type (0, 0), BuildingBlock: XIVTED_clean_linker_0, # of connection points: 2
#     Edge 75, Type (0, 0), BuildingBlock: XIVTED_clean_linker_0, # of connection points: 2
#     Edge 76, Type (0, 0), BuildingBlock: XIVTED_clean_linker_0, # of connection points: 2
#     Edge 77, Type (0, 0), BuildingBlock: XIVTED_clean_linker_0, # of connection points: 2
#     Edge 78, Type (0, 0), BuildingBlock: XIVTED_clean_linker_0, # of connection points: 2
#     Edge 79, Type (0, 0), BuildingBlock: XIVTED_clean_linker_0, # of connection points: 2
#     Edge 80, Type (0, 0), BuildingBlock: XIVTED_clean_linker_0, # of connection points: 2
#     Edge 81, Type (0, 0), BuildingBlock: XIVTED_clean_linker_0, # of connection points: 2
#     Edge 82, Type (0, 0), BuildingBlock: XIVTED_clean_linker_0, # of connection points: 2
#     Edge 83, Type (0, 0), BuildingBlock: XIVTED_clean_linker_0, # of connection points: 2
#     Edge 84, Type (0, 0), BuildingBlock: XIVTED_clean_linker_0, # of connection points: 2
#     Edge 85, Type (0, 0), BuildingBlock: XIVTED_clean_linker_0, # of connection points: 2
#     Edge 86, Type (0, 0), BuildingBlock: XIVTED_clean_linker_0, # of connection points: 2
#     Edge 87, Type (0, 0), BuildingBlock: XIVTED_clean_linker_0, # of connection points: 2
#     Edge 88, Type (0, 0), BuildingBlock: XIVTED_clean_linker_0, # of connection points: 2
#     Edge 89, Type (0, 0), BuildingBlock: XIVTED_clean_linker_0, # of connection points: 2
#     Edge 90, Type (0, 0), BuildingBlock: XIVTED_clean_linker_0, # of connection points: 2
#     Edge 91, Type (0, 0), BuildingBlock: XIVTED_clean_linker_0, # of connection points: 2
#     Edge 92, Type (0, 0), BuildingBlock: XIVTED_clean_linker_0, # of connection points: 2
#     Edge 93, Type (0, 0), BuildingBlock: XIVTED_clean_linker_0, # of connection points: 2
#     Edge 94, Type (0, 0), BuildingBlock: XIVTED_clean_linker_0, # of connection points: 2
#     Edge 95, Type (0, 0), BuildingBlock: XIVTED_clean_linker_0, # of connection points: 2
#     Edge 96, Type (0, 0), BuildingBlock: XIVTED_clean_linker_0, # of connection points: 2
#     Edge 97, Type (0, 0), BuildingBlock: XIVTED_clean_linker_0, # of connection points: 2
#     Edge 98, Type (0, 0), BuildingBlock: XIVTED_clean_linker_0, # of connection points: 2
#     Edge 99, Type (0, 0), BuildingBlock: XIVTED_clean_linker_0, # of connection points: 2
#     Edge 100, Type (0, 0), BuildingBlock: XIVTED_clean_linker_0, # of connection points: 2
#     Edge 101, Type (0, 0), BuildingBlock: XIVTED_clean_linker_0, # of connection points: 2
#     Edge 102, Type (0, 0), BuildingBlock: XIVTED_clean_linker_0, # of connection points: 2
#     Edge 103, Type (0, 0), BuildingBlock: XIVTED_clean_linker_0, # of connection points: 2
#     Edge 104, Type (0, 0), BuildingBlock: XIVTED_clean_linker_0, # of connection points: 2
#     Edge 105, Type (0, 0), BuildingBlock: XIVTED_clean_linker_0, # of connection points: 2
#     Edge 106, Type (0, 0), BuildingBlock: XIVTED_clean_linker_0, # of connection points: 2
#     Edge 107, Type (0, 0), BuildingBlock: XIVTED_clean_linker_0, # of connection points: 2
#     Edge 108, Type (0, 0), BuildingBlock: XIVTED_clean_linker_0, # of connection points: 2
#     Edge 109, Type (0, 0), BuildingBlock: XIVTED_clean_linker_0, # of connection points: 2
#     Edge 110, Type (0, 0), BuildingBlock: XIVTED_clean_linker_0, # of connection points: 2
#     Edge 111, Type (0, 0), BuildingBlock: XIVTED_clean_linker_0, # of connection points: 2
#     Edge 112, Type (0, 0), BuildingBlock: XIVTED_clean_linker_0, # of connection points: 2
#     Edge 113, Type (0, 0), BuildingBlock: XIVTED_clean_linker_0, # of connection points: 2
#     Edge 114, Type (0, 0), BuildingBlock: XIVTED_clean_linker_0, # of connection points: 2
#     Edge 115, Type (0, 0), BuildingBlock: XIVTED_clean_linker_0, # of connection points: 2
#     Edge 116, Type (0, 0), BuildingBlock: XIVTED_clean_linker_0, # of connection points: 2
#     Edge 117, Type (0, 0), BuildingBlock: XIVTED_clean_linker_0, # of connection points: 2
#     Edge 118, Type (0, 0), BuildingBlock: XIVTED_clean_linker_0, # of connection points: 2
#     Edge 119, Type (0, 0), BuildingBlock: XIVTED_clean_linker_0, # of connection points: 2
#     Edge 120, Type (0, 0), BuildingBlock: XIVTED_clean_linker_0, # of connection points: 2
#     Edge 121, Type (0, 0), BuildingBlock: XIVTED_clean_linker_0, # of connection points: 2
#     Edge 122, Type (0, 0), BuildingBlock: XIVTED_clean_linker_0, # of connection points: 2
#     Edge 123, Type (0, 0), BuildingBlock: XIVTED_clean_linker_0, # of connection points: 2
#     Edge 124, Type (0, 0), BuildingBlock: XIVTED_clean_linker_0, # of connection points: 2
#     Edge 125, Type (0, 0), BuildingBlock: XIVTED_clean_linker_0, # of connection points: 2
#     Edge 126, Type (0, 0), BuildingBlock: XIVTED_clean_linker_0, # of connection points: 2
#     Edge 127, Type (0, 0), BuildingBlock: XIVTED_clean_linker_0, # of connection points: 2
#     Edge 128, Type (0, 0), BuildingBlock: XIVTED_clean_linker_0, # of connection points: 2
#     Edge 129, Type (0, 0), BuildingBlock: XIVTED_clean_linker_0, # of connection points: 2
#     Edge 130, Type (0, 0), BuildingBlock: XIVTED_clean_linker_0, # of connection points: 2
#     Edge 131, Type (0, 0), BuildingBlock: XIVTED_clean_linker_0, # of connection points: 2
#     Edge 132, Type (0, 0), BuildingBlock: XIVTED_clean_linker_0, # of connection points: 2
#     Edge 133, Type (0, 0), BuildingBlock: XIVTED_clean_linker_0, # of connection points: 2
#     Edge 134, Type (0, 0), BuildingBlock: XIVTED_clean_linker_0, # of connection points: 2
#     Edge 135, Type (0, 0), BuildingBlock: XIVTED_clean_linker_0, # of connection points: 2
#     Edge 136, Type (0, 0), BuildingBlock: XIVTED_clean_linker_0, # of connection points: 2
#     Edge 137, Type (0, 0), BuildingBlock: XIVTED_clean_linker_0, # of connection points: 2
#     Edge 138, Type (0, 0), BuildingBlock: XIVTED_clean_linker_0, # of connection points: 2
#     Edge 139, Type (0, 0), BuildingBlock: XIVTED_clean_linker_0, # of connection points: 2
#     Edge 140, Type (0, 0), BuildingBlock: XIVTED_clean_linker_0, # of connection points: 2
#     Edge 141, Type (0, 0), BuildingBlock: XIVTED_clean_linker_0, # of connection points: 2
#     Edge 142, Type (0, 0), BuildingBlock: XIVTED_clean_linker_0, # of connection points: 2
#     Edge 143, Type (0, 0), BuildingBlock: XIVTED_clean_linker_0, # of connection points: 2
#     Edge 144, Type (0, 0), BuildingBlock: XIVTED_clean_linker_0, # of connection points: 2
#     Edge 145, Type (0, 0), BuildingBlock: XIVTED_clean_linker_0, # of connection points: 2
#     Edge 146, Type (0, 0), BuildingBlock: XIVTED_clean_linker_0, # of connection points: 2
#     Edge 147, Type (0, 0), BuildingBlock: XIVTED_clean_linker_0, # of connection points: 2
#     Edge 148, Type (0, 0), BuildingBlock: XIVTED_clean_linker_0, # of connection points: 2
#     Edge 149, Type (0, 0), BuildingBlock: XIVTED_clean_linker_0, # of connection points: 2
#     Edge 150, Type (0, 0), BuildingBlock: XIVTED_clean_linker_0, # of connection points: 2
#     Edge 151, Type (0, 0), BuildingBlock: XIVTED_clean_linker_0, # of connection points: 2
#     Edge 152, Type (0, 0), BuildingBlock: XIVTED_clean_linker_0, # of connection points: 2
#     Edge 153, Type (0, 0), BuildingBlock: XIVTED_clean_linker_0, # of connection points: 2
#     Edge 154, Type (0, 0), BuildingBlock: XIVTED_clean_linker_0, # of connection points: 2
#     Edge 155, Type (0, 0), BuildingBlock: XIVTED_clean_linker_0, # of connection points: 2
#     Edge 156, Type (0, 0), BuildingBlock: XIVTED_clean_linker_0, # of connection points: 2
#     Edge 157, Type (0, 0), BuildingBlock: XIVTED_clean_linker_0, # of connection points: 2
#     Edge 158, Type (0, 0), BuildingBlock: XIVTED_clean_linker_0, # of connection points: 2
#     Edge 159, Type (0, 0), BuildingBlock: XIVTED_clean_linker_0, # of connection points: 2
# Relax obj value: 0.060
# Max RMSD: 0.154
# Mean RMSD: 0.154
data_MOF--net-sou--node1-XADDAJ01_clean_sbu_3--edge1-XIVTED_clean_linker_0
_symmetry_space_group_name_H-M    P1
_symmetry_Int_Tables_number       1
_symmetry_cell_setting            triclinic
loop_
_symmetry_equiv_pos_as_xyz
'x, y, z'
_cell_length_a     83.301829
_cell_length_b     44.383949
_cell_length_c     41.248316
_cell_angle_alpha  89.963381
_cell_angle_beta   90.001838
_cell_angle_gamma 89.941547
loop_
_atom_site_label
_atom_site_type_symbol
_atom_site_fract_x
_atom_site_fract_y
_atom_site_fract_z
_atom_type_partial_charge
C0 C 0.07893 0.33211 0.01643 0.0
C1 C 0.08628 0.35968 0.00676 0.0
C2 C 0.10157 0.36758 0.01908 0.0
C3 C 0.10935 0.34768 0.04006 0.0
C4 C 0.1026 0.32003 0.04837 0.0
C5 C 0.08729 0.31253 0.03731 0.0
O6 O 0.02376 0.35676 0.03422 0.0
Tb7 Tb 0.03458 0.33239 0.99402 0.0
Tb8 Tb 1.01032 0.28677 0.04451 0.0
O9 O 0.03335 0.37604 0.97104 0.0
O10 O 0.02228 0.32067 0.07404 0.0
O11 O 0.05805 0.33421 0.97629 0.0
C12 C 0.9818 0.30062 0.03251 0.0
O13 O 0.05232 0.31185 0.02267 0.0
O14 O 0.02247 0.26256 0.00595 0.0
O15 O 0.02194 0.29819 0.96584 0.0
C16 C 0.06366 0.32074 0.00239 0.0
C17 C 0.0243 0.23184 0.07876 0.0
O18 O 0.03784 0.24512 0.07089 0.0
C19 C 0.02363 0.34901 0.06496 0.0
C20 C 0.02168 0.26977 0.97512 0.0
O21 O 1.01065 0.24526 0.07201 0.0
C22 C 0.96619 0.29361 0.01706 0.0
C23 C 0.94112 0.31417 -0.00353 0.0
C24 C 0.95661 0.31847 0.00848 0.0
C25 C 0.95972 0.26404 0.01449 0.0
C26 C 0.94406 0.25997 0.00178 0.0
C27 C 0.93521 0.28518 0.99228 0.0
C28 C 0.01967 0.39051 0.96871 0.0
O29 O 1.00618 0.37579 0.97325 0.0
O30 O 0.98616 0.28465 0.05788 0.0
O31 O 0.99392 0.30924 0.0141 0.0
H32 H 0.08035 0.37449 0.98965 0.0
H33 H 0.1213 0.35309 0.04885 0.0
H34 H 0.08223 0.29081 0.04369 0.0
H35 H 0.96092 0.34122 0.01254 0.0
H36 H 0.96657 0.24476 0.02274 0.0
H37 H 0.92293 0.28232 0.98389 0.0
C38 C 0.20811 0.9185 0.01753 0.0
C39 C 0.1983 0.8951 0.00448 0.0
C40 C 0.18328 0.88826 0.0189 0.0
C41 C 0.17883 0.90368 0.04705 0.0
C42 C 0.18759 0.92829 0.0582 0.0
C43 C 0.20227 0.93545 0.0439 0.0
O44 O 0.26276 0.89604 0.03546 0.0
Tb45 Tb 0.25243 0.9197 0.99411 0.0
Tb46 Tb 0.27759 0.96602 0.04367 0.0
O47 O 0.25571 0.87641 0.97083 0.0
O48 O 0.26592 0.93263 0.07448 0.0
O49 O 0.22891 0.9136 0.97701 0.0
C50 C 0.30607 0.95245 0.0311 0.0
O51 O 0.23419 0.94159 0.01975 0.0
O52 O 0.2651 0.98959 0.00516 0.0
O53 O 0.2646 0.95397 0.965 0.0
C54 C 0.22298 0.92947 0.00119 0.0
C55 C 0.26403 0.019 0.08209 0.0
O56 O 0.25104 0.00222 0.08184 0.0
C57 C 0.26402 0.90423 0.06597 0.0
C58 C 0.26584 0.98229 0.97438 0.0
O59 O 0.27731 0.00854 0.06919 0.0
C60 C 0.32159 0.95917 0.01508 0.0
C61 C 0.34619 0.93777 0.99318 0.0
C62 C 0.33075 0.93407 0.0057 0.0
C63 C 0.32843 0.98847 0.01284 0.0
C64 C 0.34401 0.99206 -0.0005 0.0
C65 C 0.35241 0.9666 0.98914 0.0
C66 C 0.26958 0.86251 0.97366 0.0
O67 O 0.28207 0.8779 0.98387 0.0
O68 O 0.30183 0.96872 0.05633 0.0
O69 O 0.29385 0.94333 0.01322 0.0
H70 H 0.20183 0.88363 0.98244 0.0
H71 H 0.16742 0.89861 0.05856 0.0
H72 H 0.20868 0.95525 0.05221 0.0
H73 H 0.32619 0.91146 0.00964 0.0
H74 H 0.32194 0.0079 0.02181 0.0
H75 H 0.36467 0.96906 0.98052 0.0
C76 C 0.07878 0.91522 0.22206 0.0
C77 C 0.08712 0.88892 0.23273 0.0
C78 C 0.10232 0.88159 0.21938 0.0
C79 C 0.10902 0.90085 0.19629 0.0
C80 C 0.10139 0.92744 0.18706 0.0
C81 C 0.08623 0.93439 0.19937 0.0
O82 O 0.02289 0.89358 0.20456 0.0
Tb83 Tb 0.03409 0.91719 0.2449 0.0
Tb84 Tb 1.01104 0.96425 0.19342 0.0
O85 O 0.03079 0.87442 0.26922 0.0
O86 O 0.02276 0.92942 0.16454 0.0
O87 O 0.05762 0.91144 0.26199 0.0
C88 C 0.98213 0.95223 0.20432 0.0
O89 O 0.05241 0.93722 0.21752 0.0
O90 O 0.02301 0.98825 0.2324 0.0
O91 O 0.02225 0.95272 0.27277 0.0
C92 C 0.06356 0.92617 0.23701 0.0
C93 C 0.02599 0.01917 0.16085 0.0
O94 O 0.03915 0.00737 0.173 0.0
C95 C 0.02308 0.90102 0.17376 0.0
C96 C 0.02224 0.98111 0.26327 0.0
O97 O 1.01233 0.00477 0.16433 0.0
C98 C 0.96645 0.9593 0.21965 0.0
C99 C 0.94165 0.9386 0.24144 0.0
C100 C 0.95714 0.93444 0.2293 0.0
C101 C 0.95967 0.98876 0.22129 0.0
C102 C 0.94398 0.99272 0.23395 0.0
C103 C 0.93541 0.96753 0.2444 0.0
C104 C 1.01683 0.8608 0.26738 0.0
O105 O 1.00425 0.87639 0.25787 0.0
O106 O 0.98696 0.96882 0.17979 0.0
O107 O 0.99398 0.94204 0.22255 0.0
H108 H 0.08202 0.87465 0.25137 0.0
H109 H 0.12093 0.89611 0.18678 0.0
H110 H 0.0806 0.95548 0.19247 0.0
H111 H 0.96169 0.91172 0.22616 0.0
H112 H 0.96635 0.00803 0.21249 0.0
H113 H 0.92315 0.97031 0.25293 0.0
C114 C 0.20611 0.33356 0.22813 0.0
C115 C 0.19721 0.35909 0.23884 0.0
C116 C 0.18246 0.36659 0.22379 0.0
C117 C 0.17672 0.34823 0.19884 0.0
C118 C 0.185 0.32246 0.1892 0.0
C119 C 0.19968 0.31527 0.20346 0.0
O120 O 0.25776 0.35614 0.20057 0.0
Tb121 Tb 0.25079 0.33347 0.24526 0.0
Tb122 Tb 0.27547 0.28385 0.19703 0.0
O123 O 0.25552 0.37691 0.26696 0.0
O124 O 0.27018 0.32199 0.16547 0.0
O125 O 0.22801 0.34114 0.26556 0.0
C126 C 0.30407 0.28335 0.21452 0.0
O127 O 0.23173 0.30932 0.22536 0.0
O128 O 0.26008 0.26523 0.23438 0.0
O129 O 0.26385 0.29995 0.27369 0.0
C130 C 0.22122 0.32334 0.24402 0.0
C131 C 0.25853 0.23152 0.16301 0.0
O132 O 0.24629 0.24088 0.18037 0.0
C133 C 0.26427 0.34887 0.17248 0.0
C134 C 0.26284 0.27157 0.26485 0.0
O135 O 0.27194 0.24708 0.16323 0.0
C136 C 0.32104 0.28299 0.2249 0.0
C137 C 0.34507 0.3109 0.23896 0.0
C138 C 0.32893 0.3106 0.22982 0.0
C139 C 0.3297 0.25561 0.22841 0.0
C140 C 0.34593 0.25624 0.23819 0.0
C141 C 0.35329 0.28391 0.24364 0.0
C142 C 0.2694 0.39002 0.26158 0.0
O143 O 0.28115 0.37392 0.24923 0.0
O144 O 0.29832 0.26393 0.19353 0.0
O145 O 0.29366 0.30332 0.2255 0.0
H146 H 0.20159 0.3728 0.25867 0.0
H147 H 0.16519 0.3532 0.18775 0.0
H148 H 0.20579 0.29482 0.19603 0.0
H149 H 0.3227 0.33173 0.22569 0.0
H150 H 0.32389 0.2342 0.22384 0.0
H151 H 0.36594 0.28452 0.25005 0.0
C152 C 0.07163 0.71001 0.97663 0.0
C153 C 0.07954 0.73829 0.97365 0.0
C154 C 0.0953 0.74185 0.98595 0.0
C155 C 0.10263 0.71765 0.00174 0.0
C156 C 0.09545 0.6893 0.00265 0.0
C157 C 0.07983 0.68575 0.99093 0.0
O158 O 1.01478 0.73768 0.98328 0.0
Tb159 Tb 0.02804 0.71471 0.9454 0.0
Tb160 Tb 1.00047 0.66921 0.99286 0.0
O161 O 0.02778 0.75714 0.91955 0.0
O162 O 1.01357 0.70158 0.02273 0.0
O163 O 0.05239 0.71853 0.93415 0.0
C164 C 0.97114 0.68041 0.98738 0.0
O165 O 0.04415 0.69246 0.97661 0.0
O166 O 1.00938 0.64503 0.95058 0.0
O167 O 1.01753 0.6812 0.91321 0.0
C168 C 0.05649 0.70241 0.95959 0.0
C169 C 1.01668 0.61131 0.01484 0.0
O170 O 0.02984 0.62676 0.00926 0.0
C171 C 1.01532 0.72995 0.01395 0.0
C172 C 1.01318 0.65355 0.921 0.0
O173 O 1.00277 0.62519 0.01457 0.0
C174 C 0.95641 0.66934 0.97066 0.0
C175 C 0.93661 0.67831 0.92847 0.0
C176 C 0.95097 0.68583 0.94366 0.0
C177 C 0.94647 0.646 0.98345 0.0
C178 C 0.9317 0.63879 0.96819 0.0
C179 C 0.92768 0.65382 0.93946 0.0
C180 C 1.01433 0.7683 0.90811 0.0
O181 O 1.00109 0.75237 0.91033 0.0
O182 O 0.97711 0.66403 0.01113 0.0
O183 O 0.98232 0.69287 0.96896 0.0
H184 H 0.07393 0.75657 0.96041 0.0
H185 H 0.11495 0.72007 0.00994 0.0
H186 H 0.07457 0.66339 0.99053 0.0
H187 H 0.95746 0.70558 0.93542 0.0
H188 H 0.94972 0.63481 0.00586 0.0
H189 H 0.91648 0.64857 0.92725 0.0
C190 C 0.71618 0.03368 0.97549 0.0
C191 C 0.70738 0.00655 0.97973 0.0
C192 C 0.69117 0.00767 0.98981 0.0
C193 C 0.68396 0.03569 -0.00551 0.0
C194 C 0.69231 0.06237 0.98904 0.0
C195 C 0.70844 0.06155 0.97991 0.0
O196 O 0.77722 0.01543 0.9847 0.0
Tb197 Tb 0.76175 0.0336 0.94729 0.0
Tb198 Tb 0.78679 0.08318 -0.00493 0.0
O199 O 0.76543 0.99641 0.91402 0.0
O200 O 0.77381 0.05014 0.0241 0.0
O201 O 0.73879 0.01398 0.94399 0.0
C202 C 0.81621 0.07229 0.99167 0.0
O203 O 0.74365 0.05339 0.97575 0.0
O204 O 0.77851 0.10639 0.95164 0.0
O205 O 0.76735 0.07151 0.91567 0.0
C206 C 0.73315 0.03353 0.96498 0.0
C207 C 0.76982 0.14083 0.01527 0.0
O208 O 0.75688 0.12529 0.00814 0.0
C209 C 0.77443 0.02177 0.01514 0.0
C210 C 0.77259 0.09876 0.92313 0.0
O211 O 0.78376 0.12713 0.01644 0.0
C212 C 0.83146 0.0829 0.97687 0.0
C213 C 0.85447 0.06997 0.94341 0.0
C214 C 0.83937 0.06288 0.9558 0.0
C215 C 0.83913 0.11041 0.9856 0.0
C216 C 0.85425 0.11785 0.9721 0.0
C217 C 0.86155 0.09754 0.95084 0.0
C218 C 0.77889 0.98095 0.91427 0.0
O219 O 0.79102 0.9906 0.93171 0.0
O220 O 0.80975 0.08859 0.01494 0.0
O221 O 0.80549 0.06015 0.97199 0.0
H222 H 0.71309 0.98496 0.97561 0.0
H223 H 0.67133 0.03684 0.00093 0.0
H224 H 0.71477 0.08247 0.97532 0.0
H225 H 0.83411 0.04117 0.95011 0.0
H226 H 0.83357 0.1256 0.0028 0.0
H227 H 0.87337 0.10257 0.94112 0.0
C228 C 0.07065 0.04004 0.76441 0.0
C229 C 0.07879 0.01204 0.76821 0.0
C230 C 0.09442 0.00825 0.75531 0.0
C231 C 0.10142 0.03196 0.73808 0.0
C232 C 0.09409 0.06019 0.73636 0.0
C233 C 0.07856 0.06388 0.74866 0.0
O234 O 1.01454 0.01247 0.75596 0.0
Tb235 Tb 0.02679 0.03654 0.79444 0.0
Tb236 Tb 1.00228 0.08235 0.74334 0.0
O237 O 0.02557 0.99663 0.82461 0.0
O238 O 1.0147 0.04762 0.71529 0.0
O239 O 0.05104 0.03112 0.80636 0.0
C240 C 0.97305 0.07153 0.75143 0.0
O241 O 0.04348 0.05916 0.76496 0.0
O242 O 1.01311 0.10703 0.78333 0.0
O243 O 1.01553 0.07155 0.82372 0.0
C244 C 0.05558 0.04793 0.78176 0.0
C245 C 1.01859 0.13948 0.71997 0.0
O246 O 0.03152 0.12375 0.7269 0.0
C247 C 1.01542 0.01933 0.72506 0.0
C248 C 1.01403 0.09974 0.81415 0.0
O249 O 1.00462 0.12576 0.71992 0.0
C250 C 0.95768 0.08182 0.76625 0.0
C251 C 0.93532 0.06862 0.80139 0.0
C252 C 0.95061 0.06254 0.78929 0.0
C253 C 0.94896 0.1076 0.7554 0.0
C254 C 0.93364 0.11413 0.76867 0.0
C255 C 0.92719 0.09455 0.79174 0.0
C256 C 1.01216 0.98123 0.82682 0.0
O257 O 0.99915 0.9917 0.81275 0.0
O258 O 0.97869 0.08621 0.72612 0.0
O259 O 0.9844 0.0615 0.7711 0.0
H260 H 0.07347 0.99418 0.78251 0.0
H261 H 0.11365 0.0294 0.7294 0.0
H262 H 0.07316 0.08614 0.74833 0.0
H263 H 0.95666 0.04201 0.79669 0.0
H264 H 0.95387 0.1221 0.73676 0.0
H265 H 0.91526 0.09882 0.80136 0.0
C266 C 0.71709 0.71055 0.76476 0.0
C267 C 0.71004 0.7398 0.7643 0.0
C268 C 0.69438 0.74372 0.7514 0.0
C269 C 0.68611 0.71866 0.7397 0.0
C270 C 0.69258 0.6898 0.74187 0.0
C271 C 0.70809 0.68581 0.75389 0.0
O272 O 0.77437 0.73834 0.75542 0.0
Tb273 Tb 0.76115 0.71574 0.79364 0.0
Tb274 Tb 0.78456 0.66806 0.74265 0.0
O275 O 0.76135 0.75867 0.81835 0.0
O276 O 0.77276 0.70352 0.71476 0.0
O277 O 0.7369 0.7184 0.80636 0.0
C278 C 0.8141 0.67661 0.74948 0.0
O279 O 0.74481 0.6945 0.7622 0.0
O280 O 0.77367 0.6452 0.78376 0.0
O281 O 0.77253 0.68129 0.82364 0.0
C282 C 0.73262 0.70317 0.78042 0.0
C283 C 0.76647 0.61225 0.72169 0.0
O284 O 0.75422 0.62841 0.7318 0.0
C285 C 0.77289 0.73176 0.72456 0.0
C286 C 0.77354 0.65289 0.81449 0.0
O287 O 0.78055 0.6253 0.71884 0.0
C288 C 0.82931 0.66613 0.76473 0.0
C289 C 0.85211 0.67991 0.79841 0.0
C290 C 0.83694 0.68641 0.78596 0.0
C291 C 0.83748 0.63917 0.7556 0.0
C292 C 0.85268 0.6323 0.76923 0.0
C293 C 0.85953 0.65266 0.79101 0.0
C294 C 0.7738 0.76787 0.83508 0.0
O295 O 0.78606 0.74966 0.83933 0.0
O296 O 0.80795 0.66096 0.72537 0.0
O297 O 0.80311 0.68864 0.76866 0.0
H298 H 0.71643 0.75889 0.7743 0.0
H299 H 0.67382 0.72137 0.73139 0.0
H300 H 0.71283 0.66314 0.75637 0.0
H301 H 0.83147 0.708 0.79147 0.0
H302 H 0.83227 0.62409 0.73785 0.0
H303 H 0.87146 0.64833 0.80059 0.0
C304 C 0.07952 0.83584 0.51323 0.0
C305 C 0.08766 0.86178 0.50114 0.0
C306 C 0.10267 0.87033 0.51443 0.0
C307 C 0.10936 0.85278 0.53906 0.0
C308 C 0.10191 0.82656 0.54986 0.0
C309 C 0.08699 0.81824 0.53735 0.0
O310 O 0.02435 0.85606 0.53413 0.0
Tb311 Tb 0.03479 0.83254 0.49291 0.0
Tb312 Tb 1.00994 0.78592 0.544 0.0
O313 O 0.03096 0.87593 0.47005 0.0
O314 O 0.02161 0.82004 0.57397 0.0
O315 O 0.05797 0.83851 0.47414 0.0
C316 C 0.98142 0.79922 0.53125 0.0
O317 O 0.05361 0.81242 0.51875 0.0
O318 O 0.02262 0.76242 0.50566 0.0
O319 O 0.02259 0.79759 0.46495 0.0
C320 C 0.0644 0.82392 0.49875 0.0
C321 C 0.02338 0.73251 0.58249 0.0
O322 O 0.03654 0.74879 0.58193 0.0
C323 C 0.0233 0.84834 0.56481 0.0
C324 C 0.02166 0.76936 0.47478 0.0
O325 O 1.01015 0.74343 0.56981 0.0
C326 C 0.96575 0.79253 0.51579 0.0
C327 C 0.94103 0.81396 0.49454 0.0
C328 C 0.9565 0.81769 0.50679 0.0
C329 C 0.95892 0.76318 0.51343 0.0
C330 C 0.94325 0.75965 0.50044 0.0
C331 C 0.93476 0.78519 0.49061 0.0
C332 C 1.01696 0.88932 0.47312 0.0
O333 O 1.00461 0.87334 0.48298 0.0
O334 O 0.9857 0.7835 0.55687 0.0
O335 O 0.9936 0.80782 0.51297 0.0
H336 H 0.08256 0.87486 0.4815 0.0
H337 H 0.12109 0.85861 0.54871 0.0
H338 H 0.08153 0.79739 0.54547 0.0
H339 H 0.96108 0.84029 0.51061 0.0
H340 H 0.96552 0.74369 0.52194 0.0
H341 H 0.92248 0.78284 0.48207 0.0
C342 C 0.2065 0.41858 0.51155 0.0
C343 C 0.19789 0.39264 0.50109 0.0
C344 C 0.18386 0.38347 0.51775 0.0
C345 C 0.17866 0.40034 0.54438 0.0
C346 C 0.1865 0.42674 0.55353 0.0
C347 C 0.20034 0.4358 0.53731 0.0
O348 O 0.25716 0.39683 0.53834 0.0
Tb349 Tb 0.25058 0.41937 0.49332 0.0
Tb350 Tb 0.27688 0.46767 0.54139 0.0
O351 O 0.2542 0.37527 0.47266 0.0
O352 O 0.27166 0.42918 0.57234 0.0
O353 O 0.22782 0.41262 0.47274 0.0
C354 C 0.30547 0.46777 0.52392 0.0
O355 O 0.2317 0.44406 0.51321 0.0
O356 O 0.26145 0.4865 0.50425 0.0
O357 O 0.264 0.45195 0.46441 0.0
C358 C 0.22111 0.42996 0.49481 0.0
C359 C 0.2596 0.5202 0.57466 0.0
O360 O 0.24743 0.51048 0.55736 0.0
C361 C 0.26453 0.40332 0.56577 0.0
C362 C 0.26399 0.48026 0.47369 0.0
O363 O 0.27309 0.50481 0.57475 0.0
C364 C 0.32244 0.46802 0.51357 0.0
C365 C 0.34645 0.44023 0.49875 0.0
C366 C 0.3303 0.44043 0.50791 0.0
C367 C 0.33109 0.4954 0.5106 0.0
C368 C 0.34728 0.49495 0.50065 0.0
C369 C 0.35467 0.46728 0.49479 0.0
C370 C 0.26807 0.36152 0.47563 0.0
O371 O 0.2808 0.37707 0.4841 0.0
O372 O 0.29987 0.4867 0.54562 0.0
O373 O 0.2949 0.44858 0.51209 0.0
H374 H 0.20191 0.37995 0.48019 0.0
H375 H 0.16758 0.3942 0.5566 0.0
H376 H 0.20603 0.45679 0.54428 0.0
H377 H 0.32403 0.41928 0.51141 0.0
H378 H 0.32526 0.51674 0.51554 0.0
H379 H 0.36732 0.46667 0.48839 0.0
C380 C 0.07962 0.41871 0.72188 0.0
C381 C 0.08793 0.39231 0.73232 0.0
C382 C 0.10306 0.38492 0.71878 0.0
C383 C 0.10972 0.4042 0.69566 0.0
C384 C 0.10208 0.43084 0.68658 0.0
C385 C 0.08698 0.43786 0.69911 0.0
O386 O 0.02407 0.39412 0.70577 0.0
Tb387 Tb 0.03533 0.41811 0.74562 0.0
Tb388 Tb 1.00994 0.46494 0.69587 0.0
O389 O 0.03363 0.37402 0.76769 0.0
O390 O 0.02143 0.43024 0.66615 0.0
O391 O 0.05895 0.41499 0.76252 0.0
C392 C 0.98057 0.45505 0.70403 0.0
O393 O 0.05296 0.43945 0.71751 0.0
O394 O 0.02034 0.48862 0.737 0.0
O395 O 0.02276 0.45108 0.77552 0.0
C396 C 0.06444 0.42953 0.73698 0.0
C397 C 0.02608 0.5206 0.66692 0.0
O398 O 0.03823 0.5107 0.68424 0.0
C399 C 0.02311 0.40189 0.67513 0.0
C400 C 0.02063 0.47951 0.7673 0.0
O401 O 1.01278 0.50474 0.66591 0.0
C402 C 0.96563 0.46417 0.72105 0.0
C403 C 0.93993 0.44768 0.74317 0.0
C404 C 0.95473 0.44101 0.72866 0.0
C405 C 0.96089 0.49464 0.72588 0.0
C406 C 0.94625 0.50098 0.74196 0.0
C407 C 0.93691 0.47711 0.75315 0.0
C408 C 0.01971 0.36018 0.76855 0.0
O409 O 1.00661 0.37587 0.76292 0.0
O410 O 0.98624 0.47301 0.68143 0.0
O411 O 0.9919 0.4416 0.72112 0.0
H412 H 0.08285 0.37797 0.75093 0.0
H413 H 0.12157 0.39936 0.68592 0.0
H414 H 0.08133 0.45895 0.69228 0.0
H415 H 0.95738 0.4181 0.72126 0.0
H416 H 0.96822 0.51292 0.71677 0.0
H417 H 0.92582 0.48203 0.76593 0.0
C418 C 0.2081 0.83371 0.72402 0.0
C419 C 0.19802 0.85615 0.73814 0.0
C420 C 0.18287 0.86284 0.72421 0.0
C421 C 0.17848 0.84817 0.69558 0.0
C422 C 0.18771 0.82483 0.68285 0.0
C423 C 0.20249 0.8177 0.69678 0.0
O424 O 0.26214 0.85651 0.70309 0.0
Tb425 Tb 0.25264 0.833 0.74525 0.0
Tb426 Tb 0.27676 0.78588 0.69531 0.0
O427 O 0.2563 0.87612 0.76848 0.0
O428 O 0.26559 0.81973 0.66415 0.0
O429 O 0.22932 0.83907 0.76353 0.0
C430 C 0.30524 0.79897 0.7085 0.0
O431 O 0.23417 0.81063 0.72094 0.0
O432 O 0.26353 0.76324 0.7336 0.0
O433 O 0.26528 0.79878 0.77342 0.0
C434 C 0.22314 0.82289 0.73986 0.0
C435 C 0.26421 0.73331 0.65436 0.0
O436 O 0.25188 0.75138 0.65021 0.0
C437 C 0.26345 0.84812 0.67264 0.0
C438 C 0.26486 0.77037 0.76434 0.0
O439 O 0.27668 0.74274 0.67091 0.0
C440 C 0.32083 0.79207 0.7242 0.0
C441 C 0.34564 0.81313 0.74547 0.0
C442 C 0.33011 0.81705 0.73341 0.0
C443 C 0.32763 0.76269 0.72615 0.0
C444 C 0.3433 0.7589 0.73899 0.0
C445 C 0.35183 0.78421 0.7492 0.0
C446 C 0.27022 0.88964 0.76503 0.0
O447 O 0.28249 0.87387 0.75434 0.0
O448 O 0.30103 0.78321 0.6829 0.0
O449 O 0.29301 0.80773 0.72655 0.0
H450 H 0.20148 0.86704 0.76056 0.0
H451 H 0.16691 0.85306 0.68458 0.0
H452 H 0.20921 0.79873 0.68729 0.0
H453 H 0.32557 0.83972 0.72971 0.0
H454 H 0.32103 0.74336 0.7173 0.0
H455 H 0.36413 0.78156 0.75751 0.0
C456 C 0.07043 0.21133 0.46852 0.0
C457 C 0.07698 0.24074 0.47243 0.0
C458 C 0.09273 0.24419 0.48496 0.0
C459 C 0.10162 0.21851 0.4928 0.0
C460 C 0.09559 0.18977 0.48742 0.0
C461 C 0.08002 0.18611 0.47564 0.0
O462 O 1.01386 0.23833 0.48381 0.0
Tb463 Tb 0.02551 0.21514 0.44384 0.0
Tb464 Tb 1.00313 0.16779 0.49598 0.0
O465 O 0.02281 0.25489 0.41385 0.0
O466 O 1.01549 0.2027 0.52383 0.0
O467 O 0.04937 0.22317 0.4305 0.0
C468 C 0.97359 0.17719 0.48991 0.0
O469 O 0.04327 0.19223 0.47051 0.0
O470 O 1.0131 0.14397 0.45446 0.0
O471 O 1.01446 0.17999 0.41445 0.0
C472 C 0.05472 0.20488 0.45312 0.0
C473 C 0.02095 0.11116 0.51564 0.0
O474 O 0.03321 0.12715 0.5054 0.0
C475 C 1.01534 0.23115 0.51454 0.0
C476 C 1.01346 0.15164 0.42371 0.0
O477 O 1.00698 0.12459 0.51916 0.0
C478 C 0.95866 0.16612 0.47391 0.0
C479 C 0.93836 0.17509 0.43258 0.0
C480 C 0.95305 0.18224 0.44674 0.0
C481 C 0.94863 0.14344 0.48775 0.0
C482 C 0.93355 0.13667 0.47357 0.0
C483 C 0.92916 0.15157 0.44503 0.0
C484 C 1.00933 0.27027 0.41425 0.0
O485 O 0.99702 0.25977 0.43061 0.0
O486 O 0.97976 0.16134 0.5139 0.0
O487 O 0.98463 0.18947 0.47103 0.0
H488 H 0.07009 0.2604 0.46543 0.0
H489 H 0.11395 0.22088 0.50099 0.0
H490 H 0.07563 0.16356 0.4707 0.0
H491 H 0.95971 0.20138 0.43747 0.0
H492 H 0.95209 0.13243 0.51013 0.0
H493 H 0.91764 0.14672 0.43388 0.0
C494 C 0.71605 0.54024 0.46837 0.0
C495 C 0.70989 0.51043 0.4713 0.0
C496 C 0.69402 0.50598 0.48287 0.0
C497 C 0.6847 0.531 0.49096 0.0
C498 C 0.69042 0.5601 0.48664 0.0
C499 C 0.70607 0.5648 0.47579 0.0
O500 O 0.77236 0.5121 0.48219 0.0
Tb501 Tb 0.76067 0.53611 0.4429 0.0
Tb502 Tb 0.78435 0.58321 0.49482 0.0
O503 O 0.76193 0.49514 0.41455 0.0
O504 O 0.77261 0.54764 0.52277 0.0
O505 O 0.73669 0.53223 0.42856 0.0
C506 C 0.81379 0.57431 0.48649 0.0
O507 O 0.74351 0.55742 0.47256 0.0
O508 O 0.77252 0.60663 0.45509 0.0
O509 O 0.7724 0.57135 0.41452 0.0
C510 C 0.73177 0.54789 0.4537 0.0
C511 C 0.76732 0.64013 0.51734 0.0
O512 O 0.75461 0.62462 0.50854 0.0
C513 C 0.77157 0.51938 0.51302 0.0
C514 C 0.77263 0.59964 0.42419 0.0
O515 O 0.7813 0.62642 0.51853 0.0
C516 C 0.82923 0.58565 0.473 0.0
C517 C 0.85351 0.57306 0.44295 0.0
C518 C 0.83794 0.56583 0.45289 0.0
C519 C 0.83652 0.61321 0.48295 0.0
C520 C 0.85208 0.62081 0.47172 0.0
C521 C 0.86017 0.6007 0.45152 0.0
C522 C 0.77566 0.48118 0.41019 0.0
O523 O 0.78893 0.49368 0.42088 0.0
O524 O 0.80781 0.58771 0.51229 0.0
O525 O 0.80269 0.5646 0.46609 0.0
H526 H 0.71714 0.49127 0.46417 0.0
H527 H 0.67233 0.52782 0.49864 0.0
H528 H 0.7102 0.58766 0.47161 0.0
H529 H 0.83295 0.54411 0.44636 0.0
H530 H 0.83036 0.6282 0.49951 0.0
H531 H 0.87226 0.60605 0.44348 0.0
C532 C 0.06971 0.54197 0.26673 0.0
C533 C 0.07615 0.51238 0.26407 0.0
C534 C 0.09191 0.50831 0.25182 0.0
C535 C 0.10088 0.53357 0.24297 0.0
C536 C 0.09491 0.56261 0.24708 0.0
C537 C 0.07932 0.5668 0.25858 0.0
O538 O 1.01283 0.51303 0.25528 0.0
Tb539 Tb 0.02551 0.53592 0.29403 0.0
Tb540 Tb 1.00333 0.58341 0.24254 0.0
O541 O 0.0254 0.49311 0.31897 0.0
O542 O 1.01522 0.54793 0.21485 0.0
O543 O 0.04965 0.53405 0.30761 0.0
C544 C 0.9739 0.5741 0.25037 0.0
O545 O 0.04195 0.55726 0.26284 0.0
O546 O 1.01456 0.60629 0.28331 0.0
O547 O 1.0139 0.57053 0.32337 0.0
C548 C 0.05402 0.54918 0.28166 0.0
C549 C 0.02061 0.64009 0.22094 0.0
O550 O 0.03317 0.62444 0.23043 0.0
C551 C 1.01469 0.51964 0.22449 0.0
C552 C 1.01398 0.59895 0.31414 0.0
O553 O 1.00665 0.62646 0.21882 0.0
C554 C 0.95868 0.58508 0.26535 0.0
C555 C 0.93712 0.57455 0.30356 0.0
C556 C 0.95244 0.56842 0.29157 0.0
C557 C 0.94901 0.60807 0.25106 0.0
C558 C 0.93344 0.6141 0.2633 0.0
C559 C 0.92804 0.59783 0.29019 0.0
C560 C 1.01291 0.48362 0.33537 0.0
O561 O 1.00047 0.5015 0.33918 0.0
O562 O 0.9798 0.5888 0.22532 0.0
O563 O 0.9851 0.56322 0.26986 0.0
H564 H 0.06919 0.49307 0.27179 0.0
H565 H 0.11322 0.53063 0.23506 0.0
H566 H 0.07493 0.58954 0.26251 0.0
H567 H 0.95912 0.54959 0.30156 0.0
H568 H 0.95317 0.61999 0.22974 0.0
H569 H 0.91615 0.6022 0.2999 0.0
C570 C 0.71649 0.20887 0.26855 0.0
C571 C 0.70993 0.23848 0.26676 0.0
C572 C 0.69437 0.24284 0.25357 0.0
C573 C 0.68573 0.21785 0.24276 0.0
C574 C 0.69176 0.18879 0.2461 0.0
C575 C 0.70711 0.18428 0.25866 0.0
O576 O 0.77136 0.23856 0.25279 0.0
Tb577 Tb 0.76095 0.21398 0.29312 0.0
Tb578 Tb 0.78578 0.16818 0.24184 0.0
O579 O 0.76224 0.25432 0.32248 0.0
O580 O 0.7735 0.20233 0.21286 0.0
O581 O 0.73707 0.21836 0.30808 0.0
C582 C 0.81489 0.17863 0.25166 0.0
O583 O 0.74368 0.1906 0.26583 0.0
O584 O 0.77372 0.14414 0.28084 0.0
O585 O 0.7733 0.17937 0.32132 0.0
C586 C 0.73201 0.20132 0.28414 0.0
C587 C 0.7708 0.11009 0.21726 0.0
O588 O 0.75741 0.12532 0.22135 0.0
C589 C 0.77123 0.23048 0.22212 0.0
C590 C 0.77379 0.15108 0.31175 0.0
O591 O 0.78455 0.12434 0.21926 0.0
C592 C 0.82983 0.1664 0.2665 0.0
C593 C 0.85212 0.17573 0.30316 0.0
C594 C 0.83725 0.18408 0.29047 0.0
C595 C 0.83792 0.1402 0.2548 0.0
C596 C 0.85285 0.13147 0.2684 0.0
C597 C 0.85951 0.14922 0.2929 0.0
C598 C 0.7757 0.26944 0.32523 0.0
O599 O 0.78885 0.2585 0.31213 0.0
O600 O 0.80945 0.16564 0.22516 0.0
O601 O 0.80337 0.18787 0.2714 0.0
H602 H 0.71665 0.25756 0.27588 0.0
H603 H 0.67353 0.22087 0.234 0.0
H604 H 0.71146 0.16144 0.26207 0.0
H605 H 0.83184 0.20514 0.29816 0.0
H606 H 0.83284 0.12709 0.23519 0.0
H607 H 0.87124 0.14352 0.30263 0.0
C608 C 0.57956 0.33396 0.51721 0.0
C609 C 0.58819 0.35994 0.50663 0.0
C610 C 0.60316 0.36736 0.52094 0.0
C611 C 0.60932 0.34845 0.54503 0.0
C612 C 0.60143 0.32217 0.55429 0.0
C613 C 0.58655 0.31506 0.5408 0.0
O614 O 0.52441 0.35657 0.5356 0.0
Tb615 Tb 0.535 0.3331 0.49452 0.0
Tb616 Tb 0.50967 0.28655 0.54398 0.0
O617 O 0.53164 0.37659 0.47168 0.0
O618 O 0.52126 0.32004 0.57473 0.0
O619 O 0.55849 0.33892 0.47723 0.0
C620 C 0.4811 0.29964 0.53128 0.0
O621 O 0.55329 0.31161 0.52061 0.0
O622 O 0.52231 0.2632 0.50553 0.0
O623 O 0.52272 0.29898 0.46551 0.0
C624 C 0.56445 0.32329 0.50158 0.0
C625 C 0.52371 0.23436 0.58289 0.0
O626 O 0.53664 0.25126 0.58163 0.0
C627 C 0.52318 0.34841 0.56612 0.0
C628 C 0.52161 0.27061 0.47475 0.0
O629 O 0.51027 0.24443 0.5703 0.0
C630 C 0.46567 0.29306 0.51467 0.0
C631 C 0.44209 0.31503 0.48897 0.0
C632 C 0.45756 0.31806 0.5016 0.0
C633 C 0.45753 0.26488 0.5166 0.0
C634 C 0.44177 0.26206 0.50388 0.0
C635 C 0.4349 0.28675 0.48807 0.0
C636 C 0.51757 0.38992 0.47367 0.0
O637 O 0.50508 0.3739 0.48268 0.0
O638 O 0.48537 0.2829 0.55615 0.0
O639 O 0.49334 0.30956 0.51395 0.0
H640 H 0.58347 0.37394 0.48734 0.0
H641 H 0.62106 0.3531 0.55532 0.0
H642 H 0.58074 0.29417 0.54771 0.0
H643 H 0.46281 0.34037 0.50332 0.0
H644 H 0.46295 0.24612 0.52936 0.0
H645 H 0.42273 0.2849 0.47878 0.0
C646 C 0.70798 0.91838 0.51353 0.0
C647 C 0.69909 0.89333 0.50147 0.0
C648 C 0.68405 0.88584 0.51531 0.0
C649 C 0.678 0.9037 0.54037 0.0
C650 C 0.68628 0.92894 0.55146 0.0
C651 C 0.70127 0.93608 0.53845 0.0
O652 O 0.76246 0.89474 0.53408 0.0
Tb653 Tb 0.75266 0.91892 0.49267 0.0
Tb654 Tb 0.77683 0.96485 0.54399 0.0
O655 O 0.75621 0.87541 0.46998 0.0
O656 O 0.76524 0.93069 0.57385 0.0
O657 O 0.72935 0.91365 0.47421 0.0
C658 C 0.80578 0.95302 0.53333 0.0
O659 O 0.73421 0.94062 0.51796 0.0
O660 O 0.76525 0.98883 0.50455 0.0
O661 O 0.76539 0.95309 0.46449 0.0
C662 C 0.72319 0.92918 0.49843 0.0
C663 C 0.76145 0.01896 0.57695 0.0
O664 O 0.7485 0.00738 0.56374 0.0
C665 C 0.76346 0.90245 0.56473 0.0
C666 C 0.76631 0.98146 0.4738 0.0
O667 O 0.77518 0.00472 0.57389 0.0
C668 C 0.82101 0.95979 0.51605 0.0
C669 C 0.8443 0.93806 0.48907 0.0
C670 C 0.82886 0.93506 0.50186 0.0
C671 C 0.82929 0.98777 0.51846 0.0
C672 C 0.84496 0.99066 0.5054 0.0
C673 C 0.85173 0.96617 0.48909 0.0
C674 C 0.77012 0.86173 0.47344 0.0
O675 O 0.78251 0.87751 0.48344 0.0
O676 O 0.80096 0.97127 0.55646 0.0
O677 O 0.79388 0.94076 0.51684 0.0
H678 H 0.7037 0.88003 0.48153 0.0
H679 H 0.66629 0.89862 0.5506 0.0
H680 H 0.70741 0.95612 0.54693 0.0
H681 H 0.82346 0.91283 0.50293 0.0
H682 H 0.82407 0.00633 0.53186 0.0
H683 H 0.86392 0.96802 0.47996 0.0
C684 C 0.57951 0.91614 0.72362 0.0
C685 C 0.58722 0.88874 0.73294 0.0
C686 C 0.60269 0.88166 0.72076 0.0
C687 C 0.61029 0.90223 0.7003 0.0
C688 C 0.60323 0.92971 0.69228 0.0
C689 C 0.58775 0.93639 0.7032 0.0
O690 O 0.52314 0.89471 0.70475 0.0
Tb691 Tb 0.53465 0.91681 0.74553 0.0
Tb692 Tb 0.51204 0.9661 0.69505 0.0
O693 O 0.53169 0.87302 0.76773 0.0
O694 O 0.52368 0.93142 0.6657 0.0
O695 O 0.55813 0.91196 0.76292 0.0
C696 C 0.48267 0.95539 0.70216 0.0
O697 O 0.5529 0.9374 0.71821 0.0
O698 O 0.52279 0.98833 0.73675 0.0
O699 O 0.52209 0.95035 0.77472 0.0
C700 C 0.56406 0.92675 0.73796 0.0
C701 C 0.52768 0.02252 0.6666 0.0
O702 O 0.53971 0.01377 0.68494 0.0
C703 C 0.52354 0.90281 0.67419 0.0
C704 C 0.52161 0.9791 0.7669 0.0
O705 O 0.51475 0.00569 0.66483 0.0
C706 C 0.46696 0.96157 0.71788 0.0
C707 C 0.44218 0.93962 0.73826 0.0
C708 C 0.45768 0.9362 0.72593 0.0
C709 C 0.46012 0.99084 0.72121 0.0
C710 C 0.44443 0.99409 0.73417 0.0
C711 C 0.43591 0.96832 0.7431 0.0
C712 C 0.51757 0.85991 0.76674 0.0
O713 O 0.50497 0.87607 0.75862 0.0
O714 O 0.48831 0.97487 0.68106 0.0
O715 O 0.49396 0.94162 0.71903 0.0
H716 H 0.58142 0.8734 0.74966 0.0
H717 H 0.62233 0.89742 0.69158 0.0
H718 H 0.58245 0.95799 0.69709 0.0
H719 H 0.46226 0.9137 0.72139 0.0
H720 H 0.46673 0.01057 0.71346 0.0
H721 H 0.42363 0.97053 0.75168 0.0
C722 C 0.70938 0.33742 0.72322 0.0
C723 C 0.70082 0.36302 0.73502 0.0
C724 C 0.68569 0.37072 0.7216 0.0
C725 C 0.67926 0.35252 0.69725 0.0
C726 C 0.68714 0.32663 0.68671 0.0
C727 C 0.70222 0.3193 0.69921 0.0
O728 O 0.76552 0.35699 0.70453 0.0
Tb729 Tb 0.75412 0.33462 0.74542 0.0
Tb730 Tb 0.77685 0.28547 0.69519 0.0
O731 O 0.75777 0.37784 0.76855 0.0
O732 O 0.76574 0.32038 0.66525 0.0
O733 O 0.73069 0.34091 0.76287 0.0
C734 C 0.80579 0.29615 0.70718 0.0
O735 O 0.73559 0.31472 0.7186 0.0
O736 O 0.76388 0.26322 0.73416 0.0
O737 O 0.7659 0.29934 0.77361 0.0
C738 C 0.72456 0.32612 0.73813 0.0
C739 C 0.76232 0.23068 0.66114 0.0
O740 O 0.74878 0.24448 0.66803 0.0
C741 C 0.76563 0.34894 0.67393 0.0
C742 C 0.76515 0.27083 0.76483 0.0
O743 O 0.77599 0.24362 0.6685 0.0
C744 C 0.82132 0.28688 0.72171 0.0
C745 C 0.84815 0.30343 0.73705 0.0
C746 C 0.8325 0.3101 0.72703 0.0
C747 C 0.82624 0.25636 0.72587 0.0
C748 C 0.84188 0.25 0.73768 0.0
C749 C 0.85221 0.27383 0.7445 0.0
C750 C 0.7718 0.39118 0.76601 0.0
O751 O 0.78423 0.37522 0.75648 0.0
O752 O 0.80086 0.28174 0.68122 0.0
O753 O 0.794 0.30524 0.72619 0.0
H754 H 0.7057 0.37648 0.75457 0.0
H755 H 0.66743 0.35758 0.68757 0.0
H756 H 0.70802 0.2987 0.69127 0.0
H757 H 0.82932 0.33319 0.72124 0.0
H758 H 0.81822 0.2381 0.71952 0.0
H759 H 0.86424 0.26896 0.75321 0.0
C760 C 0.57114 0.71226 0.46831 0.0
C761 C 0.57789 0.74165 0.47007 0.0
C762 C 0.59321 0.74575 0.48438 0.0
C763 C 0.60152 0.72061 0.49605 0.0
C764 C 0.59536 0.6916 0.49274 0.0
C765 C 0.58011 0.68754 0.47945 0.0
O766 O 0.51628 0.73958 0.48352 0.0
Tb767 Tb 0.52673 0.71558 0.44285 0.0
Tb768 Tb 0.50501 0.66945 0.49547 0.0
O769 O 0.52391 0.75447 0.41179 0.0
O770 O 0.51779 0.70358 0.52323 0.0
O771 O 0.55056 0.7236 0.42908 0.0
C772 C 0.47606 0.68207 0.48656 0.0
O773 O 0.5445 0.69153 0.468 0.0
O774 O 0.51609 0.64522 0.45553 0.0
O775 O 0.51509 0.68013 0.4148 0.0
C776 C 0.55596 0.70493 0.4513 0.0
C777 C 0.52064 0.61143 0.51784 0.0
O778 O 0.53363 0.62687 0.51079 0.0
C779 C 0.51801 0.73204 0.5141 0.0
C780 C 0.51518 0.6519 0.42461 0.0
O781 O 0.50676 0.62555 0.51817 0.0
C782 C 0.4607 0.67114 0.47258 0.0
C783 C 0.43772 0.68207 0.43796 0.0
C784 C 0.4531 0.6893 0.44909 0.0
C785 C 0.45256 0.64535 0.4847 0.0
C786 C 0.43717 0.63796 0.47285 0.0
C787 C 0.43004 0.65629 0.44945 0.0
C788 C 0.51062 0.77035 0.4126 0.0
O789 O 0.49847 0.76069 0.43003 0.0
O790 O 0.48147 0.66865 0.51291 0.0
O791 O 0.48756 0.69014 0.46624 0.0
H792 H 0.57152 0.7608 0.46006 0.0
H793 H 0.61364 0.72345 0.50524 0.0
H794 H 0.57557 0.66483 0.47619 0.0
H795 H 0.45885 0.7097 0.44045 0.0
H796 H 0.45794 0.63153 0.50343 0.0
H797 H 0.41809 0.65089 0.44068 0.0
C798 C 0.21668 0.04141 0.47174 0.0
C799 C 0.2099 0.01199 0.47303 0.0
C800 C 0.19426 0.00794 0.48592 0.0
C801 C 0.18571 0.0331 0.49671 0.0
C802 C 0.19191 0.06208 0.49374 0.0
C803 C 0.20742 0.06618 0.48173 0.0
O804 O 0.27336 0.01233 0.4819 0.0
Tb805 Tb 0.26096 0.03688 0.44382 0.0
Tb806 Tb 0.28547 0.08194 0.49434 0.0
O807 O 0.26193 0.99617 0.4152 0.0
O808 O 0.27272 0.04757 0.52226 0.0
O809 O 0.2368 0.03247 0.43101 0.0
C810 C 0.31468 0.07057 0.48674 0.0
O811 O 0.24419 0.05868 0.47395 0.0
O812 O 0.27518 0.10736 0.45417 0.0
O813 O 0.27216 0.07166 0.41411 0.0
C814 C 0.2322 0.04869 0.456 0.0
C815 C 0.27034 0.14007 0.51878 0.0
O816 O 0.25688 0.12576 0.51266 0.0
C817 C 0.27254 0.01921 0.51279 0.0
C818 C 0.27398 0.09986 0.42343 0.0
O819 O 0.28395 0.12518 0.51804 0.0
C820 C 0.32995 0.08195 0.47246 0.0
C821 C 0.35189 0.07209 0.43503 0.0
C822 C 0.33661 0.06531 0.4467 0.0
C823 C 0.33917 0.10558 0.4867 0.0
C824 C 0.35472 0.11225 0.47478 0.0
C825 C 0.36053 0.09595 0.44828 0.0
C826 C 0.27574 0.98304 0.40922 0.0
O827 O 0.28908 0.99631 0.41838 0.0
O828 O 0.30891 0.08433 0.51251 0.0
O829 O 0.30339 0.06117 0.46657 0.0
H830 H 0.2165 0.99283 0.46371 0.0
H831 H 0.17342 0.03032 0.50496 0.0
H832 H 0.21197 0.08891 0.47862 0.0
H833 H 0.33027 0.04607 0.43681 0.0
H834 H 0.33468 0.11757 0.5077 0.0
H835 H 0.37244 0.10075 0.43888 0.0
C836 C 0.57147 0.04126 0.26853 0.0
C837 C 0.57851 0.01202 0.26818 0.0
C838 C 0.59412 0.00804 0.25514 0.0
C839 C 0.60232 0.03297 0.24292 0.0
C840 C 0.59581 0.06183 0.24472 0.0
C841 C 0.58036 0.06589 0.25707 0.0
O842 O 0.51565 0.01233 0.25613 0.0
Tb843 Tb 0.52731 0.03601 0.2956 0.0
Tb844 Tb 0.50478 0.08284 0.24438 0.0
O845 O 0.52649 0.99431 0.3225 0.0
O846 O 0.51705 0.04819 0.21633 0.0
O847 O 0.5514 0.03231 0.30934 0.0
C848 C 0.47556 0.0722 0.25242 0.0
O849 O 0.54409 0.05871 0.26644 0.0
O850 O 0.5158 0.10623 0.28498 0.0
O851 O 0.5154 0.07033 0.32484 0.0
C852 C 0.55604 0.04872 0.28451 0.0
C853 C 0.5211 0.14036 0.22262 0.0
O854 O 0.53391 0.12504 0.23132 0.0
C855 C 0.51707 0.01973 0.22544 0.0
C856 C 0.51506 0.09878 0.31574 0.0
O857 O 0.50725 0.12632 0.22117 0.0
C858 C 0.46035 0.08396 0.26628 0.0
C859 C 0.43615 0.07266 0.29702 0.0
C860 C 0.45148 0.06447 0.28643 0.0
C861 C 0.45348 0.11196 0.25673 0.0
C862 C 0.43821 0.12044 0.2685 0.0
C863 C 0.42995 0.10085 0.28899 0.0
C864 C 0.51293 0.9837 0.33391 0.0
O865 O 0.49979 0.99993 0.33139 0.0
O866 O 0.48137 0.08571 0.22652 0.0
O867 O 0.48677 0.06289 0.27279 0.0
H868 H 0.57215 0.99299 0.27842 0.0
H869 H 0.61456 0.03016 0.23429 0.0
H870 H 0.57561 0.08857 0.25932 0.0
H871 H 0.45613 0.04233 0.29245 0.0
H872 H 0.45973 0.12662 0.23995 0.0
H873 H 0.41797 0.10683 0.29725 0.0
C874 C 0.21662 0.71075 0.26904 0.0
C875 C 0.20995 0.74013 0.26529 0.0
C876 C 0.19408 0.74343 0.25319 0.0
C877 C 0.18526 0.71767 0.2456 0.0
C878 C 0.19147 0.68901 0.25077 0.0
C879 C 0.20711 0.68546 0.26208 0.0
O880 O 0.27328 0.73985 0.25646 0.0
Tb881 Tb 0.2613 0.71557 0.29528 0.0
Tb882 Tb 0.28486 0.66924 0.24417 0.0
O883 O 0.26259 0.75564 0.32493 0.0
O884 O 0.27259 0.70426 0.21631 0.0
O885 O 0.23723 0.72106 0.30842 0.0
C886 C 0.31415 0.6792 0.25258 0.0
O887 O 0.2442 0.69361 0.26608 0.0
O888 O 0.27365 0.64492 0.28395 0.0
O889 O 0.27258 0.68031 0.32441 0.0
C890 C 0.2324 0.70425 0.28411 0.0
C891 C 0.26839 0.61217 0.22117 0.0
O892 O 0.25553 0.62781 0.2288 0.0
C893 C 0.27238 0.73268 0.22563 0.0
C894 C 0.27347 0.65204 0.31482 0.0
O895 O 0.28235 0.6259 0.22069 0.0
C896 C 0.32947 0.66738 0.26618 0.0
C897 C 0.35376 0.67889 0.29666 0.0
C898 C 0.33831 0.68681 0.28645 0.0
C899 C 0.33648 0.63954 0.25632 0.0
C900 C 0.35191 0.63133 0.26768 0.0
C901 C 0.36015 0.65099 0.28808 0.0
C902 C 0.27617 0.77024 0.32841 0.0
O903 O 0.28938 0.75883 0.31601 0.0
O904 O 0.30831 0.66614 0.22645 0.0
O905 O 0.30295 0.68836 0.27306 0.0
H906 H 0.21682 0.75984 0.27208 0.0
H907 H 0.17288 0.71992 0.23761 0.0
H908 H 0.21163 0.66294 0.26684 0.0
H909 H 0.33352 0.70873 0.29292 0.0
H910 H 0.33021 0.62484 0.23964 0.0
H911 H 0.37216 0.64509 0.29623 0.0
C912 C 0.57764 0.83115 0.01735 0.0
C913 C 0.58515 0.85828 0.00705 0.0
C914 C 0.60065 0.86562 0.01844 0.0
C915 C 0.60849 0.84584 0.03943 0.0
C916 C 0.60148 0.81869 0.04879 0.0
C917 C 0.58596 0.81161 0.0384 0.0
O918 O 0.52196 0.85602 0.03465 0.0
Tb919 Tb 0.53327 0.83255 0.9944 0.0
Tb920 Tb 0.51225 0.78528 0.04641 0.0
O921 O 0.53176 0.87643 0.97167 0.0
O922 O 0.52388 0.82053 0.07463 0.0
O923 O 0.55683 0.83356 0.97714 0.0
C924 C 0.48308 0.79669 0.03785 0.0
O925 O 0.55077 0.81217 0.02385 0.0
O926 O 0.52322 0.76195 0.0058 0.0
O927 O 0.52072 0.79809 0.96656 0.0
C928 C 0.56225 0.82024 0.00351 0.0
C929 C 0.52808 0.7298 0.07613 0.0
O930 O 0.54035 0.73948 0.05904 0.0
C931 C 0.5232 0.8489 0.06542 0.0
C932 C 0.5214 0.76954 0.97525 0.0
O933 O 0.51481 0.7458 0.07679 0.0
C934 C 0.46752 0.79007 0.02196 0.0
C935 C 0.44281 0.81134 0.0004 0.0
C936 C 0.45821 0.81517 0.01306 0.0
C937 C 0.46085 0.76069 0.01914 0.0
C938 C 0.44527 0.75704 0.00587 0.0
C939 C 0.43671 0.78248 -0.004 0.0
C940 C 0.51804 0.89105 0.97193 0.0
O941 O 0.50488 0.87619 0.97919 0.0
O942 O 0.48838 0.77824 0.06038 0.0
O943 O 0.4946 0.80905 0.02041 0.0
H944 H 0.57922 0.87314 0.98999 0.0
H945 H 0.62054 0.85115 0.04769 0.0
H946 H 0.58069 0.79024 0.04543 0.0
H947 H 0.46267 0.8378 0.01725 0.0
H948 H 0.46747 0.7412 0.02759 0.0
H949 H 0.42449 0.77991 0.98719 0.0
C950 C 0.70956 0.41786 0.02302 0.0
C951 C 0.70007 0.3936 0.01079 0.0
C952 C 0.68541 0.3858 0.02622 0.0
C953 C 0.6813 0.40082 0.05486 0.0
C954 C 0.68924 0.42701 0.06418 0.0
C955 C 0.70352 0.43511 0.04892 0.0
O956 O 0.76572 0.39606 0.0334 0.0
Tb957 Tb 0.75311 0.41954 -0.00537 0.0
Tb958 Tb 0.77634 0.46586 0.04557 0.0
O959 O 0.75427 0.37619 0.97115 0.0
O960 O 0.76446 0.43097 0.07401 0.0
O961 O 0.72911 0.41578 0.97992 0.0
C962 C 0.80503 0.45282 0.03373 0.0
O963 O 0.73592 0.43987 0.02453 0.0
O964 O 0.76458 0.48983 0.00632 0.0
O965 O 0.76479 0.45447 0.96579 0.0
C966 C 0.72408 0.4297 0.00621 0.0
C967 C 0.76225 0.52255 0.07609 0.0
O968 O 0.74921 0.51315 0.0614 0.0
C969 C 0.76485 0.40275 0.06433 0.0
C970 C 0.76549 0.48277 0.97546 0.0
O971 O 0.77546 0.50647 0.07461 0.0
C972 C 0.82046 0.45975 0.01729 0.0
C973 C 0.84421 0.43836 0.99162 0.0
C974 C 0.82867 0.43505 0.00384 0.0
C975 C 0.82838 0.48809 0.01929 0.0
C976 C 0.84415 0.49128 0.00684 0.0
C977 C 0.85145 0.46666 0.9918 0.0
C978 C 0.76792 0.36161 0.96879 0.0
O979 O 0.78146 0.37622 0.97302 0.0
O980 O 0.80057 0.46951 0.05846 0.0
O981 O 0.79293 0.44286 0.01613 0.0
H982 H 0.70349 0.38228 0.98859 0.0
H983 H 0.67026 0.39492 0.06736 0.0
H984 H 0.70937 0.45596 0.05586 0.0
H985 H 0.82337 0.41274 0.00478 0.0
H986 H 0.82274 0.50681 0.03171 0.0
H987 H 0.86372 0.46883 0.98322 0.0
C988 C 0.57954 0.41521 0.22301 0.0
C989 C 0.58813 0.3891 0.23336 0.0
C990 C 0.60308 0.38171 0.21896 0.0
C991 C 0.60927 0.40071 0.19499 0.0
C992 C 0.60139 0.42714 0.18603 0.0
C993 C 0.58654 0.43423 0.19962 0.0
O994 O 0.52397 0.39377 0.20554 0.0
Tb995 Tb 0.53498 0.41731 0.2462 0.0
Tb996 Tb 0.51084 0.4652 0.19648 0.0
O997 O 0.53128 0.3746 0.27036 0.0
O998 O 0.5212 0.43002 0.16587 0.0
O999 O 0.55848 0.41042 0.26306 0.0
C1000 C 0.48215 0.4549 0.21002 0.0
O1001 O 0.55338 0.43809 0.21989 0.0
O1002 O 0.52444 0.48741 0.23433 0.0
O1003 O 0.52329 0.45239 0.27483 0.0
C1004 C 0.5645 0.42603 0.23877 0.0
C1005 C 0.52528 0.51709 0.15717 0.0
O1006 O 0.53814 0.49993 0.1577 0.0
C1007 C 0.52245 0.4016 0.17495 0.0
C1008 C 0.52302 0.48068 0.26516 0.0
O1009 O 0.51191 0.50727 0.17019 0.0
C1010 C 0.46597 0.45964 0.224 0.0
C1011 C 0.44076 0.43552 0.23772 0.0
C1012 C 0.45669 0.4335 0.22778 0.0
C1013 C 0.4588 0.48837 0.22961 0.0
C1014 C 0.44264 0.49006 0.24061 0.0
C1015 C 0.43405 0.46338 0.24491 0.0
C1016 C 0.51725 0.36125 0.26796 0.0
O1017 O 0.50487 0.37706 0.25788 0.0
O1018 O 0.48662 0.47093 0.1848 0.0
O1019 O 0.49411 0.44482 0.22803 0.0
H1020 H 0.5834 0.37499 0.25254 0.0
H1021 H 0.621 0.39599 0.18466 0.0
H1022 H 0.58078 0.45529 0.19301 0.0
H1023 H 0.46163 0.41161 0.22156 0.0
H1024 H 0.46553 0.50881 0.22513 0.0
H1025 H 0.42146 0.46438 0.25171 0.0
C1026 C 0.70767 0.83191 0.22208 0.0
C1027 C 0.69925 0.85821 0.23249 0.0
C1028 C 0.68389 0.86503 0.21948 0.0
C1029 C 0.6771 0.845 0.19721 0.0
C1030 C 0.685 0.81875 0.18774 0.0
C1031 C 0.70033 0.81248 0.19957 0.0
O1032 O 0.76297 0.85795 0.20497 0.0
Tb1033 Tb 0.75219 0.833 0.24486 0.0
Tb1034 Tb 0.7773 0.78789 0.19349 0.0
O1035 O 0.75383 0.8765 0.26804 0.0
O1036 O 0.76535 0.82246 0.16464 0.0
O1037 O 0.72863 0.83603 0.2622 0.0
C1038 C 0.80643 0.79948 0.20241 0.0
O1039 O 0.73444 0.81171 0.21706 0.0
O1040 O 0.76674 0.76363 0.23386 0.0
O1041 O 0.76503 0.7995 0.27385 0.0
C1042 C 0.72304 0.82147 0.23678 0.0
C1043 C 0.76182 0.73176 0.16504 0.0
O1044 O 0.74994 0.74065 0.18365 0.0
C1045 C 0.76372 0.85064 0.17415 0.0
C1046 C 0.76709 0.77132 0.26457 0.0
O1047 O 0.77473 0.74861 0.16265 0.0
C1048 C 0.82166 0.79296 0.21989 0.0
C1049 C 0.8448 0.81486 0.24726 0.0
C1050 C 0.82948 0.81786 0.23382 0.0
C1051 C 0.82994 0.7649 0.21811 0.0
C1052 C 0.84552 0.76208 0.23166 0.0
C1053 C 0.85213 0.78666 0.24804 0.0
C1054 C 0.7677 0.89044 0.26964 0.0
O1055 O 0.78093 0.87503 0.26443 0.0
O1056 O 0.8013 0.78036 0.1804 0.0
O1057 O 0.79473 0.81276 0.21859 0.0
H1058 H 0.70446 0.87297 0.25053 0.0
H1059 H 0.66512 0.84924 0.18787 0.0
H1060 H 0.70623 0.79175 0.19234 0.0
H1061 H 0.82415 0.84012 0.23217 0.0
H1062 H 0.82479 0.74621 0.20486 0.0
H1063 H 0.8642 0.7848 0.25782 0.0
C1064 C 0.57277 0.21133 0.97097 0.0
C1065 C 0.5802 0.24021 0.97083 0.0
C1066 C 0.59607 0.24345 0.98269 0.0
C1067 C 0.60398 0.21831 -0.00476 0.0
C1068 C 0.59721 0.1897 0.99351 0.0
C1069 C 0.58158 0.18626 0.98184 0.0
O1070 O 0.51608 0.23912 0.98223 0.0
Tb1071 Tb 0.52823 0.21497 0.9437 0.0
Tb1072 Tb 0.5018 0.16988 0.99342 0.0
O1073 O 0.52599 0.25482 0.91381 0.0
O1074 O 0.51493 0.2033 0.02206 0.0
O1075 O 0.55226 0.22256 0.9315 0.0
C1076 C 0.47228 0.18028 0.99034 0.0
O1077 O 0.54555 0.19226 0.97172 0.0
O1078 O 0.50979 0.14492 0.95092 0.0
O1079 O 0.51781 0.18045 0.91279 0.0
C1080 C 0.55727 0.20463 0.95477 0.0
C1081 C 0.51954 0.11301 0.013 0.0
O1082 O 0.53178 0.12856 0.00188 0.0
C1083 C 0.51641 0.23165 0.01297 0.0
C1084 C 0.51364 0.15289 0.92118 0.0
O1085 O 0.50563 0.12664 0.01645 0.0
C1086 C 0.45685 0.16933 0.97646 0.0
C1087 C 0.43305 0.1817 0.94481 0.0
C1088 C 0.44838 0.18915 0.95592 0.0
C1089 C 0.44953 0.14161 0.98576 0.0
C1090 C 0.43421 0.13384 0.9735 0.0
C1091 C 0.42635 0.15395 0.9529 0.0
C1092 C 0.5122 0.26909 0.91196 0.0
O1093 O 0.49951 0.2575 0.92617 0.0
O1094 O 0.47896 0.16453 0.01383 0.0
O1095 O 0.48284 0.1921 0.97005 0.0
H1096 H 0.57408 0.25941 0.96032 0.0
H1097 H 0.61633 0.22061 0.00335 0.0
H1098 H 0.57666 0.16375 0.97936 0.0
H1099 H 0.45342 0.21092 0.94968 0.0
H1100 H 0.45554 0.12651 0.00246 0.0
H1101 H 0.41443 0.14845 0.94398 0.0
C1102 C 0.21584 0.53813 0.97374 0.0
C1103 C 0.20874 0.50913 0.97745 0.0
C1104 C 0.19271 0.50671 0.98884 0.0
C1105 C 0.18412 0.53292 -0.00437 0.0
C1106 C 0.19076 0.56123 0.9906 0.0
C1107 C 0.20661 0.56397 0.98022 0.0
O1108 O 0.27429 0.51326 0.9839 0.0
Tb1109 Tb 0.26068 0.53498 0.94549 0.0
Tb1110 Tb 0.28637 0.5828 0.99441 0.0
O1111 O 0.26251 0.49489 0.91577 0.0
O1112 O 0.27287 0.54977 0.02267 0.0
O1113 O 0.23666 0.5252 0.93554 0.0
C1114 C 0.316 0.57276 0.99383 0.0
O1115 O 0.24337 0.55678 0.97465 0.0
O1116 O 0.27956 0.60564 0.94989 0.0
O1117 O 0.26961 0.57023 0.91334 0.0
C1118 C 0.23169 0.54349 0.95845 0.0
C1119 C 0.26759 0.63958 0.00913 0.0
O1120 O 0.25617 0.62371 -0.00469 0.0
C1121 C 0.27305 0.52113 0.01442 0.0
C1122 C 0.27469 0.59755 0.92082 0.0
O1123 O 0.28129 0.62626 0.01594 0.0
C1124 C 0.33124 0.58266 0.97813 0.0
C1125 C 0.35289 0.57031 0.94075 0.0
C1126 C 0.33804 0.56354 0.95456 0.0
C1127 C 0.3399 0.60876 0.98804 0.0
C1128 C 0.35479 0.61588 0.97332 0.0
C1129 C 0.36093 0.59655 0.94962 0.0
C1130 C 0.27601 0.47973 0.91332 0.0
O1131 O 0.28905 0.49038 0.92704 0.0
O1132 O 0.30907 0.59083 0.01496 0.0
O1133 O 0.30559 0.55844 0.97521 0.0
H1134 H 0.21539 0.48902 0.97106 0.0
H1135 H 0.17163 0.53132 0.00308 0.0
H1136 H 0.21147 0.58622 0.97553 0.0
H1137 H 0.33207 0.54281 0.94767 0.0
H1138 H 0.33522 0.6232 0.00697 0.0
H1139 H 0.37254 0.60128 0.93878 0.0
C1140 C 0.57124 0.54139 0.76708 0.0
C1141 C 0.57781 0.51184 0.76435 0.0
C1142 C 0.59374 0.50804 0.75281 0.0
C1143 C 0.60273 0.53349 0.74477 0.0
C1144 C 0.5966 0.56235 0.74892 0.0
C1145 C 0.58089 0.56637 0.75965 0.0
O1146 O 0.51398 0.51246 0.75629 0.0
Tb1147 Tb 0.52687 0.53582 0.79437 0.0
Tb1148 Tb 0.50208 0.58241 0.74436 0.0
O1149 O 0.52669 0.49347 0.82012 0.0
O1150 O 0.51464 0.54803 0.71625 0.0
O1151 O 0.55102 0.53301 0.80756 0.0
C1152 C 0.47254 0.57283 0.74918 0.0
O1153 O 0.54342 0.55706 0.76321 0.0
O1154 O 0.51165 0.60631 0.78612 0.0
O1155 O 0.51553 0.56966 0.82507 0.0
C1156 C 0.55546 0.54838 0.78184 0.0
C1157 C 0.52017 0.63841 0.72427 0.0
O1158 O 0.53234 0.62211 0.73454 0.0
C1159 C 0.51497 0.51962 0.7255 0.0
C1160 C 0.51333 0.59799 0.81651 0.0
O1161 O 0.50608 0.62547 0.72117 0.0
C1162 C 0.45711 0.58341 0.76344 0.0
C1163 C 0.43369 0.57018 0.79573 0.0
C1164 C 0.44907 0.56343 0.78444 0.0
C1165 C 0.44932 0.61064 0.75392 0.0
C1166 C 0.43395 0.61778 0.76642 0.0
C1167 C 0.42648 0.59744 0.78736 0.0
C1168 C 0.51336 0.48207 0.83176 0.0
O1169 O 0.50002 0.49781 0.83014 0.0
O1170 O 0.47896 0.58847 0.72533 0.0
O1171 O 0.4833 0.56111 0.76913 0.0
H1172 H 0.57082 0.4924 0.77153 0.0
H1173 H 0.61516 0.53087 0.73723 0.0
H1174 H 0.57644 0.58905 0.76369 0.0
H1175 H 0.45447 0.542 0.79088 0.0
H1176 H 0.45501 0.62583 0.7369 0.0
H1177 H 0.41452 0.60238 0.79644 0.0
C1178 C 0.21492 0.20924 0.76894 0.0
C1179 C 0.20887 0.23919 0.76667 0.0
C1180 C 0.19288 0.24409 0.75608 0.0
C1181 C 0.18329 0.21936 0.74843 0.0
C1182 C 0.18893 0.19007 0.75185 0.0
C1183 C 0.20473 0.18491 0.76166 0.0
O1184 O 0.27059 0.23875 0.75162 0.0
Tb1185 Tb 0.2597 0.21463 0.79194 0.0
Tb1186 Tb 0.28432 0.16734 0.74171 0.0
O1187 O 0.26067 0.2564 0.81894 0.0
O1188 O 0.2724 0.20162 0.71251 0.0
O1189 O 0.23593 0.21712 0.80778 0.0
C1190 C 0.31375 0.17664 0.74956 0.0
O1191 O 0.24243 0.19252 0.76324 0.0
O1192 O 0.27285 0.1443 0.78201 0.0
O1193 O 0.27205 0.18072 0.82132 0.0
C1194 C 0.23082 0.20143 0.78282 0.0
C1195 C 0.26709 0.11068 0.72002 0.0
O1196 O 0.2545 0.12644 0.72907 0.0
C1197 C 0.27094 0.23006 0.72116 0.0
C1198 C 0.27258 0.15217 0.81263 0.0
O1199 O 0.28111 0.12414 0.71835 0.0
C1200 C 0.3289 0.16581 0.76494 0.0
C1201 C 0.35077 0.17732 0.80207 0.0
C1202 C 0.33565 0.184 0.78936 0.0
C1203 C 0.33781 0.14057 0.75328 0.0
C1204 C 0.35295 0.13347 0.76698 0.0
C1205 C 0.35909 0.15194 0.79141 0.0
C1206 C 0.27444 0.26836 0.82743 0.0
O1207 O 0.2878 0.25365 0.82137 0.0
O1208 O 0.30786 0.16144 0.72487 0.0
O1209 O 0.30253 0.18804 0.76868 0.0
H1210 H 0.21631 0.25813 0.77352 0.0
H1211 H 0.17086 0.22291 0.74139 0.0
H1212 H 0.20885 0.16193 0.7651 0.0
H1213 H 0.32949 0.20416 0.79749 0.0
H1214 H 0.33316 0.1269 0.73368 0.0
H1215 H 0.37088 0.1472 0.80145 0.0
H1216 H 0.85159 0.39554 0.03564 0.0
H1217 H 0.92995 0.34087 0.94157 0.0
H1218 H 0.86203 0.42433 0.93808 0.0
H1219 H 0.92479 0.33965 0.04545 0.0
H1220 H 0.9042 0.36761 0.93725 0.0
H1221 H 0.87648 0.36643 0.03606 0.0
C1222 C 0.8588 0.39462 0.01379 0.0
C1223 C 0.85485 0.41226 0.98677 0.0
C1224 C 0.90886 0.362 0.96101 0.0
C1225 C 0.88355 0.38023 0.98752 0.0
C1226 C 0.92364 0.34735 0.96345 0.0
C1227 C 0.9295 0.33882 0.99391 0.0
C1228 C 0.89984 0.36727 0.98919 0.0
C1229 C 0.92074 0.3466 0.02162 0.0
C1230 C 0.87317 0.37862 0.0143 0.0
C1231 C 0.86474 0.41088 0.9593 0.0
N1232 N 0.9062 0.36005 0.0186 0.0
N1233 N 0.8788 0.39544 0.9605 0.0
H1234 H 0.36202 0.91828 0.93943 0.0
H1235 H 0.43014 0.84419 0.04904 0.0
H1236 H 0.3571 0.903 0.04211 0.0
H1237 H 0.42875 0.8325 0.9454 0.0
H1238 H 0.40496 0.87254 0.04621 0.0
H1239 H 0.38718 0.88958 0.93997 0.0
C1240 C 0.36599 0.90784 0.9618 0.0
C1241 C 0.35751 0.91253 0.99068 0.0
C1242 C 0.4103 0.86425 0.024 0.0
C1243 C 0.38648 0.8814 0.9919 0.0
C1244 C 0.42481 0.84872 0.02556 0.0
C1245 C 0.43149 0.83649 -0.00266 0.0
C1246 C 0.40255 0.86758 0.99397 0.0
C1247 C 0.42397 0.84203 0.96755 0.0
C1248 C 0.38042 0.89197 0.96224 0.0
C1249 C 0.36323 0.89935 0.01929 0.0
N1250 N 0.40979 0.85708 0.96662 0.0
N1251 N 0.37754 0.88476 0.01931 0.0
H1252 H 0.85395 0.85333 0.20045 0.0
H1253 H 0.92857 0.91838 0.29779 0.0
H1254 H 0.86109 0.83277 0.30155 0.0
H1255 H 0.92797 0.90538 0.19433 0.0
H1256 H 0.903 0.89114 0.30186 0.0
H1257 H 0.87918 0.88123 0.2002 0.0
C1258 C 0.86049 0.85594 0.22299 0.0
C1259 C 0.85547 0.84099 0.25114 0.0
C1260 C 0.90866 0.89369 0.27838 0.0
C1261 C 0.88456 0.87168 0.25075 0.0
C1262 C 0.92332 0.90867 0.27616 0.0
C1263 C 0.93037 0.91355 0.24576 0.0
C1264 C 0.90092 0.88437 0.24989 0.0
C1265 C 0.92299 0.90149 0.21822 0.0
C1266 C 0.87507 0.87118 0.22265 0.0
C1267 C 0.86458 0.84428 0.2795 0.0
N1268 N 0.90848 0.88786 0.22085 0.0
N1269 N 0.87884 0.85908 0.27855 0.0
H1270 H 0.3578 0.33773 0.2918 0.0
H1271 H 0.42632 0.41384 0.18426 0.0
H1272 H 0.35558 0.34306 0.18765 0.0
H1273 H 0.42907 0.4029 0.28784 0.0
H1274 H 0.40051 0.38754 0.18424 0.0
H1275 H 0.38287 0.36615 0.29089 0.0
C1276 C 0.36226 0.34624 0.26887 0.0
C1277 C 0.3547 0.33842 0.23979 0.0
C1278 C 0.40691 0.39024 0.2069 0.0
C1279 C 0.38368 0.36917 0.23825 0.0
C1280 C 0.42177 0.40457 0.20677 0.0
C1281 C 0.42976 0.40996 0.23606 0.0
C1282 C 0.40009 0.38155 0.2366 0.0
C1283 C 0.42326 0.39864 0.26481 0.0
C1284 C 0.37675 0.36175 0.26823 0.0
C1285 C 0.36105 0.34911 0.21056 0.0
N1286 N 0.40867 0.3852 0.26443 0.0
N1287 N 0.37541 0.36355 0.21043 0.0
H1288 H 0.18337 0.59582 0.04278 0.0
H1289 H 0.10103 0.64502 0.95918 0.0
H1290 H 0.17208 0.58131 0.94212 0.0
H1291 H 0.11533 0.67666 0.05367 0.0
H1292 H 0.12569 0.6156 0.95588 0.0
H1293 H 0.15827 0.62426 0.04893 0.0
C1294 C 0.17585 0.59974 0.02175 0.0
C1295 C 0.17975 0.58688 0.99184 0.0
C1296 C 0.12332 0.62852 0.97763 0.0
C1297 C 0.15082 0.61733 -0.00105 0.0
C1298 C 0.10906 0.64472 0.97985 0.0
C1299 C 0.10623 0.66327 0.00673 0.0
C1300 C 0.13474 0.63087 0.00255 0.0
C1301 C 0.11716 0.66258 0.03257 0.0
C1302 C 0.16143 0.61535 0.02534 0.0
C1303 C 0.16951 0.59154 0.9654 0.0
N1304 N 0.13111 0.64698 0.02965 0.0
N1305 N 0.15536 0.60607 0.96967 0.0
H1306 H 0.68334 0.09452 0.04176 0.0
H1307 H 0.6062 0.15211 0.94549 0.0
H1308 H 0.67831 0.08957 0.93802 0.0
H1309 H 0.6145 0.17217 0.0463 0.0
H1310 H 0.63169 0.12487 0.9437 0.0
H1311 H 0.65846 0.12378 0.04459 0.0
C1312 C 0.67735 0.10094 0.01948 0.0
C1313 C 0.68284 0.09014 0.98961 0.0
C1314 C 0.62782 0.13474 0.9664 0.0
C1315 C 0.65404 0.12159 0.99267 0.0
C1316 C 0.6131 0.14959 0.96761 0.0
C1317 C 0.60831 0.16411 -0.00385 0.0
C1318 C 0.6377 0.13443 0.99399 0.0
C1319 C 0.61782 0.16098 0.02396 0.0
C1320 C 0.66299 0.11697 0.0211 0.0
C1321 C 0.6745 0.09805 0.96141 0.0
N1322 N 0.6322 0.14672 0.02212 0.0
N1323 N 0.66029 0.11286 0.96366 0.0
H1324 H 0.16923 0.17158 0.79925 0.0
H1325 H 0.11424 0.07082 0.68501 0.0
H1326 H 0.18068 0.15709 0.69866 0.0
H1327 H 0.09903 0.10702 0.77701 0.0
H1328 H 0.1385 0.10195 0.68787 0.0
H1329 H 0.14416 0.14394 0.7919 0.0
C1330 C 0.16665 0.16152 0.77589 0.0
C1331 C 0.17703 0.16589 0.74965 0.0
C1332 C 0.12966 0.10358 0.70704 0.0
C1333 C 0.14819 0.13552 0.74055 0.0
C1334 C 0.11574 0.08621 0.70516 0.0
C1335 C 0.1047 0.08631 0.73087 0.0
C1336 C 0.13254 0.12076 0.73498 0.0
C1337 C 0.10719 0.10639 0.75658 0.0
C1338 C 0.15223 0.14635 0.77147 0.0
C1339 C 0.17303 0.1535 0.71952 0.0
N1340 N 0.12102 0.12235 0.75832 0.0
N1341 N 0.15883 0.13883 0.7157 0.0
H1342 H 0.67506 0.67468 0.68857 0.0
H1343 H 0.61184 0.58804 0.79916 0.0
H1344 H 0.68387 0.64987 0.78803 0.0
H1345 H 0.60834 0.58972 0.69501 0.0
H1346 H 0.63704 0.61614 0.79581 0.0
H1347 H 0.65022 0.64523 0.68959 0.0
C1348 C 0.67201 0.66205 0.71019 0.0
C1349 C 0.68145 0.6644 0.73818 0.0
C1350 C 0.63063 0.61086 0.77368 0.0
C1351 C 0.6529 0.63215 0.7401 0.0
C1352 C 0.61613 0.59549 0.77567 0.0
C1353 C 0.60803 0.58726 0.74732 0.0
C1354 C 0.63697 0.61799 0.74309 0.0
C1355 C 0.61421 0.59629 0.71732 0.0
C1356 C 0.65776 0.64569 0.71096 0.0
C1357 C 0.67695 0.64822 0.76586 0.0
N1358 N 0.62842 0.61115 0.71593 0.0
N1359 N 0.66281 0.63315 0.76633 0.0
H1360 H 0.92897 0.83764 0.4389 0.0
H1361 H 0.85273 0.89825 0.53523 0.0
H1362 H 0.92632 0.84373 0.54296 0.0
H1363 H 0.86105 0.92111 0.43507 0.0
H1364 H 0.87786 0.86993 0.53583 0.0
H1365 H 0.90332 0.86464 0.4349 0.0
C1366 C 0.92325 0.84582 0.46078 0.0
C1367 C 0.92976 0.83912 0.49124 0.0
C1368 C 0.87403 0.88058 0.51349 0.0
C1369 C 0.9002 0.86796 0.48706 0.0
C1370 C 0.85951 0.89608 0.51292 0.0
C1371 C 0.85487 0.91182 0.48499 0.0
C1372 C 0.88385 0.88069 0.48584 0.0
C1373 C 0.86426 0.90903 0.45695 0.0
C1374 C 0.90853 0.86063 0.45856 0.0
C1375 C 0.92176 0.84915 0.51905 0.0
N1376 N 0.87846 0.89403 0.45816 0.0
N1377 N 0.90722 0.86269 0.51634 0.0
H1378 H 0.35894 0.40819 0.54826 0.0
H1379 H 0.42633 0.33532 0.43516 0.0
H1380 H 0.35722 0.4132 0.44407 0.0
H1381 H 0.43181 0.3501 0.53777 0.0
H1382 H 0.40058 0.36212 0.43687 0.0
H1383 H 0.38407 0.37984 0.54454 0.0
C1384 C 0.36349 0.40196 0.52457 0.0
C1385 C 0.35605 0.41265 0.4964 0.0
C1386 C 0.40757 0.36003 0.45889 0.0
C1387 C 0.38507 0.38192 0.49186 0.0
C1388 C 0.42239 0.34538 0.45772 0.0
C1389 C 0.43118 0.34091 0.48627 0.0
C1390 C 0.40148 0.36958 0.48893 0.0
C1391 C 0.42546 0.3536 0.51515 0.0
C1392 C 0.37803 0.38653 0.52243 0.0
C1393 C 0.36259 0.40488 0.46625 0.0
N1394 N 0.41079 0.36688 0.5159 0.0
N1395 N 0.3769 0.39031 0.46473 0.0
H1396 H 0.87796 0.29594 0.7117 0.0
H1397 H 0.90842 0.46037 0.73083 0.0
H1398 H 0.84797 0.3622 0.75888 0.0
H1399 H 0.94018 0.38573 0.75217 0.0
H1400 H 0.88586 0.42612 0.73055 0.0
H1401 H 0.90057 0.33051 0.71478 0.0
C1402 C 0.87615 0.31774 0.72293 0.0
C1403 C 0.86118 0.32595 0.736 0.0
C1404 C 0.89775 0.41739 0.73565 0.0
C1405 C 0.88689 0.36567 0.73852 0.0
C1406 C 0.9107 0.43688 0.7362 0.0
C1407 C 0.92631 0.42615 0.74276 0.0
C1408 C 0.90037 0.38671 0.7404 0.0
C1409 C 0.92842 0.39509 0.74733 0.0
C1410 C 0.88906 0.33733 0.72461 0.0
C1411 C 0.85934 0.35495 0.74883 0.0
N1412 N 0.91555 0.37631 0.74586 0.0
N1413 N 0.87213 0.37393 0.74977 0.0
H1414 H 0.36173 0.83217 0.79907 0.0
H1415 H 0.42929 0.90771 0.68911 0.0
H1416 H 0.35645 0.84805 0.69657 0.0
H1417 H 0.42857 0.91714 0.79304 0.0
H1418 H 0.40417 0.87921 0.69191 0.0
H1419 H 0.38691 0.86069 0.79836 0.0
C1420 C 0.36563 0.84269 0.77671 0.0
C1421 C 0.35703 0.83824 0.74793 0.0
C1422 C 0.40966 0.88703 0.71418 0.0
C1423 C 0.38603 0.8692 0.74649 0.0
C1424 C 0.42413 0.90264 0.71262 0.0
C1425 C 0.43098 0.91427 0.74095 0.0
C1426 C 0.40209 0.88305 0.74432 0.0
C1427 C 0.42366 0.90806 0.77078 0.0
C1428 C 0.38008 0.85847 0.77616 0.0
C1429 C 0.36267 0.85152 0.71933 0.0
N1430 N 0.40951 0.89298 0.77171 0.0
N1431 N 0.37699 0.86604 0.71919 0.0
H1432 H 0.11025 0.16284 0.43703 0.0
H1433 H 0.17474 0.07834 0.54712 0.0
H1434 H 0.10796 0.16332 0.54134 0.0
H1435 H 0.18239 0.10033 0.44653 0.0
H1436 H 0.14983 0.10769 0.54627 0.0
H1437 H 0.13542 0.13447 0.43989 0.0
C1438 C 0.11478 0.15582 0.46049 0.0
C1439 C 0.10703 0.16475 0.489 0.0
C1440 C 0.15712 0.10662 0.52457 0.0
C1441 C 0.13596 0.13368 0.49262 0.0
C1442 C 0.17141 0.09031 0.52523 0.0
C1443 C 0.18058 0.08727 0.49694 0.0
C1444 C 0.15191 0.11938 0.49525 0.0
C1445 C 0.1757 0.10258 0.46892 0.0
C1446 C 0.12928 0.14028 0.46217 0.0
C1447 C 0.11355 0.15624 0.5189 0.0
N1448 N 0.16152 0.11761 0.46861 0.0
N1449 N 0.12774 0.14121 0.51999 0.0
H1450 H 0.61365 0.67789 0.5457 0.0
H1451 H 0.67378 0.58239 0.43642 0.0
H1452 H 0.60323 0.64956 0.44797 0.0
H1453 H 0.67942 0.58985 0.53989 0.0
H1454 H 0.64883 0.61122 0.4399 0.0
H1455 H 0.63792 0.64667 0.54505 0.0
C1456 C 0.61625 0.66429 0.52453 0.0
C1457 C 0.60653 0.66619 0.49685 0.0
C1458 C 0.65562 0.60702 0.46183 0.0
C1459 C 0.63437 0.63162 0.49543 0.0
C1460 C 0.66998 0.59117 0.45972 0.0
C1461 C 0.67865 0.58452 0.48785 0.0
C1462 C 0.64999 0.61624 0.49234 0.0
C1463 C 0.67309 0.59521 0.51769 0.0
C1464 C 0.63015 0.64682 0.524 0.0
C1465 C 0.61038 0.64846 0.46988 0.0
N1466 N 0.65902 0.61061 0.51922 0.0
N1467 N 0.62418 0.63227 0.46963 0.0
H1468 H 0.18003 0.66106 0.19709 0.0
H1469 H 0.10435 0.59954 0.29555 0.0
H1470 H 0.17624 0.66336 0.30118 0.0
H1471 H 0.11235 0.57982 0.19454 0.0
H1472 H 0.12935 0.62838 0.29655 0.0
H1473 H 0.15489 0.63249 0.1946 0.0
C1474 C 0.17414 0.65448 0.21941 0.0
C1475 C 0.18018 0.66386 0.24937 0.0
C1476 C 0.12552 0.61817 0.27401 0.0
C1477 C 0.1512 0.63311 0.24681 0.0
C1478 C 0.11111 0.60231 0.27329 0.0
C1479 C 0.10638 0.58758 0.24487 0.0
C1480 C 0.13513 0.61923 0.24605 0.0
C1481 C 0.11566 0.5911 0.21682 0.0
C1482 C 0.15971 0.63873 0.21803 0.0
C1483 C 0.17201 0.65582 0.27771 0.0
N1484 N 0.12973 0.60639 0.21816 0.0
N1485 N 0.15776 0.64119 0.27575 0.0
H1486 H 0.60465 0.10222 0.29012 0.0
H1487 H 0.67835 0.1677 0.19043 0.0
H1488 H 0.61279 0.07692 0.19058 0.0
H1489 H 0.67817 0.15696 0.29424 0.0
H1490 H 0.65304 0.13946 0.18745 0.0
H1491 H 0.62936 0.13186 0.28907 0.0
C1492 C 0.61135 0.10394 0.26766 0.0
C1493 C 0.6068 0.08731 0.24036 0.0
C1494 C 0.65873 0.14279 0.21077 0.0
C1495 C 0.63518 0.11999 0.2393 0.0
C1496 C 0.67323 0.15836 0.21239 0.0
C1497 C 0.68033 0.164 0.24254 0.0
C1498 C 0.65123 0.13374 0.23962 0.0
C1499 C 0.67313 0.15242 0.27054 0.0
C1500 C 0.62558 0.12026 0.26727 0.0
C1501 C 0.61599 0.08964 0.21202 0.0
N1502 N 0.65879 0.13819 0.26847 0.0
N1503 N 0.62991 0.1055 0.21226 0.0
H1504 H 0.18256 0.47988 0.04409 0.0
H1505 H 0.11478 0.3795 0.9596 0.0
H1506 H 0.17953 0.47279 0.94023 0.0
H1507 H 0.11164 0.41403 0.05689 0.0
H1508 H 0.13878 0.41079 0.95059 0.0
H1509 H 0.15831 0.44926 0.04902 0.0
C1510 C 0.17722 0.47056 0.02234 0.0
C1511 C 0.18335 0.47833 0.99172 0.0
C1512 C 0.13261 0.41203 0.97366 0.0
C1513 C 0.15496 0.44433 -0.00296 0.0
C1514 C 0.11871 0.39466 0.97856 0.0
C1515 C 0.11107 0.3944 0.00891 0.0
C1516 C 0.13906 0.42878 -0.00049 0.0
C1517 C 0.11704 0.4138 0.033 0.0
C1518 C 0.1631 0.45375 0.0251 0.0
C1519 C 0.17549 0.46667 0.96429 0.0
N1520 N 0.13078 0.4297 0.02801 0.0
N1521 N 0.16165 0.45044 0.96755 0.0
H1522 H 0.15224 0.90345 0.00747 0.0
H1523 H 0.12194 0.74244 0.94838 0.0
H1524 H 0.18509 0.82901 -0.00374 0.0
H1525 H 0.09369 0.79947 0.01068 0.0
H1526 H 0.14398 0.77902 0.95088 0.0
H1527 H 0.12993 0.87029 0.994 0.0
C1528 C 0.15482 0.88014 0.00165 0.0
C1529 C 0.17063 0.86895 0.00356 0.0
C1530 C 0.13284 0.78383 0.9634 0.0
C1531 C 0.14489 0.83087 0.98732 0.0
C1532 C 0.12016 0.76328 0.96159 0.0
C1533 C 0.10585 0.76814 0.979 0.0
C1534 C 0.13115 0.80984 0.98228 0.0
C1535 C 0.10434 0.79512 -0.00363 0.0
C1536 C 0.14201 0.86125 0.99406 0.0
C1537 C 0.17316 0.83865 -0.00487 0.0
N1538 N 0.11686 0.81493 -0.00235 0.0
N1539 N 0.16039 0.82057 0.98751 0.0
H1540 H 0.11647 0.87299 0.27892 0.0
H1541 H 0.18486 0.77124 0.1978 0.0
H1542 H 0.1135 0.83493 0.18313 0.0
H1543 H 0.18077 0.77763 0.30157 0.0
H1544 H 0.16093 0.80274 0.19211 0.0
H1545 H 0.14084 0.84277 0.28895 0.0
C1546 C 0.12055 0.85737 0.26051 0.0
C1547 C 0.11278 0.85618 0.2303 0.0
C1548 C 0.16544 0.79793 0.21619 0.0
C1549 C 0.14117 0.82299 0.24085 0.0
C1550 C 0.17938 0.78059 0.21941 0.0
C1551 C 0.18508 0.77229 0.25021 0.0
C1552 C 0.15705 0.80738 0.24396 0.0
C1553 C 0.17705 0.78409 0.2774 0.0
C1554 C 0.13465 0.84058 0.266 0.0
C1555 C 0.11897 0.83628 0.20691 0.0
N1556 N 0.16337 0.80083 0.27369 0.0
N1557 N 0.13286 0.82094 0.21246 0.0
H1558 H 0.16716 0.37447 0.28229 0.0
H1559 H 0.10122 0.47884 0.19763 0.0
H1560 H 0.17216 0.41378 0.18736 0.0
H1561 H 0.10446 0.47484 0.30169 0.0
H1562 H 0.12471 0.44605 0.19363 0.0
H1563 H 0.14304 0.40574 0.29124 0.0
C1564 C 0.16354 0.39048 0.26386 0.0
C1565 C 0.17177 0.39174 0.23416 0.0
C1566 C 0.12009 0.45169 0.21741 0.0
C1567 C 0.14378 0.42618 0.24346 0.0
C1568 C 0.10641 0.46978 0.21968 0.0
C1569 C 0.10064 0.47912 0.25004 0.0
C1570 C 0.12811 0.4425 0.24571 0.0
C1571 C 0.10827 0.46761 0.27784 0.0
C1572 C 0.14963 0.40791 0.26874 0.0
C1573 C 0.16625 0.41226 0.2107 0.0
N1574 N 0.1217 0.45007 0.27506 0.0
N1575 N 0.15253 0.42822 0.21563 0.0
H1576 H 0.87108 0.49362 0.04357 0.0
H1577 H 0.90013 0.65266 0.97556 0.0
H1578 H 0.8422 0.54785 0.97952 0.0
H1579 H 0.93372 0.5807 0.99432 0.0
H1580 H 0.87805 0.61931 0.98981 0.0
H1581 H 0.89293 0.53041 0.03893 0.0
C1582 C 0.86912 0.51392 0.02949 0.0
C1583 C 0.85466 0.51794 0.01231 0.0
C1584 C 0.89023 0.61083 0.99113 0.0
C1585 C 0.87979 0.55987 0.00649 0.0
C1586 C 0.90292 0.62983 0.98301 0.0
C1587 C 0.91891 0.61939 0.98306 0.0
C1588 C 0.89337 0.58109 0.00036 0.0
C1589 C 0.92165 0.58977 0.99381 0.0
C1590 C 0.8817 0.53459 0.02646 0.0
C1591 C 0.85295 0.5442 0.99375 0.0
N1592 N 0.90899 0.57158 0.0019 0.0
N1593 N 0.86538 0.56412 0.99126 0.0
H1594 H 0.93083 0.22896 0.0524 0.0
H1595 H 0.86446 0.16272 0.93233 0.0
H1596 H 0.93502 0.22873 0.94841 0.0
H1597 H 0.86758 0.13181 0.03109 0.0
H1598 H 0.88811 0.19423 0.94112 0.0
H1599 H 0.90694 0.19657 0.04794 0.0
C1600 C 0.92721 0.22084 0.02875 0.0
C1601 C 0.93517 0.23098 0.00077 0.0
C1602 C 0.88351 0.18099 0.96111 0.0
C1603 C 0.90725 0.19573 -0.00465 0.0
C1604 C 0.86978 0.1635 0.95629 0.0
C1605 C 0.86395 0.14475 0.9811 0.0
C1606 C 0.89155 0.17994 0.99104 0.0
C1607 C 0.87154 0.14621 0.01148 0.0
C1608 C 0.91335 0.20296 0.02617 0.0
C1609 C 0.92949 0.22086 0.97062 0.0
N1610 N 0.88505 0.16325 0.01555 0.0
N1611 N 0.91577 0.20433 0.96869 0.0
H1612 H 0.85345 0.21644 0.68756 0.0
H1613 H 0.92327 0.16122 0.80508 0.0
H1614 H 0.85032 0.21864 0.79164 0.0
H1615 H 0.91821 0.12181 0.71029 0.0
H1616 H 0.8985 0.18974 0.79629 0.0
H1617 H 0.8776 0.18476 0.69191 0.0
C1618 C 0.85729 0.20882 0.71129 0.0
C1619 C 0.84961 0.2198 0.73927 0.0
C1620 C 0.90291 0.17526 0.77712 0.0
C1621 C 0.87792 0.18539 0.74448 0.0
C1622 C 0.91727 0.15951 0.78184 0.0
C1623 C 0.92296 0.13934 0.75823 0.0
C1624 C 0.89408 0.17107 0.74845 0.0
C1625 C 0.91442 0.13748 0.72889 0.0
C1626 C 0.87134 0.19141 0.71377 0.0
C1627 C 0.8556 0.21021 0.76944 0.0
N1628 N 0.90035 0.15295 0.72488 0.0
N1629 N 0.86956 0.19428 0.77125 0.0
H1630 H 0.86559 0.62049 0.70923 0.0
H1631 H 0.93909 0.53612 0.79402 0.0
H1632 H 0.86522 0.58842 0.80778 0.0
H1633 H 0.93212 0.52936 0.6909 0.0
H1634 H 0.9143 0.56548 0.79808 0.0
H1635 H 0.89075 0.59249 0.6999 0.0
C1636 C 0.87042 0.60657 0.72848 0.0
C1637 C 0.86321 0.60668 0.75928 0.0
C1638 C 0.91839 0.55827 0.77439 0.0
C1639 C 0.89249 0.57633 0.74943 0.0
C1640 C 0.93283 0.54231 0.77197 0.0
C1641 C 0.93786 0.53055 0.74202 0.0
C1642 C 0.90893 0.56301 0.74662 0.0
C1643 C 0.92888 0.53846 0.71436 0.0
C1644 C 0.88496 0.59114 0.72336 0.0
C1645 C 0.87029 0.58883 0.7836 0.0
N1646 N 0.91474 0.55381 0.71733 0.0
N1647 N 0.88465 0.57499 0.77839 0.0
H1648 H 0.18192 0.97686 0.43407 0.0
H1649 H 0.11078 0.92112 0.54698 0.0
H1650 H 0.18387 0.97682 0.53835 0.0
H1651 H 0.11923 0.87471 0.45696 0.0
H1652 H 0.13499 0.95108 0.53781 0.0
H1653 H 0.15785 0.94453 0.43664 0.0
C1654 C 0.17776 0.96886 0.45742 0.0
C1655 C 0.18511 0.97912 0.48605 0.0
C1656 C 0.1314 0.93477 0.51968 0.0
C1657 C 0.15702 0.94408 0.48918 0.0
C1658 C 0.11737 0.91815 0.52456 0.0
C1659 C 0.11282 0.89565 0.50249 0.0
C1660 C 0.14103 0.92911 0.4924 0.0
C1661 C 0.12212 0.89221 0.47425 0.0
C1662 C 0.16383 0.95098 0.45888 0.0
C1663 C 0.17878 0.96901 0.5157 0.0
N1664 N 0.13587 0.9086 0.47007 0.0
N1665 N 0.16497 0.95272 0.5165 0.0
H1666 H 0.10399 0.28031 0.43604 0.0
H1667 H 0.17498 0.33384 0.55196 0.0
H1668 H 0.10359 0.2707 0.53988 0.0
H1669 H 0.16704 0.37855 0.46066 0.0
H1670 H 0.15092 0.3035 0.54279 0.0
H1671 H 0.1277 0.31325 0.44063 0.0
C1672 C 0.10841 0.28629 0.45987 0.0
C1673 C 0.1016 0.27317 0.48767 0.0
C1674 C 0.15452 0.31964 0.52448 0.0
C1675 C 0.12931 0.30904 0.49294 0.0
C1676 C 0.16844 0.33654 0.52943 0.0
C1677 C 0.1731 0.35863 0.50694 0.0
C1678 C 0.14508 0.32468 0.49676 0.0
C1679 C 0.164 0.36148 0.47838 0.0
C1680 C 0.12216 0.30453 0.46243 0.0
C1681 C 0.10825 0.28078 0.51789 0.0
N1682 N 0.15034 0.34489 0.47418 0.0
N1683 N 0.12186 0.29761 0.51966 0.0
H1684 H 0.11421 0.33883 0.68179 0.0
H1685 H 0.17941 0.27601 0.80577 0.0
H1686 H 0.11687 0.37496 0.7785 0.0
H1687 H 0.18533 0.27587 0.70215 0.0
H1688 H 0.15587 0.30917 0.79961 0.0
H1689 H 0.13818 0.30863 0.69259 0.0
C1690 C 0.11952 0.33954 0.70576 0.0
C1691 C 0.1134 0.35926 0.72938 0.0
C1692 C 0.16261 0.30259 0.77831 0.0
C1693 C 0.14135 0.32544 0.74162 0.0
C1694 C 0.17627 0.28426 0.78187 0.0
C1695 C 0.18461 0.27373 0.75447 0.0
C1696 C 0.15705 0.30983 0.74708 0.0
C1697 C 0.17952 0.28402 0.72394 0.0
C1698 C 0.13342 0.32278 0.7117 0.0
C1699 C 0.12102 0.35971 0.75981 0.0
N1700 N 0.16594 0.30091 0.72104 0.0
N1701 N 0.13466 0.34323 0.76502 0.0
H1702 H 0.12177 0.00997 0.7907 0.0
H1703 H 0.15211 0.84679 0.73722 0.0
H1704 H 0.09257 0.94912 0.7348 0.0
H1705 H 0.18443 0.92213 0.74604 0.0
H1706 H 0.12962 0.87968 0.75103 0.0
H1707 H 0.14381 0.97336 0.78936 0.0
C1708 C 0.11981 0.98836 0.77914 0.0
C1709 C 0.10522 0.98245 0.76309 0.0
C1710 C 0.14164 0.88897 0.75043 0.0
C1711 C 0.13054 0.94058 0.76118 0.0
C1712 C 0.15453 0.87022 0.74271 0.0
C1713 C 0.17023 0.88175 0.7401 0.0
C1714 C 0.14435 0.91957 0.75638 0.0
C1715 C 0.1726 0.91223 0.74784 0.0
C1716 C 0.13248 0.96772 0.77802 0.0
C1717 C 0.10346 0.95438 0.74794 0.0
N1718 N 0.15976 0.93016 0.75545 0.0
N1719 N 0.116 0.93453 0.74722 0.0
H1720 H 0.87293 0.98839 0.53874 0.0
H1721 H 0.9027 0.15228 0.48662 0.0
H1722 H 0.84307 0.05003 0.48507 0.0
H1723 H 0.93524 0.07705 0.49444 0.0
H1724 H 0.88029 0.11906 0.49993 0.0
H1725 H 0.89497 0.02482 0.53665 0.0
C1726 C 0.87085 0.0101 0.52743 0.0
C1727 C 0.85605 0.01627 0.51225 0.0
C1728 C 0.89234 0.10986 0.49919 0.0
C1729 C 0.88139 0.05805 0.5096 0.0
C1730 C 0.90519 0.1288 0.49178 0.0
C1731 C 0.92093 0.11743 0.4891 0.0
C1732 C 0.89513 0.0792 0.50475 0.0
C1733 C 0.92337 0.08685 0.49636 0.0
C1734 C 0.88351 0.03066 0.52591 0.0
C1735 C 0.85413 0.04452 0.49751 0.0
N1736 N 0.91058 0.06874 0.50369 0.0
N1737 N 0.86668 0.06433 0.49643 0.0
H1738 H 0.86083 0.66856 0.43458 0.0
H1739 H 0.93072 0.72722 0.55107 0.0
H1740 H 0.86657 0.63133 0.53026 0.0
H1741 H 0.9327 0.73039 0.44686 0.0
H1742 H 0.90644 0.6957 0.54741 0.0
H1743 H 0.88487 0.69921 0.44298 0.0
C1744 C 0.86675 0.6679 0.45797 0.0
C1745 C 0.86149 0.64769 0.48196 0.0
C1746 C 0.91243 0.70271 0.52537 0.0
C1747 C 0.88961 0.68173 0.49127 0.0
C1748 C 0.92651 0.72008 0.52745 0.0
C1749 C 0.93397 0.73098 0.49922 0.0
C1750 C 0.90558 0.69681 0.49485 0.0
C1751 C 0.92755 0.72199 0.46922 0.0
C1752 C 0.88072 0.68483 0.46248 0.0
C1753 C 0.86999 0.64705 0.51142 0.0
N1754 N 0.91362 0.70604 0.46784 0.0
N1755 N 0.8837 0.66357 0.51517 0.0
H1756 H 0.93628 0.67495 0.24902 0.0
H1757 H 0.84253 0.70212 0.24933 0.0
H1758 H 0.90315 0.60057 0.24382 0.0
H1759 H 0.87451 0.76444 0.202 0.0
H1760 H 0.86449 0.66476 0.25072 0.0
H1761 H 0.91408 0.70943 0.23487 0.0
C1762 C 0.92449 0.6658 0.24405 0.0
C1763 C 0.92159 0.63483 0.2476 0.0
C1764 C 0.86657 0.68646 0.23948 0.0
C1765 C 0.89608 0.67407 0.23259 0.0
C1766 C 0.85398 0.70759 0.23837 0.0
C1767 C 0.85665 0.73634 0.2254 0.0
C1768 C 0.88198 0.69444 0.22816 0.0
C1769 C 0.87193 0.74248 0.21221 0.0
C1770 C 0.91178 0.68546 0.23629 0.0
C1771 C 0.90592 0.62431 0.24152 0.0
N1772 N 0.88405 0.72205 0.21449 0.0
N1773 N 0.89375 0.64383 0.23492 0.0
H1774 H 0.86678 0.12432 0.20831 0.0
H1775 H 0.93595 0.02449 0.28745 0.0
H1776 H 0.8637 0.08329 0.30273 0.0
H1777 H 0.92946 0.02319 0.18394 0.0
H1778 H 0.91207 0.05619 0.29262 0.0
H1779 H 0.89091 0.0937 0.19699 0.0
C1780 C 0.87078 0.10802 0.22612 0.0
C1781 C 0.86309 0.10617 0.25641 0.0
C1782 C 0.91606 0.04964 0.26865 0.0
C1783 C 0.89117 0.07256 0.24442 0.0
C1784 C 0.92995 0.03219 0.26564 0.0
C1785 C 0.93495 0.02167 0.23517 0.0
C1786 C 0.90704 0.05704 0.24097 0.0
C1787 C 0.92628 0.03141 0.2078 0.0
C1788 C 0.88472 0.09098 0.21989 0.0
C1789 C 0.86915 0.08529 0.27898 0.0
N1790 N 0.91267 0.04839 0.21132 0.0
N1791 N 0.88292 0.06983 0.27279 0.0
H1792 H 0.6155 0.37847 0.45998 0.0
H1793 H 0.68765 0.47348 0.53693 0.0
H1794 H 0.61649 0.41134 0.5582 0.0
H1795 H 0.6789 0.47544 0.43415 0.0
H1796 H 0.66408 0.4413 0.54396 0.0
H1797 H 0.63973 0.40853 0.44819 0.0
C1798 C 0.62046 0.39278 0.47872 0.0
C1799 C 0.61388 0.39243 0.5101 0.0
C1800 C 0.6675 0.4481 0.51971 0.0
C1801 C 0.64208 0.42542 0.49733 0.0
C1802 C 0.68124 0.4658 0.51562 0.0
C1803 C 0.68552 0.4766 0.48483 0.0
C1804 C 0.65787 0.44093 0.49279 0.0
C1805 C 0.6763 0.46695 0.45819 0.0
C1806 C 0.63446 0.40948 0.47216 0.0
C1807 C 0.6211 0.41093 0.53365 0.0
N1808 N 0.66283 0.44991 0.46277 0.0
N1809 N 0.63488 0.42613 0.52698 0.0
H1810 H 0.6057 0.77786 0.43331 0.0
H1811 H 0.67508 0.83639 0.54929 0.0
H1812 H 0.6031 0.77634 0.53753 0.0
H1813 H 0.6676 0.8807 0.45763 0.0
H1814 H 0.65109 0.80596 0.53976 0.0
H1815 H 0.62931 0.81129 0.43699 0.0
C1816 C 0.60963 0.78567 0.45688 0.0
C1817 C 0.60226 0.77466 0.48517 0.0
C1818 C 0.65481 0.82197 0.52141 0.0
C1819 C 0.62979 0.81108 0.48956 0.0
C1820 C 0.6687 0.8389 0.52655 0.0
C1821 C 0.67349 0.86086 0.50404 0.0
C1822 C 0.64554 0.82679 0.49344 0.0
C1823 C 0.66451 0.86364 0.47531 0.0
C1824 C 0.62329 0.80422 0.45898 0.0
C1825 C 0.60825 0.78465 0.51513 0.0
N1826 N 0.65088 0.84693 0.47086 0.0
N1827 N 0.62179 0.80167 0.51654 0.0
H1828 H 0.67892 0.76946 0.80295 0.0
H1829 H 0.61403 0.83755 0.68128 0.0
H1830 H 0.68626 0.77881 0.70017 0.0
H1831 H 0.61516 0.86728 0.78059 0.0
H1832 H 0.63806 0.80722 0.6911 0.0
H1833 H 0.6545 0.80061 0.79846 0.0
C1834 C 0.67586 0.77936 0.77974 0.0
C1835 C 0.68492 0.77217 0.75202 0.0
C1836 C 0.63291 0.81989 0.71099 0.0
C1837 C 0.6564 0.80594 0.74633 0.0
C1838 C 0.61896 0.83668 0.70558 0.0
C1839 C 0.61245 0.85484 0.73023 0.0
C1840 C 0.64047 0.82089 0.74141 0.0
C1841 C 0.61962 0.85332 0.76106 0.0
C1842 C 0.66172 0.79653 0.77707 0.0
C1843 C 0.6799 0.78441 0.72227 0.0
N1844 N 0.63333 0.83688 0.76575 0.0
N1845 N 0.6659 0.80013 0.72013 0.0
H1846 H 0.60303 0.47882 0.69842 0.0
H1847 H 0.67048 0.3764 0.7805 0.0
H1848 H 0.60672 0.47478 0.8024 0.0
H1849 H 0.67537 0.4193 0.68739 0.0
H1850 H 0.64596 0.40634 0.79035 0.0
H1851 H 0.62701 0.44728 0.69399 0.0
C1852 C 0.60842 0.46996 0.72037 0.0
C1853 C 0.60263 0.47899 0.75083 0.0
C1854 C 0.65263 0.40964 0.76809 0.0
C1855 C 0.63066 0.44382 0.746 0.0
C1856 C 0.66678 0.393 0.76274 0.0
C1857 C 0.67514 0.39566 0.73326 0.0
C1858 C 0.64662 0.42847 0.74346 0.0
C1859 C 0.66944 0.4168 0.7106 0.0
C1860 C 0.62238 0.45261 0.71785 0.0
C1861 C 0.61054 0.46777 0.77848 0.0
N1862 N 0.65546 0.4319 0.71591 0.0
N1863 N 0.62423 0.45096 0.77545 0.0
H1864 H 0.43271 0.58407 0.44352 0.0
H1865 H 0.3557 0.53638 0.54723 0.0
H1866 H 0.4179 0.63611 0.52632 0.0
H1867 H 0.36337 0.51301 0.44708 0.0
H1868 H 0.37928 0.56993 0.54468 0.0
H1869 H 0.40947 0.55114 0.45116 0.0
C1870 C 0.4249 0.58774 0.46416 0.0
C1871 C 0.4274 0.61239 0.48475 0.0
C1872 C 0.3756 0.55781 0.52316 0.0
C1873 C 0.40027 0.57582 0.49273 0.0
C1874 C 0.36199 0.53915 0.52445 0.0
C1875 C 0.35753 0.52213 0.49725 0.0
C1876 C 0.38487 0.55887 0.49466 0.0
C1877 C 0.36636 0.5259 0.46853 0.0
C1878 C 0.41143 0.56939 0.46812 0.0
C1879 C 0.41658 0.61685 0.51045 0.0
N1880 N 0.37971 0.54342 0.46815 0.0
N1881 N 0.40339 0.5989 0.51361 0.0
H1882 H 0.35153 0.17356 0.48621 0.0
H1883 H 0.4449 0.20197 0.48657 0.0
H1884 H 0.38465 0.09956 0.49682 0.0
H1885 H 0.41288 0.26423 0.53402 0.0
H1886 H 0.42306 0.16438 0.4859 0.0
H1887 H 0.37353 0.20868 0.49965 0.0
C1888 C 0.36326 0.16466 0.49229 0.0
C1889 C 0.36623 0.13358 0.49051 0.0
C1890 C 0.42095 0.18614 0.49697 0.0
C1891 C 0.39153 0.17348 0.50454 0.0
C1892 C 0.43347 0.2074 0.49767 0.0
C1893 C 0.43075 0.23621 0.51045 0.0
C1894 C 0.40556 0.19405 0.50848 0.0
C1895 C 0.4155 0.24226 0.52388 0.0
C1896 C 0.37586 0.18467 0.49961 0.0
C1897 C 0.38184 0.12337 0.49786 0.0
N1898 N 0.40344 0.22171 0.52195 0.0
N1899 N 0.39391 0.14318 0.50393 0.0
H1900 H 0.42443 0.13007 0.20942 0.0
H1901 H 0.35811 0.23341 0.29376 0.0
H1902 H 0.42945 0.16902 0.30442 0.0
H1903 H 0.3591 0.22157 0.19021 0.0
H1904 H 0.38277 0.20384 0.29827 0.0
H1905 H 0.40037 0.16114 0.20051 0.0
C1906 C 0.42092 0.14625 0.22776 0.0
C1907 C 0.42908 0.14729 0.25752 0.0
C1908 C 0.37748 0.20716 0.27456 0.0
C1909 C 0.40106 0.18143 0.24836 0.0
C1910 C 0.36318 0.22341 0.27209 0.0
C1911 C 0.35637 0.22936 0.24164 0.0
C1912 C 0.38511 0.19665 0.24636 0.0
C1913 C 0.36376 0.21682 0.21418 0.0
C1914 C 0.40698 0.16348 0.22296 0.0
C1915 C 0.42365 0.16786 0.28095 0.0
N1916 N 0.37781 0.20118 0.21713 0.0
N1917 N 0.40985 0.18365 0.27613 0.0
H1918 H 0.3579 0.58044 0.30236 0.0
H1919 H 0.43359 0.53116 0.1943 0.0
H1920 H 0.36867 0.6236 0.21151 0.0
H1921 H 0.42804 0.50986 0.29552 0.0
H1922 H 0.40943 0.56305 0.19739 0.0
H1923 H 0.38165 0.54843 0.29574 0.0
C1924 C 0.36487 0.58219 0.28026 0.0
C1925 C 0.3611 0.60432 0.25713 0.0
C1926 C 0.4137 0.55188 0.21908 0.0
C1927 C 0.38893 0.56891 0.25017 0.0
C1928 C 0.42772 0.53426 0.21749 0.0
C1929 C 0.43306 0.51821 0.24481 0.0
C1930 C 0.40477 0.553 0.24805 0.0
C1931 C 0.42455 0.52225 0.274 0.0
C1932 C 0.37868 0.56445 0.27685 0.0
C1933 C 0.37092 0.60634 0.22951 0.0
N1934 N 0.41076 0.5387 0.27469 0.0
N1935 N 0.38447 0.58915 0.22694 0.0
H1936 H 0.68218 0.96568 0.94436 0.0
H1937 H 0.60616 0.91727 0.05182 0.0
H1938 H 0.67491 0.99133 0.04397 0.0
H1939 H 0.61824 0.87155 0.96313 0.0
H1940 H 0.62944 0.9502 0.04452 0.0
H1941 H 0.65824 0.93322 0.94774 0.0
C1942 C 0.6759 0.96361 0.96724 0.0
C1943 C 0.68064 0.98091 0.99403 0.0
C1944 C 0.62686 0.93339 0.02623 0.0
C1945 C 0.65283 0.9453 -0.0024 0.0
C1946 C 0.61334 0.91507 0.03005 0.0
C1947 C 0.61007 0.89212 0.00766 0.0
C1948 C 0.63733 0.92858 -4e-05 0.0
C1949 C 0.62013 0.88949 0.98048 0.0
C1950 C 0.66207 0.94558 0.969 0.0
C1951 C 0.67176 0.9781 0.02285 0.0
N1952 N 0.6334 0.90727 0.97752 0.0
N1953 N 0.65822 0.96107 0.02372 0.0
H1954 H 0.59487 0.29568 0.01814 0.0
H1955 H 0.68735 0.32865 -0.00248 0.0
H1956 H 0.62142 0.2512 0.94244 0.0
H1957 H 0.65374 0.39957 0.02049 0.0
H1958 H 0.66439 0.29665 0.98107 0.0
H1959 H 0.61708 0.33179 0.02417 0.0
C1960 C 0.60505 0.29434 0.00185 0.0
C1961 C 0.6061 0.27098 0.97914 0.0
C1962 C 0.66218 0.31935 0.98958 0.0
C1963 C 0.63198 0.31087 0.98723 0.0
C1964 C 0.67527 0.33762 -0.00121 0.0
C1965 C 0.67254 0.36668 0.01114 0.0
C1966 C 0.64634 0.33015 0.99324 0.0
C1967 C 0.65651 0.37705 0.01211 0.0
C1968 C 0.61786 0.31457 0.00564 0.0
C1969 C 0.62 0.26939 0.95971 0.0
N1970 N 0.64411 0.35874 0.004 0.0
N1971 N 0.6325 0.28864 0.96456 0.0
H1972 H 0.68024 0.27275 0.30417 0.0
H1973 H 0.61443 0.3359 0.18182 0.0
H1974 H 0.68613 0.27538 0.20056 0.0
H1975 H 0.61726 0.37202 0.27852 0.0
H1976 H 0.63852 0.306 0.19229 0.0
H1977 H 0.6564 0.30539 0.29892 0.0
C1978 C 0.67701 0.28144 0.2805 0.0
C1979 C 0.68544 0.27188 0.25281 0.0
C1980 C 0.63378 0.32008 0.21148 0.0
C1981 C 0.65758 0.30738 0.24643 0.0
C1982 C 0.61982 0.33671 0.20571 0.0
C1983 C 0.61371 0.35637 0.2294 0.0
C1984 C 0.64179 0.32278 0.24131 0.0
C1985 C 0.62141 0.35685 0.25975 0.0
C1986 C 0.66319 0.2995 0.27746 0.0
C1987 C 0.68024 0.28275 0.22258 0.0
N1988 N 0.63512 0.34049 0.26481 0.0
N1989 N 0.66654 0.29932 0.22016 0.0
H1990 H 0.67389 0.88204 0.28086 0.0
H1991 H 0.59906 0.96998 0.20488 0.0
H1992 H 0.6695 0.90617 0.18006 0.0
H1993 H 0.61226 0.98475 0.30446 0.0
H1994 H 0.62253 0.93732 0.19835 0.0
H1995 H 0.65048 0.91438 0.29302 0.0
C1996 C 0.66835 0.89482 0.26148 0.0
C1997 C 0.67367 0.89124 0.22936 0.0
C1998 C 0.62013 0.9471 0.2219 0.0
C1999 C 0.64643 0.92684 0.24279 0.0
C2000 C 0.60648 0.96512 0.22583 0.0
C2001 C 0.60341 0.97942 0.25549 0.0
C2002 C 0.6309 0.94319 0.24783 0.0
C2003 C 0.6139 0.97339 0.28147 0.0
C2004 C 0.65483 0.91286 0.26834 0.0
C2005 C 0.6658 0.90807 0.20515 0.0
N2006 N 0.62724 0.95589 0.27704 0.0
N2007 N 0.65248 0.92452 0.21223 0.0
H2008 H 0.4255 0.0872 0.93481 0.0
H2009 H 0.35678 0.023 0.0508 0.0
H2010 H 0.42005 0.12114 0.03192 0.0
H2011 H 0.35436 0.02266 0.94657 0.0
H2012 H 0.38087 0.05508 0.0477 0.0
H2013 H 0.40183 0.05546 0.94272 0.0
C2014 C 0.41971 0.08696 0.95834 0.0
C2015 C 0.4249 0.10659 0.98289 0.0
C2016 C 0.37481 0.04858 0.02555 0.0
C2017 C 0.39725 0.07124 0.99171 0.0
C2018 C 0.36085 0.03087 0.02734 0.0
C2019 C 0.35332 0.02066 -0.00109 0.0
C2020 C 0.38146 0.05554 -0.00489 0.0
C2021 C 0.35956 0.03052 0.96908 0.0
C2022 C 0.40596 0.06937 0.9626 0.0
C2023 C 0.41664 0.10596 0.0126 0.0
N2024 N 0.37337 0.04686 0.96796 0.0
N2025 N 0.40312 0.08882 0.01612 0.0
H2026 H 0.36576 0.66084 0.93452 0.0
H2027 H 0.43166 0.7259 0.05604 0.0
H2028 H 0.36883 0.62767 0.03247 0.0
H2029 H 0.43634 0.72623 0.95214 0.0
H2030 H 0.40794 0.69311 0.05094 0.0
H2031 H 0.38953 0.69181 0.94403 0.0
C2032 C 0.37115 0.66087 0.95843 0.0
C2033 C 0.36523 0.64171 0.98279 0.0
C2034 C 0.41443 0.6997 0.02933 0.0
C2035 C 0.39291 0.6765 0.99361 0.0
C2036 C 0.42818 0.71785 0.03228 0.0
C2037 C 0.43624 0.72822 0.0045 0.0
C2038 C 0.40854 0.69246 -0.00164 0.0
C2039 C 0.43073 0.71819 0.97419 0.0
C2040 C 0.38491 0.67813 0.96367 0.0
C2041 C 0.37286 0.64237 0.01318 0.0
N2042 N 0.41712 0.70139 0.97191 0.0
N2043 N 0.38639 0.65928 0.01769 0.0
H2044 H 0.42412 0.66323 0.80567 0.0
H2045 H 0.35676 0.72916 0.68764 0.0
H2046 H 0.42014 0.63097 0.70759 0.0
H2047 H 0.35283 0.72699 0.79165 0.0
H2048 H 0.38085 0.69704 0.69124 0.0
H2049 H 0.40031 0.69454 0.79725 0.0
C2050 C 0.4186 0.66372 0.78188 0.0
C2051 C 0.42425 0.64468 0.75718 0.0
C2052 C 0.37445 0.70295 0.71319 0.0
C2053 C 0.39646 0.67963 0.7477 0.0
C2054 C 0.36049 0.72069 0.71109 0.0
C2055 C 0.35252 0.73018 0.73935 0.0
C2056 C 0.38066 0.69526 0.74381 0.0
C2057 C 0.35836 0.71964 0.76924 0.0
C2058 C 0.40478 0.68108 0.7773 0.0
C2059 C 0.41635 0.64567 0.72708 0.0
N2060 N 0.37217 0.70328 0.77071 0.0
N2061 N 0.40277 0.66262 0.72323 0.0
H2062 H 0.36224 0.08458 0.80171 0.0
H2063 H 0.43242 0.02886 0.68469 0.0
H2064 H 0.3693 0.12766 0.70928 0.0
H2065 H 0.4337 0.02153 0.78872 0.0
H2066 H 0.40864 0.06177 0.68925 0.0
H2067 H 0.38632 0.05422 0.79242 0.0
C2068 C 0.36855 0.08682 0.77887 0.0
C2069 C 0.36359 0.1084 0.75604 0.0
C2070 C 0.41439 0.05355 0.71107 0.0
C2071 C 0.3917 0.07447 0.7457 0.0
C2072 C 0.42817 0.03532 0.70851 0.0
C2073 C 0.43528 0.02288 0.7364 0.0
C2074 C 0.40748 0.05874 0.7417 0.0
C2075 C 0.42882 0.03107 0.76663 0.0
C2076 C 0.3825 0.06994 0.77385 0.0
C2077 C 0.37251 0.11088 0.7272 0.0
N2078 N 0.41519 0.04789 0.76842 0.0
N2079 N 0.3862 0.09427 0.7229 0.0
H2080 H 1.00867 0.15973 0.80326 0.0
H2081 H 0.02617 0.20969 0.98618 0.0
H2082 H 0.02141 0.09729 0.87939 0.0
H2083 H 1.01606 0.2729 0.90921 0.0
H2084 H 0.02446 0.16852 0.9474 0.0
H2085 H 1.011 0.20119 0.84164 0.0
C2086 C 1.01194 0.15464 0.82808 0.0
C2087 C 1.01483 0.12478 0.83804 0.0
C2088 C 0.02262 0.19135 0.93891 0.0
C2089 C 1.01759 0.17258 0.88228 0.0
C2090 C 0.02358 0.215 0.96107 0.0
C2091 C 0.02117 0.24494 0.95102 0.0
C2092 C 0.01913 0.19747 0.90629 0.0
C2093 C 1.01799 0.25023 0.91808 0.0
C2094 C 1.01329 0.17845 0.85 0.0
C2095 C 0.01898 0.11981 0.8706 0.0
N2096 N 1.01699 0.22672 0.89693 0.0
N2097 N 0.02025 0.14345 0.8915 0.0
H2098 H 0.27499 0.04031 0.98566 0.0
H2099 H 0.26457 0.09355 0.80157 0.0
H2100 H 0.25981 0.98119 0.90851 0.0
H2101 H 0.27737 0.15425 0.87909 0.0
H2102 H 0.26295 0.05244 0.84035 0.0
H2103 H 0.27642 0.08186 0.94709 0.0
C2104 C 0.27191 0.03603 0.96057 0.0
C2105 C 0.2672 0.00712 0.95038 0.0
C2106 C 0.26613 0.07468 0.84899 0.0
C2107 C 0.26878 0.05497 0.90592 0.0
C2108 C 0.2671 0.09831 0.8268 0.0
C2109 C 0.27122 0.12756 0.83698 0.0
C2110 C 0.26941 0.08002 0.88182 0.0
C2111 C 0.27415 0.13215 0.87012 0.0
C2112 C 0.27274 0.05987 0.93854 0.0
C2113 C 0.26354 0.00301 0.91747 0.0
N2114 N 0.27326 0.1086 0.89133 0.0
N2115 N 0.26436 0.02668 0.89647 0.0
H2116 H 1.00712 0.09199 0.43369 0.0
H2117 H 0.02809 0.04088 0.25251 0.0
H2118 H 0.02197 0.1541 0.35891 0.0
H2119 H 1.01537 0.9786 0.32869 0.0
H2120 H 0.02612 0.08235 0.29102 0.0
H2121 H 1.00987 0.05052 0.39547 0.0
C2122 C 1.01093 0.09701 0.40916 0.0
C2123 C 1.01428 0.12677 0.39956 0.0
C2124 C 0.02376 0.05965 0.29938 0.0
C2125 C 1.01757 0.07891 0.35547 0.0
C2126 C 0.02487 0.03585 0.27738 0.0
C2127 C 0.02179 0.00607 0.28728 0.0
C2128 C 0.01942 0.05386 0.33165 0.0
C2129 C 1.01784 0.00111 0.31992 0.0
C2130 C 1.01253 0.07318 0.38733 0.0
C2131 C 0.01913 0.13164 0.36737 0.0
N2132 N 1.01669 0.02476 0.34087 0.0
N2133 N 0.02066 0.10796 0.34653 0.0
H2134 H 0.28476 0.15761 0.43057 0.0
H2135 H 0.25455 0.21272 0.25589 0.0
H2136 H 0.26151 0.0992 0.36146 0.0
H2137 H 0.27435 0.27289 0.3276 0.0
H2138 H 0.25761 0.17088 0.29371 0.0
H2139 H 0.28208 0.1995 0.39253 0.0
C2140 C 0.2791 0.15354 0.40734 0.0
C2141 C 0.27334 0.12473 0.39926 0.0
C2142 C 0.26129 0.19319 0.30126 0.0
C2143 C 0.2701 0.17295 0.35552 0.0
C2144 C 0.25955 0.21719 0.27965 0.0
C2145 C 0.26421 0.24647 0.28855 0.0
C2146 C 0.26788 0.19826 0.33209 0.0
C2147 C 0.27054 0.25076 0.31974 0.0
C2148 C 0.27755 0.17756 0.38563 0.0
C2149 C 0.26624 0.12089 0.36867 0.0
N2150 N 0.27225 0.22691 0.34033 0.0
N2151 N 0.26476 0.14472 0.34801 0.0
H2152 H 0.02695 0.90386 0.10734 0.0
H2153 H 1.01057 0.72705 0.08018 0.0
H2154 H 1.0169 0.84143 0.18504 0.0
H2155 H 0.02352 0.78862 0.00347 0.0
H2156 H 1.01247 0.76874 0.11905 0.0
H2157 H 0.02531 0.86198 0.06871 0.0
C2158 C 0.02437 0.88143 0.11629 0.0
C2159 C 0.0221 0.87627 0.14953 0.0
C2160 C 1.01494 0.77307 0.0937 0.0
C2161 C 0.02014 0.82817 0.10546 0.0
C2162 C 1.01388 0.74924 0.07152 0.0
C2163 C 1.01683 0.75429 0.03847 0.0
C2164 C 0.01903 0.80214 0.08277 0.0
C2165 C 0.02101 0.78362 0.02865 0.0
C2166 C 0.02346 0.85749 0.09424 0.0
C2167 C 0.01883 0.8466 0.15969 0.0
N2168 N 0.02197 0.80633 0.05063 0.0
N2169 N 1.01792 0.82378 0.13781 0.0
H2170 H 0.7792 0.96186 0.00402 0.0
H2171 H 0.75627 0.90995 0.184 0.0
H2172 H 0.76594 0.02415 0.0798 0.0
H2173 H 0.77266 0.84871 0.10973 0.0
H2174 H 0.75872 0.95162 0.14578 0.0
H2175 H 0.77614 0.92025 0.04199 0.0
C2176 C 0.77564 0.96686 0.0287 0.0
C2177 C 0.77284 0.99668 0.03872 0.0
C2178 C 0.76177 0.9291 0.13779 0.0
C2179 C 0.76921 0.94873 0.08248 0.0
C2180 C 0.76036 0.90518 0.1596 0.0
C2181 C 0.76429 0.87563 0.15014 0.0
C2182 C 0.7672 0.92362 0.10614 0.0
C2183 C 0.76942 0.871 0.11811 0.0
C2184 C 0.77389 0.94297 0.0504 0.0
C2185 C 0.76828 0.00159 0.07104 0.0
N2186 N 0.77078 0.89474 0.09733 0.0
N2187 N 0.76658 0.97785 0.09174 0.0
H2188 H 0.02429 0.90889 0.55268 0.0
H2189 H 1.01669 0.95899 0.73812 0.0
H2190 H 0.01999 0.84542 0.63165 0.0
H2191 H 1.01641 0.02177 0.6581 0.0
H2192 H 1.01849 0.91743 0.69982 0.0
H2193 H 0.02208 0.95015 0.59103 0.0
C2194 C 0.02293 0.90348 0.57814 0.0
C2195 C 0.02237 0.87335 0.58883 0.0
C2196 C 1.01801 0.94025 0.69057 0.0
C2197 C 0.01982 0.92115 0.63321 0.0
C2198 C 1.01698 0.96414 0.71245 0.0
C2199 C 1.0164 0.99413 0.70139 0.0
C2200 C 1.01851 0.94616 0.65719 0.0
C2201 C 1.01685 0.99912 0.6678 0.0
C2202 C 0.02163 0.92725 0.60007 0.0
C2203 C 0.02053 0.86815 0.62221 0.0
N2204 N 1.0179 0.9754 0.64693 0.0
N2205 N 0.01935 0.89181 0.6432 0.0
H2206 H 0.77524 0.79208 0.73708 0.0
H2207 H 0.75893 0.84234 0.55389 0.0
H2208 H 0.76831 0.72927 0.65841 0.0
H2209 H 0.76997 0.90536 0.63047 0.0
H2210 H 0.76156 0.80105 0.59223 0.0
H2211 H 0.77287 0.8337 0.69886 0.0
C2212 C 0.77324 0.78695 0.71172 0.0
C2213 C 0.77194 0.75698 0.70099 0.0
C2214 C 0.7634 0.82387 0.60074 0.0
C2215 C 0.76913 0.8049 0.65698 0.0
C2216 C 0.76186 0.84762 0.57883 0.0
C2217 C 0.76423 0.87759 0.58887 0.0
C2218 C 0.76731 0.82988 0.63315 0.0
C2219 C 0.76797 0.88272 0.6216 0.0
C2220 C 0.77189 0.81085 0.68989 0.0
C2221 C 0.76939 0.75194 0.66781 0.0
N2222 N 0.76942 0.8591 0.64255 0.0
N2223 N 0.76802 0.77565 0.64702 0.0
H2224 H 1.01417 0.71061 0.48719 0.0
H2225 H 0.02063 0.65814 0.30218 0.0
H2226 H 0.02612 0.77067 0.40848 0.0
H2227 H 1.01044 0.59686 0.38087 0.0
H2228 H 0.0226 0.69929 0.34076 0.0
H2229 H 1.01247 0.66899 0.4488 0.0
C2230 C 1.01649 0.71509 0.4618 0.0
C2231 C 0.02034 0.7443 0.45109 0.0
C2232 C 0.01991 0.67691 0.3497 0.0
C2233 C 1.01843 0.69639 0.40685 0.0
C2234 C 1.01875 0.65324 0.32762 0.0
C2235 C 1.01527 0.6238 0.33819 0.0
C2236 C 1.01751 0.67139 0.38281 0.0
C2237 C 1.01312 0.61909 0.37156 0.0
C2238 C 1.0155 0.69122 0.43988 0.0
C2239 C 0.02306 0.74863 0.41784 0.0
N2240 N 1.01422 0.64266 0.39266 0.0
N2241 N 0.02209 0.72493 0.39694 0.0
H2242 H 0.27749 0.59189 0.30296 0.0
H2243 H 0.26206 0.54051 0.48631 0.0
H2244 H 0.26781 0.65429 0.38086 0.0
H2245 H 0.26959 0.47789 0.40771 0.0
H2246 H 0.26468 0.58222 0.44832 0.0
H2247 H 0.27534 0.55021 0.34108 0.0
C2248 C 0.27494 0.59694 0.32814 0.0
C2249 C 0.27282 0.62686 0.33864 0.0
C2250 C 0.26577 0.55941 0.4393 0.0
C2251 C 0.2703 0.57873 0.38264 0.0
C2252 C 0.26427 0.53545 0.46101 0.0
C2253 C 0.26557 0.50549 0.45022 0.0
C2254 C 0.26866 0.55358 0.4064 0.0
C2255 C 0.26846 0.50055 0.41713 0.0
C2256 C 0.2737 0.57298 0.34992 0.0
C2257 C 0.26959 0.63171 0.37163 0.0
N2258 N 0.26991 0.52434 0.39641 0.0
N2259 N 0.2684 0.60791 0.39241 0.0
H2260 H 0.04512 0.50523 0.80114 0.0
H2261 H 0.99021 0.6116 0.90925 0.0
H2262 H 0.9938 0.50783 0.78884 0.0
H2263 H 0.03714 0.64005 0.8778 0.0
H2264 H 0.99193 0.56823 0.87249 0.0
H2265 H 0.04327 0.54901 0.83775 0.0
C2266 C 0.03346 0.51475 0.8067 0.0
C2267 C 0.01955 0.50283 0.79257 0.0
C2268 C 1.00179 0.5841 0.87345 0.0
C2269 C 1.01735 0.5527 0.83379 0.0
C2270 C 1.0008 0.60884 0.89427 0.0
C2271 C 1.01344 0.62962 0.89608 0.0
C2272 C 1.01576 0.57952 0.85509 0.0
C2273 C 0.02701 0.62482 0.87657 0.0
C2274 C 0.03243 0.53982 0.8272 0.0
C2275 C 1.00474 0.5162 0.7998 0.0
N2276 N 0.02791 0.60003 0.85714 0.0
N2277 N 1.004 0.54033 0.8201 0.0
H2278 H 0.29157 0.65027 0.92045 0.0
H2279 H 0.25073 0.71533 0.75948 0.0
H2280 H 0.25617 0.60107 0.86544 0.0
H2281 H 0.27987 0.76899 0.82367 0.0
H2282 H 0.25304 0.67288 0.79697 0.0
H2283 H 0.28855 0.69277 0.88351 0.0
C2284 C 0.2832 0.64829 0.90046 0.0
C2285 C 0.27412 0.6219 0.89607 0.0
C2286 C 0.25892 0.69391 0.80296 0.0
C2287 C 0.27047 0.67097 0.85371 0.0
C2288 C 0.25761 0.71817 0.78157 0.0
C2289 C 0.26518 0.74569 0.78846 0.0
C2290 C 0.26812 0.69692 0.83126 0.0
C2291 C 0.27378 0.74822 0.81754 0.0
C2292 C 0.28144 0.67271 0.87944 0.0
C2293 C 0.26355 0.62075 0.86959 0.0
N2294 N 0.27515 0.72404 0.83773 0.0
N2295 N 0.26197 0.64498 0.84949 0.0
H2296 H 1.00923 0.29084 0.50394 0.0
H2297 H 0.03063 0.34261 0.68464 0.0
H2298 H 0.0229 0.22883 0.57976 0.0
H2299 H 1.01426 0.40405 0.61045 0.0
H2300 H 0.02845 0.30114 0.6463 0.0
H2301 H 1.01121 0.33235 0.5423 0.0
C2302 C 1.01266 0.28586 0.5287 0.0
C2303 C 1.01597 0.25613 0.53854 0.0
C2304 C 0.02533 0.32365 0.63832 0.0
C2305 C 1.01835 0.30404 0.58279 0.0
C2306 C 0.02659 0.34749 0.66022 0.0
C2307 C 0.0226 0.37707 0.65086 0.0
C2308 C 0.02 0.32916 0.60661 0.0
C2309 C 1.01754 0.38175 0.61877 0.0
C2310 C 1.01378 0.30971 0.55063 0.0
C2311 C 0.02023 0.25129 0.57105 0.0
N2312 N 1.01634 0.35805 0.59786 0.0
N2313 N 0.02136 0.275 0.59195 0.0
H2314 H 0.77723 0.40555 0.68343 0.0
H2315 H 0.76 0.46279 0.50267 0.0
H2316 H 0.7576 0.34831 0.60881 0.0
H2317 H 0.7802 0.51899 0.57757 0.0
H2318 H 0.75882 0.42089 0.54098 0.0
H2319 H 0.77865 0.44687 0.64476 0.0
C2320 C 0.77316 0.40164 0.65885 0.0
C2321 C 0.76717 0.37335 0.64945 0.0
C2322 C 0.76355 0.44232 0.54908 0.0
C2323 C 0.7687 0.42104 0.6048 0.0
C2324 C 0.76424 0.46631 0.52721 0.0
C2325 C 0.77027 0.49448 0.53689 0.0
C2326 C 0.76905 0.4463 0.58094 0.0
C2327 C 0.77539 0.49776 0.56909 0.0
C2328 C 0.77401 0.42535 0.63673 0.0
C2329 C 0.76233 0.36966 0.61711 0.0
N2330 N 0.77473 0.47392 0.5899 0.0
N2331 N 0.76311 0.3933 0.59599 0.0
H2332 H 1.0087 0.46 0.23546 0.0
H2333 H 0.0335 0.40708 0.05695 0.0
H2334 H 0.02317 0.52161 0.15992 0.0
H2335 H 1.01309 0.34721 0.12834 0.0
H2336 H 0.03138 0.4486 0.09544 0.0
H2337 H 1.01136 0.41824 0.19751 0.0
C2338 C 1.01243 0.46482 0.21084 0.0
C2339 C 1.01573 0.49448 0.2009 0.0
C2340 C 0.02735 0.42642 0.10274 0.0
C2341 C 0.01892 0.44642 0.15723 0.0
C2342 C 0.02857 0.40263 0.08078 0.0
C2343 C 0.02341 0.37356 0.08936 0.0
C2344 C 0.02084 0.4213 0.13362 0.0
C2345 C 1.0173 0.36917 0.12072 0.0
C2346 C 1.01394 0.44086 0.18916 0.0
C2347 C 0.02046 0.49919 0.16864 0.0
N2348 N 1.01612 0.39281 0.14166 0.0
N2349 N 0.02197 0.4754 0.148 0.0
H2350 H 0.78156 0.35048 0.05736 0.0
H2351 H 0.75333 0.28136 0.22756 0.0
H2352 H 0.75119 0.39801 0.12483 0.0
H2353 H 0.78497 0.23495 0.16161 0.0
H2354 H 0.75168 0.32344 0.18946 0.0
H2355 H 0.78286 0.30799 0.09495 0.0
C2356 C 0.77513 0.35193 0.08014 0.0
C2357 C 0.76625 0.37783 0.08804 0.0
C2358 C 0.75901 0.30413 0.18325 0.0
C2359 C 0.76746 0.32891 0.13104 0.0
C2360 C 0.75994 0.28007 0.20498 0.0
C2361 C 0.76935 0.25469 0.19773 0.0
C2362 C 0.76771 0.30307 0.15413 0.0
C2363 C 0.7775 0.25401 0.168 0.0
C2364 C 0.77587 0.32763 0.10159 0.0
C2365 C 0.75829 0.3786 0.11797 0.0
N2366 N 0.77659 0.27796 0.14738 0.0
N2367 N 0.75899 0.3544 0.1383 0.0
H2368 H 0.52314 0.27402 0.40797 0.0
H2369 H 0.51432 0.09514 0.38264 0.0
H2370 H 0.51728 0.21059 0.4865 0.0
H2371 H 0.517 0.15929 0.30405 0.0
H2372 H 0.51574 0.13708 0.42124 0.0
H2373 H 0.52133 0.23213 0.36941 0.0
C2374 C 0.52145 0.25137 0.41712 0.0
C2375 C 0.52041 0.24592 0.45057 0.0
C2376 C 0.516 0.14192 0.39551 0.0
C2377 C 0.5183 0.19781 0.4066 0.0
C2378 C 0.51519 0.11795 0.37348 0.0
C2379 C 0.51556 0.12354 0.34 0.0
C2380 C 0.51724 0.17171 0.38401 0.0
C2381 C 0.51668 0.1537 0.32959 0.0
C2382 C 0.52042 0.22743 0.39511 0.0
C2383 C 0.51823 0.21599 0.46098 0.0
N2384 N 0.51751 0.17653 0.35145 0.0
N2385 N 0.51727 0.19316 0.43914 0.0
H2386 H 0.77152 0.04114 0.48573 0.0
H2387 H 0.7703 0.09087 0.29927 0.0
H2388 H 0.76417 0.97864 0.40696 0.0
H2389 H 0.77487 0.15367 0.37865 0.0
H2390 H 0.76849 0.04963 0.33804 0.0
H2391 H 0.77331 0.0822 0.44678 0.0
C2392 C 0.77025 0.03597 0.4602 0.0
C2393 C 0.76764 0.00623 0.44968 0.0
C2394 C 0.7699 0.07239 0.34704 0.0
C2395 C 0.76971 0.05359 0.40469 0.0
C2396 C 0.77098 0.09609 0.32488 0.0
C2397 C 0.77279 0.126 0.33563 0.0
C2398 C 0.77071 0.0784 0.38038 0.0
C2399 C 0.77349 0.13109 0.36918 0.0
C2400 C 0.77128 0.05955 0.43793 0.0
C2401 C 0.76622 0.00112 0.41622 0.0
N2402 N 0.77248 0.10755 0.39032 0.0
N2403 N 0.76725 0.02457 0.39493 0.0
H2404 H 0.53593 0.14444 0.87324 0.0
H2405 H 0.496 0.993 0.80507 0.0
H2406 H 0.49327 0.10525 0.91466 0.0
H2407 H 0.54482 0.01859 0.78474 0.0
H2408 H 0.49367 0.03606 0.84229 0.0
H2409 H 0.5383 0.10079 0.83698 0.0
C2410 C 0.5269 0.12691 0.87424 0.0
C2411 C 0.5143 0.12854 0.89672 0.0
C2412 C 0.50498 0.03198 0.83012 0.0
C2413 C 0.51693 0.07857 0.85549 0.0
C2414 C 0.50632 0.00735 0.80912 0.0
C2415 C 0.52068 0.0022 0.79239 0.0
C2416 C 0.51811 0.05156 0.83424 0.0
C2417 C 0.53359 0.02187 0.79749 0.0
C2418 C 0.52834 0.10187 0.85381 0.0
C2419 C 0.50314 0.10486 0.89759 0.0
N2420 N 0.53201 0.04571 0.81796 0.0
N2421 N 0.50466 0.08096 0.87717 0.0
H2422 H 0.77855 0.27173 0.82563 0.0
H2423 H 0.7541 0.1011 0.86762 0.0
H2424 H 0.75247 0.21441 0.75972 0.0
H2425 H 0.78835 0.15281 0.92301 0.0
H2426 H 0.75155 0.14351 0.82978 0.0
H2427 H 0.78025 0.22967 0.86411 0.0
C2428 C 0.77304 0.25041 0.81943 0.0
C2429 C 0.76541 0.24652 0.78943 0.0
C2430 C 0.75969 0.14545 0.85015 0.0
C2431 C 0.76726 0.19832 0.83325 0.0
C2432 C 0.7612 0.12118 0.87168 0.0
C2433 C 0.77146 0.12327 0.89859 0.0
C2434 C 0.76851 0.172 0.85551 0.0
C2435 C 0.78019 0.15012 0.90279 0.0
C2436 C 0.77409 0.22634 0.84128 0.0
C2437 C 0.75859 0.2183 0.78248 0.0
N2438 N 0.77851 0.17335 0.88157 0.0
N2439 N 0.75964 0.19534 0.80422 0.0
H2440 H 0.52814 0.90629 0.60789 0.0
H2441 H 0.51313 0.72916 0.5801 0.0
H2442 H 0.51632 0.84361 0.68436 0.0
H2443 H 0.52518 0.7911 0.50316 0.0
H2444 H 0.51407 0.77109 0.6187 0.0
H2445 H 0.52679 0.86464 0.56881 0.0
C2446 C 0.52522 0.88389 0.61646 0.0
C2447 C 0.52245 0.87853 0.64951 0.0
C2448 C 0.51656 0.77548 0.59337 0.0
C2449 C 0.52085 0.83077 0.60502 0.0
C2450 C 0.51609 0.7515 0.57137 0.0
C2451 C 0.51908 0.75659 0.53836 0.0
C2452 C 0.52018 0.80473 0.58233 0.0
C2453 C 0.5227 0.78612 0.52837 0.0
C2454 C 0.52447 0.86009 0.59417 0.0
C2455 C 0.51871 0.84892 0.6592 0.0
N2456 N 0.52317 0.809 0.55021 0.0
N2457 N 0.51804 0.82628 0.63714 0.0
H2458 H 0.2801 0.96006 0.50266 0.0
H2459 H 0.25348 0.90628 0.67985 0.0
H2460 H 0.26363 0.02088 0.57718 0.0
H2461 H 0.27489 0.84645 0.60958 0.0
H2462 H 0.25617 0.94782 0.64171 0.0
H2463 H 0.27786 0.9182 0.54075 0.0
C2464 C 0.276 0.96467 0.52708 0.0
C2465 C 0.27197 0.99413 0.53666 0.0
C2466 C 0.26028 0.92566 0.63453 0.0
C2467 C 0.26923 0.94593 0.58048 0.0
C2468 C 0.25872 0.90177 0.6563 0.0
C2469 C 0.26397 0.87264 0.648 0.0
C2470 C 0.2672 0.92065 0.604 0.0
C2471 C 0.27056 0.86839 0.617 0.0
C2472 C 0.27474 0.94066 0.54884 0.0
C2473 C 0.26689 0.99861 0.56872 0.0
N2474 N 0.27203 0.89214 0.59618 0.0
N2475 N 0.26557 0.97476 0.58939 0.0
H2476 H 0.52602 0.84543 0.13195 0.0
H2477 H 0.51403 0.02338 0.15899 0.0
H2478 H 0.51847 0.90899 0.05409 0.0
H2479 H 0.52223 0.95989 0.23661 0.0
H2480 H 0.51537 0.98172 0.12008 0.0
H2481 H 0.52446 0.88709 0.17077 0.0
C2482 C 0.52404 0.86807 0.123 0.0
C2483 C 0.52241 0.8736 0.08967 0.0
C2484 C 0.51691 0.97695 0.14564 0.0
C2485 C 0.52057 0.92146 0.13396 0.0
C2486 C 0.51618 0.00075 0.16785 0.0
C2487 C 0.51802 0.99518 0.20113 0.0
C2488 C 0.5196 0.94738 0.15677 0.0
C2489 C 0.52066 0.96531 0.21121 0.0
C2490 C 0.52314 0.89188 0.14517 0.0
C2491 C 0.51985 0.90352 0.07952 0.0
N2492 N 0.52139 0.94262 0.18917 0.0
N2493 N 0.51901 0.92623 0.10152 0.0
H2494 H 0.2675 0.72899 0.15962 0.0
H2495 H 0.27122 0.90819 0.13134 0.0
H2496 H 0.27543 0.79324 0.2365 0.0
H2497 H 0.25907 0.84395 0.05668 0.0
H2498 H 0.27371 0.86642 0.17003 0.0
H2499 H 0.2655 0.77086 0.12106 0.0
C2500 C 0.26887 0.75183 0.1684 0.0
C2501 C 0.27158 0.75749 0.20142 0.0
C2502 C 0.27044 0.86154 0.14518 0.0
C2503 C 0.26928 0.80565 0.1574 0.0
C2504 C 0.26897 0.88542 0.12309 0.0
C2505 C 0.26489 0.87975 0.09064 0.0
C2506 C 0.26781 0.83173 0.13477 0.0
C2507 C 0.26225 0.84961 0.08138 0.0
C2508 C 0.26769 0.77578 0.14639 0.0
C2509 C 0.27324 0.78767 0.21134 0.0
N2510 N 0.26377 0.82687 0.10325 0.0
N2511 N 0.27207 0.81053 0.18948 0.0
H2512 H 0.52459 0.59539 0.87945 0.0
H2513 H 0.51272 0.77285 0.91082 0.0
H2514 H 0.50432 0.65678 0.80922 0.0
H2515 H 0.52895 0.71023 0.98397 0.0
H2516 H 0.51089 0.73097 0.87222 0.0
H2517 H 0.5273 0.6375 0.91754 0.0
C2518 C 0.52055 0.61758 0.87215 0.0
C2519 C 0.51416 0.62242 0.8411 0.0
C2520 C 0.51487 0.72644 0.89673 0.0
C2521 C 0.51732 0.67081 0.88445 0.0
C2522 C 0.51597 0.75038 0.91873 0.0
C2523 C 0.52087 0.74508 0.95076 0.0
C2524 C 0.5188 0.69701 0.90679 0.0
C2525 C 0.52494 0.71542 0.95963 0.0
C2526 C 0.52217 0.64167 0.89383 0.0
C2527 C 0.50934 0.65186 0.83285 0.0
N2528 N 0.5238 0.69258 0.93784 0.0
N2529 N 0.51102 0.67484 0.85433 0.0
H2530 H 0.76682 0.5431 0.98821 0.0
H2531 H 0.77467 0.59237 0.80259 0.0
H2532 H 0.76654 0.47997 0.90857 0.0
H2533 H 0.77037 0.6561 0.88126 0.0
H2534 H 0.77247 0.55123 0.84116 0.0
H2535 H 0.76878 0.58446 0.94969 0.0
C2536 C 0.76714 0.53784 0.96258 0.0
C2537 C 0.76651 0.50783 0.95168 0.0
C2538 C 0.77201 0.57417 0.85008 0.0
C2539 C 0.7688 0.55553 0.90725 0.0
C2540 C 0.7733 0.59785 0.82803 0.0
C2541 C 0.77271 0.628 0.8386 0.0
C2542 C 0.77018 0.58041 0.88317 0.0
C2543 C 0.77092 0.63333 0.87194 0.0
C2544 C 0.76825 0.56161 0.94057 0.0
C2545 C 0.767 0.50266 0.91814 0.0
N2546 N 0.76972 0.60977 0.89303 0.0
N2547 N 0.76814 0.52627 0.89713 0.0
H2548 H 0.51893 0.54046 0.25197 0.0
H2549 H 0.51755 0.59167 0.43781 0.0
H2550 H 0.52399 0.47847 0.33205 0.0
H2551 H 0.51455 0.65407 0.35763 0.0
H2552 H 0.51937 0.55011 0.39959 0.0
H2553 H 0.51679 0.58198 0.29026 0.0
C2554 C 0.51965 0.53552 0.27765 0.0
C2555 C 0.5217 0.5058 0.28876 0.0
C2556 C 0.5183 0.57285 0.39028 0.0
C2557 C 0.51921 0.55363 0.33293 0.0
C2558 C 0.51723 0.59674 0.41213 0.0
C2559 C 0.5159 0.62663 0.40099 0.0
C2560 C 0.51799 0.57865 0.35686 0.0
C2561 C 0.51556 0.6315 0.36738 0.0
C2562 C 0.51839 0.55935 0.29953 0.0
C2563 C 0.5224 0.50095 0.32235 0.0
N2564 N 0.51661 0.60777 0.34653 0.0
N2565 N 0.52118 0.52462 0.34324 0.0
H2566 H 0.77716 0.71381 0.25372 0.0
H2567 H 0.76509 0.65843 0.43657 0.0
H2568 H 0.76018 0.77204 0.33021 0.0
H2569 H 0.77744 0.59866 0.35787 0.0
H2570 H 0.7638 0.70028 0.3985 0.0
H2571 H 0.77825 0.67209 0.29197 0.0
C2572 C 0.77363 0.71788 0.27862 0.0
C2573 C 0.7685 0.74659 0.28869 0.0
C2574 C 0.7668 0.67806 0.38948 0.0
C2575 C 0.7697 0.69846 0.33282 0.0
C2576 C 0.76758 0.65403 0.41124 0.0
C2577 C 0.77147 0.62482 0.40049 0.0
C2578 C 0.77007 0.67313 0.35656 0.0
C2579 C 0.77439 0.62069 0.36729 0.0
C2580 C 0.77426 0.69393 0.30047 0.0
C2581 C 0.76427 0.75039 0.32137 0.0
N2582 N 0.7737 0.6446 0.34655 0.0
N2583 N 0.76492 0.72658 0.34224 0.0
H2584 H 0.51739 0.3418 0.18704 0.0
H2585 H 0.52371 0.29063 0.00167 0.0
H2586 H 0.52405 0.40428 0.10793 0.0
H2587 H 0.51142 0.22963 0.07932 0.0
H2588 H 0.52467 0.33196 0.04039 0.0
H2589 H 0.51565 0.3006 0.14832 0.0
C2590 C 0.51853 0.34696 0.16149 0.0
C2591 C 0.521 0.37675 0.15084 0.0
C2592 C 0.52172 0.3096 0.04903 0.0
C2593 C 0.51906 0.32913 0.10608 0.0
C2594 C 0.52117 0.28585 0.02691 0.0
C2595 C 0.51743 0.25644 0.03716 0.0
C2596 C 0.51851 0.30415 0.08189 0.0
C2597 C 0.51441 0.25182 0.07028 0.0
C2598 C 0.51749 0.32327 0.13934 0.0
C2599 C 0.52218 0.38178 0.11732 0.0
N2600 N 0.51499 0.27542 0.09143 0.0
N2601 N 0.52129 0.35821 0.09618 0.0
H2602 H 0.25904 0.52234 0.07477 0.0
H2603 H 0.2826 0.35101 0.11675 0.0
H2604 H 0.28587 0.46483 0.01023 0.0
H2605 H 0.24887 0.4035 0.17274 0.0
H2606 H 0.28544 0.39351 0.07923 0.0
H2607 H 0.25689 0.48025 0.11326 0.0
C2608 C 0.26463 0.50098 0.0689 0.0
C2609 C 0.27259 0.49702 0.03926 0.0
C2610 C 0.27734 0.39561 0.09964 0.0
C2611 C 0.27023 0.44882 0.08305 0.0
C2612 C 0.27566 0.37126 0.12101 0.0
C2613 C 0.26544 0.37348 0.14798 0.0
C2614 C 0.26875 0.42243 0.1052 0.0
C2615 C 0.25694 0.40062 0.1524 0.0
C2616 C 0.26332 0.4769 0.09074 0.0
C2617 C 0.27949 0.46878 0.0327 0.0
N2618 N 0.25879 0.42394 0.13132 0.0
N2619 N 0.27819 0.44583 0.05439 0.0
H2620 H 0.518 0.34413 0.63222 0.0
H2621 H 0.51816 0.52354 0.6591 0.0
H2622 H 0.52624 0.40899 0.55588 0.0
H2623 H 0.51396 0.45898 0.737 0.0
H2624 H 0.5202 0.48171 0.62057 0.0
H2625 H 0.51572 0.38585 0.67095 0.0
C2626 C 0.5194 0.36703 0.62359 0.0
C2627 C 0.52234 0.3729 0.59068 0.0
C2628 C 0.51883 0.47673 0.64612 0.0
C2629 C 0.51966 0.4208 0.63483 0.0
C2630 C 0.51764 0.50064 0.66811 0.0
C2631 C 0.51591 0.49487 0.70137 0.0
C2632 C 0.51825 0.44681 0.65743 0.0
C2633 C 0.51531 0.46463 0.71161 0.0
C2634 C 0.51807 0.39087 0.6457 0.0
C2635 C 0.52398 0.40317 0.58095 0.0
N2636 N 0.51647 0.44182 0.68978 0.0
N2637 N 0.52259 0.42586 0.60285 0.0
H2638 H 0.29578 0.25509 0.68774 0.0
H2639 H 0.24119 0.36226 0.57922 0.0
H2640 H 0.24445 0.25925 0.69941 0.0
H2641 H 0.28919 0.38795 0.60684 0.0
H2642 H 0.24281 0.31921 0.61626 0.0
H2643 H 0.29436 0.29833 0.65027 0.0
C2644 C 0.28421 0.26491 0.68196 0.0
C2645 C 0.27017 0.25361 0.69614 0.0
C2646 C 0.25295 0.33437 0.61435 0.0
C2647 C 0.26846 0.30277 0.65388 0.0
C2648 C 0.25204 0.35893 0.59327 0.0
C2649 C 0.26502 0.37888 0.59023 0.0
C2650 C 0.2671 0.32918 0.63193 0.0
C2651 C 0.27883 0.37337 0.60886 0.0
C2652 C 0.28342 0.28965 0.66093 0.0
C2653 C 0.25549 0.26724 0.68851 0.0
N2654 N 0.27958 0.34882 0.62869 0.0
N2655 N 0.25498 0.29102 0.66772 0.0
H2656 H 0.18842 0.32074 0.12371 0.0
H2657 H 0.09977 0.30381 0.1118 0.0
H2658 H 0.16248 0.28095 0.20318 0.0
H2659 H 0.12894 0.29106 0.02671 0.0
H2660 H 0.12225 0.2868 0.1454 0.0
H2661 H 0.16793 0.30206 0.08628 0.0
C2662 C 0.17879 0.30674 0.13295 0.0
C2663 C 0.17701 0.30218 0.16629 0.0
C2664 C 0.12354 0.28642 0.11928 0.0
C2665 C 0.15328 0.28203 0.12429 0.0
C2666 C 0.11066 0.29593 0.10018 0.0
C2667 C 0.11267 0.29887 0.06669 0.0
C2668 C 0.1385 0.28079 0.10461 0.0
C2669 C 0.12708 0.28907 0.05261 0.0
C2670 C 0.16704 0.29621 0.11171 0.0
C2671 C 0.16416 0.28469 0.17745 0.0
N2672 N 0.13967 0.28134 0.07172 0.0
N2673 N 0.15248 0.27593 0.15658 0.0
H2674 H 0.10106 0.93522 0.12159 0.0
H2675 H 0.18841 0.93089 0.12431 0.0
H2676 H 0.12412 0.96516 0.20923 0.0
H2677 H 0.16625 0.9703 0.04003 0.0
H2678 H 0.1659 0.94889 0.15732 0.0
H2679 H 0.12411 0.95349 0.09035 0.0
C2680 C 0.1106 0.94715 0.13398 0.0
C2681 C 0.11079 0.94894 0.16782 0.0
C2682 C 0.16632 0.95483 0.13186 0.0
C2683 C 0.13735 0.96835 0.13284 0.0
C2684 C 0.17922 0.94476 0.11317 0.0
C2685 C 0.17909 0.94934 0.07964 0.0
C2686 C 0.15307 0.96835 0.11647 0.0
C2687 C 0.16671 0.96664 0.06598 0.0
C2688 C 0.1238 0.95738 0.11627 0.0
C2689 C 0.12362 0.96367 0.18305 0.0
N2690 N 0.15384 0.9746 0.08424 0.0
N2691 N 0.1367 0.97193 0.16556 0.0
H2692 H 0.91631 0.72224 0.9458 0.0
H2693 H 0.87565 0.71374 0.7729 0.0
H2694 H 0.93723 0.67941 0.86221 0.0
H2695 H 0.8516 0.69383 0.86278 0.0
H2696 H 0.89909 0.73113 0.80342 0.0
H2697 H 0.89442 0.74121 0.91175 0.0
C2698 C 0.91675 0.71838 0.91987 0.0
C2699 C 0.92847 0.69938 0.90655 0.0
C2700 C 0.88837 0.72441 0.81641 0.0
C2701 C 0.90367 0.72075 0.86791 0.0
C2702 C 0.87498 0.71479 0.79912 0.0
C2703 C 0.86181 0.7024 0.81555 0.0
C2704 C 0.88839 0.72187 0.85022 0.0
C2705 C 0.86154 0.70346 0.84942 0.0
C2706 C 0.90424 0.72898 0.90063 0.0
C2707 C 0.92842 0.6942 0.87313 0.0
N2708 N 0.87485 0.71247 0.86578 0.0
N2709 N 0.91598 0.70446 0.8549 0.0
H2710 H 0.91095 0.03226 0.78383 0.0
H2711 H 0.88022 0.03899 0.96456 0.0
H2712 H 0.9392 0.05938 0.86621 0.0
H2713 H 0.85109 0.05431 0.87989 0.0
H2714 H 0.90182 0.02005 0.92986 0.0
H2715 H 0.89001 0.01402 0.82058 0.0
C2716 C 0.91305 0.03292 0.80976 0.0
C2717 C 0.92666 0.04733 0.82226 0.0
C2718 C 0.89047 0.02635 0.919 0.0
C2719 C 0.90283 0.02725 0.86406 0.0
C2720 C 0.87814 0.03692 0.93872 0.0
C2721 C 0.86403 0.04825 0.92481 0.0
C2722 C 0.88859 0.02736 0.88525 0.0
C2723 C 0.86185 0.04564 0.89133 0.0
C2724 C 0.90108 0.02276 0.83062 0.0
C2725 C 0.92884 0.04824 0.85584 0.0
N2726 N 0.8742 0.036 0.87249 0.0
N2727 N 0.91683 0.0389 0.87571 0.0
H2728 H 0.16931 0.77703 0.6971 0.0
H2729 H 0.10278 0.82635 0.61572 0.0
H2730 H 0.18651 0.83028 0.61704 0.0
H2731 H 0.12363 0.78527 0.53105 0.0
H2732 H 0.12579 0.80887 0.64778 0.0
H2733 H 0.14618 0.7616 0.66426 0.0
C2734 C 0.16872 0.78388 0.6719 0.0
C2735 C 0.17972 0.80486 0.65955 0.0
C2736 C 0.12489 0.80235 0.62253 0.0
C2737 C 0.15353 0.7876 0.62242 0.0
C2738 C 0.11176 0.81216 0.60438 0.0
C2739 C 0.11131 0.80666 0.57101 0.0
C2740 C 0.13774 0.78794 0.60679 0.0
C2741 C 0.12357 0.78939 0.55692 0.0
C2742 C 0.15548 0.77537 0.65345 0.0
C2743 C 0.17831 0.81387 0.62717 0.0
N2744 N 0.13664 0.78154 0.57466 0.0
N2745 N 0.16519 0.80558 0.60976 0.0
H2746 H 0.16849 0.47507 0.53829 0.0
H2747 H 0.10081 0.43902 0.62127 0.0
H2748 H 0.18458 0.42153 0.61914 0.0
H2749 H 0.12551 0.46751 0.70765 0.0
H2750 H 0.1237 0.4561 0.58882 0.0
H2751 H 0.1463 0.49428 0.57167 0.0
C2752 C 0.16781 0.46868 0.56362 0.0
C2753 C 0.1782 0.44679 0.57623 0.0
C2754 C 0.12373 0.46017 0.61472 0.0
C2755 C 0.15312 0.46822 0.6139 0.0
C2756 C 0.11065 0.45055 0.63314 0.0
C2757 C 0.11137 0.45218 0.66696 0.0
C2758 C 0.13763 0.47044 0.63056 0.0
C2759 C 0.12461 0.46622 0.6815 0.0
C2760 C 0.15514 0.47941 0.58241 0.0
C2761 C 0.17678 0.43854 0.60882 0.0
N2762 N 0.13756 0.47375 0.6633 0.0
N2763 N 0.16423 0.44899 0.62654 0.0
H2764 H 0.85298 0.17866 0.36899 0.0
H2765 H 0.92077 0.2239 0.44733 0.0
H2766 H 0.87412 0.21547 0.28235 0.0
H2767 H 0.93643 0.16949 0.3669 0.0
H2768 H 0.89772 0.24092 0.41512 0.0
H2769 H 0.87627 0.19627 0.40004 0.0
C2770 C 0.8621 0.192 0.35695 0.0
C2771 C 0.86167 0.19613 0.32336 0.0
C2772 C 0.90667 0.2265 0.40408 0.0
C2773 C 0.88839 0.21496 0.358 0.0
C2774 C 0.91987 0.21706 0.42218 0.0
C2775 C 0.93039 0.19535 0.40954 0.0
C2776 C 0.90429 0.21439 0.37315 0.0
C2777 C 0.92858 0.18642 0.37724 0.0
C2778 C 0.87538 0.2019 0.37453 0.0
C2779 C 0.87406 0.21236 0.3084 0.0
N2780 N 0.91552 0.19563 0.36019 0.0
N2781 N 0.88728 0.22022 0.32563 0.0
H2782 H 0.94011 0.5749 0.36936 0.0
H2783 H 0.85125 0.55512 0.37987 0.0
H2784 H 0.91497 0.53207 0.29072 0.0
H2785 H 0.88006 0.54556 0.46595 0.0
H2786 H 0.87418 0.53848 0.34726 0.0
H2787 H 0.91943 0.55692 0.40688 0.0
C2788 C 0.93063 0.56043 0.36036 0.0
C2789 C 0.92912 0.55483 0.32716 0.0
C2790 C 0.87531 0.53876 0.37342 0.0
C2791 C 0.90517 0.53545 0.36921 0.0
C2792 C 0.86217 0.54803 0.39196 0.0
C2793 C 0.86392 0.55179 0.42543 0.0
C2794 C 0.89026 0.5342 0.38858 0.0
C2795 C 0.87838 0.54295 0.44007 0.0
C2796 C 0.91876 0.55032 0.38164 0.0
C2797 C 0.91645 0.53667 0.31633 0.0
N2798 N 0.8912 0.53548 0.42146 0.0
N2799 N 0.90466 0.52834 0.33716 0.0
H2800 H 0.6228 0.28058 0.53445 0.0
H2801 H 0.68771 0.32411 0.62086 0.0
H2802 H 0.60172 0.31918 0.62021 0.0
H2803 H 0.66493 0.28611 0.70515 0.0
H2804 H 0.66557 0.30534 0.5874 0.0
H2805 H 0.64626 0.26531 0.56646 0.0
C2806 C 0.62273 0.28422 0.56042 0.0
C2807 C 0.61043 0.3011 0.57489 0.0
C2808 C 0.66583 0.2997 0.61295 0.0
C2809 C 0.63712 0.28448 0.6111 0.0
C2810 C 0.67849 0.31031 0.63194 0.0
C2811 C 0.67813 0.30614 0.66553 0.0
C2812 C 0.65264 0.28572 0.62802 0.0
C2813 C 0.6656 0.28929 0.67916 0.0
C2814 C 0.63617 0.27592 0.57847 0.0
C2815 C 0.61096 0.30601 0.60838 0.0
N2816 N 0.65302 0.28054 0.66049 0.0
N2817 N 0.62431 0.2982 0.62537 0.0
H2818 H 0.60038 0.94661 0.62897 0.0
H2819 H 0.68927 0.92932 0.61712 0.0
H2820 H 0.62944 0.95896 0.71424 0.0
H2821 H 0.66354 0.97037 0.53806 0.0
H2822 H 0.66853 0.94715 0.65458 0.0
H2823 H 0.62296 0.9634 0.59552 0.0
C2824 C 0.61125 0.95438 0.64069 0.0
C2825 C 0.61318 0.95136 0.67421 0.0
C2826 C 0.66774 0.95344 0.62925 0.0
C2827 C 0.63917 0.96907 0.6364 0.0
C2828 C 0.67964 0.94341 0.608 0.0
C2829 C 0.67802 0.94862 0.57472 0.0
C2830 C 0.654 0.96783 0.61677 0.0
C2831 C 0.66513 0.96615 0.56372 0.0
C2832 C 0.6242 0.96372 0.62166 0.0
C2833 C 0.62761 0.96102 0.68834 0.0
N2834 N 0.65332 0.97445 0.58458 0.0
N2835 N 0.64027 0.96852 0.66929 0.0
H2836 H 0.41314 0.71887 0.45367 0.0
H2837 H 0.3807 0.70501 0.27388 0.0
H2838 H 0.44071 0.6868 0.3724 0.0
H2839 H 0.35148 0.69751 0.35963 0.0
H2840 H 0.40318 0.72214 0.30729 0.0
H2841 H 0.39182 0.73472 0.41645 0.0
C2842 C 0.41499 0.71655 0.42778 0.0
C2843 C 0.42861 0.70166 0.41587 0.0
C2844 C 0.39168 0.71788 0.31865 0.0
C2845 C 0.40427 0.71891 0.37352 0.0
C2846 C 0.37884 0.70838 0.29964 0.0
C2847 C 0.36434 0.69978 0.31423 0.0
C2848 C 0.38995 0.71872 0.35242 0.0
C2849 C 0.36249 0.70406 0.34761 0.0
C2850 C 0.40279 0.72529 0.40666 0.0
C2851 C 0.43041 0.69849 0.38233 0.0
N2852 N 0.37531 0.71271 0.36579 0.0
N2853 N 0.41819 0.70655 0.36225 0.0
H2854 H 0.40963 0.04686 0.27224 0.0
H2855 H 0.37438 0.03071 0.44956 0.0
H2856 H 0.43745 0.05355 0.35994 0.0
H2857 H 0.34957 0.07142 0.36907 0.0
H2858 H 0.39552 0.01369 0.41255 0.0
H2859 H 0.38648 0.0302 0.3041 0.0
C2860 C 0.41105 0.04329 0.29808 0.0
C2861 C 0.42533 0.05159 0.31369 0.0
C2862 C 0.38512 0.02524 0.40281 0.0
C2863 C 0.39904 0.03307 0.35003 0.0
C2864 C 0.37303 0.0347 0.42377 0.0
C2865 C 0.36035 0.05241 0.4121 0.0
C2866 C 0.38441 0.03359 0.3701 0.0
C2867 C 0.35916 0.05762 0.37876 0.0
C2868 C 0.39784 0.03407 0.31619 0.0
C2869 C 0.42662 0.04717 0.34715 0.0
N2870 N 0.37126 0.04868 0.35886 0.0
N2871 N 0.41347 0.03872 0.36442 0.0
H2872 H 0.68876 0.80968 0.12296 0.0
H2873 H 0.59842 0.80382 0.11261 0.0
H2874 H 0.6604 0.78273 0.20524 0.0
H2875 H 0.62768 0.78848 0.02818 0.0
H2876 H 0.62046 0.78588 0.1468 0.0
H2877 H 0.66749 0.79177 0.08693 0.0
C2878 C 0.67837 0.79858 0.13329 0.0
C2879 C 0.67618 0.79767 0.16688 0.0
C2880 C 0.62188 0.78522 0.12072 0.0
C2881 C 0.65157 0.77849 0.12629 0.0
C2882 C 0.60923 0.79527 0.10127 0.0
C2883 C 0.61139 0.79767 0.06776 0.0
C2884 C 0.6368 0.77843 0.10638 0.0
C2885 C 0.6257 0.78695 0.05408 0.0
C2886 C 0.66615 0.78855 0.11282 0.0
C2887 C 0.6624 0.78375 0.17932 0.0
N2888 N 0.63807 0.77857 0.0735 0.0
N2889 N 0.65037 0.77546 0.15903 0.0
H2890 H 0.66733 0.46431 0.03904 0.0
H2891 H 0.62213 0.46887 0.20766 0.0
H2892 H 0.68813 0.43642 0.12981 0.0
H2893 H 0.60235 0.43133 0.12014 0.0
H2894 H 0.64536 0.48687 0.17674 0.0
H2895 H 0.64344 0.48186 0.06797 0.0
C2896 C 0.66726 0.46369 0.06531 0.0
C2897 C 0.67962 0.44905 0.08226 0.0
C2898 C 0.63555 0.47601 0.16411 0.0
C2899 C 0.65254 0.46899 0.11517 0.0
C2900 C 0.62227 0.46602 0.18157 0.0
C2901 C 0.61043 0.44873 0.16623 0.0
C2902 C 0.63679 0.46884 0.13117 0.0
C2903 C 0.61124 0.44483 0.13262 0.0
C2904 C 0.65359 0.47341 0.08166 0.0
C2905 C 0.67886 0.44782 0.11608 0.0
N2906 N 0.62442 0.45437 0.11617 0.0
N2907 N 0.66534 0.45725 0.13151 0.0
H2908 H 0.4364 0.1982 0.88153 0.0
H2909 H 0.347 0.18116 0.86745 0.0
H2910 H 0.40624 0.20997 0.96535 0.0
H2911 H 0.37425 0.21684 0.78751 0.0
H2912 H 0.36745 0.20001 0.90491 0.0
H2913 H 0.41409 0.21428 0.84695 0.0
C2914 C 0.42532 0.20567 0.89268 0.0
C2915 C 0.42301 0.20269 0.92611 0.0
C2916 C 0.36866 0.20489 0.8793 0.0
C2917 C 0.39734 0.21964 0.88702 0.0
C2918 C 0.35693 0.19427 0.85803 0.0
C2919 C 0.35907 0.19762 0.82461 0.0
C2920 C 0.38274 0.21801 0.86674 0.0
C2921 C 0.37229 0.21401 0.81329 0.0
C2922 C 0.41252 0.21461 0.87301 0.0
C2923 C 0.40835 0.21198 0.93952 0.0
N2924 N 0.3839 0.22293 0.83426 0.0
N2925 N 0.39587 0.21917 0.91986 0.0
H2926 H 0.34822 0.56404 0.87586 0.0
H2927 H 0.43781 0.55464 0.85909 0.0
H2928 H 0.37717 0.53247 0.9554 0.0
H2929 H 0.40726 0.54 0.77639 0.0
H2930 H 0.41623 0.53685 0.89452 0.0
H2931 H 0.36868 0.54601 0.83796 0.0
C2932 C 0.35854 0.55191 0.88515 0.0
C2933 C 0.36115 0.54962 0.91855 0.0
C2934 C 0.41444 0.53628 0.86852 0.0
C2935 C 0.38483 0.53026 0.87586 0.0
C2936 C 0.42682 0.54623 0.84837 0.0
C2937 C 0.42415 0.54885 0.81502 0.0
C2938 C 0.39929 0.52982 0.85507 0.0
C2939 C 0.40963 0.53831 0.80215 0.0
C2940 C 0.37029 0.54179 0.86362 0.0
C2941 C 0.37485 0.53449 0.92966 0.0
N2942 N 0.39753 0.53008 0.82228 0.0
N2943 N 0.38644 0.52611 0.90839 0.0
H2944 H 0.99661 0.43049 0.94881 0.0
H2945 H 0.03927 0.57091 0.0358 0.0
H2946 H 0.04276 0.42544 -0.00397 0.0
H2947 H 0.99485 0.57752 0.98251 0.0
H2948 H 0.04037 0.51693 0.02295 0.0
H2949 H 0.99578 0.48467 0.96038 0.0
C2950 C 1.00661 0.44089 0.96129 0.0
C2951 C 0.0198 0.42361 0.97124 0.0
C2952 C 0.03037 0.53021 0.01411 0.0
C2953 C 1.01875 0.48509 0.98553 0.0
C2954 C 0.02972 0.56088 0.02163 0.0
C2955 C 1.01686 0.57842 0.0106 0.0
C2956 C 1.01824 0.5173 -0.00512 0.0
C2957 C 1.0048 0.56456 0.99213 0.0
C2958 C 1.00612 0.47171 0.96807 0.0
C2959 C 0.03246 0.43805 0.98746 0.0
N2960 N 1.00583 0.53486 0.98467 0.0
N2961 N 0.03155 0.46788 0.99438 0.0
H2962 H 0.28929 0.67988 0.03377 0.0
H2963 H 0.24661 0.82305 0.95239 0.0
H2964 H 0.24446 0.67509 0.98148 0.0
H2965 H 0.2928 0.8263 -0.00029 0.0
H2966 H 0.24542 0.76889 0.9631 0.0
H2967 H 0.29001 0.73417 0.024 0.0
C2968 C 0.27949 0.69029 0.02061 0.0
C2969 C 0.26682 0.67287 0.00836 0.0
C2970 C 0.25586 0.78143 0.97097 0.0
C2971 C 0.26774 0.73492 -0.00353 0.0
C2972 C 0.2566 0.81231 0.96464 0.0
C2973 C 0.26984 0.82923 0.97507 0.0
C2974 C 0.26839 0.76742 0.98812 0.0
C2975 C 0.28241 0.81415 0.99097 0.0
C2976 C 0.27997 0.72126 0.01481 0.0
C2977 C 0.25445 0.6876 0.99146 0.0
N2978 N 0.28131 0.78417 -0.00279 0.0
N2979 N 0.25529 0.71772 0.98581 0.0
H2980 H 0.99734 0.67993 0.20191 0.0
H2981 H 0.04018 0.82105 0.28631 0.0
H2982 H 0.04424 0.6758 0.24625 0.0
H2983 H 0.99316 0.82496 0.24246 0.0
H2984 H 0.0416 0.76744 0.27311 0.0
H2985 H 0.99592 0.73351 0.2152 0.0
C2986 C 1.00744 0.69038 0.21401 0.0
C2987 C 0.02091 0.67332 0.22303 0.0
C2988 C 0.03093 0.77998 0.26656 0.0
C2989 C 0.0192 0.73446 0.23905 0.0
C2990 C 0.03005 0.81054 0.27435 0.0
C2991 C 1.01654 0.82755 0.26543 0.0
C2992 C 1.01826 0.76639 0.24951 0.0
C2993 C 1.00378 0.81274 0.24996 0.0
C2994 C 1.00657 0.72092 0.22185 0.0
C2995 C 0.03365 0.68807 0.23867 0.0
N2996 N 1.00502 0.78308 0.24222 0.0
N2997 N 0.03241 0.71772 0.24645 0.0
H2998 H 0.24266 0.57598 0.23473 0.0
H2999 H 0.29524 0.42529 0.24601 0.0
H3000 H 0.29341 0.57262 0.21368 0.0
H3001 H 0.24527 0.43053 0.27331 0.0
H3002 H 0.29497 0.47933 0.23475 0.0
H3003 H 0.24326 0.52226 0.24726 0.0
C3004 C 0.25388 0.56388 0.23222 0.0
C3005 C 0.26801 0.5789 0.22314 0.0
C3006 C 0.2841 0.4687 0.24345 0.0
C3007 C 0.26884 0.5174 0.23805 0.0
C3008 C 0.28427 0.43786 0.25013 0.0
C3009 C 0.27023 0.42328 0.26049 0.0
C3010 C 0.26977 0.48506 0.24699 0.0
C3011 C 0.25638 0.44076 0.26533 0.0
C3012 C 0.25425 0.53323 0.23971 0.0
C3013 C 0.28222 0.56201 0.22055 0.0
N3014 N 0.25646 0.47066 0.25827 0.0
N3015 N 0.28228 0.53221 0.22812 0.0
H3016 H 0.79004 0.32069 0.94701 0.0
H3017 H 0.74694 0.18116 0.03515 0.0
H3018 H 0.74557 0.328 5e-05 0.0
H3019 H 0.79208 0.17466 0.98443 0.0
H3020 H 0.74615 0.23528 0.02276 0.0
H3021 H 0.79056 0.26652 0.95892 0.0
C3022 C 0.78034 0.31078 0.96088 0.0
C3023 C 0.76767 0.32862 0.97218 0.0
C3024 C 0.75624 0.222 0.01441 0.0
C3025 C 0.76838 0.26722 0.98682 0.0
C3026 C 0.7567 0.19124 0.02163 0.0
C3027 C 0.76968 0.17372 0.01119 0.0
C3028 C 0.76867 0.23496 -0.00403 0.0
C3029 C 0.78202 0.18762 0.99354 0.0
C3030 C 0.78066 0.27999 0.96785 0.0
C3031 C 0.75541 0.31488 0.99026 0.0
N3032 N 0.78116 0.21737 0.98628 0.0
N3033 N 0.75613 0.28504 -0.00278 0.0
H3034 H 0.99335 0.32357 0.76462 0.0
H3035 H 0.04499 0.17596 0.72432 0.0
H3036 H 0.04517 0.32119 0.76515 0.0
H3037 H 0.99318 0.17864 0.72276 0.0
H3038 H 0.04532 0.22945 0.73819 0.0
H3039 H 0.99304 0.27009 0.75073 0.0
C3040 C 1.00466 0.31172 0.76229 0.0
C3041 C 0.0193 0.32695 0.76599 0.0
C3042 C 0.03388 0.21838 0.7346 0.0
C3043 C 0.01904 0.26583 0.74942 0.0
C3044 C 0.03369 0.18787 0.72641 0.0
C3045 C 0.01905 0.17272 0.72241 0.0
C3046 C 0.01932 0.23385 0.739 0.0
C3047 C 1.00477 0.18935 0.72552 0.0
C3048 C 1.00448 0.28122 0.75408 0.0
C3049 C 0.03359 0.31041 0.7626 0.0
N3050 N 1.00527 0.21894 0.73387 0.0
N3051 N 0.0331 0.28082 0.75427 0.0
H3052 H 0.74356 0.57787 0.75132 0.0
H3053 H 0.79503 0.42609 0.73811 0.0
H3054 H 0.78841 0.57128 0.69935 0.0
H3055 H 0.7492 0.43168 0.78662 0.0
H3056 H 0.7932 0.47961 0.72518 0.0
H3057 H 0.74531 0.52433 0.76416 0.0
C3058 C 0.7536 0.56502 0.74195 0.0
C3059 C 0.76586 0.57907 0.72414 0.0
C3060 C 0.78362 0.46923 0.73896 0.0
C3061 C 0.76806 0.51779 0.73929 0.0
C3062 C 0.78474 0.4387 0.74669 0.0
C3063 C 0.77224 0.42437 0.76353 0.0
C3064 C 0.76997 0.48564 0.74834 0.0
C3065 C 0.75909 0.44181 0.77355 0.0
C3066 C 0.75468 0.53448 0.74961 0.0
C3067 C 0.77871 0.56136 0.71317 0.0
N3068 N 0.75827 0.47151 0.76571 0.0
N3069 N 0.77951 0.53166 0.72103 0.0
H3070 H 0.04451 0.07634 0.48863 0.0
H3071 H 0.9932 0.9243 0.49921 0.0
H3072 H 0.99816 0.07044 0.53501 0.0
H3073 H 0.03983 0.92995 0.45397 0.0
H3074 H 0.99452 0.97801 0.51134 0.0
H3075 H 0.04312 0.0227 0.47621 0.0
C3076 C 0.03417 0.06366 0.49681 0.0
C3077 C 0.02144 0.07793 0.51303 0.0
C3078 C 1.0044 0.9676 0.49846 0.0
C3079 C 0.01967 0.01646 0.49836 0.0
C3080 C 1.00359 0.93694 0.49121 0.0
C3081 C 1.01642 0.92257 0.47543 0.0
C3082 C 1.01811 0.98412 0.48977 0.0
C3083 C 0.02966 0.94009 0.46615 0.0
C3084 C 0.03332 0.03304 0.4894 0.0
C3085 C 1.00825 0.06037 0.52251 0.0
N3086 N 0.03019 0.96991 0.47355 0.0
N3087 N 1.00768 0.03058 0.51495 0.0
H3088 H 0.24563 0.32871 0.5071 0.0
H3089 H 0.29433 0.17406 0.49325 0.0
H3090 H 0.29074 0.32039 0.45662 0.0
H3091 H 0.24718 0.1809 0.53595 0.0
H3092 H 0.29377 0.22791 0.48176 0.0
H3093 H 0.24649 0.27505 0.51976 0.0
C3094 C 0.25555 0.31533 0.49802 0.0
C3095 C 0.26801 0.32871 0.48028 0.0
C3096 C 0.28363 0.21778 0.49405 0.0
C3097 C 0.26916 0.26737 0.49493 0.0
C3098 C 0.284 0.18707 0.50094 0.0
C3099 C 0.27084 0.17313 0.51599 0.0
C3100 C 0.27009 0.2348 0.50261 0.0
C3101 C 0.25759 0.19089 0.52448 0.0
C3102 C 0.2561 0.28477 0.5055 0.0
C3103 C 0.28087 0.31073 0.47016 0.0
N3104 N 0.25757 0.22088 0.51776 0.0
N3105 N 0.28108 0.28084 0.47749 0.0
H3106 H 0.24739 0.92977 0.78557 0.0
H3107 H 0.29016 0.07072 0.70059 0.0
H3108 H 0.29357 0.92506 0.73834 0.0
H3109 H 0.24342 0.07517 0.74554 0.0
H3110 H 0.29141 0.01704 0.71343 0.0
H3111 H 0.2461 0.98353 0.77283 0.0
C3112 C 0.25736 0.94012 0.77293 0.0
C3113 C 0.27059 0.92287 0.76298 0.0
C3114 C 0.28083 0.02971 0.7203 0.0
C3115 C 0.26903 0.98417 0.74762 0.0
C3116 C 0.28006 0.06031 0.71272 0.0
C3117 C 0.26668 0.07747 0.722 0.0
C3118 C 0.26819 0.0162 0.73752 0.0
C3119 C 0.25394 0.0628 0.73772 0.0
C3120 C 0.25656 0.97075 0.76542 0.0
C3121 C 0.28316 0.93746 0.74665 0.0
N3122 N 0.25507 0.03307 0.74526 0.0
N3123 N 0.28201 0.9672 0.73924 0.0
H3124 H 0.79063 0.67981 0.53651 0.0
H3125 H 0.74737 0.82139 0.45319 0.0
H3126 H 0.74344 0.67619 0.49344 0.0
H3127 H 0.79322 0.82658 0.50164 0.0
H3128 H 0.74615 0.76768 0.46618 0.0
H3129 H 0.79168 0.73378 0.52474 0.0
C3130 C 0.78039 0.69045 0.52501 0.0
C3131 C 0.76693 0.67343 0.51594 0.0
C3132 C 0.75651 0.78054 0.47384 0.0
C3133 C 0.76822 0.73503 0.50163 0.0
C3134 C 0.75727 0.81116 0.46618 0.0
C3135 C 0.77043 0.82851 0.47623 0.0
C3136 C 0.76894 0.7672 0.4919 0.0
C3137 C 0.7829 0.81406 0.49312 0.0
C3138 C 0.78104 0.72122 0.51807 0.0
C3139 C 0.75403 0.6884 0.50106 0.0
N3140 N 0.7818 0.78432 0.5006 0.0
N3141 N 0.75506 0.71826 0.49408 0.0
H3142 H 0.79316 0.92856 0.27854 0.0
H3143 H 0.74568 0.0714 0.2078 0.0
H3144 H 0.74294 0.92754 0.25271 0.0
H3145 H 0.7955 0.07372 0.2365 0.0
H3146 H 0.7447 0.01805 0.22265 0.0
H3147 H 0.79421 0.98213 0.26441 0.0
C3148 C 0.78232 0.93971 0.27032 0.0
C3149 C 0.76796 0.92359 0.26685 0.0
C3150 C 0.75587 0.03022 0.22557 0.0
C3151 C 0.76915 0.9845 0.24976 0.0
C3152 C 0.75645 0.06058 0.21684 0.0
C3153 C 0.77068 0.07699 0.22081 0.0
C3154 C 0.76956 0.01628 0.23872 0.0
C3155 C 0.7843 0.06189 0.23269 0.0
C3156 C 0.78295 0.9702 0.26202 0.0
C3157 C 0.75426 0.9391 0.25605 0.0
N3158 N 0.78336 0.03246 0.24148 0.0
N3159 N 0.75524 0.96859 0.24759 0.0
H3160 H 0.54551 0.57545 0.49853 0.0
H3161 H 0.49258 0.42515 0.49423 0.0
H3162 H 0.49606 0.57181 0.52963 0.0
H3163 H 0.54133 0.43037 0.45916 0.0
H3164 H 0.49343 0.47887 0.50671 0.0
H3165 H 0.54434 0.52197 0.48536 0.0
C3166 C 0.53448 0.5633 0.50319 0.0
C3167 C 0.52086 0.57819 0.51526 0.0
C3168 C 0.50389 0.46834 0.49599 0.0
C3169 C 0.51937 0.51688 0.4997 0.0
C3170 C 0.50337 0.43768 0.48856 0.0
C3171 C 0.51692 0.42317 0.47565 0.0
C3172 C 0.51806 0.48466 0.49045 0.0
C3173 C 0.53061 0.44058 0.46915 0.0
C3174 C 0.53377 0.53277 0.49533 0.0
C3175 C 0.50685 0.56127 0.52038 0.0
N3176 N 0.53086 0.47035 0.4768 0.0
N3177 N 0.50645 0.53154 0.51247 0.0
H3178 H 0.54444 0.67285 0.74913 0.0
H3179 H 0.49305 0.82513 0.74361 0.0
H3180 H 0.49735 0.67948 0.70594 0.0
H3181 H 0.54077 0.81923 0.78396 0.0
H3182 H 0.49405 0.77142 0.73132 0.0
H3183 H 0.54341 0.72649 0.7617 0.0
C3184 C 0.534 0.68568 0.74169 0.0
C3185 C 0.52095 0.67161 0.72644 0.0
C3186 C 0.50424 0.78179 0.74315 0.0
C3187 C 0.51958 0.73302 0.74132 0.0
C3188 C 0.50362 0.81243 0.75051 0.0
C3189 C 0.51686 0.82671 0.76484 0.0
C3190 C 0.51819 0.76525 0.75029 0.0
C3191 C 0.5303 0.80914 0.77283 0.0
C3192 C 0.53336 0.71629 0.74918 0.0
C3193 C 0.50768 0.68938 0.71776 0.0
N3194 N 0.53065 0.77935 0.76532 0.0
N3195 N 0.5073 0.71913 0.72547 0.0
H3196 H 0.49747 0.17973 0.20411 0.0
H3197 H 0.54013 0.32119 0.28822 0.0
H3198 H 0.54456 0.17647 0.24771 0.0
H3199 H 0.49367 0.32577 0.24207 0.0
H3200 H 0.5414 0.26751 0.2755 0.0
H3201 H 0.4959 0.2334 0.21717 0.0
C3202 C 0.50757 0.19039 0.216 0.0
C3203 C 0.52117 0.17358 0.22481 0.0
C3204 C 0.53088 0.28021 0.26833 0.0
C3205 C 0.51927 0.23475 0.24059 0.0
C3206 C 0.53009 0.31081 0.27585 0.0
C3207 C 0.51679 0.32802 0.26617 0.0
C3208 C 0.51834 0.26674 0.25078 0.0
C3209 C 0.50413 0.31337 0.25017 0.0
C3210 C 0.50661 0.22097 0.2237 0.0
C3211 C 0.53388 0.18855 0.24025 0.0
N3212 N 0.50528 0.28364 0.24272 0.0
N3213 N 0.53256 0.2182 0.2479 0.0
H3214 H 0.49526 0.0735 0.0269 0.0
H3215 H 0.54353 0.92922 0.96302 0.0
H3216 H 0.54475 0.07661 -0.00406 0.0
H3217 H 0.49304 0.92864 0.98667 0.0
H3218 H 0.54445 0.98298 0.97563 0.0
H3219 H 0.49482 0.01958 0.0155 0.0
C3220 C 0.50612 0.06279 0.01818 0.0
C3221 C 0.52004 0.0797 0.01219 0.0
C3222 C 0.53315 0.97112 0.97784 0.0
C3223 C 0.51951 0.01798 -0.00151 0.0
C3224 C 0.53258 0.94046 0.97039 0.0
C3225 C 0.51819 0.92433 0.97382 0.0
C3226 C 0.51924 0.98575 0.98897 0.0
C3227 C 0.5044 0.94011 0.9836 0.0
C3228 C 0.50581 0.03201 0.01139 0.0
C3229 C 0.53373 0.06452 0.00086 0.0
N3230 N 0.5053 0.96986 0.99105 0.0
N3231 N 0.53309 0.03457 0.99415 0.0
H3232 H 0.0517 0.05691 0.15332 0.0
H3233 H 0.99854 0.19469 0.08842 0.0
H3234 H 1.00061 0.05141 0.13675 0.0
H3235 H 0.05008 0.1983 0.09873 0.0
H3236 H 0.99897 0.14253 0.10722 0.0
H3237 H 0.05132 0.10883 0.13372 0.0
C3238 C 0.04042 0.06653 0.14533 0.0
C3239 C 0.02617 0.04977 0.1467 0.0
C3240 C 1.01019 0.15475 0.10546 0.0
C3241 C 0.02562 0.10933 0.12448 0.0
C3242 C 1.00995 0.1846 0.09487 0.0
C3243 C 0.02431 0.20091 0.09203 0.0
C3244 C 0.02489 0.1411 0.11341 0.0
C3245 C 0.03873 0.18658 0.10052 0.0
C3246 C 0.0402 0.09623 0.13422 0.0
C3247 C 1.01189 0.06347 0.13613 0.0
N3248 N 0.03865 0.15749 0.11083 0.0
N3249 N 1.01198 0.09247 0.12557 0.0
H3250 H 0.23583 0.18762 0.17022 0.0
H3251 H 0.28569 0.06402 0.07103 0.0
H3252 H 0.28086 0.20626 0.12247 0.0
H3253 H 0.24086 0.04553 0.11956 0.0
H3254 H 0.28392 0.11642 0.08867 0.0
H3255 H 0.23706 0.13594 0.15027 0.0
C3256 C 0.24586 0.18098 0.15512 0.0
C3257 C 0.25824 0.20132 0.14795 0.0
C3258 C 0.2745 0.1009 0.09559 0.0
C3259 C 0.25981 0.14202 0.12527 0.0
C3260 C 0.27554 0.07092 0.08567 0.0
C3261 C 0.26342 0.05036 0.09397 0.0
C3262 C 0.26128 0.11038 0.11411 0.0
C3263 C 0.25045 0.06065 0.11258 0.0
C3264 C 0.24661 0.15138 0.1439 0.0
C3265 C 0.27105 0.19132 0.12861 0.0
N3266 N 0.24974 0.08993 0.12208 0.0
N3267 N 0.27152 0.16234 0.11801 0.0
H3268 H 0.98986 0.79652 0.8758 0.0
H3269 H 0.03616 0.9542 0.86181 0.0
H3270 H 0.03782 0.81119 0.91213 0.0
H3271 H 0.98843 0.93878 0.82458 0.0
H3272 H 0.03675 0.90237 0.88192 0.0
H3273 H 0.98905 0.84884 0.85737 0.0
C3274 C 1.00023 0.81073 0.87984 0.0
C3275 C 1.01392 0.79945 0.89546 0.0
C3276 C 0.02613 0.91035 0.86943 0.0
C3277 C 1.01304 0.85946 0.87473 0.0
C3278 C 0.02577 0.93997 0.85802 0.0
C3279 C 1.01222 0.95083 0.84146 0.0
C3280 C 1.01289 0.8914 0.86408 0.0
C3281 C 0.9991 0.93142 0.83731 0.0
C3282 C 0.99976 0.84062 0.86937 0.0
C3283 C 0.02703 0.81888 0.90001 0.0
N3284 N 0.9998 0.90262 0.8484 0.0
N3285 N 0.02625 0.84795 0.88977 0.0
H3286 H 0.80015 0.93566 0.92702 0.0
H3287 H 0.75465 0.81475 0.81646 0.0
H3288 H 0.7583 0.95667 0.86954 0.0
H3289 H 0.79446 0.79284 0.87922 0.0
H3290 H 0.75641 0.8672 0.83384 0.0
H3291 H 0.79904 0.88384 0.90753 0.0
C3292 C 0.79087 0.9295 0.90987 0.0
C3293 C 0.77933 0.95055 0.89978 0.0
C3294 C 0.76472 0.85092 0.84394 0.0
C3295 C 0.77791 0.89111 0.87756 0.0
C3296 C 0.76369 0.82092 0.83414 0.0
C3297 C 0.77441 0.79936 0.84653 0.0
C3298 C 0.77652 0.85945 0.86642 0.0
C3299 C 0.78599 0.80874 0.86901 0.0
C3300 C 0.79018 0.89982 0.89893 0.0
C3301 C 0.76743 0.94114 0.87794 0.0
N3302 N 0.78672 0.83809 0.87828 0.0
N3303 N 0.76702 0.91209 0.86757 0.0
H3304 H 0.04915 0.56387 0.67436 0.0
H3305 H 1.00109 0.68834 0.57255 0.0
H3306 H 1.00409 0.54662 0.62615 0.0
H3307 H 0.04644 0.70521 0.61976 0.0
H3308 H 1.00218 0.63616 0.59117 0.0
H3309 H 0.0487 0.61529 0.65336 0.0
C3310 C 0.03924 0.57078 0.65905 0.0
C3311 C 0.02663 0.5509 0.65203 0.0
C3312 C 1.01187 0.65127 0.59757 0.0
C3313 C 0.02599 0.60989 0.62805 0.0
C3314 C 1.01123 0.68114 0.58708 0.0
C3315 C 0.02367 0.70121 0.59476 0.0
C3316 C 0.02501 0.64139 0.61609 0.0
C3317 C 0.0366 0.69049 0.61327 0.0
C3318 C 0.03896 0.60022 0.64717 0.0
C3319 C 1.01405 0.56121 0.63227 0.0
N3320 N 0.03691 0.66134 0.62338 0.0
N3321 N 1.01403 0.59001 0.62104 0.0
H3322 H 0.28378 0.68671 0.67215 0.0
H3323 H 0.23795 0.56513 0.5629 0.0
H3324 H 0.24329 0.708 0.61094 0.0
H3325 H 0.28044 0.54483 0.6187 0.0
H3326 H 0.23893 0.61692 0.58255 0.0
H3327 H 0.28213 0.63426 0.6547 0.0
C3328 C 0.27462 0.68041 0.65481 0.0
C3329 C 0.26368 0.7018 0.64287 0.0
C3330 C 0.24797 0.60111 0.59075 0.0
C3331 C 0.2617 0.64169 0.62289 0.0
C3332 C 0.24735 0.57144 0.57971 0.0
C3333 C 0.25911 0.55059 0.58927 0.0
C3334 C 0.26037 0.61002 0.61168 0.0
C3335 C 0.27115 0.56019 0.6107 0.0
C3336 C 0.27365 0.6504 0.64496 0.0
C3337 C 0.25194 0.69224 0.6208 0.0
N3338 N 0.27148 0.58922 0.62117 0.0
N3339 N 0.25128 0.66289 0.61148 0.0
H3340 H 0.98756 0.31479 0.42674 0.0
H3341 H 0.03258 0.43737 0.3174 0.0
H3342 H 0.03018 0.29569 0.37087 0.0
H3343 H 0.99215 0.45804 0.37898 0.0
H3344 H 0.03122 0.38495 0.33492 0.0
H3345 H 0.98825 0.36675 0.40733 0.0
C3346 C 0.99694 0.32143 0.41002 0.0
C3347 C 1.00881 0.30089 0.40033 0.0
C3348 C 0.02269 0.40094 0.34474 0.0
C3349 C 1.00973 0.36039 0.37818 0.0
C3350 C 0.02349 0.43094 0.33486 0.0
C3351 C 1.01248 0.45214 0.34689 0.0
C3352 C 1.01084 0.39205 0.36696 0.0
C3353 C 1.00084 0.44242 0.36907 0.0
C3354 C 0.99738 0.35116 0.39911 0.0
C3355 C 0.02081 0.31083 0.379 0.0
N3356 N 1.00034 0.41307 0.37845 0.0
N3357 N 0.02096 0.33989 0.36863 0.0
H3358 H 0.74985 0.30167 0.34722 0.0
H3359 H 0.80185 0.44654 0.39527 0.0
H3360 H 0.80131 0.3068 0.33593 0.0
H3361 H 0.75002 0.4455 0.39437 0.0
H3362 H 0.80193 0.3946 0.3757 0.0
H3363 H 0.74976 0.35334 0.36758 0.0
C3364 C 0.76116 0.31356 0.34924 0.0
C3365 C 0.77563 0.29987 0.33981 0.0
C3366 C 0.79054 0.40577 0.37967 0.0
C3367 C 0.77557 0.35913 0.36293 0.0
C3368 C 0.79049 0.43546 0.3908 0.0
C3369 C 0.77591 0.45043 0.39641 0.0
C3370 C 0.77592 0.39083 0.37431 0.0
C3371 C 0.76155 0.43489 0.39026 0.0
C3372 C 0.76107 0.34314 0.36073 0.0
C3373 C 0.78988 0.31645 0.34287 0.0
N3374 N 0.76192 0.40591 0.37965 0.0
N3375 N 0.78949 0.34521 0.35414 0.0
H3376 H 0.50566 0.04641 0.62453 0.0
H3377 H 0.54769 0.20861 0.61892 0.0
H3378 H 0.54978 0.0675 0.67452 0.0
H3379 H 0.50171 0.18928 0.57542 0.0
H3380 H 0.54922 0.15642 0.63773 0.0
H3381 H 0.50482 0.09788 0.60356 0.0
C3382 C 0.51523 0.06181 0.63094 0.0
C3383 C 0.5278 0.05266 0.65137 0.0
C3384 C 0.5388 0.1636 0.62407 0.0
C3385 C 0.52682 0.1117 0.62774 0.0
C3386 C 0.53791 0.1934 0.61337 0.0
C3387 C 0.52454 0.20332 0.59569 0.0
C3388 C 0.52628 0.14351 0.61678 0.0
C3389 C 0.5122 0.18266 0.58921 0.0
C3390 C 0.51471 0.09123 0.61904 0.0
C3391 C 0.53989 0.07354 0.65878 0.0
N3392 N 0.51339 0.15372 0.59967 0.0
N3393 N 0.53905 0.10213 0.64709 0.0
H3394 H 0.73572 0.05703 0.58244 0.0
H3395 H 0.78795 0.19281 0.65388 0.0
H3396 H 0.78627 0.05019 0.60444 0.0
H3397 H 0.73672 0.19789 0.63891 0.0
H3398 H 0.78762 0.14082 0.63484 0.0
H3399 H 0.73582 0.10868 0.60284 0.0
C3400 C 0.74681 0.06628 0.59182 0.0
C3401 C 0.76101 0.04927 0.59169 0.0
C3402 C 0.77644 0.1533 0.63564 0.0
C3403 C 0.76124 0.10846 0.61482 0.0
C3404 C 0.77663 0.18306 0.64638 0.0
C3405 C 0.76232 0.19974 0.64797 0.0
C3406 C 0.76186 0.14009 0.62625 0.0
C3407 C 0.74801 0.18585 0.63812 0.0
C3408 C 0.74687 0.09582 0.60337 0.0
C3409 C 0.77504 0.06248 0.60403 0.0
N3410 N 0.74815 0.15682 0.62766 0.0
N3411 N 0.77481 0.09133 0.61498 0.0
H3412 H 0.48869 0.95641 0.36789 0.0
H3413 H 0.53305 0.79625 0.37303 0.0
H3414 H 0.53572 0.9399 0.32759 0.0
H3415 H 0.48757 0.81383 0.41957 0.0
H3416 H 0.53351 0.84821 0.35362 0.0
H3417 H 0.4876 0.90381 0.38563 0.0
C3418 C 0.49879 0.94174 0.36284 0.0
C3419 C 0.51232 0.95254 0.34633 0.0
C3420 C 0.5234 0.84069 0.36798 0.0
C3421 C 0.51108 0.89236 0.36613 0.0
C3422 C 0.5231 0.81098 0.37897 0.0
C3423 C 0.51026 0.80071 0.39799 0.0
C3424 C 0.5108 0.86031 0.37617 0.0
C3425 C 0.49768 0.82076 0.40488 0.0
C3426 C 0.49815 0.91173 0.37291 0.0
C3427 C 0.52508 0.93259 0.34047 0.0
N3428 N 0.49831 0.84966 0.39411 0.0
N3429 N 0.52412 0.90345 0.35025 0.0
H3430 H 0.30197 0.94956 0.39182 0.0
H3431 H 0.25049 0.8021 0.35156 0.0
H3432 H 0.25023 0.94608 0.39671 0.0
H3433 H 0.30172 0.8082 0.33702 0.0
H3434 H 0.25033 0.85408 0.37079 0.0
H3435 H 0.30224 0.89729 0.37327 0.0
C3436 C 0.29066 0.93787 0.38882 0.0
C3437 C 0.27606 0.95222 0.39579 0.0
C3438 C 0.26162 0.84403 0.36348 0.0
C3439 C 0.27628 0.89231 0.37492 0.0
C3440 C 0.26174 0.81428 0.35263 0.0
C3441 C 0.27615 0.80078 0.34261 0.0
C3442 C 0.27603 0.86041 0.36438 0.0
C3443 C 0.29033 0.8177 0.34449 0.0
C3444 C 0.29082 0.908 0.3783 0.0
C3445 C 0.26177 0.93595 0.39151 0.0
N3446 N 0.28991 0.84666 0.35508 0.0
N3447 N 0.26225 0.90683 0.38147 0.0
H3448 H 0.50608 0.70484 0.11735 0.0
H3449 H 0.54878 0.54297 0.11983 0.0
H3450 H 0.5506 0.68554 0.06793 0.0
H3451 H 0.50359 0.56229 0.16669 0.0
H3452 H 0.55003 0.59538 0.10145 0.0
H3453 H 0.50558 0.65312 0.13752 0.0
C3454 C 0.51581 0.68977 0.11091 0.0
C3455 C 0.5284 0.6995 0.0909 0.0
C3456 C 0.53985 0.58813 0.11578 0.0
C3457 C 0.52781 0.64015 0.11359 0.0
C3458 C 0.53913 0.55822 0.12622 0.0
C3459 C 0.52605 0.54825 0.14471 0.0
C3460 C 0.52747 0.60822 0.12414 0.0
C3461 C 0.51385 0.56894 0.15225 0.0
C3462 C 0.51549 0.66021 0.12236 0.0
C3463 C 0.5407 0.67904 0.08341 0.0
N3464 N 0.51488 0.59794 0.14202 0.0
N3465 N 0.54005 0.65027 0.09461 0.0
H3466 H 0.76864 0.57358 0.04276 0.0
H3467 H 0.74628 0.68262 0.18849 0.0
H3468 H 0.75729 0.54063 0.13827 0.0
H3469 H 0.77735 0.71131 0.11072 0.0
H3470 H 0.74711 0.63126 0.16722 0.0
H3471 H 0.76902 0.62529 0.06408 0.0
C3472 C 0.76629 0.57739 0.06826 0.0
C3473 C 0.76288 0.55322 0.08895 0.0
C3474 C 0.7537 0.64881 0.15475 0.0
C3475 C 0.76316 0.61173 0.11329 0.0
C3476 C 0.75312 0.67814 0.16667 0.0
C3477 C 0.76166 0.7012 0.15113 0.0
C3478 C 0.76262 0.6426 0.1267 0.0
C3479 C 0.77058 0.6941 0.12333 0.0
C3480 C 0.76655 0.60673 0.08039 0.0
C3481 C 0.75989 0.55892 0.12171 0.0
N3482 N 0.77072 0.66539 0.11177 0.0
N3483 N 0.75998 0.58772 0.13291 0.0
H3484 H 0.53673 0.43956 0.82424 0.0
H3485 H 0.48778 0.31016 0.91617 0.0
H3486 H 0.48972 0.45307 0.86586 0.0
H3487 H 0.53518 0.29768 0.87597 0.0
H3488 H 0.48785 0.36204 0.8964 0.0
H3489 H 0.53607 0.3872 0.84199 0.0
C3490 C 0.52631 0.43157 0.83738 0.0
C3491 C 0.51327 0.45074 0.84372 0.0
C3492 C 0.49819 0.3479 0.89171 0.0
C3493 C 0.51242 0.39068 0.86402 0.0
C3494 C 0.49813 0.31821 0.90285 0.0
C3495 C 0.5115 0.29957 0.89769 0.0
C3496 C 0.51169 0.35898 0.87521 0.0
C3497 C 0.52463 0.3113 0.88056 0.0
C3498 C 0.52591 0.4016 0.84738 0.0
C3499 C 0.50001 0.43904 0.86045 0.0
N3500 N 0.52441 0.34028 0.86998 0.0
N3501 N 0.49994 0.40975 0.87009 0.0
H3502 H 0.30025 0.29849 0.85276 0.0
H3503 H 0.25113 0.4512 0.88279 0.0
H3504 H 0.24966 0.30855 0.83273 0.0
H3505 H 0.30074 0.43908 0.91022 0.0
H3506 H 0.25072 0.39973 0.86199 0.0
H3507 H 0.30089 0.35039 0.87255 0.0
C3508 C 0.28927 0.31157 0.85261 0.0
C3509 C 0.27488 0.29914 0.84108 0.0
C3510 C 0.26171 0.40833 0.87249 0.0
C3511 C 0.27556 0.35866 0.8634 0.0
C3512 C 0.26198 0.43779 0.88427 0.0
C3513 C 0.276 0.44948 0.89833 0.0
C3514 C 0.27555 0.39037 0.87478 0.0
C3515 C 0.28968 0.43103 0.89955 0.0
C3516 C 0.28964 0.34122 0.86387 0.0
C3517 C 0.26101 0.31715 0.8415 0.0
N3518 N 0.2891 0.40237 0.88803 0.0
N3519 N 0.26171 0.34601 0.85236 0.0
loop_
_geom_bond_atom_site_label_1
_geom_bond_atom_site_label_2
_geom_bond_distance
_geom_bond_site_symmetry_2
_ccdc_geom_bond_type
C0 C1 1.386 . S
C0 C5 1.384 . S
C0 C16 1.497 . S
C1 C0 1.386 . S
C1 C2 1.393 . S
C1 H32 0.932 . S
C2 C1 1.393 . S
C2 C3 1.387 . S
C3 C2 1.387 . S
C3 C4 1.392 . S
C3 H33 0.930 . S
C4 C3 1.392 . S
C4 C5 1.402 . S
C5 C0 1.384 . S
C5 C4 1.402 . S
C5 H34 0.930 . S
O6 Tb7 2.288 1_554 S
O6 C19 1.257 . S
Tb7 O6 2.288 1_556 S
Tb7 O9 2.303 . S
Tb7 O11 2.430 1_556 S
Tb7 O13 2.459 1_556 S
Tb7 O15 2.301 . S
Tb7 C16 2.808 1_556 S
Tb8 O10 2.294 1_655 S
Tb8 C12 2.808 . S
Tb8 O14 2.288 1_655 S
Tb8 O21 2.303 1_655 S
Tb8 O30 2.430 . S
Tb8 O31 2.459 . S
O9 Tb7 2.303 . S
O9 C28 1.255 1_455 S
O10 Tb8 2.294 1_455 S
O10 C19 1.259 . S
O11 Tb7 2.430 1_554 S
O11 C16 1.248 . S
C12 Tb8 2.808 . S
C12 C22 1.497 . S
C12 O30 1.248 . S
C12 O31 1.260 . S
O13 Tb7 2.459 1_554 S
O13 C16 1.260 . S
O14 Tb8 2.288 1_455 S
O14 C20 1.257 1_554 S
O15 Tb7 2.301 . S
O15 C20 1.237 . S
C16 C0 1.497 . S
C16 Tb7 2.808 1_554 S
C16 O11 1.248 . S
C16 O13 1.260 . S
C17 O18 1.255 . S
C17 O21 1.255 . S
O18 C17 1.255 . S
C19 O6 1.257 . S
C19 O10 1.259 . S
C20 O14 1.257 1_556 S
C20 O15 1.237 . S
O21 Tb8 2.303 1_455 S
O21 C17 1.255 . S
C22 C12 1.497 . S
C22 C24 1.384 . S
C22 C25 1.386 . S
C23 C24 1.402 . S
C23 C27 1.392 . S
C24 C22 1.384 . S
C24 C23 1.402 . S
C24 H35 0.930 . S
C25 C22 1.386 . S
C25 C26 1.393 . S
C25 H36 0.932 . S
C26 C25 1.393 . S
C26 C27 1.387 . S
C27 C23 1.392 . S
C27 C26 1.387 . S
C27 H37 0.930 1_554 S
C28 O9 1.255 1_655 S
C28 O29 1.255 . S
O29 C28 1.255 . S
O30 Tb8 2.430 . S
O30 C12 1.248 . S
O31 Tb8 2.459 . S
O31 C12 1.260 . S
H32 C1 0.932 . S
H33 C3 0.930 . S
H34 C5 0.930 . S
H35 C24 0.930 . S
H36 C25 0.932 . S
H37 C27 0.930 1_556 S
C38 C39 1.386 . S
C38 C43 1.384 . S
C38 C54 1.497 . S
C39 C38 1.386 . S
C39 C40 1.393 . S
C39 H70 0.932 . S
C40 C39 1.393 . S
C40 C41 1.387 . S
C41 C40 1.387 . S
C41 C42 1.392 . S
C41 H71 0.930 . S
C42 C41 1.392 . S
C42 C43 1.402 . S
C43 C38 1.384 . S
C43 C42 1.402 . S
C43 H72 0.930 . S
O44 Tb45 2.288 1_554 S
O44 C57 1.257 . S
Tb45 O44 2.288 1_556 S
Tb45 O47 2.303 . S
Tb45 O49 2.430 1_556 S
Tb45 O51 2.459 1_556 S
Tb45 O53 2.301 . S
Tb45 C54 2.808 1_556 S
Tb46 O48 2.301 . S
Tb46 C50 2.808 . S
Tb46 O52 2.288 . S
Tb46 O59 2.303 1_565 S
Tb46 O68 2.430 . S
Tb46 O69 2.459 . S
O47 Tb45 2.303 . S
O47 C66 1.255 . S
O48 Tb46 2.301 . S
O48 C57 1.237 . S
O49 Tb45 2.430 1_554 S
O49 C54 1.248 . S
C50 Tb46 2.808 . S
C50 C60 1.497 . S
C50 O68 1.248 . S
C50 O69 1.260 . S
O51 Tb45 2.459 1_554 S
O51 C54 1.260 . S
O52 Tb46 2.288 . S
O52 C58 1.257 1_554 S
O53 Tb45 2.301 . S
O53 C58 1.237 . S
C54 C38 1.497 . S
C54 Tb45 2.808 1_554 S
C54 O49 1.248 . S
C54 O51 1.260 . S
C55 O56 1.255 . S
C55 O59 1.255 . S
O56 C55 1.255 . S
C57 O44 1.257 . S
C57 O48 1.237 . S
C58 O52 1.257 1_556 S
C58 O53 1.237 . S
O59 Tb46 2.303 1_545 S
O59 C55 1.255 . S
C60 C50 1.497 . S
C60 C62 1.384 . S
C60 C63 1.386 . S
C61 C62 1.402 . S
C61 C65 1.392 . S
C62 C60 1.384 . S
C62 C61 1.402 . S
C62 H73 0.930 . S
C63 C60 1.386 . S
C63 C64 1.393 . S
C63 H74 0.932 1_565 S
C64 C63 1.393 . S
C64 C65 1.387 . S
C65 C61 1.392 . S
C65 C64 1.387 . S
C65 H75 0.930 1_554 S
C66 O47 1.255 . S
C66 O67 1.255 . S
O67 C66 1.255 . S
O68 Tb46 2.430 . S
O68 C50 1.248 . S
O69 Tb46 2.459 . S
O69 C50 1.260 . S
H70 C39 0.932 . S
H71 C41 0.930 . S
H72 C43 0.930 . S
H73 C62 0.930 . S
H74 C63 0.932 1_545 S
H75 C65 0.930 1_556 S
C76 C77 1.386 . S
C76 C81 1.384 . S
C76 C92 1.497 . S
C77 C76 1.386 . S
C77 C78 1.393 . S
C77 H108 0.932 . S
C78 C77 1.393 . S
C78 C79 1.387 . S
C79 C78 1.387 . S
C79 C80 1.392 . S
C79 H109 0.930 . S
C80 C79 1.392 . S
C80 C81 1.402 . S
C81 C76 1.384 . S
C81 C80 1.402 . S
C81 H110 0.930 . S
O82 Tb83 2.288 . S
O82 C95 1.257 . S
Tb83 O82 2.288 . S
Tb83 O85 2.303 . S
Tb83 O87 2.430 . S
Tb83 O89 2.459 . S
Tb83 O91 2.301 . S
Tb83 C92 2.808 . S
Tb84 O86 2.294 1_655 S
Tb84 C88 2.808 . S
Tb84 O90 2.288 1_655 S
Tb84 O97 2.303 1_665 S
Tb84 O106 2.430 . S
Tb84 O107 2.459 . S
O85 Tb83 2.303 . S
O85 C104 1.255 1_455 S
O86 Tb84 2.294 1_455 S
O86 C95 1.258 . S
O87 Tb83 2.430 . S
O87 C92 1.248 . S
C88 Tb84 2.808 . S
C88 C98 1.497 . S
C88 O106 1.248 . S
C88 O107 1.260 . S
O89 Tb83 2.459 . S
O89 C92 1.260 . S
O90 Tb84 2.288 1_455 S
O90 C96 1.257 . S
O91 Tb83 2.301 . S
O91 C96 1.237 . S
C92 C76 1.497 . S
C92 Tb83 2.808 . S
C92 O87 1.248 . S
C92 O89 1.260 . S
C93 O94 1.255 . S
C93 O97 1.255 . S
O94 C93 1.255 . S
C95 O82 1.257 . S
C95 O86 1.258 . S
C96 O90 1.257 . S
C96 O91 1.237 . S
O97 Tb84 2.303 1_445 S
O97 C93 1.255 . S
C98 C88 1.497 . S
C98 C100 1.384 . S
C98 C101 1.386 . S
C99 C100 1.402 . S
C99 C103 1.392 . S
C100 C98 1.384 . S
C100 C99 1.402 . S
C100 H111 0.930 . S
C101 C98 1.386 . S
C101 C102 1.393 . S
C101 H112 0.932 1_565 S
C102 C101 1.393 . S
C102 C103 1.387 . S
C103 C99 1.392 . S
C103 C102 1.387 . S
C103 H113 0.930 . S
C104 O85 1.255 1_655 S
C104 O105 1.255 . S
O105 C104 1.255 . S
O106 Tb84 2.430 . S
O106 C88 1.248 . S
O107 Tb84 2.459 . S
O107 C88 1.260 . S
H108 C77 0.932 . S
H109 C79 0.930 . S
H110 C81 0.930 . S
H111 C100 0.930 . S
H112 C101 0.932 1_545 S
H113 C103 0.930 . S
C114 C115 1.386 . S
C114 C119 1.384 . S
C114 C130 1.497 . S
C115 C114 1.386 . S
C115 C116 1.393 . S
C115 H146 0.932 . S
C116 C115 1.393 . S
C116 C117 1.387 . S
C117 C116 1.387 . S
C117 C118 1.392 . S
C117 H147 0.930 . S
C118 C117 1.392 . S
C118 C119 1.402 . S
C119 C114 1.384 . S
C119 C118 1.402 . S
C119 H148 0.930 . S
O120 Tb121 2.288 . S
O120 C133 1.257 . S
Tb121 O120 2.288 . S
Tb121 O123 2.303 . S
Tb121 O125 2.430 . S
Tb121 O127 2.459 . S
Tb121 O129 2.301 . S
Tb121 C130 2.808 . S
Tb122 O124 2.301 . S
Tb122 C126 2.808 . S
Tb122 O128 2.288 . S
Tb122 O135 2.303 . S
Tb122 O144 2.430 . S
Tb122 O145 2.459 . S
O123 Tb121 2.303 . S
O123 C142 1.255 . S
O124 Tb122 2.301 . S
O124 C133 1.237 . S
O125 Tb121 2.430 . S
O125 C130 1.248 . S
C126 Tb122 2.808 . S
C126 C136 1.497 . S
C126 O144 1.248 . S
C126 O145 1.260 . S
O127 Tb121 2.459 . S
O127 C130 1.260 . S
O128 Tb122 2.288 . S
O128 C134 1.257 . S
O129 Tb121 2.301 . S
O129 C134 1.237 . S
C130 C114 1.497 . S
C130 Tb121 2.808 . S
C130 O125 1.248 . S
C130 O127 1.260 . S
C131 O132 1.255 . S
C131 O135 1.255 . S
O132 C131 1.255 . S
C133 O120 1.257 . S
C133 O124 1.237 . S
C134 O128 1.257 . S
C134 O129 1.237 . S
O135 Tb122 2.303 . S
O135 C131 1.255 . S
C136 C126 1.497 . S
C136 C138 1.384 . S
C136 C139 1.386 . S
C137 C138 1.402 . S
C137 C141 1.392 . S
C138 C136 1.384 . S
C138 C137 1.402 . S
C138 H149 0.930 . S
C139 C136 1.386 . S
C139 C140 1.393 . S
C139 H150 0.932 . S
C140 C139 1.393 . S
C140 C141 1.387 . S
C141 C137 1.392 . S
C141 C140 1.387 . S
C141 H151 0.930 . S
C142 O123 1.255 . S
C142 O143 1.255 . S
O143 C142 1.255 . S
O144 Tb122 2.430 . S
O144 C126 1.248 . S
O145 Tb122 2.459 . S
O145 C126 1.260 . S
H146 C115 0.932 . S
H147 C117 0.930 . S
H148 C119 0.930 . S
H149 C138 0.930 . S
H150 C139 0.932 . S
H151 C141 0.930 . S
C152 C153 1.386 . S
C152 C157 1.384 . S
C152 C168 1.497 . S
C153 C152 1.386 . S
C153 C154 1.393 . S
C153 H184 0.932 . S
C154 C153 1.393 . S
C154 C155 1.387 . S
C155 C154 1.387 . S
C155 C156 1.392 . S
C155 H185 0.930 1_556 S
C156 C155 1.392 . S
C156 C157 1.402 . S
C157 C152 1.384 . S
C157 C156 1.402 . S
C157 H186 0.930 . S
O158 Tb159 2.288 1_655 S
O158 C171 1.257 1_556 S
Tb159 O158 2.288 1_455 S
Tb159 O161 2.303 1_455 S
Tb159 O163 2.430 . S
Tb159 O165 2.459 . S
Tb159 O167 2.294 1_455 S
Tb159 C168 2.808 . S
Tb160 O162 2.301 . S
Tb160 C164 2.808 1_554 S
Tb160 O166 2.288 1_554 S
Tb160 O173 2.303 . S
Tb160 O182 2.430 1_554 S
Tb160 O183 2.459 1_554 S
O161 Tb159 2.303 1_655 S
O161 C180 1.255 . S
O162 Tb160 2.301 . S
O162 C171 1.237 . S
O163 Tb159 2.430 . S
O163 C168 1.248 . S
C164 Tb160 2.808 1_556 S
C164 C174 1.497 . S
C164 O182 1.248 . S
C164 O183 1.260 . S
O165 Tb159 2.459 . S
O165 C168 1.260 . S
O166 Tb160 2.288 1_556 S
O166 C172 1.257 . S
O167 Tb159 2.294 1_655 S
O167 C172 1.259 . S
C168 C152 1.497 . S
C168 Tb159 2.808 . S
C168 O163 1.248 . S
C168 O165 1.260 . S
C169 O170 1.255 . S
C169 O173 1.255 1_455 S
O170 C169 1.255 . S
C171 O158 1.257 1_554 S
C171 O162 1.237 . S
C172 O166 1.257 . S
C172 O167 1.259 . S
O173 Tb160 2.303 . S
O173 C169 1.255 1_655 S
C174 C164 1.497 . S
C174 C176 1.384 . S
C174 C177 1.386 . S
C175 C176 1.402 . S
C175 C179 1.392 . S
C176 C174 1.384 . S
C176 C175 1.402 . S
C176 H187 0.930 . S
C177 C174 1.386 . S
C177 C178 1.393 . S
C177 H188 0.932 . S
C178 C177 1.393 . S
C178 C179 1.387 . S
C179 C175 1.392 . S
C179 C178 1.387 . S
C179 H189 0.930 . S
C180 O161 1.255 . S
C180 O181 1.255 . S
O181 C180 1.255 . S
O182 Tb160 2.430 1_556 S
O182 C164 1.248 . S
O183 Tb160 2.459 1_556 S
O183 C164 1.260 . S
H184 C153 0.932 . S
H185 C155 0.930 1_554 S
H186 C157 0.930 . S
H187 C176 0.930 . S
H188 C177 0.932 . S
H189 C179 0.930 . S
C190 C191 1.386 . S
C190 C195 1.384 . S
C190 C206 1.497 . S
C191 C190 1.386 . S
C191 C192 1.393 . S
C191 H222 0.932 1_545 S
C192 C191 1.393 . S
C192 C193 1.387 . S
C193 C192 1.387 . S
C193 C194 1.392 . S
C193 H223 0.930 1_556 S
C194 C193 1.392 . S
C194 C195 1.402 . S
C195 C190 1.384 . S
C195 C194 1.402 . S
C195 H224 0.930 . S
O196 Tb197 2.288 . S
O196 C209 1.257 1_556 S
Tb197 O196 2.288 . S
Tb197 O199 2.303 1_545 S
Tb197 O201 2.430 . S
Tb197 O203 2.459 . S
Tb197 O205 2.301 . S
Tb197 C206 2.808 . S
Tb198 O200 2.301 . S
Tb198 C202 2.808 1_554 S
Tb198 O204 2.288 1_554 S
Tb198 O211 2.303 . S
Tb198 O220 2.430 1_554 S
Tb198 O221 2.459 1_554 S
O199 Tb197 2.303 1_565 S
O199 C218 1.255 . S
O200 Tb198 2.301 . S
O200 C209 1.237 . S
O201 Tb197 2.430 . S
O201 C206 1.248 . S
C202 Tb198 2.808 1_556 S
C202 C212 1.497 . S
C202 O220 1.248 . S
C202 O221 1.260 . S
O203 Tb197 2.459 . S
O203 C206 1.260 . S
O204 Tb198 2.288 1_556 S
O204 C210 1.257 . S
O205 Tb197 2.301 . S
O205 C210 1.237 . S
C206 C190 1.497 . S
C206 Tb197 2.808 . S
C206 O201 1.248 . S
C206 O203 1.260 . S
C207 O208 1.255 . S
C207 O211 1.255 . S
O208 C207 1.255 . S
C209 O196 1.257 1_554 S
C209 O200 1.237 . S
C210 O204 1.257 . S
C210 O205 1.237 . S
O211 Tb198 2.303 . S
O211 C207 1.255 . S
C212 C202 1.497 . S
C212 C214 1.384 . S
C212 C215 1.386 . S
C213 C214 1.402 . S
C213 C217 1.392 . S
C214 C212 1.384 . S
C214 C213 1.402 . S
C214 H225 0.930 . S
C215 C212 1.386 . S
C215 C216 1.393 . S
C215 H226 0.932 . S
C216 C215 1.393 . S
C216 C217 1.387 . S
C217 C213 1.392 . S
C217 C216 1.387 . S
C217 H227 0.930 . S
C218 O199 1.255 . S
C218 O219 1.255 . S
O219 C218 1.255 . S
O220 Tb198 2.430 1_556 S
O220 C202 1.248 . S
O221 Tb198 2.459 1_556 S
O221 C202 1.260 . S
H222 C191 0.932 1_565 S
H223 C193 0.930 1_554 S
H224 C195 0.930 . S
H225 C214 0.930 . S
H226 C215 0.932 . S
H227 C217 0.930 . S
C228 C229 1.386 . S
C228 C233 1.384 . S
C228 C244 1.497 . S
C229 C228 1.386 . S
C229 C230 1.393 . S
C229 H260 0.932 1_545 S
C230 C229 1.393 . S
C230 C231 1.387 . S
C231 C230 1.387 . S
C231 C232 1.392 . S
C231 H261 0.930 . S
C232 C231 1.392 . S
C232 C233 1.402 . S
C233 C228 1.384 . S
C233 C232 1.402 . S
C233 H262 0.930 . S
O234 Tb235 2.288 1_655 S
O234 C247 1.257 . S
Tb235 O234 2.288 1_455 S
Tb235 O237 2.303 1_445 S
Tb235 O239 2.430 . S
Tb235 O241 2.459 . S
Tb235 O243 2.294 1_455 S
Tb235 C244 2.808 . S
Tb236 O238 2.301 . S
Tb236 C240 2.808 . S
Tb236 O242 2.288 . S
Tb236 O249 2.303 . S
Tb236 O258 2.430 . S
Tb236 O259 2.459 . S
O237 Tb235 2.303 1_665 S
O237 C256 1.255 . S
O238 Tb236 2.301 . S
O238 C247 1.237 . S
O239 Tb235 2.430 . S
O239 C244 1.248 . S
C240 Tb236 2.808 . S
C240 C250 1.497 . S
C240 O258 1.248 . S
C240 O259 1.260 . S
O241 Tb235 2.459 . S
O241 C244 1.260 . S
O242 Tb236 2.288 . S
O242 C248 1.257 . S
O243 Tb235 2.294 1_655 S
O243 C248 1.259 . S
C244 C228 1.497 . S
C244 Tb235 2.808 . S
C244 O239 1.248 . S
C244 O241 1.260 . S
C245 O246 1.255 . S
C245 O249 1.255 1_455 S
O246 C245 1.255 . S
C247 O234 1.257 . S
C247 O238 1.237 . S
C248 O242 1.257 . S
C248 O243 1.259 . S
O249 Tb236 2.303 . S
O249 C245 1.255 1_655 S
C250 C240 1.497 . S
C250 C252 1.384 . S
C250 C253 1.386 . S
C251 C252 1.402 . S
C251 C255 1.392 . S
C252 C250 1.384 . S
C252 C251 1.402 . S
C252 H263 0.930 . S
C253 C250 1.386 . S
C253 C254 1.393 . S
C253 H264 0.932 . S
C254 C253 1.393 . S
C254 C255 1.387 . S
C255 C251 1.392 . S
C255 C254 1.387 . S
C255 H265 0.930 . S
C256 O237 1.255 . S
C256 O257 1.255 . S
O257 C256 1.255 . S
O258 Tb236 2.430 . S
O258 C240 1.248 . S
O259 Tb236 2.459 . S
O259 C240 1.260 . S
H260 C229 0.932 1_565 S
H261 C231 0.930 . S
H262 C233 0.930 . S
H263 C252 0.930 . S
H264 C253 0.932 . S
H265 C255 0.930 . S
C266 C267 1.386 . S
C266 C271 1.384 . S
C266 C282 1.497 . S
C267 C266 1.386 . S
C267 C268 1.393 . S
C267 H298 0.932 . S
C268 C267 1.393 . S
C268 C269 1.387 . S
C269 C268 1.387 . S
C269 C270 1.392 . S
C269 H299 0.930 . S
C270 C269 1.392 . S
C270 C271 1.402 . S
C271 C266 1.384 . S
C271 C270 1.402 . S
C271 H300 0.930 . S
O272 Tb273 2.288 . S
O272 C285 1.257 . S
Tb273 O272 2.288 . S
Tb273 O275 2.303 . S
Tb273 O277 2.430 . S
Tb273 O279 2.459 . S
Tb273 O281 2.301 . S
Tb273 C282 2.808 . S
Tb274 O276 2.301 . S
Tb274 C278 2.808 . S
Tb274 O280 2.288 . S
Tb274 O287 2.303 . S
Tb274 O296 2.430 . S
Tb274 O297 2.459 . S
O275 Tb273 2.303 . S
O275 C294 1.255 . S
O276 Tb274 2.301 . S
O276 C285 1.237 . S
O277 Tb273 2.430 . S
O277 C282 1.248 . S
C278 Tb274 2.808 . S
C278 C288 1.497 . S
C278 O296 1.248 . S
C278 O297 1.260 . S
O279 Tb273 2.459 . S
O279 C282 1.260 . S
O280 Tb274 2.288 . S
O280 C286 1.257 . S
O281 Tb273 2.301 . S
O281 C286 1.237 . S
C282 C266 1.497 . S
C282 Tb273 2.808 . S
C282 O277 1.248 . S
C282 O279 1.260 . S
C283 O284 1.255 . S
C283 O287 1.255 . S
O284 C283 1.255 . S
C285 O272 1.257 . S
C285 O276 1.237 . S
C286 O280 1.257 . S
C286 O281 1.237 . S
O287 Tb274 2.303 . S
O287 C283 1.255 . S
C288 C278 1.497 . S
C288 C290 1.384 . S
C288 C291 1.386 . S
C289 C290 1.402 . S
C289 C293 1.392 . S
C290 C288 1.384 . S
C290 C289 1.402 . S
C290 H301 0.930 . S
C291 C288 1.386 . S
C291 C292 1.393 . S
C291 H302 0.932 . S
C292 C291 1.393 . S
C292 C293 1.387 . S
C293 C289 1.392 . S
C293 C292 1.387 . S
C293 H303 0.930 . S
C294 O275 1.255 . S
C294 O295 1.255 . S
O295 C294 1.255 . S
O296 Tb274 2.430 . S
O296 C278 1.248 . S
O297 Tb274 2.459 . S
O297 C278 1.260 . S
H298 C267 0.932 . S
H299 C269 0.930 . S
H300 C271 0.930 . S
H301 C290 0.930 . S
H302 C291 0.932 . S
H303 C293 0.930 . S
C304 C305 1.386 . S
C304 C309 1.384 . S
C304 C320 1.497 . S
C305 C304 1.386 . S
C305 C306 1.393 . S
C305 H336 0.932 . S
C306 C305 1.393 . S
C306 C307 1.387 . S
C307 C306 1.387 . S
C307 C308 1.392 . S
C307 H337 0.930 . S
C308 C307 1.392 . S
C308 C309 1.402 . S
C309 C304 1.384 . S
C309 C308 1.402 . S
C309 H338 0.930 . S
O310 Tb311 2.288 . S
O310 C323 1.257 . S
Tb311 O310 2.288 . S
Tb311 O313 2.303 . S
Tb311 O315 2.430 . S
Tb311 O317 2.459 . S
Tb311 O319 2.301 . S
Tb311 C320 2.808 . S
Tb312 O314 2.294 1_655 S
Tb312 C316 2.808 . S
Tb312 O318 2.288 1_655 S
Tb312 O325 2.303 1_655 S
Tb312 O334 2.430 . S
Tb312 O335 2.459 . S
O313 Tb311 2.303 . S
O313 C332 1.255 1_455 S
O314 Tb312 2.294 1_455 S
O314 C323 1.259 . S
O315 Tb311 2.430 . S
O315 C320 1.248 . S
C316 Tb312 2.808 . S
C316 C326 1.497 . S
C316 O334 1.248 . S
C316 O335 1.260 . S
O317 Tb311 2.459 . S
O317 C320 1.260 . S
O318 Tb312 2.288 1_455 S
O318 C324 1.257 . S
O319 Tb311 2.301 . S
O319 C324 1.237 . S
C320 C304 1.497 . S
C320 Tb311 2.808 . S
C320 O315 1.248 . S
C320 O317 1.260 . S
C321 O322 1.255 . S
C321 O325 1.255 . S
O322 C321 1.255 . S
C323 O310 1.257 . S
C323 O314 1.259 . S
C324 O318 1.257 . S
C324 O319 1.237 . S
O325 Tb312 2.303 1_455 S
O325 C321 1.255 . S
C326 C316 1.497 . S
C326 C328 1.384 . S
C326 C329 1.386 . S
C327 C328 1.402 . S
C327 C331 1.392 . S
C328 C326 1.384 . S
C328 C327 1.402 . S
C328 H339 0.930 . S
C329 C326 1.386 . S
C329 C330 1.393 . S
C329 H340 0.932 . S
C330 C329 1.393 . S
C330 C331 1.387 . S
C331 C327 1.392 . S
C331 C330 1.387 . S
C331 H341 0.930 . S
C332 O313 1.255 1_655 S
C332 O333 1.255 . S
O333 C332 1.255 . S
O334 Tb312 2.430 . S
O334 C316 1.248 . S
O335 Tb312 2.459 . S
O335 C316 1.260 . S
H336 C305 0.932 . S
H337 C307 0.930 . S
H338 C309 0.930 . S
H339 C328 0.930 . S
H340 C329 0.932 . S
H341 C331 0.930 . S
C342 C343 1.386 . S
C342 C347 1.384 . S
C342 C358 1.497 . S
C343 C342 1.386 . S
C343 C344 1.393 . S
C343 H374 0.932 . S
C344 C343 1.393 . S
C344 C345 1.387 . S
C345 C344 1.387 . S
C345 C346 1.392 . S
C345 H375 0.930 . S
C346 C345 1.392 . S
C346 C347 1.402 . S
C347 C342 1.384 . S
C347 C346 1.402 . S
C347 H376 0.930 . S
O348 Tb349 2.288 . S
O348 C361 1.257 . S
Tb349 O348 2.288 . S
Tb349 O351 2.303 . S
Tb349 O353 2.430 . S
Tb349 O355 2.459 . S
Tb349 O357 2.301 . S
Tb349 C358 2.808 . S
Tb350 O352 2.301 . S
Tb350 C354 2.808 . S
Tb350 O356 2.288 . S
Tb350 O363 2.303 . S
Tb350 O372 2.430 . S
Tb350 O373 2.459 . S
O351 Tb349 2.303 . S
O351 C370 1.255 . S
O352 Tb350 2.301 . S
O352 C361 1.237 . S
O353 Tb349 2.430 . S
O353 C358 1.248 . S
C354 Tb350 2.808 . S
C354 C364 1.497 . S
C354 O372 1.248 . S
C354 O373 1.260 . S
O355 Tb349 2.459 . S
O355 C358 1.260 . S
O356 Tb350 2.288 . S
O356 C362 1.257 . S
O357 Tb349 2.301 . S
O357 C362 1.237 . S
C358 C342 1.497 . S
C358 Tb349 2.808 . S
C358 O353 1.248 . S
C358 O355 1.260 . S
C359 O360 1.255 . S
C359 O363 1.255 . S
O360 C359 1.255 . S
C361 O348 1.257 . S
C361 O352 1.237 . S
C362 O356 1.257 . S
C362 O357 1.237 . S
O363 Tb350 2.303 . S
O363 C359 1.255 . S
C364 C354 1.497 . S
C364 C366 1.384 . S
C364 C367 1.386 . S
C365 C366 1.402 . S
C365 C369 1.392 . S
C366 C364 1.384 . S
C366 C365 1.402 . S
C366 H377 0.930 . S
C367 C364 1.386 . S
C367 C368 1.393 . S
C367 H378 0.932 . S
C368 C367 1.393 . S
C368 C369 1.387 . S
C369 C365 1.392 . S
C369 C368 1.387 . S
C369 H379 0.930 . S
C370 O351 1.255 . S
C370 O371 1.255 . S
O371 C370 1.255 . S
O372 Tb350 2.430 . S
O372 C354 1.248 . S
O373 Tb350 2.459 . S
O373 C354 1.260 . S
H374 C343 0.932 . S
H375 C345 0.930 . S
H376 C347 0.930 . S
H377 C366 0.930 . S
H378 C367 0.932 . S
H379 C369 0.930 . S
C380 C381 1.386 . S
C380 C385 1.384 . S
C380 C396 1.497 . S
C381 C380 1.386 . S
C381 C382 1.393 . S
C381 H412 0.932 . S
C382 C381 1.393 . S
C382 C383 1.387 . S
C383 C382 1.387 . S
C383 C384 1.392 . S
C383 H413 0.930 . S
C384 C383 1.392 . S
C384 C385 1.402 . S
C385 C380 1.384 . S
C385 C384 1.402 . S
C385 H414 0.930 . S
O386 Tb387 2.288 . S
O386 C399 1.257 . S
Tb387 O386 2.288 . S
Tb387 O389 2.303 . S
Tb387 O391 2.430 . S
Tb387 O393 2.459 . S
Tb387 O395 2.301 . S
Tb387 C396 2.808 . S
Tb388 O390 2.294 1_655 S
Tb388 C392 2.808 . S
Tb388 O394 2.288 1_655 S
Tb388 O401 2.303 1_655 S
Tb388 O410 2.430 . S
Tb388 O411 2.459 . S
O389 Tb387 2.303 . S
O389 C408 1.255 1_455 S
O390 Tb388 2.294 1_455 S
O390 C399 1.259 . S
O391 Tb387 2.430 . S
O391 C396 1.248 . S
C392 Tb388 2.808 . S
C392 C402 1.497 . S
C392 O410 1.248 . S
C392 O411 1.260 . S
O393 Tb387 2.459 . S
O393 C396 1.260 . S
O394 Tb388 2.288 1_455 S
O394 C400 1.257 . S
O395 Tb387 2.301 . S
O395 C400 1.237 . S
C396 C380 1.497 . S
C396 Tb387 2.808 . S
C396 O391 1.248 . S
C396 O393 1.260 . S
C397 O398 1.255 . S
C397 O401 1.255 . S
O398 C397 1.255 . S
C399 O386 1.257 . S
C399 O390 1.259 . S
C400 O394 1.257 . S
C400 O395 1.237 . S
O401 Tb388 2.303 1_455 S
O401 C397 1.255 . S
C402 C392 1.497 . S
C402 C404 1.384 . S
C402 C405 1.386 . S
C403 C404 1.402 . S
C403 C407 1.392 . S
C404 C402 1.384 . S
C404 C403 1.402 . S
C404 H415 0.930 . S
C405 C402 1.386 . S
C405 C406 1.393 . S
C405 H416 0.932 . S
C406 C405 1.393 . S
C406 C407 1.387 . S
C407 C403 1.392 . S
C407 C406 1.387 . S
C407 H417 0.930 . S
C408 O389 1.255 1_655 S
C408 O409 1.255 . S
O409 C408 1.255 . S
O410 Tb388 2.430 . S
O410 C392 1.248 . S
O411 Tb388 2.459 . S
O411 C392 1.260 . S
H412 C381 0.932 . S
H413 C383 0.930 . S
H414 C385 0.930 . S
H415 C404 0.930 . S
H416 C405 0.932 . S
H417 C407 0.930 . S
C418 C419 1.386 . S
C418 C423 1.384 . S
C418 C434 1.497 . S
C419 C418 1.386 . S
C419 C420 1.393 . S
C419 H450 0.932 . S
C420 C419 1.393 . S
C420 C421 1.387 . S
C421 C420 1.387 . S
C421 C422 1.392 . S
C421 H451 0.930 . S
C422 C421 1.392 . S
C422 C423 1.402 . S
C423 C418 1.384 . S
C423 C422 1.402 . S
C423 H452 0.930 . S
O424 Tb425 2.288 . S
O424 C437 1.257 . S
Tb425 O424 2.288 . S
Tb425 O427 2.303 . S
Tb425 O429 2.430 . S
Tb425 O431 2.459 . S
Tb425 O433 2.301 . S
Tb425 C434 2.808 . S
Tb426 O428 2.301 . S
Tb426 C430 2.808 . S
Tb426 O432 2.288 . S
Tb426 O439 2.303 . S
Tb426 O448 2.430 . S
Tb426 O449 2.459 . S
O427 Tb425 2.303 . S
O427 C446 1.255 . S
O428 Tb426 2.301 . S
O428 C437 1.237 . S
O429 Tb425 2.430 . S
O429 C434 1.248 . S
C430 Tb426 2.808 . S
C430 C440 1.497 . S
C430 O448 1.248 . S
C430 O449 1.260 . S
O431 Tb425 2.459 . S
O431 C434 1.260 . S
O432 Tb426 2.288 . S
O432 C438 1.257 . S
O433 Tb425 2.301 . S
O433 C438 1.237 . S
C434 C418 1.497 . S
C434 Tb425 2.808 . S
C434 O429 1.248 . S
C434 O431 1.260 . S
C435 O436 1.255 . S
C435 O439 1.255 . S
O436 C435 1.255 . S
C437 O424 1.257 . S
C437 O428 1.237 . S
C438 O432 1.257 . S
C438 O433 1.237 . S
O439 Tb426 2.303 . S
O439 C435 1.255 . S
C440 C430 1.497 . S
C440 C442 1.384 . S
C440 C443 1.386 . S
C441 C442 1.402 . S
C441 C445 1.392 . S
C442 C440 1.384 . S
C442 C441 1.402 . S
C442 H453 0.930 . S
C443 C440 1.386 . S
C443 C444 1.393 . S
C443 H454 0.932 . S
C444 C443 1.393 . S
C444 C445 1.387 . S
C445 C441 1.392 . S
C445 C444 1.387 . S
C445 H455 0.930 . S
C446 O427 1.255 . S
C446 O447 1.255 . S
O447 C446 1.255 . S
O448 Tb426 2.430 . S
O448 C430 1.248 . S
O449 Tb426 2.459 . S
O449 C430 1.260 . S
H450 C419 0.932 . S
H451 C421 0.930 . S
H452 C423 0.930 . S
H453 C442 0.930 . S
H454 C443 0.932 . S
H455 C445 0.930 . S
C456 C457 1.386 . S
C456 C461 1.384 . S
C456 C472 1.497 . S
C457 C456 1.386 . S
C457 C458 1.393 . S
C457 H488 0.932 . S
C458 C457 1.393 . S
C458 C459 1.387 . S
C459 C458 1.387 . S
C459 C460 1.392 . S
C459 H489 0.930 . S
C460 C459 1.392 . S
C460 C461 1.402 . S
C461 C456 1.384 . S
C461 C460 1.402 . S
C461 H490 0.930 . S
O462 Tb463 2.288 1_655 S
O462 C475 1.257 . S
Tb463 O462 2.288 1_455 S
Tb463 O465 2.303 1_455 S
Tb463 O467 2.430 . S
Tb463 O469 2.459 . S
Tb463 O471 2.294 1_455 S
Tb463 C472 2.808 . S
Tb464 O466 2.301 . S
Tb464 C468 2.808 . S
Tb464 O470 2.288 . S
Tb464 O477 2.303 . S
Tb464 O486 2.430 . S
Tb464 O487 2.459 . S
O465 Tb463 2.303 1_655 S
O465 C484 1.255 . S
O466 Tb464 2.301 . S
O466 C475 1.237 . S
O467 Tb463 2.430 . S
O467 C472 1.248 . S
C468 Tb464 2.808 . S
C468 C478 1.497 . S
C468 O486 1.248 . S
C468 O487 1.260 . S
O469 Tb463 2.459 . S
O469 C472 1.260 . S
O470 Tb464 2.288 . S
O470 C476 1.257 . S
O471 Tb463 2.294 1_655 S
O471 C476 1.258 . S
C472 C456 1.497 . S
C472 Tb463 2.808 . S
C472 O467 1.248 . S
C472 O469 1.260 . S
C473 O474 1.255 . S
C473 O477 1.255 1_455 S
O474 C473 1.255 . S
C475 O462 1.257 . S
C475 O466 1.237 . S
C476 O470 1.257 . S
C476 O471 1.258 . S
O477 Tb464 2.303 . S
O477 C473 1.255 1_655 S
C478 C468 1.497 . S
C478 C480 1.384 . S
C478 C481 1.386 . S
C479 C480 1.402 . S
C479 C483 1.392 . S
C480 C478 1.384 . S
C480 C479 1.402 . S
C480 H491 0.930 . S
C481 C478 1.386 . S
C481 C482 1.393 . S
C481 H492 0.932 . S
C482 C481 1.393 . S
C482 C483 1.387 . S
C483 C479 1.392 . S
C483 C482 1.387 . S
C483 H493 0.930 . S
C484 O465 1.255 . S
C484 O485 1.255 . S
O485 C484 1.255 . S
O486 Tb464 2.430 . S
O486 C468 1.248 . S
O487 Tb464 2.459 . S
O487 C468 1.260 . S
H488 C457 0.932 . S
H489 C459 0.930 . S
H490 C461 0.930 . S
H491 C480 0.930 . S
H492 C481 0.932 . S
H493 C483 0.930 . S
C494 C495 1.386 . S
C494 C499 1.384 . S
C494 C510 1.497 . S
C495 C494 1.386 . S
C495 C496 1.393 . S
C495 H526 0.932 . S
C496 C495 1.393 . S
C496 C497 1.387 . S
C497 C496 1.387 . S
C497 C498 1.392 . S
C497 H527 0.930 . S
C498 C497 1.392 . S
C498 C499 1.402 . S
C499 C494 1.384 . S
C499 C498 1.402 . S
C499 H528 0.930 . S
O500 Tb501 2.288 . S
O500 C513 1.257 . S
Tb501 O500 2.288 . S
Tb501 O503 2.303 . S
Tb501 O505 2.430 . S
Tb501 O507 2.459 . S
Tb501 O509 2.301 . S
Tb501 C510 2.808 . S
Tb502 O504 2.301 . S
Tb502 C506 2.808 . S
Tb502 O508 2.288 . S
Tb502 O515 2.303 . S
Tb502 O524 2.430 . S
Tb502 O525 2.459 . S
O503 Tb501 2.303 . S
O503 C522 1.255 . S
O504 Tb502 2.301 . S
O504 C513 1.237 . S
O505 Tb501 2.430 . S
O505 C510 1.248 . S
C506 Tb502 2.808 . S
C506 C516 1.497 . S
C506 O524 1.248 . S
C506 O525 1.260 . S
O507 Tb501 2.459 . S
O507 C510 1.260 . S
O508 Tb502 2.288 . S
O508 C514 1.257 . S
O509 Tb501 2.301 . S
O509 C514 1.237 . S
C510 C494 1.497 . S
C510 Tb501 2.808 . S
C510 O505 1.248 . S
C510 O507 1.260 . S
C511 O512 1.255 . S
C511 O515 1.255 . S
O512 C511 1.255 . S
C513 O500 1.257 . S
C513 O504 1.237 . S
C514 O508 1.257 . S
C514 O509 1.237 . S
O515 Tb502 2.303 . S
O515 C511 1.255 . S
C516 C506 1.497 . S
C516 C518 1.384 . S
C516 C519 1.386 . S
C517 C518 1.402 . S
C517 C521 1.392 . S
C518 C516 1.384 . S
C518 C517 1.402 . S
C518 H529 0.930 . S
C519 C516 1.386 . S
C519 C520 1.393 . S
C519 H530 0.932 . S
C520 C519 1.393 . S
C520 C521 1.387 . S
C521 C517 1.392 . S
C521 C520 1.387 . S
C521 H531 0.930 . S
C522 O503 1.255 . S
C522 O523 1.255 . S
O523 C522 1.255 . S
O524 Tb502 2.430 . S
O524 C506 1.248 . S
O525 Tb502 2.459 . S
O525 C506 1.260 . S
H526 C495 0.932 . S
H527 C497 0.930 . S
H528 C499 0.930 . S
H529 C518 0.930 . S
H530 C519 0.932 . S
H531 C521 0.930 . S
C532 C533 1.386 . S
C532 C537 1.384 . S
C532 C548 1.497 . S
C533 C532 1.386 . S
C533 C534 1.393 . S
C533 H564 0.932 . S
C534 C533 1.393 . S
C534 C535 1.387 . S
C535 C534 1.387 . S
C535 C536 1.392 . S
C535 H565 0.930 . S
C536 C535 1.392 . S
C536 C537 1.402 . S
C537 C532 1.384 . S
C537 C536 1.402 . S
C537 H566 0.930 . S
O538 Tb539 2.288 1_655 S
O538 C551 1.257 . S
Tb539 O538 2.288 1_455 S
Tb539 O541 2.303 1_455 S
Tb539 O543 2.430 . S
Tb539 O545 2.459 . S
Tb539 O547 2.294 1_455 S
Tb539 C548 2.808 . S
Tb540 O542 2.301 . S
Tb540 C544 2.808 . S
Tb540 O546 2.288 . S
Tb540 O553 2.303 . S
Tb540 O562 2.430 . S
Tb540 O563 2.459 . S
O541 Tb539 2.303 1_655 S
O541 C560 1.255 . S
O542 Tb540 2.301 . S
O542 C551 1.237 . S
O543 Tb539 2.430 . S
O543 C548 1.248 . S
C544 Tb540 2.808 . S
C544 C554 1.497 . S
C544 O562 1.248 . S
C544 O563 1.260 . S
O545 Tb539 2.459 . S
O545 C548 1.260 . S
O546 Tb540 2.288 . S
O546 C552 1.257 . S
O547 Tb539 2.294 1_655 S
O547 C552 1.259 . S
C548 C532 1.497 . S
C548 Tb539 2.808 . S
C548 O543 1.248 . S
C548 O545 1.260 . S
C549 O550 1.255 . S
C549 O553 1.255 1_455 S
O550 C549 1.255 . S
C551 O538 1.257 . S
C551 O542 1.237 . S
C552 O546 1.257 . S
C552 O547 1.259 . S
O553 Tb540 2.303 . S
O553 C549 1.255 1_655 S
C554 C544 1.497 . S
C554 C556 1.384 . S
C554 C557 1.386 . S
C555 C556 1.402 . S
C555 C559 1.392 . S
C556 C554 1.384 . S
C556 C555 1.402 . S
C556 H567 0.930 . S
C557 C554 1.386 . S
C557 C558 1.393 . S
C557 H568 0.932 . S
C558 C557 1.393 . S
C558 C559 1.387 . S
C559 C555 1.392 . S
C559 C558 1.387 . S
C559 H569 0.930 . S
C560 O541 1.255 . S
C560 O561 1.255 . S
O561 C560 1.255 . S
O562 Tb540 2.430 . S
O562 C544 1.248 . S
O563 Tb540 2.459 . S
O563 C544 1.260 . S
H564 C533 0.932 . S
H565 C535 0.930 . S
H566 C537 0.930 . S
H567 C556 0.930 . S
H568 C557 0.932 . S
H569 C559 0.930 . S
C570 C571 1.386 . S
C570 C575 1.384 . S
C570 C586 1.497 . S
C571 C570 1.386 . S
C571 C572 1.393 . S
C571 H602 0.932 . S
C572 C571 1.393 . S
C572 C573 1.387 . S
C573 C572 1.387 . S
C573 C574 1.392 . S
C573 H603 0.930 . S
C574 C573 1.392 . S
C574 C575 1.402 . S
C575 C570 1.384 . S
C575 C574 1.402 . S
C575 H604 0.930 . S
O576 Tb577 2.288 . S
O576 C589 1.257 . S
Tb577 O576 2.288 . S
Tb577 O579 2.303 . S
Tb577 O581 2.430 . S
Tb577 O583 2.459 . S
Tb577 O585 2.301 . S
Tb577 C586 2.808 . S
Tb578 O580 2.301 . S
Tb578 C582 2.808 . S
Tb578 O584 2.288 . S
Tb578 O591 2.303 . S
Tb578 O600 2.430 . S
Tb578 O601 2.459 . S
O579 Tb577 2.303 . S
O579 C598 1.255 . S
O580 Tb578 2.301 . S
O580 C589 1.237 . S
O581 Tb577 2.430 . S
O581 C586 1.248 . S
C582 Tb578 2.808 . S
C582 C592 1.497 . S
C582 O600 1.248 . S
C582 O601 1.260 . S
O583 Tb577 2.459 . S
O583 C586 1.260 . S
O584 Tb578 2.288 . S
O584 C590 1.257 . S
O585 Tb577 2.301 . S
O585 C590 1.237 . S
C586 C570 1.497 . S
C586 Tb577 2.808 . S
C586 O581 1.248 . S
C586 O583 1.260 . S
C587 O588 1.255 . S
C587 O591 1.255 . S
O588 C587 1.255 . S
C589 O576 1.257 . S
C589 O580 1.237 . S
C590 O584 1.257 . S
C590 O585 1.237 . S
O591 Tb578 2.303 . S
O591 C587 1.255 . S
C592 C582 1.497 . S
C592 C594 1.384 . S
C592 C595 1.386 . S
C593 C594 1.402 . S
C593 C597 1.392 . S
C594 C592 1.384 . S
C594 C593 1.402 . S
C594 H605 0.930 . S
C595 C592 1.386 . S
C595 C596 1.393 . S
C595 H606 0.932 . S
C596 C595 1.393 . S
C596 C597 1.387 . S
C597 C593 1.392 . S
C597 C596 1.387 . S
C597 H607 0.930 . S
C598 O579 1.255 . S
C598 O599 1.255 . S
O599 C598 1.255 . S
O600 Tb578 2.430 . S
O600 C582 1.248 . S
O601 Tb578 2.459 . S
O601 C582 1.260 . S
H602 C571 0.932 . S
H603 C573 0.930 . S
H604 C575 0.930 . S
H605 C594 0.930 . S
H606 C595 0.932 . S
H607 C597 0.930 . S
C608 C609 1.386 . S
C608 C613 1.384 . S
C608 C624 1.497 . S
C609 C608 1.386 . S
C609 C610 1.393 . S
C609 H640 0.932 . S
C610 C609 1.393 . S
C610 C611 1.387 . S
C611 C610 1.387 . S
C611 C612 1.392 . S
C611 H641 0.930 . S
C612 C611 1.392 . S
C612 C613 1.402 . S
C613 C608 1.384 . S
C613 C612 1.402 . S
C613 H642 0.930 . S
O614 Tb615 2.288 . S
O614 C627 1.257 . S
Tb615 O614 2.288 . S
Tb615 O617 2.303 . S
Tb615 O619 2.430 . S
Tb615 O621 2.459 . S
Tb615 O623 2.301 . S
Tb615 C624 2.808 . S
Tb616 O618 2.301 . S
Tb616 C620 2.808 . S
Tb616 O622 2.288 . S
Tb616 O629 2.303 . S
Tb616 O638 2.430 . S
Tb616 O639 2.459 . S
O617 Tb615 2.303 . S
O617 C636 1.255 . S
O618 Tb616 2.301 . S
O618 C627 1.237 . S
O619 Tb615 2.430 . S
O619 C624 1.248 . S
C620 Tb616 2.808 . S
C620 C630 1.497 . S
C620 O638 1.248 . S
C620 O639 1.260 . S
O621 Tb615 2.459 . S
O621 C624 1.260 . S
O622 Tb616 2.288 . S
O622 C628 1.257 . S
O623 Tb615 2.301 . S
O623 C628 1.237 . S
C624 C608 1.497 . S
C624 Tb615 2.808 . S
C624 O619 1.248 . S
C624 O621 1.260 . S
C625 O626 1.255 . S
C625 O629 1.255 . S
O626 C625 1.255 . S
C627 O614 1.257 . S
C627 O618 1.237 . S
C628 O622 1.257 . S
C628 O623 1.237 . S
O629 Tb616 2.303 . S
O629 C625 1.255 . S
C630 C620 1.497 . S
C630 C632 1.384 . S
C630 C633 1.386 . S
C631 C632 1.402 . S
C631 C635 1.392 . S
C632 C630 1.384 . S
C632 C631 1.402 . S
C632 H643 0.930 . S
C633 C630 1.386 . S
C633 C634 1.393 . S
C633 H644 0.932 . S
C634 C633 1.393 . S
C634 C635 1.387 . S
C635 C631 1.392 . S
C635 C634 1.387 . S
C635 H645 0.930 . S
C636 O617 1.255 . S
C636 O637 1.255 . S
O637 C636 1.255 . S
O638 Tb616 2.430 . S
O638 C620 1.248 . S
O639 Tb616 2.459 . S
O639 C620 1.260 . S
H640 C609 0.932 . S
H641 C611 0.930 . S
H642 C613 0.930 . S
H643 C632 0.930 . S
H644 C633 0.932 . S
H645 C635 0.930 . S
C646 C647 1.386 . S
C646 C651 1.384 . S
C646 C662 1.497 . S
C647 C646 1.386 . S
C647 C648 1.393 . S
C647 H678 0.932 . S
C648 C647 1.393 . S
C648 C649 1.387 . S
C649 C648 1.387 . S
C649 C650 1.392 . S
C649 H679 0.930 . S
C650 C649 1.392 . S
C650 C651 1.402 . S
C651 C646 1.384 . S
C651 C650 1.402 . S
C651 H680 0.930 . S
O652 Tb653 2.288 . S
O652 C665 1.257 . S
Tb653 O652 2.288 . S
Tb653 O655 2.303 . S
Tb653 O657 2.430 . S
Tb653 O659 2.459 . S
Tb653 O661 2.301 . S
Tb653 C662 2.808 . S
Tb654 O656 2.301 . S
Tb654 C658 2.808 . S
Tb654 O660 2.288 . S
Tb654 O667 2.303 1_565 S
Tb654 O676 2.430 . S
Tb654 O677 2.459 . S
O655 Tb653 2.303 . S
O655 C674 1.255 . S
O656 Tb654 2.301 . S
O656 C665 1.237 . S
O657 Tb653 2.430 . S
O657 C662 1.248 . S
C658 Tb654 2.808 . S
C658 C668 1.497 . S
C658 O676 1.248 . S
C658 O677 1.260 . S
O659 Tb653 2.459 . S
O659 C662 1.260 . S
O660 Tb654 2.288 . S
O660 C666 1.257 . S
O661 Tb653 2.301 . S
O661 C666 1.237 . S
C662 C646 1.497 . S
C662 Tb653 2.808 . S
C662 O657 1.248 . S
C662 O659 1.260 . S
C663 O664 1.255 . S
C663 O667 1.255 . S
O664 C663 1.255 . S
C665 O652 1.257 . S
C665 O656 1.237 . S
C666 O660 1.257 . S
C666 O661 1.237 . S
O667 Tb654 2.303 1_545 S
O667 C663 1.255 . S
C668 C658 1.497 . S
C668 C670 1.384 . S
C668 C671 1.386 . S
C669 C670 1.402 . S
C669 C673 1.392 . S
C670 C668 1.384 . S
C670 C669 1.402 . S
C670 H681 0.930 . S
C671 C668 1.386 . S
C671 C672 1.393 . S
C671 H682 0.932 1_565 S
C672 C671 1.393 . S
C672 C673 1.387 . S
C673 C669 1.392 . S
C673 C672 1.387 . S
C673 H683 0.930 . S
C674 O655 1.255 . S
C674 O675 1.255 . S
O675 C674 1.255 . S
O676 Tb654 2.430 . S
O676 C658 1.248 . S
O677 Tb654 2.459 . S
O677 C658 1.260 . S
H678 C647 0.932 . S
H679 C649 0.930 . S
H680 C651 0.930 . S
H681 C670 0.930 . S
H682 C671 0.932 1_545 S
H683 C673 0.930 . S
C684 C685 1.386 . S
C684 C689 1.384 . S
C684 C700 1.497 . S
C685 C684 1.386 . S
C685 C686 1.393 . S
C685 H716 0.932 . S
C686 C685 1.393 . S
C686 C687 1.387 . S
C687 C686 1.387 . S
C687 C688 1.392 . S
C687 H717 0.930 . S
C688 C687 1.392 . S
C688 C689 1.402 . S
C689 C684 1.384 . S
C689 C688 1.402 . S
C689 H718 0.930 . S
O690 Tb691 2.288 . S
O690 C703 1.257 . S
Tb691 O690 2.288 . S
Tb691 O693 2.303 . S
Tb691 O695 2.430 . S
Tb691 O697 2.459 . S
Tb691 O699 2.301 . S
Tb691 C700 2.808 . S
Tb692 O694 2.301 . S
Tb692 C696 2.808 . S
Tb692 O698 2.288 . S
Tb692 O705 2.303 1_565 S
Tb692 O714 2.430 . S
Tb692 O715 2.459 . S
O693 Tb691 2.303 . S
O693 C712 1.255 . S
O694 Tb692 2.301 . S
O694 C703 1.237 . S
O695 Tb691 2.430 . S
O695 C700 1.248 . S
C696 Tb692 2.808 . S
C696 C706 1.497 . S
C696 O714 1.248 . S
C696 O715 1.260 . S
O697 Tb691 2.459 . S
O697 C700 1.260 . S
O698 Tb692 2.288 . S
O698 C704 1.257 . S
O699 Tb691 2.301 . S
O699 C704 1.237 . S
C700 C684 1.497 . S
C700 Tb691 2.808 . S
C700 O695 1.248 . S
C700 O697 1.260 . S
C701 O702 1.255 . S
C701 O705 1.255 . S
O702 C701 1.255 . S
C703 O690 1.257 . S
C703 O694 1.237 . S
C704 O698 1.257 . S
C704 O699 1.237 . S
O705 Tb692 2.303 1_545 S
O705 C701 1.255 . S
C706 C696 1.497 . S
C706 C708 1.384 . S
C706 C709 1.386 . S
C707 C708 1.402 . S
C707 C711 1.392 . S
C708 C706 1.384 . S
C708 C707 1.402 . S
C708 H719 0.930 . S
C709 C706 1.386 . S
C709 C710 1.393 . S
C709 H720 0.932 1_565 S
C710 C709 1.393 . S
C710 C711 1.387 . S
C711 C707 1.392 . S
C711 C710 1.387 . S
C711 H721 0.930 . S
C712 O693 1.255 . S
C712 O713 1.255 . S
O713 C712 1.255 . S
O714 Tb692 2.430 . S
O714 C696 1.248 . S
O715 Tb692 2.459 . S
O715 C696 1.260 . S
H716 C685 0.932 . S
H717 C687 0.930 . S
H718 C689 0.930 . S
H719 C708 0.930 . S
H720 C709 0.932 1_545 S
H721 C711 0.930 . S
C722 C723 1.386 . S
C722 C727 1.384 . S
C722 C738 1.497 . S
C723 C722 1.386 . S
C723 C724 1.393 . S
C723 H754 0.932 . S
C724 C723 1.393 . S
C724 C725 1.387 . S
C725 C724 1.387 . S
C725 C726 1.392 . S
C725 H755 0.930 . S
C726 C725 1.392 . S
C726 C727 1.402 . S
C727 C722 1.384 . S
C727 C726 1.402 . S
C727 H756 0.930 . S
O728 Tb729 2.288 . S
O728 C741 1.257 . S
Tb729 O728 2.288 . S
Tb729 O731 2.303 . S
Tb729 O733 2.430 . S
Tb729 O735 2.459 . S
Tb729 O737 2.301 . S
Tb729 C738 2.808 . S
Tb730 O732 2.301 . S
Tb730 C734 2.808 . S
Tb730 O736 2.288 . S
Tb730 O743 2.303 . S
Tb730 O752 2.430 . S
Tb730 O753 2.459 . S
O731 Tb729 2.303 . S
O731 C750 1.255 . S
O732 Tb730 2.301 . S
O732 C741 1.237 . S
O733 Tb729 2.430 . S
O733 C738 1.248 . S
C734 Tb730 2.808 . S
C734 C744 1.497 . S
C734 O752 1.248 . S
C734 O753 1.260 . S
O735 Tb729 2.459 . S
O735 C738 1.260 . S
O736 Tb730 2.288 . S
O736 C742 1.257 . S
O737 Tb729 2.301 . S
O737 C742 1.237 . S
C738 C722 1.497 . S
C738 Tb729 2.808 . S
C738 O733 1.248 . S
C738 O735 1.260 . S
C739 O740 1.255 . S
C739 O743 1.255 . S
O740 C739 1.255 . S
C741 O728 1.257 . S
C741 O732 1.237 . S
C742 O736 1.257 . S
C742 O737 1.237 . S
O743 Tb730 2.303 . S
O743 C739 1.255 . S
C744 C734 1.497 . S
C744 C746 1.384 . S
C744 C747 1.386 . S
C745 C746 1.402 . S
C745 C749 1.392 . S
C746 C744 1.384 . S
C746 C745 1.402 . S
C746 H757 0.930 . S
C747 C744 1.386 . S
C747 C748 1.393 . S
C747 H758 0.932 . S
C748 C747 1.393 . S
C748 C749 1.387 . S
C749 C745 1.392 . S
C749 C748 1.387 . S
C749 H759 0.930 . S
C750 O731 1.255 . S
C750 O751 1.255 . S
O751 C750 1.255 . S
O752 Tb730 2.430 . S
O752 C734 1.248 . S
O753 Tb730 2.459 . S
O753 C734 1.260 . S
H754 C723 0.932 . S
H755 C725 0.930 . S
H756 C727 0.930 . S
H757 C746 0.930 . S
H758 C747 0.932 . S
H759 C749 0.930 . S
C760 C761 1.386 . S
C760 C765 1.384 . S
C760 C776 1.497 . S
C761 C760 1.386 . S
C761 C762 1.393 . S
C761 H792 0.932 . S
C762 C761 1.393 . S
C762 C763 1.387 . S
C763 C762 1.387 . S
C763 C764 1.392 . S
C763 H793 0.930 . S
C764 C763 1.392 . S
C764 C765 1.402 . S
C765 C760 1.384 . S
C765 C764 1.402 . S
C765 H794 0.930 . S
O766 Tb767 2.288 . S
O766 C779 1.257 . S
Tb767 O766 2.288 . S
Tb767 O769 2.303 . S
Tb767 O771 2.430 . S
Tb767 O773 2.459 . S
Tb767 O775 2.301 . S
Tb767 C776 2.808 . S
Tb768 O770 2.301 . S
Tb768 C772 2.808 . S
Tb768 O774 2.288 . S
Tb768 O781 2.303 . S
Tb768 O790 2.430 . S
Tb768 O791 2.459 . S
O769 Tb767 2.303 . S
O769 C788 1.255 . S
O770 Tb768 2.301 . S
O770 C779 1.237 . S
O771 Tb767 2.430 . S
O771 C776 1.248 . S
C772 Tb768 2.808 . S
C772 C782 1.497 . S
C772 O790 1.248 . S
C772 O791 1.260 . S
O773 Tb767 2.459 . S
O773 C776 1.260 . S
O774 Tb768 2.288 . S
O774 C780 1.257 . S
O775 Tb767 2.301 . S
O775 C780 1.237 . S
C776 C760 1.497 . S
C776 Tb767 2.808 . S
C776 O771 1.248 . S
C776 O773 1.260 . S
C777 O778 1.255 . S
C777 O781 1.255 . S
O778 C777 1.255 . S
C779 O766 1.257 . S
C779 O770 1.237 . S
C780 O774 1.257 . S
C780 O775 1.237 . S
O781 Tb768 2.303 . S
O781 C777 1.255 . S
C782 C772 1.497 . S
C782 C784 1.384 . S
C782 C785 1.386 . S
C783 C784 1.402 . S
C783 C787 1.392 . S
C784 C782 1.384 . S
C784 C783 1.402 . S
C784 H795 0.930 . S
C785 C782 1.386 . S
C785 C786 1.393 . S
C785 H796 0.932 . S
C786 C785 1.393 . S
C786 C787 1.387 . S
C787 C783 1.392 . S
C787 C786 1.387 . S
C787 H797 0.930 . S
C788 O769 1.255 . S
C788 O789 1.255 . S
O789 C788 1.255 . S
O790 Tb768 2.430 . S
O790 C772 1.248 . S
O791 Tb768 2.459 . S
O791 C772 1.260 . S
H792 C761 0.932 . S
H793 C763 0.930 . S
H794 C765 0.930 . S
H795 C784 0.930 . S
H796 C785 0.932 . S
H797 C787 0.930 . S
C798 C799 1.386 . S
C798 C803 1.384 . S
C798 C814 1.497 . S
C799 C798 1.386 . S
C799 C800 1.393 . S
C799 H830 0.932 1_545 S
C800 C799 1.393 . S
C800 C801 1.387 . S
C801 C800 1.387 . S
C801 C802 1.392 . S
C801 H831 0.930 . S
C802 C801 1.392 . S
C802 C803 1.402 . S
C803 C798 1.384 . S
C803 C802 1.402 . S
C803 H832 0.930 . S
O804 Tb805 2.288 . S
O804 C817 1.257 . S
Tb805 O804 2.288 . S
Tb805 O807 2.303 1_545 S
Tb805 O809 2.430 . S
Tb805 O811 2.459 . S
Tb805 O813 2.301 . S
Tb805 C814 2.808 . S
Tb806 O808 2.301 . S
Tb806 C810 2.808 . S
Tb806 O812 2.288 . S
Tb806 O819 2.303 . S
Tb806 O828 2.430 . S
Tb806 O829 2.459 . S
O807 Tb805 2.303 1_565 S
O807 C826 1.255 . S
O808 Tb806 2.301 . S
O808 C817 1.237 . S
O809 Tb805 2.430 . S
O809 C814 1.248 . S
C810 Tb806 2.808 . S
C810 C820 1.497 . S
C810 O828 1.248 . S
C810 O829 1.260 . S
O811 Tb805 2.459 . S
O811 C814 1.260 . S
O812 Tb806 2.288 . S
O812 C818 1.257 . S
O813 Tb805 2.301 . S
O813 C818 1.237 . S
C814 C798 1.497 . S
C814 Tb805 2.808 . S
C814 O809 1.248 . S
C814 O811 1.260 . S
C815 O816 1.255 . S
C815 O819 1.255 . S
O816 C815 1.255 . S
C817 O804 1.257 . S
C817 O808 1.237 . S
C818 O812 1.257 . S
C818 O813 1.237 . S
O819 Tb806 2.303 . S
O819 C815 1.255 . S
C820 C810 1.497 . S
C820 C822 1.384 . S
C820 C823 1.386 . S
C821 C822 1.402 . S
C821 C825 1.392 . S
C822 C820 1.384 . S
C822 C821 1.402 . S
C822 H833 0.930 . S
C823 C820 1.386 . S
C823 C824 1.393 . S
C823 H834 0.932 . S
C824 C823 1.393 . S
C824 C825 1.387 . S
C825 C821 1.392 . S
C825 C824 1.387 . S
C825 H835 0.930 . S
C826 O807 1.255 . S
C826 O827 1.255 . S
O827 C826 1.255 . S
O828 Tb806 2.430 . S
O828 C810 1.248 . S
O829 Tb806 2.459 . S
O829 C810 1.260 . S
H830 C799 0.932 1_565 S
H831 C801 0.930 . S
H832 C803 0.930 . S
H833 C822 0.930 . S
H834 C823 0.932 . S
H835 C825 0.930 . S
C836 C837 1.386 . S
C836 C841 1.384 . S
C836 C852 1.497 . S
C837 C836 1.386 . S
C837 C838 1.393 . S
C837 H868 0.932 1_545 S
C838 C837 1.393 . S
C838 C839 1.387 . S
C839 C838 1.387 . S
C839 C840 1.392 . S
C839 H869 0.930 . S
C840 C839 1.392 . S
C840 C841 1.402 . S
C841 C836 1.384 . S
C841 C840 1.402 . S
C841 H870 0.930 . S
O842 Tb843 2.288 . S
O842 C855 1.257 . S
Tb843 O842 2.288 . S
Tb843 O845 2.303 1_545 S
Tb843 O847 2.430 . S
Tb843 O849 2.459 . S
Tb843 O851 2.301 . S
Tb843 C852 2.808 . S
Tb844 O846 2.301 . S
Tb844 C848 2.808 . S
Tb844 O850 2.288 . S
Tb844 O857 2.303 . S
Tb844 O866 2.430 . S
Tb844 O867 2.459 . S
O845 Tb843 2.303 1_565 S
O845 C864 1.255 . S
O846 Tb844 2.301 . S
O846 C855 1.237 . S
O847 Tb843 2.430 . S
O847 C852 1.248 . S
C848 Tb844 2.808 . S
C848 C858 1.497 . S
C848 O866 1.248 . S
C848 O867 1.260 . S
O849 Tb843 2.459 . S
O849 C852 1.260 . S
O850 Tb844 2.288 . S
O850 C856 1.257 . S
O851 Tb843 2.301 . S
O851 C856 1.237 . S
C852 C836 1.497 . S
C852 Tb843 2.808 . S
C852 O847 1.248 . S
C852 O849 1.260 . S
C853 O854 1.255 . S
C853 O857 1.255 . S
O854 C853 1.255 . S
C855 O842 1.257 . S
C855 O846 1.237 . S
C856 O850 1.257 . S
C856 O851 1.237 . S
O857 Tb844 2.303 . S
O857 C853 1.255 . S
C858 C848 1.497 . S
C858 C860 1.384 . S
C858 C861 1.386 . S
C859 C860 1.402 . S
C859 C863 1.392 . S
C860 C858 1.384 . S
C860 C859 1.402 . S
C860 H871 0.930 . S
C861 C858 1.386 . S
C861 C862 1.393 . S
C861 H872 0.932 . S
C862 C861 1.393 . S
C862 C863 1.387 . S
C863 C859 1.392 . S
C863 C862 1.387 . S
C863 H873 0.930 . S
C864 O845 1.255 . S
C864 O865 1.255 . S
O865 C864 1.255 . S
O866 Tb844 2.430 . S
O866 C848 1.248 . S
O867 Tb844 2.459 . S
O867 C848 1.260 . S
H868 C837 0.932 1_565 S
H869 C839 0.930 . S
H870 C841 0.930 . S
H871 C860 0.930 . S
H872 C861 0.932 . S
H873 C863 0.930 . S
C874 C875 1.386 . S
C874 C879 1.384 . S
C874 C890 1.497 . S
C875 C874 1.386 . S
C875 C876 1.393 . S
C875 H906 0.932 . S
C876 C875 1.393 . S
C876 C877 1.387 . S
C877 C876 1.387 . S
C877 C878 1.392 . S
C877 H907 0.930 . S
C878 C877 1.392 . S
C878 C879 1.402 . S
C879 C874 1.384 . S
C879 C878 1.402 . S
C879 H908 0.930 . S
O880 Tb881 2.288 . S
O880 C893 1.257 . S
Tb881 O880 2.288 . S
Tb881 O883 2.303 . S
Tb881 O885 2.430 . S
Tb881 O887 2.459 . S
Tb881 O889 2.301 . S
Tb881 C890 2.808 . S
Tb882 O884 2.301 . S
Tb882 C886 2.808 . S
Tb882 O888 2.288 . S
Tb882 O895 2.303 . S
Tb882 O904 2.430 . S
Tb882 O905 2.459 . S
O883 Tb881 2.303 . S
O883 C902 1.255 . S
O884 Tb882 2.301 . S
O884 C893 1.237 . S
O885 Tb881 2.430 . S
O885 C890 1.248 . S
C886 Tb882 2.808 . S
C886 C896 1.497 . S
C886 O904 1.248 . S
C886 O905 1.260 . S
O887 Tb881 2.459 . S
O887 C890 1.260 . S
O888 Tb882 2.288 . S
O888 C894 1.257 . S
O889 Tb881 2.301 . S
O889 C894 1.237 . S
C890 C874 1.497 . S
C890 Tb881 2.808 . S
C890 O885 1.248 . S
C890 O887 1.260 . S
C891 O892 1.255 . S
C891 O895 1.255 . S
O892 C891 1.255 . S
C893 O880 1.257 . S
C893 O884 1.237 . S
C894 O888 1.257 . S
C894 O889 1.237 . S
O895 Tb882 2.303 . S
O895 C891 1.255 . S
C896 C886 1.497 . S
C896 C898 1.384 . S
C896 C899 1.386 . S
C897 C898 1.402 . S
C897 C901 1.392 . S
C898 C896 1.384 . S
C898 C897 1.402 . S
C898 H909 0.930 . S
C899 C896 1.386 . S
C899 C900 1.393 . S
C899 H910 0.932 . S
C900 C899 1.393 . S
C900 C901 1.387 . S
C901 C897 1.392 . S
C901 C900 1.387 . S
C901 H911 0.930 . S
C902 O883 1.255 . S
C902 O903 1.255 . S
O903 C902 1.255 . S
O904 Tb882 2.430 . S
O904 C886 1.248 . S
O905 Tb882 2.459 . S
O905 C886 1.260 . S
H906 C875 0.932 . S
H907 C877 0.930 . S
H908 C879 0.930 . S
H909 C898 0.930 . S
H910 C899 0.932 . S
H911 C901 0.930 . S
C912 C913 1.386 . S
C912 C917 1.384 . S
C912 C928 1.497 . S
C913 C912 1.386 . S
C913 C914 1.393 . S
C913 H944 0.932 . S
C914 C913 1.393 . S
C914 C915 1.387 . S
C915 C914 1.387 . S
C915 C916 1.392 . S
C915 H945 0.930 . S
C916 C915 1.392 . S
C916 C917 1.402 . S
C917 C912 1.384 . S
C917 C916 1.402 . S
C917 H946 0.930 . S
O918 Tb919 2.288 1_554 S
O918 C931 1.257 . S
Tb919 O918 2.288 1_556 S
Tb919 O921 2.303 . S
Tb919 O923 2.430 1_556 S
Tb919 O925 2.459 1_556 S
Tb919 O927 2.301 . S
Tb919 C928 2.808 1_556 S
Tb920 O922 2.301 . S
Tb920 C924 2.808 . S
Tb920 O926 2.288 . S
Tb920 O933 2.303 . S
Tb920 O942 2.430 . S
Tb920 O943 2.459 . S
O921 Tb919 2.303 . S
O921 C940 1.255 . S
O922 Tb920 2.301 . S
O922 C931 1.237 . S
O923 Tb919 2.430 1_554 S
O923 C928 1.248 . S
C924 Tb920 2.808 . S
C924 C934 1.497 . S
C924 O942 1.248 . S
C924 O943 1.260 . S
O925 Tb919 2.459 1_554 S
O925 C928 1.260 . S
O926 Tb920 2.288 . S
O926 C932 1.257 1_554 S
O927 Tb919 2.301 . S
O927 C932 1.237 . S
C928 C912 1.497 . S
C928 Tb919 2.808 1_554 S
C928 O923 1.248 . S
C928 O925 1.260 . S
C929 O930 1.255 . S
C929 O933 1.255 . S
O930 C929 1.255 . S
C931 O918 1.257 . S
C931 O922 1.237 . S
C932 O926 1.257 1_556 S
C932 O927 1.237 . S
O933 Tb920 2.303 . S
O933 C929 1.255 . S
C934 C924 1.497 . S
C934 C936 1.384 . S
C934 C937 1.386 . S
C935 C936 1.402 . S
C935 C939 1.392 . S
C936 C934 1.384 . S
C936 C935 1.402 . S
C936 H947 0.930 . S
C937 C934 1.386 . S
C937 C938 1.393 . S
C937 H948 0.932 . S
C938 C937 1.393 . S
C938 C939 1.387 . S
C939 C935 1.392 . S
C939 C938 1.387 . S
C939 H949 0.930 1_554 S
C940 O921 1.255 . S
C940 O941 1.255 . S
O941 C940 1.255 . S
O942 Tb920 2.430 . S
O942 C924 1.248 . S
O943 Tb920 2.459 . S
O943 C924 1.260 . S
H944 C913 0.932 . S
H945 C915 0.930 . S
H946 C917 0.930 . S
H947 C936 0.930 . S
H948 C937 0.932 . S
H949 C939 0.930 1_556 S
C950 C951 1.386 . S
C950 C955 1.384 . S
C950 C966 1.497 . S
C951 C950 1.386 . S
C951 C952 1.393 . S
C951 H982 0.932 . S
C952 C951 1.393 . S
C952 C953 1.387 . S
C953 C952 1.387 . S
C953 C954 1.392 . S
C953 H983 0.930 . S
C954 C953 1.392 . S
C954 C955 1.402 . S
C955 C950 1.384 . S
C955 C954 1.402 . S
C955 H984 0.930 . S
O956 Tb957 2.288 1_554 S
O956 C969 1.257 . S
Tb957 O956 2.288 1_556 S
Tb957 O959 2.303 . S
Tb957 O961 2.430 1_556 S
Tb957 O963 2.459 1_556 S
Tb957 O965 2.301 . S
Tb957 C966 2.808 1_556 S
Tb958 O960 2.301 . S
Tb958 C962 2.808 . S
Tb958 O964 2.288 . S
Tb958 O971 2.303 . S
Tb958 O980 2.430 . S
Tb958 O981 2.459 . S
O959 Tb957 2.303 . S
O959 C978 1.255 . S
O960 Tb958 2.301 . S
O960 C969 1.237 . S
O961 Tb957 2.430 1_554 S
O961 C966 1.248 . S
C962 Tb958 2.808 . S
C962 C972 1.497 . S
C962 O980 1.248 . S
C962 O981 1.260 . S
O963 Tb957 2.459 1_554 S
O963 C966 1.260 . S
O964 Tb958 2.288 . S
O964 C970 1.257 1_554 S
O965 Tb957 2.301 . S
O965 C970 1.237 . S
C966 C950 1.497 . S
C966 Tb957 2.808 1_554 S
C966 O961 1.248 . S
C966 O963 1.260 . S
C967 O968 1.255 . S
C967 O971 1.255 . S
O968 C967 1.255 . S
C969 O956 1.257 . S
C969 O960 1.237 . S
C970 O964 1.257 1_556 S
C970 O965 1.237 . S
O971 Tb958 2.303 . S
O971 C967 1.255 . S
C972 C962 1.497 . S
C972 C974 1.384 . S
C972 C975 1.386 . S
C973 C974 1.402 . S
C973 C977 1.392 . S
C974 C972 1.384 . S
C974 C973 1.402 . S
C974 H985 0.930 . S
C975 C972 1.386 . S
C975 C976 1.393 . S
C975 H986 0.932 . S
C976 C975 1.393 . S
C976 C977 1.387 . S
C977 C973 1.392 . S
C977 C976 1.387 . S
C977 H987 0.930 1_554 S
C978 O959 1.255 . S
C978 O979 1.255 . S
O979 C978 1.255 . S
O980 Tb958 2.430 . S
O980 C962 1.248 . S
O981 Tb958 2.459 . S
O981 C962 1.260 . S
H982 C951 0.932 . S
H983 C953 0.930 . S
H984 C955 0.930 . S
H985 C974 0.930 . S
H986 C975 0.932 . S
H987 C977 0.930 1_556 S
C988 C989 1.386 . S
C988 C993 1.384 . S
C988 C1004 1.497 . S
C989 C988 1.386 . S
C989 C990 1.393 . S
C989 H1020 0.932 . S
C990 C989 1.393 . S
C990 C991 1.387 . S
C991 C990 1.387 . S
C991 C992 1.392 . S
C991 H1021 0.930 . S
C992 C991 1.392 . S
C992 C993 1.402 . S
C993 C988 1.384 . S
C993 C992 1.402 . S
C993 H1022 0.930 . S
O994 Tb995 2.288 . S
O994 C1007 1.257 . S
Tb995 O994 2.288 . S
Tb995 O997 2.303 . S
Tb995 O999 2.430 . S
Tb995 O1001 2.459 . S
Tb995 O1003 2.301 . S
Tb995 C1004 2.808 . S
Tb996 O998 2.301 . S
Tb996 C1000 2.808 . S
Tb996 O1002 2.288 . S
Tb996 O1009 2.303 . S
Tb996 O1018 2.430 . S
Tb996 O1019 2.459 . S
O997 Tb995 2.303 . S
O997 C1016 1.255 . S
O998 Tb996 2.301 . S
O998 C1007 1.237 . S
O999 Tb995 2.430 . S
O999 C1004 1.248 . S
C1000 Tb996 2.808 . S
C1000 C1010 1.497 . S
C1000 O1018 1.248 . S
C1000 O1019 1.260 . S
O1001 Tb995 2.459 . S
O1001 C1004 1.260 . S
O1002 Tb996 2.288 . S
O1002 C1008 1.257 . S
O1003 Tb995 2.301 . S
O1003 C1008 1.237 . S
C1004 C988 1.497 . S
C1004 Tb995 2.808 . S
C1004 O999 1.248 . S
C1004 O1001 1.260 . S
C1005 O1006 1.255 . S
C1005 O1009 1.255 . S
O1006 C1005 1.255 . S
C1007 O994 1.257 . S
C1007 O998 1.237 . S
C1008 O1002 1.257 . S
C1008 O1003 1.237 . S
O1009 Tb996 2.303 . S
O1009 C1005 1.255 . S
C1010 C1000 1.497 . S
C1010 C1012 1.384 . S
C1010 C1013 1.386 . S
C1011 C1012 1.402 . S
C1011 C1015 1.392 . S
C1012 C1010 1.384 . S
C1012 C1011 1.402 . S
C1012 H1023 0.930 . S
C1013 C1010 1.386 . S
C1013 C1014 1.393 . S
C1013 H1024 0.932 . S
C1014 C1013 1.393 . S
C1014 C1015 1.387 . S
C1015 C1011 1.392 . S
C1015 C1014 1.387 . S
C1015 H1025 0.930 . S
C1016 O997 1.255 . S
C1016 O1017 1.255 . S
O1017 C1016 1.255 . S
O1018 Tb996 2.430 . S
O1018 C1000 1.248 . S
O1019 Tb996 2.459 . S
O1019 C1000 1.260 . S
H1020 C989 0.932 . S
H1021 C991 0.930 . S
H1022 C993 0.930 . S
H1023 C1012 0.930 . S
H1024 C1013 0.932 . S
H1025 C1015 0.930 . S
C1026 C1027 1.386 . S
C1026 C1031 1.384 . S
C1026 C1042 1.497 . S
C1027 C1026 1.386 . S
C1027 C1028 1.393 . S
C1027 H1058 0.932 . S
C1028 C1027 1.393 . S
C1028 C1029 1.387 . S
C1029 C1028 1.387 . S
C1029 C1030 1.392 . S
C1029 H1059 0.930 . S
C1030 C1029 1.392 . S
C1030 C1031 1.402 . S
C1031 C1026 1.384 . S
C1031 C1030 1.402 . S
C1031 H1060 0.930 . S
O1032 Tb1033 2.288 . S
O1032 C1045 1.257 . S
Tb1033 O1032 2.288 . S
Tb1033 O1035 2.303 . S
Tb1033 O1037 2.430 . S
Tb1033 O1039 2.459 . S
Tb1033 O1041 2.301 . S
Tb1033 C1042 2.808 . S
Tb1034 O1036 2.301 . S
Tb1034 C1038 2.808 . S
Tb1034 O1040 2.288 . S
Tb1034 O1047 2.303 . S
Tb1034 O1056 2.430 . S
Tb1034 O1057 2.459 . S
O1035 Tb1033 2.303 . S
O1035 C1054 1.255 . S
O1036 Tb1034 2.301 . S
O1036 C1045 1.237 . S
O1037 Tb1033 2.430 . S
O1037 C1042 1.248 . S
C1038 Tb1034 2.808 . S
C1038 C1048 1.497 . S
C1038 O1056 1.248 . S
C1038 O1057 1.260 . S
O1039 Tb1033 2.459 . S
O1039 C1042 1.260 . S
O1040 Tb1034 2.288 . S
O1040 C1046 1.257 . S
O1041 Tb1033 2.301 . S
O1041 C1046 1.237 . S
C1042 C1026 1.497 . S
C1042 Tb1033 2.808 . S
C1042 O1037 1.248 . S
C1042 O1039 1.260 . S
C1043 O1044 1.255 . S
C1043 O1047 1.255 . S
O1044 C1043 1.255 . S
C1045 O1032 1.257 . S
C1045 O1036 1.237 . S
C1046 O1040 1.257 . S
C1046 O1041 1.237 . S
O1047 Tb1034 2.303 . S
O1047 C1043 1.255 . S
C1048 C1038 1.497 . S
C1048 C1050 1.384 . S
C1048 C1051 1.386 . S
C1049 C1050 1.402 . S
C1049 C1053 1.392 . S
C1050 C1048 1.384 . S
C1050 C1049 1.402 . S
C1050 H1061 0.930 . S
C1051 C1048 1.386 . S
C1051 C1052 1.393 . S
C1051 H1062 0.932 . S
C1052 C1051 1.393 . S
C1052 C1053 1.387 . S
C1053 C1049 1.392 . S
C1053 C1052 1.387 . S
C1053 H1063 0.930 . S
C1054 O1035 1.255 . S
C1054 O1055 1.255 . S
O1055 C1054 1.255 . S
O1056 Tb1034 2.430 . S
O1056 C1038 1.248 . S
O1057 Tb1034 2.459 . S
O1057 C1038 1.260 . S
H1058 C1027 0.932 . S
H1059 C1029 0.930 . S
H1060 C1031 0.930 . S
H1061 C1050 0.930 . S
H1062 C1051 0.932 . S
H1063 C1053 0.930 . S
C1064 C1065 1.386 . S
C1064 C1069 1.384 . S
C1064 C1080 1.497 . S
C1065 C1064 1.386 . S
C1065 C1066 1.393 . S
C1065 H1096 0.932 . S
C1066 C1065 1.393 . S
C1066 C1067 1.387 . S
C1067 C1066 1.387 . S
C1067 C1068 1.392 . S
C1067 H1097 0.930 1_556 S
C1068 C1067 1.392 . S
C1068 C1069 1.402 . S
C1069 C1064 1.384 . S
C1069 C1068 1.402 . S
C1069 H1098 0.930 . S
O1070 Tb1071 2.288 . S
O1070 C1083 1.257 1_556 S
Tb1071 O1070 2.288 . S
Tb1071 O1073 2.303 . S
Tb1071 O1075 2.430 . S
Tb1071 O1077 2.459 . S
Tb1071 O1079 2.301 . S
Tb1071 C1080 2.808 . S
Tb1072 O1074 2.301 . S
Tb1072 C1076 2.808 1_554 S
Tb1072 O1078 2.288 1_554 S
Tb1072 O1085 2.303 . S
Tb1072 O1094 2.430 1_554 S
Tb1072 O1095 2.459 1_554 S
O1073 Tb1071 2.303 . S
O1073 C1092 1.255 . S
O1074 Tb1072 2.301 . S
O1074 C1083 1.237 . S
O1075 Tb1071 2.430 . S
O1075 C1080 1.248 . S
C1076 Tb1072 2.808 1_556 S
C1076 C1086 1.497 . S
C1076 O1094 1.248 . S
C1076 O1095 1.260 . S
O1077 Tb1071 2.459 . S
O1077 C1080 1.260 . S
O1078 Tb1072 2.288 1_556 S
O1078 C1084 1.257 . S
O1079 Tb1071 2.301 . S
O1079 C1084 1.237 . S
C1080 C1064 1.497 . S
C1080 Tb1071 2.808 . S
C1080 O1075 1.248 . S
C1080 O1077 1.260 . S
C1081 O1082 1.255 . S
C1081 O1085 1.255 . S
O1082 C1081 1.255 . S
C1083 O1070 1.257 1_554 S
C1083 O1074 1.237 . S
C1084 O1078 1.257 . S
C1084 O1079 1.237 . S
O1085 Tb1072 2.303 . S
O1085 C1081 1.255 . S
C1086 C1076 1.497 . S
C1086 C1088 1.384 . S
C1086 C1089 1.386 . S
C1087 C1088 1.402 . S
C1087 C1091 1.392 . S
C1088 C1086 1.384 . S
C1088 C1087 1.402 . S
C1088 H1099 0.930 . S
C1089 C1086 1.386 . S
C1089 C1090 1.393 . S
C1089 H1100 0.932 . S
C1090 C1089 1.393 . S
C1090 C1091 1.387 . S
C1091 C1087 1.392 . S
C1091 C1090 1.387 . S
C1091 H1101 0.930 . S
C1092 O1073 1.255 . S
C1092 O1093 1.255 . S
O1093 C1092 1.255 . S
O1094 Tb1072 2.430 1_556 S
O1094 C1076 1.248 . S
O1095 Tb1072 2.459 1_556 S
O1095 C1076 1.260 . S
H1096 C1065 0.932 . S
H1097 C1067 0.930 1_554 S
H1098 C1069 0.930 . S
H1099 C1088 0.930 . S
H1100 C1089 0.932 . S
H1101 C1091 0.930 . S
C1102 C1103 1.386 . S
C1102 C1107 1.384 . S
C1102 C1118 1.497 . S
C1103 C1102 1.386 . S
C1103 C1104 1.393 . S
C1103 H1134 0.932 . S
C1104 C1103 1.393 . S
C1104 C1105 1.387 . S
C1105 C1104 1.387 . S
C1105 C1106 1.392 . S
C1105 H1135 0.930 1_556 S
C1106 C1105 1.392 . S
C1106 C1107 1.402 . S
C1107 C1102 1.384 . S
C1107 C1106 1.402 . S
C1107 H1136 0.930 . S
O1108 Tb1109 2.288 . S
O1108 C1121 1.257 1_556 S
Tb1109 O1108 2.288 . S
Tb1109 O1111 2.303 . S
Tb1109 O1113 2.430 . S
Tb1109 O1115 2.459 . S
Tb1109 O1117 2.301 . S
Tb1109 C1118 2.808 . S
Tb1110 O1112 2.301 . S
Tb1110 C1114 2.808 1_554 S
Tb1110 O1116 2.288 1_554 S
Tb1110 O1123 2.303 . S
Tb1110 O1132 2.430 1_554 S
Tb1110 O1133 2.459 1_554 S
O1111 Tb1109 2.303 . S
O1111 C1130 1.255 . S
O1112 Tb1110 2.301 . S
O1112 C1121 1.237 . S
O1113 Tb1109 2.430 . S
O1113 C1118 1.248 . S
C1114 Tb1110 2.808 1_556 S
C1114 C1124 1.497 . S
C1114 O1132 1.248 . S
C1114 O1133 1.260 . S
O1115 Tb1109 2.459 . S
O1115 C1118 1.260 . S
O1116 Tb1110 2.288 1_556 S
O1116 C1122 1.257 . S
O1117 Tb1109 2.301 . S
O1117 C1122 1.237 . S
C1118 C1102 1.497 . S
C1118 Tb1109 2.808 . S
C1118 O1113 1.248 . S
C1118 O1115 1.260 . S
C1119 O1120 1.255 . S
C1119 O1123 1.255 . S
O1120 C1119 1.255 . S
C1121 O1108 1.257 1_554 S
C1121 O1112 1.237 . S
C1122 O1116 1.257 . S
C1122 O1117 1.237 . S
O1123 Tb1110 2.303 . S
O1123 C1119 1.255 . S
C1124 C1114 1.497 . S
C1124 C1126 1.384 . S
C1124 C1127 1.386 . S
C1125 C1126 1.402 . S
C1125 C1129 1.392 . S
C1126 C1124 1.384 . S
C1126 C1125 1.402 . S
C1126 H1137 0.930 . S
C1127 C1124 1.386 . S
C1127 C1128 1.393 . S
C1127 H1138 0.932 . S
C1128 C1127 1.393 . S
C1128 C1129 1.387 . S
C1129 C1125 1.392 . S
C1129 C1128 1.387 . S
C1129 H1139 0.930 . S
C1130 O1111 1.255 . S
C1130 O1131 1.255 . S
O1131 C1130 1.255 . S
O1132 Tb1110 2.430 1_556 S
O1132 C1114 1.248 . S
O1133 Tb1110 2.459 1_556 S
O1133 C1114 1.260 . S
H1134 C1103 0.932 . S
H1135 C1105 0.930 1_554 S
H1136 C1107 0.930 . S
H1137 C1126 0.930 . S
H1138 C1127 0.932 . S
H1139 C1129 0.930 . S
C1140 C1141 1.386 . S
C1140 C1145 1.384 . S
C1140 C1156 1.497 . S
C1141 C1140 1.386 . S
C1141 C1142 1.393 . S
C1141 H1172 0.932 . S
C1142 C1141 1.393 . S
C1142 C1143 1.387 . S
C1143 C1142 1.387 . S
C1143 C1144 1.392 . S
C1143 H1173 0.930 . S
C1144 C1143 1.392 . S
C1144 C1145 1.402 . S
C1145 C1140 1.384 . S
C1145 C1144 1.402 . S
C1145 H1174 0.930 . S
O1146 Tb1147 2.288 . S
O1146 C1159 1.257 . S
Tb1147 O1146 2.288 . S
Tb1147 O1149 2.303 . S
Tb1147 O1151 2.430 . S
Tb1147 O1153 2.459 . S
Tb1147 O1155 2.301 . S
Tb1147 C1156 2.808 . S
Tb1148 O1150 2.301 . S
Tb1148 C1152 2.808 . S
Tb1148 O1154 2.288 . S
Tb1148 O1161 2.303 . S
Tb1148 O1170 2.430 . S
Tb1148 O1171 2.459 . S
O1149 Tb1147 2.303 . S
O1149 C1168 1.255 . S
O1150 Tb1148 2.301 . S
O1150 C1159 1.237 . S
O1151 Tb1147 2.430 . S
O1151 C1156 1.248 . S
C1152 Tb1148 2.808 . S
C1152 C1162 1.497 . S
C1152 O1170 1.248 . S
C1152 O1171 1.260 . S
O1153 Tb1147 2.459 . S
O1153 C1156 1.260 . S
O1154 Tb1148 2.288 . S
O1154 C1160 1.257 . S
O1155 Tb1147 2.301 . S
O1155 C1160 1.237 . S
C1156 C1140 1.497 . S
C1156 Tb1147 2.808 . S
C1156 O1151 1.248 . S
C1156 O1153 1.260 . S
C1157 O1158 1.255 . S
C1157 O1161 1.255 . S
O1158 C1157 1.255 . S
C1159 O1146 1.257 . S
C1159 O1150 1.237 . S
C1160 O1154 1.257 . S
C1160 O1155 1.237 . S
O1161 Tb1148 2.303 . S
O1161 C1157 1.255 . S
C1162 C1152 1.497 . S
C1162 C1164 1.384 . S
C1162 C1165 1.386 . S
C1163 C1164 1.402 . S
C1163 C1167 1.392 . S
C1164 C1162 1.384 . S
C1164 C1163 1.402 . S
C1164 H1175 0.930 . S
C1165 C1162 1.386 . S
C1165 C1166 1.393 . S
C1165 H1176 0.932 . S
C1166 C1165 1.393 . S
C1166 C1167 1.387 . S
C1167 C1163 1.392 . S
C1167 C1166 1.387 . S
C1167 H1177 0.930 . S
C1168 O1149 1.255 . S
C1168 O1169 1.255 . S
O1169 C1168 1.255 . S
O1170 Tb1148 2.430 . S
O1170 C1152 1.248 . S
O1171 Tb1148 2.459 . S
O1171 C1152 1.260 . S
H1172 C1141 0.932 . S
H1173 C1143 0.930 . S
H1174 C1145 0.930 . S
H1175 C1164 0.930 . S
H1176 C1165 0.932 . S
H1177 C1167 0.930 . S
C1178 C1179 1.386 . S
C1178 C1183 1.384 . S
C1178 C1194 1.497 . S
C1179 C1178 1.386 . S
C1179 C1180 1.393 . S
C1179 H1210 0.932 . S
C1180 C1179 1.393 . S
C1180 C1181 1.387 . S
C1181 C1180 1.387 . S
C1181 C1182 1.392 . S
C1181 H1211 0.930 . S
C1182 C1181 1.392 . S
C1182 C1183 1.402 . S
C1183 C1178 1.384 . S
C1183 C1182 1.402 . S
C1183 H1212 0.930 . S
O1184 Tb1185 2.288 . S
O1184 C1197 1.257 . S
Tb1185 O1184 2.288 . S
Tb1185 O1187 2.303 . S
Tb1185 O1189 2.430 . S
Tb1185 O1191 2.459 . S
Tb1185 O1193 2.301 . S
Tb1185 C1194 2.808 . S
Tb1186 O1188 2.301 . S
Tb1186 C1190 2.808 . S
Tb1186 O1192 2.288 . S
Tb1186 O1199 2.303 . S
Tb1186 O1208 2.430 . S
Tb1186 O1209 2.459 . S
O1187 Tb1185 2.303 . S
O1187 C1206 1.255 . S
O1188 Tb1186 2.301 . S
O1188 C1197 1.237 . S
O1189 Tb1185 2.430 . S
O1189 C1194 1.248 . S
C1190 Tb1186 2.808 . S
C1190 C1200 1.497 . S
C1190 O1208 1.248 . S
C1190 O1209 1.260 . S
O1191 Tb1185 2.459 . S
O1191 C1194 1.260 . S
O1192 Tb1186 2.288 . S
O1192 C1198 1.257 . S
O1193 Tb1185 2.301 . S
O1193 C1198 1.237 . S
C1194 C1178 1.497 . S
C1194 Tb1185 2.808 . S
C1194 O1189 1.248 . S
C1194 O1191 1.260 . S
C1195 O1196 1.255 . S
C1195 O1199 1.255 . S
O1196 C1195 1.255 . S
C1197 O1184 1.257 . S
C1197 O1188 1.237 . S
C1198 O1192 1.257 . S
C1198 O1193 1.237 . S
O1199 Tb1186 2.303 . S
O1199 C1195 1.255 . S
C1200 C1190 1.497 . S
C1200 C1202 1.384 . S
C1200 C1203 1.386 . S
C1201 C1202 1.402 . S
C1201 C1205 1.392 . S
C1202 C1200 1.384 . S
C1202 C1201 1.402 . S
C1202 H1213 0.930 . S
C1203 C1200 1.386 . S
C1203 C1204 1.393 . S
C1203 H1214 0.932 . S
C1204 C1203 1.393 . S
C1204 C1205 1.387 . S
C1205 C1201 1.392 . S
C1205 C1204 1.387 . S
C1205 H1215 0.930 . S
C1206 O1187 1.255 . S
C1206 O1207 1.255 . S
O1207 C1206 1.255 . S
O1208 Tb1186 2.430 . S
O1208 C1190 1.248 . S
O1209 Tb1186 2.459 . S
O1209 C1190 1.260 . S
H1210 C1179 0.932 . S
H1211 C1181 0.930 . S
H1212 C1183 0.930 . S
H1213 C1202 0.930 . S
H1214 C1203 0.932 . S
H1215 C1205 0.930 . S
H1216 C1222 0.930 . S
H1217 C1226 0.930 . S
H1218 C1231 0.929 . S
H1219 C1229 0.929 . S
H1220 C1224 0.929 . S
H1221 C1230 0.929 . S
C1222 H1216 0.930 . S
C1222 C1223 1.367 1_554 S
C1222 C1230 1.378 . S
C1223 C1222 1.367 1_556 S
C1223 C1231 1.433 . S
C1224 H1220 0.929 . S
C1224 C1226 1.378 . S
C1224 C1228 1.350 . S
C1225 C1228 1.463 . S
C1225 C1230 1.350 1_556 S
C1225 N1233 1.427 . S
C1226 H1217 0.930 . S
C1226 C1224 1.378 . S
C1226 C1227 1.367 . S
C1227 C1226 1.367 . S
C1227 C1229 1.433 1_556 S
C1228 C1224 1.350 . S
C1228 C1225 1.463 . S
C1228 N1232 1.427 1_556 S
C1229 H1219 0.929 . S
C1229 C1227 1.433 1_554 S
C1229 N1232 1.384 . S
C1230 H1221 0.929 . S
C1230 C1222 1.378 . S
C1230 C1225 1.350 1_554 S
C1231 H1218 0.929 . S
C1231 C1223 1.433 . S
C1231 N1233 1.384 . S
N1232 C1228 1.427 1_554 S
N1232 C1229 1.384 . S
N1233 C1225 1.427 . S
N1233 C1231 1.384 . S
H1234 C1240 0.930 . S
H1235 C1244 0.930 . S
H1236 C1249 0.929 . S
H1237 C1247 0.929 . S
H1238 C1242 0.929 . S
H1239 C1248 0.929 . S
C1240 H1234 0.930 . S
C1240 C1241 1.367 . S
C1240 C1248 1.378 . S
C1241 C1240 1.367 . S
C1241 C1249 1.433 1_556 S
C1242 H1238 0.929 . S
C1242 C1244 1.378 . S
C1242 C1246 1.350 1_554 S
C1243 C1246 1.463 . S
C1243 C1248 1.350 . S
C1243 N1251 1.427 1_556 S
C1244 H1235 0.930 . S
C1244 C1242 1.378 . S
C1244 C1245 1.367 1_554 S
C1245 C1244 1.367 1_556 S
C1245 C1247 1.433 . S
C1246 C1242 1.350 1_556 S
C1246 C1243 1.463 . S
C1246 N1250 1.427 . S
C1247 H1237 0.929 . S
C1247 C1245 1.433 . S
C1247 N1250 1.384 . S
C1248 H1239 0.929 . S
C1248 C1240 1.378 . S
C1248 C1243 1.350 . S
C1249 H1236 0.929 . S
C1249 C1241 1.433 1_554 S
C1249 N1251 1.384 . S
N1250 C1246 1.427 . S
N1250 C1247 1.384 . S
N1251 C1243 1.427 1_554 S
N1251 C1249 1.384 . S
H1252 C1258 0.930 . S
H1253 C1262 0.930 . S
H1254 C1267 0.929 . S
H1255 C1265 0.929 . S
H1256 C1260 0.929 . S
H1257 C1266 0.929 . S
C1258 H1252 0.930 . S
C1258 C1259 1.367 . S
C1258 C1266 1.378 . S
C1259 C1258 1.367 . S
C1259 C1267 1.433 . S
C1260 H1256 0.929 . S
C1260 C1262 1.378 . S
C1260 C1264 1.350 . S
C1261 C1264 1.463 . S
C1261 C1266 1.350 . S
C1261 N1269 1.427 . S
C1262 H1253 0.930 . S
C1262 C1260 1.378 . S
C1262 C1263 1.367 . S
C1263 C1262 1.367 . S
C1263 C1265 1.433 . S
C1264 C1260 1.350 . S
C1264 C1261 1.463 . S
C1264 N1268 1.427 . S
C1265 H1255 0.929 . S
C1265 C1263 1.433 . S
C1265 N1268 1.384 . S
C1266 H1257 0.929 . S
C1266 C1258 1.378 . S
C1266 C1261 1.350 . S
C1267 H1254 0.929 . S
C1267 C1259 1.433 . S
C1267 N1269 1.384 . S
N1268 C1264 1.427 . S
N1268 C1265 1.384 . S
N1269 C1261 1.427 . S
N1269 C1267 1.384 . S
H1270 C1276 0.930 . S
H1271 C1280 0.930 . S
H1272 C1285 0.929 . S
H1273 C1283 0.929 . S
H1274 C1278 0.929 . S
H1275 C1284 0.929 . S
C1276 H1270 0.930 . S
C1276 C1277 1.367 . S
C1276 C1284 1.378 . S
C1277 C1276 1.367 . S
C1277 C1285 1.433 . S
C1278 H1274 0.929 . S
C1278 C1280 1.378 . S
C1278 C1282 1.350 . S
C1279 C1282 1.463 . S
C1279 C1284 1.350 . S
C1279 N1287 1.427 . S
C1280 H1271 0.930 . S
C1280 C1278 1.378 . S
C1280 C1281 1.367 . S
C1281 C1280 1.367 . S
C1281 C1283 1.433 . S
C1282 C1278 1.350 . S
C1282 C1279 1.463 . S
C1282 N1286 1.427 . S
C1283 H1273 0.929 . S
C1283 C1281 1.433 . S
C1283 N1286 1.384 . S
C1284 H1275 0.929 . S
C1284 C1276 1.378 . S
C1284 C1279 1.350 . S
C1285 H1272 0.929 . S
C1285 C1277 1.433 . S
C1285 N1287 1.384 . S
N1286 C1282 1.427 . S
N1286 C1283 1.384 . S
N1287 C1279 1.427 . S
N1287 C1285 1.384 . S
H1288 C1294 0.930 . S
H1289 C1298 0.930 . S
H1290 C1303 0.929 . S
H1291 C1301 0.929 . S
H1292 C1296 0.929 . S
H1293 C1302 0.929 . S
C1294 H1288 0.930 . S
C1294 C1295 1.367 . S
C1294 C1302 1.378 . S
C1295 C1294 1.367 . S
C1295 C1303 1.433 1_554 S
C1296 H1292 0.929 . S
C1296 C1298 1.378 . S
C1296 C1300 1.350 1_556 S
C1297 C1300 1.463 . S
C1297 C1302 1.350 . S
C1297 N1305 1.427 1_554 S
C1298 H1289 0.930 . S
C1298 C1296 1.378 . S
C1298 C1299 1.367 1_556 S
C1299 C1298 1.367 1_554 S
C1299 C1301 1.433 . S
C1300 C1296 1.350 1_554 S
C1300 C1297 1.463 . S
C1300 N1304 1.427 . S
C1301 H1291 0.929 . S
C1301 C1299 1.433 . S
C1301 N1304 1.384 . S
C1302 H1293 0.929 . S
C1302 C1294 1.378 . S
C1302 C1297 1.350 . S
C1303 H1290 0.929 . S
C1303 C1295 1.433 1_556 S
C1303 N1305 1.384 . S
N1304 C1300 1.427 . S
N1304 C1301 1.384 . S
N1305 C1297 1.427 1_556 S
N1305 C1303 1.384 . S
H1306 C1312 0.930 . S
H1307 C1316 0.930 . S
H1308 C1321 0.929 . S
H1309 C1319 0.929 . S
H1310 C1314 0.929 . S
H1311 C1320 0.929 . S
C1312 H1306 0.930 . S
C1312 C1313 1.367 . S
C1312 C1320 1.378 . S
C1313 C1312 1.367 . S
C1313 C1321 1.433 1_554 S
C1314 H1310 0.929 . S
C1314 C1316 1.378 . S
C1314 C1318 1.350 1_556 S
C1315 C1318 1.463 . S
C1315 C1320 1.350 . S
C1315 N1323 1.427 1_554 S
C1316 H1307 0.930 . S
C1316 C1314 1.378 . S
C1316 C1317 1.367 1_556 S
C1317 C1316 1.367 1_554 S
C1317 C1319 1.433 . S
C1318 C1314 1.350 1_554 S
C1318 C1315 1.463 . S
C1318 N1322 1.427 . S
C1319 H1309 0.929 . S
C1319 C1317 1.433 . S
C1319 N1322 1.384 . S
C1320 H1311 0.929 . S
C1320 C1312 1.378 . S
C1320 C1315 1.350 . S
C1321 H1308 0.929 . S
C1321 C1313 1.433 1_556 S
C1321 N1323 1.384 . S
N1322 C1318 1.427 . S
N1322 C1319 1.384 . S
N1323 C1315 1.427 1_556 S
N1323 C1321 1.384 . S
H1324 C1330 0.930 . S
H1325 C1334 0.930 . S
H1326 C1339 0.929 . S
H1327 C1337 0.929 . S
H1328 C1332 0.929 . S
H1329 C1338 0.929 . S
C1330 H1324 0.930 . S
C1330 C1331 1.367 . S
C1330 C1338 1.378 . S
C1331 C1330 1.367 . S
C1331 C1339 1.433 . S
C1332 H1328 0.929 . S
C1332 C1334 1.378 . S
C1332 C1336 1.350 . S
C1333 C1336 1.463 . S
C1333 C1338 1.350 . S
C1333 N1341 1.427 . S
C1334 H1325 0.930 . S
C1334 C1332 1.378 . S
C1334 C1335 1.367 . S
C1335 C1334 1.367 . S
C1335 C1337 1.433 . S
C1336 C1332 1.350 . S
C1336 C1333 1.463 . S
C1336 N1340 1.427 . S
C1337 H1327 0.929 . S
C1337 C1335 1.433 . S
C1337 N1340 1.384 . S
C1338 H1329 0.929 . S
C1338 C1330 1.378 . S
C1338 C1333 1.350 . S
C1339 H1326 0.929 . S
C1339 C1331 1.433 . S
C1339 N1341 1.384 . S
N1340 C1336 1.427 . S
N1340 C1337 1.384 . S
N1341 C1333 1.427 . S
N1341 C1339 1.384 . S
H1342 C1348 0.930 . S
H1343 C1352 0.930 . S
H1344 C1357 0.929 . S
H1345 C1355 0.929 . S
H1346 C1350 0.929 . S
H1347 C1356 0.929 . S
C1348 H1342 0.930 . S
C1348 C1349 1.367 . S
C1348 C1356 1.378 . S
C1349 C1348 1.367 . S
C1349 C1357 1.433 . S
C1350 H1346 0.929 . S
C1350 C1352 1.378 . S
C1350 C1354 1.350 . S
C1351 C1354 1.463 . S
C1351 C1356 1.350 . S
C1351 N1359 1.427 . S
C1352 H1343 0.930 . S
C1352 C1350 1.378 . S
C1352 C1353 1.367 . S
C1353 C1352 1.367 . S
C1353 C1355 1.433 . S
C1354 C1350 1.350 . S
C1354 C1351 1.463 . S
C1354 N1358 1.427 . S
C1355 H1345 0.929 . S
C1355 C1353 1.433 . S
C1355 N1358 1.384 . S
C1356 H1347 0.929 . S
C1356 C1348 1.378 . S
C1356 C1351 1.350 . S
C1357 H1344 0.929 . S
C1357 C1349 1.433 . S
C1357 N1359 1.384 . S
N1358 C1354 1.427 . S
N1358 C1355 1.384 . S
N1359 C1351 1.427 . S
N1359 C1357 1.384 . S
H1360 C1366 0.930 . S
H1361 C1370 0.930 . S
H1362 C1375 0.929 . S
H1363 C1373 0.929 . S
H1364 C1368 0.929 . S
H1365 C1374 0.929 . S
C1366 H1360 0.930 . S
C1366 C1367 1.367 . S
C1366 C1374 1.378 . S
C1367 C1366 1.367 . S
C1367 C1375 1.433 . S
C1368 H1364 0.929 . S
C1368 C1370 1.378 . S
C1368 C1372 1.350 . S
C1369 C1372 1.463 . S
C1369 C1374 1.350 . S
C1369 N1377 1.427 . S
C1370 H1361 0.930 . S
C1370 C1368 1.378 . S
C1370 C1371 1.367 . S
C1371 C1370 1.367 . S
C1371 C1373 1.433 . S
C1372 C1368 1.350 . S
C1372 C1369 1.463 . S
C1372 N1376 1.427 . S
C1373 H1363 0.929 . S
C1373 C1371 1.433 . S
C1373 N1376 1.384 . S
C1374 H1365 0.929 . S
C1374 C1366 1.378 . S
C1374 C1369 1.350 . S
C1375 H1362 0.929 . S
C1375 C1367 1.433 . S
C1375 N1377 1.384 . S
N1376 C1372 1.427 . S
N1376 C1373 1.384 . S
N1377 C1369 1.427 . S
N1377 C1375 1.384 . S
H1378 C1384 0.930 . S
H1379 C1388 0.930 . S
H1380 C1393 0.929 . S
H1381 C1391 0.929 . S
H1382 C1386 0.929 . S
H1383 C1392 0.929 . S
C1384 H1378 0.930 . S
C1384 C1385 1.367 . S
C1384 C1392 1.378 . S
C1385 C1384 1.367 . S
C1385 C1393 1.433 . S
C1386 H1382 0.929 . S
C1386 C1388 1.378 . S
C1386 C1390 1.350 . S
C1387 C1390 1.463 . S
C1387 C1392 1.350 . S
C1387 N1395 1.427 . S
C1388 H1379 0.930 . S
C1388 C1386 1.378 . S
C1388 C1389 1.367 . S
C1389 C1388 1.367 . S
C1389 C1391 1.433 . S
C1390 C1386 1.350 . S
C1390 C1387 1.463 . S
C1390 N1394 1.427 . S
C1391 H1381 0.929 . S
C1391 C1389 1.433 . S
C1391 N1394 1.384 . S
C1392 H1383 0.929 . S
C1392 C1384 1.378 . S
C1392 C1387 1.350 . S
C1393 H1380 0.929 . S
C1393 C1385 1.433 . S
C1393 N1395 1.384 . S
N1394 C1390 1.427 . S
N1394 C1391 1.384 . S
N1395 C1387 1.427 . S
N1395 C1393 1.384 . S
H1396 C1402 0.930 . S
H1397 C1406 0.930 . S
H1398 C1411 0.929 . S
H1399 C1409 0.929 . S
H1400 C1404 0.929 . S
H1401 C1410 0.929 . S
C1402 H1396 0.930 . S
C1402 C1403 1.367 . S
C1402 C1410 1.378 . S
C1403 C1402 1.367 . S
C1403 C1411 1.433 . S
C1404 H1400 0.929 . S
C1404 C1406 1.378 . S
C1404 C1408 1.350 . S
C1405 C1408 1.463 . S
C1405 C1410 1.350 . S
C1405 N1413 1.427 . S
C1406 H1397 0.930 . S
C1406 C1404 1.378 . S
C1406 C1407 1.367 . S
C1407 C1406 1.367 . S
C1407 C1409 1.433 . S
C1408 C1404 1.350 . S
C1408 C1405 1.463 . S
C1408 N1412 1.427 . S
C1409 H1399 0.929 . S
C1409 C1407 1.433 . S
C1409 N1412 1.384 . S
C1410 H1401 0.929 . S
C1410 C1402 1.378 . S
C1410 C1405 1.350 . S
C1411 H1398 0.929 . S
C1411 C1403 1.433 . S
C1411 N1413 1.384 . S
N1412 C1408 1.427 . S
N1412 C1409 1.384 . S
N1413 C1405 1.427 . S
N1413 C1411 1.384 . S
H1414 C1420 0.930 . S
H1415 C1424 0.930 . S
H1416 C1429 0.929 . S
H1417 C1427 0.929 . S
H1418 C1422 0.929 . S
H1419 C1428 0.929 . S
C1420 H1414 0.930 . S
C1420 C1421 1.367 . S
C1420 C1428 1.378 . S
C1421 C1420 1.367 . S
C1421 C1429 1.433 . S
C1422 H1418 0.929 . S
C1422 C1424 1.378 . S
C1422 C1426 1.350 . S
C1423 C1426 1.463 . S
C1423 C1428 1.350 . S
C1423 N1431 1.427 . S
C1424 H1415 0.930 . S
C1424 C1422 1.378 . S
C1424 C1425 1.367 . S
C1425 C1424 1.367 . S
C1425 C1427 1.433 . S
C1426 C1422 1.350 . S
C1426 C1423 1.463 . S
C1426 N1430 1.427 . S
C1427 H1417 0.929 . S
C1427 C1425 1.433 . S
C1427 N1430 1.384 . S
C1428 H1419 0.929 . S
C1428 C1420 1.378 . S
C1428 C1423 1.350 . S
C1429 H1416 0.929 . S
C1429 C1421 1.433 . S
C1429 N1431 1.384 . S
N1430 C1426 1.427 . S
N1430 C1427 1.384 . S
N1431 C1423 1.427 . S
N1431 C1429 1.384 . S
H1432 C1438 0.930 . S
H1433 C1442 0.930 . S
H1434 C1447 0.929 . S
H1435 C1445 0.929 . S
H1436 C1440 0.929 . S
H1437 C1446 0.929 . S
C1438 H1432 0.930 . S
C1438 C1439 1.367 . S
C1438 C1446 1.378 . S
C1439 C1438 1.367 . S
C1439 C1447 1.433 . S
C1440 H1436 0.929 . S
C1440 C1442 1.378 . S
C1440 C1444 1.350 . S
C1441 C1444 1.463 . S
C1441 C1446 1.350 . S
C1441 N1449 1.427 . S
C1442 H1433 0.930 . S
C1442 C1440 1.378 . S
C1442 C1443 1.367 . S
C1443 C1442 1.367 . S
C1443 C1445 1.433 . S
C1444 C1440 1.350 . S
C1444 C1441 1.463 . S
C1444 N1448 1.427 . S
C1445 H1435 0.929 . S
C1445 C1443 1.433 . S
C1445 N1448 1.384 . S
C1446 H1437 0.929 . S
C1446 C1438 1.378 . S
C1446 C1441 1.350 . S
C1447 H1434 0.929 . S
C1447 C1439 1.433 . S
C1447 N1449 1.384 . S
N1448 C1444 1.427 . S
N1448 C1445 1.384 . S
N1449 C1441 1.427 . S
N1449 C1447 1.384 . S
H1450 C1456 0.930 . S
H1451 C1460 0.930 . S
H1452 C1465 0.929 . S
H1453 C1463 0.929 . S
H1454 C1458 0.929 . S
H1455 C1464 0.929 . S
C1456 H1450 0.930 . S
C1456 C1457 1.367 . S
C1456 C1464 1.378 . S
C1457 C1456 1.367 . S
C1457 C1465 1.433 . S
C1458 H1454 0.929 . S
C1458 C1460 1.378 . S
C1458 C1462 1.350 . S
C1459 C1462 1.463 . S
C1459 C1464 1.350 . S
C1459 N1467 1.427 . S
C1460 H1451 0.930 . S
C1460 C1458 1.378 . S
C1460 C1461 1.367 . S
C1461 C1460 1.367 . S
C1461 C1463 1.433 . S
C1462 C1458 1.350 . S
C1462 C1459 1.463 . S
C1462 N1466 1.427 . S
C1463 H1453 0.929 . S
C1463 C1461 1.433 . S
C1463 N1466 1.384 . S
C1464 H1455 0.929 . S
C1464 C1456 1.378 . S
C1464 C1459 1.350 . S
C1465 H1452 0.929 . S
C1465 C1457 1.433 . S
C1465 N1467 1.384 . S
N1466 C1462 1.427 . S
N1466 C1463 1.384 . S
N1467 C1459 1.427 . S
N1467 C1465 1.384 . S
H1468 C1474 0.930 . S
H1469 C1478 0.930 . S
H1470 C1483 0.929 . S
H1471 C1481 0.929 . S
H1472 C1476 0.929 . S
H1473 C1482 0.929 . S
C1474 H1468 0.930 . S
C1474 C1475 1.367 . S
C1474 C1482 1.378 . S
C1475 C1474 1.367 . S
C1475 C1483 1.433 . S
C1476 H1472 0.929 . S
C1476 C1478 1.378 . S
C1476 C1480 1.350 . S
C1477 C1480 1.463 . S
C1477 C1482 1.350 . S
C1477 N1485 1.427 . S
C1478 H1469 0.930 . S
C1478 C1476 1.378 . S
C1478 C1479 1.367 . S
C1479 C1478 1.367 . S
C1479 C1481 1.433 . S
C1480 C1476 1.350 . S
C1480 C1477 1.463 . S
C1480 N1484 1.427 . S
C1481 H1471 0.929 . S
C1481 C1479 1.433 . S
C1481 N1484 1.384 . S
C1482 H1473 0.929 . S
C1482 C1474 1.378 . S
C1482 C1477 1.350 . S
C1483 H1470 0.929 . S
C1483 C1475 1.433 . S
C1483 N1485 1.384 . S
N1484 C1480 1.427 . S
N1484 C1481 1.384 . S
N1485 C1477 1.427 . S
N1485 C1483 1.384 . S
H1486 C1492 0.930 . S
H1487 C1496 0.930 . S
H1488 C1501 0.929 . S
H1489 C1499 0.929 . S
H1490 C1494 0.929 . S
H1491 C1500 0.929 . S
C1492 H1486 0.930 . S
C1492 C1493 1.367 . S
C1492 C1500 1.378 . S
C1493 C1492 1.367 . S
C1493 C1501 1.433 . S
C1494 H1490 0.929 . S
C1494 C1496 1.378 . S
C1494 C1498 1.350 . S
C1495 C1498 1.463 . S
C1495 C1500 1.350 . S
C1495 N1503 1.427 . S
C1496 H1487 0.930 . S
C1496 C1494 1.378 . S
C1496 C1497 1.367 . S
C1497 C1496 1.367 . S
C1497 C1499 1.433 . S
C1498 C1494 1.350 . S
C1498 C1495 1.463 . S
C1498 N1502 1.427 . S
C1499 H1489 0.929 . S
C1499 C1497 1.433 . S
C1499 N1502 1.384 . S
C1500 H1491 0.929 . S
C1500 C1492 1.378 . S
C1500 C1495 1.350 . S
C1501 H1488 0.929 . S
C1501 C1493 1.433 . S
C1501 N1503 1.384 . S
N1502 C1498 1.427 . S
N1502 C1499 1.384 . S
N1503 C1495 1.427 . S
N1503 C1501 1.384 . S
H1504 C1510 0.930 . S
H1505 C1514 0.930 1_556 S
H1506 C1519 0.929 . S
H1507 C1517 0.929 . S
H1508 C1512 0.925 1_556 S
H1509 C1518 0.929 . S
C1510 H1504 0.930 . S
C1510 C1511 1.367 1_554 S
C1510 C1518 1.378 . S
C1511 C1510 1.367 1_556 S
C1511 C1519 1.433 . S
C1512 H1508 0.925 1_554 S
C1512 C1514 1.379 . S
C1512 C1516 1.353 . S
C1513 C1516 1.463 . S
C1513 C1518 1.350 . S
C1513 N1521 1.427 1_554 S
C1514 H1505 0.930 1_554 S
C1514 C1512 1.379 . S
C1514 C1515 1.367 . S
C1515 C1514 1.367 . S
C1515 C1517 1.433 . S
C1516 C1512 1.353 . S
C1516 C1513 1.463 . S
C1516 N1520 1.427 . S
C1517 H1507 0.929 . S
C1517 C1515 1.433 . S
C1517 N1520 1.384 . S
C1518 H1509 0.929 . S
C1518 C1510 1.378 . S
C1518 C1513 1.350 . S
C1519 H1506 0.929 . S
C1519 C1511 1.433 . S
C1519 N1521 1.384 . S
N1520 C1516 1.427 . S
N1520 C1517 1.384 . S
N1521 C1513 1.427 1_556 S
N1521 C1519 1.384 . S
H1522 C1528 0.930 . S
H1523 C1532 0.930 . S
H1524 C1537 0.929 . S
H1525 C1535 0.929 . S
H1526 C1530 0.927 1_556 S
H1527 C1536 0.929 . S
C1528 H1522 0.930 . S
C1528 C1529 1.367 . S
C1528 C1536 1.378 . S
C1529 C1528 1.367 . S
C1529 C1537 1.433 . S
C1530 H1526 0.927 1_554 S
C1530 C1532 1.375 1_554 S
C1530 C1534 1.355 . S
C1531 C1534 1.463 . S
C1531 C1536 1.350 . S
C1531 N1539 1.427 . S
C1532 H1523 0.930 . S
C1532 C1530 1.375 1_556 S
C1532 C1533 1.367 . S
C1533 C1532 1.367 . S
C1533 C1535 1.433 1_556 S
C1534 C1530 1.355 . S
C1534 C1531 1.463 . S
C1534 N1538 1.427 . S
C1535 H1525 0.929 . S
C1535 C1533 1.433 1_554 S
C1535 N1538 1.384 . S
C1536 H1527 0.929 . S
C1536 C1528 1.378 . S
C1536 C1531 1.350 . S
C1537 H1524 0.929 . S
C1537 C1529 1.433 . S
C1537 N1539 1.384 . S
N1538 C1534 1.427 . S
N1538 C1535 1.384 . S
N1539 C1531 1.427 . S
N1539 C1537 1.384 . S
H1540 C1546 0.930 . S
H1541 C1550 0.930 . S
H1542 C1555 0.929 . S
H1543 C1553 0.929 . S
H1544 C1548 0.929 . S
H1545 C1554 0.929 . S
C1546 H1540 0.930 . S
C1546 C1547 1.367 . S
C1546 C1554 1.378 . S
C1547 C1546 1.367 . S
C1547 C1555 1.433 . S
C1548 H1544 0.929 . S
C1548 C1550 1.378 . S
C1548 C1552 1.350 . S
C1549 C1552 1.463 . S
C1549 C1554 1.350 . S
C1549 N1557 1.427 . S
C1550 H1541 0.930 . S
C1550 C1548 1.378 . S
C1550 C1551 1.367 . S
C1551 C1550 1.367 . S
C1551 C1553 1.433 . S
C1552 C1548 1.350 . S
C1552 C1549 1.463 . S
C1552 N1556 1.427 . S
C1553 H1543 0.929 . S
C1553 C1551 1.433 . S
C1553 N1556 1.384 . S
C1554 H1545 0.929 . S
C1554 C1546 1.378 . S
C1554 C1549 1.350 . S
C1555 H1542 0.929 . S
C1555 C1547 1.433 . S
C1555 N1557 1.384 . S
N1556 C1552 1.427 . S
N1556 C1553 1.384 . S
N1557 C1549 1.427 . S
N1557 C1555 1.384 . S
H1558 C1564 0.930 . S
H1559 C1568 0.930 . S
H1560 C1573 0.929 . S
H1561 C1571 0.929 . S
H1562 C1566 0.929 . S
H1563 C1572 0.929 . S
C1564 H1558 0.930 . S
C1564 C1565 1.367 . S
C1564 C1572 1.378 . S
C1565 C1564 1.367 . S
C1565 C1573 1.433 . S
C1566 H1562 0.929 . S
C1566 C1568 1.378 . S
C1566 C1570 1.350 . S
C1567 C1570 1.463 . S
C1567 C1572 1.350 . S
C1567 N1575 1.427 . S
C1568 H1559 0.930 . S
C1568 C1566 1.378 . S
C1568 C1569 1.367 . S
C1569 C1568 1.367 . S
C1569 C1571 1.433 . S
C1570 C1566 1.350 . S
C1570 C1567 1.463 . S
C1570 N1574 1.427 . S
C1571 H1561 0.929 . S
C1571 C1569 1.433 . S
C1571 N1574 1.384 . S
C1572 H1563 0.929 . S
C1572 C1564 1.378 . S
C1572 C1567 1.350 . S
C1573 H1560 0.929 . S
C1573 C1565 1.433 . S
C1573 N1575 1.384 . S
N1574 C1570 1.427 . S
N1574 C1571 1.384 . S
N1575 C1567 1.427 . S
N1575 C1573 1.384 . S
H1576 C1582 0.930 . S
H1577 C1586 0.930 . S
H1578 C1591 0.929 . S
H1579 C1589 0.929 . S
H1580 C1584 0.929 . S
H1581 C1590 0.929 . S
C1582 H1576 0.930 . S
C1582 C1583 1.367 . S
C1582 C1590 1.378 . S
C1583 C1582 1.367 . S
C1583 C1591 1.433 1_554 S
C1584 H1580 0.929 . S
C1584 C1586 1.378 . S
C1584 C1588 1.350 . S
C1585 C1588 1.463 . S
C1585 C1590 1.350 1_556 S
C1585 N1593 1.427 . S
C1586 H1577 0.930 . S
C1586 C1584 1.378 . S
C1586 C1587 1.367 . S
C1587 C1586 1.367 . S
C1587 C1589 1.433 . S
C1588 C1584 1.350 . S
C1588 C1585 1.463 . S
C1588 N1592 1.427 . S
C1589 H1579 0.929 . S
C1589 C1587 1.433 . S
C1589 N1592 1.384 . S
C1590 H1581 0.929 . S
C1590 C1582 1.378 . S
C1590 C1585 1.350 1_554 S
C1591 H1578 0.929 . S
C1591 C1583 1.433 1_556 S
C1591 N1593 1.384 . S
N1592 C1588 1.427 . S
N1592 C1589 1.384 . S
N1593 C1585 1.427 . S
N1593 C1591 1.384 . S
H1594 C1600 0.930 . S
H1595 C1604 0.930 . S
H1596 C1609 0.929 . S
H1597 C1607 0.929 1_554 S
H1598 C1602 0.929 . S
H1599 C1608 0.929 . S
C1600 H1594 0.930 . S
C1600 C1601 1.367 . S
C1600 C1608 1.378 . S
C1601 C1600 1.367 . S
C1601 C1609 1.433 1_554 S
C1602 H1598 0.929 . S
C1602 C1604 1.378 . S
C1602 C1606 1.350 . S
C1603 C1606 1.463 . S
C1603 C1608 1.350 1_556 S
C1603 N1611 1.427 . S
C1604 H1595 0.930 . S
C1604 C1602 1.378 . S
C1604 C1605 1.367 . S
C1605 C1604 1.367 . S
C1605 C1607 1.433 . S
C1606 C1602 1.350 . S
C1606 C1603 1.463 . S
C1606 N1610 1.427 1_556 S
C1607 H1597 0.929 1_556 S
C1607 C1605 1.433 . S
C1607 N1610 1.384 1_556 S
C1608 H1599 0.929 . S
C1608 C1600 1.378 . S
C1608 C1603 1.350 1_554 S
C1609 H1596 0.929 . S
C1609 C1601 1.433 1_556 S
C1609 N1611 1.384 . S
N1610 C1606 1.427 1_554 S
N1610 C1607 1.384 1_554 S
N1611 C1603 1.427 . S
N1611 C1609 1.384 . S
H1612 C1618 0.930 . S
H1613 C1622 0.930 . S
H1614 C1627 0.929 . S
H1615 C1625 0.929 . S
H1616 C1620 0.929 . S
H1617 C1626 0.929 . S
C1618 H1612 0.930 . S
C1618 C1619 1.367 . S
C1618 C1626 1.378 . S
C1619 C1618 1.367 . S
C1619 C1627 1.433 . S
C1620 H1616 0.929 . S
C1620 C1622 1.378 . S
C1620 C1624 1.350 . S
C1621 C1624 1.463 . S
C1621 C1626 1.350 . S
C1621 N1629 1.427 . S
C1622 H1613 0.930 . S
C1622 C1620 1.378 . S
C1622 C1623 1.367 . S
C1623 C1622 1.367 . S
C1623 C1625 1.433 . S
C1624 C1620 1.350 . S
C1624 C1621 1.463 . S
C1624 N1628 1.427 . S
C1625 H1615 0.929 . S
C1625 C1623 1.433 . S
C1625 N1628 1.384 . S
C1626 H1617 0.929 . S
C1626 C1618 1.378 . S
C1626 C1621 1.350 . S
C1627 H1614 0.929 . S
C1627 C1619 1.433 . S
C1627 N1629 1.384 . S
N1628 C1624 1.427 . S
N1628 C1625 1.384 . S
N1629 C1621 1.427 . S
N1629 C1627 1.384 . S
H1630 C1636 0.930 . S
H1631 C1640 0.930 . S
H1632 C1645 0.929 . S
H1633 C1643 0.929 . S
H1634 C1638 0.929 . S
H1635 C1644 0.929 . S
C1636 H1630 0.930 . S
C1636 C1637 1.367 . S
C1636 C1644 1.378 . S
C1637 C1636 1.367 . S
C1637 C1645 1.433 . S
C1638 H1634 0.929 . S
C1638 C1640 1.378 . S
C1638 C1642 1.350 . S
C1639 C1642 1.463 . S
C1639 C1644 1.350 . S
C1639 N1647 1.427 . S
C1640 H1631 0.930 . S
C1640 C1638 1.378 . S
C1640 C1641 1.367 . S
C1641 C1640 1.367 . S
C1641 C1643 1.433 . S
C1642 C1638 1.350 . S
C1642 C1639 1.463 . S
C1642 N1646 1.427 . S
C1643 H1633 0.929 . S
C1643 C1641 1.433 . S
C1643 N1646 1.384 . S
C1644 H1635 0.929 . S
C1644 C1636 1.378 . S
C1644 C1639 1.350 . S
C1645 H1632 0.929 . S
C1645 C1637 1.433 . S
C1645 N1647 1.384 . S
N1646 C1642 1.427 . S
N1646 C1643 1.384 . S
N1647 C1639 1.427 . S
N1647 C1645 1.384 . S
H1648 C1654 0.930 . S
H1649 C1658 0.930 . S
H1650 C1663 0.929 1_545 S
H1651 C1661 0.929 . S
H1652 C1656 0.929 . S
H1653 C1662 0.929 . S
C1654 H1648 0.930 . S
C1654 C1655 1.367 . S
C1654 C1662 1.378 . S
C1655 C1654 1.367 . S
C1655 C1663 1.433 . S
C1656 H1652 0.929 . S
C1656 C1658 1.378 . S
C1656 C1660 1.350 . S
C1657 C1660 1.463 . S
C1657 C1662 1.350 . S
C1657 N1665 1.427 . S
C1658 H1649 0.930 . S
C1658 C1656 1.378 . S
C1658 C1659 1.367 . S
C1659 C1658 1.367 . S
C1659 C1661 1.433 . S
C1660 C1656 1.350 . S
C1660 C1657 1.463 . S
C1660 N1664 1.427 . S
C1661 H1651 0.929 . S
C1661 C1659 1.433 . S
C1661 N1664 1.384 . S
C1662 H1653 0.929 . S
C1662 C1654 1.378 . S
C1662 C1657 1.350 . S
C1663 H1650 0.929 1_565 S
C1663 C1655 1.433 . S
C1663 N1665 1.384 . S
N1664 C1660 1.427 . S
N1664 C1661 1.384 . S
N1665 C1657 1.427 . S
N1665 C1663 1.384 . S
H1666 C1672 0.930 . S
H1667 C1676 0.930 . S
H1668 C1681 0.929 . S
H1669 C1679 0.929 . S
H1670 C1674 0.929 . S
H1671 C1680 0.929 . S
C1672 H1666 0.930 . S
C1672 C1673 1.367 . S
C1672 C1680 1.378 . S
C1673 C1672 1.367 . S
C1673 C1681 1.433 . S
C1674 H1670 0.929 . S
C1674 C1676 1.378 . S
C1674 C1678 1.350 . S
C1675 C1678 1.463 . S
C1675 C1680 1.350 . S
C1675 N1683 1.427 . S
C1676 H1667 0.930 . S
C1676 C1674 1.378 . S
C1676 C1677 1.367 . S
C1677 C1676 1.367 . S
C1677 C1679 1.433 . S
C1678 C1674 1.350 . S
C1678 C1675 1.463 . S
C1678 N1682 1.427 . S
C1679 H1669 0.929 . S
C1679 C1677 1.433 . S
C1679 N1682 1.384 . S
C1680 H1671 0.929 . S
C1680 C1672 1.378 . S
C1680 C1675 1.350 . S
C1681 H1668 0.929 . S
C1681 C1673 1.433 . S
C1681 N1683 1.384 . S
N1682 C1678 1.427 . S
N1682 C1679 1.384 . S
N1683 C1675 1.427 . S
N1683 C1681 1.384 . S
H1684 C1690 0.930 . S
H1685 C1694 0.930 . S
H1686 C1699 0.929 . S
H1687 C1697 0.929 . S
H1688 C1692 0.929 . S
H1689 C1698 0.929 . S
C1690 H1684 0.930 . S
C1690 C1691 1.367 . S
C1690 C1698 1.378 . S
C1691 C1690 1.367 . S
C1691 C1699 1.433 . S
C1692 H1688 0.929 . S
C1692 C1694 1.378 . S
C1692 C1696 1.350 . S
C1693 C1696 1.463 . S
C1693 C1698 1.350 . S
C1693 N1701 1.427 . S
C1694 H1685 0.930 . S
C1694 C1692 1.378 . S
C1694 C1695 1.367 . S
C1695 C1694 1.367 . S
C1695 C1697 1.433 . S
C1696 C1692 1.350 . S
C1696 C1693 1.463 . S
C1696 N1700 1.427 . S
C1697 H1687 0.929 . S
C1697 C1695 1.433 . S
C1697 N1700 1.384 . S
C1698 H1689 0.929 . S
C1698 C1690 1.378 . S
C1698 C1693 1.350 . S
C1699 H1686 0.929 . S
C1699 C1691 1.433 . S
C1699 N1701 1.384 . S
N1700 C1696 1.427 . S
N1700 C1697 1.384 . S
N1701 C1693 1.427 . S
N1701 C1699 1.384 . S
H1702 C1708 0.936 . S
H1703 C1712 0.930 . S
H1704 C1717 0.929 . S
H1705 C1715 0.929 . S
H1706 C1710 0.929 . S
H1707 C1716 0.929 . S
C1708 H1702 0.936 . S
C1708 C1709 1.364 1_545 S
C1708 C1716 1.375 1_545 S
C1709 C1708 1.364 1_565 S
C1709 C1717 1.433 . S
C1710 H1706 0.929 . S
C1710 C1712 1.378 . S
C1710 C1714 1.350 . S
C1711 C1714 1.463 . S
C1711 C1716 1.350 . S
C1711 N1719 1.427 . S
C1712 H1703 0.930 . S
C1712 C1710 1.378 . S
C1712 C1713 1.367 . S
C1713 C1712 1.367 . S
C1713 C1715 1.433 . S
C1714 C1710 1.350 . S
C1714 C1711 1.463 . S
C1714 N1718 1.427 . S
C1715 H1705 0.929 . S
C1715 C1713 1.433 . S
C1715 N1718 1.384 . S
C1716 H1707 0.929 . S
C1716 C1708 1.375 1_565 S
C1716 C1711 1.350 . S
C1717 H1704 0.929 . S
C1717 C1709 1.433 . S
C1717 N1719 1.384 . S
N1718 C1714 1.427 . S
N1718 C1715 1.384 . S
N1719 C1711 1.427 . S
N1719 C1717 1.384 . S
H1720 C1726 0.945 . S
H1721 C1730 0.930 . S
H1722 C1735 0.929 . S
H1723 C1733 0.929 . S
H1724 C1728 0.929 . S
H1725 C1734 0.929 . S
C1726 H1720 0.945 . S
C1726 C1727 1.360 1_565 S
C1726 C1734 1.370 1_565 S
C1727 C1726 1.360 1_545 S
C1727 C1735 1.433 . S
C1728 H1724 0.929 . S
C1728 C1730 1.378 . S
C1728 C1732 1.350 . S
C1729 C1732 1.463 . S
C1729 C1734 1.350 . S
C1729 N1737 1.427 . S
C1730 H1721 0.930 . S
C1730 C1728 1.378 . S
C1730 C1731 1.367 . S
C1731 C1730 1.367 . S
C1731 C1733 1.433 . S
C1732 C1728 1.350 . S
C1732 C1729 1.463 . S
C1732 N1736 1.427 . S
C1733 H1723 0.929 . S
C1733 C1731 1.433 . S
C1733 N1736 1.384 . S
C1734 H1725 0.929 . S
C1734 C1726 1.370 1_545 S
C1734 C1729 1.350 . S
C1735 H1722 0.929 . S
C1735 C1727 1.433 . S
C1735 N1737 1.384 . S
N1736 C1732 1.427 . S
N1736 C1733 1.384 . S
N1737 C1729 1.427 . S
N1737 C1735 1.384 . S
H1738 C1744 0.930 . S
H1739 C1748 0.930 . S
H1740 C1753 0.929 . S
H1741 C1751 0.929 . S
H1742 C1746 0.929 . S
H1743 C1752 0.929 . S
C1744 H1738 0.930 . S
C1744 C1745 1.367 . S
C1744 C1752 1.378 . S
C1745 C1744 1.367 . S
C1745 C1753 1.433 . S
C1746 H1742 0.929 . S
C1746 C1748 1.378 . S
C1746 C1750 1.350 . S
C1747 C1750 1.463 . S
C1747 C1752 1.350 . S
C1747 N1755 1.427 . S
C1748 H1739 0.930 . S
C1748 C1746 1.378 . S
C1748 C1749 1.367 . S
C1749 C1748 1.367 . S
C1749 C1751 1.433 . S
C1750 C1746 1.350 . S
C1750 C1747 1.463 . S
C1750 N1754 1.427 . S
C1751 H1741 0.929 . S
C1751 C1749 1.433 . S
C1751 N1754 1.384 . S
C1752 H1743 0.929 . S
C1752 C1744 1.378 . S
C1752 C1747 1.350 . S
C1753 H1740 0.929 . S
C1753 C1745 1.433 . S
C1753 N1755 1.384 . S
N1754 C1750 1.427 . S
N1754 C1751 1.384 . S
N1755 C1747 1.427 . S
N1755 C1753 1.384 . S
H1756 C1762 0.930 . S
H1757 C1766 0.930 . S
H1758 C1771 0.929 . S
H1759 C1769 0.929 . S
H1760 C1764 0.929 . S
H1761 C1770 0.929 . S
C1762 H1756 0.930 . S
C1762 C1763 1.367 . S
C1762 C1770 1.378 . S
C1763 C1762 1.367 . S
C1763 C1771 1.433 . S
C1764 H1760 0.929 . S
C1764 C1766 1.378 . S
C1764 C1768 1.350 . S
C1765 C1768 1.463 . S
C1765 C1770 1.350 . S
C1765 N1773 1.427 . S
C1766 H1757 0.930 . S
C1766 C1764 1.378 . S
C1766 C1767 1.367 . S
C1767 C1766 1.367 . S
C1767 C1769 1.433 . S
C1768 C1764 1.350 . S
C1768 C1765 1.463 . S
C1768 N1772 1.427 . S
C1769 H1759 0.929 . S
C1769 C1767 1.433 . S
C1769 N1772 1.384 . S
C1770 H1761 0.929 . S
C1770 C1762 1.378 . S
C1770 C1765 1.350 . S
C1771 H1758 0.929 . S
C1771 C1763 1.433 . S
C1771 N1773 1.384 . S
N1772 C1768 1.427 . S
N1772 C1769 1.384 . S
N1773 C1765 1.427 . S
N1773 C1771 1.384 . S
H1774 C1780 0.930 . S
H1775 C1784 0.937 . S
H1776 C1789 0.929 . S
H1777 C1787 0.929 . S
H1778 C1782 0.929 . S
H1779 C1788 0.929 . S
C1780 H1774 0.930 . S
C1780 C1781 1.367 . S
C1780 C1788 1.378 . S
C1781 C1780 1.367 . S
C1781 C1789 1.433 . S
C1782 H1778 0.929 . S
C1782 C1784 1.378 . S
C1782 C1786 1.350 . S
C1783 C1786 1.463 . S
C1783 C1788 1.350 . S
C1783 N1791 1.427 . S
C1784 H1775 0.937 . S
C1784 C1782 1.378 . S
C1784 C1785 1.367 . S
C1785 C1784 1.367 . S
C1785 C1787 1.433 . S
C1786 C1782 1.350 . S
C1786 C1783 1.463 . S
C1786 N1790 1.427 . S
C1787 H1777 0.929 . S
C1787 C1785 1.433 . S
C1787 N1790 1.384 . S
C1788 H1779 0.929 . S
C1788 C1780 1.378 . S
C1788 C1783 1.350 . S
C1789 H1776 0.929 . S
C1789 C1781 1.433 . S
C1789 N1791 1.384 . S
N1790 C1786 1.427 . S
N1790 C1787 1.384 . S
N1791 C1783 1.427 . S
N1791 C1789 1.384 . S
H1792 C1798 0.930 . S
H1793 C1802 0.930 . S
H1794 C1807 0.929 . S
H1795 C1805 0.929 . S
H1796 C1800 0.929 . S
H1797 C1806 0.929 . S
C1798 H1792 0.930 . S
C1798 C1799 1.367 . S
C1798 C1806 1.378 . S
C1799 C1798 1.367 . S
C1799 C1807 1.433 . S
C1800 H1796 0.929 . S
C1800 C1802 1.378 . S
C1800 C1804 1.350 . S
C1801 C1804 1.463 . S
C1801 C1806 1.350 . S
C1801 N1809 1.427 . S
C1802 H1793 0.930 . S
C1802 C1800 1.378 . S
C1802 C1803 1.367 . S
C1803 C1802 1.367 . S
C1803 C1805 1.433 . S
C1804 C1800 1.350 . S
C1804 C1801 1.463 . S
C1804 N1808 1.427 . S
C1805 H1795 0.929 . S
C1805 C1803 1.433 . S
C1805 N1808 1.384 . S
C1806 H1797 0.929 . S
C1806 C1798 1.378 . S
C1806 C1801 1.350 . S
C1807 H1794 0.929 . S
C1807 C1799 1.433 . S
C1807 N1809 1.384 . S
N1808 C1804 1.427 . S
N1808 C1805 1.384 . S
N1809 C1801 1.427 . S
N1809 C1807 1.384 . S
H1810 C1816 0.930 . S
H1811 C1820 0.930 . S
H1812 C1825 0.929 . S
H1813 C1823 0.929 . S
H1814 C1818 0.929 . S
H1815 C1824 0.929 . S
C1816 H1810 0.930 . S
C1816 C1817 1.367 . S
C1816 C1824 1.378 . S
C1817 C1816 1.367 . S
C1817 C1825 1.433 . S
C1818 H1814 0.929 . S
C1818 C1820 1.378 . S
C1818 C1822 1.350 . S
C1819 C1822 1.463 . S
C1819 C1824 1.350 . S
C1819 N1827 1.427 . S
C1820 H1811 0.930 . S
C1820 C1818 1.378 . S
C1820 C1821 1.367 . S
C1821 C1820 1.367 . S
C1821 C1823 1.433 . S
C1822 C1818 1.350 . S
C1822 C1819 1.463 . S
C1822 N1826 1.427 . S
C1823 H1813 0.929 . S
C1823 C1821 1.433 . S
C1823 N1826 1.384 . S
C1824 H1815 0.929 . S
C1824 C1816 1.378 . S
C1824 C1819 1.350 . S
C1825 H1812 0.929 . S
C1825 C1817 1.433 . S
C1825 N1827 1.384 . S
N1826 C1822 1.427 . S
N1826 C1823 1.384 . S
N1827 C1819 1.427 . S
N1827 C1825 1.384 . S
H1828 C1834 0.930 . S
H1829 C1838 0.930 . S
H1830 C1843 0.929 . S
H1831 C1841 0.929 . S
H1832 C1836 0.929 . S
H1833 C1842 0.929 . S
C1834 H1828 0.930 . S
C1834 C1835 1.367 . S
C1834 C1842 1.378 . S
C1835 C1834 1.367 . S
C1835 C1843 1.433 . S
C1836 H1832 0.929 . S
C1836 C1838 1.378 . S
C1836 C1840 1.350 . S
C1837 C1840 1.463 . S
C1837 C1842 1.350 . S
C1837 N1845 1.427 . S
C1838 H1829 0.930 . S
C1838 C1836 1.378 . S
C1838 C1839 1.367 . S
C1839 C1838 1.367 . S
C1839 C1841 1.433 . S
C1840 C1836 1.350 . S
C1840 C1837 1.463 . S
C1840 N1844 1.427 . S
C1841 H1831 0.929 . S
C1841 C1839 1.433 . S
C1841 N1844 1.384 . S
C1842 H1833 0.929 . S
C1842 C1834 1.378 . S
C1842 C1837 1.350 . S
C1843 H1830 0.929 . S
C1843 C1835 1.433 . S
C1843 N1845 1.384 . S
N1844 C1840 1.427 . S
N1844 C1841 1.384 . S
N1845 C1837 1.427 . S
N1845 C1843 1.384 . S
H1846 C1852 0.930 . S
H1847 C1856 0.930 . S
H1848 C1861 0.929 . S
H1849 C1859 0.929 . S
H1850 C1854 0.929 . S
H1851 C1860 0.929 . S
C1852 H1846 0.930 . S
C1852 C1853 1.367 . S
C1852 C1860 1.378 . S
C1853 C1852 1.367 . S
C1853 C1861 1.433 . S
C1854 H1850 0.929 . S
C1854 C1856 1.378 . S
C1854 C1858 1.350 . S
C1855 C1858 1.463 . S
C1855 C1860 1.350 . S
C1855 N1863 1.427 . S
C1856 H1847 0.930 . S
C1856 C1854 1.378 . S
C1856 C1857 1.367 . S
C1857 C1856 1.367 . S
C1857 C1859 1.433 . S
C1858 C1854 1.350 . S
C1858 C1855 1.463 . S
C1858 N1862 1.427 . S
C1859 H1849 0.929 . S
C1859 C1857 1.433 . S
C1859 N1862 1.384 . S
C1860 H1851 0.929 . S
C1860 C1852 1.378 . S
C1860 C1855 1.350 . S
C1861 H1848 0.929 . S
C1861 C1853 1.433 . S
C1861 N1863 1.384 . S
N1862 C1858 1.427 . S
N1862 C1859 1.384 . S
N1863 C1855 1.427 . S
N1863 C1861 1.384 . S
H1864 C1870 0.930 . S
H1865 C1874 0.930 . S
H1866 C1879 0.929 . S
H1867 C1877 0.929 . S
H1868 C1872 0.929 . S
H1869 C1878 0.929 . S
C1870 H1864 0.930 . S
C1870 C1871 1.367 . S
C1870 C1878 1.378 . S
C1871 C1870 1.367 . S
C1871 C1879 1.433 . S
C1872 H1868 0.929 . S
C1872 C1874 1.378 . S
C1872 C1876 1.350 . S
C1873 C1876 1.463 . S
C1873 C1878 1.350 . S
C1873 N1881 1.427 . S
C1874 H1865 0.930 . S
C1874 C1872 1.378 . S
C1874 C1875 1.367 . S
C1875 C1874 1.367 . S
C1875 C1877 1.433 . S
C1876 C1872 1.350 . S
C1876 C1873 1.463 . S
C1876 N1880 1.427 . S
C1877 H1867 0.929 . S
C1877 C1875 1.433 . S
C1877 N1880 1.384 . S
C1878 H1869 0.929 . S
C1878 C1870 1.378 . S
C1878 C1873 1.350 . S
C1879 H1866 0.929 . S
C1879 C1871 1.433 . S
C1879 N1881 1.384 . S
N1880 C1876 1.427 . S
N1880 C1877 1.384 . S
N1881 C1873 1.427 . S
N1881 C1879 1.384 . S
H1882 C1888 0.930 . S
H1883 C1892 0.930 . S
H1884 C1897 0.929 . S
H1885 C1895 0.929 . S
H1886 C1890 0.929 . S
H1887 C1896 0.929 . S
C1888 H1882 0.930 . S
C1888 C1889 1.367 . S
C1888 C1896 1.378 . S
C1889 C1888 1.367 . S
C1889 C1897 1.433 . S
C1890 H1886 0.929 . S
C1890 C1892 1.378 . S
C1890 C1894 1.350 . S
C1891 C1894 1.463 . S
C1891 C1896 1.350 . S
C1891 N1899 1.427 . S
C1892 H1883 0.930 . S
C1892 C1890 1.378 . S
C1892 C1893 1.367 . S
C1893 C1892 1.367 . S
C1893 C1895 1.433 . S
C1894 C1890 1.350 . S
C1894 C1891 1.463 . S
C1894 N1898 1.427 . S
C1895 H1885 0.929 . S
C1895 C1893 1.433 . S
C1895 N1898 1.384 . S
C1896 H1887 0.929 . S
C1896 C1888 1.378 . S
C1896 C1891 1.350 . S
C1897 H1884 0.929 . S
C1897 C1889 1.433 . S
C1897 N1899 1.384 . S
N1898 C1894 1.427 . S
N1898 C1895 1.384 . S
N1899 C1891 1.427 . S
N1899 C1897 1.384 . S
H1900 C1906 0.930 . S
H1901 C1910 0.930 . S
H1902 C1915 0.929 . S
H1903 C1913 0.929 . S
H1904 C1908 0.929 . S
H1905 C1914 0.929 . S
C1906 H1900 0.930 . S
C1906 C1907 1.367 . S
C1906 C1914 1.378 . S
C1907 C1906 1.367 . S
C1907 C1915 1.433 . S
C1908 H1904 0.929 . S
C1908 C1910 1.378 . S
C1908 C1912 1.350 . S
C1909 C1912 1.463 . S
C1909 C1914 1.350 . S
C1909 N1917 1.427 . S
C1910 H1901 0.930 . S
C1910 C1908 1.378 . S
C1910 C1911 1.367 . S
C1911 C1910 1.367 . S
C1911 C1913 1.433 . S
C1912 C1908 1.350 . S
C1912 C1909 1.463 . S
C1912 N1916 1.427 . S
C1913 H1903 0.929 . S
C1913 C1911 1.433 . S
C1913 N1916 1.384 . S
C1914 H1905 0.929 . S
C1914 C1906 1.378 . S
C1914 C1909 1.350 . S
C1915 H1902 0.929 . S
C1915 C1907 1.433 . S
C1915 N1917 1.384 . S
N1916 C1912 1.427 . S
N1916 C1913 1.384 . S
N1917 C1909 1.427 . S
N1917 C1915 1.384 . S
H1918 C1924 0.930 . S
H1919 C1928 0.930 . S
H1920 C1933 0.929 . S
H1921 C1931 0.929 . S
H1922 C1926 0.929 . S
H1923 C1932 0.929 . S
C1924 H1918 0.930 . S
C1924 C1925 1.367 . S
C1924 C1932 1.378 . S
C1925 C1924 1.367 . S
C1925 C1933 1.433 . S
C1926 H1922 0.929 . S
C1926 C1928 1.378 . S
C1926 C1930 1.350 . S
C1927 C1930 1.463 . S
C1927 C1932 1.350 . S
C1927 N1935 1.427 . S
C1928 H1919 0.930 . S
C1928 C1926 1.378 . S
C1928 C1929 1.367 . S
C1929 C1928 1.367 . S
C1929 C1931 1.433 . S
C1930 C1926 1.350 . S
C1930 C1927 1.463 . S
C1930 N1934 1.427 . S
C1931 H1921 0.929 . S
C1931 C1929 1.433 . S
C1931 N1934 1.384 . S
C1932 H1923 0.929 . S
C1932 C1924 1.378 . S
C1932 C1927 1.350 . S
C1933 H1920 0.929 . S
C1933 C1925 1.433 . S
C1933 N1935 1.384 . S
N1934 C1930 1.427 . S
N1934 C1931 1.384 . S
N1935 C1927 1.427 . S
N1935 C1933 1.384 . S
H1936 C1942 0.930 . S
H1937 C1946 0.930 . S
H1938 C1951 0.939 . S
H1939 C1949 0.929 . S
H1940 C1944 0.929 . S
H1941 C1950 0.929 . S
C1942 H1936 0.930 . S
C1942 C1943 1.367 . S
C1942 C1950 1.378 . S
C1943 C1942 1.367 . S
C1943 C1951 1.428 1_566 S
C1944 H1940 0.929 . S
C1944 C1946 1.378 . S
C1944 C1948 1.350 . S
C1945 C1948 1.463 . S
C1945 C1950 1.350 1_554 S
C1945 N1953 1.427 . S
C1946 H1937 0.930 . S
C1946 C1944 1.378 . S
C1946 C1947 1.367 . S
C1947 C1946 1.367 . S
C1947 C1949 1.433 . S
C1948 C1944 1.350 . S
C1948 C1945 1.463 . S
C1948 N1952 1.427 . S
C1949 H1939 0.929 . S
C1949 C1947 1.433 . S
C1949 N1952 1.384 . S
C1950 H1941 0.929 . S
C1950 C1942 1.378 . S
C1950 C1945 1.350 1_556 S
C1951 H1938 0.939 . S
C1951 C1943 1.428 1_544 S
C1951 N1953 1.378 1_545 S
N1952 C1948 1.427 . S
N1952 C1949 1.384 . S
N1953 C1945 1.427 . S
N1953 C1951 1.378 1_565 S
H1954 C1960 0.930 . S
H1955 C1964 0.930 . S
H1956 C1969 0.929 . S
H1957 C1967 0.929 . S
H1958 C1962 0.929 1_556 S
H1959 C1968 0.929 . S
C1960 H1954 0.930 . S
C1960 C1961 1.367 1_554 S
C1960 C1968 1.378 . S
C1961 C1960 1.367 1_556 S
C1961 C1969 1.433 . S
C1962 H1958 0.929 1_554 S
C1962 C1964 1.378 . S
C1962 C1966 1.350 . S
C1963 C1966 1.463 . S
C1963 C1968 1.350 . S
C1963 N1971 1.427 1_554 S
C1964 H1955 0.930 . S
C1964 C1962 1.378 . S
C1964 C1965 1.367 . S
C1965 C1964 1.367 . S
C1965 C1967 1.433 . S
C1966 C1962 1.350 . S
C1966 C1963 1.463 . S
C1966 N1970 1.427 . S
C1967 H1957 0.929 . S
C1967 C1965 1.433 . S
C1967 N1970 1.384 . S
C1968 H1959 0.929 . S
C1968 C1960 1.378 . S
C1968 C1963 1.350 . S
C1969 H1956 0.929 . S
C1969 C1961 1.433 . S
C1969 N1971 1.384 . S
N1970 C1966 1.427 . S
N1970 C1967 1.384 . S
N1971 C1963 1.427 1_556 S
N1971 C1969 1.384 . S
H1972 C1978 0.930 . S
H1973 C1982 0.930 . S
H1974 C1987 0.929 . S
H1975 C1985 0.929 . S
H1976 C1980 0.929 . S
H1977 C1986 0.929 . S
C1978 H1972 0.930 . S
C1978 C1979 1.367 . S
C1978 C1986 1.378 . S
C1979 C1978 1.367 . S
C1979 C1987 1.433 . S
C1980 H1976 0.929 . S
C1980 C1982 1.378 . S
C1980 C1984 1.350 . S
C1981 C1984 1.463 . S
C1981 C1986 1.350 . S
C1981 N1989 1.427 . S
C1982 H1973 0.930 . S
C1982 C1980 1.378 . S
C1982 C1983 1.367 . S
C1983 C1982 1.367 . S
C1983 C1985 1.433 . S
C1984 C1980 1.350 . S
C1984 C1981 1.463 . S
C1984 N1988 1.427 . S
C1985 H1975 0.929 . S
C1985 C1983 1.433 . S
C1985 N1988 1.384 . S
C1986 H1977 0.929 . S
C1986 C1978 1.378 . S
C1986 C1981 1.350 . S
C1987 H1974 0.929 . S
C1987 C1979 1.433 . S
C1987 N1989 1.384 . S
N1988 C1984 1.427 . S
N1988 C1985 1.384 . S
N1989 C1981 1.427 . S
N1989 C1987 1.384 . S
H1990 C1996 0.930 . S
H1991 C2000 0.930 . S
H1992 C2005 0.929 . S
H1993 C2003 0.929 1_545 S
H1994 C1998 0.929 . S
H1995 C2004 0.929 . S
C1996 H1990 0.930 . S
C1996 C1997 1.367 . S
C1996 C2004 1.378 . S
C1997 C1996 1.367 . S
C1997 C2005 1.433 . S
C1998 H1994 0.929 . S
C1998 C2000 1.378 . S
C1998 C2002 1.350 . S
C1999 C2002 1.463 . S
C1999 C2004 1.350 . S
C1999 N2007 1.427 . S
C2000 H1991 0.930 . S
C2000 C1998 1.378 . S
C2000 C2001 1.367 . S
C2001 C2000 1.367 . S
C2001 C2003 1.433 . S
C2002 C1998 1.350 . S
C2002 C1999 1.463 . S
C2002 N2006 1.427 . S
C2003 H1993 0.929 1_565 S
C2003 C2001 1.433 . S
C2003 N2006 1.384 . S
C2004 H1995 0.929 . S
C2004 C1996 1.378 . S
C2004 C1999 1.350 . S
C2005 H1992 0.929 . S
C2005 C1997 1.433 . S
C2005 N2007 1.384 . S
N2006 C2002 1.427 . S
N2006 C2003 1.384 . S
N2007 C1999 1.427 . S
N2007 C2005 1.384 . S
H2008 C2014 0.930 . S
H2009 C2018 0.930 . S
H2010 C2023 0.929 1_554 S
H2011 C2021 0.929 . S
H2012 C2016 0.929 . S
H2013 C2022 0.929 . S
C2014 H2008 0.930 . S
C2014 C2015 1.367 . S
C2014 C2022 1.378 . S
C2015 C2014 1.367 . S
C2015 C2023 1.433 . S
C2016 H2012 0.929 . S
C2016 C2018 1.378 . S
C2016 C2020 1.350 1_554 S
C2017 C2020 1.463 . S
C2017 C2022 1.350 . S
C2017 N2025 1.427 1_556 S
C2018 H2009 0.930 . S
C2018 C2016 1.378 . S
C2018 C2019 1.367 . S
C2019 C2018 1.367 . S
C2019 C2021 1.433 1_554 S
C2020 C2016 1.350 1_556 S
C2020 C2017 1.463 . S
C2020 N2024 1.427 . S
C2021 H2011 0.929 . S
C2021 C2019 1.433 1_556 S
C2021 N2024 1.384 . S
C2022 H2013 0.929 . S
C2022 C2014 1.378 . S
C2022 C2017 1.350 . S
C2023 H2010 0.929 1_556 S
C2023 C2015 1.433 . S
C2023 N2025 1.384 1_556 S
N2024 C2020 1.427 . S
N2024 C2021 1.384 . S
N2025 C2017 1.427 1_554 S
N2025 C2023 1.384 1_554 S
H2026 C2032 0.930 . S
H2027 C2036 0.930 . S
H2028 C2041 0.929 1_554 S
H2029 C2039 0.929 . S
H2030 C2034 0.929 . S
H2031 C2040 0.929 . S
C2032 H2026 0.930 . S
C2032 C2033 1.367 . S
C2032 C2040 1.378 . S
C2033 C2032 1.367 . S
C2033 C2041 1.433 . S
C2034 H2030 0.929 . S
C2034 C2036 1.378 . S
C2034 C2038 1.350 1_554 S
C2035 C2038 1.463 . S
C2035 C2040 1.350 . S
C2035 N2043 1.427 1_556 S
C2036 H2027 0.930 . S
C2036 C2034 1.378 . S
C2036 C2037 1.367 . S
C2037 C2036 1.367 . S
C2037 C2039 1.433 1_554 S
C2038 C2034 1.350 1_556 S
C2038 C2035 1.463 . S
C2038 N2042 1.427 . S
C2039 H2029 0.929 . S
C2039 C2037 1.433 1_556 S
C2039 N2042 1.384 . S
C2040 H2031 0.929 . S
C2040 C2032 1.378 . S
C2040 C2035 1.350 . S
C2041 H2028 0.929 1_556 S
C2041 C2033 1.433 . S
C2041 N2043 1.384 1_556 S
N2042 C2038 1.427 . S
N2042 C2039 1.384 . S
N2043 C2035 1.427 1_554 S
N2043 C2041 1.384 1_554 S
H2044 C2050 0.930 . S
H2045 C2054 0.930 . S
H2046 C2059 0.929 . S
H2047 C2057 0.929 . S
H2048 C2052 0.929 . S
H2049 C2058 0.929 . S
C2050 H2044 0.930 . S
C2050 C2051 1.367 . S
C2050 C2058 1.378 . S
C2051 C2050 1.367 . S
C2051 C2059 1.433 . S
C2052 H2048 0.929 . S
C2052 C2054 1.378 . S
C2052 C2056 1.350 . S
C2053 C2056 1.463 . S
C2053 C2058 1.350 . S
C2053 N2061 1.427 . S
C2054 H2045 0.930 . S
C2054 C2052 1.378 . S
C2054 C2055 1.367 . S
C2055 C2054 1.367 . S
C2055 C2057 1.433 . S
C2056 C2052 1.350 . S
C2056 C2053 1.463 . S
C2056 N2060 1.427 . S
C2057 H2047 0.929 . S
C2057 C2055 1.433 . S
C2057 N2060 1.384 . S
C2058 H2049 0.929 . S
C2058 C2050 1.378 . S
C2058 C2053 1.350 . S
C2059 H2046 0.929 . S
C2059 C2051 1.433 . S
C2059 N2061 1.384 . S
N2060 C2056 1.427 . S
N2060 C2057 1.384 . S
N2061 C2053 1.427 . S
N2061 C2059 1.384 . S
H2062 C2068 0.930 . S
H2063 C2072 0.930 . S
H2064 C2077 0.929 . S
H2065 C2075 0.929 1_565 S
H2066 C2070 0.929 . S
H2067 C2076 0.929 . S
C2068 H2062 0.930 . S
C2068 C2069 1.367 . S
C2068 C2076 1.378 . S
C2069 C2068 1.367 . S
C2069 C2077 1.433 . S
C2070 H2066 0.929 . S
C2070 C2072 1.378 . S
C2070 C2074 1.350 . S
C2071 C2074 1.463 . S
C2071 C2076 1.350 . S
C2071 N2079 1.427 . S
C2072 H2063 0.930 . S
C2072 C2070 1.378 . S
C2072 C2073 1.367 . S
C2073 C2072 1.367 . S
C2073 C2075 1.433 . S
C2074 C2070 1.350 . S
C2074 C2071 1.463 . S
C2074 N2078 1.427 . S
C2075 H2065 0.929 1_545 S
C2075 C2073 1.433 . S
C2075 N2078 1.384 . S
C2076 H2067 0.929 . S
C2076 C2068 1.378 . S
C2076 C2071 1.350 . S
C2077 H2064 0.929 . S
C2077 C2069 1.433 . S
C2077 N2079 1.384 . S
N2078 C2074 1.427 . S
N2078 C2075 1.384 . S
N2079 C2071 1.427 . S
N2079 C2077 1.384 . S
H2080 C2086 0.930 . S
H2081 C2090 0.930 . S
H2082 C2095 0.937 . S
H2083 C2093 0.929 . S
H2084 C2088 0.929 . S
H2085 C2094 0.929 . S
C2086 H2080 0.930 . S
C2086 C2087 1.367 . S
C2086 C2094 1.378 . S
C2087 C2086 1.367 . S
C2087 C2095 1.424 1_655 S
C2088 H2084 0.929 . S
C2088 C2090 1.378 . S
C2088 C2092 1.350 1_455 S
C2089 C2092 1.463 . S
C2089 C2094 1.350 . S
C2089 N2097 1.427 1_655 S
C2090 H2081 0.930 . S
C2090 C2088 1.378 . S
C2090 C2091 1.364 1_455 S
C2091 C2090 1.364 1_655 S
C2091 C2093 1.437 . S
C2092 C2088 1.350 1_655 S
C2092 C2089 1.463 . S
C2092 N2096 1.427 . S
C2093 H2083 0.929 . S
C2093 C2091 1.437 . S
C2093 N2096 1.384 . S
C2094 H2085 0.929 . S
C2094 C2086 1.378 . S
C2094 C2089 1.350 . S
C2095 H2082 0.937 . S
C2095 C2087 1.424 1_455 S
C2095 N2097 1.385 . S
N2096 C2092 1.427 . S
N2096 C2093 1.384 . S
N2097 C2089 1.427 1_455 S
N2097 C2095 1.385 . S
H2098 C2104 0.930 . S
H2099 C2108 0.930 . S
H2100 C2113 0.929 . S
H2101 C2111 0.929 . S
H2102 C2106 0.929 . S
H2103 C2112 0.929 . S
C2104 H2098 0.930 . S
C2104 C2105 1.367 1_545 S
C2104 C2112 1.378 . S
C2105 C2104 1.367 1_565 S
C2105 C2113 1.433 . S
C2106 H2102 0.929 . S
C2106 C2108 1.378 . S
C2106 C2110 1.350 . S
C2107 C2110 1.463 . S
C2107 C2112 1.350 . S
C2107 N2115 1.427 . S
C2108 H2099 0.930 . S
C2108 C2106 1.378 . S
C2108 C2109 1.367 . S
C2109 C2108 1.367 . S
C2109 C2111 1.433 . S
C2110 C2106 1.350 . S
C2110 C2107 1.463 . S
C2110 N2114 1.427 . S
C2111 H2101 0.929 . S
C2111 C2109 1.433 . S
C2111 N2114 1.384 . S
C2112 H2103 0.929 . S
C2112 C2104 1.378 . S
C2112 C2107 1.350 . S
C2113 H2100 0.929 . S
C2113 C2105 1.433 . S
C2113 N2115 1.384 1_565 S
N2114 C2110 1.427 . S
N2114 C2111 1.384 . S
N2115 C2107 1.427 . S
N2115 C2113 1.384 1_545 S
H2116 C2122 0.930 . S
H2117 C2126 0.930 . S
H2118 C2131 0.929 . S
H2119 C2129 0.929 . S
H2120 C2124 0.929 . S
H2121 C2130 0.929 . S
C2122 H2116 0.930 . S
C2122 C2123 1.367 . S
C2122 C2130 1.378 . S
C2123 C2122 1.367 . S
C2123 C2131 1.433 1_655 S
C2124 H2120 0.929 . S
C2124 C2126 1.378 . S
C2124 C2128 1.350 1_455 S
C2125 C2128 1.463 . S
C2125 C2130 1.350 . S
C2125 N2133 1.427 1_655 S
C2126 H2117 0.930 . S
C2126 C2124 1.378 . S
C2126 C2127 1.364 1_445 S
C2127 C2126 1.364 1_665 S
C2127 C2129 1.436 . S
C2128 C2124 1.350 1_655 S
C2128 C2125 1.463 . S
C2128 N2132 1.427 . S
C2129 H2119 0.929 . S
C2129 C2127 1.436 . S
C2129 N2132 1.384 1_565 S
C2130 H2121 0.929 . S
C2130 C2122 1.378 . S
C2130 C2125 1.350 . S
C2131 H2118 0.929 . S
C2131 C2123 1.433 1_455 S
C2131 N2133 1.384 . S
N2132 C2128 1.427 . S
N2132 C2129 1.384 1_545 S
N2133 C2125 1.427 1_455 S
N2133 C2131 1.384 . S
H2134 C2140 0.930 . S
H2135 C2144 0.930 . S
H2136 C2149 0.929 . S
H2137 C2147 0.929 . S
H2138 C2142 0.929 . S
H2139 C2148 0.929 . S
C2140 H2134 0.930 . S
C2140 C2141 1.367 . S
C2140 C2148 1.378 . S
C2141 C2140 1.367 . S
C2141 C2149 1.433 . S
C2142 H2138 0.929 . S
C2142 C2144 1.378 . S
C2142 C2146 1.350 . S
C2143 C2146 1.463 . S
C2143 C2148 1.350 . S
C2143 N2151 1.427 . S
C2144 H2135 0.930 . S
C2144 C2142 1.378 . S
C2144 C2145 1.367 . S
C2145 C2144 1.367 . S
C2145 C2147 1.433 . S
C2146 C2142 1.350 . S
C2146 C2143 1.463 . S
C2146 N2150 1.427 . S
C2147 H2137 0.929 . S
C2147 C2145 1.433 . S
C2147 N2150 1.384 . S
C2148 H2139 0.929 . S
C2148 C2140 1.378 . S
C2148 C2143 1.350 . S
C2149 H2136 0.929 . S
C2149 C2141 1.433 . S
C2149 N2151 1.384 . S
N2150 C2146 1.427 . S
N2150 C2147 1.384 . S
N2151 C2143 1.427 . S
N2151 C2149 1.384 . S
H2152 C2158 0.930 . S
H2153 C2162 0.930 . S
H2154 C2167 0.929 . S
H2155 C2165 0.929 . S
H2156 C2160 0.929 . S
H2157 C2166 0.929 . S
C2158 H2152 0.930 . S
C2158 C2159 1.367 . S
C2158 C2166 1.378 . S
C2159 C2158 1.367 . S
C2159 C2167 1.433 1_455 S
C2160 H2156 0.929 . S
C2160 C2162 1.378 . S
C2160 C2164 1.350 1_655 S
C2161 C2164 1.463 . S
C2161 C2166 1.350 . S
C2161 N2169 1.427 1_455 S
C2162 H2153 0.930 . S
C2162 C2160 1.378 . S
C2162 C2163 1.365 1_655 S
C2163 C2162 1.365 1_455 S
C2163 C2165 1.436 . S
C2164 C2160 1.350 1_455 S
C2164 C2161 1.463 . S
C2164 N2168 1.427 . S
C2165 H2155 0.929 . S
C2165 C2163 1.436 . S
C2165 N2168 1.384 . S
C2166 H2157 0.929 . S
C2166 C2158 1.378 . S
C2166 C2161 1.350 . S
C2167 H2154 0.929 . S
C2167 C2159 1.433 1_655 S
C2167 N2169 1.384 . S
N2168 C2164 1.427 . S
N2168 C2165 1.384 . S
N2169 C2161 1.427 1_655 S
N2169 C2167 1.384 . S
H2170 C2176 0.930 . S
H2171 C2180 0.930 . S
H2172 C2185 0.929 . S
H2173 C2183 0.929 . S
H2174 C2178 0.929 . S
H2175 C2184 0.929 . S
C2176 H2170 0.930 . S
C2176 C2177 1.367 1_565 S
C2176 C2184 1.378 . S
C2177 C2176 1.367 1_545 S
C2177 C2185 1.433 . S
C2178 H2174 0.929 . S
C2178 C2180 1.378 . S
C2178 C2182 1.350 . S
C2179 C2182 1.463 . S
C2179 C2184 1.350 . S
C2179 N2187 1.427 . S
C2180 H2171 0.930 . S
C2180 C2178 1.378 . S
C2180 C2181 1.367 . S
C2181 C2180 1.367 . S
C2181 C2183 1.433 . S
C2182 C2178 1.350 . S
C2182 C2179 1.463 . S
C2182 N2186 1.427 . S
C2183 H2173 0.929 . S
C2183 C2181 1.433 . S
C2183 N2186 1.384 . S
C2184 H2175 0.929 . S
C2184 C2176 1.378 . S
C2184 C2179 1.350 . S
C2185 H2172 0.929 . S
C2185 C2177 1.433 . S
C2185 N2187 1.384 1_545 S
N2186 C2182 1.427 . S
N2186 C2183 1.384 . S
N2187 C2179 1.427 . S
N2187 C2185 1.384 1_565 S
H2188 C2194 0.930 . S
H2189 C2198 0.929 . S
H2190 C2203 0.929 . S
H2191 C2201 0.935 . S
H2192 C2196 0.929 . S
H2193 C2202 0.929 . S
C2194 H2188 0.930 . S
C2194 C2195 1.367 . S
C2194 C2202 1.378 . S
C2195 C2194 1.367 . S
C2195 C2203 1.433 . S
C2196 H2192 0.929 . S
C2196 C2198 1.385 . S
C2196 C2200 1.350 . S
C2197 C2200 1.463 . S
C2197 C2202 1.350 . S
C2197 N2205 1.427 . S
C2198 H2189 0.929 . S
C2198 C2196 1.385 . S
C2198 C2199 1.366 1_565 S
C2199 C2198 1.366 1_545 S
C2199 C2201 1.435 . S
C2200 C2196 1.350 . S
C2200 C2197 1.463 . S
C2200 N2204 1.427 . S
C2201 H2191 0.935 . S
C2201 C2199 1.435 . S
C2201 N2204 1.384 1_545 S
C2202 H2193 0.929 . S
C2202 C2194 1.378 . S
C2202 C2197 1.350 . S
C2203 H2190 0.929 . S
C2203 C2195 1.433 . S
C2203 N2205 1.384 . S
N2204 C2200 1.427 . S
N2204 C2201 1.384 1_565 S
N2205 C2197 1.427 . S
N2205 C2203 1.384 . S
H2206 C2212 0.930 . S
H2207 C2216 0.930 . S
H2208 C2221 0.929 . S
H2209 C2219 0.929 . S
H2210 C2214 0.929 . S
H2211 C2220 0.929 . S
C2212 H2206 0.930 . S
C2212 C2213 1.367 . S
C2212 C2220 1.378 . S
C2213 C2212 1.367 . S
C2213 C2221 1.433 . S
C2214 H2210 0.929 . S
C2214 C2216 1.378 . S
C2214 C2218 1.350 . S
C2215 C2218 1.463 . S
C2215 C2220 1.350 . S
C2215 N2223 1.427 . S
C2216 H2207 0.930 . S
C2216 C2214 1.378 . S
C2216 C2217 1.367 . S
C2217 C2216 1.367 . S
C2217 C2219 1.433 . S
C2218 C2214 1.350 . S
C2218 C2215 1.463 . S
C2218 N2222 1.427 . S
C2219 H2209 0.929 . S
C2219 C2217 1.433 . S
C2219 N2222 1.384 . S
C2220 H2211 0.929 . S
C2220 C2212 1.378 . S
C2220 C2215 1.350 . S
C2221 H2208 0.929 . S
C2221 C2213 1.433 . S
C2221 N2223 1.384 . S
N2222 C2218 1.427 . S
N2222 C2219 1.384 . S
N2223 C2215 1.427 . S
N2223 C2221 1.384 . S
H2224 C2230 0.930 . S
H2225 C2234 0.930 . S
H2226 C2239 0.929 . S
H2227 C2237 0.929 . S
H2228 C2232 0.929 . S
H2229 C2238 0.929 . S
C2230 H2224 0.930 . S
C2230 C2231 1.390 . S
C2230 C2238 1.378 . S
C2231 C2230 1.390 . S
C2231 C2239 1.414 1_655 S
C2232 H2228 0.929 . S
C2232 C2234 1.378 . S
C2232 C2236 1.350 1_455 S
C2233 C2236 1.463 . S
C2233 C2238 1.350 . S
C2233 N2241 1.427 1_655 S
C2234 H2225 0.930 . S
C2234 C2232 1.378 . S
C2234 C2235 1.367 1_455 S
C2235 C2234 1.367 1_655 S
C2235 C2237 1.433 . S
C2236 C2232 1.350 1_655 S
C2236 C2233 1.463 . S
C2236 N2240 1.427 . S
C2237 H2227 0.929 . S
C2237 C2235 1.433 . S
C2237 N2240 1.384 . S
C2238 H2229 0.929 . S
C2238 C2230 1.378 . S
C2238 C2233 1.350 . S
C2239 H2226 0.929 . S
C2239 C2231 1.414 1_455 S
C2239 N2241 1.384 . S
N2240 C2236 1.427 . S
N2240 C2237 1.384 . S
N2241 C2233 1.427 1_455 S
N2241 C2239 1.384 . S
H2242 C2248 0.930 . S
H2243 C2252 0.930 . S
H2244 C2257 0.929 . S
H2245 C2255 0.929 . S
H2246 C2250 0.929 . S
H2247 C2256 0.929 . S
C2248 H2242 0.930 . S
C2248 C2249 1.367 . S
C2248 C2256 1.378 . S
C2249 C2248 1.367 . S
C2249 C2257 1.433 . S
C2250 H2246 0.929 . S
C2250 C2252 1.378 . S
C2250 C2254 1.350 . S
C2251 C2254 1.463 . S
C2251 C2256 1.350 . S
C2251 N2259 1.427 . S
C2252 H2243 0.930 . S
C2252 C2250 1.378 . S
C2252 C2253 1.367 . S
C2253 C2252 1.367 . S
C2253 C2255 1.433 . S
C2254 C2250 1.350 . S
C2254 C2251 1.463 . S
C2254 N2258 1.427 . S
C2255 H2245 0.929 . S
C2255 C2253 1.433 . S
C2255 N2258 1.384 . S
C2256 H2247 0.929 . S
C2256 C2248 1.378 . S
C2256 C2251 1.350 . S
C2257 H2244 0.929 . S
C2257 C2249 1.433 . S
C2257 N2259 1.384 . S
N2258 C2254 1.427 . S
N2258 C2255 1.384 . S
N2259 C2251 1.427 . S
N2259 C2257 1.384 . S
H2260 C2266 0.930 . S
H2261 C2270 0.930 . S
H2262 C2275 0.929 . S
H2263 C2273 0.929 . S
H2264 C2268 0.929 . S
H2265 C2274 0.929 . S
C2266 H2260 0.930 . S
C2266 C2267 1.372 1_455 S
C2266 C2274 1.378 . S
C2267 C2266 1.372 1_655 S
C2267 C2275 1.428 . S
C2268 H2264 0.929 . S
C2268 C2270 1.378 . S
C2268 C2272 1.350 . S
C2269 C2272 1.463 . S
C2269 C2274 1.350 1_655 S
C2269 N2277 1.427 . S
C2270 H2261 0.930 . S
C2270 C2268 1.378 . S
C2270 C2271 1.367 . S
C2271 C2270 1.367 . S
C2271 C2273 1.433 1_655 S
C2272 C2268 1.350 . S
C2272 C2269 1.463 . S
C2272 N2276 1.427 1_655 S
C2273 H2263 0.929 . S
C2273 C2271 1.433 1_455 S
C2273 N2276 1.384 . S
C2274 H2265 0.929 . S
C2274 C2266 1.378 . S
C2274 C2269 1.350 1_455 S
C2275 H2262 0.929 . S
C2275 C2267 1.428 . S
C2275 N2277 1.384 . S
N2276 C2272 1.427 1_455 S
N2276 C2273 1.384 . S
N2277 C2269 1.427 . S
N2277 C2275 1.384 . S
H2278 C2284 0.930 . S
H2279 C2288 0.930 . S
H2280 C2293 0.929 . S
H2281 C2291 0.929 . S
H2282 C2286 0.929 . S
H2283 C2292 0.929 . S
C2284 H2278 0.930 . S
C2284 C2285 1.367 . S
C2284 C2292 1.378 . S
C2285 C2284 1.367 . S
C2285 C2293 1.433 . S
C2286 H2282 0.929 . S
C2286 C2288 1.378 . S
C2286 C2290 1.350 . S
C2287 C2290 1.463 . S
C2287 C2292 1.350 . S
C2287 N2295 1.427 . S
C2288 H2279 0.930 . S
C2288 C2286 1.378 . S
C2288 C2289 1.367 . S
C2289 C2288 1.367 . S
C2289 C2291 1.433 . S
C2290 C2286 1.350 . S
C2290 C2287 1.463 . S
C2290 N2294 1.427 . S
C2291 H2281 0.929 . S
C2291 C2289 1.433 . S
C2291 N2294 1.384 . S
C2292 H2283 0.929 . S
C2292 C2284 1.378 . S
C2292 C2287 1.350 . S
C2293 H2280 0.929 . S
C2293 C2285 1.433 . S
C2293 N2295 1.384 . S
N2294 C2290 1.427 . S
N2294 C2291 1.384 . S
N2295 C2287 1.427 . S
N2295 C2293 1.384 . S
H2296 C2302 0.930 . S
H2297 C2306 0.930 . S
H2298 C2311 0.929 . S
H2299 C2309 0.929 . S
H2300 C2304 0.929 . S
H2301 C2310 0.929 . S
C2302 H2296 0.930 . S
C2302 C2303 1.365 1_655 S
C2302 C2310 1.378 . S
C2303 C2302 1.365 1_455 S
C2303 C2311 1.436 . S
C2304 H2300 0.929 . S
C2304 C2306 1.378 . S
C2304 C2308 1.350 . S
C2305 C2308 1.463 . S
C2305 C2310 1.350 1_455 S
C2305 N2313 1.427 . S
C2306 H2297 0.930 . S
C2306 C2304 1.378 . S
C2306 C2307 1.367 . S
C2307 C2306 1.367 . S
C2307 C2309 1.433 1_455 S
C2308 C2304 1.350 . S
C2308 C2305 1.463 . S
C2308 N2312 1.427 1_455 S
C2309 H2299 0.929 . S
C2309 C2307 1.433 1_655 S
C2309 N2312 1.384 . S
C2310 H2301 0.929 . S
C2310 C2302 1.378 . S
C2310 C2305 1.350 1_655 S
C2311 H2298 0.929 . S
C2311 C2303 1.436 . S
C2311 N2313 1.384 . S
N2312 C2308 1.427 1_655 S
N2312 C2309 1.384 . S
N2313 C2305 1.427 . S
N2313 C2311 1.384 . S
H2314 C2320 0.930 . S
H2315 C2324 0.930 . S
H2316 C2329 0.929 . S
H2317 C2327 0.929 . S
H2318 C2322 0.929 . S
H2319 C2328 0.929 . S
C2320 H2314 0.930 . S
C2320 C2321 1.367 . S
C2320 C2328 1.378 . S
C2321 C2320 1.367 . S
C2321 C2329 1.433 . S
C2322 H2318 0.929 . S
C2322 C2324 1.378 . S
C2322 C2326 1.350 . S
C2323 C2326 1.463 . S
C2323 C2328 1.350 . S
C2323 N2331 1.427 . S
C2324 H2315 0.930 . S
C2324 C2322 1.378 . S
C2324 C2325 1.367 . S
C2325 C2324 1.367 . S
C2325 C2327 1.433 . S
C2326 C2322 1.350 . S
C2326 C2323 1.463 . S
C2326 N2330 1.427 . S
C2327 H2317 0.929 . S
C2327 C2325 1.433 . S
C2327 N2330 1.384 . S
C2328 H2319 0.929 . S
C2328 C2320 1.378 . S
C2328 C2323 1.350 . S
C2329 H2316 0.929 . S
C2329 C2321 1.433 . S
C2329 N2331 1.384 . S
N2330 C2326 1.427 . S
N2330 C2327 1.384 . S
N2331 C2323 1.427 . S
N2331 C2329 1.384 . S
H2332 C2338 0.930 . S
H2333 C2342 0.930 . S
H2334 C2347 0.929 . S
H2335 C2345 0.909 1_655 S
H2336 C2340 0.929 . S
H2337 C2346 0.929 . S
C2338 H2332 0.930 . S
C2338 C2339 1.364 1_655 S
C2338 C2346 1.378 . S
C2339 C2338 1.364 1_455 S
C2339 C2347 1.437 . S
C2340 H2336 0.929 . S
C2340 C2342 1.378 . S
C2340 C2344 1.350 . S
C2341 C2344 1.463 . S
C2341 C2346 1.350 1_455 S
C2341 N2349 1.427 . S
C2342 H2333 0.930 . S
C2342 C2340 1.378 . S
C2342 C2343 1.367 . S
C2343 C2342 1.367 . S
C2343 C2345 1.466 . S
C2344 C2340 1.350 . S
C2344 C2341 1.463 . S
C2344 N2348 1.419 1_455 S
C2345 H2335 0.909 1_455 S
C2345 C2343 1.466 . S
C2345 N2348 1.379 1_455 S
C2346 H2337 0.929 . S
C2346 C2338 1.378 . S
C2346 C2341 1.350 1_655 S
C2347 H2334 0.929 . S
C2347 C2339 1.437 . S
C2347 N2349 1.384 . S
N2348 C2344 1.419 1_655 S
N2348 C2345 1.379 1_655 S
N2349 C2341 1.427 . S
N2349 C2347 1.384 . S
H2350 C2356 0.930 . S
H2351 C2360 0.930 . S
H2352 C2365 0.929 . S
H2353 C2363 0.929 . S
H2354 C2358 0.929 . S
H2355 C2364 0.929 . S
C2356 H2350 0.930 . S
C2356 C2357 1.367 . S
C2356 C2364 1.378 . S
C2357 C2356 1.367 . S
C2357 C2365 1.433 . S
C2358 H2354 0.929 . S
C2358 C2360 1.378 . S
C2358 C2362 1.350 . S
C2359 C2362 1.463 . S
C2359 C2364 1.350 . S
C2359 N2367 1.427 . S
C2360 H2351 0.930 . S
C2360 C2358 1.378 . S
C2360 C2361 1.367 . S
C2361 C2360 1.367 . S
C2361 C2363 1.433 . S
C2362 C2358 1.350 . S
C2362 C2359 1.463 . S
C2362 N2366 1.427 . S
C2363 H2353 0.929 . S
C2363 C2361 1.433 . S
C2363 N2366 1.384 . S
C2364 H2355 0.929 . S
C2364 C2356 1.378 . S
C2364 C2359 1.350 . S
C2365 H2352 0.929 . S
C2365 C2357 1.433 . S
C2365 N2367 1.384 . S
N2366 C2362 1.427 . S
N2366 C2363 1.384 . S
N2367 C2359 1.427 . S
N2367 C2365 1.384 . S
H2368 C2374 0.930 . S
H2369 C2378 0.930 . S
H2370 C2383 0.929 . S
H2371 C2381 0.929 . S
H2372 C2376 0.929 . S
H2373 C2382 0.929 . S
C2374 H2368 0.930 . S
C2374 C2375 1.367 . S
C2374 C2382 1.378 . S
C2375 C2374 1.367 . S
C2375 C2383 1.433 . S
C2376 H2372 0.929 . S
C2376 C2378 1.378 . S
C2376 C2380 1.350 . S
C2377 C2380 1.463 . S
C2377 C2382 1.350 . S
C2377 N2385 1.427 . S
C2378 H2369 0.930 . S
C2378 C2376 1.378 . S
C2378 C2379 1.367 . S
C2379 C2378 1.367 . S
C2379 C2381 1.433 . S
C2380 C2376 1.350 . S
C2380 C2377 1.463 . S
C2380 N2384 1.427 . S
C2381 H2371 0.929 . S
C2381 C2379 1.433 . S
C2381 N2384 1.384 . S
C2382 H2373 0.929 . S
C2382 C2374 1.378 . S
C2382 C2377 1.350 . S
C2383 H2370 0.929 . S
C2383 C2375 1.433 . S
C2383 N2385 1.384 . S
N2384 C2380 1.427 . S
N2384 C2381 1.384 . S
N2385 C2377 1.427 . S
N2385 C2383 1.384 . S
H2386 C2392 0.930 . S
H2387 C2396 0.930 . S
H2388 C2401 0.929 . S
H2389 C2399 0.929 . S
H2390 C2394 0.929 . S
H2391 C2400 0.929 . S
C2392 H2386 0.930 . S
C2392 C2393 1.367 1_545 S
C2392 C2400 1.378 . S
C2393 C2392 1.367 1_565 S
C2393 C2401 1.433 . S
C2394 H2390 0.929 . S
C2394 C2396 1.378 . S
C2394 C2398 1.350 . S
C2395 C2398 1.463 . S
C2395 C2400 1.350 . S
C2395 N2403 1.427 . S
C2396 H2387 0.930 . S
C2396 C2394 1.378 . S
C2396 C2397 1.367 . S
C2397 C2396 1.367 . S
C2397 C2399 1.433 . S
C2398 C2394 1.350 . S
C2398 C2395 1.463 . S
C2398 N2402 1.427 . S
C2399 H2389 0.929 . S
C2399 C2397 1.433 . S
C2399 N2402 1.384 . S
C2400 H2391 0.929 . S
C2400 C2392 1.378 . S
C2400 C2395 1.350 . S
C2401 H2388 0.929 . S
C2401 C2393 1.433 . S
C2401 N2403 1.384 1_565 S
N2402 C2398 1.427 . S
N2402 C2399 1.384 . S
N2403 C2395 1.427 . S
N2403 C2401 1.384 1_545 S
H2404 C2410 0.930 . S
H2405 C2414 0.930 1_565 S
H2406 C2419 0.929 . S
H2407 C2417 0.929 . S
H2408 C2412 0.929 . S
H2409 C2418 0.929 . S
C2410 H2404 0.930 . S
C2410 C2411 1.367 . S
C2410 C2418 1.378 . S
C2411 C2410 1.367 . S
C2411 C2419 1.433 . S
C2412 H2408 0.929 . S
C2412 C2414 1.378 . S
C2412 C2416 1.350 . S
C2413 C2416 1.463 . S
C2413 C2418 1.350 . S
C2413 N2421 1.427 . S
C2414 H2405 0.930 1_545 S
C2414 C2412 1.378 . S
C2414 C2415 1.367 1_545 S
C2415 C2414 1.367 1_565 S
C2415 C2417 1.433 1_565 S
C2416 C2412 1.350 . S
C2416 C2413 1.463 . S
C2416 N2420 1.427 . S
C2417 H2407 0.929 . S
C2417 C2415 1.433 1_545 S
C2417 N2420 1.384 . S
C2418 H2409 0.929 . S
C2418 C2410 1.378 . S
C2418 C2413 1.350 . S
C2419 H2406 0.929 . S
C2419 C2411 1.433 . S
C2419 N2421 1.384 . S
N2420 C2416 1.427 . S
N2420 C2417 1.384 . S
N2421 C2413 1.427 . S
N2421 C2419 1.384 . S
H2422 C2428 0.930 . S
H2423 C2432 0.930 . S
H2424 C2437 0.929 . S
H2425 C2435 0.929 . S
H2426 C2430 0.929 . S
H2427 C2436 0.929 . S
C2428 H2422 0.930 . S
C2428 C2429 1.367 . S
C2428 C2436 1.378 . S
C2429 C2428 1.367 . S
C2429 C2437 1.433 . S
C2430 H2426 0.929 . S
C2430 C2432 1.378 . S
C2430 C2434 1.350 . S
C2431 C2434 1.463 . S
C2431 C2436 1.350 . S
C2431 N2439 1.427 . S
C2432 H2423 0.930 . S
C2432 C2430 1.378 . S
C2432 C2433 1.367 . S
C2433 C2432 1.367 . S
C2433 C2435 1.433 . S
C2434 C2430 1.350 . S
C2434 C2431 1.463 . S
C2434 N2438 1.427 . S
C2435 H2425 0.929 . S
C2435 C2433 1.433 . S
C2435 N2438 1.384 . S
C2436 H2427 0.929 . S
C2436 C2428 1.378 . S
C2436 C2431 1.350 . S
C2437 H2424 0.929 . S
C2437 C2429 1.433 . S
C2437 N2439 1.384 . S
N2438 C2434 1.427 . S
N2438 C2435 1.384 . S
N2439 C2431 1.427 . S
N2439 C2437 1.384 . S
H2440 C2446 0.930 . S
H2441 C2450 0.930 . S
H2442 C2455 0.929 . S
H2443 C2453 0.929 . S
H2444 C2448 0.929 . S
H2445 C2454 0.929 . S
C2446 H2440 0.930 . S
C2446 C2447 1.367 . S
C2446 C2454 1.378 . S
C2447 C2446 1.367 . S
C2447 C2455 1.433 . S
C2448 H2444 0.929 . S
C2448 C2450 1.378 . S
C2448 C2452 1.350 . S
C2449 C2452 1.463 . S
C2449 C2454 1.350 . S
C2449 N2457 1.427 . S
C2450 H2441 0.930 . S
C2450 C2448 1.378 . S
C2450 C2451 1.367 . S
C2451 C2450 1.367 . S
C2451 C2453 1.433 . S
C2452 C2448 1.350 . S
C2452 C2449 1.463 . S
C2452 N2456 1.427 . S
C2453 H2443 0.929 . S
C2453 C2451 1.433 . S
C2453 N2456 1.384 . S
C2454 H2445 0.929 . S
C2454 C2446 1.378 . S
C2454 C2449 1.350 . S
C2455 H2442 0.929 . S
C2455 C2447 1.433 . S
C2455 N2457 1.384 . S
N2456 C2452 1.427 . S
N2456 C2453 1.384 . S
N2457 C2449 1.427 . S
N2457 C2455 1.384 . S
H2458 C2464 0.930 . S
H2459 C2468 0.930 . S
H2460 C2473 0.929 . S
H2461 C2471 0.929 . S
H2462 C2466 0.929 . S
H2463 C2472 0.929 . S
C2464 H2458 0.930 . S
C2464 C2465 1.367 1_565 S
C2464 C2472 1.378 . S
C2465 C2464 1.367 1_545 S
C2465 C2473 1.433 . S
C2466 H2462 0.929 . S
C2466 C2468 1.378 . S
C2466 C2470 1.350 . S
C2467 C2470 1.463 . S
C2467 C2472 1.350 . S
C2467 N2475 1.427 . S
C2468 H2459 0.930 . S
C2468 C2466 1.378 . S
C2468 C2469 1.367 . S
C2469 C2468 1.367 . S
C2469 C2471 1.433 . S
C2470 C2466 1.350 . S
C2470 C2467 1.463 . S
C2470 N2474 1.427 . S
C2471 H2461 0.929 . S
C2471 C2469 1.433 . S
C2471 N2474 1.384 . S
C2472 H2463 0.929 . S
C2472 C2464 1.378 . S
C2472 C2467 1.350 . S
C2473 H2460 0.929 . S
C2473 C2465 1.433 . S
C2473 N2475 1.384 1_545 S
N2474 C2470 1.427 . S
N2474 C2471 1.384 . S
N2475 C2467 1.427 . S
N2475 C2473 1.384 1_565 S
H2476 C2482 0.930 . S
H2477 C2486 0.930 . S
H2478 C2491 0.929 . S
H2479 C2489 0.929 . S
H2480 C2484 0.929 . S
H2481 C2490 0.929 . S
C2482 H2476 0.930 . S
C2482 C2483 1.367 . S
C2482 C2490 1.378 . S
C2483 C2482 1.367 . S
C2483 C2491 1.433 . S
C2484 H2480 0.929 . S
C2484 C2486 1.378 1_565 S
C2484 C2488 1.350 . S
C2485 C2488 1.463 . S
C2485 C2490 1.350 . S
C2485 N2493 1.427 . S
C2486 H2477 0.930 . S
C2486 C2484 1.378 1_545 S
C2486 C2487 1.367 . S
C2487 C2486 1.367 . S
C2487 C2489 1.433 1_545 S
C2488 C2484 1.350 . S
C2488 C2485 1.463 . S
C2488 N2492 1.427 . S
C2489 H2479 0.929 . S
C2489 C2487 1.433 1_565 S
C2489 N2492 1.384 . S
C2490 H2481 0.929 . S
C2490 C2482 1.378 . S
C2490 C2485 1.350 . S
C2491 H2478 0.929 . S
C2491 C2483 1.433 . S
C2491 N2493 1.384 . S
N2492 C2488 1.427 . S
N2492 C2489 1.384 . S
N2493 C2485 1.427 . S
N2493 C2491 1.384 . S
H2494 C2500 0.930 . S
H2495 C2504 0.930 . S
H2496 C2509 0.929 . S
H2497 C2507 0.929 . S
H2498 C2502 0.929 . S
H2499 C2508 0.929 . S
C2500 H2494 0.930 . S
C2500 C2501 1.367 . S
C2500 C2508 1.378 . S
C2501 C2500 1.367 . S
C2501 C2509 1.433 . S
C2502 H2498 0.929 . S
C2502 C2504 1.378 . S
C2502 C2506 1.350 . S
C2503 C2506 1.463 . S
C2503 C2508 1.350 . S
C2503 N2511 1.427 . S
C2504 H2495 0.930 . S
C2504 C2502 1.378 . S
C2504 C2505 1.367 . S
C2505 C2504 1.367 . S
C2505 C2507 1.433 . S
C2506 C2502 1.350 . S
C2506 C2503 1.463 . S
C2506 N2510 1.427 . S
C2507 H2497 0.929 . S
C2507 C2505 1.433 . S
C2507 N2510 1.384 . S
C2508 H2499 0.929 . S
C2508 C2500 1.378 . S
C2508 C2503 1.350 . S
C2509 H2496 0.929 . S
C2509 C2501 1.433 . S
C2509 N2511 1.384 . S
N2510 C2506 1.427 . S
N2510 C2507 1.384 . S
N2511 C2503 1.427 . S
N2511 C2509 1.384 . S
H2512 C2518 0.930 . S
H2513 C2522 0.930 . S
H2514 C2527 0.929 . S
H2515 C2525 0.929 . S
H2516 C2520 0.929 . S
H2517 C2526 0.929 . S
C2518 H2512 0.930 . S
C2518 C2519 1.367 . S
C2518 C2526 1.378 . S
C2519 C2518 1.367 . S
C2519 C2527 1.433 . S
C2520 H2516 0.929 . S
C2520 C2522 1.378 . S
C2520 C2524 1.350 . S
C2521 C2524 1.463 . S
C2521 C2526 1.350 . S
C2521 N2529 1.427 . S
C2522 H2513 0.930 . S
C2522 C2520 1.378 . S
C2522 C2523 1.367 . S
C2523 C2522 1.367 . S
C2523 C2525 1.433 . S
C2524 C2520 1.350 . S
C2524 C2521 1.463 . S
C2524 N2528 1.427 . S
C2525 H2515 0.929 . S
C2525 C2523 1.433 . S
C2525 N2528 1.384 . S
C2526 H2517 0.929 . S
C2526 C2518 1.378 . S
C2526 C2521 1.350 . S
C2527 H2514 0.929 . S
C2527 C2519 1.433 . S
C2527 N2529 1.384 . S
N2528 C2524 1.427 . S
N2528 C2525 1.384 . S
N2529 C2521 1.427 . S
N2529 C2527 1.384 . S
H2530 C2536 0.930 . S
H2531 C2540 0.930 . S
H2532 C2545 0.929 . S
H2533 C2543 0.929 . S
H2534 C2538 0.929 . S
H2535 C2544 0.929 . S
C2536 H2530 0.930 . S
C2536 C2537 1.367 . S
C2536 C2544 1.378 . S
C2537 C2536 1.367 . S
C2537 C2545 1.433 . S
C2538 H2534 0.929 . S
C2538 C2540 1.378 . S
C2538 C2542 1.350 . S
C2539 C2542 1.463 . S
C2539 C2544 1.350 . S
C2539 N2547 1.427 . S
C2540 H2531 0.930 . S
C2540 C2538 1.378 . S
C2540 C2541 1.367 . S
C2541 C2540 1.367 . S
C2541 C2543 1.433 . S
C2542 C2538 1.350 . S
C2542 C2539 1.463 . S
C2542 N2546 1.427 . S
C2543 H2533 0.929 . S
C2543 C2541 1.433 . S
C2543 N2546 1.384 . S
C2544 H2535 0.929 . S
C2544 C2536 1.378 . S
C2544 C2539 1.350 . S
C2545 H2532 0.929 . S
C2545 C2537 1.433 . S
C2545 N2547 1.384 . S
N2546 C2542 1.427 . S
N2546 C2543 1.384 . S
N2547 C2539 1.427 . S
N2547 C2545 1.384 . S
H2548 C2554 0.930 . S
H2549 C2558 0.930 . S
H2550 C2563 0.929 . S
H2551 C2561 0.929 . S
H2552 C2556 0.929 . S
H2553 C2562 0.929 . S
C2554 H2548 0.930 . S
C2554 C2555 1.367 . S
C2554 C2562 1.378 . S
C2555 C2554 1.367 . S
C2555 C2563 1.433 . S
C2556 H2552 0.929 . S
C2556 C2558 1.378 . S
C2556 C2560 1.350 . S
C2557 C2560 1.463 . S
C2557 C2562 1.350 . S
C2557 N2565 1.427 . S
C2558 H2549 0.930 . S
C2558 C2556 1.378 . S
C2558 C2559 1.367 . S
C2559 C2558 1.367 . S
C2559 C2561 1.433 . S
C2560 C2556 1.350 . S
C2560 C2557 1.463 . S
C2560 N2564 1.427 . S
C2561 H2551 0.929 . S
C2561 C2559 1.433 . S
C2561 N2564 1.384 . S
C2562 H2553 0.929 . S
C2562 C2554 1.378 . S
C2562 C2557 1.350 . S
C2563 H2550 0.929 . S
C2563 C2555 1.433 . S
C2563 N2565 1.384 . S
N2564 C2560 1.427 . S
N2564 C2561 1.384 . S
N2565 C2557 1.427 . S
N2565 C2563 1.384 . S
H2566 C2572 0.930 . S
H2567 C2576 0.930 . S
H2568 C2581 0.929 . S
H2569 C2579 0.929 . S
H2570 C2574 0.929 . S
H2571 C2580 0.929 . S
C2572 H2566 0.930 . S
C2572 C2573 1.367 . S
C2572 C2580 1.378 . S
C2573 C2572 1.367 . S
C2573 C2581 1.433 . S
C2574 H2570 0.929 . S
C2574 C2576 1.378 . S
C2574 C2578 1.350 . S
C2575 C2578 1.463 . S
C2575 C2580 1.350 . S
C2575 N2583 1.427 . S
C2576 H2567 0.930 . S
C2576 C2574 1.378 . S
C2576 C2577 1.367 . S
C2577 C2576 1.367 . S
C2577 C2579 1.433 . S
C2578 C2574 1.350 . S
C2578 C2575 1.463 . S
C2578 N2582 1.427 . S
C2579 H2569 0.929 . S
C2579 C2577 1.433 . S
C2579 N2582 1.384 . S
C2580 H2571 0.929 . S
C2580 C2572 1.378 . S
C2580 C2575 1.350 . S
C2581 H2568 0.929 . S
C2581 C2573 1.433 . S
C2581 N2583 1.384 . S
N2582 C2578 1.427 . S
N2582 C2579 1.384 . S
N2583 C2575 1.427 . S
N2583 C2581 1.384 . S
H2584 C2590 0.930 . S
H2585 C2594 0.930 . S
H2586 C2599 0.929 . S
H2587 C2597 0.929 . S
H2588 C2592 0.929 . S
H2589 C2598 0.929 . S
C2590 H2584 0.930 . S
C2590 C2591 1.367 . S
C2590 C2598 1.378 . S
C2591 C2590 1.367 . S
C2591 C2599 1.433 . S
C2592 H2588 0.929 . S
C2592 C2594 1.378 . S
C2592 C2596 1.350 . S
C2593 C2596 1.463 . S
C2593 C2598 1.350 . S
C2593 N2601 1.427 . S
C2594 H2585 0.930 . S
C2594 C2592 1.378 . S
C2594 C2595 1.367 . S
C2595 C2594 1.367 . S
C2595 C2597 1.433 . S
C2596 C2592 1.350 . S
C2596 C2593 1.463 . S
C2596 N2600 1.427 . S
C2597 H2587 0.929 . S
C2597 C2595 1.433 . S
C2597 N2600 1.384 . S
C2598 H2589 0.929 . S
C2598 C2590 1.378 . S
C2598 C2593 1.350 . S
C2599 H2586 0.929 . S
C2599 C2591 1.433 . S
C2599 N2601 1.384 . S
N2600 C2596 1.427 . S
N2600 C2597 1.384 . S
N2601 C2593 1.427 . S
N2601 C2599 1.384 . S
H2602 C2608 0.930 . S
H2603 C2612 0.930 . S
H2604 C2617 0.929 . S
H2605 C2615 0.929 . S
H2606 C2610 0.929 . S
H2607 C2616 0.929 . S
C2608 H2602 0.930 . S
C2608 C2609 1.367 . S
C2608 C2616 1.378 . S
C2609 C2608 1.367 . S
C2609 C2617 1.433 . S
C2610 H2606 0.929 . S
C2610 C2612 1.378 . S
C2610 C2614 1.350 . S
C2611 C2614 1.463 . S
C2611 C2616 1.350 . S
C2611 N2619 1.427 . S
C2612 H2603 0.930 . S
C2612 C2610 1.378 . S
C2612 C2613 1.367 . S
C2613 C2612 1.367 . S
C2613 C2615 1.433 . S
C2614 C2610 1.350 . S
C2614 C2611 1.463 . S
C2614 N2618 1.427 . S
C2615 H2605 0.929 . S
C2615 C2613 1.433 . S
C2615 N2618 1.384 . S
C2616 H2607 0.929 . S
C2616 C2608 1.378 . S
C2616 C2611 1.350 . S
C2617 H2604 0.929 . S
C2617 C2609 1.433 . S
C2617 N2619 1.384 . S
N2618 C2614 1.427 . S
N2618 C2615 1.384 . S
N2619 C2611 1.427 . S
N2619 C2617 1.384 . S
H2620 C2626 0.930 . S
H2621 C2630 0.930 . S
H2622 C2635 0.929 . S
H2623 C2633 0.929 . S
H2624 C2628 0.929 . S
H2625 C2634 0.929 . S
C2626 H2620 0.930 . S
C2626 C2627 1.367 . S
C2626 C2634 1.378 . S
C2627 C2626 1.367 . S
C2627 C2635 1.433 . S
C2628 H2624 0.929 . S
C2628 C2630 1.378 . S
C2628 C2632 1.350 . S
C2629 C2632 1.463 . S
C2629 C2634 1.350 . S
C2629 N2637 1.427 . S
C2630 H2621 0.930 . S
C2630 C2628 1.378 . S
C2630 C2631 1.367 . S
C2631 C2630 1.367 . S
C2631 C2633 1.433 . S
C2632 C2628 1.350 . S
C2632 C2629 1.463 . S
C2632 N2636 1.427 . S
C2633 H2623 0.929 . S
C2633 C2631 1.433 . S
C2633 N2636 1.384 . S
C2634 H2625 0.929 . S
C2634 C2626 1.378 . S
C2634 C2629 1.350 . S
C2635 H2622 0.929 . S
C2635 C2627 1.433 . S
C2635 N2637 1.384 . S
N2636 C2632 1.427 . S
N2636 C2633 1.384 . S
N2637 C2629 1.427 . S
N2637 C2635 1.384 . S
H2638 C2644 0.930 . S
H2639 C2648 0.930 . S
H2640 C2653 0.929 . S
H2641 C2651 0.929 . S
H2642 C2646 0.929 . S
H2643 C2652 0.929 . S
C2644 H2638 0.930 . S
C2644 C2645 1.367 . S
C2644 C2652 1.378 . S
C2645 C2644 1.367 . S
C2645 C2653 1.433 . S
C2646 H2642 0.929 . S
C2646 C2648 1.378 . S
C2646 C2650 1.350 . S
C2647 C2650 1.463 . S
C2647 C2652 1.350 . S
C2647 N2655 1.427 . S
C2648 H2639 0.930 . S
C2648 C2646 1.378 . S
C2648 C2649 1.367 . S
C2649 C2648 1.367 . S
C2649 C2651 1.433 . S
C2650 C2646 1.350 . S
C2650 C2647 1.463 . S
C2650 N2654 1.427 . S
C2651 H2641 0.929 . S
C2651 C2649 1.433 . S
C2651 N2654 1.384 . S
C2652 H2643 0.929 . S
C2652 C2644 1.378 . S
C2652 C2647 1.350 . S
C2653 H2640 0.929 . S
C2653 C2645 1.433 . S
C2653 N2655 1.384 . S
N2654 C2650 1.427 . S
N2654 C2651 1.384 . S
N2655 C2647 1.427 . S
N2655 C2653 1.384 . S
H2656 C2662 0.930 . S
H2657 C2666 0.930 . S
H2658 C2671 0.929 . S
H2659 C2669 0.929 . S
H2660 C2664 0.929 . S
H2661 C2670 0.929 . S
C2662 H2656 0.930 . S
C2662 C2663 1.367 . S
C2662 C2670 1.378 . S
C2663 C2662 1.367 . S
C2663 C2671 1.433 . S
C2664 H2660 0.929 . S
C2664 C2666 1.378 . S
C2664 C2668 1.350 . S
C2665 C2668 1.463 . S
C2665 C2670 1.350 . S
C2665 N2673 1.427 . S
C2666 H2657 0.930 . S
C2666 C2664 1.378 . S
C2666 C2667 1.367 . S
C2667 C2666 1.367 . S
C2667 C2669 1.433 . S
C2668 C2664 1.350 . S
C2668 C2665 1.463 . S
C2668 N2672 1.427 . S
C2669 H2659 0.929 . S
C2669 C2667 1.433 . S
C2669 N2672 1.384 . S
C2670 H2661 0.929 . S
C2670 C2662 1.378 . S
C2670 C2665 1.350 . S
C2671 H2658 0.929 . S
C2671 C2663 1.433 . S
C2671 N2673 1.384 . S
N2672 C2668 1.427 . S
N2672 C2669 1.384 . S
N2673 C2665 1.427 . S
N2673 C2671 1.384 . S
H2674 C2680 0.930 . S
H2675 C2684 0.930 . S
H2676 C2689 0.929 . S
H2677 C2687 0.929 . S
H2678 C2682 0.929 . S
H2679 C2688 0.929 . S
C2680 H2674 0.930 . S
C2680 C2681 1.367 . S
C2680 C2688 1.378 . S
C2681 C2680 1.367 . S
C2681 C2689 1.433 . S
C2682 H2678 0.929 . S
C2682 C2684 1.378 . S
C2682 C2686 1.350 . S
C2683 C2686 1.463 . S
C2683 C2688 1.350 . S
C2683 N2691 1.427 . S
C2684 H2675 0.930 . S
C2684 C2682 1.378 . S
C2684 C2685 1.367 . S
C2685 C2684 1.367 . S
C2685 C2687 1.433 . S
C2686 C2682 1.350 . S
C2686 C2683 1.463 . S
C2686 N2690 1.427 . S
C2687 H2677 0.929 . S
C2687 C2685 1.433 . S
C2687 N2690 1.384 . S
C2688 H2679 0.929 . S
C2688 C2680 1.378 . S
C2688 C2683 1.350 . S
C2689 H2676 0.929 . S
C2689 C2681 1.433 . S
C2689 N2691 1.384 . S
N2690 C2686 1.427 . S
N2690 C2687 1.384 . S
N2691 C2683 1.427 . S
N2691 C2689 1.384 . S
H2692 C2698 0.930 . S
H2693 C2702 0.930 . S
H2694 C2707 0.929 . S
H2695 C2705 0.929 . S
H2696 C2700 0.929 . S
H2697 C2706 0.929 . S
C2698 H2692 0.930 . S
C2698 C2699 1.367 . S
C2698 C2706 1.378 . S
C2699 C2698 1.367 . S
C2699 C2707 1.433 . S
C2700 H2696 0.929 . S
C2700 C2702 1.378 . S
C2700 C2704 1.350 . S
C2701 C2704 1.463 . S
C2701 C2706 1.350 . S
C2701 N2709 1.427 . S
C2702 H2693 0.930 . S
C2702 C2700 1.378 . S
C2702 C2703 1.367 . S
C2703 C2702 1.367 . S
C2703 C2705 1.433 . S
C2704 C2700 1.350 . S
C2704 C2701 1.463 . S
C2704 N2708 1.427 . S
C2705 H2695 0.929 . S
C2705 C2703 1.433 . S
C2705 N2708 1.384 . S
C2706 H2697 0.929 . S
C2706 C2698 1.378 . S
C2706 C2701 1.350 . S
C2707 H2694 0.929 . S
C2707 C2699 1.433 . S
C2707 N2709 1.384 . S
N2708 C2704 1.427 . S
N2708 C2705 1.384 . S
N2709 C2701 1.427 . S
N2709 C2707 1.384 . S
H2710 C2716 0.930 . S
H2711 C2720 0.930 . S
H2712 C2725 0.929 . S
H2713 C2723 0.929 . S
H2714 C2718 0.929 . S
H2715 C2724 0.929 . S
C2716 H2710 0.930 . S
C2716 C2717 1.367 . S
C2716 C2724 1.378 . S
C2717 C2716 1.367 . S
C2717 C2725 1.433 . S
C2718 H2714 0.929 . S
C2718 C2720 1.378 . S
C2718 C2722 1.350 . S
C2719 C2722 1.463 . S
C2719 C2724 1.350 . S
C2719 N2727 1.427 . S
C2720 H2711 0.930 . S
C2720 C2718 1.378 . S
C2720 C2721 1.367 . S
C2721 C2720 1.367 . S
C2721 C2723 1.433 . S
C2722 C2718 1.350 . S
C2722 C2719 1.463 . S
C2722 N2726 1.427 . S
C2723 H2713 0.929 . S
C2723 C2721 1.433 . S
C2723 N2726 1.384 . S
C2724 H2715 0.929 . S
C2724 C2716 1.378 . S
C2724 C2719 1.350 . S
C2725 H2712 0.929 . S
C2725 C2717 1.433 . S
C2725 N2727 1.384 . S
N2726 C2722 1.427 . S
N2726 C2723 1.384 . S
N2727 C2719 1.427 . S
N2727 C2725 1.384 . S
H2728 C2734 0.930 . S
H2729 C2738 0.930 . S
H2730 C2743 0.929 . S
H2731 C2741 0.929 . S
H2732 C2736 0.929 . S
H2733 C2742 0.929 . S
C2734 H2728 0.930 . S
C2734 C2735 1.367 . S
C2734 C2742 1.378 . S
C2735 C2734 1.367 . S
C2735 C2743 1.433 . S
C2736 H2732 0.929 . S
C2736 C2738 1.378 . S
C2736 C2740 1.350 . S
C2737 C2740 1.463 . S
C2737 C2742 1.350 . S
C2737 N2745 1.427 . S
C2738 H2729 0.930 . S
C2738 C2736 1.378 . S
C2738 C2739 1.367 . S
C2739 C2738 1.367 . S
C2739 C2741 1.433 . S
C2740 C2736 1.350 . S
C2740 C2737 1.463 . S
C2740 N2744 1.427 . S
C2741 H2731 0.929 . S
C2741 C2739 1.433 . S
C2741 N2744 1.384 . S
C2742 H2733 0.929 . S
C2742 C2734 1.378 . S
C2742 C2737 1.350 . S
C2743 H2730 0.929 . S
C2743 C2735 1.433 . S
C2743 N2745 1.384 . S
N2744 C2740 1.427 . S
N2744 C2741 1.384 . S
N2745 C2737 1.427 . S
N2745 C2743 1.384 . S
H2746 C2752 0.930 . S
H2747 C2756 0.930 . S
H2748 C2761 0.929 . S
H2749 C2759 0.929 . S
H2750 C2754 0.929 . S
H2751 C2760 0.929 . S
C2752 H2746 0.930 . S
C2752 C2753 1.367 . S
C2752 C2760 1.378 . S
C2753 C2752 1.367 . S
C2753 C2761 1.433 . S
C2754 H2750 0.929 . S
C2754 C2756 1.378 . S
C2754 C2758 1.350 . S
C2755 C2758 1.463 . S
C2755 C2760 1.350 . S
C2755 N2763 1.427 . S
C2756 H2747 0.930 . S
C2756 C2754 1.378 . S
C2756 C2757 1.367 . S
C2757 C2756 1.367 . S
C2757 C2759 1.433 . S
C2758 C2754 1.350 . S
C2758 C2755 1.463 . S
C2758 N2762 1.427 . S
C2759 H2749 0.929 . S
C2759 C2757 1.433 . S
C2759 N2762 1.384 . S
C2760 H2751 0.929 . S
C2760 C2752 1.378 . S
C2760 C2755 1.350 . S
C2761 H2748 0.929 . S
C2761 C2753 1.433 . S
C2761 N2763 1.384 . S
N2762 C2758 1.427 . S
N2762 C2759 1.384 . S
N2763 C2755 1.427 . S
N2763 C2761 1.384 . S
H2764 C2770 0.930 . S
H2765 C2774 0.930 . S
H2766 C2779 0.929 . S
H2767 C2777 0.929 . S
H2768 C2772 0.929 . S
H2769 C2778 0.929 . S
C2770 H2764 0.930 . S
C2770 C2771 1.367 . S
C2770 C2778 1.378 . S
C2771 C2770 1.367 . S
C2771 C2779 1.433 . S
C2772 H2768 0.929 . S
C2772 C2774 1.378 . S
C2772 C2776 1.350 . S
C2773 C2776 1.463 . S
C2773 C2778 1.350 . S
C2773 N2781 1.427 . S
C2774 H2765 0.930 . S
C2774 C2772 1.378 . S
C2774 C2775 1.367 . S
C2775 C2774 1.367 . S
C2775 C2777 1.433 . S
C2776 C2772 1.350 . S
C2776 C2773 1.463 . S
C2776 N2780 1.427 . S
C2777 H2767 0.929 . S
C2777 C2775 1.433 . S
C2777 N2780 1.384 . S
C2778 H2769 0.929 . S
C2778 C2770 1.378 . S
C2778 C2773 1.350 . S
C2779 H2766 0.929 . S
C2779 C2771 1.433 . S
C2779 N2781 1.384 . S
N2780 C2776 1.427 . S
N2780 C2777 1.384 . S
N2781 C2773 1.427 . S
N2781 C2779 1.384 . S
H2782 C2788 0.930 . S
H2783 C2792 0.930 . S
H2784 C2797 0.929 . S
H2785 C2795 0.929 . S
H2786 C2790 0.929 . S
H2787 C2796 0.929 . S
C2788 H2782 0.930 . S
C2788 C2789 1.367 . S
C2788 C2796 1.378 . S
C2789 C2788 1.367 . S
C2789 C2797 1.433 . S
C2790 H2786 0.929 . S
C2790 C2792 1.378 . S
C2790 C2794 1.350 . S
C2791 C2794 1.463 . S
C2791 C2796 1.350 . S
C2791 N2799 1.427 . S
C2792 H2783 0.930 . S
C2792 C2790 1.378 . S
C2792 C2793 1.367 . S
C2793 C2792 1.367 . S
C2793 C2795 1.433 . S
C2794 C2790 1.350 . S
C2794 C2791 1.463 . S
C2794 N2798 1.427 . S
C2795 H2785 0.929 . S
C2795 C2793 1.433 . S
C2795 N2798 1.384 . S
C2796 H2787 0.929 . S
C2796 C2788 1.378 . S
C2796 C2791 1.350 . S
C2797 H2784 0.929 . S
C2797 C2789 1.433 . S
C2797 N2799 1.384 . S
N2798 C2794 1.427 . S
N2798 C2795 1.384 . S
N2799 C2791 1.427 . S
N2799 C2797 1.384 . S
H2800 C2806 0.930 . S
H2801 C2810 0.930 . S
H2802 C2815 0.929 . S
H2803 C2813 0.929 . S
H2804 C2808 0.929 . S
H2805 C2814 0.929 . S
C2806 H2800 0.930 . S
C2806 C2807 1.367 . S
C2806 C2814 1.378 . S
C2807 C2806 1.367 . S
C2807 C2815 1.433 . S
C2808 H2804 0.929 . S
C2808 C2810 1.378 . S
C2808 C2812 1.350 . S
C2809 C2812 1.463 . S
C2809 C2814 1.350 . S
C2809 N2817 1.427 . S
C2810 H2801 0.930 . S
C2810 C2808 1.378 . S
C2810 C2811 1.367 . S
C2811 C2810 1.367 . S
C2811 C2813 1.433 . S
C2812 C2808 1.350 . S
C2812 C2809 1.463 . S
C2812 N2816 1.427 . S
C2813 H2803 0.929 . S
C2813 C2811 1.433 . S
C2813 N2816 1.384 . S
C2814 H2805 0.929 . S
C2814 C2806 1.378 . S
C2814 C2809 1.350 . S
C2815 H2802 0.929 . S
C2815 C2807 1.433 . S
C2815 N2817 1.384 . S
N2816 C2812 1.427 . S
N2816 C2813 1.384 . S
N2817 C2809 1.427 . S
N2817 C2815 1.384 . S
H2818 C2824 0.930 . S
H2819 C2828 0.930 . S
H2820 C2833 0.929 . S
H2821 C2831 0.929 . S
H2822 C2826 0.929 . S
H2823 C2832 0.929 . S
C2824 H2818 0.930 . S
C2824 C2825 1.367 . S
C2824 C2832 1.378 . S
C2825 C2824 1.367 . S
C2825 C2833 1.433 . S
C2826 H2822 0.929 . S
C2826 C2828 1.378 . S
C2826 C2830 1.350 . S
C2827 C2830 1.463 . S
C2827 C2832 1.350 . S
C2827 N2835 1.427 . S
C2828 H2819 0.930 . S
C2828 C2826 1.378 . S
C2828 C2829 1.367 . S
C2829 C2828 1.367 . S
C2829 C2831 1.433 . S
C2830 C2826 1.350 . S
C2830 C2827 1.463 . S
C2830 N2834 1.427 . S
C2831 H2821 0.929 . S
C2831 C2829 1.433 . S
C2831 N2834 1.384 . S
C2832 H2823 0.929 . S
C2832 C2824 1.378 . S
C2832 C2827 1.350 . S
C2833 H2820 0.929 . S
C2833 C2825 1.433 . S
C2833 N2835 1.384 . S
N2834 C2830 1.427 . S
N2834 C2831 1.384 . S
N2835 C2827 1.427 . S
N2835 C2833 1.384 . S
H2836 C2842 0.930 . S
H2837 C2846 0.930 . S
H2838 C2851 0.929 . S
H2839 C2849 0.929 . S
H2840 C2844 0.929 . S
H2841 C2850 0.929 . S
C2842 H2836 0.930 . S
C2842 C2843 1.367 . S
C2842 C2850 1.378 . S
C2843 C2842 1.367 . S
C2843 C2851 1.433 . S
C2844 H2840 0.929 . S
C2844 C2846 1.378 . S
C2844 C2848 1.350 . S
C2845 C2848 1.463 . S
C2845 C2850 1.350 . S
C2845 N2853 1.427 . S
C2846 H2837 0.930 . S
C2846 C2844 1.378 . S
C2846 C2847 1.367 . S
C2847 C2846 1.367 . S
C2847 C2849 1.433 . S
C2848 C2844 1.350 . S
C2848 C2845 1.463 . S
C2848 N2852 1.427 . S
C2849 H2839 0.929 . S
C2849 C2847 1.433 . S
C2849 N2852 1.384 . S
C2850 H2841 0.929 . S
C2850 C2842 1.378 . S
C2850 C2845 1.350 . S
C2851 H2838 0.929 . S
C2851 C2843 1.433 . S
C2851 N2853 1.384 . S
N2852 C2848 1.427 . S
N2852 C2849 1.384 . S
N2853 C2845 1.427 . S
N2853 C2851 1.384 . S
H2854 C2860 0.930 . S
H2855 C2864 0.930 . S
H2856 C2869 0.929 . S
H2857 C2867 0.929 . S
H2858 C2862 0.929 . S
H2859 C2868 0.929 . S
C2860 H2854 0.930 . S
C2860 C2861 1.367 . S
C2860 C2868 1.378 . S
C2861 C2860 1.367 . S
C2861 C2869 1.433 . S
C2862 H2858 0.929 . S
C2862 C2864 1.378 . S
C2862 C2866 1.350 . S
C2863 C2866 1.463 . S
C2863 C2868 1.350 . S
C2863 N2871 1.427 . S
C2864 H2855 0.930 . S
C2864 C2862 1.378 . S
C2864 C2865 1.367 . S
C2865 C2864 1.367 . S
C2865 C2867 1.433 . S
C2866 C2862 1.350 . S
C2866 C2863 1.463 . S
C2866 N2870 1.427 . S
C2867 H2857 0.929 . S
C2867 C2865 1.433 . S
C2867 N2870 1.384 . S
C2868 H2859 0.929 . S
C2868 C2860 1.378 . S
C2868 C2863 1.350 . S
C2869 H2856 0.929 . S
C2869 C2861 1.433 . S
C2869 N2871 1.384 . S
N2870 C2866 1.427 . S
N2870 C2867 1.384 . S
N2871 C2863 1.427 . S
N2871 C2869 1.384 . S
H2872 C2878 0.930 . S
H2873 C2882 0.930 . S
H2874 C2887 0.929 . S
H2875 C2885 0.929 . S
H2876 C2880 0.929 . S
H2877 C2886 0.929 . S
C2878 H2872 0.930 . S
C2878 C2879 1.367 . S
C2878 C2886 1.378 . S
C2879 C2878 1.367 . S
C2879 C2887 1.433 . S
C2880 H2876 0.929 . S
C2880 C2882 1.378 . S
C2880 C2884 1.350 . S
C2881 C2884 1.463 . S
C2881 C2886 1.350 . S
C2881 N2889 1.427 . S
C2882 H2873 0.930 . S
C2882 C2880 1.378 . S
C2882 C2883 1.367 . S
C2883 C2882 1.367 . S
C2883 C2885 1.433 . S
C2884 C2880 1.350 . S
C2884 C2881 1.463 . S
C2884 N2888 1.427 . S
C2885 H2875 0.929 . S
C2885 C2883 1.433 . S
C2885 N2888 1.384 . S
C2886 H2877 0.929 . S
C2886 C2878 1.378 . S
C2886 C2881 1.350 . S
C2887 H2874 0.929 . S
C2887 C2879 1.433 . S
C2887 N2889 1.384 . S
N2888 C2884 1.427 . S
N2888 C2885 1.384 . S
N2889 C2881 1.427 . S
N2889 C2887 1.384 . S
H2890 C2896 0.930 . S
H2891 C2900 0.930 . S
H2892 C2905 0.929 . S
H2893 C2903 0.929 . S
H2894 C2898 0.929 . S
H2895 C2904 0.929 . S
C2896 H2890 0.930 . S
C2896 C2897 1.367 . S
C2896 C2904 1.378 . S
C2897 C2896 1.367 . S
C2897 C2905 1.433 . S
C2898 H2894 0.929 . S
C2898 C2900 1.378 . S
C2898 C2902 1.350 . S
C2899 C2902 1.463 . S
C2899 C2904 1.350 . S
C2899 N2907 1.427 . S
C2900 H2891 0.930 . S
C2900 C2898 1.378 . S
C2900 C2901 1.367 . S
C2901 C2900 1.367 . S
C2901 C2903 1.433 . S
C2902 C2898 1.350 . S
C2902 C2899 1.463 . S
C2902 N2906 1.427 . S
C2903 H2893 0.929 . S
C2903 C2901 1.433 . S
C2903 N2906 1.384 . S
C2904 H2895 0.929 . S
C2904 C2896 1.378 . S
C2904 C2899 1.350 . S
C2905 H2892 0.929 . S
C2905 C2897 1.433 . S
C2905 N2907 1.384 . S
N2906 C2902 1.427 . S
N2906 C2903 1.384 . S
N2907 C2899 1.427 . S
N2907 C2905 1.384 . S
H2908 C2914 0.930 . S
H2909 C2918 0.930 . S
H2910 C2923 0.929 . S
H2911 C2921 0.929 . S
H2912 C2916 0.929 . S
H2913 C2922 0.929 . S
C2914 H2908 0.930 . S
C2914 C2915 1.367 . S
C2914 C2922 1.378 . S
C2915 C2914 1.367 . S
C2915 C2923 1.433 . S
C2916 H2912 0.929 . S
C2916 C2918 1.378 . S
C2916 C2920 1.350 . S
C2917 C2920 1.463 . S
C2917 C2922 1.350 . S
C2917 N2925 1.427 . S
C2918 H2909 0.930 . S
C2918 C2916 1.378 . S
C2918 C2919 1.367 . S
C2919 C2918 1.367 . S
C2919 C2921 1.433 . S
C2920 C2916 1.350 . S
C2920 C2917 1.463 . S
C2920 N2924 1.427 . S
C2921 H2911 0.929 . S
C2921 C2919 1.433 . S
C2921 N2924 1.384 . S
C2922 H2913 0.929 . S
C2922 C2914 1.378 . S
C2922 C2917 1.350 . S
C2923 H2910 0.929 . S
C2923 C2915 1.433 . S
C2923 N2925 1.384 . S
N2924 C2920 1.427 . S
N2924 C2921 1.384 . S
N2925 C2917 1.427 . S
N2925 C2923 1.384 . S
H2926 C2932 0.930 . S
H2927 C2936 0.930 . S
H2928 C2941 0.929 . S
H2929 C2939 0.929 . S
H2930 C2934 0.929 . S
H2931 C2940 0.929 . S
C2932 H2926 0.930 . S
C2932 C2933 1.367 . S
C2932 C2940 1.378 . S
C2933 C2932 1.367 . S
C2933 C2941 1.433 . S
C2934 H2930 0.929 . S
C2934 C2936 1.378 . S
C2934 C2938 1.350 . S
C2935 C2938 1.463 . S
C2935 C2940 1.350 . S
C2935 N2943 1.427 . S
C2936 H2927 0.930 . S
C2936 C2934 1.378 . S
C2936 C2937 1.367 . S
C2937 C2936 1.367 . S
C2937 C2939 1.433 . S
C2938 C2934 1.350 . S
C2938 C2935 1.463 . S
C2938 N2942 1.427 . S
C2939 H2929 0.929 . S
C2939 C2937 1.433 . S
C2939 N2942 1.384 . S
C2940 H2931 0.929 . S
C2940 C2932 1.378 . S
C2940 C2935 1.350 . S
C2941 H2928 0.929 . S
C2941 C2933 1.433 . S
C2941 N2943 1.384 . S
N2942 C2938 1.427 . S
N2942 C2939 1.384 . S
N2943 C2935 1.427 . S
N2943 C2941 1.384 . S
H2944 C2950 0.930 . S
H2945 C2954 0.930 . S
H2946 C2959 0.929 . S
H2947 C2957 0.929 . S
H2948 C2952 0.929 . S
H2949 C2958 0.929 . S
C2950 H2944 0.930 . S
C2950 C2951 1.367 . S
C2950 C2958 1.378 . S
C2951 C2950 1.367 . S
C2951 C2959 1.433 1_656 S
C2952 H2948 0.929 . S
C2952 C2954 1.378 . S
C2952 C2956 1.373 . S
C2953 C2956 1.455 1_656 S
C2953 C2958 1.372 . S
C2953 N2961 1.413 1_656 S
C2954 H2945 0.930 . S
C2954 C2952 1.378 . S
C2954 C2955 1.367 . S
C2955 C2954 1.367 . S
C2955 C2957 1.433 1_454 S
C2956 C2952 1.373 . S
C2956 C2953 1.455 1_454 S
C2956 N2960 1.413 1_454 S
C2957 H2947 0.929 . S
C2957 C2955 1.433 1_656 S
C2957 N2960 1.384 . S
C2958 H2949 0.929 . S
C2958 C2950 1.378 . S
C2958 C2953 1.372 . S
C2959 H2946 0.929 . S
C2959 C2951 1.433 1_454 S
C2959 N2961 1.384 . S
N2960 C2956 1.413 1_656 S
N2960 C2957 1.384 . S
N2961 C2953 1.413 1_454 S
N2961 C2959 1.384 . S
H2962 C2968 0.930 . S
H2963 C2972 0.930 . S
H2964 C2977 0.923 1_556 S
H2965 C2975 0.923 1_554 S
H2966 C2970 0.929 . S
H2967 C2976 0.929 . S
C2968 H2962 0.930 . S
C2968 C2969 1.367 . S
C2968 C2976 1.378 . S
C2969 C2968 1.367 . S
C2969 C2977 1.445 . S
C2970 H2966 0.929 . S
C2970 C2972 1.378 . S
C2970 C2974 1.350 . S
C2971 C2974 1.463 1_554 S
C2971 C2976 1.350 . S
C2971 N2979 1.427 1_554 S
C2972 H2963 0.930 . S
C2972 C2970 1.378 . S
C2972 C2973 1.367 . S
C2973 C2972 1.367 . S
C2973 C2975 1.444 . S
C2974 C2970 1.350 . S
C2974 C2971 1.463 1_556 S
C2974 N2978 1.427 1_556 S
C2975 H2965 0.923 1_556 S
C2975 C2973 1.444 . S
C2975 N2978 1.379 1_556 S
C2976 H2967 0.929 . S
C2976 C2968 1.378 . S
C2976 C2971 1.350 . S
C2977 H2964 0.923 1_554 S
C2977 C2969 1.445 . S
C2977 N2979 1.379 1_554 S
N2978 C2974 1.427 1_554 S
N2978 C2975 1.379 1_554 S
N2979 C2971 1.427 1_556 S
N2979 C2977 1.379 1_556 S
H2980 C2986 0.930 . S
H2981 C2990 0.930 . S
H2982 C2995 0.929 . S
H2983 C2993 0.929 . S
H2984 C2988 0.929 . S
H2985 C2994 0.929 . S
C2986 H2980 0.930 . S
C2986 C2987 1.367 1_655 S
C2986 C2994 1.378 . S
C2987 C2986 1.367 1_455 S
C2987 C2995 1.433 . S
C2988 H2984 0.929 . S
C2988 C2990 1.378 . S
C2988 C2992 1.337 1_455 S
C2989 C2992 1.460 1_455 S
C2989 C2994 1.337 1_455 S
C2989 N2997 1.444 . S
C2990 H2981 0.930 . S
C2990 C2988 1.378 . S
C2990 C2991 1.367 1_455 S
C2991 C2990 1.367 1_655 S
C2991 C2993 1.433 . S
C2992 C2988 1.337 1_655 S
C2992 C2989 1.460 1_655 S
C2992 N2996 1.444 . S
C2993 H2983 0.929 . S
C2993 C2991 1.433 . S
C2993 N2996 1.384 . S
C2994 H2985 0.929 . S
C2994 C2986 1.378 . S
C2994 C2989 1.337 1_655 S
C2995 H2982 0.929 . S
C2995 C2987 1.433 . S
C2995 N2997 1.384 . S
N2996 C2992 1.444 . S
N2996 C2993 1.384 . S
N2997 C2989 1.444 . S
N2997 C2995 1.384 . S
H2998 C3004 0.930 . S
H2999 C3008 0.930 . S
H3000 C3013 0.929 . S
H3001 C3011 0.929 . S
H3002 C3006 0.929 . S
H3003 C3012 0.929 . S
C3004 H2998 0.930 . S
C3004 C3005 1.367 . S
C3004 C3012 1.378 . S
C3005 C3004 1.367 . S
C3005 C3013 1.433 . S
C3006 H3002 0.929 . S
C3006 C3008 1.378 . S
C3006 C3010 1.350 . S
C3007 C3010 1.463 . S
C3007 C3012 1.350 . S
C3007 N3015 1.427 . S
C3008 H2999 0.930 . S
C3008 C3006 1.378 . S
C3008 C3009 1.367 . S
C3009 C3008 1.367 . S
C3009 C3011 1.433 . S
C3010 C3006 1.350 . S
C3010 C3007 1.463 . S
C3010 N3014 1.427 . S
C3011 H3001 0.929 . S
C3011 C3009 1.433 . S
C3011 N3014 1.384 . S
C3012 H3003 0.929 . S
C3012 C3004 1.378 . S
C3012 C3007 1.350 . S
C3013 H3000 0.929 . S
C3013 C3005 1.433 . S
C3013 N3015 1.384 . S
N3014 C3010 1.427 . S
N3014 C3011 1.384 . S
N3015 C3007 1.427 . S
N3015 C3013 1.384 . S
H3016 C3022 0.930 . S
H3017 C3026 0.930 . S
H3018 C3031 0.929 . S
H3019 C3029 0.929 . S
H3020 C3024 0.929 . S
H3021 C3030 0.929 . S
C3022 H3016 0.930 . S
C3022 C3023 1.367 . S
C3022 C3030 1.378 . S
C3023 C3022 1.367 . S
C3023 C3031 1.433 1_556 S
C3024 H3020 0.929 . S
C3024 C3026 1.378 . S
C3024 C3028 1.350 . S
C3025 C3028 1.463 1_556 S
C3025 C3030 1.350 . S
C3025 N3033 1.427 1_556 S
C3026 H3017 0.930 . S
C3026 C3024 1.378 . S
C3026 C3027 1.367 . S
C3027 C3026 1.367 . S
C3027 C3029 1.433 1_554 S
C3028 C3024 1.350 . S
C3028 C3025 1.463 1_554 S
C3028 N3032 1.427 1_554 S
C3029 H3019 0.929 . S
C3029 C3027 1.433 1_556 S
C3029 N3032 1.384 . S
C3030 H3021 0.929 . S
C3030 C3022 1.378 . S
C3030 C3025 1.350 . S
C3031 H3018 0.929 . S
C3031 C3023 1.433 1_554 S
C3031 N3033 1.384 . S
N3032 C3028 1.427 1_556 S
N3032 C3029 1.384 . S
N3033 C3025 1.427 1_554 S
N3033 C3031 1.384 . S
H3034 C3040 0.930 . S
H3035 C3044 0.930 . S
H3036 C3049 0.929 . S
H3037 C3047 0.929 . S
H3038 C3042 0.929 . S
H3039 C3048 0.929 . S
C3040 H3034 0.930 . S
C3040 C3041 1.367 . S
C3040 C3048 1.378 . S
C3041 C3040 1.367 . S
C3041 C3049 1.433 1_655 S
C3042 H3038 0.929 . S
C3042 C3044 1.378 . S
C3042 C3046 1.350 . S
C3043 C3046 1.463 1_655 S
C3043 C3048 1.350 . S
C3043 N3051 1.427 1_655 S
C3044 H3035 0.930 . S
C3044 C3042 1.378 . S
C3044 C3045 1.367 . S
C3045 C3044 1.367 . S
C3045 C3047 1.433 1_455 S
C3046 C3042 1.350 . S
C3046 C3043 1.463 1_455 S
C3046 N3050 1.427 1_455 S
C3047 H3037 0.929 . S
C3047 C3045 1.433 1_655 S
C3047 N3050 1.384 . S
C3048 H3039 0.929 . S
C3048 C3040 1.378 . S
C3048 C3043 1.350 . S
C3049 H3036 0.929 . S
C3049 C3041 1.433 1_455 S
C3049 N3051 1.384 . S
N3050 C3046 1.427 1_655 S
N3050 C3047 1.384 . S
N3051 C3043 1.427 1_455 S
N3051 C3049 1.384 . S
H3052 C3058 0.930 . S
H3053 C3062 0.930 . S
H3054 C3067 0.929 . S
H3055 C3065 0.929 . S
H3056 C3060 0.929 . S
H3057 C3066 0.929 . S
C3058 H3052 0.930 . S
C3058 C3059 1.367 . S
C3058 C3066 1.378 . S
C3059 C3058 1.367 . S
C3059 C3067 1.433 . S
C3060 H3056 0.929 . S
C3060 C3062 1.378 . S
C3060 C3064 1.350 . S
C3061 C3064 1.463 . S
C3061 C3066 1.350 . S
C3061 N3069 1.427 . S
C3062 H3053 0.930 . S
C3062 C3060 1.378 . S
C3062 C3063 1.367 . S
C3063 C3062 1.367 . S
C3063 C3065 1.433 . S
C3064 C3060 1.350 . S
C3064 C3061 1.463 . S
C3064 N3068 1.427 . S
C3065 H3055 0.929 . S
C3065 C3063 1.433 . S
C3065 N3068 1.384 . S
C3066 H3057 0.929 . S
C3066 C3058 1.378 . S
C3066 C3061 1.350 . S
C3067 H3054 0.929 . S
C3067 C3059 1.433 . S
C3067 N3069 1.384 . S
N3068 C3064 1.427 . S
N3068 C3065 1.384 . S
N3069 C3061 1.427 . S
N3069 C3067 1.384 . S
H3070 C3076 0.930 . S
H3071 C3080 0.930 . S
H3072 C3085 0.929 . S
H3073 C3083 0.929 . S
H3074 C3078 0.929 . S
H3075 C3084 0.929 . S
C3076 H3070 0.930 . S
C3076 C3077 1.367 . S
C3076 C3084 1.378 . S
C3077 C3076 1.367 . S
C3077 C3085 1.433 1_455 S
C3078 H3074 0.929 . S
C3078 C3080 1.378 . S
C3078 C3082 1.391 . S
C3079 C3082 1.453 1_445 S
C3079 C3084 1.391 . S
C3079 N3087 1.395 1_455 S
C3080 H3071 0.930 . S
C3080 C3078 1.378 . S
C3080 C3081 1.367 . S
C3081 C3080 1.367 . S
C3081 C3083 1.433 1_655 S
C3082 C3078 1.391 . S
C3082 C3079 1.453 1_665 S
C3082 N3086 1.395 1_655 S
C3083 H3073 0.929 . S
C3083 C3081 1.433 1_455 S
C3083 N3086 1.384 . S
C3084 H3075 0.929 . S
C3084 C3076 1.378 . S
C3084 C3079 1.391 . S
C3085 H3072 0.929 . S
C3085 C3077 1.433 1_655 S
C3085 N3087 1.384 . S
N3086 C3082 1.395 1_455 S
N3086 C3083 1.384 . S
N3087 C3079 1.395 1_655 S
N3087 C3085 1.384 . S
H3088 C3094 0.930 . S
H3089 C3098 0.930 . S
H3090 C3103 0.929 . S
H3091 C3101 0.929 . S
H3092 C3096 0.929 . S
H3093 C3102 0.929 . S
C3094 H3088 0.930 . S
C3094 C3095 1.367 . S
C3094 C3102 1.378 . S
C3095 C3094 1.367 . S
C3095 C3103 1.433 . S
C3096 H3092 0.929 . S
C3096 C3098 1.378 . S
C3096 C3100 1.350 . S
C3097 C3100 1.463 . S
C3097 C3102 1.350 . S
C3097 N3105 1.427 . S
C3098 H3089 0.930 . S
C3098 C3096 1.378 . S
C3098 C3099 1.367 . S
C3099 C3098 1.367 . S
C3099 C3101 1.433 . S
C3100 C3096 1.350 . S
C3100 C3097 1.463 . S
C3100 N3104 1.427 . S
C3101 H3091 0.929 . S
C3101 C3099 1.433 . S
C3101 N3104 1.384 . S
C3102 H3093 0.929 . S
C3102 C3094 1.378 . S
C3102 C3097 1.350 . S
C3103 H3090 0.929 . S
C3103 C3095 1.433 . S
C3103 N3105 1.384 . S
N3104 C3100 1.427 . S
N3104 C3101 1.384 . S
N3105 C3097 1.427 . S
N3105 C3103 1.384 . S
H3106 C3112 0.930 . S
H3107 C3116 0.930 . S
H3108 C3121 0.929 . S
H3109 C3119 0.929 . S
H3110 C3114 0.929 . S
H3111 C3120 0.929 . S
C3112 H3106 0.930 . S
C3112 C3113 1.367 . S
C3112 C3120 1.378 . S
C3113 C3112 1.367 . S
C3113 C3121 1.433 . S
C3114 H3110 0.929 . S
C3114 C3116 1.378 . S
C3114 C3118 1.350 . S
C3115 C3118 1.463 1_565 S
C3115 C3120 1.350 . S
C3115 N3123 1.427 . S
C3116 H3107 0.930 . S
C3116 C3114 1.378 . S
C3116 C3117 1.367 . S
C3117 C3116 1.367 . S
C3117 C3119 1.433 . S
C3118 C3114 1.350 . S
C3118 C3115 1.463 1_545 S
C3118 N3122 1.427 . S
C3119 H3109 0.929 . S
C3119 C3117 1.433 . S
C3119 N3122 1.384 . S
C3120 H3111 0.929 . S
C3120 C3112 1.378 . S
C3120 C3115 1.350 . S
C3121 H3108 0.929 . S
C3121 C3113 1.433 . S
C3121 N3123 1.384 . S
N3122 C3118 1.427 . S
N3122 C3119 1.384 . S
N3123 C3115 1.427 . S
N3123 C3121 1.384 . S
H3124 C3130 0.930 . S
H3125 C3134 0.930 . S
H3126 C3139 0.929 . S
H3127 C3137 0.929 . S
H3128 C3132 0.929 . S
H3129 C3138 0.929 . S
C3130 H3124 0.930 . S
C3130 C3131 1.367 . S
C3130 C3138 1.378 . S
C3131 C3130 1.367 . S
C3131 C3139 1.433 . S
C3132 H3128 0.929 . S
C3132 C3134 1.378 . S
C3132 C3136 1.350 . S
C3133 C3136 1.463 . S
C3133 C3138 1.350 . S
C3133 N3141 1.427 . S
C3134 H3125 0.930 . S
C3134 C3132 1.378 . S
C3134 C3135 1.367 . S
C3135 C3134 1.367 . S
C3135 C3137 1.433 . S
C3136 C3132 1.350 . S
C3136 C3133 1.463 . S
C3136 N3140 1.427 . S
C3137 H3127 0.929 . S
C3137 C3135 1.433 . S
C3137 N3140 1.384 . S
C3138 H3129 0.929 . S
C3138 C3130 1.378 . S
C3138 C3133 1.350 . S
C3139 H3126 0.929 . S
C3139 C3131 1.433 . S
C3139 N3141 1.384 . S
N3140 C3136 1.427 . S
N3140 C3137 1.384 . S
N3141 C3133 1.427 . S
N3141 C3139 1.384 . S
H3142 C3148 0.930 . S
H3143 C3152 0.930 . S
H3144 C3157 0.929 . S
H3145 C3155 0.929 . S
H3146 C3150 0.929 . S
H3147 C3156 0.929 . S
C3148 H3142 0.930 . S
C3148 C3149 1.367 . S
C3148 C3156 1.378 . S
C3149 C3148 1.367 . S
C3149 C3157 1.433 . S
C3150 H3146 0.929 . S
C3150 C3152 1.378 . S
C3150 C3154 1.350 . S
C3151 C3154 1.463 1_565 S
C3151 C3156 1.350 . S
C3151 N3159 1.427 . S
C3152 H3143 0.930 . S
C3152 C3150 1.378 . S
C3152 C3153 1.367 . S
C3153 C3152 1.367 . S
C3153 C3155 1.433 . S
C3154 C3150 1.350 . S
C3154 C3151 1.463 1_545 S
C3154 N3158 1.427 . S
C3155 H3145 0.929 . S
C3155 C3153 1.433 . S
C3155 N3158 1.384 . S
C3156 H3147 0.929 . S
C3156 C3148 1.378 . S
C3156 C3151 1.350 . S
C3157 H3144 0.929 . S
C3157 C3149 1.433 . S
C3157 N3159 1.384 . S
N3158 C3154 1.427 . S
N3158 C3155 1.384 . S
N3159 C3151 1.427 . S
N3159 C3157 1.384 . S
H3160 C3166 0.930 . S
H3161 C3170 0.930 . S
H3162 C3175 0.929 . S
H3163 C3173 0.929 . S
H3164 C3168 0.929 . S
H3165 C3174 0.929 . S
C3166 H3160 0.930 . S
C3166 C3167 1.367 . S
C3166 C3174 1.378 . S
C3167 C3166 1.367 . S
C3167 C3175 1.433 . S
C3168 H3164 0.929 . S
C3168 C3170 1.378 . S
C3168 C3172 1.350 . S
C3169 C3172 1.463 . S
C3169 C3174 1.350 . S
C3169 N3177 1.427 . S
C3170 H3161 0.930 . S
C3170 C3168 1.378 . S
C3170 C3171 1.367 . S
C3171 C3170 1.367 . S
C3171 C3173 1.433 . S
C3172 C3168 1.350 . S
C3172 C3169 1.463 . S
C3172 N3176 1.427 . S
C3173 H3163 0.929 . S
C3173 C3171 1.433 . S
C3173 N3176 1.384 . S
C3174 H3165 0.929 . S
C3174 C3166 1.378 . S
C3174 C3169 1.350 . S
C3175 H3162 0.929 . S
C3175 C3167 1.433 . S
C3175 N3177 1.384 . S
N3176 C3172 1.427 . S
N3176 C3173 1.384 . S
N3177 C3169 1.427 . S
N3177 C3175 1.384 . S
H3178 C3184 0.930 . S
H3179 C3188 0.930 . S
H3180 C3193 0.929 . S
H3181 C3191 0.929 . S
H3182 C3186 0.929 . S
H3183 C3192 0.929 . S
C3184 H3178 0.930 . S
C3184 C3185 1.367 . S
C3184 C3192 1.378 . S
C3185 C3184 1.367 . S
C3185 C3193 1.433 . S
C3186 H3182 0.929 . S
C3186 C3188 1.378 . S
C3186 C3190 1.350 . S
C3187 C3190 1.463 . S
C3187 C3192 1.350 . S
C3187 N3195 1.427 . S
C3188 H3179 0.930 . S
C3188 C3186 1.378 . S
C3188 C3189 1.367 . S
C3189 C3188 1.367 . S
C3189 C3191 1.433 . S
C3190 C3186 1.350 . S
C3190 C3187 1.463 . S
C3190 N3194 1.427 . S
C3191 H3181 0.929 . S
C3191 C3189 1.433 . S
C3191 N3194 1.384 . S
C3192 H3183 0.929 . S
C3192 C3184 1.378 . S
C3192 C3187 1.350 . S
C3193 H3180 0.929 . S
C3193 C3185 1.433 . S
C3193 N3195 1.384 . S
N3194 C3190 1.427 . S
N3194 C3191 1.384 . S
N3195 C3187 1.427 . S
N3195 C3193 1.384 . S
H3196 C3202 0.930 . S
H3197 C3206 0.930 . S
H3198 C3211 0.929 . S
H3199 C3209 0.929 . S
H3200 C3204 0.929 . S
H3201 C3210 0.929 . S
C3202 H3196 0.930 . S
C3202 C3203 1.367 . S
C3202 C3210 1.378 . S
C3203 C3202 1.367 . S
C3203 C3211 1.433 . S
C3204 H3200 0.929 . S
C3204 C3206 1.378 . S
C3204 C3208 1.350 . S
C3205 C3208 1.463 . S
C3205 C3210 1.350 . S
C3205 N3213 1.427 . S
C3206 H3197 0.930 . S
C3206 C3204 1.378 . S
C3206 C3207 1.367 . S
C3207 C3206 1.367 . S
C3207 C3209 1.433 . S
C3208 C3204 1.350 . S
C3208 C3205 1.463 . S
C3208 N3212 1.427 . S
C3209 H3199 0.929 . S
C3209 C3207 1.433 . S
C3209 N3212 1.384 . S
C3210 H3201 0.929 . S
C3210 C3202 1.378 . S
C3210 C3205 1.350 . S
C3211 H3198 0.929 . S
C3211 C3203 1.433 . S
C3211 N3213 1.384 . S
N3212 C3208 1.427 . S
N3212 C3209 1.384 . S
N3213 C3205 1.427 . S
N3213 C3211 1.384 . S
H3214 C3220 0.930 . S
H3215 C3224 0.930 . S
H3216 C3229 0.929 . S
H3217 C3227 0.929 . S
H3218 C3222 0.929 . S
H3219 C3228 0.929 . S
C3220 H3214 0.930 . S
C3220 C3221 1.367 . S
C3220 C3228 1.378 . S
C3221 C3220 1.367 . S
C3221 C3229 1.433 . S
C3222 H3218 0.929 . S
C3222 C3224 1.378 . S
C3222 C3226 1.350 . S
C3223 C3226 1.463 1_544 S
C3223 C3228 1.350 . S
C3223 N3231 1.427 . S
C3224 H3215 0.930 . S
C3224 C3222 1.378 . S
C3224 C3225 1.367 . S
C3225 C3224 1.367 . S
C3225 C3227 1.433 . S
C3226 C3222 1.350 . S
C3226 C3223 1.463 1_566 S
C3226 N3230 1.427 . S
C3227 H3217 0.929 . S
C3227 C3225 1.433 . S
C3227 N3230 1.384 . S
C3228 H3219 0.929 . S
C3228 C3220 1.378 . S
C3228 C3223 1.350 . S
C3229 H3216 0.929 . S
C3229 C3221 1.433 . S
C3229 N3231 1.384 . S
N3230 C3226 1.427 . S
N3230 C3227 1.384 . S
N3231 C3223 1.427 . S
N3231 C3229 1.384 . S
H3232 C3238 0.930 . S
H3233 C3242 0.930 . S
H3234 C3247 0.929 . S
H3235 C3245 0.929 . S
H3236 C3240 0.929 . S
H3237 C3246 0.929 . S
C3238 H3232 0.930 . S
C3238 C3239 1.367 . S
C3238 C3246 1.378 . S
C3239 C3238 1.367 . S
C3239 C3247 1.433 1_455 S
C3240 H3236 0.929 . S
C3240 C3242 1.378 . S
C3240 C3244 1.350 1_655 S
C3241 C3244 1.463 . S
C3241 C3246 1.350 . S
C3241 N3249 1.427 1_455 S
C3242 H3233 0.930 . S
C3242 C3240 1.378 . S
C3242 C3243 1.367 1_655 S
C3243 C3242 1.367 1_455 S
C3243 C3245 1.433 . S
C3244 C3240 1.350 1_455 S
C3244 C3241 1.463 . S
C3244 N3248 1.427 . S
C3245 H3235 0.929 . S
C3245 C3243 1.433 . S
C3245 N3248 1.384 . S
C3246 H3237 0.929 . S
C3246 C3238 1.378 . S
C3246 C3241 1.350 . S
C3247 H3234 0.929 . S
C3247 C3239 1.433 1_655 S
C3247 N3249 1.384 . S
N3248 C3244 1.427 . S
N3248 C3245 1.384 . S
N3249 C3241 1.427 1_655 S
N3249 C3247 1.384 . S
H3250 C3256 0.930 . S
H3251 C3260 0.930 . S
H3252 C3265 0.929 . S
H3253 C3263 0.929 . S
H3254 C3258 0.929 . S
H3255 C3264 0.929 . S
C3256 H3250 0.930 . S
C3256 C3257 1.367 . S
C3256 C3264 1.378 . S
C3257 C3256 1.367 . S
C3257 C3265 1.433 . S
C3258 H3254 0.929 . S
C3258 C3260 1.378 . S
C3258 C3262 1.350 . S
C3259 C3262 1.463 . S
C3259 C3264 1.350 . S
C3259 N3267 1.427 . S
C3260 H3251 0.930 . S
C3260 C3258 1.378 . S
C3260 C3261 1.367 . S
C3261 C3260 1.367 . S
C3261 C3263 1.433 . S
C3262 C3258 1.350 . S
C3262 C3259 1.463 . S
C3262 N3266 1.427 . S
C3263 H3253 0.929 . S
C3263 C3261 1.433 . S
C3263 N3266 1.384 . S
C3264 H3255 0.929 . S
C3264 C3256 1.378 . S
C3264 C3259 1.350 . S
C3265 H3252 0.929 . S
C3265 C3257 1.433 . S
C3265 N3267 1.384 . S
N3266 C3262 1.427 . S
N3266 C3263 1.384 . S
N3267 C3259 1.427 . S
N3267 C3265 1.384 . S
H3268 C3274 0.930 . S
H3269 C3278 0.930 1_455 S
H3270 C3283 0.929 1_455 S
H3271 C3281 0.929 . S
H3272 C3276 0.929 1_455 S
H3273 C3282 0.929 . S
C3274 H3268 0.930 . S
C3274 C3275 1.367 . S
C3274 C3282 1.378 . S
C3275 C3274 1.367 . S
C3275 C3283 1.433 . S
C3276 H3272 0.929 1_655 S
C3276 C3278 1.378 . S
C3276 C3280 1.350 . S
C3277 C3280 1.463 . S
C3277 C3282 1.350 . S
C3277 N3285 1.427 . S
C3278 H3269 0.930 1_655 S
C3278 C3276 1.378 . S
C3278 C3279 1.367 . S
C3279 C3278 1.367 . S
C3279 C3281 1.433 . S
C3280 C3276 1.350 . S
C3280 C3277 1.463 . S
C3280 N3284 1.427 . S
C3281 H3271 0.929 . S
C3281 C3279 1.433 . S
C3281 N3284 1.384 . S
C3282 H3273 0.929 . S
C3282 C3274 1.378 . S
C3282 C3277 1.350 . S
C3283 H3270 0.929 1_655 S
C3283 C3275 1.433 . S
C3283 N3285 1.384 . S
N3284 C3280 1.427 . S
N3284 C3281 1.384 . S
N3285 C3277 1.427 . S
N3285 C3283 1.384 . S
H3286 C3292 0.930 . S
H3287 C3296 0.930 . S
H3288 C3301 0.929 . S
H3289 C3299 0.929 . S
H3290 C3294 0.929 . S
H3291 C3300 0.929 . S
C3292 H3286 0.930 . S
C3292 C3293 1.367 . S
C3292 C3300 1.378 . S
C3293 C3292 1.367 . S
C3293 C3301 1.433 . S
C3294 H3290 0.929 . S
C3294 C3296 1.378 . S
C3294 C3298 1.350 . S
C3295 C3298 1.463 . S
C3295 C3300 1.350 . S
C3295 N3303 1.427 . S
C3296 H3287 0.930 . S
C3296 C3294 1.378 . S
C3296 C3297 1.367 . S
C3297 C3296 1.367 . S
C3297 C3299 1.433 . S
C3298 C3294 1.350 . S
C3298 C3295 1.463 . S
C3298 N3302 1.427 . S
C3299 H3289 0.929 . S
C3299 C3297 1.433 . S
C3299 N3302 1.384 . S
C3300 H3291 0.929 . S
C3300 C3292 1.378 . S
C3300 C3295 1.350 . S
C3301 H3288 0.929 . S
C3301 C3293 1.433 . S
C3301 N3303 1.384 . S
N3302 C3298 1.427 . S
N3302 C3299 1.384 . S
N3303 C3295 1.427 . S
N3303 C3301 1.384 . S
H3304 C3310 0.930 . S
H3305 C3314 0.931 . S
H3306 C3319 0.933 1_655 S
H3307 C3317 0.929 . S
H3308 C3312 0.929 . S
H3309 C3318 0.929 . S
C3310 H3304 0.930 . S
C3310 C3311 1.367 . S
C3310 C3318 1.378 . S
C3311 C3310 1.367 . S
C3311 C3319 1.433 . S
C3312 H3308 0.929 . S
C3312 C3314 1.378 . S
C3312 C3316 1.350 . S
C3313 C3316 1.463 . S
C3313 C3318 1.350 . S
C3313 N3321 1.427 . S
C3314 H3305 0.931 . S
C3314 C3312 1.378 . S
C3314 C3315 1.367 . S
C3315 C3314 1.367 . S
C3315 C3317 1.433 . S
C3316 C3312 1.350 . S
C3316 C3313 1.463 . S
C3316 N3320 1.427 . S
C3317 H3307 0.929 . S
C3317 C3315 1.433 . S
C3317 N3320 1.384 . S
C3318 H3309 0.929 . S
C3318 C3310 1.378 . S
C3318 C3313 1.350 . S
C3319 H3306 0.933 1_455 S
C3319 C3311 1.433 . S
C3319 N3321 1.384 . S
N3320 C3316 1.427 . S
N3320 C3317 1.384 . S
N3321 C3313 1.427 . S
N3321 C3319 1.384 . S
H3322 C3328 0.930 . S
H3323 C3332 0.930 . S
H3324 C3337 0.929 . S
H3325 C3335 0.929 . S
H3326 C3330 0.929 . S
H3327 C3336 0.929 . S
C3328 H3322 0.930 . S
C3328 C3329 1.367 . S
C3328 C3336 1.378 . S
C3329 C3328 1.367 . S
C3329 C3337 1.433 . S
C3330 H3326 0.929 . S
C3330 C3332 1.378 . S
C3330 C3334 1.350 . S
C3331 C3334 1.463 . S
C3331 C3336 1.350 . S
C3331 N3339 1.427 . S
C3332 H3323 0.930 . S
C3332 C3330 1.378 . S
C3332 C3333 1.367 . S
C3333 C3332 1.367 . S
C3333 C3335 1.433 . S
C3334 C3330 1.350 . S
C3334 C3331 1.463 . S
C3334 N3338 1.427 . S
C3335 H3325 0.929 . S
C3335 C3333 1.433 . S
C3335 N3338 1.384 . S
C3336 H3327 0.929 . S
C3336 C3328 1.378 . S
C3336 C3331 1.350 . S
C3337 H3324 0.929 . S
C3337 C3329 1.433 . S
C3337 N3339 1.384 . S
N3338 C3334 1.427 . S
N3338 C3335 1.384 . S
N3339 C3331 1.427 . S
N3339 C3337 1.384 . S
H3340 C3346 0.930 . S
H3341 C3350 0.930 . S
H3342 C3355 0.929 . S
H3343 C3353 0.929 . S
H3344 C3348 0.929 . S
H3345 C3354 0.929 . S
C3346 H3340 0.930 . S
C3346 C3347 1.367 . S
C3346 C3354 1.378 . S
C3347 C3346 1.367 . S
C3347 C3355 1.433 . S
C3348 H3344 0.929 . S
C3348 C3350 1.378 . S
C3348 C3352 1.350 . S
C3349 C3352 1.463 . S
C3349 C3354 1.350 . S
C3349 N3357 1.427 . S
C3350 H3341 0.930 . S
C3350 C3348 1.378 . S
C3350 C3351 1.367 . S
C3351 C3350 1.367 . S
C3351 C3353 1.433 . S
C3352 C3348 1.350 . S
C3352 C3349 1.463 . S
C3352 N3356 1.427 . S
C3353 H3343 0.929 . S
C3353 C3351 1.433 . S
C3353 N3356 1.384 . S
C3354 H3345 0.929 . S
C3354 C3346 1.378 . S
C3354 C3349 1.350 . S
C3355 H3342 0.929 . S
C3355 C3347 1.433 . S
C3355 N3357 1.384 . S
N3356 C3352 1.427 . S
N3356 C3353 1.384 . S
N3357 C3349 1.427 . S
N3357 C3355 1.384 . S
H3358 C3364 0.930 . S
H3359 C3368 0.930 . S
H3360 C3373 0.929 . S
H3361 C3371 0.929 . S
H3362 C3366 0.929 . S
H3363 C3372 0.929 . S
C3364 H3358 0.930 . S
C3364 C3365 1.367 . S
C3364 C3372 1.378 . S
C3365 C3364 1.367 . S
C3365 C3373 1.433 . S
C3366 H3362 0.929 . S
C3366 C3368 1.378 . S
C3366 C3370 1.350 . S
C3367 C3370 1.463 . S
C3367 C3372 1.350 . S
C3367 N3375 1.427 . S
C3368 H3359 0.930 . S
C3368 C3366 1.378 . S
C3368 C3369 1.367 . S
C3369 C3368 1.367 . S
C3369 C3371 1.433 . S
C3370 C3366 1.350 . S
C3370 C3367 1.463 . S
C3370 N3374 1.427 . S
C3371 H3361 0.929 . S
C3371 C3369 1.433 . S
C3371 N3374 1.384 . S
C3372 H3363 0.929 . S
C3372 C3364 1.378 . S
C3372 C3367 1.350 . S
C3373 H3360 0.929 . S
C3373 C3365 1.433 . S
C3373 N3375 1.384 . S
N3374 C3370 1.427 . S
N3374 C3371 1.384 . S
N3375 C3367 1.427 . S
N3375 C3373 1.384 . S
H3376 C3382 0.930 . S
H3377 C3386 0.930 . S
H3378 C3391 0.929 . S
H3379 C3389 0.929 . S
H3380 C3384 0.929 . S
H3381 C3390 0.929 . S
C3382 H3376 0.930 . S
C3382 C3383 1.367 . S
C3382 C3390 1.378 . S
C3383 C3382 1.367 . S
C3383 C3391 1.433 . S
C3384 H3380 0.929 . S
C3384 C3386 1.378 . S
C3384 C3388 1.350 . S
C3385 C3388 1.463 . S
C3385 C3390 1.350 . S
C3385 N3393 1.427 . S
C3386 H3377 0.930 . S
C3386 C3384 1.378 . S
C3386 C3387 1.367 . S
C3387 C3386 1.367 . S
C3387 C3389 1.433 . S
C3388 C3384 1.350 . S
C3388 C3385 1.463 . S
C3388 N3392 1.427 . S
C3389 H3379 0.929 . S
C3389 C3387 1.433 . S
C3389 N3392 1.384 . S
C3390 H3381 0.929 . S
C3390 C3382 1.378 . S
C3390 C3385 1.350 . S
C3391 H3378 0.929 . S
C3391 C3383 1.433 . S
C3391 N3393 1.384 . S
N3392 C3388 1.427 . S
N3392 C3389 1.384 . S
N3393 C3385 1.427 . S
N3393 C3391 1.384 . S
H3394 C3400 0.930 . S
H3395 C3404 0.930 . S
H3396 C3409 0.929 . S
H3397 C3407 0.929 . S
H3398 C3402 0.929 . S
H3399 C3408 0.929 . S
C3400 H3394 0.930 . S
C3400 C3401 1.367 . S
C3400 C3408 1.378 . S
C3401 C3400 1.367 . S
C3401 C3409 1.433 . S
C3402 H3398 0.929 . S
C3402 C3404 1.378 . S
C3402 C3406 1.350 . S
C3403 C3406 1.463 . S
C3403 C3408 1.350 . S
C3403 N3411 1.427 . S
C3404 H3395 0.930 . S
C3404 C3402 1.378 . S
C3404 C3405 1.367 . S
C3405 C3404 1.367 . S
C3405 C3407 1.433 . S
C3406 C3402 1.350 . S
C3406 C3403 1.463 . S
C3406 N3410 1.427 . S
C3407 H3397 0.929 . S
C3407 C3405 1.433 . S
C3407 N3410 1.384 . S
C3408 H3399 0.929 . S
C3408 C3400 1.378 . S
C3408 C3403 1.350 . S
C3409 H3396 0.929 . S
C3409 C3401 1.433 . S
C3409 N3411 1.384 . S
N3410 C3406 1.427 . S
N3410 C3407 1.384 . S
N3411 C3403 1.427 . S
N3411 C3409 1.384 . S
H3412 C3418 0.930 . S
H3413 C3422 0.930 . S
H3414 C3427 0.929 . S
H3415 C3425 0.929 . S
H3416 C3420 0.929 . S
H3417 C3426 0.929 . S
C3418 H3412 0.930 . S
C3418 C3419 1.367 . S
C3418 C3426 1.378 . S
C3419 C3418 1.367 . S
C3419 C3427 1.433 . S
C3420 H3416 0.929 . S
C3420 C3422 1.378 . S
C3420 C3424 1.350 . S
C3421 C3424 1.463 . S
C3421 C3426 1.350 . S
C3421 N3429 1.427 . S
C3422 H3413 0.930 . S
C3422 C3420 1.378 . S
C3422 C3423 1.367 . S
C3423 C3422 1.367 . S
C3423 C3425 1.433 . S
C3424 C3420 1.350 . S
C3424 C3421 1.463 . S
C3424 N3428 1.427 . S
C3425 H3415 0.929 . S
C3425 C3423 1.433 . S
C3425 N3428 1.384 . S
C3426 H3417 0.929 . S
C3426 C3418 1.378 . S
C3426 C3421 1.350 . S
C3427 H3414 0.929 . S
C3427 C3419 1.433 . S
C3427 N3429 1.384 . S
N3428 C3424 1.427 . S
N3428 C3425 1.384 . S
N3429 C3421 1.427 . S
N3429 C3427 1.384 . S
H3430 C3436 0.930 . S
H3431 C3440 0.930 . S
H3432 C3445 0.929 . S
H3433 C3443 0.929 . S
H3434 C3438 0.929 . S
H3435 C3444 0.929 . S
C3436 H3430 0.930 . S
C3436 C3437 1.367 . S
C3436 C3444 1.378 . S
C3437 C3436 1.367 . S
C3437 C3445 1.433 . S
C3438 H3434 0.929 . S
C3438 C3440 1.378 . S
C3438 C3442 1.350 . S
C3439 C3442 1.463 . S
C3439 C3444 1.350 . S
C3439 N3447 1.427 . S
C3440 H3431 0.930 . S
C3440 C3438 1.378 . S
C3440 C3441 1.367 . S
C3441 C3440 1.367 . S
C3441 C3443 1.433 . S
C3442 C3438 1.350 . S
C3442 C3439 1.463 . S
C3442 N3446 1.427 . S
C3443 H3433 0.929 . S
C3443 C3441 1.433 . S
C3443 N3446 1.384 . S
C3444 H3435 0.929 . S
C3444 C3436 1.378 . S
C3444 C3439 1.350 . S
C3445 H3432 0.929 . S
C3445 C3437 1.433 . S
C3445 N3447 1.384 . S
N3446 C3442 1.427 . S
N3446 C3443 1.384 . S
N3447 C3439 1.427 . S
N3447 C3445 1.384 . S
H3448 C3454 0.930 . S
H3449 C3458 0.930 . S
H3450 C3463 0.929 . S
H3451 C3461 0.929 . S
H3452 C3456 0.929 . S
H3453 C3462 0.929 . S
C3454 H3448 0.930 . S
C3454 C3455 1.367 . S
C3454 C3462 1.378 . S
C3455 C3454 1.367 . S
C3455 C3463 1.433 . S
C3456 H3452 0.929 . S
C3456 C3458 1.378 . S
C3456 C3460 1.350 . S
C3457 C3460 1.463 . S
C3457 C3462 1.350 . S
C3457 N3465 1.427 . S
C3458 H3449 0.930 . S
C3458 C3456 1.378 . S
C3458 C3459 1.367 . S
C3459 C3458 1.367 . S
C3459 C3461 1.433 . S
C3460 C3456 1.350 . S
C3460 C3457 1.463 . S
C3460 N3464 1.427 . S
C3461 H3451 0.929 . S
C3461 C3459 1.433 . S
C3461 N3464 1.384 . S
C3462 H3453 0.929 . S
C3462 C3454 1.378 . S
C3462 C3457 1.350 . S
C3463 H3450 0.929 . S
C3463 C3455 1.433 . S
C3463 N3465 1.384 . S
N3464 C3460 1.427 . S
N3464 C3461 1.384 . S
N3465 C3457 1.427 . S
N3465 C3463 1.384 . S
H3466 C3472 0.930 . S
H3467 C3476 0.930 . S
H3468 C3481 0.929 . S
H3469 C3479 0.929 . S
H3470 C3474 0.929 . S
H3471 C3480 0.929 . S
C3472 H3466 0.930 . S
C3472 C3473 1.367 . S
C3472 C3480 1.378 . S
C3473 C3472 1.367 . S
C3473 C3481 1.433 . S
C3474 H3470 0.929 . S
C3474 C3476 1.378 . S
C3474 C3478 1.350 . S
C3475 C3478 1.463 . S
C3475 C3480 1.350 . S
C3475 N3483 1.427 . S
C3476 H3467 0.930 . S
C3476 C3474 1.378 . S
C3476 C3477 1.367 . S
C3477 C3476 1.367 . S
C3477 C3479 1.433 . S
C3478 C3474 1.350 . S
C3478 C3475 1.463 . S
C3478 N3482 1.427 . S
C3479 H3469 0.929 . S
C3479 C3477 1.433 . S
C3479 N3482 1.384 . S
C3480 H3471 0.929 . S
C3480 C3472 1.378 . S
C3480 C3475 1.350 . S
C3481 H3468 0.929 . S
C3481 C3473 1.433 . S
C3481 N3483 1.384 . S
N3482 C3478 1.427 . S
N3482 C3479 1.384 . S
N3483 C3475 1.427 . S
N3483 C3481 1.384 . S
H3484 C3490 0.930 . S
H3485 C3494 0.930 . S
H3486 C3499 0.929 . S
H3487 C3497 0.929 . S
H3488 C3492 0.929 . S
H3489 C3498 0.929 . S
C3490 H3484 0.930 . S
C3490 C3491 1.367 . S
C3490 C3498 1.378 . S
C3491 C3490 1.367 . S
C3491 C3499 1.433 . S
C3492 H3488 0.929 . S
C3492 C3494 1.378 . S
C3492 C3496 1.350 . S
C3493 C3496 1.463 . S
C3493 C3498 1.350 . S
C3493 N3501 1.427 . S
C3494 H3485 0.930 . S
C3494 C3492 1.378 . S
C3494 C3495 1.367 . S
C3495 C3494 1.367 . S
C3495 C3497 1.433 . S
C3496 C3492 1.350 . S
C3496 C3493 1.463 . S
C3496 N3500 1.427 . S
C3497 H3487 0.929 . S
C3497 C3495 1.433 . S
C3497 N3500 1.384 . S
C3498 H3489 0.929 . S
C3498 C3490 1.378 . S
C3498 C3493 1.350 . S
C3499 H3486 0.929 . S
C3499 C3491 1.433 . S
C3499 N3501 1.384 . S
N3500 C3496 1.427 . S
N3500 C3497 1.384 . S
N3501 C3493 1.427 . S
N3501 C3499 1.384 . S
H3502 C3508 0.930 . S
H3503 C3512 0.930 . S
H3504 C3517 0.929 . S
H3505 C3515 0.929 . S
H3506 C3510 0.929 . S
H3507 C3516 0.929 . S
C3508 H3502 0.930 . S
C3508 C3509 1.367 . S
C3508 C3516 1.378 . S
C3509 C3508 1.367 . S
C3509 C3517 1.433 . S
C3510 H3506 0.929 . S
C3510 C3512 1.378 . S
C3510 C3514 1.350 . S
C3511 C3514 1.463 . S
C3511 C3516 1.350 . S
C3511 N3519 1.427 . S
C3512 H3503 0.930 . S
C3512 C3510 1.378 . S
C3512 C3513 1.367 . S
C3513 C3512 1.367 . S
C3513 C3515 1.433 . S
C3514 C3510 1.350 . S
C3514 C3511 1.463 . S
C3514 N3518 1.427 . S
C3515 H3505 0.929 . S
C3515 C3513 1.433 . S
C3515 N3518 1.384 . S
C3516 H3507 0.929 . S
C3516 C3508 1.378 . S
C3516 C3511 1.350 . S
C3517 H3504 0.929 . S
C3517 C3509 1.433 . S
C3517 N3519 1.384 . S
N3518 C3514 1.427 . S
N3518 C3515 1.384 . S
N3519 C3511 1.427 . S
N3519 C3517 1.384 . S
C1223 C973 2.064 1_556 S
C1227 C23 2.070 1_556 S
C1241 C61 2.064 1_556 S
C1245 C935 2.057 1_556 S
C1259 C1049 2.058 . S
C1263 C99 2.065 . S
C1277 C137 2.061 . S
C1281 C1011 2.056 . S
C1295 C1106 2.071 1_554 S
C1299 C156 2.066 1_554 S
C1313 C194 2.067 1_554 S
C1317 C1068 2.060 1_554 S
C1331 C1182 2.056 . S
C1335 C232 2.059 . S
C1349 C270 2.062 . S
C1353 C1144 2.056 . S
C1367 C327 2.067 . S
C1371 C669 2.059 . S
C1385 C365 2.062 . S
C1389 C631 2.069 . S
C1403 C745 2.056 . S
C1407 C403 2.057 . S
C1421 C441 2.065 . S
C1425 C707 2.057 . S
C1439 C460 2.056 . S
C1443 C802 2.062 . S
C1457 C764 2.059 . S
C1461 C498 2.056 . S
C1475 C878 2.070 . S
C1479 C536 2.063 . S
C1493 C840 2.061 . S
C1497 C574 2.068 . S
C1511 C1104 1.856 . S
C1515 C2 1.831 . S
C1529 C40 1.832 . S
C1533 C154 1.855 . S
C1547 C78 1.830 . S
C1551 C876 1.856 . S
C1565 C116 1.830 . S
C1569 C534 1.855 . S
C1583 C976 1.856 . S
C1587 C178 1.833 . S
C1601 C26 1.860 . S
C1605 C216 1.839 . S
C1619 C748 1.862 . S
C1623 C254 1.841 . S
C1637 C292 1.833 . S
C1641 C406 1.859 . S
C1655 C800 1.863 1_565 S
C1659 C306 1.842 . S
C1673 C458 1.864 . S
C1677 C344 1.842 . S
C1691 C382 1.838 . S
C1695 C1180 1.859 . S
C1709 C230 1.854 1_565 S
C1713 C420 1.831 . S
C1727 C672 1.855 1_545 S
C1731 C482 1.831 . S
C1745 C520 1.842 . S
C1749 C330 1.864 . S
C1763 C558 1.842 . S
C1767 C1052 1.865 . S
C1781 C596 1.831 . S
C1785 C102 1.856 1_545 S
C1799 C610 1.835 . S
C1803 C496 1.861 . S
C1817 C762 1.864 . S
C1821 C648 1.842 . S
C1835 C268 1.859 . S
C1839 C686 1.837 . S
C1853 C1142 1.857 . S
C1857 C724 1.831 . S
C1871 C786 1.843 . S
C1875 C368 1.865 . S
C1889 C824 1.842 . S
C1893 C634 1.865 . S
C1907 C862 1.830 . S
C1911 C140 1.855 . S
C1925 C900 1.842 . S
C1929 C1014 1.865 . S
C1943 C192 1.865 1_565 S
C1947 C914 1.842 . S
C1961 C1066 1.862 . S
C1965 C952 1.837 . S
C1979 C572 1.861 . S
C1983 C990 1.840 . S
C1997 C1028 1.838 . S
C2001 C838 1.863 1_565 S
C2015 C1090 1.841 . S
C2019 C64 1.863 1_545 S
C2033 C1128 1.839 . S
C2037 C938 1.860 . S
C2051 C1166 1.840 . S
C2055 C444 1.861 . S
C2069 C1204 1.842 . S
C2073 C710 1.863 1_545 S
C2087 C248 1.759 . S
C2091 C20 1.776 1_655 S
C2105 C58 1.781 . S
C2109 C1198 1.755 . S
C2123 C476 1.759 . S
C2127 C96 1.776 1_655 S
C2141 C818 1.761 . S
C2145 C134 1.777 . S
C2159 C95 1.758 . S
C2163 C171 1.775 1_455 S
C2177 C209 1.778 . S
C2181 C1045 1.760 . S
C2195 C323 1.757 . S
C2199 C247 1.775 1_455 S
C2213 C285 1.778 . S
C2217 C665 1.759 . S
C2231 C324 1.774 1_655 S
C2235 C552 1.754 . S
C2249 C894 1.760 . S
C2253 C362 1.779 . S
C2267 C400 1.777 1_655 S
C2271 C172 1.761 . S
C2285 C1122 1.762 . S
C2289 C438 1.777 . S
C2303 C475 1.777 1_455 S
C2307 C399 1.760 . S
C2321 C741 1.754 . S
C2325 C513 1.781 . S
C2339 C551 1.776 1_455 S
C2343 C19 1.759 . S
C2357 C969 1.753 . S
C2361 C589 1.781 . S
C2375 C628 1.776 . S
C2379 C856 1.757 . S
C2393 C666 1.780 . S
C2397 C590 1.756 . S
C2411 C1084 1.752 . S
C2415 C704 1.780 . S
C2429 C742 1.780 . S
C2433 C210 1.752 . S
C2447 C703 1.758 . S
C2451 C779 1.776 . S
C2465 C817 1.777 . S
C2469 C437 1.761 . S
C2483 C931 1.758 . S
C2487 C855 1.776 . S
C2501 C893 1.778 . S
C2505 C57 1.754 . S
C2519 C1160 1.753 . S
C2523 C932 1.779 . S
C2537 C970 1.780 . S
C2541 C286 1.757 . S
C2555 C1008 1.779 . S
C2559 C780 1.755 . S
C2573 C1046 1.780 . S
C2577 C514 1.755 . S
C2591 C1007 1.755 . S
C2595 C1083 1.780 . S
C2609 C1121 1.780 . S
C2613 C133 1.753 . S
C2627 C627 1.754 . S
C2631 C1159 1.777 . S
C2645 C1197 1.776 . S
C2649 C361 1.761 . S
C2663 C118 1.583 . S
C2667 C4 1.600 . S
C2681 C80 1.588 . S
C2685 C42 1.596 . S
C2699 C175 1.593 . S
C2703 C289 1.586 . S
C2717 C251 1.597 . S
C2721 C213 1.583 . S
C2735 C422 1.601 . S
C2739 C308 1.580 . S
C2753 C346 1.602 . S
C2757 C384 1.579 . S
C2771 C593 1.579 . S
C2775 C479 1.602 . S
C2789 C555 1.580 . S
C2793 C517 1.601 . S
C2807 C612 1.601 . S
C2811 C726 1.579 . S
C2825 C688 1.602 . S
C2829 C650 1.581 . S
C2843 C783 1.601 . S
C2847 C897 1.580 . S
C2861 C859 1.580 . S
C2865 C821 1.601 . S
C2879 C1030 1.586 . S
C2883 C916 1.598 . S
C2897 C954 1.581 . S
C2901 C992 1.599 . S
C2915 C1087 1.602 . S
C2919 C1201 1.581 . S
C2933 C1125 1.585 . S
C2937 C1163 1.599 . S
C2951 C28 0.161 . S
C2955 C169 0.161 . S
C2969 C1119 0.153 . S
C2973 C66 0.153 . S
C2987 C549 0.156 . S
C2991 C104 0.156 . S
C3005 C891 0.154 . S
C3009 C142 0.154 . S
C3023 C978 0.161 . S
C3027 C207 0.161 . S
C3041 C408 0.158 . S
C3045 C245 0.158 . S
C3059 C283 0.139 . S
C3063 C750 0.139 . S
C3077 C473 0.142 . S
C3081 C332 0.142 . S
C3095 C370 0.136 . S
C3099 C815 0.136 . S
C3113 C446 0.154 . S
C3117 C1195 0.154 . S
C3131 C511 0.155 . S
C3135 C674 0.155 . S
C3149 C1054 0.161 . S
C3153 C587 0.161 . S
C3167 C777 0.147 . S
C3171 C636 0.147 . S
C3185 C1157 0.144 . S
C3189 C712 0.144 . S
C3203 C853 0.158 . S
C3207 C1016 0.158 . S
C3221 C1081 0.144 . S
C3225 C940 0.144 . S
C3239 C93 1.073 . S
C3243 C17 1.075 . S
C3257 C131 1.082 . S
C3261 C55 1.082 . S
C3275 C180 1.060 . S
C3279 C256 1.061 . S
C3293 C218 1.083 . S
C3297 C294 1.083 . S
C3311 C397 1.082 . S
C3315 C321 1.083 . S
C3329 C435 1.083 . S
C3333 C359 1.083 . S
C3347 C484 1.083 . S
C3351 C560 1.084 . S
C3365 C598 1.070 . S
C3369 C522 1.068 . S
C3383 C701 1.059 . S
C3387 C625 1.058 . S
C3401 C663 1.074 . S
C3405 C739 1.076 . S
C3419 C864 1.058 . S
C3423 C788 1.059 . S
C3437 C826 1.066 . S
C3441 C902 1.068 . S
C3455 C929 1.059 . S
C3459 C1005 1.058 . S
C3473 C967 1.084 . S
C3477 C1043 1.084 . S
C3491 C1168 1.082 . S
C3495 C1092 1.081 . S
C3509 C1206 1.063 . S
C3513 C1130 1.064 . S
