# Generated by pormake.
# Topology fob, (5)-cn, num edge types: 1
# Building blocks:
#     Node 0, Type 0, BuildingBlock: XOMCOT_clean_sbu_0, # of connection points: 5
#     Node 1, Type 0, BuildingBlock: XOMCOT_clean_sbu_0, # of connection points: 5
#     Node 2, Type 0, BuildingBlock: XOMCOT_clean_sbu_0, # of connection points: 5
#     Node 3, Type 0, BuildingBlock: XOMCOT_clean_sbu_0, # of connection points: 5
#     Node 4, Type 0, BuildingBlock: XOMCOT_clean_sbu_0, # of connection points: 5
#     Node 5, Type 0, BuildingBlock: XOMCOT_clean_sbu_0, # of connection points: 5
#     Node 6, Type 0, BuildingBlock: XOMCOT_clean_sbu_0, # of connection points: 5
#     Node 7, Type 0, BuildingBlock: XOMCOT_clean_sbu_0, # of connection points: 5
#     Node 8, Type 0, BuildingBlock: XOMCOT_clean_sbu_0, # of connection points: 5
#     Node 9, Type 0, BuildingBlock: XOMCOT_clean_sbu_0, # of connection points: 5
#     Node 10, Type 0, BuildingBlock: XOMCOT_clean_sbu_0, # of connection points: 5
#     Node 11, Type 0, BuildingBlock: XOMCOT_clean_sbu_0, # of connection points: 5
#     Node 12, Type 0, BuildingBlock: XOMCOT_clean_sbu_0, # of connection points: 5
#     Node 13, Type 0, BuildingBlock: XOMCOT_clean_sbu_0, # of connection points: 5
#     Node 14, Type 0, BuildingBlock: XOMCOT_clean_sbu_0, # of connection points: 5
#     Node 15, Type 0, BuildingBlock: XOMCOT_clean_sbu_0, # of connection points: 5
#     Edge 16, Type (0, 0), BuildingBlock: TEMPAE_clean_linker_10, # of connection points: 2
#     Edge 17, Type (0, 0), BuildingBlock: TEMPAE_clean_linker_10, # of connection points: 2
#     Edge 18, Type (0, 0), BuildingBlock: TEMPAE_clean_linker_10, # of connection points: 2
#     Edge 19, Type (0, 0), BuildingBlock: TEMPAE_clean_linker_10, # of connection points: 2
#     Edge 20, Type (0, 0), BuildingBlock: TEMPAE_clean_linker_10, # of connection points: 2
#     Edge 21, Type (0, 0), BuildingBlock: TEMPAE_clean_linker_10, # of connection points: 2
#     Edge 22, Type (0, 0), BuildingBlock: TEMPAE_clean_linker_10, # of connection points: 2
#     Edge 23, Type (0, 0), BuildingBlock: TEMPAE_clean_linker_10, # of connection points: 2
#     Edge 24, Type (0, 0), BuildingBlock: TEMPAE_clean_linker_10, # of connection points: 2
#     Edge 25, Type (0, 0), BuildingBlock: TEMPAE_clean_linker_10, # of connection points: 2
#     Edge 26, Type (0, 0), BuildingBlock: TEMPAE_clean_linker_10, # of connection points: 2
#     Edge 27, Type (0, 0), BuildingBlock: TEMPAE_clean_linker_10, # of connection points: 2
#     Edge 28, Type (0, 0), BuildingBlock: TEMPAE_clean_linker_10, # of connection points: 2
#     Edge 29, Type (0, 0), BuildingBlock: TEMPAE_clean_linker_10, # of connection points: 2
#     Edge 30, Type (0, 0), BuildingBlock: TEMPAE_clean_linker_10, # of connection points: 2
#     Edge 31, Type (0, 0), BuildingBlock: TEMPAE_clean_linker_10, # of connection points: 2
#     Edge 32, Type (0, 0), BuildingBlock: TEMPAE_clean_linker_10, # of connection points: 2
#     Edge 33, Type (0, 0), BuildingBlock: TEMPAE_clean_linker_10, # of connection points: 2
#     Edge 34, Type (0, 0), BuildingBlock: TEMPAE_clean_linker_10, # of connection points: 2
#     Edge 35, Type (0, 0), BuildingBlock: TEMPAE_clean_linker_10, # of connection points: 2
#     Edge 36, Type (0, 0), BuildingBlock: TEMPAE_clean_linker_10, # of connection points: 2
#     Edge 37, Type (0, 0), BuildingBlock: TEMPAE_clean_linker_10, # of connection points: 2
#     Edge 38, Type (0, 0), BuildingBlock: TEMPAE_clean_linker_10, # of connection points: 2
#     Edge 39, Type (0, 0), BuildingBlock: TEMPAE_clean_linker_10, # of connection points: 2
#     Edge 40, Type (0, 0), BuildingBlock: TEMPAE_clean_linker_10, # of connection points: 2
#     Edge 41, Type (0, 0), BuildingBlock: TEMPAE_clean_linker_10, # of connection points: 2
#     Edge 42, Type (0, 0), BuildingBlock: TEMPAE_clean_linker_10, # of connection points: 2
#     Edge 43, Type (0, 0), BuildingBlock: TEMPAE_clean_linker_10, # of connection points: 2
#     Edge 44, Type (0, 0), BuildingBlock: TEMPAE_clean_linker_10, # of connection points: 2
#     Edge 45, Type (0, 0), BuildingBlock: TEMPAE_clean_linker_10, # of connection points: 2
#     Edge 46, Type (0, 0), BuildingBlock: TEMPAE_clean_linker_10, # of connection points: 2
#     Edge 47, Type (0, 0), BuildingBlock: TEMPAE_clean_linker_10, # of connection points: 2
#     Edge 48, Type (0, 0), BuildingBlock: TEMPAE_clean_linker_10, # of connection points: 2
#     Edge 49, Type (0, 0), BuildingBlock: TEMPAE_clean_linker_10, # of connection points: 2
#     Edge 50, Type (0, 0), BuildingBlock: TEMPAE_clean_linker_10, # of connection points: 2
#     Edge 51, Type (0, 0), BuildingBlock: TEMPAE_clean_linker_10, # of connection points: 2
#     Edge 52, Type (0, 0), BuildingBlock: TEMPAE_clean_linker_10, # of connection points: 2
#     Edge 53, Type (0, 0), BuildingBlock: TEMPAE_clean_linker_10, # of connection points: 2
#     Edge 54, Type (0, 0), BuildingBlock: TEMPAE_clean_linker_10, # of connection points: 2
#     Edge 55, Type (0, 0), BuildingBlock: TEMPAE_clean_linker_10, # of connection points: 2
# Relax obj value: 0.074
# Max RMSD: 0.139
# Mean RMSD: 0.139
data_MOF--net-fob--node1-XOMCOT_clean_sbu_0--edge1-TEMPAE_clean_linker_10
_symmetry_space_group_name_H-M    P1
_symmetry_Int_Tables_number       1
_symmetry_cell_setting            triclinic
loop_
_symmetry_equiv_pos_as_xyz
'x, y, z'
_cell_length_a     27.037113
_cell_length_b     65.290054
_cell_length_c     50.06656
_cell_angle_alpha  100.80182
_cell_angle_beta   89.90818
_cell_angle_gamma 89.949377
loop_
_atom_site_label
_atom_site_type_symbol
_atom_site_fract_x
_atom_site_fract_y
_atom_site_fract_z
_atom_type_partial_charge
Co0 Co 0.10411 0.1369 0.47154 0.0
C1 C 0.07737 0.09345 0.47407 0.0
C2 C 0.14496 0.09474 0.45186 0.0
C3 C 0.13412 0.07414 0.45218 0.0
N4 N 0.10919 0.1068 0.46547 0.0
N5 N 0.09175 0.07339 0.46624 0.0
H6 H 0.04406 0.09832 0.48554 0.0
H7 H 0.17686 0.10044 0.44246 0.0
C8 C 0.14776 0.14994 0.42249 0.0
O9 O 0.11033 0.16272 0.42201 0.0
N10 N 0.10005 0.16728 0.47808 0.0
C11 C 0.06014 0.17995 0.48199 0.0
C12 C 0.07568 0.20034 0.48516 0.0
C13 C 0.13929 0.18031 0.47975 0.0
N14 N 0.12543 0.20054 0.48366 0.0
C15 C 0.99976 0.13706 0.46296 0.0
C16 C 1.00113 0.12385 0.40727 0.0
C17 C 0.95567 0.1291 0.42036 0.0
C18 C 0.95536 0.13511 0.44871 0.0
C19 C 0.0448 0.12577 0.42246 0.0
N20 N 0.04405 0.13371 0.44973 0.0
H21 H 0.99828 0.14164 0.48479 0.0
H22 H 0.07896 0.12072 0.41216 0.0
H23 H 0.02219 0.17515 0.48264 0.0
H24 H 0.17724 0.17498 0.4772 0.0
O25 O 0.07512 0.13676 0.50657 0.0
O26 O 0.15558 0.13929 0.49856 0.0
O27 O 0.14853 0.13764 0.43953 0.0
C28 C 0.12003 0.13858 0.51587 0.0
H29 H 0.15619 0.06077 0.44319 0.0
H30 H 0.05212 0.214 0.48849 0.0
H31 H 0.00321 0.1186 0.38546 0.0
H32 H 0.92104 0.13833 0.4599 0.0
Co33 Co 0.11219 0.15704 0.76137 0.0
C34 C 0.08248 0.2011 0.76117 0.0
C35 C 0.15296 0.19945 0.77994 0.0
C36 C 0.14285 0.22004 0.77926 0.0
N37 N 0.11417 0.18754 0.76958 0.0
N38 N 0.09852 0.22101 0.76735 0.0
H39 H 0.04963 0.19661 0.74941 0.0
H40 H 0.18742 0.19359 0.78644 0.0
C41 C 0.15781 0.16541 0.81667 0.0
O42 O 0.12419 0.17975 0.82497 0.0
N43 N 0.11157 0.12694 0.75238 0.0
C44 C 0.07371 0.11473 0.7417 0.0
C45 C 0.08915 0.09425 0.73725 0.0
C46 C 0.14949 0.11385 0.75426 0.0
N47 N 0.13678 0.09373 0.74518 0.0
C48 C 0.01048 0.16432 0.77746 0.0
C49 C 0.01159 0.1405 0.81757 0.0
C50 C 0.96698 0.14979 0.81187 0.0
C51 C 0.96704 0.16199 0.79162 0.0
C52 C 0.05445 0.14366 0.80334 0.0
N53 N 0.05397 0.15589 0.78398 0.0
H54 H 0.00814 0.17197 0.76034 0.0
H55 H 0.08752 0.13534 0.80703 0.0
H56 H 0.03754 0.12036 0.73732 0.0
H57 H 0.18595 0.119 0.76146 0.0
O58 O 0.08016 0.15821 0.72746 0.0
O59 O 0.16162 0.15738 0.73385 0.0
O60 O 0.15798 0.15525 0.79232 0.0
C61 C 0.12464 0.15799 0.71743 0.0
H62 H 0.16727 0.23315 0.78578 0.0
H63 H 0.06694 0.08078 0.72894 0.0
H64 H 0.01322 0.1302 0.83216 0.0
H65 H 0.93362 0.16938 0.78621 0.0
Co66 Co 0.89574 0.88424 0.50444 0.0
C67 C 0.93114 0.92701 0.50289 0.0
C68 C 0.85545 0.92666 0.51595 0.0
C69 C 0.86778 0.94676 0.51385 0.0
N70 N 0.89512 0.91431 0.50906 0.0
N71 N 0.9153 0.94695 0.50562 0.0
H72 H 0.96735 0.92161 0.49542 0.0
H73 H 0.81955 0.92129 0.52123 0.0
C74 C 0.84856 0.87394 0.55419 0.0
O75 O 0.88077 0.85882 0.55378 0.0
N76 N 0.89469 0.85385 0.49919 0.0
C77 C 0.93244 0.84014 0.49791 0.0
C78 C 0.91348 0.82029 0.49511 0.0
C79 C 0.85335 0.84195 0.49645 0.0
N80 N 0.86377 0.82145 0.49428 0.0
C81 C 0.99984 0.88168 0.5136 0.0
C82 C 0.99843 0.899 0.56831 0.0
C83 C 0.04403 0.89336 0.55565 0.0
C84 C 0.04432 0.88475 0.52783 0.0
C85 C 0.95481 0.89581 0.55323 0.0
N86 N 0.95554 0.88636 0.52645 0.0
H87 H 1.00125 0.87563 0.49203 0.0
H88 H 0.92088 0.90171 0.56309 0.0
H89 H 0.9712 0.84385 0.49914 0.0
H90 H 0.81626 0.84829 0.49714 0.0
O91 O 0.92566 0.8824 0.46919 0.0
O92 O 0.84476 0.8831 0.47731 0.0
O93 O 0.85096 0.88602 0.5369 0.0
C94 C 0.8808 0.88238 0.45992 0.0
H95 H 0.84344 0.96017 0.51774 0.0
H96 H 0.93471 0.80607 0.49376 0.0
H97 H 0.99632 0.906 0.58967 0.0
H98 H 0.0787 0.88087 0.51692 0.0
Co99 Co 0.89568 0.9011 0.22341 0.0
C100 C 0.93427 0.85882 0.22535 0.0
C101 C 0.85917 0.85821 0.21127 0.0
C102 C 0.87248 0.83834 0.21386 0.0
N103 N 0.89783 0.87102 0.21846 0.0
N104 N 0.91959 0.83873 0.22279 0.0
H105 H 0.96971 0.86468 0.23341 0.0
H106 H 0.82304 0.86313 0.2057 0.0
C107 C 0.84648 0.90981 0.17304 0.0
O108 O 0.87777 0.92507 0.17221 0.0
N109 N 0.89184 0.93145 0.22907 0.0
C110 C 0.92706 0.94557 0.23863 0.0
C111 C 0.90676 0.96525 0.24268 0.0
C112 C 0.85023 0.94288 0.22818 0.0
N113 N 0.85852 0.96355 0.23601 0.0
C114 C 0.99904 0.90627 0.21358 0.0
C115 C 0.99807 0.88986 0.15858 0.0
C116 C 0.04274 0.89724 0.17086 0.0
C117 C 0.04305 0.9052 0.19882 0.0
C118 C 0.95494 0.89101 0.17422 0.0
N119 N 0.95513 0.90024 0.2011 0.0
H120 H 1.00076 0.91153 0.23528 0.0
H121 H 0.92192 0.88386 0.16468 0.0
H122 H 0.9645 0.94213 0.24354 0.0
H123 H 0.81425 0.93614 0.22266 0.0
O124 O 0.92611 0.90315 0.25855 0.0
O125 O 0.84518 0.90132 0.25062 0.0
O126 O 0.85026 0.89864 0.19129 0.0
C127 C 0.88138 0.90243 0.2679 0.0
H128 H 0.84894 0.8247 0.21004 0.0
H129 H 0.92598 0.97972 0.2502 0.0
H130 H 0.99672 0.88273 0.13724 0.0
H131 H 0.07702 0.91062 0.20923 0.0
Co132 Co 0.11629 0.6355 0.9725 0.0
C133 C 0.07892 0.59299 0.97181 0.0
C134 C 0.1466 0.59232 0.94918 0.0
C135 C 0.13158 0.57208 0.94882 0.0
N136 N 0.11338 0.60538 0.9635 0.0
N137 N 0.08923 0.57258 0.96321 0.0
H138 H 0.04711 0.5988 0.98409 0.0
H139 H 0.18001 0.59707 0.94013 0.0
C140 C 0.16018 0.64652 0.92186 0.0
O141 O 0.12341 0.65942 0.92036 0.0
N142 N 0.12045 0.66592 0.98239 0.0
C143 C 0.09187 0.67868 0.00053 0.0
C144 C 0.11154 0.69841 0.00518 0.0
C145 C 0.1586 0.67814 0.97743 0.0
N146 N 0.1535 0.69808 -0.00938 0.0
C147 C 0.01578 0.64627 0.96364 0.0
C148 C 0.01062 0.62729 0.90956 0.0
C149 C 0.96993 0.63867 0.92175 0.0
C150 C 0.97249 0.64791 0.94921 0.0
C151 C 0.05375 0.62638 0.92472 0.0
N152 N 0.05676 0.63675 0.95107 0.0
H153 H 0.01562 0.65224 0.98509 0.0
H154 H 0.0848 0.61739 0.91524 0.0
H155 H 0.06091 0.67396 0.01153 0.0
H156 H 0.19124 0.67239 0.96594 0.0
O157 O 0.08577 0.63449 0.00691 0.0
O158 O 0.1669 0.63379 -0.00101 0.0
O159 O 0.16132 0.63573 0.94063 0.0
C160 C 0.13059 0.63361 0.01603 0.0
H161 H 0.15121 0.55809 0.93953 0.0
H162 H 0.09682 0.71182 0.01893 0.0
H163 H 0.00936 0.61951 0.88847 0.0
H164 H 0.94093 0.65605 0.95956 0.0
Co165 Co 0.10573 0.64981 0.26083 0.0
C166 C 0.07904 0.69339 0.25918 0.0
C167 C 0.14505 0.6919 0.28251 0.0
C168 C 0.13458 0.71254 0.28223 0.0
N169 N 0.11005 0.67994 0.26815 0.0
N170 N 0.09322 0.71342 0.26743 0.0
H171 H 0.04661 0.68862 0.24695 0.0
H172 H 0.17639 0.68609 0.29224 0.0
C173 C 0.14753 0.6361 0.30994 0.0
O174 O 0.11004 0.6233 0.30998 0.0
N175 N 0.10241 0.61943 0.25291 0.0
C176 C 0.06437 0.6069 0.24303 0.0
C177 C 0.08031 0.58649 0.23823 0.0
C178 C 0.14123 0.60638 0.2532 0.0
N179 N 0.12859 0.58619 0.24476 0.0
C180 C 1.0011 0.64838 0.26858 0.0
C181 C 1.0006 0.66124 0.32434 0.0
C182 C 0.95571 0.65558 0.31094 0.0
C183 C 0.95632 0.6497 0.28257 0.0
C184 C 0.04463 0.65992 0.30942 0.0
N185 N 0.04491 0.65216 0.2821 0.0
H186 H 1.00021 0.64444 0.24671 0.0
H187 H 0.07828 0.6653 0.31997 0.0
H188 H 0.02784 0.6119 0.23864 0.0
H189 H 0.17836 0.61163 0.2589 0.0
O190 O 0.07795 0.65073 0.22574 0.0
O191 O 0.15816 0.64825 0.23439 0.0
O192 O 0.14902 0.64849 0.29303 0.0
C193 C 0.12324 0.64929 0.21687 0.0
H194 H 0.15637 0.72585 0.29161 0.0
H195 H 0.05804 0.57292 0.23044 0.0
H196 H 0.00195 0.66641 0.34617 0.0
H197 H 0.92239 0.64628 0.27114 0.0
Co198 Co 0.89029 0.38591 0.00423 0.0
C199 C 0.92625 0.42948 0.00588 0.0
C200 C 0.85115 0.42838 0.01913 0.0
C201 C 0.86239 0.44868 0.01764 0.0
N202 N 0.8914 0.41629 0.01221 0.0
N203 N 0.90963 0.44932 0.00928 0.0
H204 H 0.96153 0.4247 -0.00321 0.0
H205 H 0.81505 0.42265 0.02345 0.0
C206 C 0.84418 0.39653 0.05971 0.0
O207 O 0.8802 0.40969 0.06799 0.0
N208 N 0.88758 0.35586 -0.00421 0.0
C209 C 0.92324 0.34286 0.98387 0.0
C210 C 0.90534 0.32275 0.9797 0.0
C211 C 0.8486 0.34361 -0.00119 0.0
N212 N 0.85848 0.32328 0.98915 0.0
C213 C 0.99358 0.38995 0.01605 0.0
C214 C 0.99189 0.37492 0.06404 0.0
C215 C 0.03636 0.38271 0.05552 0.0
C216 C 0.0371 0.38976 0.03081 0.0
C217 C 0.94914 0.37521 0.04838 0.0
N218 N 0.94964 0.38404 0.02568 0.0
H219 H 0.99566 0.39469 -0.00337 0.0
H220 H 0.91585 0.36827 0.05456 0.0
H221 H 0.95943 0.34771 0.97825 0.0
H222 H 0.81327 0.34949 0.00713 0.0
O223 O 0.92102 0.38605 0.96956 0.0
O224 O 0.84001 0.3875 0.97745 0.0
O225 O 0.84446 0.38563 0.03574 0.0
C226 C 0.87642 0.38746 0.96044 0.0
H227 H 0.83724 0.46181 0.02149 0.0
H228 H 0.92525 0.30882 0.97048 0.0
H229 H 0.9903 0.36851 0.08247 0.0
H230 H 0.07087 0.39545 0.02311 0.0
Co231 Co 0.88983 0.40766 0.72569 0.0
C232 C 0.92685 0.36486 0.72965 0.0
C233 C 0.84825 0.36614 0.72488 0.0
C234 C 0.86085 0.34639 0.72837 0.0
N235 N 0.88964 0.37773 0.72531 0.0
N236 N 0.9103 0.34561 0.73137 0.0
H237 H 0.96487 0.36948 0.73299 0.0
H238 H 0.81116 0.37185 0.7228 0.0
C239 C 0.84099 0.38869 0.67319 0.0
O240 O 0.87361 0.37349 0.66974 0.0
N241 N 0.88853 0.43737 0.72669 0.0
C242 C 0.92738 0.45048 0.72929 0.0
C243 C 0.9101 0.47046 0.73017 0.0
C244 C 0.84814 0.44949 0.72638 0.0
N245 N 0.8603 0.46981 0.72843 0.0
C246 C 0.99355 0.40251 0.71516 0.0
C247 C 0.99157 0.40583 0.66103 0.0
C248 C 0.03642 0.40084 0.6724 0.0
C249 C 0.03719 0.39989 0.70011 0.0
C250 C 0.94876 0.40863 0.67702 0.0
N251 N 0.94941 0.40552 0.70327 0.0
H252 H 0.99546 0.40196 0.73652 0.0
H253 H 0.91541 0.41341 0.66815 0.0
H254 H 0.96556 0.44595 0.73093 0.0
H255 H 0.81069 0.44354 0.72478 0.0
O256 O 0.92004 0.41233 0.76114 0.0
O257 O 0.83919 0.41063 0.75325 0.0
O258 O 0.84421 0.40371 0.6935 0.0
C259 C 0.87524 0.41265 0.77069 0.0
H260 H 0.83549 0.33366 0.72894 0.0
H261 H 0.93237 0.48446 0.73271 0.0
H262 H 0.9892 0.4073 0.63989 0.0
H263 H 0.07131 0.39721 0.71023 0.0
Co264 Co 0.61137 0.13673 0.97023 0.0
C265 C 0.5803 0.09214 0.96685 0.0
C266 C 0.65806 0.09549 0.96089 0.0
C267 C 0.64843 0.07489 0.96165 0.0
N268 N 0.61526 0.10636 0.96381 0.0
N269 N 0.59947 0.07286 0.96535 0.0
H270 H 0.54229 0.09569 0.97203 0.0
H271 H 0.69422 0.10227 0.95945 0.0
C272 C 0.66166 0.12521 0.91642 0.0
O273 O 0.6312 0.10942 0.90977 0.0
N274 N 0.60951 0.16683 0.97725 0.0
C275 C 0.56982 0.17939 0.98296 0.0
C276 C 0.58536 0.19982 0.98601 0.0
C277 C 0.64858 0.17965 0.97732 0.0
N278 N 0.63487 0.1999 0.98254 0.0
C279 C 0.50916 0.13022 0.95619 0.0
C280 C 0.51108 0.14844 0.91074 0.0
C281 C 0.46575 0.14107 0.91893 0.0
C282 C 0.46557 0.13158 0.94185 0.0
C283 C 0.55423 0.14603 0.92514 0.0
N284 N 0.55328 0.13647 0.94721 0.0
H285 H 0.50661 0.12509 0.97535 0.0
H286 H 0.58771 0.1531 0.91944 0.0
H287 H 0.53228 0.17408 0.98468 0.0
H288 H 0.68619 0.17425 0.97325 0.0
O289 O 0.57891 0.13646 0.00433 0.0
O290 O 0.66034 0.13783 -0.00165 0.0
O291 O 0.65787 0.13758 0.93927 0.0
C292 C 0.62311 0.13726 0.01467 0.0
H293 H 0.67545 0.0625 0.96032 0.0
H294 H 0.56217 0.21355 -0.00925 0.0
H295 H 0.5132 0.15682 0.89407 0.0
H296 H 0.4319 0.12567 0.9493 0.0
Co297 Co 0.60512 0.14889 0.25971 0.0
C298 C 0.57662 0.19293 0.26192 0.0
C299 C 0.65254 0.18995 0.2732 0.0
C300 C 0.64307 0.21062 0.27264 0.0
N301 N 0.6109 0.17892 0.26644 0.0
N302 N 0.59536 0.21245 0.26555 0.0
H303 H 0.53949 0.18879 0.25485 0.0
H304 H 0.68778 0.18331 0.27727 0.0
C305 C 0.64896 0.13513 0.30805 0.0
O306 O 0.61156 0.12232 0.30823 0.0
N307 N 0.6011 0.11848 0.25246 0.0
C308 C 0.56147 0.10568 0.25005 0.0
C309 C 0.57769 0.08532 0.24619 0.0
C310 C 0.64073 0.10556 0.24934 0.0
N311 N 0.62751 0.08528 0.24579 0.0
C312 C 0.50094 0.14851 0.26875 0.0
C313 C 0.50244 0.16144 0.32449 0.0
C314 C 0.45696 0.15622 0.31149 0.0
C315 C 0.4566 0.15036 0.28313 0.0
C316 C 0.54609 0.15962 0.30916 0.0
N317 N 0.54526 0.15186 0.28184 0.0
H318 H 0.49942 0.14392 0.24693 0.0
H319 H 0.58029 0.1646 0.31939 0.0
H320 H 0.52326 0.11034 0.25114 0.0
H321 H 0.67863 0.11099 0.25072 0.0
O322 O 0.57559 0.14979 0.22509 0.0
O323 O 0.65616 0.14684 0.23233 0.0
O324 O 0.64982 0.14769 0.29134 0.0
C325 C 0.62033 0.14815 0.21545 0.0
H326 H 0.66945 0.22328 0.27671 0.0
H327 H 0.55455 0.07158 0.24383 0.0
H328 H 0.50453 0.16657 0.34631 0.0
H329 H 0.42228 0.14714 0.27202 0.0
Co330 Co 0.39703 0.88547 0.0024 0.0
C331 C 0.43024 0.9288 0.00043 0.0
C332 C 0.35612 0.92812 0.01528 0.0
C333 C 0.36761 0.94839 0.01356 0.0
N334 N 0.39599 0.91586 0.00794 0.0
N335 N 0.41415 0.9487 0.00408 0.0
H336 H 0.46541 0.92388 -0.00867 0.0
H337 H 0.32036 0.92261 0.02055 0.0
C338 C 0.35062 0.89818 0.0575 0.0
O339 O 0.38465 0.91263 0.06384 0.0
N340 N 0.39715 0.85539 -0.00382 0.0
C341 C 0.43634 0.84282 0.98895 0.0
C342 C 0.4211 0.82243 0.98625 0.0
C343 C 0.35848 0.84257 -0.00252 0.0
N344 N 0.37216 0.82229 -0.00842 0.0
C345 C 0.50009 0.89145 0.01421 0.0
C346 C 0.49937 0.87902 0.06395 0.0
C347 C 0.54327 0.88682 0.05479 0.0
C348 C 0.54354 0.89258 0.02926 0.0
C349 C 0.45665 0.87802 0.04805 0.0
N350 N 0.45656 0.88555 0.02434 0.0
H351 H 0.50194 0.89503 -0.00588 0.0
H352 H 0.42395 0.871 0.05479 0.0
H353 H 0.47337 0.84812 0.9857 0.0
H354 H 0.32128 0.848 0.00284 0.0
O355 O 0.42757 0.88445 0.96745 0.0
O356 O 0.3465 0.88515 0.97525 0.0
O357 O 0.35165 0.88588 0.03444 0.0
C358 C 0.38284 0.88497 0.95814 0.0
H359 H 0.34293 0.96168 0.01769 0.0
H360 H 0.44409 0.80875 0.98032 0.0
H361 H 0.49822 0.87349 0.08303 0.0
H362 H 0.57693 0.89819 0.02105 0.0
Co363 Co 0.39722 0.90808 0.72436 0.0
C364 C 0.43436 0.86641 0.72978 0.0
C365 C 0.35792 0.86553 0.71798 0.0
C366 C 0.37196 0.84586 0.72123 0.0
N367 N 0.39706 0.87834 0.72331 0.0
N368 N 0.42 0.84643 0.72867 0.0
H369 H 0.47073 0.87239 0.73597 0.0
H370 H 0.32146 0.87025 0.71261 0.0
C371 C 0.34943 0.91382 0.67269 0.0
O372 O 0.3843 0.92719 0.6696 0.0
N373 N 0.3957 0.93818 0.72588 0.0
C374 C 0.43296 0.95183 0.72507 0.0
C375 C 0.41352 0.9715 0.72676 0.0
C376 C 0.35415 0.94998 0.72842 0.0
N377 N 0.36399 0.97034 0.72884 0.0
C378 C 0.50047 0.91068 0.71255 0.0
C379 C 0.49716 0.88711 0.66071 0.0
C380 C 0.54293 0.895 0.67112 0.0
C381 C 0.54408 0.90687 0.69755 0.0
C382 C 0.45426 0.89174 0.67622 0.0
N383 N 0.45585 0.90424 0.70136 0.0
H384 H 0.50272 0.91883 0.73336 0.0
H385 H 0.42017 0.88446 0.66834 0.0
H386 H 0.47176 0.94834 0.72343 0.0
H387 H 0.31733 0.94367 0.72939 0.0
O388 O 0.42864 0.91222 0.7595 0.0
O389 O 0.34749 0.91109 0.75231 0.0
O390 O 0.35085 0.90418 0.6926 0.0
C391 C 0.38405 0.91262 0.7694 0.0
H392 H 0.34854 0.83219 0.71835 0.0
H393 H 0.43443 0.98564 0.72685 0.0
H394 H 0.49447 0.87694 0.64103 0.0
H395 H 0.5783 0.91323 0.70676 0.0
Co396 Co 0.60445 0.63738 0.4723 0.0
C397 C 0.57419 0.59395 0.47295 0.0
C398 C 0.64884 0.59565 0.45879 0.0
C399 C 0.63848 0.57522 0.46026 0.0
N400 N 0.60854 0.60733 0.46675 0.0
N401 N 0.59159 0.57418 0.46922 0.0
H402 H 0.53803 0.59873 0.48114 0.0
H403 H 0.6838 0.60166 0.45312 0.0
C404 C 0.64678 0.64891 0.422 0.0
O405 O 0.60922 0.6616 0.42135 0.0
N406 N 0.60211 0.66777 0.47847 0.0
C407 C 0.56505 0.68095 0.48826 0.0
C408 C 0.58241 0.70115 0.49212 0.0
C409 C 0.64171 0.68023 0.47729 0.0
N410 N 0.63056 0.70064 0.48506 0.0
C411 C 0.50021 0.63944 0.46401 0.0
C412 C 0.50001 0.62383 0.40882 0.0
C413 C 0.45511 0.63039 0.42181 0.0
C414 C 0.45559 0.63766 0.44996 0.0
C415 C 0.54388 0.62559 0.42384 0.0
N416 N 0.54404 0.63462 0.45077 0.0
H417 H 0.49912 0.64445 0.48576 0.0
H418 H 0.57752 0.61952 0.41372 0.0
H419 H 0.52837 0.67655 0.49334 0.0
H420 H 0.67847 0.6744 0.47159 0.0
O421 O 0.5756 0.63772 0.50747 0.0
O422 O 0.65613 0.63967 0.49922 0.0
O423 O 0.64841 0.63728 0.43986 0.0
C424 C 0.62058 0.63938 0.51668 0.0
H425 H 0.66376 0.56219 0.45542 0.0
H426 H 0.56127 0.71512 0.49973 0.0
H427 H 0.50151 0.61763 0.38721 0.0
H428 H 0.42166 0.64182 0.46121 0.0
Co429 Co 0.61683 0.65888 0.76232 0.0
C430 C 0.59294 0.70318 0.76066 0.0
C431 C 0.65217 0.70134 0.78834 0.0
C432 C 0.64312 0.72206 0.78785 0.0
N433 N 0.6195 0.68939 0.77195 0.0
N434 N 0.6058 0.72315 0.7704 0.0
H435 H 0.56494 0.69879 0.74528 0.0
H436 H 0.68218 0.69567 0.79912 0.0
C437 C 0.66293 0.66181 0.81797 0.0
O438 O 0.62536 0.67258 0.82999 0.0
N439 N 0.6156 0.62879 0.75198 0.0
C440 C 0.57813 0.61691 0.74006 0.0
C441 C 0.59354 0.59641 0.73455 0.0
C442 C 0.65324 0.61548 0.75351 0.0
N443 N 0.64072 0.59555 0.74306 0.0
C444 C 0.51851 0.66969 0.78198 0.0
C445 C 0.51273 0.64143 0.81661 0.0
C446 C 0.47228 0.65442 0.8145 0.0
C447 C 0.47542 0.66866 0.79695 0.0
C448 C 0.5557 0.64331 0.80168 0.0
N449 N 0.55874 0.65772 0.78511 0.0
H450 H 0.51848 0.67962 0.76719 0.0
H451 H 0.58647 0.63302 0.80326 0.0
H452 H 0.54231 0.62279 0.73551 0.0
H453 H 0.68949 0.62033 0.76139 0.0
O454 O 0.58395 0.66091 0.72888 0.0
O455 O 0.66554 0.65964 0.73458 0.0
O456 O 0.66407 0.65597 0.79222 0.0
C457 C 0.62821 0.66064 0.71851 0.0
H458 H 0.66356 0.73524 0.79879 0.0
H459 H 0.57164 0.58315 0.72512 0.0
H460 H 0.51115 0.62999 0.82971 0.0
H461 H 0.44416 0.67844 0.79416 0.0
Co462 Co 0.38858 0.38608 0.50623 0.0
C463 C 0.42689 0.42846 0.50536 0.0
C464 C 0.36253 0.42953 0.53075 0.0
C465 C 0.37788 0.44965 0.53076 0.0
N466 N 0.3934 0.41624 0.51491 0.0
N467 N 0.41817 0.44896 0.51469 0.0
H468 H 0.45695 0.4225 0.4918 0.0
H469 H 0.33043 0.42505 0.54119 0.0
C470 C 0.34037 0.37414 0.555 0.0
O471 O 0.3719 0.35871 0.55411 0.0
N472 N 0.38292 0.35574 0.49682 0.0
C473 C 0.41677 0.34195 0.48435 0.0
C474 C 0.39615 0.32236 0.47904 0.0
C475 C 0.34152 0.34427 0.49797 0.0
N476 N 0.34894 0.32381 0.48776 0.0
C477 C 0.49128 0.37844 0.51485 0.0
C478 C 0.49136 0.39231 0.57045 0.0
C479 C 0.5355 0.38486 0.55748 0.0
C480 C 0.53529 0.37814 0.52926 0.0
C481 C 0.44825 0.39253 0.55518 0.0
N482 N 0.44783 0.38455 0.5279 0.0
H483 H 0.49284 0.3744 0.49302 0.0
H484 H 0.41577 0.39979 0.56534 0.0
H485 H 0.45343 0.34562 0.47834 0.0
H486 H 0.3063 0.35081 0.50552 0.0
O487 O 0.41929 0.38605 0.47155 0.0
O488 O 0.33841 0.38852 0.4797 0.0
O489 O 0.34298 0.38652 0.53816 0.0
C490 C 0.37478 0.38789 0.46252 0.0
H491 H 0.35986 0.46374 0.54112 0.0
H492 H 0.41451 0.30813 0.46944 0.0
H493 H 0.49051 0.39857 0.59207 0.0
H494 H 0.56893 0.37281 0.51834 0.0
Co495 Co 0.3897 0.39997 0.22424 0.0
C496 C 0.42799 0.35841 0.23027 0.0
C497 C 0.35615 0.35644 0.2117 0.0
C498 C 0.37144 0.33662 0.21344 0.0
N499 N 0.39178 0.37005 0.22197 0.0
N500 N 0.41648 0.33788 0.22515 0.0
H501 H 0.46214 0.36477 0.23958 0.0
H502 H 0.32118 0.36059 0.20375 0.0
C503 C 0.34056 0.40653 0.17282 0.0
O504 O 0.3709 0.422 0.17146 0.0
N505 N 0.38629 0.4302 0.22692 0.0
C506 C 0.42336 0.44416 0.2276 0.0
C507 C 0.40359 0.46375 0.22939 0.0
C508 C 0.34438 0.4418 0.22896 0.0
N509 N 0.35398 0.46229 0.23018 0.0
C510 C 0.49347 0.40389 0.21498 0.0
C511 C 0.49386 0.38567 0.16054 0.0
C512 C 0.53782 0.39377 0.17285 0.0
C513 C 0.5377 0.40262 0.20045 0.0
C514 C 0.45017 0.38753 0.17579 0.0
N515 N 0.44978 0.3977 0.2023 0.0
H516 H 0.49434 0.4104 0.23643 0.0
H517 H 0.41713 0.38039 0.16628 0.0
H518 H 0.46231 0.44088 0.22701 0.0
H519 H 0.30757 0.43528 0.22886 0.0
O520 O 0.41921 0.40399 0.25978 0.0
O521 O 0.3385 0.40173 0.2514 0.0
O522 O 0.34499 0.39592 0.19165 0.0
C523 C 0.37428 0.4039 0.26903 0.0
H524 H 0.35062 0.32239 0.20708 0.0
H525 H 0.42427 0.47807 0.23041 0.0
H526 H 0.49328 0.37811 0.13935 0.0
H527 H 0.57151 0.4085 0.21068 0.0
C528 C 0.20436 0.21904 0.49587 0.0
C529 C 0.15677 0.21857 0.48468 0.0
C530 C 0.23511 0.23655 0.49694 0.0
C531 C 0.21817 0.25389 0.4862 0.0
C532 C 0.17022 0.25345 0.47478 0.0
C533 C 0.14005 0.23587 0.47432 0.0
C534 C 0.28575 0.23649 0.50959 0.0
C535 C 0.15102 0.27142 0.46268 0.0
C536 C 0.28112 0.30658 0.50818 0.0
C537 C 0.3145 0.30682 0.4868 0.0
C538 C 0.24951 0.2895 0.50829 0.0
C539 C 0.251 0.27229 0.48632 0.0
C540 C 0.28406 0.27263 0.46443 0.0
C541 C 0.31557 0.28981 0.46503 0.0
C542 C 0.21522 0.2897 0.53217 0.0
C543 C 0.28632 0.25479 0.4404 0.0
H544 H 0.21724 0.20581 0.50414 0.0
H545 H 0.10361 0.23548 0.46528 0.0
H546 H 0.3146 0.23782 0.49423 0.0
H547 H 0.28973 0.25018 0.52631 0.0
H548 H 0.29278 0.2221 0.51783 0.0
H549 H 0.11275 0.26872 0.45476 0.0
H550 H 0.15145 0.28598 0.4782 0.0
H551 H 0.1755 0.27395 0.44579 0.0
H552 H 0.28089 0.3195 0.52524 0.0
H553 H 0.34102 0.29002 0.44834 0.0
H554 H 0.22375 0.2763 0.54213 0.0
H555 H 0.17635 0.28791 0.52508 0.0
H556 H 0.2183 0.30432 0.54753 0.0
H557 H 0.29722 0.24024 0.44727 0.0
H558 H 0.31308 0.25771 0.42468 0.0
H559 H 0.24924 0.2521 0.43094 0.0
C560 C 0.9926 0.96714 0.50523 0.0
C561 C 0.94202 0.96463 0.49944 0.0
C562 C 0.01844 0.98474 0.50016 0.0
C563 C 0.99329 0.99999 0.48852 0.0
C564 C 0.9424 0.99728 0.48216 0.0
C565 C 0.91737 0.97976 0.48789 0.0
C566 C 0.07246 0.98717 0.50763 0.0
C567 C 0.91435 1.0129 0.46923 0.0
C568 C 0.04312 0.05544 0.49679 0.0
C569 C 0.06742 0.055 0.47192 0.0
C570 C 0.01978 0.03755 0.50269 0.0
C571 C 0.01992 1.01884 0.48305 0.0
C572 C 0.04426 1.01834 0.45785 0.0
C573 C 0.06806 0.03636 0.45271 0.0
C574 C 0.99496 0.03869 0.52996 0.0
C575 C 0.04449 0.99888 0.43614 0.0
H576 H 0.01163 0.95555 0.51434 0.0
H577 H 0.87846 0.97772 0.48299 0.0
H578 H 0.09484 0.98819 0.48933 0.0
H579 H 0.07813 1.00191 0.52242 0.0
H580 H 0.08657 0.97401 0.51666 0.0
H581 H 0.87525 1.00823 0.46487 0.0
H582 H 0.91482 0.02839 0.48287 0.0
H583 H 0.93255 1.0147 0.44993 0.0
H584 H 0.04311 0.06973 0.51183 0.0
H585 H 0.08637 0.03601 0.43337 0.0
H586 H 0.01018 0.02647 0.54034 0.0
H587 H 0.95478 0.03564 0.5271 0.0
H588 H 0.99992 0.05413 0.54343 0.0
H589 H 0.06122 0.98575 0.44417 0.0
H590 H 0.06534 1.00099 0.41771 0.0
H591 H 0.00596 0.99434 0.43014 0.0
C592 C 0.20595 0.07509 0.7624 0.0
C593 C 0.16788 0.07554 0.74351 0.0
C594 C 0.23681 0.05756 0.76078 0.0
C595 C 0.22974 0.04009 0.73961 0.0
C596 C 0.19115 0.0404 0.7206 0.0
C597 C 0.16063 0.05806 0.72285 0.0
C598 C 0.27724 0.0578 0.78161 0.0
C599 C 0.18271 0.02222 0.69754 0.0
C600 C 0.33996 1.00449 0.71853 0.0
C601 C 0.32944 0.98745 0.73101 0.0
C602 C 0.30775 0.02161 0.72107 0.0
C603 C 0.26394 0.02185 0.73665 0.0
C604 C 0.25288 1.00464 0.74918 0.0
C605 C 0.28564 0.9876 0.74609 0.0
C606 C 0.32064 0.03948 0.70705 0.0
C607 C 0.20672 1.00436 0.76611 0.0
H608 H 0.2113 0.08841 0.77864 0.0
H609 H 0.13171 0.05839 0.70799 0.0
H610 H 0.27327 0.04419 0.7918 0.0
H611 H 0.31387 0.05646 0.77141 0.0
H612 H 0.27676 0.07227 0.79735 0.0
H613 H 0.15024 0.02466 0.68493 0.0
H614 H 0.21592 1.01978 0.68427 0.0
H615 H 0.17695 1.00772 0.70565 0.0
H616 H 0.37333 1.00433 0.7065 0.0
H617 H 0.27757 0.97458 0.75599 0.0
H618 H 0.32404 0.05412 0.72229 0.0
H619 H 0.29061 0.04185 0.69286 0.0
H620 H 0.35584 0.03679 0.69544 0.0
H621 H 0.20679 1.01789 0.78323 0.0
H622 H 0.20345 0.98983 0.77451 0.0
H623 H 0.1735 1.00587 0.75364 0.0
C624 C 0.98778 0.32507 0.72702 0.0
C625 C 0.93906 0.32815 0.73664 0.0
C626 C 0.01575 0.30786 0.73154 0.0
C627 C 0.9947 0.2935 0.74629 0.0
C628 C 0.94575 0.29669 0.75634 0.0
C629 C 0.91852 0.3139 0.7513 0.0
C630 C 0.06762 0.30492 0.72026 0.0
C631 C 0.92209 0.28192 0.77244 0.0
C632 C 0.04496 0.23816 0.73809 0.0
C633 C 0.07419 0.23935 0.76146 0.0
C634 C 0.01981 0.25576 0.7326 0.0
C635 C 0.02352 0.275 0.75106 0.0
C636 C 0.05346 0.27635 0.77452 0.0
C637 C 0.07864 0.25854 0.77934 0.0
C638 C 0.98882 0.2537 0.70718 0.0
C639 C 0.05803 0.29649 0.79485 0.0
H640 H 0.00366 0.3359 0.71546 0.0
H641 H 0.88121 0.31636 0.75916 0.0
H642 H 0.0943 0.30446 0.73695 0.0
H643 H 0.07044 0.28977 0.70596 0.0
H644 H 0.07873 0.31756 0.7094 0.0
H645 H 0.88405 0.2868 0.77927 0.0
H646 H 0.92039 0.26601 0.75991 0.0
H647 H 0.94486 0.28096 0.79059 0.0
H648 H 0.04206 0.22348 0.72394 0.0
H649 H 0.10082 0.25949 0.79753 0.0
H650 H 1.0006 0.26538 0.69497 0.0
H651 H 0.94946 0.2569 0.71275 0.0
H652 H 0.99153 0.23791 0.6943 0.0
H653 H 0.07129 0.30912 0.78459 0.0
H654 H 0.08384 0.29511 0.81167 0.0
H655 H 0.02119 0.30127 0.80368 0.0
C656 C 0.84058 0.78745 0.50539 0.0
C657 C 0.82937 0.80437 0.49282 0.0
C658 C 0.80783 0.77061 0.5041 0.0
C659 C 0.76294 0.77047 0.48953 0.0
C660 C 0.75143 0.78749 0.47672 0.0
C661 C 0.78459 0.80432 0.47873 0.0
C662 C 0.82117 0.753 0.51849 0.0
C663 C 0.7043 0.78782 0.46069 0.0
C664 C 0.70109 0.71765 0.46663 0.0
C665 C 0.66346 0.71817 0.48606 0.0
C666 C 0.73313 0.73469 0.46719 0.0
C667 C 0.72797 0.75257 0.48797 0.0
C668 C 0.69012 0.75314 0.50771 0.0
C669 C 0.65813 0.73601 0.50638 0.0
C670 C 0.77252 0.73352 0.44554 0.0
C671 C 0.68387 0.77171 0.53049 0.0
H672 H 0.87477 0.78757 0.51666 0.0
H673 H 0.776 0.81727 0.4688 0.0
H674 H 0.79202 0.75121 0.53351 0.0
H675 H 0.82317 0.73811 0.50364 0.0
H676 H 0.85717 0.7556 0.52925 0.0
H677 H 0.70115 0.80203 0.45158 0.0
H678 H 0.70271 0.7739 0.44416 0.0
H679 H 0.67182 0.78711 0.47405 0.0
H680 H 0.70493 0.70401 0.45069 0.0
H681 H 0.62948 0.73639 0.52161 0.0
H682 H 0.8097 0.73444 0.45503 0.0
H683 H 0.76899 0.74698 0.43503 0.0
H684 H 0.77028 0.71889 0.43016 0.0
H685 H 0.71822 0.77419 0.54277 0.0
H686 H 0.65251 0.76976 0.54415 0.0
H687 H 0.67751 0.78602 0.52202 0.0
C688 C 0.78647 0.9797 0.21769 0.0
C689 C 0.82347 0.98041 0.23743 0.0
C690 C 0.75376 0.99655 0.21813 0.0
C691 C 0.75757 1.01438 0.23912 0.0
C692 C 0.79431 1.01496 0.25939 0.0
C693 C 0.827 0.99807 0.25815 0.0
C694 C 0.71566 0.99541 0.1959 0.0
C695 C 0.7991 0.03344 0.28243 0.0
C696 C 0.7051 0.06685 0.22991 0.0
C697 C 0.6597 0.06739 0.24359 0.0
C698 C 0.73678 0.0495 0.22774 0.0
C699 C 0.7232 0.03244 0.24002 0.0
C700 C 0.67742 0.03296 0.25393 0.0
C701 C 0.6461 0.05032 0.25534 0.0
C702 C 0.78487 0.04946 0.21237 0.0
C703 C 0.66193 1.01533 0.26779 0.0
H704 H 0.78402 0.96617 0.20149 0.0
H705 H 0.85517 0.99856 0.27362 0.0
H706 H 0.67796 0.99695 0.20483 0.0
H707 H 0.72095 1.00857 0.18501 0.0
H708 H 0.71778 0.98055 0.18092 0.0
H709 H 0.82878 0.03124 0.29695 0.0
H710 H 0.80732 0.04772 0.27423 0.0
H711 H 0.76361 0.03616 0.29371 0.0
H712 H 0.71548 0.07991 0.22058 0.0
H713 H 0.61136 0.05079 0.26625 0.0
H714 H 0.78719 0.03533 0.19617 0.0
H715 H 0.81646 0.04889 0.22632 0.0
H716 H 0.78895 0.06346 0.20292 0.0
H717 H 0.66102 1.00046 0.25287 0.0
H718 H 0.62494 1.01801 0.27752 0.0
H719 H 0.68939 1.01345 0.2836 0.0
C720 C 0.92158 0.80654 0.24185 0.0
C721 C 0.94649 0.82151 0.23013 0.0
C722 C 0.9466 0.7893 0.24843 0.0
C723 C 0.99781 0.78674 0.2428 0.0
C724 C 0.02333 0.80189 0.23115 0.0
C725 C 0.99742 0.81921 0.22519 0.0
C726 C 0.91812 0.77378 0.26131 0.0
C727 C 0.07775 0.7996 0.22451 0.0
C728 C 0.07003 0.7506 0.28014 0.0
C729 C 0.07002 0.73186 0.26112 0.0
C730 C 0.04708 0.76862 0.27439 0.0
C731 C 0.02423 0.768 0.2488 0.0
C732 C 0.0249 0.7492 0.22933 0.0
C733 C 0.0474 0.73133 0.23581 0.0
C734 C 0.04644 0.78821 0.29591 0.0
C735 C 0.00163 0.74792 0.20168 0.0
H736 H 0.88239 0.80845 0.24613 0.0
H737 H 0.01666 0.83069 0.21598 0.0
H738 H 0.91914 0.75822 0.24785 0.0
H739 H 0.93559 0.77214 0.28084 0.0
H740 H 0.87885 0.77842 0.26525 0.0
H741 H 0.09227 0.81282 0.21573 0.0
H742 H 0.09912 0.7986 0.24311 0.0
H743 H 0.08429 0.7849 0.20977 0.0
H744 H 0.08709 0.75102 0.2998 0.0
H745 H 0.04795 0.71697 0.2209 0.0
H746 H 0.00767 0.79269 0.30154 0.0
H747 H 0.0633 0.8013 0.28785 0.0
H748 H 0.0667 0.78626 0.31456 0.0
H749 H 0.96128 0.75085 0.20394 0.0
H750 H 0.00744 0.73247 0.18836 0.0
H751 H 0.0173 0.76015 0.19146 0.0
C752 C 0.36111 0.7859 -0.00235 0.0
C753 C 0.34137 0.80415 -0.00911 0.0
C754 C 0.3318 0.76807 -0.00295 0.0
C755 C 0.28154 0.76839 0.98924 0.0
C756 C 0.26149 0.7867 0.98212 0.0
C757 C 0.29156 0.80439 0.9832 0.0
C758 C 0.35441 0.74901 0.00522 0.0
C759 C 0.20822 0.7876 0.97343 0.0
C760 C 0.21451 0.71666 0.9671 0.0
C761 C 0.18701 0.71525 -0.00954 0.0
C762 C 0.24552 0.73384 0.96635 0.0
C763 C 0.24944 0.74988 0.98963 0.0
C764 C 0.22249 0.74831 0.01343 0.0
C765 C 0.19155 0.73108 0.01351 0.0
C766 C 0.27346 0.73497 0.94054 0.0
C767 C 0.22624 0.76487 0.03883 0.0
H768 H 0.39938 0.7857 0.00394 0.0
H769 H 0.27629 0.81834 0.97762 0.0
H770 H 0.33472 0.74538 0.02322 0.0
H771 H 0.35021 0.7353 0.98855 0.0
H772 H 0.39433 0.75113 0.01021 0.0
H773 H 0.1988 0.80271 0.96753 0.0
H774 H 0.20062 0.77483 0.95595 0.0
H775 H 0.18339 0.78528 -0.00973 0.0
H776 H 0.21083 0.70456 0.94917 0.0
H777 H 0.17114 0.72991 0.03179 0.0
H778 H 0.31372 0.73631 0.94471 0.0
H779 H 0.26208 0.74911 0.9328 0.0
H780 H 0.26698 0.72107 0.92436 0.0
H781 H 0.26534 0.76676 0.04553 0.0
H782 H 0.20366 0.76111 0.05582 0.0
H783 H 0.21372 0.7801 0.03449 0.0
C784 C 0.90972 0.48214 -0.0085 0.0
C785 C 0.93536 0.46705 0.00262 0.0
C786 C 0.93436 0.49939 0.98469 0.0
C787 C 0.98583 0.50178 0.98946 0.0
C788 C 0.01189 0.48663 0.0008 0.0
C789 C 0.9864 0.46936 0.00703 0.0
C790 C 0.90536 0.51499 0.97221 0.0
C791 C 0.06664 0.48874 0.00655 0.0
C792 C 0.05979 0.53629 0.95061 0.0
C793 C 0.06261 0.55498 0.9696 0.0
C794 C 0.03458 0.51891 0.9567 0.0
C795 C 0.01236 0.52015 0.9826 0.0
C796 C 0.01534 0.53898 0.00191 0.0
C797 C 0.04009 0.55621 -0.0049 0.0
C798 C 0.03154 0.49925 0.93538 0.0
C799 C 0.99281 0.54086 0.02988 0.0
H800 H 0.87043 0.48024 0.98764 0.0
H801 H 0.00619 0.4578 0.01582 0.0
H802 H 0.90797 0.53067 0.98528 0.0
H803 H 0.92133 0.51616 0.95212 0.0
H804 H 0.86569 0.51071 0.96944 0.0
H805 H 0.08133 0.47575 0.01572 0.0
H806 H 0.08718 0.48911 0.98745 0.0
H807 H 0.07413 0.50368 0.0206 0.0
H808 H 0.0768 0.53538 0.93081 0.0
H809 H 0.04284 0.57053 0.00996 0.0
H810 H 0.99225 0.49503 0.93099 0.0
H811 H 0.04898 0.48611 0.94306 0.0
H812 H 0.05008 0.50093 0.91609 0.0
H813 H 0.9524 0.53799 0.02818 0.0
H814 H 0.99907 0.55647 0.0427 0.0
H815 H 0.0088 0.52885 0.04036 0.0
C816 C 0.15213 0.55048 0.22246 0.0
C817 C 0.16001 0.56808 0.24285 0.0
C818 C 0.18232 0.53272 0.22033 0.0
C819 C 0.22109 0.5324 0.23925 0.0
C820 C 0.2289 0.55005 0.26008 0.0
C821 C 0.19847 0.56771 0.26152 0.0
C822 C 0.17324 0.51441 0.19755 0.0
C823 C 0.26948 0.5503 0.28083 0.0
C824 C 0.27539 0.47975 0.2466 0.0
C825 C 0.31938 0.47932 0.23164 0.0
C826 C 0.24307 0.49695 0.24938 0.0
C827 C 0.25468 0.51395 0.23654 0.0
C828 C 0.29853 0.51333 0.22092 0.0
C829 C 0.33037 0.49611 0.2188 0.0
C830 C 0.19692 0.4971 0.26642 0.0
C831 C 0.31194 0.5309 0.20647 0.0
H832 H 0.12286 0.55077 0.2078 0.0
H833 H 0.20428 0.58115 0.27752 0.0
H834 H 0.20645 0.51156 0.18432 0.0
H835 H 0.16669 0.50009 0.20596 0.0
H836 H 0.141 0.51696 0.18482 0.0
H837 H 0.26951 0.56491 0.29634 0.0
H838 H 0.2652 0.53686 0.2913 0.0
H839 H 0.306 0.54866 0.27051 0.0
H840 H 0.267 0.46689 0.25674 0.0
H841 H 0.36394 0.4957 0.20687 0.0
H842 H 0.16374 0.49872 0.25397 0.0
H843 H 0.19751 0.51074 0.28338 0.0
H844 H 0.19314 0.48269 0.27504 0.0
H845 H 0.2818 0.53337 0.1924 0.0
H846 H 0.34685 0.52782 0.19467 0.0
H847 H 0.31618 0.54562 0.22147 0.0
C848 C 0.71409 0.2179 -0.00504 0.0
C849 C 0.66644 0.21785 0.98395 0.0
C850 C 0.74522 0.23531 -0.00347 0.0
C851 C 0.72866 0.25295 0.98634 0.0
C852 C 0.68063 0.25293 0.97506 0.0
C853 C 0.64995 0.23546 0.97425 0.0
C854 C 0.79578 0.23484 0.00916 0.0
C855 C 0.66193 0.27123 0.96347 0.0
C856 C 0.79196 0.30536 0.0096 0.0
C857 C 0.82559 0.30581 0.98837 0.0
C858 C 0.76043 0.28821 0.00933 0.0
C859 C 0.76192 0.27127 0.98703 0.0
C860 C 0.79535 0.27179 0.96536 0.0
C861 C 0.82705 0.28896 0.96642 0.0
C862 C 0.72597 0.2881 0.03306 0.0
C863 C 0.79744 0.25426 0.94096 0.0
H864 H 0.72667 0.2044 0.00276 0.0
H865 H 0.61335 0.23535 0.96545 0.0
H866 H 0.82477 0.23629 -0.00607 0.0
H867 H 0.79999 0.24831 0.02618 0.0
H868 H 0.8024 0.22025 0.017 0.0
H869 H 0.62376 0.26874 0.95534 0.0
H870 H 0.66233 0.28557 0.97936 0.0
H871 H 0.68675 0.27401 0.94684 0.0
H872 H 0.79112 0.31827 0.02671 0.0
H873 H 0.85254 0.28939 0.94982 0.0
H874 H 0.73375 0.27432 0.04241 0.0
H875 H 0.68708 0.2868 0.02594 0.0
H876 H 0.72961 0.3024 0.04893 0.0
H877 H 0.80755 0.23947 0.94743 0.0
H878 H 0.82467 0.25728 0.92551 0.0
H879 H 0.76046 0.25198 0.93128 0.0
C880 C 0.70734 0.57588 0.76078 0.0
C881 C 0.67156 0.57726 0.74093 0.0
C882 C 0.73745 0.55811 0.75901 0.0
C883 C 0.73215 0.54139 0.73664 0.0
C884 C 0.69621 0.54273 0.71649 0.0
C885 C 0.66618 0.56058 0.71897 0.0
C886 C 0.77485 0.55721 0.78113 0.0
C887 C 0.68989 0.52543 0.6921 0.0
C888 C 0.84193 0.50479 0.71893 0.0
C889 C 0.82739 0.4874 0.72974 0.0
C890 C 0.8111 0.52233 0.72077 0.0
C891 C 0.76477 0.52265 0.73408 0.0
C892 C 0.74977 0.5051 0.74496 0.0
C893 C 0.7811 0.48763 0.74248 0.0
C894 C 0.82817 0.54055 0.70848 0.0
C895 C 0.70096 0.50491 0.75959 0.0
H896 H 0.71123 0.58861 0.77795 0.0
H897 H 0.63905 0.56166 0.7034 0.0
H898 H 0.768 0.54328 0.79034 0.0
H899 H 0.81267 0.55564 0.77235 0.0
H900 H 0.77366 0.57131 0.79745 0.0
H901 H 0.66021 0.52885 0.67825 0.0
H902 H 0.72507 0.52292 0.6805 0.0
H903 H 0.68087 0.51062 0.69883 0.0
H904 H 0.87738 0.50458 0.70877 0.0
H905 H 0.76995 0.47434 0.75115 0.0
H906 H 0.83094 0.55474 0.72453 0.0
H907 H 0.80069 0.54386 0.6934 0.0
H908 H 0.86469 0.53766 0.69826 0.0
H909 H 0.69963 0.51799 0.77728 0.0
H910 H 0.69472 0.49007 0.76691 0.0
H911 H 0.67012 0.50725 0.74588 0.0
C912 C 0.59565 0.04042 0.98393 0.0
C913 C 0.57337 0.05449 0.96963 0.0
C914 C 0.5698 0.02296 0.98925 0.0
C915 C 0.52074 1.01927 0.97964 0.0
C916 C 0.49842 0.03323 0.96473 0.0
C917 C 0.52485 0.05076 0.96013 0.0
C918 C 0.59464 1.00867 0.00561 0.0
C919 C 0.44656 0.02967 0.95372 0.0
C920 C 0.47008 0.96427 0.97441 0.0
C921 C 0.44025 0.9664 -0.00231 0.0
C922 C 0.49586 0.98141 0.96802 0.0
C923 C 0.4925 1.00105 0.98566 0.0
C924 C 0.46245 1.00324 0.00925 0.0
C925 C 0.43629 0.98593 0.01481 0.0
C926 C 0.52659 0.97851 0.94238 0.0
C927 C 0.45846 0.0238 0.02881 0.0
H928 H 0.63289 0.04341 -0.00839 0.0
H929 H 0.50778 0.06152 0.94886 0.0
H930 H 0.57293 1.00826 0.02434 0.0
H931 H 0.59583 0.99253 -0.00626 0.0
H932 H 0.63298 1.01366 0.01153 0.0
H933 H 0.43525 0.04153 0.94164 0.0
H934 H 0.44378 1.01398 0.94065 0.0
H935 H 0.41999 0.03012 0.97072 0.0
H936 H 0.47257 0.94924 0.96095 0.0
H937 H 0.41351 0.98751 0.03291 0.0
H938 H 0.56599 0.98185 0.94759 0.0
H939 H 0.51456 0.9897 0.92951 0.0
H940 H 0.52378 0.96244 0.9303 0.0
H941 H 0.49566 0.02894 0.03667 0.0
H942 H 0.43385 0.02287 0.04633 0.0
H943 H 0.44392 0.03597 0.01814 0.0
C944 C 0.44583 0.30161 0.21271 0.0
C945 C 0.44518 0.32066 0.23109 0.0
C946 C 0.47157 0.2843 0.21857 0.0
C947 C 0.49649 0.28589 0.24374 0.0
C948 C 0.49613 0.30515 0.26238 0.0
C949 C 0.47093 0.32239 0.25569 0.0
C950 C 0.47189 0.26425 0.19784 0.0
C951 C 0.52147 0.30742 0.28961 0.0
C952 C 0.52075 0.23456 0.26732 0.0
C953 C 0.57085 0.23107 0.26075 0.0
C954 C 0.49645 0.25261 0.26261 0.0
C955 C 0.52259 0.26732 0.25047 0.0
C956 C 0.57321 0.26384 0.24377 0.0
C957 C 0.59679 0.24587 0.24922 0.0
C958 C 0.44271 0.25589 0.2705 0.0
C959 C 0.60219 0.27885 0.23027 0.0
H960 H 0.42633 0.30034 0.19358 0.0
H961 H 0.46998 0.33704 0.27002 0.0
H962 H 0.51054 0.25928 0.19267 0.0
H963 H 0.45393 0.25167 0.20647 0.0
H964 H 0.45232 0.26582 0.17883 0.0
H965 H 0.5176 0.32339 0.30186 0.0
H966 H 0.50558 0.29614 0.30131 0.0
H967 H 0.56139 0.30373 0.28672 0.0
H968 H 0.50078 0.22324 0.27648 0.0
H969 H 0.63534 0.2431 0.24379 0.0
H970 H 0.41998 0.25594 0.25209 0.0
H971 H 0.43774 0.27128 0.28403 0.0
H972 H 0.42843 0.24358 0.28108 0.0
H973 H 0.58512 0.27987 0.21042 0.0
H974 H 0.64147 0.27407 0.22675 0.0
H975 H 0.60106 0.29471 0.24296 0.0
C976 C 0.50024 0.82837 0.73006 0.0
C977 C 0.44909 0.82938 0.73493 0.0
C978 C 0.52862 0.81155 0.7355 0.0
C979 C 0.50537 0.79543 0.74629 0.0
C980 C 0.45386 0.79652 0.75157 0.0
C981 C 0.42641 0.81341 0.74576 0.0
C982 C 0.58335 0.8109 0.7294 0.0
C983 C 0.42766 0.7798 0.76333 0.0
C984 C 0.5629 0.74136 0.73799 0.0
C985 C 0.58354 0.74169 0.76377 0.0
C986 C 0.53862 0.75892 0.73178 0.0
C987 C 0.53453 0.77727 0.75188 0.0
C988 C 0.55624 0.77785 0.77775 0.0
C989 C 0.58062 0.7601 0.78333 0.0
C990 C 0.51647 0.7577 0.70386 0.0
C991 C 0.55241 0.79703 0.79982 0.0
H992 H 0.51791 0.84054 0.72145 0.0
H993 H 0.3871 0.81425 0.75 0.0
H994 H 0.6046 0.81007 0.74811 0.0
H995 H 0.59234 0.79666 0.71429 0.0
H996 H 0.59593 0.82474 0.72132 0.0
H997 H 0.38759 0.78312 0.76666 0.0
H998 H 0.43182 0.76451 0.74946 0.0
H999 H 0.44467 0.77832 0.78303 0.0
H1000 H 0.56574 0.72733 0.72262 0.0
H1001 H 0.59605 0.7604 0.80335 0.0
H1002 H 0.53032 0.77072 0.69452 0.0
H1003 H 0.47568 0.75933 0.70555 0.0
H1004 H 0.52521 0.74273 0.69006 0.0
H1005 H 0.56663 0.81086 0.79232 0.0
H1006 H 0.5733 0.79535 0.81837 0.0
H1007 H 0.51303 0.80014 0.80544 0.0
C1008 C 0.59363 0.54035 0.48459 0.0
C1009 C 0.56672 0.55599 0.47523 0.0
C1010 C 0.57006 0.52265 0.49083 0.0
C1011 C 0.51826 0.52033 0.48733 0.0
C1012 C 0.49091 0.53597 0.47765 0.0
C1013 C 0.51541 0.55367 0.47191 0.0
C1014 C 0.60053 0.50654 0.5015 0.0
C1015 C 0.43576 0.53399 0.47332 0.0
C1016 C 0.46409 0.46575 0.48184 0.0
C1017 C 0.4444 0.46657 0.50796 0.0
C1018 C 0.4878 0.48316 0.47474 0.0
C1019 C 0.49266 0.50175 0.49437 0.0
C1020 C 0.4734 0.50255 0.52088 0.0
C1021 C 0.44923 0.48503 0.52726 0.0
C1022 C 0.50717 0.48173 0.44616 0.0
C1023 C 0.47847 0.5219 0.54255 0.0
H1024 H 0.63316 0.54217 0.4876 0.0
H1025 H 0.49453 0.56559 0.46444 0.0
H1026 H 0.58705 0.50498 0.52197 0.0
H1027 H 0.59635 0.49109 0.48804 0.0
H1028 H 0.64046 0.5106 0.50296 0.0
H1029 H 0.42008 0.5472 0.46494 0.0
H1030 H 0.42718 0.51923 0.45914 0.0
H1031 H 0.41699 0.53336 0.49286 0.0
H1032 H 0.45985 0.45163 0.46674 0.0
H1033 H 0.43451 0.48566 0.54754 0.0
H1034 H 0.54767 0.48447 0.4466 0.0
H1035 H 0.48993 0.49402 0.43666 0.0
H1036 H 0.49965 0.4663 0.43315 0.0
H1037 H 0.51811 0.526 0.54579 0.0
H1038 H 0.46207 0.51991 0.56227 0.0
H1039 H 0.46004 0.53526 0.53587 0.0
C1040 C 0.23521 0.14065 0.4097 0.0
C1041 C 0.19137 0.1509 0.40491 0.0
C1042 C 0.27804 0.14236 0.39451 0.0
C1043 C 0.2769 0.15438 0.37378 0.0
C1044 C 0.23269 0.16459 0.3686 0.0
C1045 C 0.19044 0.16283 0.38437 0.0
C1046 C 0.32462 0.13137 0.40078 0.0
C1047 C 0.23003 0.17732 0.34639 0.0
C1048 C 0.40074 0.17189 0.35008 0.0
C1049 C 0.41016 0.15638 0.32717 0.0
C1050 C 0.35703 0.17169 0.36522 0.0
C1051 C 0.32181 0.1557 0.35709 0.0
C1052 C 0.33065 0.14025 0.33373 0.0
C1053 C 0.37483 0.14068 0.31922 0.0
C1054 C 0.34891 0.18834 0.39018 0.0
C1055 C 0.29387 0.123 0.32436 0.0
H1056 H 0.23644 0.13155 0.4257 0.0
H1057 H 0.15672 0.17081 0.38059 0.0
H1058 H 0.33644 0.11993 0.38263 0.0
H1059 H 0.35506 0.14282 0.40587 0.0
H1060 H 0.31961 0.12303 0.418 0.0
H1061 H 0.19285 0.18428 0.34494 0.0
H1062 H 0.25773 0.19005 0.35012 0.0
H1063 H 0.23921 0.16736 0.3265 0.0
H1064 H 0.42747 0.18424 0.35616 0.0
H1065 H 0.3821 0.1284 0.30187 0.0
H1066 H 0.34627 0.18105 0.40845 0.0
H1067 H 0.31344 0.19655 0.3885 0.0
H1068 H 0.37922 0.20002 0.39333 0.0
H1069 H 0.29042 0.11304 0.33994 0.0
H1070 H 0.30485 0.113 0.30479 0.0
H1071 H 0.25678 0.12968 0.32189 0.0
C1072 C 0.6905 0.12226 0.34644 0.0
C1073 C 0.69209 0.13414 0.32584 0.0
C1074 C 0.73224 0.12056 0.36254 0.0
C1075 C 0.77659 0.13077 0.35764 0.0
C1076 C 0.77839 0.14274 0.33686 0.0
C1077 C 0.73605 0.14439 0.32134 0.0
C1078 C 0.72889 0.1079 0.3848 0.0
C1079 C 0.82517 0.15372 0.33089 0.0
C1080 C 0.87337 0.1445 0.41259 0.0
C1081 C 0.90888 0.12881 0.40475 0.0
C1082 C 0.82942 0.14489 0.39795 0.0
C1083 C 0.82103 0.12942 0.37458 0.0
C1084 C 0.85635 0.11341 0.36661 0.0
C1085 C 0.8998 0.11323 0.38189 0.0
C1086 C 0.79248 0.16216 0.40714 0.0
C1087 C 0.84871 0.09674 0.34165 0.0
H1088 H 0.65666 0.1143 0.35 0.0
H1089 H 0.73776 0.15347 0.30532 0.0
H1090 H 0.75663 0.09514 0.38129 0.0
H1091 H 0.73754 0.11789 0.40471 0.0
H1092 H 0.69163 0.10097 0.38604 0.0
H1093 H 0.82066 0.16206 0.31363 0.0
H1094 H 0.83649 0.16517 0.34911 0.0
H1095 H 0.85572 0.14227 0.326 0.0
H1096 H 0.88037 0.15682 0.42991 0.0
H1097 H 0.92664 0.10088 0.37591 0.0
H1098 H 0.75526 0.15551 0.40934 0.0
H1099 H 0.78956 0.17217 0.39159 0.0
H1100 H 0.80296 0.17211 0.42681 0.0
H1101 H 0.81307 0.08861 0.34312 0.0
H1102 H 0.87893 0.08498 0.33872 0.0
H1103 H 0.84673 0.104 0.32333 0.0
C1104 C 0.2144 0.14143 0.83466 0.0
C1105 C 0.1983 0.16181 0.83468 0.0
C1106 C 0.25607 0.13767 0.84962 0.0
C1107 C 0.28324 0.15478 0.86396 0.0
C1108 C 0.26676 0.17542 0.86417 0.0
C1109 C 0.22377 0.17868 0.84986 0.0
C1110 C 0.27144 0.11543 0.84968 0.0
C1111 C 0.29573 0.19405 0.87843 0.0
C1112 C 0.37373 0.1473 0.91907 0.0
C1113 C 0.4187 0.14431 0.90467 0.0
C1114 C 0.32922 0.15018 0.90594 0.0
C1115 C 0.32981 0.15109 0.87797 0.0
C1116 C 0.3749 0.14852 0.86335 0.0
C1117 C 0.41856 0.14473 0.87672 0.0
C1118 C 0.28155 0.1522 0.92201 0.0
C1119 C 0.37714 0.14995 0.8336 0.0
H1120 H 0.19442 0.12843 0.82282 0.0
H1121 H 0.21152 0.19443 0.8494 0.0
H1122 H 0.30711 0.11206 0.83877 0.0
H1123 H 0.27715 0.11308 0.87084 0.0
H1124 H 0.24358 0.104 0.83974 0.0
H1125 H 0.27759 0.20905 0.87685 0.0
H1126 H 0.30033 0.19336 0.90024 0.0
H1127 H 0.33332 0.19382 0.86943 0.0
H1128 H 0.37304 0.14765 0.94077 0.0
H1129 H 0.45257 0.14205 0.86513 0.0
H1130 H 0.25421 0.14063 0.9119 0.0
H1131 H 0.2653 0.16789 0.92272 0.0
H1132 H 0.28701 0.1498 0.9432 0.0
H1133 H 0.35504 0.13723 0.82145 0.0
H1134 H 0.41559 0.14886 0.8256 0.0
H1135 H 0.3608 0.16492 0.83049 0.0
C1136 C 0.92117 0.1438 0.85342 0.0
C1137 C 0.92036 0.14598 0.82606 0.0
C1138 C 0.87773 0.13979 0.86686 0.0
C1139 C 0.83209 0.1385 0.85286 0.0
C1140 C 0.83074 0.14089 0.82538 0.0
C1141 C 0.87494 0.14428 0.8122 0.0
C1142 C 0.88068 0.137 0.89609 0.0
C1143 C 0.78256 0.14003 0.80999 0.0
C1144 C 0.7256 0.11162 0.8817 0.0
C1145 C 0.70198 0.12858 0.898 0.0
C1146 C 0.76781 0.11462 0.86655 0.0
C1147 C 0.78568 0.1351 0.86725 0.0
C1148 C 0.76044 0.15234 0.88271 0.0
C1149 C 0.71924 0.14884 0.89822 0.0
C1150 C 0.79449 0.09584 0.85079 0.0
C1151 C 0.77759 0.17445 0.88338 0.0
H1152 H 0.95576 0.14541 0.86451 0.0
H1153 H 0.87379 0.14541 0.7909 0.0
H1154 H 0.85967 0.14958 0.90932 0.0
H1155 H 0.86353 0.12196 0.89828 0.0
H1156 H 0.91939 0.13726 0.90356 0.0
H1157 H 0.78774 0.14266 0.78887 0.0
H1158 H 0.76469 0.12464 0.80915 0.0
H1159 H 0.7567 0.15202 0.82074 0.0
H1160 H 0.71244 0.09595 0.88179 0.0
H1161 H 0.70064 0.16197 0.91071 0.0
H1162 H 0.83215 0.0949 0.85927 0.0
H1163 H 0.79892 0.09737 0.82922 0.0
H1164 H 0.77472 0.08105 0.85151 0.0
H1165 H 0.8144 0.1768 0.89322 0.0
H1166 H 0.75157 0.18614 0.89471 0.0
H1167 H 0.78169 0.17741 0.86238 0.0
C1168 C 0.63462 0.88823 0.66735 0.0
C1169 C 0.58912 0.89063 0.65473 0.0
C1170 C 0.67865 0.88514 0.65227 0.0
C1171 C 0.67704 0.88375 0.62376 0.0
C1172 C 0.63122 0.88545 0.61073 0.0
C1173 C 0.58799 0.88918 0.62639 0.0
C1174 C 0.727 0.88379 0.66691 0.0
C1175 C 0.62792 0.8836 0.58025 0.0
C1176 C 0.78923 0.89641 0.58443 0.0
C1177 C 0.80757 0.87649 0.57384 0.0
C1178 C 0.74786 0.89902 0.60164 0.0
C1179 C 0.72341 0.88121 0.60755 0.0
C1180 C 0.74212 0.86104 0.59704 0.0
C1181 C 0.78459 0.85894 0.5806 0.0
C1182 C 0.7298 0.9208 0.61309 0.0
C1183 C 0.71619 0.84168 0.60222 0.0
H1184 H 0.63602 0.88877 0.68908 0.0
H1185 H 0.5534 0.89132 0.61638 0.0
H1186 H 0.74549 0.8687 0.65896 0.0
H1187 H 0.75226 0.89632 0.6631 0.0
H1188 H 0.72194 0.88527 0.68921 0.0
H1189 H 0.58907 0.88368 0.57309 0.0
H1190 H 0.64784 0.89676 0.57394 0.0
H1191 H 0.64599 0.86898 0.56989 0.0
H1192 H 0.80727 0.90997 0.57922 0.0
H1193 H 0.79853 0.84352 0.57204 0.0
H1194 H 0.72582 0.92291 0.6355 0.0
H1195 H 0.69279 0.92324 0.60469 0.0
H1196 H 0.75524 0.93296 0.60826 0.0
H1197 H 0.71216 0.84221 0.62438 0.0
H1198 H 0.73628 0.82718 0.59315 0.0
H1199 H 0.67838 0.84097 0.59349 0.0
C1200 C 0.30696 0.91855 0.62979 0.0
C1201 C 0.30713 0.91029 0.6537 0.0
C1202 C 0.2659 0.91589 0.61233 0.0
C1203 C 0.22398 0.90495 0.61918 0.0
C1204 C 0.22416 0.89644 0.64316 0.0
C1205 C 0.26581 0.89911 0.66004 0.0
C1206 C 0.26717 0.92493 0.5867 0.0
C1207 C 0.17995 0.88484 0.65129 0.0
C1208 C 0.09781 0.91478 0.59108 0.0
C1209 C 0.09107 0.89678 0.57118 0.0
C1210 C 0.14135 0.91784 0.60649 0.0
C1211 C 0.17933 0.90266 0.60165 0.0
C1212 C 0.17341 0.88474 0.58111 0.0
C1213 C 0.12922 0.88194 0.56625 0.0
C1214 C 0.14625 0.93709 0.62835 0.0
C1215 C 0.21328 0.86828 0.57527 0.0
H1216 H 0.33883 0.92714 0.62473 0.0
H1217 H 0.2655 0.89274 0.67854 0.0
H1218 H 0.2599 0.91252 0.56875 0.0
H1219 H 0.23757 0.93679 0.5874 0.0
H1220 H 0.30327 0.93233 0.58379 0.0
H1221 H 0.18626 0.879 0.67048 0.0
H1222 H 0.14713 0.89524 0.65402 0.0
H1223 H 0.17101 0.87138 0.63497 0.0
H1224 H 0.06901 0.92653 0.59464 0.0
H1225 H 0.12417 0.86788 0.55113 0.0
H1226 H 0.1802 0.9458 0.62499 0.0
H1227 H 0.14992 0.93251 0.64851 0.0
H1228 H 0.11396 0.94771 0.62899 0.0
H1229 H 0.24915 0.87553 0.57162 0.0
H1230 H 0.20443 0.85606 0.55732 0.0
H1231 H 0.21815 0.86071 0.59316 0.0
C1232 C 0.78975 0.92104 0.13905 0.0
C1233 C 0.80515 0.90577 0.15353 0.0
C1234 C 0.74785 0.91788 0.12225 0.0
C1235 C 0.72117 0.89896 0.11979 0.0
C1236 C 0.73739 0.88329 0.13379 0.0
C1237 C 0.77908 0.88691 0.15055 0.0
C1238 C 0.73141 0.93497 0.10769 0.0
C1239 C 0.71012 0.86284 0.13151 0.0
C1240 C 0.58603 0.89805 0.09935 0.0
C1241 C 0.58863 0.8891 0.07166 0.0
C1242 C 0.62897 0.90146 0.11523 0.0
C1243 C 0.67552 0.89568 0.10311 0.0
C1244 C 0.67832 0.88641 0.07525 0.0
C1245 C 0.63481 0.88324 0.05984 0.0
C1246 C 0.62461 0.91142 0.1449 0.0
C1247 C 0.72727 0.87986 0.06172 0.0
H1248 H 0.80957 0.93569 0.14144 0.0
H1249 H 0.79101 0.87498 0.16155 0.0
H1250 H 0.72863 0.92886 0.08553 0.0
H1251 H 0.69407 0.94054 0.11491 0.0
H1252 H 0.75714 0.94847 0.11104 0.0
H1253 H 0.72869 0.85198 0.14292 0.0
H1254 H 0.67194 0.86575 0.13947 0.0
H1255 H 0.7071 0.85512 0.10986 0.0
H1256 H 0.55045 0.90283 0.10846 0.0
H1257 H 0.63688 0.8761 0.0385 0.0
H1258 H 0.64651 0.92603 0.14907 0.0
H1259 H 0.64003 0.90084 0.15774 0.0
H1260 H 0.58568 0.91511 0.15116 0.0
H1261 H 0.75228 0.89352 0.06359 0.0
H1262 H 0.72307 0.87292 0.03982 0.0
H1263 H 0.74554 0.86828 0.07207 0.0
C1264 C 0.13288 0.88886 0.16429 0.0
C1265 C 0.08897 0.89635 0.15471 0.0
C1266 C 0.17709 0.88837 0.14944 0.0
C1267 C 0.1774 0.89575 0.1246 0.0
C1268 C 0.13312 0.90328 0.11482 0.0
C1269 C 0.08935 0.90337 0.12993 0.0
C1270 C 0.22341 0.87995 0.1603 0.0
C1271 C 0.13209 0.91146 0.08854 0.0
C1272 C 0.29798 0.91358 0.09737 0.0
C1273 C 0.30885 0.89686 0.07621 0.0
C1274 C 0.25573 0.91327 0.11363 0.0
C1275 C 0.22403 0.89571 0.1088 0.0
C1276 C 0.23582 0.87847 0.08812 0.0
C1277 C 0.27794 0.8793 0.07197 0.0
C1278 C 0.24415 0.93201 0.13538 0.0
C1279 C 0.20332 0.85935 0.0826 0.0
H1280 H 0.13252 0.88319 0.1833 0.0
H1281 H 0.05554 0.90935 0.12263 0.0
H1282 H 0.23827 0.86676 0.14516 0.0
H1283 H 0.25233 0.89219 0.16374 0.0
H1284 H 0.21672 0.87447 0.17971 0.0
H1285 H 0.09466 0.91685 0.08383 0.0
H1286 H 0.15828 0.92467 0.08971 0.0
H1287 H 0.1443 0.89912 0.07145 0.0
H1288 H 0.3216 0.92723 0.10069 0.0
H1289 H 0.28633 0.86625 0.05577 0.0
H1290 H 0.23947 0.92721 0.15535 0.0
H1291 H 0.20871 0.93911 0.1306 0.0
H1292 H 0.27354 0.94408 0.13727 0.0
H1293 H 0.19746 0.85321 0.10158 0.0
H1294 H 0.21936 0.84675 0.06695 0.0
H1295 H 0.16646 0.86353 0.07551 0.0
C1296 C 0.20157 0.6532 0.87952 0.0
C1297 C 0.20439 0.64662 0.90454 0.0
C1298 C 0.24418 0.65397 0.86362 0.0
C1299 C 0.29063 0.64857 0.87341 0.0
C1300 C 0.29358 0.64198 0.8987 0.0
C1301 C 0.25037 0.64085 0.91379 0.0
C1302 C 0.23958 0.66065 0.83645 0.0
C1303 C 0.34255 0.63658 0.91015 0.0
C1304 C 0.4002 0.63396 0.82615 0.0
C1305 C 0.42616 0.65281 0.82975 0.0
C1306 C 0.35517 0.63251 0.83964 0.0
C1307 C 0.33654 0.65021 0.85762 0.0
C1308 C 0.36298 0.66925 0.86146 0.0
C1309 C 0.40725 0.67038 0.84717 0.0
C1310 C 0.3275 0.61207 0.83465 0.0
C1311 C 0.34496 0.6883 0.88099 0.0
H1312 H 0.16605 0.65761 0.87231 0.0
H1313 H 0.2529 0.63599 0.9333 0.0
H1314 H 0.26056 0.67527 0.83671 0.0
H1315 H 0.2559 0.6486 0.82023 0.0
H1316 H 0.2005 0.66328 0.83114 0.0
H1317 H 0.33843 0.63182 0.93021 0.0
H1318 H 0.36064 0.62369 0.8959 0.0
H1319 H 0.36769 0.65022 0.91254 0.0
H1320 H 0.41473 0.62048 0.81237 0.0
H1321 H 0.42757 0.68494 0.84988 0.0
H1322 H 0.28914 0.61451 0.82803 0.0
H1323 H 0.32495 0.6059 0.85379 0.0
H1324 H 0.34565 0.60014 0.81894 0.0
H1325 H 0.30746 0.69271 0.87509 0.0
H1326 H 0.36993 0.70189 0.88165 0.0
H1327 H 0.34204 0.68479 0.90179 0.0
C1328 C 0.75263 0.654 0.82059 0.0
C1329 C 0.7067 0.65765 0.83372 0.0
C1330 C 0.79508 0.65025 0.83489 0.0
C1331 C 0.79138 0.64969 0.86292 0.0
C1332 C 0.74493 0.65292 0.87621 0.0
C1333 C 0.70312 0.65713 0.86149 0.0
C1334 C 0.84411 0.64737 0.82012 0.0
C1335 C 0.73951 0.65198 0.90597 0.0
C1336 C 0.89817 0.62382 0.89313 0.0
C1337 C 0.92478 0.64121 0.90618 0.0
C1338 C 0.85384 0.62631 0.87949 0.0
C1339 C 0.8367 0.64666 0.87844 0.0
C1340 C 0.86398 0.66425 0.89134 0.0
C1341 C 0.90744 0.66129 0.90532 0.0
C1342 C 0.82523 0.60723 0.86635 0.0
C1343 C 0.84765 0.68617 0.89005 0.0
H1344 H 0.75567 0.6545 0.79912 0.0
H1345 H 0.66757 0.65974 0.8716 0.0
H1346 H 0.87041 0.65961 0.82965 0.0
H1347 H 0.86052 0.63209 0.82178 0.0
H1348 H 0.84054 0.64816 0.79823 0.0
H1349 H 0.70039 0.65361 0.91288 0.0
H1350 H 0.75423 0.63695 0.90991 0.0
H1351 H 0.76149 0.6646 0.91841 0.0
H1352 H 0.91152 0.60831 0.89411 0.0
H1353 H 0.92835 0.6747 0.91538 0.0
H1354 H 0.82294 0.60655 0.84408 0.0
H1355 H 0.78679 0.60812 0.87429 0.0
H1356 H 0.84245 0.59256 0.87005 0.0
H1357 H 0.84541 0.68812 0.86854 0.0
H1358 H 0.87327 0.69813 0.90106 0.0
H1359 H 0.81015 0.68911 0.89897 0.0
C1360 C 0.18854 0.6237 0.34889 0.0
C1361 C 0.19071 0.63496 0.32767 0.0
C1362 C 0.23028 0.62197 0.365 0.0
C1363 C 0.27525 0.63146 0.35942 0.0
C1364 C 0.27768 0.64271 0.33791 0.0
C1365 C 0.23532 0.64446 0.32245 0.0
C1366 C 0.22625 0.61011 0.38806 0.0
C1367 C 0.32512 0.65286 0.33113 0.0
C1368 C 0.37336 0.64609 0.41345 0.0
C1369 C 0.40806 0.62997 0.40633 0.0
C1370 C 0.32914 0.64631 0.39898 0.0
C1371 C 0.31967 0.63023 0.37644 0.0
C1372 C 0.35415 0.61379 0.36919 0.0
C1373 C 0.39783 0.61378 0.38434 0.0
C1374 C 0.29311 0.66405 0.40743 0.0
C1375 C 0.34542 0.59648 0.34506 0.0
H1376 H 0.15419 0.6163 0.35299 0.0
H1377 H 0.23752 0.65301 0.3059 0.0
H1378 H 0.25332 0.59711 0.38515 0.0
H1379 H 0.23541 0.62055 0.40757 0.0
H1380 H 0.18863 0.60363 0.38972 0.0
H1381 H 0.32113 0.66054 0.31323 0.0
H1382 H 0.33712 0.66473 0.34876 0.0
H1383 H 0.35498 0.64102 0.32685 0.0
H1384 H 0.38119 0.65889 0.43005 0.0
H1385 H 0.42394 0.60107 0.37893 0.0
H1386 H 0.25555 0.65788 0.41005 0.0
H1387 H 0.29073 0.67355 0.39127 0.0
H1388 H 0.30412 0.67442 0.4267 0.0
H1389 H 0.30939 0.58882 0.34719 0.0
H1390 H 0.37502 0.58446 0.34267 0.0
H1391 H 0.34362 0.60305 0.32619 0.0
C1392 C 0.73393 0.63937 0.40873 0.0
C1393 C 0.68996 0.64954 0.40402 0.0
C1394 C 0.77649 0.64095 0.39328 0.0
C1395 C 0.77494 0.6528 0.37235 0.0
C1396 C 0.73053 0.66285 0.36716 0.0
C1397 C 0.68856 0.66121 0.38319 0.0
C1398 C 0.82333 0.63016 0.39959 0.0
C1399 C 0.72742 0.67538 0.34475 0.0
C1400 C 0.8983 0.67102 0.34904 0.0
C1401 C 0.90853 0.65551 0.32624 0.0
C1402 C 0.85447 0.67057 0.36399 0.0
C1403 C 0.81988 0.65435 0.35577 0.0
C1404 C 0.82944 0.63893 0.33247 0.0
C1405 C 0.87377 0.6396 0.31814 0.0
C1406 C 0.8455 0.68724 0.38883 0.0
C1407 C 0.79332 0.62144 0.32301 0.0
H1408 H 0.73551 0.63044 0.42492 0.0
H1409 H 0.65474 0.66913 0.37946 0.0
H1410 H 0.83557 0.61884 0.38142 0.0
H1411 H 0.8534 0.64176 0.40484 0.0
H1412 H 0.81846 0.62173 0.41674 0.0
H1413 H 0.68987 0.68192 0.343 0.0
H1414 H 0.75431 0.68842 0.34856 0.0
H1415 H 0.73746 0.66544 0.325 0.0
H1416 H 0.92451 0.68355 0.35519 0.0
H1417 H 0.88163 0.62735 0.30084 0.0
H1418 H 0.84164 0.68 0.40708 0.0
H1419 H 0.81038 0.69553 0.38656 0.0
H1420 H 0.87592 0.69886 0.39241 0.0
H1421 H 0.79017 0.61146 0.33858 0.0
H1422 H 0.80474 0.61151 0.30346 0.0
H1423 H 0.756 0.62788 0.32043 0.0
C1424 C 0.59977 0.41172 0.14896 0.0
C1425 C 0.58367 0.39345 0.15698 0.0
C1426 C 0.64347 0.41191 0.13392 0.0
C1427 C 0.67197 0.39344 0.12725 0.0
C1428 C 0.65611 0.375 0.13579 0.0
C1429 C 0.61171 0.37519 0.15042 0.0
C1430 C 0.65863 0.43175 0.12475 0.0
C1431 C 0.68591 0.35512 0.12939 0.0
C1432 C 0.75547 0.38841 0.06556 0.0
C1433 C 0.80112 0.39503 0.07737 0.0
C1434 C 0.71328 0.38769 0.08161 0.0
C1435 C 0.71707 0.39324 0.11023 0.0
C1436 C 0.76336 0.39938 0.12235 0.0
C1437 C 0.80482 0.40048 0.10572 0.0
C1438 C 0.66438 0.38152 0.06786 0.0
C1439 C 0.76895 0.40492 0.15285 0.0
H1440 H 0.57775 0.4258 0.15424 0.0
H1441 H 0.59903 0.36116 0.15695 0.0
H1442 H 0.69605 0.43656 0.13254 0.0
H1443 H 0.66056 0.42904 0.10221 0.0
H1444 H 0.63247 0.44478 0.13181 0.0
H1445 H 0.66985 0.34249 0.13878 0.0
H1446 H 0.68778 0.34962 0.10706 0.0
H1447 H 0.72442 0.35804 0.13674 0.0
H1448 H 0.75235 0.38433 0.04362 0.0
H1449 H 0.84018 0.40543 0.11488 0.0
H1450 H 0.63754 0.39453 0.07308 0.0
H1451 H 0.64869 0.36792 0.07527 0.0
H1452 H 0.66788 0.37749 0.04538 0.0
H1453 H 0.74655 0.41896 0.16094 0.0
H1454 H 0.80803 0.40808 0.1591 0.0
H1455 H 0.75484 0.39204 0.16238 0.0
C1456 C 0.07958 0.39243 0.10017 0.0
C1457 C 0.08172 0.38395 0.07233 0.0
C1458 C 0.12281 0.39552 0.11587 0.0
C1459 C 0.16916 0.38981 0.10344 0.0
C1460 C 0.17139 0.3807 0.0755 0.0
C1461 C 0.12762 0.37794 0.06025 0.0
C1462 C 0.11901 0.40535 0.14561 0.0
C1463 C 0.22006 0.37416 0.06164 0.0
C1464 C 0.28296 0.41648 0.13832 0.0
C1465 C 0.29945 0.40166 0.15324 0.0
C1466 C 0.24096 0.4127 0.12166 0.0
C1467 C 0.21531 0.39356 0.1197 0.0
C1468 C 0.23283 0.37827 0.13398 0.0
C1469 C 0.27456 0.38254 0.15066 0.0
C1470 C 0.22318 0.42941 0.10681 0.0
C1471 C 0.20685 0.35759 0.13215 0.0
H1472 H 0.04422 0.39731 0.10948 0.0
H1473 H 0.1293 0.37116 0.03878 0.0
H1474 H 0.13581 0.39495 0.15826 0.0
H1475 H 0.13995 0.42022 0.14958 0.0
H1476 H 0.0801 0.40859 0.15227 0.0
H1477 H 0.21525 0.36668 0.03998 0.0
H1478 H 0.24439 0.38796 0.06263 0.0
H1479 H 0.23943 0.36307 0.07234 0.0
H1480 H 0.30189 0.43132 0.14033 0.0
H1481 H 0.2874 0.37093 0.16192 0.0
H1482 H 0.18574 0.43474 0.11417 0.0
H1483 H 0.22012 0.42304 0.08472 0.0
H1484 H 0.24825 0.44312 0.10972 0.0
H1485 H 0.16892 0.36015 0.14061 0.0
H1486 H 0.22674 0.34696 0.14339 0.0
H1487 H 0.20319 0.34977 0.11057 0.0
C1488 C 0.76573 0.40507 0.65732 0.0
C1489 C 0.79924 0.38835 0.65403 0.0
C1490 C 0.72402 0.4045 0.64064 0.0
C1491 C 0.71551 0.38677 0.62016 0.0
C1492 C 0.74972 0.37004 0.61627 0.0
C1493 C 0.79127 0.37103 0.63325 0.0
C1494 C 0.68849 0.4227 0.64533 0.0
C1495 C 0.74181 0.35089 0.59458 0.0
C1496 C 0.58238 0.37718 0.59745 0.0
C1497 C 0.58193 0.3849 0.57316 0.0
C1498 C 0.62592 0.3773 0.61266 0.0
C1499 C 0.66988 0.38553 0.60345 0.0
C1500 C 0.6697 0.39324 0.57885 0.0
C1501 C 0.62571 0.39276 0.56393 0.0
C1502 C 0.6248 0.36878 0.63869 0.0
C1503 C 0.71572 0.40234 0.56857 0.0
H1504 H 0.77164 0.41857 0.67325 0.0
H1505 H 0.81695 0.35805 0.63058 0.0
H1506 H 0.68313 0.42871 0.62622 0.0
H1507 H 0.65183 0.41751 0.65147 0.0
H1508 H 0.70158 0.43569 0.66135 0.0
H1509 H 0.77288 0.33961 0.59345 0.0
H1510 H 0.70716 0.34296 0.5988 0.0
H1511 H 0.7375 0.3554 0.57442 0.0
H1512 H 0.54866 0.3709 0.60444 0.0
H1513 H 0.6253 0.39896 0.5453 0.0
H1514 H 0.63406 0.38133 0.65616 0.0
H1515 H 0.65308 0.35636 0.63794 0.0
H1516 H 0.58807 0.36226 0.6425 0.0
H1517 H 0.7278 0.41621 0.58349 0.0
H1518 H 0.70977 0.40708 0.54863 0.0
H1519 H 0.74635 0.39083 0.56645 0.0
C1520 C 0.11541 0.38108 0.66032 0.0
C1521 C 0.08216 0.39659 0.65569 0.0
C1522 C 0.15895 0.37692 0.64502 0.0
C1523 C 0.16912 0.38823 0.62418 0.0
C1524 C 0.13563 0.40376 0.61916 0.0
C1525 C 0.09275 0.40786 0.63512 0.0
C1526 C 0.194 0.36036 0.6511 0.0
C1527 C 0.145 0.41598 0.59686 0.0
C1528 C 0.30013 0.39143 0.59784 0.0
C1529 C 0.29879 0.37636 0.57403 0.0
C1530 C 0.25846 0.39511 0.61483 0.0
C1531 C 0.21449 0.38366 0.60735 0.0
C1532 C 0.21346 0.36822 0.58336 0.0
C1533 C 0.25584 0.36474 0.56698 0.0
C1534 C 0.26113 0.41148 0.64044 0.0
C1535 C 0.16721 0.35585 0.57454 0.0
H1536 H 0.10719 0.37197 0.67578 0.0
H1537 H 0.06779 0.42007 0.63161 0.0
H1538 H 0.19759 0.34771 0.63302 0.0
H1539 H 0.23138 0.36711 0.65566 0.0
H1540 H 0.18146 0.35344 0.6686 0.0
H1541 H 0.11491 0.42728 0.59528 0.0
H1542 H 0.18035 0.42463 0.60062 0.0
H1543 H 0.14861 0.40516 0.57702 0.0
H1544 H 0.33351 0.40052 0.60292 0.0
H1545 H 0.25491 0.35339 0.5482 0.0
H1546 H 0.24998 0.40468 0.65826 0.0
H1547 H 0.23489 0.42431 0.63908 0.0
H1548 H 0.29883 0.41816 0.64407 0.0
H1549 H 0.15427 0.34783 0.59091 0.0
H1550 H 0.17311 0.344 0.55576 0.0
H1551 H 0.13721 0.36655 0.57073 0.0
C1552 C 0.10016 0.1679 0.67397 0.0
C1553 C 0.13245 0.15725 0.68836 0.0
C1554 C 0.10425 0.16579 0.64573 0.0
C1555 C 0.14033 0.15211 0.63167 0.0
C1556 C 0.17396 0.14178 0.64628 0.0
C1557 C 0.17006 0.14476 0.67466 0.0
C1558 C 0.06871 0.17754 0.63087 0.0
C1559 C 0.21196 0.12665 0.63189 0.0
C1560 C 0.10133 0.12883 0.56011 0.0
C1561 C 0.1295 0.14049 0.54495 0.0
C1562 C 0.1066 0.13171 0.58834 0.0
C1563 C 0.13951 0.14718 0.60162 0.0
C1564 C 0.16883 0.15871 0.58625 0.0
C1565 C 0.16401 0.15496 0.55787 0.0
C1566 C 0.07582 0.11866 0.604 0.0
C1567 C 0.20323 0.1757 0.59983 0.0
H1568 H 0.07141 0.17772 0.68481 0.0
H1569 H 0.1947 0.13643 0.68596 0.0
H1570 H 0.08901 0.18541 0.61636 0.0
H1571 H 0.04234 0.16646 0.61891 0.0
H1572 H 0.04721 0.18944 0.64502 0.0
H1573 H 0.23801 0.12131 0.64631 0.0
H1574 H 0.19289 0.11281 0.62012 0.0
H1575 H 0.2335 0.13385 0.61721 0.0
H1576 H 0.07494 0.11753 0.54986 0.0
H1577 H 0.18532 0.16408 0.54593 0.0
H1578 H 0.04796 0.12866 0.61652 0.0
H1579 H 0.09954 0.11175 0.61808 0.0
H1580 H 0.05612 0.10588 0.59037 0.0
H1581 H 0.18124 0.18854 0.61196 0.0
H1582 H 0.2259 0.1822 0.58488 0.0
H1583 H 0.22833 0.16972 0.6141 0.0
C1584 C 0.90239 0.87237 0.41117 0.0
C1585 C 0.87178 0.8834 0.4314 0.0
C1586 C 0.89801 0.87501 0.38417 0.0
C1587 C 0.86355 0.88966 0.37767 0.0
C1588 C 0.8317 0.90048 0.398 0.0
C1589 C 0.83568 0.89693 0.42468 0.0
C1590 C 0.9315 0.86269 0.36283 0.0
C1591 C 0.79559 0.91666 0.39197 0.0
C1592 C 0.90309 0.91207 0.31668 0.0
C1593 C 0.87266 0.90111 0.29638 0.0
C1594 C 0.8984 0.90936 0.34365 0.0
C1595 C 0.8638 0.89473 0.35006 0.0
C1596 C 0.83224 0.88395 0.32964 0.0
C1597 C 0.83654 0.88755 0.30301 0.0
C1598 C 0.93162 0.92163 0.36508 0.0
C1599 C 0.79601 0.86778 0.33557 0.0
H1600 H 0.93015 0.86185 0.41655 0.0
H1601 H 0.81254 0.90564 0.44058 0.0
H1602 H 0.90969 0.85539 0.34478 0.0
H1603 H 0.95878 0.87329 0.35595 0.0
H1604 H 0.952 0.85027 0.3706 0.0
H1605 H 0.77091 0.92249 0.40951 0.0
H1606 H 0.81632 0.93007 0.38682 0.0
H1607 H 0.77248 0.91019 0.3741 0.0
H1608 H 0.93082 0.92263 0.31139 0.0
H1609 H 0.81349 0.87891 0.28707 0.0
H1610 H 0.95866 0.91099 0.37207 0.0
H1611 H 0.90953 0.92898 0.38305 0.0
H1612 H 0.95238 0.934 0.35736 0.0
H1613 H 0.81663 0.85439 0.34087 0.0
H1614 H 0.77171 0.86191 0.31793 0.0
H1615 H 0.77251 0.8743 0.35331 0.0
C1616 C 0.1766 0.64617 0.05871 0.0
C1617 C 0.13936 0.63364 0.04483 0.0
C1618 C 0.18055 0.64873 0.08706 0.0
C1619 C 0.14737 0.63796 0.10141 0.0
C1620 C 0.11189 0.62418 0.08709 0.0
C1621 C 0.1077 0.6225 0.05892 0.0
C1622 C 0.21791 0.66395 0.10173 0.0
C1623 C 0.07685 0.61195 0.10162 0.0
C1624 C 0.16945 0.63411 0.17499 0.0
C1625 C 0.13386 0.64809 0.18798 0.0
C1626 C 0.17539 0.63095 0.14668 0.0
C1627 C 0.14603 0.64257 0.13148 0.0
C1628 C 0.11213 0.65762 0.14488 0.0
C1629 C 0.1058 0.65992 0.17301 0.0
C1630 C 0.21088 0.61439 0.13296 0.0
C1631 C 0.08122 0.67076 0.12943 0.0
H1632 H 0.20068 0.6549 0.04762 0.0
H1633 H 0.07921 0.61268 0.04792 0.0
H1634 H 0.19827 0.6777 0.11344 0.0
H1635 H 0.23928 0.6568 0.1165 0.0
H1636 H 0.24414 0.66943 0.08749 0.0
H1637 H 0.05606 0.59999 0.08724 0.0
H1638 H 0.09743 0.60408 0.116 0.0
H1639 H 0.04982 0.62271 0.11367 0.0
H1640 H 0.19073 0.62486 0.18676 0.0
H1641 H 0.07859 0.67086 0.18332 0.0
H1642 H 0.23558 0.62073 0.11879 0.0
H1643 H 0.1897 0.60139 0.12071 0.0
H1644 H 0.23397 0.60803 0.14784 0.0
H1645 H 0.10492 0.67797 0.11562 0.0
H1646 H 0.06096 0.68332 0.14321 0.0
H1647 H 0.05381 0.66075 0.11666 0.0
C1648 C 0.89739 0.38001 0.91145 0.0
C1649 C 0.86819 0.39066 0.93264 0.0
C1650 C 0.89303 0.38421 0.88515 0.0
C1651 C 0.86012 0.40003 0.88037 0.0
C1652 C 0.83022 0.4107 0.90176 0.0
C1653 C 0.83405 0.40561 0.92767 0.0
C1654 C 0.9244 0.37203 0.86263 0.0
C1655 C 0.79595 0.42809 0.89759 0.0
C1656 C 0.89853 0.42259 0.81932 0.0
C1657 C 0.8663 0.41228 0.79946 0.0
C1658 C 0.8946 0.41986 0.84634 0.0
C1659 C 0.85886 0.40584 0.85318 0.0
C1660 C 0.82513 0.39596 0.83331 0.0
C1661 C 0.82879 0.39958 0.80667 0.0
C1662 C 0.93015 0.4312 0.86723 0.0
C1663 C 0.78752 0.38046 0.83967 0.0
H1664 H 0.9237 0.36842 0.91551 0.0
H1665 H 0.81212 0.41403 0.94435 0.0
H1666 H 0.90094 0.36549 0.84491 0.0
H1667 H 0.95177 0.38254 0.85566 0.0
H1668 H 0.94469 0.35904 0.86923 0.0
H1669 H 0.77359 0.43418 0.91601 0.0
H1670 H 0.81796 0.44111 0.89229 0.0
H1671 H 0.77053 0.42265 0.88036 0.0
H1672 H 0.92742 0.43246 0.8136 0.0
H1673 H 0.80433 0.3914 0.79111 0.0
H1674 H 0.95711 0.41996 0.87295 0.0
H1675 H 0.90999 0.43842 0.88597 0.0
H1676 H 0.95098 0.44355 0.8595 0.0
H1677 H 0.80695 0.36641 0.84384 0.0
H1678 H 0.76128 0.37554 0.82262 0.0
H1679 H 0.76614 0.38712 0.85818 0.0
C1680 C 0.60121 0.16044 0.17292 0.0
C1681 C 0.62942 0.14772 0.18657 0.0
C1682 C 0.60634 0.15918 0.14488 0.0
C1683 C 0.63915 0.14428 0.13017 0.0
C1684 C 0.66865 0.13171 0.14404 0.0
C1685 C 0.66397 0.13385 0.17233 0.0
C1686 C 0.57535 0.17328 0.13088 0.0
C1687 C 0.70297 0.11528 0.12889 0.0
C1688 C 0.59825 0.1265 0.05753 0.0
C1689 C 0.63036 0.13767 0.04371 0.0
C1690 C 0.60273 0.12758 0.08558 0.0
C1691 C 0.63908 0.14076 0.10012 0.0
C1692 C 0.67229 0.15177 0.0861 0.0
C1693 C 0.66799 0.14982 0.05784 0.0
C1694 C 0.56755 0.11515 0.09975 0.0
C1695 C 0.71053 0.16639 0.10108 0.0
H1696 H 0.57489 0.17131 0.18421 0.0
H1697 H 0.68543 0.12395 0.1831 0.0
H1698 H 0.59879 0.1809 0.11738 0.0
H1699 H 0.54707 0.16392 0.11796 0.0
H1700 H 0.55611 0.18556 0.14562 0.0
H1701 H 0.72615 0.10799 0.14287 0.0
H1702 H 0.68087 0.10289 0.11605 0.0
H1703 H 0.72759 0.12208 0.11511 0.0
H1704 H 0.56956 0.11692 0.04636 0.0
H1705 H 0.69258 0.15852 0.04697 0.0
H1706 H 0.54183 0.12587 0.11287 0.0
H1707 H 0.5883 0.10638 0.11308 0.0
H1708 H 0.54532 0.10394 0.08513 0.0
H1709 H 0.69168 0.17974 0.11414 0.0
H1710 H 0.73587 0.17256 0.08699 0.0
H1711 H 0.73282 0.15839 0.11463 0.0
C1712 C 0.40866 0.92107 0.81802 0.0
C1713 C 0.37564 0.91157 0.79803 0.0
C1714 C 0.4046 0.91777 0.8448 0.0
C1715 C 0.36793 0.90398 0.85124 0.0
C1716 C 0.33365 0.89481 0.83122 0.0
C1717 C 0.33745 0.89902 0.80488 0.0
C1718 C 0.44073 0.92838 0.86592 0.0
C1719 C 0.29506 0.87954 0.83711 0.0
C1720 C 0.40337 0.8771 0.90909 0.0
C1721 C 0.37444 0.88792 0.93028 0.0
C1722 C 0.39982 0.88156 0.88288 0.0
C1723 C 0.36816 0.89783 0.87824 0.0
C1724 C 0.33843 0.90864 0.89961 0.0
C1725 C 0.34133 0.90328 0.92539 0.0
C1726 C 0.43087 0.86922 0.86034 0.0
C1727 C 0.30553 0.92652 0.89561 0.0
H1728 H 0.43809 0.93081 0.8126 0.0
H1729 H 0.31238 0.89144 0.78921 0.0
H1730 H 0.42086 0.93565 0.88473 0.0
H1731 H 0.46665 0.91667 0.87142 0.0
H1732 H 0.46269 0.94057 0.85852 0.0
H1733 H 0.26903 0.87496 0.81988 0.0
H1734 H 0.3136 0.86528 0.84123 0.0
H1735 H 0.27351 0.88626 0.85554 0.0
H1736 H 0.42902 0.86527 0.91312 0.0
H1737 H 0.31977 0.91188 0.94209 0.0
H1738 H 0.45931 0.87948 0.85378 0.0
H1739 H 0.40745 0.86321 0.8424 0.0
H1740 H 0.44986 0.85584 0.86675 0.0
H1741 H 0.32864 0.93939 0.89075 0.0
H1742 H 0.28305 0.93265 0.91397 0.0
H1743 H 0.28027 0.92158 0.87817 0.0
C1744 C 0.66493 0.65627 0.55835 0.0
C1745 C 0.63008 0.64178 0.54583 0.0
C1746 C 0.66982 0.66051 0.58673 0.0
C1747 C 0.64023 0.64943 0.60256 0.0
C1748 C 0.6068 0.63401 0.58973 0.0
C1749 C 0.60147 0.63065 0.56147 0.0
C1750 C 0.70477 0.67746 0.59981 0.0
C1751 C 0.57571 0.62143 0.60588 0.0
C1752 C 0.67241 0.64722 0.67544 0.0
C1753 C 0.63541 0.65994 0.68939 0.0
C1754 C 0.67561 0.64413 0.64704 0.0
C1755 C 0.64194 0.65458 0.63261 0.0
C1756 C 0.60656 0.66851 0.64689 0.0
C1757 C 0.60311 0.67073 0.67519 0.0
C1758 C 0.71284 0.62871 0.63244 0.0
C1759 C 0.57105 0.68042 0.63221 0.0
H1760 H 0.68652 0.66501 0.54606 0.0
H1761 H 0.57474 0.61936 0.55155 0.0
H1762 H 0.68327 0.69044 0.61199 0.0
H1763 H 0.73016 0.6715 0.61397 0.0
H1764 H 0.72714 0.68376 0.58456 0.0
H1765 H 0.55515 0.60873 0.5926 0.0
H1766 H 0.59941 0.61446 0.61991 0.0
H1767 H 0.54859 0.63177 0.6185 0.0
H1768 H 0.69705 0.63877 0.6866 0.0
H1769 H 0.57482 0.68071 0.6862 0.0
H1770 H 0.73431 0.63571 0.61754 0.0
H1771 H 0.6931 0.61497 0.62089 0.0
H1772 H 0.73902 0.62326 0.64671 0.0
H1773 H 0.5912 0.68796 0.61733 0.0
H1774 H 0.55048 0.69258 0.64646 0.0
H1775 H 0.54387 0.66948 0.62069 0.0
C1776 C 0.32768 0.39205 0.30599 0.0
C1777 C 0.36499 0.40446 0.29797 0.0
C1778 C 0.32342 0.38981 0.3332 0.0
C1779 C 0.35635 0.40079 0.35272 0.0
C1780 C 0.3918 0.41451 0.34492 0.0
C1781 C 0.39632 0.41587 0.31745 0.0
C1782 C 0.2861 0.37462 0.34065 0.0
C1783 C 0.42651 0.42698 0.36534 0.0
C1784 C 0.33169 0.40412 0.42798 0.0
C1785 C 0.36657 0.38992 0.43426 0.0
C1786 C 0.32735 0.40774 0.40134 0.0
C1787 C 0.35754 0.39632 0.38063 0.0
C1788 C 0.39116 0.38123 0.38679 0.0
C1789 C 0.39593 0.3785 0.41372 0.0
C1790 C 0.29226 0.42438 0.39561 0.0
C1791 C 0.42294 0.36832 0.36508 0.0
H1792 H 0.30381 0.38309 0.29074 0.0
H1793 H 0.42492 0.42558 0.3111 0.0
H1794 H 0.3058 0.36102 0.34598 0.0
H1795 H 0.2644 0.38193 0.35876 0.0
H1796 H 0.26014 0.3689 0.32372 0.0
H1797 H 0.44706 0.43894 0.35667 0.0
H1798 H 0.40574 0.43486 0.38353 0.0
H1799 H 0.45375 0.41637 0.37224 0.0
H1800 H 0.30947 0.41308 0.44412 0.0
H1801 H 0.42266 0.36743 0.41875 0.0
H1802 H 0.26741 0.41802 0.37847 0.0
H1803 H 0.31369 0.43723 0.38946 0.0
H1804 H 0.2693 0.43096 0.41361 0.0
H1805 H 0.39973 0.36088 0.34769 0.0
H1806 H 0.44364 0.35594 0.37283 0.0
H1807 H 0.44999 0.37851 0.35722 0.0
loop_
_geom_bond_atom_site_label_1
_geom_bond_atom_site_label_2
_geom_bond_distance
_geom_bond_site_symmetry_2
_ccdc_geom_bond_type
Co0 N4 2.148 . S
Co0 N10 2.128 . S
Co0 N20 2.194 . S
Co0 O25 2.351 . S
Co0 O26 2.155 . S
Co0 O27 2.096 . S
C1 N4 1.301 . S
C1 N5 1.328 . S
C1 H6 0.930 . S
C2 C3 1.333 . S
C2 N4 1.317 . S
C2 H7 0.930 . S
C3 C2 1.333 . S
C3 N5 1.350 . S
C3 H29 0.931 . S
N4 Co0 2.148 . S
N4 C1 1.301 . S
N4 C2 1.317 . S
N5 C1 1.328 . S
N5 C3 1.350 . S
H6 C1 0.930 . S
H7 C2 0.930 . S
C8 O9 1.224 . S
C8 O27 1.247 . S
O9 C8 1.224 . S
N10 Co0 2.128 . S
N10 C11 1.355 . S
N10 C13 1.311 . S
C11 N10 1.355 . S
C11 C12 1.363 . S
C11 H23 0.929 . S
C12 C11 1.363 . S
C12 N14 1.375 . S
C12 H30 0.931 . S
C13 N10 1.311 . S
C13 N14 1.347 . S
C13 H24 0.929 . S
N14 C12 1.375 . S
N14 C13 1.347 . S
C15 C18 1.365 . S
C15 N20 1.328 1_655 S
C15 H21 0.929 . S
C16 C17 1.362 1_455 S
C16 C19 1.378 . S
C16 H31 0.929 . S
C17 C16 1.362 1_655 S
C17 C18 1.366 . S
C18 C15 1.365 . S
C18 C17 1.366 . S
C18 H32 0.930 . S
C19 C16 1.378 . S
C19 N20 1.315 . S
C19 H22 0.930 . S
N20 Co0 2.194 . S
N20 C15 1.328 1_455 S
N20 C19 1.315 . S
H21 C15 0.929 . S
H22 C19 0.930 . S
H23 C11 0.929 . S
H24 C13 0.929 . S
O25 Co0 2.351 . S
O25 C28 1.244 . S
O26 Co0 2.155 . S
O26 C28 1.240 . S
O27 Co0 2.096 . S
O27 C8 1.247 . S
C28 O25 1.244 . S
C28 O26 1.240 . S
H29 C3 0.931 . S
H30 C12 0.931 . S
H31 C16 0.929 . S
H32 C18 0.930 . S
Co33 N37 2.148 . S
Co33 N43 2.128 . S
Co33 N53 2.194 . S
Co33 O58 2.351 . S
Co33 O59 2.155 . S
Co33 O60 2.096 . S
C34 N37 1.301 . S
C34 N38 1.328 . S
C34 H39 0.930 . S
C35 C36 1.333 . S
C35 N37 1.317 . S
C35 H40 0.930 . S
C36 C35 1.333 . S
C36 N38 1.350 . S
C36 H62 0.931 . S
N37 Co33 2.148 . S
N37 C34 1.301 . S
N37 C35 1.317 . S
N38 C34 1.328 . S
N38 C36 1.350 . S
H39 C34 0.930 . S
H40 C35 0.930 . S
C41 O42 1.224 . S
C41 O60 1.247 . S
O42 C41 1.224 . S
N43 Co33 2.128 . S
N43 C44 1.355 . S
N43 C46 1.311 . S
C44 N43 1.355 . S
C44 C45 1.363 . S
C44 H56 0.929 . S
C45 C44 1.363 . S
C45 N47 1.375 . S
C45 H63 0.931 . S
C46 N43 1.311 . S
C46 N47 1.347 . S
C46 H57 0.929 . S
N47 C45 1.375 . S
N47 C46 1.347 . S
C48 C51 1.365 . S
C48 N53 1.328 1_655 S
C48 H54 0.929 . S
C49 C50 1.362 1_455 S
C49 C52 1.378 . S
C49 H64 0.929 . S
C50 C49 1.362 1_655 S
C50 C51 1.366 . S
C51 C48 1.365 . S
C51 C50 1.366 . S
C51 H65 0.930 . S
C52 C49 1.378 . S
C52 N53 1.315 . S
C52 H55 0.930 . S
N53 Co33 2.194 . S
N53 C48 1.328 1_455 S
N53 C52 1.315 . S
H54 C48 0.929 . S
H55 C52 0.930 . S
H56 C44 0.929 . S
H57 C46 0.929 . S
O58 Co33 2.351 . S
O58 C61 1.244 . S
O59 Co33 2.155 . S
O59 C61 1.240 . S
O60 Co33 2.096 . S
O60 C41 1.247 . S
C61 O58 1.244 . S
C61 O59 1.240 . S
H62 C36 0.931 . S
H63 C45 0.931 . S
H64 C49 0.929 . S
H65 C51 0.930 . S
Co66 N70 2.148 . S
Co66 N76 2.128 . S
Co66 N86 2.194 . S
Co66 O91 2.351 . S
Co66 O92 2.155 . S
Co66 O93 2.096 . S
C67 N70 1.301 . S
C67 N71 1.328 . S
C67 H72 0.930 . S
C68 C69 1.333 . S
C68 N70 1.317 . S
C68 H73 0.930 . S
C69 C68 1.333 . S
C69 N71 1.350 . S
C69 H95 0.931 . S
N70 Co66 2.148 . S
N70 C67 1.301 . S
N70 C68 1.317 . S
N71 C67 1.328 . S
N71 C69 1.350 . S
H72 C67 0.930 . S
H73 C68 0.930 . S
C74 O75 1.224 . S
C74 O93 1.247 . S
O75 C74 1.224 . S
N76 Co66 2.128 . S
N76 C77 1.355 . S
N76 C79 1.311 . S
C77 N76 1.355 . S
C77 C78 1.363 . S
C77 H89 0.929 . S
C78 C77 1.363 . S
C78 N80 1.375 . S
C78 H96 0.931 . S
C79 N76 1.311 . S
C79 N80 1.347 . S
C79 H90 0.929 . S
N80 C78 1.375 . S
N80 C79 1.347 . S
C81 C84 1.365 . S
C81 N86 1.328 1_455 S
C81 H87 0.929 . S
C82 C83 1.362 1_655 S
C82 C85 1.378 . S
C82 H97 0.929 . S
C83 C82 1.362 1_455 S
C83 C84 1.366 . S
C84 C81 1.365 . S
C84 C83 1.366 . S
C84 H98 0.930 . S
C85 C82 1.378 . S
C85 N86 1.315 . S
C85 H88 0.930 . S
N86 Co66 2.194 . S
N86 C81 1.328 1_655 S
N86 C85 1.315 . S
H87 C81 0.929 . S
H88 C85 0.930 . S
H89 C77 0.929 . S
H90 C79 0.929 . S
O91 Co66 2.351 . S
O91 C94 1.244 . S
O92 Co66 2.155 . S
O92 C94 1.240 . S
O93 Co66 2.096 . S
O93 C74 1.247 . S
C94 O91 1.244 . S
C94 O92 1.240 . S
H95 C69 0.931 . S
H96 C78 0.931 . S
H97 C82 0.929 . S
H98 C84 0.930 . S
Co99 N103 2.148 . S
Co99 N109 2.128 . S
Co99 N119 2.194 . S
Co99 O124 2.351 . S
Co99 O125 2.155 . S
Co99 O126 2.096 . S
C100 N103 1.301 . S
C100 N104 1.328 . S
C100 H105 0.930 . S
C101 C102 1.333 . S
C101 N103 1.317 . S
C101 H106 0.930 . S
C102 C101 1.333 . S
C102 N104 1.350 . S
C102 H128 0.931 . S
N103 Co99 2.148 . S
N103 C100 1.301 . S
N103 C101 1.317 . S
N104 C100 1.328 . S
N104 C102 1.350 . S
H105 C100 0.930 . S
H106 C101 0.930 . S
C107 O108 1.224 . S
C107 O126 1.247 . S
O108 C107 1.224 . S
N109 Co99 2.128 . S
N109 C110 1.355 . S
N109 C112 1.311 . S
C110 N109 1.355 . S
C110 C111 1.363 . S
C110 H122 0.929 . S
C111 C110 1.363 . S
C111 N113 1.375 . S
C111 H129 0.931 . S
C112 N109 1.311 . S
C112 N113 1.347 . S
C112 H123 0.929 . S
N113 C111 1.375 . S
N113 C112 1.347 . S
C114 C117 1.365 . S
C114 N119 1.328 1_455 S
C114 H120 0.929 . S
C115 C116 1.362 1_655 S
C115 C118 1.378 . S
C115 H130 0.929 . S
C116 C115 1.362 1_455 S
C116 C117 1.366 . S
C117 C114 1.365 . S
C117 C116 1.366 . S
C117 H131 0.930 . S
C118 C115 1.378 . S
C118 N119 1.315 . S
C118 H121 0.930 . S
N119 Co99 2.194 . S
N119 C114 1.328 1_655 S
N119 C118 1.315 . S
H120 C114 0.929 . S
H121 C118 0.930 . S
H122 C110 0.929 . S
H123 C112 0.929 . S
O124 Co99 2.351 . S
O124 C127 1.244 . S
O125 Co99 2.155 . S
O125 C127 1.240 . S
O126 Co99 2.096 . S
O126 C107 1.247 . S
C127 O124 1.244 . S
C127 O125 1.240 . S
H128 C102 0.931 . S
H129 C111 0.931 . S
H130 C115 0.929 . S
H131 C117 0.930 . S
Co132 N136 2.148 . S
Co132 N142 2.128 . S
Co132 N152 2.194 . S
Co132 O157 2.351 1_556 S
Co132 O158 2.155 1_556 S
Co132 O159 2.096 . S
C133 N136 1.301 . S
C133 N137 1.328 . S
C133 H138 0.930 . S
C134 C135 1.333 . S
C134 N136 1.317 . S
C134 H139 0.930 . S
C135 C134 1.333 . S
C135 N137 1.350 . S
C135 H161 0.931 . S
N136 Co132 2.148 . S
N136 C133 1.301 . S
N136 C134 1.317 . S
N137 C133 1.328 . S
N137 C135 1.350 . S
H138 C133 0.930 . S
H139 C134 0.930 . S
C140 O141 1.224 . S
C140 O159 1.247 . S
O141 C140 1.224 . S
N142 Co132 2.128 . S
N142 C143 1.355 . S
N142 C145 1.311 . S
C143 N142 1.355 . S
C143 C144 1.363 . S
C143 H155 0.929 . S
C144 C143 1.363 . S
C144 N146 1.375 . S
C144 H162 0.931 . S
C145 N142 1.311 . S
C145 N146 1.347 . S
C145 H156 0.929 . S
N146 C144 1.375 . S
N146 C145 1.347 . S
C147 C150 1.365 . S
C147 N152 1.328 1_655 S
C147 H153 0.929 . S
C148 C149 1.362 1_455 S
C148 C151 1.378 . S
C148 H163 0.929 . S
C149 C148 1.362 1_655 S
C149 C150 1.366 . S
C150 C147 1.365 . S
C150 C149 1.366 . S
C150 H164 0.930 . S
C151 C148 1.378 . S
C151 N152 1.315 . S
C151 H154 0.930 . S
N152 Co132 2.194 . S
N152 C147 1.328 1_455 S
N152 C151 1.315 . S
H153 C147 0.929 . S
H154 C151 0.930 . S
H155 C143 0.929 . S
H156 C145 0.929 . S
O157 Co132 2.351 1_554 S
O157 C160 1.244 . S
O158 Co132 2.155 1_554 S
O158 C160 1.240 . S
O159 Co132 2.096 . S
O159 C140 1.247 . S
C160 O157 1.244 . S
C160 O158 1.240 . S
H161 C135 0.931 . S
H162 C144 0.931 . S
H163 C148 0.929 . S
H164 C150 0.930 . S
Co165 N169 2.148 . S
Co165 N175 2.128 . S
Co165 N185 2.194 . S
Co165 O190 2.351 . S
Co165 O191 2.155 . S
Co165 O192 2.096 . S
C166 N169 1.301 . S
C166 N170 1.328 . S
C166 H171 0.930 . S
C167 C168 1.333 . S
C167 N169 1.317 . S
C167 H172 0.930 . S
C168 C167 1.333 . S
C168 N170 1.350 . S
C168 H194 0.931 . S
N169 Co165 2.148 . S
N169 C166 1.301 . S
N169 C167 1.317 . S
N170 C166 1.328 . S
N170 C168 1.350 . S
H171 C166 0.930 . S
H172 C167 0.930 . S
C173 O174 1.224 . S
C173 O192 1.247 . S
O174 C173 1.224 . S
N175 Co165 2.128 . S
N175 C176 1.355 . S
N175 C178 1.311 . S
C176 N175 1.355 . S
C176 C177 1.363 . S
C176 H188 0.929 . S
C177 C176 1.363 . S
C177 N179 1.375 . S
C177 H195 0.931 . S
C178 N175 1.311 . S
C178 N179 1.347 . S
C178 H189 0.929 . S
N179 C177 1.375 . S
N179 C178 1.347 . S
C180 C183 1.365 . S
C180 N185 1.328 1_655 S
C180 H186 0.929 . S
C181 C182 1.362 1_455 S
C181 C184 1.378 . S
C181 H196 0.929 . S
C182 C181 1.362 1_655 S
C182 C183 1.366 . S
C183 C180 1.365 . S
C183 C182 1.366 . S
C183 H197 0.930 . S
C184 C181 1.378 . S
C184 N185 1.315 . S
C184 H187 0.930 . S
N185 Co165 2.194 . S
N185 C180 1.328 1_455 S
N185 C184 1.315 . S
H186 C180 0.929 . S
H187 C184 0.930 . S
H188 C176 0.929 . S
H189 C178 0.929 . S
O190 Co165 2.351 . S
O190 C193 1.244 . S
O191 Co165 2.155 . S
O191 C193 1.240 . S
O192 Co165 2.096 . S
O192 C173 1.247 . S
C193 O190 1.244 . S
C193 O191 1.240 . S
H194 C168 0.931 . S
H195 C177 0.931 . S
H196 C181 0.929 . S
H197 C183 0.930 . S
Co198 N202 2.148 . S
Co198 N208 2.128 . S
Co198 N218 2.194 . S
Co198 O223 2.351 1_554 S
Co198 O224 2.155 1_554 S
Co198 O225 2.096 . S
C199 N202 1.301 . S
C199 N203 1.328 . S
C199 H204 0.930 . S
C200 C201 1.333 . S
C200 N202 1.317 . S
C200 H205 0.930 . S
C201 C200 1.333 . S
C201 N203 1.350 . S
C201 H227 0.931 . S
N202 Co198 2.148 . S
N202 C199 1.301 . S
N202 C200 1.317 . S
N203 C199 1.328 . S
N203 C201 1.350 . S
H204 C199 0.930 . S
H205 C200 0.930 . S
C206 O207 1.224 . S
C206 O225 1.247 . S
O207 C206 1.224 . S
N208 Co198 2.128 . S
N208 C209 1.355 . S
N208 C211 1.311 . S
C209 N208 1.355 . S
C209 C210 1.363 . S
C209 H221 0.929 . S
C210 C209 1.363 . S
C210 N212 1.375 . S
C210 H228 0.931 . S
C211 N208 1.311 . S
C211 N212 1.347 . S
C211 H222 0.929 . S
N212 C210 1.375 . S
N212 C211 1.347 . S
C213 C216 1.365 . S
C213 N218 1.328 1_455 S
C213 H219 0.929 . S
C214 C215 1.362 1_655 S
C214 C217 1.378 . S
C214 H229 0.929 . S
C215 C214 1.362 1_455 S
C215 C216 1.366 . S
C216 C213 1.365 . S
C216 C215 1.366 . S
C216 H230 0.930 . S
C217 C214 1.378 . S
C217 N218 1.315 . S
C217 H220 0.930 . S
N218 Co198 2.194 . S
N218 C213 1.328 1_655 S
N218 C217 1.315 . S
H219 C213 0.929 . S
H220 C217 0.930 . S
H221 C209 0.929 . S
H222 C211 0.929 . S
O223 Co198 2.351 1_556 S
O223 C226 1.244 . S
O224 Co198 2.155 1_556 S
O224 C226 1.240 . S
O225 Co198 2.096 . S
O225 C206 1.247 . S
C226 O223 1.244 . S
C226 O224 1.240 . S
H227 C201 0.931 . S
H228 C210 0.931 . S
H229 C214 0.929 . S
H230 C216 0.930 . S
Co231 N235 2.148 . S
Co231 N241 2.128 . S
Co231 N251 2.194 . S
Co231 O256 2.351 . S
Co231 O257 2.155 . S
Co231 O258 2.096 . S
C232 N235 1.301 . S
C232 N236 1.328 . S
C232 H237 0.930 . S
C233 C234 1.333 . S
C233 N235 1.317 . S
C233 H238 0.930 . S
C234 C233 1.333 . S
C234 N236 1.350 . S
C234 H260 0.931 . S
N235 Co231 2.148 . S
N235 C232 1.301 . S
N235 C233 1.317 . S
N236 C232 1.328 . S
N236 C234 1.350 . S
H237 C232 0.930 . S
H238 C233 0.930 . S
C239 O240 1.224 . S
C239 O258 1.247 . S
O240 C239 1.224 . S
N241 Co231 2.128 . S
N241 C242 1.355 . S
N241 C244 1.311 . S
C242 N241 1.355 . S
C242 C243 1.363 . S
C242 H254 0.929 . S
C243 C242 1.363 . S
C243 N245 1.375 . S
C243 H261 0.931 . S
C244 N241 1.311 . S
C244 N245 1.347 . S
C244 H255 0.929 . S
N245 C243 1.375 . S
N245 C244 1.347 . S
C246 C249 1.365 . S
C246 N251 1.328 1_455 S
C246 H252 0.929 . S
C247 C248 1.362 1_655 S
C247 C250 1.378 . S
C247 H262 0.929 . S
C248 C247 1.362 1_455 S
C248 C249 1.366 . S
C249 C246 1.365 . S
C249 C248 1.366 . S
C249 H263 0.930 . S
C250 C247 1.378 . S
C250 N251 1.315 . S
C250 H253 0.930 . S
N251 Co231 2.194 . S
N251 C246 1.328 1_655 S
N251 C250 1.315 . S
H252 C246 0.929 . S
H253 C250 0.930 . S
H254 C242 0.929 . S
H255 C244 0.929 . S
O256 Co231 2.351 . S
O256 C259 1.244 . S
O257 Co231 2.155 . S
O257 C259 1.240 . S
O258 Co231 2.096 . S
O258 C239 1.247 . S
C259 O256 1.244 . S
C259 O257 1.240 . S
H260 C234 0.931 . S
H261 C243 0.931 . S
H262 C247 0.929 . S
H263 C249 0.930 . S
Co264 N268 2.148 . S
Co264 N274 2.128 . S
Co264 N284 2.194 . S
Co264 O289 2.351 1_556 S
Co264 O290 2.155 1_556 S
Co264 O291 2.096 . S
C265 N268 1.301 . S
C265 N269 1.328 . S
C265 H270 0.930 . S
C266 C267 1.333 . S
C266 N268 1.317 . S
C266 H271 0.930 . S
C267 C266 1.333 . S
C267 N269 1.350 . S
C267 H293 0.931 . S
N268 Co264 2.148 . S
N268 C265 1.301 . S
N268 C266 1.317 . S
N269 C265 1.328 . S
N269 C267 1.350 . S
H270 C265 0.930 . S
H271 C266 0.930 . S
C272 O273 1.224 . S
C272 O291 1.247 . S
O273 C272 1.224 . S
N274 Co264 2.128 . S
N274 C275 1.355 . S
N274 C277 1.311 . S
C275 N274 1.355 . S
C275 C276 1.363 . S
C275 H287 0.929 . S
C276 C275 1.363 . S
C276 N278 1.375 . S
C276 H294 0.931 . S
C277 N274 1.311 . S
C277 N278 1.347 . S
C277 H288 0.929 . S
N278 C276 1.375 . S
N278 C277 1.347 . S
C279 C282 1.365 . S
C279 N284 1.328 . S
C279 H285 0.929 . S
C280 C281 1.362 . S
C280 C283 1.378 . S
C280 H295 0.929 . S
C281 C280 1.362 . S
C281 C282 1.366 . S
C282 C279 1.365 . S
C282 C281 1.366 . S
C282 H296 0.930 . S
C283 C280 1.378 . S
C283 N284 1.315 . S
C283 H286 0.930 . S
N284 Co264 2.194 . S
N284 C279 1.328 . S
N284 C283 1.315 . S
H285 C279 0.929 . S
H286 C283 0.930 . S
H287 C275 0.929 . S
H288 C277 0.929 . S
O289 Co264 2.351 1_554 S
O289 C292 1.244 . S
O290 Co264 2.155 1_554 S
O290 C292 1.240 . S
O291 Co264 2.096 . S
O291 C272 1.247 . S
C292 O289 1.244 . S
C292 O290 1.240 . S
H293 C267 0.931 . S
H294 C276 0.931 . S
H295 C280 0.929 . S
H296 C282 0.930 . S
Co297 N301 2.148 . S
Co297 N307 2.128 . S
Co297 N317 2.194 . S
Co297 O322 2.351 . S
Co297 O323 2.155 . S
Co297 O324 2.096 . S
C298 N301 1.301 . S
C298 N302 1.328 . S
C298 H303 0.930 . S
C299 C300 1.333 . S
C299 N301 1.317 . S
C299 H304 0.930 . S
C300 C299 1.333 . S
C300 N302 1.350 . S
C300 H326 0.931 . S
N301 Co297 2.148 . S
N301 C298 1.301 . S
N301 C299 1.317 . S
N302 C298 1.328 . S
N302 C300 1.350 . S
H303 C298 0.930 . S
H304 C299 0.930 . S
C305 O306 1.224 . S
C305 O324 1.247 . S
O306 C305 1.224 . S
N307 Co297 2.128 . S
N307 C308 1.355 . S
N307 C310 1.311 . S
C308 N307 1.355 . S
C308 C309 1.363 . S
C308 H320 0.929 . S
C309 C308 1.363 . S
C309 N311 1.375 . S
C309 H327 0.931 . S
C310 N307 1.311 . S
C310 N311 1.347 . S
C310 H321 0.929 . S
N311 C309 1.375 . S
N311 C310 1.347 . S
C312 C315 1.365 . S
C312 N317 1.328 . S
C312 H318 0.929 . S
C313 C314 1.362 . S
C313 C316 1.378 . S
C313 H328 0.929 . S
C314 C313 1.362 . S
C314 C315 1.366 . S
C315 C312 1.365 . S
C315 C314 1.366 . S
C315 H329 0.930 . S
C316 C313 1.378 . S
C316 N317 1.315 . S
C316 H319 0.930 . S
N317 Co297 2.194 . S
N317 C312 1.328 . S
N317 C316 1.315 . S
H318 C312 0.929 . S
H319 C316 0.930 . S
H320 C308 0.929 . S
H321 C310 0.929 . S
O322 Co297 2.351 . S
O322 C325 1.244 . S
O323 Co297 2.155 . S
O323 C325 1.240 . S
O324 Co297 2.096 . S
O324 C305 1.247 . S
C325 O322 1.244 . S
C325 O323 1.240 . S
H326 C300 0.931 . S
H327 C309 0.931 . S
H328 C313 0.929 . S
H329 C315 0.930 . S
Co330 N334 2.148 . S
Co330 N340 2.128 . S
Co330 N350 2.194 . S
Co330 O355 2.351 1_554 S
Co330 O356 2.155 1_554 S
Co330 O357 2.096 . S
C331 N334 1.301 . S
C331 N335 1.328 . S
C331 H336 0.930 . S
C332 C333 1.333 . S
C332 N334 1.317 . S
C332 H337 0.930 . S
C333 C332 1.333 . S
C333 N335 1.350 . S
C333 H359 0.931 . S
N334 Co330 2.148 . S
N334 C331 1.301 . S
N334 C332 1.317 . S
N335 C331 1.328 . S
N335 C333 1.350 . S
H336 C331 0.930 . S
H337 C332 0.930 . S
C338 O339 1.224 . S
C338 O357 1.247 . S
O339 C338 1.224 . S
N340 Co330 2.128 . S
N340 C341 1.355 . S
N340 C343 1.311 . S
C341 N340 1.355 . S
C341 C342 1.363 . S
C341 H353 0.929 . S
C342 C341 1.363 . S
C342 N344 1.375 . S
C342 H360 0.931 . S
C343 N340 1.311 . S
C343 N344 1.347 . S
C343 H354 0.929 . S
N344 C342 1.375 . S
N344 C343 1.347 . S
C345 C348 1.365 . S
C345 N350 1.328 . S
C345 H351 0.929 . S
C346 C347 1.362 . S
C346 C349 1.378 . S
C346 H361 0.929 . S
C347 C346 1.362 . S
C347 C348 1.366 . S
C348 C345 1.365 . S
C348 C347 1.366 . S
C348 H362 0.930 . S
C349 C346 1.378 . S
C349 N350 1.315 . S
C349 H352 0.930 . S
N350 Co330 2.194 . S
N350 C345 1.328 . S
N350 C349 1.315 . S
H351 C345 0.929 . S
H352 C349 0.930 . S
H353 C341 0.929 . S
H354 C343 0.929 . S
O355 Co330 2.351 1_556 S
O355 C358 1.244 . S
O356 Co330 2.155 1_556 S
O356 C358 1.240 . S
O357 Co330 2.096 . S
O357 C338 1.247 . S
C358 O355 1.244 . S
C358 O356 1.240 . S
H359 C333 0.931 . S
H360 C342 0.931 . S
H361 C346 0.929 . S
H362 C348 0.930 . S
Co363 N367 2.148 . S
Co363 N373 2.128 . S
Co363 N383 2.194 . S
Co363 O388 2.351 . S
Co363 O389 2.155 . S
Co363 O390 2.096 . S
C364 N367 1.301 . S
C364 N368 1.328 . S
C364 H369 0.930 . S
C365 C366 1.333 . S
C365 N367 1.317 . S
C365 H370 0.930 . S
C366 C365 1.333 . S
C366 N368 1.350 . S
C366 H392 0.931 . S
N367 Co363 2.148 . S
N367 C364 1.301 . S
N367 C365 1.317 . S
N368 C364 1.328 . S
N368 C366 1.350 . S
H369 C364 0.930 . S
H370 C365 0.930 . S
C371 O372 1.224 . S
C371 O390 1.247 . S
O372 C371 1.224 . S
N373 Co363 2.128 . S
N373 C374 1.355 . S
N373 C376 1.311 . S
C374 N373 1.355 . S
C374 C375 1.363 . S
C374 H386 0.929 . S
C375 C374 1.363 . S
C375 N377 1.375 . S
C375 H393 0.931 . S
C376 N373 1.311 . S
C376 N377 1.347 . S
C376 H387 0.929 . S
N377 C375 1.375 . S
N377 C376 1.347 . S
C378 C381 1.365 . S
C378 N383 1.328 . S
C378 H384 0.929 . S
C379 C380 1.362 . S
C379 C382 1.378 . S
C379 H394 0.929 . S
C380 C379 1.362 . S
C380 C381 1.366 . S
C381 C378 1.365 . S
C381 C380 1.366 . S
C381 H395 0.930 . S
C382 C379 1.378 . S
C382 N383 1.315 . S
C382 H385 0.930 . S
N383 Co363 2.194 . S
N383 C378 1.328 . S
N383 C382 1.315 . S
H384 C378 0.929 . S
H385 C382 0.930 . S
H386 C374 0.929 . S
H387 C376 0.929 . S
O388 Co363 2.351 . S
O388 C391 1.244 . S
O389 Co363 2.155 . S
O389 C391 1.240 . S
O390 Co363 2.096 . S
O390 C371 1.247 . S
C391 O388 1.244 . S
C391 O389 1.240 . S
H392 C366 0.931 . S
H393 C375 0.931 . S
H394 C379 0.929 . S
H395 C381 0.930 . S
Co396 N400 2.148 . S
Co396 N406 2.128 . S
Co396 N416 2.194 . S
Co396 O421 2.351 . S
Co396 O422 2.155 . S
Co396 O423 2.096 . S
C397 N400 1.301 . S
C397 N401 1.328 . S
C397 H402 0.930 . S
C398 C399 1.333 . S
C398 N400 1.317 . S
C398 H403 0.930 . S
C399 C398 1.333 . S
C399 N401 1.350 . S
C399 H425 0.931 . S
N400 Co396 2.148 . S
N400 C397 1.301 . S
N400 C398 1.317 . S
N401 C397 1.328 . S
N401 C399 1.350 . S
H402 C397 0.930 . S
H403 C398 0.930 . S
C404 O405 1.224 . S
C404 O423 1.247 . S
O405 C404 1.224 . S
N406 Co396 2.128 . S
N406 C407 1.355 . S
N406 C409 1.311 . S
C407 N406 1.355 . S
C407 C408 1.363 . S
C407 H419 0.929 . S
C408 C407 1.363 . S
C408 N410 1.375 . S
C408 H426 0.931 . S
C409 N406 1.311 . S
C409 N410 1.347 . S
C409 H420 0.929 . S
N410 C408 1.375 . S
N410 C409 1.347 . S
C411 C414 1.365 . S
C411 N416 1.328 . S
C411 H417 0.929 . S
C412 C413 1.362 . S
C412 C415 1.378 . S
C412 H427 0.929 . S
C413 C412 1.362 . S
C413 C414 1.366 . S
C414 C411 1.365 . S
C414 C413 1.366 . S
C414 H428 0.930 . S
C415 C412 1.378 . S
C415 N416 1.315 . S
C415 H418 0.930 . S
N416 Co396 2.194 . S
N416 C411 1.328 . S
N416 C415 1.315 . S
H417 C411 0.929 . S
H418 C415 0.930 . S
H419 C407 0.929 . S
H420 C409 0.929 . S
O421 Co396 2.351 . S
O421 C424 1.244 . S
O422 Co396 2.155 . S
O422 C424 1.240 . S
O423 Co396 2.096 . S
O423 C404 1.247 . S
C424 O421 1.244 . S
C424 O422 1.240 . S
H425 C399 0.931 . S
H426 C408 0.931 . S
H427 C412 0.929 . S
H428 C414 0.930 . S
Co429 N433 2.148 . S
Co429 N439 2.128 . S
Co429 N449 2.194 . S
Co429 O454 2.351 . S
Co429 O455 2.155 . S
Co429 O456 2.096 . S
C430 N433 1.301 . S
C430 N434 1.328 . S
C430 H435 0.930 . S
C431 C432 1.333 . S
C431 N433 1.317 . S
C431 H436 0.930 . S
C432 C431 1.333 . S
C432 N434 1.350 . S
C432 H458 0.931 . S
N433 Co429 2.148 . S
N433 C430 1.301 . S
N433 C431 1.317 . S
N434 C430 1.328 . S
N434 C432 1.350 . S
H435 C430 0.930 . S
H436 C431 0.930 . S
C437 O438 1.224 . S
C437 O456 1.247 . S
O438 C437 1.224 . S
N439 Co429 2.128 . S
N439 C440 1.355 . S
N439 C442 1.311 . S
C440 N439 1.355 . S
C440 C441 1.363 . S
C440 H452 0.929 . S
C441 C440 1.363 . S
C441 N443 1.375 . S
C441 H459 0.931 . S
C442 N439 1.311 . S
C442 N443 1.347 . S
C442 H453 0.929 . S
N443 C441 1.375 . S
N443 C442 1.347 . S
C444 C447 1.365 . S
C444 N449 1.328 . S
C444 H450 0.929 . S
C445 C446 1.362 . S
C445 C448 1.378 . S
C445 H460 0.929 . S
C446 C445 1.362 . S
C446 C447 1.366 . S
C447 C444 1.365 . S
C447 C446 1.366 . S
C447 H461 0.930 . S
C448 C445 1.378 . S
C448 N449 1.315 . S
C448 H451 0.930 . S
N449 Co429 2.194 . S
N449 C444 1.328 . S
N449 C448 1.315 . S
H450 C444 0.929 . S
H451 C448 0.930 . S
H452 C440 0.929 . S
H453 C442 0.929 . S
O454 Co429 2.351 . S
O454 C457 1.244 . S
O455 Co429 2.155 . S
O455 C457 1.240 . S
O456 Co429 2.096 . S
O456 C437 1.247 . S
C457 O454 1.244 . S
C457 O455 1.240 . S
H458 C432 0.931 . S
H459 C441 0.931 . S
H460 C445 0.929 . S
H461 C447 0.930 . S
Co462 N466 2.148 . S
Co462 N472 2.128 . S
Co462 N482 2.194 . S
Co462 O487 2.351 . S
Co462 O488 2.155 . S
Co462 O489 2.096 . S
C463 N466 1.301 . S
C463 N467 1.328 . S
C463 H468 0.930 . S
C464 C465 1.333 . S
C464 N466 1.317 . S
C464 H469 0.930 . S
C465 C464 1.333 . S
C465 N467 1.350 . S
C465 H491 0.931 . S
N466 Co462 2.148 . S
N466 C463 1.301 . S
N466 C464 1.317 . S
N467 C463 1.328 . S
N467 C465 1.350 . S
H468 C463 0.930 . S
H469 C464 0.930 . S
C470 O471 1.224 . S
C470 O489 1.247 . S
O471 C470 1.224 . S
N472 Co462 2.128 . S
N472 C473 1.355 . S
N472 C475 1.311 . S
C473 N472 1.355 . S
C473 C474 1.363 . S
C473 H485 0.929 . S
C474 C473 1.363 . S
C474 N476 1.375 . S
C474 H492 0.931 . S
C475 N472 1.311 . S
C475 N476 1.347 . S
C475 H486 0.929 . S
N476 C474 1.375 . S
N476 C475 1.347 . S
C477 C480 1.365 . S
C477 N482 1.328 . S
C477 H483 0.929 . S
C478 C479 1.362 . S
C478 C481 1.378 . S
C478 H493 0.929 . S
C479 C478 1.362 . S
C479 C480 1.366 . S
C480 C477 1.365 . S
C480 C479 1.366 . S
C480 H494 0.930 . S
C481 C478 1.378 . S
C481 N482 1.315 . S
C481 H484 0.930 . S
N482 Co462 2.194 . S
N482 C477 1.328 . S
N482 C481 1.315 . S
H483 C477 0.929 . S
H484 C481 0.930 . S
H485 C473 0.929 . S
H486 C475 0.929 . S
O487 Co462 2.351 . S
O487 C490 1.244 . S
O488 Co462 2.155 . S
O488 C490 1.240 . S
O489 Co462 2.096 . S
O489 C470 1.247 . S
C490 O487 1.244 . S
C490 O488 1.240 . S
H491 C465 0.931 . S
H492 C474 0.931 . S
H493 C478 0.929 . S
H494 C480 0.930 . S
Co495 N499 2.148 . S
Co495 N505 2.128 . S
Co495 N515 2.194 . S
Co495 O520 2.351 . S
Co495 O521 2.155 . S
Co495 O522 2.096 . S
C496 N499 1.301 . S
C496 N500 1.328 . S
C496 H501 0.930 . S
C497 C498 1.333 . S
C497 N499 1.317 . S
C497 H502 0.930 . S
C498 C497 1.333 . S
C498 N500 1.350 . S
C498 H524 0.931 . S
N499 Co495 2.148 . S
N499 C496 1.301 . S
N499 C497 1.317 . S
N500 C496 1.328 . S
N500 C498 1.350 . S
H501 C496 0.930 . S
H502 C497 0.930 . S
C503 O504 1.224 . S
C503 O522 1.247 . S
O504 C503 1.224 . S
N505 Co495 2.128 . S
N505 C506 1.355 . S
N505 C508 1.311 . S
C506 N505 1.355 . S
C506 C507 1.363 . S
C506 H518 0.929 . S
C507 C506 1.363 . S
C507 N509 1.375 . S
C507 H525 0.931 . S
C508 N505 1.311 . S
C508 N509 1.347 . S
C508 H519 0.929 . S
N509 C507 1.375 . S
N509 C508 1.347 . S
C510 C513 1.365 . S
C510 N515 1.328 . S
C510 H516 0.929 . S
C511 C512 1.362 . S
C511 C514 1.378 . S
C511 H526 0.929 . S
C512 C511 1.362 . S
C512 C513 1.366 . S
C513 C510 1.365 . S
C513 C512 1.366 . S
C513 H527 0.930 . S
C514 C511 1.378 . S
C514 N515 1.315 . S
C514 H517 0.930 . S
N515 Co495 2.194 . S
N515 C510 1.328 . S
N515 C514 1.315 . S
H516 C510 0.929 . S
H517 C514 0.930 . S
H518 C506 0.929 . S
H519 C508 0.929 . S
O520 Co495 2.351 . S
O520 C523 1.244 . S
O521 Co495 2.155 . S
O521 C523 1.240 . S
O522 Co495 2.096 . S
O522 C503 1.247 . S
C523 O520 1.244 . S
C523 O521 1.240 . S
H524 C498 0.931 . S
H525 C507 0.931 . S
H526 C511 0.929 . S
H527 C513 0.930 . S
C528 C529 1.391 . S
C528 C530 1.394 . S
C528 H544 0.931 . S
C529 C528 1.391 . S
C529 C533 1.376 . S
C530 C528 1.394 . S
C530 C531 1.369 . S
C530 C534 1.531 . S
C531 C530 1.369 . S
C531 C532 1.410 . S
C531 C539 1.503 . S
C532 C531 1.410 . S
C532 C533 1.392 . S
C532 C535 1.511 . S
C533 C529 1.376 . S
C533 C532 1.392 . S
C533 H545 0.929 . S
C534 C530 1.531 . S
C534 H546 0.960 . S
C534 H547 0.962 . S
C534 H548 0.960 . S
C535 C532 1.511 . S
C535 H549 0.961 . S
C535 H550 0.961 . S
C535 H551 0.961 . S
C536 C537 1.370 . S
C536 C538 1.363 . S
C536 H552 0.931 . S
C537 C536 1.370 . S
C537 C541 1.408 . S
C538 C536 1.363 . S
C538 C539 1.370 . S
C538 C542 1.524 . S
C539 C531 1.503 . S
C539 C538 1.370 . S
C539 C540 1.403 . S
C540 C539 1.403 . S
C540 C541 1.404 . S
C540 C543 1.539 . S
C541 C537 1.408 . S
C541 C540 1.404 . S
C541 H553 0.930 . S
C542 C538 1.524 . S
C542 H554 0.956 . S
C542 H555 0.961 . S
C542 H556 0.961 . S
C543 C540 1.539 . S
C543 H557 0.958 . S
C543 H558 0.961 . S
C543 H559 0.960 . S
H544 C528 0.931 . S
H545 C533 0.929 . S
H546 C534 0.960 . S
H547 C534 0.962 . S
H548 C534 0.960 . S
H549 C535 0.961 . S
H550 C535 0.961 . S
H551 C535 0.961 . S
H552 C536 0.931 . S
H553 C541 0.930 . S
H554 C542 0.956 . S
H555 C542 0.961 . S
H556 C542 0.961 . S
H557 C543 0.958 . S
H558 C543 0.961 . S
H559 C543 0.960 . S
C560 C561 1.381 1_455 S
C560 C562 1.397 . S
C560 H576 0.937 . S
C561 C560 1.381 1_655 S
C561 C565 1.376 . S
C562 C560 1.397 . S
C562 C563 1.369 1_455 S
C562 C566 1.531 . S
C563 C562 1.369 1_655 S
C563 C564 1.410 . S
C563 C571 1.503 1_665 S
C564 C563 1.410 . S
C564 C565 1.392 . S
C564 C567 1.511 1_565 S
C565 C561 1.376 . S
C565 C564 1.392 . S
C565 H577 0.929 . S
C566 C562 1.531 . S
C566 H578 0.960 . S
C566 H579 0.962 . S
C566 H580 0.960 . S
C567 C564 1.511 1_545 S
C567 H581 0.961 . S
C567 H582 0.961 . S
C567 H583 0.961 . S
C568 C569 1.370 . S
C568 C570 1.363 . S
C568 H584 0.931 . S
C569 C568 1.370 . S
C569 C573 1.408 . S
C570 C568 1.363 . S
C570 C571 1.370 . S
C570 C574 1.524 . S
C571 C563 1.503 1_445 S
C571 C570 1.370 . S
C571 C572 1.403 . S
C572 C571 1.403 . S
C572 C573 1.404 . S
C572 C575 1.539 1_445 S
C573 C569 1.408 . S
C573 C572 1.404 . S
C573 H585 0.930 . S
C574 C570 1.524 . S
C574 H586 0.956 . S
C574 H587 0.961 1_455 S
C574 H588 0.961 . S
C575 C572 1.539 1_665 S
C575 H589 0.958 1_655 S
C575 H590 0.961 1_565 S
C575 H591 0.960 . S
H576 C560 0.937 . S
H577 C565 0.929 . S
H578 C566 0.960 . S
H579 C566 0.962 . S
H580 C566 0.960 . S
H581 C567 0.961 . S
H582 C567 0.961 . S
H583 C567 0.961 . S
H584 C568 0.931 . S
H585 C573 0.930 . S
H586 C574 0.956 . S
H587 C574 0.961 1_655 S
H588 C574 0.961 . S
H589 C575 0.958 1_455 S
H590 C575 0.961 1_545 S
H591 C575 0.960 . S
C592 C593 1.391 . S
C592 C594 1.394 . S
C592 H608 0.931 . S
C593 C592 1.391 . S
C593 C597 1.376 . S
C594 C592 1.394 . S
C594 C595 1.369 . S
C594 C598 1.531 . S
C595 C594 1.369 . S
C595 C596 1.410 . S
C595 C603 1.503 1_545 S
C596 C595 1.410 . S
C596 C597 1.392 . S
C596 C599 1.511 1_545 S
C597 C593 1.376 . S
C597 C596 1.392 . S
C597 H609 0.929 . S
C598 C594 1.531 . S
C598 H610 0.960 . S
C598 H611 0.962 . S
C598 H612 0.960 . S
C599 C596 1.511 1_565 S
C599 H613 0.961 . S
C599 H614 0.961 . S
C599 H615 0.961 . S
C600 C601 1.370 . S
C600 C602 1.363 . S
C600 H616 0.931 . S
C601 C600 1.370 . S
C601 C605 1.408 . S
C602 C600 1.363 . S
C602 C603 1.370 . S
C602 C606 1.524 1_565 S
C603 C595 1.503 1_565 S
C603 C602 1.370 . S
C603 C604 1.403 . S
C604 C603 1.403 . S
C604 C605 1.404 . S
C604 C607 1.539 . S
C605 C601 1.408 . S
C605 C604 1.404 . S
C605 H617 0.930 . S
C606 C602 1.524 1_545 S
C606 H618 0.956 . S
C606 H619 0.961 . S
C606 H620 0.961 1_545 S
C607 C604 1.539 . S
C607 H621 0.958 . S
C607 H622 0.961 . S
C607 H623 0.960 . S
H608 C592 0.931 . S
H609 C597 0.929 . S
H610 C598 0.960 . S
H611 C598 0.962 . S
H612 C598 0.960 . S
H613 C599 0.961 . S
H614 C599 0.961 . S
H615 C599 0.961 . S
H616 C600 0.931 . S
H617 C605 0.930 . S
H618 C606 0.956 . S
H619 C606 0.961 . S
H620 C606 0.961 1_565 S
H621 C607 0.958 . S
H622 C607 0.961 . S
H623 C607 0.960 . S
C624 C625 1.391 . S
C624 C626 1.394 1_655 S
C624 H640 0.931 . S
C625 C624 1.391 . S
C625 C629 1.376 . S
C626 C624 1.394 1_455 S
C626 C627 1.369 1_455 S
C626 C630 1.531 . S
C627 C626 1.369 1_655 S
C627 C628 1.410 . S
C627 C635 1.503 1_655 S
C628 C627 1.410 . S
C628 C629 1.392 . S
C628 C631 1.511 . S
C629 C625 1.376 . S
C629 C628 1.392 . S
C629 H641 0.929 . S
C630 C626 1.531 . S
C630 H642 0.960 . S
C630 H643 0.962 . S
C630 H644 0.960 . S
C631 C628 1.511 . S
C631 H645 0.961 . S
C631 H646 0.961 . S
C631 H647 0.961 . S
C632 C633 1.370 . S
C632 C634 1.363 1_455 S
C632 H648 0.931 1_455 S
C633 C632 1.370 . S
C633 C637 1.408 . S
C634 C632 1.363 1_655 S
C634 C635 1.370 1_655 S
C634 C638 1.524 . S
C635 C627 1.503 1_455 S
C635 C634 1.370 1_455 S
C635 C636 1.403 . S
C636 C635 1.403 . S
C636 C637 1.404 . S
C636 C639 1.539 . S
C637 C633 1.408 . S
C637 C636 1.404 . S
C637 H649 0.930 . S
C638 C634 1.524 . S
C638 H650 0.956 . S
C638 H651 0.961 . S
C638 H652 0.961 . S
C639 C636 1.539 . S
C639 H653 0.958 . S
C639 H654 0.961 . S
C639 H655 0.960 . S
H640 C624 0.931 . S
H641 C629 0.929 . S
H642 C630 0.960 . S
H643 C630 0.962 . S
H644 C630 0.960 . S
H645 C631 0.961 . S
H646 C631 0.961 . S
H647 C631 0.961 . S
H648 C632 0.931 1_655 S
H649 C637 0.930 . S
H650 C638 0.956 . S
H651 C638 0.961 . S
H652 C638 0.961 . S
H653 C639 0.958 . S
H654 C639 0.961 . S
H655 C639 0.960 . S
C656 C657 1.391 . S
C656 C658 1.394 . S
C656 H672 0.931 . S
C657 C656 1.391 . S
C657 C661 1.376 . S
C658 C656 1.394 . S
C658 C659 1.369 . S
C658 C662 1.531 . S
C659 C658 1.369 . S
C659 C660 1.410 . S
C659 C667 1.503 . S
C660 C659 1.410 . S
C660 C661 1.392 . S
C660 C663 1.511 . S
C661 C657 1.376 . S
C661 C660 1.392 . S
C661 H673 0.929 . S
C662 C658 1.531 . S
C662 H674 0.960 . S
C662 H675 0.962 . S
C662 H676 0.960 . S
C663 C660 1.511 . S
C663 H677 0.961 . S
C663 H678 0.961 . S
C663 H679 0.961 . S
C664 C665 1.370 . S
C664 C666 1.363 . S
C664 H680 0.931 . S
C665 C664 1.370 . S
C665 C669 1.408 . S
C666 C664 1.363 . S
C666 C667 1.370 . S
C666 C670 1.524 . S
C667 C659 1.503 . S
C667 C666 1.370 . S
C667 C668 1.403 . S
C668 C667 1.403 . S
C668 C669 1.404 . S
C668 C671 1.539 . S
C669 C665 1.408 . S
C669 C668 1.404 . S
C669 H681 0.930 . S
C670 C666 1.524 . S
C670 H682 0.956 . S
C670 H683 0.961 . S
C670 H684 0.961 . S
C671 C668 1.539 . S
C671 H685 0.958 . S
C671 H686 0.961 . S
C671 H687 0.960 . S
H672 C656 0.931 . S
H673 C661 0.929 . S
H674 C662 0.960 . S
H675 C662 0.962 . S
H676 C662 0.960 . S
H677 C663 0.961 . S
H678 C663 0.961 . S
H679 C663 0.961 . S
H680 C664 0.931 . S
H681 C669 0.930 . S
H682 C670 0.956 . S
H683 C670 0.961 . S
H684 C670 0.961 . S
H685 C671 0.958 . S
H686 C671 0.961 . S
H687 C671 0.960 . S
C688 C689 1.391 . S
C688 C690 1.394 . S
C688 H704 0.931 . S
C689 C688 1.391 . S
C689 C693 1.376 . S
C690 C688 1.394 . S
C690 C691 1.369 . S
C690 C694 1.531 . S
C691 C690 1.369 . S
C691 C692 1.410 . S
C691 C699 1.503 1_565 S
C692 C691 1.410 . S
C692 C693 1.392 . S
C692 C695 1.511 1_565 S
C693 C689 1.376 . S
C693 C692 1.392 . S
C693 H705 0.929 . S
C694 C690 1.531 . S
C694 H706 0.960 . S
C694 H707 0.962 . S
C694 H708 0.960 . S
C695 C692 1.511 1_545 S
C695 H709 0.961 . S
C695 H710 0.961 . S
C695 H711 0.961 . S
C696 C697 1.370 . S
C696 C698 1.363 . S
C696 H712 0.931 . S
C697 C696 1.370 . S
C697 C701 1.408 . S
C698 C696 1.363 . S
C698 C699 1.370 . S
C698 C702 1.524 . S
C699 C691 1.503 1_545 S
C699 C698 1.370 . S
C699 C700 1.403 . S
C700 C699 1.403 . S
C700 C701 1.404 . S
C700 C703 1.539 . S
C701 C697 1.408 . S
C701 C700 1.404 . S
C701 H713 0.930 . S
C702 C698 1.524 . S
C702 H714 0.956 1_545 S
C702 H715 0.961 . S
C702 H716 0.961 . S
C703 C700 1.539 . S
C703 H717 0.958 1_545 S
C703 H718 0.961 . S
C703 H719 0.935 1_545 S
H704 C688 0.931 . S
H705 C693 0.929 . S
H706 C694 0.960 . S
H707 C694 0.962 . S
H708 C694 0.960 . S
H709 C695 0.961 . S
H710 C695 0.961 . S
H711 C695 0.961 . S
H712 C696 0.931 . S
H713 C701 0.930 . S
H714 C702 0.956 1_565 S
H715 C702 0.961 . S
H716 C702 0.961 . S
H717 C703 0.958 1_565 S
H718 C703 0.961 . S
H719 C703 0.935 1_565 S
C720 C721 1.391 . S
C720 C722 1.394 . S
C720 H736 0.931 . S
C721 C720 1.391 . S
C721 C725 1.376 1_655 S
C722 C720 1.394 . S
C722 C723 1.369 . S
C722 C726 1.531 . S
C723 C722 1.369 . S
C723 C724 1.410 1_655 S
C723 C731 1.503 1_655 S
C724 C723 1.410 1_455 S
C724 C725 1.392 . S
C724 C727 1.511 . S
C725 C721 1.376 1_455 S
C725 C724 1.392 . S
C725 H737 0.929 . S
C726 C722 1.531 . S
C726 H738 0.960 . S
C726 H739 0.962 . S
C726 H740 0.960 . S
C727 C724 1.511 . S
C727 H741 0.961 . S
C727 H742 0.961 . S
C727 H743 0.961 . S
C728 C729 1.370 . S
C728 C730 1.363 . S
C728 H744 0.931 . S
C729 C728 1.370 . S
C729 C733 1.408 . S
C730 C728 1.363 . S
C730 C731 1.370 . S
C730 C734 1.524 1_455 S
C731 C723 1.503 1_455 S
C731 C730 1.370 . S
C731 C732 1.403 . S
C732 C731 1.403 . S
C732 C733 1.404 . S
C732 C735 1.539 . S
C733 C729 1.408 . S
C733 C732 1.404 . S
C733 H745 0.930 . S
C734 C730 1.524 1_655 S
C734 H746 0.956 . S
C734 H747 0.961 . S
C734 H748 0.961 . S
C735 C732 1.539 . S
C735 H749 0.958 . S
C735 H750 0.961 . S
C735 H751 0.960 . S
H736 C720 0.931 . S
H737 C725 0.929 . S
H738 C726 0.960 . S
H739 C726 0.962 . S
H740 C726 0.960 . S
H741 C727 0.961 . S
H742 C727 0.961 . S
H743 C727 0.961 . S
H744 C728 0.931 . S
H745 C733 0.930 . S
H746 C734 0.956 . S
H747 C734 0.961 . S
H748 C734 0.961 . S
H749 C735 0.958 . S
H750 C735 0.961 . S
H751 C735 0.960 . S
C752 C753 1.391 . S
C752 C754 1.394 . S
C752 H768 0.931 . S
C753 C752 1.391 . S
C753 C757 1.376 . S
C754 C752 1.394 . S
C754 C755 1.369 . S
C754 C758 1.531 . S
C755 C754 1.369 . S
C755 C756 1.410 . S
C755 C763 1.503 . S
C756 C755 1.410 . S
C756 C757 1.392 . S
C756 C759 1.511 . S
C757 C753 1.376 . S
C757 C756 1.392 . S
C757 H769 0.929 . S
C758 C754 1.531 . S
C758 H770 0.960 . S
C758 H771 0.962 1_554 S
C758 H772 0.960 . S
C759 C756 1.511 . S
C759 H773 0.961 . S
C759 H774 0.961 1_554 S
C759 H775 0.961 . S
C760 C761 1.370 . S
C760 C762 1.363 . S
C760 H776 0.931 . S
C761 C760 1.370 . S
C761 C765 1.408 1_556 S
C762 C760 1.363 . S
C762 C763 1.370 1_556 S
C762 C766 1.524 . S
C763 C755 1.503 . S
C763 C762 1.370 1_554 S
C763 C764 1.403 . S
C764 C763 1.403 . S
C764 C765 1.404 . S
C764 C767 1.539 . S
C765 C761 1.408 1_554 S
C765 C764 1.404 . S
C765 H777 0.930 . S
C766 C762 1.524 . S
C766 H778 0.956 . S
C766 H779 0.961 . S
C766 H780 0.961 . S
C767 C764 1.539 . S
C767 H781 0.958 . S
C767 H782 0.961 . S
C767 H783 0.960 . S
H768 C752 0.931 . S
H769 C757 0.929 . S
H770 C758 0.960 . S
H771 C758 0.962 1_556 S
H772 C758 0.960 . S
H773 C759 0.961 . S
H774 C759 0.961 1_556 S
H775 C759 0.961 . S
H776 C760 0.931 . S
H777 C765 0.930 . S
H778 C766 0.956 . S
H779 C766 0.961 . S
H780 C766 0.961 . S
H781 C767 0.958 . S
H782 C767 0.961 . S
H783 C767 0.960 . S
C784 C785 1.391 . S
C784 C786 1.394 . S
C784 H800 0.931 . S
C785 C784 1.391 . S
C785 C789 1.354 1_655 S
C786 C784 1.394 . S
C786 C787 1.369 . S
C786 C790 1.531 . S
C787 C786 1.369 . S
C787 C788 1.410 1_655 S
C787 C795 1.511 1_655 S
C788 C787 1.410 1_455 S
C788 C789 1.402 . S
C788 C791 1.511 1_554 S
C789 C785 1.354 1_455 S
C789 C788 1.402 . S
C789 H801 0.941 . S
C790 C786 1.531 . S
C790 H802 0.960 . S
C790 H803 0.962 . S
C790 H804 0.960 . S
C791 C788 1.511 1_556 S
C791 H805 0.961 . S
C791 H806 0.961 . S
C791 H807 0.961 1_556 S
C792 C793 1.370 . S
C792 C794 1.370 . S
C792 H808 0.931 . S
C793 C792 1.370 . S
C793 C797 1.408 1_556 S
C794 C792 1.370 . S
C794 C795 1.360 1_556 S
C794 C798 1.511 1_455 S
C795 C787 1.511 1_455 S
C795 C794 1.360 1_554 S
C795 C796 1.411 . S
C796 C795 1.411 . S
C796 C797 1.404 . S
C796 C799 1.539 . S
C797 C793 1.408 1_554 S
C797 C796 1.404 . S
C797 H809 0.930 . S
C798 C794 1.511 1_655 S
C798 H810 0.956 . S
C798 H811 0.961 . S
C798 H812 0.961 . S
C799 C796 1.539 . S
C799 H813 0.958 . S
C799 H814 0.961 . S
C799 H815 0.960 . S
H800 C784 0.931 . S
H801 C789 0.941 . S
H802 C790 0.960 . S
H803 C790 0.962 . S
H804 C790 0.960 . S
H805 C791 0.961 . S
H806 C791 0.961 . S
H807 C791 0.961 1_554 S
H808 C792 0.931 . S
H809 C797 0.930 . S
H810 C798 0.956 . S
H811 C798 0.961 . S
H812 C798 0.961 . S
H813 C799 0.958 . S
H814 C799 0.961 . S
H815 C799 0.960 . S
C816 C817 1.391 . S
C816 C818 1.394 . S
C816 H832 0.931 . S
C817 C816 1.391 . S
C817 C821 1.376 . S
C818 C816 1.394 . S
C818 C819 1.369 . S
C818 C822 1.531 . S
C819 C818 1.369 . S
C819 C820 1.410 . S
C819 C827 1.503 . S
C820 C819 1.410 . S
C820 C821 1.392 . S
C820 C823 1.511 . S
C821 C817 1.376 . S
C821 C820 1.392 . S
C821 H833 0.929 . S
C822 C818 1.531 . S
C822 H834 0.960 . S
C822 H835 0.962 . S
C822 H836 0.960 . S
C823 C820 1.511 . S
C823 H837 0.961 . S
C823 H838 0.961 . S
C823 H839 0.961 . S
C824 C825 1.370 . S
C824 C826 1.363 . S
C824 H840 0.931 . S
C825 C824 1.370 . S
C825 C829 1.408 . S
C826 C824 1.363 . S
C826 C827 1.370 . S
C826 C830 1.524 . S
C827 C819 1.503 . S
C827 C826 1.370 . S
C827 C828 1.403 . S
C828 C827 1.403 . S
C828 C829 1.404 . S
C828 C831 1.539 . S
C829 C825 1.408 . S
C829 C828 1.404 . S
C829 H841 0.930 . S
C830 C826 1.524 . S
C830 H842 0.956 . S
C830 H843 0.961 . S
C830 H844 0.961 . S
C831 C828 1.539 . S
C831 H845 0.958 . S
C831 H846 0.961 . S
C831 H847 0.960 . S
H832 C816 0.931 . S
H833 C821 0.929 . S
H834 C822 0.960 . S
H835 C822 0.962 . S
H836 C822 0.960 . S
H837 C823 0.961 . S
H838 C823 0.961 . S
H839 C823 0.961 . S
H840 C824 0.931 . S
H841 C829 0.930 . S
H842 C830 0.956 . S
H843 C830 0.961 . S
H844 C830 0.961 . S
H845 C831 0.958 . S
H846 C831 0.961 . S
H847 C831 0.960 . S
C848 C849 1.367 1_554 S
C848 C850 1.395 . S
C848 H864 0.954 . S
C849 C848 1.367 1_556 S
C849 C853 1.376 . S
C850 C848 1.395 . S
C850 C851 1.369 1_554 S
C850 C854 1.531 . S
C851 C850 1.369 1_556 S
C851 C852 1.410 . S
C851 C859 1.502 1_556 S
C852 C851 1.410 . S
C852 C853 1.392 . S
C852 C855 1.511 . S
C853 C849 1.376 . S
C853 C852 1.392 . S
C853 H865 0.929 . S
C854 C850 1.531 . S
C854 H866 0.960 . S
C854 H867 0.962 . S
C854 H868 0.960 . S
C855 C852 1.511 . S
C855 H869 0.961 . S
C855 H870 0.961 . S
C855 H871 0.961 . S
C856 C857 1.370 . S
C856 C858 1.363 . S
C856 H872 0.931 . S
C857 C856 1.370 . S
C857 C861 1.408 1_554 S
C858 C856 1.363 . S
C858 C859 1.380 . S
C858 C862 1.524 . S
C859 C851 1.502 1_554 S
C859 C858 1.380 . S
C859 C860 1.395 1_554 S
C860 C859 1.395 1_556 S
C860 C861 1.404 . S
C860 C863 1.539 . S
C861 C857 1.408 1_556 S
C861 C860 1.404 . S
C861 H873 0.930 . S
C862 C858 1.524 . S
C862 H874 0.956 . S
C862 H875 0.961 . S
C862 H876 0.961 . S
C863 C860 1.539 . S
C863 H877 0.958 . S
C863 H878 0.961 . S
C863 H879 0.960 . S
H864 C848 0.954 . S
H865 C853 0.929 . S
H866 C854 0.960 . S
H867 C854 0.962 . S
H868 C854 0.960 . S
H869 C855 0.961 . S
H870 C855 0.961 . S
H871 C855 0.961 . S
H872 C856 0.931 . S
H873 C861 0.930 . S
H874 C862 0.956 . S
H875 C862 0.961 . S
H876 C862 0.961 . S
H877 C863 0.958 . S
H878 C863 0.961 . S
H879 C863 0.960 . S
C880 C881 1.391 . S
C880 C882 1.394 . S
C880 H896 0.931 . S
C881 C880 1.391 . S
C881 C885 1.376 . S
C882 C880 1.394 . S
C882 C883 1.369 . S
C882 C886 1.531 . S
C883 C882 1.369 . S
C883 C884 1.410 . S
C883 C891 1.503 . S
C884 C883 1.410 . S
C884 C885 1.392 . S
C884 C887 1.511 . S
C885 C881 1.376 . S
C885 C884 1.392 . S
C885 H897 0.929 . S
C886 C882 1.531 . S
C886 H898 0.960 . S
C886 H899 0.962 . S
C886 H900 0.960 . S
C887 C884 1.511 . S
C887 H901 0.961 . S
C887 H902 0.961 . S
C887 H903 0.961 . S
C888 C889 1.370 . S
C888 C890 1.363 . S
C888 H904 0.931 . S
C889 C888 1.370 . S
C889 C893 1.408 . S
C890 C888 1.363 . S
C890 C891 1.370 . S
C890 C894 1.524 . S
C891 C883 1.503 . S
C891 C890 1.370 . S
C891 C892 1.403 . S
C892 C891 1.403 . S
C892 C893 1.404 . S
C892 C895 1.539 . S
C893 C889 1.408 . S
C893 C892 1.404 . S
C893 H905 0.930 . S
C894 C890 1.524 . S
C894 H906 0.956 . S
C894 H907 0.961 . S
C894 H908 0.961 . S
C895 C892 1.539 . S
C895 H909 0.958 . S
C895 H910 0.961 . S
C895 H911 0.960 . S
H896 C880 0.931 . S
H897 C885 0.929 . S
H898 C886 0.960 . S
H899 C886 0.962 . S
H900 C886 0.960 . S
H901 C887 0.961 . S
H902 C887 0.961 . S
H903 C887 0.961 . S
H904 C888 0.931 . S
H905 C893 0.930 . S
H906 C894 0.956 . S
H907 C894 0.961 . S
H908 C894 0.961 . S
H909 C895 0.958 . S
H910 C895 0.961 . S
H911 C895 0.960 . S
C912 C913 1.391 1_554 S
C912 C914 1.394 . S
C912 H928 0.931 . S
C913 C912 1.391 1_556 S
C913 C917 1.376 . S
C914 C912 1.394 . S
C914 C915 1.369 . S
C914 C918 1.531 . S
C915 C914 1.369 . S
C915 C916 1.410 1_554 S
C915 C923 1.503 1_545 S
C916 C915 1.410 1_556 S
C916 C917 1.392 . S
C916 C919 1.511 . S
C917 C913 1.376 . S
C917 C916 1.392 . S
C917 H929 0.929 . S
C918 C914 1.531 . S
C918 H930 0.960 . S
C918 H931 0.962 1_545 S
C918 H932 0.960 . S
C919 C916 1.511 . S
C919 H933 0.961 . S
C919 H934 0.995 . S
C919 H935 0.961 . S
C920 C921 1.370 1_556 S
C920 C922 1.363 . S
C920 H936 0.931 . S
C921 C920 1.370 1_554 S
C921 C925 1.408 . S
C922 C920 1.363 . S
C922 C923 1.370 1_556 S
C922 C926 1.524 . S
C923 C915 1.503 1_565 S
C923 C922 1.370 1_554 S
C923 C924 1.403 . S
C924 C923 1.403 . S
C924 C925 1.404 . S
C924 C927 1.539 1_565 S
C925 C921 1.408 . S
C925 C924 1.404 . S
C925 H937 0.930 . S
C926 C922 1.524 . S
C926 H938 0.956 . S
C926 H939 0.961 . S
C926 H940 0.961 . S
C927 C924 1.539 1_545 S
C927 H941 0.958 . S
C927 H942 0.961 . S
C927 H943 0.960 . S
H928 C912 0.931 . S
H929 C917 0.929 . S
H930 C918 0.960 . S
H931 C918 0.962 1_565 S
H932 C918 0.960 . S
H933 C919 0.961 . S
H934 C919 0.995 . S
H935 C919 0.961 . S
H936 C920 0.931 . S
H937 C925 0.930 . S
H938 C926 0.956 . S
H939 C926 0.961 . S
H940 C926 0.961 . S
H941 C927 0.958 . S
H942 C927 0.961 . S
H943 C927 0.960 . S
C944 C945 1.391 . S
C944 C946 1.394 . S
C944 H960 0.931 . S
C945 C944 1.391 . S
C945 C949 1.376 . S
C946 C944 1.394 . S
C946 C947 1.369 . S
C946 C950 1.531 . S
C947 C946 1.369 . S
C947 C948 1.410 . S
C947 C955 1.503 . S
C948 C947 1.410 . S
C948 C949 1.392 . S
C948 C951 1.511 . S
C949 C945 1.376 . S
C949 C948 1.392 . S
C949 H961 0.929 . S
C950 C946 1.531 . S
C950 H962 0.960 . S
C950 H963 0.962 . S
C950 H964 0.960 . S
C951 C948 1.511 . S
C951 H965 0.961 . S
C951 H966 0.961 . S
C951 H967 0.961 . S
C952 C953 1.370 . S
C952 C954 1.363 . S
C952 H968 0.931 . S
C953 C952 1.370 . S
C953 C957 1.408 . S
C954 C952 1.363 . S
C954 C955 1.370 . S
C954 C958 1.524 . S
C955 C947 1.503 . S
C955 C954 1.370 . S
C955 C956 1.403 . S
C956 C955 1.403 . S
C956 C957 1.404 . S
C956 C959 1.539 . S
C957 C953 1.408 . S
C957 C956 1.404 . S
C957 H969 0.930 . S
C958 C954 1.524 . S
C958 H970 0.956 . S
C958 H971 0.961 . S
C958 H972 0.961 . S
C959 C956 1.539 . S
C959 H973 0.958 . S
C959 H974 0.961 . S
C959 H975 0.960 . S
H960 C944 0.931 . S
H961 C949 0.929 . S
H962 C950 0.960 . S
H963 C950 0.962 . S
H964 C950 0.960 . S
H965 C951 0.961 . S
H966 C951 0.961 . S
H967 C951 0.961 . S
H968 C952 0.931 . S
H969 C957 0.930 . S
H970 C958 0.956 . S
H971 C958 0.961 . S
H972 C958 0.961 . S
H973 C959 0.958 . S
H974 C959 0.961 . S
H975 C959 0.960 . S
C976 C977 1.391 . S
C976 C978 1.394 . S
C976 H992 0.931 . S
C977 C976 1.391 . S
C977 C981 1.376 . S
C978 C976 1.394 . S
C978 C979 1.369 . S
C978 C982 1.531 . S
C979 C978 1.369 . S
C979 C980 1.410 . S
C979 C987 1.503 . S
C980 C979 1.410 . S
C980 C981 1.392 . S
C980 C983 1.511 . S
C981 C977 1.376 . S
C981 C980 1.392 . S
C981 H993 0.929 . S
C982 C978 1.531 . S
C982 H994 0.960 . S
C982 H995 0.962 . S
C982 H996 0.960 . S
C983 C980 1.511 . S
C983 H997 0.961 . S
C983 H998 0.961 . S
C983 H999 0.961 . S
C984 C985 1.370 . S
C984 C986 1.363 . S
C984 H1000 0.931 . S
C985 C984 1.370 . S
C985 C989 1.408 . S
C986 C984 1.363 . S
C986 C987 1.370 . S
C986 C990 1.524 . S
C987 C979 1.503 . S
C987 C986 1.370 . S
C987 C988 1.403 . S
C988 C987 1.403 . S
C988 C989 1.404 . S
C988 C991 1.539 . S
C989 C985 1.408 . S
C989 C988 1.404 . S
C989 H1001 0.930 . S
C990 C986 1.524 . S
C990 H1002 0.956 . S
C990 H1003 0.961 . S
C990 H1004 0.961 . S
C991 C988 1.539 . S
C991 H1005 0.958 . S
C991 H1006 0.961 . S
C991 H1007 0.960 . S
H992 C976 0.931 . S
H993 C981 0.929 . S
H994 C982 0.960 . S
H995 C982 0.962 . S
H996 C982 0.960 . S
H997 C983 0.961 . S
H998 C983 0.961 . S
H999 C983 0.961 . S
H1000 C984 0.931 . S
H1001 C989 0.930 . S
H1002 C990 0.956 . S
H1003 C990 0.961 . S
H1004 C990 0.961 . S
H1005 C991 0.958 . S
H1006 C991 0.961 . S
H1007 C991 0.960 . S
C1008 C1009 1.391 . S
C1008 C1010 1.394 . S
C1008 H1024 0.931 . S
C1009 C1008 1.391 . S
C1009 C1013 1.376 . S
C1010 C1008 1.394 . S
C1010 C1011 1.369 . S
C1010 C1014 1.531 . S
C1011 C1010 1.369 . S
C1011 C1012 1.410 . S
C1011 C1019 1.503 . S
C1012 C1011 1.410 . S
C1012 C1013 1.392 . S
C1012 C1015 1.511 . S
C1013 C1009 1.376 . S
C1013 C1012 1.392 . S
C1013 H1025 0.929 . S
C1014 C1010 1.531 . S
C1014 H1026 0.960 . S
C1014 H1027 0.962 . S
C1014 H1028 0.960 . S
C1015 C1012 1.511 . S
C1015 H1029 0.961 . S
C1015 H1030 0.961 . S
C1015 H1031 0.961 . S
C1016 C1017 1.370 . S
C1016 C1018 1.363 . S
C1016 H1032 0.931 . S
C1017 C1016 1.370 . S
C1017 C1021 1.408 . S
C1018 C1016 1.363 . S
C1018 C1019 1.370 . S
C1018 C1022 1.524 . S
C1019 C1011 1.503 . S
C1019 C1018 1.370 . S
C1019 C1020 1.403 . S
C1020 C1019 1.403 . S
C1020 C1021 1.404 . S
C1020 C1023 1.539 . S
C1021 C1017 1.408 . S
C1021 C1020 1.404 . S
C1021 H1033 0.930 . S
C1022 C1018 1.524 . S
C1022 H1034 0.956 . S
C1022 H1035 0.961 . S
C1022 H1036 0.961 . S
C1023 C1020 1.539 . S
C1023 H1037 0.958 . S
C1023 H1038 0.961 . S
C1023 H1039 0.960 . S
H1024 C1008 0.931 . S
H1025 C1013 0.929 . S
H1026 C1014 0.960 . S
H1027 C1014 0.962 . S
H1028 C1014 0.960 . S
H1029 C1015 0.961 . S
H1030 C1015 0.961 . S
H1031 C1015 0.961 . S
H1032 C1016 0.931 . S
H1033 C1021 0.930 . S
H1034 C1022 0.956 . S
H1035 C1022 0.961 . S
H1036 C1022 0.961 . S
H1037 C1023 0.958 . S
H1038 C1023 0.961 . S
H1039 C1023 0.960 . S
C1040 C1041 1.391 . S
C1040 C1042 1.394 . S
C1040 H1056 0.931 . S
C1041 C1040 1.391 . S
C1041 C1045 1.376 . S
C1042 C1040 1.394 . S
C1042 C1043 1.369 . S
C1042 C1046 1.531 . S
C1043 C1042 1.369 . S
C1043 C1044 1.410 . S
C1043 C1051 1.503 . S
C1044 C1043 1.410 . S
C1044 C1045 1.392 . S
C1044 C1047 1.511 . S
C1045 C1041 1.376 . S
C1045 C1044 1.392 . S
C1045 H1057 0.929 . S
C1046 C1042 1.531 . S
C1046 H1058 0.960 . S
C1046 H1059 0.962 . S
C1046 H1060 0.960 . S
C1047 C1044 1.511 . S
C1047 H1061 0.961 . S
C1047 H1062 0.961 . S
C1047 H1063 0.961 . S
C1048 C1049 1.370 . S
C1048 C1050 1.363 . S
C1048 H1064 0.931 . S
C1049 C1048 1.370 . S
C1049 C1053 1.408 . S
C1050 C1048 1.363 . S
C1050 C1051 1.370 . S
C1050 C1054 1.524 . S
C1051 C1043 1.503 . S
C1051 C1050 1.370 . S
C1051 C1052 1.403 . S
C1052 C1051 1.403 . S
C1052 C1053 1.404 . S
C1052 C1055 1.539 . S
C1053 C1049 1.408 . S
C1053 C1052 1.404 . S
C1053 H1065 0.930 . S
C1054 C1050 1.524 . S
C1054 H1066 0.956 . S
C1054 H1067 0.961 . S
C1054 H1068 0.961 . S
C1055 C1052 1.539 . S
C1055 H1069 0.958 . S
C1055 H1070 0.961 . S
C1055 H1071 0.960 . S
H1056 C1040 0.931 . S
H1057 C1045 0.929 . S
H1058 C1046 0.960 . S
H1059 C1046 0.962 . S
H1060 C1046 0.960 . S
H1061 C1047 0.961 . S
H1062 C1047 0.961 . S
H1063 C1047 0.961 . S
H1064 C1048 0.931 . S
H1065 C1053 0.930 . S
H1066 C1054 0.956 . S
H1067 C1054 0.961 . S
H1068 C1054 0.961 . S
H1069 C1055 0.958 . S
H1070 C1055 0.961 . S
H1071 C1055 0.960 . S
C1072 C1073 1.391 . S
C1072 C1074 1.394 . S
C1072 H1088 0.931 . S
C1073 C1072 1.391 . S
C1073 C1077 1.376 . S
C1074 C1072 1.394 . S
C1074 C1075 1.369 . S
C1074 C1078 1.531 . S
C1075 C1074 1.369 . S
C1075 C1076 1.410 . S
C1075 C1083 1.503 . S
C1076 C1075 1.410 . S
C1076 C1077 1.392 . S
C1076 C1079 1.511 . S
C1077 C1073 1.376 . S
C1077 C1076 1.392 . S
C1077 H1089 0.929 . S
C1078 C1074 1.531 . S
C1078 H1090 0.960 . S
C1078 H1091 0.962 . S
C1078 H1092 0.960 . S
C1079 C1076 1.511 . S
C1079 H1093 0.961 . S
C1079 H1094 0.961 . S
C1079 H1095 0.961 . S
C1080 C1081 1.370 . S
C1080 C1082 1.363 . S
C1080 H1096 0.931 . S
C1081 C1080 1.370 . S
C1081 C1085 1.408 . S
C1082 C1080 1.363 . S
C1082 C1083 1.370 . S
C1082 C1086 1.524 . S
C1083 C1075 1.503 . S
C1083 C1082 1.370 . S
C1083 C1084 1.403 . S
C1084 C1083 1.403 . S
C1084 C1085 1.404 . S
C1084 C1087 1.539 . S
C1085 C1081 1.408 . S
C1085 C1084 1.404 . S
C1085 H1097 0.930 . S
C1086 C1082 1.524 . S
C1086 H1098 0.956 . S
C1086 H1099 0.961 . S
C1086 H1100 0.961 . S
C1087 C1084 1.539 . S
C1087 H1101 0.958 . S
C1087 H1102 0.961 . S
C1087 H1103 0.960 . S
H1088 C1072 0.931 . S
H1089 C1077 0.929 . S
H1090 C1078 0.960 . S
H1091 C1078 0.962 . S
H1092 C1078 0.960 . S
H1093 C1079 0.961 . S
H1094 C1079 0.961 . S
H1095 C1079 0.961 . S
H1096 C1080 0.931 . S
H1097 C1085 0.930 . S
H1098 C1086 0.956 . S
H1099 C1086 0.961 . S
H1100 C1086 0.961 . S
H1101 C1087 0.958 . S
H1102 C1087 0.961 . S
H1103 C1087 0.960 . S
C1104 C1105 1.391 . S
C1104 C1106 1.394 . S
C1104 H1120 0.931 . S
C1105 C1104 1.391 . S
C1105 C1109 1.376 . S
C1106 C1104 1.394 . S
C1106 C1107 1.369 . S
C1106 C1110 1.531 . S
C1107 C1106 1.369 . S
C1107 C1108 1.410 . S
C1107 C1115 1.503 . S
C1108 C1107 1.410 . S
C1108 C1109 1.392 . S
C1108 C1111 1.511 . S
C1109 C1105 1.376 . S
C1109 C1108 1.392 . S
C1109 H1121 0.929 . S
C1110 C1106 1.531 . S
C1110 H1122 0.960 . S
C1110 H1123 0.962 . S
C1110 H1124 0.960 . S
C1111 C1108 1.511 . S
C1111 H1125 0.961 . S
C1111 H1126 0.961 . S
C1111 H1127 0.961 . S
C1112 C1113 1.370 . S
C1112 C1114 1.363 . S
C1112 H1128 0.931 . S
C1113 C1112 1.370 . S
C1113 C1117 1.408 . S
C1114 C1112 1.363 . S
C1114 C1115 1.370 . S
C1114 C1118 1.524 . S
C1115 C1107 1.503 . S
C1115 C1114 1.370 . S
C1115 C1116 1.403 . S
C1116 C1115 1.403 . S
C1116 C1117 1.404 . S
C1116 C1119 1.539 . S
C1117 C1113 1.408 . S
C1117 C1116 1.404 . S
C1117 H1129 0.930 . S
C1118 C1114 1.524 . S
C1118 H1130 0.956 . S
C1118 H1131 0.961 . S
C1118 H1132 0.961 . S
C1119 C1116 1.539 . S
C1119 H1133 0.958 . S
C1119 H1134 0.961 . S
C1119 H1135 0.960 . S
H1120 C1104 0.931 . S
H1121 C1109 0.929 . S
H1122 C1110 0.960 . S
H1123 C1110 0.962 . S
H1124 C1110 0.960 . S
H1125 C1111 0.961 . S
H1126 C1111 0.961 . S
H1127 C1111 0.961 . S
H1128 C1112 0.931 . S
H1129 C1117 0.930 . S
H1130 C1118 0.956 . S
H1131 C1118 0.961 . S
H1132 C1118 0.961 . S
H1133 C1119 0.958 . S
H1134 C1119 0.961 . S
H1135 C1119 0.960 . S
C1136 C1137 1.391 . S
C1136 C1138 1.394 . S
C1136 H1152 0.931 . S
C1137 C1136 1.391 . S
C1137 C1141 1.376 . S
C1138 C1136 1.394 . S
C1138 C1139 1.369 . S
C1138 C1142 1.531 . S
C1139 C1138 1.369 . S
C1139 C1140 1.410 . S
C1139 C1147 1.503 . S
C1140 C1139 1.410 . S
C1140 C1141 1.392 . S
C1140 C1143 1.511 . S
C1141 C1137 1.376 . S
C1141 C1140 1.392 . S
C1141 H1153 0.929 . S
C1142 C1138 1.531 . S
C1142 H1154 0.960 . S
C1142 H1155 0.962 . S
C1142 H1156 0.960 . S
C1143 C1140 1.511 . S
C1143 H1157 0.961 . S
C1143 H1158 0.961 . S
C1143 H1159 0.961 . S
C1144 C1145 1.370 . S
C1144 C1146 1.363 . S
C1144 H1160 0.931 . S
C1145 C1144 1.370 . S
C1145 C1149 1.408 . S
C1146 C1144 1.363 . S
C1146 C1147 1.370 . S
C1146 C1150 1.524 . S
C1147 C1139 1.503 . S
C1147 C1146 1.370 . S
C1147 C1148 1.403 . S
C1148 C1147 1.403 . S
C1148 C1149 1.404 . S
C1148 C1151 1.539 . S
C1149 C1145 1.408 . S
C1149 C1148 1.404 . S
C1149 H1161 0.930 . S
C1150 C1146 1.524 . S
C1150 H1162 0.956 . S
C1150 H1163 0.961 . S
C1150 H1164 0.961 . S
C1151 C1148 1.539 . S
C1151 H1165 0.958 . S
C1151 H1166 0.961 . S
C1151 H1167 0.960 . S
H1152 C1136 0.931 . S
H1153 C1141 0.929 . S
H1154 C1142 0.960 . S
H1155 C1142 0.962 . S
H1156 C1142 0.960 . S
H1157 C1143 0.961 . S
H1158 C1143 0.961 . S
H1159 C1143 0.961 . S
H1160 C1144 0.931 . S
H1161 C1149 0.930 . S
H1162 C1150 0.956 . S
H1163 C1150 0.961 . S
H1164 C1150 0.961 . S
H1165 C1151 0.958 . S
H1166 C1151 0.961 . S
H1167 C1151 0.960 . S
C1168 C1169 1.391 . S
C1168 C1170 1.394 . S
C1168 H1184 0.931 . S
C1169 C1168 1.391 . S
C1169 C1173 1.376 . S
C1170 C1168 1.394 . S
C1170 C1171 1.369 . S
C1170 C1174 1.531 . S
C1171 C1170 1.369 . S
C1171 C1172 1.410 . S
C1171 C1179 1.503 . S
C1172 C1171 1.410 . S
C1172 C1173 1.392 . S
C1172 C1175 1.511 . S
C1173 C1169 1.376 . S
C1173 C1172 1.392 . S
C1173 H1185 0.929 . S
C1174 C1170 1.531 . S
C1174 H1186 0.960 . S
C1174 H1187 0.962 . S
C1174 H1188 0.960 . S
C1175 C1172 1.511 . S
C1175 H1189 0.961 . S
C1175 H1190 0.961 . S
C1175 H1191 0.961 . S
C1176 C1177 1.370 . S
C1176 C1178 1.363 . S
C1176 H1192 0.931 . S
C1177 C1176 1.370 . S
C1177 C1181 1.408 . S
C1178 C1176 1.363 . S
C1178 C1179 1.370 . S
C1178 C1182 1.524 . S
C1179 C1171 1.503 . S
C1179 C1178 1.370 . S
C1179 C1180 1.403 . S
C1180 C1179 1.403 . S
C1180 C1181 1.404 . S
C1180 C1183 1.539 . S
C1181 C1177 1.408 . S
C1181 C1180 1.404 . S
C1181 H1193 0.930 . S
C1182 C1178 1.524 . S
C1182 H1194 0.956 . S
C1182 H1195 0.961 . S
C1182 H1196 0.961 . S
C1183 C1180 1.539 . S
C1183 H1197 0.958 . S
C1183 H1198 0.961 . S
C1183 H1199 0.960 . S
H1184 C1168 0.931 . S
H1185 C1173 0.929 . S
H1186 C1174 0.960 . S
H1187 C1174 0.962 . S
H1188 C1174 0.960 . S
H1189 C1175 0.961 . S
H1190 C1175 0.961 . S
H1191 C1175 0.961 . S
H1192 C1176 0.931 . S
H1193 C1181 0.930 . S
H1194 C1182 0.956 . S
H1195 C1182 0.961 . S
H1196 C1182 0.961 . S
H1197 C1183 0.958 . S
H1198 C1183 0.961 . S
H1199 C1183 0.960 . S
C1200 C1201 1.391 . S
C1200 C1202 1.394 . S
C1200 H1216 0.931 . S
C1201 C1200 1.391 . S
C1201 C1205 1.376 . S
C1202 C1200 1.394 . S
C1202 C1203 1.369 . S
C1202 C1206 1.531 . S
C1203 C1202 1.369 . S
C1203 C1204 1.410 . S
C1203 C1211 1.503 . S
C1204 C1203 1.410 . S
C1204 C1205 1.392 . S
C1204 C1207 1.511 . S
C1205 C1201 1.376 . S
C1205 C1204 1.392 . S
C1205 H1217 0.929 . S
C1206 C1202 1.531 . S
C1206 H1218 0.960 . S
C1206 H1219 0.962 . S
C1206 H1220 0.960 . S
C1207 C1204 1.511 . S
C1207 H1221 0.961 . S
C1207 H1222 0.961 . S
C1207 H1223 0.961 . S
C1208 C1209 1.370 . S
C1208 C1210 1.363 . S
C1208 H1224 0.931 . S
C1209 C1208 1.370 . S
C1209 C1213 1.408 . S
C1210 C1208 1.363 . S
C1210 C1211 1.370 . S
C1210 C1214 1.524 . S
C1211 C1203 1.503 . S
C1211 C1210 1.370 . S
C1211 C1212 1.403 . S
C1212 C1211 1.403 . S
C1212 C1213 1.404 . S
C1212 C1215 1.539 . S
C1213 C1209 1.408 . S
C1213 C1212 1.404 . S
C1213 H1225 0.930 . S
C1214 C1210 1.524 . S
C1214 H1226 0.956 . S
C1214 H1227 0.961 . S
C1214 H1228 0.961 . S
C1215 C1212 1.539 . S
C1215 H1229 0.958 . S
C1215 H1230 0.961 . S
C1215 H1231 0.960 . S
H1216 C1200 0.931 . S
H1217 C1205 0.929 . S
H1218 C1206 0.960 . S
H1219 C1206 0.962 . S
H1220 C1206 0.960 . S
H1221 C1207 0.961 . S
H1222 C1207 0.961 . S
H1223 C1207 0.961 . S
H1224 C1208 0.931 . S
H1225 C1213 0.930 . S
H1226 C1214 0.956 . S
H1227 C1214 0.961 . S
H1228 C1214 0.961 . S
H1229 C1215 0.958 . S
H1230 C1215 0.961 . S
H1231 C1215 0.960 . S
C1232 C1233 1.391 . S
C1232 C1234 1.394 . S
C1232 H1248 0.931 . S
C1233 C1232 1.391 . S
C1233 C1237 1.376 . S
C1234 C1232 1.394 . S
C1234 C1235 1.369 . S
C1234 C1238 1.531 . S
C1235 C1234 1.369 . S
C1235 C1236 1.410 . S
C1235 C1243 1.503 . S
C1236 C1235 1.410 . S
C1236 C1237 1.392 . S
C1236 C1239 1.511 . S
C1237 C1233 1.376 . S
C1237 C1236 1.392 . S
C1237 H1249 0.929 . S
C1238 C1234 1.531 . S
C1238 H1250 0.960 . S
C1238 H1251 0.962 . S
C1238 H1252 0.960 . S
C1239 C1236 1.511 . S
C1239 H1253 0.961 . S
C1239 H1254 0.961 . S
C1239 H1255 0.961 . S
C1240 C1241 1.370 . S
C1240 C1242 1.363 . S
C1240 H1256 0.931 . S
C1241 C1240 1.370 . S
C1241 C1245 1.408 . S
C1242 C1240 1.363 . S
C1242 C1243 1.370 . S
C1242 C1246 1.524 . S
C1243 C1235 1.503 . S
C1243 C1242 1.370 . S
C1243 C1244 1.403 . S
C1244 C1243 1.403 . S
C1244 C1245 1.404 . S
C1244 C1247 1.539 . S
C1245 C1241 1.408 . S
C1245 C1244 1.404 . S
C1245 H1257 0.930 . S
C1246 C1242 1.524 . S
C1246 H1258 0.956 . S
C1246 H1259 0.961 . S
C1246 H1260 0.961 . S
C1247 C1244 1.539 . S
C1247 H1261 0.958 . S
C1247 H1262 0.961 . S
C1247 H1263 0.960 . S
H1248 C1232 0.931 . S
H1249 C1237 0.929 . S
H1250 C1238 0.960 . S
H1251 C1238 0.962 . S
H1252 C1238 0.960 . S
H1253 C1239 0.961 . S
H1254 C1239 0.961 . S
H1255 C1239 0.961 . S
H1256 C1240 0.931 . S
H1257 C1245 0.930 . S
H1258 C1246 0.956 . S
H1259 C1246 0.961 . S
H1260 C1246 0.961 . S
H1261 C1247 0.958 . S
H1262 C1247 0.961 . S
H1263 C1247 0.960 . S
C1264 C1265 1.391 . S
C1264 C1266 1.394 . S
C1264 H1280 0.931 . S
C1265 C1264 1.391 . S
C1265 C1269 1.376 . S
C1266 C1264 1.394 . S
C1266 C1267 1.369 . S
C1266 C1270 1.531 . S
C1267 C1266 1.369 . S
C1267 C1268 1.410 . S
C1267 C1275 1.503 . S
C1268 C1267 1.410 . S
C1268 C1269 1.392 . S
C1268 C1271 1.511 . S
C1269 C1265 1.376 . S
C1269 C1268 1.392 . S
C1269 H1281 0.929 . S
C1270 C1266 1.531 . S
C1270 H1282 0.960 . S
C1270 H1283 0.962 . S
C1270 H1284 0.960 . S
C1271 C1268 1.511 . S
C1271 H1285 0.961 . S
C1271 H1286 0.961 . S
C1271 H1287 0.961 . S
C1272 C1273 1.370 . S
C1272 C1274 1.363 . S
C1272 H1288 0.931 . S
C1273 C1272 1.370 . S
C1273 C1277 1.408 . S
C1274 C1272 1.363 . S
C1274 C1275 1.370 . S
C1274 C1278 1.524 . S
C1275 C1267 1.503 . S
C1275 C1274 1.370 . S
C1275 C1276 1.403 . S
C1276 C1275 1.403 . S
C1276 C1277 1.404 . S
C1276 C1279 1.539 . S
C1277 C1273 1.408 . S
C1277 C1276 1.404 . S
C1277 H1289 0.930 . S
C1278 C1274 1.524 . S
C1278 H1290 0.956 . S
C1278 H1291 0.961 . S
C1278 H1292 0.961 . S
C1279 C1276 1.539 . S
C1279 H1293 0.958 . S
C1279 H1294 0.961 . S
C1279 H1295 0.960 . S
H1280 C1264 0.931 . S
H1281 C1269 0.929 . S
H1282 C1270 0.960 . S
H1283 C1270 0.962 . S
H1284 C1270 0.960 . S
H1285 C1271 0.961 . S
H1286 C1271 0.961 . S
H1287 C1271 0.961 . S
H1288 C1272 0.931 . S
H1289 C1277 0.930 . S
H1290 C1278 0.956 . S
H1291 C1278 0.961 . S
H1292 C1278 0.961 . S
H1293 C1279 0.958 . S
H1294 C1279 0.961 . S
H1295 C1279 0.960 . S
C1296 C1297 1.391 . S
C1296 C1298 1.394 . S
C1296 H1312 0.931 . S
C1297 C1296 1.391 . S
C1297 C1301 1.376 . S
C1298 C1296 1.394 . S
C1298 C1299 1.369 . S
C1298 C1302 1.531 . S
C1299 C1298 1.369 . S
C1299 C1300 1.410 . S
C1299 C1307 1.503 . S
C1300 C1299 1.410 . S
C1300 C1301 1.392 . S
C1300 C1303 1.511 . S
C1301 C1297 1.376 . S
C1301 C1300 1.392 . S
C1301 H1313 0.929 . S
C1302 C1298 1.531 . S
C1302 H1314 0.960 . S
C1302 H1315 0.962 . S
C1302 H1316 0.960 . S
C1303 C1300 1.511 . S
C1303 H1317 0.961 . S
C1303 H1318 0.961 . S
C1303 H1319 0.961 . S
C1304 C1305 1.370 . S
C1304 C1306 1.363 . S
C1304 H1320 0.931 . S
C1305 C1304 1.370 . S
C1305 C1309 1.408 . S
C1306 C1304 1.363 . S
C1306 C1307 1.370 . S
C1306 C1310 1.524 . S
C1307 C1299 1.503 . S
C1307 C1306 1.370 . S
C1307 C1308 1.403 . S
C1308 C1307 1.403 . S
C1308 C1309 1.404 . S
C1308 C1311 1.539 . S
C1309 C1305 1.408 . S
C1309 C1308 1.404 . S
C1309 H1321 0.930 . S
C1310 C1306 1.524 . S
C1310 H1322 0.956 . S
C1310 H1323 0.961 . S
C1310 H1324 0.961 . S
C1311 C1308 1.539 . S
C1311 H1325 0.958 . S
C1311 H1326 0.961 . S
C1311 H1327 0.960 . S
H1312 C1296 0.931 . S
H1313 C1301 0.929 . S
H1314 C1302 0.960 . S
H1315 C1302 0.962 . S
H1316 C1302 0.960 . S
H1317 C1303 0.961 . S
H1318 C1303 0.961 . S
H1319 C1303 0.961 . S
H1320 C1304 0.931 . S
H1321 C1309 0.930 . S
H1322 C1310 0.956 . S
H1323 C1310 0.961 . S
H1324 C1310 0.961 . S
H1325 C1311 0.958 . S
H1326 C1311 0.961 . S
H1327 C1311 0.960 . S
C1328 C1329 1.391 . S
C1328 C1330 1.394 . S
C1328 H1344 0.931 . S
C1329 C1328 1.391 . S
C1329 C1333 1.376 . S
C1330 C1328 1.394 . S
C1330 C1331 1.369 . S
C1330 C1334 1.531 . S
C1331 C1330 1.369 . S
C1331 C1332 1.410 . S
C1331 C1339 1.503 . S
C1332 C1331 1.410 . S
C1332 C1333 1.392 . S
C1332 C1335 1.511 . S
C1333 C1329 1.376 . S
C1333 C1332 1.392 . S
C1333 H1345 0.929 . S
C1334 C1330 1.531 . S
C1334 H1346 0.960 . S
C1334 H1347 0.962 . S
C1334 H1348 0.960 . S
C1335 C1332 1.511 . S
C1335 H1349 0.961 . S
C1335 H1350 0.961 . S
C1335 H1351 0.961 . S
C1336 C1337 1.370 . S
C1336 C1338 1.363 . S
C1336 H1352 0.931 . S
C1337 C1336 1.370 . S
C1337 C1341 1.408 . S
C1338 C1336 1.363 . S
C1338 C1339 1.370 . S
C1338 C1342 1.524 . S
C1339 C1331 1.503 . S
C1339 C1338 1.370 . S
C1339 C1340 1.403 . S
C1340 C1339 1.403 . S
C1340 C1341 1.404 . S
C1340 C1343 1.539 . S
C1341 C1337 1.408 . S
C1341 C1340 1.404 . S
C1341 H1353 0.930 . S
C1342 C1338 1.524 . S
C1342 H1354 0.956 . S
C1342 H1355 0.961 . S
C1342 H1356 0.961 . S
C1343 C1340 1.539 . S
C1343 H1357 0.958 . S
C1343 H1358 0.961 . S
C1343 H1359 0.960 . S
H1344 C1328 0.931 . S
H1345 C1333 0.929 . S
H1346 C1334 0.960 . S
H1347 C1334 0.962 . S
H1348 C1334 0.960 . S
H1349 C1335 0.961 . S
H1350 C1335 0.961 . S
H1351 C1335 0.961 . S
H1352 C1336 0.931 . S
H1353 C1341 0.930 . S
H1354 C1342 0.956 . S
H1355 C1342 0.961 . S
H1356 C1342 0.961 . S
H1357 C1343 0.958 . S
H1358 C1343 0.961 . S
H1359 C1343 0.960 . S
C1360 C1361 1.391 . S
C1360 C1362 1.394 . S
C1360 H1376 0.931 . S
C1361 C1360 1.391 . S
C1361 C1365 1.376 . S
C1362 C1360 1.394 . S
C1362 C1363 1.369 . S
C1362 C1366 1.531 . S
C1363 C1362 1.369 . S
C1363 C1364 1.410 . S
C1363 C1371 1.503 . S
C1364 C1363 1.410 . S
C1364 C1365 1.392 . S
C1364 C1367 1.511 . S
C1365 C1361 1.376 . S
C1365 C1364 1.392 . S
C1365 H1377 0.929 . S
C1366 C1362 1.531 . S
C1366 H1378 0.960 . S
C1366 H1379 0.962 . S
C1366 H1380 0.960 . S
C1367 C1364 1.511 . S
C1367 H1381 0.961 . S
C1367 H1382 0.961 . S
C1367 H1383 0.961 . S
C1368 C1369 1.370 . S
C1368 C1370 1.363 . S
C1368 H1384 0.931 . S
C1369 C1368 1.370 . S
C1369 C1373 1.408 . S
C1370 C1368 1.363 . S
C1370 C1371 1.370 . S
C1370 C1374 1.524 . S
C1371 C1363 1.503 . S
C1371 C1370 1.370 . S
C1371 C1372 1.403 . S
C1372 C1371 1.403 . S
C1372 C1373 1.404 . S
C1372 C1375 1.539 . S
C1373 C1369 1.408 . S
C1373 C1372 1.404 . S
C1373 H1385 0.930 . S
C1374 C1370 1.524 . S
C1374 H1386 0.956 . S
C1374 H1387 0.961 . S
C1374 H1388 0.961 . S
C1375 C1372 1.539 . S
C1375 H1389 0.958 . S
C1375 H1390 0.961 . S
C1375 H1391 0.960 . S
H1376 C1360 0.931 . S
H1377 C1365 0.929 . S
H1378 C1366 0.960 . S
H1379 C1366 0.962 . S
H1380 C1366 0.960 . S
H1381 C1367 0.961 . S
H1382 C1367 0.961 . S
H1383 C1367 0.961 . S
H1384 C1368 0.931 . S
H1385 C1373 0.930 . S
H1386 C1374 0.956 . S
H1387 C1374 0.961 . S
H1388 C1374 0.961 . S
H1389 C1375 0.958 . S
H1390 C1375 0.961 . S
H1391 C1375 0.960 . S
C1392 C1393 1.391 . S
C1392 C1394 1.394 . S
C1392 H1408 0.931 . S
C1393 C1392 1.391 . S
C1393 C1397 1.376 . S
C1394 C1392 1.394 . S
C1394 C1395 1.369 . S
C1394 C1398 1.531 . S
C1395 C1394 1.369 . S
C1395 C1396 1.410 . S
C1395 C1403 1.503 . S
C1396 C1395 1.410 . S
C1396 C1397 1.392 . S
C1396 C1399 1.511 . S
C1397 C1393 1.376 . S
C1397 C1396 1.392 . S
C1397 H1409 0.929 . S
C1398 C1394 1.531 . S
C1398 H1410 0.960 . S
C1398 H1411 0.962 . S
C1398 H1412 0.960 . S
C1399 C1396 1.511 . S
C1399 H1413 0.961 . S
C1399 H1414 0.961 . S
C1399 H1415 0.961 . S
C1400 C1401 1.370 . S
C1400 C1402 1.363 . S
C1400 H1416 0.931 . S
C1401 C1400 1.370 . S
C1401 C1405 1.408 . S
C1402 C1400 1.363 . S
C1402 C1403 1.370 . S
C1402 C1406 1.524 . S
C1403 C1395 1.503 . S
C1403 C1402 1.370 . S
C1403 C1404 1.403 . S
C1404 C1403 1.403 . S
C1404 C1405 1.404 . S
C1404 C1407 1.539 . S
C1405 C1401 1.408 . S
C1405 C1404 1.404 . S
C1405 H1417 0.930 . S
C1406 C1402 1.524 . S
C1406 H1418 0.956 . S
C1406 H1419 0.961 . S
C1406 H1420 0.961 . S
C1407 C1404 1.539 . S
C1407 H1421 0.958 . S
C1407 H1422 0.961 . S
C1407 H1423 0.960 . S
H1408 C1392 0.931 . S
H1409 C1397 0.929 . S
H1410 C1398 0.960 . S
H1411 C1398 0.962 . S
H1412 C1398 0.960 . S
H1413 C1399 0.961 . S
H1414 C1399 0.961 . S
H1415 C1399 0.961 . S
H1416 C1400 0.931 . S
H1417 C1405 0.930 . S
H1418 C1406 0.956 . S
H1419 C1406 0.961 . S
H1420 C1406 0.961 . S
H1421 C1407 0.958 . S
H1422 C1407 0.961 . S
H1423 C1407 0.960 . S
C1424 C1425 1.391 . S
C1424 C1426 1.394 . S
C1424 H1440 0.931 . S
C1425 C1424 1.391 . S
C1425 C1429 1.376 . S
C1426 C1424 1.394 . S
C1426 C1427 1.369 . S
C1426 C1430 1.531 . S
C1427 C1426 1.369 . S
C1427 C1428 1.410 . S
C1427 C1435 1.503 . S
C1428 C1427 1.410 . S
C1428 C1429 1.392 . S
C1428 C1431 1.511 . S
C1429 C1425 1.376 . S
C1429 C1428 1.392 . S
C1429 H1441 0.929 . S
C1430 C1426 1.531 . S
C1430 H1442 0.960 . S
C1430 H1443 0.962 . S
C1430 H1444 0.960 . S
C1431 C1428 1.511 . S
C1431 H1445 0.961 . S
C1431 H1446 0.961 . S
C1431 H1447 0.961 . S
C1432 C1433 1.370 . S
C1432 C1434 1.363 . S
C1432 H1448 0.931 . S
C1433 C1432 1.370 . S
C1433 C1437 1.408 . S
C1434 C1432 1.363 . S
C1434 C1435 1.370 . S
C1434 C1438 1.524 . S
C1435 C1427 1.503 . S
C1435 C1434 1.370 . S
C1435 C1436 1.403 . S
C1436 C1435 1.403 . S
C1436 C1437 1.404 . S
C1436 C1439 1.539 . S
C1437 C1433 1.408 . S
C1437 C1436 1.404 . S
C1437 H1449 0.930 . S
C1438 C1434 1.524 . S
C1438 H1450 0.956 . S
C1438 H1451 0.961 . S
C1438 H1452 0.961 . S
C1439 C1436 1.539 . S
C1439 H1453 0.958 . S
C1439 H1454 0.961 . S
C1439 H1455 0.960 . S
H1440 C1424 0.931 . S
H1441 C1429 0.929 . S
H1442 C1430 0.960 . S
H1443 C1430 0.962 . S
H1444 C1430 0.960 . S
H1445 C1431 0.961 . S
H1446 C1431 0.961 . S
H1447 C1431 0.961 . S
H1448 C1432 0.931 . S
H1449 C1437 0.930 . S
H1450 C1438 0.956 . S
H1451 C1438 0.961 . S
H1452 C1438 0.961 . S
H1453 C1439 0.958 . S
H1454 C1439 0.961 . S
H1455 C1439 0.960 . S
C1456 C1457 1.391 . S
C1456 C1458 1.394 . S
C1456 H1472 0.931 . S
C1457 C1456 1.391 . S
C1457 C1461 1.376 . S
C1458 C1456 1.394 . S
C1458 C1459 1.369 . S
C1458 C1462 1.531 . S
C1459 C1458 1.369 . S
C1459 C1460 1.410 . S
C1459 C1467 1.503 . S
C1460 C1459 1.410 . S
C1460 C1461 1.392 . S
C1460 C1463 1.511 . S
C1461 C1457 1.376 . S
C1461 C1460 1.392 . S
C1461 H1473 0.929 . S
C1462 C1458 1.531 . S
C1462 H1474 0.960 . S
C1462 H1475 0.962 . S
C1462 H1476 0.960 . S
C1463 C1460 1.511 . S
C1463 H1477 0.961 . S
C1463 H1478 0.961 . S
C1463 H1479 0.961 . S
C1464 C1465 1.370 . S
C1464 C1466 1.363 . S
C1464 H1480 0.931 . S
C1465 C1464 1.370 . S
C1465 C1469 1.408 . S
C1466 C1464 1.363 . S
C1466 C1467 1.370 . S
C1466 C1470 1.524 . S
C1467 C1459 1.503 . S
C1467 C1466 1.370 . S
C1467 C1468 1.403 . S
C1468 C1467 1.403 . S
C1468 C1469 1.404 . S
C1468 C1471 1.539 . S
C1469 C1465 1.408 . S
C1469 C1468 1.404 . S
C1469 H1481 0.930 . S
C1470 C1466 1.524 . S
C1470 H1482 0.956 . S
C1470 H1483 0.961 . S
C1470 H1484 0.961 . S
C1471 C1468 1.539 . S
C1471 H1485 0.958 . S
C1471 H1486 0.961 . S
C1471 H1487 0.960 . S
H1472 C1456 0.931 . S
H1473 C1461 0.929 . S
H1474 C1462 0.960 . S
H1475 C1462 0.962 . S
H1476 C1462 0.960 . S
H1477 C1463 0.961 . S
H1478 C1463 0.961 . S
H1479 C1463 0.961 . S
H1480 C1464 0.931 . S
H1481 C1469 0.930 . S
H1482 C1470 0.956 . S
H1483 C1470 0.961 . S
H1484 C1470 0.961 . S
H1485 C1471 0.958 . S
H1486 C1471 0.961 . S
H1487 C1471 0.960 . S
C1488 C1489 1.391 . S
C1488 C1490 1.394 . S
C1488 H1504 0.931 . S
C1489 C1488 1.391 . S
C1489 C1493 1.376 . S
C1490 C1488 1.394 . S
C1490 C1491 1.369 . S
C1490 C1494 1.531 . S
C1491 C1490 1.369 . S
C1491 C1492 1.410 . S
C1491 C1499 1.503 . S
C1492 C1491 1.410 . S
C1492 C1493 1.392 . S
C1492 C1495 1.511 . S
C1493 C1489 1.376 . S
C1493 C1492 1.392 . S
C1493 H1505 0.929 . S
C1494 C1490 1.531 . S
C1494 H1506 0.960 . S
C1494 H1507 0.962 . S
C1494 H1508 0.960 . S
C1495 C1492 1.511 . S
C1495 H1509 0.961 . S
C1495 H1510 0.961 . S
C1495 H1511 0.961 . S
C1496 C1497 1.370 . S
C1496 C1498 1.363 . S
C1496 H1512 0.931 . S
C1497 C1496 1.370 . S
C1497 C1501 1.408 . S
C1498 C1496 1.363 . S
C1498 C1499 1.370 . S
C1498 C1502 1.524 . S
C1499 C1491 1.503 . S
C1499 C1498 1.370 . S
C1499 C1500 1.403 . S
C1500 C1499 1.403 . S
C1500 C1501 1.404 . S
C1500 C1503 1.539 . S
C1501 C1497 1.408 . S
C1501 C1500 1.404 . S
C1501 H1513 0.930 . S
C1502 C1498 1.524 . S
C1502 H1514 0.956 . S
C1502 H1515 0.961 . S
C1502 H1516 0.961 . S
C1503 C1500 1.539 . S
C1503 H1517 0.958 . S
C1503 H1518 0.961 . S
C1503 H1519 0.960 . S
H1504 C1488 0.931 . S
H1505 C1493 0.929 . S
H1506 C1494 0.960 . S
H1507 C1494 0.962 . S
H1508 C1494 0.960 . S
H1509 C1495 0.961 . S
H1510 C1495 0.961 . S
H1511 C1495 0.961 . S
H1512 C1496 0.931 . S
H1513 C1501 0.930 . S
H1514 C1502 0.956 . S
H1515 C1502 0.961 . S
H1516 C1502 0.961 . S
H1517 C1503 0.958 . S
H1518 C1503 0.961 . S
H1519 C1503 0.960 . S
C1520 C1521 1.391 . S
C1520 C1522 1.394 . S
C1520 H1536 0.931 . S
C1521 C1520 1.391 . S
C1521 C1525 1.376 . S
C1522 C1520 1.394 . S
C1522 C1523 1.369 . S
C1522 C1526 1.531 . S
C1523 C1522 1.369 . S
C1523 C1524 1.410 . S
C1523 C1531 1.503 . S
C1524 C1523 1.410 . S
C1524 C1525 1.392 . S
C1524 C1527 1.511 . S
C1525 C1521 1.376 . S
C1525 C1524 1.392 . S
C1525 H1537 0.929 . S
C1526 C1522 1.531 . S
C1526 H1538 0.960 . S
C1526 H1539 0.962 . S
C1526 H1540 0.960 . S
C1527 C1524 1.511 . S
C1527 H1541 0.961 . S
C1527 H1542 0.961 . S
C1527 H1543 0.961 . S
C1528 C1529 1.370 . S
C1528 C1530 1.363 . S
C1528 H1544 0.931 . S
C1529 C1528 1.370 . S
C1529 C1533 1.408 . S
C1530 C1528 1.363 . S
C1530 C1531 1.370 . S
C1530 C1534 1.524 . S
C1531 C1523 1.503 . S
C1531 C1530 1.370 . S
C1531 C1532 1.403 . S
C1532 C1531 1.403 . S
C1532 C1533 1.404 . S
C1532 C1535 1.539 . S
C1533 C1529 1.408 . S
C1533 C1532 1.404 . S
C1533 H1545 0.930 . S
C1534 C1530 1.524 . S
C1534 H1546 0.956 . S
C1534 H1547 0.961 . S
C1534 H1548 0.961 . S
C1535 C1532 1.539 . S
C1535 H1549 0.958 . S
C1535 H1550 0.961 . S
C1535 H1551 0.960 . S
H1536 C1520 0.931 . S
H1537 C1525 0.929 . S
H1538 C1526 0.960 . S
H1539 C1526 0.962 . S
H1540 C1526 0.960 . S
H1541 C1527 0.961 . S
H1542 C1527 0.961 . S
H1543 C1527 0.961 . S
H1544 C1528 0.931 . S
H1545 C1533 0.930 . S
H1546 C1534 0.956 . S
H1547 C1534 0.961 . S
H1548 C1534 0.961 . S
H1549 C1535 0.958 . S
H1550 C1535 0.961 . S
H1551 C1535 0.960 . S
C1552 C1553 1.391 . S
C1552 C1554 1.394 . S
C1552 H1568 0.931 . S
C1553 C1552 1.391 . S
C1553 C1557 1.376 . S
C1554 C1552 1.394 . S
C1554 C1555 1.369 . S
C1554 C1558 1.531 . S
C1555 C1554 1.369 . S
C1555 C1556 1.410 . S
C1555 C1563 1.503 . S
C1556 C1555 1.410 . S
C1556 C1557 1.392 . S
C1556 C1559 1.511 . S
C1557 C1553 1.376 . S
C1557 C1556 1.392 . S
C1557 H1569 0.929 . S
C1558 C1554 1.531 . S
C1558 H1570 0.960 . S
C1558 H1571 0.962 1_455 S
C1558 H1572 0.962 . S
C1559 C1556 1.511 . S
C1559 H1573 0.961 . S
C1559 H1574 0.961 . S
C1559 H1575 0.961 . S
C1560 C1561 1.370 . S
C1560 C1562 1.363 . S
C1560 H1576 0.931 . S
C1561 C1560 1.370 . S
C1561 C1565 1.408 . S
C1562 C1560 1.363 . S
C1562 C1563 1.370 . S
C1562 C1566 1.524 . S
C1563 C1555 1.503 . S
C1563 C1562 1.370 . S
C1563 C1564 1.403 . S
C1564 C1563 1.403 . S
C1564 C1565 1.404 . S
C1564 C1567 1.539 . S
C1565 C1561 1.408 . S
C1565 C1564 1.404 . S
C1565 H1577 0.930 . S
C1566 C1562 1.524 . S
C1566 H1578 0.956 . S
C1566 H1579 0.961 . S
C1566 H1580 0.961 . S
C1567 C1564 1.539 . S
C1567 H1581 0.958 . S
C1567 H1582 0.961 . S
C1567 H1583 0.960 . S
H1568 C1552 0.931 . S
H1569 C1557 0.929 . S
H1570 C1558 0.960 . S
H1571 C1558 0.962 1_655 S
H1572 C1558 0.962 . S
H1573 C1559 0.961 . S
H1574 C1559 0.961 . S
H1575 C1559 0.961 . S
H1576 C1560 0.931 . S
H1577 C1565 0.930 . S
H1578 C1566 0.956 . S
H1579 C1566 0.961 . S
H1580 C1566 0.961 . S
H1581 C1567 0.958 . S
H1582 C1567 0.961 . S
H1583 C1567 0.960 . S
C1584 C1585 1.391 . S
C1584 C1586 1.394 . S
C1584 H1600 0.931 . S
C1585 C1584 1.391 . S
C1585 C1589 1.376 . S
C1586 C1584 1.394 . S
C1586 C1587 1.369 . S
C1586 C1590 1.531 . S
C1587 C1586 1.369 . S
C1587 C1588 1.410 . S
C1587 C1595 1.503 . S
C1588 C1587 1.410 . S
C1588 C1589 1.392 . S
C1588 C1591 1.511 . S
C1589 C1585 1.376 . S
C1589 C1588 1.392 . S
C1589 H1601 0.929 . S
C1590 C1586 1.531 . S
C1590 H1602 0.960 . S
C1590 H1603 0.962 . S
C1590 H1604 0.960 . S
C1591 C1588 1.511 . S
C1591 H1605 0.961 . S
C1591 H1606 0.961 . S
C1591 H1607 0.961 . S
C1592 C1593 1.370 . S
C1592 C1594 1.363 . S
C1592 H1608 0.931 . S
C1593 C1592 1.370 . S
C1593 C1597 1.408 . S
C1594 C1592 1.363 . S
C1594 C1595 1.370 . S
C1594 C1598 1.524 . S
C1595 C1587 1.503 . S
C1595 C1594 1.370 . S
C1595 C1596 1.403 . S
C1596 C1595 1.403 . S
C1596 C1597 1.404 . S
C1596 C1599 1.539 . S
C1597 C1593 1.408 . S
C1597 C1596 1.404 . S
C1597 H1609 0.930 . S
C1598 C1594 1.524 . S
C1598 H1610 0.956 . S
C1598 H1611 0.961 . S
C1598 H1612 0.961 . S
C1599 C1596 1.539 . S
C1599 H1613 0.958 . S
C1599 H1614 0.961 . S
C1599 H1615 0.960 . S
H1600 C1584 0.931 . S
H1601 C1589 0.929 . S
H1602 C1590 0.960 . S
H1603 C1590 0.962 . S
H1604 C1590 0.960 . S
H1605 C1591 0.961 . S
H1606 C1591 0.961 . S
H1607 C1591 0.961 . S
H1608 C1592 0.931 . S
H1609 C1597 0.930 . S
H1610 C1598 0.956 . S
H1611 C1598 0.961 . S
H1612 C1598 0.961 . S
H1613 C1599 0.958 . S
H1614 C1599 0.961 . S
H1615 C1599 0.960 . S
C1616 C1617 1.391 . S
C1616 C1618 1.394 . S
C1616 H1632 0.931 . S
C1617 C1616 1.391 . S
C1617 C1621 1.376 . S
C1618 C1616 1.394 . S
C1618 C1619 1.369 . S
C1618 C1622 1.531 . S
C1619 C1618 1.369 . S
C1619 C1620 1.410 . S
C1619 C1627 1.503 . S
C1620 C1619 1.410 . S
C1620 C1621 1.392 . S
C1620 C1623 1.511 . S
C1621 C1617 1.376 . S
C1621 C1620 1.392 . S
C1621 H1633 0.929 . S
C1622 C1618 1.531 . S
C1622 H1634 0.960 . S
C1622 H1635 0.962 . S
C1622 H1636 0.960 . S
C1623 C1620 1.511 . S
C1623 H1637 0.961 1_455 S
C1623 H1638 0.961 . S
C1623 H1639 0.961 1_455 S
C1624 C1625 1.370 . S
C1624 C1626 1.363 . S
C1624 H1640 0.931 . S
C1625 C1624 1.370 . S
C1625 C1629 1.408 . S
C1626 C1624 1.363 . S
C1626 C1627 1.370 . S
C1626 C1630 1.524 . S
C1627 C1619 1.503 . S
C1627 C1626 1.370 . S
C1627 C1628 1.403 . S
C1628 C1627 1.403 . S
C1628 C1629 1.404 . S
C1628 C1631 1.539 . S
C1629 C1625 1.408 . S
C1629 C1628 1.404 . S
C1629 H1641 0.930 . S
C1630 C1626 1.524 . S
C1630 H1642 0.956 . S
C1630 H1643 0.961 . S
C1630 H1644 0.961 . S
C1631 C1628 1.539 . S
C1631 H1645 0.958 . S
C1631 H1646 0.961 . S
C1631 H1647 0.960 . S
H1632 C1616 0.931 . S
H1633 C1621 0.929 . S
H1634 C1622 0.960 . S
H1635 C1622 0.962 . S
H1636 C1622 0.960 . S
H1637 C1623 0.961 1_655 S
H1638 C1623 0.961 . S
H1639 C1623 0.961 1_655 S
H1640 C1624 0.931 . S
H1641 C1629 0.930 . S
H1642 C1630 0.956 . S
H1643 C1630 0.961 . S
H1644 C1630 0.961 . S
H1645 C1631 0.958 . S
H1646 C1631 0.961 . S
H1647 C1631 0.960 . S
C1648 C1649 1.391 . S
C1648 C1650 1.394 . S
C1648 H1664 0.931 . S
C1649 C1648 1.391 . S
C1649 C1653 1.376 . S
C1650 C1648 1.394 . S
C1650 C1651 1.369 . S
C1650 C1654 1.531 . S
C1651 C1650 1.369 . S
C1651 C1652 1.410 . S
C1651 C1659 1.503 . S
C1652 C1651 1.410 . S
C1652 C1653 1.392 . S
C1652 C1655 1.511 . S
C1653 C1649 1.376 . S
C1653 C1652 1.392 . S
C1653 H1665 0.929 . S
C1654 C1650 1.531 . S
C1654 H1666 0.960 . S
C1654 H1667 0.962 . S
C1654 H1668 0.960 . S
C1655 C1652 1.511 . S
C1655 H1669 0.961 . S
C1655 H1670 0.961 . S
C1655 H1671 0.961 . S
C1656 C1657 1.370 . S
C1656 C1658 1.363 . S
C1656 H1672 0.931 . S
C1657 C1656 1.370 . S
C1657 C1661 1.408 . S
C1658 C1656 1.363 . S
C1658 C1659 1.370 . S
C1658 C1662 1.524 . S
C1659 C1651 1.503 . S
C1659 C1658 1.370 . S
C1659 C1660 1.403 . S
C1660 C1659 1.403 . S
C1660 C1661 1.404 . S
C1660 C1663 1.539 . S
C1661 C1657 1.408 . S
C1661 C1660 1.404 . S
C1661 H1673 0.930 . S
C1662 C1658 1.524 . S
C1662 H1674 0.956 . S
C1662 H1675 0.961 . S
C1662 H1676 0.961 . S
C1663 C1660 1.539 . S
C1663 H1677 0.958 . S
C1663 H1678 0.961 . S
C1663 H1679 0.960 . S
H1664 C1648 0.931 . S
H1665 C1653 0.929 . S
H1666 C1654 0.960 . S
H1667 C1654 0.962 . S
H1668 C1654 0.960 . S
H1669 C1655 0.961 . S
H1670 C1655 0.961 . S
H1671 C1655 0.961 . S
H1672 C1656 0.931 . S
H1673 C1661 0.930 . S
H1674 C1662 0.956 . S
H1675 C1662 0.961 . S
H1676 C1662 0.961 . S
H1677 C1663 0.958 . S
H1678 C1663 0.961 . S
H1679 C1663 0.960 . S
C1680 C1681 1.391 . S
C1680 C1682 1.394 . S
C1680 H1696 0.931 . S
C1681 C1680 1.391 . S
C1681 C1685 1.376 . S
C1682 C1680 1.394 . S
C1682 C1683 1.369 . S
C1682 C1686 1.531 . S
C1683 C1682 1.369 . S
C1683 C1684 1.410 . S
C1683 C1691 1.503 . S
C1684 C1683 1.410 . S
C1684 C1685 1.392 . S
C1684 C1687 1.511 . S
C1685 C1681 1.376 . S
C1685 C1684 1.392 . S
C1685 H1697 0.929 . S
C1686 C1682 1.531 . S
C1686 H1698 0.960 . S
C1686 H1699 0.962 . S
C1686 H1700 0.960 . S
C1687 C1684 1.511 . S
C1687 H1701 0.961 . S
C1687 H1702 0.961 . S
C1687 H1703 0.961 . S
C1688 C1689 1.370 . S
C1688 C1690 1.363 . S
C1688 H1704 0.931 . S
C1689 C1688 1.370 . S
C1689 C1693 1.408 . S
C1690 C1688 1.363 . S
C1690 C1691 1.370 . S
C1690 C1694 1.524 . S
C1691 C1683 1.503 . S
C1691 C1690 1.370 . S
C1691 C1692 1.403 . S
C1692 C1691 1.403 . S
C1692 C1693 1.404 . S
C1692 C1695 1.539 . S
C1693 C1689 1.408 . S
C1693 C1692 1.404 . S
C1693 H1705 0.930 . S
C1694 C1690 1.524 . S
C1694 H1706 0.956 . S
C1694 H1707 0.961 . S
C1694 H1708 0.961 . S
C1695 C1692 1.539 . S
C1695 H1709 0.958 . S
C1695 H1710 0.961 . S
C1695 H1711 0.960 . S
H1696 C1680 0.931 . S
H1697 C1685 0.929 . S
H1698 C1686 0.960 . S
H1699 C1686 0.962 . S
H1700 C1686 0.960 . S
H1701 C1687 0.961 . S
H1702 C1687 0.961 . S
H1703 C1687 0.961 . S
H1704 C1688 0.931 . S
H1705 C1693 0.930 . S
H1706 C1694 0.956 . S
H1707 C1694 0.961 . S
H1708 C1694 0.961 . S
H1709 C1695 0.958 . S
H1710 C1695 0.961 . S
H1711 C1695 0.960 . S
C1712 C1713 1.391 . S
C1712 C1714 1.394 . S
C1712 H1728 0.931 . S
C1713 C1712 1.391 . S
C1713 C1717 1.376 . S
C1714 C1712 1.394 . S
C1714 C1715 1.369 . S
C1714 C1718 1.531 . S
C1715 C1714 1.369 . S
C1715 C1716 1.410 . S
C1715 C1723 1.503 . S
C1716 C1715 1.410 . S
C1716 C1717 1.392 . S
C1716 C1719 1.511 . S
C1717 C1713 1.376 . S
C1717 C1716 1.392 . S
C1717 H1729 0.929 . S
C1718 C1714 1.531 . S
C1718 H1730 0.960 . S
C1718 H1731 0.962 . S
C1718 H1732 0.960 . S
C1719 C1716 1.511 . S
C1719 H1733 0.961 . S
C1719 H1734 0.961 . S
C1719 H1735 0.961 . S
C1720 C1721 1.370 . S
C1720 C1722 1.363 . S
C1720 H1736 0.931 . S
C1721 C1720 1.370 . S
C1721 C1725 1.408 . S
C1722 C1720 1.363 . S
C1722 C1723 1.370 . S
C1722 C1726 1.524 . S
C1723 C1715 1.503 . S
C1723 C1722 1.370 . S
C1723 C1724 1.403 . S
C1724 C1723 1.403 . S
C1724 C1725 1.404 . S
C1724 C1727 1.539 . S
C1725 C1721 1.408 . S
C1725 C1724 1.404 . S
C1725 H1737 0.930 . S
C1726 C1722 1.524 . S
C1726 H1738 0.956 . S
C1726 H1739 0.961 . S
C1726 H1740 0.961 . S
C1727 C1724 1.539 . S
C1727 H1741 0.958 . S
C1727 H1742 0.961 . S
C1727 H1743 0.960 . S
H1728 C1712 0.931 . S
H1729 C1717 0.929 . S
H1730 C1718 0.960 . S
H1731 C1718 0.962 . S
H1732 C1718 0.960 . S
H1733 C1719 0.961 . S
H1734 C1719 0.961 . S
H1735 C1719 0.961 . S
H1736 C1720 0.931 . S
H1737 C1725 0.930 . S
H1738 C1726 0.956 . S
H1739 C1726 0.961 . S
H1740 C1726 0.961 . S
H1741 C1727 0.958 . S
H1742 C1727 0.961 . S
H1743 C1727 0.960 . S
C1744 C1745 1.391 . S
C1744 C1746 1.394 . S
C1744 H1760 0.931 . S
C1745 C1744 1.391 . S
C1745 C1749 1.376 . S
C1746 C1744 1.394 . S
C1746 C1747 1.369 . S
C1746 C1750 1.531 . S
C1747 C1746 1.369 . S
C1747 C1748 1.410 . S
C1747 C1755 1.503 . S
C1748 C1747 1.410 . S
C1748 C1749 1.392 . S
C1748 C1751 1.511 . S
C1749 C1745 1.376 . S
C1749 C1748 1.392 . S
C1749 H1761 0.929 . S
C1750 C1746 1.531 . S
C1750 H1762 0.960 . S
C1750 H1763 0.962 . S
C1750 H1764 0.960 . S
C1751 C1748 1.511 . S
C1751 H1765 0.961 . S
C1751 H1766 0.961 . S
C1751 H1767 0.961 . S
C1752 C1753 1.370 . S
C1752 C1754 1.363 . S
C1752 H1768 0.931 . S
C1753 C1752 1.370 . S
C1753 C1757 1.408 . S
C1754 C1752 1.363 . S
C1754 C1755 1.370 . S
C1754 C1758 1.524 . S
C1755 C1747 1.503 . S
C1755 C1754 1.370 . S
C1755 C1756 1.403 . S
C1756 C1755 1.403 . S
C1756 C1757 1.404 . S
C1756 C1759 1.539 . S
C1757 C1753 1.408 . S
C1757 C1756 1.404 . S
C1757 H1769 0.930 . S
C1758 C1754 1.524 . S
C1758 H1770 0.956 . S
C1758 H1771 0.961 . S
C1758 H1772 0.961 . S
C1759 C1756 1.539 . S
C1759 H1773 0.958 . S
C1759 H1774 0.961 . S
C1759 H1775 0.960 . S
H1760 C1744 0.931 . S
H1761 C1749 0.929 . S
H1762 C1750 0.960 . S
H1763 C1750 0.962 . S
H1764 C1750 0.960 . S
H1765 C1751 0.961 . S
H1766 C1751 0.961 . S
H1767 C1751 0.961 . S
H1768 C1752 0.931 . S
H1769 C1757 0.930 . S
H1770 C1758 0.956 . S
H1771 C1758 0.961 . S
H1772 C1758 0.961 . S
H1773 C1759 0.958 . S
H1774 C1759 0.961 . S
H1775 C1759 0.960 . S
C1776 C1777 1.391 . S
C1776 C1778 1.394 . S
C1776 H1792 0.931 . S
C1777 C1776 1.391 . S
C1777 C1781 1.376 . S
C1778 C1776 1.394 . S
C1778 C1779 1.369 . S
C1778 C1782 1.531 . S
C1779 C1778 1.369 . S
C1779 C1780 1.410 . S
C1779 C1787 1.503 . S
C1780 C1779 1.410 . S
C1780 C1781 1.392 . S
C1780 C1783 1.511 . S
C1781 C1777 1.376 . S
C1781 C1780 1.392 . S
C1781 H1793 0.929 . S
C1782 C1778 1.531 . S
C1782 H1794 0.960 . S
C1782 H1795 0.962 . S
C1782 H1796 0.960 . S
C1783 C1780 1.511 . S
C1783 H1797 0.961 . S
C1783 H1798 0.961 . S
C1783 H1799 0.961 . S
C1784 C1785 1.370 . S
C1784 C1786 1.363 . S
C1784 H1800 0.931 . S
C1785 C1784 1.370 . S
C1785 C1789 1.408 . S
C1786 C1784 1.363 . S
C1786 C1787 1.370 . S
C1786 C1790 1.524 . S
C1787 C1779 1.503 . S
C1787 C1786 1.370 . S
C1787 C1788 1.403 . S
C1788 C1787 1.403 . S
C1788 C1789 1.404 . S
C1788 C1791 1.539 . S
C1789 C1785 1.408 . S
C1789 C1788 1.404 . S
C1789 H1801 0.930 . S
C1790 C1786 1.524 . S
C1790 H1802 0.956 . S
C1790 H1803 0.961 . S
C1790 H1804 0.961 . S
C1791 C1788 1.539 . S
C1791 H1805 0.958 . S
C1791 H1806 0.961 . S
C1791 H1807 0.960 . S
H1792 C1776 0.931 . S
H1793 C1781 0.929 . S
H1794 C1782 0.960 . S
H1795 C1782 0.962 . S
H1796 C1782 0.960 . S
H1797 C1783 0.961 . S
H1798 C1783 0.961 . S
H1799 C1783 0.961 . S
H1800 C1784 0.931 . S
H1801 C1789 0.930 . S
H1802 C1790 0.956 . S
H1803 C1790 0.961 . S
H1804 C1790 0.961 . S
H1805 C1791 0.958 . S
H1806 C1791 0.961 . S
H1807 C1791 0.960 . S
C529 N14 1.668 . S
C537 N476 1.640 . S
C561 N71 1.593 . S
C569 N5 1.603 . S
C593 N47 1.664 . S
C601 N377 1.643 . S
C625 N236 1.607 . S
C633 N38 1.597 . S
C657 N80 1.665 . S
C665 N410 1.643 . S
C689 N113 1.624 . S
C697 N311 1.659 . S
C721 N104 1.603 . S
C729 N170 1.598 . S
C753 N344 1.668 . S
C761 N146 1.640 . S
C785 N203 1.603 . S
C793 N137 1.598 . S
C817 N179 1.643 . S
C825 N509 1.649 . S
C849 N278 1.663 . S
C857 N212 1.641 . S
C881 N443 1.658 . S
C889 N245 1.646 . S
C913 N269 1.602 . S
C921 N335 1.598 . S
C945 N500 1.608 . S
C953 N302 1.596 . S
C977 N368 1.592 . S
C985 N434 1.604 . S
C1009 N401 1.602 . S
C1017 N467 1.598 . S
C1041 C8 1.234 . S
C1049 C314 1.239 . S
C1073 C305 1.219 . S
C1081 C17 1.222 . S
C1105 C41 1.232 . S
C1113 C281 1.222 . S
C1137 C50 1.210 . S
C1145 C272 1.226 . S
C1169 C380 1.207 . S
C1177 C74 1.232 . S
C1201 C371 1.232 . S
C1209 C83 1.238 . S
C1233 C107 1.232 . S
C1241 C347 1.238 . S
C1265 C116 1.208 . S
C1273 C338 1.230 . S
C1297 C140 1.218 . S
C1305 C446 1.222 . S
C1329 C437 1.228 . S
C1337 C149 1.238 . S
C1361 C173 1.220 . S
C1369 C413 1.222 . S
C1393 C404 1.239 . S
C1401 C182 1.238 . S
C1425 C512 1.214 . S
C1433 C206 1.226 . S
C1457 C215 1.247 . S
C1465 C503 1.233 . S
C1489 C239 1.224 . S
C1497 C479 1.222 . S
C1521 C248 1.207 . S
C1529 C470 1.235 . S
C1553 C61 0.966 . S
C1561 C28 0.970 . S
C1585 C94 0.964 . S
C1593 C127 0.969 . S
C1617 C160 0.974 . S
C1625 C193 0.973 . S
C1649 C226 0.964 . S
C1657 C259 0.969 . S
C1681 C325 0.963 . S
C1689 C292 0.968 . S
C1713 C391 0.963 . S
C1721 C358 0.968 . S
C1745 C424 0.973 . S
C1753 C457 0.973 . S
C1777 C523 0.972 . S
C1785 C490 0.973 . S
