# Generated by pormake.
# Topology gie, (4)-cn, num edge types: 1
# Building blocks:
#     Node 0, Type 0, BuildingBlock: QUQFOY_clean_sbu_1, # of connection points: 4
#     Node 1, Type 0, BuildingBlock: QUQFOY_clean_sbu_1, # of connection points: 4
#     Node 2, Type 0, BuildingBlock: QUQFOY_clean_sbu_1, # of connection points: 4
#     Node 3, Type 0, BuildingBlock: QUQFOY_clean_sbu_1, # of connection points: 4
#     Node 4, Type 0, BuildingBlock: QUQFOY_clean_sbu_1, # of connection points: 4
#     Node 5, Type 0, BuildingBlock: QUQFOY_clean_sbu_1, # of connection points: 4
#     Node 6, Type 0, BuildingBlock: QUQFOY_clean_sbu_1, # of connection points: 4
#     Node 7, Type 0, BuildingBlock: QUQFOY_clean_sbu_1, # of connection points: 4
#     Node 8, Type 0, BuildingBlock: QUQFOY_clean_sbu_1, # of connection points: 4
#     Node 9, Type 0, BuildingBlock: QUQFOY_clean_sbu_1, # of connection points: 4
#     Node 10, Type 0, BuildingBlock: QUQFOY_clean_sbu_1, # of connection points: 4
#     Node 11, Type 0, BuildingBlock: QUQFOY_clean_sbu_1, # of connection points: 4
#     Node 12, Type 0, BuildingBlock: QUQFOY_clean_sbu_1, # of connection points: 4
#     Node 13, Type 0, BuildingBlock: QUQFOY_clean_sbu_1, # of connection points: 4
#     Node 14, Type 0, BuildingBlock: QUQFOY_clean_sbu_1, # of connection points: 4
#     Node 15, Type 0, BuildingBlock: QUQFOY_clean_sbu_1, # of connection points: 4
#     Node 16, Type 0, BuildingBlock: QUQFOY_clean_sbu_1, # of connection points: 4
#     Node 17, Type 0, BuildingBlock: QUQFOY_clean_sbu_1, # of connection points: 4
#     Node 18, Type 0, BuildingBlock: QUQFOY_clean_sbu_1, # of connection points: 4
#     Node 19, Type 0, BuildingBlock: QUQFOY_clean_sbu_1, # of connection points: 4
#     Node 20, Type 0, BuildingBlock: QUQFOY_clean_sbu_1, # of connection points: 4
#     Node 21, Type 0, BuildingBlock: QUQFOY_clean_sbu_1, # of connection points: 4
#     Node 22, Type 0, BuildingBlock: QUQFOY_clean_sbu_1, # of connection points: 4
#     Node 23, Type 0, BuildingBlock: QUQFOY_clean_sbu_1, # of connection points: 4
#     Node 24, Type 0, BuildingBlock: QUQFOY_clean_sbu_1, # of connection points: 4
#     Node 25, Type 0, BuildingBlock: QUQFOY_clean_sbu_1, # of connection points: 4
#     Node 26, Type 0, BuildingBlock: QUQFOY_clean_sbu_1, # of connection points: 4
#     Node 27, Type 0, BuildingBlock: QUQFOY_clean_sbu_1, # of connection points: 4
#     Node 28, Type 0, BuildingBlock: QUQFOY_clean_sbu_1, # of connection points: 4
#     Node 29, Type 0, BuildingBlock: QUQFOY_clean_sbu_1, # of connection points: 4
#     Node 30, Type 0, BuildingBlock: QUQFOY_clean_sbu_1, # of connection points: 4
#     Node 31, Type 0, BuildingBlock: QUQFOY_clean_sbu_1, # of connection points: 4
#     Node 32, Type 0, BuildingBlock: QUQFOY_clean_sbu_1, # of connection points: 4
#     Node 33, Type 0, BuildingBlock: QUQFOY_clean_sbu_1, # of connection points: 4
#     Node 34, Type 0, BuildingBlock: QUQFOY_clean_sbu_1, # of connection points: 4
#     Node 35, Type 0, BuildingBlock: QUQFOY_clean_sbu_1, # of connection points: 4
#     Node 36, Type 0, BuildingBlock: QUQFOY_clean_sbu_1, # of connection points: 4
#     Node 37, Type 0, BuildingBlock: QUQFOY_clean_sbu_1, # of connection points: 4
#     Node 38, Type 0, BuildingBlock: QUQFOY_clean_sbu_1, # of connection points: 4
#     Node 39, Type 0, BuildingBlock: QUQFOY_clean_sbu_1, # of connection points: 4
#     Node 40, Type 0, BuildingBlock: QUQFOY_clean_sbu_1, # of connection points: 4
#     Node 41, Type 0, BuildingBlock: QUQFOY_clean_sbu_1, # of connection points: 4
#     Node 42, Type 0, BuildingBlock: QUQFOY_clean_sbu_1, # of connection points: 4
#     Node 43, Type 0, BuildingBlock: QUQFOY_clean_sbu_1, # of connection points: 4
#     Node 44, Type 0, BuildingBlock: QUQFOY_clean_sbu_1, # of connection points: 4
#     Node 45, Type 0, BuildingBlock: QUQFOY_clean_sbu_1, # of connection points: 4
#     Node 46, Type 0, BuildingBlock: QUQFOY_clean_sbu_1, # of connection points: 4
#     Node 47, Type 0, BuildingBlock: QUQFOY_clean_sbu_1, # of connection points: 4
#     Node 48, Type 0, BuildingBlock: QUQFOY_clean_sbu_1, # of connection points: 4
#     Node 49, Type 0, BuildingBlock: QUQFOY_clean_sbu_1, # of connection points: 4
#     Node 50, Type 0, BuildingBlock: QUQFOY_clean_sbu_1, # of connection points: 4
#     Node 51, Type 0, BuildingBlock: QUQFOY_clean_sbu_1, # of connection points: 4
#     Node 52, Type 0, BuildingBlock: QUQFOY_clean_sbu_1, # of connection points: 4
#     Node 53, Type 0, BuildingBlock: QUQFOY_clean_sbu_1, # of connection points: 4
#     Node 54, Type 0, BuildingBlock: QUQFOY_clean_sbu_1, # of connection points: 4
#     Node 55, Type 0, BuildingBlock: QUQFOY_clean_sbu_1, # of connection points: 4
#     Node 56, Type 0, BuildingBlock: QUQFOY_clean_sbu_1, # of connection points: 4
#     Node 57, Type 0, BuildingBlock: QUQFOY_clean_sbu_1, # of connection points: 4
#     Node 58, Type 0, BuildingBlock: QUQFOY_clean_sbu_1, # of connection points: 4
#     Node 59, Type 0, BuildingBlock: QUQFOY_clean_sbu_1, # of connection points: 4
#     Node 60, Type 0, BuildingBlock: QUQFOY_clean_sbu_1, # of connection points: 4
#     Node 61, Type 0, BuildingBlock: QUQFOY_clean_sbu_1, # of connection points: 4
#     Node 62, Type 0, BuildingBlock: QUQFOY_clean_sbu_1, # of connection points: 4
#     Node 63, Type 0, BuildingBlock: QUQFOY_clean_sbu_1, # of connection points: 4
#     Node 64, Type 0, BuildingBlock: QUQFOY_clean_sbu_1, # of connection points: 4
#     Node 65, Type 0, BuildingBlock: QUQFOY_clean_sbu_1, # of connection points: 4
#     Node 66, Type 0, BuildingBlock: QUQFOY_clean_sbu_1, # of connection points: 4
#     Node 67, Type 0, BuildingBlock: QUQFOY_clean_sbu_1, # of connection points: 4
#     Node 68, Type 0, BuildingBlock: QUQFOY_clean_sbu_1, # of connection points: 4
#     Node 69, Type 0, BuildingBlock: QUQFOY_clean_sbu_1, # of connection points: 4
#     Node 70, Type 0, BuildingBlock: QUQFOY_clean_sbu_1, # of connection points: 4
#     Node 71, Type 0, BuildingBlock: QUQFOY_clean_sbu_1, # of connection points: 4
#     Node 72, Type 0, BuildingBlock: QUQFOY_clean_sbu_1, # of connection points: 4
#     Node 73, Type 0, BuildingBlock: QUQFOY_clean_sbu_1, # of connection points: 4
#     Node 74, Type 0, BuildingBlock: QUQFOY_clean_sbu_1, # of connection points: 4
#     Node 75, Type 0, BuildingBlock: QUQFOY_clean_sbu_1, # of connection points: 4
#     Node 76, Type 0, BuildingBlock: QUQFOY_clean_sbu_1, # of connection points: 4
#     Node 77, Type 0, BuildingBlock: QUQFOY_clean_sbu_1, # of connection points: 4
#     Node 78, Type 0, BuildingBlock: QUQFOY_clean_sbu_1, # of connection points: 4
#     Node 79, Type 0, BuildingBlock: QUQFOY_clean_sbu_1, # of connection points: 4
#     Node 80, Type 0, BuildingBlock: QUQFOY_clean_sbu_1, # of connection points: 4
#     Node 81, Type 0, BuildingBlock: QUQFOY_clean_sbu_1, # of connection points: 4
#     Node 82, Type 0, BuildingBlock: QUQFOY_clean_sbu_1, # of connection points: 4
#     Node 83, Type 0, BuildingBlock: QUQFOY_clean_sbu_1, # of connection points: 4
#     Node 84, Type 0, BuildingBlock: QUQFOY_clean_sbu_1, # of connection points: 4
#     Node 85, Type 0, BuildingBlock: QUQFOY_clean_sbu_1, # of connection points: 4
#     Node 86, Type 0, BuildingBlock: QUQFOY_clean_sbu_1, # of connection points: 4
#     Node 87, Type 0, BuildingBlock: QUQFOY_clean_sbu_1, # of connection points: 4
#     Node 88, Type 0, BuildingBlock: QUQFOY_clean_sbu_1, # of connection points: 4
#     Node 89, Type 0, BuildingBlock: QUQFOY_clean_sbu_1, # of connection points: 4
#     Node 90, Type 0, BuildingBlock: QUQFOY_clean_sbu_1, # of connection points: 4
#     Node 91, Type 0, BuildingBlock: QUQFOY_clean_sbu_1, # of connection points: 4
#     Node 92, Type 0, BuildingBlock: QUQFOY_clean_sbu_1, # of connection points: 4
#     Node 93, Type 0, BuildingBlock: QUQFOY_clean_sbu_1, # of connection points: 4
#     Node 94, Type 0, BuildingBlock: QUQFOY_clean_sbu_1, # of connection points: 4
#     Node 95, Type 0, BuildingBlock: QUQFOY_clean_sbu_1, # of connection points: 4
#     Edge 96, Type (0, 0), BuildingBlock: OJICUG_clean_linker_0, # of connection points: 2
#     Edge 97, Type (0, 0), BuildingBlock: OJICUG_clean_linker_0, # of connection points: 2
#     Edge 98, Type (0, 0), BuildingBlock: OJICUG_clean_linker_0, # of connection points: 2
#     Edge 99, Type (0, 0), BuildingBlock: OJICUG_clean_linker_0, # of connection points: 2
#     Edge 100, Type (0, 0), BuildingBlock: OJICUG_clean_linker_0, # of connection points: 2
#     Edge 101, Type (0, 0), BuildingBlock: OJICUG_clean_linker_0, # of connection points: 2
#     Edge 102, Type (0, 0), BuildingBlock: OJICUG_clean_linker_0, # of connection points: 2
#     Edge 103, Type (0, 0), BuildingBlock: OJICUG_clean_linker_0, # of connection points: 2
#     Edge 104, Type (0, 0), BuildingBlock: OJICUG_clean_linker_0, # of connection points: 2
#     Edge 105, Type (0, 0), BuildingBlock: OJICUG_clean_linker_0, # of connection points: 2
#     Edge 106, Type (0, 0), BuildingBlock: OJICUG_clean_linker_0, # of connection points: 2
#     Edge 107, Type (0, 0), BuildingBlock: OJICUG_clean_linker_0, # of connection points: 2
#     Edge 108, Type (0, 0), BuildingBlock: OJICUG_clean_linker_0, # of connection points: 2
#     Edge 109, Type (0, 0), BuildingBlock: OJICUG_clean_linker_0, # of connection points: 2
#     Edge 110, Type (0, 0), BuildingBlock: OJICUG_clean_linker_0, # of connection points: 2
#     Edge 111, Type (0, 0), BuildingBlock: OJICUG_clean_linker_0, # of connection points: 2
#     Edge 112, Type (0, 0), BuildingBlock: OJICUG_clean_linker_0, # of connection points: 2
#     Edge 113, Type (0, 0), BuildingBlock: OJICUG_clean_linker_0, # of connection points: 2
#     Edge 114, Type (0, 0), BuildingBlock: OJICUG_clean_linker_0, # of connection points: 2
#     Edge 115, Type (0, 0), BuildingBlock: OJICUG_clean_linker_0, # of connection points: 2
#     Edge 116, Type (0, 0), BuildingBlock: OJICUG_clean_linker_0, # of connection points: 2
#     Edge 117, Type (0, 0), BuildingBlock: OJICUG_clean_linker_0, # of connection points: 2
#     Edge 118, Type (0, 0), BuildingBlock: OJICUG_clean_linker_0, # of connection points: 2
#     Edge 119, Type (0, 0), BuildingBlock: OJICUG_clean_linker_0, # of connection points: 2
#     Edge 120, Type (0, 0), BuildingBlock: OJICUG_clean_linker_0, # of connection points: 2
#     Edge 121, Type (0, 0), BuildingBlock: OJICUG_clean_linker_0, # of connection points: 2
#     Edge 122, Type (0, 0), BuildingBlock: OJICUG_clean_linker_0, # of connection points: 2
#     Edge 123, Type (0, 0), BuildingBlock: OJICUG_clean_linker_0, # of connection points: 2
#     Edge 124, Type (0, 0), BuildingBlock: OJICUG_clean_linker_0, # of connection points: 2
#     Edge 125, Type (0, 0), BuildingBlock: OJICUG_clean_linker_0, # of connection points: 2
#     Edge 126, Type (0, 0), BuildingBlock: OJICUG_clean_linker_0, # of connection points: 2
#     Edge 127, Type (0, 0), BuildingBlock: OJICUG_clean_linker_0, # of connection points: 2
#     Edge 128, Type (0, 0), BuildingBlock: OJICUG_clean_linker_0, # of connection points: 2
#     Edge 129, Type (0, 0), BuildingBlock: OJICUG_clean_linker_0, # of connection points: 2
#     Edge 130, Type (0, 0), BuildingBlock: OJICUG_clean_linker_0, # of connection points: 2
#     Edge 131, Type (0, 0), BuildingBlock: OJICUG_clean_linker_0, # of connection points: 2
#     Edge 132, Type (0, 0), BuildingBlock: OJICUG_clean_linker_0, # of connection points: 2
#     Edge 133, Type (0, 0), BuildingBlock: OJICUG_clean_linker_0, # of connection points: 2
#     Edge 134, Type (0, 0), BuildingBlock: OJICUG_clean_linker_0, # of connection points: 2
#     Edge 135, Type (0, 0), BuildingBlock: OJICUG_clean_linker_0, # of connection points: 2
#     Edge 136, Type (0, 0), BuildingBlock: OJICUG_clean_linker_0, # of connection points: 2
#     Edge 137, Type (0, 0), BuildingBlock: OJICUG_clean_linker_0, # of connection points: 2
#     Edge 138, Type (0, 0), BuildingBlock: OJICUG_clean_linker_0, # of connection points: 2
#     Edge 139, Type (0, 0), BuildingBlock: OJICUG_clean_linker_0, # of connection points: 2
#     Edge 140, Type (0, 0), BuildingBlock: OJICUG_clean_linker_0, # of connection points: 2
#     Edge 141, Type (0, 0), BuildingBlock: OJICUG_clean_linker_0, # of connection points: 2
#     Edge 142, Type (0, 0), BuildingBlock: OJICUG_clean_linker_0, # of connection points: 2
#     Edge 143, Type (0, 0), BuildingBlock: OJICUG_clean_linker_0, # of connection points: 2
#     Edge 144, Type (0, 0), BuildingBlock: OJICUG_clean_linker_0, # of connection points: 2
#     Edge 145, Type (0, 0), BuildingBlock: OJICUG_clean_linker_0, # of connection points: 2
#     Edge 146, Type (0, 0), BuildingBlock: OJICUG_clean_linker_0, # of connection points: 2
#     Edge 147, Type (0, 0), BuildingBlock: OJICUG_clean_linker_0, # of connection points: 2
#     Edge 148, Type (0, 0), BuildingBlock: OJICUG_clean_linker_0, # of connection points: 2
#     Edge 149, Type (0, 0), BuildingBlock: OJICUG_clean_linker_0, # of connection points: 2
#     Edge 150, Type (0, 0), BuildingBlock: OJICUG_clean_linker_0, # of connection points: 2
#     Edge 151, Type (0, 0), BuildingBlock: OJICUG_clean_linker_0, # of connection points: 2
#     Edge 152, Type (0, 0), BuildingBlock: OJICUG_clean_linker_0, # of connection points: 2
#     Edge 153, Type (0, 0), BuildingBlock: OJICUG_clean_linker_0, # of connection points: 2
#     Edge 154, Type (0, 0), BuildingBlock: OJICUG_clean_linker_0, # of connection points: 2
#     Edge 155, Type (0, 0), BuildingBlock: OJICUG_clean_linker_0, # of connection points: 2
#     Edge 156, Type (0, 0), BuildingBlock: OJICUG_clean_linker_0, # of connection points: 2
#     Edge 157, Type (0, 0), BuildingBlock: OJICUG_clean_linker_0, # of connection points: 2
#     Edge 158, Type (0, 0), BuildingBlock: OJICUG_clean_linker_0, # of connection points: 2
#     Edge 159, Type (0, 0), BuildingBlock: OJICUG_clean_linker_0, # of connection points: 2
#     Edge 160, Type (0, 0), BuildingBlock: OJICUG_clean_linker_0, # of connection points: 2
#     Edge 161, Type (0, 0), BuildingBlock: OJICUG_clean_linker_0, # of connection points: 2
#     Edge 162, Type (0, 0), BuildingBlock: OJICUG_clean_linker_0, # of connection points: 2
#     Edge 163, Type (0, 0), BuildingBlock: OJICUG_clean_linker_0, # of connection points: 2
#     Edge 164, Type (0, 0), BuildingBlock: OJICUG_clean_linker_0, # of connection points: 2
#     Edge 165, Type (0, 0), BuildingBlock: OJICUG_clean_linker_0, # of connection points: 2
#     Edge 166, Type (0, 0), BuildingBlock: OJICUG_clean_linker_0, # of connection points: 2
#     Edge 167, Type (0, 0), BuildingBlock: OJICUG_clean_linker_0, # of connection points: 2
#     Edge 168, Type (0, 0), BuildingBlock: OJICUG_clean_linker_0, # of connection points: 2
#     Edge 169, Type (0, 0), BuildingBlock: OJICUG_clean_linker_0, # of connection points: 2
#     Edge 170, Type (0, 0), BuildingBlock: OJICUG_clean_linker_0, # of connection points: 2
#     Edge 171, Type (0, 0), BuildingBlock: OJICUG_clean_linker_0, # of connection points: 2
#     Edge 172, Type (0, 0), BuildingBlock: OJICUG_clean_linker_0, # of connection points: 2
#     Edge 173, Type (0, 0), BuildingBlock: OJICUG_clean_linker_0, # of connection points: 2
#     Edge 174, Type (0, 0), BuildingBlock: OJICUG_clean_linker_0, # of connection points: 2
#     Edge 175, Type (0, 0), BuildingBlock: OJICUG_clean_linker_0, # of connection points: 2
#     Edge 176, Type (0, 0), BuildingBlock: OJICUG_clean_linker_0, # of connection points: 2
#     Edge 177, Type (0, 0), BuildingBlock: OJICUG_clean_linker_0, # of connection points: 2
#     Edge 178, Type (0, 0), BuildingBlock: OJICUG_clean_linker_0, # of connection points: 2
#     Edge 179, Type (0, 0), BuildingBlock: OJICUG_clean_linker_0, # of connection points: 2
#     Edge 180, Type (0, 0), BuildingBlock: OJICUG_clean_linker_0, # of connection points: 2
#     Edge 181, Type (0, 0), BuildingBlock: OJICUG_clean_linker_0, # of connection points: 2
#     Edge 182, Type (0, 0), BuildingBlock: OJICUG_clean_linker_0, # of connection points: 2
#     Edge 183, Type (0, 0), BuildingBlock: OJICUG_clean_linker_0, # of connection points: 2
#     Edge 184, Type (0, 0), BuildingBlock: OJICUG_clean_linker_0, # of connection points: 2
#     Edge 185, Type (0, 0), BuildingBlock: OJICUG_clean_linker_0, # of connection points: 2
#     Edge 186, Type (0, 0), BuildingBlock: OJICUG_clean_linker_0, # of connection points: 2
#     Edge 187, Type (0, 0), BuildingBlock: OJICUG_clean_linker_0, # of connection points: 2
#     Edge 188, Type (0, 0), BuildingBlock: OJICUG_clean_linker_0, # of connection points: 2
#     Edge 189, Type (0, 0), BuildingBlock: OJICUG_clean_linker_0, # of connection points: 2
#     Edge 190, Type (0, 0), BuildingBlock: OJICUG_clean_linker_0, # of connection points: 2
#     Edge 191, Type (0, 0), BuildingBlock: OJICUG_clean_linker_0, # of connection points: 2
#     Edge 192, Type (0, 0), BuildingBlock: OJICUG_clean_linker_0, # of connection points: 2
#     Edge 193, Type (0, 0), BuildingBlock: OJICUG_clean_linker_0, # of connection points: 2
#     Edge 194, Type (0, 0), BuildingBlock: OJICUG_clean_linker_0, # of connection points: 2
#     Edge 195, Type (0, 0), BuildingBlock: OJICUG_clean_linker_0, # of connection points: 2
#     Edge 196, Type (0, 0), BuildingBlock: OJICUG_clean_linker_0, # of connection points: 2
#     Edge 197, Type (0, 0), BuildingBlock: OJICUG_clean_linker_0, # of connection points: 2
#     Edge 198, Type (0, 0), BuildingBlock: OJICUG_clean_linker_0, # of connection points: 2
#     Edge 199, Type (0, 0), BuildingBlock: OJICUG_clean_linker_0, # of connection points: 2
#     Edge 200, Type (0, 0), BuildingBlock: OJICUG_clean_linker_0, # of connection points: 2
#     Edge 201, Type (0, 0), BuildingBlock: OJICUG_clean_linker_0, # of connection points: 2
#     Edge 202, Type (0, 0), BuildingBlock: OJICUG_clean_linker_0, # of connection points: 2
#     Edge 203, Type (0, 0), BuildingBlock: OJICUG_clean_linker_0, # of connection points: 2
#     Edge 204, Type (0, 0), BuildingBlock: OJICUG_clean_linker_0, # of connection points: 2
#     Edge 205, Type (0, 0), BuildingBlock: OJICUG_clean_linker_0, # of connection points: 2
#     Edge 206, Type (0, 0), BuildingBlock: OJICUG_clean_linker_0, # of connection points: 2
#     Edge 207, Type (0, 0), BuildingBlock: OJICUG_clean_linker_0, # of connection points: 2
#     Edge 208, Type (0, 0), BuildingBlock: OJICUG_clean_linker_0, # of connection points: 2
#     Edge 209, Type (0, 0), BuildingBlock: OJICUG_clean_linker_0, # of connection points: 2
#     Edge 210, Type (0, 0), BuildingBlock: OJICUG_clean_linker_0, # of connection points: 2
#     Edge 211, Type (0, 0), BuildingBlock: OJICUG_clean_linker_0, # of connection points: 2
#     Edge 212, Type (0, 0), BuildingBlock: OJICUG_clean_linker_0, # of connection points: 2
#     Edge 213, Type (0, 0), BuildingBlock: OJICUG_clean_linker_0, # of connection points: 2
#     Edge 214, Type (0, 0), BuildingBlock: OJICUG_clean_linker_0, # of connection points: 2
#     Edge 215, Type (0, 0), BuildingBlock: OJICUG_clean_linker_0, # of connection points: 2
#     Edge 216, Type (0, 0), BuildingBlock: OJICUG_clean_linker_0, # of connection points: 2
#     Edge 217, Type (0, 0), BuildingBlock: OJICUG_clean_linker_0, # of connection points: 2
#     Edge 218, Type (0, 0), BuildingBlock: OJICUG_clean_linker_0, # of connection points: 2
#     Edge 219, Type (0, 0), BuildingBlock: OJICUG_clean_linker_0, # of connection points: 2
#     Edge 220, Type (0, 0), BuildingBlock: OJICUG_clean_linker_0, # of connection points: 2
#     Edge 221, Type (0, 0), BuildingBlock: OJICUG_clean_linker_0, # of connection points: 2
#     Edge 222, Type (0, 0), BuildingBlock: OJICUG_clean_linker_0, # of connection points: 2
#     Edge 223, Type (0, 0), BuildingBlock: OJICUG_clean_linker_0, # of connection points: 2
#     Edge 224, Type (0, 0), BuildingBlock: OJICUG_clean_linker_0, # of connection points: 2
#     Edge 225, Type (0, 0), BuildingBlock: OJICUG_clean_linker_0, # of connection points: 2
#     Edge 226, Type (0, 0), BuildingBlock: OJICUG_clean_linker_0, # of connection points: 2
#     Edge 227, Type (0, 0), BuildingBlock: OJICUG_clean_linker_0, # of connection points: 2
#     Edge 228, Type (0, 0), BuildingBlock: OJICUG_clean_linker_0, # of connection points: 2
#     Edge 229, Type (0, 0), BuildingBlock: OJICUG_clean_linker_0, # of connection points: 2
#     Edge 230, Type (0, 0), BuildingBlock: OJICUG_clean_linker_0, # of connection points: 2
#     Edge 231, Type (0, 0), BuildingBlock: OJICUG_clean_linker_0, # of connection points: 2
#     Edge 232, Type (0, 0), BuildingBlock: OJICUG_clean_linker_0, # of connection points: 2
#     Edge 233, Type (0, 0), BuildingBlock: OJICUG_clean_linker_0, # of connection points: 2
#     Edge 234, Type (0, 0), BuildingBlock: OJICUG_clean_linker_0, # of connection points: 2
#     Edge 235, Type (0, 0), BuildingBlock: OJICUG_clean_linker_0, # of connection points: 2
#     Edge 236, Type (0, 0), BuildingBlock: OJICUG_clean_linker_0, # of connection points: 2
#     Edge 237, Type (0, 0), BuildingBlock: OJICUG_clean_linker_0, # of connection points: 2
#     Edge 238, Type (0, 0), BuildingBlock: OJICUG_clean_linker_0, # of connection points: 2
#     Edge 239, Type (0, 0), BuildingBlock: OJICUG_clean_linker_0, # of connection points: 2
#     Edge 240, Type (0, 0), BuildingBlock: OJICUG_clean_linker_0, # of connection points: 2
#     Edge 241, Type (0, 0), BuildingBlock: OJICUG_clean_linker_0, # of connection points: 2
#     Edge 242, Type (0, 0), BuildingBlock: OJICUG_clean_linker_0, # of connection points: 2
#     Edge 243, Type (0, 0), BuildingBlock: OJICUG_clean_linker_0, # of connection points: 2
#     Edge 244, Type (0, 0), BuildingBlock: OJICUG_clean_linker_0, # of connection points: 2
#     Edge 245, Type (0, 0), BuildingBlock: OJICUG_clean_linker_0, # of connection points: 2
#     Edge 246, Type (0, 0), BuildingBlock: OJICUG_clean_linker_0, # of connection points: 2
#     Edge 247, Type (0, 0), BuildingBlock: OJICUG_clean_linker_0, # of connection points: 2
#     Edge 248, Type (0, 0), BuildingBlock: OJICUG_clean_linker_0, # of connection points: 2
#     Edge 249, Type (0, 0), BuildingBlock: OJICUG_clean_linker_0, # of connection points: 2
#     Edge 250, Type (0, 0), BuildingBlock: OJICUG_clean_linker_0, # of connection points: 2
#     Edge 251, Type (0, 0), BuildingBlock: OJICUG_clean_linker_0, # of connection points: 2
#     Edge 252, Type (0, 0), BuildingBlock: OJICUG_clean_linker_0, # of connection points: 2
#     Edge 253, Type (0, 0), BuildingBlock: OJICUG_clean_linker_0, # of connection points: 2
#     Edge 254, Type (0, 0), BuildingBlock: OJICUG_clean_linker_0, # of connection points: 2
#     Edge 255, Type (0, 0), BuildingBlock: OJICUG_clean_linker_0, # of connection points: 2
#     Edge 256, Type (0, 0), BuildingBlock: OJICUG_clean_linker_0, # of connection points: 2
#     Edge 257, Type (0, 0), BuildingBlock: OJICUG_clean_linker_0, # of connection points: 2
#     Edge 258, Type (0, 0), BuildingBlock: OJICUG_clean_linker_0, # of connection points: 2
#     Edge 259, Type (0, 0), BuildingBlock: OJICUG_clean_linker_0, # of connection points: 2
#     Edge 260, Type (0, 0), BuildingBlock: OJICUG_clean_linker_0, # of connection points: 2
#     Edge 261, Type (0, 0), BuildingBlock: OJICUG_clean_linker_0, # of connection points: 2
#     Edge 262, Type (0, 0), BuildingBlock: OJICUG_clean_linker_0, # of connection points: 2
#     Edge 263, Type (0, 0), BuildingBlock: OJICUG_clean_linker_0, # of connection points: 2
#     Edge 264, Type (0, 0), BuildingBlock: OJICUG_clean_linker_0, # of connection points: 2
#     Edge 265, Type (0, 0), BuildingBlock: OJICUG_clean_linker_0, # of connection points: 2
#     Edge 266, Type (0, 0), BuildingBlock: OJICUG_clean_linker_0, # of connection points: 2
#     Edge 267, Type (0, 0), BuildingBlock: OJICUG_clean_linker_0, # of connection points: 2
#     Edge 268, Type (0, 0), BuildingBlock: OJICUG_clean_linker_0, # of connection points: 2
#     Edge 269, Type (0, 0), BuildingBlock: OJICUG_clean_linker_0, # of connection points: 2
#     Edge 270, Type (0, 0), BuildingBlock: OJICUG_clean_linker_0, # of connection points: 2
#     Edge 271, Type (0, 0), BuildingBlock: OJICUG_clean_linker_0, # of connection points: 2
#     Edge 272, Type (0, 0), BuildingBlock: OJICUG_clean_linker_0, # of connection points: 2
#     Edge 273, Type (0, 0), BuildingBlock: OJICUG_clean_linker_0, # of connection points: 2
#     Edge 274, Type (0, 0), BuildingBlock: OJICUG_clean_linker_0, # of connection points: 2
#     Edge 275, Type (0, 0), BuildingBlock: OJICUG_clean_linker_0, # of connection points: 2
#     Edge 276, Type (0, 0), BuildingBlock: OJICUG_clean_linker_0, # of connection points: 2
#     Edge 277, Type (0, 0), BuildingBlock: OJICUG_clean_linker_0, # of connection points: 2
#     Edge 278, Type (0, 0), BuildingBlock: OJICUG_clean_linker_0, # of connection points: 2
#     Edge 279, Type (0, 0), BuildingBlock: OJICUG_clean_linker_0, # of connection points: 2
#     Edge 280, Type (0, 0), BuildingBlock: OJICUG_clean_linker_0, # of connection points: 2
#     Edge 281, Type (0, 0), BuildingBlock: OJICUG_clean_linker_0, # of connection points: 2
#     Edge 282, Type (0, 0), BuildingBlock: OJICUG_clean_linker_0, # of connection points: 2
#     Edge 283, Type (0, 0), BuildingBlock: OJICUG_clean_linker_0, # of connection points: 2
#     Edge 284, Type (0, 0), BuildingBlock: OJICUG_clean_linker_0, # of connection points: 2
#     Edge 285, Type (0, 0), BuildingBlock: OJICUG_clean_linker_0, # of connection points: 2
#     Edge 286, Type (0, 0), BuildingBlock: OJICUG_clean_linker_0, # of connection points: 2
#     Edge 287, Type (0, 0), BuildingBlock: OJICUG_clean_linker_0, # of connection points: 2
# Relax obj value: 0.030
# Max RMSD: 0.135
# Mean RMSD: 0.135
data_MOF--net-gie--node1-QUQFOY_clean_sbu_1--edge1-OJICUG_clean_linker_0
_symmetry_space_group_name_H-M    P1
_symmetry_Int_Tables_number       1
_symmetry_cell_setting            triclinic
loop_
_symmetry_equiv_pos_as_xyz
'x, y, z'
_cell_length_a     66.135417
_cell_length_b     66.132821
_cell_length_c     66.131503
_cell_angle_alpha  89.999049
_cell_angle_beta   90.000092
_cell_angle_gamma 89.996751
loop_
_atom_site_label
_atom_site_type_symbol
_atom_site_fract_x
_atom_site_fract_y
_atom_site_fract_z
_atom_type_partial_charge
O0 O 0.04204 0.17489 0.40903 0.0
Cd1 Cd 0.02099 0.16126 0.42746 0.0
Cd2 Cd 0.01482 0.14104 0.39191 0.0
O3 O 0.04122 0.15525 0.38205 0.0
O4 O 0.03093 0.16952 0.45483 0.0
O5 O 0.03162 0.1379 0.44417 0.0
C6 C 0.03673 0.15112 0.45764 0.0
C7 C 1.007 0.10664 0.38761 0.0
C8 C 0.04889 0.16998 0.39177 0.0
C9 C 0.98186 0.16949 0.40688 0.0
O10 O 0.98957 0.15924 0.39254 0.0
O11 O 0.9911 0.17098 0.42375 0.0
O12 O 1.00799 0.11887 0.37245 0.0
O13 O 1.01184 0.11361 0.40522 0.0
O14 O 0.09923 0.79218 0.65899 0.0
Cd15 Cd 0.11288 0.77108 0.67735 0.0
Cd16 Cd 0.13306 0.76501 0.64178 0.0
O17 O 0.11889 0.79146 0.63201 0.0
O18 O 0.10463 0.78095 0.70475 0.0
O19 O 0.13624 0.78167 0.69406 0.0
C20 C 0.12303 0.78676 0.70755 0.0
C21 C 0.16744 0.75712 0.63749 0.0
C22 C 0.10414 0.79909 0.64176 0.0
C23 C 0.1046 0.73203 0.65665 0.0
O24 O 0.11482 0.7398 0.64232 0.0
O25 O 0.10316 0.7412 0.67357 0.0
O26 O 0.15522 0.7582 0.62232 0.0
O27 O 0.16047 0.76193 0.65511 0.0
O28 O 0.48172 0.84895 0.90938 0.0
Cd29 Cd 0.50277 0.86263 0.92776 0.0
Cd30 Cd 0.50889 0.88281 0.89219 0.0
O31 O 0.48248 0.86859 0.88238 0.0
O32 O 0.49287 0.85441 0.95515 0.0
O33 O 0.49215 0.88602 0.94442 0.0
C34 C 0.48706 0.87282 0.95793 0.0
C35 C 0.51671 0.91721 0.88788 0.0
C36 C 0.47484 0.85384 0.89212 0.0
C37 C 0.54187 0.85439 0.90714 0.0
O38 O 0.53413 0.86461 0.8928 0.0
O39 O 0.53266 0.85293 0.92403 0.0
O40 O 0.51569 0.90497 0.87273 0.0
O41 O 0.51189 0.91024 0.9055 0.0
O42 O 0.4246 0.2316 0.1588 0.0
Cd43 Cd 0.41093 0.25271 0.17713 0.0
Cd44 Cd 0.39077 0.25872 0.14155 0.0
O45 O 0.40496 0.23227 0.13181 0.0
O46 O 0.41918 0.2429 0.20454 0.0
O47 O 0.38757 0.24213 0.19385 0.0
C48 C 0.40078 0.23709 0.20735 0.0
C49 C 0.35637 0.26655 0.13731 0.0
C50 C 0.4197 0.22466 0.14157 0.0
C51 C 0.41918 0.29174 0.15638 0.0
O52 O 0.40898 0.28395 0.14205 0.0
O53 O 0.42062 0.2826 0.17331 0.0
O54 O 0.36856 0.26548 0.12212 0.0
O55 O 0.36338 0.26178 0.15493 0.0
O56 O 0.04197 0.84885 0.11463 0.0
Cd57 Cd 0.0209 0.86252 0.09625 0.0
Cd58 Cd 0.01478 0.8827 0.13183 0.0
O59 O 0.04119 0.86847 0.14164 0.0
O60 O 0.0308 0.85431 0.06886 0.0
O61 O 0.0315 0.88591 0.07958 0.0
C62 C 0.0366 0.87272 0.06607 0.0
C63 C 1.00696 0.91709 0.13618 0.0
C64 C 0.04884 0.85374 0.13189 0.0
C65 C 0.9818 0.85427 0.11688 0.0
O66 O 0.98954 0.8645 0.13122 0.0
O67 O 0.99101 0.85281 0.09999 0.0
O68 O 1.00798 0.90484 0.15132 0.0
O69 O 1.01178 0.91014 0.11855 0.0
O70 O 0.42483 0.7923 0.36492 0.0
Cd71 Cd 0.41112 0.7712 0.34661 0.0
Cd72 Cd 0.39101 0.76518 0.38218 0.0
O73 O 0.40522 0.79162 0.39194 0.0
O74 O 0.41928 0.78104 0.31918 0.0
O75 O 0.3877 0.78178 0.32997 0.0
C76 C 0.40086 0.78684 0.31642 0.0
C77 C 0.35662 0.75733 0.3864 0.0
C78 C 0.41996 0.79923 0.38216 0.0
C79 C 0.41942 0.73217 0.36732 0.0
O80 O 0.40923 0.73996 0.38166 0.0
O81 O 0.42083 0.74132 0.35039 0.0
O82 O 0.3688 0.7584 0.4016 0.0
O83 O 0.36363 0.76213 0.36879 0.0
O84 O 0.48174 0.175 0.61491 0.0
Cd85 Cd 0.50282 0.16139 0.5965 0.0
Cd86 Cd 0.50896 0.14116 0.63208 0.0
O87 O 0.48254 0.15535 0.6419 0.0
O88 O 0.49292 0.1697 0.56913 0.0
O89 O 0.49223 0.13806 0.57974 0.0
C90 C 0.48714 0.15129 0.56628 0.0
C91 C 0.51682 0.10677 0.63642 0.0
C92 C 0.47487 0.17008 0.63217 0.0
C93 C 0.54192 0.16963 0.61715 0.0
O94 O 0.53419 0.15938 0.63148 0.0
O95 O 0.5327 0.17112 0.60027 0.0
O96 O 0.51579 0.11902 0.65157 0.0
O97 O 0.512 0.11372 0.61879 0.0
O98 O 0.09897 0.23167 0.86493 0.0
Cd99 Cd 0.11262 0.25275 0.84654 0.0
Cd100 Cd 0.1328 0.25888 0.88209 0.0
O101 O 0.1186 0.23247 0.89193 0.0
O102 O 0.10439 0.24286 0.81915 0.0
O103 O 0.13601 0.24218 0.82985 0.0
C104 C 0.12281 0.23709 0.81635 0.0
C105 C 0.16719 0.26673 0.8863 0.0
C106 C 0.10387 0.22481 0.88219 0.0
C107 C 0.10434 0.29184 0.86718 0.0
O108 O 0.11458 0.2841 0.88152 0.0
O109 O 0.10288 0.28263 0.85029 0.0
O110 O 0.155 0.2657 0.90149 0.0
O111 O 0.16018 0.2619 0.8687 0.0
O112 O 0.39217 0.98961 0.15916 0.0
Cd113 Cd 0.39165 0.01484 0.14094 0.0
Cd114 Cd 0.42719 0.0209 0.16114 0.0
O115 O 0.4234 0.99102 0.17086 0.0
O116 O 0.37223 1.00806 0.11874 0.0
O117 O 0.40502 1.01179 0.11355 0.0
C118 C 0.38741 1.007 0.10654 0.0
C119 C 0.45741 0.03654 0.15099 0.0
C120 C 0.40649 0.98185 0.1694 0.0
C121 C 0.3916 0.04891 0.16986 0.0
O122 O 0.40883 0.04201 0.17478 0.0
O123 O 0.38186 0.04128 0.15512 0.0
O124 O 0.45459 0.03075 0.1694 0.0
O125 O 0.44392 0.03147 0.13777 0.0
O126 O 0.2318 0.15922 0.42476 0.0
Cd127 Cd 0.25284 0.17761 0.41107 0.0
Cd128 Cd 0.25899 0.14202 0.39092 0.0
O129 O 0.23258 0.13221 0.40515 0.0
O130 O 0.24292 0.205 0.41927 0.0
O131 O 0.24221 0.19426 0.38767 0.0
C132 C 0.23711 0.20777 0.40086 0.0
C133 C 0.26682 0.13768 0.35653 0.0
C134 C 0.22493 0.14196 0.41988 0.0
C135 C 0.29196 0.15702 0.41932 0.0
O136 O 0.28423 0.14266 0.40912 0.0
O137 O 0.28274 0.1739 0.42077 0.0
O138 O 0.26581 0.12253 0.36878 0.0
O139 O 0.26198 0.1553 0.36347 0.0
O140 O 0.13165 0.03426 0.65913 0.0
Cd141 Cd 0.13223 1.00904 0.64091 0.0
Cd142 Cd 0.09666 1.00292 0.66111 0.0
O143 O 0.10042 0.03281 0.67083 0.0
O144 O 0.15167 0.01586 0.61873 0.0
O145 O 0.11888 0.01208 0.6135 0.0
C146 C 0.13649 0.01691 0.60651 0.0
C147 C 0.06645 0.98724 0.65101 0.0
C148 C 0.11731 0.04201 0.66936 0.0
C149 C 0.1323 0.97496 0.66983 0.0
O150 O 0.11506 0.98184 0.67474 0.0
O151 O 0.14204 0.98261 0.65509 0.0
O152 O 0.06929 0.99304 0.66941 0.0
O153 O 0.07992 0.99232 0.63777 0.0
O154 O 0.29202 0.86473 0.92482 0.0
Cd155 Cd 0.27094 0.84637 0.91113 0.0
Cd156 Cd 0.26489 0.88195 0.89095 0.0
O157 O 0.29132 0.89172 0.90518 0.0
O158 O 0.28079 0.81898 0.91939 0.0
O159 O 0.28156 0.82967 0.88778 0.0
C160 C 0.28662 0.81617 0.90099 0.0
C161 C 0.25707 0.88625 0.85656 0.0
C162 C 0.29893 0.88197 0.91992 0.0
C163 C 0.23188 0.86706 0.91936 0.0
O164 O 0.23965 0.8814 0.90915 0.0
O165 O 0.24105 0.85015 0.92082 0.0
O166 O 0.25812 0.90142 0.86878 0.0
O167 O 0.26187 0.86863 0.86353 0.0
O168 O 0.39244 0.03426 0.36457 0.0
Cd169 Cd 0.39183 1.00906 0.38282 0.0
Cd170 Cd 0.42739 1.00285 0.36255 0.0
O171 O 0.42364 0.03273 0.3528 0.0
O172 O 0.37238 0.01594 0.40497 0.0
O173 O 0.40515 0.01211 0.41024 0.0
C174 C 0.38754 0.01698 0.4172 0.0
C175 C 0.45762 0.98716 0.37261 0.0
C176 C 0.40677 0.04197 0.3543 0.0
C177 C 0.39167 0.97495 0.35392 0.0
O178 O 0.40893 0.98178 0.34899 0.0
O179 O 0.38196 0.98264 0.36866 0.0
O180 O 0.45473 0.99293 0.3542 0.0
O181 O 0.44418 0.99228 0.38586 0.0
O182 O 0.29214 0.1592 0.59898 0.0
Cd183 Cd 0.27106 0.17755 0.61268 0.0
Cd184 Cd 0.26499 0.14196 0.63283 0.0
O185 O 0.29141 0.13218 0.61859 0.0
O186 O 0.28093 0.20495 0.60446 0.0
O187 O 0.28166 0.19422 0.63607 0.0
C188 C 0.28673 0.20773 0.62287 0.0
C189 C 0.25716 0.13766 0.66722 0.0
C190 C 0.29903 0.14194 0.60386 0.0
C191 C 0.23198 0.15689 0.60442 0.0
O192 O 0.23974 0.14254 0.61463 0.0
O193 O 0.24117 0.17379 0.60297 0.0
O194 O 0.2582 0.1225 0.65499 0.0
O195 O 0.26197 0.15528 0.66025 0.0
O196 O 0.13153 0.98974 0.86459 0.0
Cd197 Cd 0.13211 0.01496 0.88282 0.0
Cd198 Cd 0.09656 0.0211 0.86261 0.0
O199 O 0.10031 0.99122 0.85287 0.0
O200 O 0.15154 1.00812 0.905 0.0
O201 O 0.11875 0.01192 0.91022 0.0
C202 C 0.13636 1.00709 0.91721 0.0
C203 C 0.06636 0.03678 0.87278 0.0
C204 C 0.1172 0.98201 0.85434 0.0
C205 C 0.13221 0.04905 0.8539 0.0
O206 O 0.11496 0.04219 0.84899 0.0
O207 O 0.14195 0.04138 0.86863 0.0
O208 O 0.06918 0.03101 0.85437 0.0
O209 O 0.07985 0.03168 0.88599 0.0
O210 O 0.23155 0.86487 0.09911 0.0
Cd211 Cd 0.25263 0.84652 0.11279 0.0
Cd212 Cd 0.25869 0.88211 0.13295 0.0
O213 O 0.23227 0.89189 0.11872 0.0
O214 O 0.2428 0.81912 0.10451 0.0
O215 O 0.24203 0.82978 0.13614 0.0
C216 C 0.23699 0.81629 0.12291 0.0
C217 C 0.26651 0.8864 0.16735 0.0
C218 C 0.22464 0.88212 0.10398 0.0
C219 C 0.29169 0.86721 0.10454 0.0
O220 O 0.28393 0.88155 0.11475 0.0
O221 O 0.28252 0.8503 0.1031 0.0
O222 O 0.26546 0.90157 0.15513 0.0
O223 O 0.26171 0.86878 0.16037 0.0
O224 O 0.17474 0.40897 0.04193 0.0
Cd225 Cd 0.16108 0.42736 0.02086 0.0
Cd226 Cd 0.14088 0.3918 0.01478 0.0
O227 O 0.1551 0.38199 0.04119 0.0
O228 O 0.16936 0.45474 0.03073 0.0
O229 O 0.13774 0.44408 0.03148 0.0
C230 C 0.15096 0.45756 0.03655 0.0
C231 C 0.10648 0.38753 1.00697 0.0
C232 C 0.16984 0.39173 0.04882 0.0
C233 C 0.1693 0.4067 0.98177 0.0
O234 O 0.15908 0.39237 0.98953 0.0
O235 O 0.17077 0.4236 0.99097 0.0
O236 O 0.1187 0.37236 1.008 0.0
O237 O 0.11347 0.40515 1.01177 0.0
O238 O 0.67479 0.11473 0.982 0.0
Cd239 Cd 0.6611 0.09636 1.00306 0.0
Cd240 Cd 0.64093 0.13191 1.00915 0.0
O241 O 0.65516 0.14172 0.98274 0.0
O242 O 0.6693 0.06896 0.99318 0.0
O243 O 0.63771 0.0797 0.99246 0.0
C244 C 0.65089 0.06619 0.98738 0.0
C245 C 0.60653 0.13615 0.01694 0.0
C246 C 0.6699 0.13198 0.97511 0.0
C247 C 0.66934 0.117 0.04215 0.0
O248 O 0.65912 0.13134 0.0344 0.0
O249 O 0.6708 0.10011 0.03296 0.0
O250 O 0.61873 0.15133 0.01593 0.0
O251 O 0.61353 0.11854 0.01214 0.0
O252 O 0.14246 0.40904 0.28397 0.0
Cd253 Cd 0.14188 0.39084 0.25873 0.0
Cd254 Cd 0.17746 0.41097 0.25265 0.0
O255 O 0.17371 0.42068 0.28254 0.0
O256 O 0.12241 0.36868 0.26552 0.0
O257 O 0.15519 0.36341 0.26176 0.0
C258 C 0.13757 0.35645 0.26657 0.0
C259 C 0.20764 0.40077 0.23697 0.0
C260 C 0.1568 0.41924 0.29173 0.0
C261 C 0.14186 0.41979 0.22468 0.0
O262 O 0.15911 0.42467 0.23158 0.0
O263 O 0.1321 0.40506 0.2323 0.0
O264 O 0.20486 0.41918 0.24278 0.0
O265 O 0.19412 0.38758 0.24204 0.0
O266 O 0.84905 0.90901 0.4821 0.0
Cd267 Cd 0.86269 0.92744 0.50314 0.0
Cd268 Cd 0.88289 0.8919 0.50936 0.0
O269 O 0.86868 0.88201 0.48297 0.0
O270 O 0.85446 0.9548 0.49317 0.0
O271 O 0.88607 0.94411 0.49251 0.0
C272 C 0.87287 0.95759 0.48737 0.0
C273 C 0.91729 0.88763 0.51717 0.0
C274 C 0.85396 0.89174 0.47528 0.0
C275 C 0.85445 0.90691 0.54229 0.0
O276 O 0.86469 0.89256 0.5346 0.0
O277 O 0.85296 0.92377 0.53303 0.0
O278 O 0.90506 0.87246 0.5162 0.0
O279 O 0.91031 0.90524 0.51232 0.0
O280 O 0.8814 0.11443 0.28433 0.0
Cd281 Cd 0.88198 0.13266 0.25911 0.0
Cd282 Cd 0.84643 0.11244 0.25297 0.0
O283 O 0.85019 0.10269 0.28285 0.0
O284 O 0.90141 0.15484 0.26593 0.0
O285 O 0.86863 0.16007 0.26214 0.0
C286 C 0.88624 0.16706 0.26696 0.0
C287 C 0.81623 0.12261 0.2373 0.0
C288 C 0.86708 0.10417 0.29206 0.0
C289 C 0.88208 0.10374 0.22502 0.0
O290 O 0.86483 0.09883 0.23189 0.0
O291 O 0.89181 0.11848 0.23268 0.0
O292 O 0.81905 0.10419 0.24307 0.0
O293 O 0.82972 0.13581 0.24241 0.0
O294 O 0.34909 0.61487 0.54193 0.0
Cd295 Cd 0.3628 0.59652 0.52086 0.0
Cd296 Cd 0.38297 0.63208 0.51482 0.0
O297 O 0.36874 0.64185 0.54124 0.0
O298 O 0.35457 0.56912 0.53073 0.0
O299 O 0.38617 0.57985 0.5315 0.0
C300 C 0.37297 0.56634 0.53657 0.0
C301 C 0.41737 0.63635 0.50703 0.0
C302 C 0.35399 0.6321 0.54885 0.0
C303 C 0.35458 0.61719 0.48179 0.0
O304 O 0.36478 0.63153 0.48957 0.0
O305 O 0.35313 0.60028 0.49096 0.0
O306 O 0.40515 0.65153 0.50807 0.0
O307 O 0.41037 0.61874 0.51181 0.0
O308 O 0.14258 0.6146 0.23953 0.0
Cd309 Cd 0.14198 0.63281 0.26476 0.0
Cd310 Cd 0.17757 0.61264 0.27087 0.0
O311 O 0.17382 0.60293 0.24098 0.0
O312 O 0.12249 0.65494 0.25795 0.0
O313 O 0.15526 0.66025 0.26173 0.0
C314 C 0.13763 0.66719 0.2569 0.0
C315 C 0.20775 0.62283 0.28656 0.0
C316 C 0.15692 0.60438 0.23178 0.0
C317 C 0.14193 0.60385 0.29881 0.0
O318 O 0.15919 0.59897 0.29193 0.0
O319 O 0.13218 0.61858 0.29117 0.0
O320 O 0.20496 0.60442 0.28076 0.0
O321 O 0.19424 0.63603 0.28147 0.0
O322 O 0.38123 0.40934 0.73956 0.0
Cd323 Cd 0.38177 0.39114 0.7648 0.0
Cd324 Cd 0.34622 0.41132 0.77085 0.0
O325 O 0.35 0.42104 0.74097 0.0
O326 O 0.40123 0.36896 0.75804 0.0
O327 O 0.36844 0.36372 0.76178 0.0
C328 C 0.38606 0.35674 0.75699 0.0
C329 C 0.31603 0.40112 0.7865 0.0
C330 C 0.36691 0.41957 0.73179 0.0
C331 C 0.3818 0.42009 0.79886 0.0
O332 O 0.36456 0.42499 0.79195 0.0
O333 O 0.39155 0.40535 0.79123 0.0
O334 O 0.31881 0.41953 0.78071 0.0
O335 O 0.32954 0.38793 0.78143 0.0
O336 O 0.98197 0.84915 0.615 0.0
Cd337 Cd 1.00301 0.86284 0.59661 0.0
Cd338 Cd 1.00914 0.88299 0.63219 0.0
O339 O 0.98272 0.86877 0.642 0.0
O340 O 0.9931 0.85461 0.56924 0.0
O341 O 0.99236 0.88621 0.57995 0.0
C342 C 0.98727 0.87301 0.56645 0.0
C343 C 0.01698 0.91738 0.63644 0.0
C344 C 0.97508 0.85404 0.63225 0.0
C345 C 0.04212 0.85459 0.61721 0.0
O346 O 0.03437 0.86478 0.63158 0.0
O347 O 0.03291 0.85315 0.60032 0.0
O348 O 0.01595 0.90517 0.65162 0.0
O349 O 0.01214 0.91039 0.61884 0.0
O350 O 0.92465 0.23172 0.36494 0.0
Cd351 Cd 0.91098 0.25275 0.34651 0.0
Cd352 Cd 0.89085 0.25898 0.38213 0.0
O353 O 0.90508 0.23259 0.39199 0.0
O354 O 0.91925 0.24279 0.31916 0.0
O355 O 0.88763 0.2421 0.32981 0.0
C356 C 0.90085 0.23698 0.31635 0.0
C357 C 0.85647 0.26686 0.38649 0.0
C358 C 0.91979 0.2249 0.38223 0.0
C359 C 0.91926 0.29191 0.36703 0.0
O360 O 0.90906 0.28421 0.38141 0.0
O361 O 0.9207 0.28265 0.35017 0.0
O362 O 0.86873 0.26587 0.40162 0.0
O363 O 0.86339 0.26197 0.36887 0.0
O364 O 0.54189 0.1746 0.11484 0.0
Cd365 Cd 0.52085 0.16091 0.09645 0.0
Cd366 Cd 0.51473 0.14076 0.13203 0.0
O367 O 0.54113 0.15499 0.14185 0.0
O368 O 0.53075 0.16915 0.06907 0.0
O369 O 0.5315 0.13754 0.07978 0.0
C370 C 0.53658 0.15075 0.06628 0.0
C371 C 0.50689 0.10637 0.13632 0.0
C372 C 0.54877 0.16972 0.1321 0.0
C373 C 0.48175 0.16916 0.11706 0.0
O374 O 0.48949 0.15896 0.13142 0.0
O375 O 0.49095 0.1706 0.10016 0.0
O376 O 0.50791 0.1186 0.15149 0.0
O377 O 0.51173 0.11334 0.11871 0.0
O378 O 0.59895 0.79207 0.86519 0.0
Cd379 Cd 0.61255 0.77101 0.84675 0.0
Cd380 Cd 0.63277 0.76482 0.88232 0.0
O381 O 0.6186 0.79125 0.89217 0.0
O382 O 0.60424 0.78093 0.8194 0.0
O383 O 0.63588 0.78162 0.83 0.0
C384 C 0.62264 0.78673 0.81655 0.0
C385 C 0.66716 0.75692 0.88658 0.0
C386 C 0.60387 0.79892 0.88245 0.0
C387 C 0.60429 0.7319 0.86736 0.0
O388 O 0.61453 0.73961 0.8817 0.0
O389 O 0.60282 0.74112 0.85048 0.0
O390 O 0.65494 0.75795 0.90176 0.0
O391 O 0.66018 0.76178 0.86898 0.0
O392 O 0.98167 0.17476 0.90912 0.0
Cd393 Cd 1.00274 0.16114 0.92754 0.0
Cd394 Cd 1.00889 0.14092 0.89195 0.0
O395 O 0.98248 0.15512 0.88212 0.0
O396 O 0.99283 0.16945 0.95491 0.0
O397 O 0.99214 0.13781 0.9443 0.0
C398 C 0.98704 0.15105 0.95776 0.0
C399 C 0.01679 0.10654 0.88758 0.0
C400 C 0.97481 0.16986 0.89186 0.0
C401 C 0.04184 0.16938 0.9069 0.0
O402 O 0.03411 0.15914 0.89257 0.0
O403 O 0.03263 0.17086 0.92379 0.0
O404 O 0.01575 0.1188 0.87245 0.0
O405 O 0.01195 0.11347 0.90521 0.0
O406 O 0.59907 0.23186 0.65919 0.0
Cd407 Cd 0.61269 0.25289 0.67764 0.0
Cd408 Cd 0.63289 0.25912 0.64203 0.0
O409 O 0.61867 0.23273 0.63217 0.0
O410 O 0.60438 0.24294 0.70499 0.0
O411 O 0.63602 0.24226 0.69438 0.0
C412 C 0.62278 0.23714 0.70783 0.0
C413 C 0.66726 0.26701 0.63762 0.0
C414 C 0.60395 0.22504 0.6419 0.0
C415 C 0.60443 0.29204 0.65709 0.0
O416 O 0.61467 0.28435 0.64273 0.0
O417 O 0.60296 0.28278 0.67395 0.0
O418 O 0.65497 0.26601 0.6225 0.0
O419 O 0.66037 0.26213 0.65525 0.0
O420 O 0.5423 0.8492 0.40881 0.0
Cd421 Cd 0.52125 0.86287 0.42722 0.0
Cd422 Cd 0.51508 0.88301 0.39159 0.0
O423 O 0.54148 0.86877 0.38176 0.0
O424 O 0.53116 0.85459 0.45459 0.0
O425 O 0.53188 0.88621 0.44393 0.0
C426 C 0.53697 0.87299 0.45741 0.0
C427 C 0.50721 0.91739 0.38725 0.0
C428 C 0.54915 0.85405 0.39153 0.0
C429 C 0.48212 0.85461 0.40663 0.0
O430 O 0.48985 0.86481 0.39226 0.0
O431 O 0.49135 0.85317 0.42351 0.0
O432 O 0.50823 0.90514 0.37211 0.0
O433 O 0.51208 0.91045 0.40487 0.0
O434 O 0.92476 0.79193 0.15883 0.0
Cd435 Cd 0.91119 0.77085 0.17727 0.0
Cd436 Cd 0.89093 0.76468 0.1417 0.0
O437 O 0.90509 0.79111 0.13186 0.0
O438 O 0.91956 0.78075 0.20462 0.0
O439 O 0.88789 0.78144 0.19408 0.0
C440 C 0.90116 0.78654 0.20751 0.0
C441 C 0.85654 0.75679 0.13742 0.0
C442 C 0.91983 0.79879 0.14158 0.0
C443 C 0.91944 0.73175 0.15662 0.0
O444 O 0.90917 0.73947 0.14229 0.0
O445 O 0.92092 0.74097 0.1735 0.0
O446 O 0.86877 0.75783 0.12225 0.0
O447 O 0.86351 0.76163 0.15503 0.0
O448 O 0.6146 0.98178 0.84927 0.0
Cd449 Cd 0.59623 1.00284 0.86296 0.0
Cd450 Cd 0.6318 1.00894 0.88313 0.0
O451 O 0.6416 0.98252 0.86891 0.0
O452 O 0.56884 0.99294 0.85474 0.0
O453 O 0.57957 0.99222 0.88634 0.0
C454 C 0.56606 0.98713 0.87315 0.0
C455 C 0.63612 0.01677 0.91752 0.0
C456 C 0.63185 0.97489 0.85416 0.0
C457 C 0.61686 0.04193 0.85471 0.0
O458 O 0.6312 0.03418 0.86493 0.0
O459 O 0.59997 0.03273 0.85325 0.0
O460 O 0.65127 0.01573 0.90528 0.0
O461 O 0.61849 0.01195 0.91056 0.0
O462 O 0.79212 0.86501 0.59933 0.0
Cd463 Cd 0.77107 0.84654 0.61289 0.0
Cd464 Cd 0.76482 0.88211 0.63314 0.0
O465 O 0.79125 0.89198 0.61899 0.0
O466 O 0.78103 0.81921 0.60453 0.0
O467 O 0.78168 0.82975 0.63619 0.0
C468 C 0.78682 0.81633 0.62293 0.0
C469 C 0.75688 0.88641 0.66752 0.0
C470 C 0.79895 0.88227 0.60427 0.0
C471 C 0.73194 0.86712 0.6046 0.0
O472 O 0.73963 0.88146 0.61487 0.0
O473 O 0.74119 0.85026 0.60312 0.0
O474 O 0.75791 0.90157 0.65528 0.0
O475 O 0.76176 0.8688 0.66057 0.0
O476 O 0.90914 0.04187 0.34914 0.0
Cd477 Cd 0.92759 0.02085 0.3628 0.0
Cd478 Cd 0.89201 0.01463 0.38299 0.0
O479 O 0.88213 0.04101 0.36875 0.0
O480 O 0.95494 0.03083 0.35454 0.0
O481 O 0.94426 0.03152 0.38616 0.0
C482 C 0.95773 0.03664 0.37295 0.0
C483 C 0.88765 1.00683 0.41738 0.0
C484 C 0.89186 0.04869 0.35402 0.0
C485 C 0.90708 0.98168 0.35457 0.0
O486 O 0.89271 0.98938 0.3648 0.0
O487 O 0.92393 0.99095 0.35309 0.0
O488 O 0.87252 1.00779 0.40511 0.0
O489 O 0.90527 1.01169 0.41045 0.0
O490 O 0.73166 0.15893 0.09928 0.0
Cd491 Cd 0.75271 0.17735 0.11294 0.0
Cd492 Cd 0.75886 0.14175 0.13312 0.0
O493 O 0.73244 0.13193 0.11891 0.0
O494 O 0.74278 0.20471 0.10465 0.0
O495 O 0.74206 0.19406 0.13628 0.0
C496 C 0.73696 0.20753 0.12305 0.0
C497 C 0.76673 0.13739 0.1675 0.0
C498 C 0.72479 0.14168 0.10418 0.0
C499 C 0.79182 0.15674 0.10469 0.0
O500 O 0.78409 0.14239 0.1149 0.0
O501 O 0.7826 0.17362 0.10323 0.0
O502 O 0.7657 0.12225 0.15524 0.0
O503 O 0.76189 0.15502 0.16057 0.0
O504 O 0.61476 0.04213 0.67504 0.0
Cd505 Cd 0.59635 0.0211 0.66136 0.0
Cd506 Cd 0.63196 0.0149 0.64122 0.0
O507 O 0.6418 0.0413 0.65547 0.0
O508 O 0.56898 0.03105 0.66959 0.0
O509 O 0.57969 0.03174 0.63798 0.0
C510 C 0.5662 0.03686 0.65118 0.0
C511 C 0.63636 1.00706 0.60684 0.0
C512 C 0.63204 0.04897 0.67018 0.0
C513 C 0.61689 0.98195 0.66963 0.0
O514 O 0.63126 0.98966 0.65942 0.0
O515 O 0.60002 0.9912 0.67108 0.0
O516 O 0.65148 1.00805 0.61912 0.0
O517 O 0.61873 0.01192 0.61375 0.0
O518 O 0.73186 0.86494 0.42498 0.0
Cd519 Cd 0.75292 0.84649 0.4114 0.0
Cd520 Cd 0.75917 0.88204 0.39118 0.0
O521 O 0.73276 0.89194 0.40535 0.0
O522 O 0.74295 0.81914 0.41966 0.0
O523 O 0.74235 0.82978 0.38803 0.0
C524 C 0.7372 0.81631 0.40124 0.0
C525 C 0.76709 0.88631 0.3568 0.0
C526 C 0.72505 0.88222 0.42007 0.0
C527 C 0.79204 0.86705 0.41972 0.0
O528 O 0.78437 0.88139 0.40944 0.0
O529 O 0.78279 0.85018 0.42119 0.0
O530 O 0.76608 0.90148 0.36903 0.0
O531 O 0.7622 0.86871 0.36377 0.0
O532 O 0.90914 0.98162 0.17495 0.0
Cd533 Cd 0.92748 1.0027 0.16125 0.0
Cd534 Cd 0.89191 1.00877 0.14111 0.0
O535 O 0.88214 0.98233 0.15531 0.0
O536 O 0.95489 0.99281 0.16943 0.0
O537 O 0.94411 0.9921 0.13784 0.0
C538 C 0.95764 0.98701 0.15101 0.0
C539 C 0.8876 0.01667 0.10674 0.0
C540 C 0.8919 0.97471 0.17005 0.0
C541 C 0.90682 0.04176 0.16954 0.0
O542 O 0.89247 0.03399 0.15935 0.0
O543 O 0.92373 0.03259 0.17097 0.0
O544 O 0.87243 0.01559 0.11896 0.0
O545 O 0.90522 1.01185 0.1137 0.0
O546 O 0.79208 0.15897 0.92506 0.0
Cd547 Cd 0.771 0.17733 0.91139 0.0
Cd548 Cd 0.76492 0.14175 0.89123 0.0
O549 O 0.79136 0.13197 0.90543 0.0
O550 O 0.78089 0.20473 0.91959 0.0
O551 O 0.7816 0.19399 0.88799 0.0
C552 C 0.78668 0.20751 0.90117 0.0
C553 C 0.75704 0.13744 0.85685 0.0
C554 C 0.79898 0.14172 0.92017 0.0
C555 C 0.73194 0.15666 0.91966 0.0
O556 O 0.7397 0.14232 0.90946 0.0
O557 O 0.74112 0.17357 0.9211 0.0
O558 O 0.75811 0.12228 0.86908 0.0
O559 O 0.76186 0.15506 0.86381 0.0
O560 O 0.84898 0.61463 0.98178 0.0
Cd561 Cd 0.8627 0.59626 1.00283 0.0
Cd562 Cd 0.88282 0.63184 1.00894 0.0
O563 O 0.86857 0.64165 0.98254 0.0
O564 O 0.85452 0.56886 0.99292 0.0
O565 O 0.88611 0.57963 0.9922 0.0
C566 C 0.87293 0.56611 0.98711 0.0
C567 C 0.91722 0.63614 0.01674 0.0
C568 C 0.85385 0.63189 0.9749 0.0
C569 C 0.85445 0.61686 0.04194 0.0
O570 O 0.86464 0.63122 0.0342 0.0
O571 O 0.85301 0.59997 0.03272 0.0
O572 O 0.90499 0.65131 0.01573 0.0
O573 O 0.91025 0.61853 1.01192 0.0
O574 O 0.34886 0.90904 0.04213 0.0
Cd575 Cd 0.36258 0.92736 0.02104 0.0
Cd576 Cd 0.38272 0.89179 0.01504 0.0
O577 O 0.36849 0.88204 0.04147 0.0
O578 O 0.35437 0.95478 0.03086 0.0
O579 O 0.38596 0.94402 0.03164 0.0
C580 C 0.37277 0.95755 0.03668 0.0
C581 C 0.41713 0.88752 1.00726 0.0
C582 C 0.35374 0.89181 0.04907 0.0
C583 C 0.35435 0.90665 0.98199 0.0
O584 O 0.36454 0.89231 0.98978 0.0
O585 O 0.35291 0.92357 0.99114 0.0
O586 O 0.40492 0.87234 1.00831 0.0
O587 O 0.41013 0.90514 0.01203 0.0
O588 O 0.86497 0.59904 0.79209 0.0
Cd589 Cd 0.84654 0.61263 0.77101 0.0
Cd590 Cd 0.88211 0.63287 0.76484 0.0
O591 O 0.89195 0.6187 0.79127 0.0
O592 O 0.81919 0.6043 0.78093 0.0
O593 O 0.82976 0.63595 0.78161 0.0
C594 C 0.81632 0.6227 0.78672 0.0
C595 C 0.88644 0.66725 0.75695 0.0
C596 C 0.88222 0.60396 0.79895 0.0
C597 C 0.86718 0.60437 0.73191 0.0
O598 O 0.8815 0.61463 0.73963 0.0
O599 O 0.8503 0.60289 0.74113 0.0
O600 O 0.90159 0.655 0.75799 0.0
O601 O 0.86882 0.66031 0.76179 0.0
O602 O 0.17487 0.11498 0.54207 0.0
Cd603 Cd 0.16123 0.0966 0.52099 0.0
Cd604 Cd 0.14103 0.13217 0.51488 0.0
O605 O 0.15523 0.14197 0.54131 0.0
O606 O 0.16951 0.06922 0.53086 0.0
O607 O 0.13788 0.07987 0.53159 0.0
C608 C 0.1511 0.06639 0.53666 0.0
C609 C 0.10663 0.13645 0.50704 0.0
C610 C 0.16997 0.13223 0.54896 0.0
C611 C 0.16948 0.11726 0.48191 0.0
O612 O 0.15925 0.1316 0.48965 0.0
O613 O 0.17094 0.10037 0.4911 0.0
O614 O 0.11886 0.15162 0.50808 0.0
O615 O 0.11361 0.11884 0.51185 0.0
O616 O 0.15915 0.92488 0.792 0.0
Cd617 Cd 0.17754 0.9112 0.77095 0.0
Cd618 Cd 0.14197 0.89104 0.76481 0.0
O619 O 0.13215 0.90526 0.79122 0.0
O620 O 0.20492 0.91942 0.78086 0.0
O621 O 0.1942 0.88781 0.78156 0.0
C622 C 0.2077 0.90101 0.78666 0.0
C623 C 0.13769 0.85664 0.75697 0.0
C624 C 0.14189 0.91999 0.79887 0.0
C625 C 0.15693 0.91947 0.73184 0.0
O626 O 0.14258 0.90925 0.73957 0.0
O627 O 0.17382 0.92092 0.74105 0.0
O628 O 0.12252 0.86887 0.75799 0.0
O629 O 0.1553 0.86362 0.7618 0.0
O630 O 0.67472 0.40913 0.48186 0.0
Cd631 Cd 0.66111 0.42758 0.50291 0.0
Cd632 Cd 0.64092 0.39201 0.50915 0.0
O633 O 0.6551 0.38213 0.48274 0.0
O634 O 0.66934 0.45493 0.49293 0.0
O635 O 0.63772 0.44425 0.49231 0.0
C636 C 0.65092 0.45773 0.48717 0.0
C637 C 0.60655 0.38768 0.51706 0.0
C638 C 0.66982 0.39186 0.47504 0.0
C639 C 0.66941 0.40703 0.54205 0.0
O640 O 0.65916 0.39268 0.53436 0.0
O641 O 0.67088 0.4239 0.53279 0.0
O642 O 0.6188 0.37253 0.51605 0.0
O643 O 0.61349 0.4053 0.51218 0.0
O644 O 0.86527 0.42477 0.7316 0.0
Cd645 Cd 0.84685 0.41116 0.75267 0.0
Cd646 Cd 0.88242 0.39096 0.75885 0.0
O647 O 0.89227 0.40515 0.73243 0.0
O648 O 0.81949 0.41948 0.74277 0.0
O649 O 0.83008 0.38784 0.74208 0.0
C650 C 0.81663 0.40108 0.73698 0.0
C651 C 0.88665 0.35656 0.76672 0.0
C652 C 0.88253 0.41987 0.72475 0.0
C653 C 0.86747 0.41943 0.79178 0.0
O654 O 0.88181 0.40919 0.78406 0.0
O655 O 0.85059 0.42089 0.78256 0.0
O656 O 0.90184 0.36877 0.7657 0.0
O657 O 0.86905 0.36356 0.76187 0.0
O658 O 0.65865 0.59891 0.23157 0.0
Cd659 Cd 0.67707 0.6125 0.25265 0.0
Cd660 Cd 0.64152 0.63275 0.25879 0.0
O661 O 0.63168 0.61857 0.23236 0.0
O662 O 0.70444 0.60418 0.24277 0.0
O663 O 0.69384 0.63583 0.24207 0.0
C664 C 0.7073 0.62259 0.23699 0.0
C665 C 0.6373 0.66715 0.26667 0.0
C666 C 0.6414 0.60383 0.2247 0.0
C667 C 0.65641 0.60426 0.29174 0.0
O668 O 0.64209 0.61452 0.28401 0.0
O669 O 0.6733 0.60277 0.28254 0.0
O670 O 0.62211 0.65495 0.26563 0.0
O671 O 0.6549 0.66014 0.26183 0.0
O672 O 0.54195 0.67471 0.90921 0.0
Cd673 Cd 0.52089 0.66102 0.92758 0.0
Cd674 Cd 0.51479 0.64088 0.892 0.0
O675 O 0.54121 0.6551 0.8822 0.0
O676 O 0.5308 0.66921 0.95498 0.0
O677 O 0.53152 0.63761 0.94423 0.0
C678 C 0.53661 0.6508 0.95774 0.0
C679 C 0.50692 0.6065 0.88766 0.0
C680 C 0.54884 0.66983 0.89196 0.0
C681 C 0.48181 0.66929 0.90696 0.0
O682 O 0.48956 0.6591 0.8926 0.0
O683 O 0.491 0.67072 0.92386 0.0
O684 O 0.50797 0.61875 0.87251 0.0
O685 O 0.51174 0.61345 0.90528 0.0
O686 O 0.59876 0.29198 0.15896 0.0
Cd687 Cd 0.61237 0.27092 0.1774 0.0
Cd688 Cd 0.63263 0.26477 0.14185 0.0
O689 O 0.61843 0.29118 0.132 0.0
O690 O 0.60404 0.28082 0.20475 0.0
O691 O 0.63568 0.28153 0.19416 0.0
C692 C 0.62244 0.28662 0.20761 0.0
C693 C 0.66703 0.25692 0.13761 0.0
C694 C 0.60368 0.29884 0.14171 0.0
C695 C 0.60417 0.23181 0.15677 0.0
O696 O 0.61442 0.23953 0.14244 0.0
O697 O 0.60267 0.24102 0.17365 0.0
O698 O 0.65482 0.25794 0.12243 0.0
O699 O 0.66003 0.26176 0.15521 0.0
O700 O 0.98164 0.3491 0.40871 0.0
Cd701 Cd 1.00272 0.36277 0.42708 0.0
Cd702 Cd 1.00882 0.38291 0.39148 0.0
O703 O 0.98238 0.36871 0.3817 0.0
O704 O 0.99283 0.35453 0.45447 0.0
O705 O 0.99211 0.38614 0.44377 0.0
C706 C 0.98703 0.37293 0.45727 0.0
C707 C 0.01671 0.41729 0.38719 0.0
C708 C 0.97474 0.35399 0.39146 0.0
C709 C 0.04179 0.35447 0.40642 0.0
O710 O 0.03403 0.36467 0.39207 0.0
O711 O 0.0326 0.35305 0.42332 0.0
O712 O 0.01565 0.40507 0.37202 0.0
O713 O 1.01188 0.41032 0.40481 0.0
O714 O 0.92496 0.7318 0.65887 0.0
Cd715 Cd 0.91133 0.75284 0.67731 0.0
Cd716 Cd 0.89114 0.75907 0.64174 0.0
O717 O 0.90536 0.73268 0.63185 0.0
O718 O 0.91959 0.74288 0.70467 0.0
O719 O 0.88796 0.74222 0.69402 0.0
C720 C 0.90118 0.7371 0.70749 0.0
C721 C 0.85675 0.76693 0.63745 0.0
C722 C 0.92007 0.72498 0.64159 0.0
C723 C 0.9196 0.79199 0.65677 0.0
O724 O 0.90936 0.7843 0.64241 0.0
O725 O 0.92106 0.78273 0.67363 0.0
O726 O 0.86899 0.76595 0.62229 0.0
O727 O 0.86372 0.76205 0.65506 0.0
O728 O 0.54213 0.34921 0.61522 0.0
Cd729 Cd 0.52107 0.36285 0.59681 0.0
Cd730 Cd 0.5149 0.38302 0.63238 0.0
O731 O 0.5413 0.36881 0.64224 0.0
O732 O 0.53098 0.35457 0.56944 0.0
O733 O 0.53167 0.3862 0.58008 0.0
C734 C 0.53676 0.37298 0.56661 0.0
C735 C 0.50705 0.41741 0.63663 0.0
C736 C 0.54898 0.35409 0.63249 0.0
C737 C 0.48195 0.35458 0.6174 0.0
O738 O 0.48967 0.3648 0.63176 0.0
O739 O 0.49118 0.35312 0.60053 0.0
O740 O 0.50806 0.4052 0.65181 0.0
O741 O 0.5119 0.41042 0.61902 0.0
O742 O 0.92475 0.29205 0.86487 0.0
Cd743 Cd 0.91115 0.27098 0.84645 0.0
Cd744 Cd 0.8909 0.26484 0.88203 0.0
O745 O 0.90508 0.29127 0.89185 0.0
O746 O 0.9195 0.28087 0.8191 0.0
O747 O 0.88785 0.28159 0.82966 0.0
C748 C 0.90111 0.28668 0.81622 0.0
C749 C 0.85652 0.25696 0.88637 0.0
C750 C 0.91982 0.29893 0.88212 0.0
C751 C 0.91938 0.23188 0.86712 0.0
O752 O 0.90913 0.23962 0.88144 0.0
O753 O 0.92086 0.24109 0.85023 0.0
O754 O 0.86876 0.25801 0.90152 0.0
O755 O 0.86346 0.26178 0.86875 0.0
O756 O 0.98179 0.67465 0.11467 0.0
Cd757 Cd 1.00285 0.66099 0.09628 0.0
Cd758 Cd 1.00897 0.6408 0.13184 0.0
O759 O 0.98255 0.655 0.14166 0.0
O760 O 0.99294 0.66923 0.0689 0.0
O761 O 0.99223 0.63762 0.07959 0.0
C762 C 0.98714 0.65083 0.0661 0.0
C763 C 0.01685 0.60641 0.13614 0.0
C764 C 0.97491 0.66974 0.13192 0.0
C765 C 0.04194 0.66924 0.11691 0.0
O766 O 0.0342 0.65902 0.13125 0.0
O767 O 0.03274 0.67069 0.10001 0.0
O768 O 0.0158 0.61864 0.1513 0.0
O769 O 0.01202 0.61338 0.11852 0.0
O770 O 0.59916 0.73176 0.36478 0.0
Cd771 Cd 0.61278 0.7528 0.34634 0.0
Cd772 Cd 0.63299 0.759 0.38195 0.0
O773 O 0.61877 0.73259 0.39179 0.0
O774 O 0.60444 0.74287 0.31899 0.0
O775 O 0.63609 0.74215 0.32958 0.0
C776 C 0.62283 0.73705 0.31613 0.0
C777 C 0.66736 0.76687 0.38637 0.0
C778 C 0.60405 0.72492 0.38205 0.0
C779 C 0.60454 0.79194 0.36692 0.0
O780 O 0.61477 0.78423 0.38128 0.0
O781 O 0.60307 0.7827 0.35005 0.0
O782 O 0.65508 0.76586 0.40148 0.0
O783 O 0.66047 0.76202 0.36873 0.0
O784 O 0.89273 0.48963 0.65909 0.0
Cd785 Cd 0.89201 0.51488 0.6409 0.0
Cd786 Cd 0.92762 0.52109 0.66106 0.0
O787 O 0.92395 0.49119 0.67078 0.0
O788 O 0.87249 0.50803 0.6188 0.0
O789 O 0.90524 0.51191 0.61343 0.0
C790 C 0.88761 0.50705 0.60651 0.0
C791 C 0.95778 0.53684 0.65089 0.0
C792 C 0.90709 0.48193 0.66931 0.0
C793 C 0.89191 0.54894 0.66987 0.0
O794 O 0.90919 0.54212 0.67473 0.0
O795 O 0.88216 0.54126 0.65516 0.0
O796 O 0.95499 0.53105 0.6693 0.0
O797 O 0.9443 0.53173 0.63769 0.0
O798 O 0.73162 0.65869 0.92476 0.0
Cd799 Cd 0.75269 0.67714 0.91117 0.0
Cd800 Cd 0.75888 0.64156 0.89093 0.0
O801 O 0.73245 0.63171 0.90511 0.0
O802 O 0.74277 0.70448 0.91952 0.0
O803 O 0.74208 0.69392 0.88786 0.0
C804 C 0.73698 0.70736 0.90112 0.0
C805 C 0.76678 0.63728 0.85655 0.0
C806 C 0.72477 0.64144 0.91984 0.0
C807 C 0.79179 0.65651 0.91944 0.0
O808 O 0.78408 0.64218 0.90918 0.0
O809 O 0.78257 0.67339 0.92091 0.0
O810 O 0.76575 0.62212 0.86878 0.0
O811 O 0.76192 0.65489 0.86352 0.0
O812 O 0.63103 0.53402 0.1591 0.0
Cd813 Cd 0.63162 0.50876 0.14092 0.0
Cd814 Cd 0.59602 0.50272 0.16104 0.0
O815 O 0.59977 0.53262 0.17072 0.0
O816 O 0.65112 0.51552 0.11878 0.0
O817 O 0.61835 0.51177 0.11348 0.0
C818 C 0.63598 0.51657 0.10653 0.0
C819 C 0.56587 0.48703 0.15078 0.0
C820 C 0.61668 0.5418 0.16928 0.0
C821 C 0.6316 0.47474 0.16993 0.0
O822 O 0.61435 0.48166 0.17479 0.0
O823 O 0.64137 0.48235 0.15519 0.0
O824 O 0.5686 0.49286 0.16919 0.0
O825 O 0.57941 0.4921 0.13762 0.0
O826 O 0.79196 0.36503 0.42476 0.0
Cd827 Cd 0.77088 0.34655 0.41122 0.0
Cd828 Cd 0.76463 0.3821 0.39096 0.0
O829 O 0.79106 0.392 0.40509 0.0
O830 O 0.78085 0.31922 0.41957 0.0
O831 O 0.78146 0.32976 0.3879 0.0
C832 C 0.78661 0.31634 0.40116 0.0
C833 C 0.75666 0.38639 0.35658 0.0
C834 C 0.79877 0.38229 0.41981 0.0
C835 C 0.73177 0.36714 0.41952 0.0
O836 O 0.73945 0.38147 0.40924 0.0
O837 O 0.74101 0.35027 0.42101 0.0
O838 O 0.7577 0.40155 0.36881 0.0
O839 O 0.76155 0.36878 0.36354 0.0
O840 O 0.8926 0.53421 0.86461 0.0
Cd841 Cd 0.89203 0.50896 0.8828 0.0
Cd842 Cd 0.9276 0.5029 0.86266 0.0
O843 O 0.92385 0.5328 0.85297 0.0
O844 O 0.87256 0.51572 0.90497 0.0
O845 O 0.90534 0.51197 0.91023 0.0
C846 C 0.88772 0.51676 0.9172 0.0
C847 C 0.95776 0.4872 0.87288 0.0
C848 C 0.90695 0.54198 0.85442 0.0
C849 C 0.89202 0.47493 0.85382 0.0
O850 O 0.90926 0.48184 0.84894 0.0
O851 O 0.88226 0.48254 0.86857 0.0
O852 O 0.95501 0.49303 0.85447 0.0
O853 O 0.94424 0.49228 0.88606 0.0
O854 O 0.7921 0.65868 0.09906 0.0
Cd855 Cd 0.77101 0.67708 0.11267 0.0
Cd856 Cd 0.76488 0.6415 0.13287 0.0
O857 O 0.79133 0.6317 0.11871 0.0
O858 O 0.78091 0.70445 0.10438 0.0
O859 O 0.7816 0.69382 0.13602 0.0
C860 C 0.7867 0.70729 0.12279 0.0
C861 C 0.75695 0.63721 0.16724 0.0
C862 C 0.79898 0.64144 0.10397 0.0
C863 C 0.73194 0.65642 0.10438 0.0
O864 O 0.73969 0.64208 0.11461 0.0
O865 O 0.74113 0.67332 0.10293 0.0
O866 O 0.75802 0.62205 0.15502 0.0
O867 O 0.76179 0.65483 0.16028 0.0
O868 O 0.63099 0.48958 0.36469 0.0
Cd869 Cd 0.63167 0.51485 0.38285 0.0
Cd870 Cd 0.59607 0.52099 0.36274 0.0
O871 O 0.59973 0.49108 0.35307 0.0
O872 O 0.65119 0.50804 0.40497 0.0
O873 O 0.61844 0.51189 0.41032 0.0
C874 C 0.63607 0.50705 0.41725 0.0
C875 C 0.56594 0.53675 0.37297 0.0
C876 C 0.61661 0.48185 0.35451 0.0
C877 C 0.63172 0.54887 0.35384 0.0
O878 O 0.61445 0.542 0.349 0.0
O879 O 0.64149 0.54123 0.36857 0.0
O880 O 0.56868 0.53092 0.35456 0.0
O881 O 0.57946 0.53166 0.38614 0.0
O882 O 0.73176 0.36509 0.59906 0.0
Cd883 Cd 0.75283 0.34663 0.61262 0.0
Cd884 Cd 0.7591 0.38219 0.63283 0.0
O885 O 0.73267 0.39208 0.61869 0.0
O886 O 0.74285 0.31928 0.60435 0.0
O887 O 0.74226 0.32991 0.63599 0.0
C888 C 0.73711 0.31645 0.62277 0.0
C889 C 0.76704 0.38649 0.6672 0.0
C890 C 0.72495 0.38236 0.60398 0.0
C891 C 0.79196 0.36719 0.60429 0.0
O892 O 0.78428 0.38154 0.61456 0.0
O893 O 0.7827 0.35033 0.60282 0.0
O894 O 0.76601 0.40165 0.65496 0.0
O895 O 0.76215 0.36888 0.66025 0.0
O896 O 0.67492 0.90908 0.54224 0.0
Cd897 Cd 0.66132 0.92753 0.52118 0.0
Cd898 Cd 0.6411 0.89197 0.51496 0.0
O899 O 0.65527 0.8821 0.54138 0.0
O900 O 0.66958 0.95488 0.53115 0.0
O901 O 0.63796 0.94423 0.53179 0.0
C902 C 0.65117 0.9577 0.53693 0.0
C903 C 0.60673 0.88766 0.50702 0.0
C904 C 0.67 0.89182 0.54907 0.0
C905 C 0.6696 0.90696 0.48206 0.0
O906 O 0.65935 0.89261 0.48976 0.0
O907 O 0.67108 0.92383 0.4913 0.0
O908 O 0.61897 0.8725 0.50806 0.0
O909 O 0.61367 0.90527 0.5119 0.0
O910 O 0.17494 0.61481 0.4815 0.0
Cd911 Cd 0.16128 0.59642 0.50256 0.0
Cd912 Cd 0.14109 0.63201 0.50868 0.0
O913 O 0.15531 0.64182 0.48227 0.0
O914 O 0.16953 0.56904 0.49267 0.0
O915 O 0.13792 0.57972 0.49195 0.0
C916 C 0.15113 0.56622 0.48687 0.0
C917 C 0.10671 0.63636 0.51654 0.0
C918 C 0.17005 0.63207 0.47462 0.0
C919 C 0.16952 0.61706 0.54166 0.0
O920 O 0.1593 0.6314 0.53391 0.0
O921 O 0.17098 0.60017 0.53246 0.0
O922 O 0.11896 0.6515 0.5155 0.0
O923 O 0.11365 0.61873 0.51171 0.0
O924 O 0.64214 0.9092 0.78439 0.0
Cd925 Cd 0.64152 0.89097 0.75917 0.0
Cd926 Cd 0.67711 0.91116 0.75302 0.0
O927 O 0.67337 0.92088 0.78291 0.0
O928 O 0.62207 0.86881 0.76602 0.0
O929 O 0.65484 0.86355 0.7622 0.0
C930 C 0.63723 0.85658 0.76705 0.0
C931 C 0.70732 0.90105 0.73732 0.0
C932 C 0.65648 0.91943 0.79212 0.0
C933 C 0.64144 0.91989 0.72509 0.0
O934 O 0.6587 0.92479 0.73195 0.0
O935 O 0.63169 0.90517 0.73275 0.0
O936 O 0.70447 0.91945 0.74312 0.0
O937 O 0.69385 0.88782 0.74242 0.0
O938 O 0.34893 0.40896 0.98154 0.0
Cd939 Cd 0.36259 0.4273 1.00265 0.0
Cd940 Cd 0.38278 0.39173 1.00867 0.0
O941 O 0.36858 0.38198 0.98222 0.0
O942 O 0.35433 0.45471 0.99284 0.0
O943 O 0.38595 0.44403 0.99207 0.0
C944 C 0.37273 0.45753 0.98703 0.0
C945 C 0.41718 0.38746 0.0165 0.0
C946 C 0.35383 0.39173 0.97461 0.0
C947 C 0.35436 0.40655 0.04169 0.0
O948 O 0.36457 0.39223 0.0339 0.0
O949 O 0.3529 0.42348 0.03254 0.0
O950 O 0.40497 0.37228 0.01542 0.0
O951 O 0.41018 0.40508 1.01172 0.0
O952 O 0.38128 0.61478 0.78419 0.0
Cd953 Cd 0.38191 0.63302 0.75897 0.0
Cd954 Cd 0.34633 0.61282 0.7528 0.0
O955 O 0.35005 0.60311 0.78269 0.0
O956 O 0.40139 0.65514 0.76583 0.0
O957 O 0.36862 0.66045 0.76202 0.0
C958 C 0.38624 0.66739 0.76687 0.0
C959 C 0.31614 0.62293 0.73707 0.0
C960 C 0.36693 0.60456 0.79191 0.0
C961 C 0.38201 0.60409 0.72488 0.0
O962 O 0.36475 0.59918 0.73175 0.0
O963 O 0.39174 0.61883 0.73255 0.0
O964 O 0.31897 0.60453 0.74287 0.0
O965 O 0.3296 0.63616 0.74217 0.0
O966 O 0.84906 0.11488 0.04241 0.0
Cd967 Cd 0.86272 0.0965 0.02133 0.0
Cd968 Cd 0.88287 0.13211 0.0152 0.0
O969 O 0.86864 0.14191 0.04162 0.0
O970 O 0.85447 0.06911 0.03121 0.0
O971 O 0.88609 0.07978 0.03192 0.0
C972 C 0.87288 0.06629 0.037 0.0
C973 C 0.91725 0.13641 1.00732 0.0
C974 C 0.85393 0.13214 0.04928 0.0
C975 C 0.85444 0.11714 0.98224 0.0
O976 O 0.86465 0.13149 0.98998 0.0
O977 O 0.853 0.10025 0.99144 0.0
O978 O 0.90501 0.15157 1.00837 0.0
O979 O 0.91029 0.1188 0.01217 0.0
O980 O 0.64233 0.11465 0.73996 0.0
Cd981 Cd 0.6417 0.13287 0.76518 0.0
Cd982 Cd 0.67727 0.11266 0.77137 0.0
O983 O 0.67354 0.10292 0.74148 0.0
O984 O 0.62224 0.15503 0.75832 0.0
O985 O 0.65501 0.1603 0.76216 0.0
C986 C 0.6374 0.16726 0.7573 0.0
C987 C 0.70748 0.12278 0.78706 0.0
C988 C 0.65667 0.1044 0.73225 0.0
C989 C 0.64158 0.10395 0.79928 0.0
O990 O 0.65885 0.09906 0.79244 0.0
O991 O 0.63185 0.11868 0.7916 0.0
O992 O 0.70464 0.10437 0.78128 0.0
O993 O 0.69402 0.13601 0.78196 0.0
O994 O 0.88175 0.90897 0.23981 0.0
Cd995 Cd 0.8824 0.89073 0.26502 0.0
Cd996 Cd 0.84681 0.91092 0.27123 0.0
O997 O 0.85052 0.92066 0.24134 0.0
O998 O 0.90184 0.86857 0.25813 0.0
O999 O 0.86907 0.86332 0.26198 0.0
C1000 C 0.88667 0.85635 0.25711 0.0
C1001 C 0.81661 0.90085 0.28695 0.0
C1002 C 0.8674 0.9192 0.23211 0.0
C1003 C 0.88252 0.91963 0.29913 0.0
O1004 O 0.86525 0.92452 0.29229 0.0
O1005 O 0.89226 0.90491 0.29144 0.0
O1006 O 0.81947 0.91925 0.28116 0.0
O1007 O 0.83005 0.8876 0.28185 0.0
O1008 O 0.48158 0.34886 0.11446 0.0
Cd1009 Cd 0.50268 0.36254 0.09613 0.0
Cd1010 Cd 0.50869 0.38273 0.13169 0.0
O1011 O 0.48225 0.36852 0.14144 0.0
O1012 O 0.49284 0.35434 0.06872 0.0
O1013 O 0.49209 0.38593 0.07946 0.0
C1014 C 0.48703 0.37275 0.06594 0.0
C1015 C 0.51651 0.41713 0.13599 0.0
C1016 C 0.47465 0.35376 0.13169 0.0
C1017 C 0.54172 0.3543 0.11686 0.0
O1018 O 0.53393 0.36452 0.13118 0.0
O1019 O 0.53257 0.35284 0.09994 0.0
O1020 O 0.51544 0.40491 0.15116 0.0
O1021 O 0.51174 0.41015 0.11836 0.0
O1022 O 0.42473 0.73167 0.86507 0.0
Cd1023 Cd 0.41111 0.75278 0.84669 0.0
Cd1024 Cd 0.3909 0.75887 0.88223 0.0
O1025 O 0.40507 0.73243 0.89205 0.0
O1026 O 0.41937 0.74291 0.8193 0.0
O1027 O 0.38775 0.74222 0.82995 0.0
C1028 C 0.40096 0.73714 0.81647 0.0
C1029 C 0.3565 0.76672 0.88645 0.0
C1030 C 0.41981 0.72478 0.88231 0.0
C1031 C 0.41937 0.79184 0.86739 0.0
O1032 O 0.40912 0.78409 0.88171 0.0
O1033 O 0.42084 0.78265 0.85049 0.0
O1034 O 0.36868 0.76567 0.90164 0.0
O1035 O 0.36351 0.76191 0.86884 0.0
O1036 O 0.04227 0.67494 0.61463 0.0
Cd1037 Cd 0.0212 0.66131 0.59622 0.0
Cd1038 Cd 0.01506 0.6411 0.6318 0.0
O1039 O 0.04147 0.65531 0.64163 0.0
O1040 O 0.03111 0.66955 0.56884 0.0
O1041 O 0.03179 0.63793 0.57952 0.0
C1042 C 0.03689 0.65114 0.56603 0.0
C1043 C 1.0072 0.60672 0.63614 0.0
C1044 C 0.04914 0.67005 0.63188 0.0
C1045 C 0.9821 0.66956 0.61685 0.0
O1046 O 0.98983 0.65932 0.63119 0.0
O1047 O 0.99132 0.67104 0.59997 0.0
O1048 O 1.00823 0.61897 0.65128 0.0
O1049 O 0.01203 0.61367 0.61851 0.0
O1050 O 0.09894 0.29208 0.36458 0.0
Cd1051 Cd 0.11262 0.27098 0.34624 0.0
Cd1052 Cd 0.1328 0.26494 0.38182 0.0
O1053 O 0.11858 0.29138 0.39158 0.0
O1054 O 0.10441 0.28083 0.31883 0.0
O1055 O 0.13601 0.28156 0.32956 0.0
C1056 C 0.12282 0.28662 0.31604 0.0
C1057 C 0.16719 0.25712 0.38611 0.0
C1058 C 0.10383 0.299 0.38182 0.0
C1059 C 0.10436 0.23193 0.36695 0.0
O1060 O 0.11459 0.23971 0.38128 0.0
O1061 O 0.1029 0.2411 0.35004 0.0
O1062 O 0.15497 0.25818 0.40128 0.0
O1063 O 0.16021 0.2619 0.36849 0.0
O1064 O 0.48186 0.67506 0.4092 0.0
Cd1065 Cd 0.50294 0.66133 0.42752 0.0
Cd1066 Cd 0.50895 0.64117 0.39196 0.0
O1067 O 0.48253 0.65541 0.38221 0.0
O1068 O 0.4931 0.6695 0.45494 0.0
O1069 O 0.49233 0.63792 0.44415 0.0
C1070 C 0.48728 0.65109 0.45769 0.0
C1071 C 0.51671 0.60675 0.3877 0.0
C1072 C 0.47493 0.67016 0.39197 0.0
C1073 C 0.542 0.66954 0.40682 0.0
O1074 O 0.53421 0.65934 0.39249 0.0
O1075 O 0.53284 0.671 0.42374 0.0
O1076 O 0.51567 0.61897 0.37252 0.0
O1077 O 0.51194 0.61376 0.40531 0.0
O1078 O 0.09902 0.73158 0.15884 0.0
Cd1079 Cd 0.11264 0.75268 0.17723 0.0
Cd1080 Cd 0.13283 0.7588 0.14169 0.0
O1081 O 0.11867 0.73236 0.13186 0.0
O1082 O 0.10441 0.74278 0.20462 0.0
O1083 O 0.13603 0.74211 0.19393 0.0
C1084 C 0.12283 0.73701 0.20742 0.0
C1085 C 0.16722 0.76669 0.13746 0.0
C1086 C 0.10393 0.72471 0.1416 0.0
C1087 C 0.10435 0.79175 0.15657 0.0
O1088 O 0.11458 0.78401 0.14224 0.0
O1089 O 0.10289 0.78255 0.17347 0.0
O1090 O 0.15502 0.76564 0.12227 0.0
O1091 O 0.16022 0.76186 0.15507 0.0
O1092 O 0.04196 0.34896 0.90907 0.0
Cd1093 Cd 0.02089 0.36266 0.92743 0.0
Cd1094 Cd 0.01481 0.38282 0.89187 0.0
O1095 O 0.04122 0.36859 0.88207 0.0
O1096 O 0.03076 0.35444 0.95483 0.0
O1097 O 0.0315 0.38604 0.9441 0.0
C1098 C 0.03658 0.37285 0.95761 0.0
C1099 C 1.00703 0.41723 0.88759 0.0
C1100 C 0.04885 0.35385 0.89182 0.0
C1101 C 0.9818 0.35442 0.90679 0.0
O1102 O 0.98955 0.36463 0.89245 0.0
O1103 O 0.991 0.35296 0.92369 0.0
O1104 O 1.00804 0.40501 0.87242 0.0
O1105 O 1.01182 0.41023 0.90521 0.0
O1106 O 0.42477 0.29219 0.65917 0.0
Cd1107 Cd 0.41107 0.27112 0.67752 0.0
Cd1108 Cd 0.39095 0.26504 0.64193 0.0
O1109 O 0.40516 0.29148 0.63217 0.0
O1110 O 0.41925 0.281 0.70492 0.0
O1111 O 0.38766 0.28173 0.69415 0.0
C1112 C 0.40083 0.28681 0.70768 0.0
C1113 C 0.35656 0.2572 0.63762 0.0
C1114 C 0.41989 0.2991 0.64193 0.0
C1115 C 0.41936 0.23205 0.65686 0.0
O1116 O 0.40916 0.23981 0.64251 0.0
O1117 O 0.42079 0.24123 0.67377 0.0
O1118 O 0.36879 0.25825 0.62246 0.0
O1119 O 0.36353 0.262 0.65525 0.0
O1120 O 0.11492 0.48162 0.34884 0.0
Cd1121 Cd 0.09653 0.50272 0.36247 0.0
Cd1122 Cd 0.13212 0.5088 0.38268 0.0
O1123 O 0.1419 0.48236 0.36849 0.0
O1124 O 0.06915 0.49285 0.35417 0.0
O1125 O 0.07978 0.49213 0.38581 0.0
C1126 C 0.06631 0.48706 0.37258 0.0
C1127 C 0.13642 0.51669 0.41706 0.0
C1128 C 0.13216 0.47472 0.35375 0.0
C1129 C 0.11723 0.54178 0.35422 0.0
O1130 O 0.13155 0.53402 0.36445 0.0
O1131 O 0.10032 0.5326 0.35276 0.0
O1132 O 0.15158 0.51562 0.40484 0.0
O1133 O 0.1188 0.51187 0.4101 0.0
O1134 O 0.29198 0.36459 0.09881 0.0
Cd1135 Cd 0.2709 0.34625 0.11249 0.0
Cd1136 Cd 0.26487 0.3818 0.13269 0.0
O1137 O 0.2913 0.39157 0.11847 0.0
O1138 O 0.28073 0.31884 0.10426 0.0
O1139 O 0.28149 0.32955 0.13587 0.0
C1140 C 0.28654 0.31604 0.12267 0.0
C1141 C 0.25705 0.38606 0.16709 0.0
C1142 C 0.29891 0.38182 0.10372 0.0
C1143 C 0.23185 0.36696 0.10427 0.0
O1144 O 0.23963 0.38128 0.11448 0.0
O1145 O 0.24101 0.35004 0.10281 0.0
O1146 O 0.25811 0.40124 0.15488 0.0
O1147 O 0.26183 0.36845 0.16009 0.0
O1148 O 0.40878 0.54221 0.84906 0.0
Cd1149 Cd 0.42714 0.52111 0.86271 0.0
Cd1150 Cd 0.39157 0.51501 0.88287 0.0
O1151 O 0.38178 0.54145 0.86869 0.0
O1152 O 0.45454 0.53098 0.85447 0.0
O1153 O 0.44385 0.53167 0.88609 0.0
C1154 C 0.45735 0.53675 0.87288 0.0
C1155 C 0.38732 0.50713 0.91726 0.0
C1156 C 0.39153 0.5491 0.85396 0.0
C1157 C 0.40646 0.48205 0.8544 0.0
O1158 O 0.39213 0.4898 0.86463 0.0
O1159 O 0.42336 0.49123 0.85296 0.0
O1160 O 0.37214 0.50819 0.90505 0.0
O1161 O 0.40493 0.51194 0.91027 0.0
O1162 O 0.23178 0.65897 0.59889 0.0
Cd1163 Cd 0.25286 0.67734 0.61257 0.0
Cd1164 Cd 0.25895 0.64176 0.63273 0.0
O1165 O 0.23255 0.63195 0.61849 0.0
O1166 O 0.24299 0.70474 0.60434 0.0
O1167 O 0.24226 0.69403 0.63595 0.0
C1168 C 0.23719 0.70754 0.62275 0.0
C1169 C 0.26676 0.63751 0.66713 0.0
C1170 C 0.22491 0.64171 0.60376 0.0
C1171 C 0.29195 0.6567 0.60432 0.0
O1172 O 0.2842 0.64235 0.61453 0.0
O1173 O 0.28274 0.67359 0.60287 0.0
O1174 O 0.26574 0.62233 0.65492 0.0
O1175 O 0.26194 0.65511 0.66014 0.0
O1176 O 0.11499 0.54204 0.17465 0.0
Cd1177 Cd 0.09661 0.52096 0.16099 0.0
Cd1178 Cd 0.13217 0.51486 0.14082 0.0
O1179 O 0.14199 0.54127 0.15502 0.0
O1180 O 0.06922 0.53084 0.16924 0.0
O1181 O 0.0799 0.53156 0.13763 0.0
C1182 C 0.0664 0.53663 0.15083 0.0
C1183 C 0.1364 0.50703 0.10642 0.0
C1184 C 0.13224 0.54892 0.16976 0.0
C1185 C 0.11725 0.48187 0.16924 0.0
O1186 O 0.1316 0.48962 0.15902 0.0
O1187 O 0.10036 0.49108 0.1707 0.0
O1188 O 0.15159 0.50805 0.11862 0.0
O1189 O 0.1188 0.51185 0.11342 0.0
O1190 O 0.23163 0.36481 0.92459 0.0
Cd1191 Cd 0.25271 0.34645 0.91092 0.0
Cd1192 Cd 0.25878 0.38204 0.89075 0.0
O1193 O 0.23236 0.39182 0.90497 0.0
O1194 O 0.24286 0.31906 0.9192 0.0
O1195 O 0.24209 0.32972 0.88758 0.0
C1196 C 0.23704 0.31623 0.90081 0.0
C1197 C 0.2666 0.38635 0.85635 0.0
C1198 C 0.22473 0.38206 0.91971 0.0
C1199 C 0.29178 0.36712 0.91915 0.0
O1200 O 0.28402 0.38147 0.90895 0.0
O1201 O 0.2826 0.35022 0.9206 0.0
O1202 O 0.26555 0.40151 0.86858 0.0
O1203 O 0.2618 0.36873 0.86332 0.0
O1204 O 0.40894 0.48193 0.67478 0.0
Cd1205 Cd 0.42737 0.503 0.66118 0.0
Cd1206 Cd 0.39183 0.50915 0.64092 0.0
O1207 O 0.38198 0.48273 0.6551 0.0
O1208 O 0.45472 0.4931 0.66952 0.0
O1209 O 0.44414 0.49239 0.63787 0.0
C1210 C 0.45759 0.4873 0.65112 0.0
C1211 C 0.38759 0.51699 0.60651 0.0
C1212 C 0.39169 0.47506 0.66985 0.0
C1213 C 0.40672 0.5421 0.6694 0.0
O1214 O 0.3924 0.53438 0.65914 0.0
O1215 O 0.42361 0.53288 0.6709 0.0
O1216 O 0.37241 0.51597 0.61872 0.0
O1217 O 0.40519 0.51216 0.61351 0.0
O1218 O 0.29226 0.65912 0.42463 0.0
Cd1219 Cd 0.27117 0.6775 0.41099 0.0
Cd1220 Cd 0.2651 0.64192 0.39077 0.0
O1221 O 0.29153 0.63213 0.40498 0.0
O1222 O 0.28102 0.70488 0.4193 0.0
O1223 O 0.28177 0.69427 0.38767 0.0
C1224 C 0.28683 0.70774 0.40091 0.0
C1225 C 0.25723 0.6376 0.35638 0.0
C1226 C 0.29916 0.64188 0.41972 0.0
C1227 C 0.2321 0.6568 0.41921 0.0
O1228 O 0.23987 0.64248 0.40899 0.0
O1229 O 0.24128 0.67371 0.42068 0.0
O1230 O 0.2583 0.62244 0.36862 0.0
O1231 O 0.26204 0.65522 0.36334 0.0
O1232 O 0.34915 0.11516 0.48162 0.0
Cd1233 Cd 0.36278 0.09675 0.50269 0.0
Cd1234 Cd 0.38295 0.13235 0.50885 0.0
O1235 O 0.36875 0.14217 0.48243 0.0
O1236 O 0.3545 0.06938 0.49279 0.0
O1237 O 0.38613 0.08001 0.49209 0.0
C1238 C 0.3729 0.06654 0.487 0.0
C1239 C 0.41733 0.13666 0.51674 0.0
C1240 C 0.35403 0.13242 0.47476 0.0
C1241 C 0.3545 0.11737 0.54179 0.0
O1242 O 0.36472 0.13172 0.53407 0.0
O1243 O 0.35305 0.10049 0.53258 0.0
O1244 O 0.4051 0.15181 0.5157 0.0
O1245 O 0.41038 0.11904 0.51189 0.0
O1246 O 0.849 0.40911 0.54191 0.0
Cd1247 Cd 0.86261 0.42755 0.52086 0.0
Cd1248 Cd 0.8828 0.39197 0.51463 0.0
O1249 O 0.86862 0.38211 0.54104 0.0
O1250 O 0.85436 0.45491 0.53083 0.0
O1251 O 0.88598 0.44423 0.53146 0.0
C1252 C 0.87278 0.45771 0.5366 0.0
C1253 C 0.91718 0.38765 0.50674 0.0
C1254 C 0.8539 0.39184 0.54874 0.0
C1255 C 0.85431 0.40699 0.48173 0.0
O1256 O 0.86457 0.39264 0.48942 0.0
O1257 O 0.85284 0.42385 0.49098 0.0
O1258 O 0.90493 0.3725 0.50775 0.0
O1259 O 0.91024 0.40526 0.5116 0.0
O1260 O 0.36479 0.09908 0.292 0.0
Cd1261 Cd 0.34639 0.11273 0.27094 0.0
Cd1262 Cd 0.38193 0.13291 0.26478 0.0
O1263 O 0.39178 0.11872 0.29119 0.0
O1264 O 0.31901 0.10449 0.28086 0.0
O1265 O 0.3297 0.13611 0.28154 0.0
C1266 C 0.31621 0.12291 0.28665 0.0
C1267 C 0.38618 0.1673 0.2569 0.0
C1268 C 0.38205 0.10398 0.29885 0.0
C1269 C 0.36699 0.10445 0.23183 0.0
O1270 O 0.38133 0.11468 0.23956 0.0
O1271 O 0.3501 0.103 0.24105 0.0
O1272 O 0.40136 0.15509 0.25793 0.0
O1273 O 0.36858 0.16031 0.26175 0.0
O1274 O 0.67479 0.61448 0.04202 0.0
Cd1275 Cd 0.66109 0.59611 0.02096 0.0
Cd1276 Cd 0.64094 0.63169 0.01486 0.0
O1277 O 0.65519 0.6415 0.04126 0.0
O1278 O 0.66926 0.56871 0.03086 0.0
O1279 O 0.63768 0.57948 0.03157 0.0
C1280 C 0.65085 0.56596 0.03666 0.0
C1281 C 0.60654 0.63602 1.00706 0.0
C1282 C 0.66992 0.63174 0.0489 0.0
C1283 C 0.66933 0.61674 0.98186 0.0
O1284 O 0.65912 0.63108 0.9896 0.0
O1285 O 0.67079 0.59985 0.99107 0.0
O1286 O 0.61878 0.65117 1.00808 0.0
O1287 O 0.6135 0.61839 1.01187 0.0
O1288 O 0.65841 0.42466 0.29221 0.0
Cd1289 Cd 0.67681 0.41104 0.27113 0.0
Cd1290 Cd 0.64123 0.39085 0.265 0.0
O1291 O 0.63141 0.40504 0.29142 0.0
O1292 O 0.70418 0.41936 0.28102 0.0
O1293 O 0.69358 0.38772 0.28173 0.0
C1294 C 0.70704 0.40096 0.28681 0.0
C1295 C 0.63697 0.35646 0.25713 0.0
C1296 C 0.64115 0.41977 0.29908 0.0
C1297 C 0.65616 0.41931 0.23204 0.0
O1298 O 0.64182 0.40908 0.23977 0.0
O1299 O 0.67305 0.42076 0.24124 0.0
O1300 O 0.6218 0.36868 0.25816 0.0
O1301 O 0.65458 0.36345 0.26197 0.0
O1302 O 0.17472 0.909 0.9817 0.0
Cd1303 Cd 0.16104 0.92738 1.00276 0.0
Cd1304 Cd 0.14086 0.8918 1.00885 0.0
O1305 O 0.15509 0.882 0.98243 0.0
O1306 O 0.16932 0.95477 0.99289 0.0
O1307 O 0.1377 0.9441 0.99213 0.0
C1308 C 0.15092 0.95759 0.98706 0.0
C1309 C 0.10647 0.88748 0.01667 0.0
C1310 C 0.16983 0.89175 0.9748 0.0
C1311 C 0.16926 0.90673 0.04186 0.0
O1312 O 0.15906 0.89239 0.0341 0.0
O1313 O 0.17072 0.92363 0.03266 0.0
O1314 O 0.11871 0.87232 0.01564 0.0
O1315 O 0.11343 0.9051 1.01186 0.0
O1316 O 0.36452 0.92484 0.23182 0.0
Cd1317 Cd 0.34613 0.91122 0.25291 0.0
Cd1318 Cd 0.38169 0.89099 0.25901 0.0
O1319 O 0.39148 0.90516 0.23257 0.0
O1320 O 0.31875 0.91948 0.24302 0.0
O1321 O 0.32942 0.88786 0.24233 0.0
C1322 C 0.31593 0.90107 0.23723 0.0
C1323 C 0.38602 0.85661 0.2669 0.0
C1324 C 0.38175 0.91991 0.22492 0.0
C1325 C 0.36682 0.91948 0.29198 0.0
O1326 O 0.38114 0.90923 0.28423 0.0
O1327 O 0.34992 0.92095 0.28279 0.0
O1328 O 0.40117 0.86885 0.26583 0.0
O1329 O 0.36839 0.86356 0.26209 0.0
O1330 O 0.15921 0.09912 0.73174 0.0
Cd1331 Cd 0.17759 0.11278 0.75282 0.0
Cd1332 Cd 0.142 0.13295 0.75892 0.0
O1333 O 0.13222 0.11875 0.73249 0.0
O1334 O 0.20497 0.10454 0.74292 0.0
O1335 O 0.19427 0.13615 0.74221 0.0
C1336 C 0.20777 0.12295 0.73712 0.0
C1337 C 0.13764 0.16733 0.76681 0.0
C1338 C 0.14196 0.10402 0.72485 0.0
C1339 C 0.15693 0.10451 0.79189 0.0
O1340 O 0.14259 0.11472 0.78414 0.0
O1341 O 0.17383 0.10306 0.7827 0.0
O1342 O 0.1225 0.15508 0.76574 0.0
O1343 O 0.15527 0.16039 0.76198 0.0
C1344 C 0.08078 0.18906 0.39643 0.0
C1345 C 0.06553 0.18233 0.38334 0.0
H1346 H 0.10527 0.20938 0.40132 0.0
C1347 C 0.06477 0.19009 0.36356 0.0
H1348 H 0.08175 0.18327 0.41173 0.0
C1349 C 0.07814 0.20554 0.35758 0.0
C1350 C 0.09257 0.21322 0.37125 0.0
H1351 H 0.05301 0.18525 0.35324 0.0
H1352 H 0.07647 0.21214 0.34268 0.0
C1353 C 0.09423 0.20412 0.39042 0.0
C1354 C 0.07 0.84444 0.64058 0.0
C1355 C 0.06085 0.84281 0.62143 0.0
H1356 H 0.09092 0.83192 0.66182 0.0
C1357 C 0.06851 0.8284 0.60771 0.0
H1358 H 0.06477 0.85545 0.65151 0.0
C1359 C 0.08398 0.81503 0.61363 0.0
C1360 C 0.09179 0.81575 0.63339 0.0
H1361 H 0.06187 0.82676 0.59283 0.0
H1362 H 0.0888 0.80328 0.60328 0.0
C1363 C 0.08509 0.83098 0.64652 0.0
C1364 C 0.44557 0.81825 0.85798 0.0
C1365 C 0.43117 0.81055 0.87167 0.0
H1366 H 0.47068 0.83857 0.8536 0.0
C1367 C 0.42953 0.81964 0.89085 0.0
H1368 H 0.44722 0.81165 0.84308 0.0
C1369 C 0.44298 0.83472 0.89683 0.0
C1370 C 0.4582 0.84148 0.88372 0.0
H1371 H 0.41852 0.81438 0.90177 0.0
H1372 H 0.44203 0.84051 0.91214 0.0
C1373 C 0.45894 0.83371 0.86394 0.0
C1374 C 0.45389 0.17934 0.14044 0.0
C1375 C 0.46301 0.18094 0.12127 0.0
H1376 H 0.43299 0.19189 0.16168 0.0
C1377 C 0.45533 0.19532 0.10754 0.0
H1378 H 0.45914 0.16835 0.15139 0.0
C1379 C 0.43986 0.2087 0.11345 0.0
C1380 C 0.43207 0.208 0.13323 0.0
H1381 H 0.46195 0.19694 0.09265 0.0
H1382 H 0.43502 0.22042 0.10309 0.0
C1383 C 0.4388 0.1928 0.14638 0.0
C1384 C 0.08072 0.83465 0.12716 0.0
C1385 C 0.06548 0.84138 0.14028 0.0
H1386 H 0.10519 0.81433 0.12222 0.0
C1387 C 0.06475 0.83359 0.16005 0.0
H1388 H 0.08167 0.84045 0.11186 0.0
C1389 C 0.07813 0.81813 0.166 0.0
C1390 C 0.09254 0.81046 0.15231 0.0
H1391 H 0.053 0.83843 0.17039 0.0
H1392 H 0.07648 0.81152 0.18089 0.0
C1393 C 0.09417 0.81957 0.13314 0.0
C1394 C 0.4402 0.81512 0.41026 0.0
C1395 C 0.43236 0.81586 0.39051 0.0
H1396 H 0.46236 0.82681 0.43103 0.0
C1397 C 0.43908 0.83107 0.37737 0.0
H1398 H 0.43537 0.80339 0.42062 0.0
C1399 C 0.4542 0.8445 0.38329 0.0
C1400 C 0.46337 0.84285 0.40243 0.0
H1401 H 0.43323 0.83202 0.36209 0.0
H1402 H 0.45944 0.8555 0.37235 0.0
C1403 C 0.4557 0.82846 0.41616 0.0
C1404 C 0.42951 0.2042 0.63345 0.0
C1405 C 0.43115 0.21333 0.65261 0.0
H1406 H 0.44201 0.18332 0.61217 0.0
C1407 C 0.44558 0.20567 0.6663 0.0
H1408 H 0.41847 0.20943 0.62253 0.0
C1409 C 0.45896 0.19021 0.66034 0.0
C1410 C 0.45822 0.18242 0.64057 0.0
H1411 H 0.44724 0.21229 0.68118 0.0
H1412 H 0.47073 0.18539 0.67067 0.0
C1413 C 0.44297 0.18913 0.62747 0.0
C1414 C 0.08369 0.20897 0.91037 0.0
C1415 C 0.09151 0.20818 0.89061 0.0
H1416 H 0.06158 0.1973 0.9312 0.0
C1417 C 0.08481 0.19291 0.87752 0.0
H1418 H 0.08851 0.22074 0.92068 0.0
C1419 C 0.06972 0.17947 0.88351 0.0
C1420 C 0.06057 0.18116 0.90265 0.0
H1421 H 0.09064 0.19192 0.86223 0.0
H1422 H 0.0645 0.16842 0.87261 0.0
C1423 C 0.06822 0.19561 0.91633 0.0
C1424 C 0.36345 0.06484 0.19001 0.0
C1425 C 0.38322 0.06557 0.1822 0.0
H1426 H 0.34264 0.07658 0.2121 0.0
C1427 C 0.39634 0.08082 0.1889 0.0
H1428 H 0.35311 0.05309 0.18519 0.0
C1429 C 0.39037 0.09428 0.20397 0.0
C1430 C 0.37122 0.09265 0.21311 0.0
H1431 H 0.41163 0.08176 0.18308 0.0
H1432 H 0.4013 0.10531 0.2092 0.0
C1433 C 0.35752 0.07823 0.20546 0.0
C1434 C 0.19568 0.10784 0.4555 0.0
C1435 C 0.18127 0.12153 0.46319 0.0
H1436 H 0.2208 0.10345 0.4352 0.0
C1437 C 0.17962 0.14069 0.45407 0.0
H1438 H 0.19734 0.09295 0.46212 0.0
C1439 C 0.19306 0.14667 0.43898 0.0
C1440 C 0.2083 0.13356 0.43225 0.0
H1441 H 0.16859 0.15161 0.45932 0.0
H1442 H 0.1921 0.16197 0.43318 0.0
C1443 C 0.20905 0.11379 0.44003 0.0
C1444 C 0.12759 0.94305 0.68887 0.0
C1445 C 0.1407 0.95831 0.68218 0.0
H1446 H 0.12264 0.91856 0.70917 0.0
C1447 C 0.16046 0.95906 0.69 0.0
H1448 H 0.1123 0.94209 0.68304 0.0
C1449 C 0.16639 0.94569 0.70547 0.0
C1450 C 0.1527 0.93125 0.71311 0.0
H1451 H 0.17079 0.97083 0.68519 0.0
H1452 H 0.18126 0.94735 0.71211 0.0
C1453 C 0.13356 0.9296 0.70395 0.0
C1454 C 0.31487 0.91014 0.94004 0.0
C1455 C 0.31557 0.89034 0.93231 0.0
H1456 H 0.3266 0.931 0.96209 0.0
C1457 C 0.33075 0.8772 0.9391 0.0
H1458 H 0.30316 0.9205 0.93515 0.0
C1459 C 0.34419 0.88318 0.95419 0.0
C1460 C 0.34258 0.90237 0.96326 0.0
H1461 H 0.33167 0.86189 0.93334 0.0
H1462 H 0.35517 0.87224 0.95949 0.0
C1463 C 0.32822 0.91609 0.95551 0.0
C1464 C 0.39628 0.94302 0.33488 0.0
C1465 C 0.38322 0.95831 0.34159 0.0
H1466 H 0.40115 0.91851 0.31459 0.0
C1467 C 0.36345 0.95911 0.3338 0.0
H1468 H 0.41158 0.94203 0.34069 0.0
C1469 C 0.35746 0.94574 0.31835 0.0
C1470 C 0.37111 0.93127 0.31069 0.0
H1471 H 0.35315 0.9709 0.33862 0.0
H1472 H 0.34258 0.94743 0.31173 0.0
C1473 C 0.39026 0.92957 0.31982 0.0
C1474 C 0.31494 0.11381 0.58366 0.0
C1475 C 0.31567 0.13358 0.59148 0.0
H1476 H 0.32665 0.09301 0.56155 0.0
C1477 C 0.3309 0.1467 0.58476 0.0
H1478 H 0.30319 0.10347 0.58849 0.0
C1479 C 0.34435 0.14075 0.56967 0.0
C1480 C 0.34271 0.1216 0.56052 0.0
H1481 H 0.33185 0.16199 0.59059 0.0
H1482 H 0.35536 0.15168 0.56443 0.0
C1483 C 0.3283 0.10789 0.56819 0.0
C1484 C 0.12754 0.08095 0.83484 0.0
C1485 C 0.14063 0.06569 0.84155 0.0
H1486 H 0.12262 0.10544 0.81452 0.0
C1487 C 0.16039 0.06492 0.83375 0.0
H1488 H 0.11225 0.08192 0.84066 0.0
C1489 C 0.16635 0.07828 0.81828 0.0
C1490 C 0.15268 0.09272 0.81062 0.0
H1491 H 0.17071 0.05315 0.83857 0.0
H1492 H 0.18123 0.07661 0.81165 0.0
C1493 C 0.13352 0.0944 0.81976 0.0
C1494 C 0.20875 0.91027 0.0838 0.0
C1495 C 0.20802 0.89049 0.09159 0.0
H1496 H 0.19705 0.93109 0.06169 0.0
C1497 C 0.19281 0.87736 0.08483 0.0
H1498 H 0.22047 0.92062 0.08866 0.0
C1499 C 0.17939 0.88332 0.06972 0.0
C1500 C 0.18102 0.90249 0.0606 0.0
H1501 H 0.19187 0.86206 0.09063 0.0
H1502 H 0.16839 0.87239 0.06445 0.0
C1503 C 0.1954 0.9162 0.06831 0.0
C1504 C 0.20406 0.39044 0.09412 0.0
C1505 C 0.21313 0.37125 0.09249 0.0
H1506 H 0.18321 0.41175 0.08162 0.0
C1507 C 0.20541 0.35756 0.07809 0.0
H1508 H 0.20934 0.40136 0.10512 0.0
C1509 C 0.18994 0.36353 0.06473 0.0
C1510 C 0.18221 0.38333 0.06546 0.0
H1511 H 0.21199 0.34265 0.07645 0.0
H1512 H 0.18507 0.35319 0.053 0.0
C1513 C 0.18898 0.39644 0.08067 0.0
C1514 C 0.68902 0.12725 0.94325 0.0
C1515 C 0.68228 0.14037 0.95848 0.0
H1516 H 0.70937 0.12231 0.9188 0.0
C1517 C 0.69005 0.16015 0.95921 0.0
H1518 H 0.68322 0.11195 0.9423 0.0
C1519 C 0.70552 0.1661 0.94585 0.0
C1520 C 0.71322 0.1524 0.93145 0.0
H1521 H 0.6852 0.17049 0.97096 0.0
H1522 H 0.71213 0.18099 0.9475 0.0
C1523 C 0.70411 0.13323 0.92981 0.0
C1524 C 0.14662 0.43892 0.19283 0.0
C1525 C 0.13349 0.43218 0.20804 0.0
H1526 H 0.1516 0.45928 0.16839 0.0
C1527 C 0.11372 0.43997 0.20877 0.0
H1528 H 0.16192 0.43311 0.19189 0.0
C1529 C 0.10779 0.45545 0.19541 0.0
C1530 C 0.1215 0.46314 0.18102 0.0
H1531 H 0.10337 0.43512 0.2205 0.0
H1532 H 0.0929 0.46207 0.19705 0.0
C1533 C 0.14066 0.45402 0.17939 0.0
C1534 C 0.81996 0.89039 0.42982 0.0
C1535 C 0.81075 0.87127 0.43154 0.0
H1536 H 0.84089 0.91164 0.44229 0.0
C1537 C 0.81832 0.85762 0.44605 0.0
H1538 H 0.81481 0.90127 0.41872 0.0
C1539 C 0.83376 0.86357 0.45945 0.0
C1540 C 0.84163 0.88331 0.45863 0.0
H1541 H 0.81162 0.84277 0.44776 0.0
H1542 H 0.8385 0.85328 0.47127 0.0
C1543 C 0.83502 0.89637 0.4433 0.0
C1544 C 0.91027 0.08361 0.20913 0.0
C1545 C 0.89049 0.0914 0.20837 0.0
H1546 H 0.93111 0.06153 0.19743 0.0
C1547 C 0.8774 0.08468 0.19312 0.0
H1548 H 0.92059 0.08844 0.2209 0.0
C1549 C 0.88339 0.0696 0.17967 0.0
C1550 C 0.90255 0.06048 0.18133 0.0
H1551 H 0.8621 0.09049 0.19215 0.0
H1552 H 0.87248 0.06437 0.16863 0.0
C1553 C 0.91623 0.06815 0.19576 0.0
C1554 C 0.31979 0.63329 0.59416 0.0
C1555 C 0.31067 0.65246 0.59254 0.0
H1556 H 0.34068 0.61203 0.58163 0.0
C1557 C 0.31836 0.66617 0.57815 0.0
H1558 H 0.31453 0.62235 0.60516 0.0
C1559 C 0.33383 0.66024 0.56478 0.0
C1560 C 0.34161 0.64047 0.56549 0.0
H1561 H 0.31175 0.68107 0.57652 0.0
H1562 H 0.33868 0.6706 0.55305 0.0
C1563 C 0.33487 0.62733 0.5807 0.0
C1564 C 0.11376 0.58369 0.31469 0.0
C1565 C 0.13354 0.59147 0.31544 0.0
H1566 H 0.09291 0.56161 0.32638 0.0
C1567 C 0.14665 0.58471 0.33066 0.0
H1568 H 0.10343 0.58855 0.30295 0.0
C1569 C 0.14067 0.56961 0.34409 0.0
C1570 C 0.1215 0.56051 0.34245 0.0
H1571 H 0.16195 0.5905 0.33162 0.0
H1572 H 0.15159 0.56435 0.35511 0.0
C1573 C 0.1078 0.56822 0.32804 0.0
C1574 C 0.38301 0.45426 0.84419 0.0
C1575 C 0.40219 0.46335 0.84259 0.0
H1576 H 0.36173 0.43341 0.83165 0.0
C1577 C 0.4159 0.45565 0.8282 0.0
H1578 H 0.37208 0.45952 0.85519 0.0
C1579 C 0.40996 0.4402 0.81482 0.0
C1580 C 0.39017 0.43245 0.81551 0.0
H1581 H 0.43081 0.46224 0.82658 0.0
H1582 H 0.42031 0.43535 0.80309 0.0
C1583 C 0.37704 0.43919 0.83072 0.0
C1584 C 0.94584 0.81832 0.66628 0.0
C1585 C 0.93139 0.81072 0.65258 0.0
H1586 H 0.97099 0.83857 0.6707 0.0
C1587 C 0.92972 0.81993 0.63346 0.0
H1588 H 0.94752 0.81163 0.68113 0.0
C1589 C 0.94317 0.83502 0.62752 0.0
C1590 C 0.95844 0.84167 0.64063 0.0
H1591 H 0.91867 0.81474 0.62254 0.0
H1592 H 0.9422 0.84089 0.61225 0.0
C1593 C 0.95921 0.8338 0.66037 0.0
C1594 C 0.95393 0.17955 0.38353 0.0
C1595 C 0.96312 0.18126 0.40266 0.0
H1596 H 0.93296 0.19198 0.36229 0.0
C1597 C 0.9555 0.19573 0.41633 0.0
H1598 H 0.95912 0.16848 0.37264 0.0
C1599 C 0.94002 0.20909 0.41038 0.0
C1600 C 0.93216 0.20828 0.39064 0.0
H1601 H 0.96218 0.19744 0.43118 0.0
H1602 H 0.93524 0.22088 0.42069 0.0
C1603 C 0.93883 0.19299 0.37757 0.0
C1604 C 0.58063 0.18883 0.12739 0.0
C1605 C 0.56539 0.1821 0.1405 0.0
H1606 H 0.60509 0.20918 0.12245 0.0
C1607 C 0.56463 0.18991 0.16026 0.0
H1608 H 0.5816 0.18301 0.1121 0.0
C1609 C 0.57797 0.2054 0.16621 0.0
C1610 C 0.59239 0.21307 0.15252 0.0
H1611 H 0.55287 0.18508 0.17059 0.0
H1612 H 0.5763 0.21203 0.18109 0.0
C1613 C 0.59406 0.20393 0.13336 0.0
C1614 C 0.58485 0.83085 0.87778 0.0
C1615 C 0.59153 0.81557 0.89087 0.0
H1616 H 0.56456 0.85536 0.87286 0.0
C1617 C 0.5837 0.81478 0.91062 0.0
H1618 H 0.59069 0.83184 0.8625 0.0
C1619 C 0.56824 0.82815 0.91658 0.0
C1620 C 0.5606 0.84261 0.9029 0.0
H1621 H 0.5885 0.803 0.92093 0.0
H1622 H 0.56159 0.82646 0.93144 0.0
C1623 C 0.56977 0.8443 0.88376 0.0
C1624 C 0.95896 0.19002 0.86367 0.0
C1625 C 0.95818 0.18222 0.88344 0.0
H1626 H 0.94729 0.21212 0.84283 0.0
C1627 C 0.94292 0.18893 0.89653 0.0
H1628 H 0.97073 0.18519 0.85336 0.0
C1629 C 0.92948 0.20402 0.89054 0.0
C1630 C 0.93116 0.21316 0.87138 0.0
H1631 H 0.94194 0.18312 0.91182 0.0
H1632 H 0.91844 0.20926 0.90144 0.0
C1633 C 0.9456 0.20549 0.85771 0.0
C1634 C 0.56828 0.19588 0.60775 0.0
C1635 C 0.56064 0.18141 0.62141 0.0
H1636 H 0.58856 0.22103 0.60342 0.0
C1637 C 0.56981 0.1797 0.64055 0.0
H1638 H 0.56163 0.19759 0.59289 0.0
C1639 C 0.5849 0.19313 0.64654 0.0
C1640 C 0.59159 0.20842 0.63347 0.0
H1641 H 0.5646 0.16863 0.65144 0.0
H1642 H 0.59075 0.19212 0.66182 0.0
C1643 C 0.58376 0.20923 0.61372 0.0
C1644 C 0.56497 0.83381 0.36339 0.0
C1645 C 0.56577 0.84167 0.38313 0.0
H1646 H 0.57662 0.81164 0.3426 0.0
C1647 C 0.58104 0.83498 0.39622 0.0
H1648 H 0.55319 0.83861 0.35307 0.0
C1649 C 0.59447 0.81988 0.39026 0.0
C1650 C 0.59277 0.81068 0.37114 0.0
H1651 H 0.58204 0.84085 0.4115 0.0
H1652 H 0.60552 0.81467 0.40117 0.0
C1653 C 0.57832 0.81832 0.35746 0.0
C1654 C 0.93998 0.81466 0.1134 0.0
C1655 C 0.93216 0.81544 0.13316 0.0
H1656 H 0.9621 0.82634 0.09258 0.0
C1657 C 0.93884 0.83072 0.14624 0.0
H1658 H 0.93519 0.80287 0.10309 0.0
C1659 C 0.95391 0.84418 0.14026 0.0
C1660 C 0.96308 0.84249 0.12112 0.0
H1661 H 0.933 0.83171 0.16152 0.0
H1662 H 0.95912 0.85523 0.15116 0.0
C1663 C 0.95544 0.82803 0.10744 0.0
C1664 C 0.62713 0.94301 0.83508 0.0
C1665 C 0.64024 0.95825 0.8418 0.0
H1666 H 0.62217 0.91853 0.81476 0.0
C1667 C 0.66 0.959 0.83398 0.0
H1668 H 0.61184 0.94205 0.84091 0.0
C1669 C 0.66594 0.94564 0.81851 0.0
C1670 C 0.65224 0.93121 0.81085 0.0
H1671 H 0.67034 0.97076 0.8388 0.0
H1672 H 0.68081 0.9473 0.81187 0.0
C1673 C 0.63309 0.92956 0.82 0.0
C1674 C 0.82814 0.91637 0.56859 0.0
C1675 C 0.84266 0.90271 0.56103 0.0
H1676 H 0.80293 0.92072 0.58878 0.0
C1677 C 0.8444 0.88362 0.57028 0.0
H1678 H 0.82641 0.9312 0.56187 0.0
C1679 C 0.83095 0.87765 0.58536 0.0
C1680 C 0.81561 0.89071 0.59196 0.0
H1681 H 0.85551 0.87273 0.56513 0.0
H1682 H 0.83197 0.86239 0.59126 0.0
C1683 C 0.81477 0.91043 0.58405 0.0
C1684 C 0.86367 0.06453 0.33386 0.0
C1685 C 0.88343 0.06532 0.34167 0.0
H1686 H 0.84282 0.07621 0.31177 0.0
C1687 C 0.8965 0.08061 0.33498 0.0
H1688 H 0.85337 0.05274 0.33867 0.0
C1689 C 0.8905 0.09407 0.31992 0.0
C1690 C 0.87135 0.09237 0.31077 0.0
H1691 H 0.91179 0.08161 0.34081 0.0
H1692 H 0.90139 0.10513 0.3147 0.0
C1693 C 0.8577 0.0779 0.31841 0.0
C1694 C 0.67946 0.14041 0.07002 0.0
C1695 C 0.68111 0.12125 0.06088 0.0
H1696 H 0.69194 0.16168 0.09091 0.0
C1697 C 0.69554 0.10756 0.06856 0.0
H1698 H 0.66843 0.15132 0.06478 0.0
C1699 C 0.7089 0.11351 0.08402 0.0
C1700 C 0.70815 0.13328 0.09182 0.0
H1701 H 0.6972 0.09268 0.06193 0.0
H1702 H 0.72066 0.10318 0.08885 0.0
C1703 C 0.6929 0.14638 0.0851 0.0
C1704 C 0.62735 0.08087 0.68924 0.0
C1705 C 0.64044 0.06559 0.68256 0.0
H1706 H 0.62241 0.10536 0.70954 0.0
C1707 C 0.66018 0.0648 0.69041 0.0
H1708 H 0.61207 0.08186 0.68338 0.0
C1709 C 0.66612 0.07816 0.70589 0.0
C1710 C 0.65244 0.09261 0.71352 0.0
H1711 H 0.6705 0.05302 0.68562 0.0
H1712 H 0.68098 0.07646 0.71256 0.0
C1713 C 0.63331 0.09431 0.70433 0.0
C1714 C 0.70927 0.9104 0.44029 0.0
C1715 C 0.70842 0.89067 0.4324 0.0
H1716 H 0.69765 0.9312 0.46245 0.0
C1717 C 0.69308 0.87763 0.43902 0.0
H1718 H 0.72111 0.92068 0.43554 0.0
C1719 C 0.67963 0.88362 0.4541 0.0
C1720 C 0.68138 0.90273 0.46333 0.0
H1721 H 0.69204 0.86237 0.43314 0.0
H1722 H 0.66852 0.87275 0.45927 0.0
C1723 C 0.69591 0.91637 0.45575 0.0
C1724 C 0.89668 0.94282 0.18911 0.0
C1725 C 0.88354 0.95806 0.18242 0.0
H1726 H 0.90168 0.91835 0.20942 0.0
C1727 C 0.86379 0.95879 0.19026 0.0
H1728 H 0.91196 0.94188 0.18327 0.0
C1729 C 0.85788 0.94541 0.20574 0.0
C1730 C 0.8716 0.931 0.21338 0.0
H1731 H 0.85344 0.97054 0.18545 0.0
H1732 H 0.84301 0.94706 0.21239 0.0
C1733 C 0.89074 0.92937 0.20421 0.0
C1734 C 0.82825 0.10766 0.95584 0.0
C1735 C 0.84266 0.12137 0.96351 0.0
H1736 H 0.80315 0.10324 0.93553 0.0
C1737 C 0.84429 0.14052 0.95437 0.0
H1738 H 0.82661 0.09278 0.96247 0.0
C1739 C 0.83085 0.14648 0.93927 0.0
C1740 C 0.81563 0.13335 0.93255 0.0
H1741 H 0.85531 0.15146 0.95961 0.0
H1742 H 0.8318 0.16177 0.93345 0.0
C1743 C 0.81489 0.11358 0.94035 0.0
C1744 C 0.81966 0.63312 0.92958 0.0
C1745 C 0.81051 0.65227 0.93123 0.0
H1746 H 0.84058 0.61187 0.94207 0.0
C1747 C 0.81817 0.66597 0.94566 0.0
H1748 H 0.81443 0.6222 0.91855 0.0
C1749 C 0.83365 0.66003 0.95902 0.0
C1750 C 0.84146 0.64027 0.95827 0.0
H1751 H 0.81153 0.68085 0.94732 0.0
H1752 H 0.83847 0.67037 0.97078 0.0
C1753 C 0.83475 0.62716 0.94303 0.0
C1754 C 0.31948 0.89066 0.09433 0.0
C1755 C 0.31041 0.87147 0.09276 0.0
H1756 H 0.34033 0.91194 0.08178 0.0
C1757 C 0.31815 0.85773 0.07841 0.0
H1758 H 0.31419 0.90162 0.1053 0.0
C1759 C 0.33362 0.86367 0.06504 0.0
C1760 C 0.34135 0.88346 0.06571 0.0
H1761 H 0.31157 0.84282 0.07681 0.0
H1762 H 0.3385 0.85329 0.05334 0.0
C1763 C 0.33457 0.89662 0.08088 0.0
C1764 C 0.88354 0.56985 0.84432 0.0
C1765 C 0.9027 0.56071 0.84264 0.0
H1766 H 0.86226 0.59074 0.83184 0.0
C1767 C 0.91637 0.56837 0.8282 0.0
H1768 H 0.87264 0.56462 0.85536 0.0
C1769 C 0.91041 0.58383 0.81483 0.0
C1770 C 0.89064 0.59163 0.8156 0.0
H1771 H 0.93125 0.56174 0.82652 0.0
H1772 H 0.92072 0.58865 0.80306 0.0
C1773 C 0.87755 0.58493 0.83087 0.0
C1774 C 0.18905 0.1275 0.58083 0.0
C1775 C 0.18232 0.14062 0.5656 0.0
H1776 H 0.20939 0.12255 0.6053 0.0
C1777 C 0.19011 0.16039 0.56486 0.0
H1778 H 0.18325 0.11221 0.58178 0.0
C1779 C 0.20558 0.16634 0.57823 0.0
C1780 C 0.21326 0.15264 0.59264 0.0
H1781 H 0.18527 0.17073 0.55312 0.0
H1782 H 0.21219 0.18122 0.57658 0.0
C1783 C 0.20414 0.13348 0.59428 0.0
C1784 C 0.11372 0.94017 0.81474 0.0
C1785 C 0.13349 0.93236 0.81551 0.0
H1786 H 0.09289 0.96226 0.82644 0.0
C1787 C 0.14659 0.93907 0.83076 0.0
H1788 H 0.1034 0.93534 0.80298 0.0
C1789 C 0.14061 0.95416 0.84421 0.0
C1790 C 0.12146 0.96329 0.84255 0.0
H1791 H 0.16188 0.93325 0.83173 0.0
H1792 H 0.15152 0.95939 0.85524 0.0
C1793 C 0.10777 0.95563 0.82811 0.0
C1794 C 0.68878 0.39648 0.44308 0.0
C1795 C 0.68215 0.38342 0.4584 0.0
H1796 H 0.70902 0.40138 0.41852 0.0
C1797 C 0.69002 0.36369 0.45922 0.0
H1798 H 0.68291 0.41175 0.44206 0.0
C1799 C 0.70547 0.35773 0.44584 0.0
C1800 C 0.71306 0.37138 0.43133 0.0
H1801 H 0.68526 0.35339 0.47104 0.0
H1802 H 0.71216 0.34288 0.44756 0.0
C1803 C 0.70385 0.39049 0.42961 0.0
C1804 C 0.88381 0.45394 0.67936 0.0
C1805 C 0.90291 0.46318 0.68108 0.0
H1806 H 0.8626 0.43295 0.69178 0.0
C1807 C 0.91658 0.4556 0.69557 0.0
H1808 H 0.87291 0.45911 0.66827 0.0
C1809 C 0.91066 0.44012 0.70893 0.0
C1810 C 0.89094 0.43222 0.70811 0.0
H1811 H 0.93142 0.46232 0.69729 0.0
H1812 H 0.92097 0.43537 0.72074 0.0
C1813 C 0.87786 0.43884 0.6928 0.0
C1814 C 0.64607 0.58476 0.1928 0.0
C1815 C 0.63299 0.59148 0.20806 0.0
H1816 H 0.651 0.56443 0.16833 0.0
C1817 C 0.61322 0.58369 0.20883 0.0
H1818 H 0.66137 0.59058 0.19183 0.0
C1819 C 0.60726 0.56821 0.19548 0.0
C1820 C 0.62093 0.56054 0.18104 0.0
H1821 H 0.6029 0.58852 0.2206 0.0
H1822 H 0.59238 0.56158 0.19716 0.0
C1823 C 0.64009 0.56967 0.17937 0.0
C1824 C 0.59415 0.70402 0.89074 0.0
C1825 C 0.5925 0.71317 0.87159 0.0
H1826 H 0.58167 0.68309 0.91199 0.0
C1827 C 0.57808 0.70551 0.85789 0.0
H1828 H 0.60518 0.70925 0.90167 0.0
C1829 C 0.56472 0.69003 0.86382 0.0
C1830 C 0.56547 0.68221 0.88358 0.0
H1831 H 0.57642 0.71216 0.84302 0.0
H1832 H 0.55297 0.68521 0.85348 0.0
C1833 C 0.58071 0.68892 0.8967 0.0
C1834 C 0.56951 0.34417 0.14035 0.0
C1835 C 0.56043 0.34252 0.12117 0.0
H1836 H 0.59035 0.33168 0.16168 0.0
C1837 C 0.56814 0.32809 0.1075 0.0
H1838 H 0.56424 0.3552 0.15125 0.0
C1839 C 0.58359 0.31472 0.11349 0.0
C1840 C 0.59133 0.31548 0.13328 0.0
H1841 H 0.56156 0.32643 0.0926 0.0
H1842 H 0.58845 0.30297 0.10317 0.0
C1843 C 0.58458 0.33072 0.14637 0.0
C1844 C 0.94283 0.33498 0.39622 0.0
C1845 C 0.95809 0.34163 0.3831 0.0
H1846 H 0.91834 0.3147 0.40124 0.0
C1847 C 0.95885 0.33373 0.36337 0.0
H1848 H 0.94186 0.34087 0.41149 0.0
C1849 C 0.94548 0.31825 0.35748 0.0
C1850 C 0.93104 0.31065 0.3712 0.0
H1851 H 0.97062 0.3385 0.35302 0.0
H1852 H 0.94715 0.31155 0.34263 0.0
C1853 C 0.92938 0.31988 0.39031 0.0
C1854 C 0.95419 0.67962 0.64022 0.0
C1855 C 0.96337 0.68134 0.6211 0.0
H1856 H 0.93325 0.69204 0.66149 0.0
C1857 C 0.95575 0.69582 0.60744 0.0
H1858 H 0.95939 0.66854 0.65111 0.0
C1859 C 0.94027 0.70918 0.61341 0.0
C1860 C 0.93243 0.70836 0.63315 0.0
H1861 H 0.96241 0.69754 0.59258 0.0
H1862 H 0.93548 0.72098 0.60311 0.0
C1863 C 0.9391 0.69306 0.64622 0.0
C1864 C 0.58091 0.33509 0.62782 0.0
C1865 C 0.56561 0.34173 0.6409 0.0
H1866 H 0.60544 0.31483 0.62287 0.0
C1867 C 0.5648 0.33385 0.66063 0.0
H1868 H 0.58192 0.34098 0.61255 0.0
C1869 C 0.57817 0.31837 0.66656 0.0
C1870 C 0.59265 0.31078 0.65289 0.0
H1871 H 0.553 0.33861 0.67094 0.0
H1872 H 0.57646 0.31167 0.6814 0.0
C1873 C 0.59436 0.32 0.63378 0.0
C1874 C 0.95394 0.34429 0.88339 0.0
C1875 C 0.96307 0.34264 0.90255 0.0
H1876 H 0.93304 0.3318 0.86212 0.0
C1877 C 0.95541 0.32821 0.91624 0.0
H1878 H 0.95917 0.35533 0.87248 0.0
C1879 C 0.93995 0.31483 0.91029 0.0
C1880 C 0.93216 0.31558 0.89052 0.0
H1881 H 0.96205 0.32655 0.93112 0.0
H1882 H 0.93514 0.30307 0.92062 0.0
C1883 C 0.93886 0.33084 0.87742 0.0
C1884 C 0.94303 0.68882 0.12722 0.0
C1885 C 0.95827 0.6821 0.14032 0.0
H1886 H 0.91854 0.70914 0.12229 0.0
C1887 C 0.95903 0.6899 0.16009 0.0
H1888 H 0.94206 0.68301 0.11193 0.0
C1889 C 0.94566 0.70537 0.16605 0.0
C1890 C 0.93123 0.71304 0.15236 0.0
H1891 H 0.97079 0.68508 0.17042 0.0
H1892 H 0.94733 0.712 0.18093 0.0
C1893 C 0.92958 0.7039 0.1332 0.0
C1894 C 0.56844 0.69571 0.41622 0.0
C1895 C 0.56074 0.68129 0.40255 0.0
H1896 H 0.58876 0.72082 0.42057 0.0
C1897 C 0.56985 0.67962 0.38338 0.0
H1898 H 0.56183 0.69739 0.43111 0.0
C1899 C 0.58494 0.69305 0.37738 0.0
C1900 C 0.59169 0.70829 0.39047 0.0
H1901 H 0.56458 0.66859 0.37247 0.0
H1902 H 0.59073 0.69207 0.36208 0.0
C1903 C 0.58391 0.70906 0.41025 0.0
C1904 C 0.89057 0.59428 0.70403 0.0
C1905 C 0.87143 0.59258 0.71319 0.0
H1906 H 0.91184 0.58185 0.6831 0.0
C1907 C 0.85777 0.57812 0.70555 0.0
H1908 H 0.90147 0.60534 0.70924 0.0
C1909 C 0.86373 0.56476 0.69008 0.0
C1910 C 0.88349 0.56556 0.68225 0.0
H1911 H 0.84291 0.57642 0.7122 0.0
H1912 H 0.85343 0.55297 0.68527 0.0
C1913 C 0.89656 0.58084 0.68894 0.0
C1914 C 0.69285 0.64609 0.93886 0.0
C1915 C 0.70813 0.63301 0.93218 0.0
H1916 H 0.66835 0.65101 0.95916 0.0
C1917 C 0.70892 0.61326 0.94001 0.0
H1918 H 0.69185 0.66137 0.93302 0.0
C1919 C 0.69556 0.6073 0.95548 0.0
C1920 C 0.6811 0.62097 0.96312 0.0
H1921 H 0.72071 0.60295 0.93522 0.0
H1922 H 0.69726 0.59244 0.96214 0.0
C1923 C 0.6794 0.64011 0.95395 0.0
C1924 C 0.63275 0.42948 0.2042 0.0
C1925 C 0.65192 0.43109 0.21331 0.0
H1926 H 0.6115 0.44199 0.18329 0.0
C1927 C 0.66564 0.44547 0.20561 0.0
H1928 H 0.62181 0.41849 0.20946 0.0
C1929 C 0.65972 0.45882 0.19012 0.0
C1930 C 0.63995 0.45811 0.18233 0.0
H1931 H 0.68054 0.4471 0.21222 0.0
H1932 H 0.67008 0.47054 0.18526 0.0
C1933 C 0.6268 0.44292 0.18909 0.0
C1934 C 0.81459 0.41046 0.44001 0.0
C1935 C 0.81543 0.39074 0.43211 0.0
H1936 H 0.82625 0.43125 0.46216 0.0
C1937 C 0.83078 0.37769 0.4387 0.0
H1938 H 0.80275 0.42074 0.43528 0.0
C1939 C 0.84425 0.38367 0.45377 0.0
C1940 C 0.84251 0.40277 0.463 0.0
H1941 H 0.83181 0.36243 0.43281 0.0
H1942 H 0.85536 0.3728 0.45891 0.0
C1943 C 0.82798 0.41642 0.45545 0.0
C1944 C 0.89085 0.42961 0.81964 0.0
C1945 C 0.87169 0.43123 0.8105 0.0
H1946 H 0.91209 0.44212 0.84055 0.0
C1947 C 0.85798 0.44563 0.81817 0.0
H1948 H 0.90179 0.4186 0.8144 0.0
C1949 C 0.8639 0.459 0.83364 0.0
C1950 C 0.88366 0.45828 0.84145 0.0
H1951 H 0.8431 0.44727 0.81153 0.0
H1952 H 0.85354 0.47074 0.83847 0.0
C1953 C 0.8968 0.44306 0.83473 0.0
C1954 C 0.83089 0.64616 0.08494 0.0
C1955 C 0.81564 0.63305 0.09163 0.0
H1956 H 0.85537 0.65113 0.06463 0.0
C1957 C 0.81488 0.6133 0.0838 0.0
H1958 H 0.83185 0.66145 0.09078 0.0
C1959 C 0.82825 0.60737 0.06832 0.0
C1960 C 0.84268 0.62107 0.06068 0.0
H1961 H 0.80312 0.60296 0.0886 0.0
H1962 H 0.82658 0.5925 0.06167 0.0
C1963 C 0.84434 0.64021 0.06985 0.0
C1964 C 0.66583 0.57806 0.31816 0.0
C1965 C 0.65214 0.59248 0.31047 0.0
H1966 H 0.67022 0.55297 0.33849 0.0
C1967 C 0.63298 0.59413 0.31959 0.0
H1968 H 0.68072 0.5764 0.31154 0.0
C1969 C 0.62701 0.5807 0.33469 0.0
C1970 C 0.64011 0.56548 0.34144 0.0
H1971 H 0.62206 0.60515 0.31433 0.0
H1972 H 0.61171 0.58167 0.3405 0.0
C1973 C 0.65988 0.56472 0.33364 0.0
C1974 C 0.67948 0.38373 0.57001 0.0
C1975 C 0.68121 0.40282 0.56077 0.0
H1976 H 0.69192 0.36249 0.59097 0.0
C1977 C 0.69574 0.41647 0.56832 0.0
H1978 H 0.66837 0.37285 0.56487 0.0
C1979 C 0.70913 0.41052 0.58377 0.0
C1980 C 0.70829 0.3908 0.59167 0.0
H1981 H 0.69747 0.43131 0.5616 0.0
H1982 H 0.72097 0.42081 0.58849 0.0
C1983 C 0.69295 0.37775 0.58508 0.0
C1984 C 0.70402 0.89047 0.59451 0.0
C1985 C 0.71323 0.87135 0.59279 0.0
H1986 H 0.68308 0.91172 0.58205 0.0
C1987 C 0.70565 0.8577 0.57829 0.0
H1988 H 0.70919 0.90135 0.6056 0.0
C1989 C 0.69019 0.86365 0.56491 0.0
C1990 C 0.68232 0.88339 0.56572 0.0
H1991 H 0.71233 0.84285 0.57658 0.0
H1992 H 0.68544 0.85335 0.55309 0.0
C1993 C 0.68895 0.89645 0.58104 0.0
C1994 C 0.20428 0.63336 0.42933 0.0
C1995 C 0.21337 0.65253 0.43099 0.0
H1996 H 0.18339 0.61206 0.4418 0.0
C1997 C 0.20567 0.66622 0.44539 0.0
H1998 H 0.20954 0.62244 0.41832 0.0
C1999 C 0.19019 0.66025 0.45874 0.0
C2000 C 0.18242 0.64047 0.45799 0.0
H2001 H 0.21227 0.68111 0.44705 0.0
H2002 H 0.18533 0.67059 0.47049 0.0
C2003 C 0.18918 0.62737 0.44277 0.0
C2004 C 0.61331 0.94013 0.70924 0.0
C2005 C 0.63304 0.93225 0.70844 0.0
H2006 H 0.59255 0.96232 0.69758 0.0
C2007 C 0.64613 0.93889 0.69315 0.0
H2008 H 0.603 0.93537 0.72104 0.0
C2009 C 0.64019 0.95399 0.6797 0.0
C2010 C 0.62108 0.96321 0.68141 0.0
H2011 H 0.6614 0.933 0.69216 0.0
H2012 H 0.6511 0.95916 0.66864 0.0
C2013 C 0.60739 0.95561 0.69587 0.0
C2014 C 0.3337 0.36359 0.95866 0.0
C2015 C 0.34146 0.38337 0.95797 0.0
H2016 H 0.31164 0.34275 0.94692 0.0
C2017 C 0.33469 0.39652 0.94278 0.0
H2018 H 0.33857 0.35322 0.97037 0.0
C2019 C 0.3196 0.39056 0.92933 0.0
C2020 C 0.31051 0.37138 0.93093 0.0
H2021 H 0.34047 0.41183 0.94186 0.0
H2022 H 0.31432 0.4015 0.91834 0.0
C2023 C 0.31823 0.35765 0.9453 0.0
C2024 C 0.38331 0.56996 0.67953 0.0
C2025 C 0.40246 0.56082 0.68119 0.0
H2026 H 0.36203 0.59086 0.692 0.0
C2027 C 0.41614 0.56848 0.69564 0.0
H2028 H 0.37241 0.56473 0.66848 0.0
C2029 C 0.41018 0.58394 0.70901 0.0
C2030 C 0.39042 0.59174 0.70824 0.0
H2031 H 0.43102 0.56185 0.69731 0.0
H2032 H 0.4205 0.58876 0.72078 0.0
C2033 C 0.37733 0.58504 0.69298 0.0
C2034 C 0.81822 0.16621 0.07849 0.0
C2035 C 0.81056 0.15252 0.09292 0.0
H2036 H 0.83853 0.17062 0.05338 0.0
C2037 C 0.81973 0.13338 0.09459 0.0
H2038 H 0.81157 0.18108 0.07682 0.0
C2039 C 0.83484 0.12742 0.08115 0.0
C2040 C 0.84155 0.14053 0.06591 0.0
H2041 H 0.8145 0.12245 0.10562 0.0
H2042 H 0.84068 0.11214 0.08213 0.0
C2043 C 0.83371 0.16028 0.06514 0.0
C2044 C 0.64025 0.06982 0.84463 0.0
C2045 C 0.62111 0.06067 0.84294 0.0
H2046 H 0.66153 0.09074 0.83218 0.0
C2047 C 0.60744 0.06832 0.82849 0.0
H2048 H 0.65115 0.0646 0.85569 0.0
C2049 C 0.6134 0.08379 0.81513 0.0
C2050 C 0.63316 0.0916 0.81591 0.0
H2051 H 0.59257 0.06167 0.82679 0.0
H2052 H 0.60309 0.0886 0.80334 0.0
C2053 C 0.64624 0.08491 0.83119 0.0
C2054 C 0.88381 0.95368 0.34453 0.0
C2055 C 0.9029 0.96293 0.3428 0.0
H2056 H 0.8626 0.93268 0.33211 0.0
C2057 C 0.91657 0.95536 0.32831 0.0
H2058 H 0.87291 0.95884 0.35562 0.0
C2059 C 0.91065 0.93988 0.31494 0.0
C2060 C 0.89093 0.93197 0.31577 0.0
H2061 H 0.9314 0.96209 0.32658 0.0
H2062 H 0.92095 0.93514 0.30312 0.0
C2063 C 0.87786 0.93858 0.33109 0.0
C2064 C 0.45868 0.33368 0.15986 0.0
C2065 C 0.45801 0.34139 0.14006 0.0
H2066 H 0.44691 0.31166 0.18074 0.0
C2067 C 0.44284 0.33458 0.12691 0.0
H2068 H 0.47037 0.33858 0.17023 0.0
C2069 C 0.42939 0.3195 0.13289 0.0
C2070 C 0.43097 0.31046 0.15209 0.0
H2071 H 0.44194 0.34033 0.11158 0.0
H2072 H 0.41843 0.31419 0.12194 0.0
C2073 C 0.44531 0.31822 0.16582 0.0
C2074 C 0.43886 0.69288 0.8776 0.0
C2075 C 0.43215 0.70813 0.89071 0.0
H2076 H 0.45917 0.6684 0.87265 0.0
C2077 C 0.43996 0.70888 0.91047 0.0
H2078 H 0.43304 0.69192 0.8623 0.0
C2079 C 0.45542 0.6955 0.91642 0.0
C2080 C 0.46308 0.68108 0.90272 0.0
H2081 H 0.43514 0.72064 0.9208 0.0
H2082 H 0.46206 0.69716 0.93129 0.0
C2083 C 0.45394 0.67943 0.88357 0.0
C2084 C 0.06502 0.69017 0.66008 0.0
C2085 C 0.06577 0.6824 0.6403 0.0
H2086 H 0.07673 0.71222 0.68095 0.0
C2087 C 0.08101 0.68915 0.6272 0.0
H2088 H 0.05327 0.68532 0.67041 0.0
C2089 C 0.09446 0.70422 0.6332 0.0
C2090 C 0.09281 0.71332 0.65237 0.0
H2091 H 0.08197 0.68336 0.61189 0.0
H2092 H 0.10548 0.70948 0.62228 0.0
C2093 C 0.07839 0.70562 0.66605 0.0
C2094 C 0.08368 0.31493 0.40996 0.0
C2095 C 0.09146 0.31564 0.39019 0.0
H2096 H 0.0616 0.32667 0.43079 0.0
C2097 C 0.08472 0.33085 0.37705 0.0
H2098 H 0.08853 0.3032 0.42032 0.0
C2099 C 0.06963 0.3443 0.38301 0.0
C2100 C 0.06051 0.34268 0.40218 0.0
H2101 H 0.09052 0.33178 0.36175 0.0
H2102 H 0.06437 0.3553 0.37207 0.0
C2103 C 0.06821 0.3283 0.4159 0.0
C2104 C 0.44557 0.70572 0.35786 0.0
C2105 C 0.43122 0.71346 0.3716 0.0
H2106 H 0.47063 0.68537 0.35343 0.0
C2107 C 0.42966 0.70442 0.3908 0.0
H2108 H 0.44715 0.71228 0.34294 0.0
C2109 C 0.44312 0.68934 0.39677 0.0
C2110 C 0.45828 0.68254 0.38361 0.0
H2111 H 0.41869 0.70971 0.40175 0.0
H2112 H 0.44222 0.68359 0.41209 0.0
C2113 C 0.45894 0.69026 0.36381 0.0
C2114 C 0.06981 0.67935 0.14031 0.0
C2115 C 0.06067 0.68102 0.12115 0.0
H2116 H 0.0907 0.69183 0.16158 0.0
C2117 C 0.06833 0.69545 0.10747 0.0
H2118 H 0.06458 0.66831 0.15122 0.0
C2119 C 0.08379 0.70882 0.11342 0.0
C2120 C 0.09159 0.70806 0.13319 0.0
H2121 H 0.06169 0.69712 0.09259 0.0
H2122 H 0.08861 0.72059 0.1031 0.0
C2123 C 0.08489 0.6928 0.14629 0.0
C2124 C 0.07813 0.31823 0.85773 0.0
C2125 C 0.09254 0.31056 0.87143 0.0
H2126 H 0.05302 0.33853 0.85333 0.0
C2127 C 0.09418 0.31968 0.8906 0.0
H2128 H 0.07649 0.31161 0.84284 0.0
C2129 C 0.08072 0.33476 0.89656 0.0
C2130 C 0.06549 0.34148 0.88344 0.0
H2131 H 0.10519 0.31444 0.90152 0.0
H2132 H 0.08167 0.34057 0.91186 0.0
C2133 C 0.06476 0.3337 0.86367 0.0
C2134 C 0.45406 0.34443 0.64076 0.0
C2135 C 0.46322 0.34279 0.62162 0.0
H2136 H 0.43313 0.33192 0.66199 0.0
C2137 C 0.45557 0.32839 0.6079 0.0
H2138 H 0.45929 0.35544 0.6517 0.0
C2139 C 0.44009 0.31502 0.61381 0.0
C2140 C 0.43226 0.31575 0.63357 0.0
H2141 H 0.46222 0.32674 0.59302 0.0
H2142 H 0.43527 0.30327 0.60346 0.0
C2143 C 0.43897 0.33098 0.6467 0.0
C2144 C 0.12742 0.44285 0.33466 0.0
C2145 C 0.14054 0.45807 0.34139 0.0
H2146 H 0.12246 0.41839 0.31432 0.0
C2147 C 0.16032 0.4588 0.33361 0.0
H2148 H 0.11212 0.44191 0.34046 0.0
C2149 C 0.16626 0.44543 0.31814 0.0
C2150 C 0.15255 0.43103 0.31046 0.0
H2151 H 0.17066 0.47054 0.33845 0.0
H2152 H 0.18115 0.44707 0.31153 0.0
C2153 C 0.13339 0.4294 0.31957 0.0
C2154 C 0.34416 0.38305 0.06945 0.0
C2155 C 0.34257 0.40226 0.06041 0.0
H2156 H 0.33164 0.36174 0.09027 0.0
C2157 C 0.32822 0.41597 0.06816 0.0
H2158 H 0.35514 0.37211 0.06414 0.0
C2159 C 0.31486 0.41001 0.08363 0.0
C2160 C 0.31554 0.3902 0.09134 0.0
H2161 H 0.3266 0.43089 0.06161 0.0
H2162 H 0.30315 0.42036 0.08853 0.0
C2163 C 0.33072 0.37706 0.08453 0.0
C2164 C 0.39626 0.58099 0.8349 0.0
C2165 C 0.38314 0.56575 0.8416 0.0
H2166 H 0.40122 0.60547 0.81458 0.0
C2167 C 0.36339 0.56499 0.83378 0.0
H2168 H 0.41154 0.58195 0.84074 0.0
C2169 C 0.35746 0.57835 0.8183 0.0
C2170 C 0.37116 0.59278 0.81065 0.0
H2171 H 0.35305 0.55323 0.83859 0.0
H2172 H 0.34259 0.57669 0.81165 0.0
C2173 C 0.3903 0.59444 0.81981 0.0
C2174 C 0.20905 0.61356 0.58356 0.0
C2175 C 0.20829 0.63332 0.59137 0.0
H2176 H 0.19738 0.59273 0.56145 0.0
C2177 C 0.19305 0.64643 0.58464 0.0
H2178 H 0.2208 0.60322 0.5884 0.0
C2179 C 0.17962 0.64046 0.56953 0.0
C2180 C 0.18129 0.6213 0.5604 0.0
H2181 H 0.19208 0.66172 0.59046 0.0
H2182 H 0.1686 0.65138 0.56429 0.0
C2183 C 0.1957 0.60761 0.56808 0.0
C2184 C 0.16636 0.57817 0.20538 0.0
C2185 C 0.15267 0.5926 0.21305 0.0
H2186 H 0.17074 0.55305 0.18508 0.0
C2187 C 0.13351 0.59425 0.20393 0.0
H2188 H 0.18124 0.57651 0.21201 0.0
C2189 C 0.12753 0.5808 0.18884 0.0
C2190 C 0.14064 0.56556 0.18212 0.0
H2191 H 0.12259 0.60528 0.20917 0.0
H2192 H 0.11224 0.58176 0.18303 0.0
C2193 C 0.16041 0.56481 0.18991 0.0
C2194 C 0.17944 0.38328 0.95394 0.0
C2195 C 0.18107 0.40245 0.96304 0.0
H2196 H 0.19194 0.36201 0.93304 0.0
C2197 C 0.19546 0.41616 0.95534 0.0
H2198 H 0.16844 0.37235 0.9592 0.0
C2199 C 0.20882 0.41022 0.93986 0.0
C2200 C 0.20809 0.39044 0.93209 0.0
H2201 H 0.1971 0.43105 0.96195 0.0
H2202 H 0.22055 0.42056 0.93501 0.0
C2203 C 0.19288 0.37731 0.93884 0.0
C2204 C 0.39636 0.44316 0.6889 0.0
C2205 C 0.38327 0.45842 0.68218 0.0
H2206 H 0.40126 0.41867 0.70922 0.0
C2207 C 0.36349 0.45917 0.68995 0.0
H2208 H 0.41166 0.44219 0.68311 0.0
C2209 C 0.35751 0.4458 0.7054 0.0
C2210 C 0.37119 0.43136 0.71308 0.0
H2211 H 0.35317 0.47094 0.68512 0.0
H2212 H 0.34263 0.44747 0.71201 0.0
C2213 C 0.39035 0.4297 0.70397 0.0
C2214 C 0.32843 0.60775 0.45534 0.0
C2215 C 0.34281 0.62146 0.46305 0.0
H2216 H 0.30335 0.60336 0.43499 0.0
C2217 C 0.34444 0.64063 0.45396 0.0
H2218 H 0.32678 0.59286 0.46193 0.0
C2219 C 0.331 0.64661 0.43886 0.0
C2220 C 0.3158 0.63349 0.43209 0.0
H2221 H 0.35544 0.65156 0.45923 0.0
H2222 H 0.33195 0.66192 0.43307 0.0
C2223 C 0.31507 0.6137 0.43986 0.0
C2224 C 0.33499 0.12772 0.44285 0.0
C2225 C 0.34167 0.14082 0.45812 0.0
H2226 H 0.31468 0.12276 0.41837 0.0
C2227 C 0.33382 0.16056 0.4589 0.0
H2228 H 0.34084 0.11244 0.44187 0.0
C2229 C 0.31834 0.16649 0.44554 0.0
C2230 C 0.3107 0.1528 0.4311 0.0
H2231 H 0.33862 0.17089 0.47067 0.0
H2232 H 0.31167 0.18135 0.44722 0.0
C2233 C 0.31989 0.13367 0.42941 0.0
C2234 C 0.83496 0.39648 0.58071 0.0
C2235 C 0.84157 0.38342 0.56539 0.0
H2236 H 0.81474 0.40141 0.60528 0.0
C2237 C 0.83368 0.36369 0.56457 0.0
H2238 H 0.84084 0.41175 0.58172 0.0
C2239 C 0.81823 0.35774 0.57796 0.0
C2240 C 0.81067 0.37141 0.59247 0.0
H2241 H 0.83843 0.35339 0.55275 0.0
H2242 H 0.81153 0.3429 0.57625 0.0
C2243 C 0.81989 0.39051 0.59418 0.0
C2244 C 0.41618 0.06832 0.32804 0.0
C2245 C 0.40252 0.06069 0.34251 0.0
H2246 H 0.42053 0.08859 0.30289 0.0
C2247 C 0.38338 0.06986 0.34421 0.0
H2248 H 0.43105 0.06167 0.32635 0.0
C2249 C 0.3774 0.08495 0.33077 0.0
C2250 C 0.39047 0.09163 0.31548 0.0
H2251 H 0.37249 0.06465 0.35527 0.0
H2252 H 0.36212 0.09079 0.33176 0.0
C2253 C 0.41023 0.08379 0.31468 0.0
C2254 C 0.68904 0.62701 0.08076 0.0
C2255 C 0.6823 0.64012 0.06553 0.0
H2256 H 0.70937 0.62206 0.10522 0.0
C2257 C 0.69008 0.6599 0.0648 0.0
H2258 H 0.68324 0.61171 0.08171 0.0
C2259 C 0.70554 0.66585 0.07817 0.0
C2260 C 0.71323 0.65215 0.09257 0.0
H2261 H 0.68523 0.67024 0.05306 0.0
H2262 H 0.71215 0.68074 0.07652 0.0
C2263 C 0.70412 0.63298 0.09421 0.0
C2264 C 0.63991 0.45388 0.34445 0.0
C2265 C 0.6208 0.46309 0.34275 0.0
H2266 H 0.66113 0.4329 0.332 0.0
C2267 C 0.60711 0.45548 0.3283 0.0
H2268 H 0.65083 0.45907 0.3555 0.0
C2269 C 0.61303 0.43999 0.31494 0.0
C2270 C 0.63276 0.43212 0.31573 0.0
H2271 H 0.59226 0.46217 0.32661 0.0
H2272 H 0.6027 0.43522 0.30316 0.0
C2273 C 0.64586 0.43878 0.33101 0.0
C2274 C 0.18997 0.86358 0.95889 0.0
C2275 C 0.18221 0.88337 0.95817 0.0
H2276 H 0.21203 0.84273 0.94717 0.0
C2277 C 0.18897 0.89649 0.94296 0.0
H2278 H 0.1851 0.85324 0.97062 0.0
C2279 C 0.20406 0.89051 0.92951 0.0
C2280 C 0.21315 0.87133 0.93114 0.0
H2281 H 0.18319 0.9118 0.94202 0.0
H2282 H 0.20933 0.90144 0.91851 0.0
C2283 C 0.20544 0.85763 0.94553 0.0
C2284 C 0.40994 0.93999 0.20898 0.0
C2285 C 0.39015 0.93225 0.20827 0.0
H2286 H 0.43081 0.96203 0.19724 0.0
C2287 C 0.37704 0.939 0.19304 0.0
H2288 H 0.42028 0.93514 0.22072 0.0
C2289 C 0.38303 0.95406 0.17958 0.0
C2290 C 0.40221 0.96314 0.1812 0.0
H2291 H 0.36173 0.93322 0.19211 0.0
H2292 H 0.37211 0.95932 0.16856 0.0
C2293 C 0.41591 0.95544 0.1956 0.0
C2294 C 0.11381 0.08387 0.70893 0.0
C2295 C 0.13358 0.09166 0.7082 0.0
H2296 H 0.09298 0.06179 0.69721 0.0
C2297 C 0.1467 0.08493 0.69297 0.0
H2298 H 0.10347 0.08871 0.72068 0.0
C2299 C 0.14073 0.06985 0.67952 0.0
C2300 C 0.12156 0.06073 0.68115 0.0
H2301 H 0.162 0.09074 0.69202 0.0
H2302 H 0.15165 0.0646 0.6685 0.0
C2303 C 0.10786 0.06841 0.69556 0.0
C2304 C 0.06034 0.16198 0.48519 0.0
C2305 C 0.05152 0.14624 0.47391 0.0
H2306 H 0.08463 0.17121 0.50453 0.0
C2307 C 0.05925 0.12654 0.47622 0.0
H2308 H 0.05481 0.17734 0.48386 0.0
C2309 C 0.07631 0.12299 0.48838 0.0
C2310 C 0.08613 0.1391 0.49822 0.0
H2311 H 0.05284 0.11406 0.46778 0.0
H2312 H 0.08259 0.10787 0.48894 0.0
C2313 C 0.07752 0.15849 0.49705 0.0
C2314 C 0.15116 0.82632 0.73831 0.0
C2315 C 0.13504 0.83614 0.74815 0.0
H2316 H 0.16008 0.80286 0.7177 0.0
C2317 C 0.11566 0.82752 0.74698 0.0
H2318 H 0.16627 0.83261 0.73887 0.0
C2319 C 0.11217 0.81035 0.73513 0.0
C2320 C 0.12791 0.80153 0.72384 0.0
H2321 H 0.10294 0.83463 0.75447 0.0
H2322 H 0.09681 0.80481 0.7338 0.0
C2323 C 0.1476 0.80927 0.72615 0.0
C2324 C 0.44745 0.90098 0.9886 0.0
C2325 C 0.43765 0.88487 0.99847 0.0
H2326 H 0.47092 0.90988 0.96799 0.0
C2327 C 0.44628 0.8655 0.99735 0.0
H2328 H 0.44115 0.91609 0.98912 0.0
C2329 C 0.46346 0.862 0.98551 0.0
C2330 C 0.47227 0.87772 0.97419 0.0
H2331 H 0.43918 0.85279 1.00486 0.0
H2332 H 0.46901 0.84664 0.98422 0.0
C2333 C 0.46452 0.89741 0.97646 0.0
C2334 C 0.37622 0.2146 0.22599 0.0
C2335 C 0.39591 0.22235 0.22367 0.0
H2336 H 0.35758 0.19126 0.23875 0.0
C2337 C 0.41165 0.21358 0.23499 0.0
H2338 H 0.36374 0.22098 0.21752 0.0
C2339 C 0.40818 0.19643 0.24688 0.0
C2340 C 0.3888 0.18779 0.24806 0.0
H2341 H 0.42701 0.21912 0.23366 0.0
H2342 H 0.4209 0.18935 0.25439 0.0
C2343 C 0.37268 0.19757 0.23819 0.0
C2344 C 0.05909 0.89732 0.0475 0.0
C2345 C 0.05137 0.87762 0.0498 0.0
H2346 H 0.08241 0.91602 0.0348 0.0
C2347 C 0.0602 0.8619 0.03849 0.0
H2348 H 0.05267 0.90979 0.05597 0.0
C2349 C 0.07737 0.86542 0.02663 0.0
C2350 C 0.08597 0.88481 0.02548 0.0
H2351 H 0.05468 0.84654 0.0398 0.0
H2352 H 0.08448 0.85271 0.01913 0.0
C2353 C 0.07614 0.90091 0.03534 0.0
C2354 C 0.41162 0.81038 0.28876 0.0
C2355 C 0.39592 0.80158 0.30012 0.0
H2356 H 0.42078 0.83461 0.26933 0.0
C2357 C 0.37622 0.8093 0.29786 0.0
H2358 H 0.42699 0.80485 0.29005 0.0
C2359 C 0.37262 0.82633 0.28566 0.0
C2360 C 0.3887 0.83612 0.27575 0.0
H2361 H 0.36377 0.80291 0.30636 0.0
H2362 H 0.3575 0.83261 0.28515 0.0
C2363 C 0.40809 0.82752 0.27688 0.0
C2364 C 0.44641 0.1587 0.52682 0.0
C2365 C 0.43782 0.13931 0.5256 0.0
H2366 H 0.46907 0.17755 0.54008 0.0
C2367 C 0.44764 0.12319 0.53542 0.0
H2368 H 0.43929 0.17143 0.51935 0.0
C2369 C 0.46467 0.12674 0.54761 0.0
C2370 C 0.47238 0.14644 0.54998 0.0
H2371 H 0.44137 0.10807 0.53482 0.0
H2372 H 0.47108 0.11425 0.55604 0.0
C2373 C 0.46356 0.16219 0.53871 0.0
C2374 C 0.15104 0.19763 0.78553 0.0
C2375 C 0.13495 0.18781 0.77566 0.0
H2376 H 0.1599 0.22107 0.80621 0.0
C2377 C 0.11555 0.19639 0.77684 0.0
H2378 H 0.16616 0.19138 0.78498 0.0
C2379 C 0.11201 0.21352 0.78873 0.0
C2380 C 0.12773 0.22235 0.80005 0.0
H2381 H 0.10285 0.18927 0.76932 0.0
H2382 H 0.09665 0.21902 0.79006 0.0
C2383 C 0.14744 0.21465 0.79773 0.0
C2384 C 0.48822 0.07606 0.12285 0.0
C2385 C 0.49807 0.08587 0.13897 0.0
H2386 H 0.46758 0.05263 0.11393 0.0
C2387 C 0.49689 0.07726 0.15835 0.0
H2388 H 0.48878 0.08235 0.10774 0.0
C2389 C 0.48501 0.0601 0.16185 0.0
C2390 C 0.47371 0.05129 0.14611 0.0
H2391 H 0.50438 0.08436 0.17107 0.0
H2392 H 0.48368 0.05457 0.17721 0.0
C2393 C 0.47604 0.05902 0.12641 0.0
C2394 C 0.21458 0.2263 0.37626 0.0
C2395 C 0.22232 0.22402 0.39595 0.0
H2396 H 0.19123 0.23896 0.35756 0.0
C2397 C 0.2135 0.23534 0.41167 0.0
H2398 H 0.22099 0.21782 0.36379 0.0
C2399 C 0.19632 0.24718 0.40816 0.0
C2400 C 0.1877 0.24831 0.38877 0.0
H2401 H 0.21903 0.23405 0.42703 0.0
H2402 H 0.18921 0.25469 0.42086 0.0
C2403 C 0.19752 0.23845 0.37268 0.0
C2404 C 0.027 0.94651 0.65845 0.0
C2405 C 0.0258 0.93788 0.63907 0.0
H2406 H 0.04022 0.96921 0.67727 0.0
C2407 C 0.03563 0.94769 0.62294 0.0
H2408 H 0.01952 0.93941 0.67118 0.0
C2409 C 0.04781 0.96473 0.62647 0.0
C2410 C 0.05015 0.97247 0.64616 0.0
H2411 H 0.03506 0.94139 0.60783 0.0
H2412 H 0.05625 0.97113 0.61398 0.0
C2413 C 0.03888 0.96367 0.66192 0.0
C2414 C 0.32733 0.7767 0.90842 0.0
C2415 C 0.33599 0.77554 0.88905 0.0
H2416 H 0.3046 0.78988 0.92723 0.0
C2417 C 0.32622 0.7854 0.87292 0.0
H2418 H 0.3344 0.76919 0.92114 0.0
C2419 C 0.30917 0.79758 0.87645 0.0
C2420 C 0.30139 0.79988 0.89613 0.0
H2421 H 0.33254 0.78486 0.85782 0.0
H2422 H 0.30279 0.80605 0.86397 0.0
C2423 C 0.31016 0.78856 0.91188 0.0
C2424 C 0.48855 0.94771 0.40072 0.0
C2425 C 0.49834 0.93787 0.38459 0.0
H2426 H 0.46793 0.97115 0.40966 0.0
C2427 C 0.49708 0.94643 0.36519 0.0
H2428 H 0.48917 0.94146 0.41584 0.0
C2429 C 0.48517 0.96357 0.36169 0.0
C2430 C 0.47393 0.97241 0.37746 0.0
H2431 H 0.50453 0.93931 0.35245 0.0
H2432 H 0.48378 0.96907 0.34633 0.0
C2433 C 0.47634 0.96473 0.39716 0.0
C2434 C 0.30922 0.22632 0.64748 0.0
C2435 C 0.30149 0.22402 0.62778 0.0
H2436 H 0.33254 0.23903 0.66617 0.0
C2437 C 0.3103 0.23534 0.61206 0.0
H2438 H 0.30282 0.21784 0.65994 0.0
C2439 C 0.32746 0.24722 0.61557 0.0
C2440 C 0.33606 0.24837 0.63496 0.0
H2441 H 0.30477 0.23403 0.59669 0.0
H2442 H 0.33456 0.25473 0.60286 0.0
C2443 C 0.32625 0.23849 0.65106 0.0
C2444 C 0.03876 0.06036 0.86196 0.0
C2445 C 0.05006 0.05153 0.87768 0.0
H2446 H 0.01937 0.08462 0.85278 0.0
C2447 C 0.04772 0.05921 0.8974 0.0
H2448 H 0.04011 0.05487 0.84659 0.0
C2449 C 0.03551 0.07623 0.90099 0.0
C2450 C 0.02566 0.08606 0.88489 0.0
H2451 H 0.05617 0.05279 0.90987 0.0
H2452 H 0.03494 0.08248 0.91612 0.0
C2453 C 0.02686 0.0775 0.86549 0.0
C2454 C 0.21349 0.78865 0.11202 0.0
C2455 C 0.22225 0.79997 0.12777 0.0
H2456 H 0.18929 0.76924 0.10275 0.0
C2457 C 0.21449 0.79764 0.14745 0.0
H2458 H 0.21905 0.78999 0.09667 0.0
C2459 C 0.19746 0.78543 0.15098 0.0
C2460 C 0.1877 0.77556 0.13485 0.0
H2461 H 0.22085 0.80611 0.15994 0.0
H2462 H 0.19115 0.78486 0.16608 0.0
C2463 C 0.19635 0.77675 0.11548 0.0
C2464 C 0.12642 0.47618 0.05907 0.0
C2465 C 0.14611 0.47386 0.05131 0.0
H2466 H 0.10778 0.48892 0.08243 0.0
C2467 C 0.16186 0.48515 0.0601 0.0
H2468 H 0.11393 0.46773 0.05269 0.0
C2469 C 0.15839 0.49703 0.07727 0.0
C2470 C 0.13902 0.4982 0.08591 0.0
H2471 H 0.17721 0.48382 0.05455 0.0
H2472 H 0.17112 0.50452 0.08435 0.0
C2473 C 0.12289 0.48836 0.07612 0.0
C2474 C 0.62269 0.03545 0.94784 0.0
C2475 C 0.63879 0.02558 0.93802 0.0
H2476 H 0.61381 0.0561 0.9713 0.0
C2477 C 0.65817 0.02672 0.94663 0.0
H2478 H 0.60758 0.03493 0.94156 0.0
C2479 C 0.66169 0.03858 0.9638 0.0
C2480 C 0.64598 0.04991 0.97261 0.0
H2481 H 0.67088 0.01921 0.93952 0.0
H2482 H 0.67706 0.03989 0.96932 0.0
C2483 C 0.62628 0.04762 0.96489 0.0
C2484 C 0.23525 0.41159 0.2134 0.0
C2485 C 0.22391 0.39586 0.2222 0.0
H2486 H 0.25463 0.42079 0.18914 0.0
C2487 C 0.22619 0.37617 0.21444 0.0
H2488 H 0.23396 0.42694 0.21895 0.0
C2489 C 0.23835 0.3726 0.19739 0.0
C2490 C 0.24823 0.38871 0.18759 0.0
H2491 H 0.2177 0.36371 0.22083 0.0
H2492 H 0.23887 0.3575 0.19108 0.0
C2493 C 0.24711 0.40808 0.19623 0.0
C2494 C 0.89748 0.97613 0.46486 0.0
C2495 C 0.87777 0.97382 0.47256 0.0
H2496 H 0.91619 0.9888 0.44152 0.0
C2497 C 0.86204 0.98508 0.46367 0.0
H2498 H 0.90995 0.9677 0.47132 0.0
C2499 C 0.86556 0.99689 0.44648 0.0
C2500 C 0.88496 0.99805 0.4379 0.0
H2501 H 0.84667 0.98376 0.46918 0.0
H2502 H 0.85285 1.00435 0.43932 0.0
C2503 C 0.90106 0.98825 0.44778 0.0
C2504 C 0.7976 0.14722 0.21486 0.0
C2505 C 0.79994 0.1275 0.22255 0.0
H2506 H 0.78484 0.16593 0.19158 0.0
C2507 C 0.78865 0.11178 0.21371 0.0
H2508 H 0.80605 0.15969 0.22129 0.0
C2509 C 0.77677 0.1153 0.19656 0.0
C2510 C 0.77557 0.13471 0.18799 0.0
H2511 H 0.78999 0.09641 0.21921 0.0
H2512 H 0.76928 0.1026 0.18943 0.0
C2513 C 0.78541 0.1508 0.19783 0.0
C2514 C 0.39753 0.54779 0.55913 0.0
C2515 C 0.37785 0.55007 0.55136 0.0
H2516 H 0.41618 0.53512 0.58252 0.0
C2517 C 0.36211 0.53877 0.56017 0.0
H2518 H 0.41001 0.55625 0.55274 0.0
C2519 C 0.36559 0.52693 0.57735 0.0
C2520 C 0.38496 0.52579 0.586 0.0
H2521 H 0.34676 0.54007 0.55461 0.0
H2522 H 0.35287 0.51943 0.58444 0.0
C2523 C 0.40108 0.53564 0.5762 0.0
C2524 C 0.24723 0.61553 0.32729 0.0
C2525 C 0.24839 0.63493 0.33589 0.0
H2526 H 0.23404 0.59665 0.30462 0.0
C2527 C 0.23852 0.65102 0.32607 0.0
H2528 H 0.25474 0.60283 0.3344 0.0
C2529 C 0.22634 0.64744 0.30904 0.0
C2530 C 0.22404 0.62774 0.30132 0.0
H2531 H 0.23907 0.66614 0.33235 0.0
H2532 H 0.21787 0.65991 0.30263 0.0
C2533 C 0.23535 0.61201 0.31014 0.0
C2534 C 0.28528 0.37292 0.82603 0.0
C2535 C 0.27541 0.38902 0.83585 0.0
H2536 H 0.30593 0.36404 0.80258 0.0
C2537 C 0.27655 0.40841 0.82724 0.0
H2538 H 0.28475 0.35781 0.83232 0.0
C2539 C 0.28842 0.41192 0.81008 0.0
C2540 C 0.29974 0.39621 0.80126 0.0
H2541 H 0.26904 0.42111 0.83435 0.0
H2542 H 0.28972 0.42729 0.80455 0.0
C2543 C 0.29745 0.3765 0.80899 0.0
C2544 C 0.94763 0.90112 0.53578 0.0
C2545 C 0.93781 0.885 0.52595 0.0
H2546 H 0.97112 0.91005 0.55635 0.0
C2547 C 0.94644 0.86562 0.5271 0.0
H2548 H 0.94133 0.91623 0.53524 0.0
C2549 C 0.96364 0.86214 0.53892 0.0
C2550 C 0.97247 0.87788 0.5502 0.0
H2551 H 0.93933 0.8529 0.51962 0.0
H2552 H 0.96919 0.84678 0.54023 0.0
C2553 C 0.96471 0.89757 0.5479 0.0
C2554 C 0.8763 0.21443 0.29777 0.0
C2555 C 0.89599 0.22218 0.30008 0.0
H2556 H 0.85764 0.19108 0.28506 0.0
C2557 C 0.91173 0.21336 0.2888 0.0
H2558 H 0.86381 0.22084 0.30622 0.0
C2559 C 0.90825 0.19619 0.27695 0.0
C2560 C 0.88887 0.18756 0.27578 0.0
H2561 H 0.92709 0.21891 0.29013 0.0
H2562 H 0.92097 0.18908 0.26947 0.0
C2563 C 0.87275 0.19737 0.28561 0.0
C2564 C 0.55914 0.12619 0.04773 0.0
C2565 C 0.55137 0.14588 0.05002 0.0
H2566 H 0.58252 0.10755 0.03505 0.0
C2567 C 0.56017 0.16162 0.03872 0.0
H2568 H 0.55275 0.11371 0.05619 0.0
C2569 C 0.57736 0.15814 0.02688 0.0
C2570 C 0.58601 0.13877 0.02574 0.0
H2571 H 0.55461 0.17697 0.04002 0.0
H2572 H 0.58445 0.17086 0.01938 0.0
C2573 C 0.57621 0.12265 0.03558 0.0
C2574 C 0.61173 0.81033 0.789 0.0
C2575 C 0.62749 0.8015 0.80026 0.0
H2576 H 0.60247 0.8346 0.76966 0.0
C2577 C 0.64718 0.80922 0.79789 0.0
H2578 H 0.59637 0.80481 0.79036 0.0
C2579 C 0.65072 0.82627 0.78571 0.0
C2580 C 0.63459 0.83609 0.7759 0.0
H2581 H 0.65967 0.80281 0.80632 0.0
H2582 H 0.66584 0.83254 0.78512 0.0
C2583 C 0.6152 0.82749 0.77712 0.0
C2584 C 0.94632 0.15846 0.99723 0.0
C2585 C 0.93773 0.13907 0.99846 0.0
H2586 H 0.96898 0.17731 0.98396 0.0
C2587 C 0.94755 0.12294 0.98864 0.0
H2588 H 0.93921 0.17119 1.0047 0.0
C2589 C 0.96458 0.12649 0.97644 0.0
C2590 C 0.97229 0.14619 0.97406 0.0
H2591 H 0.94129 0.10782 0.98924 0.0
H2592 H 0.97099 0.114 0.96801 0.0
C2593 C 0.96347 0.16195 0.98533 0.0
C2594 C 0.65087 0.19759 0.73865 0.0
C2595 C 0.63475 0.18776 0.74846 0.0
H2596 H 0.65982 0.22105 0.71805 0.0
C2597 C 0.61536 0.19635 0.74724 0.0
H2598 H 0.66599 0.19131 0.73924 0.0
C2599 C 0.61187 0.21352 0.73536 0.0
C2600 C 0.62763 0.22235 0.72411 0.0
H2601 H 0.60263 0.18923 0.7547 0.0
H2602 H 0.59651 0.21904 0.734 0.0
C2603 C 0.64733 0.21463 0.72647 0.0
C2604 C 0.56053 0.86211 0.48501 0.0
C2605 C 0.55172 0.87786 0.47372 0.0
H2606 H 0.58477 0.85288 0.5044 0.0
C2607 C 0.55943 0.89756 0.47608 0.0
H2608 H 0.55501 0.84675 0.48365 0.0
C2609 C 0.57645 0.90112 0.48829 0.0
C2610 C 0.58625 0.885 0.49814 0.0
H2611 H 0.55303 0.91004 0.46763 0.0
H2612 H 0.58272 0.91624 0.48888 0.0
C2613 C 0.57766 0.86561 0.49691 0.0
C2614 C 0.87314 0.82605 0.23844 0.0
C2615 C 0.88929 0.83586 0.24824 0.0
H2616 H 0.86415 0.80262 0.21783 0.0
C2617 C 0.90868 0.82726 0.24697 0.0
H2618 H 0.85803 0.83233 0.23907 0.0
C2619 C 0.91213 0.81011 0.23507 0.0
C2620 C 0.89635 0.8013 0.22383 0.0
H2621 H 0.92142 0.83436 0.25442 0.0
H2622 H 0.92748 0.80458 0.23367 0.0
C2623 C 0.87666 0.80902 0.22624 0.0
C2624 C 0.5385 0.96351 0.86233 0.0
C2625 C 0.5498 0.97234 0.87805 0.0
H2626 H 0.51916 0.93921 0.85313 0.0
C2627 C 0.54751 0.9646 0.89775 0.0
H2628 H 0.53981 0.96904 0.84696 0.0
C2629 C 0.53536 0.94754 0.90133 0.0
C2630 C 0.52551 0.93772 0.88522 0.0
H2631 H 0.55597 0.97102 0.91022 0.0
H2632 H 0.53483 0.94126 0.91644 0.0
C2633 C 0.52666 0.94633 0.86584 0.0
C2634 C 0.8264 0.78551 0.65097 0.0
C2635 C 0.83625 0.77575 0.63482 0.0
H2636 H 0.80291 0.80606 0.65995 0.0
C2637 C 0.82765 0.777 0.61543 0.0
H2638 H 0.83268 0.7849 0.66608 0.0
C2639 C 0.81047 0.78885 0.61197 0.0
C2640 C 0.80162 0.80006 0.62775 0.0
H2641 H 0.83478 0.76957 0.60269 0.0
H2642 H 0.80495 0.79023 0.59661 0.0
C2643 C 0.80934 0.79767 0.64744 0.0
C2644 C 0.98523 0.06031 0.36208 0.0
C2645 C 0.97397 0.05146 0.37782 0.0
H2646 H 1.00452 0.08464 0.35285 0.0
C2647 C 0.97628 0.0592 0.39752 0.0
H2648 H 0.98391 0.05478 0.34672 0.0
C2649 C 0.9884 0.07628 0.40108 0.0
C2650 C 0.99821 0.08612 0.38496 0.0
H2651 H 0.96785 0.05276 0.41 0.0
H2652 H 0.98895 0.08256 0.41619 0.0
C2653 C 0.99705 0.07751 0.36557 0.0
C2654 C 0.69734 0.23828 0.15112 0.0
C2655 C 0.68754 0.2481 0.13499 0.0
H2656 H 0.7208 0.21768 0.16008 0.0
C2657 C 0.69617 0.24692 0.11561 0.0
H2658 H 0.69104 0.23884 0.16623 0.0
C2659 C 0.71335 0.23507 0.11215 0.0
C2660 C 0.72217 0.2238 0.1279 0.0
H2661 H 0.68908 0.2544 0.10288 0.0
H2662 H 0.71891 0.23374 0.0968 0.0
C2663 C 0.71441 0.22612 0.14759 0.0
C2664 C 0.54764 0.05937 0.62658 0.0
C2665 C 0.54994 0.05166 0.64628 0.0
H2666 H 0.53494 0.0827 0.60787 0.0
C2667 C 0.53865 0.0605 0.66201 0.0
H2668 H 0.55609 0.05294 0.61411 0.0
C2669 C 0.52681 0.07768 0.65849 0.0
C2670 C 0.52564 0.08627 0.63909 0.0
H2671 H 0.53997 0.05499 0.67737 0.0
H2672 H 0.51932 0.08481 0.6712 0.0
C2673 C 0.53548 0.07643 0.62299 0.0
C2674 C 0.69773 0.78552 0.373 0.0
C2675 C 0.68785 0.77571 0.38909 0.0
H2676 H 0.72123 0.80612 0.36414 0.0
C2677 C 0.69638 0.77692 0.40851 0.0
H2678 H 0.69151 0.78494 0.35786 0.0
C2679 C 0.71354 0.78878 0.41205 0.0
C2680 C 0.72242 0.80004 0.39633 0.0
H2681 H 0.68922 0.76945 0.42121 0.0
H2682 H 0.719 0.79013 0.42743 0.0
C2683 C 0.71477 0.79769 0.37661 0.0
C2684 C 0.99704 0.94619 0.15826 0.0
C2685 C 0.99817 0.9376 0.13886 0.0
H2686 H 0.98392 0.96889 0.17716 0.0
C2687 C 0.98831 0.94744 0.12278 0.0
H2688 H 1.00455 0.93906 0.17095 0.0
C2689 C 0.97617 0.9645 0.12638 0.0
C2690 C 0.9739 0.97222 0.14608 0.0
H2691 H 0.98882 0.94117 0.10766 0.0
H2692 H 0.96769 0.97093 0.11392 0.0
C2693 C 0.98521 0.96337 0.16179 0.0
C2694 C 0.8262 0.23825 0.87296 0.0
C2695 C 0.83603 0.24812 0.88906 0.0
H2696 H 0.80275 0.21761 0.86409 0.0
C2697 C 0.82744 0.24697 0.90845 0.0
H2698 H 0.83247 0.2388 0.85784 0.0
C2699 C 0.81028 0.2351 0.91198 0.0
C2700 C 0.80145 0.22379 0.89626 0.0
H2701 H 0.83455 0.25448 0.92115 0.0
H2702 H 0.80476 0.23379 0.92734 0.0
C2703 C 0.80916 0.22608 0.87655 0.0
C2704 C 0.86214 0.53852 0.9635 0.0
C2705 C 0.87785 0.54985 0.97233 0.0
H2706 H 0.85296 0.51917 0.93921 0.0
C2707 C 0.89755 0.54758 0.96459 0.0
H2708 H 0.84678 0.53981 0.96904 0.0
C2709 C 0.90114 0.53543 0.94753 0.0
C2710 C 0.88505 0.52556 0.93771 0.0
H2711 H 0.91001 0.55606 0.971 0.0
H2712 H 0.91625 0.53492 0.94124 0.0
C2713 C 0.86566 0.52668 0.94633 0.0
C2714 C 0.36194 0.98519 0.06021 0.0
C2715 C 0.37766 0.97384 0.05144 0.0
H2716 H 0.35271 1.00458 0.08445 0.0
C2717 C 0.39735 0.97612 0.05922 0.0
H2718 H 0.34659 0.9839 0.05465 0.0
C2719 C 0.4009 0.98829 0.07626 0.0
C2720 C 0.38479 0.99818 0.08604 0.0
H2721 H 0.40982 0.96762 0.05285 0.0
H2722 H 0.416 0.9888 0.08258 0.0
C2723 C 0.36542 0.99705 0.07738 0.0
C2724 C 0.77688 0.61525 0.82746 0.0
C2725 C 0.77564 0.63464 0.83606 0.0
H2726 H 0.79014 0.59642 0.80479 0.0
C2727 C 0.78545 0.65077 0.82624 0.0
H2728 H 0.76942 0.60252 0.83457 0.0
C2729 C 0.79764 0.64724 0.80921 0.0
C2730 C 0.80002 0.62754 0.80149 0.0
H2731 H 0.78485 0.66589 0.83252 0.0
H2732 H 0.80607 0.65973 0.8028 0.0
C2733 C 0.78877 0.61178 0.81031 0.0
C2734 C 0.12655 0.04777 0.55917 0.0
C2735 C 0.14624 0.0501 0.55143 0.0
H2736 H 0.10789 0.03503 0.58251 0.0
C2737 C 0.16199 0.0388 0.56023 0.0
H2738 H 0.11406 0.05622 0.55278 0.0
C2739 C 0.1585 0.02692 0.57739 0.0
C2740 C 0.13913 0.02574 0.58602 0.0
H2741 H 0.17734 0.04014 0.55469 0.0
H2742 H 0.17123 0.01943 0.58449 0.0
C2743 C 0.123 0.03559 0.57622 0.0
C2744 C 0.23841 0.87282 0.82623 0.0
C2745 C 0.24827 0.88892 0.83605 0.0
H2746 H 0.21778 0.86393 0.80276 0.0
C2747 C 0.24713 0.90831 0.82744 0.0
H2748 H 0.23893 0.85771 0.83251 0.0
C2749 C 0.23528 0.91182 0.81026 0.0
C2750 C 0.22397 0.8961 0.80144 0.0
H2751 H 0.25464 0.92101 0.83455 0.0
H2752 H 0.23398 0.92718 0.80473 0.0
C2753 C 0.22625 0.8764 0.80917 0.0
C2754 C 0.65819 0.49709 0.44631 0.0
C2755 C 0.63878 0.49826 0.43776 0.0
H2756 H 0.6771 0.48392 0.46897 0.0
C2757 C 0.62269 0.48845 0.44764 0.0
H2758 H 0.67089 0.50456 0.43915 0.0
C2759 C 0.62629 0.4763 0.4647 0.0
C2760 C 0.64601 0.47399 0.47237 0.0
H2761 H 0.60755 0.489 0.4414 0.0
H2762 H 0.61383 0.46787 0.47116 0.0
C2763 C 0.66173 0.48525 0.46349 0.0
C2764 C 0.77716 0.40852 0.69627 0.0
C2765 C 0.77591 0.38913 0.68768 0.0
H2766 H 0.79044 0.42736 0.71893 0.0
C2767 C 0.78573 0.373 0.69749 0.0
H2768 H 0.76969 0.42126 0.68917 0.0
C2769 C 0.79794 0.37654 0.71452 0.0
C2770 C 0.80032 0.39624 0.72223 0.0
H2771 H 0.78512 0.35788 0.69122 0.0
H2772 H 0.80636 0.36404 0.72092 0.0
C2773 C 0.78906 0.412 0.71342 0.0
C2774 C 0.74682 0.61517 0.19631 0.0
C2775 C 0.74806 0.63456 0.18772 0.0
H2776 H 0.73354 0.59633 0.21896 0.0
C2777 C 0.73822 0.65069 0.19752 0.0
H2778 H 0.75431 0.60245 0.18922 0.0
C2779 C 0.726 0.64714 0.21453 0.0
C2780 C 0.72362 0.62744 0.22225 0.0
H2781 H 0.73882 0.66581 0.19125 0.0
H2782 H 0.71755 0.65963 0.22093 0.0
C2783 C 0.73491 0.61169 0.21345 0.0
C2784 C 0.56024 0.6616 0.9853 0.0
C2785 C 0.5514 0.64588 0.974 0.0
H2786 H 0.58454 0.67078 1.00464 0.0
C2787 C 0.55913 0.62618 0.97627 0.0
H2788 H 0.55471 0.67696 0.98401 0.0
C2789 C 0.57619 0.62259 0.98842 0.0
C2790 C 0.58603 0.63869 0.99827 0.0
H2791 H 0.55271 0.61372 0.96781 0.0
H2792 H 0.58247 0.60748 0.98894 0.0
C2793 C 0.57742 0.65808 0.99714 0.0
C2794 C 0.64696 0.30912 0.22628 0.0
C2795 C 0.62727 0.30139 0.22391 0.0
H2796 H 0.6656 0.33245 0.23906 0.0
C2797 C 0.6115 0.31019 0.23518 0.0
H2798 H 0.65946 0.30272 0.21785 0.0
C2799 C 0.61497 0.32735 0.24706 0.0
C2800 C 0.63435 0.33597 0.24828 0.0
H2801 H 0.59615 0.30466 0.23381 0.0
H2802 H 0.60223 0.33445 0.25453 0.0
C2803 C 0.65049 0.32616 0.23847 0.0
C2804 C 0.96342 0.36208 0.48483 0.0
C2805 C 0.97226 0.37782 0.47355 0.0
H2806 H 0.93915 0.35287 0.50419 0.0
C2807 C 0.96454 0.39752 0.47588 0.0
H2808 H 0.96894 0.34672 0.4835 0.0
C2809 C 0.9475 0.40109 0.48806 0.0
C2810 C 0.93767 0.38498 0.49789 0.0
H2811 H 0.97096 0.41 0.46743 0.0
H2812 H 0.94123 0.41621 0.48862 0.0
C2813 C 0.94626 0.36559 0.49671 0.0
C2814 C 0.90852 0.69632 0.74691 0.0
C2815 C 0.88912 0.68774 0.74811 0.0
H2816 H 0.92739 0.71898 0.7337 0.0
C2817 C 0.87301 0.69758 0.73827 0.0
H2818 H 0.92123 0.68919 0.7544 0.0
C2819 C 0.87659 0.71462 0.7261 0.0
C2820 C 0.89629 0.72232 0.72376 0.0
H2821 H 0.85789 0.69132 0.73884 0.0
H2822 H 0.86411 0.72105 0.71765 0.0
C2823 C 0.91203 0.71348 0.73504 0.0
C2824 C 0.55922 0.39756 0.54796 0.0
C2825 C 0.55152 0.37786 0.55031 0.0
H2826 H 0.58251 0.41625 0.53517 0.0
C2827 C 0.56035 0.36211 0.53903 0.0
H2828 H 0.5528 0.41004 0.5564 0.0
C2829 C 0.57749 0.36562 0.52714 0.0
C2830 C 0.58607 0.38501 0.52592 0.0
H2831 H 0.55484 0.34675 0.54038 0.0
H2832 H 0.5846 0.3529 0.51965 0.0
C2833 C 0.57624 0.40113 0.53576 0.0
C2834 C 0.90863 0.32743 0.7768 0.0
C2835 C 0.88926 0.33606 0.77557 0.0
H2836 H 0.92742 0.30472 0.79006 0.0
C2837 C 0.87311 0.32626 0.78536 0.0
H2838 H 0.92138 0.33453 0.76935 0.0
C2839 C 0.87661 0.30921 0.79755 0.0
C2840 C 0.89629 0.30146 0.79993 0.0
H2841 H 0.858 0.33256 0.78476 0.0
H2842 H 0.8641 0.30282 0.80596 0.0
C2843 C 0.91208 0.31026 0.78868 0.0
C2844 C 0.94756 0.62268 0.03537 0.0
C2845 C 0.93773 0.6388 0.02554 0.0
H2846 H 0.97104 0.61377 0.05597 0.0
C2847 C 0.94634 0.65818 0.0267 0.0
H2848 H 0.94128 0.60757 0.03482 0.0
C2849 C 0.96352 0.66168 0.03854 0.0
C2850 C 0.97235 0.64594 0.04983 0.0
H2851 H 0.93923 0.6709 0.01922 0.0
H2852 H 0.96905 0.67704 0.03986 0.0
C2853 C 0.96462 0.62625 0.04752 0.0
C2854 C 0.65085 0.69744 0.28532 0.0
C2855 C 0.6347 0.68765 0.27551 0.0
H2856 H 0.65984 0.72089 0.30592 0.0
C2857 C 0.61533 0.69629 0.27672 0.0
H2858 H 0.66595 0.69114 0.28473 0.0
C2859 C 0.61188 0.71346 0.28859 0.0
C2860 C 0.62766 0.72226 0.29985 0.0
H2861 H 0.60258 0.6892 0.26926 0.0
H2862 H 0.59653 0.71902 0.28995 0.0
C2863 C 0.64734 0.7145 0.29749 0.0
C2864 C 0.98533 0.56047 0.66173 0.0
C2865 C 0.97405 0.55163 0.646 0.0
H2866 H 1.00468 0.58476 0.67092 0.0
C2867 C 0.97637 0.55934 0.62629 0.0
H2868 H 0.98401 0.55496 0.67709 0.0
C2869 C 0.98853 0.57639 0.62271 0.0
C2870 C 0.99837 0.58622 0.63881 0.0
H2871 H 0.96792 0.55291 0.61382 0.0
H2872 H 0.98909 0.58265 0.60759 0.0
C2873 C 0.99719 0.57764 0.65821 0.0
C2874 C 0.69745 0.73825 0.87307 0.0
C2875 C 0.68764 0.74805 0.88921 0.0
H2876 H 0.72089 0.71763 0.86409 0.0
C2877 C 0.69625 0.74681 0.9086 0.0
H2878 H 0.69117 0.73885 0.85796 0.0
C2879 C 0.7134 0.73492 0.91206 0.0
C2880 C 0.72221 0.72367 0.89629 0.0
H2881 H 0.68915 0.75427 0.92134 0.0
H2882 H 0.71893 0.73354 0.92742 0.0
C2883 C 0.71449 0.72605 0.8766 0.0
C2884 C 0.53826 0.46344 0.16156 0.0
C2885 C 0.54961 0.47225 0.14585 0.0
H2886 H 0.51888 0.43917 0.17073 0.0
C2887 C 0.54737 0.4645 0.12615 0.0
H2888 H 0.53953 0.46899 0.17692 0.0
C2889 C 0.53522 0.44744 0.12256 0.0
C2890 C 0.52532 0.43764 0.13865 0.0
H2891 H 0.55587 0.47089 0.1137 0.0
H2892 H 0.53472 0.44114 0.10745 0.0
C2893 C 0.52641 0.44627 0.15803 0.0
C2894 C 0.80906 0.29765 0.3766 0.0
C2895 C 0.80139 0.30005 0.39631 0.0
H2896 H 0.83234 0.28485 0.35791 0.0
C2897 C 0.81027 0.28884 0.41207 0.0
H2898 H 0.80261 0.30604 0.3641 0.0
C2899 C 0.82743 0.27696 0.40858 0.0
C2900 C 0.83597 0.2757 0.38917 0.0
H2901 H 0.80478 0.29023 0.42744 0.0
H2902 H 0.83458 0.26953 0.4213 0.0
C2903 C 0.8261 0.28547 0.37304 0.0
C2904 C 0.98533 0.46358 0.86206 0.0
C2905 C 0.97401 0.4724 0.87779 0.0
H2906 H 1.00465 0.43928 0.85286 0.0
C2907 C 0.97627 0.46464 0.89748 0.0
H2908 H 0.98405 0.46913 0.84671 0.0
C2909 C 0.98839 0.44757 0.90105 0.0
C2910 C 0.99825 0.43775 0.88495 0.0
H2911 H 0.96779 0.47105 0.90994 0.0
H2912 H 0.9889 0.44126 0.91616 0.0
C2913 C 0.99715 0.44639 0.86557 0.0
C2914 C 0.8092 0.72592 0.14735 0.0
C2915 C 0.80147 0.72358 0.12765 0.0
H2916 H 0.83252 0.73868 0.16601 0.0
C2917 C 0.81029 0.73486 0.1119 0.0
H2918 H 0.80279 0.71748 0.15983 0.0
C2919 C 0.82744 0.74674 0.11539 0.0
C2920 C 0.83605 0.74794 0.13477 0.0
H2921 H 0.80476 0.73351 0.09654 0.0
H2922 H 0.83455 0.75422 0.10266 0.0
C2923 C 0.82624 0.73811 0.1509 0.0
C2924 C 0.52657 0.57759 0.36567 0.0
C2925 C 0.52548 0.58623 0.38505 0.0
H2926 H 0.53964 0.55483 0.34681 0.0
C2927 C 0.53535 0.57641 0.40115 0.0
H2928 H 0.51905 0.58469 0.35297 0.0
C2929 C 0.54747 0.55933 0.39757 0.0
C2930 C 0.5497 0.55157 0.37788 0.0
H2931 H 0.53485 0.58272 0.41625 0.0
H2932 H 0.55594 0.55292 0.41003 0.0
C2933 C 0.53838 0.56039 0.36216 0.0
C2934 C 0.69628 0.27707 0.61548 0.0
C2935 C 0.68775 0.27585 0.6349 0.0
H2936 H 0.7189 0.29029 0.59656 0.0
C2937 C 0.69764 0.28565 0.651 0.0
H2938 H 0.68912 0.26961 0.60278 0.0
C2939 C 0.71467 0.29782 0.64739 0.0
C2940 C 0.72233 0.30018 0.62767 0.0
H2941 H 0.69141 0.28506 0.66614 0.0
H2942 H 0.72114 0.30624 0.65987 0.0
C2943 C 0.71344 0.28893 0.61194 0.0
C2944 C 0.62656 0.9763 0.5594 0.0
C2945 C 0.64628 0.97396 0.55173 0.0
H2946 H 0.60783 0.98903 0.58268 0.0
C2947 C 0.66201 0.9852 0.56062 0.0
H2948 H 0.61409 0.96789 0.55293 0.0
C2949 C 0.65848 0.99704 0.57779 0.0
C2950 C 0.63906 0.99825 0.58634 0.0
H2951 H 0.67738 0.98385 0.55514 0.0
H2952 H 0.67119 1.0045 0.58495 0.0
C2953 C 0.62297 0.98845 0.57645 0.0
C2954 C 0.12654 0.5476 0.46439 0.0
C2955 C 0.14624 0.54993 0.47211 0.0
H2956 H 0.10786 0.53485 0.44108 0.0
C2957 C 0.16198 0.53862 0.4633 0.0
H2958 H 0.11407 0.55606 0.47079 0.0
C2959 C 0.15847 0.52673 0.44615 0.0
C2960 C 0.13908 0.52555 0.43755 0.0
H2961 H 0.17734 0.53996 0.46882 0.0
H2962 H 0.17119 0.51923 0.43905 0.0
C2963 C 0.12298 0.53541 0.44736 0.0
C2964 C 0.73488 0.91195 0.71374 0.0
C2965 C 0.72362 0.89619 0.72256 0.0
H2966 H 0.75425 0.92119 0.68948 0.0
C2967 C 0.72599 0.87649 0.71485 0.0
H2968 H 0.73352 0.92731 0.71925 0.0
C2969 C 0.73818 0.87294 0.69782 0.0
C2970 C 0.74801 0.88907 0.688 0.0
H2971 H 0.71755 0.864 0.72126 0.0
H2972 H 0.73878 0.85782 0.69155 0.0
C2973 C 0.74678 0.90846 0.69659 0.0
C2974 C 0.36533 0.49708 0.94638 0.0
C2975 C 0.3847 0.49826 0.93775 0.0
H2976 H 0.34649 0.48384 0.96907 0.0
C2977 C 0.40082 0.48839 0.94752 0.0
H2978 H 0.3526 0.50459 0.93931 0.0
C2979 C 0.39728 0.47619 0.96454 0.0
C2980 C 0.37759 0.47385 0.97229 0.0
H2981 H 0.41593 0.48896 0.94122 0.0
H2982 H 0.40976 0.46771 0.97092 0.0
C2983 C 0.36185 0.48517 0.96352 0.0
C2984 C 0.29754 0.64747 0.71452 0.0
C2985 C 0.29987 0.62778 0.72227 0.0
H2986 H 0.28482 0.66612 0.69116 0.0
C2987 C 0.2886 0.61203 0.71345 0.0
H2988 H 0.30597 0.65996 0.72093 0.0
C2989 C 0.27675 0.6155 0.69627 0.0
C2990 C 0.27557 0.63488 0.68765 0.0
H2991 H 0.28994 0.59667 0.719 0.0
H2992 H 0.26928 0.60277 0.68917 0.0
C2993 C 0.28538 0.65101 0.69746 0.0
C2994 C 0.86204 0.03865 0.06053 0.0
C2995 C 0.87777 0.04997 0.05173 0.0
H2996 H 0.85283 0.01923 0.08475 0.0
C2997 C 0.89747 0.04764 0.05945 0.0
H2998 H 0.84668 0.03999 0.05501 0.0
C2999 C 0.90104 0.03542 0.07646 0.0
C3000 C 0.88493 0.02555 0.08626 0.0
H3001 H 0.90994 0.05611 0.05306 0.0
H3002 H 0.91616 0.03486 0.08274 0.0
C3003 C 0.86555 0.02674 0.07766 0.0
C3004 C 0.73834 0.1509 0.82655 0.0
C3005 C 0.74818 0.13479 0.83636 0.0
H3006 H 0.71769 0.15983 0.80312 0.0
C3007 C 0.74697 0.1154 0.82777 0.0
H3008 H 0.73892 0.16602 0.83282 0.0
C3009 C 0.73507 0.1119 0.81062 0.0
C3010 C 0.72379 0.12765 0.80181 0.0
H3011 H 0.75446 0.10268 0.83487 0.0
H3012 H 0.73372 0.09654 0.80511 0.0
C3013 C 0.72614 0.14735 0.80952 0.0
C3014 C 0.78907 0.91179 0.31055 0.0
C3015 C 0.80031 0.89602 0.30173 0.0
H3016 H 0.76972 0.92106 0.33481 0.0
C3017 C 0.79794 0.87633 0.30946 0.0
H3018 H 0.79044 0.92714 0.30502 0.0
C3019 C 0.78575 0.8728 0.3265 0.0
C3020 C 0.77594 0.88894 0.33631 0.0
H3021 H 0.80636 0.86382 0.30305 0.0
H3022 H 0.78515 0.85768 0.33278 0.0
C3023 C 0.77718 0.90832 0.32771 0.0
C3024 C 0.46452 0.39734 0.04737 0.0
C3025 C 0.47227 0.37765 0.04965 0.0
H3026 H 0.44117 0.41602 0.03468 0.0
C3027 C 0.46348 0.36193 0.03831 0.0
H3028 H 0.47091 0.40981 0.05586 0.0
C3029 C 0.44632 0.36544 0.02644 0.0
C3030 C 0.43768 0.38481 0.02532 0.0
H3031 H 0.46903 0.34657 0.0396 0.0
H3032 H 0.43923 0.35273 0.01892 0.0
C3033 C 0.44748 0.40091 0.0352 0.0
C3034 C 0.3728 0.69769 0.78559 0.0
C3035 C 0.38891 0.68787 0.77574 0.0
H3036 H 0.3639 0.72111 0.80626 0.0
C3037 C 0.4083 0.69645 0.77695 0.0
H3038 H 0.35768 0.69142 0.78501 0.0
C3039 C 0.41181 0.71359 0.78885 0.0
C3040 C 0.39608 0.7224 0.80015 0.0
H3041 H 0.42102 0.68934 0.76945 0.0
H3042 H 0.42718 0.71909 0.7902 0.0
C3043 C 0.37637 0.7147 0.7978 0.0
C3044 C 0.07639 0.62294 0.53523 0.0
C3045 C 0.08622 0.63904 0.52538 0.0
H3046 H 0.05293 0.61406 0.55587 0.0
C3047 C 0.07764 0.65844 0.52657 0.0
H3048 H 0.08265 0.60782 0.53467 0.0
C3049 C 0.06049 0.66196 0.53845 0.0
C3050 C 0.05165 0.64624 0.54974 0.0
H3051 H 0.08476 0.67115 0.51907 0.0
H3052 H 0.05498 0.67733 0.53978 0.0
C3053 C 0.05935 0.62653 0.54742 0.0
C3054 C 0.14742 0.3091 0.29745 0.0
C3055 C 0.12772 0.30138 0.29975 0.0
H3056 H 0.16612 0.33242 0.28473 0.0
C3057 C 0.112 0.31019 0.28842 0.0
H3058 H 0.15988 0.3027 0.30592 0.0
C3059 C 0.11552 0.32734 0.27655 0.0
C3060 C 0.1349 0.33595 0.2754 0.0
H3061 H 0.09664 0.30466 0.28973 0.0
H3062 H 0.10281 0.33444 0.26903 0.0
C3063 C 0.151 0.32614 0.28527 0.0
C3064 C 0.46474 0.62648 0.47621 0.0
C3065 C 0.4725 0.64618 0.47396 0.0
H3066 H 0.44138 0.6078 0.48885 0.0
C3067 C 0.4637 0.66189 0.4853 0.0
H3068 H 0.47114 0.61403 0.46772 0.0
C3069 C 0.44652 0.65838 0.49714 0.0
C3070 C 0.43788 0.639 0.49824 0.0
H3071 H 0.46925 0.67725 0.48403 0.0
H3072 H 0.43942 0.67108 0.50467 0.0
C3073 C 0.44769 0.62291 0.48836 0.0
C3074 C 0.11202 0.71342 0.23502 0.0
C3075 C 0.12774 0.72225 0.22372 0.0
H3076 H 0.10284 0.68914 0.2544 0.0
C3077 C 0.14745 0.71455 0.22603 0.0
H3078 H 0.09665 0.71892 0.23369 0.0
C3079 C 0.15104 0.69752 0.23821 0.0
C3080 C 0.13494 0.68768 0.24807 0.0
H3081 H 0.15991 0.72097 0.21757 0.0
H3082 H 0.16616 0.69126 0.23877 0.0
C3083 C 0.11555 0.69627 0.2469 0.0
C3084 C 0.07734 0.36552 0.99705 0.0
C3085 C 0.08597 0.38489 0.99817 0.0
H3086 H 0.05461 0.34666 0.98391 0.0
C3087 C 0.07616 0.401 0.98831 0.0
H3088 H 0.08444 0.3528 1.00456 0.0
C3089 C 0.0591 0.39744 0.97616 0.0
C3090 C 0.05135 0.37774 0.97388 0.0
H3091 H 0.08246 0.41611 0.98883 0.0
H3092 H 0.0527 0.40991 0.96769 0.0
C3093 C 0.06016 0.36202 0.9852 0.0
C3094 C 0.37622 0.30935 0.72618 0.0
C3095 C 0.39591 0.3016 0.72393 0.0
H3096 H 0.35752 0.33271 0.73882 0.0
C3097 C 0.41162 0.31041 0.73527 0.0
H3098 H 0.36376 0.30294 0.7177 0.0
C3099 C 0.4081 0.3276 0.7471 0.0
C3100 C 0.38872 0.33622 0.7482 0.0
H3101 H 0.42698 0.30487 0.73399 0.0
H3102 H 0.4208 0.3347 0.75462 0.0
C3103 C 0.37263 0.32641 0.73832 0.0
C3104 C 0.04763 0.46459 0.39713 0.0
C3105 C 0.04999 0.47232 0.37743 0.0
H3106 H 0.03484 0.44129 0.41579 0.0
C3107 C 0.0387 0.46352 0.36168 0.0
H3108 H 0.05608 0.47098 0.40962 0.0
C3109 C 0.0268 0.44638 0.36517 0.0
C3110 C 0.02558 0.43777 0.38455 0.0
H3111 H 0.04006 0.46905 0.34632 0.0
H3112 H 0.01931 0.43929 0.35244 0.0
C3113 C 0.03542 0.44757 0.40068 0.0
C3114 C 0.30905 0.29744 0.14724 0.0
C3115 C 0.30129 0.29974 0.12755 0.0
H3116 H 0.3324 0.28473 0.1659 0.0
C3117 C 0.31006 0.2884 0.11182 0.0
H3118 H 0.30267 0.30593 0.15971 0.0
C3119 C 0.32722 0.27652 0.11531 0.0
C3120 C 0.33587 0.27538 0.13468 0.0
H3121 H 0.30451 0.2897 0.09647 0.0
H3122 H 0.3343 0.269 0.10259 0.0
C3123 C 0.32609 0.28526 0.15079 0.0
C3124 C 0.47599 0.55918 0.89749 0.0
C3125 C 0.47366 0.55148 0.87779 0.0
H3126 H 0.48875 0.58247 0.9162 0.0
C3127 C 0.48498 0.5603 0.86206 0.0
H3128 H 0.46752 0.55278 0.90996 0.0
C3129 C 0.49688 0.57743 0.86558 0.0
C3130 C 0.49806 0.58602 0.88498 0.0
H3131 H 0.48364 0.55479 0.8467 0.0
H3132 H 0.50438 0.58454 0.85288 0.0
C3133 C 0.48819 0.5762 0.90108 0.0
C3134 C 0.21473 0.72616 0.64735 0.0
C3135 C 0.22246 0.72385 0.62765 0.0
H3136 H 0.19143 0.73891 0.66604 0.0
C3137 C 0.21367 0.73519 0.61193 0.0
H3138 H 0.22112 0.71767 0.65982 0.0
C3139 C 0.19653 0.74709 0.61544 0.0
C3140 C 0.18792 0.74826 0.63483 0.0
H3141 H 0.2192 0.73387 0.59657 0.0
H3142 H 0.18944 0.75461 0.60273 0.0
C3143 C 0.19771 0.73837 0.65093 0.0
C3144 C 0.04777 0.5591 0.12625 0.0
C3145 C 0.0501 0.55138 0.14595 0.0
H3146 H 0.03501 0.58241 0.10757 0.0
C3147 C 0.03878 0.56017 0.16168 0.0
H3148 H 0.05624 0.55271 0.11377 0.0
C3149 C 0.02688 0.57732 0.15818 0.0
C3150 C 0.0257 0.58593 0.13879 0.0
H3151 H 0.04011 0.55465 0.17704 0.0
H3152 H 0.01937 0.58441 0.17089 0.0
C3153 C 0.03557 0.57613 0.12268 0.0
C3154 C 0.21351 0.28863 0.91172 0.0
C3155 C 0.22228 0.29993 0.89596 0.0
H3156 H 0.18928 0.26925 0.921 0.0
C3157 C 0.21451 0.2976 0.87628 0.0
H3158 H 0.21907 0.28996 0.92707 0.0
C3159 C 0.19746 0.28541 0.87276 0.0
C3160 C 0.18769 0.27557 0.8889 0.0
H3161 H 0.22088 0.30606 0.86379 0.0
H3162 H 0.19114 0.28485 0.85766 0.0
C3163 C 0.19635 0.27675 0.90827 0.0
C3164 C 0.47625 0.46478 0.62661 0.0
C3165 C 0.47388 0.47252 0.6463 0.0
H3166 H 0.48902 0.44143 0.60798 0.0
C3167 C 0.48513 0.46371 0.66207 0.0
H3168 H 0.46783 0.47118 0.61411 0.0
C3169 C 0.497 0.44654 0.65861 0.0
C3170 C 0.49822 0.43792 0.63924 0.0
H3171 H 0.48377 0.46925 0.67742 0.0
H3172 H 0.50446 0.43944 0.67136 0.0
C3173 C 0.48843 0.44773 0.62309 0.0
C3174 C 0.30933 0.72641 0.37639 0.0
C3175 C 0.30157 0.72406 0.39607 0.0
H3176 H 0.33267 0.73919 0.35776 0.0
C3177 C 0.31033 0.73536 0.41183 0.0
H3178 H 0.30297 0.71795 0.36389 0.0
C3179 C 0.32748 0.74726 0.40837 0.0
C3180 C 0.33612 0.74847 0.38901 0.0
H3181 H 0.30478 0.73401 0.42718 0.0
H3182 H 0.33455 0.75476 0.42111 0.0
C3183 C 0.32636 0.73862 0.37287 0.0
C3184 C 0.36202 0.03896 0.46343 0.0
C3185 C 0.37777 0.05024 0.47224 0.0
H3186 H 0.35278 0.01957 0.43919 0.0
C3187 C 0.39746 0.04789 0.46452 0.0
H3188 H 0.34666 0.04031 0.46895 0.0
C3189 C 0.40101 0.03568 0.44749 0.0
C3190 C 0.38489 0.02584 0.43769 0.0
H3191 H 0.40995 0.05633 0.47092 0.0
H3192 H 0.41613 0.0351 0.44121 0.0
C3193 C 0.36551 0.02706 0.44629 0.0
C3194 C 0.8974 0.47629 0.55907 0.0
C3195 C 0.87768 0.47396 0.5514 0.0
H3196 H 0.91613 0.48901 0.58236 0.0
C3197 C 0.86196 0.48522 0.56029 0.0
H3198 H 0.90987 0.46787 0.5526 0.0
C3199 C 0.86549 0.49706 0.57746 0.0
C3200 C 0.88491 0.49825 0.58601 0.0
H3201 H 0.84658 0.48388 0.55481 0.0
H3202 H 0.85279 0.50452 0.58463 0.0
C3203 C 0.901 0.48844 0.57612 0.0
C3204 C 0.28866 0.11208 0.31028 0.0
C3205 C 0.29994 0.12781 0.30143 0.0
H3206 H 0.26932 0.10289 0.33457 0.0
C3207 C 0.29763 0.14751 0.30913 0.0
H3208 H 0.28998 0.09671 0.30477 0.0
C3209 C 0.28547 0.1511 0.32618 0.0
C3210 C 0.27563 0.135 0.33603 0.0
H3211 H 0.30607 0.15998 0.3027 0.0
H3212 H 0.28491 0.16622 0.33244 0.0
C3213 C 0.2768 0.1156 0.32744 0.0
C3214 C 0.6262 0.54741 0.05914 0.0
C3215 C 0.64591 0.54969 0.05143 0.0
H3216 H 0.60747 0.53474 0.08245 0.0
C3217 C 0.66162 0.53836 0.06027 0.0
H3218 H 0.61375 0.5559 0.05272 0.0
C3219 C 0.65807 0.52651 0.07744 0.0
C3220 C 0.63867 0.52538 0.08602 0.0
H3221 H 0.67698 0.53965 0.05476 0.0
H3222 H 0.67076 0.51899 0.08456 0.0
C3223 C 0.6226 0.53525 0.07619 0.0
C3224 C 0.72573 0.37642 0.30929 0.0
C3225 C 0.72335 0.39612 0.30157 0.0
H3226 H 0.73855 0.35777 0.33259 0.0
C3227 C 0.73462 0.41188 0.31037 0.0
H3228 H 0.7173 0.36393 0.30289 0.0
C3229 C 0.74653 0.40841 0.32751 0.0
C3230 C 0.74777 0.38902 0.33611 0.0
H3231 H 0.73324 0.42724 0.30485 0.0
H3232 H 0.75401 0.42114 0.3346 0.0
C3233 C 0.73795 0.37289 0.32631 0.0
C3234 C 0.15835 0.99706 0.94634 0.0
C3235 C 0.13898 0.99824 0.93771 0.0
H3236 H 0.17717 0.98384 0.96905 0.0
C3237 C 0.12285 0.9884 0.9475 0.0
H3238 H 0.17108 1.00455 0.93926 0.0
C3239 C 0.12638 0.97621 0.96454 0.0
C3240 C 0.14607 0.97388 0.97229 0.0
H3241 H 0.10774 0.98896 0.94119 0.0
H3242 H 0.11389 0.96776 0.97092 0.0
C3243 C 0.16182 0.98518 0.96351 0.0
C3244 C 0.28836 0.91193 0.21364 0.0
C3245 C 0.29965 0.89619 0.22246 0.0
H3246 H 0.26901 0.92116 0.18936 0.0
C3247 C 0.29733 0.8765 0.21473 0.0
H3248 H 0.28969 0.92729 0.21917 0.0
C3249 C 0.28517 0.87294 0.19768 0.0
C3250 C 0.27533 0.88905 0.18786 0.0
H3251 H 0.30578 0.86402 0.22114 0.0
H3252 H 0.28462 0.85782 0.19139 0.0
C3253 C 0.2765 0.90844 0.19647 0.0
C3254 C 0.22634 0.14754 0.71461 0.0
C3255 C 0.22404 0.12784 0.72234 0.0
H3256 H 0.23904 0.16622 0.69127 0.0
C3257 C 0.23534 0.11211 0.71351 0.0
H3258 H 0.21789 0.16001 0.72102 0.0
C3259 C 0.24719 0.11561 0.69634 0.0
C3260 C 0.24835 0.135 0.68773 0.0
H3261 H 0.23402 0.09675 0.71904 0.0
H3262 H 0.25469 0.1029 0.68923 0.0
C3263 C 0.2385 0.15111 0.69755 0.0
loop_
_geom_bond_atom_site_label_1
_geom_bond_atom_site_label_2
_geom_bond_distance
_geom_bond_site_symmetry_2
_ccdc_geom_bond_type
O0 Cd1 2.223 . S
O0 C8 1.315 . S
Cd1 O0 2.223 . S
Cd1 O4 2.297 . S
Cd1 O5 2.439 . S
Cd1 O11 2.240 1_455 S
Cd2 O3 2.240 . S
Cd2 O10 2.223 1_455 S
Cd2 O12 2.297 1_455 S
Cd2 O13 2.439 1_455 S
O3 Cd2 2.240 . S
O3 C8 1.279 . S
O4 Cd1 2.297 . S
O4 C6 1.247 . S
O5 Cd1 2.439 . S
O5 C6 1.208 . S
C6 O4 1.247 . S
C6 O5 1.208 . S
C7 O12 1.247 . S
C7 O13 1.208 . S
C8 O0 1.315 . S
C8 O3 1.279 . S
C9 O10 1.315 . S
C9 O11 1.279 . S
O10 Cd2 2.223 1_655 S
O10 C9 1.315 . S
O11 Cd1 2.240 1_655 S
O11 C9 1.279 . S
O12 Cd2 2.297 1_655 S
O12 C7 1.247 . S
O13 Cd2 2.439 1_655 S
O13 C7 1.208 . S
O14 Cd15 2.223 . S
O14 C22 1.315 . S
Cd15 O14 2.223 . S
Cd15 O18 2.297 . S
Cd15 O19 2.439 . S
Cd15 O25 2.240 . S
Cd16 O17 2.240 . S
Cd16 O24 2.223 . S
Cd16 O26 2.297 . S
Cd16 O27 2.439 . S
O17 Cd16 2.240 . S
O17 C22 1.279 . S
O18 Cd15 2.297 . S
O18 C20 1.247 . S
O19 Cd15 2.439 . S
O19 C20 1.208 . S
C20 O18 1.247 . S
C20 O19 1.208 . S
C21 O26 1.247 . S
C21 O27 1.208 . S
C22 O14 1.315 . S
C22 O17 1.279 . S
C23 O24 1.315 . S
C23 O25 1.279 . S
O24 Cd16 2.223 . S
O24 C23 1.315 . S
O25 Cd15 2.240 . S
O25 C23 1.279 . S
O26 Cd16 2.297 . S
O26 C21 1.247 . S
O27 Cd16 2.439 . S
O27 C21 1.208 . S
O28 Cd29 2.223 . S
O28 C36 1.315 . S
Cd29 O28 2.223 . S
Cd29 O32 2.297 . S
Cd29 O33 2.439 . S
Cd29 O39 2.240 . S
Cd30 O31 2.240 . S
Cd30 O38 2.223 . S
Cd30 O40 2.297 . S
Cd30 O41 2.439 . S
O31 Cd30 2.240 . S
O31 C36 1.279 . S
O32 Cd29 2.297 . S
O32 C34 1.247 . S
O33 Cd29 2.439 . S
O33 C34 1.208 . S
C34 O32 1.247 . S
C34 O33 1.208 . S
C35 O40 1.247 . S
C35 O41 1.208 . S
C36 O28 1.315 . S
C36 O31 1.279 . S
C37 O38 1.315 . S
C37 O39 1.279 . S
O38 Cd30 2.223 . S
O38 C37 1.315 . S
O39 Cd29 2.240 . S
O39 C37 1.279 . S
O40 Cd30 2.297 . S
O40 C35 1.247 . S
O41 Cd30 2.439 . S
O41 C35 1.208 . S
O42 Cd43 2.223 . S
O42 C50 1.315 . S
Cd43 O42 2.223 . S
Cd43 O46 2.297 . S
Cd43 O47 2.439 . S
Cd43 O53 2.240 . S
Cd44 O45 2.240 . S
Cd44 O52 2.223 . S
Cd44 O54 2.297 . S
Cd44 O55 2.439 . S
O45 Cd44 2.240 . S
O45 C50 1.279 . S
O46 Cd43 2.297 . S
O46 C48 1.247 . S
O47 Cd43 2.439 . S
O47 C48 1.208 . S
C48 O46 1.247 . S
C48 O47 1.208 . S
C49 O54 1.247 . S
C49 O55 1.208 . S
C50 O42 1.315 . S
C50 O45 1.279 . S
C51 O52 1.315 . S
C51 O53 1.279 . S
O52 Cd44 2.223 . S
O52 C51 1.315 . S
O53 Cd43 2.240 . S
O53 C51 1.279 . S
O54 Cd44 2.297 . S
O54 C49 1.247 . S
O55 Cd44 2.439 . S
O55 C49 1.208 . S
O56 Cd57 2.223 . S
O56 C64 1.315 . S
Cd57 O56 2.223 . S
Cd57 O60 2.297 . S
Cd57 O61 2.439 . S
Cd57 O67 2.240 1_455 S
Cd58 O59 2.240 . S
Cd58 O66 2.223 1_455 S
Cd58 O68 2.297 1_455 S
Cd58 O69 2.439 1_455 S
O59 Cd58 2.240 . S
O59 C64 1.279 . S
O60 Cd57 2.297 . S
O60 C62 1.247 . S
O61 Cd57 2.439 . S
O61 C62 1.208 . S
C62 O60 1.247 . S
C62 O61 1.208 . S
C63 O68 1.247 . S
C63 O69 1.208 . S
C64 O56 1.315 . S
C64 O59 1.279 . S
C65 O66 1.315 . S
C65 O67 1.279 . S
O66 Cd58 2.223 1_655 S
O66 C65 1.315 . S
O67 Cd57 2.240 1_655 S
O67 C65 1.279 . S
O68 Cd58 2.297 1_655 S
O68 C63 1.247 . S
O69 Cd58 2.439 1_655 S
O69 C63 1.208 . S
O70 Cd71 2.223 . S
O70 C78 1.315 . S
Cd71 O70 2.223 . S
Cd71 O74 2.297 . S
Cd71 O75 2.439 . S
Cd71 O81 2.240 . S
Cd72 O73 2.240 . S
Cd72 O80 2.223 . S
Cd72 O82 2.297 . S
Cd72 O83 2.439 . S
O73 Cd72 2.240 . S
O73 C78 1.279 . S
O74 Cd71 2.297 . S
O74 C76 1.247 . S
O75 Cd71 2.439 . S
O75 C76 1.208 . S
C76 O74 1.247 . S
C76 O75 1.208 . S
C77 O82 1.247 . S
C77 O83 1.208 . S
C78 O70 1.315 . S
C78 O73 1.279 . S
C79 O80 1.315 . S
C79 O81 1.279 . S
O80 Cd72 2.223 . S
O80 C79 1.315 . S
O81 Cd71 2.240 . S
O81 C79 1.279 . S
O82 Cd72 2.297 . S
O82 C77 1.247 . S
O83 Cd72 2.439 . S
O83 C77 1.208 . S
O84 Cd85 2.223 . S
O84 C92 1.315 . S
Cd85 O84 2.223 . S
Cd85 O88 2.297 . S
Cd85 O89 2.439 . S
Cd85 O95 2.240 . S
Cd86 O87 2.240 . S
Cd86 O94 2.223 . S
Cd86 O96 2.297 . S
Cd86 O97 2.439 . S
O87 Cd86 2.240 . S
O87 C92 1.279 . S
O88 Cd85 2.297 . S
O88 C90 1.247 . S
O89 Cd85 2.439 . S
O89 C90 1.208 . S
C90 O88 1.247 . S
C90 O89 1.208 . S
C91 O96 1.247 . S
C91 O97 1.208 . S
C92 O84 1.315 . S
C92 O87 1.279 . S
C93 O94 1.315 . S
C93 O95 1.279 . S
O94 Cd86 2.223 . S
O94 C93 1.315 . S
O95 Cd85 2.240 . S
O95 C93 1.279 . S
O96 Cd86 2.297 . S
O96 C91 1.247 . S
O97 Cd86 2.439 . S
O97 C91 1.208 . S
O98 Cd99 2.223 . S
O98 C106 1.315 . S
Cd99 O98 2.223 . S
Cd99 O102 2.297 . S
Cd99 O103 2.439 . S
Cd99 O109 2.240 . S
Cd100 O101 2.240 . S
Cd100 O108 2.223 . S
Cd100 O110 2.297 . S
Cd100 O111 2.439 . S
O101 Cd100 2.240 . S
O101 C106 1.279 . S
O102 Cd99 2.297 . S
O102 C104 1.247 . S
O103 Cd99 2.439 . S
O103 C104 1.208 . S
C104 O102 1.247 . S
C104 O103 1.208 . S
C105 O110 1.247 . S
C105 O111 1.208 . S
C106 O98 1.315 . S
C106 O101 1.279 . S
C107 O108 1.315 . S
C107 O109 1.279 . S
O108 Cd100 2.223 . S
O108 C107 1.315 . S
O109 Cd99 2.240 . S
O109 C107 1.279 . S
O110 Cd100 2.297 . S
O110 C105 1.247 . S
O111 Cd100 2.439 . S
O111 C105 1.208 . S
O112 Cd113 2.223 1_565 S
O112 C120 1.315 . S
Cd113 O112 2.223 1_545 S
Cd113 O116 2.297 1_545 S
Cd113 O117 2.439 1_545 S
Cd113 O123 2.240 . S
Cd114 O115 2.240 1_545 S
Cd114 O122 2.223 . S
Cd114 O124 2.297 . S
Cd114 O125 2.439 . S
O115 Cd114 2.240 1_565 S
O115 C120 1.279 . S
O116 Cd113 2.297 1_565 S
O116 C118 1.247 . S
O117 Cd113 2.439 1_565 S
O117 C118 1.208 . S
C118 O116 1.247 . S
C118 O117 1.208 . S
C119 O124 1.247 . S
C119 O125 1.208 . S
C120 O112 1.315 . S
C120 O115 1.279 . S
C121 O122 1.315 . S
C121 O123 1.279 . S
O122 Cd114 2.223 . S
O122 C121 1.315 . S
O123 Cd113 2.240 . S
O123 C121 1.279 . S
O124 Cd114 2.297 . S
O124 C119 1.247 . S
O125 Cd114 2.439 . S
O125 C119 1.208 . S
O126 Cd127 2.223 . S
O126 C134 1.315 . S
Cd127 O126 2.223 . S
Cd127 O130 2.297 . S
Cd127 O131 2.439 . S
Cd127 O137 2.240 . S
Cd128 O129 2.240 . S
Cd128 O136 2.223 . S
Cd128 O138 2.297 . S
Cd128 O139 2.439 . S
O129 Cd128 2.240 . S
O129 C134 1.279 . S
O130 Cd127 2.297 . S
O130 C132 1.247 . S
O131 Cd127 2.439 . S
O131 C132 1.208 . S
C132 O130 1.247 . S
C132 O131 1.208 . S
C133 O138 1.247 . S
C133 O139 1.208 . S
C134 O126 1.315 . S
C134 O129 1.279 . S
C135 O136 1.315 . S
C135 O137 1.279 . S
O136 Cd128 2.223 . S
O136 C135 1.315 . S
O137 Cd127 2.240 . S
O137 C135 1.279 . S
O138 Cd128 2.297 . S
O138 C133 1.247 . S
O139 Cd128 2.439 . S
O139 C133 1.208 . S
O140 Cd141 2.223 1_545 S
O140 C148 1.315 . S
Cd141 O140 2.223 1_565 S
Cd141 O144 2.297 1_565 S
Cd141 O145 2.439 1_565 S
Cd141 O151 2.240 . S
Cd142 O143 2.240 1_565 S
Cd142 O150 2.223 . S
Cd142 O152 2.297 . S
Cd142 O153 2.439 . S
O143 Cd142 2.240 1_545 S
O143 C148 1.279 . S
O144 Cd141 2.297 1_545 S
O144 C146 1.247 . S
O145 Cd141 2.439 1_545 S
O145 C146 1.208 . S
C146 O144 1.247 . S
C146 O145 1.208 . S
C147 O152 1.247 . S
C147 O153 1.208 . S
C148 O140 1.315 . S
C148 O143 1.279 . S
C149 O150 1.315 . S
C149 O151 1.279 . S
O150 Cd142 2.223 . S
O150 C149 1.315 . S
O151 Cd141 2.240 . S
O151 C149 1.279 . S
O152 Cd142 2.297 . S
O152 C147 1.247 . S
O153 Cd142 2.439 . S
O153 C147 1.208 . S
O154 Cd155 2.223 . S
O154 C162 1.315 . S
Cd155 O154 2.223 . S
Cd155 O158 2.297 . S
Cd155 O159 2.439 . S
Cd155 O165 2.240 . S
Cd156 O157 2.240 . S
Cd156 O164 2.223 . S
Cd156 O166 2.297 . S
Cd156 O167 2.439 . S
O157 Cd156 2.240 . S
O157 C162 1.279 . S
O158 Cd155 2.297 . S
O158 C160 1.247 . S
O159 Cd155 2.439 . S
O159 C160 1.208 . S
C160 O158 1.247 . S
C160 O159 1.208 . S
C161 O166 1.247 . S
C161 O167 1.208 . S
C162 O154 1.315 . S
C162 O157 1.279 . S
C163 O164 1.315 . S
C163 O165 1.279 . S
O164 Cd156 2.223 . S
O164 C163 1.315 . S
O165 Cd155 2.240 . S
O165 C163 1.279 . S
O166 Cd156 2.297 . S
O166 C161 1.247 . S
O167 Cd156 2.439 . S
O167 C161 1.208 . S
O168 Cd169 2.223 1_545 S
O168 C176 1.315 . S
Cd169 O168 2.223 1_565 S
Cd169 O172 2.297 1_565 S
Cd169 O173 2.439 1_565 S
Cd169 O179 2.240 . S
Cd170 O171 2.240 1_565 S
Cd170 O178 2.223 . S
Cd170 O180 2.297 . S
Cd170 O181 2.439 . S
O171 Cd170 2.240 1_545 S
O171 C176 1.279 . S
O172 Cd169 2.297 1_545 S
O172 C174 1.247 . S
O173 Cd169 2.439 1_545 S
O173 C174 1.208 . S
C174 O172 1.247 . S
C174 O173 1.208 . S
C175 O180 1.247 . S
C175 O181 1.208 . S
C176 O168 1.315 . S
C176 O171 1.279 . S
C177 O178 1.315 . S
C177 O179 1.279 . S
O178 Cd170 2.223 . S
O178 C177 1.315 . S
O179 Cd169 2.240 . S
O179 C177 1.279 . S
O180 Cd170 2.297 . S
O180 C175 1.247 . S
O181 Cd170 2.439 . S
O181 C175 1.208 . S
O182 Cd183 2.223 . S
O182 C190 1.315 . S
Cd183 O182 2.223 . S
Cd183 O186 2.297 . S
Cd183 O187 2.439 . S
Cd183 O193 2.240 . S
Cd184 O185 2.240 . S
Cd184 O192 2.223 . S
Cd184 O194 2.297 . S
Cd184 O195 2.439 . S
O185 Cd184 2.240 . S
O185 C190 1.279 . S
O186 Cd183 2.297 . S
O186 C188 1.247 . S
O187 Cd183 2.439 . S
O187 C188 1.208 . S
C188 O186 1.247 . S
C188 O187 1.208 . S
C189 O194 1.247 . S
C189 O195 1.208 . S
C190 O182 1.315 . S
C190 O185 1.279 . S
C191 O192 1.315 . S
C191 O193 1.279 . S
O192 Cd184 2.223 . S
O192 C191 1.315 . S
O193 Cd183 2.240 . S
O193 C191 1.279 . S
O194 Cd184 2.297 . S
O194 C189 1.247 . S
O195 Cd184 2.439 . S
O195 C189 1.208 . S
O196 Cd197 2.223 1_565 S
O196 C204 1.315 . S
Cd197 O196 2.223 1_545 S
Cd197 O200 2.297 1_545 S
Cd197 O201 2.439 1_545 S
Cd197 O207 2.240 . S
Cd198 O199 2.240 1_545 S
Cd198 O206 2.223 . S
Cd198 O208 2.297 . S
Cd198 O209 2.439 . S
O199 Cd198 2.240 1_565 S
O199 C204 1.279 . S
O200 Cd197 2.297 1_565 S
O200 C202 1.247 . S
O201 Cd197 2.439 1_565 S
O201 C202 1.208 . S
C202 O200 1.247 . S
C202 O201 1.208 . S
C203 O208 1.247 . S
C203 O209 1.208 . S
C204 O196 1.315 . S
C204 O199 1.279 . S
C205 O206 1.315 . S
C205 O207 1.279 . S
O206 Cd198 2.223 . S
O206 C205 1.315 . S
O207 Cd197 2.240 . S
O207 C205 1.279 . S
O208 Cd198 2.297 . S
O208 C203 1.247 . S
O209 Cd198 2.439 . S
O209 C203 1.208 . S
O210 Cd211 2.223 . S
O210 C218 1.315 . S
Cd211 O210 2.223 . S
Cd211 O214 2.297 . S
Cd211 O215 2.439 . S
Cd211 O221 2.240 . S
Cd212 O213 2.240 . S
Cd212 O220 2.223 . S
Cd212 O222 2.297 . S
Cd212 O223 2.439 . S
O213 Cd212 2.240 . S
O213 C218 1.279 . S
O214 Cd211 2.297 . S
O214 C216 1.247 . S
O215 Cd211 2.439 . S
O215 C216 1.208 . S
C216 O214 1.247 . S
C216 O215 1.208 . S
C217 O222 1.247 . S
C217 O223 1.208 . S
C218 O210 1.315 . S
C218 O213 1.279 . S
C219 O220 1.315 . S
C219 O221 1.279 . S
O220 Cd212 2.223 . S
O220 C219 1.315 . S
O221 Cd211 2.240 . S
O221 C219 1.279 . S
O222 Cd212 2.297 . S
O222 C217 1.247 . S
O223 Cd212 2.439 . S
O223 C217 1.208 . S
O224 Cd225 2.223 . S
O224 C232 1.315 . S
Cd225 O224 2.223 . S
Cd225 O228 2.297 . S
Cd225 O229 2.439 . S
Cd225 O235 2.240 1_554 S
Cd226 O227 2.240 . S
Cd226 O234 2.223 1_554 S
Cd226 O236 2.297 1_554 S
Cd226 O237 2.439 1_554 S
O227 Cd226 2.240 . S
O227 C232 1.279 . S
O228 Cd225 2.297 . S
O228 C230 1.247 . S
O229 Cd225 2.439 . S
O229 C230 1.208 . S
C230 O228 1.247 . S
C230 O229 1.208 . S
C231 O236 1.247 . S
C231 O237 1.208 . S
C232 O224 1.315 . S
C232 O227 1.279 . S
C233 O234 1.315 . S
C233 O235 1.279 . S
O234 Cd226 2.223 1_556 S
O234 C233 1.315 . S
O235 Cd225 2.240 1_556 S
O235 C233 1.279 . S
O236 Cd226 2.297 1_556 S
O236 C231 1.247 . S
O237 Cd226 2.439 1_556 S
O237 C231 1.208 . S
O238 Cd239 2.223 . S
O238 C246 1.315 . S
Cd239 O238 2.223 . S
Cd239 O242 2.297 . S
Cd239 O243 2.439 . S
Cd239 O249 2.240 1_556 S
Cd240 O241 2.240 . S
Cd240 O248 2.223 1_556 S
Cd240 O250 2.297 1_556 S
Cd240 O251 2.439 1_556 S
O241 Cd240 2.240 . S
O241 C246 1.279 . S
O242 Cd239 2.297 . S
O242 C244 1.247 . S
O243 Cd239 2.439 . S
O243 C244 1.208 . S
C244 O242 1.247 . S
C244 O243 1.208 . S
C245 O250 1.247 . S
C245 O251 1.208 . S
C246 O238 1.315 . S
C246 O241 1.279 . S
C247 O248 1.315 . S
C247 O249 1.279 . S
O248 Cd240 2.223 1_554 S
O248 C247 1.315 . S
O249 Cd239 2.240 1_554 S
O249 C247 1.279 . S
O250 Cd240 2.297 1_554 S
O250 C245 1.247 . S
O251 Cd240 2.439 1_554 S
O251 C245 1.208 . S
O252 Cd253 2.223 . S
O252 C260 1.315 . S
Cd253 O252 2.223 . S
Cd253 O256 2.297 . S
Cd253 O257 2.439 . S
Cd253 O263 2.240 . S
Cd254 O255 2.240 . S
Cd254 O262 2.223 . S
Cd254 O264 2.297 . S
Cd254 O265 2.439 . S
O255 Cd254 2.240 . S
O255 C260 1.279 . S
O256 Cd253 2.297 . S
O256 C258 1.247 . S
O257 Cd253 2.439 . S
O257 C258 1.208 . S
C258 O256 1.247 . S
C258 O257 1.208 . S
C259 O264 1.247 . S
C259 O265 1.208 . S
C260 O252 1.315 . S
C260 O255 1.279 . S
C261 O262 1.315 . S
C261 O263 1.279 . S
O262 Cd254 2.223 . S
O262 C261 1.315 . S
O263 Cd253 2.240 . S
O263 C261 1.279 . S
O264 Cd254 2.297 . S
O264 C259 1.247 . S
O265 Cd254 2.439 . S
O265 C259 1.208 . S
O266 Cd267 2.223 . S
O266 C274 1.315 . S
Cd267 O266 2.223 . S
Cd267 O270 2.297 . S
Cd267 O271 2.439 . S
Cd267 O277 2.240 . S
Cd268 O269 2.240 . S
Cd268 O276 2.223 . S
Cd268 O278 2.297 . S
Cd268 O279 2.439 . S
O269 Cd268 2.240 . S
O269 C274 1.279 . S
O270 Cd267 2.297 . S
O270 C272 1.247 . S
O271 Cd267 2.439 . S
O271 C272 1.208 . S
C272 O270 1.247 . S
C272 O271 1.208 . S
C273 O278 1.247 . S
C273 O279 1.208 . S
C274 O266 1.315 . S
C274 O269 1.279 . S
C275 O276 1.315 . S
C275 O277 1.279 . S
O276 Cd268 2.223 . S
O276 C275 1.315 . S
O277 Cd267 2.240 . S
O277 C275 1.279 . S
O278 Cd268 2.297 . S
O278 C273 1.247 . S
O279 Cd268 2.439 . S
O279 C273 1.208 . S
O280 Cd281 2.223 . S
O280 C288 1.315 . S
Cd281 O280 2.223 . S
Cd281 O284 2.297 . S
Cd281 O285 2.439 . S
Cd281 O291 2.240 . S
Cd282 O283 2.240 . S
Cd282 O290 2.223 . S
Cd282 O292 2.297 . S
Cd282 O293 2.439 . S
O283 Cd282 2.240 . S
O283 C288 1.279 . S
O284 Cd281 2.297 . S
O284 C286 1.247 . S
O285 Cd281 2.439 . S
O285 C286 1.208 . S
C286 O284 1.247 . S
C286 O285 1.208 . S
C287 O292 1.247 . S
C287 O293 1.208 . S
C288 O280 1.315 . S
C288 O283 1.279 . S
C289 O290 1.315 . S
C289 O291 1.279 . S
O290 Cd282 2.223 . S
O290 C289 1.315 . S
O291 Cd281 2.240 . S
O291 C289 1.279 . S
O292 Cd282 2.297 . S
O292 C287 1.247 . S
O293 Cd282 2.439 . S
O293 C287 1.208 . S
O294 Cd295 2.223 . S
O294 C302 1.315 . S
Cd295 O294 2.223 . S
Cd295 O298 2.297 . S
Cd295 O299 2.439 . S
Cd295 O305 2.240 . S
Cd296 O297 2.240 . S
Cd296 O304 2.223 . S
Cd296 O306 2.297 . S
Cd296 O307 2.439 . S
O297 Cd296 2.240 . S
O297 C302 1.279 . S
O298 Cd295 2.297 . S
O298 C300 1.247 . S
O299 Cd295 2.439 . S
O299 C300 1.208 . S
C300 O298 1.247 . S
C300 O299 1.208 . S
C301 O306 1.247 . S
C301 O307 1.208 . S
C302 O294 1.315 . S
C302 O297 1.279 . S
C303 O304 1.315 . S
C303 O305 1.279 . S
O304 Cd296 2.223 . S
O304 C303 1.315 . S
O305 Cd295 2.240 . S
O305 C303 1.279 . S
O306 Cd296 2.297 . S
O306 C301 1.247 . S
O307 Cd296 2.439 . S
O307 C301 1.208 . S
O308 Cd309 2.223 . S
O308 C316 1.315 . S
Cd309 O308 2.223 . S
Cd309 O312 2.297 . S
Cd309 O313 2.439 . S
Cd309 O319 2.240 . S
Cd310 O311 2.240 . S
Cd310 O318 2.223 . S
Cd310 O320 2.297 . S
Cd310 O321 2.439 . S
O311 Cd310 2.240 . S
O311 C316 1.279 . S
O312 Cd309 2.297 . S
O312 C314 1.247 . S
O313 Cd309 2.439 . S
O313 C314 1.208 . S
C314 O312 1.247 . S
C314 O313 1.208 . S
C315 O320 1.247 . S
C315 O321 1.208 . S
C316 O308 1.315 . S
C316 O311 1.279 . S
C317 O318 1.315 . S
C317 O319 1.279 . S
O318 Cd310 2.223 . S
O318 C317 1.315 . S
O319 Cd309 2.240 . S
O319 C317 1.279 . S
O320 Cd310 2.297 . S
O320 C315 1.247 . S
O321 Cd310 2.439 . S
O321 C315 1.208 . S
O322 Cd323 2.223 . S
O322 C330 1.315 . S
Cd323 O322 2.223 . S
Cd323 O326 2.297 . S
Cd323 O327 2.439 . S
Cd323 O333 2.240 . S
Cd324 O325 2.240 . S
Cd324 O332 2.223 . S
Cd324 O334 2.297 . S
Cd324 O335 2.439 . S
O325 Cd324 2.240 . S
O325 C330 1.279 . S
O326 Cd323 2.297 . S
O326 C328 1.247 . S
O327 Cd323 2.439 . S
O327 C328 1.208 . S
C328 O326 1.247 . S
C328 O327 1.208 . S
C329 O334 1.247 . S
C329 O335 1.208 . S
C330 O322 1.315 . S
C330 O325 1.279 . S
C331 O332 1.315 . S
C331 O333 1.279 . S
O332 Cd324 2.223 . S
O332 C331 1.315 . S
O333 Cd323 2.240 . S
O333 C331 1.279 . S
O334 Cd324 2.297 . S
O334 C329 1.247 . S
O335 Cd324 2.439 . S
O335 C329 1.208 . S
O336 Cd337 2.223 . S
O336 C344 1.315 . S
Cd337 O336 2.223 . S
Cd337 O340 2.297 . S
Cd337 O341 2.439 . S
Cd337 O347 2.240 1_655 S
Cd338 O339 2.240 . S
Cd338 O346 2.223 1_655 S
Cd338 O348 2.297 1_655 S
Cd338 O349 2.439 1_655 S
O339 Cd338 2.240 . S
O339 C344 1.279 . S
O340 Cd337 2.297 . S
O340 C342 1.247 . S
O341 Cd337 2.439 . S
O341 C342 1.208 . S
C342 O340 1.247 . S
C342 O341 1.208 . S
C343 O348 1.247 . S
C343 O349 1.208 . S
C344 O336 1.315 . S
C344 O339 1.279 . S
C345 O346 1.315 . S
C345 O347 1.279 . S
O346 Cd338 2.223 1_455 S
O346 C345 1.315 . S
O347 Cd337 2.240 1_455 S
O347 C345 1.279 . S
O348 Cd338 2.297 1_455 S
O348 C343 1.247 . S
O349 Cd338 2.439 1_455 S
O349 C343 1.208 . S
O350 Cd351 2.223 . S
O350 C358 1.315 . S
Cd351 O350 2.223 . S
Cd351 O354 2.297 . S
Cd351 O355 2.439 . S
Cd351 O361 2.240 . S
Cd352 O353 2.240 . S
Cd352 O360 2.223 . S
Cd352 O362 2.297 . S
Cd352 O363 2.439 . S
O353 Cd352 2.240 . S
O353 C358 1.279 . S
O354 Cd351 2.297 . S
O354 C356 1.247 . S
O355 Cd351 2.439 . S
O355 C356 1.208 . S
C356 O354 1.247 . S
C356 O355 1.208 . S
C357 O362 1.247 . S
C357 O363 1.208 . S
C358 O350 1.315 . S
C358 O353 1.279 . S
C359 O360 1.315 . S
C359 O361 1.279 . S
O360 Cd352 2.223 . S
O360 C359 1.315 . S
O361 Cd351 2.240 . S
O361 C359 1.279 . S
O362 Cd352 2.297 . S
O362 C357 1.247 . S
O363 Cd352 2.439 . S
O363 C357 1.208 . S
O364 Cd365 2.223 . S
O364 C372 1.315 . S
Cd365 O364 2.223 . S
Cd365 O368 2.297 . S
Cd365 O369 2.439 . S
Cd365 O375 2.240 . S
Cd366 O367 2.240 . S
Cd366 O374 2.223 . S
Cd366 O376 2.297 . S
Cd366 O377 2.439 . S
O367 Cd366 2.240 . S
O367 C372 1.279 . S
O368 Cd365 2.297 . S
O368 C370 1.247 . S
O369 Cd365 2.439 . S
O369 C370 1.208 . S
C370 O368 1.247 . S
C370 O369 1.208 . S
C371 O376 1.247 . S
C371 O377 1.208 . S
C372 O364 1.315 . S
C372 O367 1.279 . S
C373 O374 1.315 . S
C373 O375 1.279 . S
O374 Cd366 2.223 . S
O374 C373 1.315 . S
O375 Cd365 2.240 . S
O375 C373 1.279 . S
O376 Cd366 2.297 . S
O376 C371 1.247 . S
O377 Cd366 2.439 . S
O377 C371 1.208 . S
O378 Cd379 2.223 . S
O378 C386 1.315 . S
Cd379 O378 2.223 . S
Cd379 O382 2.297 . S
Cd379 O383 2.439 . S
Cd379 O389 2.240 . S
Cd380 O381 2.240 . S
Cd380 O388 2.223 . S
Cd380 O390 2.297 . S
Cd380 O391 2.439 . S
O381 Cd380 2.240 . S
O381 C386 1.279 . S
O382 Cd379 2.297 . S
O382 C384 1.247 . S
O383 Cd379 2.439 . S
O383 C384 1.208 . S
C384 O382 1.247 . S
C384 O383 1.208 . S
C385 O390 1.247 . S
C385 O391 1.208 . S
C386 O378 1.315 . S
C386 O381 1.279 . S
C387 O388 1.315 . S
C387 O389 1.279 . S
O388 Cd380 2.223 . S
O388 C387 1.315 . S
O389 Cd379 2.240 . S
O389 C387 1.279 . S
O390 Cd380 2.297 . S
O390 C385 1.247 . S
O391 Cd380 2.439 . S
O391 C385 1.208 . S
O392 Cd393 2.223 . S
O392 C400 1.315 . S
Cd393 O392 2.223 . S
Cd393 O396 2.297 . S
Cd393 O397 2.439 . S
Cd393 O403 2.240 1_655 S
Cd394 O395 2.240 . S
Cd394 O402 2.223 1_655 S
Cd394 O404 2.297 1_655 S
Cd394 O405 2.439 1_655 S
O395 Cd394 2.240 . S
O395 C400 1.279 . S
O396 Cd393 2.297 . S
O396 C398 1.247 . S
O397 Cd393 2.439 . S
O397 C398 1.208 . S
C398 O396 1.247 . S
C398 O397 1.208 . S
C399 O404 1.247 . S
C399 O405 1.208 . S
C400 O392 1.315 . S
C400 O395 1.279 . S
C401 O402 1.315 . S
C401 O403 1.279 . S
O402 Cd394 2.223 1_455 S
O402 C401 1.315 . S
O403 Cd393 2.240 1_455 S
O403 C401 1.279 . S
O404 Cd394 2.297 1_455 S
O404 C399 1.247 . S
O405 Cd394 2.439 1_455 S
O405 C399 1.208 . S
O406 Cd407 2.223 . S
O406 C414 1.315 . S
Cd407 O406 2.223 . S
Cd407 O410 2.297 . S
Cd407 O411 2.439 . S
Cd407 O417 2.240 . S
Cd408 O409 2.240 . S
Cd408 O416 2.223 . S
Cd408 O418 2.297 . S
Cd408 O419 2.439 . S
O409 Cd408 2.240 . S
O409 C414 1.279 . S
O410 Cd407 2.297 . S
O410 C412 1.247 . S
O411 Cd407 2.439 . S
O411 C412 1.208 . S
C412 O410 1.247 . S
C412 O411 1.208 . S
C413 O418 1.247 . S
C413 O419 1.208 . S
C414 O406 1.315 . S
C414 O409 1.279 . S
C415 O416 1.315 . S
C415 O417 1.279 . S
O416 Cd408 2.223 . S
O416 C415 1.315 . S
O417 Cd407 2.240 . S
O417 C415 1.279 . S
O418 Cd408 2.297 . S
O418 C413 1.247 . S
O419 Cd408 2.439 . S
O419 C413 1.208 . S
O420 Cd421 2.223 . S
O420 C428 1.315 . S
Cd421 O420 2.223 . S
Cd421 O424 2.297 . S
Cd421 O425 2.439 . S
Cd421 O431 2.240 . S
Cd422 O423 2.240 . S
Cd422 O430 2.223 . S
Cd422 O432 2.297 . S
Cd422 O433 2.439 . S
O423 Cd422 2.240 . S
O423 C428 1.279 . S
O424 Cd421 2.297 . S
O424 C426 1.247 . S
O425 Cd421 2.439 . S
O425 C426 1.208 . S
C426 O424 1.247 . S
C426 O425 1.208 . S
C427 O432 1.247 . S
C427 O433 1.208 . S
C428 O420 1.315 . S
C428 O423 1.279 . S
C429 O430 1.315 . S
C429 O431 1.279 . S
O430 Cd422 2.223 . S
O430 C429 1.315 . S
O431 Cd421 2.240 . S
O431 C429 1.279 . S
O432 Cd422 2.297 . S
O432 C427 1.247 . S
O433 Cd422 2.439 . S
O433 C427 1.208 . S
O434 Cd435 2.223 . S
O434 C442 1.315 . S
Cd435 O434 2.223 . S
Cd435 O438 2.297 . S
Cd435 O439 2.439 . S
Cd435 O445 2.240 . S
Cd436 O437 2.240 . S
Cd436 O444 2.223 . S
Cd436 O446 2.297 . S
Cd436 O447 2.439 . S
O437 Cd436 2.240 . S
O437 C442 1.279 . S
O438 Cd435 2.297 . S
O438 C440 1.247 . S
O439 Cd435 2.439 . S
O439 C440 1.208 . S
C440 O438 1.247 . S
C440 O439 1.208 . S
C441 O446 1.247 . S
C441 O447 1.208 . S
C442 O434 1.315 . S
C442 O437 1.279 . S
C443 O444 1.315 . S
C443 O445 1.279 . S
O444 Cd436 2.223 . S
O444 C443 1.315 . S
O445 Cd435 2.240 . S
O445 C443 1.279 . S
O446 Cd436 2.297 . S
O446 C441 1.247 . S
O447 Cd436 2.439 . S
O447 C441 1.208 . S
O448 Cd449 2.223 . S
O448 C456 1.315 . S
Cd449 O448 2.223 . S
Cd449 O452 2.297 . S
Cd449 O453 2.439 . S
Cd449 O459 2.240 1_565 S
Cd450 O451 2.240 . S
Cd450 O458 2.223 1_565 S
Cd450 O460 2.297 1_565 S
Cd450 O461 2.439 1_565 S
O451 Cd450 2.240 . S
O451 C456 1.279 . S
O452 Cd449 2.297 . S
O452 C454 1.247 . S
O453 Cd449 2.439 . S
O453 C454 1.208 . S
C454 O452 1.247 . S
C454 O453 1.208 . S
C455 O460 1.247 . S
C455 O461 1.208 . S
C456 O448 1.315 . S
C456 O451 1.279 . S
C457 O458 1.315 . S
C457 O459 1.279 . S
O458 Cd450 2.223 1_545 S
O458 C457 1.315 . S
O459 Cd449 2.240 1_545 S
O459 C457 1.279 . S
O460 Cd450 2.297 1_545 S
O460 C455 1.247 . S
O461 Cd450 2.439 1_545 S
O461 C455 1.208 . S
O462 Cd463 2.223 . S
O462 C470 1.315 . S
Cd463 O462 2.223 . S
Cd463 O466 2.297 . S
Cd463 O467 2.439 . S
Cd463 O473 2.240 . S
Cd464 O465 2.240 . S
Cd464 O472 2.223 . S
Cd464 O474 2.297 . S
Cd464 O475 2.439 . S
O465 Cd464 2.240 . S
O465 C470 1.279 . S
O466 Cd463 2.297 . S
O466 C468 1.247 . S
O467 Cd463 2.439 . S
O467 C468 1.208 . S
C468 O466 1.247 . S
C468 O467 1.208 . S
C469 O474 1.247 . S
C469 O475 1.208 . S
C470 O462 1.315 . S
C470 O465 1.279 . S
C471 O472 1.315 . S
C471 O473 1.279 . S
O472 Cd464 2.223 . S
O472 C471 1.315 . S
O473 Cd463 2.240 . S
O473 C471 1.279 . S
O474 Cd464 2.297 . S
O474 C469 1.247 . S
O475 Cd464 2.439 . S
O475 C469 1.208 . S
O476 Cd477 2.223 . S
O476 C484 1.315 . S
Cd477 O476 2.223 . S
Cd477 O480 2.297 . S
Cd477 O481 2.439 . S
Cd477 O487 2.240 1_545 S
Cd478 O479 2.240 . S
Cd478 O486 2.223 1_545 S
Cd478 O488 2.297 1_545 S
Cd478 O489 2.439 1_545 S
O479 Cd478 2.240 . S
O479 C484 1.279 . S
O480 Cd477 2.297 . S
O480 C482 1.247 . S
O481 Cd477 2.439 . S
O481 C482 1.208 . S
C482 O480 1.247 . S
C482 O481 1.208 . S
C483 O488 1.247 . S
C483 O489 1.208 . S
C484 O476 1.315 . S
C484 O479 1.279 . S
C485 O486 1.315 . S
C485 O487 1.279 . S
O486 Cd478 2.223 1_565 S
O486 C485 1.315 . S
O487 Cd477 2.240 1_565 S
O487 C485 1.279 . S
O488 Cd478 2.297 1_565 S
O488 C483 1.247 . S
O489 Cd478 2.439 1_565 S
O489 C483 1.208 . S
O490 Cd491 2.223 . S
O490 C498 1.315 . S
Cd491 O490 2.223 . S
Cd491 O494 2.297 . S
Cd491 O495 2.439 . S
Cd491 O501 2.240 . S
Cd492 O493 2.240 . S
Cd492 O500 2.223 . S
Cd492 O502 2.297 . S
Cd492 O503 2.439 . S
O493 Cd492 2.240 . S
O493 C498 1.279 . S
O494 Cd491 2.297 . S
O494 C496 1.247 . S
O495 Cd491 2.439 . S
O495 C496 1.208 . S
C496 O494 1.247 . S
C496 O495 1.208 . S
C497 O502 1.247 . S
C497 O503 1.208 . S
C498 O490 1.315 . S
C498 O493 1.279 . S
C499 O500 1.315 . S
C499 O501 1.279 . S
O500 Cd492 2.223 . S
O500 C499 1.315 . S
O501 Cd491 2.240 . S
O501 C499 1.279 . S
O502 Cd492 2.297 . S
O502 C497 1.247 . S
O503 Cd492 2.439 . S
O503 C497 1.208 . S
O504 Cd505 2.223 . S
O504 C512 1.315 . S
Cd505 O504 2.223 . S
Cd505 O508 2.297 . S
Cd505 O509 2.439 . S
Cd505 O515 2.240 1_545 S
Cd506 O507 2.240 . S
Cd506 O514 2.223 1_545 S
Cd506 O516 2.297 1_545 S
Cd506 O517 2.439 1_545 S
O507 Cd506 2.240 . S
O507 C512 1.279 . S
O508 Cd505 2.297 . S
O508 C510 1.247 . S
O509 Cd505 2.439 . S
O509 C510 1.208 . S
C510 O508 1.247 . S
C510 O509 1.208 . S
C511 O516 1.247 . S
C511 O517 1.208 . S
C512 O504 1.315 . S
C512 O507 1.279 . S
C513 O514 1.315 . S
C513 O515 1.279 . S
O514 Cd506 2.223 1_565 S
O514 C513 1.315 . S
O515 Cd505 2.240 1_565 S
O515 C513 1.279 . S
O516 Cd506 2.297 1_565 S
O516 C511 1.247 . S
O517 Cd506 2.439 1_565 S
O517 C511 1.208 . S
O518 Cd519 2.223 . S
O518 C526 1.315 . S
Cd519 O518 2.223 . S
Cd519 O522 2.297 . S
Cd519 O523 2.439 . S
Cd519 O529 2.240 . S
Cd520 O521 2.240 . S
Cd520 O528 2.223 . S
Cd520 O530 2.297 . S
Cd520 O531 2.439 . S
O521 Cd520 2.240 . S
O521 C526 1.279 . S
O522 Cd519 2.297 . S
O522 C524 1.247 . S
O523 Cd519 2.439 . S
O523 C524 1.208 . S
C524 O522 1.247 . S
C524 O523 1.208 . S
C525 O530 1.247 . S
C525 O531 1.208 . S
C526 O518 1.315 . S
C526 O521 1.279 . S
C527 O528 1.315 . S
C527 O529 1.279 . S
O528 Cd520 2.223 . S
O528 C527 1.315 . S
O529 Cd519 2.240 . S
O529 C527 1.279 . S
O530 Cd520 2.297 . S
O530 C525 1.247 . S
O531 Cd520 2.439 . S
O531 C525 1.208 . S
O532 Cd533 2.223 . S
O532 C540 1.315 . S
Cd533 O532 2.223 . S
Cd533 O536 2.297 . S
Cd533 O537 2.439 . S
Cd533 O543 2.240 1_565 S
Cd534 O535 2.240 . S
Cd534 O542 2.223 1_565 S
Cd534 O544 2.297 1_565 S
Cd534 O545 2.439 1_565 S
O535 Cd534 2.240 . S
O535 C540 1.279 . S
O536 Cd533 2.297 . S
O536 C538 1.247 . S
O537 Cd533 2.439 . S
O537 C538 1.208 . S
C538 O536 1.247 . S
C538 O537 1.208 . S
C539 O544 1.247 . S
C539 O545 1.208 . S
C540 O532 1.315 . S
C540 O535 1.279 . S
C541 O542 1.315 . S
C541 O543 1.279 . S
O542 Cd534 2.223 1_545 S
O542 C541 1.315 . S
O543 Cd533 2.240 1_545 S
O543 C541 1.279 . S
O544 Cd534 2.297 1_545 S
O544 C539 1.247 . S
O545 Cd534 2.439 1_545 S
O545 C539 1.208 . S
O546 Cd547 2.223 . S
O546 C554 1.315 . S
Cd547 O546 2.223 . S
Cd547 O550 2.297 . S
Cd547 O551 2.439 . S
Cd547 O557 2.240 . S
Cd548 O549 2.240 . S
Cd548 O556 2.223 . S
Cd548 O558 2.297 . S
Cd548 O559 2.439 . S
O549 Cd548 2.240 . S
O549 C554 1.279 . S
O550 Cd547 2.297 . S
O550 C552 1.247 . S
O551 Cd547 2.439 . S
O551 C552 1.208 . S
C552 O550 1.247 . S
C552 O551 1.208 . S
C553 O558 1.247 . S
C553 O559 1.208 . S
C554 O546 1.315 . S
C554 O549 1.279 . S
C555 O556 1.315 . S
C555 O557 1.279 . S
O556 Cd548 2.223 . S
O556 C555 1.315 . S
O557 Cd547 2.240 . S
O557 C555 1.279 . S
O558 Cd548 2.297 . S
O558 C553 1.247 . S
O559 Cd548 2.439 . S
O559 C553 1.208 . S
O560 Cd561 2.223 . S
O560 C568 1.315 . S
Cd561 O560 2.223 . S
Cd561 O564 2.297 . S
Cd561 O565 2.439 . S
Cd561 O571 2.240 1_556 S
Cd562 O563 2.240 . S
Cd562 O570 2.223 1_556 S
Cd562 O572 2.297 1_556 S
Cd562 O573 2.439 1_556 S
O563 Cd562 2.240 . S
O563 C568 1.279 . S
O564 Cd561 2.297 . S
O564 C566 1.247 . S
O565 Cd561 2.439 . S
O565 C566 1.208 . S
C566 O564 1.247 . S
C566 O565 1.208 . S
C567 O572 1.247 . S
C567 O573 1.208 . S
C568 O560 1.315 . S
C568 O563 1.279 . S
C569 O570 1.315 . S
C569 O571 1.279 . S
O570 Cd562 2.223 1_554 S
O570 C569 1.315 . S
O571 Cd561 2.240 1_554 S
O571 C569 1.279 . S
O572 Cd562 2.297 1_554 S
O572 C567 1.247 . S
O573 Cd562 2.439 1_554 S
O573 C567 1.208 . S
O574 Cd575 2.223 . S
O574 C582 1.315 . S
Cd575 O574 2.223 . S
Cd575 O578 2.297 . S
Cd575 O579 2.439 . S
Cd575 O585 2.240 1_554 S
Cd576 O577 2.240 . S
Cd576 O584 2.223 1_554 S
Cd576 O586 2.297 1_554 S
Cd576 O587 2.439 1_554 S
O577 Cd576 2.240 . S
O577 C582 1.279 . S
O578 Cd575 2.297 . S
O578 C580 1.247 . S
O579 Cd575 2.439 . S
O579 C580 1.208 . S
C580 O578 1.247 . S
C580 O579 1.208 . S
C581 O586 1.247 . S
C581 O587 1.208 . S
C582 O574 1.315 . S
C582 O577 1.279 . S
C583 O584 1.315 . S
C583 O585 1.279 . S
O584 Cd576 2.223 1_556 S
O584 C583 1.315 . S
O585 Cd575 2.240 1_556 S
O585 C583 1.279 . S
O586 Cd576 2.297 1_556 S
O586 C581 1.247 . S
O587 Cd576 2.439 1_556 S
O587 C581 1.208 . S
O588 Cd589 2.223 . S
O588 C596 1.315 . S
Cd589 O588 2.223 . S
Cd589 O592 2.297 . S
Cd589 O593 2.439 . S
Cd589 O599 2.240 . S
Cd590 O591 2.240 . S
Cd590 O598 2.223 . S
Cd590 O600 2.297 . S
Cd590 O601 2.439 . S
O591 Cd590 2.240 . S
O591 C596 1.279 . S
O592 Cd589 2.297 . S
O592 C594 1.247 . S
O593 Cd589 2.439 . S
O593 C594 1.208 . S
C594 O592 1.247 . S
C594 O593 1.208 . S
C595 O600 1.247 . S
C595 O601 1.208 . S
C596 O588 1.315 . S
C596 O591 1.279 . S
C597 O598 1.315 . S
C597 O599 1.279 . S
O598 Cd590 2.223 . S
O598 C597 1.315 . S
O599 Cd589 2.240 . S
O599 C597 1.279 . S
O600 Cd590 2.297 . S
O600 C595 1.247 . S
O601 Cd590 2.439 . S
O601 C595 1.208 . S
O602 Cd603 2.223 . S
O602 C610 1.315 . S
Cd603 O602 2.223 . S
Cd603 O606 2.297 . S
Cd603 O607 2.439 . S
Cd603 O613 2.240 . S
Cd604 O605 2.240 . S
Cd604 O612 2.223 . S
Cd604 O614 2.297 . S
Cd604 O615 2.439 . S
O605 Cd604 2.240 . S
O605 C610 1.279 . S
O606 Cd603 2.297 . S
O606 C608 1.247 . S
O607 Cd603 2.439 . S
O607 C608 1.208 . S
C608 O606 1.247 . S
C608 O607 1.208 . S
C609 O614 1.247 . S
C609 O615 1.208 . S
C610 O602 1.315 . S
C610 O605 1.279 . S
C611 O612 1.315 . S
C611 O613 1.279 . S
O612 Cd604 2.223 . S
O612 C611 1.315 . S
O613 Cd603 2.240 . S
O613 C611 1.279 . S
O614 Cd604 2.297 . S
O614 C609 1.247 . S
O615 Cd604 2.439 . S
O615 C609 1.208 . S
O616 Cd617 2.223 . S
O616 C624 1.315 . S
Cd617 O616 2.223 . S
Cd617 O620 2.297 . S
Cd617 O621 2.439 . S
Cd617 O627 2.240 . S
Cd618 O619 2.240 . S
Cd618 O626 2.223 . S
Cd618 O628 2.297 . S
Cd618 O629 2.439 . S
O619 Cd618 2.240 . S
O619 C624 1.279 . S
O620 Cd617 2.297 . S
O620 C622 1.247 . S
O621 Cd617 2.439 . S
O621 C622 1.208 . S
C622 O620 1.247 . S
C622 O621 1.208 . S
C623 O628 1.247 . S
C623 O629 1.208 . S
C624 O616 1.315 . S
C624 O619 1.279 . S
C625 O626 1.315 . S
C625 O627 1.279 . S
O626 Cd618 2.223 . S
O626 C625 1.315 . S
O627 Cd617 2.240 . S
O627 C625 1.279 . S
O628 Cd618 2.297 . S
O628 C623 1.247 . S
O629 Cd618 2.439 . S
O629 C623 1.208 . S
O630 Cd631 2.223 . S
O630 C638 1.315 . S
Cd631 O630 2.223 . S
Cd631 O634 2.297 . S
Cd631 O635 2.439 . S
Cd631 O641 2.240 . S
Cd632 O633 2.240 . S
Cd632 O640 2.223 . S
Cd632 O642 2.297 . S
Cd632 O643 2.439 . S
O633 Cd632 2.240 . S
O633 C638 1.279 . S
O634 Cd631 2.297 . S
O634 C636 1.247 . S
O635 Cd631 2.439 . S
O635 C636 1.208 . S
C636 O634 1.247 . S
C636 O635 1.208 . S
C637 O642 1.247 . S
C637 O643 1.208 . S
C638 O630 1.315 . S
C638 O633 1.279 . S
C639 O640 1.315 . S
C639 O641 1.279 . S
O640 Cd632 2.223 . S
O640 C639 1.315 . S
O641 Cd631 2.240 . S
O641 C639 1.279 . S
O642 Cd632 2.297 . S
O642 C637 1.247 . S
O643 Cd632 2.439 . S
O643 C637 1.208 . S
O644 Cd645 2.223 . S
O644 C652 1.315 . S
Cd645 O644 2.223 . S
Cd645 O648 2.297 . S
Cd645 O649 2.439 . S
Cd645 O655 2.240 . S
Cd646 O647 2.240 . S
Cd646 O654 2.223 . S
Cd646 O656 2.297 . S
Cd646 O657 2.439 . S
O647 Cd646 2.240 . S
O647 C652 1.279 . S
O648 Cd645 2.297 . S
O648 C650 1.247 . S
O649 Cd645 2.439 . S
O649 C650 1.208 . S
C650 O648 1.247 . S
C650 O649 1.208 . S
C651 O656 1.247 . S
C651 O657 1.208 . S
C652 O644 1.315 . S
C652 O647 1.279 . S
C653 O654 1.315 . S
C653 O655 1.279 . S
O654 Cd646 2.223 . S
O654 C653 1.315 . S
O655 Cd645 2.240 . S
O655 C653 1.279 . S
O656 Cd646 2.297 . S
O656 C651 1.247 . S
O657 Cd646 2.439 . S
O657 C651 1.208 . S
O658 Cd659 2.223 . S
O658 C666 1.315 . S
Cd659 O658 2.223 . S
Cd659 O662 2.297 . S
Cd659 O663 2.439 . S
Cd659 O669 2.240 . S
Cd660 O661 2.240 . S
Cd660 O668 2.223 . S
Cd660 O670 2.297 . S
Cd660 O671 2.439 . S
O661 Cd660 2.240 . S
O661 C666 1.279 . S
O662 Cd659 2.297 . S
O662 C664 1.247 . S
O663 Cd659 2.439 . S
O663 C664 1.208 . S
C664 O662 1.247 . S
C664 O663 1.208 . S
C665 O670 1.247 . S
C665 O671 1.208 . S
C666 O658 1.315 . S
C666 O661 1.279 . S
C667 O668 1.315 . S
C667 O669 1.279 . S
O668 Cd660 2.223 . S
O668 C667 1.315 . S
O669 Cd659 2.240 . S
O669 C667 1.279 . S
O670 Cd660 2.297 . S
O670 C665 1.247 . S
O671 Cd660 2.439 . S
O671 C665 1.208 . S
O672 Cd673 2.223 . S
O672 C680 1.315 . S
Cd673 O672 2.223 . S
Cd673 O676 2.297 . S
Cd673 O677 2.439 . S
Cd673 O683 2.240 . S
Cd674 O675 2.240 . S
Cd674 O682 2.223 . S
Cd674 O684 2.297 . S
Cd674 O685 2.439 . S
O675 Cd674 2.240 . S
O675 C680 1.279 . S
O676 Cd673 2.297 . S
O676 C678 1.247 . S
O677 Cd673 2.439 . S
O677 C678 1.208 . S
C678 O676 1.247 . S
C678 O677 1.208 . S
C679 O684 1.247 . S
C679 O685 1.208 . S
C680 O672 1.315 . S
C680 O675 1.279 . S
C681 O682 1.315 . S
C681 O683 1.279 . S
O682 Cd674 2.223 . S
O682 C681 1.315 . S
O683 Cd673 2.240 . S
O683 C681 1.279 . S
O684 Cd674 2.297 . S
O684 C679 1.247 . S
O685 Cd674 2.439 . S
O685 C679 1.208 . S
O686 Cd687 2.223 . S
O686 C694 1.315 . S
Cd687 O686 2.223 . S
Cd687 O690 2.297 . S
Cd687 O691 2.439 . S
Cd687 O697 2.240 . S
Cd688 O689 2.240 . S
Cd688 O696 2.223 . S
Cd688 O698 2.297 . S
Cd688 O699 2.439 . S
O689 Cd688 2.240 . S
O689 C694 1.279 . S
O690 Cd687 2.297 . S
O690 C692 1.247 . S
O691 Cd687 2.439 . S
O691 C692 1.208 . S
C692 O690 1.247 . S
C692 O691 1.208 . S
C693 O698 1.247 . S
C693 O699 1.208 . S
C694 O686 1.315 . S
C694 O689 1.279 . S
C695 O696 1.315 . S
C695 O697 1.279 . S
O696 Cd688 2.223 . S
O696 C695 1.315 . S
O697 Cd687 2.240 . S
O697 C695 1.279 . S
O698 Cd688 2.297 . S
O698 C693 1.247 . S
O699 Cd688 2.439 . S
O699 C693 1.208 . S
O700 Cd701 2.223 . S
O700 C708 1.315 . S
Cd701 O700 2.223 . S
Cd701 O704 2.297 . S
Cd701 O705 2.439 . S
Cd701 O711 2.240 1_655 S
Cd702 O703 2.240 . S
Cd702 O710 2.223 1_655 S
Cd702 O712 2.297 1_655 S
Cd702 O713 2.439 1_655 S
O703 Cd702 2.240 . S
O703 C708 1.279 . S
O704 Cd701 2.297 . S
O704 C706 1.247 . S
O705 Cd701 2.439 . S
O705 C706 1.208 . S
C706 O704 1.247 . S
C706 O705 1.208 . S
C707 O712 1.247 . S
C707 O713 1.208 . S
C708 O700 1.315 . S
C708 O703 1.279 . S
C709 O710 1.315 . S
C709 O711 1.279 . S
O710 Cd702 2.223 1_455 S
O710 C709 1.315 . S
O711 Cd701 2.240 1_455 S
O711 C709 1.279 . S
O712 Cd702 2.297 1_455 S
O712 C707 1.247 . S
O713 Cd702 2.439 1_455 S
O713 C707 1.208 . S
O714 Cd715 2.223 . S
O714 C722 1.315 . S
Cd715 O714 2.223 . S
Cd715 O718 2.297 . S
Cd715 O719 2.439 . S
Cd715 O725 2.240 . S
Cd716 O717 2.240 . S
Cd716 O724 2.223 . S
Cd716 O726 2.297 . S
Cd716 O727 2.439 . S
O717 Cd716 2.240 . S
O717 C722 1.279 . S
O718 Cd715 2.297 . S
O718 C720 1.247 . S
O719 Cd715 2.439 . S
O719 C720 1.208 . S
C720 O718 1.247 . S
C720 O719 1.208 . S
C721 O726 1.247 . S
C721 O727 1.208 . S
C722 O714 1.315 . S
C722 O717 1.279 . S
C723 O724 1.315 . S
C723 O725 1.279 . S
O724 Cd716 2.223 . S
O724 C723 1.315 . S
O725 Cd715 2.240 . S
O725 C723 1.279 . S
O726 Cd716 2.297 . S
O726 C721 1.247 . S
O727 Cd716 2.439 . S
O727 C721 1.208 . S
O728 Cd729 2.223 . S
O728 C736 1.315 . S
Cd729 O728 2.223 . S
Cd729 O732 2.297 . S
Cd729 O733 2.439 . S
Cd729 O739 2.240 . S
Cd730 O731 2.240 . S
Cd730 O738 2.223 . S
Cd730 O740 2.297 . S
Cd730 O741 2.439 . S
O731 Cd730 2.240 . S
O731 C736 1.279 . S
O732 Cd729 2.297 . S
O732 C734 1.247 . S
O733 Cd729 2.439 . S
O733 C734 1.208 . S
C734 O732 1.247 . S
C734 O733 1.208 . S
C735 O740 1.247 . S
C735 O741 1.208 . S
C736 O728 1.315 . S
C736 O731 1.279 . S
C737 O738 1.315 . S
C737 O739 1.279 . S
O738 Cd730 2.223 . S
O738 C737 1.315 . S
O739 Cd729 2.240 . S
O739 C737 1.279 . S
O740 Cd730 2.297 . S
O740 C735 1.247 . S
O741 Cd730 2.439 . S
O741 C735 1.208 . S
O742 Cd743 2.223 . S
O742 C750 1.315 . S
Cd743 O742 2.223 . S
Cd743 O746 2.297 . S
Cd743 O747 2.439 . S
Cd743 O753 2.240 . S
Cd744 O745 2.240 . S
Cd744 O752 2.223 . S
Cd744 O754 2.297 . S
Cd744 O755 2.439 . S
O745 Cd744 2.240 . S
O745 C750 1.279 . S
O746 Cd743 2.297 . S
O746 C748 1.247 . S
O747 Cd743 2.439 . S
O747 C748 1.208 . S
C748 O746 1.247 . S
C748 O747 1.208 . S
C749 O754 1.247 . S
C749 O755 1.208 . S
C750 O742 1.315 . S
C750 O745 1.279 . S
C751 O752 1.315 . S
C751 O753 1.279 . S
O752 Cd744 2.223 . S
O752 C751 1.315 . S
O753 Cd743 2.240 . S
O753 C751 1.279 . S
O754 Cd744 2.297 . S
O754 C749 1.247 . S
O755 Cd744 2.439 . S
O755 C749 1.208 . S
O756 Cd757 2.223 . S
O756 C764 1.315 . S
Cd757 O756 2.223 . S
Cd757 O760 2.297 . S
Cd757 O761 2.439 . S
Cd757 O767 2.240 1_655 S
Cd758 O759 2.240 . S
Cd758 O766 2.223 1_655 S
Cd758 O768 2.297 1_655 S
Cd758 O769 2.439 1_655 S
O759 Cd758 2.240 . S
O759 C764 1.279 . S
O760 Cd757 2.297 . S
O760 C762 1.247 . S
O761 Cd757 2.439 . S
O761 C762 1.208 . S
C762 O760 1.247 . S
C762 O761 1.208 . S
C763 O768 1.247 . S
C763 O769 1.208 . S
C764 O756 1.315 . S
C764 O759 1.279 . S
C765 O766 1.315 . S
C765 O767 1.279 . S
O766 Cd758 2.223 1_455 S
O766 C765 1.315 . S
O767 Cd757 2.240 1_455 S
O767 C765 1.279 . S
O768 Cd758 2.297 1_455 S
O768 C763 1.247 . S
O769 Cd758 2.439 1_455 S
O769 C763 1.208 . S
O770 Cd771 2.223 . S
O770 C778 1.315 . S
Cd771 O770 2.223 . S
Cd771 O774 2.297 . S
Cd771 O775 2.439 . S
Cd771 O781 2.240 . S
Cd772 O773 2.240 . S
Cd772 O780 2.223 . S
Cd772 O782 2.297 . S
Cd772 O783 2.439 . S
O773 Cd772 2.240 . S
O773 C778 1.279 . S
O774 Cd771 2.297 . S
O774 C776 1.247 . S
O775 Cd771 2.439 . S
O775 C776 1.208 . S
C776 O774 1.247 . S
C776 O775 1.208 . S
C777 O782 1.247 . S
C777 O783 1.208 . S
C778 O770 1.315 . S
C778 O773 1.279 . S
C779 O780 1.315 . S
C779 O781 1.279 . S
O780 Cd772 2.223 . S
O780 C779 1.315 . S
O781 Cd771 2.240 . S
O781 C779 1.279 . S
O782 Cd772 2.297 . S
O782 C777 1.247 . S
O783 Cd772 2.439 . S
O783 C777 1.208 . S
O784 Cd785 2.223 . S
O784 C792 1.315 . S
Cd785 O784 2.223 . S
Cd785 O788 2.297 . S
Cd785 O789 2.439 . S
Cd785 O795 2.240 . S
Cd786 O787 2.240 . S
Cd786 O794 2.223 . S
Cd786 O796 2.297 . S
Cd786 O797 2.439 . S
O787 Cd786 2.240 . S
O787 C792 1.279 . S
O788 Cd785 2.297 . S
O788 C790 1.247 . S
O789 Cd785 2.439 . S
O789 C790 1.208 . S
C790 O788 1.247 . S
C790 O789 1.208 . S
C791 O796 1.247 . S
C791 O797 1.208 . S
C792 O784 1.315 . S
C792 O787 1.279 . S
C793 O794 1.315 . S
C793 O795 1.279 . S
O794 Cd786 2.223 . S
O794 C793 1.315 . S
O795 Cd785 2.240 . S
O795 C793 1.279 . S
O796 Cd786 2.297 . S
O796 C791 1.247 . S
O797 Cd786 2.439 . S
O797 C791 1.208 . S
O798 Cd799 2.223 . S
O798 C806 1.315 . S
Cd799 O798 2.223 . S
Cd799 O802 2.297 . S
Cd799 O803 2.439 . S
Cd799 O809 2.240 . S
Cd800 O801 2.240 . S
Cd800 O808 2.223 . S
Cd800 O810 2.297 . S
Cd800 O811 2.439 . S
O801 Cd800 2.240 . S
O801 C806 1.279 . S
O802 Cd799 2.297 . S
O802 C804 1.247 . S
O803 Cd799 2.439 . S
O803 C804 1.208 . S
C804 O802 1.247 . S
C804 O803 1.208 . S
C805 O810 1.247 . S
C805 O811 1.208 . S
C806 O798 1.315 . S
C806 O801 1.279 . S
C807 O808 1.315 . S
C807 O809 1.279 . S
O808 Cd800 2.223 . S
O808 C807 1.315 . S
O809 Cd799 2.240 . S
O809 C807 1.279 . S
O810 Cd800 2.297 . S
O810 C805 1.247 . S
O811 Cd800 2.439 . S
O811 C805 1.208 . S
O812 Cd813 2.223 . S
O812 C820 1.315 . S
Cd813 O812 2.223 . S
Cd813 O816 2.297 . S
Cd813 O817 2.439 . S
Cd813 O823 2.240 . S
Cd814 O815 2.240 . S
Cd814 O822 2.223 . S
Cd814 O824 2.297 . S
Cd814 O825 2.439 . S
O815 Cd814 2.240 . S
O815 C820 1.279 . S
O816 Cd813 2.297 . S
O816 C818 1.247 . S
O817 Cd813 2.439 . S
O817 C818 1.208 . S
C818 O816 1.247 . S
C818 O817 1.208 . S
C819 O824 1.247 . S
C819 O825 1.208 . S
C820 O812 1.315 . S
C820 O815 1.279 . S
C821 O822 1.315 . S
C821 O823 1.279 . S
O822 Cd814 2.223 . S
O822 C821 1.315 . S
O823 Cd813 2.240 . S
O823 C821 1.279 . S
O824 Cd814 2.297 . S
O824 C819 1.247 . S
O825 Cd814 2.439 . S
O825 C819 1.208 . S
O826 Cd827 2.223 . S
O826 C834 1.315 . S
Cd827 O826 2.223 . S
Cd827 O830 2.297 . S
Cd827 O831 2.439 . S
Cd827 O837 2.240 . S
Cd828 O829 2.240 . S
Cd828 O836 2.223 . S
Cd828 O838 2.297 . S
Cd828 O839 2.439 . S
O829 Cd828 2.240 . S
O829 C834 1.279 . S
O830 Cd827 2.297 . S
O830 C832 1.247 . S
O831 Cd827 2.439 . S
O831 C832 1.208 . S
C832 O830 1.247 . S
C832 O831 1.208 . S
C833 O838 1.247 . S
C833 O839 1.208 . S
C834 O826 1.315 . S
C834 O829 1.279 . S
C835 O836 1.315 . S
C835 O837 1.279 . S
O836 Cd828 2.223 . S
O836 C835 1.315 . S
O837 Cd827 2.240 . S
O837 C835 1.279 . S
O838 Cd828 2.297 . S
O838 C833 1.247 . S
O839 Cd828 2.439 . S
O839 C833 1.208 . S
O840 Cd841 2.223 . S
O840 C848 1.315 . S
Cd841 O840 2.223 . S
Cd841 O844 2.297 . S
Cd841 O845 2.439 . S
Cd841 O851 2.240 . S
Cd842 O843 2.240 . S
Cd842 O850 2.223 . S
Cd842 O852 2.297 . S
Cd842 O853 2.439 . S
O843 Cd842 2.240 . S
O843 C848 1.279 . S
O844 Cd841 2.297 . S
O844 C846 1.247 . S
O845 Cd841 2.439 . S
O845 C846 1.208 . S
C846 O844 1.247 . S
C846 O845 1.208 . S
C847 O852 1.247 . S
C847 O853 1.208 . S
C848 O840 1.315 . S
C848 O843 1.279 . S
C849 O850 1.315 . S
C849 O851 1.279 . S
O850 Cd842 2.223 . S
O850 C849 1.315 . S
O851 Cd841 2.240 . S
O851 C849 1.279 . S
O852 Cd842 2.297 . S
O852 C847 1.247 . S
O853 Cd842 2.439 . S
O853 C847 1.208 . S
O854 Cd855 2.223 . S
O854 C862 1.315 . S
Cd855 O854 2.223 . S
Cd855 O858 2.297 . S
Cd855 O859 2.439 . S
Cd855 O865 2.240 . S
Cd856 O857 2.240 . S
Cd856 O864 2.223 . S
Cd856 O866 2.297 . S
Cd856 O867 2.439 . S
O857 Cd856 2.240 . S
O857 C862 1.279 . S
O858 Cd855 2.297 . S
O858 C860 1.247 . S
O859 Cd855 2.439 . S
O859 C860 1.208 . S
C860 O858 1.247 . S
C860 O859 1.208 . S
C861 O866 1.247 . S
C861 O867 1.208 . S
C862 O854 1.315 . S
C862 O857 1.279 . S
C863 O864 1.315 . S
C863 O865 1.279 . S
O864 Cd856 2.223 . S
O864 C863 1.315 . S
O865 Cd855 2.240 . S
O865 C863 1.279 . S
O866 Cd856 2.297 . S
O866 C861 1.247 . S
O867 Cd856 2.439 . S
O867 C861 1.208 . S
O868 Cd869 2.223 . S
O868 C876 1.315 . S
Cd869 O868 2.223 . S
Cd869 O872 2.297 . S
Cd869 O873 2.439 . S
Cd869 O879 2.240 . S
Cd870 O871 2.240 . S
Cd870 O878 2.223 . S
Cd870 O880 2.297 . S
Cd870 O881 2.439 . S
O871 Cd870 2.240 . S
O871 C876 1.279 . S
O872 Cd869 2.297 . S
O872 C874 1.247 . S
O873 Cd869 2.439 . S
O873 C874 1.208 . S
C874 O872 1.247 . S
C874 O873 1.208 . S
C875 O880 1.247 . S
C875 O881 1.208 . S
C876 O868 1.315 . S
C876 O871 1.279 . S
C877 O878 1.315 . S
C877 O879 1.279 . S
O878 Cd870 2.223 . S
O878 C877 1.315 . S
O879 Cd869 2.240 . S
O879 C877 1.279 . S
O880 Cd870 2.297 . S
O880 C875 1.247 . S
O881 Cd870 2.439 . S
O881 C875 1.208 . S
O882 Cd883 2.223 . S
O882 C890 1.315 . S
Cd883 O882 2.223 . S
Cd883 O886 2.297 . S
Cd883 O887 2.439 . S
Cd883 O893 2.240 . S
Cd884 O885 2.240 . S
Cd884 O892 2.223 . S
Cd884 O894 2.297 . S
Cd884 O895 2.439 . S
O885 Cd884 2.240 . S
O885 C890 1.279 . S
O886 Cd883 2.297 . S
O886 C888 1.247 . S
O887 Cd883 2.439 . S
O887 C888 1.208 . S
C888 O886 1.247 . S
C888 O887 1.208 . S
C889 O894 1.247 . S
C889 O895 1.208 . S
C890 O882 1.315 . S
C890 O885 1.279 . S
C891 O892 1.315 . S
C891 O893 1.279 . S
O892 Cd884 2.223 . S
O892 C891 1.315 . S
O893 Cd883 2.240 . S
O893 C891 1.279 . S
O894 Cd884 2.297 . S
O894 C889 1.247 . S
O895 Cd884 2.439 . S
O895 C889 1.208 . S
O896 Cd897 2.223 . S
O896 C904 1.315 . S
Cd897 O896 2.223 . S
Cd897 O900 2.297 . S
Cd897 O901 2.439 . S
Cd897 O907 2.240 . S
Cd898 O899 2.240 . S
Cd898 O906 2.223 . S
Cd898 O908 2.297 . S
Cd898 O909 2.439 . S
O899 Cd898 2.240 . S
O899 C904 1.279 . S
O900 Cd897 2.297 . S
O900 C902 1.247 . S
O901 Cd897 2.439 . S
O901 C902 1.208 . S
C902 O900 1.247 . S
C902 O901 1.208 . S
C903 O908 1.247 . S
C903 O909 1.208 . S
C904 O896 1.315 . S
C904 O899 1.279 . S
C905 O906 1.315 . S
C905 O907 1.279 . S
O906 Cd898 2.223 . S
O906 C905 1.315 . S
O907 Cd897 2.240 . S
O907 C905 1.279 . S
O908 Cd898 2.297 . S
O908 C903 1.247 . S
O909 Cd898 2.439 . S
O909 C903 1.208 . S
O910 Cd911 2.223 . S
O910 C918 1.315 . S
Cd911 O910 2.223 . S
Cd911 O914 2.297 . S
Cd911 O915 2.439 . S
Cd911 O921 2.240 . S
Cd912 O913 2.240 . S
Cd912 O920 2.223 . S
Cd912 O922 2.297 . S
Cd912 O923 2.439 . S
O913 Cd912 2.240 . S
O913 C918 1.279 . S
O914 Cd911 2.297 . S
O914 C916 1.247 . S
O915 Cd911 2.439 . S
O915 C916 1.208 . S
C916 O914 1.247 . S
C916 O915 1.208 . S
C917 O922 1.247 . S
C917 O923 1.208 . S
C918 O910 1.315 . S
C918 O913 1.279 . S
C919 O920 1.315 . S
C919 O921 1.279 . S
O920 Cd912 2.223 . S
O920 C919 1.315 . S
O921 Cd911 2.240 . S
O921 C919 1.279 . S
O922 Cd912 2.297 . S
O922 C917 1.247 . S
O923 Cd912 2.439 . S
O923 C917 1.208 . S
O924 Cd925 2.223 . S
O924 C932 1.315 . S
Cd925 O924 2.223 . S
Cd925 O928 2.297 . S
Cd925 O929 2.439 . S
Cd925 O935 2.240 . S
Cd926 O927 2.240 . S
Cd926 O934 2.223 . S
Cd926 O936 2.297 . S
Cd926 O937 2.439 . S
O927 Cd926 2.240 . S
O927 C932 1.279 . S
O928 Cd925 2.297 . S
O928 C930 1.247 . S
O929 Cd925 2.439 . S
O929 C930 1.208 . S
C930 O928 1.247 . S
C930 O929 1.208 . S
C931 O936 1.247 . S
C931 O937 1.208 . S
C932 O924 1.315 . S
C932 O927 1.279 . S
C933 O934 1.315 . S
C933 O935 1.279 . S
O934 Cd926 2.223 . S
O934 C933 1.315 . S
O935 Cd925 2.240 . S
O935 C933 1.279 . S
O936 Cd926 2.297 . S
O936 C931 1.247 . S
O937 Cd926 2.439 . S
O937 C931 1.208 . S
O938 Cd939 2.223 . S
O938 C946 1.315 . S
Cd939 O938 2.223 . S
Cd939 O942 2.297 . S
Cd939 O943 2.439 . S
Cd939 O949 2.240 1_556 S
Cd940 O941 2.240 . S
Cd940 O948 2.223 1_556 S
Cd940 O950 2.297 1_556 S
Cd940 O951 2.439 1_556 S
O941 Cd940 2.240 . S
O941 C946 1.279 . S
O942 Cd939 2.297 . S
O942 C944 1.247 . S
O943 Cd939 2.439 . S
O943 C944 1.208 . S
C944 O942 1.247 . S
C944 O943 1.208 . S
C945 O950 1.247 . S
C945 O951 1.208 . S
C946 O938 1.315 . S
C946 O941 1.279 . S
C947 O948 1.315 . S
C947 O949 1.279 . S
O948 Cd940 2.223 1_554 S
O948 C947 1.315 . S
O949 Cd939 2.240 1_554 S
O949 C947 1.279 . S
O950 Cd940 2.297 1_554 S
O950 C945 1.247 . S
O951 Cd940 2.439 1_554 S
O951 C945 1.208 . S
O952 Cd953 2.223 . S
O952 C960 1.315 . S
Cd953 O952 2.223 . S
Cd953 O956 2.297 . S
Cd953 O957 2.439 . S
Cd953 O963 2.240 . S
Cd954 O955 2.240 . S
Cd954 O962 2.223 . S
Cd954 O964 2.297 . S
Cd954 O965 2.439 . S
O955 Cd954 2.240 . S
O955 C960 1.279 . S
O956 Cd953 2.297 . S
O956 C958 1.247 . S
O957 Cd953 2.439 . S
O957 C958 1.208 . S
C958 O956 1.247 . S
C958 O957 1.208 . S
C959 O964 1.247 . S
C959 O965 1.208 . S
C960 O952 1.315 . S
C960 O955 1.279 . S
C961 O962 1.315 . S
C961 O963 1.279 . S
O962 Cd954 2.223 . S
O962 C961 1.315 . S
O963 Cd953 2.240 . S
O963 C961 1.279 . S
O964 Cd954 2.297 . S
O964 C959 1.247 . S
O965 Cd954 2.439 . S
O965 C959 1.208 . S
O966 Cd967 2.223 . S
O966 C974 1.315 . S
Cd967 O966 2.223 . S
Cd967 O970 2.297 . S
Cd967 O971 2.439 . S
Cd967 O977 2.240 1_554 S
Cd968 O969 2.240 . S
Cd968 O976 2.223 1_554 S
Cd968 O978 2.297 1_554 S
Cd968 O979 2.439 1_554 S
O969 Cd968 2.240 . S
O969 C974 1.279 . S
O970 Cd967 2.297 . S
O970 C972 1.247 . S
O971 Cd967 2.439 . S
O971 C972 1.208 . S
C972 O970 1.247 . S
C972 O971 1.208 . S
C973 O978 1.247 . S
C973 O979 1.208 . S
C974 O966 1.315 . S
C974 O969 1.279 . S
C975 O976 1.315 . S
C975 O977 1.279 . S
O976 Cd968 2.223 1_556 S
O976 C975 1.315 . S
O977 Cd967 2.240 1_556 S
O977 C975 1.279 . S
O978 Cd968 2.297 1_556 S
O978 C973 1.247 . S
O979 Cd968 2.439 1_556 S
O979 C973 1.208 . S
O980 Cd981 2.223 . S
O980 C988 1.315 . S
Cd981 O980 2.223 . S
Cd981 O984 2.297 . S
Cd981 O985 2.439 . S
Cd981 O991 2.240 . S
Cd982 O983 2.240 . S
Cd982 O990 2.223 . S
Cd982 O992 2.297 . S
Cd982 O993 2.439 . S
O983 Cd982 2.240 . S
O983 C988 1.279 . S
O984 Cd981 2.297 . S
O984 C986 1.247 . S
O985 Cd981 2.439 . S
O985 C986 1.208 . S
C986 O984 1.247 . S
C986 O985 1.208 . S
C987 O992 1.247 . S
C987 O993 1.208 . S
C988 O980 1.315 . S
C988 O983 1.279 . S
C989 O990 1.315 . S
C989 O991 1.279 . S
O990 Cd982 2.223 . S
O990 C989 1.315 . S
O991 Cd981 2.240 . S
O991 C989 1.279 . S
O992 Cd982 2.297 . S
O992 C987 1.247 . S
O993 Cd982 2.439 . S
O993 C987 1.208 . S
O994 Cd995 2.223 . S
O994 C1002 1.315 . S
Cd995 O994 2.223 . S
Cd995 O998 2.297 . S
Cd995 O999 2.439 . S
Cd995 O1005 2.240 . S
Cd996 O997 2.240 . S
Cd996 O1004 2.223 . S
Cd996 O1006 2.297 . S
Cd996 O1007 2.439 . S
O997 Cd996 2.240 . S
O997 C1002 1.279 . S
O998 Cd995 2.297 . S
O998 C1000 1.247 . S
O999 Cd995 2.439 . S
O999 C1000 1.208 . S
C1000 O998 1.247 . S
C1000 O999 1.208 . S
C1001 O1006 1.247 . S
C1001 O1007 1.208 . S
C1002 O994 1.315 . S
C1002 O997 1.279 . S
C1003 O1004 1.315 . S
C1003 O1005 1.279 . S
O1004 Cd996 2.223 . S
O1004 C1003 1.315 . S
O1005 Cd995 2.240 . S
O1005 C1003 1.279 . S
O1006 Cd996 2.297 . S
O1006 C1001 1.247 . S
O1007 Cd996 2.439 . S
O1007 C1001 1.208 . S
O1008 Cd1009 2.223 . S
O1008 C1016 1.315 . S
Cd1009 O1008 2.223 . S
Cd1009 O1012 2.297 . S
Cd1009 O1013 2.439 . S
Cd1009 O1019 2.240 . S
Cd1010 O1011 2.240 . S
Cd1010 O1018 2.223 . S
Cd1010 O1020 2.297 . S
Cd1010 O1021 2.439 . S
O1011 Cd1010 2.240 . S
O1011 C1016 1.279 . S
O1012 Cd1009 2.297 . S
O1012 C1014 1.247 . S
O1013 Cd1009 2.439 . S
O1013 C1014 1.208 . S
C1014 O1012 1.247 . S
C1014 O1013 1.208 . S
C1015 O1020 1.247 . S
C1015 O1021 1.208 . S
C1016 O1008 1.315 . S
C1016 O1011 1.279 . S
C1017 O1018 1.315 . S
C1017 O1019 1.279 . S
O1018 Cd1010 2.223 . S
O1018 C1017 1.315 . S
O1019 Cd1009 2.240 . S
O1019 C1017 1.279 . S
O1020 Cd1010 2.297 . S
O1020 C1015 1.247 . S
O1021 Cd1010 2.439 . S
O1021 C1015 1.208 . S
O1022 Cd1023 2.223 . S
O1022 C1030 1.315 . S
Cd1023 O1022 2.223 . S
Cd1023 O1026 2.297 . S
Cd1023 O1027 2.439 . S
Cd1023 O1033 2.240 . S
Cd1024 O1025 2.240 . S
Cd1024 O1032 2.223 . S
Cd1024 O1034 2.297 . S
Cd1024 O1035 2.439 . S
O1025 Cd1024 2.240 . S
O1025 C1030 1.279 . S
O1026 Cd1023 2.297 . S
O1026 C1028 1.247 . S
O1027 Cd1023 2.439 . S
O1027 C1028 1.208 . S
C1028 O1026 1.247 . S
C1028 O1027 1.208 . S
C1029 O1034 1.247 . S
C1029 O1035 1.208 . S
C1030 O1022 1.315 . S
C1030 O1025 1.279 . S
C1031 O1032 1.315 . S
C1031 O1033 1.279 . S
O1032 Cd1024 2.223 . S
O1032 C1031 1.315 . S
O1033 Cd1023 2.240 . S
O1033 C1031 1.279 . S
O1034 Cd1024 2.297 . S
O1034 C1029 1.247 . S
O1035 Cd1024 2.439 . S
O1035 C1029 1.208 . S
O1036 Cd1037 2.223 . S
O1036 C1044 1.315 . S
Cd1037 O1036 2.223 . S
Cd1037 O1040 2.297 . S
Cd1037 O1041 2.439 . S
Cd1037 O1047 2.240 1_455 S
Cd1038 O1039 2.240 . S
Cd1038 O1046 2.223 1_455 S
Cd1038 O1048 2.297 1_455 S
Cd1038 O1049 2.439 1_455 S
O1039 Cd1038 2.240 . S
O1039 C1044 1.279 . S
O1040 Cd1037 2.297 . S
O1040 C1042 1.247 . S
O1041 Cd1037 2.439 . S
O1041 C1042 1.208 . S
C1042 O1040 1.247 . S
C1042 O1041 1.208 . S
C1043 O1048 1.247 . S
C1043 O1049 1.208 . S
C1044 O1036 1.315 . S
C1044 O1039 1.279 . S
C1045 O1046 1.315 . S
C1045 O1047 1.279 . S
O1046 Cd1038 2.223 1_655 S
O1046 C1045 1.315 . S
O1047 Cd1037 2.240 1_655 S
O1047 C1045 1.279 . S
O1048 Cd1038 2.297 1_655 S
O1048 C1043 1.247 . S
O1049 Cd1038 2.439 1_655 S
O1049 C1043 1.208 . S
O1050 Cd1051 2.223 . S
O1050 C1058 1.315 . S
Cd1051 O1050 2.223 . S
Cd1051 O1054 2.297 . S
Cd1051 O1055 2.439 . S
Cd1051 O1061 2.240 . S
Cd1052 O1053 2.240 . S
Cd1052 O1060 2.223 . S
Cd1052 O1062 2.297 . S
Cd1052 O1063 2.439 . S
O1053 Cd1052 2.240 . S
O1053 C1058 1.279 . S
O1054 Cd1051 2.297 . S
O1054 C1056 1.247 . S
O1055 Cd1051 2.439 . S
O1055 C1056 1.208 . S
C1056 O1054 1.247 . S
C1056 O1055 1.208 . S
C1057 O1062 1.247 . S
C1057 O1063 1.208 . S
C1058 O1050 1.315 . S
C1058 O1053 1.279 . S
C1059 O1060 1.315 . S
C1059 O1061 1.279 . S
O1060 Cd1052 2.223 . S
O1060 C1059 1.315 . S
O1061 Cd1051 2.240 . S
O1061 C1059 1.279 . S
O1062 Cd1052 2.297 . S
O1062 C1057 1.247 . S
O1063 Cd1052 2.439 . S
O1063 C1057 1.208 . S
O1064 Cd1065 2.223 . S
O1064 C1072 1.315 . S
Cd1065 O1064 2.223 . S
Cd1065 O1068 2.297 . S
Cd1065 O1069 2.439 . S
Cd1065 O1075 2.240 . S
Cd1066 O1067 2.240 . S
Cd1066 O1074 2.223 . S
Cd1066 O1076 2.297 . S
Cd1066 O1077 2.439 . S
O1067 Cd1066 2.240 . S
O1067 C1072 1.279 . S
O1068 Cd1065 2.297 . S
O1068 C1070 1.247 . S
O1069 Cd1065 2.439 . S
O1069 C1070 1.208 . S
C1070 O1068 1.247 . S
C1070 O1069 1.208 . S
C1071 O1076 1.247 . S
C1071 O1077 1.208 . S
C1072 O1064 1.315 . S
C1072 O1067 1.279 . S
C1073 O1074 1.315 . S
C1073 O1075 1.279 . S
O1074 Cd1066 2.223 . S
O1074 C1073 1.315 . S
O1075 Cd1065 2.240 . S
O1075 C1073 1.279 . S
O1076 Cd1066 2.297 . S
O1076 C1071 1.247 . S
O1077 Cd1066 2.439 . S
O1077 C1071 1.208 . S
O1078 Cd1079 2.223 . S
O1078 C1086 1.315 . S
Cd1079 O1078 2.223 . S
Cd1079 O1082 2.297 . S
Cd1079 O1083 2.439 . S
Cd1079 O1089 2.240 . S
Cd1080 O1081 2.240 . S
Cd1080 O1088 2.223 . S
Cd1080 O1090 2.297 . S
Cd1080 O1091 2.439 . S
O1081 Cd1080 2.240 . S
O1081 C1086 1.279 . S
O1082 Cd1079 2.297 . S
O1082 C1084 1.247 . S
O1083 Cd1079 2.439 . S
O1083 C1084 1.208 . S
C1084 O1082 1.247 . S
C1084 O1083 1.208 . S
C1085 O1090 1.247 . S
C1085 O1091 1.208 . S
C1086 O1078 1.315 . S
C1086 O1081 1.279 . S
C1087 O1088 1.315 . S
C1087 O1089 1.279 . S
O1088 Cd1080 2.223 . S
O1088 C1087 1.315 . S
O1089 Cd1079 2.240 . S
O1089 C1087 1.279 . S
O1090 Cd1080 2.297 . S
O1090 C1085 1.247 . S
O1091 Cd1080 2.439 . S
O1091 C1085 1.208 . S
O1092 Cd1093 2.223 . S
O1092 C1100 1.315 . S
Cd1093 O1092 2.223 . S
Cd1093 O1096 2.297 . S
Cd1093 O1097 2.439 . S
Cd1093 O1103 2.240 1_455 S
Cd1094 O1095 2.240 . S
Cd1094 O1102 2.223 1_455 S
Cd1094 O1104 2.297 1_455 S
Cd1094 O1105 2.439 1_455 S
O1095 Cd1094 2.240 . S
O1095 C1100 1.279 . S
O1096 Cd1093 2.297 . S
O1096 C1098 1.247 . S
O1097 Cd1093 2.439 . S
O1097 C1098 1.208 . S
C1098 O1096 1.247 . S
C1098 O1097 1.208 . S
C1099 O1104 1.247 . S
C1099 O1105 1.208 . S
C1100 O1092 1.315 . S
C1100 O1095 1.279 . S
C1101 O1102 1.315 . S
C1101 O1103 1.279 . S
O1102 Cd1094 2.223 1_655 S
O1102 C1101 1.315 . S
O1103 Cd1093 2.240 1_655 S
O1103 C1101 1.279 . S
O1104 Cd1094 2.297 1_655 S
O1104 C1099 1.247 . S
O1105 Cd1094 2.439 1_655 S
O1105 C1099 1.208 . S
O1106 Cd1107 2.223 . S
O1106 C1114 1.315 . S
Cd1107 O1106 2.223 . S
Cd1107 O1110 2.297 . S
Cd1107 O1111 2.439 . S
Cd1107 O1117 2.240 . S
Cd1108 O1109 2.240 . S
Cd1108 O1116 2.223 . S
Cd1108 O1118 2.297 . S
Cd1108 O1119 2.439 . S
O1109 Cd1108 2.240 . S
O1109 C1114 1.279 . S
O1110 Cd1107 2.297 . S
O1110 C1112 1.247 . S
O1111 Cd1107 2.439 . S
O1111 C1112 1.208 . S
C1112 O1110 1.247 . S
C1112 O1111 1.208 . S
C1113 O1118 1.247 . S
C1113 O1119 1.208 . S
C1114 O1106 1.315 . S
C1114 O1109 1.279 . S
C1115 O1116 1.315 . S
C1115 O1117 1.279 . S
O1116 Cd1108 2.223 . S
O1116 C1115 1.315 . S
O1117 Cd1107 2.240 . S
O1117 C1115 1.279 . S
O1118 Cd1108 2.297 . S
O1118 C1113 1.247 . S
O1119 Cd1108 2.439 . S
O1119 C1113 1.208 . S
O1120 Cd1121 2.223 . S
O1120 C1128 1.315 . S
Cd1121 O1120 2.223 . S
Cd1121 O1124 2.297 . S
Cd1121 O1125 2.439 . S
Cd1121 O1131 2.240 . S
Cd1122 O1123 2.240 . S
Cd1122 O1130 2.223 . S
Cd1122 O1132 2.297 . S
Cd1122 O1133 2.439 . S
O1123 Cd1122 2.240 . S
O1123 C1128 1.279 . S
O1124 Cd1121 2.297 . S
O1124 C1126 1.247 . S
O1125 Cd1121 2.439 . S
O1125 C1126 1.208 . S
C1126 O1124 1.247 . S
C1126 O1125 1.208 . S
C1127 O1132 1.247 . S
C1127 O1133 1.208 . S
C1128 O1120 1.315 . S
C1128 O1123 1.279 . S
C1129 O1130 1.315 . S
C1129 O1131 1.279 . S
O1130 Cd1122 2.223 . S
O1130 C1129 1.315 . S
O1131 Cd1121 2.240 . S
O1131 C1129 1.279 . S
O1132 Cd1122 2.297 . S
O1132 C1127 1.247 . S
O1133 Cd1122 2.439 . S
O1133 C1127 1.208 . S
O1134 Cd1135 2.223 . S
O1134 C1142 1.315 . S
Cd1135 O1134 2.223 . S
Cd1135 O1138 2.297 . S
Cd1135 O1139 2.439 . S
Cd1135 O1145 2.240 . S
Cd1136 O1137 2.240 . S
Cd1136 O1144 2.223 . S
Cd1136 O1146 2.297 . S
Cd1136 O1147 2.439 . S
O1137 Cd1136 2.240 . S
O1137 C1142 1.279 . S
O1138 Cd1135 2.297 . S
O1138 C1140 1.247 . S
O1139 Cd1135 2.439 . S
O1139 C1140 1.208 . S
C1140 O1138 1.247 . S
C1140 O1139 1.208 . S
C1141 O1146 1.247 . S
C1141 O1147 1.208 . S
C1142 O1134 1.315 . S
C1142 O1137 1.279 . S
C1143 O1144 1.315 . S
C1143 O1145 1.279 . S
O1144 Cd1136 2.223 . S
O1144 C1143 1.315 . S
O1145 Cd1135 2.240 . S
O1145 C1143 1.279 . S
O1146 Cd1136 2.297 . S
O1146 C1141 1.247 . S
O1147 Cd1136 2.439 . S
O1147 C1141 1.208 . S
O1148 Cd1149 2.223 . S
O1148 C1156 1.315 . S
Cd1149 O1148 2.223 . S
Cd1149 O1152 2.297 . S
Cd1149 O1153 2.439 . S
Cd1149 O1159 2.240 . S
Cd1150 O1151 2.240 . S
Cd1150 O1158 2.223 . S
Cd1150 O1160 2.297 . S
Cd1150 O1161 2.439 . S
O1151 Cd1150 2.240 . S
O1151 C1156 1.279 . S
O1152 Cd1149 2.297 . S
O1152 C1154 1.247 . S
O1153 Cd1149 2.439 . S
O1153 C1154 1.208 . S
C1154 O1152 1.247 . S
C1154 O1153 1.208 . S
C1155 O1160 1.247 . S
C1155 O1161 1.208 . S
C1156 O1148 1.315 . S
C1156 O1151 1.279 . S
C1157 O1158 1.315 . S
C1157 O1159 1.279 . S
O1158 Cd1150 2.223 . S
O1158 C1157 1.315 . S
O1159 Cd1149 2.240 . S
O1159 C1157 1.279 . S
O1160 Cd1150 2.297 . S
O1160 C1155 1.247 . S
O1161 Cd1150 2.439 . S
O1161 C1155 1.208 . S
O1162 Cd1163 2.223 . S
O1162 C1170 1.315 . S
Cd1163 O1162 2.223 . S
Cd1163 O1166 2.297 . S
Cd1163 O1167 2.439 . S
Cd1163 O1173 2.240 . S
Cd1164 O1165 2.240 . S
Cd1164 O1172 2.223 . S
Cd1164 O1174 2.297 . S
Cd1164 O1175 2.439 . S
O1165 Cd1164 2.240 . S
O1165 C1170 1.279 . S
O1166 Cd1163 2.297 . S
O1166 C1168 1.247 . S
O1167 Cd1163 2.439 . S
O1167 C1168 1.208 . S
C1168 O1166 1.247 . S
C1168 O1167 1.208 . S
C1169 O1174 1.247 . S
C1169 O1175 1.208 . S
C1170 O1162 1.315 . S
C1170 O1165 1.279 . S
C1171 O1172 1.315 . S
C1171 O1173 1.279 . S
O1172 Cd1164 2.223 . S
O1172 C1171 1.315 . S
O1173 Cd1163 2.240 . S
O1173 C1171 1.279 . S
O1174 Cd1164 2.297 . S
O1174 C1169 1.247 . S
O1175 Cd1164 2.439 . S
O1175 C1169 1.208 . S
O1176 Cd1177 2.223 . S
O1176 C1184 1.315 . S
Cd1177 O1176 2.223 . S
Cd1177 O1180 2.297 . S
Cd1177 O1181 2.439 . S
Cd1177 O1187 2.240 . S
Cd1178 O1179 2.240 . S
Cd1178 O1186 2.223 . S
Cd1178 O1188 2.297 . S
Cd1178 O1189 2.439 . S
O1179 Cd1178 2.240 . S
O1179 C1184 1.279 . S
O1180 Cd1177 2.297 . S
O1180 C1182 1.247 . S
O1181 Cd1177 2.439 . S
O1181 C1182 1.208 . S
C1182 O1180 1.247 . S
C1182 O1181 1.208 . S
C1183 O1188 1.247 . S
C1183 O1189 1.208 . S
C1184 O1176 1.315 . S
C1184 O1179 1.279 . S
C1185 O1186 1.315 . S
C1185 O1187 1.279 . S
O1186 Cd1178 2.223 . S
O1186 C1185 1.315 . S
O1187 Cd1177 2.240 . S
O1187 C1185 1.279 . S
O1188 Cd1178 2.297 . S
O1188 C1183 1.247 . S
O1189 Cd1178 2.439 . S
O1189 C1183 1.208 . S
O1190 Cd1191 2.223 . S
O1190 C1198 1.315 . S
Cd1191 O1190 2.223 . S
Cd1191 O1194 2.297 . S
Cd1191 O1195 2.439 . S
Cd1191 O1201 2.240 . S
Cd1192 O1193 2.240 . S
Cd1192 O1200 2.223 . S
Cd1192 O1202 2.297 . S
Cd1192 O1203 2.439 . S
O1193 Cd1192 2.240 . S
O1193 C1198 1.279 . S
O1194 Cd1191 2.297 . S
O1194 C1196 1.247 . S
O1195 Cd1191 2.439 . S
O1195 C1196 1.208 . S
C1196 O1194 1.247 . S
C1196 O1195 1.208 . S
C1197 O1202 1.247 . S
C1197 O1203 1.208 . S
C1198 O1190 1.315 . S
C1198 O1193 1.279 . S
C1199 O1200 1.315 . S
C1199 O1201 1.279 . S
O1200 Cd1192 2.223 . S
O1200 C1199 1.315 . S
O1201 Cd1191 2.240 . S
O1201 C1199 1.279 . S
O1202 Cd1192 2.297 . S
O1202 C1197 1.247 . S
O1203 Cd1192 2.439 . S
O1203 C1197 1.208 . S
O1204 Cd1205 2.223 . S
O1204 C1212 1.315 . S
Cd1205 O1204 2.223 . S
Cd1205 O1208 2.297 . S
Cd1205 O1209 2.439 . S
Cd1205 O1215 2.240 . S
Cd1206 O1207 2.240 . S
Cd1206 O1214 2.223 . S
Cd1206 O1216 2.297 . S
Cd1206 O1217 2.439 . S
O1207 Cd1206 2.240 . S
O1207 C1212 1.279 . S
O1208 Cd1205 2.297 . S
O1208 C1210 1.247 . S
O1209 Cd1205 2.439 . S
O1209 C1210 1.208 . S
C1210 O1208 1.247 . S
C1210 O1209 1.208 . S
C1211 O1216 1.247 . S
C1211 O1217 1.208 . S
C1212 O1204 1.315 . S
C1212 O1207 1.279 . S
C1213 O1214 1.315 . S
C1213 O1215 1.279 . S
O1214 Cd1206 2.223 . S
O1214 C1213 1.315 . S
O1215 Cd1205 2.240 . S
O1215 C1213 1.279 . S
O1216 Cd1206 2.297 . S
O1216 C1211 1.247 . S
O1217 Cd1206 2.439 . S
O1217 C1211 1.208 . S
O1218 Cd1219 2.223 . S
O1218 C1226 1.315 . S
Cd1219 O1218 2.223 . S
Cd1219 O1222 2.297 . S
Cd1219 O1223 2.439 . S
Cd1219 O1229 2.240 . S
Cd1220 O1221 2.240 . S
Cd1220 O1228 2.223 . S
Cd1220 O1230 2.297 . S
Cd1220 O1231 2.439 . S
O1221 Cd1220 2.240 . S
O1221 C1226 1.279 . S
O1222 Cd1219 2.297 . S
O1222 C1224 1.247 . S
O1223 Cd1219 2.439 . S
O1223 C1224 1.208 . S
C1224 O1222 1.247 . S
C1224 O1223 1.208 . S
C1225 O1230 1.247 . S
C1225 O1231 1.208 . S
C1226 O1218 1.315 . S
C1226 O1221 1.279 . S
C1227 O1228 1.315 . S
C1227 O1229 1.279 . S
O1228 Cd1220 2.223 . S
O1228 C1227 1.315 . S
O1229 Cd1219 2.240 . S
O1229 C1227 1.279 . S
O1230 Cd1220 2.297 . S
O1230 C1225 1.247 . S
O1231 Cd1220 2.439 . S
O1231 C1225 1.208 . S
O1232 Cd1233 2.223 . S
O1232 C1240 1.315 . S
Cd1233 O1232 2.223 . S
Cd1233 O1236 2.297 . S
Cd1233 O1237 2.439 . S
Cd1233 O1243 2.240 . S
Cd1234 O1235 2.240 . S
Cd1234 O1242 2.223 . S
Cd1234 O1244 2.297 . S
Cd1234 O1245 2.439 . S
O1235 Cd1234 2.240 . S
O1235 C1240 1.279 . S
O1236 Cd1233 2.297 . S
O1236 C1238 1.247 . S
O1237 Cd1233 2.439 . S
O1237 C1238 1.208 . S
C1238 O1236 1.247 . S
C1238 O1237 1.208 . S
C1239 O1244 1.247 . S
C1239 O1245 1.208 . S
C1240 O1232 1.315 . S
C1240 O1235 1.279 . S
C1241 O1242 1.315 . S
C1241 O1243 1.279 . S
O1242 Cd1234 2.223 . S
O1242 C1241 1.315 . S
O1243 Cd1233 2.240 . S
O1243 C1241 1.279 . S
O1244 Cd1234 2.297 . S
O1244 C1239 1.247 . S
O1245 Cd1234 2.439 . S
O1245 C1239 1.208 . S
O1246 Cd1247 2.223 . S
O1246 C1254 1.315 . S
Cd1247 O1246 2.223 . S
Cd1247 O1250 2.297 . S
Cd1247 O1251 2.439 . S
Cd1247 O1257 2.240 . S
Cd1248 O1249 2.240 . S
Cd1248 O1256 2.223 . S
Cd1248 O1258 2.297 . S
Cd1248 O1259 2.439 . S
O1249 Cd1248 2.240 . S
O1249 C1254 1.279 . S
O1250 Cd1247 2.297 . S
O1250 C1252 1.247 . S
O1251 Cd1247 2.439 . S
O1251 C1252 1.208 . S
C1252 O1250 1.247 . S
C1252 O1251 1.208 . S
C1253 O1258 1.247 . S
C1253 O1259 1.208 . S
C1254 O1246 1.315 . S
C1254 O1249 1.279 . S
C1255 O1256 1.315 . S
C1255 O1257 1.279 . S
O1256 Cd1248 2.223 . S
O1256 C1255 1.315 . S
O1257 Cd1247 2.240 . S
O1257 C1255 1.279 . S
O1258 Cd1248 2.297 . S
O1258 C1253 1.247 . S
O1259 Cd1248 2.439 . S
O1259 C1253 1.208 . S
O1260 Cd1261 2.223 . S
O1260 C1268 1.315 . S
Cd1261 O1260 2.223 . S
Cd1261 O1264 2.297 . S
Cd1261 O1265 2.439 . S
Cd1261 O1271 2.240 . S
Cd1262 O1263 2.240 . S
Cd1262 O1270 2.223 . S
Cd1262 O1272 2.297 . S
Cd1262 O1273 2.439 . S
O1263 Cd1262 2.240 . S
O1263 C1268 1.279 . S
O1264 Cd1261 2.297 . S
O1264 C1266 1.247 . S
O1265 Cd1261 2.439 . S
O1265 C1266 1.208 . S
C1266 O1264 1.247 . S
C1266 O1265 1.208 . S
C1267 O1272 1.247 . S
C1267 O1273 1.208 . S
C1268 O1260 1.315 . S
C1268 O1263 1.279 . S
C1269 O1270 1.315 . S
C1269 O1271 1.279 . S
O1270 Cd1262 2.223 . S
O1270 C1269 1.315 . S
O1271 Cd1261 2.240 . S
O1271 C1269 1.279 . S
O1272 Cd1262 2.297 . S
O1272 C1267 1.247 . S
O1273 Cd1262 2.439 . S
O1273 C1267 1.208 . S
O1274 Cd1275 2.223 . S
O1274 C1282 1.315 . S
Cd1275 O1274 2.223 . S
Cd1275 O1278 2.297 . S
Cd1275 O1279 2.439 . S
Cd1275 O1285 2.240 1_554 S
Cd1276 O1277 2.240 . S
Cd1276 O1284 2.223 1_554 S
Cd1276 O1286 2.297 1_554 S
Cd1276 O1287 2.439 1_554 S
O1277 Cd1276 2.240 . S
O1277 C1282 1.279 . S
O1278 Cd1275 2.297 . S
O1278 C1280 1.247 . S
O1279 Cd1275 2.439 . S
O1279 C1280 1.208 . S
C1280 O1278 1.247 . S
C1280 O1279 1.208 . S
C1281 O1286 1.247 . S
C1281 O1287 1.208 . S
C1282 O1274 1.315 . S
C1282 O1277 1.279 . S
C1283 O1284 1.315 . S
C1283 O1285 1.279 . S
O1284 Cd1276 2.223 1_556 S
O1284 C1283 1.315 . S
O1285 Cd1275 2.240 1_556 S
O1285 C1283 1.279 . S
O1286 Cd1276 2.297 1_556 S
O1286 C1281 1.247 . S
O1287 Cd1276 2.439 1_556 S
O1287 C1281 1.208 . S
O1288 Cd1289 2.223 . S
O1288 C1296 1.315 . S
Cd1289 O1288 2.223 . S
Cd1289 O1292 2.297 . S
Cd1289 O1293 2.439 . S
Cd1289 O1299 2.240 . S
Cd1290 O1291 2.240 . S
Cd1290 O1298 2.223 . S
Cd1290 O1300 2.297 . S
Cd1290 O1301 2.439 . S
O1291 Cd1290 2.240 . S
O1291 C1296 1.279 . S
O1292 Cd1289 2.297 . S
O1292 C1294 1.247 . S
O1293 Cd1289 2.439 . S
O1293 C1294 1.208 . S
C1294 O1292 1.247 . S
C1294 O1293 1.208 . S
C1295 O1300 1.247 . S
C1295 O1301 1.208 . S
C1296 O1288 1.315 . S
C1296 O1291 1.279 . S
C1297 O1298 1.315 . S
C1297 O1299 1.279 . S
O1298 Cd1290 2.223 . S
O1298 C1297 1.315 . S
O1299 Cd1289 2.240 . S
O1299 C1297 1.279 . S
O1300 Cd1290 2.297 . S
O1300 C1295 1.247 . S
O1301 Cd1290 2.439 . S
O1301 C1295 1.208 . S
O1302 Cd1303 2.223 . S
O1302 C1310 1.315 . S
Cd1303 O1302 2.223 . S
Cd1303 O1306 2.297 . S
Cd1303 O1307 2.439 . S
Cd1303 O1313 2.240 1_556 S
Cd1304 O1305 2.240 . S
Cd1304 O1312 2.223 1_556 S
Cd1304 O1314 2.297 1_556 S
Cd1304 O1315 2.439 1_556 S
O1305 Cd1304 2.240 . S
O1305 C1310 1.279 . S
O1306 Cd1303 2.297 . S
O1306 C1308 1.247 . S
O1307 Cd1303 2.439 . S
O1307 C1308 1.208 . S
C1308 O1306 1.247 . S
C1308 O1307 1.208 . S
C1309 O1314 1.247 . S
C1309 O1315 1.208 . S
C1310 O1302 1.315 . S
C1310 O1305 1.279 . S
C1311 O1312 1.315 . S
C1311 O1313 1.279 . S
O1312 Cd1304 2.223 1_554 S
O1312 C1311 1.315 . S
O1313 Cd1303 2.240 1_554 S
O1313 C1311 1.279 . S
O1314 Cd1304 2.297 1_554 S
O1314 C1309 1.247 . S
O1315 Cd1304 2.439 1_554 S
O1315 C1309 1.208 . S
O1316 Cd1317 2.223 . S
O1316 C1324 1.315 . S
Cd1317 O1316 2.223 . S
Cd1317 O1320 2.297 . S
Cd1317 O1321 2.439 . S
Cd1317 O1327 2.240 . S
Cd1318 O1319 2.240 . S
Cd1318 O1326 2.223 . S
Cd1318 O1328 2.297 . S
Cd1318 O1329 2.439 . S
O1319 Cd1318 2.240 . S
O1319 C1324 1.279 . S
O1320 Cd1317 2.297 . S
O1320 C1322 1.247 . S
O1321 Cd1317 2.439 . S
O1321 C1322 1.208 . S
C1322 O1320 1.247 . S
C1322 O1321 1.208 . S
C1323 O1328 1.247 . S
C1323 O1329 1.208 . S
C1324 O1316 1.315 . S
C1324 O1319 1.279 . S
C1325 O1326 1.315 . S
C1325 O1327 1.279 . S
O1326 Cd1318 2.223 . S
O1326 C1325 1.315 . S
O1327 Cd1317 2.240 . S
O1327 C1325 1.279 . S
O1328 Cd1318 2.297 . S
O1328 C1323 1.247 . S
O1329 Cd1318 2.439 . S
O1329 C1323 1.208 . S
O1330 Cd1331 2.223 . S
O1330 C1338 1.315 . S
Cd1331 O1330 2.223 . S
Cd1331 O1334 2.297 . S
Cd1331 O1335 2.439 . S
Cd1331 O1341 2.240 . S
Cd1332 O1333 2.240 . S
Cd1332 O1340 2.223 . S
Cd1332 O1342 2.297 . S
Cd1332 O1343 2.439 . S
O1333 Cd1332 2.240 . S
O1333 C1338 1.279 . S
O1334 Cd1331 2.297 . S
O1334 C1336 1.247 . S
O1335 Cd1331 2.439 . S
O1335 C1336 1.208 . S
C1336 O1334 1.247 . S
C1336 O1335 1.208 . S
C1337 O1342 1.247 . S
C1337 O1343 1.208 . S
C1338 O1330 1.315 . S
C1338 O1333 1.279 . S
C1339 O1340 1.315 . S
C1339 O1341 1.279 . S
O1340 Cd1332 2.223 . S
O1340 C1339 1.315 . S
O1341 Cd1331 2.240 . S
O1341 C1339 1.279 . S
O1342 Cd1332 2.297 . S
O1342 C1337 1.247 . S
O1343 Cd1332 2.439 . S
O1343 C1337 1.208 . S
C1344 C1345 1.387 . S
C1344 H1348 0.950 . S
C1344 C1353 1.390 . S
C1345 C1344 1.387 . S
C1345 C1347 1.387 . S
H1346 C1353 0.950 . S
C1347 C1345 1.387 . S
C1347 C1349 1.390 . S
C1347 H1351 0.950 . S
H1348 C1344 0.950 . S
C1349 C1347 1.390 . S
C1349 C1350 1.387 . S
C1349 H1352 0.950 . S
C1350 C1349 1.387 . S
C1350 C1353 1.387 . S
H1351 C1347 0.950 . S
H1352 C1349 0.950 . S
C1353 C1344 1.390 . S
C1353 H1346 0.950 . S
C1353 C1350 1.387 . S
C1354 C1355 1.387 . S
C1354 H1358 0.950 . S
C1354 C1363 1.390 . S
C1355 C1354 1.387 . S
C1355 C1357 1.387 . S
H1356 C1363 0.950 . S
C1357 C1355 1.387 . S
C1357 C1359 1.390 . S
C1357 H1361 0.950 . S
H1358 C1354 0.950 . S
C1359 C1357 1.390 . S
C1359 C1360 1.387 . S
C1359 H1362 0.950 . S
C1360 C1359 1.387 . S
C1360 C1363 1.387 . S
H1361 C1357 0.950 . S
H1362 C1359 0.950 . S
C1363 C1354 1.390 . S
C1363 H1356 0.950 . S
C1363 C1360 1.387 . S
C1364 C1365 1.387 . S
C1364 H1368 0.950 . S
C1364 C1373 1.390 . S
C1365 C1364 1.387 . S
C1365 C1367 1.387 . S
H1366 C1373 0.950 . S
C1367 C1365 1.387 . S
C1367 C1369 1.390 . S
C1367 H1371 0.950 . S
H1368 C1364 0.950 . S
C1369 C1367 1.390 . S
C1369 C1370 1.387 . S
C1369 H1372 0.950 . S
C1370 C1369 1.387 . S
C1370 C1373 1.387 . S
H1371 C1367 0.950 . S
H1372 C1369 0.950 . S
C1373 C1364 1.390 . S
C1373 H1366 0.950 . S
C1373 C1370 1.387 . S
C1374 C1375 1.387 . S
C1374 H1378 0.950 . S
C1374 C1383 1.390 . S
C1375 C1374 1.387 . S
C1375 C1377 1.387 . S
H1376 C1383 0.950 . S
C1377 C1375 1.387 . S
C1377 C1379 1.390 . S
C1377 H1381 0.950 . S
H1378 C1374 0.950 . S
C1379 C1377 1.390 . S
C1379 C1380 1.387 . S
C1379 H1382 0.950 . S
C1380 C1379 1.387 . S
C1380 C1383 1.387 . S
H1381 C1377 0.950 . S
H1382 C1379 0.950 . S
C1383 C1374 1.390 . S
C1383 H1376 0.950 . S
C1383 C1380 1.387 . S
C1384 C1385 1.387 . S
C1384 H1388 0.950 . S
C1384 C1393 1.390 . S
C1385 C1384 1.387 . S
C1385 C1387 1.387 . S
H1386 C1393 0.950 . S
C1387 C1385 1.387 . S
C1387 C1389 1.390 . S
C1387 H1391 0.950 . S
H1388 C1384 0.950 . S
C1389 C1387 1.390 . S
C1389 C1390 1.387 . S
C1389 H1392 0.950 . S
C1390 C1389 1.387 . S
C1390 C1393 1.387 . S
H1391 C1387 0.950 . S
H1392 C1389 0.950 . S
C1393 C1384 1.390 . S
C1393 H1386 0.950 . S
C1393 C1390 1.387 . S
C1394 C1395 1.387 . S
C1394 H1398 0.950 . S
C1394 C1403 1.390 . S
C1395 C1394 1.387 . S
C1395 C1397 1.387 . S
H1396 C1403 0.950 . S
C1397 C1395 1.387 . S
C1397 C1399 1.390 . S
C1397 H1401 0.950 . S
H1398 C1394 0.950 . S
C1399 C1397 1.390 . S
C1399 C1400 1.387 . S
C1399 H1402 0.950 . S
C1400 C1399 1.387 . S
C1400 C1403 1.387 . S
H1401 C1397 0.950 . S
H1402 C1399 0.950 . S
C1403 C1394 1.390 . S
C1403 H1396 0.950 . S
C1403 C1400 1.387 . S
C1404 C1405 1.387 . S
C1404 H1408 0.950 . S
C1404 C1413 1.390 . S
C1405 C1404 1.387 . S
C1405 C1407 1.387 . S
H1406 C1413 0.950 . S
C1407 C1405 1.387 . S
C1407 C1409 1.390 . S
C1407 H1411 0.950 . S
H1408 C1404 0.950 . S
C1409 C1407 1.390 . S
C1409 C1410 1.387 . S
C1409 H1412 0.950 . S
C1410 C1409 1.387 . S
C1410 C1413 1.387 . S
H1411 C1407 0.950 . S
H1412 C1409 0.950 . S
C1413 C1404 1.390 . S
C1413 H1406 0.950 . S
C1413 C1410 1.387 . S
C1414 C1415 1.387 . S
C1414 H1418 0.950 . S
C1414 C1423 1.390 . S
C1415 C1414 1.387 . S
C1415 C1417 1.387 . S
H1416 C1423 0.950 . S
C1417 C1415 1.387 . S
C1417 C1419 1.390 . S
C1417 H1421 0.950 . S
H1418 C1414 0.950 . S
C1419 C1417 1.390 . S
C1419 C1420 1.387 . S
C1419 H1422 0.950 . S
C1420 C1419 1.387 . S
C1420 C1423 1.387 . S
H1421 C1417 0.950 . S
H1422 C1419 0.950 . S
C1423 C1414 1.390 . S
C1423 H1416 0.950 . S
C1423 C1420 1.387 . S
C1424 C1425 1.387 . S
C1424 H1428 0.950 . S
C1424 C1433 1.390 . S
C1425 C1424 1.387 . S
C1425 C1427 1.387 . S
H1426 C1433 0.950 . S
C1427 C1425 1.387 . S
C1427 C1429 1.390 . S
C1427 H1431 0.950 . S
H1428 C1424 0.950 . S
C1429 C1427 1.390 . S
C1429 C1430 1.387 . S
C1429 H1432 0.950 . S
C1430 C1429 1.387 . S
C1430 C1433 1.387 . S
H1431 C1427 0.950 . S
H1432 C1429 0.950 . S
C1433 C1424 1.390 . S
C1433 H1426 0.950 . S
C1433 C1430 1.387 . S
C1434 C1435 1.387 . S
C1434 H1438 0.950 . S
C1434 C1443 1.390 . S
C1435 C1434 1.387 . S
C1435 C1437 1.387 . S
H1436 C1443 0.950 . S
C1437 C1435 1.387 . S
C1437 C1439 1.390 . S
C1437 H1441 0.950 . S
H1438 C1434 0.950 . S
C1439 C1437 1.390 . S
C1439 C1440 1.387 . S
C1439 H1442 0.950 . S
C1440 C1439 1.387 . S
C1440 C1443 1.387 . S
H1441 C1437 0.950 . S
H1442 C1439 0.950 . S
C1443 C1434 1.390 . S
C1443 H1436 0.950 . S
C1443 C1440 1.387 . S
C1444 C1445 1.387 . S
C1444 H1448 0.950 . S
C1444 C1453 1.390 . S
C1445 C1444 1.387 . S
C1445 C1447 1.387 . S
H1446 C1453 0.950 . S
C1447 C1445 1.387 . S
C1447 C1449 1.390 . S
C1447 H1451 0.950 . S
H1448 C1444 0.950 . S
C1449 C1447 1.390 . S
C1449 C1450 1.387 . S
C1449 H1452 0.950 . S
C1450 C1449 1.387 . S
C1450 C1453 1.387 . S
H1451 C1447 0.950 . S
H1452 C1449 0.950 . S
C1453 C1444 1.390 . S
C1453 H1446 0.950 . S
C1453 C1450 1.387 . S
C1454 C1455 1.387 . S
C1454 H1458 0.950 . S
C1454 C1463 1.390 . S
C1455 C1454 1.387 . S
C1455 C1457 1.387 . S
H1456 C1463 0.950 . S
C1457 C1455 1.387 . S
C1457 C1459 1.390 . S
C1457 H1461 0.950 . S
H1458 C1454 0.950 . S
C1459 C1457 1.390 . S
C1459 C1460 1.387 . S
C1459 H1462 0.950 . S
C1460 C1459 1.387 . S
C1460 C1463 1.387 . S
H1461 C1457 0.950 . S
H1462 C1459 0.950 . S
C1463 C1454 1.390 . S
C1463 H1456 0.950 . S
C1463 C1460 1.387 . S
C1464 C1465 1.387 . S
C1464 H1468 0.950 . S
C1464 C1473 1.390 . S
C1465 C1464 1.387 . S
C1465 C1467 1.387 . S
H1466 C1473 0.950 . S
C1467 C1465 1.387 . S
C1467 C1469 1.390 . S
C1467 H1471 0.950 . S
H1468 C1464 0.950 . S
C1469 C1467 1.390 . S
C1469 C1470 1.387 . S
C1469 H1472 0.950 . S
C1470 C1469 1.387 . S
C1470 C1473 1.387 . S
H1471 C1467 0.950 . S
H1472 C1469 0.950 . S
C1473 C1464 1.390 . S
C1473 H1466 0.950 . S
C1473 C1470 1.387 . S
C1474 C1475 1.387 . S
C1474 H1478 0.950 . S
C1474 C1483 1.390 . S
C1475 C1474 1.387 . S
C1475 C1477 1.387 . S
H1476 C1483 0.950 . S
C1477 C1475 1.387 . S
C1477 C1479 1.390 . S
C1477 H1481 0.950 . S
H1478 C1474 0.950 . S
C1479 C1477 1.390 . S
C1479 C1480 1.387 . S
C1479 H1482 0.950 . S
C1480 C1479 1.387 . S
C1480 C1483 1.387 . S
H1481 C1477 0.950 . S
H1482 C1479 0.950 . S
C1483 C1474 1.390 . S
C1483 H1476 0.950 . S
C1483 C1480 1.387 . S
C1484 C1485 1.387 . S
C1484 H1488 0.950 . S
C1484 C1493 1.390 . S
C1485 C1484 1.387 . S
C1485 C1487 1.387 . S
H1486 C1493 0.950 . S
C1487 C1485 1.387 . S
C1487 C1489 1.390 . S
C1487 H1491 0.950 . S
H1488 C1484 0.950 . S
C1489 C1487 1.390 . S
C1489 C1490 1.387 . S
C1489 H1492 0.950 . S
C1490 C1489 1.387 . S
C1490 C1493 1.387 . S
H1491 C1487 0.950 . S
H1492 C1489 0.950 . S
C1493 C1484 1.390 . S
C1493 H1486 0.950 . S
C1493 C1490 1.387 . S
C1494 C1495 1.387 . S
C1494 H1498 0.950 . S
C1494 C1503 1.390 . S
C1495 C1494 1.387 . S
C1495 C1497 1.387 . S
H1496 C1503 0.950 . S
C1497 C1495 1.387 . S
C1497 C1499 1.390 . S
C1497 H1501 0.950 . S
H1498 C1494 0.950 . S
C1499 C1497 1.390 . S
C1499 C1500 1.387 . S
C1499 H1502 0.950 . S
C1500 C1499 1.387 . S
C1500 C1503 1.387 . S
H1501 C1497 0.950 . S
H1502 C1499 0.950 . S
C1503 C1494 1.390 . S
C1503 H1496 0.950 . S
C1503 C1500 1.387 . S
C1504 C1505 1.387 . S
C1504 H1508 0.950 . S
C1504 C1513 1.390 . S
C1505 C1504 1.387 . S
C1505 C1507 1.387 . S
H1506 C1513 0.950 . S
C1507 C1505 1.387 . S
C1507 C1509 1.390 . S
C1507 H1511 0.950 . S
H1508 C1504 0.950 . S
C1509 C1507 1.390 . S
C1509 C1510 1.387 . S
C1509 H1512 0.950 . S
C1510 C1509 1.387 . S
C1510 C1513 1.387 . S
H1511 C1507 0.950 . S
H1512 C1509 0.950 . S
C1513 C1504 1.390 . S
C1513 H1506 0.950 . S
C1513 C1510 1.387 . S
C1514 C1515 1.387 . S
C1514 H1518 0.950 . S
C1514 C1523 1.390 . S
C1515 C1514 1.387 . S
C1515 C1517 1.387 . S
H1516 C1523 0.950 . S
C1517 C1515 1.387 . S
C1517 C1519 1.390 . S
C1517 H1521 0.950 . S
H1518 C1514 0.950 . S
C1519 C1517 1.390 . S
C1519 C1520 1.387 . S
C1519 H1522 0.950 . S
C1520 C1519 1.387 . S
C1520 C1523 1.387 . S
H1521 C1517 0.950 . S
H1522 C1519 0.950 . S
C1523 C1514 1.390 . S
C1523 H1516 0.950 . S
C1523 C1520 1.387 . S
C1524 C1525 1.387 . S
C1524 H1528 0.950 . S
C1524 C1533 1.390 . S
C1525 C1524 1.387 . S
C1525 C1527 1.387 . S
H1526 C1533 0.950 . S
C1527 C1525 1.387 . S
C1527 C1529 1.390 . S
C1527 H1531 0.950 . S
H1528 C1524 0.950 . S
C1529 C1527 1.390 . S
C1529 C1530 1.387 . S
C1529 H1532 0.950 . S
C1530 C1529 1.387 . S
C1530 C1533 1.387 . S
H1531 C1527 0.950 . S
H1532 C1529 0.950 . S
C1533 C1524 1.390 . S
C1533 H1526 0.950 . S
C1533 C1530 1.387 . S
C1534 C1535 1.387 . S
C1534 H1538 0.950 . S
C1534 C1543 1.390 . S
C1535 C1534 1.387 . S
C1535 C1537 1.387 . S
H1536 C1543 0.950 . S
C1537 C1535 1.387 . S
C1537 C1539 1.390 . S
C1537 H1541 0.950 . S
H1538 C1534 0.950 . S
C1539 C1537 1.390 . S
C1539 C1540 1.387 . S
C1539 H1542 0.950 . S
C1540 C1539 1.387 . S
C1540 C1543 1.387 . S
H1541 C1537 0.950 . S
H1542 C1539 0.950 . S
C1543 C1534 1.390 . S
C1543 H1536 0.950 . S
C1543 C1540 1.387 . S
C1544 C1545 1.387 . S
C1544 H1548 0.950 . S
C1544 C1553 1.390 . S
C1545 C1544 1.387 . S
C1545 C1547 1.387 . S
H1546 C1553 0.950 . S
C1547 C1545 1.387 . S
C1547 C1549 1.390 . S
C1547 H1551 0.950 . S
H1548 C1544 0.950 . S
C1549 C1547 1.390 . S
C1549 C1550 1.387 . S
C1549 H1552 0.950 . S
C1550 C1549 1.387 . S
C1550 C1553 1.387 . S
H1551 C1547 0.950 . S
H1552 C1549 0.950 . S
C1553 C1544 1.390 . S
C1553 H1546 0.950 . S
C1553 C1550 1.387 . S
C1554 C1555 1.387 . S
C1554 H1558 0.950 . S
C1554 C1563 1.390 . S
C1555 C1554 1.387 . S
C1555 C1557 1.387 . S
H1556 C1563 0.950 . S
C1557 C1555 1.387 . S
C1557 C1559 1.390 . S
C1557 H1561 0.950 . S
H1558 C1554 0.950 . S
C1559 C1557 1.390 . S
C1559 C1560 1.387 . S
C1559 H1562 0.950 . S
C1560 C1559 1.387 . S
C1560 C1563 1.387 . S
H1561 C1557 0.950 . S
H1562 C1559 0.950 . S
C1563 C1554 1.390 . S
C1563 H1556 0.950 . S
C1563 C1560 1.387 . S
C1564 C1565 1.387 . S
C1564 H1568 0.950 . S
C1564 C1573 1.390 . S
C1565 C1564 1.387 . S
C1565 C1567 1.387 . S
H1566 C1573 0.950 . S
C1567 C1565 1.387 . S
C1567 C1569 1.390 . S
C1567 H1571 0.950 . S
H1568 C1564 0.950 . S
C1569 C1567 1.390 . S
C1569 C1570 1.387 . S
C1569 H1572 0.950 . S
C1570 C1569 1.387 . S
C1570 C1573 1.387 . S
H1571 C1567 0.950 . S
H1572 C1569 0.950 . S
C1573 C1564 1.390 . S
C1573 H1566 0.950 . S
C1573 C1570 1.387 . S
C1574 C1575 1.387 . S
C1574 H1578 0.950 . S
C1574 C1583 1.390 . S
C1575 C1574 1.387 . S
C1575 C1577 1.387 . S
H1576 C1583 0.950 . S
C1577 C1575 1.387 . S
C1577 C1579 1.390 . S
C1577 H1581 0.950 . S
H1578 C1574 0.950 . S
C1579 C1577 1.390 . S
C1579 C1580 1.387 . S
C1579 H1582 0.950 . S
C1580 C1579 1.387 . S
C1580 C1583 1.387 . S
H1581 C1577 0.950 . S
H1582 C1579 0.950 . S
C1583 C1574 1.390 . S
C1583 H1576 0.950 . S
C1583 C1580 1.387 . S
C1584 C1585 1.387 . S
C1584 H1588 0.950 . S
C1584 C1593 1.390 . S
C1585 C1584 1.387 . S
C1585 C1587 1.387 . S
H1586 C1593 0.950 . S
C1587 C1585 1.387 . S
C1587 C1589 1.390 . S
C1587 H1591 0.950 . S
H1588 C1584 0.950 . S
C1589 C1587 1.390 . S
C1589 C1590 1.387 . S
C1589 H1592 0.950 . S
C1590 C1589 1.387 . S
C1590 C1593 1.387 . S
H1591 C1587 0.950 . S
H1592 C1589 0.950 . S
C1593 C1584 1.390 . S
C1593 H1586 0.950 . S
C1593 C1590 1.387 . S
C1594 C1595 1.387 . S
C1594 H1598 0.950 . S
C1594 C1603 1.390 . S
C1595 C1594 1.387 . S
C1595 C1597 1.387 . S
H1596 C1603 0.950 . S
C1597 C1595 1.387 . S
C1597 C1599 1.390 . S
C1597 H1601 0.950 . S
H1598 C1594 0.950 . S
C1599 C1597 1.390 . S
C1599 C1600 1.387 . S
C1599 H1602 0.950 . S
C1600 C1599 1.387 . S
C1600 C1603 1.387 . S
H1601 C1597 0.950 . S
H1602 C1599 0.950 . S
C1603 C1594 1.390 . S
C1603 H1596 0.950 . S
C1603 C1600 1.387 . S
C1604 C1605 1.387 . S
C1604 H1608 0.950 . S
C1604 C1613 1.390 . S
C1605 C1604 1.387 . S
C1605 C1607 1.387 . S
H1606 C1613 0.950 . S
C1607 C1605 1.387 . S
C1607 C1609 1.390 . S
C1607 H1611 0.950 . S
H1608 C1604 0.950 . S
C1609 C1607 1.390 . S
C1609 C1610 1.387 . S
C1609 H1612 0.950 . S
C1610 C1609 1.387 . S
C1610 C1613 1.387 . S
H1611 C1607 0.950 . S
H1612 C1609 0.950 . S
C1613 C1604 1.390 . S
C1613 H1606 0.950 . S
C1613 C1610 1.387 . S
C1614 C1615 1.387 . S
C1614 H1618 0.950 . S
C1614 C1623 1.390 . S
C1615 C1614 1.387 . S
C1615 C1617 1.387 . S
H1616 C1623 0.950 . S
C1617 C1615 1.387 . S
C1617 C1619 1.390 . S
C1617 H1621 0.950 . S
H1618 C1614 0.950 . S
C1619 C1617 1.390 . S
C1619 C1620 1.387 . S
C1619 H1622 0.950 . S
C1620 C1619 1.387 . S
C1620 C1623 1.387 . S
H1621 C1617 0.950 . S
H1622 C1619 0.950 . S
C1623 C1614 1.390 . S
C1623 H1616 0.950 . S
C1623 C1620 1.387 . S
C1624 C1625 1.387 . S
C1624 H1628 0.950 . S
C1624 C1633 1.390 . S
C1625 C1624 1.387 . S
C1625 C1627 1.387 . S
H1626 C1633 0.950 . S
C1627 C1625 1.387 . S
C1627 C1629 1.390 . S
C1627 H1631 0.950 . S
H1628 C1624 0.950 . S
C1629 C1627 1.390 . S
C1629 C1630 1.387 . S
C1629 H1632 0.950 . S
C1630 C1629 1.387 . S
C1630 C1633 1.387 . S
H1631 C1627 0.950 . S
H1632 C1629 0.950 . S
C1633 C1624 1.390 . S
C1633 H1626 0.950 . S
C1633 C1630 1.387 . S
C1634 C1635 1.387 . S
C1634 H1638 0.950 . S
C1634 C1643 1.390 . S
C1635 C1634 1.387 . S
C1635 C1637 1.387 . S
H1636 C1643 0.950 . S
C1637 C1635 1.387 . S
C1637 C1639 1.390 . S
C1637 H1641 0.950 . S
H1638 C1634 0.950 . S
C1639 C1637 1.390 . S
C1639 C1640 1.387 . S
C1639 H1642 0.950 . S
C1640 C1639 1.387 . S
C1640 C1643 1.387 . S
H1641 C1637 0.950 . S
H1642 C1639 0.950 . S
C1643 C1634 1.390 . S
C1643 H1636 0.950 . S
C1643 C1640 1.387 . S
C1644 C1645 1.387 . S
C1644 H1648 0.950 . S
C1644 C1653 1.390 . S
C1645 C1644 1.387 . S
C1645 C1647 1.387 . S
H1646 C1653 0.950 . S
C1647 C1645 1.387 . S
C1647 C1649 1.390 . S
C1647 H1651 0.950 . S
H1648 C1644 0.950 . S
C1649 C1647 1.390 . S
C1649 C1650 1.387 . S
C1649 H1652 0.950 . S
C1650 C1649 1.387 . S
C1650 C1653 1.387 . S
H1651 C1647 0.950 . S
H1652 C1649 0.950 . S
C1653 C1644 1.390 . S
C1653 H1646 0.950 . S
C1653 C1650 1.387 . S
C1654 C1655 1.387 . S
C1654 H1658 0.950 . S
C1654 C1663 1.390 . S
C1655 C1654 1.387 . S
C1655 C1657 1.387 . S
H1656 C1663 0.950 . S
C1657 C1655 1.387 . S
C1657 C1659 1.390 . S
C1657 H1661 0.950 . S
H1658 C1654 0.950 . S
C1659 C1657 1.390 . S
C1659 C1660 1.387 . S
C1659 H1662 0.950 . S
C1660 C1659 1.387 . S
C1660 C1663 1.387 . S
H1661 C1657 0.950 . S
H1662 C1659 0.950 . S
C1663 C1654 1.390 . S
C1663 H1656 0.950 . S
C1663 C1660 1.387 . S
C1664 C1665 1.387 . S
C1664 H1668 0.950 . S
C1664 C1673 1.390 . S
C1665 C1664 1.387 . S
C1665 C1667 1.387 . S
H1666 C1673 0.950 . S
C1667 C1665 1.387 . S
C1667 C1669 1.390 . S
C1667 H1671 0.950 . S
H1668 C1664 0.950 . S
C1669 C1667 1.390 . S
C1669 C1670 1.387 . S
C1669 H1672 0.950 . S
C1670 C1669 1.387 . S
C1670 C1673 1.387 . S
H1671 C1667 0.950 . S
H1672 C1669 0.950 . S
C1673 C1664 1.390 . S
C1673 H1666 0.950 . S
C1673 C1670 1.387 . S
C1674 C1675 1.387 . S
C1674 H1678 0.950 . S
C1674 C1683 1.390 . S
C1675 C1674 1.387 . S
C1675 C1677 1.387 . S
H1676 C1683 0.950 . S
C1677 C1675 1.387 . S
C1677 C1679 1.390 . S
C1677 H1681 0.950 . S
H1678 C1674 0.950 . S
C1679 C1677 1.390 . S
C1679 C1680 1.387 . S
C1679 H1682 0.950 . S
C1680 C1679 1.387 . S
C1680 C1683 1.387 . S
H1681 C1677 0.950 . S
H1682 C1679 0.950 . S
C1683 C1674 1.390 . S
C1683 H1676 0.950 . S
C1683 C1680 1.387 . S
C1684 C1685 1.387 . S
C1684 H1688 0.950 . S
C1684 C1693 1.390 . S
C1685 C1684 1.387 . S
C1685 C1687 1.387 . S
H1686 C1693 0.950 . S
C1687 C1685 1.387 . S
C1687 C1689 1.390 . S
C1687 H1691 0.950 . S
H1688 C1684 0.950 . S
C1689 C1687 1.390 . S
C1689 C1690 1.387 . S
C1689 H1692 0.950 . S
C1690 C1689 1.387 . S
C1690 C1693 1.387 . S
H1691 C1687 0.950 . S
H1692 C1689 0.950 . S
C1693 C1684 1.390 . S
C1693 H1686 0.950 . S
C1693 C1690 1.387 . S
C1694 C1695 1.387 . S
C1694 H1698 0.950 . S
C1694 C1703 1.390 . S
C1695 C1694 1.387 . S
C1695 C1697 1.387 . S
H1696 C1703 0.950 . S
C1697 C1695 1.387 . S
C1697 C1699 1.390 . S
C1697 H1701 0.950 . S
H1698 C1694 0.950 . S
C1699 C1697 1.390 . S
C1699 C1700 1.387 . S
C1699 H1702 0.950 . S
C1700 C1699 1.387 . S
C1700 C1703 1.387 . S
H1701 C1697 0.950 . S
H1702 C1699 0.950 . S
C1703 C1694 1.390 . S
C1703 H1696 0.950 . S
C1703 C1700 1.387 . S
C1704 C1705 1.387 . S
C1704 H1708 0.950 . S
C1704 C1713 1.390 . S
C1705 C1704 1.387 . S
C1705 C1707 1.387 . S
H1706 C1713 0.950 . S
C1707 C1705 1.387 . S
C1707 C1709 1.390 . S
C1707 H1711 0.950 . S
H1708 C1704 0.950 . S
C1709 C1707 1.390 . S
C1709 C1710 1.387 . S
C1709 H1712 0.950 . S
C1710 C1709 1.387 . S
C1710 C1713 1.387 . S
H1711 C1707 0.950 . S
H1712 C1709 0.950 . S
C1713 C1704 1.390 . S
C1713 H1706 0.950 . S
C1713 C1710 1.387 . S
C1714 C1715 1.387 . S
C1714 H1718 0.950 . S
C1714 C1723 1.390 . S
C1715 C1714 1.387 . S
C1715 C1717 1.387 . S
H1716 C1723 0.950 . S
C1717 C1715 1.387 . S
C1717 C1719 1.390 . S
C1717 H1721 0.950 . S
H1718 C1714 0.950 . S
C1719 C1717 1.390 . S
C1719 C1720 1.387 . S
C1719 H1722 0.950 . S
C1720 C1719 1.387 . S
C1720 C1723 1.387 . S
H1721 C1717 0.950 . S
H1722 C1719 0.950 . S
C1723 C1714 1.390 . S
C1723 H1716 0.950 . S
C1723 C1720 1.387 . S
C1724 C1725 1.387 . S
C1724 H1728 0.950 . S
C1724 C1733 1.390 . S
C1725 C1724 1.387 . S
C1725 C1727 1.387 . S
H1726 C1733 0.950 . S
C1727 C1725 1.387 . S
C1727 C1729 1.390 . S
C1727 H1731 0.950 . S
H1728 C1724 0.950 . S
C1729 C1727 1.390 . S
C1729 C1730 1.387 . S
C1729 H1732 0.950 . S
C1730 C1729 1.387 . S
C1730 C1733 1.387 . S
H1731 C1727 0.950 . S
H1732 C1729 0.950 . S
C1733 C1724 1.390 . S
C1733 H1726 0.950 . S
C1733 C1730 1.387 . S
C1734 C1735 1.387 . S
C1734 H1738 0.950 . S
C1734 C1743 1.390 . S
C1735 C1734 1.387 . S
C1735 C1737 1.387 . S
H1736 C1743 0.950 . S
C1737 C1735 1.387 . S
C1737 C1739 1.390 . S
C1737 H1741 0.950 . S
H1738 C1734 0.950 . S
C1739 C1737 1.390 . S
C1739 C1740 1.387 . S
C1739 H1742 0.950 . S
C1740 C1739 1.387 . S
C1740 C1743 1.387 . S
H1741 C1737 0.950 . S
H1742 C1739 0.950 . S
C1743 C1734 1.390 . S
C1743 H1736 0.950 . S
C1743 C1740 1.387 . S
C1744 C1745 1.387 . S
C1744 H1748 0.950 . S
C1744 C1753 1.390 . S
C1745 C1744 1.387 . S
C1745 C1747 1.387 . S
H1746 C1753 0.950 . S
C1747 C1745 1.387 . S
C1747 C1749 1.390 . S
C1747 H1751 0.950 . S
H1748 C1744 0.950 . S
C1749 C1747 1.390 . S
C1749 C1750 1.387 . S
C1749 H1752 0.950 . S
C1750 C1749 1.387 . S
C1750 C1753 1.387 . S
H1751 C1747 0.950 . S
H1752 C1749 0.950 . S
C1753 C1744 1.390 . S
C1753 H1746 0.950 . S
C1753 C1750 1.387 . S
C1754 C1755 1.387 . S
C1754 H1758 0.950 . S
C1754 C1763 1.390 . S
C1755 C1754 1.387 . S
C1755 C1757 1.387 . S
H1756 C1763 0.950 . S
C1757 C1755 1.387 . S
C1757 C1759 1.390 . S
C1757 H1761 0.950 . S
H1758 C1754 0.950 . S
C1759 C1757 1.390 . S
C1759 C1760 1.387 . S
C1759 H1762 0.950 . S
C1760 C1759 1.387 . S
C1760 C1763 1.387 . S
H1761 C1757 0.950 . S
H1762 C1759 0.950 . S
C1763 C1754 1.390 . S
C1763 H1756 0.950 . S
C1763 C1760 1.387 . S
C1764 C1765 1.387 . S
C1764 H1768 0.950 . S
C1764 C1773 1.390 . S
C1765 C1764 1.387 . S
C1765 C1767 1.387 . S
H1766 C1773 0.950 . S
C1767 C1765 1.387 . S
C1767 C1769 1.390 . S
C1767 H1771 0.950 . S
H1768 C1764 0.950 . S
C1769 C1767 1.390 . S
C1769 C1770 1.387 . S
C1769 H1772 0.950 . S
C1770 C1769 1.387 . S
C1770 C1773 1.387 . S
H1771 C1767 0.950 . S
H1772 C1769 0.950 . S
C1773 C1764 1.390 . S
C1773 H1766 0.950 . S
C1773 C1770 1.387 . S
C1774 C1775 1.387 . S
C1774 H1778 0.950 . S
C1774 C1783 1.390 . S
C1775 C1774 1.387 . S
C1775 C1777 1.387 . S
H1776 C1783 0.950 . S
C1777 C1775 1.387 . S
C1777 C1779 1.390 . S
C1777 H1781 0.950 . S
H1778 C1774 0.950 . S
C1779 C1777 1.390 . S
C1779 C1780 1.387 . S
C1779 H1782 0.950 . S
C1780 C1779 1.387 . S
C1780 C1783 1.387 . S
H1781 C1777 0.950 . S
H1782 C1779 0.950 . S
C1783 C1774 1.390 . S
C1783 H1776 0.950 . S
C1783 C1780 1.387 . S
C1784 C1785 1.387 . S
C1784 H1788 0.950 . S
C1784 C1793 1.390 . S
C1785 C1784 1.387 . S
C1785 C1787 1.387 . S
H1786 C1793 0.950 . S
C1787 C1785 1.387 . S
C1787 C1789 1.390 . S
C1787 H1791 0.950 . S
H1788 C1784 0.950 . S
C1789 C1787 1.390 . S
C1789 C1790 1.387 . S
C1789 H1792 0.950 . S
C1790 C1789 1.387 . S
C1790 C1793 1.387 . S
H1791 C1787 0.950 . S
H1792 C1789 0.950 . S
C1793 C1784 1.390 . S
C1793 H1786 0.950 . S
C1793 C1790 1.387 . S
C1794 C1795 1.387 . S
C1794 H1798 0.950 . S
C1794 C1803 1.390 . S
C1795 C1794 1.387 . S
C1795 C1797 1.387 . S
H1796 C1803 0.950 . S
C1797 C1795 1.387 . S
C1797 C1799 1.390 . S
C1797 H1801 0.950 . S
H1798 C1794 0.950 . S
C1799 C1797 1.390 . S
C1799 C1800 1.387 . S
C1799 H1802 0.950 . S
C1800 C1799 1.387 . S
C1800 C1803 1.387 . S
H1801 C1797 0.950 . S
H1802 C1799 0.950 . S
C1803 C1794 1.390 . S
C1803 H1796 0.950 . S
C1803 C1800 1.387 . S
C1804 C1805 1.387 . S
C1804 H1808 0.950 . S
C1804 C1813 1.390 . S
C1805 C1804 1.387 . S
C1805 C1807 1.387 . S
H1806 C1813 0.950 . S
C1807 C1805 1.387 . S
C1807 C1809 1.390 . S
C1807 H1811 0.950 . S
H1808 C1804 0.950 . S
C1809 C1807 1.390 . S
C1809 C1810 1.387 . S
C1809 H1812 0.950 . S
C1810 C1809 1.387 . S
C1810 C1813 1.387 . S
H1811 C1807 0.950 . S
H1812 C1809 0.950 . S
C1813 C1804 1.390 . S
C1813 H1806 0.950 . S
C1813 C1810 1.387 . S
C1814 C1815 1.387 . S
C1814 H1818 0.950 . S
C1814 C1823 1.390 . S
C1815 C1814 1.387 . S
C1815 C1817 1.387 . S
H1816 C1823 0.950 . S
C1817 C1815 1.387 . S
C1817 C1819 1.390 . S
C1817 H1821 0.950 . S
H1818 C1814 0.950 . S
C1819 C1817 1.390 . S
C1819 C1820 1.387 . S
C1819 H1822 0.950 . S
C1820 C1819 1.387 . S
C1820 C1823 1.387 . S
H1821 C1817 0.950 . S
H1822 C1819 0.950 . S
C1823 C1814 1.390 . S
C1823 H1816 0.950 . S
C1823 C1820 1.387 . S
C1824 C1825 1.387 . S
C1824 H1828 0.950 . S
C1824 C1833 1.390 . S
C1825 C1824 1.387 . S
C1825 C1827 1.387 . S
H1826 C1833 0.950 . S
C1827 C1825 1.387 . S
C1827 C1829 1.390 . S
C1827 H1831 0.950 . S
H1828 C1824 0.950 . S
C1829 C1827 1.390 . S
C1829 C1830 1.387 . S
C1829 H1832 0.950 . S
C1830 C1829 1.387 . S
C1830 C1833 1.387 . S
H1831 C1827 0.950 . S
H1832 C1829 0.950 . S
C1833 C1824 1.390 . S
C1833 H1826 0.950 . S
C1833 C1830 1.387 . S
C1834 C1835 1.387 . S
C1834 H1838 0.950 . S
C1834 C1843 1.390 . S
C1835 C1834 1.387 . S
C1835 C1837 1.387 . S
H1836 C1843 0.950 . S
C1837 C1835 1.387 . S
C1837 C1839 1.390 . S
C1837 H1841 0.950 . S
H1838 C1834 0.950 . S
C1839 C1837 1.390 . S
C1839 C1840 1.387 . S
C1839 H1842 0.950 . S
C1840 C1839 1.387 . S
C1840 C1843 1.387 . S
H1841 C1837 0.950 . S
H1842 C1839 0.950 . S
C1843 C1834 1.390 . S
C1843 H1836 0.950 . S
C1843 C1840 1.387 . S
C1844 C1845 1.387 . S
C1844 H1848 0.950 . S
C1844 C1853 1.390 . S
C1845 C1844 1.387 . S
C1845 C1847 1.387 . S
H1846 C1853 0.950 . S
C1847 C1845 1.387 . S
C1847 C1849 1.390 . S
C1847 H1851 0.950 . S
H1848 C1844 0.950 . S
C1849 C1847 1.390 . S
C1849 C1850 1.387 . S
C1849 H1852 0.950 . S
C1850 C1849 1.387 . S
C1850 C1853 1.387 . S
H1851 C1847 0.950 . S
H1852 C1849 0.950 . S
C1853 C1844 1.390 . S
C1853 H1846 0.950 . S
C1853 C1850 1.387 . S
C1854 C1855 1.387 . S
C1854 H1858 0.950 . S
C1854 C1863 1.390 . S
C1855 C1854 1.387 . S
C1855 C1857 1.387 . S
H1856 C1863 0.950 . S
C1857 C1855 1.387 . S
C1857 C1859 1.390 . S
C1857 H1861 0.950 . S
H1858 C1854 0.950 . S
C1859 C1857 1.390 . S
C1859 C1860 1.387 . S
C1859 H1862 0.950 . S
C1860 C1859 1.387 . S
C1860 C1863 1.387 . S
H1861 C1857 0.950 . S
H1862 C1859 0.950 . S
C1863 C1854 1.390 . S
C1863 H1856 0.950 . S
C1863 C1860 1.387 . S
C1864 C1865 1.387 . S
C1864 H1868 0.950 . S
C1864 C1873 1.390 . S
C1865 C1864 1.387 . S
C1865 C1867 1.387 . S
H1866 C1873 0.950 . S
C1867 C1865 1.387 . S
C1867 C1869 1.390 . S
C1867 H1871 0.950 . S
H1868 C1864 0.950 . S
C1869 C1867 1.390 . S
C1869 C1870 1.387 . S
C1869 H1872 0.950 . S
C1870 C1869 1.387 . S
C1870 C1873 1.387 . S
H1871 C1867 0.950 . S
H1872 C1869 0.950 . S
C1873 C1864 1.390 . S
C1873 H1866 0.950 . S
C1873 C1870 1.387 . S
C1874 C1875 1.387 . S
C1874 H1878 0.950 . S
C1874 C1883 1.390 . S
C1875 C1874 1.387 . S
C1875 C1877 1.387 . S
H1876 C1883 0.950 . S
C1877 C1875 1.387 . S
C1877 C1879 1.390 . S
C1877 H1881 0.950 . S
H1878 C1874 0.950 . S
C1879 C1877 1.390 . S
C1879 C1880 1.387 . S
C1879 H1882 0.950 . S
C1880 C1879 1.387 . S
C1880 C1883 1.387 . S
H1881 C1877 0.950 . S
H1882 C1879 0.950 . S
C1883 C1874 1.390 . S
C1883 H1876 0.950 . S
C1883 C1880 1.387 . S
C1884 C1885 1.387 . S
C1884 H1888 0.950 . S
C1884 C1893 1.390 . S
C1885 C1884 1.387 . S
C1885 C1887 1.387 . S
H1886 C1893 0.950 . S
C1887 C1885 1.387 . S
C1887 C1889 1.390 . S
C1887 H1891 0.950 . S
H1888 C1884 0.950 . S
C1889 C1887 1.390 . S
C1889 C1890 1.387 . S
C1889 H1892 0.950 . S
C1890 C1889 1.387 . S
C1890 C1893 1.387 . S
H1891 C1887 0.950 . S
H1892 C1889 0.950 . S
C1893 C1884 1.390 . S
C1893 H1886 0.950 . S
C1893 C1890 1.387 . S
C1894 C1895 1.387 . S
C1894 H1898 0.950 . S
C1894 C1903 1.390 . S
C1895 C1894 1.387 . S
C1895 C1897 1.387 . S
H1896 C1903 0.950 . S
C1897 C1895 1.387 . S
C1897 C1899 1.390 . S
C1897 H1901 0.950 . S
H1898 C1894 0.950 . S
C1899 C1897 1.390 . S
C1899 C1900 1.387 . S
C1899 H1902 0.950 . S
C1900 C1899 1.387 . S
C1900 C1903 1.387 . S
H1901 C1897 0.950 . S
H1902 C1899 0.950 . S
C1903 C1894 1.390 . S
C1903 H1896 0.950 . S
C1903 C1900 1.387 . S
C1904 C1905 1.387 . S
C1904 H1908 0.950 . S
C1904 C1913 1.390 . S
C1905 C1904 1.387 . S
C1905 C1907 1.387 . S
H1906 C1913 0.950 . S
C1907 C1905 1.387 . S
C1907 C1909 1.390 . S
C1907 H1911 0.950 . S
H1908 C1904 0.950 . S
C1909 C1907 1.390 . S
C1909 C1910 1.387 . S
C1909 H1912 0.950 . S
C1910 C1909 1.387 . S
C1910 C1913 1.387 . S
H1911 C1907 0.950 . S
H1912 C1909 0.950 . S
C1913 C1904 1.390 . S
C1913 H1906 0.950 . S
C1913 C1910 1.387 . S
C1914 C1915 1.387 . S
C1914 H1918 0.950 . S
C1914 C1923 1.390 . S
C1915 C1914 1.387 . S
C1915 C1917 1.387 . S
H1916 C1923 0.950 . S
C1917 C1915 1.387 . S
C1917 C1919 1.390 . S
C1917 H1921 0.950 . S
H1918 C1914 0.950 . S
C1919 C1917 1.390 . S
C1919 C1920 1.387 . S
C1919 H1922 0.950 . S
C1920 C1919 1.387 . S
C1920 C1923 1.387 . S
H1921 C1917 0.950 . S
H1922 C1919 0.950 . S
C1923 C1914 1.390 . S
C1923 H1916 0.950 . S
C1923 C1920 1.387 . S
C1924 C1925 1.387 . S
C1924 H1928 0.950 . S
C1924 C1933 1.390 . S
C1925 C1924 1.387 . S
C1925 C1927 1.387 . S
H1926 C1933 0.950 . S
C1927 C1925 1.387 . S
C1927 C1929 1.390 . S
C1927 H1931 0.950 . S
H1928 C1924 0.950 . S
C1929 C1927 1.390 . S
C1929 C1930 1.387 . S
C1929 H1932 0.950 . S
C1930 C1929 1.387 . S
C1930 C1933 1.387 . S
H1931 C1927 0.950 . S
H1932 C1929 0.950 . S
C1933 C1924 1.390 . S
C1933 H1926 0.950 . S
C1933 C1930 1.387 . S
C1934 C1935 1.387 . S
C1934 H1938 0.950 . S
C1934 C1943 1.390 . S
C1935 C1934 1.387 . S
C1935 C1937 1.387 . S
H1936 C1943 0.950 . S
C1937 C1935 1.387 . S
C1937 C1939 1.390 . S
C1937 H1941 0.950 . S
H1938 C1934 0.950 . S
C1939 C1937 1.390 . S
C1939 C1940 1.387 . S
C1939 H1942 0.950 . S
C1940 C1939 1.387 . S
C1940 C1943 1.387 . S
H1941 C1937 0.950 . S
H1942 C1939 0.950 . S
C1943 C1934 1.390 . S
C1943 H1936 0.950 . S
C1943 C1940 1.387 . S
C1944 C1945 1.387 . S
C1944 H1948 0.950 . S
C1944 C1953 1.390 . S
C1945 C1944 1.387 . S
C1945 C1947 1.387 . S
H1946 C1953 0.950 . S
C1947 C1945 1.387 . S
C1947 C1949 1.390 . S
C1947 H1951 0.950 . S
H1948 C1944 0.950 . S
C1949 C1947 1.390 . S
C1949 C1950 1.387 . S
C1949 H1952 0.950 . S
C1950 C1949 1.387 . S
C1950 C1953 1.387 . S
H1951 C1947 0.950 . S
H1952 C1949 0.950 . S
C1953 C1944 1.390 . S
C1953 H1946 0.950 . S
C1953 C1950 1.387 . S
C1954 C1955 1.387 . S
C1954 H1958 0.950 . S
C1954 C1963 1.390 . S
C1955 C1954 1.387 . S
C1955 C1957 1.387 . S
H1956 C1963 0.950 . S
C1957 C1955 1.387 . S
C1957 C1959 1.390 . S
C1957 H1961 0.950 . S
H1958 C1954 0.950 . S
C1959 C1957 1.390 . S
C1959 C1960 1.387 . S
C1959 H1962 0.950 . S
C1960 C1959 1.387 . S
C1960 C1963 1.387 . S
H1961 C1957 0.950 . S
H1962 C1959 0.950 . S
C1963 C1954 1.390 . S
C1963 H1956 0.950 . S
C1963 C1960 1.387 . S
C1964 C1965 1.387 . S
C1964 H1968 0.950 . S
C1964 C1973 1.390 . S
C1965 C1964 1.387 . S
C1965 C1967 1.387 . S
H1966 C1973 0.950 . S
C1967 C1965 1.387 . S
C1967 C1969 1.390 . S
C1967 H1971 0.950 . S
H1968 C1964 0.950 . S
C1969 C1967 1.390 . S
C1969 C1970 1.387 . S
C1969 H1972 0.950 . S
C1970 C1969 1.387 . S
C1970 C1973 1.387 . S
H1971 C1967 0.950 . S
H1972 C1969 0.950 . S
C1973 C1964 1.390 . S
C1973 H1966 0.950 . S
C1973 C1970 1.387 . S
C1974 C1975 1.387 . S
C1974 H1978 0.950 . S
C1974 C1983 1.390 . S
C1975 C1974 1.387 . S
C1975 C1977 1.387 . S
H1976 C1983 0.950 . S
C1977 C1975 1.387 . S
C1977 C1979 1.390 . S
C1977 H1981 0.950 . S
H1978 C1974 0.950 . S
C1979 C1977 1.390 . S
C1979 C1980 1.387 . S
C1979 H1982 0.950 . S
C1980 C1979 1.387 . S
C1980 C1983 1.387 . S
H1981 C1977 0.950 . S
H1982 C1979 0.950 . S
C1983 C1974 1.390 . S
C1983 H1976 0.950 . S
C1983 C1980 1.387 . S
C1984 C1985 1.387 . S
C1984 H1988 0.950 . S
C1984 C1993 1.390 . S
C1985 C1984 1.387 . S
C1985 C1987 1.387 . S
H1986 C1993 0.950 . S
C1987 C1985 1.387 . S
C1987 C1989 1.390 . S
C1987 H1991 0.950 . S
H1988 C1984 0.950 . S
C1989 C1987 1.390 . S
C1989 C1990 1.387 . S
C1989 H1992 0.950 . S
C1990 C1989 1.387 . S
C1990 C1993 1.387 . S
H1991 C1987 0.950 . S
H1992 C1989 0.950 . S
C1993 C1984 1.390 . S
C1993 H1986 0.950 . S
C1993 C1990 1.387 . S
C1994 C1995 1.387 . S
C1994 H1998 0.950 . S
C1994 C2003 1.390 . S
C1995 C1994 1.387 . S
C1995 C1997 1.387 . S
H1996 C2003 0.950 . S
C1997 C1995 1.387 . S
C1997 C1999 1.390 . S
C1997 H2001 0.950 . S
H1998 C1994 0.950 . S
C1999 C1997 1.390 . S
C1999 C2000 1.387 . S
C1999 H2002 0.950 . S
C2000 C1999 1.387 . S
C2000 C2003 1.387 . S
H2001 C1997 0.950 . S
H2002 C1999 0.950 . S
C2003 C1994 1.390 . S
C2003 H1996 0.950 . S
C2003 C2000 1.387 . S
C2004 C2005 1.387 . S
C2004 H2008 0.950 . S
C2004 C2013 1.390 . S
C2005 C2004 1.387 . S
C2005 C2007 1.387 . S
H2006 C2013 0.950 . S
C2007 C2005 1.387 . S
C2007 C2009 1.390 . S
C2007 H2011 0.950 . S
H2008 C2004 0.950 . S
C2009 C2007 1.390 . S
C2009 C2010 1.387 . S
C2009 H2012 0.950 . S
C2010 C2009 1.387 . S
C2010 C2013 1.387 . S
H2011 C2007 0.950 . S
H2012 C2009 0.950 . S
C2013 C2004 1.390 . S
C2013 H2006 0.950 . S
C2013 C2010 1.387 . S
C2014 C2015 1.387 . S
C2014 H2018 0.950 . S
C2014 C2023 1.390 . S
C2015 C2014 1.387 . S
C2015 C2017 1.387 . S
H2016 C2023 0.950 . S
C2017 C2015 1.387 . S
C2017 C2019 1.390 . S
C2017 H2021 0.950 . S
H2018 C2014 0.950 . S
C2019 C2017 1.390 . S
C2019 C2020 1.387 . S
C2019 H2022 0.950 . S
C2020 C2019 1.387 . S
C2020 C2023 1.387 . S
H2021 C2017 0.950 . S
H2022 C2019 0.950 . S
C2023 C2014 1.390 . S
C2023 H2016 0.950 . S
C2023 C2020 1.387 . S
C2024 C2025 1.387 . S
C2024 H2028 0.950 . S
C2024 C2033 1.390 . S
C2025 C2024 1.387 . S
C2025 C2027 1.387 . S
H2026 C2033 0.950 . S
C2027 C2025 1.387 . S
C2027 C2029 1.390 . S
C2027 H2031 0.950 . S
H2028 C2024 0.950 . S
C2029 C2027 1.390 . S
C2029 C2030 1.387 . S
C2029 H2032 0.950 . S
C2030 C2029 1.387 . S
C2030 C2033 1.387 . S
H2031 C2027 0.950 . S
H2032 C2029 0.950 . S
C2033 C2024 1.390 . S
C2033 H2026 0.950 . S
C2033 C2030 1.387 . S
C2034 C2035 1.387 . S
C2034 H2038 0.950 . S
C2034 C2043 1.390 . S
C2035 C2034 1.387 . S
C2035 C2037 1.387 . S
H2036 C2043 0.950 . S
C2037 C2035 1.387 . S
C2037 C2039 1.390 . S
C2037 H2041 0.950 . S
H2038 C2034 0.950 . S
C2039 C2037 1.390 . S
C2039 C2040 1.387 . S
C2039 H2042 0.950 . S
C2040 C2039 1.387 . S
C2040 C2043 1.387 . S
H2041 C2037 0.950 . S
H2042 C2039 0.950 . S
C2043 C2034 1.390 . S
C2043 H2036 0.950 . S
C2043 C2040 1.387 . S
C2044 C2045 1.387 . S
C2044 H2048 0.950 . S
C2044 C2053 1.390 . S
C2045 C2044 1.387 . S
C2045 C2047 1.387 . S
H2046 C2053 0.950 . S
C2047 C2045 1.387 . S
C2047 C2049 1.390 . S
C2047 H2051 0.950 . S
H2048 C2044 0.950 . S
C2049 C2047 1.390 . S
C2049 C2050 1.387 . S
C2049 H2052 0.950 . S
C2050 C2049 1.387 . S
C2050 C2053 1.387 . S
H2051 C2047 0.950 . S
H2052 C2049 0.950 . S
C2053 C2044 1.390 . S
C2053 H2046 0.950 . S
C2053 C2050 1.387 . S
C2054 C2055 1.387 . S
C2054 H2058 0.950 . S
C2054 C2063 1.390 . S
C2055 C2054 1.387 . S
C2055 C2057 1.387 . S
H2056 C2063 0.950 . S
C2057 C2055 1.387 . S
C2057 C2059 1.390 . S
C2057 H2061 0.950 . S
H2058 C2054 0.950 . S
C2059 C2057 1.390 . S
C2059 C2060 1.387 . S
C2059 H2062 0.950 . S
C2060 C2059 1.387 . S
C2060 C2063 1.387 . S
H2061 C2057 0.950 . S
H2062 C2059 0.950 . S
C2063 C2054 1.390 . S
C2063 H2056 0.950 . S
C2063 C2060 1.387 . S
C2064 C2065 1.387 . S
C2064 H2068 0.950 . S
C2064 C2073 1.390 . S
C2065 C2064 1.387 . S
C2065 C2067 1.387 . S
H2066 C2073 0.950 . S
C2067 C2065 1.387 . S
C2067 C2069 1.390 . S
C2067 H2071 0.950 . S
H2068 C2064 0.950 . S
C2069 C2067 1.390 . S
C2069 C2070 1.387 . S
C2069 H2072 0.950 . S
C2070 C2069 1.387 . S
C2070 C2073 1.387 . S
H2071 C2067 0.950 . S
H2072 C2069 0.950 . S
C2073 C2064 1.390 . S
C2073 H2066 0.950 . S
C2073 C2070 1.387 . S
C2074 C2075 1.387 . S
C2074 H2078 0.950 . S
C2074 C2083 1.390 . S
C2075 C2074 1.387 . S
C2075 C2077 1.387 . S
H2076 C2083 0.950 . S
C2077 C2075 1.387 . S
C2077 C2079 1.390 . S
C2077 H2081 0.950 . S
H2078 C2074 0.950 . S
C2079 C2077 1.390 . S
C2079 C2080 1.387 . S
C2079 H2082 0.950 . S
C2080 C2079 1.387 . S
C2080 C2083 1.387 . S
H2081 C2077 0.950 . S
H2082 C2079 0.950 . S
C2083 C2074 1.390 . S
C2083 H2076 0.950 . S
C2083 C2080 1.387 . S
C2084 C2085 1.387 . S
C2084 H2088 0.950 . S
C2084 C2093 1.390 . S
C2085 C2084 1.387 . S
C2085 C2087 1.387 . S
H2086 C2093 0.950 . S
C2087 C2085 1.387 . S
C2087 C2089 1.390 . S
C2087 H2091 0.950 . S
H2088 C2084 0.950 . S
C2089 C2087 1.390 . S
C2089 C2090 1.387 . S
C2089 H2092 0.950 . S
C2090 C2089 1.387 . S
C2090 C2093 1.387 . S
H2091 C2087 0.950 . S
H2092 C2089 0.950 . S
C2093 C2084 1.390 . S
C2093 H2086 0.950 . S
C2093 C2090 1.387 . S
C2094 C2095 1.387 . S
C2094 H2098 0.950 . S
C2094 C2103 1.390 . S
C2095 C2094 1.387 . S
C2095 C2097 1.387 . S
H2096 C2103 0.950 . S
C2097 C2095 1.387 . S
C2097 C2099 1.390 . S
C2097 H2101 0.950 . S
H2098 C2094 0.950 . S
C2099 C2097 1.390 . S
C2099 C2100 1.387 . S
C2099 H2102 0.950 . S
C2100 C2099 1.387 . S
C2100 C2103 1.387 . S
H2101 C2097 0.950 . S
H2102 C2099 0.950 . S
C2103 C2094 1.390 . S
C2103 H2096 0.950 . S
C2103 C2100 1.387 . S
C2104 C2105 1.387 . S
C2104 H2108 0.950 . S
C2104 C2113 1.390 . S
C2105 C2104 1.387 . S
C2105 C2107 1.387 . S
H2106 C2113 0.950 . S
C2107 C2105 1.387 . S
C2107 C2109 1.390 . S
C2107 H2111 0.950 . S
H2108 C2104 0.950 . S
C2109 C2107 1.390 . S
C2109 C2110 1.387 . S
C2109 H2112 0.950 . S
C2110 C2109 1.387 . S
C2110 C2113 1.387 . S
H2111 C2107 0.950 . S
H2112 C2109 0.950 . S
C2113 C2104 1.390 . S
C2113 H2106 0.950 . S
C2113 C2110 1.387 . S
C2114 C2115 1.387 . S
C2114 H2118 0.950 . S
C2114 C2123 1.390 . S
C2115 C2114 1.387 . S
C2115 C2117 1.387 . S
H2116 C2123 0.950 . S
C2117 C2115 1.387 . S
C2117 C2119 1.390 . S
C2117 H2121 0.950 . S
H2118 C2114 0.950 . S
C2119 C2117 1.390 . S
C2119 C2120 1.387 . S
C2119 H2122 0.950 . S
C2120 C2119 1.387 . S
C2120 C2123 1.387 . S
H2121 C2117 0.950 . S
H2122 C2119 0.950 . S
C2123 C2114 1.390 . S
C2123 H2116 0.950 . S
C2123 C2120 1.387 . S
C2124 C2125 1.387 . S
C2124 H2128 0.950 . S
C2124 C2133 1.390 . S
C2125 C2124 1.387 . S
C2125 C2127 1.387 . S
H2126 C2133 0.950 . S
C2127 C2125 1.387 . S
C2127 C2129 1.390 . S
C2127 H2131 0.950 . S
H2128 C2124 0.950 . S
C2129 C2127 1.390 . S
C2129 C2130 1.387 . S
C2129 H2132 0.950 . S
C2130 C2129 1.387 . S
C2130 C2133 1.387 . S
H2131 C2127 0.950 . S
H2132 C2129 0.950 . S
C2133 C2124 1.390 . S
C2133 H2126 0.950 . S
C2133 C2130 1.387 . S
C2134 C2135 1.387 . S
C2134 H2138 0.950 . S
C2134 C2143 1.390 . S
C2135 C2134 1.387 . S
C2135 C2137 1.387 . S
H2136 C2143 0.950 . S
C2137 C2135 1.387 . S
C2137 C2139 1.390 . S
C2137 H2141 0.950 . S
H2138 C2134 0.950 . S
C2139 C2137 1.390 . S
C2139 C2140 1.387 . S
C2139 H2142 0.950 . S
C2140 C2139 1.387 . S
C2140 C2143 1.387 . S
H2141 C2137 0.950 . S
H2142 C2139 0.950 . S
C2143 C2134 1.390 . S
C2143 H2136 0.950 . S
C2143 C2140 1.387 . S
C2144 C2145 1.387 . S
C2144 H2148 0.950 . S
C2144 C2153 1.390 . S
C2145 C2144 1.387 . S
C2145 C2147 1.387 . S
H2146 C2153 0.950 . S
C2147 C2145 1.387 . S
C2147 C2149 1.390 . S
C2147 H2151 0.950 . S
H2148 C2144 0.950 . S
C2149 C2147 1.390 . S
C2149 C2150 1.387 . S
C2149 H2152 0.950 . S
C2150 C2149 1.387 . S
C2150 C2153 1.387 . S
H2151 C2147 0.950 . S
H2152 C2149 0.950 . S
C2153 C2144 1.390 . S
C2153 H2146 0.950 . S
C2153 C2150 1.387 . S
C2154 C2155 1.387 . S
C2154 H2158 0.950 . S
C2154 C2163 1.390 . S
C2155 C2154 1.387 . S
C2155 C2157 1.387 . S
H2156 C2163 0.950 . S
C2157 C2155 1.387 . S
C2157 C2159 1.390 . S
C2157 H2161 0.950 . S
H2158 C2154 0.950 . S
C2159 C2157 1.390 . S
C2159 C2160 1.387 . S
C2159 H2162 0.950 . S
C2160 C2159 1.387 . S
C2160 C2163 1.387 . S
H2161 C2157 0.950 . S
H2162 C2159 0.950 . S
C2163 C2154 1.390 . S
C2163 H2156 0.950 . S
C2163 C2160 1.387 . S
C2164 C2165 1.387 . S
C2164 H2168 0.950 . S
C2164 C2173 1.390 . S
C2165 C2164 1.387 . S
C2165 C2167 1.387 . S
H2166 C2173 0.950 . S
C2167 C2165 1.387 . S
C2167 C2169 1.390 . S
C2167 H2171 0.950 . S
H2168 C2164 0.950 . S
C2169 C2167 1.390 . S
C2169 C2170 1.387 . S
C2169 H2172 0.950 . S
C2170 C2169 1.387 . S
C2170 C2173 1.387 . S
H2171 C2167 0.950 . S
H2172 C2169 0.950 . S
C2173 C2164 1.390 . S
C2173 H2166 0.950 . S
C2173 C2170 1.387 . S
C2174 C2175 1.387 . S
C2174 H2178 0.950 . S
C2174 C2183 1.390 . S
C2175 C2174 1.387 . S
C2175 C2177 1.387 . S
H2176 C2183 0.950 . S
C2177 C2175 1.387 . S
C2177 C2179 1.390 . S
C2177 H2181 0.950 . S
H2178 C2174 0.950 . S
C2179 C2177 1.390 . S
C2179 C2180 1.387 . S
C2179 H2182 0.950 . S
C2180 C2179 1.387 . S
C2180 C2183 1.387 . S
H2181 C2177 0.950 . S
H2182 C2179 0.950 . S
C2183 C2174 1.390 . S
C2183 H2176 0.950 . S
C2183 C2180 1.387 . S
C2184 C2185 1.387 . S
C2184 H2188 0.950 . S
C2184 C2193 1.390 . S
C2185 C2184 1.387 . S
C2185 C2187 1.387 . S
H2186 C2193 0.950 . S
C2187 C2185 1.387 . S
C2187 C2189 1.390 . S
C2187 H2191 0.950 . S
H2188 C2184 0.950 . S
C2189 C2187 1.390 . S
C2189 C2190 1.387 . S
C2189 H2192 0.950 . S
C2190 C2189 1.387 . S
C2190 C2193 1.387 . S
H2191 C2187 0.950 . S
H2192 C2189 0.950 . S
C2193 C2184 1.390 . S
C2193 H2186 0.950 . S
C2193 C2190 1.387 . S
C2194 C2195 1.387 . S
C2194 H2198 0.950 . S
C2194 C2203 1.390 . S
C2195 C2194 1.387 . S
C2195 C2197 1.387 . S
H2196 C2203 0.950 . S
C2197 C2195 1.387 . S
C2197 C2199 1.390 . S
C2197 H2201 0.950 . S
H2198 C2194 0.950 . S
C2199 C2197 1.390 . S
C2199 C2200 1.387 . S
C2199 H2202 0.950 . S
C2200 C2199 1.387 . S
C2200 C2203 1.387 . S
H2201 C2197 0.950 . S
H2202 C2199 0.950 . S
C2203 C2194 1.390 . S
C2203 H2196 0.950 . S
C2203 C2200 1.387 . S
C2204 C2205 1.387 . S
C2204 H2208 0.950 . S
C2204 C2213 1.390 . S
C2205 C2204 1.387 . S
C2205 C2207 1.387 . S
H2206 C2213 0.950 . S
C2207 C2205 1.387 . S
C2207 C2209 1.390 . S
C2207 H2211 0.950 . S
H2208 C2204 0.950 . S
C2209 C2207 1.390 . S
C2209 C2210 1.387 . S
C2209 H2212 0.950 . S
C2210 C2209 1.387 . S
C2210 C2213 1.387 . S
H2211 C2207 0.950 . S
H2212 C2209 0.950 . S
C2213 C2204 1.390 . S
C2213 H2206 0.950 . S
C2213 C2210 1.387 . S
C2214 C2215 1.387 . S
C2214 H2218 0.950 . S
C2214 C2223 1.390 . S
C2215 C2214 1.387 . S
C2215 C2217 1.387 . S
H2216 C2223 0.950 . S
C2217 C2215 1.387 . S
C2217 C2219 1.390 . S
C2217 H2221 0.950 . S
H2218 C2214 0.950 . S
C2219 C2217 1.390 . S
C2219 C2220 1.387 . S
C2219 H2222 0.950 . S
C2220 C2219 1.387 . S
C2220 C2223 1.387 . S
H2221 C2217 0.950 . S
H2222 C2219 0.950 . S
C2223 C2214 1.390 . S
C2223 H2216 0.950 . S
C2223 C2220 1.387 . S
C2224 C2225 1.387 . S
C2224 H2228 0.950 . S
C2224 C2233 1.390 . S
C2225 C2224 1.387 . S
C2225 C2227 1.387 . S
H2226 C2233 0.950 . S
C2227 C2225 1.387 . S
C2227 C2229 1.390 . S
C2227 H2231 0.950 . S
H2228 C2224 0.950 . S
C2229 C2227 1.390 . S
C2229 C2230 1.387 . S
C2229 H2232 0.950 . S
C2230 C2229 1.387 . S
C2230 C2233 1.387 . S
H2231 C2227 0.950 . S
H2232 C2229 0.950 . S
C2233 C2224 1.390 . S
C2233 H2226 0.950 . S
C2233 C2230 1.387 . S
C2234 C2235 1.387 . S
C2234 H2238 0.950 . S
C2234 C2243 1.390 . S
C2235 C2234 1.387 . S
C2235 C2237 1.387 . S
H2236 C2243 0.950 . S
C2237 C2235 1.387 . S
C2237 C2239 1.390 . S
C2237 H2241 0.950 . S
H2238 C2234 0.950 . S
C2239 C2237 1.390 . S
C2239 C2240 1.387 . S
C2239 H2242 0.950 . S
C2240 C2239 1.387 . S
C2240 C2243 1.387 . S
H2241 C2237 0.950 . S
H2242 C2239 0.950 . S
C2243 C2234 1.390 . S
C2243 H2236 0.950 . S
C2243 C2240 1.387 . S
C2244 C2245 1.387 . S
C2244 H2248 0.950 . S
C2244 C2253 1.390 . S
C2245 C2244 1.387 . S
C2245 C2247 1.387 . S
H2246 C2253 0.950 . S
C2247 C2245 1.387 . S
C2247 C2249 1.390 . S
C2247 H2251 0.950 . S
H2248 C2244 0.950 . S
C2249 C2247 1.390 . S
C2249 C2250 1.387 . S
C2249 H2252 0.950 . S
C2250 C2249 1.387 . S
C2250 C2253 1.387 . S
H2251 C2247 0.950 . S
H2252 C2249 0.950 . S
C2253 C2244 1.390 . S
C2253 H2246 0.950 . S
C2253 C2250 1.387 . S
C2254 C2255 1.387 . S
C2254 H2258 0.950 . S
C2254 C2263 1.390 . S
C2255 C2254 1.387 . S
C2255 C2257 1.387 . S
H2256 C2263 0.950 . S
C2257 C2255 1.387 . S
C2257 C2259 1.390 . S
C2257 H2261 0.950 . S
H2258 C2254 0.950 . S
C2259 C2257 1.390 . S
C2259 C2260 1.387 . S
C2259 H2262 0.950 . S
C2260 C2259 1.387 . S
C2260 C2263 1.387 . S
H2261 C2257 0.950 . S
H2262 C2259 0.950 . S
C2263 C2254 1.390 . S
C2263 H2256 0.950 . S
C2263 C2260 1.387 . S
C2264 C2265 1.387 . S
C2264 H2268 0.950 . S
C2264 C2273 1.390 . S
C2265 C2264 1.387 . S
C2265 C2267 1.387 . S
H2266 C2273 0.950 . S
C2267 C2265 1.387 . S
C2267 C2269 1.390 . S
C2267 H2271 0.950 . S
H2268 C2264 0.950 . S
C2269 C2267 1.390 . S
C2269 C2270 1.387 . S
C2269 H2272 0.950 . S
C2270 C2269 1.387 . S
C2270 C2273 1.387 . S
H2271 C2267 0.950 . S
H2272 C2269 0.950 . S
C2273 C2264 1.390 . S
C2273 H2266 0.950 . S
C2273 C2270 1.387 . S
C2274 C2275 1.387 . S
C2274 H2278 0.950 . S
C2274 C2283 1.390 . S
C2275 C2274 1.387 . S
C2275 C2277 1.387 . S
H2276 C2283 0.950 . S
C2277 C2275 1.387 . S
C2277 C2279 1.390 . S
C2277 H2281 0.950 . S
H2278 C2274 0.950 . S
C2279 C2277 1.390 . S
C2279 C2280 1.387 . S
C2279 H2282 0.950 . S
C2280 C2279 1.387 . S
C2280 C2283 1.387 . S
H2281 C2277 0.950 . S
H2282 C2279 0.950 . S
C2283 C2274 1.390 . S
C2283 H2276 0.950 . S
C2283 C2280 1.387 . S
C2284 C2285 1.387 . S
C2284 H2288 0.950 . S
C2284 C2293 1.390 . S
C2285 C2284 1.387 . S
C2285 C2287 1.387 . S
H2286 C2293 0.950 . S
C2287 C2285 1.387 . S
C2287 C2289 1.390 . S
C2287 H2291 0.950 . S
H2288 C2284 0.950 . S
C2289 C2287 1.390 . S
C2289 C2290 1.387 . S
C2289 H2292 0.950 . S
C2290 C2289 1.387 . S
C2290 C2293 1.387 . S
H2291 C2287 0.950 . S
H2292 C2289 0.950 . S
C2293 C2284 1.390 . S
C2293 H2286 0.950 . S
C2293 C2290 1.387 . S
C2294 C2295 1.387 . S
C2294 H2298 0.950 . S
C2294 C2303 1.390 . S
C2295 C2294 1.387 . S
C2295 C2297 1.387 . S
H2296 C2303 0.950 . S
C2297 C2295 1.387 . S
C2297 C2299 1.390 . S
C2297 H2301 0.950 . S
H2298 C2294 0.950 . S
C2299 C2297 1.390 . S
C2299 C2300 1.387 . S
C2299 H2302 0.950 . S
C2300 C2299 1.387 . S
C2300 C2303 1.387 . S
H2301 C2297 0.950 . S
H2302 C2299 0.950 . S
C2303 C2294 1.390 . S
C2303 H2296 0.950 . S
C2303 C2300 1.387 . S
C2304 C2305 1.387 . S
C2304 H2308 0.950 . S
C2304 C2313 1.390 . S
C2305 C2304 1.387 . S
C2305 C2307 1.387 . S
H2306 C2313 0.950 . S
C2307 C2305 1.387 . S
C2307 C2309 1.390 . S
C2307 H2311 0.950 . S
H2308 C2304 0.950 . S
C2309 C2307 1.390 . S
C2309 C2310 1.387 . S
C2309 H2312 0.950 . S
C2310 C2309 1.387 . S
C2310 C2313 1.387 . S
H2311 C2307 0.950 . S
H2312 C2309 0.950 . S
C2313 C2304 1.390 . S
C2313 H2306 0.950 . S
C2313 C2310 1.387 . S
C2314 C2315 1.387 . S
C2314 H2318 0.950 . S
C2314 C2323 1.390 . S
C2315 C2314 1.387 . S
C2315 C2317 1.387 . S
H2316 C2323 0.950 . S
C2317 C2315 1.387 . S
C2317 C2319 1.390 . S
C2317 H2321 0.950 . S
H2318 C2314 0.950 . S
C2319 C2317 1.390 . S
C2319 C2320 1.387 . S
C2319 H2322 0.950 . S
C2320 C2319 1.387 . S
C2320 C2323 1.387 . S
H2321 C2317 0.950 . S
H2322 C2319 0.950 . S
C2323 C2314 1.390 . S
C2323 H2316 0.950 . S
C2323 C2320 1.387 . S
C2324 C2325 1.387 . S
C2324 H2328 0.950 . S
C2324 C2333 1.390 . S
C2325 C2324 1.387 . S
C2325 C2327 1.387 . S
H2326 C2333 0.950 . S
C2327 C2325 1.387 . S
C2327 C2329 1.390 . S
C2327 H2331 0.950 . S
H2328 C2324 0.950 . S
C2329 C2327 1.390 . S
C2329 C2330 1.387 . S
C2329 H2332 0.950 . S
C2330 C2329 1.387 . S
C2330 C2333 1.387 . S
H2331 C2327 0.950 . S
H2332 C2329 0.950 . S
C2333 C2324 1.390 . S
C2333 H2326 0.950 . S
C2333 C2330 1.387 . S
C2334 C2335 1.387 . S
C2334 H2338 0.950 . S
C2334 C2343 1.390 . S
C2335 C2334 1.387 . S
C2335 C2337 1.387 . S
H2336 C2343 0.950 . S
C2337 C2335 1.387 . S
C2337 C2339 1.390 . S
C2337 H2341 0.950 . S
H2338 C2334 0.950 . S
C2339 C2337 1.390 . S
C2339 C2340 1.387 . S
C2339 H2342 0.950 . S
C2340 C2339 1.387 . S
C2340 C2343 1.387 . S
H2341 C2337 0.950 . S
H2342 C2339 0.950 . S
C2343 C2334 1.390 . S
C2343 H2336 0.950 . S
C2343 C2340 1.387 . S
C2344 C2345 1.387 . S
C2344 H2348 0.950 . S
C2344 C2353 1.390 . S
C2345 C2344 1.387 . S
C2345 C2347 1.387 . S
H2346 C2353 0.950 . S
C2347 C2345 1.387 . S
C2347 C2349 1.390 . S
C2347 H2351 0.950 . S
H2348 C2344 0.950 . S
C2349 C2347 1.390 . S
C2349 C2350 1.387 . S
C2349 H2352 0.950 . S
C2350 C2349 1.387 . S
C2350 C2353 1.387 . S
H2351 C2347 0.950 . S
H2352 C2349 0.950 . S
C2353 C2344 1.390 . S
C2353 H2346 0.950 . S
C2353 C2350 1.387 . S
C2354 C2355 1.387 . S
C2354 H2358 0.950 . S
C2354 C2363 1.390 . S
C2355 C2354 1.387 . S
C2355 C2357 1.387 . S
H2356 C2363 0.950 . S
C2357 C2355 1.387 . S
C2357 C2359 1.390 . S
C2357 H2361 0.950 . S
H2358 C2354 0.950 . S
C2359 C2357 1.390 . S
C2359 C2360 1.387 . S
C2359 H2362 0.950 . S
C2360 C2359 1.387 . S
C2360 C2363 1.387 . S
H2361 C2357 0.950 . S
H2362 C2359 0.950 . S
C2363 C2354 1.390 . S
C2363 H2356 0.950 . S
C2363 C2360 1.387 . S
C2364 C2365 1.387 . S
C2364 H2368 0.950 . S
C2364 C2373 1.390 . S
C2365 C2364 1.387 . S
C2365 C2367 1.387 . S
H2366 C2373 0.950 . S
C2367 C2365 1.387 . S
C2367 C2369 1.390 . S
C2367 H2371 0.950 . S
H2368 C2364 0.950 . S
C2369 C2367 1.390 . S
C2369 C2370 1.387 . S
C2369 H2372 0.950 . S
C2370 C2369 1.387 . S
C2370 C2373 1.387 . S
H2371 C2367 0.950 . S
H2372 C2369 0.950 . S
C2373 C2364 1.390 . S
C2373 H2366 0.950 . S
C2373 C2370 1.387 . S
C2374 C2375 1.387 . S
C2374 H2378 0.950 . S
C2374 C2383 1.390 . S
C2375 C2374 1.387 . S
C2375 C2377 1.387 . S
H2376 C2383 0.950 . S
C2377 C2375 1.387 . S
C2377 C2379 1.390 . S
C2377 H2381 0.950 . S
H2378 C2374 0.950 . S
C2379 C2377 1.390 . S
C2379 C2380 1.387 . S
C2379 H2382 0.950 . S
C2380 C2379 1.387 . S
C2380 C2383 1.387 . S
H2381 C2377 0.950 . S
H2382 C2379 0.950 . S
C2383 C2374 1.390 . S
C2383 H2376 0.950 . S
C2383 C2380 1.387 . S
C2384 C2385 1.387 . S
C2384 H2388 0.950 . S
C2384 C2393 1.390 . S
C2385 C2384 1.387 . S
C2385 C2387 1.387 . S
H2386 C2393 0.950 . S
C2387 C2385 1.387 . S
C2387 C2389 1.390 . S
C2387 H2391 0.950 . S
H2388 C2384 0.950 . S
C2389 C2387 1.390 . S
C2389 C2390 1.387 . S
C2389 H2392 0.950 . S
C2390 C2389 1.387 . S
C2390 C2393 1.387 . S
H2391 C2387 0.950 . S
H2392 C2389 0.950 . S
C2393 C2384 1.390 . S
C2393 H2386 0.950 . S
C2393 C2390 1.387 . S
C2394 C2395 1.387 . S
C2394 H2398 0.950 . S
C2394 C2403 1.390 . S
C2395 C2394 1.387 . S
C2395 C2397 1.387 . S
H2396 C2403 0.950 . S
C2397 C2395 1.387 . S
C2397 C2399 1.390 . S
C2397 H2401 0.950 . S
H2398 C2394 0.950 . S
C2399 C2397 1.390 . S
C2399 C2400 1.387 . S
C2399 H2402 0.950 . S
C2400 C2399 1.387 . S
C2400 C2403 1.387 . S
H2401 C2397 0.950 . S
H2402 C2399 0.950 . S
C2403 C2394 1.390 . S
C2403 H2396 0.950 . S
C2403 C2400 1.387 . S
C2404 C2405 1.387 . S
C2404 H2408 0.950 . S
C2404 C2413 1.390 . S
C2405 C2404 1.387 . S
C2405 C2407 1.387 . S
H2406 C2413 0.950 . S
C2407 C2405 1.387 . S
C2407 C2409 1.390 . S
C2407 H2411 0.950 . S
H2408 C2404 0.950 . S
C2409 C2407 1.390 . S
C2409 C2410 1.387 . S
C2409 H2412 0.950 . S
C2410 C2409 1.387 . S
C2410 C2413 1.387 . S
H2411 C2407 0.950 . S
H2412 C2409 0.950 . S
C2413 C2404 1.390 . S
C2413 H2406 0.950 . S
C2413 C2410 1.387 . S
C2414 C2415 1.387 . S
C2414 H2418 0.950 . S
C2414 C2423 1.390 . S
C2415 C2414 1.387 . S
C2415 C2417 1.387 . S
H2416 C2423 0.950 . S
C2417 C2415 1.387 . S
C2417 C2419 1.390 . S
C2417 H2421 0.950 . S
H2418 C2414 0.950 . S
C2419 C2417 1.390 . S
C2419 C2420 1.387 . S
C2419 H2422 0.950 . S
C2420 C2419 1.387 . S
C2420 C2423 1.387 . S
H2421 C2417 0.950 . S
H2422 C2419 0.950 . S
C2423 C2414 1.390 . S
C2423 H2416 0.950 . S
C2423 C2420 1.387 . S
C2424 C2425 1.387 . S
C2424 H2428 0.950 . S
C2424 C2433 1.390 . S
C2425 C2424 1.387 . S
C2425 C2427 1.387 . S
H2426 C2433 0.950 . S
C2427 C2425 1.387 . S
C2427 C2429 1.390 . S
C2427 H2431 0.950 . S
H2428 C2424 0.950 . S
C2429 C2427 1.390 . S
C2429 C2430 1.387 . S
C2429 H2432 0.950 . S
C2430 C2429 1.387 . S
C2430 C2433 1.387 . S
H2431 C2427 0.950 . S
H2432 C2429 0.950 . S
C2433 C2424 1.390 . S
C2433 H2426 0.950 . S
C2433 C2430 1.387 . S
C2434 C2435 1.387 . S
C2434 H2438 0.950 . S
C2434 C2443 1.390 . S
C2435 C2434 1.387 . S
C2435 C2437 1.387 . S
H2436 C2443 0.950 . S
C2437 C2435 1.387 . S
C2437 C2439 1.390 . S
C2437 H2441 0.950 . S
H2438 C2434 0.950 . S
C2439 C2437 1.390 . S
C2439 C2440 1.387 . S
C2439 H2442 0.950 . S
C2440 C2439 1.387 . S
C2440 C2443 1.387 . S
H2441 C2437 0.950 . S
H2442 C2439 0.950 . S
C2443 C2434 1.390 . S
C2443 H2436 0.950 . S
C2443 C2440 1.387 . S
C2444 C2445 1.387 . S
C2444 H2448 0.950 . S
C2444 C2453 1.390 . S
C2445 C2444 1.387 . S
C2445 C2447 1.387 . S
H2446 C2453 0.950 . S
C2447 C2445 1.387 . S
C2447 C2449 1.390 . S
C2447 H2451 0.950 . S
H2448 C2444 0.950 . S
C2449 C2447 1.390 . S
C2449 C2450 1.387 . S
C2449 H2452 0.950 . S
C2450 C2449 1.387 . S
C2450 C2453 1.387 . S
H2451 C2447 0.950 . S
H2452 C2449 0.950 . S
C2453 C2444 1.390 . S
C2453 H2446 0.950 . S
C2453 C2450 1.387 . S
C2454 C2455 1.387 . S
C2454 H2458 0.950 . S
C2454 C2463 1.390 . S
C2455 C2454 1.387 . S
C2455 C2457 1.387 . S
H2456 C2463 0.950 . S
C2457 C2455 1.387 . S
C2457 C2459 1.390 . S
C2457 H2461 0.950 . S
H2458 C2454 0.950 . S
C2459 C2457 1.390 . S
C2459 C2460 1.387 . S
C2459 H2462 0.950 . S
C2460 C2459 1.387 . S
C2460 C2463 1.387 . S
H2461 C2457 0.950 . S
H2462 C2459 0.950 . S
C2463 C2454 1.390 . S
C2463 H2456 0.950 . S
C2463 C2460 1.387 . S
C2464 C2465 1.387 . S
C2464 H2468 0.950 . S
C2464 C2473 1.390 . S
C2465 C2464 1.387 . S
C2465 C2467 1.387 . S
H2466 C2473 0.950 . S
C2467 C2465 1.387 . S
C2467 C2469 1.390 . S
C2467 H2471 0.950 . S
H2468 C2464 0.950 . S
C2469 C2467 1.390 . S
C2469 C2470 1.387 . S
C2469 H2472 0.950 . S
C2470 C2469 1.387 . S
C2470 C2473 1.387 . S
H2471 C2467 0.950 . S
H2472 C2469 0.950 . S
C2473 C2464 1.390 . S
C2473 H2466 0.950 . S
C2473 C2470 1.387 . S
C2474 C2475 1.387 . S
C2474 H2478 0.950 . S
C2474 C2483 1.390 . S
C2475 C2474 1.387 . S
C2475 C2477 1.387 . S
H2476 C2483 0.950 . S
C2477 C2475 1.387 . S
C2477 C2479 1.390 . S
C2477 H2481 0.950 . S
H2478 C2474 0.950 . S
C2479 C2477 1.390 . S
C2479 C2480 1.387 . S
C2479 H2482 0.950 . S
C2480 C2479 1.387 . S
C2480 C2483 1.387 . S
H2481 C2477 0.950 . S
H2482 C2479 0.950 . S
C2483 C2474 1.390 . S
C2483 H2476 0.950 . S
C2483 C2480 1.387 . S
C2484 C2485 1.387 . S
C2484 H2488 0.950 . S
C2484 C2493 1.390 . S
C2485 C2484 1.387 . S
C2485 C2487 1.387 . S
H2486 C2493 0.950 . S
C2487 C2485 1.387 . S
C2487 C2489 1.390 . S
C2487 H2491 0.950 . S
H2488 C2484 0.950 . S
C2489 C2487 1.390 . S
C2489 C2490 1.387 . S
C2489 H2492 0.950 . S
C2490 C2489 1.387 . S
C2490 C2493 1.387 . S
H2491 C2487 0.950 . S
H2492 C2489 0.950 . S
C2493 C2484 1.390 . S
C2493 H2486 0.950 . S
C2493 C2490 1.387 . S
C2494 C2495 1.387 . S
C2494 H2498 0.950 . S
C2494 C2503 1.390 . S
C2495 C2494 1.387 . S
C2495 C2497 1.387 . S
H2496 C2503 0.950 . S
C2497 C2495 1.387 . S
C2497 C2499 1.390 . S
C2497 H2501 0.950 . S
H2498 C2494 0.950 . S
C2499 C2497 1.390 . S
C2499 C2500 1.387 . S
C2499 H2502 0.950 . S
C2500 C2499 1.387 . S
C2500 C2503 1.387 . S
H2501 C2497 0.950 . S
H2502 C2499 0.950 . S
C2503 C2494 1.390 . S
C2503 H2496 0.950 . S
C2503 C2500 1.387 . S
C2504 C2505 1.387 . S
C2504 H2508 0.950 . S
C2504 C2513 1.390 . S
C2505 C2504 1.387 . S
C2505 C2507 1.387 . S
H2506 C2513 0.950 . S
C2507 C2505 1.387 . S
C2507 C2509 1.390 . S
C2507 H2511 0.950 . S
H2508 C2504 0.950 . S
C2509 C2507 1.390 . S
C2509 C2510 1.387 . S
C2509 H2512 0.950 . S
C2510 C2509 1.387 . S
C2510 C2513 1.387 . S
H2511 C2507 0.950 . S
H2512 C2509 0.950 . S
C2513 C2504 1.390 . S
C2513 H2506 0.950 . S
C2513 C2510 1.387 . S
C2514 C2515 1.387 . S
C2514 H2518 0.950 . S
C2514 C2523 1.390 . S
C2515 C2514 1.387 . S
C2515 C2517 1.387 . S
H2516 C2523 0.950 . S
C2517 C2515 1.387 . S
C2517 C2519 1.390 . S
C2517 H2521 0.950 . S
H2518 C2514 0.950 . S
C2519 C2517 1.390 . S
C2519 C2520 1.387 . S
C2519 H2522 0.950 . S
C2520 C2519 1.387 . S
C2520 C2523 1.387 . S
H2521 C2517 0.950 . S
H2522 C2519 0.950 . S
C2523 C2514 1.390 . S
C2523 H2516 0.950 . S
C2523 C2520 1.387 . S
C2524 C2525 1.387 . S
C2524 H2528 0.950 . S
C2524 C2533 1.390 . S
C2525 C2524 1.387 . S
C2525 C2527 1.387 . S
H2526 C2533 0.950 . S
C2527 C2525 1.387 . S
C2527 C2529 1.390 . S
C2527 H2531 0.950 . S
H2528 C2524 0.950 . S
C2529 C2527 1.390 . S
C2529 C2530 1.387 . S
C2529 H2532 0.950 . S
C2530 C2529 1.387 . S
C2530 C2533 1.387 . S
H2531 C2527 0.950 . S
H2532 C2529 0.950 . S
C2533 C2524 1.390 . S
C2533 H2526 0.950 . S
C2533 C2530 1.387 . S
C2534 C2535 1.387 . S
C2534 H2538 0.950 . S
C2534 C2543 1.390 . S
C2535 C2534 1.387 . S
C2535 C2537 1.387 . S
H2536 C2543 0.950 . S
C2537 C2535 1.387 . S
C2537 C2539 1.390 . S
C2537 H2541 0.950 . S
H2538 C2534 0.950 . S
C2539 C2537 1.390 . S
C2539 C2540 1.387 . S
C2539 H2542 0.950 . S
C2540 C2539 1.387 . S
C2540 C2543 1.387 . S
H2541 C2537 0.950 . S
H2542 C2539 0.950 . S
C2543 C2534 1.390 . S
C2543 H2536 0.950 . S
C2543 C2540 1.387 . S
C2544 C2545 1.387 . S
C2544 H2548 0.950 . S
C2544 C2553 1.390 . S
C2545 C2544 1.387 . S
C2545 C2547 1.387 . S
H2546 C2553 0.950 . S
C2547 C2545 1.387 . S
C2547 C2549 1.390 . S
C2547 H2551 0.950 . S
H2548 C2544 0.950 . S
C2549 C2547 1.390 . S
C2549 C2550 1.387 . S
C2549 H2552 0.950 . S
C2550 C2549 1.387 . S
C2550 C2553 1.387 . S
H2551 C2547 0.950 . S
H2552 C2549 0.950 . S
C2553 C2544 1.390 . S
C2553 H2546 0.950 . S
C2553 C2550 1.387 . S
C2554 C2555 1.387 . S
C2554 H2558 0.950 . S
C2554 C2563 1.390 . S
C2555 C2554 1.387 . S
C2555 C2557 1.387 . S
H2556 C2563 0.950 . S
C2557 C2555 1.387 . S
C2557 C2559 1.390 . S
C2557 H2561 0.950 . S
H2558 C2554 0.950 . S
C2559 C2557 1.390 . S
C2559 C2560 1.387 . S
C2559 H2562 0.950 . S
C2560 C2559 1.387 . S
C2560 C2563 1.387 . S
H2561 C2557 0.950 . S
H2562 C2559 0.950 . S
C2563 C2554 1.390 . S
C2563 H2556 0.950 . S
C2563 C2560 1.387 . S
C2564 C2565 1.387 . S
C2564 H2568 0.950 . S
C2564 C2573 1.390 . S
C2565 C2564 1.387 . S
C2565 C2567 1.387 . S
H2566 C2573 0.950 . S
C2567 C2565 1.387 . S
C2567 C2569 1.390 . S
C2567 H2571 0.950 . S
H2568 C2564 0.950 . S
C2569 C2567 1.390 . S
C2569 C2570 1.387 . S
C2569 H2572 0.950 . S
C2570 C2569 1.387 . S
C2570 C2573 1.387 . S
H2571 C2567 0.950 . S
H2572 C2569 0.950 . S
C2573 C2564 1.390 . S
C2573 H2566 0.950 . S
C2573 C2570 1.387 . S
C2574 C2575 1.387 . S
C2574 H2578 0.950 . S
C2574 C2583 1.390 . S
C2575 C2574 1.387 . S
C2575 C2577 1.387 . S
H2576 C2583 0.950 . S
C2577 C2575 1.387 . S
C2577 C2579 1.390 . S
C2577 H2581 0.950 . S
H2578 C2574 0.950 . S
C2579 C2577 1.390 . S
C2579 C2580 1.387 . S
C2579 H2582 0.950 . S
C2580 C2579 1.387 . S
C2580 C2583 1.387 . S
H2581 C2577 0.950 . S
H2582 C2579 0.950 . S
C2583 C2574 1.390 . S
C2583 H2576 0.950 . S
C2583 C2580 1.387 . S
C2584 C2585 1.387 . S
C2584 H2588 0.950 . S
C2584 C2593 1.390 . S
C2585 C2584 1.387 . S
C2585 C2587 1.387 . S
H2586 C2593 0.950 . S
C2587 C2585 1.387 . S
C2587 C2589 1.390 . S
C2587 H2591 0.950 . S
H2588 C2584 0.950 . S
C2589 C2587 1.390 . S
C2589 C2590 1.387 . S
C2589 H2592 0.950 . S
C2590 C2589 1.387 . S
C2590 C2593 1.387 . S
H2591 C2587 0.950 . S
H2592 C2589 0.950 . S
C2593 C2584 1.390 . S
C2593 H2586 0.950 . S
C2593 C2590 1.387 . S
C2594 C2595 1.387 . S
C2594 H2598 0.950 . S
C2594 C2603 1.390 . S
C2595 C2594 1.387 . S
C2595 C2597 1.387 . S
H2596 C2603 0.950 . S
C2597 C2595 1.387 . S
C2597 C2599 1.390 . S
C2597 H2601 0.950 . S
H2598 C2594 0.950 . S
C2599 C2597 1.390 . S
C2599 C2600 1.387 . S
C2599 H2602 0.950 . S
C2600 C2599 1.387 . S
C2600 C2603 1.387 . S
H2601 C2597 0.950 . S
H2602 C2599 0.950 . S
C2603 C2594 1.390 . S
C2603 H2596 0.950 . S
C2603 C2600 1.387 . S
C2604 C2605 1.387 . S
C2604 H2608 0.950 . S
C2604 C2613 1.390 . S
C2605 C2604 1.387 . S
C2605 C2607 1.387 . S
H2606 C2613 0.950 . S
C2607 C2605 1.387 . S
C2607 C2609 1.390 . S
C2607 H2611 0.950 . S
H2608 C2604 0.950 . S
C2609 C2607 1.390 . S
C2609 C2610 1.387 . S
C2609 H2612 0.950 . S
C2610 C2609 1.387 . S
C2610 C2613 1.387 . S
H2611 C2607 0.950 . S
H2612 C2609 0.950 . S
C2613 C2604 1.390 . S
C2613 H2606 0.950 . S
C2613 C2610 1.387 . S
C2614 C2615 1.387 . S
C2614 H2618 0.950 . S
C2614 C2623 1.390 . S
C2615 C2614 1.387 . S
C2615 C2617 1.387 . S
H2616 C2623 0.950 . S
C2617 C2615 1.387 . S
C2617 C2619 1.390 . S
C2617 H2621 0.950 . S
H2618 C2614 0.950 . S
C2619 C2617 1.390 . S
C2619 C2620 1.387 . S
C2619 H2622 0.950 . S
C2620 C2619 1.387 . S
C2620 C2623 1.387 . S
H2621 C2617 0.950 . S
H2622 C2619 0.950 . S
C2623 C2614 1.390 . S
C2623 H2616 0.950 . S
C2623 C2620 1.387 . S
C2624 C2625 1.387 . S
C2624 H2628 0.950 . S
C2624 C2633 1.390 . S
C2625 C2624 1.387 . S
C2625 C2627 1.387 . S
H2626 C2633 0.950 . S
C2627 C2625 1.387 . S
C2627 C2629 1.390 . S
C2627 H2631 0.950 . S
H2628 C2624 0.950 . S
C2629 C2627 1.390 . S
C2629 C2630 1.387 . S
C2629 H2632 0.950 . S
C2630 C2629 1.387 . S
C2630 C2633 1.387 . S
H2631 C2627 0.950 . S
H2632 C2629 0.950 . S
C2633 C2624 1.390 . S
C2633 H2626 0.950 . S
C2633 C2630 1.387 . S
C2634 C2635 1.387 . S
C2634 H2638 0.950 . S
C2634 C2643 1.390 . S
C2635 C2634 1.387 . S
C2635 C2637 1.387 . S
H2636 C2643 0.950 . S
C2637 C2635 1.387 . S
C2637 C2639 1.390 . S
C2637 H2641 0.950 . S
H2638 C2634 0.950 . S
C2639 C2637 1.390 . S
C2639 C2640 1.387 . S
C2639 H2642 0.950 . S
C2640 C2639 1.387 . S
C2640 C2643 1.387 . S
H2641 C2637 0.950 . S
H2642 C2639 0.950 . S
C2643 C2634 1.390 . S
C2643 H2636 0.950 . S
C2643 C2640 1.387 . S
C2644 C2645 1.387 . S
C2644 H2648 0.950 . S
C2644 C2653 1.390 . S
C2645 C2644 1.387 . S
C2645 C2647 1.387 . S
H2646 C2653 0.950 . S
C2647 C2645 1.387 . S
C2647 C2649 1.390 . S
C2647 H2651 0.950 . S
H2648 C2644 0.950 . S
C2649 C2647 1.390 . S
C2649 C2650 1.387 . S
C2649 H2652 0.950 . S
C2650 C2649 1.387 . S
C2650 C2653 1.387 . S
H2651 C2647 0.950 . S
H2652 C2649 0.950 . S
C2653 C2644 1.390 . S
C2653 H2646 0.950 . S
C2653 C2650 1.387 . S
C2654 C2655 1.387 . S
C2654 H2658 0.950 . S
C2654 C2663 1.390 . S
C2655 C2654 1.387 . S
C2655 C2657 1.387 . S
H2656 C2663 0.950 . S
C2657 C2655 1.387 . S
C2657 C2659 1.390 . S
C2657 H2661 0.950 . S
H2658 C2654 0.950 . S
C2659 C2657 1.390 . S
C2659 C2660 1.387 . S
C2659 H2662 0.950 . S
C2660 C2659 1.387 . S
C2660 C2663 1.387 . S
H2661 C2657 0.950 . S
H2662 C2659 0.950 . S
C2663 C2654 1.390 . S
C2663 H2656 0.950 . S
C2663 C2660 1.387 . S
C2664 C2665 1.387 . S
C2664 H2668 0.950 . S
C2664 C2673 1.390 . S
C2665 C2664 1.387 . S
C2665 C2667 1.387 . S
H2666 C2673 0.950 . S
C2667 C2665 1.387 . S
C2667 C2669 1.390 . S
C2667 H2671 0.950 . S
H2668 C2664 0.950 . S
C2669 C2667 1.390 . S
C2669 C2670 1.387 . S
C2669 H2672 0.950 . S
C2670 C2669 1.387 . S
C2670 C2673 1.387 . S
H2671 C2667 0.950 . S
H2672 C2669 0.950 . S
C2673 C2664 1.390 . S
C2673 H2666 0.950 . S
C2673 C2670 1.387 . S
C2674 C2675 1.387 . S
C2674 H2678 0.950 . S
C2674 C2683 1.390 . S
C2675 C2674 1.387 . S
C2675 C2677 1.387 . S
H2676 C2683 0.950 . S
C2677 C2675 1.387 . S
C2677 C2679 1.390 . S
C2677 H2681 0.950 . S
H2678 C2674 0.950 . S
C2679 C2677 1.390 . S
C2679 C2680 1.387 . S
C2679 H2682 0.950 . S
C2680 C2679 1.387 . S
C2680 C2683 1.387 . S
H2681 C2677 0.950 . S
H2682 C2679 0.950 . S
C2683 C2674 1.390 . S
C2683 H2676 0.950 . S
C2683 C2680 1.387 . S
C2684 C2685 1.387 . S
C2684 H2688 0.950 . S
C2684 C2693 1.390 . S
C2685 C2684 1.387 . S
C2685 C2687 1.387 . S
H2686 C2693 0.950 . S
C2687 C2685 1.387 . S
C2687 C2689 1.390 . S
C2687 H2691 0.950 . S
H2688 C2684 0.950 . S
C2689 C2687 1.390 . S
C2689 C2690 1.387 . S
C2689 H2692 0.950 . S
C2690 C2689 1.387 . S
C2690 C2693 1.387 . S
H2691 C2687 0.950 . S
H2692 C2689 0.950 . S
C2693 C2684 1.390 . S
C2693 H2686 0.950 . S
C2693 C2690 1.387 . S
C2694 C2695 1.387 . S
C2694 H2698 0.950 . S
C2694 C2703 1.390 . S
C2695 C2694 1.387 . S
C2695 C2697 1.387 . S
H2696 C2703 0.950 . S
C2697 C2695 1.387 . S
C2697 C2699 1.390 . S
C2697 H2701 0.950 . S
H2698 C2694 0.950 . S
C2699 C2697 1.390 . S
C2699 C2700 1.387 . S
C2699 H2702 0.950 . S
C2700 C2699 1.387 . S
C2700 C2703 1.387 . S
H2701 C2697 0.950 . S
H2702 C2699 0.950 . S
C2703 C2694 1.390 . S
C2703 H2696 0.950 . S
C2703 C2700 1.387 . S
C2704 C2705 1.387 . S
C2704 H2708 0.950 . S
C2704 C2713 1.390 . S
C2705 C2704 1.387 . S
C2705 C2707 1.387 . S
H2706 C2713 0.950 . S
C2707 C2705 1.387 . S
C2707 C2709 1.390 . S
C2707 H2711 0.950 . S
H2708 C2704 0.950 . S
C2709 C2707 1.390 . S
C2709 C2710 1.387 . S
C2709 H2712 0.950 . S
C2710 C2709 1.387 . S
C2710 C2713 1.387 . S
H2711 C2707 0.950 . S
H2712 C2709 0.950 . S
C2713 C2704 1.390 . S
C2713 H2706 0.950 . S
C2713 C2710 1.387 . S
C2714 C2715 1.387 . S
C2714 H2718 0.950 . S
C2714 C2723 1.390 . S
C2715 C2714 1.387 . S
C2715 C2717 1.387 . S
H2716 C2723 0.950 . S
C2717 C2715 1.387 . S
C2717 C2719 1.390 . S
C2717 H2721 0.950 . S
H2718 C2714 0.950 . S
C2719 C2717 1.390 . S
C2719 C2720 1.387 . S
C2719 H2722 0.950 . S
C2720 C2719 1.387 . S
C2720 C2723 1.387 . S
H2721 C2717 0.950 . S
H2722 C2719 0.950 . S
C2723 C2714 1.390 . S
C2723 H2716 0.950 . S
C2723 C2720 1.387 . S
C2724 C2725 1.387 . S
C2724 H2728 0.950 . S
C2724 C2733 1.390 . S
C2725 C2724 1.387 . S
C2725 C2727 1.387 . S
H2726 C2733 0.950 . S
C2727 C2725 1.387 . S
C2727 C2729 1.390 . S
C2727 H2731 0.950 . S
H2728 C2724 0.950 . S
C2729 C2727 1.390 . S
C2729 C2730 1.387 . S
C2729 H2732 0.950 . S
C2730 C2729 1.387 . S
C2730 C2733 1.387 . S
H2731 C2727 0.950 . S
H2732 C2729 0.950 . S
C2733 C2724 1.390 . S
C2733 H2726 0.950 . S
C2733 C2730 1.387 . S
C2734 C2735 1.387 . S
C2734 H2738 0.950 . S
C2734 C2743 1.390 . S
C2735 C2734 1.387 . S
C2735 C2737 1.387 . S
H2736 C2743 0.950 . S
C2737 C2735 1.387 . S
C2737 C2739 1.390 . S
C2737 H2741 0.950 . S
H2738 C2734 0.950 . S
C2739 C2737 1.390 . S
C2739 C2740 1.387 . S
C2739 H2742 0.950 . S
C2740 C2739 1.387 . S
C2740 C2743 1.387 . S
H2741 C2737 0.950 . S
H2742 C2739 0.950 . S
C2743 C2734 1.390 . S
C2743 H2736 0.950 . S
C2743 C2740 1.387 . S
C2744 C2745 1.387 . S
C2744 H2748 0.950 . S
C2744 C2753 1.390 . S
C2745 C2744 1.387 . S
C2745 C2747 1.387 . S
H2746 C2753 0.950 . S
C2747 C2745 1.387 . S
C2747 C2749 1.390 . S
C2747 H2751 0.950 . S
H2748 C2744 0.950 . S
C2749 C2747 1.390 . S
C2749 C2750 1.387 . S
C2749 H2752 0.950 . S
C2750 C2749 1.387 . S
C2750 C2753 1.387 . S
H2751 C2747 0.950 . S
H2752 C2749 0.950 . S
C2753 C2744 1.390 . S
C2753 H2746 0.950 . S
C2753 C2750 1.387 . S
C2754 C2755 1.387 . S
C2754 H2758 0.950 . S
C2754 C2763 1.390 . S
C2755 C2754 1.387 . S
C2755 C2757 1.387 . S
H2756 C2763 0.950 . S
C2757 C2755 1.387 . S
C2757 C2759 1.390 . S
C2757 H2761 0.950 . S
H2758 C2754 0.950 . S
C2759 C2757 1.390 . S
C2759 C2760 1.387 . S
C2759 H2762 0.950 . S
C2760 C2759 1.387 . S
C2760 C2763 1.387 . S
H2761 C2757 0.950 . S
H2762 C2759 0.950 . S
C2763 C2754 1.390 . S
C2763 H2756 0.950 . S
C2763 C2760 1.387 . S
C2764 C2765 1.387 . S
C2764 H2768 0.950 . S
C2764 C2773 1.390 . S
C2765 C2764 1.387 . S
C2765 C2767 1.387 . S
H2766 C2773 0.950 . S
C2767 C2765 1.387 . S
C2767 C2769 1.390 . S
C2767 H2771 0.950 . S
H2768 C2764 0.950 . S
C2769 C2767 1.390 . S
C2769 C2770 1.387 . S
C2769 H2772 0.950 . S
C2770 C2769 1.387 . S
C2770 C2773 1.387 . S
H2771 C2767 0.950 . S
H2772 C2769 0.950 . S
C2773 C2764 1.390 . S
C2773 H2766 0.950 . S
C2773 C2770 1.387 . S
C2774 C2775 1.387 . S
C2774 H2778 0.950 . S
C2774 C2783 1.390 . S
C2775 C2774 1.387 . S
C2775 C2777 1.387 . S
H2776 C2783 0.950 . S
C2777 C2775 1.387 . S
C2777 C2779 1.390 . S
C2777 H2781 0.950 . S
H2778 C2774 0.950 . S
C2779 C2777 1.390 . S
C2779 C2780 1.387 . S
C2779 H2782 0.950 . S
C2780 C2779 1.387 . S
C2780 C2783 1.387 . S
H2781 C2777 0.950 . S
H2782 C2779 0.950 . S
C2783 C2774 1.390 . S
C2783 H2776 0.950 . S
C2783 C2780 1.387 . S
C2784 C2785 1.387 . S
C2784 H2788 0.950 . S
C2784 C2793 1.390 . S
C2785 C2784 1.387 . S
C2785 C2787 1.387 . S
H2786 C2793 0.950 . S
C2787 C2785 1.387 . S
C2787 C2789 1.390 . S
C2787 H2791 0.950 . S
H2788 C2784 0.950 . S
C2789 C2787 1.390 . S
C2789 C2790 1.387 . S
C2789 H2792 0.950 . S
C2790 C2789 1.387 . S
C2790 C2793 1.387 . S
H2791 C2787 0.950 . S
H2792 C2789 0.950 . S
C2793 C2784 1.390 . S
C2793 H2786 0.950 . S
C2793 C2790 1.387 . S
C2794 C2795 1.387 . S
C2794 H2798 0.950 . S
C2794 C2803 1.390 . S
C2795 C2794 1.387 . S
C2795 C2797 1.387 . S
H2796 C2803 0.950 . S
C2797 C2795 1.387 . S
C2797 C2799 1.390 . S
C2797 H2801 0.950 . S
H2798 C2794 0.950 . S
C2799 C2797 1.390 . S
C2799 C2800 1.387 . S
C2799 H2802 0.950 . S
C2800 C2799 1.387 . S
C2800 C2803 1.387 . S
H2801 C2797 0.950 . S
H2802 C2799 0.950 . S
C2803 C2794 1.390 . S
C2803 H2796 0.950 . S
C2803 C2800 1.387 . S
C2804 C2805 1.387 . S
C2804 H2808 0.950 . S
C2804 C2813 1.390 . S
C2805 C2804 1.387 . S
C2805 C2807 1.387 . S
H2806 C2813 0.950 . S
C2807 C2805 1.387 . S
C2807 C2809 1.390 . S
C2807 H2811 0.950 . S
H2808 C2804 0.950 . S
C2809 C2807 1.390 . S
C2809 C2810 1.387 . S
C2809 H2812 0.950 . S
C2810 C2809 1.387 . S
C2810 C2813 1.387 . S
H2811 C2807 0.950 . S
H2812 C2809 0.950 . S
C2813 C2804 1.390 . S
C2813 H2806 0.950 . S
C2813 C2810 1.387 . S
C2814 C2815 1.387 . S
C2814 H2818 0.950 . S
C2814 C2823 1.390 . S
C2815 C2814 1.387 . S
C2815 C2817 1.387 . S
H2816 C2823 0.950 . S
C2817 C2815 1.387 . S
C2817 C2819 1.390 . S
C2817 H2821 0.950 . S
H2818 C2814 0.950 . S
C2819 C2817 1.390 . S
C2819 C2820 1.387 . S
C2819 H2822 0.950 . S
C2820 C2819 1.387 . S
C2820 C2823 1.387 . S
H2821 C2817 0.950 . S
H2822 C2819 0.950 . S
C2823 C2814 1.390 . S
C2823 H2816 0.950 . S
C2823 C2820 1.387 . S
C2824 C2825 1.387 . S
C2824 H2828 0.950 . S
C2824 C2833 1.390 . S
C2825 C2824 1.387 . S
C2825 C2827 1.387 . S
H2826 C2833 0.950 . S
C2827 C2825 1.387 . S
C2827 C2829 1.390 . S
C2827 H2831 0.950 . S
H2828 C2824 0.950 . S
C2829 C2827 1.390 . S
C2829 C2830 1.387 . S
C2829 H2832 0.950 . S
C2830 C2829 1.387 . S
C2830 C2833 1.387 . S
H2831 C2827 0.950 . S
H2832 C2829 0.950 . S
C2833 C2824 1.390 . S
C2833 H2826 0.950 . S
C2833 C2830 1.387 . S
C2834 C2835 1.387 . S
C2834 H2838 0.950 . S
C2834 C2843 1.390 . S
C2835 C2834 1.387 . S
C2835 C2837 1.387 . S
H2836 C2843 0.950 . S
C2837 C2835 1.387 . S
C2837 C2839 1.390 . S
C2837 H2841 0.950 . S
H2838 C2834 0.950 . S
C2839 C2837 1.390 . S
C2839 C2840 1.387 . S
C2839 H2842 0.950 . S
C2840 C2839 1.387 . S
C2840 C2843 1.387 . S
H2841 C2837 0.950 . S
H2842 C2839 0.950 . S
C2843 C2834 1.390 . S
C2843 H2836 0.950 . S
C2843 C2840 1.387 . S
C2844 C2845 1.387 . S
C2844 H2848 0.950 . S
C2844 C2853 1.390 . S
C2845 C2844 1.387 . S
C2845 C2847 1.387 . S
H2846 C2853 0.950 . S
C2847 C2845 1.387 . S
C2847 C2849 1.390 . S
C2847 H2851 0.950 . S
H2848 C2844 0.950 . S
C2849 C2847 1.390 . S
C2849 C2850 1.387 . S
C2849 H2852 0.950 . S
C2850 C2849 1.387 . S
C2850 C2853 1.387 . S
H2851 C2847 0.950 . S
H2852 C2849 0.950 . S
C2853 C2844 1.390 . S
C2853 H2846 0.950 . S
C2853 C2850 1.387 . S
C2854 C2855 1.387 . S
C2854 H2858 0.950 . S
C2854 C2863 1.390 . S
C2855 C2854 1.387 . S
C2855 C2857 1.387 . S
H2856 C2863 0.950 . S
C2857 C2855 1.387 . S
C2857 C2859 1.390 . S
C2857 H2861 0.950 . S
H2858 C2854 0.950 . S
C2859 C2857 1.390 . S
C2859 C2860 1.387 . S
C2859 H2862 0.950 . S
C2860 C2859 1.387 . S
C2860 C2863 1.387 . S
H2861 C2857 0.950 . S
H2862 C2859 0.950 . S
C2863 C2854 1.390 . S
C2863 H2856 0.950 . S
C2863 C2860 1.387 . S
C2864 C2865 1.387 . S
C2864 H2868 0.950 . S
C2864 C2873 1.390 . S
C2865 C2864 1.387 . S
C2865 C2867 1.387 . S
H2866 C2873 0.950 . S
C2867 C2865 1.387 . S
C2867 C2869 1.390 . S
C2867 H2871 0.950 . S
H2868 C2864 0.950 . S
C2869 C2867 1.390 . S
C2869 C2870 1.387 . S
C2869 H2872 0.950 . S
C2870 C2869 1.387 . S
C2870 C2873 1.387 . S
H2871 C2867 0.950 . S
H2872 C2869 0.950 . S
C2873 C2864 1.390 . S
C2873 H2866 0.950 . S
C2873 C2870 1.387 . S
C2874 C2875 1.387 . S
C2874 H2878 0.950 . S
C2874 C2883 1.390 . S
C2875 C2874 1.387 . S
C2875 C2877 1.387 . S
H2876 C2883 0.950 . S
C2877 C2875 1.387 . S
C2877 C2879 1.390 . S
C2877 H2881 0.950 . S
H2878 C2874 0.950 . S
C2879 C2877 1.390 . S
C2879 C2880 1.387 . S
C2879 H2882 0.950 . S
C2880 C2879 1.387 . S
C2880 C2883 1.387 . S
H2881 C2877 0.950 . S
H2882 C2879 0.950 . S
C2883 C2874 1.390 . S
C2883 H2876 0.950 . S
C2883 C2880 1.387 . S
C2884 C2885 1.387 . S
C2884 H2888 0.950 . S
C2884 C2893 1.390 . S
C2885 C2884 1.387 . S
C2885 C2887 1.387 . S
H2886 C2893 0.950 . S
C2887 C2885 1.387 . S
C2887 C2889 1.390 . S
C2887 H2891 0.950 . S
H2888 C2884 0.950 . S
C2889 C2887 1.390 . S
C2889 C2890 1.387 . S
C2889 H2892 0.950 . S
C2890 C2889 1.387 . S
C2890 C2893 1.387 . S
H2891 C2887 0.950 . S
H2892 C2889 0.950 . S
C2893 C2884 1.390 . S
C2893 H2886 0.950 . S
C2893 C2890 1.387 . S
C2894 C2895 1.387 . S
C2894 H2898 0.950 . S
C2894 C2903 1.390 . S
C2895 C2894 1.387 . S
C2895 C2897 1.387 . S
H2896 C2903 0.950 . S
C2897 C2895 1.387 . S
C2897 C2899 1.390 . S
C2897 H2901 0.950 . S
H2898 C2894 0.950 . S
C2899 C2897 1.390 . S
C2899 C2900 1.387 . S
C2899 H2902 0.950 . S
C2900 C2899 1.387 . S
C2900 C2903 1.387 . S
H2901 C2897 0.950 . S
H2902 C2899 0.950 . S
C2903 C2894 1.390 . S
C2903 H2896 0.950 . S
C2903 C2900 1.387 . S
C2904 C2905 1.387 . S
C2904 H2908 0.950 . S
C2904 C2913 1.390 . S
C2905 C2904 1.387 . S
C2905 C2907 1.387 . S
H2906 C2913 0.950 . S
C2907 C2905 1.387 . S
C2907 C2909 1.390 . S
C2907 H2911 0.950 . S
H2908 C2904 0.950 . S
C2909 C2907 1.390 . S
C2909 C2910 1.387 . S
C2909 H2912 0.950 . S
C2910 C2909 1.387 . S
C2910 C2913 1.387 . S
H2911 C2907 0.950 . S
H2912 C2909 0.950 . S
C2913 C2904 1.390 . S
C2913 H2906 0.950 . S
C2913 C2910 1.387 . S
C2914 C2915 1.387 . S
C2914 H2918 0.950 . S
C2914 C2923 1.390 . S
C2915 C2914 1.387 . S
C2915 C2917 1.387 . S
H2916 C2923 0.950 . S
C2917 C2915 1.387 . S
C2917 C2919 1.390 . S
C2917 H2921 0.950 . S
H2918 C2914 0.950 . S
C2919 C2917 1.390 . S
C2919 C2920 1.387 . S
C2919 H2922 0.950 . S
C2920 C2919 1.387 . S
C2920 C2923 1.387 . S
H2921 C2917 0.950 . S
H2922 C2919 0.950 . S
C2923 C2914 1.390 . S
C2923 H2916 0.950 . S
C2923 C2920 1.387 . S
C2924 C2925 1.387 . S
C2924 H2928 0.950 . S
C2924 C2933 1.390 . S
C2925 C2924 1.387 . S
C2925 C2927 1.387 . S
H2926 C2933 0.950 . S
C2927 C2925 1.387 . S
C2927 C2929 1.390 . S
C2927 H2931 0.950 . S
H2928 C2924 0.950 . S
C2929 C2927 1.390 . S
C2929 C2930 1.387 . S
C2929 H2932 0.950 . S
C2930 C2929 1.387 . S
C2930 C2933 1.387 . S
H2931 C2927 0.950 . S
H2932 C2929 0.950 . S
C2933 C2924 1.390 . S
C2933 H2926 0.950 . S
C2933 C2930 1.387 . S
C2934 C2935 1.387 . S
C2934 H2938 0.950 . S
C2934 C2943 1.390 . S
C2935 C2934 1.387 . S
C2935 C2937 1.387 . S
H2936 C2943 0.950 . S
C2937 C2935 1.387 . S
C2937 C2939 1.390 . S
C2937 H2941 0.950 . S
H2938 C2934 0.950 . S
C2939 C2937 1.390 . S
C2939 C2940 1.387 . S
C2939 H2942 0.950 . S
C2940 C2939 1.387 . S
C2940 C2943 1.387 . S
H2941 C2937 0.950 . S
H2942 C2939 0.950 . S
C2943 C2934 1.390 . S
C2943 H2936 0.950 . S
C2943 C2940 1.387 . S
C2944 C2945 1.387 . S
C2944 H2948 0.950 . S
C2944 C2953 1.390 . S
C2945 C2944 1.387 . S
C2945 C2947 1.387 . S
H2946 C2953 0.950 . S
C2947 C2945 1.387 . S
C2947 C2949 1.390 . S
C2947 H2951 0.950 . S
H2948 C2944 0.950 . S
C2949 C2947 1.390 . S
C2949 C2950 1.387 . S
C2949 H2952 0.950 . S
C2950 C2949 1.387 . S
C2950 C2953 1.387 . S
H2951 C2947 0.950 . S
H2952 C2949 0.950 . S
C2953 C2944 1.390 . S
C2953 H2946 0.950 . S
C2953 C2950 1.387 . S
C2954 C2955 1.387 . S
C2954 H2958 0.950 . S
C2954 C2963 1.390 . S
C2955 C2954 1.387 . S
C2955 C2957 1.387 . S
H2956 C2963 0.950 . S
C2957 C2955 1.387 . S
C2957 C2959 1.390 . S
C2957 H2961 0.950 . S
H2958 C2954 0.950 . S
C2959 C2957 1.390 . S
C2959 C2960 1.387 . S
C2959 H2962 0.950 . S
C2960 C2959 1.387 . S
C2960 C2963 1.387 . S
H2961 C2957 0.950 . S
H2962 C2959 0.950 . S
C2963 C2954 1.390 . S
C2963 H2956 0.950 . S
C2963 C2960 1.387 . S
C2964 C2965 1.387 . S
C2964 H2968 0.950 . S
C2964 C2973 1.390 . S
C2965 C2964 1.387 . S
C2965 C2967 1.387 . S
H2966 C2973 0.950 . S
C2967 C2965 1.387 . S
C2967 C2969 1.390 . S
C2967 H2971 0.950 . S
H2968 C2964 0.950 . S
C2969 C2967 1.390 . S
C2969 C2970 1.387 . S
C2969 H2972 0.950 . S
C2970 C2969 1.387 . S
C2970 C2973 1.387 . S
H2971 C2967 0.950 . S
H2972 C2969 0.950 . S
C2973 C2964 1.390 . S
C2973 H2966 0.950 . S
C2973 C2970 1.387 . S
C2974 C2975 1.387 . S
C2974 H2978 0.950 . S
C2974 C2983 1.390 . S
C2975 C2974 1.387 . S
C2975 C2977 1.387 . S
H2976 C2983 0.950 . S
C2977 C2975 1.387 . S
C2977 C2979 1.390 . S
C2977 H2981 0.950 . S
H2978 C2974 0.950 . S
C2979 C2977 1.390 . S
C2979 C2980 1.387 . S
C2979 H2982 0.950 . S
C2980 C2979 1.387 . S
C2980 C2983 1.387 . S
H2981 C2977 0.950 . S
H2982 C2979 0.950 . S
C2983 C2974 1.390 . S
C2983 H2976 0.950 . S
C2983 C2980 1.387 . S
C2984 C2985 1.387 . S
C2984 H2988 0.950 . S
C2984 C2993 1.390 . S
C2985 C2984 1.387 . S
C2985 C2987 1.387 . S
H2986 C2993 0.950 . S
C2987 C2985 1.387 . S
C2987 C2989 1.390 . S
C2987 H2991 0.950 . S
H2988 C2984 0.950 . S
C2989 C2987 1.390 . S
C2989 C2990 1.387 . S
C2989 H2992 0.950 . S
C2990 C2989 1.387 . S
C2990 C2993 1.387 . S
H2991 C2987 0.950 . S
H2992 C2989 0.950 . S
C2993 C2984 1.390 . S
C2993 H2986 0.950 . S
C2993 C2990 1.387 . S
C2994 C2995 1.387 . S
C2994 H2998 0.950 . S
C2994 C3003 1.390 . S
C2995 C2994 1.387 . S
C2995 C2997 1.387 . S
H2996 C3003 0.950 . S
C2997 C2995 1.387 . S
C2997 C2999 1.390 . S
C2997 H3001 0.950 . S
H2998 C2994 0.950 . S
C2999 C2997 1.390 . S
C2999 C3000 1.387 . S
C2999 H3002 0.950 . S
C3000 C2999 1.387 . S
C3000 C3003 1.387 . S
H3001 C2997 0.950 . S
H3002 C2999 0.950 . S
C3003 C2994 1.390 . S
C3003 H2996 0.950 . S
C3003 C3000 1.387 . S
C3004 C3005 1.387 . S
C3004 H3008 0.950 . S
C3004 C3013 1.390 . S
C3005 C3004 1.387 . S
C3005 C3007 1.387 . S
H3006 C3013 0.950 . S
C3007 C3005 1.387 . S
C3007 C3009 1.390 . S
C3007 H3011 0.950 . S
H3008 C3004 0.950 . S
C3009 C3007 1.390 . S
C3009 C3010 1.387 . S
C3009 H3012 0.950 . S
C3010 C3009 1.387 . S
C3010 C3013 1.387 . S
H3011 C3007 0.950 . S
H3012 C3009 0.950 . S
C3013 C3004 1.390 . S
C3013 H3006 0.950 . S
C3013 C3010 1.387 . S
C3014 C3015 1.387 . S
C3014 H3018 0.950 . S
C3014 C3023 1.390 . S
C3015 C3014 1.387 . S
C3015 C3017 1.387 . S
H3016 C3023 0.950 . S
C3017 C3015 1.387 . S
C3017 C3019 1.390 . S
C3017 H3021 0.950 . S
H3018 C3014 0.950 . S
C3019 C3017 1.390 . S
C3019 C3020 1.387 . S
C3019 H3022 0.950 . S
C3020 C3019 1.387 . S
C3020 C3023 1.387 . S
H3021 C3017 0.950 . S
H3022 C3019 0.950 . S
C3023 C3014 1.390 . S
C3023 H3016 0.950 . S
C3023 C3020 1.387 . S
C3024 C3025 1.387 . S
C3024 H3028 0.950 . S
C3024 C3033 1.390 . S
C3025 C3024 1.387 . S
C3025 C3027 1.387 . S
H3026 C3033 0.950 . S
C3027 C3025 1.387 . S
C3027 C3029 1.390 . S
C3027 H3031 0.950 . S
H3028 C3024 0.950 . S
C3029 C3027 1.390 . S
C3029 C3030 1.387 . S
C3029 H3032 0.950 . S
C3030 C3029 1.387 . S
C3030 C3033 1.387 . S
H3031 C3027 0.950 . S
H3032 C3029 0.950 . S
C3033 C3024 1.390 . S
C3033 H3026 0.950 . S
C3033 C3030 1.387 . S
C3034 C3035 1.387 . S
C3034 H3038 0.950 . S
C3034 C3043 1.390 . S
C3035 C3034 1.387 . S
C3035 C3037 1.387 . S
H3036 C3043 0.950 . S
C3037 C3035 1.387 . S
C3037 C3039 1.390 . S
C3037 H3041 0.950 . S
H3038 C3034 0.950 . S
C3039 C3037 1.390 . S
C3039 C3040 1.387 . S
C3039 H3042 0.950 . S
C3040 C3039 1.387 . S
C3040 C3043 1.387 . S
H3041 C3037 0.950 . S
H3042 C3039 0.950 . S
C3043 C3034 1.390 . S
C3043 H3036 0.950 . S
C3043 C3040 1.387 . S
C3044 C3045 1.387 . S
C3044 H3048 0.950 . S
C3044 C3053 1.390 . S
C3045 C3044 1.387 . S
C3045 C3047 1.387 . S
H3046 C3053 0.950 . S
C3047 C3045 1.387 . S
C3047 C3049 1.390 . S
C3047 H3051 0.950 . S
H3048 C3044 0.950 . S
C3049 C3047 1.390 . S
C3049 C3050 1.387 . S
C3049 H3052 0.950 . S
C3050 C3049 1.387 . S
C3050 C3053 1.387 . S
H3051 C3047 0.950 . S
H3052 C3049 0.950 . S
C3053 C3044 1.390 . S
C3053 H3046 0.950 . S
C3053 C3050 1.387 . S
C3054 C3055 1.387 . S
C3054 H3058 0.950 . S
C3054 C3063 1.390 . S
C3055 C3054 1.387 . S
C3055 C3057 1.387 . S
H3056 C3063 0.950 . S
C3057 C3055 1.387 . S
C3057 C3059 1.390 . S
C3057 H3061 0.950 . S
H3058 C3054 0.950 . S
C3059 C3057 1.390 . S
C3059 C3060 1.387 . S
C3059 H3062 0.950 . S
C3060 C3059 1.387 . S
C3060 C3063 1.387 . S
H3061 C3057 0.950 . S
H3062 C3059 0.950 . S
C3063 C3054 1.390 . S
C3063 H3056 0.950 . S
C3063 C3060 1.387 . S
C3064 C3065 1.387 . S
C3064 H3068 0.950 . S
C3064 C3073 1.390 . S
C3065 C3064 1.387 . S
C3065 C3067 1.387 . S
H3066 C3073 0.950 . S
C3067 C3065 1.387 . S
C3067 C3069 1.390 . S
C3067 H3071 0.950 . S
H3068 C3064 0.950 . S
C3069 C3067 1.390 . S
C3069 C3070 1.387 . S
C3069 H3072 0.950 . S
C3070 C3069 1.387 . S
C3070 C3073 1.387 . S
H3071 C3067 0.950 . S
H3072 C3069 0.950 . S
C3073 C3064 1.390 . S
C3073 H3066 0.950 . S
C3073 C3070 1.387 . S
C3074 C3075 1.387 . S
C3074 H3078 0.950 . S
C3074 C3083 1.390 . S
C3075 C3074 1.387 . S
C3075 C3077 1.387 . S
H3076 C3083 0.950 . S
C3077 C3075 1.387 . S
C3077 C3079 1.390 . S
C3077 H3081 0.950 . S
H3078 C3074 0.950 . S
C3079 C3077 1.390 . S
C3079 C3080 1.387 . S
C3079 H3082 0.950 . S
C3080 C3079 1.387 . S
C3080 C3083 1.387 . S
H3081 C3077 0.950 . S
H3082 C3079 0.950 . S
C3083 C3074 1.390 . S
C3083 H3076 0.950 . S
C3083 C3080 1.387 . S
C3084 C3085 1.387 . S
C3084 H3088 0.950 . S
C3084 C3093 1.390 . S
C3085 C3084 1.387 . S
C3085 C3087 1.387 . S
H3086 C3093 0.950 . S
C3087 C3085 1.387 . S
C3087 C3089 1.390 . S
C3087 H3091 0.950 . S
H3088 C3084 0.950 . S
C3089 C3087 1.390 . S
C3089 C3090 1.387 . S
C3089 H3092 0.950 . S
C3090 C3089 1.387 . S
C3090 C3093 1.387 . S
H3091 C3087 0.950 . S
H3092 C3089 0.950 . S
C3093 C3084 1.390 . S
C3093 H3086 0.950 . S
C3093 C3090 1.387 . S
C3094 C3095 1.387 . S
C3094 H3098 0.950 . S
C3094 C3103 1.390 . S
C3095 C3094 1.387 . S
C3095 C3097 1.387 . S
H3096 C3103 0.950 . S
C3097 C3095 1.387 . S
C3097 C3099 1.390 . S
C3097 H3101 0.950 . S
H3098 C3094 0.950 . S
C3099 C3097 1.390 . S
C3099 C3100 1.387 . S
C3099 H3102 0.950 . S
C3100 C3099 1.387 . S
C3100 C3103 1.387 . S
H3101 C3097 0.950 . S
H3102 C3099 0.950 . S
C3103 C3094 1.390 . S
C3103 H3096 0.950 . S
C3103 C3100 1.387 . S
C3104 C3105 1.387 . S
C3104 H3108 0.950 . S
C3104 C3113 1.390 . S
C3105 C3104 1.387 . S
C3105 C3107 1.387 . S
H3106 C3113 0.950 . S
C3107 C3105 1.387 . S
C3107 C3109 1.390 . S
C3107 H3111 0.950 . S
H3108 C3104 0.950 . S
C3109 C3107 1.390 . S
C3109 C3110 1.387 . S
C3109 H3112 0.950 . S
C3110 C3109 1.387 . S
C3110 C3113 1.387 . S
H3111 C3107 0.950 . S
H3112 C3109 0.950 . S
C3113 C3104 1.390 . S
C3113 H3106 0.950 . S
C3113 C3110 1.387 . S
C3114 C3115 1.387 . S
C3114 H3118 0.950 . S
C3114 C3123 1.390 . S
C3115 C3114 1.387 . S
C3115 C3117 1.387 . S
H3116 C3123 0.950 . S
C3117 C3115 1.387 . S
C3117 C3119 1.390 . S
C3117 H3121 0.950 . S
H3118 C3114 0.950 . S
C3119 C3117 1.390 . S
C3119 C3120 1.387 . S
C3119 H3122 0.950 . S
C3120 C3119 1.387 . S
C3120 C3123 1.387 . S
H3121 C3117 0.950 . S
H3122 C3119 0.950 . S
C3123 C3114 1.390 . S
C3123 H3116 0.950 . S
C3123 C3120 1.387 . S
C3124 C3125 1.387 . S
C3124 H3128 0.950 . S
C3124 C3133 1.390 . S
C3125 C3124 1.387 . S
C3125 C3127 1.387 . S
H3126 C3133 0.950 . S
C3127 C3125 1.387 . S
C3127 C3129 1.390 . S
C3127 H3131 0.950 . S
H3128 C3124 0.950 . S
C3129 C3127 1.390 . S
C3129 C3130 1.387 . S
C3129 H3132 0.950 . S
C3130 C3129 1.387 . S
C3130 C3133 1.387 . S
H3131 C3127 0.950 . S
H3132 C3129 0.950 . S
C3133 C3124 1.390 . S
C3133 H3126 0.950 . S
C3133 C3130 1.387 . S
C3134 C3135 1.387 . S
C3134 H3138 0.950 . S
C3134 C3143 1.390 . S
C3135 C3134 1.387 . S
C3135 C3137 1.387 . S
H3136 C3143 0.950 . S
C3137 C3135 1.387 . S
C3137 C3139 1.390 . S
C3137 H3141 0.950 . S
H3138 C3134 0.950 . S
C3139 C3137 1.390 . S
C3139 C3140 1.387 . S
C3139 H3142 0.950 . S
C3140 C3139 1.387 . S
C3140 C3143 1.387 . S
H3141 C3137 0.950 . S
H3142 C3139 0.950 . S
C3143 C3134 1.390 . S
C3143 H3136 0.950 . S
C3143 C3140 1.387 . S
C3144 C3145 1.387 . S
C3144 H3148 0.950 . S
C3144 C3153 1.390 . S
C3145 C3144 1.387 . S
C3145 C3147 1.387 . S
H3146 C3153 0.950 . S
C3147 C3145 1.387 . S
C3147 C3149 1.390 . S
C3147 H3151 0.950 . S
H3148 C3144 0.950 . S
C3149 C3147 1.390 . S
C3149 C3150 1.387 . S
C3149 H3152 0.950 . S
C3150 C3149 1.387 . S
C3150 C3153 1.387 . S
H3151 C3147 0.950 . S
H3152 C3149 0.950 . S
C3153 C3144 1.390 . S
C3153 H3146 0.950 . S
C3153 C3150 1.387 . S
C3154 C3155 1.387 . S
C3154 H3158 0.950 . S
C3154 C3163 1.390 . S
C3155 C3154 1.387 . S
C3155 C3157 1.387 . S
H3156 C3163 0.950 . S
C3157 C3155 1.387 . S
C3157 C3159 1.390 . S
C3157 H3161 0.950 . S
H3158 C3154 0.950 . S
C3159 C3157 1.390 . S
C3159 C3160 1.387 . S
C3159 H3162 0.950 . S
C3160 C3159 1.387 . S
C3160 C3163 1.387 . S
H3161 C3157 0.950 . S
H3162 C3159 0.950 . S
C3163 C3154 1.390 . S
C3163 H3156 0.950 . S
C3163 C3160 1.387 . S
C3164 C3165 1.387 . S
C3164 H3168 0.950 . S
C3164 C3173 1.390 . S
C3165 C3164 1.387 . S
C3165 C3167 1.387 . S
H3166 C3173 0.950 . S
C3167 C3165 1.387 . S
C3167 C3169 1.390 . S
C3167 H3171 0.950 . S
H3168 C3164 0.950 . S
C3169 C3167 1.390 . S
C3169 C3170 1.387 . S
C3169 H3172 0.950 . S
C3170 C3169 1.387 . S
C3170 C3173 1.387 . S
H3171 C3167 0.950 . S
H3172 C3169 0.950 . S
C3173 C3164 1.390 . S
C3173 H3166 0.950 . S
C3173 C3170 1.387 . S
C3174 C3175 1.387 . S
C3174 H3178 0.950 . S
C3174 C3183 1.390 . S
C3175 C3174 1.387 . S
C3175 C3177 1.387 . S
H3176 C3183 0.950 . S
C3177 C3175 1.387 . S
C3177 C3179 1.390 . S
C3177 H3181 0.950 . S
H3178 C3174 0.950 . S
C3179 C3177 1.390 . S
C3179 C3180 1.387 . S
C3179 H3182 0.950 . S
C3180 C3179 1.387 . S
C3180 C3183 1.387 . S
H3181 C3177 0.950 . S
H3182 C3179 0.950 . S
C3183 C3174 1.390 . S
C3183 H3176 0.950 . S
C3183 C3180 1.387 . S
C3184 C3185 1.387 . S
C3184 H3188 0.950 . S
C3184 C3193 1.390 . S
C3185 C3184 1.387 . S
C3185 C3187 1.387 . S
H3186 C3193 0.950 . S
C3187 C3185 1.387 . S
C3187 C3189 1.390 . S
C3187 H3191 0.950 . S
H3188 C3184 0.950 . S
C3189 C3187 1.390 . S
C3189 C3190 1.387 . S
C3189 H3192 0.950 . S
C3190 C3189 1.387 . S
C3190 C3193 1.387 . S
H3191 C3187 0.950 . S
H3192 C3189 0.950 . S
C3193 C3184 1.390 . S
C3193 H3186 0.950 . S
C3193 C3190 1.387 . S
C3194 C3195 1.387 . S
C3194 H3198 0.950 . S
C3194 C3203 1.390 . S
C3195 C3194 1.387 . S
C3195 C3197 1.387 . S
H3196 C3203 0.950 . S
C3197 C3195 1.387 . S
C3197 C3199 1.390 . S
C3197 H3201 0.950 . S
H3198 C3194 0.950 . S
C3199 C3197 1.390 . S
C3199 C3200 1.387 . S
C3199 H3202 0.950 . S
C3200 C3199 1.387 . S
C3200 C3203 1.387 . S
H3201 C3197 0.950 . S
H3202 C3199 0.950 . S
C3203 C3194 1.390 . S
C3203 H3196 0.950 . S
C3203 C3200 1.387 . S
C3204 C3205 1.387 . S
C3204 H3208 0.950 . S
C3204 C3213 1.390 . S
C3205 C3204 1.387 . S
C3205 C3207 1.387 . S
H3206 C3213 0.950 . S
C3207 C3205 1.387 . S
C3207 C3209 1.390 . S
C3207 H3211 0.950 . S
H3208 C3204 0.950 . S
C3209 C3207 1.390 . S
C3209 C3210 1.387 . S
C3209 H3212 0.950 . S
C3210 C3209 1.387 . S
C3210 C3213 1.387 . S
H3211 C3207 0.950 . S
H3212 C3209 0.950 . S
C3213 C3204 1.390 . S
C3213 H3206 0.950 . S
C3213 C3210 1.387 . S
C3214 C3215 1.387 . S
C3214 H3218 0.950 . S
C3214 C3223 1.390 . S
C3215 C3214 1.387 . S
C3215 C3217 1.387 . S
H3216 C3223 0.950 . S
C3217 C3215 1.387 . S
C3217 C3219 1.390 . S
C3217 H3221 0.950 . S
H3218 C3214 0.950 . S
C3219 C3217 1.390 . S
C3219 C3220 1.387 . S
C3219 H3222 0.950 . S
C3220 C3219 1.387 . S
C3220 C3223 1.387 . S
H3221 C3217 0.950 . S
H3222 C3219 0.950 . S
C3223 C3214 1.390 . S
C3223 H3216 0.950 . S
C3223 C3220 1.387 . S
C3224 C3225 1.387 . S
C3224 H3228 0.950 . S
C3224 C3233 1.390 . S
C3225 C3224 1.387 . S
C3225 C3227 1.387 . S
H3226 C3233 0.950 . S
C3227 C3225 1.387 . S
C3227 C3229 1.390 . S
C3227 H3231 0.950 . S
H3228 C3224 0.950 . S
C3229 C3227 1.390 . S
C3229 C3230 1.387 . S
C3229 H3232 0.950 . S
C3230 C3229 1.387 . S
C3230 C3233 1.387 . S
H3231 C3227 0.950 . S
H3232 C3229 0.950 . S
C3233 C3224 1.390 . S
C3233 H3226 0.950 . S
C3233 C3230 1.387 . S
C3234 C3235 1.387 . S
C3234 H3238 0.950 . S
C3234 C3243 1.390 . S
C3235 C3234 1.387 . S
C3235 C3237 1.387 . S
H3236 C3243 0.950 . S
C3237 C3235 1.387 . S
C3237 C3239 1.390 . S
C3237 H3241 0.950 . S
H3238 C3234 0.950 . S
C3239 C3237 1.390 . S
C3239 C3240 1.387 . S
C3239 H3242 0.950 . S
C3240 C3239 1.387 . S
C3240 C3243 1.387 . S
H3241 C3237 0.950 . S
H3242 C3239 0.950 . S
C3243 C3234 1.390 . S
C3243 H3236 0.950 . S
C3243 C3240 1.387 . S
C3244 C3245 1.387 . S
C3244 H3248 0.950 . S
C3244 C3253 1.390 . S
C3245 C3244 1.387 . S
C3245 C3247 1.387 . S
H3246 C3253 0.950 . S
C3247 C3245 1.387 . S
C3247 C3249 1.390 . S
C3247 H3251 0.950 . S
H3248 C3244 0.950 . S
C3249 C3247 1.390 . S
C3249 C3250 1.387 . S
C3249 H3252 0.950 . S
C3250 C3249 1.387 . S
C3250 C3253 1.387 . S
H3251 C3247 0.950 . S
H3252 C3249 0.950 . S
C3253 C3244 1.390 . S
C3253 H3246 0.950 . S
C3253 C3250 1.387 . S
C3254 C3255 1.387 . S
C3254 H3258 0.950 . S
C3254 C3263 1.390 . S
C3255 C3254 1.387 . S
C3255 C3257 1.387 . S
H3256 C3263 0.950 . S
C3257 C3255 1.387 . S
C3257 C3259 1.390 . S
C3257 H3261 0.950 . S
H3258 C3254 0.950 . S
C3259 C3257 1.390 . S
C3259 C3260 1.387 . S
C3259 H3262 0.950 . S
C3260 C3259 1.387 . S
C3260 C3263 1.387 . S
H3261 C3257 0.950 . S
H3262 C3259 0.950 . S
C3263 C3254 1.390 . S
C3263 H3256 0.950 . S
C3263 C3260 1.387 . S
C1345 C8 1.387 . S
C1350 C1059 1.308 . S
C1355 C345 1.309 . S
C1360 C22 1.387 . S
C1365 C1031 1.306 . S
C1370 C36 1.388 . S
C1375 C373 1.308 . S
C1380 C50 1.387 . S
C1385 C64 1.387 . S
C1390 C1087 1.310 . S
C1395 C78 1.388 . S
C1400 C429 1.306 . S
C1405 C1115 1.308 . S
C1410 C92 1.387 . S
C1415 C106 1.388 . S
C1420 C401 1.306 . S
C1425 C121 1.388 . S
C1430 C1269 1.306 . S
C1435 C611 1.306 . S
C1440 C134 1.388 . S
C1445 C149 1.386 . S
C1450 C625 1.310 . S
C1455 C162 1.387 . S
C1460 C583 1.309 . S
C1465 C177 1.386 . S
C1470 C1325 1.310 . S
C1475 C190 1.388 . S
C1480 C1241 1.306 . S
C1485 C205 1.386 . S
C1490 C1339 1.310 . S
C1495 C218 1.387 . S
C1500 C1311 1.309 . S
C1505 C1143 1.310 . S
C1510 C232 1.387 . S
C1515 C246 1.386 . S
C1520 C555 1.310 . S
C1525 C261 1.386 . S
C1530 C1185 1.310 . S
C1535 C527 1.310 . S
C1540 C274 1.387 . S
C1545 C289 1.388 . S
C1550 C541 1.306 . S
C1555 C1171 1.308 . S
C1560 C302 1.387 . S
C1565 C317 1.387 . S
C1570 C1129 1.308 . S
C1575 C1157 1.310 . S
C1580 C331 1.387 . S
C1585 C723 1.310 . S
C1590 C344 1.387 . S
C1595 C9 1.307 . S
C1600 C358 1.388 . S
C1605 C372 1.388 . S
C1610 C695 1.307 . S
C1615 C386 1.387 . S
C1620 C37 1.308 . S
C1625 C400 1.387 . S
C1630 C751 1.308 . S
C1635 C93 1.309 . S
C1640 C414 1.386 . S
C1645 C428 1.386 . S
C1650 C779 1.310 . S
C1655 C442 1.386 . S
C1660 C65 1.309 . S
C1665 C456 1.388 . S
C1670 C932 1.306 . S
C1675 C275 1.308 . S
C1680 C470 1.387 . S
C1685 C484 1.387 . S
C1690 C288 1.310 . S
C1695 C247 1.309 . S
C1700 C498 1.387 . S
C1705 C512 1.388 . S
C1710 C988 1.306 . S
C1715 C526 1.386 . S
C1720 C905 1.310 . S
C1725 C540 1.388 . S
C1730 C1002 1.306 . S
C1735 C975 1.307 . S
C1740 C554 1.387 . S
C1745 C807 1.306 . S
C1750 C568 1.388 . S
C1755 C219 1.309 . S
C1760 C582 1.387 . S
C1765 C848 1.306 . S
C1770 C596 1.388 . S
C1775 C610 1.387 . S
C1780 C191 1.308 . S
C1785 C624 1.386 . S
C1790 C204 1.310 . S
C1795 C638 1.387 . S
C1800 C835 1.308 . S
C1805 C792 1.306 . S
C1810 C652 1.388 . S
C1815 C666 1.388 . S
C1820 C820 1.306 . S
C1825 C387 1.307 . S
C1830 C680 1.387 . S
C1835 C1017 1.309 . S
C1840 C694 1.386 . S
C1845 C708 1.387 . S
C1850 C359 1.309 . S
C1855 C1045 1.310 . S
C1860 C722 1.386 . S
C1865 C736 1.387 . S
C1870 C415 1.309 . S
C1875 C1101 1.309 . S
C1880 C750 1.387 . S
C1885 C764 1.387 . S
C1890 C443 1.309 . S
C1895 C1073 1.306 . S
C1900 C778 1.388 . S
C1905 C597 1.310 . S
C1910 C793 1.386 . S
C1915 C806 1.387 . S
C1920 C1283 1.310 . S
C1925 C1297 1.309 . S
C1930 C821 1.386 . S
C1935 C834 1.388 . S
C1940 C1255 1.306 . S
C1945 C653 1.310 . S
C1950 C849 1.386 . S
C1955 C862 1.387 . S
C1960 C569 1.307 . S
C1965 C667 1.309 . S
C1970 C877 1.387 . S
C1975 C639 1.310 . S
C1980 C890 1.387 . S
C1985 C471 1.309 . S
C1990 C904 1.386 . S
C1995 C1227 1.308 . S
C2000 C918 1.387 . S
C2005 C933 1.388 . S
C2010 C513 1.306 . S
C2015 C946 1.388 . S
C2020 C1199 1.307 . S
C2025 C1213 1.310 . S
C2030 C961 1.386 . S
C2035 C499 1.307 . S
C2040 C974 1.388 . S
C2045 C457 1.310 . S
C2050 C989 1.386 . S
C2055 C485 1.310 . S
C2060 C1003 1.386 . S
C2065 C1016 1.387 . S
C2070 C51 1.307 . S
C2075 C1030 1.387 . S
C2080 C681 1.308 . S
C2085 C1044 1.387 . S
C2090 C23 1.307 . S
C2095 C1058 1.387 . S
C2100 C709 1.309 . S
C2105 C79 1.306 . S
C2110 C1072 1.387 . S
C2115 C765 1.308 . S
C2120 C1086 1.387 . S
C2125 C107 1.310 . S
C2130 C1100 1.387 . S
C2135 C737 1.306 . S
C2140 C1114 1.388 . S
C2145 C1128 1.387 . S
C2150 C260 1.308 . S
C2155 C947 1.309 . S
C2160 C1142 1.387 . S
C2165 C1156 1.388 . S
C2170 C960 1.306 . S
C2175 C1170 1.387 . S
C2180 C919 1.310 . S
C2185 C316 1.309 . S
C2190 C1184 1.386 . S
C2195 C233 1.309 . S
C2200 C1198 1.387 . S
C2205 C1212 1.388 . S
C2210 C330 1.306 . S
C2215 C303 1.308 . S
C2220 C1226 1.387 . S
C2225 C1240 1.387 . S
C2230 C135 1.308 . S
C2235 C1254 1.388 . S
C2240 C891 1.306 . S
C2245 C176 1.310 . S
C2250 C1268 1.387 . S
C2255 C1282 1.388 . S
C2260 C863 1.307 . S
C2265 C876 1.306 . S
C2270 C1296 1.388 . S
C2275 C1310 1.387 . S
C2280 C163 1.308 . S
C2285 C1324 1.387 . S
C2290 C120 1.308 . S
C2295 C1338 1.387 . S
C2300 C148 1.307 . S
C2305 C6 1.477 . S
C2310 C609 1.470 . S
C2315 C623 1.470 . S
C2320 C20 1.477 . S
C2325 C581 1.468 . S
C2330 C34 1.479 . S
C2335 C48 1.477 . S
C2340 C1267 1.470 . S
C2345 C62 1.479 . S
C2350 C1309 1.469 . S
C2355 C76 1.477 . S
C2360 C1323 1.470 . S
C2365 C1239 1.470 . S
C2370 C90 1.477 . S
C2375 C1337 1.468 . S
C2380 C104 1.479 . S
C2385 C371 1.470 . S
C2390 C119 1.478 . S
C2395 C132 1.479 . S
C2400 C1057 1.469 . S
C2405 C343 1.470 . S
C2410 C147 1.477 . S
C2415 C1029 1.469 . S
C2420 C160 1.477 . S
C2425 C427 1.470 . S
C2430 C175 1.478 . S
C2435 C188 1.479 . S
C2440 C1113 1.469 . S
C2445 C203 1.477 . S
C2450 C399 1.469 . S
C2455 C216 1.477 . S
C2460 C1085 1.470 . S
C2465 C230 1.477 . S
C2470 C1183 1.470 . S
C2475 C455 1.470 . S
C2480 C244 1.478 . S
C2485 C259 1.477 . S
C2490 C1141 1.469 . S
C2495 C272 1.478 . S
C2500 C483 1.470 . S
C2505 C287 1.478 . S
C2510 C497 1.470 . S
C2515 C300 1.477 . S
C2520 C1211 1.470 . S
C2525 C1225 1.468 . S
C2530 C315 1.478 . S
C2535 C1197 1.470 . S
C2540 C329 1.478 . S
C2545 C273 1.469 . S
C2550 C342 1.477 . S
C2555 C356 1.477 . S
C2560 C286 1.470 . S
C2565 C370 1.477 . S
C2570 C245 1.470 . S
C2575 C384 1.477 . S
C2580 C930 1.470 . S
C2585 C973 1.469 . S
C2590 C398 1.479 . S
C2595 C986 1.468 . S
C2600 C412 1.479 . S
C2605 C426 1.478 . S
C2610 C903 1.469 . S
C2615 C1000 1.469 . S
C2620 C440 1.477 . S
C2625 C454 1.477 . S
C2630 C35 1.470 . S
C2635 C721 1.468 . S
C2640 C468 1.478 . S
C2645 C482 1.478 . S
C2650 C7 1.470 . S
C2655 C693 1.470 . S
C2660 C496 1.477 . S
C2665 C510 1.477 . S
C2670 C91 1.469 . S
C2675 C777 1.469 . S
C2680 C524 1.477 . S
C2685 C63 1.470 . S
C2690 C538 1.478 . S
C2695 C749 1.470 . S
C2700 C552 1.477 . S
C2705 C566 1.479 . S
C2710 C846 1.469 . S
C2715 C580 1.479 . S
C2720 C118 1.469 . S
C2725 C805 1.470 . S
C2730 C594 1.478 . S
C2735 C608 1.477 . S
C2740 C146 1.470 . S
C2745 C161 1.469 . S
C2750 C622 1.477 . S
C2755 C874 1.470 . S
C2760 C636 1.477 . S
C2765 C889 1.469 . S
C2770 C650 1.478 . S
C2775 C861 1.470 . S
C2780 C664 1.478 . S
C2785 C678 1.477 . S
C2790 C1281 1.470 . S
C2795 C692 1.479 . S
C2800 C1295 1.468 . S
C2805 C706 1.477 . S
C2810 C1253 1.470 . S
C2815 C595 1.470 . S
C2820 C720 1.477 . S
C2825 C734 1.479 . S
C2830 C637 1.469 . S
C2835 C651 1.468 . S
C2840 C748 1.478 . S
C2845 C567 1.469 . S
C2850 C762 1.479 . S
C2855 C665 1.470 . S
C2860 C776 1.478 . S
C2865 C791 1.477 . S
C2870 C1043 1.469 . S
C2875 C385 1.469 . S
C2880 C804 1.478 . S
C2885 C819 1.478 . S
C2890 C1015 1.468 . S
C2895 C832 1.478 . S
C2900 C357 1.470 . S
C2905 C847 1.477 . S
C2910 C1099 1.469 . S
C2915 C860 1.478 . S
C2920 C441 1.469 . S
C2925 C1071 1.468 . S
C2930 C875 1.478 . S
C2935 C413 1.469 . S
C2940 C888 1.477 . S
C2945 C902 1.477 . S
C2950 C511 1.470 . S
C2955 C916 1.477 . S
C2960 C1127 1.470 . S
C2965 C931 1.478 . S
C2970 C469 1.468 . S
C2975 C1155 1.470 . S
C2980 C944 1.477 . S
C2985 C959 1.479 . S
C2990 C1169 1.469 . S
C2995 C972 1.478 . S
C3000 C539 1.468 . S
C3005 C553 1.469 . S
C3010 C987 1.478 . S
C3015 C1001 1.477 . S
C3020 C525 1.469 . S
C3025 C1014 1.477 . S
C3030 C945 1.470 . S
C3035 C958 1.468 . S
C3040 C1028 1.478 . S
C3045 C917 1.470 . S
C3050 C1042 1.477 . S
C3055 C1056 1.477 . S
C3060 C258 1.470 . S
C3065 C1070 1.477 . S
C3070 C301 1.470 . S
C3075 C1084 1.477 . S
C3080 C314 1.470 . S
C3085 C231 1.469 . S
C3090 C1098 1.479 . S
C3095 C1112 1.477 . S
C3100 C328 1.470 . S
C3105 C1126 1.477 . S
C3110 C707 1.469 . S
C3115 C1140 1.477 . S
C3120 C49 1.470 . S
C3125 C1154 1.478 . S
C3130 C679 1.468 . S
C3135 C1168 1.477 . S
C3140 C21 1.469 . S
C3145 C1182 1.477 . S
C3150 C763 1.469 . S
C3155 C1196 1.479 . S
C3160 C105 1.469 . S
C3165 C1210 1.478 . S
C3170 C735 1.468 . S
C3175 C1224 1.478 . S
C3180 C77 1.468 . S
C3185 C1238 1.479 . S
C3190 C174 1.468 . S
C3195 C1252 1.478 . S
C3200 C790 1.468 . S
C3205 C1266 1.478 . S
C3210 C133 1.470 . S
C3215 C1280 1.478 . S
C3220 C818 1.468 . S
C3225 C1294 1.477 . S
C3230 C833 1.469 . S
C3235 C202 1.470 . S
C3240 C1308 1.477 . S
C3245 C1322 1.478 . S
C3250 C217 1.469 . S
C3255 C1336 1.477 . S
C3260 C189 1.469 . S
