# Generated by pormake.
# Topology fnt, (5)-cn, num edge types: 1
# Building blocks:
#     Node 0, Type 0, BuildingBlock: XOMCOT_clean_sbu_1, # of connection points: 5
#     Node 1, Type 0, BuildingBlock: XOMCOT_clean_sbu_1, # of connection points: 5
#     Node 2, Type 0, BuildingBlock: XOMCOT_clean_sbu_1, # of connection points: 5
#     Node 3, Type 0, BuildingBlock: XOMCOT_clean_sbu_1, # of connection points: 5
#     Node 4, Type 0, BuildingBlock: XOMCOT_clean_sbu_1, # of connection points: 5
#     Node 5, Type 0, BuildingBlock: XOMCOT_clean_sbu_1, # of connection points: 5
#     Edge 6, Type (0, 0), BuildingBlock: XUDNAN_clean_linker_2, # of connection points: 2
#     Edge 7, Type (0, 0), BuildingBlock: XUDNAN_clean_linker_2, # of connection points: 2
#     Edge 8, Type (0, 0), BuildingBlock: XUDNAN_clean_linker_2, # of connection points: 2
#     Edge 9, Type (0, 0), BuildingBlock: XUDNAN_clean_linker_2, # of connection points: 2
#     Edge 10, Type (0, 0), BuildingBlock: XUDNAN_clean_linker_2, # of connection points: 2
#     Edge 11, Type (0, 0), BuildingBlock: XUDNAN_clean_linker_2, # of connection points: 2
#     Edge 12, Type (0, 0), BuildingBlock: XUDNAN_clean_linker_2, # of connection points: 2
#     Edge 13, Type (0, 0), BuildingBlock: XUDNAN_clean_linker_2, # of connection points: 2
#     Edge 14, Type (0, 0), BuildingBlock: XUDNAN_clean_linker_2, # of connection points: 2
#     Edge 15, Type (0, 0), BuildingBlock: XUDNAN_clean_linker_2, # of connection points: 2
#     Edge 16, Type (0, 0), BuildingBlock: XUDNAN_clean_linker_2, # of connection points: 2
#     Edge 17, Type (0, 0), BuildingBlock: XUDNAN_clean_linker_2, # of connection points: 2
#     Edge 18, Type (0, 0), BuildingBlock: XUDNAN_clean_linker_2, # of connection points: 2
#     Edge 19, Type (0, 0), BuildingBlock: XUDNAN_clean_linker_2, # of connection points: 2
#     Edge 20, Type (0, 0), BuildingBlock: XUDNAN_clean_linker_2, # of connection points: 2
# Relax obj value: 0.137
# Max RMSD: 0.168
# Mean RMSD: 0.168
data_MOF--net-fnt--node1-XOMCOT_clean_sbu_1--edge1-XUDNAN_clean_linker_2
_symmetry_space_group_name_H-M    P1
_symmetry_Int_Tables_number       1
_symmetry_cell_setting            triclinic
loop_
_symmetry_equiv_pos_as_xyz
'x, y, z'
_cell_length_a     27.146697
_cell_length_b     27.347546
_cell_length_c     47.525952
_cell_angle_alpha  90.283721
_cell_angle_beta   89.838588
_cell_angle_gamma 120.09067
loop_
_atom_site_label
_atom_site_type_symbol
_atom_site_fract_x
_atom_site_fract_y
_atom_site_fract_z
_atom_type_partial_charge
C0 C 0.1543 0.3735 0.08495 0.0
C1 C 0.12764 0.36834 0.11023 0.0
N2 N 0.1223 0.32258 0.12355 0.0
N3 N 0.1655 0.33091 0.08201 0.0
C4 C 0.14604 0.3008 0.10608 0.0
H5 H 0.1643 0.40588 0.06937 0.0
Co6 Co 0.19975 0.32083 0.0496 0.0
C7 C 0.11876 0.19562 0.0436 0.0
O8 O 0.09977 0.20348 1.01964 0.0
N9 N 0.2367 0.31326 1.01722 0.0
C10 C 0.30464 0.3436 0.98449 0.0
C11 C 0.28695 0.35726 1.00885 0.0
C12 C 0.22511 0.27285 0.99745 0.0
N13 N 0.26558 0.29044 0.97716 0.0
O14 O 0.26504 0.33361 0.07162 0.0
H15 H 0.30856 0.39788 1.01931 0.0
H16 H 0.18828 0.23126 0.99762 0.0
O17 O 0.15922 0.23787 0.05665 0.0
C18 C 0.29452 0.38597 0.07836 0.0
O19 O 0.27479 0.41957 0.0719 0.0
N20 N 0.13993 0.317 1.02761 0.0
C21 C 0.06702 0.3511 1.00565 0.0
C22 C 0.04704 0.30761 1.02551 0.0
C23 C 0.08448 0.29153 1.03651 0.0
C24 C 0.15821 0.35624 1.00667 0.0
C25 C 0.12228 0.37335 0.99518 0.0
H26 H 0.07041 0.26259 0.05406 0.0
H27 H 0.20246 0.37921 1.00072 0.0
H28 H 0.14812 0.26308 0.11045 0.0
H29 H 0.11364 0.39646 0.1183 0.0
H30 H 0.34231 0.37165 0.97254 0.0
H31 H 0.00484 0.29027 1.03447 0.0
H32 H 0.13921 0.40743 0.98001 0.0
C33 C 0.86822 0.24234 0.44032 0.0
C34 C 0.85529 0.22094 0.46713 0.0
N35 N 0.83087 0.16437 0.46554 0.0
N36 N 0.85277 0.19959 0.42173 0.0
C37 C 0.82977 0.15241 0.43782 0.0
H38 H 0.88701 0.28643 0.43493 0.0
Co39 Co 0.86002 0.20563 0.38224 0.0
C40 C 0.89645 0.12248 0.36506 0.0
O41 O 0.8775 0.11977 0.33939 0.0
N42 N 0.86781 0.21278 0.34249 0.0
C43 C 0.85116 0.21577 0.29687 0.0
C44 C 0.82757 0.20455 0.3234 0.0
C45 C 0.9159 0.23076 0.32705 0.0
N46 N 0.90665 0.23171 0.29918 0.0
O47 O 0.93253 0.27405 0.38624 0.0
H48 H 0.78369 0.19103 0.32832 0.0
H49 H 0.95669 0.24156 0.33611 0.0
O50 O 0.8932 0.15539 0.38333 0.0
C51 C 0.91849 0.31141 0.38097 0.0
O52 O 0.86513 0.29402 0.37453 0.0
N53 N 0.78537 0.14558 0.37873 0.0
C54 C 0.66909 0.08375 0.3686 0.0
C55 C 0.7035 0.06017 0.36282 0.0
C56 C 0.76195 0.09161 0.36856 0.0
C57 C 0.75157 0.1674 0.38574 0.0
C58 C 0.69342 0.13718 0.38107 0.0
H59 H 0.78738 0.0727 0.36397 0.0
H60 H 0.77049 0.20999 0.39389 0.0
H61 H 0.81257 0.11011 0.42938 0.0
H62 H 0.862 0.24501 0.48631 0.0
H63 H 0.82876 0.211 0.27733 0.0
H64 H 0.6856 0.01851 0.35345 0.0
H65 H 0.66824 0.15692 0.38567 0.0
C66 C 0.62703 0.76422 0.74422 0.0
C67 C 0.61473 0.74254 0.77103 0.0
N68 N 0.65163 0.78234 0.78893 0.0
N69 N 0.67199 0.81727 0.74505 0.0
C70 C 0.68499 0.82762 0.7727 0.0
H71 H 0.60554 0.74214 0.72515 0.0
Co72 Co 0.70563 0.86335 0.71337 0.0
C73 C 0.8187 0.89971 0.74762 0.0
O74 O 0.80295 0.85744 0.76512 0.0
N75 N 0.73971 0.90984 0.68156 0.0
C76 C 0.80499 0.95816 0.64888 0.0
C77 C 0.79344 0.92696 0.67293 0.0
C78 C 0.71886 0.93014 0.6617 0.0
N79 N 0.75816 0.96005 0.64171 0.0
O80 O 0.68692 0.91748 0.72904 0.0
H81 H 0.82216 0.91567 0.68277 0.0
H82 H 0.67565 0.92236 0.66157 0.0
O83 O 0.78277 0.90039 0.73037 0.0
C84 C 0.63425 0.89536 0.72236 0.0
O85 O 0.61197 0.85037 0.70602 0.0
N86 N 0.71459 0.80603 0.69655 0.0
C87 C 0.67755 0.69666 0.67739 0.0
C88 C 0.71416 0.71841 0.70065 0.0
C89 C 0.73271 0.7737 0.70983 0.0
C90 C 0.68314 0.78697 0.6725 0.0
C91 C 0.66492 0.73281 0.66232 0.0
H92 H 0.75536 0.78726 0.72938 0.0
H93 H 0.66638 0.81123 0.66281 0.0
H94 H 0.7184 0.86757 0.78083 0.0
H95 H 0.5827 0.69997 0.77674 0.0
H96 H 0.84404 0.97595 0.63679 0.0
H97 H 0.72467 0.69158 0.71289 0.0
H98 H 0.63598 0.7175 0.64458 0.0
C99 C 0.79203 0.5876 0.08297 0.0
C100 C 0.80388 0.57658 0.10959 0.0
N101 N 0.82738 0.62501 0.12462 0.0
N102 N 0.8085 0.6429 0.08103 0.0
C103 C 0.82881 0.6643 0.10693 0.0
H104 H 0.77478 0.55774 0.06572 0.0
Co105 Co 0.8079 0.68022 0.04788 0.0
C106 C 0.91123 0.7897 0.06887 0.0
O107 O 0.94806 0.77587 0.05965 0.0
N108 N 0.80694 0.71933 1.01496 0.0
C109 C 0.83822 0.78215 0.98025 0.0
C110 C 0.85269 0.76583 1.00458 0.0
C111 C 0.76497 0.70802 0.99614 0.0
N112 N 0.78301 0.74557 0.97461 0.0
O113 O 0.73983 0.67754 0.06148 0.0
H114 H 0.89492 0.78589 1.01343 0.0
H115 H 0.72262 0.6718 0.99765 0.0
O116 O 0.85759 0.75617 0.06544 0.0
C117 C 0.70132 0.62867 0.05286 0.0
O118 O 0.71714 0.60048 1.03619 0.0
N119 N 0.86827 0.67114 1.03279 0.0
C120 C 0.9176 0.60907 1.01271 0.0
C121 C 0.93217 0.63488 0.03925 0.0
C122 C 0.9064 0.66492 0.04907 0.0
C123 C 0.85681 0.64882 1.00615 0.0
C124 C 0.88161 0.61865 0.99561 0.0
H125 H 0.91322 0.67812 0.07082 0.0
H126 H 0.8234 0.64822 0.99371 0.0
H127 H 0.8472 0.70848 0.11233 0.0
H128 H 0.79675 0.53623 0.11707 0.0
H129 H 0.86691 0.81813 0.96764 0.0
H130 H 0.9589 0.6274 0.0534 0.0
H131 H 0.86899 0.59905 0.97503 0.0
C132 C 0.20398 0.84631 0.41123 0.0
C133 C 0.22604 0.85871 0.43798 0.0
N134 N 0.1846 0.85221 0.45593 0.0
N135 N 0.14891 0.83272 0.41195 0.0
C136 C 0.13776 0.83444 0.43962 0.0
H137 H 0.22722 0.84874 0.39227 0.0
Co138 Co 0.10254 0.81811 0.37989 0.0
C139 C 0.06571 0.89282 0.41378 0.0
O140 O 0.1078 0.91875 0.43175 0.0
N141 N 0.05632 0.80422 0.3478 0.0
C142 C 0.01494 0.82364 0.31278 0.0
C143 C 0.0456 0.84351 0.33708 0.0
C144 C 0.03156 0.76044 0.32933 0.0
N145 N 0.00573 0.77116 0.30766 0.0
O146 O 0.04786 0.74718 0.39563 0.0
H147 H 0.06115 0.88534 0.34578 0.0
H148 H 0.03361 0.72216 0.33151 0.0
O149 O 0.06529 0.85724 0.39606 0.0
C150 C 0.06915 0.71564 0.39054 0.0
O151 O 0.11707 0.73662 0.37637 0.0
N152 N 0.15965 0.88328 0.36291 0.0
C153 C 0.26787 0.95865 0.34317 0.0
C154 C 0.24226 0.97551 0.36386 0.0
C155 C 0.18771 0.93685 0.37357 0.0
C156 C 0.1814 0.8686 0.34069 0.0
C157 C 0.23522 0.90579 0.33029 0.0
H158 H 0.17122 0.94844 0.39132 0.0
H159 H 0.15942 0.82557 0.33295 0.0
H160 H 0.09654 0.82511 0.44747 0.0
H161 H 0.26972 0.87257 0.44357 0.0
H162 H 0.00273 0.84764 0.29941 0.0
H163 H 0.26605 0.01625 0.37417 0.0
H164 H 0.25327 0.8905 0.31458 0.0
C165 C 0.40369 0.20306 0.7577 0.0
C166 C 0.39751 0.22013 0.78402 0.0
N167 N 0.34658 0.18117 0.79452 0.0
N168 N 0.3568 0.15361 0.75121 0.0
C169 C 0.32274 0.14111 0.77411 0.0
H170 H 0.43974 0.22586 0.74382 0.0
Co171 Co 0.34682 0.1154 0.71666 0.0
C172 C 0.22832 0.08904 0.70459 0.0
O173 O 0.24756 0.11695 0.68092 0.0
N174 N 0.33881 0.07574 0.68212 0.0
C175 C 0.36907 0.04254 0.64719 0.0
C176 C 0.38371 0.07281 0.67179 0.0
C177 C 0.29621 0.0441 0.66362 0.0
N178 N 0.31403 0.02471 0.6418 0.0
O179 O 0.34836 0.05414 0.73604 0.0
H180 H 0.4255 0.0928 0.68125 0.0
H181 H 0.25285 0.03467 0.66586 0.0
O182 O 0.26218 0.0816 0.72052 0.0
C183 C 0.40166 0.0723 0.73959 0.0
O184 O 0.43758 0.12521 0.73311 0.0
N185 N 0.35588 0.18045 0.69746 0.0
C186 C 0.40237 0.29141 0.67819 0.0
C187 C 0.35836 0.26981 0.69816 0.0
C188 C 0.33536 0.21395 0.70743 0.0
C189 C 0.39755 0.20099 0.67743 0.0
C190 C 0.42028 0.25553 0.6671 0.0
H191 H 0.30414 0.19909 0.72416 0.0
H192 H 0.41768 0.17756 0.67098 0.0
H193 H 0.28144 0.10331 0.77574 0.0
H194 H 0.42789 0.25918 0.79422 0.0
H195 H 0.39697 0.0341 0.63434 0.0
H196 H 0.34389 0.29662 0.70749 0.0
H197 H 0.45542 0.27105 0.65235 0.0
H198 H 0.37933 0.37775 0.05196 0.0
H199 H 0.34574 0.46219 0.12026 0.0
H200 H 0.44838 0.53274 0.12335 0.0
H201 H 0.52539 0.4097 0.07516 0.0
H202 H 0.55041 0.42106 0.0393 0.0
H203 H 0.47688 0.37117 0.04691 0.0
H204 H 0.44648 0.42402 1.01226 0.0
H205 H 0.51973 0.47506 1.00516 0.0
H206 H 0.47197 0.49822 1.01763 0.0
H207 H 0.55358 0.6025 0.11411 0.0
H208 H 0.6526 0.65902 0.09604 0.0
H209 H 0.6141 0.53074 1.03222 0.0
C210 C 0.39413 0.40917 0.06859 0.0
C211 C 0.35502 0.41353 0.08651 0.0
C212 C 0.37544 0.45725 0.10694 0.0
C213 C 0.43359 0.49785 0.10864 0.0
C214 C 0.47083 0.49447 0.08955 0.0
C215 C 0.45196 0.45065 0.07018 0.0
C216 C 0.49912 0.45983 0.05006 0.0
C217 C 0.51383 0.41264 0.05305 0.0
C218 C 0.48336 0.46457 1.01949 0.0
C219 C 0.54696 0.51588 0.06079 0.0
C220 C 0.53025 0.53528 0.08366 0.0
C221 C 0.5673 0.58729 0.09638 0.0
C222 C 0.62326 0.61944 0.08586 0.0
C223 C 0.64131 0.5995 0.06276 0.0
C224 C 0.60205 0.54733 0.05003 0.0
H225 H 0.91123 0.39248 0.35292 0.0
H226 H 0.00737 0.36843 0.41863 0.0
H227 H 0.05199 0.47038 0.43122 0.0
H228 H 0.01902 0.53459 0.33213 0.0
H229 H 0.96645 0.55517 0.32594 0.0
H230 H 0.94807 0.48261 0.32126 0.0
H231 H 0.86401 0.45255 0.35604 0.0
H232 H 0.88347 0.52522 0.36164 0.0
H233 H 0.87795 0.48161 0.39116 0.0
H234 H 0.08202 0.57515 0.43738 0.0
H235 H 0.10372 0.6743 0.43283 0.0
H236 H 0.98218 0.62525 0.36483 0.0
C237 C 0.94267 0.40884 0.3696 0.0
C238 C 0.95628 0.37285 0.38473 0.0
C239 C 0.99725 0.39563 0.40648 0.0
C240 C 0.02203 0.4532 0.41397 0.0
C241 C 0.0051 0.48679 0.39948 0.0
C242 C 0.96702 0.4654 0.37741 0.0
C243 C 0.95448 0.5091 0.36534 0.0
C244 C 0.97315 0.52109 0.33434 0.0
C245 C 0.89122 0.49101 0.36876 0.0
C246 C 0.99154 0.55901 0.384 0.0
C247 C 0.02032 0.54544 0.40367 0.0
C248 C 0.05914 0.58584 0.42231 0.0
C249 C 0.07058 0.64178 0.41988 0.0
C250 C 0.04274 0.65649 0.39929 0.0
C251 C 0.00191 0.61438 0.3816 0.0
H252 H 0.51394 0.1045 0.74296 0.0
H253 H 0.34532 0.95623 0.74796 0.0
H254 H 0.38953 0.89595 0.75095 0.0
H255 H 0.56958 0.04686 0.69708 0.0
H256 H 0.64031 0.08213 0.71178 0.0
H257 H 0.59621 0.11364 0.71504 0.0
H258 H 0.60812 0.11794 0.7692 0.0
H259 H 0.65256 0.08654 0.76614 0.0
H260 H 0.59026 0.05436 0.78829 0.0
H261 H 0.45189 0.85208 0.74796 0.0
H262 H 0.52497 0.82669 0.7372 0.0
H263 H 0.65356 0.00405 0.73224 0.0
C264 C 0.48594 0.05942 0.74541 0.0
C265 C 0.42583 0.03513 0.74552 0.0
C266 C 0.39126 0.97588 0.7482 0.0
C267 C 0.41614 0.94143 0.7499 0.0
C268 C 0.47556 0.96695 0.74892 0.0
C269 C 0.50995 0.0247 0.74676 0.0
C270 C 0.57214 0.04156 0.74307 0.0
C271 C 0.59592 0.07287 0.71509 0.0
C272 C 0.60788 0.07721 0.76818 0.0
C273 C 0.56759 0.98405 0.7427 0.0
C274 C 0.51154 0.94171 0.74659 0.0
C275 C 0.49581 0.88494 0.74527 0.0
C276 C 0.53778 0.87101 0.73907 0.0
C277 C 0.5951 0.91343 0.73405 0.0
C278 C 0.61047 0.9708 0.73662 0.0
H279 H 0.62012 0.61289 0.71568 0.0
H280 H 0.65587 0.6423 0.62642 0.0
H281 H 0.58489 0.54222 0.6166 0.0
H282 H 0.59746 0.46892 0.71683 0.0
H283 H 0.54123 0.44566 0.74253 0.0
H284 H 0.59763 0.51833 0.74215 0.0
H285 H 0.52232 0.54973 0.73816 0.0
H286 H 0.46577 0.47711 0.73773 0.0
H287 H 0.47218 0.52364 0.70945 0.0
H288 H 0.50713 0.44022 0.61649 0.0
H289 H 0.43492 0.34082 0.62646 0.0
H290 H 0.44907 0.379 0.71574 0.0
C291 C 0.61433 0.59784 0.69415 0.0
C292 C 0.64396 0.63508 0.6718 0.0
C293 C 0.63381 0.61426 0.64381 0.0
C294 C 0.59342 0.55766 0.63805 0.0
C295 C 0.56347 0.52261 0.66051 0.0
C296 C 0.57397 0.54167 0.68802 0.0
C297 C 0.53516 0.49576 0.70829 0.0
C298 C 0.56994 0.4813 0.72864 0.0
C299 C 0.49658 0.51259 0.72435 0.0
C300 C 0.50114 0.44781 0.68788 0.0
C301 C 0.51797 0.46424 0.66041 0.0
C302 C 0.49361 0.42687 0.63791 0.0
C303 C 0.45247 0.37069 0.64373 0.0
C304 C 0.43605 0.35253 0.6718 0.0
C305 C 0.45982 0.39204 0.69404 0.0
H306 H 0.02099 0.61451 1.01735 0.0
H307 H 0.84581 0.50386 0.99174 0.0
H308 H 0.8662 0.42664 0.98346 0.0
H309 H 0.08547 0.55895 0.96739 0.0
H310 H 0.1382 0.56568 0.9925 0.0
H311 H 0.11093 0.61368 0.99388 0.0
H312 H 0.08182 0.58664 0.04599 0.0
H313 H 0.1088 0.53854 0.04474 0.0
H314 H 0.03606 0.5134 0.05505 0.0
H315 H 0.90286 0.35822 0.98344 0.0
H316 H 0.95577 0.30646 0.98863 0.0
H317 H 0.10681 0.46283 1.01256 0.0
C318 C 0.98728 0.57431 1.00954 0.0
C319 C 0.9321 0.56534 1.00486 0.0
C320 C 0.88879 0.512 0.99487 0.0
C321 C 0.89983 0.46776 0.99026 0.0
C322 C 0.9545 0.4777 0.99548 0.0
C323 C 0.99769 0.52986 1.00457 0.0
C324 C 0.05206 0.52888 1.00977 0.0
C325 C 0.09946 0.56919 0.98968 0.0
C326 C 0.07075 0.54266 0.04072 0.0
C327 C 0.03233 0.4678 1.00279 0.0
C328 C 0.97594 0.43879 0.99462 0.0
C329 C 0.94741 0.38072 0.98922 0.0
C330 C 0.97753 0.35166 0.99226 0.0
C331 C 0.03547 0.38105 1.00029 0.0
C332 C 0.063 0.43977 1.00547 0.0
H333 H 0.34734 0.004 0.38462 0.0
H334 H 0.32933 0.97662 0.2943 0.0
H335 H 0.43044 0.00223 0.29112 0.0
H336 H 0.4953 0.12488 0.38327 0.0
H337 H 0.51262 0.10206 0.41539 0.0
H338 H 0.44103 0.08756 0.40942 0.0
H339 H 0.4042 0.98117 0.41792 0.0
H340 H 0.47576 0.99494 0.42287 0.0
H341 H 0.43089 0.94497 0.39646 0.0
H342 H 0.53054 0.02069 0.2989 0.0
H343 H 0.62702 0.04703 0.3159 0.0
H344 H 0.57769 0.06269 0.4008 0.0
C345 C 0.36506 0.00571 0.36396 0.0
C346 C 0.33049 0.98856 0.33967 0.0
C347 C 0.35513 0.9896 0.31318 0.0
C348 C 0.41235 0.00379 0.3112 0.0
C349 C 0.44425 0.01732 0.33586 0.0
C350 C 0.42185 0.01981 0.36162 0.0
C351 C 0.46428 0.03383 0.38513 0.0
C352 C 0.47921 0.09046 0.39911 0.0
C353 C 0.44245 0.98586 0.40686 0.0
C354 C 0.51392 0.03819 0.36864 0.0
C355 C 0.50155 0.02812 0.34028 0.0
C356 C 0.54087 0.02912 0.32101 0.0
C357 C 0.59514 0.04328 0.33086 0.0
C358 C 0.60921 0.05644 0.3596 0.0
C359 C 0.56765 0.05251 0.37874 0.0
H360 H 0.01968 0.1041 1.02573 0.0
H361 H 0.15244 0.1557 0.08861 0.0
H362 H 0.10472 0.05764 0.10684 0.0
H363 H 0.90132 0.0027 0.07007 0.0
H364 H 0.86715 0.95451 0.04115 0.0
H365 H 0.90926 0.02939 1.03475 0.0
H366 H 0.9711 0.01202 0.99891 0.0
H367 H 0.92886 0.93725 1.00499 0.0
H368 H 0.00495 0.97285 1.00971 0.0
H369 H 0.04833 0.95133 0.11407 0.0
H370 H 0.98947 0.84733 0.10944 0.0
H371 H 0.89026 0.86692 0.044 0.0
C372 C 0.03868 0.09515 0.04352 0.0
C373 C 0.09014 0.13772 0.05565 0.0
C374 C 0.11317 0.1239 0.07895 0.0
C375 C 0.08618 0.06835 0.0895 0.0
C376 C 0.03567 0.02737 0.07684 0.0
C377 C 0.01203 0.04035 0.05445 0.0
C378 C 0.95916 0.98841 0.04352 0.0
C379 C 0.90608 0.99412 0.04763 0.0
C380 C 0.96649 0.97697 1.01246 0.0
C381 C 0.95756 0.94348 0.06262 0.0
C382 C 1.00183 0.96681 0.08186 0.0
C383 C 0.01271 0.9329 0.09964 0.0
C384 C 0.97888 0.87391 0.09702 0.0
C385 C 0.93421 0.84934 0.07707 0.0
C386 C 0.92246 0.88466 0.06028 0.0
H387 H 0.07442 0.99222 0.43281 0.0
H388 H 0.96599 0.84047 0.38447 0.0
H389 H 0.90609 0.88045 0.37078 0.0
H390 H 0.95824 0.02041 0.45593 0.0
H391 H 0.00385 0.09576 0.45257 0.0
H392 H 0.03368 0.05221 0.46207 0.0
H393 H 0.1036 0.09262 0.42007 0.0
H394 H 0.07367 0.13573 0.41023 0.0
H395 H 0.07586 0.08733 0.38506 0.0
H396 H 0.86665 0.94042 0.35683 0.0
H397 H 0.84521 0.01536 0.34548 0.0
H398 H 0.97616 0.12925 0.40361 0.0
C399 C 0.03702 0.96667 0.42009 0.0
C400 C 0.02482 0.91307 0.40975 0.0
C401 C 0.97622 0.88155 0.39263 0.0
C402 C 0.94182 0.90386 0.38479 0.0
C403 C 0.95615 0.95754 0.39448 0.0
C404 C 0.00206 0.98839 0.41205 0.0
C405 C 0.01034 0.04684 0.41764 0.0
C406 C 1.00096 0.05423 0.44891 0.0
C407 C 0.06936 0.09335 0.40764 0.0
C408 C 0.96322 0.04465 0.39959 0.0
C409 C 0.9324 0.99245 0.38663 0.0
C410 C 0.88971 0.98108 0.36724 0.0
C411 C 0.87819 0.02414 0.36078 0.0
C412 C 0.90896 0.07802 0.37373 0.0
C413 C 0.95147 0.08816 0.39375 0.0
H414 H 0.15182 0.99906 0.73841 0.0
H415 H 0.16997 0.14055 0.68923 0.0
H416 H 0.07033 0.1123 0.69882 0.0
H417 H 0.01302 0.90118 0.71435 0.0
H418 H 0.98701 0.86546 0.74749 0.0
H419 H 0.06185 0.89961 0.73948 0.0
H420 H 0.08467 0.9588 0.78527 0.0
H421 H 0.00976 0.92482 0.79339 0.0
H422 H 0.05148 0.00079 0.79149 0.0
H423 H 0.96749 0.06611 0.71006 0.0
H424 H 0.8664 0.00272 0.72188 0.0
H425 H 0.91088 0.88944 0.76379 0.0
C426 C 0.13495 0.02452 0.73015 0.0
C427 C 0.16898 0.07209 0.71302 0.0
C428 C 0.14493 0.10375 0.70223 0.0
C429 C 0.08827 0.08827 0.70768 0.0
C430 C 0.05548 0.04076 0.72404 0.0
C431 C 0.07765 0.0092 0.7352 0.0
C432 C 0.03138 0.95785 0.75053 0.0
C433 C 0.02282 0.90277 0.73716 0.0
C434 C 0.04515 0.96075 0.78204 0.0
C435 C 0.97995 0.96507 0.74561 0.0
C436 C 0.99519 0.01361 0.73053 0.0
C437 C 0.95506 0.02823 0.72215 0.0
C438 C 0.89763 0.99187 0.72892 0.0
C439 C 0.88044 0.94116 0.74387 0.0
C440 C 0.92258 0.9283 0.75274 0.0
H441 H 0.35779 0.30745 0.94665 0.0
H442 H 0.17343 0.20758 0.94927 0.0
H443 H 0.17373 0.16352 0.90375 0.0
H444 H 0.36933 0.33762 0.87417 0.0
H445 H 0.43309 0.33368 0.86919 0.0
H446 H 0.41824 0.35347 0.90296 0.0
H447 H 0.42578 0.27218 0.9265 0.0
H448 H 0.4409 0.25225 0.89278 0.0
H449 H 0.38241 0.20087 0.91368 0.0
H450 H 0.1948 0.13565 0.85549 0.0
H451 H 0.23447 0.12589 0.8103 0.0
H452 H 0.40477 0.24345 0.84046 0.0
C453 C 0.31739 0.27616 0.93779 0.0
C454 C 0.26558 0.26113 0.9517 0.0
C455 C 0.21378 0.21942 0.93934 0.0
C456 C 0.21351 0.19433 0.91335 0.0
C457 C 0.2654 0.21104 0.9 0.0
C458 C 0.31638 0.25077 0.91198 0.0
C459 C 0.36628 0.26312 0.8931 0.0
C460 C 0.39861 0.32567 0.88434 0.0
C461 C 0.40618 0.24607 0.90737 0.0
C462 C 0.3355 0.22489 0.86836 0.0
C463 C 0.27737 0.19494 0.87266 0.0
C464 C 0.24035 0.15853 0.85209 0.0
C465 C 0.26337 0.15305 0.82645 0.0
C466 C 0.32294 0.18391 0.82149 0.0
C467 C 0.35909 0.21963 0.84311 0.0
H468 H 0.03344 0.32901 0.14551 0.0
H469 H 0.1513 0.26979 0.16306 0.0
H470 H 0.10955 0.24048 0.21075 0.0
H471 H 0.03564 0.38555 0.21353 0.0
H472 H 0.96097 0.36362 0.21338 0.0
H473 H 0.99953 0.37864 0.18071 0.0
H474 H 0.92694 0.27882 0.162 0.0
H475 H 0.88794 0.2636 0.19455 0.0
H476 H 0.91303 0.21752 0.18216 0.0
H477 H 0.05684 0.22204 0.25768 0.0
H478 H 0.99295 0.2085 0.29783 0.0
H479 H 0.90911 0.27862 0.24859 0.0
C480 C 0.05061 0.31 0.15939 0.0
C481 C 0.09596 0.30204 0.15065 0.0
C482 C 0.11642 0.27598 0.16927 0.0
C483 C 0.09317 0.25956 0.19643 0.0
C484 C 0.04909 0.26898 0.20451 0.0
C485 C 0.02762 0.293 0.18634 0.0
C486 C 0.97965 0.29796 0.19979 0.0
C487 C 0.99489 0.36014 0.20198 0.0
C488 C 0.92358 0.26234 0.18367 0.0
C489 C 0.97757 0.27337 0.22853 0.0
C490 C 0.01816 0.25722 0.23098 0.0
C491 C 0.02482 0.23437 0.25589 0.0
C492 C 0.98865 0.22724 0.27867 0.0
C493 C 0.94601 0.24247 0.27636 0.0
C494 C 0.94086 0.26605 0.25091 0.0
H495 H 0.87889 0.17964 0.5169 0.0
H496 H 0.73413 0.06181 0.46694 0.0
H497 H 0.69452 0.99847 0.50828 0.0
H498 H 0.8941 0.07443 0.55429 0.0
H499 H 0.91602 0.11474 0.58653 0.0
H500 H 0.93056 0.15055 0.55327 0.0
H501 H 0.87821 0.20269 0.57031 0.0
H502 H 0.86282 0.16641 0.60351 0.0
H503 H 0.80568 0.16221 0.58246 0.0
H504 H 0.67038 0.94911 0.55646 0.0
H505 H 0.67097 0.91282 0.60428 0.0
H506 H 0.8338 0.06197 0.62101 0.0
C507 C 0.83872 0.1406 0.51474 0.0
C508 C 0.80925 0.1257 0.48887 0.0
C509 C 0.75737 0.07377 0.4866 0.0
C510 C 0.73442 0.03788 0.51002 0.0
C511 C 0.76428 0.05432 0.53542 0.0
C512 C 0.81583 0.10411 0.53769 0.0
C513 C 0.84139 0.11098 0.56668 0.0
C514 C 0.8989 0.11275 0.56509 0.0
C515 C 0.84736 0.1637 0.58161 0.0
C516 C 0.79628 0.05734 0.58052 0.0
C517 C 0.75159 0.02543 0.5624 0.0
C518 C 0.70521 0.97385 0.57076 0.0
C519 C 0.70553 0.95376 0.59797 0.0
C520 C 0.75227 0.98483 0.61621 0.0
C521 C 0.79749 0.03763 0.60743 0.0
H522 H 0.75067 0.82878 0.81834 0.0
H523 H 0.56849 0.71711 0.82611 0.0
H524 H 0.58131 0.69736 0.87552 0.0
H525 H 0.79021 0.74415 0.85699 0.0
H526 H 0.8515 0.80273 0.87318 0.0
H527 H 0.82719 0.81142 0.83938 0.0
H528 H 0.81884 0.89568 0.85878 0.0
H529 H 0.84342 0.88746 0.89264 0.0
H530 H 0.77662 0.88625 0.8898 0.0
H531 H 0.61547 0.6875 0.92404 0.0
H532 H 0.66744 0.68793 0.96668 0.0
H533 H 0.82722 0.80301 0.92543 0.0
C534 C 0.71334 0.80117 0.8306 0.0
C535 C 0.65849 0.77484 0.81842 0.0
C536 C 0.61089 0.73768 0.83501 0.0
C537 C 0.61777 0.72635 0.8631 0.0
C538 C 0.67262 0.75229 0.8743 0.0
C539 C 0.71954 0.78895 0.85851 0.0
C540 C 0.77418 0.80903 0.87486 0.0
C541 C 0.81303 0.79071 0.86023 0.0
C542 C 0.80507 0.87343 0.87928 0.0
C543 C 0.75078 0.77783 0.90229 0.0
C544 C 0.69216 0.74558 0.90172 0.0
C545 C 0.66145 0.71271 0.92469 0.0
C546 C 0.69149 0.71296 0.94884 0.0
C547 C 0.75181 0.74556 0.94986 0.0
C548 C 0.78132 0.77822 0.926 0.0
H549 H 0.83891 0.70503 0.16254 0.0
H550 H 0.87195 0.56685 0.1501 0.0
H551 H 0.91732 0.58561 0.19691 0.0
H552 H 0.96942 0.79814 0.19659 0.0
H553 H 0.93842 0.82628 0.2207 0.0
H554 H 0.9062 0.79989 0.18684 0.0
H555 H 0.81027 0.73149 0.21104 0.0
H556 H 0.84224 0.75776 0.245 0.0
H557 H 0.80799 0.68318 0.23738 0.0
H558 H 0.96477 0.62403 0.24469 0.0
H559 H 0.00765 0.67716 0.28857 0.0
H560 H 0.93923 0.78696 0.26977 0.0
C561 C 0.85555 0.67861 0.16964 0.0
C562 C 0.85159 0.63433 0.15256 0.0
C563 C 0.87361 0.60049 0.16287 0.0
C564 C 0.8998 0.61103 0.18943 0.0
C565 C 0.90334 0.65531 0.20563 0.0
C566 C 0.88142 0.68828 0.19614 0.0
C567 C 0.89138 0.73387 0.21729 0.0
C568 C 0.92857 0.79303 0.20459 0.0
C569 C 0.83458 0.72608 0.22833 0.0
C570 C 0.92297 0.72196 0.23999 0.0
C571 C 0.9296 0.67658 0.233 0.0
C572 C 0.95937 0.65939 0.25046 0.0
C573 C 0.98349 0.68983 0.2755 0.0
C574 C 0.97771 0.73703 0.28296 0.0
C575 C 0.94589 0.75208 0.26494 0.0
H576 H 0.35765 0.02745 0.59001 0.0
H577 H 0.19939 0.95219 0.63699 0.0
H578 H 0.14757 0.89816 0.59444 0.0
H579 H 0.30099 0.04175 0.52463 0.0
H580 H 0.34657 0.02568 0.50369 0.0
H581 H 0.36984 0.05811 0.53778 0.0
H582 H 0.38648 0.97657 0.55295 0.0
H583 H 0.36295 0.94376 0.51894 0.0
H584 H 0.32887 0.90454 0.55036 0.0
H585 H 0.1139 0.85076 0.54571 0.0
H586 H 0.10172 0.81782 0.49627 0.0
H587 H 0.28326 0.92608 0.48266 0.0
C588 C 0.31218 0.99922 0.59159 0.0
C589 C 0.28277 0.99377 0.61705 0.0
C590 C 0.22291 0.95735 0.61776 0.0
C591 C 0.19319 0.92626 0.59371 0.0
C592 C 0.22387 0.93228 0.56905 0.0
C593 C 0.28208 0.96821 0.56791 0.0
C594 C 0.30559 0.96803 0.53904 0.0
C595 C 0.3323 0.02688 0.52549 0.0
C596 C 0.3485 0.94695 0.54042 0.0
C597 C 0.25166 0.92602 0.52399 0.0
C598 C 0.20482 0.90572 0.5415 0.0
C599 C 0.15042 0.8666 0.53188 0.0
C600 C 0.14387 0.84821 0.50367 0.0
C601 C 0.19145 0.86887 0.48531 0.0
C602 C 0.24592 0.90825 0.49595 0.0
loop_
_geom_bond_atom_site_label_1
_geom_bond_atom_site_label_2
_geom_bond_distance
_geom_bond_site_symmetry_2
_ccdc_geom_bond_type
C0 C1 1.351 . S
C0 N3 1.368 . S
C0 H5 0.931 . S
C1 C0 1.351 . S
C1 N2 1.373 . S
C1 H29 0.930 . S
N2 C1 1.373 . S
N2 C4 1.340 . S
N3 C0 1.368 . S
N3 C4 1.321 . S
N3 Co6 2.135 . S
C4 N2 1.340 . S
C4 N3 1.321 . S
C4 H28 0.930 . S
H5 C0 0.931 . S
Co6 N3 2.135 . S
Co6 N9 2.121 1_554 S
Co6 O14 2.055 . S
Co6 O17 2.039 . S
Co6 N20 2.140 . S
C7 O8 1.227 . S
C7 O17 1.265 . S
O8 C7 1.227 . S
N9 Co6 2.121 1_556 S
N9 C11 1.375 . S
N9 C12 1.313 . S
C10 C11 1.338 . S
C10 N13 1.377 . S
C10 H30 0.930 . S
C11 N9 1.375 . S
C11 C10 1.338 . S
C11 H15 0.931 . S
C12 N9 1.313 . S
C12 N13 1.344 . S
C12 H16 0.930 . S
N13 C10 1.377 . S
N13 C12 1.344 . S
O14 Co6 2.055 . S
O14 C18 1.253 . S
H15 C11 0.931 . S
H16 C12 0.930 . S
O17 Co6 2.039 . S
O17 C7 1.265 . S
C18 O14 1.253 . S
C18 O19 1.227 . S
O19 C18 1.227 . S
N20 Co6 2.140 . S
N20 C23 1.346 . S
N20 C24 1.345 1_554 S
C21 C22 1.387 1_556 S
C21 C25 1.391 . S
C22 C21 1.387 1_554 S
C22 C23 1.369 . S
C22 H31 0.929 . S
C23 N20 1.346 . S
C23 C22 1.369 . S
C23 H26 0.928 . S
C24 N20 1.345 1_556 S
C24 C25 1.371 . S
C24 H27 0.931 . S
C25 C21 1.391 . S
C25 C24 1.371 . S
C25 H32 0.930 . S
H26 C23 0.928 . S
H27 C24 0.931 . S
H28 C4 0.930 . S
H29 C1 0.930 . S
H30 C10 0.930 . S
H31 C22 0.929 . S
H32 C25 0.930 . S
C33 C34 1.351 . S
C33 N36 1.368 . S
C33 H38 0.931 . S
C34 C33 1.351 . S
C34 N35 1.373 . S
C34 H62 0.930 . S
N35 C34 1.373 . S
N35 C37 1.340 . S
N36 C33 1.368 . S
N36 C37 1.321 . S
N36 Co39 2.135 . S
C37 N35 1.340 . S
C37 N36 1.321 . S
C37 H61 0.930 . S
H38 C33 0.931 . S
Co39 N36 2.135 . S
Co39 N42 2.121 . S
Co39 O47 2.055 . S
Co39 O50 2.039 . S
Co39 N53 2.140 . S
C40 O41 1.227 . S
C40 O50 1.265 . S
O41 C40 1.227 . S
N42 Co39 2.121 . S
N42 C44 1.375 . S
N42 C45 1.313 . S
C43 C44 1.338 . S
C43 N46 1.377 . S
C43 H63 0.930 . S
C44 N42 1.375 . S
C44 C43 1.338 . S
C44 H48 0.931 . S
C45 N42 1.313 . S
C45 N46 1.344 . S
C45 H49 0.930 . S
N46 C43 1.377 . S
N46 C45 1.344 . S
O47 Co39 2.055 . S
O47 C51 1.253 . S
H48 C44 0.931 . S
H49 C45 0.930 . S
O50 Co39 2.039 . S
O50 C40 1.265 . S
C51 O47 1.253 . S
C51 O52 1.227 . S
O52 C51 1.227 . S
N53 Co39 2.140 . S
N53 C56 1.346 . S
N53 C57 1.345 . S
C54 C55 1.387 . S
C54 C58 1.391 . S
C55 C54 1.387 . S
C55 C56 1.369 . S
C55 H64 0.929 . S
C56 N53 1.346 . S
C56 C55 1.369 . S
C56 H59 0.928 . S
C57 N53 1.345 . S
C57 C58 1.371 . S
C57 H60 0.931 . S
C58 C54 1.391 . S
C58 C57 1.371 . S
C58 H65 0.930 . S
H59 C56 0.928 . S
H60 C57 0.931 . S
H61 C37 0.930 . S
H62 C34 0.930 . S
H63 C43 0.930 . S
H64 C55 0.929 . S
H65 C58 0.930 . S
C66 C67 1.351 . S
C66 N69 1.368 . S
C66 H71 0.931 . S
C67 C66 1.351 . S
C67 N68 1.373 . S
C67 H95 0.930 . S
N68 C67 1.373 . S
N68 C70 1.340 . S
N69 C66 1.368 . S
N69 C70 1.321 . S
N69 Co72 2.135 . S
C70 N68 1.340 . S
C70 N69 1.321 . S
C70 H94 0.930 . S
H71 C66 0.931 . S
Co72 N69 2.135 . S
Co72 N75 2.121 . S
Co72 O80 2.055 . S
Co72 O83 2.039 . S
Co72 N86 2.140 . S
C73 O74 1.227 . S
C73 O83 1.265 . S
O74 C73 1.227 . S
N75 Co72 2.121 . S
N75 C77 1.375 . S
N75 C78 1.313 . S
C76 C77 1.338 . S
C76 N79 1.377 . S
C76 H96 0.930 . S
C77 N75 1.375 . S
C77 C76 1.338 . S
C77 H81 0.931 . S
C78 N75 1.313 . S
C78 N79 1.344 . S
C78 H82 0.930 . S
N79 C76 1.377 . S
N79 C78 1.344 . S
O80 Co72 2.055 . S
O80 C84 1.253 . S
H81 C77 0.931 . S
H82 C78 0.930 . S
O83 Co72 2.039 . S
O83 C73 1.265 . S
C84 O80 1.253 . S
C84 O85 1.227 . S
O85 C84 1.227 . S
N86 Co72 2.140 . S
N86 C89 1.346 . S
N86 C90 1.345 . S
C87 C88 1.387 . S
C87 C91 1.391 . S
C88 C87 1.387 . S
C88 C89 1.369 . S
C88 H97 0.929 . S
C89 N86 1.346 . S
C89 C88 1.369 . S
C89 H92 0.928 . S
C90 N86 1.345 . S
C90 C91 1.371 . S
C90 H93 0.931 . S
C91 C87 1.391 . S
C91 C90 1.371 . S
C91 H98 0.930 . S
H92 C89 0.928 . S
H93 C90 0.931 . S
H94 C70 0.930 . S
H95 C67 0.930 . S
H96 C76 0.930 . S
H97 C88 0.929 . S
H98 C91 0.930 . S
C99 C100 1.351 . S
C99 N102 1.368 . S
C99 H104 0.931 . S
C100 C99 1.351 . S
C100 N101 1.373 . S
C100 H128 0.930 . S
N101 C100 1.373 . S
N101 C103 1.340 . S
N102 C99 1.368 . S
N102 C103 1.321 . S
N102 Co105 2.135 . S
C103 N101 1.340 . S
C103 N102 1.321 . S
C103 H127 0.930 . S
H104 C99 0.931 . S
Co105 N102 2.135 . S
Co105 N108 2.121 1_554 S
Co105 O113 2.055 . S
Co105 O116 2.039 . S
Co105 N119 2.140 . S
C106 O107 1.227 . S
C106 O116 1.265 . S
O107 C106 1.227 . S
N108 Co105 2.121 1_556 S
N108 C110 1.375 . S
N108 C111 1.313 . S
C109 C110 1.338 . S
C109 N112 1.377 . S
C109 H129 0.930 . S
C110 N108 1.375 . S
C110 C109 1.338 . S
C110 H114 0.931 . S
C111 N108 1.313 . S
C111 N112 1.344 . S
C111 H115 0.930 . S
N112 C109 1.377 . S
N112 C111 1.344 . S
O113 Co105 2.055 . S
O113 C117 1.253 . S
H114 C110 0.931 . S
H115 C111 0.930 . S
O116 Co105 2.039 . S
O116 C106 1.265 . S
C117 O113 1.253 . S
C117 O118 1.227 . S
O118 C117 1.227 . S
N119 Co105 2.140 . S
N119 C122 1.346 . S
N119 C123 1.345 1_554 S
C120 C121 1.387 1_556 S
C120 C124 1.391 . S
C121 C120 1.387 1_554 S
C121 C122 1.369 . S
C121 H130 0.929 . S
C122 N119 1.346 . S
C122 C121 1.369 . S
C122 H125 0.928 . S
C123 N119 1.345 1_556 S
C123 C124 1.371 . S
C123 H126 0.931 . S
C124 C120 1.391 . S
C124 C123 1.371 . S
C124 H131 0.930 . S
H125 C122 0.928 . S
H126 C123 0.931 . S
H127 C103 0.930 . S
H128 C100 0.930 . S
H129 C109 0.930 . S
H130 C121 0.929 . S
H131 C124 0.930 . S
C132 C133 1.351 . S
C132 N135 1.368 . S
C132 H137 0.931 . S
C133 C132 1.351 . S
C133 N134 1.373 . S
C133 H161 0.930 . S
N134 C133 1.373 . S
N134 C136 1.340 . S
N135 C132 1.368 . S
N135 C136 1.321 . S
N135 Co138 2.135 . S
C136 N134 1.340 . S
C136 N135 1.321 . S
C136 H160 0.930 . S
H137 C132 0.931 . S
Co138 N135 2.135 . S
Co138 N141 2.121 . S
Co138 O146 2.055 . S
Co138 O149 2.039 . S
Co138 N152 2.140 . S
C139 O140 1.227 . S
C139 O149 1.265 . S
O140 C139 1.227 . S
N141 Co138 2.121 . S
N141 C143 1.375 . S
N141 C144 1.313 . S
C142 C143 1.338 . S
C142 N145 1.377 . S
C142 H162 0.930 . S
C143 N141 1.375 . S
C143 C142 1.338 . S
C143 H147 0.931 . S
C144 N141 1.313 . S
C144 N145 1.344 . S
C144 H148 0.930 . S
N145 C142 1.377 . S
N145 C144 1.344 . S
O146 Co138 2.055 . S
O146 C150 1.253 . S
H147 C143 0.931 . S
H148 C144 0.930 . S
O149 Co138 2.039 . S
O149 C139 1.265 . S
C150 O146 1.253 . S
C150 O151 1.227 . S
O151 C150 1.227 . S
N152 Co138 2.140 . S
N152 C155 1.346 . S
N152 C156 1.345 . S
C153 C154 1.387 . S
C153 C157 1.391 . S
C154 C153 1.387 . S
C154 C155 1.369 . S
C154 H163 0.929 . S
C155 N152 1.346 . S
C155 C154 1.369 . S
C155 H158 0.928 . S
C156 N152 1.345 . S
C156 C157 1.371 . S
C156 H159 0.931 . S
C157 C153 1.391 . S
C157 C156 1.371 . S
C157 H164 0.930 . S
H158 C155 0.928 . S
H159 C156 0.931 . S
H160 C136 0.930 . S
H161 C133 0.930 . S
H162 C142 0.930 . S
H163 C154 0.929 . S
H164 C157 0.930 . S
C165 C166 1.351 . S
C165 N168 1.368 . S
C165 H170 0.931 . S
C166 C165 1.351 . S
C166 N167 1.373 . S
C166 H194 0.930 . S
N167 C166 1.373 . S
N167 C169 1.340 . S
N168 C165 1.368 . S
N168 C169 1.321 . S
N168 Co171 2.135 . S
C169 N167 1.340 . S
C169 N168 1.321 . S
C169 H193 0.930 . S
H170 C165 0.931 . S
Co171 N168 2.135 . S
Co171 N174 2.121 . S
Co171 O179 2.055 . S
Co171 O182 2.039 . S
Co171 N185 2.140 . S
C172 O173 1.227 . S
C172 O182 1.265 . S
O173 C172 1.227 . S
N174 Co171 2.121 . S
N174 C176 1.375 . S
N174 C177 1.313 . S
C175 C176 1.338 . S
C175 N178 1.377 . S
C175 H195 0.930 . S
C176 N174 1.375 . S
C176 C175 1.338 . S
C176 H180 0.931 . S
C177 N174 1.313 . S
C177 N178 1.344 . S
C177 H181 0.930 . S
N178 C175 1.377 . S
N178 C177 1.344 . S
O179 Co171 2.055 . S
O179 C183 1.253 . S
H180 C176 0.931 . S
H181 C177 0.930 . S
O182 Co171 2.039 . S
O182 C172 1.265 . S
C183 O179 1.253 . S
C183 O184 1.227 . S
O184 C183 1.227 . S
N185 Co171 2.140 . S
N185 C188 1.346 . S
N185 C189 1.345 . S
C186 C187 1.387 . S
C186 C190 1.391 . S
C187 C186 1.387 . S
C187 C188 1.369 . S
C187 H196 0.929 . S
C188 N185 1.346 . S
C188 C187 1.369 . S
C188 H191 0.928 . S
C189 N185 1.345 . S
C189 C190 1.371 . S
C189 H192 0.931 . S
C190 C186 1.391 . S
C190 C189 1.371 . S
C190 H197 0.930 . S
H191 C188 0.928 . S
H192 C189 0.931 . S
H193 C169 0.930 . S
H194 C166 0.930 . S
H195 C175 0.930 . S
H196 C187 0.929 . S
H197 C190 0.930 . S
H198 C210 0.930 . S
H199 C212 0.930 . S
H200 C213 0.930 . S
H201 C217 0.959 . S
H202 C217 0.959 . S
H203 C217 0.961 . S
H204 C218 0.960 . S
H205 C218 0.961 . S
H206 C218 0.959 . S
H207 C221 0.929 . S
H208 C222 0.931 . S
H209 C224 0.930 . S
C210 H198 0.930 . S
C210 C211 1.399 1_556 S
C210 C215 1.398 1_556 S
C211 C210 1.399 1_554 S
C211 C212 1.376 . S
C212 H199 0.930 . S
C212 C211 1.376 . S
C212 C213 1.388 . S
C213 H200 0.930 . S
C213 C212 1.388 . S
C213 C214 1.390 . S
C214 C213 1.390 . S
C214 C215 1.396 . S
C214 C220 1.465 . S
C215 C210 1.398 1_554 S
C215 C214 1.396 . S
C215 C216 1.514 1_554 S
C216 C215 1.514 1_556 S
C216 C217 1.502 . S
C216 C218 1.561 . S
C216 C219 1.517 1_556 S
C217 H201 0.959 . S
C217 H202 0.959 . S
C217 H203 0.961 . S
C217 C216 1.502 . S
C218 H204 0.960 . S
C218 H205 0.961 . S
C218 H206 0.959 . S
C218 C216 1.561 . S
C219 C216 1.517 1_554 S
C219 C220 1.408 . S
C219 C224 1.387 1_554 S
C220 C214 1.465 . S
C220 C219 1.408 . S
C220 C221 1.399 . S
C221 H207 0.929 . S
C221 C220 1.399 . S
C221 C222 1.385 . S
C222 H208 0.931 . S
C222 C221 1.385 . S
C222 C223 1.389 . S
C223 C222 1.389 . S
C223 C224 1.387 1_554 S
C224 H209 0.930 . S
C224 C219 1.387 1_556 S
C224 C223 1.387 1_556 S
H225 C237 0.930 . S
H226 C239 0.930 . S
H227 C240 0.930 . S
H228 C244 0.959 . S
H229 C244 0.959 . S
H230 C244 0.961 . S
H231 C245 0.960 . S
H232 C245 0.961 . S
H233 C245 0.959 . S
H234 C248 0.929 . S
H235 C249 0.931 . S
H236 C251 0.930 . S
C237 H225 0.930 . S
C237 C238 1.399 . S
C237 C242 1.399 . S
C238 C237 1.399 . S
C238 C239 1.376 . S
C239 H226 0.930 . S
C239 C238 1.376 . S
C239 C240 1.388 1_655 S
C240 H227 0.930 . S
C240 C239 1.388 1_455 S
C240 C241 1.390 . S
C241 C240 1.390 . S
C241 C242 1.394 1_455 S
C241 C247 1.465 . S
C242 C237 1.399 . S
C242 C241 1.394 1_655 S
C242 C243 1.516 . S
C243 C242 1.516 . S
C243 C244 1.502 . S
C243 C245 1.561 1_655 S
C243 C246 1.526 1_655 S
C244 H228 0.959 . S
C244 H229 0.959 . S
C244 H230 0.961 . S
C244 C243 1.502 . S
C245 H231 0.960 . S
C245 H232 0.961 . S
C245 H233 0.959 . S
C245 C243 1.561 1_455 S
C246 C243 1.526 1_455 S
C246 C247 1.396 . S
C246 C251 1.390 . S
C247 C241 1.465 . S
C247 C246 1.396 . S
C247 C248 1.399 . S
C248 H234 0.929 . S
C248 C247 1.399 . S
C248 C249 1.385 . S
C249 H235 0.931 . S
C249 C248 1.385 . S
C249 C250 1.389 . S
C250 C249 1.389 . S
C250 C251 1.387 . S
C251 H236 0.930 . S
C251 C246 1.390 . S
C251 C250 1.387 . S
H252 C264 0.930 . S
H253 C266 0.930 . S
H254 C267 0.930 . S
H255 C271 0.959 . S
H256 C271 0.959 . S
H257 C271 0.961 . S
H258 C272 0.960 . S
H259 C272 0.961 . S
H260 C272 0.959 . S
H261 C275 0.929 . S
H262 C276 0.931 . S
H263 C278 0.930 . S
C264 H252 0.930 . S
C264 C265 1.399 . S
C264 C269 1.399 . S
C265 C264 1.399 . S
C265 C266 1.376 . S
C266 H253 0.930 . S
C266 C265 1.376 . S
C266 C267 1.388 . S
C267 H254 0.930 . S
C267 C266 1.388 . S
C267 C268 1.390 . S
C268 C267 1.390 . S
C268 C269 1.394 . S
C268 C274 1.465 1_545 S
C269 C264 1.399 . S
C269 C268 1.394 . S
C269 C270 1.516 1_545 S
C270 C269 1.516 1_565 S
C270 C271 1.502 1_565 S
C270 C272 1.561 . S
C270 C273 1.526 . S
C271 H255 0.959 . S
C271 H256 0.959 . S
C271 H257 0.961 . S
C271 C270 1.502 1_545 S
C272 H258 0.960 . S
C272 H259 0.961 . S
C272 H260 0.959 . S
C272 C270 1.561 . S
C273 C270 1.526 . S
C273 C274 1.396 . S
C273 C278 1.390 . S
C274 C268 1.465 1_565 S
C274 C273 1.396 . S
C274 C275 1.399 . S
C275 H261 0.929 . S
C275 C274 1.399 . S
C275 C276 1.385 . S
C276 H262 0.931 . S
C276 C275 1.385 . S
C276 C277 1.389 . S
C277 C276 1.389 . S
C277 C278 1.387 . S
C278 H263 0.930 . S
C278 C273 1.390 . S
C278 C277 1.387 . S
H279 C291 0.930 . S
H280 C293 0.930 . S
H281 C294 0.930 . S
H282 C298 0.959 . S
H283 C298 0.959 . S
H284 C298 0.961 . S
H285 C299 0.960 . S
H286 C299 0.961 . S
H287 C299 0.959 . S
H288 C302 0.929 . S
H289 C303 0.931 . S
H290 C305 0.930 . S
C291 H279 0.930 . S
C291 C292 1.399 . S
C291 C296 1.399 . S
C292 C291 1.399 . S
C292 C293 1.376 . S
C293 H280 0.930 . S
C293 C292 1.376 . S
C293 C294 1.388 . S
C294 H281 0.930 . S
C294 C293 1.388 . S
C294 C295 1.390 . S
C295 C294 1.390 . S
C295 C296 1.394 . S
C295 C301 1.465 . S
C296 C291 1.399 . S
C296 C295 1.394 . S
C296 C297 1.516 . S
C297 C296 1.516 . S
C297 C298 1.502 . S
C297 C299 1.561 . S
C297 C300 1.526 . S
C298 H282 0.959 . S
C298 H283 0.959 . S
C298 H284 0.961 . S
C298 C297 1.502 . S
C299 H285 0.960 . S
C299 H286 0.961 . S
C299 H287 0.959 . S
C299 C297 1.561 . S
C300 C297 1.526 . S
C300 C301 1.396 . S
C300 C305 1.390 . S
C301 C295 1.465 . S
C301 C300 1.396 . S
C301 C302 1.399 . S
C302 H288 0.929 . S
C302 C301 1.399 . S
C302 C303 1.385 . S
C303 H289 0.931 . S
C303 C302 1.385 . S
C303 C304 1.389 . S
C304 C303 1.389 . S
C304 C305 1.387 . S
C305 H290 0.930 . S
C305 C300 1.390 . S
C305 C304 1.387 . S
H306 C318 0.930 1_455 S
H307 C320 0.930 . S
H308 C321 0.930 . S
H309 C325 0.959 1_556 S
H310 C325 0.959 . S
H311 C325 0.961 . S
H312 C326 0.960 . S
H313 C326 0.961 . S
H314 C326 0.959 1_655 S
H315 C329 0.929 . S
H316 C330 0.931 1_655 S
H317 C332 0.930 . S
C318 H306 0.930 1_655 S
C318 C319 1.399 1_554 S
C318 C323 1.399 . S
C319 C318 1.399 1_556 S
C319 C320 1.376 . S
C320 H307 0.930 . S
C320 C319 1.376 . S
C320 C321 1.388 . S
C321 H308 0.930 . S
C321 C320 1.388 . S
C321 C322 1.390 . S
C322 C321 1.390 . S
C322 C323 1.394 1_556 S
C322 C328 1.465 . S
C323 C318 1.399 . S
C323 C322 1.394 1_554 S
C323 C324 1.516 1_655 S
C324 C323 1.516 1_455 S
C324 C325 1.502 . S
C324 C326 1.561 . S
C324 C327 1.526 . S
C325 H309 0.959 1_554 S
C325 H310 0.959 . S
C325 H311 0.961 . S
C325 C324 1.502 . S
C326 H312 0.960 . S
C326 H313 0.961 . S
C326 H314 0.959 1_455 S
C326 C324 1.561 . S
C327 C324 1.526 . S
C327 C328 1.396 1_454 S
C327 C332 1.390 . S
C328 C322 1.465 . S
C328 C327 1.396 1_656 S
C328 C329 1.399 . S
C329 H315 0.929 . S
C329 C328 1.399 . S
C329 C330 1.385 1_655 S
C330 H316 0.931 1_455 S
C330 C329 1.385 1_455 S
C330 C331 1.389 . S
C331 C330 1.389 . S
C331 C332 1.387 1_556 S
C332 H317 0.930 . S
C332 C327 1.390 . S
C332 C331 1.387 1_554 S
H333 C345 0.930 . S
H334 C347 0.930 . S
H335 C348 0.930 . S
H336 C352 0.959 . S
H337 C352 0.959 . S
H338 C352 0.961 . S
H339 C353 0.960 . S
H340 C353 0.961 . S
H341 C353 0.959 . S
H342 C356 0.929 . S
H343 C357 0.931 . S
H344 C359 0.930 . S
C345 H333 0.930 . S
C345 C346 1.399 . S
C345 C350 1.399 . S
C346 C345 1.399 . S
C346 C347 1.376 . S
C347 H334 0.930 . S
C347 C346 1.376 . S
C347 C348 1.388 . S
C348 H335 0.930 . S
C348 C347 1.388 . S
C348 C349 1.390 . S
C349 C348 1.390 . S
C349 C350 1.394 . S
C349 C355 1.465 . S
C350 C345 1.399 . S
C350 C349 1.394 . S
C350 C351 1.516 1_565 S
C351 C350 1.516 1_545 S
C351 C352 1.502 . S
C351 C353 1.561 1_545 S
C351 C354 1.526 . S
C352 H336 0.959 . S
C352 H337 0.959 . S
C352 H338 0.961 . S
C352 C351 1.502 . S
C353 H339 0.960 . S
C353 H340 0.961 . S
C353 H341 0.959 . S
C353 C351 1.561 1_565 S
C354 C351 1.526 . S
C354 C355 1.396 1_545 S
C354 C359 1.390 . S
C355 C349 1.465 . S
C355 C354 1.396 1_565 S
C355 C356 1.399 . S
C356 H342 0.929 . S
C356 C355 1.399 . S
C356 C357 1.385 1_565 S
C357 H343 0.931 . S
C357 C356 1.385 1_545 S
C357 C358 1.389 . S
C358 C357 1.389 . S
C358 C359 1.387 . S
C359 H344 0.930 . S
C359 C354 1.390 . S
C359 C358 1.387 . S
H360 C372 0.930 . S
H361 C374 0.930 . S
H362 C375 0.930 . S
H363 C379 0.959 . S
H364 C379 0.959 . S
H365 C379 0.961 1_545 S
H366 C380 0.960 1_545 S
H367 C380 0.961 . S
H368 C380 0.959 . S
H369 C383 0.929 1_455 S
H370 C384 0.931 . S
H371 C386 0.930 . S
C372 H360 0.930 . S
C372 C373 1.399 1_556 S
C372 C377 1.406 . S
C373 C372 1.399 1_554 S
C373 C374 1.376 . S
C374 H361 0.930 . S
C374 C373 1.376 . S
C374 C375 1.388 . S
C375 H362 0.930 . S
C375 C374 1.388 . S
C375 C376 1.390 . S
C376 C375 1.390 . S
C376 C377 1.360 1_554 S
C376 C382 1.465 1_445 S
C377 C372 1.406 . S
C377 C376 1.360 1_556 S
C377 C378 1.536 1_445 S
C378 C377 1.536 1_665 S
C378 C379 1.499 . S
C378 C380 1.564 1_655 S
C378 C381 1.549 . S
C379 H363 0.959 . S
C379 H364 0.959 . S
C379 H365 0.961 1_565 S
C379 C378 1.499 . S
C380 H366 0.960 1_565 S
C380 H367 0.961 . S
C380 H368 0.959 . S
C380 C378 1.564 1_455 S
C381 C378 1.549 . S
C381 C382 1.372 1_556 S
C381 C386 1.395 . S
C382 C376 1.465 1_665 S
C382 C381 1.372 1_554 S
C382 C383 1.399 . S
C383 H369 0.929 1_655 S
C383 C382 1.399 . S
C383 C384 1.385 . S
C384 H370 0.931 . S
C384 C383 1.385 . S
C384 C385 1.389 . S
C385 C384 1.389 . S
C385 C386 1.387 1_554 S
C386 H371 0.930 . S
C386 C381 1.395 . S
C386 C385 1.387 1_556 S
H387 C399 0.929 1_545 S
H388 C401 0.930 . S
H389 C402 0.930 . S
H390 C406 0.959 . S
H391 C406 0.959 . S
H392 C406 0.961 . S
H393 C407 0.960 . S
H394 C407 0.961 . S
H395 C407 0.959 . S
H396 C410 0.929 . S
H397 C411 0.931 . S
H398 C413 0.930 . S
C399 H387 0.929 1_565 S
C399 C400 1.399 . S
C399 C404 1.399 . S
C400 C399 1.399 . S
C400 C401 1.376 . S
C401 H388 0.930 . S
C401 C400 1.376 . S
C401 C402 1.388 1_455 S
C402 H389 0.930 . S
C402 C401 1.388 1_655 S
C402 C403 1.390 . S
C403 C402 1.390 . S
C403 C404 1.394 1_655 S
C403 C409 1.465 . S
C404 C399 1.399 . S
C404 C403 1.394 1_455 S
C404 C405 1.516 1_565 S
C405 C404 1.516 1_545 S
C405 C406 1.502 . S
C405 C407 1.561 . S
C405 C408 1.526 1_455 S
C406 H390 0.959 . S
C406 H391 0.959 . S
C406 H392 0.961 . S
C406 C405 1.502 . S
C407 H393 0.960 . S
C407 H394 0.961 . S
C407 H395 0.959 . S
C407 C405 1.561 . S
C408 C405 1.526 1_655 S
C408 C409 1.396 1_545 S
C408 C413 1.390 . S
C409 C403 1.465 . S
C409 C408 1.396 1_565 S
C409 C410 1.399 . S
C410 H396 0.929 . S
C410 C409 1.399 . S
C410 C411 1.385 1_565 S
C411 H397 0.931 . S
C411 C410 1.385 1_545 S
C411 C412 1.389 . S
C412 C411 1.389 . S
C412 C413 1.387 . S
C413 H398 0.930 . S
C413 C408 1.390 . S
C413 C412 1.387 . S
H414 C426 0.930 . S
H415 C428 0.930 . S
H416 C429 0.930 . S
H417 C433 0.955 . S
H418 C433 0.970 . S
H419 C433 0.948 1_455 S
H420 C434 0.946 1_455 S
H421 C434 0.973 . S
H422 C434 0.969 . S
H423 C437 0.929 . S
H424 C438 0.931 . S
H425 C440 0.930 . S
C426 H414 0.930 . S
C426 C427 1.399 . S
C426 C431 1.399 . S
C427 C426 1.399 . S
C427 C428 1.376 . S
C428 H415 0.930 . S
C428 C427 1.376 . S
C428 C429 1.388 . S
C429 H416 0.930 . S
C429 C428 1.388 . S
C429 C430 1.390 . S
C430 C429 1.390 . S
C430 C431 1.394 . S
C430 C436 1.465 1_445 S
C431 C426 1.399 . S
C431 C430 1.394 . S
C431 C432 1.516 1_445 S
C432 C431 1.516 1_665 S
C432 C433 1.508 . S
C432 C434 1.554 1_565 S
C432 C435 1.526 . S
C433 H417 0.955 . S
C433 H418 0.970 . S
C433 H419 0.948 1_655 S
C433 C432 1.508 . S
C434 H420 0.946 1_655 S
C434 H421 0.973 . S
C434 H422 0.969 . S
C434 C432 1.554 1_545 S
C435 C432 1.526 . S
C435 C436 1.396 . S
C435 C440 1.390 . S
C436 C430 1.465 1_665 S
C436 C435 1.396 . S
C436 C437 1.399 . S
C437 H423 0.929 . S
C437 C436 1.399 . S
C437 C438 1.385 . S
C438 H424 0.931 . S
C438 C437 1.385 . S
C438 C439 1.389 . S
C439 C438 1.389 . S
C439 C440 1.387 . S
C440 H425 0.930 . S
C440 C435 1.390 . S
C440 C439 1.387 . S
H441 C453 0.930 . S
H442 C455 0.930 . S
H443 C456 0.930 . S
H444 C460 0.959 . S
H445 C460 0.959 . S
H446 C460 0.961 . S
H447 C461 0.960 . S
H448 C461 0.961 . S
H449 C461 0.959 . S
H450 C464 0.929 . S
H451 C465 0.931 . S
H452 C467 0.930 . S
C453 H441 0.930 . S
C453 C454 1.399 . S
C453 C458 1.399 . S
C454 C453 1.399 . S
C454 C455 1.376 . S
C455 H442 0.930 . S
C455 C454 1.376 . S
C455 C456 1.388 . S
C456 H443 0.930 . S
C456 C455 1.388 . S
C456 C457 1.390 . S
C457 C456 1.390 . S
C457 C458 1.394 . S
C457 C463 1.465 . S
C458 C453 1.399 . S
C458 C457 1.394 . S
C458 C459 1.516 . S
C459 C458 1.516 . S
C459 C460 1.502 . S
C459 C461 1.561 . S
C459 C462 1.526 . S
C460 H444 0.959 . S
C460 H445 0.959 . S
C460 H446 0.961 . S
C460 C459 1.502 . S
C461 H447 0.960 . S
C461 H448 0.961 . S
C461 H449 0.959 . S
C461 C459 1.561 . S
C462 C459 1.526 . S
C462 C463 1.396 . S
C462 C467 1.390 . S
C463 C457 1.465 . S
C463 C462 1.396 . S
C463 C464 1.399 . S
C464 H450 0.929 . S
C464 C463 1.399 . S
C464 C465 1.385 . S
C465 H451 0.931 . S
C465 C464 1.385 . S
C465 C466 1.389 . S
C466 C465 1.389 . S
C466 C467 1.387 . S
C467 H452 0.930 . S
C467 C462 1.390 . S
C467 C466 1.387 . S
H468 C480 0.930 . S
H469 C482 0.930 . S
H470 C483 0.930 . S
H471 C487 0.959 . S
H472 C487 0.959 . S
H473 C487 0.961 . S
H474 C488 0.960 . S
H475 C488 0.961 . S
H476 C488 0.959 1_455 S
H477 C491 0.929 . S
H478 C492 0.931 . S
H479 C494 0.930 . S
C480 H468 0.930 . S
C480 C481 1.399 . S
C480 C485 1.399 . S
C481 C480 1.399 . S
C481 C482 1.376 . S
C482 H469 0.930 . S
C482 C481 1.376 . S
C482 C483 1.388 . S
C483 H470 0.930 . S
C483 C482 1.388 . S
C483 C484 1.390 . S
C484 C483 1.390 . S
C484 C485 1.394 . S
C484 C490 1.465 . S
C485 C480 1.399 . S
C485 C484 1.394 . S
C485 C486 1.516 1_455 S
C486 C485 1.516 1_655 S
C486 C487 1.502 . S
C486 C488 1.561 . S
C486 C489 1.526 . S
C487 H471 0.959 . S
C487 H472 0.959 . S
C487 H473 0.961 . S
C487 C486 1.502 . S
C488 H474 0.960 . S
C488 H475 0.961 . S
C488 H476 0.959 1_655 S
C488 C486 1.561 . S
C489 C486 1.526 . S
C489 C490 1.396 1_655 S
C489 C494 1.390 . S
C490 C484 1.465 . S
C490 C489 1.396 1_455 S
C490 C491 1.399 . S
C491 H477 0.929 . S
C491 C490 1.399 . S
C491 C492 1.385 . S
C492 H478 0.931 . S
C492 C491 1.385 . S
C492 C493 1.389 1_455 S
C493 C492 1.389 1_655 S
C493 C494 1.387 . S
C494 H479 0.930 . S
C494 C489 1.390 . S
C494 C493 1.387 . S
H495 C507 0.930 . S
H496 C509 0.930 . S
H497 C510 0.930 1_565 S
H498 C514 0.959 . S
H499 C514 0.959 . S
H500 C514 0.961 . S
H501 C515 0.960 . S
H502 C515 0.961 . S
H503 C515 0.959 . S
H504 C518 0.929 . S
H505 C519 0.931 . S
H506 C521 0.930 1_545 S
C507 H495 0.930 . S
C507 C508 1.399 . S
C507 C512 1.399 . S
C508 C507 1.399 . S
C508 C509 1.376 . S
C509 H496 0.930 . S
C509 C508 1.376 . S
C509 C510 1.388 . S
C510 H497 0.930 1_545 S
C510 C509 1.388 . S
C510 C511 1.390 . S
C511 C510 1.390 . S
C511 C512 1.394 . S
C511 C517 1.465 1_545 S
C512 C507 1.399 . S
C512 C511 1.394 . S
C512 C513 1.516 . S
C513 C512 1.516 . S
C513 C514 1.502 . S
C513 C515 1.561 . S
C513 C516 1.526 . S
C514 H498 0.959 . S
C514 H499 0.959 . S
C514 H500 0.961 . S
C514 C513 1.502 . S
C515 H501 0.960 . S
C515 H502 0.961 . S
C515 H503 0.959 . S
C515 C513 1.561 . S
C516 C513 1.526 . S
C516 C517 1.396 1_545 S
C516 C521 1.390 1_545 S
C517 C511 1.465 1_565 S
C517 C516 1.396 1_565 S
C517 C518 1.399 . S
C518 H504 0.929 . S
C518 C517 1.399 . S
C518 C519 1.385 . S
C519 H505 0.931 . S
C519 C518 1.385 . S
C519 C520 1.389 . S
C520 C519 1.389 . S
C520 C521 1.387 . S
C521 H506 0.930 1_565 S
C521 C516 1.390 1_565 S
C521 C520 1.387 . S
H522 C534 0.930 . S
H523 C536 0.930 . S
H524 C537 0.930 . S
H525 C541 0.959 . S
H526 C541 0.959 . S
H527 C541 0.961 . S
H528 C542 0.960 . S
H529 C542 0.961 . S
H530 C542 0.959 . S
H531 C545 0.929 . S
H532 C546 0.931 . S
H533 C548 0.930 . S
C534 H522 0.930 . S
C534 C535 1.399 . S
C534 C539 1.399 . S
C535 C534 1.399 . S
C535 C536 1.376 . S
C536 H523 0.930 . S
C536 C535 1.376 . S
C536 C537 1.388 . S
C537 H524 0.930 . S
C537 C536 1.388 . S
C537 C538 1.390 . S
C538 C537 1.390 . S
C538 C539 1.394 . S
C538 C544 1.465 . S
C539 C534 1.399 . S
C539 C538 1.394 . S
C539 C540 1.516 . S
C540 C539 1.516 . S
C540 C541 1.502 . S
C540 C542 1.561 . S
C540 C543 1.526 . S
C541 H525 0.959 . S
C541 H526 0.959 . S
C541 H527 0.961 . S
C541 C540 1.502 . S
C542 H528 0.960 . S
C542 H529 0.961 . S
C542 H530 0.959 . S
C542 C540 1.561 . S
C543 C540 1.526 . S
C543 C544 1.396 . S
C543 C548 1.390 . S
C544 C538 1.465 . S
C544 C543 1.396 . S
C544 C545 1.399 . S
C545 H531 0.929 . S
C545 C544 1.399 . S
C545 C546 1.385 . S
C546 H532 0.931 . S
C546 C545 1.385 . S
C546 C547 1.389 . S
C547 C546 1.389 . S
C547 C548 1.387 . S
C548 H533 0.930 . S
C548 C543 1.390 . S
C548 C547 1.387 . S
H549 C561 0.930 . S
H550 C563 0.930 . S
H551 C564 0.930 1_455 S
H552 C568 0.959 . S
H553 C568 0.959 . S
H554 C568 0.961 . S
H555 C569 0.960 . S
H556 C569 0.961 . S
H557 C569 0.959 . S
H558 C572 0.929 . S
H559 C573 0.931 . S
H560 C575 0.930 1_655 S
C561 H549 0.930 . S
C561 C562 1.399 . S
C561 C566 1.399 . S
C562 C561 1.399 . S
C562 C563 1.376 . S
C563 H550 0.930 . S
C563 C562 1.376 . S
C563 C564 1.388 . S
C564 H551 0.930 1_655 S
C564 C563 1.388 . S
C564 C565 1.390 . S
C565 C564 1.390 . S
C565 C566 1.394 . S
C565 C571 1.465 1_655 S
C566 C561 1.399 . S
C566 C565 1.394 . S
C566 C567 1.516 . S
C567 C566 1.516 . S
C567 C568 1.502 . S
C567 C569 1.561 . S
C567 C570 1.526 . S
C568 H552 0.959 . S
C568 H553 0.959 . S
C568 H554 0.961 . S
C568 C567 1.502 . S
C569 H555 0.960 . S
C569 H556 0.961 . S
C569 H557 0.959 . S
C569 C567 1.561 . S
C570 C567 1.526 . S
C570 C571 1.396 1_655 S
C570 C575 1.390 1_655 S
C571 C565 1.465 1_455 S
C571 C570 1.396 1_455 S
C571 C572 1.399 . S
C572 H558 0.929 . S
C572 C571 1.399 . S
C572 C573 1.385 . S
C573 H559 0.931 . S
C573 C572 1.385 . S
C573 C574 1.389 . S
C574 C573 1.389 . S
C574 C575 1.387 . S
C575 H560 0.930 1_455 S
C575 C570 1.390 1_455 S
C575 C574 1.387 . S
H576 C588 0.930 . S
H577 C590 0.930 1_565 S
H578 C591 0.930 . S
H579 C595 0.959 . S
H580 C595 0.959 . S
H581 C595 0.961 . S
H582 C596 0.960 . S
H583 C596 0.961 . S
H584 C596 0.959 . S
H585 C599 0.929 . S
H586 C600 0.931 . S
H587 C602 0.930 . S
C588 H576 0.930 . S
C588 C589 1.399 . S
C588 C593 1.399 . S
C589 C588 1.399 . S
C589 C590 1.376 . S
C590 H577 0.930 1_545 S
C590 C589 1.376 . S
C590 C591 1.388 1_545 S
C591 H578 0.930 . S
C591 C590 1.388 1_565 S
C591 C592 1.390 . S
C592 C591 1.390 . S
C592 C593 1.394 1_565 S
C592 C598 1.465 . S
C593 C588 1.399 . S
C593 C592 1.394 1_545 S
C593 C594 1.516 . S
C594 C593 1.516 . S
C594 C595 1.502 . S
C594 C596 1.561 . S
C594 C597 1.526 1_545 S
C595 H579 0.959 . S
C595 H580 0.959 . S
C595 H581 0.961 . S
C595 C594 1.502 . S
C596 H582 0.960 . S
C596 H583 0.961 . S
C596 H584 0.959 . S
C596 C594 1.561 . S
C597 C594 1.526 1_565 S
C597 C598 1.396 . S
C597 C602 1.390 . S
C598 C592 1.465 . S
C598 C597 1.396 . S
C598 C599 1.399 . S
C599 H585 0.929 . S
C599 C598 1.399 . S
C599 C600 1.385 . S
C600 H586 0.931 . S
C600 C599 1.385 . S
C600 C601 1.389 . S
C601 C600 1.389 . S
C601 C602 1.387 . S
C602 H587 0.930 . S
C602 C597 1.390 . S
C602 C601 1.387 . S
C211 C18 1.639 . S
C223 C117 1.659 . S
C238 C51 1.650 . S
C250 C150 1.631 . S
C265 C183 1.644 . S
C277 C84 1.634 . S
C292 C87 0.931 . S
C304 C186 0.959 . S
C319 C120 0.921 . S
C331 C21 0.959 . S
C346 C153 0.931 . S
C358 C54 0.959 . S
C373 C7 0.723 . S
C385 C106 0.716 . S
C400 C139 0.738 . S
C412 C40 0.730 . S
C427 C172 0.734 . S
C439 C73 0.739 . S
C454 N13 1.626 . S
C466 N167 1.762 . S
C481 N2 1.753 . S
C493 N46 1.656 . S
C508 N35 1.757 . S
C520 N79 1.677 . S
C535 N68 1.753 . S
C547 N112 1.654 . S
C562 N101 1.770 . S
C574 N145 1.636 . S
C589 N178 1.677 . S
C601 N134 1.748 . S
