# Generated by pormake.
# Topology xfr, (7)-cn, num edge types: 1
# Building blocks:
#     Node 0, Type 0, BuildingBlock: HICVOG_clean_sbu_0, # of connection points: 7
#     Node 1, Type 0, BuildingBlock: HICVOG_clean_sbu_0, # of connection points: 7
#     Node 2, Type 0, BuildingBlock: HICVOG_clean_sbu_0, # of connection points: 7
#     Node 3, Type 0, BuildingBlock: HICVOG_clean_sbu_0, # of connection points: 7
#     Node 4, Type 0, BuildingBlock: HICVOG_clean_sbu_0, # of connection points: 7
#     Node 5, Type 0, BuildingBlock: HICVOG_clean_sbu_0, # of connection points: 7
#     Node 6, Type 0, BuildingBlock: HICVOG_clean_sbu_0, # of connection points: 7
#     Node 7, Type 0, BuildingBlock: HICVOG_clean_sbu_0, # of connection points: 7
#     Node 8, Type 0, BuildingBlock: HICVOG_clean_sbu_0, # of connection points: 7
#     Node 9, Type 0, BuildingBlock: HICVOG_clean_sbu_0, # of connection points: 7
#     Node 10, Type 0, BuildingBlock: HICVOG_clean_sbu_0, # of connection points: 7
#     Node 11, Type 0, BuildingBlock: HICVOG_clean_sbu_0, # of connection points: 7
#     Node 12, Type 0, BuildingBlock: HICVOG_clean_sbu_0, # of connection points: 7
#     Node 13, Type 0, BuildingBlock: HICVOG_clean_sbu_0, # of connection points: 7
#     Node 14, Type 0, BuildingBlock: HICVOG_clean_sbu_0, # of connection points: 7
#     Node 15, Type 0, BuildingBlock: HICVOG_clean_sbu_0, # of connection points: 7
#     Node 16, Type 0, BuildingBlock: HICVOG_clean_sbu_0, # of connection points: 7
#     Node 17, Type 0, BuildingBlock: HICVOG_clean_sbu_0, # of connection points: 7
#     Node 18, Type 0, BuildingBlock: HICVOG_clean_sbu_0, # of connection points: 7
#     Node 19, Type 0, BuildingBlock: HICVOG_clean_sbu_0, # of connection points: 7
#     Node 20, Type 0, BuildingBlock: HICVOG_clean_sbu_0, # of connection points: 7
#     Node 21, Type 0, BuildingBlock: HICVOG_clean_sbu_0, # of connection points: 7
#     Node 22, Type 0, BuildingBlock: HICVOG_clean_sbu_0, # of connection points: 7
#     Node 23, Type 0, BuildingBlock: HICVOG_clean_sbu_0, # of connection points: 7
#     Node 24, Type 0, BuildingBlock: HICVOG_clean_sbu_0, # of connection points: 7
#     Node 25, Type 0, BuildingBlock: HICVOG_clean_sbu_0, # of connection points: 7
#     Node 26, Type 0, BuildingBlock: HICVOG_clean_sbu_0, # of connection points: 7
#     Node 27, Type 0, BuildingBlock: HICVOG_clean_sbu_0, # of connection points: 7
#     Node 28, Type 0, BuildingBlock: HICVOG_clean_sbu_0, # of connection points: 7
#     Node 29, Type 0, BuildingBlock: HICVOG_clean_sbu_0, # of connection points: 7
#     Node 30, Type 0, BuildingBlock: HICVOG_clean_sbu_0, # of connection points: 7
#     Node 31, Type 0, BuildingBlock: HICVOG_clean_sbu_0, # of connection points: 7
#     Edge 32, Type (0, 0), None
#     Edge 33, Type (0, 0), None
#     Edge 34, Type (0, 0), None
#     Edge 35, Type (0, 0), None
#     Edge 36, Type (0, 0), None
#     Edge 37, Type (0, 0), None
#     Edge 38, Type (0, 0), None
#     Edge 39, Type (0, 0), None
#     Edge 40, Type (0, 0), None
#     Edge 41, Type (0, 0), None
#     Edge 42, Type (0, 0), None
#     Edge 43, Type (0, 0), None
#     Edge 44, Type (0, 0), None
#     Edge 45, Type (0, 0), None
#     Edge 46, Type (0, 0), None
#     Edge 47, Type (0, 0), None
#     Edge 48, Type (0, 0), None
#     Edge 49, Type (0, 0), None
#     Edge 50, Type (0, 0), None
#     Edge 51, Type (0, 0), None
#     Edge 52, Type (0, 0), None
#     Edge 53, Type (0, 0), None
#     Edge 54, Type (0, 0), None
#     Edge 55, Type (0, 0), None
#     Edge 56, Type (0, 0), None
#     Edge 57, Type (0, 0), None
#     Edge 58, Type (0, 0), None
#     Edge 59, Type (0, 0), None
#     Edge 60, Type (0, 0), None
#     Edge 61, Type (0, 0), None
#     Edge 62, Type (0, 0), None
#     Edge 63, Type (0, 0), None
#     Edge 64, Type (0, 0), None
#     Edge 65, Type (0, 0), None
#     Edge 66, Type (0, 0), None
#     Edge 67, Type (0, 0), None
#     Edge 68, Type (0, 0), None
#     Edge 69, Type (0, 0), None
#     Edge 70, Type (0, 0), None
#     Edge 71, Type (0, 0), None
#     Edge 72, Type (0, 0), None
#     Edge 73, Type (0, 0), None
#     Edge 74, Type (0, 0), None
#     Edge 75, Type (0, 0), None
#     Edge 76, Type (0, 0), None
#     Edge 77, Type (0, 0), None
#     Edge 78, Type (0, 0), None
#     Edge 79, Type (0, 0), None
#     Edge 80, Type (0, 0), None
#     Edge 81, Type (0, 0), None
#     Edge 82, Type (0, 0), None
#     Edge 83, Type (0, 0), None
#     Edge 84, Type (0, 0), None
#     Edge 85, Type (0, 0), None
#     Edge 86, Type (0, 0), None
#     Edge 87, Type (0, 0), None
#     Edge 88, Type (0, 0), None
#     Edge 89, Type (0, 0), None
#     Edge 90, Type (0, 0), None
#     Edge 91, Type (0, 0), None
#     Edge 92, Type (0, 0), None
#     Edge 93, Type (0, 0), None
#     Edge 94, Type (0, 0), None
#     Edge 95, Type (0, 0), None
#     Edge 96, Type (0, 0), None
#     Edge 97, Type (0, 0), None
#     Edge 98, Type (0, 0), None
#     Edge 99, Type (0, 0), None
#     Edge 100, Type (0, 0), None
#     Edge 101, Type (0, 0), None
#     Edge 102, Type (0, 0), None
#     Edge 103, Type (0, 0), None
#     Edge 104, Type (0, 0), None
#     Edge 105, Type (0, 0), None
#     Edge 106, Type (0, 0), None
#     Edge 107, Type (0, 0), None
#     Edge 108, Type (0, 0), None
#     Edge 109, Type (0, 0), None
#     Edge 110, Type (0, 0), None
#     Edge 111, Type (0, 0), None
#     Edge 112, Type (0, 0), None
#     Edge 113, Type (0, 0), None
#     Edge 114, Type (0, 0), None
#     Edge 115, Type (0, 0), None
#     Edge 116, Type (0, 0), None
#     Edge 117, Type (0, 0), None
#     Edge 118, Type (0, 0), None
#     Edge 119, Type (0, 0), None
#     Edge 120, Type (0, 0), None
#     Edge 121, Type (0, 0), None
#     Edge 122, Type (0, 0), None
#     Edge 123, Type (0, 0), None
#     Edge 124, Type (0, 0), None
#     Edge 125, Type (0, 0), None
#     Edge 126, Type (0, 0), None
#     Edge 127, Type (0, 0), None
#     Edge 128, Type (0, 0), None
#     Edge 129, Type (0, 0), None
#     Edge 130, Type (0, 0), None
#     Edge 131, Type (0, 0), None
#     Edge 132, Type (0, 0), None
#     Edge 133, Type (0, 0), None
#     Edge 134, Type (0, 0), None
#     Edge 135, Type (0, 0), None
#     Edge 136, Type (0, 0), None
#     Edge 137, Type (0, 0), None
#     Edge 138, Type (0, 0), None
#     Edge 139, Type (0, 0), None
#     Edge 140, Type (0, 0), None
#     Edge 141, Type (0, 0), None
#     Edge 142, Type (0, 0), None
#     Edge 143, Type (0, 0), None
# Relax obj value: 0.351
# Max RMSD: 0.229
# Mean RMSD: 0.229
data_MOF--net-xfr--node1-HICVOG_clean_sbu_0--edge1-none
_symmetry_space_group_name_H-M    P1
_symmetry_Int_Tables_number       1
_symmetry_cell_setting            triclinic
loop_
_symmetry_equiv_pos_as_xyz
'x, y, z'
_cell_length_a     13.460634
_cell_length_b     13.460476
_cell_length_c     93.708946
_cell_angle_alpha  89.992236
_cell_angle_beta   89.996735
_cell_angle_gamma 90.001836
loop_
_atom_site_label
_atom_site_type_symbol
_atom_site_fract_x
_atom_site_fract_y
_atom_site_fract_z
_atom_type_partial_charge
Zn0 Zn 0.27689 0.24331 0.19062 0.0
C1 C 0.51941 0.33736 0.20803 0.0
N2 N 0.49769 0.42812 0.20304 0.0
C3 C 0.40121 0.42193 0.19968 0.0
N4 N 0.36718 0.32696 0.20205 0.0
N5 N 0.44059 0.27625 0.20792 0.0
C6 C 0.55754 1.00237 0.20933 0.0
O7 O 0.50036 1.0099 0.19807 0.0
O8 O 0.14687 0.26043 0.19839 0.0
Zn9 Zn 0.42917 0.14852 0.21879 0.0
N10 N 0.27152 0.28227 0.17068 0.0
C11 C 0.32049 0.37665 0.15037 0.0
C12 C 0.32683 0.3569 0.16497 0.0
C13 C 0.21001 0.22679 0.16236 0.0
N14 N 0.26045 0.31993 0.14204 0.0
C15 C 0.20468 0.24491 0.14761 0.0
O16 O 0.33215 1.04041 0.21247 0.0
C17 C 0.29673 1.01659 0.20039 0.0
O18 O 0.28444 0.08391 0.19083 0.0
H19 H 0.37629 0.4 0.17157 0.0
H20 H 0.16791 0.16718 0.16721 0.0
C21 C 0.40298 0.09694 0.24779 0.0
C22 C 0.40476 0.11201 0.26265 0.0
C23 C 0.41808 0.28594 0.25863 0.0
C24 C 0.4164 0.27033 0.24393 0.0
N25 N 0.40922 0.1762 0.23881 0.0
N26 N 0.41246 0.20684 0.26761 0.0
H27 H 0.40046 1.02286 0.24332 0.0
C28 C 0.13657 0.21027 0.20969 0.0
O29 O 0.21242 0.19872 0.21832 0.0
O30 O 0.55256 1.06754 0.21906 0.0
H31 H 0.42395 0.33235 0.23668 0.0
H32 H 0.36404 0.43575 0.14566 0.0
H33 H 0.42557 0.36026 0.26289 0.0
Zn34 Zn 0.1459 1.0267 0.4406 0.0
C35 C 1.0516 0.2687 0.45808 0.0
N36 N 0.96085 0.24686 0.45309 0.0
C37 C 0.96713 0.15041 0.44972 0.0
N38 N 1.06214 0.11649 0.45209 0.0
N39 N 0.11278 0.18994 0.45797 0.0
C40 C 0.38687 0.30708 0.45941 0.0
O41 O 0.37952 0.24997 0.44813 0.0
O42 O 0.12907 0.89646 0.44828 0.0
Zn43 Zn 0.24054 0.1786 0.46883 0.0
N44 N 0.10696 1.02174 0.42065 0.0
C45 C 1.01267 0.0711 0.40036 0.0
C46 C 1.03242 0.07723 0.41496 0.0
C47 C 0.16235 0.96024 0.41231 0.0
N48 N 1.0693 1.01107 0.39201 0.0
C49 C 0.14423 0.95512 0.39756 0.0
O50 O 0.34856 0.08157 0.46249 0.0
C51 C 0.37244 1.04645 0.45039 0.0
O52 O 0.30522 1.03448 0.44081 0.0
H53 H 0.98939 0.12666 0.42157 0.0
H54 H 0.22188 0.91798 0.41715 0.0
C55 C 0.29225 0.15225 0.49781 0.0
C56 C 0.27729 0.15413 0.51267 0.0
C57 C 0.10335 0.16769 0.50868 0.0
C58 C 0.11886 0.16592 0.49397 0.0
N59 N 0.21295 0.15857 0.48885 0.0
N60 N 0.18251 0.16199 0.51765 0.0
H61 H 0.3663 0.14963 0.49333 0.0
C62 C 0.17899 0.88607 0.4596 0.0
O63 O 0.19024 0.9618 0.46826 0.0
O64 O 0.32155 0.30203 0.46911 0.0
H65 H 1.05681 0.17355 0.48673 0.0
H66 H 0.95363 0.11478 0.39566 0.0
H67 H 1.02907 0.17532 0.51295 0.0
Zn68 Zn 0.36199 0.89604 0.69058 0.0
C69 C 0.12011 0.80156 0.70809 0.0
N70 N 0.14197 0.71086 0.70309 0.0
C71 C 0.2384 0.71722 0.6997 0.0
N72 N 0.27226 0.81224 0.70207 0.0
N73 N 0.19882 0.8628 0.70797 0.0
C74 C 0.08142 0.13717 0.70955 0.0
O75 O 0.1385 0.13042 0.69827 0.0
O76 O 0.49218 0.87925 0.69827 0.0
Zn77 Zn 0.21014 0.99054 0.71884 0.0
N78 N 0.36712 0.85706 0.67064 0.0
C79 C 0.31818 0.76266 0.65035 0.0
C80 C 0.31185 0.7824 0.66494 0.0
C81 C 0.42859 0.91258 0.66232 0.0
N82 N 0.37819 0.81943 0.64201 0.0
C83 C 0.43392 0.89448 0.64757 0.0
O84 O 0.30704 0.09866 0.71247 0.0
C85 C 0.34209 0.12256 0.70037 0.0
O86 O 0.35407 1.05534 0.69079 0.0
H87 H 0.26244 0.73927 0.67155 0.0
H88 H 0.47068 0.9722 0.66717 0.0
C89 C 0.23666 1.04218 0.74782 0.0
C90 C 0.23483 1.02718 0.76267 0.0
C91 C 0.2216 0.85323 0.75868 0.0
C92 C 0.22331 0.86876 0.74397 0.0
N93 N 0.23047 0.96288 0.73885 0.0
N94 N 0.22717 0.93237 0.76765 0.0
H95 H 0.2391 0.11624 0.74333 0.0
C96 C 0.50247 0.9291 0.7096 0.0
O97 O 0.42668 0.94027 0.71825 0.0
O98 O 0.08657 0.0714 0.71919 0.0
H99 H 0.21574 0.80672 0.73673 0.0
H100 H 0.27468 0.70353 0.64564 0.0
H101 H 0.2141 0.77892 0.76294 0.0
Zn102 Zn 0.39818 0.96031 0.96889 0.0
C103 C 0.67134 0.98895 0.94972 0.0
N104 N 0.6776 0.89232 0.95299 0.0
C105 C 0.58703 0.87043 0.95803 0.0
N106 N 0.52601 0.94931 0.95804 0.0
N107 N 0.57652 1.02299 0.9522 0.0
C108 C 0.45936 0.25316 0.95939 0.0
O109 O 0.44861 0.17773 0.96812 0.0
O110 O 0.3172 0.8368 0.96916 0.0
Zn111 Zn 0.49224 0.11156 0.94057 0.0
N112 N 0.42582 0.98005 0.98892 0.0
C113 C 0.53545 0.97046 1.00874 0.0
C114 C 0.51991 0.97247 0.99403 0.0
C115 C 0.34655 0.98636 0.99789 0.0
N116 N 0.45633 0.97616 1.01771 0.0
C117 C 0.36155 0.98424 1.01274 0.0
O118 O 0.33297 0.10367 0.94085 0.0
C119 C 0.26601 0.09224 0.95047 0.0
O120 O 0.29015 1.05753 0.9626 0.0
H121 H 0.58193 0.96483 0.98679 0.0
H122 H 0.2725 0.98917 0.9934 0.0
C123 C 0.4764 0.17759 0.91228 0.0
C124 C 0.49422 0.18211 0.89752 0.0
C125 C 0.6238 1.06389 0.9003 0.0
C126 C 0.6043 1.05837 0.91491 0.0
N127 N 0.53093 0.11532 0.92062 0.0
N128 N 0.56802 0.12476 0.89195 0.0
H129 H 0.41774 0.22097 0.91714 0.0
C130 C 0.25178 0.8318 0.95947 0.0
O131 O 0.25903 0.88896 0.9482 0.0
O132 O 0.50877 0.24246 0.94803 0.0
H133 H 0.64656 1.00826 0.92153 0.0
H134 H 0.60973 0.96266 1.013 0.0
H135 H 0.68192 1.01906 0.89559 0.0
Zn136 Zn 0.42907 0.99062 0.31665 0.0
C137 C 0.40059 0.7176 0.33587 0.0
N138 N 0.49729 0.71145 0.33265 0.0
C139 C 0.51912 0.80199 0.32758 0.0
N140 N 0.44014 0.86288 0.32753 0.0
N141 N 0.36644 0.81234 0.33336 0.0
C142 C 0.13611 0.92929 0.32621 0.0
O143 O 0.21153 0.94011 0.31748 0.0
O144 O 0.55268 0.0714 0.31637 0.0
Zn145 Zn 0.27791 0.89661 0.34499 0.0
N146 N 0.40922 0.96288 0.29663 0.0
C147 C 0.41884 0.85317 0.27682 0.0
C148 C 0.41689 0.86878 0.29153 0.0
C149 C 0.40278 1.0421 0.28765 0.0
N150 N 0.41302 0.93224 0.26784 0.0
C151 C 0.40486 1.02704 0.2728 0.0
O152 O 0.28554 1.05592 0.34469 0.0
C153 C 0.29706 0.1229 0.33507 0.0
O154 O 0.33192 0.09877 0.32295 0.0
H155 H 0.42464 0.8068 0.29878 0.0
H156 H 0.39992 0.11617 0.29213 0.0
C157 C 0.2115 0.91145 0.3733 0.0
C158 C 0.20752 0.89369 0.38806 0.0
C159 C 0.32806 0.76627 0.38528 0.0
C160 C 0.33304 0.78574 0.37067 0.0
N161 N 0.27466 0.85798 0.36496 0.0
N162 N 0.26629 0.821 0.39363 0.0
H163 H 0.16705 0.96931 0.36844 0.0
C164 C 0.55765 0.13688 0.32605 0.0
O165 O 0.50046 0.12969 0.33732 0.0
O166 O 0.14688 0.87987 0.33757 0.0
H167 H 0.38392 0.74443 0.36405 0.0
H168 H 0.42668 0.77888 0.27257 0.0
H169 H 0.37401 0.70903 0.38999 0.0
Zn170 Zn 0.39878 0.17919 0.56664 0.0
C171 C 0.67155 0.15071 0.58592 0.0
N172 N 0.67776 0.24741 0.58268 0.0
C173 C 0.5873 0.26921 0.57759 0.0
N174 N 0.52642 0.19023 0.57752 0.0
N175 N 0.57685 0.11657 0.58338 0.0
C176 C 0.45999 0.88641 0.57626 0.0
O177 O 0.44923 0.96187 0.56754 0.0
O178 O 0.31839 0.30308 0.56623 0.0
Zn179 Zn 0.49245 1.02828 0.59503 0.0
N180 N 0.42659 0.1588 0.54663 0.0
C181 C 0.53621 0.16829 0.52681 0.0
C182 C 0.52067 0.16646 0.54151 0.0
C183 C 0.34734 0.15224 0.53766 0.0
N184 N 0.4571 0.16238 0.51783 0.0
C185 C 0.36232 0.15422 0.52281 0.0
O186 O 0.33313 1.03599 0.59472 0.0
C187 C 0.26619 1.04754 0.58509 0.0
O188 O 0.29041 0.08232 0.57297 0.0
H189 H 0.58267 0.17438 0.54876 0.0
H190 H 0.27329 0.14944 0.54215 0.0
C191 C 0.47765 0.96186 0.62332 0.0
C192 C 0.49527 0.95794 0.63809 0.0
C193 C 0.62231 0.07893 0.63533 0.0
C194 C 0.60296 0.08385 0.62071 0.0
N195 N 0.53098 1.02521 0.61499 0.0
N196 N 0.5677 1.01696 0.64367 0.0
H197 H 0.41999 0.91722 0.61846 0.0
C198 C 0.25233 0.30819 0.57583 0.0
O199 O 0.2588 0.25111 0.58712 0.0
O200 O 0.50921 0.89716 0.58764 0.0
H201 H 0.64414 0.13489 0.6141 0.0
H202 H 0.61048 0.17615 0.52254 0.0
H203 H 0.67933 0.12508 0.64005 0.0
Zn204 Zn 0.20994 0.14871 0.81665 0.0
C205 C 0.23845 0.42164 0.83589 0.0
N206 N 0.14177 0.42782 0.83266 0.0
C207 C 0.11996 0.33731 0.82759 0.0
N208 N 0.19892 0.2764 0.82753 0.0
N209 N 0.27259 0.32691 0.83337 0.0
C210 C 0.50293 0.21007 0.82615 0.0
O211 O 0.42743 0.19905 0.81744 0.0
O212 O 0.08619 1.06814 0.81632 0.0
Zn213 Zn 0.36135 0.24265 0.84497 0.0
N214 N 0.22997 0.17647 0.79664 0.0
C215 C 0.22007 0.28606 0.77681 0.0
C216 C 0.22204 0.27053 0.79152 0.0
C217 C 0.23666 0.09722 0.78767 0.0
N218 N 0.22612 0.20695 0.76784 0.0
C219 C 0.23455 0.1122 0.77281 0.0
O220 O 0.35374 0.08333 0.84467 0.0
C221 C 0.34198 1.0163 0.83506 0.0
O222 O 0.30695 1.04041 0.82296 0.0
H223 H 0.21406 0.33251 0.79876 0.0
H224 H 0.23969 1.02318 0.79215 0.0
C225 C 0.42741 0.22677 0.87327 0.0
C226 C 0.43173 0.24444 0.88803 0.0
C227 C 0.31296 0.37353 0.88527 0.0
C228 C 0.30765 0.35418 0.87065 0.0
N229 N 0.36497 0.28114 0.86494 0.0
N230 N 0.374 0.31792 0.89361 0.0
H231 H 0.47106 0.16834 0.86841 0.0
C232 C 0.08122 1.00233 0.82596 0.0
O233 O 0.13843 1.00911 0.83723 0.0
O234 O 0.49221 0.25959 0.83749 0.0
H235 H 0.25737 0.39628 0.86404 0.0
H236 H 0.21202 0.36031 0.77255 0.0
H237 H 0.26784 0.4314 0.88999 0.0
Zn238 Zn 0.24001 0.95999 0.06673 0.0
C239 C 0.96703 0.98811 0.08598 0.0
N240 N 0.96092 0.89146 0.08271 0.0
C241 C 1.05141 0.86981 0.07763 0.0
N242 N 0.11227 0.94881 0.07759 0.0
N243 N 1.06174 1.02238 0.08345 0.0
C244 C 0.17873 0.25273 0.07625 0.0
O245 O 0.18939 0.17727 0.06752 0.0
O246 O 0.32089 0.83649 0.06645 0.0
Zn247 Zn 0.14615 0.11095 0.09507 0.0
N248 N 0.21229 0.97978 0.04671 0.0
C249 C 0.10266 0.97014 0.02689 0.0
C250 C 0.11821 0.9721 0.04159 0.0
C251 C 0.29155 0.98624 0.03774 0.0
N252 N 0.18177 0.97598 0.01791 0.0
C253 C 0.27654 0.98416 0.02288 0.0
O254 O 0.30552 0.10328 0.09478 0.0
C255 C 0.3724 0.09189 0.08514 0.0
O256 O 0.3481 1.05718 0.07302 0.0
H257 H 1.0562 0.96433 0.04884 0.0
H258 H 0.36559 0.98912 0.04222 0.0
C259 C 0.16095 0.17751 0.12336 0.0
C260 C 0.14327 0.18151 0.13813 0.0
C261 C 1.01601 1.06077 0.13537 0.0
C262 C 1.03542 1.05577 0.12075 0.0
N263 N 0.10754 0.11425 0.11504 0.0
N264 N 0.07069 0.12265 0.14371 0.0
H265 H 0.21874 0.22202 0.1185 0.0
C266 C 0.38623 0.83145 0.07616 0.0
O267 O 0.37886 0.88854 0.08743 0.0
O268 O 0.12954 0.24201 0.08763 0.0
H269 H 0.99416 1.0048 0.11415 0.0
H270 H 1.02839 0.96227 0.02263 0.0
H271 H 0.95887 1.01474 0.14009 0.0
Zn272 Zn 0.86235 0.89595 0.84498 0.0
C273 C 0.62005 0.80178 0.82755 0.0
N274 N 0.64187 0.71102 0.83253 0.0
C275 C 0.73836 0.71727 0.83589 0.0
N276 N 0.77229 0.81227 0.83352 0.0
N277 N 0.69883 0.86293 0.82765 0.0
C278 C 0.58168 0.13705 0.82613 0.0
O279 O 0.6388 0.12997 0.83741 0.0
O280 O 0.99243 0.87904 0.83724 0.0
Zn281 Zn 0.71021 0.99063 0.81677 0.0
N282 N 0.86766 0.85698 0.86493 0.0
C283 C 0.81889 0.7624 0.88522 0.0
C284 C 0.81256 0.78217 0.87062 0.0
C285 C 0.92898 0.91262 0.87326 0.0
N286 N 0.87872 0.81928 0.89356 0.0
C287 C 0.9343 0.89448 0.888 0.0
O288 O 0.80717 0.09876 0.82311 0.0
C289 C 0.84241 0.12256 0.83521 0.0
O290 O 0.85456 1.05527 0.84477 0.0
H291 H 0.76327 0.73893 0.86402 0.0
H292 H 0.97094 0.97235 0.86841 0.0
C293 C 0.73661 1.04218 0.78776 0.0
C294 C 0.7347 1.02711 0.77291 0.0
C295 C 0.72114 0.85321 0.77693 0.0
C296 C 0.72294 0.86882 0.79164 0.0
N297 N 0.73031 0.96294 0.79675 0.0
N298 N 0.72683 0.93229 0.76795 0.0
H299 H 0.73923 0.11626 0.79224 0.0
C300 C 1.00267 0.92905 0.82593 0.0
O301 O 0.92685 0.94046 0.81729 0.0
O302 O 0.58673 0.07153 0.81645 0.0
H303 H 0.7153 0.80682 0.79889 0.0
H304 H 0.7755 0.70316 0.88992 0.0
H305 H 0.7135 0.77889 0.77268 0.0
Zn306 Zn 0.8982 0.96035 0.56671 0.0
C307 C 0.17153 0.98891 0.58583 0.0
N308 N 0.17783 0.8923 0.58255 0.0
C309 C 0.0872 0.87041 0.57753 0.0
N310 N 1.02613 0.94927 0.57754 0.0
N311 N 0.07666 1.02295 0.58338 0.0
C312 C 0.95941 0.25306 0.5762 0.0
O313 O 0.94886 0.17764 0.56746 0.0
O314 O 0.81701 0.83697 0.56648 0.0
Zn315 Zn 0.99244 0.11146 0.59502 0.0
N316 N 0.92576 0.97994 0.54668 0.0
C317 C 1.03538 0.97028 0.52685 0.0
C318 C 1.01984 0.9723 0.54156 0.0
C319 C 0.84649 0.98631 0.53771 0.0
N320 N 0.95626 0.97605 0.51788 0.0
C321 C 0.86148 0.9842 0.52285 0.0
O322 O 0.83318 0.10349 0.59477 0.0
C323 C 0.76625 0.09225 0.58514 0.0
O324 O 0.79034 1.05771 0.57301 0.0
H325 H 0.08187 0.96464 0.5488 0.0
H326 H 0.77244 0.98918 0.54219 0.0
C327 C 0.97711 0.17761 0.62332 0.0
C328 C 0.99502 0.18198 0.63808 0.0
C329 C 0.12405 1.06318 0.63527 0.0
C330 C 0.10444 1.05781 0.62067 0.0
N331 N 1.0313 0.11512 0.61498 0.0
N332 N 1.0686 0.12426 0.64363 0.0
H333 H 0.9186 0.22126 0.61847 0.0
C334 C 0.75174 0.83194 0.5762 0.0
O335 O 0.75914 0.8891 0.58747 0.0
O336 O 1.00873 0.2424 0.58756 0.0
H337 H 0.14641 1.00752 0.61404 0.0
H338 H 0.10965 0.96244 0.52259 0.0
H339 H 0.18199 1.01806 0.63998 0.0
Zn340 Zn 0.92895 0.14879 0.31676 0.0
C341 C 0.90062 0.42198 0.33593 0.0
N342 N 0.99724 0.42817 0.33265 0.0
C343 C 1.01902 0.33757 0.32761 0.0
N344 N 0.9401 0.2766 0.32762 0.0
N345 N 0.8665 0.32716 0.33346 0.0
C346 C 0.63628 0.21005 0.32607 0.0
O347 O 0.7119 0.19909 0.31738 0.0
O348 O 1.0524 1.06782 0.31649 0.0
Zn349 Zn 0.77731 0.24304 0.34501 0.0
N350 N 0.90919 0.17644 0.29674 0.0
C351 C 0.91892 0.28603 0.27691 0.0
C352 C 0.91694 0.27051 0.29161 0.0
C353 C 0.90268 0.09717 0.28777 0.0
N354 N 0.91302 0.2069 0.26794 0.0
C355 C 0.90476 0.11214 0.27291 0.0
O356 O 0.78517 0.08373 0.34478 0.0
C357 C 0.79685 1.01668 0.33517 0.0
O358 O 0.83178 1.04073 0.32306 0.0
H359 H 0.92474 0.33253 0.29886 0.0
H360 H 0.89974 1.02313 0.29226 0.0
C361 C 0.71075 0.22697 0.37328 0.0
C362 C 0.70587 0.24485 0.38803 0.0
C363 C 0.82329 0.37519 0.38528 0.0
C364 C 0.82919 0.35564 0.37068 0.0
N365 N 0.77283 0.28185 0.36496 0.0
N366 N 0.76265 0.31905 0.39361 0.0
H367 H 0.66786 0.16798 0.36842 0.0
C368 C 1.05738 1.00234 0.32618 0.0
O369 O 1.00022 1.0095 0.33745 0.0
O370 O 0.64673 0.25962 0.33742 0.0
H371 H 0.87914 0.39819 0.36408 0.0
H372 H 0.92684 0.36029 0.27264 0.0
H373 H 0.86765 0.43363 0.39 0.0
Zn374 Zn 0.64546 1.02627 0.09493 0.0
C375 C 0.55153 0.26902 0.07753 0.0
N376 N 0.46068 0.24719 0.08248 0.0
C377 C 0.46695 0.15071 0.08584 0.0
N378 N 0.562 0.11679 0.08352 0.0
N379 N 0.61272 0.19026 0.07766 0.0
C380 C 0.88677 0.30731 0.07614 0.0
O381 O 0.87966 0.25014 0.08742 0.0
O382 O 0.62837 0.89645 0.08711 0.0
Zn383 Zn 0.74041 0.17881 0.06678 0.0
N384 N 0.60642 1.02048 0.11488 0.0
C385 C 0.51128 1.0683 0.13516 0.0
C386 C 0.53107 0.07486 0.12056 0.0
C387 C 0.66254 0.95961 0.12321 0.0
N388 N 0.56865 1.00894 0.14351 0.0
C389 C 0.64436 0.95405 0.13795 0.0
O390 O 0.8486 0.0819 0.07312 0.0
C391 C 0.87222 1.04643 0.08522 0.0
O392 O 0.8048 1.03399 0.09475 0.0
H393 H 0.4874 0.12376 0.11396 0.0
H394 H 0.72267 0.91821 0.11836 0.0
C395 C 0.79199 0.15236 0.03779 0.0
C396 C 0.77695 0.15425 0.02293 0.0
C397 C 0.60304 0.16786 0.02694 0.0
C398 C 0.61862 0.16608 0.04165 0.0
N399 N 0.71273 0.1587 0.04676 0.0
N400 N 0.68215 0.16215 0.01796 0.0
H401 H 0.86605 0.14972 0.04227 0.0
C402 C 0.67873 0.88633 0.07583 0.0
O403 O 0.69033 0.96228 0.06722 0.0
O404 O 0.82125 0.3023 0.06646 0.0
H405 H 0.5566 0.17374 0.04889 0.0
H406 H 0.45162 0.11111 0.13986 0.0
H407 H 0.52874 0.17552 0.02268 0.0
Zn408 Zn 0.86174 0.24272 0.69063 0.0
C409 C 0.61968 0.33702 0.70804 0.0
N410 N 0.64144 0.42766 0.70301 0.0
C411 C 0.73799 0.42146 0.69969 0.0
N412 N 0.77204 0.32659 0.70213 0.0
N413 N 0.69855 0.27598 0.708 0.0
C414 C 0.58111 1.00225 0.7096 0.0
O415 O 0.63831 1.00922 0.69833 0.0
O416 O 0.99214 0.26009 0.69826 0.0
Zn417 Zn 0.70984 0.14839 0.71891 0.0
N418 N 0.86611 0.28134 0.67067 0.0
C419 C 0.81503 0.37447 0.65035 0.0
C420 C 0.80942 0.35492 0.66496 0.0
C421 C 0.92827 0.22667 0.66233 0.0
N422 N 0.87575 0.31855 0.64201 0.0
C423 C 0.93288 0.24456 0.64758 0.0
O424 O 0.80668 1.04003 0.71257 0.0
C425 C 0.84209 1.01608 0.70049 0.0
O426 O 0.85436 0.08332 0.69092 0.0
H427 H 0.75941 0.39731 0.67157 0.0
H428 H 0.97143 0.16783 0.66719 0.0
C429 C 0.73652 0.09699 0.7479 0.0
C430 C 0.73463 0.11207 0.76275 0.0
C431 C 0.72083 0.28596 0.75873 0.0
C432 C 0.7226 0.27033 0.74402 0.0
N433 N 0.73009 0.17621 0.73892 0.0
N434 N 0.72664 0.20689 0.76771 0.0
H435 H 0.73922 1.02291 0.74343 0.0
C436 C 1.00268 0.21023 0.70958 0.0
O437 O 0.92696 0.19863 0.71824 0.0
O438 O 0.58611 1.06788 0.71926 0.0
H439 H 0.71482 0.3323 0.73677 0.0
H440 H 0.77041 0.43275 0.64564 0.0
H441 H 0.71311 0.36026 0.76298 0.0
Zn442 Zn 0.7401 0.95972 0.46887 0.0
C443 C 0.46716 0.988 0.44965 0.0
N444 N 0.46096 0.89134 0.4529 0.0
C445 C 0.55149 0.86962 0.45797 0.0
N446 N 0.61241 0.94858 0.45799 0.0
N447 N 0.5619 1.0222 0.45214 0.0
C448 C 0.67877 0.25248 0.45941 0.0
O449 O 0.68971 0.17692 0.46811 0.0
O450 O 0.82068 0.836 0.46922 0.0
Zn451 Zn 0.64617 0.11104 0.44055 0.0
N452 N 0.71228 0.97983 0.48888 0.0
C453 C 0.6026 0.97028 0.5087 0.0
C454 C 0.61818 0.97221 0.494 0.0
C455 C 0.79151 0.98626 0.49786 0.0
N456 N 0.68169 0.97608 0.51768 0.0
C457 C 0.77648 0.9842 0.51271 0.0
O458 O 0.80553 0.10336 0.44083 0.0
C459 C 0.87253 0.09165 0.45045 0.0
O460 O 0.8484 1.05673 0.46256 0.0
H461 H 0.55619 0.96443 0.48675 0.0
H462 H 0.86557 0.98906 0.49338 0.0
C463 C 0.66157 0.1776 0.41227 0.0
C464 C 0.64384 0.18199 0.39751 0.0
C465 C 0.51529 1.0626 0.40026 0.0
C466 C 0.53472 1.05721 0.41487 0.0
N467 N 0.60753 0.11481 0.42059 0.0
N468 N 0.57059 0.12399 0.39193 0.0
H469 H 0.71984 0.22144 0.41714 0.0
C470 C 0.88647 0.83095 0.45958 0.0
O471 O 0.87969 0.8881 0.44831 0.0
O472 O 0.62935 0.24185 0.44805 0.0
H473 H 0.49291 1.00664 0.42148 0.0
H474 H 0.52831 0.96245 0.51296 0.0
H475 H 0.45762 1.01726 0.39554 0.0
Zn476 Zn 0.92906 0.99058 0.21894 0.0
C477 C 0.90051 0.71769 0.19968 0.0
N478 N 0.99715 0.71141 0.20294 0.0
C479 C 1.019 0.80185 0.20803 0.0
N480 N 0.94008 0.86282 0.20808 0.0
N481 N 0.86641 0.81242 0.20221 0.0
C482 C 0.63635 0.92942 0.20924 0.0
O483 O 0.71165 0.93992 0.218 0.0
O484 O 1.05277 0.0713 0.21929 0.0
Zn485 Zn 0.77851 0.89695 0.19052 0.0
N486 N 0.90894 0.96284 0.23895 0.0
C487 C 0.91839 0.85321 0.25878 0.0
C488 C 0.91647 0.86875 0.24407 0.0
C489 C 0.9026 1.04211 0.24792 0.0
N490 N 0.91267 0.93233 0.26775 0.0
C491 C 0.90465 1.02712 0.26278 0.0
O492 O 0.78634 1.05623 0.19083 0.0
C493 C 0.79748 0.12303 0.20049 0.0
O494 O 0.83195 0.0987 0.21262 0.0
H495 H 0.92419 0.80674 0.23683 0.0
H496 H 0.89987 0.11617 0.24344 0.0
C497 C 0.71201 0.91104 0.16221 0.0
C498 C 0.70838 0.89336 0.14745 0.0
C499 C 0.8306 0.76754 0.15023 0.0
C500 C 0.83523 0.78698 0.16485 0.0
N501 N 0.77582 0.85836 0.17055 0.0
N502 N 0.76815 0.8215 0.14188 0.0
H503 H 0.66677 0.96827 0.16707 0.0
C504 C 1.05791 0.13711 0.20965 0.0
O505 O 1.00081 0.13039 0.19837 0.0
O506 O 0.6472 0.8805 0.19785 0.0
H507 H 0.88666 0.74635 0.17147 0.0
H508 H 0.92616 0.77893 0.26304 0.0
H509 H 0.87737 0.71098 0.14551 0.0
Zn510 Zn 0.89838 0.17923 0.96894 0.0
C511 C 0.17133 0.15075 0.94972 0.0
N512 N 0.17755 0.24745 0.95293 0.0
C513 C 0.08703 0.26928 0.958 0.0
N514 N 1.0261 0.19031 0.95806 0.0
N515 N 0.07659 0.11661 0.95223 0.0
C516 C 0.95966 0.88646 0.95933 0.0
O517 O 0.94891 0.96188 0.96806 0.0
O518 O 0.81785 0.30304 0.9693 0.0
Zn519 Zn 0.9923 1.02833 0.94056 0.0
N520 N 0.92613 0.15891 0.98895 0.0
C521 C 1.03583 0.16811 1.00877 0.0
C522 C 1.02024 0.16639 0.99406 0.0
C523 C 0.84689 0.15244 0.99793 0.0
N524 N 0.95675 0.16227 1.01775 0.0
C525 C 0.86194 0.1543 1.01278 0.0
O526 O 0.833 1.03606 0.94086 0.0
C527 C 0.76602 1.04753 0.95048 0.0
O528 O 0.79012 0.08225 0.9626 0.0
H529 H 0.08222 0.1742 0.98681 0.0
H530 H 0.77282 0.14976 0.99345 0.0
C531 C 0.97776 0.9619 0.91226 0.0
C532 C 0.9955 0.95802 0.8975 0.0
C533 C 0.12242 0.0791 0.90028 0.0
C534 C 0.10295 0.08398 0.91489 0.0
N535 N 1.03097 1.02527 0.9206 0.0
N536 N 1.06794 1.0171 0.89193 0.0
H537 H 0.92009 0.9172 0.91712 0.0
C538 C 0.75198 0.30814 0.95968 0.0
O539 O 0.75866 0.25103 0.9484 0.0
O540 O 1.00895 0.89722 0.94796 0.0
H541 H 0.14405 0.13503 0.92151 0.0
H542 H 0.11013 0.17582 1.01303 0.0
H543 H 0.17945 0.12531 0.89556 0.0
Zn544 Zn 0.77676 0.74283 0.69067 0.0
C545 C 1.01911 0.83684 0.70808 0.0
N546 N 0.99731 0.92769 0.70313 0.0
C547 C 0.9008 0.92145 0.69979 0.0
N548 N 0.86684 0.82642 0.70213 0.0
N549 N 0.94033 0.77567 0.70797 0.0
C550 C 1.0573 0.50179 0.70931 0.0
O551 O 1.00006 0.50949 0.69806 0.0
O552 O 0.64667 0.75991 0.69839 0.0
Zn553 Zn 0.92901 0.64789 0.71884 0.0
N554 N 0.77161 0.78185 0.67072 0.0
C555 C 0.8206 0.87643 0.65044 0.0
C556 C 0.82686 0.85659 0.66504 0.0
C557 C 0.71022 0.72635 0.66238 0.0
N558 N 0.76068 0.81969 0.64209 0.0
C559 C 0.70496 0.74457 0.64764 0.0
O560 O 0.83186 0.53988 0.71253 0.0
C561 C 0.79655 0.51614 0.70043 0.0
O562 O 0.78435 0.58346 0.69087 0.0
H563 H 0.8762 0.89972 0.67165 0.0
H564 H 0.66814 0.66668 0.66723 0.0
C565 C 0.90291 0.59633 0.74785 0.0
C566 C 0.90478 0.61144 0.7627 0.0
C567 C 0.91841 0.78533 0.75867 0.0
C568 C 0.91662 0.76969 0.74397 0.0
N569 N 0.90925 0.67555 0.73886 0.0
N570 N 0.91267 0.70626 0.76766 0.0
H571 H 0.90022 0.52225 0.74337 0.0
C572 C 0.63626 0.70975 0.70969 0.0
O573 O 0.71201 0.69819 0.71833 0.0
O574 O 1.05234 0.56678 0.71906 0.0
H575 H 0.92423 0.83168 0.73672 0.0
H576 H 0.8641 0.93562 0.64574 0.0
H577 H 0.92605 0.85965 0.76292 0.0
Zn578 Zn 0.64554 0.52682 0.94064 0.0
C579 C 0.55165 0.76946 0.95801 0.0
N580 N 0.46084 0.74771 0.95304 0.0
C581 C 0.46701 0.65119 0.9497 0.0
N582 N 0.56199 0.61718 0.95207 0.0
N583 N 0.61274 0.69064 0.95792 0.0
C584 C 0.88668 0.80767 0.95938 0.0
O585 O 0.8794 0.75051 0.94811 0.0
O586 O 0.62849 0.3969 0.94844 0.0
Zn587 Zn 0.74043 0.67923 0.9688 0.0
N588 N 0.60647 0.52124 0.9207 0.0
C589 C 0.51181 0.5698 0.90041 0.0
C590 C 0.53162 0.57626 0.915 0.0
C591 C 0.66211 0.45987 0.91238 0.0
N592 N 0.56869 0.50993 0.89207 0.0
C593 C 0.64393 0.45443 0.89763 0.0
O594 O 0.84856 0.58229 0.96246 0.0
C595 C 0.87226 0.54685 0.95037 0.0
O596 O 0.80488 0.53449 0.94082 0.0
H597 H 0.4884 0.6256 0.9216 0.0
H598 H 0.72188 0.41799 0.91723 0.0
C599 C 0.79205 0.65273 0.99779 0.0
C600 C 0.77703 0.65449 1.01264 0.0
C601 C 0.60311 0.66811 1.00864 0.0
C602 C 0.61868 0.66646 0.99394 0.0
N603 N 0.71278 0.65913 0.98882 0.0
N604 N 0.68223 0.66232 1.01762 0.0
H605 H 0.86611 0.65012 0.99331 0.0
C606 C 0.67871 0.3867 0.95974 0.0
O607 O 0.69035 0.46258 0.96836 0.0
O608 O 0.82132 0.80268 0.96908 0.0
H609 H 0.55666 0.67416 0.98669 0.0
H610 H 0.45254 0.61313 0.8957 0.0
H611 H 0.52882 0.6757 1.01291 0.0
Zn612 Zn 0.71028 0.49078 0.21892 0.0
C613 C 0.73886 0.21767 0.19974 0.0
N614 N 0.64221 0.21138 0.203 0.0
C615 C 0.62036 0.30197 0.20803 0.0
N616 N 0.69925 0.36299 0.20805 0.0
N617 N 0.77292 0.31249 0.20221 0.0
C618 C 1.00297 0.42952 0.20939 0.0
O619 O 0.92749 0.4403 0.21811 0.0
O620 O 0.58659 0.57152 0.21926 0.0
Zn621 Zn 0.86142 0.39671 0.19057 0.0
N622 N 0.73048 0.46309 0.23893 0.0
C623 C 0.72131 0.35344 0.25875 0.0
C624 C 0.72309 0.36899 0.24405 0.0
C625 C 0.73682 0.54237 0.2479 0.0
N626 N 0.72703 0.43257 0.26773 0.0
C627 C 0.73491 0.52737 0.26275 0.0
O628 O 0.85352 0.55598 0.19084 0.0
C629 C 0.84201 0.62299 0.20046 0.0
O630 O 0.80732 0.59894 0.21258 0.0
H631 H 0.71539 0.30697 0.2368 0.0
H632 H 0.73944 0.61643 0.24341 0.0
C633 C 0.92736 0.41255 0.16228 0.0
C634 C 0.93186 0.39475 0.14753 0.0
C635 C 0.81366 0.26513 0.15031 0.0
C636 C 0.80816 0.28462 0.16492 0.0
N637 N 0.86511 0.358 0.17062 0.0
N638 N 0.8745 0.32093 0.14196 0.0
H639 H 0.97072 0.47122 0.16714 0.0
C640 C 0.58148 0.63731 0.20961 0.0
O641 O 0.6386 0.63054 0.19834 0.0
O642 O 0.9923 0.38014 0.19803 0.0
H643 H 0.75807 0.24234 0.17154 0.0
H644 H 0.71365 0.27915 0.26302 0.0
H645 H 0.76884 0.207 0.1456 0.0
Zn646 Zn 0.99275 0.61179 0.44062 0.0
C647 C 0.0869 0.3697 0.45807 0.0
N648 N 0.17768 0.39154 0.45309 0.0
C649 C 0.17143 0.48805 0.44975 0.0
N650 N 0.07643 0.52197 0.45212 0.0
N651 N 1.02575 0.44848 0.45798 0.0
C652 C 0.75174 0.33129 0.45946 0.0
O653 O 0.759 0.38842 0.44818 0.0
O654 O 1.00964 0.74199 0.44831 0.0
Zn655 Zn 0.89804 0.45982 0.46885 0.0
N656 N 1.0318 0.61678 0.42068 0.0
C657 C 0.12582 0.56696 0.40039 0.0
C658 C 0.10597 0.56083 0.41498 0.0
C659 C 0.97684 0.67871 0.41235 0.0
N660 N 0.06961 0.62743 0.39204 0.0
C661 C 0.99504 0.68383 0.3976 0.0
O662 O 0.78996 0.55681 0.4625 0.0
C663 C 0.76615 0.59199 0.4504 0.0
O664 O 0.83342 0.60405 0.44083 0.0
H665 H 0.14862 0.51102 0.42159 0.0
H666 H 0.91757 0.72131 0.41719 0.0
C667 C 0.8465 0.48622 0.49784 0.0
C668 C 0.86156 0.48443 0.51269 0.0
C669 C 1.03549 0.47109 0.50868 0.0
C670 C 1.01988 0.47276 0.49397 0.0
N671 N 0.92575 0.47997 0.48886 0.0
N672 N 0.95639 0.47672 0.51766 0.0
H673 H 0.77242 0.48873 0.49336 0.0
C674 C 0.95968 0.75235 0.45962 0.0
O675 O 0.94827 0.67661 0.46828 0.0
O676 O 0.81711 0.33634 0.46915 0.0
H677 H 0.08189 0.46518 0.48672 0.0
H678 H 0.18457 0.52291 0.39568 0.0
H679 H 0.10981 0.46357 0.51293 0.0
Zn680 Zn 0.92884 0.4903 0.81671 0.0
C681 C 0.90077 0.21735 0.83596 0.0
N682 N 0.99745 0.21122 0.83272 0.0
C683 C 1.01908 0.30177 0.82764 0.0
N684 N 0.94006 0.36261 0.82759 0.0
N685 N 0.86647 0.31205 0.83345 0.0
C686 C 0.63624 0.42903 0.82628 0.0
O687 O 0.7117 0.43962 0.81755 0.0
O688 O 1.05242 0.57108 0.81639 0.0
Zn689 Zn 0.77802 0.39642 0.84509 0.0
N690 N 0.90892 0.46245 0.7967 0.0
C691 C 0.91863 0.35265 0.7769 0.0
C692 C 0.91658 0.36832 0.7916 0.0
C693 C 0.90256 0.54164 0.78771 0.0
N694 N 0.9129 0.43169 0.76791 0.0
C695 C 0.90474 0.52651 0.77286 0.0
O696 O 0.78578 0.55578 0.84479 0.0
C697 C 0.79711 0.62268 0.83515 0.0
O698 O 0.83169 0.59845 0.82303 0.0
H699 H 0.92429 0.30638 0.79886 0.0
H700 H 0.89972 0.61573 0.79218 0.0
C701 C 0.71142 0.41096 0.87338 0.0
C702 C 0.70748 0.39322 0.88814 0.0
C703 C 0.82854 0.26629 0.88538 0.0
C704 C 0.83349 0.28576 0.87076 0.0
N705 N 0.77482 0.35774 0.86505 0.0
N706 N 0.76653 0.32078 0.89372 0.0
H707 H 0.66676 0.46864 0.86852 0.0
C708 C 1.05753 0.63659 0.82607 0.0
O709 O 1.00048 0.62946 0.83735 0.0
O710 O 0.64693 0.37986 0.83767 0.0
H711 H 0.88457 0.24466 0.86415 0.0
H712 H 0.92649 0.27834 0.77265 0.0
H713 H 0.87473 0.20926 0.89009 0.0
Zn714 Zn 0.89843 0.67896 0.06663 0.0
C715 C 0.17129 0.65041 0.0859 0.0
N716 N 0.17747 0.74713 0.08267 0.0
C717 C 0.08696 0.76893 0.07761 0.0
N718 N 1.02608 0.68995 0.07752 0.0
N719 N 0.07658 0.61626 0.08336 0.0
C720 C 0.95981 0.38604 0.07616 0.0
O721 O 0.94875 0.46154 0.06745 0.0
O722 O 0.81796 0.80279 0.06627 0.0
Zn723 Zn 0.9923 0.52763 0.09498 0.0
N724 N 0.92622 0.6588 0.04662 0.0
C725 C 1.03591 0.66832 0.0268 0.0
C726 C 1.02032 0.6664 0.04151 0.0
C727 C 0.84699 0.65239 0.03764 0.0
N728 N 0.95682 0.66255 0.01783 0.0
C729 C 0.86203 0.65445 0.02279 0.0
O730 O 0.833 0.5353 0.09467 0.0
C731 C 0.76597 0.54706 0.08506 0.0
O732 O 0.79007 0.58204 0.07295 0.0
H733 H 0.0823 0.67418 0.04876 0.0
H734 H 0.77292 0.64962 0.04212 0.0
C735 C 0.97648 0.46158 0.12327 0.0
C736 C 0.99415 0.45727 0.13804 0.0
C737 C 0.12315 0.57615 0.13527 0.0
C738 C 0.10379 0.58146 0.12066 0.0
N739 N 1.03079 0.52408 0.11494 0.0
N740 N 1.06759 0.51506 0.14361 0.0
H741 H 0.91808 0.41789 0.11841 0.0
C742 C 0.75203 0.80781 0.07589 0.0
O743 O 0.75863 0.75062 0.08717 0.0
O744 O 1.00923 0.39674 0.08752 0.0
H745 H 0.14584 0.63178 0.11405 0.0
H746 H 0.1102 0.67613 0.02255 0.0
H747 H 0.18099 0.62131 0.13999 0.0
Zn748 Zn 0.71025 0.64891 0.31673 0.0
C749 C 0.73838 0.92195 0.33592 0.0
N750 N 0.64171 0.92811 0.33267 0.0
C751 C 0.62002 0.8375 0.32763 0.0
N752 N 0.69901 0.77661 0.3276 0.0
N753 N 0.77261 0.8272 0.33344 0.0
C754 C 1.00283 0.71018 0.32619 0.0
O755 O 0.92727 0.69945 0.31748 0.0
O756 O 0.58666 0.56816 0.3164 0.0
Zn757 Zn 0.86141 0.74302 0.34505 0.0
N758 N 0.73029 0.67665 0.29671 0.0
C759 C 0.72058 0.78626 0.27689 0.0
C760 C 0.72252 0.77072 0.29159 0.0
C761 C 0.73686 0.5974 0.28774 0.0
N762 N 0.72651 0.70715 0.26792 0.0
C763 C 0.73478 0.61239 0.27289 0.0
O764 O 0.85363 0.58369 0.34479 0.0
C765 C 0.84209 0.51668 0.33517 0.0
O766 O 0.80732 0.54075 0.32305 0.0
H767 H 0.71465 0.83272 0.29884 0.0
H768 H 0.73977 0.52335 0.29223 0.0
C769 C 0.92792 0.72789 0.37335 0.0
C770 C 0.93216 0.74571 0.38811 0.0
C771 C 0.81262 0.87406 0.38532 0.0
C772 C 0.80737 0.85454 0.37071 0.0
N773 N 0.86512 0.78179 0.36501 0.0
N774 N 0.87401 0.81889 0.39367 0.0
H775 H 0.97188 0.66965 0.36849 0.0
C776 C 0.58158 0.50252 0.32606 0.0
O777 O 0.63865 0.5095 0.33734 0.0
O778 O 0.99228 0.7596 0.33755 0.0
H779 H 0.7568 0.89624 0.3641 0.0
H780 H 0.71264 0.86052 0.27262 0.0
H781 H 0.76716 0.9317 0.39003 0.0
Zn782 Zn 0.74022 0.46028 0.56669 0.0
C783 C 0.46729 0.48837 0.58597 0.0
N784 N 0.46122 0.39167 0.58273 0.0
C785 C 0.55173 0.37007 0.57764 0.0
N786 N 0.61252 0.44912 0.57757 0.0
N787 N 0.56196 0.5227 0.58342 0.0
C788 C 0.67875 0.75313 0.57627 0.0
O789 O 0.68952 0.67773 0.56753 0.0
O790 O 0.82107 0.33677 0.56643 0.0
Zn791 Zn 0.64639 0.61119 0.59506 0.0
N792 N 0.71244 0.47999 0.54667 0.0
C793 C 0.60274 0.47015 0.52686 0.0
C794 C 0.61834 0.4722 0.54157 0.0
C795 C 0.79166 0.48648 0.53769 0.0
N796 N 0.68181 0.47601 0.51788 0.0
C797 C 0.77659 0.48431 0.52284 0.0
O798 O 0.80576 0.60365 0.59473 0.0
C799 C 0.87264 0.59224 0.58509 0.0
O800 O 0.84834 0.55749 0.57298 0.0
H801 H 0.55638 0.46441 0.54882 0.0
H802 H 0.86572 0.48945 0.54217 0.0
C803 C 0.66127 0.67742 0.62337 0.0
C804 C 0.64364 0.68119 0.63814 0.0
C805 C 0.51657 0.56028 0.63536 0.0
C806 C 0.53592 0.55551 0.62074 0.0
N807 N 0.60792 0.61419 0.61503 0.0
N808 N 0.57118 0.62213 0.64371 0.0
H809 H 0.71896 0.7221 0.61851 0.0
C810 C 0.88634 0.33176 0.57614 0.0
O811 O 0.87892 0.38889 0.58741 0.0
O812 O 0.62962 0.74233 0.58765 0.0
H813 H 0.49471 0.50456 0.61412 0.0
H814 H 0.52846 0.46221 0.52261 0.0
H815 H 0.45952 0.51409 0.64007 0.0
Zn816 Zn 0.20998 0.49087 0.31668 0.0
C817 C 0.23852 0.21761 0.33581 0.0
N818 N 0.1418 0.21145 0.3326 0.0
C819 C 0.11996 0.30214 0.3276 0.0
N820 N 0.19892 0.36307 0.32755 0.0
N821 N 0.27265 0.31242 0.33335 0.0
C822 C 0.50293 0.42938 0.32605 0.0
O823 O 0.42738 0.44058 0.31735 0.0
O824 O 0.08644 0.57173 0.31643 0.0
Zn825 Zn 0.36171 0.39641 0.34493 0.0
N826 N 0.22979 0.46322 0.29666 0.0
C827 C 0.22045 0.35348 0.27685 0.0
C828 C 0.22224 0.3691 0.29155 0.0
C829 C 0.23627 0.54244 0.28768 0.0
N830 N 0.2263 0.43255 0.26786 0.0
C831 C 0.23436 0.52736 0.27282 0.0
O832 O 0.35398 0.5557 0.34469 0.0
C833 C 0.34216 0.62286 0.3351 0.0
O834 O 0.30713 0.59899 0.32299 0.0
H835 H 0.21449 0.30712 0.2988 0.0
H836 H 0.23907 0.61651 0.29215 0.0
C837 C 0.42785 0.41248 0.37322 0.0
C838 C 0.43258 0.39455 0.38798 0.0
C839 C 0.31522 0.26419 0.38519 0.0
C840 C 0.30949 0.28378 0.37059 0.0
N841 N 0.3659 0.3576 0.36489 0.0
N842 N 0.37575 0.32031 0.39354 0.0
H843 H 0.47081 0.47148 0.36837 0.0
C844 C 0.08152 0.63709 0.32613 0.0
O845 O 0.13876 0.62978 0.33739 0.0
O846 O 0.49233 0.37964 0.33738 0.0
H847 H 0.25965 0.24122 0.36398 0.0
H848 H 0.2127 0.27918 0.27259 0.0
H849 H 0.27082 0.20572 0.3899 0.0
Zn850 Zn 0.39798 0.46003 0.06668 0.0
C851 C 0.67127 0.48852 0.08581 0.0
N852 N 0.6775 0.39185 0.08256 0.0
C853 C 0.58686 0.37001 0.07754 0.0
N854 N 0.52586 0.44892 0.07752 0.0
N855 N 0.57644 0.52262 0.08334 0.0
C856 C 0.45934 0.75278 0.0762 0.0
O857 O 0.44864 0.6774 0.06746 0.0
O858 O 0.31687 0.33661 0.06644 0.0
Zn859 Zn 0.49224 0.61106 0.095 0.0
N860 N 0.4256 0.47979 0.04665 0.0
C861 C 0.5353 0.47053 0.02684 0.0
C862 C 0.51971 0.47233 0.04154 0.0
C863 C 0.34636 0.48619 0.03768 0.0
N864 N 0.45621 0.47631 0.01786 0.0
C865 C 0.36141 0.48428 0.02283 0.0
O866 O 0.33297 0.60323 0.09474 0.0
C867 C 0.266 0.59195 0.08511 0.0
O868 O 0.29007 0.55734 0.07298 0.0
H869 H 0.58172 0.46464 0.04879 0.0
H870 H 0.27229 0.48893 0.04216 0.0
C871 C 0.47762 0.67753 0.1233 0.0
C872 C 0.49554 0.68163 0.13806 0.0
C873 C 0.62319 0.56136 0.13526 0.0
C874 C 0.60356 0.55626 0.12064 0.0
N875 N 0.53111 0.61445 0.11495 0.0
N876 N 0.56842 0.62304 0.14361 0.0
H877 H 0.41961 0.72184 0.11845 0.0
C878 C 0.25167 0.33157 0.07617 0.0
O879 O 0.25912 0.38874 0.08743 0.0
O880 O 0.50865 0.74206 0.08756 0.0
H881 H 0.64491 0.50545 0.11402 0.0
H882 H 0.6096 0.46283 0.02258 0.0
H883 H 0.68058 0.51555 0.13996 0.0
Zn884 Zn 0.42908 0.64827 0.8167 0.0
C885 C 0.40055 0.92162 0.8358 0.0
N886 N 0.49722 0.92783 0.83255 0.0
C887 C 0.51907 0.83713 0.82756 0.0
N888 N 0.44016 0.77613 0.82755 0.0
N889 N 0.36646 0.82676 0.83336 0.0
C890 C 0.13621 0.70971 0.82607 0.0
O891 O 0.21172 0.69864 0.81736 0.0
O892 O 0.5525 0.56722 0.81647 0.0
Zn893 Zn 0.27747 0.74273 0.84495 0.0
N894 N 0.40939 0.67587 0.79668 0.0
C895 C 0.41907 0.78544 0.77685 0.0
C896 C 0.41718 0.76993 0.79155 0.0
C897 C 0.40274 0.5966 0.78772 0.0
N898 N 0.41304 0.70631 0.76788 0.0
C899 C 0.40473 0.61156 0.77286 0.0
O900 O 0.28526 0.58345 0.84472 0.0
C901 C 0.29691 0.51635 0.83512 0.0
O902 O 0.33182 0.54029 0.823 0.0
H903 H 0.42505 0.83194 0.7988 0.0
H904 H 0.39975 0.52256 0.7922 0.0
C905 C 0.211 0.72717 0.87324 0.0
C906 C 0.20633 0.74514 0.88799 0.0
C907 C 0.3245 0.87478 0.8852 0.0
C908 C 0.33017 0.85512 0.8706 0.0
N909 N 0.27332 0.78164 0.8649 0.0
N910 N 0.26359 0.81905 0.89355 0.0
H911 H 0.16771 0.66841 0.86838 0.0
C912 C 0.55744 0.50201 0.8262 0.0
O913 O 0.50021 0.50946 0.83746 0.0
O914 O 0.14681 0.75932 0.83741 0.0
H915 H 0.38032 0.89733 0.86398 0.0
H916 H 0.42701 0.85969 0.77258 0.0
H917 H 0.36924 0.93298 0.88991 0.0
Zn918 Zn 0.14558 0.52634 0.59487 0.0
C919 C 1.0519 0.76941 0.57754 0.0
N920 N 0.96098 0.74756 0.58246 0.0
C921 C 0.96721 0.65104 0.5858 0.0
N922 N 1.06227 0.61712 0.58348 0.0
N923 N 0.11307 0.69063 0.57765 0.0
C924 C 0.38705 0.80759 0.5762 0.0
O925 O 0.37979 0.75032 0.58746 0.0
O926 O 0.12839 0.39671 0.58699 0.0
Zn927 Zn 0.24078 0.67922 0.56677 0.0
N928 N 0.1064 0.52024 0.61481 0.0
C929 C 1.01096 0.56763 0.63508 0.0
C930 C 1.03088 0.5744 0.62049 0.0
C931 C 0.16257 0.4594 0.62314 0.0
N932 N 1.06838 0.50831 0.64343 0.0
C933 C 0.14426 0.45365 0.63787 0.0
O934 O 0.34894 0.58227 0.57311 0.0
C935 C 0.37243 0.54662 0.58519 0.0
O936 O 0.30491 0.534 0.59471 0.0
H937 H 0.98718 0.62328 0.61389 0.0
H938 H 0.22282 0.41816 0.6183 0.0
C939 C 0.29232 0.65278 0.53777 0.0
C940 C 0.27724 0.65458 0.52292 0.0
C941 C 0.10335 0.66838 0.52694 0.0
C942 C 0.11898 0.66666 0.54164 0.0
N943 N 0.2131 0.65923 0.54675 0.0
N944 N 0.18242 0.66253 0.51796 0.0
H945 H 0.3664 0.65007 0.54225 0.0
C946 C 0.17893 0.38662 0.57573 0.0
O947 O 0.19081 0.4626 0.56713 0.0
O948 O 0.3217 0.80266 0.5665 0.0
H949 H 1.05699 0.67438 0.54889 0.0
H950 H 0.95116 0.61027 0.63978 0.0
H951 H 1.02904 0.67605 0.52268 0.0
Zn952 Zn 0.36244 0.74332 0.19061 0.0
C953 C 0.11993 0.83729 0.208 0.0
N954 N 0.14159 0.92808 0.20301 0.0
C955 C 0.23812 0.92192 0.19968 0.0
N956 N 0.27222 0.82697 0.20205 0.0
N957 N 0.19879 0.77624 0.20791 0.0
C958 C 0.08172 0.50252 0.20943 0.0
O959 O 0.13889 0.50977 0.19816 0.0
O960 O 0.49254 0.76054 0.19834 0.0
Zn961 Zn 0.21025 0.64864 0.21881 0.0
N962 N 0.36752 0.78216 0.17065 0.0
C963 C 0.31791 0.87625 0.15035 0.0
C964 C 0.3119 0.85658 0.16495 0.0
C965 C 0.42906 0.72681 0.16231 0.0
N966 N 0.37797 0.81966 0.142 0.0
C967 C 0.43408 0.74485 0.14756 0.0
O968 O 0.30718 0.5404 0.21249 0.0
C969 C 0.34259 0.51661 0.20039 0.0
O970 O 0.35492 0.58392 0.19084 0.0
H971 H 0.26242 0.89956 0.17156 0.0
H972 H 0.47141 0.66735 0.16716 0.0
C973 C 0.23649 0.59721 0.24781 0.0
C974 C 0.23452 0.61231 0.26267 0.0
C975 C 0.2211 0.78622 0.25864 0.0
C976 C 0.22295 0.77058 0.24393 0.0
N977 N 0.23028 0.67644 0.23883 0.0
N978 N 0.22669 0.70715 0.26762 0.0
H979 H 0.23909 0.52312 0.24334 0.0
C980 C 0.50284 0.71049 0.20965 0.0
O981 O 0.427 0.69888 0.21828 0.0
O982 O 0.08673 0.5679 0.21913 0.0
H983 H 0.21538 0.83256 0.23668 0.0
H984 H 0.27411 0.93519 0.14565 0.0
H985 H 0.21349 0.86054 0.26289 0.0
Zn986 Zn 0.24009 0.46042 0.96883 0.0
C987 C 0.96703 0.48845 0.94963 0.0
N988 N 0.96091 0.39179 0.95289 0.0
C989 C 1.05152 0.37017 0.95794 0.0
N990 N 0.1124 0.44917 0.95795 0.0
N991 N 1.06179 0.52273 0.9521 0.0
C992 C 0.17865 0.75312 0.95944 0.0
O993 O 0.18962 0.67754 0.96813 0.0
O994 O 0.32093 0.33692 0.96912 0.0
Zn995 Zn 0.14598 0.61185 0.94054 0.0
N996 N 0.21228 0.4802 0.98885 0.0
C997 C 0.10256 0.47047 1.00866 0.0
C998 C 0.11817 0.47254 0.99396 0.0
C999 C 0.2915 0.48653 0.99783 0.0
N1000 N 0.18164 0.47618 1.01764 0.0
C1001 C 0.27644 0.48434 1.01268 0.0
O1002 O 0.30535 0.60421 0.94081 0.0
C1003 C 0.37237 0.59251 0.95043 0.0
O1004 O 0.34827 0.55757 0.96253 0.0
H1005 H 1.0562 0.46486 0.9867 0.0
H1006 H 0.36557 0.48939 0.99335 0.0
C1007 C 0.16176 0.67826 0.91224 0.0
C1008 C 0.14397 0.68272 0.89748 0.0
C1009 C 1.01463 0.56422 0.90025 0.0
C1010 C 1.0341 0.55876 0.91487 0.0
N1011 N 0.10734 0.61586 0.92057 0.0
N1012 N 0.0703 0.62519 0.89191 0.0
H1013 H 0.22035 0.72173 0.9171 0.0
C1014 C 0.38634 0.33191 0.95943 0.0
O1015 O 0.37913 0.38907 0.94816 0.0
O1016 O 0.12918 0.74257 0.94808 0.0
H1017 H 0.99195 0.50854 0.92148 0.0
H1018 H 1.02827 0.46262 1.01291 0.0
H1019 H 0.95662 0.51926 0.89554 0.0
Zn1020 Zn 0.42866 0.49013 0.71889 0.0
C1021 C 0.40051 0.2173 0.69961 0.0
N1022 N 0.49714 0.21106 0.70288 0.0
C1023 C 0.51878 0.30153 0.70798 0.0
N1024 N 0.43982 0.36243 0.70802 0.0
N1025 N 0.36627 0.31201 0.70214 0.0
C1026 C 0.13617 0.4289 0.70919 0.0
O1027 O 0.21152 0.43931 0.71794 0.0
O1028 O 0.55235 0.57081 0.71927 0.0
Zn1029 Zn 0.27833 0.3966 0.69044 0.0
N1030 N 0.40849 0.4623 0.7389 0.0
C1031 C 0.41801 0.35263 0.75872 0.0
C1032 C 0.41599 0.36819 0.74401 0.0
C1033 C 0.40227 0.54156 0.74787 0.0
N1034 N 0.41242 0.43175 0.76769 0.0
C1035 C 0.40443 0.52654 0.76272 0.0
O1036 O 0.28615 0.55594 0.69077 0.0
C1037 C 0.29723 0.62269 0.70043 0.0
O1038 O 0.33157 0.59829 0.71256 0.0
H1039 H 0.42363 0.30619 0.73676 0.0
H1040 H 0.39959 0.61562 0.74339 0.0
C1041 C 0.21187 0.41066 0.66214 0.0
C1042 C 0.20831 0.393 0.64737 0.0
C1043 C 0.33067 0.26732 0.65016 0.0
C1044 C 0.33522 0.28673 0.66478 0.0
N1045 N 0.2757 0.35803 0.67048 0.0
N1046 N 0.26819 0.32123 0.6418 0.0
H1047 H 0.16655 0.46784 0.66699 0.0
C1048 C 0.55757 0.63662 0.70963 0.0
O1049 O 0.50058 0.62992 0.69834 0.0
O1050 O 0.14698 0.38016 0.69777 0.0
H1051 H 0.38666 0.24614 0.6714 0.0
H1052 H 0.42577 0.27834 0.76298 0.0
H1053 H 0.37752 0.21083 0.64544 0.0
Zn1054 Zn 0.39846 0.67863 0.4689 0.0
C1055 C 0.67138 0.65038 0.44965 0.0
N1056 N 0.67755 0.74707 0.45288 0.0
C1057 C 0.58702 0.76875 0.45795 0.0
N1058 N 0.52615 0.68975 0.45801 0.0
N1059 N 0.57668 0.61613 0.45216 0.0
C1060 C 0.45988 0.38585 0.45935 0.0
O1061 O 0.449 0.46131 0.46807 0.0
O1062 O 0.31781 0.80233 0.46923 0.0
Zn1063 Zn 0.49232 0.52758 0.44054 0.0
N1064 N 0.42626 0.65862 0.48892 0.0
C1065 C 0.53606 0.66809 0.50872 0.0
C1066 C 0.5204 0.66613 0.49402 0.0
C1067 C 0.34706 0.65234 0.49791 0.0
N1068 N 0.45701 0.66244 0.51771 0.0
C1069 C 0.36218 0.65444 0.51276 0.0
O1070 O 0.33298 0.53524 0.44085 0.0
C1071 C 0.26603 0.54678 0.45048 0.0
O1072 O 0.2902 0.58156 0.46259 0.0
H1073 H 0.58236 0.67378 0.48676 0.0
H1074 H 0.27297 0.64963 0.49344 0.0
C1075 C 0.47684 0.46149 0.41224 0.0
C1076 C 0.49453 0.45736 0.39747 0.0
C1077 C 0.62294 0.57687 0.40025 0.0
C1078 C 0.60355 0.582 0.41486 0.0
N1079 N 0.53084 0.52421 0.42057 0.0
N1080 N 0.56769 0.51555 0.3919 0.0
H1081 H 0.41864 0.41749 0.4171 0.0
C1082 C 0.25213 0.8074 0.45958 0.0
O1083 O 0.25899 0.75024 0.44831 0.0
O1084 O 0.50912 0.39658 0.44798 0.0
H1085 H 0.64533 0.6325 0.42148 0.0
H1086 H 0.61038 0.67583 0.51297 0.0
H1087 H 0.68054 0.62236 0.39553 0.0
loop_
_geom_bond_atom_site_label_1
_geom_bond_atom_site_label_2
_geom_bond_distance
_geom_bond_site_symmetry_2
_ccdc_geom_bond_type
Zn0 N4 2.020 . S
Zn0 O8 2.019 . S
Zn0 N10 2.119 . S
Zn0 O18 1.975 1_545 S
C1 N2 1.334 . S
C1 N5 1.336 . S
N2 C1 1.334 . S
N2 C3 1.334 . S
C3 N2 1.334 . S
C3 N4 1.336 . S
N4 Zn0 2.020 . S
N4 C3 1.336 . S
N4 N5 1.354 . S
N5 C1 1.336 . S
N5 N4 1.354 . S
N5 Zn9 2.020 . S
C6 O7 1.244 . S
C6 O30 1.257 1_545 S
O7 C6 1.244 . S
O8 Zn0 2.019 . S
O8 C28 1.257 . S
Zn9 N5 2.020 . S
Zn9 O16 1.975 1_545 S
Zn9 N25 2.119 . S
Zn9 O30 2.019 1_545 S
N10 Zn0 2.119 . S
N10 C12 1.334 . S
N10 C13 1.328 . S
C11 C12 1.391 . S
C11 N14 1.329 . S
C11 H32 0.930 1_545 S
C12 N10 1.334 . S
C12 C11 1.391 . S
C12 H19 0.930 . S
C13 N10 1.328 . S
C13 C15 1.392 . S
C13 H20 0.930 . S
N14 C11 1.329 . S
N14 C15 1.331 . S
C15 C13 1.392 . S
C15 N14 1.331 . S
O16 Zn9 1.975 1_565 S
O16 C17 1.252 . S
C17 O16 1.252 . S
C17 O18 1.252 . S
O18 Zn0 1.975 1_565 S
O18 C17 1.252 . S
H19 C12 0.930 . S
H20 C13 0.930 . S
C21 C22 1.392 . S
C21 N25 1.328 . S
C21 H27 0.930 . S
C22 C21 1.392 . S
C22 N26 1.331 . S
C23 C24 1.391 . S
C23 N26 1.329 . S
C23 H33 0.930 . S
C24 C23 1.391 . S
C24 N25 1.334 . S
C24 H31 0.930 . S
N25 Zn9 2.119 . S
N25 C21 1.328 . S
N25 C24 1.334 . S
N26 C22 1.331 . S
N26 C23 1.329 . S
H27 C21 0.930 . S
C28 O8 1.257 . S
C28 O29 1.244 . S
O29 C28 1.244 . S
O30 C6 1.257 1_565 S
O30 Zn9 2.019 1_565 S
H31 C24 0.930 . S
H32 C11 0.930 1_565 S
H33 C23 0.930 . S
Zn34 N38 2.020 1_565 S
Zn34 O42 2.019 . S
Zn34 N44 2.119 1_565 S
Zn34 O52 1.975 . S
C35 N36 1.334 1_455 S
C35 N39 1.336 . S
N36 C35 1.334 1_655 S
N36 C37 1.334 . S
C37 N36 1.334 . S
C37 N38 1.336 1_655 S
N38 Zn34 2.020 1_545 S
N38 C37 1.336 1_455 S
N38 N39 1.354 . S
N39 C35 1.336 . S
N39 N38 1.354 . S
N39 Zn43 2.020 . S
C40 O41 1.244 . S
C40 O64 1.257 . S
O41 C40 1.244 . S
O42 Zn34 2.019 . S
O42 C62 1.257 . S
Zn43 N39 2.020 . S
Zn43 O50 1.975 . S
Zn43 N59 2.119 . S
Zn43 O64 2.019 . S
N44 Zn34 2.119 1_545 S
N44 C46 1.334 . S
N44 C47 1.328 1_545 S
C45 C46 1.391 . S
C45 N48 1.329 . S
C45 H66 0.930 . S
C46 N44 1.334 . S
C46 C45 1.391 . S
C46 H53 0.930 . S
C47 N44 1.328 1_565 S
C47 C49 1.392 . S
C47 H54 0.930 . S
N48 C45 1.329 . S
N48 C49 1.331 1_545 S
C49 C47 1.392 . S
C49 N48 1.331 1_565 S
O50 Zn43 1.975 . S
O50 C51 1.252 . S
C51 O50 1.252 . S
C51 O52 1.252 1_545 S
O52 Zn34 1.975 . S
O52 C51 1.252 1_565 S
H53 C46 0.930 . S
H54 C47 0.930 . S
C55 C56 1.392 . S
C55 N59 1.328 . S
C55 H61 0.930 . S
C56 C55 1.392 . S
C56 N60 1.331 . S
C57 C58 1.391 . S
C57 N60 1.329 . S
C57 H67 0.930 1_545 S
C58 C57 1.391 . S
C58 N59 1.334 . S
C58 H65 0.930 . S
N59 Zn43 2.119 . S
N59 C55 1.328 . S
N59 C58 1.334 . S
N60 C56 1.331 . S
N60 C57 1.329 . S
H61 C55 0.930 . S
C62 O42 1.257 . S
C62 O63 1.244 . S
O63 C62 1.244 . S
O64 C40 1.257 . S
O64 Zn43 2.019 . S
H65 C58 0.930 . S
H66 C45 0.930 . S
H67 C57 0.930 1_565 S
Zn68 N72 2.020 . S
Zn68 O76 2.019 . S
Zn68 N78 2.119 . S
Zn68 O86 1.975 1_565 S
C69 N70 1.334 . S
C69 N73 1.336 . S
N70 C69 1.334 . S
N70 C71 1.334 . S
C71 N70 1.334 . S
C71 N72 1.336 . S
N72 Zn68 2.020 . S
N72 C71 1.336 . S
N72 N73 1.354 . S
N73 C69 1.336 . S
N73 N72 1.354 . S
N73 Zn77 2.020 . S
C74 O75 1.244 . S
C74 O98 1.257 1_565 S
O75 C74 1.244 . S
O76 Zn68 2.019 . S
O76 C96 1.257 . S
Zn77 N73 2.020 . S
Zn77 O84 1.975 1_565 S
Zn77 N93 2.119 . S
Zn77 O98 2.019 1_465 S
N78 Zn68 2.119 . S
N78 C80 1.334 . S
N78 C81 1.328 . S
C79 C80 1.391 . S
C79 N82 1.329 . S
C79 H100 0.930 1_565 S
C80 N78 1.334 . S
C80 C79 1.391 . S
C80 H87 0.930 . S
C81 N78 1.328 . S
C81 C83 1.392 . S
C81 H88 0.930 . S
N82 C79 1.329 . S
N82 C83 1.331 . S
C83 C81 1.392 . S
C83 N82 1.331 . S
O84 Zn77 1.975 1_545 S
O84 C85 1.252 . S
C85 O84 1.252 . S
C85 O86 1.252 . S
O86 Zn68 1.975 1_545 S
O86 C85 1.252 . S
H87 C80 0.930 . S
H88 C81 0.930 . S
C89 C90 1.392 . S
C89 N93 1.328 . S
C89 H95 0.930 1_455 S
C90 C89 1.392 . S
C90 N94 1.331 . S
C91 C92 1.391 . S
C91 N94 1.329 . S
C91 H101 0.930 . S
C92 C91 1.391 . S
C92 N93 1.334 . S
C92 H99 0.930 . S
N93 Zn77 2.119 . S
N93 C89 1.328 . S
N93 C92 1.334 . S
N94 C90 1.331 . S
N94 C91 1.329 . S
H95 C89 0.930 1_655 S
C96 O76 1.257 . S
C96 O97 1.244 . S
O97 C96 1.244 . S
O98 C74 1.257 1_545 S
O98 Zn77 2.019 1_645 S
H99 C92 0.930 . S
H100 C79 0.930 1_545 S
H101 C91 0.930 . S
Zn102 N106 2.020 . S
Zn102 O110 2.019 . S
Zn102 N112 2.119 . S
Zn102 O120 1.975 . S
C103 N104 1.334 . S
C103 N107 1.336 . S
N104 C103 1.334 . S
N104 C105 1.334 . S
C105 N104 1.334 . S
C105 N106 1.336 . S
N106 Zn102 2.020 . S
N106 C105 1.336 . S
N106 N107 1.354 . S
N107 C103 1.336 . S
N107 N106 1.354 . S
N107 Zn111 2.020 1_565 S
C108 O109 1.244 . S
C108 O132 1.257 . S
O109 C108 1.244 . S
O110 Zn102 2.019 . S
O110 C130 1.257 . S
Zn111 N107 2.020 1_545 S
Zn111 O118 1.975 . S
Zn111 N127 2.119 1_545 S
Zn111 O132 2.019 . S
N112 Zn102 2.119 . S
N112 C114 1.334 . S
N112 C115 1.328 . S
C113 C114 1.391 . S
C113 N116 1.329 . S
C113 H134 0.930 1_565 S
C114 N112 1.334 . S
C114 C113 1.391 . S
C114 H121 0.930 . S
C115 N112 1.328 . S
C115 C117 1.392 . S
C115 H122 0.930 . S
N116 C113 1.329 . S
N116 C117 1.331 . S
C117 C115 1.392 . S
C117 N116 1.331 . S
O118 Zn111 1.975 . S
O118 C119 1.252 1_545 S
C119 O118 1.252 1_565 S
C119 O120 1.252 . S
O120 Zn102 1.975 . S
O120 C119 1.252 . S
H121 C114 0.930 . S
H122 C115 0.930 . S
C123 C124 1.392 . S
C123 N127 1.328 1_545 S
C123 H129 0.930 . S
C124 C123 1.392 . S
C124 N128 1.331 1_545 S
C125 C126 1.391 . S
C125 N128 1.329 . S
C125 H135 0.930 . S
C126 C125 1.391 . S
C126 N127 1.334 . S
C126 H133 0.930 . S
N127 Zn111 2.119 1_565 S
N127 C123 1.328 1_565 S
N127 C126 1.334 . S
N128 C124 1.331 1_565 S
N128 C125 1.329 . S
H129 C123 0.930 . S
C130 O110 1.257 . S
C130 O131 1.244 . S
O131 C130 1.244 . S
O132 C108 1.257 . S
O132 Zn111 2.019 . S
H133 C126 0.930 . S
H134 C113 0.930 1_545 S
H135 C125 0.930 . S
Zn136 N140 2.020 . S
Zn136 O144 2.019 1_565 S
Zn136 N146 2.119 . S
Zn136 O154 1.975 1_565 S
C137 N138 1.334 . S
C137 N141 1.336 . S
N138 C137 1.334 . S
N138 C139 1.334 . S
C139 N138 1.334 . S
C139 N140 1.336 . S
N140 Zn136 2.020 . S
N140 C139 1.336 . S
N140 N141 1.354 . S
N141 C137 1.336 . S
N141 N140 1.354 . S
N141 Zn145 2.020 . S
C142 O143 1.244 . S
C142 O166 1.257 . S
O143 C142 1.244 . S
O144 Zn136 2.019 1_545 S
O144 C164 1.257 1_545 S
Zn145 N141 2.020 . S
Zn145 O152 1.975 1_565 S
Zn145 N161 2.119 . S
Zn145 O166 2.019 . S
N146 Zn136 2.119 . S
N146 C148 1.334 . S
N146 C149 1.328 . S
C147 C148 1.391 . S
C147 N150 1.329 . S
C147 H168 0.930 . S
C148 N146 1.334 . S
C148 C147 1.391 . S
C148 H155 0.930 . S
C149 N146 1.328 . S
C149 C151 1.392 . S
C149 H156 0.930 . S
N150 C147 1.329 . S
N150 C151 1.331 . S
C151 C149 1.392 . S
C151 N150 1.331 . S
O152 Zn145 1.975 1_545 S
O152 C153 1.252 . S
C153 O152 1.252 . S
C153 O154 1.252 . S
O154 Zn136 1.975 1_545 S
O154 C153 1.252 . S
H155 C148 0.930 . S
H156 C149 0.930 . S
C157 C158 1.392 . S
C157 N161 1.328 . S
C157 H163 0.930 . S
C158 C157 1.392 . S
C158 N162 1.331 . S
C159 C160 1.391 . S
C159 N162 1.329 . S
C159 H169 0.930 1_565 S
C160 C159 1.391 . S
C160 N161 1.334 . S
C160 H167 0.930 . S
N161 Zn145 2.119 . S
N161 C157 1.328 . S
N161 C160 1.334 . S
N162 C158 1.331 . S
N162 C159 1.329 . S
H163 C157 0.930 . S
C164 O144 1.257 1_565 S
C164 O165 1.244 . S
O165 C164 1.244 . S
O166 C142 1.257 . S
O166 Zn145 2.019 . S
H167 C160 0.930 . S
H168 C147 0.930 . S
H169 C159 0.930 1_545 S
Zn170 N174 2.020 . S
Zn170 O178 2.019 . S
Zn170 N180 2.119 . S
Zn170 O188 1.975 . S
C171 N172 1.334 . S
C171 N175 1.336 . S
N172 C171 1.334 . S
N172 C173 1.334 . S
C173 N172 1.334 . S
C173 N174 1.336 . S
N174 Zn170 2.020 . S
N174 C173 1.336 . S
N174 N175 1.354 . S
N175 C171 1.336 . S
N175 N174 1.354 . S
N175 Zn179 2.020 1_545 S
C176 O177 1.244 . S
C176 O200 1.257 . S
O177 C176 1.244 . S
O178 Zn170 2.019 . S
O178 C198 1.257 . S
Zn179 N175 2.020 1_565 S
Zn179 O186 1.975 . S
Zn179 N195 2.119 1_565 S
Zn179 O200 2.019 . S
N180 Zn170 2.119 . S
N180 C182 1.334 . S
N180 C183 1.328 . S
C181 C182 1.391 . S
C181 N184 1.329 . S
C181 H202 0.930 1_545 S
C182 N180 1.334 . S
C182 C181 1.391 . S
C182 H189 0.930 . S
C183 N180 1.328 . S
C183 C185 1.392 . S
C183 H190 0.930 . S
N184 C181 1.329 . S
N184 C185 1.331 . S
C185 C183 1.392 . S
C185 N184 1.331 . S
O186 Zn179 1.975 . S
O186 C187 1.252 1_565 S
C187 O186 1.252 1_545 S
C187 O188 1.252 . S
O188 Zn170 1.975 . S
O188 C187 1.252 . S
H189 C182 0.930 . S
H190 C183 0.930 . S
C191 C192 1.392 . S
C191 N195 1.328 1_565 S
C191 H197 0.930 . S
C192 C191 1.392 . S
C192 N196 1.331 1_565 S
C193 C194 1.391 . S
C193 N196 1.329 . S
C193 H203 0.930 . S
C194 C193 1.391 . S
C194 N195 1.334 . S
C194 H201 0.930 . S
N195 Zn179 2.119 1_545 S
N195 C191 1.328 1_545 S
N195 C194 1.334 . S
N196 C192 1.331 1_545 S
N196 C193 1.329 . S
H197 C191 0.930 . S
C198 O178 1.257 . S
C198 O199 1.244 . S
O199 C198 1.244 . S
O200 C176 1.257 . S
O200 Zn179 2.019 . S
H201 C194 0.930 . S
H202 C181 0.930 1_565 S
H203 C193 0.930 . S
Zn204 N208 2.020 . S
Zn204 O212 2.019 1_445 S
Zn204 N214 2.119 . S
Zn204 O222 1.975 1_545 S
C205 N206 1.334 . S
C205 N209 1.336 . S
N206 C205 1.334 . S
N206 C207 1.334 . S
C207 N206 1.334 . S
C207 N208 1.336 . S
N208 Zn204 2.020 . S
N208 C207 1.336 . S
N208 N209 1.354 . S
N209 C205 1.336 . S
N209 N208 1.354 . S
N209 Zn213 2.020 . S
C210 O211 1.244 . S
C210 O234 1.257 . S
O211 C210 1.244 . S
O212 Zn204 2.019 1_665 S
O212 C232 1.257 1_565 S
Zn213 N209 2.020 . S
Zn213 O220 1.975 1_545 S
Zn213 N229 2.119 . S
Zn213 O234 2.019 . S
N214 Zn204 2.119 . S
N214 C216 1.334 . S
N214 C217 1.328 . S
C215 C216 1.391 . S
C215 N218 1.329 . S
C215 H236 0.930 . S
C216 N214 1.334 . S
C216 C215 1.391 . S
C216 H223 0.930 . S
C217 N214 1.328 . S
C217 C219 1.392 . S
C217 H224 0.930 1_455 S
N218 C215 1.329 . S
N218 C219 1.331 . S
C219 C217 1.392 . S
C219 N218 1.331 . S
O220 Zn213 1.975 1_565 S
O220 C221 1.252 . S
C221 O220 1.252 . S
C221 O222 1.252 . S
O222 Zn204 1.975 1_565 S
O222 C221 1.252 . S
H223 C216 0.930 . S
H224 C217 0.930 1_655 S
C225 C226 1.392 . S
C225 N229 1.328 . S
C225 H231 0.930 . S
C226 C225 1.392 . S
C226 N230 1.331 . S
C227 C228 1.391 . S
C227 N230 1.329 . S
C227 H237 0.930 1_545 S
C228 C227 1.391 . S
C228 N229 1.334 . S
C228 H235 0.930 . S
N229 Zn213 2.119 . S
N229 C225 1.328 . S
N229 C228 1.334 . S
N230 C226 1.331 . S
N230 C227 1.329 . S
H231 C225 0.930 . S
C232 O212 1.257 1_545 S
C232 O233 1.244 . S
O233 C232 1.244 . S
O234 C210 1.257 . S
O234 Zn213 2.019 . S
H235 C228 0.930 . S
H236 C215 0.930 . S
H237 C227 0.930 1_565 S
Zn238 N242 2.020 . S
Zn238 O246 2.019 . S
Zn238 N248 2.119 . S
Zn238 O256 1.975 . S
C239 N240 1.334 . S
C239 N243 1.336 1_655 S
N240 C239 1.334 . S
N240 C241 1.334 1_655 S
C241 N240 1.334 1_455 S
C241 N242 1.336 . S
N242 Zn238 2.020 . S
N242 C241 1.336 . S
N242 N243 1.354 . S
N243 C239 1.336 1_455 S
N243 N242 1.354 . S
N243 Zn247 2.020 1_565 S
C244 O245 1.244 . S
C244 O268 1.257 . S
O245 C244 1.244 . S
O246 Zn238 2.019 . S
O246 C266 1.257 . S
Zn247 N243 2.020 1_545 S
Zn247 O254 1.975 . S
Zn247 N263 2.119 1_545 S
Zn247 O268 2.019 . S
N248 Zn238 2.119 . S
N248 C250 1.334 . S
N248 C251 1.328 . S
C249 C250 1.391 . S
C249 N252 1.329 . S
C249 H270 0.930 1_565 S
C250 N248 1.334 . S
C250 C249 1.391 . S
C250 H257 0.930 . S
C251 N248 1.328 . S
C251 C253 1.392 . S
C251 H258 0.930 . S
N252 C249 1.329 . S
N252 C253 1.331 . S
C253 C251 1.392 . S
C253 N252 1.331 . S
O254 Zn247 1.975 . S
O254 C255 1.252 1_545 S
C255 O254 1.252 1_565 S
C255 O256 1.252 . S
O256 Zn238 1.975 . S
O256 C255 1.252 . S
H257 C250 0.930 . S
H258 C251 0.930 . S
C259 C260 1.392 . S
C259 N263 1.328 1_545 S
C259 H265 0.930 . S
C260 C259 1.392 . S
C260 N264 1.331 1_545 S
C261 C262 1.391 . S
C261 N264 1.329 . S
C261 H271 0.930 . S
C262 C261 1.391 . S
C262 N263 1.334 . S
C262 H269 0.930 . S
N263 Zn247 2.119 1_565 S
N263 C259 1.328 1_565 S
N263 C262 1.334 . S
N264 C260 1.331 1_565 S
N264 C261 1.329 . S
H265 C259 0.930 . S
C266 O246 1.257 . S
C266 O267 1.244 . S
O267 C266 1.244 . S
O268 C244 1.257 . S
O268 Zn247 2.019 . S
H269 C262 0.930 . S
H270 C249 0.930 1_545 S
H271 C261 0.930 . S
Zn272 N276 2.020 . S
Zn272 O280 2.019 . S
Zn272 N282 2.119 . S
Zn272 O290 1.975 1_565 S
C273 N274 1.334 . S
C273 N277 1.336 . S
N274 C273 1.334 . S
N274 C275 1.334 . S
C275 N274 1.334 . S
C275 N276 1.336 . S
N276 Zn272 2.020 . S
N276 C275 1.336 . S
N276 N277 1.354 . S
N277 C273 1.336 . S
N277 N276 1.354 . S
N277 Zn281 2.020 . S
C278 O279 1.244 . S
C278 O302 1.257 1_565 S
O279 C278 1.244 . S
O280 Zn272 2.019 . S
O280 C300 1.257 . S
Zn281 N277 2.020 . S
Zn281 O288 1.975 1_565 S
Zn281 N297 2.119 . S
Zn281 O302 2.019 1_565 S
N282 Zn272 2.119 . S
N282 C284 1.334 . S
N282 C285 1.328 . S
C283 C284 1.391 . S
C283 N286 1.329 . S
C283 H304 0.930 1_565 S
C284 N282 1.334 . S
C284 C283 1.391 . S
C284 H291 0.930 . S
C285 N282 1.328 . S
C285 C287 1.392 . S
C285 H292 0.930 . S
N286 C283 1.329 . S
N286 C287 1.331 . S
C287 C285 1.392 . S
C287 N286 1.331 . S
O288 Zn281 1.975 1_545 S
O288 C289 1.252 . S
C289 O288 1.252 . S
C289 O290 1.252 . S
O290 Zn272 1.975 1_545 S
O290 C289 1.252 . S
H291 C284 0.930 . S
H292 C285 0.930 . S
C293 C294 1.392 . S
C293 N297 1.328 . S
C293 H299 0.930 . S
C294 C293 1.392 . S
C294 N298 1.331 . S
C295 C296 1.391 . S
C295 N298 1.329 . S
C295 H305 0.930 . S
C296 C295 1.391 . S
C296 N297 1.334 . S
C296 H303 0.930 . S
N297 Zn281 2.119 . S
N297 C293 1.328 . S
N297 C296 1.334 . S
N298 C294 1.331 . S
N298 C295 1.329 . S
H299 C293 0.930 . S
C300 O280 1.257 . S
C300 O301 1.244 . S
O301 C300 1.244 . S
O302 C278 1.257 1_545 S
O302 Zn281 2.019 1_545 S
H303 C296 0.930 . S
H304 C283 0.930 1_545 S
H305 C295 0.930 . S
Zn306 N310 2.020 . S
Zn306 O314 2.019 . S
Zn306 N316 2.119 . S
Zn306 O324 1.975 . S
C307 N308 1.334 . S
C307 N311 1.336 1_455 S
N308 C307 1.334 . S
N308 C309 1.334 1_455 S
C309 N308 1.334 1_655 S
C309 N310 1.336 . S
N310 Zn306 2.020 . S
N310 C309 1.336 . S
N310 N311 1.354 . S
N311 C307 1.336 1_655 S
N311 N310 1.354 . S
N311 Zn315 2.020 1_565 S
C312 O313 1.244 . S
C312 O336 1.257 . S
O313 C312 1.244 . S
O314 Zn306 2.019 . S
O314 C334 1.257 . S
Zn315 N311 2.020 1_545 S
Zn315 O322 1.975 . S
Zn315 N331 2.119 1_545 S
Zn315 O336 2.019 . S
N316 Zn306 2.119 . S
N316 C318 1.334 . S
N316 C319 1.328 . S
C317 C318 1.391 . S
C317 N320 1.329 . S
C317 H338 0.930 1_565 S
C318 N316 1.334 . S
C318 C317 1.391 . S
C318 H325 0.930 . S
C319 N316 1.328 . S
C319 C321 1.392 . S
C319 H326 0.930 . S
N320 C317 1.329 . S
N320 C321 1.331 . S
C321 C319 1.392 . S
C321 N320 1.331 . S
O322 Zn315 1.975 . S
O322 C323 1.252 1_545 S
C323 O322 1.252 1_565 S
C323 O324 1.252 . S
O324 Zn306 1.975 . S
O324 C323 1.252 . S
H325 C318 0.930 . S
H326 C319 0.930 . S
C327 C328 1.392 . S
C327 N331 1.328 1_545 S
C327 H333 0.930 . S
C328 C327 1.392 . S
C328 N332 1.331 1_545 S
C329 C330 1.391 . S
C329 N332 1.329 . S
C329 H339 0.930 . S
C330 C329 1.391 . S
C330 N331 1.334 . S
C330 H337 0.930 . S
N331 Zn315 2.119 1_565 S
N331 C327 1.328 1_565 S
N331 C330 1.334 . S
N332 C328 1.331 1_565 S
N332 C329 1.329 . S
H333 C327 0.930 . S
C334 O314 1.257 . S
C334 O335 1.244 . S
O335 C334 1.244 . S
O336 C312 1.257 . S
O336 Zn315 2.019 . S
H337 C330 0.930 . S
H338 C317 0.930 1_545 S
H339 C329 0.930 . S
Zn340 N344 2.020 . S
Zn340 O348 2.019 1_645 S
Zn340 N350 2.119 . S
Zn340 O358 1.975 1_545 S
C341 N342 1.334 . S
C341 N345 1.336 . S
N342 C341 1.334 . S
N342 C343 1.334 . S
C343 N342 1.334 . S
C343 N344 1.336 . S
N344 Zn340 2.020 . S
N344 C343 1.336 . S
N344 N345 1.354 . S
N345 C341 1.336 . S
N345 N344 1.354 . S
N345 Zn349 2.020 . S
C346 O347 1.244 . S
C346 O370 1.257 . S
O347 C346 1.244 . S
O348 Zn340 2.019 1_465 S
O348 C368 1.257 1_565 S
Zn349 N345 2.020 . S
Zn349 O356 1.975 1_545 S
Zn349 N365 2.119 . S
Zn349 O370 2.019 . S
N350 Zn340 2.119 . S
N350 C352 1.334 . S
N350 C353 1.328 . S
C351 C352 1.391 . S
C351 N354 1.329 . S
C351 H372 0.930 . S
C352 N350 1.334 . S
C352 C351 1.391 . S
C352 H359 0.930 . S
C353 N350 1.328 . S
C353 C355 1.392 . S
C353 H360 0.930 1_655 S
N354 C351 1.329 . S
N354 C355 1.331 . S
C355 C353 1.392 . S
C355 N354 1.331 . S
O356 Zn349 1.975 1_565 S
O356 C357 1.252 . S
C357 O356 1.252 . S
C357 O358 1.252 . S
O358 Zn340 1.975 1_565 S
O358 C357 1.252 . S
H359 C352 0.930 . S
H360 C353 0.930 1_455 S
C361 C362 1.392 . S
C361 N365 1.328 . S
C361 H367 0.930 . S
C362 C361 1.392 . S
C362 N366 1.331 . S
C363 C364 1.391 . S
C363 N366 1.329 . S
C363 H373 0.930 1_545 S
C364 C363 1.391 . S
C364 N365 1.334 . S
C364 H371 0.930 . S
N365 Zn349 2.119 . S
N365 C361 1.328 . S
N365 C364 1.334 . S
N366 C362 1.331 . S
N366 C363 1.329 . S
H367 C361 0.930 . S
C368 O348 1.257 1_545 S
C368 O369 1.244 . S
O369 C368 1.244 . S
O370 C346 1.257 . S
O370 Zn349 2.019 . S
H371 C364 0.930 . S
H372 C351 0.930 . S
H373 C363 0.930 1_565 S
Zn374 N378 2.020 1_565 S
Zn374 O382 2.019 . S
Zn374 N384 2.119 1_565 S
Zn374 O392 1.975 . S
C375 N376 1.334 . S
C375 N379 1.336 . S
N376 C375 1.334 . S
N376 C377 1.334 . S
C377 N376 1.334 . S
C377 N378 1.336 . S
N378 Zn374 2.020 1_545 S
N378 C377 1.336 . S
N378 N379 1.354 . S
N379 C375 1.336 . S
N379 N378 1.354 . S
N379 Zn383 2.020 . S
C380 O381 1.244 . S
C380 O404 1.257 . S
O381 C380 1.244 . S
O382 Zn374 2.019 . S
O382 C402 1.257 . S
Zn383 N379 2.020 . S
Zn383 O390 1.975 . S
Zn383 N399 2.119 . S
Zn383 O404 2.019 . S
N384 Zn374 2.119 1_545 S
N384 C386 1.334 . S
N384 C387 1.328 1_545 S
C385 C386 1.391 . S
C385 N388 1.329 . S
C385 H406 0.930 . S
C386 N384 1.334 . S
C386 C385 1.391 . S
C386 H393 0.930 . S
C387 N384 1.328 1_565 S
C387 C389 1.392 . S
C387 H394 0.930 . S
N388 C385 1.329 . S
N388 C389 1.331 1_545 S
C389 C387 1.392 . S
C389 N388 1.331 1_565 S
O390 Zn383 1.975 . S
O390 C391 1.252 . S
C391 O390 1.252 . S
C391 O392 1.252 1_545 S
O392 Zn374 1.975 . S
O392 C391 1.252 1_565 S
H393 C386 0.930 . S
H394 C387 0.930 . S
C395 C396 1.392 . S
C395 N399 1.328 . S
C395 H401 0.930 . S
C396 C395 1.392 . S
C396 N400 1.331 . S
C397 C398 1.391 . S
C397 N400 1.329 . S
C397 H407 0.930 1_545 S
C398 C397 1.391 . S
C398 N399 1.334 . S
C398 H405 0.930 . S
N399 Zn383 2.119 . S
N399 C395 1.328 . S
N399 C398 1.334 . S
N400 C396 1.331 . S
N400 C397 1.329 . S
H401 C395 0.930 . S
C402 O382 1.257 . S
C402 O403 1.244 . S
O403 C402 1.244 . S
O404 C380 1.257 . S
O404 Zn383 2.019 . S
H405 C398 0.930 . S
H406 C385 0.930 . S
H407 C397 0.930 1_565 S
Zn408 N412 2.020 . S
Zn408 O416 2.019 . S
Zn408 N418 2.119 . S
Zn408 O426 1.975 1_545 S
C409 N410 1.334 . S
C409 N413 1.336 . S
N410 C409 1.334 . S
N410 C411 1.334 . S
C411 N410 1.334 . S
C411 N412 1.336 . S
N412 Zn408 2.020 . S
N412 C411 1.336 . S
N412 N413 1.354 . S
N413 C409 1.336 . S
N413 N412 1.354 . S
N413 Zn417 2.020 . S
C414 O415 1.244 . S
C414 O438 1.257 1_545 S
O415 C414 1.244 . S
O416 Zn408 2.019 . S
O416 C436 1.257 . S
Zn417 N413 2.020 . S
Zn417 O424 1.975 1_545 S
Zn417 N433 2.119 . S
Zn417 O438 2.019 1_545 S
N418 Zn408 2.119 . S
N418 C420 1.334 . S
N418 C421 1.328 . S
C419 C420 1.391 . S
C419 N422 1.329 . S
C419 H440 0.930 1_545 S
C420 N418 1.334 . S
C420 C419 1.391 . S
C420 H427 0.930 . S
C421 N418 1.328 . S
C421 C423 1.392 . S
C421 H428 0.930 . S
N422 C419 1.329 . S
N422 C423 1.331 . S
C423 C421 1.392 . S
C423 N422 1.331 . S
O424 Zn417 1.975 1_565 S
O424 C425 1.252 . S
C425 O424 1.252 . S
C425 O426 1.252 . S
O426 Zn408 1.975 1_565 S
O426 C425 1.252 . S
H427 C420 0.930 . S
H428 C421 0.930 . S
C429 C430 1.392 . S
C429 N433 1.328 . S
C429 H435 0.930 . S
C430 C429 1.392 . S
C430 N434 1.331 . S
C431 C432 1.391 . S
C431 N434 1.329 . S
C431 H441 0.930 . S
C432 C431 1.391 . S
C432 N433 1.334 . S
C432 H439 0.930 . S
N433 Zn417 2.119 . S
N433 C429 1.328 . S
N433 C432 1.334 . S
N434 C430 1.331 . S
N434 C431 1.329 . S
H435 C429 0.930 . S
C436 O416 1.257 . S
C436 O437 1.244 . S
O437 C436 1.244 . S
O438 C414 1.257 1_565 S
O438 Zn417 2.019 1_565 S
H439 C432 0.930 . S
H440 C419 0.930 1_565 S
H441 C431 0.930 . S
Zn442 N446 2.020 . S
Zn442 O450 2.019 . S
Zn442 N452 2.119 . S
Zn442 O460 1.975 . S
C443 N444 1.334 . S
C443 N447 1.336 . S
N444 C443 1.334 . S
N444 C445 1.334 . S
C445 N444 1.334 . S
C445 N446 1.336 . S
N446 Zn442 2.020 . S
N446 C445 1.336 . S
N446 N447 1.354 . S
N447 C443 1.336 . S
N447 N446 1.354 . S
N447 Zn451 2.020 1_565 S
C448 O449 1.244 . S
C448 O472 1.257 . S
O449 C448 1.244 . S
O450 Zn442 2.019 . S
O450 C470 1.257 . S
Zn451 N447 2.020 1_545 S
Zn451 O458 1.975 . S
Zn451 N467 2.119 1_545 S
Zn451 O472 2.019 . S
N452 Zn442 2.119 . S
N452 C454 1.334 . S
N452 C455 1.328 . S
C453 C454 1.391 . S
C453 N456 1.329 . S
C453 H474 0.930 1_565 S
C454 N452 1.334 . S
C454 C453 1.391 . S
C454 H461 0.930 . S
C455 N452 1.328 . S
C455 C457 1.392 . S
C455 H462 0.930 . S
N456 C453 1.329 . S
N456 C457 1.331 . S
C457 C455 1.392 . S
C457 N456 1.331 . S
O458 Zn451 1.975 . S
O458 C459 1.252 1_545 S
C459 O458 1.252 1_565 S
C459 O460 1.252 . S
O460 Zn442 1.975 . S
O460 C459 1.252 . S
H461 C454 0.930 . S
H462 C455 0.930 . S
C463 C464 1.392 . S
C463 N467 1.328 1_545 S
C463 H469 0.930 . S
C464 C463 1.392 . S
C464 N468 1.331 1_545 S
C465 C466 1.391 . S
C465 N468 1.329 . S
C465 H475 0.930 . S
C466 C465 1.391 . S
C466 N467 1.334 . S
C466 H473 0.930 . S
N467 Zn451 2.119 1_565 S
N467 C463 1.328 1_565 S
N467 C466 1.334 . S
N468 C464 1.331 1_565 S
N468 C465 1.329 . S
H469 C463 0.930 . S
C470 O450 1.257 . S
C470 O471 1.244 . S
O471 C470 1.244 . S
O472 C448 1.257 . S
O472 Zn451 2.019 . S
H473 C466 0.930 . S
H474 C453 0.930 1_545 S
H475 C465 0.930 . S
Zn476 N480 2.020 . S
Zn476 O484 2.019 1_665 S
Zn476 N486 2.119 . S
Zn476 O494 1.975 1_565 S
C477 N478 1.334 . S
C477 N481 1.336 . S
N478 C477 1.334 . S
N478 C479 1.334 . S
C479 N478 1.334 . S
C479 N480 1.336 . S
N480 Zn476 2.020 . S
N480 C479 1.336 . S
N480 N481 1.354 . S
N481 C477 1.336 . S
N481 N480 1.354 . S
N481 Zn485 2.020 . S
C482 O483 1.244 . S
C482 O506 1.257 . S
O483 C482 1.244 . S
O484 Zn476 2.019 1_445 S
O484 C504 1.257 1_545 S
Zn485 N481 2.020 . S
Zn485 O492 1.975 1_565 S
Zn485 N501 2.119 . S
Zn485 O506 2.019 . S
N486 Zn476 2.119 . S
N486 C488 1.334 . S
N486 C489 1.328 . S
C487 C488 1.391 . S
C487 N490 1.329 . S
C487 H508 0.930 . S
C488 N486 1.334 . S
C488 C487 1.391 . S
C488 H495 0.930 . S
C489 N486 1.328 . S
C489 C491 1.392 . S
C489 H496 0.930 1_655 S
N490 C487 1.329 . S
N490 C491 1.331 . S
C491 C489 1.392 . S
C491 N490 1.331 . S
O492 Zn485 1.975 1_545 S
O492 C493 1.252 . S
C493 O492 1.252 . S
C493 O494 1.252 . S
O494 Zn476 1.975 1_545 S
O494 C493 1.252 . S
H495 C488 0.930 . S
H496 C489 0.930 1_455 S
C497 C498 1.392 . S
C497 N501 1.328 . S
C497 H503 0.930 . S
C498 C497 1.392 . S
C498 N502 1.331 . S
C499 C500 1.391 . S
C499 N502 1.329 . S
C499 H509 0.930 1_565 S
C500 C499 1.391 . S
C500 N501 1.334 . S
C500 H507 0.930 . S
N501 Zn485 2.119 . S
N501 C497 1.328 . S
N501 C500 1.334 . S
N502 C498 1.331 . S
N502 C499 1.329 . S
H503 C497 0.930 . S
C504 O484 1.257 1_565 S
C504 O505 1.244 . S
O505 C504 1.244 . S
O506 C482 1.257 . S
O506 Zn485 2.019 . S
H507 C500 0.930 . S
H508 C487 0.930 . S
H509 C499 0.930 1_545 S
Zn510 N514 2.020 . S
Zn510 O518 2.019 . S
Zn510 N520 2.119 . S
Zn510 O528 1.975 . S
C511 N512 1.334 . S
C511 N515 1.336 1_455 S
N512 C511 1.334 . S
N512 C513 1.334 1_455 S
C513 N512 1.334 1_655 S
C513 N514 1.336 . S
N514 Zn510 2.020 . S
N514 C513 1.336 . S
N514 N515 1.354 . S
N515 C511 1.336 1_655 S
N515 N514 1.354 . S
N515 Zn519 2.020 1_545 S
C516 O517 1.244 . S
C516 O540 1.257 . S
O517 C516 1.244 . S
O518 Zn510 2.019 . S
O518 C538 1.257 . S
Zn519 N515 2.020 1_565 S
Zn519 O526 1.975 . S
Zn519 N535 2.119 1_565 S
Zn519 O540 2.019 . S
N520 Zn510 2.119 . S
N520 C522 1.334 . S
N520 C523 1.328 . S
C521 C522 1.391 . S
C521 N524 1.329 . S
C521 H542 0.930 1_545 S
C522 N520 1.334 . S
C522 C521 1.391 . S
C522 H529 0.930 . S
C523 N520 1.328 . S
C523 C525 1.392 . S
C523 H530 0.930 . S
N524 C521 1.329 . S
N524 C525 1.331 . S
C525 C523 1.392 . S
C525 N524 1.331 . S
O526 Zn519 1.975 . S
O526 C527 1.252 1_565 S
C527 O526 1.252 1_545 S
C527 O528 1.252 . S
O528 Zn510 1.975 . S
O528 C527 1.252 . S
H529 C522 0.930 . S
H530 C523 0.930 . S
C531 C532 1.392 . S
C531 N535 1.328 1_565 S
C531 H537 0.930 . S
C532 C531 1.392 . S
C532 N536 1.331 1_565 S
C533 C534 1.391 . S
C533 N536 1.329 . S
C533 H543 0.930 . S
C534 C533 1.391 . S
C534 N535 1.334 . S
C534 H541 0.930 . S
N535 Zn519 2.119 1_545 S
N535 C531 1.328 1_545 S
N535 C534 1.334 . S
N536 C532 1.331 1_545 S
N536 C533 1.329 . S
H537 C531 0.930 . S
C538 O518 1.257 . S
C538 O539 1.244 . S
O539 C538 1.244 . S
O540 C516 1.257 . S
O540 Zn519 2.019 . S
H541 C534 0.930 . S
H542 C521 0.930 1_565 S
H543 C533 0.930 . S
Zn544 N548 2.020 . S
Zn544 O552 2.019 . S
Zn544 N554 2.119 . S
Zn544 O562 1.975 . S
C545 N546 1.334 . S
C545 N549 1.336 . S
N546 C545 1.334 . S
N546 C547 1.334 . S
C547 N546 1.334 . S
C547 N548 1.336 . S
N548 Zn544 2.020 . S
N548 C547 1.336 . S
N548 N549 1.354 . S
N549 C545 1.336 . S
N549 N548 1.354 . S
N549 Zn553 2.020 . S
C550 O551 1.244 . S
C550 O574 1.257 . S
O551 C550 1.244 . S
O552 Zn544 2.019 . S
O552 C572 1.257 . S
Zn553 N549 2.020 . S
Zn553 O560 1.975 . S
Zn553 N569 2.119 . S
Zn553 O574 2.019 1_655 S
N554 Zn544 2.119 . S
N554 C556 1.334 . S
N554 C557 1.328 . S
C555 C556 1.391 . S
C555 N558 1.329 . S
C555 H576 0.930 . S
C556 N554 1.334 . S
C556 C555 1.391 . S
C556 H563 0.930 . S
C557 N554 1.328 . S
C557 C559 1.392 . S
C557 H564 0.930 . S
N558 C555 1.329 . S
N558 C559 1.331 . S
C559 C557 1.392 . S
C559 N558 1.331 . S
O560 Zn553 1.975 . S
O560 C561 1.252 . S
C561 O560 1.252 . S
C561 O562 1.252 . S
O562 Zn544 1.975 . S
O562 C561 1.252 . S
H563 C556 0.930 . S
H564 C557 0.930 . S
C565 C566 1.392 . S
C565 N569 1.328 . S
C565 H571 0.930 1_655 S
C566 C565 1.392 . S
C566 N570 1.331 . S
C567 C568 1.391 . S
C567 N570 1.329 . S
C567 H577 0.930 . S
C568 C567 1.391 . S
C568 N569 1.334 . S
C568 H575 0.930 . S
N569 Zn553 2.119 . S
N569 C565 1.328 . S
N569 C568 1.334 . S
N570 C566 1.331 . S
N570 C567 1.329 . S
H571 C565 0.930 1_455 S
C572 O552 1.257 . S
C572 O573 1.244 . S
O573 C572 1.244 . S
O574 C550 1.257 . S
O574 Zn553 2.019 1_455 S
H575 C568 0.930 . S
H576 C555 0.930 . S
H577 C567 0.930 . S
Zn578 N582 2.020 . S
Zn578 O586 2.019 . S
Zn578 N588 2.119 . S
Zn578 O596 1.975 . S
C579 N580 1.334 . S
C579 N583 1.336 . S
N580 C579 1.334 . S
N580 C581 1.334 . S
C581 N580 1.334 . S
C581 N582 1.336 . S
N582 Zn578 2.020 . S
N582 C581 1.336 . S
N582 N583 1.354 . S
N583 C579 1.336 . S
N583 N582 1.354 . S
N583 Zn587 2.020 . S
C584 O585 1.244 . S
C584 O608 1.257 . S
O585 C584 1.244 . S
O586 Zn578 2.019 . S
O586 C606 1.257 . S
Zn587 N583 2.020 . S
Zn587 O594 1.975 . S
Zn587 N603 2.119 . S
Zn587 O608 2.019 . S
N588 Zn578 2.119 . S
N588 C590 1.334 . S
N588 C591 1.328 . S
C589 C590 1.391 . S
C589 N592 1.329 . S
C589 H610 0.930 . S
C590 N588 1.334 . S
C590 C589 1.391 . S
C590 H597 0.930 . S
C591 N588 1.328 . S
C591 C593 1.392 . S
C591 H598 0.930 . S
N592 C589 1.329 . S
N592 C593 1.331 . S
C593 C591 1.392 . S
C593 N592 1.331 . S
O594 Zn587 1.975 . S
O594 C595 1.252 . S
C595 O594 1.252 . S
C595 O596 1.252 . S
O596 Zn578 1.975 . S
O596 C595 1.252 . S
H597 C590 0.930 . S
H598 C591 0.930 . S
C599 C600 1.392 . S
C599 N603 1.328 . S
C599 H605 0.930 . S
C600 C599 1.392 . S
C600 N604 1.331 . S
C601 C602 1.391 . S
C601 N604 1.329 . S
C601 H611 0.930 . S
C602 C601 1.391 . S
C602 N603 1.334 . S
C602 H609 0.930 . S
N603 Zn587 2.119 . S
N603 C599 1.328 . S
N603 C602 1.334 . S
N604 C600 1.331 . S
N604 C601 1.329 . S
H605 C599 0.930 . S
C606 O586 1.257 . S
C606 O607 1.244 . S
O607 C606 1.244 . S
O608 C584 1.257 . S
O608 Zn587 2.019 . S
H609 C602 0.930 . S
H610 C589 0.930 . S
H611 C601 0.930 . S
Zn612 N616 2.020 . S
Zn612 O620 2.019 . S
Zn612 N622 2.119 . S
Zn612 O630 1.975 . S
C613 N614 1.334 . S
C613 N617 1.336 . S
N614 C613 1.334 . S
N614 C615 1.334 . S
C615 N614 1.334 . S
C615 N616 1.336 . S
N616 Zn612 2.020 . S
N616 C615 1.336 . S
N616 N617 1.354 . S
N617 C613 1.336 . S
N617 N616 1.354 . S
N617 Zn621 2.020 . S
C618 O619 1.244 . S
C618 O642 1.257 . S
O619 C618 1.244 . S
O620 Zn612 2.019 . S
O620 C640 1.257 . S
Zn621 N617 2.020 . S
Zn621 O628 1.975 . S
Zn621 N637 2.119 . S
Zn621 O642 2.019 . S
N622 Zn612 2.119 . S
N622 C624 1.334 . S
N622 C625 1.328 . S
C623 C624 1.391 . S
C623 N626 1.329 . S
C623 H644 0.930 . S
C624 N622 1.334 . S
C624 C623 1.391 . S
C624 H631 0.930 . S
C625 N622 1.328 . S
C625 C627 1.392 . S
C625 H632 0.930 . S
N626 C623 1.329 . S
N626 C627 1.331 . S
C627 C625 1.392 . S
C627 N626 1.331 . S
O628 Zn621 1.975 . S
O628 C629 1.252 . S
C629 O628 1.252 . S
C629 O630 1.252 . S
O630 Zn612 1.975 . S
O630 C629 1.252 . S
H631 C624 0.930 . S
H632 C625 0.930 . S
C633 C634 1.392 . S
C633 N637 1.328 . S
C633 H639 0.930 . S
C634 C633 1.392 . S
C634 N638 1.331 . S
C635 C636 1.391 . S
C635 N638 1.329 . S
C635 H645 0.930 . S
C636 C635 1.391 . S
C636 N637 1.334 . S
C636 H643 0.930 . S
N637 Zn621 2.119 . S
N637 C633 1.328 . S
N637 C636 1.334 . S
N638 C634 1.331 . S
N638 C635 1.329 . S
H639 C633 0.930 . S
C640 O620 1.257 . S
C640 O641 1.244 . S
O641 C640 1.244 . S
O642 C618 1.257 . S
O642 Zn621 2.019 . S
H643 C636 0.930 . S
H644 C623 0.930 . S
H645 C635 0.930 . S
Zn646 N650 2.020 . S
Zn646 O654 2.019 . S
Zn646 N656 2.119 . S
Zn646 O664 1.975 . S
C647 N648 1.334 1_655 S
C647 N651 1.336 . S
N648 C647 1.334 1_455 S
N648 C649 1.334 . S
C649 N648 1.334 . S
C649 N650 1.336 1_455 S
N650 Zn646 2.020 . S
N650 C649 1.336 1_655 S
N650 N651 1.354 . S
N651 C647 1.336 . S
N651 N650 1.354 . S
N651 Zn655 2.020 . S
C652 O653 1.244 . S
C652 O676 1.257 . S
O653 C652 1.244 . S
O654 Zn646 2.019 . S
O654 C674 1.257 . S
Zn655 N651 2.020 . S
Zn655 O662 1.975 . S
Zn655 N671 2.119 . S
Zn655 O676 2.019 . S
N656 Zn646 2.119 . S
N656 C658 1.334 . S
N656 C659 1.328 . S
C657 C658 1.391 . S
C657 N660 1.329 . S
C657 H678 0.930 . S
C658 N656 1.334 . S
C658 C657 1.391 . S
C658 H665 0.930 . S
C659 N656 1.328 . S
C659 C661 1.392 . S
C659 H666 0.930 . S
N660 C657 1.329 . S
N660 C661 1.331 . S
C661 C659 1.392 . S
C661 N660 1.331 . S
O662 Zn655 1.975 . S
O662 C663 1.252 . S
C663 O662 1.252 . S
C663 O664 1.252 . S
O664 Zn646 1.975 . S
O664 C663 1.252 . S
H665 C658 0.930 . S
H666 C659 0.930 . S
C667 C668 1.392 . S
C667 N671 1.328 . S
C667 H673 0.930 . S
C668 C667 1.392 . S
C668 N672 1.331 . S
C669 C670 1.391 . S
C669 N672 1.329 . S
C669 H679 0.930 . S
C670 C669 1.391 . S
C670 N671 1.334 . S
C670 H677 0.930 . S
N671 Zn655 2.119 . S
N671 C667 1.328 . S
N671 C670 1.334 . S
N672 C668 1.331 . S
N672 C669 1.329 . S
H673 C667 0.930 . S
C674 O654 1.257 . S
C674 O675 1.244 . S
O675 C674 1.244 . S
O676 C652 1.257 . S
O676 Zn655 2.019 . S
H677 C670 0.930 . S
H678 C657 0.930 . S
H679 C669 0.930 . S
Zn680 N684 2.020 . S
Zn680 O688 2.019 1_655 S
Zn680 N690 2.119 . S
Zn680 O698 1.975 . S
C681 N682 1.334 . S
C681 N685 1.336 . S
N682 C681 1.334 . S
N682 C683 1.334 . S
C683 N682 1.334 . S
C683 N684 1.336 . S
N684 Zn680 2.020 . S
N684 C683 1.336 . S
N684 N685 1.354 . S
N685 C681 1.336 . S
N685 N684 1.354 . S
N685 Zn689 2.020 . S
C686 O687 1.244 . S
C686 O710 1.257 . S
O687 C686 1.244 . S
O688 Zn680 2.019 1_455 S
O688 C708 1.257 . S
Zn689 N685 2.020 . S
Zn689 O696 1.975 . S
Zn689 N705 2.119 . S
Zn689 O710 2.019 . S
N690 Zn680 2.119 . S
N690 C692 1.334 . S
N690 C693 1.328 . S
C691 C692 1.391 . S
C691 N694 1.329 . S
C691 H712 0.930 . S
C692 N690 1.334 . S
C692 C691 1.391 . S
C692 H699 0.930 . S
C693 N690 1.328 . S
C693 C695 1.392 . S
C693 H700 0.930 1_655 S
N694 C691 1.329 . S
N694 C695 1.331 . S
C695 C693 1.392 . S
C695 N694 1.331 . S
O696 Zn689 1.975 . S
O696 C697 1.252 . S
C697 O696 1.252 . S
C697 O698 1.252 . S
O698 Zn680 1.975 . S
O698 C697 1.252 . S
H699 C692 0.930 . S
H700 C693 0.930 1_455 S
C701 C702 1.392 . S
C701 N705 1.328 . S
C701 H707 0.930 . S
C702 C701 1.392 . S
C702 N706 1.331 . S
C703 C704 1.391 . S
C703 N706 1.329 . S
C703 H713 0.930 . S
C704 C703 1.391 . S
C704 N705 1.334 . S
C704 H711 0.930 . S
N705 Zn689 2.119 . S
N705 C701 1.328 . S
N705 C704 1.334 . S
N706 C702 1.331 . S
N706 C703 1.329 . S
H707 C701 0.930 . S
C708 O688 1.257 . S
C708 O709 1.244 . S
O709 C708 1.244 . S
O710 C686 1.257 . S
O710 Zn689 2.019 . S
H711 C704 0.930 . S
H712 C691 0.930 . S
H713 C703 0.930 . S
Zn714 N718 2.020 . S
Zn714 O722 2.019 . S
Zn714 N724 2.119 . S
Zn714 O732 1.975 . S
C715 N716 1.334 . S
C715 N719 1.336 1_455 S
N716 C715 1.334 . S
N716 C717 1.334 1_455 S
C717 N716 1.334 1_655 S
C717 N718 1.336 . S
N718 Zn714 2.020 . S
N718 C717 1.336 . S
N718 N719 1.354 . S
N719 C715 1.336 1_655 S
N719 N718 1.354 . S
N719 Zn723 2.020 . S
C720 O721 1.244 . S
C720 O744 1.257 . S
O721 C720 1.244 . S
O722 Zn714 2.019 . S
O722 C742 1.257 . S
Zn723 N719 2.020 . S
Zn723 O730 1.975 . S
Zn723 N739 2.119 . S
Zn723 O744 2.019 . S
N724 Zn714 2.119 . S
N724 C726 1.334 . S
N724 C727 1.328 . S
C725 C726 1.391 . S
C725 N728 1.329 . S
C725 H746 0.930 . S
C726 N724 1.334 . S
C726 C725 1.391 . S
C726 H733 0.930 . S
C727 N724 1.328 . S
C727 C729 1.392 . S
C727 H734 0.930 . S
N728 C725 1.329 . S
N728 C729 1.331 . S
C729 C727 1.392 . S
C729 N728 1.331 . S
O730 Zn723 1.975 . S
O730 C731 1.252 . S
C731 O730 1.252 . S
C731 O732 1.252 . S
O732 Zn714 1.975 . S
O732 C731 1.252 . S
H733 C726 0.930 . S
H734 C727 0.930 . S
C735 C736 1.392 . S
C735 N739 1.328 . S
C735 H741 0.930 . S
C736 C735 1.392 . S
C736 N740 1.331 . S
C737 C738 1.391 . S
C737 N740 1.329 . S
C737 H747 0.930 . S
C738 C737 1.391 . S
C738 N739 1.334 . S
C738 H745 0.930 . S
N739 Zn723 2.119 . S
N739 C735 1.328 . S
N739 C738 1.334 . S
N740 C736 1.331 . S
N740 C737 1.329 . S
H741 C735 0.930 . S
C742 O722 1.257 . S
C742 O743 1.244 . S
O743 C742 1.244 . S
O744 C720 1.257 . S
O744 Zn723 2.019 . S
H745 C738 0.930 . S
H746 C725 0.930 . S
H747 C737 0.930 . S
Zn748 N752 2.020 . S
Zn748 O756 2.019 . S
Zn748 N758 2.119 . S
Zn748 O766 1.975 . S
C749 N750 1.334 . S
C749 N753 1.336 . S
N750 C749 1.334 . S
N750 C751 1.334 . S
C751 N750 1.334 . S
C751 N752 1.336 . S
N752 Zn748 2.020 . S
N752 C751 1.336 . S
N752 N753 1.354 . S
N753 C749 1.336 . S
N753 N752 1.354 . S
N753 Zn757 2.020 . S
C754 O755 1.244 . S
C754 O778 1.257 . S
O755 C754 1.244 . S
O756 Zn748 2.019 . S
O756 C776 1.257 . S
Zn757 N753 2.020 . S
Zn757 O764 1.975 . S
Zn757 N773 2.119 . S
Zn757 O778 2.019 . S
N758 Zn748 2.119 . S
N758 C760 1.334 . S
N758 C761 1.328 . S
C759 C760 1.391 . S
C759 N762 1.329 . S
C759 H780 0.930 . S
C760 N758 1.334 . S
C760 C759 1.391 . S
C760 H767 0.930 . S
C761 N758 1.328 . S
C761 C763 1.392 . S
C761 H768 0.930 . S
N762 C759 1.329 . S
N762 C763 1.331 . S
C763 C761 1.392 . S
C763 N762 1.331 . S
O764 Zn757 1.975 . S
O764 C765 1.252 . S
C765 O764 1.252 . S
C765 O766 1.252 . S
O766 Zn748 1.975 . S
O766 C765 1.252 . S
H767 C760 0.930 . S
H768 C761 0.930 . S
C769 C770 1.392 . S
C769 N773 1.328 . S
C769 H775 0.930 . S
C770 C769 1.392 . S
C770 N774 1.331 . S
C771 C772 1.391 . S
C771 N774 1.329 . S
C771 H781 0.930 . S
C772 C771 1.391 . S
C772 N773 1.334 . S
C772 H779 0.930 . S
N773 Zn757 2.119 . S
N773 C769 1.328 . S
N773 C772 1.334 . S
N774 C770 1.331 . S
N774 C771 1.329 . S
H775 C769 0.930 . S
C776 O756 1.257 . S
C776 O777 1.244 . S
O777 C776 1.244 . S
O778 C754 1.257 . S
O778 Zn757 2.019 . S
H779 C772 0.930 . S
H780 C759 0.930 . S
H781 C771 0.930 . S
Zn782 N786 2.020 . S
Zn782 O790 2.019 . S
Zn782 N792 2.119 . S
Zn782 O800 1.975 . S
C783 N784 1.334 . S
C783 N787 1.336 . S
N784 C783 1.334 . S
N784 C785 1.334 . S
C785 N784 1.334 . S
C785 N786 1.336 . S
N786 Zn782 2.020 . S
N786 C785 1.336 . S
N786 N787 1.354 . S
N787 C783 1.336 . S
N787 N786 1.354 . S
N787 Zn791 2.020 . S
C788 O789 1.244 . S
C788 O812 1.257 . S
O789 C788 1.244 . S
O790 Zn782 2.019 . S
O790 C810 1.257 . S
Zn791 N787 2.020 . S
Zn791 O798 1.975 . S
Zn791 N807 2.119 . S
Zn791 O812 2.019 . S
N792 Zn782 2.119 . S
N792 C794 1.334 . S
N792 C795 1.328 . S
C793 C794 1.391 . S
C793 N796 1.329 . S
C793 H814 0.930 . S
C794 N792 1.334 . S
C794 C793 1.391 . S
C794 H801 0.930 . S
C795 N792 1.328 . S
C795 C797 1.392 . S
C795 H802 0.930 . S
N796 C793 1.329 . S
N796 C797 1.331 . S
C797 C795 1.392 . S
C797 N796 1.331 . S
O798 Zn791 1.975 . S
O798 C799 1.252 . S
C799 O798 1.252 . S
C799 O800 1.252 . S
O800 Zn782 1.975 . S
O800 C799 1.252 . S
H801 C794 0.930 . S
H802 C795 0.930 . S
C803 C804 1.392 . S
C803 N807 1.328 . S
C803 H809 0.930 . S
C804 C803 1.392 . S
C804 N808 1.331 . S
C805 C806 1.391 . S
C805 N808 1.329 . S
C805 H815 0.930 . S
C806 C805 1.391 . S
C806 N807 1.334 . S
C806 H813 0.930 . S
N807 Zn791 2.119 . S
N807 C803 1.328 . S
N807 C806 1.334 . S
N808 C804 1.331 . S
N808 C805 1.329 . S
H809 C803 0.930 . S
C810 O790 1.257 . S
C810 O811 1.244 . S
O811 C810 1.244 . S
O812 C788 1.257 . S
O812 Zn791 2.019 . S
H813 C806 0.930 . S
H814 C793 0.930 . S
H815 C805 0.930 . S
Zn816 N820 2.020 . S
Zn816 O824 2.019 1_455 S
Zn816 N826 2.119 . S
Zn816 O834 1.975 . S
C817 N818 1.334 . S
C817 N821 1.336 . S
N818 C817 1.334 . S
N818 C819 1.334 . S
C819 N818 1.334 . S
C819 N820 1.336 . S
N820 Zn816 2.020 . S
N820 C819 1.336 . S
N820 N821 1.354 . S
N821 C817 1.336 . S
N821 N820 1.354 . S
N821 Zn825 2.020 . S
C822 O823 1.244 . S
C822 O846 1.257 . S
O823 C822 1.244 . S
O824 Zn816 2.019 1_655 S
O824 C844 1.257 . S
Zn825 N821 2.020 . S
Zn825 O832 1.975 . S
Zn825 N841 2.119 . S
Zn825 O846 2.019 . S
N826 Zn816 2.119 . S
N826 C828 1.334 . S
N826 C829 1.328 . S
C827 C828 1.391 . S
C827 N830 1.329 . S
C827 H848 0.930 . S
C828 N826 1.334 . S
C828 C827 1.391 . S
C828 H835 0.930 . S
C829 N826 1.328 . S
C829 C831 1.392 . S
C829 H836 0.930 1_455 S
N830 C827 1.329 . S
N830 C831 1.331 . S
C831 C829 1.392 . S
C831 N830 1.331 . S
O832 Zn825 1.975 . S
O832 C833 1.252 . S
C833 O832 1.252 . S
C833 O834 1.252 . S
O834 Zn816 1.975 . S
O834 C833 1.252 . S
H835 C828 0.930 . S
H836 C829 0.930 1_655 S
C837 C838 1.392 . S
C837 N841 1.328 . S
C837 H843 0.930 . S
C838 C837 1.392 . S
C838 N842 1.331 . S
C839 C840 1.391 . S
C839 N842 1.329 . S
C839 H849 0.930 . S
C840 C839 1.391 . S
C840 N841 1.334 . S
C840 H847 0.930 . S
N841 Zn825 2.119 . S
N841 C837 1.328 . S
N841 C840 1.334 . S
N842 C838 1.331 . S
N842 C839 1.329 . S
H843 C837 0.930 . S
C844 O824 1.257 . S
C844 O845 1.244 . S
O845 C844 1.244 . S
O846 C822 1.257 . S
O846 Zn825 2.019 . S
H847 C840 0.930 . S
H848 C827 0.930 . S
H849 C839 0.930 . S
Zn850 N854 2.020 . S
Zn850 O858 2.019 . S
Zn850 N860 2.119 . S
Zn850 O868 1.975 . S
C851 N852 1.334 . S
C851 N855 1.336 . S
N852 C851 1.334 . S
N852 C853 1.334 . S
C853 N852 1.334 . S
C853 N854 1.336 . S
N854 Zn850 2.020 . S
N854 C853 1.336 . S
N854 N855 1.354 . S
N855 C851 1.336 . S
N855 N854 1.354 . S
N855 Zn859 2.020 . S
C856 O857 1.244 . S
C856 O880 1.257 . S
O857 C856 1.244 . S
O858 Zn850 2.019 . S
O858 C878 1.257 . S
Zn859 N855 2.020 . S
Zn859 O866 1.975 . S
Zn859 N875 2.119 . S
Zn859 O880 2.019 . S
N860 Zn850 2.119 . S
N860 C862 1.334 . S
N860 C863 1.328 . S
C861 C862 1.391 . S
C861 N864 1.329 . S
C861 H882 0.930 . S
C862 N860 1.334 . S
C862 C861 1.391 . S
C862 H869 0.930 . S
C863 N860 1.328 . S
C863 C865 1.392 . S
C863 H870 0.930 . S
N864 C861 1.329 . S
N864 C865 1.331 . S
C865 C863 1.392 . S
C865 N864 1.331 . S
O866 Zn859 1.975 . S
O866 C867 1.252 . S
C867 O866 1.252 . S
C867 O868 1.252 . S
O868 Zn850 1.975 . S
O868 C867 1.252 . S
H869 C862 0.930 . S
H870 C863 0.930 . S
C871 C872 1.392 . S
C871 N875 1.328 . S
C871 H877 0.930 . S
C872 C871 1.392 . S
C872 N876 1.331 . S
C873 C874 1.391 . S
C873 N876 1.329 . S
C873 H883 0.930 . S
C874 C873 1.391 . S
C874 N875 1.334 . S
C874 H881 0.930 . S
N875 Zn859 2.119 . S
N875 C871 1.328 . S
N875 C874 1.334 . S
N876 C872 1.331 . S
N876 C873 1.329 . S
H877 C871 0.930 . S
C878 O858 1.257 . S
C878 O879 1.244 . S
O879 C878 1.244 . S
O880 C856 1.257 . S
O880 Zn859 2.019 . S
H881 C874 0.930 . S
H882 C861 0.930 . S
H883 C873 0.930 . S
Zn884 N888 2.020 . S
Zn884 O892 2.019 . S
Zn884 N894 2.119 . S
Zn884 O902 1.975 . S
C885 N886 1.334 . S
C885 N889 1.336 . S
N886 C885 1.334 . S
N886 C887 1.334 . S
C887 N886 1.334 . S
C887 N888 1.336 . S
N888 Zn884 2.020 . S
N888 C887 1.336 . S
N888 N889 1.354 . S
N889 C885 1.336 . S
N889 N888 1.354 . S
N889 Zn893 2.020 . S
C890 O891 1.244 . S
C890 O914 1.257 . S
O891 C890 1.244 . S
O892 Zn884 2.019 . S
O892 C912 1.257 . S
Zn893 N889 2.020 . S
Zn893 O900 1.975 . S
Zn893 N909 2.119 . S
Zn893 O914 2.019 . S
N894 Zn884 2.119 . S
N894 C896 1.334 . S
N894 C897 1.328 . S
C895 C896 1.391 . S
C895 N898 1.329 . S
C895 H916 0.930 . S
C896 N894 1.334 . S
C896 C895 1.391 . S
C896 H903 0.930 . S
C897 N894 1.328 . S
C897 C899 1.392 . S
C897 H904 0.930 . S
N898 C895 1.329 . S
N898 C899 1.331 . S
C899 C897 1.392 . S
C899 N898 1.331 . S
O900 Zn893 1.975 . S
O900 C901 1.252 . S
C901 O900 1.252 . S
C901 O902 1.252 . S
O902 Zn884 1.975 . S
O902 C901 1.252 . S
H903 C896 0.930 . S
H904 C897 0.930 . S
C905 C906 1.392 . S
C905 N909 1.328 . S
C905 H911 0.930 . S
C906 C905 1.392 . S
C906 N910 1.331 . S
C907 C908 1.391 . S
C907 N910 1.329 . S
C907 H917 0.930 . S
C908 C907 1.391 . S
C908 N909 1.334 . S
C908 H915 0.930 . S
N909 Zn893 2.119 . S
N909 C905 1.328 . S
N909 C908 1.334 . S
N910 C906 1.331 . S
N910 C907 1.329 . S
H911 C905 0.930 . S
C912 O892 1.257 . S
C912 O913 1.244 . S
O913 C912 1.244 . S
O914 C890 1.257 . S
O914 Zn893 2.019 . S
H915 C908 0.930 . S
H916 C895 0.930 . S
H917 C907 0.930 . S
Zn918 N922 2.020 . S
Zn918 O926 2.019 . S
Zn918 N928 2.119 . S
Zn918 O936 1.975 . S
C919 N920 1.334 1_455 S
C919 N923 1.336 . S
N920 C919 1.334 1_655 S
N920 C921 1.334 . S
C921 N920 1.334 . S
C921 N922 1.336 1_655 S
N922 Zn918 2.020 . S
N922 C921 1.336 1_455 S
N922 N923 1.354 . S
N923 C919 1.336 . S
N923 N922 1.354 . S
N923 Zn927 2.020 . S
C924 O925 1.244 . S
C924 O948 1.257 . S
O925 C924 1.244 . S
O926 Zn918 2.019 . S
O926 C946 1.257 . S
Zn927 N923 2.020 . S
Zn927 O934 1.975 . S
Zn927 N943 2.119 . S
Zn927 O948 2.019 . S
N928 Zn918 2.119 . S
N928 C930 1.334 . S
N928 C931 1.328 . S
C929 C930 1.391 . S
C929 N932 1.329 . S
C929 H950 0.930 . S
C930 N928 1.334 . S
C930 C929 1.391 . S
C930 H937 0.930 . S
C931 N928 1.328 . S
C931 C933 1.392 . S
C931 H938 0.930 . S
N932 C929 1.329 . S
N932 C933 1.331 . S
C933 C931 1.392 . S
C933 N932 1.331 . S
O934 Zn927 1.975 . S
O934 C935 1.252 . S
C935 O934 1.252 . S
C935 O936 1.252 . S
O936 Zn918 1.975 . S
O936 C935 1.252 . S
H937 C930 0.930 . S
H938 C931 0.930 . S
C939 C940 1.392 . S
C939 N943 1.328 . S
C939 H945 0.930 . S
C940 C939 1.392 . S
C940 N944 1.331 . S
C941 C942 1.391 . S
C941 N944 1.329 . S
C941 H951 0.930 . S
C942 C941 1.391 . S
C942 N943 1.334 . S
C942 H949 0.930 . S
N943 Zn927 2.119 . S
N943 C939 1.328 . S
N943 C942 1.334 . S
N944 C940 1.331 . S
N944 C941 1.329 . S
H945 C939 0.930 . S
C946 O926 1.257 . S
C946 O947 1.244 . S
O947 C946 1.244 . S
O948 C924 1.257 . S
O948 Zn927 2.019 . S
H949 C942 0.930 . S
H950 C929 0.930 . S
H951 C941 0.930 . S
Zn952 N956 2.020 . S
Zn952 O960 2.019 . S
Zn952 N962 2.119 . S
Zn952 O970 1.975 . S
C953 N954 1.334 . S
C953 N957 1.336 . S
N954 C953 1.334 . S
N954 C955 1.334 . S
C955 N954 1.334 . S
C955 N956 1.336 . S
N956 Zn952 2.020 . S
N956 C955 1.336 . S
N956 N957 1.354 . S
N957 C953 1.336 . S
N957 N956 1.354 . S
N957 Zn961 2.020 . S
C958 O959 1.244 . S
C958 O982 1.257 . S
O959 C958 1.244 . S
O960 Zn952 2.019 . S
O960 C980 1.257 . S
Zn961 N957 2.020 . S
Zn961 O968 1.975 . S
Zn961 N977 2.119 . S
Zn961 O982 2.019 1_455 S
N962 Zn952 2.119 . S
N962 C964 1.334 . S
N962 C965 1.328 . S
C963 C964 1.391 . S
C963 N966 1.329 . S
C963 H984 0.930 . S
C964 N962 1.334 . S
C964 C963 1.391 . S
C964 H971 0.930 . S
C965 N962 1.328 . S
C965 C967 1.392 . S
C965 H972 0.930 . S
N966 C963 1.329 . S
N966 C967 1.331 . S
C967 C965 1.392 . S
C967 N966 1.331 . S
O968 Zn961 1.975 . S
O968 C969 1.252 . S
C969 O968 1.252 . S
C969 O970 1.252 . S
O970 Zn952 1.975 . S
O970 C969 1.252 . S
H971 C964 0.930 . S
H972 C965 0.930 . S
C973 C974 1.392 . S
C973 N977 1.328 . S
C973 H979 0.930 1_455 S
C974 C973 1.392 . S
C974 N978 1.331 . S
C975 C976 1.391 . S
C975 N978 1.329 . S
C975 H985 0.930 . S
C976 C975 1.391 . S
C976 N977 1.334 . S
C976 H983 0.930 . S
N977 Zn961 2.119 . S
N977 C973 1.328 . S
N977 C976 1.334 . S
N978 C974 1.331 . S
N978 C975 1.329 . S
H979 C973 0.930 1_655 S
C980 O960 1.257 . S
C980 O981 1.244 . S
O981 C980 1.244 . S
O982 C958 1.257 . S
O982 Zn961 2.019 1_655 S
H983 C976 0.930 . S
H984 C963 0.930 . S
H985 C975 0.930 . S
Zn986 N990 2.020 . S
Zn986 O994 2.019 . S
Zn986 N996 2.119 . S
Zn986 O1004 1.975 . S
C987 N988 1.334 . S
C987 N991 1.336 1_655 S
N988 C987 1.334 . S
N988 C989 1.334 1_655 S
C989 N988 1.334 1_455 S
C989 N990 1.336 . S
N990 Zn986 2.020 . S
N990 C989 1.336 . S
N990 N991 1.354 . S
N991 C987 1.336 1_455 S
N991 N990 1.354 . S
N991 Zn995 2.020 . S
C992 O993 1.244 . S
C992 O1016 1.257 . S
O993 C992 1.244 . S
O994 Zn986 2.019 . S
O994 C1014 1.257 . S
Zn995 N991 2.020 . S
Zn995 O1002 1.975 . S
Zn995 N1011 2.119 . S
Zn995 O1016 2.019 . S
N996 Zn986 2.119 . S
N996 C998 1.334 . S
N996 C999 1.328 . S
C997 C998 1.391 . S
C997 N1000 1.329 . S
C997 H1018 0.930 . S
C998 N996 1.334 . S
C998 C997 1.391 . S
C998 H1005 0.930 . S
C999 N996 1.328 . S
C999 C1001 1.392 . S
C999 H1006 0.930 . S
N1000 C997 1.329 . S
N1000 C1001 1.331 . S
C1001 C999 1.392 . S
C1001 N1000 1.331 . S
O1002 Zn995 1.975 . S
O1002 C1003 1.252 . S
C1003 O1002 1.252 . S
C1003 O1004 1.252 . S
O1004 Zn986 1.975 . S
O1004 C1003 1.252 . S
H1005 C998 0.930 . S
H1006 C999 0.930 . S
C1007 C1008 1.392 . S
C1007 N1011 1.328 . S
C1007 H1013 0.930 . S
C1008 C1007 1.392 . S
C1008 N1012 1.331 . S
C1009 C1010 1.391 . S
C1009 N1012 1.329 . S
C1009 H1019 0.930 . S
C1010 C1009 1.391 . S
C1010 N1011 1.334 . S
C1010 H1017 0.930 . S
N1011 Zn995 2.119 . S
N1011 C1007 1.328 . S
N1011 C1010 1.334 . S
N1012 C1008 1.331 . S
N1012 C1009 1.329 . S
H1013 C1007 0.930 . S
C1014 O994 1.257 . S
C1014 O1015 1.244 . S
O1015 C1014 1.244 . S
O1016 C992 1.257 . S
O1016 Zn995 2.019 . S
H1017 C1010 0.930 . S
H1018 C997 0.930 . S
H1019 C1009 0.930 . S
Zn1020 N1024 2.020 . S
Zn1020 O1028 2.019 . S
Zn1020 N1030 2.119 . S
Zn1020 O1038 1.975 . S
C1021 N1022 1.334 . S
C1021 N1025 1.336 . S
N1022 C1021 1.334 . S
N1022 C1023 1.334 . S
C1023 N1022 1.334 . S
C1023 N1024 1.336 . S
N1024 Zn1020 2.020 . S
N1024 C1023 1.336 . S
N1024 N1025 1.354 . S
N1025 C1021 1.336 . S
N1025 N1024 1.354 . S
N1025 Zn1029 2.020 . S
C1026 O1027 1.244 . S
C1026 O1050 1.257 . S
O1027 C1026 1.244 . S
O1028 Zn1020 2.019 . S
O1028 C1048 1.257 . S
Zn1029 N1025 2.020 . S
Zn1029 O1036 1.975 . S
Zn1029 N1045 2.119 . S
Zn1029 O1050 2.019 . S
N1030 Zn1020 2.119 . S
N1030 C1032 1.334 . S
N1030 C1033 1.328 . S
C1031 C1032 1.391 . S
C1031 N1034 1.329 . S
C1031 H1052 0.930 . S
C1032 N1030 1.334 . S
C1032 C1031 1.391 . S
C1032 H1039 0.930 . S
C1033 N1030 1.328 . S
C1033 C1035 1.392 . S
C1033 H1040 0.930 . S
N1034 C1031 1.329 . S
N1034 C1035 1.331 . S
C1035 C1033 1.392 . S
C1035 N1034 1.331 . S
O1036 Zn1029 1.975 . S
O1036 C1037 1.252 . S
C1037 O1036 1.252 . S
C1037 O1038 1.252 . S
O1038 Zn1020 1.975 . S
O1038 C1037 1.252 . S
H1039 C1032 0.930 . S
H1040 C1033 0.930 . S
C1041 C1042 1.392 . S
C1041 N1045 1.328 . S
C1041 H1047 0.930 . S
C1042 C1041 1.392 . S
C1042 N1046 1.331 . S
C1043 C1044 1.391 . S
C1043 N1046 1.329 . S
C1043 H1053 0.930 . S
C1044 C1043 1.391 . S
C1044 N1045 1.334 . S
C1044 H1051 0.930 . S
N1045 Zn1029 2.119 . S
N1045 C1041 1.328 . S
N1045 C1044 1.334 . S
N1046 C1042 1.331 . S
N1046 C1043 1.329 . S
H1047 C1041 0.930 . S
C1048 O1028 1.257 . S
C1048 O1049 1.244 . S
O1049 C1048 1.244 . S
O1050 C1026 1.257 . S
O1050 Zn1029 2.019 . S
H1051 C1044 0.930 . S
H1052 C1031 0.930 . S
H1053 C1043 0.930 . S
Zn1054 N1058 2.020 . S
Zn1054 O1062 2.019 . S
Zn1054 N1064 2.119 . S
Zn1054 O1072 1.975 . S
C1055 N1056 1.334 . S
C1055 N1059 1.336 . S
N1056 C1055 1.334 . S
N1056 C1057 1.334 . S
C1057 N1056 1.334 . S
C1057 N1058 1.336 . S
N1058 Zn1054 2.020 . S
N1058 C1057 1.336 . S
N1058 N1059 1.354 . S
N1059 C1055 1.336 . S
N1059 N1058 1.354 . S
N1059 Zn1063 2.020 . S
C1060 O1061 1.244 . S
C1060 O1084 1.257 . S
O1061 C1060 1.244 . S
O1062 Zn1054 2.019 . S
O1062 C1082 1.257 . S
Zn1063 N1059 2.020 . S
Zn1063 O1070 1.975 . S
Zn1063 N1079 2.119 . S
Zn1063 O1084 2.019 . S
N1064 Zn1054 2.119 . S
N1064 C1066 1.334 . S
N1064 C1067 1.328 . S
C1065 C1066 1.391 . S
C1065 N1068 1.329 . S
C1065 H1086 0.930 . S
C1066 N1064 1.334 . S
C1066 C1065 1.391 . S
C1066 H1073 0.930 . S
C1067 N1064 1.328 . S
C1067 C1069 1.392 . S
C1067 H1074 0.930 . S
N1068 C1065 1.329 . S
N1068 C1069 1.331 . S
C1069 C1067 1.392 . S
C1069 N1068 1.331 . S
O1070 Zn1063 1.975 . S
O1070 C1071 1.252 . S
C1071 O1070 1.252 . S
C1071 O1072 1.252 . S
O1072 Zn1054 1.975 . S
O1072 C1071 1.252 . S
H1073 C1066 0.930 . S
H1074 C1067 0.930 . S
C1075 C1076 1.392 . S
C1075 N1079 1.328 . S
C1075 H1081 0.930 . S
C1076 C1075 1.392 . S
C1076 N1080 1.331 . S
C1077 C1078 1.391 . S
C1077 N1080 1.329 . S
C1077 H1087 0.930 . S
C1078 C1077 1.391 . S
C1078 N1079 1.334 . S
C1078 H1085 0.930 . S
N1079 Zn1063 2.119 . S
N1079 C1075 1.328 . S
N1079 C1078 1.334 . S
N1080 C1076 1.331 . S
N1080 C1077 1.329 . S
H1081 C1075 0.930 . S
C1082 O1062 1.257 . S
C1082 O1083 1.244 . S
O1083 C1082 1.244 . S
O1084 C1060 1.257 . S
O1084 Zn1063 2.019 . S
H1085 C1078 0.930 . S
H1086 C1065 0.930 . S
H1087 C1077 0.930 . S
C482 C6 1.842 1_565 S
C1060 C40 1.842 . S
C436 C74 1.842 1_545 S
C992 C130 1.842 . S
C346 C164 1.842 1_545 S
C198 C946 1.842 . S
C232 C300 1.842 1_545 S
C266 C856 1.842 . S
C210 C278 1.842 1_545 S
C788 C334 1.842 . S
C142 C368 1.842 1_565 S
C380 C720 1.842 . S
C414 C96 1.842 1_545 S
C674 C470 1.842 . S
C28 C504 1.842 1_545 S
C538 C606 1.842 . S
C550 C1026 1.842 . S
C516 C584 1.842 . S
C640 C980 1.842 . S
C448 C652 1.842 . S
C890 C708 1.842 . S
C742 C402 1.842 . S
C776 C822 1.842 . S
C810 C312 1.842 . S
C844 C754 1.842 . S
C244 C878 1.842 . S
C912 C686 1.842 . S
C176 C924 1.842 . S
C958 C618 1.842 . S
C108 C1014 1.842 . S
C1048 C572 1.842 . S
C1082 C62 1.842 . S
C955 C17 3.140 . S
C51 C443 3.140 1_545 S
C1021 C85 3.139 . S
C511 C119 3.140 1_545 S
C817 C153 3.140 . S
C187 C307 3.139 1_545 S
C885 C221 3.140 . S
C377 C255 3.140 1_545 S
C681 C289 3.140 . S
C171 C323 3.140 1_545 S
C357 C749 3.139 . S
C391 C239 3.140 1_545 S
C547 C425 3.140 . S
C459 C37 3.139 1_565 S
C493 C613 3.140 . S
C103 C527 3.140 1_565 S
C561 C411 3.140 . S
C987 C595 3.140 . S
C629 C477 3.139 . S
C663 C1055 3.140 . S
C697 C275 3.140 . S
C851 C731 3.139 . S
C341 C765 3.140 . S
C921 C799 3.140 . S
C833 C137 3.140 . S
C715 C867 3.140 . S
C205 C901 3.139 . S
C783 C935 3.140 . S
C3 C969 3.140 . S
C581 C1003 3.139 . S
C1037 C71 3.140 . S
C1071 C649 3.140 . S
C151 C22 1.833 1_565 S
C56 C185 1.834 . S
C219 C90 1.834 1_545 S
C117 C253 1.834 1_556 S
C294 C430 1.833 1_565 S
C321 C457 1.834 . S
C355 C491 1.834 1_545 S
C525 C396 1.833 1_556 S
C695 C566 1.834 . S
C729 C600 1.834 1_554 S
C627 C763 1.834 . S
C668 C797 1.833 . S
C831 C974 1.834 . S
C1001 C865 1.834 1_556 S
C1035 C899 1.834 . S
C1069 C940 1.834 . S
C1 C615 2.485 . S
C647 C35 2.485 1_655 S
C69 C545 2.485 1_455 S
C105 C579 2.485 . S
C139 C751 2.485 . S
C173 C785 2.485 . S
C683 C207 2.485 1_655 S
C717 C241 2.485 1_655 S
C273 C887 2.485 . S
C309 C919 2.485 1_655 S
C819 C343 2.485 1_455 S
C375 C853 2.485 . S
C409 C1023 2.485 . S
C445 C1057 2.485 . S
C479 C953 2.485 1_655 S
C989 C513 2.485 1_455 S
C260 C15 1.586 . S
C49 C158 1.586 . S
C83 C192 1.586 . S
C124 C226 1.586 . S
C532 C287 1.586 . S
C328 C423 1.586 . S
C464 C362 1.586 . S
C389 C498 1.586 . S
C559 C804 1.586 . S
C593 C702 1.586 . S
C634 C736 1.586 . S
C661 C770 1.586 . S
C1076 C838 1.586 . S
C872 C967 1.586 . S
C906 C1008 1.586 . S
C933 C1042 1.586 . S
