# Generated by pormake.
# Topology bto, (3)-cn, num edge types: 1
# Building blocks:
#     Node 0, Type 0, BuildingBlock: WUSLED_clean_sbu_0, # of connection points: 3
#     Node 1, Type 0, BuildingBlock: WUSLED_clean_sbu_0, # of connection points: 3
#     Node 2, Type 0, BuildingBlock: WUSLED_clean_sbu_0, # of connection points: 3
#     Node 3, Type 0, BuildingBlock: WUSLED_clean_sbu_0, # of connection points: 3
#     Node 4, Type 0, BuildingBlock: WUSLED_clean_sbu_0, # of connection points: 3
#     Node 5, Type 0, BuildingBlock: WUSLED_clean_sbu_0, # of connection points: 3
#     Edge 6, Type (0, 0), BuildingBlock: TEMPAE_clean_linker_10, # of connection points: 2
#     Edge 7, Type (0, 0), BuildingBlock: TEMPAE_clean_linker_10, # of connection points: 2
#     Edge 8, Type (0, 0), BuildingBlock: TEMPAE_clean_linker_10, # of connection points: 2
#     Edge 9, Type (0, 0), BuildingBlock: TEMPAE_clean_linker_10, # of connection points: 2
#     Edge 10, Type (0, 0), BuildingBlock: TEMPAE_clean_linker_10, # of connection points: 2
#     Edge 11, Type (0, 0), BuildingBlock: TEMPAE_clean_linker_10, # of connection points: 2
#     Edge 12, Type (0, 0), BuildingBlock: TEMPAE_clean_linker_10, # of connection points: 2
#     Edge 13, Type (0, 0), BuildingBlock: TEMPAE_clean_linker_10, # of connection points: 2
#     Edge 14, Type (0, 0), BuildingBlock: TEMPAE_clean_linker_10, # of connection points: 2
# Relax obj value: 0.000
# Max RMSD: 0.003
# Mean RMSD: 0.003
data_MOF--net-bto--node1-WUSLED_clean_sbu_0--edge1-TEMPAE_clean_linker_10
_symmetry_space_group_name_H-M    P1
_symmetry_Int_Tables_number       1
_symmetry_cell_setting            triclinic
loop_
_symmetry_equiv_pos_as_xyz
'x, y, z'
_cell_length_a     40.838396
_cell_length_b     40.816485
_cell_length_c     102.25278
_cell_angle_alpha  88.823018
_cell_angle_beta   90.686827
_cell_angle_gamma 119.94618
loop_
_atom_site_label
_atom_site_type_symbol
_atom_site_fract_x
_atom_site_fract_y
_atom_site_fract_z
_atom_type_partial_charge
C0 C 0.98286 0.53215 0.04625 0.0
C1 C 0.95126 0.51903 0.05445 0.0
C2 C 0.91692 0.53211 0.0373 0.0
C3 C 0.91856 0.51891 0.05 0.0
C4 C 0.94886 0.54548 0.0292 0.0
C5 C 0.98141 0.54545 0.03363 0.0
U6 U 0.04948 0.52956 0.07274 0.0
O7 O 0.08104 0.49888 0.07316 0.0
O8 O 0.11183 0.56091 0.0735 0.0
C9 C 0.11416 0.53003 0.0727 0.0
C10 C 1.0174 0.53188 0.05053 0.0
C11 C 0.14206 0.53124 0.06328 0.0
C12 C 0.15837 0.50837 0.04395 0.0
C13 C 0.13108 0.50839 0.05216 0.0
C14 C 0.20798 0.55466 0.05766 0.0
C15 C 0.19721 0.53133 0.04665 0.0
C16 C 0.18073 0.55452 0.06587 0.0
C17 C 1.02209 0.52527 0.10919 0.0
C18 C 0.06252 0.53693 0.12827 0.0
C19 C 0.99515 0.51074 0.13105 0.0
C20 C 0.99077 0.51166 0.11749 0.0
C21 C 0.03107 0.52344 0.13665 0.0
C22 C 0.05805 0.53776 0.11465 0.0
C23 C 1.01629 0.52691 0.09496 0.0
O24 O 0.04287 0.5623 0.05654 0.0
O25 O 1.01237 0.50035 0.05607 0.0
O26 O 1.00893 0.49663 0.08839 0.0
O27 O 0.03975 0.55863 0.08884 0.0
H28 H 0.95186 0.50882 0.06426 0.0
H29 H 0.89469 0.50883 0.05656 0.0
H30 H 0.9485 0.5554 1.01932 0.0
H31 H 1.00545 0.55563 0.02714 0.0
H32 H 0.14906 0.49041 0.03548 0.0
H33 H 0.10144 0.49023 0.04988 0.0
H34 H 0.23755 0.57236 0.06013 0.0
H35 H 0.18991 0.57222 0.07442 0.0
H36 H 0.09052 0.54657 0.13223 0.0
H37 H 0.9704 0.50072 0.13717 0.0
H38 H 0.96281 0.50206 0.11348 0.0
H39 H 0.08263 0.54829 0.1084 0.0
C40 C 0.62177 0.10619 0.3805 0.0
C41 C 0.63944 0.13887 0.38811 0.0
C42 C 0.68814 0.17125 0.37142 0.0
C43 C 0.67224 0.17113 0.3836 0.0
C44 C 0.67049 0.13822 0.36394 0.0
C45 C 0.63768 0.10612 0.36843 0.0
U46 U 0.55247 0.03881 0.40678 0.0
O47 O 0.49013 1.00946 0.40707 0.0
O48 O 0.51939 0.97666 0.40723 0.0
C49 C 0.48677 0.97576 0.40653 0.0
C50 C 0.58642 0.07219 0.38473 0.0
C51 C 0.45869 0.94913 0.39714 0.0
C52 C 0.44206 0.91187 0.37732 0.0
C53 C 0.46944 0.9392 0.38553 0.0
C54 C 0.39282 0.9047 0.39203 0.0
C55 C 0.40337 0.89406 0.38052 0.0
C56 C 0.42017 0.93185 0.40024 0.0
C57 C 0.57776 0.06073 0.44347 0.0
C58 C 0.53821 0.04637 0.46281 0.0
C59 C 0.60283 0.05998 0.46513 0.0
C60 C 0.6075 0.06482 0.45156 0.0
C61 C 0.56827 0.05112 0.47098 0.0
C62 C 0.54288 0.05111 0.4492 0.0
C63 C 0.58469 0.06844 0.42925 0.0
O64 O 0.59024 0.0452 0.39048 0.0
O65 O 0.56117 0.07813 0.39041 0.0
O66 O 0.56271 0.07813 0.42277 0.0
O67 O 0.59179 0.04516 0.4228 0.0
H68 H 0.6278 0.13953 0.3975 0.0
H69 H 0.68532 0.19588 0.38968 0.0
H70 H 0.68162 0.13739 0.35447 0.0
H71 H 0.62446 0.08125 0.36238 0.0
H72 H 0.45117 0.90474 0.36845 0.0
H73 H 0.49899 0.95221 0.38288 0.0
H74 H 0.36342 0.89132 0.3949 0.0
H75 H 0.41121 0.9389 0.40917 0.0
H76 H 0.5113 0.03984 0.46695 0.0
H77 H 0.62639 0.06313 0.47103 0.0
H78 H 0.63463 0.07218 0.44738 0.0
H79 H 0.5194 0.04776 0.4432 0.0
C80 C 0.54188 0.59614 0.71338 0.0
C81 C 0.55347 0.62707 0.72166 0.0
C82 C 0.54183 0.66216 0.70432 0.0
C83 C 0.55355 0.65982 0.71716 0.0
C84 C 0.53004 0.6309 0.69613 0.0
C85 C 0.5301 0.5983 0.70062 0.0
U86 U 0.54455 0.52955 0.74008 0.0
O87 O 0.51306 0.46718 0.74125 0.0
O88 O 0.57503 0.49779 0.74044 0.0
C89 C 0.54384 0.46469 0.7404 0.0
C90 C 0.54207 0.56153 0.71776 0.0
C91 C 0.54245 0.43642 0.73124 0.0
C92 C 0.55995 0.41934 0.71084 0.0
C93 C 0.55981 0.44672 0.7189 0.0
C94 C 0.5247 0.37102 0.72723 0.0
C95 C 0.54274 0.38115 0.71497 0.0
C96 C 0.52463 0.39834 0.73526 0.0
C97 C 0.54943 0.55655 0.77642 0.0
C98 C 0.53516 0.51522 0.79558 0.0
C99 C 0.56716 0.58311 0.79816 0.0
C100 C 0.56602 0.58792 0.78461 0.0
C101 C 0.55163 0.54671 0.80385 0.0
C102 C 0.53417 0.5201 0.78198 0.0
C103 C 0.54766 0.56281 0.76221 0.0
O104 O 0.57362 0.56652 0.72313 0.0
O105 O 0.51172 0.53615 0.72401 0.0
O106 O 0.51585 0.53963 0.75627 0.0
O107 O 0.57779 0.57017 0.75543 0.0
H108 H 0.5625 0.6259 0.73158 0.0
H109 H 0.56239 0.68315 0.72378 0.0
H110 H 0.5213 0.63182 0.68615 0.0
H111 H 0.52112 0.57477 0.69407 0.0
H112 H 0.57435 0.42827 0.70152 0.0
H113 H 0.57375 0.47595 0.71557 0.0
H114 H 0.51055 0.34188 0.73065 0.0
H115 H 0.51098 0.38974 0.74472 0.0
H116 H 0.52333 0.48683 0.79962 0.0
H117 H 0.5796 0.60796 0.80421 0.0
H118 H 0.57782 0.61627 0.78052 0.0
H119 H 0.52135 0.49545 0.77583 0.0
C120 C 0.54681 0.96578 0.66047 0.0
C121 C 0.53925 0.93651 0.65184 0.0
C122 C 0.54553 0.89923 0.66971 0.0
C123 C 0.5386 0.90353 0.65641 0.0
C124 C 0.55338 0.92892 0.67825 0.0
C125 C 0.55398 0.96177 0.67367 0.0
U126 U 0.54693 0.0334 0.63359 0.0
O127 O 0.51711 0.0658 0.63287 0.0
O128 O 0.57911 0.09578 0.63267 0.0
C129 C 0.54852 0.09867 0.63329 0.0
C130 C 0.54726 1.00062 0.656 0.0
C131 C 0.54959 0.12655 0.64258 0.0
C132 C 0.52862 0.14264 0.66243 0.0
C133 C 0.52868 0.11546 0.65425 0.0
C134 C 0.571 0.19233 0.64754 0.0
C135 C 0.54963 0.18144 0.65913 0.0
C136 C 0.5709 0.16519 0.63936 0.0
C137 C 0.5451 1.00707 0.59729 0.0
C138 C 0.55792 0.04858 0.57827 0.0
C139 C 0.53485 0.98184 0.57535 0.0
C140 C 0.53381 0.97649 0.58892 0.0
C141 C 0.54729 0.018 0.56981 0.0
C142 C 0.55687 0.04316 0.5919 0.0
C143 C 0.54533 1.00051 0.61154 0.0
O144 O 0.57819 0.02594 0.65001 0.0
O145 O 0.51625 0.99598 0.65028 0.0
O146 O 0.51472 0.99353 0.61793 0.0
O147 O 0.57669 0.02333 0.61777 0.0
H148 H 0.53365 0.93908 0.6416 0.0
H149 H 0.5321 0.88117 0.64957 0.0
H150 H 0.55948 0.92698 0.68848 0.0
H151 H 0.56007 0.98414 0.68048 0.0
H152 H 0.51223 0.13327 0.67136 0.0
H153 H 0.51211 0.08583 0.657 0.0
H154 H 0.58714 0.22184 0.6446 0.0
H155 H 0.5871 0.1744 0.63038 0.0
H156 H 0.56791 0.07685 0.57436 0.0
H157 H 0.5258 0.95754 0.56917 0.0
H158 H 0.52449 0.94838 0.59289 0.0
H159 H 0.56569 0.06717 0.5982 0.0
C160 C 0.61382 0.52561 0.99331 0.0
C161 C 0.64398 0.53474 0.98478 0.0
C162 C 0.68016 0.52708 1.00263 0.0
C163 C 0.67685 0.53549 0.9894 0.0
C164 C 0.64957 0.51762 1.01106 0.0
C165 C 0.61683 0.51693 1.00644 0.0
U166 U 0.54706 0.52531 0.96633 0.0
O167 O 0.48475 0.49329 0.96549 0.0
O168 O 0.51489 0.55534 0.96527 0.0
C169 C 0.48196 0.52398 0.9658 0.0
C170 C 0.57913 0.52517 0.9888 0.0
C171 C 0.45368 0.52315 0.97492 0.0
C172 C 0.43661 0.54315 0.99477 0.0
C173 C 0.46409 0.54272 0.98677 0.0
C174 C 0.38797 0.50379 0.97934 0.0
C175 C 0.39818 0.52399 0.99109 0.0
C176 C 0.4154 0.50346 0.97136 0.0
C177 C 0.57429 0.52653 0.93013 0.0
C178 C 0.53716 0.5263 0.91128 0.0
C179 C 0.59631 0.52729 0.90808 0.0
C180 C 0.60124 0.52714 0.92164 0.0
C181 C 0.56419 0.5268 0.9027 0.0
C182 C 0.54215 0.52611 0.92489 0.0
C183 C 0.58055 0.52637 0.94436 0.0
O184 O 0.58395 0.55615 0.98286 0.0
O185 O 0.5539 0.49417 0.98302 0.0
O186 O 0.55736 0.4951 0.95075 0.0
O187 O 0.58743 0.55709 0.95054 0.0
H188 H 0.6422 0.5415 0.97459 0.0
H189 H 0.69991 0.54325 0.98264 0.0
H190 H 0.65074 0.51035 0.02123 0.0
H191 H 0.59378 0.50961 1.01317 0.0
H192 H 0.4456 0.55924 1.00368 0.0
H193 H 0.49346 0.55814 0.98974 0.0
H194 H 0.35868 0.48812 0.97629 0.0
H195 H 0.4067 0.48807 0.96229 0.0
H196 H 0.51195 0.52559 0.90749 0.0
H197 H 0.61802 0.52835 0.90181 0.0
H198 H 0.62631 0.52761 0.9255 0.0
H199 H 0.52097 0.52558 0.93131 0.0
C200 C 0.98621 0.47061 0.3266 0.0
C201 C 0.96614 0.43931 0.3185 0.0
C202 C 0.92069 0.40523 0.336 0.0
C203 C 0.9337 0.40692 0.32315 0.0
C204 C 0.94075 0.43699 0.34397 0.0
C205 C 0.97312 0.46925 0.33932 0.0
U206 U 0.05489 0.53626 0.29988 0.0
O207 O 0.08706 0.59844 0.29876 0.0
O208 O 0.11722 0.56653 0.29969 0.0
C209 C 0.11997 0.60002 0.29963 0.0
C210 C 1.02109 0.50468 0.32214 0.0
C211 C 0.14793 0.62795 0.30872 0.0
C212 C 0.16475 0.66343 0.32895 0.0
C213 C 0.13757 0.63522 0.32092 0.0
C214 C 0.21293 0.67685 0.31281 0.0
C215 C 0.20276 0.6849 0.32493 0.0
C216 C 0.18583 0.64877 0.30482 0.0
C217 C 0.03157 0.51032 0.26337 0.0
C218 C 0.04389 0.54856 0.24345 0.0
C219 C 0.03286 0.48469 0.24219 0.0
C220 C 0.02852 0.48063 0.25579 0.0
C221 C 0.04015 0.51855 0.23581 0.0
C222 C 0.03974 0.54455 0.25708 0.0
C223 C 1.02384 0.50389 0.2776 0.0
O224 O 0.04684 0.49885 0.31681 0.0
O225 O 1.01649 0.53052 0.31586 0.0
O226 O 1.01569 0.52713 0.2836 0.0
O227 O 0.04609 0.49546 0.2845 0.0
H228 H 0.97575 0.43979 0.30863 0.0
H229 H 0.91924 0.38294 0.31677 0.0
H230 H 0.93129 0.43707 0.35381 0.0
H231 H 0.98809 0.49317 0.3457 0.0
H232 H 0.15581 0.66899 0.33816 0.0
H233 H 0.10846 0.61947 0.32414 0.0
H234 H 0.24196 0.69221 0.30949 0.0
H235 H 0.19447 0.64354 0.29548 0.0
H236 H 0.04992 0.57516 0.23887 0.0
H237 H 0.02935 0.46085 0.23662 0.0
H238 H 1.02198 0.45388 0.26038 0.0
H239 H 0.04239 0.56804 0.26265 0.0
C240 C 0.06536 0.55362 0.15755 0.0
C241 C 0.03542 0.52296 0.15118 0.0
C242 C 0.06849 0.55425 0.17129 0.0
C243 C 0.04104 0.5235 0.17887 0.0
C244 C 1.01119 0.49219 0.17248 0.0
C245 C 1.00878 0.49228 0.15876 0.0
C246 C 0.10076 0.58816 0.1777 0.0
C247 C 0.98142 0.45872 0.18016 0.0
C248 C 0.0616 0.50747 0.21418 0.0
C249 C 0.04238 0.52185 0.22123 0.0
C250 C 0.06216 0.5086 0.20042 0.0
C251 C 0.04286 0.52431 0.19349 0.0
C252 C 1.02398 0.53948 0.20055 0.0
C253 C 1.02403 0.53814 0.21431 0.0
C254 C 0.0829 0.49241 0.19329 0.0
C255 C 1.00286 0.55629 0.19356 0.0
H256 H 0.08586 0.57763 0.15182 0.0
H257 H 0.98591 0.46818 0.15394 0.0
H258 H 0.08951 0.60239 0.18385 0.0
H259 H 0.11667 0.57906 0.18426 0.0
H260 H 0.12065 0.60902 0.17044 0.0
H261 H 0.96044 0.43627 0.17372 0.0
H262 H 0.99491 0.44638 0.18648 0.0
H263 H 0.96622 0.46806 0.18667 0.0
H264 H 0.07626 0.49527 0.21944 0.0
H265 H 1.0087 0.54889 0.21964 0.0
H266 H 0.1038 0.51391 0.18644 0.0
H267 H 0.06264 0.46808 0.18736 0.0
H268 H 0.09788 0.48272 0.20009 0.0
H269 H 1.02192 0.57896 0.18664 0.0
H270 H 0.99093 0.5683 0.20045 0.0
H271 H 0.97939 0.53422 0.18774 0.0
C272 C 0.53848 0.04747 0.5491 0.0
C273 C 0.54976 0.02366 0.55529 0.0
C274 C 0.54045 0.0526 0.53541 0.0
C275 C 0.55413 0.03356 0.52769 0.0
C276 C 0.56564 1.00959 0.53388 0.0
C277 C 0.56335 1.00497 0.54756 0.0
C278 C 0.52781 0.07833 0.52921 0.0
C279 C 0.58063 0.98894 0.52605 0.0
C280 C 0.53046 0.01886 0.4913 0.0
C281 C 0.56397 0.04728 0.48553 0.0
C282 C 0.5266 1.0145 0.50499 0.0
C283 C 0.55699 0.03903 0.51315 0.0
C284 C 0.59066 0.06807 0.5074 0.0
C285 C 0.59368 0.07191 0.49371 0.0
C286 C 0.49021 0.98318 0.51071 0.0
C287 C 0.62373 0.09488 0.51572 0.0
H288 H 0.52756 0.06172 0.55495 0.0
H289 H 0.57274 0.98701 0.55223 0.0
H290 H 0.55148 0.10149 0.52364 0.0
H291 H 0.50463 0.06231 0.52214 0.0
H292 H 0.51777 0.09099 0.53655 0.0
H293 H 0.58797 0.97096 0.53231 0.0
H294 H 0.55929 0.97076 0.51874 0.0
H295 H 0.60623 1.00959 0.52058 0.0
H296 H 0.50746 0.99943 0.48512 0.0
H297 H 0.61942 0.09443 0.48939 0.0
H298 H 0.47834 0.99493 0.51771 0.0
H299 H 0.49584 0.96285 0.51626 0.0
H300 H 0.46866 0.96755 0.50308 0.0
H301 H 0.61477 0.10958 0.5226 0.0
H302 H 0.64763 0.11647 0.50976 0.0
H303 H 0.63395 0.07878 0.5217 0.0
C304 C 0.54623 0.54986 0.88227 0.0
C305 C 0.5594 0.52725 0.88819 0.0
C306 C 0.54349 0.55194 0.86857 0.0
C307 C 0.55417 0.53093 0.86055 0.0
C308 C 0.56673 0.50747 0.86647 0.0
C309 C 0.56913 0.50587 0.88017 0.0
C310 C 0.52995 0.5773 0.86268 0.0
C311 C 0.57824 0.48448 0.8583 0.0
C312 C 0.52067 0.51379 0.82505 0.0
C313 C 0.55246 0.54188 0.81835 0.0
C314 C 0.52077 0.50986 0.83876 0.0
C315 C 0.55349 0.53451 0.84598 0.0
C316 C 0.58578 0.56267 0.83926 0.0
C317 C 0.58486 0.56601 0.82557 0.0
C318 C 0.48573 0.47956 0.84553 0.0
C319 C 0.62136 0.58935 0.84655 0.0
H320 H 0.53901 0.56678 0.88834 0.0
H321 H 0.5787 0.4878 0.88463 0.0
H322 H 0.55286 0.60014 0.85675 0.0
H323 H 0.50577 0.56097 0.856 0.0
H324 H 0.52106 0.59042 0.87024 0.0
H325 H 0.58631 0.46676 0.8644 0.0
H326 H 0.55472 0.46578 0.85173 0.0
H327 H 0.60257 0.5036 0.85201 0.0
H328 H 0.49535 0.4953 0.81958 0.0
H329 H 0.60974 0.58744 0.82049 0.0
H330 H 0.47518 0.49268 0.85248 0.0
H331 H 0.49254 0.46043 0.85131 0.0
H332 H 0.46275 0.46239 0.83851 0.0
H333 H 0.61512 0.60556 0.85371 0.0
H334 H 0.64405 0.60967 0.8399 0.0
H335 H 0.63205 0.57304 0.85216 0.0
C336 C 0.22155 0.49597 0.03377 0.0
C337 C 0.22642 0.53045 0.03823 0.0
C338 C 0.24934 0.49464 0.02616 0.0
C339 C 0.28288 0.5286 0.02285 0.0
C340 C 0.28786 0.56351 0.02724 0.0
C341 C 0.25967 0.56401 0.03487 0.0
C342 C 0.24292 0.45681 0.02174 0.0
C343 C 0.32301 0.6004 0.02386 0.0
C344 C 0.36995 0.52321 1.01301 0.0
C345 C 0.36885 0.52546 0.9993 0.0
C346 C 0.34227 0.52426 0.02078 0.0
C347 C 0.31264 0.52763 1.01474 0.0
C348 C 0.31144 0.53006 1.00092 0.0
C349 C 0.3395 0.52901 0.9934 0.0
C350 C 0.3446 0.52155 0.03547 0.0
C351 C 0.28049 0.53381 0.99407 0.0
H352 H 0.19625 0.46985 0.03646 0.0
H353 H 0.26353 0.59082 0.03812 0.0
H354 H 0.2439 0.45649 1.01091 0.0
H355 H 0.26579 0.45204 0.02554 0.0
H356 H 0.21533 0.433 0.0251 0.0
H357 H 0.32262 0.62514 0.02801 0.0
H358 H 0.34838 0.59992 0.0276 0.0
H359 H 0.32597 0.60423 1.01308 0.0
H360 H 0.39218 0.52003 1.01768 0.0
H361 H 0.33866 0.53145 0.98284 0.0
H362 H 0.31867 0.49645 0.03925 0.0
H363 H 0.34625 0.5468 0.04 0.0
H364 H 0.36953 0.51933 0.03868 0.0
H365 H 0.25251 0.50937 0.99669 0.0
H366 H 0.28347 0.53529 0.98326 0.0
H367 H 0.28074 0.55969 0.99734 0.0
C368 C 0.75145 0.20257 0.36021 0.0
C369 C 0.72269 0.20571 0.36644 0.0
C370 C 0.78375 0.23464 0.35521 0.0
C371 C 0.78753 0.27089 0.35641 0.0
C372 C 0.75869 0.27429 0.36273 0.0
C373 C 0.72672 0.24174 0.36768 0.0
C374 C 0.8139 0.22972 0.34864 0.0
C375 C 0.76148 0.31234 0.36419 0.0
C376 C 0.88596 0.35775 0.35406 0.0
C377 C 0.8866 0.37053 0.34115 0.0
C378 C 0.854 0.32549 0.35914 0.0
C379 C 0.82172 0.30524 0.35113 0.0
C380 C 0.82218 0.31781 0.33807 0.0
C381 C 0.85453 0.35023 0.33325 0.0
C382 C 0.85483 0.31304 0.37309 0.0
C383 C 0.78838 0.29711 0.3292 0.0
H384 H 0.74888 0.17496 0.35934 0.0
H385 H 0.70449 0.24445 0.37231 0.0
H386 H 0.81797 0.24074 0.33842 0.0
H387 H 0.84126 0.24631 0.3538 0.0
H388 H 0.80676 0.19966 0.34848 0.0
H389 H 0.73673 0.31025 0.36937 0.0
H390 H 0.78748 0.33153 0.36969 0.0
H391 H 0.76363 0.32553 0.35441 0.0
H392 H 0.91073 0.37277 0.3602 0.0
H393 H 0.85446 0.36003 0.32332 0.0
H394 H 0.85021 0.28385 0.3733 0.0
H395 H 0.83157 0.31258 0.37874 0.0
H396 H 0.88203 0.33191 0.37806 0.0
H397 H 0.78143 0.26729 0.32823 0.0
H398 H 0.79325 0.31031 0.31928 0.0
H399 H 0.76336 0.29664 0.33353 0.0
C400 C 0.52824 0.84815 0.6869 0.0
C401 C 0.54452 0.86403 0.6747 0.0
C402 C 0.5276 0.81543 0.69186 0.0
C403 C 0.54352 0.79791 0.68446 0.0
C404 C 0.55981 0.81362 0.67211 0.0
C405 C 0.56011 0.84641 0.66739 0.0
C406 C 0.50982 0.79958 0.70504 0.0
C407 C 0.57712 0.79587 0.6639 0.0
C408 C 0.57236 0.73306 0.70226 0.0
C409 C 0.54204 0.69702 0.69941 0.0
C410 C 0.57324 0.76606 0.69745 0.0
C411 C 0.54303 0.76309 0.68962 0.0
C412 C 0.51225 0.72683 0.68678 0.0
C413 C 0.51214 0.69433 0.69169 0.0
C414 C 0.60665 0.80413 0.70069 0.0
C415 C 0.47936 0.72235 0.67855 0.0
H416 H 0.51557 0.8611 0.69256 0.0
H417 H 0.57318 0.85864 0.65804 0.0
H418 H 0.48622 0.77014 0.704 0.0
H419 H 0.53088 0.79862 0.71175 0.0
H420 H 0.49877 0.81659 0.7096 0.0
H421 H 0.58845 0.81136 0.65449 0.0
H422 H 0.60043 0.79528 0.66939 0.0
H423 H 0.5557 0.76615 0.66178 0.0
H424 H 0.59582 0.73549 0.70807 0.0
H425 H 0.48834 0.66668 0.68958 0.0
H426 H 0.59696 0.82138 0.70586 0.0
H427 H 0.62068 0.81968 0.69154 0.0
H428 H 0.62781 0.80166 0.70692 0.0
H429 H 0.46588 0.73698 0.6832 0.0
H430 H 0.45761 0.69221 0.67721 0.0
H431 H 0.48951 0.73577 0.66878 0.0
C432 C 0.8847 0.56233 0.02504 0.0
C433 C 0.88207 0.53173 0.03243 0.0
C434 C 0.85223 0.56207 1.02014 0.0
C435 C 0.81608 0.5304 0.02266 0.0
C436 C 0.81318 0.49949 0.03016 0.0
C437 C 0.84613 0.50054 0.03497 0.0
C438 C 0.85663 0.59573 1.01227 0.0
C439 C 0.77523 0.46513 0.03305 0.0
C440 C 0.72983 0.54313 1.02004 0.0
C441 C 0.71527 0.52826 1.00767 0.0
C442 C 0.76249 0.54396 0.02502 0.0
C443 C 0.78131 0.52969 1.01747 0.0
C444 C 0.76693 0.51483 1.00496 0.0
C445 C 0.73416 0.51428 1.00022 0.0
C446 C 0.77688 0.56018 0.03838 0.0
C447 C 0.78609 0.4993 0.99659 0.0
H448 H 0.91225 0.58678 0.02317 0.0
H449 H 0.84378 0.47656 0.04052 0.0
H450 H 0.84422 0.58667 1.00238 0.0
H451 H 0.84102 0.60799 1.01704 0.0
H452 H 0.88668 0.61816 1.01118 0.0
H453 H 0.77773 0.44352 0.03907 0.0
H454 H 0.75705 0.47358 0.0383 0.0
H455 H 0.76067 0.45206 0.02376 0.0
H456 H 0.7159 0.55457 0.0258 0.0
H457 H 0.72297 0.5023 0.99073 0.0
H458 H 0.80615 0.58437 0.03761 0.0
H459 H 0.77784 0.53856 0.04488 0.0
H460 H 0.75896 0.57001 0.04305 0.0
H461 H 0.81579 0.52149 0.9947 0.0
H462 H 0.77155 0.48895 0.98705 0.0
H463 H 0.78683 0.47561 1.00184 0.0
C464 C 0.38026 0.83599 0.36679 0.0
C465 C 0.3741 0.86394 0.37208 0.0
C466 C 0.35245 0.80676 0.35919 0.0
C467 C 0.31755 0.80537 0.35675 0.0
C468 C 0.31125 0.83363 0.36197 0.0
C469 C 0.33951 0.86247 0.36956 0.0
C470 C 0.36033 0.77719 0.35384 0.0
C471 C 0.2746 0.83341 0.35954 0.0
C472 C 0.25916 0.75009 0.32737 0.0
C473 C 0.23174 0.71592 0.33318 0.0
C474 C 0.2871 0.77934 0.3349 0.0
C475 C 0.28777 0.77455 0.34864 0.0
C476 C 0.26003 0.7403 0.3546 0.0
C477 C 0.23239 0.71146 0.34682 0.0
C478 C 0.31597 0.81541 0.32814 0.0
C479 C 0.25973 0.734 0.36921 0.0
H480 H 0.40663 0.83651 0.36882 0.0
H481 H 0.33461 0.88416 0.37345 0.0
H482 H 0.33895 0.74876 0.35754 0.0
H483 H 0.35803 0.7768 0.34302 0.0
H484 H 0.38888 0.78227 0.35659 0.0
H485 H 0.27403 0.85734 0.36431 0.0
H486 H 0.27014 0.83502 0.34888 0.0
H487 H 0.25054 0.80653 0.36329 0.0
H488 H 0.25859 0.75417 0.31688 0.0
H489 H 0.21166 0.68509 0.3514 0.0
H490 H 0.34483 0.8203 0.33011 0.0
H491 H 0.31465 0.83985 0.33208 0.0
H492 H 0.31157 0.81476 0.31739 0.0
H493 H 0.28676 0.73601 0.37235 0.0
H494 H 0.23608 0.70598 0.37236 0.0
H495 H 0.25729 0.75635 0.37435 0.0
C496 C 0.58201 0.2448 0.67004 0.0
C497 C 0.54881 0.2105 0.66758 0.0
C498 C 0.58152 0.27282 0.67768 0.0
C499 C 0.54696 0.26658 0.68301 0.0
C500 C 0.51337 0.23198 0.68062 0.0
C501 C 0.5147 0.20439 0.67297 0.0
C502 C 0.61803 0.30914 0.68006 0.0
C503 C 0.47591 0.22419 0.68607 0.0
C504 C 0.55013 0.32392 0.71246 0.0
C505 C 0.54407 0.35201 0.7067 0.0
C506 C 0.55111 0.29604 0.70489 0.0
C507 C 0.54602 0.29613 0.69117 0.0
C508 C 0.54008 0.32447 0.68526 0.0
C509 C 0.53919 0.35202 0.69308 0.0
C510 C 0.55767 0.26649 0.71159 0.0
C511 C 0.53448 0.32559 0.67068 0.0
H512 H 0.60858 0.24963 0.66607 0.0
H513 H 0.48882 0.17825 0.67099 0.0
H514 H 0.6156 0.33359 0.67637 0.0
H515 H 0.62378 0.31297 0.69071 0.0
H516 H 0.64251 0.30968 0.67522 0.0
H517 H 0.45237 0.1959 0.68334 0.0
H518 H 0.47751 0.22587 0.69689 0.0
H519 H 0.46926 0.24601 0.68243 0.0
H520 H 0.5546 0.32396 0.72293 0.0
H521 H 0.53407 0.37327 0.68853 0.0
H522 H 0.58344 0.26776 0.70761 0.0
H523 H 0.53362 0.23785 0.70962 0.0
H524 H 0.56101 0.27023 0.72235 0.0
H525 H 0.55932 0.32812 0.66545 0.0
H526 H 0.53039 0.34955 0.66757 0.0
H527 H 0.50947 0.2988 0.66758 0.0
loop_
_geom_bond_atom_site_label_1
_geom_bond_atom_site_label_2
_geom_bond_distance
_geom_bond_site_symmetry_2
_ccdc_geom_bond_type
C0 C1 1.264 . S
C0 C5 1.479 . S
C0 C10 1.465 . S
C1 C0 1.264 . S
C1 C3 1.339 . S
C1 H28 0.931 . S
C2 C3 1.395 . S
C2 C4 1.320 . S
C3 C1 1.339 . S
C3 C2 1.395 . S
C3 H29 0.929 . S
C4 C2 1.320 . S
C4 C5 1.405 . S
C4 H30 0.930 . S
C5 C0 1.479 . S
C5 C4 1.405 . S
C5 H31 0.931 . S
U6 O7 2.454 . S
U6 O8 2.458 . S
U6 C9 2.984 . S
U6 C10 2.847 1_455 S
U6 C23 2.882 . S
U6 O24 2.441 1_455 S
U6 O25 2.420 1_455 S
U6 O26 2.455 . S
U6 O27 2.449 1_455 S
O7 U6 2.454 . S
O7 C9 1.353 . S
O8 U6 2.458 . S
O8 C9 1.286 . S
C9 U6 2.984 . S
C9 O7 1.353 . S
C9 O8 1.286 . S
C9 C11 1.363 . S
C10 C0 1.465 . S
C10 U6 2.847 1_655 S
C10 O24 1.249 . S
C10 O25 1.202 . S
C11 C9 1.363 . S
C11 C13 1.408 . S
C11 C16 1.342 . S
C12 C13 1.310 . S
C12 C15 1.461 . S
C12 H32 0.932 . S
C13 C11 1.408 . S
C13 C12 1.310 . S
C13 H33 0.930 . S
C14 C15 1.474 . S
C14 C16 1.285 . S
C14 H34 0.929 . S
C15 C12 1.461 . S
C15 C14 1.474 . S
C16 C11 1.342 . S
C16 C14 1.285 . S
C16 H35 0.930 . S
C17 C20 1.424 1_455 S
C17 C22 1.245 . S
C17 C23 1.428 . S
C18 C21 1.260 . S
C18 C22 1.477 . S
C18 H36 0.932 . S
C19 C20 1.384 . S
C19 C21 1.479 1_655 S
C19 H37 0.929 . S
C20 C17 1.424 1_655 S
C20 C19 1.384 . S
C20 H38 0.928 . S
C21 C18 1.260 . S
C21 C19 1.479 1_455 S
C22 C17 1.245 . S
C22 C18 1.477 . S
C22 H39 0.932 . S
C23 U6 2.882 . S
C23 C17 1.428 . S
C23 O26 1.301 . S
C23 O27 1.282 1_455 S
O24 U6 2.441 1_655 S
O24 C10 1.249 . S
O25 U6 2.420 1_655 S
O25 C10 1.202 . S
O26 U6 2.455 . S
O26 C23 1.301 . S
O27 U6 2.449 1_655 S
O27 C23 1.282 1_655 S
H28 C1 0.931 . S
H29 C3 0.929 . S
H30 C4 0.930 . S
H31 C5 0.931 . S
H32 C12 0.932 . S
H33 C13 0.930 . S
H34 C14 0.929 . S
H35 C16 0.930 . S
H36 C18 0.932 . S
H37 C19 0.929 . S
H38 C20 0.928 . S
H39 C22 0.932 . S
C40 C41 1.264 . S
C40 C45 1.479 . S
C40 C50 1.465 . S
C41 C40 1.264 . S
C41 C43 1.339 . S
C41 H68 0.931 . S
C42 C43 1.395 . S
C42 C44 1.320 . S
C43 C41 1.339 . S
C43 C42 1.395 . S
C43 H69 0.929 . S
C44 C42 1.320 . S
C44 C45 1.405 . S
C44 H70 0.930 . S
C45 C40 1.479 . S
C45 C44 1.405 . S
C45 H71 0.931 . S
U46 O47 2.454 1_545 S
U46 O48 2.458 1_545 S
U46 C49 2.984 1_545 S
U46 C50 2.847 . S
U46 C63 2.882 . S
U46 O64 2.441 . S
U46 O65 2.420 . S
U46 O66 2.455 . S
U46 O67 2.449 . S
O47 U46 2.454 1_565 S
O47 C49 1.353 . S
O48 U46 2.458 1_565 S
O48 C49 1.286 . S
C49 U46 2.984 1_565 S
C49 O47 1.353 . S
C49 O48 1.286 . S
C49 C51 1.363 . S
C50 C40 1.465 . S
C50 U46 2.847 . S
C50 O64 1.249 . S
C50 O65 1.202 . S
C51 C49 1.363 . S
C51 C53 1.408 . S
C51 C56 1.342 . S
C52 C53 1.310 . S
C52 C55 1.461 . S
C52 H72 0.932 . S
C53 C51 1.408 . S
C53 C52 1.310 . S
C53 H73 0.930 . S
C54 C55 1.474 . S
C54 C56 1.285 . S
C54 H74 0.929 . S
C55 C52 1.461 . S
C55 C54 1.474 . S
C56 C51 1.342 . S
C56 C54 1.285 . S
C56 H75 0.930 . S
C57 C60 1.424 . S
C57 C62 1.236 1_545 S
C57 C63 1.428 . S
C58 C61 1.269 . S
C58 C62 1.479 1_545 S
C58 H76 0.921 1_545 S
C59 C60 1.384 . S
C59 C61 1.479 . S
C59 H77 0.929 . S
C60 C57 1.424 . S
C60 C59 1.384 . S
C60 H78 0.928 . S
C61 C58 1.269 . S
C61 C59 1.479 . S
C62 C57 1.236 1_565 S
C62 C58 1.479 1_565 S
C62 H79 0.940 . S
C63 U46 2.882 . S
C63 C57 1.428 . S
C63 O66 1.301 . S
C63 O67 1.282 . S
O64 U46 2.441 . S
O64 C50 1.249 . S
O65 U46 2.420 . S
O65 C50 1.202 . S
O66 U46 2.455 . S
O66 C63 1.301 . S
O67 U46 2.449 . S
O67 C63 1.282 . S
H68 C41 0.931 . S
H69 C43 0.929 . S
H70 C44 0.930 . S
H71 C45 0.931 . S
H72 C52 0.932 . S
H73 C53 0.930 . S
H74 C54 0.929 . S
H75 C56 0.930 . S
H76 C58 0.921 1_565 S
H77 C59 0.929 . S
H78 C60 0.928 . S
H79 C62 0.940 . S
C80 C81 1.264 . S
C80 C85 1.479 . S
C80 C90 1.465 . S
C81 C80 1.264 . S
C81 C83 1.339 . S
C81 H108 0.931 . S
C82 C83 1.395 . S
C82 C84 1.320 . S
C83 C81 1.339 . S
C83 C82 1.395 . S
C83 H109 0.929 . S
C84 C82 1.320 . S
C84 C85 1.405 . S
C84 H110 0.930 . S
C85 C80 1.479 . S
C85 C84 1.405 . S
C85 H111 0.931 . S
U86 O87 2.454 . S
U86 O88 2.458 . S
U86 C89 2.984 . S
U86 C90 2.847 . S
U86 C103 2.882 . S
U86 O104 2.441 . S
U86 O105 2.420 . S
U86 O106 2.455 . S
U86 O107 2.449 . S
O87 U86 2.454 . S
O87 C89 1.353 . S
O88 U86 2.458 . S
O88 C89 1.286 . S
C89 U86 2.984 . S
C89 O87 1.353 . S
C89 O88 1.286 . S
C89 C91 1.363 . S
C90 C80 1.465 . S
C90 U86 2.847 . S
C90 O104 1.249 . S
C90 O105 1.202 . S
C91 C89 1.363 . S
C91 C93 1.408 . S
C91 C96 1.342 . S
C92 C93 1.310 . S
C92 C95 1.461 . S
C92 H112 0.932 . S
C93 C91 1.408 . S
C93 C92 1.310 . S
C93 H113 0.930 . S
C94 C95 1.474 . S
C94 C96 1.285 . S
C94 H114 0.929 . S
C95 C92 1.461 . S
C95 C94 1.474 . S
C96 C91 1.342 . S
C96 C94 1.285 . S
C96 H115 0.930 . S
C97 C100 1.424 . S
C97 C102 1.245 . S
C97 C103 1.428 . S
C98 C101 1.260 . S
C98 C102 1.477 . S
C98 H116 0.932 . S
C99 C100 1.384 . S
C99 C101 1.479 . S
C99 H117 0.929 . S
C100 C97 1.424 . S
C100 C99 1.384 . S
C100 H118 0.928 . S
C101 C98 1.260 . S
C101 C99 1.479 . S
C102 C97 1.245 . S
C102 C98 1.477 . S
C102 H119 0.932 . S
C103 U86 2.882 . S
C103 C97 1.428 . S
C103 O106 1.301 . S
C103 O107 1.282 . S
O104 U86 2.441 . S
O104 C90 1.249 . S
O105 U86 2.420 . S
O105 C90 1.202 . S
O106 U86 2.455 . S
O106 C103 1.301 . S
O107 U86 2.449 . S
O107 C103 1.282 . S
H108 C81 0.931 . S
H109 C83 0.929 . S
H110 C84 0.930 . S
H111 C85 0.931 . S
H112 C92 0.932 . S
H113 C93 0.930 . S
H114 C94 0.929 . S
H115 C96 0.930 . S
H116 C98 0.932 . S
H117 C99 0.929 . S
H118 C100 0.928 . S
H119 C102 0.932 . S
C120 C121 1.264 . S
C120 C125 1.479 . S
C120 C130 1.465 . S
C121 C120 1.264 . S
C121 C123 1.339 . S
C121 H148 0.931 . S
C122 C123 1.395 . S
C122 C124 1.320 . S
C123 C121 1.339 . S
C123 C122 1.395 . S
C123 H149 0.929 . S
C124 C122 1.320 . S
C124 C125 1.405 . S
C124 H150 0.930 . S
C125 C120 1.479 . S
C125 C124 1.405 . S
C125 H151 0.931 . S
U126 O127 2.454 . S
U126 O128 2.458 . S
U126 C129 2.984 . S
U126 C130 2.847 1_545 S
U126 C143 2.882 . S
U126 O144 2.441 1_545 S
U126 O145 2.420 1_545 S
U126 O146 2.455 . S
U126 O147 2.449 1_545 S
O127 U126 2.454 . S
O127 C129 1.353 . S
O128 U126 2.458 . S
O128 C129 1.286 . S
C129 U126 2.984 . S
C129 O127 1.353 . S
C129 O128 1.286 . S
C129 C131 1.363 . S
C130 C120 1.465 . S
C130 U126 2.847 1_565 S
C130 O144 1.249 . S
C130 O145 1.202 . S
C131 C129 1.363 . S
C131 C133 1.408 . S
C131 C136 1.342 . S
C132 C133 1.310 . S
C132 C135 1.461 . S
C132 H152 0.932 . S
C133 C131 1.408 . S
C133 C132 1.310 . S
C133 H153 0.930 . S
C134 C135 1.474 . S
C134 C136 1.285 . S
C134 H154 0.929 . S
C135 C132 1.461 . S
C135 C134 1.474 . S
C136 C131 1.342 . S
C136 C134 1.285 . S
C136 H155 0.930 . S
C137 C140 1.424 1_545 S
C137 C142 1.245 . S
C137 C143 1.428 . S
C138 C141 1.260 . S
C138 C142 1.477 . S
C138 H156 0.932 . S
C139 C140 1.384 . S
C139 C141 1.479 1_565 S
C139 H157 0.929 . S
C140 C137 1.424 1_565 S
C140 C139 1.384 . S
C140 H158 0.928 . S
C141 C138 1.260 . S
C141 C139 1.479 1_545 S
C142 C137 1.245 . S
C142 C138 1.477 . S
C142 H159 0.932 . S
C143 U126 2.882 . S
C143 C137 1.428 . S
C143 O146 1.301 . S
C143 O147 1.282 1_545 S
O144 U126 2.441 1_565 S
O144 C130 1.249 . S
O145 U126 2.420 1_565 S
O145 C130 1.202 . S
O146 U126 2.455 . S
O146 C143 1.301 . S
O147 U126 2.449 1_565 S
O147 C143 1.282 1_565 S
H148 C121 0.931 . S
H149 C123 0.929 . S
H150 C124 0.930 . S
H151 C125 0.931 . S
H152 C132 0.932 . S
H153 C133 0.930 . S
H154 C134 0.929 . S
H155 C136 0.930 . S
H156 C138 0.932 . S
H157 C139 0.929 . S
H158 C140 0.928 . S
H159 C142 0.932 . S
C160 C161 1.264 . S
C160 C165 1.479 . S
C160 C170 1.465 . S
C161 C160 1.264 . S
C161 C163 1.339 . S
C161 H188 0.931 . S
C162 C163 1.395 . S
C162 C164 1.320 . S
C163 C161 1.339 . S
C163 C162 1.395 . S
C163 H189 0.929 . S
C164 C162 1.320 . S
C164 C165 1.405 . S
C164 H190 0.930 . S
C165 C160 1.479 . S
C165 C164 1.405 . S
C165 H191 0.931 . S
U166 O167 2.454 . S
U166 O168 2.458 . S
U166 C169 2.984 . S
U166 C170 2.847 . S
U166 C183 2.882 . S
U166 O184 2.441 . S
U166 O185 2.420 . S
U166 O186 2.455 . S
U166 O187 2.449 . S
O167 U166 2.454 . S
O167 C169 1.353 . S
O168 U166 2.458 . S
O168 C169 1.286 . S
C169 U166 2.984 . S
C169 O167 1.353 . S
C169 O168 1.286 . S
C169 C171 1.363 . S
C170 C160 1.465 . S
C170 U166 2.847 . S
C170 O184 1.249 . S
C170 O185 1.202 . S
C171 C169 1.363 . S
C171 C173 1.408 . S
C171 C176 1.342 . S
C172 C173 1.310 . S
C172 C175 1.461 . S
C172 H192 0.932 . S
C173 C171 1.408 . S
C173 C172 1.310 . S
C173 H193 0.930 . S
C174 C175 1.474 . S
C174 C176 1.285 . S
C174 H194 0.929 . S
C175 C172 1.461 . S
C175 C174 1.474 . S
C176 C171 1.342 . S
C176 C174 1.285 . S
C176 H195 0.930 . S
C177 C180 1.424 . S
C177 C182 1.245 . S
C177 C183 1.428 . S
C178 C181 1.260 . S
C178 C182 1.477 . S
C178 H196 0.932 . S
C179 C180 1.384 . S
C179 C181 1.479 . S
C179 H197 0.929 . S
C180 C177 1.424 . S
C180 C179 1.384 . S
C180 H198 0.928 . S
C181 C178 1.260 . S
C181 C179 1.479 . S
C182 C177 1.245 . S
C182 C178 1.477 . S
C182 H199 0.932 . S
C183 U166 2.882 . S
C183 C177 1.428 . S
C183 O186 1.301 . S
C183 O187 1.282 . S
O184 U166 2.441 . S
O184 C170 1.249 . S
O185 U166 2.420 . S
O185 C170 1.202 . S
O186 U166 2.455 . S
O186 C183 1.301 . S
O187 U166 2.449 . S
O187 C183 1.282 . S
H188 C161 0.931 . S
H189 C163 0.929 . S
H190 C164 0.930 . S
H191 C165 0.931 . S
H192 C172 0.932 . S
H193 C173 0.930 . S
H194 C174 0.929 . S
H195 C176 0.930 . S
H196 C178 0.932 . S
H197 C179 0.929 . S
H198 C180 0.928 . S
H199 C182 0.932 . S
C200 C201 1.264 . S
C200 C205 1.479 . S
C200 C210 1.465 . S
C201 C200 1.264 . S
C201 C203 1.339 . S
C201 H228 0.931 . S
C202 C203 1.395 . S
C202 C204 1.320 . S
C203 C201 1.339 . S
C203 C202 1.395 . S
C203 H229 0.929 . S
C204 C202 1.320 . S
C204 C205 1.405 . S
C204 H230 0.930 . S
C205 C200 1.479 . S
C205 C204 1.405 . S
C205 H231 0.931 . S
U206 O207 2.454 . S
U206 O208 2.458 . S
U206 C209 2.984 . S
U206 C210 2.847 1_455 S
U206 C223 2.882 . S
U206 O224 2.441 1_455 S
U206 O225 2.420 1_455 S
U206 O226 2.455 . S
U206 O227 2.449 1_455 S
O207 U206 2.454 . S
O207 C209 1.353 . S
O208 U206 2.458 . S
O208 C209 1.286 . S
C209 U206 2.984 . S
C209 O207 1.353 . S
C209 O208 1.286 . S
C209 C211 1.363 . S
C210 C200 1.465 . S
C210 U206 2.847 1_655 S
C210 O224 1.249 . S
C210 O225 1.202 . S
C211 C209 1.363 . S
C211 C213 1.408 . S
C211 C216 1.342 . S
C212 C213 1.310 . S
C212 C215 1.461 . S
C212 H232 0.932 . S
C213 C211 1.408 . S
C213 C212 1.310 . S
C213 H233 0.930 . S
C214 C215 1.474 . S
C214 C216 1.285 . S
C214 H234 0.929 . S
C215 C212 1.461 . S
C215 C214 1.474 . S
C216 C211 1.342 . S
C216 C214 1.285 . S
C216 H235 0.930 . S
C217 C220 1.424 1_455 S
C217 C222 1.245 . S
C217 C223 1.428 . S
C218 C221 1.260 . S
C218 C222 1.477 . S
C218 H236 0.932 . S
C219 C220 1.384 . S
C219 C221 1.479 1_655 S
C219 H237 0.929 . S
C220 C217 1.424 1_655 S
C220 C219 1.384 . S
C220 H238 0.928 . S
C221 C218 1.260 . S
C221 C219 1.479 1_455 S
C222 C217 1.245 . S
C222 C218 1.477 . S
C222 H239 0.932 . S
C223 U206 2.882 . S
C223 C217 1.428 . S
C223 O226 1.301 . S
C223 O227 1.282 1_455 S
O224 U206 2.441 1_655 S
O224 C210 1.249 . S
O225 U206 2.420 1_655 S
O225 C210 1.202 . S
O226 U206 2.455 . S
O226 C223 1.301 . S
O227 U206 2.449 1_655 S
O227 C223 1.282 1_655 S
H228 C201 0.931 . S
H229 C203 0.929 . S
H230 C204 0.930 . S
H231 C205 0.931 . S
H232 C212 0.932 . S
H233 C213 0.930 . S
H234 C214 0.929 . S
H235 C216 0.930 . S
H236 C218 0.932 . S
H237 C219 0.929 . S
H238 C220 0.928 . S
H239 C222 0.932 . S
C240 C241 1.391 . S
C240 C242 1.394 . S
C240 H256 0.931 . S
C241 C240 1.391 . S
C241 C245 1.376 1_455 S
C242 C240 1.394 . S
C242 C243 1.369 . S
C242 C246 1.531 . S
C243 C242 1.369 . S
C243 C244 1.410 1_455 S
C243 C251 1.503 . S
C244 C243 1.410 1_655 S
C244 C245 1.392 . S
C244 C247 1.511 . S
C245 C241 1.376 1_655 S
C245 C244 1.392 . S
C245 H257 0.929 . S
C246 C242 1.531 . S
C246 H258 0.960 . S
C246 H259 0.962 . S
C246 H260 0.960 . S
C247 C244 1.511 . S
C247 H261 0.961 . S
C247 H262 0.961 . S
C247 H263 0.961 . S
C248 C249 1.370 . S
C248 C250 1.363 . S
C248 H264 0.931 . S
C249 C248 1.370 . S
C249 C253 1.408 . S
C250 C248 1.363 . S
C250 C251 1.370 . S
C250 C254 1.524 . S
C251 C243 1.503 . S
C251 C250 1.370 . S
C251 C252 1.403 . S
C252 C251 1.403 . S
C252 C253 1.404 . S
C252 C255 1.539 . S
C253 C249 1.408 . S
C253 C252 1.404 . S
C253 H265 0.930 . S
C254 C250 1.524 . S
C254 H266 0.956 . S
C254 H267 0.961 . S
C254 H268 0.961 . S
C255 C252 1.539 . S
C255 H269 0.958 . S
C255 H270 0.961 1_455 S
C255 H271 0.960 . S
H256 C240 0.931 . S
H257 C245 0.929 . S
H258 C246 0.960 . S
H259 C246 0.962 . S
H260 C246 0.960 . S
H261 C247 0.961 . S
H262 C247 0.961 . S
H263 C247 0.961 . S
H264 C248 0.931 . S
H265 C253 0.930 . S
H266 C254 0.956 . S
H267 C254 0.961 . S
H268 C254 0.961 . S
H269 C255 0.958 . S
H270 C255 0.961 1_655 S
H271 C255 0.960 . S
C272 C273 1.391 . S
C272 C274 1.394 . S
C272 H288 0.931 . S
C273 C272 1.391 . S
C273 C277 1.376 . S
C274 C272 1.394 . S
C274 C275 1.369 . S
C274 C278 1.531 . S
C275 C274 1.369 . S
C275 C276 1.410 . S
C275 C283 1.503 . S
C276 C275 1.410 . S
C276 C277 1.392 . S
C276 C279 1.511 . S
C277 C273 1.376 . S
C277 C276 1.392 . S
C277 H289 0.929 . S
C278 C274 1.531 . S
C278 H290 0.960 . S
C278 H291 0.962 . S
C278 H292 0.960 . S
C279 C276 1.511 . S
C279 H293 0.961 1_545 S
C279 H294 0.961 1_545 S
C279 H295 0.961 . S
C280 C281 1.370 1_565 S
C280 C282 1.363 . S
C280 H296 0.931 . S
C281 C280 1.370 1_545 S
C281 C285 1.408 . S
C282 C280 1.363 . S
C282 C283 1.370 1_565 S
C282 C286 1.524 . S
C283 C275 1.503 . S
C283 C282 1.370 1_545 S
C283 C284 1.403 . S
C284 C283 1.403 . S
C284 C285 1.404 . S
C284 C287 1.539 . S
C285 C281 1.408 . S
C285 C284 1.404 . S
C285 H297 0.930 . S
C286 C282 1.524 . S
C286 H298 0.956 . S
C286 H299 0.961 . S
C286 H300 0.961 . S
C287 C284 1.539 . S
C287 H301 0.958 . S
C287 H302 0.961 . S
C287 H303 0.960 . S
H288 C272 0.931 . S
H289 C277 0.929 . S
H290 C278 0.960 . S
H291 C278 0.962 . S
H292 C278 0.960 . S
H293 C279 0.961 1_565 S
H294 C279 0.961 1_565 S
H295 C279 0.961 . S
H296 C280 0.931 . S
H297 C285 0.930 . S
H298 C286 0.956 . S
H299 C286 0.961 . S
H300 C286 0.961 . S
H301 C287 0.958 . S
H302 C287 0.961 . S
H303 C287 0.960 . S
C304 C305 1.391 . S
C304 C306 1.394 . S
C304 H320 0.931 . S
C305 C304 1.391 . S
C305 C309 1.376 . S
C306 C304 1.394 . S
C306 C307 1.369 . S
C306 C310 1.531 . S
C307 C306 1.369 . S
C307 C308 1.410 . S
C307 C315 1.503 . S
C308 C307 1.410 . S
C308 C309 1.392 . S
C308 C311 1.511 . S
C309 C305 1.376 . S
C309 C308 1.392 . S
C309 H321 0.929 . S
C310 C306 1.531 . S
C310 H322 0.960 . S
C310 H323 0.962 . S
C310 H324 0.960 . S
C311 C308 1.511 . S
C311 H325 0.961 . S
C311 H326 0.961 . S
C311 H327 0.961 . S
C312 C313 1.370 . S
C312 C314 1.363 . S
C312 H328 0.931 . S
C313 C312 1.370 . S
C313 C317 1.408 . S
C314 C312 1.363 . S
C314 C315 1.370 . S
C314 C318 1.524 . S
C315 C307 1.503 . S
C315 C314 1.370 . S
C315 C316 1.403 . S
C316 C315 1.403 . S
C316 C317 1.404 . S
C316 C319 1.539 . S
C317 C313 1.408 . S
C317 C316 1.404 . S
C317 H329 0.930 . S
C318 C314 1.524 . S
C318 H330 0.956 . S
C318 H331 0.961 . S
C318 H332 0.961 . S
C319 C316 1.539 . S
C319 H333 0.958 . S
C319 H334 0.961 . S
C319 H335 0.960 . S
H320 C304 0.931 . S
H321 C309 0.929 . S
H322 C310 0.960 . S
H323 C310 0.962 . S
H324 C310 0.960 . S
H325 C311 0.961 . S
H326 C311 0.961 . S
H327 C311 0.961 . S
H328 C312 0.931 . S
H329 C317 0.930 . S
H330 C318 0.956 . S
H331 C318 0.961 . S
H332 C318 0.961 . S
H333 C319 0.958 . S
H334 C319 0.961 . S
H335 C319 0.960 . S
C336 C337 1.391 . S
C336 C338 1.394 . S
C336 H352 0.931 . S
C337 C336 1.391 . S
C337 C341 1.376 . S
C338 C336 1.394 . S
C338 C339 1.382 . S
C338 C342 1.531 1_554 S
C339 C338 1.382 . S
C339 C340 1.442 . S
C339 C347 1.470 1_554 S
C340 C339 1.442 . S
C340 C341 1.392 . S
C340 C343 1.511 . S
C341 C337 1.376 . S
C341 C340 1.392 . S
C341 H353 0.929 . S
C342 C338 1.531 1_556 S
C342 H354 0.960 . S
C342 H355 0.962 1_556 S
C342 H356 0.960 . S
C343 C340 1.511 . S
C343 H357 0.961 . S
C343 H358 0.961 . S
C343 H359 0.961 1_554 S
C344 C345 1.370 . S
C344 C346 1.363 1_556 S
C344 H360 0.931 1_556 S
C345 C344 1.370 . S
C345 C349 1.408 . S
C346 C344 1.363 1_554 S
C346 C347 1.370 1_554 S
C346 C350 1.524 . S
C347 C339 1.470 1_556 S
C347 C346 1.370 1_556 S
C347 C348 1.403 . S
C348 C347 1.403 . S
C348 C349 1.404 . S
C348 C351 1.539 . S
C349 C345 1.408 . S
C349 C348 1.404 . S
C349 H361 0.930 . S
C350 C346 1.524 . S
C350 H362 0.956 . S
C350 H363 0.961 . S
C350 H364 0.961 . S
C351 C348 1.539 . S
C351 H365 0.958 . S
C351 H366 0.961 . S
C351 H367 0.960 . S
H352 C336 0.931 . S
H353 C341 0.929 . S
H354 C342 0.960 . S
H355 C342 0.962 1_554 S
H356 C342 0.960 . S
H357 C343 0.961 . S
H358 C343 0.961 . S
H359 C343 0.961 1_556 S
H360 C344 0.931 1_554 S
H361 C349 0.930 . S
H362 C350 0.956 . S
H363 C350 0.961 . S
H364 C350 0.961 . S
H365 C351 0.958 . S
H366 C351 0.961 . S
H367 C351 0.960 . S
C368 C369 1.391 . S
C368 C370 1.394 . S
C368 H384 0.931 . S
C369 C368 1.391 . S
C369 C373 1.376 . S
C370 C368 1.394 . S
C370 C371 1.369 . S
C370 C374 1.531 . S
C371 C370 1.369 . S
C371 C372 1.410 . S
C371 C379 1.503 . S
C372 C371 1.410 . S
C372 C373 1.392 . S
C372 C375 1.511 . S
C373 C369 1.376 . S
C373 C372 1.392 . S
C373 H385 0.929 . S
C374 C370 1.531 . S
C374 H386 0.960 . S
C374 H387 0.962 . S
C374 H388 0.960 . S
C375 C372 1.511 . S
C375 H389 0.961 . S
C375 H390 0.961 . S
C375 H391 0.961 . S
C376 C377 1.370 . S
C376 C378 1.363 . S
C376 H392 0.931 . S
C377 C376 1.370 . S
C377 C381 1.408 . S
C378 C376 1.363 . S
C378 C379 1.370 . S
C378 C382 1.524 . S
C379 C371 1.503 . S
C379 C378 1.370 . S
C379 C380 1.403 . S
C380 C379 1.403 . S
C380 C381 1.404 . S
C380 C383 1.539 . S
C381 C377 1.408 . S
C381 C380 1.404 . S
C381 H393 0.930 . S
C382 C378 1.524 . S
C382 H394 0.956 . S
C382 H395 0.961 . S
C382 H396 0.961 . S
C383 C380 1.539 . S
C383 H397 0.958 . S
C383 H398 0.961 . S
C383 H399 0.960 . S
H384 C368 0.931 . S
H385 C373 0.929 . S
H386 C374 0.960 . S
H387 C374 0.962 . S
H388 C374 0.960 . S
H389 C375 0.961 . S
H390 C375 0.961 . S
H391 C375 0.961 . S
H392 C376 0.931 . S
H393 C381 0.930 . S
H394 C382 0.956 . S
H395 C382 0.961 . S
H396 C382 0.961 . S
H397 C383 0.958 . S
H398 C383 0.961 . S
H399 C383 0.960 . S
C400 C401 1.391 . S
C400 C402 1.394 . S
C400 H416 0.931 . S
C401 C400 1.391 . S
C401 C405 1.376 . S
C402 C400 1.394 . S
C402 C403 1.369 . S
C402 C406 1.531 . S
C403 C402 1.369 . S
C403 C404 1.410 . S
C403 C411 1.503 . S
C404 C403 1.410 . S
C404 C405 1.392 . S
C404 C407 1.511 . S
C405 C401 1.376 . S
C405 C404 1.392 . S
C405 H417 0.929 . S
C406 C402 1.531 . S
C406 H418 0.960 . S
C406 H419 0.962 . S
C406 H420 0.960 . S
C407 C404 1.511 . S
C407 H421 0.961 . S
C407 H422 0.961 . S
C407 H423 0.961 . S
C408 C409 1.370 . S
C408 C410 1.363 . S
C408 H424 0.931 . S
C409 C408 1.370 . S
C409 C413 1.408 . S
C410 C408 1.363 . S
C410 C411 1.370 . S
C410 C414 1.524 . S
C411 C403 1.503 . S
C411 C410 1.370 . S
C411 C412 1.403 . S
C412 C411 1.403 . S
C412 C413 1.404 . S
C412 C415 1.539 . S
C413 C409 1.408 . S
C413 C412 1.404 . S
C413 H425 0.930 . S
C414 C410 1.524 . S
C414 H426 0.956 . S
C414 H427 0.961 . S
C414 H428 0.961 . S
C415 C412 1.539 . S
C415 H429 0.958 . S
C415 H430 0.961 . S
C415 H431 0.960 . S
H416 C400 0.931 . S
H417 C405 0.929 . S
H418 C406 0.960 . S
H419 C406 0.962 . S
H420 C406 0.960 . S
H421 C407 0.961 . S
H422 C407 0.961 . S
H423 C407 0.961 . S
H424 C408 0.931 . S
H425 C413 0.930 . S
H426 C414 0.956 . S
H427 C414 0.961 . S
H428 C414 0.961 . S
H429 C415 0.958 . S
H430 C415 0.961 . S
H431 C415 0.960 . S
C432 C433 1.391 . S
C432 C434 1.419 . S
C432 H448 0.931 . S
C433 C432 1.391 . S
C433 C437 1.376 . S
C434 C432 1.419 . S
C434 C435 1.371 . S
C434 C438 1.504 1_554 S
C435 C434 1.371 . S
C435 C436 1.410 . S
C435 C443 1.503 1_554 S
C436 C435 1.410 . S
C436 C437 1.392 . S
C436 C439 1.511 . S
C437 C433 1.376 . S
C437 C436 1.392 . S
C437 H449 0.929 . S
C438 C434 1.504 1_556 S
C438 H450 0.960 . S
C438 H451 0.962 . S
C438 H452 0.960 . S
C439 C436 1.511 . S
C439 H453 0.961 . S
C439 H454 0.961 . S
C439 H455 0.961 . S
C440 C441 1.370 . S
C440 C442 1.363 1_556 S
C440 H456 0.936 . S
C441 C440 1.370 . S
C441 C445 1.408 . S
C442 C440 1.363 1_554 S
C442 C443 1.370 1_554 S
C442 C446 1.524 . S
C443 C435 1.503 1_556 S
C443 C442 1.370 1_556 S
C443 C444 1.403 . S
C444 C443 1.403 . S
C444 C445 1.404 . S
C444 C447 1.539 . S
C445 C441 1.408 . S
C445 C444 1.404 . S
C445 H457 0.930 . S
C446 C442 1.524 . S
C446 H458 0.956 . S
C446 H459 0.961 . S
C446 H460 0.961 . S
C447 C444 1.539 . S
C447 H461 0.958 . S
C447 H462 0.961 . S
C447 H463 0.960 . S
H448 C432 0.931 . S
H449 C437 0.929 . S
H450 C438 0.960 . S
H451 C438 0.962 . S
H452 C438 0.960 . S
H453 C439 0.961 . S
H454 C439 0.961 . S
H455 C439 0.961 . S
H456 C440 0.936 . S
H457 C445 0.930 . S
H458 C446 0.956 . S
H459 C446 0.961 . S
H460 C446 0.961 . S
H461 C447 0.958 . S
H462 C447 0.961 . S
H463 C447 0.960 . S
C464 C465 1.391 . S
C464 C466 1.394 . S
C464 H480 0.931 . S
C465 C464 1.391 . S
C465 C469 1.376 . S
C466 C464 1.394 . S
C466 C467 1.369 . S
C466 C470 1.531 . S
C467 C466 1.369 . S
C467 C468 1.410 . S
C467 C475 1.503 . S
C468 C467 1.410 . S
C468 C469 1.392 . S
C468 C471 1.511 . S
C469 C465 1.376 . S
C469 C468 1.392 . S
C469 H481 0.929 . S
C470 C466 1.531 . S
C470 H482 0.960 . S
C470 H483 0.962 . S
C470 H484 0.960 . S
C471 C468 1.511 . S
C471 H485 0.961 . S
C471 H486 0.961 . S
C471 H487 0.961 . S
C472 C473 1.370 . S
C472 C474 1.363 . S
C472 H488 0.931 . S
C473 C472 1.370 . S
C473 C477 1.408 . S
C474 C472 1.363 . S
C474 C475 1.370 . S
C474 C478 1.524 . S
C475 C467 1.503 . S
C475 C474 1.370 . S
C475 C476 1.403 . S
C476 C475 1.403 . S
C476 C477 1.404 . S
C476 C479 1.539 . S
C477 C473 1.408 . S
C477 C476 1.404 . S
C477 H489 0.930 . S
C478 C474 1.524 . S
C478 H490 0.956 . S
C478 H491 0.961 . S
C478 H492 0.961 . S
C479 C476 1.539 . S
C479 H493 0.958 . S
C479 H494 0.961 . S
C479 H495 0.960 . S
H480 C464 0.931 . S
H481 C469 0.929 . S
H482 C470 0.960 . S
H483 C470 0.962 . S
H484 C470 0.960 . S
H485 C471 0.961 . S
H486 C471 0.961 . S
H487 C471 0.961 . S
H488 C472 0.931 . S
H489 C477 0.930 . S
H490 C478 0.956 . S
H491 C478 0.961 . S
H492 C478 0.961 . S
H493 C479 0.958 . S
H494 C479 0.961 . S
H495 C479 0.960 . S
C496 C497 1.391 . S
C496 C498 1.394 . S
C496 H512 0.931 . S
C497 C496 1.391 . S
C497 C501 1.376 . S
C498 C496 1.394 . S
C498 C499 1.369 . S
C498 C502 1.531 . S
C499 C498 1.369 . S
C499 C500 1.410 . S
C499 C507 1.503 . S
C500 C499 1.410 . S
C500 C501 1.392 . S
C500 C503 1.511 . S
C501 C497 1.376 . S
C501 C500 1.392 . S
C501 H513 0.929 . S
C502 C498 1.531 . S
C502 H514 0.960 . S
C502 H515 0.962 . S
C502 H516 0.960 . S
C503 C500 1.511 . S
C503 H517 0.961 . S
C503 H518 0.961 . S
C503 H519 0.961 . S
C504 C505 1.370 . S
C504 C506 1.363 . S
C504 H520 0.931 . S
C505 C504 1.370 . S
C505 C509 1.408 . S
C506 C504 1.363 . S
C506 C507 1.370 . S
C506 C510 1.524 . S
C507 C499 1.503 . S
C507 C506 1.370 . S
C507 C508 1.403 . S
C508 C507 1.403 . S
C508 C509 1.404 . S
C508 C511 1.539 . S
C509 C505 1.408 . S
C509 C508 1.404 . S
C509 H521 0.930 . S
C510 C506 1.524 . S
C510 H522 0.956 . S
C510 H523 0.961 . S
C510 H524 0.961 . S
C511 C508 1.539 . S
C511 H525 0.958 . S
C511 H526 0.961 . S
C511 H527 0.960 . S
H512 C496 0.931 . S
H513 C501 0.929 . S
H514 C502 0.960 . S
H515 C502 0.962 . S
H516 C502 0.960 . S
H517 C503 0.961 . S
H518 C503 0.961 . S
H519 C503 0.961 . S
H520 C504 0.931 . S
H521 C509 0.930 . S
H522 C510 0.956 . S
H523 C510 0.961 . S
H524 C510 0.961 . S
H525 C511 0.958 . S
H526 C511 0.961 . S
H527 C511 0.960 . S
C241 C21 1.496 . S
C249 C221 1.486 . S
C273 C141 1.496 . S
C281 C61 1.487 . S
C305 C181 1.497 . S
C313 C101 1.494 . S
C337 C15 1.495 . S
C345 C175 1.499 . S
C369 C42 1.470 . S
C377 C202 1.488 . S
C401 C122 1.473 . S
C409 C82 1.483 . S
C433 C2 1.470 . S
C441 C162 1.487 . S
C465 C55 1.497 . S
C473 C215 1.500 . S
C497 C135 1.495 . S
C505 C95 1.500 . S
