# Generated by pormake.
# Topology wjf, (4)-cn, num edge types: 1
# Building blocks:
#     Node 0, Type 0, BuildingBlock: GALJAG_clean_sbu_0, # of connection points: 4
#     Node 1, Type 0, BuildingBlock: GALJAG_clean_sbu_0, # of connection points: 4
#     Node 2, Type 0, BuildingBlock: GALJAG_clean_sbu_0, # of connection points: 4
#     Node 3, Type 0, BuildingBlock: GALJAG_clean_sbu_0, # of connection points: 4
#     Node 4, Type 0, BuildingBlock: GALJAG_clean_sbu_0, # of connection points: 4
#     Node 5, Type 0, BuildingBlock: GALJAG_clean_sbu_0, # of connection points: 4
#     Node 6, Type 0, BuildingBlock: GALJAG_clean_sbu_0, # of connection points: 4
#     Node 7, Type 0, BuildingBlock: GALJAG_clean_sbu_0, # of connection points: 4
#     Node 8, Type 0, BuildingBlock: GALJAG_clean_sbu_0, # of connection points: 4
#     Node 9, Type 0, BuildingBlock: GALJAG_clean_sbu_0, # of connection points: 4
#     Node 10, Type 0, BuildingBlock: GALJAG_clean_sbu_0, # of connection points: 4
#     Node 11, Type 0, BuildingBlock: GALJAG_clean_sbu_0, # of connection points: 4
#     Edge 12, Type (0, 0), BuildingBlock: AJUNOK_clean_linker_0, # of connection points: 2
#     Edge 13, Type (0, 0), BuildingBlock: AJUNOK_clean_linker_0, # of connection points: 2
#     Edge 14, Type (0, 0), BuildingBlock: AJUNOK_clean_linker_0, # of connection points: 2
#     Edge 15, Type (0, 0), BuildingBlock: AJUNOK_clean_linker_0, # of connection points: 2
#     Edge 16, Type (0, 0), BuildingBlock: AJUNOK_clean_linker_0, # of connection points: 2
#     Edge 17, Type (0, 0), BuildingBlock: AJUNOK_clean_linker_0, # of connection points: 2
#     Edge 18, Type (0, 0), BuildingBlock: AJUNOK_clean_linker_0, # of connection points: 2
#     Edge 19, Type (0, 0), BuildingBlock: AJUNOK_clean_linker_0, # of connection points: 2
#     Edge 20, Type (0, 0), BuildingBlock: AJUNOK_clean_linker_0, # of connection points: 2
#     Edge 21, Type (0, 0), BuildingBlock: AJUNOK_clean_linker_0, # of connection points: 2
#     Edge 22, Type (0, 0), BuildingBlock: AJUNOK_clean_linker_0, # of connection points: 2
#     Edge 23, Type (0, 0), BuildingBlock: AJUNOK_clean_linker_0, # of connection points: 2
#     Edge 24, Type (0, 0), BuildingBlock: AJUNOK_clean_linker_0, # of connection points: 2
#     Edge 25, Type (0, 0), BuildingBlock: AJUNOK_clean_linker_0, # of connection points: 2
#     Edge 26, Type (0, 0), BuildingBlock: AJUNOK_clean_linker_0, # of connection points: 2
#     Edge 27, Type (0, 0), BuildingBlock: AJUNOK_clean_linker_0, # of connection points: 2
#     Edge 28, Type (0, 0), BuildingBlock: AJUNOK_clean_linker_0, # of connection points: 2
#     Edge 29, Type (0, 0), BuildingBlock: AJUNOK_clean_linker_0, # of connection points: 2
#     Edge 30, Type (0, 0), BuildingBlock: AJUNOK_clean_linker_0, # of connection points: 2
#     Edge 31, Type (0, 0), BuildingBlock: AJUNOK_clean_linker_0, # of connection points: 2
#     Edge 32, Type (0, 0), BuildingBlock: AJUNOK_clean_linker_0, # of connection points: 2
#     Edge 33, Type (0, 0), BuildingBlock: AJUNOK_clean_linker_0, # of connection points: 2
#     Edge 34, Type (0, 0), BuildingBlock: AJUNOK_clean_linker_0, # of connection points: 2
#     Edge 35, Type (0, 0), BuildingBlock: AJUNOK_clean_linker_0, # of connection points: 2
# Relax obj value: 0.086
# Max RMSD: 0.104
# Mean RMSD: 0.104
data_MOF--net-wjf--node1-GALJAG_clean_sbu_0--edge1-AJUNOK_clean_linker_0
_symmetry_space_group_name_H-M    P1
_symmetry_Int_Tables_number       1
_symmetry_cell_setting            triclinic
loop_
_symmetry_equiv_pos_as_xyz
'x, y, z'
_cell_length_a     37.048351
_cell_length_b     36.993298
_cell_length_c     20.962775
_cell_angle_alpha  90.084861
_cell_angle_beta   89.959395
_cell_angle_gamma 120.00214
loop_
_atom_site_label
_atom_site_type_symbol
_atom_site_fract_x
_atom_site_fract_y
_atom_site_fract_z
_atom_type_partial_charge
In0 In 0.3243 0.37109 0.08034 0.0
O1 O 0.2877 0.40477 0.06511 0.0
O2 O 0.25524 0.33816 0.06216 0.0
C3 C 0.40431 0.43144 0.09491 0.0
C4 C 0.32688 0.34791 0.96025 0.0
C5 C 0.31137 0.33554 0.19625 0.0
O6 O 0.37452 0.43887 0.09843 0.0
O7 O 0.39342 0.3938 0.08421 0.0
O8 O 0.31833 0.31974 0.14747 0.0
O9 O 0.30937 0.36808 0.18561 0.0
C10 C 0.25372 0.37128 0.05478 0.0
O11 O 0.32237 0.32419 0.00687 0.0
O12 O 0.33131 0.38294 0.97497 0.0
In13 In 0.93667 0.32347 0.42004 0.0
O14 O 0.98298 0.31872 0.35218 0.0
O15 O 0.92995 0.31939 0.31373 0.0
C16 C 0.95663 0.31905 0.54172 0.0
C17 C 0.86217 0.25507 0.4044 0.0
C18 C 0.96322 0.4056 0.41903 0.0
O19 O 0.97261 0.30928 0.49612 0.0
O20 O 0.92978 0.32878 0.52561 0.0
O21 O 0.92494 0.37833 0.42279 0.0
O22 O 0.98761 0.39115 0.41476 0.0
C23 C 0.96208 0.3169 0.30312 0.0
O24 O 0.8669 0.29139 0.40178 0.0
O25 O 0.89444 0.25366 0.41974 0.0
In26 In 0.61143 0.94701 0.75374 0.0
O27 O 0.57844 0.87665 0.73779 0.0
O28 O 0.64485 0.91186 0.73162 0.0
C29 C 0.55134 0.9668 0.77037 0.0
C30 C 0.63298 0.97306 0.63345 0.0
C31 C 0.64774 0.9681 0.86941 0.0
O32 O 0.54372 0.92942 0.7722 0.0
O33 O 0.58904 0.9936 0.76069 0.0
O34 O 0.66275 0.99198 0.82162 0.0
O35 O 0.61544 0.93354 0.85799 0.0
C36 C 0.61202 0.87691 0.72489 0.0
O37 O 0.65727 0.99229 0.67959 0.0
O38 O 0.59824 0.94238 0.64882 0.0
In39 In 0.66103 0.61562 0.08775 0.0
O40 O 0.66311 0.66294 0.01504 0.0
O41 O 0.65644 0.60521 0.98199 0.0
C42 C 0.67443 0.65091 0.20406 0.0
C43 C 0.73101 0.61415 0.06259 0.0
C44 C 0.58015 0.55719 0.10007 0.0
O45 O 0.66913 0.66772 0.15512 0.0
O46 O 0.67454 0.61734 0.19352 0.0
O47 O 0.60881 0.54804 0.10209 0.0
O48 O 0.5926 0.59539 0.09195 0.0
C49 C 0.66042 0.64012 0.96801 0.0
O50 O 0.69664 0.58088 0.07206 0.0
O51 O 0.73012 0.64753 0.07105 0.0
In52 In 0.03918 0.66379 0.41371 0.0
O53 O 0.10946 0.69955 0.39958 0.0
O54 O 0.07703 0.73367 0.40428 0.0
C55 C 0.01832 0.58298 0.4197 0.0
C56 C 0.01484 0.66612 0.29422 0.0
C57 C 0.01505 0.67274 0.53102 0.0
O58 O 0.05562 0.61223 0.42585 0.0
O59 O -0.00785 0.59481 0.41113 0.0
O60 O -0.00678 0.66797 0.48194 0.0
O61 O 0.04938 0.67439 0.52026 0.0
C62 C 0.11117 0.73453 0.39507 0.0
O63 O -0.00482 0.66876 0.34187 0.0
O64 O 0.04546 0.66153 0.30753 0.0
In65 In 0.36933 0.0418 0.75506 0.0
O66 O 0.3227 -0.00245 0.6808 0.0
O67 O 0.38254 0.04606 0.6502 0.0
C68 C 0.33305 0.02175 0.8706 0.0
C69 C 0.37096 0.11288 0.72624 0.0
C70 C 0.42659 0.01823 0.77155 0.0
O71 O 0.31662 -0.00112 0.8221 0.0
O72 O 0.36679 0.05516 0.85987 0.0
O73 O 0.43623 0.05627 0.77234 0.0
O74 O 0.38841 0.99277 0.76274 0.0
C75 C 0.34724 0.01628 0.63472 0.0
O76 O 0.40409 0.11217 0.73881 0.0
O77 O 0.3376 0.07853 0.73376 0.0
In78 In 0.61369 0.66434 0.58294 0.0
O79 O 0.57871 0.69961 0.59969 0.0
O80 O 0.6453 0.73357 0.59907 0.0
C81 C 0.55674 0.58306 0.5686 0.0
C82 C 0.63789 0.66283 0.70265 0.0
C83 C 0.64785 0.67881 0.46594 0.0
O84 O 0.54667 0.61114 0.56801 0.0
O85 O 0.59507 0.59632 0.57649 0.0
O86 O 0.66505 0.67276 0.51374 0.0
O87 O 0.61437 0.67867 0.47794 0.0
C88 C 0.6119 0.7343 0.60775 0.0
O89 O 0.66149 0.66769 0.65566 0.0
O90 O 0.60258 0.65773 0.68851 0.0
In91 In 0.94146 0.61312 0.91229 0.0
O92 O 0.87137 0.57896 0.93023 0.0
O93 O 0.90474 0.64561 0.92785 0.0
C94 C 0.965 0.55516 0.90622 0.0
C95 C 0.96793 0.64149 0.03015 0.0
C96 C 0.96043 0.64443 0.79339 0.0
O97 O 0.927 0.54534 0.90392 0.0
O98 O 0.99029 0.59374 0.91099 0.0
O99 O 0.98373 0.66286 0.84066 0.0
O100 O 0.92735 0.61096 0.80667 0.0
C101 C 0.8706 0.61255 0.93839 0.0
O102 O 0.98748 0.66286 0.98172 0.0
O103 O 0.93695 0.60613 0.01847 0.0
In104 In 0.32092 0.94868 0.24786 0.0
O105 O 0.28466 0.87848 0.26389 0.0
O106 O 0.25265 0.91294 0.27146 0.0
C107 C 0.40074 0.96841 0.23135 0.0
C108 C 0.3245 0.97452 0.36783 0.0
C109 C 0.3047 0.96914 0.13257 0.0
O110 O 0.37096 0.93111 0.22872 0.0
O111 O 0.38991 -0.00479 0.24183 0.0
O112 O 0.31395 0.99327 0.18019 0.0
O113 O 0.30249 0.9346 0.14402 0.0
C114 C 0.25131 0.87833 0.2781 0.0
O115 O 0.32079 0.99451 0.32159 0.0
O116 O 0.32821 0.94355 0.35287 0.0
In117 In 0.3745 0.3253 0.57517 0.0
O118 O 0.40832 0.28909 0.59317 0.0
O119 O 0.34174 0.25606 0.59114 0.0
C120 C 0.43386 0.40601 0.56372 0.0
C121 C 0.34944 0.32575 0.69453 0.0
C122 C 0.34017 0.31075 0.45824 0.0
O123 O 0.4421 0.37673 0.55997 0.0
O124 O 0.3959 0.39424 0.57262 0.0
O125 O 0.32348 0.31766 0.50594 0.0
O126 O 0.3734 0.31043 0.47021 0.0
C127 C 0.37473 0.25476 0.60105 0.0
O128 O 0.32718 0.32387 0.6473 0.0
O129 O 0.38408 0.32904 0.68092 0.0
In130 In 0.03942 0.37196 0.92253 0.0
O131 O -0.00712 0.32223 0.99141 0.0
O132 O 0.04392 0.37817 0.02899 0.0
C133 C 0.01854 0.3464 0.80139 0.0
C134 C 0.11115 0.3727 0.94199 0.0
C135 C 0.01807 0.43147 0.91831 0.0
O136 O -0.00045 0.32232 0.8477 0.0
O137 O 0.04865 0.38165 0.81663 0.0
O138 O 0.05559 0.43983 0.91521 0.0
O139 O 0.99167 0.3932 0.92486 0.0
C140 C 0.01235 0.34315 0.04034 0.0
O141 O 0.10948 0.40603 0.93926 0.0
O142 O 0.07727 0.33976 0.92965 0.0
In143 In 0.65709 0.04177 0.247 0.0
O144 O 0.692 0.11214 0.2632 0.0
O145 O 0.72487 0.07862 0.27289 0.0
C146 C 0.57647 0.0188 0.23027 0.0
C147 C 0.65337 0.01573 0.36683 0.0
C148 C 0.67389 0.02182 0.13146 0.0
O149 O 0.60501 0.05674 0.22961 0.0
O150 O 0.58893 0.99313 0.23914 0.0
O151 O 0.66715 -0.0011 0.17988 0.0
O152 O 0.67395 0.05544 0.14236 0.0
C153 C 0.72528 0.11279 0.27948 0.0
O154 O 0.65838 -0.00345 0.32052 0.0
O155 O 0.64832 0.04589 0.35196 0.0
C156 C 0.29687 0.33585 0.31248 0.0
C157 C 0.31121 0.32106 0.26214 0.0
C158 C 0.30358 0.32959 0.37632 0.0
C159 C 0.32552 0.30894 0.39208 0.0
H160 H 0.28194 0.35402 0.30253 0.0
H161 H 0.29384 0.34334 0.41334 0.0
S162 S 0.36459 0.25932 0.27859 0.0
N163 N 0.3442 0.28075 0.23269 0.0
N164 N 0.35754 0.26973 0.35268 0.0
C165 C 0.33753 0.29156 0.34243 0.0
C166 C 0.33013 0.29738 0.27741 0.0
C167 C 0.97997 0.29585 0.63851 0.0
C168 C 0.97216 0.32511 0.60789 0.0
C169 C -0.00587 0.302 0.70218 0.0
C170 C 0.00222 0.33826 0.73572 0.0
H171 H 0.97448 0.2679 0.61353 0.0
H172 H -0.00044 0.27883 0.72478 0.0
S173 S 0.9878 0.42452 0.67616 0.0
N174 N 0.97362 0.39138 0.61593 0.0
N175 N 0.00155 0.40356 0.73389 0.0
C176 C -0.00502 0.36777 0.70516 0.0
C177 C 0.97963 0.36104 0.64158 0.0
C178 C 0.68219 0.02423 0.95132 0.0
C179 C 0.66258 0.98164 0.93539 0.0
C180 C 0.6882 0.03723 0.01524 0.0
C181 C 0.67545 0.00817 0.06549 0.0
H182 H 0.69045 0.04753 0.91439 0.0
H183 H 0.70115 0.07016 0.0253 0.0
S184 S 0.62879 0.89349 0.04855 0.0
N185 N 0.63478 0.9108 0.97453 0.0
N186 N 0.6468 0.93522 0.0946 0.0
C187 C 0.65909 0.96579 0.05001 0.0
C188 C 0.65242 0.95252 0.98494 0.0
C189 C 0.68929 0.65119 0.32028 0.0
C190 C 0.67501 0.66585 0.26983 0.0
C191 C 0.68328 0.65838 0.38409 0.0
C192 C 0.66202 0.67978 0.39968 0.0
H193 H 0.70373 0.63252 0.31047 0.0
H194 H 0.69298 0.64475 0.42128 0.0
S195 S 0.6228 0.72877 0.28567 0.0
N196 N 0.64246 0.70646 0.23998 0.0
N197 N 0.63031 0.7191 0.35987 0.0
C198 C 0.64989 0.69682 0.34983 0.0
C199 C 0.65665 0.69012 0.28487 0.0
C200 C 0.01581 0.6806 0.71118 0.0
C201 C 0.97322 0.65777 0.72671 0.0
C202 C 0.02904 0.6871 0.64743 0.0
C203 C 0.00017 0.67177 0.5969 0.0
H204 H 0.0392 0.69147 0.74843 0.0
H205 H 0.0622 0.70301 0.63772 0.0
S206 S 0.88498 0.61463 0.61234 0.0
N207 N 0.90212 0.62291 0.68662 0.0
N208 N 0.92697 0.636 0.56679 0.0
C209 C 0.95746 0.65146 0.6118 0.0
C210 C 0.94399 0.64419 0.67674 0.0
C211 C 0.32676 0.02499 0.0505 0.0
C212 C 0.30335 0.98249 0.0666 0.0
C213 C 0.33404 0.0377 0.98655 0.0
C214 C 0.31762 0.00844 0.93646 0.0
H215 H 0.34196 0.04839 0.08733 0.0
H216 H 0.35434 0.07054 0.97636 0.0
S217 S 0.24839 0.89405 0.95385 0.0
N218 N 0.25969 0.91161 0.0278 0.0
N219 N 0.27266 0.93553 0.9076 0.0
C220 C 0.29113 0.96622 0.95206 0.0
C221 C 0.28422 0.95323 0.01719 0.0
C222 C 0.18396 0.40902 0.98467 0.0
C223 C 0.14795 0.37166 0.96715 0.0
C224 C 0.21766 0.40863 0.0144 0.0
C225 C 0.21653 0.37085 0.02804 0.0
H226 H 0.18605 0.43887 0.97598 0.0
H227 H 0.24486 0.43821 0.02642 0.0
S228 S 0.12939 0.26427 0.99199 0.0
N229 N 0.11327 0.29577 0.9655 0.0
N230 N 0.17629 0.29501 0.02162 0.0
C231 C 0.18069 0.33324 0.01075 0.0
C232 C 0.14653 0.33366 0.98015 0.0
C233 C 0.79671 0.22291 0.33977 0.0
C234 C 0.8246 0.21797 0.37945 0.0
C235 C 0.76469 0.1888 0.30715 0.0
C236 C 0.75973 0.14871 0.31268 0.0
H237 H 0.80044 0.25355 0.33209 0.0
H238 H 0.74418 0.19401 0.27656 0.0
S239 S 0.82117 0.11833 0.41702 0.0
N240 N 0.84274 0.16925 0.42694 0.0
N241 N 0.7829 0.1053 0.36559 0.0
C242 C 0.7864 0.14311 0.35416 0.0
C243 C 0.81872 0.17769 0.38763 0.0
C244 C 0.57545 0.80241 0.68838 0.0
C245 C 0.61273 0.84062 0.69635 0.0
C246 C 0.57515 0.76851 0.65772 0.0
C247 C 0.61208 0.77162 0.63373 0.0
H248 H 0.54624 0.79861 0.70588 0.0
H249 H 0.54583 0.73947 0.65379 0.0
S250 S 0.71771 0.86545 0.63958 0.0
N251 N 0.68742 0.87988 0.67592 0.0
N252 N 0.68675 0.81646 0.61819 0.0
C253 C 0.64945 0.80986 0.64052 0.0
C254 C 0.64982 0.84424 0.67193 0.0
C255 C 0.76529 0.5765 0.01587 0.0
C256 C 0.7677 0.61425 0.03428 0.0
C257 C 0.79821 0.57616 0.98325 0.0
C258 C 0.83467 0.61357 0.9675 0.0
H259 H 0.73757 0.54693 0.02603 0.0
H260 H 0.79511 0.54633 0.97066 0.0
S261 S 0.85681 0.72089 0.00571 0.0
N262 N 0.80988 0.69006 0.03507 0.0
N263 N 0.87135 0.68948 0.97349 0.0
C264 C 0.83748 0.65155 0.98574 0.0
C265 C 0.80415 0.65187 0.01929 0.0
C266 C 0.18062 0.7689 0.34112 0.0
C267 C 0.14838 0.77229 0.37087 0.0
C268 C 0.21355 0.80318 0.31038 0.0
C269 C 0.21533 0.84203 0.3081 0.0
H270 H 0.17993 0.73928 0.34008 0.0
H271 H 0.23759 0.79909 0.28785 0.0
S272 S 0.14046 0.86816 0.38366 0.0
N273 N 0.12162 0.81823 0.39956 0.0
N274 N 0.18328 0.88255 0.34188 0.0
C275 C 0.18382 0.8461 0.33916 0.0
C276 C 0.15045 0.81128 0.37059 0.0
C277 C 0.40895 0.18671 0.68708 0.0
C278 C 0.37118 0.14918 0.69619 0.0
C279 C 0.41013 0.22032 0.65428 0.0
C280 C 0.37361 0.21754 0.62913 0.0
H281 H 0.43788 0.19017 0.70526 0.0
H282 H 0.4398 0.24888 0.64953 0.0
S283 S 0.26692 0.12551 0.63764 0.0
N284 N 0.29642 0.11095 0.67592 0.0
N285 N 0.29877 0.17378 0.61406 0.0
C286 C 0.33574 0.18 0.63719 0.0
C287 C 0.33448 0.14595 0.67086 0.0
C288 C 0.3201 0.3498 0.78053 0.0
C289 C 0.33739 0.3254 0.76135 0.0
C290 C 0.31559 0.35572 0.84541 0.0
C291 C 0.32732 0.33666 0.89293 0.0
H292 H 0.31224 0.36623 0.74546 0.0
H293 H 0.30376 0.37623 0.85849 0.0
S294 S 0.36924 0.26557 0.86624 0.0
N295 N 0.36316 0.27935 0.79388 0.0
N296 N 0.35345 0.28953 0.916 0.0
C297 C 0.342 0.30995 0.87408 0.0
C298 C 0.34742 0.30463 0.8081 0.0
C299 C 0.01732 0.34001 0.22021 0.0
C300 C 0.97522 0.31586 0.23721 0.0
C301 C 0.02915 0.34702 0.15591 0.0
C302 C -0.00063 0.32946 0.10665 0.0
H303 H 0.04089 0.35582 0.25656 0.0
H304 H 0.06176 0.3676 0.14473 0.0
S305 S 0.8858 0.25874 0.12708 0.0
N306 N 0.90412 0.27089 0.20054 0.0
N307 N 0.9266 0.2833 0.07955 0.0
C308 C 0.9576 0.30256 0.12322 0.0
C309 C 0.94546 0.29601 0.18865 0.0
C310 C 0.62471 0.95319 0.51886 0.0
C311 C 0.64344 0.98445 0.56592 0.0
C312 C 0.63012 0.96312 0.45382 0.0
C313 C 0.65359 0.00474 0.43401 0.0
H314 H 0.60498 0.92082 0.53244 0.0
H315 H 0.61413 0.9384 0.41908 0.0
S316 S 0.71208 0.09769 0.53745 0.0
N317 N 0.68919 0.05823 0.58785 0.0
N318 N 0.69827 0.07714 0.46542 0.0
C319 C 0.67389 0.0361 0.48028 0.0
C320 C 0.66915 0.02589 0.54643 0.0
C321 C 0.63136 0.67514 0.81756 0.0
C322 C 0.64945 0.66246 0.76973 0.0
C323 C 0.6373 0.67045 0.88234 0.0
C324 C 0.66065 0.65196 0.90111 0.0
H325 H 0.6116 0.68786 0.80479 0.0
H326 H 0.62166 0.67916 0.91768 0.0
S327 S 0.7175 0.61698 0.79513 0.0
N328 N 0.69446 0.63394 0.74582 0.0
N329 N 0.70459 0.62384 0.86774 0.0
C330 C 0.6804 0.64086 0.854 0.0
C331 C 0.67512 0.64651 0.78812 0.0
C332 C 0.03323 0.67823 0.17912 0.0
C333 C 0.00285 0.6665 0.22733 0.0
C334 C 0.02219 0.67306 0.11448 0.0
C335 C 0.98033 0.65517 0.09627 0.0
H336 H 0.06565 0.69021 0.19148 0.0
H337 H 0.04616 0.68064 0.07889 0.0
S338 S 0.8896 0.62369 0.20307 0.0
N339 N 0.92977 0.64015 0.25196 0.0
N340 N 0.90882 0.62933 0.13031 0.0
C341 C 0.94998 0.64552 0.14364 0.0
C342 C 0.9613 0.65154 0.20936 0.0
C343 C 0.35028 0.02699 0.45526 0.0
C344 C 0.32474 0.98571 0.43504 0.0
C345 C 0.35636 0.03663 0.5204 0.0
C346 C 0.33633 0.00544 0.56714 0.0
H347 H 0.36735 0.05152 0.42076 0.0
H348 H 0.37761 0.06865 0.53429 0.0
S349 S 0.26231 0.89336 0.53753 0.0
N350 N 0.27678 0.91391 0.46568 0.0
N351 N 0.28723 0.93232 0.58835 0.0
C352 C 0.30863 0.9645 0.54725 0.0
C353 C 0.30314 0.95455 0.48099 0.0
C354 C 0.47984 0.45286 0.09516 0.0
C355 C 0.44876 0.46405 0.10057 0.0
C356 C 0.52226 0.48304 0.09682 0.0
C357 C 0.53528 0.52561 0.10362 0.0
H358 H 0.47141 0.42053 0.08858 0.0
H359 H 0.54496 0.47295 0.09119 0.0
S360 S 0.46652 0.57114 0.12448 0.0
N361 N 0.43407 0.52055 0.11656 0.0
N362 N 0.51376 0.57732 0.11948 0.0
C363 C 0.50459 0.53717 0.11094 0.0
C364 C 0.46136 0.50639 0.10948 0.0
C365 C 0.96301 0.50793 0.41725 0.0
C366 C 0.00562 0.53815 0.42107 0.0
C367 C 0.94965 0.46522 0.41693 0.0
C368 C 0.97835 0.45098 0.42003 0.0
H369 H 0.93961 0.51725 0.41431 0.0
H370 H 0.91652 0.44325 0.41374 0.0
S371 S 0.09346 0.51723 0.432 0.0
N372 N 0.07649 0.55082 0.4291 0.0
N373 N 0.05146 0.4705 0.42824 0.0
C374 C 0.02109 0.48081 0.4243 0.0
C375 C 0.0347 0.52439 0.42492 0.0
C376 C 0.53043 0.02133 0.77273 0.0
C377 C 0.51887 0.97885 0.77592 0.0
C378 C 0.50047 0.03388 0.77328 0.0
C379 C 0.45775 0.00443 0.77676 0.0
H380 H 0.56292 0.04522 0.76858 0.0
H381 H 0.51091 0.06686 0.76931 0.0
S382 S 0.41113 0.88951 0.79097 0.0
N383 N 0.46178 0.90746 0.78639 0.0
N384 N 0.40539 0.93093 0.78728 0.0
C385 C 0.44576 0.96191 0.78208 0.0
C386 C 0.47633 0.94915 0.78172 0.0
C387 C 0.48319 0.52393 0.56643 0.0
C388 C 0.52606 0.53794 0.56306 0.0
C389 C 0.4537 0.48124 0.56542 0.0
C390 C 0.46589 0.45085 0.5607 0.0
H391 H 0.47227 0.54605 0.57124 0.0
H392 H 0.42105 0.47204 0.56932 0.0
S393 S 0.57432 0.47127 0.5462 0.0
N394 N 0.57927 0.51805 0.5517 0.0
N395 N 0.52378 0.43787 0.54964 0.0
C396 C 0.50861 0.46444 0.55543 0.0
C397 C 0.5387 0.50794 0.55667 0.0
C398 C 0.95007 0.48143 0.91395 0.0
C399 C 0.97909 0.52408 0.90628 0.0
C400 C 0.96303 0.45178 0.9177 0.0
C401 C 0.00549 0.46362 0.9137 0.0
H402 H 0.91712 0.47086 0.91811 0.0
H403 H 0.93949 0.41933 0.92418 0.0
S404 S 0.0938 0.5712 0.88989 0.0
N405 N 0.05218 0.57654 0.89232 0.0
N406 N 0.0764 0.52084 0.89921 0.0
C407 C 0.03477 0.50608 0.90477 0.0
C408 C 0.0216 0.53628 0.90109 0.0
C409 C 0.51859 0.03496 0.22959 0.0
C410 C 0.53166 0.00536 0.22491 0.0
C411 C 0.47618 0.02266 0.23016 0.0
C412 C 0.44516 0.98028 0.22576 0.0
H413 H 0.54123 0.06785 0.23456 0.0
H414 H 0.46771 0.04662 0.2353 0.0
S415 S 0.46306 0.89072 0.20703 0.0
N416 N 0.51026 0.93191 0.2118 0.0
N417 N 0.43055 0.90888 0.21269 0.0
C418 C 0.4578 0.95046 0.21867 0.0
C419 C 0.50104 0.96297 0.21832 0.0
loop_
_geom_bond_atom_site_label_1
_geom_bond_atom_site_label_2
_geom_bond_distance
_geom_bond_site_symmetry_2
_ccdc_geom_bond_type
In0 O1 2.294 . S
In0 O2 2.326 . S
In0 O6 2.266 . S
In0 O7 2.326 . S
In0 O8 2.266 . S
In0 O9 2.326 . S
In0 O11 2.294 . S
In0 O12 2.326 1_554 S
O1 In0 2.294 . S
O1 C10 1.240 . S
O2 In0 2.326 . S
O2 C10 1.252 . S
C3 O6 1.252 . S
C3 O7 1.260 . S
C4 O11 1.240 1_556 S
C4 O12 1.252 . S
C5 O8 1.252 . S
C5 O9 1.260 . S
O6 In0 2.266 . S
O6 C3 1.252 . S
O7 In0 2.326 . S
O7 C3 1.260 . S
O8 In0 2.266 . S
O8 C5 1.252 . S
O9 In0 2.326 . S
O9 C5 1.260 . S
C10 O1 1.240 . S
C10 O2 1.252 . S
O11 In0 2.294 . S
O11 C4 1.240 1_554 S
O12 In0 2.326 1_556 S
O12 C4 1.252 . S
In13 O14 2.294 1_655 S
In13 O15 2.326 . S
In13 O19 2.266 1_655 S
In13 O20 2.326 . S
In13 O21 2.266 . S
In13 O22 2.326 1_655 S
In13 O24 2.294 . S
In13 O25 2.326 . S
O14 In13 2.294 1_455 S
O14 C23 1.240 1_455 S
O15 In13 2.326 . S
O15 C23 1.252 . S
C16 O19 1.252 1_655 S
C16 O20 1.260 . S
C17 O24 1.240 . S
C17 O25 1.252 . S
C18 O21 1.252 . S
C18 O22 1.260 1_655 S
O19 In13 2.266 1_455 S
O19 C16 1.252 1_455 S
O20 In13 2.326 . S
O20 C16 1.260 . S
O21 In13 2.266 . S
O21 C18 1.252 . S
O22 In13 2.326 1_455 S
O22 C18 1.260 1_455 S
C23 O14 1.240 1_655 S
C23 O15 1.252 . S
O24 In13 2.294 . S
O24 C17 1.240 . S
O25 In13 2.326 . S
O25 C17 1.252 . S
In26 O27 2.294 . S
In26 O28 2.326 . S
In26 O32 2.266 . S
In26 O33 2.326 1_565 S
In26 O34 2.266 1_565 S
In26 O35 2.326 . S
In26 O37 2.294 1_565 S
In26 O38 2.326 . S
O27 In26 2.294 . S
O27 C36 1.240 . S
O28 In26 2.326 . S
O28 C36 1.252 . S
C29 O32 1.252 . S
C29 O33 1.260 1_565 S
C30 O37 1.240 1_565 S
C30 O38 1.252 . S
C31 O34 1.252 1_565 S
C31 O35 1.260 . S
O32 In26 2.266 . S
O32 C29 1.252 . S
O33 In26 2.326 1_545 S
O33 C29 1.260 1_545 S
O34 In26 2.266 1_545 S
O34 C31 1.252 1_545 S
O35 In26 2.326 . S
O35 C31 1.260 . S
C36 O27 1.240 . S
C36 O28 1.252 . S
O37 In26 2.294 1_545 S
O37 C30 1.240 1_545 S
O38 In26 2.326 . S
O38 C30 1.252 . S
In39 O40 2.294 . S
In39 O41 2.326 1_554 S
In39 O45 2.266 . S
In39 O46 2.326 . S
In39 O47 2.266 . S
In39 O48 2.326 . S
In39 O50 2.294 . S
In39 O51 2.326 . S
O40 In39 2.294 . S
O40 C49 1.240 1_554 S
O41 In39 2.326 1_556 S
O41 C49 1.252 . S
C42 O45 1.252 . S
C42 O46 1.260 . S
C43 O50 1.240 . S
C43 O51 1.252 . S
C44 O47 1.252 . S
C44 O48 1.260 . S
O45 In39 2.266 . S
O45 C42 1.252 . S
O46 In39 2.326 . S
O46 C42 1.260 . S
O47 In39 2.266 . S
O47 C44 1.252 . S
O48 In39 2.326 . S
O48 C44 1.260 . S
C49 O40 1.240 1_556 S
C49 O41 1.252 . S
O50 In39 2.294 . S
O50 C43 1.240 . S
O51 In39 2.326 . S
O51 C43 1.252 . S
In52 O53 2.294 . S
In52 O54 2.326 . S
In52 O58 2.266 . S
In52 O59 2.326 1_455 S
In52 O60 2.266 1_455 S
In52 O61 2.326 . S
In52 O63 2.294 1_455 S
In52 O64 2.326 . S
O53 In52 2.294 . S
O53 C62 1.240 . S
O54 In52 2.326 . S
O54 C62 1.252 . S
C55 O58 1.252 . S
C55 O59 1.260 1_455 S
C56 O63 1.240 1_455 S
C56 O64 1.252 . S
C57 O60 1.252 1_455 S
C57 O61 1.260 . S
O58 In52 2.266 . S
O58 C55 1.252 . S
O59 In52 2.326 1_655 S
O59 C55 1.260 1_655 S
O60 In52 2.266 1_655 S
O60 C57 1.252 1_655 S
O61 In52 2.326 . S
O61 C57 1.260 . S
C62 O53 1.240 . S
C62 O54 1.252 . S
O63 In52 2.294 1_655 S
O63 C56 1.240 1_655 S
O64 In52 2.326 . S
O64 C56 1.252 . S
In65 O66 2.294 1_545 S
In65 O67 2.326 . S
In65 O71 2.266 1_545 S
In65 O72 2.326 . S
In65 O73 2.266 . S
In65 O74 2.326 1_545 S
In65 O76 2.294 . S
In65 O77 2.326 . S
O66 In65 2.294 1_565 S
O66 C75 1.240 1_565 S
O67 In65 2.326 . S
O67 C75 1.252 . S
C68 O71 1.252 1_545 S
C68 O72 1.260 . S
C69 O76 1.240 . S
C69 O77 1.252 . S
C70 O73 1.252 . S
C70 O74 1.260 1_545 S
O71 In65 2.266 1_565 S
O71 C68 1.252 1_565 S
O72 In65 2.326 . S
O72 C68 1.260 . S
O73 In65 2.266 . S
O73 C70 1.252 . S
O74 In65 2.326 1_565 S
O74 C70 1.260 1_565 S
C75 O66 1.240 1_545 S
C75 O67 1.252 . S
O76 In65 2.294 . S
O76 C69 1.240 . S
O77 In65 2.326 . S
O77 C69 1.252 . S
In78 O79 2.294 . S
In78 O80 2.326 . S
In78 O84 2.266 . S
In78 O85 2.326 . S
In78 O86 2.266 . S
In78 O87 2.326 . S
In78 O89 2.294 . S
In78 O90 2.326 . S
O79 In78 2.294 . S
O79 C88 1.240 . S
O80 In78 2.326 . S
O80 C88 1.252 . S
C81 O84 1.252 . S
C81 O85 1.260 . S
C82 O89 1.240 . S
C82 O90 1.252 . S
C83 O86 1.252 . S
C83 O87 1.260 . S
O84 In78 2.266 . S
O84 C81 1.252 . S
O85 In78 2.326 . S
O85 C81 1.260 . S
O86 In78 2.266 . S
O86 C83 1.252 . S
O87 In78 2.326 . S
O87 C83 1.260 . S
C88 O79 1.240 . S
C88 O80 1.252 . S
O89 In78 2.294 . S
O89 C82 1.240 . S
O90 In78 2.326 . S
O90 C82 1.252 . S
In91 O92 2.294 . S
In91 O93 2.326 . S
In91 O97 2.266 . S
In91 O98 2.326 1_655 S
In91 O99 2.266 1_655 S
In91 O100 2.326 . S
In91 O102 2.294 1_655 S
In91 O103 2.326 1_556 S
O92 In91 2.294 . S
O92 C101 1.240 . S
O93 In91 2.326 . S
O93 C101 1.252 . S
C94 O97 1.252 . S
C94 O98 1.260 1_655 S
C95 O102 1.240 1_654 S
C95 O103 1.252 . S
C96 O99 1.252 1_655 S
C96 O100 1.260 . S
O97 In91 2.266 . S
O97 C94 1.252 . S
O98 In91 2.326 1_455 S
O98 C94 1.260 1_455 S
O99 In91 2.266 1_455 S
O99 C96 1.252 1_455 S
O100 In91 2.326 . S
O100 C96 1.260 . S
C101 O92 1.240 . S
C101 O93 1.252 . S
O102 In91 2.294 1_455 S
O102 C95 1.240 1_456 S
O103 In91 2.326 1_554 S
O103 C95 1.252 . S
In104 O105 2.294 . S
In104 O106 2.326 . S
In104 O110 2.266 . S
In104 O111 2.326 1_565 S
In104 O112 2.266 1_565 S
In104 O113 2.326 . S
In104 O115 2.294 1_565 S
In104 O116 2.326 . S
O105 In104 2.294 . S
O105 C114 1.240 . S
O106 In104 2.326 . S
O106 C114 1.252 . S
C107 O110 1.252 . S
C107 O111 1.260 1_565 S
C108 O115 1.240 1_565 S
C108 O116 1.252 . S
C109 O112 1.252 1_565 S
C109 O113 1.260 . S
O110 In104 2.266 . S
O110 C107 1.252 . S
O111 In104 2.326 1_545 S
O111 C107 1.260 1_545 S
O112 In104 2.266 1_545 S
O112 C109 1.252 1_545 S
O113 In104 2.326 . S
O113 C109 1.260 . S
C114 O105 1.240 . S
C114 O106 1.252 . S
O115 In104 2.294 1_545 S
O115 C108 1.240 1_545 S
O116 In104 2.326 . S
O116 C108 1.252 . S
In117 O118 2.294 . S
In117 O119 2.326 . S
In117 O123 2.266 . S
In117 O124 2.326 . S
In117 O125 2.266 . S
In117 O126 2.326 . S
In117 O128 2.294 . S
In117 O129 2.326 . S
O118 In117 2.294 . S
O118 C127 1.240 . S
O119 In117 2.326 . S
O119 C127 1.252 . S
C120 O123 1.252 . S
C120 O124 1.260 . S
C121 O128 1.240 . S
C121 O129 1.252 . S
C122 O125 1.252 . S
C122 O126 1.260 . S
O123 In117 2.266 . S
O123 C120 1.252 . S
O124 In117 2.326 . S
O124 C120 1.260 . S
O125 In117 2.266 . S
O125 C122 1.252 . S
O126 In117 2.326 . S
O126 C122 1.260 . S
C127 O118 1.240 . S
C127 O119 1.252 . S
O128 In117 2.294 . S
O128 C121 1.240 . S
O129 In117 2.326 . S
O129 C121 1.252 . S
In130 O131 2.294 1_455 S
In130 O132 2.326 1_556 S
In130 O136 2.266 1_455 S
In130 O137 2.326 . S
In130 O138 2.266 . S
In130 O139 2.326 1_455 S
In130 O141 2.294 . S
In130 O142 2.326 . S
O131 In130 2.294 1_655 S
O131 C140 1.240 1_656 S
O132 In130 2.326 1_554 S
O132 C140 1.252 . S
C133 O136 1.252 1_455 S
C133 O137 1.260 . S
C134 O141 1.240 . S
C134 O142 1.252 . S
C135 O138 1.252 . S
C135 O139 1.260 1_455 S
O136 In130 2.266 1_655 S
O136 C133 1.252 1_655 S
O137 In130 2.326 . S
O137 C133 1.260 . S
O138 In130 2.266 . S
O138 C135 1.252 . S
O139 In130 2.326 1_655 S
O139 C135 1.260 1_655 S
C140 O131 1.240 1_454 S
C140 O132 1.252 . S
O141 In130 2.294 . S
O141 C134 1.240 . S
O142 In130 2.326 . S
O142 C134 1.252 . S
In143 O144 2.294 . S
In143 O145 2.326 . S
In143 O149 2.266 . S
In143 O150 2.326 1_545 S
In143 O151 2.266 1_545 S
In143 O152 2.326 . S
In143 O154 2.294 1_545 S
In143 O155 2.326 . S
O144 In143 2.294 . S
O144 C153 1.240 . S
O145 In143 2.326 . S
O145 C153 1.252 . S
C146 O149 1.252 . S
C146 O150 1.260 1_545 S
C147 O154 1.240 1_545 S
C147 O155 1.252 . S
C148 O151 1.252 1_545 S
C148 O152 1.260 . S
O149 In143 2.266 . S
O149 C146 1.252 . S
O150 In143 2.326 1_565 S
O150 C146 1.260 1_565 S
O151 In143 2.266 1_565 S
O151 C148 1.252 1_565 S
O152 In143 2.326 . S
O152 C148 1.260 . S
C153 O144 1.240 . S
C153 O145 1.252 . S
O154 In143 2.294 1_565 S
O154 C147 1.240 1_565 S
O155 In143 2.326 . S
O155 C147 1.252 . S
C156 C157 1.369 . S
C156 C158 1.419 . S
C156 H160 0.930 . S
C157 C156 1.369 . S
C157 C166 1.429 . S
C158 C156 1.419 . S
C158 C159 1.363 . S
C158 H161 0.929 . S
C159 C158 1.363 . S
C159 C165 1.428 . S
H160 C156 0.930 . S
H161 C158 0.929 . S
S162 N163 1.613 . S
S162 N164 1.610 . S
N163 S162 1.613 . S
N163 C166 1.350 . S
N164 S162 1.610 . S
N164 C165 1.351 . S
C165 C159 1.428 . S
C165 N164 1.351 . S
C165 C166 1.434 . S
C166 C157 1.429 . S
C166 N163 1.350 . S
C166 C165 1.434 . S
C167 C168 1.369 . S
C167 C169 1.418 1_655 S
C167 H171 0.930 . S
C168 C167 1.369 . S
C168 C177 1.431 1_655 S
C169 C167 1.418 1_455 S
C169 C170 1.350 . S
C169 H172 0.945 . S
C170 C169 1.350 . S
C170 C176 1.428 . S
H171 C167 0.930 . S
H172 C169 0.945 . S
S173 N174 1.613 . S
S173 N175 1.610 . S
N174 S173 1.613 . S
N174 C177 1.347 . S
N175 S173 1.610 . S
N175 C176 1.351 . S
C176 C170 1.428 . S
C176 N175 1.351 . S
C176 C177 1.434 . S
C177 C168 1.431 1_455 S
C177 N174 1.347 . S
C177 C176 1.434 . S
C178 C179 1.369 1_545 S
C178 C180 1.419 1_556 S
C178 H182 0.930 . S
C179 C178 1.369 1_565 S
C179 C188 1.429 . S
C180 C178 1.419 1_554 S
C180 C181 1.363 . S
C180 H183 0.929 . S
C181 C180 1.363 . S
C181 C187 1.428 1_545 S
H182 C178 0.930 . S
H183 C180 0.929 . S
S184 N185 1.613 1_554 S
S184 N186 1.610 . S
N185 S184 1.613 1_556 S
N185 C188 1.350 . S
N186 S184 1.610 . S
N186 C187 1.351 . S
C187 C181 1.428 1_565 S
C187 N186 1.351 . S
C187 C188 1.434 1_554 S
C188 C179 1.429 . S
C188 N185 1.350 . S
C188 C187 1.434 1_556 S
C189 C190 1.369 . S
C189 C191 1.419 . S
C189 H193 0.930 . S
C190 C189 1.369 . S
C190 C199 1.429 . S
C191 C189 1.419 . S
C191 C192 1.363 . S
C191 H194 0.929 . S
C192 C191 1.363 . S
C192 C198 1.428 . S
H193 C189 0.930 . S
H194 C191 0.929 . S
S195 N196 1.613 . S
S195 N197 1.610 . S
N196 S195 1.613 . S
N196 C199 1.350 . S
N197 S195 1.610 . S
N197 C198 1.351 . S
C198 C192 1.428 . S
C198 N197 1.351 . S
C198 C199 1.434 . S
C199 C190 1.429 . S
C199 N196 1.350 . S
C199 C198 1.434 . S
C200 C201 1.369 1_455 S
C200 C202 1.419 . S
C200 H204 0.930 . S
C201 C200 1.369 1_655 S
C201 C210 1.429 . S
C202 C200 1.419 . S
C202 C203 1.363 . S
C202 H205 0.929 . S
C203 C202 1.363 . S
C203 C209 1.428 1_455 S
H204 C200 0.930 . S
H205 C202 0.929 . S
S206 N207 1.613 . S
S206 N208 1.610 . S
N207 S206 1.613 . S
N207 C210 1.350 . S
N208 S206 1.610 . S
N208 C209 1.351 . S
C209 C203 1.428 1_655 S
C209 N208 1.351 . S
C209 C210 1.434 . S
C210 C201 1.429 . S
C210 N207 1.350 . S
C210 C209 1.434 . S
C211 C212 1.369 1_545 S
C211 C213 1.419 1_554 S
C211 H215 0.930 . S
C212 C211 1.369 1_565 S
C212 C221 1.429 . S
C213 C211 1.419 1_556 S
C213 C214 1.363 . S
C213 H216 0.929 . S
C214 C213 1.363 . S
C214 C220 1.428 1_545 S
H215 C211 0.930 . S
H216 C213 0.929 . S
S217 N218 1.613 1_556 S
S217 N219 1.610 . S
N218 S217 1.613 1_554 S
N218 C221 1.350 . S
N219 S217 1.610 . S
N219 C220 1.351 . S
C220 C214 1.428 1_565 S
C220 N219 1.351 . S
C220 C221 1.434 1_556 S
C221 C212 1.429 . S
C221 N218 1.350 . S
C221 C220 1.434 1_554 S
C222 C223 1.369 . S
C222 C224 1.419 1_556 S
C222 H226 0.930 . S
C223 C222 1.369 . S
C223 C232 1.429 . S
C224 C222 1.419 1_554 S
C224 C225 1.363 . S
C224 H227 0.929 . S
C225 C224 1.363 . S
C225 C231 1.428 . S
H226 C222 0.930 . S
H227 C224 0.929 . S
S228 N229 1.613 1_554 S
S228 N230 1.610 . S
N229 S228 1.613 1_556 S
N229 C232 1.350 . S
N230 S228 1.610 . S
N230 C231 1.351 . S
C231 C225 1.428 . S
C231 N230 1.351 . S
C231 C232 1.434 1_554 S
C232 C223 1.429 . S
C232 N229 1.350 . S
C232 C231 1.434 1_556 S
C233 C234 1.369 . S
C233 C235 1.419 . S
C233 H237 0.930 . S
C234 C233 1.369 . S
C234 C243 1.429 . S
C235 C233 1.419 . S
C235 C236 1.363 . S
C235 H238 0.929 . S
C236 C235 1.363 . S
C236 C242 1.428 . S
H237 C233 0.930 . S
H238 C235 0.929 . S
S239 N240 1.613 . S
S239 N241 1.610 . S
N240 S239 1.613 . S
N240 C243 1.350 . S
N241 S239 1.610 . S
N241 C242 1.351 . S
C242 C236 1.428 . S
C242 N241 1.351 . S
C242 C243 1.434 . S
C243 C234 1.429 . S
C243 N240 1.350 . S
C243 C242 1.434 . S
C244 C245 1.369 . S
C244 C246 1.419 . S
C244 H248 0.930 . S
C245 C244 1.369 . S
C245 C254 1.429 . S
C246 C244 1.419 . S
C246 C247 1.363 . S
C246 H249 0.929 . S
C247 C246 1.363 . S
C247 C253 1.428 . S
H248 C244 0.930 . S
H249 C246 0.929 . S
S250 N251 1.613 . S
S250 N252 1.610 . S
N251 S250 1.613 . S
N251 C254 1.350 . S
N252 S250 1.610 . S
N252 C253 1.351 . S
C253 C247 1.428 . S
C253 N252 1.351 . S
C253 C254 1.434 . S
C254 C245 1.429 . S
C254 N251 1.350 . S
C254 C253 1.434 . S
C255 C256 1.369 . S
C255 C257 1.419 1_554 S
C255 H259 0.930 . S
C256 C255 1.369 . S
C256 C265 1.429 . S
C257 C255 1.419 1_556 S
C257 C258 1.363 . S
C257 H260 0.929 . S
C258 C257 1.363 . S
C258 C264 1.428 . S
H259 C255 0.930 . S
H260 C257 0.929 . S
S261 N262 1.613 . S
S261 N263 1.610 1_554 S
N262 S261 1.613 . S
N262 C265 1.350 . S
N263 S261 1.610 1_556 S
N263 C264 1.351 . S
C264 C258 1.428 . S
C264 N263 1.351 . S
C264 C265 1.434 1_556 S
C265 C256 1.429 . S
C265 N262 1.350 . S
C265 C264 1.434 1_554 S
C266 C267 1.369 . S
C266 C268 1.419 . S
C266 H270 0.930 . S
C267 C266 1.369 . S
C267 C276 1.429 . S
C268 C266 1.419 . S
C268 C269 1.363 . S
C268 H271 0.929 . S
C269 C268 1.363 . S
C269 C275 1.428 . S
H270 C266 0.930 . S
H271 C268 0.929 . S
S272 N273 1.613 . S
S272 N274 1.610 . S
N273 S272 1.613 . S
N273 C276 1.350 . S
N274 S272 1.610 . S
N274 C275 1.351 . S
C275 C269 1.428 . S
C275 N274 1.351 . S
C275 C276 1.434 . S
C276 C267 1.429 . S
C276 N273 1.350 . S
C276 C275 1.434 . S
C277 C278 1.369 . S
C277 C279 1.419 . S
C277 H281 0.930 . S
C278 C277 1.369 . S
C278 C287 1.429 . S
C279 C277 1.419 . S
C279 C280 1.363 . S
C279 H282 0.929 . S
C280 C279 1.363 . S
C280 C286 1.428 . S
H281 C277 0.930 . S
H282 C279 0.929 . S
S283 N284 1.613 . S
S283 N285 1.610 . S
N284 S283 1.613 . S
N284 C287 1.350 . S
N285 S283 1.610 . S
N285 C286 1.351 . S
C286 C280 1.428 . S
C286 N285 1.351 . S
C286 C287 1.434 . S
C287 C278 1.429 . S
C287 N284 1.350 . S
C287 C286 1.434 . S
C288 C289 1.369 . S
C288 C290 1.419 . S
C288 H292 0.930 . S
C289 C288 1.369 . S
C289 C298 1.429 . S
C290 C288 1.419 . S
C290 C291 1.363 . S
C290 H293 0.929 . S
C291 C290 1.363 . S
C291 C297 1.428 . S
H292 C288 0.930 . S
H293 C290 0.929 . S
S294 N295 1.613 . S
S294 N296 1.610 . S
N295 S294 1.613 . S
N295 C298 1.350 . S
N296 S294 1.610 . S
N296 C297 1.351 . S
C297 C291 1.428 . S
C297 N296 1.351 . S
C297 C298 1.434 . S
C298 C289 1.429 . S
C298 N295 1.350 . S
C298 C297 1.434 . S
C299 C300 1.369 . S
C299 C301 1.419 . S
C299 H303 0.930 . S
C300 C299 1.369 . S
C300 C309 1.429 1_455 S
C301 C299 1.419 . S
C301 C302 1.363 1_455 S
C301 H304 0.929 . S
C302 C301 1.363 1_655 S
C302 C308 1.428 . S
H303 C299 0.930 . S
H304 C301 0.929 . S
S305 N306 1.613 . S
S305 N307 1.610 . S
N306 S305 1.613 . S
N306 C309 1.350 . S
N307 S305 1.610 . S
N307 C308 1.351 . S
C308 C302 1.428 . S
C308 N307 1.351 . S
C308 C309 1.434 . S
C309 C300 1.429 1_655 S
C309 N306 1.350 . S
C309 C308 1.434 . S
C310 C311 1.369 1_565 S
C310 C312 1.419 . S
C310 H314 0.930 . S
C311 C310 1.369 1_545 S
C311 C320 1.429 . S
C312 C310 1.419 . S
C312 C313 1.363 . S
C312 H315 0.929 . S
C313 C312 1.363 . S
C313 C319 1.428 1_565 S
H314 C310 0.930 . S
H315 C312 0.929 . S
S316 N317 1.613 . S
S316 N318 1.610 . S
N317 S316 1.613 . S
N317 C320 1.350 . S
N318 S316 1.610 . S
N318 C319 1.351 . S
C319 C313 1.428 1_545 S
C319 N318 1.351 . S
C319 C320 1.434 . S
C320 C311 1.429 . S
C320 N317 1.350 . S
C320 C319 1.434 . S
C321 C322 1.369 . S
C321 C323 1.419 . S
C321 H325 0.930 . S
C322 C321 1.369 . S
C322 C331 1.429 . S
C323 C321 1.419 . S
C323 C324 1.363 . S
C323 H326 0.929 . S
C324 C323 1.363 . S
C324 C330 1.428 . S
H325 C321 0.930 . S
H326 C323 0.929 . S
S327 N328 1.613 . S
S327 N329 1.610 . S
N328 S327 1.613 . S
N328 C331 1.350 . S
N329 S327 1.610 . S
N329 C330 1.351 . S
C330 C324 1.428 . S
C330 N329 1.351 . S
C330 C331 1.434 . S
C331 C322 1.429 . S
C331 N328 1.350 . S
C331 C330 1.434 . S
C332 C333 1.369 1_455 S
C332 C334 1.419 . S
C332 H336 0.930 . S
C333 C332 1.369 1_655 S
C333 C342 1.429 . S
C334 C332 1.419 . S
C334 C335 1.363 . S
C334 H337 0.929 . S
C335 C334 1.363 . S
C335 C341 1.428 1_455 S
H336 C332 0.930 . S
H337 C334 0.929 . S
S338 N339 1.613 . S
S338 N340 1.610 . S
N339 S338 1.613 . S
N339 C342 1.350 . S
N340 S338 1.610 . S
N340 C341 1.351 . S
C341 C335 1.428 1_655 S
C341 N340 1.351 . S
C341 C342 1.434 . S
C342 C333 1.429 . S
C342 N339 1.350 . S
C342 C341 1.434 . S
C343 C344 1.369 . S
C343 C345 1.419 . S
C343 H347 0.930 . S
C344 C343 1.369 . S
C344 C353 1.429 1_545 S
C345 C343 1.419 . S
C345 C346 1.363 1_545 S
C345 H348 0.929 . S
C346 C345 1.363 1_565 S
C346 C352 1.428 . S
H347 C343 0.930 . S
H348 C345 0.929 . S
S349 N350 1.613 . S
S349 N351 1.610 . S
N350 S349 1.613 . S
N350 C353 1.350 . S
N351 S349 1.610 . S
N351 C352 1.351 . S
C352 C346 1.428 . S
C352 N351 1.351 . S
C352 C353 1.434 . S
C353 C344 1.429 1_565 S
C353 N350 1.350 . S
C353 C352 1.434 . S
C354 C355 1.369 . S
C354 C356 1.419 . S
C354 H358 0.930 . S
C355 C354 1.369 . S
C355 C364 1.429 . S
C356 C354 1.419 . S
C356 C357 1.363 . S
C356 H359 0.929 . S
C357 C356 1.363 . S
C357 C363 1.428 . S
H358 C354 0.930 . S
H359 C356 0.929 . S
S360 N361 1.613 . S
S360 N362 1.610 . S
N361 S360 1.613 . S
N361 C364 1.350 . S
N362 S360 1.610 . S
N362 C363 1.351 . S
C363 C357 1.428 . S
C363 N362 1.351 . S
C363 C364 1.434 . S
C364 C355 1.429 . S
C364 N361 1.350 . S
C364 C363 1.434 . S
C365 C366 1.369 1_655 S
C365 C367 1.419 . S
C365 H369 0.930 . S
C366 C365 1.369 1_455 S
C366 C375 1.429 . S
C367 C365 1.419 . S
C367 C368 1.363 . S
C367 H370 0.929 . S
C368 C367 1.363 . S
C368 C374 1.428 1_655 S
H369 C365 0.930 . S
H370 C367 0.929 . S
S371 N372 1.613 . S
S371 N373 1.610 . S
N372 S371 1.613 . S
N372 C375 1.350 . S
N373 S371 1.610 . S
N373 C374 1.351 . S
C374 C368 1.428 1_455 S
C374 N373 1.351 . S
C374 C375 1.434 . S
C375 C366 1.429 . S
C375 N372 1.350 . S
C375 C374 1.434 . S
C376 C377 1.369 1_545 S
C376 C378 1.419 . S
C376 H380 0.930 . S
C377 C376 1.369 1_565 S
C377 C386 1.429 . S
C378 C376 1.419 . S
C378 C379 1.363 . S
C378 H381 0.929 . S
C379 C378 1.363 . S
C379 C385 1.428 1_545 S
H380 C376 0.930 . S
H381 C378 0.929 . S
S382 N383 1.613 . S
S382 N384 1.610 . S
N383 S382 1.613 . S
N383 C386 1.350 . S
N384 S382 1.610 . S
N384 C385 1.351 . S
C385 C379 1.428 1_565 S
C385 N384 1.351 . S
C385 C386 1.434 . S
C386 C377 1.429 . S
C386 N383 1.350 . S
C386 C385 1.434 . S
C387 C388 1.369 . S
C387 C389 1.419 . S
C387 H391 0.930 . S
C388 C387 1.369 . S
C388 C397 1.429 . S
C389 C387 1.419 . S
C389 C390 1.363 . S
C389 H392 0.929 . S
C390 C389 1.363 . S
C390 C396 1.428 . S
H391 C387 0.930 . S
H392 C389 0.929 . S
S393 N394 1.613 . S
S393 N395 1.610 . S
N394 S393 1.613 . S
N394 C397 1.350 . S
N395 S393 1.610 . S
N395 C396 1.351 . S
C396 C390 1.428 . S
C396 N395 1.351 . S
C396 C397 1.434 . S
C397 C388 1.429 . S
C397 N394 1.350 . S
C397 C396 1.434 . S
C398 C399 1.369 . S
C398 C400 1.419 . S
C398 H402 0.930 . S
C399 C398 1.369 . S
C399 C408 1.429 1_655 S
C400 C398 1.419 . S
C400 C401 1.363 1_655 S
C400 H403 0.929 . S
C401 C400 1.363 1_455 S
C401 C407 1.428 . S
H402 C398 0.930 . S
H403 C400 0.929 . S
S404 N405 1.613 . S
S404 N406 1.610 . S
N405 S404 1.613 . S
N405 C408 1.350 . S
N406 S404 1.610 . S
N406 C407 1.351 . S
C407 C401 1.428 . S
C407 N406 1.351 . S
C407 C408 1.434 . S
C408 C399 1.429 1_455 S
C408 N405 1.350 . S
C408 C407 1.434 . S
C409 C410 1.369 . S
C409 C411 1.419 . S
C409 H413 0.930 . S
C410 C409 1.369 . S
C410 C419 1.429 1_545 S
C411 C409 1.419 . S
C411 C412 1.363 1_545 S
C411 H414 0.929 . S
C412 C411 1.363 1_565 S
C412 C418 1.428 . S
H413 C409 0.930 . S
H414 C411 0.929 . S
S415 N416 1.613 . S
S415 N417 1.610 . S
N416 S415 1.613 . S
N416 C419 1.350 . S
N417 S415 1.610 . S
N417 C418 1.351 . S
C418 C412 1.428 . S
C418 N417 1.351 . S
C418 C419 1.434 . S
C419 C410 1.429 1_565 S
C419 N416 1.350 . S
C419 C418 1.434 . S
C157 C5 1.456 . S
C159 C122 1.452 . S
C168 C16 1.453 . S
C170 C133 1.452 . S
C179 C31 1.451 . S
C181 C148 1.455 . S
C190 C42 1.454 . S
C192 C83 1.451 . S
C201 C96 1.451 . S
C203 C57 1.453 . S
C212 C109 1.453 . S
C214 C68 1.456 . S
C223 C134 1.597 . S
C225 C10 1.599 . S
C234 C17 1.600 . S
C236 C153 1.596 . S
C245 C36 1.596 . S
C247 C88 1.600 . S
C256 C43 1.598 . S
C258 C101 1.599 . S
C267 C62 1.599 . S
C269 C114 1.598 . S
C278 C69 1.596 . S
C280 C127 1.600 . S
C289 C121 1.257 . S
C291 C4 1.260 . S
C300 C23 1.258 1_455 S
C302 C140 1.260 1_655 S
C311 C30 1.258 1_545 S
C313 C147 1.253 1_565 S
C322 C82 1.262 . S
C324 C49 1.254 . S
C333 C56 1.260 1_655 S
C335 C95 1.253 1_455 S
C344 C108 1.257 1_545 S
C346 C75 1.260 1_565 S
C355 C3 1.591 . S
C357 C44 1.591 . S
C366 C55 1.590 . S
C368 C18 1.590 . S
C377 C29 1.591 . S
C379 C70 1.590 . S
C388 C81 1.591 . S
C390 C120 1.591 . S
C399 C94 1.591 . S
C401 C135 1.591 . S
C410 C146 1.591 . S
C412 C107 1.591 . S
