# Generated by pormake.
# Topology tfs, (6)-cn, num edge types: 1
# Building blocks:
#     Node 0, Type 0, BuildingBlock: NUHQIS_clean_sbu_0, # of connection points: 6
#     Node 1, Type 0, BuildingBlock: NUHQIS_clean_sbu_0, # of connection points: 6
#     Node 2, Type 0, BuildingBlock: NUHQIS_clean_sbu_0, # of connection points: 6
#     Node 3, Type 0, BuildingBlock: NUHQIS_clean_sbu_0, # of connection points: 6
#     Node 4, Type 0, BuildingBlock: NUHQIS_clean_sbu_0, # of connection points: 6
#     Node 5, Type 0, BuildingBlock: NUHQIS_clean_sbu_0, # of connection points: 6
#     Edge 6, Type (0, 0), BuildingBlock: KIFKEQ_clean_linker_1, # of connection points: 2
#     Edge 7, Type (0, 0), BuildingBlock: KIFKEQ_clean_linker_1, # of connection points: 2
#     Edge 8, Type (0, 0), BuildingBlock: KIFKEQ_clean_linker_1, # of connection points: 2
#     Edge 9, Type (0, 0), BuildingBlock: KIFKEQ_clean_linker_1, # of connection points: 2
#     Edge 10, Type (0, 0), BuildingBlock: KIFKEQ_clean_linker_1, # of connection points: 2
#     Edge 11, Type (0, 0), BuildingBlock: KIFKEQ_clean_linker_1, # of connection points: 2
#     Edge 12, Type (0, 0), BuildingBlock: KIFKEQ_clean_linker_1, # of connection points: 2
#     Edge 13, Type (0, 0), BuildingBlock: KIFKEQ_clean_linker_1, # of connection points: 2
#     Edge 14, Type (0, 0), BuildingBlock: KIFKEQ_clean_linker_1, # of connection points: 2
#     Edge 15, Type (0, 0), BuildingBlock: KIFKEQ_clean_linker_1, # of connection points: 2
#     Edge 16, Type (0, 0), BuildingBlock: KIFKEQ_clean_linker_1, # of connection points: 2
#     Edge 17, Type (0, 0), BuildingBlock: KIFKEQ_clean_linker_1, # of connection points: 2
#     Edge 18, Type (0, 0), BuildingBlock: KIFKEQ_clean_linker_1, # of connection points: 2
#     Edge 19, Type (0, 0), BuildingBlock: KIFKEQ_clean_linker_1, # of connection points: 2
#     Edge 20, Type (0, 0), BuildingBlock: KIFKEQ_clean_linker_1, # of connection points: 2
#     Edge 21, Type (0, 0), BuildingBlock: KIFKEQ_clean_linker_1, # of connection points: 2
#     Edge 22, Type (0, 0), BuildingBlock: KIFKEQ_clean_linker_1, # of connection points: 2
#     Edge 23, Type (0, 0), BuildingBlock: KIFKEQ_clean_linker_1, # of connection points: 2
# Relax obj value: 0.571
# Max RMSD: 0.426
# Mean RMSD: 0.356
data_MOF--net-tfs--node1-NUHQIS_clean_sbu_0--edge1-KIFKEQ_clean_linker_1
_symmetry_space_group_name_H-M    P1
_symmetry_Int_Tables_number       1
_symmetry_cell_setting            triclinic
loop_
_symmetry_equiv_pos_as_xyz
'x, y, z'
_cell_length_a     55.99647
_cell_length_b     48.182063
_cell_length_c     13.437584
_cell_angle_alpha  85.454924
_cell_angle_beta   90.622963
_cell_angle_gamma 120.471
loop_
_atom_site_label
_atom_site_type_symbol
_atom_site_fract_x
_atom_site_fract_y
_atom_site_fract_z
_atom_type_partial_charge
Tb0 Tb 0.15741 0.4211 0.23863 0.0
Eu1 Eu 0.15111 0.47657 0.10258 0.0
C2 C 0.15466 0.42062 0.01344 0.0
C3 C 0.20862 0.49157 0.1877 0.0
C4 C 0.15478 0.34621 0.36897 0.0
C5 C 0.15135 0.29646 0.32407 0.0
C6 C 0.15397 0.32649 0.29582 0.0
C7 C 0.15042 0.33427 0.46966 0.0
C8 C 0.14782 0.30434 0.49789 0.0
C9 C 0.14964 0.28581 0.42575 0.0
C10 C 0.16477 0.38082 0.34519 0.0
O11 O 0.16395 0.45893 0.33117 0.0
O12 O 0.1354 0.47477 0.2574 0.0
O13 O 0.1103 0.43025 0.09745 0.0
O14 O 0.1131 0.40443 0.24467 0.0
C15 C 0.14695 0.46994 0.33674 0.0
O16 O 0.12815 0.49957 0.04642 0.0
O17 O 0.16841 0.51463 -0.02003 0.0
O18 O 0.16798 0.45197 0.01599 0.0
O19 O 0.14313 0.40205 0.09525 0.0
O20 O 0.19897 0.46025 0.18796 0.0
O21 O 0.19196 0.50325 0.17663 0.0
C22 C 0.0984 0.40851 0.17382 0.0
O23 O 0.17696 0.39396 0.25787 0.0
O24 O 0.14922 0.39194 0.37357 0.0
C25 C 0.15678 0.55494 -0.00916 0.0
C26 C 0.17566 0.62088 0.00397 0.0
C27 C 0.15701 0.59749 0.07686 0.0
C28 C 0.14773 0.56485 0.07063 0.0
C29 C 0.17499 0.5782 0.91687 0.0
C30 C 0.18449 0.61096 0.9236 0.0
C31 C 0.14834 0.52076 -0.01423 0.0
H32 H 0.15238 0.2825 0.26666 0.0
H33 H 0.15708 0.33503 0.21739 0.0
H34 H 0.15107 0.34913 0.52731 0.0
H35 H 0.14681 0.29716 0.57687 0.0
H36 H 0.15019 0.60452 0.1404 0.0
H37 H 0.13385 0.5475 0.12926 0.0
H38 H 0.1822 0.57104 0.85467 0.0
H39 H 0.19875 0.62852 0.86619 0.0
Tb40 Tb 0.71043 0.25943 0.56537 0.0
Eu41 Eu 0.77075 0.29579 0.44124 0.0
C42 C 0.71422 0.26741 0.33752 0.0
C43 C 0.73472 0.2177 0.48613 0.0
C44 C 0.65835 0.24343 0.76354 0.0
C45 C 0.62042 0.24116 0.85582 0.0
C46 C 0.63052 0.23491 0.77124 0.0
C47 C 0.67631 0.25947 0.8401 0.0
C48 C 0.66612 0.26555 0.92521 0.0
C49 C 0.63799 0.25597 0.93453 0.0
C50 C 0.66776 0.23379 0.67802 0.0
O51 O 0.74545 0.28774 0.65554 0.0
O52 O 0.77594 0.27601 0.59093 0.0
O53 O 0.76485 0.33559 0.49674 0.0
O54 O 0.71749 0.3076 0.52363 0.0
C55 C 0.76487 0.28048 0.66809 0.0
O56 O 0.81395 0.33412 0.43023 0.0
O57 O 0.79623 0.30341 0.30798 0.0
O58 O 0.73661 0.29497 0.35079 0.0
O59 O 0.70209 0.24592 0.41348 0.0
O60 O 0.72028 0.22148 0.55488 0.0
O61 O 0.75282 0.24211 0.42476 0.0
C62 C 0.74133 0.33498 0.51263 0.0
O63 O 0.66958 0.24908 0.59112 0.0
O64 O 0.68885 0.22967 0.69305 0.0
C65 C 0.84514 0.3268 0.33286 0.0
C66 C 0.89726 0.33198 0.30195 0.0
C67 C 0.89467 0.35323 0.3608 0.0
C68 C 0.86901 0.35073 0.37573 0.0
C69 C 0.84753 0.30528 0.27452 0.0
C70 C 0.87335 0.30785 0.25925 0.0
C71 C 0.8187 0.32648 0.34445 0.0
H72 H 0.59851 0.233 0.86153 0.0
H73 H 0.61638 0.22253 0.7131 0.0
H74 H 0.69801 0.26655 0.83542 0.0
H75 H 0.68001 0.27724 -0.01556 0.0
H76 H 0.91268 0.37252 0.39309 0.0
H77 H 0.86796 0.36806 0.41948 0.0
H78 H 0.82959 0.28675 0.23961 0.0
H79 H 0.87461 0.29101 0.21389 0.0
Tb80 Tb 0.60237 0.82754 0.38497 0.0
Eu81 Eu 0.54539 0.75457 0.33056 0.0
C82 C 0.57726 0.81602 0.17746 0.0
C83 C 0.54037 0.81723 0.37441 0.0
C84 C 0.65254 0.91388 0.43523 0.0
C85 C 0.64377 0.95857 0.41073 0.0
C86 C 0.63439 0.9254 0.41258 0.0
C87 C 0.68019 0.93604 0.45497 0.0
C88 C 0.6896 0.96916 0.45297 0.0
C89 C 0.67153 0.98096 0.4312 0.0
C90 C 0.64321 0.87904 0.43896 0.0
O91 O 0.58608 0.78721 0.49667 0.0
O92 O 0.54003 0.76275 0.48773 0.0
O93 O 0.58087 0.74606 0.35678 0.0
O94 O 0.6192 0.79799 0.33439 0.0
C95 C 0.56213 0.77785 0.53974 0.0
O96 O 0.51488 0.70334 0.36394 0.0
O97 O 0.51651 0.7272 0.21764 0.0
O98 O 0.57077 0.7858 0.19614 0.0
O99 O 0.58909 0.83728 0.24281 0.0
O100 O 0.5663 0.83385 0.40408 0.0
O101 O 0.52982 0.78905 0.33651 0.0
C102 C 0.60768 0.76605 0.34132 0.0
O103 O 0.64242 0.86745 0.35346 0.0
O104 O 0.62149 0.85942 0.49652 0.0
C105 C 0.47308 0.68184 0.27233 0.0
C106 C 0.41493 0.64227 0.25955 0.0
C107 C 0.42667 0.65639 0.34865 0.0
C108 C 0.45552 0.67598 0.35506 0.0
C109 C 0.46136 0.66841 0.18302 0.0
C110 C 0.43267 0.64894 0.17653 0.0
C111 C 0.50362 0.70065 0.27676 0.0
H112 H 0.62929 0.9667 0.39251 0.0
H113 H 0.61298 0.90874 0.39655 0.0
H114 H 0.69455 0.92768 0.47275 0.0
H115 H 0.71095 0.98542 0.47062 0.0
H116 H 0.41364 0.65163 0.41419 0.0
H117 H 0.46404 0.68613 0.42487 0.0
H118 H 0.4745 0.67269 0.11817 0.0
H119 H 0.4244 0.63907 0.10618 0.0
Tb120 Tb 0.74191 0.60742 0.42936 0.0
Eu121 Eu 0.68097 0.55912 0.55054 0.0
C122 C 0.73269 0.606 0.6494 0.0
C123 C 0.72626 0.53635 0.52018 0.0
C124 C 0.81733 0.65384 0.3423 0.0
C125 C 0.85894 0.6644 0.43058 0.0
C126 C 0.83051 0.65365 0.43172 0.0
C127 C 0.83273 0.66382 0.25182 0.0
C128 C 0.86106 0.67447 0.25055 0.0
C129 C 0.87468 0.67552 0.34003 0.0
C130 C 0.78814 0.64572 0.34119 0.0
O131 O 0.7099 0.5822 0.32393 0.0
O132 O 0.67904 0.53452 0.41431 0.0
O133 O 0.67487 0.59473 0.45191 0.0
O134 O 0.72052 0.6355 0.42903 0.0
C135 C 0.69187 0.55094 0.33045 0.0
O136 O 0.63609 0.53217 0.57346 0.0
O137 O 0.66267 0.54121 0.70112 0.0
O138 O 0.71102 0.60549 0.61224 0.0
O139 O 0.74836 0.60231 0.58749 0.0
O140 O 0.74134 0.56162 0.45583 0.0
O141 O 0.70513 0.53318 0.57316 0.0
C142 C 0.69364 0.62512 0.42684 0.0
O143 O 0.77012 0.61781 0.31023 0.0
O144 O 0.77863 0.65249 0.41833 0.0
C145 C 0.61766 0.49418 0.71766 0.0
C146 C 0.57619 0.43499 0.81493 0.0
C147 C 0.5773 0.44048 0.71022 0.0
C148 C 0.59777 0.46976 0.66207 0.0
C149 C 0.61712 0.48832 0.82199 0.0
C150 C 0.59668 0.45898 0.87015 0.0
C151 C 0.63728 0.52675 0.66992 0.0
H152 H 0.86876 0.66505 0.50093 0.0
H153 H 0.81901 0.64595 0.50256 0.0
H154 H 0.82294 0.66402 0.18197 0.0
H155 H 0.87236 0.68223 0.17932 0.0
H156 H 0.56207 0.42226 0.66544 0.0
H157 H 0.59757 0.47347 0.58159 0.0
H158 H 0.63204 0.50685 0.86671 0.0
H159 H 0.59629 0.4556 0.9509 0.0
Tb160 Tb 0.22067 0.88158 0.32071 0.0
Eu161 Eu 0.28928 0.90553 0.31632 0.0
C162 C 0.25946 0.92667 0.14705 0.0
C163 C 0.24336 0.8405 0.22862 0.0
C164 C 0.14128 0.83706 0.33519 0.0
C165 C 0.10165 0.79098 0.26831 0.0
C166 C 0.13001 0.81416 0.26404 0.0
C167 C 0.1239 0.83548 0.4126 0.0
C168 C 0.09563 0.81237 0.41694 0.0
C169 C 0.08399 0.79028 0.34356 0.0
C170 C 0.16989 0.86506 0.32405 0.0
O171 O 0.22515 0.84819 0.4257 0.0
O172 O 0.27031 0.88136 0.4669 0.0
O173 O 0.28516 0.9474 0.35781 0.0
O174 O 0.24101 0.91745 0.42748 0.0
C175 C 0.24485 0.85799 0.49087 0.0
O176 O 0.32912 0.92571 0.38871 0.0
O177 O 0.32637 0.91403 0.23501 0.0
O178 O 0.27752 0.91749 0.16669 0.0
O179 O 0.24195 0.92405 0.2162 0.0
O180 O 0.22646 0.852 0.22057 0.0
O181 O 0.26576 0.85354 0.28192 0.0
C182 C 0.26548 0.94388 0.41914 0.0
O183 O 0.18505 0.87196 0.40258 0.0
O184 O 0.18433 0.86931 0.24305 0.0
C185 C 0.36199 0.91242 0.32933 0.0
C186 C 0.4029 0.8948 0.36128 0.0
C187 C 0.38334 0.88864 0.4376 0.0
C188 C 0.36311 0.89738 0.42188 0.0
C189 C 0.38131 0.91832 0.25301 0.0
C190 C 0.40146 0.90957 0.26858 0.0
C191 C 0.34215 0.92395 0.31168 0.0
H192 H 0.09346 0.77405 0.21138 0.0
H193 H 0.14285 0.81476 0.20326 0.0
H194 H 0.13198 0.85308 0.46768 0.0
H195 H 0.08269 0.81292 0.47514 0.0
H196 H 0.38393 0.87756 0.5102 0.0
H197 H 0.3486 0.89267 0.48246 0.0
H198 H 0.38097 0.93 0.18113 0.0
H199 H 0.41577 0.91417 0.20741 0.0
Tb200 Tb 0.35626 0.18733 0.94034 0.0
Eu201 Eu 0.38516 0.14425 0.02875 0.0
C202 C 0.3392 0.15022 0.1449 0.0
C203 C 0.41375 0.22095 0.04628 0.0
C204 C 0.30875 0.21417 0.83393 0.0
C205 C 0.27619 0.23297 0.80865 0.0
C206 C 0.30116 0.23731 0.84535 0.0
C207 C 0.29071 0.18608 0.78745 0.0
C208 C 0.26573 0.18178 0.75011 0.0
C209 C 0.25834 0.20536 0.75954 0.0
C210 C 0.33597 0.22045 0.86767 0.0
O211 O 0.39387 0.19813 0.86148 0.0
O212 O 0.38921 0.14918 0.86166 0.0
O213 O 0.3437 0.10822 -0.02742 0.0
O214 O 0.33383 0.14199 0.87079 0.0
C215 C 0.3938 0.17594 0.81152 0.0
O216 O 0.41636 0.13005 0.02711 0.0
O217 O 0.38441 0.1095 0.14513 0.0
O218 O 0.36433 0.15478 0.14821 0.0
O219 O 0.32915 0.15499 0.06163 0.0
O220 O 0.38916 0.21821 0.03738 0.0
O221 O 0.41765 0.19671 0.03372 0.0
C222 C 0.32984 0.11313 0.90024 0.0
O223 O 0.33799 0.21532 0.96336 0.0
O224 O 0.34831 0.20955 0.8148 0.0
C225 C 0.42994 0.12309 0.18745 0.0
C226 C 0.48016 0.15518 0.28731 0.0
C227 C 0.47502 0.13045 0.22569 0.0
C228 C 0.45013 0.11458 0.1764 0.0
C229 C 0.43368 0.14532 0.25635 0.0
C230 C 0.45848 0.16098 0.30679 0.0
C231 C 0.40809 0.11354 0.11414 0.0
H232 H 0.27137 0.25186 0.81559 0.0
H233 H 0.31485 0.25914 0.88082 0.0
H234 H 0.29613 0.16778 0.77845 0.0
H235 H 0.25233 0.16021 0.71314 0.0
H236 H 0.4911 0.12534 0.20736 0.0
H237 H 0.44765 0.09759 0.1232 0.0
H238 H 0.4183 0.1523 0.26594 0.0
H239 H 0.4614 0.1793 0.35522 0.0
H240 H 0.23931 0.18636 0.57418 0.0
H241 H 0.22092 0.2189 0.83768 0.0
H242 H 0.20371 0.19229 0.4853 0.0
H243 H 0.18627 0.2261 0.74814 0.0
H244 H 0.12499 0.2389 0.58215 0.0
H245 H 0.14342 0.20651 0.661 0.0
H246 H 0.20558 0.24154 0.42239 0.0
H247 H 0.18732 0.27353 0.34434 0.0
C248 C 0.2272 0.19399 0.61393 0.0
C249 C 0.23327 0.20275 0.71236 0.0
C250 C 0.20694 0.19763 0.56274 0.0
C251 C 0.1924 0.21013 0.60897 0.0
C252 C 0.19688 0.21622 0.71014 0.0
C253 C 0.21706 0.21254 0.76123 0.0
C254 C 0.14213 0.23895 0.54536 0.0
C255 C 0.15497 0.25926 0.45791 0.0
C256 C 0.1527 0.22044 0.59055 0.0
C257 C 0.17632 0.22191 0.54911 0.0
C258 C 0.18726 0.23957 0.45624 0.0
C259 C 0.17671 0.25801 0.41116 0.0
H260 H 0.06594 0.36446 0.32688 0.0
H261 H 0.06122 0.41179 0.04662 0.0
H262 H 1.0161 0.34006 0.35499 0.0
H263 H 1.01162 0.38814 0.07607 0.0
H264 H 0.91914 0.32802 0.12544 0.0
H265 H 0.96636 0.34025 0.09051 0.0
H266 H 0.98595 0.35934 0.39862 0.0
H267 H 0.93858 0.34578 0.43423 0.0
C268 C 0.05427 0.3694 0.27066 0.0
C269 C 0.06769 0.39032 0.18483 0.0
C270 C 0.02568 0.35558 0.28719 0.0
C271 C 1.00981 0.36236 0.21837 0.0
C272 C 0.02306 0.38208 0.13031 0.0
C273 C 0.05162 0.39584 0.1137 0.0
C274 C 0.93336 0.33412 0.18617 0.0
C275 C 0.9251 0.33617 0.28249 0.0
C276 C 0.96054 0.3415 0.1659 0.0
C277 C 0.9801 0.35105 0.24149 0.0
C278 C 0.97146 0.3518 0.33864 0.0
C279 C 0.94434 0.34442 0.35887 0.0
H280 H 0.70723 0.16554 0.6217 0.0
H281 H 0.74818 0.19331 0.33005 0.0
H282 H 0.69302 0.10961 0.6042 0.0
H283 H 0.73348 0.13657 0.31192 0.0
H284 H 0.7219 0.03322 0.36342 0.0
H285 H 0.73883 0.09062 0.37488 0.0
H286 H 0.66033 0.06629 0.51076 0.0
H287 H 0.64382 1.0091 0.50268 0.0
C288 C 0.7133 0.15977 0.55356 0.0
C289 C 0.72877 0.18412 0.47697 0.0
C290 C 0.70491 0.12748 0.54328 0.0
C291 C 0.71163 0.11828 0.45595 0.0
C292 C 0.72796 0.14271 0.3804 0.0
C293 C 0.73643 0.17528 0.39077 0.0
C294 C 0.70829 0.04009 0.39629 0.0
C295 C 0.68147 1.01629 0.43265 0.0
C296 C 0.71793 0.0731 0.40185 0.0
C297 C 0.7011 0.08326 0.44446 0.0
C298 C 0.67411 0.05948 0.4789 0.0
C299 C 0.66446 0.02655 0.47311 0.0
H300 H 0.72425 0.6916 0.38195 0.0
H301 H 0.64007 0.61148 0.41877 0.0
H302 H 0.70666 0.7288 0.34924 0.0
H303 H 0.62281 0.64817 0.38938 0.0
H304 H 0.59396 0.71153 0.25364 0.0
H305 H 0.61719 0.68047 0.26217 0.0
H306 H 0.68297 0.75326 0.42609 0.0
H307 H 0.65984 0.78523 0.41363 0.0
C308 C 0.70206 0.68185 0.38273 0.0
C309 C 0.68367 0.64836 0.4025 0.0
C310 C 0.69196 0.70324 0.36466 0.0
C311 C 0.66322 0.69165 0.36552 0.0
C312 C 0.64503 0.65817 0.38544 0.0
C313 C 0.65503 0.63696 0.40316 0.0
C314 C 0.61362 0.72123 0.2902 0.0
C315 C 0.62491 0.75074 0.33368 0.0
C316 C 0.62689 0.70322 0.29596 0.0
C317 C 0.65169 0.71375 0.34725 0.0
C318 C 0.66391 0.74427 0.38598 0.0
C319 C 0.6507 0.76266 0.37887 0.0
H320 H 0.04712 0.75684 0.50188 0.0
H321 H 0.05121 0.77488 0.18065 0.0
H322 H 0.99659 0.72706 0.49957 0.0
H323 H 1.00083 0.74401 0.17804 0.0
H324 H 0.91395 0.72886 0.22702 0.0
H325 H 0.96399 0.75291 0.22611 0.0
H326 H 0.95537 0.67874 0.45036 0.0
H327 H 0.90498 0.65449 0.45119 0.0
C328 C 0.03727 0.75417 0.43065 0.0
C329 C 0.05331 0.76854 0.34155 0.0
C330 C 1.00827 0.73679 0.42925 0.0
C331 C 0.99458 0.73337 0.3387 0.0
C332 C 1.01065 0.74661 0.2493 0.0
C333 C 0.03961 0.76396 0.25069 0.0
C334 C 0.92262 0.71731 0.2751 0.0
C335 C 0.90534 0.68959 0.33879 0.0
C336 C 0.9514 0.73113 0.27454 0.0
C337 C 0.96378 0.71769 0.33771 0.0
C338 C 0.94655 0.68992 0.40142 0.0
C339 C 0.91767 0.67603 0.40194 0.0
H340 H 0.30408 1.00857 0.39588 0.0
H341 H 0.2404 0.93485 0.60004 0.0
H342 H 0.31441 0.04866 0.5161 0.0
H343 H 0.25111 0.97461 0.72014 0.0
H344 H 0.30811 0.11609 0.7191 0.0
H345 H 0.28896 0.07429 0.60219 0.0
H346 H 0.29481 1.0078 0.82153 0.0
H347 H 0.31381 0.04931 0.93935 0.0
C348 C 0.29226 1.00101 0.46602 0.0
C349 C 0.27143 0.96868 0.48851 0.0
C350 C 0.29801 0.0239 0.53434 0.0
C351 C 0.28341 1.01462 0.62692 0.0
C352 C 0.26258 0.98233 0.6492 0.0
C353 C 0.25645 0.95966 0.58026 0.0
C354 C 0.30479 0.09238 0.74348 0.0
C355 C 0.31285 0.08618 0.83828 0.0
C356 C 0.29415 0.06865 0.67592 0.0
C357 C 0.29109 0.03824 0.70225 0.0
C358 C 0.29712 0.03118 0.79939 0.0
C359 C 0.308 0.05497 0.86674 0.0
H360 H 0.26732 0.80305 0.24857 0.0
H361 H 0.20325 0.81203 0.09272 0.0
H362 H 0.25237 0.75217 0.17596 0.0
H363 H 0.18869 0.7615 0.0192 0.0
H364 H 0.14657 0.64958 0.05095 0.0
H365 H 0.16506 0.70521 0.09005 0.0
H366 H 0.24805 0.72625 0.02002 0.0
H367 H 0.22949 0.67015 -0.01677 0.0
C368 C 0.25032 0.79443 0.19783 0.0
C369 C 0.23618 0.81129 0.17783 0.0
C370 C 0.24188 0.76539 0.15567 0.0
C371 C 0.21921 0.75275 0.09255 0.0
C372 C 0.20593 0.7704 0.06894 0.0
C373 C 0.2143 0.79935 0.11113 0.0
C374 C 0.16873 0.66617 0.04323 0.0
C375 C 0.18663 0.65555 0.01498 0.0
C376 C 0.17931 0.6981 0.06463 0.0
C377 C 0.20803 0.72005 0.05847 0.0
C378 C 0.22586 0.70975 0.02633 0.0
C379 C 0.21523 0.67778 0.00442 0.0
H380 H 0.50439 0.22097 0.29303 0.0
H381 H 0.5227 0.14387 0.33449 0.0
H382 H 0.55301 0.25963 0.25954 0.0
H383 H 0.57093 0.1821 0.29138 0.0
H384 H 0.64667 0.23899 0.12488 0.0
H385 H 0.6162 0.22637 0.2708 0.0
H386 H 0.5708 0.26344 0.10022 0.0
H387 H 0.60179 0.27707 0.95785 0.0
C388 C 0.51877 0.2122 0.2988 0.0
C389 C 0.50931 0.17887 0.31083 0.0
C390 C 0.54681 0.23453 0.27815 0.0
C391 C 0.56567 0.22382 0.2661 0.0
C392 C 0.55704 0.19139 0.29707 0.0
C393 C 0.52911 0.16918 0.32043 0.0
C394 C 0.63089 0.24568 0.12045 0.0
C395 C 0.62591 0.25799 0.02924 0.0
C396 C 0.61328 0.23823 0.20388 0.0
C397 C 0.59035 0.24276 0.19688 0.0
C398 C 0.58801 0.25933 0.10948 0.0
C399 C 0.60561 0.26685 0.02668 0.0
H400 H 0.37241 0.64795 0.33676 0.0
H401 H 0.3883 0.58607 0.16761 0.0
H402 H 0.32255 0.61152 0.32335 0.0
H403 H 0.33878 0.55057 0.15067 0.0
H404 H 0.24859 0.47571 0.22386 0.0
H405 H 0.29782 0.51186 0.24626 0.0
H406 H 0.28637 0.5941 0.20168 0.0
H407 H 0.23687 0.55782 0.18149 0.0
C408 C 0.3653 0.62658 0.29692 0.0
C409 C 0.38443 0.62006 0.25297 0.0
C410 C 0.33671 0.60587 0.28823 0.0
C411 C 0.32657 0.57807 0.23575 0.0
C412 C 0.34574 0.57151 0.19257 0.0
C413 C 0.37423 0.59215 0.20121 0.0
C414 C 0.25651 0.5015 0.21871 0.0
C415 C 0.23871 0.51381 0.2004 0.0
C416 C 0.28483 0.52228 0.23117 0.0
C417 C 0.29618 0.55598 0.22539 0.0
C418 C 0.27834 0.5683 0.20779 0.0
C419 C 0.24995 0.54747 0.19548 0.0
H420 H 0.70326 0.48263 0.65419 0.0
H421 H 0.7618 0.52783 0.40366 0.0
H422 H 0.70894 0.43572 0.65745 0.0
H423 H 0.76709 0.48051 0.40582 0.0
H424 H 0.78509 0.39797 0.48521 0.0
H425 H 0.78378 0.4478 0.49378 0.0
H426 H 0.69558 0.39124 0.55879 0.0
H427 H 0.69693 0.34191 0.5522 0.0
C428 C 0.71747 0.4827 0.59996 0.0
C429 C 0.73192 0.50911 0.52828 0.0
C430 C 0.72061 0.4556 0.60143 0.0
C431 C 0.73824 0.45396 0.5311 0.0
C432 C 0.75348 0.48088 0.46166 0.0
C433 C 0.75037 0.50807 0.46027 0.0
C434 C 0.76545 0.3962 0.50169 0.0
C435 C 0.74115 0.36575 0.518 0.0
C436 C 0.76467 0.42481 0.50613 0.0
C437 C 0.73959 0.42372 0.52754 0.0
C438 C 0.71539 0.39323 0.54398 0.0
C439 C 0.71615 0.36478 0.53933 0.0
H440 H 0.45752 0.92845 0.29554 0.0
H441 H 0.39734 0.84003 0.46319 0.0
H442 H 0.49156 0.91107 0.30938 0.0
H443 H 0.43169 0.82332 0.48038 0.0
H444 H 0.48425 0.78455 0.35947 0.0
H445 H 0.4527 0.80478 0.36705 0.0
H446 H 0.52094 0.89906 0.42217 0.0
H447 H 0.55309 0.87873 0.41305 0.0
C448 C 0.45156 0.90539 0.33587 0.0
C449 C 0.42448 0.88548 0.37712 0.0
C450 C 0.47125 0.89563 0.34497 0.0
C451 C 0.46436 0.86568 0.3954 0.0
C452 C 0.43762 0.84634 0.43977 0.0
C453 C 0.41796 0.85609 0.43076 0.0
C454 C 0.49274 0.80964 0.37342 0.0
C455 C 0.52138 0.83006 0.38481 0.0
C456 C 0.47446 0.82117 0.37878 0.0
C457 C 0.48417 0.85354 0.39556 0.0
C458 C 0.51278 0.87402 0.4084 0.0
C459 C 0.53119 0.86235 0.40368 0.0
H460 H 0.57843 0.39652 -0.02724 0.0
H461 H 0.52133 0.40586 0.77381 0.0
H462 H 0.53987 0.3468 0.05459 0.0
H463 H 0.48316 0.35605 0.85318 0.0
H464 H 0.41524 0.2787 0.04587 0.0
H465 H 0.45545 0.33239 0.00821 0.0
H466 H 0.50842 0.29133 0.01078 0.0
H467 H 0.46837 0.2377 0.05037 0.0
C468 C 0.55765 0.38806 0.94689 0.0
C469 C 0.55296 0.40498 0.86623 0.0
C470 C 0.53561 0.35953 -0.0066 0.0
C471 C 0.5084 0.34753 0.96082 0.0
C472 C 0.50375 0.36484 0.88134 0.0
C473 C 0.52572 0.39316 0.83469 0.0
C474 C 0.43552 0.28113 0.04108 0.0
C475 C 0.43844 0.25373 0.04929 0.0
C476 C 0.45856 0.31193 0.0186 0.0
C477 C 0.48504 0.31605 0.00408 0.0
C478 C 0.48833 0.28903 0.02127 0.0
C479 C 0.46528 0.2582 0.04373 0.0
H480 H 0.10199 0.39226 0.95063 0.0
H481 H 0.18649 0.4265 0.85629 0.0
H482 H 0.09213 0.40586 0.78173 0.0
H483 H 0.17643 0.43857 0.68708 0.0
H484 H 0.17363 0.50884 0.48166 0.0
H485 H 0.16875 0.48688 0.65465 0.0
H486 H 0.09295 0.40091 0.58794 0.0
H487 H 0.09732 0.42376 0.41538 0.0
C488 C 0.11793 0.40076 0.89226 0.0
C489 C 0.14516 0.40911 0.9158 0.0
C490 C 0.11237 0.40894 0.79624 0.0
C491 C 0.13397 0.42476 0.72385 0.0
C492 C 0.15978 0.42758 0.74346 0.0
C493 C 0.16539 0.41992 0.83932 0.0
C494 C 0.15497 0.48634 0.50582 0.0
C495 C 0.13601 0.46776 0.43621 0.0
C496 C 0.1525 0.47336 0.60383 0.0
C497 C 0.13123 0.44158 0.63217 0.0
C498 C 0.10978 0.42521 0.56682 0.0
C499 C 0.11207 0.43851 0.46878 0.0
H500 H 0.7078 0.2112 0.28047 0.0
H501 H 0.71571 0.30214 0.16907 0.0
H502 H 0.72568 0.20741 0.11951 0.0
H503 H 0.7331 0.29819 0.00896 0.0
H504 H 0.79733 0.31594 0.81109 0.0
H505 H 0.78137 0.30382 -0.01435 0.0
H506 H 0.71803 0.2076 0.9233 0.0
H507 H 0.73504 0.21936 0.74966 0.0
C508 C 0.71203 0.2295 0.21996 0.0
C509 C 0.71095 0.25729 0.23662 0.0
C510 C 0.72267 0.22756 0.12889 0.0
C511 C 0.73196 0.25332 0.05476 0.0
C512 C 0.72712 0.27873 0.06719 0.0
C513 C 0.71659 0.28066 0.15757 0.0
C514 C 0.78138 0.29154 0.83653 0.0
C515 C 0.76714 0.26865 0.76819 0.0
C516 C 0.7719 0.28474 0.93558 0.0
C517 C 0.74781 0.25528 0.96563 0.0
C518 C 0.73644 0.23057 0.90107 0.0
C519 C 0.74632 0.23723 0.80219 0.0
H520 H 0.52931 0.78124 0.08714 0.0
H521 H 0.60616 0.87272 0.06066 0.0
H522 H 0.52021 0.78936 0.91433 0.0
H523 H 0.59724 0.88099 0.88505 0.0
H524 H 0.60422 0.81213 0.65928 0.0
H525 H 0.60403 0.84085 0.79769 0.0
H526 H 0.51881 0.81343 0.74441 0.0
H527 H 0.51916 0.78475 0.60275 0.0
C528 C 0.54389 0.80351 0.04427 0.0
C529 C 0.56922 0.82542 0.0834 0.0
C530 C 0.53835 0.80867 0.94602 0.0
C531 C 0.55868 0.83517 0.88547 0.0
C532 C 0.58159 0.86001 0.93024 0.0
C533 C 0.58695 0.85503 0.0296 0.0
C534 C 0.58558 0.81271 0.67568 0.0
C535 C 0.56149 0.79545 0.6225 0.0
C536 C 0.58566 0.8299 0.75357 0.0
C537 C 0.56137 0.82949 0.78157 0.0
C538 C 0.5378 0.8142 0.72374 0.0
C539 C 0.53782 0.79716 0.64467 0.0
H540 H 0.64963 0.53299 0.20381 0.0
H541 H 0.72697 0.53573 0.25273 0.0
H542 H 0.65697 0.53543 0.02384 0.0
H543 H 0.73499 0.53941 0.0735 0.0
H544 H 0.74425 0.56027 0.73065 0.0
H545 H 0.726 0.52894 0.89244 0.0
H546 H 0.69448 0.59092 0.96073 0.0
H547 H 0.71217 0.62155 0.80006 0.0
C548 C 0.66726 0.53201 0.17608 0.0
C549 C 0.688 0.53473 0.24021 0.0
C550 C 0.67166 0.53375 0.07339 0.0
C551 C 0.69711 0.53903 0.03549 0.0
C552 C 0.71537 0.53572 0.1008 0.0
C553 C 0.71077 0.53358 0.20336 0.0
C554 C 0.73397 0.56753 0.78159 0.0
C555 C 0.72957 0.59329 0.75372 0.0
C556 C 0.7231 0.54926 0.8729 0.0
C557 C 0.7078 0.55666 0.93672 0.0
C558 C 0.70507 0.58372 0.91092 0.0
C559 C 0.71583 0.60182 0.82035 0.0
H560 H 0.27487 0.85571 0.64716 0.0
H561 H 0.19842 0.85273 0.57328 0.0
H562 H 0.2745 0.87668 0.80563 0.0
H563 H 0.19865 0.87506 0.72986 0.0
H564 H 0.20794 0.8965 0.07214 0.0
H565 H 0.19846 0.87231 0.91368 0.0
H566 H 0.28509 0.93237 0.82494 0.0
H567 H 0.29474 0.95509 -0.01381 0.0
C568 C 0.25739 0.85828 0.66674 0.0
C569 C 0.23711 0.85348 0.59718 0.0
C570 C 0.25753 0.87106 0.75607 0.0
C571 C 0.23742 0.87924 0.77672 0.0
C572 C 0.21478 0.86972 0.7144 0.0
C573 C 0.21448 0.85653 0.62526 0.0
C574 C 0.22474 0.90553 0.0172 0.0
C575 C 0.25221 0.92685 0.04214 0.0
C576 C 0.21933 0.8914 0.92674 0.0
C577 C 0.24132 0.89924 0.85987 0.0
C578 C 0.26798 0.92477 0.87782 0.0
C579 C 0.27344 0.93836 0.96887 0.0
H580 H 0.38818 0.22115 0.6967 0.0
H581 H 0.37962 0.127 0.69117 0.0
H582 H 0.3596 0.21137 0.554 0.0
H583 H 0.35523 0.11932 0.53721 0.0
H584 H 0.30876 0.09999 0.28145 0.0
H585 H 0.31621 0.10655 0.45831 0.0
H586 H 0.35638 0.21047 0.39275 0.0
H587 H 0.34582 0.20291 0.22028 0.0
C588 C 0.38064 0.19854 0.66335 0.0
C589 C 0.3851 0.17428 0.70761 0.0
C590 C 0.36438 0.193 0.58017 0.0
C591 C 0.35415 0.16407 0.53391 0.0
C592 C 0.36122 0.14119 0.57282 0.0
C593 C 0.37611 0.14599 0.65969 0.0
C594 C 0.31722 0.12388 0.30714 0.0
C595 C 0.32732 0.15107 0.23875 0.0
C596 C 0.32239 0.12789 0.40806 0.0
C597 C 0.33882 0.15916 0.43981 0.0
C598 C 0.34423 0.18589 0.37277 0.0
C599 C 0.33791 0.18166 0.27291 0.0
loop_
_geom_bond_atom_site_label_1
_geom_bond_atom_site_label_2
_geom_bond_distance
_geom_bond_site_symmetry_2
_ccdc_geom_bond_type
Tb0 C10 2.825 1_556 S
Tb0 O11 2.347 1_556 S
Tb0 O14 2.366 1_556 S
Tb0 O19 2.418 . S
Tb0 O20 2.384 . S
Tb0 O23 2.479 . S
Tb0 O24 2.471 1_556 S
Eu1 O12 2.418 . S
Eu1 O13 2.384 . S
Eu1 O16 2.479 . S
Eu1 O17 2.471 1_554 S
Eu1 O18 2.347 1_554 S
Eu1 O21 2.366 1_554 S
Eu1 C31 2.825 1_554 S
C2 O18 1.259 . S
C2 O19 1.265 . S
C3 O20 1.255 . S
C3 O21 1.265 . S
C4 C6 1.380 . S
C4 C7 1.374 . S
C4 C10 1.507 . S
C5 C6 1.384 . S
C5 C9 1.387 . S
C5 H32 0.930 . S
C6 C4 1.380 . S
C6 C5 1.384 . S
C6 H33 0.931 1_554 S
C7 C4 1.374 . S
C7 C8 1.390 . S
C7 H34 0.930 . S
C8 C7 1.390 . S
C8 C9 1.391 . S
C8 H35 0.930 . S
C9 C5 1.387 . S
C9 C8 1.391 . S
C10 Tb0 2.825 1_554 S
C10 C4 1.507 . S
C10 O23 1.238 1_554 S
C10 O24 1.247 . S
O11 Tb0 2.347 1_554 S
O11 C15 1.259 . S
O12 Eu1 2.418 . S
O12 C15 1.265 . S
O13 Eu1 2.384 . S
O13 C22 1.255 . S
O14 Tb0 2.366 1_554 S
O14 C22 1.265 . S
C15 O11 1.259 . S
C15 O12 1.265 . S
O16 Eu1 2.479 . S
O16 C31 1.238 1_554 S
O17 Eu1 2.471 1_556 S
O17 C31 1.247 . S
O18 Eu1 2.347 1_556 S
O18 C2 1.259 . S
O19 Tb0 2.418 . S
O19 C2 1.265 . S
O20 Tb0 2.384 . S
O20 C3 1.255 . S
O21 Eu1 2.366 1_556 S
O21 C3 1.265 . S
C22 O13 1.255 . S
C22 O14 1.265 . S
O23 Tb0 2.479 . S
O23 C10 1.238 1_556 S
O24 Tb0 2.471 1_554 S
O24 C10 1.247 . S
C25 C28 1.380 . S
C25 C29 1.374 . S
C25 C31 1.507 . S
C26 C27 1.387 . S
C26 C30 1.391 . S
C27 C26 1.387 . S
C27 C28 1.384 . S
C27 H36 0.930 . S
C28 C25 1.380 . S
C28 C27 1.384 . S
C28 H37 0.931 1_556 S
C29 C25 1.374 . S
C29 C30 1.390 . S
C29 H38 0.930 . S
C30 C26 1.391 . S
C30 C29 1.390 . S
C30 H39 0.930 . S
C31 Eu1 2.825 1_556 S
C31 O16 1.238 1_556 S
C31 O17 1.247 . S
C31 C25 1.507 . S
H32 C5 0.930 . S
H33 C6 0.931 1_556 S
H34 C7 0.930 . S
H35 C8 0.930 . S
H36 C27 0.930 . S
H37 C28 0.931 1_554 S
H38 C29 0.930 . S
H39 C30 0.930 . S
Tb40 C50 2.825 1_556 S
Tb40 O51 2.347 1_556 S
Tb40 O54 2.366 . S
Tb40 O59 2.418 . S
Tb40 O60 2.384 . S
Tb40 O63 2.479 . S
Tb40 O64 2.471 1_556 S
Eu41 O52 2.418 . S
Eu41 O53 2.384 . S
Eu41 O56 2.479 . S
Eu41 O57 2.471 1_554 S
Eu41 O58 2.347 1_554 S
Eu41 O61 2.366 . S
Eu41 C71 2.825 1_554 S
C42 O58 1.259 . S
C42 O59 1.265 . S
C43 O60 1.255 . S
C43 O61 1.265 1_556 S
C44 C46 1.380 . S
C44 C47 1.374 . S
C44 C50 1.507 . S
C45 C46 1.384 . S
C45 C49 1.387 . S
C45 H72 0.930 . S
C46 C44 1.380 . S
C46 C45 1.384 . S
C46 H73 0.931 1_554 S
C47 C44 1.374 . S
C47 C48 1.390 . S
C47 H74 0.930 . S
C48 C47 1.390 . S
C48 C49 1.391 . S
C48 H75 0.930 . S
C49 C45 1.387 . S
C49 C48 1.391 . S
C50 Tb40 2.825 1_554 S
C50 C44 1.507 . S
C50 O63 1.238 1_554 S
C50 O64 1.247 . S
O51 Tb40 2.347 1_554 S
O51 C55 1.259 . S
O52 Eu41 2.418 . S
O52 C55 1.265 . S
O53 Eu41 2.384 . S
O53 C62 1.255 . S
O54 Tb40 2.366 . S
O54 C62 1.265 1_556 S
C55 O51 1.259 . S
C55 O52 1.265 . S
O56 Eu41 2.479 . S
O56 C71 1.238 1_554 S
O57 Eu41 2.471 1_556 S
O57 C71 1.247 . S
O58 Eu41 2.347 1_556 S
O58 C42 1.259 . S
O59 Tb40 2.418 . S
O59 C42 1.265 . S
O60 Tb40 2.384 . S
O60 C43 1.255 . S
O61 Eu41 2.366 . S
O61 C43 1.265 1_554 S
C62 O53 1.255 . S
C62 O54 1.265 1_554 S
O63 Tb40 2.479 . S
O63 C50 1.238 1_556 S
O64 Tb40 2.471 1_554 S
O64 C50 1.247 . S
C65 C68 1.380 . S
C65 C69 1.374 . S
C65 C71 1.507 . S
C66 C67 1.387 . S
C66 C70 1.391 . S
C67 C66 1.387 . S
C67 C68 1.384 . S
C67 H76 0.930 . S
C68 C65 1.380 . S
C68 C67 1.384 . S
C68 H77 0.931 1_556 S
C69 C65 1.374 . S
C69 C70 1.390 . S
C69 H78 0.930 . S
C70 C66 1.391 . S
C70 C69 1.390 . S
C70 H79 0.930 . S
C71 Eu41 2.825 1_556 S
C71 O56 1.238 1_556 S
C71 O57 1.247 . S
C71 C65 1.507 . S
H72 C45 0.930 . S
H73 C46 0.931 1_556 S
H74 C47 0.930 . S
H75 C48 0.930 . S
H76 C67 0.930 . S
H77 C68 0.931 1_554 S
H78 C69 0.930 . S
H79 C70 0.930 . S
Tb80 C90 2.825 . S
Tb80 O91 2.347 . S
Tb80 O94 2.366 . S
Tb80 O99 2.418 1_554 S
Tb80 O100 2.384 . S
Tb80 O103 2.479 . S
Tb80 O104 2.471 . S
Eu81 O92 2.418 . S
Eu81 O93 2.384 . S
Eu81 O96 2.479 . S
Eu81 O97 2.471 1_554 S
Eu81 O98 2.347 1_554 S
Eu81 O101 2.366 . S
Eu81 C111 2.825 . S
C82 O98 1.259 . S
C82 O99 1.265 . S
C83 O100 1.255 . S
C83 O101 1.265 . S
C84 C86 1.380 . S
C84 C87 1.374 . S
C84 C90 1.507 . S
C85 C86 1.384 . S
C85 C89 1.387 . S
C85 H112 0.920 1_565 S
C86 C84 1.380 . S
C86 C85 1.384 . S
C86 H113 0.931 . S
C87 C84 1.374 . S
C87 C88 1.390 . S
C87 H114 0.930 . S
C88 C87 1.390 . S
C88 C89 1.391 . S
C88 H115 0.930 . S
C89 C85 1.387 . S
C89 C88 1.391 . S
C90 Tb80 2.825 . S
C90 C84 1.507 . S
C90 O103 1.238 . S
C90 O104 1.247 . S
O91 Tb80 2.347 . S
O91 C95 1.259 . S
O92 Eu81 2.418 . S
O92 C95 1.265 . S
O93 Eu81 2.384 . S
O93 C102 1.255 . S
O94 Tb80 2.366 . S
O94 C102 1.265 . S
C95 O91 1.259 . S
C95 O92 1.265 . S
O96 Eu81 2.479 . S
O96 C111 1.238 . S
O97 Eu81 2.471 1_556 S
O97 C111 1.247 1_556 S
O98 Eu81 2.347 1_556 S
O98 C82 1.259 . S
O99 Tb80 2.418 1_556 S
O99 C82 1.265 . S
O100 Tb80 2.384 . S
O100 C83 1.255 . S
O101 Eu81 2.366 . S
O101 C83 1.265 . S
C102 O93 1.255 . S
C102 O94 1.265 . S
O103 Tb80 2.479 . S
O103 C90 1.238 . S
O104 Tb80 2.471 . S
O104 C90 1.247 . S
C105 C108 1.380 . S
C105 C109 1.374 1_554 S
C105 C111 1.507 . S
C106 C107 1.387 1_556 S
C106 C110 1.391 . S
C107 C106 1.387 1_554 S
C107 C108 1.384 . S
C107 H116 0.930 . S
C108 C105 1.380 . S
C108 C107 1.384 . S
C108 H117 0.931 . S
C109 C105 1.374 1_556 S
C109 C110 1.390 . S
C109 H118 0.930 . S
C110 C106 1.391 . S
C110 C109 1.390 . S
C110 H119 0.930 . S
C111 Eu81 2.825 . S
C111 O96 1.238 . S
C111 O97 1.247 1_554 S
C111 C105 1.507 . S
H112 C85 0.920 1_545 S
H113 C86 0.931 . S
H114 C87 0.930 . S
H115 C88 0.930 . S
H116 C107 0.930 . S
H117 C108 0.931 . S
H118 C109 0.930 . S
H119 C110 0.930 . S
Tb120 C130 2.825 . S
Tb120 O131 2.347 . S
Tb120 O134 2.366 . S
Tb120 O139 2.418 1_556 S
Tb120 O140 2.384 . S
Tb120 O143 2.479 . S
Tb120 O144 2.471 . S
Eu121 O132 2.418 . S
Eu121 O133 2.384 . S
Eu121 O136 2.479 . S
Eu121 O137 2.471 1_556 S
Eu121 O138 2.347 1_556 S
Eu121 O141 2.366 . S
Eu121 C151 2.825 1_556 S
C122 O138 1.259 . S
C122 O139 1.265 . S
C123 O140 1.255 . S
C123 O141 1.265 . S
C124 C126 1.380 . S
C124 C127 1.374 . S
C124 C130 1.507 . S
C125 C126 1.384 . S
C125 C129 1.387 . S
C125 H152 0.930 . S
C126 C124 1.380 . S
C126 C125 1.384 . S
C126 H153 0.931 . S
C127 C124 1.374 . S
C127 C128 1.390 . S
C127 H154 0.930 . S
C128 C127 1.390 . S
C128 C129 1.391 . S
C128 H155 0.930 . S
C129 C125 1.387 . S
C129 C128 1.391 . S
C130 Tb120 2.825 . S
C130 C124 1.507 . S
C130 O143 1.238 . S
C130 O144 1.247 . S
O131 Tb120 2.347 . S
O131 C135 1.259 . S
O132 Eu121 2.418 . S
O132 C135 1.265 . S
O133 Eu121 2.384 . S
O133 C142 1.255 . S
O134 Tb120 2.366 . S
O134 C142 1.265 . S
C135 O131 1.259 . S
C135 O132 1.265 . S
O136 Eu121 2.479 . S
O136 C151 1.238 1_556 S
O137 Eu121 2.471 1_554 S
O137 C151 1.247 . S
O138 Eu121 2.347 1_554 S
O138 C122 1.259 . S
O139 Tb120 2.418 1_554 S
O139 C122 1.265 . S
O140 Tb120 2.384 . S
O140 C123 1.255 . S
O141 Eu121 2.366 . S
O141 C123 1.265 . S
C142 O133 1.255 . S
C142 O134 1.265 . S
O143 Tb120 2.479 . S
O143 C130 1.238 . S
O144 Tb120 2.471 . S
O144 C130 1.247 . S
C145 C148 1.380 1_554 S
C145 C149 1.374 . S
C145 C151 1.507 . S
C146 C147 1.387 . S
C146 C150 1.391 . S
C147 C146 1.387 . S
C147 C148 1.384 1_554 S
C147 H156 0.930 1_554 S
C148 C145 1.380 1_556 S
C148 C147 1.384 1_556 S
C148 H157 0.931 . S
C149 C145 1.374 . S
C149 C150 1.390 . S
C149 H158 0.930 . S
C150 C146 1.391 . S
C150 C149 1.390 . S
C150 H159 0.930 . S
C151 Eu121 2.825 1_554 S
C151 O136 1.238 1_554 S
C151 O137 1.247 . S
C151 C145 1.507 . S
H152 C125 0.930 . S
H153 C126 0.931 . S
H154 C127 0.930 . S
H155 C128 0.930 . S
H156 C147 0.930 1_556 S
H157 C148 0.931 . S
H158 C149 0.930 . S
H159 C150 0.930 . S
Tb160 C170 2.825 . S
Tb160 O171 2.347 . S
Tb160 O174 2.366 . S
Tb160 O179 2.418 1_554 S
Tb160 O180 2.384 . S
Tb160 O183 2.479 . S
Tb160 O184 2.471 . S
Eu161 O172 2.418 . S
Eu161 O173 2.384 . S
Eu161 O176 2.479 . S
Eu161 O177 2.471 1_554 S
Eu161 O178 2.347 1_554 S
Eu161 O181 2.366 . S
Eu161 C191 2.825 . S
C162 O178 1.259 . S
C162 O179 1.265 . S
C163 O180 1.255 . S
C163 O181 1.265 . S
C164 C166 1.380 . S
C164 C167 1.374 . S
C164 C170 1.507 . S
C165 C166 1.384 . S
C165 C169 1.387 . S
C165 H192 0.930 . S
C166 C164 1.380 . S
C166 C165 1.384 . S
C166 H193 0.931 . S
C167 C164 1.374 . S
C167 C168 1.390 . S
C167 H194 0.930 . S
C168 C167 1.390 . S
C168 C169 1.391 . S
C168 H195 0.930 . S
C169 C165 1.387 . S
C169 C168 1.391 . S
C170 Tb160 2.825 . S
C170 C164 1.507 . S
C170 O183 1.238 . S
C170 O184 1.247 . S
O171 Tb160 2.347 . S
O171 C175 1.259 . S
O172 Eu161 2.418 . S
O172 C175 1.265 . S
O173 Eu161 2.384 . S
O173 C182 1.255 . S
O174 Tb160 2.366 . S
O174 C182 1.265 . S
C175 O171 1.259 . S
C175 O172 1.265 . S
O176 Eu161 2.479 . S
O176 C191 1.238 . S
O177 Eu161 2.471 1_556 S
O177 C191 1.247 1_556 S
O178 Eu161 2.347 1_556 S
O178 C162 1.259 . S
O179 Tb160 2.418 1_556 S
O179 C162 1.265 . S
O180 Tb160 2.384 . S
O180 C163 1.255 . S
O181 Eu161 2.366 . S
O181 C163 1.265 . S
C182 O173 1.255 . S
C182 O174 1.265 . S
O183 Tb160 2.479 . S
O183 C170 1.238 . S
O184 Tb160 2.471 . S
O184 C170 1.247 . S
C185 C188 1.380 1_556 S
C185 C189 1.374 . S
C185 C191 1.507 1_556 S
C186 C187 1.387 . S
C186 C190 1.391 . S
C187 C186 1.387 . S
C187 C188 1.384 1_556 S
C187 H196 0.930 1_556 S
C188 C185 1.380 1_554 S
C188 C187 1.384 1_554 S
C188 H197 0.931 . S
C189 C185 1.374 . S
C189 C190 1.390 . S
C189 H198 0.930 . S
C190 C186 1.391 . S
C190 C189 1.390 . S
C190 H199 0.930 . S
C191 Eu161 2.825 . S
C191 O176 1.238 . S
C191 O177 1.247 1_554 S
C191 C185 1.507 1_554 S
H192 C165 0.930 . S
H193 C166 0.931 . S
H194 C167 0.930 . S
H195 C168 0.930 . S
H196 C187 0.930 1_554 S
H197 C188 0.931 . S
H198 C189 0.930 . S
H199 C190 0.930 . S
Tb200 C210 2.825 1_554 S
Tb200 O211 2.347 1_554 S
Tb200 O214 2.366 1_554 S
Tb200 O219 2.418 . S
Tb200 O220 2.384 . S
Tb200 O223 2.479 . S
Tb200 O224 2.471 1_554 S
Eu201 O212 2.418 . S
Eu201 O213 2.384 . S
Eu201 O216 2.479 . S
Eu201 O217 2.471 1_556 S
Eu201 O218 2.347 1_556 S
Eu201 O221 2.366 1_556 S
Eu201 C231 2.825 1_556 S
C202 O218 1.259 . S
C202 O219 1.265 . S
C203 O220 1.255 . S
C203 O221 1.265 . S
C204 C206 1.380 . S
C204 C207 1.374 . S
C204 C210 1.507 . S
C205 C206 1.384 . S
C205 C209 1.387 . S
C205 H232 0.930 . S
C206 C204 1.380 . S
C206 C205 1.384 . S
C206 H233 0.931 1_556 S
C207 C204 1.374 . S
C207 C208 1.390 . S
C207 H234 0.930 . S
C208 C207 1.390 . S
C208 C209 1.391 . S
C208 H235 0.930 . S
C209 C205 1.387 . S
C209 C208 1.391 . S
C210 Tb200 2.825 1_556 S
C210 C204 1.507 . S
C210 O223 1.238 1_556 S
C210 O224 1.247 . S
O211 Tb200 2.347 1_556 S
O211 C215 1.259 . S
O212 Eu201 2.418 . S
O212 C215 1.265 . S
O213 Eu201 2.384 . S
O213 C222 1.255 . S
O214 Tb200 2.366 1_556 S
O214 C222 1.265 . S
C215 O211 1.259 . S
C215 O212 1.265 . S
O216 Eu201 2.479 . S
O216 C231 1.238 1_556 S
O217 Eu201 2.471 1_554 S
O217 C231 1.247 . S
O218 Eu201 2.347 1_554 S
O218 C202 1.259 . S
O219 Tb200 2.418 . S
O219 C202 1.265 . S
O220 Tb200 2.384 . S
O220 C203 1.255 . S
O221 Eu201 2.366 1_554 S
O221 C203 1.265 . S
C222 O213 1.255 . S
C222 O214 1.265 . S
O223 Tb200 2.479 . S
O223 C210 1.238 1_554 S
O224 Tb200 2.471 1_556 S
O224 C210 1.247 . S
C225 C228 1.380 . S
C225 C229 1.374 . S
C225 C231 1.507 . S
C226 C227 1.387 . S
C226 C230 1.391 . S
C227 C226 1.387 . S
C227 C228 1.384 . S
C227 H236 0.930 . S
C228 C225 1.380 . S
C228 C227 1.384 . S
C228 H237 0.931 1_554 S
C229 C225 1.374 . S
C229 C230 1.390 . S
C229 H238 0.930 . S
C230 C226 1.391 . S
C230 C229 1.390 . S
C230 H239 0.930 . S
C231 Eu201 2.825 1_554 S
C231 O216 1.238 1_554 S
C231 O217 1.247 . S
C231 C225 1.507 . S
H232 C205 0.930 . S
H233 C206 0.931 1_554 S
H234 C207 0.930 . S
H235 C208 0.930 . S
H236 C227 0.930 . S
H237 C228 0.931 1_556 S
H238 C229 0.930 . S
H239 C230 0.930 . S
H240 C248 0.950 . S
H241 C253 0.950 . S
H242 C250 0.950 . S
H243 C252 0.950 . S
H244 C254 0.950 . S
H245 C256 0.950 . S
H246 C258 0.950 . S
H247 C259 0.950 . S
C248 H240 0.950 . S
C248 C249 1.386 . S
C248 C250 1.391 . S
C249 C248 1.386 . S
C249 C253 1.393 . S
C250 H242 0.950 . S
C250 C248 1.391 . S
C250 C251 1.400 . S
C251 C250 1.400 . S
C251 C252 1.398 . S
C251 C257 1.491 . S
C252 H243 0.950 . S
C252 C251 1.398 . S
C252 C253 1.391 . S
C253 H241 0.950 . S
C253 C249 1.393 . S
C253 C252 1.391 . S
C254 H244 0.950 . S
C254 C255 1.386 . S
C254 C256 1.391 . S
C255 C254 1.386 . S
C255 C259 1.393 . S
C256 H245 0.950 . S
C256 C254 1.391 . S
C256 C257 1.400 . S
C257 C251 1.491 . S
C257 C256 1.400 . S
C257 C258 1.398 . S
C258 H246 0.950 . S
C258 C257 1.398 . S
C258 C259 1.391 . S
C259 H247 0.950 . S
C259 C255 1.393 . S
C259 C258 1.391 . S
H260 C268 0.950 . S
H261 C273 0.950 . S
H262 C270 0.950 . S
H263 C272 0.950 1_655 S
H264 C274 0.950 . S
H265 C276 0.950 . S
H266 C278 0.950 . S
H267 C279 0.950 . S
C268 H260 0.950 . S
C268 C269 1.386 . S
C268 C270 1.391 . S
C269 C268 1.386 . S
C269 C273 1.393 . S
C270 H262 0.950 . S
C270 C268 1.391 . S
C270 C271 1.400 . S
C271 C270 1.400 . S
C271 C272 1.398 . S
C271 C277 1.491 1_455 S
C272 H263 0.950 1_455 S
C272 C271 1.398 . S
C272 C273 1.391 . S
C273 H261 0.950 . S
C273 C269 1.393 . S
C273 C272 1.391 . S
C274 H264 0.950 . S
C274 C275 1.386 . S
C274 C276 1.391 . S
C275 C274 1.386 . S
C275 C279 1.393 . S
C276 H265 0.950 . S
C276 C274 1.391 . S
C276 C277 1.400 . S
C277 C271 1.491 1_655 S
C277 C276 1.400 . S
C277 C278 1.398 1_655 S
C278 H266 0.950 . S
C278 C277 1.398 1_455 S
C278 C279 1.391 1_455 S
C279 H267 0.950 . S
C279 C275 1.393 . S
C279 C278 1.391 1_655 S
H280 C288 0.950 . S
H281 C293 0.950 . S
H282 C290 0.950 . S
H283 C292 0.950 . S
H284 C294 0.950 . S
H285 C296 0.950 . S
H286 C298 0.950 . S
H287 C299 0.950 . S
C288 H280 0.950 . S
C288 C289 1.386 . S
C288 C290 1.391 . S
C289 C288 1.386 . S
C289 C293 1.393 . S
C290 H282 0.950 . S
C290 C288 1.391 . S
C290 C291 1.400 . S
C291 C290 1.400 . S
C291 C292 1.398 . S
C291 C297 1.491 . S
C292 H283 0.950 . S
C292 C291 1.398 . S
C292 C293 1.391 . S
C293 H281 0.950 . S
C293 C289 1.393 . S
C293 C292 1.391 . S
C294 H284 0.950 . S
C294 C295 1.386 . S
C294 C296 1.391 . S
C295 C294 1.386 . S
C295 C299 1.393 . S
C296 H285 0.950 . S
C296 C294 1.391 . S
C296 C297 1.400 . S
C297 C291 1.491 . S
C297 C296 1.400 . S
C297 C298 1.398 . S
C298 H286 0.950 . S
C298 C297 1.398 . S
C298 C299 1.391 . S
C299 H287 0.950 . S
C299 C295 1.393 . S
C299 C298 1.391 . S
H300 C308 0.950 . S
H301 C313 0.950 . S
H302 C310 0.950 . S
H303 C312 0.950 . S
H304 C314 0.950 . S
H305 C316 0.950 . S
H306 C318 0.950 . S
H307 C319 0.950 . S
C308 H300 0.950 . S
C308 C309 1.386 . S
C308 C310 1.391 . S
C309 C308 1.386 . S
C309 C313 1.393 . S
C310 H302 0.950 . S
C310 C308 1.391 . S
C310 C311 1.400 . S
C311 C310 1.400 . S
C311 C312 1.398 . S
C311 C317 1.491 . S
C312 H303 0.950 . S
C312 C311 1.398 . S
C312 C313 1.391 . S
C313 H301 0.950 . S
C313 C309 1.393 . S
C313 C312 1.391 . S
C314 H304 0.950 . S
C314 C315 1.386 . S
C314 C316 1.391 . S
C315 C314 1.386 . S
C315 C319 1.393 . S
C316 H305 0.950 . S
C316 C314 1.391 . S
C316 C317 1.400 . S
C317 C311 1.491 . S
C317 C316 1.400 . S
C317 C318 1.398 . S
C318 H306 0.950 . S
C318 C317 1.398 . S
C318 C319 1.391 . S
C319 H307 0.950 . S
C319 C315 1.393 . S
C319 C318 1.391 . S
H320 C328 0.950 . S
H321 C333 0.950 . S
H322 C330 0.950 . S
H323 C332 0.950 . S
H324 C334 0.950 . S
H325 C336 0.950 . S
H326 C338 0.950 . S
H327 C339 0.950 . S
C328 H320 0.950 . S
C328 C329 1.386 . S
C328 C330 1.391 1_455 S
C329 C328 1.386 . S
C329 C333 1.393 1_455 S
C330 H322 0.950 . S
C330 C328 1.391 1_655 S
C330 C331 1.400 . S
C331 C330 1.400 . S
C331 C332 1.398 . S
C331 C337 1.491 . S
C332 H323 0.950 . S
C332 C331 1.398 . S
C332 C333 1.391 . S
C333 H321 0.950 . S
C333 C329 1.393 1_655 S
C333 C332 1.391 . S
C334 H324 0.950 . S
C334 C335 1.386 . S
C334 C336 1.391 . S
C335 C334 1.386 . S
C335 C339 1.393 . S
C336 H325 0.950 . S
C336 C334 1.391 . S
C336 C337 1.400 . S
C337 C331 1.491 . S
C337 C336 1.400 . S
C337 C338 1.398 . S
C338 H326 0.950 . S
C338 C337 1.398 . S
C338 C339 1.391 . S
C339 H327 0.950 . S
C339 C335 1.393 . S
C339 C338 1.391 . S
H340 C348 0.950 1_545 S
H341 C353 0.950 . S
H342 C350 0.950 . S
H343 C352 0.950 . S
H344 C354 0.950 . S
H345 C356 0.950 1_565 S
H346 C358 0.950 . S
H347 C359 0.950 . S
C348 H340 0.950 1_565 S
C348 C349 1.386 . S
C348 C350 1.391 1_565 S
C349 C348 1.386 . S
C349 C353 1.393 . S
C350 H342 0.950 . S
C350 C348 1.391 1_545 S
C350 C351 1.404 1_545 S
C351 C350 1.404 1_565 S
C351 C352 1.401 . S
C351 C357 1.485 1_565 S
C352 H343 0.950 . S
C352 C351 1.401 . S
C352 C353 1.391 . S
C353 H341 0.950 . S
C353 C349 1.393 . S
C353 C352 1.391 . S
C354 H344 0.950 . S
C354 C355 1.386 . S
C354 C356 1.391 . S
C355 C354 1.386 . S
C355 C359 1.393 . S
C356 H345 0.950 1_545 S
C356 C354 1.391 . S
C356 C357 1.400 . S
C357 C351 1.485 1_545 S
C357 C356 1.400 . S
C357 C358 1.398 . S
C358 H346 0.950 . S
C358 C357 1.398 . S
C358 C359 1.391 . S
C359 H347 0.950 . S
C359 C355 1.393 . S
C359 C358 1.391 . S
H360 C368 0.950 . S
H361 C373 0.950 . S
H362 C370 0.950 . S
H363 C372 0.950 . S
H364 C374 0.950 . S
H365 C376 0.950 . S
H366 C378 0.950 . S
H367 C379 0.950 . S
C368 H360 0.950 . S
C368 C369 1.386 . S
C368 C370 1.391 . S
C369 C368 1.386 . S
C369 C373 1.393 1_554 S
C370 H362 0.950 . S
C370 C368 1.391 . S
C370 C371 1.400 1_554 S
C371 C370 1.400 1_556 S
C371 C372 1.398 . S
C371 C377 1.491 . S
C372 H363 0.950 . S
C372 C371 1.398 . S
C372 C373 1.391 . S
C373 H361 0.950 . S
C373 C369 1.393 1_556 S
C373 C372 1.391 . S
C374 H364 0.950 . S
C374 C375 1.386 . S
C374 C376 1.391 . S
C375 C374 1.386 . S
C375 C379 1.393 . S
C376 H365 0.950 . S
C376 C374 1.391 . S
C376 C377 1.400 . S
C377 C371 1.491 . S
C377 C376 1.400 . S
C377 C378 1.398 . S
C378 H366 0.950 . S
C378 C377 1.398 . S
C378 C379 1.391 . S
C379 H367 0.950 . S
C379 C375 1.393 . S
C379 C378 1.391 . S
H380 C388 0.950 . S
H381 C393 0.950 . S
H382 C390 0.950 . S
H383 C392 0.950 . S
H384 C394 0.950 . S
H385 C396 0.950 . S
H386 C398 0.950 . S
H387 C399 0.950 . S
C388 H380 0.950 . S
C388 C389 1.386 . S
C388 C390 1.391 . S
C389 C388 1.386 . S
C389 C393 1.393 . S
C390 H382 0.950 . S
C390 C388 1.391 . S
C390 C391 1.400 . S
C391 C390 1.400 . S
C391 C392 1.398 . S
C391 C397 1.491 . S
C392 H383 0.950 . S
C392 C391 1.398 . S
C392 C393 1.391 . S
C393 H381 0.950 . S
C393 C389 1.393 . S
C393 C392 1.391 . S
C394 H384 0.950 . S
C394 C395 1.386 . S
C394 C396 1.391 . S
C395 C394 1.386 . S
C395 C399 1.393 . S
C396 H385 0.950 . S
C396 C394 1.391 . S
C396 C397 1.400 . S
C397 C391 1.491 . S
C397 C396 1.400 . S
C397 C398 1.398 . S
C398 H386 0.950 . S
C398 C397 1.398 . S
C398 C399 1.391 . S
C399 H387 0.950 . S
C399 C395 1.393 . S
C399 C398 1.391 . S
H400 C408 0.950 1_554 S
H401 C413 0.950 . S
H402 C410 0.945 1_554 S
H403 C412 0.950 . S
H404 C414 0.950 . S
H405 C416 0.950 . S
H406 C418 0.950 . S
H407 C419 0.950 . S
C408 H400 0.950 1_556 S
C408 C409 1.386 . S
C408 C410 1.391 . S
C409 C408 1.386 . S
C409 C413 1.393 . S
C410 H402 0.945 1_556 S
C410 C408 1.391 . S
C410 C411 1.405 . S
C411 C410 1.405 . S
C411 C412 1.398 . S
C411 C417 1.491 . S
C412 H403 0.950 . S
C412 C411 1.398 . S
C412 C413 1.391 . S
C413 H401 0.950 . S
C413 C409 1.393 . S
C413 C412 1.391 . S
C414 H404 0.950 . S
C414 C415 1.386 . S
C414 C416 1.391 . S
C415 C414 1.386 . S
C415 C419 1.393 1_556 S
C416 H405 0.950 . S
C416 C414 1.391 . S
C416 C417 1.400 . S
C417 C411 1.491 . S
C417 C416 1.400 . S
C417 C418 1.398 1_556 S
C418 H406 0.950 . S
C418 C417 1.398 1_554 S
C418 C419 1.391 . S
C419 H407 0.950 . S
C419 C415 1.393 1_554 S
C419 C418 1.391 . S
H420 C428 0.950 . S
H421 C433 0.950 . S
H422 C430 0.950 . S
H423 C432 0.950 . S
H424 C434 0.950 . S
H425 C436 0.950 . S
H426 C438 0.950 . S
H427 C439 0.950 . S
C428 H420 0.950 . S
C428 C429 1.386 1_554 S
C428 C430 1.391 . S
C429 C428 1.386 1_556 S
C429 C433 1.393 . S
C430 H422 0.950 . S
C430 C428 1.391 . S
C430 C431 1.400 . S
C431 C430 1.400 . S
C431 C432 1.398 1_554 S
C431 C437 1.491 . S
C432 H423 0.950 . S
C432 C431 1.398 1_556 S
C432 C433 1.391 . S
C433 H421 0.950 . S
C433 C429 1.393 . S
C433 C432 1.391 . S
C434 H424 0.950 . S
C434 C435 1.386 1_556 S
C434 C436 1.391 . S
C435 C434 1.386 1_554 S
C435 C439 1.393 . S
C436 H425 0.950 . S
C436 C434 1.391 . S
C436 C437 1.400 1_556 S
C437 C431 1.491 . S
C437 C436 1.400 1_554 S
C437 C438 1.398 . S
C438 H426 0.950 . S
C438 C437 1.398 . S
C438 C439 1.391 . S
C439 H427 0.950 . S
C439 C435 1.393 . S
C439 C438 1.391 . S
H440 C448 0.950 . S
H441 C453 0.950 1_554 S
H442 C450 0.950 . S
H443 C452 0.950 . S
H444 C454 0.950 . S
H445 C456 0.950 . S
H446 C458 0.950 . S
H447 C459 0.950 . S
C448 H440 0.950 . S
C448 C449 1.386 . S
C448 C450 1.391 . S
C449 C448 1.386 . S
C449 C453 1.393 . S
C450 H442 0.950 . S
C450 C448 1.391 . S
C450 C451 1.400 . S
C451 C450 1.400 . S
C451 C452 1.398 1_556 S
C451 C457 1.491 . S
C452 H443 0.950 . S
C452 C451 1.398 1_554 S
C452 C453 1.391 1_554 S
C453 H441 0.950 1_556 S
C453 C449 1.393 . S
C453 C452 1.391 1_556 S
C454 H444 0.950 . S
C454 C455 1.386 . S
C454 C456 1.391 . S
C455 C454 1.386 . S
C455 C459 1.393 1_554 S
C456 H445 0.950 . S
C456 C454 1.391 . S
C456 C457 1.400 1_554 S
C457 C451 1.491 . S
C457 C456 1.400 1_556 S
C457 C458 1.398 . S
C458 H446 0.950 . S
C458 C457 1.398 . S
C458 C459 1.391 . S
C459 H447 0.950 . S
C459 C455 1.393 1_556 S
C459 C458 1.391 . S
H460 C468 0.950 . S
H461 C473 0.950 1_556 S
H462 C470 0.950 . S
H463 C472 0.950 1_556 S
H464 C474 0.950 . S
H465 C476 0.950 . S
H466 C478 0.950 . S
H467 C479 0.950 . S
C468 H460 0.950 . S
C468 C469 1.386 . S
C468 C470 1.391 . S
C469 C468 1.386 . S
C469 C473 1.393 . S
C470 H462 0.950 . S
C470 C468 1.391 . S
C470 C471 1.400 . S
C471 C470 1.400 . S
C471 C472 1.398 . S
C471 C477 1.491 . S
C472 H463 0.950 1_554 S
C472 C471 1.398 . S
C472 C473 1.391 . S
C473 H461 0.950 1_554 S
C473 C469 1.393 . S
C473 C472 1.391 . S
C474 H464 0.950 . S
C474 C475 1.386 1_556 S
C474 C476 1.391 . S
C475 C474 1.386 1_554 S
C475 C479 1.393 . S
C476 H465 0.950 . S
C476 C474 1.391 . S
C476 C477 1.400 1_556 S
C477 C471 1.491 . S
C477 C476 1.400 1_554 S
C477 C478 1.398 . S
C478 H466 0.950 . S
C478 C477 1.398 . S
C478 C479 1.391 . S
C479 H467 0.950 . S
C479 C475 1.393 . S
C479 C478 1.391 . S
H480 C488 0.950 . S
H481 C493 0.950 . S
H482 C490 0.950 . S
H483 C492 0.950 . S
H484 C494 0.950 . S
H485 C496 0.950 . S
H486 C498 0.950 . S
H487 C499 0.950 . S
C488 H480 0.950 . S
C488 C489 1.386 . S
C488 C490 1.391 . S
C489 C488 1.386 . S
C489 C493 1.393 . S
C490 H482 0.950 . S
C490 C488 1.391 . S
C490 C491 1.400 . S
C491 C490 1.400 . S
C491 C492 1.398 . S
C491 C497 1.491 . S
C492 H483 0.950 . S
C492 C491 1.398 . S
C492 C493 1.391 . S
C493 H481 0.950 . S
C493 C489 1.393 . S
C493 C492 1.391 . S
C494 H484 0.950 . S
C494 C495 1.386 . S
C494 C496 1.391 . S
C495 C494 1.386 . S
C495 C499 1.393 . S
C496 H485 0.950 . S
C496 C494 1.391 . S
C496 C497 1.400 . S
C497 C491 1.491 . S
C497 C496 1.400 . S
C497 C498 1.398 . S
C498 H486 0.950 . S
C498 C497 1.398 . S
C498 C499 1.391 . S
C499 H487 0.950 . S
C499 C495 1.393 . S
C499 C498 1.391 . S
H500 C508 0.950 . S
H501 C513 0.950 . S
H502 C510 0.950 . S
H503 C512 0.950 . S
H504 C514 0.950 . S
H505 C516 0.950 . S
H506 C518 0.950 . S
H507 C519 0.950 . S
C508 H500 0.950 . S
C508 C509 1.386 . S
C508 C510 1.391 . S
C509 C508 1.386 . S
C509 C513 1.393 . S
C510 H502 0.950 . S
C510 C508 1.391 . S
C510 C511 1.400 . S
C511 C510 1.400 . S
C511 C512 1.398 . S
C511 C517 1.491 . S
C512 H503 0.950 . S
C512 C511 1.398 . S
C512 C513 1.391 . S
C513 H501 0.950 . S
C513 C509 1.393 . S
C513 C512 1.391 . S
C514 H504 0.950 . S
C514 C515 1.386 . S
C514 C516 1.391 . S
C515 C514 1.386 . S
C515 C519 1.393 . S
C516 H505 0.950 . S
C516 C514 1.391 . S
C516 C517 1.400 . S
C517 C511 1.491 . S
C517 C516 1.400 . S
C517 C518 1.398 . S
C518 H506 0.950 . S
C518 C517 1.398 . S
C518 C519 1.391 . S
C519 H507 0.950 . S
C519 C515 1.393 . S
C519 C518 1.391 . S
H520 C528 0.950 . S
H521 C533 0.950 . S
H522 C530 0.950 . S
H523 C532 0.950 . S
H524 C534 0.950 . S
H525 C536 0.950 . S
H526 C538 0.950 . S
H527 C539 0.950 . S
C528 H520 0.950 . S
C528 C529 1.386 . S
C528 C530 1.391 . S
C529 C528 1.386 . S
C529 C533 1.393 . S
C530 H522 0.950 . S
C530 C528 1.391 . S
C530 C531 1.400 . S
C531 C530 1.400 . S
C531 C532 1.398 . S
C531 C537 1.491 . S
C532 H523 0.950 . S
C532 C531 1.398 . S
C532 C533 1.391 . S
C533 H521 0.950 . S
C533 C529 1.393 . S
C533 C532 1.391 . S
C534 H524 0.950 . S
C534 C535 1.386 . S
C534 C536 1.391 . S
C535 C534 1.386 . S
C535 C539 1.393 . S
C536 H525 0.950 . S
C536 C534 1.391 . S
C536 C537 1.400 . S
C537 C531 1.491 . S
C537 C536 1.400 . S
C537 C538 1.398 . S
C538 H526 0.950 . S
C538 C537 1.398 . S
C538 C539 1.391 . S
C539 H527 0.950 . S
C539 C535 1.393 . S
C539 C538 1.391 . S
H540 C548 0.950 . S
H541 C553 0.950 . S
H542 C550 0.950 . S
H543 C552 0.950 . S
H544 C554 0.950 . S
H545 C556 0.950 . S
H546 C558 0.950 . S
H547 C559 0.950 . S
C548 H540 0.950 . S
C548 C549 1.386 . S
C548 C550 1.391 . S
C549 C548 1.386 . S
C549 C553 1.393 . S
C550 H542 0.950 . S
C550 C548 1.391 . S
C550 C551 1.400 . S
C551 C550 1.400 . S
C551 C552 1.398 . S
C551 C557 1.491 . S
C552 H543 0.950 . S
C552 C551 1.398 . S
C552 C553 1.391 . S
C553 H541 0.950 . S
C553 C549 1.393 . S
C553 C552 1.391 . S
C554 H544 0.950 . S
C554 C555 1.386 . S
C554 C556 1.391 . S
C555 C554 1.386 . S
C555 C559 1.393 . S
C556 H545 0.950 . S
C556 C554 1.391 . S
C556 C557 1.400 . S
C557 C551 1.491 . S
C557 C556 1.400 . S
C557 C558 1.398 . S
C558 H546 0.950 . S
C558 C557 1.398 . S
C558 C559 1.391 . S
C559 H547 0.950 . S
C559 C555 1.393 . S
C559 C558 1.391 . S
H560 C568 0.950 . S
H561 C573 0.950 . S
H562 C570 0.950 . S
H563 C572 0.950 . S
H564 C574 0.950 . S
H565 C576 0.950 . S
H566 C578 0.950 . S
H567 C579 0.950 . S
C568 H560 0.950 . S
C568 C569 1.386 . S
C568 C570 1.391 . S
C569 C568 1.386 . S
C569 C573 1.393 . S
C570 H562 0.950 . S
C570 C568 1.391 . S
C570 C571 1.400 . S
C571 C570 1.400 . S
C571 C572 1.398 . S
C571 C577 1.491 . S
C572 H563 0.950 . S
C572 C571 1.398 . S
C572 C573 1.391 . S
C573 H561 0.950 . S
C573 C569 1.393 . S
C573 C572 1.391 . S
C574 H564 0.950 . S
C574 C575 1.386 . S
C574 C576 1.391 . S
C575 C574 1.386 . S
C575 C579 1.393 . S
C576 H565 0.950 . S
C576 C574 1.391 . S
C576 C577 1.400 . S
C577 C571 1.491 . S
C577 C576 1.400 . S
C577 C578 1.398 . S
C578 H566 0.950 . S
C578 C577 1.398 . S
C578 C579 1.391 . S
C579 H567 0.950 . S
C579 C575 1.393 . S
C579 C578 1.391 . S
H580 C588 0.950 . S
H581 C593 0.950 . S
H582 C590 0.950 . S
H583 C592 0.950 . S
H584 C594 0.950 . S
H585 C596 0.950 . S
H586 C598 0.950 . S
H587 C599 0.950 . S
C588 H580 0.950 . S
C588 C589 1.386 . S
C588 C590 1.391 . S
C589 C588 1.386 . S
C589 C593 1.393 . S
C590 H582 0.950 . S
C590 C588 1.391 . S
C590 C591 1.400 . S
C591 C590 1.400 . S
C591 C592 1.398 . S
C591 C597 1.491 . S
C592 H583 0.950 . S
C592 C591 1.398 . S
C592 C593 1.391 . S
C593 H581 0.950 . S
C593 C589 1.393 . S
C593 C592 1.391 . S
C594 H584 0.950 . S
C594 C595 1.386 . S
C594 C596 1.391 . S
C595 C594 1.386 . S
C595 C599 1.393 . S
C596 H585 0.950 . S
C596 C594 1.391 . S
C596 C597 1.400 . S
C597 C591 1.491 . S
C597 C596 1.400 . S
C597 C598 1.398 . S
C598 H586 0.950 . S
C598 C597 1.398 . S
C598 C599 1.391 . S
C599 H587 0.950 . S
C599 C595 1.393 . S
C599 C598 1.391 . S
C249 C209 1.945 . S
C255 C9 2.080 . S
C269 C22 3.570 . S
C275 C66 3.406 . S
C289 C43 2.708 . S
C295 C89 2.482 1_545 S
C309 C142 4.406 . S
C315 C102 4.328 . S
C329 C169 2.550 . S
C335 C129 2.648 . S
C349 C182 2.870 . S
C355 C222 2.773 . S
C369 C163 1.524 . S
C375 C26 1.457 . S
C389 C226 1.153 . S
C395 C49 1.115 . S
C409 C106 2.209 . S
C415 C3 2.203 . S
C429 C123 3.902 . S
C435 C62 3.932 . S
C449 C186 3.041 . S
C455 C83 3.122 . S
C469 C146 2.183 . S
C475 C203 2.275 . S
C489 C2 0.380 . S
C495 C15 0.380 . S
C509 C42 0.510 . S
C515 C55 0.510 . S
C529 C82 0.373 . S
C535 C95 0.373 . S
C549 C135 0.366 . S
C555 C122 0.366 . S
C569 C175 0.453 . S
C575 C162 0.453 . S
C589 C215 0.452 . S
C595 C202 0.452 . S
