# Generated by pormake.
# Topology wna, (6)-cn, num edge types: 1
# Building blocks:
#     Node 0, Type 0, BuildingBlock: GEDQOX_clean_sbu_0, # of connection points: 6
#     Node 1, Type 0, BuildingBlock: GEDQOX_clean_sbu_0, # of connection points: 6
#     Node 2, Type 0, BuildingBlock: GEDQOX_clean_sbu_0, # of connection points: 6
#     Node 3, Type 0, BuildingBlock: GEDQOX_clean_sbu_0, # of connection points: 6
#     Node 4, Type 0, BuildingBlock: GEDQOX_clean_sbu_0, # of connection points: 6
#     Node 5, Type 0, BuildingBlock: GEDQOX_clean_sbu_0, # of connection points: 6
#     Node 6, Type 0, BuildingBlock: GEDQOX_clean_sbu_0, # of connection points: 6
#     Node 7, Type 0, BuildingBlock: GEDQOX_clean_sbu_0, # of connection points: 6
#     Node 8, Type 0, BuildingBlock: GEDQOX_clean_sbu_0, # of connection points: 6
#     Node 9, Type 0, BuildingBlock: GEDQOX_clean_sbu_0, # of connection points: 6
#     Node 10, Type 0, BuildingBlock: GEDQOX_clean_sbu_0, # of connection points: 6
#     Node 11, Type 0, BuildingBlock: GEDQOX_clean_sbu_0, # of connection points: 6
#     Node 12, Type 0, BuildingBlock: GEDQOX_clean_sbu_0, # of connection points: 6
#     Node 13, Type 0, BuildingBlock: GEDQOX_clean_sbu_0, # of connection points: 6
#     Node 14, Type 0, BuildingBlock: GEDQOX_clean_sbu_0, # of connection points: 6
#     Node 15, Type 0, BuildingBlock: GEDQOX_clean_sbu_0, # of connection points: 6
#     Node 16, Type 0, BuildingBlock: GEDQOX_clean_sbu_0, # of connection points: 6
#     Node 17, Type 0, BuildingBlock: GEDQOX_clean_sbu_0, # of connection points: 6
#     Node 18, Type 0, BuildingBlock: GEDQOX_clean_sbu_0, # of connection points: 6
#     Node 19, Type 0, BuildingBlock: GEDQOX_clean_sbu_0, # of connection points: 6
#     Node 20, Type 0, BuildingBlock: GEDQOX_clean_sbu_0, # of connection points: 6
#     Node 21, Type 0, BuildingBlock: GEDQOX_clean_sbu_0, # of connection points: 6
#     Node 22, Type 0, BuildingBlock: GEDQOX_clean_sbu_0, # of connection points: 6
#     Node 23, Type 0, BuildingBlock: GEDQOX_clean_sbu_0, # of connection points: 6
#     Node 24, Type 0, BuildingBlock: GEDQOX_clean_sbu_0, # of connection points: 6
#     Node 25, Type 0, BuildingBlock: GEDQOX_clean_sbu_0, # of connection points: 6
#     Node 26, Type 0, BuildingBlock: GEDQOX_clean_sbu_0, # of connection points: 6
#     Node 27, Type 0, BuildingBlock: GEDQOX_clean_sbu_0, # of connection points: 6
#     Node 28, Type 0, BuildingBlock: GEDQOX_clean_sbu_0, # of connection points: 6
#     Node 29, Type 0, BuildingBlock: GEDQOX_clean_sbu_0, # of connection points: 6
#     Node 30, Type 0, BuildingBlock: GEDQOX_clean_sbu_0, # of connection points: 6
#     Node 31, Type 0, BuildingBlock: GEDQOX_clean_sbu_0, # of connection points: 6
#     Node 32, Type 0, BuildingBlock: GEDQOX_clean_sbu_0, # of connection points: 6
#     Node 33, Type 0, BuildingBlock: GEDQOX_clean_sbu_0, # of connection points: 6
#     Node 34, Type 0, BuildingBlock: GEDQOX_clean_sbu_0, # of connection points: 6
#     Node 35, Type 0, BuildingBlock: GEDQOX_clean_sbu_0, # of connection points: 6
#     Edge 36, Type (0, 0), BuildingBlock: OJICUG_clean_linker_0, # of connection points: 2
#     Edge 37, Type (0, 0), BuildingBlock: OJICUG_clean_linker_0, # of connection points: 2
#     Edge 38, Type (0, 0), BuildingBlock: OJICUG_clean_linker_0, # of connection points: 2
#     Edge 39, Type (0, 0), BuildingBlock: OJICUG_clean_linker_0, # of connection points: 2
#     Edge 40, Type (0, 0), BuildingBlock: OJICUG_clean_linker_0, # of connection points: 2
#     Edge 41, Type (0, 0), BuildingBlock: OJICUG_clean_linker_0, # of connection points: 2
#     Edge 42, Type (0, 0), BuildingBlock: OJICUG_clean_linker_0, # of connection points: 2
#     Edge 43, Type (0, 0), BuildingBlock: OJICUG_clean_linker_0, # of connection points: 2
#     Edge 44, Type (0, 0), BuildingBlock: OJICUG_clean_linker_0, # of connection points: 2
#     Edge 45, Type (0, 0), BuildingBlock: OJICUG_clean_linker_0, # of connection points: 2
#     Edge 46, Type (0, 0), BuildingBlock: OJICUG_clean_linker_0, # of connection points: 2
#     Edge 47, Type (0, 0), BuildingBlock: OJICUG_clean_linker_0, # of connection points: 2
#     Edge 48, Type (0, 0), BuildingBlock: OJICUG_clean_linker_0, # of connection points: 2
#     Edge 49, Type (0, 0), BuildingBlock: OJICUG_clean_linker_0, # of connection points: 2
#     Edge 50, Type (0, 0), BuildingBlock: OJICUG_clean_linker_0, # of connection points: 2
#     Edge 51, Type (0, 0), BuildingBlock: OJICUG_clean_linker_0, # of connection points: 2
#     Edge 52, Type (0, 0), BuildingBlock: OJICUG_clean_linker_0, # of connection points: 2
#     Edge 53, Type (0, 0), BuildingBlock: OJICUG_clean_linker_0, # of connection points: 2
#     Edge 54, Type (0, 0), BuildingBlock: OJICUG_clean_linker_0, # of connection points: 2
#     Edge 55, Type (0, 0), BuildingBlock: OJICUG_clean_linker_0, # of connection points: 2
#     Edge 56, Type (0, 0), BuildingBlock: OJICUG_clean_linker_0, # of connection points: 2
#     Edge 57, Type (0, 0), BuildingBlock: OJICUG_clean_linker_0, # of connection points: 2
#     Edge 58, Type (0, 0), BuildingBlock: OJICUG_clean_linker_0, # of connection points: 2
#     Edge 59, Type (0, 0), BuildingBlock: OJICUG_clean_linker_0, # of connection points: 2
#     Edge 60, Type (0, 0), BuildingBlock: OJICUG_clean_linker_0, # of connection points: 2
#     Edge 61, Type (0, 0), BuildingBlock: OJICUG_clean_linker_0, # of connection points: 2
#     Edge 62, Type (0, 0), BuildingBlock: OJICUG_clean_linker_0, # of connection points: 2
#     Edge 63, Type (0, 0), BuildingBlock: OJICUG_clean_linker_0, # of connection points: 2
#     Edge 64, Type (0, 0), BuildingBlock: OJICUG_clean_linker_0, # of connection points: 2
#     Edge 65, Type (0, 0), BuildingBlock: OJICUG_clean_linker_0, # of connection points: 2
#     Edge 66, Type (0, 0), BuildingBlock: OJICUG_clean_linker_0, # of connection points: 2
#     Edge 67, Type (0, 0), BuildingBlock: OJICUG_clean_linker_0, # of connection points: 2
#     Edge 68, Type (0, 0), BuildingBlock: OJICUG_clean_linker_0, # of connection points: 2
#     Edge 69, Type (0, 0), BuildingBlock: OJICUG_clean_linker_0, # of connection points: 2
#     Edge 70, Type (0, 0), BuildingBlock: OJICUG_clean_linker_0, # of connection points: 2
#     Edge 71, Type (0, 0), BuildingBlock: OJICUG_clean_linker_0, # of connection points: 2
#     Edge 72, Type (0, 0), BuildingBlock: OJICUG_clean_linker_0, # of connection points: 2
#     Edge 73, Type (0, 0), BuildingBlock: OJICUG_clean_linker_0, # of connection points: 2
#     Edge 74, Type (0, 0), BuildingBlock: OJICUG_clean_linker_0, # of connection points: 2
#     Edge 75, Type (0, 0), BuildingBlock: OJICUG_clean_linker_0, # of connection points: 2
#     Edge 76, Type (0, 0), BuildingBlock: OJICUG_clean_linker_0, # of connection points: 2
#     Edge 77, Type (0, 0), BuildingBlock: OJICUG_clean_linker_0, # of connection points: 2
#     Edge 78, Type (0, 0), BuildingBlock: OJICUG_clean_linker_0, # of connection points: 2
#     Edge 79, Type (0, 0), BuildingBlock: OJICUG_clean_linker_0, # of connection points: 2
#     Edge 80, Type (0, 0), BuildingBlock: OJICUG_clean_linker_0, # of connection points: 2
#     Edge 81, Type (0, 0), BuildingBlock: OJICUG_clean_linker_0, # of connection points: 2
#     Edge 82, Type (0, 0), BuildingBlock: OJICUG_clean_linker_0, # of connection points: 2
#     Edge 83, Type (0, 0), BuildingBlock: OJICUG_clean_linker_0, # of connection points: 2
#     Edge 84, Type (0, 0), BuildingBlock: OJICUG_clean_linker_0, # of connection points: 2
#     Edge 85, Type (0, 0), BuildingBlock: OJICUG_clean_linker_0, # of connection points: 2
#     Edge 86, Type (0, 0), BuildingBlock: OJICUG_clean_linker_0, # of connection points: 2
#     Edge 87, Type (0, 0), BuildingBlock: OJICUG_clean_linker_0, # of connection points: 2
#     Edge 88, Type (0, 0), BuildingBlock: OJICUG_clean_linker_0, # of connection points: 2
#     Edge 89, Type (0, 0), BuildingBlock: OJICUG_clean_linker_0, # of connection points: 2
#     Edge 90, Type (0, 0), BuildingBlock: OJICUG_clean_linker_0, # of connection points: 2
#     Edge 91, Type (0, 0), BuildingBlock: OJICUG_clean_linker_0, # of connection points: 2
#     Edge 92, Type (0, 0), BuildingBlock: OJICUG_clean_linker_0, # of connection points: 2
#     Edge 93, Type (0, 0), BuildingBlock: OJICUG_clean_linker_0, # of connection points: 2
#     Edge 94, Type (0, 0), BuildingBlock: OJICUG_clean_linker_0, # of connection points: 2
#     Edge 95, Type (0, 0), BuildingBlock: OJICUG_clean_linker_0, # of connection points: 2
#     Edge 96, Type (0, 0), BuildingBlock: OJICUG_clean_linker_0, # of connection points: 2
#     Edge 97, Type (0, 0), BuildingBlock: OJICUG_clean_linker_0, # of connection points: 2
#     Edge 98, Type (0, 0), BuildingBlock: OJICUG_clean_linker_0, # of connection points: 2
#     Edge 99, Type (0, 0), BuildingBlock: OJICUG_clean_linker_0, # of connection points: 2
#     Edge 100, Type (0, 0), BuildingBlock: OJICUG_clean_linker_0, # of connection points: 2
#     Edge 101, Type (0, 0), BuildingBlock: OJICUG_clean_linker_0, # of connection points: 2
#     Edge 102, Type (0, 0), BuildingBlock: OJICUG_clean_linker_0, # of connection points: 2
#     Edge 103, Type (0, 0), BuildingBlock: OJICUG_clean_linker_0, # of connection points: 2
#     Edge 104, Type (0, 0), BuildingBlock: OJICUG_clean_linker_0, # of connection points: 2
#     Edge 105, Type (0, 0), BuildingBlock: OJICUG_clean_linker_0, # of connection points: 2
#     Edge 106, Type (0, 0), BuildingBlock: OJICUG_clean_linker_0, # of connection points: 2
#     Edge 107, Type (0, 0), BuildingBlock: OJICUG_clean_linker_0, # of connection points: 2
#     Edge 108, Type (0, 0), BuildingBlock: OJICUG_clean_linker_0, # of connection points: 2
#     Edge 109, Type (0, 0), BuildingBlock: OJICUG_clean_linker_0, # of connection points: 2
#     Edge 110, Type (0, 0), BuildingBlock: OJICUG_clean_linker_0, # of connection points: 2
#     Edge 111, Type (0, 0), BuildingBlock: OJICUG_clean_linker_0, # of connection points: 2
#     Edge 112, Type (0, 0), BuildingBlock: OJICUG_clean_linker_0, # of connection points: 2
#     Edge 113, Type (0, 0), BuildingBlock: OJICUG_clean_linker_0, # of connection points: 2
#     Edge 114, Type (0, 0), BuildingBlock: OJICUG_clean_linker_0, # of connection points: 2
#     Edge 115, Type (0, 0), BuildingBlock: OJICUG_clean_linker_0, # of connection points: 2
#     Edge 116, Type (0, 0), BuildingBlock: OJICUG_clean_linker_0, # of connection points: 2
#     Edge 117, Type (0, 0), BuildingBlock: OJICUG_clean_linker_0, # of connection points: 2
#     Edge 118, Type (0, 0), BuildingBlock: OJICUG_clean_linker_0, # of connection points: 2
#     Edge 119, Type (0, 0), BuildingBlock: OJICUG_clean_linker_0, # of connection points: 2
#     Edge 120, Type (0, 0), BuildingBlock: OJICUG_clean_linker_0, # of connection points: 2
#     Edge 121, Type (0, 0), BuildingBlock: OJICUG_clean_linker_0, # of connection points: 2
#     Edge 122, Type (0, 0), BuildingBlock: OJICUG_clean_linker_0, # of connection points: 2
#     Edge 123, Type (0, 0), BuildingBlock: OJICUG_clean_linker_0, # of connection points: 2
#     Edge 124, Type (0, 0), BuildingBlock: OJICUG_clean_linker_0, # of connection points: 2
#     Edge 125, Type (0, 0), BuildingBlock: OJICUG_clean_linker_0, # of connection points: 2
#     Edge 126, Type (0, 0), BuildingBlock: OJICUG_clean_linker_0, # of connection points: 2
#     Edge 127, Type (0, 0), BuildingBlock: OJICUG_clean_linker_0, # of connection points: 2
#     Edge 128, Type (0, 0), BuildingBlock: OJICUG_clean_linker_0, # of connection points: 2
#     Edge 129, Type (0, 0), BuildingBlock: OJICUG_clean_linker_0, # of connection points: 2
#     Edge 130, Type (0, 0), BuildingBlock: OJICUG_clean_linker_0, # of connection points: 2
#     Edge 131, Type (0, 0), BuildingBlock: OJICUG_clean_linker_0, # of connection points: 2
#     Edge 132, Type (0, 0), BuildingBlock: OJICUG_clean_linker_0, # of connection points: 2
#     Edge 133, Type (0, 0), BuildingBlock: OJICUG_clean_linker_0, # of connection points: 2
#     Edge 134, Type (0, 0), BuildingBlock: OJICUG_clean_linker_0, # of connection points: 2
#     Edge 135, Type (0, 0), BuildingBlock: OJICUG_clean_linker_0, # of connection points: 2
#     Edge 136, Type (0, 0), BuildingBlock: OJICUG_clean_linker_0, # of connection points: 2
#     Edge 137, Type (0, 0), BuildingBlock: OJICUG_clean_linker_0, # of connection points: 2
#     Edge 138, Type (0, 0), BuildingBlock: OJICUG_clean_linker_0, # of connection points: 2
#     Edge 139, Type (0, 0), BuildingBlock: OJICUG_clean_linker_0, # of connection points: 2
#     Edge 140, Type (0, 0), BuildingBlock: OJICUG_clean_linker_0, # of connection points: 2
#     Edge 141, Type (0, 0), BuildingBlock: OJICUG_clean_linker_0, # of connection points: 2
#     Edge 142, Type (0, 0), BuildingBlock: OJICUG_clean_linker_0, # of connection points: 2
#     Edge 143, Type (0, 0), BuildingBlock: OJICUG_clean_linker_0, # of connection points: 2
# Relax obj value: 0.316
# Max RMSD: 0.246
# Mean RMSD: 0.211
data_MOF--net-wna--node1-GEDQOX_clean_sbu_0--edge1-OJICUG_clean_linker_0
_symmetry_space_group_name_H-M    P1
_symmetry_Int_Tables_number       1
_symmetry_cell_setting            triclinic
loop_
_symmetry_equiv_pos_as_xyz
'x, y, z'
_cell_length_a     34.037348
_cell_length_b     34.269667
_cell_length_c     91.684777
_cell_angle_alpha  90.117325
_cell_angle_beta   89.900524
_cell_angle_gamma 119.88726
loop_
_atom_site_label
_atom_site_type_symbol
_atom_site_fract_x
_atom_site_fract_y
_atom_site_fract_z
_atom_type_partial_charge
Nd0 Nd 0.24649 0.3902 0.20308 0.0
Nd1 Nd 0.16043 0.32615 0.18561 0.0
C2 C 0.30758 0.45202 0.22045 0.0
C3 C 0.35486 0.48446 0.21687 0.0
C4 C 0.36287 0.50562 0.20325 0.0
C5 C 0.39196 0.50163 0.19352 0.0
C6 C 0.41682 0.48118 0.19809 0.0
C7 C 0.41947 0.47481 0.21318 0.0
C8 C 0.38804 0.47612 0.22262 0.0
C9 C 0.23981 0.31102 0.19542 0.0
C10 C 0.25139 0.3816 0.16712 0.0
C11 C 0.08871 0.26019 0.17355 0.0
C12 C 1.05373 0.21625 0.17869 0.0
C13 C 1.05267 0.17754 0.17324 0.0
C14 C 1.0202 0.13546 0.17821 0.0
C15 C 0.98781 0.1316 0.18846 0.0
C16 C 0.98964 0.17041 0.19421 0.0
C17 C 1.02259 0.21254 0.18943 0.0
C18 C 0.18158 0.41437 0.18687 0.0
C19 C 0.15289 0.32159 0.221 0.0
O20 O 0.27682 0.4574 0.21369 0.0
O21 O 0.29825 0.41002 0.2203 0.0
O22 O 0.27845 0.34847 0.19543 0.0
O23 O 0.20784 0.31626 0.19987 0.0
O24 O 0.26851 0.40916 0.17852 0.0
O25 O 0.21478 0.34195 0.16849 0.0
O26 O 0.12916 0.26477 0.17219 0.0
O27 O 0.08882 0.29536 0.17928 0.0
O28 O 0.16631 0.39 0.1752 0.0
O29 O 0.18446 0.39178 0.19704 0.0
O30 O 0.13185 0.30415 0.20857 0.0
O31 O 0.19565 0.35397 0.22155 0.0
H32 H 0.34075 0.51716 0.19913 0.0
H33 H 0.39051 0.50997 0.18225 0.0
H34 H 0.44183 0.46363 0.21745 0.0
H35 H 0.38441 0.46243 0.2335 0.0
H36 H 1.07689 0.17982 0.16511 0.0
H37 H 1.01984 0.10591 0.17381 0.0
H38 H 0.96467 0.16826 0.202 0.0
H39 H 1.02315 0.24197 0.194 0.0
Nd40 Nd 0.75084 0.88596 0.20357 0.0
Nd41 Nd 0.8287 0.88225 0.18716 0.0
C42 C 0.67633 0.87443 0.21637 0.0
C43 C 0.63354 0.86672 0.21043 0.0
C44 C 0.62812 0.86291 0.19527 0.0
C45 C 0.60676 0.883 0.18829 0.0
C46 C 0.59527 0.91047 0.19654 0.0
C47 C 0.58607 0.90015 0.21148 0.0
C48 C 0.60766 0.88012 0.21864 0.0
C49 C 0.82824 0.96513 0.20017 0.0
C50 C 0.75777 0.89109 0.16659 0.0
C51 C 0.90537 0.89602 0.17605 0.0
C52 C 0.94289 0.89231 0.18177 0.0
C53 C 0.95389 0.8999 0.19662 0.0
C54 C 0.98774 0.89299 0.20227 0.0
C55 C 1.01089 0.87858 0.19305 0.0
C56 C 0.99994 0.87151 0.17812 0.0
C57 C 0.9658 0.87801 0.17255 0.0
C58 C 0.75267 0.80025 0.19223 0.0
C59 C 0.82842 0.88172 0.22298 0.0
O60 O 0.68528 0.84183 0.21483 0.0
O61 O 0.71064 0.9139 0.21301 0.0
O62 O 0.80492 0.95501 0.21215 0.0
O63 O 0.80983 0.93505 0.19066 0.0
O64 O 0.73143 0.88335 0.17831 0.0
O65 O 0.7995 0.89913 0.1679 0.0
O66 O 0.90017 0.92836 0.18163 0.0
O67 O 0.86755 0.85768 0.17476 0.0
O68 O 0.77632 0.80963 0.18032 0.0
O69 O 0.77044 0.83333 0.20071 0.0
O70 O 0.85284 0.89002 0.21096 0.0
O71 O 0.78641 0.87405 0.22274 0.0
H72 H 0.64705 0.85231 0.18857 0.0
H73 H 0.60954 0.88506 0.17655 0.0
H74 H 0.57152 0.91609 0.21804 0.0
H75 H 0.61001 0.88176 0.23044 0.0
H76 H 0.93615 0.91088 0.20383 0.0
H77 H 0.99552 0.89855 0.2138 0.0
H78 H 1.01807 0.86143 0.1707 0.0
H79 H 0.95715 0.8717 0.16108 0.0
Nd80 Nd 0.26166 0.90568 0.19958 0.0
Nd81 Nd 0.22684 0.96003 0.18347 0.0
C82 C 0.29638 0.85796 0.21004 0.0
C83 C 0.29758 0.82075 0.2028 0.0
C84 C 0.30064 0.82237 0.1875 0.0
C85 C 0.27348 0.78403 0.17943 0.0
C86 C 0.24421 0.74437 0.18672 0.0
C87 C 0.24868 0.74043 0.20175 0.0
C88 C 0.27598 0.77894 0.20986 0.0
C89 C 0.17242 0.87789 0.20315 0.0
C90 C 0.22916 0.88314 0.16475 0.0
C91 C 0.18746 1.00407 0.17402 0.0
C92 C 0.19498 1.04914 0.17716 0.0
C93 C 0.18268 0.05897 0.19072 0.0
C94 C 0.19216 0.10246 0.19382 0.0
C95 C 0.21415 0.13662 0.18345 0.0
C96 C 0.2272 0.12715 0.17002 0.0
C97 C 0.21743 0.08356 0.16686 0.0
C98 C 0.31708 0.98855 0.17949 0.0
C99 C 0.26357 0.98658 0.21745 0.0
O100 O 0.32102 0.89754 0.20418 0.0
O101 O 0.2552 0.84932 0.21295 0.0
O102 O 0.19879 0.8836 0.21406 0.0
O103 O 0.19346 0.8889 0.19129 0.0
O104 O 0.25651 0.88268 0.17507 0.0
O105 O 0.20529 0.90319 0.1671 0.0
O106 O 0.1705 0.97443 0.18458 0.0
O107 O 0.22044 1.00313 0.16699 0.0
O108 O 0.29152 0.99118 0.16954 0.0
O109 O 0.29541 0.97603 0.19124 0.0
O110 O 0.23703 0.98811 0.20715 0.0
O111 O 0.2833 0.96218 0.2159 0.0
H112 H 0.31693 0.85408 0.18178 0.0
H113 H 0.27032 0.78688 0.16778 0.0
H114 H 0.22611 0.70943 0.20741 0.0
H115 H 0.27336 0.77709 0.22165 0.0
H116 H 0.166 1.03328 0.19898 0.0
H117 H 0.18234 0.10946 0.20433 0.0
H118 H 0.24399 0.15319 0.16187 0.0
H119 H 0.22765 0.0768 0.15639 0.0
Nd120 Nd 0.32511 0.16338 0.33937 0.0
Nd121 Nd 0.31796 0.16669 0.36375 0.0
C122 C 0.31094 0.15788 0.31083 0.0
C123 C 0.30983 0.13408 0.29745 0.0
C124 C 0.31063 0.15399 0.28407 0.0
C125 C 0.30451 0.13037 0.2711 0.0
C126 C 0.29732 0.0863 0.27132 0.0
C127 C 0.29808 0.06694 0.28478 0.0
C128 C 0.30425 0.09071 0.29779 0.0
C129 C 0.38166 0.12224 0.34669 0.0
C130 C 0.23672 0.06942 0.35257 0.0
C131 C 0.34043 0.18128 0.39174 0.0
C132 C 0.35304 0.18949 0.40738 0.0
C133 C 0.38679 0.23212 0.41208 0.0
C134 C 0.39774 0.24071 0.42692 0.0
C135 C 0.37584 0.20657 0.43747 0.0
C136 C 0.34166 0.16389 0.43266 0.0
C137 C 0.33014 0.15561 0.41783 0.0
C138 C 0.24024 0.17141 0.35579 0.0
C139 C 0.37883 0.27431 0.34996 0.0
O140 O 0.27945 0.13515 0.32043 0.0
O141 O 0.35029 0.1845 0.31671 0.0
O142 O 0.38635 0.1491 0.33602 0.0
O143 O 0.34863 0.12089 0.35459 0.0
O144 O 0.25593 0.09163 0.34037 0.0
O145 O 0.25802 0.09085 0.3646 0.0
O146 O 0.36998 0.20018 0.38123 0.0
O147 O 0.29942 0.15352 0.38735 0.0
O148 O 0.24385 0.1495 0.36668 0.0
O149 O 0.27892 0.19129 0.34891 0.0
O150 O 0.35793 0.25005 0.36182 0.0
O151 O 0.37352 0.24667 0.33885 0.0
H152 H 0.31489 0.18749 0.28367 0.0
H153 H 0.30506 0.14653 0.2609 0.0
H154 H 0.29245 1.03296 0.28531 0.0
H155 H 0.30343 0.07486 0.30809 0.0
H156 H 0.40427 0.25914 0.40429 0.0
H157 H 0.42333 0.27438 0.43006 0.0
H158 H 0.32431 0.13637 0.44026 0.0
H159 H 0.30371 0.12245 0.41452 0.0
Nd160 Nd 0.97018 0.17341 0.34029 0.0
Nd161 Nd 0.96678 0.16441 0.36488 0.0
C162 C 0.98053 0.17118 0.31177 0.0
C163 C 1.00819 0.20042 0.29978 0.0
C164 C 1.05465 0.2148 0.29866 0.0
C165 C 1.07908 0.23829 0.28636 0.0
C166 C 1.05748 0.24782 0.275 0.0
C167 C 1.01157 0.23523 0.27649 0.0
C168 C 0.98711 0.21151 0.28872 0.0
C169 C 1.00971 0.27038 0.3483 0.0
C170 C 1.06434 0.17958 0.35345 0.0
C171 C 0.95421 0.1765 0.39279 0.0
C172 C 0.94728 0.18286 0.4085 0.0
C173 C 0.93542 0.21501 0.41278 0.0
C174 C 0.92918 0.22128 0.42756 0.0
C175 C 0.93423 0.19529 0.43855 0.0
C176 C 0.94607 0.163 0.43419 0.0
C177 C 0.95259 0.15696 0.41939 0.0
C178 C 0.9618 0.08182 0.35697 0.0
C179 C 0.85872 0.11603 0.35051 0.0
O180 O 1.00084 0.15909 0.32128 0.0
O181 O 0.95095 0.18004 0.31769 0.0
O182 O 0.97951 0.24737 0.33842 0.0
O183 O 1.01447 0.2393 0.35517 0.0
O184 O 1.0412 0.17455 0.34132 0.0
O185 O 1.04365 0.18134 0.36548 0.0
O186 O 0.9443 0.19546 0.38215 0.0
O187 O 0.9709 0.15148 0.38852 0.0
O188 O 0.98395 0.10759 0.36785 0.0
O189 O 0.94164 0.10031 0.35012 0.0
O190 O 0.88289 0.12585 0.36285 0.0
O191 O 0.88647 0.13232 0.33904 0.0
H192 H 1.07189 0.20678 0.30705 0.0
H193 H 0.11434 0.24727 0.28548 0.0
H194 H 0.99428 0.24289 0.26803 0.0
H195 H 0.95135 0.20081 0.28937 0.0
H196 H 0.9313 0.23571 0.40471 0.0
H197 H 0.92102 0.24712 0.43035 0.0
H198 H 0.94971 0.14183 0.44219 0.0
H199 H 0.96154 0.13172 0.41649 0.0
Nd200 Nd 0.96143 0.81154 0.34007 0.0
Nd201 Nd 0.97105 0.81708 0.36507 0.0
C202 C 0.96666 0.82893 0.3118 0.0
C203 C 0.94279 0.83738 0.30001 0.0
C204 C 0.96637 0.87793 0.29233 0.0
C205 C 0.94607 0.88705 0.28071 0.0
C206 C 0.90187 0.85549 0.27637 0.0
C207 C 0.87755 0.81534 0.28436 0.0
C208 C 0.8979 0.80632 0.29614 0.0
C209 C 0.86445 0.75376 0.34822 0.0
C210 C 0.95407 0.89838 0.35395 0.0
C211 C 0.96235 0.79554 0.39327 0.0
C212 C 0.95835 0.78443 0.40916 0.0
C213 C 0.92369 0.74288 0.41434 0.0
C214 C 0.91982 0.73242 0.42927 0.0
C215 C 0.95083 0.76298 0.43956 0.0
C216 C 0.98559 0.80468 0.43429 0.0
C217 C 0.9892 0.81526 0.41935 0.0
C218 C 1.05325 0.89409 0.35637 0.0
C219 C 1.01739 0.75593 0.35012 0.0
O220 O 0.9838 0.85981 0.32185 0.0
O221 O 0.94955 0.78822 0.31699 0.0
O222 O 0.88737 0.7472 0.33808 0.0
O223 O 0.89561 0.78935 0.35525 0.0
O224 O 0.95754 0.87972 0.34168 0.0
O225 O 0.95411 0.87678 0.36594 0.0
O226 O 0.93943 0.76621 0.38308 0.0
O227 O 0.9892 0.83594 0.38839 0.0
O228 O 1.02747 0.89144 0.36716 0.0
O229 O 1.03475 0.85483 0.35002 0.0
O230 O 1.00823 0.77064 0.36254 0.0
O231 O 1.00115 0.76762 0.33868 0.0
H232 H 1.0009 0.90249 0.29525 0.0
H233 H 0.96531 0.91867 0.27497 0.0
H234 H 0.84346 0.79033 0.28121 0.0
H235 H 0.87888 0.77495 0.30202 0.0
H236 H 0.89917 0.71844 0.40684 0.0
H237 H 0.89185 0.70039 0.43273 0.0
H238 H 1.01058 0.82909 0.44167 0.0
H239 H 1.01651 0.84758 0.41575 0.0
Nd240 Nd 0.97954 0.80402 0.84249 0.0
Nd241 Nd 0.90844 0.7207 0.82519 0.0
C242 C 1.03055 0.88587 0.85231 0.0
C243 C 1.07515 0.92103 0.84804 0.0
C244 C 0.09333 0.96347 0.85442 0.0
C245 C 0.13647 0.99704 0.85047 0.0
C246 C 0.16174 0.98814 0.8402 0.0
C247 C 0.14286 0.94569 0.83357 0.0
C248 C 0.09962 0.91217 0.8375 0.0
C249 C 0.99992 0.73676 0.8413 0.0
C250 C 0.99225 0.79715 0.80694 0.0
C251 C 0.84248 0.64758 0.81286 0.0
C252 C 0.80625 0.6093 0.82055 0.0
C253 C 0.81405 0.60761 0.83552 0.0
C254 C 0.78525 0.61106 0.84557 0.0
C255 C 0.74747 0.61282 0.84047 0.0
C256 C 0.73316 0.60011 0.82597 0.0
C257 C 0.76245 0.59722 0.81597 0.0
C258 C 0.89485 0.79229 0.8282 0.0
C259 C 0.90402 0.72478 0.86176 0.0
O260 O 0.9991 0.87574 0.84246 0.0
O261 O 1.02953 0.85073 0.8583 0.0
O262 O 1.01376 0.76655 0.85165 0.0
O263 O 0.98157 0.74711 0.83119 0.0
O264 O 1.00159 0.82352 0.81851 0.0
O265 O 0.96128 0.75408 0.8073 0.0
O266 O 0.88323 0.65366 0.81407 0.0
O267 O 0.84115 0.68459 0.81501 0.0
O268 O 0.89338 0.77445 0.81561 0.0
O269 O 0.90621 0.7745 0.8379 0.0
O270 O 0.89504 0.69814 0.85008 0.0
O271 O 0.92848 0.76886 0.86055 0.0
H272 H 1.07435 0.97048 0.86248 0.0
H273 H 0.15027 1.02985 0.85555 0.0
H274 H 0.16195 0.9381 0.82572 0.0
H275 H 0.08551 0.87921 0.8325 0.0
H276 H 0.84687 0.61464 0.83935 0.0
H277 H 0.79628 0.61925 0.8568 0.0
H278 H 0.70288 0.59931 0.82195 0.0
H279 H 0.75493 0.59632 0.80445 0.0
Nd280 Nd 0.33849 0.2098 0.84406 0.0
Nd281 Nd 0.41605 0.21235 0.82572 0.0
C282 C 0.26168 0.19151 0.85621 0.0
C283 C 0.22516 0.19788 0.85129 0.0
C284 C 0.22876 0.21868 0.83782 0.0
C285 C 0.19349 0.22444 0.83292 0.0
C286 C 0.15478 0.20982 0.84158 0.0
C287 C 0.15115 0.18839 0.85498 0.0
C288 C 0.18644 0.18258 0.85985 0.0
C289 C 0.41127 0.29433 0.83936 0.0
C290 C 0.33553 0.21693 0.80825 0.0
C291 C 0.49086 0.23124 0.81145 0.0
C292 C 0.53325 0.23513 0.81631 0.0
C293 C 0.54254 0.24075 0.83126 0.0
C294 C 0.56038 0.21696 0.83798 0.0
C295 C 0.56653 0.18586 0.82971 0.0
C296 C 0.57187 0.19275 0.81449 0.0
C297 C 0.55315 0.21604 0.80768 0.0
C298 C 0.34142 0.13033 0.82935 0.0
C299 C 0.41284 0.2 0.86259 0.0
O300 O 0.26675 0.16191 0.84864 0.0
O301 O 0.29964 0.22878 0.85879 0.0
O302 O 0.38887 0.28224 0.85153 0.0
O303 O 0.39399 0.26238 0.83042 0.0
O304 O 0.31182 0.2053 0.82052 0.0
O305 O 0.37803 0.22624 0.8079 0.0
O306 O 0.48226 0.26215 0.81617 0.0
O307 O 0.45614 0.19048 0.81271 0.0
O308 O 0.36233 0.14278 0.81691 0.0
O309 O 0.36049 0.16011 0.83889 0.0
O310 O 0.43775 0.20999 0.85041 0.0
O311 O 0.37079 0.19169 0.86231 0.0
H312 H 0.259 0.23099 0.83122 0.0
H313 H 0.19704 0.24144 0.82264 0.0
H314 H 0.12117 0.17643 0.86173 0.0
H315 H 0.18361 0.16638 0.87024 0.0
H316 H 0.52847 0.25602 0.83818 0.0
H317 H 0.55992 0.2167 0.84976 0.0
H318 H 0.58174 0.17321 0.80773 0.0
H319 H 0.54773 0.21273 0.79599 0.0
Nd320 Nd 0.93319 0.15112 0.8429 0.0
Nd321 Nd 0.92101 0.22073 0.82491 0.0
C322 C 0.96241 0.09989 0.85387 0.0
C323 C 0.9522 0.05522 0.84961 0.0
C324 C 0.9239 1.03471 0.83757 0.0
C325 C 0.91367 0.99186 0.83328 0.0
C326 C 0.93103 0.96898 0.8412 0.0
C327 C 0.95929 0.98961 0.8533 0.0
C328 C 0.96984 1.03274 0.8575 0.0
C329 C 0.84586 0.13369 0.84211 0.0
C330 C 0.91357 0.13537 0.80748 0.0
C331 C 0.90917 0.28079 0.81052 0.0
C332 C 0.89813 0.31422 0.81568 0.0
C333 C 0.89326 0.31618 0.83076 0.0
C334 C 0.9156 0.35752 0.83776 0.0
C335 C 0.9433 0.39638 0.82952 0.0
C336 C 0.93416 0.39485 0.81445 0.0
C337 C 0.91308 0.35325 0.80738 0.0
C338 C 1.006 0.23305 0.8274 0.0
C339 C 0.93107 0.22893 0.86136 0.0
O340 O 0.98537 0.13109 0.84415 0.0
O341 O 0.92787 0.10187 0.85931 0.0
O342 O 0.86213 0.12064 0.85261 0.0
O343 O 0.87389 0.14952 0.83173 0.0
O344 O 0.92963 0.12577 0.81924 0.0
O345 O 0.90272 0.16725 0.80749 0.0
O346 O 0.87748 0.23879 0.81144 0.0
O347 O 0.9484 0.28792 0.81529 0.0
O348 O 0.98916 0.23411 0.81488 0.0
O349 O 0.97768 0.22314 0.83735 0.0
O350 O 0.91277 0.23701 0.84964 0.0
O351 O 0.95083 0.20437 0.86027 0.0
H352 H 0.90924 1.05157 0.83164 0.0
H353 H 0.89128 0.97619 0.82407 0.0
H354 H 0.97312 0.97234 0.85949 0.0
H355 H 0.9914 1.04836 0.86688 0.0
H356 H 0.8812 0.28633 0.83737 0.0
H357 H 0.91778 0.35671 0.84949 0.0
H358 H 0.95058 0.42493 0.80781 0.0
H359 H 0.91555 0.35219 0.79561 0.0
Nd360 Nd 0.84862 0.93167 0.66422 0.0
Nd361 Nd 0.84328 0.93518 0.68951 0.0
C362 C 0.82723 0.92452 0.63584 0.0
C363 C 0.82144 0.90834 0.62039 0.0
C364 C 0.78664 0.8656 0.61607 0.0
C365 C 0.77805 0.85428 0.60116 0.0
C366 C 0.80354 0.88558 0.59009 0.0
C367 C 0.83947 0.92768 0.59456 0.0
C368 C 0.84826 0.93875 0.60942 0.0
C369 C 0.92601 0.92558 0.6722 0.0
C370 C 0.78859 0.8242 0.67884 0.0
C371 C 0.8576 0.94538 0.71802 0.0
C372 C 0.86056 0.97464 0.7302 0.0
C373 C 0.88696 1.02174 0.72923 0.0
C374 C 0.894 1.04844 0.74156 0.0
C375 C 0.8747 1.02846 0.75503 0.0
C376 C 0.84659 0.9815 0.75576 0.0
C377 C 0.8397 0.95485 0.74345 0.0
C378 C 0.78543 0.97443 0.68145 0.0
C379 C 0.93113 1.02856 0.6761 0.0
O380 O 0.79774 0.90163 0.64603 0.0
O381 O 0.86779 0.95 0.64097 0.0
O382 O 0.92189 0.94609 0.661 0.0
O383 O 0.88757 0.90651 0.67919 0.0
O384 O 0.80318 0.84814 0.66643 0.0
O385 O 0.80004 0.85184 0.69036 0.0
O386 O 0.88969 0.9628 0.70826 0.0
O387 O 0.81776 0.91913 0.71237 0.0
O388 O 0.77857 0.94498 0.69151 0.0
O389 O 0.82126 0.97877 0.67453 0.0
O390 O 0.91232 1.0064 0.6883 0.0
O391 O 0.9095 1.00743 0.66405 0.0
H392 H 0.76526 0.84128 0.62418 0.0
H393 H 0.7507 0.82109 0.59835 0.0
H394 H 0.85968 0.95317 0.5866 0.0
H395 H 0.87504 0.97219 0.61233 0.0
H396 H 0.90334 1.03785 0.71908 0.0
H397 H 0.91593 0.08452 0.74067 0.0
H398 H 0.83048 0.96527 0.76591 0.0
H399 H 0.8191 0.91861 0.74439 0.0
Nd400 Nd 0.20088 0.93426 0.66469 0.0
Nd401 Nd 0.19727 0.92655 0.68978 0.0
C402 C 0.20921 0.91797 0.63666 0.0
C403 C 0.22664 0.92394 0.62137 0.0
C404 C 0.2633 0.91785 0.61762 0.0
C405 C 0.27419 0.9161 0.6029 0.0
C406 C 0.24839 0.91979 0.59147 0.0
C407 C 0.21279 0.92759 0.59533 0.0
C408 C 0.20218 0.92968 0.61002 0.0
C409 C 0.20692 1.0177 0.67225 0.0
C410 C 0.30886 0.98275 0.67928 0.0
C411 C 0.18616 0.93317 0.7181 0.0
C412 C 0.15523 0.91 0.73028 0.0
C413 C 0.13926 0.93397 0.73837 0.0
C414 C 0.111 0.91425 0.75031 0.0
C415 C 0.09842 0.87018 0.75453 0.0
C416 C 0.11343 0.84559 0.74618 0.0
C417 C 0.14169 0.86538 0.7341 0.0
C418 C 0.15818 0.82954 0.68208 0.0
C419 C 0.10302 0.9194 0.67597 0.0
O420 O 0.2272 0.90692 0.64734 0.0
O421 O 0.18827 0.93888 0.64109 0.0
O422 O 0.18563 0.99225 0.66123 0.0
O423 O 0.22638 0.99888 0.67929 0.0
O424 O 0.28482 0.97309 0.66688 0.0
O425 O 0.28107 0.96657 0.69079 0.0
O426 O 0.17062 0.94861 0.70804 0.0
O427 O 0.21058 0.91673 0.71285 0.0
O428 O 0.18805 0.85275 0.69205 0.0
O429 O 0.15325 0.8604 0.67513 0.0
O430 O 0.12522 0.92335 0.68824 0.0
O431 O 0.1245 0.9186 0.66403 0.0
H432 H 0.2828 0.91312 0.62604 0.0
H433 H 0.3025 0.91106 0.60052 0.0
H434 H 0.19154 0.93005 0.58704 0.0
H435 H 0.1733 0.93378 0.61249 0.0
H436 H 0.149 0.96829 0.7355 0.0
H437 H 0.09917 0.93369 0.75631 0.0
H438 H 0.10435 0.81157 0.7492 0.0
H439 H 0.15331 0.84609 0.72791 0.0
Nd440 Nd 0.19612 0.2818 0.6644 0.0
Nd441 Nd 0.20534 0.2867 0.68973 0.0
C442 C 0.20318 0.30332 0.63618 0.0
C443 C 0.20608 0.31405 0.62024 0.0
C444 C 0.23573 0.35766 0.61509 0.0
C445 C 0.23705 0.36817 0.60022 0.0
C446 C 0.20843 0.33551 0.58995 0.0
C447 C 0.17908 0.29166 0.59515 0.0
C448 C 0.17793 0.28112 0.61004 0.0
C449 C 0.11397 0.20453 0.6729 0.0
C450 C 0.14972 0.34276 0.67945 0.0
C451 C 0.19895 0.26896 0.71808 0.0
C452 C 0.22157 0.26184 0.73061 0.0
C453 C 0.1968 0.22278 0.73894 0.0
C454 C 0.21589 0.21503 0.75124 0.0
C455 C 0.26022 0.24639 0.75554 0.0
C456 C 0.28548 0.28527 0.74701 0.0
C457 C 0.26628 0.29297 0.73461 0.0
C458 C 0.30231 0.34486 0.68162 0.0
C459 C 0.21343 0.2006 0.67552 0.0
O460 O 0.22529 0.3331 0.64635 0.0
O461 O 0.17882 0.2625 0.64108 0.0
O462 O 0.13979 0.20764 0.66207 0.0
O463 O 0.13238 0.24346 0.67947 0.0
O464 O 0.15909 0.32825 0.66704 0.0
O465 O 0.16555 0.33069 0.69093 0.0
O466 O 0.18447 0.23823 0.70796 0.0
O467 O 0.21505 0.30953 0.71286 0.0
O468 O 0.27943 0.35079 0.69192 0.0
O469 O 0.27121 0.30952 0.67449 0.0
O470 O 0.20905 0.21852 0.68783 0.0
O471 O 0.21409 0.22277 0.66358 0.0
H472 H 0.25794 0.38387 0.62259 0.0
H473 H 0.26096 0.4021 0.59678 0.0
H474 H 0.15615 0.26552 0.58777 0.0
H475 H 0.15439 0.24717 0.61359 0.0
H476 H 0.16232 0.19823 0.73597 0.0
H477 H 0.19588 0.18436 0.75737 0.0
H478 H 0.31968 0.31018 0.75008 0.0
H479 H 0.28614 0.3233 0.7283 0.0
Nd480 Nd 0.91362 0.72029 0.5372 0.0
Nd481 Nd 0.82564 0.66081 0.52032 0.0
C482 C 0.97844 0.78036 0.55397 0.0
C483 C 1.02563 0.81072 0.54971 0.0
C484 C 1.03277 0.83181 0.53609 0.0
C485 C 1.05972 0.82628 0.52586 0.0
C486 C 1.08365 0.80437 0.52988 0.0
C487 C 0.08737 0.79734 0.54486 0.0
C488 C 1.05799 0.80025 0.55481 0.0
C489 C 0.90262 0.64 0.52844 0.0
C490 C 0.91514 0.71273 0.50105 0.0
C491 C 0.7498 0.59811 0.50932 0.0
C492 C 0.71567 0.55447 0.51502 0.0
C493 C 0.71671 0.51562 0.51085 0.0
C494 C 0.68451 0.47406 0.51621 0.0
C495 C 0.65026 0.47072 0.52553 0.0
C496 C 0.65049 0.50962 0.53033 0.0
C497 C 0.68308 0.55136 0.5251 0.0
C498 C 0.8504 0.74981 0.52267 0.0
C499 C 0.8216 0.65277 0.55576 0.0
O500 O 0.94811 0.78763 0.54776 0.0
O501 O 0.96678 0.73769 0.55379 0.0
O502 O 0.94209 0.6765 0.52843 0.0
O503 O 0.87213 0.6466 0.5335 0.0
O504 O 0.93409 0.73962 0.5125 0.0
O505 O 0.87725 0.67419 0.50246 0.0
O506 O 0.78905 0.60164 0.50615 0.0
O507 O 0.75311 0.63359 0.51595 0.0
O508 O 0.83406 0.72669 0.51082 0.0
O509 O 0.85288 0.72579 0.53243 0.0
O510 O 0.79985 0.63654 0.54337 0.0
O511 O 0.86449 0.68485 0.5562 0.0
H512 H 1.01151 0.84493 0.53244 0.0
H513 H 1.05755 0.83498 0.51469 0.0
H514 H 0.10909 0.78482 0.54868 0.0
H515 H 1.05505 0.78642 0.56564 0.0
H516 H 0.74193 0.51721 0.50327 0.0
H517 H 0.68504 0.44424 0.51252 0.0
H518 H 0.62405 0.50759 0.53743 0.0
H519 H 0.68197 0.58092 0.5287 0.0
Nd520 Nd 0.42654 0.21246 0.53422 0.0
Nd521 Nd 0.5156 0.23598 0.51821 0.0
C522 C 0.34395 0.18126 0.54426 0.0
C523 C 0.30358 0.17043 0.53598 0.0
C524 C 0.30474 0.16334 0.52093 0.0
C525 C 0.28743 0.18194 0.51124 0.0
C526 C 0.27051 0.2086 0.51671 0.0
C527 C 0.25955 0.20604 0.53168 0.0
C528 C 0.27608 0.18663 0.54135 0.0
C529 C 0.49078 0.30084 0.53297 0.0
C530 C 0.43638 0.22876 0.49804 0.0
C531 C 0.60016 0.27024 0.51076 0.0
C532 C 0.63082 0.25562 0.51619 0.0
C533 C 0.67488 0.28746 0.52035 0.0
C534 C 0.7027 0.27328 0.52676 0.0
C535 C 0.68645 0.22721 0.52895 0.0
C536 C 0.64196 0.19553 0.52519 0.0
C537 C 0.61409 0.20967 0.51898 0.0
C538 C 0.45209 0.14648 0.51863 0.0
C539 C 0.50588 0.21607 0.55397 0.0
O540 O 0.3615 0.15569 0.54183 0.0
O541 O 0.37411 0.2242 0.54401 0.0
O542 O 0.46821 0.28284 0.54484 0.0
O543 O 0.47888 0.27282 0.52286 0.0
O544 O 0.40854 0.20731 0.50916 0.0
O545 O 0.48066 0.25103 0.49987 0.0
O546 O 0.58717 0.28902 0.52068 0.0
O547 O 0.56703 0.2409 0.50254 0.0
O548 O 0.481 0.16525 0.50807 0.0
O549 O 0.46189 0.17407 0.5289 0.0
O550 O 0.53305 0.23302 0.54252 0.0
O551 O 0.46221 0.20162 0.55318 0.0
H552 H 0.32619 0.15133 0.51657 0.0
H553 H 0.29429 0.1822 0.49971 0.0
H554 H 0.2456 0.22565 0.53631 0.0
H555 H 0.27474 0.19215 0.55294 0.0
H556 H 0.68762 0.32306 0.51866 0.0
H557 H 0.73734 0.29799 0.52946 0.0
H558 H 0.62921 0.15987 0.52678 0.0
H559 H 0.5795 0.18461 0.51634 0.0
Nd560 Nd 0.92563 0.23405 0.53546 0.0
Nd561 Nd 0.89038 0.29328 0.52191 0.0
C562 C 0.9668 0.19035 0.54402 0.0
C563 C 0.97678 0.16024 0.53564 0.0
C564 C 0.97914 0.16572 0.52042 0.0
C565 C 0.95363 0.12844 0.51161 0.0
C566 C 0.928 0.08622 0.5181 0.0
C567 C 0.93591 0.07989 0.53269 0.0
C568 C 0.96087 0.11728 0.54152 0.0
C569 C 0.83428 0.20047 0.53636 0.0
C570 C 0.9123 0.23173 0.49951 0.0
C571 C 0.84957 0.33134 0.50911 0.0
C572 C 0.85287 0.37523 0.51124 0.0
C573 C 0.83952 0.38593 0.52446 0.0
C574 C 0.84775 0.4294 0.52693 0.0
C575 C 0.86969 0.46274 0.51629 0.0
C576 C 0.8829 0.45211 0.50308 0.0
C577 C 0.87427 0.40853 0.50053 0.0
C578 C 0.97945 0.33795 0.52985 0.0
C579 C 0.909 0.29924 0.55662 0.0
O580 O 0.98863 0.23272 0.54029 0.0
O581 O 0.92325 0.17473 0.54557 0.0
O582 O 0.85703 0.20016 0.54763 0.0
O583 O 0.85988 0.21937 0.52573 0.0
O584 O 0.92619 0.21729 0.51076 0.0
O585 O 0.89586 0.25907 0.50123 0.0
O586 O 0.83032 0.30154 0.51959 0.0
O587 O 0.88644 0.33338 0.5039 0.0
O588 O 0.95539 0.35767 0.52975 0.0
O589 O 0.95815 0.29982 0.52404 0.0
O590 O 0.88113 0.29945 0.54657 0.0
O591 O 0.93565 0.28237 0.55396 0.0
H592 H 0.99286 0.19885 0.51562 0.0
H593 H 0.94855 0.13332 0.50026 0.0
H594 H 0.91674 1.04718 0.53782 0.0
H595 H 0.95945 0.11254 0.55324 0.0
H596 H 0.82374 0.36118 0.53304 0.0
H597 H 0.83781 0.43722 0.53728 0.0
H598 H 0.89966 0.47743 0.49471 0.0
H599 H 0.88533 0.4011 0.49033 0.0
Nd600 Nd 0.98834 0.49925 0.67403 0.0
Nd601 Nd 0.98354 0.50255 0.69917 0.0
C602 C 0.9715 0.49085 0.64566 0.0
C603 C 0.96535 0.46194 0.63316 0.0
C604 C 0.95542 0.47369 0.61964 0.0
C605 C 0.94449 0.44467 0.60779 0.0
C606 C 0.94312 0.40321 0.60929 0.0
C607 C 0.95418 0.39194 0.62284 0.0
C608 C 0.96512 0.42114 0.63475 0.0
C609 C 1.04584 0.4591 0.68163 0.0
C610 C 0.90107 0.40548 0.68746 0.0
C611 C 1.00634 0.50969 0.72732 0.0
C612 C 1.01585 0.5262 0.74268 0.0
C613 C 1.05044 0.56966 0.74642 0.0
C614 C 1.06195 0.58172 0.76115 0.0
C615 C 1.03959 0.55047 0.77253 0.0
C616 C 1.00403 0.50747 0.76864 0.0
C617 C 0.99233 0.49567 0.75398 0.0
C618 C 0.90596 0.5086 0.69143 0.0
C619 C 1.04365 0.61014 0.68476 0.0
O620 O 0.94028 0.4733 0.65566 0.0
O621 O 1.0122 0.51457 0.65104 0.0
O622 O 1.05212 0.48809 0.67145 0.0
O623 O 1.01068 0.45537 0.68884 0.0
O624 O 0.9197 0.4277 0.67525 0.0
O625 O 0.92284 0.42666 0.69948 0.0
O626 O 1.03586 0.52977 0.71688 0.0
O627 O 0.96481 0.48741 0.72264 0.0
O628 O 0.90989 0.48726 0.70244 0.0
O629 O 0.94463 0.52826 0.68458 0.0
O630 O 1.02865 0.58611 0.69712 0.0
O631 O 1.03255 0.58257 0.67324 0.0
H632 H 0.95525 0.50504 0.61832 0.0
H633 H 0.93715 0.45476 0.59742 0.0
H634 H 0.95333 0.36018 0.62433 0.0
H635 H 0.97235 0.41152 0.64523 0.0
H636 H 1.0692 0.59401 0.73798 0.0
H637 H 0.08888 0.61549 0.76357 0.0
H638 H 0.98626 0.48199 0.77687 0.0
H639 H 0.96578 0.46175 0.75145 0.0
Nd640 Nd 0.63461 0.50763 0.67412 0.0
Nd641 Nd 0.63038 0.49887 0.69884 0.0
C642 C 0.64513 0.50106 0.64582 0.0
C643 C 0.67351 0.5261 0.63347 0.0
C644 C 0.67776 0.50162 0.62199 0.0
C645 C 0.7041 0.52383 0.60991 0.0
C646 C 0.72648 0.571 0.6091 0.0
C647 C 0.7234 0.59573 0.62087 0.0
C648 C 0.69695 0.57332 0.63305 0.0
C649 C 0.67406 0.60475 0.68158 0.0
C650 C 0.72892 0.51508 0.68798 0.0
C651 C 0.61607 0.50959 0.72674 0.0
C652 C 0.60827 0.51511 0.74246 0.0
C653 C 0.59196 0.54386 0.74672 0.0
C654 C 0.58404 0.54864 0.76148 0.0
C655 C 0.59192 0.5246 0.77248 0.0
C656 C 0.60842 0.49588 0.76817 0.0
C657 C 0.61649 0.49124 0.75339 0.0
C658 C 0.6258 0.41643 0.6909 0.0
C659 C 0.52271 0.45104 0.68414 0.0
O660 O 0.66467 0.4896 0.65577 0.0
O661 O 0.61796 0.51403 0.6512 0.0
O662 O 0.64521 0.58168 0.67137 0.0
O663 O 0.67773 0.57385 0.68902 0.0
O664 O 0.70645 0.51038 0.67571 0.0
O665 O 0.70736 0.51617 0.6999 0.0
O666 O 0.60585 0.52825 0.71609 0.0
O667 O 0.63435 0.48597 0.72249 0.0
O668 O 0.64799 0.44226 0.70176 0.0
O669 O 0.60544 0.43482 0.68414 0.0
O670 O 0.54656 0.46003 0.69652 0.0
O671 O 0.5508 0.46789 0.67274 0.0
H672 H 0.6604 0.46516 0.62232 0.0
H673 H 0.7067 0.50403 0.60113 0.0
H674 H 0.74035 0.63214 0.62048 0.0
H675 H 0.69441 0.59264 0.642 0.0
H676 H 0.58537 0.56286 0.73862 0.0
H677 H 0.57221 0.57176 0.76425 0.0
H678 H 0.61445 0.4763 0.77618 0.0
H679 H 0.62885 0.46859 0.75052 0.0
Nd680 Nd 0.62656 0.14695 0.67388 0.0
Nd681 Nd 0.6357 0.15217 0.69878 0.0
C682 C 0.63209 0.16201 0.64545 0.0
C683 C 0.6069 0.16456 0.6329 0.0
C684 C 0.58161 0.18668 0.63379 0.0
C685 C 0.5633 0.19408 0.62118 0.0
C686 C 0.57002 0.1794 0.60755 0.0
C687 C 0.59344 0.15533 0.60687 0.0
C688 C 0.61183 0.14812 0.61945 0.0
C689 C 0.52926 0.08909 0.68172 0.0
C690 C 0.61899 0.23356 0.68764 0.0
C691 C 0.62707 0.12985 0.72687 0.0
C692 C 0.62288 0.11821 0.7427 0.0
C693 C 0.59307 0.07417 0.74743 0.0
C694 C 0.59026 0.06271 0.76223 0.0
C695 C 0.61756 0.09481 0.77281 0.0
C696 C 0.64702 0.13915 0.76805 0.0
C697 C 0.6496 0.15067 0.75322 0.0
C698 C 0.71811 0.22957 0.69054 0.0
C699 C 0.68232 0.09122 0.68405 0.0
O700 O 0.64438 0.19343 0.65529 0.0
O701 O 0.6192 0.12242 0.65099 0.0
O702 O 0.5523 0.08316 0.6715 0.0
O703 O 0.56029 0.12411 0.68898 0.0
O704 O 0.6237 0.21565 0.67539 0.0
O705 O 0.61791 0.21127 0.6996 0.0
O706 O 0.60622 0.10031 0.71653 0.0
O707 O 0.65146 0.17095 0.72221 0.0
O708 O 0.69212 0.22627 0.70134 0.0
O709 O 0.69981 0.19074 0.68392 0.0
O710 O 0.67314 0.106 0.69643 0.0
O711 O 0.66628 0.10305 0.6726 0.0
H712 H 0.57732 0.19957 0.64411 0.0
H713 H 0.54545 0.21277 0.62203 0.0
H714 H 0.59822 0.14272 0.59657 0.0
H715 H 0.63114 0.13086 0.6186 0.0
H716 H 0.57186 1.04836 0.73966 0.0
H717 H 0.56624 1.02847 0.76535 0.0
H718 H 0.66895 0.16491 0.7757 0.0
H719 H 0.6731 0.18496 0.74997 0.0
Nd720 Nd 0.65069 0.15396 0.17819 0.0
Nd721 Nd 0.59023 0.0651 0.16193 0.0
C722 C 0.69544 0.23784 0.18649 0.0
C723 C 0.74076 0.26982 0.18172 0.0
C724 C 0.76285 0.31397 0.18687 0.0
C725 C 0.80723 0.34313 0.1825 0.0
C726 C 0.82927 0.32802 0.17295 0.0
C727 C 0.80651 0.28407 0.16755 0.0
C728 C 0.76256 0.25495 0.17204 0.0
C729 C 0.68247 0.09504 0.17889 0.0
C730 C 0.66722 0.14517 0.14284 0.0
C731 C 0.54233 0.98496 0.14973 0.0
C732 C 0.50782 0.94187 0.15539 0.0
C733 C 0.50374 0.93634 0.17055 0.0
C734 C 0.46074 0.91506 0.17673 0.0
C735 C 0.42329 0.904 0.16763 0.0
C736 C 0.42745 0.89387 0.15297 0.0
C737 C 0.47029 0.91541 0.14659 0.0
C738 C 0.56199 0.12763 0.16318 0.0
C739 C 0.57943 0.07116 0.19787 0.0
O740 O 0.66523 0.22398 0.17605 0.0
O741 O 0.69331 0.20514 0.19443 0.0
O742 O 0.69236 0.12596 0.18868 0.0
O743 O 0.66361 0.10205 0.1682 0.0
O744 O 0.67268 0.17239 0.15391 0.0
O745 O 0.64124 0.10133 0.14396 0.0
O746 O 0.58293 1.00009 0.15487 0.0
O747 O 0.53018 1.01567 0.14958 0.0
O748 O 0.56268 0.10818 0.15111 0.0
O749 O 0.57712 0.11473 0.1733 0.0
O750 O 0.5747 1.04429 0.18664 0.0
O751 O 0.60009 0.11531 0.19626 0.0
H752 H 0.74617 0.3255 0.19438 0.0
H753 H 0.82464 0.37721 0.18672 0.0
H754 H 0.82331 0.27177 0.16037 0.0
H755 H 0.74595 0.22045 0.16824 0.0
H756 H 0.53278 0.95454 0.17763 0.0
H757 H 0.45855 0.91594 0.18847 0.0
H758 H 0.39843 0.87751 0.14583 0.0
H759 H 0.47313 0.91719 0.13481 0.0
Nd760 Nd 1.00001 0.52947 0.17357 0.0
Nd761 Nd 0.08473 0.53779 0.15703 0.0
C762 C 0.91877 0.50453 0.18349 0.0
C763 C 0.885 0.51532 0.17842 0.0
C764 C 0.88929 0.53409 0.16451 0.0
C765 C 0.8589 0.54741 0.15993 0.0
C766 C 0.82455 0.54288 0.16936 0.0
C767 C 0.81999 0.52351 0.18323 0.0
C768 C 0.85026 0.5099 0.18775 0.0
C769 C 1.06815 0.61587 0.16897 0.0
C770 C 1.00254 0.53515 0.13779 0.0
C771 C 0.15753 0.55635 0.14135 0.0
C772 C 0.20654 0.57687 0.14308 0.0
C773 C 0.22951 0.61443 0.15221 0.0
C774 C 0.26117 0.61549 0.16207 0.0
C775 C 0.26844 0.57876 0.16236 0.0
C776 C 0.25989 0.55328 0.14949 0.0
C777 C 0.22616 0.5502 0.14018 0.0
C778 C 1.01334 0.45351 0.16158 0.0
C779 C 1.0796 0.53607 0.19395 0.0
O780 O 0.92714 0.47967 0.17455 0.0
O781 O 0.95531 0.53882 0.18887 0.0
O782 O 1.04029 0.60438 0.17989 0.0
O783 O 1.05616 0.58309 0.1605 0.0
O784 O 0.97706 0.52249 0.14963 0.0
O785 O 1.04568 0.5467 0.13822 0.0
O786 O 0.14069 0.58321 0.14227 0.0
O787 O 0.13335 0.51851 0.14846 0.0
O788 O 1.03423 0.46537 0.14915 0.0
O789 O 1.03002 0.48541 0.1704 0.0
O790 O 0.10704 0.54903 0.18225 0.0
O791 O 1.03539 0.51788 0.19247 0.0
H792 H 0.9167 0.53947 0.15733 0.0
H793 H 0.86315 0.56258 0.14926 0.0
H794 H 0.79325 0.51928 0.19061 0.0
H795 H 0.84707 0.49595 0.19857 0.0
H796 H 0.21788 0.63832 0.15331 0.0
H797 H 0.27103 0.63822 0.17129 0.0
H798 H 0.26843 0.52678 0.14888 0.0
H799 H 0.21042 0.52225 0.1326 0.0
Nd800 Nd 0.62099 0.48961 0.17452 0.0
Nd801 Nd 0.59341 0.55358 0.15987 0.0
C802 C 0.65683 0.44475 0.18575 0.0
C803 C 0.64618 0.39994 0.18105 0.0
C804 C 0.65763 0.37339 0.18958 0.0
C805 C 0.64199 0.32868 0.18563 0.0
C806 C 0.61441 0.31026 0.1732 0.0
C807 C 0.60422 0.33748 0.16449 0.0
C808 C 0.61994 0.38198 0.16841 0.0
C809 C 0.5309 0.45229 0.16789 0.0
C810 C 0.59935 0.47979 0.1398 0.0
C811 C 0.55829 0.60183 0.15048 0.0
C812 C 0.53672 0.62205 0.15885 0.0
C813 C 0.52523 0.60708 0.17331 0.0
C814 C 0.54149 0.63858 0.18454 0.0
C815 C 0.56839 0.68405 0.18101 0.0
C816 C 0.56643 0.6983 0.16676 0.0
C817 C 0.55042 0.6668 0.15553 0.0
C818 C 0.68312 0.57864 0.15906 0.0
C819 C 0.60246 0.55391 0.19632 0.0
O820 O 0.67812 0.47644 0.17597 0.0
O821 O 0.62253 0.44587 0.19186 0.0
O822 O 0.55099 0.42867 0.16828 0.0
O823 O 0.55679 0.49101 0.17268 0.0
O824 O 0.62626 0.47828 0.14992 0.0
O825 O 0.57701 0.5015 0.14199 0.0
O826 O 0.53648 0.55788 0.14992 0.0
O827 O 0.60144 0.61908 0.15362 0.0
O828 O 0.66163 0.5796 0.14754 0.0
O829 O 0.65705 0.56326 0.16973 0.0
O830 O 0.58712 0.56613 0.18481 0.0
O831 O 0.62097 0.52818 0.19492 0.0
H832 H 0.67754 0.38681 0.19942 0.0
H833 H 0.65074 0.30826 0.19239 0.0
H834 H 0.58272 0.32394 0.15497 0.0
H835 H 0.61034 0.40199 0.16182 0.0
H836 H 0.51329 0.57226 0.17609 0.0
H837 H 0.54102 0.62738 0.19558 0.0
H838 H 0.58562 0.73355 0.16378 0.0
H839 H 0.55826 0.67872 0.14437 0.0
Nd840 Nd 0.51515 0.26846 0.99751 0.0
Nd841 Nd 0.5098 0.27159 0.02288 0.0
C842 C 0.49297 0.26113 0.96926 0.0
C843 C 0.48283 0.2427 0.95406 0.0
C844 C 0.43865 0.22418 0.94853 0.0
C845 C 0.42965 0.21371 0.93365 0.0
C846 C 0.4646 0.2214 0.92374 0.0
C847 C 0.50877 0.23903 0.92937 0.0
C848 C 0.51776 0.24957 0.94429 0.0
C849 C 0.59239 0.26232 1.00552 0.0
C850 C 0.45492 0.16069 1.01185 0.0
C851 C 0.52488 0.28175 0.0514 0.0
C852 C 0.53014 0.31156 0.06367 0.0
C853 C 0.5473 0.35789 0.06165 0.0
C854 C 0.55814 0.38648 0.07374 0.0
C855 C 0.55216 0.36911 0.08798 0.0
C856 C 0.5331 0.32243 0.08987 0.0
C857 C 0.52224 0.29396 0.07782 0.0
C858 C 0.45232 0.31117 0.01462 0.0
C859 C 0.59728 0.36536 1.00936 0.0
O860 O 0.46273 0.2448 0.9797 0.0
O861 O 0.53433 0.28011 0.97412 0.0
O862 O 0.58876 0.2838 0.99449 0.0
O863 O 0.55369 0.24275 1.01238 0.0
O864 O 0.46939 0.18498 0.99952 0.0
O865 O 0.46655 0.18805 0.02347 0.0
O866 O 0.55666 0.29824 0.04155 0.0
O867 O 0.48457 0.2572 0.04583 0.0
O868 O 0.44474 0.28104 0.02453 0.0
O869 O 0.48877 0.31607 1.00799 0.0
O870 O 0.57891 0.34282 0.02155 0.0
O871 O 0.5753 0.34453 0.99732 0.0
H872 H 0.41109 0.21936 0.95562 0.0
H873 H 0.39531 0.20114 0.92987 0.0
H874 H 0.53662 0.24509 0.92223 0.0
H875 H 0.55242 0.26439 0.94807 0.0
H876 H 0.55373 0.37212 0.05078 0.0
H877 H 0.57278 0.4223 0.07194 0.0
H878 H 0.52716 0.30795 0.10069 0.0
H879 H 0.50901 0.25829 0.07956 0.0
Nd880 Nd 0.86738 0.27188 0.99753 0.0
Nd881 Nd 0.8631 0.26245 0.02284 0.0
C882 C 0.88056 0.26382 0.96924 0.0
C883 C 0.88749 0.26027 0.95326 0.0
C884 C 0.90476 0.23316 0.94811 0.0
C885 C 0.91225 0.23069 0.93313 0.0
C886 C 0.90291 0.25545 0.92276 0.0
C887 C 0.88526 0.28235 0.92796 0.0
C888 C 0.87773 0.28476 0.94296 0.0
C889 C 0.87202 0.35387 1.00599 0.0
C890 C 0.97497 0.31913 1.01244 0.0
C891 C 0.85237 0.26728 0.05134 0.0
C892 C 0.82431 0.24331 0.06405 0.0
C893 C 0.77689 0.21748 0.06308 0.0
C894 C 0.75071 0.20044 0.07572 0.0
C895 C 0.77154 0.20904 0.08952 0.0
C896 C 0.81911 0.23339 0.09032 0.0
C897 C 0.84518 0.25039 0.0777 0.0
C898 C 0.82441 0.16594 0.01446 0.0
C899 C 0.76896 0.25526 1.00892 0.0
O900 O 0.89066 0.24357 0.97942 0.0
O901 O 0.86293 0.28728 0.9742 0.0
O902 O 0.8497 0.32838 0.99511 0.0
O903 O 0.89228 0.33519 1.01267 0.0
O904 O 0.95108 0.30938 1.00003 0.0
O905 O 0.94703 0.30314 0.02393 0.0
O906 O 0.83377 0.28007 0.04145 0.0
O907 O 0.87877 0.25359 0.04583 0.0
O908 O 0.85343 0.18849 0.0247 0.0
O909 O 0.82006 0.1972 1.00752 0.0
O910 O 0.79153 0.26012 0.02118 0.0
O911 O 0.79021 0.25394 0.99695 0.0
H912 H 0.9126 0.21377 0.95568 0.0
H913 H 0.92503 0.20886 0.92969 0.0
H914 H 0.87802 0.30233 0.92047 0.0
H915 H 0.86459 0.30623 0.94649 0.0
H916 H 0.76003 0.21169 0.05263 0.0
H917 H 0.71415 0.18191 0.07472 0.0
H918 H 0.83621 0.23974 0.10073 0.0
H919 H 0.88172 0.27028 0.07866 0.0
Nd920 Nd 0.86265 0.61802 0.99762 0.0
Nd921 Nd 0.87206 0.62348 0.02289 0.0
C922 C 0.87071 0.6391 0.96937 0.0
C923 C 0.87429 0.6496 0.95343 0.0
C924 C 0.90259 0.6936 0.94834 0.0
C925 C 0.90494 0.70368 0.9334 0.0
C926 C 0.87887 0.67011 0.92302 0.0
C927 C 0.85085 0.62592 0.92815 0.0
C928 C 0.84856 0.61585 0.94312 0.0
C929 C 0.78033 0.54111 1.00616 0.0
C930 C 0.81634 0.67923 1.01258 0.0
C931 C 0.86756 0.60541 0.05118 0.0
C932 C 0.89098 0.59466 0.06267 0.0
C933 C 0.86868 0.55138 0.06877 0.0
C934 C 0.8883 0.54021 0.08015 0.0
C935 C 0.93056 0.57222 0.08582 0.0
C936 C 0.9536 0.61532 0.07946 0.0
C937 C 0.93393 0.6265 0.06797 0.0
C938 C 0.96872 0.68138 0.01446 0.0
C939 C 0.87989 0.53708 1.0089 0.0
O940 O 0.89209 0.66914 0.97955 0.0
O941 O 0.84614 0.59836 0.9743 0.0
O942 O 0.80605 0.54401 0.99533 0.0
O943 O 0.79891 0.5801 1.0127 0.0
O944 O 0.82558 0.66447 1.00019 0.0
O945 O 0.83235 0.66751 0.02409 0.0
O946 O 0.84804 0.57503 0.04108 0.0
O947 O 0.88629 0.64634 0.04607 0.0
O948 O 0.94591 0.68827 0.02457 0.0
O949 O 0.93758 0.64529 1.00767 0.0
O950 O 0.87609 0.55551 0.02116 0.0
O951 O 0.88012 0.55874 0.9969 0.0
H952 H 0.92295 0.72043 0.95592 0.0
H953 H 0.92766 0.73797 0.92999 0.0
H954 H 0.82987 0.59913 0.92065 0.0
H955 H 0.82618 0.58155 0.94662 0.0
H956 H 0.83558 0.52618 0.06486 0.0
H957 H 0.87007 0.5065 0.08461 0.0
H958 H 0.98612 0.64081 0.08365 0.0
H959 H 0.95196 0.66012 0.06344 0.0
Nd960 Nd 0.58013 1.04023 0.8694 0.0
Nd961 Nd 0.52179 0.95033 0.85307 0.0
C962 C 0.62619 0.11912 0.88255 0.0
C963 C 0.65916 0.16379 0.87753 0.0
C964 C 0.65978 0.17283 0.86259 0.0
C965 C 0.70107 0.19655 0.85548 0.0
C966 C 0.74045 0.20764 0.86332 0.0
C967 C 0.74007 0.2109 0.87856 0.0
C968 C 0.69872 0.18777 0.8858 0.0
C969 C 0.60986 0.97866 0.86876 0.0
C970 C 0.59117 1.03506 0.83355 0.0
C971 C 0.47759 0.86597 0.84545 0.0
C972 C 0.42994 0.83575 0.84895 0.0
C973 C 0.4166 0.79444 0.85576 0.0
C974 C 0.37277 0.76918 0.86132 0.0
C975 C 0.34197 0.78499 0.86004 0.0
C976 C 0.35568 0.82663 0.85344 0.0
C977 C 0.39927 0.85185 0.84798 0.0
C978 C 0.48681 1.00651 0.85205 0.0
C979 C 0.50363 0.95908 0.88814 0.0
O980 O 0.58499 0.10317 0.87777 0.0
O981 O 0.64023 0.08994 0.88159 0.0
O982 O 0.60793 0.99807 0.88068 0.0
O983 O 0.59494 0.99098 0.85842 0.0
O984 O 0.59485 0.0616 0.84477 0.0
O985 O 0.57247 0.99098 0.83519 0.0
O986 O 0.50408 0.87982 0.85689 0.0
O987 O 0.4856 0.89832 0.83624 0.0
O988 O 0.47658 0.97432 0.84273 0.0
O989 O 0.50702 1.00136 0.86273 0.0
O990 O 0.4996 0.93202 0.87721 0.0
O991 O 0.52825 1.00301 0.887 0.0
H992 H 0.62978 0.15456 0.85598 0.0
H993 H 0.70115 0.19541 0.84365 0.0
H994 H 0.77086 0.22117 0.88472 0.0
H995 H 0.69869 0.18153 0.89739 0.0
H996 H 0.44034 0.78234 0.85706 0.0
H997 H 0.36271 0.73708 0.86641 0.0
H998 H 0.33258 0.83966 0.8525 0.0
H999 H 0.40915 0.88446 0.84331 0.0
Nd1000 Nd 0.09664 0.56108 0.86875 0.0
Nd1001 Nd 0.1866 0.59175 0.85243 0.0
C1002 C 1.01691 0.52833 0.88159 0.0
C1003 C 0.97243 0.51742 0.87638 0.0
C1004 C 0.96472 0.51056 0.86132 0.0
C1005 C 0.94423 0.53119 0.8541 0.0
C1006 C 0.9336 0.55949 0.86206 0.0
C1007 C 0.92919 0.55527 0.87726 0.0
C1008 C 0.94915 0.53406 0.88455 0.0
C1009 C 0.16037 0.6509 0.86969 0.0
C1010 C 0.10367 0.58138 0.833 0.0
C1011 C 0.27193 0.62997 0.84552 0.0
C1012 C 0.30036 0.6117 0.85024 0.0
C1013 C 0.3454 0.64014 0.85439 0.0
C1014 C 0.37011 0.62193 0.86061 0.0
C1015 C 0.34978 0.57518 0.8626 0.0
C1016 C 0.30456 0.54696 0.85866 0.0
C1017 C 0.27989 0.56509 0.85265 0.0
C1018 C 0.12639 0.50201 0.84992 0.0
C1019 C 0.1761 0.56044 0.88716 0.0
O1020 O 1.03276 0.50315 0.87674 0.0
O1021 O 1.04663 0.57133 0.88089 0.0
O1022 O 0.14022 0.62805 0.88127 0.0
O1023 O 0.14806 0.62583 0.85876 0.0
O1024 O 1.07638 0.55837 0.84409 0.0
O1025 O 0.1481 0.6055 0.83476 0.0
O1026 O 0.25758 0.64491 0.85625 0.0
O1027 O 0.23992 0.60459 0.83627 0.0
O1028 O 0.15829 0.52447 0.8405 0.0
O1029 O 0.13328 0.52569 0.86118 0.0
O1030 O 0.20388 0.5827 0.87628 0.0
O1031 O 0.13217 0.54365 0.88611 0.0
H1032 H 0.98246 0.49794 0.8548 0.0
H1033 H 0.9468 0.53351 0.84231 0.0
H1034 H 0.91978 0.57634 0.88346 0.0
H1035 H 0.95441 0.53908 0.89621 0.0
H1036 H 0.36124 0.67616 0.85286 0.0
H1037 H 0.40535 0.64404 0.86343 0.0
H1038 H 0.28854 0.51083 0.8601 0.0
H1039 H 0.24459 0.5426 0.85 0.0
Nd1040 Nd 0.57274 0.55339 0.8697 0.0
Nd1041 Nd 0.54304 0.61708 0.85574 0.0
C1042 C 0.61115 0.50747 0.87841 0.0
C1043 C 0.6311 0.48616 0.86979 0.0
C1044 C 0.63879 0.49831 0.85499 0.0
C1045 C 0.61986 0.46461 0.84447 0.0
C1046 C 0.59472 0.41985 0.84898 0.0
C1047 C 0.60002 0.40858 0.86333 0.0
C1048 C 0.61866 0.44223 0.87384 0.0
C1049 C 0.4826 0.52681 0.87111 0.0
C1050 C 0.56186 0.55414 0.8334 0.0
C1051 C 0.50546 0.66121 0.84524 0.0
C1052 C 0.5153 0.70525 0.85051 0.0
C1053 C 0.50625 0.73353 0.84197 0.0
C1054 C 0.52316 0.7782 0.84623 0.0
C1055 C 0.54943 0.79475 0.859 0.0
C1056 C 0.55665 0.76569 0.86781 0.0
C1057 C 0.53987 0.72132 0.86354 0.0
C1058 C 0.63299 0.65513 0.86251 0.0
C1059 C 0.56459 0.62461 0.89041 0.0
O1060 O 0.63254 0.55144 0.87821 0.0
O1061 O 0.56732 0.48929 0.87633 0.0
O1062 O 0.50491 0.52516 0.88232 0.0
O1063 O 0.50815 0.54325 0.86033 0.0
O1064 O 0.57673 0.54065 0.84471 0.0
O1065 O 0.54406 0.5804 0.83507 0.0
O1066 O 0.48468 0.62844 0.8547 0.0
O1067 O 0.54019 0.66152 0.83889 0.0
O1068 O 0.61262 0.67853 0.86236 0.0
O1069 O 0.60772 0.61689 0.85732 0.0
O1070 O 0.53752 0.62626 0.8804 0.0
O1071 O 0.58779 0.60391 0.88798 0.0
H1072 H 0.65024 0.53264 0.85166 0.0
H1073 H 0.61781 0.47338 0.8333 0.0
H1074 H 0.58208 0.374 0.86707 0.0
H1075 H 0.61376 0.43254 0.88524 0.0
H1076 H 0.48778 0.72164 0.83182 0.0
H1077 H 0.51677 0.80014 0.83938 0.0
H1078 H 0.57715 0.7778 0.87759 0.0
H1079 H 0.54794 0.70011 0.8701 0.0
Nd1080 Nd 0.65491 0.83515 1.00628 0.0
Nd1081 Nd 0.64877 0.83928 0.03109 0.0
C1082 C 0.6393 0.8245 0.97786 0.0
C1083 C 0.63399 0.79432 0.96577 0.0
C1084 C 0.61865 0.74846 0.96812 0.0
C1085 C 0.60743 0.71912 0.95625 0.0
C1086 C 0.61125 0.73534 0.94194 0.0
C1087 C 0.62862 0.78163 0.9397 0.0
C1088 C 0.63984 0.81085 0.95153 0.0
C1089 C 0.71223 0.79534 1.01436 0.0
C1090 C 0.56771 0.74137 0.01991 0.0
C1091 C 0.66956 0.85345 0.05927 0.0
C1092 C 0.68044 0.86084 0.07513 0.0
C1093 C 0.72398 0.89307 0.07978 0.0
C1094 C 0.73439 0.9004 0.09467 0.0
C1095 C 0.70176 0.87524 0.10543 0.0
C1096 C 0.65776 0.84366 0.10074 0.0
C1097 C 0.64721 0.83669 0.08579 0.0
C1098 C 0.57129 0.84412 0.02261 0.0
C1099 C 0.70964 0.94645 0.01652 0.0
O1100 O 0.60766 0.80806 0.98776 0.0
O1101 O 0.67973 0.84927 0.98332 0.0
O1102 O 0.71846 0.82378 1.00401 0.0
O1103 O 0.67738 0.7922 0.02164 0.0
O1104 O 0.58608 0.76364 1.00768 0.0
O1105 O 0.5896 0.7628 0.0319 0.0
O1106 O 0.70038 0.86746 0.04903 0.0
O1107 O 0.62816 0.83103 0.05449 0.0
O1108 O 0.57435 0.82185 0.03348 0.0
O1109 O 0.61044 0.86437 0.01604 0.0
O1110 O 0.69391 0.9226 0.02885 0.0
O1111 O 0.69917 0.91859 1.0051 0.0
H1112 H 0.61386 0.73515 0.9791 0.0
H1113 H 0.59416 0.68359 0.95828 0.0
H1114 H 0.63284 0.79517 0.92878 0.0
H1115 H 0.65167 0.84617 0.94957 0.0
H1116 H 0.75011 0.91288 0.07188 0.0
H1117 H 0.76834 0.92594 0.09771 0.0
H1118 H 0.63171 0.82336 0.10858 0.0
H1119 H 0.61313 0.81185 0.08257 0.0
Nd1120 Nd 0.30036 0.84362 1.00591 0.0
Nd1121 Nd 0.29723 0.83588 0.03081 0.0
C1122 C 0.3099 0.83503 0.97761 0.0
C1123 C 0.34027 0.85565 0.96513 0.0
C1124 C 0.35349 0.82906 0.95723 0.0
C1125 C 0.38153 0.84643 0.94511 0.0
C1126 C 0.39659 0.89071 0.94053 0.0
C1127 C 0.38393 0.91774 0.94861 0.0
C1128 C 0.35597 0.90033 0.96087 0.0
C1129 C 0.34042 0.94091 1.01358 0.0
C1130 C 0.39503 0.85129 0.01941 0.0
C1131 C 0.28853 0.85258 0.05869 0.0
C1132 C 0.26896 0.84634 0.07364 0.0
C1133 C 0.25469 0.87594 0.07873 0.0
C1134 C 0.24372 0.8763 0.09346 0.0
C1135 C 0.24667 0.84702 0.10362 0.0
C1136 C 0.25964 0.81634 0.0984 0.0
C1137 C 0.27073 0.81606 0.08363 0.0
C1138 C 0.29161 0.75274 0.02326 0.0
C1139 C 0.189 0.78764 0.01654 0.0
O1140 O 0.32473 0.81909 0.98773 0.0
O1141 O 0.28759 0.85385 0.98281 0.0
O1142 O 0.31052 0.91787 1.00359 0.0
O1143 O 0.34505 0.90987 0.02054 0.0
O1144 O 0.37273 0.84756 1.00719 0.0
O1145 O 0.37359 0.85166 0.03143 0.0
O1146 O 0.27408 0.86697 0.0479 0.0
O1147 O 0.30629 0.82851 0.05441 0.0
O1148 O 0.31361 0.7786 0.03414 0.0
O1149 O 0.27148 0.7712 0.01638 0.0
O1150 O 0.21328 0.79678 0.02886 0.0
O1151 O 0.21659 0.80436 1.00501 0.0
H1152 H 0.34195 0.79458 0.96044 0.0
H1153 H 0.39146 0.82509 0.93934 0.0
H1154 H 0.39483 0.95196 0.94529 0.0
H1155 H 0.34639 0.92155 0.96688 0.0
H1156 H 0.25386 0.90033 0.07142 0.0
H1157 H 0.23479 0.90107 0.09696 0.0
H1158 H 0.26185 0.79286 0.10577 0.0
H1159 H 0.28208 0.79308 0.08015 0.0
Nd1160 Nd 0.29277 0.48307 1.00659 0.0
Nd1161 Nd 0.30217 0.48858 0.03155 0.0
C1162 C 0.29836 0.49815 0.97814 0.0
C1163 C 0.27388 0.50196 0.96559 0.0
C1164 C 0.2506 0.52612 0.96647 0.0
C1165 C 0.23317 0.53467 0.95387 0.0
C1166 C 0.23875 0.51915 0.94023 0.0
C1167 C 0.26025 0.49326 0.93954 0.0
C1168 C 0.27774 0.48484 0.95212 0.0
C1169 C 0.19554 0.42539 0.01461 0.0
C1170 C 0.28514 0.5698 0.02032 0.0
C1171 C 0.29412 0.46649 0.05967 0.0
C1172 C 0.29061 0.45522 0.07552 0.0
C1173 C 0.25706 0.41305 0.08066 0.0
C1174 C 0.25415 0.40222 0.09555 0.0
C1175 C 0.28507 0.43306 0.10579 0.0
C1176 C 0.31875 0.47534 0.10056 0.0
C1177 C 0.3214 0.48627 0.08567 0.0
C1178 C 0.38443 0.56582 0.02313 0.0
C1179 C 0.34866 0.42749 0.01687 0.0
O1180 O 0.31175 0.52966 0.988 0.0
O1181 O 0.28416 0.45829 0.98367 0.0
O1182 O 0.21844 0.41923 1.00438 0.0
O1183 O 0.22671 0.46056 0.02177 0.0
O1184 O 0.28953 0.5516 1.00807 0.0
O1185 O 0.28446 0.54781 0.03231 0.0
O1186 O 0.27183 0.43706 0.04943 0.0
O1187 O 0.31943 0.50734 0.0549 0.0
O1188 O 0.35847 0.56281 0.03391 0.0
O1189 O 0.36606 0.52682 0.0166 0.0
O1190 O 0.33944 0.44229 0.02922 0.0
O1191 O 0.33259 0.4392 1.0054 0.0
H1192 H 0.24721 0.53965 0.97679 0.0
H1193 H 0.21684 0.5548 0.95473 0.0
H1194 H 0.26414 0.48005 0.92923 0.0
H1195 H 0.29554 0.46607 0.95126 0.0
H1196 H 0.23274 0.38836 0.07318 0.0
H1197 H 0.22703 0.36968 0.09901 0.0
H1198 H 0.34365 0.49995 0.10791 0.0
H1199 H 0.34797 0.51899 0.08209 0.0
Nd1200 Nd 0.31583 0.46243 0.50948 0.0
Nd1201 Nd 0.24026 0.38565 0.49192 0.0
C1202 C 0.3762 0.53938 0.52051 0.0
C1203 C 0.42023 0.57445 0.51548 0.0
C1204 C 0.42447 0.59943 0.50285 0.0
C1205 C 0.46705 0.63233 0.49819 0.0
C1206 C 0.50546 0.64007 0.50607 0.0
C1207 C 0.50128 0.61355 0.51824 0.0
C1208 C 0.45884 0.58128 0.52302 0.0
C1209 C 0.32706 0.38914 0.50518 0.0
C1210 C 0.32512 0.46258 0.47362 0.0
C1211 C 0.17805 0.30824 0.48106 0.0
C1212 C 0.13618 0.27642 0.48868 0.0
C1213 C 0.14072 0.2709 0.50366 0.0
C1214 C 0.11794 0.28306 0.51365 0.0
C1215 C 0.08772 0.29635 0.50851 0.0
C1216 C 1.0727 0.28656 0.49394 0.0
C1217 C 0.09654 0.27544 0.48398 0.0
C1218 C 0.23189 0.45962 0.49586 0.0
C1219 C 0.23386 0.39191 0.52906 0.0
O1220 O 0.34095 0.53449 0.51321 0.0
O1221 O 0.37423 0.50132 0.52384 0.0
O1222 O 0.33754 0.4121 0.51722 0.0
O1223 O 0.3125 0.40617 0.49609 0.0
O1224 O 0.33731 0.48685 0.48575 0.0
O1225 O 0.2918 0.42033 0.47353 0.0
O1226 O 0.21583 0.3138 0.48668 0.0
O1227 O 0.18038 0.34668 0.47796 0.0
O1228 O 0.2233 0.43891 0.48337 0.0
O1229 O 0.24346 0.44079 0.5052 0.0
O1230 O 0.21693 0.3677 0.51686 0.0
O1231 O 0.26854 0.43291 0.52858 0.0
H1232 H 0.39509 0.59407 0.49667 0.0
H1233 H 0.46978 0.65276 0.48882 0.0
H1234 H 0.53082 0.61869 0.52429 0.0
H1235 H 0.45617 0.56172 0.53263 0.0
H1236 H 0.16858 0.26748 0.50765 0.0
H1237 H 0.12841 0.28758 0.52496 0.0
H1238 H 1.04649 0.29291 0.48992 0.0
H1239 H 0.09025 0.27657 0.47245 0.0
Nd1240 Nd 0.67249 0.87221 0.50966 0.0
Nd1241 Nd 0.75292 0.87405 0.49193 0.0
C1242 C 0.59276 0.85227 0.51988 0.0
C1243 C 0.55803 0.86155 0.51454 0.0
C1244 C 0.55308 0.86558 0.49952 0.0
C1245 C 0.52317 0.87902 0.49448 0.0
C1246 C 0.49723 0.88789 0.50442 0.0
C1247 C 0.50141 0.88246 0.51947 0.0
C1248 C 0.53203 0.8699 0.52449 0.0
C1249 C 0.74717 0.95495 0.50608 0.0
C1250 C 0.67442 0.8817 0.47373 0.0
C1251 C 0.82611 0.89324 0.47653 0.0
C1252 C 0.87448 0.91004 0.47867 0.0
C1253 C 0.89996 0.94818 0.48738 0.0
C1254 C 0.932 0.94856 0.49691 0.0
C1255 C 0.9372 0.91062 0.49739 0.0
C1256 C 0.92516 0.88295 0.48492 0.0
C1257 C 0.89129 0.88088 0.47591 0.0
C1258 C 0.67673 0.79355 0.49484 0.0
C1259 C 0.74667 0.86351 0.52888 0.0
O1260 O 0.59946 0.82418 0.51198 0.0
O1261 O 0.63027 0.88787 0.52412 0.0
O1262 O 0.72186 0.94397 0.51768 0.0
O1263 O 0.73097 0.92379 0.49688 0.0
O1264 O 0.65151 0.87515 0.48599 0.0
O1265 O 0.71439 0.88442 0.47336 0.0
O1266 O 0.81192 0.9219 0.47887 0.0
O1267 O 0.79895 0.85332 0.48208 0.0
O1268 O 0.69985 0.80474 0.4828 0.0
O1269 O 0.69499 0.8231 0.50443 0.0
O1270 O 0.77334 0.87516 0.51701 0.0
O1271 O 0.70395 0.85323 0.528 0.0
H1272 H 0.57262 0.85878 0.4917 0.0
H1273 H 0.5209 0.88304 0.48285 0.0
H1274 H 0.48093 0.88778 0.5274 0.0
H1275 H 0.5357 0.86707 0.53612 0.0
H1276 H 0.89053 0.97376 0.48836 0.0
H1277 H 0.94441 0.97257 0.50579 0.0
H1278 H 0.93171 0.8551 0.48445 0.0
H1279 H 0.87363 0.85243 0.4686 0.0
Nd1280 Nd 0.28879 0.82083 0.50715 0.0
Nd1281 Nd 0.25846 0.88433 0.49414 0.0
C1282 C 0.3274 0.77809 0.51801 0.0
C1283 C 0.31793 0.73359 0.51358 0.0
C1284 C 0.33349 0.70976 0.52176 0.0
C1285 C 0.31923 0.66511 0.5182 0.0
C1286 C 0.28858 0.64391 0.50663 0.0
C1287 C 0.27386 0.66842 0.49833 0.0
C1288 C 0.28881 0.71309 0.50171 0.0
C1289 C 0.19899 0.7809 0.50011 0.0
C1290 C 0.26738 0.8148 0.4726 0.0
C1291 C 0.21984 0.9309 0.48571 0.0
C1292 C 0.20877 0.96107 0.49359 0.0
C1293 C 0.21058 0.96003 0.50884 0.0
C1294 C 0.23693 1.00016 0.51629 0.0
C1295 C 0.26113 1.04015 0.50825 0.0
C1296 C 0.2442 1.04173 0.49438 0.0
C1297 C 0.21918 1.00154 0.48672 0.0
C1298 C 0.34894 0.91242 0.49283 0.0
C1299 C 0.27126 0.88326 0.53031 0.0
O1300 O 0.34705 0.80929 0.50799 0.0
O1301 O 0.29281 0.77811 0.52431 0.0
O1302 O 0.22079 0.75893 0.49994 0.0
O1303 O 0.22297 0.81903 0.50567 0.0
O1304 O 0.29508 0.81331 0.48241 0.0
O1305 O 0.2435 0.83462 0.47546 0.0
O1306 O 0.19686 0.88845 0.48929 0.0
O1307 O 0.2635 0.94595 0.4849 0.0
O1308 O 0.32663 0.91369 0.48157 0.0
O1309 O 0.32331 0.8951 0.50355 0.0
O1310 O 0.25999 0.90064 0.51914 0.0
O1311 O 0.28472 0.85363 0.52829 0.0
H1312 H 0.35575 0.72529 0.53099 0.0
H1313 H 0.33166 0.647 0.5246 0.0
H1314 H 0.2498 0.65281 0.48951 0.0
H1315 H 0.2766 0.73129 0.49528 0.0
H1316 H 0.20006 0.92865 0.51452 0.0
H1317 H 0.24482 0.99797 0.52753 0.0
H1318 H 0.25803 0.07308 0.48841 0.0
H1319 H 0.21597 1.00286 0.475 0.0
Nd1320 Nd 0.18495 0.59661 0.33064 0.0
Nd1321 Nd 0.17967 0.60142 0.35604 0.0
C1322 C 0.16429 0.58271 0.30233 0.0
C1323 C 0.15382 0.57565 0.28635 0.0
C1324 C 0.10987 0.54518 0.28149 0.0
C1325 C 0.10003 0.53788 0.26651 0.0
C1326 C 0.13369 0.56125 0.25581 0.0
C1327 C 0.17797 0.59124 0.26074 0.0
C1328 C 0.18788 0.59821 0.27576 0.0
C1329 C 0.26195 0.59098 0.33934 0.0
C1330 C 0.12435 0.48994 0.34587 0.0
C1331 C 0.19809 0.61629 0.38432 0.0
C1332 C 0.20808 0.65055 0.39575 0.0
C1333 C 0.25342 0.68137 0.39929 0.0
C1334 C 0.26389 0.71111 0.41095 0.0
C1335 C 0.22931 0.71064 0.41945 0.0
C1336 C 0.18387 0.68084 0.41566 0.0
C1337 C 0.17334 0.65093 0.40395 0.0
C1338 C 0.1217 0.64007 0.34762 0.0
C1339 C 0.26661 0.69455 0.34175 0.0
O1340 O 0.13342 0.5696 0.31254 0.0
O1341 O 0.2056 0.60398 0.30724 0.0
O1342 O 0.25915 0.61306 0.32836 0.0
O1343 O 0.2228 0.57127 0.34592 0.0
O1344 O 0.13897 0.51347 0.33342 0.0
O1345 O 0.13589 0.51796 0.35732 0.0
O1346 O 0.22858 0.62722 0.37417 0.0
O1347 O 0.15687 0.59298 0.37926 0.0
O1348 O 0.11499 0.61107 0.35784 0.0
O1349 O 0.15743 0.64415 0.34062 0.0
O1350 O 0.24835 0.67278 0.35406 0.0
O1351 O 0.24454 0.67293 0.3298 0.0
H1352 H 1.08296 0.52658 0.28928 0.0
H1353 H 1.06575 0.51352 0.26337 0.0
H1354 H 0.2049 0.61023 0.25301 0.0
H1355 H 0.22228 0.62172 0.27909 0.0
H1356 H 0.28104 0.68186 0.39325 0.0
H1357 H 0.29918 0.73412 0.41345 0.0
H1358 H 0.15644 0.67944 0.42207 0.0
H1359 H 0.13809 0.62741 0.40157 0.0
Nd1360 Nd 0.53814 0.59921 0.33143 0.0
Nd1361 Nd 0.53007 0.58951 0.35728 0.0
C1362 C 0.53151 0.58107 0.30268 0.0
C1363 C 0.55031 0.5872 0.28748 0.0
C1364 C 0.57499 0.56619 0.28314 0.0
C1365 C 0.58591 0.56497 0.26841 0.0
C1366 C 0.57266 0.58478 0.25739 0.0
C1367 C 0.54911 0.60704 0.26182 0.0
C1368 C 0.53796 0.60804 0.2766 0.0
C1369 C 0.55404 0.68618 0.34065 0.0
C1370 C 0.64379 0.64672 0.34578 0.0
C1371 C 0.53177 0.59154 0.38625 0.0
C1372 C 0.49861 0.57117 0.39829 0.0
C1373 C 0.48661 0.59837 0.40645 0.0
C1374 C 0.45604 0.58043 0.41803 0.0
C1375 C 0.43703 0.53486 0.42188 0.0
C1376 C 0.44845 0.50736 0.41355 0.0
C1377 C 0.47891 0.52531 0.40186 0.0
C1378 C 0.48191 0.49366 0.3484 0.0
C1379 C 0.43753 0.58251 0.34361 0.0
O1380 O 0.54423 0.56213 0.31245 0.0
O1381 O 0.52177 0.60997 0.30846 0.0
O1382 O 0.57778 0.67848 0.33108 0.0
O1383 O 0.52504 0.64799 0.34615 0.0
O1384 O 0.62091 0.63429 0.33321 0.0
O1385 O 0.61502 0.63329 0.35719 0.0
O1386 O 0.52786 0.62068 0.37822 0.0
O1387 O 0.54172 0.56558 0.37855 0.0
O1388 O 0.46984 0.51375 0.35794 0.0
O1389 O 0.51942 0.52723 0.34268 0.0
O1390 O 0.45902 0.58721 0.35608 0.0
O1391 O 0.46027 0.58224 0.33178 0.0
H1392 H 0.58446 0.54897 0.29107 0.0
H1393 H 0.60325 0.54671 0.26565 0.0
H1394 H 0.53872 0.62337 0.25386 0.0
H1395 H 0.51838 0.624 0.27944 0.0
H1396 H 0.50107 0.63378 0.40391 0.0
H1397 H 0.44739 0.60242 0.424 0.0
H1398 H 0.43479 0.4722 0.41627 0.0
H1399 H 0.48732 0.50335 0.39576 0.0
Nd1400 Nd 0.53444 0.94625 0.3309 0.0
Nd1401 Nd 0.54114 0.95067 0.35598 0.0
C1402 C 0.55159 0.97065 0.30297 0.0
C1403 C 0.54587 0.98515 0.28816 0.0
C1404 C 0.57556 1.02934 0.28353 0.0
C1405 C 0.57629 1.04191 0.26895 0.0
C1406 C 0.54722 1.01069 0.25846 0.0
C1407 C 0.51662 0.96662 0.26321 0.0
C1408 C 0.51606 0.95399 0.27784 0.0
C1409 C 0.45031 0.86959 0.33843 0.0
C1410 C 0.48611 1.00647 0.3452 0.0
C1411 C 0.53827 0.93604 0.38444 0.0
C1412 C 0.56601 0.9331 0.39624 0.0
C1413 C 0.57977 0.90061 0.39596 0.0
C1414 C 0.60064 0.89431 0.40812 0.0
C1415 C 0.60826 0.92045 0.42075 0.0
C1416 C 0.59665 0.95452 0.42067 0.0
C1417 C 0.57551 0.96059 0.40856 0.0
C1418 C 0.63862 1.00883 0.348 0.0
C1419 C 0.54801 0.86342 0.34239 0.0
O1420 O 0.56808 0.99931 0.31378 0.0
O1421 O 0.52514 0.9294 0.30726 0.0
O1422 O 0.47644 0.87309 0.32763 0.0
O1423 O 0.46885 0.90794 0.34533 0.0
O1424 O 0.4975 0.99316 0.33288 0.0
O1425 O 0.50009 0.99328 0.35685 0.0
O1426 O 0.52307 0.90434 0.37463 0.0
O1427 O 0.55084 0.97559 0.37892 0.0
O1428 O 0.61493 1.01642 0.35757 0.0
O1429 O 0.60793 0.97187 0.34159 0.0
O1430 O 0.53942 0.87961 0.35438 0.0
O1431 O 0.55367 0.888 0.3306 0.0
H1432 H 0.5997 0.05395 0.29107 0.0
H1433 H 0.60111 0.07588 0.26583 0.0
H1434 H 0.49331 0.94162 0.2556 0.0
H1435 H 0.49314 0.91941 0.28094 0.0
H1436 H 0.57303 0.87895 0.38656 0.0
H1437 H 0.60895 0.86765 0.40783 0.0
H1438 H 0.60301 0.97592 0.4301 0.0
H1439 H 0.56534 0.98592 0.409 0.0
C1440 C 0.19122 0.22867 0.19425 0.0
C1441 C 0.23378 0.26694 0.192 0.0
H1442 H 0.15188 0.15707 0.19323 0.0
C1443 C 0.26998 0.26247 0.18673 0.0
H1444 H 0.16271 0.23142 0.19825 0.0
C1445 C 0.26371 0.21983 0.18388 0.0
C1446 C 0.22129 0.18159 0.18637 0.0
H1447 H 0.30297 0.29176 0.18488 0.0
H1448 H 0.29199 0.21666 0.17992 0.0
C1449 C 0.18506 0.18624 0.19149 0.0
C1450 C 0.93193 0.07728 0.20622 0.0
C1451 C 0.94946 0.08732 0.19198 0.0
H1452 H 0.87879 1.02988 0.22 0.0
C1453 C 0.92789 0.05612 0.18072 0.0
H1454 H 0.94834 0.10082 0.21508 0.0
C1455 C 0.88883 1.01587 0.18355 0.0
C1456 C 0.87056 1.00645 0.19765 0.0
H1457 H 0.94012 0.06344 0.16958 0.0
H1458 H 0.87229 0.99271 0.1746 0.0
C1459 C 0.89243 1.03695 0.20903 0.0
C1460 C 0.09318 0.83696 0.19595 0.0
C1461 C 0.12716 0.87105 0.20435 0.0
H1462 H 1.02789 0.81132 0.18641 0.0
C1463 C 0.12026 0.90404 0.21092 0.0
H1464 H 0.09864 0.81169 0.1907 0.0
C1465 C 1.0807 0.9051 0.20798 0.0
C1466 C 1.04783 0.87267 0.19867 0.0
H1467 H 0.14696 0.93116 0.21715 0.0
H1468 H 1.07746 0.93305 0.21207 0.0
C1469 C 1.05326 0.83723 0.19335 0.0
C1470 C 0.16937 0.16997 0.36701 0.0
C1471 C 0.1976 0.17782 0.35459 0.0
H1472 H 0.10891 0.16509 0.37663 0.0
C1473 C 0.18092 0.18691 0.34156 0.0
H1474 H 0.17916 0.16211 0.37735 0.0
C1475 C 0.13871 0.18756 0.3411 0.0
C1476 C 0.11095 0.18015 0.35368 0.0
H1477 H 0.19979 0.19229 0.33154 0.0
H1478 H 0.12776 0.19388 0.33074 0.0
C1479 C 0.12812 0.17163 0.36663 0.0
C1480 C 0.94454 0.96414 0.34199 0.0
C1481 C 0.95349 0.94432 0.35435 0.0
H1482 H 0.93846 1.01967 0.33274 0.0
C1483 C 0.9637 0.97059 0.36725 0.0
H1484 H 0.93693 0.94657 0.33165 0.0
C1485 C 0.96537 1.0133 0.3678 0.0
C1486 C 0.95585 1.03308 0.35561 0.0
H1487 H 0.97157 0.95851 0.37711 0.0
H1488 H 0.97452 1.03126 0.37808 0.0
C1489 C 0.94519 1.00679 0.34262 0.0
C1490 C 0.12177 0.96684 0.36672 0.0
C1491 C 0.10202 0.93675 0.35472 0.0
H1492 H 0.17654 1.02844 0.37569 0.0
C1493 C 0.12819 0.95157 0.34166 0.0
H1494 H 0.10384 0.95866 0.37702 0.0
C1495 C 0.17086 0.99361 0.34081 0.0
C1496 C 0.19066 1.02312 0.35301 0.0
H1497 H 0.1152 0.93126 0.33191 0.0
H1498 H 0.18847 1.00297 0.33045 0.0
C1499 C 0.16444 1.00788 0.36596 0.0
C1500 C 0.89357 0.84697 0.84501 0.0
C1501 C 0.89763 0.83542 0.83064 0.0
H1502 H 0.90095 0.89872 0.85955 0.0
C1503 C 0.90988 0.86708 0.81943 0.0
H1504 H 0.88411 0.82281 0.85381 0.0
C1505 C 0.92003 0.91083 0.82278 0.0
C1506 C 0.91794 0.92275 0.83731 0.0
H1507 H 0.9137 0.85871 0.80832 0.0
H1508 H 0.93107 0.93565 0.81415 0.0
C1509 C 0.90365 0.89034 0.84833 0.0
C1510 C 0.28102 0.08031 0.8461 0.0
C1511 C 0.29707 0.09103 0.83176 0.0
H1512 H 0.22546 1.03895 0.85996 0.0
C1513 C 0.26934 0.06626 0.82007 0.0
H1514 H 0.30204 0.09891 0.8553 0.0
C1515 C 0.22512 1.03193 0.82275 0.0
C1516 C 0.20864 1.02249 0.83712 0.0
H1517 H 0.28126 0.07432 0.80892 0.0
H1518 H 0.20347 1.01376 0.81362 0.0
C1519 C 0.23716 1.04635 0.84877 0.0
C1520 C 1.06595 0.24278 0.84397 0.0
C1521 C 1.04785 0.2329 0.82987 0.0
H1522 H 0.11487 0.24393 0.85859 0.0
C1523 C 1.06669 0.21799 0.81916 0.0
H1524 H 1.05164 0.25436 0.85235 0.0
C1525 C 0.10247 0.21108 0.82284 0.0
C1526 C 0.11927 0.21932 0.83717 0.0
H1527 H 1.05243 0.20963 0.80829 0.0
H1528 H 0.11583 0.19784 0.81469 0.0
C1529 C 0.10161 0.23633 0.84758 0.0
C1530 C 0.99832 0.9284 0.66163 0.0
C1531 C 0.96909 0.91994 0.67382 0.0
H1532 H 1.05972 0.93419 0.6525 0.0
C1533 C 0.98511 0.91083 0.687 0.0
H1534 H 0.98915 0.93637 0.6512 0.0
C1535 C 1.02752 0.9106 0.68781 0.0
C1536 C 1.05624 0.91854 0.67545 0.0
H1537 H 0.96549 0.90502 0.69688 0.0
H1538 H 1.03785 0.90414 0.69827 0.0
C1539 C 1.0398 0.92722 0.66236 0.0
C1540 C 0.20524 0.12916 0.66204 0.0
C1541 C 0.21437 0.15484 0.67504 0.0
H1542 H 0.19553 0.06906 0.65108 0.0
C1543 C 0.22257 0.13457 0.68744 0.0
H1544 H 0.19799 0.14158 0.65215 0.0
C1545 C 0.2222 0.09207 0.68676 0.0
C1546 C 0.21263 0.06635 0.67367 0.0
H1547 H 0.22932 0.15166 0.69785 0.0
H1548 H 0.22827 0.07882 0.69667 0.0
C1549 C 0.20387 0.08657 0.66144 0.0
C1550 C 1.00306 0.09114 0.6628 0.0
C1551 C 0.97694 0.07506 0.67573 0.0
H1552 H 1.06352 0.14123 0.65189 0.0
C1553 C 0.99657 0.10396 0.68808 0.0
H1554 H 0.99101 0.0711 0.65295 0.0
C1555 C 1.03908 0.14616 0.6874 0.0
C1556 C 1.06524 0.16177 0.67437 0.0
H1557 H 0.97897 0.09395 0.69843 0.0
H1558 H 1.05198 0.16593 0.69726 0.0
C1559 C 1.04559 0.13237 0.6622 0.0
C1560 C 0.84324 0.51483 0.52422 0.0
C1561 C 0.87826 0.50846 0.51893 0.0
H1562 H 0.82366 0.56197 0.53123 0.0
C1563 C 0.92129 0.54578 0.51629 0.0
H1564 H 0.80966 0.48646 0.52613 0.0
C1565 C 0.9294 0.58907 0.51922 0.0
C1566 C 0.89447 0.59523 0.52473 0.0
H1567 H 0.94876 0.54137 0.51225 0.0
H1568 H 0.9629 0.61754 0.51731 0.0
C1569 C 0.85124 0.55794 0.52706 0.0
C1570 C 0.55028 0.37325 0.54371 0.0
C1571 C 0.53083 0.34497 0.53164 0.0
H1572 H 0.60501 0.4363 0.55125 0.0
C1573 C 0.55104 0.35799 0.51785 0.0
H1574 H 0.53501 0.36351 0.55442 0.0
C1575 C 0.59049 0.39844 0.5161 0.0
C1576 C 0.61044 0.42681 0.52809 0.0
H1577 H 0.53652 0.33688 0.50833 0.0
H1578 H 0.60482 0.40794 0.50525 0.0
C1579 C 0.59009 0.41438 0.54192 0.0
C1580 C 0.7263 0.18659 0.52255 0.0
C1581 C 0.71796 0.21186 0.53283 0.0
H1582 H 0.77079 0.16288 0.51589 0.0
C1583 C 0.74356 0.22658 0.54567 0.0
H1584 H 0.70712 0.17562 0.51249 0.0
C1585 C 0.77908 0.21797 0.54784 0.0
C1586 C 0.78967 0.196 0.53691 0.0
H1587 H 0.73746 0.24643 0.55361 0.0
H1588 H 0.80052 0.2319 0.55734 0.0
C1589 C 0.76234 0.17912 0.52452 0.0
C1590 C 0.83382 0.50595 0.70219 0.0
C1591 C 0.86294 0.51446 0.68996 0.0
H1592 H 0.77251 0.50022 0.71142 0.0
C1593 C 0.84679 0.5237 0.67683 0.0
H1594 H 0.84307 0.49786 0.71258 0.0
C1595 C 0.80439 0.52399 0.6761 0.0
C1596 C 0.77578 0.51601 0.68849 0.0
H1597 H 0.86628 0.52953 0.66692 0.0
H1598 H 0.79397 0.5305 0.66566 0.0
C1599 C 0.79236 0.50724 0.70154 0.0
C1600 C 0.62777 0.30521 0.70108 0.0
C1601 C 0.6182 0.27935 0.68811 0.0
H1602 H 0.63791 0.36549 0.71202 0.0
C1603 C 0.6096 0.2994 0.67574 0.0
H1604 H 0.63533 0.29291 0.71095 0.0
C1605 C 0.60999 0.3419 0.67643 0.0
C1606 C 0.62004 0.3678 0.68949 0.0
H1607 H 0.60247 0.28213 0.66535 0.0
H1608 H 0.60357 0.35501 0.66654 0.0
C1609 C 0.62922 0.3478 0.70168 0.0
C1610 C 0.83563 0.33016 0.67547 0.0
C1611 C 0.85526 0.35897 0.68783 0.0
H1612 H 0.7802 0.2683 0.66625 0.0
C1613 C 0.8291 0.34285 0.70076 0.0
H1614 H 0.85325 0.34022 0.66512 0.0
C1615 C 0.7865 0.30164 0.70133 0.0
C1616 C 0.76687 0.27234 0.68914 0.0
H1617 H 0.84114 0.36284 0.71061 0.0
H1618 H 0.76852 0.29274 0.71162 0.0
C1619 C 0.79309 0.288 0.67612 0.0
C1620 C 0.5808 0.20215 0.15281 0.0
C1621 C 0.56435 0.17125 0.16434 0.0
H1622 H 0.61059 0.27156 0.1467 0.0
C1623 C 0.55967 0.18542 0.17828 0.0
H1624 H 0.58528 0.19194 0.14203 0.0
C1625 C 0.57472 0.23052 0.181 0.0
C1626 C 0.59444 0.26216 0.16979 0.0
H1627 H 0.54722 0.16203 0.18735 0.0
H1628 H 0.5724 0.24087 0.192 0.0
C1629 C 0.59573 0.24758 0.15553 0.0
C1630 C 0.95272 0.40609 0.17845 0.0
C1631 C 0.9684 0.41544 0.16402 0.0
H1632 H 0.89568 0.37138 0.19248 0.0
C1633 C 0.9389 0.39323 0.15241 0.0
H1634 H 0.97515 0.42294 0.18756 0.0
C1635 C 0.89321 0.36363 0.15527 0.0
C1636 C 0.87723 0.35678 0.1697 0.0
H1637 H 0.95055 0.40046 0.14122 0.0
H1638 H 0.87013 0.34754 0.14625 0.0
C1639 C 0.90737 0.37718 0.18126 0.0
C1640 C 0.7853 0.58509 0.17513 0.0
C1641 C 0.79429 0.5597 0.16509 0.0
H1642 H 0.74267 0.61191 0.18068 0.0
C1643 C 0.77202 0.5482 0.15155 0.0
H1644 H 0.80284 0.59511 0.1855 0.0
C1645 C 0.73816 0.55878 0.14864 0.0
C1646 C 0.7267 0.5807 0.15932 0.0
H1647 H 0.77865 0.52856 0.14367 0.0
H1648 H 0.7185 0.54648 0.13871 0.0
C1649 C 0.75154 0.5953 0.17229 0.0
C1650 C 0.70562 0.26317 0.9954 0.0
C1651 C 0.7222 0.25444 1.00845 0.0
H1652 H 0.65498 0.27263 0.98436 0.0
C1653 C 0.69372 0.24666 0.02086 0.0
H1654 H 0.72539 0.27007 0.9855 0.0
C1655 C 0.6514 0.24709 0.02014 0.0
C1656 C 0.63526 0.25629 1.007 0.0
H1657 H 0.70418 0.2402 0.0313 0.0
H1658 H 0.63197 0.24141 0.03006 0.0
C1659 C 0.66425 0.2646 0.99476 0.0
C1660 C 0.86916 0.42254 0.99511 0.0
C1661 C 0.87828 0.40267 1.00735 0.0
H1662 H 0.86323 0.47737 0.98573 0.0
C1663 C 0.88857 0.42879 0.02036 0.0
H1664 H 0.8603 0.40467 0.98481 0.0
C1665 C 0.88922 0.47142 0.02095 0.0
C1666 C 0.88062 0.4913 1.00854 0.0
H1667 H 0.89495 0.41578 0.03028 0.0
H1668 H 0.89649 0.4889 0.03131 0.0
C1669 C 0.87082 0.46521 0.99562 0.0
C1670 C 0.66889 0.42824 0.99601 0.0
C1671 C 0.64309 0.41187 1.00899 0.0
H1672 H 0.72917 0.4785 0.98506 0.0
C1673 C 0.66307 0.44044 0.02139 0.0
H1674 H 0.65658 0.40845 0.98612 0.0
C1675 C 0.70563 0.4826 0.02071 0.0
C1676 C 0.73148 0.4985 1.00763 0.0
H1677 H 0.64573 0.43019 0.03178 0.0
H1678 H 0.71882 0.50209 0.03061 0.0
C1679 C 0.71148 0.46943 0.99541 0.0
C1680 C 0.58697 0.90351 0.87943 0.0
C1681 C 0.60649 0.93455 0.86801 0.0
H1682 H 0.5524 0.83371 0.88537 0.0
C1683 C 0.61227 0.91996 0.85428 0.0
H1684 H 0.58157 0.91407 0.89003 0.0
C1685 C 0.59495 0.87448 0.85155 0.0
C1686 C 0.57191 0.84291 0.86255 0.0
H1687 H 0.62705 0.94345 0.84531 0.0
H1688 H 0.59798 0.86387 0.84067 0.0
C1689 C 0.56979 0.85769 0.8767 0.0
C1690 C 0.23665 0.70117 0.88018 0.0
C1691 C 0.2038 0.69247 0.86951 0.0
H1692 H 0.30753 0.73786 0.88542 0.0
C1693 C 0.21586 0.71784 0.85665 0.0
H1694 H 0.22798 0.68104 0.89001 0.0
C1695 C 0.26072 0.7495 0.85399 0.0
C1696 C 0.29428 0.75627 0.86414 0.0
H1697 H 0.19099 0.71088 0.84819 0.0
H1698 H 0.26947 0.76659 0.84355 0.0
C1699 C 0.28197 0.73291 0.87745 0.0
C1700 C 0.43395 0.55356 0.88227 0.0
C1701 C 0.4403 0.52746 0.87174 0.0
H1702 H 0.4002 0.59077 0.88733 0.0
C1703 C 0.41249 0.51228 0.8594 0.0
H1704 H 0.45575 0.56612 0.89175 0.0
C1705 C 0.38084 0.52574 0.857 0.0
C1706 C 0.37721 0.55516 0.8668 0.0
H1707 H 0.4177 0.49287 0.85104 0.0
H1708 H 0.36158 0.51588 0.84693 0.0
C1709 C 0.40282 0.56803 0.87968 0.0
C1710 C 0.49933 0.84126 0.03338 0.0
C1711 C 0.52857 0.85029 0.02116 0.0
H1712 H 0.43799 0.83518 0.04265 0.0
C1713 C 0.51279 0.86026 1.0081 0.0
H1714 H 0.50837 0.83264 0.04372 0.0
C1715 C 0.47048 0.86069 1.00742 0.0
C1716 C 0.44173 0.85212 0.01981 0.0
H1717 H 0.53246 0.86654 0.99821 0.0
H1718 H 0.46023 0.86775 0.99704 0.0
C1719 C 0.45799 0.84266 0.03279 0.0
C1720 C 0.29505 0.68419 0.03417 0.0
C1721 C 0.28585 0.70403 0.02193 0.0
H1722 H 0.3013 0.62947 0.04354 0.0
C1723 C 0.27589 0.67796 1.00891 0.0
H1724 H 0.30371 0.70199 0.04448 0.0
C1725 C 0.27558 0.63547 1.0083 0.0
C1726 C 0.28422 0.61558 0.02071 0.0
H1727 H 0.26947 0.69091 0.99899 0.0
H1728 H 0.2685 0.61808 0.99793 0.0
C1729 C 0.29372 0.64161 0.03364 0.0
C1730 C 0.45313 0.63771 0.03388 0.0
C1731 C 0.43329 0.60844 0.0217 0.0
H1732 H 0.50801 0.6988 0.04314 0.0
C1733 C 0.45938 0.62405 1.00866 0.0
H1734 H 0.43524 0.62886 0.0442 0.0
C1735 C 0.50202 0.66612 1.00797 0.0
C1736 C 0.52188 0.69488 0.02033 0.0
H1737 H 0.44633 0.60439 0.99878 0.0
H1738 H 0.51952 0.67615 0.99761 0.0
C1739 C 0.49582 0.67882 0.03329 0.0
C1740 C 0.24362 0.52053 0.51251 0.0
C1741 C 0.23995 0.50501 0.49814 0.0
H1742 H 0.26165 0.57676 0.52643 0.0
C1743 C 0.24964 0.53458 0.48644 0.0
H1744 H 0.23623 0.49806 0.5217 0.0
C1745 C 0.26507 0.57997 0.48915 0.0
C1746 C 0.27064 0.59589 0.50359 0.0
H1747 H 0.24741 0.52313 0.47529 0.0
H1748 H 0.27408 0.60278 0.48 0.0
C1749 C 0.25878 0.5656 0.51522 0.0
C1750 C 0.6077 0.72626 0.48557 0.0
C1751 C 0.6334 0.75353 0.49719 0.0
H1752 H 0.54571 0.66756 0.47936 0.0
C1753 C 0.61688 0.74362 0.51149 0.0
H1754 H 0.61998 0.73407 0.47445 0.0
C1755 C 0.57502 0.7068 0.51423 0.0
C1756 C 0.54937 0.67884 0.50273 0.0
H1757 H 0.63612 0.76454 0.52062 0.0
H1758 H 0.56255 0.70042 0.52535 0.0
C1759 C 0.56549 0.6888 0.48835 0.0
C1760 C 0.45833 0.93247 0.50752 0.0
C1761 C 0.4651 0.90184 0.49925 0.0
H1762 H 0.41522 0.95989 0.51172 0.0
C1763 C 0.43838 0.88211 0.48676 0.0
H1764 H 0.47924 0.94929 0.51693 0.0
C1765 C 0.40303 0.89011 0.48337 0.0
C1766 C 0.39372 0.91703 0.49264 0.0
H1767 H 0.44262 0.85814 0.4802 0.0
H1768 H 0.38065 0.87204 0.47439 0.0
C1769 C 0.4224 0.93936 0.50439 0.0
C1770 C 0.33407 0.59312 0.32887 0.0
C1771 C 0.30447 0.58449 0.34098 0.0
H1772 H 0.39553 0.59853 0.3199 0.0
C1773 C 0.31968 0.57446 0.35415 0.0
H1774 H 0.32548 0.60176 0.31846 0.0
C1775 C 0.36174 0.57364 0.35505 0.0
C1776 C 0.39089 0.58182 0.34279 0.0
H1777 H 0.29974 0.56847 0.36396 0.0
H1778 H 0.37152 0.56662 0.36552 0.0
C1779 C 0.37521 0.5913 0.32969 0.0
C1780 C 0.53226 0.74323 0.35304 0.0
C1781 C 0.55188 0.73135 0.34132 0.0
H1782 H 0.51639 0.79167 0.36289 0.0
C1783 C 0.5697 0.76411 0.32997 0.0
H1784 H 0.51767 0.72019 0.36211 0.0
C1785 C 0.568 0.80535 0.33026 0.0
C1786 C 0.54943 0.81784 0.3421 0.0
H1787 H 0.58488 0.75767 0.32056 0.0
H1788 H 0.58196 0.82797 0.32107 0.0
C1789 C 0.5316 0.78514 0.3535 0.0
C1790 C 0.33861 0.75676 0.32828 0.0
C1791 C 0.31258 0.74088 0.34125 0.0
H1792 H 0.39931 0.8065 0.31734 0.0
C1793 C 0.33264 0.76964 0.3536 0.0
H1794 H 0.32627 0.73674 0.31844 0.0
C1795 C 0.37539 0.81155 0.35289 0.0
C1796 C 0.40144 0.827 0.33983 0.0
H1797 H 0.31521 0.75973 0.36398 0.0
H1798 H 0.38856 0.83122 0.36275 0.0
C1799 C 0.38144 0.79774 0.32766 0.0
C1800 C 0.43981 0.42436 0.1913 0.0
C1801 C 0.43462 0.46135 0.18735 0.0
H1802 H 0.47368 0.3875 0.18655 0.0
C1803 C 0.44532 0.47756 0.17297 0.0
H1804 H 0.42828 0.40775 0.20172 0.0
C1805 C 0.46697 0.46192 0.16375 0.0
C1806 C 0.48252 0.43418 0.16937 0.0
H1807 H 0.44034 0.50446 0.16902 0.0
H1808 H 0.47892 0.47786 0.15326 0.0
C1809 C 0.46361 0.41067 0.18227 0.0
C1810 C 0.65891 1.03778 0.19827 0.0
C1811 C 0.66801 1.04913 0.18352 0.0
H1812 H 0.6284 0.98634 0.21397 0.0
C1813 C 0.65391 1.01517 0.17309 0.0
H1814 H 0.66971 0.06348 0.20663 0.0
C1815 C 0.62615 0.97039 0.17708 0.0
C1816 C 0.61542 0.95831 0.19185 0.0
H1817 H 0.66204 1.02359 0.16168 0.0
H1818 H 0.61338 0.94559 0.16845 0.0
C1819 C 0.63333 0.99304 0.2024 0.0
C1820 C 0.19206 0.67157 0.17563 0.0
C1821 C 0.20126 0.71401 0.17994 0.0
H1822 H 0.14375 0.60932 0.16671 0.0
C1823 C 0.16772 0.72643 0.17907 0.0
H1824 H 0.21734 0.66152 0.17687 0.0
C1825 C 0.12406 0.69491 0.17467 0.0
C1826 C 0.11478 0.65195 0.17043 0.0
H1827 H 0.17469 0.75947 0.18261 0.0
H1828 H 0.09743 0.70349 0.17502 0.0
C1829 C 0.14965 0.64155 0.17018 0.0
C1830 C 0.40451 0.35959 0.36026 0.0
C1831 C 0.40668 0.33068 0.34921 0.0
H1832 H 0.42245 0.42614 0.36879 0.0
C1833 C 0.43627 0.35858 0.33754 0.0
H1834 H 0.38339 0.34351 0.36968 0.0
C1835 C 0.46076 0.4087 0.33712 0.0
C1836 C 0.45817 0.43745 0.34824 0.0
H1837 H 0.44102 0.34142 0.32837 0.0
H1838 H 0.48157 0.42494 0.32766 0.0
C1839 C 0.42812 0.40929 0.35972 0.0
C1840 C 0.72222 0.05685 0.36096 0.0
C1841 C 0.69515 1.03416 0.34826 0.0
H1842 H 0.78768 0.09602 0.37203 0.0
C1843 C 0.72501 1.03952 0.33622 0.0
H1844 H 0.70427 0.05568 0.37085 0.0
C1845 C 0.7753 0.06508 0.33683 0.0
C1846 C 0.8022 0.08751 0.34963 0.0
H1847 H 0.70945 1.02447 0.32589 0.0
H1848 H 0.7934 0.06685 0.32691 0.0
C1849 C 0.77224 0.08116 0.36167 0.0
C1850 C 1.05237 0.70464 0.36129 0.0
C1851 C 1.04518 0.72715 0.34916 0.0
H1852 H 1.07794 0.66267 0.37056 0.0
C1853 C 1.06613 0.72083 0.33624 0.0
H1854 H 1.03875 0.70664 0.37176 0.0
C1855 C 0.09099 0.6954 0.33559 0.0
C1856 C 0.09714 0.67199 0.34774 0.0
H1857 H 1.0637 0.73618 0.32623 0.0
H1858 H 0.10486 0.69351 0.32516 0.0
C1859 C 1.07603 0.67835 0.36056 0.0
C1860 C 0.6966 0.64874 0.87048 0.0
C1861 C 0.68153 0.67308 0.86218 0.0
H1862 H 0.72599 0.60603 0.86957 0.0
C1863 C 0.70118 0.68961 0.84856 0.0
H1864 H 0.6834 0.63767 0.88138 0.0
C1865 C 0.72456 0.67108 0.84169 0.0
C1866 C 0.73022 0.63784 0.84879 0.0
H1867 H 0.69114 0.70971 0.84213 0.0
H1868 H 0.73524 0.6803 0.83048 0.0
C1869 C 0.71984 0.62978 0.86365 0.0
C1870 C 0.54272 0.13133 0.85077 0.0
C1871 C 0.54788 0.13949 0.83562 0.0
H1872 H 0.5124 0.08217 0.86775 0.0
C1873 C 0.52622 0.10221 0.82611 0.0
H1874 H 0.55806 0.15825 0.85867 0.0
C1875 C 0.50294 0.05875 0.83153 0.0
C1876 C 0.49972 1.05125 0.84659 0.0
H1877 H 0.52644 0.10585 0.81441 0.0
H1878 H 0.48901 1.03102 0.82384 0.0
C1879 C 0.51728 0.08773 0.85612 0.0
C1880 C 1.00022 0.43036 0.84997 0.0
C1881 C 0.98996 0.42784 0.83497 0.0
H1882 H 1.05204 0.45023 0.86619 0.0
C1883 C 1.02644 0.44765 0.825 0.0
H1884 H 0.97402 0.41657 0.85819 0.0
C1885 C 1.07095 0.46923 0.82984 0.0
C1886 C 1.08048 0.47137 0.84476 0.0
H1887 H 1.02144 0.44571 0.81333 0.0
H1888 H 0.09784 0.48522 0.82185 0.0
C1889 C 1.04498 0.45035 0.8547 0.0
C1890 C 0.7285 0.691 0.69351 0.0
C1891 C 0.70558 0.66109 0.68137 0.0
H1892 H 0.76858 0.75907 0.70282 0.0
C1893 C 0.71213 0.68804 0.66847 0.0
H1894 H 0.72645 0.67571 0.70401 0.0
C1895 C 0.73812 0.7378 0.66768 0.0
C1896 C 0.76017 0.76783 0.6798 0.0
H1897 H 0.69685 0.67018 0.65845 0.0
H1898 H 0.74026 0.75298 0.65715 0.0
C1899 C 0.75364 0.74105 0.6928 0.0
C1900 C 0.44278 0.05723 0.69379 0.0
C1901 C 0.47266 0.06394 0.68162 0.0
H1902 H 0.37436 1.02906 0.70317 0.0
C1903 C 0.4455 1.04289 0.66878 0.0
H1904 H 0.45833 0.07099 0.70423 0.0
C1905 C 0.39547 1.01876 0.66806 0.0
C1906 C 0.36546 1.01104 0.68021 0.0
H1907 H 0.4634 1.04522 0.65876 0.0
H1908 H 0.38005 1.0052 0.65758 0.0
C1909 C 0.39244 1.03193 0.69315 0.0
C1910 C 1.07659 0.40402 0.69377 0.0
C1911 C 1.07046 0.42723 0.68156 0.0
H1912 H 0.10373 0.36327 0.70327 0.0
C1913 C 0.09145 0.42054 0.66877 0.0
H1914 H 1.0628 0.40618 0.70418 0.0
C1915 C 0.11499 0.39411 0.66814 0.0
C1916 C 0.12214 0.37176 0.68033 0.0
H1917 H 0.08952 0.43601 0.65872 0.0
H1918 H 0.12853 0.39184 0.65768 0.0
C1919 C 0.10131 0.37844 0.69322 0.0
C1920 C 0.11195 0.80279 0.50455 0.0
C1921 C 0.10051 0.78487 0.51872 0.0
H1922 H 0.14706 0.80567 0.48489 0.0
C1923 C 0.10519 0.74724 0.52215 0.0
H1924 H 0.10743 0.83036 0.50101 0.0
C1925 C 0.12982 0.7349 0.51299 0.0
C1926 C 0.15014 0.76062 0.50057 0.0
H1927 H 0.09299 0.7294 0.53236 0.0
H1928 H 0.13979 0.71138 0.517 0.0
C1929 C 0.1342 0.78825 0.49514 0.0
C1930 C 0.25103 0.26647 0.51136 0.0
C1931 C 0.27975 0.2494 0.50879 0.0
H1932 H 0.24678 0.32424 0.51443 0.0
C1933 C 0.32337 0.27788 0.50288 0.0
H1934 H 0.21772 0.24541 0.51602 0.0
C1935 C 0.33882 0.32379 0.50094 0.0
C1936 C 0.31118 0.34112 0.50528 0.0
H1937 H 0.34692 0.26579 0.50103 0.0
H1938 H 0.37291 0.34589 0.49701 0.0
C1939 C 0.2677 0.31207 0.51043 0.0
C1940 C 0.82776 0.977 0.50775 0.0
C1941 C 0.79462 0.98949 0.50631 0.0
H1942 H 0.89595 0.99796 0.51382 0.0
C1943 C 0.80697 1.03491 0.50664 0.0
H1944 H 0.81984 0.94281 0.50674 0.0
C1945 C 0.85214 0.06733 0.50898 0.0
C1946 C 0.88449 0.05402 0.51173 0.0
H1947 H 0.78166 1.04509 0.50551 0.0
H1948 H 0.86107 0.10235 0.50979 0.0
C1949 C 0.8719 1.00876 0.51118 0.0
C1950 C 0.12075 0.74621 0.69517 0.0
C1951 C 0.12661 0.77323 0.68234 0.0
H1952 H 0.0931 0.6812 0.70641 0.0
C1953 C 0.10307 0.74339 0.67024 0.0
H1954 H 0.13658 0.76401 0.70514 0.0
C1955 C 1.07798 0.69335 0.67091 0.0
C1956 C 1.07208 0.66651 0.68384 0.0
H1957 H 0.10461 0.75876 0.65979 0.0
H1958 H 1.06254 0.6754 0.66092 0.0
C1959 C 0.09473 0.69645 0.69593 0.0
C1960 C 0.38882 0.37692 0.66955 0.0
C1961 C 0.3589 0.3699 0.68174 0.0
H1962 H 0.45727 0.40533 0.66016 0.0
C1963 C 0.38604 0.39065 0.69461 0.0
H1964 H 0.37329 0.36342 0.65908 0.0
C1965 C 0.43607 0.41476 0.69533 0.0
C1966 C 0.46611 0.42279 0.68316 0.0
H1967 H 0.36812 0.38808 0.70464 0.0
H1968 H 0.45147 0.42805 0.70583 0.0
C1969 C 0.43917 0.40222 0.67019 0.0
C1970 C 0.73992 1.01277 0.69447 0.0
C1971 C 0.76113 1.00653 0.68165 0.0
H1972 H 0.70279 1.04122 0.70566 0.0
C1973 C 0.75544 1.03032 0.66954 0.0
H1974 H 0.74153 0.9968 0.70444 0.0
C1975 C 0.73086 0.05599 0.67019 0.0
C1976 C 0.70982 0.06221 0.6831 0.0
H1977 H 0.76945 1.02854 0.65912 0.0
H1978 H 0.72872 0.07162 0.66021 0.0
C1979 C 0.71656 1.03933 0.69521 0.0
C1980 C 0.37675 0.9716 0.1866 0.0
C1981 C 0.34934 0.97386 0.17575 0.0
H1982 H 0.41785 0.94519 0.19339 0.0
C1983 C 0.34604 0.95346 0.16225 0.0
H1984 H 0.37935 0.98696 0.19717 0.0
C1985 C 0.36751 0.92856 0.15995 0.0
C1986 C 0.39402 0.92419 0.17099 0.0
H1987 H 0.32476 0.95454 0.15366 0.0
H1988 H 0.36305 0.91341 0.14932 0.0
C1989 C 0.39831 0.94662 0.18438 0.0
C1990 C 0.20581 0.53013 0.17871 0.0
C1991 C 0.25255 0.55045 0.17544 0.0
H1992 H 0.1457 0.46855 0.18432 0.0
C1993 C 0.27677 0.53004 0.18018 0.0
H1994 H 0.18615 0.54532 0.17518 0.0
C1995 C 0.25348 0.48692 0.18592 0.0
C1996 C 0.20606 0.46335 0.18648 0.0
H1997 H 0.31251 0.54476 0.1777 0.0
H1998 H 0.27266 0.47104 0.18842 0.0
C1999 C 0.18239 0.48601 0.18376 0.0
C2000 C 0.62837 0.75689 0.19002 0.0
C2001 C 0.61108 0.71077 0.18892 0.0
H2002 H 0.68743 0.82005 0.19086 0.0
C2003 C 0.64038 0.69302 0.19093 0.0
H2004 H 0.60675 0.77127 0.18824 0.0
C2005 C 0.687 0.72187 0.19262 0.0
C2006 C 0.70419 0.76828 0.19241 0.0
H2007 H 0.62807 0.65734 0.1898 0.0
H2008 H 0.70955 0.70816 0.19335 0.0
C2009 C 0.67454 0.78498 0.19138 0.0
C2010 C 0.37761 1.02493 1.00092 0.0
C2011 C 0.37189 0.99731 1.01358 0.0
H2012 H 0.4051 0.09043 0.99001 0.0
C2013 C 0.39559 1.02668 0.02577 0.0
H2014 H 0.36168 1.00758 0.99089 0.0
C2015 C 0.42068 0.07678 0.02533 0.0
C2016 C 0.42644 0.10423 1.01257 0.0
H2017 H 0.39421 1.01087 0.03611 0.0
H2018 H 0.43625 0.09429 0.03537 0.0
C2019 C 0.40361 0.07474 1.00038 0.0
C2020 C 0.10917 0.39401 0.02676 0.0
C2021 C 0.1389 0.40023 0.01458 0.0
H2022 H 1.04087 0.3663 0.03622 0.0
C2023 C 0.11152 0.37869 1.00182 0.0
H2024 H 0.12488 0.40818 0.03715 0.0
C2025 C 1.06147 0.35458 1.00118 0.0
C2026 C 1.03161 0.34735 1.01334 0.0
H2027 H 0.12926 0.3806 0.9918 0.0
H2028 H 1.0459 0.34064 0.99075 0.0
C2029 C 1.0588 0.36872 0.0262 0.0
C2030 C 0.78141 0.73019 1.00114 0.0
C2031 C 0.78868 0.70816 1.01339 0.0
H2032 H 0.75578 0.77178 0.9916 0.0
C2033 C 0.7679 0.71507 0.02625 0.0
H2034 H 0.79489 0.72772 0.9907 0.0
C2035 C 0.74313 0.7406 0.02672 0.0
C2036 C 0.73688 0.7635 1.01445 0.0
H2037 H 0.77041 0.70012 0.03634 0.0
H2038 H 0.72937 0.74294 0.03713 0.0
C2039 C 0.75781 0.75656 1.00169 0.0
C2040 C 0.81932 0.18862 0.84005 0.0
C2041 C 0.81295 0.14785 0.84549 0.0
H2042 H 0.80254 0.24113 0.8417 0.0
C2043 C 0.78061 0.12552 0.85634 0.0
H2044 H 0.8449 0.20649 0.83227 0.0
C2045 C 0.75735 0.14559 0.86222 0.0
C2046 C 0.76672 0.1884 0.85737 0.0
H2047 H 0.77472 0.09363 0.86066 0.0
H2048 H 0.73235 0.12793 0.87064 0.0
C2049 C 0.79642 0.20903 0.84587 0.0
C2050 C 1.01274 0.68187 0.85499 0.0
C2051 C 0.98802 0.69064 0.84467 0.0
H2052 H 1.01388 0.63203 0.86869 0.0
C2053 C 0.94696 0.65557 0.83965 0.0
H2054 H 1.04492 0.70855 0.85901 0.0
C2055 C 0.92848 0.61251 0.84523 0.0
C2056 C 0.9515 0.60441 0.85615 0.0
H2057 H 0.92772 0.66278 0.83237 0.0
H2058 H 0.89599 0.58598 0.84137 0.0
C2059 C 0.99463 0.63866 0.86066 0.0
C2060 C 0.4743 0.37391 0.83752 0.0
C2061 C 0.45927 0.32804 0.83895 0.0
H2062 H 0.53134 0.44045 0.83903 0.0
C2063 C 0.49073 0.31385 0.84082 0.0
H2064 H 0.45035 0.38569 0.8361 0.0
C2065 C 0.53655 0.34399 0.84174 0.0
C2066 C 0.55175 0.38983 0.84164 0.0
H2067 H 0.47986 0.27936 0.84205 0.0
H2068 H 0.55967 0.33171 0.84408 0.0
C2069 C 0.52062 0.40492 0.83886 0.0
C2070 C 0.75999 1.03246 0.02789 0.0
C2071 C 0.73815 1.00283 0.01566 0.0
H2072 H 0.80122 0.09973 0.03735 0.0
C2073 C 0.74485 1.03002 1.00276 0.0
H2074 H 0.75768 1.01693 0.03836 0.0
C2075 C 0.76998 0.0801 1.00223 0.0
C2076 C 0.79273 0.10961 0.01448 0.0
H2077 H 0.73003 1.01232 0.99268 0.0
H2078 H 0.77218 0.09576 0.99179 0.0
C2079 C 0.78603 0.08222 0.02727 0.0
C2080 C 1.05492 0.7128 1.00231 0.0
C2081 C 1.02527 0.7064 0.01452 0.0
H2082 H 0.12317 0.74078 0.9928 0.0
C2083 C 1.05262 0.72779 0.02729 0.0
H2084 H 1.03918 0.69878 0.9919 0.0
C2085 C 0.10266 0.75191 0.02792 0.0
C2086 C 0.13242 0.75935 0.01572 0.0
H2087 H 1.03489 0.72571 0.03732 0.0
H2088 H 0.11827 0.76573 0.03835 0.0
C2089 C 0.10525 0.73815 1.00285 0.0
C2090 C 0.38264 0.3755 0.02813 0.0
C2091 C 0.37628 0.39857 0.016 0.0
H2092 H 0.40739 0.33289 0.03746 0.0
C2093 C 0.39787 0.39269 1.00318 0.0
H2094 H 0.36844 0.37714 0.03853 0.0
C2095 C 0.4226 0.36715 1.00262 0.0
C2096 C 0.42792 0.34318 0.01475 0.0
H2097 H 0.39607 0.40848 0.99318 0.0
H2098 H 0.43704 0.36562 0.99226 0.0
C2099 C 0.40613 0.34905 0.02748 0.0
C2100 C 1.07302 0.36041 0.51075 0.0
C2101 C 1.07661 0.32536 0.51742 0.0
H2102 H 1.04141 0.40062 0.5117 0.0
C2103 C 1.06725 0.31758 0.53236 0.0
H2104 H 1.08384 0.3702 0.49958 0.0
C2105 C 1.04388 0.33616 0.53934 0.0
C2106 C 1.02843 0.36019 0.53103 0.0
H2107 H 1.07289 0.29331 0.53816 0.0
H2108 H 1.02961 0.32352 0.55003 0.0
C2109 C 1.05044 0.37935 0.51791 0.0
C2110 C 0.9475 0.86312 0.51511 0.0
C2111 C 0.92399 0.8849 0.51101 0.0
H2112 H 0.94183 0.80282 0.52271 0.0
C2113 C 0.87838 0.86695 0.51544 0.0
H2114 H 0.98237 0.87608 0.51175 0.0
C2115 C 0.85438 0.82322 0.52082 0.0
C2116 C 0.87664 0.79873 0.52264 0.0
H2117 H 0.8593 0.88324 0.51242 0.0
H2118 H 0.81794 0.80724 0.52215 0.0
C2119 C 0.92375 0.82031 0.52103 0.0
C2120 C 0.34111 0.08795 0.49936 0.0
C2121 C 0.31055 0.06875 0.51114 0.0
H2122 H 0.40989 0.12634 0.49244 0.0
C2123 C 0.32848 0.07119 0.52517 0.0
H2124 H 0.32971 0.08577 0.48824 0.0
C2125 C 0.37517 0.09242 0.52732 0.0
C2126 C 0.40483 0.11351 0.51568 0.0
H2127 H 0.30682 0.05767 0.53462 0.0
H2128 H 0.38813 0.09503 0.53829 0.0
C2129 C 0.38758 0.11009 0.50163 0.0
C2130 C 0.09018 0.40652 0.35969 0.0
C2131 C 0.09582 0.43356 0.34683 0.0
H2132 H 1.06377 0.34091 0.37068 0.0
C2133 C 1.07292 0.40374 0.33473 0.0
H2134 H 0.10586 0.42433 0.36968 0.0
C2135 C 1.04691 0.35398 0.33542 0.0
C2136 C 1.04128 0.32674 0.34817 0.0
H2137 H 1.07436 0.41913 0.3243 0.0
H2138 H 1.03089 0.33634 0.32544 0.0
C2139 C 1.06508 0.35643 0.36028 0.0
C2140 C 0.77791 0.72371 0.36017 0.0
C2141 C 0.80778 0.72839 0.34818 0.0
H2142 H 0.70949 0.69721 0.36944 0.0
C2143 C 0.78049 0.70514 0.33558 0.0
H2144 H 0.79353 0.7393 0.37044 0.0
C2145 C 0.73046 0.68081 0.33489 0.0
C2146 C 0.70044 0.67514 0.34686 0.0
H2147 H 0.7983 0.70581 0.32571 0.0
H2148 H 0.71501 0.6655 0.32458 0.0
C2149 C 0.72751 0.6983 0.35958 0.0
C2150 C 0.42782 0.08393 0.33414 0.0
C2151 C 0.40656 0.09066 0.34686 0.0
H2152 H 0.46534 0.05542 0.32323 0.0
C2153 C 0.41248 0.06755 0.35913 0.0
H2154 H 0.42603 0.09931 0.32406 0.0
C2155 C 0.4372 1.04197 0.35869 0.0
C2156 C 0.45837 1.03532 0.34588 0.0
H2157 H 0.39842 0.06968 0.3695 0.0
H2158 H 0.43941 1.02682 0.36878 0.0
C2159 C 0.45151 0.05765 0.33363 0.0
C2160 C 0.26577 0.3763 0.12618 0.0
C2161 C 0.2817 0.42111 0.12177 0.0
H2162 H 0.24458 0.32901 0.14377 0.0
C2163 C 0.29284 0.45379 0.13283 0.0
H2164 H 0.25795 0.35013 0.11819 0.0
C2165 C 0.28636 0.44168 0.14769 0.0
C2166 C 0.2681 0.39651 0.15193 0.0
H2167 H 0.30474 0.48858 0.13004 0.0
H2168 H 0.29316 0.46731 0.1558 0.0
C2169 C 0.25872 0.36419 0.14096 0.0
C2170 C 0.75828 0.8889 0.12517 0.0
C2171 C 0.71483 0.88034 0.1213 0.0
H2172 H 0.80551 0.89966 0.14187 0.0
C2173 C 0.68476 0.87598 0.1327 0.0
H2174 H 0.78218 0.89114 0.11694 0.0
C2175 C 0.69811 0.88016 0.14749 0.0
C2176 C 0.74188 0.88898 0.1512 0.0
H2177 H 0.65098 0.86954 0.1302 0.0
H2178 H 0.6742 0.8762 0.15597 0.0
C2179 C 0.7716 0.89347 0.13972 0.0
C2180 C 0.20104 0.86955 0.13883 0.0
C2181 C 0.2289 0.86651 0.14961 0.0
H2182 H 0.18384 0.86487 0.11621 0.0
C2183 C 0.2597 0.85269 0.14526 0.0
H2184 H 0.17653 0.87972 0.14165 0.0
C2185 C 0.26449 0.84486 0.13046 0.0
C2186 C 0.23827 0.85026 0.11959 0.0
H2187 H 0.28164 0.84995 0.1532 0.0
H2188 H 0.29027 0.83656 0.12752 0.0
C2189 C 0.20556 0.86145 0.1241 0.0
C2190 C 0.44962 0.2505 0.47158 0.0
C2191 C 0.41912 0.22613 0.48289 0.0
H2192 H 0.46075 0.26268 0.44873 0.0
C2193 C 0.37361 0.19692 0.47922 0.0
H2194 H 0.48514 0.27322 0.47385 0.0
C2195 C 0.35909 0.19171 0.46464 0.0
C2196 C 0.38999 0.21487 0.45324 0.0
H2197 H 0.34954 0.17685 0.48754 0.0
H2198 H 0.32366 0.16894 0.46233 0.0
C2199 C 0.43542 0.24474 0.45703 0.0
C2200 C 0.95322 0.19749 0.46553 0.0
C2201 C 0.92715 0.20199 0.45438 0.0
H2202 H 0.9694 0.20359 0.48839 0.0
C2203 C 0.89463 0.21392 0.4585 0.0
H2204 H 0.9791 0.18906 0.46289 0.0
C2205 C 0.88925 0.22228 0.47313 0.0
C2206 C 0.91581 0.21854 0.48421 0.0
H2207 H 0.87309 0.21686 0.45042 0.0
H2208 H 0.86428 0.23206 0.47573 0.0
C2209 C 0.94759 0.20563 0.48023 0.0
C2210 C 0.92894 0.70624 0.4601 0.0
C2211 C 0.94656 0.75122 0.4556 0.0
H2212 H 0.90602 0.65914 0.47778 0.0
C2213 C 0.95866 0.78426 0.4666 0.0
H2214 H 0.92032 0.67972 0.45218 0.0
C2215 C 0.95168 0.77239 0.48149 0.0
C2216 C 0.9319 0.72714 0.48581 0.0
H2217 H 0.97184 0.81923 0.46374 0.0
H2218 H 0.95943 0.79837 0.48956 0.0
C2219 C 0.92135 0.6944 0.4749 0.0
C2220 C 0.88297 0.66421 0.88106 0.0
C2221 C 0.89042 0.70689 0.87695 0.0
H2222 H 0.87433 0.61928 0.89868 0.0
C2223 C 0.89104 0.73581 0.88803 0.0
H2224 H 0.88294 0.64133 0.87288 0.0
C2225 C 0.88616 0.72335 0.90276 0.0
C2226 C 0.88076 0.68155 0.90704 0.0
H2227 H 0.89648 0.76894 0.88538 0.0
H2228 H 0.88708 0.74695 0.91081 0.0
C2229 C 0.87822 0.65171 0.89591 0.0
C2230 C 0.40112 0.17074 0.8881 0.0
C2231 C 0.43103 0.19995 0.8774 0.0
H2232 H 0.38837 0.15345 0.91067 0.0
C2233 C 0.47402 0.23412 0.88191 0.0
H2234 H 0.36755 0.1442 0.88506 0.0
C2235 C 0.48572 0.24027 0.89684 0.0
C2236 C 0.45477 0.21226 0.90764 0.0
H2237 H 0.49738 0.25792 0.87402 0.0
H2238 H 0.51817 0.26847 0.89995 0.0
C2239 C 0.41286 0.17654 0.9029 0.0
C2240 C 0.95657 0.24402 0.88746 0.0
C2241 C 0.9271 0.24326 0.87651 0.0
H2242 H 0.97289 0.24921 0.91016 0.0
C2243 C 0.89094 0.24953 0.88082 0.0
H2244 H 0.98495 0.23942 0.88467 0.0
C2245 C 0.88351 0.25451 0.89572 0.0
C2246 C 0.91205 0.25335 0.90671 0.0
H2247 H 0.86711 0.24838 0.87278 0.0
H2248 H 0.85428 0.25747 0.89863 0.0
C2249 C 0.9493 0.24909 0.90223 0.0
C2250 C 0.80957 0.88914 0.54793 0.0
C2251 C 0.76354 0.86401 0.54407 0.0
H2252 H 0.85862 0.91516 0.56524 0.0
C2253 C 0.73167 0.84344 0.55543 0.0
H2254 H 0.83508 0.90582 0.53957 0.0
C2255 C 0.74484 0.8494 0.57011 0.0
C2256 C 0.79061 0.87589 0.57414 0.0
H2257 H 0.69578 0.82377 0.55307 0.0
H2258 H 0.7185 0.83464 0.5783 0.0
C2259 C 0.82291 0.89498 0.56274 0.0
C2260 C 0.25331 0.92602 0.54949 0.0
C2261 C 0.26758 0.89519 0.54585 0.0
H2262 H 0.23735 0.95917 0.56643 0.0
C2263 C 0.27687 0.87379 0.55739 0.0
H2264 H 0.24559 0.94285 0.54099 0.0
C2265 C 0.27133 0.88227 0.572 0.0
C2266 C 0.25667 0.91287 0.57571 0.0
H2267 H 0.28766 0.84948 0.5552 0.0
H2268 H 0.27736 0.86364 0.58036 0.0
C2269 C 0.24815 0.93493 0.56417 0.0
C2270 C 0.20621 0.32955 0.54788 0.0
C2271 C 0.21748 0.37362 0.54402 0.0
H2272 H 0.19555 0.2831 0.5652 0.0
C2273 C 0.22253 0.4037 0.55533 0.0
H2274 H 0.20334 0.30588 0.53952 0.0
C2275 C 0.21817 0.39086 0.57002 0.0
C2276 C 0.20917 0.34753 0.57404 0.0
H2277 H 0.23161 0.43808 0.55283 0.0
H2278 H 0.22266 0.41546 0.57824 0.0
C2279 C 0.20214 0.31668 0.56268 0.0
C2280 C 0.10093 0.58975 0.79159 0.0
C2281 C 1.05484 0.56146 0.78821 0.0
H2282 H 0.15201 0.61861 0.80801 0.0
C2283 C 1.02421 0.54209 0.79998 0.0
H2284 H 0.126 0.60475 0.78302 0.0
C2285 C 1.03941 0.54975 0.81455 0.0
C2286 C 0.08568 0.5771 0.81781 0.0
H2287 H 0.98834 0.52059 0.79798 0.0
H2288 H 1.01501 0.53331 0.82322 0.0
C2289 C 0.116 0.59753 0.80608 0.0
C2290 C 0.5467 0.53625 0.7923 0.0
C2291 C 0.58287 0.52951 0.78829 0.0
H2292 H 0.5115 0.54864 0.80948 0.0
C2293 C 0.61065 0.52848 0.79953 0.0
H2294 H 0.52392 0.53653 0.78413 0.0
C2295 C 0.603 0.53491 0.8142 0.0
C2296 C 0.56734 0.54232 0.81811 0.0
H2297 H 0.63939 0.52429 0.79698 0.0
H2298 H 0.62631 0.53623 0.82242 0.0
C2299 C 0.53924 0.54278 0.80694 0.0
C2300 C 0.60631 1.03811 0.79236 0.0
C2301 C 0.6153 0.08161 0.78861 0.0
H2302 H 0.59246 0.98986 0.80914 0.0
C2303 C 0.62123 0.11158 0.80011 0.0
H2304 H 0.60317 1.01435 0.78401 0.0
C2305 C 0.61604 0.09766 0.8148 0.0
C2306 C 0.60427 0.05324 0.81838 0.0
H2307 H 0.62855 0.14547 0.79779 0.0
H2308 H 0.61965 0.12123 0.82328 0.0
C2309 C 0.6007 1.02415 0.80693 0.0
C2310 C 0.56904 0.08262 0.22438 0.0
C2311 C 0.56475 0.05309 0.21297 0.0
H2312 H 0.56561 0.09246 0.24726 0.0
C2313 C 0.55053 1.00809 0.21655 0.0
H2314 H 0.57925 0.11743 0.22216 0.0
C2315 C 0.54376 0.99387 0.23121 0.0
C2316 C 0.5502 1.02412 0.24268 0.0
H2317 H 0.54632 0.98423 0.20808 0.0
H2318 H 0.53512 0.95956 0.23354 0.0
C2319 C 0.56165 0.06835 0.23892 0.0
C2320 C 0.15221 0.55825 0.22868 0.0
C2321 C 0.12173 0.55549 0.23974 0.0
H2322 H 0.16364 0.55448 0.20559 0.0
C2323 C 1.07885 0.54746 0.2353 0.0
H2324 H 0.18559 0.56424 0.23155 0.0
C2325 C 1.06632 0.54131 0.22061 0.0
C2326 C 0.09616 0.54337 0.2095 0.0
H2327 H 1.05466 0.54652 0.24318 0.0
H2328 H 1.03276 0.53541 0.218 0.0
C2329 C 0.13964 0.55245 0.21374 0.0
C2330 C 0.55877 0.56981 0.21564 0.0
C2331 C 0.59691 0.56666 0.21154 0.0
H2332 H 0.52071 0.57726 0.23303 0.0
C2333 C 0.62776 0.57116 0.22253 0.0
H2334 H 0.53331 0.56452 0.20762 0.0
C2335 C 0.62065 0.57836 0.23717 0.0
C2336 C 0.58199 0.58064 0.24144 0.0
H2337 H 0.65742 0.56863 0.21984 0.0
H2338 H 0.64561 0.58188 0.24515 0.0
C2339 C 0.55144 0.57678 0.23034 0.0
C2340 C 1.05996 0.25128 0.2478 0.0
C2341 C 1.08179 0.26804 0.26124 0.0
H2342 H 1.06516 0.25495 0.22458 0.0
C2343 C 0.12713 0.30287 0.26136 0.0
H2344 H 1.02528 0.22384 0.24735 0.0
C2345 C 0.15022 0.32045 0.24828 0.0
C2346 C 0.12836 0.3035 0.23484 0.0
H2347 H 0.14472 0.31665 0.27156 0.0
H2348 H 0.18522 0.3472 0.24874 0.0
C2349 C 1.08295 0.26886 0.23474 0.0
C2350 C 0.83741 0.85325 0.26232 0.0
C2351 C 0.88282 0.86359 0.26297 0.0
H2352 H 0.78462 0.85144 0.24918 0.0
C2353 C 0.91039 0.88141 0.25057 0.0
H2354 H 0.81551 0.83987 0.27175 0.0
C2355 C 0.89298 0.8884 0.23775 0.0
C2356 C 0.84746 0.87741 0.23695 0.0
H2357 H 0.94536 0.88913 0.25065 0.0
H2358 H 0.91522 0.90191 0.22843 0.0
C2359 C 0.81991 0.86024 0.24942 0.0
C2360 C 0.25996 0.06277 0.24679 0.0
C2361 C 0.28832 0.06057 0.25753 0.0
H2362 H 0.22978 1.0412 0.22567 0.0
C2363 C 0.30816 1.03384 0.25496 0.0
H2364 H 0.24357 0.08255 0.24856 0.0
C2365 C 0.3001 1.01008 0.24192 0.0
C2366 C 0.272 1.01247 0.23112 0.0
H2367 H 0.33047 1.03176 0.26294 0.0
H2368 H 0.31611 0.98986 0.24034 0.0
C2369 C 0.25187 1.03896 0.2337 0.0
C2370 C 1.0545 0.86053 0.79306 0.0
C2371 C 1.01885 0.8158 0.79344 0.0
H2372 H 0.10809 0.91229 0.78059 0.0
C2373 C 1.00954 0.78879 0.78091 0.0
H2374 H 1.06281 0.88219 0.80252 0.0
C2375 C 1.03542 0.80622 0.76826 0.0
C2376 C 1.07103 0.85099 0.7679 0.0
H2377 H 0.98225 0.75416 0.78084 0.0
H2378 H 1.02718 0.78486 0.75872 0.0
C2379 C 1.08036 0.87787 0.78045 0.0
C2380 C 0.2526 0.2213 0.78163 0.0
C2381 C 0.27946 0.23854 0.76902 0.0
H2382 H 0.24892 0.20067 0.80386 0.0
C2383 C 0.32453 0.24781 0.76938 0.0
H2384 H 0.21786 0.21431 0.78177 0.0
C2385 C 0.34235 0.2401 0.78205 0.0
C2386 C 0.31559 0.22311 0.7947 0.0
H2387 H 0.34593 0.26057 0.75981 0.0
H2388 H 0.37732 0.24783 0.78192 0.0
C2389 C 0.27045 0.21366 0.79433 0.0
C2390 C 0.89618 0.12356 0.78083 0.0
C2391 C 0.90528 0.10861 0.79401 0.0
H2392 H 0.87905 0.10989 0.75823 0.0
C2393 C 0.9048 0.06743 0.79423 0.0
H2394 H 0.89644 0.15526 0.78027 0.0
C2395 C 0.89472 1.04142 0.78157 0.0
C2396 C 0.88523 0.05619 0.76843 0.0
H2397 H 0.91161 0.05495 0.80418 0.0
H2398 H 0.89478 1.00987 0.78205 0.0
C2399 C 0.88641 0.0977 0.76817 0.0
C2400 C 0.79441 0.63162 0.59607 0.0
C2401 C 0.75094 0.59351 0.59561 0.0
H2402 H 0.8513 0.68025 0.58375 0.0
C2403 C 0.73074 0.57586 0.58205 0.0
H2404 H 0.81076 0.6457 0.60641 0.0
C2405 C 0.75371 0.59533 0.56917 0.0
C2406 C 0.79745 0.63302 0.56954 0.0
H2407 H 0.69696 0.54689 0.58139 0.0
H2408 H 0.73712 0.5805 0.55892 0.0
C2409 C 0.81762 0.65115 0.58311 0.0
C2410 C 0.58196 0.20452 0.5815 0.0
C2411 C 0.55418 0.19043 0.59397 0.0
H2412 H 0.58874 0.22406 0.55907 0.0
C2413 C 0.51137 0.18693 0.59336 0.0
H2414 H 0.61549 0.20826 0.58173 0.0
C2415 C 0.49624 0.19636 0.58043 0.0
C2416 C 0.52366 0.20958 0.56786 0.0
H2417 H 0.48913 0.17595 0.60277 0.0
H2418 H 0.46273 0.19268 0.58027 0.0
C2419 C 0.56688 0.21405 0.56856 0.0
C2420 C 0.95568 0.35089 0.59347 0.0
C2421 C 0.93092 0.37256 0.59659 0.0
H2422 H 0.96798 0.31061 0.57846 0.0
C2423 C 0.89608 0.36679 0.58704 0.0
H2424 H 0.98289 0.35489 0.60055 0.0
C2425 C 0.88768 0.34166 0.57424 0.0
C2426 C 0.91384 0.32166 0.57081 0.0
H2427 H 0.87579 0.38237 0.58933 0.0
H2428 H 0.86147 0.33884 0.5669 0.0
C2429 C 0.9472 0.32567 0.58073 0.0
C2430 C 0.70545 0.15044 0.10374 0.0
C2431 C 0.74392 0.19347 0.10306 0.0
H2432 H 0.65108 0.10174 0.11676 0.0
C2433 C 0.75599 0.22148 0.11546 0.0
H2434 H 0.69539 0.12792 0.09445 0.0
C2435 C 0.73051 0.20649 0.12831 0.0
C2436 C 0.69262 0.16307 0.12905 0.0
H2437 H 0.78512 0.2551 0.11521 0.0
H2438 H 0.74106 0.22854 0.13773 0.0
C2439 C 0.68019 0.13539 0.11659 0.0
C2440 C 0.93737 0.52723 0.12291 0.0
C2441 C 0.98375 0.54163 0.12405 0.0
H2442 H 0.88451 0.52621 0.1101 0.0
C2443 C 1.01251 0.56508 0.11228 0.0
H2444 H 0.91426 0.50912 0.13174 0.0
C2445 C 0.99537 0.57481 0.09981 0.0
C2446 C 0.94908 0.56103 0.0988 0.0
H2447 H 1.0485 0.57686 0.11281 0.0
H2448 H 1.01834 0.59311 0.09096 0.0
C2449 C 0.92027 0.53683 0.11045 0.0
C2450 C 0.60204 0.41978 0.12488 0.0
C2451 C 0.59112 0.45413 0.12607 0.0
H2452 H 0.5983 0.36606 0.11189 0.0
C2453 C 0.56909 0.46165 0.11434 0.0
H2454 H 0.61888 0.41303 0.13372 0.0
C2455 C 0.55725 0.43472 0.10185 0.0
C2456 C 0.56678 0.39939 0.10087 0.0
H2457 H 0.56027 0.48794 0.11489 0.0
H2458 H 0.53943 0.44072 0.09314 0.0
C2459 C 0.58984 0.3926 0.11244 0.0
C2460 C 0.44157 0.89617 0.90228 0.0
C2461 C 0.47765 0.94059 0.90171 0.0
H2462 H 0.38681 0.84606 0.91485 0.0
C2463 C 0.48744 0.96836 0.91407 0.0
H2464 H 0.43296 0.87414 0.8929 0.0
C2465 C 0.46131 0.95221 0.92669 0.0
C2466 C 0.42473 0.908 0.9272 0.0
H2467 H 0.51526 1.00275 0.91401 0.0
H2468 H 0.46996 0.97427 0.93607 0.0
C2469 C 0.41522 0.88012 0.91488 0.0
C2470 C 0.18122 0.52895 0.92625 0.0
C2471 C 0.22333 0.53087 0.92669 0.0
H2472 H 0.13354 0.53707 0.91343 0.0
C2473 C 0.25074 0.54418 0.91411 0.0
H2474 H 0.15927 0.51859 0.93573 0.0
C2475 C 0.23606 0.55488 0.90129 0.0
C2476 C 0.19356 0.55209 0.9008 0.0
H2477 H 0.28368 0.54657 0.91421 0.0
H2478 H 0.25756 0.56446 0.89171 0.0
C2479 C 0.16644 0.53931 0.91344 0.0
C2480 C 0.59644 0.64373 0.91564 0.0
C2481 C 0.57216 0.64948 0.90424 0.0
H2482 H 0.62789 0.66643 0.93653 0.0
C2483 C 0.55838 0.68165 0.90578 0.0
H2484 H 0.60736 0.61903 0.91481 0.0
C2485 C 0.57041 0.7089 0.91817 0.0
C2486 C 0.5961 0.70427 0.92932 0.0
H2487 H 0.53953 0.68683 0.89724 0.0
H2488 H 0.55997 0.73397 0.91896 0.0
C2489 C 0.60812 0.67073 0.9281 0.0
C2490 C 0.34182 0.45593 0.44728 0.0
C2491 C 0.35196 0.4819 0.46009 0.0
H2492 H 0.36019 0.45226 0.42516 0.0
C2493 C 0.38935 0.5258 0.46005 0.0
H2494 H 0.31321 0.422 0.44689 0.0
C2495 C 0.41648 0.54295 0.44763 0.0
C2496 C 0.40689 0.51677 0.43488 0.0
H2497 H 0.3983 0.54677 0.46971 0.0
H2498 H 0.44575 0.57644 0.44816 0.0
C2499 C 0.36897 0.47314 0.43483 0.0
C2500 C 0.65977 0.8989 0.43371 0.0
C2501 C 0.62557 0.91049 0.43426 0.0
H2502 H 0.70184 0.8804 0.44574 0.0
C2503 C 0.607 0.91153 0.44786 0.0
H2504 H 0.67502 0.89811 0.42341 0.0
C2505 C 0.62244 0.9016 0.46063 0.0
C2506 C 0.65664 0.89009 0.46011 0.0
H2507 H 0.58011 0.91963 0.44867 0.0
H2508 H 0.60803 0.90375 0.47091 0.0
C2509 C 0.67523 0.88891 0.44651 0.0
C2510 C 0.22666 0.78761 0.44877 0.0
C2511 C 0.26011 0.7909 0.45851 0.0
H2512 H 0.19086 0.75996 0.42878 0.0
C2513 C 0.28449 0.76902 0.45501 0.0
H2514 H 0.2072 0.80405 0.45111 0.0
C2515 C 0.27497 0.74367 0.44221 0.0
C2516 C 0.24078 0.73951 0.43264 0.0
H2517 H 0.31037 0.77073 0.46228 0.0
H2518 H 0.29356 0.72625 0.44001 0.0
C2519 C 0.21701 0.76209 0.43601 0.0
loop_
_geom_bond_atom_site_label_1
_geom_bond_atom_site_label_2
_geom_bond_distance
_geom_bond_site_symmetry_2
_ccdc_geom_bond_type
Nd0 C2 2.836 . S
Nd0 O20 2.500 . S
Nd0 O21 2.492 . S
Nd0 O22 2.487 . S
Nd0 O23 2.682 . S
Nd0 O24 2.410 . S
Nd0 O29 2.414 . S
Nd0 O31 2.424 . S
Nd1 C11 2.836 . S
Nd1 O23 2.414 . S
Nd1 O25 2.424 . S
Nd1 O26 2.500 . S
Nd1 O27 2.492 . S
Nd1 O28 2.487 . S
Nd1 O29 2.682 . S
Nd1 O30 2.410 . S
C2 Nd0 2.836 . S
C2 C3 1.498 . S
C2 O20 1.258 . S
C2 O21 1.239 . S
C3 C2 1.498 . S
C3 C4 1.366 . S
C3 C8 1.407 . S
C4 C3 1.366 . S
C4 C5 1.392 . S
C4 H32 0.930 . S
C5 C4 1.392 . S
C5 C6 1.398 . S
C5 H33 0.929 . S
C6 C5 1.398 . S
C6 C7 1.352 . S
C7 C6 1.352 . S
C7 C8 1.384 . S
C7 H34 0.930 . S
C8 C3 1.407 . S
C8 C7 1.384 . S
C8 H35 0.929 . S
C9 O22 1.241 . S
C9 O23 1.273 . S
C10 O24 1.251 . S
C10 O25 1.268 . S
C11 Nd1 2.836 . S
C11 C12 1.498 1_455 S
C11 O26 1.258 . S
C11 O27 1.239 . S
C12 C11 1.498 1_655 S
C12 C13 1.366 . S
C12 C17 1.407 . S
C13 C12 1.366 . S
C13 C14 1.392 . S
C13 H36 0.930 . S
C14 C13 1.392 . S
C14 C15 1.398 . S
C14 H37 0.929 . S
C15 C14 1.398 . S
C15 C16 1.352 . S
C16 C15 1.352 . S
C16 C17 1.384 . S
C16 H38 0.930 . S
C17 C12 1.407 . S
C17 C16 1.384 . S
C17 H39 0.929 . S
C18 O28 1.241 . S
C18 O29 1.273 . S
C19 O30 1.251 . S
C19 O31 1.268 . S
O20 Nd0 2.500 . S
O20 C2 1.258 . S
O21 Nd0 2.492 . S
O21 C2 1.239 . S
O22 Nd0 2.487 . S
O22 C9 1.241 . S
O23 Nd0 2.682 . S
O23 Nd1 2.414 . S
O23 C9 1.273 . S
O24 Nd0 2.410 . S
O24 C10 1.251 . S
O25 Nd1 2.424 . S
O25 C10 1.268 . S
O26 Nd1 2.500 . S
O26 C11 1.258 . S
O27 Nd1 2.492 . S
O27 C11 1.239 . S
O28 Nd1 2.487 . S
O28 C18 1.241 . S
O29 Nd0 2.414 . S
O29 Nd1 2.682 . S
O29 C18 1.273 . S
O30 Nd1 2.410 . S
O30 C19 1.251 . S
O31 Nd0 2.424 . S
O31 C19 1.268 . S
H32 C4 0.930 . S
H33 C5 0.929 . S
H34 C7 0.930 . S
H35 C8 0.929 . S
H36 C13 0.930 . S
H37 C14 0.929 . S
H38 C16 0.930 . S
H39 C17 0.929 . S
Nd40 C42 2.836 . S
Nd40 O60 2.500 . S
Nd40 O61 2.492 . S
Nd40 O62 2.487 . S
Nd40 O63 2.682 . S
Nd40 O64 2.410 . S
Nd40 O69 2.414 . S
Nd40 O71 2.424 . S
Nd41 C51 2.836 . S
Nd41 O63 2.414 . S
Nd41 O65 2.424 . S
Nd41 O66 2.500 . S
Nd41 O67 2.492 . S
Nd41 O68 2.487 . S
Nd41 O69 2.682 . S
Nd41 O70 2.410 . S
C42 Nd40 2.836 . S
C42 C43 1.498 . S
C42 O60 1.258 . S
C42 O61 1.239 . S
C43 C42 1.498 . S
C43 C44 1.366 . S
C43 C48 1.407 . S
C44 C43 1.366 . S
C44 C45 1.392 . S
C44 H72 0.930 . S
C45 C44 1.392 . S
C45 C46 1.398 . S
C45 H73 0.929 . S
C46 C45 1.398 . S
C46 C47 1.352 . S
C47 C46 1.352 . S
C47 C48 1.384 . S
C47 H74 0.930 . S
C48 C43 1.407 . S
C48 C47 1.384 . S
C48 H75 0.929 . S
C49 O62 1.241 . S
C49 O63 1.273 . S
C50 O64 1.251 . S
C50 O65 1.268 . S
C51 Nd41 2.836 . S
C51 C52 1.498 . S
C51 O66 1.258 . S
C51 O67 1.239 . S
C52 C51 1.498 . S
C52 C53 1.366 . S
C52 C57 1.407 . S
C53 C52 1.366 . S
C53 C54 1.392 . S
C53 H76 0.930 . S
C54 C53 1.392 . S
C54 C55 1.398 . S
C54 H77 0.929 . S
C55 C54 1.398 . S
C55 C56 1.352 . S
C56 C55 1.352 . S
C56 C57 1.384 . S
C56 H78 0.930 . S
C57 C52 1.407 . S
C57 C56 1.384 . S
C57 H79 0.929 . S
C58 O68 1.241 . S
C58 O69 1.273 . S
C59 O70 1.251 . S
C59 O71 1.268 . S
O60 Nd40 2.500 . S
O60 C42 1.258 . S
O61 Nd40 2.492 . S
O61 C42 1.239 . S
O62 Nd40 2.487 . S
O62 C49 1.241 . S
O63 Nd40 2.682 . S
O63 Nd41 2.414 . S
O63 C49 1.273 . S
O64 Nd40 2.410 . S
O64 C50 1.251 . S
O65 Nd41 2.424 . S
O65 C50 1.268 . S
O66 Nd41 2.500 . S
O66 C51 1.258 . S
O67 Nd41 2.492 . S
O67 C51 1.239 . S
O68 Nd41 2.487 . S
O68 C58 1.241 . S
O69 Nd40 2.414 . S
O69 Nd41 2.682 . S
O69 C58 1.273 . S
O70 Nd41 2.410 . S
O70 C59 1.251 . S
O71 Nd40 2.424 . S
O71 C59 1.268 . S
H72 C44 0.930 . S
H73 C45 0.929 . S
H74 C47 0.930 . S
H75 C48 0.929 . S
H76 C53 0.930 . S
H77 C54 0.929 . S
H78 C56 0.930 . S
H79 C57 0.929 . S
Nd80 C82 2.836 . S
Nd80 O100 2.500 . S
Nd80 O101 2.492 . S
Nd80 O102 2.487 . S
Nd80 O103 2.682 . S
Nd80 O104 2.410 . S
Nd80 O109 2.414 . S
Nd80 O111 2.424 . S
Nd81 C91 2.836 . S
Nd81 O103 2.414 . S
Nd81 O105 2.424 . S
Nd81 O106 2.500 . S
Nd81 O107 2.492 . S
Nd81 O108 2.487 . S
Nd81 O109 2.682 . S
Nd81 O110 2.410 . S
C82 Nd80 2.836 . S
C82 C83 1.498 . S
C82 O100 1.258 . S
C82 O101 1.239 . S
C83 C82 1.498 . S
C83 C84 1.366 . S
C83 C88 1.407 . S
C84 C83 1.366 . S
C84 C85 1.392 . S
C84 H112 0.930 . S
C85 C84 1.392 . S
C85 C86 1.398 . S
C85 H113 0.929 . S
C86 C85 1.398 . S
C86 C87 1.352 . S
C87 C86 1.352 . S
C87 C88 1.384 . S
C87 H114 0.930 . S
C88 C83 1.407 . S
C88 C87 1.384 . S
C88 H115 0.929 . S
C89 O102 1.241 . S
C89 O103 1.273 . S
C90 O104 1.251 . S
C90 O105 1.268 . S
C91 Nd81 2.836 . S
C91 C92 1.498 1_565 S
C91 O106 1.258 . S
C91 O107 1.239 . S
C92 C91 1.498 1_545 S
C92 C93 1.366 . S
C92 C97 1.407 . S
C93 C92 1.366 . S
C93 C94 1.392 . S
C93 H116 0.930 . S
C94 C93 1.392 . S
C94 C95 1.398 . S
C94 H117 0.929 . S
C95 C94 1.398 . S
C95 C96 1.352 . S
C96 C95 1.352 . S
C96 C97 1.384 . S
C96 H118 0.930 . S
C97 C92 1.407 . S
C97 C96 1.384 . S
C97 H119 0.929 . S
C98 O108 1.241 . S
C98 O109 1.273 . S
C99 O110 1.251 . S
C99 O111 1.268 . S
O100 Nd80 2.500 . S
O100 C82 1.258 . S
O101 Nd80 2.492 . S
O101 C82 1.239 . S
O102 Nd80 2.487 . S
O102 C89 1.241 . S
O103 Nd80 2.682 . S
O103 Nd81 2.414 . S
O103 C89 1.273 . S
O104 Nd80 2.410 . S
O104 C90 1.251 . S
O105 Nd81 2.424 . S
O105 C90 1.268 . S
O106 Nd81 2.500 . S
O106 C91 1.258 . S
O107 Nd81 2.492 . S
O107 C91 1.239 . S
O108 Nd81 2.487 . S
O108 C98 1.241 . S
O109 Nd80 2.414 . S
O109 Nd81 2.682 . S
O109 C98 1.273 . S
O110 Nd81 2.410 . S
O110 C99 1.251 . S
O111 Nd80 2.424 . S
O111 C99 1.268 . S
H112 C84 0.930 . S
H113 C85 0.929 . S
H114 C87 0.930 . S
H115 C88 0.929 . S
H116 C93 0.930 . S
H117 C94 0.929 . S
H118 C96 0.930 . S
H119 C97 0.929 . S
Nd120 C122 2.836 . S
Nd120 O140 2.500 . S
Nd120 O141 2.492 . S
Nd120 O142 2.487 . S
Nd120 O143 2.682 . S
Nd120 O144 2.410 . S
Nd120 O149 2.414 . S
Nd120 O151 2.424 . S
Nd121 C131 2.836 . S
Nd121 O143 2.414 . S
Nd121 O145 2.424 . S
Nd121 O146 2.500 . S
Nd121 O147 2.492 . S
Nd121 O148 2.487 . S
Nd121 O149 2.682 . S
Nd121 O150 2.410 . S
C122 Nd120 2.836 . S
C122 C123 1.498 . S
C122 O140 1.258 . S
C122 O141 1.239 . S
C123 C122 1.498 . S
C123 C124 1.366 . S
C123 C128 1.407 . S
C124 C123 1.366 . S
C124 C125 1.392 . S
C124 H152 0.930 . S
C125 C124 1.392 . S
C125 C126 1.398 . S
C125 H153 0.929 . S
C126 C125 1.398 . S
C126 C127 1.352 . S
C127 C126 1.352 . S
C127 C128 1.384 . S
C127 H154 0.930 . S
C128 C123 1.407 . S
C128 C127 1.384 . S
C128 H155 0.929 . S
C129 O142 1.241 . S
C129 O143 1.273 . S
C130 O144 1.251 . S
C130 O145 1.268 . S
C131 Nd121 2.836 . S
C131 C132 1.498 . S
C131 O146 1.258 . S
C131 O147 1.239 . S
C132 C131 1.498 . S
C132 C133 1.366 . S
C132 C137 1.407 . S
C133 C132 1.366 . S
C133 C134 1.392 . S
C133 H156 0.930 . S
C134 C133 1.392 . S
C134 C135 1.398 . S
C134 H157 0.929 . S
C135 C134 1.398 . S
C135 C136 1.352 . S
C136 C135 1.352 . S
C136 C137 1.384 . S
C136 H158 0.930 . S
C137 C132 1.407 . S
C137 C136 1.384 . S
C137 H159 0.929 . S
C138 O148 1.241 . S
C138 O149 1.273 . S
C139 O150 1.251 . S
C139 O151 1.268 . S
O140 Nd120 2.500 . S
O140 C122 1.258 . S
O141 Nd120 2.492 . S
O141 C122 1.239 . S
O142 Nd120 2.487 . S
O142 C129 1.241 . S
O143 Nd120 2.682 . S
O143 Nd121 2.414 . S
O143 C129 1.273 . S
O144 Nd120 2.410 . S
O144 C130 1.251 . S
O145 Nd121 2.424 . S
O145 C130 1.268 . S
O146 Nd121 2.500 . S
O146 C131 1.258 . S
O147 Nd121 2.492 . S
O147 C131 1.239 . S
O148 Nd121 2.487 . S
O148 C138 1.241 . S
O149 Nd120 2.414 . S
O149 Nd121 2.682 . S
O149 C138 1.273 . S
O150 Nd121 2.410 . S
O150 C139 1.251 . S
O151 Nd120 2.424 . S
O151 C139 1.268 . S
H152 C124 0.930 . S
H153 C125 0.929 . S
H154 C127 0.930 . S
H155 C128 0.929 . S
H156 C133 0.930 . S
H157 C134 0.929 . S
H158 C136 0.930 . S
H159 C137 0.929 . S
Nd160 C162 2.836 . S
Nd160 O180 2.500 . S
Nd160 O181 2.492 . S
Nd160 O182 2.487 . S
Nd160 O183 2.682 . S
Nd160 O184 2.410 . S
Nd160 O189 2.414 . S
Nd160 O191 2.424 . S
Nd161 C171 2.836 . S
Nd161 O183 2.414 . S
Nd161 O185 2.424 . S
Nd161 O186 2.500 . S
Nd161 O187 2.492 . S
Nd161 O188 2.487 . S
Nd161 O189 2.682 . S
Nd161 O190 2.410 . S
C162 Nd160 2.836 . S
C162 C163 1.498 . S
C162 O180 1.258 . S
C162 O181 1.239 . S
C163 C162 1.498 . S
C163 C164 1.366 . S
C163 C168 1.407 . S
C164 C163 1.366 . S
C164 C165 1.392 . S
C164 H192 0.930 . S
C165 C164 1.392 . S
C165 C166 1.398 . S
C165 H193 0.929 . S
C166 C165 1.398 . S
C166 C167 1.352 . S
C167 C166 1.352 . S
C167 C168 1.384 . S
C167 H194 0.930 . S
C168 C163 1.407 . S
C168 C167 1.384 . S
C168 H195 0.929 . S
C169 O182 1.241 . S
C169 O183 1.273 . S
C170 O184 1.251 . S
C170 O185 1.268 . S
C171 Nd161 2.836 . S
C171 C172 1.498 . S
C171 O186 1.258 . S
C171 O187 1.239 . S
C172 C171 1.498 . S
C172 C173 1.366 . S
C172 C177 1.407 . S
C173 C172 1.366 . S
C173 C174 1.392 . S
C173 H196 0.930 . S
C174 C173 1.392 . S
C174 C175 1.398 . S
C174 H197 0.929 . S
C175 C174 1.398 . S
C175 C176 1.352 . S
C176 C175 1.352 . S
C176 C177 1.384 . S
C176 H198 0.930 . S
C177 C172 1.407 . S
C177 C176 1.384 . S
C177 H199 0.929 . S
C178 O188 1.241 . S
C178 O189 1.273 . S
C179 O190 1.251 . S
C179 O191 1.268 . S
O180 Nd160 2.500 . S
O180 C162 1.258 . S
O181 Nd160 2.492 . S
O181 C162 1.239 . S
O182 Nd160 2.487 . S
O182 C169 1.241 . S
O183 Nd160 2.682 . S
O183 Nd161 2.414 . S
O183 C169 1.273 . S
O184 Nd160 2.410 . S
O184 C170 1.251 . S
O185 Nd161 2.424 . S
O185 C170 1.268 . S
O186 Nd161 2.500 . S
O186 C171 1.258 . S
O187 Nd161 2.492 . S
O187 C171 1.239 . S
O188 Nd161 2.487 . S
O188 C178 1.241 . S
O189 Nd160 2.414 . S
O189 Nd161 2.682 . S
O189 C178 1.273 . S
O190 Nd161 2.410 . S
O190 C179 1.251 . S
O191 Nd160 2.424 . S
O191 C179 1.268 . S
H192 C164 0.930 . S
H193 C165 0.929 . S
H194 C167 0.930 . S
H195 C168 0.929 . S
H196 C173 0.930 . S
H197 C174 0.929 . S
H198 C176 0.930 . S
H199 C177 0.929 . S
Nd200 C202 2.836 . S
Nd200 O220 2.500 . S
Nd200 O221 2.492 . S
Nd200 O222 2.487 . S
Nd200 O223 2.682 . S
Nd200 O224 2.410 . S
Nd200 O229 2.414 . S
Nd200 O231 2.424 . S
Nd201 C211 2.836 . S
Nd201 O223 2.414 . S
Nd201 O225 2.424 . S
Nd201 O226 2.500 . S
Nd201 O227 2.492 . S
Nd201 O228 2.487 . S
Nd201 O229 2.682 . S
Nd201 O230 2.410 . S
C202 Nd200 2.836 . S
C202 C203 1.498 . S
C202 O220 1.258 . S
C202 O221 1.239 . S
C203 C202 1.498 . S
C203 C204 1.366 . S
C203 C208 1.407 . S
C204 C203 1.366 . S
C204 C205 1.392 . S
C204 H232 0.930 . S
C205 C204 1.392 . S
C205 C206 1.398 . S
C205 H233 0.929 . S
C206 C205 1.398 . S
C206 C207 1.352 . S
C207 C206 1.352 . S
C207 C208 1.384 . S
C207 H234 0.930 . S
C208 C203 1.407 . S
C208 C207 1.384 . S
C208 H235 0.929 . S
C209 O222 1.241 . S
C209 O223 1.273 . S
C210 O224 1.251 . S
C210 O225 1.268 . S
C211 Nd201 2.836 . S
C211 C212 1.498 . S
C211 O226 1.258 . S
C211 O227 1.239 . S
C212 C211 1.498 . S
C212 C213 1.366 . S
C212 C217 1.407 . S
C213 C212 1.366 . S
C213 C214 1.392 . S
C213 H236 0.930 . S
C214 C213 1.392 . S
C214 C215 1.398 . S
C214 H237 0.929 . S
C215 C214 1.398 . S
C215 C216 1.352 . S
C216 C215 1.352 . S
C216 C217 1.384 . S
C216 H238 0.930 . S
C217 C212 1.407 . S
C217 C216 1.384 . S
C217 H239 0.929 . S
C218 O228 1.241 . S
C218 O229 1.273 . S
C219 O230 1.251 . S
C219 O231 1.268 . S
O220 Nd200 2.500 . S
O220 C202 1.258 . S
O221 Nd200 2.492 . S
O221 C202 1.239 . S
O222 Nd200 2.487 . S
O222 C209 1.241 . S
O223 Nd200 2.682 . S
O223 Nd201 2.414 . S
O223 C209 1.273 . S
O224 Nd200 2.410 . S
O224 C210 1.251 . S
O225 Nd201 2.424 . S
O225 C210 1.268 . S
O226 Nd201 2.500 . S
O226 C211 1.258 . S
O227 Nd201 2.492 . S
O227 C211 1.239 . S
O228 Nd201 2.487 . S
O228 C218 1.241 . S
O229 Nd200 2.414 . S
O229 Nd201 2.682 . S
O229 C218 1.273 . S
O230 Nd201 2.410 . S
O230 C219 1.251 . S
O231 Nd200 2.424 . S
O231 C219 1.268 . S
H232 C204 0.930 . S
H233 C205 0.929 . S
H234 C207 0.930 . S
H235 C208 0.929 . S
H236 C213 0.930 . S
H237 C214 0.929 . S
H238 C216 0.930 . S
H239 C217 0.929 . S
Nd240 C242 2.836 . S
Nd240 O260 2.500 . S
Nd240 O261 2.492 . S
Nd240 O262 2.487 . S
Nd240 O263 2.682 . S
Nd240 O264 2.410 . S
Nd240 O269 2.414 . S
Nd240 O271 2.424 . S
Nd241 C251 2.836 . S
Nd241 O263 2.414 . S
Nd241 O265 2.424 . S
Nd241 O266 2.500 . S
Nd241 O267 2.492 . S
Nd241 O268 2.487 . S
Nd241 O269 2.682 . S
Nd241 O270 2.410 . S
C242 Nd240 2.836 . S
C242 C243 1.498 1_655 S
C242 O260 1.258 . S
C242 O261 1.239 . S
C243 C242 1.498 1_455 S
C243 C244 1.366 . S
C243 C248 1.407 . S
C244 C243 1.366 . S
C244 C245 1.392 . S
C244 H272 0.930 . S
C245 C244 1.392 . S
C245 C246 1.398 . S
C245 H273 0.929 . S
C246 C245 1.398 . S
C246 C247 1.352 . S
C247 C246 1.352 . S
C247 C248 1.384 . S
C247 H274 0.930 . S
C248 C243 1.407 . S
C248 C247 1.384 . S
C248 H275 0.929 . S
C249 O262 1.241 . S
C249 O263 1.273 . S
C250 O264 1.251 . S
C250 O265 1.268 . S
C251 Nd241 2.836 . S
C251 C252 1.498 . S
C251 O266 1.258 . S
C251 O267 1.239 . S
C252 C251 1.498 . S
C252 C253 1.366 . S
C252 C257 1.407 . S
C253 C252 1.366 . S
C253 C254 1.392 . S
C253 H276 0.930 . S
C254 C253 1.392 . S
C254 C255 1.398 . S
C254 H277 0.929 . S
C255 C254 1.398 . S
C255 C256 1.352 . S
C256 C255 1.352 . S
C256 C257 1.384 . S
C256 H278 0.930 . S
C257 C252 1.407 . S
C257 C256 1.384 . S
C257 H279 0.929 . S
C258 O268 1.241 . S
C258 O269 1.273 . S
C259 O270 1.251 . S
C259 O271 1.268 . S
O260 Nd240 2.500 . S
O260 C242 1.258 . S
O261 Nd240 2.492 . S
O261 C242 1.239 . S
O262 Nd240 2.487 . S
O262 C249 1.241 . S
O263 Nd240 2.682 . S
O263 Nd241 2.414 . S
O263 C249 1.273 . S
O264 Nd240 2.410 . S
O264 C250 1.251 . S
O265 Nd241 2.424 . S
O265 C250 1.268 . S
O266 Nd241 2.500 . S
O266 C251 1.258 . S
O267 Nd241 2.492 . S
O267 C251 1.239 . S
O268 Nd241 2.487 . S
O268 C258 1.241 . S
O269 Nd240 2.414 . S
O269 Nd241 2.682 . S
O269 C258 1.273 . S
O270 Nd241 2.410 . S
O270 C259 1.251 . S
O271 Nd240 2.424 . S
O271 C259 1.268 . S
H272 C244 0.930 . S
H273 C245 0.929 . S
H274 C247 0.930 . S
H275 C248 0.929 . S
H276 C253 0.930 . S
H277 C254 0.929 . S
H278 C256 0.930 . S
H279 C257 0.929 . S
Nd280 C282 2.836 . S
Nd280 O300 2.500 . S
Nd280 O301 2.492 . S
Nd280 O302 2.487 . S
Nd280 O303 2.682 . S
Nd280 O304 2.410 . S
Nd280 O309 2.414 . S
Nd280 O311 2.424 . S
Nd281 C291 2.836 . S
Nd281 O303 2.414 . S
Nd281 O305 2.424 . S
Nd281 O306 2.500 . S
Nd281 O307 2.492 . S
Nd281 O308 2.487 . S
Nd281 O309 2.682 . S
Nd281 O310 2.410 . S
C282 Nd280 2.836 . S
C282 C283 1.498 . S
C282 O300 1.258 . S
C282 O301 1.239 . S
C283 C282 1.498 . S
C283 C284 1.366 . S
C283 C288 1.407 . S
C284 C283 1.366 . S
C284 C285 1.392 . S
C284 H312 0.930 . S
C285 C284 1.392 . S
C285 C286 1.398 . S
C285 H313 0.929 . S
C286 C285 1.398 . S
C286 C287 1.352 . S
C287 C286 1.352 . S
C287 C288 1.384 . S
C287 H314 0.930 . S
C288 C283 1.407 . S
C288 C287 1.384 . S
C288 H315 0.929 . S
C289 O302 1.241 . S
C289 O303 1.273 . S
C290 O304 1.251 . S
C290 O305 1.268 . S
C291 Nd281 2.836 . S
C291 C292 1.498 . S
C291 O306 1.258 . S
C291 O307 1.239 . S
C292 C291 1.498 . S
C292 C293 1.366 . S
C292 C297 1.407 . S
C293 C292 1.366 . S
C293 C294 1.392 . S
C293 H316 0.930 . S
C294 C293 1.392 . S
C294 C295 1.398 . S
C294 H317 0.929 . S
C295 C294 1.398 . S
C295 C296 1.352 . S
C296 C295 1.352 . S
C296 C297 1.384 . S
C296 H318 0.930 . S
C297 C292 1.407 . S
C297 C296 1.384 . S
C297 H319 0.929 . S
C298 O308 1.241 . S
C298 O309 1.273 . S
C299 O310 1.251 . S
C299 O311 1.268 . S
O300 Nd280 2.500 . S
O300 C282 1.258 . S
O301 Nd280 2.492 . S
O301 C282 1.239 . S
O302 Nd280 2.487 . S
O302 C289 1.241 . S
O303 Nd280 2.682 . S
O303 Nd281 2.414 . S
O303 C289 1.273 . S
O304 Nd280 2.410 . S
O304 C290 1.251 . S
O305 Nd281 2.424 . S
O305 C290 1.268 . S
O306 Nd281 2.500 . S
O306 C291 1.258 . S
O307 Nd281 2.492 . S
O307 C291 1.239 . S
O308 Nd281 2.487 . S
O308 C298 1.241 . S
O309 Nd280 2.414 . S
O309 Nd281 2.682 . S
O309 C298 1.273 . S
O310 Nd281 2.410 . S
O310 C299 1.251 . S
O311 Nd280 2.424 . S
O311 C299 1.268 . S
H312 C284 0.930 . S
H313 C285 0.929 . S
H314 C287 0.930 . S
H315 C288 0.929 . S
H316 C293 0.930 . S
H317 C294 0.929 . S
H318 C296 0.930 . S
H319 C297 0.929 . S
Nd320 C322 2.836 . S
Nd320 O340 2.500 . S
Nd320 O341 2.492 . S
Nd320 O342 2.487 . S
Nd320 O343 2.682 . S
Nd320 O344 2.410 . S
Nd320 O349 2.414 . S
Nd320 O351 2.424 . S
Nd321 C331 2.836 . S
Nd321 O343 2.414 . S
Nd321 O345 2.424 . S
Nd321 O346 2.500 . S
Nd321 O347 2.492 . S
Nd321 O348 2.487 . S
Nd321 O349 2.682 . S
Nd321 O350 2.410 . S
C322 Nd320 2.836 . S
C322 C323 1.498 1_545 S
C322 O340 1.258 . S
C322 O341 1.239 . S
C323 C322 1.498 1_565 S
C323 C324 1.366 . S
C323 C328 1.407 . S
C324 C323 1.366 . S
C324 C325 1.392 . S
C324 H352 0.930 . S
C325 C324 1.392 . S
C325 C326 1.398 . S
C325 H353 0.929 . S
C326 C325 1.398 . S
C326 C327 1.352 . S
C327 C326 1.352 . S
C327 C328 1.384 . S
C327 H354 0.930 . S
C328 C323 1.407 . S
C328 C327 1.384 . S
C328 H355 0.929 . S
C329 O342 1.241 . S
C329 O343 1.273 . S
C330 O344 1.251 . S
C330 O345 1.268 . S
C331 Nd321 2.836 . S
C331 C332 1.498 . S
C331 O346 1.258 . S
C331 O347 1.239 . S
C332 C331 1.498 . S
C332 C333 1.366 . S
C332 C337 1.407 . S
C333 C332 1.366 . S
C333 C334 1.392 . S
C333 H356 0.930 . S
C334 C333 1.392 . S
C334 C335 1.398 . S
C334 H357 0.929 . S
C335 C334 1.398 . S
C335 C336 1.352 . S
C336 C335 1.352 . S
C336 C337 1.384 . S
C336 H358 0.930 . S
C337 C332 1.407 . S
C337 C336 1.384 . S
C337 H359 0.929 . S
C338 O348 1.241 . S
C338 O349 1.273 . S
C339 O350 1.251 . S
C339 O351 1.268 . S
O340 Nd320 2.500 . S
O340 C322 1.258 . S
O341 Nd320 2.492 . S
O341 C322 1.239 . S
O342 Nd320 2.487 . S
O342 C329 1.241 . S
O343 Nd320 2.682 . S
O343 Nd321 2.414 . S
O343 C329 1.273 . S
O344 Nd320 2.410 . S
O344 C330 1.251 . S
O345 Nd321 2.424 . S
O345 C330 1.268 . S
O346 Nd321 2.500 . S
O346 C331 1.258 . S
O347 Nd321 2.492 . S
O347 C331 1.239 . S
O348 Nd321 2.487 . S
O348 C338 1.241 . S
O349 Nd320 2.414 . S
O349 Nd321 2.682 . S
O349 C338 1.273 . S
O350 Nd321 2.410 . S
O350 C339 1.251 . S
O351 Nd320 2.424 . S
O351 C339 1.268 . S
H352 C324 0.930 . S
H353 C325 0.929 . S
H354 C327 0.930 . S
H355 C328 0.929 . S
H356 C333 0.930 . S
H357 C334 0.929 . S
H358 C336 0.930 . S
H359 C337 0.929 . S
Nd360 C362 2.836 . S
Nd360 O380 2.500 . S
Nd360 O381 2.492 . S
Nd360 O382 2.487 . S
Nd360 O383 2.682 . S
Nd360 O384 2.410 . S
Nd360 O389 2.414 . S
Nd360 O391 2.424 . S
Nd361 C371 2.836 . S
Nd361 O383 2.414 . S
Nd361 O385 2.424 . S
Nd361 O386 2.500 . S
Nd361 O387 2.492 . S
Nd361 O388 2.487 . S
Nd361 O389 2.682 . S
Nd361 O390 2.410 . S
C362 Nd360 2.836 . S
C362 C363 1.498 . S
C362 O380 1.258 . S
C362 O381 1.239 . S
C363 C362 1.498 . S
C363 C364 1.366 . S
C363 C368 1.407 . S
C364 C363 1.366 . S
C364 C365 1.392 . S
C364 H392 0.930 . S
C365 C364 1.392 . S
C365 C366 1.398 . S
C365 H393 0.929 . S
C366 C365 1.398 . S
C366 C367 1.352 . S
C367 C366 1.352 . S
C367 C368 1.384 . S
C367 H394 0.930 . S
C368 C363 1.407 . S
C368 C367 1.384 . S
C368 H395 0.929 . S
C369 O382 1.241 . S
C369 O383 1.273 . S
C370 O384 1.251 . S
C370 O385 1.268 . S
C371 Nd361 2.836 . S
C371 C372 1.498 . S
C371 O386 1.258 . S
C371 O387 1.239 . S
C372 C371 1.498 . S
C372 C373 1.366 . S
C372 C377 1.407 . S
C373 C372 1.366 . S
C373 C374 1.392 . S
C373 H396 0.930 . S
C374 C373 1.392 . S
C374 C375 1.398 . S
C374 H397 0.929 . S
C375 C374 1.398 . S
C375 C376 1.352 . S
C376 C375 1.352 . S
C376 C377 1.384 . S
C376 H398 0.930 . S
C377 C372 1.407 . S
C377 C376 1.384 . S
C377 H399 0.929 . S
C378 O388 1.241 . S
C378 O389 1.273 . S
C379 O390 1.251 . S
C379 O391 1.268 . S
O380 Nd360 2.500 . S
O380 C362 1.258 . S
O381 Nd360 2.492 . S
O381 C362 1.239 . S
O382 Nd360 2.487 . S
O382 C369 1.241 . S
O383 Nd360 2.682 . S
O383 Nd361 2.414 . S
O383 C369 1.273 . S
O384 Nd360 2.410 . S
O384 C370 1.251 . S
O385 Nd361 2.424 . S
O385 C370 1.268 . S
O386 Nd361 2.500 . S
O386 C371 1.258 . S
O387 Nd361 2.492 . S
O387 C371 1.239 . S
O388 Nd361 2.487 . S
O388 C378 1.241 . S
O389 Nd360 2.414 . S
O389 Nd361 2.682 . S
O389 C378 1.273 . S
O390 Nd361 2.410 . S
O390 C379 1.251 . S
O391 Nd360 2.424 . S
O391 C379 1.268 . S
H392 C364 0.930 . S
H393 C365 0.929 . S
H394 C367 0.930 . S
H395 C368 0.929 . S
H396 C373 0.930 . S
H397 C374 0.929 . S
H398 C376 0.930 . S
H399 C377 0.929 . S
Nd400 C402 2.836 . S
Nd400 O420 2.500 . S
Nd400 O421 2.492 . S
Nd400 O422 2.487 . S
Nd400 O423 2.682 . S
Nd400 O424 2.410 . S
Nd400 O429 2.414 . S
Nd400 O431 2.424 . S
Nd401 C411 2.836 . S
Nd401 O423 2.414 . S
Nd401 O425 2.424 . S
Nd401 O426 2.500 . S
Nd401 O427 2.492 . S
Nd401 O428 2.487 . S
Nd401 O429 2.682 . S
Nd401 O430 2.410 . S
C402 Nd400 2.836 . S
C402 C403 1.498 . S
C402 O420 1.258 . S
C402 O421 1.239 . S
C403 C402 1.498 . S
C403 C404 1.366 . S
C403 C408 1.407 . S
C404 C403 1.366 . S
C404 C405 1.392 . S
C404 H432 0.930 . S
C405 C404 1.392 . S
C405 C406 1.398 . S
C405 H433 0.929 . S
C406 C405 1.398 . S
C406 C407 1.352 . S
C407 C406 1.352 . S
C407 C408 1.384 . S
C407 H434 0.930 . S
C408 C403 1.407 . S
C408 C407 1.384 . S
C408 H435 0.929 . S
C409 O422 1.241 . S
C409 O423 1.273 . S
C410 O424 1.251 . S
C410 O425 1.268 . S
C411 Nd401 2.836 . S
C411 C412 1.498 . S
C411 O426 1.258 . S
C411 O427 1.239 . S
C412 C411 1.498 . S
C412 C413 1.366 . S
C412 C417 1.407 . S
C413 C412 1.366 . S
C413 C414 1.392 . S
C413 H436 0.930 . S
C414 C413 1.392 . S
C414 C415 1.398 . S
C414 H437 0.929 . S
C415 C414 1.398 . S
C415 C416 1.352 . S
C416 C415 1.352 . S
C416 C417 1.384 . S
C416 H438 0.930 . S
C417 C412 1.407 . S
C417 C416 1.384 . S
C417 H439 0.929 . S
C418 O428 1.241 . S
C418 O429 1.273 . S
C419 O430 1.251 . S
C419 O431 1.268 . S
O420 Nd400 2.500 . S
O420 C402 1.258 . S
O421 Nd400 2.492 . S
O421 C402 1.239 . S
O422 Nd400 2.487 . S
O422 C409 1.241 . S
O423 Nd400 2.682 . S
O423 Nd401 2.414 . S
O423 C409 1.273 . S
O424 Nd400 2.410 . S
O424 C410 1.251 . S
O425 Nd401 2.424 . S
O425 C410 1.268 . S
O426 Nd401 2.500 . S
O426 C411 1.258 . S
O427 Nd401 2.492 . S
O427 C411 1.239 . S
O428 Nd401 2.487 . S
O428 C418 1.241 . S
O429 Nd400 2.414 . S
O429 Nd401 2.682 . S
O429 C418 1.273 . S
O430 Nd401 2.410 . S
O430 C419 1.251 . S
O431 Nd400 2.424 . S
O431 C419 1.268 . S
H432 C404 0.930 . S
H433 C405 0.929 . S
H434 C407 0.930 . S
H435 C408 0.929 . S
H436 C413 0.930 . S
H437 C414 0.929 . S
H438 C416 0.930 . S
H439 C417 0.929 . S
Nd440 C442 2.836 . S
Nd440 O460 2.500 . S
Nd440 O461 2.492 . S
Nd440 O462 2.487 . S
Nd440 O463 2.682 . S
Nd440 O464 2.410 . S
Nd440 O469 2.414 . S
Nd440 O471 2.424 . S
Nd441 C451 2.836 . S
Nd441 O463 2.414 . S
Nd441 O465 2.424 . S
Nd441 O466 2.500 . S
Nd441 O467 2.492 . S
Nd441 O468 2.487 . S
Nd441 O469 2.682 . S
Nd441 O470 2.410 . S
C442 Nd440 2.836 . S
C442 C443 1.498 . S
C442 O460 1.258 . S
C442 O461 1.239 . S
C443 C442 1.498 . S
C443 C444 1.366 . S
C443 C448 1.407 . S
C444 C443 1.366 . S
C444 C445 1.392 . S
C444 H472 0.930 . S
C445 C444 1.392 . S
C445 C446 1.398 . S
C445 H473 0.929 . S
C446 C445 1.398 . S
C446 C447 1.352 . S
C447 C446 1.352 . S
C447 C448 1.384 . S
C447 H474 0.930 . S
C448 C443 1.407 . S
C448 C447 1.384 . S
C448 H475 0.929 . S
C449 O462 1.241 . S
C449 O463 1.273 . S
C450 O464 1.251 . S
C450 O465 1.268 . S
C451 Nd441 2.836 . S
C451 C452 1.498 . S
C451 O466 1.258 . S
C451 O467 1.239 . S
C452 C451 1.498 . S
C452 C453 1.366 . S
C452 C457 1.407 . S
C453 C452 1.366 . S
C453 C454 1.392 . S
C453 H476 0.930 . S
C454 C453 1.392 . S
C454 C455 1.398 . S
C454 H477 0.929 . S
C455 C454 1.398 . S
C455 C456 1.352 . S
C456 C455 1.352 . S
C456 C457 1.384 . S
C456 H478 0.930 . S
C457 C452 1.407 . S
C457 C456 1.384 . S
C457 H479 0.929 . S
C458 O468 1.241 . S
C458 O469 1.273 . S
C459 O470 1.251 . S
C459 O471 1.268 . S
O460 Nd440 2.500 . S
O460 C442 1.258 . S
O461 Nd440 2.492 . S
O461 C442 1.239 . S
O462 Nd440 2.487 . S
O462 C449 1.241 . S
O463 Nd440 2.682 . S
O463 Nd441 2.414 . S
O463 C449 1.273 . S
O464 Nd440 2.410 . S
O464 C450 1.251 . S
O465 Nd441 2.424 . S
O465 C450 1.268 . S
O466 Nd441 2.500 . S
O466 C451 1.258 . S
O467 Nd441 2.492 . S
O467 C451 1.239 . S
O468 Nd441 2.487 . S
O468 C458 1.241 . S
O469 Nd440 2.414 . S
O469 Nd441 2.682 . S
O469 C458 1.273 . S
O470 Nd441 2.410 . S
O470 C459 1.251 . S
O471 Nd440 2.424 . S
O471 C459 1.268 . S
H472 C444 0.930 . S
H473 C445 0.929 . S
H474 C447 0.930 . S
H475 C448 0.929 . S
H476 C453 0.930 . S
H477 C454 0.929 . S
H478 C456 0.930 . S
H479 C457 0.929 . S
Nd480 C482 2.836 . S
Nd480 O500 2.500 . S
Nd480 O501 2.492 . S
Nd480 O502 2.487 . S
Nd480 O503 2.682 . S
Nd480 O504 2.410 . S
Nd480 O509 2.414 . S
Nd480 O511 2.424 . S
Nd481 C491 2.836 . S
Nd481 O503 2.414 . S
Nd481 O505 2.424 . S
Nd481 O506 2.500 . S
Nd481 O507 2.492 . S
Nd481 O508 2.487 . S
Nd481 O509 2.682 . S
Nd481 O510 2.410 . S
C482 Nd480 2.836 . S
C482 C483 1.498 . S
C482 O500 1.258 . S
C482 O501 1.239 . S
C483 C482 1.498 . S
C483 C484 1.366 . S
C483 C488 1.407 1_655 S
C484 C483 1.366 . S
C484 C485 1.392 1_655 S
C484 H512 0.930 . S
C485 C484 1.392 1_455 S
C485 C486 1.398 . S
C485 H513 0.929 . S
C486 C485 1.398 . S
C486 C487 1.352 . S
C487 C486 1.352 . S
C487 C488 1.384 . S
C487 H514 0.930 . S
C488 C483 1.407 1_455 S
C488 C487 1.384 . S
C488 H515 0.929 . S
C489 O502 1.241 . S
C489 O503 1.273 . S
C490 O504 1.251 . S
C490 O505 1.268 . S
C491 Nd481 2.836 . S
C491 C492 1.498 . S
C491 O506 1.258 . S
C491 O507 1.239 . S
C492 C491 1.498 . S
C492 C493 1.366 . S
C492 C497 1.407 . S
C493 C492 1.366 . S
C493 C494 1.392 . S
C493 H516 0.930 . S
C494 C493 1.392 . S
C494 C495 1.398 . S
C494 H517 0.929 . S
C495 C494 1.398 . S
C495 C496 1.352 . S
C496 C495 1.352 . S
C496 C497 1.384 . S
C496 H518 0.930 . S
C497 C492 1.407 . S
C497 C496 1.384 . S
C497 H519 0.929 . S
C498 O508 1.241 . S
C498 O509 1.273 . S
C499 O510 1.251 . S
C499 O511 1.268 . S
O500 Nd480 2.500 . S
O500 C482 1.258 . S
O501 Nd480 2.492 . S
O501 C482 1.239 . S
O502 Nd480 2.487 . S
O502 C489 1.241 . S
O503 Nd480 2.682 . S
O503 Nd481 2.414 . S
O503 C489 1.273 . S
O504 Nd480 2.410 . S
O504 C490 1.251 . S
O505 Nd481 2.424 . S
O505 C490 1.268 . S
O506 Nd481 2.500 . S
O506 C491 1.258 . S
O507 Nd481 2.492 . S
O507 C491 1.239 . S
O508 Nd481 2.487 . S
O508 C498 1.241 . S
O509 Nd480 2.414 . S
O509 Nd481 2.682 . S
O509 C498 1.273 . S
O510 Nd481 2.410 . S
O510 C499 1.251 . S
O511 Nd480 2.424 . S
O511 C499 1.268 . S
H512 C484 0.930 . S
H513 C485 0.929 . S
H514 C487 0.930 . S
H515 C488 0.929 . S
H516 C493 0.930 . S
H517 C494 0.929 . S
H518 C496 0.930 . S
H519 C497 0.929 . S
Nd520 C522 2.836 . S
Nd520 O540 2.500 . S
Nd520 O541 2.492 . S
Nd520 O542 2.487 . S
Nd520 O543 2.682 . S
Nd520 O544 2.410 . S
Nd520 O549 2.414 . S
Nd520 O551 2.424 . S
Nd521 C531 2.836 . S
Nd521 O543 2.414 . S
Nd521 O545 2.424 . S
Nd521 O546 2.500 . S
Nd521 O547 2.492 . S
Nd521 O548 2.487 . S
Nd521 O549 2.682 . S
Nd521 O550 2.410 . S
C522 Nd520 2.836 . S
C522 C523 1.498 . S
C522 O540 1.258 . S
C522 O541 1.239 . S
C523 C522 1.498 . S
C523 C524 1.366 . S
C523 C528 1.407 . S
C524 C523 1.366 . S
C524 C525 1.392 . S
C524 H552 0.930 . S
C525 C524 1.392 . S
C525 C526 1.398 . S
C525 H553 0.929 . S
C526 C525 1.398 . S
C526 C527 1.352 . S
C527 C526 1.352 . S
C527 C528 1.384 . S
C527 H554 0.930 . S
C528 C523 1.407 . S
C528 C527 1.384 . S
C528 H555 0.929 . S
C529 O542 1.241 . S
C529 O543 1.273 . S
C530 O544 1.251 . S
C530 O545 1.268 . S
C531 Nd521 2.836 . S
C531 C532 1.498 . S
C531 O546 1.258 . S
C531 O547 1.239 . S
C532 C531 1.498 . S
C532 C533 1.366 . S
C532 C537 1.407 . S
C533 C532 1.366 . S
C533 C534 1.392 . S
C533 H556 0.930 . S
C534 C533 1.392 . S
C534 C535 1.398 . S
C534 H557 0.929 . S
C535 C534 1.398 . S
C535 C536 1.352 . S
C536 C535 1.352 . S
C536 C537 1.384 . S
C536 H558 0.930 . S
C537 C532 1.407 . S
C537 C536 1.384 . S
C537 H559 0.929 . S
C538 O548 1.241 . S
C538 O549 1.273 . S
C539 O550 1.251 . S
C539 O551 1.268 . S
O540 Nd520 2.500 . S
O540 C522 1.258 . S
O541 Nd520 2.492 . S
O541 C522 1.239 . S
O542 Nd520 2.487 . S
O542 C529 1.241 . S
O543 Nd520 2.682 . S
O543 Nd521 2.414 . S
O543 C529 1.273 . S
O544 Nd520 2.410 . S
O544 C530 1.251 . S
O545 Nd521 2.424 . S
O545 C530 1.268 . S
O546 Nd521 2.500 . S
O546 C531 1.258 . S
O547 Nd521 2.492 . S
O547 C531 1.239 . S
O548 Nd521 2.487 . S
O548 C538 1.241 . S
O549 Nd520 2.414 . S
O549 Nd521 2.682 . S
O549 C538 1.273 . S
O550 Nd521 2.410 . S
O550 C539 1.251 . S
O551 Nd520 2.424 . S
O551 C539 1.268 . S
H552 C524 0.930 . S
H553 C525 0.929 . S
H554 C527 0.930 . S
H555 C528 0.929 . S
H556 C533 0.930 . S
H557 C534 0.929 . S
H558 C536 0.930 . S
H559 C537 0.929 . S
Nd560 C562 2.836 . S
Nd560 O580 2.500 . S
Nd560 O581 2.492 . S
Nd560 O582 2.487 . S
Nd560 O583 2.682 . S
Nd560 O584 2.410 . S
Nd560 O589 2.414 . S
Nd560 O591 2.424 . S
Nd561 C571 2.836 . S
Nd561 O583 2.414 . S
Nd561 O585 2.424 . S
Nd561 O586 2.500 . S
Nd561 O587 2.492 . S
Nd561 O588 2.487 . S
Nd561 O589 2.682 . S
Nd561 O590 2.410 . S
C562 Nd560 2.836 . S
C562 C563 1.498 . S
C562 O580 1.258 . S
C562 O581 1.239 . S
C563 C562 1.498 . S
C563 C564 1.366 . S
C563 C568 1.407 1_545 S
C564 C563 1.366 . S
C564 C565 1.392 1_545 S
C564 H592 0.930 . S
C565 C564 1.392 1_565 S
C565 C566 1.398 . S
C565 H593 0.929 . S
C566 C565 1.398 . S
C566 C567 1.352 . S
C567 C566 1.352 . S
C567 C568 1.384 . S
C567 H594 0.930 . S
C568 C563 1.407 1_565 S
C568 C567 1.384 . S
C568 H595 0.929 . S
C569 O582 1.241 . S
C569 O583 1.273 . S
C570 O584 1.251 . S
C570 O585 1.268 . S
C571 Nd561 2.836 . S
C571 C572 1.498 . S
C571 O586 1.258 . S
C571 O587 1.239 . S
C572 C571 1.498 . S
C572 C573 1.366 . S
C572 C577 1.407 . S
C573 C572 1.366 . S
C573 C574 1.392 . S
C573 H596 0.930 . S
C574 C573 1.392 . S
C574 C575 1.398 . S
C574 H597 0.929 . S
C575 C574 1.398 . S
C575 C576 1.352 . S
C576 C575 1.352 . S
C576 C577 1.384 . S
C576 H598 0.930 . S
C577 C572 1.407 . S
C577 C576 1.384 . S
C577 H599 0.929 . S
C578 O588 1.241 . S
C578 O589 1.273 . S
C579 O590 1.251 . S
C579 O591 1.268 . S
O580 Nd560 2.500 . S
O580 C562 1.258 . S
O581 Nd560 2.492 . S
O581 C562 1.239 . S
O582 Nd560 2.487 . S
O582 C569 1.241 . S
O583 Nd560 2.682 . S
O583 Nd561 2.414 . S
O583 C569 1.273 . S
O584 Nd560 2.410 . S
O584 C570 1.251 . S
O585 Nd561 2.424 . S
O585 C570 1.268 . S
O586 Nd561 2.500 . S
O586 C571 1.258 . S
O587 Nd561 2.492 . S
O587 C571 1.239 . S
O588 Nd561 2.487 . S
O588 C578 1.241 . S
O589 Nd560 2.414 . S
O589 Nd561 2.682 . S
O589 C578 1.273 . S
O590 Nd561 2.410 . S
O590 C579 1.251 . S
O591 Nd560 2.424 . S
O591 C579 1.268 . S
H592 C564 0.930 . S
H593 C565 0.929 . S
H594 C567 0.930 . S
H595 C568 0.929 . S
H596 C573 0.930 . S
H597 C574 0.929 . S
H598 C576 0.930 . S
H599 C577 0.929 . S
Nd600 C602 2.836 . S
Nd600 O620 2.500 . S
Nd600 O621 2.492 . S
Nd600 O622 2.487 . S
Nd600 O623 2.682 . S
Nd600 O624 2.410 . S
Nd600 O629 2.414 . S
Nd600 O631 2.424 . S
Nd601 C611 2.836 . S
Nd601 O623 2.414 . S
Nd601 O625 2.424 . S
Nd601 O626 2.500 . S
Nd601 O627 2.492 . S
Nd601 O628 2.487 . S
Nd601 O629 2.682 . S
Nd601 O630 2.410 . S
C602 Nd600 2.836 . S
C602 C603 1.498 . S
C602 O620 1.258 . S
C602 O621 1.239 . S
C603 C602 1.498 . S
C603 C604 1.366 . S
C603 C608 1.407 . S
C604 C603 1.366 . S
C604 C605 1.392 . S
C604 H632 0.930 . S
C605 C604 1.392 . S
C605 C606 1.398 . S
C605 H633 0.929 . S
C606 C605 1.398 . S
C606 C607 1.352 . S
C607 C606 1.352 . S
C607 C608 1.384 . S
C607 H634 0.930 . S
C608 C603 1.407 . S
C608 C607 1.384 . S
C608 H635 0.929 . S
C609 O622 1.241 . S
C609 O623 1.273 . S
C610 O624 1.251 . S
C610 O625 1.268 . S
C611 Nd601 2.836 . S
C611 C612 1.498 . S
C611 O626 1.258 . S
C611 O627 1.239 . S
C612 C611 1.498 . S
C612 C613 1.366 . S
C612 C617 1.407 . S
C613 C612 1.366 . S
C613 C614 1.392 1_655 S
C613 H636 0.930 1_655 S
C614 C613 1.392 1_455 S
C614 C615 1.398 1_455 S
C614 H637 0.929 . S
C615 C614 1.398 1_655 S
C615 C616 1.352 . S
C616 C615 1.352 . S
C616 C617 1.384 . S
C616 H638 0.930 . S
C617 C612 1.407 . S
C617 C616 1.384 . S
C617 H639 0.929 . S
C618 O628 1.241 . S
C618 O629 1.273 . S
C619 O630 1.251 . S
C619 O631 1.268 . S
O620 Nd600 2.500 . S
O620 C602 1.258 . S
O621 Nd600 2.492 . S
O621 C602 1.239 . S
O622 Nd600 2.487 . S
O622 C609 1.241 . S
O623 Nd600 2.682 . S
O623 Nd601 2.414 . S
O623 C609 1.273 . S
O624 Nd600 2.410 . S
O624 C610 1.251 . S
O625 Nd601 2.424 . S
O625 C610 1.268 . S
O626 Nd601 2.500 . S
O626 C611 1.258 . S
O627 Nd601 2.492 . S
O627 C611 1.239 . S
O628 Nd601 2.487 . S
O628 C618 1.241 . S
O629 Nd600 2.414 . S
O629 Nd601 2.682 . S
O629 C618 1.273 . S
O630 Nd601 2.410 . S
O630 C619 1.251 . S
O631 Nd600 2.424 . S
O631 C619 1.268 . S
H632 C604 0.930 . S
H633 C605 0.929 . S
H634 C607 0.930 . S
H635 C608 0.929 . S
H636 C613 0.930 1_455 S
H637 C614 0.929 . S
H638 C616 0.930 . S
H639 C617 0.929 . S
Nd640 C642 2.836 . S
Nd640 O660 2.500 . S
Nd640 O661 2.492 . S
Nd640 O662 2.487 . S
Nd640 O663 2.682 . S
Nd640 O664 2.410 . S
Nd640 O669 2.414 . S
Nd640 O671 2.424 . S
Nd641 C651 2.836 . S
Nd641 O663 2.414 . S
Nd641 O665 2.424 . S
Nd641 O666 2.500 . S
Nd641 O667 2.492 . S
Nd641 O668 2.487 . S
Nd641 O669 2.682 . S
Nd641 O670 2.410 . S
C642 Nd640 2.836 . S
C642 C643 1.498 . S
C642 O660 1.258 . S
C642 O661 1.239 . S
C643 C642 1.498 . S
C643 C644 1.366 . S
C643 C648 1.407 . S
C644 C643 1.366 . S
C644 C645 1.392 . S
C644 H672 0.930 . S
C645 C644 1.392 . S
C645 C646 1.398 . S
C645 H673 0.929 . S
C646 C645 1.398 . S
C646 C647 1.352 . S
C647 C646 1.352 . S
C647 C648 1.384 . S
C647 H674 0.930 . S
C648 C643 1.407 . S
C648 C647 1.384 . S
C648 H675 0.929 . S
C649 O662 1.241 . S
C649 O663 1.273 . S
C650 O664 1.251 . S
C650 O665 1.268 . S
C651 Nd641 2.836 . S
C651 C652 1.498 . S
C651 O666 1.258 . S
C651 O667 1.239 . S
C652 C651 1.498 . S
C652 C653 1.366 . S
C652 C657 1.407 . S
C653 C652 1.366 . S
C653 C654 1.392 . S
C653 H676 0.930 . S
C654 C653 1.392 . S
C654 C655 1.398 . S
C654 H677 0.929 . S
C655 C654 1.398 . S
C655 C656 1.352 . S
C656 C655 1.352 . S
C656 C657 1.384 . S
C656 H678 0.930 . S
C657 C652 1.407 . S
C657 C656 1.384 . S
C657 H679 0.929 . S
C658 O668 1.241 . S
C658 O669 1.273 . S
C659 O670 1.251 . S
C659 O671 1.268 . S
O660 Nd640 2.500 . S
O660 C642 1.258 . S
O661 Nd640 2.492 . S
O661 C642 1.239 . S
O662 Nd640 2.487 . S
O662 C649 1.241 . S
O663 Nd640 2.682 . S
O663 Nd641 2.414 . S
O663 C649 1.273 . S
O664 Nd640 2.410 . S
O664 C650 1.251 . S
O665 Nd641 2.424 . S
O665 C650 1.268 . S
O666 Nd641 2.500 . S
O666 C651 1.258 . S
O667 Nd641 2.492 . S
O667 C651 1.239 . S
O668 Nd641 2.487 . S
O668 C658 1.241 . S
O669 Nd640 2.414 . S
O669 Nd641 2.682 . S
O669 C658 1.273 . S
O670 Nd641 2.410 . S
O670 C659 1.251 . S
O671 Nd640 2.424 . S
O671 C659 1.268 . S
H672 C644 0.930 . S
H673 C645 0.929 . S
H674 C647 0.930 . S
H675 C648 0.929 . S
H676 C653 0.930 . S
H677 C654 0.929 . S
H678 C656 0.930 . S
H679 C657 0.929 . S
Nd680 C682 2.836 . S
Nd680 O700 2.500 . S
Nd680 O701 2.492 . S
Nd680 O702 2.487 . S
Nd680 O703 2.682 . S
Nd680 O704 2.410 . S
Nd680 O709 2.414 . S
Nd680 O711 2.424 . S
Nd681 C691 2.836 . S
Nd681 O703 2.414 . S
Nd681 O705 2.424 . S
Nd681 O706 2.500 . S
Nd681 O707 2.492 . S
Nd681 O708 2.487 . S
Nd681 O709 2.682 . S
Nd681 O710 2.410 . S
C682 Nd680 2.836 . S
C682 C683 1.498 . S
C682 O700 1.258 . S
C682 O701 1.239 . S
C683 C682 1.498 . S
C683 C684 1.366 . S
C683 C688 1.407 . S
C684 C683 1.366 . S
C684 C685 1.392 . S
C684 H712 0.930 . S
C685 C684 1.392 . S
C685 C686 1.398 . S
C685 H713 0.929 . S
C686 C685 1.398 . S
C686 C687 1.352 . S
C687 C686 1.352 . S
C687 C688 1.384 . S
C687 H714 0.930 . S
C688 C683 1.407 . S
C688 C687 1.384 . S
C688 H715 0.929 . S
C689 O702 1.241 . S
C689 O703 1.273 . S
C690 O704 1.251 . S
C690 O705 1.268 . S
C691 Nd681 2.836 . S
C691 C692 1.498 . S
C691 O706 1.258 . S
C691 O707 1.239 . S
C692 C691 1.498 . S
C692 C693 1.366 . S
C692 C697 1.407 . S
C693 C692 1.366 . S
C693 C694 1.392 1_545 S
C693 H716 0.930 1_545 S
C694 C693 1.392 1_565 S
C694 C695 1.398 1_565 S
C694 H717 0.929 . S
C695 C694 1.398 1_545 S
C695 C696 1.352 . S
C696 C695 1.352 . S
C696 C697 1.384 . S
C696 H718 0.930 . S
C697 C692 1.407 . S
C697 C696 1.384 . S
C697 H719 0.929 . S
C698 O708 1.241 . S
C698 O709 1.273 . S
C699 O710 1.251 . S
C699 O711 1.268 . S
O700 Nd680 2.500 . S
O700 C682 1.258 . S
O701 Nd680 2.492 . S
O701 C682 1.239 . S
O702 Nd680 2.487 . S
O702 C689 1.241 . S
O703 Nd680 2.682 . S
O703 Nd681 2.414 . S
O703 C689 1.273 . S
O704 Nd680 2.410 . S
O704 C690 1.251 . S
O705 Nd681 2.424 . S
O705 C690 1.268 . S
O706 Nd681 2.500 . S
O706 C691 1.258 . S
O707 Nd681 2.492 . S
O707 C691 1.239 . S
O708 Nd681 2.487 . S
O708 C698 1.241 . S
O709 Nd680 2.414 . S
O709 Nd681 2.682 . S
O709 C698 1.273 . S
O710 Nd681 2.410 . S
O710 C699 1.251 . S
O711 Nd680 2.424 . S
O711 C699 1.268 . S
H712 C684 0.930 . S
H713 C685 0.929 . S
H714 C687 0.930 . S
H715 C688 0.929 . S
H716 C693 0.930 1_565 S
H717 C694 0.929 . S
H718 C696 0.930 . S
H719 C697 0.929 . S
Nd720 C722 2.836 . S
Nd720 O740 2.500 . S
Nd720 O741 2.492 . S
Nd720 O742 2.487 . S
Nd720 O743 2.682 . S
Nd720 O744 2.410 . S
Nd720 O749 2.414 . S
Nd720 O751 2.424 . S
Nd721 C731 2.836 1_545 S
Nd721 O743 2.414 . S
Nd721 O745 2.424 . S
Nd721 O746 2.500 1_545 S
Nd721 O747 2.492 1_545 S
Nd721 O748 2.487 . S
Nd721 O749 2.682 . S
Nd721 O750 2.410 . S
C722 Nd720 2.836 . S
C722 C723 1.498 . S
C722 O740 1.258 . S
C722 O741 1.239 . S
C723 C722 1.498 . S
C723 C724 1.366 . S
C723 C728 1.407 . S
C724 C723 1.366 . S
C724 C725 1.392 . S
C724 H752 0.930 . S
C725 C724 1.392 . S
C725 C726 1.398 . S
C725 H753 0.929 . S
C726 C725 1.398 . S
C726 C727 1.352 . S
C727 C726 1.352 . S
C727 C728 1.384 . S
C727 H754 0.930 . S
C728 C723 1.407 . S
C728 C727 1.384 . S
C728 H755 0.929 . S
C729 O742 1.241 . S
C729 O743 1.273 . S
C730 O744 1.251 . S
C730 O745 1.268 . S
C731 Nd721 2.836 1_565 S
C731 C732 1.498 . S
C731 O746 1.258 . S
C731 O747 1.239 . S
C732 C731 1.498 . S
C732 C733 1.366 . S
C732 C737 1.407 . S
C733 C732 1.366 . S
C733 C734 1.392 . S
C733 H756 0.930 . S
C734 C733 1.392 . S
C734 C735 1.398 . S
C734 H757 0.929 . S
C735 C734 1.398 . S
C735 C736 1.352 . S
C736 C735 1.352 . S
C736 C737 1.384 . S
C736 H758 0.930 . S
C737 C732 1.407 . S
C737 C736 1.384 . S
C737 H759 0.929 . S
C738 O748 1.241 . S
C738 O749 1.273 . S
C739 O750 1.251 . S
C739 O751 1.268 . S
O740 Nd720 2.500 . S
O740 C722 1.258 . S
O741 Nd720 2.492 . S
O741 C722 1.239 . S
O742 Nd720 2.487 . S
O742 C729 1.241 . S
O743 Nd720 2.682 . S
O743 Nd721 2.414 . S
O743 C729 1.273 . S
O744 Nd720 2.410 . S
O744 C730 1.251 . S
O745 Nd721 2.424 . S
O745 C730 1.268 . S
O746 Nd721 2.500 1_565 S
O746 C731 1.258 . S
O747 Nd721 2.492 1_565 S
O747 C731 1.239 . S
O748 Nd721 2.487 . S
O748 C738 1.241 . S
O749 Nd720 2.414 . S
O749 Nd721 2.682 . S
O749 C738 1.273 . S
O750 Nd721 2.410 . S
O750 C739 1.251 . S
O751 Nd720 2.424 . S
O751 C739 1.268 . S
H752 C724 0.930 . S
H753 C725 0.929 . S
H754 C727 0.930 . S
H755 C728 0.929 . S
H756 C733 0.930 . S
H757 C734 0.929 . S
H758 C736 0.930 . S
H759 C737 0.929 . S
Nd760 C762 2.836 . S
Nd760 O780 2.500 . S
Nd760 O781 2.492 . S
Nd760 O782 2.487 . S
Nd760 O783 2.682 . S
Nd760 O784 2.410 . S
Nd760 O789 2.414 . S
Nd760 O791 2.424 . S
Nd761 C771 2.836 1_655 S
Nd761 O783 2.414 . S
Nd761 O785 2.424 . S
Nd761 O786 2.500 1_655 S
Nd761 O787 2.492 1_655 S
Nd761 O788 2.487 . S
Nd761 O789 2.682 . S
Nd761 O790 2.410 . S
C762 Nd760 2.836 . S
C762 C763 1.498 . S
C762 O780 1.258 . S
C762 O781 1.239 . S
C763 C762 1.498 . S
C763 C764 1.366 . S
C763 C768 1.407 . S
C764 C763 1.366 . S
C764 C765 1.392 . S
C764 H792 0.930 . S
C765 C764 1.392 . S
C765 C766 1.398 . S
C765 H793 0.929 . S
C766 C765 1.398 . S
C766 C767 1.352 . S
C767 C766 1.352 . S
C767 C768 1.384 . S
C767 H794 0.930 . S
C768 C763 1.407 . S
C768 C767 1.384 . S
C768 H795 0.929 . S
C769 O782 1.241 . S
C769 O783 1.273 . S
C770 O784 1.251 . S
C770 O785 1.268 . S
C771 Nd761 2.836 1_455 S
C771 C772 1.498 . S
C771 O786 1.258 . S
C771 O787 1.239 . S
C772 C771 1.498 . S
C772 C773 1.366 . S
C772 C777 1.407 . S
C773 C772 1.366 . S
C773 C774 1.392 . S
C773 H796 0.930 . S
C774 C773 1.392 . S
C774 C775 1.398 . S
C774 H797 0.929 . S
C775 C774 1.398 . S
C775 C776 1.352 . S
C776 C775 1.352 . S
C776 C777 1.384 . S
C776 H798 0.930 . S
C777 C772 1.407 . S
C777 C776 1.384 . S
C777 H799 0.929 . S
C778 O788 1.241 . S
C778 O789 1.273 . S
C779 O790 1.251 . S
C779 O791 1.268 . S
O780 Nd760 2.500 . S
O780 C762 1.258 . S
O781 Nd760 2.492 . S
O781 C762 1.239 . S
O782 Nd760 2.487 . S
O782 C769 1.241 . S
O783 Nd760 2.682 . S
O783 Nd761 2.414 . S
O783 C769 1.273 . S
O784 Nd760 2.410 . S
O784 C770 1.251 . S
O785 Nd761 2.424 . S
O785 C770 1.268 . S
O786 Nd761 2.500 1_455 S
O786 C771 1.258 . S
O787 Nd761 2.492 1_455 S
O787 C771 1.239 . S
O788 Nd761 2.487 . S
O788 C778 1.241 . S
O789 Nd760 2.414 . S
O789 Nd761 2.682 . S
O789 C778 1.273 . S
O790 Nd761 2.410 . S
O790 C779 1.251 . S
O791 Nd760 2.424 . S
O791 C779 1.268 . S
H792 C764 0.930 . S
H793 C765 0.929 . S
H794 C767 0.930 . S
H795 C768 0.929 . S
H796 C773 0.930 . S
H797 C774 0.929 . S
H798 C776 0.930 . S
H799 C777 0.929 . S
Nd800 C802 2.836 . S
Nd800 O820 2.500 . S
Nd800 O821 2.492 . S
Nd800 O822 2.487 . S
Nd800 O823 2.682 . S
Nd800 O824 2.410 . S
Nd800 O829 2.414 . S
Nd800 O831 2.424 . S
Nd801 C811 2.836 . S
Nd801 O823 2.414 . S
Nd801 O825 2.424 . S
Nd801 O826 2.500 . S
Nd801 O827 2.492 . S
Nd801 O828 2.487 . S
Nd801 O829 2.682 . S
Nd801 O830 2.410 . S
C802 Nd800 2.836 . S
C802 C803 1.498 . S
C802 O820 1.258 . S
C802 O821 1.239 . S
C803 C802 1.498 . S
C803 C804 1.366 . S
C803 C808 1.407 . S
C804 C803 1.366 . S
C804 C805 1.392 . S
C804 H832 0.930 . S
C805 C804 1.392 . S
C805 C806 1.398 . S
C805 H833 0.929 . S
C806 C805 1.398 . S
C806 C807 1.352 . S
C807 C806 1.352 . S
C807 C808 1.384 . S
C807 H834 0.930 . S
C808 C803 1.407 . S
C808 C807 1.384 . S
C808 H835 0.929 . S
C809 O822 1.241 . S
C809 O823 1.273 . S
C810 O824 1.251 . S
C810 O825 1.268 . S
C811 Nd801 2.836 . S
C811 C812 1.498 . S
C811 O826 1.258 . S
C811 O827 1.239 . S
C812 C811 1.498 . S
C812 C813 1.366 . S
C812 C817 1.407 . S
C813 C812 1.366 . S
C813 C814 1.392 . S
C813 H836 0.930 . S
C814 C813 1.392 . S
C814 C815 1.398 . S
C814 H837 0.929 . S
C815 C814 1.398 . S
C815 C816 1.352 . S
C816 C815 1.352 . S
C816 C817 1.384 . S
C816 H838 0.930 . S
C817 C812 1.407 . S
C817 C816 1.384 . S
C817 H839 0.929 . S
C818 O828 1.241 . S
C818 O829 1.273 . S
C819 O830 1.251 . S
C819 O831 1.268 . S
O820 Nd800 2.500 . S
O820 C802 1.258 . S
O821 Nd800 2.492 . S
O821 C802 1.239 . S
O822 Nd800 2.487 . S
O822 C809 1.241 . S
O823 Nd800 2.682 . S
O823 Nd801 2.414 . S
O823 C809 1.273 . S
O824 Nd800 2.410 . S
O824 C810 1.251 . S
O825 Nd801 2.424 . S
O825 C810 1.268 . S
O826 Nd801 2.500 . S
O826 C811 1.258 . S
O827 Nd801 2.492 . S
O827 C811 1.239 . S
O828 Nd801 2.487 . S
O828 C818 1.241 . S
O829 Nd800 2.414 . S
O829 Nd801 2.682 . S
O829 C818 1.273 . S
O830 Nd801 2.410 . S
O830 C819 1.251 . S
O831 Nd800 2.424 . S
O831 C819 1.268 . S
H832 C804 0.930 . S
H833 C805 0.929 . S
H834 C807 0.930 . S
H835 C808 0.929 . S
H836 C813 0.930 . S
H837 C814 0.929 . S
H838 C816 0.930 . S
H839 C817 0.929 . S
Nd840 C842 2.836 . S
Nd840 O860 2.500 . S
Nd840 O861 2.492 . S
Nd840 O862 2.487 . S
Nd840 O863 2.682 1_556 S
Nd840 O864 2.410 . S
Nd840 O869 2.414 . S
Nd840 O871 2.424 . S
Nd841 C851 2.836 . S
Nd841 O863 2.414 . S
Nd841 O865 2.424 . S
Nd841 O866 2.500 . S
Nd841 O867 2.492 . S
Nd841 O868 2.487 . S
Nd841 O869 2.682 1_554 S
Nd841 O870 2.410 . S
C842 Nd840 2.836 . S
C842 C843 1.498 . S
C842 O860 1.258 . S
C842 O861 1.239 . S
C843 C842 1.498 . S
C843 C844 1.366 . S
C843 C848 1.407 . S
C844 C843 1.366 . S
C844 C845 1.392 . S
C844 H872 0.930 . S
C845 C844 1.392 . S
C845 C846 1.398 . S
C845 H873 0.929 . S
C846 C845 1.398 . S
C846 C847 1.352 . S
C847 C846 1.352 . S
C847 C848 1.384 . S
C847 H874 0.930 . S
C848 C843 1.407 . S
C848 C847 1.384 . S
C848 H875 0.929 . S
C849 O862 1.241 . S
C849 O863 1.273 1_556 S
C850 O864 1.251 . S
C850 O865 1.268 1_556 S
C851 Nd841 2.836 . S
C851 C852 1.498 . S
C851 O866 1.258 . S
C851 O867 1.239 . S
C852 C851 1.498 . S
C852 C853 1.366 . S
C852 C857 1.407 . S
C853 C852 1.366 . S
C853 C854 1.392 . S
C853 H876 0.930 . S
C854 C853 1.392 . S
C854 C855 1.398 . S
C854 H877 0.929 . S
C855 C854 1.398 . S
C855 C856 1.352 . S
C856 C855 1.352 . S
C856 C857 1.384 . S
C856 H878 0.930 . S
C857 C852 1.407 . S
C857 C856 1.384 . S
C857 H879 0.929 . S
C858 O868 1.320 . S
C858 O869 1.236 1_554 S
C859 O870 1.251 . S
C859 O871 1.268 1_554 S
O860 Nd840 2.500 . S
O860 C842 1.258 . S
O861 Nd840 2.492 . S
O861 C842 1.239 . S
O862 Nd840 2.487 . S
O862 C849 1.241 . S
O863 Nd840 2.682 1_554 S
O863 Nd841 2.414 . S
O863 C849 1.273 1_554 S
O864 Nd840 2.410 . S
O864 C850 1.251 . S
O865 Nd841 2.424 . S
O865 C850 1.268 1_554 S
O866 Nd841 2.500 . S
O866 C851 1.258 . S
O867 Nd841 2.492 . S
O867 C851 1.239 . S
O868 Nd841 2.487 . S
O868 C858 1.320 . S
O869 Nd840 2.414 . S
O869 Nd841 2.682 1_556 S
O869 C858 1.236 1_556 S
O870 Nd841 2.410 . S
O870 C859 1.251 . S
O871 Nd840 2.424 . S
O871 C859 1.268 1_556 S
H872 C844 0.930 . S
H873 C845 0.929 . S
H874 C847 0.930 . S
H875 C848 0.929 . S
H876 C853 0.930 . S
H877 C854 0.929 . S
H878 C856 0.930 . S
H879 C857 0.929 . S
Nd880 C882 2.836 . S
Nd880 O900 2.500 . S
Nd880 O901 2.492 . S
Nd880 O902 2.487 . S
Nd880 O903 2.682 1_556 S
Nd880 O904 2.410 . S
Nd880 O909 2.414 . S
Nd880 O911 2.424 . S
Nd881 C891 2.836 . S
Nd881 O903 2.414 . S
Nd881 O905 2.424 . S
Nd881 O906 2.500 . S
Nd881 O907 2.492 . S
Nd881 O908 2.487 . S
Nd881 O909 2.682 1_554 S
Nd881 O910 2.410 . S
C882 Nd880 2.836 . S
C882 C883 1.498 . S
C882 O900 1.258 . S
C882 O901 1.239 . S
C883 C882 1.498 . S
C883 C884 1.366 . S
C883 C888 1.407 . S
C884 C883 1.366 . S
C884 C885 1.392 . S
C884 H912 0.930 . S
C885 C884 1.392 . S
C885 C886 1.398 . S
C885 H913 0.929 . S
C886 C885 1.398 . S
C886 C887 1.352 . S
C887 C886 1.352 . S
C887 C888 1.384 . S
C887 H914 0.930 . S
C888 C883 1.407 . S
C888 C887 1.384 . S
C888 H915 0.929 . S
C889 O902 1.241 . S
C889 O903 1.273 1_556 S
C890 O904 1.251 . S
C890 O905 1.268 1_556 S
C891 Nd881 2.836 . S
C891 C892 1.498 . S
C891 O906 1.258 . S
C891 O907 1.239 . S
C892 C891 1.498 . S
C892 C893 1.366 . S
C892 C897 1.407 . S
C893 C892 1.366 . S
C893 C894 1.392 . S
C893 H916 0.930 . S
C894 C893 1.392 . S
C894 C895 1.398 . S
C894 H917 0.929 . S
C895 C894 1.398 . S
C895 C896 1.352 . S
C896 C895 1.352 . S
C896 C897 1.384 . S
C896 H918 0.930 . S
C897 C892 1.407 . S
C897 C896 1.384 . S
C897 H919 0.929 . S
C898 O908 1.320 . S
C898 O909 1.236 1_554 S
C899 O910 1.251 . S
C899 O911 1.268 1_554 S
O900 Nd880 2.500 . S
O900 C882 1.258 . S
O901 Nd880 2.492 . S
O901 C882 1.239 . S
O902 Nd880 2.487 . S
O902 C889 1.241 . S
O903 Nd880 2.682 1_554 S
O903 Nd881 2.414 . S
O903 C889 1.273 1_554 S
O904 Nd880 2.410 . S
O904 C890 1.251 . S
O905 Nd881 2.424 . S
O905 C890 1.268 1_554 S
O906 Nd881 2.500 . S
O906 C891 1.258 . S
O907 Nd881 2.492 . S
O907 C891 1.239 . S
O908 Nd881 2.487 . S
O908 C898 1.320 . S
O909 Nd880 2.414 . S
O909 Nd881 2.682 1_556 S
O909 C898 1.236 1_556 S
O910 Nd881 2.410 . S
O910 C899 1.251 . S
O911 Nd880 2.424 . S
O911 C899 1.268 1_556 S
H912 C884 0.930 . S
H913 C885 0.929 . S
H914 C887 0.930 . S
H915 C888 0.929 . S
H916 C893 0.930 . S
H917 C894 0.929 . S
H918 C896 0.930 . S
H919 C897 0.929 . S
Nd920 C922 2.836 . S
Nd920 O940 2.500 . S
Nd920 O941 2.492 . S
Nd920 O942 2.487 . S
Nd920 O943 2.682 1_556 S
Nd920 O944 2.410 . S
Nd920 O949 2.414 . S
Nd920 O951 2.424 . S
Nd921 C931 2.836 . S
Nd921 O943 2.414 . S
Nd921 O945 2.424 . S
Nd921 O946 2.500 . S
Nd921 O947 2.492 . S
Nd921 O948 2.487 . S
Nd921 O949 2.682 1_554 S
Nd921 O950 2.410 . S
C922 Nd920 2.836 . S
C922 C923 1.498 . S
C922 O940 1.258 . S
C922 O941 1.239 . S
C923 C922 1.498 . S
C923 C924 1.366 . S
C923 C928 1.407 . S
C924 C923 1.366 . S
C924 C925 1.392 . S
C924 H952 0.930 . S
C925 C924 1.392 . S
C925 C926 1.398 . S
C925 H953 0.929 . S
C926 C925 1.398 . S
C926 C927 1.352 . S
C927 C926 1.352 . S
C927 C928 1.384 . S
C927 H954 0.930 . S
C928 C923 1.407 . S
C928 C927 1.384 . S
C928 H955 0.929 . S
C929 O942 1.241 . S
C929 O943 1.273 1_556 S
C930 O944 1.251 . S
C930 O945 1.268 1_556 S
C931 Nd921 2.836 . S
C931 C932 1.498 . S
C931 O946 1.258 . S
C931 O947 1.239 . S
C932 C931 1.498 . S
C932 C933 1.366 . S
C932 C937 1.407 . S
C933 C932 1.366 . S
C933 C934 1.392 . S
C933 H956 0.930 . S
C934 C933 1.392 . S
C934 C935 1.398 . S
C934 H957 0.929 . S
C935 C934 1.398 . S
C935 C936 1.352 . S
C936 C935 1.352 . S
C936 C937 1.384 . S
C936 H958 0.930 . S
C937 C932 1.407 . S
C937 C936 1.384 . S
C937 H959 0.929 . S
C938 O948 1.320 . S
C938 O949 1.235 1_554 S
C939 O950 1.251 . S
C939 O951 1.268 1_554 S
O940 Nd920 2.500 . S
O940 C922 1.258 . S
O941 Nd920 2.492 . S
O941 C922 1.239 . S
O942 Nd920 2.487 . S
O942 C929 1.241 . S
O943 Nd920 2.682 1_554 S
O943 Nd921 2.414 . S
O943 C929 1.273 1_554 S
O944 Nd920 2.410 . S
O944 C930 1.251 . S
O945 Nd921 2.424 . S
O945 C930 1.268 1_554 S
O946 Nd921 2.500 . S
O946 C931 1.258 . S
O947 Nd921 2.492 . S
O947 C931 1.239 . S
O948 Nd921 2.487 . S
O948 C938 1.320 . S
O949 Nd920 2.414 . S
O949 Nd921 2.682 1_556 S
O949 C938 1.235 1_556 S
O950 Nd921 2.410 . S
O950 C939 1.251 . S
O951 Nd920 2.424 . S
O951 C939 1.268 1_556 S
H952 C924 0.930 . S
H953 C925 0.929 . S
H954 C927 0.930 . S
H955 C928 0.929 . S
H956 C933 0.930 . S
H957 C934 0.929 . S
H958 C936 0.930 . S
H959 C937 0.929 . S
Nd960 C962 2.836 1_565 S
Nd960 O980 2.500 1_565 S
Nd960 O981 2.492 1_565 S
Nd960 O982 2.487 . S
Nd960 O983 2.682 . S
Nd960 O984 2.410 . S
Nd960 O989 2.414 . S
Nd960 O991 2.424 . S
Nd961 C971 2.836 . S
Nd961 O983 2.414 . S
Nd961 O985 2.424 . S
Nd961 O986 2.500 . S
Nd961 O987 2.492 . S
Nd961 O988 2.487 . S
Nd961 O989 2.682 . S
Nd961 O990 2.410 . S
C962 Nd960 2.836 1_545 S
C962 C963 1.498 . S
C962 O980 1.258 . S
C962 O981 1.239 . S
C963 C962 1.498 . S
C963 C964 1.366 . S
C963 C968 1.407 . S
C964 C963 1.366 . S
C964 C965 1.392 . S
C964 H992 0.930 . S
C965 C964 1.392 . S
C965 C966 1.398 . S
C965 H993 0.929 . S
C966 C965 1.398 . S
C966 C967 1.352 . S
C967 C966 1.352 . S
C967 C968 1.384 . S
C967 H994 0.930 . S
C968 C963 1.407 . S
C968 C967 1.384 . S
C968 H995 0.929 . S
C969 O982 1.241 . S
C969 O983 1.273 . S
C970 O984 1.251 . S
C970 O985 1.268 . S
C971 Nd961 2.836 . S
C971 C972 1.498 . S
C971 O986 1.258 . S
C971 O987 1.239 . S
C972 C971 1.498 . S
C972 C973 1.366 . S
C972 C977 1.407 . S
C973 C972 1.366 . S
C973 C974 1.392 . S
C973 H996 0.930 . S
C974 C973 1.392 . S
C974 C975 1.398 . S
C974 H997 0.929 . S
C975 C974 1.398 . S
C975 C976 1.352 . S
C976 C975 1.352 . S
C976 C977 1.384 . S
C976 H998 0.930 . S
C977 C972 1.407 . S
C977 C976 1.384 . S
C977 H999 0.929 . S
C978 O988 1.241 . S
C978 O989 1.273 . S
C979 O990 1.251 . S
C979 O991 1.268 . S
O980 Nd960 2.500 1_545 S
O980 C962 1.258 . S
O981 Nd960 2.492 1_545 S
O981 C962 1.239 . S
O982 Nd960 2.487 . S
O982 C969 1.241 . S
O983 Nd960 2.682 . S
O983 Nd961 2.414 . S
O983 C969 1.273 . S
O984 Nd960 2.410 . S
O984 C970 1.251 . S
O985 Nd961 2.424 . S
O985 C970 1.268 . S
O986 Nd961 2.500 . S
O986 C971 1.258 . S
O987 Nd961 2.492 . S
O987 C971 1.239 . S
O988 Nd961 2.487 . S
O988 C978 1.241 . S
O989 Nd960 2.414 . S
O989 Nd961 2.682 . S
O989 C978 1.273 . S
O990 Nd961 2.410 . S
O990 C979 1.251 . S
O991 Nd960 2.424 . S
O991 C979 1.268 . S
H992 C964 0.930 . S
H993 C965 0.929 . S
H994 C967 0.930 . S
H995 C968 0.929 . S
H996 C973 0.930 . S
H997 C974 0.929 . S
H998 C976 0.930 . S
H999 C977 0.929 . S
Nd1000 C1002 2.836 1_455 S
Nd1000 O1020 2.500 1_455 S
Nd1000 O1021 2.492 1_455 S
Nd1000 O1022 2.487 . S
Nd1000 O1023 2.682 . S
Nd1000 O1024 2.410 . S
Nd1000 O1029 2.414 . S
Nd1000 O1031 2.424 . S
Nd1001 C1011 2.836 . S
Nd1001 O1023 2.414 . S
Nd1001 O1025 2.424 . S
Nd1001 O1026 2.500 . S
Nd1001 O1027 2.492 . S
Nd1001 O1028 2.487 . S
Nd1001 O1029 2.682 . S
Nd1001 O1030 2.410 . S
C1002 Nd1000 2.836 1_655 S
C1002 C1003 1.498 . S
C1002 O1020 1.258 . S
C1002 O1021 1.239 . S
C1003 C1002 1.498 . S
C1003 C1004 1.366 . S
C1003 C1008 1.407 . S
C1004 C1003 1.366 . S
C1004 C1005 1.392 . S
C1004 H1032 0.930 . S
C1005 C1004 1.392 . S
C1005 C1006 1.398 . S
C1005 H1033 0.929 . S
C1006 C1005 1.398 . S
C1006 C1007 1.352 . S
C1007 C1006 1.352 . S
C1007 C1008 1.384 . S
C1007 H1034 0.930 . S
C1008 C1003 1.407 . S
C1008 C1007 1.384 . S
C1008 H1035 0.929 . S
C1009 O1022 1.241 . S
C1009 O1023 1.273 . S
C1010 O1024 1.251 . S
C1010 O1025 1.268 . S
C1011 Nd1001 2.836 . S
C1011 C1012 1.498 . S
C1011 O1026 1.258 . S
C1011 O1027 1.239 . S
C1012 C1011 1.498 . S
C1012 C1013 1.366 . S
C1012 C1017 1.407 . S
C1013 C1012 1.366 . S
C1013 C1014 1.392 . S
C1013 H1036 0.930 . S
C1014 C1013 1.392 . S
C1014 C1015 1.398 . S
C1014 H1037 0.929 . S
C1015 C1014 1.398 . S
C1015 C1016 1.352 . S
C1016 C1015 1.352 . S
C1016 C1017 1.384 . S
C1016 H1038 0.930 . S
C1017 C1012 1.407 . S
C1017 C1016 1.384 . S
C1017 H1039 0.929 . S
C1018 O1028 1.241 . S
C1018 O1029 1.273 . S
C1019 O1030 1.251 . S
C1019 O1031 1.268 . S
O1020 Nd1000 2.500 1_655 S
O1020 C1002 1.258 . S
O1021 Nd1000 2.492 1_655 S
O1021 C1002 1.239 . S
O1022 Nd1000 2.487 . S
O1022 C1009 1.241 . S
O1023 Nd1000 2.682 . S
O1023 Nd1001 2.414 . S
O1023 C1009 1.273 . S
O1024 Nd1000 2.410 . S
O1024 C1010 1.251 . S
O1025 Nd1001 2.424 . S
O1025 C1010 1.268 . S
O1026 Nd1001 2.500 . S
O1026 C1011 1.258 . S
O1027 Nd1001 2.492 . S
O1027 C1011 1.239 . S
O1028 Nd1001 2.487 . S
O1028 C1018 1.241 . S
O1029 Nd1000 2.414 . S
O1029 Nd1001 2.682 . S
O1029 C1018 1.273 . S
O1030 Nd1001 2.410 . S
O1030 C1019 1.251 . S
O1031 Nd1000 2.424 . S
O1031 C1019 1.268 . S
H1032 C1004 0.930 . S
H1033 C1005 0.929 . S
H1034 C1007 0.930 . S
H1035 C1008 0.929 . S
H1036 C1013 0.930 . S
H1037 C1014 0.929 . S
H1038 C1016 0.930 . S
H1039 C1017 0.929 . S
Nd1040 C1042 2.836 . S
Nd1040 O1060 2.500 . S
Nd1040 O1061 2.492 . S
Nd1040 O1062 2.487 . S
Nd1040 O1063 2.682 . S
Nd1040 O1064 2.410 . S
Nd1040 O1069 2.414 . S
Nd1040 O1071 2.424 . S
Nd1041 C1051 2.836 . S
Nd1041 O1063 2.414 . S
Nd1041 O1065 2.424 . S
Nd1041 O1066 2.500 . S
Nd1041 O1067 2.492 . S
Nd1041 O1068 2.487 . S
Nd1041 O1069 2.682 . S
Nd1041 O1070 2.410 . S
C1042 Nd1040 2.836 . S
C1042 C1043 1.498 . S
C1042 O1060 1.258 . S
C1042 O1061 1.239 . S
C1043 C1042 1.498 . S
C1043 C1044 1.366 . S
C1043 C1048 1.407 . S
C1044 C1043 1.366 . S
C1044 C1045 1.392 . S
C1044 H1072 0.930 . S
C1045 C1044 1.392 . S
C1045 C1046 1.398 . S
C1045 H1073 0.929 . S
C1046 C1045 1.398 . S
C1046 C1047 1.352 . S
C1047 C1046 1.352 . S
C1047 C1048 1.384 . S
C1047 H1074 0.930 . S
C1048 C1043 1.407 . S
C1048 C1047 1.384 . S
C1048 H1075 0.929 . S
C1049 O1062 1.241 . S
C1049 O1063 1.273 . S
C1050 O1064 1.251 . S
C1050 O1065 1.268 . S
C1051 Nd1041 2.836 . S
C1051 C1052 1.498 . S
C1051 O1066 1.258 . S
C1051 O1067 1.239 . S
C1052 C1051 1.498 . S
C1052 C1053 1.366 . S
C1052 C1057 1.407 . S
C1053 C1052 1.366 . S
C1053 C1054 1.392 . S
C1053 H1076 0.930 . S
C1054 C1053 1.392 . S
C1054 C1055 1.398 . S
C1054 H1077 0.929 . S
C1055 C1054 1.398 . S
C1055 C1056 1.352 . S
C1056 C1055 1.352 . S
C1056 C1057 1.384 . S
C1056 H1078 0.930 . S
C1057 C1052 1.407 . S
C1057 C1056 1.384 . S
C1057 H1079 0.929 . S
C1058 O1068 1.241 . S
C1058 O1069 1.273 . S
C1059 O1070 1.251 . S
C1059 O1071 1.268 . S
O1060 Nd1040 2.500 . S
O1060 C1042 1.258 . S
O1061 Nd1040 2.492 . S
O1061 C1042 1.239 . S
O1062 Nd1040 2.487 . S
O1062 C1049 1.241 . S
O1063 Nd1040 2.682 . S
O1063 Nd1041 2.414 . S
O1063 C1049 1.273 . S
O1064 Nd1040 2.410 . S
O1064 C1050 1.251 . S
O1065 Nd1041 2.424 . S
O1065 C1050 1.268 . S
O1066 Nd1041 2.500 . S
O1066 C1051 1.258 . S
O1067 Nd1041 2.492 . S
O1067 C1051 1.239 . S
O1068 Nd1041 2.487 . S
O1068 C1058 1.241 . S
O1069 Nd1040 2.414 . S
O1069 Nd1041 2.682 . S
O1069 C1058 1.273 . S
O1070 Nd1041 2.410 . S
O1070 C1059 1.251 . S
O1071 Nd1040 2.424 . S
O1071 C1059 1.268 . S
H1072 C1044 0.930 . S
H1073 C1045 0.929 . S
H1074 C1047 0.930 . S
H1075 C1048 0.929 . S
H1076 C1053 0.930 . S
H1077 C1054 0.929 . S
H1078 C1056 0.930 . S
H1079 C1057 0.929 . S
Nd1080 C1082 2.836 . S
Nd1080 O1100 2.500 . S
Nd1080 O1101 2.492 . S
Nd1080 O1102 2.487 . S
Nd1080 O1103 2.682 1_556 S
Nd1080 O1104 2.410 . S
Nd1080 O1109 2.414 . S
Nd1080 O1111 2.424 . S
Nd1081 C1091 2.836 . S
Nd1081 O1103 2.414 . S
Nd1081 O1105 2.424 . S
Nd1081 O1106 2.500 . S
Nd1081 O1107 2.492 . S
Nd1081 O1108 2.487 . S
Nd1081 O1109 2.682 1_554 S
Nd1081 O1110 2.410 . S
C1082 Nd1080 2.836 . S
C1082 C1083 1.498 . S
C1082 O1100 1.258 . S
C1082 O1101 1.239 . S
C1083 C1082 1.498 . S
C1083 C1084 1.366 . S
C1083 C1088 1.407 . S
C1084 C1083 1.366 . S
C1084 C1085 1.392 . S
C1084 H1112 0.930 . S
C1085 C1084 1.392 . S
C1085 C1086 1.398 . S
C1085 H1113 0.929 . S
C1086 C1085 1.398 . S
C1086 C1087 1.352 . S
C1087 C1086 1.352 . S
C1087 C1088 1.384 . S
C1087 H1114 0.930 . S
C1088 C1083 1.407 . S
C1088 C1087 1.384 . S
C1088 H1115 0.929 . S
C1089 O1102 1.320 . S
C1089 O1103 1.236 1_556 S
C1090 O1104 1.251 . S
C1090 O1105 1.268 1_556 S
C1091 Nd1081 2.836 . S
C1091 C1092 1.498 . S
C1091 O1106 1.258 . S
C1091 O1107 1.239 . S
C1092 C1091 1.498 . S
C1092 C1093 1.366 . S
C1092 C1097 1.407 . S
C1093 C1092 1.366 . S
C1093 C1094 1.392 . S
C1093 H1116 0.930 . S
C1094 C1093 1.392 . S
C1094 C1095 1.398 . S
C1094 H1117 0.929 . S
C1095 C1094 1.398 . S
C1095 C1096 1.352 . S
C1096 C1095 1.352 . S
C1096 C1097 1.384 . S
C1096 H1118 0.930 . S
C1097 C1092 1.407 . S
C1097 C1096 1.384 . S
C1097 H1119 0.929 . S
C1098 O1108 1.241 . S
C1098 O1109 1.273 1_554 S
C1099 O1110 1.251 . S
C1099 O1111 1.268 1_554 S
O1100 Nd1080 2.500 . S
O1100 C1082 1.258 . S
O1101 Nd1080 2.492 . S
O1101 C1082 1.239 . S
O1102 Nd1080 2.487 . S
O1102 C1089 1.320 . S
O1103 Nd1080 2.682 1_554 S
O1103 Nd1081 2.414 . S
O1103 C1089 1.236 1_554 S
O1104 Nd1080 2.410 . S
O1104 C1090 1.251 . S
O1105 Nd1081 2.424 . S
O1105 C1090 1.268 1_554 S
O1106 Nd1081 2.500 . S
O1106 C1091 1.258 . S
O1107 Nd1081 2.492 . S
O1107 C1091 1.239 . S
O1108 Nd1081 2.487 . S
O1108 C1098 1.241 . S
O1109 Nd1080 2.414 . S
O1109 Nd1081 2.682 1_556 S
O1109 C1098 1.273 1_556 S
O1110 Nd1081 2.410 . S
O1110 C1099 1.251 . S
O1111 Nd1080 2.424 . S
O1111 C1099 1.268 1_556 S
H1112 C1084 0.930 . S
H1113 C1085 0.929 . S
H1114 C1087 0.930 . S
H1115 C1088 0.929 . S
H1116 C1093 0.930 . S
H1117 C1094 0.929 . S
H1118 C1096 0.930 . S
H1119 C1097 0.929 . S
Nd1120 C1122 2.836 . S
Nd1120 O1140 2.500 . S
Nd1120 O1141 2.492 . S
Nd1120 O1142 2.487 . S
Nd1120 O1143 2.682 1_556 S
Nd1120 O1144 2.410 . S
Nd1120 O1149 2.414 . S
Nd1120 O1151 2.424 . S
Nd1121 C1131 2.836 . S
Nd1121 O1143 2.414 . S
Nd1121 O1145 2.424 . S
Nd1121 O1146 2.500 . S
Nd1121 O1147 2.492 . S
Nd1121 O1148 2.487 . S
Nd1121 O1149 2.682 1_554 S
Nd1121 O1150 2.410 . S
C1122 Nd1120 2.836 . S
C1122 C1123 1.498 . S
C1122 O1140 1.258 . S
C1122 O1141 1.239 . S
C1123 C1122 1.498 . S
C1123 C1124 1.366 . S
C1123 C1128 1.407 . S
C1124 C1123 1.366 . S
C1124 C1125 1.392 . S
C1124 H1152 0.930 . S
C1125 C1124 1.392 . S
C1125 C1126 1.398 . S
C1125 H1153 0.929 . S
C1126 C1125 1.398 . S
C1126 C1127 1.352 . S
C1127 C1126 1.352 . S
C1127 C1128 1.384 . S
C1127 H1154 0.930 . S
C1128 C1123 1.407 . S
C1128 C1127 1.384 . S
C1128 H1155 0.929 . S
C1129 O1142 1.320 . S
C1129 O1143 1.235 1_556 S
C1130 O1144 1.251 . S
C1130 O1145 1.268 1_556 S
C1131 Nd1121 2.836 . S
C1131 C1132 1.498 . S
C1131 O1146 1.258 . S
C1131 O1147 1.239 . S
C1132 C1131 1.498 . S
C1132 C1133 1.366 . S
C1132 C1137 1.407 . S
C1133 C1132 1.366 . S
C1133 C1134 1.392 . S
C1133 H1156 0.930 . S
C1134 C1133 1.392 . S
C1134 C1135 1.398 . S
C1134 H1157 0.929 . S
C1135 C1134 1.398 . S
C1135 C1136 1.352 . S
C1136 C1135 1.352 . S
C1136 C1137 1.384 . S
C1136 H1158 0.930 . S
C1137 C1132 1.407 . S
C1137 C1136 1.384 . S
C1137 H1159 0.929 . S
C1138 O1148 1.241 . S
C1138 O1149 1.273 1_554 S
C1139 O1150 1.251 . S
C1139 O1151 1.268 1_554 S
O1140 Nd1120 2.500 . S
O1140 C1122 1.258 . S
O1141 Nd1120 2.492 . S
O1141 C1122 1.239 . S
O1142 Nd1120 2.487 . S
O1142 C1129 1.320 . S
O1143 Nd1120 2.682 1_554 S
O1143 Nd1121 2.414 . S
O1143 C1129 1.235 1_554 S
O1144 Nd1120 2.410 . S
O1144 C1130 1.251 . S
O1145 Nd1121 2.424 . S
O1145 C1130 1.268 1_554 S
O1146 Nd1121 2.500 . S
O1146 C1131 1.258 . S
O1147 Nd1121 2.492 . S
O1147 C1131 1.239 . S
O1148 Nd1121 2.487 . S
O1148 C1138 1.241 . S
O1149 Nd1120 2.414 . S
O1149 Nd1121 2.682 1_556 S
O1149 C1138 1.273 1_556 S
O1150 Nd1121 2.410 . S
O1150 C1139 1.251 . S
O1151 Nd1120 2.424 . S
O1151 C1139 1.268 1_556 S
H1152 C1124 0.930 . S
H1153 C1125 0.929 . S
H1154 C1127 0.930 . S
H1155 C1128 0.929 . S
H1156 C1133 0.930 . S
H1157 C1134 0.929 . S
H1158 C1136 0.930 . S
H1159 C1137 0.929 . S
Nd1160 C1162 2.836 . S
Nd1160 O1180 2.500 . S
Nd1160 O1181 2.492 . S
Nd1160 O1182 2.487 . S
Nd1160 O1183 2.682 1_556 S
Nd1160 O1184 2.410 . S
Nd1160 O1189 2.414 . S
Nd1160 O1191 2.424 . S
Nd1161 C1171 2.836 . S
Nd1161 O1183 2.414 . S
Nd1161 O1185 2.424 . S
Nd1161 O1186 2.500 . S
Nd1161 O1187 2.492 . S
Nd1161 O1188 2.487 . S
Nd1161 O1189 2.682 1_554 S
Nd1161 O1190 2.410 . S
C1162 Nd1160 2.836 . S
C1162 C1163 1.498 . S
C1162 O1180 1.258 . S
C1162 O1181 1.239 . S
C1163 C1162 1.498 . S
C1163 C1164 1.366 . S
C1163 C1168 1.407 . S
C1164 C1163 1.366 . S
C1164 C1165 1.392 . S
C1164 H1192 0.930 . S
C1165 C1164 1.392 . S
C1165 C1166 1.398 . S
C1165 H1193 0.929 . S
C1166 C1165 1.398 . S
C1166 C1167 1.352 . S
C1167 C1166 1.352 . S
C1167 C1168 1.384 . S
C1167 H1194 0.930 . S
C1168 C1163 1.407 . S
C1168 C1167 1.384 . S
C1168 H1195 0.929 . S
C1169 O1182 1.320 . S
C1169 O1183 1.236 1_556 S
C1170 O1184 1.251 . S
C1170 O1185 1.268 1_556 S
C1171 Nd1161 2.836 . S
C1171 C1172 1.498 . S
C1171 O1186 1.258 . S
C1171 O1187 1.239 . S
C1172 C1171 1.498 . S
C1172 C1173 1.366 . S
C1172 C1177 1.407 . S
C1173 C1172 1.366 . S
C1173 C1174 1.392 . S
C1173 H1196 0.930 . S
C1174 C1173 1.392 . S
C1174 C1175 1.398 . S
C1174 H1197 0.929 . S
C1175 C1174 1.398 . S
C1175 C1176 1.352 . S
C1176 C1175 1.352 . S
C1176 C1177 1.384 . S
C1176 H1198 0.930 . S
C1177 C1172 1.407 . S
C1177 C1176 1.384 . S
C1177 H1199 0.929 . S
C1178 O1188 1.241 . S
C1178 O1189 1.273 1_554 S
C1179 O1190 1.251 . S
C1179 O1191 1.268 1_554 S
O1180 Nd1160 2.500 . S
O1180 C1162 1.258 . S
O1181 Nd1160 2.492 . S
O1181 C1162 1.239 . S
O1182 Nd1160 2.487 . S
O1182 C1169 1.320 . S
O1183 Nd1160 2.682 1_554 S
O1183 Nd1161 2.414 . S
O1183 C1169 1.236 1_554 S
O1184 Nd1160 2.410 . S
O1184 C1170 1.251 . S
O1185 Nd1161 2.424 . S
O1185 C1170 1.268 1_554 S
O1186 Nd1161 2.500 . S
O1186 C1171 1.258 . S
O1187 Nd1161 2.492 . S
O1187 C1171 1.239 . S
O1188 Nd1161 2.487 . S
O1188 C1178 1.241 . S
O1189 Nd1160 2.414 . S
O1189 Nd1161 2.682 1_556 S
O1189 C1178 1.273 1_556 S
O1190 Nd1161 2.410 . S
O1190 C1179 1.251 . S
O1191 Nd1160 2.424 . S
O1191 C1179 1.268 1_556 S
H1192 C1164 0.930 . S
H1193 C1165 0.929 . S
H1194 C1167 0.930 . S
H1195 C1168 0.929 . S
H1196 C1173 0.930 . S
H1197 C1174 0.929 . S
H1198 C1176 0.930 . S
H1199 C1177 0.929 . S
Nd1200 C1202 2.836 . S
Nd1200 O1220 2.500 . S
Nd1200 O1221 2.492 . S
Nd1200 O1222 2.487 . S
Nd1200 O1223 2.682 . S
Nd1200 O1224 2.410 . S
Nd1200 O1229 2.414 . S
Nd1200 O1231 2.424 . S
Nd1201 C1211 2.836 . S
Nd1201 O1223 2.414 . S
Nd1201 O1225 2.424 . S
Nd1201 O1226 2.500 . S
Nd1201 O1227 2.492 . S
Nd1201 O1228 2.487 . S
Nd1201 O1229 2.682 . S
Nd1201 O1230 2.410 . S
C1202 Nd1200 2.836 . S
C1202 C1203 1.498 . S
C1202 O1220 1.258 . S
C1202 O1221 1.239 . S
C1203 C1202 1.498 . S
C1203 C1204 1.366 . S
C1203 C1208 1.407 . S
C1204 C1203 1.366 . S
C1204 C1205 1.392 . S
C1204 H1232 0.930 . S
C1205 C1204 1.392 . S
C1205 C1206 1.398 . S
C1205 H1233 0.929 . S
C1206 C1205 1.398 . S
C1206 C1207 1.352 . S
C1207 C1206 1.352 . S
C1207 C1208 1.384 . S
C1207 H1234 0.930 . S
C1208 C1203 1.407 . S
C1208 C1207 1.384 . S
C1208 H1235 0.929 . S
C1209 O1222 1.241 . S
C1209 O1223 1.273 . S
C1210 O1224 1.251 . S
C1210 O1225 1.268 . S
C1211 Nd1201 2.836 . S
C1211 C1212 1.498 . S
C1211 O1226 1.258 . S
C1211 O1227 1.239 . S
C1212 C1211 1.498 . S
C1212 C1213 1.366 . S
C1212 C1217 1.407 1_455 S
C1213 C1212 1.366 . S
C1213 C1214 1.392 1_455 S
C1213 H1236 0.930 . S
C1214 C1213 1.392 1_655 S
C1214 C1215 1.398 . S
C1214 H1237 0.929 . S
C1215 C1214 1.398 . S
C1215 C1216 1.352 . S
C1216 C1215 1.352 . S
C1216 C1217 1.384 . S
C1216 H1238 0.930 . S
C1217 C1212 1.407 1_655 S
C1217 C1216 1.384 . S
C1217 H1239 0.929 . S
C1218 O1228 1.241 . S
C1218 O1229 1.273 . S
C1219 O1230 1.251 . S
C1219 O1231 1.268 . S
O1220 Nd1200 2.500 . S
O1220 C1202 1.258 . S
O1221 Nd1200 2.492 . S
O1221 C1202 1.239 . S
O1222 Nd1200 2.487 . S
O1222 C1209 1.241 . S
O1223 Nd1200 2.682 . S
O1223 Nd1201 2.414 . S
O1223 C1209 1.273 . S
O1224 Nd1200 2.410 . S
O1224 C1210 1.251 . S
O1225 Nd1201 2.424 . S
O1225 C1210 1.268 . S
O1226 Nd1201 2.500 . S
O1226 C1211 1.258 . S
O1227 Nd1201 2.492 . S
O1227 C1211 1.239 . S
O1228 Nd1201 2.487 . S
O1228 C1218 1.241 . S
O1229 Nd1200 2.414 . S
O1229 Nd1201 2.682 . S
O1229 C1218 1.273 . S
O1230 Nd1201 2.410 . S
O1230 C1219 1.251 . S
O1231 Nd1200 2.424 . S
O1231 C1219 1.268 . S
H1232 C1204 0.930 . S
H1233 C1205 0.929 . S
H1234 C1207 0.930 . S
H1235 C1208 0.929 . S
H1236 C1213 0.930 . S
H1237 C1214 0.929 . S
H1238 C1216 0.930 . S
H1239 C1217 0.929 . S
Nd1240 C1242 2.836 . S
Nd1240 O1260 2.500 . S
Nd1240 O1261 2.492 . S
Nd1240 O1262 2.487 . S
Nd1240 O1263 2.682 . S
Nd1240 O1264 2.410 . S
Nd1240 O1269 2.414 . S
Nd1240 O1271 2.424 . S
Nd1241 C1251 2.836 . S
Nd1241 O1263 2.414 . S
Nd1241 O1265 2.424 . S
Nd1241 O1266 2.500 . S
Nd1241 O1267 2.492 . S
Nd1241 O1268 2.487 . S
Nd1241 O1269 2.682 . S
Nd1241 O1270 2.410 . S
C1242 Nd1240 2.836 . S
C1242 C1243 1.498 . S
C1242 O1260 1.258 . S
C1242 O1261 1.239 . S
C1243 C1242 1.498 . S
C1243 C1244 1.366 . S
C1243 C1248 1.407 . S
C1244 C1243 1.366 . S
C1244 C1245 1.392 . S
C1244 H1272 0.930 . S
C1245 C1244 1.392 . S
C1245 C1246 1.398 . S
C1245 H1273 0.929 . S
C1246 C1245 1.398 . S
C1246 C1247 1.352 . S
C1247 C1246 1.352 . S
C1247 C1248 1.384 . S
C1247 H1274 0.930 . S
C1248 C1243 1.407 . S
C1248 C1247 1.384 . S
C1248 H1275 0.929 . S
C1249 O1262 1.241 . S
C1249 O1263 1.273 . S
C1250 O1264 1.251 . S
C1250 O1265 1.268 . S
C1251 Nd1241 2.836 . S
C1251 C1252 1.498 . S
C1251 O1266 1.258 . S
C1251 O1267 1.239 . S
C1252 C1251 1.498 . S
C1252 C1253 1.366 . S
C1252 C1257 1.407 . S
C1253 C1252 1.366 . S
C1253 C1254 1.392 . S
C1253 H1276 0.930 . S
C1254 C1253 1.392 . S
C1254 C1255 1.398 . S
C1254 H1277 0.929 . S
C1255 C1254 1.398 . S
C1255 C1256 1.352 . S
C1256 C1255 1.352 . S
C1256 C1257 1.384 . S
C1256 H1278 0.930 . S
C1257 C1252 1.407 . S
C1257 C1256 1.384 . S
C1257 H1279 0.929 . S
C1258 O1268 1.241 . S
C1258 O1269 1.273 . S
C1259 O1270 1.251 . S
C1259 O1271 1.268 . S
O1260 Nd1240 2.500 . S
O1260 C1242 1.258 . S
O1261 Nd1240 2.492 . S
O1261 C1242 1.239 . S
O1262 Nd1240 2.487 . S
O1262 C1249 1.241 . S
O1263 Nd1240 2.682 . S
O1263 Nd1241 2.414 . S
O1263 C1249 1.273 . S
O1264 Nd1240 2.410 . S
O1264 C1250 1.251 . S
O1265 Nd1241 2.424 . S
O1265 C1250 1.268 . S
O1266 Nd1241 2.500 . S
O1266 C1251 1.258 . S
O1267 Nd1241 2.492 . S
O1267 C1251 1.239 . S
O1268 Nd1241 2.487 . S
O1268 C1258 1.241 . S
O1269 Nd1240 2.414 . S
O1269 Nd1241 2.682 . S
O1269 C1258 1.273 . S
O1270 Nd1241 2.410 . S
O1270 C1259 1.251 . S
O1271 Nd1240 2.424 . S
O1271 C1259 1.268 . S
H1272 C1244 0.930 . S
H1273 C1245 0.929 . S
H1274 C1247 0.930 . S
H1275 C1248 0.929 . S
H1276 C1253 0.930 . S
H1277 C1254 0.929 . S
H1278 C1256 0.930 . S
H1279 C1257 0.929 . S
Nd1280 C1282 2.836 . S
Nd1280 O1300 2.500 . S
Nd1280 O1301 2.492 . S
Nd1280 O1302 2.487 . S
Nd1280 O1303 2.682 . S
Nd1280 O1304 2.410 . S
Nd1280 O1309 2.414 . S
Nd1280 O1311 2.424 . S
Nd1281 C1291 2.836 . S
Nd1281 O1303 2.414 . S
Nd1281 O1305 2.424 . S
Nd1281 O1306 2.500 . S
Nd1281 O1307 2.492 . S
Nd1281 O1308 2.487 . S
Nd1281 O1309 2.682 . S
Nd1281 O1310 2.410 . S
C1282 Nd1280 2.836 . S
C1282 C1283 1.498 . S
C1282 O1300 1.258 . S
C1282 O1301 1.239 . S
C1283 C1282 1.498 . S
C1283 C1284 1.366 . S
C1283 C1288 1.407 . S
C1284 C1283 1.366 . S
C1284 C1285 1.392 . S
C1284 H1312 0.930 . S
C1285 C1284 1.392 . S
C1285 C1286 1.398 . S
C1285 H1313 0.929 . S
C1286 C1285 1.398 . S
C1286 C1287 1.352 . S
C1287 C1286 1.352 . S
C1287 C1288 1.384 . S
C1287 H1314 0.930 . S
C1288 C1283 1.407 . S
C1288 C1287 1.384 . S
C1288 H1315 0.929 . S
C1289 O1302 1.241 . S
C1289 O1303 1.273 . S
C1290 O1304 1.251 . S
C1290 O1305 1.268 . S
C1291 Nd1281 2.836 . S
C1291 C1292 1.498 . S
C1291 O1306 1.258 . S
C1291 O1307 1.239 . S
C1292 C1291 1.498 . S
C1292 C1293 1.366 . S
C1292 C1297 1.407 1_565 S
C1293 C1292 1.366 . S
C1293 C1294 1.392 1_565 S
C1293 H1316 0.930 . S
C1294 C1293 1.392 1_545 S
C1294 C1295 1.398 . S
C1294 H1317 0.929 . S
C1295 C1294 1.398 . S
C1295 C1296 1.352 . S
C1296 C1295 1.352 . S
C1296 C1297 1.384 . S
C1296 H1318 0.930 . S
C1297 C1292 1.407 1_545 S
C1297 C1296 1.384 . S
C1297 H1319 0.929 . S
C1298 O1308 1.241 . S
C1298 O1309 1.273 . S
C1299 O1310 1.251 . S
C1299 O1311 1.268 . S
O1300 Nd1280 2.500 . S
O1300 C1282 1.258 . S
O1301 Nd1280 2.492 . S
O1301 C1282 1.239 . S
O1302 Nd1280 2.487 . S
O1302 C1289 1.241 . S
O1303 Nd1280 2.682 . S
O1303 Nd1281 2.414 . S
O1303 C1289 1.273 . S
O1304 Nd1280 2.410 . S
O1304 C1290 1.251 . S
O1305 Nd1281 2.424 . S
O1305 C1290 1.268 . S
O1306 Nd1281 2.500 . S
O1306 C1291 1.258 . S
O1307 Nd1281 2.492 . S
O1307 C1291 1.239 . S
O1308 Nd1281 2.487 . S
O1308 C1298 1.241 . S
O1309 Nd1280 2.414 . S
O1309 Nd1281 2.682 . S
O1309 C1298 1.273 . S
O1310 Nd1281 2.410 . S
O1310 C1299 1.251 . S
O1311 Nd1280 2.424 . S
O1311 C1299 1.268 . S
H1312 C1284 0.930 . S
H1313 C1285 0.929 . S
H1314 C1287 0.930 . S
H1315 C1288 0.929 . S
H1316 C1293 0.930 . S
H1317 C1294 0.929 . S
H1318 C1296 0.930 . S
H1319 C1297 0.929 . S
Nd1320 C1322 2.836 . S
Nd1320 O1340 2.500 . S
Nd1320 O1341 2.492 . S
Nd1320 O1342 2.487 . S
Nd1320 O1343 2.682 . S
Nd1320 O1344 2.410 . S
Nd1320 O1349 2.414 . S
Nd1320 O1351 2.424 . S
Nd1321 C1331 2.836 . S
Nd1321 O1343 2.414 . S
Nd1321 O1345 2.424 . S
Nd1321 O1346 2.500 . S
Nd1321 O1347 2.492 . S
Nd1321 O1348 2.487 . S
Nd1321 O1349 2.682 . S
Nd1321 O1350 2.410 . S
C1322 Nd1320 2.836 . S
C1322 C1323 1.498 . S
C1322 O1340 1.258 . S
C1322 O1341 1.239 . S
C1323 C1322 1.498 . S
C1323 C1324 1.366 . S
C1323 C1328 1.407 . S
C1324 C1323 1.366 . S
C1324 C1325 1.392 1_455 S
C1324 H1352 0.930 1_455 S
C1325 C1324 1.392 1_655 S
C1325 C1326 1.398 1_655 S
C1325 H1353 0.929 . S
C1326 C1325 1.398 1_455 S
C1326 C1327 1.352 . S
C1327 C1326 1.352 . S
C1327 C1328 1.384 . S
C1327 H1354 0.930 . S
C1328 C1323 1.407 . S
C1328 C1327 1.384 . S
C1328 H1355 0.929 . S
C1329 O1342 1.241 . S
C1329 O1343 1.273 . S
C1330 O1344 1.251 . S
C1330 O1345 1.268 . S
C1331 Nd1321 2.836 . S
C1331 C1332 1.498 . S
C1331 O1346 1.258 . S
C1331 O1347 1.239 . S
C1332 C1331 1.498 . S
C1332 C1333 1.366 . S
C1332 C1337 1.407 . S
C1333 C1332 1.366 . S
C1333 C1334 1.392 . S
C1333 H1356 0.930 . S
C1334 C1333 1.392 . S
C1334 C1335 1.398 . S
C1334 H1357 0.929 . S
C1335 C1334 1.398 . S
C1335 C1336 1.352 . S
C1336 C1335 1.352 . S
C1336 C1337 1.384 . S
C1336 H1358 0.930 . S
C1337 C1332 1.407 . S
C1337 C1336 1.384 . S
C1337 H1359 0.929 . S
C1338 O1348 1.241 . S
C1338 O1349 1.273 . S
C1339 O1350 1.251 . S
C1339 O1351 1.268 . S
O1340 Nd1320 2.500 . S
O1340 C1322 1.258 . S
O1341 Nd1320 2.492 . S
O1341 C1322 1.239 . S
O1342 Nd1320 2.487 . S
O1342 C1329 1.241 . S
O1343 Nd1320 2.682 . S
O1343 Nd1321 2.414 . S
O1343 C1329 1.273 . S
O1344 Nd1320 2.410 . S
O1344 C1330 1.251 . S
O1345 Nd1321 2.424 . S
O1345 C1330 1.268 . S
O1346 Nd1321 2.500 . S
O1346 C1331 1.258 . S
O1347 Nd1321 2.492 . S
O1347 C1331 1.239 . S
O1348 Nd1321 2.487 . S
O1348 C1338 1.241 . S
O1349 Nd1320 2.414 . S
O1349 Nd1321 2.682 . S
O1349 C1338 1.273 . S
O1350 Nd1321 2.410 . S
O1350 C1339 1.251 . S
O1351 Nd1320 2.424 . S
O1351 C1339 1.268 . S
H1352 C1324 0.930 1_655 S
H1353 C1325 0.929 . S
H1354 C1327 0.930 . S
H1355 C1328 0.929 . S
H1356 C1333 0.930 . S
H1357 C1334 0.929 . S
H1358 C1336 0.930 . S
H1359 C1337 0.929 . S
Nd1360 C1362 2.836 . S
Nd1360 O1380 2.500 . S
Nd1360 O1381 2.492 . S
Nd1360 O1382 2.487 . S
Nd1360 O1383 2.682 . S
Nd1360 O1384 2.410 . S
Nd1360 O1389 2.414 . S
Nd1360 O1391 2.424 . S
Nd1361 C1371 2.836 . S
Nd1361 O1383 2.414 . S
Nd1361 O1385 2.424 . S
Nd1361 O1386 2.500 . S
Nd1361 O1387 2.492 . S
Nd1361 O1388 2.487 . S
Nd1361 O1389 2.682 . S
Nd1361 O1390 2.410 . S
C1362 Nd1360 2.836 . S
C1362 C1363 1.498 . S
C1362 O1380 1.258 . S
C1362 O1381 1.239 . S
C1363 C1362 1.498 . S
C1363 C1364 1.366 . S
C1363 C1368 1.407 . S
C1364 C1363 1.366 . S
C1364 C1365 1.392 . S
C1364 H1392 0.930 . S
C1365 C1364 1.392 . S
C1365 C1366 1.398 . S
C1365 H1393 0.929 . S
C1366 C1365 1.398 . S
C1366 C1367 1.352 . S
C1367 C1366 1.352 . S
C1367 C1368 1.384 . S
C1367 H1394 0.930 . S
C1368 C1363 1.407 . S
C1368 C1367 1.384 . S
C1368 H1395 0.929 . S
C1369 O1382 1.241 . S
C1369 O1383 1.273 . S
C1370 O1384 1.251 . S
C1370 O1385 1.268 . S
C1371 Nd1361 2.836 . S
C1371 C1372 1.498 . S
C1371 O1386 1.258 . S
C1371 O1387 1.239 . S
C1372 C1371 1.498 . S
C1372 C1373 1.366 . S
C1372 C1377 1.407 . S
C1373 C1372 1.366 . S
C1373 C1374 1.392 . S
C1373 H1396 0.930 . S
C1374 C1373 1.392 . S
C1374 C1375 1.398 . S
C1374 H1397 0.929 . S
C1375 C1374 1.398 . S
C1375 C1376 1.352 . S
C1376 C1375 1.352 . S
C1376 C1377 1.384 . S
C1376 H1398 0.930 . S
C1377 C1372 1.407 . S
C1377 C1376 1.384 . S
C1377 H1399 0.929 . S
C1378 O1388 1.241 . S
C1378 O1389 1.273 . S
C1379 O1390 1.251 . S
C1379 O1391 1.268 . S
O1380 Nd1360 2.500 . S
O1380 C1362 1.258 . S
O1381 Nd1360 2.492 . S
O1381 C1362 1.239 . S
O1382 Nd1360 2.487 . S
O1382 C1369 1.241 . S
O1383 Nd1360 2.682 . S
O1383 Nd1361 2.414 . S
O1383 C1369 1.273 . S
O1384 Nd1360 2.410 . S
O1384 C1370 1.251 . S
O1385 Nd1361 2.424 . S
O1385 C1370 1.268 . S
O1386 Nd1361 2.500 . S
O1386 C1371 1.258 . S
O1387 Nd1361 2.492 . S
O1387 C1371 1.239 . S
O1388 Nd1361 2.487 . S
O1388 C1378 1.241 . S
O1389 Nd1360 2.414 . S
O1389 Nd1361 2.682 . S
O1389 C1378 1.273 . S
O1390 Nd1361 2.410 . S
O1390 C1379 1.251 . S
O1391 Nd1360 2.424 . S
O1391 C1379 1.268 . S
H1392 C1364 0.930 . S
H1393 C1365 0.929 . S
H1394 C1367 0.930 . S
H1395 C1368 0.929 . S
H1396 C1373 0.930 . S
H1397 C1374 0.929 . S
H1398 C1376 0.930 . S
H1399 C1377 0.929 . S
Nd1400 C1402 2.836 . S
Nd1400 O1420 2.500 . S
Nd1400 O1421 2.492 . S
Nd1400 O1422 2.487 . S
Nd1400 O1423 2.682 . S
Nd1400 O1424 2.410 . S
Nd1400 O1429 2.414 . S
Nd1400 O1431 2.424 . S
Nd1401 C1411 2.836 . S
Nd1401 O1423 2.414 . S
Nd1401 O1425 2.424 . S
Nd1401 O1426 2.500 . S
Nd1401 O1427 2.492 . S
Nd1401 O1428 2.487 . S
Nd1401 O1429 2.682 . S
Nd1401 O1430 2.410 . S
C1402 Nd1400 2.836 . S
C1402 C1403 1.498 . S
C1402 O1420 1.258 . S
C1402 O1421 1.239 . S
C1403 C1402 1.498 . S
C1403 C1404 1.366 . S
C1403 C1408 1.407 . S
C1404 C1403 1.366 . S
C1404 C1405 1.392 1_565 S
C1404 H1432 0.930 1_565 S
C1405 C1404 1.392 1_545 S
C1405 C1406 1.398 1_545 S
C1405 H1433 0.929 . S
C1406 C1405 1.398 1_565 S
C1406 C1407 1.352 . S
C1407 C1406 1.352 . S
C1407 C1408 1.384 . S
C1407 H1434 0.930 . S
C1408 C1403 1.407 . S
C1408 C1407 1.384 . S
C1408 H1435 0.929 . S
C1409 O1422 1.241 . S
C1409 O1423 1.273 . S
C1410 O1424 1.251 . S
C1410 O1425 1.268 . S
C1411 Nd1401 2.836 . S
C1411 C1412 1.498 . S
C1411 O1426 1.258 . S
C1411 O1427 1.239 . S
C1412 C1411 1.498 . S
C1412 C1413 1.366 . S
C1412 C1417 1.407 . S
C1413 C1412 1.366 . S
C1413 C1414 1.392 . S
C1413 H1436 0.930 . S
C1414 C1413 1.392 . S
C1414 C1415 1.398 . S
C1414 H1437 0.929 . S
C1415 C1414 1.398 . S
C1415 C1416 1.352 . S
C1416 C1415 1.352 . S
C1416 C1417 1.384 . S
C1416 H1438 0.930 . S
C1417 C1412 1.407 . S
C1417 C1416 1.384 . S
C1417 H1439 0.929 . S
C1418 O1428 1.241 . S
C1418 O1429 1.273 . S
C1419 O1430 1.251 . S
C1419 O1431 1.268 . S
O1420 Nd1400 2.500 . S
O1420 C1402 1.258 . S
O1421 Nd1400 2.492 . S
O1421 C1402 1.239 . S
O1422 Nd1400 2.487 . S
O1422 C1409 1.241 . S
O1423 Nd1400 2.682 . S
O1423 Nd1401 2.414 . S
O1423 C1409 1.273 . S
O1424 Nd1400 2.410 . S
O1424 C1410 1.251 . S
O1425 Nd1401 2.424 . S
O1425 C1410 1.268 . S
O1426 Nd1401 2.500 . S
O1426 C1411 1.258 . S
O1427 Nd1401 2.492 . S
O1427 C1411 1.239 . S
O1428 Nd1401 2.487 . S
O1428 C1418 1.241 . S
O1429 Nd1400 2.414 . S
O1429 Nd1401 2.682 . S
O1429 C1418 1.273 . S
O1430 Nd1401 2.410 . S
O1430 C1419 1.251 . S
O1431 Nd1400 2.424 . S
O1431 C1419 1.268 . S
H1432 C1404 0.930 1_545 S
H1433 C1405 0.929 . S
H1434 C1407 0.930 . S
H1435 C1408 0.929 . S
H1436 C1413 0.930 . S
H1437 C1414 0.929 . S
H1438 C1416 0.930 . S
H1439 C1417 0.929 . S
C1440 C1441 1.387 . S
C1440 H1444 0.950 . S
C1440 C1449 1.390 . S
C1441 C1440 1.387 . S
C1441 C1443 1.387 . S
H1442 C1449 0.950 . S
C1443 C1441 1.387 . S
C1443 C1445 1.390 . S
C1443 H1447 0.950 . S
H1444 C1440 0.950 . S
C1445 C1443 1.390 . S
C1445 C1446 1.387 . S
C1445 H1448 0.950 . S
C1446 C1445 1.387 . S
C1446 C1449 1.387 . S
H1447 C1443 0.950 . S
H1448 C1445 0.950 . S
C1449 C1440 1.390 . S
C1449 H1442 0.950 . S
C1449 C1446 1.387 . S
C1450 C1451 1.387 . S
C1450 H1454 0.950 . S
C1450 C1459 1.390 1_545 S
C1451 C1450 1.387 . S
C1451 C1453 1.387 . S
H1452 C1459 0.950 . S
C1453 C1451 1.387 . S
C1453 C1455 1.390 . S
C1453 H1457 0.950 . S
H1454 C1450 0.950 . S
C1455 C1453 1.390 . S
C1455 C1456 1.387 1_545 S
C1455 H1458 0.950 . S
C1456 C1455 1.387 1_565 S
C1456 C1459 1.387 . S
H1457 C1453 0.950 . S
H1458 C1455 0.950 . S
C1459 C1450 1.390 1_565 S
C1459 H1452 0.950 . S
C1459 C1456 1.387 . S
C1460 C1461 1.387 1_655 S
C1460 H1464 0.950 . S
C1460 C1469 1.390 . S
C1461 C1460 1.387 1_455 S
C1461 C1463 1.387 . S
H1462 C1469 0.950 . S
C1463 C1461 1.387 . S
C1463 C1465 1.390 1_455 S
C1463 H1467 0.950 . S
H1464 C1460 0.950 . S
C1465 C1463 1.390 1_655 S
C1465 C1466 1.387 . S
C1465 H1468 0.950 . S
C1466 C1465 1.387 . S
C1466 C1469 1.387 . S
H1467 C1463 0.950 . S
H1468 C1465 0.950 . S
C1469 C1460 1.390 . S
C1469 H1462 0.950 . S
C1469 C1466 1.387 . S
C1470 C1471 1.387 . S
C1470 H1474 0.950 . S
C1470 C1479 1.390 . S
C1471 C1470 1.387 . S
C1471 C1473 1.387 . S
H1472 C1479 0.950 . S
C1473 C1471 1.387 . S
C1473 C1475 1.390 . S
C1473 H1477 0.950 . S
H1474 C1470 0.950 . S
C1475 C1473 1.390 . S
C1475 C1476 1.387 . S
C1475 H1478 0.950 . S
C1476 C1475 1.387 . S
C1476 C1479 1.387 . S
H1477 C1473 0.950 . S
H1478 C1475 0.950 . S
C1479 C1470 1.390 . S
C1479 H1472 0.950 . S
C1479 C1476 1.387 . S
C1480 C1481 1.387 . S
C1480 H1484 0.950 . S
C1480 C1489 1.390 . S
C1481 C1480 1.387 . S
C1481 C1483 1.387 . S
H1482 C1489 0.950 . S
C1483 C1481 1.387 . S
C1483 C1485 1.390 . S
C1483 H1487 0.950 . S
H1484 C1480 0.950 . S
C1485 C1483 1.390 . S
C1485 C1486 1.387 . S
C1485 H1488 0.950 . S
C1486 C1485 1.387 . S
C1486 C1489 1.387 . S
H1487 C1483 0.950 . S
H1488 C1485 0.950 . S
C1489 C1480 1.390 . S
C1489 H1482 0.950 . S
C1489 C1486 1.387 . S
C1490 C1491 1.387 . S
C1490 H1494 0.950 . S
C1490 C1499 1.390 . S
C1491 C1490 1.387 . S
C1491 C1493 1.387 . S
H1492 C1499 0.950 . S
C1493 C1491 1.387 . S
C1493 C1495 1.390 . S
C1493 H1497 0.950 . S
H1494 C1490 0.950 . S
C1495 C1493 1.390 . S
C1495 C1496 1.387 . S
C1495 H1498 0.950 . S
C1496 C1495 1.387 . S
C1496 C1499 1.387 . S
H1497 C1493 0.950 . S
H1498 C1495 0.950 . S
C1499 C1490 1.390 . S
C1499 H1492 0.950 . S
C1499 C1496 1.387 . S
C1500 C1501 1.387 . S
C1500 H1504 0.950 . S
C1500 C1509 1.390 . S
C1501 C1500 1.387 . S
C1501 C1503 1.387 . S
H1502 C1509 0.950 . S
C1503 C1501 1.387 . S
C1503 C1505 1.390 . S
C1503 H1507 0.950 . S
H1504 C1500 0.950 . S
C1505 C1503 1.390 . S
C1505 C1506 1.387 . S
C1505 H1508 0.950 . S
C1506 C1505 1.387 . S
C1506 C1509 1.387 . S
H1507 C1503 0.950 . S
H1508 C1505 0.950 . S
C1509 C1500 1.390 . S
C1509 H1502 0.950 . S
C1509 C1506 1.387 . S
C1510 C1511 1.387 1_565 S
C1510 H1514 0.950 . S
C1510 C1519 1.390 . S
C1511 C1510 1.387 1_545 S
C1511 C1513 1.387 . S
H1512 C1519 0.950 . S
C1513 C1511 1.387 . S
C1513 C1515 1.390 1_545 S
C1513 H1517 0.950 . S
H1514 C1510 0.950 . S
C1515 C1513 1.390 1_565 S
C1515 C1516 1.387 . S
C1515 H1518 0.950 . S
C1516 C1515 1.387 . S
C1516 C1519 1.387 . S
H1517 C1513 0.950 . S
H1518 C1515 0.950 . S
C1519 C1510 1.390 . S
C1519 H1512 0.950 . S
C1519 C1516 1.387 . S
C1520 C1521 1.387 1_455 S
C1520 H1524 0.950 . S
C1520 C1529 1.390 . S
C1521 C1520 1.387 1_655 S
C1521 C1523 1.387 . S
H1522 C1529 0.950 . S
C1523 C1521 1.387 . S
C1523 C1525 1.390 1_655 S
C1523 H1527 0.950 . S
H1524 C1520 0.950 . S
C1525 C1523 1.390 1_455 S
C1525 C1526 1.387 . S
C1525 H1528 0.950 . S
C1526 C1525 1.387 . S
C1526 C1529 1.387 . S
H1527 C1523 0.950 . S
H1528 C1525 0.950 . S
C1529 C1520 1.390 . S
C1529 H1522 0.950 . S
C1529 C1526 1.387 . S
C1530 C1531 1.387 . S
C1530 H1534 0.950 . S
C1530 C1539 1.390 . S
C1531 C1530 1.387 . S
C1531 C1533 1.387 . S
H1532 C1539 0.950 . S
C1533 C1531 1.387 . S
C1533 C1535 1.390 . S
C1533 H1537 0.950 . S
H1534 C1530 0.950 . S
C1535 C1533 1.390 . S
C1535 C1536 1.387 . S
C1535 H1538 0.950 . S
C1536 C1535 1.387 . S
C1536 C1539 1.387 . S
H1537 C1533 0.950 . S
H1538 C1535 0.950 . S
C1539 C1530 1.390 . S
C1539 H1532 0.950 . S
C1539 C1536 1.387 . S
C1540 C1541 1.387 . S
C1540 H1544 0.950 . S
C1540 C1549 1.390 . S
C1541 C1540 1.387 . S
C1541 C1543 1.387 . S
H1542 C1549 0.950 . S
C1543 C1541 1.387 . S
C1543 C1545 1.390 . S
C1543 H1547 0.950 . S
H1544 C1540 0.950 . S
C1545 C1543 1.390 . S
C1545 C1546 1.387 . S
C1545 H1548 0.950 . S
C1546 C1545 1.387 . S
C1546 C1549 1.387 . S
H1547 C1543 0.950 . S
H1548 C1545 0.950 . S
C1549 C1540 1.390 . S
C1549 H1542 0.950 . S
C1549 C1546 1.387 . S
C1550 C1551 1.387 . S
C1550 H1554 0.950 . S
C1550 C1559 1.390 . S
C1551 C1550 1.387 . S
C1551 C1553 1.387 . S
H1552 C1559 0.950 . S
C1553 C1551 1.387 . S
C1553 C1555 1.390 . S
C1553 H1557 0.950 . S
H1554 C1550 0.950 . S
C1555 C1553 1.390 . S
C1555 C1556 1.387 . S
C1555 H1558 0.950 . S
C1556 C1555 1.387 . S
C1556 C1559 1.387 . S
H1557 C1553 0.950 . S
H1558 C1555 0.950 . S
C1559 C1550 1.390 . S
C1559 H1552 0.950 . S
C1559 C1556 1.387 . S
C1560 C1561 1.387 . S
C1560 H1564 0.950 . S
C1560 C1569 1.390 . S
C1561 C1560 1.387 . S
C1561 C1563 1.387 . S
H1562 C1569 0.950 . S
C1563 C1561 1.387 . S
C1563 C1565 1.390 . S
C1563 H1567 0.950 . S
H1564 C1560 0.950 . S
C1565 C1563 1.390 . S
C1565 C1566 1.387 . S
C1565 H1568 0.950 . S
C1566 C1565 1.387 . S
C1566 C1569 1.387 . S
H1567 C1563 0.950 . S
H1568 C1565 0.950 . S
C1569 C1560 1.390 . S
C1569 H1562 0.950 . S
C1569 C1566 1.387 . S
C1570 C1571 1.387 . S
C1570 H1574 0.950 . S
C1570 C1579 1.390 . S
C1571 C1570 1.387 . S
C1571 C1573 1.387 . S
H1572 C1579 0.950 . S
C1573 C1571 1.387 . S
C1573 C1575 1.390 . S
C1573 H1577 0.950 . S
H1574 C1570 0.950 . S
C1575 C1573 1.390 . S
C1575 C1576 1.387 . S
C1575 H1578 0.950 . S
C1576 C1575 1.387 . S
C1576 C1579 1.387 . S
H1577 C1573 0.950 . S
H1578 C1575 0.950 . S
C1579 C1570 1.390 . S
C1579 H1572 0.950 . S
C1579 C1576 1.387 . S
C1580 C1581 1.387 . S
C1580 H1584 0.950 . S
C1580 C1589 1.390 . S
C1581 C1580 1.387 . S
C1581 C1583 1.387 . S
H1582 C1589 0.950 . S
C1583 C1581 1.387 . S
C1583 C1585 1.390 . S
C1583 H1587 0.950 . S
H1584 C1580 0.950 . S
C1585 C1583 1.390 . S
C1585 C1586 1.387 . S
C1585 H1588 0.950 . S
C1586 C1585 1.387 . S
C1586 C1589 1.387 . S
H1587 C1583 0.950 . S
H1588 C1585 0.950 . S
C1589 C1580 1.390 . S
C1589 H1582 0.950 . S
C1589 C1586 1.387 . S
C1590 C1591 1.387 . S
C1590 H1594 0.950 . S
C1590 C1599 1.390 . S
C1591 C1590 1.387 . S
C1591 C1593 1.387 . S
H1592 C1599 0.950 . S
C1593 C1591 1.387 . S
C1593 C1595 1.390 . S
C1593 H1597 0.950 . S
H1594 C1590 0.950 . S
C1595 C1593 1.390 . S
C1595 C1596 1.387 . S
C1595 H1598 0.950 . S
C1596 C1595 1.387 . S
C1596 C1599 1.387 . S
H1597 C1593 0.950 . S
H1598 C1595 0.950 . S
C1599 C1590 1.390 . S
C1599 H1592 0.950 . S
C1599 C1596 1.387 . S
C1600 C1601 1.387 . S
C1600 H1604 0.950 . S
C1600 C1609 1.390 . S
C1601 C1600 1.387 . S
C1601 C1603 1.387 . S
H1602 C1609 0.950 . S
C1603 C1601 1.387 . S
C1603 C1605 1.390 . S
C1603 H1607 0.950 . S
H1604 C1600 0.950 . S
C1605 C1603 1.390 . S
C1605 C1606 1.387 . S
C1605 H1608 0.950 . S
C1606 C1605 1.387 . S
C1606 C1609 1.387 . S
H1607 C1603 0.950 . S
H1608 C1605 0.950 . S
C1609 C1600 1.390 . S
C1609 H1602 0.950 . S
C1609 C1606 1.387 . S
C1610 C1611 1.387 . S
C1610 H1614 0.950 . S
C1610 C1619 1.390 . S
C1611 C1610 1.387 . S
C1611 C1613 1.387 . S
H1612 C1619 0.950 . S
C1613 C1611 1.387 . S
C1613 C1615 1.390 . S
C1613 H1617 0.950 . S
H1614 C1610 0.950 . S
C1615 C1613 1.390 . S
C1615 C1616 1.387 . S
C1615 H1618 0.950 . S
C1616 C1615 1.387 . S
C1616 C1619 1.387 . S
H1617 C1613 0.950 . S
H1618 C1615 0.950 . S
C1619 C1610 1.390 . S
C1619 H1612 0.950 . S
C1619 C1616 1.387 . S
C1620 C1621 1.387 . S
C1620 H1624 0.950 . S
C1620 C1629 1.390 . S
C1621 C1620 1.387 . S
C1621 C1623 1.387 . S
H1622 C1629 0.950 . S
C1623 C1621 1.387 . S
C1623 C1625 1.390 . S
C1623 H1627 0.950 . S
H1624 C1620 0.950 . S
C1625 C1623 1.390 . S
C1625 C1626 1.387 . S
C1625 H1628 0.950 . S
C1626 C1625 1.387 . S
C1626 C1629 1.387 . S
H1627 C1623 0.950 . S
H1628 C1625 0.950 . S
C1629 C1620 1.390 . S
C1629 H1622 0.950 . S
C1629 C1626 1.387 . S
C1630 C1631 1.387 . S
C1630 H1634 0.950 . S
C1630 C1639 1.390 . S
C1631 C1630 1.387 . S
C1631 C1633 1.387 . S
H1632 C1639 0.950 . S
C1633 C1631 1.387 . S
C1633 C1635 1.390 . S
C1633 H1637 0.950 . S
H1634 C1630 0.950 . S
C1635 C1633 1.390 . S
C1635 C1636 1.387 . S
C1635 H1638 0.950 . S
C1636 C1635 1.387 . S
C1636 C1639 1.387 . S
H1637 C1633 0.950 . S
H1638 C1635 0.950 . S
C1639 C1630 1.390 . S
C1639 H1632 0.950 . S
C1639 C1636 1.387 . S
C1640 C1641 1.387 . S
C1640 H1644 0.950 . S
C1640 C1649 1.390 . S
C1641 C1640 1.387 . S
C1641 C1643 1.387 . S
H1642 C1649 0.950 . S
C1643 C1641 1.387 . S
C1643 C1645 1.390 . S
C1643 H1647 0.950 . S
H1644 C1640 0.950 . S
C1645 C1643 1.390 . S
C1645 C1646 1.387 . S
C1645 H1648 0.950 . S
C1646 C1645 1.387 . S
C1646 C1649 1.387 . S
H1647 C1643 0.950 . S
H1648 C1645 0.950 . S
C1649 C1640 1.390 . S
C1649 H1642 0.950 . S
C1649 C1646 1.387 . S
C1650 C1651 1.387 1_556 S
C1650 H1654 0.950 . S
C1650 C1659 1.390 . S
C1651 C1650 1.387 1_554 S
C1651 C1653 1.387 . S
H1652 C1659 0.950 . S
C1653 C1651 1.387 . S
C1653 C1655 1.390 . S
C1653 H1657 0.950 . S
H1654 C1650 0.950 . S
C1655 C1653 1.390 . S
C1655 C1656 1.383 . S
C1655 H1658 0.950 . S
C1656 C1655 1.383 . S
C1656 C1659 1.391 1_554 S
H1657 C1653 0.950 . S
H1658 C1655 0.950 . S
C1659 C1650 1.390 . S
C1659 H1652 0.950 . S
C1659 C1656 1.391 1_556 S
C1660 C1661 1.389 1_556 S
C1660 H1664 0.950 . S
C1660 C1669 1.390 . S
C1661 C1660 1.389 1_554 S
C1661 C1663 1.386 . S
H1662 C1669 0.950 . S
C1663 C1661 1.386 . S
C1663 C1665 1.390 . S
C1663 H1667 0.950 . S
H1664 C1660 0.950 . S
C1665 C1663 1.390 . S
C1665 C1666 1.387 . S
C1665 H1668 0.950 . S
C1666 C1665 1.387 . S
C1666 C1669 1.387 1_554 S
H1667 C1663 0.950 . S
H1668 C1665 0.950 . S
C1669 C1660 1.390 . S
C1669 H1662 0.950 . S
C1669 C1666 1.387 1_556 S
C1670 C1671 1.387 1_556 S
C1670 H1674 0.950 . S
C1670 C1679 1.390 . S
C1671 C1670 1.387 1_554 S
C1671 C1673 1.387 . S
H1672 C1679 0.950 . S
C1673 C1671 1.387 . S
C1673 C1675 1.390 . S
C1673 H1677 0.950 . S
H1674 C1670 0.950 . S
C1675 C1673 1.390 . S
C1675 C1676 1.385 . S
C1675 H1678 0.950 . S
C1676 C1675 1.385 . S
C1676 C1679 1.390 1_554 S
H1677 C1673 0.950 . S
H1678 C1675 0.950 . S
C1679 C1670 1.390 . S
C1679 H1672 0.950 . S
C1679 C1676 1.390 1_556 S
C1680 C1681 1.387 . S
C1680 H1684 0.950 . S
C1680 C1689 1.390 . S
C1681 C1680 1.387 . S
C1681 C1683 1.387 . S
H1682 C1689 0.950 . S
C1683 C1681 1.387 . S
C1683 C1685 1.390 . S
C1683 H1687 0.950 . S
H1684 C1680 0.950 . S
C1685 C1683 1.390 . S
C1685 C1686 1.387 . S
C1685 H1688 0.950 . S
C1686 C1685 1.387 . S
C1686 C1689 1.387 . S
H1687 C1683 0.950 . S
H1688 C1685 0.950 . S
C1689 C1680 1.390 . S
C1689 H1682 0.950 . S
C1689 C1686 1.387 . S
C1690 C1691 1.387 . S
C1690 H1694 0.950 . S
C1690 C1699 1.390 . S
C1691 C1690 1.387 . S
C1691 C1693 1.387 . S
H1692 C1699 0.950 . S
C1693 C1691 1.387 . S
C1693 C1695 1.390 . S
C1693 H1697 0.950 . S
H1694 C1690 0.950 . S
C1695 C1693 1.390 . S
C1695 C1696 1.387 . S
C1695 H1698 0.950 . S
C1696 C1695 1.387 . S
C1696 C1699 1.387 . S
H1697 C1693 0.950 . S
H1698 C1695 0.950 . S
C1699 C1690 1.390 . S
C1699 H1692 0.950 . S
C1699 C1696 1.387 . S
C1700 C1701 1.387 . S
C1700 H1704 0.950 . S
C1700 C1709 1.390 . S
C1701 C1700 1.387 . S
C1701 C1703 1.387 . S
H1702 C1709 0.950 . S
C1703 C1701 1.387 . S
C1703 C1705 1.390 . S
C1703 H1707 0.950 . S
H1704 C1700 0.950 . S
C1705 C1703 1.390 . S
C1705 C1706 1.387 . S
C1705 H1708 0.950 . S
C1706 C1705 1.387 . S
C1706 C1709 1.387 . S
H1707 C1703 0.950 . S
H1708 C1705 0.950 . S
C1709 C1700 1.390 . S
C1709 H1702 0.950 . S
C1709 C1706 1.387 . S
C1710 C1711 1.388 1_554 S
C1710 H1714 0.950 . S
C1710 C1719 1.390 . S
C1711 C1710 1.388 1_556 S
C1711 C1713 1.387 . S
H1712 C1719 0.950 . S
C1713 C1711 1.387 . S
C1713 C1715 1.390 . S
C1713 H1717 0.950 . S
H1714 C1710 0.950 . S
C1715 C1713 1.390 . S
C1715 C1716 1.387 . S
C1715 H1718 0.950 . S
C1716 C1715 1.387 . S
C1716 C1719 1.387 1_556 S
H1717 C1713 0.950 . S
H1718 C1715 0.950 . S
C1719 C1710 1.390 . S
C1719 H1712 0.950 . S
C1719 C1716 1.387 1_554 S
C1720 C1721 1.390 1_554 S
C1720 H1724 0.950 . S
C1720 C1729 1.390 . S
C1721 C1720 1.390 1_556 S
C1721 C1723 1.385 . S
H1722 C1729 0.950 . S
C1723 C1721 1.385 . S
C1723 C1725 1.390 . S
C1723 H1727 0.950 . S
H1724 C1720 0.950 . S
C1725 C1723 1.390 . S
C1725 C1726 1.387 . S
C1725 H1728 0.950 . S
C1726 C1725 1.387 . S
C1726 C1729 1.387 1_556 S
H1727 C1723 0.950 . S
H1728 C1725 0.950 . S
C1729 C1720 1.390 . S
C1729 H1722 0.950 . S
C1729 C1726 1.387 1_554 S
C1730 C1731 1.390 1_554 S
C1730 H1734 0.950 . S
C1730 C1739 1.390 . S
C1731 C1730 1.390 1_556 S
C1731 C1733 1.384 . S
H1732 C1739 0.950 . S
C1733 C1731 1.384 . S
C1733 C1735 1.390 . S
C1733 H1737 0.950 . S
H1734 C1730 0.950 . S
C1735 C1733 1.390 . S
C1735 C1736 1.387 . S
C1735 H1738 0.950 . S
C1736 C1735 1.387 . S
C1736 C1739 1.387 1_556 S
H1737 C1733 0.950 . S
H1738 C1735 0.950 . S
C1739 C1730 1.390 . S
C1739 H1732 0.950 . S
C1739 C1736 1.387 1_554 S
C1740 C1741 1.387 . S
C1740 H1744 0.950 . S
C1740 C1749 1.390 . S
C1741 C1740 1.387 . S
C1741 C1743 1.387 . S
H1742 C1749 0.950 . S
C1743 C1741 1.387 . S
C1743 C1745 1.390 . S
C1743 H1747 0.950 . S
H1744 C1740 0.950 . S
C1745 C1743 1.390 . S
C1745 C1746 1.387 . S
C1745 H1748 0.950 . S
C1746 C1745 1.387 . S
C1746 C1749 1.387 . S
H1747 C1743 0.950 . S
H1748 C1745 0.950 . S
C1749 C1740 1.390 . S
C1749 H1742 0.950 . S
C1749 C1746 1.387 . S
C1750 C1751 1.387 . S
C1750 H1754 0.950 . S
C1750 C1759 1.390 . S
C1751 C1750 1.387 . S
C1751 C1753 1.387 . S
H1752 C1759 0.950 . S
C1753 C1751 1.387 . S
C1753 C1755 1.390 . S
C1753 H1757 0.950 . S
H1754 C1750 0.950 . S
C1755 C1753 1.390 . S
C1755 C1756 1.387 . S
C1755 H1758 0.950 . S
C1756 C1755 1.387 . S
C1756 C1759 1.387 . S
H1757 C1753 0.950 . S
H1758 C1755 0.950 . S
C1759 C1750 1.390 . S
C1759 H1752 0.950 . S
C1759 C1756 1.387 . S
C1760 C1761 1.387 . S
C1760 H1764 0.950 . S
C1760 C1769 1.390 . S
C1761 C1760 1.387 . S
C1761 C1763 1.387 . S
H1762 C1769 0.950 . S
C1763 C1761 1.387 . S
C1763 C1765 1.390 . S
C1763 H1767 0.950 . S
H1764 C1760 0.950 . S
C1765 C1763 1.390 . S
C1765 C1766 1.387 . S
C1765 H1768 0.950 . S
C1766 C1765 1.387 . S
C1766 C1769 1.387 . S
H1767 C1763 0.950 . S
H1768 C1765 0.950 . S
C1769 C1760 1.390 . S
C1769 H1762 0.950 . S
C1769 C1766 1.387 . S
C1770 C1771 1.387 . S
C1770 H1774 0.950 . S
C1770 C1779 1.390 . S
C1771 C1770 1.387 . S
C1771 C1773 1.387 . S
H1772 C1779 0.950 . S
C1773 C1771 1.387 . S
C1773 C1775 1.390 . S
C1773 H1777 0.950 . S
H1774 C1770 0.950 . S
C1775 C1773 1.390 . S
C1775 C1776 1.387 . S
C1775 H1778 0.950 . S
C1776 C1775 1.387 . S
C1776 C1779 1.387 . S
H1777 C1773 0.950 . S
H1778 C1775 0.950 . S
C1779 C1770 1.390 . S
C1779 H1772 0.950 . S
C1779 C1776 1.387 . S
C1780 C1781 1.387 . S
C1780 H1784 0.950 . S
C1780 C1789 1.390 . S
C1781 C1780 1.387 . S
C1781 C1783 1.387 . S
H1782 C1789 0.950 . S
C1783 C1781 1.387 . S
C1783 C1785 1.390 . S
C1783 H1787 0.950 . S
H1784 C1780 0.950 . S
C1785 C1783 1.390 . S
C1785 C1786 1.387 . S
C1785 H1788 0.950 . S
C1786 C1785 1.387 . S
C1786 C1789 1.387 . S
H1787 C1783 0.950 . S
H1788 C1785 0.950 . S
C1789 C1780 1.390 . S
C1789 H1782 0.950 . S
C1789 C1786 1.387 . S
C1790 C1791 1.387 . S
C1790 H1794 0.950 . S
C1790 C1799 1.390 . S
C1791 C1790 1.387 . S
C1791 C1793 1.387 . S
H1792 C1799 0.950 . S
C1793 C1791 1.387 . S
C1793 C1795 1.390 . S
C1793 H1797 0.950 . S
H1794 C1790 0.950 . S
C1795 C1793 1.390 . S
C1795 C1796 1.387 . S
C1795 H1798 0.950 . S
C1796 C1795 1.387 . S
C1796 C1799 1.387 . S
H1797 C1793 0.950 . S
H1798 C1795 0.950 . S
C1799 C1790 1.390 . S
C1799 H1792 0.950 . S
C1799 C1796 1.387 . S
C1800 C1801 1.387 . S
C1800 H1804 0.950 . S
C1800 C1809 1.390 . S
C1801 C1800 1.387 . S
C1801 C1803 1.387 . S
H1802 C1809 0.950 . S
C1803 C1801 1.387 . S
C1803 C1805 1.390 . S
C1803 H1807 0.950 . S
H1804 C1800 0.950 . S
C1805 C1803 1.390 . S
C1805 C1806 1.387 . S
C1805 H1808 0.950 . S
C1806 C1805 1.387 . S
C1806 C1809 1.387 . S
H1807 C1803 0.950 . S
H1808 C1805 0.950 . S
C1809 C1800 1.390 . S
C1809 H1802 0.950 . S
C1809 C1806 1.387 . S
C1810 C1811 1.387 . S
C1810 H1814 0.950 . S
C1810 C1819 1.390 . S
C1811 C1810 1.387 . S
C1811 C1813 1.387 . S
H1812 C1819 0.950 . S
C1813 C1811 1.387 . S
C1813 C1815 1.390 . S
C1813 H1817 0.950 1_565 S
H1814 C1810 0.950 . S
C1815 C1813 1.390 . S
C1815 C1816 1.387 . S
C1815 H1818 0.950 . S
C1816 C1815 1.387 . S
C1816 C1819 1.387 . S
H1817 C1813 0.950 1_545 S
H1818 C1815 0.950 . S
C1819 C1810 1.390 . S
C1819 H1812 0.950 . S
C1819 C1816 1.387 . S
C1820 C1821 1.387 . S
C1820 H1824 0.950 . S
C1820 C1829 1.390 . S
C1821 C1820 1.387 . S
C1821 C1823 1.387 . S
H1822 C1829 0.950 . S
C1823 C1821 1.387 . S
C1823 C1825 1.390 . S
C1823 H1827 0.950 . S
H1824 C1820 0.950 . S
C1825 C1823 1.390 . S
C1825 C1826 1.387 . S
C1825 H1828 0.950 . S
C1826 C1825 1.387 . S
C1826 C1829 1.387 . S
H1827 C1823 0.950 . S
H1828 C1825 0.950 . S
C1829 C1820 1.390 . S
C1829 H1822 0.950 . S
C1829 C1826 1.387 . S
C1830 C1831 1.387 . S
C1830 H1834 0.950 . S
C1830 C1839 1.390 . S
C1831 C1830 1.387 . S
C1831 C1833 1.387 . S
H1832 C1839 0.950 . S
C1833 C1831 1.387 . S
C1833 C1835 1.390 . S
C1833 H1837 0.950 . S
H1834 C1830 0.950 . S
C1835 C1833 1.390 . S
C1835 C1836 1.387 . S
C1835 H1838 0.950 . S
C1836 C1835 1.387 . S
C1836 C1839 1.387 . S
H1837 C1833 0.950 . S
H1838 C1835 0.950 . S
C1839 C1830 1.390 . S
C1839 H1832 0.950 . S
C1839 C1836 1.387 . S
C1840 C1841 1.387 . S
C1840 H1844 0.950 . S
C1840 C1849 1.390 . S
C1841 C1840 1.387 . S
C1841 C1843 1.387 . S
H1842 C1849 0.950 . S
C1843 C1841 1.387 . S
C1843 C1845 1.390 . S
C1843 H1847 0.950 . S
H1844 C1840 0.950 . S
C1845 C1843 1.390 . S
C1845 C1846 1.387 . S
C1845 H1848 0.950 . S
C1846 C1845 1.387 . S
C1846 C1849 1.387 . S
H1847 C1843 0.950 . S
H1848 C1845 0.950 . S
C1849 C1840 1.390 . S
C1849 H1842 0.950 . S
C1849 C1846 1.387 . S
C1850 C1851 1.387 . S
C1850 H1854 0.950 . S
C1850 C1859 1.390 . S
C1851 C1850 1.387 . S
C1851 C1853 1.387 . S
H1852 C1859 0.950 1_455 S
C1853 C1851 1.387 . S
C1853 C1855 1.390 . S
C1853 H1857 0.950 . S
H1854 C1850 0.950 . S
C1855 C1853 1.390 . S
C1855 C1856 1.387 . S
C1855 H1858 0.950 . S
C1856 C1855 1.387 . S
C1856 C1859 1.387 . S
H1857 C1853 0.950 . S
H1858 C1855 0.950 . S
C1859 C1850 1.390 . S
C1859 H1852 0.950 1_655 S
C1859 C1856 1.387 . S
C1860 C1861 1.387 . S
C1860 H1864 0.950 . S
C1860 C1869 1.390 . S
C1861 C1860 1.387 . S
C1861 C1863 1.387 . S
H1862 C1869 0.950 . S
C1863 C1861 1.387 . S
C1863 C1865 1.390 . S
C1863 H1867 0.950 . S
H1864 C1860 0.950 . S
C1865 C1863 1.390 . S
C1865 C1866 1.387 . S
C1865 H1868 0.950 . S
C1866 C1865 1.387 . S
C1866 C1869 1.387 . S
H1867 C1863 0.950 . S
H1868 C1865 0.950 . S
C1869 C1860 1.390 . S
C1869 H1862 0.950 . S
C1869 C1866 1.387 . S
C1870 C1871 1.387 . S
C1870 H1874 0.950 . S
C1870 C1879 1.390 . S
C1871 C1870 1.387 . S
C1871 C1873 1.387 . S
H1872 C1879 0.950 . S
C1873 C1871 1.387 . S
C1873 C1875 1.390 . S
C1873 H1877 0.950 . S
H1874 C1870 0.950 . S
C1875 C1873 1.390 . S
C1875 C1876 1.387 . S
C1875 H1878 0.950 . S
C1876 C1875 1.387 . S
C1876 C1879 1.387 . S
H1877 C1873 0.950 . S
H1878 C1875 0.950 . S
C1879 C1870 1.390 . S
C1879 H1872 0.950 . S
C1879 C1876 1.387 . S
C1880 C1881 1.387 . S
C1880 H1884 0.950 . S
C1880 C1889 1.390 . S
C1881 C1880 1.387 . S
C1881 C1883 1.387 . S
H1882 C1889 0.950 1_455 S
C1883 C1881 1.387 . S
C1883 C1885 1.390 . S
C1883 H1887 0.950 . S
H1884 C1880 0.950 . S
C1885 C1883 1.390 . S
C1885 C1886 1.387 . S
C1885 H1888 0.950 . S
C1886 C1885 1.387 . S
C1886 C1889 1.387 . S
H1887 C1883 0.950 . S
H1888 C1885 0.950 . S
C1889 C1880 1.390 . S
C1889 H1882 0.950 1_655 S
C1889 C1886 1.387 . S
C1890 C1891 1.387 . S
C1890 H1894 0.950 . S
C1890 C1899 1.390 . S
C1891 C1890 1.387 . S
C1891 C1893 1.387 . S
H1892 C1899 0.950 . S
C1893 C1891 1.387 . S
C1893 C1895 1.390 . S
C1893 H1897 0.950 . S
H1894 C1890 0.950 . S
C1895 C1893 1.390 . S
C1895 C1896 1.387 . S
C1895 H1898 0.950 . S
C1896 C1895 1.387 . S
C1896 C1899 1.387 . S
H1897 C1893 0.950 . S
H1898 C1895 0.950 . S
C1899 C1890 1.390 . S
C1899 H1892 0.950 . S
C1899 C1896 1.387 . S
C1900 C1901 1.387 . S
C1900 H1904 0.950 . S
C1900 C1909 1.390 . S
C1901 C1900 1.387 . S
C1901 C1903 1.387 . S
H1902 C1909 0.950 . S
C1903 C1901 1.387 . S
C1903 C1905 1.390 . S
C1903 H1907 0.946 1_565 S
H1904 C1900 0.950 . S
C1905 C1903 1.390 . S
C1905 C1906 1.387 . S
C1905 H1908 0.950 . S
C1906 C1905 1.387 . S
C1906 C1909 1.387 . S
H1907 C1903 0.946 1_545 S
H1908 C1905 0.950 . S
C1909 C1900 1.390 . S
C1909 H1902 0.950 . S
C1909 C1906 1.387 . S
C1910 C1911 1.387 . S
C1910 H1914 0.950 . S
C1910 C1919 1.390 . S
C1911 C1910 1.387 . S
C1911 C1913 1.387 . S
H1912 C1919 0.950 . S
C1913 C1911 1.387 . S
C1913 C1915 1.390 . S
C1913 H1917 0.950 . S
H1914 C1910 0.950 . S
C1915 C1913 1.390 . S
C1915 C1916 1.387 . S
C1915 H1918 0.950 . S
C1916 C1915 1.387 . S
C1916 C1919 1.387 . S
H1917 C1913 0.950 . S
H1918 C1915 0.950 . S
C1919 C1910 1.390 . S
C1919 H1912 0.950 . S
C1919 C1916 1.387 . S
C1920 C1921 1.387 . S
C1920 H1924 0.950 . S
C1920 C1929 1.390 . S
C1921 C1920 1.387 . S
C1921 C1923 1.387 . S
H1922 C1929 0.950 . S
C1923 C1921 1.387 . S
C1923 C1925 1.390 . S
C1923 H1927 0.950 . S
H1924 C1920 0.950 . S
C1925 C1923 1.390 . S
C1925 C1926 1.387 . S
C1925 H1928 0.950 . S
C1926 C1925 1.387 . S
C1926 C1929 1.387 . S
H1927 C1923 0.950 . S
H1928 C1925 0.950 . S
C1929 C1920 1.390 . S
C1929 H1922 0.950 . S
C1929 C1926 1.387 . S
C1930 C1931 1.387 . S
C1930 H1934 0.950 . S
C1930 C1939 1.390 . S
C1931 C1930 1.387 . S
C1931 C1933 1.387 . S
H1932 C1939 0.950 . S
C1933 C1931 1.387 . S
C1933 C1935 1.390 . S
C1933 H1937 0.950 . S
H1934 C1930 0.950 . S
C1935 C1933 1.390 . S
C1935 C1936 1.387 . S
C1935 H1938 0.950 . S
C1936 C1935 1.387 . S
C1936 C1939 1.387 . S
H1937 C1933 0.950 . S
H1938 C1935 0.950 . S
C1939 C1930 1.390 . S
C1939 H1932 0.950 . S
C1939 C1936 1.387 . S
C1940 C1941 1.387 . S
C1940 H1944 0.950 . S
C1940 C1949 1.390 . S
C1941 C1940 1.387 . S
C1941 C1943 1.387 . S
H1942 C1949 0.950 . S
C1943 C1941 1.387 . S
C1943 C1945 1.390 . S
C1943 H1947 0.950 . S
H1944 C1940 0.950 . S
C1945 C1943 1.390 . S
C1945 C1946 1.387 . S
C1945 H1948 0.950 . S
C1946 C1945 1.387 . S
C1946 C1949 1.387 . S
H1947 C1943 0.950 . S
H1948 C1945 0.950 . S
C1949 C1940 1.390 . S
C1949 H1942 0.950 . S
C1949 C1946 1.387 . S
C1950 C1951 1.387 . S
C1950 H1954 0.950 . S
C1950 C1959 1.390 . S
C1951 C1950 1.387 . S
C1951 C1953 1.387 . S
H1952 C1959 0.950 . S
C1953 C1951 1.387 . S
C1953 C1955 1.390 . S
C1953 H1957 0.950 . S
H1954 C1950 0.950 . S
C1955 C1953 1.390 . S
C1955 C1956 1.387 . S
C1955 H1958 0.950 . S
C1956 C1955 1.387 . S
C1956 C1959 1.387 . S
H1957 C1953 0.950 . S
H1958 C1955 0.950 . S
C1959 C1950 1.390 . S
C1959 H1952 0.950 . S
C1959 C1956 1.387 . S
C1960 C1961 1.387 . S
C1960 H1964 0.950 . S
C1960 C1969 1.390 . S
C1961 C1960 1.387 . S
C1961 C1963 1.387 . S
H1962 C1969 0.950 . S
C1963 C1961 1.387 . S
C1963 C1965 1.390 . S
C1963 H1967 0.950 . S
H1964 C1960 0.950 . S
C1965 C1963 1.390 . S
C1965 C1966 1.387 . S
C1965 H1968 0.950 . S
C1966 C1965 1.387 . S
C1966 C1969 1.387 . S
H1967 C1963 0.950 . S
H1968 C1965 0.950 . S
C1969 C1960 1.390 . S
C1969 H1962 0.950 . S
C1969 C1966 1.387 . S
C1970 C1971 1.387 . S
C1970 H1974 0.950 . S
C1970 C1979 1.390 . S
C1971 C1970 1.387 . S
C1971 C1973 1.387 . S
H1972 C1979 0.950 . S
C1973 C1971 1.387 . S
C1973 C1975 1.390 . S
C1973 H1977 0.950 . S
H1974 C1970 0.950 . S
C1975 C1973 1.390 . S
C1975 C1976 1.387 . S
C1975 H1978 0.950 . S
C1976 C1975 1.387 . S
C1976 C1979 1.387 . S
H1977 C1973 0.950 . S
H1978 C1975 0.950 . S
C1979 C1970 1.390 . S
C1979 H1972 0.950 . S
C1979 C1976 1.387 . S
C1980 C1981 1.387 . S
C1980 H1984 0.950 . S
C1980 C1989 1.390 . S
C1981 C1980 1.387 . S
C1981 C1983 1.387 . S
H1982 C1989 0.950 . S
C1983 C1981 1.387 . S
C1983 C1985 1.390 . S
C1983 H1987 0.950 . S
H1984 C1980 0.950 . S
C1985 C1983 1.390 . S
C1985 C1986 1.387 . S
C1985 H1988 0.950 . S
C1986 C1985 1.387 . S
C1986 C1989 1.387 . S
H1987 C1983 0.950 . S
H1988 C1985 0.950 . S
C1989 C1980 1.390 . S
C1989 H1982 0.950 . S
C1989 C1986 1.387 . S
C1990 C1991 1.387 . S
C1990 H1994 0.950 . S
C1990 C1999 1.390 . S
C1991 C1990 1.387 . S
C1991 C1993 1.387 . S
H1992 C1999 0.950 . S
C1993 C1991 1.387 . S
C1993 C1995 1.390 . S
C1993 H1997 0.950 . S
H1994 C1990 0.950 . S
C1995 C1993 1.390 . S
C1995 C1996 1.387 . S
C1995 H1998 0.950 . S
C1996 C1995 1.387 . S
C1996 C1999 1.387 . S
H1997 C1993 0.950 . S
H1998 C1995 0.950 . S
C1999 C1990 1.390 . S
C1999 H1992 0.950 . S
C1999 C1996 1.387 . S
C2000 C2001 1.387 . S
C2000 H2004 0.950 . S
C2000 C2009 1.390 . S
C2001 C2000 1.387 . S
C2001 C2003 1.387 . S
H2002 C2009 0.950 . S
C2003 C2001 1.387 . S
C2003 C2005 1.390 . S
C2003 H2007 0.950 . S
H2004 C2000 0.950 . S
C2005 C2003 1.390 . S
C2005 C2006 1.387 . S
C2005 H2008 0.950 . S
C2006 C2005 1.387 . S
C2006 C2009 1.387 . S
H2007 C2003 0.950 . S
H2008 C2005 0.950 . S
C2009 C2000 1.390 . S
C2009 H2002 0.950 . S
C2009 C2006 1.387 . S
C2010 C2011 1.389 . S
C2010 H2014 0.950 . S
C2010 C2019 1.390 1_565 S
C2011 C2010 1.389 . S
C2011 C2013 1.386 1_556 S
H2012 C2019 0.950 . S
C2013 C2011 1.386 1_554 S
C2013 C2015 1.390 1_565 S
C2013 H2017 0.950 . S
H2014 C2010 0.950 . S
C2015 C2013 1.390 1_545 S
C2015 C2016 1.387 1_554 S
C2015 H2018 0.950 . S
C2016 C2015 1.387 1_556 S
C2016 C2019 1.387 . S
H2017 C2013 0.950 . S
H2018 C2015 0.950 . S
C2019 C2010 1.390 1_545 S
C2019 H2012 0.950 . S
C2019 C2016 1.387 . S
C2020 C2021 1.380 1_554 S
C2020 H2024 0.950 . S
C2020 C2029 1.390 1_455 S
C2021 C2020 1.380 1_556 S
C2021 C2023 1.396 . S
H2022 C2029 0.950 . S
C2023 C2021 1.396 . S
C2023 C2025 1.390 1_455 S
C2023 H2027 0.950 . S
H2024 C2020 0.950 . S
C2025 C2023 1.390 1_655 S
C2025 C2026 1.387 . S
C2025 H2028 0.950 . S
C2026 C2025 1.387 . S
C2026 C2029 1.387 1_556 S
H2027 C2023 0.950 . S
H2028 C2025 0.950 . S
C2029 C2020 1.390 1_655 S
C2029 H2022 0.950 . S
C2029 C2026 1.387 1_554 S
C2030 C2031 1.387 . S
C2030 H2034 0.950 . S
C2030 C2039 1.390 . S
C2031 C2030 1.387 . S
C2031 C2033 1.387 1_556 S
H2032 C2039 0.950 . S
C2033 C2031 1.387 1_554 S
C2033 C2035 1.390 . S
C2033 H2037 0.950 . S
H2034 C2030 0.950 . S
C2035 C2033 1.390 . S
C2035 C2036 1.380 1_554 S
C2035 H2038 0.950 . S
C2036 C2035 1.380 1_556 S
C2036 C2039 1.397 . S
H2037 C2033 0.950 . S
H2038 C2035 0.950 . S
C2039 C2030 1.390 . S
C2039 H2032 0.950 . S
C2039 C2036 1.397 . S
C2040 C2041 1.387 . S
C2040 H2044 0.950 . S
C2040 C2049 1.390 . S
C2041 C2040 1.387 . S
C2041 C2043 1.387 . S
H2042 C2049 0.950 . S
C2043 C2041 1.387 . S
C2043 C2045 1.390 . S
C2043 H2047 0.950 . S
H2044 C2040 0.950 . S
C2045 C2043 1.390 . S
C2045 C2046 1.387 . S
C2045 H2048 0.950 . S
C2046 C2045 1.387 . S
C2046 C2049 1.387 . S
H2047 C2043 0.950 . S
H2048 C2045 0.950 . S
C2049 C2040 1.390 . S
C2049 H2042 0.950 . S
C2049 C2046 1.387 . S
C2050 C2051 1.387 . S
C2050 H2054 0.950 . S
C2050 C2059 1.390 . S
C2051 C2050 1.387 . S
C2051 C2053 1.387 . S
H2052 C2059 0.950 . S
C2053 C2051 1.387 . S
C2053 C2055 1.390 . S
C2053 H2057 0.950 . S
H2054 C2050 0.950 . S
C2055 C2053 1.390 . S
C2055 C2056 1.387 . S
C2055 H2058 0.950 . S
C2056 C2055 1.387 . S
C2056 C2059 1.387 . S
H2057 C2053 0.950 . S
H2058 C2055 0.950 . S
C2059 C2050 1.390 . S
C2059 H2052 0.950 . S
C2059 C2056 1.387 . S
C2060 C2061 1.387 . S
C2060 H2064 0.950 . S
C2060 C2069 1.390 . S
C2061 C2060 1.387 . S
C2061 C2063 1.387 . S
H2062 C2069 0.950 . S
C2063 C2061 1.387 . S
C2063 C2065 1.390 . S
C2063 H2067 0.950 . S
H2064 C2060 0.950 . S
C2065 C2063 1.390 . S
C2065 C2066 1.387 . S
C2065 H2068 0.950 . S
C2066 C2065 1.387 . S
C2066 C2069 1.387 . S
H2067 C2063 0.950 . S
H2068 C2065 0.950 . S
C2069 C2060 1.390 . S
C2069 H2062 0.950 . S
C2069 C2066 1.387 . S
C2070 C2071 1.387 . S
C2070 H2074 0.950 . S
C2070 C2079 1.390 1_565 S
C2071 C2070 1.387 . S
C2071 C2073 1.387 1_554 S
H2072 C2079 0.950 . S
C2073 C2071 1.387 1_556 S
C2073 C2075 1.390 1_565 S
C2073 H2077 0.950 . S
H2074 C2070 0.950 . S
C2075 C2073 1.390 1_545 S
C2075 C2076 1.381 1_556 S
C2075 H2078 0.950 . S
C2076 C2075 1.381 1_554 S
C2076 C2079 1.396 . S
H2077 C2073 0.950 . S
H2078 C2075 0.950 . S
C2079 C2070 1.390 1_545 S
C2079 H2072 0.950 . S
C2079 C2076 1.396 . S
C2080 C2081 1.382 1_556 S
C2080 H2084 0.950 . S
C2080 C2089 1.390 1_655 S
C2081 C2080 1.382 1_554 S
C2081 C2083 1.394 . S
H2082 C2089 0.950 . S
C2083 C2081 1.394 . S
C2083 C2085 1.390 1_655 S
C2083 H2087 0.950 . S
H2084 C2080 0.950 . S
C2085 C2083 1.390 1_455 S
C2085 C2086 1.387 . S
C2085 H2088 0.950 . S
C2086 C2085 1.387 . S
C2086 C2089 1.387 1_554 S
H2087 C2083 0.950 . S
H2088 C2085 0.950 . S
C2089 C2080 1.390 1_455 S
C2089 H2082 0.950 . S
C2089 C2086 1.387 1_556 S
C2090 C2091 1.387 . S
C2090 H2094 0.950 . S
C2090 C2099 1.390 . S
C2091 C2090 1.387 . S
C2091 C2093 1.387 1_554 S
H2092 C2099 0.950 . S
C2093 C2091 1.387 1_556 S
C2093 C2095 1.390 . S
C2093 H2097 0.950 . S
H2094 C2090 0.950 . S
C2095 C2093 1.390 . S
C2095 C2096 1.381 1_556 S
C2095 H2098 0.950 . S
C2096 C2095 1.381 1_554 S
C2096 C2099 1.395 . S
H2097 C2093 0.950 . S
H2098 C2095 0.950 . S
C2099 C2090 1.390 . S
C2099 H2092 0.950 . S
C2099 C2096 1.395 . S
C2100 C2101 1.387 . S
C2100 H2104 0.950 . S
C2100 C2109 1.390 . S
C2101 C2100 1.387 . S
C2101 C2103 1.387 . S
H2102 C2109 0.950 . S
C2103 C2101 1.387 . S
C2103 C2105 1.390 . S
C2103 H2107 0.950 . S
H2104 C2100 0.950 . S
C2105 C2103 1.390 . S
C2105 C2106 1.387 . S
C2105 H2108 0.950 . S
C2106 C2105 1.387 . S
C2106 C2109 1.387 . S
H2107 C2103 0.950 . S
H2108 C2105 0.950 . S
C2109 C2100 1.390 . S
C2109 H2102 0.950 . S
C2109 C2106 1.387 . S
C2110 C2111 1.387 . S
C2110 H2114 0.950 . S
C2110 C2119 1.390 . S
C2111 C2110 1.387 . S
C2111 C2113 1.387 . S
H2112 C2119 0.950 . S
C2113 C2111 1.387 . S
C2113 C2115 1.390 . S
C2113 H2117 0.950 . S
H2114 C2110 0.950 . S
C2115 C2113 1.390 . S
C2115 C2116 1.387 . S
C2115 H2118 0.950 . S
C2116 C2115 1.387 . S
C2116 C2119 1.387 . S
H2117 C2113 0.950 . S
H2118 C2115 0.950 . S
C2119 C2110 1.390 . S
C2119 H2112 0.950 . S
C2119 C2116 1.387 . S
C2120 C2121 1.387 . S
C2120 H2124 0.950 . S
C2120 C2129 1.390 . S
C2121 C2120 1.387 . S
C2121 C2123 1.387 . S
H2122 C2129 0.950 . S
C2123 C2121 1.387 . S
C2123 C2125 1.390 . S
C2123 H2127 0.950 . S
H2124 C2120 0.950 . S
C2125 C2123 1.390 . S
C2125 C2126 1.387 . S
C2125 H2128 0.950 . S
C2126 C2125 1.387 . S
C2126 C2129 1.387 . S
H2127 C2123 0.950 . S
H2128 C2125 0.950 . S
C2129 C2120 1.390 . S
C2129 H2122 0.950 . S
C2129 C2126 1.387 . S
C2130 C2131 1.387 . S
C2130 H2134 0.950 . S
C2130 C2139 1.390 . S
C2131 C2130 1.387 . S
C2131 C2133 1.387 . S
H2132 C2139 0.950 . S
C2133 C2131 1.387 . S
C2133 C2135 1.390 . S
C2133 H2137 0.950 . S
H2134 C2130 0.950 . S
C2135 C2133 1.390 . S
C2135 C2136 1.387 . S
C2135 H2138 0.950 . S
C2136 C2135 1.387 . S
C2136 C2139 1.387 . S
H2137 C2133 0.950 . S
H2138 C2135 0.950 . S
C2139 C2130 1.390 . S
C2139 H2132 0.950 . S
C2139 C2136 1.387 . S
C2140 C2141 1.387 . S
C2140 H2144 0.950 . S
C2140 C2149 1.390 . S
C2141 C2140 1.387 . S
C2141 C2143 1.387 . S
H2142 C2149 0.950 . S
C2143 C2141 1.387 . S
C2143 C2145 1.390 . S
C2143 H2147 0.950 . S
H2144 C2140 0.950 . S
C2145 C2143 1.390 . S
C2145 C2146 1.387 . S
C2145 H2148 0.950 . S
C2146 C2145 1.387 . S
C2146 C2149 1.387 . S
H2147 C2143 0.950 . S
H2148 C2145 0.950 . S
C2149 C2140 1.390 . S
C2149 H2142 0.950 . S
C2149 C2146 1.387 . S
C2150 C2151 1.387 . S
C2150 H2154 0.950 . S
C2150 C2159 1.390 . S
C2151 C2150 1.387 . S
C2151 C2153 1.387 . S
H2152 C2159 0.950 . S
C2153 C2151 1.387 . S
C2153 C2155 1.390 . S
C2153 H2157 0.950 . S
H2154 C2150 0.950 . S
C2155 C2153 1.390 . S
C2155 C2156 1.387 . S
C2155 H2158 0.950 . S
C2156 C2155 1.387 . S
C2156 C2159 1.387 . S
H2157 C2153 0.950 . S
H2158 C2155 0.950 . S
C2159 C2150 1.390 . S
C2159 H2152 0.950 . S
C2159 C2156 1.387 . S
C2160 C2161 1.387 . S
C2160 H2164 0.950 . S
C2160 C2169 1.390 . S
C2161 C2160 1.387 . S
C2161 C2163 1.387 . S
H2162 C2169 0.950 . S
C2163 C2161 1.387 . S
C2163 C2165 1.390 . S
C2163 H2167 0.950 . S
H2164 C2160 0.950 . S
C2165 C2163 1.390 . S
C2165 C2166 1.387 . S
C2165 H2168 0.950 . S
C2166 C2165 1.387 . S
C2166 C2169 1.387 . S
H2167 C2163 0.950 . S
H2168 C2165 0.950 . S
C2169 C2160 1.390 . S
C2169 H2162 0.950 . S
C2169 C2166 1.387 . S
C2170 C2171 1.387 . S
C2170 H2174 0.950 . S
C2170 C2179 1.390 . S
C2171 C2170 1.387 . S
C2171 C2173 1.387 . S
H2172 C2179 0.950 . S
C2173 C2171 1.387 . S
C2173 C2175 1.390 . S
C2173 H2177 0.950 . S
H2174 C2170 0.950 . S
C2175 C2173 1.390 . S
C2175 C2176 1.387 . S
C2175 H2178 0.950 . S
C2176 C2175 1.387 . S
C2176 C2179 1.387 . S
H2177 C2173 0.950 . S
H2178 C2175 0.950 . S
C2179 C2170 1.390 . S
C2179 H2172 0.950 . S
C2179 C2176 1.387 . S
C2180 C2181 1.387 . S
C2180 H2184 0.950 . S
C2180 C2189 1.390 . S
C2181 C2180 1.387 . S
C2181 C2183 1.387 . S
H2182 C2189 0.950 . S
C2183 C2181 1.387 . S
C2183 C2185 1.390 . S
C2183 H2187 0.950 . S
H2184 C2180 0.950 . S
C2185 C2183 1.390 . S
C2185 C2186 1.387 . S
C2185 H2188 0.950 . S
C2186 C2185 1.387 . S
C2186 C2189 1.387 . S
H2187 C2183 0.950 . S
H2188 C2185 0.950 . S
C2189 C2180 1.390 . S
C2189 H2182 0.950 . S
C2189 C2186 1.387 . S
C2190 C2191 1.387 . S
C2190 H2194 0.950 . S
C2190 C2199 1.390 . S
C2191 C2190 1.387 . S
C2191 C2193 1.387 . S
H2192 C2199 0.950 . S
C2193 C2191 1.387 . S
C2193 C2195 1.390 . S
C2193 H2197 0.950 . S
H2194 C2190 0.950 . S
C2195 C2193 1.390 . S
C2195 C2196 1.387 . S
C2195 H2198 0.950 . S
C2196 C2195 1.387 . S
C2196 C2199 1.387 . S
H2197 C2193 0.950 . S
H2198 C2195 0.950 . S
C2199 C2190 1.390 . S
C2199 H2192 0.950 . S
C2199 C2196 1.387 . S
C2200 C2201 1.387 . S
C2200 H2204 0.950 . S
C2200 C2209 1.390 . S
C2201 C2200 1.387 . S
C2201 C2203 1.387 . S
H2202 C2209 0.950 . S
C2203 C2201 1.387 . S
C2203 C2205 1.390 . S
C2203 H2207 0.950 . S
H2204 C2200 0.950 . S
C2205 C2203 1.390 . S
C2205 C2206 1.387 . S
C2205 H2208 0.950 . S
C2206 C2205 1.387 . S
C2206 C2209 1.387 . S
H2207 C2203 0.950 . S
H2208 C2205 0.950 . S
C2209 C2200 1.390 . S
C2209 H2202 0.950 . S
C2209 C2206 1.387 . S
C2210 C2211 1.387 . S
C2210 H2214 0.950 . S
C2210 C2219 1.390 . S
C2211 C2210 1.387 . S
C2211 C2213 1.387 . S
H2212 C2219 0.950 . S
C2213 C2211 1.387 . S
C2213 C2215 1.390 . S
C2213 H2217 0.950 . S
H2214 C2210 0.950 . S
C2215 C2213 1.390 . S
C2215 C2216 1.387 . S
C2215 H2218 0.950 . S
C2216 C2215 1.387 . S
C2216 C2219 1.387 . S
H2217 C2213 0.950 . S
H2218 C2215 0.950 . S
C2219 C2210 1.390 . S
C2219 H2212 0.950 . S
C2219 C2216 1.387 . S
C2220 C2221 1.387 . S
C2220 H2224 0.950 . S
C2220 C2229 1.390 . S
C2221 C2220 1.387 . S
C2221 C2223 1.387 . S
H2222 C2229 0.950 . S
C2223 C2221 1.387 . S
C2223 C2225 1.390 . S
C2223 H2227 0.950 . S
H2224 C2220 0.950 . S
C2225 C2223 1.390 . S
C2225 C2226 1.387 . S
C2225 H2228 0.950 . S
C2226 C2225 1.387 . S
C2226 C2229 1.387 . S
H2227 C2223 0.950 . S
H2228 C2225 0.950 . S
C2229 C2220 1.390 . S
C2229 H2222 0.950 . S
C2229 C2226 1.387 . S
C2230 C2231 1.387 . S
C2230 H2234 0.950 . S
C2230 C2239 1.390 . S
C2231 C2230 1.387 . S
C2231 C2233 1.387 . S
H2232 C2239 0.950 . S
C2233 C2231 1.387 . S
C2233 C2235 1.390 . S
C2233 H2237 0.950 . S
H2234 C2230 0.950 . S
C2235 C2233 1.390 . S
C2235 C2236 1.387 . S
C2235 H2238 0.950 . S
C2236 C2235 1.387 . S
C2236 C2239 1.387 . S
H2237 C2233 0.950 . S
H2238 C2235 0.950 . S
C2239 C2230 1.390 . S
C2239 H2232 0.950 . S
C2239 C2236 1.387 . S
C2240 C2241 1.387 . S
C2240 H2244 0.950 . S
C2240 C2249 1.390 . S
C2241 C2240 1.387 . S
C2241 C2243 1.387 . S
H2242 C2249 0.950 . S
C2243 C2241 1.387 . S
C2243 C2245 1.390 . S
C2243 H2247 0.950 . S
H2244 C2240 0.950 . S
C2245 C2243 1.390 . S
C2245 C2246 1.387 . S
C2245 H2248 0.950 . S
C2246 C2245 1.387 . S
C2246 C2249 1.387 . S
H2247 C2243 0.950 . S
H2248 C2245 0.950 . S
C2249 C2240 1.390 . S
C2249 H2242 0.950 . S
C2249 C2246 1.387 . S
C2250 C2251 1.387 . S
C2250 H2254 0.950 . S
C2250 C2259 1.390 . S
C2251 C2250 1.387 . S
C2251 C2253 1.387 . S
H2252 C2259 0.950 . S
C2253 C2251 1.387 . S
C2253 C2255 1.390 . S
C2253 H2257 0.950 . S
H2254 C2250 0.950 . S
C2255 C2253 1.390 . S
C2255 C2256 1.387 . S
C2255 H2258 0.950 . S
C2256 C2255 1.387 . S
C2256 C2259 1.387 . S
H2257 C2253 0.950 . S
H2258 C2255 0.950 . S
C2259 C2250 1.390 . S
C2259 H2252 0.950 . S
C2259 C2256 1.387 . S
C2260 C2261 1.387 . S
C2260 H2264 0.950 . S
C2260 C2269 1.390 . S
C2261 C2260 1.387 . S
C2261 C2263 1.387 . S
H2262 C2269 0.950 . S
C2263 C2261 1.387 . S
C2263 C2265 1.390 . S
C2263 H2267 0.950 . S
H2264 C2260 0.950 . S
C2265 C2263 1.390 . S
C2265 C2266 1.387 . S
C2265 H2268 0.950 . S
C2266 C2265 1.387 . S
C2266 C2269 1.387 . S
H2267 C2263 0.950 . S
H2268 C2265 0.950 . S
C2269 C2260 1.390 . S
C2269 H2262 0.950 . S
C2269 C2266 1.387 . S
C2270 C2271 1.387 . S
C2270 H2274 0.950 . S
C2270 C2279 1.390 . S
C2271 C2270 1.387 . S
C2271 C2273 1.387 . S
H2272 C2279 0.950 . S
C2273 C2271 1.387 . S
C2273 C2275 1.390 . S
C2273 H2277 0.950 . S
H2274 C2270 0.950 . S
C2275 C2273 1.390 . S
C2275 C2276 1.387 . S
C2275 H2278 0.950 . S
C2276 C2275 1.387 . S
C2276 C2279 1.387 . S
H2277 C2273 0.950 . S
H2278 C2275 0.950 . S
C2279 C2270 1.390 . S
C2279 H2272 0.950 . S
C2279 C2276 1.387 . S
C2280 C2281 1.387 . S
C2280 H2284 0.954 1_455 S
C2280 C2289 1.390 . S
C2281 C2280 1.387 . S
C2281 C2283 1.387 . S
H2282 C2289 0.950 . S
C2283 C2281 1.387 . S
C2283 C2285 1.390 . S
C2283 H2287 0.950 . S
H2284 C2280 0.954 1_655 S
C2285 C2283 1.390 . S
C2285 C2286 1.387 . S
C2285 H2288 0.950 . S
C2286 C2285 1.387 . S
C2286 C2289 1.387 . S
H2287 C2283 0.950 . S
H2288 C2285 0.950 . S
C2289 C2280 1.390 . S
C2289 H2282 0.950 . S
C2289 C2286 1.387 . S
C2290 C2291 1.387 . S
C2290 H2294 0.950 . S
C2290 C2299 1.390 . S
C2291 C2290 1.387 . S
C2291 C2293 1.387 . S
H2292 C2299 0.950 . S
C2293 C2291 1.387 . S
C2293 C2295 1.390 . S
C2293 H2297 0.950 . S
H2294 C2290 0.950 . S
C2295 C2293 1.390 . S
C2295 C2296 1.387 . S
C2295 H2298 0.950 . S
C2296 C2295 1.387 . S
C2296 C2299 1.387 . S
H2297 C2293 0.950 . S
H2298 C2295 0.950 . S
C2299 C2290 1.390 . S
C2299 H2292 0.950 . S
C2299 C2296 1.387 . S
C2300 C2301 1.387 . S
C2300 H2304 0.950 . S
C2300 C2309 1.390 . S
C2301 C2300 1.387 . S
C2301 C2303 1.387 1_565 S
H2302 C2309 0.950 . S
C2303 C2301 1.387 1_545 S
C2303 C2305 1.390 . S
C2303 H2307 0.950 . S
H2304 C2300 0.950 . S
C2305 C2303 1.390 . S
C2305 C2306 1.387 1_545 S
C2305 H2308 0.950 . S
C2306 C2305 1.387 1_565 S
C2306 C2309 1.387 . S
H2307 C2303 0.950 . S
H2308 C2305 0.950 . S
C2309 C2300 1.390 . S
C2309 H2302 0.950 . S
C2309 C2306 1.387 . S
C2310 C2311 1.387 . S
C2310 H2314 0.950 . S
C2310 C2319 1.390 . S
C2311 C2310 1.387 . S
C2311 C2313 1.387 1_545 S
H2312 C2319 0.950 . S
C2313 C2311 1.387 1_565 S
C2313 C2315 1.390 . S
C2313 H2317 0.950 . S
H2314 C2310 0.950 . S
C2315 C2313 1.390 . S
C2315 C2316 1.387 1_565 S
C2315 H2318 0.950 . S
C2316 C2315 1.387 1_545 S
C2316 C2319 1.387 . S
H2317 C2313 0.950 . S
H2318 C2315 0.950 . S
C2319 C2310 1.390 . S
C2319 H2312 0.950 . S
C2319 C2316 1.387 . S
C2320 C2321 1.387 . S
C2320 H2324 0.950 . S
C2320 C2329 1.390 . S
C2321 C2320 1.387 . S
C2321 C2323 1.391 1_655 S
H2322 C2329 0.950 . S
C2323 C2321 1.391 1_455 S
C2323 C2325 1.385 1_455 S
C2323 H2327 0.951 . S
H2324 C2320 0.950 . S
C2325 C2323 1.385 1_655 S
C2325 C2326 1.387 . S
C2325 H2328 0.950 1_655 S
C2326 C2325 1.387 . S
C2326 C2329 1.387 . S
H2327 C2323 0.951 . S
H2328 C2325 0.950 1_455 S
C2329 C2320 1.390 . S
C2329 H2322 0.950 . S
C2329 C2326 1.387 . S
C2330 C2331 1.387 . S
C2330 H2334 0.950 . S
C2330 C2339 1.390 . S
C2331 C2330 1.387 . S
C2331 C2333 1.387 . S
H2332 C2339 0.950 . S
C2333 C2331 1.387 . S
C2333 C2335 1.390 . S
C2333 H2337 0.950 . S
H2334 C2330 0.950 . S
C2335 C2333 1.390 . S
C2335 C2336 1.387 . S
C2335 H2338 0.950 . S
C2336 C2335 1.387 . S
C2336 C2339 1.387 . S
H2337 C2333 0.950 . S
H2338 C2335 0.950 . S
C2339 C2330 1.390 . S
C2339 H2332 0.950 . S
C2339 C2336 1.387 . S
C2340 C2341 1.387 . S
C2340 H2344 0.950 1_455 S
C2340 C2349 1.390 . S
C2341 C2340 1.387 . S
C2341 C2343 1.387 . S
H2342 C2349 0.950 . S
C2343 C2341 1.387 . S
C2343 C2345 1.390 . S
C2343 H2347 0.950 . S
H2344 C2340 0.950 1_655 S
C2345 C2343 1.390 . S
C2345 C2346 1.387 . S
C2345 H2348 0.950 . S
C2346 C2345 1.387 . S
C2346 C2349 1.387 . S
H2347 C2343 0.950 . S
H2348 C2345 0.950 . S
C2349 C2340 1.390 . S
C2349 H2342 0.950 . S
C2349 C2346 1.387 . S
C2350 C2351 1.387 . S
C2350 H2354 0.950 . S
C2350 C2359 1.390 . S
C2351 C2350 1.387 . S
C2351 C2353 1.387 . S
H2352 C2359 0.950 . S
C2353 C2351 1.387 . S
C2353 C2355 1.390 . S
C2353 H2357 0.950 . S
H2354 C2350 0.950 . S
C2355 C2353 1.390 . S
C2355 C2356 1.387 . S
C2355 H2358 0.950 . S
C2356 C2355 1.387 . S
C2356 C2359 1.387 . S
H2357 C2353 0.950 . S
H2358 C2355 0.950 . S
C2359 C2350 1.390 . S
C2359 H2352 0.950 . S
C2359 C2356 1.387 . S
C2360 C2361 1.387 . S
C2360 H2364 0.950 . S
C2360 C2369 1.390 . S
C2361 C2360 1.387 . S
C2361 C2363 1.387 . S
H2362 C2369 0.950 . S
C2363 C2361 1.387 . S
C2363 C2365 1.390 . S
C2363 H2367 0.950 1_565 S
H2364 C2360 0.950 . S
C2365 C2363 1.390 . S
C2365 C2366 1.387 . S
C2365 H2368 0.950 . S
C2366 C2365 1.387 . S
C2366 C2369 1.387 . S
H2367 C2363 0.950 1_545 S
H2368 C2365 0.950 . S
C2369 C2360 1.390 . S
C2369 H2362 0.950 . S
C2369 C2366 1.387 . S
C2370 C2371 1.387 . S
C2370 H2374 0.950 . S
C2370 C2379 1.390 . S
C2371 C2370 1.387 . S
C2371 C2373 1.387 . S
H2372 C2379 0.950 . S
C2373 C2371 1.387 . S
C2373 C2375 1.390 . S
C2373 H2377 0.950 . S
H2374 C2370 0.950 . S
C2375 C2373 1.390 . S
C2375 C2376 1.387 . S
C2375 H2378 0.950 . S
C2376 C2375 1.387 . S
C2376 C2379 1.387 . S
H2377 C2373 0.950 . S
H2378 C2375 0.950 . S
C2379 C2370 1.390 . S
C2379 H2372 0.950 . S
C2379 C2376 1.387 . S
C2380 C2381 1.387 . S
C2380 H2384 0.950 . S
C2380 C2389 1.390 . S
C2381 C2380 1.387 . S
C2381 C2383 1.387 . S
H2382 C2389 0.950 . S
C2383 C2381 1.387 . S
C2383 C2385 1.390 . S
C2383 H2387 0.950 . S
H2384 C2380 0.950 . S
C2385 C2383 1.390 . S
C2385 C2386 1.387 . S
C2385 H2388 0.950 . S
C2386 C2385 1.387 . S
C2386 C2389 1.387 . S
H2387 C2383 0.950 . S
H2388 C2385 0.950 . S
C2389 C2380 1.390 . S
C2389 H2382 0.950 . S
C2389 C2386 1.387 . S
C2390 C2391 1.387 . S
C2390 H2394 0.950 . S
C2390 C2399 1.390 . S
C2391 C2390 1.387 . S
C2391 C2393 1.387 . S
H2392 C2399 0.950 . S
C2393 C2391 1.387 . S
C2393 C2395 1.390 . S
C2393 H2397 0.950 . S
H2394 C2390 0.950 . S
C2395 C2393 1.390 . S
C2395 C2396 1.387 . S
C2395 H2398 0.950 1_545 S
C2396 C2395 1.387 . S
C2396 C2399 1.387 . S
H2397 C2393 0.950 . S
H2398 C2395 0.950 1_565 S
C2399 C2390 1.390 . S
C2399 H2392 0.950 . S
C2399 C2396 1.387 . S
C2400 C2401 1.387 . S
C2400 H2404 0.950 . S
C2400 C2409 1.390 . S
C2401 C2400 1.387 . S
C2401 C2403 1.387 . S
H2402 C2409 0.950 . S
C2403 C2401 1.387 . S
C2403 C2405 1.390 . S
C2403 H2407 0.950 . S
H2404 C2400 0.950 . S
C2405 C2403 1.390 . S
C2405 C2406 1.387 . S
C2405 H2408 0.950 . S
C2406 C2405 1.387 . S
C2406 C2409 1.387 . S
H2407 C2403 0.950 . S
H2408 C2405 0.950 . S
C2409 C2400 1.390 . S
C2409 H2402 0.950 . S
C2409 C2406 1.387 . S
C2410 C2411 1.387 . S
C2410 H2414 0.950 . S
C2410 C2419 1.390 . S
C2411 C2410 1.387 . S
C2411 C2413 1.387 . S
H2412 C2419 0.950 . S
C2413 C2411 1.387 . S
C2413 C2415 1.390 . S
C2413 H2417 0.950 . S
H2414 C2410 0.950 . S
C2415 C2413 1.390 . S
C2415 C2416 1.387 . S
C2415 H2418 0.950 . S
C2416 C2415 1.387 . S
C2416 C2419 1.387 . S
H2417 C2413 0.950 . S
H2418 C2415 0.950 . S
C2419 C2410 1.390 . S
C2419 H2412 0.950 . S
C2419 C2416 1.387 . S
C2420 C2421 1.387 . S
C2420 H2424 0.950 . S
C2420 C2429 1.390 . S
C2421 C2420 1.387 . S
C2421 C2423 1.387 . S
H2422 C2429 0.950 . S
C2423 C2421 1.387 . S
C2423 C2425 1.390 . S
C2423 H2427 0.950 . S
H2424 C2420 0.950 . S
C2425 C2423 1.390 . S
C2425 C2426 1.387 . S
C2425 H2428 0.950 . S
C2426 C2425 1.387 . S
C2426 C2429 1.387 . S
H2427 C2423 0.950 . S
H2428 C2425 0.950 . S
C2429 C2420 1.390 . S
C2429 H2422 0.950 . S
C2429 C2426 1.387 . S
C2430 C2431 1.387 . S
C2430 H2434 0.950 . S
C2430 C2439 1.390 . S
C2431 C2430 1.387 . S
C2431 C2433 1.387 . S
H2432 C2439 0.950 . S
C2433 C2431 1.387 . S
C2433 C2435 1.390 . S
C2433 H2437 0.950 . S
H2434 C2430 0.950 . S
C2435 C2433 1.390 . S
C2435 C2436 1.387 . S
C2435 H2438 0.950 . S
C2436 C2435 1.387 . S
C2436 C2439 1.387 . S
H2437 C2433 0.950 . S
H2438 C2435 0.950 . S
C2439 C2430 1.390 . S
C2439 H2432 0.950 . S
C2439 C2436 1.387 . S
C2440 C2441 1.387 . S
C2440 H2444 0.950 . S
C2440 C2449 1.390 . S
C2441 C2440 1.387 . S
C2441 C2443 1.387 . S
H2442 C2449 0.950 . S
C2443 C2441 1.387 . S
C2443 C2445 1.390 . S
C2443 H2447 0.950 . S
H2444 C2440 0.950 . S
C2445 C2443 1.390 . S
C2445 C2446 1.387 . S
C2445 H2448 0.950 . S
C2446 C2445 1.387 . S
C2446 C2449 1.387 . S
H2447 C2443 0.950 . S
H2448 C2445 0.950 . S
C2449 C2440 1.390 . S
C2449 H2442 0.950 . S
C2449 C2446 1.387 . S
C2450 C2451 1.387 . S
C2450 H2454 0.950 . S
C2450 C2459 1.390 . S
C2451 C2450 1.387 . S
C2451 C2453 1.387 . S
H2452 C2459 0.950 . S
C2453 C2451 1.387 . S
C2453 C2455 1.390 . S
C2453 H2457 0.950 . S
H2454 C2450 0.950 . S
C2455 C2453 1.390 . S
C2455 C2456 1.387 . S
C2455 H2458 0.950 . S
C2456 C2455 1.387 . S
C2456 C2459 1.387 . S
H2457 C2453 0.950 . S
H2458 C2455 0.950 . S
C2459 C2450 1.390 . S
C2459 H2452 0.950 . S
C2459 C2456 1.387 . S
C2460 C2461 1.387 . S
C2460 H2464 0.950 . S
C2460 C2469 1.390 . S
C2461 C2460 1.387 . S
C2461 C2463 1.387 . S
H2462 C2469 0.950 . S
C2463 C2461 1.387 . S
C2463 C2465 1.390 . S
C2463 H2467 0.950 . S
H2464 C2460 0.950 . S
C2465 C2463 1.390 . S
C2465 C2466 1.387 . S
C2465 H2468 0.950 . S
C2466 C2465 1.387 . S
C2466 C2469 1.387 . S
H2467 C2463 0.950 . S
H2468 C2465 0.950 . S
C2469 C2460 1.390 . S
C2469 H2462 0.950 . S
C2469 C2466 1.387 . S
C2470 C2471 1.387 . S
C2470 H2474 0.950 . S
C2470 C2479 1.390 . S
C2471 C2470 1.387 . S
C2471 C2473 1.387 . S
H2472 C2479 0.950 . S
C2473 C2471 1.387 . S
C2473 C2475 1.390 . S
C2473 H2477 0.950 . S
H2474 C2470 0.950 . S
C2475 C2473 1.390 . S
C2475 C2476 1.387 . S
C2475 H2478 0.950 . S
C2476 C2475 1.387 . S
C2476 C2479 1.387 . S
H2477 C2473 0.950 . S
H2478 C2475 0.950 . S
C2479 C2470 1.390 . S
C2479 H2472 0.950 . S
C2479 C2476 1.387 . S
C2480 C2481 1.387 . S
C2480 H2484 0.950 . S
C2480 C2489 1.390 . S
C2481 C2480 1.387 . S
C2481 C2483 1.387 . S
H2482 C2489 0.950 . S
C2483 C2481 1.387 . S
C2483 C2485 1.390 . S
C2483 H2487 0.950 . S
H2484 C2480 0.950 . S
C2485 C2483 1.390 . S
C2485 C2486 1.387 . S
C2485 H2488 0.950 . S
C2486 C2485 1.387 . S
C2486 C2489 1.387 . S
H2487 C2483 0.950 . S
H2488 C2485 0.950 . S
C2489 C2480 1.390 . S
C2489 H2482 0.950 . S
C2489 C2486 1.387 . S
C2490 C2491 1.387 . S
C2490 H2494 0.950 . S
C2490 C2499 1.390 . S
C2491 C2490 1.387 . S
C2491 C2493 1.387 . S
H2492 C2499 0.950 . S
C2493 C2491 1.387 . S
C2493 C2495 1.390 . S
C2493 H2497 0.950 . S
H2494 C2490 0.950 . S
C2495 C2493 1.390 . S
C2495 C2496 1.387 . S
C2495 H2498 0.950 . S
C2496 C2495 1.387 . S
C2496 C2499 1.387 . S
H2497 C2493 0.950 . S
H2498 C2495 0.950 . S
C2499 C2490 1.390 . S
C2499 H2492 0.950 . S
C2499 C2496 1.387 . S
C2500 C2501 1.387 . S
C2500 H2504 0.950 . S
C2500 C2509 1.390 . S
C2501 C2500 1.387 . S
C2501 C2503 1.387 . S
H2502 C2509 0.950 . S
C2503 C2501 1.387 . S
C2503 C2505 1.390 . S
C2503 H2507 0.950 . S
H2504 C2500 0.950 . S
C2505 C2503 1.390 . S
C2505 C2506 1.387 . S
C2505 H2508 0.950 . S
C2506 C2505 1.387 . S
C2506 C2509 1.387 . S
H2507 C2503 0.950 . S
H2508 C2505 0.950 . S
C2509 C2500 1.390 . S
C2509 H2502 0.950 . S
C2509 C2506 1.387 . S
C2510 C2511 1.387 . S
C2510 H2514 0.950 . S
C2510 C2519 1.390 . S
C2511 C2510 1.387 . S
C2511 C2513 1.387 . S
H2512 C2519 0.950 . S
C2513 C2511 1.387 . S
C2513 C2515 1.390 . S
C2513 H2517 0.950 . S
H2514 C2510 0.950 . S
C2515 C2513 1.390 . S
C2515 C2516 1.387 . S
C2515 H2518 0.950 . S
C2516 C2515 1.387 . S
C2516 C2519 1.387 . S
H2517 C2513 0.950 . S
H2518 C2515 0.950 . S
C2519 C2510 1.390 . S
C2519 H2512 0.950 . S
C2519 C2516 1.387 . S
C1441 C9 1.212 . S
C1446 C95 1.172 . S
C1451 C15 1.171 . S
C1456 C49 1.210 . S
C1461 C89 1.214 . S
C1466 C55 1.176 . S
C1471 C138 2.633 . S
C1476 C170 2.688 1_455 S
C1481 C210 2.688 . S
C1486 C178 2.632 1_565 S
C1491 C218 2.632 1_455 S
C1496 C130 2.688 1_565 S
C1501 C258 1.210 . S
C1506 C326 1.170 . S
C1511 C298 1.210 . S
C1516 C246 1.171 . S
C1521 C338 1.210 . S
C1526 C286 1.170 . S
C1531 C369 2.632 . S
C1536 C419 2.689 1_655 S
C1541 C459 2.688 . S
C1546 C409 2.632 1_545 S
C1551 C379 2.688 1_545 S
C1556 C449 2.632 1_655 S
C1561 C575 1.172 . S
C1566 C489 1.212 . S
C1571 C529 1.210 . S
C1576 C495 1.171 . S
C1581 C535 1.176 . S
C1586 C569 1.214 . S
C1591 C618 2.633 . S
C1596 C650 2.688 . S
C1601 C690 2.688 . S
C1606 C658 2.632 . S
C1611 C610 2.688 . S
C1616 C698 2.632 . S
C1621 C738 1.213 . S
C1626 C806 1.173 . S
C1631 C778 1.210 . S
C1636 C726 1.172 . S
C1641 C766 1.171 . S
C1646 C818 1.211 . S
C1651 C899 2.689 . S
C1656 C849 2.633 1_554 S
C1661 C889 2.633 1_554 S
C1666 C939 2.688 . S
C1671 C859 2.688 . S
C1676 C929 2.633 1_554 S
C1681 C969 1.211 . S
C1686 C1055 1.172 . S
C1691 C1009 1.210 . S
C1696 C975 1.170 . S
C1701 C1049 1.210 . S
C1706 C1015 1.170 . S
C1711 C1098 2.632 1_556 S
C1716 C1130 2.688 . S
C1721 C1138 2.632 1_556 S
C1726 C1170 2.688 . S
C1731 C1178 2.632 1_556 S
C1736 C1090 2.688 . S
C1741 C1218 1.210 . S
C1746 C1286 1.171 . S
C1751 C1258 1.214 . S
C1756 C1206 1.175 . S
C1761 C1246 1.170 . S
C1766 C1298 1.210 . S
C1771 C1329 2.632 . S
C1776 C1379 2.689 . S
C1781 C1369 2.631 . S
C1786 C1419 2.688 . S
C1791 C1339 2.688 . S
C1796 C1409 2.632 . S
C1801 C6 0.775 . S
C1806 C809 0.794 . S
C1811 C729 0.792 1_565 S
C1816 C46 0.770 . S
C1821 C86 0.774 . S
C1826 C769 0.786 1_455 S
C1831 C139 3.211 . S
C1836 C1378 3.166 . S
C1841 C1418 3.167 1_545 S
C1846 C179 3.211 . S
C1851 C219 3.211 . S
C1856 C1338 3.167 1_655 S
C1861 C1058 0.794 . S
C1866 C255 0.776 . S
C1871 C295 0.772 . S
C1876 C978 0.794 1_545 S
C1881 C335 0.770 . S
C1886 C1018 0.792 1_655 S
C1891 C649 3.166 . S
C1896 C370 3.211 . S
C1901 C689 3.167 1_565 S
C1906 C410 3.211 . S
C1911 C609 3.168 1_455 S
C1916 C450 3.212 . S
C1921 C486 0.770 . S
C1926 C1289 0.786 . S
C1931 C526 0.774 . S
C1936 C1209 0.786 . S
C1941 C1249 0.787 . S
C1946 C566 0.777 . S
C1951 C418 3.167 . S
C1956 C619 3.211 1_455 S
C1961 C458 3.167 . S
C1966 C659 3.213 . S
C1971 C378 3.168 . S
C1976 C699 3.212 1_565 S
C1981 C98 0.789 . S
C1986 C735 0.778 . S
C1991 C775 0.773 . S
C1996 C18 0.786 . S
C2001 C815 0.770 . S
C2006 C58 0.792 . S
C2011 C1129 3.166 . S
C2016 C850 3.212 . S
C2021 C1169 3.167 . S
C2026 C890 3.212 . S
C2031 C930 3.212 . S
C2036 C1089 3.166 . S
C2041 C329 0.786 . S
C2046 C966 0.772 . S
C2051 C249 0.794 . S
C2056 C1006 0.773 . S
C2061 C289 0.792 . S
C2066 C1046 0.770 . S
C2071 C1099 3.211 . S
C2076 C898 3.166 . S
C2081 C938 3.166 . S
C2086 C1139 3.213 . S
C2091 C1179 3.211 . S
C2096 C858 3.167 . S
C2101 C1215 0.769 . S
C2106 C578 0.787 . S
C2111 C1255 0.773 . S
C2116 C498 0.794 . S
C2121 C1295 0.769 . S
C2126 C538 0.791 . S
C2131 C1330 3.211 1_655 S
C2136 C169 3.167 . S
C2141 C209 3.167 . S
C2146 C1370 3.211 . S
C2151 C129 3.167 . S
C2156 C1410 3.213 1_545 S
C2161 C1175 2.528 . S
C2166 C10 2.631 . S
C2171 C1095 2.529 . S
C2176 C50 2.631 . S
C2181 C90 2.631 . S
C2186 C1135 2.529 . S
C2191 C530 2.631 . S
C2196 C135 2.529 . S
C2201 C175 2.530 . S
C2206 C570 2.631 . S
C2211 C215 2.528 . S
C2216 C490 2.631 . S
C2221 C259 2.631 . S
C2226 C926 2.528 . S
C2231 C299 2.631 . S
C2236 C846 2.530 . S
C2241 C339 2.631 . S
C2246 C886 2.531 . S
C2251 C1259 2.631 . S
C2256 C366 2.529 . S
C2261 C1299 2.631 . S
C2266 C406 2.529 . S
C2271 C1219 2.631 . S
C2276 C446 2.528 . S
C2281 C615 2.529 1_455 S
C2286 C1010 2.631 . S
C2291 C655 2.529 . S
C2296 C1050 2.631 . S
C2301 C695 2.528 1_565 S
C2306 C970 2.631 . S
C2311 C739 2.631 . S
C2316 C1406 2.530 1_545 S
C2321 C1326 2.529 1_655 S
C2326 C779 2.631 . S
C2331 C819 2.631 . S
C2336 C1366 2.529 . S
C2341 C166 1.480 1_455 S
C2346 C19 1.575 . S
C2351 C206 1.479 . S
C2356 C59 1.576 . S
C2361 C126 1.477 1_565 S
C2366 C99 1.573 . S
C2371 C250 1.575 . S
C2376 C415 1.478 1_655 S
C2381 C455 1.478 . S
C2386 C290 1.575 . S
C2391 C330 1.576 . S
C2396 C375 1.480 1_545 S
C2401 C646 1.479 . S
C2406 C499 1.576 . S
C2411 C686 1.480 . S
C2416 C539 1.576 . S
C2421 C606 1.480 . S
C2426 C579 1.576 . S
C2431 C895 1.481 . S
C2436 C730 1.576 . S
C2441 C770 1.576 . S
C2446 C935 1.479 . S
C2451 C810 1.574 . S
C2456 C855 1.476 . S
C2461 C979 1.575 . S
C2466 C1126 1.480 . S
C2471 C1166 1.477 . S
C2476 C1019 1.574 . S
C2481 C1059 1.574 . S
C2486 C1086 1.476 . S
C2491 C1210 1.574 . S
C2496 C1375 1.479 . S
C2501 C1415 1.480 . S
C2506 C1250 1.576 . S
C2511 C1290 1.574 . S
C2516 C1335 1.478 . S
