# Generated by pormake.
# Topology smk, (6)-cn, num edge types: 1
# Building blocks:
#     Node 0, Type 0, BuildingBlock: OJICUG_clean_sbu_0, # of connection points: 6
#     Node 1, Type 0, BuildingBlock: OJICUG_clean_sbu_0, # of connection points: 6
#     Node 2, Type 0, BuildingBlock: OJICUG_clean_sbu_0, # of connection points: 6
#     Node 3, Type 0, BuildingBlock: OJICUG_clean_sbu_0, # of connection points: 6
#     Node 4, Type 0, BuildingBlock: OJICUG_clean_sbu_0, # of connection points: 6
#     Node 5, Type 0, BuildingBlock: OJICUG_clean_sbu_0, # of connection points: 6
#     Edge 6, Type (0, 0), BuildingBlock: CIFDUS_clean_linker_0, # of connection points: 2
#     Edge 7, Type (0, 0), BuildingBlock: CIFDUS_clean_linker_0, # of connection points: 2
#     Edge 8, Type (0, 0), BuildingBlock: CIFDUS_clean_linker_0, # of connection points: 2
#     Edge 9, Type (0, 0), BuildingBlock: CIFDUS_clean_linker_0, # of connection points: 2
#     Edge 10, Type (0, 0), BuildingBlock: CIFDUS_clean_linker_0, # of connection points: 2
#     Edge 11, Type (0, 0), BuildingBlock: CIFDUS_clean_linker_0, # of connection points: 2
#     Edge 12, Type (0, 0), BuildingBlock: CIFDUS_clean_linker_0, # of connection points: 2
#     Edge 13, Type (0, 0), BuildingBlock: CIFDUS_clean_linker_0, # of connection points: 2
#     Edge 14, Type (0, 0), BuildingBlock: CIFDUS_clean_linker_0, # of connection points: 2
#     Edge 15, Type (0, 0), BuildingBlock: CIFDUS_clean_linker_0, # of connection points: 2
#     Edge 16, Type (0, 0), BuildingBlock: CIFDUS_clean_linker_0, # of connection points: 2
#     Edge 17, Type (0, 0), BuildingBlock: CIFDUS_clean_linker_0, # of connection points: 2
#     Edge 18, Type (0, 0), BuildingBlock: CIFDUS_clean_linker_0, # of connection points: 2
#     Edge 19, Type (0, 0), BuildingBlock: CIFDUS_clean_linker_0, # of connection points: 2
#     Edge 20, Type (0, 0), BuildingBlock: CIFDUS_clean_linker_0, # of connection points: 2
#     Edge 21, Type (0, 0), BuildingBlock: CIFDUS_clean_linker_0, # of connection points: 2
#     Edge 22, Type (0, 0), BuildingBlock: CIFDUS_clean_linker_0, # of connection points: 2
#     Edge 23, Type (0, 0), BuildingBlock: CIFDUS_clean_linker_0, # of connection points: 2
# Relax obj value: 0.194
# Max RMSD: 0.221
# Mean RMSD: 0.221
data_MOF--net-smk--node1-OJICUG_clean_sbu_0--edge1-CIFDUS_clean_linker_0
_symmetry_space_group_name_H-M    P1
_symmetry_Int_Tables_number       1
_symmetry_cell_setting            triclinic
loop_
_symmetry_equiv_pos_as_xyz
'x, y, z'
_cell_length_a     38.75806
_cell_length_b     38.856436
_cell_length_c     13.983754
_cell_angle_alpha  89.893973
_cell_angle_beta   90.082814
_cell_angle_gamma 119.94579
loop_
_atom_site_label
_atom_site_type_symbol
_atom_site_fract_x
_atom_site_fract_y
_atom_site_fract_z
_atom_type_partial_charge
Sc0 Sc 0.45605 0.20277 0.43247 0.0
Sc1 Sc 0.36643 0.16858 0.54983 0.0
Sc2 Sc 0.45182 0.24984 0.63926 0.0
O3 O 0.42514 0.20751 0.54075 0.0
C4 C 0.51541 0.22072 0.60163 0.0
C5 C 0.39649 0.11235 0.49541 0.0
C6 C 0.38962 0.18582 0.77048 0.0
C7 C 0.37943 0.1806 0.32485 0.0
C8 C 0.49949 0.29743 0.45989 0.0
C9 C 0.36892 0.24779 0.59215 0.0
O10 O 0.49849 0.2008 0.52681 0.0
O11 O 0.3789 0.12104 0.55966 0.0
O12 O 0.42623 0.20765 0.75212 0.0
O13 O 0.41604 0.20603 0.33329 0.0
O14 O 0.48145 0.2962 0.53651 0.0
O15 O 0.3544 0.21636 0.54149 0.0
O16 O 0.4948 0.26642 0.41735 0.0
O17 O 0.35868 0.15943 0.39491 0.0
O18 O 0.40174 0.26126 0.63852 0.0
O19 O 0.42069 0.13784 0.43543 0.0
O20 O 0.50335 0.24148 0.64622 0.0
O21 O 0.36339 0.17185 0.70507 0.0
Sc22 Sc 0.24679 0.44292 0.63961 0.0
Sc23 Sc 0.17188 0.35487 0.74087 0.0
Sc24 Sc 0.19235 0.44654 0.83381 0.0
O25 O 0.20364 0.41471 0.73835 0.0
C26 C 0.28509 0.4986 0.82248 0.0
C27 C 0.2606 0.37298 0.69289 0.0
C28 C 0.18234 0.37335 0.96093 0.0
C29 C 0.18025 0.36972 0.51988 0.0
C30 C 0.20784 0.49649 0.64035 0.0
C31 C 0.10567 0.37867 0.79221 0.0
O32 O 0.28519 0.48996 0.73498 0.0
O33 O 0.22341 0.34947 0.70519 0.0
O34 O 0.18207 0.40569 0.94931 0.0
O35 O 0.21467 0.3999 0.52982 0.0
O36 O 0.20038 0.4904 0.72928 0.0
O37 O 0.11682 0.35329 0.77823 0.0
O38 O 0.22071 0.47769 0.59118 0.0
O39 O 0.15695 0.35238 0.59005 0.0
O40 O 0.12987 0.41563 0.80059 0.0
O41 O 0.27564 0.41024 0.68175 0.0
O42 O 0.25423 0.48092 0.87493 0.0
O43 O 0.18432 0.35307 0.89175 0.0
Sc44 Sc 0.79446 0.26067 0.86727 0.0
Sc45 Sc 0.79979 0.17705 0.94418 0.0
Sc46 Sc 0.72969 0.1985 0.04821 0.0
O47 O 0.77467 0.21208 0.95324 0.0
C48 C 0.7774 0.29292 0.06143 0.0
C49 C 0.87574 0.26393 0.92581 0.0
C50 C 0.7851 0.1762 0.17015 0.0
C51 C 0.80153 0.20066 0.72418 0.0
C52 C 0.70093 0.22753 0.86686 0.0
C53 C 0.70773 0.11271 0.96921 0.0
O54 O 0.79245 0.29717 0.97878 0.0
O55 O 0.85883 0.227 0.9442 0.0
O56 O 0.75823 0.1855 0.16182 0.0
O57 O 0.79956 0.23143 0.74388 0.0
O58 O 0.69564 0.21039 0.94719 0.0
O59 O 0.74316 0.12394 0.94289 0.0
O60 O 0.73442 0.245 0.82401 0.0
O61 O 0.79982 0.17627 0.78767 0.0
O62 O 0.69763 0.13613 0.00748 0.0
O63 O 0.85663 0.28128 0.90012 0.0
O64 O 0.75602 0.25907 0.10036 0.0
O65 O 0.80387 0.17292 0.09925 0.0
Sc66 Sc 0.53771 0.79319 0.93567 0.0
Sc67 Sc 0.62723 0.80982 0.03764 0.0
Sc68 Sc 0.53619 0.73856 0.13692 0.0
O69 O 0.56708 0.78052 0.03686 0.0
C70 C 0.48324 0.77857 0.11977 0.0
C71 C 0.6081 0.87844 0.97758 0.0
C72 C 0.60982 0.80404 0.25878 0.0
C73 C 0.6112 0.79981 0.81621 0.0
C74 C 0.48376 0.70033 0.9486 0.0
C75 C 0.60605 0.72175 0.09957 0.0
O76 O 0.49224 0.78688 0.03231 0.0
O77 O 0.63152 0.86526 0.99637 0.0
O78 O 0.57738 0.77143 0.24933 0.0
O79 O 0.57955 0.80161 0.82505 0.0
O80 O 0.49155 0.70017 0.03684 0.0
O81 O 0.63008 0.75796 0.07928 0.0
O82 O 0.50181 0.73121 0.89621 0.0
O83 O 0.63003 0.79653 0.88731 0.0
O84 O 0.56878 0.70781 0.10975 0.0
O85 O 0.57076 0.85606 0.96666 0.0
O86 O 0.50043 0.7653 0.17398 0.0
O87 O 0.62975 0.82559 0.18807 0.0
Sc88 Sc 0.74822 0.5518 0.1957 0.0
Sc89 Sc 0.8255 0.63875 0.29881 0.0
Sc90 Sc 0.79673 0.54512 0.40238 0.0
O91 O 0.79022 0.57862 0.29917 0.0
C92 C 0.7028 0.49769 0.37628 0.0
C93 C 0.7397 0.62699 0.24455 0.0
C94 C 0.81041 0.62043 0.52235 0.0
C95 C 0.81757 0.62206 0.07569 0.0
C96 C 0.78284 0.49309 0.2141 0.0
C97 C 0.88706 0.61066 0.35901 0.0
O98 O 0.7047 0.50973 0.29119 0.0
O99 O 0.77563 0.64741 0.27295 0.0
O100 O 0.80183 0.58449 0.51496 0.0
O101 O 0.78494 0.58981 0.08404 0.0
O102 O 0.79276 0.50166 0.30125 0.0
O103 O 0.87854 0.63568 0.3238 0.0
O104 O 0.76877 0.51053 0.16331 0.0
O105 O 0.83799 0.64243 0.14669 0.0
O106 O 0.86099 0.57651 0.38935 0.0
O107 O 0.72421 0.59085 0.21856 0.0
O108 O 0.73328 0.50991 0.42982 0.0
O109 O 0.81831 0.64367 0.45128 0.0
Sc110 Sc 0.21037 0.74818 0.3349 0.0
Sc111 Sc 0.18927 0.81454 0.44891 0.0
Sc112 Sc 0.25451 0.78913 0.55285 0.0
O113 O 0.21848 0.78383 0.44518 0.0
C114 C 0.21154 0.69626 0.50604 0.0
C115 C 0.12258 0.73238 0.38704 0.0
C116 C 0.19658 0.80147 0.67064 0.0
C117 C 0.203 0.81235 0.22604 0.0
C118 C 0.30356 0.7846 0.37985 0.0
C119 C 0.27457 0.87819 0.50388 0.0
O120 O 0.19783 0.69844 0.42503 0.0
O121 O 0.13355 0.7594 0.45072 0.0
O122 O 0.20832 0.77724 0.65215 0.0
O123 O 0.22358 0.79557 0.23719 0.0
O124 O 0.30277 0.79896 0.46082 0.0
O125 O 0.24575 0.86846 0.44563 0.0
O126 O 0.27252 0.76446 0.32894 0.0
O127 O 0.18327 0.81575 0.29418 0.0
O128 O 0.27805 0.85319 0.55688 0.0
O129 O 0.14693 0.72878 0.33192 0.0
O130 O 0.2339 0.72645 0.5569 0.0
O131 O 0.19133 0.82077 0.60447 0.0
H132 H 0.38688 0.23352 0.19254 0.0
H133 H 0.33887 0.1082 0.23805 0.0
H134 H 0.33216 0.09675 0.06468 0.0
H135 H 0.35164 0.12497 0.90013 0.0
H136 H 0.40183 0.25112 0.86057 0.0
H137 H 0.39555 0.25978 0.03084 0.0
C138 C 0.37371 0.20357 0.16428 0.0
C139 C 0.36352 0.1718 0.22696 0.0
C140 C 0.371 0.19754 0.06537 0.0
C141 C 0.34653 0.13304 0.1905 0.0
C142 C 0.34322 0.12661 0.09146 0.0
C143 C 0.36015 0.15402 0.92907 0.0
C144 C 0.37769 0.1875 0.86912 0.0
C145 C 0.3571 0.15893 0.02805 0.0
C146 C 0.38872 0.22512 0.90641 0.0
C147 C 0.38517 0.2301 0.00353 0.0
H148 H 0.21976 0.35343 0.3858 0.0
H149 H 0.11308 0.35956 0.4319 0.0
H150 H 0.10171 0.35678 0.25875 0.0
H151 H 0.12826 0.36318 0.09509 0.0
H152 H 0.23383 0.35501 0.04898 0.0
H153 H 0.23947 0.34745 0.2216 0.0
C154 C 0.19339 0.35292 0.35771 0.0
C155 C 0.16731 0.35684 0.42079 0.0
C156 C 0.18729 0.3515 0.25844 0.0
C157 C 0.13326 0.3562 0.38441 0.0
C158 C 0.12706 0.35505 0.28551 0.0
C159 C 0.15191 0.35877 0.12303 0.0
C160 C 0.18088 0.36002 0.06031 0.0
C161 C 0.15475 0.35429 0.22195 0.0
C162 C 0.21124 0.35402 0.09632 0.0
C163 C 0.21457 0.34999 0.19488 0.0
H164 H 0.84147 0.22868 0.28827 0.0
H165 H 0.74447 0.10837 0.27231 0.0
H166 H 0.74418 0.10241 0.44698 0.0
H167 H 0.76452 0.13573 0.60531 0.0
H168 H 0.8587 0.25789 0.6172 0.0
H169 H 0.86764 0.25881 0.44469 0.0
C170 C 0.82146 0.20073 0.32318 0.0
C171 C 0.79359 0.16879 0.2682 0.0
C172 C 0.82047 0.19816 0.42352 0.0
C173 C 0.76677 0.13303 0.31373 0.0
C174 C 0.76628 0.12982 0.41359 0.0
C175 C 0.7876 0.16206 0.57004 0.0
C176 C 0.81064 0.19679 0.62346 0.0
C177 C 0.79192 0.16277 0.4696 0.0
C178 C 0.84032 0.23093 0.57711 0.0
C179 C 0.84547 0.23153 0.47844 0.0
H180 H 0.62308 0.76108 0.38921 0.0
H181 H 0.62635 0.87266 0.34984 0.0
H182 H 0.63308 0.88404 0.5232 0.0
H183 H 0.62698 0.85666 0.68583 0.0
H184 H 0.62444 0.74543 0.72518 0.0
H185 H 0.62928 0.73958 0.55159 0.0
C186 C 0.6264 0.78839 0.41874 0.0
C187 C 0.62402 0.81598 0.35764 0.0
C188 C 0.63005 0.79447 0.51812 0.0
C189 C 0.62839 0.85126 0.39579 0.0
C190 C 0.63187 0.85752 0.49481 0.0
C191 C 0.62873 0.83178 0.65622 0.0
C192 C 0.62524 0.80139 0.71748 0.0
C193 C 0.63117 0.82859 0.55669 0.0
C194 C 0.62745 0.76924 0.67917 0.0
C195 C 0.62979 0.76576 0.58 0.0
H196 H 0.86772 0.63444 0.64927 0.0
H197 H 0.75896 0.63759 0.61309 0.0
H198 H 0.75522 0.64512 0.78631 0.0
H199 H 0.77699 0.639 0.94769 0.0
H200 H 0.8851 0.6347 0.98472 0.0
H201 H 0.89585 0.64027 0.81101 0.0
C202 C 0.84399 0.63812 0.67955 0.0
C203 C 0.81363 0.63558 0.61976 0.0
C204 C 0.84186 0.64179 0.77885 0.0
C205 C 0.78272 0.63991 0.65845 0.0
C206 C 0.78046 0.64384 0.75726 0.0
C207 C 0.80352 0.64056 0.91749 0.0
C208 C 0.83023 0.63634 0.97771 0.0
C209 C 0.80898 0.64314 0.81817 0.0
C210 C 0.86446 0.63823 0.93908 0.0
C211 C 0.87031 0.64102 0.83999 0.0
H212 H 0.258 0.84402 0.08756 0.0
H213 H 0.13351 0.79912 0.14388 0.0
H214 H 0.12013 0.79657 0.97186 0.0
H215 H 0.14283 0.79645 0.80521 0.0
H216 H 0.26769 0.84072 0.75404 0.0
H217 H 0.28218 0.85492 0.92343 0.0
C218 C 0.22816 0.83475 0.06199 0.0
C219 C 0.19674 0.82132 0.12741 0.0
C220 C 0.22073 0.83285 0.96368 0.0
C221 C 0.15819 0.80965 0.09427 0.0
C222 C 0.15048 0.80782 0.99597 0.0
C223 C 0.17319 0.81019 0.83142 0.0
C224 C 0.20415 0.81719 0.76836 0.0
C225 C 0.18128 0.81772 0.92984 0.0
C226 C 0.24347 0.83491 0.80214 0.0
C227 C 0.25177 0.84292 0.89886 0.0
H228 H 0.3773 0.05608 0.6311 0.0
H229 H 0.38373 0.07392 0.32577 0.0
H230 H 0.34778 0.00206 0.30036 0.0
H231 H 0.30812 0.93439 0.3662 0.0
H232 H 0.30487 0.91659 0.67121 0.0
H233 H 0.34614 0.98822 0.69592 0.0
C234 C 0.37149 0.04411 0.55909 0.0
C235 C 0.38276 0.06998 0.48046 0.0
C236 C 0.35099 0.00289 0.54514 0.0
C237 C 0.37549 0.05442 0.38734 0.0
C238 C 0.35461 0.01339 0.37281 0.0
C239 C 0.31692 0.94633 0.43782 0.0
C240 C 0.3032 0.92065 0.5169 0.0
C241 C 0.34119 0.9874 0.45128 0.0
C242 C 0.31515 0.93604 0.60943 0.0
C243 C 0.33859 0.97691 0.62357 0.0
H244 H 0.39184 0.32209 0.66205 0.0
H245 H 0.2906 0.21656 0.5483 0.0
H246 H 0.24848 0.24546 0.57345 0.0
H247 H 0.23966 0.3 0.62783 0.0
H248 H 0.3403 0.40754 0.73352 0.0
H249 H 0.38326 0.37849 0.71192 0.0
C250 C 0.36061 0.30552 0.64255 0.0
C251 C 0.34456 0.26719 0.60334 0.0
C252 C 0.33631 0.32252 0.65629 0.0
C253 C 0.30399 0.24621 0.578 0.0
C254 C 0.27969 0.2626 0.59278 0.0
C255 C 0.27093 0.31699 0.64702 0.0
C256 C 0.28671 0.35561 0.68332 0.0
C257 C 0.29545 0.30057 0.63218 0.0
C258 C 0.32746 0.37762 0.70577 0.0
C259 C 0.352 0.36105 0.69333 0.0
H260 H 0.9258 0.33411 0.83499 0.0
H261 H 0.92499 0.24209 0.01061 0.0
H262 H 0.99574 0.2692 0.98245 0.0
H263 H 0.0568 0.31575 0.8992 0.0
H264 H 0.06027 0.4102 0.7301 0.0
H265 H 0.98947 0.38529 0.76365 0.0
C266 C 0.94127 0.32051 0.8687 0.0
C267 C 0.91987 0.28578 0.92387 0.0
C268 C 0.98224 0.33614 0.85171 0.0
C269 C 0.94051 0.26855 0.96691 0.0
C270 C 0.981 0.2839 0.95055 0.0
C271 C 0.04191 0.33069 0.86924 0.0
C272 C 0.06316 0.36404 0.81049 0.0
C273 C 0.00186 0.31694 0.89102 0.0
C274 C 0.04412 0.38405 0.77452 0.0
C275 C 0.00379 0.36992 0.79401 0.0
H276 H 0.58378 0.93066 0.03437 0.0
H277 H 0.6737 0.92158 0.87291 0.0
H278 H 0.70899 0.99283 0.84415 0.0
H279 H 0.71786 0.05768 0.87624 0.0
H280 H 0.63265 0.07024 0.04921 0.0
H281 H 0.59142 -0.00228 0.06004 0.0
C282 C 0.61088 0.94446 0.99225 0.0
C283 C 0.62651 0.92118 0.95679 0.0
C284 C 0.63183 0.98595 0.97809 0.0
C285 C 0.66158 0.93912 0.90223 0.0
C286 C 0.68167 0.97979 0.88539 0.0
C287 C 0.69011 0.0448 0.91584 0.0
C288 C 0.67873 0.06952 0.96294 0.0
C289 C 0.66761 0.00353 0.92486 0.0
C290 C 0.64226 0.05198 0.01241 0.0
C291 C 0.61882 0.01049 0.01924 0.0
H292 H 0.66468 0.59823 0.16917 0.0
H293 H 0.76266 0.70296 0.29607 0.0
H294 H 0.7296 0.7406 0.26185 0.0
H295 H 0.67527 0.74541 0.18901 0.0
H296 H 0.57526 0.64176 0.06709 0.0
H297 H 0.60677 0.60203 0.10625 0.0
C298 C 0.67859 0.62915 0.19031 0.0
C299 C 0.71645 0.6477 0.23417 0.0
C300 C 0.65934 0.65097 0.17032 0.0
C301 C 0.7338 0.6878 0.26151 0.0
C302 C 0.71498 0.70953 0.24177 0.0
C303 C 0.66043 0.71414 0.17041 0.0
C304 C 0.6235 0.69664 0.12337 0.0
C305 C 0.67824 0.69166 0.19461 0.0
C306 C 0.60396 0.65588 0.10245 0.0
C307 C 0.62195 0.63325 0.12492 0.0
H308 H 0.94691 0.65148 0.23429 0.0
H309 H 0.92205 0.60105 0.51764 0.0
H310 H 0.99352 0.63433 0.55291 0.0
H311 H 0.06308 0.68245 0.50634 0.0
H312 H 0.08736 0.72837 0.2186 0.0
H313 H 0.0162 0.69241 0.18143 0.0
C314 C 0.95729 0.64726 0.30305 0.0
C315 C 0.92955 0.62407 0.37339 0.0
C316 C -0.00177 0.66612 0.32228 0.0
C317 C 0.94307 0.61852 0.46217 0.0
C318 C 0.98385 0.63785 0.48263 0.0
C319 C 0.05256 0.68419 0.43556 0.0
C320 C 0.07994 0.70822 0.36547 0.0
C321 C 0.01167 0.66248 0.41393 0.0
C322 C 0.06648 0.71004 0.27343 0.0
C323 C 0.02591 0.68954 0.25223 0.0
H324 H 0.55067 0.35786 0.57182 0.0
H325 H 0.5217 0.32314 0.27672 0.0
H326 H 0.5807 0.38471 0.22545 0.0
H327 H 0.64271 0.445 0.26522 0.0
H328 H 0.67582 0.4765 0.56057 0.0
H329 H 0.61267 0.41926 0.61169 0.0
C330 C 0.55689 0.36423 0.49621 0.0
C331 C 0.53176 0.33641 0.42778 0.0
C332 C 0.59169 0.39869 0.46778 0.0
C333 C 0.54058 0.34434 0.33028 0.0
C334 C 0.57431 0.37937 0.3012 0.0
C335 C 0.63596 0.43977 0.34091 0.0
C336 C 0.66382 0.46511 0.40916 0.0
C337 C 0.60043 0.40629 0.36942 0.0
C338 C 0.65487 0.45742 0.5068 0.0
C339 C 0.61882 0.42475 0.5359 0.0
H340 H 0.19345 0.54927 0.73105 0.0
H341 H 0.21312 0.51663 0.44969 0.0
H342 H 0.21137 0.57381 0.38109 0.0
H343 H 0.20964 0.63608 0.40404 0.0
H344 H 0.19555 0.67007 0.68849 0.0
H345 H 0.18921 0.60878 0.75314 0.0
C346 C 0.19698 0.55421 0.65445 0.0
C347 C 0.20364 0.52875 0.5957 0.0
C348 C 0.19696 0.58743 0.61626 0.0
C349 C 0.20819 0.53589 0.49666 0.0
C350 C 0.20719 0.56856 0.45745 0.0
C351 C 0.20447 0.62956 0.47985 0.0
C352 C 0.20296 0.65724 0.54175 0.0
C353 C 0.20234 0.59494 0.51692 0.0
C354 C 0.19691 0.64907 0.63994 0.0
C355 C 0.19336 0.61416 0.6768 0.0
H356 H 0.67388 0.21623 0.68256 0.0
H357 H 0.65169 0.24404 0.96621 0.0
H358 H 0.59297 0.24553 0.90935 0.0
H359 H 0.54675 0.23715 0.78052 0.0
H360 H 0.56564 0.20497 0.4983 0.0
H361 H 0.62635 0.20666 0.55285 0.0
C362 C 0.65623 0.22288 0.73127 0.0
C363 C 0.66692 0.23003 0.8281 0.0
C364 C 0.6217 0.22257 0.69864 0.0
C365 C 0.64374 0.2382 0.89127 0.0
C366 C 0.6102 0.23909 0.85893 0.0
C367 C 0.56419 0.23059 0.73093 0.0
C368 C 0.55166 0.22093 0.63572 0.0
C369 C 0.59868 0.23096 0.76302 0.0
C370 C 0.57444 0.21218 0.57241 0.0
C371 C 0.6093 0.21331 0.60334 0.0
H372 H 0.42663 0.63791 0.04752 0.0
H373 H 0.46546 0.67989 0.75978 0.0
H374 H 0.40834 0.61976 0.69601 0.0
H375 H 0.34638 0.55689 0.72246 0.0
H376 H 0.306 0.51692 0.01052 0.0
H377 H 0.36525 0.57499 0.07394 0.0
C378 C 0.42295 0.63387 0.97071 0.0
C379 C 0.45046 0.66337 0.90844 0.0
C380 C 0.38978 0.59973 0.93481 0.0
C381 C 0.44476 0.65772 0.80925 0.0
C382 C 0.41213 0.62336 0.77283 0.0
C383 C 0.35067 0.56059 0.79921 0.0
C384 C 0.32183 0.53247 0.86176 0.0
C385 C 0.38431 0.59438 0.83503 0.0
C386 C 0.32766 0.5381 0.9609 0.0
C387 C 0.36152 0.57128 0.99713 0.0
H388 H 0.77851 0.42973 0.30729 0.0
H389 H 0.79342 0.48159 0.02641 0.0
H390 H 0.79609 0.42534 0.95646 0.0
H391 H 0.79135 0.36065 0.97417 0.0
H392 H 0.77122 0.3057 0.25251 0.0
H393 H 0.77365 0.36432 0.32494 0.0
C394 C 0.78275 0.4289 0.23084 0.0
C395 C 0.78599 0.45989 0.17202 0.0
C396 C 0.78323 0.396 0.19094 0.0
C397 C 0.79078 0.45809 0.07303 0.0
C398 C 0.79236 0.42599 0.03312 0.0
C399 C 0.78803 0.3616 0.05098 0.0
C400 C 0.78151 0.32897 0.1081 0.0
C401 C 0.78827 0.39468 0.0913 0.0
C402 C 0.7764 0.33045 0.20711 0.0
C403 C 0.77773 0.36391 0.24838 0.0
H404 H 0.46645 0.78915 0.3043 0.0
H405 H 0.42308 0.77506 0.01413 0.0
H406 H 0.3649 0.77753 0.06826 0.0
H407 H 0.32466 0.78094 0.19753 0.0
H408 H 0.36777 0.79741 0.48787 0.0
H409 H 0.4277 0.79727 0.43409 0.0
C410 C 0.44427 0.78673 0.2532 0.0
C411 C 0.44911 0.7818 0.15554 0.0
C412 C 0.41081 0.78869 0.28459 0.0
C413 C 0.4203 0.7791 0.08981 0.0
C414 C 0.38686 0.78039 0.12055 0.0
C415 C 0.34728 0.78476 0.24898 0.0
C416 C 0.34166 0.7889 0.34639 0.0
C417 C 0.38163 0.78483 0.2177 0.0
C418 C 0.37147 0.79431 0.41219 0.0
C419 C 0.40565 0.79399 0.38163 0.0
loop_
_geom_bond_atom_site_label_1
_geom_bond_atom_site_label_2
_geom_bond_distance
_geom_bond_site_symmetry_2
_ccdc_geom_bond_type
Sc0 O3 2.025 . S
Sc0 O10 2.105 . S
Sc0 O13 2.105 . S
Sc0 O16 2.105 . S
Sc0 O19 2.105 . S
Sc1 O3 2.025 . S
Sc1 O11 2.105 . S
Sc1 O15 2.105 . S
Sc1 O17 2.105 . S
Sc1 O21 2.105 . S
Sc2 O3 2.025 . S
Sc2 O12 2.105 . S
Sc2 O14 2.105 . S
Sc2 O18 2.105 . S
Sc2 O20 2.105 . S
O3 Sc0 2.025 . S
O3 Sc1 2.025 . S
O3 Sc2 2.025 . S
C4 O10 1.268 . S
C4 O20 1.268 . S
C5 O11 1.268 . S
C5 O19 1.268 . S
C6 O12 1.268 . S
C6 O21 1.268 . S
C7 O13 1.268 . S
C7 O17 1.268 . S
C8 O14 1.268 . S
C8 O16 1.268 . S
C9 O15 1.268 . S
C9 O18 1.268 . S
O10 Sc0 2.105 . S
O10 C4 1.268 . S
O11 Sc1 2.105 . S
O11 C5 1.268 . S
O12 Sc2 2.105 . S
O12 C6 1.268 . S
O13 Sc0 2.105 . S
O13 C7 1.268 . S
O14 Sc2 2.105 . S
O14 C8 1.268 . S
O15 Sc1 2.105 . S
O15 C9 1.268 . S
O16 Sc0 2.105 . S
O16 C8 1.268 . S
O17 Sc1 2.105 . S
O17 C7 1.268 . S
O18 Sc2 2.105 . S
O18 C9 1.268 . S
O19 Sc0 2.105 . S
O19 C5 1.268 . S
O20 Sc2 2.105 . S
O20 C4 1.268 . S
O21 Sc1 2.105 . S
O21 C6 1.268 . S
Sc22 O25 2.025 . S
Sc22 O32 2.105 . S
Sc22 O35 2.105 . S
Sc22 O38 2.105 . S
Sc22 O41 2.105 . S
Sc23 O25 2.025 . S
Sc23 O33 2.105 . S
Sc23 O37 2.105 . S
Sc23 O39 2.105 . S
Sc23 O43 2.105 . S
Sc24 O25 2.025 . S
Sc24 O34 2.105 . S
Sc24 O36 2.105 . S
Sc24 O40 2.105 . S
Sc24 O42 2.105 . S
O25 Sc22 2.025 . S
O25 Sc23 2.025 . S
O25 Sc24 2.025 . S
C26 O32 1.268 . S
C26 O42 1.268 . S
C27 O33 1.268 . S
C27 O41 1.268 . S
C28 O34 1.268 . S
C28 O43 1.268 . S
C29 O35 1.268 . S
C29 O39 1.268 . S
C30 O36 1.268 . S
C30 O38 1.268 . S
C31 O37 1.268 . S
C31 O40 1.268 . S
O32 Sc22 2.105 . S
O32 C26 1.268 . S
O33 Sc23 2.105 . S
O33 C27 1.268 . S
O34 Sc24 2.105 . S
O34 C28 1.268 . S
O35 Sc22 2.105 . S
O35 C29 1.268 . S
O36 Sc24 2.105 . S
O36 C30 1.268 . S
O37 Sc23 2.105 . S
O37 C31 1.268 . S
O38 Sc22 2.105 . S
O38 C30 1.268 . S
O39 Sc23 2.105 . S
O39 C29 1.268 . S
O40 Sc24 2.105 . S
O40 C31 1.268 . S
O41 Sc22 2.105 . S
O41 C27 1.268 . S
O42 Sc24 2.105 . S
O42 C26 1.268 . S
O43 Sc23 2.105 . S
O43 C28 1.268 . S
Sc44 O47 2.025 . S
Sc44 O54 2.105 . S
Sc44 O57 2.105 . S
Sc44 O60 2.105 . S
Sc44 O63 2.105 . S
Sc45 O47 2.025 . S
Sc45 O55 2.105 . S
Sc45 O59 2.105 . S
Sc45 O61 2.105 . S
Sc45 O65 2.105 1_556 S
Sc46 O47 2.025 1_554 S
Sc46 O56 2.105 . S
Sc46 O58 2.105 1_554 S
Sc46 O62 2.105 1_554 S
Sc46 O64 2.105 . S
O47 Sc44 2.025 . S
O47 Sc45 2.025 . S
O47 Sc46 2.025 1_556 S
C48 O54 1.268 1_554 S
C48 O64 1.268 . S
C49 O55 1.268 . S
C49 O63 1.268 . S
C50 O56 1.268 . S
C50 O65 1.268 . S
C51 O57 1.268 . S
C51 O61 1.268 . S
C52 O58 1.268 . S
C52 O60 1.268 . S
C53 O59 1.268 . S
C53 O62 1.268 . S
O54 Sc44 2.105 . S
O54 C48 1.268 1_556 S
O55 Sc45 2.105 . S
O55 C49 1.268 . S
O56 Sc46 2.105 . S
O56 C50 1.268 . S
O57 Sc44 2.105 . S
O57 C51 1.268 . S
O58 Sc46 2.105 1_556 S
O58 C52 1.268 . S
O59 Sc45 2.105 . S
O59 C53 1.268 . S
O60 Sc44 2.105 . S
O60 C52 1.268 . S
O61 Sc45 2.105 . S
O61 C51 1.268 . S
O62 Sc46 2.105 1_556 S
O62 C53 1.268 . S
O63 Sc44 2.105 . S
O63 C49 1.268 . S
O64 Sc46 2.105 . S
O64 C48 1.268 . S
O65 Sc45 2.105 1_554 S
O65 C50 1.268 . S
Sc66 O69 2.025 1_556 S
Sc66 O76 2.105 1_556 S
Sc66 O79 2.105 . S
Sc66 O82 2.105 . S
Sc66 O85 2.105 1_556 S
Sc67 O69 2.025 . S
Sc67 O77 2.105 . S
Sc67 O81 2.105 . S
Sc67 O83 2.105 1_554 S
Sc67 O87 2.105 . S
Sc68 O69 2.025 . S
Sc68 O78 2.105 . S
Sc68 O80 2.105 . S
Sc68 O84 2.105 . S
Sc68 O86 2.105 . S
O69 Sc66 2.025 1_554 S
O69 Sc67 2.025 . S
O69 Sc68 2.025 . S
C70 O76 1.268 . S
C70 O86 1.268 . S
C71 O77 1.268 . S
C71 O85 1.268 . S
C72 O78 1.268 . S
C72 O87 1.268 . S
C73 O79 1.268 . S
C73 O83 1.268 . S
C74 O80 1.268 1_556 S
C74 O82 1.268 . S
C75 O81 1.268 . S
C75 O84 1.268 . S
O76 Sc66 2.105 1_554 S
O76 C70 1.268 . S
O77 Sc67 2.105 . S
O77 C71 1.268 . S
O78 Sc68 2.105 . S
O78 C72 1.268 . S
O79 Sc66 2.105 . S
O79 C73 1.268 . S
O80 Sc68 2.105 . S
O80 C74 1.268 1_554 S
O81 Sc67 2.105 . S
O81 C75 1.268 . S
O82 Sc66 2.105 . S
O82 C74 1.268 . S
O83 Sc67 2.105 1_556 S
O83 C73 1.268 . S
O84 Sc68 2.105 . S
O84 C75 1.268 . S
O85 Sc66 2.105 1_554 S
O85 C71 1.268 . S
O86 Sc68 2.105 . S
O86 C70 1.268 . S
O87 Sc67 2.105 . S
O87 C72 1.268 . S
Sc88 O91 2.025 . S
Sc88 O98 2.105 . S
Sc88 O101 2.105 . S
Sc88 O104 2.105 . S
Sc88 O107 2.105 . S
Sc89 O91 2.025 . S
Sc89 O99 2.105 . S
Sc89 O103 2.105 . S
Sc89 O105 2.105 . S
Sc89 O109 2.105 . S
Sc90 O91 2.025 . S
Sc90 O100 2.105 . S
Sc90 O102 2.105 . S
Sc90 O106 2.105 . S
Sc90 O108 2.105 . S
O91 Sc88 2.025 . S
O91 Sc89 2.025 . S
O91 Sc90 2.025 . S
C92 O98 1.268 . S
C92 O108 1.268 . S
C93 O99 1.268 . S
C93 O107 1.268 . S
C94 O100 1.268 . S
C94 O109 1.268 . S
C95 O101 1.268 . S
C95 O105 1.268 . S
C96 O102 1.268 . S
C96 O104 1.268 . S
C97 O103 1.268 . S
C97 O106 1.268 . S
O98 Sc88 2.105 . S
O98 C92 1.268 . S
O99 Sc89 2.105 . S
O99 C93 1.268 . S
O100 Sc90 2.105 . S
O100 C94 1.268 . S
O101 Sc88 2.105 . S
O101 C95 1.268 . S
O102 Sc90 2.105 . S
O102 C96 1.268 . S
O103 Sc89 2.105 . S
O103 C97 1.268 . S
O104 Sc88 2.105 . S
O104 C96 1.268 . S
O105 Sc89 2.105 . S
O105 C95 1.268 . S
O106 Sc90 2.105 . S
O106 C97 1.268 . S
O107 Sc88 2.105 . S
O107 C93 1.268 . S
O108 Sc90 2.105 . S
O108 C92 1.268 . S
O109 Sc89 2.105 . S
O109 C94 1.268 . S
Sc110 O113 2.025 . S
Sc110 O120 2.105 . S
Sc110 O123 2.105 . S
Sc110 O126 2.105 . S
Sc110 O129 2.105 . S
Sc111 O113 2.025 . S
Sc111 O121 2.105 . S
Sc111 O125 2.105 . S
Sc111 O127 2.105 . S
Sc111 O131 2.105 . S
Sc112 O113 2.025 . S
Sc112 O122 2.105 . S
Sc112 O124 2.105 . S
Sc112 O128 2.105 . S
Sc112 O130 2.105 . S
O113 Sc110 2.025 . S
O113 Sc111 2.025 . S
O113 Sc112 2.025 . S
C114 O120 1.268 . S
C114 O130 1.268 . S
C115 O121 1.268 . S
C115 O129 1.268 . S
C116 O122 1.268 . S
C116 O131 1.268 . S
C117 O123 1.268 . S
C117 O127 1.268 . S
C118 O124 1.268 . S
C118 O126 1.268 . S
C119 O125 1.268 . S
C119 O128 1.268 . S
O120 Sc110 2.105 . S
O120 C114 1.268 . S
O121 Sc111 2.105 . S
O121 C115 1.268 . S
O122 Sc112 2.105 . S
O122 C116 1.268 . S
O123 Sc110 2.105 . S
O123 C117 1.268 . S
O124 Sc112 2.105 . S
O124 C118 1.268 . S
O125 Sc111 2.105 . S
O125 C119 1.268 . S
O126 Sc110 2.105 . S
O126 C118 1.268 . S
O127 Sc111 2.105 . S
O127 C117 1.268 . S
O128 Sc112 2.105 . S
O128 C119 1.268 . S
O129 Sc110 2.105 . S
O129 C115 1.268 . S
O130 Sc112 2.105 . S
O130 C114 1.268 . S
O131 Sc111 2.105 . S
O131 C116 1.268 . S
H132 C138 0.930 . S
H133 C141 0.930 . S
H134 C142 0.930 . S
H135 C143 0.930 . S
H136 C146 0.930 . S
H137 C147 0.930 . S
C138 H132 0.930 . S
C138 C139 1.355 . S
C138 C140 1.415 . S
C139 C138 1.355 . S
C139 C141 1.419 . S
C140 C138 1.415 . S
C140 C145 1.425 . S
C140 C147 1.409 . S
C141 H133 0.930 . S
C141 C139 1.419 . S
C141 C142 1.362 . S
C142 H134 0.930 . S
C142 C141 1.362 . S
C142 C145 1.409 . S
C143 H135 0.930 . S
C143 C144 1.355 . S
C143 C145 1.415 1_556 S
C144 C143 1.355 . S
C144 C146 1.419 . S
C145 C140 1.425 . S
C145 C142 1.409 . S
C145 C143 1.415 1_554 S
C146 H136 0.930 . S
C146 C144 1.419 . S
C146 C147 1.362 1_556 S
C147 H137 0.930 . S
C147 C140 1.409 . S
C147 C146 1.362 1_554 S
H148 C154 0.930 . S
H149 C157 0.930 . S
H150 C158 0.930 . S
H151 C159 0.930 . S
H152 C162 0.930 . S
H153 C163 0.930 . S
C154 H148 0.930 . S
C154 C155 1.355 . S
C154 C156 1.415 . S
C155 C154 1.355 . S
C155 C157 1.419 . S
C156 C154 1.415 . S
C156 C161 1.425 . S
C156 C163 1.409 . S
C157 H149 0.930 . S
C157 C155 1.419 . S
C157 C158 1.362 . S
C158 H150 0.930 . S
C158 C157 1.362 . S
C158 C161 1.409 . S
C159 H151 0.930 . S
C159 C160 1.355 . S
C159 C161 1.415 . S
C160 C159 1.355 . S
C160 C162 1.419 . S
C161 C156 1.425 . S
C161 C158 1.409 . S
C161 C159 1.415 . S
C162 H152 0.930 . S
C162 C160 1.419 . S
C162 C163 1.362 . S
C163 H153 0.930 . S
C163 C156 1.409 . S
C163 C162 1.362 . S
H164 C170 0.930 . S
H165 C173 0.930 . S
H166 C174 0.930 . S
H167 C175 0.930 . S
H168 C178 0.930 . S
H169 C179 0.930 . S
C170 H164 0.930 . S
C170 C171 1.355 . S
C170 C172 1.415 . S
C171 C170 1.355 . S
C171 C173 1.419 . S
C172 C170 1.415 . S
C172 C177 1.425 . S
C172 C179 1.409 . S
C173 H165 0.930 . S
C173 C171 1.419 . S
C173 C174 1.362 . S
C174 H166 0.930 . S
C174 C173 1.362 . S
C174 C177 1.409 . S
C175 H167 0.930 . S
C175 C176 1.355 . S
C175 C177 1.415 . S
C176 C175 1.355 . S
C176 C178 1.419 . S
C177 C172 1.425 . S
C177 C174 1.409 . S
C177 C175 1.415 . S
C178 H168 0.930 . S
C178 C176 1.419 . S
C178 C179 1.362 . S
C179 H169 0.930 . S
C179 C172 1.409 . S
C179 C178 1.362 . S
H180 C186 0.930 . S
H181 C189 0.930 . S
H182 C190 0.930 . S
H183 C191 0.930 . S
H184 C194 0.930 . S
H185 C195 0.930 . S
C186 H180 0.930 . S
C186 C187 1.355 . S
C186 C188 1.415 . S
C187 C186 1.355 . S
C187 C189 1.419 . S
C188 C186 1.415 . S
C188 C193 1.425 . S
C188 C195 1.409 . S
C189 H181 0.930 . S
C189 C187 1.419 . S
C189 C190 1.362 . S
C190 H182 0.930 . S
C190 C189 1.362 . S
C190 C193 1.409 . S
C191 H183 0.930 . S
C191 C192 1.355 . S
C191 C193 1.415 . S
C192 C191 1.355 . S
C192 C194 1.419 . S
C193 C188 1.425 . S
C193 C190 1.409 . S
C193 C191 1.415 . S
C194 H184 0.930 . S
C194 C192 1.419 . S
C194 C195 1.362 . S
C195 H185 0.930 . S
C195 C188 1.409 . S
C195 C194 1.362 . S
H196 C202 0.930 . S
H197 C205 0.930 . S
H198 C206 0.930 . S
H199 C207 0.930 . S
H200 C210 0.930 . S
H201 C211 0.930 . S
C202 H196 0.930 . S
C202 C203 1.355 . S
C202 C204 1.415 . S
C203 C202 1.355 . S
C203 C205 1.419 . S
C204 C202 1.415 . S
C204 C209 1.425 . S
C204 C211 1.409 . S
C205 H197 0.930 . S
C205 C203 1.419 . S
C205 C206 1.362 . S
C206 H198 0.930 . S
C206 C205 1.362 . S
C206 C209 1.409 . S
C207 H199 0.930 . S
C207 C208 1.355 . S
C207 C209 1.415 . S
C208 C207 1.355 . S
C208 C210 1.419 . S
C209 C204 1.425 . S
C209 C206 1.409 . S
C209 C207 1.415 . S
C210 H200 0.930 . S
C210 C208 1.419 . S
C210 C211 1.362 . S
C211 H201 0.930 . S
C211 C204 1.409 . S
C211 C210 1.362 . S
H212 C218 0.930 . S
H213 C221 0.930 . S
H214 C222 0.930 . S
H215 C223 0.930 . S
H216 C226 0.930 . S
H217 C227 0.930 . S
C218 H212 0.930 . S
C218 C219 1.355 . S
C218 C220 1.415 1_554 S
C219 C218 1.355 . S
C219 C221 1.419 . S
C220 C218 1.415 1_556 S
C220 C225 1.425 . S
C220 C227 1.409 . S
C221 H213 0.930 . S
C221 C219 1.419 . S
C221 C222 1.362 1_554 S
C222 H214 0.930 . S
C222 C221 1.362 1_556 S
C222 C225 1.409 . S
C223 H215 0.930 . S
C223 C224 1.355 . S
C223 C225 1.415 . S
C224 C223 1.355 . S
C224 C226 1.419 . S
C225 C220 1.425 . S
C225 C222 1.409 . S
C225 C223 1.415 . S
C226 H216 0.930 . S
C226 C224 1.419 . S
C226 C227 1.362 . S
C227 H217 0.930 . S
C227 C220 1.409 . S
C227 C226 1.362 . S
H228 C234 0.930 . S
H229 C237 0.930 . S
H230 C238 0.930 . S
H231 C239 0.930 . S
H232 C242 0.930 . S
H233 C243 0.930 . S
C234 H228 0.930 . S
C234 C235 1.355 . S
C234 C236 1.415 . S
C235 C234 1.355 . S
C235 C237 1.419 . S
C236 C234 1.415 . S
C236 C241 1.425 1_545 S
C236 C243 1.409 1_545 S
C237 H229 0.930 . S
C237 C235 1.419 . S
C237 C238 1.362 . S
C238 H230 0.930 . S
C238 C237 1.362 . S
C238 C241 1.409 1_545 S
C239 H231 0.930 . S
C239 C240 1.355 . S
C239 C241 1.415 . S
C240 C239 1.355 . S
C240 C242 1.419 . S
C241 C236 1.425 1_565 S
C241 C238 1.409 1_565 S
C241 C239 1.415 . S
C242 H232 0.930 . S
C242 C240 1.419 . S
C242 C243 1.362 . S
C243 H233 0.930 . S
C243 C236 1.409 1_565 S
C243 C242 1.362 . S
H244 C250 0.930 . S
H245 C253 0.930 . S
H246 C254 0.930 . S
H247 C255 0.930 . S
H248 C258 0.930 . S
H249 C259 0.930 . S
C250 H244 0.930 . S
C250 C251 1.355 . S
C250 C252 1.415 . S
C251 C250 1.355 . S
C251 C253 1.419 . S
C252 C250 1.415 . S
C252 C257 1.425 . S
C252 C259 1.409 . S
C253 H245 0.930 . S
C253 C251 1.419 . S
C253 C254 1.362 . S
C254 H246 0.930 . S
C254 C253 1.362 . S
C254 C257 1.409 . S
C255 H247 0.930 . S
C255 C256 1.355 . S
C255 C257 1.415 . S
C256 C255 1.355 . S
C256 C258 1.419 . S
C257 C252 1.425 . S
C257 C254 1.409 . S
C257 C255 1.415 . S
C258 H248 0.930 . S
C258 C256 1.419 . S
C258 C259 1.362 . S
C259 H249 0.930 . S
C259 C252 1.409 . S
C259 C258 1.362 . S
H260 C266 0.930 . S
H261 C269 0.930 . S
H262 C270 0.930 1_455 S
H263 C271 0.930 . S
H264 C274 0.930 . S
H265 C275 0.930 1_655 S
C266 H260 0.930 . S
C266 C267 1.355 . S
C266 C268 1.415 . S
C267 C266 1.355 . S
C267 C269 1.419 . S
C268 C266 1.415 . S
C268 C273 1.425 1_655 S
C268 C275 1.409 1_655 S
C269 H261 0.930 . S
C269 C267 1.419 . S
C269 C270 1.362 . S
C270 H262 0.930 1_655 S
C270 C269 1.362 . S
C270 C273 1.409 1_655 S
C271 H263 0.930 . S
C271 C272 1.355 . S
C271 C273 1.415 . S
C272 C271 1.355 . S
C272 C274 1.419 . S
C273 C268 1.425 1_455 S
C273 C270 1.409 1_455 S
C273 C271 1.415 . S
C274 H264 0.930 . S
C274 C272 1.419 . S
C274 C275 1.362 . S
C275 H265 0.930 1_455 S
C275 C268 1.409 1_455 S
C275 C274 1.362 . S
H276 C282 0.930 . S
H277 C285 0.930 . S
H278 C286 0.930 . S
H279 C287 0.930 . S
H280 C290 0.930 . S
H281 C291 0.930 . S
C282 H276 0.930 . S
C282 C283 1.355 . S
C282 C284 1.415 . S
C283 C282 1.355 . S
C283 C285 1.419 1_554 S
C284 C282 1.415 . S
C284 C289 1.425 1_564 S
C284 C291 1.409 1_565 S
C285 H277 0.930 . S
C285 C283 1.419 1_556 S
C285 C286 1.362 . S
C286 H278 0.930 . S
C286 C285 1.362 . S
C286 C289 1.409 1_565 S
C287 H279 0.930 . S
C287 C288 1.355 . S
C287 C289 1.415 . S
C288 C287 1.355 . S
C288 C290 1.419 1_556 S
C289 C284 1.425 1_546 S
C289 C286 1.409 1_545 S
C289 C287 1.415 . S
C290 H280 0.930 . S
C290 C288 1.419 1_554 S
C290 C291 1.362 . S
C291 H281 0.930 . S
C291 C284 1.409 1_545 S
C291 C290 1.362 . S
H292 C298 0.930 . S
H293 C301 0.930 . S
H294 C302 0.930 . S
H295 C303 0.930 . S
H296 C306 0.930 . S
H297 C307 0.930 . S
C298 H292 0.930 . S
C298 C299 1.355 . S
C298 C300 1.415 . S
C299 C298 1.355 . S
C299 C301 1.419 . S
C300 C298 1.415 . S
C300 C305 1.425 . S
C300 C307 1.409 . S
C301 H293 0.930 . S
C301 C299 1.419 . S
C301 C302 1.362 . S
C302 H294 0.930 . S
C302 C301 1.362 . S
C302 C305 1.409 . S
C303 H295 0.930 . S
C303 C304 1.355 . S
C303 C305 1.415 . S
C304 C303 1.355 . S
C304 C306 1.419 . S
C305 C300 1.425 . S
C305 C302 1.409 . S
C305 C303 1.415 . S
C306 H296 0.930 . S
C306 C304 1.419 . S
C306 C307 1.362 . S
C307 H297 0.930 . S
C307 C300 1.409 . S
C307 C306 1.362 . S
H308 C314 0.930 . S
H309 C317 0.930 . S
H310 C318 0.930 . S
H311 C319 0.930 . S
H312 C322 0.930 . S
H313 C323 0.930 . S
C314 H308 0.930 . S
C314 C315 1.355 . S
C314 C316 1.415 . S
C315 C314 1.355 . S
C315 C317 1.419 . S
C316 C314 1.415 . S
C316 C321 1.425 1_655 S
C316 C323 1.409 1_655 S
C317 H309 0.930 . S
C317 C315 1.419 . S
C317 C318 1.362 . S
C318 H310 0.930 . S
C318 C317 1.362 . S
C318 C321 1.409 1_655 S
C319 H311 0.930 . S
C319 C320 1.355 . S
C319 C321 1.415 . S
C320 C319 1.355 . S
C320 C322 1.419 . S
C321 C316 1.425 1_455 S
C321 C318 1.409 1_455 S
C321 C319 1.415 . S
C322 H312 0.930 . S
C322 C320 1.419 . S
C322 C323 1.362 . S
C323 H313 0.930 . S
C323 C316 1.409 1_455 S
C323 C322 1.362 . S
H324 C330 0.930 . S
H325 C333 0.930 . S
H326 C334 0.930 . S
H327 C335 0.930 . S
H328 C338 0.930 . S
H329 C339 0.930 . S
C330 H324 0.930 . S
C330 C331 1.355 . S
C330 C332 1.415 . S
C331 C330 1.355 . S
C331 C333 1.419 . S
C332 C330 1.415 . S
C332 C337 1.425 . S
C332 C339 1.409 . S
C333 H325 0.930 . S
C333 C331 1.419 . S
C333 C334 1.362 . S
C334 H326 0.930 . S
C334 C333 1.362 . S
C334 C337 1.409 . S
C335 H327 0.930 . S
C335 C336 1.355 . S
C335 C337 1.415 . S
C336 C335 1.355 . S
C336 C338 1.419 . S
C337 C332 1.425 . S
C337 C334 1.409 . S
C337 C335 1.415 . S
C338 H328 0.930 . S
C338 C336 1.419 . S
C338 C339 1.362 . S
C339 H329 0.930 . S
C339 C332 1.409 . S
C339 C338 1.362 . S
H340 C346 0.930 . S
H341 C349 0.930 . S
H342 C350 0.930 . S
H343 C351 0.930 . S
H344 C354 0.930 . S
H345 C355 0.930 . S
C346 H340 0.930 . S
C346 C347 1.355 . S
C346 C348 1.415 . S
C347 C346 1.355 . S
C347 C349 1.419 . S
C348 C346 1.415 . S
C348 C353 1.425 . S
C348 C355 1.409 . S
C349 H341 0.930 . S
C349 C347 1.419 . S
C349 C350 1.362 . S
C350 H342 0.930 . S
C350 C349 1.362 . S
C350 C353 1.409 . S
C351 H343 0.930 . S
C351 C352 1.355 . S
C351 C353 1.415 . S
C352 C351 1.355 . S
C352 C354 1.419 . S
C353 C348 1.425 . S
C353 C350 1.409 . S
C353 C351 1.415 . S
C354 H344 0.930 . S
C354 C352 1.419 . S
C354 C355 1.362 . S
C355 H345 0.930 . S
C355 C348 1.409 . S
C355 C354 1.362 . S
H356 C362 0.930 . S
H357 C365 0.930 . S
H358 C366 0.930 . S
H359 C367 0.930 . S
H360 C370 0.930 . S
H361 C371 0.930 . S
C362 H356 0.930 . S
C362 C363 1.355 . S
C362 C364 1.415 . S
C363 C362 1.355 . S
C363 C365 1.419 . S
C364 C362 1.415 . S
C364 C369 1.425 . S
C364 C371 1.409 . S
C365 H357 0.930 . S
C365 C363 1.419 . S
C365 C366 1.362 . S
C366 H358 0.930 . S
C366 C365 1.362 . S
C366 C369 1.409 . S
C367 H359 0.930 . S
C367 C368 1.355 . S
C367 C369 1.415 . S
C368 C367 1.355 . S
C368 C370 1.419 . S
C369 C364 1.425 . S
C369 C366 1.409 . S
C369 C367 1.415 . S
C370 H360 0.930 . S
C370 C368 1.419 . S
C370 C371 1.362 . S
C371 H361 0.930 . S
C371 C364 1.409 . S
C371 C370 1.362 . S
H372 C378 0.930 . S
H373 C381 0.930 . S
H374 C382 0.927 1_554 S
H375 C383 0.930 . S
H376 C386 0.930 . S
H377 C387 0.930 . S
C378 H372 0.930 . S
C378 C379 1.355 . S
C378 C380 1.415 . S
C379 C378 1.355 . S
C379 C381 1.419 1_556 S
C380 C378 1.415 . S
C380 C385 1.425 . S
C380 C387 1.409 . S
C381 H373 0.930 . S
C381 C379 1.419 1_554 S
C381 C382 1.362 1_554 S
C382 H374 0.927 1_556 S
C382 C381 1.362 1_556 S
C382 C385 1.413 . S
C383 H375 0.930 . S
C383 C384 1.355 . S
C383 C385 1.415 . S
C384 C383 1.355 . S
C384 C386 1.419 . S
C385 C380 1.425 . S
C385 C382 1.413 . S
C385 C383 1.415 . S
C386 H376 0.930 . S
C386 C384 1.419 . S
C386 C387 1.362 . S
C387 H377 0.930 . S
C387 C380 1.409 . S
C387 C386 1.362 . S
H388 C394 0.930 . S
H389 C397 0.930 . S
H390 C398 0.930 1_556 S
H391 C399 0.930 1_556 S
H392 C402 0.930 . S
H393 C403 0.930 . S
C394 H388 0.930 . S
C394 C395 1.355 . S
C394 C396 1.415 . S
C395 C394 1.355 . S
C395 C397 1.419 . S
C396 C394 1.415 . S
C396 C401 1.425 . S
C396 C403 1.409 . S
C397 H389 0.930 . S
C397 C395 1.419 . S
C397 C398 1.362 . S
C398 H390 0.930 1_554 S
C398 C397 1.362 . S
C398 C401 1.409 . S
C399 H391 0.930 1_554 S
C399 C400 1.355 . S
C399 C401 1.415 . S
C400 C399 1.355 . S
C400 C402 1.419 . S
C401 C396 1.425 . S
C401 C398 1.409 . S
C401 C399 1.415 . S
C402 H392 0.930 . S
C402 C400 1.419 . S
C402 C403 1.362 . S
C403 H393 0.930 . S
C403 C396 1.409 . S
C403 C402 1.362 . S
H404 C410 0.930 . S
H405 C413 0.930 . S
H406 C414 0.930 . S
H407 C415 0.930 . S
H408 C418 0.930 . S
H409 C419 0.930 . S
C410 H404 0.930 . S
C410 C411 1.355 . S
C410 C412 1.415 . S
C411 C410 1.355 . S
C411 C413 1.419 . S
C412 C410 1.415 . S
C412 C417 1.425 . S
C412 C419 1.409 . S
C413 H405 0.930 . S
C413 C411 1.419 . S
C413 C414 1.362 . S
C414 H406 0.930 . S
C414 C413 1.362 . S
C414 C417 1.409 . S
C415 H407 0.930 . S
C415 C416 1.355 . S
C415 C417 1.415 . S
C416 C415 1.355 . S
C416 C418 1.419 . S
C417 C412 1.425 . S
C417 C414 1.409 . S
C417 C415 1.415 . S
C418 H408 0.930 . S
C418 C416 1.419 . S
C418 C419 1.362 . S
C419 H409 0.930 . S
C419 C412 1.409 . S
C419 C418 1.362 . S
C139 C7 1.487 . S
C144 C6 1.471 . S
C155 C29 1.503 . S
C160 C28 1.535 1_554 S
C171 C50 1.510 . S
C176 C51 1.479 . S
C187 C72 1.538 . S
C192 C73 1.546 . S
C203 C94 1.546 . S
C208 C95 1.534 1_556 S
C219 C117 1.484 . S
C224 C116 1.471 . S
C235 C5 1.613 . S
C240 C119 1.598 . S
C251 C9 1.611 . S
C256 C27 1.643 . S
C267 C49 1.630 . S
C272 C31 1.657 . S
C283 C71 1.600 . S
C288 C53 1.625 . S
C299 C93 1.606 . S
C304 C75 1.637 . S
C315 C97 1.598 . S
C320 C115 1.611 . S
C331 C8 1.305 . S
C336 C92 1.252 . S
C347 C30 1.249 . S
C352 C114 1.302 . S
C363 C52 1.240 . S
C368 C4 1.273 . S
C379 C74 1.245 . S
C384 C26 1.296 . S
C395 C96 1.314 . S
C400 C48 1.263 . S
C411 C70 1.240 . S
C416 C118 1.282 . S
