# Generated by pormake.
# Topology unt, (4)-cn, num edge types: 1
# Building blocks:
#     Node 0, Type 0, BuildingBlock: GALJAG_clean_sbu_0, # of connection points: 4
#     Node 1, Type 0, BuildingBlock: GALJAG_clean_sbu_0, # of connection points: 4
#     Node 2, Type 0, BuildingBlock: GALJAG_clean_sbu_0, # of connection points: 4
#     Node 3, Type 0, BuildingBlock: GALJAG_clean_sbu_0, # of connection points: 4
#     Node 4, Type 0, BuildingBlock: GALJAG_clean_sbu_0, # of connection points: 4
#     Node 5, Type 0, BuildingBlock: GALJAG_clean_sbu_0, # of connection points: 4
#     Node 6, Type 0, BuildingBlock: GALJAG_clean_sbu_0, # of connection points: 4
#     Node 7, Type 0, BuildingBlock: GALJAG_clean_sbu_0, # of connection points: 4
#     Node 8, Type 0, BuildingBlock: GALJAG_clean_sbu_0, # of connection points: 4
#     Node 9, Type 0, BuildingBlock: GALJAG_clean_sbu_0, # of connection points: 4
#     Node 10, Type 0, BuildingBlock: GALJAG_clean_sbu_0, # of connection points: 4
#     Node 11, Type 0, BuildingBlock: GALJAG_clean_sbu_0, # of connection points: 4
#     Node 12, Type 0, BuildingBlock: GALJAG_clean_sbu_0, # of connection points: 4
#     Node 13, Type 0, BuildingBlock: GALJAG_clean_sbu_0, # of connection points: 4
#     Node 14, Type 0, BuildingBlock: GALJAG_clean_sbu_0, # of connection points: 4
#     Node 15, Type 0, BuildingBlock: GALJAG_clean_sbu_0, # of connection points: 4
#     Node 16, Type 0, BuildingBlock: GALJAG_clean_sbu_0, # of connection points: 4
#     Node 17, Type 0, BuildingBlock: GALJAG_clean_sbu_0, # of connection points: 4
#     Node 18, Type 0, BuildingBlock: GALJAG_clean_sbu_0, # of connection points: 4
#     Node 19, Type 0, BuildingBlock: GALJAG_clean_sbu_0, # of connection points: 4
#     Node 20, Type 0, BuildingBlock: GALJAG_clean_sbu_0, # of connection points: 4
#     Node 21, Type 0, BuildingBlock: GALJAG_clean_sbu_0, # of connection points: 4
#     Node 22, Type 0, BuildingBlock: GALJAG_clean_sbu_0, # of connection points: 4
#     Node 23, Type 0, BuildingBlock: GALJAG_clean_sbu_0, # of connection points: 4
#     Node 24, Type 0, BuildingBlock: GALJAG_clean_sbu_0, # of connection points: 4
#     Node 25, Type 0, BuildingBlock: GALJAG_clean_sbu_0, # of connection points: 4
#     Node 26, Type 0, BuildingBlock: GALJAG_clean_sbu_0, # of connection points: 4
#     Node 27, Type 0, BuildingBlock: GALJAG_clean_sbu_0, # of connection points: 4
#     Node 28, Type 0, BuildingBlock: GALJAG_clean_sbu_0, # of connection points: 4
#     Node 29, Type 0, BuildingBlock: GALJAG_clean_sbu_0, # of connection points: 4
#     Node 30, Type 0, BuildingBlock: GALJAG_clean_sbu_0, # of connection points: 4
#     Node 31, Type 0, BuildingBlock: GALJAG_clean_sbu_0, # of connection points: 4
#     Node 32, Type 0, BuildingBlock: GALJAG_clean_sbu_0, # of connection points: 4
#     Node 33, Type 0, BuildingBlock: GALJAG_clean_sbu_0, # of connection points: 4
#     Node 34, Type 0, BuildingBlock: GALJAG_clean_sbu_0, # of connection points: 4
#     Node 35, Type 0, BuildingBlock: GALJAG_clean_sbu_0, # of connection points: 4
#     Node 36, Type 0, BuildingBlock: GALJAG_clean_sbu_0, # of connection points: 4
#     Node 37, Type 0, BuildingBlock: GALJAG_clean_sbu_0, # of connection points: 4
#     Node 38, Type 0, BuildingBlock: GALJAG_clean_sbu_0, # of connection points: 4
#     Node 39, Type 0, BuildingBlock: GALJAG_clean_sbu_0, # of connection points: 4
#     Node 40, Type 0, BuildingBlock: GALJAG_clean_sbu_0, # of connection points: 4
#     Node 41, Type 0, BuildingBlock: GALJAG_clean_sbu_0, # of connection points: 4
#     Node 42, Type 0, BuildingBlock: GALJAG_clean_sbu_0, # of connection points: 4
#     Node 43, Type 0, BuildingBlock: GALJAG_clean_sbu_0, # of connection points: 4
#     Node 44, Type 0, BuildingBlock: GALJAG_clean_sbu_0, # of connection points: 4
#     Node 45, Type 0, BuildingBlock: GALJAG_clean_sbu_0, # of connection points: 4
#     Node 46, Type 0, BuildingBlock: GALJAG_clean_sbu_0, # of connection points: 4
#     Node 47, Type 0, BuildingBlock: GALJAG_clean_sbu_0, # of connection points: 4
#     Node 48, Type 0, BuildingBlock: GALJAG_clean_sbu_0, # of connection points: 4
#     Node 49, Type 0, BuildingBlock: GALJAG_clean_sbu_0, # of connection points: 4
#     Node 50, Type 0, BuildingBlock: GALJAG_clean_sbu_0, # of connection points: 4
#     Node 51, Type 0, BuildingBlock: GALJAG_clean_sbu_0, # of connection points: 4
#     Node 52, Type 0, BuildingBlock: GALJAG_clean_sbu_0, # of connection points: 4
#     Node 53, Type 0, BuildingBlock: GALJAG_clean_sbu_0, # of connection points: 4
#     Node 54, Type 0, BuildingBlock: GALJAG_clean_sbu_0, # of connection points: 4
#     Node 55, Type 0, BuildingBlock: GALJAG_clean_sbu_0, # of connection points: 4
#     Node 56, Type 0, BuildingBlock: GALJAG_clean_sbu_0, # of connection points: 4
#     Node 57, Type 0, BuildingBlock: GALJAG_clean_sbu_0, # of connection points: 4
#     Node 58, Type 0, BuildingBlock: GALJAG_clean_sbu_0, # of connection points: 4
#     Node 59, Type 0, BuildingBlock: GALJAG_clean_sbu_0, # of connection points: 4
#     Node 60, Type 0, BuildingBlock: GALJAG_clean_sbu_0, # of connection points: 4
#     Node 61, Type 0, BuildingBlock: GALJAG_clean_sbu_0, # of connection points: 4
#     Node 62, Type 0, BuildingBlock: GALJAG_clean_sbu_0, # of connection points: 4
#     Node 63, Type 0, BuildingBlock: GALJAG_clean_sbu_0, # of connection points: 4
#     Node 64, Type 0, BuildingBlock: GALJAG_clean_sbu_0, # of connection points: 4
#     Node 65, Type 0, BuildingBlock: GALJAG_clean_sbu_0, # of connection points: 4
#     Node 66, Type 0, BuildingBlock: GALJAG_clean_sbu_0, # of connection points: 4
#     Node 67, Type 0, BuildingBlock: GALJAG_clean_sbu_0, # of connection points: 4
#     Node 68, Type 0, BuildingBlock: GALJAG_clean_sbu_0, # of connection points: 4
#     Node 69, Type 0, BuildingBlock: GALJAG_clean_sbu_0, # of connection points: 4
#     Node 70, Type 0, BuildingBlock: GALJAG_clean_sbu_0, # of connection points: 4
#     Node 71, Type 0, BuildingBlock: GALJAG_clean_sbu_0, # of connection points: 4
#     Node 72, Type 0, BuildingBlock: GALJAG_clean_sbu_0, # of connection points: 4
#     Node 73, Type 0, BuildingBlock: GALJAG_clean_sbu_0, # of connection points: 4
#     Node 74, Type 0, BuildingBlock: GALJAG_clean_sbu_0, # of connection points: 4
#     Node 75, Type 0, BuildingBlock: GALJAG_clean_sbu_0, # of connection points: 4
#     Node 76, Type 0, BuildingBlock: GALJAG_clean_sbu_0, # of connection points: 4
#     Node 77, Type 0, BuildingBlock: GALJAG_clean_sbu_0, # of connection points: 4
#     Node 78, Type 0, BuildingBlock: GALJAG_clean_sbu_0, # of connection points: 4
#     Node 79, Type 0, BuildingBlock: GALJAG_clean_sbu_0, # of connection points: 4
#     Node 80, Type 0, BuildingBlock: GALJAG_clean_sbu_0, # of connection points: 4
#     Node 81, Type 0, BuildingBlock: GALJAG_clean_sbu_0, # of connection points: 4
#     Node 82, Type 0, BuildingBlock: GALJAG_clean_sbu_0, # of connection points: 4
#     Node 83, Type 0, BuildingBlock: GALJAG_clean_sbu_0, # of connection points: 4
#     Node 84, Type 0, BuildingBlock: GALJAG_clean_sbu_0, # of connection points: 4
#     Node 85, Type 0, BuildingBlock: GALJAG_clean_sbu_0, # of connection points: 4
#     Node 86, Type 0, BuildingBlock: GALJAG_clean_sbu_0, # of connection points: 4
#     Node 87, Type 0, BuildingBlock: GALJAG_clean_sbu_0, # of connection points: 4
#     Node 88, Type 0, BuildingBlock: GALJAG_clean_sbu_0, # of connection points: 4
#     Node 89, Type 0, BuildingBlock: GALJAG_clean_sbu_0, # of connection points: 4
#     Node 90, Type 0, BuildingBlock: GALJAG_clean_sbu_0, # of connection points: 4
#     Node 91, Type 0, BuildingBlock: GALJAG_clean_sbu_0, # of connection points: 4
#     Node 92, Type 0, BuildingBlock: GALJAG_clean_sbu_0, # of connection points: 4
#     Node 93, Type 0, BuildingBlock: GALJAG_clean_sbu_0, # of connection points: 4
#     Node 94, Type 0, BuildingBlock: GALJAG_clean_sbu_0, # of connection points: 4
#     Node 95, Type 0, BuildingBlock: GALJAG_clean_sbu_0, # of connection points: 4
#     Node 96, Type 0, BuildingBlock: GALJAG_clean_sbu_0, # of connection points: 4
#     Node 97, Type 0, BuildingBlock: GALJAG_clean_sbu_0, # of connection points: 4
#     Node 98, Type 0, BuildingBlock: GALJAG_clean_sbu_0, # of connection points: 4
#     Node 99, Type 0, BuildingBlock: GALJAG_clean_sbu_0, # of connection points: 4
#     Node 100, Type 0, BuildingBlock: GALJAG_clean_sbu_0, # of connection points: 4
#     Node 101, Type 0, BuildingBlock: GALJAG_clean_sbu_0, # of connection points: 4
#     Node 102, Type 0, BuildingBlock: GALJAG_clean_sbu_0, # of connection points: 4
#     Node 103, Type 0, BuildingBlock: GALJAG_clean_sbu_0, # of connection points: 4
#     Node 104, Type 0, BuildingBlock: GALJAG_clean_sbu_0, # of connection points: 4
#     Node 105, Type 0, BuildingBlock: GALJAG_clean_sbu_0, # of connection points: 4
#     Node 106, Type 0, BuildingBlock: GALJAG_clean_sbu_0, # of connection points: 4
#     Node 107, Type 0, BuildingBlock: GALJAG_clean_sbu_0, # of connection points: 4
#     Node 108, Type 0, BuildingBlock: GALJAG_clean_sbu_0, # of connection points: 4
#     Node 109, Type 0, BuildingBlock: GALJAG_clean_sbu_0, # of connection points: 4
#     Node 110, Type 0, BuildingBlock: GALJAG_clean_sbu_0, # of connection points: 4
#     Node 111, Type 0, BuildingBlock: GALJAG_clean_sbu_0, # of connection points: 4
#     Node 112, Type 0, BuildingBlock: GALJAG_clean_sbu_0, # of connection points: 4
#     Node 113, Type 0, BuildingBlock: GALJAG_clean_sbu_0, # of connection points: 4
#     Node 114, Type 0, BuildingBlock: GALJAG_clean_sbu_0, # of connection points: 4
#     Node 115, Type 0, BuildingBlock: GALJAG_clean_sbu_0, # of connection points: 4
#     Node 116, Type 0, BuildingBlock: GALJAG_clean_sbu_0, # of connection points: 4
#     Node 117, Type 0, BuildingBlock: GALJAG_clean_sbu_0, # of connection points: 4
#     Node 118, Type 0, BuildingBlock: GALJAG_clean_sbu_0, # of connection points: 4
#     Node 119, Type 0, BuildingBlock: GALJAG_clean_sbu_0, # of connection points: 4
#     Node 120, Type 0, BuildingBlock: GALJAG_clean_sbu_0, # of connection points: 4
#     Node 121, Type 0, BuildingBlock: GALJAG_clean_sbu_0, # of connection points: 4
#     Node 122, Type 0, BuildingBlock: GALJAG_clean_sbu_0, # of connection points: 4
#     Node 123, Type 0, BuildingBlock: GALJAG_clean_sbu_0, # of connection points: 4
#     Node 124, Type 0, BuildingBlock: GALJAG_clean_sbu_0, # of connection points: 4
#     Node 125, Type 0, BuildingBlock: GALJAG_clean_sbu_0, # of connection points: 4
#     Node 126, Type 0, BuildingBlock: GALJAG_clean_sbu_0, # of connection points: 4
#     Node 127, Type 0, BuildingBlock: GALJAG_clean_sbu_0, # of connection points: 4
#     Node 128, Type 0, BuildingBlock: GALJAG_clean_sbu_0, # of connection points: 4
#     Node 129, Type 0, BuildingBlock: GALJAG_clean_sbu_0, # of connection points: 4
#     Node 130, Type 0, BuildingBlock: GALJAG_clean_sbu_0, # of connection points: 4
#     Node 131, Type 0, BuildingBlock: GALJAG_clean_sbu_0, # of connection points: 4
#     Node 132, Type 0, BuildingBlock: GALJAG_clean_sbu_0, # of connection points: 4
#     Node 133, Type 0, BuildingBlock: GALJAG_clean_sbu_0, # of connection points: 4
#     Node 134, Type 0, BuildingBlock: GALJAG_clean_sbu_0, # of connection points: 4
#     Node 135, Type 0, BuildingBlock: GALJAG_clean_sbu_0, # of connection points: 4
#     Node 136, Type 0, BuildingBlock: GALJAG_clean_sbu_0, # of connection points: 4
#     Node 137, Type 0, BuildingBlock: GALJAG_clean_sbu_0, # of connection points: 4
#     Node 138, Type 0, BuildingBlock: GALJAG_clean_sbu_0, # of connection points: 4
#     Node 139, Type 0, BuildingBlock: GALJAG_clean_sbu_0, # of connection points: 4
#     Node 140, Type 0, BuildingBlock: GALJAG_clean_sbu_0, # of connection points: 4
#     Node 141, Type 0, BuildingBlock: GALJAG_clean_sbu_0, # of connection points: 4
#     Node 142, Type 0, BuildingBlock: GALJAG_clean_sbu_0, # of connection points: 4
#     Node 143, Type 0, BuildingBlock: GALJAG_clean_sbu_0, # of connection points: 4
#     Node 144, Type 0, BuildingBlock: GALJAG_clean_sbu_0, # of connection points: 4
#     Node 145, Type 0, BuildingBlock: GALJAG_clean_sbu_0, # of connection points: 4
#     Node 146, Type 0, BuildingBlock: GALJAG_clean_sbu_0, # of connection points: 4
#     Node 147, Type 0, BuildingBlock: GALJAG_clean_sbu_0, # of connection points: 4
#     Node 148, Type 0, BuildingBlock: GALJAG_clean_sbu_0, # of connection points: 4
#     Node 149, Type 0, BuildingBlock: GALJAG_clean_sbu_0, # of connection points: 4
#     Node 150, Type 0, BuildingBlock: GALJAG_clean_sbu_0, # of connection points: 4
#     Node 151, Type 0, BuildingBlock: GALJAG_clean_sbu_0, # of connection points: 4
#     Node 152, Type 0, BuildingBlock: GALJAG_clean_sbu_0, # of connection points: 4
#     Node 153, Type 0, BuildingBlock: GALJAG_clean_sbu_0, # of connection points: 4
#     Node 154, Type 0, BuildingBlock: GALJAG_clean_sbu_0, # of connection points: 4
#     Node 155, Type 0, BuildingBlock: GALJAG_clean_sbu_0, # of connection points: 4
#     Node 156, Type 0, BuildingBlock: GALJAG_clean_sbu_0, # of connection points: 4
#     Node 157, Type 0, BuildingBlock: GALJAG_clean_sbu_0, # of connection points: 4
#     Node 158, Type 0, BuildingBlock: GALJAG_clean_sbu_0, # of connection points: 4
#     Node 159, Type 0, BuildingBlock: GALJAG_clean_sbu_0, # of connection points: 4
#     Node 160, Type 0, BuildingBlock: GALJAG_clean_sbu_0, # of connection points: 4
#     Node 161, Type 0, BuildingBlock: GALJAG_clean_sbu_0, # of connection points: 4
#     Node 162, Type 0, BuildingBlock: GALJAG_clean_sbu_0, # of connection points: 4
#     Node 163, Type 0, BuildingBlock: GALJAG_clean_sbu_0, # of connection points: 4
#     Node 164, Type 0, BuildingBlock: GALJAG_clean_sbu_0, # of connection points: 4
#     Node 165, Type 0, BuildingBlock: GALJAG_clean_sbu_0, # of connection points: 4
#     Node 166, Type 0, BuildingBlock: GALJAG_clean_sbu_0, # of connection points: 4
#     Node 167, Type 0, BuildingBlock: GALJAG_clean_sbu_0, # of connection points: 4
#     Node 168, Type 0, BuildingBlock: GALJAG_clean_sbu_0, # of connection points: 4
#     Node 169, Type 0, BuildingBlock: GALJAG_clean_sbu_0, # of connection points: 4
#     Node 170, Type 0, BuildingBlock: GALJAG_clean_sbu_0, # of connection points: 4
#     Node 171, Type 0, BuildingBlock: GALJAG_clean_sbu_0, # of connection points: 4
#     Node 172, Type 0, BuildingBlock: GALJAG_clean_sbu_0, # of connection points: 4
#     Node 173, Type 0, BuildingBlock: GALJAG_clean_sbu_0, # of connection points: 4
#     Node 174, Type 0, BuildingBlock: GALJAG_clean_sbu_0, # of connection points: 4
#     Node 175, Type 0, BuildingBlock: GALJAG_clean_sbu_0, # of connection points: 4
#     Node 176, Type 0, BuildingBlock: GALJAG_clean_sbu_0, # of connection points: 4
#     Node 177, Type 0, BuildingBlock: GALJAG_clean_sbu_0, # of connection points: 4
#     Node 178, Type 0, BuildingBlock: GALJAG_clean_sbu_0, # of connection points: 4
#     Node 179, Type 0, BuildingBlock: GALJAG_clean_sbu_0, # of connection points: 4
#     Node 180, Type 0, BuildingBlock: GALJAG_clean_sbu_0, # of connection points: 4
#     Node 181, Type 0, BuildingBlock: GALJAG_clean_sbu_0, # of connection points: 4
#     Node 182, Type 0, BuildingBlock: GALJAG_clean_sbu_0, # of connection points: 4
#     Node 183, Type 0, BuildingBlock: GALJAG_clean_sbu_0, # of connection points: 4
#     Node 184, Type 0, BuildingBlock: GALJAG_clean_sbu_0, # of connection points: 4
#     Node 185, Type 0, BuildingBlock: GALJAG_clean_sbu_0, # of connection points: 4
#     Node 186, Type 0, BuildingBlock: GALJAG_clean_sbu_0, # of connection points: 4
#     Node 187, Type 0, BuildingBlock: GALJAG_clean_sbu_0, # of connection points: 4
#     Node 188, Type 0, BuildingBlock: GALJAG_clean_sbu_0, # of connection points: 4
#     Node 189, Type 0, BuildingBlock: GALJAG_clean_sbu_0, # of connection points: 4
#     Node 190, Type 0, BuildingBlock: GALJAG_clean_sbu_0, # of connection points: 4
#     Node 191, Type 0, BuildingBlock: GALJAG_clean_sbu_0, # of connection points: 4
#     Edge 192, Type (0, 0), None
#     Edge 193, Type (0, 0), None
#     Edge 194, Type (0, 0), None
#     Edge 195, Type (0, 0), None
#     Edge 196, Type (0, 0), None
#     Edge 197, Type (0, 0), None
#     Edge 198, Type (0, 0), None
#     Edge 199, Type (0, 0), None
#     Edge 200, Type (0, 0), None
#     Edge 201, Type (0, 0), None
#     Edge 202, Type (0, 0), None
#     Edge 203, Type (0, 0), None
#     Edge 204, Type (0, 0), None
#     Edge 205, Type (0, 0), None
#     Edge 206, Type (0, 0), None
#     Edge 207, Type (0, 0), None
#     Edge 208, Type (0, 0), None
#     Edge 209, Type (0, 0), None
#     Edge 210, Type (0, 0), None
#     Edge 211, Type (0, 0), None
#     Edge 212, Type (0, 0), None
#     Edge 213, Type (0, 0), None
#     Edge 214, Type (0, 0), None
#     Edge 215, Type (0, 0), None
#     Edge 216, Type (0, 0), None
#     Edge 217, Type (0, 0), None
#     Edge 218, Type (0, 0), None
#     Edge 219, Type (0, 0), None
#     Edge 220, Type (0, 0), None
#     Edge 221, Type (0, 0), None
#     Edge 222, Type (0, 0), None
#     Edge 223, Type (0, 0), None
#     Edge 224, Type (0, 0), None
#     Edge 225, Type (0, 0), None
#     Edge 226, Type (0, 0), None
#     Edge 227, Type (0, 0), None
#     Edge 228, Type (0, 0), None
#     Edge 229, Type (0, 0), None
#     Edge 230, Type (0, 0), None
#     Edge 231, Type (0, 0), None
#     Edge 232, Type (0, 0), None
#     Edge 233, Type (0, 0), None
#     Edge 234, Type (0, 0), None
#     Edge 235, Type (0, 0), None
#     Edge 236, Type (0, 0), None
#     Edge 237, Type (0, 0), None
#     Edge 238, Type (0, 0), None
#     Edge 239, Type (0, 0), None
#     Edge 240, Type (0, 0), None
#     Edge 241, Type (0, 0), None
#     Edge 242, Type (0, 0), None
#     Edge 243, Type (0, 0), None
#     Edge 244, Type (0, 0), None
#     Edge 245, Type (0, 0), None
#     Edge 246, Type (0, 0), None
#     Edge 247, Type (0, 0), None
#     Edge 248, Type (0, 0), None
#     Edge 249, Type (0, 0), None
#     Edge 250, Type (0, 0), None
#     Edge 251, Type (0, 0), None
#     Edge 252, Type (0, 0), None
#     Edge 253, Type (0, 0), None
#     Edge 254, Type (0, 0), None
#     Edge 255, Type (0, 0), None
#     Edge 256, Type (0, 0), None
#     Edge 257, Type (0, 0), None
#     Edge 258, Type (0, 0), None
#     Edge 259, Type (0, 0), None
#     Edge 260, Type (0, 0), None
#     Edge 261, Type (0, 0), None
#     Edge 262, Type (0, 0), None
#     Edge 263, Type (0, 0), None
#     Edge 264, Type (0, 0), None
#     Edge 265, Type (0, 0), None
#     Edge 266, Type (0, 0), None
#     Edge 267, Type (0, 0), None
#     Edge 268, Type (0, 0), None
#     Edge 269, Type (0, 0), None
#     Edge 270, Type (0, 0), None
#     Edge 271, Type (0, 0), None
#     Edge 272, Type (0, 0), None
#     Edge 273, Type (0, 0), None
#     Edge 274, Type (0, 0), None
#     Edge 275, Type (0, 0), None
#     Edge 276, Type (0, 0), None
#     Edge 277, Type (0, 0), None
#     Edge 278, Type (0, 0), None
#     Edge 279, Type (0, 0), None
#     Edge 280, Type (0, 0), None
#     Edge 281, Type (0, 0), None
#     Edge 282, Type (0, 0), None
#     Edge 283, Type (0, 0), None
#     Edge 284, Type (0, 0), None
#     Edge 285, Type (0, 0), None
#     Edge 286, Type (0, 0), None
#     Edge 287, Type (0, 0), None
#     Edge 288, Type (0, 0), None
#     Edge 289, Type (0, 0), None
#     Edge 290, Type (0, 0), None
#     Edge 291, Type (0, 0), None
#     Edge 292, Type (0, 0), None
#     Edge 293, Type (0, 0), None
#     Edge 294, Type (0, 0), None
#     Edge 295, Type (0, 0), None
#     Edge 296, Type (0, 0), None
#     Edge 297, Type (0, 0), None
#     Edge 298, Type (0, 0), None
#     Edge 299, Type (0, 0), None
#     Edge 300, Type (0, 0), None
#     Edge 301, Type (0, 0), None
#     Edge 302, Type (0, 0), None
#     Edge 303, Type (0, 0), None
#     Edge 304, Type (0, 0), None
#     Edge 305, Type (0, 0), None
#     Edge 306, Type (0, 0), None
#     Edge 307, Type (0, 0), None
#     Edge 308, Type (0, 0), None
#     Edge 309, Type (0, 0), None
#     Edge 310, Type (0, 0), None
#     Edge 311, Type (0, 0), None
#     Edge 312, Type (0, 0), None
#     Edge 313, Type (0, 0), None
#     Edge 314, Type (0, 0), None
#     Edge 315, Type (0, 0), None
#     Edge 316, Type (0, 0), None
#     Edge 317, Type (0, 0), None
#     Edge 318, Type (0, 0), None
#     Edge 319, Type (0, 0), None
#     Edge 320, Type (0, 0), None
#     Edge 321, Type (0, 0), None
#     Edge 322, Type (0, 0), None
#     Edge 323, Type (0, 0), None
#     Edge 324, Type (0, 0), None
#     Edge 325, Type (0, 0), None
#     Edge 326, Type (0, 0), None
#     Edge 327, Type (0, 0), None
#     Edge 328, Type (0, 0), None
#     Edge 329, Type (0, 0), None
#     Edge 330, Type (0, 0), None
#     Edge 331, Type (0, 0), None
#     Edge 332, Type (0, 0), None
#     Edge 333, Type (0, 0), None
#     Edge 334, Type (0, 0), None
#     Edge 335, Type (0, 0), None
#     Edge 336, Type (0, 0), None
#     Edge 337, Type (0, 0), None
#     Edge 338, Type (0, 0), None
#     Edge 339, Type (0, 0), None
#     Edge 340, Type (0, 0), None
#     Edge 341, Type (0, 0), None
#     Edge 342, Type (0, 0), None
#     Edge 343, Type (0, 0), None
#     Edge 344, Type (0, 0), None
#     Edge 345, Type (0, 0), None
#     Edge 346, Type (0, 0), None
#     Edge 347, Type (0, 0), None
#     Edge 348, Type (0, 0), None
#     Edge 349, Type (0, 0), None
#     Edge 350, Type (0, 0), None
#     Edge 351, Type (0, 0), None
#     Edge 352, Type (0, 0), None
#     Edge 353, Type (0, 0), None
#     Edge 354, Type (0, 0), None
#     Edge 355, Type (0, 0), None
#     Edge 356, Type (0, 0), None
#     Edge 357, Type (0, 0), None
#     Edge 358, Type (0, 0), None
#     Edge 359, Type (0, 0), None
#     Edge 360, Type (0, 0), None
#     Edge 361, Type (0, 0), None
#     Edge 362, Type (0, 0), None
#     Edge 363, Type (0, 0), None
#     Edge 364, Type (0, 0), None
#     Edge 365, Type (0, 0), None
#     Edge 366, Type (0, 0), None
#     Edge 367, Type (0, 0), None
#     Edge 368, Type (0, 0), None
#     Edge 369, Type (0, 0), None
#     Edge 370, Type (0, 0), None
#     Edge 371, Type (0, 0), None
#     Edge 372, Type (0, 0), None
#     Edge 373, Type (0, 0), None
#     Edge 374, Type (0, 0), None
#     Edge 375, Type (0, 0), None
#     Edge 376, Type (0, 0), None
#     Edge 377, Type (0, 0), None
#     Edge 378, Type (0, 0), None
#     Edge 379, Type (0, 0), None
#     Edge 380, Type (0, 0), None
#     Edge 381, Type (0, 0), None
#     Edge 382, Type (0, 0), None
#     Edge 383, Type (0, 0), None
#     Edge 384, Type (0, 0), None
#     Edge 385, Type (0, 0), None
#     Edge 386, Type (0, 0), None
#     Edge 387, Type (0, 0), None
#     Edge 388, Type (0, 0), None
#     Edge 389, Type (0, 0), None
#     Edge 390, Type (0, 0), None
#     Edge 391, Type (0, 0), None
#     Edge 392, Type (0, 0), None
#     Edge 393, Type (0, 0), None
#     Edge 394, Type (0, 0), None
#     Edge 395, Type (0, 0), None
#     Edge 396, Type (0, 0), None
#     Edge 397, Type (0, 0), None
#     Edge 398, Type (0, 0), None
#     Edge 399, Type (0, 0), None
#     Edge 400, Type (0, 0), None
#     Edge 401, Type (0, 0), None
#     Edge 402, Type (0, 0), None
#     Edge 403, Type (0, 0), None
#     Edge 404, Type (0, 0), None
#     Edge 405, Type (0, 0), None
#     Edge 406, Type (0, 0), None
#     Edge 407, Type (0, 0), None
#     Edge 408, Type (0, 0), None
#     Edge 409, Type (0, 0), None
#     Edge 410, Type (0, 0), None
#     Edge 411, Type (0, 0), None
#     Edge 412, Type (0, 0), None
#     Edge 413, Type (0, 0), None
#     Edge 414, Type (0, 0), None
#     Edge 415, Type (0, 0), None
#     Edge 416, Type (0, 0), None
#     Edge 417, Type (0, 0), None
#     Edge 418, Type (0, 0), None
#     Edge 419, Type (0, 0), None
#     Edge 420, Type (0, 0), None
#     Edge 421, Type (0, 0), None
#     Edge 422, Type (0, 0), None
#     Edge 423, Type (0, 0), None
#     Edge 424, Type (0, 0), None
#     Edge 425, Type (0, 0), None
#     Edge 426, Type (0, 0), None
#     Edge 427, Type (0, 0), None
#     Edge 428, Type (0, 0), None
#     Edge 429, Type (0, 0), None
#     Edge 430, Type (0, 0), None
#     Edge 431, Type (0, 0), None
#     Edge 432, Type (0, 0), None
#     Edge 433, Type (0, 0), None
#     Edge 434, Type (0, 0), None
#     Edge 435, Type (0, 0), None
#     Edge 436, Type (0, 0), None
#     Edge 437, Type (0, 0), None
#     Edge 438, Type (0, 0), None
#     Edge 439, Type (0, 0), None
#     Edge 440, Type (0, 0), None
#     Edge 441, Type (0, 0), None
#     Edge 442, Type (0, 0), None
#     Edge 443, Type (0, 0), None
#     Edge 444, Type (0, 0), None
#     Edge 445, Type (0, 0), None
#     Edge 446, Type (0, 0), None
#     Edge 447, Type (0, 0), None
#     Edge 448, Type (0, 0), None
#     Edge 449, Type (0, 0), None
#     Edge 450, Type (0, 0), None
#     Edge 451, Type (0, 0), None
#     Edge 452, Type (0, 0), None
#     Edge 453, Type (0, 0), None
#     Edge 454, Type (0, 0), None
#     Edge 455, Type (0, 0), None
#     Edge 456, Type (0, 0), None
#     Edge 457, Type (0, 0), None
#     Edge 458, Type (0, 0), None
#     Edge 459, Type (0, 0), None
#     Edge 460, Type (0, 0), None
#     Edge 461, Type (0, 0), None
#     Edge 462, Type (0, 0), None
#     Edge 463, Type (0, 0), None
#     Edge 464, Type (0, 0), None
#     Edge 465, Type (0, 0), None
#     Edge 466, Type (0, 0), None
#     Edge 467, Type (0, 0), None
#     Edge 468, Type (0, 0), None
#     Edge 469, Type (0, 0), None
#     Edge 470, Type (0, 0), None
#     Edge 471, Type (0, 0), None
#     Edge 472, Type (0, 0), None
#     Edge 473, Type (0, 0), None
#     Edge 474, Type (0, 0), None
#     Edge 475, Type (0, 0), None
#     Edge 476, Type (0, 0), None
#     Edge 477, Type (0, 0), None
#     Edge 478, Type (0, 0), None
#     Edge 479, Type (0, 0), None
#     Edge 480, Type (0, 0), None
#     Edge 481, Type (0, 0), None
#     Edge 482, Type (0, 0), None
#     Edge 483, Type (0, 0), None
#     Edge 484, Type (0, 0), None
#     Edge 485, Type (0, 0), None
#     Edge 486, Type (0, 0), None
#     Edge 487, Type (0, 0), None
#     Edge 488, Type (0, 0), None
#     Edge 489, Type (0, 0), None
#     Edge 490, Type (0, 0), None
#     Edge 491, Type (0, 0), None
#     Edge 492, Type (0, 0), None
#     Edge 493, Type (0, 0), None
#     Edge 494, Type (0, 0), None
#     Edge 495, Type (0, 0), None
#     Edge 496, Type (0, 0), None
#     Edge 497, Type (0, 0), None
#     Edge 498, Type (0, 0), None
#     Edge 499, Type (0, 0), None
#     Edge 500, Type (0, 0), None
#     Edge 501, Type (0, 0), None
#     Edge 502, Type (0, 0), None
#     Edge 503, Type (0, 0), None
#     Edge 504, Type (0, 0), None
#     Edge 505, Type (0, 0), None
#     Edge 506, Type (0, 0), None
#     Edge 507, Type (0, 0), None
#     Edge 508, Type (0, 0), None
#     Edge 509, Type (0, 0), None
#     Edge 510, Type (0, 0), None
#     Edge 511, Type (0, 0), None
#     Edge 512, Type (0, 0), None
#     Edge 513, Type (0, 0), None
#     Edge 514, Type (0, 0), None
#     Edge 515, Type (0, 0), None
#     Edge 516, Type (0, 0), None
#     Edge 517, Type (0, 0), None
#     Edge 518, Type (0, 0), None
#     Edge 519, Type (0, 0), None
#     Edge 520, Type (0, 0), None
#     Edge 521, Type (0, 0), None
#     Edge 522, Type (0, 0), None
#     Edge 523, Type (0, 0), None
#     Edge 524, Type (0, 0), None
#     Edge 525, Type (0, 0), None
#     Edge 526, Type (0, 0), None
#     Edge 527, Type (0, 0), None
#     Edge 528, Type (0, 0), None
#     Edge 529, Type (0, 0), None
#     Edge 530, Type (0, 0), None
#     Edge 531, Type (0, 0), None
#     Edge 532, Type (0, 0), None
#     Edge 533, Type (0, 0), None
#     Edge 534, Type (0, 0), None
#     Edge 535, Type (0, 0), None
#     Edge 536, Type (0, 0), None
#     Edge 537, Type (0, 0), None
#     Edge 538, Type (0, 0), None
#     Edge 539, Type (0, 0), None
#     Edge 540, Type (0, 0), None
#     Edge 541, Type (0, 0), None
#     Edge 542, Type (0, 0), None
#     Edge 543, Type (0, 0), None
#     Edge 544, Type (0, 0), None
#     Edge 545, Type (0, 0), None
#     Edge 546, Type (0, 0), None
#     Edge 547, Type (0, 0), None
#     Edge 548, Type (0, 0), None
#     Edge 549, Type (0, 0), None
#     Edge 550, Type (0, 0), None
#     Edge 551, Type (0, 0), None
#     Edge 552, Type (0, 0), None
#     Edge 553, Type (0, 0), None
#     Edge 554, Type (0, 0), None
#     Edge 555, Type (0, 0), None
#     Edge 556, Type (0, 0), None
#     Edge 557, Type (0, 0), None
#     Edge 558, Type (0, 0), None
#     Edge 559, Type (0, 0), None
#     Edge 560, Type (0, 0), None
#     Edge 561, Type (0, 0), None
#     Edge 562, Type (0, 0), None
#     Edge 563, Type (0, 0), None
#     Edge 564, Type (0, 0), None
#     Edge 565, Type (0, 0), None
#     Edge 566, Type (0, 0), None
#     Edge 567, Type (0, 0), None
#     Edge 568, Type (0, 0), None
#     Edge 569, Type (0, 0), None
#     Edge 570, Type (0, 0), None
#     Edge 571, Type (0, 0), None
#     Edge 572, Type (0, 0), None
#     Edge 573, Type (0, 0), None
#     Edge 574, Type (0, 0), None
#     Edge 575, Type (0, 0), None
# Relax obj value: 0.118
# Max RMSD: 0.170
# Mean RMSD: 0.170
data_MOF--net-unt--node1-GALJAG_clean_sbu_0--edge1-none
_symmetry_space_group_name_H-M    P1
_symmetry_Int_Tables_number       1
_symmetry_cell_setting            triclinic
loop_
_symmetry_equiv_pos_as_xyz
'x, y, z'
_cell_length_a     47.224894
_cell_length_b     47.224883
_cell_length_c     47.224943
_cell_angle_alpha  89.999971
_cell_angle_beta   89.99991
_cell_angle_gamma 89.999936
loop_
_atom_site_label
_atom_site_type_symbol
_atom_site_fract_x
_atom_site_fract_y
_atom_site_fract_z
_atom_type_partial_charge
In0 In 0.06489 0.17414 0.09088 0.0
O1 O 0.0239 0.16791 0.06595 0.0
O2 O 0.02248 0.18726 0.10719 0.0
C3 C 0.11109 0.15063 0.06815 0.0
C4 C 0.07671 0.22857 0.082 0.0
C5 C 0.06256 0.13487 0.13164 0.0
O6 O 0.08664 0.14655 0.05774 0.0
O7 O 0.11216 0.16778 0.08856 0.0
O8 O 0.07195 0.15963 0.13639 0.0
O9 O 0.05365 0.13052 0.10684 0.0
C10 C 0.00903 0.17854 0.08571 0.0
O11 O 0.08146 0.21693 0.10573 0.0
O12 O 0.06592 0.21291 0.06315 0.0
In13 In 0.31296 0.06489 0.09088 0.0
O14 O 0.31919 0.0239 0.06595 0.0
O15 O 0.29985 0.02248 0.10719 0.0
C16 C 0.33648 0.11109 0.06815 0.0
C17 C 0.25853 0.07671 0.082 0.0
C18 C 0.35224 0.06256 0.13164 0.0
O19 O 0.34056 0.08664 0.05774 0.0
O20 O 0.31933 0.11216 0.08856 0.0
O21 O 0.32748 0.07195 0.13639 0.0
O22 O 0.35659 0.05365 0.10685 0.0
C23 C 0.30857 0.00903 0.08571 0.0
O24 O 0.27018 0.08146 0.10573 0.0
O25 O 0.27419 0.06592 0.06315 0.0
In26 In 0.42222 0.31296 0.09088 0.0
O27 O 0.46321 0.31919 0.06595 0.0
O28 O 0.46463 0.29984 0.10719 0.0
C29 C 0.37601 0.33648 0.06816 0.0
C30 C 0.41039 0.25853 0.082 0.0
C31 C 0.42454 0.35224 0.13164 0.0
O32 O 0.40047 0.34056 0.05774 0.0
O33 O 0.37495 0.31932 0.08856 0.0
O34 O 0.41516 0.32748 0.13639 0.0
O35 O 0.43346 0.35659 0.10685 0.0
C36 C 0.47808 0.30857 0.08571 0.0
O37 O 0.40565 0.27018 0.10573 0.0
O38 O 0.42119 0.27419 0.06315 0.0
In39 In 0.17414 0.42222 0.09088 0.0
O40 O 0.16791 0.46321 0.06595 0.0
O41 O 0.18726 0.46463 0.10719 0.0
C42 C 0.15063 0.37601 0.06815 0.0
C43 C 0.22857 0.41039 0.082 0.0
C44 C 0.13487 0.42454 0.13164 0.0
O45 O 0.14655 0.40047 0.05774 0.0
O46 O 0.16778 0.37495 0.08856 0.0
O47 O 0.15963 0.41516 0.13639 0.0
O48 O 0.13052 0.43346 0.10685 0.0
C49 C 0.17854 0.47808 0.08571 0.0
O50 O 0.21693 0.40565 0.10573 0.0
O51 O 0.21291 0.42119 0.06315 0.0
In52 In 0.06489 0.81296 0.89623 0.0
O53 O 0.08146 0.77018 0.88137 0.0
O54 O 0.06592 0.77419 0.92396 0.0
C55 C 0.06257 0.85224 0.85547 0.0
C56 C 0.00903 0.80857 0.90139 0.0
C57 C 0.11109 0.83648 0.91895 0.0
O58 O 0.07195 0.82748 0.85072 0.0
O59 O 0.05365 0.85659 0.88026 0.0
O60 O 0.08664 0.84056 0.92936 0.0
O61 O 0.11216 0.81933 0.89855 0.0
C62 C 0.07672 0.75853 0.90511 0.0
O63 O 0.0239 0.81919 0.92116 0.0
O64 O 0.02248 0.79984 0.87992 0.0
In65 In 0.67414 0.06489 0.89623 0.0
O66 O 0.66791 0.0239 0.92116 0.0
O67 O 0.68726 0.02248 0.87992 0.0
C68 C 0.65063 0.11109 0.91895 0.0
C69 C 0.72857 0.07672 0.90511 0.0
C70 C 0.63487 0.06257 0.85547 0.0
O71 O 0.64655 0.08664 0.92936 0.0
O72 O 0.66778 0.11216 0.89855 0.0
O73 O 0.65963 0.07195 0.85072 0.0
O74 O 0.63052 0.05365 0.88026 0.0
C75 C 0.67854 0.00903 0.90139 0.0
O76 O 0.71693 0.08146 0.88137 0.0
O77 O 0.71291 0.06592 0.92396 0.0
In78 In 0.42221 0.67414 0.89623 0.0
O79 O 0.40564 0.71693 0.88137 0.0
O80 O 0.42118 0.71291 0.92395 0.0
C81 C 0.42454 0.63487 0.85547 0.0
C82 C 0.47808 0.67854 0.90139 0.0
C83 C 0.37601 0.65063 0.91895 0.0
O84 O 0.41516 0.65963 0.85072 0.0
O85 O 0.43345 0.63052 0.88026 0.0
O86 O 0.40047 0.64655 0.92936 0.0
O87 O 0.37495 0.66778 0.89855 0.0
C88 C 0.41039 0.72857 0.90511 0.0
O89 O 0.46321 0.66791 0.92116 0.0
O90 O 0.46463 0.68726 0.87992 0.0
In91 In 0.81296 0.42222 0.89623 0.0
O92 O 0.77018 0.40564 0.88137 0.0
O93 O 0.77419 0.42119 0.92396 0.0
C94 C 0.85224 0.42454 0.85547 0.0
C95 C 0.80857 0.47808 0.90139 0.0
C96 C 0.83648 0.37601 0.91895 0.0
O97 O 0.82748 0.41516 0.85072 0.0
O98 O 0.85659 0.43346 0.88026 0.0
O99 O 0.84056 0.40047 0.92936 0.0
O100 O 0.81933 0.37495 0.89855 0.0
C101 C 0.75853 0.41039 0.90511 0.0
O102 O 0.81919 0.46321 0.92116 0.0
O103 O 0.79984 0.46463 0.87992 0.0
In104 In 0.09088 0.06489 0.17414 0.0
O105 O 0.10573 0.08146 0.21693 0.0
O106 O 0.06315 0.06592 0.21291 0.0
C107 C 0.13164 0.06256 0.13487 0.0
C108 C 0.08572 0.00903 0.17854 0.0
C109 C 0.06817 0.11109 0.15062 0.0
O110 O 0.13639 0.07195 0.15963 0.0
O111 O 0.10685 0.05365 0.13052 0.0
O112 O 0.05774 0.08663 0.14655 0.0
O113 O 0.08857 0.11216 0.16777 0.0
C114 C 0.082 0.07672 0.22857 0.0
O115 O 0.06595 0.0239 0.16791 0.0
O116 O 0.10719 0.02248 0.18726 0.0
In117 In 0.42222 0.09088 0.17414 0.0
O118 O 0.40564 0.10574 0.21693 0.0
O119 O 0.42118 0.06315 0.21291 0.0
C120 C 0.42454 0.13164 0.13487 0.0
C121 C 0.47808 0.08572 0.17854 0.0
C122 C 0.37602 0.06817 0.15062 0.0
O123 O 0.41516 0.13639 0.15963 0.0
O124 O 0.43346 0.10685 0.13052 0.0
O125 O 0.40047 0.05774 0.14655 0.0
O126 O 0.37495 0.08857 0.16777 0.0
C127 C 0.41039 0.082 0.22857 0.0
O128 O 0.46321 0.06596 0.16791 0.0
O129 O 0.46463 0.10719 0.18726 0.0
In130 In 0.39622 0.42221 0.17414 0.0
O131 O 0.42115 0.46321 0.16791 0.0
O132 O 0.37991 0.46463 0.18726 0.0
C133 C 0.41894 0.37602 0.15062 0.0
C134 C 0.4051 0.41039 0.22857 0.0
C135 C 0.35547 0.42454 0.13487 0.0
O136 O 0.42936 0.40047 0.14655 0.0
O137 O 0.39854 0.37495 0.16777 0.0
O138 O 0.35072 0.41516 0.15963 0.0
O139 O 0.38026 0.43346 0.13052 0.0
C140 C 0.40139 0.47808 0.17854 0.0
O141 O 0.38137 0.40564 0.21693 0.0
O142 O 0.42395 0.42118 0.21291 0.0
In143 In 0.06489 0.39622 0.17414 0.0
O144 O 0.08146 0.38137 0.21693 0.0
O145 O 0.06592 0.42395 0.21291 0.0
C146 C 0.06256 0.35547 0.13487 0.0
C147 C 0.00903 0.40139 0.17854 0.0
C148 C 0.11109 0.41894 0.15062 0.0
O149 O 0.07195 0.35072 0.15963 0.0
O150 O 0.05365 0.38026 0.13052 0.0
O151 O 0.08663 0.42936 0.14655 0.0
O152 O 0.11216 0.39854 0.16777 0.0
C153 C 0.07672 0.4051 0.22857 0.0
O154 O 0.0239 0.42115 0.16791 0.0
O155 O 0.02248 0.37991 0.18726 0.0
In156 In 0.09088 0.92222 0.81296 0.0
O157 O 0.10573 0.90564 0.77018 0.0
O158 O 0.06315 0.92118 0.77419 0.0
C159 C 0.13164 0.92454 0.85224 0.0
C160 C 0.08572 0.97808 0.80857 0.0
C161 C 0.06817 0.87602 0.83649 0.0
O162 O 0.13639 0.91516 0.82748 0.0
O163 O 0.10685 0.93346 0.85659 0.0
O164 O 0.05774 0.90047 0.84056 0.0
O165 O 0.08857 0.87495 0.81933 0.0
C166 C 0.082 0.91039 0.75853 0.0
O167 O 0.06596 0.96321 0.81919 0.0
O168 O 0.10719 0.96463 0.79984 0.0
In169 In 0.56489 0.09088 0.81296 0.0
O170 O 0.5239 0.06595 0.81919 0.0
O171 O 0.52248 0.10719 0.79984 0.0
C172 C 0.61109 0.06817 0.83649 0.0
C173 C 0.57672 0.082 0.75853 0.0
C174 C 0.56256 0.13164 0.85224 0.0
O175 O 0.58663 0.05774 0.84056 0.0
O176 O 0.61216 0.08857 0.81933 0.0
O177 O 0.57195 0.13639 0.82748 0.0
O178 O 0.55365 0.10685 0.85659 0.0
C179 C 0.50903 0.08572 0.80857 0.0
O180 O 0.58146 0.10574 0.77018 0.0
O181 O 0.56592 0.06315 0.77419 0.0
In182 In 0.39622 0.56489 0.81296 0.0
O183 O 0.38137 0.58146 0.77018 0.0
O184 O 0.42395 0.56592 0.77419 0.0
C185 C 0.35547 0.56256 0.85224 0.0
C186 C 0.40139 0.50903 0.80857 0.0
C187 C 0.41894 0.61109 0.83649 0.0
O188 O 0.35072 0.57195 0.82748 0.0
O189 O 0.38026 0.55365 0.85659 0.0
O190 O 0.42936 0.58663 0.84056 0.0
O191 O 0.39854 0.61216 0.81933 0.0
C192 C 0.4051 0.57672 0.75853 0.0
O193 O 0.42115 0.5239 0.81919 0.0
O194 O 0.37991 0.52248 0.79984 0.0
In195 In 0.92222 0.39622 0.81296 0.0
O196 O 0.96321 0.42115 0.81919 0.0
O197 O 0.96463 0.37991 0.79984 0.0
C198 C 0.87602 0.41894 0.83649 0.0
C199 C 0.91039 0.4051 0.75853 0.0
C200 C 0.92454 0.35547 0.85224 0.0
O201 O 0.90047 0.42936 0.84056 0.0
O202 O 0.87495 0.39854 0.81933 0.0
O203 O 0.91516 0.35072 0.82748 0.0
O204 O 0.93346 0.38026 0.85659 0.0
C205 C 0.97808 0.40139 0.80857 0.0
O206 O 0.90564 0.38137 0.77018 0.0
O207 O 0.92118 0.42395 0.77419 0.0
In208 In 0.17414 0.09088 0.06489 0.0
O209 O 0.21693 0.10573 0.08146 0.0
O210 O 0.21292 0.06315 0.06592 0.0
C211 C 0.13487 0.13163 0.06258 0.0
C212 C 0.17854 0.08571 0.00903 0.0
C213 C 0.15062 0.06817 0.11109 0.0
O214 O 0.15963 0.13639 0.07195 0.0
O215 O 0.13051 0.10684 0.05366 0.0
O216 O 0.14655 0.05774 0.08663 0.0
O217 O 0.16778 0.08857 0.11216 0.0
C218 C 0.22858 0.082 0.07671 0.0
O219 O 0.16791 0.06595 0.0239 0.0
O220 O 0.18726 0.10719 0.02248 0.0
In221 In 0.17414 0.39622 0.42222 0.0
O222 O 0.16791 0.42115 0.46321 0.0
O223 O 0.18726 0.37991 0.46463 0.0
C224 C 0.15063 0.41895 0.37601 0.0
C225 C 0.22857 0.4051 0.41039 0.0
C226 C 0.13487 0.35547 0.42454 0.0
O227 O 0.14655 0.42936 0.40047 0.0
O228 O 0.16778 0.39854 0.37495 0.0
O229 O 0.15963 0.35072 0.41516 0.0
O230 O 0.13052 0.38026 0.43346 0.0
C231 C 0.17854 0.40139 0.47808 0.0
O232 O 0.21693 0.38137 0.40565 0.0
O233 O 0.21291 0.42395 0.42119 0.0
In234 In 0.09088 0.17414 0.42222 0.0
O235 O 0.10573 0.21693 0.40565 0.0
O236 O 0.06315 0.21292 0.42119 0.0
C237 C 0.13164 0.13487 0.42454 0.0
C238 C 0.08571 0.17854 0.47808 0.0
C239 C 0.06816 0.15063 0.37601 0.0
O240 O 0.13639 0.15963 0.41516 0.0
O241 O 0.10685 0.13052 0.43346 0.0
O242 O 0.05775 0.14655 0.40047 0.0
O243 O 0.08856 0.16778 0.37495 0.0
C244 C 0.082 0.22857 0.41039 0.0
O245 O 0.06595 0.16791 0.46321 0.0
O246 O 0.10719 0.18726 0.46463 0.0
In247 In 0.31296 0.09088 0.42222 0.0
O248 O 0.31919 0.06595 0.46321 0.0
O249 O 0.29984 0.10719 0.46463 0.0
C250 C 0.33648 0.06816 0.37601 0.0
C251 C 0.25853 0.082 0.41039 0.0
C252 C 0.35224 0.13164 0.42454 0.0
O253 O 0.34056 0.05774 0.40047 0.0
O254 O 0.31932 0.08856 0.37495 0.0
O255 O 0.32748 0.13639 0.41516 0.0
O256 O 0.35659 0.10685 0.43345 0.0
C257 C 0.30857 0.08571 0.47808 0.0
O258 O 0.27018 0.10573 0.40564 0.0
O259 O 0.27419 0.06315 0.42119 0.0
In260 In 0.39622 0.81296 0.92221 0.0
O261 O 0.42115 0.81919 0.96321 0.0
O262 O 0.37991 0.79985 0.96463 0.0
C263 C 0.41895 0.83648 0.87601 0.0
C264 C 0.4051 0.75853 0.9104 0.0
C265 C 0.35547 0.85224 0.92454 0.0
O266 O 0.42936 0.84056 0.90047 0.0
O267 O 0.39855 0.81932 0.87495 0.0
O268 O 0.35072 0.82748 0.91516 0.0
O269 O 0.38026 0.85659 0.93345 0.0
C270 C 0.40139 0.80857 0.97808 0.0
O271 O 0.38137 0.77018 0.90565 0.0
O272 O 0.42395 0.77419 0.92119 0.0
In273 In 0.81296 0.89622 0.06489 0.0
O274 O 0.77018 0.88137 0.08146 0.0
O275 O 0.77419 0.92395 0.06592 0.0
C276 C 0.85224 0.85547 0.06256 0.0
C277 C 0.80857 0.90139 0.00903 0.0
C278 C 0.83648 0.91895 0.11109 0.0
O279 O 0.82748 0.85072 0.07195 0.0
O280 O 0.85659 0.88026 0.05365 0.0
O281 O 0.84056 0.92936 0.08663 0.0
O282 O 0.81932 0.89855 0.11216 0.0
C283 C 0.75853 0.9051 0.07671 0.0
O284 O 0.81919 0.92115 0.0239 0.0
O285 O 0.79984 0.87991 0.02248 0.0
In286 In 0.09088 0.81296 0.56489 0.0
O287 O 0.10573 0.77018 0.58146 0.0
O288 O 0.06315 0.77419 0.56592 0.0
C289 C 0.13164 0.85224 0.56257 0.0
C290 C 0.08572 0.80857 0.50903 0.0
C291 C 0.06816 0.83648 0.61109 0.0
O292 O 0.13639 0.82748 0.57195 0.0
O293 O 0.10685 0.85659 0.55365 0.0
O294 O 0.05775 0.84056 0.58664 0.0
O295 O 0.08856 0.81933 0.61216 0.0
C296 C 0.082 0.75853 0.57671 0.0
O297 O 0.06595 0.81919 0.5239 0.0
O298 O 0.10719 0.79985 0.52248 0.0
In299 In 0.39622 0.67414 0.56489 0.0
O300 O 0.38137 0.71693 0.58146 0.0
O301 O 0.42395 0.71291 0.56592 0.0
C302 C 0.35547 0.63487 0.56257 0.0
C303 C 0.40139 0.67854 0.50903 0.0
C304 C 0.41895 0.65063 0.61109 0.0
O305 O 0.35072 0.65963 0.57195 0.0
O306 O 0.38026 0.63052 0.55365 0.0
O307 O 0.42936 0.64655 0.58664 0.0
O308 O 0.39855 0.66778 0.61216 0.0
C309 C 0.4051 0.72857 0.57671 0.0
O310 O 0.42115 0.66791 0.5239 0.0
O311 O 0.37991 0.68726 0.52248 0.0
In312 In 0.92222 0.81296 0.89623 0.0
O313 O 0.96321 0.81919 0.92116 0.0
O314 O 0.96463 0.79985 0.87991 0.0
C315 C 0.87601 0.83648 0.91895 0.0
C316 C 0.91039 0.75853 0.9051 0.0
C317 C 0.92454 0.85224 0.85547 0.0
O318 O 0.90047 0.84056 0.92936 0.0
O319 O 0.87495 0.81933 0.89855 0.0
O320 O 0.91516 0.82748 0.85072 0.0
O321 O 0.93346 0.85659 0.88026 0.0
C322 C 0.97808 0.80857 0.90139 0.0
O323 O 0.90565 0.77018 0.88137 0.0
O324 O 0.92119 0.77419 0.92395 0.0
In325 In 0.67414 0.92222 0.89623 0.0
O326 O 0.71693 0.90565 0.88137 0.0
O327 O 0.71291 0.92119 0.92395 0.0
C328 C 0.63487 0.92454 0.85547 0.0
C329 C 0.67853 0.97808 0.90139 0.0
C330 C 0.65063 0.87601 0.91895 0.0
O331 O 0.65963 0.91516 0.85072 0.0
O332 O 0.63052 0.93346 0.88026 0.0
O333 O 0.64655 0.90047 0.92936 0.0
O334 O 0.66778 0.87495 0.89855 0.0
C335 C 0.72857 0.91039 0.9051 0.0
O336 O 0.66791 0.96321 0.92116 0.0
O337 O 0.68726 0.96463 0.87991 0.0
In338 In 0.56489 0.67414 0.89622 0.0
O339 O 0.5239 0.66791 0.92116 0.0
O340 O 0.52248 0.68726 0.87991 0.0
C341 C 0.61109 0.65063 0.91895 0.0
C342 C 0.57671 0.72857 0.9051 0.0
C343 C 0.56256 0.63487 0.85547 0.0
O344 O 0.58663 0.64655 0.92936 0.0
O345 O 0.61216 0.66778 0.89855 0.0
O346 O 0.57195 0.65963 0.85072 0.0
O347 O 0.55365 0.63052 0.88026 0.0
C348 C 0.50903 0.67853 0.90139 0.0
O349 O 0.58146 0.71693 0.88137 0.0
O350 O 0.56592 0.71291 0.92395 0.0
In351 In 0.81296 0.56489 0.89623 0.0
O352 O 0.77018 0.58146 0.88137 0.0
O353 O 0.77419 0.56592 0.92395 0.0
C354 C 0.85224 0.56257 0.85547 0.0
C355 C 0.80857 0.50903 0.90139 0.0
C356 C 0.83648 0.61109 0.91895 0.0
O357 O 0.82748 0.57195 0.85072 0.0
O358 O 0.85659 0.55365 0.88026 0.0
O359 O 0.84056 0.58664 0.92936 0.0
O360 O 0.81933 0.61216 0.89855 0.0
C361 C 0.75853 0.57671 0.9051 0.0
O362 O 0.81919 0.5239 0.92116 0.0
O363 O 0.79985 0.52248 0.87991 0.0
In364 In 0.92222 0.17414 0.09088 0.0
O365 O 0.90564 0.21693 0.10573 0.0
O366 O 0.92119 0.21291 0.06315 0.0
C367 C 0.92454 0.13487 0.13163 0.0
C368 C 0.97808 0.17853 0.08571 0.0
C369 C 0.87601 0.15063 0.06815 0.0
O370 O 0.91516 0.15963 0.13638 0.0
O371 O 0.93345 0.13052 0.10684 0.0
O372 O 0.90047 0.14655 0.05774 0.0
O373 O 0.87495 0.16778 0.08856 0.0
C374 C 0.91039 0.22857 0.082 0.0
O375 O 0.96321 0.16791 0.06595 0.0
O376 O 0.96463 0.18726 0.10719 0.0
In377 In 0.31296 0.92221 0.09088 0.0
O378 O 0.31919 0.96321 0.06595 0.0
O379 O 0.29985 0.96463 0.10719 0.0
C380 C 0.33648 0.87601 0.06815 0.0
C381 C 0.25853 0.91039 0.082 0.0
C382 C 0.35224 0.92454 0.13164 0.0
O383 O 0.34056 0.90047 0.05774 0.0
O384 O 0.31933 0.87495 0.08856 0.0
O385 O 0.32748 0.91516 0.13638 0.0
O386 O 0.35659 0.93345 0.10684 0.0
C387 C 0.30857 0.97808 0.08571 0.0
O388 O 0.27018 0.90564 0.10573 0.0
O389 O 0.27419 0.92119 0.06315 0.0
In390 In 0.56489 0.31296 0.09088 0.0
O391 O 0.58146 0.27018 0.10573 0.0
O392 O 0.56592 0.27419 0.06315 0.0
C393 C 0.56257 0.35224 0.13164 0.0
C394 C 0.50903 0.30857 0.08571 0.0
C395 C 0.61109 0.33648 0.06815 0.0
O396 O 0.57195 0.32748 0.13639 0.0
O397 O 0.55365 0.35659 0.10684 0.0
O398 O 0.58664 0.34056 0.05774 0.0
O399 O 0.61216 0.31933 0.08856 0.0
C400 C 0.57672 0.25853 0.082 0.0
O401 O 0.5239 0.31919 0.06595 0.0
O402 O 0.52248 0.29985 0.10719 0.0
In403 In 0.17414 0.56489 0.09088 0.0
O404 O 0.21693 0.58146 0.10573 0.0
O405 O 0.21291 0.56592 0.06315 0.0
C406 C 0.13487 0.56257 0.13164 0.0
C407 C 0.17853 0.50903 0.08571 0.0
C408 C 0.15063 0.61109 0.06815 0.0
O409 O 0.15963 0.57195 0.13639 0.0
O410 O 0.13052 0.55365 0.10684 0.0
O411 O 0.14655 0.58664 0.05774 0.0
O412 O 0.16778 0.61216 0.08856 0.0
C413 C 0.22857 0.57672 0.082 0.0
O414 O 0.16791 0.5239 0.06595 0.0
O415 O 0.18726 0.52248 0.10719 0.0
In416 In 0.89622 0.92222 0.81296 0.0
O417 O 0.88137 0.90564 0.77017 0.0
O418 O 0.92395 0.92118 0.77419 0.0
C419 C 0.85547 0.92454 0.85224 0.0
C420 C 0.90139 0.97808 0.80857 0.0
C421 C 0.91894 0.87602 0.83649 0.0
O422 O 0.85072 0.91516 0.82748 0.0
O423 O 0.88026 0.93346 0.85659 0.0
O424 O 0.92936 0.90048 0.84056 0.0
O425 O 0.89854 0.87495 0.81933 0.0
C426 C 0.9051 0.91039 0.75853 0.0
O427 O 0.92115 0.96321 0.81919 0.0
O428 O 0.87991 0.96463 0.79984 0.0
In429 In 0.56489 0.89622 0.81296 0.0
O430 O 0.5239 0.92115 0.81919 0.0
O431 O 0.52248 0.87991 0.79984 0.0
C432 C 0.61109 0.91894 0.83649 0.0
C433 C 0.57672 0.9051 0.75853 0.0
C434 C 0.56256 0.85547 0.85224 0.0
O435 O 0.58663 0.92936 0.84056 0.0
O436 O 0.61216 0.89854 0.81933 0.0
O437 O 0.57195 0.85072 0.82748 0.0
O438 O 0.55365 0.88026 0.85659 0.0
C439 C 0.50903 0.90139 0.80857 0.0
O440 O 0.58146 0.88137 0.77018 0.0
O441 O 0.56592 0.92395 0.77419 0.0
In442 In 0.59088 0.56489 0.81296 0.0
O443 O 0.56596 0.5239 0.81919 0.0
O444 O 0.60719 0.52248 0.79984 0.0
C445 C 0.56817 0.61109 0.83649 0.0
C446 C 0.582 0.57672 0.75853 0.0
C447 C 0.63164 0.56256 0.85224 0.0
O448 O 0.55774 0.58663 0.84056 0.0
O449 O 0.58857 0.61216 0.81933 0.0
O450 O 0.63639 0.57195 0.82748 0.0
O451 O 0.60685 0.55365 0.85659 0.0
C452 C 0.58572 0.50903 0.80857 0.0
O453 O 0.60573 0.58146 0.77017 0.0
O454 O 0.56315 0.56592 0.77419 0.0
In455 In 0.92222 0.59088 0.81296 0.0
O456 O 0.90564 0.60574 0.77018 0.0
O457 O 0.92118 0.56315 0.77419 0.0
C458 C 0.92454 0.63164 0.85224 0.0
C459 C 0.97808 0.58572 0.80857 0.0
C460 C 0.87602 0.56817 0.83649 0.0
O461 O 0.91516 0.63639 0.82748 0.0
O462 O 0.93346 0.60685 0.85659 0.0
O463 O 0.90047 0.55774 0.84056 0.0
O464 O 0.87495 0.58857 0.81933 0.0
C465 C 0.91039 0.582 0.75853 0.0
O466 O 0.96321 0.56596 0.81919 0.0
O467 O 0.96463 0.60719 0.79984 0.0
In468 In 0.89622 0.06489 0.17414 0.0
O469 O 0.92115 0.0239 0.16791 0.0
O470 O 0.87991 0.02248 0.18726 0.0
C471 C 0.91894 0.11109 0.15062 0.0
C472 C 0.9051 0.07672 0.22857 0.0
C473 C 0.85547 0.06256 0.13487 0.0
O474 O 0.92936 0.08663 0.14655 0.0
O475 O 0.89854 0.11216 0.16777 0.0
O476 O 0.85072 0.07195 0.15963 0.0
O477 O 0.88026 0.05365 0.13052 0.0
C478 C 0.90139 0.00903 0.17854 0.0
O479 O 0.88137 0.08146 0.21693 0.0
O480 O 0.92395 0.06592 0.21291 0.0
In481 In 0.42221 0.89622 0.17414 0.0
O482 O 0.46321 0.92115 0.16791 0.0
O483 O 0.46463 0.87991 0.18726 0.0
C484 C 0.37602 0.91894 0.15062 0.0
C485 C 0.41039 0.9051 0.22857 0.0
C486 C 0.42454 0.85547 0.13487 0.0
O487 O 0.40047 0.92936 0.14655 0.0
O488 O 0.37495 0.89854 0.16777 0.0
O489 O 0.41516 0.85072 0.15963 0.0
O490 O 0.43346 0.88026 0.13052 0.0
C491 C 0.47808 0.90139 0.17854 0.0
O492 O 0.40564 0.88137 0.21693 0.0
O493 O 0.42118 0.92395 0.21291 0.0
In494 In 0.59088 0.42222 0.17414 0.0
O495 O 0.56595 0.46321 0.16791 0.0
O496 O 0.60719 0.46463 0.18726 0.0
C497 C 0.56817 0.37602 0.15062 0.0
C498 C 0.582 0.41039 0.22857 0.0
C499 C 0.63164 0.42455 0.13487 0.0
O500 O 0.55774 0.40048 0.14655 0.0
O501 O 0.58857 0.37495 0.16777 0.0
O502 O 0.63639 0.41516 0.15963 0.0
O503 O 0.60685 0.43346 0.13052 0.0
C504 C 0.58572 0.47808 0.17854 0.0
O505 O 0.60573 0.40565 0.21693 0.0
O506 O 0.56315 0.42118 0.21291 0.0
In507 In 0.06489 0.59088 0.17414 0.0
O508 O 0.08146 0.60573 0.21693 0.0
O509 O 0.06592 0.56315 0.21291 0.0
C510 C 0.06256 0.63164 0.13487 0.0
C511 C 0.00903 0.58572 0.17854 0.0
C512 C 0.11109 0.56817 0.15062 0.0
O513 O 0.07195 0.63639 0.15963 0.0
O514 O 0.05365 0.60685 0.13052 0.0
O515 O 0.08663 0.55774 0.14655 0.0
O516 O 0.11216 0.58857 0.16777 0.0
C517 C 0.07672 0.582 0.22857 0.0
O518 O 0.0239 0.56596 0.16791 0.0
O519 O 0.02248 0.60719 0.18726 0.0
In520 In 0.81296 0.89623 0.92221 0.0
O521 O 0.77018 0.88137 0.90564 0.0
O522 O 0.77419 0.92395 0.92119 0.0
C523 C 0.85224 0.85548 0.92453 0.0
C524 C 0.80857 0.90139 0.97808 0.0
C525 C 0.83649 0.91894 0.87602 0.0
O526 O 0.82747 0.85072 0.91516 0.0
O527 O 0.85659 0.88027 0.93345 0.0
O528 O 0.84056 0.92937 0.90047 0.0
O529 O 0.81933 0.89854 0.87494 0.0
C530 C 0.75853 0.9051 0.9104 0.0
O531 O 0.81919 0.92116 0.96321 0.0
O532 O 0.79985 0.87991 0.96463 0.0
In533 In 0.81296 0.59088 0.56489 0.0
O534 O 0.81919 0.56595 0.5239 0.0
O535 O 0.79984 0.60719 0.52248 0.0
C536 C 0.83648 0.56816 0.61109 0.0
C537 C 0.75853 0.582 0.57671 0.0
C538 C 0.85224 0.63164 0.56256 0.0
O539 O 0.84056 0.55775 0.58664 0.0
O540 O 0.81932 0.58856 0.61216 0.0
O541 O 0.82748 0.63639 0.57195 0.0
O542 O 0.85659 0.60685 0.55365 0.0
C543 C 0.80857 0.58572 0.50903 0.0
O544 O 0.77018 0.60573 0.58146 0.0
O545 O 0.77419 0.56315 0.56592 0.0
In546 In 0.89622 0.81296 0.56489 0.0
O547 O 0.88137 0.77018 0.58146 0.0
O548 O 0.92395 0.77419 0.56592 0.0
C549 C 0.85547 0.85224 0.56256 0.0
C550 C 0.90139 0.80857 0.50903 0.0
C551 C 0.91895 0.83648 0.61109 0.0
O552 O 0.85072 0.82748 0.57195 0.0
O553 O 0.88026 0.85659 0.55365 0.0
O554 O 0.92936 0.84056 0.58663 0.0
O555 O 0.89855 0.81932 0.61216 0.0
C556 C 0.9051 0.75853 0.57671 0.0
O557 O 0.92115 0.81919 0.5239 0.0
O558 O 0.87991 0.79984 0.52248 0.0
In559 In 0.67414 0.89623 0.56489 0.0
O560 O 0.71693 0.88137 0.58146 0.0
O561 O 0.71292 0.92395 0.56592 0.0
C562 C 0.63487 0.85547 0.56257 0.0
C563 C 0.67854 0.90139 0.50903 0.0
C564 C 0.65063 0.91895 0.61109 0.0
O565 O 0.65963 0.85072 0.57195 0.0
O566 O 0.63052 0.88026 0.55365 0.0
O567 O 0.64655 0.92936 0.58664 0.0
O568 O 0.66778 0.89855 0.61216 0.0
C569 C 0.72857 0.9051 0.57671 0.0
O570 O 0.66791 0.92116 0.5239 0.0
O571 O 0.68726 0.87991 0.52248 0.0
In572 In 0.59088 0.17414 0.06489 0.0
O573 O 0.60574 0.21693 0.08146 0.0
O574 O 0.56316 0.21292 0.06592 0.0
C575 C 0.63164 0.13487 0.06257 0.0
C576 C 0.58571 0.17854 0.00903 0.0
C577 C 0.56816 0.15063 0.11109 0.0
O578 O 0.63639 0.15963 0.07195 0.0
O579 O 0.60685 0.13052 0.05365 0.0
O580 O 0.55775 0.14655 0.08664 0.0
O581 O 0.58856 0.16778 0.11216 0.0
C582 C 0.58201 0.22858 0.07671 0.0
O583 O 0.56595 0.16791 0.0239 0.0
O584 O 0.60719 0.18726 0.02248 0.0
In585 In 0.17414 0.09088 0.92222 0.0
O586 O 0.21693 0.10573 0.90564 0.0
O587 O 0.21292 0.06316 0.92119 0.0
C588 C 0.13487 0.13164 0.92454 0.0
C589 C 0.17853 0.08572 0.97808 0.0
C590 C 0.15063 0.06816 0.87601 0.0
O591 O 0.15963 0.13639 0.91516 0.0
O592 O 0.13052 0.10685 0.93345 0.0
O593 O 0.14655 0.05775 0.90047 0.0
O594 O 0.16778 0.08856 0.87495 0.0
C595 C 0.22857 0.082 0.91039 0.0
O596 O 0.16792 0.06595 0.96321 0.0
O597 O 0.18726 0.10719 0.96463 0.0
In598 In 0.89622 0.17414 0.42221 0.0
O599 O 0.88137 0.21693 0.40564 0.0
O600 O 0.92395 0.21291 0.42119 0.0
C601 C 0.85547 0.13487 0.42454 0.0
C602 C 0.90139 0.17854 0.47808 0.0
C603 C 0.91895 0.15063 0.37601 0.0
O604 O 0.85072 0.15963 0.41516 0.0
O605 O 0.88026 0.13052 0.43345 0.0
O606 O 0.92936 0.14655 0.40047 0.0
O607 O 0.89855 0.16778 0.37495 0.0
C608 C 0.90511 0.22857 0.41039 0.0
O609 O 0.92115 0.16791 0.46321 0.0
O610 O 0.87991 0.18726 0.46463 0.0
In611 In 0.59088 0.31296 0.42221 0.0
O612 O 0.60573 0.27018 0.40564 0.0
O613 O 0.56315 0.27419 0.42119 0.0
C614 C 0.63164 0.35224 0.42454 0.0
C615 C 0.58571 0.30857 0.47808 0.0
C616 C 0.56816 0.33648 0.37601 0.0
O617 O 0.63639 0.32748 0.41516 0.0
O618 O 0.60685 0.35659 0.43345 0.0
O619 O 0.55775 0.34056 0.40047 0.0
O620 O 0.58856 0.31933 0.37495 0.0
C621 C 0.582 0.25853 0.41039 0.0
O622 O 0.56595 0.31919 0.46321 0.0
O623 O 0.60719 0.29984 0.46463 0.0
In624 In 0.06489 0.67414 0.59088 0.0
O625 O 0.0239 0.66791 0.56595 0.0
O626 O 0.02248 0.68726 0.60719 0.0
C627 C 0.11109 0.65063 0.56815 0.0
C628 C 0.07671 0.72858 0.582 0.0
C629 C 0.06257 0.63487 0.63164 0.0
O630 O 0.08664 0.64655 0.55774 0.0
O631 O 0.11216 0.66778 0.58856 0.0
O632 O 0.07195 0.65963 0.63639 0.0
O633 O 0.05365 0.63052 0.60684 0.0
C634 C 0.00903 0.67854 0.58571 0.0
O635 O 0.08146 0.71693 0.60573 0.0
O636 O 0.06592 0.71292 0.56315 0.0
In637 In 0.31296 0.56489 0.59088 0.0
O638 O 0.31919 0.5239 0.56595 0.0
O639 O 0.29984 0.52248 0.60719 0.0
C640 C 0.33649 0.61109 0.56817 0.0
C641 C 0.25853 0.57671 0.582 0.0
C642 C 0.35224 0.56256 0.63164 0.0
O643 O 0.34056 0.58663 0.55774 0.0
O644 O 0.31933 0.61216 0.58857 0.0
O645 O 0.32748 0.57195 0.63639 0.0
O646 O 0.35659 0.55365 0.60685 0.0
C647 C 0.30857 0.50903 0.58571 0.0
O648 O 0.27018 0.58146 0.60573 0.0
O649 O 0.27419 0.56592 0.56315 0.0
In650 In 0.42222 0.81296 0.59088 0.0
O651 O 0.46321 0.81919 0.56595 0.0
O652 O 0.46463 0.79984 0.60719 0.0
C653 C 0.37601 0.83648 0.56816 0.0
C654 C 0.4104 0.75853 0.58201 0.0
C655 C 0.42454 0.85224 0.63164 0.0
O656 O 0.40047 0.84056 0.55774 0.0
O657 O 0.37495 0.81932 0.58856 0.0
O658 O 0.41516 0.82748 0.63639 0.0
O659 O 0.43345 0.85659 0.60685 0.0
C660 C 0.47808 0.80857 0.58571 0.0
O661 O 0.40565 0.77018 0.60574 0.0
O662 O 0.42119 0.77419 0.56315 0.0
In663 In 0.17414 0.92222 0.59088 0.0
O664 O 0.21693 0.90565 0.60573 0.0
O665 O 0.21291 0.92118 0.56315 0.0
C666 C 0.13487 0.92455 0.63164 0.0
C667 C 0.17854 0.97808 0.58571 0.0
C668 C 0.15062 0.87602 0.56817 0.0
O669 O 0.15963 0.91516 0.63639 0.0
O670 O 0.13052 0.93346 0.60685 0.0
O671 O 0.14655 0.90047 0.55774 0.0
O672 O 0.16777 0.87495 0.58857 0.0
C673 C 0.22857 0.91039 0.582 0.0
O674 O 0.16791 0.96321 0.56595 0.0
O675 O 0.18726 0.96463 0.60719 0.0
In676 In 0.06489 0.31296 0.39622 0.0
O677 O 0.0239 0.31919 0.42115 0.0
O678 O 0.02248 0.29984 0.37991 0.0
C679 C 0.11109 0.33649 0.41894 0.0
C680 C 0.07671 0.25853 0.4051 0.0
C681 C 0.06256 0.35224 0.35547 0.0
O682 O 0.08663 0.34056 0.42936 0.0
O683 O 0.11216 0.31933 0.39854 0.0
O684 O 0.07195 0.32748 0.35072 0.0
O685 O 0.05365 0.35659 0.38026 0.0
C686 C 0.00903 0.30857 0.40139 0.0
O687 O 0.08146 0.27018 0.38137 0.0
O688 O 0.06592 0.27419 0.42395 0.0
In689 In 0.67414 0.56489 0.39622 0.0
O690 O 0.71693 0.58146 0.38137 0.0
O691 O 0.71291 0.56592 0.42395 0.0
C692 C 0.63487 0.56257 0.35547 0.0
C693 C 0.67854 0.50903 0.40139 0.0
C694 C 0.65063 0.61109 0.41895 0.0
O695 O 0.65963 0.57195 0.35072 0.0
O696 O 0.63052 0.55365 0.38026 0.0
O697 O 0.64655 0.58664 0.42936 0.0
O698 O 0.66778 0.61216 0.39855 0.0
C699 C 0.72857 0.57671 0.4051 0.0
O700 O 0.66791 0.5239 0.42115 0.0
O701 O 0.68726 0.52248 0.37991 0.0
In702 In 0.42222 0.17414 0.39622 0.0
O703 O 0.40564 0.21693 0.38137 0.0
O704 O 0.42118 0.21291 0.42395 0.0
C705 C 0.42454 0.13487 0.35547 0.0
C706 C 0.47808 0.17854 0.40139 0.0
C707 C 0.37602 0.15062 0.41894 0.0
O708 O 0.41516 0.15963 0.35072 0.0
O709 O 0.43346 0.13052 0.38026 0.0
O710 O 0.40047 0.14655 0.42936 0.0
O711 O 0.37495 0.16777 0.39854 0.0
C712 C 0.41039 0.22857 0.40511 0.0
O713 O 0.46321 0.16791 0.42115 0.0
O714 O 0.46463 0.18726 0.37991 0.0
In715 In 0.81296 0.92222 0.39622 0.0
O716 O 0.81919 0.96321 0.42115 0.0
O717 O 0.79984 0.96463 0.37991 0.0
C718 C 0.83648 0.87601 0.41895 0.0
C719 C 0.75853 0.91039 0.4051 0.0
C720 C 0.85224 0.92454 0.35547 0.0
O721 O 0.84056 0.90047 0.42936 0.0
O722 O 0.81933 0.87495 0.39855 0.0
O723 O 0.82748 0.91516 0.35072 0.0
O724 O 0.85659 0.93346 0.38026 0.0
C725 C 0.80857 0.97808 0.40139 0.0
O726 O 0.77018 0.90565 0.38137 0.0
O727 O 0.77419 0.92119 0.42395 0.0
In728 In 0.09088 0.56489 0.67414 0.0
O729 O 0.10574 0.58146 0.71693 0.0
O730 O 0.06315 0.56592 0.71291 0.0
C731 C 0.13164 0.56256 0.63487 0.0
C732 C 0.08572 0.50903 0.67854 0.0
C733 C 0.06817 0.61109 0.65062 0.0
O734 O 0.13639 0.57195 0.65963 0.0
O735 O 0.10685 0.55365 0.63052 0.0
O736 O 0.05774 0.58663 0.64655 0.0
O737 O 0.08857 0.61216 0.66777 0.0
C738 C 0.082 0.57672 0.72857 0.0
O739 O 0.06596 0.5239 0.66791 0.0
O740 O 0.10719 0.52248 0.68727 0.0
In741 In 0.42221 0.59088 0.67414 0.0
O742 O 0.46321 0.56595 0.66791 0.0
O743 O 0.46463 0.6072 0.68726 0.0
C744 C 0.37602 0.56817 0.65062 0.0
C745 C 0.4104 0.58201 0.72858 0.0
C746 C 0.42453 0.63163 0.63487 0.0
O747 O 0.40047 0.55774 0.64655 0.0
O748 O 0.37494 0.58857 0.66778 0.0
O749 O 0.41516 0.63639 0.65963 0.0
O750 O 0.43345 0.60684 0.63051 0.0
C751 C 0.47808 0.58572 0.67854 0.0
O752 O 0.40564 0.60574 0.71693 0.0
O753 O 0.42119 0.56316 0.71292 0.0
In754 In 0.39622 0.92222 0.67414 0.0
O755 O 0.42115 0.96321 0.66791 0.0
O756 O 0.37991 0.96463 0.68727 0.0
C757 C 0.41894 0.87602 0.65062 0.0
C758 C 0.4051 0.91039 0.72857 0.0
C759 C 0.35547 0.92454 0.63487 0.0
O760 O 0.42936 0.90047 0.64655 0.0
O761 O 0.39853 0.87495 0.66777 0.0
O762 O 0.35072 0.91516 0.65963 0.0
O763 O 0.38026 0.93346 0.63052 0.0
C764 C 0.40139 0.97808 0.67854 0.0
O765 O 0.38137 0.90564 0.71693 0.0
O766 O 0.42395 0.92118 0.71291 0.0
In767 In 0.06489 0.89622 0.67414 0.0
O768 O 0.08146 0.88137 0.71693 0.0
O769 O 0.06592 0.92395 0.71292 0.0
C770 C 0.06258 0.85548 0.63487 0.0
C771 C 0.00903 0.90139 0.67854 0.0
C772 C 0.11109 0.91894 0.65062 0.0
O773 O 0.07195 0.85072 0.65963 0.0
O774 O 0.05366 0.88026 0.63051 0.0
O775 O 0.08663 0.92937 0.64655 0.0
O776 O 0.11216 0.89854 0.66778 0.0
C777 C 0.07671 0.9051 0.72858 0.0
O778 O 0.0239 0.92115 0.66791 0.0
O779 O 0.02248 0.87991 0.68726 0.0
In780 In 0.09088 0.42221 0.31296 0.0
O781 O 0.06595 0.46321 0.31919 0.0
O782 O 0.1072 0.46463 0.29985 0.0
C783 C 0.06817 0.37602 0.33649 0.0
C784 C 0.08201 0.4104 0.25853 0.0
C785 C 0.13163 0.42453 0.35224 0.0
O786 O 0.05774 0.40047 0.34056 0.0
O787 O 0.08857 0.37494 0.31933 0.0
O788 O 0.13639 0.41516 0.32747 0.0
O789 O 0.10684 0.43345 0.35659 0.0
C790 C 0.08572 0.47808 0.30857 0.0
O791 O 0.10574 0.40564 0.27018 0.0
O792 O 0.06316 0.42119 0.27419 0.0
In793 In 0.56489 0.59088 0.31296 0.0
O794 O 0.5239 0.56596 0.31919 0.0
O795 O 0.52248 0.60719 0.29984 0.0
C796 C 0.61109 0.56817 0.33649 0.0
C797 C 0.57672 0.582 0.25853 0.0
C798 C 0.56256 0.63164 0.35224 0.0
O799 O 0.58663 0.55774 0.34056 0.0
O800 O 0.61216 0.58857 0.31933 0.0
O801 O 0.57195 0.63639 0.32748 0.0
O802 O 0.55365 0.60685 0.35659 0.0
C803 C 0.50903 0.58572 0.30856 0.0
O804 O 0.58146 0.60574 0.27017 0.0
O805 O 0.56593 0.56315 0.27419 0.0
In806 In 0.39622 0.06489 0.31296 0.0
O807 O 0.38137 0.08146 0.27018 0.0
O808 O 0.42395 0.06592 0.27419 0.0
C809 C 0.35548 0.06258 0.35224 0.0
C810 C 0.40139 0.00903 0.30857 0.0
C811 C 0.41894 0.11109 0.33649 0.0
O812 O 0.35072 0.07195 0.32747 0.0
O813 O 0.38026 0.05366 0.35659 0.0
O814 O 0.42937 0.08663 0.34056 0.0
O815 O 0.39854 0.11216 0.31933 0.0
C816 C 0.4051 0.07671 0.25853 0.0
O817 O 0.42115 0.0239 0.31919 0.0
O818 O 0.37991 0.02248 0.29985 0.0
In819 In 0.92222 0.89622 0.31296 0.0
O820 O 0.96321 0.92115 0.31919 0.0
O821 O 0.96463 0.87991 0.29984 0.0
C822 C 0.87602 0.91894 0.33649 0.0
C823 C 0.91039 0.9051 0.25853 0.0
C824 C 0.92455 0.85547 0.35224 0.0
O825 O 0.90047 0.92936 0.34056 0.0
O826 O 0.87495 0.89854 0.31933 0.0
O827 O 0.91516 0.85072 0.32748 0.0
O828 O 0.93346 0.88026 0.35659 0.0
C829 C 0.97808 0.90139 0.30856 0.0
O830 O 0.90564 0.88137 0.27017 0.0
O831 O 0.92118 0.92395 0.27419 0.0
In832 In 0.17414 0.59088 0.56489 0.0
O833 O 0.21693 0.60574 0.58146 0.0
O834 O 0.21292 0.56316 0.56592 0.0
C835 C 0.13487 0.63163 0.56258 0.0
C836 C 0.17854 0.58572 0.50903 0.0
C837 C 0.15062 0.56817 0.61109 0.0
O838 O 0.15963 0.63639 0.57195 0.0
O839 O 0.13051 0.60684 0.55366 0.0
O840 O 0.14655 0.55774 0.58663 0.0
O841 O 0.16778 0.58857 0.61216 0.0
C842 C 0.22858 0.58201 0.57671 0.0
O843 O 0.16791 0.56595 0.5239 0.0
O844 O 0.18726 0.60719 0.52248 0.0
In845 In 0.17414 0.89623 0.92222 0.0
O846 O 0.16791 0.92115 0.96321 0.0
O847 O 0.18726 0.87991 0.96463 0.0
C848 C 0.15062 0.91894 0.87602 0.0
C849 C 0.22857 0.90511 0.91039 0.0
C850 C 0.13487 0.85548 0.92453 0.0
O851 O 0.14655 0.92937 0.90047 0.0
O852 O 0.16778 0.89854 0.87495 0.0
O853 O 0.15963 0.85072 0.91516 0.0
O854 O 0.13051 0.88027 0.93345 0.0
C855 C 0.17854 0.90139 0.97808 0.0
O856 O 0.21693 0.88137 0.90564 0.0
O857 O 0.21291 0.92395 0.92118 0.0
In858 In 0.09088 0.67414 0.92221 0.0
O859 O 0.10574 0.71693 0.90565 0.0
O860 O 0.06316 0.71292 0.92119 0.0
C861 C 0.13164 0.63487 0.92454 0.0
C862 C 0.08571 0.67854 0.97808 0.0
C863 C 0.06816 0.65063 0.87601 0.0
O864 O 0.13639 0.65963 0.91515 0.0
O865 O 0.10685 0.63052 0.93345 0.0
O866 O 0.05775 0.64655 0.90047 0.0
O867 O 0.08856 0.66778 0.87495 0.0
C868 C 0.08201 0.72858 0.9104 0.0
O869 O 0.06595 0.66791 0.96321 0.0
O870 O 0.10719 0.68726 0.96463 0.0
In871 In 0.31296 0.59088 0.92222 0.0
O872 O 0.31919 0.56595 0.96321 0.0
O873 O 0.29985 0.60719 0.96463 0.0
C874 C 0.33649 0.56817 0.87602 0.0
C875 C 0.25853 0.582 0.91039 0.0
C876 C 0.35224 0.63163 0.92453 0.0
O877 O 0.34056 0.55774 0.90047 0.0
O878 O 0.31933 0.58857 0.87495 0.0
O879 O 0.32747 0.63639 0.91516 0.0
O880 O 0.35659 0.60684 0.93345 0.0
C881 C 0.30857 0.58571 0.97808 0.0
O882 O 0.27018 0.60573 0.90564 0.0
O883 O 0.27419 0.56315 0.92118 0.0
In884 In 0.39622 0.31296 0.42222 0.0
O885 O 0.42115 0.31919 0.46321 0.0
O886 O 0.37991 0.29985 0.46463 0.0
C887 C 0.41895 0.33648 0.37601 0.0
C888 C 0.4051 0.25853 0.4104 0.0
C889 C 0.35547 0.35224 0.42454 0.0
O890 O 0.42936 0.34056 0.40047 0.0
O891 O 0.39855 0.31932 0.37495 0.0
O892 O 0.35072 0.32748 0.41516 0.0
O893 O 0.38026 0.35659 0.43346 0.0
C894 C 0.40139 0.30857 0.47808 0.0
O895 O 0.38137 0.27018 0.40565 0.0
O896 O 0.42395 0.27419 0.42119 0.0
In897 In 0.81296 0.39622 0.56489 0.0
O898 O 0.77018 0.38137 0.58146 0.0
O899 O 0.77419 0.42395 0.56592 0.0
C900 C 0.85224 0.35547 0.56257 0.0
C901 C 0.80857 0.40139 0.50903 0.0
C902 C 0.83648 0.41895 0.61109 0.0
O903 O 0.82748 0.35072 0.57195 0.0
O904 O 0.85659 0.38026 0.55365 0.0
O905 O 0.84056 0.42936 0.58664 0.0
O906 O 0.81932 0.39855 0.61216 0.0
C907 C 0.75853 0.4051 0.57671 0.0
O908 O 0.81919 0.42115 0.5239 0.0
O909 O 0.79984 0.37991 0.52248 0.0
In910 In 0.09088 0.31296 0.06489 0.0
O911 O 0.06595 0.31919 0.0239 0.0
O912 O 0.10719 0.29985 0.02248 0.0
C913 C 0.06817 0.33649 0.11109 0.0
C914 C 0.082 0.25853 0.07671 0.0
C915 C 0.13163 0.35224 0.06258 0.0
O916 O 0.05774 0.34056 0.08663 0.0
O917 O 0.08857 0.31933 0.11216 0.0
O918 O 0.13639 0.32747 0.07195 0.0
O919 O 0.10684 0.35659 0.05366 0.0
C920 C 0.08572 0.30857 0.00903 0.0
O921 O 0.10573 0.27018 0.08146 0.0
O922 O 0.06315 0.27419 0.06592 0.0
In923 In 0.39622 0.17414 0.06489 0.0
O924 O 0.42115 0.16791 0.0239 0.0
O925 O 0.37991 0.18726 0.02248 0.0
C926 C 0.41894 0.15062 0.11109 0.0
C927 C 0.4051 0.22858 0.07671 0.0
C928 C 0.35548 0.13487 0.06258 0.0
O929 O 0.42937 0.14655 0.08663 0.0
O930 O 0.39854 0.16778 0.11216 0.0
O931 O 0.35072 0.15963 0.07195 0.0
O932 O 0.38027 0.13051 0.05366 0.0
C933 C 0.40139 0.17854 0.00903 0.0
O934 O 0.38137 0.21693 0.08146 0.0
O935 O 0.42395 0.21292 0.06592 0.0
In936 In 0.92222 0.31296 0.39622 0.0
O937 O 0.96321 0.31919 0.42116 0.0
O938 O 0.96463 0.29985 0.37991 0.0
C939 C 0.87601 0.33648 0.41895 0.0
C940 C 0.9104 0.25853 0.4051 0.0
C941 C 0.92454 0.35224 0.35547 0.0
O942 O 0.90047 0.34056 0.42936 0.0
O943 O 0.87495 0.31932 0.39855 0.0
O944 O 0.91516 0.32748 0.35072 0.0
O945 O 0.93345 0.35659 0.38026 0.0
C946 C 0.97808 0.30857 0.40139 0.0
O947 O 0.90565 0.27018 0.38137 0.0
O948 O 0.92119 0.27419 0.42395 0.0
In949 In 0.67414 0.42222 0.39622 0.0
O950 O 0.66791 0.46321 0.42115 0.0
O951 O 0.68726 0.46463 0.37991 0.0
C952 C 0.65062 0.37602 0.41894 0.0
C953 C 0.72857 0.41039 0.4051 0.0
C954 C 0.63487 0.42454 0.35547 0.0
O955 O 0.64655 0.40047 0.42936 0.0
O956 O 0.66778 0.37495 0.39854 0.0
O957 O 0.65963 0.41516 0.35072 0.0
O958 O 0.63052 0.43346 0.38026 0.0
C959 C 0.67853 0.47808 0.40139 0.0
O960 O 0.71693 0.40565 0.38137 0.0
O961 O 0.71291 0.42119 0.42395 0.0
In962 In 0.56489 0.17414 0.39622 0.0
O963 O 0.58146 0.21693 0.38137 0.0
O964 O 0.56592 0.21292 0.42395 0.0
C965 C 0.56257 0.13487 0.35547 0.0
C966 C 0.50903 0.17853 0.40139 0.0
C967 C 0.61109 0.15063 0.41895 0.0
O968 O 0.57195 0.15963 0.35072 0.0
O969 O 0.55365 0.13052 0.38026 0.0
O970 O 0.58664 0.14655 0.42936 0.0
O971 O 0.61216 0.16778 0.39855 0.0
C972 C 0.57671 0.22858 0.4051 0.0
O973 O 0.5239 0.16792 0.42115 0.0
O974 O 0.52248 0.18726 0.37991 0.0
In975 In 0.81296 0.06489 0.39622 0.0
O976 O 0.81919 0.0239 0.42115 0.0
O977 O 0.79984 0.02248 0.37991 0.0
C978 C 0.83649 0.11109 0.41894 0.0
C979 C 0.75853 0.07672 0.4051 0.0
C980 C 0.85224 0.06256 0.35547 0.0
O981 O 0.84056 0.08663 0.42936 0.0
O982 O 0.81933 0.11216 0.39854 0.0
O983 O 0.82748 0.07195 0.35072 0.0
O984 O 0.85659 0.05365 0.38026 0.0
C985 C 0.80857 0.00903 0.40139 0.0
O986 O 0.77018 0.08146 0.38137 0.0
O987 O 0.77419 0.06592 0.42395 0.0
In988 In 0.92222 0.67414 0.59088 0.0
O989 O 0.96321 0.66791 0.56595 0.0
O990 O 0.96463 0.68726 0.60719 0.0
C991 C 0.87602 0.65062 0.56817 0.0
C992 C 0.9104 0.72857 0.582 0.0
C993 C 0.92454 0.63487 0.63164 0.0
O994 O 0.90047 0.64655 0.55774 0.0
O995 O 0.87495 0.66778 0.58857 0.0
O996 O 0.91516 0.65963 0.63639 0.0
O997 O 0.93346 0.63052 0.60685 0.0
C998 C 0.97808 0.67853 0.58572 0.0
O999 O 0.90565 0.71693 0.60573 0.0
O1000 O 0.92119 0.71291 0.56315 0.0
In1001 In 0.31296 0.42222 0.59088 0.0
O1002 O 0.27018 0.40564 0.60573 0.0
O1003 O 0.27419 0.42119 0.56315 0.0
C1004 C 0.35224 0.42454 0.63164 0.0
C1005 C 0.30857 0.47808 0.58572 0.0
C1006 C 0.33648 0.37601 0.56816 0.0
O1007 O 0.32748 0.41516 0.63639 0.0
O1008 O 0.35659 0.43345 0.60685 0.0
O1009 O 0.34056 0.40047 0.55775 0.0
O1010 O 0.31933 0.37495 0.58856 0.0
C1011 C 0.25853 0.41039 0.582 0.0
O1012 O 0.31919 0.46321 0.56595 0.0
O1013 O 0.29985 0.46463 0.60719 0.0
In1014 In 0.56489 0.81296 0.59088 0.0
O1015 O 0.58146 0.77018 0.60573 0.0
O1016 O 0.56592 0.77419 0.56315 0.0
C1017 C 0.56256 0.85224 0.63164 0.0
C1018 C 0.50903 0.80857 0.58572 0.0
C1019 C 0.61109 0.83649 0.56817 0.0
O1020 O 0.57195 0.82748 0.63639 0.0
O1021 O 0.55365 0.85659 0.60685 0.0
O1022 O 0.58663 0.84056 0.55774 0.0
O1023 O 0.61216 0.81933 0.58857 0.0
C1024 C 0.57672 0.75853 0.582 0.0
O1025 O 0.5239 0.81919 0.56595 0.0
O1026 O 0.52248 0.79984 0.60719 0.0
In1027 In 0.17414 0.06489 0.59088 0.0
O1028 O 0.16791 0.0239 0.56595 0.0
O1029 O 0.18726 0.02248 0.60719 0.0
C1030 C 0.15063 0.11109 0.56816 0.0
C1031 C 0.22857 0.07671 0.582 0.0
C1032 C 0.13487 0.06257 0.63164 0.0
O1033 O 0.14655 0.08664 0.55775 0.0
O1034 O 0.16778 0.11216 0.58856 0.0
O1035 O 0.15963 0.07195 0.63639 0.0
O1036 O 0.13052 0.05365 0.60685 0.0
C1037 C 0.17853 0.00903 0.58572 0.0
O1038 O 0.21693 0.08146 0.60573 0.0
O1039 O 0.21291 0.06592 0.56315 0.0
In1040 In 0.89622 0.42222 0.31296 0.0
O1041 O 0.92115 0.46321 0.31919 0.0
O1042 O 0.87991 0.46463 0.29984 0.0
C1043 C 0.91893 0.37602 0.33649 0.0
C1044 C 0.9051 0.41039 0.25853 0.0
C1045 C 0.85547 0.42455 0.35224 0.0
O1046 O 0.92936 0.40048 0.34056 0.0
O1047 O 0.89853 0.37495 0.31933 0.0
O1048 O 0.85072 0.41516 0.32748 0.0
O1049 O 0.88026 0.43346 0.35659 0.0
C1050 C 0.90139 0.47808 0.30856 0.0
O1051 O 0.88137 0.40564 0.27018 0.0
O1052 O 0.92395 0.42118 0.27419 0.0
In1053 In 0.56489 0.39622 0.31296 0.0
O1054 O 0.58146 0.38137 0.27018 0.0
O1055 O 0.56592 0.42395 0.27419 0.0
C1056 C 0.56258 0.35548 0.35224 0.0
C1057 C 0.50903 0.40139 0.30857 0.0
C1058 C 0.61109 0.41894 0.33649 0.0
O1059 O 0.57195 0.35072 0.32747 0.0
O1060 O 0.55366 0.38026 0.35659 0.0
O1061 O 0.58663 0.42937 0.34055 0.0
O1062 O 0.61216 0.39854 0.31933 0.0
C1063 C 0.57671 0.4051 0.25853 0.0
O1064 O 0.5239 0.42115 0.31919 0.0
O1065 O 0.52248 0.37991 0.29985 0.0
In1066 In 0.59088 0.06489 0.31296 0.0
O1067 O 0.56596 0.0239 0.31919 0.0
O1068 O 0.60719 0.02248 0.29984 0.0
C1069 C 0.56817 0.11109 0.33649 0.0
C1070 C 0.582 0.07672 0.25853 0.0
C1071 C 0.63164 0.06256 0.35224 0.0
O1072 O 0.55775 0.08663 0.34056 0.0
O1073 O 0.58857 0.11216 0.31933 0.0
O1074 O 0.63639 0.07195 0.32748 0.0
O1075 O 0.60685 0.05365 0.35659 0.0
C1076 C 0.58572 0.00903 0.30856 0.0
O1077 O 0.60574 0.08146 0.27018 0.0
O1078 O 0.56315 0.06592 0.27419 0.0
In1079 In 0.92222 0.09088 0.31296 0.0
O1080 O 0.90564 0.10574 0.27018 0.0
O1081 O 0.92119 0.06316 0.27419 0.0
C1082 C 0.92453 0.13163 0.35224 0.0
C1083 C 0.97808 0.08572 0.30857 0.0
C1084 C 0.87602 0.06817 0.33649 0.0
O1085 O 0.91516 0.13639 0.32747 0.0
O1086 O 0.93345 0.10684 0.35659 0.0
O1087 O 0.90047 0.05774 0.34055 0.0
O1088 O 0.87495 0.08857 0.31933 0.0
C1089 C 0.9104 0.08201 0.25853 0.0
O1090 O 0.96321 0.06595 0.31919 0.0
O1091 O 0.96463 0.1072 0.29985 0.0
In1092 In 0.89622 0.56489 0.67414 0.0
O1093 O 0.92115 0.5239 0.66791 0.0
O1094 O 0.87991 0.52248 0.68726 0.0
C1095 C 0.91894 0.61109 0.65062 0.0
C1096 C 0.9051 0.57671 0.72857 0.0
C1097 C 0.85547 0.56258 0.63487 0.0
O1098 O 0.92936 0.58663 0.64655 0.0
O1099 O 0.89854 0.61216 0.66778 0.0
O1100 O 0.85072 0.57195 0.65963 0.0
O1101 O 0.88026 0.55366 0.63051 0.0
C1102 C 0.90139 0.50903 0.67854 0.0
O1103 O 0.88137 0.58146 0.71693 0.0
O1104 O 0.92395 0.56592 0.71292 0.0
In1105 In 0.42222 0.39622 0.67414 0.0
O1106 O 0.40564 0.38137 0.71693 0.0
O1107 O 0.42118 0.42395 0.71291 0.0
C1108 C 0.42455 0.35547 0.63487 0.0
C1109 C 0.47808 0.40139 0.67854 0.0
C1110 C 0.37602 0.41893 0.65062 0.0
O1111 O 0.41516 0.35072 0.65963 0.0
O1112 O 0.43346 0.38026 0.63052 0.0
O1113 O 0.40047 0.42936 0.64655 0.0
O1114 O 0.37495 0.39853 0.66777 0.0
C1115 C 0.41039 0.4051 0.72857 0.0
O1116 O 0.46321 0.42115 0.66792 0.0
O1117 O 0.46463 0.37991 0.68727 0.0
In1118 In 0.59088 0.92222 0.67414 0.0
O1119 O 0.56595 0.96321 0.66791 0.0
O1120 O 0.60719 0.96463 0.68726 0.0
C1121 C 0.56817 0.87602 0.65062 0.0
C1122 C 0.58201 0.9104 0.72857 0.0
C1123 C 0.63163 0.92453 0.63487 0.0
O1124 O 0.55774 0.90047 0.64655 0.0
O1125 O 0.58857 0.87495 0.66778 0.0
O1126 O 0.63639 0.91516 0.65963 0.0
O1127 O 0.60684 0.93345 0.63051 0.0
C1128 C 0.58572 0.97808 0.67854 0.0
O1129 O 0.60574 0.90564 0.71693 0.0
O1130 O 0.56316 0.92119 0.71292 0.0
In1131 In 0.06489 0.09088 0.67414 0.0
O1132 O 0.0239 0.06596 0.66791 0.0
O1133 O 0.02248 0.10719 0.68727 0.0
C1134 C 0.11109 0.06817 0.65062 0.0
C1135 C 0.07672 0.082 0.72857 0.0
C1136 C 0.06256 0.13164 0.63487 0.0
O1137 O 0.08663 0.05774 0.64655 0.0
O1138 O 0.11216 0.08857 0.66777 0.0
O1139 O 0.07195 0.13639 0.65963 0.0
O1140 O 0.05365 0.10685 0.63052 0.0
C1141 C 0.00903 0.08572 0.67854 0.0
O1142 O 0.08146 0.10573 0.71693 0.0
O1143 O 0.06592 0.06315 0.71291 0.0
In1144 In 0.81296 0.39623 0.42221 0.0
O1145 O 0.77018 0.38137 0.40564 0.0
O1146 O 0.77419 0.42395 0.42119 0.0
C1147 C 0.85224 0.35548 0.42453 0.0
C1148 C 0.80857 0.40139 0.47808 0.0
C1149 C 0.83649 0.41894 0.37602 0.0
O1150 O 0.82747 0.35072 0.41516 0.0
O1151 O 0.85659 0.38027 0.43345 0.0
O1152 O 0.84056 0.42937 0.40047 0.0
O1153 O 0.81933 0.39854 0.37494 0.0
C1154 C 0.75853 0.4051 0.4104 0.0
O1155 O 0.81919 0.42116 0.46321 0.0
O1156 O 0.79985 0.37991 0.46463 0.0
In1157 In 0.81296 0.09088 0.06489 0.0
O1158 O 0.81919 0.06595 0.0239 0.0
O1159 O 0.79985 0.10719 0.02248 0.0
C1160 C 0.83649 0.06817 0.11109 0.0
C1161 C 0.75853 0.082 0.07672 0.0
C1162 C 0.85224 0.13163 0.06258 0.0
O1163 O 0.84056 0.05774 0.08663 0.0
O1164 O 0.81933 0.08857 0.11216 0.0
O1165 O 0.82747 0.13639 0.07194 0.0
O1166 O 0.85659 0.10684 0.05366 0.0
C1167 C 0.80857 0.08571 0.00903 0.0
O1168 O 0.77018 0.10573 0.08146 0.0
O1169 O 0.77419 0.06315 0.06592 0.0
In1170 In 0.89622 0.31296 0.06489 0.0
O1171 O 0.92115 0.31919 0.0239 0.0
O1172 O 0.87991 0.29985 0.02248 0.0
C1173 C 0.91895 0.33648 0.11109 0.0
C1174 C 0.9051 0.25853 0.07671 0.0
C1175 C 0.85547 0.35224 0.06257 0.0
O1176 O 0.92936 0.34056 0.08664 0.0
O1177 O 0.89855 0.31932 0.11216 0.0
O1178 O 0.85072 0.32748 0.07195 0.0
O1179 O 0.88026 0.35659 0.05365 0.0
C1180 C 0.90139 0.30857 0.00903 0.0
O1181 O 0.88137 0.27018 0.08146 0.0
O1182 O 0.92395 0.27419 0.06592 0.0
In1183 In 0.67414 0.39623 0.06489 0.0
O1184 O 0.71693 0.38137 0.08146 0.0
O1185 O 0.71291 0.42395 0.06592 0.0
C1186 C 0.63487 0.35548 0.06258 0.0
C1187 C 0.67854 0.40139 0.00903 0.0
C1188 C 0.65062 0.41894 0.11109 0.0
O1189 O 0.65963 0.35072 0.07195 0.0
O1190 O 0.63051 0.38027 0.05366 0.0
O1191 O 0.64655 0.42937 0.08663 0.0
O1192 O 0.66778 0.39854 0.11216 0.0
C1193 C 0.72857 0.40511 0.07672 0.0
O1194 O 0.66791 0.42115 0.0239 0.0
O1195 O 0.68726 0.37991 0.02248 0.0
In1196 In 0.59088 0.67414 0.56489 0.0
O1197 O 0.60574 0.71693 0.58146 0.0
O1198 O 0.56316 0.71292 0.56592 0.0
C1199 C 0.63164 0.63487 0.56256 0.0
C1200 C 0.58571 0.67854 0.50903 0.0
C1201 C 0.56816 0.65063 0.61109 0.0
O1202 O 0.63639 0.65963 0.57195 0.0
O1203 O 0.60685 0.63052 0.55365 0.0
O1204 O 0.55775 0.64655 0.58663 0.0
O1205 O 0.58856 0.66778 0.61216 0.0
C1206 C 0.58201 0.72858 0.57671 0.0
O1207 O 0.56595 0.66792 0.5239 0.0
O1208 O 0.60719 0.68726 0.52248 0.0
In1209 In 0.17414 0.59088 0.42221 0.0
O1210 O 0.21693 0.60573 0.40564 0.0
O1211 O 0.21291 0.56315 0.42119 0.0
C1212 C 0.13487 0.63164 0.42454 0.0
C1213 C 0.17853 0.58572 0.47808 0.0
C1214 C 0.15063 0.56816 0.37601 0.0
O1215 O 0.15963 0.63639 0.41516 0.0
O1216 O 0.13052 0.60685 0.43345 0.0
O1217 O 0.14655 0.55775 0.40047 0.0
O1218 O 0.16778 0.58856 0.37495 0.0
C1219 C 0.22857 0.582 0.41039 0.0
O1220 O 0.16792 0.56595 0.46321 0.0
O1221 O 0.18726 0.60719 0.46463 0.0
In1222 In 0.89623 0.67414 0.92221 0.0
O1223 O 0.92115 0.66791 0.96321 0.0
O1224 O 0.87991 0.68726 0.96463 0.0
C1225 C 0.91894 0.65062 0.87602 0.0
C1226 C 0.9051 0.72858 0.9104 0.0
C1227 C 0.85548 0.63487 0.92453 0.0
O1228 O 0.92937 0.64655 0.90047 0.0
O1229 O 0.89854 0.66778 0.87494 0.0
O1230 O 0.85072 0.65963 0.91516 0.0
O1231 O 0.88027 0.63051 0.93345 0.0
C1232 C 0.90139 0.67854 0.97808 0.0
O1233 O 0.88137 0.71693 0.90564 0.0
O1234 O 0.92395 0.71292 0.92119 0.0
In1235 In 0.59088 0.81296 0.92221 0.0
O1236 O 0.60573 0.77018 0.90564 0.0
O1237 O 0.56315 0.77419 0.92119 0.0
C1238 C 0.63163 0.85224 0.92453 0.0
C1239 C 0.58571 0.80857 0.97808 0.0
C1240 C 0.56817 0.83649 0.87602 0.0
O1241 O 0.63639 0.82747 0.91516 0.0
O1242 O 0.60684 0.85659 0.93345 0.0
O1243 O 0.55774 0.84056 0.90047 0.0
O1244 O 0.58857 0.81933 0.87494 0.0
C1245 C 0.582 0.75853 0.91039 0.0
O1246 O 0.56595 0.81919 0.96321 0.0
O1247 O 0.60719 0.79985 0.96463 0.0
In1248 In 0.56489 0.17414 0.59088 0.0
O1249 O 0.58146 0.21693 0.60573 0.0
O1250 O 0.56592 0.21291 0.56315 0.0
C1251 C 0.56256 0.13487 0.63164 0.0
C1252 C 0.50903 0.17854 0.58571 0.0
C1253 C 0.61109 0.15063 0.56816 0.0
O1254 O 0.57195 0.15963 0.63639 0.0
O1255 O 0.55365 0.13052 0.60685 0.0
O1256 O 0.58664 0.14655 0.55774 0.0
O1257 O 0.61216 0.16778 0.58856 0.0
C1258 C 0.57671 0.22857 0.582 0.0
O1259 O 0.5239 0.16791 0.56595 0.0
O1260 O 0.52248 0.18726 0.60719 0.0
In1261 In 0.81296 0.06489 0.59088 0.0
O1262 O 0.81919 0.0239 0.56595 0.0
O1263 O 0.79984 0.02248 0.60719 0.0
C1264 C 0.83648 0.11109 0.56815 0.0
C1265 C 0.75853 0.07671 0.582 0.0
C1266 C 0.85224 0.06257 0.63164 0.0
O1267 O 0.84056 0.08663 0.55774 0.0
O1268 O 0.81933 0.11216 0.58856 0.0
O1269 O 0.82748 0.07195 0.63639 0.0
O1270 O 0.85659 0.05365 0.60685 0.0
C1271 C 0.80857 0.00903 0.58571 0.0
O1272 O 0.77018 0.08146 0.60573 0.0
O1273 O 0.77419 0.06592 0.56315 0.0
In1274 In 0.92222 0.31296 0.59088 0.0
O1275 O 0.96321 0.31919 0.56595 0.0
O1276 O 0.96463 0.29984 0.60719 0.0
C1277 C 0.87602 0.33649 0.56817 0.0
C1278 C 0.91039 0.25853 0.582 0.0
C1279 C 0.92454 0.35224 0.63164 0.0
O1280 O 0.90047 0.34056 0.55774 0.0
O1281 O 0.87495 0.31933 0.58857 0.0
O1282 O 0.91516 0.32748 0.63639 0.0
O1283 O 0.93346 0.35659 0.60685 0.0
C1284 C 0.97808 0.30857 0.58571 0.0
O1285 O 0.90564 0.27018 0.60573 0.0
O1286 O 0.92118 0.27419 0.56315 0.0
In1287 In 0.67414 0.42222 0.59088 0.0
O1288 O 0.66791 0.46321 0.56595 0.0
O1289 O 0.68726 0.46463 0.60719 0.0
C1290 C 0.65063 0.37601 0.56815 0.0
C1291 C 0.72858 0.4104 0.582 0.0
C1292 C 0.63487 0.42454 0.63164 0.0
O1293 O 0.64655 0.40047 0.55774 0.0
O1294 O 0.66778 0.37495 0.58856 0.0
O1295 O 0.65963 0.41516 0.63639 0.0
O1296 O 0.63052 0.43345 0.60685 0.0
C1297 C 0.67854 0.47808 0.58571 0.0
O1298 O 0.71693 0.40565 0.60573 0.0
O1299 O 0.71292 0.42119 0.56315 0.0
In1300 In 0.56489 0.81296 0.39623 0.0
O1301 O 0.5239 0.81919 0.42115 0.0
O1302 O 0.52248 0.79985 0.37992 0.0
C1303 C 0.61109 0.83648 0.41895 0.0
C1304 C 0.57671 0.75853 0.4051 0.0
C1305 C 0.56257 0.85224 0.35547 0.0
O1306 O 0.58664 0.84056 0.42936 0.0
O1307 O 0.61216 0.81933 0.39855 0.0
O1308 O 0.57195 0.82748 0.35072 0.0
O1309 O 0.55365 0.85659 0.38026 0.0
C1310 C 0.50903 0.80857 0.40139 0.0
O1311 O 0.58146 0.77018 0.38137 0.0
O1312 O 0.56592 0.77419 0.42395 0.0
In1313 In 0.17414 0.06489 0.39622 0.0
O1314 O 0.21693 0.08146 0.38137 0.0
O1315 O 0.21291 0.06592 0.42395 0.0
C1316 C 0.13487 0.06256 0.35547 0.0
C1317 C 0.17854 0.00903 0.40139 0.0
C1318 C 0.15062 0.11109 0.41894 0.0
O1319 O 0.15963 0.07195 0.35072 0.0
O1320 O 0.13052 0.05365 0.38026 0.0
O1321 O 0.14655 0.08663 0.42936 0.0
O1322 O 0.16778 0.11216 0.39854 0.0
C1323 C 0.22858 0.07671 0.4051 0.0
O1324 O 0.16791 0.0239 0.42115 0.0
O1325 O 0.18726 0.02248 0.37991 0.0
In1326 In 0.92222 0.67414 0.39622 0.0
O1327 O 0.90565 0.71693 0.38137 0.0
O1328 O 0.92119 0.71291 0.42395 0.0
C1329 C 0.92454 0.63487 0.35547 0.0
C1330 C 0.97808 0.67854 0.40139 0.0
C1331 C 0.87601 0.65063 0.41895 0.0
O1332 O 0.91516 0.65963 0.35072 0.0
O1333 O 0.93346 0.63052 0.38026 0.0
O1334 O 0.90047 0.64655 0.42936 0.0
O1335 O 0.87495 0.66778 0.39855 0.0
C1336 C 0.91039 0.72857 0.4051 0.0
O1337 O 0.96321 0.66791 0.42115 0.0
O1338 O 0.96463 0.68726 0.37991 0.0
In1339 In 0.31296 0.42222 0.39622 0.0
O1340 O 0.27018 0.40565 0.38137 0.0
O1341 O 0.27419 0.42119 0.42395 0.0
C1342 C 0.35224 0.42454 0.35547 0.0
C1343 C 0.30857 0.47808 0.40139 0.0
C1344 C 0.33649 0.37602 0.41894 0.0
O1345 O 0.32748 0.41516 0.35072 0.0
O1346 O 0.35659 0.43346 0.38026 0.0
O1347 O 0.34056 0.40047 0.42936 0.0
O1348 O 0.31933 0.37495 0.39854 0.0
C1349 C 0.25853 0.4104 0.4051 0.0
O1350 O 0.31919 0.46321 0.42115 0.0
O1351 O 0.29984 0.46463 0.37991 0.0
In1352 In 0.59088 0.06489 0.67414 0.0
O1353 O 0.56595 0.0239 0.66791 0.0
O1354 O 0.6072 0.02248 0.68726 0.0
C1355 C 0.56817 0.11109 0.65062 0.0
C1356 C 0.58201 0.07671 0.72858 0.0
C1357 C 0.63164 0.06256 0.63487 0.0
O1358 O 0.55774 0.08663 0.64655 0.0
O1359 O 0.58857 0.11216 0.66778 0.0
O1360 O 0.63639 0.07195 0.65963 0.0
O1361 O 0.60685 0.05365 0.63052 0.0
C1362 C 0.58572 0.00903 0.67853 0.0
O1363 O 0.60574 0.08146 0.71693 0.0
O1364 O 0.56316 0.06592 0.71292 0.0
In1365 In 0.92222 0.09088 0.67414 0.0
O1366 O 0.96321 0.06595 0.66791 0.0
O1367 O 0.96463 0.1072 0.68726 0.0
C1368 C 0.87602 0.06817 0.65062 0.0
C1369 C 0.91039 0.082 0.72857 0.0
C1370 C 0.92454 0.13164 0.63487 0.0
O1371 O 0.90047 0.05774 0.64655 0.0
O1372 O 0.87495 0.08857 0.66777 0.0
O1373 O 0.91516 0.13639 0.65963 0.0
O1374 O 0.93346 0.10685 0.63052 0.0
C1375 C 0.97808 0.08572 0.67854 0.0
O1376 O 0.90564 0.10574 0.71693 0.0
O1377 O 0.92118 0.06315 0.71291 0.0
In1378 In 0.89622 0.42221 0.67414 0.0
O1379 O 0.92115 0.46321 0.66792 0.0
O1380 O 0.87991 0.46463 0.68726 0.0
C1381 C 0.91894 0.37602 0.65062 0.0
C1382 C 0.9051 0.4104 0.72858 0.0
C1383 C 0.85548 0.42453 0.63487 0.0
O1384 O 0.92937 0.40047 0.64655 0.0
O1385 O 0.89854 0.37494 0.66778 0.0
O1386 O 0.85072 0.41516 0.65963 0.0
O1387 O 0.88026 0.43345 0.63051 0.0
C1388 C 0.90139 0.47808 0.67853 0.0
O1389 O 0.88137 0.40564 0.71693 0.0
O1390 O 0.92395 0.42119 0.71292 0.0
In1391 In 0.56489 0.39622 0.67414 0.0
O1392 O 0.58146 0.38137 0.71693 0.0
O1393 O 0.56592 0.42395 0.71291 0.0
C1394 C 0.56256 0.35547 0.63487 0.0
C1395 C 0.50903 0.40139 0.67854 0.0
C1396 C 0.61109 0.41894 0.65062 0.0
O1397 O 0.57195 0.35072 0.65963 0.0
O1398 O 0.55365 0.38026 0.63052 0.0
O1399 O 0.58663 0.42936 0.64655 0.0
O1400 O 0.61216 0.39853 0.66777 0.0
C1401 C 0.57672 0.4051 0.72857 0.0
O1402 O 0.5239 0.42115 0.66792 0.0
O1403 O 0.52248 0.37991 0.68726 0.0
In1404 In 0.59088 0.92222 0.31296 0.0
O1405 O 0.56595 0.96321 0.31919 0.0
O1406 O 0.6072 0.96463 0.29984 0.0
C1407 C 0.56817 0.87602 0.33649 0.0
C1408 C 0.582 0.91039 0.25853 0.0
C1409 C 0.63164 0.92454 0.35224 0.0
O1410 O 0.55774 0.90047 0.34056 0.0
O1411 O 0.58857 0.87495 0.31933 0.0
O1412 O 0.63639 0.91516 0.32748 0.0
O1413 O 0.60685 0.93346 0.35659 0.0
C1414 C 0.58572 0.97808 0.30857 0.0
O1415 O 0.60573 0.90564 0.27018 0.0
O1416 O 0.56315 0.92118 0.27419 0.0
In1417 In 0.06489 0.09088 0.31296 0.0
O1418 O 0.0239 0.06595 0.31919 0.0
O1419 O 0.02248 0.1072 0.29985 0.0
C1420 C 0.11109 0.06817 0.33649 0.0
C1421 C 0.07671 0.08201 0.25853 0.0
C1422 C 0.06258 0.13163 0.35224 0.0
O1423 O 0.08663 0.05774 0.34056 0.0
O1424 O 0.11216 0.08857 0.31933 0.0
O1425 O 0.07195 0.13639 0.32747 0.0
O1426 O 0.05366 0.10684 0.35659 0.0
C1427 C 0.00903 0.08572 0.30858 0.0
O1428 O 0.08146 0.10574 0.27018 0.0
O1429 O 0.06592 0.06316 0.27419 0.0
In1430 In 0.89622 0.56489 0.31296 0.0
O1431 O 0.88137 0.58146 0.27018 0.0
O1432 O 0.92395 0.56592 0.27419 0.0
C1433 C 0.85547 0.56256 0.35224 0.0
C1434 C 0.90139 0.50903 0.30857 0.0
C1435 C 0.91894 0.61109 0.33649 0.0
O1436 O 0.85072 0.57195 0.32748 0.0
O1437 O 0.88026 0.55365 0.35659 0.0
O1438 O 0.92936 0.58663 0.34056 0.0
O1439 O 0.89854 0.61216 0.31933 0.0
C1440 C 0.9051 0.57672 0.25853 0.0
O1441 O 0.92115 0.5239 0.31919 0.0
O1442 O 0.87991 0.52248 0.29984 0.0
In1443 In 0.42222 0.39622 0.31296 0.0
O1444 O 0.46321 0.42115 0.31919 0.0
O1445 O 0.46463 0.37991 0.29985 0.0
C1446 C 0.37602 0.41894 0.33649 0.0
C1447 C 0.4104 0.4051 0.25853 0.0
C1448 C 0.42453 0.35547 0.35224 0.0
O1449 O 0.40047 0.42936 0.34056 0.0
O1450 O 0.37494 0.39854 0.31933 0.0
O1451 O 0.41516 0.35072 0.32747 0.0
O1452 O 0.43345 0.38026 0.35659 0.0
C1453 C 0.47808 0.40139 0.30858 0.0
O1454 O 0.40564 0.38137 0.27018 0.0
O1455 O 0.42119 0.42395 0.27419 0.0
In1456 In 0.67414 0.09088 0.56489 0.0
O1457 O 0.71693 0.10573 0.58146 0.0
O1458 O 0.71292 0.06315 0.56592 0.0
C1459 C 0.63487 0.13163 0.56258 0.0
C1460 C 0.67854 0.08572 0.50903 0.0
C1461 C 0.65062 0.06817 0.61109 0.0
O1462 O 0.65963 0.13639 0.57195 0.0
O1463 O 0.63051 0.10684 0.55366 0.0
O1464 O 0.64655 0.05774 0.58663 0.0
O1465 O 0.66778 0.08857 0.61216 0.0
C1466 C 0.72858 0.082 0.57671 0.0
O1467 O 0.66791 0.06595 0.5239 0.0
O1468 O 0.68726 0.1072 0.52248 0.0
In1469 In 0.67414 0.39622 0.92222 0.0
O1470 O 0.66792 0.42115 0.96321 0.0
O1471 O 0.68726 0.37991 0.96463 0.0
C1472 C 0.65063 0.41895 0.87601 0.0
C1473 C 0.72858 0.4051 0.9104 0.0
C1474 C 0.63487 0.35547 0.92454 0.0
O1475 O 0.64655 0.42936 0.90047 0.0
O1476 O 0.66778 0.39855 0.87495 0.0
O1477 O 0.65963 0.35072 0.91516 0.0
O1478 O 0.63052 0.38026 0.93345 0.0
C1479 C 0.67853 0.40139 0.97808 0.0
O1480 O 0.71693 0.38137 0.90565 0.0
O1481 O 0.71292 0.42395 0.92119 0.0
In1482 In 0.59088 0.17414 0.92222 0.0
O1483 O 0.56595 0.16792 0.96321 0.0
O1484 O 0.60719 0.18726 0.96463 0.0
C1485 C 0.56817 0.15062 0.87602 0.0
C1486 C 0.582 0.22857 0.91039 0.0
C1487 C 0.63163 0.13487 0.92453 0.0
O1488 O 0.55774 0.14655 0.90047 0.0
O1489 O 0.58857 0.16778 0.87495 0.0
O1490 O 0.63639 0.15963 0.91516 0.0
O1491 O 0.60684 0.13051 0.93345 0.0
C1492 C 0.58572 0.17853 0.97808 0.0
O1493 O 0.60573 0.21693 0.90564 0.0
O1494 O 0.56315 0.21291 0.92119 0.0
In1495 In 0.81296 0.09088 0.92221 0.0
O1496 O 0.81919 0.06595 0.96321 0.0
O1497 O 0.79985 0.10719 0.96463 0.0
C1498 C 0.83648 0.06816 0.87601 0.0
C1499 C 0.75853 0.08201 0.9104 0.0
C1500 C 0.85224 0.13164 0.92454 0.0
O1501 O 0.84056 0.05775 0.90047 0.0
O1502 O 0.81932 0.08856 0.87495 0.0
O1503 O 0.82748 0.13639 0.91515 0.0
O1504 O 0.85659 0.10685 0.93345 0.0
C1505 C 0.80857 0.08572 0.97808 0.0
O1506 O 0.77018 0.10574 0.90565 0.0
O1507 O 0.77419 0.06316 0.92119 0.0
In1508 In 0.89623 0.81296 0.42221 0.0
O1509 O 0.88137 0.77018 0.40564 0.0
O1510 O 0.92395 0.77419 0.42119 0.0
C1511 C 0.85548 0.85224 0.42453 0.0
C1512 C 0.90139 0.80857 0.47808 0.0
C1513 C 0.91894 0.83649 0.37602 0.0
O1514 O 0.85072 0.82747 0.41516 0.0
O1515 O 0.88027 0.85659 0.43345 0.0
O1516 O 0.92937 0.84056 0.40047 0.0
O1517 O 0.89854 0.81933 0.37494 0.0
C1518 C 0.9051 0.75853 0.41039 0.0
O1519 O 0.92116 0.81919 0.46321 0.0
O1520 O 0.87991 0.79985 0.46463 0.0
In1521 In 0.31296 0.89622 0.56489 0.0
O1522 O 0.31919 0.92115 0.5239 0.0
O1523 O 0.29985 0.87991 0.52248 0.0
C1524 C 0.33649 0.91894 0.61109 0.0
C1525 C 0.25853 0.9051 0.57671 0.0
C1526 C 0.35224 0.85547 0.56258 0.0
O1527 O 0.34056 0.92936 0.58663 0.0
O1528 O 0.31933 0.89854 0.61216 0.0
O1529 O 0.32747 0.85072 0.57195 0.0
O1530 O 0.35659 0.88026 0.55366 0.0
C1531 C 0.30857 0.90139 0.50903 0.0
O1532 O 0.27018 0.88137 0.58146 0.0
O1533 O 0.27419 0.92395 0.56592 0.0
In1534 In 0.59088 0.81296 0.06489 0.0
O1535 O 0.60573 0.77018 0.08146 0.0
O1536 O 0.56315 0.77419 0.06592 0.0
C1537 C 0.63164 0.85224 0.06256 0.0
C1538 C 0.58572 0.80857 0.00903 0.0
C1539 C 0.56816 0.83648 0.11109 0.0
O1540 O 0.63639 0.82748 0.07195 0.0
O1541 O 0.60685 0.85659 0.05365 0.0
O1542 O 0.55775 0.84056 0.08663 0.0
O1543 O 0.58856 0.81933 0.11216 0.0
C1544 C 0.582 0.75853 0.07671 0.0
O1545 O 0.56595 0.81919 0.0239 0.0
O1546 O 0.60719 0.79985 0.02248 0.0
In1547 In 0.89622 0.67414 0.06489 0.0
O1548 O 0.92115 0.66791 0.0239 0.0
O1549 O 0.87991 0.68726 0.02248 0.0
C1550 C 0.91895 0.65063 0.11109 0.0
C1551 C 0.9051 0.72857 0.07671 0.0
C1552 C 0.85547 0.63487 0.06257 0.0
O1553 O 0.92936 0.64655 0.08663 0.0
O1554 O 0.89855 0.66778 0.11216 0.0
O1555 O 0.85072 0.65963 0.07195 0.0
O1556 O 0.88026 0.63052 0.05365 0.0
C1557 C 0.90139 0.67853 0.00903 0.0
O1558 O 0.88137 0.71693 0.08146 0.0
O1559 O 0.92395 0.71291 0.06592 0.0
In1560 In 0.42222 0.81296 0.39622 0.0
O1561 O 0.40565 0.77018 0.38137 0.0
O1562 O 0.42119 0.77419 0.42395 0.0
C1563 C 0.42454 0.85224 0.35547 0.0
C1564 C 0.47808 0.80857 0.40139 0.0
C1565 C 0.37601 0.83648 0.41895 0.0
O1566 O 0.41516 0.82748 0.35072 0.0
O1567 O 0.43346 0.85659 0.38026 0.0
O1568 O 0.40047 0.84056 0.42936 0.0
O1569 O 0.37495 0.81933 0.39855 0.0
C1570 C 0.41039 0.75853 0.4051 0.0
O1571 O 0.46321 0.81919 0.42116 0.0
O1572 O 0.46463 0.79985 0.37991 0.0
In1573 In 0.17414 0.92222 0.39622 0.0
O1574 O 0.21693 0.90565 0.38137 0.0
O1575 O 0.21291 0.92119 0.42395 0.0
C1576 C 0.13487 0.92454 0.35547 0.0
C1577 C 0.17853 0.97808 0.40139 0.0
C1578 C 0.15063 0.87601 0.41895 0.0
O1579 O 0.15963 0.91516 0.35072 0.0
O1580 O 0.13052 0.93345 0.38026 0.0
O1581 O 0.14655 0.90047 0.42936 0.0
O1582 O 0.16778 0.87495 0.39855 0.0
C1583 C 0.22857 0.91039 0.4051 0.0
O1584 O 0.16791 0.96321 0.42115 0.0
O1585 O 0.18726 0.96463 0.37991 0.0
In1586 In 0.06489 0.67414 0.39622 0.0
O1587 O 0.0239 0.66791 0.42115 0.0
O1588 O 0.02248 0.68726 0.37991 0.0
C1589 C 0.11109 0.65062 0.41894 0.0
C1590 C 0.07672 0.72857 0.4051 0.0
C1591 C 0.06256 0.63487 0.35547 0.0
O1592 O 0.08663 0.64655 0.42936 0.0
O1593 O 0.11216 0.66778 0.39853 0.0
O1594 O 0.07195 0.65963 0.35072 0.0
O1595 O 0.05365 0.63052 0.38026 0.0
C1596 C 0.00903 0.67853 0.40139 0.0
O1597 O 0.08146 0.71693 0.38137 0.0
O1598 O 0.06592 0.71291 0.42395 0.0
In1599 In 0.31296 0.56489 0.39622 0.0
O1600 O 0.27018 0.58146 0.38137 0.0
O1601 O 0.27419 0.56592 0.42395 0.0
C1602 C 0.35224 0.56257 0.35547 0.0
C1603 C 0.30857 0.50903 0.40139 0.0
C1604 C 0.33648 0.61109 0.41895 0.0
O1605 O 0.32748 0.57195 0.35072 0.0
O1606 O 0.35659 0.55365 0.38026 0.0
O1607 O 0.34056 0.58664 0.42936 0.0
O1608 O 0.31932 0.61216 0.39855 0.0
C1609 C 0.25853 0.57671 0.4051 0.0
O1610 O 0.31919 0.5239 0.42116 0.0
O1611 O 0.29985 0.52248 0.37991 0.0
In1612 In 0.42222 0.17414 0.59088 0.0
O1613 O 0.40565 0.21693 0.60573 0.0
O1614 O 0.42119 0.21291 0.56315 0.0
C1615 C 0.42454 0.13487 0.63164 0.0
C1616 C 0.47808 0.17853 0.58572 0.0
C1617 C 0.37601 0.15063 0.56815 0.0
O1618 O 0.41516 0.15963 0.63639 0.0
O1619 O 0.43345 0.13052 0.60684 0.0
O1620 O 0.40047 0.14655 0.55774 0.0
O1621 O 0.37495 0.16778 0.58856 0.0
C1622 C 0.41039 0.22857 0.582 0.0
O1623 O 0.46321 0.16791 0.56595 0.0
O1624 O 0.46463 0.18726 0.60719 0.0
In1625 In 0.81296 0.92222 0.59088 0.0
O1626 O 0.81919 0.96321 0.56595 0.0
O1627 O 0.79985 0.96463 0.60719 0.0
C1628 C 0.83649 0.87602 0.56817 0.0
C1629 C 0.75853 0.9104 0.58201 0.0
C1630 C 0.85224 0.92454 0.63164 0.0
O1631 O 0.84056 0.90047 0.55774 0.0
O1632 O 0.81933 0.87495 0.58857 0.0
O1633 O 0.82748 0.91516 0.63639 0.0
O1634 O 0.85659 0.93346 0.60685 0.0
C1635 C 0.80857 0.97808 0.58572 0.0
O1636 O 0.77018 0.90564 0.60574 0.0
O1637 O 0.77419 0.92119 0.56315 0.0
In1638 In 0.06489 0.31296 0.59088 0.0
O1639 O 0.08146 0.27018 0.60573 0.0
O1640 O 0.06592 0.27419 0.56315 0.0
C1641 C 0.06257 0.35224 0.63164 0.0
C1642 C 0.00903 0.30857 0.58572 0.0
C1643 C 0.11109 0.33648 0.56816 0.0
O1644 O 0.07195 0.32748 0.63639 0.0
O1645 O 0.05365 0.35659 0.60685 0.0
O1646 O 0.08664 0.34056 0.55775 0.0
O1647 O 0.11216 0.31933 0.58856 0.0
C1648 C 0.07671 0.25853 0.582 0.0
O1649 O 0.0239 0.31919 0.56595 0.0
O1650 O 0.02248 0.29985 0.60719 0.0
In1651 In 0.67414 0.56489 0.59088 0.0
O1652 O 0.66791 0.5239 0.56595 0.0
O1653 O 0.68726 0.52248 0.60719 0.0
C1654 C 0.65062 0.61109 0.56817 0.0
C1655 C 0.72857 0.57671 0.582 0.0
C1656 C 0.63487 0.56256 0.63164 0.0
O1657 O 0.64655 0.58663 0.55774 0.0
O1658 O 0.66778 0.61216 0.58857 0.0
O1659 O 0.65963 0.57195 0.63639 0.0
O1660 O 0.63052 0.55365 0.60685 0.0
C1661 C 0.67853 0.50903 0.58572 0.0
O1662 O 0.71693 0.58146 0.60573 0.0
O1663 O 0.71291 0.56592 0.56315 0.0
In1664 In 0.39622 0.92222 0.31296 0.0
O1665 O 0.42115 0.96321 0.31919 0.0
O1666 O 0.37991 0.96463 0.29985 0.0
C1667 C 0.41894 0.87602 0.33649 0.0
C1668 C 0.4051 0.9104 0.25853 0.0
C1669 C 0.35547 0.92454 0.35224 0.0
O1670 O 0.42936 0.90047 0.34056 0.0
O1671 O 0.39854 0.87495 0.31933 0.0
O1672 O 0.35072 0.91516 0.32748 0.0
O1673 O 0.38026 0.93346 0.35659 0.0
C1674 C 0.40139 0.97808 0.30857 0.0
O1675 O 0.38137 0.90565 0.27018 0.0
O1676 O 0.42395 0.92119 0.27419 0.0
In1677 In 0.06489 0.89622 0.31296 0.0
O1678 O 0.08146 0.88137 0.27018 0.0
O1679 O 0.06592 0.92395 0.27419 0.0
C1680 C 0.06256 0.85547 0.35224 0.0
C1681 C 0.00903 0.90139 0.30857 0.0
C1682 C 0.11109 0.91894 0.33649 0.0
O1683 O 0.07195 0.85072 0.32748 0.0
O1684 O 0.05365 0.88026 0.35659 0.0
O1685 O 0.08663 0.92936 0.34056 0.0
O1686 O 0.11216 0.89854 0.31933 0.0
C1687 C 0.07672 0.9051 0.25853 0.0
O1688 O 0.0239 0.92115 0.31919 0.0
O1689 O 0.02248 0.87991 0.29984 0.0
In1690 In 0.09088 0.56489 0.31296 0.0
O1691 O 0.06595 0.5239 0.31919 0.0
O1692 O 0.1072 0.52248 0.29985 0.0
C1693 C 0.06817 0.61109 0.33649 0.0
C1694 C 0.08201 0.57671 0.25853 0.0
C1695 C 0.13163 0.56258 0.35224 0.0
O1696 O 0.05774 0.58663 0.34056 0.0
O1697 O 0.08857 0.61216 0.31933 0.0
O1698 O 0.13639 0.57195 0.32747 0.0
O1699 O 0.10684 0.55366 0.35659 0.0
C1700 C 0.08572 0.50903 0.30858 0.0
O1701 O 0.10574 0.58146 0.27018 0.0
O1702 O 0.06316 0.56592 0.27419 0.0
In1703 In 0.42222 0.59088 0.31296 0.0
O1704 O 0.46321 0.56595 0.31919 0.0
O1705 O 0.46463 0.6072 0.29984 0.0
C1706 C 0.37602 0.56817 0.33649 0.0
C1707 C 0.41039 0.582 0.25853 0.0
C1708 C 0.42455 0.63164 0.35224 0.0
O1709 O 0.40048 0.55775 0.34056 0.0
O1710 O 0.37495 0.58857 0.31933 0.0
O1711 O 0.41516 0.63639 0.32748 0.0
O1712 O 0.43346 0.60685 0.35659 0.0
C1713 C 0.47808 0.58572 0.30857 0.0
O1714 O 0.40564 0.60574 0.27018 0.0
O1715 O 0.42118 0.56315 0.27419 0.0
In1716 In 0.39622 0.06489 0.67414 0.0
O1717 O 0.38137 0.08146 0.71693 0.0
O1718 O 0.42395 0.06592 0.71291 0.0
C1719 C 0.35547 0.06256 0.63487 0.0
C1720 C 0.40139 0.00903 0.67853 0.0
C1721 C 0.41894 0.11109 0.65062 0.0
O1722 O 0.35072 0.07195 0.65963 0.0
O1723 O 0.38026 0.05365 0.63052 0.0
O1724 O 0.42936 0.08663 0.64655 0.0
O1725 O 0.39854 0.11216 0.66777 0.0
C1726 C 0.4051 0.07672 0.72857 0.0
O1727 O 0.42115 0.0239 0.66791 0.0
O1728 O 0.37991 0.02248 0.68726 0.0
In1729 In 0.92222 0.89622 0.67414 0.0
O1730 O 0.96321 0.92115 0.66791 0.0
O1731 O 0.96463 0.87991 0.68725 0.0
C1732 C 0.87602 0.91894 0.65062 0.0
C1733 C 0.9104 0.9051 0.72857 0.0
C1734 C 0.92453 0.85548 0.63487 0.0
O1735 O 0.90047 0.92936 0.64655 0.0
O1736 O 0.87495 0.89854 0.66778 0.0
O1737 O 0.91516 0.85072 0.65963 0.0
O1738 O 0.93345 0.88026 0.63051 0.0
C1739 C 0.97808 0.90139 0.67853 0.0
O1740 O 0.90564 0.88137 0.71693 0.0
O1741 O 0.92119 0.92395 0.71291 0.0
In1742 In 0.09088 0.42222 0.67414 0.0
O1743 O 0.06595 0.46321 0.66792 0.0
O1744 O 0.10719 0.46463 0.68726 0.0
C1745 C 0.06817 0.37602 0.65062 0.0
C1746 C 0.082 0.41039 0.72857 0.0
C1747 C 0.13164 0.42455 0.63487 0.0
O1748 O 0.05774 0.40048 0.64655 0.0
O1749 O 0.08857 0.37495 0.66778 0.0
O1750 O 0.13639 0.41516 0.65963 0.0
O1751 O 0.10685 0.43346 0.63052 0.0
C1752 C 0.08572 0.47808 0.67854 0.0
O1753 O 0.10573 0.40564 0.71693 0.0
O1754 O 0.06315 0.42119 0.71291 0.0
In1755 In 0.56489 0.59088 0.67414 0.0
O1756 O 0.5239 0.56595 0.66791 0.0
O1757 O 0.52248 0.6072 0.68726 0.0
C1758 C 0.61109 0.56817 0.65062 0.0
C1759 C 0.57671 0.58201 0.72857 0.0
C1760 C 0.56258 0.63163 0.63487 0.0
O1761 O 0.58663 0.55774 0.64655 0.0
O1762 O 0.61216 0.58857 0.66778 0.0
O1763 O 0.57195 0.63639 0.65963 0.0
O1764 O 0.55366 0.60684 0.63051 0.0
C1765 C 0.50903 0.58572 0.67853 0.0
O1766 O 0.58146 0.60574 0.71693 0.0
O1767 O 0.56592 0.56316 0.71291 0.0
In1768 In 0.31296 0.89622 0.42222 0.0
O1769 O 0.27018 0.88137 0.40564 0.0
O1770 O 0.27419 0.92395 0.42119 0.0
C1771 C 0.35224 0.85548 0.42453 0.0
C1772 C 0.30858 0.90139 0.47808 0.0
C1773 C 0.33649 0.91894 0.37602 0.0
O1774 O 0.32747 0.85072 0.41516 0.0
O1775 O 0.35659 0.88026 0.43345 0.0
O1776 O 0.34056 0.92937 0.40047 0.0
O1777 O 0.31933 0.89854 0.37495 0.0
C1778 C 0.25853 0.9051 0.4104 0.0
O1779 O 0.31919 0.92115 0.46321 0.0
O1780 O 0.29985 0.87991 0.46463 0.0
In1781 In 0.31296 0.59088 0.06489 0.0
O1782 O 0.31919 0.56595 0.0239 0.0
O1783 O 0.29985 0.60719 0.02248 0.0
C1784 C 0.33648 0.56816 0.11109 0.0
C1785 C 0.25853 0.58201 0.07671 0.0
C1786 C 0.35224 0.63164 0.06257 0.0
O1787 O 0.34056 0.55775 0.08664 0.0
O1788 O 0.31932 0.58856 0.11216 0.0
O1789 O 0.32748 0.63639 0.07195 0.0
O1790 O 0.35659 0.60685 0.05365 0.0
C1791 C 0.30857 0.58572 0.00903 0.0
O1792 O 0.27018 0.60574 0.08146 0.0
O1793 O 0.27419 0.56316 0.06592 0.0
In1794 In 0.39623 0.81296 0.06489 0.0
O1795 O 0.42116 0.81919 0.0239 0.0
O1796 O 0.37991 0.79985 0.02248 0.0
C1797 C 0.41894 0.83649 0.11109 0.0
C1798 C 0.40511 0.75853 0.07672 0.0
C1799 C 0.35548 0.85224 0.06258 0.0
O1800 O 0.42937 0.84056 0.08663 0.0
O1801 O 0.39854 0.81933 0.11216 0.0
O1802 O 0.35072 0.82747 0.07194 0.0
O1803 O 0.38027 0.85659 0.05366 0.0
C1804 C 0.40139 0.80857 0.00903 0.0
O1805 O 0.38138 0.77018 0.08146 0.0
O1806 O 0.42396 0.77419 0.06592 0.0
In1807 In 0.17414 0.89622 0.06489 0.0
O1808 O 0.16792 0.92116 0.0239 0.0
O1809 O 0.18726 0.87991 0.02248 0.0
C1810 C 0.15063 0.91895 0.11109 0.0
C1811 C 0.22858 0.9051 0.07671 0.0
C1812 C 0.13487 0.85547 0.06257 0.0
O1813 O 0.14655 0.92936 0.08664 0.0
O1814 O 0.16778 0.89855 0.11216 0.0
O1815 O 0.15963 0.85072 0.07195 0.0
O1816 O 0.13052 0.88026 0.05365 0.0
C1817 C 0.17853 0.90139 0.00903 0.0
O1818 O 0.21693 0.88137 0.08146 0.0
O1819 O 0.21292 0.92395 0.06592 0.0
In1820 In 0.09088 0.17414 0.56489 0.0
O1821 O 0.10573 0.21693 0.58146 0.0
O1822 O 0.06315 0.21292 0.56592 0.0
C1823 C 0.13163 0.13487 0.56258 0.0
C1824 C 0.08572 0.17853 0.50903 0.0
C1825 C 0.06817 0.15062 0.61109 0.0
O1826 O 0.13639 0.15963 0.57195 0.0
O1827 O 0.10684 0.13051 0.55366 0.0
O1828 O 0.05774 0.14655 0.58663 0.0
O1829 O 0.08857 0.16778 0.61216 0.0
C1830 C 0.082 0.22858 0.57671 0.0
O1831 O 0.06595 0.16792 0.5239 0.0
O1832 O 0.10719 0.18726 0.52248 0.0
In1833 In 0.67414 0.09088 0.42221 0.0
O1834 O 0.66792 0.06595 0.46321 0.0
O1835 O 0.68726 0.1072 0.46463 0.0
C1836 C 0.65062 0.06817 0.37602 0.0
C1837 C 0.72858 0.08201 0.4104 0.0
C1838 C 0.63487 0.13163 0.42453 0.0
O1839 O 0.64655 0.05774 0.40047 0.0
O1840 O 0.66778 0.08857 0.37494 0.0
O1841 O 0.65963 0.13639 0.41516 0.0
O1842 O 0.63051 0.10684 0.43345 0.0
C1843 C 0.67853 0.08572 0.47808 0.0
O1844 O 0.71693 0.10574 0.40564 0.0
O1845 O 0.71292 0.06316 0.42119 0.0
In1846 In 0.39623 0.17414 0.92222 0.0
O1847 O 0.38137 0.21693 0.90564 0.0
O1848 O 0.42395 0.21291 0.92119 0.0
C1849 C 0.35547 0.13487 0.92454 0.0
C1850 C 0.40139 0.17853 0.97808 0.0
C1851 C 0.41895 0.15063 0.87601 0.0
O1852 O 0.35072 0.15963 0.91516 0.0
O1853 O 0.38026 0.13052 0.93345 0.0
O1854 O 0.42936 0.14655 0.90047 0.0
O1855 O 0.39855 0.16778 0.87495 0.0
C1856 C 0.40511 0.22857 0.91039 0.0
O1857 O 0.42116 0.16791 0.96321 0.0
O1858 O 0.37991 0.18726 0.96463 0.0
In1859 In 0.09088 0.31296 0.92222 0.0
O1860 O 0.10574 0.27018 0.90564 0.0
O1861 O 0.06316 0.27419 0.92119 0.0
C1862 C 0.13164 0.35224 0.92454 0.0
C1863 C 0.08572 0.30857 0.97808 0.0
C1864 C 0.06816 0.33648 0.87601 0.0
O1865 O 0.13639 0.32748 0.91516 0.0
O1866 O 0.10685 0.35659 0.93345 0.0
O1867 O 0.05775 0.34056 0.90047 0.0
O1868 O 0.08856 0.31933 0.87495 0.0
C1869 C 0.082 0.25853 0.91039 0.0
O1870 O 0.06595 0.31919 0.96321 0.0
O1871 O 0.10719 0.29985 0.96463 0.0
In1872 In 0.56489 0.67414 0.09088 0.0
O1873 O 0.5239 0.66791 0.06595 0.0
O1874 O 0.52248 0.68726 0.10719 0.0
C1875 C 0.61109 0.65063 0.06815 0.0
C1876 C 0.57671 0.72858 0.082 0.0
C1877 C 0.56257 0.63487 0.13164 0.0
O1878 O 0.58664 0.64655 0.05774 0.0
O1879 O 0.61216 0.66778 0.08856 0.0
O1880 O 0.57195 0.65963 0.13639 0.0
O1881 O 0.55365 0.63052 0.10685 0.0
C1882 C 0.50903 0.67854 0.08571 0.0
O1883 O 0.58146 0.71693 0.10573 0.0
O1884 O 0.56592 0.71292 0.06315 0.0
In1885 In 0.81296 0.56489 0.09088 0.0
O1886 O 0.81919 0.5239 0.06596 0.0
O1887 O 0.79984 0.52248 0.10719 0.0
C1888 C 0.83649 0.61108 0.06817 0.0
C1889 C 0.75853 0.57672 0.082 0.0
C1890 C 0.85224 0.56256 0.13164 0.0
O1891 O 0.84056 0.58663 0.05774 0.0
O1892 O 0.81933 0.61216 0.08857 0.0
O1893 O 0.82748 0.57195 0.13639 0.0
O1894 O 0.85659 0.55365 0.10685 0.0
C1895 C 0.80857 0.50903 0.08572 0.0
O1896 O 0.77018 0.58146 0.10573 0.0
O1897 O 0.77419 0.56592 0.06315 0.0
In1898 In 0.92221 0.81296 0.09088 0.0
O1899 O 0.96321 0.81919 0.06596 0.0
O1900 O 0.96463 0.79984 0.10719 0.0
C1901 C 0.87602 0.83649 0.06817 0.0
C1902 C 0.91039 0.75853 0.082 0.0
C1903 C 0.92454 0.85224 0.13164 0.0
O1904 O 0.90047 0.84056 0.05774 0.0
O1905 O 0.87494 0.81933 0.08857 0.0
O1906 O 0.91516 0.82748 0.13639 0.0
O1907 O 0.93346 0.85659 0.10685 0.0
C1908 C 0.97808 0.80857 0.08572 0.0
O1909 O 0.90564 0.77018 0.10574 0.0
O1910 O 0.92118 0.77419 0.06315 0.0
In1911 In 0.67414 0.92222 0.09088 0.0
O1912 O 0.71693 0.90564 0.10574 0.0
O1913 O 0.71291 0.92118 0.06315 0.0
C1914 C 0.63487 0.92454 0.13164 0.0
C1915 C 0.67854 0.97808 0.08572 0.0
C1916 C 0.65062 0.87602 0.06817 0.0
O1917 O 0.65963 0.91516 0.13639 0.0
O1918 O 0.63052 0.93346 0.10685 0.0
O1919 O 0.64655 0.90047 0.05774 0.0
O1920 O 0.66778 0.87495 0.08857 0.0
C1921 C 0.72857 0.91039 0.08201 0.0
O1922 O 0.66791 0.96321 0.06596 0.0
O1923 O 0.68726 0.96463 0.10719 0.0
In1924 In 0.56489 0.31296 0.89622 0.0
O1925 O 0.58146 0.27018 0.88137 0.0
O1926 O 0.56592 0.27419 0.92395 0.0
C1927 C 0.56256 0.35224 0.85547 0.0
C1928 C 0.50903 0.30857 0.90139 0.0
C1929 C 0.61109 0.33649 0.91894 0.0
O1930 O 0.57195 0.32748 0.85072 0.0
O1931 O 0.55365 0.35659 0.88026 0.0
O1932 O 0.58663 0.34056 0.92936 0.0
O1933 O 0.61216 0.31933 0.89854 0.0
C1934 C 0.57671 0.25853 0.9051 0.0
O1935 O 0.5239 0.31919 0.92115 0.0
O1936 O 0.52248 0.29984 0.87991 0.0
In1937 In 0.17414 0.56489 0.89622 0.0
O1938 O 0.16791 0.5239 0.92115 0.0
O1939 O 0.18726 0.52248 0.87991 0.0
C1940 C 0.15062 0.61109 0.91893 0.0
C1941 C 0.22858 0.57671 0.9051 0.0
C1942 C 0.13487 0.56256 0.85546 0.0
O1943 O 0.14655 0.58663 0.92936 0.0
O1944 O 0.16778 0.61216 0.89853 0.0
O1945 O 0.15963 0.57195 0.85071 0.0
O1946 O 0.13052 0.55365 0.88026 0.0
C1947 C 0.17854 0.50903 0.90139 0.0
O1948 O 0.21693 0.58146 0.88137 0.0
O1949 O 0.21292 0.56592 0.92395 0.0
In1950 In 0.92222 0.17414 0.89622 0.0
O1951 O 0.96321 0.16791 0.92115 0.0
O1952 O 0.96463 0.18727 0.87991 0.0
C1953 C 0.87602 0.15062 0.91893 0.0
C1954 C 0.91039 0.22857 0.9051 0.0
C1955 C 0.92455 0.13487 0.85546 0.0
O1956 O 0.90048 0.14655 0.92936 0.0
O1957 O 0.87495 0.16778 0.89853 0.0
O1958 O 0.91516 0.15963 0.85071 0.0
O1959 O 0.93346 0.13052 0.88026 0.0
C1960 C 0.97808 0.17854 0.90139 0.0
O1961 O 0.90565 0.21693 0.88137 0.0
O1962 O 0.92118 0.21291 0.92395 0.0
In1963 In 0.31296 0.92222 0.89622 0.0
O1964 O 0.31919 0.96321 0.92115 0.0
O1965 O 0.29984 0.96463 0.87991 0.0
C1966 C 0.33649 0.87602 0.91894 0.0
C1967 C 0.25853 0.9104 0.9051 0.0
C1968 C 0.35224 0.92454 0.85547 0.0
O1969 O 0.34056 0.90047 0.92936 0.0
O1970 O 0.31933 0.87495 0.89853 0.0
O1971 O 0.32748 0.91516 0.85072 0.0
O1972 O 0.35659 0.93346 0.88026 0.0
C1973 C 0.30857 0.97808 0.90139 0.0
O1974 O 0.27018 0.90565 0.88137 0.0
O1975 O 0.27419 0.92119 0.92395 0.0
In1976 In 0.59089 0.56489 0.17414 0.0
O1977 O 0.60574 0.58146 0.21693 0.0
O1978 O 0.56316 0.56592 0.21291 0.0
C1979 C 0.63164 0.56256 0.13487 0.0
C1980 C 0.58572 0.50903 0.17853 0.0
C1981 C 0.56817 0.61109 0.15062 0.0
O1982 O 0.63639 0.57195 0.15963 0.0
O1983 O 0.60685 0.55365 0.13052 0.0
O1984 O 0.55775 0.58663 0.14655 0.0
O1985 O 0.58857 0.61216 0.16778 0.0
C1986 C 0.58201 0.57671 0.22857 0.0
O1987 O 0.56596 0.5239 0.16791 0.0
O1988 O 0.6072 0.52248 0.18726 0.0
In1989 In 0.92222 0.59088 0.17414 0.0
O1990 O 0.90564 0.60574 0.21693 0.0
O1991 O 0.92119 0.56316 0.21292 0.0
C1992 C 0.92453 0.63163 0.13487 0.0
C1993 C 0.97808 0.58572 0.17853 0.0
C1994 C 0.87602 0.56817 0.15062 0.0
O1995 O 0.91516 0.63639 0.15963 0.0
O1996 O 0.93345 0.60684 0.13051 0.0
O1997 O 0.90047 0.55774 0.14655 0.0
O1998 O 0.87495 0.58857 0.16778 0.0
C1999 C 0.9104 0.58201 0.22857 0.0
O2000 O 0.96321 0.56595 0.16792 0.0
O2001 O 0.96463 0.6072 0.18726 0.0
In2002 In 0.89622 0.92222 0.17414 0.0
O2003 O 0.92115 0.96321 0.16791 0.0
O2004 O 0.87991 0.96463 0.18726 0.0
C2005 C 0.91894 0.87602 0.15062 0.0
C2006 C 0.9051 0.9104 0.22857 0.0
C2007 C 0.85548 0.92453 0.13487 0.0
O2008 O 0.92936 0.90047 0.14655 0.0
O2009 O 0.89854 0.87495 0.16778 0.0
O2010 O 0.85072 0.91516 0.15963 0.0
O2011 O 0.88026 0.93345 0.13051 0.0
C2012 C 0.90139 0.97808 0.17853 0.0
O2013 O 0.88137 0.90564 0.21693 0.0
O2014 O 0.92395 0.92119 0.21291 0.0
In2015 In 0.56489 0.89622 0.17414 0.0
O2016 O 0.58146 0.88137 0.21693 0.0
O2017 O 0.56592 0.92395 0.21292 0.0
C2018 C 0.56258 0.85548 0.13487 0.0
C2019 C 0.50903 0.90139 0.17853 0.0
C2020 C 0.61109 0.91894 0.15062 0.0
O2021 O 0.57195 0.85072 0.15963 0.0
O2022 O 0.55366 0.88026 0.13051 0.0
O2023 O 0.58663 0.92937 0.14655 0.0
O2024 O 0.61216 0.89854 0.16778 0.0
C2025 C 0.57671 0.9051 0.22858 0.0
O2026 O 0.5239 0.92115 0.16792 0.0
O2027 O 0.52248 0.87991 0.18726 0.0
In2028 In 0.59088 0.42222 0.81296 0.0
O2029 O 0.60574 0.40564 0.77018 0.0
O2030 O 0.56316 0.42119 0.77419 0.0
C2031 C 0.63163 0.42453 0.85224 0.0
C2032 C 0.58572 0.47808 0.80857 0.0
C2033 C 0.56817 0.37602 0.83649 0.0
O2034 O 0.63639 0.41516 0.82747 0.0
O2035 O 0.60684 0.43345 0.85659 0.0
O2036 O 0.55774 0.40047 0.84056 0.0
O2037 O 0.58857 0.37495 0.81933 0.0
C2038 C 0.58201 0.4104 0.75853 0.0
O2039 O 0.56595 0.46321 0.81919 0.0
O2040 O 0.6072 0.46463 0.79985 0.0
In2041 In 0.06489 0.59088 0.81296 0.0
O2042 O 0.08146 0.60574 0.77018 0.0
O2043 O 0.06592 0.56316 0.77419 0.0
C2044 C 0.06258 0.63163 0.85224 0.0
C2045 C 0.00903 0.58572 0.80857 0.0
C2046 C 0.11109 0.56817 0.83648 0.0
O2047 O 0.07195 0.63639 0.82747 0.0
O2048 O 0.05366 0.60684 0.85659 0.0
O2049 O 0.08663 0.55774 0.84055 0.0
O2050 O 0.11216 0.58857 0.81933 0.0
C2051 C 0.07671 0.58201 0.75853 0.0
O2052 O 0.0239 0.56595 0.81919 0.0
O2053 O 0.02248 0.6072 0.79985 0.0
In2054 In 0.89622 0.06489 0.81296 0.0
O2055 O 0.92115 0.0239 0.81919 0.0
O2056 O 0.87991 0.02248 0.79985 0.0
C2057 C 0.91894 0.11109 0.83648 0.0
C2058 C 0.9051 0.07671 0.75853 0.0
C2059 C 0.85547 0.06258 0.85224 0.0
O2060 O 0.92936 0.08663 0.84055 0.0
O2061 O 0.89854 0.11216 0.81933 0.0
O2062 O 0.85072 0.07195 0.82747 0.0
O2063 O 0.88026 0.05366 0.85659 0.0
C2064 C 0.90139 0.00903 0.80857 0.0
O2065 O 0.88137 0.08146 0.77018 0.0
O2066 O 0.92395 0.06592 0.77419 0.0
In2067 In 0.42222 0.89622 0.81296 0.0
O2068 O 0.46321 0.92115 0.81919 0.0
O2069 O 0.46463 0.87991 0.79985 0.0
C2070 C 0.37602 0.91894 0.83648 0.0
C2071 C 0.4104 0.9051 0.75853 0.0
C2072 C 0.42453 0.85547 0.85224 0.0
O2073 O 0.40047 0.92936 0.84055 0.0
O2074 O 0.37495 0.89854 0.81933 0.0
O2075 O 0.41516 0.85072 0.82747 0.0
O2076 O 0.43345 0.88026 0.85659 0.0
C2077 C 0.47808 0.90139 0.80857 0.0
O2078 O 0.40564 0.88137 0.77018 0.0
O2079 O 0.42119 0.92395 0.77419 0.0
In2080 In 0.67414 0.59088 0.06489 0.0
O2081 O 0.66792 0.56595 0.0239 0.0
O2082 O 0.68726 0.6072 0.02248 0.0
C2083 C 0.65062 0.56817 0.11108 0.0
C2084 C 0.72858 0.58201 0.07671 0.0
C2085 C 0.63487 0.63163 0.06258 0.0
O2086 O 0.64655 0.55774 0.08663 0.0
O2087 O 0.66778 0.58857 0.11216 0.0
O2088 O 0.65963 0.63639 0.07195 0.0
O2089 O 0.63051 0.60684 0.05366 0.0
C2090 C 0.67854 0.58572 0.00903 0.0
O2091 O 0.71693 0.60574 0.08146 0.0
O2092 O 0.71292 0.56316 0.06592 0.0
In2093 In 0.67414 0.89623 0.42222 0.0
O2094 O 0.66792 0.92116 0.46321 0.0
O2095 O 0.68726 0.87991 0.46463 0.0
C2096 C 0.65062 0.91894 0.37602 0.0
C2097 C 0.72858 0.9051 0.4104 0.0
C2098 C 0.63487 0.85548 0.42453 0.0
O2099 O 0.64655 0.92937 0.40047 0.0
O2100 O 0.66778 0.89854 0.37495 0.0
O2101 O 0.65963 0.85072 0.41516 0.0
O2102 O 0.63051 0.88027 0.43345 0.0
C2103 C 0.67853 0.90139 0.47808 0.0
O2104 O 0.71693 0.88137 0.40564 0.0
O2105 O 0.71292 0.92395 0.42119 0.0
In2106 In 0.59088 0.67414 0.42221 0.0
O2107 O 0.56595 0.66792 0.46321 0.0
O2108 O 0.60719 0.68726 0.46463 0.0
C2109 C 0.56817 0.65062 0.37602 0.0
C2110 C 0.582 0.72858 0.4104 0.0
C2111 C 0.63163 0.63487 0.42453 0.0
O2112 O 0.55774 0.64655 0.40047 0.0
O2113 O 0.58857 0.66778 0.37494 0.0
O2114 O 0.63639 0.65963 0.41516 0.0
O2115 O 0.60684 0.63051 0.43345 0.0
C2116 C 0.58572 0.67853 0.47808 0.0
O2117 O 0.60573 0.71693 0.40564 0.0
O2118 O 0.56315 0.71292 0.42119 0.0
In2119 In 0.81296 0.59088 0.42221 0.0
O2120 O 0.81919 0.56595 0.46321 0.0
O2121 O 0.79985 0.6072 0.46463 0.0
C2122 C 0.83649 0.56817 0.37602 0.0
C2123 C 0.75853 0.582 0.4104 0.0
C2124 C 0.85224 0.63163 0.42453 0.0
O2125 O 0.84056 0.55774 0.40047 0.0
O2126 O 0.81933 0.58857 0.37494 0.0
O2127 O 0.82747 0.63639 0.41516 0.0
O2128 O 0.85659 0.60684 0.43345 0.0
C2129 C 0.80857 0.58572 0.47808 0.0
O2130 O 0.77018 0.60573 0.40564 0.0
O2131 O 0.77419 0.56315 0.42119 0.0
In2132 In 0.89623 0.31296 0.92222 0.0
O2133 O 0.88137 0.27018 0.90564 0.0
O2134 O 0.92395 0.27419 0.92119 0.0
C2135 C 0.85548 0.35224 0.92453 0.0
C2136 C 0.90139 0.30858 0.97808 0.0
C2137 C 0.91894 0.33649 0.87602 0.0
O2138 O 0.85072 0.32747 0.91516 0.0
O2139 O 0.88027 0.35659 0.93345 0.0
O2140 O 0.92937 0.34056 0.90047 0.0
O2141 O 0.89854 0.31933 0.87495 0.0
C2142 C 0.9051 0.25853 0.9104 0.0
O2143 O 0.92116 0.31919 0.96321 0.0
O2144 O 0.87991 0.29985 0.96463 0.0
In2145 In 0.31296 0.39622 0.06489 0.0
O2146 O 0.31919 0.42115 0.0239 0.0
O2147 O 0.29985 0.37991 0.02248 0.0
C2148 C 0.33649 0.41894 0.11109 0.0
C2149 C 0.25853 0.4051 0.07671 0.0
C2150 C 0.35224 0.35548 0.06258 0.0
O2151 O 0.34056 0.42937 0.08663 0.0
O2152 O 0.31933 0.39854 0.11216 0.0
O2153 O 0.32747 0.35072 0.07195 0.0
O2154 O 0.35659 0.38026 0.05366 0.0
C2155 C 0.30857 0.40139 0.00903 0.0
O2156 O 0.27018 0.38137 0.08146 0.0
O2157 O 0.27419 0.42395 0.06592 0.0
In2158 In 0.59088 0.31296 0.56489 0.0
O2159 O 0.60573 0.27018 0.58146 0.0
O2160 O 0.56315 0.27419 0.56592 0.0
C2161 C 0.63163 0.35224 0.56258 0.0
C2162 C 0.58572 0.30857 0.50903 0.0
C2163 C 0.56817 0.33649 0.61109 0.0
O2164 O 0.63639 0.32747 0.57195 0.0
O2165 O 0.60684 0.35659 0.55366 0.0
O2166 O 0.55774 0.34056 0.58663 0.0
O2167 O 0.58857 0.31933 0.61216 0.0
C2168 C 0.582 0.25853 0.57671 0.0
O2169 O 0.56595 0.31919 0.5239 0.0
O2170 O 0.60719 0.29985 0.52248 0.0
In2171 In 0.89622 0.17414 0.56489 0.0
O2172 O 0.92115 0.16792 0.5239 0.0
O2173 O 0.87991 0.18726 0.52248 0.0
C2174 C 0.91894 0.15062 0.61109 0.0
C2175 C 0.9051 0.22858 0.57671 0.0
C2176 C 0.85548 0.13487 0.56258 0.0
O2177 O 0.92937 0.14655 0.58663 0.0
O2178 O 0.89854 0.16778 0.61216 0.0
O2179 O 0.85072 0.15963 0.57195 0.0
O2180 O 0.88026 0.13051 0.55366 0.0
C2181 C 0.90139 0.17853 0.50903 0.0
O2182 O 0.88137 0.21693 0.58146 0.0
O2183 O 0.92395 0.21292 0.56592 0.0
In2184 In 0.42221 0.31296 0.89622 0.0
O2185 O 0.46321 0.31919 0.92115 0.0
O2186 O 0.46463 0.29985 0.87991 0.0
C2187 C 0.37601 0.33648 0.91895 0.0
C2188 C 0.4104 0.25853 0.9051 0.0
C2189 C 0.42454 0.35224 0.85547 0.0
O2190 O 0.40047 0.34056 0.92936 0.0
O2191 O 0.37495 0.31932 0.89855 0.0
O2192 O 0.41516 0.32748 0.85072 0.0
O2193 O 0.43345 0.35659 0.88026 0.0
C2194 C 0.47808 0.30857 0.90139 0.0
O2195 O 0.40564 0.27018 0.88137 0.0
O2196 O 0.42119 0.27419 0.92395 0.0
In2197 In 0.17414 0.42222 0.89622 0.0
O2198 O 0.21693 0.40564 0.88137 0.0
O2199 O 0.21291 0.42119 0.92395 0.0
C2200 C 0.13487 0.42454 0.85547 0.0
C2201 C 0.17853 0.47808 0.90139 0.0
C2202 C 0.15062 0.37602 0.91893 0.0
O2203 O 0.15963 0.41516 0.85072 0.0
O2204 O 0.13052 0.43346 0.88026 0.0
O2205 O 0.14655 0.40048 0.92936 0.0
O2206 O 0.16778 0.37495 0.89853 0.0
C2207 C 0.22857 0.41039 0.9051 0.0
O2208 O 0.16791 0.46321 0.92115 0.0
O2209 O 0.18726 0.46463 0.87991 0.0
In2210 In 0.06489 0.17414 0.89622 0.0
O2211 O 0.08146 0.21693 0.88137 0.0
O2212 O 0.06592 0.21292 0.92395 0.0
C2213 C 0.06256 0.13487 0.85547 0.0
C2214 C 0.00903 0.17853 0.90139 0.0
C2215 C 0.11109 0.15062 0.91894 0.0
O2216 O 0.07195 0.15963 0.85072 0.0
O2217 O 0.05365 0.13052 0.88026 0.0
O2218 O 0.08663 0.14655 0.92936 0.0
O2219 O 0.11216 0.16778 0.89854 0.0
C2220 C 0.07671 0.22858 0.9051 0.0
O2221 O 0.0239 0.16792 0.92115 0.0
O2222 O 0.02248 0.18726 0.87991 0.0
In2223 In 0.31296 0.06489 0.89622 0.0
O2224 O 0.27018 0.08146 0.88137 0.0
O2225 O 0.27419 0.06592 0.92395 0.0
C2226 C 0.35224 0.06256 0.85547 0.0
C2227 C 0.30857 0.00903 0.90139 0.0
C2228 C 0.33649 0.11109 0.91894 0.0
O2229 O 0.32748 0.07195 0.85072 0.0
O2230 O 0.35659 0.05365 0.88026 0.0
O2231 O 0.34056 0.08663 0.92936 0.0
O2232 O 0.31933 0.11216 0.89854 0.0
C2233 C 0.25853 0.07671 0.9051 0.0
O2234 O 0.31919 0.0239 0.92115 0.0
O2235 O 0.29985 0.02248 0.87991 0.0
In2236 In 0.42222 0.67414 0.09088 0.0
O2237 O 0.40565 0.71693 0.10574 0.0
O2238 O 0.42119 0.71291 0.06316 0.0
C2239 C 0.42454 0.63487 0.13164 0.0
C2240 C 0.47808 0.67853 0.08572 0.0
C2241 C 0.37602 0.65062 0.06817 0.0
O2242 O 0.41516 0.65963 0.13639 0.0
O2243 O 0.43346 0.63052 0.10685 0.0
O2244 O 0.40047 0.64655 0.05774 0.0
O2245 O 0.37495 0.66778 0.08857 0.0
C2246 C 0.4104 0.72858 0.08201 0.0
O2247 O 0.46321 0.66791 0.06595 0.0
O2248 O 0.46463 0.68726 0.10719 0.0
In2249 In 0.81296 0.42222 0.09089 0.0
O2250 O 0.77018 0.40565 0.10574 0.0
O2251 O 0.77419 0.42119 0.06316 0.0
C2252 C 0.85224 0.42454 0.13164 0.0
C2253 C 0.80857 0.47808 0.08572 0.0
C2254 C 0.83649 0.37602 0.06817 0.0
O2255 O 0.82748 0.41516 0.13639 0.0
O2256 O 0.85659 0.43346 0.10685 0.0
O2257 O 0.84056 0.40047 0.05774 0.0
O2258 O 0.81933 0.37495 0.08857 0.0
C2259 C 0.75853 0.4104 0.08201 0.0
O2260 O 0.81919 0.46321 0.06596 0.0
O2261 O 0.79985 0.46463 0.1072 0.0
In2262 In 0.06489 0.81296 0.09088 0.0
O2263 O 0.08146 0.77018 0.10573 0.0
O2264 O 0.06592 0.77419 0.06315 0.0
C2265 C 0.06256 0.85224 0.13164 0.0
C2266 C 0.00903 0.80857 0.08572 0.0
C2267 C 0.11108 0.83649 0.06817 0.0
O2268 O 0.07195 0.82748 0.13639 0.0
O2269 O 0.05365 0.85659 0.10685 0.0
O2270 O 0.08663 0.84056 0.05775 0.0
O2271 O 0.11216 0.81933 0.08857 0.0
C2272 C 0.07671 0.75853 0.082 0.0
O2273 O 0.0239 0.81919 0.06595 0.0
O2274 O 0.02248 0.79984 0.1072 0.0
In2275 In 0.67414 0.06489 0.09088 0.0
O2276 O 0.66791 0.0239 0.06595 0.0
O2277 O 0.68726 0.02248 0.1072 0.0
C2278 C 0.65062 0.11109 0.06817 0.0
C2279 C 0.72858 0.07671 0.08201 0.0
C2280 C 0.63487 0.06256 0.13164 0.0
O2281 O 0.64655 0.08663 0.05774 0.0
O2282 O 0.66778 0.11216 0.08857 0.0
O2283 O 0.65963 0.07195 0.13639 0.0
O2284 O 0.63052 0.05365 0.10685 0.0
C2285 C 0.67853 0.00903 0.08572 0.0
O2286 O 0.71693 0.08146 0.10574 0.0
O2287 O 0.71292 0.06592 0.06316 0.0
In2288 In 0.39622 0.42222 0.81296 0.0
O2289 O 0.38137 0.40565 0.77018 0.0
O2290 O 0.42395 0.42119 0.77419 0.0
C2291 C 0.35547 0.42454 0.85224 0.0
C2292 C 0.40139 0.47808 0.80857 0.0
C2293 C 0.41893 0.37602 0.83649 0.0
O2294 O 0.35071 0.41516 0.82748 0.0
O2295 O 0.38026 0.43346 0.85659 0.0
O2296 O 0.42936 0.40047 0.84056 0.0
O2297 O 0.39853 0.37495 0.81933 0.0
C2298 C 0.4051 0.4104 0.75853 0.0
O2299 O 0.42115 0.46321 0.81919 0.0
O2300 O 0.37991 0.46463 0.79984 0.0
In2301 In 0.06489 0.39622 0.81296 0.0
O2302 O 0.08146 0.38137 0.77018 0.0
O2303 O 0.06592 0.42395 0.77419 0.0
C2304 C 0.06258 0.35548 0.85224 0.0
C2305 C 0.00903 0.40139 0.80857 0.0
C2306 C 0.11109 0.41894 0.83649 0.0
O2307 O 0.07195 0.35072 0.82747 0.0
O2308 O 0.05366 0.38026 0.85659 0.0
O2309 O 0.08663 0.42937 0.84056 0.0
O2310 O 0.11216 0.39854 0.81933 0.0
C2311 C 0.07671 0.4051 0.75853 0.0
O2312 O 0.0239 0.42115 0.81919 0.0
O2313 O 0.02248 0.37991 0.79985 0.0
In2314 In 0.09088 0.06489 0.81296 0.0
O2315 O 0.10574 0.08146 0.77018 0.0
O2316 O 0.06316 0.06592 0.77419 0.0
C2317 C 0.13163 0.06258 0.85224 0.0
C2318 C 0.08572 0.00903 0.80857 0.0
C2319 C 0.06817 0.11109 0.83649 0.0
O2320 O 0.13639 0.07195 0.82747 0.0
O2321 O 0.10684 0.05366 0.85659 0.0
O2322 O 0.05774 0.08663 0.84056 0.0
O2323 O 0.08857 0.11216 0.81933 0.0
C2324 C 0.08201 0.07671 0.75853 0.0
O2325 O 0.06595 0.0239 0.81919 0.0
O2326 O 0.1072 0.02248 0.79985 0.0
In2327 In 0.42222 0.09088 0.81296 0.0
O2328 O 0.40564 0.10574 0.77018 0.0
O2329 O 0.42119 0.06316 0.77419 0.0
C2330 C 0.42453 0.13163 0.85224 0.0
C2331 C 0.47808 0.08572 0.80857 0.0
C2332 C 0.37602 0.06817 0.83649 0.0
O2333 O 0.41516 0.13639 0.82747 0.0
O2334 O 0.43345 0.10684 0.85659 0.0
O2335 O 0.40047 0.05774 0.84056 0.0
O2336 O 0.37495 0.08857 0.81933 0.0
C2337 C 0.4104 0.08201 0.75853 0.0
O2338 O 0.46321 0.06595 0.81919 0.0
O2339 O 0.46463 0.1072 0.79985 0.0
In2340 In 0.39622 0.56489 0.17414 0.0
O2341 O 0.42115 0.5239 0.16792 0.0
O2342 O 0.37991 0.52248 0.18726 0.0
C2343 C 0.41894 0.61109 0.15062 0.0
C2344 C 0.4051 0.57671 0.22858 0.0
C2345 C 0.35547 0.56258 0.13487 0.0
O2346 O 0.42936 0.58663 0.14655 0.0
O2347 O 0.39854 0.61216 0.16778 0.0
O2348 O 0.35072 0.57195 0.15963 0.0
O2349 O 0.38026 0.55366 0.13051 0.0
C2350 C 0.40139 0.50903 0.17853 0.0
O2351 O 0.38137 0.58146 0.21693 0.0
O2352 O 0.42395 0.56592 0.21292 0.0
In2353 In 0.92222 0.39622 0.17414 0.0
O2354 O 0.90564 0.38137 0.21693 0.0
O2355 O 0.92119 0.42395 0.21292 0.0
C2356 C 0.92453 0.35547 0.13487 0.0
C2357 C 0.97808 0.40139 0.17853 0.0
C2358 C 0.87602 0.41894 0.15062 0.0
O2359 O 0.91516 0.35071 0.15963 0.0
O2360 O 0.93345 0.38026 0.13051 0.0
O2361 O 0.90047 0.42936 0.14655 0.0
O2362 O 0.87495 0.39854 0.16778 0.0
C2363 C 0.9104 0.4051 0.22858 0.0
O2364 O 0.96321 0.42115 0.16792 0.0
O2365 O 0.96463 0.37991 0.18726 0.0
In2366 In 0.09088 0.92222 0.17414 0.0
O2367 O 0.10574 0.90564 0.21693 0.0
O2368 O 0.06316 0.92119 0.21292 0.0
C2369 C 0.13163 0.92453 0.13487 0.0
C2370 C 0.08572 0.97808 0.17853 0.0
C2371 C 0.06817 0.87602 0.15062 0.0
O2372 O 0.13639 0.91516 0.15963 0.0
O2373 O 0.10684 0.93345 0.13051 0.0
O2374 O 0.05774 0.90047 0.14655 0.0
O2375 O 0.08857 0.87495 0.16778 0.0
C2376 C 0.08201 0.9104 0.22858 0.0
O2377 O 0.06595 0.96321 0.16792 0.0
O2378 O 0.1072 0.96463 0.18726 0.0
In2379 In 0.56489 0.09088 0.17414 0.0
O2380 O 0.58146 0.10574 0.21693 0.0
O2381 O 0.56592 0.06316 0.21292 0.0
C2382 C 0.56258 0.13163 0.13487 0.0
C2383 C 0.50903 0.08572 0.17853 0.0
C2384 C 0.61109 0.06817 0.15062 0.0
O2385 O 0.57195 0.13639 0.15963 0.0
O2386 O 0.55366 0.10684 0.13051 0.0
O2387 O 0.58663 0.05774 0.14655 0.0
O2388 O 0.61216 0.08857 0.16778 0.0
C2389 C 0.57671 0.08201 0.22858 0.0
O2390 O 0.5239 0.06595 0.16792 0.0
O2391 O 0.52248 0.1072 0.18726 0.0
In2392 In 0.31296 0.39622 0.92222 0.0
O2393 O 0.27018 0.38137 0.90564 0.0
O2394 O 0.27419 0.42395 0.92119 0.0
C2395 C 0.35224 0.35548 0.92453 0.0
C2396 C 0.30858 0.40139 0.97808 0.0
C2397 C 0.33648 0.41894 0.87602 0.0
O2398 O 0.32747 0.35072 0.91516 0.0
O2399 O 0.35659 0.38026 0.93345 0.0
O2400 O 0.34056 0.42936 0.90047 0.0
O2401 O 0.31933 0.39854 0.87495 0.0
C2402 C 0.25853 0.4051 0.9104 0.0
O2403 O 0.31919 0.42115 0.96321 0.0
O2404 O 0.29985 0.37991 0.96463 0.0
In2405 In 0.31296 0.09088 0.56489 0.0
O2406 O 0.31919 0.06595 0.5239 0.0
O2407 O 0.29985 0.10719 0.52248 0.0
C2408 C 0.33649 0.06817 0.61109 0.0
C2409 C 0.25853 0.082 0.57671 0.0
C2410 C 0.35224 0.13163 0.56258 0.0
O2411 O 0.34056 0.05774 0.58663 0.0
O2412 O 0.31933 0.08857 0.61216 0.0
O2413 O 0.32747 0.13639 0.57195 0.0
O2414 O 0.35659 0.10684 0.55366 0.0
C2415 C 0.30857 0.08572 0.50903 0.0
O2416 O 0.27018 0.10573 0.58146 0.0
O2417 O 0.27419 0.06315 0.56592 0.0
In2418 In 0.39623 0.31296 0.56489 0.0
O2419 O 0.38137 0.27018 0.58146 0.0
O2420 O 0.42395 0.27419 0.56592 0.0
C2421 C 0.35548 0.35224 0.56258 0.0
C2422 C 0.40139 0.30858 0.50903 0.0
C2423 C 0.41894 0.33649 0.61109 0.0
O2424 O 0.35072 0.32747 0.57195 0.0
O2425 O 0.38027 0.35659 0.55366 0.0
O2426 O 0.42937 0.34056 0.58663 0.0
O2427 O 0.39854 0.31933 0.61216 0.0
C2428 C 0.4051 0.25853 0.57671 0.0
O2429 O 0.42116 0.31919 0.5239 0.0
O2430 O 0.37991 0.29985 0.52248 0.0
In2431 In 0.17414 0.39623 0.56489 0.0
O2432 O 0.16792 0.42115 0.5239 0.0
O2433 O 0.18726 0.37991 0.52248 0.0
C2434 C 0.15062 0.41894 0.61109 0.0
C2435 C 0.22858 0.4051 0.57671 0.0
C2436 C 0.13487 0.35548 0.56258 0.0
O2437 O 0.14655 0.42937 0.58663 0.0
O2438 O 0.16778 0.39854 0.61216 0.0
O2439 O 0.15963 0.35072 0.57195 0.0
O2440 O 0.13051 0.38027 0.55366 0.0
C2441 C 0.17853 0.40139 0.50903 0.0
O2442 O 0.21693 0.38137 0.58146 0.0
O2443 O 0.21292 0.42395 0.56592 0.0
In2444 In 0.09088 0.67414 0.06489 0.0
O2445 O 0.06595 0.66792 0.0239 0.0
O2446 O 0.10719 0.68726 0.02248 0.0
C2447 C 0.06817 0.65062 0.11109 0.0
C2448 C 0.082 0.72858 0.07671 0.0
C2449 C 0.13163 0.63487 0.06258 0.0
O2450 O 0.05774 0.64655 0.08663 0.0
O2451 O 0.08857 0.66778 0.11216 0.0
O2452 O 0.13639 0.65963 0.07195 0.0
O2453 O 0.10684 0.63051 0.05366 0.0
C2454 C 0.08572 0.67853 0.00903 0.0
O2455 O 0.10573 0.71693 0.08146 0.0
O2456 O 0.06315 0.71292 0.06592 0.0
In2457 In 0.67414 0.59088 0.92221 0.0
O2458 O 0.71693 0.60573 0.90564 0.0
O2459 O 0.71292 0.56315 0.92119 0.0
C2460 C 0.63487 0.63163 0.92453 0.0
C2461 C 0.67853 0.58572 0.97808 0.0
C2462 C 0.65062 0.56817 0.87602 0.0
O2463 O 0.65963 0.63639 0.91516 0.0
O2464 O 0.63051 0.60684 0.93345 0.0
O2465 O 0.64655 0.55774 0.90047 0.0
O2466 O 0.66778 0.58857 0.87494 0.0
C2467 C 0.72858 0.582 0.9104 0.0
O2468 O 0.66792 0.56595 0.9632 0.0
O2469 O 0.68726 0.6072 0.96462 0.0
In2470 In 0.39623 0.67414 0.42221 0.0
O2471 O 0.42116 0.66792 0.46321 0.0
O2472 O 0.37991 0.68726 0.46463 0.0
C2473 C 0.41894 0.65062 0.37602 0.0
C2474 C 0.4051 0.72858 0.4104 0.0
C2475 C 0.35548 0.63487 0.42453 0.0
O2476 O 0.42937 0.64655 0.40047 0.0
O2477 O 0.39854 0.66778 0.37494 0.0
O2478 O 0.35072 0.65963 0.41516 0.0
O2479 O 0.38027 0.63051 0.43345 0.0
C2480 C 0.40139 0.67853 0.47808 0.0
O2481 O 0.38137 0.71693 0.40564 0.0
O2482 O 0.42395 0.71292 0.42119 0.0
In2483 In 0.09088 0.81296 0.42221 0.0
O2484 O 0.06595 0.81919 0.46321 0.0
O2485 O 0.1072 0.79985 0.46463 0.0
C2486 C 0.06817 0.83649 0.37602 0.0
C2487 C 0.08201 0.75853 0.4104 0.0
C2488 C 0.13163 0.85224 0.42453 0.0
O2489 O 0.05774 0.84056 0.40047 0.0
O2490 O 0.08857 0.81933 0.37494 0.0
O2491 O 0.13639 0.82747 0.41516 0.0
O2492 O 0.10684 0.85659 0.43345 0.0
C2493 C 0.08572 0.80857 0.47808 0.0
O2494 O 0.10573 0.77018 0.40564 0.0
O2495 O 0.06316 0.77419 0.42119 0.0
loop_
_geom_bond_atom_site_label_1
_geom_bond_atom_site_label_2
_geom_bond_distance
_geom_bond_site_symmetry_2
_ccdc_geom_bond_type
In0 O1 2.294 . S
In0 O2 2.326 . S
In0 O6 2.266 . S
In0 O7 2.326 . S
In0 O8 2.266 . S
In0 O9 2.326 . S
In0 O11 2.294 . S
In0 O12 2.326 . S
O1 In0 2.294 . S
O1 C10 1.240 . S
O2 In0 2.326 . S
O2 C10 1.252 . S
C3 O6 1.252 . S
C3 O7 1.260 . S
C4 O11 1.240 . S
C4 O12 1.252 . S
C5 O8 1.252 . S
C5 O9 1.260 . S
O6 In0 2.266 . S
O6 C3 1.252 . S
O7 In0 2.326 . S
O7 C3 1.260 . S
O8 In0 2.266 . S
O8 C5 1.252 . S
O9 In0 2.326 . S
O9 C5 1.260 . S
C10 O1 1.240 . S
C10 O2 1.252 . S
O11 In0 2.294 . S
O11 C4 1.240 . S
O12 In0 2.326 . S
O12 C4 1.252 . S
In13 O14 2.294 . S
In13 O15 2.326 . S
In13 O19 2.266 . S
In13 O20 2.326 . S
In13 O21 2.266 . S
In13 O22 2.326 . S
In13 O24 2.294 . S
In13 O25 2.326 . S
O14 In13 2.294 . S
O14 C23 1.240 . S
O15 In13 2.326 . S
O15 C23 1.252 . S
C16 O19 1.252 . S
C16 O20 1.260 . S
C17 O24 1.240 . S
C17 O25 1.252 . S
C18 O21 1.252 . S
C18 O22 1.260 . S
O19 In13 2.266 . S
O19 C16 1.252 . S
O20 In13 2.326 . S
O20 C16 1.260 . S
O21 In13 2.266 . S
O21 C18 1.252 . S
O22 In13 2.326 . S
O22 C18 1.260 . S
C23 O14 1.240 . S
C23 O15 1.252 . S
O24 In13 2.294 . S
O24 C17 1.240 . S
O25 In13 2.326 . S
O25 C17 1.252 . S
In26 O27 2.294 . S
In26 O28 2.326 . S
In26 O32 2.266 . S
In26 O33 2.326 . S
In26 O34 2.266 . S
In26 O35 2.326 . S
In26 O37 2.294 . S
In26 O38 2.326 . S
O27 In26 2.294 . S
O27 C36 1.240 . S
O28 In26 2.326 . S
O28 C36 1.252 . S
C29 O32 1.252 . S
C29 O33 1.260 . S
C30 O37 1.240 . S
C30 O38 1.252 . S
C31 O34 1.252 . S
C31 O35 1.260 . S
O32 In26 2.266 . S
O32 C29 1.252 . S
O33 In26 2.326 . S
O33 C29 1.260 . S
O34 In26 2.266 . S
O34 C31 1.252 . S
O35 In26 2.326 . S
O35 C31 1.260 . S
C36 O27 1.240 . S
C36 O28 1.252 . S
O37 In26 2.294 . S
O37 C30 1.240 . S
O38 In26 2.326 . S
O38 C30 1.252 . S
In39 O40 2.294 . S
In39 O41 2.326 . S
In39 O45 2.266 . S
In39 O46 2.326 . S
In39 O47 2.266 . S
In39 O48 2.326 . S
In39 O50 2.294 . S
In39 O51 2.326 . S
O40 In39 2.294 . S
O40 C49 1.240 . S
O41 In39 2.326 . S
O41 C49 1.252 . S
C42 O45 1.252 . S
C42 O46 1.260 . S
C43 O50 1.240 . S
C43 O51 1.252 . S
C44 O47 1.252 . S
C44 O48 1.260 . S
O45 In39 2.266 . S
O45 C42 1.252 . S
O46 In39 2.326 . S
O46 C42 1.260 . S
O47 In39 2.266 . S
O47 C44 1.252 . S
O48 In39 2.326 . S
O48 C44 1.260 . S
C49 O40 1.240 . S
C49 O41 1.252 . S
O50 In39 2.294 . S
O50 C43 1.240 . S
O51 In39 2.326 . S
O51 C43 1.252 . S
In52 O53 2.294 . S
In52 O54 2.326 . S
In52 O58 2.266 . S
In52 O59 2.326 . S
In52 O60 2.266 . S
In52 O61 2.326 . S
In52 O63 2.294 . S
In52 O64 2.326 . S
O53 In52 2.294 . S
O53 C62 1.240 . S
O54 In52 2.326 . S
O54 C62 1.252 . S
C55 O58 1.252 . S
C55 O59 1.260 . S
C56 O63 1.240 . S
C56 O64 1.252 . S
C57 O60 1.252 . S
C57 O61 1.260 . S
O58 In52 2.266 . S
O58 C55 1.252 . S
O59 In52 2.326 . S
O59 C55 1.260 . S
O60 In52 2.266 . S
O60 C57 1.252 . S
O61 In52 2.326 . S
O61 C57 1.260 . S
C62 O53 1.240 . S
C62 O54 1.252 . S
O63 In52 2.294 . S
O63 C56 1.240 . S
O64 In52 2.326 . S
O64 C56 1.252 . S
In65 O66 2.294 . S
In65 O67 2.326 . S
In65 O71 2.266 . S
In65 O72 2.326 . S
In65 O73 2.266 . S
In65 O74 2.326 . S
In65 O76 2.294 . S
In65 O77 2.326 . S
O66 In65 2.294 . S
O66 C75 1.240 . S
O67 In65 2.326 . S
O67 C75 1.252 . S
C68 O71 1.252 . S
C68 O72 1.260 . S
C69 O76 1.240 . S
C69 O77 1.252 . S
C70 O73 1.252 . S
C70 O74 1.260 . S
O71 In65 2.266 . S
O71 C68 1.252 . S
O72 In65 2.326 . S
O72 C68 1.260 . S
O73 In65 2.266 . S
O73 C70 1.252 . S
O74 In65 2.326 . S
O74 C70 1.260 . S
C75 O66 1.240 . S
C75 O67 1.252 . S
O76 In65 2.294 . S
O76 C69 1.240 . S
O77 In65 2.326 . S
O77 C69 1.252 . S
In78 O79 2.294 . S
In78 O80 2.326 . S
In78 O84 2.266 . S
In78 O85 2.326 . S
In78 O86 2.266 . S
In78 O87 2.326 . S
In78 O89 2.294 . S
In78 O90 2.326 . S
O79 In78 2.294 . S
O79 C88 1.240 . S
O80 In78 2.326 . S
O80 C88 1.252 . S
C81 O84 1.252 . S
C81 O85 1.260 . S
C82 O89 1.240 . S
C82 O90 1.252 . S
C83 O86 1.252 . S
C83 O87 1.260 . S
O84 In78 2.266 . S
O84 C81 1.252 . S
O85 In78 2.326 . S
O85 C81 1.260 . S
O86 In78 2.266 . S
O86 C83 1.252 . S
O87 In78 2.326 . S
O87 C83 1.260 . S
C88 O79 1.240 . S
C88 O80 1.252 . S
O89 In78 2.294 . S
O89 C82 1.240 . S
O90 In78 2.326 . S
O90 C82 1.252 . S
In91 O92 2.294 . S
In91 O93 2.326 . S
In91 O97 2.266 . S
In91 O98 2.326 . S
In91 O99 2.266 . S
In91 O100 2.326 . S
In91 O102 2.294 . S
In91 O103 2.326 . S
O92 In91 2.294 . S
O92 C101 1.240 . S
O93 In91 2.326 . S
O93 C101 1.252 . S
C94 O97 1.252 . S
C94 O98 1.260 . S
C95 O102 1.240 . S
C95 O103 1.252 . S
C96 O99 1.252 . S
C96 O100 1.260 . S
O97 In91 2.266 . S
O97 C94 1.252 . S
O98 In91 2.326 . S
O98 C94 1.260 . S
O99 In91 2.266 . S
O99 C96 1.252 . S
O100 In91 2.326 . S
O100 C96 1.260 . S
C101 O92 1.240 . S
C101 O93 1.252 . S
O102 In91 2.294 . S
O102 C95 1.240 . S
O103 In91 2.326 . S
O103 C95 1.252 . S
In104 O105 2.294 . S
In104 O106 2.326 . S
In104 O110 2.266 . S
In104 O111 2.326 . S
In104 O112 2.266 . S
In104 O113 2.326 . S
In104 O115 2.294 . S
In104 O116 2.326 . S
O105 In104 2.294 . S
O105 C114 1.240 . S
O106 In104 2.326 . S
O106 C114 1.252 . S
C107 O110 1.252 . S
C107 O111 1.260 . S
C108 O115 1.240 . S
C108 O116 1.252 . S
C109 O112 1.252 . S
C109 O113 1.260 . S
O110 In104 2.266 . S
O110 C107 1.252 . S
O111 In104 2.326 . S
O111 C107 1.260 . S
O112 In104 2.266 . S
O112 C109 1.252 . S
O113 In104 2.326 . S
O113 C109 1.260 . S
C114 O105 1.240 . S
C114 O106 1.252 . S
O115 In104 2.294 . S
O115 C108 1.240 . S
O116 In104 2.326 . S
O116 C108 1.252 . S
In117 O118 2.294 . S
In117 O119 2.326 . S
In117 O123 2.266 . S
In117 O124 2.326 . S
In117 O125 2.266 . S
In117 O126 2.326 . S
In117 O128 2.294 . S
In117 O129 2.326 . S
O118 In117 2.294 . S
O118 C127 1.240 . S
O119 In117 2.326 . S
O119 C127 1.252 . S
C120 O123 1.252 . S
C120 O124 1.260 . S
C121 O128 1.240 . S
C121 O129 1.252 . S
C122 O125 1.252 . S
C122 O126 1.260 . S
O123 In117 2.266 . S
O123 C120 1.252 . S
O124 In117 2.326 . S
O124 C120 1.260 . S
O125 In117 2.266 . S
O125 C122 1.252 . S
O126 In117 2.326 . S
O126 C122 1.260 . S
C127 O118 1.240 . S
C127 O119 1.252 . S
O128 In117 2.294 . S
O128 C121 1.240 . S
O129 In117 2.326 . S
O129 C121 1.252 . S
In130 O131 2.294 . S
In130 O132 2.326 . S
In130 O136 2.266 . S
In130 O137 2.326 . S
In130 O138 2.266 . S
In130 O139 2.326 . S
In130 O141 2.294 . S
In130 O142 2.326 . S
O131 In130 2.294 . S
O131 C140 1.240 . S
O132 In130 2.326 . S
O132 C140 1.252 . S
C133 O136 1.252 . S
C133 O137 1.260 . S
C134 O141 1.240 . S
C134 O142 1.252 . S
C135 O138 1.252 . S
C135 O139 1.260 . S
O136 In130 2.266 . S
O136 C133 1.252 . S
O137 In130 2.326 . S
O137 C133 1.260 . S
O138 In130 2.266 . S
O138 C135 1.252 . S
O139 In130 2.326 . S
O139 C135 1.260 . S
C140 O131 1.240 . S
C140 O132 1.252 . S
O141 In130 2.294 . S
O141 C134 1.240 . S
O142 In130 2.326 . S
O142 C134 1.252 . S
In143 O144 2.294 . S
In143 O145 2.326 . S
In143 O149 2.266 . S
In143 O150 2.326 . S
In143 O151 2.266 . S
In143 O152 2.326 . S
In143 O154 2.294 . S
In143 O155 2.326 . S
O144 In143 2.294 . S
O144 C153 1.240 . S
O145 In143 2.326 . S
O145 C153 1.252 . S
C146 O149 1.252 . S
C146 O150 1.260 . S
C147 O154 1.240 . S
C147 O155 1.252 . S
C148 O151 1.252 . S
C148 O152 1.260 . S
O149 In143 2.266 . S
O149 C146 1.252 . S
O150 In143 2.326 . S
O150 C146 1.260 . S
O151 In143 2.266 . S
O151 C148 1.252 . S
O152 In143 2.326 . S
O152 C148 1.260 . S
C153 O144 1.240 . S
C153 O145 1.252 . S
O154 In143 2.294 . S
O154 C147 1.240 . S
O155 In143 2.326 . S
O155 C147 1.252 . S
In156 O157 2.294 . S
In156 O158 2.326 . S
In156 O162 2.266 . S
In156 O163 2.326 . S
In156 O164 2.266 . S
In156 O165 2.326 . S
In156 O167 2.294 . S
In156 O168 2.326 . S
O157 In156 2.294 . S
O157 C166 1.240 . S
O158 In156 2.326 . S
O158 C166 1.252 . S
C159 O162 1.252 . S
C159 O163 1.260 . S
C160 O167 1.240 . S
C160 O168 1.252 . S
C161 O164 1.252 . S
C161 O165 1.260 . S
O162 In156 2.266 . S
O162 C159 1.252 . S
O163 In156 2.326 . S
O163 C159 1.260 . S
O164 In156 2.266 . S
O164 C161 1.252 . S
O165 In156 2.326 . S
O165 C161 1.260 . S
C166 O157 1.240 . S
C166 O158 1.252 . S
O167 In156 2.294 . S
O167 C160 1.240 . S
O168 In156 2.326 . S
O168 C160 1.252 . S
In169 O170 2.294 . S
In169 O171 2.326 . S
In169 O175 2.266 . S
In169 O176 2.326 . S
In169 O177 2.266 . S
In169 O178 2.326 . S
In169 O180 2.294 . S
In169 O181 2.326 . S
O170 In169 2.294 . S
O170 C179 1.240 . S
O171 In169 2.326 . S
O171 C179 1.252 . S
C172 O175 1.252 . S
C172 O176 1.260 . S
C173 O180 1.240 . S
C173 O181 1.252 . S
C174 O177 1.252 . S
C174 O178 1.260 . S
O175 In169 2.266 . S
O175 C172 1.252 . S
O176 In169 2.326 . S
O176 C172 1.260 . S
O177 In169 2.266 . S
O177 C174 1.252 . S
O178 In169 2.326 . S
O178 C174 1.260 . S
C179 O170 1.240 . S
C179 O171 1.252 . S
O180 In169 2.294 . S
O180 C173 1.240 . S
O181 In169 2.326 . S
O181 C173 1.252 . S
In182 O183 2.294 . S
In182 O184 2.326 . S
In182 O188 2.266 . S
In182 O189 2.326 . S
In182 O190 2.266 . S
In182 O191 2.326 . S
In182 O193 2.294 . S
In182 O194 2.326 . S
O183 In182 2.294 . S
O183 C192 1.240 . S
O184 In182 2.326 . S
O184 C192 1.252 . S
C185 O188 1.252 . S
C185 O189 1.260 . S
C186 O193 1.240 . S
C186 O194 1.252 . S
C187 O190 1.252 . S
C187 O191 1.260 . S
O188 In182 2.266 . S
O188 C185 1.252 . S
O189 In182 2.326 . S
O189 C185 1.260 . S
O190 In182 2.266 . S
O190 C187 1.252 . S
O191 In182 2.326 . S
O191 C187 1.260 . S
C192 O183 1.240 . S
C192 O184 1.252 . S
O193 In182 2.294 . S
O193 C186 1.240 . S
O194 In182 2.326 . S
O194 C186 1.252 . S
In195 O196 2.294 . S
In195 O197 2.326 . S
In195 O201 2.266 . S
In195 O202 2.326 . S
In195 O203 2.266 . S
In195 O204 2.326 . S
In195 O206 2.294 . S
In195 O207 2.326 . S
O196 In195 2.294 . S
O196 C205 1.240 . S
O197 In195 2.326 . S
O197 C205 1.252 . S
C198 O201 1.252 . S
C198 O202 1.260 . S
C199 O206 1.240 . S
C199 O207 1.252 . S
C200 O203 1.252 . S
C200 O204 1.260 . S
O201 In195 2.266 . S
O201 C198 1.252 . S
O202 In195 2.326 . S
O202 C198 1.260 . S
O203 In195 2.266 . S
O203 C200 1.252 . S
O204 In195 2.326 . S
O204 C200 1.260 . S
C205 O196 1.240 . S
C205 O197 1.252 . S
O206 In195 2.294 . S
O206 C199 1.240 . S
O207 In195 2.326 . S
O207 C199 1.252 . S
In208 O209 2.294 . S
In208 O210 2.326 . S
In208 O214 2.266 . S
In208 O215 2.326 . S
In208 O216 2.266 . S
In208 O217 2.326 . S
In208 O219 2.294 . S
In208 O220 2.326 . S
O209 In208 2.294 . S
O209 C218 1.240 . S
O210 In208 2.326 . S
O210 C218 1.252 . S
C211 O214 1.252 . S
C211 O215 1.260 . S
C212 O219 1.240 . S
C212 O220 1.252 . S
C213 O216 1.252 . S
C213 O217 1.260 . S
O214 In208 2.266 . S
O214 C211 1.252 . S
O215 In208 2.326 . S
O215 C211 1.260 . S
O216 In208 2.266 . S
O216 C213 1.252 . S
O217 In208 2.326 . S
O217 C213 1.260 . S
C218 O209 1.240 . S
C218 O210 1.252 . S
O219 In208 2.294 . S
O219 C212 1.240 . S
O220 In208 2.326 . S
O220 C212 1.252 . S
In221 O222 2.294 . S
In221 O223 2.326 . S
In221 O227 2.266 . S
In221 O228 2.326 . S
In221 O229 2.266 . S
In221 O230 2.326 . S
In221 O232 2.294 . S
In221 O233 2.326 . S
O222 In221 2.294 . S
O222 C231 1.240 . S
O223 In221 2.326 . S
O223 C231 1.252 . S
C224 O227 1.252 . S
C224 O228 1.260 . S
C225 O232 1.240 . S
C225 O233 1.252 . S
C226 O229 1.252 . S
C226 O230 1.260 . S
O227 In221 2.266 . S
O227 C224 1.252 . S
O228 In221 2.326 . S
O228 C224 1.260 . S
O229 In221 2.266 . S
O229 C226 1.252 . S
O230 In221 2.326 . S
O230 C226 1.260 . S
C231 O222 1.240 . S
C231 O223 1.252 . S
O232 In221 2.294 . S
O232 C225 1.240 . S
O233 In221 2.326 . S
O233 C225 1.252 . S
In234 O235 2.294 . S
In234 O236 2.326 . S
In234 O240 2.266 . S
In234 O241 2.326 . S
In234 O242 2.266 . S
In234 O243 2.326 . S
In234 O245 2.294 . S
In234 O246 2.326 . S
O235 In234 2.294 . S
O235 C244 1.240 . S
O236 In234 2.326 . S
O236 C244 1.252 . S
C237 O240 1.252 . S
C237 O241 1.260 . S
C238 O245 1.240 . S
C238 O246 1.252 . S
C239 O242 1.252 . S
C239 O243 1.260 . S
O240 In234 2.266 . S
O240 C237 1.252 . S
O241 In234 2.326 . S
O241 C237 1.260 . S
O242 In234 2.266 . S
O242 C239 1.252 . S
O243 In234 2.326 . S
O243 C239 1.260 . S
C244 O235 1.240 . S
C244 O236 1.252 . S
O245 In234 2.294 . S
O245 C238 1.240 . S
O246 In234 2.326 . S
O246 C238 1.252 . S
In247 O248 2.294 . S
In247 O249 2.326 . S
In247 O253 2.266 . S
In247 O254 2.326 . S
In247 O255 2.266 . S
In247 O256 2.326 . S
In247 O258 2.294 . S
In247 O259 2.326 . S
O248 In247 2.294 . S
O248 C257 1.240 . S
O249 In247 2.326 . S
O249 C257 1.252 . S
C250 O253 1.252 . S
C250 O254 1.260 . S
C251 O258 1.240 . S
C251 O259 1.252 . S
C252 O255 1.252 . S
C252 O256 1.260 . S
O253 In247 2.266 . S
O253 C250 1.252 . S
O254 In247 2.326 . S
O254 C250 1.260 . S
O255 In247 2.266 . S
O255 C252 1.252 . S
O256 In247 2.326 . S
O256 C252 1.260 . S
C257 O248 1.240 . S
C257 O249 1.252 . S
O258 In247 2.294 . S
O258 C251 1.240 . S
O259 In247 2.326 . S
O259 C251 1.252 . S
In260 O261 2.294 . S
In260 O262 2.326 . S
In260 O266 2.266 . S
In260 O267 2.326 . S
In260 O268 2.266 . S
In260 O269 2.326 . S
In260 O271 2.294 . S
In260 O272 2.326 . S
O261 In260 2.294 . S
O261 C270 1.240 . S
O262 In260 2.326 . S
O262 C270 1.252 . S
C263 O266 1.252 . S
C263 O267 1.260 . S
C264 O271 1.240 . S
C264 O272 1.252 . S
C265 O268 1.252 . S
C265 O269 1.260 . S
O266 In260 2.266 . S
O266 C263 1.252 . S
O267 In260 2.326 . S
O267 C263 1.260 . S
O268 In260 2.266 . S
O268 C265 1.252 . S
O269 In260 2.326 . S
O269 C265 1.260 . S
C270 O261 1.240 . S
C270 O262 1.252 . S
O271 In260 2.294 . S
O271 C264 1.240 . S
O272 In260 2.326 . S
O272 C264 1.252 . S
In273 O274 2.294 . S
In273 O275 2.326 . S
In273 O279 2.266 . S
In273 O280 2.326 . S
In273 O281 2.266 . S
In273 O282 2.326 . S
In273 O284 2.294 . S
In273 O285 2.326 . S
O274 In273 2.294 . S
O274 C283 1.240 . S
O275 In273 2.326 . S
O275 C283 1.252 . S
C276 O279 1.252 . S
C276 O280 1.260 . S
C277 O284 1.240 . S
C277 O285 1.252 . S
C278 O281 1.252 . S
C278 O282 1.260 . S
O279 In273 2.266 . S
O279 C276 1.252 . S
O280 In273 2.326 . S
O280 C276 1.260 . S
O281 In273 2.266 . S
O281 C278 1.252 . S
O282 In273 2.326 . S
O282 C278 1.260 . S
C283 O274 1.240 . S
C283 O275 1.252 . S
O284 In273 2.294 . S
O284 C277 1.240 . S
O285 In273 2.326 . S
O285 C277 1.252 . S
In286 O287 2.294 . S
In286 O288 2.326 . S
In286 O292 2.266 . S
In286 O293 2.326 . S
In286 O294 2.266 . S
In286 O295 2.326 . S
In286 O297 2.294 . S
In286 O298 2.326 . S
O287 In286 2.294 . S
O287 C296 1.240 . S
O288 In286 2.326 . S
O288 C296 1.252 . S
C289 O292 1.252 . S
C289 O293 1.260 . S
C290 O297 1.240 . S
C290 O298 1.252 . S
C291 O294 1.252 . S
C291 O295 1.260 . S
O292 In286 2.266 . S
O292 C289 1.252 . S
O293 In286 2.326 . S
O293 C289 1.260 . S
O294 In286 2.266 . S
O294 C291 1.252 . S
O295 In286 2.326 . S
O295 C291 1.260 . S
C296 O287 1.240 . S
C296 O288 1.252 . S
O297 In286 2.294 . S
O297 C290 1.240 . S
O298 In286 2.326 . S
O298 C290 1.252 . S
In299 O300 2.294 . S
In299 O301 2.326 . S
In299 O305 2.266 . S
In299 O306 2.326 . S
In299 O307 2.266 . S
In299 O308 2.326 . S
In299 O310 2.294 . S
In299 O311 2.326 . S
O300 In299 2.294 . S
O300 C309 1.240 . S
O301 In299 2.326 . S
O301 C309 1.252 . S
C302 O305 1.252 . S
C302 O306 1.260 . S
C303 O310 1.240 . S
C303 O311 1.252 . S
C304 O307 1.252 . S
C304 O308 1.260 . S
O305 In299 2.266 . S
O305 C302 1.252 . S
O306 In299 2.326 . S
O306 C302 1.260 . S
O307 In299 2.266 . S
O307 C304 1.252 . S
O308 In299 2.326 . S
O308 C304 1.260 . S
C309 O300 1.240 . S
C309 O301 1.252 . S
O310 In299 2.294 . S
O310 C303 1.240 . S
O311 In299 2.326 . S
O311 C303 1.252 . S
In312 O313 2.294 . S
In312 O314 2.326 . S
In312 O318 2.266 . S
In312 O319 2.326 . S
In312 O320 2.266 . S
In312 O321 2.326 . S
In312 O323 2.294 . S
In312 O324 2.326 . S
O313 In312 2.294 . S
O313 C322 1.240 . S
O314 In312 2.326 . S
O314 C322 1.252 . S
C315 O318 1.252 . S
C315 O319 1.260 . S
C316 O323 1.240 . S
C316 O324 1.252 . S
C317 O320 1.252 . S
C317 O321 1.260 . S
O318 In312 2.266 . S
O318 C315 1.252 . S
O319 In312 2.326 . S
O319 C315 1.260 . S
O320 In312 2.266 . S
O320 C317 1.252 . S
O321 In312 2.326 . S
O321 C317 1.260 . S
C322 O313 1.240 . S
C322 O314 1.252 . S
O323 In312 2.294 . S
O323 C316 1.240 . S
O324 In312 2.326 . S
O324 C316 1.252 . S
In325 O326 2.294 . S
In325 O327 2.326 . S
In325 O331 2.266 . S
In325 O332 2.326 . S
In325 O333 2.266 . S
In325 O334 2.326 . S
In325 O336 2.294 . S
In325 O337 2.326 . S
O326 In325 2.294 . S
O326 C335 1.240 . S
O327 In325 2.326 . S
O327 C335 1.252 . S
C328 O331 1.252 . S
C328 O332 1.260 . S
C329 O336 1.240 . S
C329 O337 1.252 . S
C330 O333 1.252 . S
C330 O334 1.260 . S
O331 In325 2.266 . S
O331 C328 1.252 . S
O332 In325 2.326 . S
O332 C328 1.260 . S
O333 In325 2.266 . S
O333 C330 1.252 . S
O334 In325 2.326 . S
O334 C330 1.260 . S
C335 O326 1.240 . S
C335 O327 1.252 . S
O336 In325 2.294 . S
O336 C329 1.240 . S
O337 In325 2.326 . S
O337 C329 1.252 . S
In338 O339 2.294 . S
In338 O340 2.326 . S
In338 O344 2.266 . S
In338 O345 2.326 . S
In338 O346 2.266 . S
In338 O347 2.326 . S
In338 O349 2.294 . S
In338 O350 2.326 . S
O339 In338 2.294 . S
O339 C348 1.240 . S
O340 In338 2.326 . S
O340 C348 1.252 . S
C341 O344 1.252 . S
C341 O345 1.260 . S
C342 O349 1.240 . S
C342 O350 1.252 . S
C343 O346 1.252 . S
C343 O347 1.260 . S
O344 In338 2.266 . S
O344 C341 1.252 . S
O345 In338 2.326 . S
O345 C341 1.260 . S
O346 In338 2.266 . S
O346 C343 1.252 . S
O347 In338 2.326 . S
O347 C343 1.260 . S
C348 O339 1.240 . S
C348 O340 1.252 . S
O349 In338 2.294 . S
O349 C342 1.240 . S
O350 In338 2.326 . S
O350 C342 1.252 . S
In351 O352 2.294 . S
In351 O353 2.326 . S
In351 O357 2.266 . S
In351 O358 2.326 . S
In351 O359 2.266 . S
In351 O360 2.326 . S
In351 O362 2.294 . S
In351 O363 2.326 . S
O352 In351 2.294 . S
O352 C361 1.240 . S
O353 In351 2.326 . S
O353 C361 1.252 . S
C354 O357 1.252 . S
C354 O358 1.260 . S
C355 O362 1.240 . S
C355 O363 1.252 . S
C356 O359 1.252 . S
C356 O360 1.260 . S
O357 In351 2.266 . S
O357 C354 1.252 . S
O358 In351 2.326 . S
O358 C354 1.260 . S
O359 In351 2.266 . S
O359 C356 1.252 . S
O360 In351 2.326 . S
O360 C356 1.260 . S
C361 O352 1.240 . S
C361 O353 1.252 . S
O362 In351 2.294 . S
O362 C355 1.240 . S
O363 In351 2.326 . S
O363 C355 1.252 . S
In364 O365 2.294 . S
In364 O366 2.326 . S
In364 O370 2.266 . S
In364 O371 2.326 . S
In364 O372 2.266 . S
In364 O373 2.326 . S
In364 O375 2.294 . S
In364 O376 2.326 . S
O365 In364 2.294 . S
O365 C374 1.240 . S
O366 In364 2.326 . S
O366 C374 1.252 . S
C367 O370 1.252 . S
C367 O371 1.260 . S
C368 O375 1.240 . S
C368 O376 1.252 . S
C369 O372 1.252 . S
C369 O373 1.260 . S
O370 In364 2.266 . S
O370 C367 1.252 . S
O371 In364 2.326 . S
O371 C367 1.260 . S
O372 In364 2.266 . S
O372 C369 1.252 . S
O373 In364 2.326 . S
O373 C369 1.260 . S
C374 O365 1.240 . S
C374 O366 1.252 . S
O375 In364 2.294 . S
O375 C368 1.240 . S
O376 In364 2.326 . S
O376 C368 1.252 . S
In377 O378 2.294 . S
In377 O379 2.326 . S
In377 O383 2.266 . S
In377 O384 2.326 . S
In377 O385 2.266 . S
In377 O386 2.326 . S
In377 O388 2.294 . S
In377 O389 2.326 . S
O378 In377 2.294 . S
O378 C387 1.240 . S
O379 In377 2.326 . S
O379 C387 1.252 . S
C380 O383 1.252 . S
C380 O384 1.260 . S
C381 O388 1.240 . S
C381 O389 1.252 . S
C382 O385 1.252 . S
C382 O386 1.260 . S
O383 In377 2.266 . S
O383 C380 1.252 . S
O384 In377 2.326 . S
O384 C380 1.260 . S
O385 In377 2.266 . S
O385 C382 1.252 . S
O386 In377 2.326 . S
O386 C382 1.260 . S
C387 O378 1.240 . S
C387 O379 1.252 . S
O388 In377 2.294 . S
O388 C381 1.240 . S
O389 In377 2.326 . S
O389 C381 1.252 . S
In390 O391 2.294 . S
In390 O392 2.326 . S
In390 O396 2.266 . S
In390 O397 2.326 . S
In390 O398 2.266 . S
In390 O399 2.326 . S
In390 O401 2.294 . S
In390 O402 2.326 . S
O391 In390 2.294 . S
O391 C400 1.240 . S
O392 In390 2.326 . S
O392 C400 1.252 . S
C393 O396 1.252 . S
C393 O397 1.260 . S
C394 O401 1.240 . S
C394 O402 1.252 . S
C395 O398 1.252 . S
C395 O399 1.260 . S
O396 In390 2.266 . S
O396 C393 1.252 . S
O397 In390 2.326 . S
O397 C393 1.260 . S
O398 In390 2.266 . S
O398 C395 1.252 . S
O399 In390 2.326 . S
O399 C395 1.260 . S
C400 O391 1.240 . S
C400 O392 1.252 . S
O401 In390 2.294 . S
O401 C394 1.240 . S
O402 In390 2.326 . S
O402 C394 1.252 . S
In403 O404 2.294 . S
In403 O405 2.326 . S
In403 O409 2.266 . S
In403 O410 2.326 . S
In403 O411 2.266 . S
In403 O412 2.326 . S
In403 O414 2.294 . S
In403 O415 2.326 . S
O404 In403 2.294 . S
O404 C413 1.240 . S
O405 In403 2.326 . S
O405 C413 1.252 . S
C406 O409 1.252 . S
C406 O410 1.260 . S
C407 O414 1.240 . S
C407 O415 1.252 . S
C408 O411 1.252 . S
C408 O412 1.260 . S
O409 In403 2.266 . S
O409 C406 1.252 . S
O410 In403 2.326 . S
O410 C406 1.260 . S
O411 In403 2.266 . S
O411 C408 1.252 . S
O412 In403 2.326 . S
O412 C408 1.260 . S
C413 O404 1.240 . S
C413 O405 1.252 . S
O414 In403 2.294 . S
O414 C407 1.240 . S
O415 In403 2.326 . S
O415 C407 1.252 . S
In416 O417 2.294 . S
In416 O418 2.326 . S
In416 O422 2.266 . S
In416 O423 2.326 . S
In416 O424 2.266 . S
In416 O425 2.326 . S
In416 O427 2.294 . S
In416 O428 2.326 . S
O417 In416 2.294 . S
O417 C426 1.240 . S
O418 In416 2.326 . S
O418 C426 1.252 . S
C419 O422 1.252 . S
C419 O423 1.260 . S
C420 O427 1.240 . S
C420 O428 1.252 . S
C421 O424 1.252 . S
C421 O425 1.260 . S
O422 In416 2.266 . S
O422 C419 1.252 . S
O423 In416 2.326 . S
O423 C419 1.260 . S
O424 In416 2.266 . S
O424 C421 1.252 . S
O425 In416 2.326 . S
O425 C421 1.260 . S
C426 O417 1.240 . S
C426 O418 1.252 . S
O427 In416 2.294 . S
O427 C420 1.240 . S
O428 In416 2.326 . S
O428 C420 1.252 . S
In429 O430 2.294 . S
In429 O431 2.326 . S
In429 O435 2.266 . S
In429 O436 2.326 . S
In429 O437 2.266 . S
In429 O438 2.326 . S
In429 O440 2.294 . S
In429 O441 2.326 . S
O430 In429 2.294 . S
O430 C439 1.240 . S
O431 In429 2.326 . S
O431 C439 1.252 . S
C432 O435 1.252 . S
C432 O436 1.260 . S
C433 O440 1.240 . S
C433 O441 1.252 . S
C434 O437 1.252 . S
C434 O438 1.260 . S
O435 In429 2.266 . S
O435 C432 1.252 . S
O436 In429 2.326 . S
O436 C432 1.260 . S
O437 In429 2.266 . S
O437 C434 1.252 . S
O438 In429 2.326 . S
O438 C434 1.260 . S
C439 O430 1.240 . S
C439 O431 1.252 . S
O440 In429 2.294 . S
O440 C433 1.240 . S
O441 In429 2.326 . S
O441 C433 1.252 . S
In442 O443 2.294 . S
In442 O444 2.326 . S
In442 O448 2.266 . S
In442 O449 2.326 . S
In442 O450 2.266 . S
In442 O451 2.326 . S
In442 O453 2.294 . S
In442 O454 2.326 . S
O443 In442 2.294 . S
O443 C452 1.240 . S
O444 In442 2.326 . S
O444 C452 1.252 . S
C445 O448 1.252 . S
C445 O449 1.260 . S
C446 O453 1.240 . S
C446 O454 1.252 . S
C447 O450 1.252 . S
C447 O451 1.260 . S
O448 In442 2.266 . S
O448 C445 1.252 . S
O449 In442 2.326 . S
O449 C445 1.260 . S
O450 In442 2.266 . S
O450 C447 1.252 . S
O451 In442 2.326 . S
O451 C447 1.260 . S
C452 O443 1.240 . S
C452 O444 1.252 . S
O453 In442 2.294 . S
O453 C446 1.240 . S
O454 In442 2.326 . S
O454 C446 1.252 . S
In455 O456 2.294 . S
In455 O457 2.326 . S
In455 O461 2.266 . S
In455 O462 2.326 . S
In455 O463 2.266 . S
In455 O464 2.326 . S
In455 O466 2.294 . S
In455 O467 2.326 . S
O456 In455 2.294 . S
O456 C465 1.240 . S
O457 In455 2.326 . S
O457 C465 1.252 . S
C458 O461 1.252 . S
C458 O462 1.260 . S
C459 O466 1.240 . S
C459 O467 1.252 . S
C460 O463 1.252 . S
C460 O464 1.260 . S
O461 In455 2.266 . S
O461 C458 1.252 . S
O462 In455 2.326 . S
O462 C458 1.260 . S
O463 In455 2.266 . S
O463 C460 1.252 . S
O464 In455 2.326 . S
O464 C460 1.260 . S
C465 O456 1.240 . S
C465 O457 1.252 . S
O466 In455 2.294 . S
O466 C459 1.240 . S
O467 In455 2.326 . S
O467 C459 1.252 . S
In468 O469 2.294 . S
In468 O470 2.326 . S
In468 O474 2.266 . S
In468 O475 2.326 . S
In468 O476 2.266 . S
In468 O477 2.326 . S
In468 O479 2.294 . S
In468 O480 2.326 . S
O469 In468 2.294 . S
O469 C478 1.240 . S
O470 In468 2.326 . S
O470 C478 1.252 . S
C471 O474 1.252 . S
C471 O475 1.260 . S
C472 O479 1.240 . S
C472 O480 1.252 . S
C473 O476 1.252 . S
C473 O477 1.260 . S
O474 In468 2.266 . S
O474 C471 1.252 . S
O475 In468 2.326 . S
O475 C471 1.260 . S
O476 In468 2.266 . S
O476 C473 1.252 . S
O477 In468 2.326 . S
O477 C473 1.260 . S
C478 O469 1.240 . S
C478 O470 1.252 . S
O479 In468 2.294 . S
O479 C472 1.240 . S
O480 In468 2.326 . S
O480 C472 1.252 . S
In481 O482 2.294 . S
In481 O483 2.326 . S
In481 O487 2.266 . S
In481 O488 2.326 . S
In481 O489 2.266 . S
In481 O490 2.326 . S
In481 O492 2.294 . S
In481 O493 2.326 . S
O482 In481 2.294 . S
O482 C491 1.240 . S
O483 In481 2.326 . S
O483 C491 1.252 . S
C484 O487 1.252 . S
C484 O488 1.260 . S
C485 O492 1.240 . S
C485 O493 1.252 . S
C486 O489 1.252 . S
C486 O490 1.260 . S
O487 In481 2.266 . S
O487 C484 1.252 . S
O488 In481 2.326 . S
O488 C484 1.260 . S
O489 In481 2.266 . S
O489 C486 1.252 . S
O490 In481 2.326 . S
O490 C486 1.260 . S
C491 O482 1.240 . S
C491 O483 1.252 . S
O492 In481 2.294 . S
O492 C485 1.240 . S
O493 In481 2.326 . S
O493 C485 1.252 . S
In494 O495 2.294 . S
In494 O496 2.326 . S
In494 O500 2.266 . S
In494 O501 2.326 . S
In494 O502 2.266 . S
In494 O503 2.326 . S
In494 O505 2.294 . S
In494 O506 2.326 . S
O495 In494 2.294 . S
O495 C504 1.240 . S
O496 In494 2.326 . S
O496 C504 1.252 . S
C497 O500 1.252 . S
C497 O501 1.260 . S
C498 O505 1.240 . S
C498 O506 1.252 . S
C499 O502 1.252 . S
C499 O503 1.260 . S
O500 In494 2.266 . S
O500 C497 1.252 . S
O501 In494 2.326 . S
O501 C497 1.260 . S
O502 In494 2.266 . S
O502 C499 1.252 . S
O503 In494 2.326 . S
O503 C499 1.260 . S
C504 O495 1.240 . S
C504 O496 1.252 . S
O505 In494 2.294 . S
O505 C498 1.240 . S
O506 In494 2.326 . S
O506 C498 1.252 . S
In507 O508 2.294 . S
In507 O509 2.326 . S
In507 O513 2.266 . S
In507 O514 2.326 . S
In507 O515 2.266 . S
In507 O516 2.326 . S
In507 O518 2.294 . S
In507 O519 2.326 . S
O508 In507 2.294 . S
O508 C517 1.240 . S
O509 In507 2.326 . S
O509 C517 1.252 . S
C510 O513 1.252 . S
C510 O514 1.260 . S
C511 O518 1.240 . S
C511 O519 1.252 . S
C512 O515 1.252 . S
C512 O516 1.260 . S
O513 In507 2.266 . S
O513 C510 1.252 . S
O514 In507 2.326 . S
O514 C510 1.260 . S
O515 In507 2.266 . S
O515 C512 1.252 . S
O516 In507 2.326 . S
O516 C512 1.260 . S
C517 O508 1.240 . S
C517 O509 1.252 . S
O518 In507 2.294 . S
O518 C511 1.240 . S
O519 In507 2.326 . S
O519 C511 1.252 . S
In520 O521 2.294 . S
In520 O522 2.326 . S
In520 O526 2.266 . S
In520 O527 2.326 . S
In520 O528 2.266 . S
In520 O529 2.326 . S
In520 O531 2.294 . S
In520 O532 2.326 . S
O521 In520 2.294 . S
O521 C530 1.240 . S
O522 In520 2.326 . S
O522 C530 1.252 . S
C523 O526 1.252 . S
C523 O527 1.260 . S
C524 O531 1.240 . S
C524 O532 1.252 . S
C525 O528 1.252 . S
C525 O529 1.260 . S
O526 In520 2.266 . S
O526 C523 1.252 . S
O527 In520 2.326 . S
O527 C523 1.260 . S
O528 In520 2.266 . S
O528 C525 1.252 . S
O529 In520 2.326 . S
O529 C525 1.260 . S
C530 O521 1.240 . S
C530 O522 1.252 . S
O531 In520 2.294 . S
O531 C524 1.240 . S
O532 In520 2.326 . S
O532 C524 1.252 . S
In533 O534 2.294 . S
In533 O535 2.326 . S
In533 O539 2.266 . S
In533 O540 2.326 . S
In533 O541 2.266 . S
In533 O542 2.326 . S
In533 O544 2.294 . S
In533 O545 2.326 . S
O534 In533 2.294 . S
O534 C543 1.240 . S
O535 In533 2.326 . S
O535 C543 1.252 . S
C536 O539 1.252 . S
C536 O540 1.260 . S
C537 O544 1.240 . S
C537 O545 1.252 . S
C538 O541 1.252 . S
C538 O542 1.260 . S
O539 In533 2.266 . S
O539 C536 1.252 . S
O540 In533 2.326 . S
O540 C536 1.260 . S
O541 In533 2.266 . S
O541 C538 1.252 . S
O542 In533 2.326 . S
O542 C538 1.260 . S
C543 O534 1.240 . S
C543 O535 1.252 . S
O544 In533 2.294 . S
O544 C537 1.240 . S
O545 In533 2.326 . S
O545 C537 1.252 . S
In546 O547 2.294 . S
In546 O548 2.326 . S
In546 O552 2.266 . S
In546 O553 2.326 . S
In546 O554 2.266 . S
In546 O555 2.326 . S
In546 O557 2.294 . S
In546 O558 2.326 . S
O547 In546 2.294 . S
O547 C556 1.240 . S
O548 In546 2.326 . S
O548 C556 1.252 . S
C549 O552 1.252 . S
C549 O553 1.260 . S
C550 O557 1.240 . S
C550 O558 1.252 . S
C551 O554 1.252 . S
C551 O555 1.260 . S
O552 In546 2.266 . S
O552 C549 1.252 . S
O553 In546 2.326 . S
O553 C549 1.260 . S
O554 In546 2.266 . S
O554 C551 1.252 . S
O555 In546 2.326 . S
O555 C551 1.260 . S
C556 O547 1.240 . S
C556 O548 1.252 . S
O557 In546 2.294 . S
O557 C550 1.240 . S
O558 In546 2.326 . S
O558 C550 1.252 . S
In559 O560 2.294 . S
In559 O561 2.326 . S
In559 O565 2.266 . S
In559 O566 2.326 . S
In559 O567 2.266 . S
In559 O568 2.326 . S
In559 O570 2.294 . S
In559 O571 2.326 . S
O560 In559 2.294 . S
O560 C569 1.240 . S
O561 In559 2.326 . S
O561 C569 1.252 . S
C562 O565 1.252 . S
C562 O566 1.260 . S
C563 O570 1.240 . S
C563 O571 1.252 . S
C564 O567 1.252 . S
C564 O568 1.260 . S
O565 In559 2.266 . S
O565 C562 1.252 . S
O566 In559 2.326 . S
O566 C562 1.260 . S
O567 In559 2.266 . S
O567 C564 1.252 . S
O568 In559 2.326 . S
O568 C564 1.260 . S
C569 O560 1.240 . S
C569 O561 1.252 . S
O570 In559 2.294 . S
O570 C563 1.240 . S
O571 In559 2.326 . S
O571 C563 1.252 . S
In572 O573 2.294 . S
In572 O574 2.326 . S
In572 O578 2.266 . S
In572 O579 2.326 . S
In572 O580 2.266 . S
In572 O581 2.326 . S
In572 O583 2.294 . S
In572 O584 2.326 . S
O573 In572 2.294 . S
O573 C582 1.240 . S
O574 In572 2.326 . S
O574 C582 1.252 . S
C575 O578 1.252 . S
C575 O579 1.260 . S
C576 O583 1.240 . S
C576 O584 1.252 . S
C577 O580 1.252 . S
C577 O581 1.260 . S
O578 In572 2.266 . S
O578 C575 1.252 . S
O579 In572 2.326 . S
O579 C575 1.260 . S
O580 In572 2.266 . S
O580 C577 1.252 . S
O581 In572 2.326 . S
O581 C577 1.260 . S
C582 O573 1.240 . S
C582 O574 1.252 . S
O583 In572 2.294 . S
O583 C576 1.240 . S
O584 In572 2.326 . S
O584 C576 1.252 . S
In585 O586 2.294 . S
In585 O587 2.326 . S
In585 O591 2.266 . S
In585 O592 2.326 . S
In585 O593 2.266 . S
In585 O594 2.326 . S
In585 O596 2.294 . S
In585 O597 2.326 . S
O586 In585 2.294 . S
O586 C595 1.240 . S
O587 In585 2.326 . S
O587 C595 1.252 . S
C588 O591 1.252 . S
C588 O592 1.260 . S
C589 O596 1.240 . S
C589 O597 1.252 . S
C590 O593 1.252 . S
C590 O594 1.260 . S
O591 In585 2.266 . S
O591 C588 1.252 . S
O592 In585 2.326 . S
O592 C588 1.260 . S
O593 In585 2.266 . S
O593 C590 1.252 . S
O594 In585 2.326 . S
O594 C590 1.260 . S
C595 O586 1.240 . S
C595 O587 1.252 . S
O596 In585 2.294 . S
O596 C589 1.240 . S
O597 In585 2.326 . S
O597 C589 1.252 . S
In598 O599 2.294 . S
In598 O600 2.326 . S
In598 O604 2.266 . S
In598 O605 2.326 . S
In598 O606 2.266 . S
In598 O607 2.326 . S
In598 O609 2.294 . S
In598 O610 2.326 . S
O599 In598 2.294 . S
O599 C608 1.240 . S
O600 In598 2.326 . S
O600 C608 1.252 . S
C601 O604 1.252 . S
C601 O605 1.260 . S
C602 O609 1.240 . S
C602 O610 1.252 . S
C603 O606 1.252 . S
C603 O607 1.260 . S
O604 In598 2.266 . S
O604 C601 1.252 . S
O605 In598 2.326 . S
O605 C601 1.260 . S
O606 In598 2.266 . S
O606 C603 1.252 . S
O607 In598 2.326 . S
O607 C603 1.260 . S
C608 O599 1.240 . S
C608 O600 1.252 . S
O609 In598 2.294 . S
O609 C602 1.240 . S
O610 In598 2.326 . S
O610 C602 1.252 . S
In611 O612 2.294 . S
In611 O613 2.326 . S
In611 O617 2.266 . S
In611 O618 2.326 . S
In611 O619 2.266 . S
In611 O620 2.326 . S
In611 O622 2.294 . S
In611 O623 2.326 . S
O612 In611 2.294 . S
O612 C621 1.240 . S
O613 In611 2.326 . S
O613 C621 1.252 . S
C614 O617 1.252 . S
C614 O618 1.260 . S
C615 O622 1.240 . S
C615 O623 1.252 . S
C616 O619 1.252 . S
C616 O620 1.260 . S
O617 In611 2.266 . S
O617 C614 1.252 . S
O618 In611 2.326 . S
O618 C614 1.260 . S
O619 In611 2.266 . S
O619 C616 1.252 . S
O620 In611 2.326 . S
O620 C616 1.260 . S
C621 O612 1.240 . S
C621 O613 1.252 . S
O622 In611 2.294 . S
O622 C615 1.240 . S
O623 In611 2.326 . S
O623 C615 1.252 . S
In624 O625 2.294 . S
In624 O626 2.326 . S
In624 O630 2.266 . S
In624 O631 2.326 . S
In624 O632 2.266 . S
In624 O633 2.326 . S
In624 O635 2.294 . S
In624 O636 2.326 . S
O625 In624 2.294 . S
O625 C634 1.240 . S
O626 In624 2.326 . S
O626 C634 1.252 . S
C627 O630 1.252 . S
C627 O631 1.260 . S
C628 O635 1.240 . S
C628 O636 1.252 . S
C629 O632 1.252 . S
C629 O633 1.260 . S
O630 In624 2.266 . S
O630 C627 1.252 . S
O631 In624 2.326 . S
O631 C627 1.260 . S
O632 In624 2.266 . S
O632 C629 1.252 . S
O633 In624 2.326 . S
O633 C629 1.260 . S
C634 O625 1.240 . S
C634 O626 1.252 . S
O635 In624 2.294 . S
O635 C628 1.240 . S
O636 In624 2.326 . S
O636 C628 1.252 . S
In637 O638 2.294 . S
In637 O639 2.326 . S
In637 O643 2.266 . S
In637 O644 2.326 . S
In637 O645 2.266 . S
In637 O646 2.326 . S
In637 O648 2.294 . S
In637 O649 2.326 . S
O638 In637 2.294 . S
O638 C647 1.240 . S
O639 In637 2.326 . S
O639 C647 1.252 . S
C640 O643 1.252 . S
C640 O644 1.260 . S
C641 O648 1.240 . S
C641 O649 1.252 . S
C642 O645 1.252 . S
C642 O646 1.260 . S
O643 In637 2.266 . S
O643 C640 1.252 . S
O644 In637 2.326 . S
O644 C640 1.260 . S
O645 In637 2.266 . S
O645 C642 1.252 . S
O646 In637 2.326 . S
O646 C642 1.260 . S
C647 O638 1.240 . S
C647 O639 1.252 . S
O648 In637 2.294 . S
O648 C641 1.240 . S
O649 In637 2.326 . S
O649 C641 1.252 . S
In650 O651 2.294 . S
In650 O652 2.326 . S
In650 O656 2.266 . S
In650 O657 2.326 . S
In650 O658 2.266 . S
In650 O659 2.326 . S
In650 O661 2.294 . S
In650 O662 2.326 . S
O651 In650 2.294 . S
O651 C660 1.240 . S
O652 In650 2.326 . S
O652 C660 1.252 . S
C653 O656 1.252 . S
C653 O657 1.260 . S
C654 O661 1.240 . S
C654 O662 1.252 . S
C655 O658 1.252 . S
C655 O659 1.260 . S
O656 In650 2.266 . S
O656 C653 1.252 . S
O657 In650 2.326 . S
O657 C653 1.260 . S
O658 In650 2.266 . S
O658 C655 1.252 . S
O659 In650 2.326 . S
O659 C655 1.260 . S
C660 O651 1.240 . S
C660 O652 1.252 . S
O661 In650 2.294 . S
O661 C654 1.240 . S
O662 In650 2.326 . S
O662 C654 1.252 . S
In663 O664 2.294 . S
In663 O665 2.326 . S
In663 O669 2.266 . S
In663 O670 2.326 . S
In663 O671 2.266 . S
In663 O672 2.326 . S
In663 O674 2.294 . S
In663 O675 2.326 . S
O664 In663 2.294 . S
O664 C673 1.240 . S
O665 In663 2.326 . S
O665 C673 1.252 . S
C666 O669 1.252 . S
C666 O670 1.260 . S
C667 O674 1.240 . S
C667 O675 1.252 . S
C668 O671 1.252 . S
C668 O672 1.260 . S
O669 In663 2.266 . S
O669 C666 1.252 . S
O670 In663 2.326 . S
O670 C666 1.260 . S
O671 In663 2.266 . S
O671 C668 1.252 . S
O672 In663 2.326 . S
O672 C668 1.260 . S
C673 O664 1.240 . S
C673 O665 1.252 . S
O674 In663 2.294 . S
O674 C667 1.240 . S
O675 In663 2.326 . S
O675 C667 1.252 . S
In676 O677 2.294 . S
In676 O678 2.326 . S
In676 O682 2.266 . S
In676 O683 2.326 . S
In676 O684 2.266 . S
In676 O685 2.326 . S
In676 O687 2.294 . S
In676 O688 2.326 . S
O677 In676 2.294 . S
O677 C686 1.240 . S
O678 In676 2.326 . S
O678 C686 1.252 . S
C679 O682 1.252 . S
C679 O683 1.260 . S
C680 O687 1.240 . S
C680 O688 1.252 . S
C681 O684 1.252 . S
C681 O685 1.260 . S
O682 In676 2.266 . S
O682 C679 1.252 . S
O683 In676 2.326 . S
O683 C679 1.260 . S
O684 In676 2.266 . S
O684 C681 1.252 . S
O685 In676 2.326 . S
O685 C681 1.260 . S
C686 O677 1.240 . S
C686 O678 1.252 . S
O687 In676 2.294 . S
O687 C680 1.240 . S
O688 In676 2.326 . S
O688 C680 1.252 . S
In689 O690 2.294 . S
In689 O691 2.326 . S
In689 O695 2.266 . S
In689 O696 2.326 . S
In689 O697 2.266 . S
In689 O698 2.326 . S
In689 O700 2.294 . S
In689 O701 2.326 . S
O690 In689 2.294 . S
O690 C699 1.240 . S
O691 In689 2.326 . S
O691 C699 1.252 . S
C692 O695 1.252 . S
C692 O696 1.260 . S
C693 O700 1.240 . S
C693 O701 1.252 . S
C694 O697 1.252 . S
C694 O698 1.260 . S
O695 In689 2.266 . S
O695 C692 1.252 . S
O696 In689 2.326 . S
O696 C692 1.260 . S
O697 In689 2.266 . S
O697 C694 1.252 . S
O698 In689 2.326 . S
O698 C694 1.260 . S
C699 O690 1.240 . S
C699 O691 1.252 . S
O700 In689 2.294 . S
O700 C693 1.240 . S
O701 In689 2.326 . S
O701 C693 1.252 . S
In702 O703 2.294 . S
In702 O704 2.326 . S
In702 O708 2.266 . S
In702 O709 2.326 . S
In702 O710 2.266 . S
In702 O711 2.326 . S
In702 O713 2.294 . S
In702 O714 2.326 . S
O703 In702 2.294 . S
O703 C712 1.240 . S
O704 In702 2.326 . S
O704 C712 1.252 . S
C705 O708 1.252 . S
C705 O709 1.260 . S
C706 O713 1.240 . S
C706 O714 1.252 . S
C707 O710 1.252 . S
C707 O711 1.260 . S
O708 In702 2.266 . S
O708 C705 1.252 . S
O709 In702 2.326 . S
O709 C705 1.260 . S
O710 In702 2.266 . S
O710 C707 1.252 . S
O711 In702 2.326 . S
O711 C707 1.260 . S
C712 O703 1.240 . S
C712 O704 1.252 . S
O713 In702 2.294 . S
O713 C706 1.240 . S
O714 In702 2.326 . S
O714 C706 1.252 . S
In715 O716 2.294 . S
In715 O717 2.326 . S
In715 O721 2.266 . S
In715 O722 2.326 . S
In715 O723 2.266 . S
In715 O724 2.326 . S
In715 O726 2.294 . S
In715 O727 2.326 . S
O716 In715 2.294 . S
O716 C725 1.240 . S
O717 In715 2.326 . S
O717 C725 1.252 . S
C718 O721 1.252 . S
C718 O722 1.260 . S
C719 O726 1.240 . S
C719 O727 1.252 . S
C720 O723 1.252 . S
C720 O724 1.260 . S
O721 In715 2.266 . S
O721 C718 1.252 . S
O722 In715 2.326 . S
O722 C718 1.260 . S
O723 In715 2.266 . S
O723 C720 1.252 . S
O724 In715 2.326 . S
O724 C720 1.260 . S
C725 O716 1.240 . S
C725 O717 1.252 . S
O726 In715 2.294 . S
O726 C719 1.240 . S
O727 In715 2.326 . S
O727 C719 1.252 . S
In728 O729 2.294 . S
In728 O730 2.326 . S
In728 O734 2.266 . S
In728 O735 2.326 . S
In728 O736 2.266 . S
In728 O737 2.326 . S
In728 O739 2.294 . S
In728 O740 2.326 . S
O729 In728 2.294 . S
O729 C738 1.240 . S
O730 In728 2.326 . S
O730 C738 1.252 . S
C731 O734 1.252 . S
C731 O735 1.260 . S
C732 O739 1.240 . S
C732 O740 1.252 . S
C733 O736 1.252 . S
C733 O737 1.260 . S
O734 In728 2.266 . S
O734 C731 1.252 . S
O735 In728 2.326 . S
O735 C731 1.260 . S
O736 In728 2.266 . S
O736 C733 1.252 . S
O737 In728 2.326 . S
O737 C733 1.260 . S
C738 O729 1.240 . S
C738 O730 1.252 . S
O739 In728 2.294 . S
O739 C732 1.240 . S
O740 In728 2.326 . S
O740 C732 1.252 . S
In741 O742 2.294 . S
In741 O743 2.326 . S
In741 O747 2.266 . S
In741 O748 2.326 . S
In741 O749 2.266 . S
In741 O750 2.326 . S
In741 O752 2.294 . S
In741 O753 2.326 . S
O742 In741 2.294 . S
O742 C751 1.240 . S
O743 In741 2.326 . S
O743 C751 1.252 . S
C744 O747 1.252 . S
C744 O748 1.260 . S
C745 O752 1.240 . S
C745 O753 1.252 . S
C746 O749 1.252 . S
C746 O750 1.260 . S
O747 In741 2.266 . S
O747 C744 1.252 . S
O748 In741 2.326 . S
O748 C744 1.260 . S
O749 In741 2.266 . S
O749 C746 1.252 . S
O750 In741 2.326 . S
O750 C746 1.260 . S
C751 O742 1.240 . S
C751 O743 1.252 . S
O752 In741 2.294 . S
O752 C745 1.240 . S
O753 In741 2.326 . S
O753 C745 1.252 . S
In754 O755 2.294 . S
In754 O756 2.326 . S
In754 O760 2.266 . S
In754 O761 2.326 . S
In754 O762 2.266 . S
In754 O763 2.326 . S
In754 O765 2.294 . S
In754 O766 2.326 . S
O755 In754 2.294 . S
O755 C764 1.240 . S
O756 In754 2.326 . S
O756 C764 1.252 . S
C757 O760 1.252 . S
C757 O761 1.260 . S
C758 O765 1.240 . S
C758 O766 1.252 . S
C759 O762 1.252 . S
C759 O763 1.260 . S
O760 In754 2.266 . S
O760 C757 1.252 . S
O761 In754 2.326 . S
O761 C757 1.260 . S
O762 In754 2.266 . S
O762 C759 1.252 . S
O763 In754 2.326 . S
O763 C759 1.260 . S
C764 O755 1.240 . S
C764 O756 1.252 . S
O765 In754 2.294 . S
O765 C758 1.240 . S
O766 In754 2.326 . S
O766 C758 1.252 . S
In767 O768 2.294 . S
In767 O769 2.326 . S
In767 O773 2.266 . S
In767 O774 2.326 . S
In767 O775 2.266 . S
In767 O776 2.326 . S
In767 O778 2.294 . S
In767 O779 2.326 . S
O768 In767 2.294 . S
O768 C777 1.240 . S
O769 In767 2.326 . S
O769 C777 1.252 . S
C770 O773 1.252 . S
C770 O774 1.260 . S
C771 O778 1.240 . S
C771 O779 1.252 . S
C772 O775 1.252 . S
C772 O776 1.260 . S
O773 In767 2.266 . S
O773 C770 1.252 . S
O774 In767 2.326 . S
O774 C770 1.260 . S
O775 In767 2.266 . S
O775 C772 1.252 . S
O776 In767 2.326 . S
O776 C772 1.260 . S
C777 O768 1.240 . S
C777 O769 1.252 . S
O778 In767 2.294 . S
O778 C771 1.240 . S
O779 In767 2.326 . S
O779 C771 1.252 . S
In780 O781 2.294 . S
In780 O782 2.326 . S
In780 O786 2.266 . S
In780 O787 2.326 . S
In780 O788 2.266 . S
In780 O789 2.326 . S
In780 O791 2.294 . S
In780 O792 2.326 . S
O781 In780 2.294 . S
O781 C790 1.240 . S
O782 In780 2.326 . S
O782 C790 1.252 . S
C783 O786 1.252 . S
C783 O787 1.260 . S
C784 O791 1.240 . S
C784 O792 1.252 . S
C785 O788 1.252 . S
C785 O789 1.260 . S
O786 In780 2.266 . S
O786 C783 1.252 . S
O787 In780 2.326 . S
O787 C783 1.260 . S
O788 In780 2.266 . S
O788 C785 1.252 . S
O789 In780 2.326 . S
O789 C785 1.260 . S
C790 O781 1.240 . S
C790 O782 1.252 . S
O791 In780 2.294 . S
O791 C784 1.240 . S
O792 In780 2.326 . S
O792 C784 1.252 . S
In793 O794 2.294 . S
In793 O795 2.326 . S
In793 O799 2.266 . S
In793 O800 2.326 . S
In793 O801 2.266 . S
In793 O802 2.326 . S
In793 O804 2.294 . S
In793 O805 2.326 . S
O794 In793 2.294 . S
O794 C803 1.240 . S
O795 In793 2.326 . S
O795 C803 1.252 . S
C796 O799 1.252 . S
C796 O800 1.260 . S
C797 O804 1.240 . S
C797 O805 1.252 . S
C798 O801 1.252 . S
C798 O802 1.260 . S
O799 In793 2.266 . S
O799 C796 1.252 . S
O800 In793 2.326 . S
O800 C796 1.260 . S
O801 In793 2.266 . S
O801 C798 1.252 . S
O802 In793 2.326 . S
O802 C798 1.260 . S
C803 O794 1.240 . S
C803 O795 1.252 . S
O804 In793 2.294 . S
O804 C797 1.240 . S
O805 In793 2.326 . S
O805 C797 1.252 . S
In806 O807 2.294 . S
In806 O808 2.326 . S
In806 O812 2.266 . S
In806 O813 2.326 . S
In806 O814 2.266 . S
In806 O815 2.326 . S
In806 O817 2.294 . S
In806 O818 2.326 . S
O807 In806 2.294 . S
O807 C816 1.240 . S
O808 In806 2.326 . S
O808 C816 1.252 . S
C809 O812 1.252 . S
C809 O813 1.260 . S
C810 O817 1.240 . S
C810 O818 1.252 . S
C811 O814 1.252 . S
C811 O815 1.260 . S
O812 In806 2.266 . S
O812 C809 1.252 . S
O813 In806 2.326 . S
O813 C809 1.260 . S
O814 In806 2.266 . S
O814 C811 1.252 . S
O815 In806 2.326 . S
O815 C811 1.260 . S
C816 O807 1.240 . S
C816 O808 1.252 . S
O817 In806 2.294 . S
O817 C810 1.240 . S
O818 In806 2.326 . S
O818 C810 1.252 . S
In819 O820 2.294 . S
In819 O821 2.326 . S
In819 O825 2.266 . S
In819 O826 2.326 . S
In819 O827 2.266 . S
In819 O828 2.326 . S
In819 O830 2.294 . S
In819 O831 2.326 . S
O820 In819 2.294 . S
O820 C829 1.240 . S
O821 In819 2.326 . S
O821 C829 1.252 . S
C822 O825 1.252 . S
C822 O826 1.260 . S
C823 O830 1.240 . S
C823 O831 1.252 . S
C824 O827 1.252 . S
C824 O828 1.260 . S
O825 In819 2.266 . S
O825 C822 1.252 . S
O826 In819 2.326 . S
O826 C822 1.260 . S
O827 In819 2.266 . S
O827 C824 1.252 . S
O828 In819 2.326 . S
O828 C824 1.260 . S
C829 O820 1.240 . S
C829 O821 1.252 . S
O830 In819 2.294 . S
O830 C823 1.240 . S
O831 In819 2.326 . S
O831 C823 1.252 . S
In832 O833 2.294 . S
In832 O834 2.326 . S
In832 O838 2.266 . S
In832 O839 2.326 . S
In832 O840 2.266 . S
In832 O841 2.326 . S
In832 O843 2.294 . S
In832 O844 2.326 . S
O833 In832 2.294 . S
O833 C842 1.240 . S
O834 In832 2.326 . S
O834 C842 1.252 . S
C835 O838 1.252 . S
C835 O839 1.260 . S
C836 O843 1.240 . S
C836 O844 1.252 . S
C837 O840 1.252 . S
C837 O841 1.260 . S
O838 In832 2.266 . S
O838 C835 1.252 . S
O839 In832 2.326 . S
O839 C835 1.260 . S
O840 In832 2.266 . S
O840 C837 1.252 . S
O841 In832 2.326 . S
O841 C837 1.260 . S
C842 O833 1.240 . S
C842 O834 1.252 . S
O843 In832 2.294 . S
O843 C836 1.240 . S
O844 In832 2.326 . S
O844 C836 1.252 . S
In845 O846 2.294 . S
In845 O847 2.326 . S
In845 O851 2.266 . S
In845 O852 2.326 . S
In845 O853 2.266 . S
In845 O854 2.326 . S
In845 O856 2.294 . S
In845 O857 2.326 . S
O846 In845 2.294 . S
O846 C855 1.240 . S
O847 In845 2.326 . S
O847 C855 1.252 . S
C848 O851 1.252 . S
C848 O852 1.260 . S
C849 O856 1.240 . S
C849 O857 1.252 . S
C850 O853 1.252 . S
C850 O854 1.260 . S
O851 In845 2.266 . S
O851 C848 1.252 . S
O852 In845 2.326 . S
O852 C848 1.260 . S
O853 In845 2.266 . S
O853 C850 1.252 . S
O854 In845 2.326 . S
O854 C850 1.260 . S
C855 O846 1.240 . S
C855 O847 1.252 . S
O856 In845 2.294 . S
O856 C849 1.240 . S
O857 In845 2.326 . S
O857 C849 1.252 . S
In858 O859 2.294 . S
In858 O860 2.326 . S
In858 O864 2.266 . S
In858 O865 2.326 . S
In858 O866 2.266 . S
In858 O867 2.326 . S
In858 O869 2.294 . S
In858 O870 2.326 . S
O859 In858 2.294 . S
O859 C868 1.240 . S
O860 In858 2.326 . S
O860 C868 1.252 . S
C861 O864 1.252 . S
C861 O865 1.260 . S
C862 O869 1.240 . S
C862 O870 1.252 . S
C863 O866 1.252 . S
C863 O867 1.260 . S
O864 In858 2.266 . S
O864 C861 1.252 . S
O865 In858 2.326 . S
O865 C861 1.260 . S
O866 In858 2.266 . S
O866 C863 1.252 . S
O867 In858 2.326 . S
O867 C863 1.260 . S
C868 O859 1.240 . S
C868 O860 1.252 . S
O869 In858 2.294 . S
O869 C862 1.240 . S
O870 In858 2.326 . S
O870 C862 1.252 . S
In871 O872 2.294 . S
In871 O873 2.326 . S
In871 O877 2.266 . S
In871 O878 2.326 . S
In871 O879 2.266 . S
In871 O880 2.326 . S
In871 O882 2.294 . S
In871 O883 2.326 . S
O872 In871 2.294 . S
O872 C881 1.240 . S
O873 In871 2.326 . S
O873 C881 1.252 . S
C874 O877 1.252 . S
C874 O878 1.260 . S
C875 O882 1.240 . S
C875 O883 1.252 . S
C876 O879 1.252 . S
C876 O880 1.260 . S
O877 In871 2.266 . S
O877 C874 1.252 . S
O878 In871 2.326 . S
O878 C874 1.260 . S
O879 In871 2.266 . S
O879 C876 1.252 . S
O880 In871 2.326 . S
O880 C876 1.260 . S
C881 O872 1.240 . S
C881 O873 1.252 . S
O882 In871 2.294 . S
O882 C875 1.240 . S
O883 In871 2.326 . S
O883 C875 1.252 . S
In884 O885 2.294 . S
In884 O886 2.326 . S
In884 O890 2.266 . S
In884 O891 2.326 . S
In884 O892 2.266 . S
In884 O893 2.326 . S
In884 O895 2.294 . S
In884 O896 2.326 . S
O885 In884 2.294 . S
O885 C894 1.240 . S
O886 In884 2.326 . S
O886 C894 1.252 . S
C887 O890 1.252 . S
C887 O891 1.260 . S
C888 O895 1.240 . S
C888 O896 1.252 . S
C889 O892 1.252 . S
C889 O893 1.260 . S
O890 In884 2.266 . S
O890 C887 1.252 . S
O891 In884 2.326 . S
O891 C887 1.260 . S
O892 In884 2.266 . S
O892 C889 1.252 . S
O893 In884 2.326 . S
O893 C889 1.260 . S
C894 O885 1.240 . S
C894 O886 1.252 . S
O895 In884 2.294 . S
O895 C888 1.240 . S
O896 In884 2.326 . S
O896 C888 1.252 . S
In897 O898 2.294 . S
In897 O899 2.326 . S
In897 O903 2.266 . S
In897 O904 2.326 . S
In897 O905 2.266 . S
In897 O906 2.326 . S
In897 O908 2.294 . S
In897 O909 2.326 . S
O898 In897 2.294 . S
O898 C907 1.240 . S
O899 In897 2.326 . S
O899 C907 1.252 . S
C900 O903 1.252 . S
C900 O904 1.260 . S
C901 O908 1.240 . S
C901 O909 1.252 . S
C902 O905 1.252 . S
C902 O906 1.260 . S
O903 In897 2.266 . S
O903 C900 1.252 . S
O904 In897 2.326 . S
O904 C900 1.260 . S
O905 In897 2.266 . S
O905 C902 1.252 . S
O906 In897 2.326 . S
O906 C902 1.260 . S
C907 O898 1.240 . S
C907 O899 1.252 . S
O908 In897 2.294 . S
O908 C901 1.240 . S
O909 In897 2.326 . S
O909 C901 1.252 . S
In910 O911 2.294 . S
In910 O912 2.326 . S
In910 O916 2.266 . S
In910 O917 2.326 . S
In910 O918 2.266 . S
In910 O919 2.326 . S
In910 O921 2.294 . S
In910 O922 2.326 . S
O911 In910 2.294 . S
O911 C920 1.240 . S
O912 In910 2.326 . S
O912 C920 1.252 . S
C913 O916 1.252 . S
C913 O917 1.260 . S
C914 O921 1.240 . S
C914 O922 1.252 . S
C915 O918 1.252 . S
C915 O919 1.260 . S
O916 In910 2.266 . S
O916 C913 1.252 . S
O917 In910 2.326 . S
O917 C913 1.260 . S
O918 In910 2.266 . S
O918 C915 1.252 . S
O919 In910 2.326 . S
O919 C915 1.260 . S
C920 O911 1.240 . S
C920 O912 1.252 . S
O921 In910 2.294 . S
O921 C914 1.240 . S
O922 In910 2.326 . S
O922 C914 1.252 . S
In923 O924 2.294 . S
In923 O925 2.326 . S
In923 O929 2.266 . S
In923 O930 2.326 . S
In923 O931 2.266 . S
In923 O932 2.326 . S
In923 O934 2.294 . S
In923 O935 2.326 . S
O924 In923 2.294 . S
O924 C933 1.240 . S
O925 In923 2.326 . S
O925 C933 1.252 . S
C926 O929 1.252 . S
C926 O930 1.260 . S
C927 O934 1.240 . S
C927 O935 1.252 . S
C928 O931 1.252 . S
C928 O932 1.260 . S
O929 In923 2.266 . S
O929 C926 1.252 . S
O930 In923 2.326 . S
O930 C926 1.260 . S
O931 In923 2.266 . S
O931 C928 1.252 . S
O932 In923 2.326 . S
O932 C928 1.260 . S
C933 O924 1.240 . S
C933 O925 1.252 . S
O934 In923 2.294 . S
O934 C927 1.240 . S
O935 In923 2.326 . S
O935 C927 1.252 . S
In936 O937 2.294 . S
In936 O938 2.326 . S
In936 O942 2.266 . S
In936 O943 2.326 . S
In936 O944 2.266 . S
In936 O945 2.326 . S
In936 O947 2.294 . S
In936 O948 2.326 . S
O937 In936 2.294 . S
O937 C946 1.240 . S
O938 In936 2.326 . S
O938 C946 1.252 . S
C939 O942 1.252 . S
C939 O943 1.260 . S
C940 O947 1.240 . S
C940 O948 1.252 . S
C941 O944 1.252 . S
C941 O945 1.260 . S
O942 In936 2.266 . S
O942 C939 1.252 . S
O943 In936 2.326 . S
O943 C939 1.260 . S
O944 In936 2.266 . S
O944 C941 1.252 . S
O945 In936 2.326 . S
O945 C941 1.260 . S
C946 O937 1.240 . S
C946 O938 1.252 . S
O947 In936 2.294 . S
O947 C940 1.240 . S
O948 In936 2.326 . S
O948 C940 1.252 . S
In949 O950 2.294 . S
In949 O951 2.326 . S
In949 O955 2.266 . S
In949 O956 2.326 . S
In949 O957 2.266 . S
In949 O958 2.326 . S
In949 O960 2.294 . S
In949 O961 2.326 . S
O950 In949 2.294 . S
O950 C959 1.240 . S
O951 In949 2.326 . S
O951 C959 1.252 . S
C952 O955 1.252 . S
C952 O956 1.260 . S
C953 O960 1.240 . S
C953 O961 1.252 . S
C954 O957 1.252 . S
C954 O958 1.260 . S
O955 In949 2.266 . S
O955 C952 1.252 . S
O956 In949 2.326 . S
O956 C952 1.260 . S
O957 In949 2.266 . S
O957 C954 1.252 . S
O958 In949 2.326 . S
O958 C954 1.260 . S
C959 O950 1.240 . S
C959 O951 1.252 . S
O960 In949 2.294 . S
O960 C953 1.240 . S
O961 In949 2.326 . S
O961 C953 1.252 . S
In962 O963 2.294 . S
In962 O964 2.326 . S
In962 O968 2.266 . S
In962 O969 2.326 . S
In962 O970 2.266 . S
In962 O971 2.326 . S
In962 O973 2.294 . S
In962 O974 2.326 . S
O963 In962 2.294 . S
O963 C972 1.240 . S
O964 In962 2.326 . S
O964 C972 1.252 . S
C965 O968 1.252 . S
C965 O969 1.260 . S
C966 O973 1.240 . S
C966 O974 1.252 . S
C967 O970 1.252 . S
C967 O971 1.260 . S
O968 In962 2.266 . S
O968 C965 1.252 . S
O969 In962 2.326 . S
O969 C965 1.260 . S
O970 In962 2.266 . S
O970 C967 1.252 . S
O971 In962 2.326 . S
O971 C967 1.260 . S
C972 O963 1.240 . S
C972 O964 1.252 . S
O973 In962 2.294 . S
O973 C966 1.240 . S
O974 In962 2.326 . S
O974 C966 1.252 . S
In975 O976 2.294 . S
In975 O977 2.326 . S
In975 O981 2.266 . S
In975 O982 2.326 . S
In975 O983 2.266 . S
In975 O984 2.326 . S
In975 O986 2.294 . S
In975 O987 2.326 . S
O976 In975 2.294 . S
O976 C985 1.240 . S
O977 In975 2.326 . S
O977 C985 1.252 . S
C978 O981 1.252 . S
C978 O982 1.260 . S
C979 O986 1.240 . S
C979 O987 1.252 . S
C980 O983 1.252 . S
C980 O984 1.260 . S
O981 In975 2.266 . S
O981 C978 1.252 . S
O982 In975 2.326 . S
O982 C978 1.260 . S
O983 In975 2.266 . S
O983 C980 1.252 . S
O984 In975 2.326 . S
O984 C980 1.260 . S
C985 O976 1.240 . S
C985 O977 1.252 . S
O986 In975 2.294 . S
O986 C979 1.240 . S
O987 In975 2.326 . S
O987 C979 1.252 . S
In988 O989 2.294 . S
In988 O990 2.326 . S
In988 O994 2.266 . S
In988 O995 2.326 . S
In988 O996 2.266 . S
In988 O997 2.326 . S
In988 O999 2.294 . S
In988 O1000 2.326 . S
O989 In988 2.294 . S
O989 C998 1.240 . S
O990 In988 2.326 . S
O990 C998 1.252 . S
C991 O994 1.252 . S
C991 O995 1.260 . S
C992 O999 1.240 . S
C992 O1000 1.252 . S
C993 O996 1.252 . S
C993 O997 1.260 . S
O994 In988 2.266 . S
O994 C991 1.252 . S
O995 In988 2.326 . S
O995 C991 1.260 . S
O996 In988 2.266 . S
O996 C993 1.252 . S
O997 In988 2.326 . S
O997 C993 1.260 . S
C998 O989 1.240 . S
C998 O990 1.252 . S
O999 In988 2.294 . S
O999 C992 1.240 . S
O1000 In988 2.326 . S
O1000 C992 1.252 . S
In1001 O1002 2.294 . S
In1001 O1003 2.326 . S
In1001 O1007 2.266 . S
In1001 O1008 2.326 . S
In1001 O1009 2.266 . S
In1001 O1010 2.326 . S
In1001 O1012 2.294 . S
In1001 O1013 2.326 . S
O1002 In1001 2.294 . S
O1002 C1011 1.240 . S
O1003 In1001 2.326 . S
O1003 C1011 1.252 . S
C1004 O1007 1.252 . S
C1004 O1008 1.260 . S
C1005 O1012 1.240 . S
C1005 O1013 1.252 . S
C1006 O1009 1.252 . S
C1006 O1010 1.260 . S
O1007 In1001 2.266 . S
O1007 C1004 1.252 . S
O1008 In1001 2.326 . S
O1008 C1004 1.260 . S
O1009 In1001 2.266 . S
O1009 C1006 1.252 . S
O1010 In1001 2.326 . S
O1010 C1006 1.260 . S
C1011 O1002 1.240 . S
C1011 O1003 1.252 . S
O1012 In1001 2.294 . S
O1012 C1005 1.240 . S
O1013 In1001 2.326 . S
O1013 C1005 1.252 . S
In1014 O1015 2.294 . S
In1014 O1016 2.326 . S
In1014 O1020 2.266 . S
In1014 O1021 2.326 . S
In1014 O1022 2.266 . S
In1014 O1023 2.326 . S
In1014 O1025 2.294 . S
In1014 O1026 2.326 . S
O1015 In1014 2.294 . S
O1015 C1024 1.240 . S
O1016 In1014 2.326 . S
O1016 C1024 1.252 . S
C1017 O1020 1.252 . S
C1017 O1021 1.260 . S
C1018 O1025 1.240 . S
C1018 O1026 1.252 . S
C1019 O1022 1.252 . S
C1019 O1023 1.260 . S
O1020 In1014 2.266 . S
O1020 C1017 1.252 . S
O1021 In1014 2.326 . S
O1021 C1017 1.260 . S
O1022 In1014 2.266 . S
O1022 C1019 1.252 . S
O1023 In1014 2.326 . S
O1023 C1019 1.260 . S
C1024 O1015 1.240 . S
C1024 O1016 1.252 . S
O1025 In1014 2.294 . S
O1025 C1018 1.240 . S
O1026 In1014 2.326 . S
O1026 C1018 1.252 . S
In1027 O1028 2.294 . S
In1027 O1029 2.326 . S
In1027 O1033 2.266 . S
In1027 O1034 2.326 . S
In1027 O1035 2.266 . S
In1027 O1036 2.326 . S
In1027 O1038 2.294 . S
In1027 O1039 2.326 . S
O1028 In1027 2.294 . S
O1028 C1037 1.240 . S
O1029 In1027 2.326 . S
O1029 C1037 1.252 . S
C1030 O1033 1.252 . S
C1030 O1034 1.260 . S
C1031 O1038 1.240 . S
C1031 O1039 1.252 . S
C1032 O1035 1.252 . S
C1032 O1036 1.260 . S
O1033 In1027 2.266 . S
O1033 C1030 1.252 . S
O1034 In1027 2.326 . S
O1034 C1030 1.260 . S
O1035 In1027 2.266 . S
O1035 C1032 1.252 . S
O1036 In1027 2.326 . S
O1036 C1032 1.260 . S
C1037 O1028 1.240 . S
C1037 O1029 1.252 . S
O1038 In1027 2.294 . S
O1038 C1031 1.240 . S
O1039 In1027 2.326 . S
O1039 C1031 1.252 . S
In1040 O1041 2.294 . S
In1040 O1042 2.326 . S
In1040 O1046 2.266 . S
In1040 O1047 2.326 . S
In1040 O1048 2.266 . S
In1040 O1049 2.326 . S
In1040 O1051 2.294 . S
In1040 O1052 2.326 . S
O1041 In1040 2.294 . S
O1041 C1050 1.240 . S
O1042 In1040 2.326 . S
O1042 C1050 1.252 . S
C1043 O1046 1.252 . S
C1043 O1047 1.260 . S
C1044 O1051 1.240 . S
C1044 O1052 1.252 . S
C1045 O1048 1.252 . S
C1045 O1049 1.260 . S
O1046 In1040 2.266 . S
O1046 C1043 1.252 . S
O1047 In1040 2.326 . S
O1047 C1043 1.260 . S
O1048 In1040 2.266 . S
O1048 C1045 1.252 . S
O1049 In1040 2.326 . S
O1049 C1045 1.260 . S
C1050 O1041 1.240 . S
C1050 O1042 1.252 . S
O1051 In1040 2.294 . S
O1051 C1044 1.240 . S
O1052 In1040 2.326 . S
O1052 C1044 1.252 . S
In1053 O1054 2.294 . S
In1053 O1055 2.326 . S
In1053 O1059 2.266 . S
In1053 O1060 2.326 . S
In1053 O1061 2.266 . S
In1053 O1062 2.326 . S
In1053 O1064 2.294 . S
In1053 O1065 2.326 . S
O1054 In1053 2.294 . S
O1054 C1063 1.240 . S
O1055 In1053 2.326 . S
O1055 C1063 1.252 . S
C1056 O1059 1.252 . S
C1056 O1060 1.260 . S
C1057 O1064 1.240 . S
C1057 O1065 1.252 . S
C1058 O1061 1.252 . S
C1058 O1062 1.260 . S
O1059 In1053 2.266 . S
O1059 C1056 1.252 . S
O1060 In1053 2.326 . S
O1060 C1056 1.260 . S
O1061 In1053 2.266 . S
O1061 C1058 1.252 . S
O1062 In1053 2.326 . S
O1062 C1058 1.260 . S
C1063 O1054 1.240 . S
C1063 O1055 1.252 . S
O1064 In1053 2.294 . S
O1064 C1057 1.240 . S
O1065 In1053 2.326 . S
O1065 C1057 1.252 . S
In1066 O1067 2.294 . S
In1066 O1068 2.326 . S
In1066 O1072 2.266 . S
In1066 O1073 2.326 . S
In1066 O1074 2.266 . S
In1066 O1075 2.326 . S
In1066 O1077 2.294 . S
In1066 O1078 2.326 . S
O1067 In1066 2.294 . S
O1067 C1076 1.240 . S
O1068 In1066 2.326 . S
O1068 C1076 1.252 . S
C1069 O1072 1.252 . S
C1069 O1073 1.260 . S
C1070 O1077 1.240 . S
C1070 O1078 1.252 . S
C1071 O1074 1.252 . S
C1071 O1075 1.260 . S
O1072 In1066 2.266 . S
O1072 C1069 1.252 . S
O1073 In1066 2.326 . S
O1073 C1069 1.260 . S
O1074 In1066 2.266 . S
O1074 C1071 1.252 . S
O1075 In1066 2.326 . S
O1075 C1071 1.260 . S
C1076 O1067 1.240 . S
C1076 O1068 1.252 . S
O1077 In1066 2.294 . S
O1077 C1070 1.240 . S
O1078 In1066 2.326 . S
O1078 C1070 1.252 . S
In1079 O1080 2.294 . S
In1079 O1081 2.326 . S
In1079 O1085 2.266 . S
In1079 O1086 2.326 . S
In1079 O1087 2.266 . S
In1079 O1088 2.326 . S
In1079 O1090 2.294 . S
In1079 O1091 2.326 . S
O1080 In1079 2.294 . S
O1080 C1089 1.240 . S
O1081 In1079 2.326 . S
O1081 C1089 1.252 . S
C1082 O1085 1.252 . S
C1082 O1086 1.260 . S
C1083 O1090 1.240 . S
C1083 O1091 1.252 . S
C1084 O1087 1.252 . S
C1084 O1088 1.260 . S
O1085 In1079 2.266 . S
O1085 C1082 1.252 . S
O1086 In1079 2.326 . S
O1086 C1082 1.260 . S
O1087 In1079 2.266 . S
O1087 C1084 1.252 . S
O1088 In1079 2.326 . S
O1088 C1084 1.260 . S
C1089 O1080 1.240 . S
C1089 O1081 1.252 . S
O1090 In1079 2.294 . S
O1090 C1083 1.240 . S
O1091 In1079 2.326 . S
O1091 C1083 1.252 . S
In1092 O1093 2.294 . S
In1092 O1094 2.326 . S
In1092 O1098 2.266 . S
In1092 O1099 2.326 . S
In1092 O1100 2.266 . S
In1092 O1101 2.326 . S
In1092 O1103 2.294 . S
In1092 O1104 2.326 . S
O1093 In1092 2.294 . S
O1093 C1102 1.240 . S
O1094 In1092 2.326 . S
O1094 C1102 1.252 . S
C1095 O1098 1.252 . S
C1095 O1099 1.260 . S
C1096 O1103 1.240 . S
C1096 O1104 1.252 . S
C1097 O1100 1.252 . S
C1097 O1101 1.260 . S
O1098 In1092 2.266 . S
O1098 C1095 1.252 . S
O1099 In1092 2.326 . S
O1099 C1095 1.260 . S
O1100 In1092 2.266 . S
O1100 C1097 1.252 . S
O1101 In1092 2.326 . S
O1101 C1097 1.260 . S
C1102 O1093 1.240 . S
C1102 O1094 1.252 . S
O1103 In1092 2.294 . S
O1103 C1096 1.240 . S
O1104 In1092 2.326 . S
O1104 C1096 1.252 . S
In1105 O1106 2.294 . S
In1105 O1107 2.326 . S
In1105 O1111 2.266 . S
In1105 O1112 2.326 . S
In1105 O1113 2.266 . S
In1105 O1114 2.326 . S
In1105 O1116 2.294 . S
In1105 O1117 2.326 . S
O1106 In1105 2.294 . S
O1106 C1115 1.240 . S
O1107 In1105 2.326 . S
O1107 C1115 1.252 . S
C1108 O1111 1.252 . S
C1108 O1112 1.260 . S
C1109 O1116 1.240 . S
C1109 O1117 1.252 . S
C1110 O1113 1.252 . S
C1110 O1114 1.260 . S
O1111 In1105 2.266 . S
O1111 C1108 1.252 . S
O1112 In1105 2.326 . S
O1112 C1108 1.260 . S
O1113 In1105 2.266 . S
O1113 C1110 1.252 . S
O1114 In1105 2.326 . S
O1114 C1110 1.260 . S
C1115 O1106 1.240 . S
C1115 O1107 1.252 . S
O1116 In1105 2.294 . S
O1116 C1109 1.240 . S
O1117 In1105 2.326 . S
O1117 C1109 1.252 . S
In1118 O1119 2.294 . S
In1118 O1120 2.326 . S
In1118 O1124 2.266 . S
In1118 O1125 2.326 . S
In1118 O1126 2.266 . S
In1118 O1127 2.326 . S
In1118 O1129 2.294 . S
In1118 O1130 2.326 . S
O1119 In1118 2.294 . S
O1119 C1128 1.240 . S
O1120 In1118 2.326 . S
O1120 C1128 1.252 . S
C1121 O1124 1.252 . S
C1121 O1125 1.260 . S
C1122 O1129 1.240 . S
C1122 O1130 1.252 . S
C1123 O1126 1.252 . S
C1123 O1127 1.260 . S
O1124 In1118 2.266 . S
O1124 C1121 1.252 . S
O1125 In1118 2.326 . S
O1125 C1121 1.260 . S
O1126 In1118 2.266 . S
O1126 C1123 1.252 . S
O1127 In1118 2.326 . S
O1127 C1123 1.260 . S
C1128 O1119 1.240 . S
C1128 O1120 1.252 . S
O1129 In1118 2.294 . S
O1129 C1122 1.240 . S
O1130 In1118 2.326 . S
O1130 C1122 1.252 . S
In1131 O1132 2.294 . S
In1131 O1133 2.326 . S
In1131 O1137 2.266 . S
In1131 O1138 2.326 . S
In1131 O1139 2.266 . S
In1131 O1140 2.326 . S
In1131 O1142 2.294 . S
In1131 O1143 2.326 . S
O1132 In1131 2.294 . S
O1132 C1141 1.240 . S
O1133 In1131 2.326 . S
O1133 C1141 1.252 . S
C1134 O1137 1.252 . S
C1134 O1138 1.260 . S
C1135 O1142 1.240 . S
C1135 O1143 1.252 . S
C1136 O1139 1.252 . S
C1136 O1140 1.260 . S
O1137 In1131 2.266 . S
O1137 C1134 1.252 . S
O1138 In1131 2.326 . S
O1138 C1134 1.260 . S
O1139 In1131 2.266 . S
O1139 C1136 1.252 . S
O1140 In1131 2.326 . S
O1140 C1136 1.260 . S
C1141 O1132 1.240 . S
C1141 O1133 1.252 . S
O1142 In1131 2.294 . S
O1142 C1135 1.240 . S
O1143 In1131 2.326 . S
O1143 C1135 1.252 . S
In1144 O1145 2.294 . S
In1144 O1146 2.326 . S
In1144 O1150 2.266 . S
In1144 O1151 2.326 . S
In1144 O1152 2.266 . S
In1144 O1153 2.326 . S
In1144 O1155 2.294 . S
In1144 O1156 2.326 . S
O1145 In1144 2.294 . S
O1145 C1154 1.240 . S
O1146 In1144 2.326 . S
O1146 C1154 1.252 . S
C1147 O1150 1.252 . S
C1147 O1151 1.260 . S
C1148 O1155 1.240 . S
C1148 O1156 1.252 . S
C1149 O1152 1.252 . S
C1149 O1153 1.260 . S
O1150 In1144 2.266 . S
O1150 C1147 1.252 . S
O1151 In1144 2.326 . S
O1151 C1147 1.260 . S
O1152 In1144 2.266 . S
O1152 C1149 1.252 . S
O1153 In1144 2.326 . S
O1153 C1149 1.260 . S
C1154 O1145 1.240 . S
C1154 O1146 1.252 . S
O1155 In1144 2.294 . S
O1155 C1148 1.240 . S
O1156 In1144 2.326 . S
O1156 C1148 1.252 . S
In1157 O1158 2.294 . S
In1157 O1159 2.326 . S
In1157 O1163 2.266 . S
In1157 O1164 2.326 . S
In1157 O1165 2.266 . S
In1157 O1166 2.326 . S
In1157 O1168 2.294 . S
In1157 O1169 2.326 . S
O1158 In1157 2.294 . S
O1158 C1167 1.240 . S
O1159 In1157 2.326 . S
O1159 C1167 1.252 . S
C1160 O1163 1.252 . S
C1160 O1164 1.260 . S
C1161 O1168 1.240 . S
C1161 O1169 1.252 . S
C1162 O1165 1.252 . S
C1162 O1166 1.260 . S
O1163 In1157 2.266 . S
O1163 C1160 1.252 . S
O1164 In1157 2.326 . S
O1164 C1160 1.260 . S
O1165 In1157 2.266 . S
O1165 C1162 1.252 . S
O1166 In1157 2.326 . S
O1166 C1162 1.260 . S
C1167 O1158 1.240 . S
C1167 O1159 1.252 . S
O1168 In1157 2.294 . S
O1168 C1161 1.240 . S
O1169 In1157 2.326 . S
O1169 C1161 1.252 . S
In1170 O1171 2.294 . S
In1170 O1172 2.326 . S
In1170 O1176 2.266 . S
In1170 O1177 2.326 . S
In1170 O1178 2.266 . S
In1170 O1179 2.326 . S
In1170 O1181 2.294 . S
In1170 O1182 2.326 . S
O1171 In1170 2.294 . S
O1171 C1180 1.240 . S
O1172 In1170 2.326 . S
O1172 C1180 1.252 . S
C1173 O1176 1.252 . S
C1173 O1177 1.260 . S
C1174 O1181 1.240 . S
C1174 O1182 1.252 . S
C1175 O1178 1.252 . S
C1175 O1179 1.260 . S
O1176 In1170 2.266 . S
O1176 C1173 1.252 . S
O1177 In1170 2.326 . S
O1177 C1173 1.260 . S
O1178 In1170 2.266 . S
O1178 C1175 1.252 . S
O1179 In1170 2.326 . S
O1179 C1175 1.260 . S
C1180 O1171 1.240 . S
C1180 O1172 1.252 . S
O1181 In1170 2.294 . S
O1181 C1174 1.240 . S
O1182 In1170 2.326 . S
O1182 C1174 1.252 . S
In1183 O1184 2.294 . S
In1183 O1185 2.326 . S
In1183 O1189 2.266 . S
In1183 O1190 2.326 . S
In1183 O1191 2.266 . S
In1183 O1192 2.326 . S
In1183 O1194 2.294 . S
In1183 O1195 2.326 . S
O1184 In1183 2.294 . S
O1184 C1193 1.240 . S
O1185 In1183 2.326 . S
O1185 C1193 1.252 . S
C1186 O1189 1.252 . S
C1186 O1190 1.260 . S
C1187 O1194 1.240 . S
C1187 O1195 1.252 . S
C1188 O1191 1.252 . S
C1188 O1192 1.260 . S
O1189 In1183 2.266 . S
O1189 C1186 1.252 . S
O1190 In1183 2.326 . S
O1190 C1186 1.260 . S
O1191 In1183 2.266 . S
O1191 C1188 1.252 . S
O1192 In1183 2.326 . S
O1192 C1188 1.260 . S
C1193 O1184 1.240 . S
C1193 O1185 1.252 . S
O1194 In1183 2.294 . S
O1194 C1187 1.240 . S
O1195 In1183 2.326 . S
O1195 C1187 1.252 . S
In1196 O1197 2.294 . S
In1196 O1198 2.326 . S
In1196 O1202 2.266 . S
In1196 O1203 2.326 . S
In1196 O1204 2.266 . S
In1196 O1205 2.326 . S
In1196 O1207 2.294 . S
In1196 O1208 2.326 . S
O1197 In1196 2.294 . S
O1197 C1206 1.240 . S
O1198 In1196 2.326 . S
O1198 C1206 1.252 . S
C1199 O1202 1.252 . S
C1199 O1203 1.260 . S
C1200 O1207 1.240 . S
C1200 O1208 1.252 . S
C1201 O1204 1.252 . S
C1201 O1205 1.260 . S
O1202 In1196 2.266 . S
O1202 C1199 1.252 . S
O1203 In1196 2.326 . S
O1203 C1199 1.260 . S
O1204 In1196 2.266 . S
O1204 C1201 1.252 . S
O1205 In1196 2.326 . S
O1205 C1201 1.260 . S
C1206 O1197 1.240 . S
C1206 O1198 1.252 . S
O1207 In1196 2.294 . S
O1207 C1200 1.240 . S
O1208 In1196 2.326 . S
O1208 C1200 1.252 . S
In1209 O1210 2.294 . S
In1209 O1211 2.326 . S
In1209 O1215 2.266 . S
In1209 O1216 2.326 . S
In1209 O1217 2.266 . S
In1209 O1218 2.326 . S
In1209 O1220 2.294 . S
In1209 O1221 2.326 . S
O1210 In1209 2.294 . S
O1210 C1219 1.240 . S
O1211 In1209 2.326 . S
O1211 C1219 1.252 . S
C1212 O1215 1.252 . S
C1212 O1216 1.260 . S
C1213 O1220 1.240 . S
C1213 O1221 1.252 . S
C1214 O1217 1.252 . S
C1214 O1218 1.260 . S
O1215 In1209 2.266 . S
O1215 C1212 1.252 . S
O1216 In1209 2.326 . S
O1216 C1212 1.260 . S
O1217 In1209 2.266 . S
O1217 C1214 1.252 . S
O1218 In1209 2.326 . S
O1218 C1214 1.260 . S
C1219 O1210 1.240 . S
C1219 O1211 1.252 . S
O1220 In1209 2.294 . S
O1220 C1213 1.240 . S
O1221 In1209 2.326 . S
O1221 C1213 1.252 . S
In1222 O1223 2.294 . S
In1222 O1224 2.326 . S
In1222 O1228 2.266 . S
In1222 O1229 2.326 . S
In1222 O1230 2.266 . S
In1222 O1231 2.326 . S
In1222 O1233 2.294 . S
In1222 O1234 2.326 . S
O1223 In1222 2.294 . S
O1223 C1232 1.240 . S
O1224 In1222 2.326 . S
O1224 C1232 1.252 . S
C1225 O1228 1.252 . S
C1225 O1229 1.260 . S
C1226 O1233 1.240 . S
C1226 O1234 1.252 . S
C1227 O1230 1.252 . S
C1227 O1231 1.260 . S
O1228 In1222 2.266 . S
O1228 C1225 1.252 . S
O1229 In1222 2.326 . S
O1229 C1225 1.260 . S
O1230 In1222 2.266 . S
O1230 C1227 1.252 . S
O1231 In1222 2.326 . S
O1231 C1227 1.260 . S
C1232 O1223 1.240 . S
C1232 O1224 1.252 . S
O1233 In1222 2.294 . S
O1233 C1226 1.240 . S
O1234 In1222 2.326 . S
O1234 C1226 1.252 . S
In1235 O1236 2.294 . S
In1235 O1237 2.326 . S
In1235 O1241 2.266 . S
In1235 O1242 2.326 . S
In1235 O1243 2.266 . S
In1235 O1244 2.326 . S
In1235 O1246 2.294 . S
In1235 O1247 2.326 . S
O1236 In1235 2.294 . S
O1236 C1245 1.240 . S
O1237 In1235 2.326 . S
O1237 C1245 1.252 . S
C1238 O1241 1.252 . S
C1238 O1242 1.260 . S
C1239 O1246 1.240 . S
C1239 O1247 1.252 . S
C1240 O1243 1.252 . S
C1240 O1244 1.260 . S
O1241 In1235 2.266 . S
O1241 C1238 1.252 . S
O1242 In1235 2.326 . S
O1242 C1238 1.260 . S
O1243 In1235 2.266 . S
O1243 C1240 1.252 . S
O1244 In1235 2.326 . S
O1244 C1240 1.260 . S
C1245 O1236 1.240 . S
C1245 O1237 1.252 . S
O1246 In1235 2.294 . S
O1246 C1239 1.240 . S
O1247 In1235 2.326 . S
O1247 C1239 1.252 . S
In1248 O1249 2.294 . S
In1248 O1250 2.326 . S
In1248 O1254 2.266 . S
In1248 O1255 2.326 . S
In1248 O1256 2.266 . S
In1248 O1257 2.326 . S
In1248 O1259 2.294 . S
In1248 O1260 2.326 . S
O1249 In1248 2.294 . S
O1249 C1258 1.240 . S
O1250 In1248 2.326 . S
O1250 C1258 1.252 . S
C1251 O1254 1.252 . S
C1251 O1255 1.260 . S
C1252 O1259 1.240 . S
C1252 O1260 1.252 . S
C1253 O1256 1.252 . S
C1253 O1257 1.260 . S
O1254 In1248 2.266 . S
O1254 C1251 1.252 . S
O1255 In1248 2.326 . S
O1255 C1251 1.260 . S
O1256 In1248 2.266 . S
O1256 C1253 1.252 . S
O1257 In1248 2.326 . S
O1257 C1253 1.260 . S
C1258 O1249 1.240 . S
C1258 O1250 1.252 . S
O1259 In1248 2.294 . S
O1259 C1252 1.240 . S
O1260 In1248 2.326 . S
O1260 C1252 1.252 . S
In1261 O1262 2.294 . S
In1261 O1263 2.326 . S
In1261 O1267 2.266 . S
In1261 O1268 2.326 . S
In1261 O1269 2.266 . S
In1261 O1270 2.326 . S
In1261 O1272 2.294 . S
In1261 O1273 2.326 . S
O1262 In1261 2.294 . S
O1262 C1271 1.240 . S
O1263 In1261 2.326 . S
O1263 C1271 1.252 . S
C1264 O1267 1.252 . S
C1264 O1268 1.260 . S
C1265 O1272 1.240 . S
C1265 O1273 1.252 . S
C1266 O1269 1.252 . S
C1266 O1270 1.260 . S
O1267 In1261 2.266 . S
O1267 C1264 1.252 . S
O1268 In1261 2.326 . S
O1268 C1264 1.260 . S
O1269 In1261 2.266 . S
O1269 C1266 1.252 . S
O1270 In1261 2.326 . S
O1270 C1266 1.260 . S
C1271 O1262 1.240 . S
C1271 O1263 1.252 . S
O1272 In1261 2.294 . S
O1272 C1265 1.240 . S
O1273 In1261 2.326 . S
O1273 C1265 1.252 . S
In1274 O1275 2.294 . S
In1274 O1276 2.326 . S
In1274 O1280 2.266 . S
In1274 O1281 2.326 . S
In1274 O1282 2.266 . S
In1274 O1283 2.326 . S
In1274 O1285 2.294 . S
In1274 O1286 2.326 . S
O1275 In1274 2.294 . S
O1275 C1284 1.240 . S
O1276 In1274 2.326 . S
O1276 C1284 1.252 . S
C1277 O1280 1.252 . S
C1277 O1281 1.260 . S
C1278 O1285 1.240 . S
C1278 O1286 1.252 . S
C1279 O1282 1.252 . S
C1279 O1283 1.260 . S
O1280 In1274 2.266 . S
O1280 C1277 1.252 . S
O1281 In1274 2.326 . S
O1281 C1277 1.260 . S
O1282 In1274 2.266 . S
O1282 C1279 1.252 . S
O1283 In1274 2.326 . S
O1283 C1279 1.260 . S
C1284 O1275 1.240 . S
C1284 O1276 1.252 . S
O1285 In1274 2.294 . S
O1285 C1278 1.240 . S
O1286 In1274 2.326 . S
O1286 C1278 1.252 . S
In1287 O1288 2.294 . S
In1287 O1289 2.326 . S
In1287 O1293 2.266 . S
In1287 O1294 2.326 . S
In1287 O1295 2.266 . S
In1287 O1296 2.326 . S
In1287 O1298 2.294 . S
In1287 O1299 2.326 . S
O1288 In1287 2.294 . S
O1288 C1297 1.240 . S
O1289 In1287 2.326 . S
O1289 C1297 1.252 . S
C1290 O1293 1.252 . S
C1290 O1294 1.260 . S
C1291 O1298 1.240 . S
C1291 O1299 1.252 . S
C1292 O1295 1.252 . S
C1292 O1296 1.260 . S
O1293 In1287 2.266 . S
O1293 C1290 1.252 . S
O1294 In1287 2.326 . S
O1294 C1290 1.260 . S
O1295 In1287 2.266 . S
O1295 C1292 1.252 . S
O1296 In1287 2.326 . S
O1296 C1292 1.260 . S
C1297 O1288 1.240 . S
C1297 O1289 1.252 . S
O1298 In1287 2.294 . S
O1298 C1291 1.240 . S
O1299 In1287 2.326 . S
O1299 C1291 1.252 . S
In1300 O1301 2.294 . S
In1300 O1302 2.326 . S
In1300 O1306 2.266 . S
In1300 O1307 2.326 . S
In1300 O1308 2.266 . S
In1300 O1309 2.326 . S
In1300 O1311 2.294 . S
In1300 O1312 2.326 . S
O1301 In1300 2.294 . S
O1301 C1310 1.240 . S
O1302 In1300 2.326 . S
O1302 C1310 1.252 . S
C1303 O1306 1.252 . S
C1303 O1307 1.260 . S
C1304 O1311 1.240 . S
C1304 O1312 1.252 . S
C1305 O1308 1.252 . S
C1305 O1309 1.260 . S
O1306 In1300 2.266 . S
O1306 C1303 1.252 . S
O1307 In1300 2.326 . S
O1307 C1303 1.260 . S
O1308 In1300 2.266 . S
O1308 C1305 1.252 . S
O1309 In1300 2.326 . S
O1309 C1305 1.260 . S
C1310 O1301 1.240 . S
C1310 O1302 1.252 . S
O1311 In1300 2.294 . S
O1311 C1304 1.240 . S
O1312 In1300 2.326 . S
O1312 C1304 1.252 . S
In1313 O1314 2.294 . S
In1313 O1315 2.326 . S
In1313 O1319 2.266 . S
In1313 O1320 2.326 . S
In1313 O1321 2.266 . S
In1313 O1322 2.326 . S
In1313 O1324 2.294 . S
In1313 O1325 2.326 . S
O1314 In1313 2.294 . S
O1314 C1323 1.240 . S
O1315 In1313 2.326 . S
O1315 C1323 1.252 . S
C1316 O1319 1.252 . S
C1316 O1320 1.260 . S
C1317 O1324 1.240 . S
C1317 O1325 1.252 . S
C1318 O1321 1.252 . S
C1318 O1322 1.260 . S
O1319 In1313 2.266 . S
O1319 C1316 1.252 . S
O1320 In1313 2.326 . S
O1320 C1316 1.260 . S
O1321 In1313 2.266 . S
O1321 C1318 1.252 . S
O1322 In1313 2.326 . S
O1322 C1318 1.260 . S
C1323 O1314 1.240 . S
C1323 O1315 1.252 . S
O1324 In1313 2.294 . S
O1324 C1317 1.240 . S
O1325 In1313 2.326 . S
O1325 C1317 1.252 . S
In1326 O1327 2.294 . S
In1326 O1328 2.326 . S
In1326 O1332 2.266 . S
In1326 O1333 2.326 . S
In1326 O1334 2.266 . S
In1326 O1335 2.326 . S
In1326 O1337 2.294 . S
In1326 O1338 2.326 . S
O1327 In1326 2.294 . S
O1327 C1336 1.240 . S
O1328 In1326 2.326 . S
O1328 C1336 1.252 . S
C1329 O1332 1.252 . S
C1329 O1333 1.260 . S
C1330 O1337 1.240 . S
C1330 O1338 1.252 . S
C1331 O1334 1.252 . S
C1331 O1335 1.260 . S
O1332 In1326 2.266 . S
O1332 C1329 1.252 . S
O1333 In1326 2.326 . S
O1333 C1329 1.260 . S
O1334 In1326 2.266 . S
O1334 C1331 1.252 . S
O1335 In1326 2.326 . S
O1335 C1331 1.260 . S
C1336 O1327 1.240 . S
C1336 O1328 1.252 . S
O1337 In1326 2.294 . S
O1337 C1330 1.240 . S
O1338 In1326 2.326 . S
O1338 C1330 1.252 . S
In1339 O1340 2.294 . S
In1339 O1341 2.326 . S
In1339 O1345 2.266 . S
In1339 O1346 2.326 . S
In1339 O1347 2.266 . S
In1339 O1348 2.326 . S
In1339 O1350 2.294 . S
In1339 O1351 2.326 . S
O1340 In1339 2.294 . S
O1340 C1349 1.240 . S
O1341 In1339 2.326 . S
O1341 C1349 1.252 . S
C1342 O1345 1.252 . S
C1342 O1346 1.260 . S
C1343 O1350 1.240 . S
C1343 O1351 1.252 . S
C1344 O1347 1.252 . S
C1344 O1348 1.260 . S
O1345 In1339 2.266 . S
O1345 C1342 1.252 . S
O1346 In1339 2.326 . S
O1346 C1342 1.260 . S
O1347 In1339 2.266 . S
O1347 C1344 1.252 . S
O1348 In1339 2.326 . S
O1348 C1344 1.260 . S
C1349 O1340 1.240 . S
C1349 O1341 1.252 . S
O1350 In1339 2.294 . S
O1350 C1343 1.240 . S
O1351 In1339 2.326 . S
O1351 C1343 1.252 . S
In1352 O1353 2.294 . S
In1352 O1354 2.326 . S
In1352 O1358 2.266 . S
In1352 O1359 2.326 . S
In1352 O1360 2.266 . S
In1352 O1361 2.326 . S
In1352 O1363 2.294 . S
In1352 O1364 2.326 . S
O1353 In1352 2.294 . S
O1353 C1362 1.240 . S
O1354 In1352 2.326 . S
O1354 C1362 1.252 . S
C1355 O1358 1.252 . S
C1355 O1359 1.260 . S
C1356 O1363 1.240 . S
C1356 O1364 1.252 . S
C1357 O1360 1.252 . S
C1357 O1361 1.260 . S
O1358 In1352 2.266 . S
O1358 C1355 1.252 . S
O1359 In1352 2.326 . S
O1359 C1355 1.260 . S
O1360 In1352 2.266 . S
O1360 C1357 1.252 . S
O1361 In1352 2.326 . S
O1361 C1357 1.260 . S
C1362 O1353 1.240 . S
C1362 O1354 1.252 . S
O1363 In1352 2.294 . S
O1363 C1356 1.240 . S
O1364 In1352 2.326 . S
O1364 C1356 1.252 . S
In1365 O1366 2.294 . S
In1365 O1367 2.326 . S
In1365 O1371 2.266 . S
In1365 O1372 2.326 . S
In1365 O1373 2.266 . S
In1365 O1374 2.326 . S
In1365 O1376 2.294 . S
In1365 O1377 2.326 . S
O1366 In1365 2.294 . S
O1366 C1375 1.240 . S
O1367 In1365 2.326 . S
O1367 C1375 1.252 . S
C1368 O1371 1.252 . S
C1368 O1372 1.260 . S
C1369 O1376 1.240 . S
C1369 O1377 1.252 . S
C1370 O1373 1.252 . S
C1370 O1374 1.260 . S
O1371 In1365 2.266 . S
O1371 C1368 1.252 . S
O1372 In1365 2.326 . S
O1372 C1368 1.260 . S
O1373 In1365 2.266 . S
O1373 C1370 1.252 . S
O1374 In1365 2.326 . S
O1374 C1370 1.260 . S
C1375 O1366 1.240 . S
C1375 O1367 1.252 . S
O1376 In1365 2.294 . S
O1376 C1369 1.240 . S
O1377 In1365 2.326 . S
O1377 C1369 1.252 . S
In1378 O1379 2.294 . S
In1378 O1380 2.326 . S
In1378 O1384 2.266 . S
In1378 O1385 2.326 . S
In1378 O1386 2.266 . S
In1378 O1387 2.326 . S
In1378 O1389 2.294 . S
In1378 O1390 2.326 . S
O1379 In1378 2.294 . S
O1379 C1388 1.240 . S
O1380 In1378 2.326 . S
O1380 C1388 1.252 . S
C1381 O1384 1.252 . S
C1381 O1385 1.260 . S
C1382 O1389 1.240 . S
C1382 O1390 1.252 . S
C1383 O1386 1.252 . S
C1383 O1387 1.260 . S
O1384 In1378 2.266 . S
O1384 C1381 1.252 . S
O1385 In1378 2.326 . S
O1385 C1381 1.260 . S
O1386 In1378 2.266 . S
O1386 C1383 1.252 . S
O1387 In1378 2.326 . S
O1387 C1383 1.260 . S
C1388 O1379 1.240 . S
C1388 O1380 1.252 . S
O1389 In1378 2.294 . S
O1389 C1382 1.240 . S
O1390 In1378 2.326 . S
O1390 C1382 1.252 . S
In1391 O1392 2.294 . S
In1391 O1393 2.326 . S
In1391 O1397 2.266 . S
In1391 O1398 2.326 . S
In1391 O1399 2.266 . S
In1391 O1400 2.326 . S
In1391 O1402 2.294 . S
In1391 O1403 2.326 . S
O1392 In1391 2.294 . S
O1392 C1401 1.240 . S
O1393 In1391 2.326 . S
O1393 C1401 1.252 . S
C1394 O1397 1.252 . S
C1394 O1398 1.260 . S
C1395 O1402 1.240 . S
C1395 O1403 1.252 . S
C1396 O1399 1.252 . S
C1396 O1400 1.260 . S
O1397 In1391 2.266 . S
O1397 C1394 1.252 . S
O1398 In1391 2.326 . S
O1398 C1394 1.260 . S
O1399 In1391 2.266 . S
O1399 C1396 1.252 . S
O1400 In1391 2.326 . S
O1400 C1396 1.260 . S
C1401 O1392 1.240 . S
C1401 O1393 1.252 . S
O1402 In1391 2.294 . S
O1402 C1395 1.240 . S
O1403 In1391 2.326 . S
O1403 C1395 1.252 . S
In1404 O1405 2.294 . S
In1404 O1406 2.326 . S
In1404 O1410 2.266 . S
In1404 O1411 2.326 . S
In1404 O1412 2.266 . S
In1404 O1413 2.326 . S
In1404 O1415 2.294 . S
In1404 O1416 2.326 . S
O1405 In1404 2.294 . S
O1405 C1414 1.240 . S
O1406 In1404 2.326 . S
O1406 C1414 1.252 . S
C1407 O1410 1.252 . S
C1407 O1411 1.260 . S
C1408 O1415 1.240 . S
C1408 O1416 1.252 . S
C1409 O1412 1.252 . S
C1409 O1413 1.260 . S
O1410 In1404 2.266 . S
O1410 C1407 1.252 . S
O1411 In1404 2.326 . S
O1411 C1407 1.260 . S
O1412 In1404 2.266 . S
O1412 C1409 1.252 . S
O1413 In1404 2.326 . S
O1413 C1409 1.260 . S
C1414 O1405 1.240 . S
C1414 O1406 1.252 . S
O1415 In1404 2.294 . S
O1415 C1408 1.240 . S
O1416 In1404 2.326 . S
O1416 C1408 1.252 . S
In1417 O1418 2.294 . S
In1417 O1419 2.326 . S
In1417 O1423 2.266 . S
In1417 O1424 2.326 . S
In1417 O1425 2.266 . S
In1417 O1426 2.326 . S
In1417 O1428 2.294 . S
In1417 O1429 2.326 . S
O1418 In1417 2.294 . S
O1418 C1427 1.240 . S
O1419 In1417 2.326 . S
O1419 C1427 1.252 . S
C1420 O1423 1.252 . S
C1420 O1424 1.260 . S
C1421 O1428 1.240 . S
C1421 O1429 1.252 . S
C1422 O1425 1.252 . S
C1422 O1426 1.260 . S
O1423 In1417 2.266 . S
O1423 C1420 1.252 . S
O1424 In1417 2.326 . S
O1424 C1420 1.260 . S
O1425 In1417 2.266 . S
O1425 C1422 1.252 . S
O1426 In1417 2.326 . S
O1426 C1422 1.260 . S
C1427 O1418 1.240 . S
C1427 O1419 1.252 . S
O1428 In1417 2.294 . S
O1428 C1421 1.240 . S
O1429 In1417 2.326 . S
O1429 C1421 1.252 . S
In1430 O1431 2.294 . S
In1430 O1432 2.326 . S
In1430 O1436 2.266 . S
In1430 O1437 2.326 . S
In1430 O1438 2.266 . S
In1430 O1439 2.326 . S
In1430 O1441 2.294 . S
In1430 O1442 2.326 . S
O1431 In1430 2.294 . S
O1431 C1440 1.240 . S
O1432 In1430 2.326 . S
O1432 C1440 1.252 . S
C1433 O1436 1.252 . S
C1433 O1437 1.260 . S
C1434 O1441 1.240 . S
C1434 O1442 1.252 . S
C1435 O1438 1.252 . S
C1435 O1439 1.260 . S
O1436 In1430 2.266 . S
O1436 C1433 1.252 . S
O1437 In1430 2.326 . S
O1437 C1433 1.260 . S
O1438 In1430 2.266 . S
O1438 C1435 1.252 . S
O1439 In1430 2.326 . S
O1439 C1435 1.260 . S
C1440 O1431 1.240 . S
C1440 O1432 1.252 . S
O1441 In1430 2.294 . S
O1441 C1434 1.240 . S
O1442 In1430 2.326 . S
O1442 C1434 1.252 . S
In1443 O1444 2.294 . S
In1443 O1445 2.326 . S
In1443 O1449 2.266 . S
In1443 O1450 2.326 . S
In1443 O1451 2.266 . S
In1443 O1452 2.326 . S
In1443 O1454 2.294 . S
In1443 O1455 2.326 . S
O1444 In1443 2.294 . S
O1444 C1453 1.240 . S
O1445 In1443 2.326 . S
O1445 C1453 1.252 . S
C1446 O1449 1.252 . S
C1446 O1450 1.260 . S
C1447 O1454 1.240 . S
C1447 O1455 1.252 . S
C1448 O1451 1.252 . S
C1448 O1452 1.260 . S
O1449 In1443 2.266 . S
O1449 C1446 1.252 . S
O1450 In1443 2.326 . S
O1450 C1446 1.260 . S
O1451 In1443 2.266 . S
O1451 C1448 1.252 . S
O1452 In1443 2.326 . S
O1452 C1448 1.260 . S
C1453 O1444 1.240 . S
C1453 O1445 1.252 . S
O1454 In1443 2.294 . S
O1454 C1447 1.240 . S
O1455 In1443 2.326 . S
O1455 C1447 1.252 . S
In1456 O1457 2.294 . S
In1456 O1458 2.326 . S
In1456 O1462 2.266 . S
In1456 O1463 2.326 . S
In1456 O1464 2.266 . S
In1456 O1465 2.326 . S
In1456 O1467 2.294 . S
In1456 O1468 2.326 . S
O1457 In1456 2.294 . S
O1457 C1466 1.240 . S
O1458 In1456 2.326 . S
O1458 C1466 1.252 . S
C1459 O1462 1.252 . S
C1459 O1463 1.260 . S
C1460 O1467 1.240 . S
C1460 O1468 1.252 . S
C1461 O1464 1.252 . S
C1461 O1465 1.260 . S
O1462 In1456 2.266 . S
O1462 C1459 1.252 . S
O1463 In1456 2.326 . S
O1463 C1459 1.260 . S
O1464 In1456 2.266 . S
O1464 C1461 1.252 . S
O1465 In1456 2.326 . S
O1465 C1461 1.260 . S
C1466 O1457 1.240 . S
C1466 O1458 1.252 . S
O1467 In1456 2.294 . S
O1467 C1460 1.240 . S
O1468 In1456 2.326 . S
O1468 C1460 1.252 . S
In1469 O1470 2.294 . S
In1469 O1471 2.326 . S
In1469 O1475 2.266 . S
In1469 O1476 2.326 . S
In1469 O1477 2.266 . S
In1469 O1478 2.326 . S
In1469 O1480 2.294 . S
In1469 O1481 2.326 . S
O1470 In1469 2.294 . S
O1470 C1479 1.240 . S
O1471 In1469 2.326 . S
O1471 C1479 1.252 . S
C1472 O1475 1.252 . S
C1472 O1476 1.260 . S
C1473 O1480 1.240 . S
C1473 O1481 1.252 . S
C1474 O1477 1.252 . S
C1474 O1478 1.260 . S
O1475 In1469 2.266 . S
O1475 C1472 1.252 . S
O1476 In1469 2.326 . S
O1476 C1472 1.260 . S
O1477 In1469 2.266 . S
O1477 C1474 1.252 . S
O1478 In1469 2.326 . S
O1478 C1474 1.260 . S
C1479 O1470 1.240 . S
C1479 O1471 1.252 . S
O1480 In1469 2.294 . S
O1480 C1473 1.240 . S
O1481 In1469 2.326 . S
O1481 C1473 1.252 . S
In1482 O1483 2.294 . S
In1482 O1484 2.326 . S
In1482 O1488 2.266 . S
In1482 O1489 2.326 . S
In1482 O1490 2.266 . S
In1482 O1491 2.326 . S
In1482 O1493 2.294 . S
In1482 O1494 2.326 . S
O1483 In1482 2.294 . S
O1483 C1492 1.240 . S
O1484 In1482 2.326 . S
O1484 C1492 1.252 . S
C1485 O1488 1.252 . S
C1485 O1489 1.260 . S
C1486 O1493 1.240 . S
C1486 O1494 1.252 . S
C1487 O1490 1.252 . S
C1487 O1491 1.260 . S
O1488 In1482 2.266 . S
O1488 C1485 1.252 . S
O1489 In1482 2.326 . S
O1489 C1485 1.260 . S
O1490 In1482 2.266 . S
O1490 C1487 1.252 . S
O1491 In1482 2.326 . S
O1491 C1487 1.260 . S
C1492 O1483 1.240 . S
C1492 O1484 1.252 . S
O1493 In1482 2.294 . S
O1493 C1486 1.240 . S
O1494 In1482 2.326 . S
O1494 C1486 1.252 . S
In1495 O1496 2.294 . S
In1495 O1497 2.326 . S
In1495 O1501 2.266 . S
In1495 O1502 2.326 . S
In1495 O1503 2.266 . S
In1495 O1504 2.326 . S
In1495 O1506 2.294 . S
In1495 O1507 2.326 . S
O1496 In1495 2.294 . S
O1496 C1505 1.240 . S
O1497 In1495 2.326 . S
O1497 C1505 1.252 . S
C1498 O1501 1.252 . S
C1498 O1502 1.260 . S
C1499 O1506 1.240 . S
C1499 O1507 1.252 . S
C1500 O1503 1.252 . S
C1500 O1504 1.260 . S
O1501 In1495 2.266 . S
O1501 C1498 1.252 . S
O1502 In1495 2.326 . S
O1502 C1498 1.260 . S
O1503 In1495 2.266 . S
O1503 C1500 1.252 . S
O1504 In1495 2.326 . S
O1504 C1500 1.260 . S
C1505 O1496 1.240 . S
C1505 O1497 1.252 . S
O1506 In1495 2.294 . S
O1506 C1499 1.240 . S
O1507 In1495 2.326 . S
O1507 C1499 1.252 . S
In1508 O1509 2.294 . S
In1508 O1510 2.326 . S
In1508 O1514 2.266 . S
In1508 O1515 2.326 . S
In1508 O1516 2.266 . S
In1508 O1517 2.326 . S
In1508 O1519 2.294 . S
In1508 O1520 2.326 . S
O1509 In1508 2.294 . S
O1509 C1518 1.240 . S
O1510 In1508 2.326 . S
O1510 C1518 1.252 . S
C1511 O1514 1.252 . S
C1511 O1515 1.260 . S
C1512 O1519 1.240 . S
C1512 O1520 1.252 . S
C1513 O1516 1.252 . S
C1513 O1517 1.260 . S
O1514 In1508 2.266 . S
O1514 C1511 1.252 . S
O1515 In1508 2.326 . S
O1515 C1511 1.260 . S
O1516 In1508 2.266 . S
O1516 C1513 1.252 . S
O1517 In1508 2.326 . S
O1517 C1513 1.260 . S
C1518 O1509 1.240 . S
C1518 O1510 1.252 . S
O1519 In1508 2.294 . S
O1519 C1512 1.240 . S
O1520 In1508 2.326 . S
O1520 C1512 1.252 . S
In1521 O1522 2.294 . S
In1521 O1523 2.326 . S
In1521 O1527 2.266 . S
In1521 O1528 2.326 . S
In1521 O1529 2.266 . S
In1521 O1530 2.326 . S
In1521 O1532 2.294 . S
In1521 O1533 2.326 . S
O1522 In1521 2.294 . S
O1522 C1531 1.240 . S
O1523 In1521 2.326 . S
O1523 C1531 1.252 . S
C1524 O1527 1.252 . S
C1524 O1528 1.260 . S
C1525 O1532 1.240 . S
C1525 O1533 1.252 . S
C1526 O1529 1.252 . S
C1526 O1530 1.260 . S
O1527 In1521 2.266 . S
O1527 C1524 1.252 . S
O1528 In1521 2.326 . S
O1528 C1524 1.260 . S
O1529 In1521 2.266 . S
O1529 C1526 1.252 . S
O1530 In1521 2.326 . S
O1530 C1526 1.260 . S
C1531 O1522 1.240 . S
C1531 O1523 1.252 . S
O1532 In1521 2.294 . S
O1532 C1525 1.240 . S
O1533 In1521 2.326 . S
O1533 C1525 1.252 . S
In1534 O1535 2.294 . S
In1534 O1536 2.326 . S
In1534 O1540 2.266 . S
In1534 O1541 2.326 . S
In1534 O1542 2.266 . S
In1534 O1543 2.326 . S
In1534 O1545 2.294 . S
In1534 O1546 2.326 . S
O1535 In1534 2.294 . S
O1535 C1544 1.240 . S
O1536 In1534 2.326 . S
O1536 C1544 1.252 . S
C1537 O1540 1.252 . S
C1537 O1541 1.260 . S
C1538 O1545 1.240 . S
C1538 O1546 1.252 . S
C1539 O1542 1.252 . S
C1539 O1543 1.260 . S
O1540 In1534 2.266 . S
O1540 C1537 1.252 . S
O1541 In1534 2.326 . S
O1541 C1537 1.260 . S
O1542 In1534 2.266 . S
O1542 C1539 1.252 . S
O1543 In1534 2.326 . S
O1543 C1539 1.260 . S
C1544 O1535 1.240 . S
C1544 O1536 1.252 . S
O1545 In1534 2.294 . S
O1545 C1538 1.240 . S
O1546 In1534 2.326 . S
O1546 C1538 1.252 . S
In1547 O1548 2.294 . S
In1547 O1549 2.326 . S
In1547 O1553 2.266 . S
In1547 O1554 2.326 . S
In1547 O1555 2.266 . S
In1547 O1556 2.326 . S
In1547 O1558 2.294 . S
In1547 O1559 2.326 . S
O1548 In1547 2.294 . S
O1548 C1557 1.240 . S
O1549 In1547 2.326 . S
O1549 C1557 1.252 . S
C1550 O1553 1.252 . S
C1550 O1554 1.260 . S
C1551 O1558 1.240 . S
C1551 O1559 1.252 . S
C1552 O1555 1.252 . S
C1552 O1556 1.260 . S
O1553 In1547 2.266 . S
O1553 C1550 1.252 . S
O1554 In1547 2.326 . S
O1554 C1550 1.260 . S
O1555 In1547 2.266 . S
O1555 C1552 1.252 . S
O1556 In1547 2.326 . S
O1556 C1552 1.260 . S
C1557 O1548 1.240 . S
C1557 O1549 1.252 . S
O1558 In1547 2.294 . S
O1558 C1551 1.240 . S
O1559 In1547 2.326 . S
O1559 C1551 1.252 . S
In1560 O1561 2.294 . S
In1560 O1562 2.326 . S
In1560 O1566 2.266 . S
In1560 O1567 2.326 . S
In1560 O1568 2.266 . S
In1560 O1569 2.326 . S
In1560 O1571 2.294 . S
In1560 O1572 2.326 . S
O1561 In1560 2.294 . S
O1561 C1570 1.240 . S
O1562 In1560 2.326 . S
O1562 C1570 1.252 . S
C1563 O1566 1.252 . S
C1563 O1567 1.260 . S
C1564 O1571 1.240 . S
C1564 O1572 1.252 . S
C1565 O1568 1.252 . S
C1565 O1569 1.260 . S
O1566 In1560 2.266 . S
O1566 C1563 1.252 . S
O1567 In1560 2.326 . S
O1567 C1563 1.260 . S
O1568 In1560 2.266 . S
O1568 C1565 1.252 . S
O1569 In1560 2.326 . S
O1569 C1565 1.260 . S
C1570 O1561 1.240 . S
C1570 O1562 1.252 . S
O1571 In1560 2.294 . S
O1571 C1564 1.240 . S
O1572 In1560 2.326 . S
O1572 C1564 1.252 . S
In1573 O1574 2.294 . S
In1573 O1575 2.326 . S
In1573 O1579 2.266 . S
In1573 O1580 2.326 . S
In1573 O1581 2.266 . S
In1573 O1582 2.326 . S
In1573 O1584 2.294 . S
In1573 O1585 2.326 . S
O1574 In1573 2.294 . S
O1574 C1583 1.240 . S
O1575 In1573 2.326 . S
O1575 C1583 1.252 . S
C1576 O1579 1.252 . S
C1576 O1580 1.260 . S
C1577 O1584 1.240 . S
C1577 O1585 1.252 . S
C1578 O1581 1.252 . S
C1578 O1582 1.260 . S
O1579 In1573 2.266 . S
O1579 C1576 1.252 . S
O1580 In1573 2.326 . S
O1580 C1576 1.260 . S
O1581 In1573 2.266 . S
O1581 C1578 1.252 . S
O1582 In1573 2.326 . S
O1582 C1578 1.260 . S
C1583 O1574 1.240 . S
C1583 O1575 1.252 . S
O1584 In1573 2.294 . S
O1584 C1577 1.240 . S
O1585 In1573 2.326 . S
O1585 C1577 1.252 . S
In1586 O1587 2.294 . S
In1586 O1588 2.326 . S
In1586 O1592 2.266 . S
In1586 O1593 2.326 . S
In1586 O1594 2.266 . S
In1586 O1595 2.326 . S
In1586 O1597 2.294 . S
In1586 O1598 2.326 . S
O1587 In1586 2.294 . S
O1587 C1596 1.240 . S
O1588 In1586 2.326 . S
O1588 C1596 1.252 . S
C1589 O1592 1.252 . S
C1589 O1593 1.260 . S
C1590 O1597 1.240 . S
C1590 O1598 1.252 . S
C1591 O1594 1.252 . S
C1591 O1595 1.260 . S
O1592 In1586 2.266 . S
O1592 C1589 1.252 . S
O1593 In1586 2.326 . S
O1593 C1589 1.260 . S
O1594 In1586 2.266 . S
O1594 C1591 1.252 . S
O1595 In1586 2.326 . S
O1595 C1591 1.260 . S
C1596 O1587 1.240 . S
C1596 O1588 1.252 . S
O1597 In1586 2.294 . S
O1597 C1590 1.240 . S
O1598 In1586 2.326 . S
O1598 C1590 1.252 . S
In1599 O1600 2.294 . S
In1599 O1601 2.326 . S
In1599 O1605 2.266 . S
In1599 O1606 2.326 . S
In1599 O1607 2.266 . S
In1599 O1608 2.326 . S
In1599 O1610 2.294 . S
In1599 O1611 2.326 . S
O1600 In1599 2.294 . S
O1600 C1609 1.240 . S
O1601 In1599 2.326 . S
O1601 C1609 1.252 . S
C1602 O1605 1.252 . S
C1602 O1606 1.260 . S
C1603 O1610 1.240 . S
C1603 O1611 1.252 . S
C1604 O1607 1.252 . S
C1604 O1608 1.260 . S
O1605 In1599 2.266 . S
O1605 C1602 1.252 . S
O1606 In1599 2.326 . S
O1606 C1602 1.260 . S
O1607 In1599 2.266 . S
O1607 C1604 1.252 . S
O1608 In1599 2.326 . S
O1608 C1604 1.260 . S
C1609 O1600 1.240 . S
C1609 O1601 1.252 . S
O1610 In1599 2.294 . S
O1610 C1603 1.240 . S
O1611 In1599 2.326 . S
O1611 C1603 1.252 . S
In1612 O1613 2.294 . S
In1612 O1614 2.326 . S
In1612 O1618 2.266 . S
In1612 O1619 2.326 . S
In1612 O1620 2.266 . S
In1612 O1621 2.326 . S
In1612 O1623 2.294 . S
In1612 O1624 2.326 . S
O1613 In1612 2.294 . S
O1613 C1622 1.240 . S
O1614 In1612 2.326 . S
O1614 C1622 1.252 . S
C1615 O1618 1.252 . S
C1615 O1619 1.260 . S
C1616 O1623 1.240 . S
C1616 O1624 1.252 . S
C1617 O1620 1.252 . S
C1617 O1621 1.260 . S
O1618 In1612 2.266 . S
O1618 C1615 1.252 . S
O1619 In1612 2.326 . S
O1619 C1615 1.260 . S
O1620 In1612 2.266 . S
O1620 C1617 1.252 . S
O1621 In1612 2.326 . S
O1621 C1617 1.260 . S
C1622 O1613 1.240 . S
C1622 O1614 1.252 . S
O1623 In1612 2.294 . S
O1623 C1616 1.240 . S
O1624 In1612 2.326 . S
O1624 C1616 1.252 . S
In1625 O1626 2.294 . S
In1625 O1627 2.326 . S
In1625 O1631 2.266 . S
In1625 O1632 2.326 . S
In1625 O1633 2.266 . S
In1625 O1634 2.326 . S
In1625 O1636 2.294 . S
In1625 O1637 2.326 . S
O1626 In1625 2.294 . S
O1626 C1635 1.240 . S
O1627 In1625 2.326 . S
O1627 C1635 1.252 . S
C1628 O1631 1.252 . S
C1628 O1632 1.260 . S
C1629 O1636 1.240 . S
C1629 O1637 1.252 . S
C1630 O1633 1.252 . S
C1630 O1634 1.260 . S
O1631 In1625 2.266 . S
O1631 C1628 1.252 . S
O1632 In1625 2.326 . S
O1632 C1628 1.260 . S
O1633 In1625 2.266 . S
O1633 C1630 1.252 . S
O1634 In1625 2.326 . S
O1634 C1630 1.260 . S
C1635 O1626 1.240 . S
C1635 O1627 1.252 . S
O1636 In1625 2.294 . S
O1636 C1629 1.240 . S
O1637 In1625 2.326 . S
O1637 C1629 1.252 . S
In1638 O1639 2.294 . S
In1638 O1640 2.326 . S
In1638 O1644 2.266 . S
In1638 O1645 2.326 . S
In1638 O1646 2.266 . S
In1638 O1647 2.326 . S
In1638 O1649 2.294 . S
In1638 O1650 2.326 . S
O1639 In1638 2.294 . S
O1639 C1648 1.240 . S
O1640 In1638 2.326 . S
O1640 C1648 1.252 . S
C1641 O1644 1.252 . S
C1641 O1645 1.260 . S
C1642 O1649 1.240 . S
C1642 O1650 1.252 . S
C1643 O1646 1.252 . S
C1643 O1647 1.260 . S
O1644 In1638 2.266 . S
O1644 C1641 1.252 . S
O1645 In1638 2.326 . S
O1645 C1641 1.260 . S
O1646 In1638 2.266 . S
O1646 C1643 1.252 . S
O1647 In1638 2.326 . S
O1647 C1643 1.260 . S
C1648 O1639 1.240 . S
C1648 O1640 1.252 . S
O1649 In1638 2.294 . S
O1649 C1642 1.240 . S
O1650 In1638 2.326 . S
O1650 C1642 1.252 . S
In1651 O1652 2.294 . S
In1651 O1653 2.326 . S
In1651 O1657 2.266 . S
In1651 O1658 2.326 . S
In1651 O1659 2.266 . S
In1651 O1660 2.326 . S
In1651 O1662 2.294 . S
In1651 O1663 2.326 . S
O1652 In1651 2.294 . S
O1652 C1661 1.240 . S
O1653 In1651 2.326 . S
O1653 C1661 1.252 . S
C1654 O1657 1.252 . S
C1654 O1658 1.260 . S
C1655 O1662 1.240 . S
C1655 O1663 1.252 . S
C1656 O1659 1.252 . S
C1656 O1660 1.260 . S
O1657 In1651 2.266 . S
O1657 C1654 1.252 . S
O1658 In1651 2.326 . S
O1658 C1654 1.260 . S
O1659 In1651 2.266 . S
O1659 C1656 1.252 . S
O1660 In1651 2.326 . S
O1660 C1656 1.260 . S
C1661 O1652 1.240 . S
C1661 O1653 1.252 . S
O1662 In1651 2.294 . S
O1662 C1655 1.240 . S
O1663 In1651 2.326 . S
O1663 C1655 1.252 . S
In1664 O1665 2.294 . S
In1664 O1666 2.326 . S
In1664 O1670 2.266 . S
In1664 O1671 2.326 . S
In1664 O1672 2.266 . S
In1664 O1673 2.326 . S
In1664 O1675 2.294 . S
In1664 O1676 2.326 . S
O1665 In1664 2.294 . S
O1665 C1674 1.240 . S
O1666 In1664 2.326 . S
O1666 C1674 1.252 . S
C1667 O1670 1.252 . S
C1667 O1671 1.260 . S
C1668 O1675 1.240 . S
C1668 O1676 1.252 . S
C1669 O1672 1.252 . S
C1669 O1673 1.260 . S
O1670 In1664 2.266 . S
O1670 C1667 1.252 . S
O1671 In1664 2.326 . S
O1671 C1667 1.260 . S
O1672 In1664 2.266 . S
O1672 C1669 1.252 . S
O1673 In1664 2.326 . S
O1673 C1669 1.260 . S
C1674 O1665 1.240 . S
C1674 O1666 1.252 . S
O1675 In1664 2.294 . S
O1675 C1668 1.240 . S
O1676 In1664 2.326 . S
O1676 C1668 1.252 . S
In1677 O1678 2.294 . S
In1677 O1679 2.326 . S
In1677 O1683 2.266 . S
In1677 O1684 2.326 . S
In1677 O1685 2.266 . S
In1677 O1686 2.326 . S
In1677 O1688 2.294 . S
In1677 O1689 2.326 . S
O1678 In1677 2.294 . S
O1678 C1687 1.240 . S
O1679 In1677 2.326 . S
O1679 C1687 1.252 . S
C1680 O1683 1.252 . S
C1680 O1684 1.260 . S
C1681 O1688 1.240 . S
C1681 O1689 1.252 . S
C1682 O1685 1.252 . S
C1682 O1686 1.260 . S
O1683 In1677 2.266 . S
O1683 C1680 1.252 . S
O1684 In1677 2.326 . S
O1684 C1680 1.260 . S
O1685 In1677 2.266 . S
O1685 C1682 1.252 . S
O1686 In1677 2.326 . S
O1686 C1682 1.260 . S
C1687 O1678 1.240 . S
C1687 O1679 1.252 . S
O1688 In1677 2.294 . S
O1688 C1681 1.240 . S
O1689 In1677 2.326 . S
O1689 C1681 1.252 . S
In1690 O1691 2.294 . S
In1690 O1692 2.326 . S
In1690 O1696 2.266 . S
In1690 O1697 2.326 . S
In1690 O1698 2.266 . S
In1690 O1699 2.326 . S
In1690 O1701 2.294 . S
In1690 O1702 2.326 . S
O1691 In1690 2.294 . S
O1691 C1700 1.240 . S
O1692 In1690 2.326 . S
O1692 C1700 1.252 . S
C1693 O1696 1.252 . S
C1693 O1697 1.260 . S
C1694 O1701 1.240 . S
C1694 O1702 1.252 . S
C1695 O1698 1.252 . S
C1695 O1699 1.260 . S
O1696 In1690 2.266 . S
O1696 C1693 1.252 . S
O1697 In1690 2.326 . S
O1697 C1693 1.260 . S
O1698 In1690 2.266 . S
O1698 C1695 1.252 . S
O1699 In1690 2.326 . S
O1699 C1695 1.260 . S
C1700 O1691 1.240 . S
C1700 O1692 1.252 . S
O1701 In1690 2.294 . S
O1701 C1694 1.240 . S
O1702 In1690 2.326 . S
O1702 C1694 1.252 . S
In1703 O1704 2.294 . S
In1703 O1705 2.326 . S
In1703 O1709 2.266 . S
In1703 O1710 2.326 . S
In1703 O1711 2.266 . S
In1703 O1712 2.326 . S
In1703 O1714 2.294 . S
In1703 O1715 2.326 . S
O1704 In1703 2.294 . S
O1704 C1713 1.240 . S
O1705 In1703 2.326 . S
O1705 C1713 1.252 . S
C1706 O1709 1.252 . S
C1706 O1710 1.260 . S
C1707 O1714 1.240 . S
C1707 O1715 1.252 . S
C1708 O1711 1.252 . S
C1708 O1712 1.260 . S
O1709 In1703 2.266 . S
O1709 C1706 1.252 . S
O1710 In1703 2.326 . S
O1710 C1706 1.260 . S
O1711 In1703 2.266 . S
O1711 C1708 1.252 . S
O1712 In1703 2.326 . S
O1712 C1708 1.260 . S
C1713 O1704 1.240 . S
C1713 O1705 1.252 . S
O1714 In1703 2.294 . S
O1714 C1707 1.240 . S
O1715 In1703 2.326 . S
O1715 C1707 1.252 . S
In1716 O1717 2.294 . S
In1716 O1718 2.326 . S
In1716 O1722 2.266 . S
In1716 O1723 2.326 . S
In1716 O1724 2.266 . S
In1716 O1725 2.326 . S
In1716 O1727 2.294 . S
In1716 O1728 2.326 . S
O1717 In1716 2.294 . S
O1717 C1726 1.240 . S
O1718 In1716 2.326 . S
O1718 C1726 1.252 . S
C1719 O1722 1.252 . S
C1719 O1723 1.260 . S
C1720 O1727 1.240 . S
C1720 O1728 1.252 . S
C1721 O1724 1.252 . S
C1721 O1725 1.260 . S
O1722 In1716 2.266 . S
O1722 C1719 1.252 . S
O1723 In1716 2.326 . S
O1723 C1719 1.260 . S
O1724 In1716 2.266 . S
O1724 C1721 1.252 . S
O1725 In1716 2.326 . S
O1725 C1721 1.260 . S
C1726 O1717 1.240 . S
C1726 O1718 1.252 . S
O1727 In1716 2.294 . S
O1727 C1720 1.240 . S
O1728 In1716 2.326 . S
O1728 C1720 1.252 . S
In1729 O1730 2.294 . S
In1729 O1731 2.326 . S
In1729 O1735 2.266 . S
In1729 O1736 2.326 . S
In1729 O1737 2.266 . S
In1729 O1738 2.326 . S
In1729 O1740 2.294 . S
In1729 O1741 2.326 . S
O1730 In1729 2.294 . S
O1730 C1739 1.240 . S
O1731 In1729 2.326 . S
O1731 C1739 1.252 . S
C1732 O1735 1.252 . S
C1732 O1736 1.260 . S
C1733 O1740 1.240 . S
C1733 O1741 1.252 . S
C1734 O1737 1.252 . S
C1734 O1738 1.260 . S
O1735 In1729 2.266 . S
O1735 C1732 1.252 . S
O1736 In1729 2.326 . S
O1736 C1732 1.260 . S
O1737 In1729 2.266 . S
O1737 C1734 1.252 . S
O1738 In1729 2.326 . S
O1738 C1734 1.260 . S
C1739 O1730 1.240 . S
C1739 O1731 1.252 . S
O1740 In1729 2.294 . S
O1740 C1733 1.240 . S
O1741 In1729 2.326 . S
O1741 C1733 1.252 . S
In1742 O1743 2.294 . S
In1742 O1744 2.326 . S
In1742 O1748 2.266 . S
In1742 O1749 2.326 . S
In1742 O1750 2.266 . S
In1742 O1751 2.326 . S
In1742 O1753 2.294 . S
In1742 O1754 2.326 . S
O1743 In1742 2.294 . S
O1743 C1752 1.240 . S
O1744 In1742 2.326 . S
O1744 C1752 1.252 . S
C1745 O1748 1.252 . S
C1745 O1749 1.260 . S
C1746 O1753 1.240 . S
C1746 O1754 1.252 . S
C1747 O1750 1.252 . S
C1747 O1751 1.260 . S
O1748 In1742 2.266 . S
O1748 C1745 1.252 . S
O1749 In1742 2.326 . S
O1749 C1745 1.260 . S
O1750 In1742 2.266 . S
O1750 C1747 1.252 . S
O1751 In1742 2.326 . S
O1751 C1747 1.260 . S
C1752 O1743 1.240 . S
C1752 O1744 1.252 . S
O1753 In1742 2.294 . S
O1753 C1746 1.240 . S
O1754 In1742 2.326 . S
O1754 C1746 1.252 . S
In1755 O1756 2.294 . S
In1755 O1757 2.326 . S
In1755 O1761 2.266 . S
In1755 O1762 2.326 . S
In1755 O1763 2.266 . S
In1755 O1764 2.326 . S
In1755 O1766 2.294 . S
In1755 O1767 2.326 . S
O1756 In1755 2.294 . S
O1756 C1765 1.240 . S
O1757 In1755 2.326 . S
O1757 C1765 1.252 . S
C1758 O1761 1.252 . S
C1758 O1762 1.260 . S
C1759 O1766 1.240 . S
C1759 O1767 1.252 . S
C1760 O1763 1.252 . S
C1760 O1764 1.260 . S
O1761 In1755 2.266 . S
O1761 C1758 1.252 . S
O1762 In1755 2.326 . S
O1762 C1758 1.260 . S
O1763 In1755 2.266 . S
O1763 C1760 1.252 . S
O1764 In1755 2.326 . S
O1764 C1760 1.260 . S
C1765 O1756 1.240 . S
C1765 O1757 1.252 . S
O1766 In1755 2.294 . S
O1766 C1759 1.240 . S
O1767 In1755 2.326 . S
O1767 C1759 1.252 . S
In1768 O1769 2.294 . S
In1768 O1770 2.326 . S
In1768 O1774 2.266 . S
In1768 O1775 2.326 . S
In1768 O1776 2.266 . S
In1768 O1777 2.326 . S
In1768 O1779 2.294 . S
In1768 O1780 2.326 . S
O1769 In1768 2.294 . S
O1769 C1778 1.240 . S
O1770 In1768 2.326 . S
O1770 C1778 1.252 . S
C1771 O1774 1.252 . S
C1771 O1775 1.260 . S
C1772 O1779 1.240 . S
C1772 O1780 1.252 . S
C1773 O1776 1.252 . S
C1773 O1777 1.260 . S
O1774 In1768 2.266 . S
O1774 C1771 1.252 . S
O1775 In1768 2.326 . S
O1775 C1771 1.260 . S
O1776 In1768 2.266 . S
O1776 C1773 1.252 . S
O1777 In1768 2.326 . S
O1777 C1773 1.260 . S
C1778 O1769 1.240 . S
C1778 O1770 1.252 . S
O1779 In1768 2.294 . S
O1779 C1772 1.240 . S
O1780 In1768 2.326 . S
O1780 C1772 1.252 . S
In1781 O1782 2.294 . S
In1781 O1783 2.326 . S
In1781 O1787 2.266 . S
In1781 O1788 2.326 . S
In1781 O1789 2.266 . S
In1781 O1790 2.326 . S
In1781 O1792 2.294 . S
In1781 O1793 2.326 . S
O1782 In1781 2.294 . S
O1782 C1791 1.240 . S
O1783 In1781 2.326 . S
O1783 C1791 1.252 . S
C1784 O1787 1.252 . S
C1784 O1788 1.260 . S
C1785 O1792 1.240 . S
C1785 O1793 1.252 . S
C1786 O1789 1.252 . S
C1786 O1790 1.260 . S
O1787 In1781 2.266 . S
O1787 C1784 1.252 . S
O1788 In1781 2.326 . S
O1788 C1784 1.260 . S
O1789 In1781 2.266 . S
O1789 C1786 1.252 . S
O1790 In1781 2.326 . S
O1790 C1786 1.260 . S
C1791 O1782 1.240 . S
C1791 O1783 1.252 . S
O1792 In1781 2.294 . S
O1792 C1785 1.240 . S
O1793 In1781 2.326 . S
O1793 C1785 1.252 . S
In1794 O1795 2.294 . S
In1794 O1796 2.326 . S
In1794 O1800 2.266 . S
In1794 O1801 2.326 . S
In1794 O1802 2.266 . S
In1794 O1803 2.326 . S
In1794 O1805 2.294 . S
In1794 O1806 2.326 . S
O1795 In1794 2.294 . S
O1795 C1804 1.240 . S
O1796 In1794 2.326 . S
O1796 C1804 1.252 . S
C1797 O1800 1.252 . S
C1797 O1801 1.260 . S
C1798 O1805 1.240 . S
C1798 O1806 1.252 . S
C1799 O1802 1.252 . S
C1799 O1803 1.260 . S
O1800 In1794 2.266 . S
O1800 C1797 1.252 . S
O1801 In1794 2.326 . S
O1801 C1797 1.260 . S
O1802 In1794 2.266 . S
O1802 C1799 1.252 . S
O1803 In1794 2.326 . S
O1803 C1799 1.260 . S
C1804 O1795 1.240 . S
C1804 O1796 1.252 . S
O1805 In1794 2.294 . S
O1805 C1798 1.240 . S
O1806 In1794 2.326 . S
O1806 C1798 1.252 . S
In1807 O1808 2.294 . S
In1807 O1809 2.326 . S
In1807 O1813 2.266 . S
In1807 O1814 2.326 . S
In1807 O1815 2.266 . S
In1807 O1816 2.326 . S
In1807 O1818 2.294 . S
In1807 O1819 2.326 . S
O1808 In1807 2.294 . S
O1808 C1817 1.240 . S
O1809 In1807 2.326 . S
O1809 C1817 1.252 . S
C1810 O1813 1.252 . S
C1810 O1814 1.260 . S
C1811 O1818 1.240 . S
C1811 O1819 1.252 . S
C1812 O1815 1.252 . S
C1812 O1816 1.260 . S
O1813 In1807 2.266 . S
O1813 C1810 1.252 . S
O1814 In1807 2.326 . S
O1814 C1810 1.260 . S
O1815 In1807 2.266 . S
O1815 C1812 1.252 . S
O1816 In1807 2.326 . S
O1816 C1812 1.260 . S
C1817 O1808 1.240 . S
C1817 O1809 1.252 . S
O1818 In1807 2.294 . S
O1818 C1811 1.240 . S
O1819 In1807 2.326 . S
O1819 C1811 1.252 . S
In1820 O1821 2.294 . S
In1820 O1822 2.326 . S
In1820 O1826 2.266 . S
In1820 O1827 2.326 . S
In1820 O1828 2.266 . S
In1820 O1829 2.326 . S
In1820 O1831 2.294 . S
In1820 O1832 2.326 . S
O1821 In1820 2.294 . S
O1821 C1830 1.240 . S
O1822 In1820 2.326 . S
O1822 C1830 1.252 . S
C1823 O1826 1.252 . S
C1823 O1827 1.260 . S
C1824 O1831 1.240 . S
C1824 O1832 1.252 . S
C1825 O1828 1.252 . S
C1825 O1829 1.260 . S
O1826 In1820 2.266 . S
O1826 C1823 1.252 . S
O1827 In1820 2.326 . S
O1827 C1823 1.260 . S
O1828 In1820 2.266 . S
O1828 C1825 1.252 . S
O1829 In1820 2.326 . S
O1829 C1825 1.260 . S
C1830 O1821 1.240 . S
C1830 O1822 1.252 . S
O1831 In1820 2.294 . S
O1831 C1824 1.240 . S
O1832 In1820 2.326 . S
O1832 C1824 1.252 . S
In1833 O1834 2.294 . S
In1833 O1835 2.326 . S
In1833 O1839 2.266 . S
In1833 O1840 2.326 . S
In1833 O1841 2.266 . S
In1833 O1842 2.326 . S
In1833 O1844 2.294 . S
In1833 O1845 2.326 . S
O1834 In1833 2.294 . S
O1834 C1843 1.240 . S
O1835 In1833 2.326 . S
O1835 C1843 1.252 . S
C1836 O1839 1.252 . S
C1836 O1840 1.260 . S
C1837 O1844 1.240 . S
C1837 O1845 1.252 . S
C1838 O1841 1.252 . S
C1838 O1842 1.260 . S
O1839 In1833 2.266 . S
O1839 C1836 1.252 . S
O1840 In1833 2.326 . S
O1840 C1836 1.260 . S
O1841 In1833 2.266 . S
O1841 C1838 1.252 . S
O1842 In1833 2.326 . S
O1842 C1838 1.260 . S
C1843 O1834 1.240 . S
C1843 O1835 1.252 . S
O1844 In1833 2.294 . S
O1844 C1837 1.240 . S
O1845 In1833 2.326 . S
O1845 C1837 1.252 . S
In1846 O1847 2.294 . S
In1846 O1848 2.326 . S
In1846 O1852 2.266 . S
In1846 O1853 2.326 . S
In1846 O1854 2.266 . S
In1846 O1855 2.326 . S
In1846 O1857 2.294 . S
In1846 O1858 2.326 . S
O1847 In1846 2.294 . S
O1847 C1856 1.240 . S
O1848 In1846 2.326 . S
O1848 C1856 1.252 . S
C1849 O1852 1.252 . S
C1849 O1853 1.260 . S
C1850 O1857 1.240 . S
C1850 O1858 1.252 . S
C1851 O1854 1.252 . S
C1851 O1855 1.260 . S
O1852 In1846 2.266 . S
O1852 C1849 1.252 . S
O1853 In1846 2.326 . S
O1853 C1849 1.260 . S
O1854 In1846 2.266 . S
O1854 C1851 1.252 . S
O1855 In1846 2.326 . S
O1855 C1851 1.260 . S
C1856 O1847 1.240 . S
C1856 O1848 1.252 . S
O1857 In1846 2.294 . S
O1857 C1850 1.240 . S
O1858 In1846 2.326 . S
O1858 C1850 1.252 . S
In1859 O1860 2.294 . S
In1859 O1861 2.326 . S
In1859 O1865 2.266 . S
In1859 O1866 2.326 . S
In1859 O1867 2.266 . S
In1859 O1868 2.326 . S
In1859 O1870 2.294 . S
In1859 O1871 2.326 . S
O1860 In1859 2.294 . S
O1860 C1869 1.240 . S
O1861 In1859 2.326 . S
O1861 C1869 1.252 . S
C1862 O1865 1.252 . S
C1862 O1866 1.260 . S
C1863 O1870 1.240 . S
C1863 O1871 1.252 . S
C1864 O1867 1.252 . S
C1864 O1868 1.260 . S
O1865 In1859 2.266 . S
O1865 C1862 1.252 . S
O1866 In1859 2.326 . S
O1866 C1862 1.260 . S
O1867 In1859 2.266 . S
O1867 C1864 1.252 . S
O1868 In1859 2.326 . S
O1868 C1864 1.260 . S
C1869 O1860 1.240 . S
C1869 O1861 1.252 . S
O1870 In1859 2.294 . S
O1870 C1863 1.240 . S
O1871 In1859 2.326 . S
O1871 C1863 1.252 . S
In1872 O1873 2.294 . S
In1872 O1874 2.326 . S
In1872 O1878 2.266 . S
In1872 O1879 2.326 . S
In1872 O1880 2.266 . S
In1872 O1881 2.326 . S
In1872 O1883 2.294 . S
In1872 O1884 2.326 . S
O1873 In1872 2.294 . S
O1873 C1882 1.240 . S
O1874 In1872 2.326 . S
O1874 C1882 1.252 . S
C1875 O1878 1.252 . S
C1875 O1879 1.260 . S
C1876 O1883 1.240 . S
C1876 O1884 1.252 . S
C1877 O1880 1.252 . S
C1877 O1881 1.260 . S
O1878 In1872 2.266 . S
O1878 C1875 1.252 . S
O1879 In1872 2.326 . S
O1879 C1875 1.260 . S
O1880 In1872 2.266 . S
O1880 C1877 1.252 . S
O1881 In1872 2.326 . S
O1881 C1877 1.260 . S
C1882 O1873 1.240 . S
C1882 O1874 1.252 . S
O1883 In1872 2.294 . S
O1883 C1876 1.240 . S
O1884 In1872 2.326 . S
O1884 C1876 1.252 . S
In1885 O1886 2.294 . S
In1885 O1887 2.326 . S
In1885 O1891 2.266 . S
In1885 O1892 2.326 . S
In1885 O1893 2.266 . S
In1885 O1894 2.326 . S
In1885 O1896 2.294 . S
In1885 O1897 2.326 . S
O1886 In1885 2.294 . S
O1886 C1895 1.240 . S
O1887 In1885 2.326 . S
O1887 C1895 1.252 . S
C1888 O1891 1.252 . S
C1888 O1892 1.260 . S
C1889 O1896 1.240 . S
C1889 O1897 1.252 . S
C1890 O1893 1.252 . S
C1890 O1894 1.260 . S
O1891 In1885 2.266 . S
O1891 C1888 1.252 . S
O1892 In1885 2.326 . S
O1892 C1888 1.260 . S
O1893 In1885 2.266 . S
O1893 C1890 1.252 . S
O1894 In1885 2.326 . S
O1894 C1890 1.260 . S
C1895 O1886 1.240 . S
C1895 O1887 1.252 . S
O1896 In1885 2.294 . S
O1896 C1889 1.240 . S
O1897 In1885 2.326 . S
O1897 C1889 1.252 . S
In1898 O1899 2.294 . S
In1898 O1900 2.326 . S
In1898 O1904 2.266 . S
In1898 O1905 2.326 . S
In1898 O1906 2.266 . S
In1898 O1907 2.326 . S
In1898 O1909 2.294 . S
In1898 O1910 2.326 . S
O1899 In1898 2.294 . S
O1899 C1908 1.240 . S
O1900 In1898 2.326 . S
O1900 C1908 1.252 . S
C1901 O1904 1.252 . S
C1901 O1905 1.260 . S
C1902 O1909 1.240 . S
C1902 O1910 1.252 . S
C1903 O1906 1.252 . S
C1903 O1907 1.260 . S
O1904 In1898 2.266 . S
O1904 C1901 1.252 . S
O1905 In1898 2.326 . S
O1905 C1901 1.260 . S
O1906 In1898 2.266 . S
O1906 C1903 1.252 . S
O1907 In1898 2.326 . S
O1907 C1903 1.260 . S
C1908 O1899 1.240 . S
C1908 O1900 1.252 . S
O1909 In1898 2.294 . S
O1909 C1902 1.240 . S
O1910 In1898 2.326 . S
O1910 C1902 1.252 . S
In1911 O1912 2.294 . S
In1911 O1913 2.326 . S
In1911 O1917 2.266 . S
In1911 O1918 2.326 . S
In1911 O1919 2.266 . S
In1911 O1920 2.326 . S
In1911 O1922 2.294 . S
In1911 O1923 2.326 . S
O1912 In1911 2.294 . S
O1912 C1921 1.240 . S
O1913 In1911 2.326 . S
O1913 C1921 1.252 . S
C1914 O1917 1.252 . S
C1914 O1918 1.260 . S
C1915 O1922 1.240 . S
C1915 O1923 1.252 . S
C1916 O1919 1.252 . S
C1916 O1920 1.260 . S
O1917 In1911 2.266 . S
O1917 C1914 1.252 . S
O1918 In1911 2.326 . S
O1918 C1914 1.260 . S
O1919 In1911 2.266 . S
O1919 C1916 1.252 . S
O1920 In1911 2.326 . S
O1920 C1916 1.260 . S
C1921 O1912 1.240 . S
C1921 O1913 1.252 . S
O1922 In1911 2.294 . S
O1922 C1915 1.240 . S
O1923 In1911 2.326 . S
O1923 C1915 1.252 . S
In1924 O1925 2.294 . S
In1924 O1926 2.326 . S
In1924 O1930 2.266 . S
In1924 O1931 2.326 . S
In1924 O1932 2.266 . S
In1924 O1933 2.326 . S
In1924 O1935 2.294 . S
In1924 O1936 2.326 . S
O1925 In1924 2.294 . S
O1925 C1934 1.240 . S
O1926 In1924 2.326 . S
O1926 C1934 1.252 . S
C1927 O1930 1.252 . S
C1927 O1931 1.260 . S
C1928 O1935 1.240 . S
C1928 O1936 1.252 . S
C1929 O1932 1.252 . S
C1929 O1933 1.260 . S
O1930 In1924 2.266 . S
O1930 C1927 1.252 . S
O1931 In1924 2.326 . S
O1931 C1927 1.260 . S
O1932 In1924 2.266 . S
O1932 C1929 1.252 . S
O1933 In1924 2.326 . S
O1933 C1929 1.260 . S
C1934 O1925 1.240 . S
C1934 O1926 1.252 . S
O1935 In1924 2.294 . S
O1935 C1928 1.240 . S
O1936 In1924 2.326 . S
O1936 C1928 1.252 . S
In1937 O1938 2.294 . S
In1937 O1939 2.326 . S
In1937 O1943 2.266 . S
In1937 O1944 2.326 . S
In1937 O1945 2.266 . S
In1937 O1946 2.326 . S
In1937 O1948 2.294 . S
In1937 O1949 2.326 . S
O1938 In1937 2.294 . S
O1938 C1947 1.240 . S
O1939 In1937 2.326 . S
O1939 C1947 1.252 . S
C1940 O1943 1.252 . S
C1940 O1944 1.260 . S
C1941 O1948 1.240 . S
C1941 O1949 1.252 . S
C1942 O1945 1.252 . S
C1942 O1946 1.260 . S
O1943 In1937 2.266 . S
O1943 C1940 1.252 . S
O1944 In1937 2.326 . S
O1944 C1940 1.260 . S
O1945 In1937 2.266 . S
O1945 C1942 1.252 . S
O1946 In1937 2.326 . S
O1946 C1942 1.260 . S
C1947 O1938 1.240 . S
C1947 O1939 1.252 . S
O1948 In1937 2.294 . S
O1948 C1941 1.240 . S
O1949 In1937 2.326 . S
O1949 C1941 1.252 . S
In1950 O1951 2.294 . S
In1950 O1952 2.326 . S
In1950 O1956 2.266 . S
In1950 O1957 2.326 . S
In1950 O1958 2.266 . S
In1950 O1959 2.326 . S
In1950 O1961 2.294 . S
In1950 O1962 2.326 . S
O1951 In1950 2.294 . S
O1951 C1960 1.240 . S
O1952 In1950 2.326 . S
O1952 C1960 1.252 . S
C1953 O1956 1.252 . S
C1953 O1957 1.260 . S
C1954 O1961 1.240 . S
C1954 O1962 1.252 . S
C1955 O1958 1.252 . S
C1955 O1959 1.260 . S
O1956 In1950 2.266 . S
O1956 C1953 1.252 . S
O1957 In1950 2.326 . S
O1957 C1953 1.260 . S
O1958 In1950 2.266 . S
O1958 C1955 1.252 . S
O1959 In1950 2.326 . S
O1959 C1955 1.260 . S
C1960 O1951 1.240 . S
C1960 O1952 1.252 . S
O1961 In1950 2.294 . S
O1961 C1954 1.240 . S
O1962 In1950 2.326 . S
O1962 C1954 1.252 . S
In1963 O1964 2.294 . S
In1963 O1965 2.326 . S
In1963 O1969 2.266 . S
In1963 O1970 2.326 . S
In1963 O1971 2.266 . S
In1963 O1972 2.326 . S
In1963 O1974 2.294 . S
In1963 O1975 2.326 . S
O1964 In1963 2.294 . S
O1964 C1973 1.240 . S
O1965 In1963 2.326 . S
O1965 C1973 1.252 . S
C1966 O1969 1.252 . S
C1966 O1970 1.260 . S
C1967 O1974 1.240 . S
C1967 O1975 1.252 . S
C1968 O1971 1.252 . S
C1968 O1972 1.260 . S
O1969 In1963 2.266 . S
O1969 C1966 1.252 . S
O1970 In1963 2.326 . S
O1970 C1966 1.260 . S
O1971 In1963 2.266 . S
O1971 C1968 1.252 . S
O1972 In1963 2.326 . S
O1972 C1968 1.260 . S
C1973 O1964 1.240 . S
C1973 O1965 1.252 . S
O1974 In1963 2.294 . S
O1974 C1967 1.240 . S
O1975 In1963 2.326 . S
O1975 C1967 1.252 . S
In1976 O1977 2.294 . S
In1976 O1978 2.326 . S
In1976 O1982 2.266 . S
In1976 O1983 2.326 . S
In1976 O1984 2.266 . S
In1976 O1985 2.326 . S
In1976 O1987 2.294 . S
In1976 O1988 2.326 . S
O1977 In1976 2.294 . S
O1977 C1986 1.240 . S
O1978 In1976 2.326 . S
O1978 C1986 1.252 . S
C1979 O1982 1.252 . S
C1979 O1983 1.260 . S
C1980 O1987 1.240 . S
C1980 O1988 1.252 . S
C1981 O1984 1.252 . S
C1981 O1985 1.260 . S
O1982 In1976 2.266 . S
O1982 C1979 1.252 . S
O1983 In1976 2.326 . S
O1983 C1979 1.260 . S
O1984 In1976 2.266 . S
O1984 C1981 1.252 . S
O1985 In1976 2.326 . S
O1985 C1981 1.260 . S
C1986 O1977 1.240 . S
C1986 O1978 1.252 . S
O1987 In1976 2.294 . S
O1987 C1980 1.240 . S
O1988 In1976 2.326 . S
O1988 C1980 1.252 . S
In1989 O1990 2.294 . S
In1989 O1991 2.326 . S
In1989 O1995 2.266 . S
In1989 O1996 2.326 . S
In1989 O1997 2.266 . S
In1989 O1998 2.326 . S
In1989 O2000 2.294 . S
In1989 O2001 2.326 . S
O1990 In1989 2.294 . S
O1990 C1999 1.240 . S
O1991 In1989 2.326 . S
O1991 C1999 1.252 . S
C1992 O1995 1.252 . S
C1992 O1996 1.260 . S
C1993 O2000 1.240 . S
C1993 O2001 1.252 . S
C1994 O1997 1.252 . S
C1994 O1998 1.260 . S
O1995 In1989 2.266 . S
O1995 C1992 1.252 . S
O1996 In1989 2.326 . S
O1996 C1992 1.260 . S
O1997 In1989 2.266 . S
O1997 C1994 1.252 . S
O1998 In1989 2.326 . S
O1998 C1994 1.260 . S
C1999 O1990 1.240 . S
C1999 O1991 1.252 . S
O2000 In1989 2.294 . S
O2000 C1993 1.240 . S
O2001 In1989 2.326 . S
O2001 C1993 1.252 . S
In2002 O2003 2.294 . S
In2002 O2004 2.326 . S
In2002 O2008 2.266 . S
In2002 O2009 2.326 . S
In2002 O2010 2.266 . S
In2002 O2011 2.326 . S
In2002 O2013 2.294 . S
In2002 O2014 2.326 . S
O2003 In2002 2.294 . S
O2003 C2012 1.240 . S
O2004 In2002 2.326 . S
O2004 C2012 1.252 . S
C2005 O2008 1.252 . S
C2005 O2009 1.260 . S
C2006 O2013 1.240 . S
C2006 O2014 1.252 . S
C2007 O2010 1.252 . S
C2007 O2011 1.260 . S
O2008 In2002 2.266 . S
O2008 C2005 1.252 . S
O2009 In2002 2.326 . S
O2009 C2005 1.260 . S
O2010 In2002 2.266 . S
O2010 C2007 1.252 . S
O2011 In2002 2.326 . S
O2011 C2007 1.260 . S
C2012 O2003 1.240 . S
C2012 O2004 1.252 . S
O2013 In2002 2.294 . S
O2013 C2006 1.240 . S
O2014 In2002 2.326 . S
O2014 C2006 1.252 . S
In2015 O2016 2.294 . S
In2015 O2017 2.326 . S
In2015 O2021 2.266 . S
In2015 O2022 2.326 . S
In2015 O2023 2.266 . S
In2015 O2024 2.326 . S
In2015 O2026 2.294 . S
In2015 O2027 2.326 . S
O2016 In2015 2.294 . S
O2016 C2025 1.240 . S
O2017 In2015 2.326 . S
O2017 C2025 1.252 . S
C2018 O2021 1.252 . S
C2018 O2022 1.260 . S
C2019 O2026 1.240 . S
C2019 O2027 1.252 . S
C2020 O2023 1.252 . S
C2020 O2024 1.260 . S
O2021 In2015 2.266 . S
O2021 C2018 1.252 . S
O2022 In2015 2.326 . S
O2022 C2018 1.260 . S
O2023 In2015 2.266 . S
O2023 C2020 1.252 . S
O2024 In2015 2.326 . S
O2024 C2020 1.260 . S
C2025 O2016 1.240 . S
C2025 O2017 1.252 . S
O2026 In2015 2.294 . S
O2026 C2019 1.240 . S
O2027 In2015 2.326 . S
O2027 C2019 1.252 . S
In2028 O2029 2.294 . S
In2028 O2030 2.326 . S
In2028 O2034 2.266 . S
In2028 O2035 2.326 . S
In2028 O2036 2.266 . S
In2028 O2037 2.326 . S
In2028 O2039 2.294 . S
In2028 O2040 2.326 . S
O2029 In2028 2.294 . S
O2029 C2038 1.240 . S
O2030 In2028 2.326 . S
O2030 C2038 1.252 . S
C2031 O2034 1.252 . S
C2031 O2035 1.260 . S
C2032 O2039 1.240 . S
C2032 O2040 1.252 . S
C2033 O2036 1.252 . S
C2033 O2037 1.260 . S
O2034 In2028 2.266 . S
O2034 C2031 1.252 . S
O2035 In2028 2.326 . S
O2035 C2031 1.260 . S
O2036 In2028 2.266 . S
O2036 C2033 1.252 . S
O2037 In2028 2.326 . S
O2037 C2033 1.260 . S
C2038 O2029 1.240 . S
C2038 O2030 1.252 . S
O2039 In2028 2.294 . S
O2039 C2032 1.240 . S
O2040 In2028 2.326 . S
O2040 C2032 1.252 . S
In2041 O2042 2.294 . S
In2041 O2043 2.326 . S
In2041 O2047 2.266 . S
In2041 O2048 2.326 . S
In2041 O2049 2.266 . S
In2041 O2050 2.326 . S
In2041 O2052 2.294 . S
In2041 O2053 2.326 . S
O2042 In2041 2.294 . S
O2042 C2051 1.240 . S
O2043 In2041 2.326 . S
O2043 C2051 1.252 . S
C2044 O2047 1.252 . S
C2044 O2048 1.260 . S
C2045 O2052 1.240 . S
C2045 O2053 1.252 . S
C2046 O2049 1.252 . S
C2046 O2050 1.260 . S
O2047 In2041 2.266 . S
O2047 C2044 1.252 . S
O2048 In2041 2.326 . S
O2048 C2044 1.260 . S
O2049 In2041 2.266 . S
O2049 C2046 1.252 . S
O2050 In2041 2.326 . S
O2050 C2046 1.260 . S
C2051 O2042 1.240 . S
C2051 O2043 1.252 . S
O2052 In2041 2.294 . S
O2052 C2045 1.240 . S
O2053 In2041 2.326 . S
O2053 C2045 1.252 . S
In2054 O2055 2.294 . S
In2054 O2056 2.326 . S
In2054 O2060 2.266 . S
In2054 O2061 2.326 . S
In2054 O2062 2.266 . S
In2054 O2063 2.326 . S
In2054 O2065 2.294 . S
In2054 O2066 2.326 . S
O2055 In2054 2.294 . S
O2055 C2064 1.240 . S
O2056 In2054 2.326 . S
O2056 C2064 1.252 . S
C2057 O2060 1.252 . S
C2057 O2061 1.260 . S
C2058 O2065 1.240 . S
C2058 O2066 1.252 . S
C2059 O2062 1.252 . S
C2059 O2063 1.260 . S
O2060 In2054 2.266 . S
O2060 C2057 1.252 . S
O2061 In2054 2.326 . S
O2061 C2057 1.260 . S
O2062 In2054 2.266 . S
O2062 C2059 1.252 . S
O2063 In2054 2.326 . S
O2063 C2059 1.260 . S
C2064 O2055 1.240 . S
C2064 O2056 1.252 . S
O2065 In2054 2.294 . S
O2065 C2058 1.240 . S
O2066 In2054 2.326 . S
O2066 C2058 1.252 . S
In2067 O2068 2.294 . S
In2067 O2069 2.326 . S
In2067 O2073 2.266 . S
In2067 O2074 2.326 . S
In2067 O2075 2.266 . S
In2067 O2076 2.326 . S
In2067 O2078 2.294 . S
In2067 O2079 2.326 . S
O2068 In2067 2.294 . S
O2068 C2077 1.240 . S
O2069 In2067 2.326 . S
O2069 C2077 1.252 . S
C2070 O2073 1.252 . S
C2070 O2074 1.260 . S
C2071 O2078 1.240 . S
C2071 O2079 1.252 . S
C2072 O2075 1.252 . S
C2072 O2076 1.260 . S
O2073 In2067 2.266 . S
O2073 C2070 1.252 . S
O2074 In2067 2.326 . S
O2074 C2070 1.260 . S
O2075 In2067 2.266 . S
O2075 C2072 1.252 . S
O2076 In2067 2.326 . S
O2076 C2072 1.260 . S
C2077 O2068 1.240 . S
C2077 O2069 1.252 . S
O2078 In2067 2.294 . S
O2078 C2071 1.240 . S
O2079 In2067 2.326 . S
O2079 C2071 1.252 . S
In2080 O2081 2.294 . S
In2080 O2082 2.326 . S
In2080 O2086 2.266 . S
In2080 O2087 2.326 . S
In2080 O2088 2.266 . S
In2080 O2089 2.326 . S
In2080 O2091 2.294 . S
In2080 O2092 2.326 . S
O2081 In2080 2.294 . S
O2081 C2090 1.240 . S
O2082 In2080 2.326 . S
O2082 C2090 1.252 . S
C2083 O2086 1.252 . S
C2083 O2087 1.260 . S
C2084 O2091 1.240 . S
C2084 O2092 1.252 . S
C2085 O2088 1.252 . S
C2085 O2089 1.260 . S
O2086 In2080 2.266 . S
O2086 C2083 1.252 . S
O2087 In2080 2.326 . S
O2087 C2083 1.260 . S
O2088 In2080 2.266 . S
O2088 C2085 1.252 . S
O2089 In2080 2.326 . S
O2089 C2085 1.260 . S
C2090 O2081 1.240 . S
C2090 O2082 1.252 . S
O2091 In2080 2.294 . S
O2091 C2084 1.240 . S
O2092 In2080 2.326 . S
O2092 C2084 1.252 . S
In2093 O2094 2.294 . S
In2093 O2095 2.326 . S
In2093 O2099 2.266 . S
In2093 O2100 2.326 . S
In2093 O2101 2.266 . S
In2093 O2102 2.326 . S
In2093 O2104 2.294 . S
In2093 O2105 2.326 . S
O2094 In2093 2.294 . S
O2094 C2103 1.240 . S
O2095 In2093 2.326 . S
O2095 C2103 1.252 . S
C2096 O2099 1.252 . S
C2096 O2100 1.260 . S
C2097 O2104 1.240 . S
C2097 O2105 1.252 . S
C2098 O2101 1.252 . S
C2098 O2102 1.260 . S
O2099 In2093 2.266 . S
O2099 C2096 1.252 . S
O2100 In2093 2.326 . S
O2100 C2096 1.260 . S
O2101 In2093 2.266 . S
O2101 C2098 1.252 . S
O2102 In2093 2.326 . S
O2102 C2098 1.260 . S
C2103 O2094 1.240 . S
C2103 O2095 1.252 . S
O2104 In2093 2.294 . S
O2104 C2097 1.240 . S
O2105 In2093 2.326 . S
O2105 C2097 1.252 . S
In2106 O2107 2.294 . S
In2106 O2108 2.326 . S
In2106 O2112 2.266 . S
In2106 O2113 2.326 . S
In2106 O2114 2.266 . S
In2106 O2115 2.326 . S
In2106 O2117 2.294 . S
In2106 O2118 2.326 . S
O2107 In2106 2.294 . S
O2107 C2116 1.240 . S
O2108 In2106 2.326 . S
O2108 C2116 1.252 . S
C2109 O2112 1.252 . S
C2109 O2113 1.260 . S
C2110 O2117 1.240 . S
C2110 O2118 1.252 . S
C2111 O2114 1.252 . S
C2111 O2115 1.260 . S
O2112 In2106 2.266 . S
O2112 C2109 1.252 . S
O2113 In2106 2.326 . S
O2113 C2109 1.260 . S
O2114 In2106 2.266 . S
O2114 C2111 1.252 . S
O2115 In2106 2.326 . S
O2115 C2111 1.260 . S
C2116 O2107 1.240 . S
C2116 O2108 1.252 . S
O2117 In2106 2.294 . S
O2117 C2110 1.240 . S
O2118 In2106 2.326 . S
O2118 C2110 1.252 . S
In2119 O2120 2.294 . S
In2119 O2121 2.326 . S
In2119 O2125 2.266 . S
In2119 O2126 2.326 . S
In2119 O2127 2.266 . S
In2119 O2128 2.326 . S
In2119 O2130 2.294 . S
In2119 O2131 2.326 . S
O2120 In2119 2.294 . S
O2120 C2129 1.240 . S
O2121 In2119 2.326 . S
O2121 C2129 1.252 . S
C2122 O2125 1.252 . S
C2122 O2126 1.260 . S
C2123 O2130 1.240 . S
C2123 O2131 1.252 . S
C2124 O2127 1.252 . S
C2124 O2128 1.260 . S
O2125 In2119 2.266 . S
O2125 C2122 1.252 . S
O2126 In2119 2.326 . S
O2126 C2122 1.260 . S
O2127 In2119 2.266 . S
O2127 C2124 1.252 . S
O2128 In2119 2.326 . S
O2128 C2124 1.260 . S
C2129 O2120 1.240 . S
C2129 O2121 1.252 . S
O2130 In2119 2.294 . S
O2130 C2123 1.240 . S
O2131 In2119 2.326 . S
O2131 C2123 1.252 . S
In2132 O2133 2.294 . S
In2132 O2134 2.326 . S
In2132 O2138 2.266 . S
In2132 O2139 2.326 . S
In2132 O2140 2.266 . S
In2132 O2141 2.326 . S
In2132 O2143 2.294 . S
In2132 O2144 2.326 . S
O2133 In2132 2.294 . S
O2133 C2142 1.240 . S
O2134 In2132 2.326 . S
O2134 C2142 1.252 . S
C2135 O2138 1.252 . S
C2135 O2139 1.260 . S
C2136 O2143 1.240 . S
C2136 O2144 1.252 . S
C2137 O2140 1.252 . S
C2137 O2141 1.260 . S
O2138 In2132 2.266 . S
O2138 C2135 1.252 . S
O2139 In2132 2.326 . S
O2139 C2135 1.260 . S
O2140 In2132 2.266 . S
O2140 C2137 1.252 . S
O2141 In2132 2.326 . S
O2141 C2137 1.260 . S
C2142 O2133 1.240 . S
C2142 O2134 1.252 . S
O2143 In2132 2.294 . S
O2143 C2136 1.240 . S
O2144 In2132 2.326 . S
O2144 C2136 1.252 . S
In2145 O2146 2.294 . S
In2145 O2147 2.326 . S
In2145 O2151 2.266 . S
In2145 O2152 2.326 . S
In2145 O2153 2.266 . S
In2145 O2154 2.326 . S
In2145 O2156 2.294 . S
In2145 O2157 2.326 . S
O2146 In2145 2.294 . S
O2146 C2155 1.240 . S
O2147 In2145 2.326 . S
O2147 C2155 1.252 . S
C2148 O2151 1.252 . S
C2148 O2152 1.260 . S
C2149 O2156 1.240 . S
C2149 O2157 1.252 . S
C2150 O2153 1.252 . S
C2150 O2154 1.260 . S
O2151 In2145 2.266 . S
O2151 C2148 1.252 . S
O2152 In2145 2.326 . S
O2152 C2148 1.260 . S
O2153 In2145 2.266 . S
O2153 C2150 1.252 . S
O2154 In2145 2.326 . S
O2154 C2150 1.260 . S
C2155 O2146 1.240 . S
C2155 O2147 1.252 . S
O2156 In2145 2.294 . S
O2156 C2149 1.240 . S
O2157 In2145 2.326 . S
O2157 C2149 1.252 . S
In2158 O2159 2.294 . S
In2158 O2160 2.326 . S
In2158 O2164 2.266 . S
In2158 O2165 2.326 . S
In2158 O2166 2.266 . S
In2158 O2167 2.326 . S
In2158 O2169 2.294 . S
In2158 O2170 2.326 . S
O2159 In2158 2.294 . S
O2159 C2168 1.240 . S
O2160 In2158 2.326 . S
O2160 C2168 1.252 . S
C2161 O2164 1.252 . S
C2161 O2165 1.260 . S
C2162 O2169 1.240 . S
C2162 O2170 1.252 . S
C2163 O2166 1.252 . S
C2163 O2167 1.260 . S
O2164 In2158 2.266 . S
O2164 C2161 1.252 . S
O2165 In2158 2.326 . S
O2165 C2161 1.260 . S
O2166 In2158 2.266 . S
O2166 C2163 1.252 . S
O2167 In2158 2.326 . S
O2167 C2163 1.260 . S
C2168 O2159 1.240 . S
C2168 O2160 1.252 . S
O2169 In2158 2.294 . S
O2169 C2162 1.240 . S
O2170 In2158 2.326 . S
O2170 C2162 1.252 . S
In2171 O2172 2.294 . S
In2171 O2173 2.326 . S
In2171 O2177 2.266 . S
In2171 O2178 2.326 . S
In2171 O2179 2.266 . S
In2171 O2180 2.326 . S
In2171 O2182 2.294 . S
In2171 O2183 2.326 . S
O2172 In2171 2.294 . S
O2172 C2181 1.240 . S
O2173 In2171 2.326 . S
O2173 C2181 1.252 . S
C2174 O2177 1.252 . S
C2174 O2178 1.260 . S
C2175 O2182 1.240 . S
C2175 O2183 1.252 . S
C2176 O2179 1.252 . S
C2176 O2180 1.260 . S
O2177 In2171 2.266 . S
O2177 C2174 1.252 . S
O2178 In2171 2.326 . S
O2178 C2174 1.260 . S
O2179 In2171 2.266 . S
O2179 C2176 1.252 . S
O2180 In2171 2.326 . S
O2180 C2176 1.260 . S
C2181 O2172 1.240 . S
C2181 O2173 1.252 . S
O2182 In2171 2.294 . S
O2182 C2175 1.240 . S
O2183 In2171 2.326 . S
O2183 C2175 1.252 . S
In2184 O2185 2.294 . S
In2184 O2186 2.326 . S
In2184 O2190 2.266 . S
In2184 O2191 2.326 . S
In2184 O2192 2.266 . S
In2184 O2193 2.326 . S
In2184 O2195 2.294 . S
In2184 O2196 2.326 . S
O2185 In2184 2.294 . S
O2185 C2194 1.240 . S
O2186 In2184 2.326 . S
O2186 C2194 1.252 . S
C2187 O2190 1.252 . S
C2187 O2191 1.260 . S
C2188 O2195 1.240 . S
C2188 O2196 1.252 . S
C2189 O2192 1.252 . S
C2189 O2193 1.260 . S
O2190 In2184 2.266 . S
O2190 C2187 1.252 . S
O2191 In2184 2.326 . S
O2191 C2187 1.260 . S
O2192 In2184 2.266 . S
O2192 C2189 1.252 . S
O2193 In2184 2.326 . S
O2193 C2189 1.260 . S
C2194 O2185 1.240 . S
C2194 O2186 1.252 . S
O2195 In2184 2.294 . S
O2195 C2188 1.240 . S
O2196 In2184 2.326 . S
O2196 C2188 1.252 . S
In2197 O2198 2.294 . S
In2197 O2199 2.326 . S
In2197 O2203 2.266 . S
In2197 O2204 2.326 . S
In2197 O2205 2.266 . S
In2197 O2206 2.326 . S
In2197 O2208 2.294 . S
In2197 O2209 2.326 . S
O2198 In2197 2.294 . S
O2198 C2207 1.240 . S
O2199 In2197 2.326 . S
O2199 C2207 1.252 . S
C2200 O2203 1.252 . S
C2200 O2204 1.260 . S
C2201 O2208 1.240 . S
C2201 O2209 1.252 . S
C2202 O2205 1.252 . S
C2202 O2206 1.260 . S
O2203 In2197 2.266 . S
O2203 C2200 1.252 . S
O2204 In2197 2.326 . S
O2204 C2200 1.260 . S
O2205 In2197 2.266 . S
O2205 C2202 1.252 . S
O2206 In2197 2.326 . S
O2206 C2202 1.260 . S
C2207 O2198 1.240 . S
C2207 O2199 1.252 . S
O2208 In2197 2.294 . S
O2208 C2201 1.240 . S
O2209 In2197 2.326 . S
O2209 C2201 1.252 . S
In2210 O2211 2.294 . S
In2210 O2212 2.326 . S
In2210 O2216 2.266 . S
In2210 O2217 2.326 . S
In2210 O2218 2.266 . S
In2210 O2219 2.326 . S
In2210 O2221 2.294 . S
In2210 O2222 2.326 . S
O2211 In2210 2.294 . S
O2211 C2220 1.240 . S
O2212 In2210 2.326 . S
O2212 C2220 1.252 . S
C2213 O2216 1.252 . S
C2213 O2217 1.260 . S
C2214 O2221 1.240 . S
C2214 O2222 1.252 . S
C2215 O2218 1.252 . S
C2215 O2219 1.260 . S
O2216 In2210 2.266 . S
O2216 C2213 1.252 . S
O2217 In2210 2.326 . S
O2217 C2213 1.260 . S
O2218 In2210 2.266 . S
O2218 C2215 1.252 . S
O2219 In2210 2.326 . S
O2219 C2215 1.260 . S
C2220 O2211 1.240 . S
C2220 O2212 1.252 . S
O2221 In2210 2.294 . S
O2221 C2214 1.240 . S
O2222 In2210 2.326 . S
O2222 C2214 1.252 . S
In2223 O2224 2.294 . S
In2223 O2225 2.326 . S
In2223 O2229 2.266 . S
In2223 O2230 2.326 . S
In2223 O2231 2.266 . S
In2223 O2232 2.326 . S
In2223 O2234 2.294 . S
In2223 O2235 2.326 . S
O2224 In2223 2.294 . S
O2224 C2233 1.240 . S
O2225 In2223 2.326 . S
O2225 C2233 1.252 . S
C2226 O2229 1.252 . S
C2226 O2230 1.260 . S
C2227 O2234 1.240 . S
C2227 O2235 1.252 . S
C2228 O2231 1.252 . S
C2228 O2232 1.260 . S
O2229 In2223 2.266 . S
O2229 C2226 1.252 . S
O2230 In2223 2.326 . S
O2230 C2226 1.260 . S
O2231 In2223 2.266 . S
O2231 C2228 1.252 . S
O2232 In2223 2.326 . S
O2232 C2228 1.260 . S
C2233 O2224 1.240 . S
C2233 O2225 1.252 . S
O2234 In2223 2.294 . S
O2234 C2227 1.240 . S
O2235 In2223 2.326 . S
O2235 C2227 1.252 . S
In2236 O2237 2.294 . S
In2236 O2238 2.326 . S
In2236 O2242 2.266 . S
In2236 O2243 2.326 . S
In2236 O2244 2.266 . S
In2236 O2245 2.326 . S
In2236 O2247 2.294 . S
In2236 O2248 2.326 . S
O2237 In2236 2.294 . S
O2237 C2246 1.240 . S
O2238 In2236 2.326 . S
O2238 C2246 1.252 . S
C2239 O2242 1.252 . S
C2239 O2243 1.260 . S
C2240 O2247 1.240 . S
C2240 O2248 1.252 . S
C2241 O2244 1.252 . S
C2241 O2245 1.260 . S
O2242 In2236 2.266 . S
O2242 C2239 1.252 . S
O2243 In2236 2.326 . S
O2243 C2239 1.260 . S
O2244 In2236 2.266 . S
O2244 C2241 1.252 . S
O2245 In2236 2.326 . S
O2245 C2241 1.260 . S
C2246 O2237 1.240 . S
C2246 O2238 1.252 . S
O2247 In2236 2.294 . S
O2247 C2240 1.240 . S
O2248 In2236 2.326 . S
O2248 C2240 1.252 . S
In2249 O2250 2.294 . S
In2249 O2251 2.326 . S
In2249 O2255 2.266 . S
In2249 O2256 2.326 . S
In2249 O2257 2.266 . S
In2249 O2258 2.326 . S
In2249 O2260 2.294 . S
In2249 O2261 2.326 . S
O2250 In2249 2.294 . S
O2250 C2259 1.240 . S
O2251 In2249 2.326 . S
O2251 C2259 1.252 . S
C2252 O2255 1.252 . S
C2252 O2256 1.260 . S
C2253 O2260 1.240 . S
C2253 O2261 1.252 . S
C2254 O2257 1.252 . S
C2254 O2258 1.260 . S
O2255 In2249 2.266 . S
O2255 C2252 1.252 . S
O2256 In2249 2.326 . S
O2256 C2252 1.260 . S
O2257 In2249 2.266 . S
O2257 C2254 1.252 . S
O2258 In2249 2.326 . S
O2258 C2254 1.260 . S
C2259 O2250 1.240 . S
C2259 O2251 1.252 . S
O2260 In2249 2.294 . S
O2260 C2253 1.240 . S
O2261 In2249 2.326 . S
O2261 C2253 1.252 . S
In2262 O2263 2.294 . S
In2262 O2264 2.326 . S
In2262 O2268 2.266 . S
In2262 O2269 2.326 . S
In2262 O2270 2.266 . S
In2262 O2271 2.326 . S
In2262 O2273 2.294 . S
In2262 O2274 2.326 . S
O2263 In2262 2.294 . S
O2263 C2272 1.240 . S
O2264 In2262 2.326 . S
O2264 C2272 1.252 . S
C2265 O2268 1.252 . S
C2265 O2269 1.260 . S
C2266 O2273 1.240 . S
C2266 O2274 1.252 . S
C2267 O2270 1.252 . S
C2267 O2271 1.260 . S
O2268 In2262 2.266 . S
O2268 C2265 1.252 . S
O2269 In2262 2.326 . S
O2269 C2265 1.260 . S
O2270 In2262 2.266 . S
O2270 C2267 1.252 . S
O2271 In2262 2.326 . S
O2271 C2267 1.260 . S
C2272 O2263 1.240 . S
C2272 O2264 1.252 . S
O2273 In2262 2.294 . S
O2273 C2266 1.240 . S
O2274 In2262 2.326 . S
O2274 C2266 1.252 . S
In2275 O2276 2.294 . S
In2275 O2277 2.326 . S
In2275 O2281 2.266 . S
In2275 O2282 2.326 . S
In2275 O2283 2.266 . S
In2275 O2284 2.326 . S
In2275 O2286 2.294 . S
In2275 O2287 2.326 . S
O2276 In2275 2.294 . S
O2276 C2285 1.240 . S
O2277 In2275 2.326 . S
O2277 C2285 1.252 . S
C2278 O2281 1.252 . S
C2278 O2282 1.260 . S
C2279 O2286 1.240 . S
C2279 O2287 1.252 . S
C2280 O2283 1.252 . S
C2280 O2284 1.260 . S
O2281 In2275 2.266 . S
O2281 C2278 1.252 . S
O2282 In2275 2.326 . S
O2282 C2278 1.260 . S
O2283 In2275 2.266 . S
O2283 C2280 1.252 . S
O2284 In2275 2.326 . S
O2284 C2280 1.260 . S
C2285 O2276 1.240 . S
C2285 O2277 1.252 . S
O2286 In2275 2.294 . S
O2286 C2279 1.240 . S
O2287 In2275 2.326 . S
O2287 C2279 1.252 . S
In2288 O2289 2.294 . S
In2288 O2290 2.326 . S
In2288 O2294 2.266 . S
In2288 O2295 2.326 . S
In2288 O2296 2.266 . S
In2288 O2297 2.326 . S
In2288 O2299 2.294 . S
In2288 O2300 2.326 . S
O2289 In2288 2.294 . S
O2289 C2298 1.240 . S
O2290 In2288 2.326 . S
O2290 C2298 1.252 . S
C2291 O2294 1.252 . S
C2291 O2295 1.260 . S
C2292 O2299 1.240 . S
C2292 O2300 1.252 . S
C2293 O2296 1.252 . S
C2293 O2297 1.260 . S
O2294 In2288 2.266 . S
O2294 C2291 1.252 . S
O2295 In2288 2.326 . S
O2295 C2291 1.260 . S
O2296 In2288 2.266 . S
O2296 C2293 1.252 . S
O2297 In2288 2.326 . S
O2297 C2293 1.260 . S
C2298 O2289 1.240 . S
C2298 O2290 1.252 . S
O2299 In2288 2.294 . S
O2299 C2292 1.240 . S
O2300 In2288 2.326 . S
O2300 C2292 1.252 . S
In2301 O2302 2.294 . S
In2301 O2303 2.326 . S
In2301 O2307 2.266 . S
In2301 O2308 2.326 . S
In2301 O2309 2.266 . S
In2301 O2310 2.326 . S
In2301 O2312 2.294 . S
In2301 O2313 2.326 . S
O2302 In2301 2.294 . S
O2302 C2311 1.240 . S
O2303 In2301 2.326 . S
O2303 C2311 1.252 . S
C2304 O2307 1.252 . S
C2304 O2308 1.260 . S
C2305 O2312 1.240 . S
C2305 O2313 1.252 . S
C2306 O2309 1.252 . S
C2306 O2310 1.260 . S
O2307 In2301 2.266 . S
O2307 C2304 1.252 . S
O2308 In2301 2.326 . S
O2308 C2304 1.260 . S
O2309 In2301 2.266 . S
O2309 C2306 1.252 . S
O2310 In2301 2.326 . S
O2310 C2306 1.260 . S
C2311 O2302 1.240 . S
C2311 O2303 1.252 . S
O2312 In2301 2.294 . S
O2312 C2305 1.240 . S
O2313 In2301 2.326 . S
O2313 C2305 1.252 . S
In2314 O2315 2.294 . S
In2314 O2316 2.326 . S
In2314 O2320 2.266 . S
In2314 O2321 2.326 . S
In2314 O2322 2.266 . S
In2314 O2323 2.326 . S
In2314 O2325 2.294 . S
In2314 O2326 2.326 . S
O2315 In2314 2.294 . S
O2315 C2324 1.240 . S
O2316 In2314 2.326 . S
O2316 C2324 1.252 . S
C2317 O2320 1.252 . S
C2317 O2321 1.260 . S
C2318 O2325 1.240 . S
C2318 O2326 1.252 . S
C2319 O2322 1.252 . S
C2319 O2323 1.260 . S
O2320 In2314 2.266 . S
O2320 C2317 1.252 . S
O2321 In2314 2.326 . S
O2321 C2317 1.260 . S
O2322 In2314 2.266 . S
O2322 C2319 1.252 . S
O2323 In2314 2.326 . S
O2323 C2319 1.260 . S
C2324 O2315 1.240 . S
C2324 O2316 1.252 . S
O2325 In2314 2.294 . S
O2325 C2318 1.240 . S
O2326 In2314 2.326 . S
O2326 C2318 1.252 . S
In2327 O2328 2.294 . S
In2327 O2329 2.326 . S
In2327 O2333 2.266 . S
In2327 O2334 2.326 . S
In2327 O2335 2.266 . S
In2327 O2336 2.326 . S
In2327 O2338 2.294 . S
In2327 O2339 2.326 . S
O2328 In2327 2.294 . S
O2328 C2337 1.240 . S
O2329 In2327 2.326 . S
O2329 C2337 1.252 . S
C2330 O2333 1.252 . S
C2330 O2334 1.260 . S
C2331 O2338 1.240 . S
C2331 O2339 1.252 . S
C2332 O2335 1.252 . S
C2332 O2336 1.260 . S
O2333 In2327 2.266 . S
O2333 C2330 1.252 . S
O2334 In2327 2.326 . S
O2334 C2330 1.260 . S
O2335 In2327 2.266 . S
O2335 C2332 1.252 . S
O2336 In2327 2.326 . S
O2336 C2332 1.260 . S
C2337 O2328 1.240 . S
C2337 O2329 1.252 . S
O2338 In2327 2.294 . S
O2338 C2331 1.240 . S
O2339 In2327 2.326 . S
O2339 C2331 1.252 . S
In2340 O2341 2.294 . S
In2340 O2342 2.326 . S
In2340 O2346 2.266 . S
In2340 O2347 2.326 . S
In2340 O2348 2.266 . S
In2340 O2349 2.326 . S
In2340 O2351 2.294 . S
In2340 O2352 2.326 . S
O2341 In2340 2.294 . S
O2341 C2350 1.240 . S
O2342 In2340 2.326 . S
O2342 C2350 1.252 . S
C2343 O2346 1.252 . S
C2343 O2347 1.260 . S
C2344 O2351 1.240 . S
C2344 O2352 1.252 . S
C2345 O2348 1.252 . S
C2345 O2349 1.260 . S
O2346 In2340 2.266 . S
O2346 C2343 1.252 . S
O2347 In2340 2.326 . S
O2347 C2343 1.260 . S
O2348 In2340 2.266 . S
O2348 C2345 1.252 . S
O2349 In2340 2.326 . S
O2349 C2345 1.260 . S
C2350 O2341 1.240 . S
C2350 O2342 1.252 . S
O2351 In2340 2.294 . S
O2351 C2344 1.240 . S
O2352 In2340 2.326 . S
O2352 C2344 1.252 . S
In2353 O2354 2.294 . S
In2353 O2355 2.326 . S
In2353 O2359 2.266 . S
In2353 O2360 2.326 . S
In2353 O2361 2.266 . S
In2353 O2362 2.326 . S
In2353 O2364 2.294 . S
In2353 O2365 2.326 . S
O2354 In2353 2.294 . S
O2354 C2363 1.240 . S
O2355 In2353 2.326 . S
O2355 C2363 1.252 . S
C2356 O2359 1.252 . S
C2356 O2360 1.260 . S
C2357 O2364 1.240 . S
C2357 O2365 1.252 . S
C2358 O2361 1.252 . S
C2358 O2362 1.260 . S
O2359 In2353 2.266 . S
O2359 C2356 1.252 . S
O2360 In2353 2.326 . S
O2360 C2356 1.260 . S
O2361 In2353 2.266 . S
O2361 C2358 1.252 . S
O2362 In2353 2.326 . S
O2362 C2358 1.260 . S
C2363 O2354 1.240 . S
C2363 O2355 1.252 . S
O2364 In2353 2.294 . S
O2364 C2357 1.240 . S
O2365 In2353 2.326 . S
O2365 C2357 1.252 . S
In2366 O2367 2.294 . S
In2366 O2368 2.326 . S
In2366 O2372 2.266 . S
In2366 O2373 2.326 . S
In2366 O2374 2.266 . S
In2366 O2375 2.326 . S
In2366 O2377 2.294 . S
In2366 O2378 2.326 . S
O2367 In2366 2.294 . S
O2367 C2376 1.240 . S
O2368 In2366 2.326 . S
O2368 C2376 1.252 . S
C2369 O2372 1.252 . S
C2369 O2373 1.260 . S
C2370 O2377 1.240 . S
C2370 O2378 1.252 . S
C2371 O2374 1.252 . S
C2371 O2375 1.260 . S
O2372 In2366 2.266 . S
O2372 C2369 1.252 . S
O2373 In2366 2.326 . S
O2373 C2369 1.260 . S
O2374 In2366 2.266 . S
O2374 C2371 1.252 . S
O2375 In2366 2.326 . S
O2375 C2371 1.260 . S
C2376 O2367 1.240 . S
C2376 O2368 1.252 . S
O2377 In2366 2.294 . S
O2377 C2370 1.240 . S
O2378 In2366 2.326 . S
O2378 C2370 1.252 . S
In2379 O2380 2.294 . S
In2379 O2381 2.326 . S
In2379 O2385 2.266 . S
In2379 O2386 2.326 . S
In2379 O2387 2.266 . S
In2379 O2388 2.326 . S
In2379 O2390 2.294 . S
In2379 O2391 2.326 . S
O2380 In2379 2.294 . S
O2380 C2389 1.240 . S
O2381 In2379 2.326 . S
O2381 C2389 1.252 . S
C2382 O2385 1.252 . S
C2382 O2386 1.260 . S
C2383 O2390 1.240 . S
C2383 O2391 1.252 . S
C2384 O2387 1.252 . S
C2384 O2388 1.260 . S
O2385 In2379 2.266 . S
O2385 C2382 1.252 . S
O2386 In2379 2.326 . S
O2386 C2382 1.260 . S
O2387 In2379 2.266 . S
O2387 C2384 1.252 . S
O2388 In2379 2.326 . S
O2388 C2384 1.260 . S
C2389 O2380 1.240 . S
C2389 O2381 1.252 . S
O2390 In2379 2.294 . S
O2390 C2383 1.240 . S
O2391 In2379 2.326 . S
O2391 C2383 1.252 . S
In2392 O2393 2.294 . S
In2392 O2394 2.326 . S
In2392 O2398 2.266 . S
In2392 O2399 2.326 . S
In2392 O2400 2.266 . S
In2392 O2401 2.326 . S
In2392 O2403 2.294 . S
In2392 O2404 2.326 . S
O2393 In2392 2.294 . S
O2393 C2402 1.240 . S
O2394 In2392 2.326 . S
O2394 C2402 1.252 . S
C2395 O2398 1.252 . S
C2395 O2399 1.260 . S
C2396 O2403 1.240 . S
C2396 O2404 1.252 . S
C2397 O2400 1.252 . S
C2397 O2401 1.260 . S
O2398 In2392 2.266 . S
O2398 C2395 1.252 . S
O2399 In2392 2.326 . S
O2399 C2395 1.260 . S
O2400 In2392 2.266 . S
O2400 C2397 1.252 . S
O2401 In2392 2.326 . S
O2401 C2397 1.260 . S
C2402 O2393 1.240 . S
C2402 O2394 1.252 . S
O2403 In2392 2.294 . S
O2403 C2396 1.240 . S
O2404 In2392 2.326 . S
O2404 C2396 1.252 . S
In2405 O2406 2.294 . S
In2405 O2407 2.326 . S
In2405 O2411 2.266 . S
In2405 O2412 2.326 . S
In2405 O2413 2.266 . S
In2405 O2414 2.326 . S
In2405 O2416 2.294 . S
In2405 O2417 2.326 . S
O2406 In2405 2.294 . S
O2406 C2415 1.240 . S
O2407 In2405 2.326 . S
O2407 C2415 1.252 . S
C2408 O2411 1.252 . S
C2408 O2412 1.260 . S
C2409 O2416 1.240 . S
C2409 O2417 1.252 . S
C2410 O2413 1.252 . S
C2410 O2414 1.260 . S
O2411 In2405 2.266 . S
O2411 C2408 1.252 . S
O2412 In2405 2.326 . S
O2412 C2408 1.260 . S
O2413 In2405 2.266 . S
O2413 C2410 1.252 . S
O2414 In2405 2.326 . S
O2414 C2410 1.260 . S
C2415 O2406 1.240 . S
C2415 O2407 1.252 . S
O2416 In2405 2.294 . S
O2416 C2409 1.240 . S
O2417 In2405 2.326 . S
O2417 C2409 1.252 . S
In2418 O2419 2.294 . S
In2418 O2420 2.326 . S
In2418 O2424 2.266 . S
In2418 O2425 2.326 . S
In2418 O2426 2.266 . S
In2418 O2427 2.326 . S
In2418 O2429 2.294 . S
In2418 O2430 2.326 . S
O2419 In2418 2.294 . S
O2419 C2428 1.240 . S
O2420 In2418 2.326 . S
O2420 C2428 1.252 . S
C2421 O2424 1.252 . S
C2421 O2425 1.260 . S
C2422 O2429 1.240 . S
C2422 O2430 1.252 . S
C2423 O2426 1.252 . S
C2423 O2427 1.260 . S
O2424 In2418 2.266 . S
O2424 C2421 1.252 . S
O2425 In2418 2.326 . S
O2425 C2421 1.260 . S
O2426 In2418 2.266 . S
O2426 C2423 1.252 . S
O2427 In2418 2.326 . S
O2427 C2423 1.260 . S
C2428 O2419 1.240 . S
C2428 O2420 1.252 . S
O2429 In2418 2.294 . S
O2429 C2422 1.240 . S
O2430 In2418 2.326 . S
O2430 C2422 1.252 . S
In2431 O2432 2.294 . S
In2431 O2433 2.326 . S
In2431 O2437 2.266 . S
In2431 O2438 2.326 . S
In2431 O2439 2.266 . S
In2431 O2440 2.326 . S
In2431 O2442 2.294 . S
In2431 O2443 2.326 . S
O2432 In2431 2.294 . S
O2432 C2441 1.240 . S
O2433 In2431 2.326 . S
O2433 C2441 1.252 . S
C2434 O2437 1.252 . S
C2434 O2438 1.260 . S
C2435 O2442 1.240 . S
C2435 O2443 1.252 . S
C2436 O2439 1.252 . S
C2436 O2440 1.260 . S
O2437 In2431 2.266 . S
O2437 C2434 1.252 . S
O2438 In2431 2.326 . S
O2438 C2434 1.260 . S
O2439 In2431 2.266 . S
O2439 C2436 1.252 . S
O2440 In2431 2.326 . S
O2440 C2436 1.260 . S
C2441 O2432 1.240 . S
C2441 O2433 1.252 . S
O2442 In2431 2.294 . S
O2442 C2435 1.240 . S
O2443 In2431 2.326 . S
O2443 C2435 1.252 . S
In2444 O2445 2.294 . S
In2444 O2446 2.326 . S
In2444 O2450 2.266 . S
In2444 O2451 2.326 . S
In2444 O2452 2.266 . S
In2444 O2453 2.326 . S
In2444 O2455 2.294 . S
In2444 O2456 2.326 . S
O2445 In2444 2.294 . S
O2445 C2454 1.240 . S
O2446 In2444 2.326 . S
O2446 C2454 1.252 . S
C2447 O2450 1.252 . S
C2447 O2451 1.260 . S
C2448 O2455 1.240 . S
C2448 O2456 1.252 . S
C2449 O2452 1.252 . S
C2449 O2453 1.260 . S
O2450 In2444 2.266 . S
O2450 C2447 1.252 . S
O2451 In2444 2.326 . S
O2451 C2447 1.260 . S
O2452 In2444 2.266 . S
O2452 C2449 1.252 . S
O2453 In2444 2.326 . S
O2453 C2449 1.260 . S
C2454 O2445 1.240 . S
C2454 O2446 1.252 . S
O2455 In2444 2.294 . S
O2455 C2448 1.240 . S
O2456 In2444 2.326 . S
O2456 C2448 1.252 . S
In2457 O2458 2.294 . S
In2457 O2459 2.326 . S
In2457 O2463 2.266 . S
In2457 O2464 2.326 . S
In2457 O2465 2.266 . S
In2457 O2466 2.326 . S
In2457 O2468 2.294 . S
In2457 O2469 2.326 . S
O2458 In2457 2.294 . S
O2458 C2467 1.240 . S
O2459 In2457 2.326 . S
O2459 C2467 1.252 . S
C2460 O2463 1.252 . S
C2460 O2464 1.260 . S
C2461 O2468 1.240 . S
C2461 O2469 1.252 . S
C2462 O2465 1.252 . S
C2462 O2466 1.260 . S
O2463 In2457 2.266 . S
O2463 C2460 1.252 . S
O2464 In2457 2.326 . S
O2464 C2460 1.260 . S
O2465 In2457 2.266 . S
O2465 C2462 1.252 . S
O2466 In2457 2.326 . S
O2466 C2462 1.260 . S
C2467 O2458 1.240 . S
C2467 O2459 1.252 . S
O2468 In2457 2.294 . S
O2468 C2461 1.240 . S
O2469 In2457 2.326 . S
O2469 C2461 1.252 . S
In2470 O2471 2.294 . S
In2470 O2472 2.326 . S
In2470 O2476 2.266 . S
In2470 O2477 2.326 . S
In2470 O2478 2.266 . S
In2470 O2479 2.326 . S
In2470 O2481 2.294 . S
In2470 O2482 2.326 . S
O2471 In2470 2.294 . S
O2471 C2480 1.240 . S
O2472 In2470 2.326 . S
O2472 C2480 1.252 . S
C2473 O2476 1.252 . S
C2473 O2477 1.260 . S
C2474 O2481 1.240 . S
C2474 O2482 1.252 . S
C2475 O2478 1.252 . S
C2475 O2479 1.260 . S
O2476 In2470 2.266 . S
O2476 C2473 1.252 . S
O2477 In2470 2.326 . S
O2477 C2473 1.260 . S
O2478 In2470 2.266 . S
O2478 C2475 1.252 . S
O2479 In2470 2.326 . S
O2479 C2475 1.260 . S
C2480 O2471 1.240 . S
C2480 O2472 1.252 . S
O2481 In2470 2.294 . S
O2481 C2474 1.240 . S
O2482 In2470 2.326 . S
O2482 C2474 1.252 . S
In2483 O2484 2.294 . S
In2483 O2485 2.326 . S
In2483 O2489 2.266 . S
In2483 O2490 2.326 . S
In2483 O2491 2.266 . S
In2483 O2492 2.326 . S
In2483 O2494 2.294 . S
In2483 O2495 2.326 . S
O2484 In2483 2.294 . S
O2484 C2493 1.240 . S
O2485 In2483 2.326 . S
O2485 C2493 1.252 . S
C2486 O2489 1.252 . S
C2486 O2490 1.260 . S
C2487 O2494 1.240 . S
C2487 O2495 1.252 . S
C2488 O2491 1.252 . S
C2488 O2492 1.260 . S
O2489 In2483 2.266 . S
O2489 C2486 1.252 . S
O2490 In2483 2.326 . S
O2490 C2486 1.260 . S
O2491 In2483 2.266 . S
O2491 C2488 1.252 . S
O2492 In2483 2.326 . S
O2492 C2488 1.260 . S
C2493 O2484 1.240 . S
C2493 O2485 1.252 . S
O2494 In2483 2.294 . S
O2494 C2487 1.240 . S
O2495 In2483 2.326 . S
O2495 C2487 1.252 . S
C10 C368 1.573 1_455 S
C23 C387 1.573 1_545 S
C394 C36 1.573 . S
C49 C407 1.573 . S
C56 C322 1.573 1_455 S
C75 C329 1.573 1_545 S
C82 C348 1.573 . S
C95 C355 1.573 . S
C108 C2370 1.573 1_545 S
C121 C2383 1.573 . S
C140 C2350 1.573 . S
C147 C2357 1.573 1_455 S
C2318 C160 1.573 1_545 S
C2331 C179 1.573 . S
C2292 C186 1.573 . S
C205 C2305 1.573 1_655 S
C212 C589 1.573 1_554 S
C2441 C231 1.573 . S
C238 C1824 1.573 . S
C2415 C257 1.573 . S
C270 C1804 1.573 1_556 S
C524 C277 1.573 1_556 S
C2493 C290 1.573 . S
C303 C2480 1.573 . S
C2064 C420 1.573 1_545 S
C2077 C439 1.573 . S
C452 C2032 1.573 . S
C2045 C459 1.573 1_455 S
C478 C2012 1.573 1_545 S
C2019 C491 1.573 . S
C1980 C504 1.573 . S
C1993 C511 1.573 1_655 S
C2129 C543 1.573 . S
C1512 C550 1.573 . S
C563 C2103 1.573 . S
C576 C1492 1.573 1_554 S
C2181 C602 1.573 . S
C615 C2162 1.573 . S
C634 C998 1.573 1_455 S
C647 C1005 1.573 . S
C660 C1018 1.573 . S
C1037 C667 1.573 1_545 S
C686 C946 1.573 1_455 S
C693 C959 1.573 . S
C966 C706 1.573 . S
C985 C725 1.573 1_545 S
C1752 C732 1.573 . S
C751 C1765 1.573 . S
C764 C1720 1.573 1_565 S
C1739 C771 1.573 1_655 S
C790 C1700 1.573 . S
C803 C1713 1.573 . S
C1674 C810 1.573 1_565 S
C829 C1681 1.573 1_655 S
C1213 C836 1.573 . S
C1817 C855 1.573 1_554 S
C862 C2454 1.573 1_556 S
C1791 C881 1.573 1_554 S
C894 C2422 1.573 . S
C901 C1148 1.573 . S
C1863 C920 1.573 1_556 S
C1850 C933 1.573 1_556 S
C1434 C1050 1.573 . S
C1453 C1057 1.573 . S
C1414 C1076 1.573 1_565 S
C1427 C1083 1.573 1_455 S
C1388 C1102 1.573 . S
C1109 C1395 1.573 . S
C1362 C1128 1.573 1_545 S
C1375 C1141 1.573 1_655 S
C1505 C1167 1.573 1_556 S
C1180 C2136 1.573 1_554 S
C1187 C1479 1.573 1_554 S
C2116 C1200 1.573 . S
C1557 C1232 1.573 1_554 S
C1239 C1538 1.573 1_556 S
C1252 C1616 1.573 . S
C1635 C1271 1.573 1_565 S
C1642 C1284 1.573 1_455 S
C1661 C1297 1.573 . S
C1564 C1310 1.573 . S
C1577 C1317 1.573 1_565 S
C1330 C1596 1.573 1_655 S
C1343 C1603 1.573 . S
C1460 C1843 1.573 . S
C1772 C1531 1.573 . S
C1882 C2240 1.573 . S
C2253 C1895 1.573 . S
C1908 C2266 1.573 1_655 S
C2285 C1915 1.573 1_545 S
C1928 C2194 1.573 . S
C2201 C1947 1.573 . S
C2214 C1960 1.573 1_455 S
C1973 C2227 1.573 1_565 S
C2090 C2461 1.573 1_554 S
C2396 C2155 1.573 1_556 S
C4 C914 1.527 . S
C218 C17 1.527 . S
C30 C927 1.527 . S
C2149 C43 1.527 . S
C868 C62 1.527 . S
C1499 C69 1.527 . S
C88 C264 1.527 . S
C101 C1473 1.527 . S
C1421 C114 1.527 . S
C127 C816 1.527 . S
C1447 C134 1.527 . S
C153 C784 1.527 . S
C777 C166 1.527 . S
C173 C1356 1.527 . S
C745 C192 1.527 . S
C1382 C199 1.527 . S
C1349 C225 1.527 . S
C680 C244 1.527 . S
C1323 C251 1.527 . S
C1921 C283 1.527 . S
C296 C628 1.527 . S
C654 C309 1.527 . S
C316 C1226 1.527 . S
C530 C335 1.527 . S
C342 C1245 1.527 . S
C2467 C361 1.527 . S
C1174 C374 1.527 . S
C1811 C381 1.527 . S
C400 C582 1.527 . S
C1785 C413 1.527 . S
C426 C1733 1.527 . S
C1122 C433 1.527 . S
C446 C1759 1.527 . S
C465 C1096 1.527 . S
C472 C1089 1.527 . S
C485 C1668 1.527 . S
C1063 C498 1.527 . S
C517 C1694 1.527 . S
C537 C1655 1.527 . S
C992 C556 1.527 . S
C1629 C569 1.527 . S
C2233 C595 1.527 . S
C940 C608 1.527 . S
C621 C972 1.527 . S
C842 C641 1.527 . S
C673 C1525 1.527 . S
C2123 C699 1.527 . S
C888 C712 1.527 . S
C719 C2097 1.527 . S
C738 C2051 1.527 . S
C2071 C758 1.527 . S
C1986 C797 1.527 . S
C823 C2006 1.527 . S
C1967 C849 1.527 . S
C875 C1941 1.527 . S
C907 C1291 1.527 . S
C1154 C953 1.527 . S
C979 C1837 1.527 . S
C1011 C2435 1.527 . S
C1024 C1206 1.527 . S
C1031 C2409 1.527 . S
C2363 C1044 1.527 . S
C1070 C2389 1.527 . S
C2298 C1115 1.527 . S
C2324 C1135 1.527 . S
C1161 C2279 1.527 . S
C1193 C2259 1.527 . S
C1219 C1609 1.527 . S
C2168 C1258 1.527 . S
C1265 C1466 1.527 . S
C2175 C1278 1.527 . S
C2110 C1304 1.527 . S
C1518 C1336 1.527 . S
C2058 C1369 1.527 . S
C1401 C2038 1.527 . S
C1408 C2025 1.527 . S
C1440 C1999 1.527 . S
C1934 C1486 1.527 . S
C1876 C1544 1.527 . S
C1902 C1551 1.527 . S
C1570 C2474 1.527 . S
C1778 C1583 1.527 . S
C2487 C1590 1.527 . S
C1622 C2428 1.527 . S
C1830 C1648 1.527 . S
C2376 C1687 1.527 . S
C1707 C2344 1.527 . S
C1726 C2337 1.527 . S
C2311 C1746 1.527 . S
C2246 C1798 1.527 . S
C1856 C2188 1.527 . S
C1869 C2220 1.527 . S
C2084 C1889 1.527 . S
C2142 C1954 1.527 . S
C2402 C2207 1.527 . S
C2272 C2448 1.527 . S
C109 C5 1.410 . S
C18 C122 1.410 . S
C133 C31 1.410 . S
C44 C148 1.410 . S
C161 C55 1.410 . S
C172 C70 1.410 . S
C187 C81 1.410 . S
C94 C198 1.410 . S
C107 C213 1.410 . S
C120 C926 1.410 . S
C135 C2148 1.410 . S
C913 C146 1.410 . S
C159 C848 1.410 . S
C174 C1485 1.410 . S
C185 C874 1.410 . S
C200 C2137 1.410 . S
C3 C211 1.410 . S
C226 C679 1.410 . S
C1318 C237 1.410 . S
C252 C707 1.410 . S
C1966 C265 1.410 . S
C276 C1901 1.410 . S
C668 C289 1.410 . S
C640 C302 1.410 . S
C421 C317 1.410 . S
C328 C432 1.410 . S
C343 C445 1.410 . S
C354 C460 1.410 . S
C471 C367 1.410 . S
C484 C382 1.410 . S
C393 C497 1.410 . S
C512 C406 1.410 . S
C419 C525 1.410 . S
C434 C1240 1.410 . S
C2462 C447 1.410 . S
C458 C1225 1.410 . S
C473 C1160 1.410 . S
C1797 C486 1.410 . S
C1188 C499 1.410 . S
C2447 C510 1.410 . S
C315 C523 1.410 . S
C538 C991 1.410 . S
C1628 C549 1.410 . S
C562 C1019 1.410 . S
C2278 C575 1.410 . S
C2215 C588 1.410 . S
C978 C601 1.410 . S
C952 C614 1.410 . S
C733 C629 1.410 . S
C642 C744 1.410 . S
C757 C655 1.410 . S
C666 C772 1.410 . S
C681 C783 1.410 . S
C692 C796 1.410 . S
C811 C705 1.410 . S
C720 C822 1.410 . S
C837 C731 1.410 . S
C304 C746 1.410 . S
C759 C1524 1.410 . S
C291 C770 1.410 . S
C785 C224 1.410 . S
C2109 C798 1.410 . S
C250 C809 1.410 . S
C824 C1513 1.410 . S
C835 C627 1.410 . S
C57 C850 1.410 . S
C861 C1940 1.410 . S
C83 C876 1.410 . S
C889 C1344 1.410 . S
C1277 C900 1.410 . S
C915 C42 1.410 . S
C16 C928 1.410 . S
C941 C1043 1.410 . S
C954 C1058 1.410 . S
C1069 C965 1.410 . S
C980 C1084 1.410 . S
C1095 C993 1.410 . S
C1110 C1004 1.410 . S
C1121 C1017 1.410 . S
C1134 C1032 1.410 . S
C1045 C1149 1.410 . S
C1056 C616 1.410 . S
C1071 C1836 1.410 . S
C603 C1082 1.410 . S
C1097 C536 1.410 . S
C1108 C2423 1.410 . S
C1123 C564 1.410 . S
C1136 C1825 1.410 . S
C939 C1147 1.410 . S
C1162 C369 1.410 . S
C2254 C1175 1.410 . S
C395 C1186 1.410 . S
C1199 C1654 1.410 . S
C1589 C1212 1.410 . S
C356 C1227 1.410 . S
C1238 C330 1.410 . S
C1251 C1355 1.410 . S
C1266 C1368 1.410 . S
C1381 C1279 1.410 . S
C1396 C1292 1.410 . S
C1407 C1305 1.410 . S
C1420 C1316 1.410 . S
C1329 C1435 1.410 . S
C1342 C1446 1.410 . S
C1461 C1357 1.410 . S
C1370 C2174 1.410 . S
C1383 C902 1.410 . S
C1394 C2163 1.410 . S
C1409 C2096 1.410 . S
C239 C1422 1.410 . S
C1433 C2122 1.410 . S
C887 C1448 1.410 . S
C1253 C1459 1.410 . S
C1929 C1474 1.410 . S
C68 C1487 1.410 . S
C1953 C1500 1.410 . S
C718 C1511 1.410 . S
C653 C1526 1.410 . S
C1537 C1916 1.410 . S
C1552 C1888 1.410 . S
C1563 C1667 1.410 . S
C1682 C1576 1.410 . S
C1591 C1693 1.410 . S
C1706 C1602 1.410 . S
C1721 C1615 1.410 . S
C1732 C1630 1.410 . S
C1641 C1745 1.410 . S
C1758 C1656 1.410 . S
C1669 C1773 1.410 . S
C2486 C1680 1.410 . S
C1214 C1695 1.410 . S
C2473 C1708 1.410 . S
C2408 C1719 1.410 . S
C551 C1734 1.410 . S
C2434 C1747 1.410 . S
C1201 C1760 1.410 . S
C1565 C1771 1.410 . S
C1786 C2241 1.410 . S
C380 C1799 1.410 . S
C1812 C2267 1.410 . S
C1030 C1823 1.410 . S
C967 C1838 1.410 . S
C1849 C2228 1.410 . S
C1862 C2202 1.410 . S
C1981 C1877 1.410 . S
C1890 C1994 1.410 . S
C1903 C2005 1.410 . S
C1914 C2020 1.410 . S
C1927 C2033 1.410 . S
C2046 C1942 1.410 . S
C2057 C1955 1.410 . S
C2070 C1968 1.410 . S
C1979 C2083 1.410 . S
C1992 C1550 1.410 . S
C278 C2007 1.410 . S
C2018 C1539 1.410 . S
C1472 C2031 1.410 . S
C863 C2044 1.410 . S
C2059 C1498 1.410 . S
C2072 C263 1.410 . S
C1875 C2085 1.410 . S
C2098 C1303 1.410 . S
C694 C2111 1.410 . S
C2124 C1331 1.410 . S
C96 C2135 1.410 . S
C2150 C29 1.410 . S
C1290 C2161 1.410 . S
C2176 C1264 1.410 . S
C2189 C2293 1.410 . S
C2306 C2200 1.410 . S
C2213 C2319 1.410 . S
C2226 C2332 1.410 . S
C2343 C2239 1.410 . S
C2252 C2358 1.410 . S
C2265 C2371 1.410 . S
C2280 C2384 1.410 . S
C2291 C2397 1.410 . S
C2304 C1864 1.410 . S
C590 C2317 1.410 . S
C2330 C1851 1.410 . S
C2345 C1784 1.410 . S
C2356 C1173 1.410 . S
C2369 C1810 1.410 . S
C577 C2382 1.410 . S
C2395 C2187 1.410 . S
C2410 C1617 1.410 . S
C2421 C1006 1.410 . S
C2436 C1643 1.410 . S
C2449 C408 1.410 . S
C2460 C341 1.410 . S
C1604 C2475 1.410 . S
C1578 C2488 1.410 . S
