# Generated by pormake.
# Topology smm, (6)-cn, num edge types: 1
# Building blocks:
#     Node 0, Type 0, BuildingBlock: BETDEL_clean_sbu_0, # of connection points: 6
#     Node 1, Type 0, BuildingBlock: BETDEL_clean_sbu_0, # of connection points: 6
#     Node 2, Type 0, BuildingBlock: BETDEL_clean_sbu_0, # of connection points: 6
#     Node 3, Type 0, BuildingBlock: BETDEL_clean_sbu_0, # of connection points: 6
#     Node 4, Type 0, BuildingBlock: BETDEL_clean_sbu_0, # of connection points: 6
#     Node 5, Type 0, BuildingBlock: BETDEL_clean_sbu_0, # of connection points: 6
#     Node 6, Type 0, BuildingBlock: BETDEL_clean_sbu_0, # of connection points: 6
#     Node 7, Type 0, BuildingBlock: BETDEL_clean_sbu_0, # of connection points: 6
#     Node 8, Type 0, BuildingBlock: BETDEL_clean_sbu_0, # of connection points: 6
#     Edge 9, Type (0, 0), BuildingBlock: TEMPAE_clean_linker_10, # of connection points: 2
#     Edge 10, Type (0, 0), BuildingBlock: TEMPAE_clean_linker_10, # of connection points: 2
#     Edge 11, Type (0, 0), BuildingBlock: TEMPAE_clean_linker_10, # of connection points: 2
#     Edge 12, Type (0, 0), BuildingBlock: TEMPAE_clean_linker_10, # of connection points: 2
#     Edge 13, Type (0, 0), BuildingBlock: TEMPAE_clean_linker_10, # of connection points: 2
#     Edge 14, Type (0, 0), BuildingBlock: TEMPAE_clean_linker_10, # of connection points: 2
#     Edge 15, Type (0, 0), BuildingBlock: TEMPAE_clean_linker_10, # of connection points: 2
#     Edge 16, Type (0, 0), BuildingBlock: TEMPAE_clean_linker_10, # of connection points: 2
#     Edge 17, Type (0, 0), BuildingBlock: TEMPAE_clean_linker_10, # of connection points: 2
#     Edge 18, Type (0, 0), BuildingBlock: TEMPAE_clean_linker_10, # of connection points: 2
#     Edge 19, Type (0, 0), BuildingBlock: TEMPAE_clean_linker_10, # of connection points: 2
#     Edge 20, Type (0, 0), BuildingBlock: TEMPAE_clean_linker_10, # of connection points: 2
#     Edge 21, Type (0, 0), BuildingBlock: TEMPAE_clean_linker_10, # of connection points: 2
#     Edge 22, Type (0, 0), BuildingBlock: TEMPAE_clean_linker_10, # of connection points: 2
#     Edge 23, Type (0, 0), BuildingBlock: TEMPAE_clean_linker_10, # of connection points: 2
#     Edge 24, Type (0, 0), BuildingBlock: TEMPAE_clean_linker_10, # of connection points: 2
#     Edge 25, Type (0, 0), BuildingBlock: TEMPAE_clean_linker_10, # of connection points: 2
#     Edge 26, Type (0, 0), BuildingBlock: TEMPAE_clean_linker_10, # of connection points: 2
#     Edge 27, Type (0, 0), BuildingBlock: TEMPAE_clean_linker_10, # of connection points: 2
#     Edge 28, Type (0, 0), BuildingBlock: TEMPAE_clean_linker_10, # of connection points: 2
#     Edge 29, Type (0, 0), BuildingBlock: TEMPAE_clean_linker_10, # of connection points: 2
#     Edge 30, Type (0, 0), BuildingBlock: TEMPAE_clean_linker_10, # of connection points: 2
#     Edge 31, Type (0, 0), BuildingBlock: TEMPAE_clean_linker_10, # of connection points: 2
#     Edge 32, Type (0, 0), BuildingBlock: TEMPAE_clean_linker_10, # of connection points: 2
#     Edge 33, Type (0, 0), BuildingBlock: TEMPAE_clean_linker_10, # of connection points: 2
#     Edge 34, Type (0, 0), BuildingBlock: TEMPAE_clean_linker_10, # of connection points: 2
#     Edge 35, Type (0, 0), BuildingBlock: TEMPAE_clean_linker_10, # of connection points: 2
# Relax obj value: 0.069
# Max RMSD: 0.141
# Mean RMSD: 0.141
data_MOF--net-smm--node1-BETDEL_clean_sbu_0--edge1-TEMPAE_clean_linker_10
_symmetry_space_group_name_H-M    P1
_symmetry_Int_Tables_number       1
_symmetry_cell_setting            triclinic
loop_
_symmetry_equiv_pos_as_xyz
'x, y, z'
_cell_length_a     57.4325
_cell_length_b     57.494209
_cell_length_c     14.353373
_cell_angle_alpha  90.036461
_cell_angle_beta   89.981342
_cell_angle_gamma 120.04483
loop_
_atom_site_label
_atom_site_type_symbol
_atom_site_fract_x
_atom_site_fract_y
_atom_site_fract_z
_atom_type_partial_charge
Dy0 Dy 0.05494 0.22672 0.97669 0.0
C1 C 0.97297 0.11521 0.02995 0.0
C2 C 0.08793 0.27654 0.90202 0.0
Dy3 Dy 1.00709 0.16936 0.01067 0.0
O4 O 0.08201 0.27143 -0.01034 0.0
O5 O 0.07611 0.25425 0.85468 0.0
O6 O 0.07185 0.2289 0.11769 0.0
O7 O 0.02987 0.20532 0.09547 0.0
C8 C 0.04871 0.21139 0.15288 0.0
C9 C 1.0153 0.18781 0.83676 0.0
O10 O 0.98546 0.19156 0.04236 0.0
O11 O 0.01821 0.23188 0.97642 0.0
O12 O 0.98682 0.12733 0.95654 0.0
O13 O 0.97762 0.13284 0.09528 0.0
O14 O 0.99151 0.17344 0.87214 0.0
O15 O 0.03306 0.19078 0.89407 0.0
O16 O 0.0771 0.20382 0.97045 0.0
O17 O 0.04331 0.16546 0.04251 0.0
C18 C 0.99388 0.21649 0.01352 0.0
C19 C 0.06835 0.18013 0.01139 0.0
Dy20 Dy 0.83539 0.85241 -0.00308 0.0
C21 C 0.94583 0.88358 0.08591 0.0
C22 C 0.78555 0.83469 0.92042 0.0
Dy23 Dy 0.89284 0.86306 0.03711 0.0
O24 O 0.79057 0.8345 0.00848 0.0
O25 O 0.80793 0.84496 0.87355 0.0
O26 O 0.83202 0.86668 0.13789 0.0
O27 O 0.8563 0.84905 0.11867 0.0
C28 C 0.84979 0.86172 0.17469 0.0
C29 C 0.87776 0.85585 0.85837 0.0
O30 O 0.86897 0.81995 0.08061 0.0
O31 O 0.83135 0.81114 -0.00627 0.0
O32 O 0.93043 0.85984 0.05097 0.0
O33 O 0.93189 0.89543 0.09788 0.0
O34 O 0.89427 0.84892 0.89211 0.0
O35 O 0.87249 0.86828 0.91846 0.0
O36 O 0.85721 0.89743 -0.01072 0.0
O37 O 0.89666 0.90361 0.0578 0.0
C38 C 0.84555 0.80271 0.04176 0.0
C39 C 0.88124 0.91315 0.02721 0.0
Dy40 Dy 0.207 1.00459 0.97654 0.0
C41 C 0.17468 0.08425 0.03095 0.0
C42 C 0.22451 0.97216 0.90187 0.0
Dy43 Dy 0.19627 0.05148 0.0125 0.0
O44 O 0.22399 0.977 -0.01007 0.0
O45 O 0.21503 0.98478 0.85397 0.0
O46 O 0.19255 0.98735 0.11765 0.0
O47 O 0.21027 0.02924 0.09621 0.0
C48 C 0.19786 1.01031 0.15349 0.0
C49 C 0.20661 0.04384 0.83764 0.0
O50 O 0.24029 0.0738 0.04361 0.0
O51 O 0.2486 0.04169 0.97662 0.0
O52 O 0.17094 0.06824 0.96201 0.0
O53 O 0.19043 0.08242 0.09257 0.0
O54 O 0.21556 0.06748 0.8735 0.0
O55 O 0.19217 0.02593 0.89495 0.0
O56 O 0.16195 0.98239 0.96687 0.0
O57 O 0.15705 0.01455 0.04945 0.0
C58 C 0.25717 0.06584 0.01444 0.0
C59 C 0.14697 0.99013 0.01322 0.0
Dy60 Dy 0.71971 0.55868 0.32224 0.0
C61 C 0.6396 0.44625 0.36963 0.0
C62 C 0.75182 0.60954 0.2541 0.0
Dy63 Dy 0.67306 0.50063 0.35466 0.0
O64 O 0.7429 0.60357 0.33883 0.0
O65 O 0.74347 0.58756 0.20605 0.0
O66 O 0.737 0.56082 0.4628 0.0
O67 O 0.69521 0.53637 0.4408 0.0
C68 C 0.71414 0.54269 0.49787 0.0
C69 C 0.68033 0.51978 0.1815 0.0
O70 O 0.65144 0.52227 0.39415 0.0
O71 O 0.68174 0.56177 0.31766 0.0
O72 O 0.654 0.45895 0.2979 0.0
O73 O 0.6434 0.46339 0.43586 0.0
O74 O 0.65675 0.50483 0.21768 0.0
O75 O 0.6984 0.52302 0.23784 0.0
O76 O 0.74297 0.53687 0.31449 0.0
O77 O 0.70985 0.49767 0.3847 0.0
C78 C 0.65839 0.54641 0.36083 0.0
C79 C 0.73479 0.51302 0.3536 0.0
Dy80 Dy 0.49992 0.1841 0.30848 0.0
C81 C 0.61206 0.21529 0.35823 0.0
C82 C 0.44964 0.1665 0.23595 0.0
Dy83 Dy 0.55764 0.19428 0.3412 0.0
O84 O 0.45509 0.16545 0.32308 0.0
O85 O 0.47185 0.17763 0.18793 0.0
O86 O 0.49797 0.19909 0.44925 0.0
O87 O 0.52179 0.18101 0.42684 0.0
C88 C 0.5157 0.19377 0.48421 0.0
C89 C 0.53872 0.18337 0.16782 0.0
O90 O 0.53574 0.15052 0.37419 0.0
O91 O 0.49523 0.14246 0.30832 0.0
O92 O 0.59956 0.21712 0.28613 0.0
O93 O 0.59467 0.20163 0.4235 0.0
O94 O 0.55342 0.17435 0.20313 0.0
O95 O 0.53573 0.19819 0.22491 0.0
O96 O 0.5225 0.22915 0.30196 0.0
O97 O 0.56117 0.23418 0.37314 0.0
C98 C 0.51078 0.13378 0.34574 0.0
C99 C 0.54629 0.24431 0.3423 0.0
Dy100 Dy 0.87478 0.33943 0.30881 0.0
C101 C 0.84485 0.42116 0.36123 0.0
C102 C 0.89228 0.30695 0.23468 0.0
Dy103 Dy 0.86487 0.38705 0.3421 0.0
O104 O 0.89255 0.31252 0.32246 0.0
O105 O 0.88194 0.31879 0.1869 0.0
O106 O 0.86018 0.3227 0.45 0.0
O107 O 0.87824 0.36454 0.42727 0.0
C108 C 0.86551 0.34577 0.48483 0.0
C109 C 0.87536 0.37884 0.16849 0.0
O110 O 0.9088 0.40881 0.3742 0.0
O111 O 0.91658 0.37623 0.30836 0.0
O112 O 0.84323 0.40738 0.28773 0.0
O113 O 0.85769 0.41641 0.42681 0.0
O114 O 0.88458 0.40263 0.20352 0.0
O115 O 0.86065 0.36111 0.22598 0.0
O116 O 0.82971 0.31701 0.30184 0.0
O117 O 0.82466 0.35066 0.37265 0.0
C118 C 0.92543 0.40049 0.34554 0.0
C119 C 0.81451 0.32563 0.34179 0.0
Dy120 Dy 0.38679 0.89198 0.64263 0.0
C121 C 0.30558 0.7801 0.6916 0.0
C122 C 0.41942 0.94203 0.56931 0.0
Dy123 Dy 0.3393 0.8344 0.67514 0.0
O124 O 0.4134 0.93671 0.65681 0.0
O125 O 0.40789 0.91984 0.52139 0.0
O126 O 0.40384 0.89385 0.78311 0.0
O127 O 0.36187 0.87014 0.76112 0.0
C128 C 0.38076 0.87616 0.81822 0.0
C129 C 0.34729 0.85334 0.50187 0.0
O130 O 0.31737 0.85626 0.70836 0.0
O131 O 0.3499 0.8968 0.64316 0.0
O132 O 0.31964 0.79263 0.61905 0.0
O133 O 0.30979 0.7974 0.75774 0.0
O134 O 0.32355 0.83873 0.53733 0.0
O135 O 0.36511 0.85627 0.55881 0.0
O136 O 0.40931 0.86953 0.63467 0.0
O137 O 0.37577 0.83075 0.70557 0.0
C138 C 0.32564 0.88124 0.68033 0.0
C139 C 0.40079 0.84573 0.67447 0.0
Dy140 Dy 0.16831 0.51788 0.63664 0.0
C141 C 0.2809 0.55053 0.68224 0.0
C142 C 0.11801 0.50013 0.56452 0.0
Dy143 Dy 0.22632 0.52863 0.66784 0.0
O144 O 0.12349 0.49908 0.65161 0.0
O145 O 0.14018 0.5113 0.51633 0.0
O146 O 0.16632 0.53258 0.77774 0.0
O147 O 0.19058 0.51508 0.75444 0.0
C148 C 0.18439 0.52767 0.81215 0.0
C149 C 0.20701 0.51734 0.49514 0.0
O150 O 0.20473 0.48481 0.70113 0.0
O151 O 0.16394 0.47639 0.63651 0.0
O152 O 0.26802 0.55274 0.61204 0.0
O153 O 0.26381 0.536 0.74713 0.0
O154 O 0.2221 0.50867 0.52973 0.0
O155 O 0.20393 0.53205 0.55244 0.0
O156 O 0.19054 0.5629 0.63007 0.0
O157 O 0.22939 0.5683 0.70092 0.0
C158 C 0.1797 0.46791 0.67352 0.0
C159 C 0.21431 0.57823 0.67027 0.0
Dy160 Dy 0.54339 0.67472 0.63775 0.0
C161 C 0.51238 0.75533 0.68966 0.0
C162 C 0.56215 0.64455 0.55383 0.0
Dy163 Dy 0.53368 0.72228 0.67201 0.0
O164 O 0.54174 0.63517 0.61035 0.0
O165 O 0.57201 0.67018 0.54261 0.0
O166 O 0.53146 0.65823 0.78139 0.0
O167 O 0.54655 0.69927 0.75725 0.0
C168 C 0.53464 0.68061 0.81551 0.0
C169 C 0.54511 0.71483 0.49819 0.0
O170 O 0.5775 0.74424 0.70732 0.0
O171 O 0.58551 0.71059 0.65314 0.0
O172 O 0.51065 0.74111 0.61732 0.0
O173 O 0.52609 0.75167 0.75486 0.0
O174 O 0.55397 0.73842 0.5346 0.0
O175 O 0.52998 0.6968 0.55419 0.0
O176 O 0.4987 0.65458 0.61672 0.0
O177 O 0.4938 0.68586 0.70342 0.0
C178 C 0.5942 0.7353 0.68614 0.0
C179 C 0.48344 0.66191 0.66351 0.0
C180 C 0.11025 0.30779 0.76735 0.0
C181 C 0.10381 0.3039 0.8624 0.0
C182 C 0.1241 0.33383 0.72905 0.0
C183 C 0.13129 0.35642 0.78704 0.0
C184 C 0.12511 0.3525 0.88334 0.0
C185 C 0.11162 0.32634 0.91984 0.0
C186 C 0.13063 0.33716 0.62637 0.0
C187 C 0.13206 0.37592 0.94756 0.0
C188 C 0.18394 0.42806 0.72124 0.0
C189 C 0.1678 0.43867 0.6923 0.0
C190 C 0.17244 0.40094 0.74795 0.0
C191 C 0.1441 0.38412 0.74716 0.0
C192 C 0.12779 0.3945 0.71511 0.0
C193 C 0.13982 0.42152 0.6875 0.0
C194 C 0.19057 0.39055 0.78012 0.0
C195 C 0.09749 0.37742 0.71416 0.0
H196 H 0.10426 0.29048 0.72275 0.0
H197 H 0.10662 0.32342 -0.00667 0.0
H198 H 0.11973 0.3461 0.59141 0.0
H199 H 0.15245 0.35118 0.61594 0.0
H200 H 0.12506 0.31775 0.59191 0.0
H201 H 0.12634 0.36951 0.02101 0.0
H202 H 0.15396 0.39047 0.94486 0.0
H203 H 0.12154 0.38667 0.92429 0.0
H204 H 0.20557 0.44104 0.72467 0.0
H205 H 0.12708 0.42943 0.66555 0.0
H206 H 0.18529 0.37147 0.74398 0.0
H207 H 0.18769 0.38619 0.85585 0.0
H208 H 0.21215 0.40522 0.76733 0.0
H209 H 0.09115 0.35848 0.67542 0.0
H210 H 0.08775 0.38797 0.68196 0.0
H211 H 0.08996 0.37186 0.78659 0.0
C212 C 0.75436 0.82466 0.78461 0.0
C213 C 0.75819 0.82297 0.88028 0.0
C214 C 0.7283 0.81234 0.74612 0.0
C215 C 0.70562 0.79775 0.80463 0.0
C216 C 0.70948 0.79633 0.90149 0.0
C217 C 0.73567 0.80908 0.93809 0.0
C218 C 0.72505 0.81459 0.64275 0.0
C219 C 0.68595 0.78073 0.96632 0.0
C220 C 0.63434 0.77927 0.73436 0.0
C221 C 0.62335 0.75226 0.70803 0.0
C222 C 0.66143 0.79472 0.76206 0.0
C223 C 0.67786 0.78279 0.76483 0.0
C224 C 0.66707 0.75577 0.73589 0.0
C225 C 0.64009 0.74094 0.70735 0.0
C226 C 0.67226 0.82357 0.791 0.0
C227 C 0.68371 0.74213 0.73873 0.0
H228 H 0.77173 0.83541 0.73971 0.0
H229 H 0.73853 0.80766 0.01209 0.0
H230 H 0.71569 0.79438 0.61027 0.0
H231 H 0.71139 0.82268 0.62998 0.0
H232 H 0.74457 0.82778 0.60763 0.0
H233 H 0.69233 0.78206 0.04013 0.0
H234 H 0.67164 0.78831 0.96128 0.0
H235 H 0.67492 0.75925 0.94551 0.0
H236 H 0.62169 0.7883 0.73461 0.0
H237 H 0.63191 0.7201 0.68736 0.0
H238 H 0.69136 0.83686 0.75393 0.0
H239 H 0.67678 0.82572 0.86669 0.0
H240 H 0.65779 0.83062 0.77664 0.0
H241 H 0.70274 0.75408 0.69961 0.0
H242 H 0.67286 0.72152 0.70898 0.0
H243 H 0.68917 0.74081 0.81192 0.0
C244 C 0.23488 0.95089 0.76736 0.0
C245 C 0.23638 0.95658 0.86287 0.0
C246 C 0.24739 0.93725 0.72993 0.0
C247 C 0.26208 0.92953 0.78933 0.0
C248 C 0.26333 0.93499 0.88603 0.0
C249 C 0.25031 0.94825 0.9216 0.0
C250 C 0.24524 0.93145 0.62677 0.0
C251 C 0.27906 0.9275 0.95176 0.0
C252 C 0.28127 0.87705 0.72417 0.0
C253 C 0.30833 0.89321 0.69831 0.0
C254 C 0.26554 0.88853 0.74956 0.0
C255 C 0.27725 0.91685 0.75073 0.0
C256 C 0.3043 0.93321 0.72196 0.0
C257 C 0.31941 0.92121 0.69546 0.0
C258 C 0.23664 0.87036 0.77814 0.0
C259 C 0.31772 0.96349 0.72336 0.0
H260 H 0.22408 0.95728 0.72178 0.0
H261 H 0.2516 0.95268 -0.00453 0.0
H262 H 0.26546 0.94248 0.59434 0.0
H263 H 0.23744 0.90971 0.61479 0.0
H264 H 0.23183 0.93736 0.591 0.0
H265 H 0.27768 0.93277 0.02524 0.0
H266 H 0.27158 0.90561 0.94773 0.0
H267 H 0.30056 0.93802 0.931 0.0
H268 H 0.27245 0.85541 0.72599 0.0
H269 H 0.3403 0.93394 0.67595 0.0
H270 H 0.22329 0.87599 0.74057 0.0
H271 H 0.23438 0.87279 0.85371 0.0
H272 H 0.22972 0.84886 0.76412 0.0
H273 H 0.30563 0.97021 0.6834 0.0
H274 H 0.33836 0.97331 0.69374 0.0
H275 H 0.31896 0.97053 0.79617 0.0
C276 C 0.39987 0.13958 0.25545 0.0
C277 C 0.42208 0.15468 0.19747 0.0
C278 C 0.37353 0.1267 0.22005 0.0
C279 C 0.36919 0.12922 0.12432 0.0
C280 C 0.39155 0.14504 0.0658 0.0
C281 C 0.41777 0.15744 0.10298 0.0
C282 C 0.35039 0.1098 0.2848 0.0
C283 C 0.38778 0.14852 0.96373 0.0
C284 C 0.30377 0.07265 0.02525 0.0
C285 C 0.2865 0.08327 0.03242 0.0
C286 C 0.33091 0.08771 0.05196 0.0
C287 C 0.3413 0.11425 0.08557 0.0
C288 C 0.32434 0.12557 0.08884 0.0
C289 C 0.29712 0.10989 0.06294 0.0
C290 C 0.34814 0.0747 0.0483 0.0
C291 C 0.3347 0.15393 0.12279 0.0
H292 H 0.40309 0.13732 0.3285 0.0
H293 H 0.4349 0.16913 0.05795 0.0
H294 H 0.33569 0.11696 0.2842 0.0
H295 H 0.33967 0.08863 0.26045 0.0
H296 H 0.35711 0.11027 0.3577 0.0
H297 H 0.40705 0.16258 0.92875 0.0
H298 H 0.37879 0.1288 0.92786 0.0
H299 H 0.3736 0.15618 0.95521 0.0
H300 H 0.29587 0.05211 0.00206 0.0
H301 H 0.28405 0.11839 0.06824 0.0
H302 H 0.354 0.07252 0.12003 0.0
H303 H 0.36694 0.08756 0.00908 0.0
H304 H 0.33756 0.05453 0.01514 0.0
H305 H 0.3394 0.15517 0.19821 0.0
H306 H 0.31987 0.16071 0.11212 0.0
H307 H 0.35362 0.16799 0.08614 0.0
C308 C 0.91866 0.28361 0.25383 0.0
C309 C 0.90434 0.29155 0.19548 0.0
C310 C 0.93186 0.27057 0.21796 0.0
C311 C 0.93045 0.26499 0.12132 0.0
C312 C 0.91543 0.27238 0.06227 0.0
C313 C 0.90268 0.28576 0.10001 0.0
C314 C 0.9479 0.26337 0.28332 0.0
C315 C 0.91314 0.26648 0.95916 0.0
C316 C 0.98768 0.25654 0.02697 0.0
C317 C 0.97662 0.22855 0.03065 0.0
C318 C 0.97257 0.26859 0.05315 0.0
C319 C 0.94557 0.25228 0.08253 0.0
C320 C 0.93387 0.22396 0.08203 0.0
C321 C 0.94958 0.21245 0.05683 0.0
C322 C 0.98597 0.29886 0.05367 0.0
C323 C 0.90503 0.20584 0.11135 0.0
H324 H 0.92008 0.28814 0.32764 0.0
H325 H 0.89161 0.29187 0.0547 0.0
H326 H 0.9405 0.24149 0.27988 0.0
H327 H 0.96933 0.27392 0.26176 0.0
H328 H 0.94672 0.26881 0.35676 0.0
H329 H 0.89976 0.27244 0.92348 0.0
H330 H 0.93333 0.2774 0.92642 0.0
H331 H 0.90523 0.24472 0.94743 0.0
H332 H 1.00855 0.26922 0.00714 0.0
H333 H 0.94076 0.19081 0.05925 0.0
H334 H 0.9875 0.30609 0.12636 0.0
H335 H 0.9737 0.30547 0.01421 0.0
H336 H 1.00648 0.30862 0.02305 0.0
H337 H 0.90293 0.20842 0.18692 0.0
H338 H 0.89809 0.18432 0.0978 0.0
H339 H 0.8916 0.21137 0.07391 0.0
C340 C 0.84878 0.76327 0.10102 0.0
C341 C 0.83349 0.77347 0.06041 0.0
C342 C 0.83693 0.73602 0.12603 0.0
C343 C 0.80903 0.71857 0.11142 0.0
C344 C 0.79368 0.72857 0.06795 0.0
C345 C 0.8061 0.7558 0.04244 0.0
C346 C 0.85411 0.72608 0.17087 0.0
C347 C 0.76383 0.7108 0.05206 0.0
C348 C 0.77762 0.64235 0.12649 0.0
C349 C 0.76752 0.63731 0.21769 0.0
C350 C 0.7917 0.66876 0.09129 0.0
C351 C 0.79543 0.69051 0.14834 0.0
C352 C 0.78539 0.68542 0.2407 0.0
C353 C 0.77173 0.65895 0.27431 0.0
C354 C 0.80237 0.67336 -0.00709 0.0
C355 C 0.78859 0.70792 0.30362 0.0
H356 H 0.86998 0.77669 0.11461 0.0
H357 H 0.79404 0.7634 0.01131 0.0
H358 H 0.84798 0.72072 0.2446 0.0
H359 H 0.85111 0.70765 0.13523 0.0
H360 H 0.87585 0.7414 0.16906 0.0
H361 H 0.75507 0.72117 0.01235 0.0
H362 H 0.75973 0.69239 0.0136 0.0
H363 H 0.75336 0.70432 0.12016 0.0
H364 H 0.77441 0.62566 0.08255 0.0
H365 H 0.76389 0.65514 0.34479 0.0
H366 H 0.8243 0.68792 -0.00721 0.0
H367 H 0.79261 0.68224 0.95057 0.0
H368 H 0.79878 0.65448 0.95887 0.0
H369 H 0.8102 0.72304 0.31184 0.0
H370 H 0.77979 0.70062 0.37381 0.0
H371 H 0.77865 0.71829 0.27178 0.0
C372 C 0.08614 0.49105 0.4317 0.0
C373 C 0.09046 0.48838 0.52625 0.0
C374 C 0.0599 0.47874 0.39473 0.0
C375 C 0.03757 0.46315 0.45357 0.0
C376 C 0.04192 0.46073 0.54935 0.0
C377 C 0.06827 0.47349 0.58451 0.0
C378 C 0.05611 0.48208 0.29256 0.0
C379 C 0.01877 0.44407 0.61441 0.0
C380 C 0.96567 0.44442 0.39284 0.0
C381 C 0.95479 0.4177 0.36308 0.0
C382 C 0.99293 0.45993 0.41825 0.0
C383 C 1.00966 0.44835 0.41515 0.0
C384 C 0.99901 0.42171 0.38221 0.0
C385 C 0.97182 0.40681 0.35604 0.0
C386 C 1.00359 0.4884 0.45154 0.0
C387 C 1.01601 0.40845 0.37873 0.0
H388 H 0.10326 0.50258 0.38648 0.0
H389 H 0.07152 0.47131 0.65762 0.0
H390 H 0.04688 0.46228 0.25717 0.0
H391 H 0.04212 0.48997 0.28385 0.0
H392 H 0.07539 0.49592 0.25725 0.0
H393 H 0.02552 0.44458 0.68729 0.0
H394 H 1.00423 0.45142 0.6137 0.0
H395 H 1.00788 0.42287 0.59043 0.0
H396 H 0.95277 0.45312 0.39797 0.0
H397 H 0.96371 0.38619 0.33337 0.0
H398 H 0.02252 0.50226 0.41454 0.0
H399 H 1.00836 0.48974 0.52692 0.0
H400 H 0.9889 0.49536 0.44075 0.0
H401 H 0.03482 0.42113 0.33932 0.0
H402 H 1.00525 0.38825 0.34588 0.0
H403 H 0.02185 0.40628 0.4505 0.0
C404 C 0.60242 0.64199 0.50629 0.0
C405 C 0.57446 0.62924 0.51688 0.0
C406 C 0.61495 0.62754 0.47786 0.0
C407 C 0.599 0.59991 0.45549 0.0
C408 C 0.5706 0.58721 0.46252 0.0
C409 C 0.55869 0.60191 0.4953 0.0
C410 C 0.64529 0.64166 0.47491 0.0
C411 C 0.55283 0.55812 0.43572 0.0
C412 C 0.63547 0.57183 0.31361 0.0
C413 C 0.64116 0.55801 0.3819 0.0
C414 C 0.6205 0.58439 0.33546 0.0
C415 C 0.61223 0.58419 0.42871 0.0
C416 C 0.61799 0.57018 0.49776 0.0
C417 C 0.6319 0.55679 0.47302 0.0
C418 C 0.61388 0.59818 0.2591 0.0
C419 C 0.61056 0.57033 0.59863 0.0
H420 H 0.61462 0.66311 0.52385 0.0
H421 H 0.53703 0.59214 0.50297 0.0
H422 H 0.65258 0.63128 0.52163 0.0
H423 H 0.65221 0.64086 0.4035 0.0
H424 H 0.65476 0.66305 0.4966 0.0
H425 H 0.53115 0.55194 0.43698 0.0
H426 H 0.55811 0.55454 0.3648 0.0
H427 H 0.55613 0.54506 0.48433 0.0
H428 H 0.64263 0.57269 0.24307 0.0
H429 H 0.63669 0.5464 0.52605 0.0
H430 H 0.62519 0.62023 0.2702 0.0
H431 H 0.59214 0.59169 0.26072 0.0
H432 H 0.61898 0.59386 0.18894 0.0
H433 H 0.62052 0.59131 0.62479 0.0
H434 H 0.61656 0.55851 0.64373 0.0
H435 H 0.58856 0.56197 0.60545 0.0
C436 C 0.5149 0.09383 0.39236 0.0
C437 C 0.4988 0.10452 0.36372 0.0
C438 C 0.50337 0.06668 0.41836 0.0
C439 C 0.47504 0.04988 0.41709 0.0
C440 C 0.45876 0.06032 0.3853 0.0
C441 C 0.47082 0.08741 0.35844 0.0
C442 C 0.52146 0.05622 0.45035 0.0
C443 C 0.42846 0.04324 0.38383 0.0
C444 C 0.44157 0.97357 0.43536 0.0
C445 C 0.43508 0.96947 0.53035 0.0
C446 C 0.45524 0.99968 0.39765 0.0
C447 C 0.46222 0.02211 0.45621 0.0
C448 C 0.45597 0.01798 0.55242 0.0
C449 C 0.44265 0.99175 0.58832 0.0
C450 C 0.46185 1.00325 0.29504 0.0
C451 C 0.46273 0.04124 0.61721 0.0
H452 H 0.53653 0.1068 0.39611 0.0
H453 H 0.45813 0.09539 0.33669 0.0
H454 H 0.51845 0.05165 0.52593 0.0
H455 H 0.51626 0.03724 0.41362 0.0
H456 H 0.54306 0.07093 0.43813 0.0
H457 H 0.41876 0.05384 0.35176 0.0
H458 H 0.42218 0.02437 0.3447 0.0
H459 H 0.42084 0.03754 0.45611 0.0
H460 H 0.43576 0.95637 0.39037 0.0
H461 H 0.4376 0.98866 0.66176 0.0
H462 H 0.48368 0.01732 0.28491 0.0
H463 H 0.45096 0.01225 0.26042 0.0
H464 H 0.45634 0.98393 0.26001 0.0
H465 H 0.48463 0.05584 0.61504 0.0
H466 H 0.4569 0.03466 0.69047 0.0
H467 H 0.4522 0.05198 0.59407 0.0
C468 C 0.14683 0.10128 0.95893 0.0
C469 C 0.16233 0.10152 0.03486 0.0
C470 C 0.13385 0.1164 0.95956 0.0
C471 C 0.13634 0.13233 0.03822 0.0
C472 C 0.15249 0.13321 0.11456 0.0
C473 C 0.16532 0.11773 0.11204 0.0
C474 C 0.11681 0.1147 0.87675 0.0
C475 C 0.15568 0.15001 0.19952 0.0
C476 C 0.11366 0.18339 -0.00591 0.0
C477 C 0.08681 0.1692 0.02427 0.0
C478 C 0.13057 0.17228 0.00267 0.0
C479 C 0.12037 0.14634 0.04188 0.0
C480 C 0.0936 0.13237 0.0753 0.0
C481 C 0.07724 0.14395 0.06627 0.0
C482 C 0.15903 0.18788 0.9666 0.0
C483 C 0.08177 0.1046 0.11691 0.0
H484 H 0.14452 0.08889 0.89875 0.0
H485 H 0.17735 0.11804 0.17072 0.0
H486 H 0.09547 0.10573 0.89847 0.0
H487 H 0.12328 0.13509 0.84951 0.0
H488 H 0.11795 0.10235 0.81931 0.0
H489 H 0.17046 0.15016 0.24979 0.0
H490 H 0.16226 0.17099 0.17876 0.0
H491 H 0.136 0.14202 0.23524 0.0
H492 H 0.12137 0.20298 0.96223 0.0
H493 H 0.05663 0.13277 0.09057 0.0
H494 H 0.16106 0.17781 0.90369 0.0
H495 H 0.17333 0.1883 0.01945 0.0
H496 H 0.16489 0.20887 0.94803 0.0
H497 H 0.08023 0.0902 0.06237 0.0
H498 H 0.06142 0.09737 0.14669 0.0
H499 H 0.09507 0.1044 0.17255 0.0
C500 C 0.87589 0.95404 0.01577 0.0
C501 C 0.89189 0.94258 0.03601 0.0
C502 C 0.8864 0.98201 0.02225 0.0
C503 C 0.91362 0.99893 0.04864 0.0
C504 C 0.92964 0.98739 0.07115 0.0
C505 C 0.91859 0.95947 0.06492 0.0
C506 C 0.86862 0.99352 -0.00167 0.0
C507 C 0.95884 1.00462 0.09842 0.0
C508 C 0.95311 0.07018 0.95651 0.0
C509 C 0.95576 0.08561 0.03577 0.0
C510 C 0.93866 0.04205 0.95925 0.0
C511 C 0.92636 0.0288 0.04344 0.0
C512 C 0.92816 0.04424 0.1232 0.0
C513 C 0.94294 0.07256 0.11852 0.0
C514 C 0.93746 0.02652 0.87264 0.0
C515 C 0.91516 0.03084 0.21403 0.0
H516 H 0.8552 0.94121 -0.00582 0.0
H517 H 0.93124 0.95097 0.08098 0.0
H518 H 0.86963 1.00737 0.05411 0.0
H519 H 0.87586 1.00541 0.93316 0.0
H520 H 0.8473 0.97763 -0.01158 0.0
H521 H 0.96809 0.99245 0.11931 0.0
H522 H 0.97042 0.01758 0.0389 0.0
H523 H 0.96083 0.01807 0.15705 0.0
H524 H 0.96286 0.08013 0.8921 0.0
H525 H 0.9449 0.08442 0.17984 0.0
H526 H 0.91628 0.01173 0.85517 0.0
H527 H 0.94802 0.01509 0.88541 0.0
H528 H 0.94688 0.03982 0.81148 0.0
H529 H 0.89376 0.01547 0.20254 0.0
H530 H 0.91623 0.04548 0.26684 0.0
H531 H 0.92535 0.02031 0.24244 0.0
C532 C 0.99043 0.92555 0.08326 0.0
C533 C 0.97558 0.89745 0.08917 0.0
C534 C 0.01852 0.93922 0.0729 0.0
C535 C 0.03228 0.92451 0.07161 0.0
C536 C 1.01746 0.89618 0.08192 0.0
C537 C 0.9892 0.88293 0.08883 0.0
C538 C 0.03333 0.96934 0.0598 0.0
C539 C 0.03141 0.87986 0.08442 0.0
C540 C 0.10099 0.95794 0.95331 0.0
C541 C 0.11813 0.97097 0.02854 0.0
C542 C 0.07299 0.94233 0.96645 0.0
C543 C 0.06207 0.93893 0.05748 0.0
C544 C 0.07962 0.95095 0.13417 0.0
C545 C 0.10738 0.9673 0.11849 0.0
C546 C 0.055 0.93061 0.88242 0.0
C547 C 0.06903 0.94711 0.23258 0.0
H548 H 0.97994 0.93684 0.08241 0.0
H549 H 0.97774 0.86119 0.0933 0.0
H550 H 0.04861 0.97922 0.11535 0.0
H551 H 0.04417 0.97458 -0.0078 0.0
H552 H 0.01962 0.97773 0.06105 0.0
H553 H 1.01732 0.85839 0.10082 0.0
H554 H 0.0409 0.88103 0.01598 0.0
H555 H 0.0477 0.88819 0.1373 0.0
H556 H 0.10937 0.96107 0.88368 0.0
H557 H 0.12075 0.97734 0.17669 0.0
H558 H 0.0418 0.9395 0.87592 0.0
H559 H 0.04174 0.90862 0.89085 0.0
H560 H 0.06664 0.93444 0.81681 0.0
H561 H 0.05739 0.95759 0.24164 0.0
H562 H 0.08547 0.95508 0.28502 0.0
H563 H 0.05518 0.92547 0.24678 0.0
C564 C 0.78119 0.51854 0.3427 0.0
C565 C 0.75375 0.50264 0.36413 0.0
C566 C 0.79873 0.50813 0.35005 0.0
C567 C 0.78855 0.48113 0.37851 0.0
C568 C 0.76105 0.46527 0.40254 0.0
C569 C 0.7441 0.4762 0.39541 0.0
C570 C 0.82797 0.52576 0.32461 0.0
C571 C 0.7492 0.43629 0.43206 0.0
C572 C 0.8196 0.44087 0.28757 0.0
C573 C 0.8326 0.43848 0.36666 0.0
C574 C 0.80611 0.4555 0.28989 0.0
C575 C 0.80562 0.46832 0.37345 0.0
C576 C 0.81951 0.46681 0.45296 0.0
C577 C 0.83281 0.45179 0.44875 0.0
C578 C 0.79145 0.45633 0.20361 0.0
C579 C 0.81963 0.48038 0.54307 0.0
H580 H 0.78894 0.53903 0.31928 0.0
H581 H 0.72299 0.46364 0.41246 0.0
H582 H 0.84104 0.52493 0.3799 0.0
H583 H 0.83234 0.51828 0.25943 0.0
H584 H 0.83339 0.54703 0.31398 0.0
H585 H 0.7279 0.42724 0.45456 0.0
H586 H 0.75016 0.4243 0.37309 0.0
H587 H 0.76102 0.43466 0.49018 0.0
H588 H 0.81944 0.43073 0.22364 0.0
H589 H 0.84291 0.45007 0.50992 0.0
H590 H 0.7979 0.47741 0.1849 0.0
H591 H 0.76951 0.44596 0.21749 0.0
H592 H 0.79501 0.44653 0.14283 0.0
H593 H 0.82564 0.50169 0.5302 0.0
H594 H 0.83348 0.47962 0.59538 0.0
H595 H 0.79904 0.47041 0.57286 0.0
C596 C 0.60831 0.40291 0.45257 0.0
C597 C 0.62234 0.41662 0.37229 0.0
C598 C 0.59319 0.37457 0.45396 0.0
C599 C 0.59228 0.3598 0.37339 0.0
C600 C 0.60588 0.37373 0.29168 0.0
C601 C 0.62064 0.40186 0.29219 0.0
C602 C 0.57882 0.36042 0.5422 0.0
C603 C 0.60566 0.35892 0.20434 0.0
C604 C 0.58329 0.2899 0.38933 0.0
C605 C 0.55703 0.27364 0.35529 0.0
C606 C 0.59449 0.31776 0.39935 0.0
C607 C 0.5791 0.32987 0.37536 0.0
C608 C 0.55226 0.31354 0.34398 0.0
C609 C 0.54158 0.28562 0.33388 0.0
C610 C 0.62328 0.33436 0.43201 0.0
C611 C 0.53514 0.32567 0.31831 0.0
H612 H 0.60952 0.41426 0.5145 0.0
H613 H 0.63133 0.41232 0.22965 0.0
H614 H 0.55752 0.34546 0.52695 0.0
H615 H 0.5883 0.3493 0.57149 0.0
H616 H 0.57943 0.37466 0.59582 0.0
H617 H 0.61611 0.37274 0.14525 0.0
H618 H 0.61569 0.34705 0.21821 0.0
H619 H 0.58468 0.34459 0.18304 0.0
H620 H 0.5955 0.28099 0.40646 0.0
H621 H 0.52121 0.27327 0.30836 0.0
H622 H 0.62461 0.34741 0.49112 0.0
H623 H 0.63588 0.34771 0.37478 0.0
H624 H 0.63188 0.32172 0.45428 0.0
H625 H 0.53565 0.33911 0.37477 0.0
H626 H 0.51389 0.3101 0.30492 0.0
H627 H 0.54333 0.33811 0.25467 0.0
C628 C 0.65687 0.24176 0.28375 0.0
C629 C 0.64177 0.2281 0.36261 0.0
C630 C 0.68505 0.25557 0.285 0.0
C631 C 0.69871 0.25574 0.36723 0.0
C632 C 0.68361 0.24134 0.4466 0.0
C633 C 0.65523 0.22769 0.44346 0.0
C634 C 0.70018 0.27071 0.19889 0.0
C635 C 0.69745 0.24092 0.53535 0.0
C636 C 0.77315 0.27961 0.33087 0.0
C637 C 0.78509 0.30697 0.35368 0.0
C638 C 0.74517 0.2623 0.33943 0.0
C639 C 0.72868 0.2726 0.37073 0.0
C640 C 0.74073 0.30001 0.39621 0.0
C641 C 0.76867 0.31677 0.38768 0.0
C642 C 0.73314 0.23316 0.31217 0.0
C643 C 0.72397 0.31198 0.42893 0.0
H644 H 0.64661 0.2421 0.2208 0.0
H645 H 0.64364 0.21712 0.50448 0.0
H646 H 0.71195 0.29254 0.21433 0.0
H647 H 0.71467 0.26429 0.17745 0.0
H648 H 0.68657 0.26759 0.13934 0.0
H649 H 0.68302 0.2271 0.58816 0.0
H650 H 0.71251 0.23469 0.52048 0.0
H651 H 0.70846 0.26144 0.56547 0.0
H652 H 0.7856 0.27173 0.30533 0.0
H653 H 0.77755 0.33781 0.40592 0.0
H654 H 0.72091 0.22916 0.24809 0.0
H655 H 0.7195 0.21996 0.36775 0.0
H656 H 0.74879 0.2276 0.29883 0.0
H657 H 0.71086 0.31147 0.37127 0.0
H658 H 0.73653 0.33312 0.45254 0.0
H659 H 0.71066 0.29997 0.48709 0.0
C660 C 0.49965 0.78571 0.77545 0.0
C661 C 0.49939 0.77201 0.69435 0.0
C662 C 0.48579 0.8002 0.77888 0.0
C663 C 0.47135 0.80081 0.69953 0.0
C664 C 0.47168 0.78749 0.61705 0.0
C665 C 0.48568 0.77336 0.61552 0.0
C666 C 0.48604 0.81429 0.86787 0.0
C667 C 0.45649 0.78742 0.53095 0.0
C668 C 0.40992 0.80898 0.71986 0.0
C669 C 0.41958 0.83519 0.68625 0.0
C670 C 0.42685 0.79804 0.72838 0.0
C671 C 0.45429 0.81365 0.70326 0.0
C672 C 0.46446 0.84044 0.67236 0.0
C673 C 0.44698 0.85086 0.66382 0.0
C674 C 0.41504 0.7693 0.76066 0.0
C675 C 0.49363 0.8578 0.64546 0.0
H676 H 0.51026 0.78475 0.83643 0.0
H677 H 0.48547 0.7629 0.55237 0.0
H678 H 0.49211 0.83553 0.85337 0.0
H679 H 0.46549 0.80456 0.89787 0.0
H680 H 0.49993 0.81379 0.92065 0.0
H681 H 0.45974 0.77707 0.47121 0.0
H682 H 0.43462 0.77715 0.54624 0.0
H683 H 0.46278 0.8083 0.50987 0.0
H684 H 0.38885 0.79663 0.73778 0.0
H685 H 0.45475 0.87119 0.6386 0.0
H686 H 0.4271 0.76808 0.81878 0.0
H687 H 0.41567 0.75682 0.7028 0.0
H688 H 0.39385 0.76052 0.78417 0.0
H689 H 0.50686 0.85743 0.70105 0.0
H690 H 0.49906 0.87898 0.63251 0.0
H691 H 0.49776 0.84973 0.58123 0.0
C692 C 0.25113 0.6241 0.71576 0.0
C693 C 0.22477 0.60752 0.6831 0.0
C694 C 0.26207 0.65194 0.72518 0.0
C695 C 0.2463 0.66371 0.70206 0.0
C696 C 0.21936 0.64704 0.67225 0.0
C697 C 0.20895 0.61916 0.66265 0.0
C698 C 0.29098 0.66891 0.75612 0.0
C699 C 0.20181 0.65878 0.64764 0.0
C700 C 0.27505 0.73691 0.77678 0.0
C701 C 0.28851 0.75046 0.69548 0.0
C702 C 0.26027 0.70856 0.77941 0.0
C703 C 0.25914 0.69361 0.69906 0.0
C704 C 0.27214 0.70736 0.61636 0.0
C705 C 0.28655 0.7355 0.61564 0.0
C706 C 0.24651 0.69462 0.86865 0.0
C707 C 0.27168 0.69236 0.52921 0.0
H708 H 0.26362 0.61544 0.73212 0.0
H709 H 0.1885 0.60656 0.63822 0.0
H710 H 0.3032 0.68216 0.69809 0.0
H711 H 0.29244 0.68206 0.81504 0.0
H712 H 0.29991 0.65653 0.77801 0.0
H713 H 0.18055 0.64299 0.63574 0.0
H714 H 0.20247 0.67233 0.70397 0.0
H715 H 0.20952 0.67103 0.58339 0.0
H716 H 0.27647 0.74841 0.83855 0.0
H717 H 0.2968 0.74582 0.55232 0.0
H718 H 0.25641 0.68385 0.89753 0.0
H719 H 0.2252 0.67937 0.85486 0.0
H720 H 0.24717 0.70893 0.92204 0.0
H721 H 0.28201 0.68075 0.54266 0.0
H722 H 0.28172 0.70604 0.4694 0.0
H723 H 0.25065 0.67778 0.50922 0.0
C724 C 0.44197 0.61637 0.64284 0.0
C725 C 0.45397 0.64317 0.67289 0.0
C726 C 0.41399 0.59891 0.65083 0.0
C727 C 0.39759 0.60852 0.68889 0.0
C728 C 0.4097 0.63537 0.72105 0.0
C729 C 0.43764 0.65226 0.71298 0.0
C730 C 0.40189 0.57038 0.61627 0.0
C731 C 0.39303 0.64662 0.76095 0.0
C732 C 0.32537 0.5789 0.60766 0.0
C733 C 0.31065 0.56372 0.68496 0.0
C734 C 0.35355 0.59288 0.60741 0.0
C735 C 0.36761 0.59164 0.68641 0.0
C736 C 0.35291 0.57578 0.76408 0.0
C737 C 0.32452 0.56202 0.76259 0.0
C738 C 0.36826 0.60964 0.52334 0.0
C739 C 0.36719 0.57384 0.84933 0.0
H740 H 0.45438 0.60905 0.61256 0.0
H741 H 0.44658 0.67287 0.73672 0.0
H742 H 0.38863 0.55611 0.67039 0.0
H743 H 0.38923 0.56752 0.55416 0.0
H744 H 0.41749 0.56522 0.59704 0.0
H745 H 0.40565 0.66734 0.7884 0.0
H746 H 0.3796 0.647 0.70616 0.0
H747 H 0.38004 0.63359 0.81803 0.0
H748 H 0.31482 0.58027 0.54719 0.0
H749 H 0.31323 0.55027 0.82235 0.0
H750 H 0.38267 0.60373 0.49654 0.0
H751 H 0.38007 0.63114 0.54347 0.0
H752 H 0.35436 0.60759 0.46603 0.0
H753 H 0.38212 0.56786 0.82916 0.0
H754 H 0.35302 0.55914 0.90081 0.0
H755 H 0.37842 0.5938 0.8834 0.0
C756 C 0.03923 0.18657 0.69639 0.0
C757 C 0.02025 0.19185 0.73714 0.0
C758 C 0.04328 0.18874 0.6002 0.0
C759 C 0.02876 0.19749 0.54497 0.0
C760 C 1.00997 0.20345 0.58637 0.0
C761 C 1.00549 0.19997 0.68249 0.0
C762 C 0.06282 0.18139 0.55768 0.0
C763 C 0.99495 0.2138 0.52947 0.0
C764 C 0.06057 0.22799 0.31418 0.0
C765 C 0.04413 0.20733 0.2528 0.0
C766 C 0.05532 0.22529 0.40974 0.0
C767 C 0.03376 0.20095 0.444 0.0
C768 C 1.01747 0.17976 0.38222 0.0
C769 C 0.02259 0.18345 0.28653 0.0
C770 C 0.07258 0.24854 0.47373 0.0
C771 C 0.99489 0.15323 0.4172 0.0
H772 H 0.05032 0.17995 0.7395 0.0
H773 H 0.99089 0.20405 0.71524 0.0
H774 H 0.05262 0.16597 0.50269 0.0
H775 H 0.07966 0.19926 0.52404 0.0
H776 H 0.0713 0.17349 0.61018 0.0
H777 H 0.98163 0.2182 0.57309 0.0
H778 H 1.00946 0.23243 0.4924 0.0
H779 H 0.98252 0.19883 0.47573 0.0
H780 H 0.07702 0.2466 0.28718 0.0
H781 H 1.01002 0.16758 0.23814 0.0
H782 H 0.08338 0.24263 0.52386 0.0
H783 H 0.05973 0.25407 0.515 0.0
H784 H 0.08766 0.26656 0.43499 0.0
H785 H 1.00285 0.14436 0.46788 0.0
H786 H 0.98468 0.13859 0.35986 0.0
H787 H 0.97974 0.15635 0.45432 0.0
C788 C 0.87039 0.83553 0.70145 0.0
C789 C 0.87231 0.85598 0.7592 0.0
C790 C 0.86582 0.83587 0.60581 0.0
C791 C 0.86427 0.85776 0.5677 0.0
C792 C 0.86639 0.87855 0.62609 0.0
C793 C 0.86985 0.87712 0.72186 0.0
C794 C 0.8626 0.81286 0.54573 0.0
C795 C 0.86564 0.90259 0.58722 0.0
C796 C 0.8794 0.87086 0.31067 0.0
C797 C 0.85364 0.86155 0.27479 0.0
C798 C 0.88326 0.8703 0.40671 0.0
C799 C 0.8606 0.85903 0.46652 0.0
C800 C 0.83445 0.84911 0.42984 0.0
C801 C 0.83134 0.85102 0.33404 0.0
C802 C 0.91151 0.88195 0.44414 0.0
C803 C 0.80979 0.83607 0.49137 0.0
H804 H 0.87214 0.81915 0.73133 0.0
H805 H 0.87156 0.893 0.76717 0.0
H806 H 0.84342 0.80421 0.50639 0.0
H807 H 0.87911 0.82024 0.49387 0.0
H808 H 0.86276 0.79665 0.58733 0.0
H809 H 0.86841 0.9174 0.64209 0.0
H810 H 0.88169 0.91275 0.53417 0.0
H811 H 0.84615 0.89603 0.55192 0.0
H812 H 0.89649 0.87897 0.26373 0.0
H813 H 0.8114 0.84348 0.30499 0.0
H814 H 0.91385 0.86604 0.47901 0.0
H815 H 0.91542 0.89753 0.49723 0.0
H816 H 0.92694 0.89109 0.38845 0.0
H817 H 0.80912 0.81901 0.52992 0.0
H818 H 0.79085 0.82849 0.451 0.0
H819 H 0.8107 0.85063 0.54397 0.0
C820 C 0.22849 0.05361 0.68304 0.0
C821 C 0.20559 0.039 0.73785 0.0
C822 C 0.22746 0.049 0.58696 0.0
C823 C 0.20266 0.03022 0.54569 0.0
C824 C 0.17935 0.01589 0.60106 0.0
C825 C 0.18126 0.02007 0.69722 0.0
C826 C 0.25288 0.06384 0.52999 0.0
C827 C 0.1524 0.99639 0.55872 0.0
C828 C 0.19537 0.03622 0.28668 0.0
C829 C 0.19785 0.01472 0.25345 0.0
C830 C 0.19646 0.0413 0.38236 0.0
C831 C 0.20113 0.02502 0.44476 0.0
C832 C 0.20392 1.00342 0.41105 0.0
C833 C 0.20173 0.99821 0.31543 0.0
C834 C 0.19247 0.06391 0.41662 0.0
C835 C 0.20967 0.98616 0.47569 0.0
H836 H 0.24723 0.06816 0.71567 0.0
H837 H 0.16353 1.00908 0.74046 0.0
H838 H 0.25697 0.04923 0.4935 0.0
H839 H 0.25038 0.07615 0.47577 0.0
H840 H 0.27062 0.07722 0.57345 0.0
H841 H 0.13598 0.9881 0.61122 0.0
H842 H 0.14726 1.00653 0.5033 0.0
H843 H 0.15332 0.97944 0.52562 0.0
H844 H 0.19231 0.04883 0.23787 0.0
H845 H 0.20395 0.98177 0.28886 0.0
H846 H 0.21078 0.07915 0.45342 0.0
H847 H 0.17565 0.05607 0.46741 0.0
H848 H 0.18801 0.07396 0.35893 0.0
H849 H 0.22811 0.99897 0.51689 0.0
H850 H 0.21247 0.97092 0.43748 0.0
H851 H 0.1929 0.97559 0.52586 0.0
C852 C 0.68779 0.51456 0.63079 0.0
C853 C 0.70954 0.5384 0.59772 0.0
C854 C 0.68234 0.51082 0.72626 0.0
C855 C 0.69854 0.53189 0.78851 0.0
C856 C 0.72036 0.55616 0.75495 0.0
C857 C 0.72592 0.55893 0.65961 0.0
C858 C 0.65949 0.48434 0.76051 0.0
C859 C 0.73757 0.57928 0.81948 0.0
C860 C 0.67025 0.53141 0.02661 0.0
C861 C 0.6849 0.52323 0.08158 0.0
C862 C 0.67465 0.5346 0.93037 0.0
C863 C 0.69328 0.52834 0.88931 0.0
C864 C 0.70757 0.51941 0.94486 0.0
C865 C 0.70358 0.51748 0.04103 0.0
C866 C 0.65984 0.5451 0.87302 0.0
C867 C 0.72693 0.51175 0.90276 0.0
H868 H 0.67525 0.49881 0.582 0.0
H869 H 0.74252 0.57753 0.63316 0.0
H870 H 0.66715 0.47529 0.81156 0.0
H871 H 0.64434 0.48761 0.79702 0.0
H872 H 0.64935 0.4698 0.70286 0.0
H873 H 0.75286 0.59729 0.78121 0.0
H874 H 0.72471 0.58492 0.86023 0.0
H875 H 0.74811 0.57318 0.87001 0.0
H876 H 0.65586 0.53583 0.05921 0.0
H877 H 0.71457 0.5108 0.08439 0.0
H878 H 0.64761 0.53029 0.81859 0.0
H879 H 0.6745 0.56383 0.83675 0.0
H880 H 0.64637 0.5494 0.91619 0.0
H881 H 0.71672 0.49648 0.84731 0.0
H882 H 0.73507 0.50353 0.95539 0.0
H883 H 0.74402 0.52956 0.86981 0.0
C884 C 0.49968 0.19 0.6459 0.0
C885 C 0.52 0.1935 0.58406 0.0
C886 C 0.50245 0.18749 0.74138 0.0
C887 C 0.52653 0.18953 0.7751 0.0
C888 C 0.54742 0.19375 0.71291 0.0
C889 C 0.54366 0.19521 0.6173 0.0
C890 C 0.4795 0.18224 0.80587 0.0
C891 C 0.5737 0.19692 0.74734 0.0
C892 C 0.54133 0.20908 0.02757 0.0
C893 C 0.53507 0.18453 0.06812 0.0
C894 C 0.53943 0.21114 0.93137 0.0
C895 C 0.52998 0.18781 0.87593 0.0
C896 C 0.52314 0.16281 0.91708 0.0
C897 C 0.52635 0.16159 0.01326 0.0
C898 C 0.54771 0.23827 0.88911 0.0
C899 C 0.51207 0.1374 0.8599 0.0
H900 H 0.48123 0.18835 0.61933 0.0
H901 H 0.55926 0.19794 0.56857 0.0
H902 H 0.47341 0.16372 0.84694 0.0
H903 H 0.48604 0.19903 0.85614 0.0
H904 H 0.46166 0.17992 0.76754 0.0
H905 H 0.58818 0.201 0.68976 0.0
H906 H 0.58304 0.21367 0.79827 0.0
H907 H 0.57004 0.17842 0.78404 0.0
H908 H 0.54844 0.22682 0.07089 0.0
H909 H 0.52154 0.1427 0.0459 0.0
H910 H 0.53012 0.23793 0.85584 0.0
H911 H 0.56297 0.24299 0.83386 0.0
H912 H 0.55621 0.25465 0.9417 0.0
H913 H 0.49354 0.13378 0.82325 0.0
H914 H 0.50724 0.11954 0.90324 0.0
H915 H 0.52682 0.13956 0.8058 0.0
C916 C 0.87816 0.33861 0.64147 0.0
C917 C 0.86731 0.35054 0.58463 0.0
C918 C 0.88137 0.34396 0.73694 0.0
C919 C 0.87251 0.36079 0.77582 0.0
C920 C 0.86126 0.37267 0.71841 0.0
C921 C 0.85929 0.36778 0.62246 0.0
C922 C 0.89428 0.33174 0.79596 0.0
C923 C 0.85082 0.39 0.7585 0.0
C924 C 0.85422 0.35056 0.0303 0.0
C925 C 0.87575 0.37358 0.06936 0.0
C926 C 0.85282 0.34629 0.93427 0.0
C927 C 0.87399 0.36504 0.87725 0.0
C928 C 0.89634 0.38779 0.91696 0.0
C929 C 0.89672 0.39207 0.01306 0.0
C930 C 0.82838 0.32215 0.89368 0.0
C931 C 0.91969 0.40759 0.85803 0.0
H932 H 0.88476 0.32564 0.6108 0.0
H933 H 0.85099 0.37693 0.57725 0.0
H934 H 0.91146 0.34771 0.83553 0.0
H935 H 0.87962 0.31772 0.84764 0.0
H936 H 0.90166 0.32057 0.75353 0.0
H937 H 0.8424 0.39744 0.70408 0.0
H938 H 0.83487 0.37834 0.81057 0.0
H939 H 0.8672 0.40753 0.79525 0.0
H940 H 0.83794 0.3364 0.07444 0.0
H941 H 0.91339 0.40976 0.04425 0.0
H942 H 0.83445 0.30913 0.85636 0.0
H943 H 0.81855 0.32882 0.84207 0.0
H944 H 0.81339 0.30992 0.94786 0.0
H945 H 0.92778 0.3969 0.81666 0.0
H946 H 0.93622 0.4233 0.90073 0.0
H947 H 0.91279 0.41755 0.80796 0.0
C948 C 0.37014 0.85031 0.36151 0.0
C949 C 0.35208 0.8569 0.40215 0.0
C950 C 0.37414 0.8522 0.26532 0.0
C951 C 0.36053 0.86196 0.20999 0.0
C952 C 0.3426 0.86912 0.25124 0.0
C953 C 0.33812 0.86593 0.34741 0.0
C954 C 0.39273 0.84357 0.22296 0.0
C955 C 0.32856 0.88052 0.19417 0.0
C956 C 0.3933 0.89203 0.98 0.0
C957 C 0.37625 0.87186 0.9181 0.0
C958 C 0.38801 0.88928 0.07551 0.0
C959 C 0.36574 0.86538 0.10918 0.0
C960 C 0.34887 0.84463 0.04693 0.0
C961 C 0.35409 0.84836 0.95132 0.0
C962 C 0.40596 0.91208 0.14009 0.0
C963 C 0.32549 0.81853 0.08129 0.0
H964 H 0.38058 0.84296 0.40476 0.0
H965 H 0.32421 0.87099 0.38013 0.0
H966 H 0.38204 0.82839 0.16765 0.0
H967 H 0.41015 0.86101 0.18975 0.0
H968 H 0.40041 0.83488 0.27547 0.0
H969 H 0.31569 0.88558 0.23757 0.0
H970 H 0.34369 0.89896 0.15765 0.0
H971 H 0.31585 0.8659 0.13998 0.0
H972 H 0.41025 0.91035 0.95348 0.0
H973 H 0.34105 0.83287 0.90257 0.0
H974 H 0.416 0.90531 0.19033 0.0
H975 H 0.39372 0.91843 0.18119 0.0
H976 H 0.42169 0.9298 0.10183 0.0
H977 H 0.33268 0.80901 0.13223 0.0
H978 H 0.31495 0.8041 0.02368 0.0
H979 H 0.31078 0.82243 0.11796 0.0
C980 C 0.21248 0.53468 0.95077 0.0
C981 C 0.18712 0.52555 0.9118 0.0
C982 C 0.21515 0.53245 0.0467 0.0
C983 C 0.19173 0.51983 0.10275 0.0
C984 C 0.16598 0.5098 0.06259 0.0
C985 C 0.16403 0.51325 0.96725 0.0
C986 C 0.24294 0.5441 0.08825 0.0
C987 C 0.1406 0.49544 0.12014 0.0
C988 C 0.19979 0.49625 0.33954 0.0
C989 C 0.20102 0.5166 0.39622 0.0
C990 C 0.19591 0.49655 0.24344 0.0
C991 C 0.1942 0.51821 0.20419 0.0
C992 C 0.19519 0.53867 0.26163 0.0
C993 C 0.19813 0.53734 0.35761 0.0
C994 C 0.19391 0.47394 0.18396 0.0
C995 C 0.19401 0.56236 0.22154 0.0
H996 H 0.23016 0.54405 0.90653 0.0
H997 H 0.14441 0.50579 0.93556 0.0
H998 H 0.24612 0.55958 0.14089 0.0
H999 H 0.24495 0.5282 0.12466 0.0
H1000 H 0.25902 0.55343 0.03475 0.0
H1001 H 0.12214 0.48724 0.07668 0.0
H1002 H 0.14031 0.47866 0.15934 0.0
H1003 H 0.14002 0.50942 0.1721 0.0
H1004 H 0.20188 0.48017 0.37037 0.0
H1005 H 0.19924 0.55313 0.40203 0.0
H1006 H 0.21114 0.48178 0.13499 0.0
H1007 H 0.17528 0.46516 0.14138 0.0
H1008 H 0.19379 0.45772 0.22637 0.0
H1009 H 0.21066 0.57316 0.171 0.0
H1010 H 0.19555 0.57677 0.27613 0.0
H1011 H 0.17489 0.55533 0.18308 0.0
C1012 C 0.53267 0.68375 0.36424 0.0
C1013 C 0.54735 0.70991 0.39948 0.0
C1014 C 0.53193 0.67895 0.26856 0.0
C1015 C 0.54652 0.70086 0.20756 0.0
C1016 C 0.5625 0.72716 0.24332 0.0
C1017 C 0.56262 0.73141 0.33938 0.0
C1018 C 0.51465 0.65064 0.23254 0.0
C1019 C 0.57871 0.75085 0.17995 0.0
C1020 C 0.55757 0.68385 0.96363 0.0
C1021 C 0.53758 0.68585 0.91497 0.0
C1022 C 0.56118 0.68933 0.05907 0.0
C1023 C 0.54394 0.69636 0.10605 0.0
C1024 C 0.52369 0.6984 0.05656 0.0
C1025 C 0.52098 0.69342 0.96061 0.0
C1026 C 0.58334 0.68758 0.1095 0.0
C1027 C 0.5047 0.70545 0.10513 0.0
H1028 H 0.521 0.6671 0.41113 0.0
H1029 H 0.57413 0.75161 0.36713 0.0
H1030 H 0.49822 0.64957 0.18872 0.0
H1031 H 0.52672 0.64489 0.18791 0.0
H1032 H 0.50556 0.63573 0.28976 0.0
H1033 H 0.59179 0.76956 0.21952 0.0
H1034 H 0.5915 0.74665 0.1329 0.0
H1035 H 0.56496 0.75432 0.13542 0.0
H1036 H 0.57054 0.67829 0.92663 0.0
H1037 H 0.50567 0.695 0.92151 0.0
H1038 H 0.57459 0.67177 0.16382 0.0
H1039 H 0.59675 0.70686 0.14535 0.0
H1040 H 0.59566 0.68292 0.06162 0.0
H1041 H 0.49341 0.69042 0.16018 0.0
H1042 H 0.49005 0.70613 0.05629 0.0
H1043 H 0.51625 0.72529 0.13977 0.0
loop_
_geom_bond_atom_site_label_1
_geom_bond_atom_site_label_2
_geom_bond_distance
_geom_bond_site_symmetry_2
_ccdc_geom_bond_type
Dy0 O4 2.398 . S
Dy0 O5 2.491 1_554 S
Dy0 O6 2.403 . S
Dy0 O7 2.664 . S
Dy0 O11 2.326 . S
Dy0 O15 2.310 1_554 S
Dy0 O16 2.351 . S
C1 O12 1.185 1_554 S
C1 O13 1.355 . S
C2 O4 1.185 1_556 S
C2 O5 1.355 . S
Dy3 O7 2.310 1_655 S
Dy3 O10 2.351 . S
Dy3 O12 2.398 1_554 S
Dy3 O13 2.491 . S
Dy3 O14 2.403 1_554 S
Dy3 O15 2.664 1_654 S
Dy3 O17 2.326 1_654 S
O4 Dy0 2.398 . S
O4 C2 1.185 1_554 S
O5 Dy0 2.491 1_556 S
O5 C2 1.355 . S
O6 Dy0 2.403 . S
O6 C8 1.254 . S
O7 Dy0 2.664 . S
O7 Dy3 2.310 1_455 S
O7 C8 1.268 . S
C8 O6 1.254 . S
C8 O7 1.268 . S
C9 O14 1.254 1_455 S
C9 O15 1.268 . S
O10 Dy3 2.351 . S
O10 C18 1.249 . S
O11 Dy0 2.326 . S
O11 C18 1.267 1_455 S
O12 C1 1.185 1_556 S
O12 Dy3 2.398 1_556 S
O13 C1 1.355 . S
O13 Dy3 2.491 . S
O14 Dy3 2.403 1_556 S
O14 C9 1.254 1_655 S
O15 Dy0 2.310 1_556 S
O15 Dy3 2.664 1_456 S
O15 C9 1.268 . S
O16 Dy0 2.351 . S
O16 C19 1.249 1_554 S
O17 Dy3 2.326 1_456 S
O17 C19 1.267 . S
C18 O10 1.249 . S
C18 O11 1.267 1_655 S
C19 O16 1.249 1_556 S
C19 O17 1.267 . S
Dy20 O24 2.398 . S
Dy20 O25 2.491 1_554 S
Dy20 O26 2.403 . S
Dy20 O27 2.664 . S
Dy20 O31 2.326 . S
Dy20 O35 2.310 1_554 S
Dy20 O36 2.351 . S
C21 O32 1.185 1_554 S
C21 O33 1.355 . S
C22 O24 1.185 1_556 S
C22 O25 1.355 . S
Dy23 O27 2.310 . S
Dy23 O30 2.351 . S
Dy23 O32 2.398 1_554 S
Dy23 O33 2.491 . S
Dy23 O34 2.403 1_554 S
Dy23 O35 2.664 1_554 S
Dy23 O37 2.326 1_554 S
O24 Dy20 2.398 . S
O24 C22 1.185 1_554 S
O25 Dy20 2.491 1_556 S
O25 C22 1.355 . S
O26 Dy20 2.403 . S
O26 C28 1.254 . S
O27 Dy20 2.664 . S
O27 Dy23 2.310 . S
O27 C28 1.268 . S
C28 O26 1.254 . S
C28 O27 1.268 . S
C29 O34 1.254 . S
C29 O35 1.268 . S
O30 Dy23 2.351 . S
O30 C38 1.249 . S
O31 Dy20 2.326 . S
O31 C38 1.267 . S
O32 C21 1.185 1_556 S
O32 Dy23 2.398 1_556 S
O33 C21 1.355 . S
O33 Dy23 2.491 . S
O34 Dy23 2.403 1_556 S
O34 C29 1.254 . S
O35 Dy20 2.310 1_556 S
O35 Dy23 2.664 1_556 S
O35 C29 1.268 . S
O36 Dy20 2.351 . S
O36 C39 1.249 1_554 S
O37 Dy23 2.326 1_556 S
O37 C39 1.267 . S
C38 O30 1.249 . S
C38 O31 1.267 . S
C39 O36 1.249 1_556 S
C39 O37 1.267 . S
Dy40 O44 2.398 . S
Dy40 O45 2.491 1_554 S
Dy40 O46 2.403 . S
Dy40 O47 2.664 1_565 S
Dy40 O51 2.326 1_565 S
Dy40 O55 2.310 1_564 S
Dy40 O56 2.351 . S
C41 O52 1.185 1_554 S
C41 O53 1.355 . S
C42 O44 1.185 1_556 S
C42 O45 1.355 . S
Dy43 O47 2.310 . S
Dy43 O50 2.351 . S
Dy43 O52 2.398 1_554 S
Dy43 O53 2.491 . S
Dy43 O54 2.403 1_554 S
Dy43 O55 2.664 1_554 S
Dy43 O57 2.326 1_554 S
O44 Dy40 2.398 . S
O44 C42 1.185 1_554 S
O45 Dy40 2.491 1_556 S
O45 C42 1.355 . S
O46 Dy40 2.403 . S
O46 C48 1.254 1_565 S
O47 Dy40 2.664 1_545 S
O47 Dy43 2.310 . S
O47 C48 1.268 . S
C48 O46 1.254 1_545 S
C48 O47 1.268 . S
C49 O54 1.254 . S
C49 O55 1.268 . S
O50 Dy43 2.351 . S
O50 C58 1.249 . S
O51 Dy40 2.326 1_545 S
O51 C58 1.267 . S
O52 C41 1.185 1_556 S
O52 Dy43 2.398 1_556 S
O53 C41 1.355 . S
O53 Dy43 2.491 . S
O54 Dy43 2.403 1_556 S
O54 C49 1.254 . S
O55 Dy40 2.310 1_546 S
O55 Dy43 2.664 1_556 S
O55 C49 1.268 . S
O56 Dy40 2.351 . S
O56 C59 1.249 1_554 S
O57 Dy43 2.326 1_556 S
O57 C59 1.267 1_545 S
C58 O50 1.249 . S
C58 O51 1.267 . S
C59 O56 1.249 1_556 S
C59 O57 1.267 1_565 S
Dy60 O64 2.398 . S
Dy60 O65 2.491 . S
Dy60 O66 2.403 . S
Dy60 O67 2.664 . S
Dy60 O71 2.326 . S
Dy60 O75 2.310 . S
Dy60 O76 2.351 . S
C61 O72 1.185 . S
C61 O73 1.355 . S
C62 O64 1.185 . S
C62 O65 1.355 . S
Dy63 O67 2.310 . S
Dy63 O70 2.351 . S
Dy63 O72 2.398 . S
Dy63 O73 2.491 . S
Dy63 O74 2.403 . S
Dy63 O75 2.664 . S
Dy63 O77 2.326 . S
O64 Dy60 2.398 . S
O64 C62 1.185 . S
O65 Dy60 2.491 . S
O65 C62 1.355 . S
O66 Dy60 2.403 . S
O66 C68 1.254 . S
O67 Dy60 2.664 . S
O67 Dy63 2.310 . S
O67 C68 1.268 . S
C68 O66 1.254 . S
C68 O67 1.268 . S
C69 O74 1.254 . S
C69 O75 1.268 . S
O70 Dy63 2.351 . S
O70 C78 1.249 . S
O71 Dy60 2.326 . S
O71 C78 1.267 . S
O72 C61 1.185 . S
O72 Dy63 2.398 . S
O73 C61 1.355 . S
O73 Dy63 2.491 . S
O74 Dy63 2.403 . S
O74 C69 1.254 . S
O75 Dy60 2.310 . S
O75 Dy63 2.664 . S
O75 C69 1.268 . S
O76 Dy60 2.351 . S
O76 C79 1.249 . S
O77 Dy63 2.326 . S
O77 C79 1.267 . S
C78 O70 1.249 . S
C78 O71 1.267 . S
C79 O76 1.249 . S
C79 O77 1.267 . S
Dy80 O84 2.398 . S
Dy80 O85 2.491 . S
Dy80 O86 2.403 . S
Dy80 O87 2.664 . S
Dy80 O91 2.326 . S
Dy80 O95 2.310 . S
Dy80 O96 2.351 . S
C81 O92 1.185 . S
C81 O93 1.355 . S
C82 O84 1.185 . S
C82 O85 1.355 . S
Dy83 O87 2.310 . S
Dy83 O90 2.351 . S
Dy83 O92 2.398 . S
Dy83 O93 2.491 . S
Dy83 O94 2.403 . S
Dy83 O95 2.664 . S
Dy83 O97 2.326 . S
O84 Dy80 2.398 . S
O84 C82 1.185 . S
O85 Dy80 2.491 . S
O85 C82 1.355 . S
O86 Dy80 2.403 . S
O86 C88 1.254 . S
O87 Dy80 2.664 . S
O87 Dy83 2.310 . S
O87 C88 1.268 . S
C88 O86 1.254 . S
C88 O87 1.268 . S
C89 O94 1.254 . S
C89 O95 1.268 . S
O90 Dy83 2.351 . S
O90 C98 1.249 . S
O91 Dy80 2.326 . S
O91 C98 1.267 . S
O92 C81 1.185 . S
O92 Dy83 2.398 . S
O93 C81 1.355 . S
O93 Dy83 2.491 . S
O94 Dy83 2.403 . S
O94 C89 1.254 . S
O95 Dy80 2.310 . S
O95 Dy83 2.664 . S
O95 C89 1.268 . S
O96 Dy80 2.351 . S
O96 C99 1.249 . S
O97 Dy83 2.326 . S
O97 C99 1.267 . S
C98 O90 1.249 . S
C98 O91 1.267 . S
C99 O96 1.249 . S
C99 O97 1.267 . S
Dy100 O104 2.398 . S
Dy100 O105 2.491 . S
Dy100 O106 2.403 . S
Dy100 O107 2.664 . S
Dy100 O111 2.326 . S
Dy100 O115 2.310 . S
Dy100 O116 2.351 . S
C101 O112 1.185 . S
C101 O113 1.355 . S
C102 O104 1.185 . S
C102 O105 1.355 . S
Dy103 O107 2.310 . S
Dy103 O110 2.351 . S
Dy103 O112 2.398 . S
Dy103 O113 2.491 . S
Dy103 O114 2.403 . S
Dy103 O115 2.664 . S
Dy103 O117 2.326 . S
O104 Dy100 2.398 . S
O104 C102 1.185 . S
O105 Dy100 2.491 . S
O105 C102 1.355 . S
O106 Dy100 2.403 . S
O106 C108 1.254 . S
O107 Dy100 2.664 . S
O107 Dy103 2.310 . S
O107 C108 1.268 . S
C108 O106 1.254 . S
C108 O107 1.268 . S
C109 O114 1.254 . S
C109 O115 1.268 . S
O110 Dy103 2.351 . S
O110 C118 1.249 . S
O111 Dy100 2.326 . S
O111 C118 1.267 . S
O112 C101 1.185 . S
O112 Dy103 2.398 . S
O113 C101 1.355 . S
O113 Dy103 2.491 . S
O114 Dy103 2.403 . S
O114 C109 1.254 . S
O115 Dy100 2.310 . S
O115 Dy103 2.664 . S
O115 C109 1.268 . S
O116 Dy100 2.351 . S
O116 C119 1.249 . S
O117 Dy103 2.326 . S
O117 C119 1.267 . S
C118 O110 1.249 . S
C118 O111 1.267 . S
C119 O116 1.249 . S
C119 O117 1.267 . S
Dy120 O124 2.398 . S
Dy120 O125 2.491 . S
Dy120 O126 2.403 . S
Dy120 O127 2.664 . S
Dy120 O131 2.326 . S
Dy120 O135 2.310 . S
Dy120 O136 2.351 . S
C121 O132 1.185 . S
C121 O133 1.355 . S
C122 O124 1.185 . S
C122 O125 1.355 . S
Dy123 O127 2.310 . S
Dy123 O130 2.351 . S
Dy123 O132 2.398 . S
Dy123 O133 2.491 . S
Dy123 O134 2.403 . S
Dy123 O135 2.664 . S
Dy123 O137 2.326 . S
O124 Dy120 2.398 . S
O124 C122 1.185 . S
O125 Dy120 2.491 . S
O125 C122 1.355 . S
O126 Dy120 2.403 . S
O126 C128 1.254 . S
O127 Dy120 2.664 . S
O127 Dy123 2.310 . S
O127 C128 1.268 . S
C128 O126 1.254 . S
C128 O127 1.268 . S
C129 O134 1.254 . S
C129 O135 1.268 . S
O130 Dy123 2.351 . S
O130 C138 1.249 . S
O131 Dy120 2.326 . S
O131 C138 1.267 . S
O132 C121 1.185 . S
O132 Dy123 2.398 . S
O133 C121 1.355 . S
O133 Dy123 2.491 . S
O134 Dy123 2.403 . S
O134 C129 1.254 . S
O135 Dy120 2.310 . S
O135 Dy123 2.664 . S
O135 C129 1.268 . S
O136 Dy120 2.351 . S
O136 C139 1.249 . S
O137 Dy123 2.326 . S
O137 C139 1.267 . S
C138 O130 1.249 . S
C138 O131 1.267 . S
C139 O136 1.249 . S
C139 O137 1.267 . S
Dy140 O144 2.398 . S
Dy140 O145 2.491 . S
Dy140 O146 2.403 . S
Dy140 O147 2.664 . S
Dy140 O151 2.326 . S
Dy140 O155 2.310 . S
Dy140 O156 2.351 . S
C141 O152 1.185 . S
C141 O153 1.355 . S
C142 O144 1.185 . S
C142 O145 1.355 . S
Dy143 O147 2.310 . S
Dy143 O150 2.351 . S
Dy143 O152 2.398 . S
Dy143 O153 2.491 . S
Dy143 O154 2.403 . S
Dy143 O155 2.664 . S
Dy143 O157 2.326 . S
O144 Dy140 2.398 . S
O144 C142 1.185 . S
O145 Dy140 2.491 . S
O145 C142 1.355 . S
O146 Dy140 2.403 . S
O146 C148 1.254 . S
O147 Dy140 2.664 . S
O147 Dy143 2.310 . S
O147 C148 1.268 . S
C148 O146 1.254 . S
C148 O147 1.268 . S
C149 O154 1.254 . S
C149 O155 1.268 . S
O150 Dy143 2.351 . S
O150 C158 1.249 . S
O151 Dy140 2.326 . S
O151 C158 1.267 . S
O152 C141 1.185 . S
O152 Dy143 2.398 . S
O153 C141 1.355 . S
O153 Dy143 2.491 . S
O154 Dy143 2.403 . S
O154 C149 1.254 . S
O155 Dy140 2.310 . S
O155 Dy143 2.664 . S
O155 C149 1.268 . S
O156 Dy140 2.351 . S
O156 C159 1.249 . S
O157 Dy143 2.326 . S
O157 C159 1.267 . S
C158 O150 1.249 . S
C158 O151 1.267 . S
C159 O156 1.249 . S
C159 O157 1.267 . S
Dy160 O164 2.398 . S
Dy160 O165 2.491 . S
Dy160 O166 2.403 . S
Dy160 O167 2.664 . S
Dy160 O171 2.326 . S
Dy160 O175 2.310 . S
Dy160 O176 2.351 . S
C161 O172 1.185 . S
C161 O173 1.355 . S
C162 O164 1.185 . S
C162 O165 1.355 . S
Dy163 O167 2.310 . S
Dy163 O170 2.351 . S
Dy163 O172 2.398 . S
Dy163 O173 2.491 . S
Dy163 O174 2.403 . S
Dy163 O175 2.664 . S
Dy163 O177 2.326 . S
O164 Dy160 2.398 . S
O164 C162 1.185 . S
O165 Dy160 2.491 . S
O165 C162 1.355 . S
O166 Dy160 2.403 . S
O166 C168 1.254 . S
O167 Dy160 2.664 . S
O167 Dy163 2.310 . S
O167 C168 1.268 . S
C168 O166 1.254 . S
C168 O167 1.268 . S
C169 O174 1.254 . S
C169 O175 1.268 . S
O170 Dy163 2.351 . S
O170 C178 1.249 . S
O171 Dy160 2.326 . S
O171 C178 1.267 . S
O172 C161 1.185 . S
O172 Dy163 2.398 . S
O173 C161 1.355 . S
O173 Dy163 2.491 . S
O174 Dy163 2.403 . S
O174 C169 1.254 . S
O175 Dy160 2.310 . S
O175 Dy163 2.664 . S
O175 C169 1.268 . S
O176 Dy160 2.351 . S
O176 C179 1.249 . S
O177 Dy163 2.326 . S
O177 C179 1.267 . S
C178 O170 1.249 . S
C178 O171 1.267 . S
C179 O176 1.249 . S
C179 O177 1.267 . S
C180 C181 1.391 . S
C180 C182 1.394 . S
C180 H196 0.931 . S
C181 C180 1.391 . S
C181 C185 1.376 . S
C182 C180 1.394 . S
C182 C183 1.369 . S
C182 C186 1.531 . S
C183 C182 1.369 . S
C183 C184 1.410 . S
C183 C191 1.503 . S
C184 C183 1.410 . S
C184 C185 1.392 . S
C184 C187 1.511 . S
C185 C181 1.376 . S
C185 C184 1.392 . S
C185 H197 0.929 1_556 S
C186 C182 1.531 . S
C186 H198 0.960 . S
C186 H199 0.962 . S
C186 H200 0.960 . S
C187 C184 1.511 . S
C187 H201 0.961 1_556 S
C187 H202 0.961 . S
C187 H203 0.961 . S
C188 C189 1.370 . S
C188 C190 1.363 . S
C188 H204 0.931 . S
C189 C188 1.370 . S
C189 C193 1.408 . S
C190 C188 1.363 . S
C190 C191 1.370 . S
C190 C194 1.524 . S
C191 C183 1.503 . S
C191 C190 1.370 . S
C191 C192 1.403 . S
C192 C191 1.403 . S
C192 C193 1.404 . S
C192 C195 1.539 . S
C193 C189 1.408 . S
C193 C192 1.404 . S
C193 H205 0.930 . S
C194 C190 1.524 . S
C194 H206 0.956 . S
C194 H207 0.961 . S
C194 H208 0.961 . S
C195 C192 1.539 . S
C195 H209 0.958 . S
C195 H210 0.961 . S
C195 H211 0.960 . S
H196 C180 0.931 . S
H197 C185 0.929 1_554 S
H198 C186 0.960 . S
H199 C186 0.962 . S
H200 C186 0.960 . S
H201 C187 0.961 1_554 S
H202 C187 0.961 . S
H203 C187 0.961 . S
H204 C188 0.931 . S
H205 C193 0.930 . S
H206 C194 0.956 . S
H207 C194 0.961 . S
H208 C194 0.961 . S
H209 C195 0.958 . S
H210 C195 0.961 . S
H211 C195 0.960 . S
C212 C213 1.391 . S
C212 C214 1.394 . S
C212 H228 0.931 . S
C213 C212 1.391 . S
C213 C217 1.376 . S
C214 C212 1.394 . S
C214 C215 1.369 . S
C214 C218 1.531 . S
C215 C214 1.369 . S
C215 C216 1.410 . S
C215 C223 1.503 . S
C216 C215 1.410 . S
C216 C217 1.392 . S
C216 C219 1.511 . S
C217 C213 1.376 . S
C217 C216 1.392 . S
C217 H229 0.929 . S
C218 C214 1.531 . S
C218 H230 0.960 . S
C218 H231 0.962 . S
C218 H232 0.960 . S
C219 C216 1.511 . S
C219 H233 0.961 . S
C219 H234 0.961 . S
C219 H235 0.961 . S
C220 C221 1.370 . S
C220 C222 1.363 . S
C220 H236 0.931 . S
C221 C220 1.370 . S
C221 C225 1.408 . S
C222 C220 1.363 . S
C222 C223 1.370 . S
C222 C226 1.524 . S
C223 C215 1.503 . S
C223 C222 1.370 . S
C223 C224 1.403 . S
C224 C223 1.403 . S
C224 C225 1.404 . S
C224 C227 1.539 . S
C225 C221 1.408 . S
C225 C224 1.404 . S
C225 H237 0.930 . S
C226 C222 1.524 . S
C226 H238 0.956 . S
C226 H239 0.961 . S
C226 H240 0.961 . S
C227 C224 1.539 . S
C227 H241 0.958 . S
C227 H242 0.964 . S
C227 H243 0.960 1_556 S
H228 C212 0.931 . S
H229 C217 0.929 . S
H230 C218 0.960 . S
H231 C218 0.962 . S
H232 C218 0.960 . S
H233 C219 0.961 . S
H234 C219 0.961 . S
H235 C219 0.961 . S
H236 C220 0.931 . S
H237 C225 0.930 . S
H238 C226 0.956 . S
H239 C226 0.961 . S
H240 C226 0.961 . S
H241 C227 0.958 . S
H242 C227 0.964 . S
H243 C227 0.960 1_554 S
C244 C245 1.391 . S
C244 C246 1.394 . S
C244 H260 0.931 . S
C245 C244 1.391 . S
C245 C249 1.376 . S
C246 C244 1.394 . S
C246 C247 1.369 . S
C246 C250 1.531 . S
C247 C246 1.369 . S
C247 C248 1.410 . S
C247 C255 1.503 . S
C248 C247 1.410 . S
C248 C249 1.392 . S
C248 C251 1.511 . S
C249 C245 1.376 . S
C249 C248 1.392 . S
C249 H261 0.929 1_556 S
C250 C246 1.531 . S
C250 H262 0.960 . S
C250 H263 0.962 . S
C250 H264 0.960 . S
C251 C248 1.511 . S
C251 H265 0.961 1_556 S
C251 H266 0.961 . S
C251 H267 0.961 . S
C252 C253 1.370 . S
C252 C254 1.363 . S
C252 H268 0.931 . S
C253 C252 1.370 . S
C253 C257 1.408 . S
C254 C252 1.363 . S
C254 C255 1.370 . S
C254 C258 1.524 . S
C255 C247 1.503 . S
C255 C254 1.370 . S
C255 C256 1.403 . S
C256 C255 1.403 . S
C256 C257 1.404 . S
C256 C259 1.539 . S
C257 C253 1.408 . S
C257 C256 1.404 . S
C257 H269 0.930 . S
C258 C254 1.524 . S
C258 H270 0.956 . S
C258 H271 0.961 . S
C258 H272 0.961 . S
C259 C256 1.539 . S
C259 H273 0.958 . S
C259 H274 0.961 . S
C259 H275 0.960 . S
H260 C244 0.931 . S
H261 C249 0.929 1_554 S
H262 C250 0.960 . S
H263 C250 0.962 . S
H264 C250 0.960 . S
H265 C251 0.961 1_554 S
H266 C251 0.961 . S
H267 C251 0.961 . S
H268 C252 0.931 . S
H269 C257 0.930 . S
H270 C258 0.956 . S
H271 C258 0.961 . S
H272 C258 0.961 . S
H273 C259 0.958 . S
H274 C259 0.961 . S
H275 C259 0.960 . S
C276 C277 1.391 . S
C276 C278 1.394 . S
C276 H292 0.931 . S
C277 C276 1.391 . S
C277 C281 1.376 . S
C278 C276 1.394 . S
C278 C279 1.369 . S
C278 C282 1.531 . S
C279 C278 1.369 . S
C279 C280 1.410 . S
C279 C287 1.503 . S
C280 C279 1.410 . S
C280 C281 1.392 . S
C280 C283 1.511 . S
C281 C277 1.376 . S
C281 C280 1.392 . S
C281 H293 0.929 . S
C282 C278 1.531 . S
C282 H294 0.960 . S
C282 H295 0.962 . S
C282 H296 0.960 . S
C283 C280 1.511 . S
C283 H297 0.961 . S
C283 H298 0.961 . S
C283 H299 0.961 . S
C284 C285 1.370 . S
C284 C286 1.363 . S
C284 H300 0.931 . S
C285 C284 1.370 . S
C285 C289 1.408 1_554 S
C286 C284 1.363 . S
C286 C287 1.370 . S
C286 C290 1.524 . S
C287 C279 1.503 . S
C287 C286 1.370 . S
C287 C288 1.403 . S
C288 C287 1.403 . S
C288 C289 1.404 1_554 S
C288 C291 1.539 1_554 S
C289 C285 1.408 1_556 S
C289 C288 1.404 1_556 S
C289 H301 0.930 . S
C290 C286 1.524 . S
C290 H302 0.956 . S
C290 H303 0.961 . S
C290 H304 0.961 . S
C291 C288 1.539 1_556 S
C291 H305 0.958 . S
C291 H306 0.961 . S
C291 H307 0.960 . S
H292 C276 0.931 . S
H293 C281 0.929 . S
H294 C282 0.960 . S
H295 C282 0.962 . S
H296 C282 0.960 . S
H297 C283 0.961 . S
H298 C283 0.961 . S
H299 C283 0.961 . S
H300 C284 0.931 . S
H301 C289 0.930 . S
H302 C290 0.956 . S
H303 C290 0.961 . S
H304 C290 0.961 . S
H305 C291 0.958 . S
H306 C291 0.961 . S
H307 C291 0.960 . S
C308 C309 1.391 . S
C308 C310 1.394 . S
C308 H324 0.931 . S
C309 C308 1.391 . S
C309 C313 1.376 . S
C310 C308 1.394 . S
C310 C311 1.369 . S
C310 C314 1.531 . S
C311 C310 1.369 . S
C311 C312 1.410 . S
C311 C319 1.503 . S
C312 C311 1.410 . S
C312 C313 1.392 . S
C312 C315 1.511 . S
C313 C309 1.376 . S
C313 C312 1.392 . S
C313 H325 0.929 . S
C314 C310 1.531 . S
C314 H326 0.960 . S
C314 H327 0.962 . S
C314 H328 0.960 . S
C315 C312 1.511 . S
C315 H329 0.964 . S
C315 H330 0.961 . S
C315 H331 0.961 . S
C316 C317 1.370 . S
C316 C318 1.363 . S
C316 H332 0.932 1_655 S
C317 C316 1.370 . S
C317 C321 1.408 . S
C318 C316 1.363 . S
C318 C319 1.370 . S
C318 C322 1.524 . S
C319 C311 1.503 . S
C319 C318 1.370 . S
C319 C320 1.403 . S
C320 C319 1.403 . S
C320 C321 1.404 . S
C320 C323 1.539 . S
C321 C317 1.408 . S
C321 C320 1.404 . S
C321 H333 0.930 . S
C322 C318 1.524 . S
C322 H334 0.956 . S
C322 H335 0.961 . S
C322 H336 0.961 . S
C323 C320 1.539 . S
C323 H337 0.958 . S
C323 H338 0.961 . S
C323 H339 0.960 . S
H324 C308 0.931 . S
H325 C313 0.929 . S
H326 C314 0.960 . S
H327 C314 0.962 . S
H328 C314 0.960 . S
H329 C315 0.964 . S
H330 C315 0.961 . S
H331 C315 0.961 . S
H332 C316 0.932 1_455 S
H333 C321 0.930 . S
H334 C322 0.956 . S
H335 C322 0.961 . S
H336 C322 0.961 . S
H337 C323 0.958 . S
H338 C323 0.961 . S
H339 C323 0.960 . S
C340 C341 1.391 . S
C340 C342 1.394 . S
C340 H356 0.931 . S
C341 C340 1.391 . S
C341 C345 1.376 . S
C342 C340 1.394 . S
C342 C343 1.369 . S
C342 C346 1.531 . S
C343 C342 1.369 . S
C343 C344 1.410 . S
C343 C351 1.503 . S
C344 C343 1.410 . S
C344 C345 1.392 . S
C344 C347 1.511 . S
C345 C341 1.376 . S
C345 C344 1.392 . S
C345 H357 0.929 1_554 S
C346 C342 1.531 . S
C346 H358 0.960 . S
C346 H359 0.962 . S
C346 H360 0.960 . S
C347 C344 1.511 . S
C347 H361 0.961 1_554 S
C347 H362 0.961 . S
C347 H363 0.961 . S
C348 C349 1.370 . S
C348 C350 1.363 . S
C348 H364 0.931 . S
C349 C348 1.370 . S
C349 C353 1.408 . S
C350 C348 1.363 . S
C350 C351 1.370 . S
C350 C354 1.524 . S
C351 C343 1.503 . S
C351 C350 1.370 . S
C351 C352 1.403 . S
C352 C351 1.403 . S
C352 C353 1.404 . S
C352 C355 1.539 . S
C353 C349 1.408 . S
C353 C352 1.404 . S
C353 H365 0.930 . S
C354 C350 1.524 . S
C354 H366 0.956 . S
C354 H367 0.961 . S
C354 H368 0.961 . S
C355 C352 1.539 . S
C355 H369 0.958 . S
C355 H370 0.961 . S
C355 H371 0.960 . S
H356 C340 0.931 . S
H357 C345 0.929 1_556 S
H358 C346 0.960 . S
H359 C346 0.962 . S
H360 C346 0.960 . S
H361 C347 0.961 1_556 S
H362 C347 0.961 . S
H363 C347 0.961 . S
H364 C348 0.931 . S
H365 C353 0.930 . S
H366 C354 0.956 . S
H367 C354 0.961 . S
H368 C354 0.961 . S
H369 C355 0.958 . S
H370 C355 0.961 . S
H371 C355 0.960 . S
C372 C373 1.391 . S
C372 C374 1.394 . S
C372 H388 0.931 . S
C373 C372 1.391 . S
C373 C377 1.376 . S
C374 C372 1.394 . S
C374 C375 1.369 . S
C374 C378 1.531 . S
C375 C374 1.369 . S
C375 C376 1.410 . S
C375 C383 1.503 1_455 S
C376 C375 1.410 . S
C376 C377 1.392 . S
C376 C379 1.511 . S
C377 C373 1.376 . S
C377 C376 1.392 . S
C377 H389 0.929 . S
C378 C374 1.531 . S
C378 H390 0.960 . S
C378 H391 0.962 . S
C378 H392 0.960 . S
C379 C376 1.511 . S
C379 H393 0.961 . S
C379 H394 0.961 1_455 S
C379 H395 0.961 . S
C380 C381 1.370 . S
C380 C382 1.363 . S
C380 H396 0.931 . S
C381 C380 1.370 . S
C381 C385 1.408 . S
C382 C380 1.363 . S
C382 C383 1.370 . S
C382 C386 1.524 . S
C383 C375 1.503 1_655 S
C383 C382 1.370 . S
C383 C384 1.403 . S
C384 C383 1.403 . S
C384 C385 1.404 . S
C384 C387 1.539 1_655 S
C385 C381 1.408 . S
C385 C384 1.404 . S
C385 H397 0.930 . S
C386 C382 1.524 . S
C386 H398 0.956 . S
C386 H399 0.961 . S
C386 H400 0.961 . S
C387 C384 1.539 1_455 S
C387 H401 0.958 . S
C387 H402 0.961 1_455 S
C387 H403 0.960 . S
H388 C372 0.931 . S
H389 C377 0.929 . S
H390 C378 0.960 . S
H391 C378 0.962 . S
H392 C378 0.960 . S
H393 C379 0.961 . S
H394 C379 0.961 1_655 S
H395 C379 0.961 . S
H396 C380 0.931 . S
H397 C385 0.930 . S
H398 C386 0.956 . S
H399 C386 0.961 . S
H400 C386 0.961 . S
H401 C387 0.958 . S
H402 C387 0.961 1_655 S
H403 C387 0.960 . S
C404 C405 1.391 . S
C404 C406 1.394 . S
C404 H420 0.931 . S
C405 C404 1.391 . S
C405 C409 1.376 . S
C406 C404 1.394 . S
C406 C407 1.369 . S
C406 C410 1.531 . S
C407 C406 1.369 . S
C407 C408 1.410 . S
C407 C415 1.503 . S
C408 C407 1.410 . S
C408 C409 1.392 . S
C408 C411 1.511 . S
C409 C405 1.376 . S
C409 C408 1.392 . S
C409 H421 0.929 . S
C410 C406 1.531 . S
C410 H422 0.960 . S
C410 H423 0.962 . S
C410 H424 0.960 . S
C411 C408 1.511 . S
C411 H425 0.961 . S
C411 H426 0.961 . S
C411 H427 0.961 . S
C412 C413 1.370 . S
C412 C414 1.363 . S
C412 H428 0.931 . S
C413 C412 1.370 . S
C413 C417 1.408 . S
C414 C412 1.363 . S
C414 C415 1.370 . S
C414 C418 1.524 . S
C415 C407 1.503 . S
C415 C414 1.370 . S
C415 C416 1.403 . S
C416 C415 1.403 . S
C416 C417 1.404 . S
C416 C419 1.539 . S
C417 C413 1.408 . S
C417 C416 1.404 . S
C417 H429 0.930 . S
C418 C414 1.524 . S
C418 H430 0.956 . S
C418 H431 0.961 . S
C418 H432 0.961 . S
C419 C416 1.539 . S
C419 H433 0.958 . S
C419 H434 0.961 . S
C419 H435 0.960 . S
H420 C404 0.931 . S
H421 C409 0.929 . S
H422 C410 0.960 . S
H423 C410 0.962 . S
H424 C410 0.960 . S
H425 C411 0.961 . S
H426 C411 0.961 . S
H427 C411 0.961 . S
H428 C412 0.931 . S
H429 C417 0.930 . S
H430 C418 0.956 . S
H431 C418 0.961 . S
H432 C418 0.961 . S
H433 C419 0.958 . S
H434 C419 0.961 . S
H435 C419 0.960 . S
C436 C437 1.391 . S
C436 C438 1.394 . S
C436 H452 0.931 . S
C437 C436 1.391 . S
C437 C441 1.376 . S
C438 C436 1.394 . S
C438 C439 1.369 . S
C438 C442 1.531 . S
C439 C438 1.369 . S
C439 C440 1.410 . S
C439 C447 1.503 . S
C440 C439 1.410 . S
C440 C441 1.392 . S
C440 C443 1.511 . S
C441 C437 1.376 . S
C441 C440 1.392 . S
C441 H453 0.929 . S
C442 C438 1.531 . S
C442 H454 0.960 . S
C442 H455 0.962 . S
C442 H456 0.960 . S
C443 C440 1.511 . S
C443 H457 0.961 . S
C443 H458 0.961 . S
C443 H459 0.961 . S
C444 C445 1.370 . S
C444 C446 1.363 1_565 S
C444 H460 0.931 . S
C445 C444 1.370 . S
C445 C449 1.408 . S
C446 C444 1.363 1_545 S
C446 C447 1.370 . S
C446 C450 1.524 . S
C447 C439 1.503 . S
C447 C446 1.370 . S
C447 C448 1.403 . S
C448 C447 1.403 . S
C448 C449 1.404 1_545 S
C448 C451 1.539 . S
C449 C445 1.408 . S
C449 C448 1.404 1_565 S
C449 H461 0.930 . S
C450 C446 1.524 . S
C450 H462 0.956 . S
C450 H463 0.961 . S
C450 H464 0.961 1_545 S
C451 C448 1.539 . S
C451 H465 0.958 . S
C451 H466 0.961 . S
C451 H467 0.960 . S
H452 C436 0.931 . S
H453 C441 0.929 . S
H454 C442 0.960 . S
H455 C442 0.962 . S
H456 C442 0.960 . S
H457 C443 0.961 . S
H458 C443 0.961 . S
H459 C443 0.961 . S
H460 C444 0.931 . S
H461 C449 0.930 . S
H462 C450 0.956 . S
H463 C450 0.961 . S
H464 C450 0.961 1_565 S
H465 C451 0.958 . S
H466 C451 0.961 . S
H467 C451 0.960 . S
C468 C469 1.391 1_556 S
C468 C470 1.394 . S
C468 H484 0.931 . S
C469 C468 1.391 1_554 S
C469 C473 1.376 . S
C470 C468 1.394 . S
C470 C471 1.369 1_556 S
C470 C474 1.531 . S
C471 C470 1.369 1_554 S
C471 C472 1.410 . S
C471 C479 1.503 . S
C472 C471 1.410 . S
C472 C473 1.392 . S
C472 C475 1.511 . S
C473 C469 1.376 . S
C473 C472 1.392 . S
C473 H485 0.929 . S
C474 C470 1.531 . S
C474 H486 0.960 . S
C474 H487 0.962 . S
C474 H488 0.960 . S
C475 C472 1.511 . S
C475 H489 0.961 . S
C475 H490 0.961 . S
C475 H491 0.961 . S
C476 C477 1.370 . S
C476 C478 1.363 . S
C476 H492 0.931 . S
C477 C476 1.370 . S
C477 C481 1.408 1_554 S
C478 C476 1.363 . S
C478 C479 1.370 . S
C478 C482 1.524 . S
C479 C471 1.503 . S
C479 C478 1.370 . S
C479 C480 1.403 1_554 S
C480 C479 1.403 1_556 S
C480 C481 1.404 . S
C480 C483 1.539 . S
C481 C477 1.408 1_556 S
C481 C480 1.404 . S
C481 H493 0.930 . S
C482 C478 1.524 . S
C482 H494 0.956 . S
C482 H495 0.961 . S
C482 H496 0.961 . S
C483 C480 1.539 . S
C483 H497 0.958 . S
C483 H498 0.961 . S
C483 H499 0.960 . S
H484 C468 0.931 . S
H485 C473 0.929 . S
H486 C474 0.960 . S
H487 C474 0.962 . S
H488 C474 0.960 . S
H489 C475 0.961 . S
H490 C475 0.961 . S
H491 C475 0.961 . S
H492 C476 0.931 . S
H493 C481 0.930 . S
H494 C482 0.956 . S
H495 C482 0.961 . S
H496 C482 0.961 . S
H497 C483 0.958 . S
H498 C483 0.961 . S
H499 C483 0.960 . S
C500 C501 1.391 . S
C500 C502 1.394 . S
C500 H516 0.931 . S
C501 C500 1.391 . S
C501 C505 1.376 1_554 S
C502 C500 1.394 . S
C502 C503 1.369 . S
C502 C506 1.531 . S
C503 C502 1.369 . S
C503 C504 1.410 1_554 S
C503 C511 1.503 1_565 S
C504 C503 1.410 1_556 S
C504 C505 1.392 . S
C504 C507 1.511 . S
C505 C501 1.376 1_556 S
C505 C504 1.392 . S
C505 H517 0.929 . S
C506 C502 1.531 . S
C506 H518 0.985 . S
C506 H519 0.962 . S
C506 H520 0.960 . S
C507 C504 1.511 . S
C507 H521 0.961 . S
C507 H522 0.961 1_565 S
C507 H523 0.961 . S
C508 C509 1.370 1_556 S
C508 C510 1.363 . S
C508 H524 0.931 . S
C509 C508 1.370 1_554 S
C509 C513 1.408 . S
C510 C508 1.363 . S
C510 C511 1.370 1_556 S
C510 C514 1.524 . S
C511 C503 1.503 1_545 S
C511 C510 1.370 1_554 S
C511 C512 1.403 . S
C512 C511 1.403 . S
C512 C513 1.404 . S
C512 C515 1.539 . S
C513 C509 1.408 . S
C513 C512 1.404 . S
C513 H525 0.930 . S
C514 C510 1.524 . S
C514 H526 0.956 . S
C514 H527 0.966 . S
C514 H528 0.961 . S
C515 C512 1.539 . S
C515 H529 0.958 . S
C515 H530 0.961 . S
C515 H531 0.960 1_545 S
H516 C500 0.931 . S
H517 C505 0.929 . S
H518 C506 0.985 . S
H519 C506 0.962 . S
H520 C506 0.960 . S
H521 C507 0.961 . S
H522 C507 0.961 1_545 S
H523 C507 0.961 . S
H524 C508 0.931 . S
H525 C513 0.930 . S
H526 C514 0.956 . S
H527 C514 0.966 . S
H528 C514 0.961 . S
H529 C515 0.958 . S
H530 C515 0.961 . S
H531 C515 0.960 1_565 S
C532 C533 1.391 . S
C532 C534 1.394 1_655 S
C532 H548 0.931 . S
C533 C532 1.391 . S
C533 C537 1.376 . S
C534 C532 1.394 1_455 S
C534 C535 1.369 . S
C534 C538 1.531 . S
C535 C534 1.369 . S
C535 C536 1.410 . S
C535 C543 1.503 . S
C536 C535 1.410 . S
C536 C537 1.392 1_455 S
C536 C539 1.511 . S
C537 C533 1.376 . S
C537 C536 1.392 1_655 S
C537 H549 0.929 . S
C538 C534 1.531 . S
C538 H550 0.960 . S
C538 H551 0.962 1_554 S
C538 H552 0.960 . S
C539 C536 1.511 . S
C539 H553 0.961 . S
C539 H554 0.961 . S
C539 H555 0.961 . S
C540 C541 1.370 1_556 S
C540 C542 1.363 . S
C540 H556 0.931 . S
C541 C540 1.370 1_554 S
C541 C545 1.408 . S
C542 C540 1.363 . S
C542 C543 1.370 1_556 S
C542 C546 1.524 . S
C543 C535 1.503 . S
C543 C542 1.370 1_554 S
C543 C544 1.403 . S
C544 C543 1.403 . S
C544 C545 1.404 . S
C544 C547 1.539 . S
C545 C541 1.408 . S
C545 C544 1.404 . S
C545 H557 0.930 . S
C546 C542 1.524 . S
C546 H558 0.956 . S
C546 H559 0.961 . S
C546 H560 0.961 . S
C547 C544 1.539 . S
C547 H561 0.958 . S
C547 H562 0.961 . S
C547 H563 0.960 . S
H548 C532 0.931 . S
H549 C537 0.929 . S
H550 C538 0.960 . S
H551 C538 0.962 1_556 S
H552 C538 0.960 . S
H553 C539 0.961 . S
H554 C539 0.961 . S
H555 C539 0.961 . S
H556 C540 0.931 . S
H557 C545 0.930 . S
H558 C546 0.956 . S
H559 C546 0.961 . S
H560 C546 0.961 . S
H561 C547 0.958 . S
H562 C547 0.961 . S
H563 C547 0.960 . S
C564 C565 1.391 . S
C564 C566 1.394 . S
C564 H580 0.931 . S
C565 C564 1.391 . S
C565 C569 1.376 . S
C566 C564 1.394 . S
C566 C567 1.369 . S
C566 C570 1.531 . S
C567 C566 1.369 . S
C567 C568 1.410 . S
C567 C575 1.503 . S
C568 C567 1.410 . S
C568 C569 1.392 . S
C568 C571 1.511 . S
C569 C565 1.376 . S
C569 C568 1.392 . S
C569 H581 0.929 . S
C570 C566 1.531 . S
C570 H582 0.960 . S
C570 H583 0.962 . S
C570 H584 0.960 . S
C571 C568 1.511 . S
C571 H585 0.961 . S
C571 H586 0.961 . S
C571 H587 0.961 . S
C572 C573 1.370 . S
C572 C574 1.363 . S
C572 H588 0.931 . S
C573 C572 1.370 . S
C573 C577 1.408 . S
C574 C572 1.363 . S
C574 C575 1.370 . S
C574 C578 1.524 . S
C575 C567 1.503 . S
C575 C574 1.370 . S
C575 C576 1.403 . S
C576 C575 1.403 . S
C576 C577 1.404 . S
C576 C579 1.539 . S
C577 C573 1.408 . S
C577 C576 1.404 . S
C577 H589 0.930 . S
C578 C574 1.524 . S
C578 H590 0.956 . S
C578 H591 0.961 . S
C578 H592 0.961 . S
C579 C576 1.539 . S
C579 H593 0.958 . S
C579 H594 0.961 . S
C579 H595 0.960 . S
H580 C564 0.931 . S
H581 C569 0.929 . S
H582 C570 0.960 . S
H583 C570 0.962 . S
H584 C570 0.960 . S
H585 C571 0.961 . S
H586 C571 0.961 . S
H587 C571 0.961 . S
H588 C572 0.931 . S
H589 C577 0.930 . S
H590 C578 0.956 . S
H591 C578 0.961 . S
H592 C578 0.961 . S
H593 C579 0.958 . S
H594 C579 0.961 . S
H595 C579 0.960 . S
C596 C597 1.391 . S
C596 C598 1.394 . S
C596 H612 0.931 . S
C597 C596 1.391 . S
C597 C601 1.376 . S
C598 C596 1.394 . S
C598 C599 1.369 . S
C598 C602 1.531 . S
C599 C598 1.369 . S
C599 C600 1.410 . S
C599 C607 1.503 . S
C600 C599 1.410 . S
C600 C601 1.392 . S
C600 C603 1.511 . S
C601 C597 1.376 . S
C601 C600 1.392 . S
C601 H613 0.929 . S
C602 C598 1.531 . S
C602 H614 0.960 . S
C602 H615 0.962 . S
C602 H616 0.960 . S
C603 C600 1.511 . S
C603 H617 0.961 . S
C603 H618 0.961 . S
C603 H619 0.961 . S
C604 C605 1.370 . S
C604 C606 1.363 . S
C604 H620 0.931 . S
C605 C604 1.370 . S
C605 C609 1.408 . S
C606 C604 1.363 . S
C606 C607 1.370 . S
C606 C610 1.524 . S
C607 C599 1.503 . S
C607 C606 1.370 . S
C607 C608 1.403 . S
C608 C607 1.403 . S
C608 C609 1.404 . S
C608 C611 1.539 . S
C609 C605 1.408 . S
C609 C608 1.404 . S
C609 H621 0.930 . S
C610 C606 1.524 . S
C610 H622 0.956 . S
C610 H623 0.961 . S
C610 H624 0.961 . S
C611 C608 1.539 . S
C611 H625 0.958 . S
C611 H626 0.961 . S
C611 H627 0.960 . S
H612 C596 0.931 . S
H613 C601 0.929 . S
H614 C602 0.960 . S
H615 C602 0.962 . S
H616 C602 0.960 . S
H617 C603 0.961 . S
H618 C603 0.961 . S
H619 C603 0.961 . S
H620 C604 0.931 . S
H621 C609 0.930 . S
H622 C610 0.956 . S
H623 C610 0.961 . S
H624 C610 0.961 . S
H625 C611 0.958 . S
H626 C611 0.961 . S
H627 C611 0.960 . S
C628 C629 1.391 . S
C628 C630 1.394 . S
C628 H644 0.931 . S
C629 C628 1.391 . S
C629 C633 1.376 . S
C630 C628 1.394 . S
C630 C631 1.369 . S
C630 C634 1.531 . S
C631 C630 1.369 . S
C631 C632 1.410 . S
C631 C639 1.503 . S
C632 C631 1.410 . S
C632 C633 1.392 . S
C632 C635 1.511 . S
C633 C629 1.376 . S
C633 C632 1.392 . S
C633 H645 0.929 . S
C634 C630 1.531 . S
C634 H646 0.960 . S
C634 H647 0.962 . S
C634 H648 0.960 . S
C635 C632 1.511 . S
C635 H649 0.961 . S
C635 H650 0.961 . S
C635 H651 0.961 . S
C636 C637 1.370 . S
C636 C638 1.363 . S
C636 H652 0.931 . S
C637 C636 1.370 . S
C637 C641 1.408 . S
C638 C636 1.363 . S
C638 C639 1.370 . S
C638 C642 1.524 . S
C639 C631 1.503 . S
C639 C638 1.370 . S
C639 C640 1.403 . S
C640 C639 1.403 . S
C640 C641 1.404 . S
C640 C643 1.539 . S
C641 C637 1.408 . S
C641 C640 1.404 . S
C641 H653 0.930 . S
C642 C638 1.524 . S
C642 H654 0.956 . S
C642 H655 0.961 . S
C642 H656 0.961 . S
C643 C640 1.539 . S
C643 H657 0.958 . S
C643 H658 0.961 . S
C643 H659 0.960 . S
H644 C628 0.931 . S
H645 C633 0.929 . S
H646 C634 0.960 . S
H647 C634 0.962 . S
H648 C634 0.960 . S
H649 C635 0.961 . S
H650 C635 0.961 . S
H651 C635 0.961 . S
H652 C636 0.931 . S
H653 C641 0.930 . S
H654 C642 0.956 . S
H655 C642 0.961 . S
H656 C642 0.961 . S
H657 C643 0.958 . S
H658 C643 0.961 . S
H659 C643 0.960 . S
C660 C661 1.391 . S
C660 C662 1.394 . S
C660 H676 0.931 . S
C661 C660 1.391 . S
C661 C665 1.376 . S
C662 C660 1.394 . S
C662 C663 1.369 . S
C662 C666 1.531 . S
C663 C662 1.369 . S
C663 C664 1.410 . S
C663 C671 1.503 . S
C664 C663 1.410 . S
C664 C665 1.392 . S
C664 C667 1.511 . S
C665 C661 1.376 . S
C665 C664 1.392 . S
C665 H677 0.929 . S
C666 C662 1.531 . S
C666 H678 0.960 . S
C666 H679 0.962 . S
C666 H680 0.960 . S
C667 C664 1.511 . S
C667 H681 0.961 . S
C667 H682 0.961 . S
C667 H683 0.961 . S
C668 C669 1.370 . S
C668 C670 1.363 . S
C668 H684 0.931 . S
C669 C668 1.370 . S
C669 C673 1.408 . S
C670 C668 1.363 . S
C670 C671 1.370 . S
C670 C674 1.524 . S
C671 C663 1.503 . S
C671 C670 1.370 . S
C671 C672 1.403 . S
C672 C671 1.403 . S
C672 C673 1.404 . S
C672 C675 1.539 . S
C673 C669 1.408 . S
C673 C672 1.404 . S
C673 H685 0.930 . S
C674 C670 1.524 . S
C674 H686 0.956 . S
C674 H687 0.961 . S
C674 H688 0.961 . S
C675 C672 1.539 . S
C675 H689 0.958 . S
C675 H690 0.961 . S
C675 H691 0.960 . S
H676 C660 0.931 . S
H677 C665 0.929 . S
H678 C666 0.960 . S
H679 C666 0.962 . S
H680 C666 0.960 . S
H681 C667 0.961 . S
H682 C667 0.961 . S
H683 C667 0.961 . S
H684 C668 0.931 . S
H685 C673 0.930 . S
H686 C674 0.956 . S
H687 C674 0.961 . S
H688 C674 0.961 . S
H689 C675 0.958 . S
H690 C675 0.961 . S
H691 C675 0.960 . S
C692 C693 1.391 . S
C692 C694 1.394 . S
C692 H708 0.931 . S
C693 C692 1.391 . S
C693 C697 1.376 . S
C694 C692 1.394 . S
C694 C695 1.369 . S
C694 C698 1.531 . S
C695 C694 1.369 . S
C695 C696 1.410 . S
C695 C703 1.503 . S
C696 C695 1.410 . S
C696 C697 1.392 . S
C696 C699 1.511 . S
C697 C693 1.376 . S
C697 C696 1.392 . S
C697 H709 0.929 . S
C698 C694 1.531 . S
C698 H710 0.960 . S
C698 H711 0.962 . S
C698 H712 0.960 . S
C699 C696 1.511 . S
C699 H713 0.961 . S
C699 H714 0.961 . S
C699 H715 0.961 . S
C700 C701 1.370 . S
C700 C702 1.363 . S
C700 H716 0.931 . S
C701 C700 1.370 . S
C701 C705 1.408 . S
C702 C700 1.363 . S
C702 C703 1.370 . S
C702 C706 1.524 . S
C703 C695 1.503 . S
C703 C702 1.370 . S
C703 C704 1.403 . S
C704 C703 1.403 . S
C704 C705 1.404 . S
C704 C707 1.539 . S
C705 C701 1.408 . S
C705 C704 1.404 . S
C705 H717 0.930 . S
C706 C702 1.524 . S
C706 H718 0.956 . S
C706 H719 0.961 . S
C706 H720 0.961 . S
C707 C704 1.539 . S
C707 H721 0.958 . S
C707 H722 0.961 . S
C707 H723 0.960 . S
H708 C692 0.931 . S
H709 C697 0.929 . S
H710 C698 0.960 . S
H711 C698 0.962 . S
H712 C698 0.960 . S
H713 C699 0.961 . S
H714 C699 0.961 . S
H715 C699 0.961 . S
H716 C700 0.931 . S
H717 C705 0.930 . S
H718 C706 0.956 . S
H719 C706 0.961 . S
H720 C706 0.961 . S
H721 C707 0.958 . S
H722 C707 0.961 . S
H723 C707 0.960 . S
C724 C725 1.391 . S
C724 C726 1.394 . S
C724 H740 0.931 . S
C725 C724 1.391 . S
C725 C729 1.376 . S
C726 C724 1.394 . S
C726 C727 1.369 . S
C726 C730 1.531 . S
C727 C726 1.369 . S
C727 C728 1.410 . S
C727 C735 1.503 . S
C728 C727 1.410 . S
C728 C729 1.392 . S
C728 C731 1.511 . S
C729 C725 1.376 . S
C729 C728 1.392 . S
C729 H741 0.929 . S
C730 C726 1.531 . S
C730 H742 0.960 . S
C730 H743 0.962 . S
C730 H744 0.960 . S
C731 C728 1.511 . S
C731 H745 0.961 . S
C731 H746 0.961 . S
C731 H747 0.961 . S
C732 C733 1.370 . S
C732 C734 1.363 . S
C732 H748 0.931 . S
C733 C732 1.370 . S
C733 C737 1.408 . S
C734 C732 1.363 . S
C734 C735 1.370 . S
C734 C738 1.524 . S
C735 C727 1.503 . S
C735 C734 1.370 . S
C735 C736 1.403 . S
C736 C735 1.403 . S
C736 C737 1.404 . S
C736 C739 1.539 . S
C737 C733 1.408 . S
C737 C736 1.404 . S
C737 H749 0.930 . S
C738 C734 1.524 . S
C738 H750 0.956 . S
C738 H751 0.961 . S
C738 H752 0.961 . S
C739 C736 1.539 . S
C739 H753 0.958 . S
C739 H754 0.961 . S
C739 H755 0.960 . S
H740 C724 0.931 . S
H741 C729 0.929 . S
H742 C730 0.960 . S
H743 C730 0.962 . S
H744 C730 0.960 . S
H745 C731 0.961 . S
H746 C731 0.961 . S
H747 C731 0.961 . S
H748 C732 0.931 . S
H749 C737 0.930 . S
H750 C738 0.956 . S
H751 C738 0.961 . S
H752 C738 0.961 . S
H753 C739 0.958 . S
H754 C739 0.961 . S
H755 C739 0.960 . S
C756 C757 1.391 . S
C756 C758 1.394 . S
C756 H772 0.931 . S
C757 C756 1.391 . S
C757 C761 1.376 1_455 S
C758 C756 1.394 . S
C758 C759 1.369 . S
C758 C762 1.531 . S
C759 C758 1.369 . S
C759 C760 1.410 1_455 S
C759 C767 1.503 . S
C760 C759 1.410 1_655 S
C760 C761 1.392 . S
C760 C763 1.511 . S
C761 C757 1.376 1_655 S
C761 C760 1.392 . S
C761 H773 0.929 . S
C762 C758 1.531 . S
C762 H774 0.960 . S
C762 H775 0.962 . S
C762 H776 0.960 . S
C763 C760 1.511 . S
C763 H777 0.961 . S
C763 H778 0.961 . S
C763 H779 0.961 . S
C764 C765 1.370 . S
C764 C766 1.363 . S
C764 H780 0.931 . S
C765 C764 1.370 . S
C765 C769 1.408 1_455 S
C766 C764 1.363 . S
C766 C767 1.370 . S
C766 C770 1.524 . S
C767 C759 1.503 . S
C767 C766 1.370 . S
C767 C768 1.403 1_455 S
C768 C767 1.403 1_655 S
C768 C769 1.404 . S
C768 C771 1.539 . S
C769 C765 1.408 1_655 S
C769 C768 1.404 . S
C769 H781 0.930 . S
C770 C766 1.524 . S
C770 H782 0.956 . S
C770 H783 0.961 . S
C770 H784 0.961 . S
C771 C768 1.539 . S
C771 H785 0.958 . S
C771 H786 0.961 . S
C771 H787 0.960 . S
H772 C756 0.931 . S
H773 C761 0.929 . S
H774 C762 0.960 . S
H775 C762 0.962 . S
H776 C762 0.960 . S
H777 C763 0.961 . S
H778 C763 0.961 . S
H779 C763 0.961 . S
H780 C764 0.931 . S
H781 C769 0.930 . S
H782 C770 0.956 . S
H783 C770 0.961 . S
H784 C770 0.961 . S
H785 C771 0.958 . S
H786 C771 0.961 . S
H787 C771 0.960 . S
C788 C789 1.391 . S
C788 C790 1.394 . S
C788 H804 0.931 . S
C789 C788 1.391 . S
C789 C793 1.376 . S
C790 C788 1.394 . S
C790 C791 1.369 . S
C790 C794 1.531 . S
C791 C790 1.369 . S
C791 C792 1.410 . S
C791 C799 1.503 . S
C792 C791 1.410 . S
C792 C793 1.392 . S
C792 C795 1.511 . S
C793 C789 1.376 . S
C793 C792 1.392 . S
C793 H805 0.929 . S
C794 C790 1.531 . S
C794 H806 0.960 . S
C794 H807 0.962 . S
C794 H808 0.960 . S
C795 C792 1.511 . S
C795 H809 0.961 . S
C795 H810 0.961 . S
C795 H811 0.961 . S
C796 C797 1.370 . S
C796 C798 1.363 . S
C796 H812 0.931 . S
C797 C796 1.370 . S
C797 C801 1.408 . S
C798 C796 1.363 . S
C798 C799 1.370 . S
C798 C802 1.524 . S
C799 C791 1.503 . S
C799 C798 1.370 . S
C799 C800 1.403 . S
C800 C799 1.403 . S
C800 C801 1.404 . S
C800 C803 1.539 . S
C801 C797 1.408 . S
C801 C800 1.404 . S
C801 H813 0.930 . S
C802 C798 1.524 . S
C802 H814 0.956 . S
C802 H815 0.961 . S
C802 H816 0.961 . S
C803 C800 1.539 . S
C803 H817 0.958 . S
C803 H818 0.961 . S
C803 H819 0.960 . S
H804 C788 0.931 . S
H805 C793 0.929 . S
H806 C794 0.960 . S
H807 C794 0.962 . S
H808 C794 0.960 . S
H809 C795 0.961 . S
H810 C795 0.961 . S
H811 C795 0.961 . S
H812 C796 0.931 . S
H813 C801 0.930 . S
H814 C802 0.956 . S
H815 C802 0.961 . S
H816 C802 0.961 . S
H817 C803 0.958 . S
H818 C803 0.961 . S
H819 C803 0.960 . S
C820 C821 1.391 . S
C820 C822 1.394 . S
C820 H836 0.931 . S
C821 C820 1.391 . S
C821 C825 1.376 . S
C822 C820 1.394 . S
C822 C823 1.369 . S
C822 C826 1.531 1_545 S
C823 C822 1.369 . S
C823 C824 1.410 . S
C823 C831 1.503 . S
C824 C823 1.410 . S
C824 C825 1.392 . S
C824 C827 1.511 . S
C825 C821 1.376 . S
C825 C824 1.392 . S
C825 H837 0.929 . S
C826 C822 1.531 1_565 S
C826 H838 0.960 . S
C826 H839 0.962 1_565 S
C826 H840 0.960 . S
C827 C824 1.511 . S
C827 H841 0.961 . S
C827 H842 0.961 . S
C827 H843 0.961 . S
C828 C829 1.370 . S
C828 C830 1.363 . S
C828 H844 0.931 . S
C829 C828 1.370 . S
C829 C833 1.408 1_545 S
C830 C828 1.363 . S
C830 C831 1.370 . S
C830 C834 1.524 . S
C831 C823 1.503 . S
C831 C830 1.370 . S
C831 C832 1.403 1_545 S
C832 C831 1.403 1_565 S
C832 C833 1.404 . S
C832 C835 1.539 . S
C833 C829 1.408 1_565 S
C833 C832 1.404 . S
C833 H845 0.930 . S
C834 C830 1.524 . S
C834 H846 0.956 . S
C834 H847 0.961 . S
C834 H848 0.961 . S
C835 C832 1.539 . S
C835 H849 0.958 . S
C835 H850 0.961 . S
C835 H851 0.960 . S
H836 C820 0.931 . S
H837 C825 0.929 . S
H838 C826 0.960 . S
H839 C826 0.962 1_545 S
H840 C826 0.960 . S
H841 C827 0.961 . S
H842 C827 0.961 . S
H843 C827 0.961 . S
H844 C828 0.931 . S
H845 C833 0.930 . S
H846 C834 0.956 . S
H847 C834 0.961 . S
H848 C834 0.961 . S
H849 C835 0.958 . S
H850 C835 0.961 . S
H851 C835 0.960 . S
C852 C853 1.391 . S
C852 C854 1.394 . S
C852 H868 0.931 . S
C853 C852 1.391 . S
C853 C857 1.376 . S
C854 C852 1.394 . S
C854 C855 1.369 . S
C854 C858 1.531 . S
C855 C854 1.369 . S
C855 C856 1.410 . S
C855 C863 1.503 . S
C856 C855 1.410 . S
C856 C857 1.392 . S
C856 C859 1.511 . S
C857 C853 1.376 . S
C857 C856 1.392 . S
C857 H869 0.929 . S
C858 C854 1.531 . S
C858 H870 0.960 . S
C858 H871 0.962 . S
C858 H872 0.960 . S
C859 C856 1.511 . S
C859 H873 0.961 . S
C859 H874 0.961 . S
C859 H875 0.961 . S
C860 C861 1.370 . S
C860 C862 1.363 1_554 S
C860 H876 0.931 . S
C861 C860 1.370 . S
C861 C865 1.408 . S
C862 C860 1.363 1_556 S
C862 C863 1.370 . S
C862 C866 1.524 . S
C863 C855 1.503 . S
C863 C862 1.370 . S
C863 C864 1.403 . S
C864 C863 1.403 . S
C864 C865 1.404 1_556 S
C864 C867 1.539 . S
C865 C861 1.408 . S
C865 C864 1.404 1_554 S
C865 H877 0.930 . S
C866 C862 1.524 . S
C866 H878 0.956 . S
C866 H879 0.961 . S
C866 H880 0.961 . S
C867 C864 1.539 . S
C867 H881 0.958 . S
C867 H882 0.961 . S
C867 H883 0.960 . S
H868 C852 0.931 . S
H869 C857 0.929 . S
H870 C858 0.960 . S
H871 C858 0.962 . S
H872 C858 0.960 . S
H873 C859 0.961 . S
H874 C859 0.961 . S
H875 C859 0.961 . S
H876 C860 0.931 . S
H877 C865 0.930 . S
H878 C866 0.956 . S
H879 C866 0.961 . S
H880 C866 0.961 . S
H881 C867 0.958 . S
H882 C867 0.961 . S
H883 C867 0.960 . S
C884 C885 1.391 . S
C884 C886 1.394 . S
C884 H900 0.931 . S
C885 C884 1.391 . S
C885 C889 1.376 . S
C886 C884 1.394 . S
C886 C887 1.369 . S
C886 C890 1.531 . S
C887 C886 1.369 . S
C887 C888 1.410 . S
C887 C895 1.503 . S
C888 C887 1.410 . S
C888 C889 1.392 . S
C888 C891 1.511 . S
C889 C885 1.376 . S
C889 C888 1.392 . S
C889 H901 0.929 . S
C890 C886 1.531 . S
C890 H902 0.960 . S
C890 H903 0.962 . S
C890 H904 0.960 . S
C891 C888 1.511 . S
C891 H905 0.961 . S
C891 H906 0.961 . S
C891 H907 0.961 . S
C892 C893 1.370 . S
C892 C894 1.363 1_554 S
C892 H908 0.931 . S
C893 C892 1.370 . S
C893 C897 1.408 . S
C894 C892 1.363 1_556 S
C894 C895 1.370 . S
C894 C898 1.524 . S
C895 C887 1.503 . S
C895 C894 1.370 . S
C895 C896 1.403 . S
C896 C895 1.403 . S
C896 C897 1.404 1_556 S
C896 C899 1.539 . S
C897 C893 1.408 . S
C897 C896 1.404 1_554 S
C897 H909 0.930 . S
C898 C894 1.524 . S
C898 H910 0.956 . S
C898 H911 0.961 . S
C898 H912 0.961 . S
C899 C896 1.539 . S
C899 H913 0.958 . S
C899 H914 0.961 . S
C899 H915 0.960 . S
H900 C884 0.931 . S
H901 C889 0.929 . S
H902 C890 0.960 . S
H903 C890 0.962 . S
H904 C890 0.960 . S
H905 C891 0.961 . S
H906 C891 0.961 . S
H907 C891 0.961 . S
H908 C892 0.931 . S
H909 C897 0.930 . S
H910 C898 0.956 . S
H911 C898 0.961 . S
H912 C898 0.961 . S
H913 C899 0.958 . S
H914 C899 0.961 . S
H915 C899 0.960 . S
C916 C917 1.391 . S
C916 C918 1.394 . S
C916 H932 0.931 . S
C917 C916 1.391 . S
C917 C921 1.376 . S
C918 C916 1.394 . S
C918 C919 1.369 . S
C918 C922 1.531 . S
C919 C918 1.369 . S
C919 C920 1.410 . S
C919 C927 1.503 . S
C920 C919 1.410 . S
C920 C921 1.392 . S
C920 C923 1.511 . S
C921 C917 1.376 . S
C921 C920 1.392 . S
C921 H933 0.929 . S
C922 C918 1.531 . S
C922 H934 0.960 . S
C922 H935 0.962 . S
C922 H936 0.960 . S
C923 C920 1.511 . S
C923 H937 0.961 . S
C923 H938 0.961 . S
C923 H939 0.961 . S
C924 C925 1.370 . S
C924 C926 1.363 1_554 S
C924 H940 0.931 . S
C925 C924 1.370 . S
C925 C929 1.408 . S
C926 C924 1.363 1_556 S
C926 C927 1.370 . S
C926 C930 1.524 . S
C927 C919 1.503 . S
C927 C926 1.370 . S
C927 C928 1.403 . S
C928 C927 1.403 . S
C928 C929 1.404 1_556 S
C928 C931 1.539 . S
C929 C925 1.408 . S
C929 C928 1.404 1_554 S
C929 H941 0.930 . S
C930 C926 1.524 . S
C930 H942 0.956 . S
C930 H943 0.961 . S
C930 H944 0.961 . S
C931 C928 1.539 . S
C931 H945 0.958 . S
C931 H946 0.961 . S
C931 H947 0.960 . S
H932 C916 0.931 . S
H933 C921 0.929 . S
H934 C922 0.960 . S
H935 C922 0.962 . S
H936 C922 0.960 . S
H937 C923 0.961 . S
H938 C923 0.961 . S
H939 C923 0.961 . S
H940 C924 0.931 . S
H941 C929 0.930 . S
H942 C930 0.956 . S
H943 C930 0.961 . S
H944 C930 0.961 . S
H945 C931 0.958 . S
H946 C931 0.961 . S
H947 C931 0.960 . S
C948 C949 1.391 . S
C948 C950 1.394 . S
C948 H964 0.931 . S
C949 C948 1.391 . S
C949 C953 1.376 . S
C950 C948 1.394 . S
C950 C951 1.369 . S
C950 C954 1.531 . S
C951 C950 1.369 . S
C951 C952 1.410 . S
C951 C959 1.503 . S
C952 C951 1.410 . S
C952 C953 1.392 . S
C952 C955 1.511 . S
C953 C949 1.376 . S
C953 C952 1.392 . S
C953 H965 0.929 . S
C954 C950 1.531 . S
C954 H966 0.960 . S
C954 H967 0.962 . S
C954 H968 0.960 . S
C955 C952 1.511 . S
C955 H969 0.961 . S
C955 H970 0.961 . S
C955 H971 0.961 . S
C956 C957 1.370 . S
C956 C958 1.363 1_556 S
C956 H972 0.931 . S
C957 C956 1.370 . S
C957 C961 1.408 . S
C958 C956 1.363 1_554 S
C958 C959 1.370 . S
C958 C962 1.524 . S
C959 C951 1.503 . S
C959 C958 1.370 . S
C959 C960 1.403 . S
C960 C959 1.403 . S
C960 C961 1.404 1_554 S
C960 C963 1.539 . S
C961 C957 1.408 . S
C961 C960 1.404 1_556 S
C961 H973 0.930 . S
C962 C958 1.524 . S
C962 H974 0.956 . S
C962 H975 0.961 . S
C962 H976 0.961 . S
C963 C960 1.539 . S
C963 H977 0.958 . S
C963 H978 0.961 . S
C963 H979 0.960 . S
H964 C948 0.931 . S
H965 C953 0.929 . S
H966 C954 0.960 . S
H967 C954 0.962 . S
H968 C954 0.960 . S
H969 C955 0.961 . S
H970 C955 0.961 . S
H971 C955 0.961 . S
H972 C956 0.931 . S
H973 C961 0.930 . S
H974 C962 0.956 . S
H975 C962 0.961 . S
H976 C962 0.961 . S
H977 C963 0.958 . S
H978 C963 0.961 . S
H979 C963 0.960 . S
C980 C981 1.391 . S
C980 C982 1.394 1_556 S
C980 H996 0.931 . S
C981 C980 1.391 . S
C981 C985 1.376 . S
C982 C980 1.394 1_554 S
C982 C983 1.369 . S
C982 C986 1.531 . S
C983 C982 1.369 . S
C983 C984 1.410 . S
C983 C991 1.503 . S
C984 C983 1.410 . S
C984 C985 1.392 1_554 S
C984 C987 1.511 . S
C985 C981 1.376 . S
C985 C984 1.392 1_556 S
C985 H997 0.929 . S
C986 C982 1.531 . S
C986 H998 0.960 . S
C986 H999 0.962 . S
C986 H1000 0.960 . S
C987 C984 1.511 . S
C987 H1001 0.961 . S
C987 H1002 0.961 . S
C987 H1003 0.961 . S
C988 C989 1.370 . S
C988 C990 1.363 . S
C988 H1004 0.931 . S
C989 C988 1.370 . S
C989 C993 1.408 . S
C990 C988 1.363 . S
C990 C991 1.370 . S
C990 C994 1.524 . S
C991 C983 1.503 . S
C991 C990 1.370 . S
C991 C992 1.403 . S
C992 C991 1.403 . S
C992 C993 1.404 . S
C992 C995 1.539 . S
C993 C989 1.408 . S
C993 C992 1.404 . S
C993 H1005 0.930 . S
C994 C990 1.524 . S
C994 H1006 0.956 . S
C994 H1007 0.961 . S
C994 H1008 0.961 . S
C995 C992 1.539 . S
C995 H1009 0.958 . S
C995 H1010 0.961 . S
C995 H1011 0.960 . S
H996 C980 0.931 . S
H997 C985 0.929 . S
H998 C986 0.960 . S
H999 C986 0.962 . S
H1000 C986 0.960 . S
H1001 C987 0.961 . S
H1002 C987 0.961 . S
H1003 C987 0.961 . S
H1004 C988 0.931 . S
H1005 C993 0.930 . S
H1006 C994 0.956 . S
H1007 C994 0.961 . S
H1008 C994 0.961 . S
H1009 C995 0.958 . S
H1010 C995 0.961 . S
H1011 C995 0.960 . S
C1012 C1013 1.391 . S
C1012 C1014 1.394 . S
C1012 H1028 0.931 . S
C1013 C1012 1.391 . S
C1013 C1017 1.376 . S
C1014 C1012 1.394 . S
C1014 C1015 1.369 . S
C1014 C1018 1.531 . S
C1015 C1014 1.369 . S
C1015 C1016 1.410 . S
C1015 C1023 1.503 . S
C1016 C1015 1.410 . S
C1016 C1017 1.392 . S
C1016 C1019 1.511 . S
C1017 C1013 1.376 . S
C1017 C1016 1.392 . S
C1017 H1029 0.929 . S
C1018 C1014 1.531 . S
C1018 H1030 0.960 . S
C1018 H1031 0.962 . S
C1018 H1032 0.960 . S
C1019 C1016 1.511 . S
C1019 H1033 0.961 . S
C1019 H1034 0.961 . S
C1019 H1035 0.961 . S
C1020 C1021 1.370 . S
C1020 C1022 1.363 1_556 S
C1020 H1036 0.931 . S
C1021 C1020 1.370 . S
C1021 C1025 1.408 . S
C1022 C1020 1.363 1_554 S
C1022 C1023 1.370 . S
C1022 C1026 1.524 . S
C1023 C1015 1.503 . S
C1023 C1022 1.370 . S
C1023 C1024 1.403 . S
C1024 C1023 1.403 . S
C1024 C1025 1.404 1_554 S
C1024 C1027 1.539 . S
C1025 C1021 1.408 . S
C1025 C1024 1.404 1_556 S
C1025 H1037 0.930 . S
C1026 C1022 1.524 . S
C1026 H1038 0.956 . S
C1026 H1039 0.961 . S
C1026 H1040 0.961 . S
C1027 C1024 1.539 . S
C1027 H1041 0.958 . S
C1027 H1042 0.961 . S
C1027 H1043 0.960 . S
H1028 C1012 0.931 . S
H1029 C1017 0.929 . S
H1030 C1018 0.960 . S
H1031 C1018 0.962 . S
H1032 C1018 0.960 . S
H1033 C1019 0.961 . S
H1034 C1019 0.961 . S
H1035 C1019 0.961 . S
H1036 C1020 0.931 . S
H1037 C1025 0.930 . S
H1038 C1026 0.956 . S
H1039 C1026 0.961 . S
H1040 C1026 0.961 . S
H1041 C1027 0.958 . S
H1042 C1027 0.961 . S
H1043 C1027 0.960 . S
C181 C2 1.782 . S
C189 C158 1.744 . S
C213 C22 1.801 . S
C221 C178 1.723 . S
C245 C42 1.781 . S
C253 C138 1.745 . S
C277 C82 1.762 . S
C285 C58 1.749 . S
C309 C102 1.771 . S
C317 C18 1.735 . S
C341 C38 1.711 . S
C349 C62 1.796 . S
C373 C142 1.775 . S
C381 C118 1.748 . S
C405 C162 1.796 . S
C413 C78 1.723 . S
C437 C98 1.712 . S
C445 C122 1.795 . S
C469 C41 1.529 . S
C477 C19 1.548 1_554 S
C501 C39 1.552 1_554 S
C509 C1 1.535 . S
C533 C21 1.535 . S
C541 C59 1.551 1_554 S
C565 C79 1.544 . S
C573 C101 1.523 . S
C597 C61 1.515 . S
C605 C99 1.548 . S
C629 C81 1.526 . S
C637 C119 1.547 . S
C661 C161 1.515 . S
C669 C139 1.548 . S
C693 C159 1.537 . S
C701 C121 1.518 . S
C725 C179 1.552 . S
C733 C141 1.535 . S
C757 C9 0.969 . S
C765 C8 1.016 . S
C789 C29 1.030 . S
C797 C28 0.990 . S
C821 C49 1.015 . S
C829 C48 1.000 . S
C853 C68 1.024 . S
C861 C69 0.996 . S
C885 C88 0.981 . S
C893 C89 1.010 . S
C917 C108 1.022 . S
C925 C109 0.993 . S
C949 C129 0.974 . S
C957 C128 1.013 . S
C981 C148 0.987 . S
C989 C149 1.012 . S
C1013 C169 1.002 . S
C1021 C168 1.006 . S
