# Generated by pormake.
# Topology uow, (4)-cn, num edge types: 1
# Building blocks:
#     Node 0, Type 0, BuildingBlock: QUQFOY_clean_sbu_1, # of connection points: 4
#     Node 1, Type 0, BuildingBlock: QUQFOY_clean_sbu_1, # of connection points: 4
#     Node 2, Type 0, BuildingBlock: QUQFOY_clean_sbu_1, # of connection points: 4
#     Node 3, Type 0, BuildingBlock: QUQFOY_clean_sbu_1, # of connection points: 4
#     Node 4, Type 0, BuildingBlock: QUQFOY_clean_sbu_1, # of connection points: 4
#     Node 5, Type 0, BuildingBlock: QUQFOY_clean_sbu_1, # of connection points: 4
#     Node 6, Type 0, BuildingBlock: QUQFOY_clean_sbu_1, # of connection points: 4
#     Node 7, Type 0, BuildingBlock: QUQFOY_clean_sbu_1, # of connection points: 4
#     Node 8, Type 0, BuildingBlock: QUQFOY_clean_sbu_1, # of connection points: 4
#     Node 9, Type 0, BuildingBlock: QUQFOY_clean_sbu_1, # of connection points: 4
#     Node 10, Type 0, BuildingBlock: QUQFOY_clean_sbu_1, # of connection points: 4
#     Node 11, Type 0, BuildingBlock: QUQFOY_clean_sbu_1, # of connection points: 4
#     Node 12, Type 0, BuildingBlock: QUQFOY_clean_sbu_1, # of connection points: 4
#     Node 13, Type 0, BuildingBlock: QUQFOY_clean_sbu_1, # of connection points: 4
#     Node 14, Type 0, BuildingBlock: QUQFOY_clean_sbu_1, # of connection points: 4
#     Node 15, Type 0, BuildingBlock: QUQFOY_clean_sbu_1, # of connection points: 4
#     Node 16, Type 0, BuildingBlock: QUQFOY_clean_sbu_1, # of connection points: 4
#     Node 17, Type 0, BuildingBlock: QUQFOY_clean_sbu_1, # of connection points: 4
#     Node 18, Type 0, BuildingBlock: QUQFOY_clean_sbu_1, # of connection points: 4
#     Node 19, Type 0, BuildingBlock: QUQFOY_clean_sbu_1, # of connection points: 4
#     Node 20, Type 0, BuildingBlock: QUQFOY_clean_sbu_1, # of connection points: 4
#     Node 21, Type 0, BuildingBlock: QUQFOY_clean_sbu_1, # of connection points: 4
#     Node 22, Type 0, BuildingBlock: QUQFOY_clean_sbu_1, # of connection points: 4
#     Node 23, Type 0, BuildingBlock: QUQFOY_clean_sbu_1, # of connection points: 4
#     Node 24, Type 0, BuildingBlock: QUQFOY_clean_sbu_1, # of connection points: 4
#     Node 25, Type 0, BuildingBlock: QUQFOY_clean_sbu_1, # of connection points: 4
#     Node 26, Type 0, BuildingBlock: QUQFOY_clean_sbu_1, # of connection points: 4
#     Node 27, Type 0, BuildingBlock: QUQFOY_clean_sbu_1, # of connection points: 4
#     Node 28, Type 0, BuildingBlock: QUQFOY_clean_sbu_1, # of connection points: 4
#     Node 29, Type 0, BuildingBlock: QUQFOY_clean_sbu_1, # of connection points: 4
#     Node 30, Type 0, BuildingBlock: QUQFOY_clean_sbu_1, # of connection points: 4
#     Node 31, Type 0, BuildingBlock: QUQFOY_clean_sbu_1, # of connection points: 4
#     Edge 32, Type (0, 0), BuildingBlock: AJUNOK_clean_linker_0, # of connection points: 2
#     Edge 33, Type (0, 0), BuildingBlock: AJUNOK_clean_linker_0, # of connection points: 2
#     Edge 34, Type (0, 0), BuildingBlock: AJUNOK_clean_linker_0, # of connection points: 2
#     Edge 35, Type (0, 0), BuildingBlock: AJUNOK_clean_linker_0, # of connection points: 2
#     Edge 36, Type (0, 0), BuildingBlock: AJUNOK_clean_linker_0, # of connection points: 2
#     Edge 37, Type (0, 0), BuildingBlock: AJUNOK_clean_linker_0, # of connection points: 2
#     Edge 38, Type (0, 0), BuildingBlock: AJUNOK_clean_linker_0, # of connection points: 2
#     Edge 39, Type (0, 0), BuildingBlock: AJUNOK_clean_linker_0, # of connection points: 2
#     Edge 40, Type (0, 0), BuildingBlock: AJUNOK_clean_linker_0, # of connection points: 2
#     Edge 41, Type (0, 0), BuildingBlock: AJUNOK_clean_linker_0, # of connection points: 2
#     Edge 42, Type (0, 0), BuildingBlock: AJUNOK_clean_linker_0, # of connection points: 2
#     Edge 43, Type (0, 0), BuildingBlock: AJUNOK_clean_linker_0, # of connection points: 2
#     Edge 44, Type (0, 0), BuildingBlock: AJUNOK_clean_linker_0, # of connection points: 2
#     Edge 45, Type (0, 0), BuildingBlock: AJUNOK_clean_linker_0, # of connection points: 2
#     Edge 46, Type (0, 0), BuildingBlock: AJUNOK_clean_linker_0, # of connection points: 2
#     Edge 47, Type (0, 0), BuildingBlock: AJUNOK_clean_linker_0, # of connection points: 2
#     Edge 48, Type (0, 0), BuildingBlock: AJUNOK_clean_linker_0, # of connection points: 2
#     Edge 49, Type (0, 0), BuildingBlock: AJUNOK_clean_linker_0, # of connection points: 2
#     Edge 50, Type (0, 0), BuildingBlock: AJUNOK_clean_linker_0, # of connection points: 2
#     Edge 51, Type (0, 0), BuildingBlock: AJUNOK_clean_linker_0, # of connection points: 2
#     Edge 52, Type (0, 0), BuildingBlock: AJUNOK_clean_linker_0, # of connection points: 2
#     Edge 53, Type (0, 0), BuildingBlock: AJUNOK_clean_linker_0, # of connection points: 2
#     Edge 54, Type (0, 0), BuildingBlock: AJUNOK_clean_linker_0, # of connection points: 2
#     Edge 55, Type (0, 0), BuildingBlock: AJUNOK_clean_linker_0, # of connection points: 2
#     Edge 56, Type (0, 0), BuildingBlock: AJUNOK_clean_linker_0, # of connection points: 2
#     Edge 57, Type (0, 0), BuildingBlock: AJUNOK_clean_linker_0, # of connection points: 2
#     Edge 58, Type (0, 0), BuildingBlock: AJUNOK_clean_linker_0, # of connection points: 2
#     Edge 59, Type (0, 0), BuildingBlock: AJUNOK_clean_linker_0, # of connection points: 2
#     Edge 60, Type (0, 0), BuildingBlock: AJUNOK_clean_linker_0, # of connection points: 2
#     Edge 61, Type (0, 0), BuildingBlock: AJUNOK_clean_linker_0, # of connection points: 2
#     Edge 62, Type (0, 0), BuildingBlock: AJUNOK_clean_linker_0, # of connection points: 2
#     Edge 63, Type (0, 0), BuildingBlock: AJUNOK_clean_linker_0, # of connection points: 2
#     Edge 64, Type (0, 0), BuildingBlock: AJUNOK_clean_linker_0, # of connection points: 2
#     Edge 65, Type (0, 0), BuildingBlock: AJUNOK_clean_linker_0, # of connection points: 2
#     Edge 66, Type (0, 0), BuildingBlock: AJUNOK_clean_linker_0, # of connection points: 2
#     Edge 67, Type (0, 0), BuildingBlock: AJUNOK_clean_linker_0, # of connection points: 2
#     Edge 68, Type (0, 0), BuildingBlock: AJUNOK_clean_linker_0, # of connection points: 2
#     Edge 69, Type (0, 0), BuildingBlock: AJUNOK_clean_linker_0, # of connection points: 2
#     Edge 70, Type (0, 0), BuildingBlock: AJUNOK_clean_linker_0, # of connection points: 2
#     Edge 71, Type (0, 0), BuildingBlock: AJUNOK_clean_linker_0, # of connection points: 2
#     Edge 72, Type (0, 0), BuildingBlock: AJUNOK_clean_linker_0, # of connection points: 2
#     Edge 73, Type (0, 0), BuildingBlock: AJUNOK_clean_linker_0, # of connection points: 2
#     Edge 74, Type (0, 0), BuildingBlock: AJUNOK_clean_linker_0, # of connection points: 2
#     Edge 75, Type (0, 0), BuildingBlock: AJUNOK_clean_linker_0, # of connection points: 2
#     Edge 76, Type (0, 0), BuildingBlock: AJUNOK_clean_linker_0, # of connection points: 2
#     Edge 77, Type (0, 0), BuildingBlock: AJUNOK_clean_linker_0, # of connection points: 2
#     Edge 78, Type (0, 0), BuildingBlock: AJUNOK_clean_linker_0, # of connection points: 2
#     Edge 79, Type (0, 0), BuildingBlock: AJUNOK_clean_linker_0, # of connection points: 2
#     Edge 80, Type (0, 0), BuildingBlock: AJUNOK_clean_linker_0, # of connection points: 2
#     Edge 81, Type (0, 0), BuildingBlock: AJUNOK_clean_linker_0, # of connection points: 2
#     Edge 82, Type (0, 0), BuildingBlock: AJUNOK_clean_linker_0, # of connection points: 2
#     Edge 83, Type (0, 0), BuildingBlock: AJUNOK_clean_linker_0, # of connection points: 2
#     Edge 84, Type (0, 0), BuildingBlock: AJUNOK_clean_linker_0, # of connection points: 2
#     Edge 85, Type (0, 0), BuildingBlock: AJUNOK_clean_linker_0, # of connection points: 2
#     Edge 86, Type (0, 0), BuildingBlock: AJUNOK_clean_linker_0, # of connection points: 2
#     Edge 87, Type (0, 0), BuildingBlock: AJUNOK_clean_linker_0, # of connection points: 2
#     Edge 88, Type (0, 0), BuildingBlock: AJUNOK_clean_linker_0, # of connection points: 2
#     Edge 89, Type (0, 0), BuildingBlock: AJUNOK_clean_linker_0, # of connection points: 2
#     Edge 90, Type (0, 0), BuildingBlock: AJUNOK_clean_linker_0, # of connection points: 2
#     Edge 91, Type (0, 0), BuildingBlock: AJUNOK_clean_linker_0, # of connection points: 2
#     Edge 92, Type (0, 0), BuildingBlock: AJUNOK_clean_linker_0, # of connection points: 2
#     Edge 93, Type (0, 0), BuildingBlock: AJUNOK_clean_linker_0, # of connection points: 2
#     Edge 94, Type (0, 0), BuildingBlock: AJUNOK_clean_linker_0, # of connection points: 2
#     Edge 95, Type (0, 0), BuildingBlock: AJUNOK_clean_linker_0, # of connection points: 2
# Relax obj value: 0.143
# Max RMSD: 0.131
# Mean RMSD: 0.131
data_MOF--net-uow--node1-QUQFOY_clean_sbu_1--edge1-AJUNOK_clean_linker_0
_symmetry_space_group_name_H-M    P1
_symmetry_Int_Tables_number       1
_symmetry_cell_setting            triclinic
loop_
_symmetry_equiv_pos_as_xyz
'x, y, z'
_cell_length_a     47.610538
_cell_length_b     47.608825
_cell_length_c     33.06481
_cell_angle_alpha  90.001259
_cell_angle_beta   89.996985
_cell_angle_gamma 90.062843
loop_
_atom_site_label
_atom_site_type_symbol
_atom_site_fract_x
_atom_site_fract_y
_atom_site_fract_z
_atom_type_partial_charge
O0 O 0.02313 0.4059 0.34337 0.0
Cd1 Cd 0.0643 0.41415 0.32784 0.0
Cd2 Cd 0.05597 0.36981 0.27746 0.0
O3 O 0.01445 0.37404 0.29654 0.0
O4 O 0.07189 0.45513 0.33716 0.0
O5 O 0.07204 0.43565 0.27653 0.0
C6 C 0.07422 0.45805 0.29847 0.0
C7 C 0.06806 0.35853 0.21047 0.0
C8 C 1.00619 0.38899 0.32621 0.0
C9 C 0.09629 0.3627 0.34828 0.0
O10 O 0.08301 0.35198 0.31873 0.0
O11 O 0.09338 0.38857 0.35707 0.0
O12 O 0.05499 0.34098 0.23337 0.0
O13 O 0.07285 0.38332 0.22477 0.0
O14 O 0.86811 0.77384 0.59539 0.0
Cd15 Cd 0.86086 0.81486 0.5783 0.0
Cd16 Cd 0.90581 0.80508 0.52943 0.0
O17 O 0.90079 0.76404 0.55033 0.0
O18 O 0.81972 0.82305 0.5846 0.0
O19 O 0.84124 0.82198 0.5254 0.0
C20 C 0.81816 0.82473 0.54565 0.0
C21 C 0.91856 0.81506 0.46218 0.0
C22 C 0.88518 0.75645 0.5797 0.0
C23 C 0.91231 0.84693 0.59865 0.0
O24 O 0.92322 0.83305 0.56986 0.0
O25 O 0.8864 0.84416 0.6073 0.0
O26 O 0.93551 0.80266 0.48669 0.0
O27 O 0.8936 0.82062 0.47517 0.0
O28 O 0.5 0.61855 0.84454 0.0
Cd29 Cd 0.45885 0.61041 0.82891 0.0
Cd30 Cd 0.46714 0.65494 0.77888 0.0
O31 O 0.50863 0.65058 0.79794 0.0
O32 O 0.4513 0.56914 0.8354 0.0
O33 O 0.45124 0.59073 0.77622 0.0
C34 C 0.44907 0.56759 0.7965 0.0
C35 C 0.45521 0.66685 0.7121 0.0
C36 C 0.51693 0.63551 0.82746 0.0
C37 C 0.42655 0.66153 0.84958 0.0
O38 O 0.43992 0.67239 0.82022 0.0
O39 O 0.42964 0.6357 0.85844 0.0
O40 O 0.46824 0.68419 0.73539 0.0
O41 O 0.45039 0.64193 0.72586 0.0
O42 O 0.65573 0.25164 0.09311 0.0
Cd43 Cd 0.66303 0.21058 0.07626 0.0
Cd44 Cd 0.61773 0.22012 0.02772 0.0
O45 O 0.62265 0.26121 0.04855 0.0
O46 O 0.70415 0.20244 0.08289 0.0
O47 O 0.68281 0.20313 0.02355 0.0
C48 C 0.70583 0.20047 0.04399 0.0
C49 C 0.60469 0.20996 0.96062 0.0
C50 C 0.63843 0.26891 0.07767 0.0
C51 C 0.61171 0.17848 0.0973 0.0
O52 O 0.60063 0.19219 0.06846 0.0
O53 O 0.63764 0.18139 0.10572 0.0
O54 O 0.58781 0.22234 0.98525 0.0
O55 O 0.62974 0.20453 0.97338 0.0
O56 O 0.0222 0.6192 0.17372 0.0
Cd57 Cd 0.06345 0.61151 0.18925 0.0
Cd58 Cd 0.055 0.65614 0.23889 0.0
O59 O 0.0135 0.65159 0.21974 0.0
O60 O 0.07128 0.57034 0.1824 0.0
O61 O 0.07144 0.59171 0.24173 0.0
C62 C 0.07371 0.56867 0.22126 0.0
C63 C 0.06695 0.66741 0.30598 0.0
C64 C 1.00524 0.63622 0.19049 0.0
C65 C 0.09533 0.66289 0.1679 0.0
O66 O 0.08215 0.67373 0.19745 0.0
O67 O 0.09234 0.63698 0.15935 0.0
O68 O 0.05408 0.68502 0.28297 0.0
O69 O 0.07164 0.64261 0.29169 0.0
O70 O 0.65611 0.77321 0.42242 0.0
Cd71 Cd 0.66382 0.81438 0.43846 0.0
Cd72 Cd 0.61906 0.8052 0.48785 0.0
O73 O 0.6238 0.76384 0.46824 0.0
O74 O 0.70475 0.82226 0.42923 0.0
O75 O 0.68528 0.82209 0.48986 0.0
C76 C 0.70767 0.82446 0.46794 0.0
C77 C 0.60762 0.81713 0.5548 0.0
C78 C 0.63914 0.75595 0.43874 0.0
C79 C 0.61223 0.84617 0.41785 0.0
O80 O 0.60133 0.83242 0.4468 0.0
O81 O 0.63817 0.84349 0.40932 0.0
O82 O 0.5902 0.80387 0.53189 0.0
O83 O 0.63239 0.82212 0.54058 0.0
O84 O 0.50103 0.40611 0.67218 0.0
Cd85 Cd 0.45988 0.41357 0.6885 0.0
Cd86 Cd 0.46926 0.36856 0.73735 0.0
O87 O 0.51055 0.37349 0.71745 0.0
O88 O 0.45181 0.4545 0.67961 0.0
O89 O 0.4522 0.43481 0.74008 0.0
C90 C 0.44967 0.45726 0.71834 0.0
C91 C 0.45744 0.35723 0.8044 0.0
C92 C 0.51833 0.38905 0.68812 0.0
C93 C 0.42818 0.36191 0.66746 0.0
O94 O 0.44195 0.35091 0.69629 0.0
O95 O 0.43082 0.3879 0.65919 0.0
O96 O 0.47061 0.33975 0.7815 0.0
O97 O 0.45248 0.38197 0.7901 0.0
O98 O 0.869 0.25006 0.92228 0.0
Cd99 Cd 0.8607 0.20897 0.93809 0.0
Cd100 Cd 0.90517 0.21757 0.98845 0.0
O101 O 0.90066 0.25905 0.96925 0.0
O102 O 0.81973 0.20153 0.92853 0.0
O103 O 0.83898 0.20149 0.98931 0.0
C104 C 0.81664 0.19938 0.96721 0.0
C105 C 0.91684 0.20557 0.05529 0.0
C106 C 0.88575 0.26715 0.93945 0.0
C107 C 0.91212 0.17682 0.9181 0.0
O108 O 0.9229 0.19043 0.94728 0.0
O109 O 0.88626 0.17967 0.90923 0.0
O110 O 0.93418 0.21883 0.03227 0.0
O111 O 0.89202 0.20058 0.04125 0.0
O112 O 0.9998 0.61804 0.67336 0.0
Cd113 Cd 0.95869 0.61054 0.68986 0.0
Cd114 Cd 0.96817 0.65525 0.73897 0.0
O115 O 1.00942 0.65054 0.7188 0.0
O116 O 0.95062 0.56938 0.68311 0.0
O117 O 0.95121 0.59069 0.74248 0.0
C118 C 0.94864 0.56767 0.72202 0.0
C119 C 0.95657 0.66653 0.80614 0.0
C120 C 0.01713 0.63509 0.68934 0.0
C121 C 0.92687 0.66201 0.66926 0.0
O122 O 0.94067 0.67288 0.69819 0.0
O123 O 0.92956 0.63608 0.66065 0.0
O124 O 0.96951 0.68409 0.78307 0.0
O125 O 0.95174 0.64173 0.79192 0.0
O126 O 0.15538 0.25158 0.42175 0.0
Cd127 Cd 0.16329 0.21047 0.43779 0.0
Cd128 Cd 0.11851 0.21902 0.48788 0.0
O129 O 0.12304 0.26031 0.46785 0.0
O130 O 0.20448 0.20274 0.43116 0.0
O131 O 0.18304 0.20295 0.49046 0.0
C132 C 0.20611 0.20058 0.47006 0.0
C133 C 0.10527 0.20876 0.55486 0.0
C134 C 0.13831 0.26853 0.43849 0.0
C135 C 0.1122 0.17782 0.41765 0.0
O136 O 0.10136 0.19116 0.44703 0.0
O137 O 0.13796 0.18117 0.4085 0.0
O138 O 0.08843 0.22105 0.5301 0.0
O139 O 0.13037 0.20339 0.54227 0.0
O140 O 0.52336 0.40638 0.17264 0.0
Cd141 Cd 0.56441 0.41421 0.18906 0.0
Cd142 Cd 0.55518 0.36911 0.23798 0.0
O143 O 0.51387 0.37377 0.21797 0.0
O144 O 0.5721 0.45521 0.18006 0.0
O145 O 0.57177 0.4356 0.24059 0.0
C146 C 0.57407 0.45806 0.2188 0.0
C147 C 0.56696 0.35763 0.30502 0.0
C148 C 0.50609 0.38925 0.18857 0.0
C149 C 0.5964 0.3628 0.16812 0.0
O150 O 0.58262 0.35172 0.19691 0.0
O151 O 0.59367 0.38877 0.15986 0.0
O152 O 0.55395 0.34014 0.28193 0.0
O153 O 0.57177 0.38247 0.29092 0.0
O154 O 0.36765 0.77335 0.92306 0.0
Cd155 Cd 0.36031 0.81451 0.93932 0.0
Cd156 Cd 0.40568 0.80511 0.98809 0.0
O157 O 0.40059 0.76391 0.96789 0.0
O158 O 0.31944 0.82254 0.93008 0.0
O159 O 0.33888 0.82229 0.99072 0.0
C160 C 0.31651 0.82473 0.96878 0.0
C161 C 0.41888 0.81543 0.05507 0.0
C162 C 0.38483 0.75609 0.93881 0.0
C163 C 0.41195 0.84615 0.91785 0.0
O164 O 0.42296 0.83263 0.94693 0.0
O165 O 0.38595 0.84342 0.9097 0.0
O166 O 0.43565 0.80288 0.03047 0.0
O167 O 0.39386 0.82102 0.04233 0.0
O168 O 1.00064 0.40551 0.84385 0.0
Cd169 Cd 0.95935 0.41327 0.82855 0.0
Cd170 Cd 0.96795 0.36892 0.77822 0.0
O171 O 1.00947 0.37371 0.79703 0.0
O172 O 0.95144 0.45416 0.83792 0.0
O173 O 0.95129 0.43468 0.77728 0.0
C174 C 0.949 0.45706 0.79923 0.0
C175 C 0.95588 0.35748 0.71129 0.0
C176 C 0.01769 0.3888 0.8266 0.0
C177 C 0.92784 0.36147 0.84924 0.0
O178 O 0.94116 0.35085 0.81967 0.0
O179 O 0.93056 0.38738 0.85796 0.0
O180 O 0.96919 0.34009 0.73413 0.0
O181 O 0.95079 0.38219 0.72561 0.0
O182 O 0.36859 0.25059 0.59323 0.0
Cd183 Cd 0.36076 0.20958 0.57657 0.0
Cd184 Cd 0.4057 0.219 0.52755 0.0
O185 O 0.40112 0.26023 0.54785 0.0
O186 O 0.31982 0.20182 0.58589 0.0
O187 O 0.33916 0.20226 0.52518 0.0
C188 C 0.31681 0.19988 0.54717 0.0
C189 C 0.41701 0.20745 0.46038 0.0
C190 C 0.3857 0.26791 0.57737 0.0
C191 C 0.41222 0.17755 0.59706 0.0
O192 O 0.42322 0.19142 0.5683 0.0
O193 O 0.38627 0.18026 0.6055 0.0
O194 O 0.43457 0.22036 0.4835 0.0
O195 O 0.3922 0.20261 0.47456 0.0
O196 O 0.52173 0.61944 0.34479 0.0
Cd197 Cd 0.56289 0.61114 0.32938 0.0
Cd198 Cd 0.55521 0.65581 0.27928 0.0
O199 O 0.51384 0.65237 0.29923 0.0
O200 O 0.5703 0.56986 0.33578 0.0
O201 O 0.57072 0.59156 0.27669 0.0
C202 C 0.57281 0.5684 0.29691 0.0
C203 C 0.56624 0.66721 0.21188 0.0
C204 C 0.5052 0.63699 0.32823 0.0
C205 C 0.59622 0.66175 0.34974 0.0
O206 O 0.5834 0.67267 0.31995 0.0
O207 O 0.5922 0.63614 0.35918 0.0
O208 O 0.55456 0.68507 0.23578 0.0
O209 O 0.57031 0.64215 0.22559 0.0
O210 O 0.15484 0.77352 0.09345 0.0
Cd211 Cd 0.16282 0.81466 0.07759 0.0
Cd212 Cd 0.11843 0.80608 0.02762 0.0
O213 O 0.12273 0.76463 0.04706 0.0
O214 O 0.20402 0.82241 0.08457 0.0
O215 O 0.18278 0.82238 0.02514 0.0
C216 C 0.20578 0.82468 0.0457 0.0
C217 C 0.10716 0.81796 0.96052 0.0
C218 C 0.13785 0.7565 0.07662 0.0
C219 C 0.11148 0.84662 0.0983 0.0
O220 O 0.10074 0.83329 0.06881 0.0
O221 O 0.13737 0.84372 0.10704 0.0
O222 O 0.08956 0.80506 0.98356 0.0
O223 O 0.13197 0.82268 0.97476 0.0
O224 O 0.52256 0.90559 0.84335 0.0
Cd225 Cd 0.56375 0.91353 0.82765 0.0
Cd226 Cd 0.55535 0.8688 0.77812 0.0
O227 O 0.51386 0.87315 0.79736 0.0
O228 O 0.57145 0.95477 0.8344 0.0
O229 O 0.57163 0.93335 0.77511 0.0
C230 C 0.57385 0.95642 0.79553 0.0
C231 C 0.56732 0.85725 0.71114 0.0
C232 C 0.50562 0.88846 0.82666 0.0
C233 C 0.59577 0.8623 0.84903 0.0
O234 O 0.58255 0.85138 0.81957 0.0
O235 O 0.59276 0.88821 0.85752 0.0
O236 O 0.55444 0.83972 0.73432 0.0
O237 O 0.57198 0.88214 0.72517 0.0
O238 O 0.36808 0.27397 0.09308 0.0
Cd239 Cd 0.36074 0.31513 0.07678 0.0
Cd240 Cd 0.40589 0.30593 0.0283 0.0
O241 O 0.40108 0.26464 0.04829 0.0
O242 O 0.31957 0.32314 0.0832 0.0
O243 O 0.34114 0.32284 0.02404 0.0
C244 C 0.31804 0.32531 0.04429 0.0
C245 C 0.41745 0.3175 0.9612 0.0
C246 C 0.38533 0.25677 0.07736 0.0
C247 C 0.41208 0.34702 0.0984 0.0
O248 O 0.42318 0.33344 0.06945 0.0
O249 O 0.38611 0.34416 0.10663 0.0
O250 O 0.43495 0.3047 0.98447 0.0
O251 O 0.39259 0.32226 0.97521 0.0
O252 O 1.0008 0.11767 0.34433 0.0
Cd253 Cd 0.95968 0.11016 0.32792 0.0
Cd254 Cd 0.96901 0.15484 0.27896 0.0
O255 O 1.01029 0.15028 0.29901 0.0
O256 O 0.95161 0.06899 0.3345 0.0
O257 O 0.95208 0.09045 0.27524 0.0
C258 C 0.94954 0.06738 0.29559 0.0
C259 C 0.95737 0.16597 0.21175 0.0
C260 C 0.01807 0.13481 0.32841 0.0
C261 C 0.92798 0.16163 0.34898 0.0
O262 O 0.9416 0.1725 0.31986 0.0
O263 O 0.93064 0.13567 0.35739 0.0
O264 O 0.97023 0.18362 0.23478 0.0
O265 O 0.95262 0.14118 0.22606 0.0
O266 O 0.15561 0.75028 0.59553 0.0
Cd267 Cd 0.16316 0.70915 0.57935 0.0
Cd268 Cd 0.11841 0.71844 0.53 0.0
O269 O 0.12341 0.75978 0.54965 0.0
O270 O 0.20409 0.70125 0.58827 0.0
O271 O 0.18442 0.70169 0.52777 0.0
C272 C 0.20688 0.69929 0.54952 0.0
C273 C 0.10696 0.7067 0.46297 0.0
C274 C 0.13877 0.7676 0.57916 0.0
C275 C 0.1115 0.6774 0.59996 0.0
O276 O 0.10062 0.6912 0.57106 0.0
O277 O 0.13746 0.68002 0.60842 0.0
O278 O 0.08957 0.7199 0.48593 0.0
O279 O 0.1317 0.70162 0.47721 0.0
O280 O 0.52365 0.11827 0.67131 0.0
Cd281 Cd 0.56468 0.11076 0.68811 0.0
Cd282 Cd 0.55505 0.15618 0.73695 0.0
O283 O 0.51398 0.15111 0.7162 0.0
O284 O 0.57265 0.06982 0.67919 0.0
O285 O 0.57199 0.08941 0.73974 0.0
C286 C 0.57453 0.06697 0.71795 0.0
C287 C 0.56508 0.16956 0.80395 0.0
C288 C 0.50632 0.13544 0.68693 0.0
C289 C 0.59669 0.16231 0.6674 0.0
O290 O 0.58289 0.17335 0.69616 0.0
O291 O 0.59392 0.13635 0.65902 0.0
O292 O 0.55264 0.18627 0.77915 0.0
O293 O 0.57067 0.14449 0.79141 0.0
O294 O 0.15601 0.27412 0.92101 0.0
Cd295 Cd 0.16397 0.31536 0.93651 0.0
Cd296 Cd 0.11967 0.30675 0.98691 0.0
O297 O 0.12425 0.26524 0.96791 0.0
O298 O 0.20494 0.32319 0.92747 0.0
O299 O 0.18526 0.3232 0.98797 0.0
C300 C 0.20772 0.32549 0.96619 0.0
C301 C 0.10823 0.31876 0.05387 0.0
C302 C 0.13925 0.25706 0.93824 0.0
C303 C 0.11231 0.34702 0.91606 0.0
O304 O 0.10169 0.33365 0.9456 0.0
O305 O 0.13821 0.34428 0.90726 0.0
O306 O 0.0908 0.30556 0.03093 0.0
O307 O 0.133 0.32374 0.03963 0.0
O308 O 1.00027 0.90533 0.1719 0.0
Cd309 Cd 0.95914 0.91326 0.18786 0.0
Cd310 Cd 0.96789 0.86838 0.23812 0.0
O311 O 1.00916 0.87311 0.21811 0.0
O312 O 0.95139 0.95421 0.17892 0.0
O313 O 0.95158 0.93453 0.23943 0.0
C314 C 0.94923 0.95699 0.21766 0.0
C315 C 0.95771 0.85504 0.3051 0.0
C316 C 0.01729 0.88837 0.18868 0.0
C317 C 0.92675 0.86188 0.16789 0.0
O318 O 0.94017 0.85109 0.19723 0.0
O319 O 0.92993 0.88767 0.1588 0.0
O320 O 0.97009 0.83829 0.28032 0.0
O321 O 0.95219 0.88012 0.29254 0.0
O322 O 0.36765 0.75277 0.42372 0.0
Cd323 Cd 0.35991 0.71152 0.43934 0.0
Cd324 Cd 0.40433 0.72005 0.48906 0.0
O325 O 0.39992 0.76154 0.46991 0.0
O326 O 0.31875 0.7035 0.43268 0.0
O327 O 0.34027 0.70346 0.49191 0.0
C328 C 0.3172 0.70102 0.47155 0.0
C329 C 0.41553 0.7079 0.55602 0.0
C330 C 0.38468 0.76976 0.44053 0.0
C331 C 0.41127 0.67973 0.41823 0.0
O332 O 0.42207 0.69299 0.44774 0.0
O333 O 0.38538 0.68265 0.40958 0.0
O334 O 0.43312 0.721 0.5332 0.0
O335 O 0.39075 0.70315 0.54167 0.0
O336 O 0.50038 0.11885 0.17123 0.0
Cd337 Cd 0.45933 0.1111 0.18775 0.0
Cd338 Cd 0.46869 0.15612 0.23663 0.0
O339 O 0.50997 0.1514 0.2166 0.0
O340 O 0.45154 0.07016 0.17856 0.0
O341 O 0.45189 0.08961 0.2392 0.0
C342 C 0.44953 0.06722 0.21728 0.0
C343 C 0.45695 0.16752 0.30369 0.0
C344 C 0.51769 0.13594 0.18715 0.0
C345 C 0.42743 0.16256 0.1669 0.0
O346 O 0.44126 0.17362 0.19565 0.0
O347 O 0.43009 0.13659 0.15862 0.0
O348 O 0.47 0.18502 0.28065 0.0
O349 O 0.45207 0.14271 0.28951 0.0
O350 O 0.65456 0.75135 0.92295 0.0
Cd351 Cd 0.66225 0.71016 0.93892 0.0
Cd352 Cd 0.61751 0.71885 0.98826 0.0
O353 O 0.62258 0.76035 0.96944 0.0
O354 O 0.70344 0.70224 0.93223 0.0
O355 O 0.68203 0.70246 0.99153 0.0
C356 C 0.70508 0.70003 0.97113 0.0
C357 C 0.60584 0.70658 0.05489 0.0
C358 C 0.63777 0.76846 0.93992 0.0
C359 C 0.6107 0.67849 0.91754 0.0
O360 O 0.59974 0.69207 0.9466 0.0
O361 O 0.63672 0.68109 0.90942 0.0
O362 O 0.58865 0.72034 0.03233 0.0
O363 O 0.63048 0.70116 0.04057 0.0
O364 O 0.02412 0.90664 0.67112 0.0
Cd365 Cd 0.06524 0.91428 0.6875 0.0
Cd366 Cd 0.05575 0.86964 0.7369 0.0
O367 O 0.01445 0.87446 0.71701 0.0
O368 O 0.07326 0.95519 0.67835 0.0
O369 O 0.0728 0.9357 0.73896 0.0
C370 C 0.07531 0.9581 0.71708 0.0
C371 C 0.0675 0.85823 0.80392 0.0
C372 C 1.00675 0.88975 0.68736 0.0
C373 C 0.0969 0.8626 0.66718 0.0
O374 O 0.083 0.85178 0.69603 0.0
O375 O 0.09438 0.88855 0.65861 0.0
O376 O 0.05423 0.84082 0.78099 0.0
O377 O 0.07258 0.88298 0.78968 0.0
O378 O 0.86869 0.27272 0.42175 0.0
Cd379 Cd 0.86085 0.31396 0.4372 0.0
Cd380 Cd 0.90528 0.30566 0.48724 0.0
O381 O 0.90088 0.26415 0.46812 0.0
O382 O 0.81964 0.32175 0.43054 0.0
O383 O 0.84115 0.3219 0.48977 0.0
C384 C 0.81806 0.32416 0.46942 0.0
C385 C 0.91651 0.31755 0.55434 0.0
C386 C 0.88567 0.25581 0.43875 0.0
C387 C 0.91222 0.34601 0.41631 0.0
O388 O 0.92296 0.33285 0.44594 0.0
O389 O 0.88636 0.34294 0.4075 0.0
O390 O 0.93414 0.30471 0.53131 0.0
O391 O 0.89172 0.32225 0.54005 0.0
O392 O 0.50106 0.90633 0.34382 0.0
Cd393 Cd 0.46001 0.91388 0.32721 0.0
Cd394 Cd 0.46896 0.86839 0.27895 0.0
O395 O 0.51014 0.87298 0.29947 0.0
O396 O 0.45222 0.95508 0.33366 0.0
O397 O 0.45248 0.93355 0.27445 0.0
C398 C 0.45009 0.95665 0.29476 0.0
C399 C 0.45873 0.85517 0.21194 0.0
C400 C 0.51811 0.88879 0.3284 0.0
C401 C 0.42767 0.86287 0.34907 0.0
O402 O 0.44104 0.85162 0.32003 0.0
O403 O 0.43079 0.88883 0.35716 0.0
O404 O 0.47092 0.83828 0.23674 0.0
O405 O 0.45344 0.88029 0.22451 0.0
O406 O 0.86717 0.75022 0.09448 0.0
Cd407 Cd 0.85955 0.70912 0.07808 0.0
Cd408 Cd 0.90456 0.71849 0.02943 0.0
O409 O 0.89968 0.75984 0.04906 0.0
O410 O 0.8186 0.70126 0.08724 0.0
O411 O 0.83809 0.70154 0.02663 0.0
C412 C 0.81568 0.69919 0.04852 0.0
C413 C 0.91617 0.70651 0.96254 0.0
C414 C 0.88421 0.76756 0.07851 0.0
C415 C 0.91121 0.67773 0.09969 0.0
O416 O 0.92222 0.69147 0.07081 0.0
O417 O 0.88514 0.68012 0.10759 0.0
O418 O 0.93353 0.7198 0.9855 0.0
O419 O 0.89137 0.70149 0.97667 0.0
O420 O 0.02412 0.11822 0.84443 0.0
Cd421 Cd 0.06519 0.11119 0.82749 0.0
Cd422 Cd 0.05535 0.15613 0.77883 0.0
O423 O 0.01426 0.15089 0.79941 0.0
O424 O 0.07353 0.07009 0.83382 0.0
O425 O 0.07256 0.09162 0.77462 0.0
C426 C 0.07533 0.06854 0.79487 0.0
C427 C 0.06542 0.16911 0.71172 0.0
C428 C 1.00668 0.13523 0.82872 0.0
C429 C 0.09677 0.16282 0.84852 0.0
O430 O 0.08298 0.17368 0.8196 0.0
O431 O 0.09424 0.13682 0.85684 0.0
O432 O 0.05286 0.18592 0.73625 0.0
O433 O 0.07112 0.14415 0.72461 0.0
O434 O 0.65617 0.27386 0.59368 0.0
Cd435 Cd 0.6639 0.31495 0.57726 0.0
Cd436 Cd 0.61874 0.30567 0.52848 0.0
O437 O 0.62349 0.26436 0.54846 0.0
O438 O 0.70488 0.32281 0.58614 0.0
O439 O 0.6852 0.32243 0.52566 0.0
C440 C 0.70768 0.32485 0.54739 0.0
C441 C 0.60722 0.31745 0.46145 0.0
C442 C 0.63902 0.25658 0.57781 0.0
C443 C 0.61244 0.34686 0.59835 0.0
O444 O 0.60134 0.33309 0.56958 0.0
O445 O 0.63842 0.34415 0.60655 0.0
O446 O 0.58975 0.30441 0.48456 0.0
O447 O 0.63206 0.32229 0.47553 0.0
C448 C 0.06596 0.32633 0.15075 0.0
C449 C 0.07833 0.34963 0.17001 0.0
C450 C 0.07598 0.31641 0.11352 0.0
C451 C 0.0992 0.32896 0.09432 0.0
H452 H 0.04822 0.31569 0.16445 0.0
H453 H 0.06548 0.2986 0.09978 0.0
S454 S 0.13946 0.39037 0.13222 0.0
N455 N 0.11515 0.38503 0.16701 0.0
N456 N 0.13432 0.36604 0.0974 0.0
C457 C 0.11197 0.35214 0.11335 0.0
C458 C 0.10142 0.36259 0.15101 0.0
C459 C 0.92558 0.85763 0.3652 0.0
C460 C 0.94863 0.84504 0.34563 0.0
C461 C 0.91542 0.84726 0.40224 0.0
C462 C 0.92825 0.82423 0.42154 0.0
H463 H 0.91497 0.87534 0.35147 0.0
H464 H 0.89771 0.85772 0.4162 0.0
S465 S 0.98942 0.78393 0.38314 0.0
N466 N 0.98392 0.80819 0.34838 0.0
N467 N 0.96527 0.78915 0.41816 0.0
C468 C 0.95142 0.81158 0.4024 0.0
C469 C 0.96147 0.82185 0.36444 0.0
C470 C 0.45771 0.69934 0.65278 0.0
C471 C 0.44502 0.67613 0.6718 0.0
C472 C 0.4478 0.70959 0.61567 0.0
C473 C 0.42438 0.69746 0.5964 0.0
H474 H 0.47562 0.70964 0.66654 0.0
H475 H 0.45856 0.72729 0.60207 0.0
S476 S 0.38317 0.63655 0.63391 0.0
N477 N 0.40764 0.64133 0.66863 0.0
N478 N 0.38864 0.66096 0.59929 0.0
C479 C 0.41125 0.67441 0.61527 0.0
C480 C 0.4217 0.66362 0.65278 0.0
C481 C 0.5974 0.16717 0.86385 0.0
C482 C 0.57423 0.17964 0.84442 0.0
C483 C 0.60767 0.17764 0.90077 0.0
C484 C 0.59484 0.20065 0.9201 0.0
H485 H 0.60803 0.14948 0.85009 0.0
H486 H 0.62549 0.16728 0.91461 0.0
S487 S 0.53335 0.24065 0.88209 0.0
N488 N 0.53881 0.21635 0.84735 0.0
N489 N 0.55766 0.23557 0.91692 0.0
C490 C 0.57154 0.21318 0.90112 0.0
C491 C 0.56137 0.2028 0.86328 0.0
C492 C 0.06549 0.70012 0.36522 0.0
C493 C 0.07713 0.67623 0.34656 0.0
C494 C 0.07548 0.70991 0.40257 0.0
C495 C 0.09795 0.6966 0.42248 0.0
H496 H 0.04837 0.71136 0.35096 0.0
H497 H 0.06558 0.7282 0.41583 0.0
S498 S 0.13587 0.63322 0.38666 0.0
N499 N 0.11228 0.63932 0.35113 0.0
N500 N 0.13141 0.65806 0.42092 0.0
C501 C 0.10994 0.67278 0.40412 0.0
C502 C 0.09941 0.66248 0.36635 0.0
C503 C 0.57604 0.81421 0.61511 0.0
C504 C 0.59857 0.82742 0.59515 0.0
C505 C 0.56597 0.82422 0.65229 0.0
C506 C 0.57758 0.84823 0.6707 0.0
H507 H 0.56614 0.79584 0.60203 0.0
H508 H 0.5488 0.81305 0.6666 0.0
S509 S 0.63647 0.89106 0.63036 0.0
N510 N 0.63207 0.86601 0.5964 0.0
N511 N 0.61278 0.88515 0.66585 0.0
C512 C 0.59992 0.86188 0.65085 0.0
C513 C 0.61053 0.85137 0.61327 0.0
C514 C 0.45032 0.31579 0.90214 0.0
C515 C 0.42646 0.32759 0.92065 0.0
C516 C 0.46028 0.32571 0.86483 0.0
C517 C 0.4472 0.34828 0.84486 0.0
H518 H 0.46139 0.29859 0.91646 0.0
H519 H 0.47853 0.31567 0.85167 0.0
S520 S 0.38402 0.38669 0.88037 0.0
N521 N 0.38985 0.36304 0.91591 0.0
N522 N 0.40892 0.38204 0.84624 0.0
C523 C 0.42342 0.36044 0.8631 0.0
C524 C 0.41294 0.34998 0.9008 0.0
C525 C 0.94833 0.20884 0.11564 0.0
C526 C 0.92602 0.19534 0.0956 0.0
C527 C 0.95847 0.19897 0.15284 0.0
C528 C 0.94715 0.17479 0.1712 0.0
H529 H 0.95797 0.22738 0.10262 0.0
H530 H 0.97543 0.21039 0.16724 0.0
S531 S 0.88905 0.13107 0.13045 0.0
N532 N 0.89313 0.15623 0.09658 0.0
N533 N 0.91254 0.13732 0.16608 0.0
C534 C 0.92507 0.1608 0.15121 0.0
C535 C 0.91438 0.17119 0.11361 0.0
C536 C 0.95815 0.69928 0.86533 0.0
C537 C 0.94635 0.67547 0.84664 0.0
C538 C 0.94805 0.70925 0.90251 0.0
C539 C 0.9253 0.69622 0.92219 0.0
H540 H 0.97548 0.71032 0.85121 0.0
H541 H 0.95809 0.72748 0.9158 0.0
S542 S 0.8868 0.63317 0.88613 0.0
N543 N 0.9107 0.63894 0.85089 0.0
N544 N 0.89137 0.65803 0.92035 0.0
C545 C 0.91314 0.67248 0.90379 0.0
C546 C 0.92378 0.66199 0.86621 0.0
C547 C 0.10807 0.1766 0.61488 0.0
C548 C 0.09533 0.19958 0.59536 0.0
C549 C 0.09774 0.16631 0.65187 0.0
C550 C 0.0746 0.17894 0.67115 0.0
H551 H 0.12587 0.16614 0.60115 0.0
H552 H 0.1083 0.14864 0.66578 0.0
S553 S 0.03391 0.23991 0.63291 0.0
N554 N 0.05824 0.23462 0.59817 0.0
N555 N 0.03927 0.21573 0.66785 0.0
C556 C 0.0618 0.20206 0.65208 0.0
C557 C 0.07204 0.21225 0.61418 0.0
C558 C 0.57485 0.31527 0.40185 0.0
C559 C 0.59815 0.32771 0.42103 0.0
C560 C 0.56481 0.32529 0.36466 0.0
C561 C 0.57723 0.34859 0.34545 0.0
H562 H 0.56431 0.29748 0.41556 0.0
H563 H 0.54703 0.31474 0.35096 0.0
S564 S 0.63856 0.38905 0.3832 0.0
N565 N 0.63338 0.36468 0.41795 0.0
N566 N 0.61417 0.38385 0.34847 0.0
C567 C 0.60039 0.36143 0.36443 0.0
C568 C 0.61096 0.35088 0.40202 0.0
C569 C 0.42664 0.85813 0.15184 0.0
C570 C 0.44954 0.84527 0.1714 0.0
C571 C 0.41631 0.84784 0.11485 0.0
C572 C 0.42881 0.82463 0.09559 0.0
H573 H 0.41626 0.87599 0.16555 0.0
H574 H 0.3987 0.85849 0.10091 0.0
S575 S 0.48958 0.78367 0.13387 0.0
N576 N 0.4844 0.80802 0.16861 0.0
N577 N 0.46544 0.78914 0.09891 0.0
C578 C 0.45187 0.81174 0.11467 0.0
C579 C 0.4621 0.82193 0.15258 0.0
C580 C 0.959 0.32599 0.65091 0.0
C581 C 0.94573 0.34848 0.67082 0.0
C582 C 0.94919 0.31602 0.61357 0.0
C583 C 0.92533 0.3277 0.59492 0.0
H584 H 0.97728 0.31606 0.66415 0.0
H585 H 0.9604 0.29888 0.5993 0.0
S586 S 0.88243 0.38654 0.63501 0.0
N587 N 0.90726 0.38202 0.66927 0.0
N588 N 0.88848 0.36293 0.59948 0.0
C589 C 0.91162 0.35 0.61471 0.0
C590 C 0.92193 0.36051 0.65248 0.0
C591 C 0.45939 0.19958 0.36358 0.0
C592 C 0.44673 0.17652 0.34414 0.0
C593 C 0.44942 0.20956 0.40084 0.0
C594 C 0.42597 0.1973 0.41986 0.0
H595 H 0.47732 0.20999 0.35002 0.0
H596 H 0.46016 0.22715 0.41474 0.0
S597 S 0.38484 0.13665 0.3813 0.0
N598 N 0.40934 0.14171 0.3467 0.0
N599 N 0.39027 0.16079 0.41631 0.0
C600 C 0.41289 0.17438 0.40059 0.0
C601 C 0.42338 0.16388 0.36293 0.0
C602 C 0.5682 0.7026 0.15587 0.0
C603 C 0.57598 0.67605 0.17102 0.0
C604 C 0.57813 0.71235 0.11848 0.0
C605 C 0.59676 0.69625 0.09507 0.0
H606 H 0.55426 0.71608 0.173 0.0
H607 H 0.57136 0.73282 0.10798 0.0
S608 S 0.62264 0.62479 0.11955 0.0
N609 N 0.60263 0.63331 0.15845 0.0
N610 N 0.62176 0.65203 0.08864 0.0
C611 C 0.60465 0.66964 0.10956 0.0
C612 C 0.59411 0.65943 0.14735 0.0
C613 C 0.06442 0.82666 0.86423 0.0
C614 C 0.07769 0.84917 0.84433 0.0
C615 C 0.07431 0.81659 0.90146 0.0
C616 C 0.09828 0.82819 0.92 0.0
H617 H 0.04607 0.81677 0.85105 0.0
H618 H 0.06309 0.79944 0.91572 0.0
S619 S 0.14126 0.88705 0.87987 0.0
N620 N 0.11629 0.88265 0.84577 0.0
N621 N 0.13523 0.86338 0.91534 0.0
C622 C 0.112 0.85052 0.90022 0.0
C623 C 0.10159 0.86113 0.86257 0.0
C624 C 0.12954 0.32286 0.35586 0.0
C625 C 0.11278 0.34351 0.37421 0.0
C626 C 0.13975 0.29993 0.37796 0.0
C627 C 0.13292 0.29625 0.41911 0.0
H628 H 0.13359 0.32368 0.32363 0.0
H629 H 0.1514 0.28396 0.36175 0.0
S630 S 0.09209 0.34617 0.48219 0.0
N631 N 0.09201 0.36046 0.43665 0.0
N632 N 0.11052 0.31691 0.4782 0.0
C633 C 0.11767 0.31777 0.43844 0.0
C634 C 0.10778 0.34151 0.41599 0.0
C635 C 0.93533 0.85713 0.66487 0.0
C636 C 0.9313 0.86405 0.62396 0.0
C637 C 0.95885 0.86713 0.6863 0.0
C638 C 0.97897 0.88468 0.66768 0.0
H639 H 0.92149 0.84216 0.67945 0.0
H640 H 0.96207 0.85978 0.71695 0.0
S641 S 0.97511 0.91208 0.56243 0.0
N642 N 0.94736 0.89149 0.56677 0.0
N643 N 0.99092 0.91115 0.60685 0.0
C644 C 0.97358 0.89367 0.62771 0.0
C645 C 0.94996 0.88307 0.60588 0.0
C646 C 0.40727 0.70817 0.93748 0.0
C647 C 0.38963 0.72828 0.91912 0.0
C648 C 0.41699 0.6846 0.91595 0.0
C649 C 0.4097 0.68053 0.87518 0.0
H650 H 0.41489 0.71142 0.96799 0.0
H651 H 0.43205 0.67076 0.93029 0.0
S652 S 0.36132 0.72434 0.81439 0.0
N653 N 0.3627 0.74021 0.85874 0.0
N654 N 0.38182 0.69655 0.81844 0.0
C655 C 0.39058 0.69918 0.85739 0.0
C656 C 0.38027 0.72285 0.87934 0.0
C657 C 0.58889 0.16872 0.16379 0.0
C658 C 0.59287 0.16147 0.12299 0.0
C659 C 0.56547 0.15879 0.1855 0.0
C660 C 0.54541 0.14098 0.16727 0.0
H661 H 0.6027 0.18388 0.17805 0.0
H662 H 0.56228 0.16638 0.21603 0.0
S663 S 0.54919 0.11271 0.06249 0.0
N664 N 0.57684 0.13348 0.06634 0.0
N665 N 0.53347 0.11394 0.10695 0.0
C666 C 0.55076 0.13168 0.12744 0.0
C667 C 0.57429 0.14221 0.10532 0.0
C668 C 0.12874 0.70262 0.15983 0.0
C669 C 0.11185 0.68194 0.14174 0.0
C670 C 0.13909 0.72539 0.13747 0.0
C671 C 0.13229 0.72887 0.09627 0.0
H672 H 0.13281 0.70196 0.19207 0.0
H673 H 0.15085 0.74139 0.1535 0.0
S674 S 0.09111 0.67879 0.0338 0.0
N675 N 0.09095 0.66475 0.0795 0.0
N676 N 0.10973 0.708 0.03744 0.0
C677 C 0.11689 0.70732 0.0772 0.0
C678 C 0.10684 0.68374 0.09994 0.0
C679 C 0.56591 0.86612 0.32987 0.0
C680 C 0.54578 0.88369 0.34832 0.0
C681 C 0.58935 0.85617 0.35147 0.0
C682 C 0.59325 0.86314 0.39239 0.0
H683 H 0.56278 0.85876 0.2992 0.0
H684 H 0.60324 0.84122 0.337 0.0
S685 S 0.5492 0.91105 0.45361 0.0
N686 N 0.53356 0.91009 0.40907 0.0
N687 N 0.57698 0.89054 0.44947 0.0
C688 C 0.57454 0.88212 0.41033 0.0
C689 C 0.551 0.89268 0.38832 0.0
C690 C 0.4086 0.31567 0.57918 0.0
C691 C 0.39079 0.29558 0.59736 0.0
C692 C 0.41852 0.33907 0.60094 0.0
C693 C 0.41126 0.343 0.64175 0.0
H694 H 0.41617 0.31252 0.54863 0.0
H695 H 0.43366 0.35291 0.58671 0.0
S696 S 0.36256 0.29922 0.70217 0.0
N697 N 0.36378 0.28355 0.65767 0.0
N698 N 0.38331 0.32689 0.69837 0.0
C699 C 0.39204 0.32437 0.65939 0.0
C700 C 0.38151 0.30087 0.63722 0.0
C701 C 0.95855 0.15719 0.83012 0.0
C702 C 0.97893 0.13994 0.84862 0.0
C703 C 0.935 0.16688 0.85171 0.0
C704 C 0.93122 0.15995 0.89266 0.0
H705 H 0.96156 0.16454 0.79941 0.0
H706 H 0.92092 0.18163 0.83719 0.0
S707 S 0.97585 0.11264 0.95396 0.0
N708 N 0.99147 0.11375 0.90941 0.0
N709 N 0.94782 0.1328 0.94979 0.0
C710 C 0.95016 0.14121 0.91064 0.0
C711 C 0.97382 0.13093 0.88864 0.0
C712 C 0.91706 0.68488 0.60285 0.0
C713 C 0.91 0.68105 0.64375 0.0
C714 C 0.90735 0.70841 0.58123 0.0
C715 C 0.88997 0.72872 0.59964 0.0
H716 H 0.93191 0.67086 0.58842 0.0
H717 H 0.91478 0.71146 0.55058 0.0
S718 S 0.86234 0.72547 0.7048 0.0
N719 N 0.88263 0.69752 0.70073 0.0
N720 N 0.86353 0.74113 0.66028 0.0
C721 C 0.88085 0.72356 0.6396 0.0
C722 C 0.89115 0.69992 0.66164 0.0
C723 C 0.06594 0.15747 0.32972 0.0
C724 C 0.04577 0.13994 0.34827 0.0
C725 C 0.08937 0.16752 0.35129 0.0
C726 C 0.09324 0.1607 0.39227 0.0
H727 H 0.06284 0.16473 0.299 0.0
H728 H 0.10328 0.18245 0.33673 0.0
S729 S 0.0492 0.11281 0.45368 0.0
N730 N 0.03357 0.11364 0.40913 0.0
N731 N 0.07697 0.13338 0.44946 0.0
C732 C 0.07453 0.14172 0.41029 0.0
C733 C 0.051 0.13105 0.38832 0.0
C734 C 0.61588 0.31677 0.07965 0.0
C735 C 0.63355 0.29658 0.09777 0.0
C736 C 0.60608 0.34016 0.1015 0.0
C737 C 0.6133 0.34396 0.14235 0.0
H738 H 0.60831 0.31372 0.04907 0.0
H739 H 0.59102 0.35408 0.08731 0.0
S740 S 0.66167 0.29982 0.20265 0.0
N741 N 0.6604 0.28427 0.15806 0.0
N742 N 0.6411 0.32759 0.19895 0.0
C743 C 0.63241 0.32522 0.15993 0.0
C744 C 0.64282 0.30173 0.13766 0.0
C745 C 0.4515 0.87975 0.90964 0.0
C746 C 0.43091 0.86271 0.89163 0.0
C747 C 0.4743 0.89004 0.88729 0.0
C748 C 0.47793 0.88298 0.8462 0.0
H749 H 0.45074 0.88398 0.94184 0.0
H750 H 0.49023 0.90192 0.90327 0.0
S751 S 0.42816 0.84126 0.78396 0.0
N752 N 0.41397 0.84137 0.82957 0.0
N753 N 0.45729 0.85999 0.78754 0.0
C754 C 0.45647 0.86741 0.82719 0.0
C755 C 0.43286 0.85745 0.84991 0.0
C756 C 0.88446 0.29854 0.8789 0.0
C757 C 0.89125 0.29488 0.92008 0.0
C758 C 0.89469 0.32149 0.85682 0.0
C759 C 0.91143 0.34218 0.87517 0.0
H760 H 0.87281 0.28256 0.86268 0.0
H761 H 0.89064 0.3223 0.82458 0.0
S762 S 0.93205 0.34489 0.98317 0.0
N763 N 0.91362 0.31559 0.97918 0.0
N764 N 0.93217 0.35917 0.93763 0.0
C765 C 0.91642 0.34018 0.91696 0.0
C766 C 0.9065 0.31643 0.93941 0.0
C767 C 0.45839 0.15783 0.68526 0.0
C768 C 0.47863 0.14033 0.66693 0.0
C769 C 0.43494 0.16765 0.66355 0.0
C770 C 0.43113 0.16059 0.62264 0.0
H771 H 0.46144 0.16527 0.7159 0.0
H772 H 0.42099 0.18258 0.67791 0.0
S773 S 0.47538 0.11265 0.5618 0.0
N774 N 0.49098 0.11378 0.60637 0.0
N775 N 0.44755 0.1331 0.56575 0.0
C776 C 0.44992 0.14162 0.60484 0.0
C777 C 0.47347 0.1312 0.62697 0.0
C778 C 0.61579 0.70842 0.43752 0.0
C779 C 0.63404 0.72808 0.4193 0.0
C780 C 0.60572 0.68497 0.41602 0.0
C781 C 0.61329 0.68055 0.37543 0.0
H782 H 0.60792 0.71198 0.46783 0.0
H783 H 0.59021 0.67152 0.43021 0.0
S784 S 0.6635 0.72285 0.31534 0.0
N785 N 0.662 0.73901 0.35946 0.0
N786 N 0.64221 0.69559 0.31919 0.0
C787 C 0.63305 0.69866 0.35788 0.0
C788 C 0.64371 0.72222 0.37981 0.0
C789 C 0.07162 0.87981 0.10599 0.0
C790 C 0.09231 0.86308 0.12428 0.0
C791 C 0.04867 0.88995 0.12812 0.0
C792 C 0.04503 0.88307 0.16927 0.0
H793 H 0.07241 0.88388 0.07376 0.0
H794 H 0.03266 0.90156 0.11195 0.0
S795 S 0.09508 0.84233 0.23223 0.0
N796 N 0.10935 0.84231 0.18667 0.0
N797 N 0.06577 0.86069 0.2283 0.0
C798 C 0.0666 0.86787 0.18855 0.0
C799 C 0.09035 0.85805 0.16606 0.0
C800 C 0.63952 0.7999 0.87942 0.0
C801 C 0.63246 0.79621 0.9205 0.0
C802 C 0.62929 0.82275 0.85715 0.0
C803 C 0.61228 0.8433 0.87522 0.0
H804 H 0.65136 0.784 0.86338 0.0
H805 H 0.63353 0.82355 0.82496 0.0
S806 S 0.5909 0.84593 0.98292 0.0
N807 N 0.60956 0.81679 0.97924 0.0
N808 N 0.59101 0.86017 0.93735 0.0
C809 C 0.60704 0.84131 0.91694 0.0
C810 C 0.61696 0.81766 0.93958 0.0
C811 C 0.45847 0.36607 0.1867 0.0
C812 C 0.47834 0.38422 0.16874 0.0
C813 C 0.43505 0.35621 0.16493 0.0
C814 C 0.43088 0.36388 0.12433 0.0
H815 H 0.46181 0.35817 0.21704 0.0
H816 H 0.42141 0.34079 0.17893 0.0
S817 S 0.47397 0.41364 0.06467 0.0
N818 N 0.48986 0.41204 0.10898 0.0
N819 N 0.4465 0.39261 0.06823 0.0
C820 C 0.44926 0.38346 0.10697 0.0
C821 C 0.47278 0.39393 0.12917 0.0
C822 C 0.88417 0.22416 0.37848 0.0
C823 C 0.89111 0.22802 0.41958 0.0
C824 C 0.89445 0.20121 0.35649 0.0
C825 C 0.91136 0.18071 0.37487 0.0
H826 H 0.87241 0.24001 0.36223 0.0
H827 H 0.89034 0.20027 0.32427 0.0
S828 S 0.93241 0.17853 0.48272 0.0
N829 N 0.91379 0.20767 0.47866 0.0
N830 N 0.93242 0.16409 0.43728 0.0
C831 C 0.91648 0.18288 0.4166 0.0
C832 C 0.90652 0.20664 0.43896 0.0
C833 C 0.08847 0.66767 0.66631 0.0
C834 C 0.09249 0.66049 0.6255 0.0
C835 C 0.06498 0.65778 0.6879 0.0
C836 C 0.04488 0.64009 0.66954 0.0
H837 H 0.10232 0.68274 0.68069 0.0
H838 H 0.06178 0.66531 0.71847 0.0
S839 S 0.0487 0.61204 0.56464 0.0
N840 N 0.07643 0.63269 0.56868 0.0
N841 N 0.03291 0.61324 0.60906 0.0
C842 C 0.05025 0.63086 0.62968 0.0
C843 C 0.07384 0.64135 0.60768 0.0
C844 C 0.61621 0.20877 0.57935 0.0
C845 C 0.63402 0.22882 0.59761 0.0
C846 C 0.60635 0.18528 0.60098 0.0
C847 C 0.61367 0.18121 0.64174 0.0
H848 H 0.60857 0.21202 0.54885 0.0
H849 H 0.59118 0.17149 0.5867 0.0
S850 S 0.66242 0.22486 0.7023 0.0
N851 N 0.66111 0.24068 0.65791 0.0
N852 N 0.6417 0.19718 0.69837 0.0
C853 C 0.63291 0.1998 0.65944 0.0
C854 C 0.64338 0.22339 0.63739 0.0
C855 C 0.0494 0.39038 0.8868 0.0
C856 C 0.04554 0.38349 0.84569 0.0
C857 C 0.07244 0.38023 0.90871 0.0
C858 C 0.09303 0.36346 0.89023 0.0
H859 H 0.0335 0.40203 0.90313 0.0
H860 H 0.07339 0.38432 0.94092 0.0
S861 S 0.09524 0.34263 0.78229 0.0
N862 N 0.06598 0.36104 0.78648 0.0
N863 N 0.10973 0.34263 0.8277 0.0
C864 C 0.09085 0.3584 0.84849 0.0
C865 C 0.067 0.36825 0.82621 0.0
C866 C 0.90676 0.81549 0.0799 0.0
C867 C 0.88924 0.79529 0.09837 0.0
C868 C 0.91669 0.83897 0.1015 0.0
C869 C 0.90976 0.84284 0.14245 0.0
H870 H 0.9141 0.8124 0.04922 0.0
H871 H 0.93161 0.85291 0.08701 0.0
S872 S 0.86186 0.79868 0.20367 0.0
N873 N 0.86283 0.78303 0.15913 0.0
N874 N 0.88237 0.8265 0.19953 0.0
C875 C 0.8908 0.82407 0.1604 0.0
C876 C 0.88025 0.8005 0.13839 0.0
C877 C 0.45059 0.64592 0.41044 0.0
C878 C 0.43035 0.66322 0.39222 0.0
C879 C 0.47346 0.63553 0.3884 0.0
C880 C 0.47749 0.64272 0.34744 0.0
H881 H 0.4495 0.64155 0.44257 0.0
H882 H 0.48912 0.62342 0.40452 0.0
S883 S 0.42875 0.68522 0.28475 0.0
N884 N 0.41418 0.68503 0.3301 0.0
N885 N 0.45762 0.66619 0.28864 0.0
C886 C 0.45638 0.65859 0.32821 0.0
C887 C 0.4327 0.66867 0.3506 0.0
C888 C 0.41787 0.18551 0.10049 0.0
C889 C 0.4105 0.18143 0.14123 0.0
C890 C 0.40804 0.20898 0.07886 0.0
C891 C 0.39022 0.22899 0.0971 0.0
H892 H 0.43304 0.17175 0.08625 0.0
H893 H 0.41571 0.21226 0.04838 0.0
S894 S 0.36169 0.22496 0.20171 0.0
N895 N 0.38241 0.19731 0.19782 0.0
N896 N 0.36306 0.24079 0.15733 0.0
C897 C 0.3808 0.22354 0.13685 0.0
C898 C 0.39123 0.19996 0.1589 0.0
C899 C 0.54845 0.63426 0.88784 0.0
C900 C 0.54466 0.64111 0.84671 0.0
C901 C 0.57129 0.64473 0.90992 0.0
C902 C 0.59173 0.66177 0.89159 0.0
H903 H 0.53262 0.6224 0.90405 0.0
H904 H 0.57217 0.64066 0.94215 0.0
S905 S 0.59413 0.68263 0.78368 0.0
N906 N 0.56506 0.66383 0.78765 0.0
N907 N 0.60844 0.68283 0.8292 0.0
C908 C 0.58966 0.6668 0.84983 0.0
C909 C 0.56602 0.65663 0.82738 0.0
C910 C 0.10644 0.83914 0.60113 0.0
C911 C 0.1138 0.84351 0.64181 0.0
C912 C 0.11621 0.81547 0.5799 0.0
C913 C 0.13392 0.79553 0.5985 0.0
H914 H 0.09132 0.85284 0.58665 0.0
H915 H 0.10854 0.81199 0.54946 0.0
S916 S 0.16244 0.80032 0.70305 0.0
N917 N 0.14181 0.82799 0.69868 0.0
N918 N 0.16103 0.78413 0.65894 0.0
C919 C 0.14334 0.80126 0.63816 0.0
C920 C 0.13299 0.82505 0.6598 0.0
C921 C 0.95188 0.37956 0.40879 0.0
C922 C 0.93135 0.36264 0.3904 0.0
C923 C 0.97474 0.39003 0.38673 0.0
C924 C 0.97847 0.3833 0.34554 0.0
H925 H 0.95103 0.38357 0.44103 0.0
H926 H 0.99061 0.4018 0.40298 0.0
S927 S 0.92885 0.34209 0.28236 0.0
N928 N 0.91456 0.3418 0.32789 0.0
N929 N 0.95798 0.36079 0.28639 0.0
C930 C 0.95707 0.36787 0.32617 0.0
C931 C 0.9334 0.35771 0.34861 0.0
C932 C 0.39364 0.82372 0.35743 0.0
C933 C 0.41086 0.84418 0.37537 0.0
C934 C 0.38317 0.80104 0.37987 0.0
C935 C 0.39021 0.79742 0.42097 0.0
H936 H 0.38944 0.82444 0.32524 0.0
H937 H 0.37118 0.78517 0.36394 0.0
S938 S 0.43226 0.84702 0.48305 0.0
N939 N 0.43229 0.86111 0.43738 0.0
N940 N 0.4133 0.81802 0.47958 0.0
C941 C 0.40591 0.81881 0.43991 0.0
C942 C 0.41607 0.8423 0.41711 0.0
C943 C 0.97366 0.63418 0.13017 0.0
C944 C 0.97746 0.64148 0.17114 0.0
C945 C 0.95074 0.64424 0.10792 0.0
C946 C 0.93021 0.6613 0.12593 0.0
H947 H 0.98954 0.62228 0.11417 0.0
H948 H 0.94985 0.63986 0.07577 0.0
S949 S 0.92787 0.68334 0.23336 0.0
N950 N 0.95702 0.6647 0.22974 0.0
N951 N 0.91349 0.68292 0.18788 0.0
C952 C 0.93231 0.66679 0.16757 0.0
C953 C 0.95605 0.65705 0.19018 0.0
C954 C 0.14054 0.22551 0.87784 0.0
C955 C 0.1338 0.22927 0.91902 0.0
C956 C 0.13023 0.20255 0.85586 0.0
C957 C 0.11346 0.18194 0.87433 0.0
H958 H 0.15219 0.24145 0.86153 0.0
H959 H 0.13419 0.20169 0.82361 0.0
S960 S 0.09293 0.17946 0.98237 0.0
N961 N 0.11144 0.2087 0.97824 0.0
N962 N 0.09274 0.1651 0.93688 0.0
C963 C 0.10853 0.18401 0.91612 0.0
C964 C 0.11853 0.20778 0.93847 0.0
C965 C 0.58949 0.35631 0.66481 0.0
C966 C 0.59362 0.36378 0.62413 0.0
C967 C 0.56605 0.36617 0.6865 0.0
C968 C 0.54611 0.38412 0.66836 0.0
H969 H 0.60318 0.34103 0.67897 0.0
H970 H 0.56274 0.35841 0.71692 0.0
S971 S 0.55034 0.41299 0.56396 0.0
N972 N 0.57788 0.39213 0.56773 0.0
N973 N 0.53448 0.41155 0.60831 0.0
C974 C 0.55163 0.39364 0.62868 0.0
C975 C 0.57517 0.38318 0.60658 0.0
C976 C 0.07582 0.48934 0.23721 0.0
C977 C 0.07729 0.48642 0.27956 0.0
C978 C 0.07569 0.51592 0.21869 0.0
C979 C 0.07701 0.54084 0.24163 0.0
H980 H 0.07394 0.47096 0.21808 0.0
H981 H 0.07372 0.51685 0.18609 0.0
S982 S 0.08389 0.54496 0.3534 0.0
N983 N 0.08212 0.51097 0.34378 0.0
N984 N 0.08187 0.56073 0.30905 0.0
C985 C 0.07969 0.53824 0.2839 0.0
C986 C 0.07983 0.51114 0.30281 0.0
C987 C 0.7654 0.82709 0.54789 0.0
C988 C 0.79039 0.82776 0.52502 0.0
C989 C 0.73886 0.82701 0.52926 0.0
C990 C 0.73603 0.82764 0.48686 0.0
H991 H 0.76626 0.82581 0.58057 0.0
H992 H 0.72043 0.82569 0.54838 0.0
S993 S 0.79476 0.83207 0.41301 0.0
N994 N 0.81043 0.83093 0.4575 0.0
N995 N 0.76075 0.83083 0.42256 0.0
C996 C 0.76082 0.82948 0.46362 0.0
C997 C 0.78788 0.82953 0.48264 0.0
C998 C 0.4477 0.4883 0.77986 0.0
C999 C 0.44637 0.48552 0.73749 0.0
C1000 C 0.44756 0.5148 0.79861 0.0
C1001 C 0.44609 0.53981 0.77587 0.0
H1002 H 0.44967 0.46985 0.79885 0.0
H1003 H 0.44943 0.51562 0.83122 0.0
S1004 S 0.43956 0.5443 0.66409 0.0
N1005 N 0.44155 0.51029 0.67345 0.0
N1006 N 0.4413 0.55991 0.70859 0.0
C1007 C 0.44357 0.53734 0.73357 0.0
C1008 C 0.44371 0.51032 0.71443 0.0
C1009 C 0.78517 0.1974 0.02828 0.0
C1010 C 0.78818 0.19656 0.98592 0.0
C1011 C 0.75855 0.19768 0.04668 0.0
C1012 C 0.73366 0.19715 0.0236 0.0
H1013 H 0.80354 0.19861 0.04756 0.0
H1014 H 0.75758 0.19909 0.07933 0.0
S1015 S 0.72972 0.19245 0.91159 0.0
N1016 N 0.7637 0.19337 0.92143 0.0
N1017 N 0.71387 0.19393 0.95593 0.0
C1018 C 0.73633 0.1952 0.98126 0.0
C1019 C 0.76347 0.19489 0.96247 0.0
C1020 C 0.9469 0.48833 0.73799 0.0
C1021 C 0.94568 0.4854 0.78034 0.0
C1022 C 0.94682 0.51491 0.71946 0.0
C1023 C 0.94552 0.53983 0.74242 0.0
H1024 H 0.94875 0.46996 0.71883 0.0
H1025 H 0.94861 0.51585 0.68685 0.0
S1026 S 0.93923 0.5439 0.85425 0.0
N1027 N 0.94108 0.50993 0.84462 0.0
N1028 N 0.94094 0.55969 0.80988 0.0
C1029 C 0.94308 0.53721 0.78471 0.0
C1030 C 0.94316 0.51011 0.80363 0.0
C1031 C 0.28545 0.19797 0.48598 0.0
C1032 C 0.2884 0.19697 0.52835 0.0
C1033 C 0.25886 0.19816 0.4675 0.0
C1034 C 0.23393 0.19738 0.4905 0.0
H1035 H 0.30384 0.19939 0.46678 0.0
H1036 H 0.25793 0.19971 0.43486 0.0
S1037 S 0.22985 0.19217 0.60245 0.0
N1038 N 0.26383 0.19335 0.59273 0.0
N1039 N 0.21406 0.19373 0.55808 0.0
C1040 C 0.23655 0.19526 0.53283 0.0
C1041 C 0.26366 0.19504 0.5517 0.0
C1042 C 0.57519 0.51565 0.299 0.0
C1043 C 0.57616 0.54067 0.27625 0.0
C1044 C 0.57554 0.48915 0.28027 0.0
C1045 C 0.57687 0.48639 0.2379 0.0
H1046 H 0.57338 0.51643 0.33163 0.0
H1047 H 0.57396 0.47067 0.29928 0.0
S1048 S 0.58235 0.54529 0.16443 0.0
N1049 N 0.58041 0.56086 0.20894 0.0
N1050 N 0.58106 0.51125 0.17381 0.0
C1051 C 0.579 0.51123 0.21481 0.0
C1052 C 0.57864 0.53826 0.23393 0.0
C1053 C 0.25855 0.82637 0.04842 0.0
C1054 C 0.23367 0.82785 0.02542 0.0
C1055 C 0.28516 0.8264 0.02998 0.0
C1056 C 0.28815 0.82793 0.98765 0.0
H1057 H 0.25756 0.82435 0.08102 0.0
H1058 H 0.30349 0.82439 0.04914 0.0
S1059 S 0.22976 0.83491 0.91366 0.0
N1060 N 0.21391 0.8329 0.95797 0.0
N1061 N 0.26371 0.83297 0.92337 0.0
C1062 C 0.26347 0.83062 0.96434 0.0
C1063 C 0.23635 0.83058 0.98316 0.0
C1064 C 0.57556 1.00921 0.79794 0.0
C1065 C 0.57712 0.98425 0.77511 0.0
C1066 C 0.57574 0.03577 0.77934 0.0
C1067 C 0.5775 0.03864 0.73701 0.0
H1068 H 0.57337 1.00832 0.83051 0.0
H1069 H 0.57367 0.05416 0.79838 0.0
S1070 S 0.58473 0.98001 0.66344 0.0
N1071 N 0.58246 0.9643 0.70782 0.0
N1072 N 0.58282 0.014 0.67294 0.0
C1073 C 0.58025 0.01389 0.71387 0.0
C1074 C 0.58006 0.98681 0.73286 0.0
C1075 C 0.26527 0.32729 0.04642 0.0
C1076 C 0.29029 0.32854 0.02368 0.0
C1077 C 0.23877 0.32735 0.02768 0.0
C1078 C 0.23601 0.32866 0.9853 0.0
H1079 H 0.26608 0.32544 0.07905 0.0
H1080 H 0.22032 0.32553 0.04667 0.0
S1081 S 0.29484 0.33501 0.91189 0.0
N1082 N 0.31044 0.33316 0.95639 0.0
N1083 N 0.26082 0.33327 0.92125 0.0
C1084 C 0.26083 0.33113 0.96224 0.0
C1085 C 0.28786 0.33107 0.98136 0.0
C1086 C 0.94771 0.01461 0.29783 0.0
C1087 C 0.94631 0.0396 0.27505 0.0
C1088 C 0.94764 0.98809 0.27913 0.0
C1089 C 0.94614 0.98529 0.23677 0.0
H1090 H 0.9497 0.01545 0.33043 0.0
H1091 H 0.94958 0.96966 0.29813 0.0
S1092 S 0.93936 0.04403 0.16332 0.0
N1093 N 0.94137 0.05967 0.20778 0.0
N1094 N 0.94121 1.01003 0.17272 0.0
C1095 C 0.94353 1.01008 0.21369 0.0
C1096 C 0.94362 0.03712 0.23277 0.0
C1097 C 0.26445 0.69871 0.46932 0.0
C1098 C 0.28946 0.69741 0.49206 0.0
C1099 C 0.23795 0.69825 0.48802 0.0
C1100 C 0.23518 0.69646 0.53036 0.0
H1101 H 0.26527 0.70092 0.43674 0.0
H1102 H 0.2195 0.70014 0.46905 0.0
S1103 S 0.29399 0.68976 0.6037 0.0
N1104 N 0.3096 0.69221 0.55926 0.0
N1105 N 0.25997 0.69134 0.59434 0.0
C1106 C 0.25999 0.69393 0.5534 0.0
C1107 C 0.28702 0.6944 0.53432 0.0
C1108 C 0.44757 0.03596 0.27857 0.0
C1109 C 0.44657 0.03884 0.2362 0.0
C1110 C 0.44773 1.0094 0.29715 0.0
C1111 C 0.4469 0.98444 0.27423 0.0
H1112 H 0.44903 0.05438 0.29772 0.0
H1113 H 0.44928 1.00852 0.32979 0.0
S1114 S 0.44164 0.98018 0.16229 0.0
N1115 N 0.44288 0.01418 0.17191 0.0
N1116 N 0.4432 0.96446 0.20672 0.0
C1117 C 0.44477 0.98699 0.23189 0.0
C1118 C 0.44459 0.01407 0.21293 0.0
C1119 C 0.78441 0.69748 0.98722 0.0
C1120 C 0.7873 0.69624 0.02958 0.0
C1121 C 0.75784 0.69771 0.96866 0.0
C1122 C 0.73289 0.69672 0.99157 0.0
H1123 H 0.80282 0.69908 0.96809 0.0
H1124 H 0.75695 0.69947 0.93603 0.0
S1125 S 0.72867 0.69072 0.10345 0.0
N1126 N 0.76267 0.6921 0.09383 0.0
N1127 N 0.71294 0.69254 0.05904 0.0
C1128 C 0.73545 0.69432 0.03389 0.0
C1129 C 0.76254 0.69408 0.05283 0.0
C1130 C 0.07772 0.01579 0.79709 0.0
C1131 C 0.07848 0.04078 0.77425 0.0
C1132 C 0.0777 0.98925 0.77844 0.0
C1133 C 0.07847 0.98644 0.73604 0.0
H1134 H 0.07632 0.01663 0.82976 0.0
H1135 H 0.0763 0.97082 0.79753 0.0
S1136 S 0.0832 0.04519 0.66227 0.0
N1137 N 0.0819 0.06085 0.70677 0.0
N1138 N 0.08192 1.01118 0.67179 0.0
C1139 C 0.08041 1.01123 0.71284 0.0
C1140 C 0.0804 0.03829 0.73187 0.0
C1141 C 0.73877 0.32621 0.48589 0.0
C1142 C 0.73598 0.32786 0.52824 0.0
C1143 C 0.76528 0.32602 0.46719 0.0
C1144 C 0.79029 0.32748 0.48994 0.0
H1145 H 0.72033 0.32423 0.46691 0.0
H1146 H 0.76611 0.32392 0.4346 0.0
S1147 S 0.79475 0.3348 0.60163 0.0
N1148 N 0.76074 0.33297 0.59225 0.0
N1149 N 0.81038 0.33262 0.55718 0.0
C1150 C 0.78782 0.33032 0.53221 0.0
C1151 C 0.76078 0.33051 0.5513 0.0
loop_
_geom_bond_atom_site_label_1
_geom_bond_atom_site_label_2
_geom_bond_distance
_geom_bond_site_symmetry_2
_ccdc_geom_bond_type
O0 Cd1 2.223 . S
O0 C8 1.315 1_455 S
Cd1 O0 2.223 . S
Cd1 O4 2.297 . S
Cd1 O5 2.439 . S
Cd1 O11 2.240 . S
Cd2 O3 2.248 . S
Cd2 O10 2.223 . S
Cd2 O12 2.297 . S
Cd2 O13 2.439 . S
O3 Cd2 2.248 . S
O3 C8 1.276 1_455 S
O4 Cd1 2.297 . S
O4 C6 1.247 . S
O5 Cd1 2.439 . S
O5 C6 1.208 . S
C6 O4 1.247 . S
C6 O5 1.208 . S
C7 O12 1.247 . S
C7 O13 1.208 . S
C8 O0 1.315 1_655 S
C8 O3 1.276 1_655 S
C9 O10 1.315 . S
C9 O11 1.279 . S
O10 Cd2 2.223 . S
O10 C9 1.315 . S
O11 Cd1 2.240 . S
O11 C9 1.279 . S
O12 Cd2 2.297 . S
O12 C7 1.247 . S
O13 Cd2 2.439 . S
O13 C7 1.208 . S
O14 Cd15 2.223 . S
O14 C22 1.315 . S
Cd15 O14 2.223 . S
Cd15 O18 2.297 . S
Cd15 O19 2.439 . S
Cd15 O25 2.240 . S
Cd16 O17 2.240 . S
Cd16 O24 2.223 . S
Cd16 O26 2.297 . S
Cd16 O27 2.439 . S
O17 Cd16 2.240 . S
O17 C22 1.279 . S
O18 Cd15 2.297 . S
O18 C20 1.247 . S
O19 Cd15 2.439 . S
O19 C20 1.208 . S
C20 O18 1.247 . S
C20 O19 1.208 . S
C21 O26 1.247 . S
C21 O27 1.208 . S
C22 O14 1.315 . S
C22 O17 1.279 . S
C23 O24 1.315 . S
C23 O25 1.279 . S
O24 Cd16 2.223 . S
O24 C23 1.315 . S
O25 Cd15 2.240 . S
O25 C23 1.279 . S
O26 Cd16 2.297 . S
O26 C21 1.247 . S
O27 Cd16 2.439 . S
O27 C21 1.208 . S
O28 Cd29 2.223 . S
O28 C36 1.315 . S
Cd29 O28 2.223 . S
Cd29 O32 2.297 . S
Cd29 O33 2.439 . S
Cd29 O39 2.240 . S
Cd30 O31 2.240 . S
Cd30 O38 2.223 . S
Cd30 O40 2.297 . S
Cd30 O41 2.439 . S
O31 Cd30 2.240 . S
O31 C36 1.279 . S
O32 Cd29 2.297 . S
O32 C34 1.247 . S
O33 Cd29 2.439 . S
O33 C34 1.208 . S
C34 O32 1.247 . S
C34 O33 1.208 . S
C35 O40 1.247 . S
C35 O41 1.208 . S
C36 O28 1.315 . S
C36 O31 1.279 . S
C37 O38 1.315 . S
C37 O39 1.279 . S
O38 Cd30 2.223 . S
O38 C37 1.315 . S
O39 Cd29 2.240 . S
O39 C37 1.279 . S
O40 Cd30 2.297 . S
O40 C35 1.247 . S
O41 Cd30 2.439 . S
O41 C35 1.208 . S
O42 Cd43 2.223 . S
O42 C50 1.315 . S
Cd43 O42 2.223 . S
Cd43 O46 2.297 . S
Cd43 O47 2.439 . S
Cd43 O53 2.240 . S
Cd44 O45 2.240 . S
Cd44 O52 2.223 . S
Cd44 O54 2.297 1_554 S
Cd44 O55 2.439 1_554 S
O45 Cd44 2.240 . S
O45 C50 1.279 . S
O46 Cd43 2.297 . S
O46 C48 1.247 . S
O47 Cd43 2.439 . S
O47 C48 1.208 . S
C48 O46 1.247 . S
C48 O47 1.208 . S
C49 O54 1.247 . S
C49 O55 1.208 . S
C50 O42 1.315 . S
C50 O45 1.279 . S
C51 O52 1.315 . S
C51 O53 1.279 . S
O52 Cd44 2.223 . S
O52 C51 1.315 . S
O53 Cd43 2.240 . S
O53 C51 1.279 . S
O54 Cd44 2.297 1_556 S
O54 C49 1.247 . S
O55 Cd44 2.439 1_556 S
O55 C49 1.208 . S
O56 Cd57 2.223 . S
O56 C64 1.315 1_455 S
Cd57 O56 2.223 . S
Cd57 O60 2.297 . S
Cd57 O61 2.439 . S
Cd57 O67 2.240 . S
Cd58 O59 2.248 . S
Cd58 O66 2.223 . S
Cd58 O68 2.297 . S
Cd58 O69 2.439 . S
O59 Cd58 2.248 . S
O59 C64 1.276 1_455 S
O60 Cd57 2.297 . S
O60 C62 1.247 . S
O61 Cd57 2.439 . S
O61 C62 1.208 . S
C62 O60 1.247 . S
C62 O61 1.208 . S
C63 O68 1.247 . S
C63 O69 1.208 . S
C64 O56 1.315 1_655 S
C64 O59 1.276 1_655 S
C65 O66 1.315 . S
C65 O67 1.279 . S
O66 Cd58 2.223 . S
O66 C65 1.315 . S
O67 Cd57 2.240 . S
O67 C65 1.279 . S
O68 Cd58 2.297 . S
O68 C63 1.247 . S
O69 Cd58 2.439 . S
O69 C63 1.208 . S
O70 Cd71 2.223 . S
O70 C78 1.315 . S
Cd71 O70 2.223 . S
Cd71 O74 2.297 . S
Cd71 O75 2.439 . S
Cd71 O81 2.240 . S
Cd72 O73 2.240 . S
Cd72 O80 2.223 . S
Cd72 O82 2.297 . S
Cd72 O83 2.439 . S
O73 Cd72 2.240 . S
O73 C78 1.279 . S
O74 Cd71 2.297 . S
O74 C76 1.247 . S
O75 Cd71 2.439 . S
O75 C76 1.208 . S
C76 O74 1.247 . S
C76 O75 1.208 . S
C77 O82 1.247 . S
C77 O83 1.208 . S
C78 O70 1.315 . S
C78 O73 1.279 . S
C79 O80 1.315 . S
C79 O81 1.279 . S
O80 Cd72 2.223 . S
O80 C79 1.315 . S
O81 Cd71 2.240 . S
O81 C79 1.279 . S
O82 Cd72 2.297 . S
O82 C77 1.247 . S
O83 Cd72 2.439 . S
O83 C77 1.208 . S
O84 Cd85 2.223 . S
O84 C92 1.315 . S
Cd85 O84 2.223 . S
Cd85 O88 2.297 . S
Cd85 O89 2.439 . S
Cd85 O95 2.240 . S
Cd86 O87 2.240 . S
Cd86 O94 2.223 . S
Cd86 O96 2.297 . S
Cd86 O97 2.439 . S
O87 Cd86 2.240 . S
O87 C92 1.279 . S
O88 Cd85 2.297 . S
O88 C90 1.247 . S
O89 Cd85 2.439 . S
O89 C90 1.208 . S
C90 O88 1.247 . S
C90 O89 1.208 . S
C91 O96 1.247 . S
C91 O97 1.208 . S
C92 O84 1.315 . S
C92 O87 1.279 . S
C93 O94 1.315 . S
C93 O95 1.279 . S
O94 Cd86 2.223 . S
O94 C93 1.315 . S
O95 Cd85 2.240 . S
O95 C93 1.279 . S
O96 Cd86 2.297 . S
O96 C91 1.247 . S
O97 Cd86 2.439 . S
O97 C91 1.208 . S
O98 Cd99 2.223 . S
O98 C106 1.315 . S
Cd99 O98 2.223 . S
Cd99 O102 2.297 . S
Cd99 O103 2.439 . S
Cd99 O109 2.240 . S
Cd100 O101 2.240 . S
Cd100 O108 2.223 . S
Cd100 O110 2.297 1_556 S
Cd100 O111 2.439 1_556 S
O101 Cd100 2.240 . S
O101 C106 1.279 . S
O102 Cd99 2.297 . S
O102 C104 1.247 . S
O103 Cd99 2.439 . S
O103 C104 1.208 . S
C104 O102 1.247 . S
C104 O103 1.208 . S
C105 O110 1.247 . S
C105 O111 1.208 . S
C106 O98 1.315 . S
C106 O101 1.279 . S
C107 O108 1.315 . S
C107 O109 1.279 . S
O108 Cd100 2.223 . S
O108 C107 1.315 . S
O109 Cd99 2.240 . S
O109 C107 1.279 . S
O110 Cd100 2.297 1_554 S
O110 C105 1.247 . S
O111 Cd100 2.439 1_554 S
O111 C105 1.208 . S
O112 Cd113 2.223 . S
O112 C120 1.315 1_655 S
Cd113 O112 2.223 . S
Cd113 O116 2.297 . S
Cd113 O117 2.439 . S
Cd113 O123 2.240 . S
Cd114 O115 2.248 . S
Cd114 O122 2.223 . S
Cd114 O124 2.297 . S
Cd114 O125 2.439 . S
O115 Cd114 2.248 . S
O115 C120 1.276 1_655 S
O116 Cd113 2.297 . S
O116 C118 1.247 . S
O117 Cd113 2.439 . S
O117 C118 1.208 . S
C118 O116 1.247 . S
C118 O117 1.208 . S
C119 O124 1.247 . S
C119 O125 1.208 . S
C120 O112 1.315 1_455 S
C120 O115 1.276 1_455 S
C121 O122 1.315 . S
C121 O123 1.279 . S
O122 Cd114 2.223 . S
O122 C121 1.315 . S
O123 Cd113 2.240 . S
O123 C121 1.279 . S
O124 Cd114 2.297 . S
O124 C119 1.247 . S
O125 Cd114 2.439 . S
O125 C119 1.208 . S
O126 Cd127 2.223 . S
O126 C134 1.315 . S
Cd127 O126 2.223 . S
Cd127 O130 2.297 . S
Cd127 O131 2.439 . S
Cd127 O137 2.240 . S
Cd128 O129 2.240 . S
Cd128 O136 2.223 . S
Cd128 O138 2.297 . S
Cd128 O139 2.439 . S
O129 Cd128 2.240 . S
O129 C134 1.279 . S
O130 Cd127 2.297 . S
O130 C132 1.247 . S
O131 Cd127 2.439 . S
O131 C132 1.208 . S
C132 O130 1.247 . S
C132 O131 1.208 . S
C133 O138 1.247 . S
C133 O139 1.208 . S
C134 O126 1.315 . S
C134 O129 1.279 . S
C135 O136 1.315 . S
C135 O137 1.279 . S
O136 Cd128 2.223 . S
O136 C135 1.315 . S
O137 Cd127 2.240 . S
O137 C135 1.279 . S
O138 Cd128 2.297 . S
O138 C133 1.247 . S
O139 Cd128 2.439 . S
O139 C133 1.208 . S
O140 Cd141 2.223 . S
O140 C148 1.315 . S
Cd141 O140 2.223 . S
Cd141 O144 2.297 . S
Cd141 O145 2.439 . S
Cd141 O151 2.240 . S
Cd142 O143 2.240 . S
Cd142 O150 2.223 . S
Cd142 O152 2.297 . S
Cd142 O153 2.439 . S
O143 Cd142 2.240 . S
O143 C148 1.279 . S
O144 Cd141 2.297 . S
O144 C146 1.247 . S
O145 Cd141 2.439 . S
O145 C146 1.208 . S
C146 O144 1.247 . S
C146 O145 1.208 . S
C147 O152 1.247 . S
C147 O153 1.208 . S
C148 O140 1.315 . S
C148 O143 1.279 . S
C149 O150 1.315 . S
C149 O151 1.279 . S
O150 Cd142 2.223 . S
O150 C149 1.315 . S
O151 Cd141 2.240 . S
O151 C149 1.279 . S
O152 Cd142 2.297 . S
O152 C147 1.247 . S
O153 Cd142 2.439 . S
O153 C147 1.208 . S
O154 Cd155 2.223 . S
O154 C162 1.315 . S
Cd155 O154 2.223 . S
Cd155 O158 2.297 . S
Cd155 O159 2.439 . S
Cd155 O165 2.240 . S
Cd156 O157 2.240 . S
Cd156 O164 2.223 . S
Cd156 O166 2.297 1_556 S
Cd156 O167 2.439 1_556 S
O157 Cd156 2.240 . S
O157 C162 1.279 . S
O158 Cd155 2.297 . S
O158 C160 1.247 . S
O159 Cd155 2.439 . S
O159 C160 1.208 . S
C160 O158 1.247 . S
C160 O159 1.208 . S
C161 O166 1.247 . S
C161 O167 1.208 . S
C162 O154 1.315 . S
C162 O157 1.279 . S
C163 O164 1.315 . S
C163 O165 1.279 . S
O164 Cd156 2.223 . S
O164 C163 1.315 . S
O165 Cd155 2.240 . S
O165 C163 1.279 . S
O166 Cd156 2.297 1_554 S
O166 C161 1.247 . S
O167 Cd156 2.439 1_554 S
O167 C161 1.208 . S
O168 Cd169 2.223 . S
O168 C176 1.315 1_655 S
Cd169 O168 2.223 . S
Cd169 O172 2.297 . S
Cd169 O173 2.439 . S
Cd169 O179 2.240 . S
Cd170 O171 2.248 . S
Cd170 O178 2.223 . S
Cd170 O180 2.297 . S
Cd170 O181 2.439 . S
O171 Cd170 2.248 . S
O171 C176 1.276 1_655 S
O172 Cd169 2.297 . S
O172 C174 1.247 . S
O173 Cd169 2.439 . S
O173 C174 1.208 . S
C174 O172 1.247 . S
C174 O173 1.208 . S
C175 O180 1.247 . S
C175 O181 1.208 . S
C176 O168 1.315 1_455 S
C176 O171 1.276 1_455 S
C177 O178 1.315 . S
C177 O179 1.279 . S
O178 Cd170 2.223 . S
O178 C177 1.315 . S
O179 Cd169 2.240 . S
O179 C177 1.279 . S
O180 Cd170 2.297 . S
O180 C175 1.247 . S
O181 Cd170 2.439 . S
O181 C175 1.208 . S
O182 Cd183 2.223 . S
O182 C190 1.315 . S
Cd183 O182 2.223 . S
Cd183 O186 2.297 . S
Cd183 O187 2.439 . S
Cd183 O193 2.240 . S
Cd184 O185 2.240 . S
Cd184 O192 2.223 . S
Cd184 O194 2.297 . S
Cd184 O195 2.439 . S
O185 Cd184 2.240 . S
O185 C190 1.279 . S
O186 Cd183 2.297 . S
O186 C188 1.247 . S
O187 Cd183 2.439 . S
O187 C188 1.208 . S
C188 O186 1.247 . S
C188 O187 1.208 . S
C189 O194 1.247 . S
C189 O195 1.208 . S
C190 O182 1.315 . S
C190 O185 1.279 . S
C191 O192 1.315 . S
C191 O193 1.279 . S
O192 Cd184 2.223 . S
O192 C191 1.315 . S
O193 Cd183 2.240 . S
O193 C191 1.279 . S
O194 Cd184 2.297 . S
O194 C189 1.247 . S
O195 Cd184 2.439 . S
O195 C189 1.208 . S
O196 Cd197 2.223 . S
O196 C204 1.315 . S
Cd197 O196 2.223 . S
Cd197 O200 2.297 . S
Cd197 O201 2.439 . S
Cd197 O207 2.240 . S
Cd198 O199 2.240 . S
Cd198 O206 2.223 . S
Cd198 O208 2.297 . S
Cd198 O209 2.439 . S
O199 Cd198 2.240 . S
O199 C204 1.279 . S
O200 Cd197 2.297 . S
O200 C202 1.247 . S
O201 Cd197 2.439 . S
O201 C202 1.208 . S
C202 O200 1.247 . S
C202 O201 1.208 . S
C203 O208 1.247 . S
C203 O209 1.208 . S
C204 O196 1.315 . S
C204 O199 1.279 . S
C205 O206 1.315 . S
C205 O207 1.279 . S
O206 Cd198 2.223 . S
O206 C205 1.315 . S
O207 Cd197 2.240 . S
O207 C205 1.279 . S
O208 Cd198 2.297 . S
O208 C203 1.247 . S
O209 Cd198 2.439 . S
O209 C203 1.208 . S
O210 Cd211 2.223 . S
O210 C218 1.315 . S
Cd211 O210 2.223 . S
Cd211 O214 2.297 . S
Cd211 O215 2.439 . S
Cd211 O221 2.240 . S
Cd212 O213 2.240 . S
Cd212 O220 2.223 . S
Cd212 O222 2.297 1_554 S
Cd212 O223 2.439 1_554 S
O213 Cd212 2.240 . S
O213 C218 1.279 . S
O214 Cd211 2.297 . S
O214 C216 1.247 . S
O215 Cd211 2.439 . S
O215 C216 1.208 . S
C216 O214 1.247 . S
C216 O215 1.208 . S
C217 O222 1.247 . S
C217 O223 1.208 . S
C218 O210 1.315 . S
C218 O213 1.279 . S
C219 O220 1.315 . S
C219 O221 1.279 . S
O220 Cd212 2.223 . S
O220 C219 1.315 . S
O221 Cd211 2.240 . S
O221 C219 1.279 . S
O222 Cd212 2.297 1_556 S
O222 C217 1.247 . S
O223 Cd212 2.439 1_556 S
O223 C217 1.208 . S
O224 Cd225 2.223 . S
O224 C232 1.315 . S
Cd225 O224 2.223 . S
Cd225 O228 2.297 . S
Cd225 O229 2.439 . S
Cd225 O235 2.240 . S
Cd226 O227 2.240 . S
Cd226 O234 2.223 . S
Cd226 O236 2.297 . S
Cd226 O237 2.439 . S
O227 Cd226 2.240 . S
O227 C232 1.279 . S
O228 Cd225 2.297 . S
O228 C230 1.247 . S
O229 Cd225 2.439 . S
O229 C230 1.208 . S
C230 O228 1.247 . S
C230 O229 1.208 . S
C231 O236 1.247 . S
C231 O237 1.208 . S
C232 O224 1.315 . S
C232 O227 1.279 . S
C233 O234 1.315 . S
C233 O235 1.279 . S
O234 Cd226 2.223 . S
O234 C233 1.315 . S
O235 Cd225 2.240 . S
O235 C233 1.279 . S
O236 Cd226 2.297 . S
O236 C231 1.247 . S
O237 Cd226 2.439 . S
O237 C231 1.208 . S
O238 Cd239 2.223 . S
O238 C246 1.315 . S
Cd239 O238 2.223 . S
Cd239 O242 2.297 . S
Cd239 O243 2.439 . S
Cd239 O249 2.240 . S
Cd240 O241 2.240 . S
Cd240 O248 2.223 . S
Cd240 O250 2.297 1_554 S
Cd240 O251 2.439 1_554 S
O241 Cd240 2.240 . S
O241 C246 1.279 . S
O242 Cd239 2.297 . S
O242 C244 1.247 . S
O243 Cd239 2.439 . S
O243 C244 1.208 . S
C244 O242 1.247 . S
C244 O243 1.208 . S
C245 O250 1.247 . S
C245 O251 1.208 . S
C246 O238 1.315 . S
C246 O241 1.279 . S
C247 O248 1.315 . S
C247 O249 1.279 . S
O248 Cd240 2.223 . S
O248 C247 1.315 . S
O249 Cd239 2.240 . S
O249 C247 1.279 . S
O250 Cd240 2.297 1_556 S
O250 C245 1.247 . S
O251 Cd240 2.439 1_556 S
O251 C245 1.208 . S
O252 Cd253 2.223 . S
O252 C260 1.315 1_655 S
Cd253 O252 2.223 . S
Cd253 O256 2.297 . S
Cd253 O257 2.439 . S
Cd253 O263 2.240 . S
Cd254 O255 2.248 . S
Cd254 O262 2.223 . S
Cd254 O264 2.297 . S
Cd254 O265 2.439 . S
O255 Cd254 2.248 . S
O255 C260 1.276 1_655 S
O256 Cd253 2.297 . S
O256 C258 1.247 . S
O257 Cd253 2.439 . S
O257 C258 1.208 . S
C258 O256 1.247 . S
C258 O257 1.208 . S
C259 O264 1.247 . S
C259 O265 1.208 . S
C260 O252 1.315 1_455 S
C260 O255 1.276 1_455 S
C261 O262 1.315 . S
C261 O263 1.279 . S
O262 Cd254 2.223 . S
O262 C261 1.315 . S
O263 Cd253 2.240 . S
O263 C261 1.279 . S
O264 Cd254 2.297 . S
O264 C259 1.247 . S
O265 Cd254 2.439 . S
O265 C259 1.208 . S
O266 Cd267 2.223 . S
O266 C274 1.315 . S
Cd267 O266 2.223 . S
Cd267 O270 2.297 . S
Cd267 O271 2.439 . S
Cd267 O277 2.240 . S
Cd268 O269 2.240 . S
Cd268 O276 2.223 . S
Cd268 O278 2.297 . S
Cd268 O279 2.439 . S
O269 Cd268 2.240 . S
O269 C274 1.279 . S
O270 Cd267 2.297 . S
O270 C272 1.247 . S
O271 Cd267 2.439 . S
O271 C272 1.208 . S
C272 O270 1.247 . S
C272 O271 1.208 . S
C273 O278 1.247 . S
C273 O279 1.208 . S
C274 O266 1.315 . S
C274 O269 1.279 . S
C275 O276 1.315 . S
C275 O277 1.279 . S
O276 Cd268 2.223 . S
O276 C275 1.315 . S
O277 Cd267 2.240 . S
O277 C275 1.279 . S
O278 Cd268 2.297 . S
O278 C273 1.247 . S
O279 Cd268 2.439 . S
O279 C273 1.208 . S
O280 Cd281 2.223 . S
O280 C288 1.315 . S
Cd281 O280 2.223 . S
Cd281 O284 2.297 . S
Cd281 O285 2.439 . S
Cd281 O291 2.240 . S
Cd282 O283 2.240 . S
Cd282 O290 2.223 . S
Cd282 O292 2.297 . S
Cd282 O293 2.439 . S
O283 Cd282 2.240 . S
O283 C288 1.279 . S
O284 Cd281 2.297 . S
O284 C286 1.247 . S
O285 Cd281 2.439 . S
O285 C286 1.208 . S
C286 O284 1.247 . S
C286 O285 1.208 . S
C287 O292 1.247 . S
C287 O293 1.208 . S
C288 O280 1.315 . S
C288 O283 1.279 . S
C289 O290 1.315 . S
C289 O291 1.279 . S
O290 Cd282 2.223 . S
O290 C289 1.315 . S
O291 Cd281 2.240 . S
O291 C289 1.279 . S
O292 Cd282 2.297 . S
O292 C287 1.247 . S
O293 Cd282 2.439 . S
O293 C287 1.208 . S
O294 Cd295 2.223 . S
O294 C302 1.315 . S
Cd295 O294 2.223 . S
Cd295 O298 2.297 . S
Cd295 O299 2.439 . S
Cd295 O305 2.240 . S
Cd296 O297 2.240 . S
Cd296 O304 2.223 . S
Cd296 O306 2.297 1_556 S
Cd296 O307 2.439 1_556 S
O297 Cd296 2.240 . S
O297 C302 1.279 . S
O298 Cd295 2.297 . S
O298 C300 1.247 . S
O299 Cd295 2.439 . S
O299 C300 1.208 . S
C300 O298 1.247 . S
C300 O299 1.208 . S
C301 O306 1.247 . S
C301 O307 1.208 . S
C302 O294 1.315 . S
C302 O297 1.279 . S
C303 O304 1.315 . S
C303 O305 1.279 . S
O304 Cd296 2.223 . S
O304 C303 1.315 . S
O305 Cd295 2.240 . S
O305 C303 1.279 . S
O306 Cd296 2.297 1_554 S
O306 C301 1.247 . S
O307 Cd296 2.439 1_554 S
O307 C301 1.208 . S
O308 Cd309 2.223 . S
O308 C316 1.315 1_655 S
Cd309 O308 2.223 . S
Cd309 O312 2.297 . S
Cd309 O313 2.439 . S
Cd309 O319 2.240 . S
Cd310 O311 2.248 . S
Cd310 O318 2.223 . S
Cd310 O320 2.297 . S
Cd310 O321 2.439 . S
O311 Cd310 2.248 . S
O311 C316 1.276 1_655 S
O312 Cd309 2.297 . S
O312 C314 1.247 . S
O313 Cd309 2.439 . S
O313 C314 1.208 . S
C314 O312 1.247 . S
C314 O313 1.208 . S
C315 O320 1.247 . S
C315 O321 1.208 . S
C316 O308 1.315 1_455 S
C316 O311 1.276 1_455 S
C317 O318 1.315 . S
C317 O319 1.279 . S
O318 Cd310 2.223 . S
O318 C317 1.315 . S
O319 Cd309 2.240 . S
O319 C317 1.279 . S
O320 Cd310 2.297 . S
O320 C315 1.247 . S
O321 Cd310 2.439 . S
O321 C315 1.208 . S
O322 Cd323 2.223 . S
O322 C330 1.315 . S
Cd323 O322 2.223 . S
Cd323 O326 2.297 . S
Cd323 O327 2.439 . S
Cd323 O333 2.240 . S
Cd324 O325 2.240 . S
Cd324 O332 2.223 . S
Cd324 O334 2.297 . S
Cd324 O335 2.439 . S
O325 Cd324 2.240 . S
O325 C330 1.279 . S
O326 Cd323 2.297 . S
O326 C328 1.247 . S
O327 Cd323 2.439 . S
O327 C328 1.208 . S
C328 O326 1.247 . S
C328 O327 1.208 . S
C329 O334 1.247 . S
C329 O335 1.208 . S
C330 O322 1.315 . S
C330 O325 1.279 . S
C331 O332 1.315 . S
C331 O333 1.279 . S
O332 Cd324 2.223 . S
O332 C331 1.315 . S
O333 Cd323 2.240 . S
O333 C331 1.279 . S
O334 Cd324 2.297 . S
O334 C329 1.247 . S
O335 Cd324 2.439 . S
O335 C329 1.208 . S
O336 Cd337 2.223 . S
O336 C344 1.315 . S
Cd337 O336 2.223 . S
Cd337 O340 2.297 . S
Cd337 O341 2.439 . S
Cd337 O347 2.240 . S
Cd338 O339 2.240 . S
Cd338 O346 2.223 . S
Cd338 O348 2.297 . S
Cd338 O349 2.439 . S
O339 Cd338 2.240 . S
O339 C344 1.279 . S
O340 Cd337 2.297 . S
O340 C342 1.247 . S
O341 Cd337 2.439 . S
O341 C342 1.208 . S
C342 O340 1.247 . S
C342 O341 1.208 . S
C343 O348 1.247 . S
C343 O349 1.208 . S
C344 O336 1.315 . S
C344 O339 1.279 . S
C345 O346 1.315 . S
C345 O347 1.279 . S
O346 Cd338 2.223 . S
O346 C345 1.315 . S
O347 Cd337 2.240 . S
O347 C345 1.279 . S
O348 Cd338 2.297 . S
O348 C343 1.247 . S
O349 Cd338 2.439 . S
O349 C343 1.208 . S
O350 Cd351 2.223 . S
O350 C358 1.315 . S
Cd351 O350 2.223 . S
Cd351 O354 2.297 . S
Cd351 O355 2.439 . S
Cd351 O361 2.240 . S
Cd352 O353 2.240 . S
Cd352 O360 2.223 . S
Cd352 O362 2.297 1_556 S
Cd352 O363 2.439 1_556 S
O353 Cd352 2.240 . S
O353 C358 1.279 . S
O354 Cd351 2.297 . S
O354 C356 1.247 . S
O355 Cd351 2.439 . S
O355 C356 1.208 . S
C356 O354 1.247 . S
C356 O355 1.208 . S
C357 O362 1.247 . S
C357 O363 1.208 . S
C358 O350 1.315 . S
C358 O353 1.279 . S
C359 O360 1.315 . S
C359 O361 1.279 . S
O360 Cd352 2.223 . S
O360 C359 1.315 . S
O361 Cd351 2.240 . S
O361 C359 1.279 . S
O362 Cd352 2.297 1_554 S
O362 C357 1.247 . S
O363 Cd352 2.439 1_554 S
O363 C357 1.208 . S
O364 Cd365 2.223 . S
O364 C372 1.315 1_455 S
Cd365 O364 2.223 . S
Cd365 O368 2.297 . S
Cd365 O369 2.439 . S
Cd365 O375 2.240 . S
Cd366 O367 2.248 . S
Cd366 O374 2.223 . S
Cd366 O376 2.297 . S
Cd366 O377 2.439 . S
O367 Cd366 2.248 . S
O367 C372 1.276 1_455 S
O368 Cd365 2.297 . S
O368 C370 1.247 . S
O369 Cd365 2.439 . S
O369 C370 1.208 . S
C370 O368 1.247 . S
C370 O369 1.208 . S
C371 O376 1.247 . S
C371 O377 1.208 . S
C372 O364 1.315 1_655 S
C372 O367 1.276 1_655 S
C373 O374 1.315 . S
C373 O375 1.279 . S
O374 Cd366 2.223 . S
O374 C373 1.315 . S
O375 Cd365 2.240 . S
O375 C373 1.279 . S
O376 Cd366 2.297 . S
O376 C371 1.247 . S
O377 Cd366 2.439 . S
O377 C371 1.208 . S
O378 Cd379 2.223 . S
O378 C386 1.315 . S
Cd379 O378 2.223 . S
Cd379 O382 2.297 . S
Cd379 O383 2.439 . S
Cd379 O389 2.240 . S
Cd380 O381 2.240 . S
Cd380 O388 2.223 . S
Cd380 O390 2.297 . S
Cd380 O391 2.439 . S
O381 Cd380 2.240 . S
O381 C386 1.279 . S
O382 Cd379 2.297 . S
O382 C384 1.247 . S
O383 Cd379 2.439 . S
O383 C384 1.208 . S
C384 O382 1.247 . S
C384 O383 1.208 . S
C385 O390 1.247 . S
C385 O391 1.208 . S
C386 O378 1.315 . S
C386 O381 1.279 . S
C387 O388 1.315 . S
C387 O389 1.279 . S
O388 Cd380 2.223 . S
O388 C387 1.315 . S
O389 Cd379 2.240 . S
O389 C387 1.279 . S
O390 Cd380 2.297 . S
O390 C385 1.247 . S
O391 Cd380 2.439 . S
O391 C385 1.208 . S
O392 Cd393 2.223 . S
O392 C400 1.315 . S
Cd393 O392 2.223 . S
Cd393 O396 2.297 . S
Cd393 O397 2.439 . S
Cd393 O403 2.240 . S
Cd394 O395 2.240 . S
Cd394 O402 2.223 . S
Cd394 O404 2.297 . S
Cd394 O405 2.439 . S
O395 Cd394 2.240 . S
O395 C400 1.279 . S
O396 Cd393 2.297 . S
O396 C398 1.247 . S
O397 Cd393 2.439 . S
O397 C398 1.208 . S
C398 O396 1.247 . S
C398 O397 1.208 . S
C399 O404 1.247 . S
C399 O405 1.208 . S
C400 O392 1.315 . S
C400 O395 1.279 . S
C401 O402 1.315 . S
C401 O403 1.279 . S
O402 Cd394 2.223 . S
O402 C401 1.315 . S
O403 Cd393 2.240 . S
O403 C401 1.279 . S
O404 Cd394 2.297 . S
O404 C399 1.247 . S
O405 Cd394 2.439 . S
O405 C399 1.208 . S
O406 Cd407 2.223 . S
O406 C414 1.315 . S
Cd407 O406 2.223 . S
Cd407 O410 2.297 . S
Cd407 O411 2.439 . S
Cd407 O417 2.240 . S
Cd408 O409 2.240 . S
Cd408 O416 2.223 . S
Cd408 O418 2.297 1_554 S
Cd408 O419 2.439 1_554 S
O409 Cd408 2.240 . S
O409 C414 1.279 . S
O410 Cd407 2.297 . S
O410 C412 1.247 . S
O411 Cd407 2.439 . S
O411 C412 1.208 . S
C412 O410 1.247 . S
C412 O411 1.208 . S
C413 O418 1.247 . S
C413 O419 1.208 . S
C414 O406 1.315 . S
C414 O409 1.279 . S
C415 O416 1.315 . S
C415 O417 1.279 . S
O416 Cd408 2.223 . S
O416 C415 1.315 . S
O417 Cd407 2.240 . S
O417 C415 1.279 . S
O418 Cd408 2.297 1_556 S
O418 C413 1.247 . S
O419 Cd408 2.439 1_556 S
O419 C413 1.208 . S
O420 Cd421 2.223 . S
O420 C428 1.315 1_455 S
Cd421 O420 2.223 . S
Cd421 O424 2.297 . S
Cd421 O425 2.439 . S
Cd421 O431 2.240 . S
Cd422 O423 2.248 . S
Cd422 O430 2.223 . S
Cd422 O432 2.297 . S
Cd422 O433 2.439 . S
O423 Cd422 2.248 . S
O423 C428 1.276 1_455 S
O424 Cd421 2.297 . S
O424 C426 1.247 . S
O425 Cd421 2.439 . S
O425 C426 1.208 . S
C426 O424 1.247 . S
C426 O425 1.208 . S
C427 O432 1.247 . S
C427 O433 1.208 . S
C428 O420 1.315 1_655 S
C428 O423 1.276 1_655 S
C429 O430 1.315 . S
C429 O431 1.279 . S
O430 Cd422 2.223 . S
O430 C429 1.315 . S
O431 Cd421 2.240 . S
O431 C429 1.279 . S
O432 Cd422 2.297 . S
O432 C427 1.247 . S
O433 Cd422 2.439 . S
O433 C427 1.208 . S
O434 Cd435 2.223 . S
O434 C442 1.315 . S
Cd435 O434 2.223 . S
Cd435 O438 2.297 . S
Cd435 O439 2.439 . S
Cd435 O445 2.240 . S
Cd436 O437 2.240 . S
Cd436 O444 2.223 . S
Cd436 O446 2.297 . S
Cd436 O447 2.439 . S
O437 Cd436 2.240 . S
O437 C442 1.279 . S
O438 Cd435 2.297 . S
O438 C440 1.247 . S
O439 Cd435 2.439 . S
O439 C440 1.208 . S
C440 O438 1.247 . S
C440 O439 1.208 . S
C441 O446 1.247 . S
C441 O447 1.208 . S
C442 O434 1.315 . S
C442 O437 1.279 . S
C443 O444 1.315 . S
C443 O445 1.279 . S
O444 Cd436 2.223 . S
O444 C443 1.315 . S
O445 Cd435 2.240 . S
O445 C443 1.279 . S
O446 Cd436 2.297 . S
O446 C441 1.247 . S
O447 Cd436 2.439 . S
O447 C441 1.208 . S
C448 C449 1.369 . S
C448 C450 1.419 . S
C448 H452 0.930 . S
C449 C448 1.369 . S
C449 C458 1.429 . S
C450 C448 1.419 . S
C450 C451 1.363 . S
C450 H453 0.929 . S
C451 C450 1.363 . S
C451 C457 1.428 . S
H452 C448 0.930 . S
H453 C450 0.929 . S
S454 N455 1.613 . S
S454 N456 1.610 . S
N455 S454 1.613 . S
N455 C458 1.350 . S
N456 S454 1.610 . S
N456 C457 1.351 . S
C457 C451 1.428 . S
C457 N456 1.351 . S
C457 C458 1.434 . S
C458 C449 1.429 . S
C458 N455 1.350 . S
C458 C457 1.434 . S
C459 C460 1.369 . S
C459 C461 1.419 . S
C459 H463 0.930 . S
C460 C459 1.369 . S
C460 C469 1.429 . S
C461 C459 1.419 . S
C461 C462 1.363 . S
C461 H464 0.929 . S
C462 C461 1.363 . S
C462 C468 1.428 . S
H463 C459 0.930 . S
H464 C461 0.929 . S
S465 N466 1.613 . S
S465 N467 1.610 . S
N466 S465 1.613 . S
N466 C469 1.350 . S
N467 S465 1.610 . S
N467 C468 1.351 . S
C468 C462 1.428 . S
C468 N467 1.351 . S
C468 C469 1.434 . S
C469 C460 1.429 . S
C469 N466 1.350 . S
C469 C468 1.434 . S
C470 C471 1.369 . S
C470 C472 1.419 . S
C470 H474 0.930 . S
C471 C470 1.369 . S
C471 C480 1.429 . S
C472 C470 1.419 . S
C472 C473 1.363 . S
C472 H475 0.929 . S
C473 C472 1.363 . S
C473 C479 1.428 . S
H474 C470 0.930 . S
H475 C472 0.929 . S
S476 N477 1.613 . S
S476 N478 1.610 . S
N477 S476 1.613 . S
N477 C480 1.350 . S
N478 S476 1.610 . S
N478 C479 1.351 . S
C479 C473 1.428 . S
C479 N478 1.351 . S
C479 C480 1.434 . S
C480 C471 1.429 . S
C480 N477 1.350 . S
C480 C479 1.434 . S
C481 C482 1.369 . S
C481 C483 1.419 . S
C481 H485 0.930 . S
C482 C481 1.369 . S
C482 C491 1.429 . S
C483 C481 1.419 . S
C483 C484 1.363 . S
C483 H486 0.929 . S
C484 C483 1.363 . S
C484 C490 1.428 . S
H485 C481 0.930 . S
H486 C483 0.929 . S
S487 N488 1.613 . S
S487 N489 1.610 . S
N488 S487 1.613 . S
N488 C491 1.350 . S
N489 S487 1.610 . S
N489 C490 1.351 . S
C490 C484 1.428 . S
C490 N489 1.351 . S
C490 C491 1.434 . S
C491 C482 1.429 . S
C491 N488 1.350 . S
C491 C490 1.434 . S
C492 C493 1.369 . S
C492 C494 1.419 . S
C492 H496 0.930 . S
C493 C492 1.369 . S
C493 C502 1.429 . S
C494 C492 1.419 . S
C494 C495 1.363 . S
C494 H497 0.929 . S
C495 C494 1.363 . S
C495 C501 1.428 . S
H496 C492 0.930 . S
H497 C494 0.929 . S
S498 N499 1.613 . S
S498 N500 1.610 . S
N499 S498 1.613 . S
N499 C502 1.350 . S
N500 S498 1.610 . S
N500 C501 1.351 . S
C501 C495 1.428 . S
C501 N500 1.351 . S
C501 C502 1.434 . S
C502 C493 1.429 . S
C502 N499 1.350 . S
C502 C501 1.434 . S
C503 C504 1.369 . S
C503 C505 1.419 . S
C503 H507 0.930 . S
C504 C503 1.369 . S
C504 C513 1.429 . S
C505 C503 1.419 . S
C505 C506 1.363 . S
C505 H508 0.929 . S
C506 C505 1.363 . S
C506 C512 1.428 . S
H507 C503 0.930 . S
H508 C505 0.929 . S
S509 N510 1.613 . S
S509 N511 1.610 . S
N510 S509 1.613 . S
N510 C513 1.350 . S
N511 S509 1.610 . S
N511 C512 1.351 . S
C512 C506 1.428 . S
C512 N511 1.351 . S
C512 C513 1.434 . S
C513 C504 1.429 . S
C513 N510 1.350 . S
C513 C512 1.434 . S
C514 C515 1.369 . S
C514 C516 1.419 . S
C514 H518 0.930 . S
C515 C514 1.369 . S
C515 C524 1.429 . S
C516 C514 1.419 . S
C516 C517 1.363 . S
C516 H519 0.929 . S
C517 C516 1.363 . S
C517 C523 1.428 . S
H518 C514 0.930 . S
H519 C516 0.929 . S
S520 N521 1.613 . S
S520 N522 1.610 . S
N521 S520 1.613 . S
N521 C524 1.350 . S
N522 S520 1.610 . S
N522 C523 1.351 . S
C523 C517 1.428 . S
C523 N522 1.351 . S
C523 C524 1.434 . S
C524 C515 1.429 . S
C524 N521 1.350 . S
C524 C523 1.434 . S
C525 C526 1.369 . S
C525 C527 1.419 . S
C525 H529 0.930 . S
C526 C525 1.369 . S
C526 C535 1.429 . S
C527 C525 1.419 . S
C527 C528 1.363 . S
C527 H530 0.929 . S
C528 C527 1.363 . S
C528 C534 1.428 . S
H529 C525 0.930 . S
H530 C527 0.929 . S
S531 N532 1.613 . S
S531 N533 1.610 . S
N532 S531 1.613 . S
N532 C535 1.350 . S
N533 S531 1.610 . S
N533 C534 1.351 . S
C534 C528 1.428 . S
C534 N533 1.351 . S
C534 C535 1.434 . S
C535 C526 1.429 . S
C535 N532 1.350 . S
C535 C534 1.434 . S
C536 C537 1.369 . S
C536 C538 1.419 . S
C536 H540 0.930 . S
C537 C536 1.369 . S
C537 C546 1.429 . S
C538 C536 1.419 . S
C538 C539 1.363 . S
C538 H541 0.929 . S
C539 C538 1.363 . S
C539 C545 1.428 . S
H540 C536 0.930 . S
H541 C538 0.929 . S
S542 N543 1.613 . S
S542 N544 1.610 . S
N543 S542 1.613 . S
N543 C546 1.350 . S
N544 S542 1.610 . S
N544 C545 1.351 . S
C545 C539 1.428 . S
C545 N544 1.351 . S
C545 C546 1.434 . S
C546 C537 1.429 . S
C546 N543 1.350 . S
C546 C545 1.434 . S
C547 C548 1.369 . S
C547 C549 1.419 . S
C547 H551 0.930 . S
C548 C547 1.369 . S
C548 C557 1.429 . S
C549 C547 1.419 . S
C549 C550 1.363 . S
C549 H552 0.929 . S
C550 C549 1.363 . S
C550 C556 1.428 . S
H551 C547 0.930 . S
H552 C549 0.929 . S
S553 N554 1.613 . S
S553 N555 1.610 . S
N554 S553 1.613 . S
N554 C557 1.350 . S
N555 S553 1.610 . S
N555 C556 1.351 . S
C556 C550 1.428 . S
C556 N555 1.351 . S
C556 C557 1.434 . S
C557 C548 1.429 . S
C557 N554 1.350 . S
C557 C556 1.434 . S
C558 C559 1.369 . S
C558 C560 1.419 . S
C558 H562 0.930 . S
C559 C558 1.369 . S
C559 C568 1.429 . S
C560 C558 1.419 . S
C560 C561 1.363 . S
C560 H563 0.929 . S
C561 C560 1.363 . S
C561 C567 1.428 . S
H562 C558 0.930 . S
H563 C560 0.929 . S
S564 N565 1.613 . S
S564 N566 1.610 . S
N565 S564 1.613 . S
N565 C568 1.350 . S
N566 S564 1.610 . S
N566 C567 1.351 . S
C567 C561 1.428 . S
C567 N566 1.351 . S
C567 C568 1.434 . S
C568 C559 1.429 . S
C568 N565 1.350 . S
C568 C567 1.434 . S
C569 C570 1.369 . S
C569 C571 1.419 . S
C569 H573 0.930 . S
C570 C569 1.369 . S
C570 C579 1.429 . S
C571 C569 1.419 . S
C571 C572 1.363 . S
C571 H574 0.929 . S
C572 C571 1.363 . S
C572 C578 1.428 . S
H573 C569 0.930 . S
H574 C571 0.929 . S
S575 N576 1.613 . S
S575 N577 1.610 . S
N576 S575 1.613 . S
N576 C579 1.350 . S
N577 S575 1.610 . S
N577 C578 1.351 . S
C578 C572 1.428 . S
C578 N577 1.351 . S
C578 C579 1.434 . S
C579 C570 1.429 . S
C579 N576 1.350 . S
C579 C578 1.434 . S
C580 C581 1.369 . S
C580 C582 1.419 . S
C580 H584 0.930 . S
C581 C580 1.369 . S
C581 C590 1.429 . S
C582 C580 1.419 . S
C582 C583 1.363 . S
C582 H585 0.929 . S
C583 C582 1.363 . S
C583 C589 1.428 . S
H584 C580 0.930 . S
H585 C582 0.929 . S
S586 N587 1.613 . S
S586 N588 1.610 . S
N587 S586 1.613 . S
N587 C590 1.350 . S
N588 S586 1.610 . S
N588 C589 1.351 . S
C589 C583 1.428 . S
C589 N588 1.351 . S
C589 C590 1.434 . S
C590 C581 1.429 . S
C590 N587 1.350 . S
C590 C589 1.434 . S
C591 C592 1.369 . S
C591 C593 1.419 . S
C591 H595 0.930 . S
C592 C591 1.369 . S
C592 C601 1.429 . S
C593 C591 1.419 . S
C593 C594 1.363 . S
C593 H596 0.929 . S
C594 C593 1.363 . S
C594 C600 1.428 . S
H595 C591 0.930 . S
H596 C593 0.929 . S
S597 N598 1.613 . S
S597 N599 1.610 . S
N598 S597 1.613 . S
N598 C601 1.350 . S
N599 S597 1.610 . S
N599 C600 1.351 . S
C600 C594 1.428 . S
C600 N599 1.351 . S
C600 C601 1.434 . S
C601 C592 1.429 . S
C601 N598 1.350 . S
C601 C600 1.434 . S
C602 C603 1.369 . S
C602 C604 1.419 . S
C602 H606 0.930 . S
C603 C602 1.369 . S
C603 C612 1.429 . S
C604 C602 1.419 . S
C604 C605 1.363 . S
C604 H607 0.929 . S
C605 C604 1.363 . S
C605 C611 1.428 . S
H606 C602 0.930 . S
H607 C604 0.929 . S
S608 N609 1.613 . S
S608 N610 1.610 . S
N609 S608 1.613 . S
N609 C612 1.350 . S
N610 S608 1.610 . S
N610 C611 1.351 . S
C611 C605 1.428 . S
C611 N610 1.351 . S
C611 C612 1.434 . S
C612 C603 1.429 . S
C612 N609 1.350 . S
C612 C611 1.434 . S
C613 C614 1.369 . S
C613 C615 1.419 . S
C613 H617 0.930 . S
C614 C613 1.369 . S
C614 C623 1.429 . S
C615 C613 1.419 . S
C615 C616 1.363 . S
C615 H618 0.929 . S
C616 C615 1.363 . S
C616 C622 1.428 . S
H617 C613 0.930 . S
H618 C615 0.929 . S
S619 N620 1.613 . S
S619 N621 1.610 . S
N620 S619 1.613 . S
N620 C623 1.350 . S
N621 S619 1.610 . S
N621 C622 1.351 . S
C622 C616 1.428 . S
C622 N621 1.351 . S
C622 C623 1.434 . S
C623 C614 1.429 . S
C623 N620 1.350 . S
C623 C622 1.434 . S
C624 C625 1.369 . S
C624 C626 1.419 . S
C624 H628 0.930 . S
C625 C624 1.369 . S
C625 C634 1.429 . S
C626 C624 1.419 . S
C626 C627 1.363 . S
C626 H629 0.929 . S
C627 C626 1.363 . S
C627 C633 1.428 . S
H628 C624 0.930 . S
H629 C626 0.929 . S
S630 N631 1.613 . S
S630 N632 1.610 . S
N631 S630 1.613 . S
N631 C634 1.350 . S
N632 S630 1.610 . S
N632 C633 1.351 . S
C633 C627 1.428 . S
C633 N632 1.351 . S
C633 C634 1.434 . S
C634 C625 1.429 . S
C634 N631 1.350 . S
C634 C633 1.434 . S
C635 C636 1.369 . S
C635 C637 1.419 . S
C635 H639 0.930 . S
C636 C635 1.369 . S
C636 C645 1.429 . S
C637 C635 1.419 . S
C637 C638 1.363 . S
C637 H640 0.929 . S
C638 C637 1.363 . S
C638 C644 1.428 . S
H639 C635 0.930 . S
H640 C637 0.929 . S
S641 N642 1.613 . S
S641 N643 1.610 . S
N642 S641 1.613 . S
N642 C645 1.350 . S
N643 S641 1.610 . S
N643 C644 1.351 . S
C644 C638 1.428 . S
C644 N643 1.351 . S
C644 C645 1.434 . S
C645 C636 1.429 . S
C645 N642 1.350 . S
C645 C644 1.434 . S
C646 C647 1.369 . S
C646 C648 1.419 . S
C646 H650 0.930 . S
C647 C646 1.369 . S
C647 C656 1.429 . S
C648 C646 1.419 . S
C648 C649 1.363 . S
C648 H651 0.929 . S
C649 C648 1.363 . S
C649 C655 1.428 . S
H650 C646 0.930 . S
H651 C648 0.929 . S
S652 N653 1.613 . S
S652 N654 1.610 . S
N653 S652 1.613 . S
N653 C656 1.350 . S
N654 S652 1.610 . S
N654 C655 1.351 . S
C655 C649 1.428 . S
C655 N654 1.351 . S
C655 C656 1.434 . S
C656 C647 1.429 . S
C656 N653 1.350 . S
C656 C655 1.434 . S
C657 C658 1.369 . S
C657 C659 1.419 . S
C657 H661 0.930 . S
C658 C657 1.369 . S
C658 C667 1.429 . S
C659 C657 1.419 . S
C659 C660 1.363 . S
C659 H662 0.929 . S
C660 C659 1.363 . S
C660 C666 1.428 . S
H661 C657 0.930 . S
H662 C659 0.929 . S
S663 N664 1.613 . S
S663 N665 1.610 . S
N664 S663 1.613 . S
N664 C667 1.350 . S
N665 S663 1.610 . S
N665 C666 1.351 . S
C666 C660 1.428 . S
C666 N665 1.351 . S
C666 C667 1.434 . S
C667 C658 1.429 . S
C667 N664 1.350 . S
C667 C666 1.434 . S
C668 C669 1.369 . S
C668 C670 1.419 . S
C668 H672 0.930 . S
C669 C668 1.369 . S
C669 C678 1.429 . S
C670 C668 1.419 . S
C670 C671 1.363 . S
C670 H673 0.929 . S
C671 C670 1.363 . S
C671 C677 1.428 . S
H672 C668 0.930 . S
H673 C670 0.929 . S
S674 N675 1.613 . S
S674 N676 1.610 . S
N675 S674 1.613 . S
N675 C678 1.350 . S
N676 S674 1.610 . S
N676 C677 1.351 . S
C677 C671 1.428 . S
C677 N676 1.351 . S
C677 C678 1.434 . S
C678 C669 1.429 . S
C678 N675 1.350 . S
C678 C677 1.434 . S
C679 C680 1.369 . S
C679 C681 1.419 . S
C679 H683 0.930 . S
C680 C679 1.369 . S
C680 C689 1.429 . S
C681 C679 1.419 . S
C681 C682 1.363 . S
C681 H684 0.929 . S
C682 C681 1.363 . S
C682 C688 1.428 . S
H683 C679 0.930 . S
H684 C681 0.929 . S
S685 N686 1.613 . S
S685 N687 1.610 . S
N686 S685 1.613 . S
N686 C689 1.350 . S
N687 S685 1.610 . S
N687 C688 1.351 . S
C688 C682 1.428 . S
C688 N687 1.351 . S
C688 C689 1.434 . S
C689 C680 1.429 . S
C689 N686 1.350 . S
C689 C688 1.434 . S
C690 C691 1.369 . S
C690 C692 1.419 . S
C690 H694 0.930 . S
C691 C690 1.369 . S
C691 C700 1.429 . S
C692 C690 1.419 . S
C692 C693 1.363 . S
C692 H695 0.929 . S
C693 C692 1.363 . S
C693 C699 1.428 . S
H694 C690 0.930 . S
H695 C692 0.929 . S
S696 N697 1.613 . S
S696 N698 1.610 . S
N697 S696 1.613 . S
N697 C700 1.350 . S
N698 S696 1.610 . S
N698 C699 1.351 . S
C699 C693 1.428 . S
C699 N698 1.351 . S
C699 C700 1.434 . S
C700 C691 1.429 . S
C700 N697 1.350 . S
C700 C699 1.434 . S
C701 C702 1.369 . S
C701 C703 1.419 . S
C701 H705 0.930 . S
C702 C701 1.369 . S
C702 C711 1.429 . S
C703 C701 1.419 . S
C703 C704 1.363 . S
C703 H706 0.929 . S
C704 C703 1.363 . S
C704 C710 1.428 . S
H705 C701 0.930 . S
H706 C703 0.929 . S
S707 N708 1.613 . S
S707 N709 1.610 . S
N708 S707 1.613 . S
N708 C711 1.350 . S
N709 S707 1.610 . S
N709 C710 1.351 . S
C710 C704 1.428 . S
C710 N709 1.351 . S
C710 C711 1.434 . S
C711 C702 1.429 . S
C711 N708 1.350 . S
C711 C710 1.434 . S
C712 C713 1.369 . S
C712 C714 1.419 . S
C712 H716 0.930 . S
C713 C712 1.369 . S
C713 C722 1.429 . S
C714 C712 1.419 . S
C714 C715 1.363 . S
C714 H717 0.929 . S
C715 C714 1.363 . S
C715 C721 1.428 . S
H716 C712 0.930 . S
H717 C714 0.929 . S
S718 N719 1.613 . S
S718 N720 1.610 . S
N719 S718 1.613 . S
N719 C722 1.350 . S
N720 S718 1.610 . S
N720 C721 1.351 . S
C721 C715 1.428 . S
C721 N720 1.351 . S
C721 C722 1.434 . S
C722 C713 1.429 . S
C722 N719 1.350 . S
C722 C721 1.434 . S
C723 C724 1.369 . S
C723 C725 1.419 . S
C723 H727 0.930 . S
C724 C723 1.369 . S
C724 C733 1.429 . S
C725 C723 1.419 . S
C725 C726 1.363 . S
C725 H728 0.929 . S
C726 C725 1.363 . S
C726 C732 1.428 . S
H727 C723 0.930 . S
H728 C725 0.929 . S
S729 N730 1.613 . S
S729 N731 1.610 . S
N730 S729 1.613 . S
N730 C733 1.350 . S
N731 S729 1.610 . S
N731 C732 1.351 . S
C732 C726 1.428 . S
C732 N731 1.351 . S
C732 C733 1.434 . S
C733 C724 1.429 . S
C733 N730 1.350 . S
C733 C732 1.434 . S
C734 C735 1.369 . S
C734 C736 1.419 . S
C734 H738 0.930 . S
C735 C734 1.369 . S
C735 C744 1.429 . S
C736 C734 1.419 . S
C736 C737 1.363 . S
C736 H739 0.929 . S
C737 C736 1.363 . S
C737 C743 1.428 . S
H738 C734 0.930 . S
H739 C736 0.929 . S
S740 N741 1.613 . S
S740 N742 1.610 . S
N741 S740 1.613 . S
N741 C744 1.350 . S
N742 S740 1.610 . S
N742 C743 1.351 . S
C743 C737 1.428 . S
C743 N742 1.351 . S
C743 C744 1.434 . S
C744 C735 1.429 . S
C744 N741 1.350 . S
C744 C743 1.434 . S
C745 C746 1.369 . S
C745 C747 1.419 . S
C745 H749 0.930 . S
C746 C745 1.369 . S
C746 C755 1.429 . S
C747 C745 1.419 . S
C747 C748 1.363 . S
C747 H750 0.929 . S
C748 C747 1.363 . S
C748 C754 1.428 . S
H749 C745 0.930 . S
H750 C747 0.929 . S
S751 N752 1.613 . S
S751 N753 1.610 . S
N752 S751 1.613 . S
N752 C755 1.350 . S
N753 S751 1.610 . S
N753 C754 1.351 . S
C754 C748 1.428 . S
C754 N753 1.351 . S
C754 C755 1.434 . S
C755 C746 1.429 . S
C755 N752 1.350 . S
C755 C754 1.434 . S
C756 C757 1.369 . S
C756 C758 1.419 . S
C756 H760 0.930 . S
C757 C756 1.369 . S
C757 C766 1.429 . S
C758 C756 1.419 . S
C758 C759 1.363 . S
C758 H761 0.929 . S
C759 C758 1.363 . S
C759 C765 1.428 . S
H760 C756 0.930 . S
H761 C758 0.929 . S
S762 N763 1.613 . S
S762 N764 1.610 . S
N763 S762 1.613 . S
N763 C766 1.350 . S
N764 S762 1.610 . S
N764 C765 1.351 . S
C765 C759 1.428 . S
C765 N764 1.351 . S
C765 C766 1.434 . S
C766 C757 1.429 . S
C766 N763 1.350 . S
C766 C765 1.434 . S
C767 C768 1.369 . S
C767 C769 1.419 . S
C767 H771 0.930 . S
C768 C767 1.369 . S
C768 C777 1.429 . S
C769 C767 1.419 . S
C769 C770 1.363 . S
C769 H772 0.929 . S
C770 C769 1.363 . S
C770 C776 1.428 . S
H771 C767 0.930 . S
H772 C769 0.929 . S
S773 N774 1.613 . S
S773 N775 1.610 . S
N774 S773 1.613 . S
N774 C777 1.350 . S
N775 S773 1.610 . S
N775 C776 1.351 . S
C776 C770 1.428 . S
C776 N775 1.351 . S
C776 C777 1.434 . S
C777 C768 1.429 . S
C777 N774 1.350 . S
C777 C776 1.434 . S
C778 C779 1.369 . S
C778 C780 1.419 . S
C778 H782 0.930 . S
C779 C778 1.369 . S
C779 C788 1.429 . S
C780 C778 1.419 . S
C780 C781 1.363 . S
C780 H783 0.929 . S
C781 C780 1.363 . S
C781 C787 1.428 . S
H782 C778 0.930 . S
H783 C780 0.929 . S
S784 N785 1.613 . S
S784 N786 1.610 . S
N785 S784 1.613 . S
N785 C788 1.350 . S
N786 S784 1.610 . S
N786 C787 1.351 . S
C787 C781 1.428 . S
C787 N786 1.351 . S
C787 C788 1.434 . S
C788 C779 1.429 . S
C788 N785 1.350 . S
C788 C787 1.434 . S
C789 C790 1.369 . S
C789 C791 1.419 . S
C789 H793 0.930 . S
C790 C789 1.369 . S
C790 C799 1.429 . S
C791 C789 1.419 . S
C791 C792 1.363 . S
C791 H794 0.929 . S
C792 C791 1.363 . S
C792 C798 1.428 . S
H793 C789 0.930 . S
H794 C791 0.929 . S
S795 N796 1.613 . S
S795 N797 1.610 . S
N796 S795 1.613 . S
N796 C799 1.350 . S
N797 S795 1.610 . S
N797 C798 1.351 . S
C798 C792 1.428 . S
C798 N797 1.351 . S
C798 C799 1.434 . S
C799 C790 1.429 . S
C799 N796 1.350 . S
C799 C798 1.434 . S
C800 C801 1.369 . S
C800 C802 1.419 . S
C800 H804 0.930 . S
C801 C800 1.369 . S
C801 C810 1.429 . S
C802 C800 1.419 . S
C802 C803 1.363 . S
C802 H805 0.929 . S
C803 C802 1.363 . S
C803 C809 1.428 . S
H804 C800 0.930 . S
H805 C802 0.929 . S
S806 N807 1.613 . S
S806 N808 1.610 . S
N807 S806 1.613 . S
N807 C810 1.350 . S
N808 S806 1.610 . S
N808 C809 1.351 . S
C809 C803 1.428 . S
C809 N808 1.351 . S
C809 C810 1.434 . S
C810 C801 1.429 . S
C810 N807 1.350 . S
C810 C809 1.434 . S
C811 C812 1.369 . S
C811 C813 1.419 . S
C811 H815 0.930 . S
C812 C811 1.369 . S
C812 C821 1.429 . S
C813 C811 1.419 . S
C813 C814 1.363 . S
C813 H816 0.929 . S
C814 C813 1.363 . S
C814 C820 1.428 . S
H815 C811 0.930 . S
H816 C813 0.929 . S
S817 N818 1.613 . S
S817 N819 1.610 . S
N818 S817 1.613 . S
N818 C821 1.350 . S
N819 S817 1.610 . S
N819 C820 1.351 . S
C820 C814 1.428 . S
C820 N819 1.351 . S
C820 C821 1.434 . S
C821 C812 1.429 . S
C821 N818 1.350 . S
C821 C820 1.434 . S
C822 C823 1.369 . S
C822 C824 1.419 . S
C822 H826 0.930 . S
C823 C822 1.369 . S
C823 C832 1.429 . S
C824 C822 1.419 . S
C824 C825 1.363 . S
C824 H827 0.929 . S
C825 C824 1.363 . S
C825 C831 1.428 . S
H826 C822 0.930 . S
H827 C824 0.929 . S
S828 N829 1.613 . S
S828 N830 1.610 . S
N829 S828 1.613 . S
N829 C832 1.350 . S
N830 S828 1.610 . S
N830 C831 1.351 . S
C831 C825 1.428 . S
C831 N830 1.351 . S
C831 C832 1.434 . S
C832 C823 1.429 . S
C832 N829 1.350 . S
C832 C831 1.434 . S
C833 C834 1.369 . S
C833 C835 1.419 . S
C833 H837 0.930 . S
C834 C833 1.369 . S
C834 C843 1.429 . S
C835 C833 1.419 . S
C835 C836 1.363 . S
C835 H838 0.929 . S
C836 C835 1.363 . S
C836 C842 1.428 . S
H837 C833 0.930 . S
H838 C835 0.929 . S
S839 N840 1.613 . S
S839 N841 1.610 . S
N840 S839 1.613 . S
N840 C843 1.350 . S
N841 S839 1.610 . S
N841 C842 1.351 . S
C842 C836 1.428 . S
C842 N841 1.351 . S
C842 C843 1.434 . S
C843 C834 1.429 . S
C843 N840 1.350 . S
C843 C842 1.434 . S
C844 C845 1.369 . S
C844 C846 1.419 . S
C844 H848 0.930 . S
C845 C844 1.369 . S
C845 C854 1.429 . S
C846 C844 1.419 . S
C846 C847 1.363 . S
C846 H849 0.929 . S
C847 C846 1.363 . S
C847 C853 1.428 . S
H848 C844 0.930 . S
H849 C846 0.929 . S
S850 N851 1.613 . S
S850 N852 1.610 . S
N851 S850 1.613 . S
N851 C854 1.350 . S
N852 S850 1.610 . S
N852 C853 1.351 . S
C853 C847 1.428 . S
C853 N852 1.351 . S
C853 C854 1.434 . S
C854 C845 1.429 . S
C854 N851 1.350 . S
C854 C853 1.434 . S
C855 C856 1.369 . S
C855 C857 1.419 . S
C855 H859 0.930 . S
C856 C855 1.369 . S
C856 C865 1.429 . S
C857 C855 1.419 . S
C857 C858 1.363 . S
C857 H860 0.929 . S
C858 C857 1.363 . S
C858 C864 1.428 . S
H859 C855 0.930 . S
H860 C857 0.929 . S
S861 N862 1.613 . S
S861 N863 1.610 . S
N862 S861 1.613 . S
N862 C865 1.350 . S
N863 S861 1.610 . S
N863 C864 1.351 . S
C864 C858 1.428 . S
C864 N863 1.351 . S
C864 C865 1.434 . S
C865 C856 1.429 . S
C865 N862 1.350 . S
C865 C864 1.434 . S
C866 C867 1.369 . S
C866 C868 1.419 . S
C866 H870 0.930 . S
C867 C866 1.369 . S
C867 C876 1.429 . S
C868 C866 1.419 . S
C868 C869 1.363 . S
C868 H871 0.929 . S
C869 C868 1.363 . S
C869 C875 1.428 . S
H870 C866 0.930 . S
H871 C868 0.929 . S
S872 N873 1.613 . S
S872 N874 1.610 . S
N873 S872 1.613 . S
N873 C876 1.350 . S
N874 S872 1.610 . S
N874 C875 1.351 . S
C875 C869 1.428 . S
C875 N874 1.351 . S
C875 C876 1.434 . S
C876 C867 1.429 . S
C876 N873 1.350 . S
C876 C875 1.434 . S
C877 C878 1.369 . S
C877 C879 1.419 . S
C877 H881 0.930 . S
C878 C877 1.369 . S
C878 C887 1.429 . S
C879 C877 1.419 . S
C879 C880 1.363 . S
C879 H882 0.929 . S
C880 C879 1.363 . S
C880 C886 1.428 . S
H881 C877 0.930 . S
H882 C879 0.929 . S
S883 N884 1.613 . S
S883 N885 1.610 . S
N884 S883 1.613 . S
N884 C887 1.350 . S
N885 S883 1.610 . S
N885 C886 1.351 . S
C886 C880 1.428 . S
C886 N885 1.351 . S
C886 C887 1.434 . S
C887 C878 1.429 . S
C887 N884 1.350 . S
C887 C886 1.434 . S
C888 C889 1.369 . S
C888 C890 1.419 . S
C888 H892 0.930 . S
C889 C888 1.369 . S
C889 C898 1.429 . S
C890 C888 1.419 . S
C890 C891 1.363 . S
C890 H893 0.929 . S
C891 C890 1.363 . S
C891 C897 1.428 . S
H892 C888 0.930 . S
H893 C890 0.929 . S
S894 N895 1.613 . S
S894 N896 1.610 . S
N895 S894 1.613 . S
N895 C898 1.350 . S
N896 S894 1.610 . S
N896 C897 1.351 . S
C897 C891 1.428 . S
C897 N896 1.351 . S
C897 C898 1.434 . S
C898 C889 1.429 . S
C898 N895 1.350 . S
C898 C897 1.434 . S
C899 C900 1.369 . S
C899 C901 1.419 . S
C899 H903 0.930 . S
C900 C899 1.369 . S
C900 C909 1.429 . S
C901 C899 1.419 . S
C901 C902 1.363 . S
C901 H904 0.929 . S
C902 C901 1.363 . S
C902 C908 1.428 . S
H903 C899 0.930 . S
H904 C901 0.929 . S
S905 N906 1.613 . S
S905 N907 1.610 . S
N906 S905 1.613 . S
N906 C909 1.350 . S
N907 S905 1.610 . S
N907 C908 1.351 . S
C908 C902 1.428 . S
C908 N907 1.351 . S
C908 C909 1.434 . S
C909 C900 1.429 . S
C909 N906 1.350 . S
C909 C908 1.434 . S
C910 C911 1.369 . S
C910 C912 1.419 . S
C910 H914 0.930 . S
C911 C910 1.369 . S
C911 C920 1.429 . S
C912 C910 1.419 . S
C912 C913 1.363 . S
C912 H915 0.929 . S
C913 C912 1.363 . S
C913 C919 1.428 . S
H914 C910 0.930 . S
H915 C912 0.929 . S
S916 N917 1.613 . S
S916 N918 1.610 . S
N917 S916 1.613 . S
N917 C920 1.350 . S
N918 S916 1.610 . S
N918 C919 1.351 . S
C919 C913 1.428 . S
C919 N918 1.351 . S
C919 C920 1.434 . S
C920 C911 1.429 . S
C920 N917 1.350 . S
C920 C919 1.434 . S
C921 C922 1.369 . S
C921 C923 1.419 . S
C921 H925 0.930 . S
C922 C921 1.369 . S
C922 C931 1.429 . S
C923 C921 1.419 . S
C923 C924 1.363 . S
C923 H926 0.929 . S
C924 C923 1.363 . S
C924 C930 1.428 . S
H925 C921 0.930 . S
H926 C923 0.929 . S
S927 N928 1.613 . S
S927 N929 1.610 . S
N928 S927 1.613 . S
N928 C931 1.350 . S
N929 S927 1.610 . S
N929 C930 1.351 . S
C930 C924 1.428 . S
C930 N929 1.351 . S
C930 C931 1.434 . S
C931 C922 1.429 . S
C931 N928 1.350 . S
C931 C930 1.434 . S
C932 C933 1.369 . S
C932 C934 1.419 . S
C932 H936 0.930 . S
C933 C932 1.369 . S
C933 C942 1.429 . S
C934 C932 1.419 . S
C934 C935 1.363 . S
C934 H937 0.929 . S
C935 C934 1.363 . S
C935 C941 1.428 . S
H936 C932 0.930 . S
H937 C934 0.929 . S
S938 N939 1.613 . S
S938 N940 1.610 . S
N939 S938 1.613 . S
N939 C942 1.350 . S
N940 S938 1.610 . S
N940 C941 1.351 . S
C941 C935 1.428 . S
C941 N940 1.351 . S
C941 C942 1.434 . S
C942 C933 1.429 . S
C942 N939 1.350 . S
C942 C941 1.434 . S
C943 C944 1.369 . S
C943 C945 1.419 . S
C943 H947 0.930 . S
C944 C943 1.369 . S
C944 C953 1.429 . S
C945 C943 1.419 . S
C945 C946 1.363 . S
C945 H948 0.929 . S
C946 C945 1.363 . S
C946 C952 1.428 . S
H947 C943 0.930 . S
H948 C945 0.929 . S
S949 N950 1.613 . S
S949 N951 1.610 . S
N950 S949 1.613 . S
N950 C953 1.350 . S
N951 S949 1.610 . S
N951 C952 1.351 . S
C952 C946 1.428 . S
C952 N951 1.351 . S
C952 C953 1.434 . S
C953 C944 1.429 . S
C953 N950 1.350 . S
C953 C952 1.434 . S
C954 C955 1.369 . S
C954 C956 1.419 . S
C954 H958 0.930 . S
C955 C954 1.369 . S
C955 C964 1.429 . S
C956 C954 1.419 . S
C956 C957 1.363 . S
C956 H959 0.929 . S
C957 C956 1.363 . S
C957 C963 1.428 . S
H958 C954 0.930 . S
H959 C956 0.929 . S
S960 N961 1.613 . S
S960 N962 1.610 . S
N961 S960 1.613 . S
N961 C964 1.350 . S
N962 S960 1.610 . S
N962 C963 1.351 . S
C963 C957 1.428 . S
C963 N962 1.351 . S
C963 C964 1.434 . S
C964 C955 1.429 . S
C964 N961 1.350 . S
C964 C963 1.434 . S
C965 C966 1.369 . S
C965 C967 1.419 . S
C965 H969 0.930 . S
C966 C965 1.369 . S
C966 C975 1.429 . S
C967 C965 1.419 . S
C967 C968 1.363 . S
C967 H970 0.929 . S
C968 C967 1.363 . S
C968 C974 1.428 . S
H969 C965 0.930 . S
H970 C967 0.929 . S
S971 N972 1.613 . S
S971 N973 1.610 . S
N972 S971 1.613 . S
N972 C975 1.350 . S
N973 S971 1.610 . S
N973 C974 1.351 . S
C974 C968 1.428 . S
C974 N973 1.351 . S
C974 C975 1.434 . S
C975 C966 1.429 . S
C975 N972 1.350 . S
C975 C974 1.434 . S
C976 C977 1.369 . S
C976 C978 1.419 . S
C976 H980 0.930 . S
C977 C976 1.369 . S
C977 C986 1.429 . S
C978 C976 1.419 . S
C978 C979 1.363 . S
C978 H981 0.929 . S
C979 C978 1.363 . S
C979 C985 1.428 . S
H980 C976 0.930 . S
H981 C978 0.929 . S
S982 N983 1.613 . S
S982 N984 1.610 . S
N983 S982 1.613 . S
N983 C986 1.350 . S
N984 S982 1.610 . S
N984 C985 1.351 . S
C985 C979 1.428 . S
C985 N984 1.351 . S
C985 C986 1.434 . S
C986 C977 1.429 . S
C986 N983 1.350 . S
C986 C985 1.434 . S
C987 C988 1.369 . S
C987 C989 1.419 . S
C987 H991 0.930 . S
C988 C987 1.369 . S
C988 C997 1.429 . S
C989 C987 1.419 . S
C989 C990 1.363 . S
C989 H992 0.929 . S
C990 C989 1.363 . S
C990 C996 1.428 . S
H991 C987 0.930 . S
H992 C989 0.929 . S
S993 N994 1.613 . S
S993 N995 1.610 . S
N994 S993 1.613 . S
N994 C997 1.350 . S
N995 S993 1.610 . S
N995 C996 1.351 . S
C996 C990 1.428 . S
C996 N995 1.351 . S
C996 C997 1.434 . S
C997 C988 1.429 . S
C997 N994 1.350 . S
C997 C996 1.434 . S
C998 C999 1.369 . S
C998 C1000 1.419 . S
C998 H1002 0.930 . S
C999 C998 1.369 . S
C999 C1008 1.429 . S
C1000 C998 1.419 . S
C1000 C1001 1.363 . S
C1000 H1003 0.929 . S
C1001 C1000 1.363 . S
C1001 C1007 1.428 . S
H1002 C998 0.930 . S
H1003 C1000 0.929 . S
S1004 N1005 1.613 . S
S1004 N1006 1.610 . S
N1005 S1004 1.613 . S
N1005 C1008 1.350 . S
N1006 S1004 1.610 . S
N1006 C1007 1.351 . S
C1007 C1001 1.428 . S
C1007 N1006 1.351 . S
C1007 C1008 1.434 . S
C1008 C999 1.429 . S
C1008 N1005 1.350 . S
C1008 C1007 1.434 . S
C1009 C1010 1.369 1_554 S
C1009 C1011 1.419 . S
C1009 H1013 0.930 . S
C1010 C1009 1.369 1_556 S
C1010 C1019 1.429 . S
C1011 C1009 1.419 . S
C1011 C1012 1.363 . S
C1011 H1014 0.929 . S
C1012 C1011 1.363 . S
C1012 C1018 1.428 1_554 S
H1013 C1009 0.930 . S
H1014 C1011 0.929 . S
S1015 N1016 1.613 . S
S1015 N1017 1.610 . S
N1016 S1015 1.613 . S
N1016 C1019 1.350 . S
N1017 S1015 1.610 . S
N1017 C1018 1.351 . S
C1018 C1012 1.428 1_556 S
C1018 N1017 1.351 . S
C1018 C1019 1.434 . S
C1019 C1010 1.429 . S
C1019 N1016 1.350 . S
C1019 C1018 1.434 . S
C1020 C1021 1.369 . S
C1020 C1022 1.419 . S
C1020 H1024 0.930 . S
C1021 C1020 1.369 . S
C1021 C1030 1.429 . S
C1022 C1020 1.419 . S
C1022 C1023 1.363 . S
C1022 H1025 0.929 . S
C1023 C1022 1.363 . S
C1023 C1029 1.428 . S
H1024 C1020 0.930 . S
H1025 C1022 0.929 . S
S1026 N1027 1.613 1_455 S
S1026 N1028 1.610 1_455 S
N1027 S1026 1.613 1_655 S
N1027 C1030 1.350 . S
N1028 S1026 1.610 1_655 S
N1028 C1029 1.351 . S
C1029 C1023 1.428 . S
C1029 N1028 1.351 . S
C1029 C1030 1.434 . S
C1030 C1021 1.429 . S
C1030 N1027 1.350 . S
C1030 C1029 1.434 . S
C1031 C1032 1.369 . S
C1031 C1033 1.419 . S
C1031 H1035 0.930 . S
C1032 C1031 1.369 . S
C1032 C1041 1.429 . S
C1033 C1031 1.419 . S
C1033 C1034 1.363 . S
C1033 H1036 0.929 . S
C1034 C1033 1.363 . S
C1034 C1040 1.428 . S
H1035 C1031 0.930 . S
H1036 C1033 0.929 . S
S1037 N1038 1.613 . S
S1037 N1039 1.610 . S
N1038 S1037 1.613 . S
N1038 C1041 1.350 . S
N1039 S1037 1.610 . S
N1039 C1040 1.351 . S
C1040 C1034 1.428 . S
C1040 N1039 1.351 . S
C1040 C1041 1.434 . S
C1041 C1032 1.429 . S
C1041 N1038 1.350 . S
C1041 C1040 1.434 . S
C1042 C1043 1.369 . S
C1042 C1044 1.419 . S
C1042 H1046 0.930 . S
C1043 C1042 1.369 . S
C1043 C1052 1.429 . S
C1044 C1042 1.419 . S
C1044 C1045 1.363 . S
C1044 H1047 0.929 . S
C1045 C1044 1.363 . S
C1045 C1051 1.428 . S
H1046 C1042 0.930 . S
H1047 C1044 0.929 . S
S1048 N1049 1.613 . S
S1048 N1050 1.610 . S
N1049 S1048 1.613 . S
N1049 C1052 1.350 . S
N1050 S1048 1.610 . S
N1050 C1051 1.351 . S
C1051 C1045 1.428 . S
C1051 N1050 1.351 . S
C1051 C1052 1.434 . S
C1052 C1043 1.429 . S
C1052 N1049 1.350 . S
C1052 C1051 1.434 . S
C1053 C1054 1.369 . S
C1053 C1055 1.419 . S
C1053 H1057 0.930 . S
C1054 C1053 1.369 . S
C1054 C1063 1.429 1_554 S
C1055 C1053 1.419 . S
C1055 C1056 1.363 1_554 S
C1055 H1058 0.929 . S
C1056 C1055 1.363 1_556 S
C1056 C1062 1.428 . S
H1057 C1053 0.930 . S
H1058 C1055 0.929 . S
S1059 N1060 1.613 . S
S1059 N1061 1.610 . S
N1060 S1059 1.613 . S
N1060 C1063 1.350 . S
N1061 S1059 1.610 . S
N1061 C1062 1.351 . S
C1062 C1056 1.428 . S
C1062 N1061 1.351 . S
C1062 C1063 1.434 . S
C1063 C1054 1.429 1_556 S
C1063 N1060 1.350 . S
C1063 C1062 1.434 . S
C1064 C1065 1.369 . S
C1064 C1066 1.419 1_565 S
C1064 H1068 0.930 . S
C1065 C1064 1.369 . S
C1065 C1074 1.429 . S
C1066 C1064 1.419 1_545 S
C1066 C1067 1.363 . S
C1066 H1069 0.929 . S
C1067 C1066 1.363 . S
C1067 C1073 1.428 . S
H1068 C1064 0.930 . S
H1069 C1066 0.929 . S
S1070 N1071 1.613 . S
S1070 N1072 1.610 1_565 S
N1071 S1070 1.613 . S
N1071 C1074 1.350 . S
N1072 S1070 1.610 1_545 S
N1072 C1073 1.351 . S
C1073 C1067 1.428 . S
C1073 N1072 1.351 . S
C1073 C1074 1.434 1_545 S
C1074 C1065 1.429 . S
C1074 N1071 1.350 . S
C1074 C1073 1.434 1_565 S
C1075 C1076 1.369 . S
C1075 C1077 1.419 . S
C1075 H1079 0.930 . S
C1076 C1075 1.369 . S
C1076 C1085 1.429 1_554 S
C1077 C1075 1.419 . S
C1077 C1078 1.363 1_554 S
C1077 H1080 0.929 . S
C1078 C1077 1.363 1_556 S
C1078 C1084 1.428 . S
H1079 C1075 0.930 . S
H1080 C1077 0.929 . S
S1081 N1082 1.613 . S
S1081 N1083 1.610 . S
N1082 S1081 1.613 . S
N1082 C1085 1.350 . S
N1083 S1081 1.610 . S
N1083 C1084 1.351 . S
C1084 C1078 1.428 . S
C1084 N1083 1.351 . S
C1084 C1085 1.434 . S
C1085 C1076 1.429 1_556 S
C1085 N1082 1.350 . S
C1085 C1084 1.434 . S
C1086 C1087 1.369 . S
C1086 C1088 1.419 1_545 S
C1086 H1090 0.930 1_655 S
C1087 C1086 1.369 . S
C1087 C1096 1.429 . S
C1088 C1086 1.419 1_565 S
C1088 C1089 1.363 . S
C1088 H1091 0.929 1_655 S
C1089 C1088 1.363 . S
C1089 C1095 1.428 . S
H1090 C1086 0.930 1_455 S
H1091 C1088 0.929 1_455 S
S1092 N1093 1.613 . S
S1092 N1094 1.610 1_545 S
N1093 S1092 1.613 . S
N1093 C1096 1.350 . S
N1094 S1092 1.610 1_565 S
N1094 C1095 1.351 . S
C1095 C1089 1.428 . S
C1095 N1094 1.351 . S
C1095 C1096 1.434 1_565 S
C1096 C1087 1.429 . S
C1096 N1093 1.350 . S
C1096 C1095 1.434 1_545 S
C1097 C1098 1.369 . S
C1097 C1099 1.419 . S
C1097 H1101 0.930 . S
C1098 C1097 1.369 . S
C1098 C1107 1.429 . S
C1099 C1097 1.419 . S
C1099 C1100 1.363 . S
C1099 H1102 0.929 . S
C1100 C1099 1.363 . S
C1100 C1106 1.428 . S
H1101 C1097 0.930 . S
H1102 C1099 0.929 . S
S1103 N1104 1.613 . S
S1103 N1105 1.610 . S
N1104 S1103 1.613 . S
N1104 C1107 1.350 . S
N1105 S1103 1.610 . S
N1105 C1106 1.351 . S
C1106 C1100 1.428 . S
C1106 N1105 1.351 . S
C1106 C1107 1.434 . S
C1107 C1098 1.429 . S
C1107 N1104 1.350 . S
C1107 C1106 1.434 . S
C1108 C1109 1.369 . S
C1108 C1110 1.419 1_545 S
C1108 H1112 0.930 . S
C1109 C1108 1.369 . S
C1109 C1118 1.429 . S
C1110 C1108 1.419 1_565 S
C1110 C1111 1.363 . S
C1110 H1113 0.929 . S
C1111 C1110 1.363 . S
C1111 C1117 1.428 . S
H1112 C1108 0.930 . S
H1113 C1110 0.929 . S
S1114 N1115 1.613 1_565 S
S1114 N1116 1.610 . S
N1115 S1114 1.613 1_545 S
N1115 C1118 1.350 . S
N1116 S1114 1.610 . S
N1116 C1117 1.351 . S
C1117 C1111 1.428 . S
C1117 N1116 1.351 . S
C1117 C1118 1.434 1_565 S
C1118 C1109 1.429 . S
C1118 N1115 1.350 . S
C1118 C1117 1.434 1_545 S
C1119 C1120 1.369 . S
C1119 C1121 1.419 1_554 S
C1119 H1123 0.930 . S
C1120 C1119 1.369 . S
C1120 C1129 1.429 . S
C1121 C1119 1.419 1_556 S
C1121 C1122 1.363 . S
C1121 H1124 0.929 . S
C1122 C1121 1.363 . S
C1122 C1128 1.428 . S
H1123 C1119 0.930 . S
H1124 C1121 0.929 . S
S1125 N1126 1.613 . S
S1125 N1127 1.610 1_554 S
N1126 S1125 1.613 . S
N1126 C1129 1.350 . S
N1127 S1125 1.610 1_556 S
N1127 C1128 1.351 . S
C1128 C1122 1.428 . S
C1128 N1127 1.351 . S
C1128 C1129 1.434 1_556 S
C1129 C1120 1.429 . S
C1129 N1126 1.350 . S
C1129 C1128 1.434 1_554 S
C1130 C1131 1.369 . S
C1130 C1132 1.419 1_545 S
C1130 H1134 0.930 . S
C1131 C1130 1.369 . S
C1131 C1140 1.429 . S
C1132 C1130 1.419 1_565 S
C1132 C1133 1.363 . S
C1132 H1135 0.929 . S
C1133 C1132 1.363 . S
C1133 C1139 1.428 . S
H1134 C1130 0.930 . S
H1135 C1132 0.929 . S
S1136 N1137 1.627 . S
S1136 N1138 1.619 1_545 S
N1137 S1136 1.627 . S
N1137 C1140 1.331 1_655 S
N1138 S1136 1.619 1_565 S
N1138 C1139 1.339 1_655 S
C1139 C1133 1.428 . S
C1139 N1138 1.339 1_455 S
C1139 C1140 1.434 1_565 S
C1140 C1131 1.429 . S
C1140 N1137 1.331 1_455 S
C1140 C1139 1.434 1_545 S
C1141 C1142 1.369 . S
C1141 C1143 1.419 . S
C1141 H1145 0.930 . S
C1142 C1141 1.369 . S
C1142 C1151 1.429 . S
C1143 C1141 1.419 . S
C1143 C1144 1.363 . S
C1143 H1146 0.929 . S
C1144 C1143 1.363 . S
C1144 C1150 1.428 . S
H1145 C1141 0.930 . S
H1146 C1143 0.929 . S
S1147 N1148 1.613 . S
S1147 N1149 1.610 . S
N1148 S1147 1.613 . S
N1148 C1151 1.350 . S
N1149 S1147 1.610 . S
N1149 C1150 1.351 . S
C1150 C1144 1.428 . S
C1150 N1149 1.351 . S
C1150 C1151 1.434 . S
C1151 C1142 1.429 . S
C1151 N1148 1.350 . S
C1151 C1150 1.434 . S
C449 C7 1.184 . S
C451 C301 1.184 . S
C460 C315 1.182 . S
C462 C21 1.182 . S
C471 C35 1.184 . S
C473 C329 1.183 . S
C482 C287 1.179 . S
C484 C49 1.180 . S
C493 C63 1.187 . S
C495 C273 1.186 . S
C504 C77 1.183 . S
C506 C231 1.183 . S
C515 C245 1.185 . S
C517 C91 1.184 . S
C526 C105 1.183 . S
C528 C259 1.183 . S
C537 C119 1.183 . S
C539 C413 1.183 . S
C548 C133 1.179 . S
C550 C427 1.180 . S
C559 C441 1.186 . S
C561 C147 1.185 . S
C570 C399 1.179 . S
C572 C161 1.181 . S
C581 C175 1.182 . S
C583 C385 1.182 . S
C592 C343 1.180 . S
C594 C189 1.181 . S
C603 C203 1.183 . S
C605 C357 1.183 . S
C614 C371 1.187 . S
C616 C217 1.186 . S
C625 C9 1.551 . S
C627 C134 1.558 . S
C636 C23 1.549 . S
C638 C372 1.558 . S
C647 C162 1.556 . S
C649 C37 1.547 . S
C658 C51 1.549 . S
C660 C344 1.557 . S
C669 C65 1.551 . S
C671 C218 1.558 . S
C680 C400 1.556 . S
C682 C79 1.548 . S
C691 C190 1.556 . S
C693 C93 1.547 . S
C702 C428 1.556 . S
C704 C107 1.548 . S
C713 C121 1.545 . S
C715 C22 1.555 . S
C724 C260 1.555 . S
C726 C135 1.547 . S
C735 C50 1.557 . S
C737 C149 1.549 . S
C746 C163 1.549 . S
C748 C232 1.558 . S
C757 C106 1.557 . S
C759 C177 1.548 . S
C768 C288 1.555 . S
C770 C191 1.547 . S
C779 C78 1.555 . S
C781 C205 1.547 . S
C790 C219 1.547 . S
C792 C316 1.556 . S
C801 C358 1.555 . S
C803 C233 1.546 . S
C812 C148 1.558 . S
C814 C247 1.549 . S
C823 C386 1.559 . S
C825 C261 1.550 . S
C834 C275 1.548 . S
C836 C120 1.557 . S
C845 C442 1.559 . S
C847 C289 1.550 . S
C856 C176 1.559 . S
C858 C303 1.550 . S
C867 C414 1.557 . S
C869 C317 1.548 . S
C878 C331 1.546 . S
C880 C204 1.555 . S
C889 C345 1.549 . S
C891 C246 1.557 . S
C900 C36 1.555 . S
C902 C359 1.547 . S
C911 C373 1.551 . S
C913 C274 1.558 . S
C922 C387 1.551 . S
C924 C8 1.558 . S
C933 C401 1.551 . S
C935 C330 1.559 . S
C944 C64 1.557 . S
C946 C415 1.548 . S
C955 C302 1.559 . S
C957 C429 1.550 . S
C966 C443 1.549 . S
C968 C92 1.557 . S
C977 C6 1.527 . S
C979 C62 1.527 . S
C988 C20 1.525 . S
C990 C76 1.526 . S
C999 C90 1.527 . S
C1001 C34 1.526 . S
C1010 C104 1.529 . S
C1012 C48 1.528 . S
C1021 C174 1.528 . S
C1023 C118 1.527 . S
C1032 C188 1.527 . S
C1034 C132 1.526 . S
C1043 C202 1.526 . S
C1045 C146 1.527 . S
C1054 C216 1.526 . S
C1056 C160 1.527 . S
C1065 C230 1.525 . S
C1067 C286 1.526 . S
C1076 C244 1.526 . S
C1078 C300 1.527 . S
C1087 C258 1.525 . S
C1089 C314 1.526 . S
C1098 C328 1.525 . S
C1100 C272 1.526 . S
C1109 C342 1.528 . S
C1111 C398 1.527 . S
C1120 C412 1.525 . S
C1122 C356 1.526 . S
C1131 C426 1.529 . S
C1133 C370 1.529 . S
C1142 C440 1.526 . S
C1144 C384 1.526 . S
