# Generated by pormake.
# Topology soh, (5)-cn, num edge types: 1
# Building blocks:
#     Node 0, Type 0, BuildingBlock: BEQFEK_clean_sbu_0, # of connection points: 5
#     Node 1, Type 0, BuildingBlock: BEQFEK_clean_sbu_0, # of connection points: 5
#     Node 2, Type 0, BuildingBlock: BEQFEK_clean_sbu_0, # of connection points: 5
#     Node 3, Type 0, BuildingBlock: BEQFEK_clean_sbu_0, # of connection points: 5
#     Node 4, Type 0, BuildingBlock: BEQFEK_clean_sbu_0, # of connection points: 5
#     Node 5, Type 0, BuildingBlock: BEQFEK_clean_sbu_0, # of connection points: 5
#     Node 6, Type 0, BuildingBlock: BEQFEK_clean_sbu_0, # of connection points: 5
#     Node 7, Type 0, BuildingBlock: BEQFEK_clean_sbu_0, # of connection points: 5
#     Node 8, Type 0, BuildingBlock: BEQFEK_clean_sbu_0, # of connection points: 5
#     Node 9, Type 0, BuildingBlock: BEQFEK_clean_sbu_0, # of connection points: 5
#     Node 10, Type 0, BuildingBlock: BEQFEK_clean_sbu_0, # of connection points: 5
#     Node 11, Type 0, BuildingBlock: BEQFEK_clean_sbu_0, # of connection points: 5
#     Node 12, Type 0, BuildingBlock: BEQFEK_clean_sbu_0, # of connection points: 5
#     Node 13, Type 0, BuildingBlock: BEQFEK_clean_sbu_0, # of connection points: 5
#     Node 14, Type 0, BuildingBlock: BEQFEK_clean_sbu_0, # of connection points: 5
#     Node 15, Type 0, BuildingBlock: BEQFEK_clean_sbu_0, # of connection points: 5
#     Node 16, Type 0, BuildingBlock: BEQFEK_clean_sbu_0, # of connection points: 5
#     Node 17, Type 0, BuildingBlock: BEQFEK_clean_sbu_0, # of connection points: 5
#     Node 18, Type 0, BuildingBlock: BEQFEK_clean_sbu_0, # of connection points: 5
#     Node 19, Type 0, BuildingBlock: BEQFEK_clean_sbu_0, # of connection points: 5
#     Node 20, Type 0, BuildingBlock: BEQFEK_clean_sbu_0, # of connection points: 5
#     Node 21, Type 0, BuildingBlock: BEQFEK_clean_sbu_0, # of connection points: 5
#     Node 22, Type 0, BuildingBlock: BEQFEK_clean_sbu_0, # of connection points: 5
#     Node 23, Type 0, BuildingBlock: BEQFEK_clean_sbu_0, # of connection points: 5
#     Node 24, Type 0, BuildingBlock: BEQFEK_clean_sbu_0, # of connection points: 5
#     Node 25, Type 0, BuildingBlock: BEQFEK_clean_sbu_0, # of connection points: 5
#     Node 26, Type 0, BuildingBlock: BEQFEK_clean_sbu_0, # of connection points: 5
#     Node 27, Type 0, BuildingBlock: BEQFEK_clean_sbu_0, # of connection points: 5
#     Node 28, Type 0, BuildingBlock: BEQFEK_clean_sbu_0, # of connection points: 5
#     Node 29, Type 0, BuildingBlock: BEQFEK_clean_sbu_0, # of connection points: 5
#     Node 30, Type 0, BuildingBlock: BEQFEK_clean_sbu_0, # of connection points: 5
#     Node 31, Type 0, BuildingBlock: BEQFEK_clean_sbu_0, # of connection points: 5
#     Edge 32, Type (0, 0), BuildingBlock: CIFDUS_clean_linker_0, # of connection points: 2
#     Edge 33, Type (0, 0), BuildingBlock: CIFDUS_clean_linker_0, # of connection points: 2
#     Edge 34, Type (0, 0), BuildingBlock: CIFDUS_clean_linker_0, # of connection points: 2
#     Edge 35, Type (0, 0), BuildingBlock: CIFDUS_clean_linker_0, # of connection points: 2
#     Edge 36, Type (0, 0), BuildingBlock: CIFDUS_clean_linker_0, # of connection points: 2
#     Edge 37, Type (0, 0), BuildingBlock: CIFDUS_clean_linker_0, # of connection points: 2
#     Edge 38, Type (0, 0), BuildingBlock: CIFDUS_clean_linker_0, # of connection points: 2
#     Edge 39, Type (0, 0), BuildingBlock: CIFDUS_clean_linker_0, # of connection points: 2
#     Edge 40, Type (0, 0), BuildingBlock: CIFDUS_clean_linker_0, # of connection points: 2
#     Edge 41, Type (0, 0), BuildingBlock: CIFDUS_clean_linker_0, # of connection points: 2
#     Edge 42, Type (0, 0), BuildingBlock: CIFDUS_clean_linker_0, # of connection points: 2
#     Edge 43, Type (0, 0), BuildingBlock: CIFDUS_clean_linker_0, # of connection points: 2
#     Edge 44, Type (0, 0), BuildingBlock: CIFDUS_clean_linker_0, # of connection points: 2
#     Edge 45, Type (0, 0), BuildingBlock: CIFDUS_clean_linker_0, # of connection points: 2
#     Edge 46, Type (0, 0), BuildingBlock: CIFDUS_clean_linker_0, # of connection points: 2
#     Edge 47, Type (0, 0), BuildingBlock: CIFDUS_clean_linker_0, # of connection points: 2
#     Edge 48, Type (0, 0), BuildingBlock: CIFDUS_clean_linker_0, # of connection points: 2
#     Edge 49, Type (0, 0), BuildingBlock: CIFDUS_clean_linker_0, # of connection points: 2
#     Edge 50, Type (0, 0), BuildingBlock: CIFDUS_clean_linker_0, # of connection points: 2
#     Edge 51, Type (0, 0), BuildingBlock: CIFDUS_clean_linker_0, # of connection points: 2
#     Edge 52, Type (0, 0), BuildingBlock: CIFDUS_clean_linker_0, # of connection points: 2
#     Edge 53, Type (0, 0), BuildingBlock: CIFDUS_clean_linker_0, # of connection points: 2
#     Edge 54, Type (0, 0), BuildingBlock: CIFDUS_clean_linker_0, # of connection points: 2
#     Edge 55, Type (0, 0), BuildingBlock: CIFDUS_clean_linker_0, # of connection points: 2
#     Edge 56, Type (0, 0), BuildingBlock: CIFDUS_clean_linker_0, # of connection points: 2
#     Edge 57, Type (0, 0), BuildingBlock: CIFDUS_clean_linker_0, # of connection points: 2
#     Edge 58, Type (0, 0), BuildingBlock: CIFDUS_clean_linker_0, # of connection points: 2
#     Edge 59, Type (0, 0), BuildingBlock: CIFDUS_clean_linker_0, # of connection points: 2
#     Edge 60, Type (0, 0), BuildingBlock: CIFDUS_clean_linker_0, # of connection points: 2
#     Edge 61, Type (0, 0), BuildingBlock: CIFDUS_clean_linker_0, # of connection points: 2
#     Edge 62, Type (0, 0), BuildingBlock: CIFDUS_clean_linker_0, # of connection points: 2
#     Edge 63, Type (0, 0), BuildingBlock: CIFDUS_clean_linker_0, # of connection points: 2
#     Edge 64, Type (0, 0), BuildingBlock: CIFDUS_clean_linker_0, # of connection points: 2
#     Edge 65, Type (0, 0), BuildingBlock: CIFDUS_clean_linker_0, # of connection points: 2
#     Edge 66, Type (0, 0), BuildingBlock: CIFDUS_clean_linker_0, # of connection points: 2
#     Edge 67, Type (0, 0), BuildingBlock: CIFDUS_clean_linker_0, # of connection points: 2
#     Edge 68, Type (0, 0), BuildingBlock: CIFDUS_clean_linker_0, # of connection points: 2
#     Edge 69, Type (0, 0), BuildingBlock: CIFDUS_clean_linker_0, # of connection points: 2
#     Edge 70, Type (0, 0), BuildingBlock: CIFDUS_clean_linker_0, # of connection points: 2
#     Edge 71, Type (0, 0), BuildingBlock: CIFDUS_clean_linker_0, # of connection points: 2
#     Edge 72, Type (0, 0), BuildingBlock: CIFDUS_clean_linker_0, # of connection points: 2
#     Edge 73, Type (0, 0), BuildingBlock: CIFDUS_clean_linker_0, # of connection points: 2
#     Edge 74, Type (0, 0), BuildingBlock: CIFDUS_clean_linker_0, # of connection points: 2
#     Edge 75, Type (0, 0), BuildingBlock: CIFDUS_clean_linker_0, # of connection points: 2
#     Edge 76, Type (0, 0), BuildingBlock: CIFDUS_clean_linker_0, # of connection points: 2
#     Edge 77, Type (0, 0), BuildingBlock: CIFDUS_clean_linker_0, # of connection points: 2
#     Edge 78, Type (0, 0), BuildingBlock: CIFDUS_clean_linker_0, # of connection points: 2
#     Edge 79, Type (0, 0), BuildingBlock: CIFDUS_clean_linker_0, # of connection points: 2
#     Edge 80, Type (0, 0), BuildingBlock: CIFDUS_clean_linker_0, # of connection points: 2
#     Edge 81, Type (0, 0), BuildingBlock: CIFDUS_clean_linker_0, # of connection points: 2
#     Edge 82, Type (0, 0), BuildingBlock: CIFDUS_clean_linker_0, # of connection points: 2
#     Edge 83, Type (0, 0), BuildingBlock: CIFDUS_clean_linker_0, # of connection points: 2
#     Edge 84, Type (0, 0), BuildingBlock: CIFDUS_clean_linker_0, # of connection points: 2
#     Edge 85, Type (0, 0), BuildingBlock: CIFDUS_clean_linker_0, # of connection points: 2
#     Edge 86, Type (0, 0), BuildingBlock: CIFDUS_clean_linker_0, # of connection points: 2
#     Edge 87, Type (0, 0), BuildingBlock: CIFDUS_clean_linker_0, # of connection points: 2
#     Edge 88, Type (0, 0), BuildingBlock: CIFDUS_clean_linker_0, # of connection points: 2
#     Edge 89, Type (0, 0), BuildingBlock: CIFDUS_clean_linker_0, # of connection points: 2
#     Edge 90, Type (0, 0), BuildingBlock: CIFDUS_clean_linker_0, # of connection points: 2
#     Edge 91, Type (0, 0), BuildingBlock: CIFDUS_clean_linker_0, # of connection points: 2
#     Edge 92, Type (0, 0), BuildingBlock: CIFDUS_clean_linker_0, # of connection points: 2
#     Edge 93, Type (0, 0), BuildingBlock: CIFDUS_clean_linker_0, # of connection points: 2
#     Edge 94, Type (0, 0), BuildingBlock: CIFDUS_clean_linker_0, # of connection points: 2
#     Edge 95, Type (0, 0), BuildingBlock: CIFDUS_clean_linker_0, # of connection points: 2
#     Edge 96, Type (0, 0), BuildingBlock: CIFDUS_clean_linker_0, # of connection points: 2
#     Edge 97, Type (0, 0), BuildingBlock: CIFDUS_clean_linker_0, # of connection points: 2
#     Edge 98, Type (0, 0), BuildingBlock: CIFDUS_clean_linker_0, # of connection points: 2
#     Edge 99, Type (0, 0), BuildingBlock: CIFDUS_clean_linker_0, # of connection points: 2
#     Edge 100, Type (0, 0), BuildingBlock: CIFDUS_clean_linker_0, # of connection points: 2
#     Edge 101, Type (0, 0), BuildingBlock: CIFDUS_clean_linker_0, # of connection points: 2
#     Edge 102, Type (0, 0), BuildingBlock: CIFDUS_clean_linker_0, # of connection points: 2
#     Edge 103, Type (0, 0), BuildingBlock: CIFDUS_clean_linker_0, # of connection points: 2
#     Edge 104, Type (0, 0), BuildingBlock: CIFDUS_clean_linker_0, # of connection points: 2
#     Edge 105, Type (0, 0), BuildingBlock: CIFDUS_clean_linker_0, # of connection points: 2
#     Edge 106, Type (0, 0), BuildingBlock: CIFDUS_clean_linker_0, # of connection points: 2
#     Edge 107, Type (0, 0), BuildingBlock: CIFDUS_clean_linker_0, # of connection points: 2
#     Edge 108, Type (0, 0), BuildingBlock: CIFDUS_clean_linker_0, # of connection points: 2
#     Edge 109, Type (0, 0), BuildingBlock: CIFDUS_clean_linker_0, # of connection points: 2
#     Edge 110, Type (0, 0), BuildingBlock: CIFDUS_clean_linker_0, # of connection points: 2
#     Edge 111, Type (0, 0), BuildingBlock: CIFDUS_clean_linker_0, # of connection points: 2
# Relax obj value: 0.430
# Max RMSD: 0.186
# Mean RMSD: 0.186
data_MOF--net-soh--node1-BEQFEK_clean_sbu_0--edge1-CIFDUS_clean_linker_0
_symmetry_space_group_name_H-M    P1
_symmetry_Int_Tables_number       1
_symmetry_cell_setting            triclinic
loop_
_symmetry_equiv_pos_as_xyz
'x, y, z'
_cell_length_a     68.18494
_cell_length_b     36.442786
_cell_length_c     43.014198
_cell_angle_alpha  89.916708
_cell_angle_beta   89.974483
_cell_angle_gamma 89.992183
loop_
_atom_site_label
_atom_site_type_symbol
_atom_site_fract_x
_atom_site_fract_y
_atom_site_fract_z
_atom_type_partial_charge
Co0 Co 0.30059 0.32043 0.18332 0.0
Co1 Co 0.29031 0.38308 0.22726 0.0
C2 C 0.33254 0.36701 0.20451 0.0
O3 O 0.3283 0.33722 0.19065 0.0
O4 O 0.31912 0.38593 0.21739 0.0
C5 C 0.3159 0.25216 0.16154 0.0
O6 O 0.33209 0.26447 0.17435 0.0
C7 C 0.29982 0.40767 0.2876 0.0
C8 C 0.27411 0.43966 0.30259 0.0
C9 C 0.29126 0.42351 0.31337 0.0
N10 N 0.28805 0.41291 0.26302 0.0
N11 N 0.27296 0.43315 0.27177 0.0
C12 C 0.31824 0.38513 0.28676 0.0
H13 H 0.31514 0.3578 0.27653 0.0
H14 H 0.32496 0.38191 0.31006 0.0
H15 H 0.32918 0.39921 0.27188 0.0
C16 C 0.28571 0.27544 0.24005 0.0
N17 N 0.28844 0.30703 0.22338 0.0
N18 N 0.28168 0.33449 0.23976 0.0
C19 C 0.27323 0.32119 0.26608 0.0
C20 C 0.27592 0.28304 0.26818 0.0
C21 C 0.29426 0.23929 0.23086 0.0
H22 H 0.28618 0.22855 0.21044 0.0
H23 H 0.30983 0.24315 0.22426 0.0
H24 H 0.29358 0.21891 0.24995 0.0
O25 O 0.28657 0.36206 0.15628 0.0
O26 O 0.2765 0.40364 0.1904 0.0
H27 H 0.24912 0.32661 0.29818 0.0
H28 H 0.26952 0.35626 0.30551 0.0
C29 C 0.26057 0.34382 0.28702 0.0
H30 H 0.25351 0.3662 0.27358 0.0
H31 H 0.26108 0.43961 0.2575 0.0
O32 O 0.30107 0.27331 0.15997 0.0
C33 C 0.27793 0.39278 0.16226 0.0
Co34 Co 0.98015 0.98223 0.18352 0.0
Co35 Co 0.99115 0.91974 0.22857 0.0
C36 C 0.94868 0.93564 0.21271 0.0
O37 O 0.95395 0.96228 0.19542 0.0
O38 O 0.96136 0.91628 0.22719 0.0
C39 C 0.95876 0.03932 0.15094 0.0
O40 O 0.94376 1.01674 0.152 0.0
C41 C 0.99345 0.89088 0.2908 0.0
C42 C 0.0222 0.86302 0.29076 0.0
C43 C 1.00744 0.87548 0.31029 0.0
N44 N 0.99991 0.88851 0.26136 0.0
N45 N 0.01676 0.87061 0.26132 0.0
C46 C 0.9761 0.91363 0.30022 0.0
H47 H 0.97314 0.93523 0.28267 0.0
H48 H 0.97832 0.92662 0.32325 0.0
H49 H 0.96303 0.89559 0.30172 0.0
C50 C 0.99737 0.02937 0.23485 0.0
N51 N 0.99389 0.99636 0.22113 0.0
N52 N 0.99989 0.97006 0.23975 0.0
C53 C 1.00826 0.9861 0.26526 0.0
C54 C 1.00666 0.02438 0.26352 0.0
C55 C 0.99014 0.06513 0.22231 0.0
H56 H 0.97534 0.06156 0.21215 0.0
H57 H 0.98932 0.08641 0.24066 0.0
H58 H 1.00041 0.07457 0.20399 0.0
O59 O 0.99403 0.94501 0.15465 0.0
O60 O 1.00076 0.89903 0.1867 0.0
H61 H 0.0256 0.94056 0.2808 0.0
H62 H 0.03109 0.98342 0.29967 0.0
C63 C 0.01913 0.96607 0.29016 0.0
H64 H 1.00901 0.95976 0.30956 0.0
H65 H 0.02549 0.86696 0.24163 0.0
O66 O 0.97544 0.02848 0.16051 0.0
C67 C 1.00053 0.91241 0.15915 0.0
Co68 Co 0.29864 0.97503 0.12218 0.0
Co69 Co 0.2924 0.91399 0.07361 0.0
C70 C 0.33312 0.93306 0.09806 0.0
O71 O 0.32653 0.95963 0.1142 0.0
O72 O 0.32155 0.91328 0.08199 0.0
C73 C 0.31561 0.03319 0.15894 0.0
O74 O 0.33099 1.01153 0.16024 0.0
C75 C 0.30027 0.89272 1.01147 0.0
C76 C 0.27616 0.85527 0.99873 0.0
C77 C 0.29201 0.87439 0.98648 0.0
N78 N 0.28978 0.88508 0.03707 0.0
N79 N 0.27564 0.86193 0.0296 0.0
C80 C 0.31551 0.92245 1.01018 0.0
H81 H 0.31425 0.94115 0.0303 0.0
H82 H 0.31413 0.93903 0.98865 0.0
H83 H 0.3303 0.90973 1.01055 0.0
C84 C 0.28247 1.02226 0.06933 0.0
N85 N 0.2865 0.98923 0.08278 0.0
N86 N 0.28255 0.96314 0.06275 0.0
C87 C 0.27504 0.97893 0.03646 0.0
C88 C 0.27497 1.01728 0.03925 0.0
C89 C 0.28766 0.05826 0.08374 0.0
H90 H 0.30204 0.0561 0.09557 0.0
H91 H 0.28852 0.08049 0.06616 0.0
H92 H 0.27629 0.0654 0.10113 0.0
O93 O 0.28528 0.93283 0.14775 0.0
O94 O 0.28056 0.88971 0.11206 0.0
H95 H 0.25446 0.97345 0.99886 0.0
H96 H 0.27826 0.95475 0.99144 0.0
C97 C 0.26682 0.9581 1.00951 0.0
H98 H 0.26151 0.93082 1.01712 0.0
H99 H 0.26477 0.85303 0.04495 0.0
O100 O 0.29984 1.02125 0.14681 0.0
C101 C 0.27966 0.90027 0.14046 0.0
Co102 Co 0.97583 0.3225 0.12049 0.0
Co103 Co 0.9891 0.38141 0.07486 0.0
C104 C 0.94571 0.3708 0.09428 0.0
O105 O 0.94918 0.342 0.11013 0.0
O106 O 0.9597 0.38793 0.08089 0.0
C107 C 0.95762 0.25758 0.14478 0.0
O108 O 0.94204 0.26975 0.13006 0.0
C109 C 0.98767 0.40363 1.01122 0.0
C110 C 1.01015 0.44694 1.00709 0.0
C111 C 0.99717 0.42578 0.98998 0.0
N112 N 0.9949 0.41061 0.03958 0.0
N113 N 1.00808 0.43706 0.03718 0.0
C114 C 0.97246 0.37503 1.0044 0.0
H115 H 0.97966 0.34913 0.99724 0.0
H116 H 0.96288 0.38417 0.98502 0.0
H117 H 0.96347 0.36912 1.02523 0.0
C118 C 0.99242 0.27234 0.06894 0.0
N119 N 0.98922 0.30567 0.08249 0.0
N120 N 0.99679 0.33114 0.06458 0.0
C121 C 1.00606 0.31455 0.04023 0.0
C122 C 1.00309 0.27655 0.04124 0.0
C123 C 0.98424 0.2371 0.08109 0.0
H124 H 0.96829 0.24032 0.08508 0.0
H125 H 0.98655 0.21406 0.06469 0.0
H126 H 0.99142 0.23049 0.10352 0.0
O127 O 0.98988 0.36262 0.1477 0.0
O128 O 1.00185 0.40204 0.11334 0.0
H129 H 0.03496 0.32074 1.02216 0.0
H130 H 0.01608 0.32818 0.99455 0.0
C131 C 0.02024 0.33323 1.01897 0.0
H132 H 0.02137 0.36292 1.02384 0.0
H133 H 0.01631 0.4471 0.05577 0.0
O134 O 0.97286 0.27764 0.14589 0.0
C135 C 0.99938 0.39225 0.14164 0.0
Co136 Co 0.72942 0.71995 0.87252 0.0
Co137 Co 0.74128 0.6615 0.82501 0.0
C138 C 0.69829 0.67451 0.84233 0.0
O139 O 0.7028 0.69927 0.86202 0.0
O140 O 0.71152 0.65856 0.82623 0.0
C141 C 0.70972 0.77941 0.90493 0.0
O142 O 0.69362 0.76027 0.90074 0.0
C143 C 0.74299 0.63812 0.76169 0.0
C144 C 0.77053 0.60632 0.75996 0.0
C145 C 0.75639 0.62261 0.74127 0.0
N146 N 0.74929 0.63227 0.79083 0.0
N147 N 0.76537 0.61209 0.78979 0.0
C148 C 0.72658 0.66403 0.75384 0.0
H149 H 0.72283 0.68162 0.77394 0.0
H150 H 0.7304 0.68187 0.73384 0.0
H151 H 0.71342 0.64781 0.74743 0.0
C152 C 0.74524 0.77024 0.82038 0.0
N153 N 0.74264 0.7368 0.83417 0.0
N154 N 0.74984 0.71157 0.81568 0.0
C155 C 0.75823 0.72847 0.79059 0.0
C156 C 0.75522 0.76643 0.79199 0.0
C157 C 0.73664 0.80512 0.83246 0.0
H158 H 0.72261 0.79954 0.84453 0.0
H159 H 0.73396 0.82497 0.81335 0.0
H160 H 0.74713 0.81761 0.84902 0.0
O161 O 0.74345 0.68071 0.90037 0.0
O162 O 0.75165 0.63905 0.86538 0.0
H163 H 0.78345 0.72766 0.7607 0.0
H164 H 0.76246 0.7047 0.7456 0.0
C165 C 0.77092 0.70973 0.76711 0.0
H166 H 0.7767 0.68359 0.77649 0.0
H167 H 0.77385 0.60545 0.8092 0.0
O168 O 0.72611 0.76566 0.89702 0.0
C169 C 0.75086 0.64926 0.89383 0.0
Co170 Co 0.05211 0.07381 0.86813 0.0
Co171 Co 0.03919 0.13628 0.82464 0.0
C172 C 0.08222 0.12486 0.84343 0.0
O173 O 0.07856 0.0956 0.85852 0.0
O174 O 0.06839 0.14256 0.83033 0.0
C175 C 0.07238 1.00777 0.8814 0.0
O176 O 0.0838 1.02132 0.85963 0.0
C177 C 0.04251 0.16399 0.76279 0.0
C178 C 0.01602 0.1979 0.75636 0.0
C179 C 0.03176 0.18261 0.74052 0.0
N180 N 0.03326 0.167 0.79021 0.0
N181 N 0.01768 0.18814 0.78651 0.0
C182 C 0.06091 0.14213 0.75808 0.0
H183 H 0.0726 0.15319 0.77329 0.0
H184 H 0.05835 0.11313 0.76481 0.0
H185 H 0.0663 0.14363 0.7338 0.0
C186 C 0.03543 0.02779 0.81254 0.0
N187 N 0.03857 0.05951 0.82891 0.0
N188 N 0.03137 0.08682 0.81265 0.0
C189 C 0.02248 0.0732 0.7868 0.0
C190 C 0.02531 0.03519 0.78464 0.0
C191 C 0.04375 0.99151 0.8217 0.0
H192 H 0.04012 0.98572 0.84633 0.0
H193 H 0.05986 0.99278 0.81891 0.0
H194 H 0.03827 0.96881 0.80707 0.0
O195 O 0.03756 0.1128 0.89757 0.0
O196 O 0.02695 0.1547 0.86408 0.0
H197 H 0.99732 0.07764 0.75682 0.0
H198 H 0.01752 0.1064 0.7467 0.0
C199 C 1.00918 0.09518 0.76639 0.0
H200 H 1.00261 0.11818 0.77965 0.0
H201 H 1.0075 0.19375 0.80399 0.0
O202 O 0.05777 0.02668 0.89072 0.0
C203 C 0.02869 0.14349 0.89214 0.0
Co204 Co 0.73289 0.06667 0.9353 0.0
Co205 Co 0.7388 0.13189 0.97953 0.0
C206 C 0.69814 0.108 0.95691 0.0
O207 O 0.70485 0.08056 0.94218 0.0
O208 O 0.70976 0.12961 0.97096 0.0
C209 C 0.71787 0.99707 0.91862 0.0
O210 O 0.7032 1.0092 0.93547 0.0
C211 C 0.72924 0.15148 0.04086 0.0
C212 C 0.75131 0.19239 0.05477 0.0
C213 C 0.73694 0.1691 0.06646 0.0
N214 N 0.73912 0.16224 1.01545 0.0
N215 N 0.75183 0.18787 1.02359 0.0
C216 C 0.7135 0.12266 0.04077 0.0
H217 H 0.7007 0.13317 1.02763 0.0
H218 H 0.71879 0.09752 0.02897 0.0
H219 H 0.70832 0.11584 0.06451 0.0
C220 C 0.75071 0.02511 0.9915 0.0
N221 N 0.74548 0.0561 0.97557 0.0
N222 N 0.75033 0.08474 0.99231 0.0
C223 C 0.76011 0.07288 1.01809 0.0
C224 C 0.75994 0.03434 1.01964 0.0
C225 C 0.74811 0.98708 0.97922 0.0
H226 H 0.75344 0.9859 0.95492 0.0
H227 H 0.73231 0.97991 0.97956 0.0
H228 H 0.75636 0.96664 0.99316 0.0
O229 O 0.7456 0.10899 0.90776 0.0
O230 O 0.75126 0.15418 0.94129 0.0
H231 H 0.78761 0.09505 0.03187 0.0
H232 H 0.77077 0.08903 0.06335 0.0
C233 C 0.77197 0.0974 0.03867 0.0
H234 H 0.76806 0.12633 0.03573 0.0
H235 H 0.76214 0.19945 1.00856 0.0
O236 O 0.73229 1.01844 0.91312 0.0
C237 C 0.75177 0.14181 0.91341 0.0
Co238 Co 0.0493 0.73031 0.93921 0.0
Co239 Co 0.04181 0.66214 0.98066 0.0
C240 C 0.08279 0.68293 0.96573 0.0
O241 O 0.07626 0.71072 0.95084 0.0
O242 O 0.07106 0.66043 0.97873 0.0
C243 C 0.06456 0.80081 0.94084 0.0
O244 O 0.06984 0.78743 0.96795 0.0
C245 C 0.04211 0.61766 0.03745 0.0
C246 C 1.01039 0.60931 0.04394 0.0
C247 C 0.02815 0.60776 0.05968 0.0
N248 N 0.0328 0.62729 1.01105 0.0
N249 N 1.01392 0.62054 1.01468 0.0
C250 C 0.06395 0.61906 0.04126 0.0
H251 H 0.07103 0.60636 1.02068 0.0
H252 H 0.06902 0.64792 0.0424 0.0
H253 H 0.06868 0.60409 0.06247 0.0
C254 C 0.02647 0.76894 0.99083 0.0
N255 N 0.03349 0.73831 0.97636 0.0
N256 N 0.03316 0.7108 0.99603 0.0
C257 C 0.02739 0.72401 1.02425 0.0
C258 C 0.02268 0.76146 1.02225 0.0
C259 C 0.02161 0.80392 0.97438 0.0
H260 H 0.02162 0.79998 0.94882 0.0
H261 H 0.03235 0.82528 0.98073 0.0
H262 H 1.00697 0.81382 0.98196 0.0
O263 O 0.03754 0.69424 0.90707 0.0
O264 O 0.03172 0.64571 0.93685 0.0
H265 H 0.0168 0.68456 0.05686 0.0
H266 H 0.03062 0.72133 0.07437 0.0
C267 C 0.02954 0.70308 0.05386 0.0
H268 H 0.0432 0.68709 0.05279 0.0
H269 H 1.00321 0.62743 0.99836 0.0
O270 O 0.05516 0.78024 0.92203 0.0
C271 C 0.0317 0.66084 0.90984 0.0
Co272 Co 0.30162 0.83324 0.69415 0.0
Co273 Co 0.29235 0.89779 0.738 0.0
C274 C 0.33392 0.88333 0.71586 0.0
O275 O 0.32888 0.8539 0.70209 0.0
O276 O 0.32112 0.90274 0.72959 0.0
C277 C 0.31949 0.76535 0.69002 0.0
O278 O 0.32696 0.77907 0.71564 0.0
C279 C 0.30047 0.93152 0.79402 0.0
C280 C 0.28871 0.94108 0.78448 0.0
C281 C 0.29512 0.95586 0.81535 0.0
N282 N 0.28797 0.9324 0.77107 0.0
N283 N 0.27336 0.95697 0.76962 0.0
C284 C 0.31828 0.90302 0.79793 0.0
H285 H 0.31612 0.87871 0.78291 0.0
H286 H 0.3198 0.89317 0.82213 0.0
H287 H 0.33219 0.91682 0.79134 0.0
C288 C 0.28178 0.78957 0.74818 0.0
N289 N 0.2876 0.82119 0.73354 0.0
N290 N 0.28462 0.84876 0.75261 0.0
C291 C 0.27737 0.83536 0.77991 0.0
C292 C 0.27594 0.79692 0.77898 0.0
C293 C 0.28062 0.75294 0.73271 0.0
H294 H 0.28293 0.75521 0.70742 0.0
H295 H 0.29128 0.73384 0.74353 0.0
H296 H 0.26577 0.74127 0.73571 0.0
O297 O 0.28758 0.87111 0.66419 0.0
O298 O 0.27952 0.91489 0.69771 0.0
H299 H 0.26305 0.88384 0.79662 0.0
H300 H 0.25954 0.84409 0.82078 0.0
C301 C 0.27026 0.85896 0.80599 0.0
H302 H 0.28289 0.86706 0.82063 0.0
H303 H 0.26553 0.95276 0.7491 0.0
O304 O 0.30774 0.78512 0.67407 0.0
C305 C 0.27994 0.90281 0.66972 0.0
Co306 Co 0.97823 0.47478 0.68656 0.0
Co307 Co 0.99248 0.41288 0.72902 0.0
C308 C 0.94904 0.42267 0.71123 0.0
O309 O 0.95207 0.45261 0.69677 0.0
O310 O 0.9633 0.40531 0.72349 0.0
C311 C 0.95782 0.54021 0.67115 0.0
O312 O 0.94693 0.52952 0.69466 0.0
C313 C 0.9897 0.38395 0.79046 0.0
C314 C 0.01703 0.35238 0.79667 0.0
C315 C 1.00092 0.36611 0.8126 0.0
N316 N 0.99902 0.38207 0.76305 0.0
N317 N 1.0151 0.36226 0.76658 0.0
C318 C 0.97079 0.40417 0.7953 0.0
H319 H 0.95937 0.39216 0.78011 0.0
H320 H 0.97263 0.4334 0.78864 0.0
H321 H 0.96545 0.4021 0.81958 0.0
C322 C 0.99475 0.52149 0.74196 0.0
N323 N 0.99193 0.48978 0.72543 0.0
N324 N 0.99968 0.46267 0.74129 0.0
C325 C 1.00861 0.47645 0.76703 0.0
C326 C 1.00528 0.51432 0.76957 0.0
C327 C 0.98578 0.55739 0.73315 0.0
H328 H 0.98889 0.56329 0.70836 0.0
H329 H 0.96972 0.55551 0.73654 0.0
H330 H 0.99122 0.58033 0.74754 0.0
O331 O 0.99264 0.43632 0.65694 0.0
O332 O 1.0049 0.39517 0.68958 0.0
H333 H 0.03386 0.47275 0.79695 0.0
H334 H 1.01415 0.44248 0.80652 0.0
C335 C 0.0223 0.45478 0.78706 0.0
H336 H 0.02924 0.43255 0.77336 0.0
H337 H 0.02543 0.3578 0.74908 0.0
O338 O 0.97226 0.52046 0.66264 0.0
C339 C 1.00227 0.40637 0.66172 0.0
Co340 Co 0.29949 0.48814 0.63025 0.0
Co341 Co 0.29293 0.42614 0.58288 0.0
C342 C 0.33365 0.4448 0.6055 0.0
O343 O 0.32719 0.47152 0.62141 0.0
O344 O 0.32184 0.42469 0.59046 0.0
C345 C 0.31616 0.55608 0.63572 0.0
O346 O 0.32289 0.54314 0.60931 0.0
C347 C 0.30166 0.40617 0.52112 0.0
C348 C 0.27713 0.3709 0.50646 0.0
C349 C 0.29316 0.39044 0.4953 0.0
N350 N 0.29083 0.39769 0.54621 0.0
N351 N 0.2765 0.37557 0.53758 0.0
C352 C 0.31925 0.4309 0.52179 0.0
H353 H 0.31553 0.45709 0.53352 0.0
H354 H 0.32523 0.43642 0.49829 0.0
H355 H 0.33108 0.4173 0.53518 0.0
C356 C 0.27798 0.53281 0.57844 0.0
N357 N 0.28533 0.50139 0.59147 0.0
N358 N 0.28266 0.4745 0.57168 0.0
C359 C 0.27348 0.48789 0.54588 0.0
C360 C 0.27127 0.52599 0.54797 0.0
C361 C 0.27488 0.56782 0.59589 0.0
H362 H 0.28004 0.56597 0.62004 0.0
H363 H 0.28188 0.59101 0.58339 0.0
H364 H 0.25896 0.57339 0.59764 0.0
O365 O 0.28628 0.44597 0.65726 0.0
O366 O 0.28043 0.40351 0.62122 0.0
H367 H 0.24957 0.47951 0.5138 0.0
H368 H 0.27174 0.45622 0.50422 0.0
C369 C 0.26229 0.4644 0.52362 0.0
H370 H 0.2569 0.4394 0.53557 0.0
H371 H 0.26535 0.36642 0.5523 0.0
O372 O 0.30491 0.53571 0.65214 0.0
C373 C 0.27988 0.4138 0.64975 0.0
Co374 Co 0.97694 0.81931 0.61862 0.0
Co375 Co 0.9909 0.88235 0.57551 0.0
C376 C 0.94754 0.87071 0.59175 0.0
O377 O 0.95099 0.84122 0.60669 0.0
O378 O 0.96157 0.88888 0.57961 0.0
C379 C 0.95653 0.75347 0.633 0.0
O380 O 0.94667 0.76307 0.60804 0.0
C381 C 0.98839 0.91771 0.51551 0.0
C382 C 0.0194 0.9285 0.50481 0.0
C383 C 1.00111 0.92487 0.49085 0.0
N384 N 0.99889 0.9139 0.54179 0.0
N385 N 0.0173 0.92238 0.53556 0.0
C386 C 0.96646 0.9159 0.51471 0.0
H387 H 0.96039 0.93133 0.5347 0.0
H388 H 0.96162 0.8869 0.51659 0.0
H389 H 0.96052 0.92857 0.49321 0.0
C390 C 0.99595 0.77164 0.56778 0.0
N391 N 0.99177 0.80463 0.58135 0.0
N392 N 0.99758 0.83111 0.56268 0.0
C393 C 1.00543 0.81525 0.53661 0.0
C394 C 1.00448 0.77689 0.5384 0.0
C395 C 0.99026 0.73544 0.58137 0.0
H396 H 0.97456 0.73075 0.57635 0.0
H397 H 0.9985 0.71235 0.57106 0.0
H398 H 0.99269 0.73553 0.60683 0.0
O399 O 0.9904 0.85695 0.64805 0.0
O400 O 1.00202 0.90095 0.61759 0.0
H401 H 0.02278 0.81753 0.49451 0.0
H402 H 1.0028 0.84951 0.49687 0.0
C403 C 1.01451 0.83586 0.51035 0.0
H404 H 0.02487 0.85632 0.51973 0.0
H405 H 0.0288 0.91969 0.55141 0.0
O406 O 0.97031 0.77409 0.64269 0.0
C407 C 0.99921 0.88794 0.64498 0.0
Co408 Co 0.72447 0.23098 0.37493 0.0
Co409 Co 0.7332 0.16458 0.33387 0.0
C410 C 0.69124 0.18777 0.35321 0.0
O411 O 0.69686 0.21713 0.36643 0.0
O412 O 0.70375 0.16568 0.3416 0.0
C413 C 0.70964 0.29044 0.4126 0.0
O414 O 0.69456 0.2689 0.41792 0.0
C415 C 0.72465 0.13867 0.27321 0.0
C416 C 0.75129 0.10869 0.25949 0.0
C417 C 0.73436 0.12463 0.24762 0.0
N418 N 0.73571 0.13321 0.29864 0.0
N419 N 0.7513 0.11391 0.29056 0.0
C420 C 0.70569 0.15954 0.2732 0.0
H421 H 0.70815 0.18773 0.28212 0.0
H422 H 0.69893 0.16068 0.24978 0.0
H423 H 0.69512 0.14543 0.2887 0.0
C424 C 0.74063 0.27181 0.31816 0.0
N425 N 0.73732 0.24108 0.33554 0.0
N426 N 0.74349 0.2124 0.32009 0.0
C427 C 0.7523 0.22431 0.2935 0.0
C428 C 0.75032 0.26261 0.29038 0.0
C429 C 0.73276 0.30883 0.32642 0.0
H430 H 0.71993 0.30622 0.3421 0.0
H431 H 0.72835 0.32413 0.30522 0.0
H432 H 0.74439 0.3247 0.3384 0.0
O433 O 0.73681 0.19036 0.40345 0.0
O434 O 0.74541 0.14377 0.37325 0.0
H435 H 0.77712 0.21662 0.26326 0.0
H436 H 0.75625 0.18886 0.25444 0.0
C437 C 0.76496 0.20044 0.2736 0.0
H438 H 0.77115 0.17766 0.28761 0.0
H439 H 0.76291 0.10782 0.30549 0.0
O440 O 0.72409 0.27841 0.397 0.0
C441 C 0.74415 0.158 0.40037 0.0
Co442 Co 0.04902 0.57076 0.36812 0.0
Co443 Co 0.0416 0.63257 0.31999 0.0
C444 C 0.08254 0.61509 0.33958 0.0
O445 O 0.0759 0.58932 0.35656 0.0
O446 O 0.07092 0.6353 0.32405 0.0
C447 C 0.06605 0.50292 0.3694 0.0
O448 O 0.07088 0.51658 0.34218 0.0
C449 C 0.04516 0.66202 0.25802 0.0
C450 C 0.01651 0.68849 0.25014 0.0
C451 C 0.03345 0.67722 0.23502 0.0
N452 N 0.03545 0.66348 0.28523 0.0
N453 N 0.0186 0.68057 0.28062 0.0
C454 C 0.06365 0.64042 0.25335 0.0
H455 H 0.06312 0.61469 0.26713 0.0
H456 H 0.06617 0.63367 0.22854 0.0
H457 H 0.07624 0.65685 0.26189 0.0
C458 C 0.02618 0.52565 0.31996 0.0
N459 N 0.03368 0.55782 0.33104 0.0
N460 N 0.03257 0.58277 0.30903 0.0
C461 C 0.02519 0.56645 0.28295 0.0
C462 C 0.02145 0.52927 0.28838 0.0
C463 C 0.0217 0.49284 0.33968 0.0
H464 H 0.02698 0.49611 0.36374 0.0
H465 H 0.02768 0.46765 0.32881 0.0
H466 H 1.00558 0.4895 0.3412 0.0
O467 O 0.03633 0.61049 0.39678 0.0
O468 O 0.03005 0.65323 0.36113 0.0
H469 H 1.00933 0.57003 0.23953 0.0
H470 H 0.03308 0.59129 0.23976 0.0
C471 C 0.01974 0.58624 0.25381 0.0
H472 H 1.01256 0.61246 0.2597 0.0
H473 H 1.00775 0.68352 0.29755 0.0
O474 O 0.05608 0.52276 0.38812 0.0
C475 C 0.02977 0.64257 0.38968 0.0
Co476 Co 0.73394 0.57626 0.44018 0.0
Co477 Co 0.74257 0.64031 0.48424 0.0
C478 C 0.70134 0.62646 0.46459 0.0
O479 O 0.70674 0.59842 0.44888 0.0
O480 O 0.71381 0.64533 0.47971 0.0
C481 C 0.71647 0.50782 0.42978 0.0
O482 O 0.7055 0.51939 0.45289 0.0
C483 C 0.74117 0.68474 0.54002 0.0
C484 C 0.77241 0.68469 0.5527 0.0
C485 C 0.7538 0.68992 0.56525 0.0
N486 N 0.75171 0.67331 0.5155 0.0
N487 N 0.77047 0.67534 0.52268 0.0
C488 C 0.71942 0.69006 0.53863 0.0
H489 H 0.71529 0.70113 0.51551 0.0
H490 H 0.71191 0.66329 0.5417 0.0
H491 H 0.71445 0.70981 0.55661 0.0
C492 C 0.75295 0.53131 0.49312 0.0
N493 N 0.74756 0.56338 0.4789 0.0
N494 N 0.74907 0.59023 0.499 0.0
C495 C 0.75395 0.57554 0.52715 0.0
C496 C 0.75726 0.53749 0.5247 0.0
C497 C 0.7545 0.4953 0.47671 0.0
H498 H 0.75711 0.49958 0.45152 0.0
H499 H 0.74067 0.47974 0.47996 0.0
H500 H 0.76669 0.47876 0.48652 0.0
O501 O 0.74848 0.61165 0.41056 0.0
O502 O 0.75392 0.65814 0.44248 0.0
H503 H 0.76543 0.61106 0.56213 0.0
H504 H 0.74864 0.57703 0.57676 0.0
C505 C 0.75174 0.59588 0.5571 0.0
H506 H 0.73928 0.61514 0.55533 0.0
H507 H 0.78179 0.66606 0.50837 0.0
O508 O 0.72943 0.52923 0.41866 0.0
C509 C 0.75473 0.64433 0.41519 0.0
Co510 Co 0.05413 0.22928 0.43298 0.0
Co511 Co 0.04051 0.16962 0.47909 0.0
C512 C 0.08354 0.17839 0.4613 0.0
O513 O 0.08011 0.20642 0.44451 0.0
O514 O 0.06956 0.16214 0.47523 0.0
C515 C 0.07531 0.29397 0.42258 0.0
O516 O 0.08446 0.2803 0.44684 0.0
C517 C 0.04264 0.14353 0.54142 0.0
C518 C 0.01755 0.10582 0.5466 0.0
C519 C 0.03248 0.12288 0.56303 0.0
N520 N 0.03399 0.13957 0.51364 0.0
N521 N 0.01924 0.11629 0.51659 0.0
C522 C 0.06001 0.16789 0.54708 0.0
H523 H 0.05731 0.19551 0.53716 0.0
H524 H 0.06365 0.1702 0.57211 0.0
H525 H 0.07294 0.1562 0.53501 0.0
C526 C 0.03475 0.27916 0.48288 0.0
N527 N 0.03942 0.24582 0.47028 0.0
N528 N 0.03298 0.22009 0.48915 0.0
C529 C 0.02374 0.23645 0.51365 0.0
C530 C 0.02518 0.27452 0.51145 0.0
C531 C 0.03984 0.31531 0.46867 0.0
H532 H 0.03823 0.31405 0.44308 0.0
H533 H 0.05516 0.32199 0.47493 0.0
H534 H 0.03045 0.33769 0.47763 0.0
O535 O 0.03976 0.19037 0.40437 0.0
O536 O 0.02899 0.15006 0.43921 0.0
H537 H 0.99626 0.22953 0.53656 0.0
H538 H 0.01705 0.2222 0.56043 0.0
C539 C 1.01116 0.21722 0.53693 0.0
H540 H 1.00978 0.18766 0.53204 0.0
H541 H 1.0097 0.10923 0.4986 0.0
O542 O 0.0616 0.27521 0.41013 0.0
C543 C 0.03085 0.16007 0.41081 0.0
Co544 Co 0.80581 0.31193 0.68227 0.0
Co545 Co 0.79169 0.37422 0.72623 0.0
C546 C 0.83497 0.36402 0.70895 0.0
O547 O 0.83178 0.33509 0.69323 0.0
O548 O 0.82083 0.38089 0.72189 0.0
C549 C 0.82724 0.24649 0.67126 0.0
O550 O 0.8376 0.26091 0.6939 0.0
C551 C 0.79451 0.39503 0.78969 0.0
C552 C 0.76708 0.42484 0.79937 0.0
C553 C 0.78298 0.40809 0.81377 0.0
N554 N 0.78549 0.4021 0.76254 0.0
N555 N 0.76937 0.42101 0.76834 0.0
C556 C 0.8135 0.37449 0.79229 0.0
H557 H 0.81182 0.34655 0.78244 0.0
H558 H 0.8188 0.37281 0.8166 0.0
H559 H 0.8249 0.38905 0.77869 0.0
C560 C 0.78706 0.26467 0.7342 0.0
N561 N 0.79129 0.29721 0.71988 0.0
N562 N 0.78379 0.32386 0.73659 0.0
C563 C 0.77395 0.30884 0.76115 0.0
C564 C 0.77627 0.27074 0.76148 0.0
C565 C 0.79443 0.22833 0.7234 0.0
H566 H 0.79174 0.22528 0.69815 0.0
H567 H 0.81034 0.22723 0.72815 0.0
H568 H 0.78756 0.20506 0.73582 0.0
O569 O 0.79088 0.35014 0.65343 0.0
O570 O 0.78083 0.39449 0.68542 0.0
H571 H 0.74709 0.31147 0.7872 0.0
H572 H 0.76688 0.33712 0.80311 0.0
C573 C 0.75976 0.32926 0.78116 0.0
H574 H 0.75433 0.35403 0.76896 0.0
H575 H 0.75905 0.42828 0.7515 0.0
O576 O 0.81286 0.26481 0.6602 0.0
C577 C 0.78256 0.38161 0.6578 0.0
Co578 Co 0.48099 0.97628 0.6869 0.0
Co579 Co 0.49295 0.91123 0.72732 0.0
C580 C 0.44991 0.92754 0.70934 0.0
O581 O 0.45388 0.95807 0.69653 0.0
O582 O 0.46366 0.90787 0.7204 0.0
C583 C 0.46376 0.04458 0.67411 0.0
O584 O 0.4542 0.03567 0.69954 0.0
C585 C 0.48598 0.88975 0.78891 0.0
C586 C 0.51001 0.85209 0.80125 0.0
C587 C 0.49494 0.87298 0.81387 0.0
N588 N 0.49566 0.8807 0.76287 0.0
N589 N 0.50961 0.85698 0.77009 0.0
C590 C 0.46913 0.91627 0.79 0.0
H591 H 0.45631 0.90363 0.77835 0.0
H592 H 0.47283 0.9418 0.7773 0.0
H593 H 0.46464 0.92295 0.8141 0.0
C594 C 0.49997 1.0197 0.74177 0.0
N595 N 0.49528 0.98866 0.72548 0.0
N596 N 0.50249 0.96026 0.74039 0.0
C597 C 0.51292 0.97265 0.76537 0.0
C598 C 0.51092 1.01093 0.76845 0.0
C599 C 0.49551 0.0578 0.73111 0.0
H600 H 0.4971 0.05975 0.70555 0.0
H601 H 0.48028 0.06471 0.73786 0.0
H602 H 0.50553 0.07802 0.74203 0.0
O603 O 0.49428 0.93654 0.65779 0.0
O604 O 0.50501 0.89106 0.68771 0.0
H605 H 0.54201 0.95498 0.77501 0.0
H606 H 0.52653 0.95613 0.80855 0.0
C607 C 0.52693 0.94936 0.78348 0.0
H608 H 0.52435 0.92002 0.77976 0.0
H609 H 0.52002 0.84713 0.75439 0.0
O610 O 0.47655 1.02257 0.66328 0.0
C611 C 0.50269 0.90495 0.66058 0.0
Co612 Co 0.80103 0.96945 0.61721 0.0
Co613 Co 0.78984 0.90602 0.57286 0.0
C614 C 0.83213 0.91918 0.59128 0.0
O615 O 0.82769 0.94786 0.6066 0.0
O616 O 0.81883 0.90066 0.57787 0.0
C617 C 0.8201 0.03643 0.61937 0.0
O618 O 0.82587 1.02215 0.59287 0.0
C619 C 0.79279 0.88212 0.51025 0.0
C620 C 0.76793 0.84419 0.50386 0.0
C621 C 0.78229 0.86339 0.48754 0.0
N622 N 0.7846 0.87527 0.53808 0.0
N623 N 0.77015 0.85159 0.53437 0.0
C624 C 0.80806 0.91135 0.50546 0.0
H625 H 0.81019 0.92799 0.52665 0.0
H626 H 0.80394 0.93009 0.48621 0.0
H627 H 0.82225 0.89817 0.49959 0.0
C628 C 0.77974 1.01451 0.56529 0.0
N629 N 0.78585 0.9827 0.57932 0.0
N630 N 0.78123 0.95524 0.56099 0.0
C631 C 0.77217 0.96875 0.53518 0.0
C632 C 0.77194 1.00711 0.53572 0.0
C633 C 0.77858 0.05095 0.58105 0.0
H634 H 0.78338 0.04952 0.60546 0.0
H635 H 0.787 0.07158 0.56764 0.0
H636 H 0.76308 0.06011 0.58147 0.0
O637 O 0.78729 0.93048 0.64721 0.0
O638 O 0.77829 0.88746 0.61338 0.0
H639 H 0.74735 0.96161 0.50486 0.0
H640 H 0.76913 0.93905 0.49227 0.0
C641 C 0.76035 0.94599 0.51304 0.0
H642 H 0.75523 0.92052 0.52452 0.0
H643 H 0.76079 0.84302 0.55216 0.0
O644 O 0.80877 1.01753 0.63687 0.0
C645 C 0.77937 0.89895 0.64152 0.0
Co646 Co 0.47817 0.32551 0.61714 0.0
Co647 Co 0.4862 0.38955 0.57271 0.0
C648 C 0.44475 0.37089 0.595 0.0
O649 O 0.45083 0.34254 0.60933 0.0
O650 O 0.45678 0.39179 0.58078 0.0
C651 C 0.46133 0.25767 0.6347 0.0
O652 O 0.44921 0.26661 0.61221 0.0
C653 C 0.48016 0.41595 0.51122 0.0
C654 C 0.50546 0.45228 0.50251 0.0
C655 C 0.48986 0.43488 0.48787 0.0
N656 N 0.48975 0.42125 0.53807 0.0
N657 N 0.50449 0.44402 0.53306 0.0
C658 C 0.46454 0.38731 0.50705 0.0
H659 H 0.46397 0.3684 0.52718 0.0
H660 H 0.46713 0.37091 0.48573 0.0
H661 H 0.45011 0.40109 0.50471 0.0
C662 C 0.49439 0.28112 0.56084 0.0
N663 N 0.49074 0.31275 0.57702 0.0
N664 N 0.49547 0.34075 0.5593 0.0
C665 C 0.50315 0.32767 0.53218 0.0
C666 C 0.50218 0.28923 0.53125 0.0
C667 C 0.4884 0.24397 0.57204 0.0
H668 H 0.49274 0.24049 0.59669 0.0
H669 H 0.47227 0.24164 0.57004 0.0
H670 H 0.49492 0.22159 0.55818 0.0
O671 O 0.4916 0.36611 0.64499 0.0
O672 O 0.49935 0.4099 0.61134 0.0
H673 H 0.51892 0.37637 0.519 0.0
H674 H 0.52547 0.33569 0.49749 0.0
C675 C 0.51314 0.35097 0.50829 0.0
H676 H 0.50272 0.35802 0.48954 0.0
H677 H 0.51491 0.45112 0.54977 0.0
O678 O 0.47524 0.27941 0.64177 0.0
C679 C 0.49899 0.39794 0.63934 0.0
Co680 Co 0.22925 0.72294 0.37034 0.0
Co681 Co 0.23633 0.66097 0.32304 0.0
C682 C 0.19544 0.67913 0.34125 0.0
O683 O 0.20211 0.70481 0.35849 0.0
O684 O 0.20701 0.65856 0.32577 0.0
C685 C 0.21195 0.79147 0.38464 0.0
O686 O 0.19945 0.78052 0.36335 0.0
C687 C 0.2366 0.62098 0.26378 0.0
C688 C 0.26849 0.61427 0.25743 0.0
C689 C 0.2508 0.61254 0.24157 0.0
N690 N 0.24568 0.62964 0.29057 0.0
N691 N 0.26467 0.62401 0.28694 0.0
C692 C 0.21476 0.62157 0.25972 0.0
H693 H 0.20777 0.60744 0.27973 0.0
H694 H 0.20927 0.65019 0.25961 0.0
H695 H 0.21034 0.60763 0.23789 0.0
C696 C 0.24907 0.76898 0.32009 0.0
N697 N 0.24366 0.73614 0.33263 0.0
N698 N 0.24434 0.71102 0.31088 0.0
C699 C 0.24908 0.72771 0.28341 0.0
C700 C 0.2525 0.76541 0.28793 0.0
C701 C 0.25146 0.80323 0.3388 0.0
H702 H 0.25531 0.79635 0.36316 0.0
H703 H 0.23753 0.81887 0.33861 0.0
H704 H 0.26315 0.82084 0.32877 0.0
O705 O 0.24166 0.68414 0.39929 0.0
O706 O 0.24732 0.6405 0.36477 0.0
H707 H 0.26012 0.69257 0.24775 0.0
H708 H 0.24479 0.72935 0.23339 0.0
C709 C 0.24694 0.70944 0.25255 0.0
H710 H 0.23387 0.69179 0.25308 0.0
H711 H 0.27521 0.6304 0.30367 0.0
O712 O 0.22554 0.76973 0.39317 0.0
C713 C 0.24774 0.65174 0.39305 0.0
Co714 Co 0.54631 0.06823 0.3675 0.0
Co715 Co 0.53934 0.13458 0.32346 0.0
C716 C 0.58025 0.11366 0.34255 0.0
O717 O 0.57367 0.08605 0.35762 0.0
O718 O 0.56864 0.13538 0.3283 0.0
C719 C 0.56247 0.9982 0.38021 0.0
O720 O 0.5748 1.00916 0.35865 0.0
C721 C 0.54216 0.17433 0.26426 0.0
C722 C 0.51101 0.1871 0.25619 0.0
C723 C 0.52892 0.18429 0.2409 0.0
N724 N 0.53214 0.16833 0.29081 0.0
N725 N 0.5137 0.17784 0.28617 0.0
C726 C 0.5639 0.16934 0.26155 0.0
H727 H 0.57117 0.18171 0.28208 0.0
H728 H 0.56761 0.1397 0.2614 0.0
H729 H 0.56968 0.18276 0.24026 0.0
C730 C 0.52624 0.0262 0.31498 0.0
N731 N 0.53216 0.05783 0.32918 0.0
N732 N 0.5306 0.08517 0.30939 0.0
C733 C 0.52442 0.07113 0.28165 0.0
C734 C 0.52113 0.03323 0.28399 0.0
C735 C 0.52522 0.98964 0.3307 0.0
H736 H 0.52183 0.99306 0.35573 0.0
H737 H 0.53954 0.97552 0.32819 0.0
H738 H 0.51378 0.97218 0.31986 0.0
O739 O 0.53418 0.1069 0.39673 0.0
O740 O 0.52815 0.15405 0.36561 0.0
H741 H 0.51265 0.11193 0.25139 0.0
H742 H 0.52374 0.07402 0.2311 0.0
C743 C 0.52485 0.09195 0.25177 0.0
H744 H 0.53906 0.10606 0.24999 0.0
H745 H 0.50253 0.17414 0.30248 0.0
O746 O 0.54919 1.02026 0.38939 0.0
C747 C 0.52819 0.14002 0.39302 0.0
Co748 Co 0.22662 0.06846 0.4353 0.0
Co749 Co 0.24148 0.1317 0.47595 0.0
C750 C 0.19761 0.12011 0.45988 0.0
O751 O 0.20041 0.08975 0.44592 0.0
O752 O 0.21206 0.13796 0.47114 0.0
C753 C 0.20649 1.00898 0.40309 0.0
O754 O 0.19088 0.03009 0.40355 0.0
C755 C 0.23945 0.1596 0.538 0.0
C756 C 0.26561 0.19474 0.54268 0.0
C757 C 0.25035 0.17911 0.55948 0.0
N758 N 0.24808 0.16263 0.51004 0.0
N759 N 0.26351 0.18433 0.51276 0.0
C760 C 0.22123 0.13757 0.54385 0.0
H761 H 0.20934 0.14765 0.52855 0.0
H762 H 0.22392 0.10835 0.53808 0.0
H763 H 0.21607 0.13997 0.5682 0.0
C764 C 0.24307 1.02313 0.4892 0.0
N765 N 0.24046 0.05514 0.47333 0.0
N766 N 0.24872 0.0818 0.48897 0.0
C767 C 0.2578 0.06707 0.51438 0.0
C768 C 0.25419 0.02919 0.51616 0.0
C769 C 0.23367 0.98762 0.4803 0.0
H770 H 0.21983 0.99265 0.4675 0.0
H771 H 0.2305 0.97068 0.50117 0.0
H772 H 0.24392 0.97212 0.46522 0.0
O773 O 0.24043 0.10569 0.40537 0.0
O774 O 0.25295 0.14981 0.43472 0.0
H775 H 0.284 0.07027 0.54187 0.0
H776 H 0.26361 0.09551 0.55655 0.0
C777 C 0.27139 0.08784 0.53509 0.0
H778 H 0.27685 0.1129 0.52332 0.0
H779 H 0.27325 0.19017 0.4947 0.0
O780 O 0.2227 1.0213 0.41327 0.0
C781 C 0.24973 0.13629 0.40771 0.0
Co782 Co 0.55415 0.72023 0.43929 0.0
Co783 Co 0.54261 0.65508 0.48063 0.0
C784 C 0.58544 0.67099 0.46092 0.0
O785 O 0.58133 0.70134 0.44766 0.0
O786 O 0.57191 0.6515 0.47308 0.0
C787 C 0.57155 0.78151 0.40553 0.0
O788 O 0.58751 0.76133 0.40459 0.0
C789 C 0.54856 0.62814 0.54187 0.0
C790 C 0.52298 0.59279 0.55118 0.0
C791 C 0.53905 0.60918 0.56534 0.0
N792 N 0.53857 0.62354 0.51528 0.0
N793 N 0.52357 0.60149 0.52068 0.0
C794 C 0.56449 0.6562 0.54595 0.0
H795 H 0.56494 0.67564 0.5262 0.0
H796 H 0.56232 0.67209 0.56766 0.0
H797 H 0.57884 0.64196 0.54748 0.0
C798 C 0.53893 0.76325 0.49554 0.0
N799 N 0.54135 0.73192 0.47861 0.0
N800 N 0.53444 0.70415 0.49459 0.0
C801 C 0.52649 0.7173 0.52145 0.0
C802 C 0.52938 0.75542 0.52374 0.0
C803 C 0.54753 0.79947 0.4865 0.0
H804 H 0.53654 0.81501 0.47278 0.0
H805 H 0.56084 0.79545 0.47211 0.0
H806 H 0.55139 0.81585 0.50734 0.0
O807 O 0.54038 0.68137 0.41053 0.0
O808 O 0.53008 0.63593 0.44076 0.0
H809 H 0.50315 0.71074 0.55465 0.0
H810 H 0.52484 0.6849 0.56293 0.0
C811 C 0.5151 0.69434 0.54398 0.0
H812 H 0.5087 0.67021 0.53208 0.0
H813 H 0.51284 0.59502 0.50428 0.0
O814 O 0.55597 0.76817 0.41721 0.0
C815 C 0.53202 0.64984 0.41357 0.0
Co816 Co 0.80202 0.82209 0.18958 0.0
Co817 Co 0.79612 0.88899 0.23212 0.0
C818 C 0.8368 0.8656 0.2115 0.0
O819 O 0.82994 0.83825 0.19665 0.0
O820 O 0.82533 0.88746 0.22569 0.0
C821 C 0.81765 0.75238 0.17436 0.0
O822 O 0.83195 0.76409 0.19222 0.0
C823 C 0.80277 0.91945 0.29221 0.0
C824 C 0.77741 0.95597 0.29968 0.0
C825 C 0.79308 0.93948 0.31492 0.0
N826 N 0.793 0.92311 0.26528 0.0
N827 N 0.77826 0.94608 0.2695 0.0
C828 C 0.81866 0.89146 0.29713 0.0
H829 H 0.81724 0.86866 0.2803 0.0
H830 H 0.81833 0.8797 0.32089 0.0
H831 H 0.83311 0.90479 0.29352 0.0
C832 C 0.78382 0.78155 0.24503 0.0
N833 N 0.78916 0.8126 0.22938 0.0
N834 N 0.78565 0.84121 0.24709 0.0
C835 C 0.77739 0.82901 0.27418 0.0
C836 C 0.77636 0.79047 0.27439 0.0
C837 C 0.7853 0.74365 0.23199 0.0
H838 H 0.78019 0.74357 0.20755 0.0
H839 H 0.80082 0.73462 0.2327 0.0
H840 H 0.77633 0.72388 0.24554 0.0
O841 O 0.78831 0.86028 0.16077 0.0
O842 O 0.78455 0.90893 0.19124 0.0
H843 H 0.76637 0.88029 0.29121 0.0
H844 H 0.75928 0.84179 0.3143 0.0
C845 C 0.77134 0.85353 0.30036 0.0
H846 H 0.78388 0.85724 0.31635 0.0
H847 H 0.76771 0.9521 0.25268 0.0
O848 O 0.80345 0.77391 0.16824 0.0
C849 C 0.78301 0.89383 0.16446 0.0
Co850 Co 0.47779 0.46703 0.19305 0.0
Co851 Co 0.49118 0.40187 0.23219 0.0
C852 C 0.44765 0.41612 0.2145 0.0
O853 O 0.45121 0.44701 0.20185 0.0
O854 O 0.4616 0.39691 0.22587 0.0
C855 C 0.46025 0.53465 0.1734 0.0
O856 O 0.44463 0.52197 0.18772 0.0
C857 C 0.48868 0.37575 0.29412 0.0
C858 C 0.51406 0.3387 0.29926 0.0
C859 C 0.49965 0.35689 0.31622 0.0
N860 N 0.4966 0.36985 0.266 0.0
N861 N 0.51139 0.34673 0.26894 0.0
C862 C 0.47322 0.40436 0.29979 0.0
H863 H 0.47031 0.42076 0.27865 0.0
H864 H 0.47767 0.4233 0.31867 0.0
H865 H 0.45935 0.39068 0.30667 0.0
C866 C 0.49381 0.50977 0.24895 0.0
N867 N 0.49131 0.47871 0.23171 0.0
N868 N 0.49926 0.451 0.24648 0.0
C869 C 0.50805 0.46403 0.27273 0.0
C870 C 0.50453 0.50185 0.27605 0.0
C871 C 0.48413 0.5455 0.24136 0.0
H872 H 0.46844 0.54058 0.23616 0.0
H873 H 0.48508 0.56535 0.26077 0.0
H874 H 0.49114 0.55748 0.22041 0.0
O875 O 0.49114 0.42967 0.16319 0.0
O876 O 0.50336 0.38434 0.19157 0.0
H877 H 0.53384 0.45846 0.30097 0.0
H878 H 0.51316 0.43294 0.31435 0.0
C879 C 0.52117 0.44166 0.29323 0.0
H880 H 0.52661 0.41715 0.28068 0.0
H881 H 0.52071 0.33915 0.2508 0.0
O882 O 0.47533 0.51433 0.17108 0.0
C883 C 0.50024 0.39883 0.16491 0.0
Co884 Co 0.80236 0.47614 0.12458 0.0
Co885 Co 0.78696 0.41474 0.08281 0.0
C886 C 0.83115 0.42567 0.09812 0.0
O887 O 0.82841 0.45514 0.11336 0.0
O888 O 0.81662 0.40839 0.08643 0.0
C889 C 0.82281 0.53489 0.15666 0.0
O890 O 0.83852 0.5142 0.15441 0.0
C891 C 0.78887 0.39205 1.01976 0.0
C892 C 0.7624 0.35852 1.01251 0.0
C893 C 0.77769 0.37567 0.99689 0.0
N894 N 0.78049 0.38569 0.0475 0.0
N895 N 0.76492 0.36468 0.04322 0.0
C896 C 0.80638 0.41636 1.01508 0.0
H897 H 0.81954 0.40216 1.02433 0.0
H898 H 0.80467 0.44221 1.02829 0.0
H899 H 0.80898 0.42261 0.99018 0.0
C900 C 0.78673 0.5233 0.07146 0.0
N901 N 0.7887 0.49092 0.08696 0.0
N902 N 0.77938 0.46528 0.07161 0.0
C903 C 0.77002 0.48125 0.04696 0.0
C904 C 0.77485 0.51865 0.04517 0.0
C905 C 0.79719 0.55779 0.08028 0.0
H906 H 0.78757 0.57412 0.09577 0.0
H907 H 0.81102 0.55133 0.09266 0.0
H908 H 0.80053 0.57459 0.0594 0.0
O909 O 0.78818 0.43853 0.15368 0.0
O910 O 0.77569 0.39495 0.12371 0.0
H911 H 0.73999 0.46614 0.04427 0.0
H912 H 0.75043 0.47788 1.00743 0.0
C913 C 0.75339 0.46379 0.02978 0.0
H914 H 0.75596 0.43438 1.02597 0.0
H915 H 0.75513 0.35726 0.06079 0.0
O916 O 0.80638 0.52249 0.14755 0.0
C917 C 0.7788 0.40806 0.1509 0.0
Co918 Co 0.47732 0.81064 0.12579 0.0
Co919 Co 0.48464 0.87463 0.08073 0.0
C920 C 0.44352 0.85488 0.10304 0.0
O921 O 0.44961 0.82697 0.11798 0.0
O922 O 0.45557 0.87542 0.08868 0.0
C923 C 0.45945 0.75287 0.16226 0.0
O924 O 0.44447 0.77532 0.16474 0.0
C925 C 0.47679 0.90012 1.01976 0.0
C926 C 0.50272 0.93317 1.00763 0.0
C927 C 0.48662 0.91542 0.99476 0.0
N928 N 0.4872 0.90628 0.04571 0.0
N929 N 0.50228 0.92747 0.03864 0.0
C930 C 0.45839 0.87759 1.01887 0.0
H931 H 0.46139 0.84959 1.02786 0.0
H932 H 0.45204 0.87613 0.99518 0.0
H933 H 0.44722 0.89051 0.03405 0.0
C934 C 0.49428 0.76582 0.07254 0.0
N935 N 0.48983 0.79832 0.08642 0.0
N936 N 0.49426 0.82529 0.06747 0.0
C937 C 0.50247 0.81033 0.0413 0.0
C938 C 0.50191 0.77164 0.04251 0.0
C939 C 0.4931 0.72991 0.08927 0.0
H940 H 0.49975 0.73317 0.11258 0.0
H941 H 0.4775 0.72196 0.0922 0.0
H942 H 0.50121 0.7079 0.07701 0.0
O943 O 0.49143 0.84984 0.15277 0.0
O944 O 0.49677 0.89625 0.12029 0.0
H945 H 0.52906 0.82597 1.01915 0.0
H946 H 0.50843 0.82379 0.99359 0.0
C947 C 0.51316 0.83197 1.01718 0.0
H948 H 0.51147 0.86152 1.02074 0.0
H949 H 0.51334 0.93467 0.05424 0.0
O950 O 0.47507 0.76389 0.14902 0.0
C951 C 0.49761 0.88262 0.14774 0.0
Co952 Co 0.22704 0.22598 0.87314 0.0
Co953 Co 0.24041 0.16838 0.82563 0.0
C954 C 0.19706 0.17803 0.84504 0.0
O955 O 0.20056 0.20591 0.862 0.0
O956 O 0.21101 0.16162 0.83095 0.0
C957 C 0.20659 0.28406 0.90628 0.0
O958 O 0.19088 0.26371 0.90245 0.0
C959 C 0.23953 0.14873 0.76094 0.0
C960 C 0.26257 0.10657 0.75621 0.0
C961 C 0.24941 0.12768 0.73934 0.0
N962 N 0.24675 0.1412 0.78929 0.0
N963 N 0.26035 0.11556 0.78645 0.0
C964 C 0.22345 0.17583 0.75461 0.0
H965 H 0.22981 0.20303 0.74908 0.0
H966 H 0.21457 0.16693 0.73435 0.0
H967 H 0.21387 0.1791 0.77516 0.0
C968 C 0.24284 0.27732 0.82193 0.0
N969 N 0.24016 0.2437 0.83526 0.0
N970 N 0.24796 0.21891 0.81701 0.0
C971 C 0.25704 0.23623 0.79284 0.0
C972 C 0.25368 0.27411 0.79431 0.0
C973 C 0.23368 0.31184 0.8337 0.0
H974 H 0.24408 0.32541 0.84976 0.0
H975 H 0.21984 0.30564 0.84609 0.0
H976 H 0.23051 0.33106 0.8143 0.0
O977 O 0.24145 0.18505 0.89971 0.0
O978 O 0.25268 0.1463 0.86418 0.0
H979 H 0.28436 0.23486 0.76828 0.0
H980 H 0.26419 0.21582 0.74771 0.0
C981 C 0.27094 0.2179 0.77092 0.0
H982 H 0.27508 0.19025 0.77943 0.0
H983 H 0.26862 0.10527 0.80491 0.0
O984 O 0.22324 0.27131 0.89835 0.0
C985 C 0.25059 0.1552 0.89279 0.0
Co986 Co 0.54975 0.56776 0.87257 0.0
Co987 Co 0.54499 0.62962 0.82446 0.0
C988 C 0.58489 0.61182 0.84736 0.0
O989 O 0.57704 0.5886 0.86573 0.0
O990 O 0.57437 0.62922 0.82791 0.0
C991 C 0.56697 0.4999 0.87581 0.0
O992 O 0.57318 0.51338 0.84923 0.0
C993 C 0.54719 0.65693 0.76214 0.0
C994 C 0.52224 0.69535 0.75917 0.0
C995 C 0.536 0.67703 0.74102 0.0
N996 N 0.53981 0.66211 0.79077 0.0
N997 N 0.52534 0.68609 0.78909 0.0
C998 C 0.56266 0.62867 0.75531 0.0
H999 H 0.56424 0.60919 0.7749 0.0
H1000 H 0.55928 0.61269 0.73412 0.0
H1001 H 0.5769 0.64277 0.75171 0.0
C1002 C 0.52821 0.52354 0.82146 0.0
N1003 N 0.53581 0.55514 0.83361 0.0
N1004 N 0.53421 0.58126 0.81267 0.0
C1005 C 0.52582 0.56666 0.78655 0.0
C1006 C 0.52261 0.52898 0.79033 0.0
C1007 C 0.52413 0.4896 0.84 0.0
H1008 H 0.52932 0.4919 0.86414 0.0
H1009 H 0.53048 0.46527 0.82827 0.0
H1010 H 0.50807 0.48555 0.84158 0.0
O1011 O 0.53565 0.60586 0.90073 0.0
O1012 O 0.53497 0.65137 0.86624 0.0
H1013 H 0.50413 0.57487 0.75085 0.0
H1014 H 0.52807 0.5907 0.74113 0.0
C1015 C 0.51736 0.58863 0.76035 0.0
H1016 H 0.51304 0.61624 0.76847 0.0
H1017 H 0.51652 0.6936 0.80786 0.0
O1018 O 0.55608 0.51986 0.89305 0.0
C1019 C 0.53211 0.63964 0.89411 0.0
Co1020 Co 0.22751 0.56971 0.93492 0.0
Co1021 Co 0.23697 0.63284 0.98056 0.0
C1022 C 0.19483 0.61334 0.96269 0.0
O1023 O 0.20052 0.58615 0.94643 0.0
O1024 O 0.20723 0.63402 0.97636 0.0
C1025 C 0.21004 0.50286 0.9122 0.0
O1026 O 0.19419 0.51581 0.92562 0.0
C1027 C 0.23333 0.66098 0.04279 0.0
C1028 C 0.2609 0.69148 0.04979 0.0
C1029 C 0.24453 0.67819 0.06531 0.0
N1030 N 0.24267 0.66363 1.01535 0.0
N1031 N 0.25887 0.68293 1.01944 0.0
C1032 C 0.21577 0.63702 0.0481 0.0
H1033 H 0.21685 0.61182 0.03378 0.0
H1034 H 0.21414 0.62935 0.07294 0.0
H1035 H 0.20244 0.65212 0.04068 0.0
C1036 C 0.24618 0.52378 0.98589 0.0
N1037 N 0.24164 0.55665 0.97259 0.0
N1038 N 0.24626 0.58313 0.99192 0.0
C1039 C 0.25431 0.56751 1.01788 0.0
C1040 C 0.25433 0.52921 1.01536 0.0
C1041 C 0.24068 0.48754 0.97223 0.0
H1042 H 0.22456 0.4866 0.96921 0.0
H1043 H 0.24496 0.46415 0.98721 0.0
H1044 H 0.2478 0.4846 0.94922 0.0
O1045 O 0.2398 0.61052 0.90741 0.0
O1046 O 0.24823 0.65502 0.93984 0.0
H1047 H 0.27377 0.57207 0.05709 0.0
H1048 H 0.25033 0.59367 0.06155 0.0
C1049 C 0.26235 0.58829 0.04485 0.0
H1050 H 0.26885 0.61447 0.03693 0.0
H1051 H 0.26938 0.68734 1.0022 0.0
O1052 O 0.2253 0.52299 0.91093 0.0
C1053 C 0.24702 0.64264 0.91199 0.0
Co1054 Co 0.55287 0.22326 0.93898 0.0
Co1055 Co 0.54467 0.15658 0.98274 0.0
C1056 C 0.58598 0.17615 0.96368 0.0
O1057 O 0.57966 0.20343 0.94816 0.0
O1058 O 0.57415 0.15526 0.97826 0.0
C1059 C 0.57158 0.29108 0.93154 0.0
O1060 O 0.5809 0.2774 0.95564 0.0
C1061 C 0.54853 0.12593 0.04442 0.0
C1062 C 0.52099 0.09529 0.05104 0.0
C1063 C 0.53721 0.10861 0.06694 0.0
N1064 N 0.53927 0.12368 1.01685 0.0
N1065 N 0.52315 0.10406 1.02072 0.0
C1066 C 0.56593 0.15024 0.05001 0.0
H1067 H 0.56475 0.17558 0.03583 0.0
H1068 H 0.56745 0.15772 0.07487 0.0
H1069 H 0.57938 0.13552 0.04259 0.0
C1070 C 0.53403 0.26538 0.99346 0.0
N1071 N 0.53904 0.234 0.97792 0.0
N1072 N 0.53513 0.20565 0.99583 0.0
C1073 C 0.52724 0.21854 1.02283 0.0
C1074 C 0.52695 0.25686 1.02319 0.0
C1075 C 0.53694 0.30326 0.98103 0.0
H1076 H 0.53523 0.30353 0.95545 0.0
H1077 H 0.55174 0.31284 0.98767 0.0
H1078 H 0.52623 0.32277 0.99093 0.0
O1079 O 0.53905 0.18548 0.90957 0.0
O1080 O 0.53383 0.13755 0.9407 0.0
H1081 H 0.50728 0.2103 0.06094 0.0
H1082 H 0.53056 0.18809 0.06442 0.0
C1083 C 0.51878 0.19519 0.04788 0.0
H1084 H 0.51215 0.17022 0.03786 0.0
H1085 H 0.51265 0.09991 1.00343 0.0
O1086 O 0.55845 0.27161 0.91831 0.0
C1087 C 0.53317 0.15221 0.91353 0.0
H1088 H 0.29331 0.46705 0.36417 0.0
H1089 H 0.29688 0.35432 0.33498 0.0
H1090 H 0.2974 0.33363 0.38861 0.0
H1091 H 0.29518 0.34764 0.44436 0.0
H1092 H 0.29707 0.46087 0.47343 0.0
H1093 H 0.29634 0.48123 0.41989 0.0
C1094 C 0.29444 0.43807 0.36971 0.0
C1095 C 0.29455 0.4122 0.34579 0.0
C1096 C 0.29568 0.42642 0.40072 0.0
C1097 C 0.29628 0.3747 0.35307 0.0
C1098 C 0.29671 0.36281 0.38376 0.0
C1099 C 0.29565 0.3767 0.43885 0.0
C1100 C 0.29568 0.40249 0.46283 0.0
C1101 C 0.2961 0.38842 0.40783 0.0
C1102 C 0.29659 0.44018 0.45551 0.0
C1103 C 0.29626 0.45204 0.42478 0.0
H1104 H 0.02543 0.94104 0.4426 0.0
H1105 H 0.97195 0.88225 0.46343 0.0
H1106 H 0.9691 0.86341 0.41027 0.0
H1107 H 0.98218 0.86088 0.35718 0.0
H1108 H 0.03798 0.911 0.33724 0.0
H1109 H 0.03997 0.93418 0.39051 0.0
C1110 C 1.01298 0.92455 0.43549 0.0
C1111 C 0.9983 0.91556 0.45729 0.0
C1112 C 1.01215 0.91097 0.4049 0.0
C1113 C 0.98273 0.89279 0.4475 0.0
C1114 C 0.98134 0.88071 0.41687 0.0
C1115 C 0.99485 0.87648 0.36475 0.0
C1116 C 1.00988 0.88426 0.34354 0.0
C1117 C 0.996 0.88938 0.39542 0.0
C1118 C 0.02631 0.9044 0.3534 0.0
C1119 C 0.02735 0.918 0.38372 0.0
H1120 H 0.32117 0.94114 0.86052 0.0
H1121 H 0.25942 0.93827 0.83985 0.0
H1122 H 0.25278 0.91008 0.89071 0.0
H1123 H 0.26494 0.88683 0.94129 0.0
H1124 H 0.32729 0.88129 0.95749 0.0
H1125 H 0.33352 0.91046 0.90735 0.0
C1126 C 0.30629 0.93402 0.86716 0.0
C1127 C 0.29082 0.94114 0.84658 0.0
C1128 C 0.30281 0.91568 0.89525 0.0
C1129 C 0.27153 0.93259 0.85541 0.0
C1130 C 0.26779 0.91624 0.88427 0.0
C1131 C 0.27988 0.89118 0.93345 0.0
C1132 C 0.29564 0.88297 0.95337 0.0
C1133 C 0.28336 0.90736 0.90428 0.0
C1134 C 0.31493 0.88839 0.94287 0.0
C1135 C 0.3185 0.90519 0.9143 0.0
H1136 H 1.00284 0.3631 0.95843 0.0
H1137 H 0.99189 0.47847 0.94575 0.0
H1138 H 0.99092 0.46952 0.88916 0.0
H1139 H 0.99335 0.42884 0.84441 0.0
H1140 H 1.0067 0.31403 0.857 0.0
H1141 H 1.00639 0.32257 0.91358 0.0
C1142 C 1.00013 0.38619 0.94337 0.0
C1143 C 0.99711 0.42121 0.95605 0.0
C1144 C 0.99999 0.38082 0.91126 0.0
C1145 C 0.99414 0.45125 0.93629 0.0
C1146 C 0.99357 0.4461 0.90412 0.0
C1147 C 0.9961 0.40554 0.85935 0.0
C1148 C 0.99973 0.37063 0.84659 0.0
C1149 C 0.99644 0.41096 0.89146 0.0
C1150 C 1.00363 0.34098 0.86642 0.0
C1151 C 1.00351 0.34591 0.89861 0.0
H1152 H 0.729 0.62544 0.69568 0.0
H1153 H 0.79013 0.6461 0.71414 0.0
H1154 H 0.79395 0.67378 0.66271 0.0
H1155 H 0.7798 0.69248 0.61287 0.0
H1156 H 0.71876 0.66814 0.59448 0.0
H1157 H 0.71489 0.6444 0.6459 0.0
C1158 C 0.74316 0.63591 0.68833 0.0
C1159 C 0.75922 0.63379 0.70857 0.0
C1160 C 0.74516 0.65244 0.65906 0.0
C1161 C 0.77758 0.64699 0.69874 0.0
C1162 C 0.7797 0.66335 0.66955 0.0
C1163 C 0.76552 0.68247 0.62006 0.0
C1164 C 0.74969 0.68296 0.59894 0.0
C1165 C 0.76351 0.66652 0.64962 0.0
C1166 C 0.73137 0.66962 0.60929 0.0
C1167 C 0.72911 0.655 0.63903 0.0
H1168 H 0.03779 0.11929 0.70856 0.0
H1169 H 0.02769 0.23529 0.69618 0.0
H1170 H 0.02775 0.22687 0.63959 0.0
H1171 H 0.03015 0.18607 0.59463 0.0
H1172 H 0.03654 0.06956 0.60718 0.0
H1173 H 0.03845 0.0784 0.66375 0.0
C1174 C 0.03559 0.14284 0.69369 0.0
C1175 C 0.03295 0.17803 0.70651 0.0
C1176 C 0.0349 0.13748 0.66156 0.0
C1177 C 0.02995 0.20808 0.68672 0.0
C1178 C 0.02992 0.20321 0.65452 0.0
C1179 C 0.03177 0.16266 0.60971 0.0
C1180 C 0.03332 0.12734 0.59697 0.0
C1181 C 0.03225 0.16799 0.64182 0.0
C1182 C 0.03541 0.09699 0.61667 0.0
C1183 C 0.0365 0.10208 0.64884 0.0
H1184 H 0.73901 0.08524 0.19474 0.0
H1185 H 0.72579 0.19405 0.22791 0.0
H1186 H 0.72591 0.21771 0.17525 0.0
H1187 H 0.7307 0.2081 0.11915 0.0
H1188 H 0.74111 0.09849 0.08557 0.0
H1189 H 0.74135 0.07477 0.13837 0.0
C1190 C 0.73591 0.11398 0.19029 0.0
C1191 C 0.73222 0.13762 0.21521 0.0
C1192 C 0.73571 0.12747 0.1597 0.0
C1193 C 0.72836 0.17494 0.20918 0.0
C1194 C 0.72856 0.18871 0.17899 0.0
C1195 C 0.73294 0.17908 0.12355 0.0
C1196 C 0.73609 0.15521 0.09863 0.0
C1197 C 0.73236 0.1653 0.15404 0.0
C1198 C 0.73891 0.11755 0.10445 0.0
C1199 C 0.73892 0.10385 0.13466 0.0
H1200 H 1.01023 0.63212 0.20166 0.0
H1201 H 0.06073 0.70254 0.19407 0.0
H1202 H 0.06497 0.68435 0.13954 0.0
H1203 H 0.05369 0.64981 0.09445 0.0
H1204 H 1.00426 0.57635 0.1027 0.0
H1205 H 1.0007 0.59326 0.15737 0.0
C1206 C 0.02214 0.64347 0.18798 0.0
C1207 C 0.03501 0.66899 0.2015 0.0
C1208 C 0.02492 0.6317 0.15722 0.0
C1209 C 0.0505 0.6833 0.18382 0.0
C1210 C 0.05302 0.67259 0.15285 0.0
C1211 C 0.0425 0.63637 0.10808 0.0
C1212 C 0.02936 0.6114 0.09415 0.0
C1213 C 0.04034 0.64669 0.13936 0.0
C1214 C 1.01467 0.59543 0.11272 0.0
C1215 C 1.01248 0.6054 0.14392 0.0
H1216 H 0.7849 0.33312 0.9465 0.0
H1217 H 0.77065 0.44341 0.97398 0.0
H1218 H 0.77052 0.4634 0.91992 0.0
H1219 H 0.77494 0.44957 0.86436 0.0
H1220 H 0.79189 0.34004 0.83742 0.0
H1221 H 0.79075 0.31996 0.89108 0.0
C1222 C 0.78168 0.3614 0.94044 0.0
C1223 C 0.77742 0.38667 0.96394 0.0
C1224 C 0.78236 0.37299 0.90928 0.0
C1225 C 0.77355 0.4234 0.95611 0.0
C1226 C 0.77365 0.43491 0.92521 0.0
C1227 C 0.7785 0.42141 0.87035 0.0
C1228 C 0.78368 0.39666 0.84683 0.0
C1229 C 0.77811 0.40997 0.90155 0.0
C1230 C 0.78816 0.3601 0.85491 0.0
C1231 C 0.78739 0.34835 0.88572 0.0
H1232 H 0.49264 0.95531 0.94253 0.0
H1233 H 0.47963 0.84556 0.97409 0.0
H1234 H 0.482 0.82248 0.92155 0.0
H1235 H 0.4884 0.83287 0.86592 0.0
H1236 H 0.49846 0.94317 0.83364 0.0
H1237 H 0.497 0.96636 0.88655 0.0
C1238 C 0.49009 0.92648 0.93774 0.0
C1239 C 0.48574 0.9025 0.96223 0.0
C1240 C 0.49127 0.91322 0.90718 0.0
C1241 C 0.48264 0.86503 0.95577 0.0
C1242 C 0.48416 0.85155 0.92561 0.0
C1243 C 0.49032 0.86188 0.87067 0.0
C1244 C 0.49393 0.88615 0.84616 0.0
C1245 C 0.4886 0.87531 0.90112 0.0
C1246 C 0.49617 0.92382 0.85232 0.0
C1247 C 0.4951 0.93721 0.88255 0.0
H1248 H 0.81273 0.88196 0.44876 0.0
H1249 H 0.75013 0.86468 0.44993 0.0
H1250 H 0.74769 0.88932 0.39732 0.0
H1251 H 0.76315 0.91808 0.35178 0.0
H1252 H 0.82517 0.94086 0.35265 0.0
H1253 H 0.82782 0.9145 0.40492 0.0
C1254 C 0.79847 0.88436 0.43793 0.0
C1255 C 0.78159 0.87249 0.45384 0.0
C1256 C 0.79699 0.90063 0.40844 0.0
C1257 C 0.76341 0.87369 0.43841 0.0
C1258 C 0.76193 0.88833 0.40847 0.0
C1259 C 0.77714 0.91814 0.36377 0.0
C1260 C 0.79396 0.93139 0.34855 0.0
C1261 C 0.77856 0.90261 0.39355 0.0
C1262 C 0.81205 0.93085 0.36409 0.0
C1263 C 0.8136 0.91539 0.39373 0.0
H1264 H 0.46948 0.37256 0.35611 0.0
H1265 H 0.53238 0.36037 0.35252 0.0
H1266 H 0.5351 0.38594 0.40473 0.0
H1267 H 0.51974 0.41468 0.45036 0.0
H1268 H 0.45725 0.43269 0.45143 0.0
H1269 H 0.45436 0.40459 0.39999 0.0
C1270 C 0.48383 0.37618 0.36637 0.0
C1271 C 0.50071 0.3656 0.34989 0.0
C1272 C 0.48542 0.39307 0.39552 0.0
C1273 C 0.51909 0.36838 0.36454 0.0
C1274 C 0.52072 0.38357 0.39422 0.0
C1275 C 0.50557 0.4133 0.43894 0.0
C1276 C 0.48871 0.42569 0.45452 0.0
C1277 C 0.50403 0.39686 0.40958 0.0
C1278 C 0.4704 0.42325 0.43977 0.0
C1279 C 0.46873 0.40685 0.41059 0.0
H1280 H 0.22576 0.65552 0.20713 0.0
H1281 H 0.27433 0.58015 0.19879 0.0
H1282 H 0.2776 0.59593 0.14379 0.0
H1283 H 0.26789 0.63387 0.09903 0.0
H1284 H 0.21775 0.70518 0.10619 0.0
H1285 H 0.21406 0.68889 0.16132 0.0
C1286 C 0.23661 0.64139 0.19328 0.0
C1287 C 0.24959 0.61611 0.2072 0.0
C1288 C 0.2385 0.65081 0.16174 0.0
C1289 C 0.26403 0.5994 0.18866 0.0
C1290 C 0.26604 0.60868 0.15729 0.0
C1291 C 0.25616 0.64575 0.11274 0.0
C1292 C 0.24325 0.67103 0.09898 0.0
C1293 C 0.25363 0.63494 0.1438 0.0
C1294 C 0.228 0.68612 0.11667 0.0
C1295 C 0.2258 0.67652 0.14798 0.0
H1296 H 0.51184 0.15024 0.09985 0.0
H1297 H 0.56457 0.08615 0.10913 0.0
H1298 H 0.56757 0.10533 0.16366 0.0
H1299 H 0.55487 0.13991 0.20802 0.0
H1300 H 0.50486 0.21144 0.19613 0.0
H1301 H 0.50161 0.1909 0.14245 0.0
C1302 C 0.52406 0.14069 0.11377 0.0
C1303 C 0.53792 0.11666 0.10067 0.0
C1304 C 0.5264 0.15384 0.14423 0.0
C1305 C 0.55362 0.10429 0.11894 0.0
C1306 C 0.55543 0.11562 0.14993 0.0
C1307 C 0.5437 0.15241 0.19379 0.0
C1308 C 0.53025 0.17778 0.20661 0.0
C1309 C 0.542 0.14074 0.16272 0.0
C1310 C 0.51549 0.19204 0.18716 0.0
C1311 C 0.51348 0.18005 0.15646 0.0
H1312 H 0.24517 0.11742 0.5939 0.0
H1313 H 0.25386 0.23422 0.60186 0.0
H1314 H 0.25341 0.22876 0.65876 0.0
H1315 H 0.25124 0.19026 0.70543 0.0
H1316 H 0.24615 0.07283 0.69693 0.0
H1317 H 0.24457 0.07893 0.64016 0.0
C1318 C 0.24698 0.14176 0.6079 0.0
C1319 C 0.24932 0.17629 0.5937 0.0
C1320 C 0.2474 0.13814 0.64024 0.0
C1321 C 0.25185 0.20744 0.61236 0.0
C1322 C 0.25163 0.20428 0.64477 0.0
C1323 C 0.24972 0.16602 0.69126 0.0
C1324 C 0.24854 0.13118 0.70525 0.0
C1325 C 0.2495 0.1697 0.65888 0.0
C1326 C 0.24698 0.09989 0.68654 0.0
C1327 C 0.24609 0.10338 0.65423 0.0
H1328 H 0.51085 0.62937 0.60599 0.0
H1329 H 0.57279 0.60728 0.59908 0.0
H1330 H 0.57784 0.63135 0.65157 0.0
H1331 H 0.56472 0.66088 0.69843 0.0
H1332 H 0.50229 0.67746 0.70712 0.0
H1333 H 0.49751 0.6558 0.65411 0.0
C1334 C 0.52536 0.62902 0.61632 0.0
C1335 C 0.54144 0.61656 0.59887 0.0
C1336 C 0.52815 0.64313 0.64634 0.0
C1337 C 0.56023 0.61681 0.61221 0.0
C1338 C 0.56313 0.63087 0.64204 0.0
C1339 C 0.55002 0.65905 0.68903 0.0
C1340 C 0.53388 0.66974 0.70722 0.0
C1341 C 0.54722 0.64455 0.65914 0.0
C1342 C 0.51505 0.66926 0.69382 0.0
C1343 C 0.51223 0.65636 0.66361 0.0
H1344 H 0.36704 0.32801 0.20896 0.0
H1345 H 0.34419 0.43809 0.2028 0.0
H1346 H 0.37738 0.46304 0.20509 0.0
H1347 H 0.41312 0.45397 0.20886 0.0
H1348 H 0.43609 0.3444 0.21935 0.0
H1349 H 0.40294 0.31914 0.21567 0.0
C1350 C 0.36938 0.35742 0.20795 0.0
C1351 C 0.35309 0.38109 0.20537 0.0
C1352 C 0.38862 0.3718 0.21029 0.0
C1353 C 0.3564 0.4192 0.2047 0.0
C1354 C 0.37542 0.43355 0.20603 0.0
C1355 C 0.41089 0.42457 0.21045 0.0
C1356 C 0.4272 0.40122 0.21427 0.0
C1357 C 0.39167 0.41017 0.20888 0.0
C1358 C 0.42389 0.36316 0.21655 0.0
C1359 C 0.40489 0.34861 0.21429 0.0
H1360 H 0.9302 0.86881 0.21116 0.0
H1361 H 0.91919 0.9848 0.21977 0.0
H1362 H 0.88386 0.97343 0.22175 0.0
H1363 H 0.85586 0.9308 0.21934 0.0
H1364 H 0.86645 0.81536 0.20536 0.0
H1365 H 0.9019 0.82608 0.20703 0.0
C1366 C 0.92003 0.89148 0.2138 0.0
C1367 C 0.92734 0.9276 0.2157 0.0
C1368 C 0.89957 0.88482 0.21368 0.0
C1369 C 0.91396 0.95677 0.21841 0.0
C1370 C 0.89373 0.95028 0.21949 0.0
C1371 C 0.86592 0.90794 0.21676 0.0
C1372 C 0.85842 0.87227 0.21235 0.0
C1373 C 0.88633 0.91447 0.21687 0.0
C1374 C 0.87174 0.8431 0.20867 0.0
C1375 C 0.89206 0.84922 0.20972 0.0
H1376 H 0.35054 0.86563 0.09744 0.0
H1377 H 0.36377 0.98122 0.10021 0.0
H1378 H 0.39895 0.96747 0.10063 0.0
H1379 H 0.42614 0.9224 0.10055 0.0
H1380 H 0.41278 0.80684 0.10359 0.0
H1381 H 0.37766 0.82059 0.10066 0.0
C1382 C 0.36115 0.88779 0.09802 0.0
C1383 C 0.35451 0.92446 0.09844 0.0
C1384 C 0.38139 0.87961 0.09941 0.0
C1385 C 0.36845 0.95281 0.0998 0.0
C1386 C 0.38859 0.94494 0.10002 0.0
C1387 C 0.41553 0.90024 0.10054 0.0
C1388 C 0.42213 0.86357 0.10205 0.0
C1389 C 0.39527 0.90843 0.09987 0.0
C1390 C 0.40814 0.83525 0.10249 0.0
C1391 C 0.38803 0.84312 0.10073 0.0
H1392 H 0.91053 0.33396 0.09495 0.0
H1393 H 0.93521 0.44277 0.09104 0.0
H1394 H 0.90233 0.46949 0.0923 0.0
H1395 H 0.8663 0.46222 0.09583 0.0
H1396 H 0.84146 0.35346 0.09465 0.0
H1397 H 0.87436 0.32667 0.0939 0.0
C1398 C 0.90869 0.3635 0.09424 0.0
C1399 C 0.92541 0.38627 0.09311 0.0
C1400 C 0.8896 0.37879 0.09408 0.0
C1401 C 0.92268 0.42453 0.09182 0.0
C1402 C 0.90383 0.43988 0.09265 0.0
C1403 C 0.8681 0.43266 0.09527 0.0
C1404 C 0.85134 0.40994 0.09553 0.0
C1405 C 0.88715 0.41734 0.09398 0.0
C1406 C 0.85401 0.37167 0.0944 0.0
C1407 C 0.87287 0.35627 0.09409 0.0
H1408 H 0.67184 0.65443 0.88684 0.0
H1409 H 0.6779 0.66964 0.78802 0.0
H1410 H 0.6434 0.65259 0.78048 0.0
H1411 H 0.61116 0.63346 0.80223 0.0
H1412 H 0.60651 0.61148 0.90048 0.0
H1413 H 0.64054 0.63058 0.90796 0.0
C1414 C 0.66555 0.65408 0.86369 0.0
C1415 C 0.67735 0.66382 0.83806 0.0
C1416 C 0.64589 0.64276 0.85942 0.0
C1417 C 0.66911 0.66248 0.80812 0.0
C1418 C 0.64937 0.65269 0.80382 0.0
C1419 C 0.61764 0.63269 0.82523 0.0
C1420 C 0.60616 0.62112 0.85077 0.0
C1421 C 0.63756 0.64277 0.8293 0.0
C1422 C 0.61494 0.62001 0.88037 0.0
C1423 C 0.63443 0.63113 0.88472 0.0
H1424 H 0.11726 0.08762 0.84166 0.0
H1425 H 0.09293 0.19677 0.84356 0.0
H1426 H 0.12592 0.22303 0.845 0.0
H1427 H 0.16201 0.21517 0.84661 0.0
H1428 H 0.18636 0.10636 0.83927 0.0
H1429 H 0.15337 0.08002 0.83894 0.0
C1430 C 0.11921 0.11714 0.84232 0.0
C1431 C 0.10257 0.14013 0.84274 0.0
C1432 C 0.13835 0.13222 0.84217 0.0
C1433 C 0.10542 0.17838 0.84315 0.0
C1434 C 0.12433 0.19346 0.84407 0.0
C1435 C 0.16008 0.18571 0.84484 0.0
C1436 C 0.17673 0.16282 0.84318 0.0
C1437 C 0.14094 0.1707 0.84372 0.0
C1438 C 0.17388 0.1247 0.8405 0.0
C1439 C 0.15497 0.10955 0.84042 0.0
H1440 H 0.60489 0.10991 0.96157 0.0
H1441 H 0.61538 0.22637 0.96675 0.0
H1442 H 0.65081 0.21572 0.96647 0.0
H1443 H 0.67901 0.17338 0.96368 0.0
H1444 H 0.66865 0.05736 0.95318 0.0
H1445 H 0.63322 0.06763 0.95645 0.0
C1446 C 0.61497 0.13288 0.96285 0.0
C1447 C 0.60748 0.16889 0.96449 0.0
C1448 C 0.63542 0.12661 0.96152 0.0
C1449 C 0.62074 0.19841 0.96554 0.0
C1450 C 0.64102 0.19233 0.96536 0.0
C1451 C 0.669 0.15033 0.96215 0.0
C1452 C 0.67655 0.1146 0.9583 0.0
C1453 C 0.64857 0.15657 0.96318 0.0
C1454 C 0.6633 0.08514 0.95601 0.0
C1455 C 0.643 0.091 0.95799 0.0
H1456 H 0.10182 0.61708 0.96927 0.0
H1457 H 0.11239 0.73357 0.96457 0.0
H1458 H 0.14784 0.72275 0.96544 0.0
H1459 H 0.17611 0.67986 0.96592 0.0
H1460 H 0.16524 0.56334 0.96518 0.0
H1461 H 0.12991 0.57435 0.96814 0.0
C1462 C 0.11189 0.64011 0.96864 0.0
C1463 C 0.10438 0.67614 0.96707 0.0
C1464 C 0.13232 0.63361 0.96809 0.0
C1465 C 0.1177 0.70559 0.96577 0.0
C1466 C 0.13801 0.6994 0.96629 0.0
C1467 C 0.16599 0.65692 0.96664 0.0
C1468 C 0.17338 0.62078 0.96554 0.0
C1469 C 0.14554 0.6635 0.96724 0.0
C1470 C 0.16001 0.59139 0.96597 0.0
C1471 C 0.13976 0.59768 0.96768 0.0
H1472 H 0.41568 0.96728 0.71111 0.0
H1473 H 0.43762 0.85634 0.71061 0.0
H1474 H 0.40409 0.83258 0.71138 0.0
H1475 H 0.36811 0.84312 0.71213 0.0
H1476 H 0.34646 0.9541 0.71743 0.0
H1477 H 0.37992 0.97774 0.71489 0.0
C1478 C 0.41312 0.93791 0.71114 0.0
C1479 C 0.42925 0.91372 0.71058 0.0
C1480 C 0.39369 0.9243 0.71246 0.0
C1481 C 0.42556 0.87569 0.71107 0.0
C1482 C 0.40633 0.86202 0.71144 0.0
C1483 C 0.37074 0.87246 0.71268 0.0
C1484 C 0.35466 0.89672 0.71476 0.0
C1485 C 0.39022 0.88602 0.7121 0.0
C1486 C 0.35845 0.93469 0.71588 0.0
C1487 C 0.37764 0.94831 0.71437 0.0
H1488 H 0.91349 0.45811 0.71119 0.0
H1489 H 0.93933 0.35017 0.71341 0.0
H1490 H 0.90673 0.32226 0.71211 0.0
H1491 H 0.87053 0.32829 0.70938 0.0
H1492 H 0.84474 0.43625 0.71226 0.0
H1493 H 0.87733 0.46409 0.7126 0.0
C1494 C 0.91197 0.42848 0.71148 0.0
C1495 C 0.92893 0.40634 0.71218 0.0
C1496 C 0.89306 0.41249 0.7116 0.0
C1497 C 0.9266 0.36796 0.71295 0.0
C1498 C 0.90792 0.35192 0.7121 0.0
C1499 C 0.87207 0.3579 0.71014 0.0
C1500 C 0.85512 0.38009 0.71056 0.0
C1501 C 0.89099 0.37386 0.71126 0.0
C1502 C 0.85745 0.41843 0.71199 0.0
C1503 C 0.87614 0.43444 0.71209 0.0
H1504 H 0.35178 0.37889 0.59633 0.0
H1505 H 0.36396 0.49358 0.61129 0.0
H1506 H 0.39923 0.48152 0.60739 0.0
H1507 H 0.42689 0.43798 0.60021 0.0
H1508 H 0.41452 0.32258 0.59063 0.0
H1509 H 0.37928 0.33518 0.59178 0.0
C1510 C 0.36215 0.40126 0.59872 0.0
C1511 C 0.35516 0.43716 0.60396 0.0
C1512 C 0.38248 0.39393 0.59733 0.0
C1513 C 0.36888 0.4657 0.60736 0.0
C1514 C 0.38908 0.45881 0.60503 0.0
C1515 C 0.41645 0.41568 0.59818 0.0
C1516 C 0.42336 0.37938 0.59501 0.0
C1517 C 0.3961 0.42302 0.60003 0.0
C1518 C 0.40962 0.35072 0.59302 0.0
C1519 C 0.38944 0.35792 0.59369 0.0
H1520 H 0.86672 0.95829 0.59005 0.0
H1521 H 0.84381 0.84803 0.59118 0.0
H1522 H 0.87707 0.82321 0.59191 0.0
H1523 H 0.91294 0.83246 0.59292 0.0
H1524 H 0.93609 0.9423 0.5868 0.0
H1525 H 0.90281 0.96739 0.58712 0.0
C1526 C 0.86905 0.92886 0.59044 0.0
C1527 C 0.85271 0.90512 0.59079 0.0
C1528 C 0.88837 0.91457 0.5899 0.0
C1529 C 0.85604 0.867 0.59084 0.0
C1530 C 0.87511 0.85272 0.59133 0.0
C1531 C 0.9107 0.86188 0.59155 0.0
C1532 C 0.92709 0.88539 0.59004 0.0
C1533 C 0.89142 0.87618 0.59095 0.0
C1534 C 0.92382 0.92347 0.5879 0.0
C1535 C 0.90474 0.9379 0.58821 0.0
H1536 H 0.59842 0.18039 0.34194 0.0
H1537 H 0.61038 0.06429 0.3446 0.0
H1538 H 0.64567 0.07667 0.34672 0.0
H1539 H 0.67329 0.12069 0.34895 0.0
H1540 H 0.66098 0.23672 0.35145 0.0
H1541 H 0.62589 0.22429 0.34628 0.0
C1542 C 0.60877 0.15781 0.34276 0.0
C1543 C 0.60173 0.12142 0.3428 0.0
C1544 C 0.62906 0.16518 0.34509 0.0
C1545 C 0.61536 0.09251 0.34447 0.0
C1546 C 0.63557 0.0996 0.3457 0.0
C1547 C 0.66292 0.14325 0.34831 0.0
C1548 C 0.66984 0.17964 0.35049 0.0
C1549 C 0.64261 0.13583 0.34621 0.0
C1550 C 0.65613 0.20847 0.34996 0.0
C1551 C 0.63602 0.20138 0.34691 0.0
H1552 H 0.17568 0.61407 0.3369 0.0
H1553 H 0.16659 0.73093 0.34209 0.0
H1554 H 0.13104 0.72187 0.33985 0.0
H1555 H 0.10224 0.68047 0.33773 0.0
H1556 H 0.11136 0.56346 0.33863 0.0
H1557 H 0.14692 0.57265 0.33712 0.0
C1558 C 0.1659 0.63753 0.33738 0.0
C1559 C 0.17383 0.67317 0.33943 0.0
C1560 C 0.14537 0.63202 0.33724 0.0
C1561 C 0.16091 0.70323 0.34054 0.0
C1562 C 0.14055 0.69806 0.33922 0.0
C1563 C 0.11204 0.65704 0.3374 0.0
C1564 C 0.10413 0.62131 0.33802 0.0
C1565 C 0.13257 0.66256 0.33774 0.0
C1566 C 0.11704 0.59122 0.33815 0.0
C1567 C 0.1374 0.59647 0.33727 0.0
H1568 H 0.66714 0.58612 0.46139 0.0
H1569 H 0.68889 0.69707 0.4659 0.0
H1570 H 0.65546 0.72083 0.464 0.0
H1571 H 0.6197 0.71052 0.4613 0.0
H1572 H 0.59761 0.59971 0.46181 0.0
H1573 H 0.63111 0.57575 0.46157 0.0
C1574 C 0.66452 0.61546 0.46189 0.0
C1575 C 0.6806 0.6397 0.46363 0.0
C1576 C 0.64505 0.62911 0.46174 0.0
C1577 C 0.67687 0.67769 0.46468 0.0
C1578 C 0.6577 0.69139 0.46351 0.0
C1579 C 0.62223 0.68114 0.46131 0.0
C1580 C 0.60607 0.65704 0.46138 0.0
C1581 C 0.64163 0.66743 0.46209 0.0
C1582 C 0.6097 0.61899 0.46183 0.0
C1583 C 0.62891 0.6052 0.46161 0.0
H1584 H 0.16214 0.0846 0.46315 0.0
H1585 H 0.18787 0.19259 0.45992 0.0
H1586 H 0.15523 0.22036 0.45941 0.0
H1587 H 0.11902 0.21415 0.45881 0.0
H1588 H 0.09342 0.10641 0.46719 0.0
H1589 H 0.12604 0.07865 0.46687 0.0
C1590 C 0.16059 0.11421 0.46243 0.0
C1591 C 0.17751 0.1364 0.46135 0.0
C1592 C 0.14167 0.13017 0.46304 0.0
C1593 C 0.17517 0.17478 0.46084 0.0
C1594 C 0.15645 0.19074 0.46044 0.0
C1595 C 0.12061 0.18462 0.46066 0.0
C1596 C 0.10371 0.16245 0.46281 0.0
C1597 C 0.13955 0.16875 0.46137 0.0
C1598 C 0.10611 0.12422 0.4656 0.0
C1599 C 0.12481 0.10824 0.46531 0.0
H1600 H 0.28888 0.0875 0.14866 0.0
H1601 H 0.34777 0.06886 0.18188 0.0
H1602 H 0.35338 0.13497 0.18406 0.0
H1603 H 0.342 0.19789 0.17476 0.0
H1604 H 0.28366 0.21631 0.13896 0.0
H1605 H 0.27777 0.15024 0.13812 0.0
C1606 C 0.30298 0.09779 0.15626 0.0
C1607 C 0.31794 0.07309 0.1647 0.0
C1608 C 0.30637 0.13579 0.15629 0.0
C1609 C 0.33597 0.08713 0.17517 0.0
C1610 C 0.33927 0.12497 0.17616 0.0
C1611 C 0.32807 0.18752 0.16638 0.0
C1612 C 0.31333 0.21215 0.15682 0.0
C1613 C 0.32469 0.14951 0.16626 0.0
C1614 C 0.29532 0.19807 0.14627 0.0
C1615 C 0.29186 0.16027 0.14606 0.0
H1616 H 0.98482 0.09441 0.15943 0.0
H1617 H 0.92536 0.07361 0.1302 0.0
H1618 H 0.9192 0.13974 0.12752 0.0
H1619 H 0.93075 0.20339 0.13452 0.0
H1620 H 0.98927 0.22245 0.16949 0.0
H1621 H 0.99533 0.15668 0.17083 0.0
C1622 C 0.97042 0.10414 0.15288 0.0
C1623 C 0.95554 0.07898 0.14543 0.0
C1624 C 0.96667 0.14187 0.15316 0.0
C1625 C 0.93711 0.09235 0.13609 0.0
C1626 C 0.93352 0.13014 0.13485 0.0
C1627 C 0.94471 0.19316 0.14295 0.0
C1628 C 0.95959 0.21794 0.15161 0.0
C1629 C 0.94814 0.15515 0.14375 0.0
C1630 C 0.97756 0.20411 0.1626 0.0
C1631 C 0.98113 0.16648 0.16308 0.0
H1632 H 0.68921 0.94622 0.92574 0.0
H1633 H 0.74975 0.95819 0.89801 0.0
H1634 H 0.753 0.89153 0.89461 0.0
H1635 H 0.73891 0.83009 0.90088 0.0
H1636 H 0.67771 0.81825 0.92458 0.0
H1637 H 0.67473 0.8848 0.9297 0.0
C1638 C 0.7031 0.93432 0.91868 0.0
C1639 C 0.71923 0.95723 0.91222 0.0
C1640 C 0.70486 0.89603 0.91679 0.0
C1641 C 0.73706 0.94127 0.90297 0.0
C1642 C 0.73899 0.90314 0.90132 0.0
C1643 C 0.72487 0.84198 0.90701 0.0
C1644 C 0.70851 0.81913 0.91203 0.0
C1645 C 0.72304 0.88028 0.90849 0.0
C1646 C 0.69054 0.83512 0.92054 0.0
C1647 C 0.68879 0.8732 0.92322 0.0
H1648 H 0.0654 0.97403 0.93695 0.0
H1649 H 0.08268 0.95272 0.84224 0.0
H1650 H 0.08068 0.88684 0.85136 0.0
H1651 H 0.07279 0.83476 0.88595 0.0
H1652 H 0.06234 0.85588 0.98314 0.0
H1653 H 0.06294 0.92186 0.97358 0.0
C1654 C 0.06887 0.95488 0.91847 0.0
C1655 C 0.07362 0.96821 0.88879 0.0
C1656 C 0.06878 0.91686 0.9243 0.0
C1657 C 0.07861 0.94318 0.86519 0.0
C1658 C 0.07748 0.90542 0.87035 0.0
C1659 C 0.0707 0.8539 0.90496 0.0
C1660 C 0.06679 0.84054 0.93491 0.0
C1661 C 0.07232 0.8919 0.89971 0.0
C1662 C 0.06481 0.86551 0.95963 0.0
C1663 C 0.06524 0.9033 0.95426 0.0
H1664 H 0.317 0.72916 0.63481 0.0
H1665 H 0.32548 0.71191 0.73309 0.0
H1666 H 0.32437 0.64562 0.72568 0.0
H1667 H 0.31986 0.59196 0.69123 0.0
H1668 H 0.31619 0.60957 0.59225 0.0
H1669 H 0.31652 0.67576 0.59987 0.0
C1670 C 0.31875 0.71082 0.6545 0.0
C1671 C 0.321 0.72541 0.68443 0.0
C1672 C 0.31883 0.67262 0.64998 0.0
C1673 C 0.32362 0.70137 0.70974 0.0
C1674 C 0.32292 0.66339 0.70559 0.0
C1675 C 0.31919 0.6104 0.67144 0.0
C1676 C 0.31762 0.59596 0.64134 0.0
C1677 C 0.32031 0.64863 0.67584 0.0
C1678 C 0.31721 0.62005 0.61575 0.0
C1679 C 0.31741 0.65795 0.62003 0.0
H1680 H 0.95464 0.60249 0.70448 0.0
H1681 H 0.9564 0.56166 0.61056 0.0
H1682 H 0.95363 0.62456 0.5905 0.0
H1683 H 0.95212 0.691 0.6 0.0
H1684 H 0.95691 0.73198 0.69366 0.0
H1685 H 0.95555 0.66904 0.71388 0.0
C1686 C 0.95441 0.60742 0.67964 0.0
C1687 C 0.95559 0.57771 0.65891 0.0
C1688 C 0.95399 0.64358 0.66843 0.0
C1689 C 0.95546 0.58429 0.6268 0.0
C1690 C 0.95388 0.62014 0.61542 0.0
C1691 C 0.95286 0.68615 0.62484 0.0
C1692 C 0.95452 0.71595 0.64541 0.0
C1693 C 0.95334 0.64999 0.63604 0.0
C1694 C 0.95558 0.70935 0.67749 0.0
C1695 C 0.95484 0.67346 0.68899 0.0
H1696 H 0.69251 0.45412 0.45196 0.0
H1697 H 0.74093 0.473 0.38916 0.0
H1698 H 0.74365 0.40724 0.37982 0.0
H1699 H 0.733 0.34461 0.39054 0.0
H1700 H 0.68378 0.32508 0.45144 0.0
H1701 H 0.68096 0.39105 0.46109 0.0
C1702 C 0.70354 0.44391 0.43599 0.0
C1703 C 0.7165 0.46851 0.42131 0.0
C1704 C 0.70509 0.40599 0.43081 0.0
C1705 C 0.73071 0.45476 0.4007 0.0
C1706 C 0.73237 0.41712 0.3955 0.0
C1707 C 0.72166 0.35466 0.40597 0.0
C1708 C 0.70866 0.32992 0.42032 0.0
C1709 C 0.7198 0.39252 0.4107 0.0
C1710 C 0.69401 0.34355 0.44018 0.0
C1711 C 0.69234 0.38125 0.44558 0.0
H1712 H 0.06692 0.32992 0.3685 0.0
H1713 H 0.0882 0.3473 0.46175 0.0
H1714 H 0.08633 0.4135 0.45453 0.0
H1715 H 0.07687 0.46706 0.42247 0.0
H1716 H 0.06121 0.44965 0.32656 0.0
H1717 H 0.06253 0.38336 0.33399 0.0
C1718 C 0.07138 0.34824 0.38704 0.0
C1719 C 0.07727 0.33366 0.41576 0.0
C1720 C 0.07101 0.38645 0.3824 0.0
C1721 C 0.08343 0.35774 0.43941 0.0
C1722 C 0.08227 0.39571 0.43542 0.0
C1723 C 0.0738 0.44863 0.4033 0.0
C1724 C 0.06831 0.46307 0.37436 0.0
C1725 C 0.07573 0.41043 0.4072 0.0
C1726 C 0.065 0.43908 0.34932 0.0
C1727 C 0.06584 0.40115 0.35347 0.0
H1728 H 0.8278 0.07315 0.67349 0.0
H1729 H 0.81925 0.08931 0.57517 0.0
H1730 H 0.81963 0.15567 0.58209 0.0
H1731 H 0.82123 0.20973 0.61671 0.0
H1732 H 0.83776 0.19343 0.71249 0.0
H1733 H 0.83574 0.12716 0.70605 0.0
C1734 C 0.82611 0.09129 0.65366 0.0
C1735 C 0.82262 0.07639 0.62412 0.0
C1736 C 0.82781 0.12959 0.65739 0.0
C1737 C 0.82123 0.10013 0.59837 0.0
C1738 C 0.82158 0.13815 0.60223 0.0
C1739 C 0.82456 0.1916 0.63602 0.0
C1740 C 0.82894 0.20655 0.66525 0.0
C1741 C 0.82462 0.15328 0.63173 0.0
C1742 C 0.83385 0.18272 0.68986 0.0
C1743 C 0.83273 0.1447 0.68625 0.0
H1744 H 0.46239 0.10739 0.7071 0.0
H1745 H 0.46171 0.06554 0.61344 0.0
H1746 H 0.45919 0.1283 0.59307 0.0
H1747 H 0.45789 0.19486 0.60221 0.0
H1748 H 0.46426 0.23679 0.69529 0.0
H1749 H 0.46388 0.17397 0.71598 0.0
C1750 C 0.46173 0.11205 0.68225 0.0
C1751 C 0.46209 0.08209 0.6617 0.0
C1752 C 0.46133 0.14808 0.6708 0.0
C1753 C 0.46141 0.08835 0.62956 0.0
C1754 C 0.45997 0.12412 0.61799 0.0
C1755 C 0.45921 0.19019 0.62701 0.0
C1756 C 0.46094 0.22017 0.64735 0.0
C1757 C 0.46002 0.15416 0.63841 0.0
C1758 C 0.46286 0.21394 0.67936 0.0
C1759 C 0.46265 0.17815 0.6911 0.0
H1760 H 0.18505 0.84451 0.3716 0.0
H1761 H 0.24105 0.82699 0.41611 0.0
H1762 H 0.2448 0.89291 0.42347 0.0
H1763 H 0.23289 0.95535 0.41547 0.0
H1764 H 0.17588 0.97352 0.3748 0.0
H1765 H 0.17212 0.9074 0.36669 0.0
C1766 C 0.19798 0.85507 0.38322 0.0
C1767 C 0.21278 0.83078 0.39317 0.0
C1768 C 0.20004 0.89309 0.38747 0.0
C1769 C 0.22939 0.84496 0.40831 0.0
C1770 C 0.23164 0.88271 0.4123 0.0
C1771 C 0.21957 0.94496 0.40501 0.0
C1772 C 0.20468 0.96941 0.39585 0.0
C1773 C 0.21719 0.907 0.4016 0.0
C1774 C 0.1876 0.95533 0.38203 0.0
C1775 C 0.18539 0.91753 0.37756 0.0
H1776 H 0.58898 0.94519 0.36562 0.0
H1777 H 0.5346 0.9628 0.41487 0.0
H1778 H 0.53217 0.89713 0.42555 0.0
H1779 H 0.54506 0.83465 0.41994 0.0
H1780 H 0.60009 0.81717 0.37261 0.0
H1781 H 0.60245 0.88284 0.36155 0.0
C1782 C 0.57665 0.93474 0.37889 0.0
C1783 C 0.562 0.95898 0.38942 0.0
C1784 C 0.57531 0.89692 0.38491 0.0
C1785 C 0.54615 0.94488 0.40662 0.0
C1786 C 0.54467 0.90726 0.41257 0.0
C1787 C 0.55756 0.84513 0.40715 0.0
C1788 C 0.57235 0.82093 0.39706 0.0
C1789 C 0.55907 0.88301 0.40158 0.0
C1790 C 0.58848 0.83512 0.3806 0.0
C1791 C 0.58987 0.8727 0.37437 0.0
H1792 H 0.79535 0.5878 0.14847 0.0
H1793 H 0.85453 0.57087 0.18103 0.0
H1794 H 0.85839 0.63705 0.18837 0.0
H1795 H 0.84511 0.69962 0.18449 0.0
H1796 H 0.78661 0.7161 0.14858 0.0
H1797 H 0.78263 0.65001 0.14244 0.0
C1798 C 0.80913 0.59847 0.1571 0.0
C1799 C 0.82465 0.57437 0.16407 0.0
C1800 C 0.81149 0.63648 0.16012 0.0
C1801 C 0.84234 0.58879 0.1755 0.0
C1802 C 0.8446 0.62663 0.17952 0.0
C1803 C 0.83154 0.68881 0.17506 0.0
C1804 C 0.81617 0.71283 0.16706 0.0
C1805 C 0.82933 0.65074 0.17158 0.0
C1806 C 0.79872 0.69831 0.1548 0.0
C1807 C 0.79636 0.66048 0.15152 0.0
H1808 H 0.43396 0.58883 0.18657 0.0
H1809 H 0.49122 0.5698 0.14662 0.0
H1810 H 0.49658 0.63566 0.14248 0.0
H1811 H 0.48557 0.6982 0.1515 0.0
H1812 H 0.42768 0.71838 0.18827 0.0
H1813 H 0.42236 0.6523 0.19363 0.0
C1814 C 0.44751 0.59906 0.17658 0.0
C1815 C 0.46215 0.57434 0.16692 0.0
C1816 C 0.45058 0.63709 0.17438 0.0
C1817 C 0.47966 0.58814 0.15418 0.0
C1818 C 0.48283 0.62583 0.15201 0.0
C1819 C 0.47172 0.68834 0.16049 0.0
C1820 C 0.457 0.71332 0.16913 0.0
C1821 C 0.46849 0.65048 0.16236 0.0
C1822 C 0.4393 0.6998 0.1814 0.0
C1823 C 0.43617 0.66201 0.18424 0.0
H1824 H 0.23454 0.33689 0.90066 0.0
H1825 H 0.17376 0.32118 0.92517 0.0
H1826 H 0.16916 0.38767 0.92773 0.0
H1827 H 0.18219 0.45021 0.92129 0.0
H1828 H 0.24215 0.46514 0.89141 0.0
H1829 H 0.24694 0.39884 0.89091 0.0
C1830 C 0.22023 0.3479 0.90632 0.0
C1831 C 0.20448 0.32395 0.91233 0.0
C1832 C 0.21741 0.38604 0.90603 0.0
C1833 C 0.18616 0.33889 0.92038 0.0
C1834 C 0.18346 0.37693 0.92155 0.0
C1835 C 0.19624 0.43902 0.91424 0.0
C1836 C 0.21182 0.4628 0.90662 0.0
C1837 C 0.19891 0.40077 0.9139 0.0
C1838 C 0.22989 0.44763 0.89745 0.0
C1839 C 0.23271 0.40968 0.89744 0.0
H1840 H 0.56601 0.32674 0.8764 0.0
H1841 H 0.58109 0.34481 0.97254 0.0
H1842 H 0.58009 0.41097 0.96459 0.0
H1843 H 0.57377 0.46433 0.93056 0.0
H1844 H 0.56443 0.44622 0.83269 0.0
H1845 H 0.56437 0.37995 0.8409 0.0
C1846 C 0.56921 0.34523 0.89548 0.0
C1847 C 0.57315 0.33088 0.92511 0.0
C1848 C 0.56953 0.3834 0.89046 0.0
C1849 C 0.57773 0.35511 0.94952 0.0
C1850 C 0.57715 0.39303 0.94506 0.0
C1851 C 0.57181 0.44576 0.91112 0.0
C1852 C 0.56863 0.46002 0.88126 0.0
C1853 C 0.57283 0.40756 0.91571 0.0
C1854 C 0.56661 0.4358 0.85603 0.0
C1855 C 0.5666 0.39789 0.86066 0.0
H1856 H 0.26578 0.20639 0.40221 0.0
H1857 H 0.2454 0.11613 0.34618 0.0
H1858 H 0.25139 0.15194 0.29896 0.0
H1859 H 0.26152 0.21044 0.27259 0.0
H1860 H 0.28235 0.29953 0.32923 0.0
H1861 H 0.27685 0.26353 0.37605 0.0
C1862 C 0.2628 0.1942 0.37973 0.0
C1863 C 0.25515 0.15795 0.37844 0.0
C1864 C 0.26617 0.2153 0.3522 0.0
C1865 C 0.25134 0.14354 0.34856 0.0
C1866 C 0.25472 0.16424 0.32125 0.0
C1867 C 0.26509 0.22195 0.29509 0.0
C1868 C 0.27237 0.25851 0.29671 0.0
C1869 C 0.26202 0.20039 0.3226 0.0
C1870 C 0.27647 0.27229 0.32663 0.0
C1871 C 0.27344 0.25133 0.35373 0.0
H1872 H 0.0369 0.16101 0.34587 0.0
H1873 H 1.00915 0.09758 0.4184 0.0
H1874 H 0.99997 0.05085 0.38086 0.0
H1875 H 0.99987 0.02609 0.32716 0.0
H1876 H 0.02687 0.08889 0.25389 0.0
H1877 H 0.03599 0.13664 0.2913 0.0
C1878 C 0.02865 0.13724 0.35351 0.0
C1879 C 0.02382 0.13362 0.38556 0.0
C1880 C 0.02326 0.10964 0.33137 0.0
C1881 C 1.01322 0.10191 0.39434 0.0
C1882 C 1.00793 0.07474 0.3727 0.0
C1883 C 1.00786 0.05008 0.31931 0.0
C1884 C 1.01262 0.05338 0.28733 0.0
C1885 C 1.01297 0.07796 0.34114 0.0
C1886 C 0.0228 0.08527 0.27805 0.0
C1887 C 0.02809 0.11278 0.2996 0.0
H1888 H 0.28343 1.02165 0.97591 0.0
H1889 H 0.25269 0.07945 0.04834 0.0
H1890 H 0.24332 0.1274 1.01125 0.0
H1891 H 0.24318 0.15339 0.95722 0.0
H1892 H 0.27389 0.09457 0.88509 0.0
H1893 H 0.28361 0.04768 0.92243 0.0
C1894 C 0.27455 0.04454 0.98366 0.0
C1895 C 0.26892 0.04642 1.01541 0.0
C1896 C 0.26914 0.07248 0.96191 0.0
C1897 C 0.25756 0.07697 1.02447 0.0
C1898 C 0.2521 0.10459 1.00306 0.0
C1899 C 0.25218 0.13059 0.94962 0.0
C1900 C 0.25773 0.12836 0.91777 0.0
C1901 C 0.25778 0.10286 0.97159 0.0
C1902 C 0.26927 0.09783 0.90902 0.0
C1903 C 0.27487 0.07059 0.93055 0.0
H1904 H 0.03442 0.14117 0.95757 0.0
H1905 H 1.00667 0.20563 0.88569 0.0
H1906 H 0.99708 0.25134 0.92374 0.0
H1907 H 0.99656 0.27516 0.97766 0.0
H1908 H 0.02329 0.21164 0.05063 0.0
H1909 H 0.03292 0.16458 1.01272 0.0
C1910 C 0.02608 0.16493 0.95018 0.0
C1911 C 0.02142 0.16908 0.91805 0.0
C1912 C 0.02039 0.19205 0.97271 0.0
C1913 C 1.01067 0.20081 0.90971 0.0
C1914 C 1.00512 0.22745 0.93167 0.0
C1915 C 1.00463 0.25119 0.98536 0.0
C1916 C 1.0092 0.24754 1.01739 0.0
C1917 C 1.00999 0.22373 0.96324 0.0
C1918 C 0.01941 0.21558 1.02645 0.0
C1919 C 0.02498 0.18847 1.00458 0.0
H1920 H 0.75056 0.76506 0.72783 0.0
H1921 H 0.77182 0.83489 0.80107 0.0
H1922 H 0.78045 0.88214 0.76272 0.0
H1923 H 0.78281 0.90396 0.70717 0.0
H1924 H 0.76066 0.83308 0.63491 0.0
H1925 H 0.75189 0.78714 0.6734 0.0
C1926 C 0.75723 0.79045 0.73555 0.0
C1927 C 0.76054 0.79576 0.76781 0.0
C1928 C 0.76208 0.81797 0.71312 0.0
C1929 C 0.76888 0.82958 0.77676 0.0
C1930 C 0.77392 0.8568 0.75462 0.0
C1931 C 0.77587 0.8787 0.69976 0.0
C1932 C 0.77254 0.87285 0.66742 0.0
C1933 C 0.77064 0.85149 0.72254 0.0
C1934 C 0.76358 0.83925 0.65908 0.0
C1935 C 0.75851 0.8125 0.68131 0.0
H1936 H 1.00943 0.96369 0.77963 0.0
H1937 H 0.03301 0.05136 0.72362 0.0
H1938 H 0.02759 1.01514 0.67665 0.0
H1939 H 0.01603 0.95813 0.65024 0.0
H1940 H 0.99378 0.86937 0.70651 0.0
H1941 H 0.9993 0.90549 0.75344 0.0
C1942 C 1.01379 0.9748 0.75731 0.0
C1943 C 0.02181 1.01085 0.75594 0.0
C1944 C 1.01093 0.95321 0.72981 0.0
C1945 C 0.02661 0.02434 0.72608 0.0
C1946 C 0.02364 1.00333 0.69891 0.0
C1947 C 1.01254 0.94635 0.67271 0.0
C1948 C 1.00448 0.91032 0.67405 0.0
C1949 C 0.01579 0.96763 0.70028 0.0
C1950 C 1.00005 0.89651 0.70398 0.0
C1951 C 1.00316 0.91743 0.73117 0.0
H1952 H 0.80012 0.95462 0.13741 0.0
H1953 H 0.75025 0.88315 0.12809 0.0
H1954 H 0.73866 0.91925 0.08338 0.0
H1955 H 0.74235 0.97258 0.04678 0.0
H1956 H 0.79477 0.03835 0.05266 0.0
H1957 H 0.8053 1.00399 0.09815 0.0
C1958 C 0.78667 0.94696 0.12567 0.0
C1959 C 0.77597 0.9162 0.13675 0.0
C1960 C 0.78039 0.96729 0.09905 0.0
C1961 C 0.75878 0.90659 0.12054 0.0
C1962 C 0.75214 0.92736 0.09479 0.0
C1963 C 0.75623 0.97922 0.05764 0.0
C1964 C 0.7673 1.00948 0.04608 0.0
C1965 C 0.76279 0.95792 0.08368 0.0
C1966 C 0.78526 1.01688 0.06113 0.0
C1967 C 0.79153 0.99667 0.08726 0.0
H1968 H 0.03262 0.83505 0.03468 0.0
H1969 H 0.99714 0.74629 0.06994 0.0
H1970 H 0.98874 0.78275 0.11551 0.0
H1971 H 0.99136 0.84009 0.14657 0.0
H1972 H 0.023 0.93198 0.10852 0.0
H1973 H 0.03262 0.89479 0.06343 0.0
C1974 C 0.02276 0.82372 0.05191 0.0
C1975 C 0.01601 0.78696 0.04856 0.0
C1976 C 0.0173 0.84567 0.07812 0.0
C1977 C 1.00324 0.77362 0.07181 0.0
C1978 C 0.99827 0.79472 0.09806 0.0
C1979 C 1.00048 0.85199 0.12852 0.0
C1980 C 1.00671 0.88896 0.13161 0.0
C1981 C 1.00534 0.83069 0.10178 0.0
C1982 C 0.01808 0.90377 0.10727 0.0
C1983 C 0.02358 0.88237 0.08128 0.0
H1984 H 0.25507 0.72938 0.78238 0.0
H1985 H 0.28866 0.80368 0.83934 0.0
H1986 H 0.28274 0.76493 0.88457 0.0
H1987 H 0.26798 0.70907 0.90918 0.0
H1988 H 0.23734 0.63204 0.85071 0.0
H1989 H 0.24279 0.67152 0.80569 0.0
C1990 C 0.26161 0.73709 0.80424 0.0
C1991 C 0.27225 0.77061 0.80651 0.0
C1992 C 0.25873 0.71357 0.83057 0.0
C1993 C 0.27989 0.77923 0.8362 0.0
C1994 C 0.27669 0.7566 0.86239 0.0
C1995 C 0.26259 0.70063 0.8866 0.0
C1996 C 0.25217 0.66693 0.88404 0.0
C1997 C 0.26606 0.72361 0.86007 0.0
C1998 C 0.24547 0.65724 0.85407 0.0
C1999 C 0.24853 0.68012 0.82801 0.0
H2000 H 0.01668 0.5893 0.90445 0.0
H2001 H 0.03517 0.6811 0.84827 0.0
H2002 H 0.02924 0.64551 0.80112 0.0
H2003 H 0.0198 0.587 0.77467 0.0
H2004 H 0.99931 0.49673 0.8308 0.0
H2005 H 1.00547 0.53216 0.8779 0.0
C2006 C 0.0193 0.60182 0.88196 0.0
C2007 C 0.02643 0.63854 0.8807 0.0
C2008 C 0.01569 0.58095 0.85429 0.0
C2009 C 0.02965 0.65339 0.85075 0.0
C2010 C 0.0263 0.63279 0.82342 0.0
C2011 C 0.01621 0.57515 0.79705 0.0
C2012 C 1.00894 0.53852 0.79836 0.0
C2013 C 0.01938 0.59638 0.8247 0.0
C2014 C 1.00517 0.52417 0.82832 0.0
C2015 C 1.00855 0.54473 0.85559 0.0
H2016 H 0.27883 0.5238 0.48441 0.0
H2017 H 0.24812 0.58956 0.552 0.0
H2018 H 0.23991 0.63403 0.5121 0.0
H2019 H 0.24065 0.65537 0.45698 0.0
H2020 H 0.26917 0.58776 0.38834 0.0
H2021 H 0.27852 0.54389 0.42885 0.0
C2022 C 0.27019 0.54766 0.49059 0.0
C2023 C 0.26472 0.55286 0.52228 0.0
C2024 C 0.26496 0.57344 0.46682 0.0
C2025 C 0.25351 0.58452 0.52888 0.0
C2026 C 0.24848 0.6102 0.5056 0.0
C2027 C 0.24906 0.63124 0.45076 0.0
C2028 C 0.25426 0.62569 0.41905 0.0
C2029 C 0.25418 0.60526 0.47442 0.0
C2030 C 0.26491 0.59348 0.41211 0.0
C2031 C 0.27028 0.56808 0.43547 0.0
H2032 H 0.99527 0.77291 0.47518 0.0
H2033 H 0.0284 0.7163 0.5457 0.0
H2034 H 0.03779 0.66928 0.50795 0.0
H2035 H 0.03741 0.64382 0.45386 0.0
H2036 H 1.00615 0.70313 0.38262 0.0
H2037 H 0.99563 0.74852 0.42092 0.0
C2038 C 1.00458 0.75034 0.4824 0.0
C2039 C 1.01059 0.74825 0.51404 0.0
C2040 C 1.01041 0.72337 0.46002 0.0
C2041 C 0.02284 0.71854 0.52221 0.0
C2042 C 0.02843 0.69157 0.50033 0.0
C2043 C 0.02813 0.66642 0.44664 0.0
C2044 C 0.02255 0.66917 0.41481 0.0
C2045 C 0.02231 0.69345 0.46906 0.0
C2046 C 1.01076 0.69954 0.40652 0.0
C2047 C 1.0047 0.72584 0.42862 0.0
H2048 H 0.76412 0.33681 0.15602 0.0
H2049 H 0.7807 0.42947 0.21239 0.0
H2050 H 0.77363 0.39424 0.25953 0.0
H2051 H 0.76347 0.33588 0.28583 0.0
H2052 H 0.74681 0.24395 0.22885 0.0
H2053 H 0.75335 0.27933 0.1821 0.0
C2054 C 0.76605 0.34961 0.17854 0.0
C2055 C 0.77293 0.38639 0.17996 0.0
C2056 C 0.76212 0.32881 0.20606 0.0
C2057 C 0.77541 0.40161 0.2099 0.0
C2058 C 0.7714 0.38126 0.23717 0.0
C2059 C 0.7611 0.32351 0.26326 0.0
C2060 C 0.75469 0.28637 0.26165 0.0
C2061 C 0.76484 0.34463 0.23573 0.0
C2062 C 0.75205 0.27163 0.23162 0.0
C2063 C 0.75566 0.29223 0.20449 0.0
H2064 H 0.03531 0.51813 0.22875 0.0
H2065 H 0.99353 0.47377 0.29389 0.0
H2066 H 0.98438 0.4265 0.25646 0.0
H2067 H 0.98715 0.39811 0.20362 0.0
H2068 H 0.02764 0.44538 0.13773 0.0
H2069 H 0.03793 0.49044 0.1763 0.0
C2070 C 0.02409 0.49832 0.23484 0.0
C2071 C 0.0154 0.49994 0.26483 0.0
C2072 C 0.01851 0.47125 0.21264 0.0
C2073 C 1.00103 0.47332 0.27179 0.0
C2074 C 0.99557 0.4462 0.25002 0.0
C2075 C 0.99842 0.41791 0.19775 0.0
C2076 C 1.00662 0.41758 0.16735 0.0
C2077 C 1.00415 0.44476 0.22023 0.0
C2078 C 0.02098 0.44433 0.16058 0.0
C2079 C 0.0269 0.47042 0.18278 0.0
H2080 H 0.79015 0.45477 0.64666 0.0
H2081 H 0.76088 0.36201 0.60583 0.0
H2082 H 0.75015 0.40061 0.56201 0.0
H2083 H 0.74844 0.46207 0.53524 0.0
H2084 H 0.78229 0.55142 0.57325 0.0
H2085 H 0.79138 0.51356 0.61748 0.0
C2086 C 0.78137 0.44288 0.62824 0.0
C2087 C 0.77615 0.40521 0.63024 0.0
C2088 C 0.77585 0.4651 0.60227 0.0
C2089 C 0.76511 0.39065 0.60543 0.0
C2090 C 0.75894 0.41292 0.58019 0.0
C2091 C 0.75803 0.47337 0.55281 0.0
C2092 C 0.76394 0.5109 0.55059 0.0
C2093 C 0.76417 0.45039 0.57821 0.0
C2094 C 0.77653 0.5238 0.57427 0.0
C2095 C 0.78203 0.50177 0.59974 0.0
H2096 H 0.99207 0.40539 0.59804 0.0
H2097 H 0.02845 0.34982 0.66535 0.0
H2098 H 0.03821 0.30519 0.62633 0.0
H2099 H 0.03637 0.27989 0.57293 0.0
H2100 H 1.00004 0.33379 0.50501 0.0
H2101 H 0.99067 0.38017 0.54361 0.0
C2102 C 1.00235 0.38389 0.60414 0.0
C2103 C 1.00946 0.38179 0.63523 0.0
C2104 C 1.00799 0.35738 0.58116 0.0
C2105 C 0.0226 0.35289 0.64209 0.0
C2106 C 0.02824 0.32695 0.6196 0.0
C2107 C 0.02636 0.30173 0.56649 0.0
C2108 C 0.01917 0.30314 0.53558 0.0
C2109 C 0.02095 0.32856 0.58908 0.0
C2110 C 1.00621 0.33201 0.52815 0.0
C2111 C 1.00073 0.35862 0.55045 0.0
H2112 H 0.74575 0.13826 0.84873 0.0
H2113 H 0.77284 0.2054 0.91918 0.0
H2114 H 0.78209 0.25048 0.87992 0.0
H2115 H 0.78259 0.27238 0.8251 0.0
H2116 H 0.75487 0.20686 0.75448 0.0
H2117 H 0.74597 0.16073 0.79356 0.0
C2118 C 0.75387 0.1625 0.85555 0.0
C2119 C 0.7586 0.16762 0.88748 0.0
C2120 C 0.75907 0.18924 0.83249 0.0
C2121 C 0.76891 0.19998 0.89523 0.0
C2122 C 0.77423 0.22615 0.8726 0.0
C2123 C 0.77453 0.24809 0.81819 0.0
C2124 C 0.76981 0.24323 0.78633 0.0
C2125 C 0.76933 0.22137 0.84111 0.0
C2126 C 0.75923 0.21134 0.77838 0.0
C2127 C 0.75402 0.18482 0.80093 0.0
H2128 H 0.4919 0.06957 0.79818 0.0
H2129 H 0.5469 1.01115 0.79886 0.0
H2130 H 0.55767 0.04658 0.84354 0.0
H2131 H 0.55201 0.09493 0.88362 0.0
H2132 H 0.4988 0.15828 0.88014 0.0
H2133 H 0.48725 0.12136 0.83597 0.0
C2134 C 0.50637 0.0647 0.80774 0.0
C2135 C 0.51816 0.03615 0.79485 0.0
C2136 C 0.51296 0.08657 0.83344 0.0
C2137 C 0.53686 0.03114 0.80831 0.0
C2138 C 0.54326 0.05203 0.83398 0.0
C2139 C 0.53786 0.10071 0.87324 0.0
C2140 C 0.52628 0.12953 0.88581 0.0
C2141 C 0.53145 0.0797 0.84704 0.0
C2142 C 0.50809 0.1365 0.87141 0.0
C2143 C 0.50146 0.11521 0.84596 0.0
H2144 H 0.75489 0.07844 0.53286 0.0
H2145 H 0.78089 0.99525 0.47464 0.0
H2146 H 0.77476 0.03263 0.42891 0.0
H2147 H 0.76196 0.08933 0.40412 0.0
H2148 H 0.73808 0.17468 0.46221 0.0
H2149 H 0.74397 0.13701 0.50837 0.0
C2150 C 0.75949 0.06833 0.51043 0.0
C2151 C 0.768 0.03276 0.50803 0.0
C2152 C 0.75642 0.09091 0.48358 0.0
C2153 C 0.77356 1.02126 0.47791 0.0
C2154 C 0.77031 0.04311 0.4514 0.0
C2155 C 0.75815 0.1 0.42684 0.0
C2156 C 0.74952 0.13538 0.42905 0.0
C2157 C 0.76167 0.07799 0.45376 0.0
C2158 C 0.74479 0.14799 0.45917 0.0
C2159 C 0.7481 0.1262 0.48585 0.0
H2160 H 0.52097 0.22033 0.52594 0.0
H2161 H 0.49081 0.30147 0.47079 0.0
H2162 H 0.49625 0.26488 0.42414 0.0
H2163 H 0.50943 0.20876 0.39777 0.0
H2164 H 0.53647 0.12489 0.45414 0.0
H2165 H 0.5317 0.16231 0.50048 0.0
C2166 C 0.51505 0.2298 0.504 0.0
C2167 C 0.50539 0.26439 0.50273 0.0
C2168 C 0.51758 0.20756 0.47682 0.0
C2169 C 0.49867 0.27583 0.47318 0.0
C2170 C 0.5016 0.25449 0.44618 0.0
C2171 C 0.51416 0.19838 0.42017 0.0
C2172 C 0.52336 0.16333 0.42171 0.0
C2173 C 0.51106 0.22017 0.44751 0.0
C2174 C 0.52926 0.15118 0.4515 0.0
C2175 C 0.5266 0.17286 0.47835 0.0
H2176 H 0.27423 0.76224 0.23274 0.0
H2177 H 0.2391 0.83756 0.28633 0.0
H2178 H 0.24513 0.88566 0.24816 0.0
H2179 H 0.25977 0.90724 0.19768 0.0
H2180 H 0.28999 0.82827 0.14052 0.0
H2181 H 0.28578 0.78148 0.18058 0.0
C2182 C 0.26747 0.78885 0.23604 0.0
C2183 C 0.25633 0.79544 0.26344 0.0
C2184 C 0.26995 0.8163 0.21263 0.0
C2185 C 0.24832 0.83102 0.26669 0.0
C2186 C 0.25151 0.85881 0.2443 0.0
C2187 C 0.26534 0.87976 0.19386 0.0
C2188 C 0.27526 0.87183 0.16557 0.0
C2189 C 0.26227 0.85194 0.21697 0.0
C2190 C 0.28217 0.83563 0.16154 0.0
C2191 C 0.27986 0.80864 0.1847 0.0
H2192 H 0.53367 0.9618 0.26865 0.0
H2193 H 0.49216 0.04497 0.24112 0.0
H2194 H 0.48265 1.0083 0.19623 0.0
H2195 H 0.48602 0.95255 0.16352 0.0
H2196 H 0.52399 0.86534 0.19409 0.0
H2197 H 0.53468 0.90288 0.2384 0.0
C2198 C 0.52235 0.97181 0.25315 0.0
C2199 C 0.51415 1.0072 0.25833 0.0
C2200 C 0.51632 0.94963 0.2274 0.0
C2201 C 0.49935 1.0188 0.23762 0.0
C2202 C 0.49376 0.9976 0.2118 0.0
C2203 C 0.49675 0.94178 0.17974 0.0
C2204 C 0.50444 0.90613 0.17477 0.0
C2205 C 0.50226 0.96311 0.20611 0.0
C2206 C 0.51792 0.89261 0.19683 0.0
C2207 C 0.52402 0.91419 0.22236 0.0
H2208 H 0.28189 0.89502 0.60432 0.0
H2209 H 0.26247 0.97016 0.67543 0.0
H2210 H 0.25369 1.01497 0.63594 0.0
H2211 H 0.25167 0.03493 0.58067 0.0
H2212 H 0.26999 0.96008 0.50896 0.0
H2213 H 0.27881 0.9144 0.54842 0.0
C2214 C 0.27556 0.92101 0.6113 0.0
C2215 C 0.27296 0.92838 0.64357 0.0
C2216 C 0.27036 0.94752 0.58796 0.0
C2217 C 0.26478 0.96284 0.65131 0.0
C2218 C 0.25975 0.98897 0.6285 0.0
C2219 C 0.25772 1.00875 0.57356 0.0
C2220 C 0.26012 1.00153 0.54134 0.0
C2221 C 0.26258 0.98197 0.59668 0.0
C2222 C 0.26776 0.96684 0.5332 0.0
C2223 C 0.27288 0.94049 0.55597 0.0
H2224 H 0.51835 0.8344 0.65652 0.0
H2225 H 0.49909 0.92404 0.59856 0.0
H2226 H 0.50547 0.88723 0.55208 0.0
H2227 H 0.51569 0.82818 0.52692 0.0
H2228 H 0.53579 0.73971 0.58544 0.0
H2229 H 0.52968 0.77669 0.63154 0.0
C2230 C 0.51567 0.84622 0.63378 0.0
C2231 C 0.50822 0.88262 0.63172 0.0
C2232 C 0.51931 0.82455 0.60668 0.0
C2233 C 0.50485 0.89656 0.60153 0.0
C2234 C 0.50846 0.87528 0.57466 0.0
C2235 C 0.51887 0.81694 0.5497 0.0
C2236 C 0.52587 0.78022 0.55204 0.0
C2237 C 0.51558 0.83902 0.57677 0.0
C2238 C 0.52979 0.76692 0.58225 0.0
C2239 C 0.5265 0.78845 0.60894 0.0
H2240 H 0.73651 0.70404 0.38869 0.0
H2241 H 0.78825 0.63725 0.37984 0.0
H2242 H 0.79961 0.67569 0.33635 0.0
H2243 H 0.79509 0.72966 0.30064 0.0
H2244 H 0.74128 0.7913 0.30616 0.0
H2245 H 0.73076 0.75439 0.35054 0.0
C2246 C 0.7503 0.6979 0.37729 0.0
C2247 C 0.76159 0.66775 0.38807 0.0
C2248 C 0.75651 0.71971 0.35152 0.0
C2249 C 0.77926 0.66015 0.37242 0.0
C2250 C 0.78577 0.68227 0.34741 0.0
C2251 C 0.78101 0.73499 0.31144 0.0
C2252 C 0.76947 0.76486 0.30044 0.0
C2253 C 0.77457 0.7123 0.33666 0.0
C2254 C 0.7511 0.77029 0.31475 0.0
C2255 C 0.74488 0.74862 0.34006 0.0
H2256 H 0.5184 0.57435 0.27974 0.0
H2257 H 0.4992 0.48468 0.33768 0.0
H2258 H 0.50554 0.52111 0.38411 0.0
H2259 H 0.51669 0.57889 0.40943 0.0
H2260 H 0.53484 0.66962 0.35173 0.0
H2261 H 0.52836 0.63322 0.30514 0.0
C2262 C 0.51541 0.56276 0.30247 0.0
C2263 C 0.50849 0.526 0.30455 0.0
C2264 C 0.51879 0.58451 0.32966 0.0
C2265 C 0.50501 0.51208 0.3347 0.0
C2266 C 0.50844 0.53327 0.36156 0.0
C2267 C 0.51909 0.59103 0.38673 0.0
C2268 C 0.52627 0.62764 0.38478 0.0
C2269 C 0.51538 0.56958 0.35952 0.0
C2270 C 0.52929 0.64199 0.35463 0.0
C2271 C 0.52563 0.62093 0.32769 0.0
H2272 H 0.7491 0.65562 0.95906 0.0
H2273 H 0.76683 0.58064 0.88676 0.0
H2274 H 0.77509 0.53456 0.92569 0.0
H2275 H 0.77722 0.51389 0.98077 0.0
H2276 H 0.76029 0.58849 0.05351 0.0
H2277 H 0.75204 0.63528 1.01462 0.0
C2278 C 0.75491 0.62936 0.95169 0.0
C2279 C 0.75725 0.62238 0.91933 0.0
C2280 C 0.75976 0.60224 0.97464 0.0
C2281 C 0.76478 0.5876 0.91101 0.0
C2282 C 0.7695 0.56083 0.93347 0.0
C2283 C 0.77154 0.54024 0.98819 0.0
C2284 C 0.76927 0.54706 1.0205 0.0
C2285 C 0.76696 0.56754 0.96541 0.0
C2286 C 0.76227 0.582 0.02915 0.0
C2287 C 0.7575 0.60897 1.00673 0.0
H2288 H 0.50595 0.63625 0.94492 0.0
H2289 H 0.54891 0.7066 0.90188 0.0
H2290 H 0.5447 0.75167 0.94334 0.0
H2291 H 0.52954 0.77126 0.99288 0.0
H2292 H 0.48236 0.70655 0.03123 0.0
H2293 H 0.48797 0.6597 0.99195 0.0
C2294 C 0.51435 0.66148 0.9445 0.0
C2295 C 0.52788 0.66744 0.91982 0.0
C2296 C 0.51133 0.68853 0.96826 0.0
C2297 C 0.53834 0.70084 0.92007 0.0
C2298 C 0.53599 0.72682 0.94406 0.0
C2299 C 0.52007 0.74756 0.99274 0.0
C2300 C 0.50577 0.74308 1.01663 0.0
C2301 C 0.52254 0.72113 0.96843 0.0
C2302 C 0.49418 0.71092 1.01486 0.0
C2303 C 0.49715 0.68397 0.99174 0.0
H2304 H 0.25123 0.27444 0.72976 0.0
H2305 H 0.26929 0.34256 0.80627 0.0
H2306 H 0.27812 0.39173 0.76993 0.0
H2307 H 0.28139 0.41601 0.71543 0.0
H2308 H 0.26281 0.34691 0.63953 0.0
H2309 H 0.25381 0.29876 0.67601 0.0
C2310 C 0.25729 0.29984 0.73861 0.0
C2311 C 0.25957 0.30415 0.7712 0.0
C2312 C 0.26228 0.32851 0.71732 0.0
C2313 C 0.26713 0.33801 0.78165 0.0
C2314 C 0.27228 0.36636 0.76068 0.0
C2315 C 0.2752 0.39062 0.70677 0.0
C2316 C 0.2729 0.38594 0.6741 0.0
C2317 C 0.26993 0.36214 0.72831 0.0
C2318 C 0.2649 0.35216 0.66408 0.0
C2319 C 0.25973 0.32415 0.68512 0.0
H2320 H 0.53358 0.52399 0.72836 0.0
H2321 H 0.49632 0.47021 0.79534 0.0
H2322 H 0.48739 0.42427 0.75684 0.0
H2323 H 0.48915 0.39899 0.70274 0.0
H2324 H 0.5247 0.45551 0.63499 0.0
H2325 H 0.53481 0.49982 0.67437 0.0
C2326 C 0.52336 0.50246 0.73467 0.0
C2327 C 0.5161 0.501 0.76567 0.0
C2328 C 0.51782 0.47599 0.71179 0.0
C2329 C 0.50295 0.4722 0.77264 0.0
C2330 C 0.49755 0.44575 0.75019 0.0
C2331 C 0.49931 0.42067 0.69658 0.0
C2332 C 0.50621 0.42306 0.6654 0.0
C2333 C 0.50489 0.44712 0.71959 0.0
C2334 C 0.51909 0.45227 0.65839 0.0
C2335 C 0.5249 0.47796 0.68108 0.0
H2336 H 0.2872 0.39541 0.09855 0.0
H2337 H 0.25239 0.45007 0.16831 0.0
H2338 H 0.24257 0.49639 0.13056 0.0
H2339 H 0.24395 0.52325 0.07753 0.0
H2340 H 0.27885 0.46995 1.00746 0.0
H2341 H 0.28828 0.42225 0.04485 0.0
C2342 C 0.27724 0.41709 0.10546 0.0
C2343 C 0.27057 0.41846 0.13676 0.0
C2344 C 0.27165 0.44456 0.08332 0.0
C2345 C 0.25787 0.44761 0.14477 0.0
C2346 C 0.25222 0.4745 0.12304 0.0
C2347 C 0.2537 0.50132 0.0704 0.0
C2348 C 0.2605 0.50048 0.03927 0.0
C2349 C 0.25911 0.47362 0.09226 0.0
C2350 C 0.27309 0.47142 0.0309 0.0
C2351 C 0.27855 0.44398 0.05244 0.0
H2352 H 0.50512 0.32204 0.03082 0.0
H2353 H 0.54243 0.24722 0.08123 0.0
H2354 H 0.53771 0.28283 0.12858 0.0
H2355 H 0.52287 0.33564 0.1568 0.0
H2356 H 0.48801 0.41353 0.1053 0.0
H2357 H 0.49257 0.37764 0.05796 0.0
C2358 C 0.51275 0.31392 0.05178 0.0
C2359 C 0.52423 0.28139 0.05173 0.0
C2360 C 0.51049 0.33555 0.07927 0.0
C2361 C 0.5332 0.27136 0.08008 0.0
C2362 C 0.53065 0.29208 0.1074 0.0
C2363 C 0.51642 0.34511 0.13521 0.0
C2364 C 0.50507 0.37781 0.13524 0.0
C2365 C 0.51929 0.32428 0.10746 0.0
C2366 C 0.49691 0.38896 0.10656 0.0
C2367 C 0.49944 0.36817 0.07922 0.0
loop_
_geom_bond_atom_site_label_1
_geom_bond_atom_site_label_2
_geom_bond_distance
_geom_bond_site_symmetry_2
_ccdc_geom_bond_type
Co0 O3 1.970 . S
Co0 N17 1.989 . S
Co0 O25 1.967 . S
Co0 O32 1.920 . S
Co1 O4 1.966 . S
Co1 N10 2.022 . S
Co1 N18 1.993 . S
Co1 O26 1.941 . S
C2 O3 1.258 . S
C2 O4 1.263 . S
O3 Co0 1.970 . S
O3 C2 1.258 . S
O4 Co1 1.966 . S
O4 C2 1.263 . S
C5 O6 1.235 . S
C5 O32 1.289 . S
O6 C5 1.235 . S
C7 C9 1.400 . S
C7 N10 1.351 . S
C7 C12 1.501 . S
C8 C9 1.387 . S
C8 N11 1.341 . S
C9 C7 1.400 . S
C9 C8 1.387 . S
N10 Co1 2.022 . S
N10 C7 1.351 . S
N10 N11 1.365 . S
N11 C8 1.341 . S
N11 N10 1.365 . S
N11 H31 0.862 . S
C12 C7 1.501 . S
C12 H13 0.961 . S
C12 H14 0.961 . S
C12 H15 0.960 . S
H13 C12 0.961 . S
H14 C12 0.961 . S
H15 C12 0.960 . S
C16 N17 1.342 . S
C16 C20 1.401 . S
C16 C21 1.499 . S
N17 Co0 1.989 . S
N17 C16 1.342 . S
N17 N18 1.388 . S
N18 Co1 1.993 . S
N18 N17 1.388 . S
N18 C19 1.346 . S
C19 N18 1.346 . S
C19 C20 1.396 . S
C19 C29 1.510 . S
C20 C16 1.401 . S
C20 C19 1.396 . S
C21 C16 1.499 . S
C21 H22 0.959 . S
C21 H23 0.960 . S
C21 H24 0.961 . S
H22 C21 0.959 . S
H23 C21 0.960 . S
H24 C21 0.961 . S
O25 Co0 1.967 . S
O25 C33 1.258 . S
O26 Co1 1.941 . S
O26 C33 1.266 . S
H27 C29 0.959 . S
H28 C29 0.961 . S
C29 C19 1.510 . S
C29 H27 0.959 . S
C29 H28 0.961 . S
C29 H30 0.960 . S
H30 C29 0.960 . S
H31 N11 0.862 . S
O32 Co0 1.920 . S
O32 C5 1.289 . S
C33 O25 1.258 . S
C33 O26 1.266 . S
Co34 O37 1.970 . S
Co34 N51 1.989 1_565 S
Co34 O59 1.967 . S
Co34 O66 1.920 1_565 S
Co35 O38 1.966 . S
Co35 N44 2.022 . S
Co35 N52 1.993 . S
Co35 O60 1.941 . S
C36 O37 1.258 . S
C36 O38 1.263 . S
O37 Co34 1.970 . S
O37 C36 1.258 . S
O38 Co35 1.966 . S
O38 C36 1.263 . S
C39 O40 1.235 . S
C39 O66 1.289 . S
O40 C39 1.235 . S
C41 C43 1.400 . S
C41 N44 1.351 . S
C41 C46 1.501 . S
C42 C43 1.387 . S
C42 N45 1.341 . S
C43 C41 1.400 . S
C43 C42 1.387 . S
N44 Co35 2.022 . S
N44 C41 1.351 . S
N44 N45 1.365 . S
N45 C42 1.341 . S
N45 N44 1.365 . S
N45 H65 0.862 . S
C46 C41 1.501 . S
C46 H47 0.961 . S
C46 H48 0.961 . S
C46 H49 0.960 . S
H47 C46 0.961 . S
H48 C46 0.961 . S
H49 C46 0.960 . S
C50 N51 1.342 . S
C50 C54 1.401 . S
C50 C55 1.499 . S
N51 Co34 1.989 1_545 S
N51 C50 1.342 . S
N51 N52 1.388 1_545 S
N52 Co35 1.993 . S
N52 N51 1.388 1_565 S
N52 C53 1.346 1_565 S
C53 N52 1.346 1_545 S
C53 C54 1.396 . S
C53 C63 1.510 1_545 S
C54 C50 1.401 . S
C54 C53 1.396 . S
C55 C50 1.499 . S
C55 H56 0.959 . S
C55 H57 0.960 . S
C55 H58 0.961 . S
H56 C55 0.959 . S
H57 C55 0.960 . S
H58 C55 0.961 . S
O59 Co34 1.967 . S
O59 C67 1.258 . S
O60 Co35 1.941 . S
O60 C67 1.266 . S
H61 C63 0.959 . S
H62 C63 0.961 . S
C63 C53 1.510 1_565 S
C63 H61 0.959 . S
C63 H62 0.961 . S
C63 H64 0.960 . S
H64 C63 0.960 . S
H65 N45 0.862 . S
O66 Co34 1.920 1_545 S
O66 C39 1.289 . S
C67 O59 1.258 . S
C67 O60 1.266 . S
Co68 O71 1.970 . S
Co68 N85 1.989 1_565 S
Co68 O93 1.967 . S
Co68 O100 1.920 1_565 S
Co69 O72 1.966 . S
Co69 N78 2.022 1_554 S
Co69 N86 1.993 . S
Co69 O94 1.941 . S
C70 O71 1.258 . S
C70 O72 1.263 . S
O71 Co68 1.970 . S
O71 C70 1.258 . S
O72 Co69 1.966 . S
O72 C70 1.263 . S
C73 O74 1.235 . S
C73 O100 1.289 . S
O74 C73 1.235 . S
C75 C77 1.400 . S
C75 N78 1.351 . S
C75 C80 1.501 . S
C76 C77 1.387 . S
C76 N79 1.341 . S
C77 C75 1.400 . S
C77 C76 1.387 . S
N78 Co69 2.022 1_556 S
N78 C75 1.351 . S
N78 N79 1.365 . S
N79 C76 1.341 . S
N79 N78 1.365 . S
N79 H99 0.862 . S
C80 C75 1.501 . S
C80 H81 0.961 . S
C80 H82 0.961 . S
C80 H83 0.960 . S
H81 C80 0.961 . S
H82 C80 0.961 . S
H83 C80 0.960 . S
C84 N85 1.342 . S
C84 C88 1.401 1_554 S
C84 C89 1.499 . S
N85 Co68 1.989 1_545 S
N85 C84 1.342 . S
N85 N86 1.388 1_545 S
N86 Co69 1.993 . S
N86 N85 1.388 1_565 S
N86 C87 1.346 1_564 S
C87 N86 1.346 1_546 S
C87 C88 1.396 . S
C87 C97 1.510 1_545 S
C88 C84 1.401 1_556 S
C88 C87 1.396 . S
C89 C84 1.499 . S
C89 H90 0.959 . S
C89 H91 0.960 . S
C89 H92 0.961 . S
H90 C89 0.959 . S
H91 C89 0.960 . S
H92 C89 0.961 . S
O93 Co68 1.967 . S
O93 C101 1.258 . S
O94 Co69 1.941 . S
O94 C101 1.266 . S
H95 C97 0.959 . S
H96 C97 0.961 . S
C97 C87 1.510 1_565 S
C97 H95 0.959 . S
C97 H96 0.961 . S
C97 H98 0.960 . S
H98 C97 0.960 . S
H99 N79 0.862 . S
O100 Co68 1.920 1_545 S
O100 C73 1.289 . S
C101 O93 1.258 . S
C101 O94 1.266 . S
Co102 O105 1.970 . S
Co102 N119 1.989 . S
Co102 O127 1.967 . S
Co102 O134 1.920 . S
Co103 O106 1.966 . S
Co103 N112 2.022 1_554 S
Co103 N120 1.993 . S
Co103 O128 1.941 . S
C104 O105 1.258 . S
C104 O106 1.263 . S
O105 Co102 1.970 . S
O105 C104 1.258 . S
O106 Co103 1.966 . S
O106 C104 1.263 . S
C107 O108 1.235 . S
C107 O134 1.289 . S
O108 C107 1.235 . S
C109 C111 1.400 . S
C109 N112 1.351 . S
C109 C114 1.501 . S
C110 C111 1.387 . S
C110 N113 1.341 . S
C111 C109 1.400 . S
C111 C110 1.387 . S
N112 Co103 2.022 1_556 S
N112 C109 1.351 . S
N112 N113 1.365 . S
N113 C110 1.341 . S
N113 N112 1.365 . S
N113 H133 0.862 . S
C114 C109 1.501 . S
C114 H115 0.961 . S
C114 H116 0.961 . S
C114 H117 0.960 . S
H115 C114 0.961 . S
H116 C114 0.961 . S
H117 C114 0.960 . S
C118 N119 1.342 . S
C118 C122 1.401 1_554 S
C118 C123 1.499 . S
N119 Co102 1.989 . S
N119 C118 1.342 . S
N119 N120 1.388 . S
N120 Co103 1.993 . S
N120 N119 1.388 . S
N120 C121 1.346 1_554 S
C121 N120 1.346 1_556 S
C121 C122 1.396 . S
C121 C131 1.510 . S
C122 C118 1.401 1_556 S
C122 C121 1.396 . S
C123 C118 1.499 . S
C123 H124 0.959 . S
C123 H125 0.960 . S
C123 H126 0.961 . S
H124 C123 0.959 . S
H125 C123 0.960 . S
H126 C123 0.961 . S
O127 Co102 1.967 . S
O127 C135 1.258 . S
O128 Co103 1.941 . S
O128 C135 1.266 . S
H129 C131 0.959 . S
H130 C131 0.961 . S
C131 C121 1.510 . S
C131 H129 0.959 . S
C131 H130 0.961 . S
C131 H132 0.960 . S
H132 C131 0.960 . S
H133 N113 0.862 . S
O134 Co102 1.920 . S
O134 C107 1.289 . S
C135 O127 1.258 . S
C135 O128 1.266 . S
Co136 O139 1.970 . S
Co136 N153 1.989 . S
Co136 O161 1.967 . S
Co136 O168 1.920 . S
Co137 O140 1.966 . S
Co137 N146 2.022 . S
Co137 N154 1.993 . S
Co137 O162 1.941 . S
C138 O139 1.258 . S
C138 O140 1.263 . S
O139 Co136 1.970 . S
O139 C138 1.258 . S
O140 Co137 1.966 . S
O140 C138 1.263 . S
C141 O142 1.235 . S
C141 O168 1.289 . S
O142 C141 1.235 . S
C143 C145 1.400 . S
C143 N146 1.351 . S
C143 C148 1.501 . S
C144 C145 1.387 . S
C144 N147 1.341 . S
C145 C143 1.400 . S
C145 C144 1.387 . S
N146 Co137 2.022 . S
N146 C143 1.351 . S
N146 N147 1.365 . S
N147 C144 1.341 . S
N147 N146 1.365 . S
N147 H167 0.862 . S
C148 C143 1.501 . S
C148 H149 0.961 . S
C148 H150 0.961 . S
C148 H151 0.960 . S
H149 C148 0.961 . S
H150 C148 0.961 . S
H151 C148 0.960 . S
C152 N153 1.342 . S
C152 C156 1.401 . S
C152 C157 1.499 . S
N153 Co136 1.989 . S
N153 C152 1.342 . S
N153 N154 1.388 . S
N154 Co137 1.993 . S
N154 N153 1.388 . S
N154 C155 1.346 . S
C155 N154 1.346 . S
C155 C156 1.396 . S
C155 C165 1.510 . S
C156 C152 1.401 . S
C156 C155 1.396 . S
C157 C152 1.499 . S
C157 H158 0.959 . S
C157 H159 0.960 . S
C157 H160 0.961 . S
H158 C157 0.959 . S
H159 C157 0.960 . S
H160 C157 0.961 . S
O161 Co136 1.967 . S
O161 C169 1.258 . S
O162 Co137 1.941 . S
O162 C169 1.266 . S
H163 C165 0.959 . S
H164 C165 0.961 . S
C165 C155 1.510 . S
C165 H163 0.959 . S
C165 H164 0.961 . S
C165 H166 0.960 . S
H166 C165 0.960 . S
H167 N147 0.862 . S
O168 Co136 1.920 . S
O168 C141 1.289 . S
C169 O161 1.258 . S
C169 O162 1.266 . S
Co170 O173 1.970 . S
Co170 N187 1.989 1_545 S
Co170 O195 1.967 . S
Co170 O202 1.920 1_545 S
Co171 O174 1.966 . S
Co171 N180 2.022 . S
Co171 N188 1.993 . S
Co171 O196 1.941 . S
C172 O173 1.258 . S
C172 O174 1.263 . S
O173 Co170 1.970 . S
O173 C172 1.258 . S
O174 Co171 1.966 . S
O174 C172 1.263 . S
C175 O176 1.235 . S
C175 O202 1.289 . S
O176 C175 1.235 . S
C177 C179 1.400 . S
C177 N180 1.351 . S
C177 C182 1.501 . S
C178 C179 1.387 . S
C178 N181 1.341 . S
C179 C177 1.400 . S
C179 C178 1.387 . S
N180 Co171 2.022 . S
N180 C177 1.351 . S
N180 N181 1.365 . S
N181 C178 1.341 . S
N181 N180 1.365 . S
N181 H201 0.862 . S
C182 C177 1.501 . S
C182 H183 0.961 . S
C182 H184 0.961 . S
C182 H185 0.960 . S
H183 C182 0.961 . S
H184 C182 0.961 . S
H185 C182 0.960 . S
C186 N187 1.342 . S
C186 C190 1.401 . S
C186 C191 1.499 . S
N187 Co170 1.989 1_565 S
N187 C186 1.342 . S
N187 N188 1.388 1_565 S
N188 Co171 1.993 . S
N188 N187 1.388 1_545 S
N188 C189 1.346 1_545 S
C189 N188 1.346 1_565 S
C189 C190 1.396 . S
C189 C199 1.510 1_565 S
C190 C186 1.401 . S
C190 C189 1.396 . S
C191 C186 1.499 . S
C191 H192 0.959 . S
C191 H193 0.960 . S
C191 H194 0.961 . S
H192 C191 0.959 . S
H193 C191 0.960 . S
H194 C191 0.961 . S
O195 Co170 1.967 . S
O195 C203 1.258 . S
O196 Co171 1.941 . S
O196 C203 1.266 . S
H197 C199 0.959 . S
H198 C199 0.961 . S
C199 C189 1.510 1_545 S
C199 H197 0.959 . S
C199 H198 0.961 . S
C199 H200 0.960 . S
H200 C199 0.960 . S
H201 N181 0.862 . S
O202 Co170 1.920 1_565 S
O202 C175 1.289 . S
C203 O195 1.258 . S
C203 O196 1.266 . S
Co204 O207 1.970 . S
Co204 N221 1.989 1_545 S
Co204 O229 1.967 . S
Co204 O236 1.920 1_545 S
Co205 O208 1.966 . S
Co205 N214 2.022 1_556 S
Co205 N222 1.993 . S
Co205 O230 1.941 . S
C206 O207 1.258 . S
C206 O208 1.263 . S
O207 Co204 1.970 . S
O207 C206 1.258 . S
O208 Co205 1.966 . S
O208 C206 1.263 . S
C209 O210 1.235 . S
C209 O236 1.289 . S
O210 C209 1.235 . S
C211 C213 1.400 . S
C211 N214 1.351 . S
C211 C216 1.501 . S
C212 C213 1.387 . S
C212 N215 1.341 . S
C213 C211 1.400 . S
C213 C212 1.387 . S
N214 Co205 2.022 1_554 S
N214 C211 1.351 . S
N214 N215 1.365 . S
N215 C212 1.341 . S
N215 N214 1.365 . S
N215 H235 0.862 . S
C216 C211 1.501 . S
C216 H217 0.961 . S
C216 H218 0.961 . S
C216 H219 0.960 . S
H217 C216 0.961 . S
H218 C216 0.961 . S
H219 C216 0.960 . S
C220 N221 1.342 . S
C220 C224 1.401 1_556 S
C220 C225 1.499 . S
N221 Co204 1.989 1_565 S
N221 C220 1.342 . S
N221 N222 1.388 1_565 S
N222 Co205 1.993 . S
N222 N221 1.388 1_545 S
N222 C223 1.346 1_546 S
C223 N222 1.346 1_564 S
C223 C224 1.396 . S
C223 C233 1.510 1_565 S
C224 C220 1.401 1_554 S
C224 C223 1.396 . S
C225 C220 1.499 . S
C225 H226 0.959 . S
C225 H227 0.960 . S
C225 H228 0.961 . S
H226 C225 0.959 . S
H227 C225 0.960 . S
H228 C225 0.961 . S
O229 Co204 1.967 . S
O229 C237 1.258 . S
O230 Co205 1.941 . S
O230 C237 1.266 . S
H231 C233 0.959 . S
H232 C233 0.961 . S
C233 C223 1.510 1_545 S
C233 H231 0.959 . S
C233 H232 0.961 . S
C233 H234 0.960 . S
H234 C233 0.960 . S
H235 N215 0.862 . S
O236 Co204 1.920 1_565 S
O236 C209 1.289 . S
C237 O229 1.258 . S
C237 O230 1.266 . S
Co238 O241 1.970 . S
Co238 N255 1.989 . S
Co238 O263 1.967 . S
Co238 O270 1.920 . S
Co239 O242 1.966 . S
Co239 N248 2.022 1_556 S
Co239 N256 1.993 . S
Co239 O264 1.941 . S
C240 O241 1.258 . S
C240 O242 1.263 . S
O241 Co238 1.970 . S
O241 C240 1.258 . S
O242 Co239 1.966 . S
O242 C240 1.263 . S
C243 O244 1.235 . S
C243 O270 1.289 . S
O244 C243 1.235 . S
C245 C247 1.400 . S
C245 N248 1.351 . S
C245 C250 1.501 . S
C246 C247 1.387 . S
C246 N249 1.341 . S
C247 C245 1.400 . S
C247 C246 1.387 . S
N248 Co239 2.022 1_554 S
N248 C245 1.351 . S
N248 N249 1.365 . S
N249 C246 1.341 . S
N249 N248 1.365 . S
N249 H269 0.862 . S
C250 C245 1.501 . S
C250 H251 0.961 . S
C250 H252 0.961 . S
C250 H253 0.960 . S
H251 C250 0.961 . S
H252 C250 0.961 . S
H253 C250 0.960 . S
C254 N255 1.342 . S
C254 C258 1.401 1_556 S
C254 C259 1.499 . S
N255 Co238 1.989 . S
N255 C254 1.342 . S
N255 N256 1.388 . S
N256 Co239 1.993 . S
N256 N255 1.388 . S
N256 C257 1.346 1_556 S
C257 N256 1.346 1_554 S
C257 C258 1.396 . S
C257 C267 1.510 . S
C258 C254 1.401 1_554 S
C258 C257 1.396 . S
C259 C254 1.499 . S
C259 H260 0.959 . S
C259 H261 0.960 . S
C259 H262 0.961 . S
H260 C259 0.959 . S
H261 C259 0.960 . S
H262 C259 0.961 . S
O263 Co238 1.967 . S
O263 C271 1.258 . S
O264 Co239 1.941 . S
O264 C271 1.266 . S
H265 C267 0.959 . S
H266 C267 0.961 . S
C267 C257 1.510 . S
C267 H265 0.959 . S
C267 H266 0.961 . S
C267 H268 0.960 . S
H268 C267 0.960 . S
H269 N249 0.862 . S
O270 Co238 1.920 . S
O270 C243 1.289 . S
C271 O263 1.258 . S
C271 O264 1.266 . S
Co272 O275 1.970 . S
Co272 N289 1.989 . S
Co272 O297 1.967 . S
Co272 O304 1.920 . S
Co273 O276 1.966 . S
Co273 N282 2.022 . S
Co273 N290 1.993 . S
Co273 O298 1.941 . S
C274 O275 1.258 . S
C274 O276 1.263 . S
O275 Co272 1.970 . S
O275 C274 1.258 . S
O276 Co273 1.966 . S
O276 C274 1.263 . S
C277 O278 1.235 . S
C277 O304 1.289 . S
O278 C277 1.235 . S
C279 C281 1.400 . S
C279 N282 1.351 . S
C279 C284 1.501 . S
C280 C281 1.387 . S
C280 N283 1.341 . S
C281 C279 1.400 . S
C281 C280 1.387 . S
N282 Co273 2.022 . S
N282 C279 1.351 . S
N282 N283 1.365 . S
N283 C280 1.341 . S
N283 N282 1.365 . S
N283 H303 0.862 . S
C284 C279 1.501 . S
C284 H285 0.961 . S
C284 H286 0.961 . S
C284 H287 0.960 . S
H285 C284 0.961 . S
H286 C284 0.961 . S
H287 C284 0.960 . S
C288 N289 1.342 . S
C288 C292 1.401 . S
C288 C293 1.499 . S
N289 Co272 1.989 . S
N289 C288 1.342 . S
N289 N290 1.388 . S
N290 Co273 1.993 . S
N290 N289 1.388 . S
N290 C291 1.346 . S
C291 N290 1.346 . S
C291 C292 1.396 . S
C291 C301 1.510 . S
C292 C288 1.401 . S
C292 C291 1.396 . S
C293 C288 1.499 . S
C293 H294 0.959 . S
C293 H295 0.960 . S
C293 H296 0.961 . S
H294 C293 0.959 . S
H295 C293 0.960 . S
H296 C293 0.961 . S
O297 Co272 1.967 . S
O297 C305 1.258 . S
O298 Co273 1.941 . S
O298 C305 1.266 . S
H299 C301 0.959 . S
H300 C301 0.961 . S
C301 C291 1.510 . S
C301 H299 0.959 . S
C301 H300 0.961 . S
C301 H302 0.960 . S
H302 C301 0.960 . S
H303 N283 0.862 . S
O304 Co272 1.920 . S
O304 C277 1.289 . S
C305 O297 1.258 . S
C305 O298 1.266 . S
Co306 O309 1.970 . S
Co306 N323 1.989 . S
Co306 O331 1.967 . S
Co306 O338 1.920 . S
Co307 O310 1.966 . S
Co307 N316 2.022 . S
Co307 N324 1.993 . S
Co307 O332 1.941 . S
C308 O309 1.258 . S
C308 O310 1.263 . S
O309 Co306 1.970 . S
O309 C308 1.258 . S
O310 Co307 1.966 . S
O310 C308 1.263 . S
C311 O312 1.235 . S
C311 O338 1.289 . S
O312 C311 1.235 . S
C313 C315 1.400 . S
C313 N316 1.351 . S
C313 C318 1.501 . S
C314 C315 1.387 . S
C314 N317 1.341 . S
C315 C313 1.400 . S
C315 C314 1.387 . S
N316 Co307 2.022 . S
N316 C313 1.351 . S
N316 N317 1.365 . S
N317 C314 1.341 . S
N317 N316 1.365 . S
N317 H337 0.862 . S
C318 C313 1.501 . S
C318 H319 0.961 . S
C318 H320 0.961 . S
C318 H321 0.960 . S
H319 C318 0.961 . S
H320 C318 0.961 . S
H321 C318 0.960 . S
C322 N323 1.342 . S
C322 C326 1.401 . S
C322 C327 1.499 . S
N323 Co306 1.989 . S
N323 C322 1.342 . S
N323 N324 1.388 . S
N324 Co307 1.993 . S
N324 N323 1.388 . S
N324 C325 1.346 . S
C325 N324 1.346 . S
C325 C326 1.396 . S
C325 C335 1.510 . S
C326 C322 1.401 . S
C326 C325 1.396 . S
C327 C322 1.499 . S
C327 H328 0.959 . S
C327 H329 0.960 . S
C327 H330 0.961 . S
H328 C327 0.959 . S
H329 C327 0.960 . S
H330 C327 0.961 . S
O331 Co306 1.967 . S
O331 C339 1.258 . S
O332 Co307 1.941 . S
O332 C339 1.266 . S
H333 C335 0.959 . S
H334 C335 0.961 . S
C335 C325 1.510 . S
C335 H333 0.959 . S
C335 H334 0.961 . S
C335 H336 0.960 . S
H336 C335 0.960 . S
H337 N317 0.862 . S
O338 Co306 1.920 . S
O338 C311 1.289 . S
C339 O331 1.258 . S
C339 O332 1.266 . S
Co340 O343 1.970 . S
Co340 N357 1.989 . S
Co340 O365 1.967 . S
Co340 O372 1.920 . S
Co341 O344 1.966 . S
Co341 N350 2.022 . S
Co341 N358 1.993 . S
Co341 O366 1.941 . S
C342 O343 1.258 . S
C342 O344 1.263 . S
O343 Co340 1.970 . S
O343 C342 1.258 . S
O344 Co341 1.966 . S
O344 C342 1.263 . S
C345 O346 1.235 . S
C345 O372 1.289 . S
O346 C345 1.235 . S
C347 C349 1.400 . S
C347 N350 1.351 . S
C347 C352 1.501 . S
C348 C349 1.387 . S
C348 N351 1.341 . S
C349 C347 1.400 . S
C349 C348 1.387 . S
N350 Co341 2.022 . S
N350 C347 1.351 . S
N350 N351 1.365 . S
N351 C348 1.341 . S
N351 N350 1.365 . S
N351 H371 0.862 . S
C352 C347 1.501 . S
C352 H353 0.961 . S
C352 H354 0.961 . S
C352 H355 0.960 . S
H353 C352 0.961 . S
H354 C352 0.961 . S
H355 C352 0.960 . S
C356 N357 1.342 . S
C356 C360 1.401 . S
C356 C361 1.499 . S
N357 Co340 1.989 . S
N357 C356 1.342 . S
N357 N358 1.388 . S
N358 Co341 1.993 . S
N358 N357 1.388 . S
N358 C359 1.346 . S
C359 N358 1.346 . S
C359 C360 1.396 . S
C359 C369 1.510 . S
C360 C356 1.401 . S
C360 C359 1.396 . S
C361 C356 1.499 . S
C361 H362 0.959 . S
C361 H363 0.960 . S
C361 H364 0.961 . S
H362 C361 0.959 . S
H363 C361 0.960 . S
H364 C361 0.961 . S
O365 Co340 1.967 . S
O365 C373 1.258 . S
O366 Co341 1.941 . S
O366 C373 1.266 . S
H367 C369 0.959 . S
H368 C369 0.961 . S
C369 C359 1.510 . S
C369 H367 0.959 . S
C369 H368 0.961 . S
C369 H370 0.960 . S
H370 C369 0.960 . S
H371 N351 0.862 . S
O372 Co340 1.920 . S
O372 C345 1.289 . S
C373 O365 1.258 . S
C373 O366 1.266 . S
Co374 O377 1.970 . S
Co374 N391 1.989 . S
Co374 O399 1.967 . S
Co374 O406 1.920 . S
Co375 O378 1.966 . S
Co375 N384 2.022 . S
Co375 N392 1.993 . S
Co375 O400 1.941 . S
C376 O377 1.258 . S
C376 O378 1.263 . S
O377 Co374 1.970 . S
O377 C376 1.258 . S
O378 Co375 1.966 . S
O378 C376 1.263 . S
C379 O380 1.235 . S
C379 O406 1.289 . S
O380 C379 1.235 . S
C381 C383 1.400 . S
C381 N384 1.351 . S
C381 C386 1.501 . S
C382 C383 1.387 . S
C382 N385 1.341 . S
C383 C381 1.400 . S
C383 C382 1.387 . S
N384 Co375 2.022 . S
N384 C381 1.351 . S
N384 N385 1.365 . S
N385 C382 1.341 . S
N385 N384 1.365 . S
N385 H405 0.862 . S
C386 C381 1.501 . S
C386 H387 0.961 . S
C386 H388 0.961 . S
C386 H389 0.960 . S
H387 C386 0.961 . S
H388 C386 0.961 . S
H389 C386 0.960 . S
C390 N391 1.342 . S
C390 C394 1.401 . S
C390 C395 1.499 . S
N391 Co374 1.989 . S
N391 C390 1.342 . S
N391 N392 1.388 . S
N392 Co375 1.993 . S
N392 N391 1.388 . S
N392 C393 1.346 . S
C393 N392 1.346 . S
C393 C394 1.396 . S
C393 C403 1.510 . S
C394 C390 1.401 . S
C394 C393 1.396 . S
C395 C390 1.499 . S
C395 H396 0.959 . S
C395 H397 0.960 . S
C395 H398 0.961 . S
H396 C395 0.959 . S
H397 C395 0.960 . S
H398 C395 0.961 . S
O399 Co374 1.967 . S
O399 C407 1.258 . S
O400 Co375 1.941 . S
O400 C407 1.266 . S
H401 C403 0.959 . S
H402 C403 0.961 . S
C403 C393 1.510 . S
C403 H401 0.959 . S
C403 H402 0.961 . S
C403 H404 0.960 . S
H404 C403 0.960 . S
H405 N385 0.862 . S
O406 Co374 1.920 . S
O406 C379 1.289 . S
C407 O399 1.258 . S
C407 O400 1.266 . S
Co408 O411 1.970 . S
Co408 N425 1.989 . S
Co408 O433 1.967 . S
Co408 O440 1.920 . S
Co409 O412 1.966 . S
Co409 N418 2.022 . S
Co409 N426 1.993 . S
Co409 O434 1.941 . S
C410 O411 1.258 . S
C410 O412 1.263 . S
O411 Co408 1.970 . S
O411 C410 1.258 . S
O412 Co409 1.966 . S
O412 C410 1.263 . S
C413 O414 1.235 . S
C413 O440 1.289 . S
O414 C413 1.235 . S
C415 C417 1.400 . S
C415 N418 1.351 . S
C415 C420 1.501 . S
C416 C417 1.387 . S
C416 N419 1.341 . S
C417 C415 1.400 . S
C417 C416 1.387 . S
N418 Co409 2.022 . S
N418 C415 1.351 . S
N418 N419 1.365 . S
N419 C416 1.341 . S
N419 N418 1.365 . S
N419 H439 0.862 . S
C420 C415 1.501 . S
C420 H421 0.961 . S
C420 H422 0.961 . S
C420 H423 0.960 . S
H421 C420 0.961 . S
H422 C420 0.961 . S
H423 C420 0.960 . S
C424 N425 1.342 . S
C424 C428 1.401 . S
C424 C429 1.499 . S
N425 Co408 1.989 . S
N425 C424 1.342 . S
N425 N426 1.388 . S
N426 Co409 1.993 . S
N426 N425 1.388 . S
N426 C427 1.346 . S
C427 N426 1.346 . S
C427 C428 1.396 . S
C427 C437 1.510 . S
C428 C424 1.401 . S
C428 C427 1.396 . S
C429 C424 1.499 . S
C429 H430 0.959 . S
C429 H431 0.960 . S
C429 H432 0.961 . S
H430 C429 0.959 . S
H431 C429 0.960 . S
H432 C429 0.961 . S
O433 Co408 1.967 . S
O433 C441 1.258 . S
O434 Co409 1.941 . S
O434 C441 1.266 . S
H435 C437 0.959 . S
H436 C437 0.961 . S
C437 C427 1.510 . S
C437 H435 0.959 . S
C437 H436 0.961 . S
C437 H438 0.960 . S
H438 C437 0.960 . S
H439 N419 0.862 . S
O440 Co408 1.920 . S
O440 C413 1.289 . S
C441 O433 1.258 . S
C441 O434 1.266 . S
Co442 O445 1.970 . S
Co442 N459 1.989 . S
Co442 O467 1.967 . S
Co442 O474 1.920 . S
Co443 O446 1.966 . S
Co443 N452 2.022 . S
Co443 N460 1.993 . S
Co443 O468 1.941 . S
C444 O445 1.258 . S
C444 O446 1.263 . S
O445 Co442 1.970 . S
O445 C444 1.258 . S
O446 Co443 1.966 . S
O446 C444 1.263 . S
C447 O448 1.235 . S
C447 O474 1.289 . S
O448 C447 1.235 . S
C449 C451 1.400 . S
C449 N452 1.351 . S
C449 C454 1.501 . S
C450 C451 1.387 . S
C450 N453 1.341 . S
C451 C449 1.400 . S
C451 C450 1.387 . S
N452 Co443 2.022 . S
N452 C449 1.351 . S
N452 N453 1.365 . S
N453 C450 1.341 . S
N453 N452 1.365 . S
N453 H473 0.862 . S
C454 C449 1.501 . S
C454 H455 0.961 . S
C454 H456 0.961 . S
C454 H457 0.960 . S
H455 C454 0.961 . S
H456 C454 0.961 . S
H457 C454 0.960 . S
C458 N459 1.342 . S
C458 C462 1.401 . S
C458 C463 1.499 . S
N459 Co442 1.989 . S
N459 C458 1.342 . S
N459 N460 1.388 . S
N460 Co443 1.993 . S
N460 N459 1.388 . S
N460 C461 1.346 . S
C461 N460 1.346 . S
C461 C462 1.396 . S
C461 C471 1.510 . S
C462 C458 1.401 . S
C462 C461 1.396 . S
C463 C458 1.499 . S
C463 H464 0.959 . S
C463 H465 0.960 . S
C463 H466 0.961 . S
H464 C463 0.959 . S
H465 C463 0.960 . S
H466 C463 0.961 . S
O467 Co442 1.967 . S
O467 C475 1.258 . S
O468 Co443 1.941 . S
O468 C475 1.266 . S
H469 C471 0.959 . S
H470 C471 0.961 . S
C471 C461 1.510 . S
C471 H469 0.959 . S
C471 H470 0.961 . S
C471 H472 0.960 . S
H472 C471 0.960 . S
H473 N453 0.862 . S
O474 Co442 1.920 . S
O474 C447 1.289 . S
C475 O467 1.258 . S
C475 O468 1.266 . S
Co476 O479 1.970 . S
Co476 N493 1.989 . S
Co476 O501 1.967 . S
Co476 O508 1.920 . S
Co477 O480 1.966 . S
Co477 N486 2.022 . S
Co477 N494 1.993 . S
Co477 O502 1.941 . S
C478 O479 1.258 . S
C478 O480 1.263 . S
O479 Co476 1.970 . S
O479 C478 1.258 . S
O480 Co477 1.966 . S
O480 C478 1.263 . S
C481 O482 1.235 . S
C481 O508 1.289 . S
O482 C481 1.235 . S
C483 C485 1.400 . S
C483 N486 1.351 . S
C483 C488 1.501 . S
C484 C485 1.387 . S
C484 N487 1.341 . S
C485 C483 1.400 . S
C485 C484 1.387 . S
N486 Co477 2.022 . S
N486 C483 1.351 . S
N486 N487 1.365 . S
N487 C484 1.341 . S
N487 N486 1.365 . S
N487 H507 0.862 . S
C488 C483 1.501 . S
C488 H489 0.961 . S
C488 H490 0.961 . S
C488 H491 0.960 . S
H489 C488 0.961 . S
H490 C488 0.961 . S
H491 C488 0.960 . S
C492 N493 1.342 . S
C492 C496 1.401 . S
C492 C497 1.499 . S
N493 Co476 1.989 . S
N493 C492 1.342 . S
N493 N494 1.388 . S
N494 Co477 1.993 . S
N494 N493 1.388 . S
N494 C495 1.346 . S
C495 N494 1.346 . S
C495 C496 1.396 . S
C495 C505 1.510 . S
C496 C492 1.401 . S
C496 C495 1.396 . S
C497 C492 1.499 . S
C497 H498 0.959 . S
C497 H499 0.960 . S
C497 H500 0.961 . S
H498 C497 0.959 . S
H499 C497 0.960 . S
H500 C497 0.961 . S
O501 Co476 1.967 . S
O501 C509 1.258 . S
O502 Co477 1.941 . S
O502 C509 1.266 . S
H503 C505 0.959 . S
H504 C505 0.961 . S
C505 C495 1.510 . S
C505 H503 0.959 . S
C505 H504 0.961 . S
C505 H506 0.960 . S
H506 C505 0.960 . S
H507 N487 0.862 . S
O508 Co476 1.920 . S
O508 C481 1.289 . S
C509 O501 1.258 . S
C509 O502 1.266 . S
Co510 O513 1.970 . S
Co510 N527 1.989 . S
Co510 O535 1.967 . S
Co510 O542 1.920 . S
Co511 O514 1.966 . S
Co511 N520 2.022 . S
Co511 N528 1.993 . S
Co511 O536 1.941 . S
C512 O513 1.258 . S
C512 O514 1.263 . S
O513 Co510 1.970 . S
O513 C512 1.258 . S
O514 Co511 1.966 . S
O514 C512 1.263 . S
C515 O516 1.235 . S
C515 O542 1.289 . S
O516 C515 1.235 . S
C517 C519 1.400 . S
C517 N520 1.351 . S
C517 C522 1.501 . S
C518 C519 1.387 . S
C518 N521 1.341 . S
C519 C517 1.400 . S
C519 C518 1.387 . S
N520 Co511 2.022 . S
N520 C517 1.351 . S
N520 N521 1.365 . S
N521 C518 1.341 . S
N521 N520 1.365 . S
N521 H541 0.862 . S
C522 C517 1.501 . S
C522 H523 0.961 . S
C522 H524 0.961 . S
C522 H525 0.960 . S
H523 C522 0.961 . S
H524 C522 0.961 . S
H525 C522 0.960 . S
C526 N527 1.342 . S
C526 C530 1.401 . S
C526 C531 1.499 . S
N527 Co510 1.989 . S
N527 C526 1.342 . S
N527 N528 1.388 . S
N528 Co511 1.993 . S
N528 N527 1.388 . S
N528 C529 1.346 . S
C529 N528 1.346 . S
C529 C530 1.396 . S
C529 C539 1.510 . S
C530 C526 1.401 . S
C530 C529 1.396 . S
C531 C526 1.499 . S
C531 H532 0.959 . S
C531 H533 0.960 . S
C531 H534 0.961 . S
H532 C531 0.959 . S
H533 C531 0.960 . S
H534 C531 0.961 . S
O535 Co510 1.967 . S
O535 C543 1.258 . S
O536 Co511 1.941 . S
O536 C543 1.266 . S
H537 C539 0.959 . S
H538 C539 0.961 . S
C539 C529 1.510 . S
C539 H537 0.959 . S
C539 H538 0.961 . S
C539 H540 0.960 . S
H540 C539 0.960 . S
H541 N521 0.862 . S
O542 Co510 1.920 . S
O542 C515 1.289 . S
C543 O535 1.258 . S
C543 O536 1.266 . S
Co544 O547 1.970 . S
Co544 N561 1.989 . S
Co544 O569 1.967 . S
Co544 O576 1.920 . S
Co545 O548 1.966 . S
Co545 N554 2.022 . S
Co545 N562 1.993 . S
Co545 O570 1.941 . S
C546 O547 1.258 . S
C546 O548 1.263 . S
O547 Co544 1.970 . S
O547 C546 1.258 . S
O548 Co545 1.966 . S
O548 C546 1.263 . S
C549 O550 1.235 . S
C549 O576 1.289 . S
O550 C549 1.235 . S
C551 C553 1.400 . S
C551 N554 1.351 . S
C551 C556 1.501 . S
C552 C553 1.387 . S
C552 N555 1.341 . S
C553 C551 1.400 . S
C553 C552 1.387 . S
N554 Co545 2.022 . S
N554 C551 1.351 . S
N554 N555 1.365 . S
N555 C552 1.341 . S
N555 N554 1.365 . S
N555 H575 0.862 . S
C556 C551 1.501 . S
C556 H557 0.961 . S
C556 H558 0.961 . S
C556 H559 0.960 . S
H557 C556 0.961 . S
H558 C556 0.961 . S
H559 C556 0.960 . S
C560 N561 1.342 . S
C560 C564 1.401 . S
C560 C565 1.499 . S
N561 Co544 1.989 . S
N561 C560 1.342 . S
N561 N562 1.388 . S
N562 Co545 1.993 . S
N562 N561 1.388 . S
N562 C563 1.346 . S
C563 N562 1.346 . S
C563 C564 1.396 . S
C563 C573 1.510 . S
C564 C560 1.401 . S
C564 C563 1.396 . S
C565 C560 1.499 . S
C565 H566 0.959 . S
C565 H567 0.960 . S
C565 H568 0.961 . S
H566 C565 0.959 . S
H567 C565 0.960 . S
H568 C565 0.961 . S
O569 Co544 1.967 . S
O569 C577 1.258 . S
O570 Co545 1.941 . S
O570 C577 1.266 . S
H571 C573 0.959 . S
H572 C573 0.961 . S
C573 C563 1.510 . S
C573 H571 0.959 . S
C573 H572 0.961 . S
C573 H574 0.960 . S
H574 C573 0.960 . S
H575 N555 0.862 . S
O576 Co544 1.920 . S
O576 C549 1.289 . S
C577 O569 1.258 . S
C577 O570 1.266 . S
Co578 O581 1.970 . S
Co578 N595 1.989 1_565 S
Co578 O603 1.967 . S
Co578 O610 1.920 1_565 S
Co579 O582 1.966 . S
Co579 N588 2.022 . S
Co579 N596 1.993 . S
Co579 O604 1.941 . S
C580 O581 1.258 . S
C580 O582 1.263 . S
O581 Co578 1.970 . S
O581 C580 1.258 . S
O582 Co579 1.966 . S
O582 C580 1.263 . S
C583 O584 1.235 . S
C583 O610 1.289 . S
O584 C583 1.235 . S
C585 C587 1.400 . S
C585 N588 1.351 . S
C585 C590 1.501 . S
C586 C587 1.387 . S
C586 N589 1.341 . S
C587 C585 1.400 . S
C587 C586 1.387 . S
N588 Co579 2.022 . S
N588 C585 1.351 . S
N588 N589 1.365 . S
N589 C586 1.341 . S
N589 N588 1.365 . S
N589 H609 0.862 . S
C590 C585 1.501 . S
C590 H591 0.961 . S
C590 H592 0.961 . S
C590 H593 0.960 . S
H591 C590 0.961 . S
H592 C590 0.961 . S
H593 C590 0.960 . S
C594 N595 1.342 . S
C594 C598 1.401 . S
C594 C599 1.499 . S
N595 Co578 1.989 1_545 S
N595 C594 1.342 . S
N595 N596 1.388 1_545 S
N596 Co579 1.993 . S
N596 N595 1.388 1_565 S
N596 C597 1.346 1_565 S
C597 N596 1.346 1_545 S
C597 C598 1.396 . S
C597 C607 1.510 1_545 S
C598 C594 1.401 . S
C598 C597 1.396 . S
C599 C594 1.499 . S
C599 H600 0.959 . S
C599 H601 0.960 . S
C599 H602 0.961 . S
H600 C599 0.959 . S
H601 C599 0.960 . S
H602 C599 0.961 . S
O603 Co578 1.967 . S
O603 C611 1.258 . S
O604 Co579 1.941 . S
O604 C611 1.266 . S
H605 C607 0.959 . S
H606 C607 0.961 . S
C607 C597 1.510 1_565 S
C607 H605 0.959 . S
C607 H606 0.961 . S
C607 H608 0.960 . S
H608 C607 0.960 . S
H609 N589 0.862 . S
O610 Co578 1.920 1_545 S
O610 C583 1.289 . S
C611 O603 1.258 . S
C611 O604 1.266 . S
Co612 O615 1.970 . S
Co612 N629 1.989 1_565 S
Co612 O637 1.967 . S
Co612 O644 1.920 1_565 S
Co613 O616 1.966 . S
Co613 N622 2.022 . S
Co613 N630 1.993 . S
Co613 O638 1.941 . S
C614 O615 1.258 . S
C614 O616 1.263 . S
O615 Co612 1.970 . S
O615 C614 1.258 . S
O616 Co613 1.966 . S
O616 C614 1.263 . S
C617 O618 1.235 . S
C617 O644 1.289 . S
O618 C617 1.235 . S
C619 C621 1.400 . S
C619 N622 1.351 . S
C619 C624 1.501 . S
C620 C621 1.387 . S
C620 N623 1.341 . S
C621 C619 1.400 . S
C621 C620 1.387 . S
N622 Co613 2.022 . S
N622 C619 1.351 . S
N622 N623 1.365 . S
N623 C620 1.341 . S
N623 N622 1.365 . S
N623 H643 0.862 . S
C624 C619 1.501 . S
C624 H625 0.961 . S
C624 H626 0.961 . S
C624 H627 0.960 . S
H625 C624 0.961 . S
H626 C624 0.961 . S
H627 C624 0.960 . S
C628 N629 1.342 . S
C628 C632 1.401 . S
C628 C633 1.499 . S
N629 Co612 1.989 1_545 S
N629 C628 1.342 . S
N629 N630 1.388 1_545 S
N630 Co613 1.993 . S
N630 N629 1.388 1_565 S
N630 C631 1.346 1_565 S
C631 N630 1.346 1_545 S
C631 C632 1.396 . S
C631 C641 1.510 1_545 S
C632 C628 1.401 . S
C632 C631 1.396 . S
C633 C628 1.499 . S
C633 H634 0.959 . S
C633 H635 0.960 . S
C633 H636 0.961 . S
H634 C633 0.959 . S
H635 C633 0.960 . S
H636 C633 0.961 . S
O637 Co612 1.967 . S
O637 C645 1.258 . S
O638 Co613 1.941 . S
O638 C645 1.266 . S
H639 C641 0.959 . S
H640 C641 0.961 . S
C641 C631 1.510 1_565 S
C641 H639 0.959 . S
C641 H640 0.961 . S
C641 H642 0.960 . S
H642 C641 0.960 . S
H643 N623 0.862 . S
O644 Co612 1.920 1_545 S
O644 C617 1.289 . S
C645 O637 1.258 . S
C645 O638 1.266 . S
Co646 O649 1.970 . S
Co646 N663 1.989 . S
Co646 O671 1.967 . S
Co646 O678 1.920 . S
Co647 O650 1.966 . S
Co647 N656 2.022 . S
Co647 N664 1.993 . S
Co647 O672 1.941 . S
C648 O649 1.258 . S
C648 O650 1.263 . S
O649 Co646 1.970 . S
O649 C648 1.258 . S
O650 Co647 1.966 . S
O650 C648 1.263 . S
C651 O652 1.235 . S
C651 O678 1.289 . S
O652 C651 1.235 . S
C653 C655 1.400 . S
C653 N656 1.351 . S
C653 C658 1.501 . S
C654 C655 1.387 . S
C654 N657 1.341 . S
C655 C653 1.400 . S
C655 C654 1.387 . S
N656 Co647 2.022 . S
N656 C653 1.351 . S
N656 N657 1.365 . S
N657 C654 1.341 . S
N657 N656 1.365 . S
N657 H677 0.862 . S
C658 C653 1.501 . S
C658 H659 0.961 . S
C658 H660 0.961 . S
C658 H661 0.960 . S
H659 C658 0.961 . S
H660 C658 0.961 . S
H661 C658 0.960 . S
C662 N663 1.342 . S
C662 C666 1.401 . S
C662 C667 1.499 . S
N663 Co646 1.989 . S
N663 C662 1.342 . S
N663 N664 1.388 . S
N664 Co647 1.993 . S
N664 N663 1.388 . S
N664 C665 1.346 . S
C665 N664 1.346 . S
C665 C666 1.396 . S
C665 C675 1.510 . S
C666 C662 1.401 . S
C666 C665 1.396 . S
C667 C662 1.499 . S
C667 H668 0.959 . S
C667 H669 0.960 . S
C667 H670 0.961 . S
H668 C667 0.959 . S
H669 C667 0.960 . S
H670 C667 0.961 . S
O671 Co646 1.967 . S
O671 C679 1.258 . S
O672 Co647 1.941 . S
O672 C679 1.266 . S
H673 C675 0.959 . S
H674 C675 0.961 . S
C675 C665 1.510 . S
C675 H673 0.959 . S
C675 H674 0.961 . S
C675 H676 0.960 . S
H676 C675 0.960 . S
H677 N657 0.862 . S
O678 Co646 1.920 . S
O678 C651 1.289 . S
C679 O671 1.258 . S
C679 O672 1.266 . S
Co680 O683 1.970 . S
Co680 N697 1.989 . S
Co680 O705 1.967 . S
Co680 O712 1.920 . S
Co681 O684 1.966 . S
Co681 N690 2.022 . S
Co681 N698 1.993 . S
Co681 O706 1.941 . S
C682 O683 1.258 . S
C682 O684 1.263 . S
O683 Co680 1.970 . S
O683 C682 1.258 . S
O684 Co681 1.966 . S
O684 C682 1.263 . S
C685 O686 1.235 . S
C685 O712 1.289 . S
O686 C685 1.235 . S
C687 C689 1.400 . S
C687 N690 1.351 . S
C687 C692 1.501 . S
C688 C689 1.387 . S
C688 N691 1.341 . S
C689 C687 1.400 . S
C689 C688 1.387 . S
N690 Co681 2.022 . S
N690 C687 1.351 . S
N690 N691 1.365 . S
N691 C688 1.341 . S
N691 N690 1.365 . S
N691 H711 0.862 . S
C692 C687 1.501 . S
C692 H693 0.961 . S
C692 H694 0.961 . S
C692 H695 0.960 . S
H693 C692 0.961 . S
H694 C692 0.961 . S
H695 C692 0.960 . S
C696 N697 1.342 . S
C696 C700 1.401 . S
C696 C701 1.499 . S
N697 Co680 1.989 . S
N697 C696 1.342 . S
N697 N698 1.388 . S
N698 Co681 1.993 . S
N698 N697 1.388 . S
N698 C699 1.346 . S
C699 N698 1.346 . S
C699 C700 1.396 . S
C699 C709 1.510 . S
C700 C696 1.401 . S
C700 C699 1.396 . S
C701 C696 1.499 . S
C701 H702 0.959 . S
C701 H703 0.960 . S
C701 H704 0.961 . S
H702 C701 0.959 . S
H703 C701 0.960 . S
H704 C701 0.961 . S
O705 Co680 1.967 . S
O705 C713 1.258 . S
O706 Co681 1.941 . S
O706 C713 1.266 . S
H707 C709 0.959 . S
H708 C709 0.961 . S
C709 C699 1.510 . S
C709 H707 0.959 . S
C709 H708 0.961 . S
C709 H710 0.960 . S
H710 C709 0.960 . S
H711 N691 0.862 . S
O712 Co680 1.920 . S
O712 C685 1.289 . S
C713 O705 1.258 . S
C713 O706 1.266 . S
Co714 O717 1.970 . S
Co714 N731 1.989 1_545 S
Co714 O739 1.967 . S
Co714 O746 1.920 1_545 S
Co715 O718 1.966 . S
Co715 N724 2.022 . S
Co715 N732 1.993 . S
Co715 O740 1.941 . S
C716 O717 1.258 . S
C716 O718 1.263 . S
O717 Co714 1.970 . S
O717 C716 1.258 . S
O718 Co715 1.966 . S
O718 C716 1.263 . S
C719 O720 1.235 . S
C719 O746 1.289 . S
O720 C719 1.235 . S
C721 C723 1.400 . S
C721 N724 1.351 . S
C721 C726 1.501 . S
C722 C723 1.387 . S
C722 N725 1.341 . S
C723 C721 1.400 . S
C723 C722 1.387 . S
N724 Co715 2.022 . S
N724 C721 1.351 . S
N724 N725 1.365 . S
N725 C722 1.341 . S
N725 N724 1.365 . S
N725 H745 0.862 . S
C726 C721 1.501 . S
C726 H727 0.961 . S
C726 H728 0.961 . S
C726 H729 0.960 . S
H727 C726 0.961 . S
H728 C726 0.961 . S
H729 C726 0.960 . S
C730 N731 1.342 . S
C730 C734 1.401 . S
C730 C735 1.499 . S
N731 Co714 1.989 1_565 S
N731 C730 1.342 . S
N731 N732 1.388 1_565 S
N732 Co715 1.993 . S
N732 N731 1.388 1_545 S
N732 C733 1.346 1_545 S
C733 N732 1.346 1_565 S
C733 C734 1.396 . S
C733 C743 1.510 1_565 S
C734 C730 1.401 . S
C734 C733 1.396 . S
C735 C730 1.499 . S
C735 H736 0.959 . S
C735 H737 0.960 . S
C735 H738 0.961 . S
H736 C735 0.959 . S
H737 C735 0.960 . S
H738 C735 0.961 . S
O739 Co714 1.967 . S
O739 C747 1.258 . S
O740 Co715 1.941 . S
O740 C747 1.266 . S
H741 C743 0.959 . S
H742 C743 0.961 . S
C743 C733 1.510 1_545 S
C743 H741 0.959 . S
C743 H742 0.961 . S
C743 H744 0.960 . S
H744 C743 0.960 . S
H745 N725 0.862 . S
O746 Co714 1.920 1_565 S
O746 C719 1.289 . S
C747 O739 1.258 . S
C747 O740 1.266 . S
Co748 O751 1.970 . S
Co748 N765 1.989 1_545 S
Co748 O773 1.967 . S
Co748 O780 1.920 1_545 S
Co749 O752 1.966 . S
Co749 N758 2.022 . S
Co749 N766 1.993 . S
Co749 O774 1.941 . S
C750 O751 1.258 . S
C750 O752 1.263 . S
O751 Co748 1.970 . S
O751 C750 1.258 . S
O752 Co749 1.966 . S
O752 C750 1.263 . S
C753 O754 1.235 . S
C753 O780 1.289 . S
O754 C753 1.235 . S
C755 C757 1.400 . S
C755 N758 1.351 . S
C755 C760 1.501 . S
C756 C757 1.387 . S
C756 N759 1.341 . S
C757 C755 1.400 . S
C757 C756 1.387 . S
N758 Co749 2.022 . S
N758 C755 1.351 . S
N758 N759 1.365 . S
N759 C756 1.341 . S
N759 N758 1.365 . S
N759 H779 0.862 . S
C760 C755 1.501 . S
C760 H761 0.961 . S
C760 H762 0.961 . S
C760 H763 0.960 . S
H761 C760 0.961 . S
H762 C760 0.961 . S
H763 C760 0.960 . S
C764 N765 1.342 . S
C764 C768 1.401 . S
C764 C769 1.499 . S
N765 Co748 1.989 1_565 S
N765 C764 1.342 . S
N765 N766 1.388 1_565 S
N766 Co749 1.993 . S
N766 N765 1.388 1_545 S
N766 C767 1.346 1_545 S
C767 N766 1.346 1_565 S
C767 C768 1.396 . S
C767 C777 1.510 1_565 S
C768 C764 1.401 . S
C768 C767 1.396 . S
C769 C764 1.499 . S
C769 H770 0.959 . S
C769 H771 0.960 . S
C769 H772 0.961 . S
H770 C769 0.959 . S
H771 C769 0.960 . S
H772 C769 0.961 . S
O773 Co748 1.967 . S
O773 C781 1.258 . S
O774 Co749 1.941 . S
O774 C781 1.266 . S
H775 C777 0.959 . S
H776 C777 0.961 . S
C777 C767 1.510 1_545 S
C777 H775 0.959 . S
C777 H776 0.961 . S
C777 H778 0.960 . S
H778 C777 0.960 . S
H779 N759 0.862 . S
O780 Co748 1.920 1_565 S
O780 C753 1.289 . S
C781 O773 1.258 . S
C781 O774 1.266 . S
Co782 O785 1.970 . S
Co782 N799 1.989 . S
Co782 O807 1.967 . S
Co782 O814 1.920 . S
Co783 O786 1.966 . S
Co783 N792 2.022 . S
Co783 N800 1.993 . S
Co783 O808 1.941 . S
C784 O785 1.258 . S
C784 O786 1.263 . S
O785 Co782 1.970 . S
O785 C784 1.258 . S
O786 Co783 1.966 . S
O786 C784 1.263 . S
C787 O788 1.235 . S
C787 O814 1.289 . S
O788 C787 1.235 . S
C789 C791 1.400 . S
C789 N792 1.351 . S
C789 C794 1.501 . S
C790 C791 1.387 . S
C790 N793 1.341 . S
C791 C789 1.400 . S
C791 C790 1.387 . S
N792 Co783 2.022 . S
N792 C789 1.351 . S
N792 N793 1.365 . S
N793 C790 1.341 . S
N793 N792 1.365 . S
N793 H813 0.862 . S
C794 C789 1.501 . S
C794 H795 0.961 . S
C794 H796 0.961 . S
C794 H797 0.960 . S
H795 C794 0.961 . S
H796 C794 0.961 . S
H797 C794 0.960 . S
C798 N799 1.342 . S
C798 C802 1.401 . S
C798 C803 1.499 . S
N799 Co782 1.989 . S
N799 C798 1.342 . S
N799 N800 1.388 . S
N800 Co783 1.993 . S
N800 N799 1.388 . S
N800 C801 1.346 . S
C801 N800 1.346 . S
C801 C802 1.396 . S
C801 C811 1.510 . S
C802 C798 1.401 . S
C802 C801 1.396 . S
C803 C798 1.499 . S
C803 H804 0.959 . S
C803 H805 0.960 . S
C803 H806 0.961 . S
H804 C803 0.959 . S
H805 C803 0.960 . S
H806 C803 0.961 . S
O807 Co782 1.967 . S
O807 C815 1.258 . S
O808 Co783 1.941 . S
O808 C815 1.266 . S
H809 C811 0.959 . S
H810 C811 0.961 . S
C811 C801 1.510 . S
C811 H809 0.959 . S
C811 H810 0.961 . S
C811 H812 0.960 . S
H812 C811 0.960 . S
H813 N793 0.862 . S
O814 Co782 1.920 . S
O814 C787 1.289 . S
C815 O807 1.258 . S
C815 O808 1.266 . S
Co816 O819 1.970 . S
Co816 N833 1.989 . S
Co816 O841 1.967 . S
Co816 O848 1.920 . S
Co817 O820 1.966 . S
Co817 N826 2.022 . S
Co817 N834 1.993 . S
Co817 O842 1.941 . S
C818 O819 1.258 . S
C818 O820 1.263 . S
O819 Co816 1.970 . S
O819 C818 1.258 . S
O820 Co817 1.966 . S
O820 C818 1.263 . S
C821 O822 1.235 . S
C821 O848 1.289 . S
O822 C821 1.235 . S
C823 C825 1.400 . S
C823 N826 1.351 . S
C823 C828 1.501 . S
C824 C825 1.387 . S
C824 N827 1.341 . S
C825 C823 1.400 . S
C825 C824 1.387 . S
N826 Co817 2.022 . S
N826 C823 1.351 . S
N826 N827 1.365 . S
N827 C824 1.341 . S
N827 N826 1.365 . S
N827 H847 0.862 . S
C828 C823 1.501 . S
C828 H829 0.961 . S
C828 H830 0.961 . S
C828 H831 0.960 . S
H829 C828 0.961 . S
H830 C828 0.961 . S
H831 C828 0.960 . S
C832 N833 1.342 . S
C832 C836 1.401 . S
C832 C837 1.499 . S
N833 Co816 1.989 . S
N833 C832 1.342 . S
N833 N834 1.388 . S
N834 Co817 1.993 . S
N834 N833 1.388 . S
N834 C835 1.346 . S
C835 N834 1.346 . S
C835 C836 1.396 . S
C835 C845 1.510 . S
C836 C832 1.401 . S
C836 C835 1.396 . S
C837 C832 1.499 . S
C837 H838 0.959 . S
C837 H839 0.960 . S
C837 H840 0.961 . S
H838 C837 0.959 . S
H839 C837 0.960 . S
H840 C837 0.961 . S
O841 Co816 1.967 . S
O841 C849 1.258 . S
O842 Co817 1.941 . S
O842 C849 1.266 . S
H843 C845 0.959 . S
H844 C845 0.961 . S
C845 C835 1.510 . S
C845 H843 0.959 . S
C845 H844 0.961 . S
C845 H846 0.960 . S
H846 C845 0.960 . S
H847 N827 0.862 . S
O848 Co816 1.920 . S
O848 C821 1.289 . S
C849 O841 1.258 . S
C849 O842 1.266 . S
Co850 O853 1.970 . S
Co850 N867 1.989 . S
Co850 O875 1.967 . S
Co850 O882 1.920 . S
Co851 O854 1.966 . S
Co851 N860 2.022 . S
Co851 N868 1.993 . S
Co851 O876 1.941 . S
C852 O853 1.258 . S
C852 O854 1.263 . S
O853 Co850 1.970 . S
O853 C852 1.258 . S
O854 Co851 1.966 . S
O854 C852 1.263 . S
C855 O856 1.235 . S
C855 O882 1.289 . S
O856 C855 1.235 . S
C857 C859 1.400 . S
C857 N860 1.351 . S
C857 C862 1.501 . S
C858 C859 1.387 . S
C858 N861 1.341 . S
C859 C857 1.400 . S
C859 C858 1.387 . S
N860 Co851 2.022 . S
N860 C857 1.351 . S
N860 N861 1.365 . S
N861 C858 1.341 . S
N861 N860 1.365 . S
N861 H881 0.862 . S
C862 C857 1.501 . S
C862 H863 0.961 . S
C862 H864 0.961 . S
C862 H865 0.960 . S
H863 C862 0.961 . S
H864 C862 0.961 . S
H865 C862 0.960 . S
C866 N867 1.342 . S
C866 C870 1.401 . S
C866 C871 1.499 . S
N867 Co850 1.989 . S
N867 C866 1.342 . S
N867 N868 1.388 . S
N868 Co851 1.993 . S
N868 N867 1.388 . S
N868 C869 1.346 . S
C869 N868 1.346 . S
C869 C870 1.396 . S
C869 C879 1.510 . S
C870 C866 1.401 . S
C870 C869 1.396 . S
C871 C866 1.499 . S
C871 H872 0.959 . S
C871 H873 0.960 . S
C871 H874 0.961 . S
H872 C871 0.959 . S
H873 C871 0.960 . S
H874 C871 0.961 . S
O875 Co850 1.967 . S
O875 C883 1.258 . S
O876 Co851 1.941 . S
O876 C883 1.266 . S
H877 C879 0.959 . S
H878 C879 0.961 . S
C879 C869 1.510 . S
C879 H877 0.959 . S
C879 H878 0.961 . S
C879 H880 0.960 . S
H880 C879 0.960 . S
H881 N861 0.862 . S
O882 Co850 1.920 . S
O882 C855 1.289 . S
C883 O875 1.258 . S
C883 O876 1.266 . S
Co884 O887 1.970 . S
Co884 N901 1.989 . S
Co884 O909 1.967 . S
Co884 O916 1.920 . S
Co885 O888 1.966 . S
Co885 N894 2.022 1_554 S
Co885 N902 1.993 . S
Co885 O910 1.941 . S
C886 O887 1.258 . S
C886 O888 1.263 . S
O887 Co884 1.970 . S
O887 C886 1.258 . S
O888 Co885 1.966 . S
O888 C886 1.263 . S
C889 O890 1.235 . S
C889 O916 1.289 . S
O890 C889 1.235 . S
C891 C893 1.400 . S
C891 N894 1.351 . S
C891 C896 1.501 . S
C892 C893 1.387 . S
C892 N895 1.341 . S
C893 C891 1.400 . S
C893 C892 1.387 . S
N894 Co885 2.022 1_556 S
N894 C891 1.351 . S
N894 N895 1.365 . S
N895 C892 1.341 . S
N895 N894 1.365 . S
N895 H915 0.862 . S
C896 C891 1.501 . S
C896 H897 0.961 . S
C896 H898 0.961 . S
C896 H899 0.960 . S
H897 C896 0.961 . S
H898 C896 0.961 . S
H899 C896 0.960 . S
C900 N901 1.342 . S
C900 C904 1.401 1_554 S
C900 C905 1.499 . S
N901 Co884 1.989 . S
N901 C900 1.342 . S
N901 N902 1.388 . S
N902 Co885 1.993 . S
N902 N901 1.388 . S
N902 C903 1.346 1_554 S
C903 N902 1.346 1_556 S
C903 C904 1.396 . S
C903 C913 1.510 . S
C904 C900 1.401 1_556 S
C904 C903 1.396 . S
C905 C900 1.499 . S
C905 H906 0.959 . S
C905 H907 0.960 . S
C905 H908 0.961 . S
H906 C905 0.959 . S
H907 C905 0.960 . S
H908 C905 0.961 . S
O909 Co884 1.967 . S
O909 C917 1.258 . S
O910 Co885 1.941 . S
O910 C917 1.266 . S
H911 C913 0.959 . S
H912 C913 0.961 . S
C913 C903 1.510 . S
C913 H911 0.959 . S
C913 H912 0.961 . S
C913 H914 0.960 . S
H914 C913 0.960 . S
H915 N895 0.862 . S
O916 Co884 1.920 . S
O916 C889 1.289 . S
C917 O909 1.258 . S
C917 O910 1.266 . S
Co918 O921 1.970 . S
Co918 N935 1.989 . S
Co918 O943 1.967 . S
Co918 O950 1.920 . S
Co919 O922 1.966 . S
Co919 N928 2.022 1_554 S
Co919 N936 1.993 . S
Co919 O944 1.941 . S
C920 O921 1.258 . S
C920 O922 1.263 . S
O921 Co918 1.970 . S
O921 C920 1.258 . S
O922 Co919 1.966 . S
O922 C920 1.263 . S
C923 O924 1.235 . S
C923 O950 1.289 . S
O924 C923 1.235 . S
C925 C927 1.400 . S
C925 N928 1.351 . S
C925 C930 1.501 . S
C926 C927 1.387 . S
C926 N929 1.341 . S
C927 C925 1.400 . S
C927 C926 1.387 . S
N928 Co919 2.022 1_556 S
N928 C925 1.351 . S
N928 N929 1.365 . S
N929 C926 1.341 . S
N929 N928 1.365 . S
N929 H949 0.862 . S
C930 C925 1.501 . S
C930 H931 0.961 . S
C930 H932 0.961 . S
C930 H933 0.960 . S
H931 C930 0.961 . S
H932 C930 0.961 . S
H933 C930 0.960 . S
C934 N935 1.342 . S
C934 C938 1.401 1_554 S
C934 C939 1.499 . S
N935 Co918 1.989 . S
N935 C934 1.342 . S
N935 N936 1.388 . S
N936 Co919 1.993 . S
N936 N935 1.388 . S
N936 C937 1.346 1_554 S
C937 N936 1.346 1_556 S
C937 C938 1.396 . S
C937 C947 1.510 . S
C938 C934 1.401 1_556 S
C938 C937 1.396 . S
C939 C934 1.499 . S
C939 H940 0.959 . S
C939 H941 0.960 . S
C939 H942 0.961 . S
H940 C939 0.959 . S
H941 C939 0.960 . S
H942 C939 0.961 . S
O943 Co918 1.967 . S
O943 C951 1.258 . S
O944 Co919 1.941 . S
O944 C951 1.266 . S
H945 C947 0.959 . S
H946 C947 0.961 . S
C947 C937 1.510 . S
C947 H945 0.959 . S
C947 H946 0.961 . S
C947 H948 0.960 . S
H948 C947 0.960 . S
H949 N929 0.862 . S
O950 Co918 1.920 . S
O950 C923 1.289 . S
C951 O943 1.258 . S
C951 O944 1.266 . S
Co952 O955 1.970 . S
Co952 N969 1.989 . S
Co952 O977 1.967 . S
Co952 O984 1.920 . S
Co953 O956 1.966 . S
Co953 N962 2.022 . S
Co953 N970 1.993 . S
Co953 O978 1.941 . S
C954 O955 1.258 . S
C954 O956 1.263 . S
O955 Co952 1.970 . S
O955 C954 1.258 . S
O956 Co953 1.966 . S
O956 C954 1.263 . S
C957 O958 1.235 . S
C957 O984 1.289 . S
O958 C957 1.235 . S
C959 C961 1.400 . S
C959 N962 1.351 . S
C959 C964 1.501 . S
C960 C961 1.387 . S
C960 N963 1.341 . S
C961 C959 1.400 . S
C961 C960 1.387 . S
N962 Co953 2.022 . S
N962 C959 1.351 . S
N962 N963 1.365 . S
N963 C960 1.341 . S
N963 N962 1.365 . S
N963 H983 0.862 . S
C964 C959 1.501 . S
C964 H965 0.961 . S
C964 H966 0.961 . S
C964 H967 0.960 . S
H965 C964 0.961 . S
H966 C964 0.961 . S
H967 C964 0.960 . S
C968 N969 1.342 . S
C968 C972 1.401 . S
C968 C973 1.499 . S
N969 Co952 1.989 . S
N969 C968 1.342 . S
N969 N970 1.388 . S
N970 Co953 1.993 . S
N970 N969 1.388 . S
N970 C971 1.346 . S
C971 N970 1.346 . S
C971 C972 1.396 . S
C971 C981 1.510 . S
C972 C968 1.401 . S
C972 C971 1.396 . S
C973 C968 1.499 . S
C973 H974 0.959 . S
C973 H975 0.960 . S
C973 H976 0.961 . S
H974 C973 0.959 . S
H975 C973 0.960 . S
H976 C973 0.961 . S
O977 Co952 1.967 . S
O977 C985 1.258 . S
O978 Co953 1.941 . S
O978 C985 1.266 . S
H979 C981 0.959 . S
H980 C981 0.961 . S
C981 C971 1.510 . S
C981 H979 0.959 . S
C981 H980 0.961 . S
C981 H982 0.960 . S
H982 C981 0.960 . S
H983 N963 0.862 . S
O984 Co952 1.920 . S
O984 C957 1.289 . S
C985 O977 1.258 . S
C985 O978 1.266 . S
Co986 O989 1.970 . S
Co986 N1003 1.989 . S
Co986 O1011 1.967 . S
Co986 O1018 1.920 . S
Co987 O990 1.966 . S
Co987 N996 2.022 . S
Co987 N1004 1.993 . S
Co987 O1012 1.941 . S
C988 O989 1.258 . S
C988 O990 1.263 . S
O989 Co986 1.970 . S
O989 C988 1.258 . S
O990 Co987 1.966 . S
O990 C988 1.263 . S
C991 O992 1.235 . S
C991 O1018 1.289 . S
O992 C991 1.235 . S
C993 C995 1.400 . S
C993 N996 1.351 . S
C993 C998 1.501 . S
C994 C995 1.387 . S
C994 N997 1.341 . S
C995 C993 1.400 . S
C995 C994 1.387 . S
N996 Co987 2.022 . S
N996 C993 1.351 . S
N996 N997 1.365 . S
N997 C994 1.341 . S
N997 N996 1.365 . S
N997 H1017 0.862 . S
C998 C993 1.501 . S
C998 H999 0.961 . S
C998 H1000 0.961 . S
C998 H1001 0.960 . S
H999 C998 0.961 . S
H1000 C998 0.961 . S
H1001 C998 0.960 . S
C1002 N1003 1.342 . S
C1002 C1006 1.401 . S
C1002 C1007 1.499 . S
N1003 Co986 1.989 . S
N1003 C1002 1.342 . S
N1003 N1004 1.388 . S
N1004 Co987 1.993 . S
N1004 N1003 1.388 . S
N1004 C1005 1.346 . S
C1005 N1004 1.346 . S
C1005 C1006 1.396 . S
C1005 C1015 1.510 . S
C1006 C1002 1.401 . S
C1006 C1005 1.396 . S
C1007 C1002 1.499 . S
C1007 H1008 0.959 . S
C1007 H1009 0.960 . S
C1007 H1010 0.961 . S
H1008 C1007 0.959 . S
H1009 C1007 0.960 . S
H1010 C1007 0.961 . S
O1011 Co986 1.967 . S
O1011 C1019 1.258 . S
O1012 Co987 1.941 . S
O1012 C1019 1.266 . S
H1013 C1015 0.959 . S
H1014 C1015 0.961 . S
C1015 C1005 1.510 . S
C1015 H1013 0.959 . S
C1015 H1014 0.961 . S
C1015 H1016 0.960 . S
H1016 C1015 0.960 . S
H1017 N997 0.862 . S
O1018 Co986 1.920 . S
O1018 C991 1.289 . S
C1019 O1011 1.258 . S
C1019 O1012 1.266 . S
Co1020 O1023 1.970 . S
Co1020 N1037 1.989 . S
Co1020 O1045 1.967 . S
Co1020 O1052 1.920 . S
Co1021 O1024 1.966 . S
Co1021 N1030 2.022 1_556 S
Co1021 N1038 1.993 . S
Co1021 O1046 1.941 . S
C1022 O1023 1.258 . S
C1022 O1024 1.263 . S
O1023 Co1020 1.970 . S
O1023 C1022 1.258 . S
O1024 Co1021 1.966 . S
O1024 C1022 1.263 . S
C1025 O1026 1.235 . S
C1025 O1052 1.289 . S
O1026 C1025 1.235 . S
C1027 C1029 1.400 . S
C1027 N1030 1.351 . S
C1027 C1032 1.501 . S
C1028 C1029 1.387 . S
C1028 N1031 1.341 . S
C1029 C1027 1.400 . S
C1029 C1028 1.387 . S
N1030 Co1021 2.022 1_554 S
N1030 C1027 1.351 . S
N1030 N1031 1.365 . S
N1031 C1028 1.341 . S
N1031 N1030 1.365 . S
N1031 H1051 0.862 . S
C1032 C1027 1.501 . S
C1032 H1033 0.961 . S
C1032 H1034 0.961 . S
C1032 H1035 0.960 . S
H1033 C1032 0.961 . S
H1034 C1032 0.961 . S
H1035 C1032 0.960 . S
C1036 N1037 1.342 . S
C1036 C1040 1.401 1_556 S
C1036 C1041 1.499 . S
N1037 Co1020 1.989 . S
N1037 C1036 1.342 . S
N1037 N1038 1.388 . S
N1038 Co1021 1.993 . S
N1038 N1037 1.388 . S
N1038 C1039 1.346 1_556 S
C1039 N1038 1.346 1_554 S
C1039 C1040 1.396 . S
C1039 C1049 1.510 . S
C1040 C1036 1.401 1_554 S
C1040 C1039 1.396 . S
C1041 C1036 1.499 . S
C1041 H1042 0.959 . S
C1041 H1043 0.960 . S
C1041 H1044 0.961 . S
H1042 C1041 0.959 . S
H1043 C1041 0.960 . S
H1044 C1041 0.961 . S
O1045 Co1020 1.967 . S
O1045 C1053 1.258 . S
O1046 Co1021 1.941 . S
O1046 C1053 1.266 . S
H1047 C1049 0.959 . S
H1048 C1049 0.961 . S
C1049 C1039 1.510 . S
C1049 H1047 0.959 . S
C1049 H1048 0.961 . S
C1049 H1050 0.960 . S
H1050 C1049 0.960 . S
H1051 N1031 0.862 . S
O1052 Co1020 1.920 . S
O1052 C1025 1.289 . S
C1053 O1045 1.258 . S
C1053 O1046 1.266 . S
Co1054 O1057 1.970 . S
Co1054 N1071 1.989 . S
Co1054 O1079 1.967 . S
Co1054 O1086 1.920 . S
Co1055 O1058 1.966 . S
Co1055 N1064 2.022 1_556 S
Co1055 N1072 1.993 . S
Co1055 O1080 1.941 . S
C1056 O1057 1.258 . S
C1056 O1058 1.263 . S
O1057 Co1054 1.970 . S
O1057 C1056 1.258 . S
O1058 Co1055 1.966 . S
O1058 C1056 1.263 . S
C1059 O1060 1.235 . S
C1059 O1086 1.289 . S
O1060 C1059 1.235 . S
C1061 C1063 1.400 . S
C1061 N1064 1.351 . S
C1061 C1066 1.501 . S
C1062 C1063 1.387 . S
C1062 N1065 1.341 . S
C1063 C1061 1.400 . S
C1063 C1062 1.387 . S
N1064 Co1055 2.022 1_554 S
N1064 C1061 1.351 . S
N1064 N1065 1.365 . S
N1065 C1062 1.341 . S
N1065 N1064 1.365 . S
N1065 H1085 0.862 . S
C1066 C1061 1.501 . S
C1066 H1067 0.961 . S
C1066 H1068 0.961 . S
C1066 H1069 0.960 . S
H1067 C1066 0.961 . S
H1068 C1066 0.961 . S
H1069 C1066 0.960 . S
C1070 N1071 1.342 . S
C1070 C1074 1.401 1_556 S
C1070 C1075 1.499 . S
N1071 Co1054 1.989 . S
N1071 C1070 1.342 . S
N1071 N1072 1.388 . S
N1072 Co1055 1.993 . S
N1072 N1071 1.388 . S
N1072 C1073 1.346 1_556 S
C1073 N1072 1.346 1_554 S
C1073 C1074 1.396 . S
C1073 C1083 1.510 . S
C1074 C1070 1.401 1_554 S
C1074 C1073 1.396 . S
C1075 C1070 1.499 . S
C1075 H1076 0.959 . S
C1075 H1077 0.960 . S
C1075 H1078 0.961 . S
H1076 C1075 0.959 . S
H1077 C1075 0.960 . S
H1078 C1075 0.961 . S
O1079 Co1054 1.967 . S
O1079 C1087 1.258 . S
O1080 Co1055 1.941 . S
O1080 C1087 1.266 . S
H1081 C1083 0.959 . S
H1082 C1083 0.961 . S
C1083 C1073 1.510 . S
C1083 H1081 0.959 . S
C1083 H1082 0.961 . S
C1083 H1084 0.960 . S
H1084 C1083 0.960 . S
H1085 N1065 0.862 . S
O1086 Co1054 1.920 . S
O1086 C1059 1.289 . S
C1087 O1079 1.258 . S
C1087 O1080 1.266 . S
H1088 C1094 0.930 . S
H1089 C1097 0.930 . S
H1090 C1098 0.930 . S
H1091 C1099 0.930 . S
H1092 C1102 0.930 . S
H1093 C1103 0.930 . S
C1094 H1088 0.930 . S
C1094 C1095 1.355 . S
C1094 C1096 1.415 . S
C1095 C1094 1.355 . S
C1095 C1097 1.419 . S
C1096 C1094 1.415 . S
C1096 C1101 1.425 . S
C1096 C1103 1.409 . S
C1097 H1089 0.930 . S
C1097 C1095 1.419 . S
C1097 C1098 1.362 . S
C1098 H1090 0.930 . S
C1098 C1097 1.362 . S
C1098 C1101 1.409 . S
C1099 H1091 0.930 . S
C1099 C1100 1.355 . S
C1099 C1101 1.415 . S
C1100 C1099 1.355 . S
C1100 C1102 1.419 . S
C1101 C1096 1.425 . S
C1101 C1098 1.409 . S
C1101 C1099 1.415 . S
C1102 H1092 0.930 . S
C1102 C1100 1.419 . S
C1102 C1103 1.362 . S
C1103 H1093 0.930 . S
C1103 C1096 1.409 . S
C1103 C1102 1.362 . S
H1104 C1110 0.930 . S
H1105 C1113 0.930 . S
H1106 C1114 0.930 . S
H1107 C1115 0.930 . S
H1108 C1118 0.930 . S
H1109 C1119 0.930 . S
C1110 H1104 0.930 . S
C1110 C1111 1.355 . S
C1110 C1112 1.415 . S
C1111 C1110 1.355 . S
C1111 C1113 1.419 . S
C1112 C1110 1.415 . S
C1112 C1117 1.425 . S
C1112 C1119 1.409 . S
C1113 H1105 0.930 . S
C1113 C1111 1.419 . S
C1113 C1114 1.362 . S
C1114 H1106 0.930 . S
C1114 C1113 1.362 . S
C1114 C1117 1.409 . S
C1115 H1107 0.930 . S
C1115 C1116 1.355 . S
C1115 C1117 1.415 . S
C1116 C1115 1.355 . S
C1116 C1118 1.419 . S
C1117 C1112 1.425 . S
C1117 C1114 1.409 . S
C1117 C1115 1.415 . S
C1118 H1108 0.930 . S
C1118 C1116 1.419 . S
C1118 C1119 1.362 . S
C1119 H1109 0.930 . S
C1119 C1112 1.409 . S
C1119 C1118 1.362 . S
H1120 C1126 0.930 . S
H1121 C1129 0.930 . S
H1122 C1130 0.930 . S
H1123 C1131 0.930 . S
H1124 C1134 0.930 . S
H1125 C1135 0.930 . S
C1126 H1120 0.930 . S
C1126 C1127 1.355 . S
C1126 C1128 1.415 . S
C1127 C1126 1.355 . S
C1127 C1129 1.419 . S
C1128 C1126 1.415 . S
C1128 C1133 1.425 . S
C1128 C1135 1.409 . S
C1129 H1121 0.930 . S
C1129 C1127 1.419 . S
C1129 C1130 1.362 . S
C1130 H1122 0.930 . S
C1130 C1129 1.362 . S
C1130 C1133 1.409 . S
C1131 H1123 0.930 . S
C1131 C1132 1.355 . S
C1131 C1133 1.415 . S
C1132 C1131 1.355 . S
C1132 C1134 1.419 . S
C1133 C1128 1.425 . S
C1133 C1130 1.409 . S
C1133 C1131 1.415 . S
C1134 H1124 0.930 . S
C1134 C1132 1.419 . S
C1134 C1135 1.362 . S
C1135 H1125 0.930 . S
C1135 C1128 1.409 . S
C1135 C1134 1.362 . S
H1136 C1142 0.930 . S
H1137 C1145 0.930 . S
H1138 C1146 0.930 . S
H1139 C1147 0.930 . S
H1140 C1150 0.930 . S
H1141 C1151 0.930 . S
C1142 H1136 0.930 . S
C1142 C1143 1.355 . S
C1142 C1144 1.415 . S
C1143 C1142 1.355 . S
C1143 C1145 1.419 . S
C1144 C1142 1.415 . S
C1144 C1149 1.425 . S
C1144 C1151 1.409 . S
C1145 H1137 0.930 . S
C1145 C1143 1.419 . S
C1145 C1146 1.362 . S
C1146 H1138 0.930 . S
C1146 C1145 1.362 . S
C1146 C1149 1.409 . S
C1147 H1139 0.930 . S
C1147 C1148 1.355 . S
C1147 C1149 1.415 . S
C1148 C1147 1.355 . S
C1148 C1150 1.419 . S
C1149 C1144 1.425 . S
C1149 C1146 1.409 . S
C1149 C1147 1.415 . S
C1150 H1140 0.930 . S
C1150 C1148 1.419 . S
C1150 C1151 1.362 . S
C1151 H1141 0.930 . S
C1151 C1144 1.409 . S
C1151 C1150 1.362 . S
H1152 C1158 0.930 . S
H1153 C1161 0.930 . S
H1154 C1162 0.930 . S
H1155 C1163 0.930 . S
H1156 C1166 0.930 . S
H1157 C1167 0.930 . S
C1158 H1152 0.930 . S
C1158 C1159 1.355 . S
C1158 C1160 1.415 . S
C1159 C1158 1.355 . S
C1159 C1161 1.419 . S
C1160 C1158 1.415 . S
C1160 C1165 1.425 . S
C1160 C1167 1.409 . S
C1161 H1153 0.930 . S
C1161 C1159 1.419 . S
C1161 C1162 1.362 . S
C1162 H1154 0.930 . S
C1162 C1161 1.362 . S
C1162 C1165 1.409 . S
C1163 H1155 0.930 . S
C1163 C1164 1.355 . S
C1163 C1165 1.415 . S
C1164 C1163 1.355 . S
C1164 C1166 1.419 . S
C1165 C1160 1.425 . S
C1165 C1162 1.409 . S
C1165 C1163 1.415 . S
C1166 H1156 0.930 . S
C1166 C1164 1.419 . S
C1166 C1167 1.362 . S
C1167 H1157 0.930 . S
C1167 C1160 1.409 . S
C1167 C1166 1.362 . S
H1168 C1174 0.930 . S
H1169 C1177 0.930 . S
H1170 C1178 0.930 . S
H1171 C1179 0.930 . S
H1172 C1182 0.930 . S
H1173 C1183 0.930 . S
C1174 H1168 0.930 . S
C1174 C1175 1.355 . S
C1174 C1176 1.415 . S
C1175 C1174 1.355 . S
C1175 C1177 1.419 . S
C1176 C1174 1.415 . S
C1176 C1181 1.425 . S
C1176 C1183 1.409 . S
C1177 H1169 0.930 . S
C1177 C1175 1.419 . S
C1177 C1178 1.362 . S
C1178 H1170 0.930 . S
C1178 C1177 1.362 . S
C1178 C1181 1.409 . S
C1179 H1171 0.930 . S
C1179 C1180 1.355 . S
C1179 C1181 1.415 . S
C1180 C1179 1.355 . S
C1180 C1182 1.419 . S
C1181 C1176 1.425 . S
C1181 C1178 1.409 . S
C1181 C1179 1.415 . S
C1182 H1172 0.930 . S
C1182 C1180 1.419 . S
C1182 C1183 1.362 . S
C1183 H1173 0.930 . S
C1183 C1176 1.409 . S
C1183 C1182 1.362 . S
H1184 C1190 0.930 . S
H1185 C1193 0.930 . S
H1186 C1194 0.930 . S
H1187 C1195 0.930 . S
H1188 C1198 0.930 . S
H1189 C1199 0.930 . S
C1190 H1184 0.930 . S
C1190 C1191 1.355 . S
C1190 C1192 1.415 . S
C1191 C1190 1.355 . S
C1191 C1193 1.419 . S
C1192 C1190 1.415 . S
C1192 C1197 1.425 . S
C1192 C1199 1.409 . S
C1193 H1185 0.930 . S
C1193 C1191 1.419 . S
C1193 C1194 1.362 . S
C1194 H1186 0.930 . S
C1194 C1193 1.362 . S
C1194 C1197 1.409 . S
C1195 H1187 0.930 . S
C1195 C1196 1.355 . S
C1195 C1197 1.415 . S
C1196 C1195 1.355 . S
C1196 C1198 1.419 . S
C1197 C1192 1.425 . S
C1197 C1194 1.409 . S
C1197 C1195 1.415 . S
C1198 H1188 0.930 . S
C1198 C1196 1.419 . S
C1198 C1199 1.362 . S
C1199 H1189 0.930 . S
C1199 C1192 1.409 . S
C1199 C1198 1.362 . S
H1200 C1206 0.930 . S
H1201 C1209 0.930 . S
H1202 C1210 0.930 . S
H1203 C1211 0.930 . S
H1204 C1214 0.930 . S
H1205 C1215 0.930 . S
C1206 H1200 0.930 . S
C1206 C1207 1.355 . S
C1206 C1208 1.415 . S
C1207 C1206 1.355 . S
C1207 C1209 1.419 . S
C1208 C1206 1.415 . S
C1208 C1213 1.425 . S
C1208 C1215 1.409 . S
C1209 H1201 0.930 . S
C1209 C1207 1.419 . S
C1209 C1210 1.362 . S
C1210 H1202 0.930 . S
C1210 C1209 1.362 . S
C1210 C1213 1.409 . S
C1211 H1203 0.930 . S
C1211 C1212 1.355 . S
C1211 C1213 1.415 . S
C1212 C1211 1.355 . S
C1212 C1214 1.419 . S
C1213 C1208 1.425 . S
C1213 C1210 1.409 . S
C1213 C1211 1.415 . S
C1214 H1204 0.930 . S
C1214 C1212 1.419 . S
C1214 C1215 1.362 . S
C1215 H1205 0.930 . S
C1215 C1208 1.409 . S
C1215 C1214 1.362 . S
H1216 C1222 0.930 . S
H1217 C1225 0.930 . S
H1218 C1226 0.930 . S
H1219 C1227 0.930 . S
H1220 C1230 0.930 . S
H1221 C1231 0.930 . S
C1222 H1216 0.930 . S
C1222 C1223 1.355 . S
C1222 C1224 1.415 . S
C1223 C1222 1.355 . S
C1223 C1225 1.419 . S
C1224 C1222 1.415 . S
C1224 C1229 1.425 . S
C1224 C1231 1.409 . S
C1225 H1217 0.930 . S
C1225 C1223 1.419 . S
C1225 C1226 1.362 . S
C1226 H1218 0.930 . S
C1226 C1225 1.362 . S
C1226 C1229 1.409 . S
C1227 H1219 0.930 . S
C1227 C1228 1.355 . S
C1227 C1229 1.415 . S
C1228 C1227 1.355 . S
C1228 C1230 1.419 . S
C1229 C1224 1.425 . S
C1229 C1226 1.409 . S
C1229 C1227 1.415 . S
C1230 H1220 0.930 . S
C1230 C1228 1.419 . S
C1230 C1231 1.362 . S
C1231 H1221 0.930 . S
C1231 C1224 1.409 . S
C1231 C1230 1.362 . S
H1232 C1238 0.930 . S
H1233 C1241 0.930 . S
H1234 C1242 0.930 . S
H1235 C1243 0.930 . S
H1236 C1246 0.930 . S
H1237 C1247 0.930 . S
C1238 H1232 0.930 . S
C1238 C1239 1.355 . S
C1238 C1240 1.415 . S
C1239 C1238 1.355 . S
C1239 C1241 1.419 . S
C1240 C1238 1.415 . S
C1240 C1245 1.425 . S
C1240 C1247 1.409 . S
C1241 H1233 0.930 . S
C1241 C1239 1.419 . S
C1241 C1242 1.362 . S
C1242 H1234 0.930 . S
C1242 C1241 1.362 . S
C1242 C1245 1.409 . S
C1243 H1235 0.930 . S
C1243 C1244 1.355 . S
C1243 C1245 1.415 . S
C1244 C1243 1.355 . S
C1244 C1246 1.419 . S
C1245 C1240 1.425 . S
C1245 C1242 1.409 . S
C1245 C1243 1.415 . S
C1246 H1236 0.930 . S
C1246 C1244 1.419 . S
C1246 C1247 1.362 . S
C1247 H1237 0.930 . S
C1247 C1240 1.409 . S
C1247 C1246 1.362 . S
H1248 C1254 0.930 . S
H1249 C1257 0.930 . S
H1250 C1258 0.930 . S
H1251 C1259 0.930 . S
H1252 C1262 0.930 . S
H1253 C1263 0.930 . S
C1254 H1248 0.930 . S
C1254 C1255 1.355 . S
C1254 C1256 1.415 . S
C1255 C1254 1.355 . S
C1255 C1257 1.419 . S
C1256 C1254 1.415 . S
C1256 C1261 1.425 . S
C1256 C1263 1.409 . S
C1257 H1249 0.930 . S
C1257 C1255 1.419 . S
C1257 C1258 1.362 . S
C1258 H1250 0.930 . S
C1258 C1257 1.362 . S
C1258 C1261 1.409 . S
C1259 H1251 0.930 . S
C1259 C1260 1.355 . S
C1259 C1261 1.415 . S
C1260 C1259 1.355 . S
C1260 C1262 1.419 . S
C1261 C1256 1.425 . S
C1261 C1258 1.409 . S
C1261 C1259 1.415 . S
C1262 H1252 0.930 . S
C1262 C1260 1.419 . S
C1262 C1263 1.362 . S
C1263 H1253 0.930 . S
C1263 C1256 1.409 . S
C1263 C1262 1.362 . S
H1264 C1270 0.930 . S
H1265 C1273 0.930 . S
H1266 C1274 0.930 . S
H1267 C1275 0.930 . S
H1268 C1278 0.930 . S
H1269 C1279 0.930 . S
C1270 H1264 0.930 . S
C1270 C1271 1.355 . S
C1270 C1272 1.415 . S
C1271 C1270 1.355 . S
C1271 C1273 1.419 . S
C1272 C1270 1.415 . S
C1272 C1277 1.425 . S
C1272 C1279 1.409 . S
C1273 H1265 0.930 . S
C1273 C1271 1.419 . S
C1273 C1274 1.362 . S
C1274 H1266 0.930 . S
C1274 C1273 1.362 . S
C1274 C1277 1.409 . S
C1275 H1267 0.930 . S
C1275 C1276 1.355 . S
C1275 C1277 1.415 . S
C1276 C1275 1.355 . S
C1276 C1278 1.419 . S
C1277 C1272 1.425 . S
C1277 C1274 1.409 . S
C1277 C1275 1.415 . S
C1278 H1268 0.930 . S
C1278 C1276 1.419 . S
C1278 C1279 1.362 . S
C1279 H1269 0.930 . S
C1279 C1272 1.409 . S
C1279 C1278 1.362 . S
H1280 C1286 0.930 . S
H1281 C1289 0.930 . S
H1282 C1290 0.930 . S
H1283 C1291 0.930 . S
H1284 C1294 0.930 . S
H1285 C1295 0.930 . S
C1286 H1280 0.930 . S
C1286 C1287 1.355 . S
C1286 C1288 1.415 . S
C1287 C1286 1.355 . S
C1287 C1289 1.419 . S
C1288 C1286 1.415 . S
C1288 C1293 1.425 . S
C1288 C1295 1.409 . S
C1289 H1281 0.930 . S
C1289 C1287 1.419 . S
C1289 C1290 1.362 . S
C1290 H1282 0.930 . S
C1290 C1289 1.362 . S
C1290 C1293 1.409 . S
C1291 H1283 0.930 . S
C1291 C1292 1.355 . S
C1291 C1293 1.415 . S
C1292 C1291 1.355 . S
C1292 C1294 1.419 . S
C1293 C1288 1.425 . S
C1293 C1290 1.409 . S
C1293 C1291 1.415 . S
C1294 H1284 0.930 . S
C1294 C1292 1.419 . S
C1294 C1295 1.362 . S
C1295 H1285 0.930 . S
C1295 C1288 1.409 . S
C1295 C1294 1.362 . S
H1296 C1302 0.930 . S
H1297 C1305 0.930 . S
H1298 C1306 0.930 . S
H1299 C1307 0.930 . S
H1300 C1310 0.930 . S
H1301 C1311 0.930 . S
C1302 H1296 0.930 . S
C1302 C1303 1.355 . S
C1302 C1304 1.415 . S
C1303 C1302 1.355 . S
C1303 C1305 1.419 . S
C1304 C1302 1.415 . S
C1304 C1309 1.425 . S
C1304 C1311 1.409 . S
C1305 H1297 0.930 . S
C1305 C1303 1.419 . S
C1305 C1306 1.362 . S
C1306 H1298 0.930 . S
C1306 C1305 1.362 . S
C1306 C1309 1.409 . S
C1307 H1299 0.930 . S
C1307 C1308 1.355 . S
C1307 C1309 1.415 . S
C1308 C1307 1.355 . S
C1308 C1310 1.419 . S
C1309 C1304 1.425 . S
C1309 C1306 1.409 . S
C1309 C1307 1.415 . S
C1310 H1300 0.930 . S
C1310 C1308 1.419 . S
C1310 C1311 1.362 . S
C1311 H1301 0.930 . S
C1311 C1304 1.409 . S
C1311 C1310 1.362 . S
H1312 C1318 0.930 . S
H1313 C1321 0.930 . S
H1314 C1322 0.930 . S
H1315 C1323 0.930 . S
H1316 C1326 0.930 . S
H1317 C1327 0.930 . S
C1318 H1312 0.930 . S
C1318 C1319 1.355 . S
C1318 C1320 1.415 . S
C1319 C1318 1.355 . S
C1319 C1321 1.419 . S
C1320 C1318 1.415 . S
C1320 C1325 1.425 . S
C1320 C1327 1.409 . S
C1321 H1313 0.930 . S
C1321 C1319 1.419 . S
C1321 C1322 1.362 . S
C1322 H1314 0.930 . S
C1322 C1321 1.362 . S
C1322 C1325 1.409 . S
C1323 H1315 0.930 . S
C1323 C1324 1.355 . S
C1323 C1325 1.415 . S
C1324 C1323 1.355 . S
C1324 C1326 1.419 . S
C1325 C1320 1.425 . S
C1325 C1322 1.409 . S
C1325 C1323 1.415 . S
C1326 H1316 0.930 . S
C1326 C1324 1.419 . S
C1326 C1327 1.362 . S
C1327 H1317 0.930 . S
C1327 C1320 1.409 . S
C1327 C1326 1.362 . S
H1328 C1334 0.930 . S
H1329 C1337 0.930 . S
H1330 C1338 0.930 . S
H1331 C1339 0.930 . S
H1332 C1342 0.930 . S
H1333 C1343 0.930 . S
C1334 H1328 0.930 . S
C1334 C1335 1.355 . S
C1334 C1336 1.415 . S
C1335 C1334 1.355 . S
C1335 C1337 1.419 . S
C1336 C1334 1.415 . S
C1336 C1341 1.425 . S
C1336 C1343 1.409 . S
C1337 H1329 0.930 . S
C1337 C1335 1.419 . S
C1337 C1338 1.362 . S
C1338 H1330 0.930 . S
C1338 C1337 1.362 . S
C1338 C1341 1.409 . S
C1339 H1331 0.930 . S
C1339 C1340 1.355 . S
C1339 C1341 1.415 . S
C1340 C1339 1.355 . S
C1340 C1342 1.419 . S
C1341 C1336 1.425 . S
C1341 C1338 1.409 . S
C1341 C1339 1.415 . S
C1342 H1332 0.930 . S
C1342 C1340 1.419 . S
C1342 C1343 1.362 . S
C1343 H1333 0.930 . S
C1343 C1336 1.409 . S
C1343 C1342 1.362 . S
H1344 C1350 0.930 . S
H1345 C1353 0.930 . S
H1346 C1354 0.930 . S
H1347 C1355 0.930 . S
H1348 C1358 0.930 . S
H1349 C1359 0.930 . S
C1350 H1344 0.930 . S
C1350 C1351 1.355 . S
C1350 C1352 1.415 . S
C1351 C1350 1.355 . S
C1351 C1353 1.419 . S
C1352 C1350 1.415 . S
C1352 C1357 1.425 . S
C1352 C1359 1.409 . S
C1353 H1345 0.930 . S
C1353 C1351 1.419 . S
C1353 C1354 1.362 . S
C1354 H1346 0.930 . S
C1354 C1353 1.362 . S
C1354 C1357 1.409 . S
C1355 H1347 0.930 . S
C1355 C1356 1.355 . S
C1355 C1357 1.415 . S
C1356 C1355 1.355 . S
C1356 C1358 1.419 . S
C1357 C1352 1.425 . S
C1357 C1354 1.409 . S
C1357 C1355 1.415 . S
C1358 H1348 0.930 . S
C1358 C1356 1.419 . S
C1358 C1359 1.362 . S
C1359 H1349 0.930 . S
C1359 C1352 1.409 . S
C1359 C1358 1.362 . S
H1360 C1366 0.930 . S
H1361 C1369 0.930 . S
H1362 C1370 0.930 . S
H1363 C1371 0.930 . S
H1364 C1374 0.930 . S
H1365 C1375 0.930 . S
C1366 H1360 0.930 . S
C1366 C1367 1.355 . S
C1366 C1368 1.415 . S
C1367 C1366 1.355 . S
C1367 C1369 1.419 . S
C1368 C1366 1.415 . S
C1368 C1373 1.425 . S
C1368 C1375 1.409 . S
C1369 H1361 0.930 . S
C1369 C1367 1.419 . S
C1369 C1370 1.362 . S
C1370 H1362 0.930 . S
C1370 C1369 1.362 . S
C1370 C1373 1.409 . S
C1371 H1363 0.930 . S
C1371 C1372 1.355 . S
C1371 C1373 1.415 . S
C1372 C1371 1.355 . S
C1372 C1374 1.419 . S
C1373 C1368 1.425 . S
C1373 C1370 1.409 . S
C1373 C1371 1.415 . S
C1374 H1364 0.930 . S
C1374 C1372 1.419 . S
C1374 C1375 1.362 . S
C1375 H1365 0.930 . S
C1375 C1368 1.409 . S
C1375 C1374 1.362 . S
H1376 C1382 0.930 . S
H1377 C1385 0.930 . S
H1378 C1386 0.936 . S
H1379 C1387 0.930 . S
H1380 C1390 0.930 . S
H1381 C1391 0.930 . S
C1382 H1376 0.930 . S
C1382 C1383 1.355 . S
C1382 C1384 1.415 . S
C1383 C1382 1.355 . S
C1383 C1385 1.419 . S
C1384 C1382 1.415 . S
C1384 C1389 1.425 . S
C1384 C1391 1.409 . S
C1385 H1377 0.930 . S
C1385 C1383 1.419 . S
C1385 C1386 1.362 . S
C1386 H1378 0.936 . S
C1386 C1385 1.362 . S
C1386 C1389 1.409 . S
C1387 H1379 0.930 . S
C1387 C1388 1.355 . S
C1387 C1389 1.415 . S
C1388 C1387 1.355 . S
C1388 C1390 1.419 . S
C1389 C1384 1.425 . S
C1389 C1386 1.409 . S
C1389 C1387 1.415 . S
C1390 H1380 0.930 . S
C1390 C1388 1.419 . S
C1390 C1391 1.362 . S
C1391 H1381 0.930 . S
C1391 C1384 1.409 . S
C1391 C1390 1.362 . S
H1392 C1398 0.930 . S
H1393 C1401 0.930 . S
H1394 C1402 0.930 . S
H1395 C1403 0.930 . S
H1396 C1406 0.930 . S
H1397 C1407 0.930 . S
C1398 H1392 0.930 . S
C1398 C1399 1.355 . S
C1398 C1400 1.415 . S
C1399 C1398 1.355 . S
C1399 C1401 1.419 . S
C1400 C1398 1.415 . S
C1400 C1405 1.425 . S
C1400 C1407 1.409 . S
C1401 H1393 0.930 . S
C1401 C1399 1.419 . S
C1401 C1402 1.362 . S
C1402 H1394 0.930 . S
C1402 C1401 1.362 . S
C1402 C1405 1.409 . S
C1403 H1395 0.930 . S
C1403 C1404 1.355 . S
C1403 C1405 1.415 . S
C1404 C1403 1.355 . S
C1404 C1406 1.419 . S
C1405 C1400 1.425 . S
C1405 C1402 1.409 . S
C1405 C1403 1.415 . S
C1406 H1396 0.930 . S
C1406 C1404 1.419 . S
C1406 C1407 1.362 . S
C1407 H1397 0.930 . S
C1407 C1400 1.409 . S
C1407 C1406 1.362 . S
H1408 C1414 0.930 . S
H1409 C1417 0.930 . S
H1410 C1418 0.930 . S
H1411 C1419 0.930 . S
H1412 C1422 0.930 . S
H1413 C1423 0.930 . S
C1414 H1408 0.930 . S
C1414 C1415 1.355 . S
C1414 C1416 1.415 . S
C1415 C1414 1.355 . S
C1415 C1417 1.419 . S
C1416 C1414 1.415 . S
C1416 C1421 1.425 . S
C1416 C1423 1.409 . S
C1417 H1409 0.930 . S
C1417 C1415 1.419 . S
C1417 C1418 1.362 . S
C1418 H1410 0.930 . S
C1418 C1417 1.362 . S
C1418 C1421 1.409 . S
C1419 H1411 0.930 . S
C1419 C1420 1.355 . S
C1419 C1421 1.415 . S
C1420 C1419 1.355 . S
C1420 C1422 1.419 . S
C1421 C1416 1.425 . S
C1421 C1418 1.409 . S
C1421 C1419 1.415 . S
C1422 H1412 0.930 . S
C1422 C1420 1.419 . S
C1422 C1423 1.362 . S
C1423 H1413 0.930 . S
C1423 C1416 1.409 . S
C1423 C1422 1.362 . S
H1424 C1430 0.930 . S
H1425 C1433 0.930 . S
H1426 C1434 0.930 . S
H1427 C1435 0.930 . S
H1428 C1438 0.930 . S
H1429 C1439 0.930 . S
C1430 H1424 0.930 . S
C1430 C1431 1.355 . S
C1430 C1432 1.415 . S
C1431 C1430 1.355 . S
C1431 C1433 1.419 . S
C1432 C1430 1.415 . S
C1432 C1437 1.425 . S
C1432 C1439 1.409 . S
C1433 H1425 0.930 . S
C1433 C1431 1.419 . S
C1433 C1434 1.362 . S
C1434 H1426 0.930 . S
C1434 C1433 1.362 . S
C1434 C1437 1.409 . S
C1435 H1427 0.930 . S
C1435 C1436 1.355 . S
C1435 C1437 1.415 . S
C1436 C1435 1.355 . S
C1436 C1438 1.419 . S
C1437 C1432 1.425 . S
C1437 C1434 1.409 . S
C1437 C1435 1.415 . S
C1438 H1428 0.930 . S
C1438 C1436 1.419 . S
C1438 C1439 1.362 . S
C1439 H1429 0.930 . S
C1439 C1432 1.409 . S
C1439 C1438 1.362 . S
H1440 C1446 0.930 . S
H1441 C1449 0.938 . S
H1442 C1450 0.930 1_554 S
H1443 C1451 0.930 . S
H1444 C1454 0.930 . S
H1445 C1455 0.930 . S
C1446 H1440 0.930 . S
C1446 C1447 1.355 . S
C1446 C1448 1.415 . S
C1447 C1446 1.355 . S
C1447 C1449 1.419 . S
C1448 C1446 1.415 . S
C1448 C1453 1.425 . S
C1448 C1455 1.409 . S
C1449 H1441 0.938 . S
C1449 C1447 1.419 . S
C1449 C1450 1.362 . S
C1450 H1442 0.930 1_556 S
C1450 C1449 1.362 . S
C1450 C1453 1.409 . S
C1451 H1443 0.930 . S
C1451 C1452 1.355 . S
C1451 C1453 1.415 . S
C1452 C1451 1.355 . S
C1452 C1454 1.419 . S
C1453 C1448 1.425 . S
C1453 C1450 1.409 . S
C1453 C1451 1.415 . S
C1454 H1444 0.930 . S
C1454 C1452 1.419 . S
C1454 C1455 1.362 . S
C1455 H1445 0.930 . S
C1455 C1448 1.409 . S
C1455 C1454 1.362 . S
H1456 C1462 0.930 . S
H1457 C1465 0.930 . S
H1458 C1466 0.930 . S
H1459 C1467 0.930 . S
H1460 C1470 0.930 . S
H1461 C1471 0.930 . S
C1462 H1456 0.930 . S
C1462 C1463 1.355 . S
C1462 C1464 1.415 . S
C1463 C1462 1.355 . S
C1463 C1465 1.419 . S
C1464 C1462 1.415 . S
C1464 C1469 1.425 . S
C1464 C1471 1.409 . S
C1465 H1457 0.930 . S
C1465 C1463 1.419 . S
C1465 C1466 1.362 . S
C1466 H1458 0.930 . S
C1466 C1465 1.362 . S
C1466 C1469 1.409 . S
C1467 H1459 0.930 . S
C1467 C1468 1.355 . S
C1467 C1469 1.415 . S
C1468 C1467 1.355 . S
C1468 C1470 1.419 . S
C1469 C1464 1.425 . S
C1469 C1466 1.409 . S
C1469 C1467 1.415 . S
C1470 H1460 0.930 . S
C1470 C1468 1.419 . S
C1470 C1471 1.362 . S
C1471 H1461 0.930 . S
C1471 C1464 1.409 . S
C1471 C1470 1.362 . S
H1472 C1478 0.930 . S
H1473 C1481 0.930 . S
H1474 C1482 0.930 . S
H1475 C1483 0.930 . S
H1476 C1486 0.930 . S
H1477 C1487 0.930 . S
C1478 H1472 0.930 . S
C1478 C1479 1.355 . S
C1478 C1480 1.415 . S
C1479 C1478 1.355 . S
C1479 C1481 1.419 . S
C1480 C1478 1.415 . S
C1480 C1485 1.425 . S
C1480 C1487 1.409 . S
C1481 H1473 0.930 . S
C1481 C1479 1.419 . S
C1481 C1482 1.362 . S
C1482 H1474 0.930 . S
C1482 C1481 1.362 . S
C1482 C1485 1.409 . S
C1483 H1475 0.930 . S
C1483 C1484 1.355 . S
C1483 C1485 1.415 . S
C1484 C1483 1.355 . S
C1484 C1486 1.419 . S
C1485 C1480 1.425 . S
C1485 C1482 1.409 . S
C1485 C1483 1.415 . S
C1486 H1476 0.930 . S
C1486 C1484 1.419 . S
C1486 C1487 1.362 . S
C1487 H1477 0.930 . S
C1487 C1480 1.409 . S
C1487 C1486 1.362 . S
H1488 C1494 0.930 . S
H1489 C1497 0.930 . S
H1490 C1498 0.930 . S
H1491 C1499 0.930 . S
H1492 C1502 0.930 . S
H1493 C1503 0.930 . S
C1494 H1488 0.930 . S
C1494 C1495 1.355 . S
C1494 C1496 1.415 . S
C1495 C1494 1.355 . S
C1495 C1497 1.419 . S
C1496 C1494 1.415 . S
C1496 C1501 1.425 . S
C1496 C1503 1.409 . S
C1497 H1489 0.930 . S
C1497 C1495 1.419 . S
C1497 C1498 1.362 . S
C1498 H1490 0.930 . S
C1498 C1497 1.362 . S
C1498 C1501 1.409 . S
C1499 H1491 0.930 . S
C1499 C1500 1.355 . S
C1499 C1501 1.415 . S
C1500 C1499 1.355 . S
C1500 C1502 1.419 . S
C1501 C1496 1.425 . S
C1501 C1498 1.409 . S
C1501 C1499 1.415 . S
C1502 H1492 0.930 . S
C1502 C1500 1.419 . S
C1502 C1503 1.362 . S
C1503 H1493 0.930 . S
C1503 C1496 1.409 . S
C1503 C1502 1.362 . S
H1504 C1510 0.930 . S
H1505 C1513 0.930 . S
H1506 C1514 0.930 . S
H1507 C1515 0.930 . S
H1508 C1518 0.930 . S
H1509 C1519 0.930 . S
C1510 H1504 0.930 . S
C1510 C1511 1.355 . S
C1510 C1512 1.415 . S
C1511 C1510 1.355 . S
C1511 C1513 1.419 . S
C1512 C1510 1.415 . S
C1512 C1517 1.425 . S
C1512 C1519 1.409 . S
C1513 H1505 0.930 . S
C1513 C1511 1.419 . S
C1513 C1514 1.362 . S
C1514 H1506 0.930 . S
C1514 C1513 1.362 . S
C1514 C1517 1.409 . S
C1515 H1507 0.930 . S
C1515 C1516 1.355 . S
C1515 C1517 1.415 . S
C1516 C1515 1.355 . S
C1516 C1518 1.419 . S
C1517 C1512 1.425 . S
C1517 C1514 1.409 . S
C1517 C1515 1.415 . S
C1518 H1508 0.930 . S
C1518 C1516 1.419 . S
C1518 C1519 1.362 . S
C1519 H1509 0.930 . S
C1519 C1512 1.409 . S
C1519 C1518 1.362 . S
H1520 C1526 0.930 . S
H1521 C1529 0.930 . S
H1522 C1530 0.930 . S
H1523 C1531 0.930 . S
H1524 C1534 0.930 . S
H1525 C1535 0.930 . S
C1526 H1520 0.930 . S
C1526 C1527 1.355 . S
C1526 C1528 1.415 . S
C1527 C1526 1.355 . S
C1527 C1529 1.419 . S
C1528 C1526 1.415 . S
C1528 C1533 1.425 . S
C1528 C1535 1.409 . S
C1529 H1521 0.930 . S
C1529 C1527 1.419 . S
C1529 C1530 1.362 . S
C1530 H1522 0.930 . S
C1530 C1529 1.362 . S
C1530 C1533 1.409 . S
C1531 H1523 0.930 . S
C1531 C1532 1.355 . S
C1531 C1533 1.415 . S
C1532 C1531 1.355 . S
C1532 C1534 1.419 . S
C1533 C1528 1.425 . S
C1533 C1530 1.409 . S
C1533 C1531 1.415 . S
C1534 H1524 0.930 . S
C1534 C1532 1.419 . S
C1534 C1535 1.362 . S
C1535 H1525 0.930 . S
C1535 C1528 1.409 . S
C1535 C1534 1.362 . S
H1536 C1542 0.930 . S
H1537 C1545 0.930 . S
H1538 C1546 0.930 . S
H1539 C1547 0.930 . S
H1540 C1550 0.930 . S
H1541 C1551 0.930 . S
C1542 H1536 0.930 . S
C1542 C1543 1.355 . S
C1542 C1544 1.415 . S
C1543 C1542 1.355 . S
C1543 C1545 1.419 . S
C1544 C1542 1.415 . S
C1544 C1549 1.425 . S
C1544 C1551 1.409 . S
C1545 H1537 0.930 . S
C1545 C1543 1.419 . S
C1545 C1546 1.362 . S
C1546 H1538 0.930 . S
C1546 C1545 1.362 . S
C1546 C1549 1.409 . S
C1547 H1539 0.930 . S
C1547 C1548 1.355 . S
C1547 C1549 1.415 . S
C1548 C1547 1.355 . S
C1548 C1550 1.419 . S
C1549 C1544 1.425 . S
C1549 C1546 1.409 . S
C1549 C1547 1.415 . S
C1550 H1540 0.930 . S
C1550 C1548 1.419 . S
C1550 C1551 1.362 . S
C1551 H1541 0.930 . S
C1551 C1544 1.409 . S
C1551 C1550 1.362 . S
H1552 C1558 0.930 . S
H1553 C1561 0.930 . S
H1554 C1562 0.930 . S
H1555 C1563 0.930 . S
H1556 C1566 0.930 . S
H1557 C1567 0.930 . S
C1558 H1552 0.930 . S
C1558 C1559 1.355 . S
C1558 C1560 1.415 . S
C1559 C1558 1.355 . S
C1559 C1561 1.419 . S
C1560 C1558 1.415 . S
C1560 C1565 1.425 . S
C1560 C1567 1.409 . S
C1561 H1553 0.930 . S
C1561 C1559 1.419 . S
C1561 C1562 1.362 . S
C1562 H1554 0.930 . S
C1562 C1561 1.362 . S
C1562 C1565 1.409 . S
C1563 H1555 0.930 . S
C1563 C1564 1.355 . S
C1563 C1565 1.415 . S
C1564 C1563 1.355 . S
C1564 C1566 1.419 . S
C1565 C1560 1.425 . S
C1565 C1562 1.409 . S
C1565 C1563 1.415 . S
C1566 H1556 0.930 . S
C1566 C1564 1.419 . S
C1566 C1567 1.362 . S
C1567 H1557 0.930 . S
C1567 C1560 1.409 . S
C1567 C1566 1.362 . S
H1568 C1574 0.930 . S
H1569 C1577 0.930 . S
H1570 C1578 0.930 . S
H1571 C1579 0.930 . S
H1572 C1582 0.930 . S
H1573 C1583 0.930 . S
C1574 H1568 0.930 . S
C1574 C1575 1.355 . S
C1574 C1576 1.415 . S
C1575 C1574 1.355 . S
C1575 C1577 1.419 . S
C1576 C1574 1.415 . S
C1576 C1581 1.425 . S
C1576 C1583 1.409 . S
C1577 H1569 0.930 . S
C1577 C1575 1.419 . S
C1577 C1578 1.362 . S
C1578 H1570 0.930 . S
C1578 C1577 1.362 . S
C1578 C1581 1.409 . S
C1579 H1571 0.930 . S
C1579 C1580 1.355 . S
C1579 C1581 1.415 . S
C1580 C1579 1.355 . S
C1580 C1582 1.419 . S
C1581 C1576 1.425 . S
C1581 C1578 1.409 . S
C1581 C1579 1.415 . S
C1582 H1572 0.930 . S
C1582 C1580 1.419 . S
C1582 C1583 1.362 . S
C1583 H1573 0.930 . S
C1583 C1576 1.409 . S
C1583 C1582 1.362 . S
H1584 C1590 0.930 . S
H1585 C1593 0.930 . S
H1586 C1594 0.930 . S
H1587 C1595 0.930 . S
H1588 C1598 0.930 . S
H1589 C1599 0.930 . S
C1590 H1584 0.930 . S
C1590 C1591 1.355 . S
C1590 C1592 1.415 . S
C1591 C1590 1.355 . S
C1591 C1593 1.419 . S
C1592 C1590 1.415 . S
C1592 C1597 1.425 . S
C1592 C1599 1.409 . S
C1593 H1585 0.930 . S
C1593 C1591 1.419 . S
C1593 C1594 1.362 . S
C1594 H1586 0.930 . S
C1594 C1593 1.362 . S
C1594 C1597 1.409 . S
C1595 H1587 0.930 . S
C1595 C1596 1.355 . S
C1595 C1597 1.415 . S
C1596 C1595 1.355 . S
C1596 C1598 1.419 . S
C1597 C1592 1.425 . S
C1597 C1594 1.409 . S
C1597 C1595 1.415 . S
C1598 H1588 0.930 . S
C1598 C1596 1.419 . S
C1598 C1599 1.362 . S
C1599 H1589 0.930 . S
C1599 C1592 1.409 . S
C1599 C1598 1.362 . S
H1600 C1606 0.930 . S
H1601 C1609 0.930 . S
H1602 C1610 0.930 . S
H1603 C1611 0.930 . S
H1604 C1614 0.930 . S
H1605 C1615 0.930 . S
C1606 H1600 0.930 . S
C1606 C1607 1.355 . S
C1606 C1608 1.415 . S
C1607 C1606 1.355 . S
C1607 C1609 1.419 . S
C1608 C1606 1.415 . S
C1608 C1613 1.425 . S
C1608 C1615 1.409 . S
C1609 H1601 0.930 . S
C1609 C1607 1.419 . S
C1609 C1610 1.362 . S
C1610 H1602 0.930 . S
C1610 C1609 1.362 . S
C1610 C1613 1.409 . S
C1611 H1603 0.930 . S
C1611 C1612 1.355 . S
C1611 C1613 1.415 . S
C1612 C1611 1.355 . S
C1612 C1614 1.419 . S
C1613 C1608 1.425 . S
C1613 C1610 1.409 . S
C1613 C1611 1.415 . S
C1614 H1604 0.930 . S
C1614 C1612 1.419 . S
C1614 C1615 1.362 . S
C1615 H1605 0.930 . S
C1615 C1608 1.409 . S
C1615 C1614 1.362 . S
H1616 C1622 0.930 . S
H1617 C1625 0.930 . S
H1618 C1626 0.930 . S
H1619 C1627 0.930 . S
H1620 C1630 0.930 . S
H1621 C1631 0.930 . S
C1622 H1616 0.930 . S
C1622 C1623 1.355 . S
C1622 C1624 1.415 . S
C1623 C1622 1.355 . S
C1623 C1625 1.419 . S
C1624 C1622 1.415 . S
C1624 C1629 1.425 . S
C1624 C1631 1.409 . S
C1625 H1617 0.930 . S
C1625 C1623 1.419 . S
C1625 C1626 1.362 . S
C1626 H1618 0.930 . S
C1626 C1625 1.362 . S
C1626 C1629 1.409 . S
C1627 H1619 0.930 . S
C1627 C1628 1.355 . S
C1627 C1629 1.415 . S
C1628 C1627 1.355 . S
C1628 C1630 1.419 . S
C1629 C1624 1.425 . S
C1629 C1626 1.409 . S
C1629 C1627 1.415 . S
C1630 H1620 0.930 . S
C1630 C1628 1.419 . S
C1630 C1631 1.362 . S
C1631 H1621 0.930 . S
C1631 C1624 1.409 . S
C1631 C1630 1.362 . S
H1632 C1638 0.930 . S
H1633 C1641 0.930 . S
H1634 C1642 0.930 . S
H1635 C1643 0.930 . S
H1636 C1646 0.930 . S
H1637 C1647 0.930 . S
C1638 H1632 0.930 . S
C1638 C1639 1.355 . S
C1638 C1640 1.415 . S
C1639 C1638 1.355 . S
C1639 C1641 1.419 . S
C1640 C1638 1.415 . S
C1640 C1645 1.425 . S
C1640 C1647 1.409 . S
C1641 H1633 0.930 . S
C1641 C1639 1.419 . S
C1641 C1642 1.362 . S
C1642 H1634 0.930 . S
C1642 C1641 1.362 . S
C1642 C1645 1.409 . S
C1643 H1635 0.930 . S
C1643 C1644 1.355 . S
C1643 C1645 1.415 . S
C1644 C1643 1.355 . S
C1644 C1646 1.419 . S
C1645 C1640 1.425 . S
C1645 C1642 1.409 . S
C1645 C1643 1.415 . S
C1646 H1636 0.930 . S
C1646 C1644 1.419 . S
C1646 C1647 1.362 . S
C1647 H1637 0.930 . S
C1647 C1640 1.409 . S
C1647 C1646 1.362 . S
H1648 C1654 0.930 . S
H1649 C1657 0.930 . S
H1650 C1658 0.930 . S
H1651 C1659 0.930 . S
H1652 C1662 0.930 . S
H1653 C1663 0.930 . S
C1654 H1648 0.930 . S
C1654 C1655 1.355 . S
C1654 C1656 1.415 . S
C1655 C1654 1.355 . S
C1655 C1657 1.419 . S
C1656 C1654 1.415 . S
C1656 C1661 1.425 . S
C1656 C1663 1.409 . S
C1657 H1649 0.930 . S
C1657 C1655 1.419 . S
C1657 C1658 1.362 . S
C1658 H1650 0.930 . S
C1658 C1657 1.362 . S
C1658 C1661 1.409 . S
C1659 H1651 0.930 . S
C1659 C1660 1.355 . S
C1659 C1661 1.415 . S
C1660 C1659 1.355 . S
C1660 C1662 1.419 . S
C1661 C1656 1.425 . S
C1661 C1658 1.409 . S
C1661 C1659 1.415 . S
C1662 H1652 0.930 . S
C1662 C1660 1.419 . S
C1662 C1663 1.362 . S
C1663 H1653 0.930 . S
C1663 C1656 1.409 . S
C1663 C1662 1.362 . S
H1664 C1670 0.930 . S
H1665 C1673 0.930 . S
H1666 C1674 0.930 . S
H1667 C1675 0.930 . S
H1668 C1678 0.930 . S
H1669 C1679 0.930 . S
C1670 H1664 0.930 . S
C1670 C1671 1.355 . S
C1670 C1672 1.415 . S
C1671 C1670 1.355 . S
C1671 C1673 1.419 . S
C1672 C1670 1.415 . S
C1672 C1677 1.425 . S
C1672 C1679 1.409 . S
C1673 H1665 0.930 . S
C1673 C1671 1.419 . S
C1673 C1674 1.362 . S
C1674 H1666 0.930 . S
C1674 C1673 1.362 . S
C1674 C1677 1.409 . S
C1675 H1667 0.930 . S
C1675 C1676 1.355 . S
C1675 C1677 1.415 . S
C1676 C1675 1.355 . S
C1676 C1678 1.419 . S
C1677 C1672 1.425 . S
C1677 C1674 1.409 . S
C1677 C1675 1.415 . S
C1678 H1668 0.930 . S
C1678 C1676 1.419 . S
C1678 C1679 1.362 . S
C1679 H1669 0.930 . S
C1679 C1672 1.409 . S
C1679 C1678 1.362 . S
H1680 C1686 0.930 . S
H1681 C1689 0.930 . S
H1682 C1690 0.930 . S
H1683 C1691 0.930 . S
H1684 C1694 0.930 . S
H1685 C1695 0.930 . S
C1686 H1680 0.930 . S
C1686 C1687 1.355 . S
C1686 C1688 1.415 . S
C1687 C1686 1.355 . S
C1687 C1689 1.419 . S
C1688 C1686 1.415 . S
C1688 C1693 1.425 . S
C1688 C1695 1.409 . S
C1689 H1681 0.930 . S
C1689 C1687 1.419 . S
C1689 C1690 1.362 . S
C1690 H1682 0.930 . S
C1690 C1689 1.362 . S
C1690 C1693 1.409 . S
C1691 H1683 0.930 . S
C1691 C1692 1.355 . S
C1691 C1693 1.415 . S
C1692 C1691 1.355 . S
C1692 C1694 1.419 . S
C1693 C1688 1.425 . S
C1693 C1690 1.409 . S
C1693 C1691 1.415 . S
C1694 H1684 0.930 . S
C1694 C1692 1.419 . S
C1694 C1695 1.362 . S
C1695 H1685 0.930 . S
C1695 C1688 1.409 . S
C1695 C1694 1.362 . S
H1696 C1702 0.930 . S
H1697 C1705 0.930 . S
H1698 C1706 0.930 . S
H1699 C1707 0.930 . S
H1700 C1710 0.930 . S
H1701 C1711 0.930 . S
C1702 H1696 0.930 . S
C1702 C1703 1.355 . S
C1702 C1704 1.415 . S
C1703 C1702 1.355 . S
C1703 C1705 1.419 . S
C1704 C1702 1.415 . S
C1704 C1709 1.425 . S
C1704 C1711 1.409 . S
C1705 H1697 0.930 . S
C1705 C1703 1.419 . S
C1705 C1706 1.362 . S
C1706 H1698 0.930 . S
C1706 C1705 1.362 . S
C1706 C1709 1.409 . S
C1707 H1699 0.930 . S
C1707 C1708 1.355 . S
C1707 C1709 1.415 . S
C1708 C1707 1.355 . S
C1708 C1710 1.419 . S
C1709 C1704 1.425 . S
C1709 C1706 1.409 . S
C1709 C1707 1.415 . S
C1710 H1700 0.930 . S
C1710 C1708 1.419 . S
C1710 C1711 1.362 . S
C1711 H1701 0.930 . S
C1711 C1704 1.409 . S
C1711 C1710 1.362 . S
H1712 C1718 0.930 . S
H1713 C1721 0.930 . S
H1714 C1722 0.930 . S
H1715 C1723 0.930 . S
H1716 C1726 0.930 . S
H1717 C1727 0.930 . S
C1718 H1712 0.930 . S
C1718 C1719 1.355 . S
C1718 C1720 1.415 . S
C1719 C1718 1.355 . S
C1719 C1721 1.419 . S
C1720 C1718 1.415 . S
C1720 C1725 1.425 . S
C1720 C1727 1.409 . S
C1721 H1713 0.930 . S
C1721 C1719 1.419 . S
C1721 C1722 1.362 . S
C1722 H1714 0.930 . S
C1722 C1721 1.362 . S
C1722 C1725 1.409 . S
C1723 H1715 0.930 . S
C1723 C1724 1.355 . S
C1723 C1725 1.415 . S
C1724 C1723 1.355 . S
C1724 C1726 1.419 . S
C1725 C1720 1.425 . S
C1725 C1722 1.409 . S
C1725 C1723 1.415 . S
C1726 H1716 0.930 . S
C1726 C1724 1.419 . S
C1726 C1727 1.362 . S
C1727 H1717 0.930 . S
C1727 C1720 1.409 . S
C1727 C1726 1.362 . S
H1728 C1734 0.930 . S
H1729 C1737 0.930 . S
H1730 C1738 0.930 . S
H1731 C1739 0.930 . S
H1732 C1742 0.930 . S
H1733 C1743 0.930 . S
C1734 H1728 0.930 . S
C1734 C1735 1.355 . S
C1734 C1736 1.415 . S
C1735 C1734 1.355 . S
C1735 C1737 1.419 . S
C1736 C1734 1.415 . S
C1736 C1741 1.425 . S
C1736 C1743 1.409 . S
C1737 H1729 0.930 . S
C1737 C1735 1.419 . S
C1737 C1738 1.362 . S
C1738 H1730 0.930 . S
C1738 C1737 1.362 . S
C1738 C1741 1.409 . S
C1739 H1731 0.930 . S
C1739 C1740 1.355 . S
C1739 C1741 1.415 . S
C1740 C1739 1.355 . S
C1740 C1742 1.419 . S
C1741 C1736 1.425 . S
C1741 C1738 1.409 . S
C1741 C1739 1.415 . S
C1742 H1732 0.930 . S
C1742 C1740 1.419 . S
C1742 C1743 1.362 . S
C1743 H1733 0.930 . S
C1743 C1736 1.409 . S
C1743 C1742 1.362 . S
H1744 C1750 0.930 . S
H1745 C1753 0.930 . S
H1746 C1754 0.930 . S
H1747 C1755 0.930 . S
H1748 C1758 0.930 . S
H1749 C1759 0.930 . S
C1750 H1744 0.930 . S
C1750 C1751 1.355 . S
C1750 C1752 1.415 . S
C1751 C1750 1.355 . S
C1751 C1753 1.419 . S
C1752 C1750 1.415 . S
C1752 C1757 1.425 . S
C1752 C1759 1.409 . S
C1753 H1745 0.930 . S
C1753 C1751 1.419 . S
C1753 C1754 1.362 . S
C1754 H1746 0.930 . S
C1754 C1753 1.362 . S
C1754 C1757 1.409 . S
C1755 H1747 0.930 . S
C1755 C1756 1.355 . S
C1755 C1757 1.415 . S
C1756 C1755 1.355 . S
C1756 C1758 1.419 . S
C1757 C1752 1.425 . S
C1757 C1754 1.409 . S
C1757 C1755 1.415 . S
C1758 H1748 0.930 . S
C1758 C1756 1.419 . S
C1758 C1759 1.362 . S
C1759 H1749 0.930 . S
C1759 C1752 1.409 . S
C1759 C1758 1.362 . S
H1760 C1766 0.930 . S
H1761 C1769 0.930 . S
H1762 C1770 0.930 . S
H1763 C1771 0.930 . S
H1764 C1774 0.930 . S
H1765 C1775 0.930 . S
C1766 H1760 0.930 . S
C1766 C1767 1.355 . S
C1766 C1768 1.415 . S
C1767 C1766 1.355 . S
C1767 C1769 1.419 . S
C1768 C1766 1.415 . S
C1768 C1773 1.425 . S
C1768 C1775 1.409 . S
C1769 H1761 0.930 . S
C1769 C1767 1.419 . S
C1769 C1770 1.362 . S
C1770 H1762 0.930 . S
C1770 C1769 1.362 . S
C1770 C1773 1.409 . S
C1771 H1763 0.930 . S
C1771 C1772 1.355 . S
C1771 C1773 1.415 . S
C1772 C1771 1.355 . S
C1772 C1774 1.419 . S
C1773 C1768 1.425 . S
C1773 C1770 1.409 . S
C1773 C1771 1.415 . S
C1774 H1764 0.930 . S
C1774 C1772 1.419 . S
C1774 C1775 1.362 . S
C1775 H1765 0.930 . S
C1775 C1768 1.409 . S
C1775 C1774 1.362 . S
H1776 C1782 0.930 . S
H1777 C1785 0.930 . S
H1778 C1786 0.930 . S
H1779 C1787 0.930 . S
H1780 C1790 0.930 . S
H1781 C1791 0.930 . S
C1782 H1776 0.930 . S
C1782 C1783 1.355 . S
C1782 C1784 1.415 . S
C1783 C1782 1.355 . S
C1783 C1785 1.419 . S
C1784 C1782 1.415 . S
C1784 C1789 1.425 . S
C1784 C1791 1.409 . S
C1785 H1777 0.930 . S
C1785 C1783 1.419 . S
C1785 C1786 1.362 . S
C1786 H1778 0.930 . S
C1786 C1785 1.362 . S
C1786 C1789 1.409 . S
C1787 H1779 0.930 . S
C1787 C1788 1.355 . S
C1787 C1789 1.415 . S
C1788 C1787 1.355 . S
C1788 C1790 1.419 . S
C1789 C1784 1.425 . S
C1789 C1786 1.409 . S
C1789 C1787 1.415 . S
C1790 H1780 0.930 . S
C1790 C1788 1.419 . S
C1790 C1791 1.362 . S
C1791 H1781 0.930 . S
C1791 C1784 1.409 . S
C1791 C1790 1.362 . S
H1792 C1798 0.930 . S
H1793 C1801 0.930 . S
H1794 C1802 0.930 . S
H1795 C1803 0.930 . S
H1796 C1806 0.930 . S
H1797 C1807 0.930 . S
C1798 H1792 0.930 . S
C1798 C1799 1.355 . S
C1798 C1800 1.415 . S
C1799 C1798 1.355 . S
C1799 C1801 1.419 . S
C1800 C1798 1.415 . S
C1800 C1805 1.425 . S
C1800 C1807 1.409 . S
C1801 H1793 0.930 . S
C1801 C1799 1.419 . S
C1801 C1802 1.362 . S
C1802 H1794 0.930 . S
C1802 C1801 1.362 . S
C1802 C1805 1.409 . S
C1803 H1795 0.930 . S
C1803 C1804 1.355 . S
C1803 C1805 1.415 . S
C1804 C1803 1.355 . S
C1804 C1806 1.419 . S
C1805 C1800 1.425 . S
C1805 C1802 1.409 . S
C1805 C1803 1.415 . S
C1806 H1796 0.930 . S
C1806 C1804 1.419 . S
C1806 C1807 1.362 . S
C1807 H1797 0.930 . S
C1807 C1800 1.409 . S
C1807 C1806 1.362 . S
H1808 C1814 0.930 . S
H1809 C1817 0.930 . S
H1810 C1818 0.930 . S
H1811 C1819 0.930 . S
H1812 C1822 0.930 . S
H1813 C1823 0.930 . S
C1814 H1808 0.930 . S
C1814 C1815 1.355 . S
C1814 C1816 1.415 . S
C1815 C1814 1.355 . S
C1815 C1817 1.419 . S
C1816 C1814 1.415 . S
C1816 C1821 1.425 . S
C1816 C1823 1.409 . S
C1817 H1809 0.930 . S
C1817 C1815 1.419 . S
C1817 C1818 1.362 . S
C1818 H1810 0.930 . S
C1818 C1817 1.362 . S
C1818 C1821 1.409 . S
C1819 H1811 0.930 . S
C1819 C1820 1.355 . S
C1819 C1821 1.415 . S
C1820 C1819 1.355 . S
C1820 C1822 1.419 . S
C1821 C1816 1.425 . S
C1821 C1818 1.409 . S
C1821 C1819 1.415 . S
C1822 H1812 0.930 . S
C1822 C1820 1.419 . S
C1822 C1823 1.362 . S
C1823 H1813 0.930 . S
C1823 C1816 1.409 . S
C1823 C1822 1.362 . S
H1824 C1830 0.930 . S
H1825 C1833 0.930 . S
H1826 C1834 0.930 . S
H1827 C1835 0.930 . S
H1828 C1838 0.930 . S
H1829 C1839 0.930 . S
C1830 H1824 0.930 . S
C1830 C1831 1.355 . S
C1830 C1832 1.415 . S
C1831 C1830 1.355 . S
C1831 C1833 1.419 . S
C1832 C1830 1.415 . S
C1832 C1837 1.425 . S
C1832 C1839 1.409 . S
C1833 H1825 0.930 . S
C1833 C1831 1.419 . S
C1833 C1834 1.362 . S
C1834 H1826 0.930 . S
C1834 C1833 1.362 . S
C1834 C1837 1.409 . S
C1835 H1827 0.930 . S
C1835 C1836 1.355 . S
C1835 C1837 1.415 . S
C1836 C1835 1.355 . S
C1836 C1838 1.419 . S
C1837 C1832 1.425 . S
C1837 C1834 1.409 . S
C1837 C1835 1.415 . S
C1838 H1828 0.930 . S
C1838 C1836 1.419 . S
C1838 C1839 1.362 . S
C1839 H1829 0.930 . S
C1839 C1832 1.409 . S
C1839 C1838 1.362 . S
H1840 C1846 0.930 . S
H1841 C1849 0.930 . S
H1842 C1850 0.930 . S
H1843 C1851 0.930 . S
H1844 C1854 0.930 . S
H1845 C1855 0.930 . S
C1846 H1840 0.930 . S
C1846 C1847 1.355 . S
C1846 C1848 1.415 . S
C1847 C1846 1.355 . S
C1847 C1849 1.419 . S
C1848 C1846 1.415 . S
C1848 C1853 1.425 . S
C1848 C1855 1.409 . S
C1849 H1841 0.930 . S
C1849 C1847 1.419 . S
C1849 C1850 1.362 . S
C1850 H1842 0.930 . S
C1850 C1849 1.362 . S
C1850 C1853 1.409 . S
C1851 H1843 0.930 . S
C1851 C1852 1.355 . S
C1851 C1853 1.415 . S
C1852 C1851 1.355 . S
C1852 C1854 1.419 . S
C1853 C1848 1.425 . S
C1853 C1850 1.409 . S
C1853 C1851 1.415 . S
C1854 H1844 0.930 . S
C1854 C1852 1.419 . S
C1854 C1855 1.362 . S
C1855 H1845 0.930 . S
C1855 C1848 1.409 . S
C1855 C1854 1.362 . S
H1856 C1862 0.930 . S
H1857 C1865 0.930 . S
H1858 C1866 0.930 . S
H1859 C1867 0.930 . S
H1860 C1870 0.930 . S
H1861 C1871 0.930 . S
C1862 H1856 0.930 . S
C1862 C1863 1.355 . S
C1862 C1864 1.415 . S
C1863 C1862 1.355 . S
C1863 C1865 1.419 . S
C1864 C1862 1.415 . S
C1864 C1869 1.425 . S
C1864 C1871 1.409 . S
C1865 H1857 0.930 . S
C1865 C1863 1.419 . S
C1865 C1866 1.362 . S
C1866 H1858 0.930 . S
C1866 C1865 1.362 . S
C1866 C1869 1.409 . S
C1867 H1859 0.930 . S
C1867 C1868 1.355 . S
C1867 C1869 1.415 . S
C1868 C1867 1.355 . S
C1868 C1870 1.419 . S
C1869 C1864 1.425 . S
C1869 C1866 1.409 . S
C1869 C1867 1.415 . S
C1870 H1860 0.930 . S
C1870 C1868 1.419 . S
C1870 C1871 1.362 . S
C1871 H1861 0.930 . S
C1871 C1864 1.409 . S
C1871 C1870 1.362 . S
H1872 C1878 0.930 . S
H1873 C1881 0.930 . S
H1874 C1882 0.930 . S
H1875 C1883 0.930 . S
H1876 C1886 0.930 . S
H1877 C1887 0.930 . S
C1878 H1872 0.930 . S
C1878 C1879 1.355 . S
C1878 C1880 1.415 . S
C1879 C1878 1.355 . S
C1879 C1881 1.419 1_455 S
C1880 C1878 1.415 . S
C1880 C1885 1.425 1_455 S
C1880 C1887 1.409 . S
C1881 H1873 0.930 . S
C1881 C1879 1.419 1_655 S
C1881 C1882 1.362 . S
C1882 H1874 0.930 . S
C1882 C1881 1.362 . S
C1882 C1885 1.409 . S
C1883 H1875 0.930 . S
C1883 C1884 1.355 . S
C1883 C1885 1.415 . S
C1884 C1883 1.355 . S
C1884 C1886 1.419 1_655 S
C1885 C1880 1.425 1_655 S
C1885 C1882 1.409 . S
C1885 C1883 1.415 . S
C1886 H1876 0.930 . S
C1886 C1884 1.419 1_455 S
C1886 C1887 1.362 . S
C1887 H1877 0.930 . S
C1887 C1880 1.409 . S
C1887 C1886 1.362 . S
H1888 C1894 0.930 . S
H1889 C1897 0.930 . S
H1890 C1898 0.930 . S
H1891 C1899 0.930 . S
H1892 C1902 0.930 . S
H1893 C1903 0.930 . S
C1894 H1888 0.930 . S
C1894 C1895 1.355 . S
C1894 C1896 1.415 . S
C1895 C1894 1.355 . S
C1895 C1897 1.419 . S
C1896 C1894 1.415 . S
C1896 C1901 1.425 . S
C1896 C1903 1.409 . S
C1897 H1889 0.930 . S
C1897 C1895 1.419 . S
C1897 C1898 1.362 . S
C1898 H1890 0.930 . S
C1898 C1897 1.362 . S
C1898 C1901 1.409 . S
C1899 H1891 0.930 . S
C1899 C1900 1.355 . S
C1899 C1901 1.415 . S
C1900 C1899 1.355 . S
C1900 C1902 1.419 . S
C1901 C1896 1.425 . S
C1901 C1898 1.409 . S
C1901 C1899 1.415 . S
C1902 H1892 0.930 . S
C1902 C1900 1.419 . S
C1902 C1903 1.362 . S
C1903 H1893 0.930 . S
C1903 C1896 1.409 . S
C1903 C1902 1.362 . S
H1904 C1910 0.930 . S
H1905 C1913 0.930 . S
H1906 C1914 0.930 . S
H1907 C1915 0.930 . S
H1908 C1918 0.930 . S
H1909 C1919 0.930 . S
C1910 H1904 0.930 . S
C1910 C1911 1.355 . S
C1910 C1912 1.415 . S
C1911 C1910 1.355 . S
C1911 C1913 1.419 . S
C1912 C1910 1.415 . S
C1912 C1917 1.425 . S
C1912 C1919 1.409 1_455 S
C1913 H1905 0.930 . S
C1913 C1911 1.419 . S
C1913 C1914 1.362 . S
C1914 H1906 0.930 . S
C1914 C1913 1.362 . S
C1914 C1917 1.409 . S
C1915 H1907 0.930 . S
C1915 C1916 1.355 . S
C1915 C1917 1.415 1_655 S
C1916 C1915 1.355 . S
C1916 C1918 1.419 . S
C1917 C1912 1.425 . S
C1917 C1914 1.409 . S
C1917 C1915 1.415 1_455 S
C1918 H1908 0.930 . S
C1918 C1916 1.419 . S
C1918 C1919 1.362 . S
C1919 H1909 0.930 . S
C1919 C1912 1.409 1_655 S
C1919 C1918 1.362 . S
H1920 C1926 0.930 . S
H1921 C1929 0.930 . S
H1922 C1930 0.930 . S
H1923 C1931 0.930 . S
H1924 C1934 0.930 . S
H1925 C1935 0.930 . S
C1926 H1920 0.930 . S
C1926 C1927 1.355 . S
C1926 C1928 1.415 . S
C1927 C1926 1.355 . S
C1927 C1929 1.419 . S
C1928 C1926 1.415 . S
C1928 C1933 1.425 . S
C1928 C1935 1.409 . S
C1929 H1921 0.930 . S
C1929 C1927 1.419 . S
C1929 C1930 1.362 . S
C1930 H1922 0.930 . S
C1930 C1929 1.362 . S
C1930 C1933 1.409 . S
C1931 H1923 0.930 . S
C1931 C1932 1.355 . S
C1931 C1933 1.415 . S
C1932 C1931 1.355 . S
C1932 C1934 1.419 . S
C1933 C1928 1.425 . S
C1933 C1930 1.409 . S
C1933 C1931 1.415 . S
C1934 H1924 0.930 . S
C1934 C1932 1.419 . S
C1934 C1935 1.362 . S
C1935 H1925 0.930 . S
C1935 C1928 1.409 . S
C1935 C1934 1.362 . S
H1936 C1942 0.930 . S
H1937 C1945 0.930 . S
H1938 C1946 0.930 . S
H1939 C1947 0.930 . S
H1940 C1950 0.930 . S
H1941 C1951 0.930 . S
C1942 H1936 0.930 . S
C1942 C1943 1.355 1_655 S
C1942 C1944 1.415 . S
C1943 C1942 1.355 1_455 S
C1943 C1945 1.419 . S
C1944 C1942 1.415 . S
C1944 C1949 1.425 1_655 S
C1944 C1951 1.409 . S
C1945 H1937 0.930 . S
C1945 C1943 1.419 . S
C1945 C1946 1.362 . S
C1946 H1938 0.930 . S
C1946 C1945 1.362 . S
C1946 C1949 1.409 . S
C1947 H1939 0.930 . S
C1947 C1948 1.355 1_455 S
C1947 C1949 1.415 . S
C1948 C1947 1.355 1_655 S
C1948 C1950 1.419 . S
C1949 C1944 1.425 1_455 S
C1949 C1946 1.409 . S
C1949 C1947 1.415 . S
C1950 H1940 0.930 . S
C1950 C1948 1.419 . S
C1950 C1951 1.362 . S
C1951 H1941 0.930 . S
C1951 C1944 1.409 . S
C1951 C1950 1.362 . S
H1952 C1958 0.930 . S
H1953 C1961 0.930 . S
H1954 C1962 0.930 . S
H1955 C1963 0.930 . S
H1956 C1966 0.930 . S
H1957 C1967 0.930 . S
C1958 H1952 0.930 . S
C1958 C1959 1.355 . S
C1958 C1960 1.415 . S
C1959 C1958 1.355 . S
C1959 C1961 1.419 . S
C1960 C1958 1.415 . S
C1960 C1965 1.425 . S
C1960 C1967 1.409 . S
C1961 H1953 0.930 . S
C1961 C1959 1.419 . S
C1961 C1962 1.362 . S
C1962 H1954 0.930 . S
C1962 C1961 1.362 . S
C1962 C1965 1.409 . S
C1963 H1955 0.930 . S
C1963 C1964 1.355 . S
C1963 C1965 1.415 . S
C1964 C1963 1.355 . S
C1964 C1966 1.419 . S
C1965 C1960 1.425 . S
C1965 C1962 1.409 . S
C1965 C1963 1.415 . S
C1966 H1956 0.930 . S
C1966 C1964 1.419 . S
C1966 C1967 1.362 . S
C1967 H1957 0.930 . S
C1967 C1960 1.409 . S
C1967 C1966 1.362 . S
H1968 C1974 0.930 . S
H1969 C1977 0.930 . S
H1970 C1978 0.930 . S
H1971 C1979 0.930 . S
H1972 C1982 0.930 . S
H1973 C1983 0.930 . S
C1974 H1968 0.930 . S
C1974 C1975 1.355 . S
C1974 C1976 1.415 1_455 S
C1975 C1974 1.355 . S
C1975 C1977 1.419 . S
C1976 C1974 1.415 1_655 S
C1976 C1981 1.425 . S
C1976 C1983 1.409 . S
C1977 H1969 0.930 . S
C1977 C1975 1.419 . S
C1977 C1978 1.362 1_455 S
C1978 H1970 0.930 . S
C1978 C1977 1.362 1_655 S
C1978 C1981 1.409 . S
C1979 H1971 0.930 . S
C1979 C1980 1.355 . S
C1979 C1981 1.415 . S
C1980 C1979 1.355 . S
C1980 C1982 1.419 . S
C1981 C1976 1.425 . S
C1981 C1978 1.409 . S
C1981 C1979 1.415 . S
C1982 H1972 0.930 . S
C1982 C1980 1.419 . S
C1982 C1983 1.362 . S
C1983 H1973 0.930 . S
C1983 C1976 1.409 . S
C1983 C1982 1.362 . S
H1984 C1990 0.930 . S
H1985 C1993 0.930 . S
H1986 C1994 0.930 . S
H1987 C1995 0.930 . S
H1988 C1998 0.930 . S
H1989 C1999 0.930 . S
C1990 H1984 0.930 . S
C1990 C1991 1.355 . S
C1990 C1992 1.415 . S
C1991 C1990 1.355 . S
C1991 C1993 1.419 . S
C1992 C1990 1.415 . S
C1992 C1997 1.425 . S
C1992 C1999 1.409 . S
C1993 H1985 0.930 . S
C1993 C1991 1.419 . S
C1993 C1994 1.362 . S
C1994 H1986 0.930 . S
C1994 C1993 1.362 . S
C1994 C1997 1.409 . S
C1995 H1987 0.930 . S
C1995 C1996 1.355 . S
C1995 C1997 1.415 . S
C1996 C1995 1.355 . S
C1996 C1998 1.419 . S
C1997 C1992 1.425 . S
C1997 C1994 1.409 . S
C1997 C1995 1.415 . S
C1998 H1988 0.930 . S
C1998 C1996 1.419 . S
C1998 C1999 1.362 . S
C1999 H1989 0.930 . S
C1999 C1992 1.409 . S
C1999 C1998 1.362 . S
H2000 C2006 0.930 . S
H2001 C2009 0.930 . S
H2002 C2010 0.930 . S
H2003 C2011 0.930 . S
H2004 C2014 0.930 . S
H2005 C2015 0.930 . S
C2006 H2000 0.930 . S
C2006 C2007 1.355 1_655 S
C2006 C2008 1.415 . S
C2007 C2006 1.355 1_455 S
C2007 C2009 1.419 . S
C2008 C2006 1.415 . S
C2008 C2013 1.425 1_655 S
C2008 C2015 1.409 . S
C2009 H2001 0.930 . S
C2009 C2007 1.419 . S
C2009 C2010 1.362 . S
C2010 H2002 0.930 . S
C2010 C2009 1.362 . S
C2010 C2013 1.409 . S
C2011 H2003 0.930 . S
C2011 C2012 1.355 1_455 S
C2011 C2013 1.415 . S
C2012 C2011 1.355 1_655 S
C2012 C2014 1.419 . S
C2013 C2008 1.425 1_455 S
C2013 C2010 1.409 . S
C2013 C2011 1.415 . S
C2014 H2004 0.930 . S
C2014 C2012 1.419 . S
C2014 C2015 1.362 . S
C2015 H2005 0.930 . S
C2015 C2008 1.409 . S
C2015 C2014 1.362 . S
H2016 C2022 0.930 . S
H2017 C2025 0.930 . S
H2018 C2026 0.930 . S
H2019 C2027 0.930 . S
H2020 C2030 0.930 . S
H2021 C2031 0.930 . S
C2022 H2016 0.930 . S
C2022 C2023 1.355 . S
C2022 C2024 1.415 . S
C2023 C2022 1.355 . S
C2023 C2025 1.419 . S
C2024 C2022 1.415 . S
C2024 C2029 1.425 . S
C2024 C2031 1.409 . S
C2025 H2017 0.930 . S
C2025 C2023 1.419 . S
C2025 C2026 1.362 . S
C2026 H2018 0.930 . S
C2026 C2025 1.362 . S
C2026 C2029 1.409 . S
C2027 H2019 0.930 . S
C2027 C2028 1.355 . S
C2027 C2029 1.415 . S
C2028 C2027 1.355 . S
C2028 C2030 1.419 . S
C2029 C2024 1.425 . S
C2029 C2026 1.409 . S
C2029 C2027 1.415 . S
C2030 H2020 0.930 . S
C2030 C2028 1.419 . S
C2030 C2031 1.362 . S
C2031 H2021 0.930 . S
C2031 C2024 1.409 . S
C2031 C2030 1.362 . S
H2032 C2038 0.930 . S
H2033 C2041 0.930 . S
H2034 C2042 0.930 . S
H2035 C2043 0.930 . S
H2036 C2046 0.930 . S
H2037 C2047 0.924 1_655 S
C2038 H2032 0.930 . S
C2038 C2039 1.355 . S
C2038 C2040 1.406 1_655 S
C2039 C2038 1.355 . S
C2039 C2041 1.419 . S
C2040 C2038 1.406 1_455 S
C2040 C2045 1.432 . S
C2040 C2047 1.412 . S
C2041 H2033 0.930 . S
C2041 C2039 1.419 . S
C2041 C2042 1.362 1_655 S
C2042 H2034 0.930 . S
C2042 C2041 1.362 1_455 S
C2042 C2045 1.409 . S
C2043 H2035 0.930 . S
C2043 C2044 1.355 . S
C2043 C2045 1.415 . S
C2044 C2043 1.355 . S
C2044 C2046 1.419 . S
C2045 C2040 1.432 . S
C2045 C2042 1.409 . S
C2045 C2043 1.415 . S
C2046 H2036 0.930 . S
C2046 C2044 1.419 . S
C2046 C2047 1.362 . S
C2047 H2037 0.924 1_455 S
C2047 C2040 1.412 . S
C2047 C2046 1.362 . S
H2048 C2054 0.930 . S
H2049 C2057 0.930 . S
H2050 C2058 0.930 . S
H2051 C2059 0.930 . S
H2052 C2062 0.930 . S
H2053 C2063 0.930 . S
C2054 H2048 0.930 . S
C2054 C2055 1.355 . S
C2054 C2056 1.415 . S
C2055 C2054 1.355 . S
C2055 C2057 1.419 . S
C2056 C2054 1.415 . S
C2056 C2061 1.425 . S
C2056 C2063 1.409 . S
C2057 H2049 0.930 . S
C2057 C2055 1.419 . S
C2057 C2058 1.362 . S
C2058 H2050 0.930 . S
C2058 C2057 1.362 . S
C2058 C2061 1.409 . S
C2059 H2051 0.930 . S
C2059 C2060 1.355 . S
C2059 C2061 1.415 . S
C2060 C2059 1.355 . S
C2060 C2062 1.419 . S
C2061 C2056 1.425 . S
C2061 C2058 1.409 . S
C2061 C2059 1.415 . S
C2062 H2052 0.930 . S
C2062 C2060 1.419 . S
C2062 C2063 1.362 . S
C2063 H2053 0.930 . S
C2063 C2056 1.409 . S
C2063 C2062 1.362 . S
H2064 C2070 0.930 . S
H2065 C2073 0.930 . S
H2066 C2074 0.930 . S
H2067 C2075 0.930 . S
H2068 C2078 0.930 . S
H2069 C2079 0.930 . S
C2070 H2064 0.930 . S
C2070 C2071 1.355 . S
C2070 C2072 1.415 . S
C2071 C2070 1.355 . S
C2071 C2073 1.419 1_455 S
C2072 C2070 1.415 . S
C2072 C2077 1.425 1_455 S
C2072 C2079 1.409 . S
C2073 H2065 0.930 . S
C2073 C2071 1.419 1_655 S
C2073 C2074 1.362 . S
C2074 H2066 0.930 . S
C2074 C2073 1.362 . S
C2074 C2077 1.409 . S
C2075 H2067 0.930 . S
C2075 C2076 1.355 . S
C2075 C2077 1.415 . S
C2076 C2075 1.355 . S
C2076 C2078 1.419 1_655 S
C2077 C2072 1.425 1_655 S
C2077 C2074 1.409 . S
C2077 C2075 1.415 . S
C2078 H2068 0.930 . S
C2078 C2076 1.419 1_455 S
C2078 C2079 1.362 . S
C2079 H2069 0.930 . S
C2079 C2072 1.409 . S
C2079 C2078 1.362 . S
H2080 C2086 0.930 . S
H2081 C2089 0.930 . S
H2082 C2090 0.930 . S
H2083 C2091 0.930 . S
H2084 C2094 0.930 . S
H2085 C2095 0.930 . S
C2086 H2080 0.930 . S
C2086 C2087 1.355 . S
C2086 C2088 1.415 . S
C2087 C2086 1.355 . S
C2087 C2089 1.419 . S
C2088 C2086 1.415 . S
C2088 C2093 1.425 . S
C2088 C2095 1.409 . S
C2089 H2081 0.930 . S
C2089 C2087 1.419 . S
C2089 C2090 1.362 . S
C2090 H2082 0.930 . S
C2090 C2089 1.362 . S
C2090 C2093 1.409 . S
C2091 H2083 0.930 . S
C2091 C2092 1.355 . S
C2091 C2093 1.415 . S
C2092 C2091 1.355 . S
C2092 C2094 1.419 . S
C2093 C2088 1.425 . S
C2093 C2090 1.409 . S
C2093 C2091 1.415 . S
C2094 H2084 0.930 . S
C2094 C2092 1.419 . S
C2094 C2095 1.362 . S
C2095 H2085 0.930 . S
C2095 C2088 1.409 . S
C2095 C2094 1.362 . S
H2096 C2102 0.930 . S
H2097 C2105 0.930 . S
H2098 C2106 0.930 . S
H2099 C2107 0.930 . S
H2100 C2110 0.930 . S
H2101 C2111 0.930 . S
C2102 H2096 0.930 . S
C2102 C2103 1.355 . S
C2102 C2104 1.415 . S
C2103 C2102 1.355 . S
C2103 C2105 1.419 1_655 S
C2104 C2102 1.415 . S
C2104 C2109 1.425 1_655 S
C2104 C2111 1.409 . S
C2105 H2097 0.930 . S
C2105 C2103 1.419 1_455 S
C2105 C2106 1.362 . S
C2106 H2098 0.930 . S
C2106 C2105 1.362 . S
C2106 C2109 1.409 . S
C2107 H2099 0.930 . S
C2107 C2108 1.355 . S
C2107 C2109 1.415 . S
C2108 C2107 1.355 . S
C2108 C2110 1.419 1_455 S
C2109 C2104 1.425 1_455 S
C2109 C2106 1.409 . S
C2109 C2107 1.415 . S
C2110 H2100 0.930 . S
C2110 C2108 1.419 1_655 S
C2110 C2111 1.362 . S
C2111 H2101 0.930 . S
C2111 C2104 1.409 . S
C2111 C2110 1.362 . S
H2112 C2118 0.930 . S
H2113 C2121 0.930 . S
H2114 C2122 0.930 . S
H2115 C2123 0.930 . S
H2116 C2126 0.930 . S
H2117 C2127 0.930 . S
C2118 H2112 0.930 . S
C2118 C2119 1.355 . S
C2118 C2120 1.415 . S
C2119 C2118 1.355 . S
C2119 C2121 1.419 . S
C2120 C2118 1.415 . S
C2120 C2125 1.425 . S
C2120 C2127 1.409 . S
C2121 H2113 0.930 . S
C2121 C2119 1.419 . S
C2121 C2122 1.362 . S
C2122 H2114 0.930 . S
C2122 C2121 1.362 . S
C2122 C2125 1.409 . S
C2123 H2115 0.930 . S
C2123 C2124 1.355 . S
C2123 C2125 1.415 . S
C2124 C2123 1.355 . S
C2124 C2126 1.419 . S
C2125 C2120 1.425 . S
C2125 C2122 1.409 . S
C2125 C2123 1.415 . S
C2126 H2116 0.930 . S
C2126 C2124 1.419 . S
C2126 C2127 1.362 . S
C2127 H2117 0.930 . S
C2127 C2120 1.409 . S
C2127 C2126 1.362 . S
H2128 C2134 0.930 . S
H2129 C2137 0.930 . S
H2130 C2138 0.930 . S
H2131 C2139 0.930 . S
H2132 C2142 0.930 . S
H2133 C2143 0.930 . S
C2134 H2128 0.930 . S
C2134 C2135 1.355 . S
C2134 C2136 1.415 . S
C2135 C2134 1.355 . S
C2135 C2137 1.419 . S
C2136 C2134 1.415 . S
C2136 C2141 1.425 . S
C2136 C2143 1.409 . S
C2137 H2129 0.930 . S
C2137 C2135 1.419 . S
C2137 C2138 1.362 . S
C2138 H2130 0.930 . S
C2138 C2137 1.362 . S
C2138 C2141 1.409 . S
C2139 H2131 0.930 . S
C2139 C2140 1.355 . S
C2139 C2141 1.415 . S
C2140 C2139 1.355 . S
C2140 C2142 1.419 . S
C2141 C2136 1.425 . S
C2141 C2138 1.409 . S
C2141 C2139 1.415 . S
C2142 H2132 0.930 . S
C2142 C2140 1.419 . S
C2142 C2143 1.362 . S
C2143 H2133 0.930 . S
C2143 C2136 1.409 . S
C2143 C2142 1.362 . S
H2144 C2150 0.930 . S
H2145 C2153 0.930 . S
H2146 C2154 0.930 . S
H2147 C2155 0.930 . S
H2148 C2158 0.930 . S
H2149 C2159 0.930 . S
C2150 H2144 0.930 . S
C2150 C2151 1.355 . S
C2150 C2152 1.415 . S
C2151 C2150 1.355 . S
C2151 C2153 1.419 . S
C2152 C2150 1.415 . S
C2152 C2157 1.425 . S
C2152 C2159 1.409 . S
C2153 H2145 0.930 . S
C2153 C2151 1.419 . S
C2153 C2154 1.362 . S
C2154 H2146 0.930 . S
C2154 C2153 1.362 . S
C2154 C2157 1.409 . S
C2155 H2147 0.930 . S
C2155 C2156 1.355 . S
C2155 C2157 1.415 . S
C2156 C2155 1.355 . S
C2156 C2158 1.419 . S
C2157 C2152 1.425 . S
C2157 C2154 1.409 . S
C2157 C2155 1.415 . S
C2158 H2148 0.930 . S
C2158 C2156 1.419 . S
C2158 C2159 1.362 . S
C2159 H2149 0.930 . S
C2159 C2152 1.409 . S
C2159 C2158 1.362 . S
H2160 C2166 0.930 . S
H2161 C2169 0.930 . S
H2162 C2170 0.930 . S
H2163 C2171 0.930 . S
H2164 C2174 0.930 . S
H2165 C2175 0.930 . S
C2166 H2160 0.930 . S
C2166 C2167 1.355 . S
C2166 C2168 1.415 . S
C2167 C2166 1.355 . S
C2167 C2169 1.419 . S
C2168 C2166 1.415 . S
C2168 C2173 1.425 . S
C2168 C2175 1.409 . S
C2169 H2161 0.930 . S
C2169 C2167 1.419 . S
C2169 C2170 1.362 . S
C2170 H2162 0.930 . S
C2170 C2169 1.362 . S
C2170 C2173 1.409 . S
C2171 H2163 0.930 . S
C2171 C2172 1.355 . S
C2171 C2173 1.415 . S
C2172 C2171 1.355 . S
C2172 C2174 1.419 . S
C2173 C2168 1.425 . S
C2173 C2170 1.409 . S
C2173 C2171 1.415 . S
C2174 H2164 0.930 . S
C2174 C2172 1.419 . S
C2174 C2175 1.362 . S
C2175 H2165 0.930 . S
C2175 C2168 1.409 . S
C2175 C2174 1.362 . S
H2176 C2182 0.930 . S
H2177 C2185 0.930 . S
H2178 C2186 0.930 . S
H2179 C2187 0.930 . S
H2180 C2190 0.930 . S
H2181 C2191 0.930 . S
C2182 H2176 0.930 . S
C2182 C2183 1.355 . S
C2182 C2184 1.415 . S
C2183 C2182 1.355 . S
C2183 C2185 1.419 . S
C2184 C2182 1.415 . S
C2184 C2189 1.425 . S
C2184 C2191 1.409 . S
C2185 H2177 0.930 . S
C2185 C2183 1.419 . S
C2185 C2186 1.362 . S
C2186 H2178 0.930 . S
C2186 C2185 1.362 . S
C2186 C2189 1.409 . S
C2187 H2179 0.930 . S
C2187 C2188 1.355 . S
C2187 C2189 1.415 . S
C2188 C2187 1.355 . S
C2188 C2190 1.419 . S
C2189 C2184 1.425 . S
C2189 C2186 1.409 . S
C2189 C2187 1.415 . S
C2190 H2180 0.930 . S
C2190 C2188 1.419 . S
C2190 C2191 1.362 . S
C2191 H2181 0.930 . S
C2191 C2184 1.409 . S
C2191 C2190 1.362 . S
H2192 C2198 0.930 . S
H2193 C2201 0.930 . S
H2194 C2202 0.930 . S
H2195 C2203 0.930 . S
H2196 C2206 0.930 . S
H2197 C2207 0.930 . S
C2198 H2192 0.930 . S
C2198 C2199 1.355 . S
C2198 C2200 1.415 . S
C2199 C2198 1.355 . S
C2199 C2201 1.419 . S
C2200 C2198 1.415 . S
C2200 C2205 1.425 . S
C2200 C2207 1.409 . S
C2201 H2193 0.930 . S
C2201 C2199 1.419 . S
C2201 C2202 1.362 . S
C2202 H2194 0.930 . S
C2202 C2201 1.362 . S
C2202 C2205 1.409 . S
C2203 H2195 0.930 . S
C2203 C2204 1.355 . S
C2203 C2205 1.415 . S
C2204 C2203 1.355 . S
C2204 C2206 1.419 . S
C2205 C2200 1.425 . S
C2205 C2202 1.409 . S
C2205 C2203 1.415 . S
C2206 H2196 0.930 . S
C2206 C2204 1.419 . S
C2206 C2207 1.362 . S
C2207 H2197 0.930 . S
C2207 C2200 1.409 . S
C2207 C2206 1.362 . S
H2208 C2214 0.930 . S
H2209 C2217 0.930 . S
H2210 C2218 0.930 . S
H2211 C2219 0.930 . S
H2212 C2222 0.930 . S
H2213 C2223 0.930 . S
C2214 H2208 0.930 . S
C2214 C2215 1.355 . S
C2214 C2216 1.415 . S
C2215 C2214 1.355 . S
C2215 C2217 1.419 . S
C2216 C2214 1.415 . S
C2216 C2221 1.425 . S
C2216 C2223 1.409 . S
C2217 H2209 0.930 . S
C2217 C2215 1.419 . S
C2217 C2218 1.362 . S
C2218 H2210 0.930 . S
C2218 C2217 1.362 . S
C2218 C2221 1.409 . S
C2219 H2211 0.930 . S
C2219 C2220 1.355 . S
C2219 C2221 1.415 . S
C2220 C2219 1.355 . S
C2220 C2222 1.419 . S
C2221 C2216 1.425 . S
C2221 C2218 1.409 . S
C2221 C2219 1.415 . S
C2222 H2212 0.930 . S
C2222 C2220 1.419 . S
C2222 C2223 1.362 . S
C2223 H2213 0.930 . S
C2223 C2216 1.409 . S
C2223 C2222 1.362 . S
H2224 C2230 0.930 . S
H2225 C2233 0.930 . S
H2226 C2234 0.930 . S
H2227 C2235 0.930 . S
H2228 C2238 0.930 . S
H2229 C2239 0.930 . S
C2230 H2224 0.930 . S
C2230 C2231 1.355 . S
C2230 C2232 1.415 . S
C2231 C2230 1.355 . S
C2231 C2233 1.419 . S
C2232 C2230 1.415 . S
C2232 C2237 1.425 . S
C2232 C2239 1.409 . S
C2233 H2225 0.930 . S
C2233 C2231 1.419 . S
C2233 C2234 1.362 . S
C2234 H2226 0.930 . S
C2234 C2233 1.362 . S
C2234 C2237 1.409 . S
C2235 H2227 0.930 . S
C2235 C2236 1.355 . S
C2235 C2237 1.415 . S
C2236 C2235 1.355 . S
C2236 C2238 1.419 . S
C2237 C2232 1.425 . S
C2237 C2234 1.409 . S
C2237 C2235 1.415 . S
C2238 H2228 0.930 . S
C2238 C2236 1.419 . S
C2238 C2239 1.362 . S
C2239 H2229 0.930 . S
C2239 C2232 1.409 . S
C2239 C2238 1.362 . S
H2240 C2246 0.930 . S
H2241 C2249 0.930 . S
H2242 C2250 0.930 . S
H2243 C2251 0.930 . S
H2244 C2254 0.930 . S
H2245 C2255 0.930 . S
C2246 H2240 0.930 . S
C2246 C2247 1.355 . S
C2246 C2248 1.415 . S
C2247 C2246 1.355 . S
C2247 C2249 1.419 . S
C2248 C2246 1.415 . S
C2248 C2253 1.425 . S
C2248 C2255 1.409 . S
C2249 H2241 0.930 . S
C2249 C2247 1.419 . S
C2249 C2250 1.362 . S
C2250 H2242 0.930 . S
C2250 C2249 1.362 . S
C2250 C2253 1.409 . S
C2251 H2243 0.930 . S
C2251 C2252 1.355 . S
C2251 C2253 1.415 . S
C2252 C2251 1.355 . S
C2252 C2254 1.419 . S
C2253 C2248 1.425 . S
C2253 C2250 1.409 . S
C2253 C2251 1.415 . S
C2254 H2244 0.930 . S
C2254 C2252 1.419 . S
C2254 C2255 1.362 . S
C2255 H2245 0.930 . S
C2255 C2248 1.409 . S
C2255 C2254 1.362 . S
H2256 C2262 0.930 . S
H2257 C2265 0.930 . S
H2258 C2266 0.930 . S
H2259 C2267 0.930 . S
H2260 C2270 0.930 . S
H2261 C2271 0.930 . S
C2262 H2256 0.930 . S
C2262 C2263 1.355 . S
C2262 C2264 1.415 . S
C2263 C2262 1.355 . S
C2263 C2265 1.419 . S
C2264 C2262 1.415 . S
C2264 C2269 1.425 . S
C2264 C2271 1.409 . S
C2265 H2257 0.930 . S
C2265 C2263 1.419 . S
C2265 C2266 1.362 . S
C2266 H2258 0.930 . S
C2266 C2265 1.362 . S
C2266 C2269 1.409 . S
C2267 H2259 0.930 . S
C2267 C2268 1.355 . S
C2267 C2269 1.415 . S
C2268 C2267 1.355 . S
C2268 C2270 1.419 . S
C2269 C2264 1.425 . S
C2269 C2266 1.409 . S
C2269 C2267 1.415 . S
C2270 H2260 0.930 . S
C2270 C2268 1.419 . S
C2270 C2271 1.362 . S
C2271 H2261 0.930 . S
C2271 C2264 1.409 . S
C2271 C2270 1.362 . S
H2272 C2278 0.930 . S
H2273 C2281 0.930 . S
H2274 C2282 0.930 . S
H2275 C2283 0.930 . S
H2276 C2286 0.930 . S
H2277 C2287 0.930 . S
C2278 H2272 0.930 . S
C2278 C2279 1.355 . S
C2278 C2280 1.415 . S
C2279 C2278 1.355 . S
C2279 C2281 1.419 . S
C2280 C2278 1.415 . S
C2280 C2285 1.425 . S
C2280 C2287 1.409 . S
C2281 H2273 0.930 . S
C2281 C2279 1.419 . S
C2281 C2282 1.362 . S
C2282 H2274 0.930 . S
C2282 C2281 1.362 . S
C2282 C2285 1.409 . S
C2283 H2275 0.930 . S
C2283 C2284 1.355 . S
C2283 C2285 1.415 . S
C2284 C2283 1.355 . S
C2284 C2286 1.419 . S
C2285 C2280 1.425 . S
C2285 C2282 1.409 . S
C2285 C2283 1.415 . S
C2286 H2276 0.930 . S
C2286 C2284 1.419 . S
C2286 C2287 1.362 . S
C2287 H2277 0.930 . S
C2287 C2280 1.409 . S
C2287 C2286 1.362 . S
H2288 C2294 0.930 . S
H2289 C2297 0.930 . S
H2290 C2298 0.930 . S
H2291 C2299 0.930 . S
H2292 C2302 0.930 . S
H2293 C2303 0.930 . S
C2294 H2288 0.930 . S
C2294 C2295 1.355 . S
C2294 C2296 1.415 . S
C2295 C2294 1.355 . S
C2295 C2297 1.419 . S
C2296 C2294 1.415 . S
C2296 C2301 1.425 . S
C2296 C2303 1.409 . S
C2297 H2289 0.930 . S
C2297 C2295 1.419 . S
C2297 C2298 1.362 . S
C2298 H2290 0.930 . S
C2298 C2297 1.362 . S
C2298 C2301 1.409 . S
C2299 H2291 0.930 . S
C2299 C2300 1.355 . S
C2299 C2301 1.415 . S
C2300 C2299 1.355 . S
C2300 C2302 1.419 . S
C2301 C2296 1.425 . S
C2301 C2298 1.409 . S
C2301 C2299 1.415 . S
C2302 H2292 0.930 . S
C2302 C2300 1.419 . S
C2302 C2303 1.362 . S
C2303 H2293 0.930 . S
C2303 C2296 1.409 . S
C2303 C2302 1.362 . S
H2304 C2310 0.930 . S
H2305 C2313 0.930 . S
H2306 C2314 0.930 . S
H2307 C2315 0.930 . S
H2308 C2318 0.930 . S
H2309 C2319 0.930 . S
C2310 H2304 0.930 . S
C2310 C2311 1.355 . S
C2310 C2312 1.415 . S
C2311 C2310 1.355 . S
C2311 C2313 1.419 . S
C2312 C2310 1.415 . S
C2312 C2317 1.425 . S
C2312 C2319 1.409 . S
C2313 H2305 0.930 . S
C2313 C2311 1.419 . S
C2313 C2314 1.362 . S
C2314 H2306 0.930 . S
C2314 C2313 1.362 . S
C2314 C2317 1.409 . S
C2315 H2307 0.930 . S
C2315 C2316 1.355 . S
C2315 C2317 1.415 . S
C2316 C2315 1.355 . S
C2316 C2318 1.419 . S
C2317 C2312 1.425 . S
C2317 C2314 1.409 . S
C2317 C2315 1.415 . S
C2318 H2308 0.930 . S
C2318 C2316 1.419 . S
C2318 C2319 1.362 . S
C2319 H2309 0.930 . S
C2319 C2312 1.409 . S
C2319 C2318 1.362 . S
H2320 C2326 0.930 . S
H2321 C2329 0.930 . S
H2322 C2330 0.930 . S
H2323 C2331 0.930 . S
H2324 C2334 0.930 . S
H2325 C2335 0.930 . S
C2326 H2320 0.930 . S
C2326 C2327 1.355 . S
C2326 C2328 1.415 . S
C2327 C2326 1.355 . S
C2327 C2329 1.419 . S
C2328 C2326 1.415 . S
C2328 C2333 1.425 . S
C2328 C2335 1.409 . S
C2329 H2321 0.930 . S
C2329 C2327 1.419 . S
C2329 C2330 1.362 . S
C2330 H2322 0.930 . S
C2330 C2329 1.362 . S
C2330 C2333 1.409 . S
C2331 H2323 0.930 . S
C2331 C2332 1.355 . S
C2331 C2333 1.415 . S
C2332 C2331 1.355 . S
C2332 C2334 1.419 . S
C2333 C2328 1.425 . S
C2333 C2330 1.409 . S
C2333 C2331 1.415 . S
C2334 H2324 0.930 . S
C2334 C2332 1.419 . S
C2334 C2335 1.362 . S
C2335 H2325 0.930 . S
C2335 C2328 1.409 . S
C2335 C2334 1.362 . S
H2336 C2342 0.930 . S
H2337 C2345 0.930 . S
H2338 C2346 0.930 . S
H2339 C2347 0.930 . S
H2340 C2350 0.930 . S
H2341 C2351 0.930 . S
C2342 H2336 0.930 . S
C2342 C2343 1.355 . S
C2342 C2344 1.415 . S
C2343 C2342 1.355 . S
C2343 C2345 1.419 . S
C2344 C2342 1.415 . S
C2344 C2349 1.425 . S
C2344 C2351 1.409 . S
C2345 H2337 0.930 . S
C2345 C2343 1.419 . S
C2345 C2346 1.362 . S
C2346 H2338 0.930 . S
C2346 C2345 1.362 . S
C2346 C2349 1.409 . S
C2347 H2339 0.930 . S
C2347 C2348 1.355 . S
C2347 C2349 1.415 . S
C2348 C2347 1.355 . S
C2348 C2350 1.419 . S
C2349 C2344 1.425 . S
C2349 C2346 1.409 . S
C2349 C2347 1.415 . S
C2350 H2340 0.930 . S
C2350 C2348 1.419 . S
C2350 C2351 1.362 . S
C2351 H2341 0.930 . S
C2351 C2344 1.409 . S
C2351 C2350 1.362 . S
H2352 C2358 0.930 . S
H2353 C2361 0.930 . S
H2354 C2362 0.930 . S
H2355 C2363 0.930 . S
H2356 C2366 0.930 . S
H2357 C2367 0.930 . S
C2358 H2352 0.930 . S
C2358 C2359 1.355 . S
C2358 C2360 1.415 . S
C2359 C2358 1.355 . S
C2359 C2361 1.419 . S
C2360 C2358 1.415 . S
C2360 C2365 1.425 . S
C2360 C2367 1.409 . S
C2361 H2353 0.930 . S
C2361 C2359 1.419 . S
C2361 C2362 1.362 . S
C2362 H2354 0.930 . S
C2362 C2361 1.362 . S
C2362 C2365 1.409 . S
C2363 H2355 0.930 . S
C2363 C2364 1.355 . S
C2363 C2365 1.415 . S
C2364 C2363 1.355 . S
C2364 C2366 1.419 . S
C2365 C2360 1.425 . S
C2365 C2362 1.409 . S
C2365 C2363 1.415 . S
C2366 H2356 0.930 . S
C2366 C2364 1.419 . S
C2366 C2367 1.362 . S
C2367 H2357 0.930 . S
C2367 C2360 1.409 . S
C2367 C2366 1.362 . S
C1095 C9 0.417 . S
C1100 C349 0.257 . S
C1111 C383 0.455 . S
C1116 C43 0.231 . S
C1127 C281 0.228 . S
C1132 C77 0.469 . S
C1143 C111 0.424 . S
C1148 C315 0.439 . S
C1159 C145 0.234 . S
C1164 C485 0.449 . S
C1175 C179 0.462 . S
C1180 C519 0.394 . S
C1191 C417 0.312 . S
C1196 C213 0.360 . S
C1207 C451 0.497 . S
C1212 C247 0.290 . S
C1223 C893 0.397 . S
C1228 C553 0.276 . S
C1239 C927 0.352 . S
C1244 C587 0.320 . S
C1255 C621 0.297 . S
C1260 C825 0.375 . S
C1271 C859 0.239 . S
C1276 C655 0.440 . S
C1287 C689 0.388 . S
C1292 C1029 0.466 . S
C1303 C1063 0.485 . S
C1308 C723 0.349 . S
C1319 C757 0.427 . S
C1324 C961 0.436 . S
C1335 C791 0.486 . S
C1340 C995 0.236 . S
C1351 C2 1.823 . S
C1356 C852 1.836 . S
C1367 C36 1.841 . S
C1372 C818 1.826 . S
C1383 C70 1.851 . S
C1388 C920 1.860 . S
C1399 C104 1.825 . S
C1404 C886 1.840 . S
C1415 C138 1.821 . S
C1420 C988 1.829 . S
C1431 C172 1.830 . S
C1436 C954 1.821 . S
C1447 C1056 1.823 . S
C1452 C206 1.836 . S
C1463 C240 1.860 . S
C1468 C1022 1.852 . S
C1479 C580 1.821 . S
C1484 C274 1.828 . S
C1495 C308 1.823 . S
C1500 C546 1.822 . S
C1511 C342 1.842 . S
C1516 C648 1.826 . S
C1527 C614 1.821 . S
C1532 C376 1.829 . S
C1543 C716 1.835 . S
C1548 C410 1.852 . S
C1559 C682 1.855 . S
C1564 C444 1.839 . S
C1575 C478 1.826 . S
C1580 C784 1.821 . S
C1591 C750 1.829 . S
C1596 C512 1.821 . S
C1607 C73 0.633 . S
C1612 C5 0.644 . S
C1623 C39 0.642 . S
C1628 C107 0.653 . S
C1639 C209 0.629 . S
C1644 C141 0.618 . S
C1655 C175 0.556 . S
C1660 C243 0.559 . S
C1671 C277 0.566 . S
C1676 C345 0.560 . S
C1687 C311 0.674 . S
C1692 C379 0.683 . S
C1703 C481 0.653 . S
C1708 C413 0.642 . S
C1719 C515 0.580 . S
C1724 C447 0.589 . S
C1735 C617 0.555 . S
C1740 C549 0.557 . S
C1751 C583 0.704 . S
C1756 C651 0.708 . S
C1767 C685 0.606 . S
C1772 C753 0.595 . S
C1783 C719 0.595 . S
C1788 C787 0.585 . S
C1799 C889 0.616 . S
C1804 C821 0.627 . S
C1815 C855 0.627 . S
C1820 C923 0.615 . S
C1831 C957 0.638 . S
C1836 C1025 0.649 . S
C1847 C1059 0.564 . S
C1852 C991 0.559 . S
C1863 C781 2.429 . S
C1868 C20 2.403 . S
C1879 C543 2.448 . S
C1884 C54 2.433 . S
C1895 C88 2.412 . S
C1900 C985 2.428 . S
C1911 C203 2.440 . S
C1916 C122 2.429 . S
C1927 C156 2.433 . S
C1932 C645 2.444 . S
C1943 C190 2.407 . S
C1948 C407 2.427 . S
C1959 C849 2.449 . S
C1964 C224 2.431 . S
C1975 C258 2.407 . S
C1980 C67 2.435 . S
C1991 C292 2.403 . S
C1996 C1053 2.427 . S
C2007 C271 2.427 . S
C2012 C326 2.407 . S
C2023 C360 2.415 . S
C2028 C713 2.430 . S
C2039 C394 2.424 . S
C2044 C475 2.435 . S
C2055 C917 2.428 . S
C2060 C428 2.403 . S
C2071 C462 2.434 . S
C2076 C135 2.448 . S
C2087 C577 2.448 . S
C2092 C496 2.427 . S
C2103 C339 2.444 . S
C2108 C530 2.433 . S
C2119 C237 2.444 . S
C2124 C564 2.433 . S
C2135 C598 2.423 . S
C2140 C1087 2.446 . S
C2151 C632 2.408 . S
C2156 C441 2.435 . S
C2167 C666 2.405 . S
C2172 C747 2.432 . S
C2183 C700 2.419 . S
C2188 C101 2.432 . S
C2199 C734 2.413 . S
C2204 C951 2.440 . S
C2215 C305 2.441 . S
C2220 C768 2.431 . S
C2231 C611 2.427 . S
C2236 C802 2.403 . S
C2247 C509 2.434 . S
C2252 C836 2.406 . S
C2263 C870 2.410 . S
C2268 C815 2.437 . S
C2279 C169 2.441 . S
C2284 C904 2.414 . S
C2295 C1019 2.430 . S
C2300 C938 2.417 . S
C2311 C972 2.431 . S
C2316 C373 2.448 . S
C2327 C1006 2.414 . S
C2332 C679 2.429 . S
C2343 C33 2.436 . S
C2348 C1040 2.425 . S
C2359 C1074 2.403 . S
C2364 C883 2.428 . S
