# Generated by pormake.
# Topology umd, (4)-cn, num edge types: 1
# Building blocks:
#     Node 0, Type 0, BuildingBlock: ESEHIV_clean_sbu_0, # of connection points: 4
#     Node 1, Type 0, BuildingBlock: ESEHIV_clean_sbu_0, # of connection points: 4
#     Node 2, Type 0, BuildingBlock: ESEHIV_clean_sbu_0, # of connection points: 4
#     Node 3, Type 0, BuildingBlock: ESEHIV_clean_sbu_0, # of connection points: 4
#     Node 4, Type 0, BuildingBlock: ESEHIV_clean_sbu_0, # of connection points: 4
#     Node 5, Type 0, BuildingBlock: ESEHIV_clean_sbu_0, # of connection points: 4
#     Node 6, Type 0, BuildingBlock: ESEHIV_clean_sbu_0, # of connection points: 4
#     Node 7, Type 0, BuildingBlock: ESEHIV_clean_sbu_0, # of connection points: 4
#     Node 8, Type 0, BuildingBlock: ESEHIV_clean_sbu_0, # of connection points: 4
#     Node 9, Type 0, BuildingBlock: ESEHIV_clean_sbu_0, # of connection points: 4
#     Node 10, Type 0, BuildingBlock: ESEHIV_clean_sbu_0, # of connection points: 4
#     Node 11, Type 0, BuildingBlock: ESEHIV_clean_sbu_0, # of connection points: 4
#     Node 12, Type 0, BuildingBlock: ESEHIV_clean_sbu_0, # of connection points: 4
#     Node 13, Type 0, BuildingBlock: ESEHIV_clean_sbu_0, # of connection points: 4
#     Node 14, Type 0, BuildingBlock: ESEHIV_clean_sbu_0, # of connection points: 4
#     Node 15, Type 0, BuildingBlock: ESEHIV_clean_sbu_0, # of connection points: 4
#     Edge 16, Type (0, 0), BuildingBlock: ZUJKAS_clean_linker_0, # of connection points: 2
#     Edge 17, Type (0, 0), BuildingBlock: ZUJKAS_clean_linker_0, # of connection points: 2
#     Edge 18, Type (0, 0), BuildingBlock: ZUJKAS_clean_linker_0, # of connection points: 2
#     Edge 19, Type (0, 0), BuildingBlock: ZUJKAS_clean_linker_0, # of connection points: 2
#     Edge 20, Type (0, 0), BuildingBlock: ZUJKAS_clean_linker_0, # of connection points: 2
#     Edge 21, Type (0, 0), BuildingBlock: ZUJKAS_clean_linker_0, # of connection points: 2
#     Edge 22, Type (0, 0), BuildingBlock: ZUJKAS_clean_linker_0, # of connection points: 2
#     Edge 23, Type (0, 0), BuildingBlock: ZUJKAS_clean_linker_0, # of connection points: 2
#     Edge 24, Type (0, 0), BuildingBlock: ZUJKAS_clean_linker_0, # of connection points: 2
#     Edge 25, Type (0, 0), BuildingBlock: ZUJKAS_clean_linker_0, # of connection points: 2
#     Edge 26, Type (0, 0), BuildingBlock: ZUJKAS_clean_linker_0, # of connection points: 2
#     Edge 27, Type (0, 0), BuildingBlock: ZUJKAS_clean_linker_0, # of connection points: 2
#     Edge 28, Type (0, 0), BuildingBlock: ZUJKAS_clean_linker_0, # of connection points: 2
#     Edge 29, Type (0, 0), BuildingBlock: ZUJKAS_clean_linker_0, # of connection points: 2
#     Edge 30, Type (0, 0), BuildingBlock: ZUJKAS_clean_linker_0, # of connection points: 2
#     Edge 31, Type (0, 0), BuildingBlock: ZUJKAS_clean_linker_0, # of connection points: 2
#     Edge 32, Type (0, 0), BuildingBlock: ZUJKAS_clean_linker_0, # of connection points: 2
#     Edge 33, Type (0, 0), BuildingBlock: ZUJKAS_clean_linker_0, # of connection points: 2
#     Edge 34, Type (0, 0), BuildingBlock: ZUJKAS_clean_linker_0, # of connection points: 2
#     Edge 35, Type (0, 0), BuildingBlock: ZUJKAS_clean_linker_0, # of connection points: 2
#     Edge 36, Type (0, 0), BuildingBlock: ZUJKAS_clean_linker_0, # of connection points: 2
#     Edge 37, Type (0, 0), BuildingBlock: ZUJKAS_clean_linker_0, # of connection points: 2
#     Edge 38, Type (0, 0), BuildingBlock: ZUJKAS_clean_linker_0, # of connection points: 2
#     Edge 39, Type (0, 0), BuildingBlock: ZUJKAS_clean_linker_0, # of connection points: 2
#     Edge 40, Type (0, 0), BuildingBlock: ZUJKAS_clean_linker_0, # of connection points: 2
#     Edge 41, Type (0, 0), BuildingBlock: ZUJKAS_clean_linker_0, # of connection points: 2
#     Edge 42, Type (0, 0), BuildingBlock: ZUJKAS_clean_linker_0, # of connection points: 2
#     Edge 43, Type (0, 0), BuildingBlock: ZUJKAS_clean_linker_0, # of connection points: 2
#     Edge 44, Type (0, 0), BuildingBlock: ZUJKAS_clean_linker_0, # of connection points: 2
#     Edge 45, Type (0, 0), BuildingBlock: ZUJKAS_clean_linker_0, # of connection points: 2
#     Edge 46, Type (0, 0), BuildingBlock: ZUJKAS_clean_linker_0, # of connection points: 2
#     Edge 47, Type (0, 0), BuildingBlock: ZUJKAS_clean_linker_0, # of connection points: 2
# Relax obj value: 0.041
# Max RMSD: 0.122
# Mean RMSD: 0.122
data_MOF--net-umd--node1-ESEHIV_clean_sbu_0--edge1-ZUJKAS_clean_linker_0
_symmetry_space_group_name_H-M    P1
_symmetry_Int_Tables_number       1
_symmetry_cell_setting            triclinic
loop_
_symmetry_equiv_pos_as_xyz
'x, y, z'
_cell_length_a     59.974478
_cell_length_b     59.988063
_cell_length_c     71.930584
_cell_angle_alpha  89.879994
_cell_angle_beta   89.927583
_cell_angle_gamma 90.020529
loop_
_atom_site_label
_atom_site_type_symbol
_atom_site_fract_x
_atom_site_fract_y
_atom_site_fract_z
_atom_type_partial_charge
Cu0 Cu 0.18148 0.44009 0.15781 0.0
N1 N 0.15057 0.4383 0.16099 0.0
N2 N 0.11447 0.44766 0.16073 0.0
C3 C 0.13527 0.45312 0.15506 0.0
C4 C 0.11679 0.42844 0.17032 0.0
C5 C 0.13903 0.42272 0.17044 0.0
O6 O 0.19356 0.4608 0.17602 0.0
C7 C 0.2064 0.44948 0.12442 0.0
O8 O 0.22435 0.44654 0.13458 0.0
H9 H 0.13939 0.46775 0.14693 0.0
H10 H 0.14626 0.40842 0.1773 0.0
N11 N 0.19397 0.4125 0.16372 0.0
N12 N 0.21417 0.38121 0.16367 0.0
C13 C 0.20712 0.39891 0.15358 0.0
C14 C 0.19288 0.4032 0.18072 0.0
C15 C 0.20517 0.3839 0.18072 0.0
C16 C 0.18421 0.47886 0.18101 0.0
O17 O 0.16678 0.48611 0.17178 0.0
H18 H 0.21165 0.40207 0.13926 0.0
H19 H 0.18425 0.4104 0.19248 0.0
O20 O 0.18728 0.44806 0.13202 0.0
H21 H 0.10351 0.41955 0.17735 0.0
H22 H 0.20801 0.37318 0.19261 0.0
Cu23 Cu 0.59014 0.17951 0.65412 0.0
N24 N 0.5914 0.14861 0.65177 0.0
N25 N 0.58144 0.11271 0.652 0.0
C26 C 0.57522 0.13385 0.6559 0.0
C27 C 0.60239 0.11435 0.64521 0.0
C28 C 0.60845 0.1365 0.64505 0.0
O29 O 0.5688 0.18642 0.67368 0.0
C30 C 0.56546 0.18477 0.62114 0.0
O31 O 0.55197 0.17057 0.62937 0.0
H32 H 0.55923 0.13859 0.66164 0.0
H33 H 0.62408 0.14338 0.64017 0.0
N34 N 0.61827 0.18971 0.66112 0.0
N35 N 0.64843 0.21117 0.66469 0.0
C36 C 0.62849 0.20882 0.65615 0.0
C37 C 0.63218 0.17956 0.67308 0.0
C38 C 0.65079 0.19272 0.6753 0.0
C39 C 0.5701 0.20402 0.68348 0.0
O40 O 0.58504 0.21921 0.67918 0.0
H41 H 0.62111 0.22102 0.64692 0.0
H42 H 0.62887 0.16378 0.67984 0.0
O43 O 0.5824 0.19186 0.62998 0.0
H44 H 0.61243 0.10061 0.64024 0.0
H45 H 0.66497 0.18892 0.68404 0.0
Cu46 Cu 0.85099 0.59371 0.1539 0.0
N47 N 0.88182 0.59281 0.15045 0.0
N48 N 0.9172 0.58116 0.14998 0.0
C49 C 0.89628 0.57701 0.15609 0.0
C50 C 0.91578 0.60036 0.14023 0.0
C51 C 0.89395 0.60743 0.14049 0.0
O52 O 0.84308 0.57781 0.17653 0.0
C53 C 0.84532 0.56765 0.12144 0.0
O54 O 0.86285 0.55695 0.12777 0.0
H55 H 0.89146 0.56263 0.16426 0.0
H56 H 0.88724 0.62195 0.13353 0.0
N57 N 0.84271 0.62331 0.15747 0.0
N58 N 0.82235 0.65442 0.15934 0.0
C59 C 0.82273 0.63276 0.15416 0.0
C60 C 0.85539 0.63944 0.16496 0.0
C61 C 0.84292 0.65864 0.16609 0.0
C62 C 0.84329 0.55682 0.17904 0.0
O63 O 0.84809 0.5436 0.16507 0.0
H64 H 0.80864 0.62375 0.14854 0.0
H65 H 0.87244 0.63728 0.16949 0.0
O66 O 0.83669 0.58301 0.13131 0.0
H67 H 0.92935 0.60831 0.13283 0.0
H68 H 0.84864 0.67449 0.17144 0.0
Cu69 Cu 0.4362 0.8487 0.65433 0.0
N70 N 0.4367 0.8796 0.65126 0.0
N71 N 0.44804 0.91511 0.65126 0.0
C72 C 0.45241 0.89408 0.657 0.0
C73 C 0.42876 0.91371 0.64164 0.0
C74 C 0.42187 0.89181 0.64164 0.0
O75 O 0.45191 0.84077 0.67702 0.0
C76 C 0.46277 0.8437 0.62193 0.0
O77 O 0.47315 0.86136 0.62833 0.0
H78 H 0.46688 0.88921 0.66499 0.0
H79 H 0.40734 0.88512 0.63472 0.0
N80 N 0.40671 0.83979 0.65769 0.0
N81 N 0.37618 0.81856 0.65952 0.0
C82 C 0.3976 0.81981 0.65377 0.0
C83 C 0.39055 0.85157 0.66613 0.0
C84 C 0.37169 0.83854 0.66727 0.0
C85 C 0.47285 0.84138 0.67978 0.0
O86 O 0.48628 0.84652 0.66599 0.0
H87 H 0.40676 0.80622 0.64748 0.0
H88 H 0.39253 0.86831 0.67145 0.0
O89 O 0.44741 0.83482 0.6317 0.0
H90 H 0.42063 0.92736 0.6345 0.0
H91 H 0.35596 0.84336 0.67345 0.0
Cu92 Cu 0.17902 0.58951 0.39286 0.0
N93 N 0.14821 0.59278 0.39249 0.0
N94 N 0.11203 0.58428 0.391 0.0
C95 C 0.13311 0.57676 0.38896 0.0
C96 C 0.11401 0.60588 0.39596 0.0
C97 C 0.13638 0.61109 0.39683 0.0
O98 O 0.18627 0.56657 0.3748 0.0
C99 C 0.20632 0.57942 0.42514 0.0
O100 O 0.2238 0.58014 0.41414 0.0
H101 H 0.13753 0.55973 0.38563 0.0
H102 H 0.14356 0.62696 0.40068 0.0
N103 N 0.19161 0.61626 0.38483 0.0
N104 N 0.21391 0.64574 0.38111 0.0
C105 C 0.20833 0.62839 0.3922 0.0
C106 C 0.18635 0.62638 0.36873 0.0
C107 C 0.20006 0.64454 0.36638 0.0
C108 C 0.20426 0.56677 0.36539 0.0
O109 O 0.22005 0.58097 0.36982 0.0
H110 H 0.2167 0.62418 0.40505 0.0
H111 H 0.1737 0.62059 0.35918 0.0
O112 O 0.18695 0.58245 0.41841 0.0
H113 H 0.10029 0.61707 0.39888 0.0
H114 H 0.19989 0.65594 0.35469 0.0
Cu115 Cu 0.43793 0.18121 0.8899 0.0
N116 N 0.4366 0.15023 0.89182 0.0
N117 N 0.44682 0.11443 0.8916 0.0
C118 C 0.45349 0.13577 0.88932 0.0
C119 C 0.42486 0.11556 0.89565 0.0
C120 C 0.41863 0.13768 0.89584 0.0
O121 O 0.4596 0.18835 0.87063 0.0
C122 C 0.46274 0.18668 0.92285 0.0
O123 O 0.4768 0.17332 0.91438 0.0
H124 H 0.47027 0.14081 0.88568 0.0
H125 H 0.40217 0.14418 0.89872 0.0
N126 N 0.40996 0.19166 0.88266 0.0
N127 N 0.37944 0.21274 0.87957 0.0
C128 C 0.39909 0.21002 0.88851 0.0
C129 C 0.3968 0.18241 0.86969 0.0
C130 C 0.37797 0.1953 0.86777 0.0
C131 C 0.45813 0.20569 0.86048 0.0
O132 O 0.44276 0.22061 0.86424 0.0
H133 H 0.40577 0.22139 0.89875 0.0
H134 H 0.40074 0.16738 0.86208 0.0
O135 O 0.4454 0.19313 0.91421 0.0
H136 H 0.41416 0.10145 0.89859 0.0
H137 H 0.36422 0.19194 0.85847 0.0
Cu138 Cu 0.85018 0.43628 0.39222 0.0
N139 N 0.88089 0.43703 0.39615 0.0
N140 N 0.91625 0.44856 0.39728 0.0
C141 C 0.89584 0.45203 0.38988 0.0
C142 C 0.91402 0.43059 0.40845 0.0
C143 C 0.89221 0.42355 0.40773 0.0
O144 O 0.84275 0.45186 0.36934 0.0
C145 C 0.84417 0.46268 0.42442 0.0
O146 O 0.86179 0.47329 0.41812 0.0
H147 H 0.89162 0.46583 0.38084 0.0
H148 H 0.88489 0.40993 0.41551 0.0
N149 N 0.8418 0.40668 0.38894 0.0
N150 N 0.8211 0.37582 0.38696 0.0
C151 C 0.8215 0.39764 0.39162 0.0
C152 C 0.85469 0.39011 0.38241 0.0
C153 C 0.84199 0.37105 0.3812 0.0
C154 C 0.84365 0.47277 0.36644 0.0
O155 O 0.84895 0.4862 0.38014 0.0
H156 H 0.80721 0.40705 0.39639 0.0
H157 H 0.87205 0.39187 0.37859 0.0
O158 O 0.83554 0.44732 0.41457 0.0
H159 H 0.92714 0.42326 0.41679 0.0
H160 H 0.84775 0.35494 0.37647 0.0
Cu161 Cu 0.59407 0.852 0.89171 0.0
N162 N 0.59394 0.883 0.89418 0.0
N163 N 0.58271 0.91859 0.89427 0.0
C164 C 0.57752 0.89735 0.88967 0.0
C165 C 0.60332 0.91741 0.90181 0.0
C166 C 0.61011 0.89551 0.90179 0.0
O167 O 0.57756 0.84382 0.86949 0.0
C168 C 0.56797 0.8475 0.92442 0.0
O169 O 0.55693 0.86445 0.91743 0.0
H170 H 0.56183 0.89211 0.88373 0.0
H171 H 0.62566 0.88907 0.90717 0.0
N172 N 0.62334 0.84277 0.88763 0.0
N173 N 0.65357 0.82121 0.88503 0.0
C174 C 0.63241 0.82272 0.89142 0.0
C175 C 0.63923 0.85431 0.87857 0.0
C176 C 0.6579 0.84111 0.87699 0.0
C177 C 0.55654 0.84388 0.86717 0.0
O178 O 0.54338 0.84861 0.88122 0.0
H179 H 0.62338 0.80927 0.89808 0.0
H180 H 0.63718 0.87099 0.8731 0.0
O181 O 0.5836 0.83875 0.91492 0.0
H182 H 0.6129 0.93132 0.90705 0.0
H183 H 0.67339 0.84578 0.8703 0.0
Cu184 Cu 0.8487 0.59068 0.89149 0.0
N185 N 0.8794 0.59171 0.89524 0.0
N186 N 0.91529 0.58188 0.89597 0.0
C187 C 0.89471 0.57675 0.88965 0.0
C188 C 0.91275 0.60084 0.90583 0.0
C189 C 0.89059 0.60686 0.90533 0.0
O190 O 0.84265 0.57006 0.87128 0.0
C191 C 0.84233 0.56587 0.92432 0.0
O192 O 0.858 0.55327 0.91708 0.0
H193 H 0.89068 0.56198 0.88172 0.0
H194 H 0.88305 0.62106 0.91213 0.0
N195 N 0.83905 0.61912 0.88484 0.0
N196 N 0.81812 0.64973 0.88177 0.0
C197 C 0.81974 0.62918 0.88942 0.0
C198 C 0.85009 0.63374 0.87405 0.0
C199 C 0.83726 0.65263 0.87213 0.0
C200 C 0.82519 0.57143 0.8613 0.0
O201 O 0.80976 0.58605 0.86567 0.0
H202 H 0.80698 0.62134 0.89784 0.0
H203 H 0.86634 0.6308 0.86799 0.0
O204 O 0.8349 0.58223 0.91491 0.0
H205 H 0.92594 0.60967 0.91296 0.0
H206 H 0.84182 0.6674 0.86435 0.0
Cu207 Cu 0.43553 0.84943 0.39355 0.0
N208 N 0.43632 0.88017 0.39732 0.0
N209 N 0.4474 0.91573 0.39762 0.0
C210 C 0.45097 0.89516 0.39055 0.0
C211 C 0.42974 0.9135 0.40914 0.0
C212 C 0.42302 0.89158 0.40896 0.0
O213 O 0.45029 0.84205 0.37028 0.0
C214 C 0.4629 0.84388 0.42534 0.0
O215 O 0.47288 0.86187 0.41904 0.0
H216 H 0.46453 0.89086 0.3813 0.0
H217 H 0.40966 0.88431 0.41707 0.0
N218 N 0.40577 0.84093 0.39141 0.0
N219 N 0.37461 0.82059 0.39201 0.0
C220 C 0.39695 0.82057 0.39433 0.0
C221 C 0.38849 0.85419 0.38694 0.0
C222 C 0.36923 0.84172 0.38738 0.0
C223 C 0.4712 0.84254 0.36727 0.0
O224 O 0.48483 0.84722 0.38099 0.0
H225 H 0.40668 0.80614 0.39833 0.0
H226 H 0.38982 0.87173 0.38359 0.0
O227 O 0.4476 0.83492 0.41562 0.0
H228 H 0.42231 0.9267 0.41729 0.0
H229 H 0.3526 0.84764 0.38424 0.0
Cu230 Cu 0.17789 0.43823 0.89227 0.0
N231 N 0.1469 0.43645 0.89241 0.0
N232 N 0.11105 0.44641 0.89162 0.0
C233 C 0.13231 0.45285 0.88849 0.0
C234 C 0.11237 0.42514 0.89768 0.0
C235 C 0.13451 0.41906 0.89815 0.0
O236 O 0.18606 0.46005 0.87332 0.0
C237 C 0.20535 0.44922 0.92445 0.0
O238 O 0.22303 0.44806 0.91371 0.0
H239 H 0.13728 0.46942 0.88416 0.0
H240 H 0.14118 0.40325 0.90278 0.0
N241 N 0.18894 0.4102 0.88569 0.0
N242 N 0.2104 0.37996 0.88237 0.0
C243 C 0.20764 0.39963 0.89126 0.0
C244 C 0.17953 0.39673 0.87301 0.0
C245 C 0.19263 0.3781 0.87096 0.0
C246 C 0.2032 0.45803 0.86299 0.0
O247 O 0.2176 0.44209 0.86654 0.0
H248 H 0.21929 0.40651 0.90116 0.0
H249 H 0.16427 0.40039 0.86561 0.0
O250 O 0.18607 0.44618 0.91755 0.0
H251 H 0.09837 0.41478 0.90164 0.0
H252 H 0.18925 0.36426 0.86177 0.0
Cu253 Cu 0.59347 0.17731 0.39013 0.0
N254 N 0.59368 0.14642 0.39308 0.0
N255 N 0.58325 0.11067 0.39336 0.0
C256 C 0.57837 0.13149 0.3874 0.0
C257 C 0.60244 0.11266 0.40301 0.0
C258 C 0.60877 0.1347 0.40284 0.0
O259 O 0.57705 0.18523 0.36776 0.0
C260 C 0.56718 0.1815 0.42267 0.0
O261 O 0.55642 0.16441 0.41566 0.0
H262 H 0.5635 0.13598 0.37976 0.0
H263 H 0.62315 0.14182 0.40969 0.0
N264 N 0.62275 0.18657 0.38631 0.0
N265 N 0.65317 0.20793 0.38413 0.0
C266 C 0.63161 0.20681 0.38959 0.0
C267 C 0.63916 0.17448 0.37855 0.0
C268 C 0.65795 0.18756 0.37722 0.0
C269 C 0.55608 0.18426 0.36524 0.0
O270 O 0.54299 0.17862 0.37911 0.0
H271 H 0.62223 0.22058 0.39535 0.0
H272 H 0.63747 0.15742 0.37393 0.0
O273 O 0.58271 0.19055 0.41319 0.0
H274 H 0.6112 0.09921 0.40988 0.0
H275 H 0.67388 0.18242 0.37162 0.0
Cu276 Cu 0.84708 0.43881 0.65509 0.0
N277 N 0.87795 0.4373 0.65247 0.0
N278 N 0.91385 0.44722 0.6521 0.0
C279 C 0.89267 0.4539 0.65525 0.0
C280 C 0.91233 0.42556 0.6472 0.0
C281 C 0.89015 0.41952 0.64738 0.0
O282 O 0.8406 0.46044 0.67448 0.0
C283 C 0.84124 0.46313 0.62182 0.0
O284 O 0.85584 0.47662 0.62945 0.0
H285 H 0.88792 0.47048 0.65965 0.0
H286 H 0.88335 0.40333 0.64399 0.0
N287 N 0.8367 0.41089 0.66255 0.0
N288 N 0.81517 0.38079 0.66633 0.0
C289 C 0.8178 0.40046 0.65737 0.0
C290 C 0.8464 0.39739 0.67509 0.0
C291 C 0.8332 0.37882 0.67744 0.0
C292 C 0.82325 0.45924 0.68465 0.0
O293 O 0.808 0.44421 0.68087 0.0
H294 H 0.80595 0.40752 0.64767 0.0
H295 H 0.8619 0.40096 0.68215 0.0
O296 O 0.83433 0.44639 0.63108 0.0
H297 H 0.92619 0.41495 0.64339 0.0
H298 H 0.8367 0.36493 0.68661 0.0
Cu299 Cu 0.59291 0.85089 0.155 0.0
N300 N 0.59258 0.88175 0.15186 0.0
N301 N 0.58184 0.91741 0.15183 0.0
C302 C 0.57731 0.89654 0.15788 0.0
C303 C 0.60077 0.9156 0.14176 0.0
C304 C 0.6073 0.89362 0.14178 0.0
O305 O 0.5765 0.84296 0.17742 0.0
C306 C 0.56694 0.84612 0.12245 0.0
O307 O 0.55598 0.86313 0.12938 0.0
H308 H 0.56275 0.89192 0.16591 0.0
H309 H 0.62159 0.88664 0.13469 0.0
N310 N 0.62238 0.84231 0.15892 0.0
N311 N 0.65357 0.82206 0.16076 0.0
C312 C 0.63199 0.8225 0.1553 0.0
C313 C 0.63831 0.85481 0.16689 0.0
C314 C 0.65755 0.84243 0.168 0.0
C315 C 0.55549 0.84353 0.17979 0.0
O316 O 0.54246 0.8486 0.16575 0.0
H317 H 0.62317 0.80858 0.1492 0.0
H318 H 0.636 0.87173 0.1717 0.0
O319 O 0.58249 0.83729 0.13199 0.0
H320 H 0.60927 0.92914 0.13477 0.0
H321 H 0.67329 0.84809 0.17362 0.0
Cu322 Cu 0.17797 0.58973 0.65653 0.0
N323 N 0.14697 0.59177 0.65702 0.0
N324 N 0.11106 0.58169 0.65755 0.0
C325 C 0.13249 0.57466 0.65794 0.0
C326 C 0.11227 0.60414 0.65632 0.0
C327 C 0.1344 0.61028 0.65593 0.0
O328 O 0.18615 0.56744 0.67506 0.0
C329 C 0.2052 0.57841 0.62447 0.0
O330 O 0.2226 0.57867 0.63554 0.0
H331 H 0.13768 0.55741 0.65847 0.0
H332 H 0.14087 0.62706 0.65479 0.0
N333 N 0.18978 0.61736 0.66338 0.0
N334 N 0.21191 0.64722 0.66621 0.0
C335 C 0.20801 0.62803 0.65689 0.0
C336 C 0.18188 0.63019 0.67718 0.0
C337 C 0.19535 0.64861 0.67891 0.0
C338 C 0.2035 0.56899 0.68517 0.0
O339 O 0.21814 0.58472 0.68159 0.0
H340 H 0.21851 0.6215 0.64596 0.0
H341 H 0.16743 0.62624 0.68558 0.0
O342 O 0.18588 0.58211 0.6311 0.0
H343 H 0.09823 0.61543 0.65581 0.0
H344 H 0.19303 0.66196 0.68881 0.0
Cu345 Cu 0.43363 0.1775 0.15321 0.0
N346 N 0.43402 0.14665 0.15011 0.0
N347 N 0.44486 0.11102 0.15031 0.0
C348 C 0.44912 0.13187 0.15647 0.0
C349 C 0.4263 0.11284 0.13982 0.0
C350 C 0.41971 0.1348 0.13969 0.0
O351 O 0.44921 0.18524 0.17601 0.0
C352 C 0.46076 0.18223 0.12117 0.0
O353 O 0.47131 0.16497 0.12816 0.0
H354 H 0.46339 0.1365 0.1648 0.0
H355 H 0.40568 0.14178 0.13225 0.0
N356 N 0.40405 0.18626 0.15609 0.0
N357 N 0.37285 0.20665 0.15603 0.0
C358 C 0.39485 0.20611 0.15187 0.0
C359 C 0.38742 0.17381 0.16315 0.0
C360 C 0.36818 0.18628 0.16309 0.0
C361 C 0.47021 0.18536 0.17847 0.0
O362 O 0.48352 0.18122 0.16439 0.0
H363 H 0.40425 0.21993 0.14617 0.0
H364 H 0.38921 0.15683 0.168 0.0
O365 O 0.44508 0.19115 0.13051 0.0
H366 H 0.4181 0.09931 0.13261 0.0
H367 H 0.35197 0.18061 0.16773 0.0
H368 H 0.07189 0.43233 0.16082 0.0
H369 H 0.03777 0.45452 0.15859 0.0
H370 H 0.07709 0.51442 0.1536 0.0
H371 H 0.11122 0.49244 0.15595 0.0
H372 H 0.02398 0.48894 0.18225 0.0
H373 H 0.03385 0.51937 0.10979 0.0
H374 H 0.04977 0.49632 0.11898 0.0
H375 H 0.05759 0.52451 0.12435 0.0
C376 C 0.0733 0.45022 0.15923 0.0
C377 C 0.09434 0.46057 0.15848 0.0
C378 C 0.05378 0.46286 0.1579 0.0
C379 C 0.05491 0.48607 0.15567 0.0
C380 C 0.07585 0.49647 0.15488 0.0
H381 H 0.96035 0.59455 0.14971 0.0
H382 H 0.99345 0.57091 0.15174 0.0
C383 C 0.09537 0.48385 0.1562 0.0
C384 C 0.0342 0.49953 0.15492 0.0
H385 H 1.00538 0.53639 0.12787 0.0
C386 C 0.0198 0.49921 0.17032 0.0
C387 C 0.02885 0.51292 0.13934 0.0
C388 C 0.0432 0.51321 0.1221 0.0
C389 C 1.00044 0.51236 0.17076 0.0
C390 C 0.99518 0.52588 0.15524 0.0
C391 C 1.0095 0.52606 0.13978 0.0
C392 C 0.97499 0.54013 0.15474 0.0
C393 C 0.98611 0.51212 0.18801 0.0
C394 C 0.95362 0.53065 0.15572 0.0
C395 C 0.93465 0.54413 0.15454 0.0
C396 C 0.9367 0.56733 0.15217 0.0
C397 C 0.95817 0.57674 0.15131 0.0
C398 C 0.9771 0.56327 0.15254 0.0
H399 H 0.99528 0.50545 0.20023 0.0
H400 H 0.98003 0.52913 0.19136 0.0
H401 H 0.97139 0.5013 0.18561 0.0
H402 H 0.95161 0.51277 0.15702 0.0
H403 H 0.91841 0.53628 0.15493 0.0
H404 H 0.43456 0.95826 0.651 0.0
H405 H 0.45817 0.99142 0.65279 0.0
H406 H 0.51623 0.94975 0.65913 0.0
H407 H 0.49286 0.9165 0.65678 0.0
H408 H 0.48766 1.00573 0.68094 0.0
H409 H 0.53203 0.98952 0.61445 0.0
H410 H 0.50669 0.97517 0.62086 0.0
H411 H 0.53285 0.96699 0.63093 0.0
C412 C 0.45236 0.95612 0.65265 0.0
C413 C 0.46179 0.93466 0.65356 0.0
C414 C 0.46581 0.9751 0.6538 0.0
C415 C 0.48897 0.97303 0.6558 0.0
C416 C 0.49841 0.9517 0.65727 0.0
H417 H 0.59657 0.07041 0.65654 0.0
H418 H 0.57421 0.0364 0.65862 0.0
C419 C 0.48498 0.9327 0.65613 0.0
C420 C 0.50323 0.99323 0.65607 0.0
H421 H 0.5446 0.02009 0.63226 0.0
C422 C 0.50012 1.0089 0.67031 0.0
C423 C 0.51945 0.9973 0.64217 0.0
C424 C 0.5229 0.98149 0.62613 0.0
C425 C 0.51297 0.02846 0.67112 0.0
C426 C 0.52906 0.0326 0.65713 0.0
C427 C 0.53228 0.01684 0.64299 0.0
C428 C 0.54249 0.05337 0.65665 0.0
C429 C 0.50943 0.04435 0.68709 0.0
C430 C 0.53207 0.0742 0.65473 0.0
C431 C 0.54481 0.09367 0.65346 0.0
C432 C 0.56825 0.0927 0.65394 0.0
C433 C 0.5786 0.07178 0.65591 0.0
C434 C 0.56584 0.05232 0.6572 0.0
H435 H 0.50116 0.03603 0.69907 0.0
H436 H 0.52551 0.05153 0.69185 0.0
H437 H 0.49857 0.05824 0.68244 0.0
H438 H 0.51409 0.07535 0.65382 0.0
H439 H 0.53628 0.1094 0.65162 0.0
H440 H 0.07384 0.59012 0.41049 0.0
H441 H 0.04031 0.56699 0.40923 0.0
H442 H 0.07061 0.52645 0.36667 0.0
H443 H 0.10438 0.54934 0.36813 0.0
H444 H 1.01115 0.5575 0.38171 0.0
H445 H 0.05359 0.4801 0.40488 0.0
H446 H 0.06681 0.50707 0.40588 0.0
H447 H 0.06544 0.49213 0.38425 0.0
C448 C 0.0733 0.57639 0.40076 0.0
C449 C 0.09182 0.57142 0.38953 0.0
C450 C 0.05415 0.56315 0.40009 0.0
C451 C 0.0531 0.54473 0.38811 0.0
C452 C 0.07127 0.5402 0.37638 0.0
H453 H 0.92836 0.47233 0.36681 0.0
H454 H 0.9616 0.49578 0.36331 0.0
C455 C 0.09052 0.55331 0.3772 0.0
C456 C 0.03309 0.53017 0.38816 0.0
H457 H 0.01586 0.47667 0.39581 0.0
C458 C 1.01215 0.53981 0.38477 0.0
C459 C 0.03442 0.50715 0.39238 0.0
C460 C 0.05623 0.49601 0.39724 0.0
C461 C 0.99249 0.52711 0.38557 0.0
C462 C 0.99389 0.504 0.38942 0.0
C463 C 1.01484 0.49435 0.39269 0.0
C464 C 0.97378 0.48972 0.39119 0.0
C465 C 0.9704 0.53872 0.38292 0.0
C466 C 0.9699 0.47802 0.4078 0.0
C467 C 0.95114 0.46443 0.40972 0.0
C468 C 0.9358 0.46229 0.39508 0.0
C469 C 0.93974 0.47391 0.3784 0.0
C470 C 0.95867 0.48736 0.37642 0.0
H471 H 0.97185 0.55702 0.38494 0.0
H472 H 0.96441 0.53578 0.36854 0.0
H473 H 0.95768 0.53217 0.39273 0.0
H474 H 0.98132 0.47958 0.41939 0.0
H475 H 0.94845 0.45595 0.42282 0.0
H476 H 0.58723 0.95814 0.91246 0.0
H477 H 0.56349 0.99092 0.90973 0.0
H478 H 0.52221 0.95677 0.86996 0.0
H479 H 0.54625 0.92395 0.87205 0.0
H480 H 0.54898 1.0133 0.87034 0.0
H481 H 0.48282 0.9815 0.91804 0.0
H482 H 0.51151 0.9727 0.9203 0.0
H483 H 0.49513 0.96302 0.90114 0.0
C484 C 0.57336 0.95753 0.9029 0.0
C485 C 0.5688 0.93818 0.89248 0.0
C486 C 0.55971 0.97632 0.90146 0.0
C487 C 0.54113 0.97615 0.88971 0.0
C488 C 0.53648 0.95709 0.87918 0.0
H489 H 0.43356 0.07331 0.88071 0.0
H490 H 0.45648 0.03962 0.8789 0.0
C491 C 0.5502 0.93829 0.88051 0.0
C492 C 0.52652 0.99595 0.88866 0.0
H493 H 0.47811 0.01756 0.90583 0.0
C494 C 0.53342 1.01428 0.878 0.0
C495 C 0.50624 0.99697 0.89859 0.0
C496 C 0.49833 0.97759 0.91025 0.0
C497 C 0.52051 0.03378 0.87705 0.0
C498 C 0.5005 0.03514 0.88748 0.0
C499 C 0.49347 0.01657 0.89789 0.0
C500 C 0.4868 0.05576 0.88809 0.0
C501 C 0.5283 0.05257 0.86466 0.0
C502 C 0.49613 0.076 0.89404 0.0
C503 C 0.48309 0.09528 0.89498 0.0
C504 C 0.46035 0.09464 0.89029 0.0
C505 C 0.45098 0.0743 0.88455 0.0
C506 C 0.46408 0.05506 0.88344 0.0
H507 H 0.53949 0.04643 0.85347 0.0
H508 H 0.51399 0.06136 0.85816 0.0
H509 H 0.53784 0.06476 0.87308 0.0
H510 H 0.51344 0.07683 0.89825 0.0
H511 H 0.49069 0.11058 0.8998 0.0
H512 H 0.94981 0.57882 0.92005 0.0
H513 H 0.98352 0.55642 0.91651 0.0
H514 H 0.96034 0.53343 0.86314 0.0
H515 H 0.92633 0.55563 0.86676 0.0
H516 H 0.97566 0.49962 0.88364 0.0
H517 H 0.03766 0.56786 0.8849 0.0
H518 H 0.01996 0.56832 0.90501 0.0
H519 H 1.00817 0.57295 0.8823 0.0
C520 C 0.95202 0.56926 0.90744 0.0
C521 C 0.93545 0.56911 0.89363 0.0
C522 C 0.97135 0.5565 0.9054 0.0
C523 C 0.97471 0.54359 0.88939 0.0
C524 C 0.95817 0.54336 0.87558 0.0
H525 H 0.10368 0.4803 0.86743 0.0
H526 H 0.07015 0.50347 0.86518 0.0
C527 C 0.93872 0.55598 0.87768 0.0
C528 C 0.99497 0.52954 0.8875 0.0
H529 H 0.05181 0.53096 0.88999 0.0
C530 C 0.99232 0.50651 0.88483 0.0
C531 C 0.01674 0.53855 0.88871 0.0
C532 C 0.02084 0.56331 0.89018 0.0
C533 C 1.01078 0.49216 0.88401 0.0
C534 C 0.03248 0.501 0.88642 0.0
C535 C 0.03517 0.52413 0.8884 0.0
C536 C 0.05255 0.48654 0.88739 0.0
C537 C 1.00681 0.4677 0.88043 0.0
C538 C 0.05393 0.46949 0.90074 0.0
C539 C 0.07298 0.45618 0.90195 0.0
C540 C 0.09123 0.45987 0.89005 0.0
C541 C 0.08995 0.47714 0.87685 0.0
C542 C 0.07078 0.49033 0.87552 0.0
H543 H 0.99084 0.46494 0.87297 0.0
H544 H 0.02055 0.46031 0.87211 0.0
H545 H 1.00581 0.45874 0.89391 0.0
H546 H 0.0404 0.46668 0.91044 0.0
H547 H 0.07362 0.44333 0.91252 0.0
H548 H 0.55413 0.10137 0.36553 0.0
H549 H 0.53073 0.06807 0.36258 0.0
H550 H 0.55865 0.04176 0.41329 0.0
H551 H 0.58194 0.07485 0.41637 0.0
H552 H 0.5562 1.01037 0.38484 0.0
H553 H 0.47558 0.05471 0.3945 0.0
H554 H 0.49297 0.06506 0.37604 0.0
H555 H 0.50209 0.06747 0.39973 0.0
C556 C 0.55519 0.08855 0.3761 0.0
C557 C 0.56989 0.09084 0.39121 0.0
C558 C 0.54182 0.06954 0.37439 0.0
C559 C 0.54279 0.05258 0.38784 0.0
C560 C 0.55768 0.05465 0.40274 0.0
H561 H 0.45265 0.95031 0.42141 0.0
H562 H 0.47563 0.98338 0.41688 0.0
C563 C 0.57106 0.07357 0.40444 0.0
C564 C 0.52819 0.03269 0.38667 0.0
H565 H 0.47385 0.01599 0.38927 0.0
C566 C 0.53818 1.01156 0.38566 0.0
C567 C 0.50471 0.03436 0.38791 0.0
C568 C 0.49313 0.05658 0.38976 0.0
C569 C 0.52533 0.992 0.3862 0.0
C570 C 0.50185 0.99367 0.38749 0.0
C571 C 0.49185 1.0148 0.38815 0.0
C572 C 0.48749 0.97372 0.38965 0.0
C573 C 0.53704 0.96973 0.38617 0.0
C574 C 0.48631 0.9574 0.37573 0.0
C575 C 0.47309 0.9384 0.37827 0.0
C576 C 0.46069 0.93549 0.39472 0.0
C577 C 0.46169 0.9521 0.40847 0.0
C578 C 0.47492 0.971 0.40594 0.0
H579 H 0.55516 0.97141 0.38903 0.0
H580 H 0.52963 0.95838 0.39671 0.0
H581 H 0.53508 0.96187 0.37232 0.0
H582 H 0.49557 0.95939 0.36289 0.0
H583 H 0.47244 0.9261 0.3673 0.0
H584 H 0.91758 0.49171 0.64631 0.0
H585 H 0.95161 0.51412 0.64783 0.0
H586 H 0.98936 0.45547 0.66241 0.0
H587 H 0.95542 0.43294 0.66073 0.0
H588 H 0.98008 0.52178 0.6766 0.0
H589 H 0.02501 0.47969 0.61907 0.0
H590 H 0.99566 0.47548 0.62334 0.0
H591 H 0.01609 0.46101 0.63712 0.0
C592 C 0.9331 0.4836 0.64992 0.0
C593 C 0.93382 0.46051 0.65329 0.0
C594 C 0.95255 0.49641 0.65071 0.0
C595 C 0.9731 0.48641 0.6549 0.0
C596 C 0.97381 0.46345 0.65865 0.0
H597 H 0.1071 0.53889 0.66985 0.0
H598 H 0.07355 0.51579 0.66967 0.0
C599 C 0.95439 0.45059 0.65772 0.0
C600 C 0.9937 0.50012 0.65562 0.0
H601 H 0.04582 0.50564 0.63692 0.0
C602 C 0.99442 0.5183 0.66788 0.0
C603 C 1.0124 0.49556 0.6442 0.0
C604 C 1.01225 0.47701 0.63006 0.0
C605 C 1.01342 0.53189 0.66918 0.0
C606 C 0.0321 0.52725 0.65783 0.0
C607 C 0.03147 0.50904 0.64565 0.0
C608 C 0.05231 0.5414 0.65813 0.0
C609 C 1.01353 0.55095 0.68282 0.0
C610 C 0.05149 0.56338 0.65152 0.0
C611 C 0.07069 0.57659 0.65137 0.0
C612 C 0.09115 0.56809 0.65787 0.0
C613 C 0.09181 0.54599 0.66452 0.0
C614 C 0.07261 0.53275 0.66454 0.0
H615 H 0.99985 0.54948 0.69319 0.0
H616 H 0.0297 0.55175 0.6903 0.0
H617 H 1.01133 0.56687 0.67516 0.0
H618 H 0.03603 0.57022 0.64622 0.0
H619 H 0.0695 0.59332 0.64586 0.0
H620 H 0.44789 0.0751 0.12766 0.0
H621 H 0.47075 0.04198 0.13222 0.0
H622 H 0.49533 0.0688 0.18385 0.0
H623 H 0.47233 0.10213 0.17942 0.0
H624 H 0.5288 0.05259 0.16142 0.0
H625 H 0.46125 0.99017 0.16797 0.0
H626 H 0.4586 1.00688 0.14737 0.0
H627 H 0.45628 0.01977 0.16987 0.0
C628 C 0.45782 0.07386 0.14016 0.0
C629 C 0.45811 0.09125 0.15324 0.0
C630 C 0.4709 0.05486 0.14275 0.0
C631 C 0.48441 0.05272 0.15855 0.0
C632 C 0.48489 0.07006 0.17161 0.0
H633 H 0.55335 0.9262 0.18029 0.0
H634 H 0.53028 0.95956 0.18422 0.0
C635 C 0.47182 0.08914 0.16902 0.0
C636 C 0.49882 0.03282 0.16083 0.0
H637 H 0.49773 0.97592 0.16101 0.0
C638 C 0.52201 0.03583 0.16158 0.0
C639 C 0.48993 1.01098 0.16135 0.0
C640 C 0.46514 1.00672 0.1618 0.0
C641 C 0.53658 0.01753 0.16192 0.0
C642 C 0.52772 0.99568 0.16117 0.0
C643 C 0.50451 0.99268 0.16135 0.0
C644 C 0.5422 0.97579 0.15922 0.0
C645 C 0.56135 0.02178 0.16297 0.0
C646 C 0.5563 0.97373 0.14376 0.0
C647 C 0.56941 0.95472 0.14145 0.0
C648 C 0.56857 0.93722 0.15448 0.0
C649 C 0.55429 0.93927 0.16993 0.0
C650 C 0.54118 0.95836 0.17225 0.0
H651 H 0.565 0.03829 0.16925 0.0
H652 H 0.5699 1.00868 0.17123 0.0
H653 H 0.56843 0.02172 0.14871 0.0
H654 H 0.55688 0.98669 0.13326 0.0
H655 H 0.5798 0.95354 0.12919 0.0
H656 H 0.23953 0.56437 0.34125 0.0
H657 H 0.23981 0.54824 0.31004 0.0
H658 H 0.17224 0.52545 0.31778 0.0
H659 H 0.17192 0.54113 0.34911 0.0
H660 H 0.19846 0.49447 0.29981 0.0
H661 H 0.20713 0.57784 0.26687 0.0
H662 H 0.22881 0.57105 0.28311 0.0
H663 H 0.20063 0.57431 0.29119 0.0
C664 C 0.22482 0.55566 0.33642 0.0
C665 C 0.20563 0.55423 0.34765 0.0
C666 C 0.22496 0.54661 0.31851 0.0
C667 C 0.20586 0.53612 0.3114 0.0
C668 C 0.18711 0.53363 0.32292 0.0
H669 H 0.16417 0.51421 0.19828 0.0
H670 H 0.17118 0.52804 0.22967 0.0
C671 C 0.18698 0.54258 0.34086 0.0
C672 C 0.20505 0.52842 0.29178 0.0
H673 H 0.2077 0.54672 0.24679 0.0
C674 C 0.20058 0.50586 0.28821 0.0
C675 C 0.20747 0.54338 0.27665 0.0
C676 C 0.21107 0.56803 0.27957 0.0
C677 C 0.19847 0.49785 0.26994 0.0
C678 C 0.20132 0.51274 0.25481 0.0
C679 C 0.20579 0.53529 0.25839 0.0
C680 C 0.1985 0.50545 0.23521 0.0
C681 C 0.19245 0.47367 0.26705 0.0
C682 C 0.21204 0.48868 0.22763 0.0
C683 C 0.20805 0.48067 0.20968 0.0
C684 C 0.19053 0.48943 0.19889 0.0
C685 C 0.17777 0.50704 0.20618 0.0
C686 C 0.18173 0.51496 0.22416 0.0
H687 H 0.18557 0.46596 0.27989 0.0
H688 H 0.18001 0.47185 0.25573 0.0
H689 H 0.20764 0.46426 0.26306 0.0
H690 H 0.22543 0.48147 0.23574 0.0
H691 H 0.2183 0.4672 0.20447 0.0
H692 H 0.53953 0.17459 0.69778 0.0
H693 H 0.52036 0.17669 0.72778 0.0
H694 H 0.55157 0.24011 0.73857 0.0
H695 H 0.57096 0.23809 0.7087 0.0
H696 H 0.55542 0.20992 0.76802 0.0
H697 H 0.4678 0.21599 0.74378 0.0
H698 H 0.48306 0.19297 0.73418 0.0
H699 H 0.49131 0.22102 0.72862 0.0
C700 C 0.5421 0.18914 0.70641 0.0
C701 C 0.55677 0.20619 0.70079 0.0
C702 C 0.53106 0.19034 0.72354 0.0
C703 C 0.53438 0.20865 0.73535 0.0
C704 C 0.54873 0.22585 0.72966 0.0
H705 H 0.45706 0.23912 0.83455 0.0
H706 H 0.47665 0.24062 0.80474 0.0
C707 C 0.55974 0.22469 0.71253 0.0
C708 C 0.52372 0.20942 0.754 0.0
H709 H 0.47327 0.20957 0.77608 0.0
C710 C 0.53745 0.20994 0.7698 0.0
C711 C 0.50029 0.20965 0.75628 0.0
C712 C 0.48471 0.21008 0.73983 0.0
C713 C 0.52839 0.21031 0.78782 0.0
C714 C 0.50497 0.20988 0.79011 0.0
C715 C 0.49123 0.20975 0.77431 0.0
C716 C 0.4943 0.20955 0.80877 0.0
C717 C 0.54396 0.21144 0.80425 0.0
C718 C 0.49782 0.19164 0.82102 0.0
C719 C 0.48668 0.19074 0.83812 0.0
C720 C 0.47167 0.20769 0.84326 0.0
C721 C 0.46853 0.22581 0.83109 0.0
C722 C 0.47966 0.22667 0.814 0.0
H723 H 0.56079 0.21747 0.80015 0.0
H724 H 0.53723 0.2226 0.8152 0.0
H725 H 0.54584 0.19452 0.8103 0.0
H726 H 0.50875 0.17805 0.81715 0.0
H727 H 0.4894 0.17647 0.84708 0.0
H728 H 0.84231 0.51294 0.18991 0.0
H729 H 0.83901 0.49825 0.22159 0.0
H730 H 0.83437 0.56525 0.24285 0.0
H731 H 0.83712 0.58002 0.21133 0.0
H732 H 0.86714 0.50505 0.25044 0.0
H733 H 0.78315 0.53577 0.26966 0.0
H734 H 0.7931 0.53575 0.24597 0.0
H735 H 0.80124 0.55761 0.26167 0.0
C736 C 0.84027 0.52454 0.2013 0.0
C737 C 0.8399 0.54766 0.19803 0.0
C738 C 0.83842 0.51611 0.21941 0.0
C739 C 0.83609 0.53061 0.23461 0.0
C740 C 0.83556 0.55368 0.23136 0.0
H741 H 0.84437 0.51636 0.35468 0.0
H742 H 0.84175 0.53019 0.32264 0.0
C743 C 0.8373 0.56211 0.21328 0.0
C744 C 0.83563 0.52174 0.25394 0.0
H745 H 0.80595 0.52246 0.29458 0.0
C746 C 0.85365 0.50869 0.26002 0.0
C747 C 0.81806 0.52655 0.26649 0.0
C748 C 0.79769 0.5395 0.26058 0.0
C749 C 0.85481 0.50072 0.27837 0.0
C750 C 0.8374 0.50578 0.29095 0.0
C751 C 0.81932 0.51872 0.2849 0.0
C752 C 0.83769 0.49754 0.3104 0.0
C753 C 0.87488 0.48734 0.28431 0.0
C754 C 0.83579 0.47467 0.31413 0.0
C755 C 0.83719 0.46673 0.33237 0.0
C756 C 0.84054 0.48151 0.34729 0.0
C757 C 0.84185 0.50451 0.34354 0.0
C758 C 0.84034 0.51245 0.32525 0.0
H759 H 0.88882 0.48875 0.27418 0.0
H760 H 0.88087 0.49288 0.29815 0.0
H761 H 0.87015 0.4695 0.28544 0.0
H762 H 0.83346 0.46293 0.30287 0.0
H763 H 0.83603 0.44892 0.33471 0.0
H764 H 0.57957 0.83838 0.83466 0.0
H765 H 0.56458 0.83578 0.80321 0.0
H766 H 0.49768 0.83868 0.82511 0.0
H767 H 0.51256 0.84187 0.85669 0.0
H768 H 0.53742 0.8058 0.7863 0.0
H769 H 0.4969 0.88894 0.78756 0.0
H770 H 0.51627 0.88004 0.80523 0.0
H771 H 0.48777 0.8707 0.80585 0.0
C772 C 0.56164 0.83841 0.83285 0.0
C773 C 0.54727 0.84054 0.84823 0.0
C774 C 0.5531 0.8369 0.81482 0.0
C775 C 0.53002 0.83748 0.81173 0.0
C776 C 0.51557 0.83877 0.8271 0.0
H777 H 0.44902 0.83478 0.71176 0.0
H778 H 0.46313 0.83238 0.74354 0.0
C779 C 0.52411 0.84043 0.84516 0.0
C780 C 0.52121 0.83698 0.7924 0.0
H781 H 0.48982 0.86638 0.76122 0.0
C782 C 0.52704 0.81907 0.78081 0.0
C783 C 0.50778 0.85437 0.78519 0.0
C784 C 0.50196 0.87471 0.79652 0.0
C785 C 0.51957 0.81793 0.76231 0.0
C786 C 0.50604 0.83524 0.75519 0.0
C787 C 0.50014 0.85309 0.76676 0.0
C788 C 0.49783 0.83526 0.73573 0.0
C789 C 0.5259 0.7981 0.75059 0.0
C790 C 0.5127 0.83762 0.72075 0.0
C791 C 0.50468 0.8391 0.7025 0.0
C792 C 0.48164 0.83823 0.69891 0.0
C793 C 0.46686 0.83546 0.71397 0.0
C794 C 0.47488 0.83411 0.73218 0.0
H795 H 0.53238 0.78411 0.75916 0.0
H796 H 0.51135 0.79211 0.74246 0.0
H797 H 0.53911 0.8031 0.7406 0.0
H798 H 0.53047 0.83886 0.72322 0.0
H799 H 0.51651 0.8413 0.69126 0.0
H800 H 0.79139 0.57239 0.8358 0.0
H801 H 0.78962 0.55306 0.80595 0.0
H802 H 0.85312 0.52215 0.81707 0.0
H803 H 0.85498 0.54126 0.84705 0.0
H804 H 0.82002 0.55687 0.77653 0.0
H805 H 0.8138 0.46941 0.80137 0.0
H806 H 0.80867 0.493 0.81633 0.0
H807 H 0.83676 0.4848 0.81095 0.0
C808 C 0.80488 0.56128 0.83203 0.0
C809 C 0.82331 0.55834 0.84388 0.0
C810 C 0.80386 0.55029 0.81492 0.0
C811 C 0.82113 0.53602 0.80934 0.0
C812 C 0.83942 0.5328 0.82122 0.0
H813 H 0.85295 0.49015 0.69788 0.0
H814 H 0.8517 0.50961 0.72772 0.0
C815 C 0.84048 0.5438 0.83834 0.0
C816 C 0.82043 0.52526 0.79077 0.0
H817 H 0.82009 0.47469 0.76904 0.0
C818 C 0.81995 0.5389 0.77488 0.0
C819 C 0.82013 0.50183 0.78865 0.0
C820 C 0.81966 0.48636 0.80521 0.0
C821 C 0.81955 0.52973 0.75692 0.0
C822 C 0.81987 0.50629 0.75479 0.0
C823 C 0.81998 0.49266 0.77069 0.0
C824 C 0.82006 0.49552 0.73622 0.0
C825 C 0.81847 0.54519 0.74037 0.0
C826 C 0.80275 0.48105 0.7311 0.0
C827 C 0.80342 0.46986 0.71406 0.0
C828 C 0.82153 0.47278 0.70184 0.0
C829 C 0.83869 0.4876 0.70689 0.0
C830 C 0.83797 0.49881 0.72393 0.0
H831 H 0.81263 0.5621 0.74436 0.0
H832 H 0.83537 0.54686 0.73424 0.0
H833 H 0.80717 0.53847 0.72952 0.0
H834 H 0.78879 0.47823 0.74039 0.0
H835 H 0.78996 0.45854 0.71068 0.0
H836 H 0.44709 0.83706 0.33533 0.0
H837 H 0.4611 0.83453 0.30348 0.0
H838 H 0.52861 0.8391 0.32361 0.0
H839 H 0.51478 0.84165 0.3556 0.0
H840 H 0.48853 0.86759 0.28549 0.0
H841 H 0.52928 0.78445 0.28798 0.0
H842 H 0.50858 0.79306 0.30477 0.0
H843 H 0.53664 0.80331 0.30637 0.0
C844 C 0.46495 0.8373 0.33305 0.0
C845 C 0.47981 0.83954 0.34807 0.0
C846 C 0.47291 0.83588 0.31481 0.0
C847 C 0.49588 0.83642 0.31119 0.0
C848 C 0.51081 0.83832 0.32612 0.0
H849 H 0.57826 0.83776 0.21238 0.0
H850 H 0.56304 0.83556 0.24383 0.0
C851 C 0.50286 0.83986 0.3444 0.0
C852 C 0.50412 0.83616 0.29171 0.0
H853 H 0.53517 0.80609 0.26083 0.0
C854 C 0.49862 0.8541 0.28003 0.0
C855 C 0.51736 0.81858 0.2847 0.0
C856 C 0.52322 0.79863 0.29651 0.0
C857 C 0.50643 0.8552 0.26163 0.0
C858 C 0.51961 0.83756 0.25453 0.0
C859 C 0.52501 0.81956 0.26622 0.0
C860 C 0.52856 0.83785 0.23523 0.0
C861 C 0.50108 0.87562 0.25018 0.0
C862 C 0.51424 0.83934 0.21983 0.0
C863 C 0.52291 0.84076 0.20177 0.0
C864 C 0.54608 0.84043 0.19874 0.0
C865 C 0.56033 0.83811 0.21416 0.0
C866 C 0.55165 0.83684 0.23219 0.0
H867 H 0.4962 0.88995 0.25906 0.0
H868 H 0.51554 0.88067 0.24149 0.0
H869 H 0.48688 0.87186 0.24082 0.0
H870 H 0.49633 0.83958 0.22177 0.0
H871 H 0.51145 0.84235 0.19022 0.0
H872 H 0.17421 0.48941 0.84932 0.0
H873 H 0.1756 0.50796 0.81899 0.0
H874 H 0.23797 0.47533 0.80691 0.0
H875 H 0.23663 0.45651 0.83707 0.0
H876 H 0.20704 0.53625 0.80262 0.0
H877 H 0.19859 0.45757 0.76278 0.0
H878 H 0.19329 0.45917 0.78745 0.0
H879 H 0.22144 0.45778 0.7789 0.0
C880 C 0.18834 0.48632 0.8403 0.0
C881 C 0.20523 0.47132 0.84561 0.0
C882 C 0.18908 0.49692 0.82294 0.0
C883 C 0.20665 0.49268 0.81052 0.0
C884 C 0.22399 0.47846 0.81609 0.0
H885 H 0.2374 0.56943 0.71063 0.0
H886 H 0.23866 0.55043 0.74071 0.0
C887 C 0.22327 0.46784 0.83342 0.0
C888 C 0.20666 0.5029 0.79166 0.0
H889 H 0.20604 0.49034 0.74532 0.0
C890 C 0.20683 0.52622 0.79009 0.0
C891 C 0.20602 0.4898 0.77532 0.0
C892 C 0.20461 0.46469 0.77611 0.0
C893 C 0.20672 0.53679 0.77263 0.0
C894 C 0.20679 0.52368 0.75627 0.0
C895 C 0.20627 0.50036 0.75785 0.0
C896 C 0.20684 0.53391 0.73742 0.0
C897 C 0.20605 0.56193 0.77185 0.0
C898 C 0.18901 0.53016 0.72519 0.0
C899 C 0.18831 0.54086 0.70788 0.0
C900 C 0.2055 0.55547 0.70242 0.0
C901 C 0.2238 0.55842 0.7144 0.0
C902 C 0.22449 0.54769 0.73169 0.0
H903 H 0.20039 0.56922 0.78523 0.0
H904 H 0.22305 0.56835 0.76891 0.0
H905 H 0.19479 0.56779 0.76062 0.0
H906 H 0.17529 0.51945 0.72926 0.0
H907 H 0.17397 0.53818 0.69902 0.0
H908 H 0.57917 0.19193 0.33304 0.0
H909 H 0.56437 0.19482 0.3015 0.0
H910 H 0.49757 0.18679 0.32265 0.0
H911 H 0.5122 0.18385 0.35436 0.0
H912 H 0.53796 0.16087 0.28362 0.0
H913 H 0.49392 0.24225 0.28766 0.0
H914 H 0.51537 0.23422 0.30396 0.0
H915 H 0.48786 0.22267 0.30595 0.0
C916 C 0.56129 0.19101 0.33107 0.0
C917 C 0.54687 0.18766 0.34628 0.0
C918 C 0.55288 0.19264 0.313 0.0
C919 C 0.52988 0.19121 0.30974 0.0
C920 C 0.51537 0.18826 0.32488 0.0
H921 H 0.44706 0.18925 0.21112 0.0
H922 H 0.46208 0.19113 0.24263 0.0
C923 C 0.52377 0.1865 0.34299 0.0
C924 C 0.52128 0.19155 0.2904 0.0
H925 H 0.48884 0.22119 0.26018 0.0
C926 C 0.52731 0.1741 0.27844 0.0
C927 C 0.5073 0.20876 0.28375 0.0
C928 C 0.5008 0.22817 0.2959 0.0
C929 C 0.5194 0.17317 0.26009 0.0
C930 C 0.50554 0.1905 0.25333 0.0
C931 C 0.49953 0.20797 0.26532 0.0
C932 C 0.49665 0.19045 0.23403 0.0
C933 C 0.52543 0.15326 0.24831 0.0
C934 C 0.51107 0.18998 0.21863 0.0
C935 C 0.50254 0.18875 0.20054 0.0
C936 C 0.47938 0.18825 0.19749 0.0
C937 C 0.46499 0.18955 0.21293 0.0
C938 C 0.47354 0.19064 0.23099 0.0
H939 H 0.5308 0.13887 0.25695 0.0
H940 H 0.51113 0.14796 0.23957 0.0
H941 H 0.53948 0.15776 0.23898 0.0
H942 H 0.52897 0.19039 0.22059 0.0
H943 H 0.5141 0.18796 0.18898 0.0
H944 H 0.17192 0.4548 0.94981 0.0
H945 H 0.17497 0.45719 0.98354 0.0
H946 H 0.24654 0.45259 0.97941 0.0
H947 H 0.24368 0.45047 0.94545 0.0
H948 H 0.19294 0.42475 1.00638 0.0
H949 H 0.238 0.50501 1.01522 0.0
H950 H 0.22462 0.49734 0.99368 0.0
H951 H 0.25105 0.48535 0.99985 0.0
C952 C 0.18837 0.45455 0.95599 0.0
C953 C 0.20757 0.45242 0.94486 0.0
C954 C 0.19007 0.45591 0.97532 0.0
C955 C 0.21097 0.45526 0.98404 0.0
C956 C 0.23025 0.45354 0.973 0.0
H957 H 0.24414 0.44916 0.10271 0.0
H958 H 0.24628 0.45087 0.06867 0.0
C959 C 0.22858 0.45222 0.95357 0.0
C960 C 0.21223 0.45497 1.00469 0.0
H961 H 0.2313 0.48377 0.04246 0.0
C962 C 0.20133 0.43768 1.01425 0.0
C963 C 0.22332 0.47173 1.01497 0.0
C964 C 0.23478 0.49104 1.00547 0.0
C965 C 0.2011 0.43672 0.03375 0.0
C966 C 0.21174 0.45374 0.04405 0.0
C967 C 0.22308 0.4708 0.03453 0.0
C968 C 0.2107 0.45427 0.06469 0.0
C969 C 0.18961 0.41736 0.04317 0.0
C970 C 0.19007 0.45623 0.07376 0.0
C971 C 0.18877 0.45525 0.09315 0.0
C972 C 0.20813 0.4524 0.10394 0.0
C973 C 0.2289 0.45129 0.09485 0.0
C974 C 0.23016 0.45228 0.07539 0.0
H975 H 0.18762 0.40296 0.03361 0.0
H976 H 0.19903 0.41178 0.05561 0.0
H977 H 0.17274 0.42263 0.04773 0.0
H978 H 0.17487 0.45822 0.0658 0.0
H979 H 0.17251 0.45634 0.09966 0.0
H980 H 0.5928 0.20895 0.4445 0.0
H981 H 0.59024 0.2137 0.47827 0.0
H982 H 0.53132 0.17254 0.47942 0.0
H983 H 0.53391 0.1674 0.44581 0.0
H984 H 0.5568 0.22915 0.50319 0.0
H985 H 0.57493 0.13924 0.51341 0.0
H986 H 0.57867 0.15307 0.49133 0.0
H987 H 0.55131 0.14456 0.49876 0.0
C988 C 0.57909 0.20119 0.45189 0.0
C989 C 0.56372 0.18754 0.44247 0.0
C990 C 0.57767 0.20391 0.47121 0.0
C991 C 0.56089 0.19306 0.48141 0.0
C992 C 0.54471 0.18065 0.47188 0.0
H993 H 0.53275 0.16993 0.59781 0.0
H994 H 0.53076 0.17434 0.56409 0.0
C995 C 0.54617 0.17782 0.45263 0.0
C996 C 0.561 0.19354 0.50207 0.0
H997 H 0.5648 0.15973 0.5402 0.0
C998 C 0.55861 0.21401 0.51131 0.0
C999 C 0.56355 0.17377 0.51264 0.0
C1000 C 0.56748 0.15143 0.50357 0.0
C1001 C 0.55811 0.21512 0.53086 0.0
C1002 C 0.56031 0.19528 0.54138 0.0
C1003 C 0.56291 0.17489 0.53211 0.0
C1004 C 0.56018 0.19508 0.56204 0.0
C1005 C 0.55477 0.23741 0.54012 0.0
C1006 C 0.57723 0.20552 0.57215 0.0
C1007 C 0.57845 0.20301 0.5915 0.0
C1008 C 0.56268 0.1899 0.60107 0.0
C1009 C 0.54518 0.18013 0.59093 0.0
C1010 C 0.54401 0.18262 0.57163 0.0
H1011 H 0.54815 0.25007 0.53028 0.0
H1012 H 0.54316 0.23592 0.55209 0.0
H1013 H 0.57103 0.24349 0.54544 0.0
H1014 H 0.59011 0.21489 0.56502 0.0
H1015 H 0.59219 0.2107 0.59884 0.0
H1016 H 0.86131 0.53732 0.09649 0.0
H1017 H 0.85381 0.53561 0.06316 0.0
H1018 H 0.80577 0.58866 0.06856 0.0
H1019 H 0.81339 0.59074 0.10197 0.0
H1020 H 0.81474 0.52923 0.04161 0.0
H1021 H 0.85155 0.6135 0.03125 0.0
H1022 H 0.85476 0.59808 0.05264 0.0
H1023 H 0.82892 0.61194 0.04759 0.0
C1024 C 0.84893 0.54846 0.09068 0.0
C1025 C 0.83815 0.56435 0.1019 0.0
C1026 C 0.84464 0.54742 0.0716 0.0
C1027 C 0.82955 0.56228 0.06332 0.0
C1028 C 0.8178 0.57732 0.07462 0.0
H1029 H 0.81322 0.59123 0.94476 0.0
H1030 H 0.80646 0.58929 0.97829 0.0
C1031 C 0.82208 0.57838 0.09374 0.0
C1032 C 0.82727 0.56282 0.04277 0.0
H1033 H 0.83856 0.59499 1.00466 0.0
C1034 C 0.81977 0.54365 0.03351 0.0
C1035 C 0.83389 0.58166 0.03223 0.0
C1036 C 0.84291 0.60243 0.04135 0.0
C1037 C 0.81887 0.54276 1.01399 0.0
C1038 C 0.82604 0.56139 1.00345 0.0
C1039 C 0.83298 0.58074 1.01274 0.0
C1040 C 0.82791 0.56081 0.98285 0.0
C1041 C 0.81021 0.52187 1.00485 0.0
C1042 C 0.84204 0.54531 0.9742 0.0
C1043 C 0.84589 0.54633 0.95503 0.0
C1044 C 0.83587 0.56303 0.94412 0.0
C1045 C 0.82118 0.57812 0.95272 0.0
C1046 C 0.81731 0.57707 0.9719 0.0
H1047 H 0.79899 0.51241 1.01431 0.0
H1048 H 0.80102 0.52581 0.99186 0.0
H1049 H 0.82449 0.51091 1.00129 0.0
H1050 H 0.85082 0.53294 0.98237 0.0
H1051 H 0.85739 0.53451 0.94891 0.0
H1052 H 0.43996 0.81192 0.60217 0.0
H1053 H 0.44279 0.80421 0.56883 0.0
H1054 H 0.49603 0.85221 0.56404 0.0
H1055 H 0.49355 0.85979 0.59728 0.0
H1056 H 0.43518 0.83554 0.54181 0.0
H1057 H 0.52008 0.80097 0.53317 0.0
H1058 H 0.50637 0.80248 0.5555 0.0
H1059 H 0.5199 0.82668 0.54587 0.0
C1060 C 0.45262 0.82046 0.59411 0.0
C1061 C 0.4665 0.83652 0.60243 0.0
C1062 C 0.45418 0.81606 0.57504 0.0
C1063 C 0.46978 0.82744 0.56394 0.0
C1064 C 0.4842 0.84285 0.57235 0.0
H1065 H 0.49255 0.86106 0.45033 0.0
H1066 H 0.49447 0.85356 0.48367 0.0
C1067 C 0.48264 0.84728 0.59138 0.0
C1068 C 0.46945 0.82508 0.54337 0.0
H1069 H 0.5026 0.81533 0.50556 0.0
C1070 C 0.4498 0.83072 0.53388 0.0
C1071 C 0.48858 0.81893 0.53303 0.0
C1072 C 0.50986 0.81171 0.54242 0.0
C1073 C 0.44902 0.8314 0.51437 0.0
C1074 C 0.46833 0.82583 0.50403 0.0
C1075 C 0.48781 0.81957 0.5135 0.0
C1076 C 0.46897 0.82806 0.48345 0.0
C1077 C 0.42785 0.83914 0.50504 0.0
C1078 C 0.45459 0.8156 0.4721 0.0
C1079 C 0.45339 0.81989 0.45298 0.0
C1080 C 0.46664 0.83666 0.44485 0.0
C1081 C 0.482 0.84812 0.45611 0.0
C1082 C 0.48316 0.84384 0.4752 0.0
H1083 H 0.41624 0.84726 0.51499 0.0
H1084 H 0.43162 0.8511 0.49366 0.0
H1085 H 0.41917 0.82458 0.49891 0.0
H1086 H 0.4438 0.80302 0.47812 0.0
H1087 H 0.44147 0.81065 0.44472 0.0
H1088 H 0.17337 0.57659 0.4513 0.0
H1089 H 0.17734 0.57345 0.48495 0.0
H1090 H 0.24887 0.57185 0.47912 0.0
H1091 H 0.24509 0.57529 0.44528 0.0
H1092 H 0.19771 0.54031 0.50651 0.0
H1093 H 0.23875 0.62262 0.51643 0.0
H1094 H 0.2249 0.61513 0.49507 0.0
H1095 H 0.25204 0.60412 0.50022 0.0
C1096 C 0.18999 0.57555 0.45711 0.0
C1097 C 0.20893 0.57633 0.44554 0.0
C1098 C 0.19221 0.57372 0.47638 0.0
C1099 C 0.21339 0.57273 0.4846 0.0
C1100 C 0.23236 0.573 0.47312 0.0
H1101 H 0.24406 0.57472 0.60435 0.0
H1102 H 0.24796 0.5712 0.5705 0.0
C1103 C 0.23016 0.57483 0.45376 0.0
C1104 C 0.21532 0.57155 0.50519 0.0
H1105 H 0.23248 0.60094 0.54325 0.0
C1106 C 0.20545 0.55349 0.51454 0.0
C1107 C 0.2255 0.58872 0.51566 0.0
C1108 C 0.23577 0.60886 0.50641 0.0
C1109 C 0.20516 0.5523 0.53405 0.0
C1110 C 0.21467 0.56982 0.54453 0.0
C1111 C 0.2252 0.58752 0.5352 0.0
C1112 C 0.21248 0.57088 0.56511 0.0
C1113 C 0.1946 0.53229 0.54326 0.0
C1114 C 0.19127 0.57202 0.57331 0.0
C1115 C 0.18899 0.57404 0.59256 0.0
C1116 C 0.20789 0.5751 0.60412 0.0
C1117 C 0.22916 0.57384 0.59589 0.0
C1118 C 0.23142 0.57187 0.57655 0.0
H1119 H 0.19439 0.51764 0.53384 0.0
H1120 H 0.20355 0.52768 0.55622 0.0
H1121 H 0.17707 0.5363 0.54692 0.0
H1122 H 0.17642 0.57178 0.56476 0.0
H1123 H 0.17234 0.57507 0.59836 0.0
H1124 H 0.43569 0.21192 0.94531 0.0
H1125 H 0.43795 0.21597 0.97912 0.0
H1126 H 0.49796 0.17644 0.97974 0.0
H1127 H 0.49582 0.1722 0.94602 0.0
H1128 H 0.46388 0.16119 1.00379 0.0
H1129 H 0.48006 0.25161 1.01361 0.0
H1130 H 0.45731 0.24484 0.99837 0.0
H1131 H 0.48528 0.23753 0.99185 0.0
C1132 C 0.4496 0.20442 0.95258 0.0
C1133 C 0.46554 0.19166 0.94292 0.0
C1134 C 0.45093 0.20685 0.97192 0.0
C1135 C 0.46823 0.19666 0.98194 0.0
C1136 C 0.48453 0.18453 0.97227 0.0
H1137 H 0.49433 0.16844 0.09826 0.0
H1138 H 0.49722 0.17384 0.06467 0.0
C1139 C 0.48327 0.18214 0.95297 0.0
C1140 C 0.46823 0.19677 1.00258 0.0
H1141 H 0.47171 0.23051 0.04072 0.0
C1142 C 0.46574 0.17633 1.01187 0.0
C1143 C 0.47039 0.21658 1.01307 0.0
C1144 C 0.47359 0.23891 1.00378 0.0
C1145 C 0.46514 0.17513 0.03134 0.0
C1146 C 0.46764 0.19488 0.04189 0.0
C1147 C 0.46995 0.21539 0.03262 0.0
C1148 C 0.46766 0.19434 0.06254 0.0
C1149 C 0.46126 0.15275 0.04043 0.0
C1150 C 0.4508 0.20513 0.07266 0.0
C1151 C 0.44923 0.20226 0.09196 0.0
C1152 C 0.46449 0.18853 0.10144 0.0
C1153 C 0.48215 0.17892 0.09138 0.0
C1154 C 0.48377 0.18189 0.07215 0.0
H1155 H 0.45386 0.14056 0.0306 0.0
H1156 H 0.47744 0.14592 0.04527 0.0
H1157 H 0.45004 0.1543 0.05265 0.0
H1158 H 0.43828 0.21494 0.06553 0.0
H1159 H 0.43544 0.20995 0.09928 0.0
H1160 H 0.86 0.49311 0.44936 0.0
H1161 H 0.85275 0.49452 0.48276 0.0
H1162 H 0.80517 0.44103 0.47748 0.0
H1163 H 0.8125 0.43927 0.44401 0.0
H1164 H 0.81353 0.50016 0.50473 0.0
H1165 H 0.85194 0.41648 0.51416 0.0
H1166 H 0.85478 0.43223 0.4929 0.0
H1167 H 0.8292 0.41786 0.49797 0.0
C1168 C 0.84775 0.48182 0.45521 0.0
C1169 C 0.83703 0.46589 0.444 0.0
C1170 C 0.84361 0.48268 0.47433 0.0
C1171 C 0.82874 0.46761 0.48266 0.0
C1172 C 0.81702 0.45255 0.47138 0.0
H1173 H 0.8133 0.43695 0.60101 0.0
H1174 H 0.80681 0.43901 0.56746 0.0
C1175 C 0.82114 0.45167 0.45222 0.0
C1176 C 0.8267 0.46683 0.50323 0.0
H1177 H 0.83884 0.43446 0.541 0.0
C1178 C 0.8189 0.48575 0.51268 0.0
C1179 C 0.83374 0.44802 0.51357 0.0
C1180 C 0.84306 0.42752 0.50421 0.0
C1181 C 0.81808 0.4864 0.53222 0.0
C1182 C 0.82568 0.46779 0.54256 0.0
C1183 C 0.83295 0.44869 0.53307 0.0
C1184 C 0.82752 0.46811 0.56318 0.0
C1185 C 0.80903 0.50698 0.54157 0.0
C1186 C 0.84118 0.48389 0.57199 0.0
C1187 C 0.84487 0.48281 0.59116 0.0
C1188 C 0.83516 0.46577 0.60194 0.0
C1189 C 0.82101 0.45032 0.59316 0.0
C1190 C 0.8173 0.45145 0.57397 0.0
H1191 H 0.79758 0.5163 0.53225 0.0
H1192 H 0.79998 0.5027 0.55458 0.0
H1193 H 0.82309 0.51821 0.54514 0.0
H1194 H 0.84969 0.49658 0.56393 0.0
H1195 H 0.85595 0.49491 0.59741 0.0
H1196 H 0.59281 0.81864 0.10078 0.0
H1197 H 0.59073 0.814 0.06696 0.0
H1198 H 0.53188 0.8552 0.06546 0.0
H1199 H 0.53395 0.86016 0.0991 0.0
H1200 H 0.55661 0.79905 0.04136 0.0
H1201 H 0.57747 0.88864 0.03258 0.0
H1202 H 0.58079 0.87417 0.05442 0.0
H1203 H 0.55368 0.8835 0.04715 0.0
C1204 C 0.5792 0.8264 0.0933 0.0
C1205 C 0.56371 0.84002 0.10264 0.0
C1206 C 0.57805 0.82373 0.07397 0.0
C1207 C 0.56142 0.83463 0.06367 0.0
C1208 C 0.54511 0.847 0.0731 0.0
H1209 H 0.53565 0.86251 0.94803 0.0
H1210 H 0.53314 0.85665 0.98156 0.0
C1211 C 0.54628 0.84974 0.09237 0.0
C1212 C 0.56194 0.83448 0.04302 0.0
H1213 H 0.56726 0.86895 1.00545 0.0
C1214 C 0.55901 0.81429 0.03347 0.0
C1215 C 0.56526 0.85436 0.03277 0.0
C1216 C 0.56969 0.87638 0.04221 0.0
C1217 C 0.55865 0.8136 1.01389 0.0
C1218 C 0.56158 0.83359 1.00368 0.0
C1219 C 0.56481 0.85367 1.01328 0.0
C1220 C 0.56142 0.83435 0.98302 0.0
C1221 C 0.55461 0.79165 1.0043 0.0
C1222 C 0.57791 0.8234 0.9726 0.0
C1223 C 0.57938 0.82668 0.95333 0.0
C1224 C 0.56449 0.84115 0.94418 0.0
C1225 C 0.54744 0.85132 0.95459 0.0
C1226 C 0.54597 0.848 0.97379 0.0
H1227 H 0.54738 0.77905 1.01392 0.0
H1228 H 0.54322 0.79379 0.99227 0.0
H1229 H 0.5707 0.78508 0.99901 0.0
H1230 H 0.59025 0.8131 0.97945 0.0
H1231 H 0.59278 0.81868 0.94577 0.0
H1232 H 0.21581 0.33919 0.17712 0.0
H1233 H 0.24405 0.31101 0.17063 0.0
H1234 H 0.27545 0.35524 0.13117 0.0
H1235 H 0.24745 0.3839 0.13803 0.0
H1236 H 0.25644 0.2901 0.13731 0.0
H1237 H 0.32622 0.33952 0.16741 0.0
H1238 H 0.29736 0.34676 0.17118 0.0
H1239 H 0.31039 0.35267 0.14923 0.0
C1240 C 0.22874 0.34298 0.1671 0.0
C1241 C 0.22954 0.3639 0.15828 0.0
C1242 C 0.24479 0.3268 0.16331 0.0
C1243 C 0.26205 0.33116 0.15065 0.0
C1244 C 0.26247 0.35168 0.14123 0.0
H1245 H 0.37696 0.24218 0.13257 0.0
H1246 H 0.35069 0.27311 0.12882 0.0
C1247 C 0.24633 0.36795 0.14501 0.0
C1248 C 0.27975 0.31423 0.14791 0.0
H1249 H 0.33452 0.30327 0.15721 0.0
C1250 C 0.27357 0.29305 0.14145 0.0
C1251 C 0.3021 0.31816 0.15329 0.0
C1252 C 0.30951 0.34043 0.16079 0.0
C1253 C 0.28899 0.27549 0.14075 0.0
C1254 C 0.31107 0.27915 0.1469 0.0
C1255 C 0.31755 0.30056 0.15255 0.0
C1256 C 0.32708 0.26053 0.14902 0.0
C1257 C 0.28145 0.25305 0.13373 0.0
C1258 C 0.3227 0.2435 0.16188 0.0
C1259 C 0.33772 0.22596 0.16421 0.0
C1260 C 0.35753 0.22504 0.15373 0.0
C1261 C 0.36201 0.24236 0.14099 0.0
C1262 C 0.34695 0.26 0.13873 0.0
H1263 H 0.26638 0.25451 0.12484 0.0
H1264 H 0.29487 0.24476 0.12565 0.0
H1265 H 0.2772 0.24223 0.14576 0.0
H1266 H 0.30769 0.24388 0.17028 0.0
H1267 H 0.33388 0.21329 0.17444 0.0
H1268 H 0.78733 0.37505 0.63691 0.0
H1269 H 0.75609 0.34883 0.63474 0.0
H1270 H 0.77027 0.32506 0.69007 0.0
H1271 H 0.80096 0.35152 0.69257 0.0
H1272 H 0.75723 0.30222 0.63767 0.0
H1273 H 0.70357 0.33859 0.69247 0.0
H1274 H 0.7267 0.35356 0.68229 0.0
H1275 H 0.73146 0.33323 0.70028 0.0
C1276 C 0.78361 0.36446 0.64871 0.0
C1277 C 0.79668 0.36546 0.66493 0.0
C1278 C 0.76583 0.34941 0.6474 0.0
C1279 C 0.76065 0.33525 0.66235 0.0
C1280 C 0.7737 0.33613 0.6785 0.0
H1281 H 0.67822 0.22459 0.69068 0.0
H1282 H 0.70445 0.25556 0.68839 0.0
C1283 C 0.79146 0.3511 0.67981 0.0
C1284 C 0.74216 0.31891 0.66097 0.0
H1285 H 0.69482 0.30136 0.68301 0.0
C1286 C 0.74339 0.30218 0.64739 0.0
C1287 C 0.72409 0.31897 0.67364 0.0
C1288 C 0.7212 0.33718 0.68788 0.0
C1289 C 0.72762 0.28486 0.64674 0.0
C1290 C 0.71004 0.28448 0.65986 0.0
C1291 C 0.7084 0.30163 0.67303 0.0
C1292 C 0.69393 0.26576 0.66091 0.0
C1293 C 0.73045 0.26658 0.63255 0.0
C1294 C 0.67914 0.26132 0.64627 0.0
C1295 C 0.66415 0.24347 0.64749 0.0
C1296 C 0.66367 0.22975 0.66339 0.0
C1297 C 0.67837 0.23449 0.6781 0.0
C1298 C 0.69328 0.25232 0.67688 0.0
H1299 H 0.74716 0.26703 0.62588 0.0
H1300 H 0.72802 0.24995 0.63907 0.0
H1301 H 0.7177 0.26857 0.62151 0.0
H1302 H 0.67914 0.2717 0.63393 0.0
H1303 H 0.65315 0.24025 0.63589 0.0
H1304 H 0.81523 0.6905 0.18117 0.0
H1305 H 0.78461 0.71709 0.17906 0.0
H1306 H 0.7565 0.67997 0.1335 0.0
H1307 H 0.78731 0.65325 0.1354 0.0
H1308 H 0.7734 0.74327 0.14784 0.0
H1309 H 0.70329 0.6881 0.16934 0.0
H1310 H 0.7321 0.68097 0.17353 0.0
H1311 H 0.72053 0.67813 0.15065 0.0
C1312 C 0.80265 0.68798 0.17062 0.0
C1313 C 0.80383 0.66974 0.1584 0.0
C1314 C 0.78506 0.70315 0.16952 0.0
C1315 C 0.76818 0.70039 0.15625 0.0
C1316 C 0.76915 0.68217 0.14407 0.0
H1317 H 0.65281 0.78758 0.13623 0.0
H1318 H 0.68007 0.75727 0.13373 0.0
C1319 C 0.78678 0.66693 0.14517 0.0
C1320 C 0.75016 0.71721 0.15486 0.0
H1321 H 0.69427 0.72519 0.16131 0.0
C1322 C 0.75609 0.7393 0.15071 0.0
C1323 C 0.72756 0.71193 0.15846 0.0
C1324 C 0.72039 0.68855 0.16338 0.0
C1325 C 0.7401 0.75634 0.15036 0.0
C1326 C 0.71764 0.75123 0.15458 0.0
C1327 C 0.71153 0.72903 0.15814 0.0
C1328 C 0.7006 0.76897 0.1564 0.0
C1329 C 0.7474 0.77972 0.14552 0.0
C1330 C 0.70287 0.78523 0.17023 0.0
C1331 C 0.68734 0.80245 0.17175 0.0
C1332 C 0.66911 0.80375 0.1595 0.0
C1333 C 0.66656 0.78705 0.14594 0.0
C1334 C 0.68216 0.76976 0.14444 0.0
H1335 H 0.76342 0.77979 0.13774 0.0
H1336 H 0.73458 0.78839 0.13705 0.0
H1337 H 0.74987 0.78933 0.15853 0.0
H1338 H 0.71672 0.78462 0.17988 0.0
H1339 H 0.68957 0.81465 0.18264 0.0
H1340 H 0.22763 0.67701 0.69141 0.0
H1341 H 0.25774 0.70365 0.68719 0.0
H1342 H 0.2694 0.67856 0.6319 0.0
H1343 H 0.23842 0.65239 0.63565 0.0
H1344 H 0.30178 0.69658 0.68055 0.0
H1345 H 0.26426 0.74505 0.62247 0.0
H1346 H 0.24844 0.72523 0.636 0.0
H1347 H 0.2673 0.71571 0.61829 0.0
C1348 C 0.23624 0.67729 0.6782 0.0
C1349 C 0.23025 0.66262 0.66379 0.0
C1350 C 0.25368 0.69245 0.67589 0.0
C1351 C 0.26564 0.69336 0.65914 0.0
C1352 C 0.26011 0.67849 0.64482 0.0
H1353 H 0.37546 0.78626 0.63317 0.0
H1354 H 0.35024 0.75399 0.63187 0.0
C1355 C 0.24252 0.66333 0.64708 0.0
C1356 C 0.28395 0.70985 0.65701 0.0
H1357 H 0.2998 0.75635 0.63281 0.0
C1358 C 0.30141 0.70954 0.67002 0.0
C1359 C 0.28351 0.72674 0.64323 0.0
C1360 C 0.26481 0.72842 0.62928 0.0
C1361 C 0.31809 0.72595 0.6699 0.0
C1362 C 0.31724 0.74317 0.6565 0.0
C1363 C 0.30035 0.74306 0.64304 0.0
C1364 C 0.33273 0.76237 0.65721 0.0
C1365 C 0.33633 0.725 0.6843 0.0
C1366 C 0.33103 0.77777 0.67178 0.0
C1367 C 0.34525 0.79618 0.67249 0.0
C1368 C 0.36153 0.79952 0.65868 0.0
C1369 C 0.36323 0.78401 0.64409 0.0
C1370 C 0.3488 0.76566 0.64329 0.0
H1371 H 0.33758 0.70824 0.69081 0.0
H1372 H 0.35269 0.72938 0.67803 0.0
H1373 H 0.33271 0.73729 0.69541 0.0
H1374 H 0.31859 0.77559 0.68257 0.0
H1375 H 0.34368 0.80765 0.68401 0.0
H1376 H 0.33202 0.82183 0.40416 0.0
H1377 H 0.30561 0.79081 0.40549 0.0
H1378 H 0.35634 0.74644 0.38454 0.0
H1379 H 0.38295 0.77741 0.38365 0.0
H1380 H 0.29028 0.76743 0.37741 0.0
H1381 H 0.33173 0.70958 0.42646 0.0
H1382 H 0.34053 0.73815 0.42357 0.0
H1383 H 0.34939 0.71715 0.40732 0.0
C1384 C 0.33756 0.80542 0.39998 0.0
C1385 C 0.35952 0.80203 0.39378 0.0
C1386 C 0.3225 0.78769 0.4008 0.0
C1387 C 0.32903 0.76619 0.39535 0.0
C1388 C 0.35105 0.76271 0.38932 0.0
H1389 H 0.23871 0.66567 0.35448 0.0
H1390 H 0.267 0.69446 0.35879 0.0
C1391 C 0.36622 0.78043 0.38872 0.0
C1392 C 0.3123 0.74795 0.39463 0.0
H1393 H 0.30175 0.69443 0.40847 0.0
C1394 C 0.29274 0.75154 0.38434 0.0
C1395 C 0.31534 0.7273 0.40386 0.0
C1396 C 0.33528 0.72287 0.41608 0.0
C1397 C 0.27638 0.73498 0.3827 0.0
C1398 C 0.27993 0.71394 0.39113 0.0
C1399 C 0.29921 0.71047 0.40181 0.0
C1400 C 0.26388 0.69535 0.38876 0.0
C1401 C 0.25532 0.74031 0.37212 0.0
C1402 C 0.25344 0.68554 0.40424 0.0
C1403 C 0.23735 0.66887 0.4018 0.0
C1404 C 0.23143 0.66183 0.38384 0.0
C1405 C 0.24251 0.67115 0.36845 0.0
C1406 C 0.25868 0.6876 0.3709 0.0
H1407 H 0.25225 0.75856 0.37149 0.0
H1408 H 0.25697 0.73419 0.35764 0.0
H1409 H 0.24058 0.73215 0.37856 0.0
H1410 H 0.25733 0.69117 0.41816 0.0
H1411 H 0.22908 0.66199 0.4139 0.0
H1412 H 0.37339 0.23931 0.90983 0.0
H1413 H 0.3455 0.26885 0.91353 0.0
H1414 H 0.32143 0.25626 0.85811 0.0
H1415 H 0.34928 0.2271 0.85416 0.0
H1416 H 0.33768 0.30821 0.89106 0.0
H1417 H 0.26532 0.25067 0.89138 0.0
H1418 H 0.29354 0.24128 0.89527 0.0
H1419 H 0.28385 0.24664 0.87204 0.0
C1420 C 0.36229 0.24293 0.89837 0.0
C1421 C 0.36347 0.23058 0.88176 0.0
C1422 C 0.34631 0.25977 0.90055 0.0
C1423 C 0.33116 0.26444 0.88622 0.0
C1424 C 0.33264 0.25256 0.8695 0.0
H1425 H 0.22472 0.3506 0.85637 0.0
H1426 H 0.25463 0.3234 0.85942 0.0
C1427 C 0.34857 0.23582 0.8673 0.0
C1428 C 0.31369 0.28171 0.88852 0.0
H1429 H 0.25733 0.28924 0.88676 0.0
C1430 C 0.32009 0.30411 0.8904 0.0
C1431 C 0.29077 0.27624 0.88774 0.0
C1432 C 0.2829 0.25238 0.88668 0.0
C1433 C 0.30414 0.3213 0.89053 0.0
C1434 C 0.28127 0.31585 0.889 0.0
C1435 C 0.27489 0.29339 0.88782 0.0
C1436 C 0.26369 0.33312 0.88733 0.0
C1437 C 0.31189 0.3452 0.89147 0.0
C1438 C 0.25882 0.34767 0.90205 0.0
C1439 C 0.24152 0.36325 0.90041 0.0
C1440 C 0.22871 0.36444 0.88404 0.0
C1441 C 0.23388 0.34994 0.8693 0.0
C1442 C 0.2511 0.33443 0.87096 0.0
H1443 H 0.33017 0.34674 0.8893 0.0
H1444 H 0.30318 0.35549 0.88088 0.0
H1445 H 0.3078 0.35211 0.90536 0.0
H1446 H 0.26811 0.34669 0.91493 0.0
H1447 H 0.23786 0.37398 0.91209 0.0
H1448 H 0.65138 0.24267 0.40827 0.0
H1449 H 0.6767 0.27473 0.40948 0.0
H1450 H 0.7139 0.24806 0.36327 0.0
H1451 H 0.68844 0.21646 0.36163 0.0
H1452 H 0.72289 0.27425 0.41515 0.0
H1453 H 0.70232 0.31234 0.34711 0.0
H1454 H 0.68473 0.29175 0.35814 0.0
H1455 H 0.7091 0.28328 0.34536 0.0
C1456 C 0.66476 0.2438 0.39821 0.0
C1457 C 0.66784 0.22698 0.38484 0.0
C1458 C 0.67927 0.26206 0.39898 0.0
C1459 C 0.69696 0.26394 0.38628 0.0
C1460 C 0.7001 0.24717 0.37298 0.0
H1461 H 0.81435 0.33962 0.36522 0.0
H1462 H 0.78281 0.31392 0.3663 0.0
C1463 C 0.68567 0.22894 0.37221 0.0
C1464 C 0.71283 0.28283 0.38732 0.0
H1465 H 0.73656 0.3241 0.36119 0.0
C1466 C 0.72567 0.28539 0.40348 0.0
C1467 C 0.71635 0.29737 0.37209 0.0
C1468 C 0.70224 0.29623 0.35476 0.0
C1469 C 0.74274 0.3014 0.40445 0.0
C1470 C 0.74681 0.31534 0.38893 0.0
C1471 C 0.73346 0.31329 0.37303 0.0
C1472 C 0.76571 0.33123 0.38847 0.0
C1473 C 0.75692 0.30262 0.42173 0.0
C1474 C 0.76644 0.34961 0.40049 0.0
C1475 C 0.78455 0.36432 0.39997 0.0
C1476 C 0.80224 0.36089 0.38742 0.0
C1477 C 0.80125 0.34256 0.37528 0.0
C1478 C 0.78314 0.32794 0.37577 0.0
H1479 H 0.75426 0.28805 0.43104 0.0
H1480 H 0.77488 0.30353 0.41802 0.0
H1481 H 0.75263 0.31794 0.42958 0.0
H1482 H 0.75299 0.35259 0.41023 0.0
H1483 H 0.78485 0.37818 0.40957 0.0
H1484 H 0.80724 0.68261 0.85745 0.0
H1485 H 0.7768 0.70932 0.86018 0.0
H1486 H 0.75598 0.67841 0.9115 0.0
H1487 H 0.78695 0.652 0.90924 0.0
H1488 H 0.73106 0.70138 0.86197 0.0
H1489 H 0.76113 0.74428 0.9257 0.0
H1490 H 0.7787 0.72599 0.91222 0.0
H1491 H 0.75796 0.71457 0.92756 0.0
C1492 C 0.79643 0.68161 0.86947 0.0
C1493 C 0.79975 0.66522 0.88322 0.0
C1494 C 0.77889 0.69681 0.87092 0.0
C1495 C 0.7643 0.69605 0.88616 0.0
C1496 C 0.76727 0.67954 0.89978 0.0
H1497 H 0.65419 0.78827 0.91099 0.0
H1498 H 0.67927 0.75595 0.9119 0.0
C1499 C 0.78487 0.66429 0.89836 0.0
C1500 C 0.74594 0.71255 0.88754 0.0
H1501 H 0.7271 0.75672 0.91303 0.0
C1502 C 0.73012 0.7134 0.87319 0.0
C1503 C 0.74467 0.72814 0.90225 0.0
C1504 C 0.76159 0.72842 0.91776 0.0
C1505 C 0.7133 0.72966 0.87297 0.0
C1506 C 0.71249 0.74569 0.88734 0.0
C1507 C 0.72781 0.7444 0.90203 0.0
C1508 C 0.69685 0.76481 0.88667 0.0
C1509 C 0.69661 0.72963 0.85729 0.0
C1510 C 0.69861 0.78055 0.87231 0.0
C1511 C 0.68438 0.79895 0.87176 0.0
C1512 C 0.6681 0.80206 0.88561 0.0
C1513 C 0.66638 0.78623 0.90002 0.0
C1514 C 0.68074 0.76784 0.9006 0.0
H1515 H 0.69553 0.71302 0.85054 0.0
H1516 H 0.67977 0.73442 0.86233 0.0
H1517 H 0.70187 0.74191 0.84659 0.0
H1518 H 0.71115 0.77871 0.86157 0.0
H1519 H 0.68603 0.81064 0.86037 0.0
loop_
_geom_bond_atom_site_label_1
_geom_bond_atom_site_label_2
_geom_bond_distance
_geom_bond_site_symmetry_2
_ccdc_geom_bond_type
Cu0 N1 1.999 . S
Cu0 O6 1.974 . S
Cu0 N11 1.985 . S
Cu0 O20 1.959 . S
N1 Cu0 1.999 . S
N1 C3 1.263 . S
N1 C5 1.389 . S
N2 C3 1.358 . S
N2 C4 1.400 . S
C3 N1 1.263 . S
C3 N2 1.358 . S
C3 H9 0.930 . S
C4 N2 1.400 . S
C4 C5 1.351 . S
C4 H21 0.930 . S
C5 N1 1.389 . S
C5 C4 1.351 . S
C5 H10 0.930 . S
O6 Cu0 1.974 . S
O6 C16 1.282 . S
C7 O8 1.261 . S
C7 O20 1.251 . S
O8 C7 1.261 . S
H9 C3 0.930 . S
H10 C5 0.930 . S
N11 Cu0 1.985 . S
N11 C13 1.335 . S
N11 C14 1.390 . S
N12 C13 1.345 . S
N12 C15 1.336 . S
C13 N11 1.335 . S
C13 N12 1.345 . S
C13 H18 0.930 . S
C14 N11 1.390 . S
C14 C15 1.346 . S
C14 H19 0.930 . S
C15 N12 1.336 . S
C15 C14 1.346 . S
C15 H22 0.929 . S
C16 O6 1.282 . S
C16 O17 1.216 . S
O17 C16 1.216 . S
H18 C13 0.930 . S
H19 C14 0.930 . S
O20 Cu0 1.959 . S
O20 C7 1.251 . S
H21 C4 0.930 . S
H22 C15 0.929 . S
Cu23 N24 1.999 . S
Cu23 O29 1.974 . S
Cu23 N34 1.985 . S
Cu23 O43 1.959 . S
N24 Cu23 1.999 . S
N24 C26 1.263 . S
N24 C28 1.389 . S
N25 C26 1.358 . S
N25 C27 1.400 . S
C26 N24 1.263 . S
C26 N25 1.358 . S
C26 H32 0.930 . S
C27 N25 1.400 . S
C27 C28 1.351 . S
C27 H44 0.930 . S
C28 N24 1.389 . S
C28 C27 1.351 . S
C28 H33 0.930 . S
O29 Cu23 1.974 . S
O29 C39 1.282 . S
C30 O31 1.261 . S
C30 O43 1.251 . S
O31 C30 1.261 . S
H32 C26 0.930 . S
H33 C28 0.930 . S
N34 Cu23 1.985 . S
N34 C36 1.335 . S
N34 C37 1.390 . S
N35 C36 1.345 . S
N35 C38 1.336 . S
C36 N34 1.335 . S
C36 N35 1.345 . S
C36 H41 0.930 . S
C37 N34 1.390 . S
C37 C38 1.346 . S
C37 H42 0.930 . S
C38 N35 1.336 . S
C38 C37 1.346 . S
C38 H45 0.929 . S
C39 O29 1.282 . S
C39 O40 1.216 . S
O40 C39 1.216 . S
H41 C36 0.930 . S
H42 C37 0.930 . S
O43 Cu23 1.959 . S
O43 C30 1.251 . S
H44 C27 0.930 . S
H45 C38 0.929 . S
Cu46 N47 1.999 . S
Cu46 O52 1.974 . S
Cu46 N57 1.985 . S
Cu46 O66 1.959 . S
N47 Cu46 1.999 . S
N47 C49 1.263 . S
N47 C51 1.389 . S
N48 C49 1.358 . S
N48 C50 1.400 . S
C49 N47 1.263 . S
C49 N48 1.358 . S
C49 H55 0.930 . S
C50 N48 1.400 . S
C50 C51 1.351 . S
C50 H67 0.930 . S
C51 N47 1.389 . S
C51 C50 1.351 . S
C51 H56 0.930 . S
O52 Cu46 1.974 . S
O52 C62 1.282 . S
C53 O54 1.261 . S
C53 O66 1.251 . S
O54 C53 1.261 . S
H55 C49 0.930 . S
H56 C51 0.930 . S
N57 Cu46 1.985 . S
N57 C59 1.335 . S
N57 C60 1.390 . S
N58 C59 1.345 . S
N58 C61 1.336 . S
C59 N57 1.335 . S
C59 N58 1.345 . S
C59 H64 0.930 . S
C60 N57 1.390 . S
C60 C61 1.346 . S
C60 H65 0.930 . S
C61 N58 1.336 . S
C61 C60 1.346 . S
C61 H68 0.929 . S
C62 O52 1.282 . S
C62 O63 1.216 . S
O63 C62 1.216 . S
H64 C59 0.930 . S
H65 C60 0.930 . S
O66 Cu46 1.959 . S
O66 C53 1.251 . S
H67 C50 0.930 . S
H68 C61 0.929 . S
Cu69 N70 1.999 . S
Cu69 O75 1.974 . S
Cu69 N80 1.985 . S
Cu69 O89 1.959 . S
N70 Cu69 1.999 . S
N70 C72 1.263 . S
N70 C74 1.389 . S
N71 C72 1.358 . S
N71 C73 1.400 . S
C72 N70 1.263 . S
C72 N71 1.358 . S
C72 H78 0.930 . S
C73 N71 1.400 . S
C73 C74 1.351 . S
C73 H90 0.930 . S
C74 N70 1.389 . S
C74 C73 1.351 . S
C74 H79 0.930 . S
O75 Cu69 1.974 . S
O75 C85 1.282 . S
C76 O77 1.261 . S
C76 O89 1.251 . S
O77 C76 1.261 . S
H78 C72 0.930 . S
H79 C74 0.930 . S
N80 Cu69 1.985 . S
N80 C82 1.335 . S
N80 C83 1.390 . S
N81 C82 1.345 . S
N81 C84 1.336 . S
C82 N80 1.335 . S
C82 N81 1.345 . S
C82 H87 0.930 . S
C83 N80 1.390 . S
C83 C84 1.346 . S
C83 H88 0.930 . S
C84 N81 1.336 . S
C84 C83 1.346 . S
C84 H91 0.929 . S
C85 O75 1.282 . S
C85 O86 1.216 . S
O86 C85 1.216 . S
H87 C82 0.930 . S
H88 C83 0.930 . S
O89 Cu69 1.959 . S
O89 C76 1.251 . S
H90 C73 0.930 . S
H91 C84 0.929 . S
Cu92 N93 1.999 . S
Cu92 O98 1.974 . S
Cu92 N103 1.985 . S
Cu92 O112 1.959 . S
N93 Cu92 1.999 . S
N93 C95 1.263 . S
N93 C97 1.389 . S
N94 C95 1.358 . S
N94 C96 1.400 . S
C95 N93 1.263 . S
C95 N94 1.358 . S
C95 H101 0.930 . S
C96 N94 1.400 . S
C96 C97 1.351 . S
C96 H113 0.930 . S
C97 N93 1.389 . S
C97 C96 1.351 . S
C97 H102 0.930 . S
O98 Cu92 1.974 . S
O98 C108 1.282 . S
C99 O100 1.261 . S
C99 O112 1.251 . S
O100 C99 1.261 . S
H101 C95 0.930 . S
H102 C97 0.930 . S
N103 Cu92 1.985 . S
N103 C105 1.335 . S
N103 C106 1.390 . S
N104 C105 1.345 . S
N104 C107 1.336 . S
C105 N103 1.335 . S
C105 N104 1.345 . S
C105 H110 0.930 . S
C106 N103 1.390 . S
C106 C107 1.346 . S
C106 H111 0.930 . S
C107 N104 1.336 . S
C107 C106 1.346 . S
C107 H114 0.929 . S
C108 O98 1.282 . S
C108 O109 1.216 . S
O109 C108 1.216 . S
H110 C105 0.930 . S
H111 C106 0.930 . S
O112 Cu92 1.959 . S
O112 C99 1.251 . S
H113 C96 0.930 . S
H114 C107 0.929 . S
Cu115 N116 1.999 . S
Cu115 O121 1.974 . S
Cu115 N126 1.985 . S
Cu115 O135 1.959 . S
N116 Cu115 1.999 . S
N116 C118 1.263 . S
N116 C120 1.389 . S
N117 C118 1.358 . S
N117 C119 1.400 . S
C118 N116 1.263 . S
C118 N117 1.358 . S
C118 H124 0.930 . S
C119 N117 1.400 . S
C119 C120 1.351 . S
C119 H136 0.930 . S
C120 N116 1.389 . S
C120 C119 1.351 . S
C120 H125 0.930 . S
O121 Cu115 1.974 . S
O121 C131 1.282 . S
C122 O123 1.261 . S
C122 O135 1.251 . S
O123 C122 1.261 . S
H124 C118 0.930 . S
H125 C120 0.930 . S
N126 Cu115 1.985 . S
N126 C128 1.335 . S
N126 C129 1.390 . S
N127 C128 1.345 . S
N127 C130 1.336 . S
C128 N126 1.335 . S
C128 N127 1.345 . S
C128 H133 0.930 . S
C129 N126 1.390 . S
C129 C130 1.346 . S
C129 H134 0.930 . S
C130 N127 1.336 . S
C130 C129 1.346 . S
C130 H137 0.929 . S
C131 O121 1.282 . S
C131 O132 1.216 . S
O132 C131 1.216 . S
H133 C128 0.930 . S
H134 C129 0.930 . S
O135 Cu115 1.959 . S
O135 C122 1.251 . S
H136 C119 0.930 . S
H137 C130 0.929 . S
Cu138 N139 1.999 . S
Cu138 O144 1.974 . S
Cu138 N149 1.985 . S
Cu138 O158 1.959 . S
N139 Cu138 1.999 . S
N139 C141 1.263 . S
N139 C143 1.389 . S
N140 C141 1.358 . S
N140 C142 1.400 . S
C141 N139 1.263 . S
C141 N140 1.358 . S
C141 H147 0.930 . S
C142 N140 1.400 . S
C142 C143 1.351 . S
C142 H159 0.930 . S
C143 N139 1.389 . S
C143 C142 1.351 . S
C143 H148 0.930 . S
O144 Cu138 1.974 . S
O144 C154 1.282 . S
C145 O146 1.261 . S
C145 O158 1.251 . S
O146 C145 1.261 . S
H147 C141 0.930 . S
H148 C143 0.930 . S
N149 Cu138 1.985 . S
N149 C151 1.335 . S
N149 C152 1.390 . S
N150 C151 1.345 . S
N150 C153 1.336 . S
C151 N149 1.335 . S
C151 N150 1.345 . S
C151 H156 0.930 . S
C152 N149 1.390 . S
C152 C153 1.346 . S
C152 H157 0.930 . S
C153 N150 1.336 . S
C153 C152 1.346 . S
C153 H160 0.929 . S
C154 O144 1.282 . S
C154 O155 1.216 . S
O155 C154 1.216 . S
H156 C151 0.930 . S
H157 C152 0.930 . S
O158 Cu138 1.959 . S
O158 C145 1.251 . S
H159 C142 0.930 . S
H160 C153 0.929 . S
Cu161 N162 1.999 . S
Cu161 O167 1.974 . S
Cu161 N172 1.985 . S
Cu161 O181 1.959 . S
N162 Cu161 1.999 . S
N162 C164 1.263 . S
N162 C166 1.389 . S
N163 C164 1.358 . S
N163 C165 1.400 . S
C164 N162 1.263 . S
C164 N163 1.358 . S
C164 H170 0.930 . S
C165 N163 1.400 . S
C165 C166 1.351 . S
C165 H182 0.930 . S
C166 N162 1.389 . S
C166 C165 1.351 . S
C166 H171 0.930 . S
O167 Cu161 1.974 . S
O167 C177 1.282 . S
C168 O169 1.261 . S
C168 O181 1.251 . S
O169 C168 1.261 . S
H170 C164 0.930 . S
H171 C166 0.930 . S
N172 Cu161 1.985 . S
N172 C174 1.335 . S
N172 C175 1.390 . S
N173 C174 1.345 . S
N173 C176 1.336 . S
C174 N172 1.335 . S
C174 N173 1.345 . S
C174 H179 0.930 . S
C175 N172 1.390 . S
C175 C176 1.346 . S
C175 H180 0.930 . S
C176 N173 1.336 . S
C176 C175 1.346 . S
C176 H183 0.929 . S
C177 O167 1.282 . S
C177 O178 1.216 . S
O178 C177 1.216 . S
H179 C174 0.930 . S
H180 C175 0.930 . S
O181 Cu161 1.959 . S
O181 C168 1.251 . S
H182 C165 0.930 . S
H183 C176 0.929 . S
Cu184 N185 1.999 . S
Cu184 O190 1.974 . S
Cu184 N195 1.985 . S
Cu184 O204 1.959 . S
N185 Cu184 1.999 . S
N185 C187 1.263 . S
N185 C189 1.389 . S
N186 C187 1.358 . S
N186 C188 1.400 . S
C187 N185 1.263 . S
C187 N186 1.358 . S
C187 H193 0.930 . S
C188 N186 1.400 . S
C188 C189 1.351 . S
C188 H205 0.930 . S
C189 N185 1.389 . S
C189 C188 1.351 . S
C189 H194 0.930 . S
O190 Cu184 1.974 . S
O190 C200 1.282 . S
C191 O192 1.261 . S
C191 O204 1.251 . S
O192 C191 1.261 . S
H193 C187 0.930 . S
H194 C189 0.930 . S
N195 Cu184 1.985 . S
N195 C197 1.335 . S
N195 C198 1.390 . S
N196 C197 1.345 . S
N196 C199 1.336 . S
C197 N195 1.335 . S
C197 N196 1.345 . S
C197 H202 0.930 . S
C198 N195 1.390 . S
C198 C199 1.346 . S
C198 H203 0.930 . S
C199 N196 1.336 . S
C199 C198 1.346 . S
C199 H206 0.929 . S
C200 O190 1.282 . S
C200 O201 1.216 . S
O201 C200 1.216 . S
H202 C197 0.930 . S
H203 C198 0.930 . S
O204 Cu184 1.959 . S
O204 C191 1.251 . S
H205 C188 0.930 . S
H206 C199 0.929 . S
Cu207 N208 1.999 . S
Cu207 O213 1.974 . S
Cu207 N218 1.985 . S
Cu207 O227 1.959 . S
N208 Cu207 1.999 . S
N208 C210 1.263 . S
N208 C212 1.389 . S
N209 C210 1.358 . S
N209 C211 1.400 . S
C210 N208 1.263 . S
C210 N209 1.358 . S
C210 H216 0.930 . S
C211 N209 1.400 . S
C211 C212 1.351 . S
C211 H228 0.930 . S
C212 N208 1.389 . S
C212 C211 1.351 . S
C212 H217 0.930 . S
O213 Cu207 1.974 . S
O213 C223 1.282 . S
C214 O215 1.261 . S
C214 O227 1.251 . S
O215 C214 1.261 . S
H216 C210 0.930 . S
H217 C212 0.930 . S
N218 Cu207 1.985 . S
N218 C220 1.335 . S
N218 C221 1.390 . S
N219 C220 1.345 . S
N219 C222 1.336 . S
C220 N218 1.335 . S
C220 N219 1.345 . S
C220 H225 0.930 . S
C221 N218 1.390 . S
C221 C222 1.346 . S
C221 H226 0.930 . S
C222 N219 1.336 . S
C222 C221 1.346 . S
C222 H229 0.929 . S
C223 O213 1.282 . S
C223 O224 1.216 . S
O224 C223 1.216 . S
H225 C220 0.930 . S
H226 C221 0.930 . S
O227 Cu207 1.959 . S
O227 C214 1.251 . S
H228 C211 0.930 . S
H229 C222 0.929 . S
Cu230 N231 1.999 . S
Cu230 O236 1.974 . S
Cu230 N241 1.985 . S
Cu230 O250 1.959 . S
N231 Cu230 1.999 . S
N231 C233 1.263 . S
N231 C235 1.389 . S
N232 C233 1.358 . S
N232 C234 1.400 . S
C233 N231 1.263 . S
C233 N232 1.358 . S
C233 H239 0.930 . S
C234 N232 1.400 . S
C234 C235 1.351 . S
C234 H251 0.930 . S
C235 N231 1.389 . S
C235 C234 1.351 . S
C235 H240 0.930 . S
O236 Cu230 1.974 . S
O236 C246 1.282 . S
C237 O238 1.261 . S
C237 O250 1.251 . S
O238 C237 1.261 . S
H239 C233 0.930 . S
H240 C235 0.930 . S
N241 Cu230 1.985 . S
N241 C243 1.335 . S
N241 C244 1.390 . S
N242 C243 1.345 . S
N242 C245 1.336 . S
C243 N241 1.335 . S
C243 N242 1.345 . S
C243 H248 0.930 . S
C244 N241 1.390 . S
C244 C245 1.346 . S
C244 H249 0.930 . S
C245 N242 1.336 . S
C245 C244 1.346 . S
C245 H252 0.929 . S
C246 O236 1.282 . S
C246 O247 1.216 . S
O247 C246 1.216 . S
H248 C243 0.930 . S
H249 C244 0.930 . S
O250 Cu230 1.959 . S
O250 C237 1.251 . S
H251 C234 0.930 . S
H252 C245 0.929 . S
Cu253 N254 1.999 . S
Cu253 O259 1.974 . S
Cu253 N264 1.985 . S
Cu253 O273 1.959 . S
N254 Cu253 1.999 . S
N254 C256 1.263 . S
N254 C258 1.389 . S
N255 C256 1.358 . S
N255 C257 1.400 . S
C256 N254 1.263 . S
C256 N255 1.358 . S
C256 H262 0.930 . S
C257 N255 1.400 . S
C257 C258 1.351 . S
C257 H274 0.930 . S
C258 N254 1.389 . S
C258 C257 1.351 . S
C258 H263 0.930 . S
O259 Cu253 1.974 . S
O259 C269 1.282 . S
C260 O261 1.261 . S
C260 O273 1.251 . S
O261 C260 1.261 . S
H262 C256 0.930 . S
H263 C258 0.930 . S
N264 Cu253 1.985 . S
N264 C266 1.335 . S
N264 C267 1.390 . S
N265 C266 1.345 . S
N265 C268 1.336 . S
C266 N264 1.335 . S
C266 N265 1.345 . S
C266 H271 0.930 . S
C267 N264 1.390 . S
C267 C268 1.346 . S
C267 H272 0.930 . S
C268 N265 1.336 . S
C268 C267 1.346 . S
C268 H275 0.929 . S
C269 O259 1.282 . S
C269 O270 1.216 . S
O270 C269 1.216 . S
H271 C266 0.930 . S
H272 C267 0.930 . S
O273 Cu253 1.959 . S
O273 C260 1.251 . S
H274 C257 0.930 . S
H275 C268 0.929 . S
Cu276 N277 1.999 . S
Cu276 O282 1.974 . S
Cu276 N287 1.985 . S
Cu276 O296 1.959 . S
N277 Cu276 1.999 . S
N277 C279 1.263 . S
N277 C281 1.389 . S
N278 C279 1.358 . S
N278 C280 1.400 . S
C279 N277 1.263 . S
C279 N278 1.358 . S
C279 H285 0.930 . S
C280 N278 1.400 . S
C280 C281 1.351 . S
C280 H297 0.930 . S
C281 N277 1.389 . S
C281 C280 1.351 . S
C281 H286 0.930 . S
O282 Cu276 1.974 . S
O282 C292 1.282 . S
C283 O284 1.261 . S
C283 O296 1.251 . S
O284 C283 1.261 . S
H285 C279 0.930 . S
H286 C281 0.930 . S
N287 Cu276 1.985 . S
N287 C289 1.335 . S
N287 C290 1.390 . S
N288 C289 1.345 . S
N288 C291 1.336 . S
C289 N287 1.335 . S
C289 N288 1.345 . S
C289 H294 0.930 . S
C290 N287 1.390 . S
C290 C291 1.346 . S
C290 H295 0.930 . S
C291 N288 1.336 . S
C291 C290 1.346 . S
C291 H298 0.929 . S
C292 O282 1.282 . S
C292 O293 1.216 . S
O293 C292 1.216 . S
H294 C289 0.930 . S
H295 C290 0.930 . S
O296 Cu276 1.959 . S
O296 C283 1.251 . S
H297 C280 0.930 . S
H298 C291 0.929 . S
Cu299 N300 1.999 . S
Cu299 O305 1.974 . S
Cu299 N310 1.985 . S
Cu299 O319 1.959 . S
N300 Cu299 1.999 . S
N300 C302 1.263 . S
N300 C304 1.389 . S
N301 C302 1.358 . S
N301 C303 1.400 . S
C302 N300 1.263 . S
C302 N301 1.358 . S
C302 H308 0.930 . S
C303 N301 1.400 . S
C303 C304 1.351 . S
C303 H320 0.930 . S
C304 N300 1.389 . S
C304 C303 1.351 . S
C304 H309 0.930 . S
O305 Cu299 1.974 . S
O305 C315 1.282 . S
C306 O307 1.261 . S
C306 O319 1.251 . S
O307 C306 1.261 . S
H308 C302 0.930 . S
H309 C304 0.930 . S
N310 Cu299 1.985 . S
N310 C312 1.335 . S
N310 C313 1.390 . S
N311 C312 1.345 . S
N311 C314 1.336 . S
C312 N310 1.335 . S
C312 N311 1.345 . S
C312 H317 0.930 . S
C313 N310 1.390 . S
C313 C314 1.346 . S
C313 H318 0.930 . S
C314 N311 1.336 . S
C314 C313 1.346 . S
C314 H321 0.929 . S
C315 O305 1.282 . S
C315 O316 1.216 . S
O316 C315 1.216 . S
H317 C312 0.930 . S
H318 C313 0.930 . S
O319 Cu299 1.959 . S
O319 C306 1.251 . S
H320 C303 0.930 . S
H321 C314 0.929 . S
Cu322 N323 1.999 . S
Cu322 O328 1.974 . S
Cu322 N333 1.985 . S
Cu322 O342 1.959 . S
N323 Cu322 1.999 . S
N323 C325 1.263 . S
N323 C327 1.389 . S
N324 C325 1.358 . S
N324 C326 1.400 . S
C325 N323 1.263 . S
C325 N324 1.358 . S
C325 H331 0.930 . S
C326 N324 1.400 . S
C326 C327 1.351 . S
C326 H343 0.930 . S
C327 N323 1.389 . S
C327 C326 1.351 . S
C327 H332 0.930 . S
O328 Cu322 1.974 . S
O328 C338 1.282 . S
C329 O330 1.261 . S
C329 O342 1.251 . S
O330 C329 1.261 . S
H331 C325 0.930 . S
H332 C327 0.930 . S
N333 Cu322 1.985 . S
N333 C335 1.335 . S
N333 C336 1.390 . S
N334 C335 1.345 . S
N334 C337 1.336 . S
C335 N333 1.335 . S
C335 N334 1.345 . S
C335 H340 0.930 . S
C336 N333 1.390 . S
C336 C337 1.346 . S
C336 H341 0.930 . S
C337 N334 1.336 . S
C337 C336 1.346 . S
C337 H344 0.929 . S
C338 O328 1.282 . S
C338 O339 1.216 . S
O339 C338 1.216 . S
H340 C335 0.930 . S
H341 C336 0.930 . S
O342 Cu322 1.959 . S
O342 C329 1.251 . S
H343 C326 0.930 . S
H344 C337 0.929 . S
Cu345 N346 1.999 . S
Cu345 O351 1.974 . S
Cu345 N356 1.985 . S
Cu345 O365 1.959 . S
N346 Cu345 1.999 . S
N346 C348 1.263 . S
N346 C350 1.389 . S
N347 C348 1.358 . S
N347 C349 1.400 . S
C348 N346 1.263 . S
C348 N347 1.358 . S
C348 H354 0.930 . S
C349 N347 1.400 . S
C349 C350 1.351 . S
C349 H366 0.930 . S
C350 N346 1.389 . S
C350 C349 1.351 . S
C350 H355 0.930 . S
O351 Cu345 1.974 . S
O351 C361 1.282 . S
C352 O353 1.261 . S
C352 O365 1.251 . S
O353 C352 1.261 . S
H354 C348 0.930 . S
H355 C350 0.930 . S
N356 Cu345 1.985 . S
N356 C358 1.335 . S
N356 C359 1.390 . S
N357 C358 1.345 . S
N357 C360 1.336 . S
C358 N356 1.335 . S
C358 N357 1.345 . S
C358 H363 0.930 . S
C359 N356 1.390 . S
C359 C360 1.346 . S
C359 H364 0.930 . S
C360 N357 1.336 . S
C360 C359 1.346 . S
C360 H367 0.929 . S
C361 O351 1.282 . S
C361 O362 1.216 . S
O362 C361 1.216 . S
H363 C358 0.930 . S
H364 C359 0.930 . S
O365 Cu345 1.959 . S
O365 C352 1.251 . S
H366 C349 0.930 . S
H367 C360 0.929 . S
H368 C376 0.929 . S
H369 C378 0.930 . S
H370 C380 0.930 . S
H371 C383 0.929 . S
H372 C386 0.930 . S
H373 C388 0.960 . S
H374 C388 0.960 . S
H375 C388 0.960 . S
C376 H368 0.929 . S
C376 C377 1.377 . S
C376 C378 1.384 . S
C377 C376 1.377 . S
C377 C383 1.390 . S
C378 H369 0.930 . S
C378 C376 1.384 . S
C378 C379 1.372 . S
C379 C378 1.372 . S
C379 C380 1.400 . S
C379 C384 1.490 . S
C380 H370 0.930 . S
C380 C379 1.400 . S
C380 C383 1.386 . S
H381 C397 0.930 . S
H382 C398 0.931 . S
C383 H371 0.929 . S
C383 C377 1.390 . S
C383 C380 1.386 . S
C384 C379 1.490 . S
C384 C386 1.395 . S
C384 C387 1.403 . S
H385 C391 0.930 . S
C386 H372 0.930 . S
C386 C384 1.395 . S
C386 C389 1.403 1_455 S
C387 C384 1.403 . S
C387 C388 1.524 . S
C387 C391 1.400 1_455 S
C388 H373 0.960 . S
C388 H374 0.960 . S
C388 H375 0.960 . S
C388 C387 1.524 . S
C389 C386 1.403 1_655 S
C389 C390 1.392 . S
C389 C393 1.495 . S
C390 C389 1.392 . S
C390 C391 1.385 . S
C390 C392 1.478 . S
C391 H385 0.930 . S
C391 C387 1.400 1_655 S
C391 C390 1.385 . S
C392 C390 1.478 . S
C392 C394 1.381 . S
C392 C398 1.383 . S
C393 C389 1.495 . S
C393 H399 0.959 . S
C393 H400 0.961 . S
C393 H401 0.960 . S
C394 C392 1.381 . S
C394 C395 1.394 . S
C394 H402 0.930 . S
C395 C394 1.394 . S
C395 C396 1.383 . S
C395 H403 0.929 . S
C396 C395 1.383 . S
C396 C397 1.377 . S
C397 H381 0.930 . S
C397 C396 1.377 . S
C397 C398 1.379 . S
C398 H382 0.931 . S
C398 C392 1.383 . S
C398 C397 1.379 . S
H399 C393 0.959 . S
H400 C393 0.961 . S
H401 C393 0.960 . S
H402 C394 0.930 . S
H403 C395 0.929 . S
H404 C412 0.929 . S
H405 C414 0.930 . S
H406 C416 0.930 . S
H407 C419 0.929 . S
H408 C422 0.930 . S
H409 C424 0.960 . S
H410 C424 0.960 . S
H411 C424 0.960 . S
C412 H404 0.929 . S
C412 C413 1.377 . S
C412 C414 1.384 . S
C413 C412 1.377 . S
C413 C419 1.390 . S
C414 H405 0.930 . S
C414 C412 1.384 . S
C414 C415 1.372 . S
C415 C414 1.372 . S
C415 C416 1.400 . S
C415 C420 1.490 . S
C416 H406 0.930 . S
C416 C415 1.400 . S
C416 C419 1.386 . S
H417 C433 0.930 . S
H418 C434 0.931 . S
C419 H407 0.929 . S
C419 C413 1.390 . S
C419 C416 1.386 . S
C420 C415 1.490 . S
C420 C422 1.395 . S
C420 C423 1.403 . S
H421 C427 0.930 . S
C422 H408 0.930 . S
C422 C420 1.395 . S
C422 C425 1.403 1_565 S
C423 C420 1.403 . S
C423 C424 1.524 . S
C423 C427 1.400 1_565 S
C424 H409 0.960 . S
C424 H410 0.960 . S
C424 H411 0.960 . S
C424 C423 1.524 . S
C425 C422 1.403 1_545 S
C425 C426 1.392 . S
C425 C429 1.495 . S
C426 C425 1.392 . S
C426 C427 1.385 . S
C426 C428 1.478 . S
C427 H421 0.930 . S
C427 C423 1.400 1_545 S
C427 C426 1.385 . S
C428 C426 1.478 . S
C428 C430 1.381 . S
C428 C434 1.383 . S
C429 C425 1.495 . S
C429 H435 0.959 . S
C429 H436 0.961 . S
C429 H437 0.960 . S
C430 C428 1.381 . S
C430 C431 1.394 . S
C430 H438 0.930 . S
C431 C430 1.394 . S
C431 C432 1.383 . S
C431 H439 0.929 . S
C432 C431 1.383 . S
C432 C433 1.377 . S
C433 H417 0.930 . S
C433 C432 1.377 . S
C433 C434 1.379 . S
C434 H418 0.931 . S
C434 C428 1.383 . S
C434 C433 1.379 . S
H435 C429 0.959 . S
H436 C429 0.961 . S
H437 C429 0.960 . S
H438 C430 0.930 . S
H439 C431 0.929 . S
H440 C448 0.929 . S
H441 C450 0.930 . S
H442 C452 0.930 . S
H443 C455 0.929 . S
H444 C458 0.930 . S
H445 C460 0.960 . S
H446 C460 0.960 . S
H447 C460 0.960 . S
C448 H440 0.929 . S
C448 C449 1.377 . S
C448 C450 1.384 . S
C449 C448 1.377 . S
C449 C455 1.390 . S
C450 H441 0.930 . S
C450 C448 1.384 . S
C450 C451 1.372 . S
C451 C450 1.372 . S
C451 C452 1.400 . S
C451 C456 1.490 . S
C452 H442 0.930 . S
C452 C451 1.400 . S
C452 C455 1.386 . S
H453 C469 0.930 . S
H454 C470 0.931 . S
C455 H443 0.929 . S
C455 C449 1.390 . S
C455 C452 1.386 . S
C456 C451 1.490 . S
C456 C458 1.395 . S
C456 C459 1.403 . S
H457 C463 0.930 . S
C458 H444 0.930 . S
C458 C456 1.395 . S
C458 C461 1.403 1_455 S
C459 C456 1.403 . S
C459 C460 1.524 . S
C459 C463 1.400 1_455 S
C460 H445 0.960 . S
C460 H446 0.960 . S
C460 H447 0.960 . S
C460 C459 1.524 . S
C461 C458 1.403 1_655 S
C461 C462 1.392 . S
C461 C465 1.495 . S
C462 C461 1.392 . S
C462 C463 1.385 . S
C462 C464 1.478 . S
C463 H457 0.930 . S
C463 C459 1.400 1_655 S
C463 C462 1.385 . S
C464 C462 1.478 . S
C464 C466 1.381 . S
C464 C470 1.383 . S
C465 C461 1.495 . S
C465 H471 0.959 . S
C465 H472 0.961 . S
C465 H473 0.960 . S
C466 C464 1.381 . S
C466 C467 1.394 . S
C466 H474 0.930 . S
C467 C466 1.394 . S
C467 C468 1.383 . S
C467 H475 0.929 . S
C468 C467 1.383 . S
C468 C469 1.377 . S
C469 H453 0.930 . S
C469 C468 1.377 . S
C469 C470 1.379 . S
C470 H454 0.931 . S
C470 C464 1.383 . S
C470 C469 1.379 . S
H471 C465 0.959 . S
H472 C465 0.961 . S
H473 C465 0.960 . S
H474 C466 0.930 . S
H475 C467 0.929 . S
H476 C484 0.929 . S
H477 C486 0.930 . S
H478 C488 0.930 . S
H479 C491 0.929 . S
H480 C494 0.930 . S
H481 C496 0.960 . S
H482 C496 0.960 . S
H483 C496 0.960 . S
C484 H476 0.929 . S
C484 C485 1.377 . S
C484 C486 1.384 . S
C485 C484 1.377 . S
C485 C491 1.390 . S
C486 H477 0.930 . S
C486 C484 1.384 . S
C486 C487 1.372 . S
C487 C486 1.372 . S
C487 C488 1.400 . S
C487 C492 1.490 . S
C488 H478 0.930 . S
C488 C487 1.400 . S
C488 C491 1.386 . S
H489 C505 0.930 . S
H490 C506 0.931 . S
C491 H479 0.929 . S
C491 C485 1.390 . S
C491 C488 1.386 . S
C492 C487 1.490 . S
C492 C494 1.395 . S
C492 C495 1.403 . S
H493 C499 0.930 . S
C494 H480 0.930 . S
C494 C492 1.395 . S
C494 C497 1.403 1_565 S
C495 C492 1.403 . S
C495 C496 1.524 . S
C495 C499 1.400 1_565 S
C496 H481 0.960 . S
C496 H482 0.960 . S
C496 H483 0.960 . S
C496 C495 1.524 . S
C497 C494 1.403 1_545 S
C497 C498 1.392 . S
C497 C501 1.495 . S
C498 C497 1.392 . S
C498 C499 1.385 . S
C498 C500 1.478 . S
C499 H493 0.930 . S
C499 C495 1.400 1_545 S
C499 C498 1.385 . S
C500 C498 1.478 . S
C500 C502 1.381 . S
C500 C506 1.383 . S
C501 C497 1.495 . S
C501 H507 0.959 . S
C501 H508 0.961 . S
C501 H509 0.960 . S
C502 C500 1.381 . S
C502 C503 1.394 . S
C502 H510 0.930 . S
C503 C502 1.394 . S
C503 C504 1.383 . S
C503 H511 0.929 . S
C504 C503 1.383 . S
C504 C505 1.377 . S
C505 H489 0.930 . S
C505 C504 1.377 . S
C505 C506 1.379 . S
C506 H490 0.931 . S
C506 C500 1.383 . S
C506 C505 1.379 . S
H507 C501 0.959 . S
H508 C501 0.961 . S
H509 C501 0.960 . S
H510 C502 0.930 . S
H511 C503 0.929 . S
H512 C520 0.929 . S
H513 C522 0.930 . S
H514 C524 0.930 . S
H515 C527 0.929 . S
H516 C530 0.930 . S
H517 C532 0.960 1_455 S
H518 C532 0.960 . S
H519 C532 0.960 . S
C520 H512 0.929 . S
C520 C521 1.377 . S
C520 C522 1.384 . S
C521 C520 1.377 . S
C521 C527 1.390 . S
C522 H513 0.930 . S
C522 C520 1.384 . S
C522 C523 1.372 . S
C523 C522 1.372 . S
C523 C524 1.400 . S
C523 C528 1.490 . S
C524 H514 0.930 . S
C524 C523 1.400 . S
C524 C527 1.386 . S
H525 C541 0.930 . S
H526 C542 0.931 . S
C527 H515 0.929 . S
C527 C521 1.390 . S
C527 C524 1.386 . S
C528 C523 1.490 . S
C528 C530 1.395 . S
C528 C531 1.403 . S
H529 C535 0.930 . S
C530 H516 0.930 . S
C530 C528 1.395 . S
C530 C533 1.403 1_655 S
C531 C528 1.403 . S
C531 C532 1.524 . S
C531 C535 1.400 1_655 S
C532 H517 0.960 1_655 S
C532 H518 0.960 . S
C532 H519 0.960 . S
C532 C531 1.524 . S
C533 C530 1.403 1_455 S
C533 C534 1.392 . S
C533 C537 1.495 . S
C534 C533 1.392 . S
C534 C535 1.385 . S
C534 C536 1.478 . S
C535 H529 0.930 . S
C535 C531 1.400 1_455 S
C535 C534 1.385 . S
C536 C534 1.478 . S
C536 C538 1.381 . S
C536 C542 1.383 . S
C537 C533 1.495 . S
C537 H543 0.959 1_455 S
C537 H544 0.961 . S
C537 H545 0.960 . S
C538 C536 1.381 . S
C538 C539 1.394 . S
C538 H546 0.930 . S
C539 C538 1.394 . S
C539 C540 1.383 . S
C539 H547 0.929 . S
C540 C539 1.383 . S
C540 C541 1.377 . S
C541 H525 0.930 . S
C541 C540 1.377 . S
C541 C542 1.379 . S
C542 H526 0.931 . S
C542 C536 1.383 . S
C542 C541 1.379 . S
H543 C537 0.959 1_655 S
H544 C537 0.961 . S
H545 C537 0.960 . S
H546 C538 0.930 . S
H547 C539 0.929 . S
H548 C556 0.929 . S
H549 C558 0.930 . S
H550 C560 0.930 . S
H551 C563 0.929 . S
H552 C566 0.930 . S
H553 C568 0.960 . S
H554 C568 0.960 . S
H555 C568 0.960 . S
C556 H548 0.929 . S
C556 C557 1.377 . S
C556 C558 1.384 . S
C557 C556 1.377 . S
C557 C563 1.390 . S
C558 H549 0.930 . S
C558 C556 1.384 . S
C558 C559 1.372 . S
C559 C558 1.372 . S
C559 C560 1.400 . S
C559 C564 1.490 . S
C560 H550 0.930 . S
C560 C559 1.400 . S
C560 C563 1.386 . S
H561 C577 0.930 . S
H562 C578 0.931 . S
C563 H551 0.929 . S
C563 C557 1.390 . S
C563 C560 1.386 . S
C564 C559 1.490 . S
C564 C566 1.395 . S
C564 C567 1.403 . S
H565 C571 0.930 . S
C566 H552 0.930 . S
C566 C564 1.395 . S
C566 C569 1.403 1_545 S
C567 C564 1.403 . S
C567 C568 1.524 . S
C567 C571 1.400 1_545 S
C568 H553 0.960 . S
C568 H554 0.960 . S
C568 H555 0.960 . S
C568 C567 1.524 . S
C569 C566 1.403 1_565 S
C569 C570 1.392 . S
C569 C573 1.495 . S
C570 C569 1.392 . S
C570 C571 1.385 . S
C570 C572 1.478 . S
C571 H565 0.930 . S
C571 C567 1.400 1_565 S
C571 C570 1.385 . S
C572 C570 1.478 . S
C572 C574 1.381 . S
C572 C578 1.383 . S
C573 C569 1.495 . S
C573 H579 0.959 . S
C573 H580 0.961 . S
C573 H581 0.960 . S
C574 C572 1.381 . S
C574 C575 1.394 . S
C574 H582 0.930 . S
C575 C574 1.394 . S
C575 C576 1.383 . S
C575 H583 0.929 . S
C576 C575 1.383 . S
C576 C577 1.377 . S
C577 H561 0.930 . S
C577 C576 1.377 . S
C577 C578 1.379 . S
C578 H562 0.931 . S
C578 C572 1.383 . S
C578 C577 1.379 . S
H579 C573 0.959 . S
H580 C573 0.961 . S
H581 C573 0.960 . S
H582 C574 0.930 . S
H583 C575 0.929 . S
H584 C592 0.929 . S
H585 C594 0.930 . S
H586 C596 0.930 . S
H587 C599 0.929 . S
H588 C602 0.930 . S
H589 C604 0.960 1_455 S
H590 C604 0.960 . S
H591 C604 0.960 . S
C592 H584 0.929 . S
C592 C593 1.377 . S
C592 C594 1.384 . S
C593 C592 1.377 . S
C593 C599 1.390 . S
C594 H585 0.930 . S
C594 C592 1.384 . S
C594 C595 1.372 . S
C595 C594 1.372 . S
C595 C596 1.400 . S
C595 C600 1.490 . S
C596 H586 0.930 . S
C596 C595 1.400 . S
C596 C599 1.386 . S
H597 C613 0.930 . S
H598 C614 0.931 . S
C599 H587 0.929 . S
C599 C593 1.390 . S
C599 C596 1.386 . S
C600 C595 1.490 . S
C600 C602 1.395 . S
C600 C603 1.403 . S
H601 C607 0.930 . S
C602 H588 0.930 . S
C602 C600 1.395 . S
C602 C605 1.403 1_655 S
C603 C600 1.403 . S
C603 C604 1.524 . S
C603 C607 1.400 1_655 S
C604 H589 0.960 1_655 S
C604 H590 0.960 . S
C604 H591 0.960 . S
C604 C603 1.524 . S
C605 C602 1.403 1_455 S
C605 C606 1.392 . S
C605 C609 1.495 . S
C606 C605 1.392 . S
C606 C607 1.385 . S
C606 C608 1.478 . S
C607 H601 0.930 . S
C607 C603 1.400 1_455 S
C607 C606 1.385 . S
C608 C606 1.478 . S
C608 C610 1.381 . S
C608 C614 1.383 . S
C609 C605 1.495 . S
C609 H615 0.959 1_455 S
C609 H616 0.961 . S
C609 H617 0.960 . S
C610 C608 1.381 . S
C610 C611 1.394 . S
C610 H618 0.930 . S
C611 C610 1.394 . S
C611 C612 1.383 . S
C611 H619 0.929 . S
C612 C611 1.383 . S
C612 C613 1.377 . S
C613 H597 0.930 . S
C613 C612 1.377 . S
C613 C614 1.379 . S
C614 H598 0.931 . S
C614 C608 1.383 . S
C614 C613 1.379 . S
H615 C609 0.959 1_655 S
H616 C609 0.961 . S
H617 C609 0.960 . S
H618 C610 0.930 . S
H619 C611 0.929 . S
H620 C628 0.929 . S
H621 C630 0.930 . S
H622 C632 0.930 . S
H623 C635 0.929 . S
H624 C638 0.930 . S
H625 C640 0.960 1_565 S
H626 C640 0.960 . S
H627 C640 0.960 . S
C628 H620 0.929 . S
C628 C629 1.377 . S
C628 C630 1.384 . S
C629 C628 1.377 . S
C629 C635 1.390 . S
C630 H621 0.930 . S
C630 C628 1.384 . S
C630 C631 1.372 . S
C631 C630 1.372 . S
C631 C632 1.400 . S
C631 C636 1.490 . S
C632 H622 0.930 . S
C632 C631 1.400 . S
C632 C635 1.386 . S
H633 C649 0.930 . S
H634 C650 0.931 . S
C635 H623 0.929 . S
C635 C629 1.390 . S
C635 C632 1.386 . S
C636 C631 1.490 . S
C636 C638 1.395 . S
C636 C639 1.403 . S
H637 C643 0.930 . S
C638 H624 0.930 . S
C638 C636 1.395 . S
C638 C641 1.403 1_545 S
C639 C636 1.403 . S
C639 C640 1.524 . S
C639 C643 1.400 1_545 S
C640 H625 0.960 1_545 S
C640 H626 0.960 . S
C640 H627 0.960 . S
C640 C639 1.524 . S
C641 C638 1.403 1_565 S
C641 C642 1.392 . S
C641 C645 1.495 . S
C642 C641 1.392 . S
C642 C643 1.385 . S
C642 C644 1.478 . S
C643 H637 0.930 . S
C643 C639 1.400 1_565 S
C643 C642 1.385 . S
C644 C642 1.478 . S
C644 C646 1.381 . S
C644 C650 1.383 . S
C645 C641 1.495 . S
C645 H651 0.959 1_565 S
C645 H652 0.961 . S
C645 H653 0.960 . S
C646 C644 1.381 . S
C646 C647 1.394 . S
C646 H654 0.930 . S
C647 C646 1.394 . S
C647 C648 1.383 . S
C647 H655 0.929 . S
C648 C647 1.383 . S
C648 C649 1.377 . S
C649 H633 0.930 . S
C649 C648 1.377 . S
C649 C650 1.379 . S
C650 H634 0.931 . S
C650 C644 1.383 . S
C650 C649 1.379 . S
H651 C645 0.959 1_545 S
H652 C645 0.961 . S
H653 C645 0.960 . S
H654 C646 0.930 . S
H655 C647 0.929 . S
H656 C664 0.929 . S
H657 C666 0.930 . S
H658 C668 0.930 . S
H659 C671 0.929 . S
H660 C674 0.930 . S
H661 C676 0.960 . S
H662 C676 0.960 . S
H663 C676 0.960 . S
C664 H656 0.929 . S
C664 C665 1.377 . S
C664 C666 1.384 . S
C665 C664 1.377 . S
C665 C671 1.390 . S
C666 H657 0.930 . S
C666 C664 1.384 . S
C666 C667 1.372 . S
C667 C666 1.372 . S
C667 C668 1.400 . S
C667 C672 1.490 . S
C668 H658 0.930 . S
C668 C667 1.400 . S
C668 C671 1.386 . S
H669 C685 0.930 . S
H670 C686 0.931 . S
C671 H659 0.929 . S
C671 C665 1.390 . S
C671 C668 1.386 . S
C672 C667 1.490 . S
C672 C674 1.395 . S
C672 C675 1.403 . S
H673 C679 0.930 . S
C674 H660 0.930 . S
C674 C672 1.395 . S
C674 C677 1.403 . S
C675 C672 1.403 . S
C675 C676 1.524 . S
C675 C679 1.400 . S
C676 H661 0.960 . S
C676 H662 0.960 . S
C676 H663 0.960 . S
C676 C675 1.524 . S
C677 C674 1.403 . S
C677 C678 1.392 . S
C677 C681 1.495 . S
C678 C677 1.392 . S
C678 C679 1.385 . S
C678 C680 1.478 . S
C679 H673 0.930 . S
C679 C675 1.400 . S
C679 C678 1.385 . S
C680 C678 1.478 . S
C680 C682 1.381 . S
C680 C686 1.383 . S
C681 C677 1.495 . S
C681 H687 0.959 . S
C681 H688 0.961 . S
C681 H689 0.960 . S
C682 C680 1.381 . S
C682 C683 1.394 . S
C682 H690 0.930 . S
C683 C682 1.394 . S
C683 C684 1.383 . S
C683 H691 0.929 . S
C684 C683 1.383 . S
C684 C685 1.377 . S
C685 H669 0.930 . S
C685 C684 1.377 . S
C685 C686 1.379 . S
C686 H670 0.931 . S
C686 C680 1.383 . S
C686 C685 1.379 . S
H687 C681 0.959 . S
H688 C681 0.961 . S
H689 C681 0.960 . S
H690 C682 0.930 . S
H691 C683 0.929 . S
H692 C700 0.929 . S
H693 C702 0.930 . S
H694 C704 0.930 . S
H695 C707 0.929 . S
H696 C710 0.930 . S
H697 C712 0.960 . S
H698 C712 0.960 . S
H699 C712 0.960 . S
C700 H692 0.929 . S
C700 C701 1.377 . S
C700 C702 1.384 . S
C701 C700 1.377 . S
C701 C707 1.390 . S
C702 H693 0.930 . S
C702 C700 1.384 . S
C702 C703 1.372 . S
C703 C702 1.372 . S
C703 C704 1.400 . S
C703 C708 1.490 . S
C704 H694 0.930 . S
C704 C703 1.400 . S
C704 C707 1.386 . S
H705 C721 0.930 . S
H706 C722 0.931 . S
C707 H695 0.929 . S
C707 C701 1.390 . S
C707 C704 1.386 . S
C708 C703 1.490 . S
C708 C710 1.395 . S
C708 C711 1.403 . S
H709 C715 0.930 . S
C710 H696 0.930 . S
C710 C708 1.395 . S
C710 C713 1.403 . S
C711 C708 1.403 . S
C711 C712 1.524 . S
C711 C715 1.400 . S
C712 H697 0.960 . S
C712 H698 0.960 . S
C712 H699 0.960 . S
C712 C711 1.524 . S
C713 C710 1.403 . S
C713 C714 1.392 . S
C713 C717 1.495 . S
C714 C713 1.392 . S
C714 C715 1.385 . S
C714 C716 1.478 . S
C715 H709 0.930 . S
C715 C711 1.400 . S
C715 C714 1.385 . S
C716 C714 1.478 . S
C716 C718 1.381 . S
C716 C722 1.383 . S
C717 C713 1.495 . S
C717 H723 0.959 . S
C717 H724 0.961 . S
C717 H725 0.960 . S
C718 C716 1.381 . S
C718 C719 1.394 . S
C718 H726 0.930 . S
C719 C718 1.394 . S
C719 C720 1.383 . S
C719 H727 0.929 . S
C720 C719 1.383 . S
C720 C721 1.377 . S
C721 H705 0.930 . S
C721 C720 1.377 . S
C721 C722 1.379 . S
C722 H706 0.931 . S
C722 C716 1.383 . S
C722 C721 1.379 . S
H723 C717 0.959 . S
H724 C717 0.961 . S
H725 C717 0.960 . S
H726 C718 0.930 . S
H727 C719 0.929 . S
H728 C736 0.929 . S
H729 C738 0.930 . S
H730 C740 0.930 . S
H731 C743 0.929 . S
H732 C746 0.930 . S
H733 C748 0.960 . S
H734 C748 0.960 . S
H735 C748 0.960 . S
C736 H728 0.929 . S
C736 C737 1.377 . S
C736 C738 1.384 . S
C737 C736 1.377 . S
C737 C743 1.390 . S
C738 H729 0.930 . S
C738 C736 1.384 . S
C738 C739 1.372 . S
C739 C738 1.372 . S
C739 C740 1.400 . S
C739 C744 1.490 . S
C740 H730 0.930 . S
C740 C739 1.400 . S
C740 C743 1.386 . S
H741 C757 0.930 . S
H742 C758 0.931 . S
C743 H731 0.929 . S
C743 C737 1.390 . S
C743 C740 1.386 . S
C744 C739 1.490 . S
C744 C746 1.395 . S
C744 C747 1.403 . S
H745 C751 0.930 . S
C746 H732 0.930 . S
C746 C744 1.395 . S
C746 C749 1.403 . S
C747 C744 1.403 . S
C747 C748 1.524 . S
C747 C751 1.400 . S
C748 H733 0.960 . S
C748 H734 0.960 . S
C748 H735 0.960 . S
C748 C747 1.524 . S
C749 C746 1.403 . S
C749 C750 1.392 . S
C749 C753 1.495 . S
C750 C749 1.392 . S
C750 C751 1.385 . S
C750 C752 1.478 . S
C751 H745 0.930 . S
C751 C747 1.400 . S
C751 C750 1.385 . S
C752 C750 1.478 . S
C752 C754 1.381 . S
C752 C758 1.383 . S
C753 C749 1.495 . S
C753 H759 0.959 . S
C753 H760 0.961 . S
C753 H761 0.960 . S
C754 C752 1.381 . S
C754 C755 1.394 . S
C754 H762 0.930 . S
C755 C754 1.394 . S
C755 C756 1.383 . S
C755 H763 0.929 . S
C756 C755 1.383 . S
C756 C757 1.377 . S
C757 H741 0.930 . S
C757 C756 1.377 . S
C757 C758 1.379 . S
C758 H742 0.931 . S
C758 C752 1.383 . S
C758 C757 1.379 . S
H759 C753 0.959 . S
H760 C753 0.961 . S
H761 C753 0.960 . S
H762 C754 0.930 . S
H763 C755 0.929 . S
H764 C772 0.929 . S
H765 C774 0.930 . S
H766 C776 0.930 . S
H767 C779 0.929 . S
H768 C782 0.930 . S
H769 C784 0.960 . S
H770 C784 0.960 . S
H771 C784 0.960 . S
C772 H764 0.929 . S
C772 C773 1.377 . S
C772 C774 1.384 . S
C773 C772 1.377 . S
C773 C779 1.390 . S
C774 H765 0.930 . S
C774 C772 1.384 . S
C774 C775 1.372 . S
C775 C774 1.372 . S
C775 C776 1.400 . S
C775 C780 1.490 . S
C776 H766 0.930 . S
C776 C775 1.400 . S
C776 C779 1.386 . S
H777 C793 0.930 . S
H778 C794 0.931 . S
C779 H767 0.929 . S
C779 C773 1.390 . S
C779 C776 1.386 . S
C780 C775 1.490 . S
C780 C782 1.395 . S
C780 C783 1.403 . S
H781 C787 0.930 . S
C782 H768 0.930 . S
C782 C780 1.395 . S
C782 C785 1.403 . S
C783 C780 1.403 . S
C783 C784 1.524 . S
C783 C787 1.400 . S
C784 H769 0.960 . S
C784 H770 0.960 . S
C784 H771 0.960 . S
C784 C783 1.524 . S
C785 C782 1.403 . S
C785 C786 1.392 . S
C785 C789 1.495 . S
C786 C785 1.392 . S
C786 C787 1.385 . S
C786 C788 1.478 . S
C787 H781 0.930 . S
C787 C783 1.400 . S
C787 C786 1.385 . S
C788 C786 1.478 . S
C788 C790 1.381 . S
C788 C794 1.383 . S
C789 C785 1.495 . S
C789 H795 0.959 . S
C789 H796 0.961 . S
C789 H797 0.960 . S
C790 C788 1.381 . S
C790 C791 1.394 . S
C790 H798 0.930 . S
C791 C790 1.394 . S
C791 C792 1.383 . S
C791 H799 0.929 . S
C792 C791 1.383 . S
C792 C793 1.377 . S
C793 H777 0.930 . S
C793 C792 1.377 . S
C793 C794 1.379 . S
C794 H778 0.931 . S
C794 C788 1.383 . S
C794 C793 1.379 . S
H795 C789 0.959 . S
H796 C789 0.961 . S
H797 C789 0.960 . S
H798 C790 0.930 . S
H799 C791 0.929 . S
H800 C808 0.929 . S
H801 C810 0.930 . S
H802 C812 0.930 . S
H803 C815 0.929 . S
H804 C818 0.930 . S
H805 C820 0.960 . S
H806 C820 0.960 . S
H807 C820 0.960 . S
C808 H800 0.929 . S
C808 C809 1.377 . S
C808 C810 1.384 . S
C809 C808 1.377 . S
C809 C815 1.390 . S
C810 H801 0.930 . S
C810 C808 1.384 . S
C810 C811 1.372 . S
C811 C810 1.372 . S
C811 C812 1.400 . S
C811 C816 1.490 . S
C812 H802 0.930 . S
C812 C811 1.400 . S
C812 C815 1.386 . S
H813 C829 0.930 . S
H814 C830 0.931 . S
C815 H803 0.929 . S
C815 C809 1.390 . S
C815 C812 1.386 . S
C816 C811 1.490 . S
C816 C818 1.395 . S
C816 C819 1.403 . S
H817 C823 0.930 . S
C818 H804 0.930 . S
C818 C816 1.395 . S
C818 C821 1.403 . S
C819 C816 1.403 . S
C819 C820 1.524 . S
C819 C823 1.400 . S
C820 H805 0.960 . S
C820 H806 0.960 . S
C820 H807 0.960 . S
C820 C819 1.524 . S
C821 C818 1.403 . S
C821 C822 1.392 . S
C821 C825 1.495 . S
C822 C821 1.392 . S
C822 C823 1.385 . S
C822 C824 1.478 . S
C823 H817 0.930 . S
C823 C819 1.400 . S
C823 C822 1.385 . S
C824 C822 1.478 . S
C824 C826 1.381 . S
C824 C830 1.383 . S
C825 C821 1.495 . S
C825 H831 0.959 . S
C825 H832 0.961 . S
C825 H833 0.960 . S
C826 C824 1.381 . S
C826 C827 1.394 . S
C826 H834 0.930 . S
C827 C826 1.394 . S
C827 C828 1.383 . S
C827 H835 0.929 . S
C828 C827 1.383 . S
C828 C829 1.377 . S
C829 H813 0.930 . S
C829 C828 1.377 . S
C829 C830 1.379 . S
C830 H814 0.931 . S
C830 C824 1.383 . S
C830 C829 1.379 . S
H831 C825 0.959 . S
H832 C825 0.961 . S
H833 C825 0.960 . S
H834 C826 0.930 . S
H835 C827 0.929 . S
H836 C844 0.929 . S
H837 C846 0.930 . S
H838 C848 0.930 . S
H839 C851 0.929 . S
H840 C854 0.930 . S
H841 C856 0.960 . S
H842 C856 0.960 . S
H843 C856 0.960 . S
C844 H836 0.929 . S
C844 C845 1.377 . S
C844 C846 1.384 . S
C845 C844 1.377 . S
C845 C851 1.390 . S
C846 H837 0.930 . S
C846 C844 1.384 . S
C846 C847 1.372 . S
C847 C846 1.372 . S
C847 C848 1.400 . S
C847 C852 1.490 . S
C848 H838 0.930 . S
C848 C847 1.400 . S
C848 C851 1.386 . S
H849 C865 0.930 . S
H850 C866 0.931 . S
C851 H839 0.929 . S
C851 C845 1.390 . S
C851 C848 1.386 . S
C852 C847 1.490 . S
C852 C854 1.395 . S
C852 C855 1.403 . S
H853 C859 0.930 . S
C854 H840 0.930 . S
C854 C852 1.395 . S
C854 C857 1.403 . S
C855 C852 1.403 . S
C855 C856 1.524 . S
C855 C859 1.400 . S
C856 H841 0.960 . S
C856 H842 0.960 . S
C856 H843 0.960 . S
C856 C855 1.524 . S
C857 C854 1.403 . S
C857 C858 1.392 . S
C857 C861 1.495 . S
C858 C857 1.392 . S
C858 C859 1.385 . S
C858 C860 1.478 . S
C859 H853 0.930 . S
C859 C855 1.400 . S
C859 C858 1.385 . S
C860 C858 1.478 . S
C860 C862 1.381 . S
C860 C866 1.383 . S
C861 C857 1.495 . S
C861 H867 0.959 . S
C861 H868 0.961 . S
C861 H869 0.960 . S
C862 C860 1.381 . S
C862 C863 1.394 . S
C862 H870 0.930 . S
C863 C862 1.394 . S
C863 C864 1.383 . S
C863 H871 0.929 . S
C864 C863 1.383 . S
C864 C865 1.377 . S
C865 H849 0.930 . S
C865 C864 1.377 . S
C865 C866 1.379 . S
C866 H850 0.931 . S
C866 C860 1.383 . S
C866 C865 1.379 . S
H867 C861 0.959 . S
H868 C861 0.961 . S
H869 C861 0.960 . S
H870 C862 0.930 . S
H871 C863 0.929 . S
H872 C880 0.929 . S
H873 C882 0.930 . S
H874 C884 0.930 . S
H875 C887 0.929 . S
H876 C890 0.930 . S
H877 C892 0.960 . S
H878 C892 0.960 . S
H879 C892 0.960 . S
C880 H872 0.929 . S
C880 C881 1.377 . S
C880 C882 1.384 . S
C881 C880 1.377 . S
C881 C887 1.390 . S
C882 H873 0.930 . S
C882 C880 1.384 . S
C882 C883 1.372 . S
C883 C882 1.372 . S
C883 C884 1.400 . S
C883 C888 1.490 . S
C884 H874 0.930 . S
C884 C883 1.400 . S
C884 C887 1.386 . S
H885 C901 0.930 . S
H886 C902 0.931 . S
C887 H875 0.929 . S
C887 C881 1.390 . S
C887 C884 1.386 . S
C888 C883 1.490 . S
C888 C890 1.395 . S
C888 C891 1.403 . S
H889 C895 0.930 . S
C890 H876 0.930 . S
C890 C888 1.395 . S
C890 C893 1.403 . S
C891 C888 1.403 . S
C891 C892 1.524 . S
C891 C895 1.400 . S
C892 H877 0.960 . S
C892 H878 0.960 . S
C892 H879 0.960 . S
C892 C891 1.524 . S
C893 C890 1.403 . S
C893 C894 1.392 . S
C893 C897 1.495 . S
C894 C893 1.392 . S
C894 C895 1.385 . S
C894 C896 1.478 . S
C895 H889 0.930 . S
C895 C891 1.400 . S
C895 C894 1.385 . S
C896 C894 1.478 . S
C896 C898 1.381 . S
C896 C902 1.383 . S
C897 C893 1.495 . S
C897 H903 0.959 . S
C897 H904 0.961 . S
C897 H905 0.960 . S
C898 C896 1.381 . S
C898 C899 1.394 . S
C898 H906 0.930 . S
C899 C898 1.394 . S
C899 C900 1.383 . S
C899 H907 0.929 . S
C900 C899 1.383 . S
C900 C901 1.377 . S
C901 H885 0.930 . S
C901 C900 1.377 . S
C901 C902 1.379 . S
C902 H886 0.931 . S
C902 C896 1.383 . S
C902 C901 1.379 . S
H903 C897 0.959 . S
H904 C897 0.961 . S
H905 C897 0.960 . S
H906 C898 0.930 . S
H907 C899 0.929 . S
H908 C916 0.929 . S
H909 C918 0.930 . S
H910 C920 0.930 . S
H911 C923 0.929 . S
H912 C926 0.930 . S
H913 C928 0.960 . S
H914 C928 0.960 . S
H915 C928 0.960 . S
C916 H908 0.929 . S
C916 C917 1.377 . S
C916 C918 1.384 . S
C917 C916 1.377 . S
C917 C923 1.390 . S
C918 H909 0.930 . S
C918 C916 1.384 . S
C918 C919 1.372 . S
C919 C918 1.372 . S
C919 C920 1.400 . S
C919 C924 1.490 . S
C920 H910 0.930 . S
C920 C919 1.400 . S
C920 C923 1.386 . S
H921 C937 0.930 . S
H922 C938 0.931 . S
C923 H911 0.929 . S
C923 C917 1.390 . S
C923 C920 1.386 . S
C924 C919 1.490 . S
C924 C926 1.395 . S
C924 C927 1.403 . S
H925 C931 0.930 . S
C926 H912 0.930 . S
C926 C924 1.395 . S
C926 C929 1.403 . S
C927 C924 1.403 . S
C927 C928 1.524 . S
C927 C931 1.400 . S
C928 H913 0.960 . S
C928 H914 0.960 . S
C928 H915 0.960 . S
C928 C927 1.524 . S
C929 C926 1.403 . S
C929 C930 1.392 . S
C929 C933 1.495 . S
C930 C929 1.392 . S
C930 C931 1.385 . S
C930 C932 1.478 . S
C931 H925 0.930 . S
C931 C927 1.400 . S
C931 C930 1.385 . S
C932 C930 1.478 . S
C932 C934 1.381 . S
C932 C938 1.383 . S
C933 C929 1.495 . S
C933 H939 0.959 . S
C933 H940 0.961 . S
C933 H941 0.960 . S
C934 C932 1.381 . S
C934 C935 1.394 . S
C934 H942 0.930 . S
C935 C934 1.394 . S
C935 C936 1.383 . S
C935 H943 0.929 . S
C936 C935 1.383 . S
C936 C937 1.377 . S
C937 H921 0.930 . S
C937 C936 1.377 . S
C937 C938 1.379 . S
C938 H922 0.931 . S
C938 C932 1.383 . S
C938 C937 1.379 . S
H939 C933 0.959 . S
H940 C933 0.961 . S
H941 C933 0.960 . S
H942 C934 0.930 . S
H943 C935 0.929 . S
H944 C952 0.929 . S
H945 C954 0.930 . S
H946 C956 0.930 . S
H947 C959 0.929 . S
H948 C962 0.930 . S
H949 C964 0.960 . S
H950 C964 0.960 . S
H951 C964 0.960 . S
C952 H944 0.929 . S
C952 C953 1.377 . S
C952 C954 1.384 . S
C953 C952 1.377 . S
C953 C959 1.390 . S
C954 H945 0.930 . S
C954 C952 1.384 . S
C954 C955 1.372 . S
C955 C954 1.372 . S
C955 C956 1.400 . S
C955 C960 1.490 . S
C956 H946 0.930 . S
C956 C955 1.400 . S
C956 C959 1.386 . S
H957 C973 0.930 . S
H958 C974 0.931 . S
C959 H947 0.929 . S
C959 C953 1.390 . S
C959 C956 1.386 . S
C960 C955 1.490 . S
C960 C962 1.395 . S
C960 C963 1.403 . S
H961 C967 0.930 . S
C962 H948 0.930 . S
C962 C960 1.395 . S
C962 C965 1.403 1_556 S
C963 C960 1.403 . S
C963 C964 1.524 . S
C963 C967 1.400 1_556 S
C964 H949 0.960 . S
C964 H950 0.960 . S
C964 H951 0.960 . S
C964 C963 1.524 . S
C965 C962 1.403 1_554 S
C965 C966 1.392 . S
C965 C969 1.495 . S
C966 C965 1.392 . S
C966 C967 1.385 . S
C966 C968 1.478 . S
C967 H961 0.930 . S
C967 C963 1.400 1_554 S
C967 C966 1.385 . S
C968 C966 1.478 . S
C968 C970 1.381 . S
C968 C974 1.383 . S
C969 C965 1.495 . S
C969 H975 0.959 . S
C969 H976 0.961 . S
C969 H977 0.960 . S
C970 C968 1.381 . S
C970 C971 1.394 . S
C970 H978 0.930 . S
C971 C970 1.394 . S
C971 C972 1.383 . S
C971 H979 0.929 . S
C972 C971 1.383 . S
C972 C973 1.377 . S
C973 H957 0.930 . S
C973 C972 1.377 . S
C973 C974 1.379 . S
C974 H958 0.931 . S
C974 C968 1.383 . S
C974 C973 1.379 . S
H975 C969 0.959 . S
H976 C969 0.961 . S
H977 C969 0.960 . S
H978 C970 0.930 . S
H979 C971 0.929 . S
H980 C988 0.929 . S
H981 C990 0.930 . S
H982 C992 0.930 . S
H983 C995 0.929 . S
H984 C998 0.930 . S
H985 C1000 0.960 . S
H986 C1000 0.960 . S
H987 C1000 0.960 . S
C988 H980 0.929 . S
C988 C989 1.377 . S
C988 C990 1.384 . S
C989 C988 1.377 . S
C989 C995 1.390 . S
C990 H981 0.930 . S
C990 C988 1.384 . S
C990 C991 1.372 . S
C991 C990 1.372 . S
C991 C992 1.400 . S
C991 C996 1.490 . S
C992 H982 0.930 . S
C992 C991 1.400 . S
C992 C995 1.386 . S
H993 C1009 0.930 . S
H994 C1010 0.931 . S
C995 H983 0.929 . S
C995 C989 1.390 . S
C995 C992 1.386 . S
C996 C991 1.490 . S
C996 C998 1.395 . S
C996 C999 1.403 . S
H997 C1003 0.930 . S
C998 H984 0.930 . S
C998 C996 1.395 . S
C998 C1001 1.403 . S
C999 C996 1.403 . S
C999 C1000 1.524 . S
C999 C1003 1.400 . S
C1000 H985 0.960 . S
C1000 H986 0.960 . S
C1000 H987 0.960 . S
C1000 C999 1.524 . S
C1001 C998 1.403 . S
C1001 C1002 1.392 . S
C1001 C1005 1.495 . S
C1002 C1001 1.392 . S
C1002 C1003 1.385 . S
C1002 C1004 1.478 . S
C1003 H997 0.930 . S
C1003 C999 1.400 . S
C1003 C1002 1.385 . S
C1004 C1002 1.478 . S
C1004 C1006 1.381 . S
C1004 C1010 1.383 . S
C1005 C1001 1.495 . S
C1005 H1011 0.959 . S
C1005 H1012 0.961 . S
C1005 H1013 0.960 . S
C1006 C1004 1.381 . S
C1006 C1007 1.394 . S
C1006 H1014 0.930 . S
C1007 C1006 1.394 . S
C1007 C1008 1.383 . S
C1007 H1015 0.929 . S
C1008 C1007 1.383 . S
C1008 C1009 1.377 . S
C1009 H993 0.930 . S
C1009 C1008 1.377 . S
C1009 C1010 1.379 . S
C1010 H994 0.931 . S
C1010 C1004 1.383 . S
C1010 C1009 1.379 . S
H1011 C1005 0.959 . S
H1012 C1005 0.961 . S
H1013 C1005 0.960 . S
H1014 C1006 0.930 . S
H1015 C1007 0.929 . S
H1016 C1024 0.929 . S
H1017 C1026 0.930 . S
H1018 C1028 0.930 . S
H1019 C1031 0.929 . S
H1020 C1034 0.930 . S
H1021 C1036 0.960 . S
H1022 C1036 0.960 . S
H1023 C1036 0.960 . S
C1024 H1016 0.929 . S
C1024 C1025 1.377 . S
C1024 C1026 1.384 . S
C1025 C1024 1.377 . S
C1025 C1031 1.390 . S
C1026 H1017 0.930 . S
C1026 C1024 1.384 . S
C1026 C1027 1.372 . S
C1027 C1026 1.372 . S
C1027 C1028 1.400 . S
C1027 C1032 1.490 . S
C1028 H1018 0.930 . S
C1028 C1027 1.400 . S
C1028 C1031 1.386 . S
H1029 C1045 0.930 . S
H1030 C1046 0.931 . S
C1031 H1019 0.929 . S
C1031 C1025 1.390 . S
C1031 C1028 1.386 . S
C1032 C1027 1.490 . S
C1032 C1034 1.395 . S
C1032 C1035 1.403 . S
H1033 C1039 0.930 . S
C1034 H1020 0.930 . S
C1034 C1032 1.395 . S
C1034 C1037 1.403 1_554 S
C1035 C1032 1.403 . S
C1035 C1036 1.524 . S
C1035 C1039 1.400 1_554 S
C1036 H1021 0.960 . S
C1036 H1022 0.960 . S
C1036 H1023 0.960 . S
C1036 C1035 1.524 . S
C1037 C1034 1.403 1_556 S
C1037 C1038 1.392 . S
C1037 C1041 1.495 . S
C1038 C1037 1.392 . S
C1038 C1039 1.385 . S
C1038 C1040 1.478 . S
C1039 H1033 0.930 . S
C1039 C1035 1.400 1_556 S
C1039 C1038 1.385 . S
C1040 C1038 1.478 . S
C1040 C1042 1.381 . S
C1040 C1046 1.383 . S
C1041 C1037 1.495 . S
C1041 H1047 0.959 . S
C1041 H1048 0.961 . S
C1041 H1049 0.960 . S
C1042 C1040 1.381 . S
C1042 C1043 1.394 . S
C1042 H1050 0.930 . S
C1043 C1042 1.394 . S
C1043 C1044 1.383 . S
C1043 H1051 0.929 . S
C1044 C1043 1.383 . S
C1044 C1045 1.377 . S
C1045 H1029 0.930 . S
C1045 C1044 1.377 . S
C1045 C1046 1.379 . S
C1046 H1030 0.931 . S
C1046 C1040 1.383 . S
C1046 C1045 1.379 . S
H1047 C1041 0.959 . S
H1048 C1041 0.961 . S
H1049 C1041 0.960 . S
H1050 C1042 0.930 . S
H1051 C1043 0.929 . S
H1052 C1060 0.929 . S
H1053 C1062 0.930 . S
H1054 C1064 0.930 . S
H1055 C1067 0.929 . S
H1056 C1070 0.930 . S
H1057 C1072 0.960 . S
H1058 C1072 0.960 . S
H1059 C1072 0.960 . S
C1060 H1052 0.929 . S
C1060 C1061 1.377 . S
C1060 C1062 1.384 . S
C1061 C1060 1.377 . S
C1061 C1067 1.390 . S
C1062 H1053 0.930 . S
C1062 C1060 1.384 . S
C1062 C1063 1.372 . S
C1063 C1062 1.372 . S
C1063 C1064 1.400 . S
C1063 C1068 1.490 . S
C1064 H1054 0.930 . S
C1064 C1063 1.400 . S
C1064 C1067 1.386 . S
H1065 C1081 0.930 . S
H1066 C1082 0.931 . S
C1067 H1055 0.929 . S
C1067 C1061 1.390 . S
C1067 C1064 1.386 . S
C1068 C1063 1.490 . S
C1068 C1070 1.395 . S
C1068 C1071 1.403 . S
H1069 C1075 0.930 . S
C1070 H1056 0.930 . S
C1070 C1068 1.395 . S
C1070 C1073 1.403 . S
C1071 C1068 1.403 . S
C1071 C1072 1.524 . S
C1071 C1075 1.400 . S
C1072 H1057 0.960 . S
C1072 H1058 0.960 . S
C1072 H1059 0.960 . S
C1072 C1071 1.524 . S
C1073 C1070 1.403 . S
C1073 C1074 1.392 . S
C1073 C1077 1.495 . S
C1074 C1073 1.392 . S
C1074 C1075 1.385 . S
C1074 C1076 1.478 . S
C1075 H1069 0.930 . S
C1075 C1071 1.400 . S
C1075 C1074 1.385 . S
C1076 C1074 1.478 . S
C1076 C1078 1.381 . S
C1076 C1082 1.383 . S
C1077 C1073 1.495 . S
C1077 H1083 0.959 . S
C1077 H1084 0.961 . S
C1077 H1085 0.960 . S
C1078 C1076 1.381 . S
C1078 C1079 1.394 . S
C1078 H1086 0.930 . S
C1079 C1078 1.394 . S
C1079 C1080 1.383 . S
C1079 H1087 0.929 . S
C1080 C1079 1.383 . S
C1080 C1081 1.377 . S
C1081 H1065 0.930 . S
C1081 C1080 1.377 . S
C1081 C1082 1.379 . S
C1082 H1066 0.931 . S
C1082 C1076 1.383 . S
C1082 C1081 1.379 . S
H1083 C1077 0.959 . S
H1084 C1077 0.961 . S
H1085 C1077 0.960 . S
H1086 C1078 0.930 . S
H1087 C1079 0.929 . S
H1088 C1096 0.929 . S
H1089 C1098 0.930 . S
H1090 C1100 0.930 . S
H1091 C1103 0.929 . S
H1092 C1106 0.930 . S
H1093 C1108 0.960 . S
H1094 C1108 0.960 . S
H1095 C1108 0.960 . S
C1096 H1088 0.929 . S
C1096 C1097 1.377 . S
C1096 C1098 1.384 . S
C1097 C1096 1.377 . S
C1097 C1103 1.390 . S
C1098 H1089 0.930 . S
C1098 C1096 1.384 . S
C1098 C1099 1.372 . S
C1099 C1098 1.372 . S
C1099 C1100 1.400 . S
C1099 C1104 1.490 . S
C1100 H1090 0.930 . S
C1100 C1099 1.400 . S
C1100 C1103 1.386 . S
H1101 C1117 0.930 . S
H1102 C1118 0.931 . S
C1103 H1091 0.929 . S
C1103 C1097 1.390 . S
C1103 C1100 1.386 . S
C1104 C1099 1.490 . S
C1104 C1106 1.395 . S
C1104 C1107 1.403 . S
H1105 C1111 0.930 . S
C1106 H1092 0.930 . S
C1106 C1104 1.395 . S
C1106 C1109 1.403 . S
C1107 C1104 1.403 . S
C1107 C1108 1.524 . S
C1107 C1111 1.400 . S
C1108 H1093 0.960 . S
C1108 H1094 0.960 . S
C1108 H1095 0.960 . S
C1108 C1107 1.524 . S
C1109 C1106 1.403 . S
C1109 C1110 1.392 . S
C1109 C1113 1.495 . S
C1110 C1109 1.392 . S
C1110 C1111 1.385 . S
C1110 C1112 1.478 . S
C1111 H1105 0.930 . S
C1111 C1107 1.400 . S
C1111 C1110 1.385 . S
C1112 C1110 1.478 . S
C1112 C1114 1.381 . S
C1112 C1118 1.383 . S
C1113 C1109 1.495 . S
C1113 H1119 0.959 . S
C1113 H1120 0.961 . S
C1113 H1121 0.960 . S
C1114 C1112 1.381 . S
C1114 C1115 1.394 . S
C1114 H1122 0.930 . S
C1115 C1114 1.394 . S
C1115 C1116 1.383 . S
C1115 H1123 0.929 . S
C1116 C1115 1.383 . S
C1116 C1117 1.377 . S
C1117 H1101 0.930 . S
C1117 C1116 1.377 . S
C1117 C1118 1.379 . S
C1118 H1102 0.931 . S
C1118 C1112 1.383 . S
C1118 C1117 1.379 . S
H1119 C1113 0.959 . S
H1120 C1113 0.961 . S
H1121 C1113 0.960 . S
H1122 C1114 0.930 . S
H1123 C1115 0.929 . S
H1124 C1132 0.929 . S
H1125 C1134 0.930 . S
H1126 C1136 0.930 . S
H1127 C1139 0.929 . S
H1128 C1142 0.930 . S
H1129 C1144 0.960 . S
H1130 C1144 0.960 . S
H1131 C1144 0.960 . S
C1132 H1124 0.929 . S
C1132 C1133 1.377 . S
C1132 C1134 1.384 . S
C1133 C1132 1.377 . S
C1133 C1139 1.390 . S
C1134 H1125 0.930 . S
C1134 C1132 1.384 . S
C1134 C1135 1.372 . S
C1135 C1134 1.372 . S
C1135 C1136 1.400 . S
C1135 C1140 1.490 . S
C1136 H1126 0.930 . S
C1136 C1135 1.400 . S
C1136 C1139 1.386 . S
H1137 C1153 0.930 . S
H1138 C1154 0.931 . S
C1139 H1127 0.929 . S
C1139 C1133 1.390 . S
C1139 C1136 1.386 . S
C1140 C1135 1.490 . S
C1140 C1142 1.395 . S
C1140 C1143 1.403 . S
H1141 C1147 0.930 . S
C1142 H1128 0.930 . S
C1142 C1140 1.395 . S
C1142 C1145 1.403 1_556 S
C1143 C1140 1.403 . S
C1143 C1144 1.524 . S
C1143 C1147 1.400 1_556 S
C1144 H1129 0.960 . S
C1144 H1130 0.960 . S
C1144 H1131 0.960 . S
C1144 C1143 1.524 . S
C1145 C1142 1.403 1_554 S
C1145 C1146 1.392 . S
C1145 C1149 1.495 . S
C1146 C1145 1.392 . S
C1146 C1147 1.385 . S
C1146 C1148 1.478 . S
C1147 H1141 0.930 . S
C1147 C1143 1.400 1_554 S
C1147 C1146 1.385 . S
C1148 C1146 1.478 . S
C1148 C1150 1.381 . S
C1148 C1154 1.383 . S
C1149 C1145 1.495 . S
C1149 H1155 0.959 . S
C1149 H1156 0.961 . S
C1149 H1157 0.960 . S
C1150 C1148 1.381 . S
C1150 C1151 1.394 . S
C1150 H1158 0.930 . S
C1151 C1150 1.394 . S
C1151 C1152 1.383 . S
C1151 H1159 0.929 . S
C1152 C1151 1.383 . S
C1152 C1153 1.377 . S
C1153 H1137 0.930 . S
C1153 C1152 1.377 . S
C1153 C1154 1.379 . S
C1154 H1138 0.931 . S
C1154 C1148 1.383 . S
C1154 C1153 1.379 . S
H1155 C1149 0.959 . S
H1156 C1149 0.961 . S
H1157 C1149 0.960 . S
H1158 C1150 0.930 . S
H1159 C1151 0.929 . S
H1160 C1168 0.929 . S
H1161 C1170 0.930 . S
H1162 C1172 0.930 . S
H1163 C1175 0.929 . S
H1164 C1178 0.930 . S
H1165 C1180 0.960 . S
H1166 C1180 0.960 . S
H1167 C1180 0.960 . S
C1168 H1160 0.929 . S
C1168 C1169 1.377 . S
C1168 C1170 1.384 . S
C1169 C1168 1.377 . S
C1169 C1175 1.390 . S
C1170 H1161 0.930 . S
C1170 C1168 1.384 . S
C1170 C1171 1.372 . S
C1171 C1170 1.372 . S
C1171 C1172 1.400 . S
C1171 C1176 1.490 . S
C1172 H1162 0.930 . S
C1172 C1171 1.400 . S
C1172 C1175 1.386 . S
H1173 C1189 0.930 . S
H1174 C1190 0.931 . S
C1175 H1163 0.929 . S
C1175 C1169 1.390 . S
C1175 C1172 1.386 . S
C1176 C1171 1.490 . S
C1176 C1178 1.395 . S
C1176 C1179 1.403 . S
H1177 C1183 0.930 . S
C1178 H1164 0.930 . S
C1178 C1176 1.395 . S
C1178 C1181 1.403 . S
C1179 C1176 1.403 . S
C1179 C1180 1.524 . S
C1179 C1183 1.400 . S
C1180 H1165 0.960 . S
C1180 H1166 0.960 . S
C1180 H1167 0.960 . S
C1180 C1179 1.524 . S
C1181 C1178 1.403 . S
C1181 C1182 1.392 . S
C1181 C1185 1.495 . S
C1182 C1181 1.392 . S
C1182 C1183 1.385 . S
C1182 C1184 1.478 . S
C1183 H1177 0.930 . S
C1183 C1179 1.400 . S
C1183 C1182 1.385 . S
C1184 C1182 1.478 . S
C1184 C1186 1.381 . S
C1184 C1190 1.383 . S
C1185 C1181 1.495 . S
C1185 H1191 0.959 . S
C1185 H1192 0.961 . S
C1185 H1193 0.960 . S
C1186 C1184 1.381 . S
C1186 C1187 1.394 . S
C1186 H1194 0.930 . S
C1187 C1186 1.394 . S
C1187 C1188 1.383 . S
C1187 H1195 0.929 . S
C1188 C1187 1.383 . S
C1188 C1189 1.377 . S
C1189 H1173 0.930 . S
C1189 C1188 1.377 . S
C1189 C1190 1.379 . S
C1190 H1174 0.931 . S
C1190 C1184 1.383 . S
C1190 C1189 1.379 . S
H1191 C1185 0.959 . S
H1192 C1185 0.961 . S
H1193 C1185 0.960 . S
H1194 C1186 0.930 . S
H1195 C1187 0.929 . S
H1196 C1204 0.929 . S
H1197 C1206 0.930 . S
H1198 C1208 0.930 . S
H1199 C1211 0.929 . S
H1200 C1214 0.930 . S
H1201 C1216 0.960 . S
H1202 C1216 0.960 . S
H1203 C1216 0.960 . S
C1204 H1196 0.929 . S
C1204 C1205 1.377 . S
C1204 C1206 1.384 . S
C1205 C1204 1.377 . S
C1205 C1211 1.390 . S
C1206 H1197 0.930 . S
C1206 C1204 1.384 . S
C1206 C1207 1.372 . S
C1207 C1206 1.372 . S
C1207 C1208 1.400 . S
C1207 C1212 1.490 . S
C1208 H1198 0.930 . S
C1208 C1207 1.400 . S
C1208 C1211 1.386 . S
H1209 C1225 0.930 . S
H1210 C1226 0.931 . S
C1211 H1199 0.929 . S
C1211 C1205 1.390 . S
C1211 C1208 1.386 . S
C1212 C1207 1.490 . S
C1212 C1214 1.395 . S
C1212 C1215 1.403 . S
H1213 C1219 0.930 . S
C1214 H1200 0.930 . S
C1214 C1212 1.395 . S
C1214 C1217 1.403 1_554 S
C1215 C1212 1.403 . S
C1215 C1216 1.524 . S
C1215 C1219 1.400 1_554 S
C1216 H1201 0.960 . S
C1216 H1202 0.960 . S
C1216 H1203 0.960 . S
C1216 C1215 1.524 . S
C1217 C1214 1.403 1_556 S
C1217 C1218 1.392 . S
C1217 C1221 1.495 . S
C1218 C1217 1.392 . S
C1218 C1219 1.385 . S
C1218 C1220 1.478 . S
C1219 H1213 0.930 . S
C1219 C1215 1.400 1_556 S
C1219 C1218 1.385 . S
C1220 C1218 1.478 . S
C1220 C1222 1.381 . S
C1220 C1226 1.383 . S
C1221 C1217 1.495 . S
C1221 H1227 0.959 . S
C1221 H1228 0.961 . S
C1221 H1229 0.960 . S
C1222 C1220 1.381 . S
C1222 C1223 1.394 . S
C1222 H1230 0.930 . S
C1223 C1222 1.394 . S
C1223 C1224 1.383 . S
C1223 H1231 0.929 . S
C1224 C1223 1.383 . S
C1224 C1225 1.377 . S
C1225 H1209 0.930 . S
C1225 C1224 1.377 . S
C1225 C1226 1.379 . S
C1226 H1210 0.931 . S
C1226 C1220 1.383 . S
C1226 C1225 1.379 . S
H1227 C1221 0.959 . S
H1228 C1221 0.961 . S
H1229 C1221 0.960 . S
H1230 C1222 0.930 . S
H1231 C1223 0.929 . S
H1232 C1240 0.929 . S
H1233 C1242 0.930 . S
H1234 C1244 0.930 . S
H1235 C1247 0.929 . S
H1236 C1250 0.930 . S
H1237 C1252 0.960 . S
H1238 C1252 0.960 . S
H1239 C1252 0.960 . S
C1240 H1232 0.929 . S
C1240 C1241 1.377 . S
C1240 C1242 1.384 . S
C1241 C1240 1.377 . S
C1241 C1247 1.390 . S
C1242 H1233 0.930 . S
C1242 C1240 1.384 . S
C1242 C1243 1.372 . S
C1243 C1242 1.372 . S
C1243 C1244 1.400 . S
C1243 C1248 1.490 . S
C1244 H1234 0.930 . S
C1244 C1243 1.400 . S
C1244 C1247 1.386 . S
H1245 C1261 0.930 . S
H1246 C1262 0.931 . S
C1247 H1235 0.929 . S
C1247 C1241 1.390 . S
C1247 C1244 1.386 . S
C1248 C1243 1.490 . S
C1248 C1250 1.395 . S
C1248 C1251 1.403 . S
H1249 C1255 0.930 . S
C1250 H1236 0.930 . S
C1250 C1248 1.395 . S
C1250 C1253 1.403 . S
C1251 C1248 1.403 . S
C1251 C1252 1.524 . S
C1251 C1255 1.400 . S
C1252 H1237 0.960 . S
C1252 H1238 0.960 . S
C1252 H1239 0.960 . S
C1252 C1251 1.524 . S
C1253 C1250 1.403 . S
C1253 C1254 1.392 . S
C1253 C1257 1.495 . S
C1254 C1253 1.392 . S
C1254 C1255 1.385 . S
C1254 C1256 1.478 . S
C1255 H1249 0.930 . S
C1255 C1251 1.400 . S
C1255 C1254 1.385 . S
C1256 C1254 1.478 . S
C1256 C1258 1.381 . S
C1256 C1262 1.383 . S
C1257 C1253 1.495 . S
C1257 H1263 0.959 . S
C1257 H1264 0.961 . S
C1257 H1265 0.960 . S
C1258 C1256 1.381 . S
C1258 C1259 1.394 . S
C1258 H1266 0.930 . S
C1259 C1258 1.394 . S
C1259 C1260 1.383 . S
C1259 H1267 0.929 . S
C1260 C1259 1.383 . S
C1260 C1261 1.377 . S
C1261 H1245 0.930 . S
C1261 C1260 1.377 . S
C1261 C1262 1.379 . S
C1262 H1246 0.931 . S
C1262 C1256 1.383 . S
C1262 C1261 1.379 . S
H1263 C1257 0.959 . S
H1264 C1257 0.961 . S
H1265 C1257 0.960 . S
H1266 C1258 0.930 . S
H1267 C1259 0.929 . S
H1268 C1276 0.929 . S
H1269 C1278 0.930 . S
H1270 C1280 0.930 . S
H1271 C1283 0.929 . S
H1272 C1286 0.930 . S
H1273 C1288 0.960 . S
H1274 C1288 0.960 . S
H1275 C1288 0.960 . S
C1276 H1268 0.929 . S
C1276 C1277 1.377 . S
C1276 C1278 1.384 . S
C1277 C1276 1.377 . S
C1277 C1283 1.390 . S
C1278 H1269 0.930 . S
C1278 C1276 1.384 . S
C1278 C1279 1.372 . S
C1279 C1278 1.372 . S
C1279 C1280 1.400 . S
C1279 C1284 1.490 . S
C1280 H1270 0.930 . S
C1280 C1279 1.400 . S
C1280 C1283 1.386 . S
H1281 C1297 0.930 . S
H1282 C1298 0.931 . S
C1283 H1271 0.929 . S
C1283 C1277 1.390 . S
C1283 C1280 1.386 . S
C1284 C1279 1.490 . S
C1284 C1286 1.395 . S
C1284 C1287 1.403 . S
H1285 C1291 0.930 . S
C1286 H1272 0.930 . S
C1286 C1284 1.395 . S
C1286 C1289 1.403 . S
C1287 C1284 1.403 . S
C1287 C1288 1.524 . S
C1287 C1291 1.400 . S
C1288 H1273 0.960 . S
C1288 H1274 0.960 . S
C1288 H1275 0.960 . S
C1288 C1287 1.524 . S
C1289 C1286 1.403 . S
C1289 C1290 1.392 . S
C1289 C1293 1.495 . S
C1290 C1289 1.392 . S
C1290 C1291 1.385 . S
C1290 C1292 1.478 . S
C1291 H1285 0.930 . S
C1291 C1287 1.400 . S
C1291 C1290 1.385 . S
C1292 C1290 1.478 . S
C1292 C1294 1.381 . S
C1292 C1298 1.383 . S
C1293 C1289 1.495 . S
C1293 H1299 0.959 . S
C1293 H1300 0.961 . S
C1293 H1301 0.960 . S
C1294 C1292 1.381 . S
C1294 C1295 1.394 . S
C1294 H1302 0.930 . S
C1295 C1294 1.394 . S
C1295 C1296 1.383 . S
C1295 H1303 0.929 . S
C1296 C1295 1.383 . S
C1296 C1297 1.377 . S
C1297 H1281 0.930 . S
C1297 C1296 1.377 . S
C1297 C1298 1.379 . S
C1298 H1282 0.931 . S
C1298 C1292 1.383 . S
C1298 C1297 1.379 . S
H1299 C1293 0.959 . S
H1300 C1293 0.961 . S
H1301 C1293 0.960 . S
H1302 C1294 0.930 . S
H1303 C1295 0.929 . S
H1304 C1312 0.929 . S
H1305 C1314 0.930 . S
H1306 C1316 0.930 . S
H1307 C1319 0.929 . S
H1308 C1322 0.930 . S
H1309 C1324 0.960 . S
H1310 C1324 0.960 . S
H1311 C1324 0.960 . S
C1312 H1304 0.929 . S
C1312 C1313 1.377 . S
C1312 C1314 1.384 . S
C1313 C1312 1.377 . S
C1313 C1319 1.390 . S
C1314 H1305 0.930 . S
C1314 C1312 1.384 . S
C1314 C1315 1.372 . S
C1315 C1314 1.372 . S
C1315 C1316 1.400 . S
C1315 C1320 1.490 . S
C1316 H1306 0.930 . S
C1316 C1315 1.400 . S
C1316 C1319 1.386 . S
H1317 C1333 0.930 . S
H1318 C1334 0.931 . S
C1319 H1307 0.929 . S
C1319 C1313 1.390 . S
C1319 C1316 1.386 . S
C1320 C1315 1.490 . S
C1320 C1322 1.395 . S
C1320 C1323 1.403 . S
H1321 C1327 0.930 . S
C1322 H1308 0.930 . S
C1322 C1320 1.395 . S
C1322 C1325 1.403 . S
C1323 C1320 1.403 . S
C1323 C1324 1.524 . S
C1323 C1327 1.400 . S
C1324 H1309 0.960 . S
C1324 H1310 0.960 . S
C1324 H1311 0.960 . S
C1324 C1323 1.524 . S
C1325 C1322 1.403 . S
C1325 C1326 1.392 . S
C1325 C1329 1.495 . S
C1326 C1325 1.392 . S
C1326 C1327 1.385 . S
C1326 C1328 1.478 . S
C1327 H1321 0.930 . S
C1327 C1323 1.400 . S
C1327 C1326 1.385 . S
C1328 C1326 1.478 . S
C1328 C1330 1.381 . S
C1328 C1334 1.383 . S
C1329 C1325 1.495 . S
C1329 H1335 0.959 . S
C1329 H1336 0.961 . S
C1329 H1337 0.960 . S
C1330 C1328 1.381 . S
C1330 C1331 1.394 . S
C1330 H1338 0.930 . S
C1331 C1330 1.394 . S
C1331 C1332 1.383 . S
C1331 H1339 0.929 . S
C1332 C1331 1.383 . S
C1332 C1333 1.377 . S
C1333 H1317 0.930 . S
C1333 C1332 1.377 . S
C1333 C1334 1.379 . S
C1334 H1318 0.931 . S
C1334 C1328 1.383 . S
C1334 C1333 1.379 . S
H1335 C1329 0.959 . S
H1336 C1329 0.961 . S
H1337 C1329 0.960 . S
H1338 C1330 0.930 . S
H1339 C1331 0.929 . S
H1340 C1348 0.929 . S
H1341 C1350 0.930 . S
H1342 C1352 0.930 . S
H1343 C1355 0.929 . S
H1344 C1358 0.930 . S
H1345 C1360 0.960 . S
H1346 C1360 0.960 . S
H1347 C1360 0.960 . S
C1348 H1340 0.929 . S
C1348 C1349 1.377 . S
C1348 C1350 1.384 . S
C1349 C1348 1.377 . S
C1349 C1355 1.390 . S
C1350 H1341 0.930 . S
C1350 C1348 1.384 . S
C1350 C1351 1.372 . S
C1351 C1350 1.372 . S
C1351 C1352 1.400 . S
C1351 C1356 1.490 . S
C1352 H1342 0.930 . S
C1352 C1351 1.400 . S
C1352 C1355 1.386 . S
H1353 C1369 0.930 . S
H1354 C1370 0.931 . S
C1355 H1343 0.929 . S
C1355 C1349 1.390 . S
C1355 C1352 1.386 . S
C1356 C1351 1.490 . S
C1356 C1358 1.395 . S
C1356 C1359 1.403 . S
H1357 C1363 0.930 . S
C1358 H1344 0.930 . S
C1358 C1356 1.395 . S
C1358 C1361 1.403 . S
C1359 C1356 1.403 . S
C1359 C1360 1.524 . S
C1359 C1363 1.400 . S
C1360 H1345 0.960 . S
C1360 H1346 0.960 . S
C1360 H1347 0.960 . S
C1360 C1359 1.524 . S
C1361 C1358 1.403 . S
C1361 C1362 1.392 . S
C1361 C1365 1.495 . S
C1362 C1361 1.392 . S
C1362 C1363 1.385 . S
C1362 C1364 1.478 . S
C1363 H1357 0.930 . S
C1363 C1359 1.400 . S
C1363 C1362 1.385 . S
C1364 C1362 1.478 . S
C1364 C1366 1.381 . S
C1364 C1370 1.383 . S
C1365 C1361 1.495 . S
C1365 H1371 0.959 . S
C1365 H1372 0.961 . S
C1365 H1373 0.960 . S
C1366 C1364 1.381 . S
C1366 C1367 1.394 . S
C1366 H1374 0.930 . S
C1367 C1366 1.394 . S
C1367 C1368 1.383 . S
C1367 H1375 0.929 . S
C1368 C1367 1.383 . S
C1368 C1369 1.377 . S
C1369 H1353 0.930 . S
C1369 C1368 1.377 . S
C1369 C1370 1.379 . S
C1370 H1354 0.931 . S
C1370 C1364 1.383 . S
C1370 C1369 1.379 . S
H1371 C1365 0.959 . S
H1372 C1365 0.961 . S
H1373 C1365 0.960 . S
H1374 C1366 0.930 . S
H1375 C1367 0.929 . S
H1376 C1384 0.929 . S
H1377 C1386 0.930 . S
H1378 C1388 0.930 . S
H1379 C1391 0.929 . S
H1380 C1394 0.930 . S
H1381 C1396 0.960 . S
H1382 C1396 0.960 . S
H1383 C1396 0.960 . S
C1384 H1376 0.929 . S
C1384 C1385 1.377 . S
C1384 C1386 1.384 . S
C1385 C1384 1.377 . S
C1385 C1391 1.390 . S
C1386 H1377 0.930 . S
C1386 C1384 1.384 . S
C1386 C1387 1.372 . S
C1387 C1386 1.372 . S
C1387 C1388 1.400 . S
C1387 C1392 1.490 . S
C1388 H1378 0.930 . S
C1388 C1387 1.400 . S
C1388 C1391 1.386 . S
H1389 C1405 0.930 . S
H1390 C1406 0.931 . S
C1391 H1379 0.929 . S
C1391 C1385 1.390 . S
C1391 C1388 1.386 . S
C1392 C1387 1.490 . S
C1392 C1394 1.395 . S
C1392 C1395 1.403 . S
H1393 C1399 0.930 . S
C1394 H1380 0.930 . S
C1394 C1392 1.395 . S
C1394 C1397 1.403 . S
C1395 C1392 1.403 . S
C1395 C1396 1.524 . S
C1395 C1399 1.400 . S
C1396 H1381 0.960 . S
C1396 H1382 0.960 . S
C1396 H1383 0.960 . S
C1396 C1395 1.524 . S
C1397 C1394 1.403 . S
C1397 C1398 1.392 . S
C1397 C1401 1.495 . S
C1398 C1397 1.392 . S
C1398 C1399 1.385 . S
C1398 C1400 1.478 . S
C1399 H1393 0.930 . S
C1399 C1395 1.400 . S
C1399 C1398 1.385 . S
C1400 C1398 1.478 . S
C1400 C1402 1.381 . S
C1400 C1406 1.383 . S
C1401 C1397 1.495 . S
C1401 H1407 0.959 . S
C1401 H1408 0.961 . S
C1401 H1409 0.960 . S
C1402 C1400 1.381 . S
C1402 C1403 1.394 . S
C1402 H1410 0.930 . S
C1403 C1402 1.394 . S
C1403 C1404 1.383 . S
C1403 H1411 0.929 . S
C1404 C1403 1.383 . S
C1404 C1405 1.377 . S
C1405 H1389 0.930 . S
C1405 C1404 1.377 . S
C1405 C1406 1.379 . S
C1406 H1390 0.931 . S
C1406 C1400 1.383 . S
C1406 C1405 1.379 . S
H1407 C1401 0.959 . S
H1408 C1401 0.961 . S
H1409 C1401 0.960 . S
H1410 C1402 0.930 . S
H1411 C1403 0.929 . S
H1412 C1420 0.929 . S
H1413 C1422 0.930 . S
H1414 C1424 0.930 . S
H1415 C1427 0.929 . S
H1416 C1430 0.930 . S
H1417 C1432 0.960 . S
H1418 C1432 0.960 . S
H1419 C1432 0.960 . S
C1420 H1412 0.929 . S
C1420 C1421 1.377 . S
C1420 C1422 1.384 . S
C1421 C1420 1.377 . S
C1421 C1427 1.390 . S
C1422 H1413 0.930 . S
C1422 C1420 1.384 . S
C1422 C1423 1.372 . S
C1423 C1422 1.372 . S
C1423 C1424 1.400 . S
C1423 C1428 1.490 . S
C1424 H1414 0.930 . S
C1424 C1423 1.400 . S
C1424 C1427 1.386 . S
H1425 C1441 0.930 . S
H1426 C1442 0.931 . S
C1427 H1415 0.929 . S
C1427 C1421 1.390 . S
C1427 C1424 1.386 . S
C1428 C1423 1.490 . S
C1428 C1430 1.395 . S
C1428 C1431 1.403 . S
H1429 C1435 0.930 . S
C1430 H1416 0.930 . S
C1430 C1428 1.395 . S
C1430 C1433 1.403 . S
C1431 C1428 1.403 . S
C1431 C1432 1.524 . S
C1431 C1435 1.400 . S
C1432 H1417 0.960 . S
C1432 H1418 0.960 . S
C1432 H1419 0.960 . S
C1432 C1431 1.524 . S
C1433 C1430 1.403 . S
C1433 C1434 1.392 . S
C1433 C1437 1.495 . S
C1434 C1433 1.392 . S
C1434 C1435 1.385 . S
C1434 C1436 1.478 . S
C1435 H1429 0.930 . S
C1435 C1431 1.400 . S
C1435 C1434 1.385 . S
C1436 C1434 1.478 . S
C1436 C1438 1.381 . S
C1436 C1442 1.383 . S
C1437 C1433 1.495 . S
C1437 H1443 0.959 . S
C1437 H1444 0.961 . S
C1437 H1445 0.960 . S
C1438 C1436 1.381 . S
C1438 C1439 1.394 . S
C1438 H1446 0.930 . S
C1439 C1438 1.394 . S
C1439 C1440 1.383 . S
C1439 H1447 0.929 . S
C1440 C1439 1.383 . S
C1440 C1441 1.377 . S
C1441 H1425 0.930 . S
C1441 C1440 1.377 . S
C1441 C1442 1.379 . S
C1442 H1426 0.931 . S
C1442 C1436 1.383 . S
C1442 C1441 1.379 . S
H1443 C1437 0.959 . S
H1444 C1437 0.961 . S
H1445 C1437 0.960 . S
H1446 C1438 0.930 . S
H1447 C1439 0.929 . S
H1448 C1456 0.929 . S
H1449 C1458 0.930 . S
H1450 C1460 0.930 . S
H1451 C1463 0.929 . S
H1452 C1466 0.930 . S
H1453 C1468 0.960 . S
H1454 C1468 0.960 . S
H1455 C1468 0.960 . S
C1456 H1448 0.929 . S
C1456 C1457 1.377 . S
C1456 C1458 1.384 . S
C1457 C1456 1.377 . S
C1457 C1463 1.390 . S
C1458 H1449 0.930 . S
C1458 C1456 1.384 . S
C1458 C1459 1.372 . S
C1459 C1458 1.372 . S
C1459 C1460 1.400 . S
C1459 C1464 1.490 . S
C1460 H1450 0.930 . S
C1460 C1459 1.400 . S
C1460 C1463 1.386 . S
H1461 C1477 0.930 . S
H1462 C1478 0.931 . S
C1463 H1451 0.929 . S
C1463 C1457 1.390 . S
C1463 C1460 1.386 . S
C1464 C1459 1.490 . S
C1464 C1466 1.395 . S
C1464 C1467 1.403 . S
H1465 C1471 0.930 . S
C1466 H1452 0.930 . S
C1466 C1464 1.395 . S
C1466 C1469 1.403 . S
C1467 C1464 1.403 . S
C1467 C1468 1.524 . S
C1467 C1471 1.400 . S
C1468 H1453 0.960 . S
C1468 H1454 0.960 . S
C1468 H1455 0.960 . S
C1468 C1467 1.524 . S
C1469 C1466 1.403 . S
C1469 C1470 1.392 . S
C1469 C1473 1.495 . S
C1470 C1469 1.392 . S
C1470 C1471 1.385 . S
C1470 C1472 1.478 . S
C1471 H1465 0.930 . S
C1471 C1467 1.400 . S
C1471 C1470 1.385 . S
C1472 C1470 1.478 . S
C1472 C1474 1.381 . S
C1472 C1478 1.383 . S
C1473 C1469 1.495 . S
C1473 H1479 0.959 . S
C1473 H1480 0.961 . S
C1473 H1481 0.960 . S
C1474 C1472 1.381 . S
C1474 C1475 1.394 . S
C1474 H1482 0.930 . S
C1475 C1474 1.394 . S
C1475 C1476 1.383 . S
C1475 H1483 0.929 . S
C1476 C1475 1.383 . S
C1476 C1477 1.377 . S
C1477 H1461 0.930 . S
C1477 C1476 1.377 . S
C1477 C1478 1.379 . S
C1478 H1462 0.931 . S
C1478 C1472 1.383 . S
C1478 C1477 1.379 . S
H1479 C1473 0.959 . S
H1480 C1473 0.961 . S
H1481 C1473 0.960 . S
H1482 C1474 0.930 . S
H1483 C1475 0.929 . S
H1484 C1492 0.929 . S
H1485 C1494 0.930 . S
H1486 C1496 0.930 . S
H1487 C1499 0.929 . S
H1488 C1502 0.930 . S
H1489 C1504 0.960 . S
H1490 C1504 0.960 . S
H1491 C1504 0.960 . S
C1492 H1484 0.929 . S
C1492 C1493 1.377 . S
C1492 C1494 1.384 . S
C1493 C1492 1.377 . S
C1493 C1499 1.390 . S
C1494 H1485 0.930 . S
C1494 C1492 1.384 . S
C1494 C1495 1.372 . S
C1495 C1494 1.372 . S
C1495 C1496 1.400 . S
C1495 C1500 1.490 . S
C1496 H1486 0.930 . S
C1496 C1495 1.400 . S
C1496 C1499 1.386 . S
H1497 C1513 0.930 . S
H1498 C1514 0.931 . S
C1499 H1487 0.929 . S
C1499 C1493 1.390 . S
C1499 C1496 1.386 . S
C1500 C1495 1.490 . S
C1500 C1502 1.395 . S
C1500 C1503 1.403 . S
H1501 C1507 0.930 . S
C1502 H1488 0.930 . S
C1502 C1500 1.395 . S
C1502 C1505 1.403 . S
C1503 C1500 1.403 . S
C1503 C1504 1.524 . S
C1503 C1507 1.400 . S
C1504 H1489 0.960 . S
C1504 H1490 0.960 . S
C1504 H1491 0.960 . S
C1504 C1503 1.524 . S
C1505 C1502 1.403 . S
C1505 C1506 1.392 . S
C1505 C1509 1.495 . S
C1506 C1505 1.392 . S
C1506 C1507 1.385 . S
C1506 C1508 1.478 . S
C1507 H1501 0.930 . S
C1507 C1503 1.400 . S
C1507 C1506 1.385 . S
C1508 C1506 1.478 . S
C1508 C1510 1.381 . S
C1508 C1514 1.383 . S
C1509 C1505 1.495 . S
C1509 H1515 0.959 . S
C1509 H1516 0.961 . S
C1509 H1517 0.960 . S
C1510 C1508 1.381 . S
C1510 C1511 1.394 . S
C1510 H1518 0.930 . S
C1511 C1510 1.394 . S
C1511 C1512 1.383 . S
C1511 H1519 0.929 . S
C1512 C1511 1.383 . S
C1512 C1513 1.377 . S
C1513 H1497 0.930 . S
C1513 C1512 1.377 . S
C1513 C1514 1.379 . S
C1514 H1498 0.931 . S
C1514 C1508 1.383 . S
C1514 C1513 1.379 . S
H1515 C1509 0.959 . S
H1516 C1509 0.961 . S
H1517 C1509 0.960 . S
H1518 C1510 0.930 . S
H1519 C1511 0.929 . S
C377 N2 1.544 . S
C396 N48 1.574 . S
C413 N71 1.541 . S
C432 N25 1.572 . S
C449 N94 1.546 . S
C468 N140 1.572 . S
C485 N163 1.545 . S
C504 N117 1.574 . S
C521 N186 1.540 . S
C540 N232 1.512 . S
C557 N255 1.553 . S
C576 N209 1.574 . S
C593 N278 1.543 . S
C612 N324 1.525 . S
C629 N347 1.542 . S
C648 N301 1.517 . S
C665 C108 1.651 . S
C684 C16 1.668 . S
C701 C39 1.654 . S
C720 C131 1.633 . S
C737 C62 1.651 . S
C756 C154 1.668 . S
C773 C177 1.657 . S
C792 C85 1.644 . S
C809 C200 1.650 . S
C828 C292 1.634 . S
C845 C223 1.654 . S
C864 C315 1.657 . S
C881 C246 1.657 . S
C900 C338 1.665 . S
C917 C269 1.654 . S
C936 C361 1.659 . S
C953 C237 1.674 . S
C972 C7 1.683 . S
C989 C260 1.679 . S
C1008 C30 1.682 . S
C1025 C53 1.675 . S
C1044 C191 1.671 . S
C1061 C76 1.679 . S
C1080 C214 1.679 . S
C1097 C99 1.680 . S
C1116 C329 1.664 . S
C1133 C122 1.680 . S
C1152 C352 1.666 . S
C1169 C145 1.675 . S
C1188 C283 1.668 . S
C1205 C306 1.680 . S
C1224 C168 1.675 . S
C1241 N12 1.565 . S
C1260 N357 1.577 . S
C1277 N288 1.573 . S
C1296 N35 1.567 . S
C1313 N58 1.565 . S
C1332 N311 1.569 . S
C1349 N334 1.565 . S
C1368 N81 1.571 . S
C1385 N219 1.573 . S
C1404 N104 1.551 . S
C1421 N127 1.573 . S
C1440 N242 1.561 . S
C1457 N265 1.573 . S
C1476 N150 1.563 . S
C1493 N196 1.565 . S
C1512 N173 1.567 . S
