# Generated by pormake.
# Topology zfn, (5)-cn, num edge types: 1
# Building blocks:
#     Node 0, Type 0, BuildingBlock: XOMCOT_clean_sbu_1, # of connection points: 5
#     Node 1, Type 0, BuildingBlock: XOMCOT_clean_sbu_1, # of connection points: 5
#     Node 2, Type 0, BuildingBlock: XOMCOT_clean_sbu_1, # of connection points: 5
#     Node 3, Type 0, BuildingBlock: XOMCOT_clean_sbu_1, # of connection points: 5
#     Node 4, Type 0, BuildingBlock: XOMCOT_clean_sbu_1, # of connection points: 5
#     Node 5, Type 0, BuildingBlock: XOMCOT_clean_sbu_1, # of connection points: 5
#     Node 6, Type 0, BuildingBlock: XOMCOT_clean_sbu_1, # of connection points: 5
#     Node 7, Type 0, BuildingBlock: XOMCOT_clean_sbu_1, # of connection points: 5
#     Node 8, Type 0, BuildingBlock: XOMCOT_clean_sbu_1, # of connection points: 5
#     Node 9, Type 0, BuildingBlock: XOMCOT_clean_sbu_1, # of connection points: 5
#     Node 10, Type 0, BuildingBlock: XOMCOT_clean_sbu_1, # of connection points: 5
#     Node 11, Type 0, BuildingBlock: XOMCOT_clean_sbu_1, # of connection points: 5
#     Node 12, Type 0, BuildingBlock: XOMCOT_clean_sbu_1, # of connection points: 5
#     Node 13, Type 0, BuildingBlock: XOMCOT_clean_sbu_1, # of connection points: 5
#     Node 14, Type 0, BuildingBlock: XOMCOT_clean_sbu_1, # of connection points: 5
#     Node 15, Type 0, BuildingBlock: XOMCOT_clean_sbu_1, # of connection points: 5
#     Edge 16, Type (0, 0), BuildingBlock: KIFKEQ_clean_linker_1, # of connection points: 2
#     Edge 17, Type (0, 0), BuildingBlock: KIFKEQ_clean_linker_1, # of connection points: 2
#     Edge 18, Type (0, 0), BuildingBlock: KIFKEQ_clean_linker_1, # of connection points: 2
#     Edge 19, Type (0, 0), BuildingBlock: KIFKEQ_clean_linker_1, # of connection points: 2
#     Edge 20, Type (0, 0), BuildingBlock: KIFKEQ_clean_linker_1, # of connection points: 2
#     Edge 21, Type (0, 0), BuildingBlock: KIFKEQ_clean_linker_1, # of connection points: 2
#     Edge 22, Type (0, 0), BuildingBlock: KIFKEQ_clean_linker_1, # of connection points: 2
#     Edge 23, Type (0, 0), BuildingBlock: KIFKEQ_clean_linker_1, # of connection points: 2
#     Edge 24, Type (0, 0), BuildingBlock: KIFKEQ_clean_linker_1, # of connection points: 2
#     Edge 25, Type (0, 0), BuildingBlock: KIFKEQ_clean_linker_1, # of connection points: 2
#     Edge 26, Type (0, 0), BuildingBlock: KIFKEQ_clean_linker_1, # of connection points: 2
#     Edge 27, Type (0, 0), BuildingBlock: KIFKEQ_clean_linker_1, # of connection points: 2
#     Edge 28, Type (0, 0), BuildingBlock: KIFKEQ_clean_linker_1, # of connection points: 2
#     Edge 29, Type (0, 0), BuildingBlock: KIFKEQ_clean_linker_1, # of connection points: 2
#     Edge 30, Type (0, 0), BuildingBlock: KIFKEQ_clean_linker_1, # of connection points: 2
#     Edge 31, Type (0, 0), BuildingBlock: KIFKEQ_clean_linker_1, # of connection points: 2
#     Edge 32, Type (0, 0), BuildingBlock: KIFKEQ_clean_linker_1, # of connection points: 2
#     Edge 33, Type (0, 0), BuildingBlock: KIFKEQ_clean_linker_1, # of connection points: 2
#     Edge 34, Type (0, 0), BuildingBlock: KIFKEQ_clean_linker_1, # of connection points: 2
#     Edge 35, Type (0, 0), BuildingBlock: KIFKEQ_clean_linker_1, # of connection points: 2
#     Edge 36, Type (0, 0), BuildingBlock: KIFKEQ_clean_linker_1, # of connection points: 2
#     Edge 37, Type (0, 0), BuildingBlock: KIFKEQ_clean_linker_1, # of connection points: 2
#     Edge 38, Type (0, 0), BuildingBlock: KIFKEQ_clean_linker_1, # of connection points: 2
#     Edge 39, Type (0, 0), BuildingBlock: KIFKEQ_clean_linker_1, # of connection points: 2
#     Edge 40, Type (0, 0), BuildingBlock: KIFKEQ_clean_linker_1, # of connection points: 2
#     Edge 41, Type (0, 0), BuildingBlock: KIFKEQ_clean_linker_1, # of connection points: 2
#     Edge 42, Type (0, 0), BuildingBlock: KIFKEQ_clean_linker_1, # of connection points: 2
#     Edge 43, Type (0, 0), BuildingBlock: KIFKEQ_clean_linker_1, # of connection points: 2
#     Edge 44, Type (0, 0), BuildingBlock: KIFKEQ_clean_linker_1, # of connection points: 2
#     Edge 45, Type (0, 0), BuildingBlock: KIFKEQ_clean_linker_1, # of connection points: 2
#     Edge 46, Type (0, 0), BuildingBlock: KIFKEQ_clean_linker_1, # of connection points: 2
#     Edge 47, Type (0, 0), BuildingBlock: KIFKEQ_clean_linker_1, # of connection points: 2
#     Edge 48, Type (0, 0), BuildingBlock: KIFKEQ_clean_linker_1, # of connection points: 2
#     Edge 49, Type (0, 0), BuildingBlock: KIFKEQ_clean_linker_1, # of connection points: 2
#     Edge 50, Type (0, 0), BuildingBlock: KIFKEQ_clean_linker_1, # of connection points: 2
#     Edge 51, Type (0, 0), BuildingBlock: KIFKEQ_clean_linker_1, # of connection points: 2
#     Edge 52, Type (0, 0), BuildingBlock: KIFKEQ_clean_linker_1, # of connection points: 2
#     Edge 53, Type (0, 0), BuildingBlock: KIFKEQ_clean_linker_1, # of connection points: 2
#     Edge 54, Type (0, 0), BuildingBlock: KIFKEQ_clean_linker_1, # of connection points: 2
#     Edge 55, Type (0, 0), BuildingBlock: KIFKEQ_clean_linker_1, # of connection points: 2
# Relax obj value: 0.120
# Max RMSD: 0.125
# Mean RMSD: 0.125
data_MOF--net-zfn--node1-XOMCOT_clean_sbu_1--edge1-KIFKEQ_clean_linker_1
_symmetry_space_group_name_H-M    P1
_symmetry_Int_Tables_number       1
_symmetry_cell_setting            triclinic
loop_
_symmetry_equiv_pos_as_xyz
'x, y, z'
_cell_length_a     76.378848
_cell_length_b     76.363487
_cell_length_c     17.765005
_cell_angle_alpha  90.013874
_cell_angle_beta   89.984582
_cell_angle_gamma 89.993675
loop_
_atom_site_label
_atom_site_type_symbol
_atom_site_fract_x
_atom_site_fract_y
_atom_site_fract_z
_atom_type_partial_charge
C0 C 0.0008 0.34132 0.1408 0.0
C1 C 0.99839 0.34056 0.06397 0.0
N2 N 0.01396 0.34337 0.0302 0.0
N3 N 0.01776 0.34472 0.15554 0.0
C4 C 0.02546 0.34572 0.08712 0.0
H5 H 0.99077 0.33982 0.18333 0.0
Co6 Co 0.02716 0.34828 0.25121 0.0
C7 C 0.05709 0.37257 0.22414 0.0
O8 O 0.05284 0.3816 0.28447 0.0
N9 N 0.03669 0.35125 0.34945 0.0
C10 C 0.05568 0.34906 0.44445 0.0
C11 C 0.05368 0.34862 0.36758 0.0
C12 C 0.02858 0.35262 0.41718 0.0
N13 N 0.03984 0.35149 0.47574 0.0
O14 O 0.03798 0.32563 0.24636 0.0
H15 H 0.06392 0.34561 0.32756 0.0
H16 H 0.01462 0.35354 0.42441 0.0
O17 O 0.04803 0.35912 0.20593 0.0
C18 C 0.03039 0.31418 0.28713 0.0
O19 O 0.01673 0.31894 0.32725 0.0
N20 N 0.01503 0.36984 0.25573 0.0
C21 C 0.99146 0.39805 0.25532 0.0
C22 C 0.00602 0.39784 0.20691 0.0
C23 C 0.01747 0.38352 0.20712 0.0
C24 C 0.0005 0.36945 0.30014 0.0
C25 C 0.98894 0.38358 0.30287 0.0
H26 H 0.02759 0.38307 0.16482 0.0
H27 H 0.99723 0.35767 0.33044 0.0
H28 H 0.03915 0.34861 0.0789 0.0
H29 H 0.98613 0.33813 0.03536 0.0
H30 H 0.06772 0.3467 0.47496 0.0
H31 H 0.00811 0.40821 0.16635 0.0
H32 H 0.97785 0.38282 0.34061 0.0
C33 C 0.15064 0.99695 0.59575 0.0
C34 C 0.15085 0.99473 0.5189 0.0
N35 N 0.15285 0.01054 0.48629 0.0
N36 N 0.15237 0.01411 0.6118 0.0
C37 C 0.15396 0.02203 0.54407 0.0
H38 H 0.14905 0.98675 0.63736 0.0
Co39 Co 0.15151 0.02396 0.70799 0.0
C40 C 0.13194 0.05746 0.68593 0.0
O41 O 0.1244 0.05586 0.75206 0.0
N42 N 0.15134 0.03381 0.80591 0.0
C43 C 0.15817 0.05206 0.89949 0.0
C44 C 0.1578 0.04982 0.82275 0.0
C45 C 0.14842 0.0264 0.87412 0.0
N46 N 0.15233 0.03725 0.9319 0.0
O47 O 0.17535 0.03151 0.6982 0.0
H48 H 0.16262 0.0591 0.78168 0.0
H49 H 0.14414 0.01311 0.88223 0.0
O50 O 0.14296 0.04594 0.6638 0.0
C51 C 0.1859 0.01897 0.71146 0.0
O52 O 0.17939 0.00333 0.72448 0.0
N53 N 0.12854 0.01504 0.71838 0.0
C54 C 0.09756 0.99556 0.72348 0.0
C55 C 0.09896 0.01021 0.67639 0.0
C56 C 0.11463 0.01968 0.67403 0.0
C57 C 0.12754 0.00033 0.76168 0.0
C58 C 0.11205 0.99072 0.76691 0.0
H59 H 0.11581 0.02993 0.63266 0.0
H60 H 0.13919 0.99531 0.7885 0.0
H61 H 0.15553 0.036 0.53722 0.0
H62 H 0.14959 0.98238 0.48947 0.0
H63 H 0.16323 0.06337 0.92907 0.0
H64 H 0.08824 0.01394 0.63983 0.0
H65 H 0.11177 0.97896 0.80098 0.0
C66 C 0.49611 0.15649 0.12869 0.0
C67 C 0.4984 0.15714 0.05182 0.0
N68 N 0.48256 0.15608 0.01862 0.0
N69 N 0.47892 0.15487 0.14411 0.0
C70 C 0.47098 0.15494 0.07604 0.0
H71 H 0.50635 0.15681 0.17071 0.0
Co72 Co 0.46925 0.15192 0.23972 0.0
C73 C 0.43852 0.12831 0.21426 0.0
O74 O 0.44109 0.12038 0.27896 0.0
N75 N 0.45942 0.14955 0.3378 0.0
C76 C 0.44051 0.15324 0.43232 0.0
C77 C 0.44265 0.15347 0.35548 0.0
C78 C 0.46729 0.14751 0.40573 0.0
N79 N 0.45608 0.14959 0.46405 0.0
O80 O 0.45857 0.17466 0.23198 0.0
H81 H 0.43272 0.15713 0.31503 0.0
H82 H 0.4811 0.14538 0.41326 0.0
O83 O 0.44861 0.14082 0.1939 0.0
C84 C 0.4659 0.1861 0.27374 0.0
O85 O 0.47921 0.18132 0.31585 0.0
N86 N 0.48121 0.13032 0.24733 0.0
C87 C 0.50488 0.1022 0.24979 0.0
C88 C 0.48997 0.1018 0.20343 0.0
C89 C 0.47844 0.11606 0.20224 0.0
C90 C 0.49593 0.13117 0.29038 0.0
C91 C 0.50757 0.11714 0.29444 0.0
H92 H 0.46805 0.11596 0.16124 0.0
H93 H 0.49923 0.14325 0.31864 0.0
H94 H 0.457 0.15376 0.06857 0.0
H95 H 0.51081 0.15824 0.02279 0.0
H96 H 0.42865 0.15655 0.46249 0.0
H97 H 0.48768 0.091 0.16522 0.0
H98 H 0.51888 0.11831 0.33079 0.0
C99 C 0.32508 0.48993 0.59583 0.0
C100 C 0.32417 0.49232 0.519 0.0
N101 N 0.33798 0.48423 0.487 0.0
N102 N 0.33939 0.48035 0.61244 0.0
C103 C 0.34706 0.47724 0.545 0.0
H104 H 0.31583 0.49477 0.63692 0.0
Co105 Co 0.34652 0.47329 0.70895 0.0
C106 C 0.35191 0.43959 0.62913 0.0
O107 O 0.33496 0.43774 0.61959 0.0
N108 N 0.3536 0.4663 0.80592 0.0
C109 C 0.36396 0.45128 0.90355 0.0
C110 C 0.36183 0.45141 0.82666 0.0
C111 C 0.35091 0.475 0.87138 0.0
N112 N 0.35698 0.46608 0.93181 0.0
O113 O 0.32479 0.46088 0.72189 0.0
H114 H 0.36584 0.44106 0.78894 0.0
H115 H 0.34457 0.48764 0.87474 0.0
O116 O 0.35786 0.45291 0.66422 0.0
C117 C 0.31338 0.46882 0.76163 0.0
O118 O 0.31733 0.4842 0.78996 0.0
N119 N 0.36694 0.48651 0.69897 0.0
C120 C 0.39519 0.50952 0.68673 0.0
C121 C 0.39796 0.49137 0.69256 0.0
C122 C 0.38361 0.48004 0.69894 0.0
C123 C 0.36403 0.50407 0.69542 0.0
C124 C 0.37792 0.51579 0.68873 0.0
H125 H 0.38593 0.46616 0.70479 0.0
H126 H 0.35077 0.50901 0.698 0.0
H127 H 0.3592 0.47008 0.53848 0.0
H128 H 0.31389 0.49914 0.48897 0.0
H129 H 0.36966 0.44079 0.93637 0.0
H130 H 0.41106 0.48597 0.6917 0.0
H131 H 0.37515 0.52969 0.68649 0.0
C132 C 0.00151 0.15326 0.4093 0.0
C133 C 0.99916 0.15357 0.48614 0.0
N134 N 0.015 0.15269 0.51938 0.0
N135 N 0.01874 0.15196 0.39391 0.0
C136 C 0.02663 0.15195 0.46208 0.0
H137 H 0.99129 0.15377 0.3673 0.0
Co138 Co 0.02855 0.14997 0.29802 0.0
C139 C 0.06101 0.12821 0.32086 0.0
O140 O 0.0599 0.12119 0.2535 0.0
N141 N 0.03833 0.14858 0.20012 0.0
C142 C 0.05657 0.15364 0.10463 0.0
C143 C 0.05462 0.15396 0.1815 0.0
C144 C 0.03048 0.14556 0.13289 0.0
N145 N 0.04133 0.14844 0.07394 0.0
O146 O 0.03852 0.17292 0.30892 0.0
H147 H 0.06431 0.15851 0.22136 0.0
H148 H 0.0169 0.14199 0.12659 0.0
O149 O 0.04953 0.13931 0.34274 0.0
C150 C 0.03056 0.18447 0.27 0.0
O151 O 0.01713 0.1796 0.22877 0.0
N152 N 0.01726 0.12815 0.28696 0.0
C153 C 0.99396 0.09999 0.28168 0.0
C154 C 0.01013 0.09832 0.31811 0.0
C155 C 0.02145 0.11273 0.32179 0.0
C156 C 0.00158 0.12985 0.25105 0.0
C157 C 0.98977 0.11595 0.24749 0.0
H158 H 0.03293 0.11157 0.35653 0.0
H159 H 0.99782 0.14244 0.22836 0.0
H160 H 0.04064 0.15115 0.4697 0.0
H161 H 0.98673 0.15445 0.51516 0.0
H162 H 0.06803 0.15784 0.07363 0.0
H163 H 0.01352 0.08633 0.34729 0.0
H164 H 0.97724 0.11782 0.22005 0.0
C165 C 0.35102 0.99594 0.93855 0.0
C166 C 0.35075 0.99392 0.0155 0.0
N167 N 0.34786 0.0097 0.04746 0.0
N168 N 0.34847 0.01294 0.92161 0.0
C169 C 0.34634 0.02094 0.98888 0.0
H170 H 0.35334 0.98573 0.89758 0.0
Co171 Co 0.34905 0.02285 0.82546 0.0
C172 C 0.36903 0.05614 0.84839 0.0
O173 O 0.37656 0.05469 0.78219 0.0
N174 N 0.34896 0.03287 0.72788 0.0
C175 C 0.34241 0.05159 0.63581 0.0
C176 C 0.34304 0.04915 0.71235 0.0
C177 C 0.35122 0.02551 0.65909 0.0
N178 N 0.3475 0.03666 0.60201 0.0
O179 O 0.32532 0.03065 0.83699 0.0
H180 H 0.33886 0.05855 0.75422 0.0
H181 H 0.35442 0.01194 0.65026 0.0
O182 O 0.35794 0.04464 0.86995 0.0
C183 C 0.31451 0.01822 0.82594 0.0
O184 O 0.3207 0.00239 0.81409 0.0
N185 N 0.37189 0.01373 0.81309 0.0
C186 C 0.40262 0.99391 0.80485 0.0
C187 C 0.40153 0.0084 0.85303 0.0
C188 C 0.38599 0.01807 0.85687 0.0
C189 C 0.37259 0.99919 0.76864 0.0
C190 C 0.38795 0.98942 0.76184 0.0
H191 H 0.38506 0.0282 0.89892 0.0
H192 H 0.3608 0.99437 0.74236 0.0
H193 H 0.34374 0.03479 0.99449 0.0
H194 H 0.35304 0.98178 0.04523 0.0
H195 H 0.33815 0.0634 0.60763 0.0
H196 H 0.41241 0.01186 0.88926 0.0
H197 H 0.38799 0.97778 0.72696 0.0
C198 C 0.49706 0.33703 0.44218 0.0
C199 C 0.49921 0.33562 0.5189 0.0
N200 N 0.48404 0.34008 0.55253 0.0
N201 N 0.48067 0.34252 0.42715 0.0
C202 C 0.47296 0.34409 0.49565 0.0
H203 H 0.50704 0.33487 0.39997 0.0
Co204 Co 0.47305 0.34884 0.33061 0.0
C205 C 0.43628 0.3584 0.36134 0.0
O206 O 0.43084 0.34766 0.30853 0.0
N207 N 0.46581 0.35541 0.23279 0.0
C208 C 0.45744 0.37229 0.13711 0.0
C209 C 0.45843 0.37089 0.21416 0.0
C210 C 0.46917 0.34762 0.16563 0.0
N211 N 0.46421 0.35765 0.10657 0.0
O212 O 0.46088 0.32693 0.32212 0.0
H213 H 0.45475 0.38096 0.25396 0.0
H214 H 0.47606 0.33535 0.15962 0.0
O215 O 0.45262 0.35998 0.37425 0.0
C216 C 0.4704 0.31489 0.29396 0.0
O217 O 0.48664 0.31862 0.27552 0.0
N218 N 0.48615 0.36943 0.33728 0.0
C219 C 0.50931 0.39776 0.33586 0.0
C220 C 0.4935 0.3986 0.3764 0.0
C221 C 0.48212 0.38421 0.37691 0.0
C222 C 0.50146 0.36827 0.29843 0.0
C223 C 0.51323 0.3822 0.29716 0.0
H224 H 0.47016 0.38505 0.40906 0.0
H225 H 0.50455 0.35632 0.26851 0.0
H226 H 0.4598 0.34891 0.50424 0.0
H227 H 0.51113 0.33194 0.54783 0.0
H228 H 0.45256 0.38344 0.10585 0.0
H229 H 0.48982 0.41032 0.40687 0.0
H230 H 0.52542 0.38063 0.26679 0.0
C231 C 0.16419 0.49249 0.92838 0.0
C232 C 0.16424 0.49512 1.00519 0.0
N233 N 0.15387 0.48294 0.0373 0.0
N234 N 0.15386 0.47872 0.91201 0.0
C235 C 0.14764 0.4733 0.97938 0.0
H236 H 0.17154 0.49987 0.88712 0.0
Co237 Co 0.15053 0.46943 0.816 0.0
C238 C 0.12709 0.43846 0.84112 0.0
O239 O 0.11867 0.44153 0.77796 0.0
N240 N 0.14777 0.46009 0.71787 0.0
C241 C 0.151 0.44147 0.62248 0.0
C242 C 0.15146 0.44335 0.6992 0.0
C243 C 0.14558 0.46824 0.65065 0.0
N244 N 0.14748 0.45718 0.59149 0.0
O245 O 0.17323 0.45858 0.82161 0.0
H246 H 0.15504 0.43323 0.73888 0.0
H247 H 0.14389 0.4822 0.64469 0.0
O248 O 0.13969 0.44851 0.86076 0.0
C249 C 0.1846 0.46605 0.78002 0.0
O250 O 0.17979 0.47963 0.73958 0.0
N251 N 0.12916 0.48164 0.80998 0.0
C252 C 0.10171 0.50579 0.80611 0.0
C253 C 0.09983 0.4899 0.84458 0.0
C254 C 0.11392 0.47818 0.84772 0.0
C255 C 0.1312 0.49719 0.77349 0.0
C256 C 0.11764 0.50941 0.77042 0.0
H257 H 0.11269 0.46695 0.88388 0.0
H258 H 0.14376 0.50045 0.74913 0.0
H259 H 0.13867 0.46249 0.98612 0.0
H260 H 0.17184 0.50484 0.03511 0.0
H261 H 0.1536 0.42947 0.59213 0.0
H262 H 0.08793 0.48699 0.87528 0.0
H263 H 0.11971 0.52174 0.74161 0.0
C264 C 0.00321 0.65524 0.91888 0.0
C265 C 0.00545 0.65562 0.99573 0.0
N266 N 0.98953 0.65533 0.02853 0.0
N267 N 0.98597 0.65462 0.90309 0.0
C268 C 0.97797 0.65489 0.97096 0.0
H269 H 0.0135 0.65516 0.87707 0.0
Co270 Co 0.97637 0.65275 0.80679 0.0
C271 C 0.9452 0.62994 0.82866 0.0
O272 O 0.94887 0.62168 0.76567 0.0
N273 N 0.96669 0.65153 0.70872 0.0
C274 C 0.94775 0.65604 0.6151 0.0
C275 C 0.95 0.65597 0.69184 0.0
C276 C 0.97441 0.64955 0.64053 0.0
N277 N 0.96316 0.65206 0.58277 0.0
O278 O 0.96696 0.67597 0.81531 0.0
H279 H 0.9402 0.65966 0.73282 0.0
H280 H 0.98813 0.64696 0.63237 0.0
O281 O 0.95498 0.64259 0.85027 0.0
C282 C 0.97889 0.68705 0.79974 0.0
O283 O 0.99468 0.68119 0.78449 0.0
N284 N 0.98727 0.63063 0.79764 0.0
C285 C 0.01011 0.60185 0.79428 0.0
C286 C 0.99532 0.60189 0.84139 0.0
C287 C 0.98422 0.6165 0.84309 0.0
C288 C 0.00193 0.63104 0.75404 0.0
C289 C 0.01311 0.61666 0.74933 0.0
H290 H 0.97397 0.6168 0.88484 0.0
H291 H 0.00566 0.64306 0.7264 0.0
H292 H 0.96395 0.65435 0.97815 0.0
H293 H 0.01786 0.65608 0.02502 0.0
H294 H 0.9359 0.65964 0.58547 0.0
H295 H 0.99283 0.59119 0.87987 0.0
H296 H 0.02436 0.61752 0.7125 0.0
C297 C 0.84604 0.00095 0.41212 0.0
C298 C 0.8458 0.00311 0.48901 0.0
N299 N 0.84584 0.98715 0.52144 0.0
N300 N 0.84634 0.98371 0.39595 0.0
C301 C 0.84602 0.97564 0.46363 0.0
H302 H 0.84617 0.01128 0.37053 0.0
Co303 Co 0.84767 0.97412 0.29951 0.0
C304 C 0.87042 0.94284 0.31884 0.0
O305 O 0.87832 0.94649 0.25499 0.0
N306 N 0.84837 0.96441 0.20139 0.0
C307 C 0.84336 0.94548 0.10815 0.0
C308 C 0.84353 0.94781 0.18486 0.0
C309 C 0.85053 0.97201 0.13307 0.0
N310 N 0.8477 0.96077 0.07555 0.0
O311 O 0.82447 0.96482 0.31033 0.0
H312 H 0.83971 0.93812 0.2261 0.0
H313 H 0.85356 0.98562 0.12463 0.0
O314 O 0.85797 0.95269 0.34194 0.0
C315 C 0.81341 0.97687 0.29633 0.0
O316 O 0.81932 0.99262 0.28059 0.0
N317 N 0.86975 0.98496 0.28816 0.0
C318 C 0.89847 0.00782 0.2815 0.0
C319 C 0.8988 0.99295 0.32815 0.0
C320 C 0.88421 0.98184 0.33157 0.0
C321 C 0.86901 0.99967 0.24506 0.0
C322 C 0.88333 0.01087 0.2387 0.0
H323 H 0.88423 0.97152 0.37299 0.0
H324 H 0.8568 0.00341 0.21898 0.0
H325 H 0.84628 0.96159 0.47049 0.0
H326 H 0.84554 0.0155 0.51859 0.0
H327 H 0.8395 0.93369 0.07873 0.0
H328 H 0.90979 0.99041 0.36501 0.0
H329 H 0.8822 0.02217 0.2023 0.0
C330 C 0.50034 0.84481 0.92421 0.0
C331 C 0.49798 0.84466 1.001 0.0
N332 N 0.51371 0.8469 0.03394 0.0
N333 N 0.51747 0.84708 0.90871 0.0
C334 C 0.52529 0.84825 0.97674 0.0
H335 H 0.49018 0.84347 0.8822 0.0
Co336 Co 0.52693 0.84836 0.8122 0.0
C337 C 0.55947 0.86958 0.82875 0.0
O338 O 0.55659 0.8769 0.76295 0.0
N339 N 0.5363 0.849 0.71404 0.0
C340 C 0.5542 0.84266 0.61898 0.0
C341 C 0.55214 0.84241 0.69567 0.0
C342 C 0.52884 0.85286 0.6469 0.0
N343 N 0.5395 0.84921 0.58801 0.0
O344 O 0.53579 0.82493 0.82196 0.0
H345 H 0.56146 0.83717 0.73563 0.0
H346 H 0.51569 0.85776 0.64072 0.0
O347 O 0.54875 0.85809 0.85376 0.0
C348 C 0.52385 0.81401 0.80449 0.0
O349 O 0.50823 0.82007 0.78764 0.0
N350 N 0.51655 0.87065 0.80182 0.0
C351 C 0.49451 0.89981 0.79733 0.0
C352 C 0.51052 0.90057 0.83551 0.0
C353 C 0.52114 0.88565 0.83908 0.0
C354 C 0.50086 0.86973 0.76543 0.0
C355 C 0.48969 0.88416 0.76206 0.0
H356 H 0.53236 0.88605 0.87565 0.0
H357 H 0.4966 0.85738 0.74187 0.0
H358 H 0.53921 0.84983 0.98449 0.0
H359 H 0.48562 0.84335 0.03022 0.0
H360 H 0.56536 0.83758 0.58848 0.0
H361 H 0.51428 0.91226 0.86606 0.0
H362 H 0.47718 0.88296 0.73377 0.0
C363 C 0.66408 0.50021 0.4173 0.0
C364 C 0.66559 0.49802 0.49398 0.0
N365 N 0.66329 0.51369 0.52754 0.0
N366 N 0.66066 0.51715 0.40207 0.0
C367 C 0.66059 0.52511 0.47039 0.0
H368 H 0.66449 0.48994 0.3754 0.0
Co369 Co 0.65397 0.52512 0.30604 0.0
C370 C 0.64252 0.56172 0.33811 0.0
O371 O 0.65099 0.56812 0.27994 0.0
N372 N 0.64719 0.5327 0.20843 0.0
C373 C 0.63015 0.54075 0.11269 0.0
C374 C 0.6315 0.53962 0.18977 0.0
C375 C 0.65513 0.52975 0.14117 0.0
N376 N 0.64501 0.5345 0.08199 0.0
O377 O 0.6758 0.53734 0.29703 0.0
H378 H 0.62126 0.54279 0.22958 0.0
H379 H 0.66759 0.52319 0.13517 0.0
O380 O 0.64296 0.54535 0.35186 0.0
C381 C 0.68792 0.52791 0.26908 0.0
O382 O 0.68431 0.51165 0.25052 0.0
N383 N 0.63313 0.51223 0.31414 0.0
C384 C 0.60382 0.49051 0.32163 0.0
C385 C 0.60653 0.50356 0.37595 0.0
C386 C 0.62128 0.51437 0.37107 0.0
C387 C 0.63089 0.49934 0.26194 0.0
C388 C 0.61619 0.48851 0.26394 0.0
H389 H 0.62334 0.52419 0.41398 0.0
H390 H 0.64066 0.49741 0.21863 0.0
H391 H 0.65765 0.53881 0.47865 0.0
H392 H 0.66765 0.48573 0.52296 0.0
H393 H 0.61886 0.54532 0.08153 0.0
H394 H 0.59732 0.50542 0.42162 0.0
H395 H 0.61473 0.47836 0.2218 0.0
C396 C 0.00045 0.84896 0.58416 0.0
C397 C 0.0027 0.849 0.50734 0.0
N398 N 0.98681 0.84998 0.47446 0.0
N399 N 0.98324 0.84994 0.60004 0.0
C400 C 0.97526 0.85045 0.53222 0.0
H401 H 0.01072 0.84819 0.6259 0.0
Co402 Co 0.97363 0.85029 0.69652 0.0
C403 C 0.94066 0.87101 0.68116 0.0
O404 O 0.94322 0.87807 0.74773 0.0
N405 N 0.96408 0.85 0.79435 0.0
C406 C 0.94607 0.84255 0.88763 0.0
C407 C 0.94823 0.84314 0.811 0.0
C408 C 0.97142 0.85321 0.8624 0.0
N409 N 0.9607 0.84884 0.92 0.0
O410 O 0.96524 0.8268 0.68304 0.0
H411 H 0.93897 0.83836 0.7698 0.0
H412 H 0.98468 0.85769 0.87033 0.0
O413 O 0.95171 0.85989 0.65558 0.0
C414 C 0.97742 0.81586 0.69657 0.0
O415 O 0.99308 0.82189 0.71278 0.0
N416 N 0.98354 0.87267 0.71055 0.0
C417 C 0.00516 0.90207 0.7193 0.0
C418 C 0.98922 0.90287 0.68062 0.0
C419 C 0.9788 0.88785 0.67496 0.0
C420 C 0.99912 0.87176 0.74773 0.0
C421 C 0.01009 0.8863 0.7532 0.0
H422 H 0.96765 0.88831 0.63798 0.0
H423 H 0.00353 0.85932 0.76979 0.0
H424 H 0.96126 0.85124 0.52543 0.0
H425 H 0.01512 0.84809 0.47832 0.0
H426 H 0.93473 0.83756 0.91719 0.0
H427 H 0.98539 0.91469 0.65115 0.0
H428 H 0.02256 0.88508 0.78173 0.0
C429 C 0.65078 0.00205 0.09476 0.0
C430 C 0.65066 0.00424 0.01793 0.0
N431 N 0.6503 0.9883 0.98547 0.0
N432 N 0.65035 0.98481 0.1109 0.0
C433 C 0.65025 0.97676 0.04315 0.0
H434 H 0.6511 0.01239 0.13631 0.0
Co435 Co 0.64964 0.97529 0.20753 0.0
C436 C 0.62802 0.94293 0.1913 0.0
O437 O 0.6206 0.94583 0.25691 0.0
N438 N 0.64951 0.9658 0.30553 0.0
C439 C 0.65531 0.94743 0.39974 0.0
C440 C 0.65538 0.9496 0.32299 0.0
C441 C 0.64644 0.97337 0.3732 0.0
N442 N 0.64974 0.96244 0.43134 0.0
O443 O 0.67288 0.96622 0.19465 0.0
H444 H 0.65991 0.94007 0.28235 0.0
H445 H 0.6423 0.98676 0.38051 0.0
O446 O 0.63954 0.95364 0.16648 0.0
C447 C 0.68411 0.9782 0.2071 0.0
O448 O 0.67843 0.99406 0.2224 0.0
N449 N 0.62752 0.98587 0.22107 0.0
C450 C 0.59889 0.00857 0.22961 0.0
C451 C 0.59754 0.99264 0.19094 0.0
C452 C 0.6122 0.98166 0.18544 0.0
C453 C 0.62896 0.00142 0.25822 0.0
C454 C 0.61483 0.01289 0.26371 0.0
H455 H 0.61135 0.97049 0.14865 0.0
H456 H 0.64155 0.00542 0.28021 0.0
H457 H 0.64988 0.96272 0.03611 0.0
H458 H 0.65099 0.01663 0.98834 0.0
H459 H 0.65976 0.93596 0.42998 0.0
H460 H 0.58561 0.98922 0.16142 0.0
H461 H 0.61649 0.02529 0.29247 0.0
C462 C 0.49835 0.65685 0.55498 0.0
C463 C 0.49616 0.6571 0.47818 0.0
N464 N 0.51199 0.65523 0.44564 0.0
N465 N 0.51547 0.65476 0.57092 0.0
C466 C 0.52349 0.65396 0.50321 0.0
H467 H 0.48809 0.65789 0.59671 0.0
Co468 Co 0.52458 0.65264 0.66755 0.0
C469 C 0.55406 0.62796 0.65148 0.0
O470 O 0.54867 0.62018 0.7133 0.0
N471 N 0.53382 0.65117 0.76603 0.0
C472 C 0.55284 0.65484 0.85991 0.0
C473 C 0.55062 0.6551 0.78326 0.0
C474 C 0.526 0.64913 0.83391 0.0
N475 N 0.53731 0.65114 0.89178 0.0
O476 O 0.53504 0.67542 0.65926 0.0
H477 H 0.56056 0.65857 0.74255 0.0
H478 H 0.51223 0.64678 0.84174 0.0
O479 O 0.54579 0.64135 0.62667 0.0
C480 C 0.52347 0.68688 0.67503 0.0
O481 O 0.50748 0.68155 0.68989 0.0
N482 N 0.51256 0.63106 0.67639 0.0
C483 C 0.48888 0.60307 0.68051 0.0
C484 C 0.50378 0.60239 0.63442 0.0
C485 C 0.51519 0.61671 0.63158 0.0
C486 C 0.49773 0.63218 0.71874 0.0
C487 C 0.48596 0.61825 0.7231 0.0
H488 H 0.52549 0.61654 0.59006 0.0
H489 H 0.49441 0.64439 0.74586 0.0
H490 H 0.53742 0.65202 0.49615 0.0
H491 H 0.48385 0.65859 0.44869 0.0
H492 H 0.56477 0.65799 0.88989 0.0
H493 H 0.50609 0.5913 0.5977 0.0
H494 H 0.47441 0.61959 0.75798 0.0
C495 C 0.83839 0.50652 0.11068 0.0
C496 C 0.8383 0.50394 0.03385 0.0
N497 N 0.8477 0.51685 1.0014 0.0
N498 N 0.84779 0.52096 0.1267 0.0
C499 C 0.85339 0.52688 0.05911 0.0
H500 H 0.83173 0.4986 0.15224 0.0
Co501 Co 0.8508 0.53026 0.22274 0.0
C502 C 0.87464 0.56094 0.20021 0.0
O503 O 0.8828 0.55748 0.26364 0.0
N504 N 0.85324 0.53964 0.32096 0.0
C505 C 0.84973 0.55832 0.41598 0.0
C506 C 0.8494 0.55637 0.33926 0.0
C507 C 0.85542 0.53158 0.38833 0.0
N508 N 0.85336 0.54267 0.44721 0.0
O509 O 0.82816 0.54118 0.21527 0.0
H510 H 0.84584 0.56644 0.29929 0.0
H511 H 0.85726 0.51765 0.39468 0.0
O512 O 0.86196 0.55116 0.17901 0.0
C513 C 0.81661 0.53391 0.25663 0.0
O514 O 0.82123 0.52055 0.29882 0.0
N515 N 0.87208 0.51794 0.23028 0.0
C516 C 0.89938 0.49364 0.23607 0.0
C517 C 0.90139 0.50941 0.19672 0.0
C518 C 0.88737 0.52119 0.19259 0.0
C519 C 0.86988 0.50247 0.26731 0.0
C520 C 0.88337 0.4902 0.27146 0.0
H521 H 0.88868 0.5323 0.15578 0.0
H522 H 0.85726 0.49933 0.2913 0.0
H523 H 0.86153 0.53831 0.05206 0.0
H524 H 0.83134 0.49371 1.00421 0.0
H525 H 0.847 0.57031 0.44621 0.0
H526 H 0.91335 0.51216 0.16615 0.0
H527 H 0.88119 0.47798 0.30092 0.0
H528 H 0.99701 0.43317 0.2276 0.0
H529 H 0.95583 0.39593 0.27532 0.0
H530 H 0.97528 0.45638 0.21812 0.0
H531 H 0.93451 0.41923 0.2729 0.0
H532 H 0.89667 0.45976 0.19175 0.0
H533 H 0.91923 0.43728 0.19265 0.0
H534 H 0.9561 0.47464 0.28439 0.0
H535 H 0.93356 0.49736 0.27899 0.0
C536 C 0.98337 0.42989 0.23649 0.0
C537 C 0.97832 0.41255 0.25245 0.0
C538 C 0.97089 0.44331 0.23216 0.0
C539 C 0.95302 0.4398 0.24453 0.0
C540 C 0.94804 0.42251 0.26148 0.0
C541 C 0.96043 0.40909 0.26451 0.0
C542 C 0.90963 0.46311 0.21193 0.0
C543 C 0.91338 0.48021 0.23581 0.0
C544 C 0.92258 0.45021 0.21305 0.0
C545 C 0.93954 0.45396 0.23967 0.0
C546 C 0.9433 0.47122 0.26269 0.0
C547 C 0.93039 0.48425 0.26011 0.0
H548 H 0.08218 0.98109 0.60018 0.0
H549 H 0.07805 0.98392 0.84217 0.0
H550 H 0.05851 0.95944 0.59737 0.0
H551 H 0.05406 0.96252 0.83913 0.0
H552 H 0.00017 0.93502 0.77559 0.0
H553 H 0.0213 0.95939 0.77596 0.0
H554 H 0.05863 0.92696 0.65827 0.0
H555 H 0.03779 0.90259 0.65985 0.0
C556 C 0.07593 0.97735 0.65252 0.0
C557 C 0.08188 0.98416 0.7214 0.0
C558 C 0.06249 0.96494 0.65093 0.0
C559 C 0.05452 0.95937 0.71804 0.0
C560 C 0.05994 0.96671 0.78666 0.0
C561 C 0.07366 0.97887 0.7884 0.0
C562 C 0.0129 0.93321 0.74984 0.0
C563 C 0.01747 0.91701 0.71801 0.0
C564 C 0.02494 0.94706 0.75017 0.0
C565 C 0.04151 0.94501 0.71686 0.0
C566 C 0.04589 0.92889 0.68378 0.0
C567 C 0.03404 0.91497 0.68502 0.0
H568 H 0.56516 0.00419 0.27824 0.0
H569 H 0.60011 0.04193 0.17839 0.0
H570 H 0.54204 0.02637 0.284 0.0
H571 H 0.57699 0.0638 0.17972 0.0
H572 H 0.54059 0.10501 0.26409 0.0
H573 H 0.56227 0.08206 0.26129 0.0
H574 H 0.52173 0.04381 0.21882 0.0
H575 H 0.49968 0.06674 0.22861 0.0
C576 C 0.56776 0.01719 0.25664 0.0
C577 C 0.58442 0.02147 0.22879 0.0
C578 C 0.55452 0.0299 0.25946 0.0
C579 C 0.55761 0.04706 0.23322 0.0
C580 C 0.57418 0.05098 0.20272 0.0
C581 C 0.58744 0.03841 0.20131 0.0
C582 C 0.53612 0.09169 0.25596 0.0
C583 C 0.51821 0.08785 0.24733 0.0
C584 C 0.54871 0.07847 0.25269 0.0
C585 C 0.5439 0.06098 0.23889 0.0
C586 C 0.526 0.05707 0.23023 0.0
C587 C 0.51332 0.07031 0.23478 0.0
H588 H 0.39747 0.5383 0.59599 0.0
H589 H 0.42656 0.50905 0.76226 0.0
H590 H 0.42065 0.56016 0.59181 0.0
H591 H 0.44984 0.531 0.75804 0.0
H592 H 0.4947 0.56757 0.68125 0.0
H593 H 0.47286 0.54411 0.67808 0.0
H594 H 0.43156 0.58275 0.67596 0.0
H595 H 0.45324 0.60604 0.6767 0.0
C596 C 0.40881 0.53655 0.63179 0.0
C597 C 0.41006 0.52201 0.68007 0.0
C598 C 0.4221 0.54909 0.62941 0.0
C599 C 0.43701 0.54744 0.67524 0.0
C600 C 0.43859 0.5326 0.72162 0.0
C601 C 0.42525 0.52001 0.72402 0.0
C602 C 0.48095 0.57102 0.67963 0.0
C603 C 0.47573 0.58868 0.67965 0.0
C604 C 0.46844 0.55759 0.67844 0.0
C605 C 0.45046 0.56155 0.67657 0.0
C606 C 0.44529 0.57922 0.67644 0.0
C607 C 0.45774 0.5926 0.67791 0.0
H608 H 0.89624 0.04355 0.26762 0.0
H609 H 0.93396 0.00191 0.29785 0.0
H610 H 0.91959 0.06476 0.26558 0.0
H611 H 0.95741 0.02353 0.30288 0.0
H612 H 0.9972 0.06608 0.23365 0.0
H613 H 0.97457 0.04335 0.23345 0.0
H614 H 0.93889 0.07932 0.34271 0.0
H615 H 0.96115 0.10204 0.3384 0.0
C616 C 0.90953 0.03882 0.27358 0.0
C617 C 0.9131 0.02084 0.28193 0.0
C618 C 0.923 0.05114 0.2741 0.0
C619 C 0.94051 0.04601 0.28491 0.0
C620 C 0.94414 0.02804 0.29365 0.0
C621 C 0.93063 0.01561 0.29183 0.0
C622 C 0.98447 0.06899 0.25744 0.0
C623 C 0.98078 0.08581 0.28506 0.0
C624 C 0.97152 0.05597 0.25787 0.0
C625 C 0.95472 0.05946 0.28722 0.0
C626 C 0.9514 0.0762 0.3174 0.0
C627 C 0.96419 0.08924 0.31553 0.0
H628 H 0.46158 0.89979 0.85427 0.0
H629 H 0.49964 0.9332 0.74669 0.0
H630 H 0.44076 0.92417 0.85868 0.0
H631 H 0.47853 0.95758 0.74912 0.0
H632 H 0.42194 0.98288 0.68456 0.0
H633 H 0.44568 0.96118 0.68457 0.0
H634 H 0.44118 0.95634 0.92576 0.0
H635 H 0.41778 0.97832 0.92602 0.0
C636 C 0.46542 0.91237 0.83141 0.0
C637 C 0.48213 0.91469 0.79997 0.0
C638 C 0.45359 0.9263 0.83428 0.0
C639 C 0.45811 0.9427 0.80435 0.0
C640 C 0.47479 0.94502 0.77246 0.0
C641 C 0.48681 0.93117 0.77122 0.0
C642 C 0.42627 0.97737 0.73757 0.0
C643 C 0.41813 0.98228 0.80531 0.0
C644 C 0.43983 0.96504 0.7376 0.0
C645 C 0.44517 0.95713 0.80515 0.0
C646 C 0.43725 0.96228 0.87301 0.0
C647 C 0.42398 0.97488 0.87318 0.0
H648 H 0.59219 0.47197 0.4432 0.0
H649 H 0.58096 0.48223 0.20941 0.0
H650 H 0.56847 0.4506 0.44728 0.0
H651 H 0.55671 0.46153 0.21376 0.0
H652 H 0.5298 0.40864 0.21808 0.0
H653 H 0.55171 0.43153 0.21703 0.0
H654 H 0.53822 0.4451 0.44609 0.0
H655 H 0.51716 0.42117 0.44906 0.0
C656 C 0.5844 0.46986 0.39307 0.0
C657 C 0.58847 0.47864 0.32586 0.0
C658 C 0.57073 0.45767 0.39536 0.0
C659 C 0.56065 0.45415 0.33068 0.0
C660 C 0.5644 0.46349 0.26423 0.0
C661 C 0.57824 0.47546 0.2617 0.0
C662 C 0.53161 0.41632 0.26871 0.0
C663 C 0.52178 0.41282 0.33396 0.0
C664 C 0.54403 0.42974 0.26767 0.0
C665 C 0.54683 0.4403 0.33145 0.0
C666 C 0.53666 0.43712 0.39618 0.0
C667 C 0.52436 0.42352 0.39753 0.0
H668 H 0.04583 0.60383 0.77836 0.0
H669 H 0.00415 0.56654 0.8164 0.0
H670 H 0.06696 0.58039 0.77919 0.0
H671 H 0.0257 0.54309 0.82447 0.0
H672 H 0.06768 0.50244 0.76065 0.0
H673 H 0.04517 0.52524 0.75747 0.0
H674 H 0.08174 0.56168 0.85793 0.0
H675 H 0.10427 0.53918 0.85644 0.0
C676 C 0.04108 0.59062 0.78666 0.0
C677 C 0.02311 0.5872 0.79635 0.0
C678 C 0.05336 0.57711 0.78885 0.0
C679 C 0.04819 0.55973 0.80273 0.0
C680 C 0.03023 0.55625 0.81284 0.0
C681 C 0.01785 0.56978 0.80929 0.0
C682 C 0.07078 0.51537 0.78189 0.0
C683 C 0.0877 0.51918 0.80789 0.0
C684 C 0.05788 0.52843 0.78061 0.0
C685 C 0.06158 0.54547 0.80667 0.0
C686 C 0.07844 0.54895 0.83516 0.0
C687 C 0.09137 0.53603 0.83493 0.0
H688 H 0.07671 0.40227 0.24009 0.0
H689 H 0.06808 0.35869 0.0894 0.0
H690 H 0.09601 0.41572 0.14763 0.0
H691 H 0.08733 0.37227 0.99662 0.0
H692 H 0.13872 0.43094 0.9839 0.0
H693 H 0.12416 0.41291 0.07857 0.0
H694 H 0.08463 0.39865 0.91599 0.0
H695 H 0.09902 0.41673 0.82166 0.0
C696 C 0.07907 0.39543 0.18766 0.0
C697 C 0.07054 0.37953 0.17174 0.0
C698 C 0.09024 0.40312 0.13475 0.0
C699 C 0.09309 0.39515 0.06448 0.0
C700 C 0.08518 0.37887 0.04981 0.0
C701 C 0.07413 0.3711 0.10304 0.0
C702 C 0.12699 0.42389 0.96814 0.0
C703 C 0.11987 0.42558 0.89546 0.0
C704 C 0.11865 0.41355 0.02247 0.0
C705 C 0.10316 0.40447 1.00501 0.0
C706 C 0.09661 0.40538 0.93118 0.0
C707 C 0.10483 0.41584 0.87713 0.0
H708 H 0.11664 0.08892 0.71723 0.0
H709 H 0.13084 0.05503 0.53269 0.0
H710 H 0.10196 0.10862 0.62956 0.0
H711 H 0.11553 0.07406 0.44557 0.0
H712 H 0.09328 0.11455 0.29169 0.0
H713 H 0.11309 0.10014 0.37984 0.0
H714 H 0.07626 0.10979 0.56027 0.0
H715 H 0.05707 0.12481 0.47276 0.0
C716 C 0.11673 0.08576 0.65777 0.0
C717 C 0.12496 0.07046 0.63188 0.0
C718 C 0.10817 0.09697 0.60743 0.0
C719 C 0.10731 0.09294 0.5301 0.0
C720 C 0.1161 0.07788 0.50419 0.0
C721 C 0.12491 0.06687 0.55436 0.0
C722 C 0.08962 0.1138 0.35052 0.0
C723 C 0.0737 0.12093 0.37541 0.0
C724 C 0.1009 0.10542 0.40111 0.0
C725 C 0.09633 0.10361 0.47759 0.0
C726 C 0.08052 0.11116 0.50246 0.0
C727 C 0.06942 0.11981 0.45212 0.0
H728 H 0.40744 0.11237 0.24532 0.0
H729 H 0.44148 0.12659 0.06154 0.0
H730 H 0.38795 0.09745 0.15755 0.0
H731 H 0.42278 0.11091 0.97421 0.0
H732 H 0.38312 0.08821 0.81863 0.0
H733 H 0.39728 0.10813 0.90694 0.0
H734 H 0.38599 0.07211 0.08869 0.0
H735 H 0.371 0.05295 1.00095 0.0
C736 C 0.41069 0.11235 0.18595 0.0
C737 C 0.42589 0.12075 0.1602 0.0
C738 C 0.39961 0.10365 0.13551 0.0
C739 C 0.40373 0.10273 0.05824 0.0
C740 C 0.41882 0.11154 0.03265 0.0
C741 C 0.42966 0.12056 0.08288 0.0
C742 C 0.38343 0.08478 0.87778 0.0
C743 C 0.3759 0.06908 0.90291 0.0
C744 C 0.39171 0.0961 0.92852 0.0
C745 C 0.39307 0.09176 1.00544 0.0
C746 C 0.38503 0.07621 0.03053 0.0
C747 C 0.37642 0.06511 0.98004 0.0
H748 H 0.38711 0.44351 0.60671 0.0
H749 H 0.34452 0.40732 0.56989 0.0
H750 H 0.40709 0.42357 0.54357 0.0
H751 H 0.36465 0.38702 0.50863 0.0
H752 H 0.40156 0.36386 0.33054 0.0
H753 H 0.3812 0.38305 0.39666 0.0
H754 H 0.4219 0.39656 0.55539 0.0
H755 H 0.44235 0.37791 0.4877 0.0
C756 C 0.38205 0.43117 0.58615 0.0
C757 C 0.36421 0.42701 0.59368 0.0
C758 C 0.39355 0.41966 0.55003 0.0
C759 C 0.38756 0.40359 0.52096 0.0
C760 C 0.36972 0.39936 0.52921 0.0
C761 C 0.35818 0.41096 0.56483 0.0
C762 C 0.40614 0.37089 0.37969 0.0
C763 C 0.42362 0.36941 0.4035 0.0
C764 C 0.39442 0.38184 0.41797 0.0
C765 C 0.39986 0.39147 0.48143 0.0
C766 C 0.41729 0.38967 0.50596 0.0
C767 C 0.42902 0.37886 0.46732 0.0
H768 H 0.86309 0.57 0.05892 0.0
H769 H 0.90321 0.5818 0.22275 0.0
H770 H 0.87773 0.58894 0.96783 0.0
H771 H 0.91779 0.60062 0.13189 0.0
H772 H 0.92428 0.6014 0.80558 0.0
H773 H 0.90501 0.58712 0.8957 0.0
H774 H 0.91607 0.62764 0.05854 0.0
H775 H 0.93546 0.64192 0.9684 0.0
C776 C 0.87495 0.5767 0.07577 0.0
C777 C 0.88211 0.57413 0.14787 0.0
C778 C 0.88335 0.58754 0.02346 0.0
C779 C 0.89901 0.5962 0.04231 0.0
C780 C 0.90567 0.59429 0.11562 0.0
C781 C 0.89734 0.58339 0.16769 0.0
C782 C 0.92245 0.60743 0.86019 0.0
C783 C 0.93168 0.62269 0.88003 0.0
C784 C 0.91129 0.59927 0.91182 0.0
C785 C 0.9091 0.60614 0.98465 0.0
C786 C 0.91769 0.62184 1.00332 0.0
C787 C 0.9288 0.63006 0.95152 0.0
H788 H 0.91901 0.89877 0.70873 0.0
H789 H 0.93162 0.86033 0.53866 0.0
H790 H 0.89989 0.91372 0.62027 0.0
H791 H 0.91229 0.87523 0.45014 0.0
H792 H 0.89898 0.92214 0.29337 0.0
H793 H 0.91348 0.90258 0.38141 0.0
H794 H 0.87325 0.91286 0.54657 0.0
H795 H 0.85882 0.93268 0.4586 0.0
C796 C 0.9175 0.89331 0.65283 0.0
C797 C 0.92712 0.87849 0.63052 0.0
C798 C 0.90643 0.90186 0.60209 0.0
C799 C 0.90466 0.89579 0.52773 0.0
C800 C 0.9136 0.88045 0.50655 0.0
C801 C 0.92467 0.87188 0.5574 0.0
C802 C 0.89307 0.92009 0.34807 0.0
C803 C 0.87784 0.92922 0.36917 0.0
C804 C 0.90135 0.90875 0.39853 0.0
C805 C 0.89462 0.90621 0.47141 0.0
C806 C 0.87895 0.91473 0.49134 0.0
C807 C 0.87064 0.92607 0.44076 0.0
H808 H 0.6398 0.93302 0.05163 0.0
H809 H 0.59997 0.92154 0.21717 0.0
H810 H 0.62586 0.91281 0.96385 0.0
H811 H 0.58593 0.90158 0.12927 0.0
H812 H 0.56868 0.85901 0.97132 0.0
H813 H 0.58761 0.87431 0.06019 0.0
H814 H 0.5993 0.91307 0.89032 0.0
H815 H 0.58059 0.89773 0.80161 0.0
C816 C 0.62814 0.92613 0.06952 0.0
C817 C 0.62088 0.92912 0.14113 0.0
C818 C 0.62011 0.91456 0.01908 0.0
C819 C 0.60466 0.90567 0.03913 0.0
C820 C 0.5979 0.90805 0.11206 0.0
C821 C 0.60592 0.91961 0.16244 0.0
C822 C 0.57539 0.8707 0.95273 0.0
C823 C 0.57285 0.87727 0.8796 0.0
C824 C 0.58624 0.87951 1.00378 0.0
C825 C 0.59486 0.89504 0.98276 0.0
C826 C 0.59302 0.90107 0.9084 0.0
C827 C 0.58218 0.89229 0.85749 0.0
H828 H 0.63308 0.55657 0.48395 0.0
H829 H 0.62625 0.59242 0.29857 0.0
H830 H 0.6135 0.57392 0.56039 0.0
H831 H 0.60529 0.60925 0.37325 0.0
H832 H 0.56282 0.59364 0.65144 0.0
H833 H 0.58438 0.57883 0.57506 0.0
H834 H 0.59866 0.62819 0.47231 0.0
H835 H 0.57591 0.64286 0.54631 0.0
C836 C 0.62734 0.56818 0.45937 0.0
C837 C 0.63125 0.5731 0.38518 0.0
C838 C 0.61583 0.57808 0.50302 0.0
C839 C 0.60735 0.59289 0.47297 0.0
C840 C 0.6116 0.59806 0.39898 0.0
C841 C 0.62357 0.58836 0.35584 0.0
C842 C 0.57061 0.60138 0.61286 0.0
C843 C 0.5678 0.61945 0.6055 0.0
C844 C 0.58316 0.59289 0.56915 0.0
C845 C 0.59367 0.60226 0.51799 0.0
C846 C 0.5908 0.62043 0.51046 0.0
C847 C 0.57786 0.6289 0.55324 0.0
H848 H 0.02513 0.29056 0.39869 0.0
H849 H 0.0478 0.29584 0.17721 0.0
H850 H 0.02995 0.25905 0.39446 0.0
H851 H 0.05254 0.26406 0.17268 0.0
H852 H 0.02502 0.20834 0.15983 0.0
H853 H 0.02984 0.23983 0.16489 0.0
H854 H 0.05241 0.23452 0.38651 0.0
H855 H 0.0477 0.20271 0.38111 0.0
C856 C 0.03143 0.28499 0.34954 0.0
C857 C 0.03593 0.29562 0.28793 0.0
C858 C 0.03432 0.26694 0.34743 0.0
C859 C 0.04157 0.25906 0.28317 0.0
C860 C 0.04686 0.26979 0.22284 0.0
C861 C 0.04421 0.28796 0.22549 0.0
C862 C 0.03129 0.21383 0.2092 0.0
C863 C 0.03583 0.20311 0.27044 0.0
C864 C 0.03419 0.23187 0.21176 0.0
C865 C 0.04148 0.23966 0.27611 0.0
C866 C 0.04672 0.22885 0.33626 0.0
C867 C 0.04408 0.21068 0.33313 0.0
H868 H 0.28889 0.99511 0.85813 0.0
H869 H 0.29716 0.04774 0.77711 0.0
H870 H 0.25794 0.9974 0.82912 0.0
H871 H 0.2659 0.0499 0.7452 0.0
H872 H 0.20372 0.04851 0.75707 0.0
H873 H 0.23498 0.05035 0.78951 0.0
H874 H 0.24208 0.99707 0.71333 0.0
H875 H 0.21114 0.99514 0.68378 0.0
C876 C 0.28402 0.00725 0.83452 0.0
C877 C 0.29545 0.02118 0.81929 0.0
C878 C 0.26628 0.00852 0.81715 0.0
C879 C 0.25948 0.02365 0.78271 0.0
C880 C 0.27072 0.03804 0.7714 0.0
C881 C 0.28858 0.03683 0.7898 0.0
C882 C 0.21211 0.03735 0.74624 0.0
C883 C 0.20501 0.02161 0.71873 0.0
C884 C 0.22998 0.03838 0.76494 0.0
C885 C 0.24096 0.0237 0.75594 0.0
C886 C 0.23393 0.00844 0.72355 0.0
C887 C 0.2162 0.00737 0.70587 0.0
H888 H 0.47986 0.29237 0.18376 0.0
H889 H 0.44677 0.2966 0.37985 0.0
H890 H 0.4733 0.26119 0.17494 0.0
H891 H 0.44041 0.26509 0.37189 0.0
H892 H 0.4666 0.20804 0.39311 0.0
H893 H 0.46234 0.23968 0.39311 0.0
H894 H 0.44899 0.23789 0.15713 0.0
H895 H 0.45296 0.20594 0.15758 0.0
C896 C 0.47091 0.28665 0.22422 0.0
C897 C 0.46393 0.29683 0.28286 0.0
C898 C 0.46704 0.26883 0.21878 0.0
C899 C 0.45636 0.2607 0.27276 0.0
C900 C 0.44869 0.27104 0.32953 0.0
C901 C 0.45228 0.28904 0.334 0.0
C902 C 0.46234 0.21435 0.34164 0.0
C903 C 0.46023 0.2046 0.27519 0.0
C904 C 0.45978 0.23245 0.3418 0.0
C905 C 0.45537 0.24127 0.27512 0.0
C906 C 0.4524 0.23141 0.20932 0.0
C907 C 0.4546 0.21316 0.20959 0.0
H908 H 0.29139 0.47502 0.87816 0.0
H909 H 0.29458 0.44796 0.66526 0.0
H910 H 0.26012 0.4689 0.88457 0.0
H911 H 0.26303 0.44193 0.67129 0.0
H912 H 0.20677 0.46887 0.66193 0.0
H913 H 0.23827 0.46403 0.66075 0.0
H914 H 0.23599 0.4459 0.89074 0.0
H915 H 0.20415 0.4506 0.89153 0.0
C916 C 0.28544 0.46742 0.83346 0.0
C917 C 0.29536 0.4621 0.77088 0.0
C918 C 0.26754 0.4638 0.83744 0.0
C919 C 0.25909 0.455 0.7783 0.0
C920 C 0.2692 0.4488 0.71757 0.0
C921 C 0.28724 0.45217 0.71423 0.0
C922 C 0.21293 0.4635 0.71179 0.0
C923 C 0.20306 0.46026 0.77707 0.0
C924 C 0.23096 0.46059 0.71087 0.0
C925 C 0.23963 0.45462 0.77567 0.0
C926 C 0.22964 0.45055 0.84001 0.0
C927 C 0.21145 0.45317 0.84044 0.0
H928 H 0.00039 0.79057 0.6596 0.0
H929 H 0.94793 0.79815 0.74366 0.0
H930 H 0.99835 0.75945 0.68573 0.0
H931 H 0.946 0.76667 0.77258 0.0
H932 H 0.94881 0.70411 0.75471 0.0
H933 H 0.94611 0.73548 0.72442 0.0
H934 H 0.99895 0.74382 0.80346 0.0
H935 H 0.00172 0.71285 0.83104 0.0
C936 C 0.98832 0.78549 0.68306 0.0
C937 C 0.97439 0.79677 0.70019 0.0
C938 C 0.98718 0.76767 0.69873 0.0
C939 C 0.9722 0.76063 0.7334 0.0
C940 C 0.95775 0.7717 0.74622 0.0
C941 C 0.95882 0.78968 0.72951 0.0
C942 C 0.95966 0.7128 0.7667 0.0
C943 C 0.97555 0.70607 0.79432 0.0
C944 C 0.95815 0.73071 0.74922 0.0
C945 C 0.97249 0.74207 0.75953 0.0
C946 C 0.98785 0.73538 0.7923 0.0
C947 C 0.9894 0.71763 0.80879 0.0
H948 H 0.79559 0.94728 0.25072 0.0
H949 H 0.78823 0.9998 0.3346 0.0
H950 H 0.76397 0.94523 0.22456 0.0
H951 H 0.75703 0.99765 0.31106 0.0
H952 H 0.70973 0.00083 0.17059 0.0
H953 H 0.74089 0.99802 0.19404 0.0
H954 H 0.73297 0.94544 0.277 0.0
H955 H 0.7014 0.94817 0.25097 0.0
C956 C 0.78716 0.95816 0.26532 0.0
C957 C 0.79433 0.97378 0.29378 0.0
C958 C 0.7691 0.95703 0.2502 0.0
C959 C 0.75806 0.97147 0.26376 0.0
C960 C 0.76521 0.9865 0.29751 0.0
C961 C 0.78309 0.98769 0.31165 0.0
C962 C 0.71464 0.98856 0.19276 0.0
C963 C 0.70315 0.97479 0.20968 0.0
C964 C 0.7325 0.98698 0.20683 0.0
C965 C 0.73937 0.97169 0.23955 0.0
C966 C 0.72806 0.95742 0.25217 0.0
C967 C 0.71003 0.95895 0.23712 0.0
H968 H 0.50067 0.78808 0.82819 0.0
H969 H 0.5542 0.79717 0.76093 0.0
H970 H 0.50338 0.75745 0.79388 0.0
H971 H 0.55687 0.76614 0.72436 0.0
H972 H 0.50237 0.71342 0.6352 0.0
H973 H 0.50513 0.74411 0.66872 0.0
H974 H 0.55568 0.73387 0.76837 0.0
H975 H 0.55302 0.70279 0.7324 0.0
C976 C 0.51312 0.78344 0.80675 0.0
C977 C 0.52716 0.79503 0.79653 0.0
C978 C 0.51464 0.7659 0.78648 0.0
C979 C 0.53018 0.75946 0.75428 0.0
C980 C 0.5447 0.77075 0.74859 0.0
C981 C 0.5432 0.78846 0.76972 0.0
C982 C 0.51425 0.71776 0.66287 0.0
C983 C 0.52741 0.70574 0.68174 0.0
C984 C 0.51578 0.73532 0.68271 0.0
C985 C 0.53039 0.74134 0.72324 0.0
C986 C 0.54422 0.72959 0.73755 0.0
C987 C 0.54274 0.71186 0.71675 0.0
H988 H 0.79707 0.5462 0.1384 0.0
H989 H 0.79437 0.53364 0.37492 0.0
H990 H 0.76508 0.54975 0.13567 0.0
H991 H 0.76268 0.53749 0.37265 0.0
H992 H 0.70559 0.55213 0.35423 0.0
H993 H 0.73702 0.55892 0.34782 0.0
H994 H 0.74212 0.52514 0.15417 0.0
H995 H 0.71102 0.51817 0.16142 0.0
C996 C 0.7897 0.54474 0.19013 0.0
C997 C 0.79811 0.53953 0.25672 0.0
C998 C 0.77143 0.54669 0.18856 0.0
C999 C 0.7614 0.54387 0.25398 0.0
C1000 C 0.77004 0.53992 0.32159 0.0
C1001 C 0.78817 0.5376 0.32275 0.0
C1002 C 0.7134 0.54651 0.30941 0.0
C1003 C 0.70596 0.5345 0.25879 0.0
C1004 C 0.73135 0.55034 0.30583 0.0
C1005 C 0.74201 0.54255 0.25045 0.0
C1006 C 0.73424 0.53149 0.19692 0.0
C1007 C 0.71645 0.52738 0.20149 0.0
H1008 H 0.99122 0.35254 0.9195 0.0
H1009 H 0.04474 0.33687 0.95897 0.0
H1010 H 0.99728 0.35502 0.78534 0.0
H1011 H 0.05079 0.33914 0.82476 0.0
H1012 H 0.06063 0.36165 0.59114 0.0
H1013 H 0.05423 0.35994 0.72539 0.0
H1014 H 0.00337 0.3381 0.67512 0.0
H1015 H 0.00973 0.34005 0.54103 0.0
C1016 C 0.00423 0.34942 0.89955 0.0
C1017 C 0.01748 0.34449 0.95033 0.0
C1018 C 0.00772 0.35085 0.82241 0.0
C1019 C 0.02455 0.34731 0.79383 0.0
C1020 C 0.03776 0.34229 0.84465 0.0
C1021 C 0.03429 0.34094 0.92181 0.0
C1022 C 0.0481 0.35646 0.60881 0.0
C1023 C 0.03571 0.35101 0.55516 0.0
C1024 C 0.04443 0.35542 0.68588 0.0
C1025 C 0.02829 0.34881 0.71149 0.0
C1026 C 0.01583 0.34351 0.6577 0.0
C1027 C 0.01948 0.34464 0.58058 0.0
H1028 H 0.15582 0.00541 0.99854 0.0
H1029 H 0.14812 0.0603 0.04655 0.0
H1030 H 0.15598 0.99905 0.13276 0.0
H1031 H 0.14817 0.05395 0.18108 0.0
H1032 H 0.16774 0.03845 0.41607 0.0
H1033 H 0.16741 0.04499 0.28172 0.0
H1034 H 0.13718 0.99812 0.24111 0.0
H1035 H 0.13761 0.99157 0.375 0.0
C1036 C 0.15392 0.01611 0.03761 0.0
C1037 C 0.15193 0.03338 1.01152 0.0
C1038 C 0.15404 0.01246 0.1148 0.0
C1039 C 0.1521 0.02598 0.16802 0.0
C1040 C 0.14999 0.04324 0.14188 0.0
C1041 C 0.14992 0.04689 0.06467 0.0
C1042 C 0.16094 0.02959 0.37859 0.0
C1043 C 0.15278 0.01442 0.40662 0.0
C1044 C 0.16072 0.03336 0.30143 0.0
C1045 C 0.15229 0.02207 0.25032 0.0
C1046 C 0.14408 0.00695 0.27848 0.0
C1047 C 0.14433 0.00318 0.35549 0.0
H1048 H 0.45245 0.16542 0.9476 0.0
H1049 H 0.50419 0.14461 0.90772 0.0
H1050 H 0.44614 0.16358 0.81337 0.0
H1051 H 0.49786 0.1426 0.7738 0.0
H1052 H 0.48703 0.1584 0.52956 0.0
H1053 H 0.49343 0.16002 0.66362 0.0
H1054 H 0.44074 0.14307 0.71391 0.0
H1055 H 0.43432 0.14165 0.5796 0.0
C1056 C 0.46245 0.16033 0.91039 0.0
C1057 C 0.47886 0.15523 0.9388 0.0
C1058 C 0.45881 0.15923 0.83323 0.0
C1059 C 0.47147 0.15292 0.78235 0.0
C1060 C 0.48788 0.14781 0.81087 0.0
C1061 C 0.49153 0.14897 0.88792 0.0
C1062 C 0.47687 0.1548 0.56907 0.0
C1063 C 0.46015 0.14987 0.54357 0.0
C1064 C 0.48054 0.15575 0.64621 0.0
C1065 C 0.46761 0.15171 0.7 0.0
C1066 C 0.45094 0.14659 0.67437 0.0
C1067 C 0.44726 0.14572 0.59725 0.0
H1068 H 0.37953 0.45807 0.04401 0.0
H1069 H 0.33044 0.48387 0.99865 0.0
H1070 H 0.3758 0.46351 0.17817 0.0
H1071 H 0.32632 0.48892 0.13319 0.0
H1072 H 0.32981 0.50735 0.37645 0.0
H1073 H 0.33526 0.50424 0.24182 0.0
H1074 H 0.35945 0.45393 0.28205 0.0
H1075 H 0.35439 0.45735 0.41651 0.0
C1076 C 0.36789 0.46487 0.06287 0.0
C1077 C 0.35526 0.47049 1.01062 0.0
C1078 C 0.36568 0.46792 0.13999 0.0
C1079 C 0.35065 0.47652 0.16734 0.0
C1080 C 0.33818 0.48247 0.11467 0.0
C1081 C 0.34051 0.47957 0.03732 0.0
C1082 C 0.3363 0.49563 0.35643 0.0
C1083 C 0.34168 0.48262 0.40742 0.0
C1084 C 0.33938 0.4938 0.27902 0.0
C1085 C 0.34781 0.47881 0.2503 0.0
C1086 C 0.35325 0.46583 0.30165 0.0
C1087 C 0.35032 0.46776 0.37906 0.0
H1088 H 0.04452 0.16338 0.59104 0.0
H1089 H 0.99382 0.14004 0.62929 0.0
H1090 H 0.05069 0.16187 0.72543 0.0
H1091 H 4e-05 0.13827 0.76345 0.0
H1092 H 0.00981 0.15468 1.00839 0.0
H1093 H 0.00335 0.15561 0.87409 0.0
H1094 H 0.05705 0.14192 0.82479 0.0
H1095 H 0.06349 0.14131 0.95911 0.0
C1096 C 0.03474 0.15778 0.628 0.0
C1097 C 0.01865 0.15189 0.59916 0.0
C1098 C 0.03829 0.15687 0.70523 0.0
C1099 C 0.02589 0.14992 0.75572 0.0
C1100 C 0.0098 0.14398 0.72672 0.0
C1101 C 0.00622 0.14499 0.64957 0.0
C1102 C 0.02017 0.15166 0.96893 0.0
C1103 C 0.03719 0.14795 0.9946 0.0
C1104 C 0.01648 0.1522 0.89172 0.0
C1105 C 0.02969 0.14893 0.83815 0.0
C1106 C 0.04662 0.14488 0.86408 0.0
C1107 C 0.05032 0.14446 0.9412 0.0
H1108 H 0.3436 0.9869 0.16417 0.0
H1109 H 0.35127 0.0418 0.11386 0.0
H1110 H 0.34393 0.99356 0.29793 0.0
H1111 H 0.35118 0.04837 0.24778 0.0
H1112 H 0.33016 0.05416 0.49093 0.0
H1113 H 0.3304 0.04783 0.35685 0.0
H1114 H 0.36514 0.00418 0.3955 0.0
H1115 H 0.36529 0.01068 0.52979 0.0
C1116 C 0.34544 0.00037 0.1811 0.0
C1117 C 0.34745 0.01376 0.12718 0.0
C1118 C 0.34561 0.00418 0.25813 0.0
C1119 C 0.34762 0.02148 0.28351 0.0
C1120 C 0.34942 0.03491 0.23 0.0
C1121 C 0.34942 0.0311 0.1529 0.0
C1122 C 0.33806 0.04334 0.47126 0.0
C1123 C 0.3477 0.03295 0.52202 0.0
C1124 C 0.33815 0.0397 0.39408 0.0
C1125 C 0.34776 0.02549 0.36552 0.0
C1126 C 0.35741 0.01509 0.41591 0.0
C1127 C 0.35745 0.01881 0.49308 0.0
H1128 H 0.50693 0.35215 0.65617 0.0
H1129 H 0.45438 0.33243 0.62993 0.0
H1130 H 0.50198 0.3558 0.79137 0.0
H1131 H 0.44952 0.33574 0.76623 0.0
H1132 H 0.4602 0.32705 0.03099 0.0
H1133 H 0.46451 0.32214 0.89511 0.0
H1134 H 0.47964 0.3762 0.8684 0.0
H1135 H 0.47495 0.38115 1.003 0.0
C1136 C 0.49437 0.34843 0.67951 0.0
C1137 C 0.48104 0.34197 0.63247 0.0
C1138 C 0.49152 0.35059 0.75679 0.0
C1139 C 0.4754 0.346 0.78932 0.0
C1140 C 0.46212 0.33928 0.74267 0.0
C1141 C 0.46484 0.33749 0.66481 0.0
C1142 C 0.46445 0.33782 0.99584 0.0
C1143 C 0.46718 0.35448 0.02742 0.0
C1144 C 0.46681 0.33506 0.91826 0.0
C1145 C 0.47239 0.34881 0.87128 0.0
C1146 C 0.47536 0.36537 0.90323 0.0
C1147 C 0.47261 0.36822 0.98014 0.0
H1148 H 0.15625 0.50665 0.15113 0.0
H1149 H 0.14564 0.45213 0.105 0.0
H1150 H 0.15384 0.50088 0.28611 0.0
H1151 H 0.14276 0.44652 0.23913 0.0
H1152 H 0.16304 0.43879 0.47865 0.0
H1153 H 0.16316 0.4455 0.34553 0.0
H1154 H 0.1329 0.49222 0.38775 0.0
H1155 H 0.1325 0.48536 0.52231 0.0
C1156 C 0.15333 0.49347 0.1696 0.0
C1157 C 0.15125 0.47985 0.11688 0.0
C1158 C 0.15177 0.4902 0.24698 0.0
C1159 C 0.14823 0.47322 0.2735 0.0
C1160 C 0.14573 0.45972 0.22071 0.0
C1161 C 0.14719 0.46299 0.14353 0.0
C1162 C 0.15614 0.45037 0.46013 0.0
C1163 C 0.1476 0.46141 0.51196 0.0
C1164 C 0.15625 0.45423 0.38333 0.0
C1165 C 0.14791 0.46932 0.35574 0.0
C1166 C 0.13954 0.48054 0.40726 0.0
C1167 C 0.13933 0.47661 0.48445 0.0
H1168 H 0.94088 0.6447 0.46843 0.0
H1169 H 0.99428 0.65957 0.516 0.0
H1170 H 0.94719 0.64531 0.33389 0.0
H1171 H 0.00058 0.66031 0.38174 0.0
H1172 H 0.01039 0.64279 0.13976 0.0
H1173 H 0.00397 0.64164 0.2738 0.0
H1174 H 0.95355 0.66546 0.23301 0.0
H1175 H 0.95995 0.66649 0.09867 0.0
C1176 C 0.95394 0.6482 0.45019 0.0
C1177 C 0.96707 0.65204 0.50318 0.0
C1178 C 0.95756 0.64858 0.37299 0.0
C1179 C 0.9744 0.65288 0.34675 0.0
C1180 C 0.98754 0.65666 0.39982 0.0
C1181 C 0.98393 0.65622 0.477 0.0
C1182 C 0.998 0.64794 0.15931 0.0
C1183 C 0.98572 0.65479 0.10818 0.0
C1184 C 0.99431 0.64728 0.23636 0.0
C1185 C 0.97825 0.65348 0.26447 0.0
C1186 C 0.96595 0.66031 0.21333 0.0
C1187 C 0.96963 0.66094 0.13618 0.0
H1188 H 0.841 0.992 1.00834 0.0
H1189 H 0.85461 0.9382 0.96163 0.0
H1190 H 0.84064 0.99825 0.87405 0.0
H1191 H 0.85439 0.94446 0.827 0.0
H1192 H 0.83393 0.95779 0.59094 0.0
H1193 H 0.83462 0.95132 0.72528 0.0
H1194 H 0.85966 0.00112 0.76703 0.0
H1195 H 0.85884 0.0076 0.63302 0.0
C1196 C 0.84415 0.98154 0.96952 0.0
C1197 C 0.84788 0.96459 0.99593 0.0
C1198 C 0.84393 0.98512 0.89232 0.0
C1199 C 0.84749 0.97187 0.83948 0.0
C1200 C 0.85131 0.95493 0.86594 0.0
C1201 C 0.85147 0.95134 0.94317 0.0
C1202 C 0.83969 0.9673 0.62868 0.0
C1203 C 0.84626 0.98326 0.601 0.0
C1204 C 0.84011 0.96359 0.70581 0.0
C1205 C 0.84717 0.97571 0.7572 0.0
C1206 C 0.85383 0.99161 0.72938 0.0
C1207 C 0.85336 0.99534 0.65236 0.0
H1208 H 0.50733 0.8503 0.52163 0.0
H1209 H 0.56275 0.85082 0.47259 0.0
H1210 H 0.50096 0.851 0.38766 0.0
H1211 H 0.55638 0.85047 0.33882 0.0
H1212 H 0.53957 0.8653 0.10209 0.0
H1213 H 0.54549 0.8672 0.23667 0.0
H1214 H 0.5021 0.83232 0.28067 0.0
H1215 H 0.49602 0.83079 0.14627 0.0
C1216 C 0.51819 0.85065 0.4826 0.0
C1217 C 0.53559 0.85041 0.50852 0.0
C1218 C 0.51452 0.8508 0.40544 0.0
C1219 C 0.52814 0.85064 0.35209 0.0
C1220 C 0.54553 0.85076 0.37802 0.0
C1221 C 0.54919 0.85072 0.45508 0.0
C1222 C 0.53136 0.85798 0.14054 0.0
C1223 C 0.51732 0.84789 0.11349 0.0
C1224 C 0.53475 0.85905 0.21778 0.0
C1225 C 0.52427 0.84993 0.26986 0.0
C1226 C 0.51024 0.83981 0.24256 0.0
C1227 C 0.50678 0.83887 0.16541 0.0
H1228 H 0.67587 0.538 1.00721 0.0
H1229 H 0.62154 0.52442 0.97672 0.0
H1230 H 0.68102 0.53353 0.87164 0.0
H1231 H 0.62669 0.5197 0.84249 0.0
H1232 H 0.64898 0.492 0.63096 0.0
H1233 H 0.64526 0.49729 0.76559 0.0
H1234 H 0.66972 0.5479 0.74172 0.0
H1235 H 0.67324 0.54265 0.60576 0.0
C1236 C 0.66508 0.534 0.97163 0.0
C1237 C 0.64829 0.53163 1.00264 0.0
C1238 C 0.66798 0.53157 0.89409 0.0
C1239 C 0.65425 0.52627 0.84635 0.0
C1240 C 0.63754 0.52373 0.87771 0.0
C1241 C 0.63457 0.52653 0.95457 0.0
C1242 C 0.65371 0.5042 0.65435 0.0
C1243 C 0.66148 0.51687 0.60756 0.0
C1244 C 0.65147 0.50728 0.73146 0.0
C1245 C 0.65721 0.523 0.76439 0.0
C1246 C 0.66526 0.53561 0.71805 0.0
C1247 C 0.66717 0.53267 0.64027 0.0
H1248 H 0.0092 0.85791 0.35998 0.0
H1249 H 0.95562 0.84303 0.40598 0.0
H1250 H 0.00302 0.85763 0.22597 0.0
H1251 H 0.94926 0.84375 0.27237 0.0
H1252 H 0.9486 0.82677 0.02719 0.0
H1253 H 0.95498 0.82744 0.16115 0.0
H1254 H 0.98789 0.87283 0.12788 0.0
H1255 H 0.98168 0.87188 0.993 0.0
C1256 C 0.9961 0.85459 0.34194 0.0
C1257 C 0.98298 0.85037 0.39465 0.0
C1258 C 0.99249 0.85468 0.26475 0.0
C1259 C 0.97564 0.85064 0.23804 0.0
C1260 C 0.96247 0.84667 0.29067 0.0
C1261 C 0.96609 0.84647 0.36779 0.0
C1262 C 0.95707 0.83699 0.04849 0.0
C1263 C 0.96457 0.84933 0.99945 0.0
C1264 C 0.96072 0.8374 0.12549 0.0
C1265 C 0.97187 0.85026 0.15571 0.0
C1266 C 0.97942 0.8626 0.10655 0.0
C1267 C 0.97586 0.8621 0.02926 0.0
H1268 H 0.63656 0.00857 0.87518 0.0
H1269 H 0.66264 0.95928 0.91507 0.0
H1270 H 0.63569 0.00228 0.7409 0.0
H1271 H 0.662 0.95304 0.78055 0.0
H1272 H 0.64312 0.93963 0.54434 0.0
H1273 H 0.64269 0.9458 0.67897 0.0
H1274 H 0.65439 0.00014 0.63327 0.0
H1275 H 0.65456 0.99396 0.49876 0.0
C1276 C 0.64227 0.99646 0.85521 0.0
C1277 C 0.64973 0.98446 0.90595 0.0
C1278 C 0.64178 0.99285 0.7781 0.0
C1279 C 0.64881 0.97717 0.74962 0.0
C1280 C 0.65621 0.96512 0.80048 0.0
C1281 C 0.65661 0.96871 0.8777 0.0
C1282 C 0.64563 0.95288 0.56314 0.0
C1283 C 0.64887 0.96629 0.51077 0.0
C1284 C 0.64544 0.95642 0.64036 0.0
C1285 C 0.64857 0.97346 0.66723 0.0
C1286 C 0.65165 0.98691 0.6147 0.0
C1287 C 0.65175 0.98338 0.53744 0.0
H1288 H 0.55926 0.64208 1.00469 0.0
H1289 H 0.50666 0.65984 0.9593 0.0
H1290 H 0.55318 0.64262 0.13941 0.0
H1291 H 0.50059 0.66059 0.09385 0.0
H1292 H 0.49036 0.64357 0.33571 0.0
H1293 H 0.49646 0.64197 0.20144 0.0
H1294 H 0.54816 0.66309 0.24036 0.0
H1295 H 0.54207 0.66451 0.37496 0.0
C1296 C 0.54643 0.64619 0.02354 0.0
C1297 C 0.53345 0.6509 0.97124 0.0
C1298 C 0.54294 0.64654 0.10077 0.0
C1299 C 0.52641 0.6517 0.12762 0.0
C1300 C 0.51338 0.65628 0.0752 0.0
C1301 C 0.51685 0.65585 0.99794 0.0
C1302 C 0.50298 0.64801 0.31561 0.0
C1303 C 0.5157 0.65423 0.36614 0.0
C1304 C 0.50648 0.64709 0.23852 0.0
C1305 C 0.52279 0.65244 0.20991 0.0
C1306 C 0.53555 0.6586 0.26051 0.0
C1307 C 0.53206 0.65945 0.33772 0.0
H1308 H 0.83682 0.56048 0.55893 0.0
H1309 H 0.86932 0.51519 0.51706 0.0
H1310 H 0.83668 0.55383 0.69224 0.0
H1311 H 0.86899 0.50841 0.65168 0.0
H1312 H 0.84654 0.49302 0.88766 0.0
H1313 H 0.84861 0.49887 0.75272 0.0
H1314 H 0.85663 0.55378 0.79937 0.0
H1315 H 0.85402 0.54808 0.93346 0.0
C1316 C 0.84414 0.5492 0.57799 0.0
C1317 C 0.85323 0.53848 0.52669 0.0
C1318 C 0.84402 0.54537 0.65482 0.0
C1319 C 0.85294 0.53067 0.68289 0.0
C1320 C 0.86188 0.51978 0.63182 0.0
C1321 C 0.86206 0.52366 0.55462 0.0
C1322 C 0.8487 0.50635 0.86913 0.0
C1323 C 0.85001 0.52007 0.92176 0.0
C1324 C 0.85007 0.50967 0.79176 0.0
C1325 C 0.85268 0.52681 0.76515 0.0
C1326 C 0.85439 0.54045 0.81783 0.0
C1327 C 0.85308 0.53714 0.89501 0.0
loop_
_geom_bond_atom_site_label_1
_geom_bond_atom_site_label_2
_geom_bond_distance
_geom_bond_site_symmetry_2
_ccdc_geom_bond_type
C0 C1 1.351 . S
C0 N3 1.366 1_556 S
C0 H5 0.897 1_456 S
C1 C0 1.351 . S
C1 N2 1.373 . S
C1 H29 0.930 1_455 S
N2 C1 1.373 . S
N2 C4 1.340 . S
N3 C0 1.366 1_554 S
N3 C4 1.318 1_554 S
N3 Co6 2.139 . S
C4 N2 1.340 . S
C4 N3 1.318 1_556 S
C4 H28 0.930 . S
H5 C0 0.897 1_654 S
Co6 N3 2.139 . S
Co6 N9 2.121 . S
Co6 O14 2.055 . S
Co6 O17 2.039 . S
Co6 N20 2.096 1_455 S
C7 O8 1.227 . S
C7 O17 1.265 . S
O8 C7 1.227 . S
N9 Co6 2.121 . S
N9 C11 1.375 . S
N9 C12 1.313 . S
C10 C11 1.338 . S
C10 N13 1.377 . S
C10 H30 0.930 . S
C11 N9 1.375 . S
C11 C10 1.338 . S
C11 H15 0.931 . S
C12 N9 1.313 . S
C12 N13 1.344 . S
C12 H16 0.930 . S
N13 C10 1.377 . S
N13 C12 1.344 . S
O14 Co6 2.055 . S
O14 C18 1.253 . S
H15 C11 0.931 . S
H16 C12 0.930 . S
O17 Co6 2.039 . S
O17 C7 1.265 . S
C18 O14 1.253 . S
C18 O19 1.271 . S
O19 C18 1.271 . S
N20 Co6 2.096 1_655 S
N20 C23 1.358 . S
N20 C24 1.381 . S
C21 C22 1.387 . S
C21 C25 1.391 . S
C22 C21 1.387 . S
C22 C23 1.369 . S
C22 H31 0.929 . S
C23 N20 1.358 . S
C23 C22 1.369 . S
C23 H26 0.928 1_655 S
C24 N20 1.381 . S
C24 C25 1.371 . S
C24 H27 0.931 . S
C25 C21 1.391 . S
C25 C24 1.371 . S
C25 H32 0.930 . S
H26 C23 0.928 1_455 S
H27 C24 0.931 . S
H28 C4 0.930 . S
H29 C1 0.930 1_655 S
H30 C10 0.930 . S
H31 C22 0.929 . S
H32 C25 0.930 . S
C33 C34 1.351 . S
C33 N36 1.368 . S
C33 H38 0.897 1_545 S
C34 C33 1.351 . S
C34 N35 1.373 . S
C34 H62 0.930 1_545 S
N35 C34 1.373 . S
N35 C37 1.340 . S
N36 C33 1.368 . S
N36 C37 1.321 . S
N36 Co39 2.135 . S
C37 N35 1.340 . S
C37 N36 1.321 . S
C37 H61 0.930 . S
H38 C33 0.897 1_565 S
Co39 N36 2.135 . S
Co39 N42 2.121 . S
Co39 O47 2.055 . S
Co39 O50 2.039 . S
Co39 N53 2.096 1_545 S
C40 O41 1.227 . S
C40 O50 1.265 . S
O41 C40 1.227 . S
N42 Co39 2.121 . S
N42 C44 1.375 . S
N42 C45 1.313 . S
C43 C44 1.338 . S
C43 N46 1.377 . S
C43 H63 0.930 . S
C44 N42 1.375 . S
C44 C43 1.338 . S
C44 H48 0.931 . S
C45 N42 1.313 . S
C45 N46 1.344 . S
C45 H49 0.930 . S
N46 C43 1.377 . S
N46 C45 1.344 . S
O47 Co39 2.055 . S
O47 C51 1.253 . S
H48 C44 0.931 . S
H49 C45 0.930 . S
O50 Co39 2.039 . S
O50 C40 1.265 . S
C51 O47 1.253 . S
C51 O52 1.271 . S
O52 C51 1.271 . S
N53 Co39 2.096 1_565 S
N53 C56 1.358 . S
N53 C57 1.381 . S
C54 C55 1.387 . S
C54 C58 1.391 . S
C55 C54 1.387 . S
C55 C56 1.369 . S
C55 H64 0.929 . S
C56 N53 1.358 . S
C56 C55 1.369 . S
C56 H59 0.928 1_565 S
C57 N53 1.381 . S
C57 C58 1.371 . S
C57 H60 0.931 . S
C58 C54 1.391 . S
C58 C57 1.371 . S
C58 H65 0.930 . S
H59 C56 0.928 1_545 S
H60 C57 0.931 . S
H61 C37 0.930 . S
H62 C34 0.930 1_565 S
H63 C43 0.930 . S
H64 C55 0.929 . S
H65 C58 0.930 . S
C66 C67 1.351 . S
C66 N69 1.366 1_556 S
C66 H71 0.931 1_556 S
C67 C66 1.351 . S
C67 N68 1.373 . S
C67 H95 0.930 . S
N68 C67 1.373 . S
N68 C70 1.340 . S
N69 C66 1.366 1_554 S
N69 C70 1.318 1_554 S
N69 Co72 2.139 . S
C70 N68 1.340 . S
C70 N69 1.318 1_556 S
C70 H94 0.930 . S
H71 C66 0.931 1_554 S
Co72 N69 2.139 . S
Co72 N75 2.121 . S
Co72 O80 2.055 . S
Co72 O83 2.039 . S
Co72 N86 2.140 . S
C73 O74 1.227 . S
C73 O83 1.265 . S
O74 C73 1.227 . S
N75 Co72 2.121 . S
N75 C77 1.375 . S
N75 C78 1.313 . S
C76 C77 1.338 . S
C76 N79 1.377 . S
C76 H96 0.930 . S
C77 N75 1.375 . S
C77 C76 1.338 . S
C77 H81 0.931 . S
C78 N75 1.313 . S
C78 N79 1.344 . S
C78 H82 0.930 . S
N79 C76 1.377 . S
N79 C78 1.344 . S
O80 Co72 2.055 . S
O80 C84 1.253 . S
H81 C77 0.931 . S
H82 C78 0.930 . S
O83 Co72 2.039 . S
O83 C73 1.265 . S
C84 O80 1.253 . S
C84 O85 1.227 . S
O85 C84 1.227 . S
N86 Co72 2.140 . S
N86 C89 1.346 . S
N86 C90 1.345 . S
C87 C88 1.387 . S
C87 C91 1.391 . S
C88 C87 1.387 . S
C88 C89 1.369 . S
C88 H97 0.929 . S
C89 N86 1.346 . S
C89 C88 1.369 . S
C89 H92 0.928 . S
C90 N86 1.345 . S
C90 C91 1.371 . S
C90 H93 0.931 . S
C91 C87 1.391 . S
C91 C90 1.371 . S
C91 H98 0.930 . S
H92 C89 0.928 . S
H93 C90 0.931 . S
H94 C70 0.930 . S
H95 C67 0.930 . S
H96 C76 0.930 . S
H97 C88 0.929 . S
H98 C91 0.930 . S
C99 C100 1.351 . S
C99 N102 1.368 . S
C99 H104 0.931 . S
C100 C99 1.351 . S
C100 N101 1.373 . S
C100 H128 0.930 . S
N101 C100 1.373 . S
N101 C103 1.340 . S
N102 C99 1.368 . S
N102 C103 1.321 . S
N102 Co105 2.135 . S
C103 N101 1.340 . S
C103 N102 1.321 . S
C103 H127 0.930 . S
H104 C99 0.931 . S
Co105 N102 2.135 . S
Co105 N108 2.121 . S
Co105 O113 2.055 . S
Co105 O116 2.039 . S
Co105 N119 2.140 . S
C106 O107 1.227 . S
C106 O116 1.265 . S
O107 C106 1.227 . S
N108 Co105 2.121 . S
N108 C110 1.375 . S
N108 C111 1.313 . S
C109 C110 1.338 . S
C109 N112 1.377 . S
C109 H129 0.930 . S
C110 N108 1.375 . S
C110 C109 1.338 . S
C110 H114 0.931 . S
C111 N108 1.313 . S
C111 N112 1.344 . S
C111 H115 0.930 . S
N112 C109 1.377 . S
N112 C111 1.344 . S
O113 Co105 2.055 . S
O113 C117 1.253 . S
H114 C110 0.931 . S
H115 C111 0.930 . S
O116 Co105 2.039 . S
O116 C106 1.265 . S
C117 O113 1.253 . S
C117 O118 1.227 . S
O118 C117 1.227 . S
N119 Co105 2.140 . S
N119 C122 1.346 . S
N119 C123 1.345 . S
C120 C121 1.387 . S
C120 C124 1.391 . S
C121 C120 1.387 . S
C121 C122 1.369 . S
C121 H130 0.929 . S
C122 N119 1.346 . S
C122 C121 1.369 . S
C122 H125 0.928 . S
C123 N119 1.345 . S
C123 C124 1.371 . S
C123 H126 0.931 . S
C124 C120 1.391 . S
C124 C123 1.371 . S
C124 H131 0.930 . S
H125 C122 0.928 . S
H126 C123 0.931 . S
H127 C103 0.930 . S
H128 C100 0.930 . S
H129 C109 0.930 . S
H130 C121 0.929 . S
H131 C124 0.930 . S
C132 C133 1.351 . S
C132 N135 1.368 . S
C132 H137 0.897 1_455 S
C133 C132 1.351 . S
C133 N134 1.373 . S
C133 H161 0.930 1_455 S
N134 C133 1.373 . S
N134 C136 1.340 . S
N135 C132 1.368 . S
N135 C136 1.321 . S
N135 Co138 2.135 . S
C136 N134 1.340 . S
C136 N135 1.321 . S
C136 H160 0.930 . S
H137 C132 0.897 1_655 S
Co138 N135 2.135 . S
Co138 N141 2.121 . S
Co138 O146 2.055 . S
Co138 O149 2.039 . S
Co138 N152 2.096 1_455 S
C139 O140 1.227 . S
C139 O149 1.265 . S
O140 C139 1.227 . S
N141 Co138 2.121 . S
N141 C143 1.375 . S
N141 C144 1.313 . S
C142 C143 1.338 . S
C142 N145 1.377 . S
C142 H162 0.930 . S
C143 N141 1.375 . S
C143 C142 1.338 . S
C143 H147 0.931 . S
C144 N141 1.313 . S
C144 N145 1.344 . S
C144 H148 0.930 . S
N145 C142 1.377 . S
N145 C144 1.344 . S
O146 Co138 2.055 . S
O146 C150 1.253 . S
H147 C143 0.931 . S
H148 C144 0.930 . S
O149 Co138 2.039 . S
O149 C139 1.265 . S
C150 O146 1.253 . S
C150 O151 1.271 . S
O151 C150 1.271 . S
N152 Co138 2.096 1_655 S
N152 C155 1.358 . S
N152 C156 1.381 . S
C153 C154 1.387 . S
C153 C157 1.391 . S
C154 C153 1.387 . S
C154 C155 1.369 . S
C154 H163 0.929 . S
C155 N152 1.358 . S
C155 C154 1.369 . S
C155 H158 0.928 1_655 S
C156 N152 1.381 . S
C156 C157 1.371 . S
C156 H159 0.931 . S
C157 C153 1.391 . S
C157 C156 1.371 . S
C157 H164 0.930 . S
H158 C155 0.928 1_455 S
H159 C156 0.931 . S
H160 C136 0.930 . S
H161 C133 0.930 1_655 S
H162 C142 0.930 . S
H163 C154 0.929 . S
H164 C157 0.930 . S
C165 C166 1.351 . S
C165 N168 1.366 1_554 S
C165 H170 0.897 1_544 S
C166 C165 1.351 . S
C166 N167 1.373 . S
C166 H194 0.930 1_545 S
N167 C166 1.373 . S
N167 C169 1.340 . S
N168 C165 1.366 1_556 S
N168 C169 1.318 1_556 S
N168 Co171 2.139 . S
C169 N167 1.340 . S
C169 N168 1.318 1_554 S
C169 H193 0.930 . S
H170 C165 0.897 1_566 S
Co171 N168 2.139 . S
Co171 N174 2.121 . S
Co171 O179 2.055 . S
Co171 O182 2.039 . S
Co171 N185 2.096 1_545 S
C172 O173 1.227 . S
C172 O182 1.265 . S
O173 C172 1.227 . S
N174 Co171 2.121 . S
N174 C176 1.375 . S
N174 C177 1.313 . S
C175 C176 1.338 . S
C175 N178 1.377 . S
C175 H195 0.930 . S
C176 N174 1.375 . S
C176 C175 1.338 . S
C176 H180 0.931 . S
C177 N174 1.313 . S
C177 N178 1.344 . S
C177 H181 0.930 . S
N178 C175 1.377 . S
N178 C177 1.344 . S
O179 Co171 2.055 . S
O179 C183 1.253 . S
H180 C176 0.931 . S
H181 C177 0.930 . S
O182 Co171 2.039 . S
O182 C172 1.265 . S
C183 O179 1.253 . S
C183 O184 1.271 . S
O184 C183 1.271 . S
N185 Co171 2.096 1_565 S
N185 C188 1.358 . S
N185 C189 1.381 . S
C186 C187 1.387 . S
C186 C190 1.391 . S
C187 C186 1.387 . S
C187 C188 1.369 . S
C187 H196 0.929 . S
C188 N185 1.358 . S
C188 C187 1.369 . S
C188 H191 0.928 1_565 S
C189 N185 1.381 . S
C189 C190 1.371 . S
C189 H192 0.931 . S
C190 C186 1.391 . S
C190 C189 1.371 . S
C190 H197 0.930 . S
H191 C188 0.928 1_545 S
H192 C189 0.931 . S
H193 C169 0.930 . S
H194 C166 0.930 1_565 S
H195 C175 0.930 . S
H196 C187 0.929 . S
H197 C190 0.930 . S
C198 C199 1.351 . S
C198 N201 1.368 . S
C198 H203 0.931 . S
C199 C198 1.351 . S
C199 N200 1.373 . S
C199 H227 0.930 . S
N200 C199 1.373 . S
N200 C202 1.340 . S
N201 C198 1.368 . S
N201 C202 1.321 . S
N201 Co204 2.135 . S
C202 N200 1.340 . S
C202 N201 1.321 . S
C202 H226 0.930 . S
H203 C198 0.931 . S
Co204 N201 2.135 . S
Co204 N207 2.121 . S
Co204 O212 2.055 . S
Co204 O215 2.039 . S
Co204 N218 2.140 . S
C205 O206 1.227 . S
C205 O215 1.265 . S
O206 C205 1.227 . S
N207 Co204 2.121 . S
N207 C209 1.375 . S
N207 C210 1.313 . S
C208 C209 1.338 . S
C208 N211 1.377 . S
C208 H228 0.930 . S
C209 N207 1.375 . S
C209 C208 1.338 . S
C209 H213 0.931 . S
C210 N207 1.313 . S
C210 N211 1.344 . S
C210 H214 0.930 . S
N211 C208 1.377 . S
N211 C210 1.344 . S
O212 Co204 2.055 . S
O212 C216 1.253 . S
H213 C209 0.931 . S
H214 C210 0.930 . S
O215 Co204 2.039 . S
O215 C205 1.265 . S
C216 O212 1.253 . S
C216 O217 1.227 . S
O217 C216 1.227 . S
N218 Co204 2.140 . S
N218 C221 1.346 . S
N218 C222 1.345 . S
C219 C220 1.387 . S
C219 C223 1.391 . S
C220 C219 1.387 . S
C220 C221 1.369 . S
C220 H229 0.929 . S
C221 N218 1.346 . S
C221 C220 1.369 . S
C221 H224 0.928 . S
C222 N218 1.345 . S
C222 C223 1.371 . S
C222 H225 0.931 . S
C223 C219 1.391 . S
C223 C222 1.371 . S
C223 H230 0.930 . S
H224 C221 0.928 . S
H225 C222 0.931 . S
H226 C202 0.930 . S
H227 C199 0.930 . S
H228 C208 0.930 . S
H229 C220 0.929 . S
H230 C223 0.930 . S
C231 C232 1.351 . S
C231 N234 1.366 1_554 S
C231 H236 0.931 1_554 S
C232 C231 1.351 . S
C232 N233 1.373 . S
C232 H260 0.930 . S
N233 C232 1.373 . S
N233 C235 1.340 . S
N234 C231 1.366 1_556 S
N234 C235 1.318 1_556 S
N234 Co237 2.139 . S
C235 N233 1.340 . S
C235 N234 1.318 1_554 S
C235 H259 0.930 . S
H236 C231 0.931 1_556 S
Co237 N234 2.139 . S
Co237 N240 2.121 . S
Co237 O245 2.055 . S
Co237 O248 2.039 . S
Co237 N251 2.140 . S
C238 O239 1.227 . S
C238 O248 1.265 . S
O239 C238 1.227 . S
N240 Co237 2.121 . S
N240 C242 1.375 . S
N240 C243 1.313 . S
C241 C242 1.338 . S
C241 N244 1.377 . S
C241 H261 0.930 . S
C242 N240 1.375 . S
C242 C241 1.338 . S
C242 H246 0.931 . S
C243 N240 1.313 . S
C243 N244 1.344 . S
C243 H247 0.930 . S
N244 C241 1.377 . S
N244 C243 1.344 . S
O245 Co237 2.055 . S
O245 C249 1.253 . S
H246 C242 0.931 . S
H247 C243 0.930 . S
O248 Co237 2.039 . S
O248 C238 1.265 . S
C249 O245 1.253 . S
C249 O250 1.227 . S
O250 C249 1.227 . S
N251 Co237 2.140 . S
N251 C254 1.346 . S
N251 C255 1.345 . S
C252 C253 1.387 . S
C252 C256 1.391 . S
C253 C252 1.387 . S
C253 C254 1.369 . S
C253 H262 0.929 . S
C254 N251 1.346 . S
C254 C253 1.369 . S
C254 H257 0.928 . S
C255 N251 1.345 . S
C255 C256 1.371 . S
C255 H258 0.931 . S
C256 C252 1.391 . S
C256 C255 1.371 . S
C256 H263 0.930 . S
H257 C254 0.928 . S
H258 C255 0.931 . S
H259 C235 0.930 . S
H260 C232 0.930 . S
H261 C241 0.930 . S
H262 C253 0.929 . S
H263 C256 0.930 . S
C264 C265 1.351 . S
C264 N267 1.366 1_554 S
C264 H269 0.897 1_654 S
C265 C264 1.351 . S
C265 N266 1.373 . S
C265 H293 0.930 1_655 S
N266 C265 1.373 . S
N266 C268 1.340 . S
N267 C264 1.366 1_556 S
N267 C268 1.318 1_556 S
N267 Co270 2.139 . S
C268 N266 1.340 . S
C268 N267 1.318 1_554 S
C268 H292 0.930 . S
H269 C264 0.897 1_456 S
Co270 N267 2.139 . S
Co270 N273 2.121 . S
Co270 O278 2.055 . S
Co270 O281 2.039 . S
Co270 N284 2.096 1_655 S
C271 O272 1.227 . S
C271 O281 1.265 . S
O272 C271 1.227 . S
N273 Co270 2.121 . S
N273 C275 1.375 . S
N273 C276 1.313 . S
C274 C275 1.338 . S
C274 N277 1.377 . S
C274 H294 0.930 . S
C275 N273 1.375 . S
C275 C274 1.338 . S
C275 H279 0.931 . S
C276 N273 1.313 . S
C276 N277 1.344 . S
C276 H280 0.930 . S
N277 C274 1.377 . S
N277 C276 1.344 . S
O278 Co270 2.055 . S
O278 C282 1.253 . S
H279 C275 0.931 . S
H280 C276 0.930 . S
O281 Co270 2.039 . S
O281 C271 1.265 . S
C282 O278 1.253 . S
C282 O283 1.271 . S
O283 C282 1.271 . S
N284 Co270 2.096 1_455 S
N284 C287 1.358 . S
N284 C288 1.381 . S
C285 C286 1.387 . S
C285 C289 1.391 . S
C286 C285 1.387 . S
C286 C287 1.369 . S
C286 H295 0.929 . S
C287 N284 1.358 . S
C287 C286 1.369 . S
C287 H290 0.928 1_455 S
C288 N284 1.381 . S
C288 C289 1.371 . S
C288 H291 0.931 . S
C289 C285 1.391 . S
C289 C288 1.371 . S
C289 H296 0.930 . S
H290 C287 0.928 1_655 S
H291 C288 0.931 . S
H292 C268 0.930 . S
H293 C265 0.930 1_455 S
H294 C274 0.930 . S
H295 C286 0.929 . S
H296 C289 0.930 . S
C297 C298 1.351 . S
C297 N300 1.368 . S
C297 H302 0.897 1_565 S
C298 C297 1.351 . S
C298 N299 1.373 . S
C298 H326 0.930 1_565 S
N299 C298 1.373 . S
N299 C301 1.340 . S
N300 C297 1.368 . S
N300 C301 1.321 . S
N300 Co303 2.135 . S
C301 N299 1.340 . S
C301 N300 1.321 . S
C301 H325 0.930 . S
H302 C297 0.897 1_545 S
Co303 N300 2.135 . S
Co303 N306 2.121 . S
Co303 O311 2.055 . S
Co303 O314 2.039 . S
Co303 N317 2.096 1_565 S
C304 O305 1.227 . S
C304 O314 1.265 . S
O305 C304 1.227 . S
N306 Co303 2.121 . S
N306 C308 1.375 . S
N306 C309 1.313 . S
C307 C308 1.338 . S
C307 N310 1.377 . S
C307 H327 0.930 . S
C308 N306 1.375 . S
C308 C307 1.338 . S
C308 H312 0.931 . S
C309 N306 1.313 . S
C309 N310 1.344 . S
C309 H313 0.930 . S
N310 C307 1.377 . S
N310 C309 1.344 . S
O311 Co303 2.055 . S
O311 C315 1.253 . S
H312 C308 0.931 . S
H313 C309 0.930 . S
O314 Co303 2.039 . S
O314 C304 1.265 . S
C315 O311 1.253 . S
C315 O316 1.271 . S
O316 C315 1.271 . S
N317 Co303 2.096 1_545 S
N317 C320 1.358 . S
N317 C321 1.381 . S
C318 C319 1.387 . S
C318 C322 1.391 . S
C319 C318 1.387 . S
C319 C320 1.369 . S
C319 H328 0.929 . S
C320 N317 1.358 . S
C320 C319 1.369 . S
C320 H323 0.928 1_545 S
C321 N317 1.381 . S
C321 C322 1.371 . S
C321 H324 0.931 . S
C322 C318 1.391 . S
C322 C321 1.371 . S
C322 H329 0.930 . S
H323 C320 0.928 1_565 S
H324 C321 0.931 . S
H325 C301 0.930 . S
H326 C298 0.930 1_545 S
H327 C307 0.930 . S
H328 C319 0.929 . S
H329 C322 0.930 . S
C330 C331 1.351 . S
C330 N333 1.366 1_554 S
C330 H335 0.931 1_554 S
C331 C330 1.351 . S
C331 N332 1.373 . S
C331 H359 0.930 . S
N332 C331 1.373 . S
N332 C334 1.340 . S
N333 C330 1.366 1_556 S
N333 C334 1.318 1_556 S
N333 Co336 2.139 . S
C334 N332 1.340 . S
C334 N333 1.318 1_554 S
C334 H358 0.930 . S
H335 C330 0.931 1_556 S
Co336 N333 2.139 . S
Co336 N339 2.121 . S
Co336 O344 2.055 . S
Co336 O347 2.039 . S
Co336 N350 2.140 . S
C337 O338 1.227 . S
C337 O347 1.265 . S
O338 C337 1.227 . S
N339 Co336 2.121 . S
N339 C341 1.375 . S
N339 C342 1.313 . S
C340 C341 1.338 . S
C340 N343 1.377 . S
C340 H360 0.930 . S
C341 N339 1.375 . S
C341 C340 1.338 . S
C341 H345 0.931 . S
C342 N339 1.313 . S
C342 N343 1.344 . S
C342 H346 0.930 . S
N343 C340 1.377 . S
N343 C342 1.344 . S
O344 Co336 2.055 . S
O344 C348 1.253 . S
H345 C341 0.931 . S
H346 C342 0.930 . S
O347 Co336 2.039 . S
O347 C337 1.265 . S
C348 O344 1.253 . S
C348 O349 1.227 . S
O349 C348 1.227 . S
N350 Co336 2.140 . S
N350 C353 1.346 . S
N350 C354 1.345 . S
C351 C352 1.387 . S
C351 C355 1.391 . S
C352 C351 1.387 . S
C352 C353 1.369 . S
C352 H361 0.929 . S
C353 N350 1.346 . S
C353 C352 1.369 . S
C353 H356 0.928 . S
C354 N350 1.345 . S
C354 C355 1.371 . S
C354 H357 0.931 . S
C355 C351 1.391 . S
C355 C354 1.371 . S
C355 H362 0.930 . S
H356 C353 0.928 . S
H357 C354 0.931 . S
H358 C334 0.930 . S
H359 C331 0.930 . S
H360 C340 0.930 . S
H361 C352 0.929 . S
H362 C355 0.930 . S
C363 C364 1.351 . S
C363 N366 1.368 . S
C363 H368 0.931 . S
C364 C363 1.351 . S
C364 N365 1.373 . S
C364 H392 0.930 . S
N365 C364 1.373 . S
N365 C367 1.340 . S
N366 C363 1.368 . S
N366 C367 1.321 . S
N366 Co369 2.135 . S
C367 N365 1.340 . S
C367 N366 1.321 . S
C367 H391 0.930 . S
H368 C363 0.931 . S
Co369 N366 2.135 . S
Co369 N372 2.121 . S
Co369 O377 2.055 . S
Co369 O380 2.039 . S
Co369 N383 2.140 . S
C370 O371 1.227 . S
C370 O380 1.265 . S
O371 C370 1.227 . S
N372 Co369 2.121 . S
N372 C374 1.375 . S
N372 C375 1.313 . S
C373 C374 1.338 . S
C373 N376 1.377 . S
C373 H393 0.930 . S
C374 N372 1.375 . S
C374 C373 1.338 . S
C374 H378 0.931 . S
C375 N372 1.313 . S
C375 N376 1.344 . S
C375 H379 0.930 . S
N376 C373 1.377 . S
N376 C375 1.344 . S
O377 Co369 2.055 . S
O377 C381 1.253 . S
H378 C374 0.931 . S
H379 C375 0.930 . S
O380 Co369 2.039 . S
O380 C370 1.265 . S
C381 O377 1.253 . S
C381 O382 1.227 . S
O382 C381 1.227 . S
N383 Co369 2.140 . S
N383 C386 1.346 . S
N383 C387 1.345 . S
C384 C385 1.387 . S
C384 C388 1.391 . S
C385 C384 1.387 . S
C385 C386 1.369 . S
C385 H394 0.929 . S
C386 N383 1.346 . S
C386 C385 1.369 . S
C386 H389 0.928 . S
C387 N383 1.345 . S
C387 C388 1.371 . S
C387 H390 0.931 . S
C388 C384 1.391 . S
C388 C387 1.371 . S
C388 H395 0.930 . S
H389 C386 0.928 . S
H390 C387 0.931 . S
H391 C367 0.930 . S
H392 C364 0.930 . S
H393 C373 0.930 . S
H394 C385 0.929 . S
H395 C388 0.930 . S
C396 C397 1.351 . S
C396 N399 1.368 . S
C396 H401 0.897 1_655 S
C397 C396 1.351 . S
C397 N398 1.373 . S
C397 H425 0.930 1_655 S
N398 C397 1.373 . S
N398 C400 1.340 . S
N399 C396 1.368 . S
N399 C400 1.321 . S
N399 Co402 2.135 . S
C400 N398 1.340 . S
C400 N399 1.321 . S
C400 H424 0.930 . S
H401 C396 0.897 1_455 S
Co402 N399 2.135 . S
Co402 N405 2.121 . S
Co402 O410 2.055 . S
Co402 O413 2.039 . S
Co402 N416 2.096 1_655 S
C403 O404 1.227 . S
C403 O413 1.265 . S
O404 C403 1.227 . S
N405 Co402 2.121 . S
N405 C407 1.375 . S
N405 C408 1.313 . S
C406 C407 1.338 . S
C406 N409 1.377 . S
C406 H426 0.930 . S
C407 N405 1.375 . S
C407 C406 1.338 . S
C407 H411 0.931 . S
C408 N405 1.313 . S
C408 N409 1.344 . S
C408 H412 0.930 . S
N409 C406 1.377 . S
N409 C408 1.344 . S
O410 Co402 2.055 . S
O410 C414 1.253 . S
H411 C407 0.931 . S
H412 C408 0.930 . S
O413 Co402 2.039 . S
O413 C403 1.265 . S
C414 O410 1.253 . S
C414 O415 1.271 . S
O415 C414 1.271 . S
N416 Co402 2.096 1_455 S
N416 C419 1.358 . S
N416 C420 1.381 . S
C417 C418 1.387 . S
C417 C421 1.391 . S
C418 C417 1.387 . S
C418 C419 1.369 . S
C418 H427 0.929 . S
C419 N416 1.358 . S
C419 C418 1.369 . S
C419 H422 0.928 1_455 S
C420 N416 1.381 . S
C420 C421 1.371 . S
C420 H423 0.931 . S
C421 C417 1.391 . S
C421 C420 1.371 . S
C421 H428 0.930 . S
H422 C419 0.928 1_655 S
H423 C420 0.931 . S
H424 C400 0.930 . S
H425 C397 0.930 1_455 S
H426 C406 0.930 . S
H427 C418 0.929 . S
H428 C421 0.930 . S
C429 C430 1.351 . S
C429 N432 1.366 1_556 S
C429 H434 0.897 1_566 S
C430 C429 1.351 . S
C430 N431 1.373 . S
C430 H458 0.930 1_565 S
N431 C430 1.373 . S
N431 C433 1.340 . S
N432 C429 1.366 1_554 S
N432 C433 1.318 1_554 S
N432 Co435 2.139 . S
C433 N431 1.340 . S
C433 N432 1.318 1_556 S
C433 H457 0.930 . S
H434 C429 0.897 1_544 S
Co435 N432 2.139 . S
Co435 N438 2.121 . S
Co435 O443 2.055 . S
Co435 O446 2.039 . S
Co435 N449 2.096 1_565 S
C436 O437 1.227 . S
C436 O446 1.265 . S
O437 C436 1.227 . S
N438 Co435 2.121 . S
N438 C440 1.375 . S
N438 C441 1.313 . S
C439 C440 1.338 . S
C439 N442 1.377 . S
C439 H459 0.930 . S
C440 N438 1.375 . S
C440 C439 1.338 . S
C440 H444 0.931 . S
C441 N438 1.313 . S
C441 N442 1.344 . S
C441 H445 0.930 . S
N442 C439 1.377 . S
N442 C441 1.344 . S
O443 Co435 2.055 . S
O443 C447 1.253 . S
H444 C440 0.931 . S
H445 C441 0.930 . S
O446 Co435 2.039 . S
O446 C436 1.265 . S
C447 O443 1.253 . S
C447 O448 1.271 . S
O448 C447 1.271 . S
N449 Co435 2.096 1_545 S
N449 C452 1.358 . S
N449 C453 1.381 . S
C450 C451 1.387 . S
C450 C454 1.391 . S
C451 C450 1.387 . S
C451 C452 1.369 . S
C451 H460 0.929 . S
C452 N449 1.358 . S
C452 C451 1.369 . S
C452 H455 0.928 1_545 S
C453 N449 1.381 . S
C453 C454 1.371 . S
C453 H456 0.931 . S
C454 C450 1.391 . S
C454 C453 1.371 . S
C454 H461 0.930 . S
H455 C452 0.928 1_565 S
H456 C453 0.931 . S
H457 C433 0.930 . S
H458 C430 0.930 1_545 S
H459 C439 0.930 . S
H460 C451 0.929 . S
H461 C454 0.930 . S
C462 C463 1.351 . S
C462 N465 1.368 . S
C462 H467 0.931 . S
C463 C462 1.351 . S
C463 N464 1.373 . S
C463 H491 0.930 . S
N464 C463 1.373 . S
N464 C466 1.340 . S
N465 C462 1.368 . S
N465 C466 1.321 . S
N465 Co468 2.135 . S
C466 N464 1.340 . S
C466 N465 1.321 . S
C466 H490 0.930 . S
H467 C462 0.931 . S
Co468 N465 2.135 . S
Co468 N471 2.121 . S
Co468 O476 2.055 . S
Co468 O479 2.039 . S
Co468 N482 2.140 . S
C469 O470 1.227 . S
C469 O479 1.265 . S
O470 C469 1.227 . S
N471 Co468 2.121 . S
N471 C473 1.375 . S
N471 C474 1.313 . S
C472 C473 1.338 . S
C472 N475 1.377 . S
C472 H492 0.930 . S
C473 N471 1.375 . S
C473 C472 1.338 . S
C473 H477 0.931 . S
C474 N471 1.313 . S
C474 N475 1.344 . S
C474 H478 0.930 . S
N475 C472 1.377 . S
N475 C474 1.344 . S
O476 Co468 2.055 . S
O476 C480 1.253 . S
H477 C473 0.931 . S
H478 C474 0.930 . S
O479 Co468 2.039 . S
O479 C469 1.265 . S
C480 O476 1.253 . S
C480 O481 1.227 . S
O481 C480 1.227 . S
N482 Co468 2.140 . S
N482 C485 1.346 . S
N482 C486 1.345 . S
C483 C484 1.387 . S
C483 C487 1.391 . S
C484 C483 1.387 . S
C484 C485 1.369 . S
C484 H493 0.929 . S
C485 N482 1.346 . S
C485 C484 1.369 . S
C485 H488 0.928 . S
C486 N482 1.345 . S
C486 C487 1.371 . S
C486 H489 0.931 . S
C487 C483 1.391 . S
C487 C486 1.371 . S
C487 H494 0.930 . S
H488 C485 0.928 . S
H489 C486 0.931 . S
H490 C466 0.930 . S
H491 C463 0.930 . S
H492 C472 0.930 . S
H493 C484 0.929 . S
H494 C487 0.930 . S
C495 C496 1.351 . S
C495 N498 1.366 1_556 S
C495 H500 0.931 1_556 S
C496 C495 1.351 . S
C496 N497 1.373 . S
C496 H524 0.930 . S
N497 C496 1.373 . S
N497 C499 1.340 . S
N498 C495 1.366 1_554 S
N498 C499 1.318 1_554 S
N498 Co501 2.139 . S
C499 N497 1.340 . S
C499 N498 1.318 1_556 S
C499 H523 0.930 . S
H500 C495 0.931 1_554 S
Co501 N498 2.139 . S
Co501 N504 2.121 . S
Co501 O509 2.055 . S
Co501 O512 2.039 . S
Co501 N515 2.140 . S
C502 O503 1.227 . S
C502 O512 1.265 . S
O503 C502 1.227 . S
N504 Co501 2.121 . S
N504 C506 1.375 . S
N504 C507 1.313 . S
C505 C506 1.338 . S
C505 N508 1.377 . S
C505 H525 0.930 . S
C506 N504 1.375 . S
C506 C505 1.338 . S
C506 H510 0.931 . S
C507 N504 1.313 . S
C507 N508 1.344 . S
C507 H511 0.930 . S
N508 C505 1.377 . S
N508 C507 1.344 . S
O509 Co501 2.055 . S
O509 C513 1.253 . S
H510 C506 0.931 . S
H511 C507 0.930 . S
O512 Co501 2.039 . S
O512 C502 1.265 . S
C513 O509 1.253 . S
C513 O514 1.227 . S
O514 C513 1.227 . S
N515 Co501 2.140 . S
N515 C518 1.346 . S
N515 C519 1.345 . S
C516 C517 1.387 . S
C516 C520 1.391 . S
C517 C516 1.387 . S
C517 C518 1.369 . S
C517 H526 0.929 . S
C518 N515 1.346 . S
C518 C517 1.369 . S
C518 H521 0.928 . S
C519 N515 1.345 . S
C519 C520 1.371 . S
C519 H522 0.931 . S
C520 C516 1.391 . S
C520 C519 1.371 . S
C520 H527 0.930 . S
H521 C518 0.928 . S
H522 C519 0.931 . S
H523 C499 0.930 . S
H524 C496 0.930 . S
H525 C505 0.930 . S
H526 C517 0.929 . S
H527 C520 0.930 . S
H528 C536 0.950 . S
H529 C541 0.950 . S
H530 C538 0.950 . S
H531 C540 0.950 . S
H532 C542 0.950 . S
H533 C544 0.950 . S
H534 C546 0.950 . S
H535 C547 0.950 . S
C536 H528 0.950 . S
C536 C537 1.386 . S
C536 C538 1.391 . S
C537 C536 1.386 . S
C537 C541 1.393 . S
C538 H530 0.950 . S
C538 C536 1.391 . S
C538 C539 1.400 . S
C539 C538 1.400 . S
C539 C540 1.398 . S
C539 C545 1.491 . S
C540 H531 0.950 . S
C540 C539 1.398 . S
C540 C541 1.391 . S
C541 H529 0.950 . S
C541 C537 1.393 . S
C541 C540 1.391 . S
C542 H532 0.950 . S
C542 C543 1.386 . S
C542 C544 1.391 . S
C543 C542 1.386 . S
C543 C547 1.393 . S
C544 H533 0.950 . S
C544 C542 1.391 . S
C544 C545 1.400 . S
C545 C539 1.491 . S
C545 C544 1.400 . S
C545 C546 1.398 . S
C546 H534 0.950 . S
C546 C545 1.398 . S
C546 C547 1.391 . S
C547 H535 0.950 . S
C547 C543 1.393 . S
C547 C546 1.391 . S
H548 C556 0.950 . S
H549 C561 0.950 . S
H550 C558 0.950 . S
H551 C560 0.950 . S
H552 C562 0.950 . S
H553 C564 0.950 . S
H554 C566 0.950 . S
H555 C567 0.950 . S
C556 H548 0.950 . S
C556 C557 1.386 . S
C556 C558 1.391 . S
C557 C556 1.386 . S
C557 C561 1.393 . S
C558 H550 0.950 . S
C558 C556 1.391 . S
C558 C559 1.400 . S
C559 C558 1.400 . S
C559 C560 1.398 . S
C559 C565 1.491 . S
C560 H551 0.950 . S
C560 C559 1.398 . S
C560 C561 1.391 . S
C561 H549 0.950 . S
C561 C557 1.393 . S
C561 C560 1.391 . S
C562 H552 0.950 . S
C562 C563 1.386 . S
C562 C564 1.391 . S
C563 C562 1.386 . S
C563 C567 1.393 . S
C564 H553 0.950 . S
C564 C562 1.391 . S
C564 C565 1.400 . S
C565 C559 1.491 . S
C565 C564 1.400 . S
C565 C566 1.398 . S
C566 H554 0.950 . S
C566 C565 1.398 . S
C566 C567 1.391 . S
C567 H555 0.950 . S
C567 C563 1.393 . S
C567 C566 1.391 . S
H568 C576 0.950 . S
H569 C581 0.950 . S
H570 C578 0.950 . S
H571 C580 0.950 . S
H572 C582 0.950 . S
H573 C584 0.950 . S
H574 C586 0.950 . S
H575 C587 0.950 . S
C576 H568 0.950 . S
C576 C577 1.386 . S
C576 C578 1.391 . S
C577 C576 1.386 . S
C577 C581 1.393 . S
C578 H570 0.950 . S
C578 C576 1.391 . S
C578 C579 1.400 . S
C579 C578 1.400 . S
C579 C580 1.398 . S
C579 C585 1.491 . S
C580 H571 0.950 . S
C580 C579 1.398 . S
C580 C581 1.391 . S
C581 H569 0.950 . S
C581 C577 1.393 . S
C581 C580 1.391 . S
C582 H572 0.950 . S
C582 C583 1.386 . S
C582 C584 1.391 . S
C583 C582 1.386 . S
C583 C587 1.393 . S
C584 H573 0.950 . S
C584 C582 1.391 . S
C584 C585 1.400 . S
C585 C579 1.491 . S
C585 C584 1.400 . S
C585 C586 1.398 . S
C586 H574 0.950 . S
C586 C585 1.398 . S
C586 C587 1.391 . S
C587 H575 0.950 . S
C587 C583 1.393 . S
C587 C586 1.391 . S
H588 C596 0.950 . S
H589 C601 0.950 . S
H590 C598 0.950 . S
H591 C600 0.950 . S
H592 C602 0.950 . S
H593 C604 0.950 . S
H594 C606 0.950 . S
H595 C607 0.950 . S
C596 H588 0.950 . S
C596 C597 1.386 . S
C596 C598 1.391 . S
C597 C596 1.386 . S
C597 C601 1.393 . S
C598 H590 0.950 . S
C598 C596 1.391 . S
C598 C599 1.400 . S
C599 C598 1.400 . S
C599 C600 1.398 . S
C599 C605 1.491 . S
C600 H591 0.950 . S
C600 C599 1.398 . S
C600 C601 1.391 . S
C601 H589 0.950 . S
C601 C597 1.393 . S
C601 C600 1.391 . S
C602 H592 0.950 . S
C602 C603 1.386 . S
C602 C604 1.391 . S
C603 C602 1.386 . S
C603 C607 1.393 . S
C604 H593 0.950 . S
C604 C602 1.391 . S
C604 C605 1.400 . S
C605 C599 1.491 . S
C605 C604 1.400 . S
C605 C606 1.398 . S
C606 H594 0.950 . S
C606 C605 1.398 . S
C606 C607 1.391 . S
C607 H595 0.950 . S
C607 C603 1.393 . S
C607 C606 1.391 . S
H608 C616 0.950 . S
H609 C621 0.950 . S
H610 C618 0.950 . S
H611 C620 0.950 . S
H612 C622 0.950 . S
H613 C624 0.950 . S
H614 C626 0.950 . S
H615 C627 0.950 . S
C616 H608 0.950 . S
C616 C617 1.386 . S
C616 C618 1.391 . S
C617 C616 1.386 . S
C617 C621 1.393 . S
C618 H610 0.950 . S
C618 C616 1.391 . S
C618 C619 1.400 . S
C619 C618 1.400 . S
C619 C620 1.398 . S
C619 C625 1.491 . S
C620 H611 0.950 . S
C620 C619 1.398 . S
C620 C621 1.391 . S
C621 H609 0.950 . S
C621 C617 1.393 . S
C621 C620 1.391 . S
C622 H612 0.950 . S
C622 C623 1.386 . S
C622 C624 1.391 . S
C623 C622 1.386 . S
C623 C627 1.393 . S
C624 H613 0.950 . S
C624 C622 1.391 . S
C624 C625 1.400 . S
C625 C619 1.491 . S
C625 C624 1.400 . S
C625 C626 1.398 . S
C626 H614 0.950 . S
C626 C625 1.398 . S
C626 C627 1.391 . S
C627 H615 0.950 . S
C627 C623 1.393 . S
C627 C626 1.391 . S
H628 C636 0.950 . S
H629 C641 0.950 . S
H630 C638 0.950 . S
H631 C640 0.950 . S
H632 C642 0.950 . S
H633 C644 0.950 . S
H634 C646 0.950 . S
H635 C647 0.950 . S
C636 H628 0.950 . S
C636 C637 1.386 . S
C636 C638 1.391 . S
C637 C636 1.386 . S
C637 C641 1.393 . S
C638 H630 0.950 . S
C638 C636 1.391 . S
C638 C639 1.400 . S
C639 C638 1.400 . S
C639 C640 1.398 . S
C639 C645 1.491 . S
C640 H631 0.950 . S
C640 C639 1.398 . S
C640 C641 1.391 . S
C641 H629 0.950 . S
C641 C637 1.393 . S
C641 C640 1.391 . S
C642 H632 0.950 . S
C642 C643 1.386 . S
C642 C644 1.391 . S
C643 C642 1.386 . S
C643 C647 1.393 . S
C644 H633 0.950 . S
C644 C642 1.391 . S
C644 C645 1.400 . S
C645 C639 1.491 . S
C645 C644 1.400 . S
C645 C646 1.398 . S
C646 H634 0.950 . S
C646 C645 1.398 . S
C646 C647 1.391 . S
C647 H635 0.950 . S
C647 C643 1.393 . S
C647 C646 1.391 . S
H648 C656 0.950 . S
H649 C661 0.950 . S
H650 C658 0.950 . S
H651 C660 0.950 . S
H652 C662 0.950 . S
H653 C664 0.950 . S
H654 C666 0.950 . S
H655 C667 0.950 . S
C656 H648 0.950 . S
C656 C657 1.386 . S
C656 C658 1.391 . S
C657 C656 1.386 . S
C657 C661 1.393 . S
C658 H650 0.950 . S
C658 C656 1.391 . S
C658 C659 1.400 . S
C659 C658 1.400 . S
C659 C660 1.398 . S
C659 C665 1.491 . S
C660 H651 0.950 . S
C660 C659 1.398 . S
C660 C661 1.391 . S
C661 H649 0.950 . S
C661 C657 1.393 . S
C661 C660 1.391 . S
C662 H652 0.950 . S
C662 C663 1.386 . S
C662 C664 1.391 . S
C663 C662 1.386 . S
C663 C667 1.393 . S
C664 H653 0.950 . S
C664 C662 1.391 . S
C664 C665 1.400 . S
C665 C659 1.491 . S
C665 C664 1.400 . S
C665 C666 1.398 . S
C666 H654 0.950 . S
C666 C665 1.398 . S
C666 C667 1.391 . S
C667 H655 0.950 . S
C667 C663 1.393 . S
C667 C666 1.391 . S
H668 C676 0.950 . S
H669 C681 0.950 . S
H670 C678 0.950 . S
H671 C680 0.950 . S
H672 C682 0.950 . S
H673 C684 0.950 . S
H674 C686 0.950 . S
H675 C687 0.950 . S
C676 H668 0.950 . S
C676 C677 1.386 . S
C676 C678 1.391 . S
C677 C676 1.386 . S
C677 C681 1.393 . S
C678 H670 0.950 . S
C678 C676 1.391 . S
C678 C679 1.400 . S
C679 C678 1.400 . S
C679 C680 1.398 . S
C679 C685 1.491 . S
C680 H671 0.950 . S
C680 C679 1.398 . S
C680 C681 1.391 . S
C681 H669 0.950 . S
C681 C677 1.393 . S
C681 C680 1.391 . S
C682 H672 0.950 . S
C682 C683 1.386 . S
C682 C684 1.391 . S
C683 C682 1.386 . S
C683 C687 1.393 . S
C684 H673 0.950 . S
C684 C682 1.391 . S
C684 C685 1.400 . S
C685 C679 1.491 . S
C685 C684 1.400 . S
C685 C686 1.398 . S
C686 H674 0.950 . S
C686 C685 1.398 . S
C686 C687 1.391 . S
C687 H675 0.950 . S
C687 C683 1.393 . S
C687 C686 1.391 . S
H688 C696 0.950 . S
H689 C701 0.950 1_556 S
H690 C698 0.950 . S
H691 C700 0.950 . S
H692 C702 0.950 . S
H693 C704 0.950 . S
H694 C706 0.950 . S
H695 C707 0.950 1_554 S
C696 H688 0.950 . S
C696 C697 1.386 . S
C696 C698 1.391 . S
C697 C696 1.386 . S
C697 C701 1.393 . S
C698 H690 0.950 . S
C698 C696 1.391 . S
C698 C699 1.400 . S
C699 C698 1.400 . S
C699 C700 1.398 1_554 S
C699 C705 1.491 1_554 S
C700 H691 0.950 . S
C700 C699 1.398 1_556 S
C700 C701 1.391 1_556 S
C701 H689 0.950 1_554 S
C701 C697 1.393 . S
C701 C700 1.391 1_554 S
C702 H692 0.950 . S
C702 C703 1.386 . S
C702 C704 1.391 . S
C703 C702 1.386 . S
C703 C707 1.393 . S
C704 H693 0.950 . S
C704 C702 1.391 . S
C704 C705 1.400 . S
C705 C699 1.491 1_556 S
C705 C704 1.400 . S
C705 C706 1.398 1_556 S
C706 H694 0.950 . S
C706 C705 1.398 1_554 S
C706 C707 1.391 1_554 S
C707 H695 0.950 1_556 S
C707 C703 1.393 . S
C707 C706 1.391 1_556 S
H708 C716 0.950 . S
H709 C721 0.950 . S
H710 C718 0.950 . S
H711 C720 0.950 . S
H712 C722 0.950 . S
H713 C724 0.950 . S
H714 C726 0.950 . S
H715 C727 0.950 . S
C716 H708 0.950 . S
C716 C717 1.386 . S
C716 C718 1.391 . S
C717 C716 1.386 . S
C717 C721 1.393 . S
C718 H710 0.950 . S
C718 C716 1.391 . S
C718 C719 1.400 . S
C719 C718 1.400 . S
C719 C720 1.398 . S
C719 C725 1.491 . S
C720 H711 0.950 . S
C720 C719 1.398 . S
C720 C721 1.391 . S
C721 H709 0.950 . S
C721 C717 1.393 . S
C721 C720 1.391 . S
C722 H712 0.950 . S
C722 C723 1.386 . S
C722 C724 1.391 . S
C723 C722 1.386 . S
C723 C727 1.393 . S
C724 H713 0.950 . S
C724 C722 1.391 . S
C724 C725 1.400 . S
C725 C719 1.491 . S
C725 C724 1.400 . S
C725 C726 1.398 . S
C726 H714 0.950 . S
C726 C725 1.398 . S
C726 C727 1.391 . S
C727 H715 0.950 . S
C727 C723 1.393 . S
C727 C726 1.391 . S
H728 C736 0.950 . S
H729 C741 0.950 . S
H730 C738 0.950 . S
H731 C740 0.950 . S
H732 C742 0.950 . S
H733 C744 0.950 . S
H734 C746 0.950 . S
H735 C747 0.950 . S
C736 H728 0.950 . S
C736 C737 1.386 . S
C736 C738 1.391 . S
C737 C736 1.386 . S
C737 C741 1.393 1_554 S
C738 H730 0.950 . S
C738 C736 1.391 . S
C738 C739 1.400 . S
C739 C738 1.400 . S
C739 C740 1.398 1_554 S
C739 C745 1.491 1_554 S
C740 H731 0.950 . S
C740 C739 1.398 1_556 S
C740 C741 1.391 . S
C741 H729 0.950 . S
C741 C737 1.393 1_556 S
C741 C740 1.391 . S
C742 H732 0.950 . S
C742 C743 1.386 . S
C742 C744 1.391 . S
C743 C742 1.386 . S
C743 C747 1.393 1_556 S
C744 H733 0.950 . S
C744 C742 1.391 . S
C744 C745 1.400 . S
C745 C739 1.491 1_556 S
C745 C744 1.400 . S
C745 C746 1.398 1_556 S
C746 H734 0.950 . S
C746 C745 1.398 1_554 S
C746 C747 1.391 . S
C747 H735 0.950 . S
C747 C743 1.393 1_554 S
C747 C746 1.391 . S
H748 C756 0.950 . S
H749 C761 0.950 . S
H750 C758 0.950 . S
H751 C760 0.950 . S
H752 C762 0.950 . S
H753 C764 0.950 . S
H754 C766 0.950 . S
H755 C767 0.950 . S
C756 H748 0.950 . S
C756 C757 1.386 . S
C756 C758 1.391 . S
C757 C756 1.386 . S
C757 C761 1.393 . S
C758 H750 0.950 . S
C758 C756 1.391 . S
C758 C759 1.400 . S
C759 C758 1.400 . S
C759 C760 1.398 . S
C759 C765 1.491 . S
C760 H751 0.950 . S
C760 C759 1.398 . S
C760 C761 1.391 . S
C761 H749 0.950 . S
C761 C757 1.393 . S
C761 C760 1.391 . S
C762 H752 0.950 . S
C762 C763 1.386 . S
C762 C764 1.391 . S
C763 C762 1.386 . S
C763 C767 1.393 . S
C764 H753 0.950 . S
C764 C762 1.391 . S
C764 C765 1.400 . S
C765 C759 1.491 . S
C765 C764 1.400 . S
C765 C766 1.398 . S
C766 H754 0.950 . S
C766 C765 1.398 . S
C766 C767 1.391 . S
C767 H755 0.950 . S
C767 C763 1.393 . S
C767 C766 1.391 . S
H768 C776 0.950 . S
H769 C781 0.950 . S
H770 C778 0.950 1_556 S
H771 C780 0.950 . S
H772 C782 0.950 . S
H773 C784 0.950 1_554 S
H774 C786 0.950 . S
H775 C787 0.950 . S
C776 H768 0.950 . S
C776 C777 1.386 . S
C776 C778 1.391 . S
C777 C776 1.386 . S
C777 C781 1.393 . S
C778 H770 0.950 1_554 S
C778 C776 1.391 . S
C778 C779 1.400 . S
C779 C778 1.400 . S
C779 C780 1.398 . S
C779 C785 1.491 1_554 S
C780 H771 0.950 . S
C780 C779 1.398 . S
C780 C781 1.391 . S
C781 H769 0.950 . S
C781 C777 1.393 . S
C781 C780 1.391 . S
C782 H772 0.950 . S
C782 C783 1.386 . S
C782 C784 1.391 . S
C783 C782 1.386 . S
C783 C787 1.393 . S
C784 H773 0.950 1_556 S
C784 C782 1.391 . S
C784 C785 1.400 . S
C785 C779 1.491 1_556 S
C785 C784 1.400 . S
C785 C786 1.398 . S
C786 H774 0.950 . S
C786 C785 1.398 . S
C786 C787 1.391 . S
C787 H775 0.950 . S
C787 C783 1.393 . S
C787 C786 1.391 . S
H788 C796 0.950 . S
H789 C801 0.950 . S
H790 C798 0.950 . S
H791 C800 0.950 . S
H792 C802 0.950 . S
H793 C804 0.950 . S
H794 C806 0.950 . S
H795 C807 0.950 . S
C796 H788 0.950 . S
C796 C797 1.386 . S
C796 C798 1.391 . S
C797 C796 1.386 . S
C797 C801 1.393 . S
C798 H790 0.950 . S
C798 C796 1.391 . S
C798 C799 1.400 . S
C799 C798 1.400 . S
C799 C800 1.398 . S
C799 C805 1.491 . S
C800 H791 0.950 . S
C800 C799 1.398 . S
C800 C801 1.391 . S
C801 H789 0.950 . S
C801 C797 1.393 . S
C801 C800 1.391 . S
C802 H792 0.950 . S
C802 C803 1.386 . S
C802 C804 1.391 . S
C803 C802 1.386 . S
C803 C807 1.393 . S
C804 H793 0.950 . S
C804 C802 1.391 . S
C804 C805 1.400 . S
C805 C799 1.491 . S
C805 C804 1.400 . S
C805 C806 1.398 . S
C806 H794 0.950 . S
C806 C805 1.398 . S
C806 C807 1.391 . S
C807 H795 0.950 . S
C807 C803 1.393 . S
C807 C806 1.391 . S
H808 C816 0.950 1_556 S
H809 C821 0.950 . S
H810 C818 0.950 . S
H811 C820 0.950 . S
H812 C822 0.950 1_554 S
H813 C824 0.950 . S
H814 C826 0.950 . S
H815 C827 0.950 . S
C816 H808 0.950 1_554 S
C816 C817 1.386 . S
C816 C818 1.391 1_554 S
C817 C816 1.386 . S
C817 C821 1.393 . S
C818 H810 0.950 . S
C818 C816 1.391 1_556 S
C818 C819 1.400 1_556 S
C819 C818 1.400 1_554 S
C819 C820 1.398 . S
C819 C825 1.491 1_554 S
C820 H811 0.950 . S
C820 C819 1.398 . S
C820 C821 1.391 . S
C821 H809 0.950 . S
C821 C817 1.393 . S
C821 C820 1.391 . S
C822 H812 0.950 1_556 S
C822 C823 1.386 . S
C822 C824 1.391 1_556 S
C823 C822 1.386 . S
C823 C827 1.393 . S
C824 H813 0.950 . S
C824 C822 1.391 1_554 S
C824 C825 1.400 1_554 S
C825 C819 1.491 1_556 S
C825 C824 1.400 1_556 S
C825 C826 1.398 . S
C826 H814 0.950 . S
C826 C825 1.398 . S
C826 C827 1.391 . S
C827 H815 0.950 . S
C827 C823 1.393 . S
C827 C826 1.391 . S
H828 C836 0.950 . S
H829 C841 0.950 . S
H830 C838 0.950 . S
H831 C840 0.950 . S
H832 C842 0.950 . S
H833 C844 0.950 . S
H834 C846 0.950 . S
H835 C847 0.950 . S
C836 H828 0.950 . S
C836 C837 1.386 . S
C836 C838 1.391 . S
C837 C836 1.386 . S
C837 C841 1.393 . S
C838 H830 0.950 . S
C838 C836 1.391 . S
C838 C839 1.400 . S
C839 C838 1.400 . S
C839 C840 1.398 . S
C839 C845 1.491 . S
C840 H831 0.950 . S
C840 C839 1.398 . S
C840 C841 1.391 . S
C841 H829 0.950 . S
C841 C837 1.393 . S
C841 C840 1.391 . S
C842 H832 0.950 . S
C842 C843 1.386 . S
C842 C844 1.391 . S
C843 C842 1.386 . S
C843 C847 1.393 . S
C844 H833 0.950 . S
C844 C842 1.391 . S
C844 C845 1.400 . S
C845 C839 1.491 . S
C845 C844 1.400 . S
C845 C846 1.398 . S
C846 H834 0.950 . S
C846 C845 1.398 . S
C846 C847 1.391 . S
C847 H835 0.950 . S
C847 C843 1.393 . S
C847 C846 1.391 . S
H848 C856 0.950 . S
H849 C861 0.950 1_655 S
H850 C858 0.950 . S
H851 C860 0.950 1_655 S
H852 C862 0.950 1_655 S
H853 C864 0.950 1_655 S
H854 C866 0.950 . S
H855 C867 0.950 . S
C856 H848 0.950 . S
C856 C857 1.386 . S
C856 C858 1.391 . S
C857 C856 1.386 . S
C857 C861 1.393 . S
C858 H850 0.950 . S
C858 C856 1.391 . S
C858 C859 1.400 . S
C859 C858 1.400 . S
C859 C860 1.398 . S
C859 C865 1.491 . S
C860 H851 0.950 1_455 S
C860 C859 1.398 . S
C860 C861 1.391 . S
C861 H849 0.950 1_455 S
C861 C857 1.393 . S
C861 C860 1.391 . S
C862 H852 0.950 1_455 S
C862 C863 1.386 . S
C862 C864 1.391 . S
C863 C862 1.386 . S
C863 C867 1.393 . S
C864 H853 0.950 1_455 S
C864 C862 1.391 . S
C864 C865 1.400 . S
C865 C859 1.491 . S
C865 C864 1.400 . S
C865 C866 1.398 . S
C866 H854 0.950 . S
C866 C865 1.398 . S
C866 C867 1.391 . S
C867 H855 0.950 . S
C867 C863 1.393 . S
C867 C866 1.391 . S
H868 C876 0.948 . S
H869 C881 0.950 . S
H870 C878 0.955 1_565 S
H871 C880 0.950 . S
H872 C882 0.950 . S
H873 C884 0.950 . S
H874 C886 0.922 1_565 S
H875 C887 0.930 1_565 S
C876 H868 0.948 . S
C876 C877 1.388 1_565 S
C876 C878 1.391 1_565 S
C877 C876 1.388 1_545 S
C877 C881 1.393 . S
C878 H870 0.955 1_545 S
C878 C876 1.391 1_545 S
C878 C879 1.395 . S
C879 C878 1.395 . S
C879 C880 1.398 . S
C879 C885 1.491 . S
C880 H871 0.950 . S
C880 C879 1.398 . S
C880 C881 1.391 . S
C881 H869 0.950 . S
C881 C877 1.393 . S
C881 C880 1.391 . S
C882 H872 0.950 . S
C882 C883 1.386 . S
C882 C884 1.391 . S
C883 C882 1.386 . S
C883 C887 1.412 . S
C884 H873 0.950 . S
C884 C882 1.391 . S
C884 C885 1.400 . S
C885 C879 1.491 . S
C885 C884 1.400 . S
C885 C886 1.427 . S
C886 H874 0.922 1_545 S
C886 C885 1.427 . S
C886 C887 1.391 . S
C887 H875 0.930 1_545 S
C887 C883 1.412 . S
C887 C886 1.391 . S
H888 C896 0.950 . S
H889 C901 0.950 . S
H890 C898 0.950 . S
H891 C900 0.950 . S
H892 C902 0.950 . S
H893 C904 0.950 . S
H894 C906 0.950 . S
H895 C907 0.950 . S
C896 H888 0.950 . S
C896 C897 1.386 . S
C896 C898 1.391 . S
C897 C896 1.386 . S
C897 C901 1.393 . S
C898 H890 0.950 . S
C898 C896 1.391 . S
C898 C899 1.400 . S
C899 C898 1.400 . S
C899 C900 1.398 . S
C899 C905 1.491 . S
C900 H891 0.950 . S
C900 C899 1.398 . S
C900 C901 1.391 . S
C901 H889 0.950 . S
C901 C897 1.393 . S
C901 C900 1.391 . S
C902 H892 0.950 . S
C902 C903 1.386 . S
C902 C904 1.391 . S
C903 C902 1.386 . S
C903 C907 1.393 . S
C904 H893 0.950 . S
C904 C902 1.391 . S
C904 C905 1.400 . S
C905 C899 1.491 . S
C905 C904 1.400 . S
C905 C906 1.398 . S
C906 H894 0.950 . S
C906 C905 1.398 . S
C906 C907 1.391 . S
C907 H895 0.950 . S
C907 C903 1.393 . S
C907 C906 1.391 . S
H908 C916 0.950 . S
H909 C921 0.950 . S
H910 C918 0.950 . S
H911 C920 0.950 . S
H912 C922 0.950 . S
H913 C924 0.950 . S
H914 C926 0.950 . S
H915 C927 0.950 . S
C916 H908 0.950 . S
C916 C917 1.386 . S
C916 C918 1.391 . S
C917 C916 1.386 . S
C917 C921 1.393 . S
C918 H910 0.950 . S
C918 C916 1.391 . S
C918 C919 1.400 . S
C919 C918 1.400 . S
C919 C920 1.398 . S
C919 C925 1.491 . S
C920 H911 0.950 . S
C920 C919 1.398 . S
C920 C921 1.391 . S
C921 H909 0.950 . S
C921 C917 1.393 . S
C921 C920 1.391 . S
C922 H912 0.950 . S
C922 C923 1.386 . S
C922 C924 1.391 . S
C923 C922 1.386 . S
C923 C927 1.393 . S
C924 H913 0.950 . S
C924 C922 1.391 . S
C924 C925 1.400 . S
C925 C919 1.491 . S
C925 C924 1.400 . S
C925 C926 1.398 . S
C926 H914 0.950 . S
C926 C925 1.398 . S
C926 C927 1.391 . S
C927 H915 0.950 . S
C927 C923 1.393 . S
C927 C926 1.391 . S
H928 C936 0.950 . S
H929 C941 0.950 . S
H930 C938 0.950 . S
H931 C940 0.950 . S
H932 C942 0.950 . S
H933 C944 0.950 . S
H934 C946 0.950 . S
H935 C947 0.950 . S
C936 H928 0.950 . S
C936 C937 1.386 1_455 S
C936 C938 1.391 . S
C937 C936 1.386 1_655 S
C937 C941 1.393 . S
C938 H930 0.950 . S
C938 C936 1.391 . S
C938 C939 1.400 1_455 S
C939 C938 1.400 1_655 S
C939 C940 1.398 . S
C939 C945 1.491 . S
C940 H931 0.950 . S
C940 C939 1.398 . S
C940 C941 1.391 . S
C941 H929 0.950 . S
C941 C937 1.393 . S
C941 C940 1.391 . S
C942 H932 0.950 . S
C942 C943 1.386 . S
C942 C944 1.391 . S
C943 C942 1.386 . S
C943 C947 1.393 1_655 S
C944 H933 0.950 . S
C944 C942 1.391 . S
C944 C945 1.400 . S
C945 C939 1.491 . S
C945 C944 1.400 . S
C945 C946 1.398 1_655 S
C946 H934 0.950 . S
C946 C945 1.398 1_455 S
C946 C947 1.391 . S
C947 H935 0.950 . S
C947 C943 1.393 1_455 S
C947 C946 1.391 . S
H948 C956 0.950 . S
H949 C961 0.913 1_545 S
H950 C958 0.950 . S
H951 C960 0.906 1_545 S
H952 C962 0.944 1_545 S
H953 C964 0.940 1_545 S
H954 C966 0.950 . S
H955 C967 0.950 . S
C956 H948 0.950 . S
C956 C957 1.386 . S
C956 C958 1.391 . S
C957 C956 1.386 . S
C957 C961 1.430 . S
C958 H950 0.950 . S
C958 C956 1.391 . S
C958 C959 1.400 . S
C959 C958 1.400 . S
C959 C960 1.444 . S
C959 C965 1.491 . S
C960 H951 0.906 1_565 S
C960 C959 1.444 . S
C960 C961 1.391 . S
C961 H949 0.913 1_565 S
C961 C957 1.430 . S
C961 C960 1.391 . S
C962 H952 0.944 1_565 S
C962 C963 1.391 . S
C962 C964 1.391 . S
C963 C962 1.391 . S
C963 C967 1.393 . S
C964 H953 0.940 1_565 S
C964 C962 1.391 . S
C964 C965 1.410 . S
C965 C959 1.491 . S
C965 C964 1.410 . S
C965 C966 1.398 . S
C966 H954 0.950 . S
C966 C965 1.398 . S
C966 C967 1.391 . S
C967 H955 0.950 . S
C967 C963 1.393 . S
C967 C966 1.391 . S
H968 C976 0.950 . S
H969 C981 0.950 . S
H970 C978 0.950 . S
H971 C980 0.950 . S
H972 C982 0.950 . S
H973 C984 0.950 . S
H974 C986 0.950 . S
H975 C987 0.950 . S
C976 H968 0.950 . S
C976 C977 1.386 . S
C976 C978 1.391 . S
C977 C976 1.386 . S
C977 C981 1.393 . S
C978 H970 0.950 . S
C978 C976 1.391 . S
C978 C979 1.400 . S
C979 C978 1.400 . S
C979 C980 1.398 . S
C979 C985 1.491 . S
C980 H971 0.950 . S
C980 C979 1.398 . S
C980 C981 1.391 . S
C981 H969 0.950 . S
C981 C977 1.393 . S
C981 C980 1.391 . S
C982 H972 0.950 . S
C982 C983 1.386 . S
C982 C984 1.391 . S
C983 C982 1.386 . S
C983 C987 1.393 . S
C984 H973 0.950 . S
C984 C982 1.391 . S
C984 C985 1.400 . S
C985 C979 1.491 . S
C985 C984 1.400 . S
C985 C986 1.398 . S
C986 H974 0.950 . S
C986 C985 1.398 . S
C986 C987 1.391 . S
C987 H975 0.950 . S
C987 C983 1.393 . S
C987 C986 1.391 . S
H988 C996 0.950 . S
H989 C1001 0.950 . S
H990 C998 0.950 . S
H991 C1000 0.950 . S
H992 C1002 0.950 . S
H993 C1004 0.950 . S
H994 C1006 0.950 . S
H995 C1007 0.950 . S
C996 H988 0.950 . S
C996 C997 1.386 . S
C996 C998 1.391 . S
C997 C996 1.386 . S
C997 C1001 1.393 . S
C998 H990 0.950 . S
C998 C996 1.391 . S
C998 C999 1.400 . S
C999 C998 1.400 . S
C999 C1000 1.398 . S
C999 C1005 1.491 . S
C1000 H991 0.950 . S
C1000 C999 1.398 . S
C1000 C1001 1.391 . S
C1001 H989 0.950 . S
C1001 C997 1.393 . S
C1001 C1000 1.391 . S
C1002 H992 0.950 . S
C1002 C1003 1.386 . S
C1002 C1004 1.391 . S
C1003 C1002 1.386 . S
C1003 C1007 1.393 . S
C1004 H993 0.950 . S
C1004 C1002 1.391 . S
C1004 C1005 1.400 . S
C1005 C999 1.491 . S
C1005 C1004 1.400 . S
C1005 C1006 1.398 . S
C1006 H994 0.950 . S
C1006 C1005 1.398 . S
C1006 C1007 1.391 . S
C1007 H995 0.950 . S
C1007 C1003 1.393 . S
C1007 C1006 1.391 . S
H1008 C1016 0.950 1_655 S
H1009 C1021 0.950 . S
H1010 C1018 0.950 1_655 S
H1011 C1020 0.950 . S
H1012 C1022 0.950 . S
H1013 C1024 0.950 . S
H1014 C1026 0.950 1_655 S
H1015 C1027 0.950 1_655 S
C1016 H1008 0.950 1_455 S
C1016 C1017 1.386 . S
C1016 C1018 1.391 . S
C1017 C1016 1.386 . S
C1017 C1021 1.393 . S
C1018 H1010 0.950 1_455 S
C1018 C1016 1.391 . S
C1018 C1019 1.400 . S
C1019 C1018 1.400 . S
C1019 C1020 1.398 . S
C1019 C1025 1.491 . S
C1020 H1011 0.950 . S
C1020 C1019 1.398 . S
C1020 C1021 1.391 . S
C1021 H1009 0.950 . S
C1021 C1017 1.393 . S
C1021 C1020 1.391 . S
C1022 H1012 0.950 . S
C1022 C1023 1.386 . S
C1022 C1024 1.391 . S
C1023 C1022 1.386 . S
C1023 C1027 1.393 . S
C1024 H1013 0.950 . S
C1024 C1022 1.391 . S
C1024 C1025 1.400 . S
C1025 C1019 1.491 . S
C1025 C1024 1.400 . S
C1025 C1026 1.398 . S
C1026 H1014 0.950 1_455 S
C1026 C1025 1.398 . S
C1026 C1027 1.391 . S
C1027 H1015 0.950 1_455 S
C1027 C1023 1.393 . S
C1027 C1026 1.391 . S
H1028 C1036 0.950 1_565 S
H1029 C1041 0.950 . S
H1030 C1038 0.950 1_565 S
H1031 C1040 0.950 . S
H1032 C1042 0.950 . S
H1033 C1044 0.950 . S
H1034 C1046 0.950 1_565 S
H1035 C1047 0.950 1_565 S
C1036 H1028 0.950 1_545 S
C1036 C1037 1.386 . S
C1036 C1038 1.391 1_556 S
C1037 C1036 1.386 . S
C1037 C1041 1.393 . S
C1038 H1030 0.950 1_545 S
C1038 C1036 1.391 1_554 S
C1038 C1039 1.400 . S
C1039 C1038 1.400 . S
C1039 C1040 1.398 . S
C1039 C1045 1.491 . S
C1040 H1031 0.950 . S
C1040 C1039 1.398 . S
C1040 C1041 1.391 1_554 S
C1041 H1029 0.950 . S
C1041 C1037 1.393 . S
C1041 C1040 1.391 1_556 S
C1042 H1032 0.950 . S
C1042 C1043 1.386 . S
C1042 C1044 1.391 . S
C1043 C1042 1.386 . S
C1043 C1047 1.393 . S
C1044 H1033 0.950 . S
C1044 C1042 1.391 . S
C1044 C1045 1.400 . S
C1045 C1039 1.491 . S
C1045 C1044 1.400 . S
C1045 C1046 1.398 . S
C1046 H1034 0.950 1_545 S
C1046 C1045 1.398 . S
C1046 C1047 1.391 . S
C1047 H1035 0.950 1_545 S
C1047 C1043 1.393 . S
C1047 C1046 1.391 . S
H1048 C1056 0.950 . S
H1049 C1061 0.950 . S
H1050 C1058 0.950 . S
H1051 C1060 0.950 . S
H1052 C1062 0.950 . S
H1053 C1064 0.950 . S
H1054 C1066 0.950 . S
H1055 C1067 0.950 . S
C1056 H1048 0.950 . S
C1056 C1057 1.386 . S
C1056 C1058 1.391 . S
C1057 C1056 1.386 . S
C1057 C1061 1.393 . S
C1058 H1050 0.950 . S
C1058 C1056 1.391 . S
C1058 C1059 1.400 . S
C1059 C1058 1.400 . S
C1059 C1060 1.398 . S
C1059 C1065 1.491 . S
C1060 H1051 0.950 . S
C1060 C1059 1.398 . S
C1060 C1061 1.391 . S
C1061 H1049 0.950 . S
C1061 C1057 1.393 . S
C1061 C1060 1.391 . S
C1062 H1052 0.950 . S
C1062 C1063 1.386 . S
C1062 C1064 1.391 . S
C1063 C1062 1.386 . S
C1063 C1067 1.393 . S
C1064 H1053 0.950 . S
C1064 C1062 1.391 . S
C1064 C1065 1.400 . S
C1065 C1059 1.491 . S
C1065 C1064 1.400 . S
C1065 C1066 1.398 . S
C1066 H1054 0.950 . S
C1066 C1065 1.398 . S
C1066 C1067 1.391 . S
C1067 H1055 0.950 . S
C1067 C1063 1.393 . S
C1067 C1066 1.391 . S
H1068 C1076 0.950 . S
H1069 C1081 0.950 . S
H1070 C1078 0.950 . S
H1071 C1080 0.950 . S
H1072 C1082 0.950 . S
H1073 C1084 0.950 . S
H1074 C1086 0.950 . S
H1075 C1087 0.950 . S
C1076 H1068 0.950 . S
C1076 C1077 1.386 . S
C1076 C1078 1.391 1_556 S
C1077 C1076 1.386 . S
C1077 C1081 1.393 . S
C1078 H1070 0.950 . S
C1078 C1076 1.391 1_554 S
C1078 C1079 1.400 . S
C1079 C1078 1.400 . S
C1079 C1080 1.398 . S
C1079 C1085 1.491 . S
C1080 H1071 0.950 . S
C1080 C1079 1.398 . S
C1080 C1081 1.391 1_554 S
C1081 H1069 0.950 . S
C1081 C1077 1.393 . S
C1081 C1080 1.391 1_556 S
C1082 H1072 0.950 . S
C1082 C1083 1.386 . S
C1082 C1084 1.391 . S
C1083 C1082 1.386 . S
C1083 C1087 1.393 . S
C1084 H1073 0.950 . S
C1084 C1082 1.391 . S
C1084 C1085 1.400 . S
C1085 C1079 1.491 . S
C1085 C1084 1.400 . S
C1085 C1086 1.398 . S
C1086 H1074 0.950 . S
C1086 C1085 1.398 . S
C1086 C1087 1.391 . S
C1087 H1075 0.950 . S
C1087 C1083 1.393 . S
C1087 C1086 1.391 . S
H1088 C1096 0.950 . S
H1089 C1101 0.950 1_655 S
H1090 C1098 0.950 . S
H1091 C1100 0.970 . S
H1092 C1102 0.950 . S
H1093 C1104 1.000 . S
H1094 C1106 0.950 . S
H1095 C1107 0.950 . S
C1096 H1088 0.950 . S
C1096 C1097 1.386 . S
C1096 C1098 1.391 . S
C1097 C1096 1.386 . S
C1097 C1101 1.393 . S
C1098 H1090 0.950 . S
C1098 C1096 1.391 . S
C1098 C1099 1.400 . S
C1099 C1098 1.400 . S
C1099 C1100 1.398 . S
C1099 C1105 1.491 . S
C1100 H1091 0.970 . S
C1100 C1099 1.398 . S
C1100 C1101 1.391 . S
C1101 H1089 0.950 1_455 S
C1101 C1097 1.393 . S
C1101 C1100 1.391 . S
C1102 H1092 0.950 . S
C1102 C1103 1.386 . S
C1102 C1104 1.391 1_554 S
C1103 C1102 1.386 . S
C1103 C1107 1.393 . S
C1104 H1093 1.000 . S
C1104 C1102 1.391 1_556 S
C1104 C1105 1.400 . S
C1105 C1099 1.491 . S
C1105 C1104 1.400 . S
C1105 C1106 1.398 . S
C1106 H1094 0.950 . S
C1106 C1105 1.398 . S
C1106 C1107 1.391 1_556 S
C1107 H1095 0.950 . S
C1107 C1103 1.393 . S
C1107 C1106 1.391 1_554 S
H1108 C1116 0.950 1_565 S
H1109 C1121 0.950 . S
H1110 C1118 0.950 1_565 S
H1111 C1120 0.950 . S
H1112 C1122 0.950 . S
H1113 C1124 0.950 . S
H1114 C1126 0.950 1_565 S
H1115 C1127 0.930 1_565 S
C1116 H1108 0.950 1_545 S
C1116 C1117 1.386 . S
C1116 C1118 1.391 . S
C1117 C1116 1.386 . S
C1117 C1121 1.393 . S
C1118 H1110 0.950 1_545 S
C1118 C1116 1.391 . S
C1118 C1119 1.400 . S
C1119 C1118 1.400 . S
C1119 C1120 1.398 . S
C1119 C1125 1.491 . S
C1120 H1111 0.950 . S
C1120 C1119 1.398 . S
C1120 C1121 1.391 . S
C1121 H1109 0.950 . S
C1121 C1117 1.393 . S
C1121 C1120 1.391 . S
C1122 H1112 0.950 . S
C1122 C1123 1.386 . S
C1122 C1124 1.391 . S
C1123 C1122 1.386 . S
C1123 C1127 1.393 . S
C1124 H1113 0.950 . S
C1124 C1122 1.391 . S
C1124 C1125 1.400 . S
C1125 C1119 1.491 . S
C1125 C1124 1.400 . S
C1125 C1126 1.398 . S
C1126 H1114 0.950 1_545 S
C1126 C1125 1.398 . S
C1126 C1127 1.391 . S
C1127 H1115 0.930 1_545 S
C1127 C1123 1.393 . S
C1127 C1126 1.391 . S
H1128 C1136 0.950 . S
H1129 C1141 0.950 . S
H1130 C1138 0.950 . S
H1131 C1140 0.950 . S
H1132 C1142 0.950 . S
H1133 C1144 0.950 . S
H1134 C1146 0.950 . S
H1135 C1147 0.950 . S
C1136 H1128 0.950 . S
C1136 C1137 1.386 . S
C1136 C1138 1.391 . S
C1137 C1136 1.386 . S
C1137 C1141 1.393 . S
C1138 H1130 0.950 . S
C1138 C1136 1.391 . S
C1138 C1139 1.400 . S
C1139 C1138 1.400 . S
C1139 C1140 1.398 . S
C1139 C1145 1.491 . S
C1140 H1131 0.950 . S
C1140 C1139 1.398 . S
C1140 C1141 1.391 . S
C1141 H1129 0.950 . S
C1141 C1137 1.393 . S
C1141 C1140 1.391 . S
C1142 H1132 0.950 . S
C1142 C1143 1.386 . S
C1142 C1144 1.391 1_554 S
C1143 C1142 1.386 . S
C1143 C1147 1.393 . S
C1144 H1133 0.950 . S
C1144 C1142 1.391 1_556 S
C1144 C1145 1.400 . S
C1145 C1139 1.491 . S
C1145 C1144 1.400 . S
C1145 C1146 1.398 . S
C1146 H1134 0.950 . S
C1146 C1145 1.398 . S
C1146 C1147 1.391 1_556 S
C1147 H1135 0.950 . S
C1147 C1143 1.393 . S
C1147 C1146 1.391 1_554 S
H1148 C1156 0.950 . S
H1149 C1161 0.950 . S
H1150 C1158 0.950 . S
H1151 C1160 0.950 . S
H1152 C1162 0.950 . S
H1153 C1164 0.950 . S
H1154 C1166 0.950 . S
H1155 C1167 0.950 . S
C1156 H1148 0.950 . S
C1156 C1157 1.386 . S
C1156 C1158 1.391 . S
C1157 C1156 1.386 . S
C1157 C1161 1.393 . S
C1158 H1150 0.950 . S
C1158 C1156 1.391 . S
C1158 C1159 1.400 . S
C1159 C1158 1.400 . S
C1159 C1160 1.398 . S
C1159 C1165 1.491 . S
C1160 H1151 0.950 . S
C1160 C1159 1.398 . S
C1160 C1161 1.391 . S
C1161 H1149 0.950 . S
C1161 C1157 1.393 . S
C1161 C1160 1.391 . S
C1162 H1152 0.950 . S
C1162 C1163 1.386 . S
C1162 C1164 1.391 . S
C1163 C1162 1.386 . S
C1163 C1167 1.393 . S
C1164 H1153 0.950 . S
C1164 C1162 1.391 . S
C1164 C1165 1.400 . S
C1165 C1159 1.491 . S
C1165 C1164 1.400 . S
C1165 C1166 1.398 . S
C1166 H1154 0.950 . S
C1166 C1165 1.398 . S
C1166 C1167 1.391 . S
C1167 H1155 0.950 . S
C1167 C1163 1.393 . S
C1167 C1166 1.391 . S
H1168 C1176 0.950 . S
H1169 C1181 0.919 1_455 S
H1170 C1178 0.950 . S
H1171 C1180 0.950 1_455 S
H1172 C1182 0.950 1_455 S
H1173 C1184 0.950 1_455 S
H1174 C1186 0.950 . S
H1175 C1187 0.950 . S
C1176 H1168 0.950 . S
C1176 C1177 1.386 . S
C1176 C1178 1.391 . S
C1177 C1176 1.386 . S
C1177 C1181 1.393 . S
C1178 H1170 0.950 . S
C1178 C1176 1.391 . S
C1178 C1179 1.400 . S
C1179 C1178 1.400 . S
C1179 C1180 1.398 . S
C1179 C1185 1.491 . S
C1180 H1171 0.950 1_655 S
C1180 C1179 1.398 . S
C1180 C1181 1.391 . S
C1181 H1169 0.919 1_655 S
C1181 C1177 1.393 . S
C1181 C1180 1.391 . S
C1182 H1172 0.950 1_655 S
C1182 C1183 1.386 . S
C1182 C1184 1.391 . S
C1183 C1182 1.386 . S
C1183 C1187 1.393 . S
C1184 H1173 0.950 1_655 S
C1184 C1182 1.391 . S
C1184 C1185 1.400 . S
C1185 C1179 1.491 . S
C1185 C1184 1.400 . S
C1185 C1186 1.398 . S
C1186 H1174 0.950 . S
C1186 C1185 1.398 . S
C1186 C1187 1.391 . S
C1187 H1175 0.950 . S
C1187 C1183 1.393 . S
C1187 C1186 1.391 . S
H1188 C1196 0.950 . S
H1189 C1201 0.950 . S
H1190 C1198 0.950 . S
H1191 C1200 0.950 . S
H1192 C1202 0.950 . S
H1193 C1204 0.950 . S
H1194 C1206 0.950 . S
H1195 C1207 0.950 . S
C1196 H1188 0.950 . S
C1196 C1197 1.386 . S
C1196 C1198 1.391 1_554 S
C1197 C1196 1.386 . S
C1197 C1201 1.393 . S
C1198 H1190 0.950 . S
C1198 C1196 1.391 1_556 S
C1198 C1199 1.400 . S
C1199 C1198 1.400 . S
C1199 C1200 1.398 . S
C1199 C1205 1.491 . S
C1200 H1191 0.950 . S
C1200 C1199 1.398 . S
C1200 C1201 1.391 1_556 S
C1201 H1189 0.950 . S
C1201 C1197 1.393 . S
C1201 C1200 1.391 1_554 S
C1202 H1192 0.950 . S
C1202 C1203 1.386 . S
C1202 C1204 1.391 . S
C1203 C1202 1.386 . S
C1203 C1207 1.393 . S
C1204 H1193 0.950 . S
C1204 C1202 1.391 . S
C1204 C1205 1.400 . S
C1205 C1199 1.491 . S
C1205 C1204 1.400 . S
C1205 C1206 1.398 . S
C1206 H1194 0.950 . S
C1206 C1205 1.398 . S
C1206 C1207 1.391 . S
C1207 H1195 0.950 . S
C1207 C1203 1.393 . S
C1207 C1206 1.391 . S
H1208 C1216 0.950 . S
H1209 C1221 0.950 . S
H1210 C1218 0.950 . S
H1211 C1220 0.950 . S
H1212 C1222 0.950 . S
H1213 C1224 0.950 . S
H1214 C1226 0.950 . S
H1215 C1227 0.950 . S
C1216 H1208 0.950 . S
C1216 C1217 1.386 . S
C1216 C1218 1.391 . S
C1217 C1216 1.386 . S
C1217 C1221 1.393 . S
C1218 H1210 0.950 . S
C1218 C1216 1.391 . S
C1218 C1219 1.400 . S
C1219 C1218 1.400 . S
C1219 C1220 1.398 . S
C1219 C1225 1.491 . S
C1220 H1211 0.950 . S
C1220 C1219 1.398 . S
C1220 C1221 1.391 . S
C1221 H1209 0.950 . S
C1221 C1217 1.393 . S
C1221 C1220 1.391 . S
C1222 H1212 0.950 . S
C1222 C1223 1.386 . S
C1222 C1224 1.391 . S
C1223 C1222 1.386 . S
C1223 C1227 1.393 . S
C1224 H1213 0.950 . S
C1224 C1222 1.391 . S
C1224 C1225 1.400 . S
C1225 C1219 1.491 . S
C1225 C1224 1.400 . S
C1225 C1226 1.398 . S
C1226 H1214 0.950 . S
C1226 C1225 1.398 . S
C1226 C1227 1.391 . S
C1227 H1215 0.950 . S
C1227 C1223 1.393 . S
C1227 C1226 1.391 . S
H1228 C1236 0.950 . S
H1229 C1241 0.950 . S
H1230 C1238 0.950 . S
H1231 C1240 0.950 . S
H1232 C1242 0.950 . S
H1233 C1244 0.950 . S
H1234 C1246 0.950 . S
H1235 C1247 0.950 . S
C1236 H1228 0.950 . S
C1236 C1237 1.386 . S
C1236 C1238 1.391 1_554 S
C1237 C1236 1.386 . S
C1237 C1241 1.393 . S
C1238 H1230 0.950 . S
C1238 C1236 1.391 1_556 S
C1238 C1239 1.400 . S
C1239 C1238 1.400 . S
C1239 C1240 1.398 . S
C1239 C1245 1.491 . S
C1240 H1231 0.950 . S
C1240 C1239 1.398 . S
C1240 C1241 1.391 1_556 S
C1241 H1229 0.950 . S
C1241 C1237 1.393 . S
C1241 C1240 1.391 1_554 S
C1242 H1232 0.950 . S
C1242 C1243 1.386 . S
C1242 C1244 1.391 . S
C1243 C1242 1.386 . S
C1243 C1247 1.393 . S
C1244 H1233 0.950 . S
C1244 C1242 1.391 . S
C1244 C1245 1.400 . S
C1245 C1239 1.491 . S
C1245 C1244 1.400 . S
C1245 C1246 1.398 . S
C1246 H1234 0.950 . S
C1246 C1245 1.398 . S
C1246 C1247 1.391 . S
C1247 H1235 0.950 . S
C1247 C1243 1.393 . S
C1247 C1246 1.391 . S
H1248 C1256 0.950 . S
H1249 C1261 0.950 . S
H1250 C1258 0.950 . S
H1251 C1260 0.950 . S
H1252 C1262 0.950 . S
H1253 C1264 0.950 . S
H1254 C1266 0.950 . S
H1255 C1267 0.950 . S
C1256 H1248 0.950 . S
C1256 C1257 1.386 . S
C1256 C1258 1.391 . S
C1257 C1256 1.386 . S
C1257 C1261 1.393 . S
C1258 H1250 0.950 . S
C1258 C1256 1.391 . S
C1258 C1259 1.400 . S
C1259 C1258 1.400 . S
C1259 C1260 1.398 . S
C1259 C1265 1.491 . S
C1260 H1251 0.950 . S
C1260 C1259 1.398 . S
C1260 C1261 1.391 . S
C1261 H1249 0.950 . S
C1261 C1257 1.393 . S
C1261 C1260 1.391 . S
C1262 H1252 0.950 . S
C1262 C1263 1.386 . S
C1262 C1264 1.391 1_556 S
C1263 C1262 1.386 . S
C1263 C1267 1.393 . S
C1264 H1253 0.950 . S
C1264 C1262 1.391 1_554 S
C1264 C1265 1.400 . S
C1265 C1259 1.491 . S
C1265 C1264 1.400 . S
C1265 C1266 1.398 . S
C1266 H1254 0.950 . S
C1266 C1265 1.398 . S
C1266 C1267 1.391 1_554 S
C1267 H1255 0.950 . S
C1267 C1263 1.393 . S
C1267 C1266 1.391 1_556 S
H1268 C1276 0.950 . S
H1269 C1281 0.950 . S
H1270 C1278 0.950 . S
H1271 C1280 0.950 . S
H1272 C1282 0.950 . S
H1273 C1284 0.950 . S
H1274 C1286 0.950 . S
H1275 C1287 0.950 . S
C1276 H1268 0.950 . S
C1276 C1277 1.386 . S
C1276 C1278 1.391 . S
C1277 C1276 1.386 . S
C1277 C1281 1.393 . S
C1278 H1270 0.950 . S
C1278 C1276 1.391 . S
C1278 C1279 1.400 . S
C1279 C1278 1.400 . S
C1279 C1280 1.398 . S
C1279 C1285 1.491 . S
C1280 H1271 0.950 . S
C1280 C1279 1.398 . S
C1280 C1281 1.391 . S
C1281 H1269 0.950 . S
C1281 C1277 1.393 . S
C1281 C1280 1.391 . S
C1282 H1272 0.950 . S
C1282 C1283 1.386 . S
C1282 C1284 1.391 . S
C1283 C1282 1.386 . S
C1283 C1287 1.393 . S
C1284 H1273 0.950 . S
C1284 C1282 1.391 . S
C1284 C1285 1.400 . S
C1285 C1279 1.491 . S
C1285 C1284 1.400 . S
C1285 C1286 1.398 . S
C1286 H1274 0.950 . S
C1286 C1285 1.398 . S
C1286 C1287 1.391 . S
C1287 H1275 0.950 . S
C1287 C1283 1.393 . S
C1287 C1286 1.391 . S
H1288 C1296 0.950 . S
H1289 C1301 0.950 . S
H1290 C1298 0.950 . S
H1291 C1300 0.950 . S
H1292 C1302 0.950 . S
H1293 C1304 0.950 . S
H1294 C1306 0.950 . S
H1295 C1307 0.950 . S
C1296 H1288 0.950 . S
C1296 C1297 1.386 . S
C1296 C1298 1.391 1_556 S
C1297 C1296 1.386 . S
C1297 C1301 1.393 . S
C1298 H1290 0.950 . S
C1298 C1296 1.391 1_554 S
C1298 C1299 1.400 . S
C1299 C1298 1.400 . S
C1299 C1300 1.398 . S
C1299 C1305 1.491 . S
C1300 H1291 0.950 . S
C1300 C1299 1.398 . S
C1300 C1301 1.391 1_554 S
C1301 H1289 0.950 . S
C1301 C1297 1.393 . S
C1301 C1300 1.391 1_556 S
C1302 H1292 0.950 . S
C1302 C1303 1.386 . S
C1302 C1304 1.391 . S
C1303 C1302 1.386 . S
C1303 C1307 1.393 . S
C1304 H1293 0.950 . S
C1304 C1302 1.391 . S
C1304 C1305 1.400 . S
C1305 C1299 1.491 . S
C1305 C1304 1.400 . S
C1305 C1306 1.398 . S
C1306 H1294 0.950 . S
C1306 C1305 1.398 . S
C1306 C1307 1.391 . S
C1307 H1295 0.950 . S
C1307 C1303 1.393 . S
C1307 C1306 1.391 . S
H1308 C1316 0.950 . S
H1309 C1321 0.950 . S
H1310 C1318 0.950 . S
H1311 C1320 0.950 . S
H1312 C1322 0.950 . S
H1313 C1324 0.950 . S
H1314 C1326 0.950 . S
H1315 C1327 0.950 . S
C1316 H1308 0.950 . S
C1316 C1317 1.386 . S
C1316 C1318 1.391 . S
C1317 C1316 1.386 . S
C1317 C1321 1.393 . S
C1318 H1310 0.950 . S
C1318 C1316 1.391 . S
C1318 C1319 1.400 . S
C1319 C1318 1.400 . S
C1319 C1320 1.398 . S
C1319 C1325 1.491 . S
C1320 H1311 0.950 . S
C1320 C1319 1.398 . S
C1320 C1321 1.391 . S
C1321 H1309 0.950 . S
C1321 C1317 1.393 . S
C1321 C1320 1.391 . S
C1322 H1312 0.950 . S
C1322 C1323 1.386 . S
C1322 C1324 1.391 . S
C1323 C1322 1.386 . S
C1323 C1327 1.393 . S
C1324 H1313 0.950 . S
C1324 C1322 1.391 . S
C1324 C1325 1.400 . S
C1325 C1319 1.491 . S
C1325 C1324 1.400 . S
C1325 C1326 1.398 . S
C1326 H1314 0.950 . S
C1326 C1325 1.398 . S
C1326 C1327 1.391 . S
C1327 H1315 0.950 . S
C1327 C1323 1.393 . S
C1327 C1326 1.391 . S
C537 C21 1.484 . S
C543 C516 1.485 . S
C557 C54 1.479 . S
C563 C417 1.489 . S
C577 C450 1.482 . S
C583 C87 1.487 . S
C597 C120 1.484 . S
C603 C483 1.484 . S
C617 C318 1.487 . S
C623 C153 1.481 . S
C637 C351 1.480 . S
C643 C186 1.488 . S
C657 C384 1.479 . S
C663 C219 1.489 . S
C677 C285 1.486 . S
C683 C252 1.483 . S
C697 C7 1.409 . S
C703 C238 1.395 . S
C717 C40 1.409 . S
C723 C139 1.397 . S
C737 C73 1.408 . S
C743 C172 1.392 . S
C757 C106 1.389 . S
C763 C205 1.406 . S
C777 C502 1.406 . S
C783 C271 1.403 . S
C797 C403 1.388 . S
C803 C304 1.403 . S
C817 C436 1.400 . S
C823 C337 1.388 . S
C837 C370 1.408 . S
C843 C469 1.398 . S
C857 C18 1.115 . S
C863 C150 1.114 . S
C877 C183 1.129 . S
C883 C51 1.129 . S
C897 C216 1.126 . S
C903 C84 1.125 . S
C917 C117 1.124 . S
C923 C249 1.124 . S
C937 C414 1.112 . S
C943 C282 1.112 . S
C957 C315 1.129 . S
C963 C447 1.129 . S
C977 C348 1.115 . S
C983 C480 1.114 . S
C997 C513 1.119 . S
C1003 C381 1.118 . S
C1017 N2 1.339 . S
C1023 N13 1.340 . S
C1037 N46 1.340 . S
C1043 N35 1.339 . S
C1057 N68 1.325 . S
C1063 N79 1.327 . S
C1077 N112 1.338 . S
C1083 N101 1.337 . S
C1097 N134 1.324 . S
C1103 N145 1.326 . S
C1117 N167 1.339 . S
C1123 N178 1.340 . S
C1137 N200 1.337 . S
C1143 N211 1.338 . S
C1157 N233 1.338 . S
C1163 N244 1.339 . S
C1177 N277 1.340 . S
C1183 N266 1.338 . S
C1197 N310 1.331 . S
C1203 N299 1.329 . S
C1217 N343 1.329 . S
C1223 N332 1.327 . S
C1237 N376 1.339 . S
C1243 N365 1.338 . S
C1257 N398 1.324 . S
C1263 N409 1.326 . S
C1277 N431 1.333 . S
C1283 N442 1.335 . S
C1297 N475 1.340 . S
C1303 N464 1.339 . S
C1317 N508 1.337 . S
C1323 N497 1.336 . S
