# Generated by pormake.
# Topology utg, (3)-cn, num edge types: 1
# Building blocks:
#     Node 0, Type 0, BuildingBlock: WUSLED_clean_sbu_0, # of connection points: 3
#     Node 1, Type 0, BuildingBlock: WUSLED_clean_sbu_0, # of connection points: 3
#     Node 2, Type 0, BuildingBlock: WUSLED_clean_sbu_0, # of connection points: 3
#     Node 3, Type 0, BuildingBlock: WUSLED_clean_sbu_0, # of connection points: 3
#     Node 4, Type 0, BuildingBlock: WUSLED_clean_sbu_0, # of connection points: 3
#     Node 5, Type 0, BuildingBlock: WUSLED_clean_sbu_0, # of connection points: 3
#     Node 6, Type 0, BuildingBlock: WUSLED_clean_sbu_0, # of connection points: 3
#     Node 7, Type 0, BuildingBlock: WUSLED_clean_sbu_0, # of connection points: 3
#     Node 8, Type 0, BuildingBlock: WUSLED_clean_sbu_0, # of connection points: 3
#     Node 9, Type 0, BuildingBlock: WUSLED_clean_sbu_0, # of connection points: 3
#     Node 10, Type 0, BuildingBlock: WUSLED_clean_sbu_0, # of connection points: 3
#     Node 11, Type 0, BuildingBlock: WUSLED_clean_sbu_0, # of connection points: 3
#     Node 12, Type 0, BuildingBlock: WUSLED_clean_sbu_0, # of connection points: 3
#     Node 13, Type 0, BuildingBlock: WUSLED_clean_sbu_0, # of connection points: 3
#     Node 14, Type 0, BuildingBlock: WUSLED_clean_sbu_0, # of connection points: 3
#     Node 15, Type 0, BuildingBlock: WUSLED_clean_sbu_0, # of connection points: 3
#     Edge 16, Type (0, 0), BuildingBlock: XUDNAN_clean_linker_2, # of connection points: 2
#     Edge 17, Type (0, 0), BuildingBlock: XUDNAN_clean_linker_2, # of connection points: 2
#     Edge 18, Type (0, 0), BuildingBlock: XUDNAN_clean_linker_2, # of connection points: 2
#     Edge 19, Type (0, 0), BuildingBlock: XUDNAN_clean_linker_2, # of connection points: 2
#     Edge 20, Type (0, 0), BuildingBlock: XUDNAN_clean_linker_2, # of connection points: 2
#     Edge 21, Type (0, 0), BuildingBlock: XUDNAN_clean_linker_2, # of connection points: 2
#     Edge 22, Type (0, 0), BuildingBlock: XUDNAN_clean_linker_2, # of connection points: 2
#     Edge 23, Type (0, 0), BuildingBlock: XUDNAN_clean_linker_2, # of connection points: 2
#     Edge 24, Type (0, 0), BuildingBlock: XUDNAN_clean_linker_2, # of connection points: 2
#     Edge 25, Type (0, 0), BuildingBlock: XUDNAN_clean_linker_2, # of connection points: 2
#     Edge 26, Type (0, 0), BuildingBlock: XUDNAN_clean_linker_2, # of connection points: 2
#     Edge 27, Type (0, 0), BuildingBlock: XUDNAN_clean_linker_2, # of connection points: 2
#     Edge 28, Type (0, 0), BuildingBlock: XUDNAN_clean_linker_2, # of connection points: 2
#     Edge 29, Type (0, 0), BuildingBlock: XUDNAN_clean_linker_2, # of connection points: 2
#     Edge 30, Type (0, 0), BuildingBlock: XUDNAN_clean_linker_2, # of connection points: 2
#     Edge 31, Type (0, 0), BuildingBlock: XUDNAN_clean_linker_2, # of connection points: 2
#     Edge 32, Type (0, 0), BuildingBlock: XUDNAN_clean_linker_2, # of connection points: 2
#     Edge 33, Type (0, 0), BuildingBlock: XUDNAN_clean_linker_2, # of connection points: 2
#     Edge 34, Type (0, 0), BuildingBlock: XUDNAN_clean_linker_2, # of connection points: 2
#     Edge 35, Type (0, 0), BuildingBlock: XUDNAN_clean_linker_2, # of connection points: 2
#     Edge 36, Type (0, 0), BuildingBlock: XUDNAN_clean_linker_2, # of connection points: 2
#     Edge 37, Type (0, 0), BuildingBlock: XUDNAN_clean_linker_2, # of connection points: 2
#     Edge 38, Type (0, 0), BuildingBlock: XUDNAN_clean_linker_2, # of connection points: 2
#     Edge 39, Type (0, 0), BuildingBlock: XUDNAN_clean_linker_2, # of connection points: 2
# Relax obj value: 0.018
# Max RMSD: 0.034
# Mean RMSD: 0.034
data_MOF--net-utg--node1-WUSLED_clean_sbu_0--edge1-XUDNAN_clean_linker_2
_symmetry_space_group_name_H-M    P1
_symmetry_Int_Tables_number       1
_symmetry_cell_setting            triclinic
loop_
_symmetry_equiv_pos_as_xyz
'x, y, z'
_cell_length_a     52.223471
_cell_length_b     52.452027
_cell_length_c     152.24927
_cell_angle_alpha  89.9436
_cell_angle_beta   89.913306
_cell_angle_gamma 89.929852
loop_
_atom_site_label
_atom_site_type_symbol
_atom_site_fract_x
_atom_site_fract_y
_atom_site_fract_z
_atom_type_partial_charge
C0 C 0.2448 0.16412 0.2274 0.0
C1 C 0.26354 0.18294 0.22625 0.0
C2 C 0.27016 0.18402 0.24205 0.0
C3 C 0.27628 0.19287 0.23357 0.0
C4 C 0.25077 0.16566 0.24307 0.0
C5 C 0.23839 0.15565 0.2358 0.0
U6 U 0.20464 0.14122 0.20623 0.0
O7 O 0.1922 0.10091 0.20598 0.0
O8 O 0.16476 0.13143 0.20947 0.0
C9 C 0.16927 0.10685 0.20894 0.0
C10 C 0.22971 0.15487 0.22008 0.0
C11 C 0.14769 0.08929 0.20779 0.0
C12 C 0.11425 0.06365 0.21463 0.0
C13 C 0.13661 0.07824 0.21527 0.0
C14 C 0.11549 0.06893 0.19887 0.0
C15 C 0.10256 0.05936 0.20642 0.0
C16 C 0.13726 0.08426 0.19957 0.0
C17 C 0.21721 0.17893 0.1833 0.0
C18 C 0.20561 0.18541 0.16811 0.0
C19 C 0.23543 0.21437 0.17509 0.0
C20 C 0.2332 0.20041 0.18292 0.0
C21 C 0.22156 0.20702 0.1676 0.0
C22 C 0.20363 0.17143 0.17586 0.0
C23 C 0.21284 0.16549 0.19159 0.0
O24 O 0.20826 0.16603 0.21779 0.0
O25 O 0.23827 0.13688 0.21483 0.0
O26 O 0.22463 0.14397 0.19347 0.0
O27 O 0.19576 0.17332 0.19733 0.0
H28 H 0.26818 0.18994 0.21974 0.0
H29 H 0.29113 0.20698 0.23261 0.0
H30 H 0.24513 0.15896 0.24952 0.0
H31 H 0.22348 0.14154 0.23675 0.0
H32 H 0.10592 0.05675 0.22067 0.0
H33 H 0.14476 0.08172 0.2217 0.0
H34 H 0.1092 0.06503 0.19227 0.0
H35 H 0.14585 0.09225 0.1937 0.0
H36 H 0.19419 0.17948 0.16254 0.0
H37 H 0.24806 0.23072 0.1749 0.0
H38 H 0.24371 0.20651 0.18867 0.0
H39 H 0.19096 0.15511 0.17611 0.0
C40 C 0.87169 0.74008 0.47758 0.0
C41 C 0.85204 0.75771 0.47583 0.0
C42 C 0.84961 0.76769 0.49144 0.0
C43 C 0.84098 0.77154 0.48279 0.0
C44 C 0.86893 0.74978 0.49307 0.0
C45 C 0.87985 0.73619 0.48621 0.0
U46 U 0.893 0.70156 0.45596 0.0
O47 O 0.93276 0.68782 0.45431 0.0
O48 O 0.90133 0.66058 0.45751 0.0
C49 C 0.92576 0.66418 0.45591 0.0
C50 C 0.88356 0.72377 0.47094 0.0
C51 C 0.94436 0.64342 0.45667 0.0
C52 C 0.97149 0.61528 0.46531 0.0
C53 C 0.95567 0.63686 0.46473 0.0
C54 C 0.965 0.60728 0.44978 0.0
C55 C 0.97606 0.60032 0.45782 0.0
C56 C 0.9492 0.62861 0.44923 0.0
C57 C 0.85451 0.71556 0.43341 0.0
C58 C 0.84753 0.70156 0.41838 0.0
C59 C 0.82016 0.73397 0.4248 0.0
C60 C 0.83392 0.73248 0.4326 0.0
C61 C 0.82669 0.71844 0.41767 0.0
C62 C 0.86146 0.70009 0.42626 0.0
C63 C 0.86654 0.71363 0.44207 0.0
O64 O 0.87116 0.7035 0.46826 0.0
O65 O 0.90021 0.73307 0.46529 0.0
O66 O 0.88899 0.72394 0.4437 0.0
O67 O 0.85914 0.69594 0.44762 0.0
H68 H 0.84538 0.76072 0.46917 0.0
H69 H 0.82621 0.78551 0.48142 0.0
H70 H 0.87582 0.74646 0.49969 0.0
H71 H 0.89475 0.72242 0.48767 0.0
H72 H 0.98022 0.61033 0.47153 0.0
H73 H 0.95197 0.64813 0.47056 0.0
H74 H 0.96843 0.59603 0.44393 0.0
H75 H 0.9404 0.63333 0.44299 0.0
H76 H 0.85305 0.68977 0.41286 0.0
H77 H 0.80432 0.74728 0.42434 0.0
H78 H 0.82824 0.74441 0.43808 0.0
H79 H 0.87731 0.68684 0.4268 0.0
C80 C 0.29396 0.36952 0.7278 0.0
C81 C 0.27534 0.35062 0.72643 0.0
C82 C 0.26887 0.34799 0.74226 0.0
C83 C 0.26265 0.33989 0.73371 0.0
C84 C 0.28824 0.36618 0.74343 0.0
C85 C 0.3003 0.37705 0.73628 0.0
U86 U 0.33136 0.39075 0.70597 0.0
O87 O 0.34549 0.4303 0.7047 0.0
O88 O 0.37265 0.39855 0.70756 0.0
C89 C 0.36899 0.42316 0.70663 0.0
C90 C 0.30941 0.38072 0.72086 0.0
C91 C 0.39024 0.44138 0.70692 0.0
C92 C 0.41876 0.46975 0.71499 0.0
C93 C 0.39699 0.45401 0.71474 0.0
C94 C 0.42701 0.45975 0.69971 0.0
C95 C 0.43391 0.47293 0.70742 0.0
C96 C 0.40537 0.44436 0.69946 0.0
C97 C 0.31677 0.35282 0.68352 0.0
C98 C 0.33106 0.3492 0.66846 0.0
C99 C 0.30251 0.31745 0.67452 0.0
C100 C 0.3022 0.33075 0.68244 0.0
C101 C 0.31747 0.3259 0.66735 0.0
C102 C 0.33092 0.36228 0.67648 0.0
C103 C 0.31778 0.36399 0.69232 0.0
O104 O 0.32979 0.36848 0.71812 0.0
O105 O 0.29987 0.39766 0.71539 0.0
O106 O 0.30846 0.38691 0.69384 0.0
O107 O 0.33604 0.35677 0.6977 0.0
H108 H 0.27068 0.34431 0.71986 0.0
H109 H 0.2478 0.32583 0.73266 0.0
H110 H 0.29402 0.37227 0.74992 0.0
H111 H 0.31506 0.3912 0.73741 0.0
H112 H 0.42352 0.47963 0.72102 0.0
H113 H 0.3856 0.45151 0.72063 0.0
H114 H 0.43854 0.46113 0.69381 0.0
H115 H 0.40071 0.43438 0.69344 0.0
H116 H 0.34231 0.35776 0.66333 0.0
H117 H 0.29124 0.3003 0.67431 0.0
H118 H 0.29101 0.32327 0.68786 0.0
H119 H 0.3422 0.37948 0.6772 0.0
C120 C 0.66639 0.79134 0.9771 0.0
C121 C 0.68578 0.773 0.97619 0.0
C122 C 0.68618 0.7665 0.99202 0.0
C123 C 0.69571 0.76066 0.98362 0.0
C124 C 0.66684 0.78502 0.99286 0.0
C125 C 0.65703 0.79732 0.98547 0.0
U126 U 0.64246 0.83054 0.95556 0.0
O127 O 0.60176 0.84247 0.95532 0.0
O128 O 0.63262 0.87056 0.95815 0.0
C129 C 0.60804 0.86602 0.95732 0.0
C130 C 0.65723 0.80585 0.9695 0.0
C131 C 0.58965 0.88703 0.95703 0.0
C132 C 0.56104 0.91422 0.96529 0.0
C133 C 0.57588 0.89226 0.96468 0.0
C134 C 0.5726 0.92557 0.95037 0.0
C135 C 0.56001 0.93172 0.95829 0.0
C136 C 0.5875 0.90335 0.94976 0.0
C137 C 0.67937 0.81752 0.9327 0.0
C138 C 0.69107 0.82522 0.91749 0.0
C139 C 0.71779 0.79855 0.9267 0.0
C140 C 0.70087 0.80198 0.93373 0.0
C141 C 0.71328 0.8102 0.91843 0.0
C142 C 0.6745 0.82897 0.92457 0.0
C143 C 0.66324 0.82494 0.94012 0.0
O144 O 0.66814 0.8272 0.96702 0.0
O145 O 0.63883 0.79729 0.96441 0.0
O146 O 0.64379 0.81083 0.94269 0.0
O147 O 0.67267 0.8402 0.94613 0.0
H148 H 0.69333 0.76841 0.96975 0.0
H149 H 0.71043 0.74629 0.98279 0.0
H150 H 0.6593 0.79001 0.99927 0.0
H151 H 0.64231 0.8117 0.9863 0.0
H152 H 0.55108 0.91791 0.9714 0.0
H153 H 0.5774 0.87982 0.97034 0.0
H154 H 0.57225 0.93862 0.94485 0.0
H155 H 0.59814 0.8995 0.94379 0.0
H156 H 0.6862 0.83418 0.91132 0.0
H157 H 0.73487 0.78751 0.92796 0.0
H158 H 0.70511 0.79335 0.94003 0.0
H159 H 0.65802 0.84132 0.92373 0.0
C160 C 0.24588 0.37023 0.05781 0.0
C161 C 0.26251 0.34936 0.05868 0.0
C162 C 0.26862 0.34846 0.04279 0.0
C163 C 0.27391 0.33852 0.0512 0.0
C164 C 0.25349 0.37065 0.04215 0.0
C165 C 0.24198 0.38116 0.04956 0.0
U166 U 0.20501 0.39176 0.07927 0.0
O167 O 0.19196 0.43185 0.07987 0.0
O168 O 0.16432 0.40062 0.07696 0.0
C169 C 0.16831 0.42511 0.07808 0.0
C170 C 0.23033 0.37946 0.06516 0.0
C171 C 0.14724 0.44347 0.07788 0.0
C172 C 0.12132 0.4728 0.06943 0.0
C173 C 0.14304 0.45751 0.07022 0.0
C174 C 0.10811 0.46076 0.08412 0.0
C175 C 0.10293 0.47386 0.07622 0.0
C176 C 0.13013 0.44566 0.08493 0.0
C177 C 0.21941 0.35564 0.10223 0.0
C178 C 0.20917 0.34418 0.11729 0.0
C179 C 0.23976 0.31913 0.10894 0.0
C180 C 0.23663 0.33528 0.10173 0.0
C181 C 0.2253 0.32285 0.11667 0.0
C182 C 0.20627 0.36047 0.11009 0.0
C183 C 0.21248 0.37031 0.09444 0.0
O184 O 0.20943 0.36742 0.06758 0.0
O185 O 0.23828 0.39755 0.07046 0.0
O186 O 0.22538 0.39064 0.092 0.0
O187 O 0.19712 0.36052 0.08851 0.0
H188 H 0.26576 0.3408 0.06506 0.0
H189 H 0.28559 0.3216 0.05196 0.0
H190 H 0.24979 0.37958 0.03587 0.0
H191 H 0.22929 0.39738 0.04879 0.0
H192 H 0.11873 0.48329 0.06338 0.0
H193 H 0.1562 0.45607 0.06473 0.0
H194 H 0.09456 0.46092 0.0895 0.0
H195 H 0.13325 0.43491 0.09092 0.0
H196 H 0.19767 0.34741 0.12311 0.0
H197 H 0.25266 0.30304 0.10835 0.0
H198 H 0.24688 0.33132 0.09569 0.0
H199 H 0.19276 0.37613 0.11051 0.0
C200 C 0.66335 0.74277 0.30732 0.0
C201 C 0.68271 0.76048 0.30918 0.0
C202 C 0.68793 0.76863 0.29351 0.0
C203 C 0.69499 0.77339 0.30227 0.0
C204 C 0.66797 0.75163 0.29174 0.0
C205 C 0.65577 0.73885 0.29859 0.0
U206 U 0.64239 0.702 0.3287 0.0
O207 O 0.60255 0.68851 0.33 0.0
O208 O 0.63387 0.6613 0.3266 0.0
C209 C 0.60952 0.66491 0.32834 0.0
C210 C 0.65212 0.726 0.31402 0.0
C211 C 0.5909 0.64428 0.3277 0.0
C212 C 0.56384 0.61722 0.31887 0.0
C213 C 0.5795 0.63861 0.31967 0.0
C214 C 0.56981 0.60782 0.3343 0.0
C215 C 0.55861 0.60119 0.32616 0.0
C216 C 0.58602 0.6289 0.335 0.0
C217 C 0.68089 0.71506 0.35138 0.0
C218 C 0.69108 0.70627 0.36668 0.0
C219 C 0.71866 0.73348 0.35796 0.0
C220 C 0.70258 0.73043 0.35073 0.0
C221 C 0.7132 0.72151 0.36607 0.0
C222 C 0.67512 0.70302 0.35938 0.0
C223 C 0.66579 0.70925 0.34355 0.0
O224 O 0.66478 0.7056 0.31652 0.0
O225 O 0.63554 0.73475 0.3198 0.0
O226 O 0.64501 0.72211 0.34146 0.0
O227 O 0.67502 0.69426 0.33741 0.0
H228 H 0.68893 0.76356 0.31587 0.0
H229 H 0.71066 0.78622 0.30372 0.0
H230 H 0.6626 0.7474 0.28502 0.0
H231 H 0.64102 0.72505 0.29705 0.0
H232 H 0.55688 0.61319 0.31236 0.0
H233 H 0.58342 0.65022 0.31393 0.0
H234 H 0.5664 0.59697 0.3402 0.0
H235 H 0.59495 0.63307 0.34126 0.0
H236 H 0.68596 0.69692 0.37277 0.0
H237 H 0.73582 0.74469 0.35704 0.0
H238 H 0.7075 0.73948 0.34456 0.0
H239 H 0.65852 0.69075 0.35993 0.0
C240 C 0.28973 0.16208 0.55761 0.0
C241 C 0.27378 0.18343 0.5584 0.0
C242 C 0.26764 0.18369 0.54256 0.0
C243 C 0.26271 0.19424 0.5509 0.0
C244 C 0.28211 0.16103 0.54202 0.0
C245 C 0.29343 0.15064 0.54944 0.0
U246 U 0.33084 0.14034 0.57877 0.0
O247 O 0.34415 0.1002 0.57892 0.0
O248 O 0.3709 0.13145 0.5756 0.0
C249 C 0.36697 0.10675 0.57602 0.0
C250 C 0.30504 0.1532 0.56495 0.0
C251 C 0.38903 0.08975 0.57712 0.0
C252 C 0.41985 0.06075 0.57038 0.0
C253 C 0.39745 0.07543 0.56989 0.0
C254 C 0.4258 0.0753 0.58531 0.0
C255 C 0.4346 0.06039 0.57811 0.0
C256 C 0.40316 0.08939 0.58486 0.0
C257 C 0.31692 0.17641 0.60194 0.0
C258 C 0.32948 0.18443 0.61702 0.0
C259 C 0.29907 0.21246 0.60983 0.0
C260 C 0.30051 0.19757 0.60224 0.0
C261 C 0.31399 0.20629 0.61719 0.0
C262 C 0.33088 0.1695 0.60942 0.0
C263 C 0.32179 0.16354 0.59356 0.0
O264 O 0.32603 0.16514 0.56726 0.0
O265 O 0.29726 0.13482 0.57018 0.0
O266 O 0.31061 0.1419 0.59151 0.0
O267 O 0.3386 0.17224 0.58786 0.0
H268 H 0.27088 0.19238 0.56474 0.0
H269 H 0.2516 0.21154 0.5516 0.0
H270 H 0.2854 0.15159 0.5358 0.0
H271 H 0.30574 0.13409 0.54877 0.0
H272 H 0.42538 0.04985 0.56466 0.0
H273 H 0.38683 0.07588 0.56378 0.0
H274 H 0.43665 0.07727 0.59129 0.0
H275 H 0.39723 0.10076 0.59045 0.0
H276 H 0.34164 0.17982 0.62256 0.0
H277 H 0.28749 0.22963 0.60979 0.0
H278 H 0.28983 0.20329 0.59647 0.0
H279 H 0.34389 0.1534 0.60924 0.0
C280 C 0.87292 0.78725 0.80733 0.0
C281 C 0.85366 0.76905 0.80864 0.0
C282 C 0.84958 0.76439 0.79284 0.0
C283 C 0.8421 0.75744 0.80138 0.0
C284 C 0.86987 0.78157 0.79165 0.0
C285 C 0.88141 0.79297 0.79885 0.0
U286 U 0.89403 0.82944 0.82827 0.0
O287 O 0.93428 0.84268 0.82856 0.0
O288 O 0.90312 0.86904 0.82479 0.0
C289 C 0.92789 0.8652 0.82544 0.0
C290 C 0.88194 0.80323 0.81447 0.0
C291 C 0.94466 0.88728 0.8267 0.0
C292 C 0.97384 0.91816 0.82013 0.0
C293 C 0.95918 0.8959 0.81953 0.0
C294 C 0.95893 0.92364 0.83507 0.0
C295 C 0.97399 0.93259 0.82792 0.0
C296 C 0.94478 0.90111 0.8345 0.0
C297 C 0.85597 0.81814 0.85126 0.0
C298 C 0.84816 0.83017 0.8664 0.0
C299 C 0.82044 0.79946 0.85927 0.0
C300 C 0.83488 0.80164 0.85157 0.0
C301 C 0.82682 0.814 0.86668 0.0
C302 C 0.8627 0.83222 0.85872 0.0
C303 C 0.86966 0.82219 0.84297 0.0
O304 O 0.86988 0.8243 0.81659 0.0
O305 O 0.89964 0.79538 0.81998 0.0
O306 O 0.89138 0.8105 0.84121 0.0
O307 O 0.86142 0.83834 0.83701 0.0
H308 H 0.84681 0.76476 0.81519 0.0
H309 H 0.82638 0.74432 0.80241 0.0
H310 H 0.87606 0.78703 0.78512 0.0
H311 H 0.89613 0.8072 0.79778 0.0
H312 H 0.98497 0.92382 0.81446 0.0
H313 H 0.95894 0.8855 0.81338 0.0
H314 H 0.95699 0.93429 0.84109 0.0
H315 H 0.93326 0.89501 0.84004 0.0
H316 H 0.85358 0.8411 0.87214 0.0
H317 H 0.80429 0.78652 0.85946 0.0
H318 H 0.82945 0.79068 0.84584 0.0
H319 H 0.87891 0.84508 0.85855 0.0
C320 C 0.74486 0.65972 0.7279 0.0
C321 C 0.76185 0.67937 0.72572 0.0
C322 C 0.77062 0.68582 0.74129 0.0
C323 C 0.77485 0.69228 0.73241 0.0
C324 C 0.75428 0.66549 0.74333 0.0
C325 C 0.74159 0.65256 0.73668 0.0
U326 U 0.7055 0.6407 0.70645 0.0
O327 O 0.69169 0.60129 0.70467 0.0
O328 O 0.66434 0.63219 0.70827 0.0
C329 C 0.66832 0.60772 0.70703 0.0
C330 C 0.72782 0.64776 0.72157 0.0
C331 C 0.6473 0.58917 0.70699 0.0
C332 C 0.6142 0.56482 0.7146 0.0
C333 C 0.63655 0.57978 0.71483 0.0
C334 C 0.61541 0.56629 0.69873 0.0
C335 C 0.60248 0.55885 0.70651 0.0
C336 C 0.63695 0.58184 0.69898 0.0
C337 C 0.71981 0.67946 0.68392 0.0
C338 C 0.70661 0.68216 0.66866 0.0
C339 C 0.73479 0.71422 0.67462 0.0
C340 C 0.73455 0.70143 0.68268 0.0
C341 C 0.72043 0.70528 0.6674 0.0
C342 C 0.70605 0.66966 0.67683 0.0
C343 C 0.71903 0.66824 0.69282 0.0
O344 O 0.70775 0.66085 0.71901 0.0
O345 O 0.73707 0.63202 0.71564 0.0
O346 O 0.72831 0.64528 0.69428 0.0
O347 O 0.70102 0.67532 0.69834 0.0
H348 H 0.76442 0.68516 0.71894 0.0
H349 H 0.78762 0.70774 0.73066 0.0
H350 H 0.7503 0.66032 0.75009 0.0
H351 H 0.72826 0.63757 0.73845 0.0
H352 H 0.60557 0.55922 0.72077 0.0
H353 H 0.64475 0.58492 0.72111 0.0
H354 H 0.60885 0.56063 0.6923 0.0
H355 H 0.64532 0.58847 0.69288 0.0
H356 H 0.69595 0.67322 0.66346 0.0
H357 H 0.74589 0.7315 0.67432 0.0
H358 H 0.74554 0.7092 0.68809 0.0
H359 H 0.69475 0.6525 0.6776 0.0
C360 C 0.37533 0.23958 0.97777 0.0
C361 C 0.35787 0.25868 0.97535 0.0
C362 C 0.34884 0.26742 0.99093 0.0
C363 C 0.34502 0.27274 0.98188 0.0
C364 C 0.36695 0.24865 0.99316 0.0
C365 C 0.3801 0.2352 0.98668 0.0
U366 U 0.3935 0.20272 0.95572 0.0
O367 O 0.43241 0.18838 0.95268 0.0
O368 O 0.401 0.16138 0.95557 0.0
C369 C 0.42508 0.16446 0.95332 0.0
C370 C 0.38817 0.22238 0.97149 0.0
C371 C 0.44378 0.14419 0.95536 0.0
C372 C 0.47063 0.1186 0.96504 0.0
C373 C 0.45438 0.13975 0.96369 0.0
C374 C 0.46663 0.10738 0.94972 0.0
C375 C 0.47685 0.10162 0.95806 0.0
C376 C 0.45021 0.12794 0.94847 0.0
C377 C 0.35462 0.21975 0.93366 0.0
C378 C 0.35095 0.20378 0.9187 0.0
C379 C 0.32053 0.23496 0.92405 0.0
C380 C 0.33333 0.23543 0.9321 0.0
C381 C 0.32871 0.21868 0.9173 0.0
C382 C 0.36379 0.20421 0.92683 0.0
C383 C 0.36502 0.21961 0.94271 0.0
O384 O 0.37511 0.20261 0.96871 0.0
O385 O 0.40386 0.23192 0.96558 0.0
O386 O 0.38829 0.22809 0.94422 0.0
O387 O 0.3578 0.20131 0.94806 0.0
H388 H 0.35398 0.26249 0.96849 0.0
H389 H 0.33197 0.28757 0.97978 0.0
H390 H 0.37043 0.24332 0.99991 0.0
H391 H 0.3935 0.22051 0.98867 0.0
H392 H 0.47743 0.11552 0.97165 0.0
H393 H 0.44966 0.15213 0.96915 0.0
H394 H 0.47103 0.09633 0.94395 0.0
H395 H 0.44232 0.13113 0.94197 0.0
H396 H 0.358 0.19125 0.91359 0.0
H397 H 0.30343 0.24644 0.9233 0.0
H398 H 0.32596 0.24755 0.93729 0.0
H399 H 0.38027 0.19201 0.92785 0.0
C400 C 0.79154 0.87137 0.22766 0.0
C401 C 0.77426 0.85155 0.22593 0.0
C402 C 0.76649 0.84701 0.24163 0.0
C403 C 0.76176 0.83936 0.23293 0.0
C404 C 0.78303 0.8674 0.24326 0.0
C405 C 0.79546 0.87947 0.23632 0.0
U406 U 0.8311 0.89127 0.20602 0.0
O407 O 0.84543 0.93081 0.20487 0.0
O408 O 0.87224 0.89897 0.20793 0.0
C409 C 0.8687 0.92362 0.20707 0.0
C410 C 0.80817 0.88244 0.22094 0.0
C411 C 0.89025 0.94146 0.20714 0.0
C412 C 0.91887 0.97018 0.21501 0.0
C413 C 0.89709 0.95449 0.21486 0.0
C414 C 0.92704 0.95929 0.19979 0.0
C415 C 0.93398 0.97293 0.20742 0.0
C416 C 0.90534 0.94395 0.19964 0.0
C417 C 0.81609 0.85431 0.18311 0.0
C418 C 0.83063 0.84771 0.16809 0.0
C419 C 0.79874 0.81957 0.17438 0.0
C420 C 0.79945 0.83352 0.18219 0.0
C421 C 0.8147 0.8262 0.16733 0.0
C422 C 0.83129 0.86179 0.17595 0.0
C423 C 0.81851 0.86585 0.1919 0.0
O424 O 0.82809 0.86932 0.21825 0.0
O425 O 0.79926 0.89906 0.21524 0.0
O426 O 0.80884 0.88845 0.19368 0.0
O427 O 0.83614 0.85783 0.1974 0.0
H428 H 0.77125 0.84494 0.21927 0.0
H429 H 0.74923 0.82338 0.23161 0.0
H430 H 0.78724 0.8732 0.24993 0.0
H431 H 0.80902 0.89453 0.23775 0.0
H432 H 0.92363 0.98037 0.22097 0.0
H433 H 0.8857 0.95238 0.22077 0.0
H434 H 0.93857 0.96024 0.19389 0.0
H435 H 0.90058 0.93367 0.1937 0.0
H436 H 0.8435 0.85278 0.16279 0.0
H437 H 0.78684 0.8027 0.17402 0.0
H438 H 0.78775 0.82734 0.18767 0.0
H439 H 0.84439 0.87768 0.17655 0.0
C440 C 0.1623 0.29087 0.4774 0.0
C441 C 0.17923 0.27128 0.4752 0.0
C442 C 0.18784 0.26399 0.49083 0.0
C443 C 0.1915 0.25759 0.48187 0.0
C444 C 0.17008 0.2833 0.49287 0.0
C445 C 0.15729 0.29633 0.48622 0.0
U446 U 0.14093 0.33074 0.45607 0.0
O447 O 0.10057 0.34306 0.45499 0.0
O448 O 0.13089 0.37086 0.45859 0.0
C449 C 0.10636 0.36621 0.45763 0.0
C450 C 0.15055 0.30736 0.47082 0.0
C451 C 0.0879 0.38711 0.45711 0.0
C452 C 0.06226 0.41871 0.46485 0.0
C453 C 0.07643 0.39603 0.46488 0.0
C454 C 0.0693 0.42238 0.44916 0.0
C455 C 0.05952 0.43268 0.45704 0.0
C456 C 0.0837 0.39996 0.44921 0.0
C457 C 0.18084 0.31795 0.43346 0.0
C458 C 0.19117 0.32773 0.41821 0.0
C459 C 0.21736 0.29794 0.42641 0.0
C460 C 0.20176 0.3013 0.4338 0.0
C461 C 0.21235 0.31116 0.41852 0.0
C462 C 0.17552 0.33102 0.42562 0.0
C463 C 0.16566 0.32337 0.44139 0.0
O464 O 0.16289 0.3279 0.46832 0.0
O465 O 0.1348 0.2979 0.46493 0.0
O466 O 0.14472 0.31061 0.44334 0.0
O467 O 0.17391 0.33915 0.44745 0.0
H468 H 0.18312 0.26676 0.46839 0.0
H469 H 0.20396 0.24215 0.4799 0.0
H470 H 0.16663 0.28934 0.49955 0.0
H471 H 0.14414 0.3115 0.48799 0.0
H472 H 0.05507 0.42615 0.47102 0.0
H473 H 0.07962 0.3862 0.47104 0.0
H474 H 0.06708 0.43252 0.44301 0.0
H475 H 0.09243 0.39329 0.44318 0.0
H476 H 0.18658 0.33799 0.41224 0.0
H477 H 0.23373 0.28535 0.42696 0.0
H478 H 0.20631 0.29125 0.43982 0.0
H479 H 0.15948 0.3441 0.42527 0.0
C480 C 0.74286 0.86918 0.55679 0.0
C481 C 0.76206 0.8513 0.55863 0.0
C482 C 0.77002 0.84674 0.54295 0.0
C483 C 0.77579 0.84026 0.5517 0.0
C484 C 0.75068 0.86449 0.54119 0.0
C485 C 0.73731 0.87574 0.54808 0.0
U486 U 0.7047 0.8912 0.57847 0.0
O487 O 0.69124 0.93121 0.5792 0.0
O488 O 0.66396 0.89974 0.57637 0.0
C489 C 0.66797 0.92438 0.5769 0.0
C490 C 0.72699 0.88058 0.56362 0.0
C491 C 0.64639 0.94209 0.57721 0.0
C492 C 0.61767 0.97145 0.56966 0.0
C493 C 0.63946 0.95582 0.56964 0.0
C494 C 0.60951 0.95898 0.58474 0.0
C495 C 0.60255 0.97345 0.57727 0.0
C496 C 0.63132 0.94371 0.58473 0.0
C497 C 0.72028 0.8545 0.60147 0.0
C498 C 0.70805 0.84625 0.61663 0.0
C499 C 0.73886 0.81877 0.6094 0.0
C500 C 0.73704 0.83361 0.60179 0.0
C501 C 0.72399 0.82464 0.61681 0.0
C502 C 0.70624 0.86115 0.609 0.0
C503 C 0.71557 0.86708 0.59299 0.0
O504 O 0.7069 0.86809 0.56649 0.0
O505 O 0.73659 0.89727 0.56915 0.0
O506 O 0.72658 0.8888 0.59088 0.0
O507 O 0.69828 0.85865 0.58745 0.0
H508 H 0.76635 0.84595 0.56534 0.0
H509 H 0.79086 0.82668 0.55314 0.0
H510 H 0.74629 0.87002 0.5345 0.0
H511 H 0.72242 0.88951 0.5466 0.0
H512 H 0.61293 0.98217 0.5638 0.0
H513 H 0.65081 0.95427 0.5637 0.0
H514 H 0.59791 0.9591 0.59064 0.0
H515 H 0.63612 0.93279 0.59055 0.0
H516 H 0.69592 0.85068 0.62221 0.0
H517 H 0.75073 0.80182 0.60933 0.0
H518 H 0.74779 0.82804 0.59601 0.0
H519 H 0.69298 0.87704 0.60883 0.0
C520 C 0.16396 0.23985 0.80679 0.0
C521 C 0.18263 0.2577 0.80916 0.0
C522 C 0.18924 0.26765 0.79366 0.0
C523 C 0.19517 0.27165 0.80259 0.0
C524 C 0.17054 0.24971 0.79141 0.0
C525 C 0.158 0.236 0.79794 0.0
U526 U 0.14302 0.20245 0.82842 0.0
O527 O 0.10338 0.1883 0.82988 0.0
O528 O 0.1353 0.16126 0.8271 0.0
C529 C 0.11052 0.16498 0.82784 0.0
C530 C 0.1512 0.22327 0.8131 0.0
C531 C 0.09242 0.14367 0.82777 0.0
C532 C 0.06294 0.11559 0.81996 0.0
C533 C 0.07875 0.13728 0.82013 0.0
C534 C 0.07532 0.10649 0.83497 0.0
C535 C 0.06075 0.10006 0.82747 0.0
C536 C 0.09056 0.12818 0.83517 0.0
C537 C 0.18099 0.21874 0.85098 0.0
C538 C 0.18751 0.20331 0.86587 0.0
C539 C 0.21563 0.23576 0.85996 0.0
C540 C 0.20168 0.23549 0.85212 0.0
C541 C 0.20922 0.21911 0.86683 0.0
C542 C 0.17352 0.20305 0.85799 0.0
C543 C 0.16964 0.21692 0.84213 0.0
O544 O 0.16411 0.20355 0.81601 0.0
O545 O 0.13495 0.23299 0.8188 0.0
O546 O 0.14665 0.22602 0.84046 0.0
O547 O 0.17719 0.19872 0.83679 0.0
H548 H 0.1876 0.26062 0.81599 0.0
H549 H 0.20966 0.28535 0.80448 0.0
H550 H 0.16526 0.24656 0.78462 0.0
H551 H 0.14369 0.2221 0.79604 0.0
H552 H 0.05231 0.11123 0.81405 0.0
H553 H 0.08054 0.14891 0.81428 0.0
H554 H 0.07536 0.09451 0.84076 0.0
H555 H 0.10147 0.13245 0.84103 0.0
H556 H 0.18203 0.19038 0.87109 0.0
H557 H 0.23234 0.24789 0.86043 0.0
H558 H 0.20778 0.24769 0.84676 0.0
H559 H 0.15761 0.19 0.85727 0.0
C560 C 0.79614 0.66074 0.05649 0.0
C561 C 0.77745 0.67863 0.05902 0.0
C562 C 0.76709 0.68645 0.04357 0.0
C563 C 0.76284 0.69126 0.05258 0.0
C564 C 0.78582 0.66866 0.04115 0.0
C565 C 0.80002 0.6559 0.04753 0.0
U566 U 0.83166 0.64134 0.07861 0.0
O567 O 0.84545 0.60248 0.08182 0.0
O568 O 0.87305 0.63346 0.0792 0.0
C569 C 0.86959 0.60952 0.08143 0.0
C570 C 0.81302 0.64709 0.06269 0.0
C571 C 0.8898 0.59077 0.07931 0.0
C572 C 0.91409 0.56263 0.06966 0.0
C573 C 0.89317 0.57918 0.07109 0.0
C574 C 0.92796 0.56929 0.08461 0.0
C575 C 0.93241 0.55767 0.07638 0.0
C576 C 0.90711 0.5853 0.08601 0.0
C577 C 0.81475 0.68091 0.10043 0.0
C578 C 0.82925 0.6833 0.11561 0.0
C579 C 0.80229 0.71661 0.10969 0.0
C580 C 0.80116 0.70357 0.10173 0.0
C581 C 0.81671 0.70715 0.1168 0.0
C582 C 0.82863 0.67053 0.10746 0.0
C583 C 0.81452 0.67033 0.09142 0.0
O584 O 0.83309 0.65948 0.0656 0.0
O585 O 0.80284 0.63156 0.06851 0.0
O586 O 0.80579 0.64719 0.08999 0.0
O587 O 0.83302 0.67717 0.08607 0.0
H588 H 0.77422 0.68278 0.0659 0.0
H589 H 0.74836 0.70487 0.0546 0.0
H590 H 0.78917 0.66424 0.03429 0.0
H591 H 0.81432 0.64218 0.04545 0.0
H592 H 0.91557 0.55422 0.06323 0.0
H593 H 0.8799 0.58307 0.06579 0.0
H594 H 0.94063 0.56704 0.09011 0.0
H595 H 0.90485 0.59406 0.09241 0.0
H596 H 0.83979 0.67436 0.12088 0.0
H597 H 0.79253 0.73473 0.11 0.0
H598 H 0.79026 0.71187 0.09639 0.0
H599 H 0.83914 0.65287 0.10665 0.0
C600 C 0.37356 0.29373 0.30675 0.0
C601 C 0.35532 0.27519 0.30902 0.0
C602 C 0.34955 0.26492 0.29345 0.0
C603 C 0.34343 0.26079 0.30239 0.0
C604 C 0.36772 0.28354 0.29131 0.0
C605 C 0.37956 0.29768 0.29789 0.0
U606 U 0.39364 0.33051 0.3287 0.0
O607 O 0.43317 0.34364 0.33137 0.0
O608 O 0.40236 0.37151 0.32849 0.0
C609 C 0.42635 0.36772 0.33071 0.0
C610 C 0.38653 0.31038 0.31312 0.0
C611 C 0.44532 0.3878 0.32901 0.0
C612 C 0.47252 0.41346 0.31955 0.0
C613 C 0.45703 0.39186 0.32083 0.0
C614 C 0.46505 0.42636 0.33461 0.0
C615 C 0.47602 0.43143 0.32637 0.0
C616 C 0.45 0.40479 0.33589 0.0
C617 C 0.35375 0.31523 0.35084 0.0
C618 C 0.34685 0.32963 0.3659 0.0
C619 C 0.31994 0.29669 0.35968 0.0
C620 C 0.33346 0.29814 0.35184 0.0
C621 C 0.3264 0.31231 0.3668 0.0
C622 C 0.36058 0.3311 0.35792 0.0
C623 C 0.36538 0.31632 0.34204 0.0
O624 O 0.37414 0.33058 0.31592 0.0
O625 O 0.40223 0.30043 0.31895 0.0
O626 O 0.38804 0.30628 0.34048 0.0
O627 O 0.3586 0.33457 0.33661 0.0
H628 H 0.35027 0.27195 0.31583 0.0
H629 H 0.32936 0.24658 0.30423 0.0
H630 H 0.37323 0.28689 0.28455 0.0
H631 H 0.39357 0.31193 0.29602 0.0
H632 H 0.4811 0.41647 0.31315 0.0
H633 H 0.45368 0.37888 0.31543 0.0
H634 H 0.46684 0.43974 0.33998 0.0
H635 H 0.441 0.40196 0.34224 0.0
H636 H 0.35232 0.34169 0.37136 0.0
H637 H 0.30424 0.28328 0.36018 0.0
H638 H 0.32776 0.28594 0.34644 0.0
H639 H 0.37618 0.34456 0.35726 0.0
H640 H 0.33185 0.2804 0.27713 0.0
H641 H 0.34235 0.21359 0.29365 0.0
H642 H 0.32476 0.18657 0.28194 0.0
H643 H 0.27267 0.26188 0.26723 0.0
H644 H 0.28039 0.27362 0.25642 0.0
H645 H 0.29447 0.28826 0.26595 0.0
H646 H 0.33978 0.28013 0.25955 0.0
H647 H 0.32556 0.26559 0.25001 0.0
H648 H 0.34882 0.24825 0.2564 0.0
H649 H 0.3072 0.16663 0.26901 0.0
H650 H 0.28733 0.15383 0.25516 0.0
H651 H 0.28592 0.2329 0.24657 0.0
C652 C 0.33048 0.26006 0.27826 0.0
C653 C 0.33819 0.24909 0.28638 0.0
C654 C 0.33608 0.22246 0.2876 0.0
C655 C 0.32635 0.20693 0.28095 0.0
C656 C 0.31887 0.21827 0.27311 0.0
C657 C 0.32073 0.24417 0.27166 0.0
C658 C 0.3109 0.2511 0.26254 0.0
C659 C 0.28825 0.26982 0.26307 0.0
C660 C 0.33256 0.26191 0.25679 0.0
C661 C 0.30256 0.22502 0.25929 0.0
C662 C 0.30788 0.2065 0.26549 0.0
C663 C 0.30265 0.1809 0.26411 0.0
C664 C 0.29121 0.17387 0.25624 0.0
C665 C 0.28454 0.1924 0.24988 0.0
C666 C 0.29074 0.21834 0.25134 0.0
H667 H 0.75393 0.81791 0.52895 0.0
H668 H 0.82055 0.85389 0.54052 0.0
H669 H 0.84713 0.83899 0.52813 0.0
H670 H 0.78653 0.76183 0.52099 0.0
H671 H 0.76851 0.75974 0.51093 0.0
H672 H 0.7542 0.77383 0.52054 0.0
H673 H 0.74462 0.81506 0.51176 0.0
H674 H 0.75882 0.80095 0.50212 0.0
H675 H 0.77036 0.83114 0.50613 0.0
H676 H 0.86648 0.82044 0.51506 0.0
H677 H 0.8789 0.79754 0.50161 0.0
H678 H 0.80051 0.77222 0.49812 0.0
C679 C 0.77416 0.82246 0.52883 0.0
C680 C 0.7855 0.83672 0.53567 0.0
C681 C 0.81183 0.84262 0.53537 0.0
C682 C 0.82695 0.83439 0.52836 0.0
C683 C 0.81539 0.82017 0.52175 0.0
C684 C 0.78967 0.81409 0.52189 0.0
C685 C 0.78245 0.79812 0.51395 0.0
C686 C 0.77234 0.77181 0.51677 0.0
C687 C 0.7629 0.81216 0.50815 0.0
C688 C 0.80828 0.79609 0.5094 0.0
C689 C 0.82682 0.80917 0.51404 0.0
C690 C 0.85221 0.81018 0.51133 0.0
C691 C 0.85905 0.79722 0.50369 0.0
C692 C 0.84061 0.78344 0.49884 0.0
C693 C 0.81481 0.78302 0.50167 0.0
H694 H 0.25421 0.2988 0.74693 0.0
H695 H 0.25159 0.37795 0.75536 0.0
H696 H 0.23299 0.36499 0.7694 0.0
H697 H 0.19361 0.28018 0.7567 0.0
H698 H 0.20448 0.24921 0.76024 0.0
H699 H 0.21862 0.26399 0.75072 0.0
H700 H 0.2636 0.25954 0.75767 0.0
H701 H 0.24952 0.24463 0.76719 0.0
H702 H 0.26935 0.27248 0.76845 0.0
H703 H 0.21584 0.34534 0.78232 0.0
H704 H 0.19716 0.31864 0.79393 0.0
H705 H 0.20817 0.25149 0.77763 0.0
C706 C 0.24928 0.31331 0.7517 0.0
C707 C 0.25469 0.33936 0.75011 0.0
C708 C 0.24815 0.35785 0.75651 0.0
C709 C 0.23751 0.35074 0.7645 0.0
C710 C 0.23291 0.32508 0.76596 0.0
C711 C 0.23823 0.30653 0.75978 0.0
C712 C 0.23098 0.28032 0.76325 0.0
C713 C 0.2107 0.26769 0.75738 0.0
C714 C 0.25478 0.26324 0.76419 0.0
C715 C 0.22016 0.28752 0.7722 0.0
C716 C 0.22203 0.31342 0.7736 0.0
C717 C 0.21417 0.32497 0.78137 0.0
C718 C 0.2038 0.30966 0.78794 0.0
C719 C 0.20138 0.28309 0.7867 0.0
C720 C 0.20966 0.27184 0.77872 0.0
H721 H 0.73577 0.75805 0.99795 0.0
H722 H 0.65583 0.74355 1.00397 0.0
H723 H 0.66829 0.72255 0.01776 0.0
H724 H 0.76228 0.69969 1.00664 0.0
H725 H 0.78999 0.71446 1.01151 0.0
H726 H 0.77525 0.72853 1.00197 0.0
H727 H 0.76997 0.77118 1.01031 0.0
H728 H 0.78479 0.75718 0.01985 0.0
H729 H 0.75354 0.77155 0.02073 0.0
H730 H 0.68805 0.70443 0.03088 0.0
H731 H 0.71521 0.68746 0.04278 0.0
H732 H 0.78309 0.71198 0.02865 0.0
C733 C 0.72103 0.7501 1.00214 0.0
C734 C 0.69478 0.75241 0.99993 0.0
C735 C 0.67597 0.74215 1.0056 0.0
C736 C 0.68285 0.73017 1.01344 0.0
C737 C 0.70869 0.72853 1.01554 0.0
C738 C 0.72761 0.73811 1.0101 0.0
C739 C 0.75389 0.73426 1.01421 0.0
C740 C 0.77137 0.71827 1.00823 0.0
C741 C 0.76627 0.76008 1.0164 0.0
C742 C 0.7466 0.71999 0.02256 0.0
C743 C 0.72036 0.71751 0.02323 0.0
C744 C 0.70867 0.70612 0.03046 0.0
C745 C 0.72419 0.69672 0.03722 0.0
C746 C 0.75113 0.69851 0.03666 0.0
C747 C 0.76249 0.71031 0.02922 0.0
H748 H 0.31362 0.32105 0.03927 0.0
H749 H 0.24089 0.34392 0.02777 0.0
H750 H 0.254 0.32594 1.0137 0.0
H751 H 0.35472 0.33044 0.0214 0.0
H752 H 0.37255 0.30116 0.02252 0.0
H753 H 0.35763 0.31532 0.032 0.0
H754 H 0.33346 0.27316 0.035 0.0
H755 H 0.34834 0.25898 0.02549 0.0
H756 H 0.31396 0.2594 0.02648 0.0
H757 H 0.27414 0.30775 1.00082 0.0
H758 H 0.30017 0.28737 0.98951 0.0
H759 H 0.36094 0.27557 1.0087 0.0
C760 C 0.30039 0.32206 0.03381 0.0
C761 C 0.27659 0.33501 0.0346 0.0
C762 C 0.25972 0.33537 0.0273 0.0
C763 C 0.26682 0.32487 0.01926 0.0
C764 C 0.29055 0.31317 0.01861 0.0
C765 C 0.30697 0.31105 0.02568 0.0
C766 C 0.33095 0.29637 0.02305 0.0
C767 C 0.3554 0.31177 0.02485 0.0
C768 C 0.33173 0.27044 0.02779 0.0
C769 C 0.32616 0.29286 1.01325 0.0
C770 C 0.30236 0.30205 1.01097 0.0
C771 C 0.29297 0.30058 1.00245 0.0
C772 C 0.30825 0.28927 0.996 0.0
C773 C 0.33315 0.28006 0.99798 0.0
C774 C 0.34207 0.28202 1.00681 0.0
H775 H 0.68061 0.81182 0.28355 0.0
H776 H 0.72984 0.74596 0.28686 0.0
H777 H 0.75514 0.75899 0.27387 0.0
H778 H 0.67905 0.81296 0.26007 0.0
H779 H 0.68081 0.84719 0.25916 0.0
H780 H 0.66671 0.83284 0.26877 0.0
H781 H 0.69846 0.85784 0.27862 0.0
H782 H 0.71263 0.87208 0.269 0.0
H783 H 0.7324 0.85487 0.27668 0.0
H784 H 0.77405 0.77789 0.26044 0.0
H785 H 0.78682 0.80293 0.24737 0.0
H786 H 0.72664 0.85765 0.2528 0.0
C787 C 0.6969 0.80041 0.28154 0.0
C788 C 0.70364 0.77807 0.28617 0.0
C789 C 0.72477 0.76329 0.28339 0.0
C790 C 0.73911 0.77048 0.27603 0.0
C791 C 0.73205 0.79255 0.27156 0.0
C792 C 0.71162 0.80748 0.27422 0.0
C793 C 0.70859 0.83057 0.26829 0.0
C794 C 0.68222 0.83088 0.26381 0.0
C795 C 0.7133 0.85531 0.27345 0.0
C796 C 0.7299 0.8257 0.26172 0.0
C797 C 0.74326 0.80373 0.26379 0.0
C798 C 0.76373 0.79509 0.25873 0.0
C799 C 0.77074 0.80925 0.25132 0.0
C800 C 0.75733 0.83172 0.24908 0.0
C801 C 0.73682 0.84023 0.25436 0.0
H802 H 0.2241 0.21339 0.53932 0.0
H803 H 0.29438 0.18551 0.52722 0.0
H804 H 0.2808 0.20267 0.51313 0.0
H805 H 0.18052 0.20562 0.52228 0.0
H806 H 0.16508 0.23626 0.52323 0.0
H807 H 0.18 0.22203 0.53269 0.0
H808 H 0.20762 0.2625 0.53475 0.0
H809 H 0.19273 0.27677 0.52526 0.0
H810 H 0.22707 0.27385 0.52578 0.0
H811 H 0.26071 0.22056 0.50043 0.0
H812 H 0.2354 0.24169 0.48923 0.0
H813 H 0.17691 0.25904 0.50886 0.0
C814 C 0.23674 0.21112 0.53373 0.0
C815 C 0.25979 0.19685 0.53435 0.0
C816 C 0.27596 0.19493 0.52689 0.0
C817 C 0.26864 0.20498 0.51883 0.0
C818 C 0.24559 0.21797 0.51836 0.0
C819 C 0.23008 0.22182 0.52559 0.0
C820 C 0.20695 0.23794 0.52311 0.0
C821 C 0.18165 0.22463 0.52546 0.0
C822 C 0.20869 0.26432 0.52748 0.0
C823 C 0.21092 0.24005 0.51322 0.0
C824 C 0.23379 0.22906 0.51078 0.0
C825 C 0.24254 0.22909 0.50218 0.0
C826 C 0.22756 0.24082 0.49579 0.0
C827 C 0.20341 0.25164 0.49791 0.0
C828 C 0.19515 0.25124 0.50684 0.0
H829 H 0.83611 0.71572 0.78775 0.0
H830 H 0.82938 0.7956 0.78063 0.0
H831 H 0.8075 0.78376 0.76694 0.0
H832 H 0.84895 0.69153 0.7665 0.0
H833 H 0.82971 0.66321 0.76766 0.0
H834 H 0.84363 0.67782 0.77722 0.0
H835 H 0.79859 0.68105 0.78432 0.0
H836 H 0.78464 0.66654 0.77473 0.0
H837 H 0.77321 0.69708 0.77849 0.0
H838 H 0.78921 0.76434 0.75389 0.0
H839 H 0.77306 0.73754 0.74188 0.0
H840 H 0.79114 0.66962 0.75704 0.0
C841 C 0.82966 0.73059 0.78334 0.0
C842 C 0.83461 0.75653 0.78513 0.0
C843 C 0.82604 0.77561 0.77925 0.0
C844 C 0.81354 0.76911 0.7715 0.0
C845 C 0.80954 0.74344 0.76977 0.0
C846 C 0.81705 0.7244 0.77551 0.0
C847 C 0.81053 0.6983 0.77186 0.0
C848 C 0.83465 0.68175 0.77074 0.0
C849 C 0.79055 0.68496 0.77769 0.0
C850 C 0.79922 0.70585 0.76305 0.0
C851 C 0.79863 0.732 0.76208 0.0
C852 C 0.78952 0.74379 0.75453 0.0
C853 C 0.78069 0.72842 0.7477 0.0
C854 C 0.78123 0.70155 0.74846 0.0
C855 C 0.7905 0.69014 0.75628 0.0
H856 H 0.22521 0.25942 0.1649 0.0
H857 H 0.22341 0.18675 0.15118 0.0
H858 H 0.22325 0.20917 0.13707 0.0
H859 H 0.18561 0.2951 0.15046 0.0
H860 H 0.20453 0.32381 0.15069 0.0
H861 H 0.20478 0.30245 0.15996 0.0
H862 H 0.25421 0.29904 0.15893 0.0
H863 H 0.25391 0.32061 0.1497 0.0
H864 H 0.2688 0.28974 0.14868 0.0
H865 H 0.22148 0.23764 0.12466 0.0
H866 H 0.22151 0.27222 0.11384 0.0
H867 H 0.22672 0.32796 0.13487 0.0
C868 C 0.22509 0.24826 0.15892 0.0
C869 C 0.22374 0.22123 0.15918 0.0
C870 C 0.22364 0.20739 0.15119 0.0
C871 C 0.22374 0.21994 0.14313 0.0
C872 C 0.22441 0.2464 0.1431 0.0
C873 C 0.22552 0.26056 0.15072 0.0
C874 C 0.22681 0.28893 0.14862 0.0
C875 C 0.20406 0.30342 0.15267 0.0
C876 C 0.25246 0.30024 0.15166 0.0
C877 C 0.22524 0.28821 0.13864 0.0
C878 C 0.2241 0.26335 0.13569 0.0
C879 C 0.2227 0.25723 0.12684 0.0
C880 C 0.22292 0.27702 0.12074 0.0
C881 C 0.22473 0.30271 0.12349 0.0
C882 C 0.22547 0.30845 0.13259 0.0
H883 H 0.72432 0.68785 0.37985 0.0
H884 H 0.74152 0.7639 0.36999 0.0
H885 H 0.77343 0.76925 0.38152 0.0
H886 H 0.72895 0.7061 0.40308 0.0
H887 H 0.74295 0.67622 0.40644 0.0
H888 H 0.72153 0.67727 0.39718 0.0
H889 H 0.75632 0.6562 0.38747 0.0
H890 H 0.77786 0.65529 0.3967 0.0
H891 H 0.7875 0.67074 0.38665 0.0
H892 H 0.80377 0.76723 0.39358 0.0
H893 H 0.82938 0.75887 0.40689 0.0
H894 H 0.79186 0.68574 0.41008 0.0
C895 C 0.73445 0.7058 0.38016 0.0
C896 C 0.7307 0.72514 0.37373 0.0
C897 C 0.74459 0.74825 0.3745 0.0
C898 C 0.76267 0.75167 0.38112 0.0
C899 C 0.76628 0.73219 0.38716 0.0
C900 C 0.75233 0.70987 0.38692 0.0
C901 C 0.75984 0.69245 0.3945 0.0
C902 C 0.73695 0.68774 0.40067 0.0
C903 C 0.77104 0.66717 0.39112 0.0
C904 C 0.78028 0.70859 0.39892 0.0
C905 C 0.78363 0.73134 0.39449 0.0
C906 C 0.80135 0.74955 0.39715 0.0
C907 C 0.81585 0.74464 0.40466 0.0
C908 C 0.81267 0.72166 0.40937 0.0
C909 C 0.79477 0.7033 0.40647 0.0
H910 H 0.29169 0.20871 0.6337 0.0
H911 H 0.34475 0.24676 0.61612 0.0
H912 H 0.35119 0.28076 0.62706 0.0
H913 H 0.26161 0.26467 0.64257 0.0
H914 H 0.25962 0.25279 0.65366 0.0
H915 H 0.25954 0.23085 0.64457 0.0
H916 H 0.2984 0.20715 0.65132 0.0
H917 H 0.29841 0.22917 0.6604 0.0
H918 H 0.327 0.22478 0.65393 0.0
H919 H 0.35174 0.31025 0.63926 0.0
H920 H 0.34769 0.33507 0.65241 0.0
H921 H 0.29275 0.27938 0.66264 0.0
C922 C 0.30466 0.22424 0.63224 0.0
C923 C 0.31771 0.22547 0.62411 0.0
C924 C 0.33462 0.24579 0.62233 0.0
C925 C 0.33837 0.2651 0.62849 0.0
C926 C 0.32506 0.26372 0.63639 0.0
C927 C 0.30865 0.24387 0.63836 0.0
C928 C 0.2971 0.2474 0.64746 0.0
C929 C 0.26772 0.24904 0.64703 0.0
C930 C 0.30575 0.22585 0.65365 0.0
C931 C 0.30902 0.27279 0.65006 0.0
C932 C 0.32524 0.28143 0.64359 0.0
C933 C 0.33895 0.30386 0.64441 0.0
C934 C 0.33621 0.31811 0.65208 0.0
C935 C 0.31953 0.31028 0.65899 0.0
C936 C 0.30574 0.28695 0.6578 0.0
H937 H 0.72117 0.84157 0.90364 0.0
H938 H 0.7475 0.77078 0.91572 0.0
H939 H 0.78021 0.76687 0.90445 0.0
H940 H 0.72764 0.81746 0.8812 0.0
H941 H 0.73761 0.84774 0.87676 0.0
H942 H 0.71663 0.8467 0.88616 0.0
H943 H 0.74849 0.87465 0.89484 0.0
H944 H 0.76969 0.87555 0.8855 0.0
H945 H 0.78129 0.86444 0.89597 0.0
H946 H 0.81044 0.76967 0.89236 0.0
H947 H 0.83464 0.77729 0.87866 0.0
H948 H 0.78715 0.84318 0.87308 0.0
C949 C 0.73334 0.82491 0.90392 0.0
C950 C 0.7318 0.80696 0.91095 0.0
C951 C 0.74865 0.78571 0.91085 0.0
C952 C 0.76727 0.78299 0.90434 0.0
C953 C 0.76841 0.80106 0.8977 0.0
C954 C 0.75161 0.82132 0.89726 0.0
C955 C 0.75663 0.83726 0.88907 0.0
C956 C 0.73323 0.83727 0.88294 0.0
C957 C 0.7645 0.86459 0.8915 0.0
C958 C 0.77891 0.82257 0.88508 0.0
C959 C 0.78542 0.80197 0.89027 0.0
C960 C 0.80548 0.78558 0.88817 0.0
C961 C 0.81909 0.79001 0.88042 0.0
C962 C 0.81253 0.8106 0.87491 0.0
C963 C 0.79233 0.82725 0.87725 0.0
H964 H 0.74903 0.74876 0.66179 0.0
H965 H 0.68833 0.6975 0.65291 0.0
H966 H 0.68491 0.7217 0.63953 0.0
H967 H 0.72076 0.80631 0.65377 0.0
H968 H 0.75055 0.82022 0.65019 0.0
H969 H 0.75025 0.79806 0.65923 0.0
H970 H 0.78356 0.76992 0.65118 0.0
H971 H 0.78387 0.79207 0.64212 0.0
H972 H 0.7769 0.75889 0.64021 0.0
H973 H 0.6854 0.75129 0.62724 0.0
H974 H 0.69136 0.78554 0.61632 0.0
H975 H 0.7498 0.8198 0.63269 0.0
C976 C 0.7347 0.74229 0.65722 0.0
C977 C 0.71909 0.72031 0.65884 0.0
C978 C 0.70122 0.71335 0.65221 0.0
C979 C 0.69878 0.72732 0.64444 0.0
C980 C 0.71396 0.74871 0.64324 0.0
C981 C 0.73164 0.75631 0.6494 0.0
C982 C 0.7455 0.78034 0.64631 0.0
C983 C 0.74151 0.80254 0.65276 0.0
C984 C 0.77416 0.77498 0.64487 0.0
C985 C 0.732 0.78526 0.63761 0.0
C986 C 0.71412 0.76644 0.63599 0.0
C987 C 0.69928 0.76619 0.62841 0.0
C988 C 0.70272 0.78569 0.62227 0.0
C989 C 0.72077 0.80522 0.62374 0.0
C990 C 0.73569 0.8051 0.6315 0.0
H991 H 0.30277 0.25531 0.90731 0.0
H992 H 0.31677 0.17384 0.90941 0.0
H993 H 0.28828 0.16634 0.89688 0.0
H994 H 0.23597 0.25216 0.90125 0.0
H995 H 0.23755 0.27762 0.8933 0.0
H996 H 0.25925 0.27726 0.90249 0.0
H997 H 0.29767 0.27961 0.89177 0.0
H998 H 0.27596 0.27987 0.88258 0.0
H999 H 0.30081 0.25607 0.88322 0.0
H1000 H 0.25801 0.1664 0.88478 0.0
H1001 H 0.22755 0.17423 0.8728 0.0
H1002 H 0.23227 0.25571 0.87757 0.0
C1003 C 0.29985 0.23591 0.90511 0.0
C1004 C 0.31242 0.21513 0.90932 0.0
C1005 C 0.30802 0.1901 0.90621 0.0
C1006 C 0.29162 0.1856 0.89914 0.0
C1007 C 0.27965 0.20629 0.89515 0.0
C1008 C 0.28355 0.23102 0.89792 0.0
C1009 C 0.26852 0.24962 0.89218 0.0
C1010 C 0.24917 0.26507 0.89764 0.0
C1011 C 0.28683 0.26734 0.88714 0.0
C1012 C 0.25504 0.23119 0.88597 0.0
C1013 C 0.26199 0.20637 0.88786 0.0
C1014 C 0.25228 0.18572 0.88322 0.0
C1015 C 0.2348 0.19035 0.87647 0.0
C1016 C 0.2271 0.21546 0.87434 0.0
C1017 C 0.23764 0.23626 0.8791 0.0
H1018 H 0.78605 0.81897 0.15215 0.0
H1019 H 0.85198 0.7913 0.16658 0.0
H1020 H 0.85911 0.7581 0.15537 0.0
H1021 H 0.76203 0.75899 0.14443 0.0
H1022 H 0.75399 0.77024 0.13359 0.0
H1023 H 0.75401 0.79207 0.14271 0.0
H1024 H 0.78572 0.82119 0.13431 0.0
H1025 H 0.78581 0.7992 0.12521 0.0
H1026 H 0.81552 0.80812 0.13036 0.0
H1027 H 0.86006 0.72887 0.1428 0.0
H1028 H 0.85477 0.70378 0.12949 0.0
H1029 H 0.78601 0.74754 0.12325 0.0
C1030 C 0.80201 0.80592 0.15286 0.0
C1031 C 0.81871 0.80764 0.16016 0.0
C1032 C 0.83928 0.79032 0.16097 0.0
C1033 C 0.8434 0.77141 0.15466 0.0
C1034 C 0.82682 0.77012 0.14753 0.0
C1035 C 0.80657 0.78688 0.14652 0.0
C1036 C 0.79223 0.78132 0.13804 0.0
C1037 C 0.76388 0.77528 0.13981 0.0
C1038 C 0.79498 0.80379 0.1316 0.0
C1039 C 0.80684 0.758 0.13476 0.0
C1040 C 0.82701 0.75242 0.14026 0.0
C1041 C 0.84406 0.73272 0.13848 0.0
C1042 C 0.84054 0.71817 0.13087 0.0
C1043 C 0.81962 0.72271 0.12512 0.0
C1044 C 0.8025 0.7431 0.12724 0.0
H1045 H 0.22994 0.34693 0.40639 0.0
H1046 H 0.23269 0.26626 0.41287 0.0
H1047 H 0.26308 0.25911 0.40082 0.0
H1048 H 0.23334 0.33885 0.38253 0.0
H1049 H 0.25357 0.36624 0.38082 0.0
H1050 H 0.2316 0.36555 0.38996 0.0
H1051 H 0.26918 0.37408 0.40063 0.0
H1052 H 0.29121 0.37461 0.39151 0.0
H1053 H 0.29654 0.35308 0.40056 0.0
H1054 H 0.29319 0.25987 0.38856 0.0
H1055 H 0.32068 0.26829 0.37574 0.0
H1056 H 0.29923 0.34822 0.37644 0.0
C1057 C 0.23668 0.32772 0.40519 0.0
C1058 C 0.22913 0.30718 0.4107 0.0
C1059 C 0.23857 0.28239 0.40891 0.0
C1060 C 0.25576 0.27809 0.40204 0.0
C1061 C 0.26326 0.29867 0.39689 0.0
C1062 C 0.25396 0.323 0.39827 0.0
C1063 C 0.26561 0.34159 0.39168 0.0
C1064 C 0.24478 0.35377 0.3859 0.0
C1065 C 0.28158 0.36205 0.39638 0.0
C1066 C 0.28266 0.32371 0.3864 0.0
C1067 C 0.28097 0.29911 0.38961 0.0
C1068 C 0.2947 0.27902 0.38596 0.0
C1069 C 0.31032 0.28399 0.37871 0.0
C1070 C 0.31219 0.30887 0.37516 0.0
C1071 C 0.2984 0.3291 0.37912 0.0
H1072 H 0.0731 0.03162 0.21919 0.0
H1073 H 0.07012 0.05897 0.19202 0.0
H1074 H 0.02854 0.04117 0.19047 0.0
H1075 H 0.03719 0.97333 0.21625 0.0
H1076 H 0.01848 0.9765 0.22615 0.0
H1077 H 0.05 0.99029 0.22556 0.0
H1078 H 0.03068 0.03381 0.22988 0.0
H1079 H 0.99895 0.02029 0.23017 0.0
H1080 H 1.00551 0.04749 0.22329 0.0
H1081 H 0.98659 0.02603 0.19134 0.0
H1082 H 0.94642 1.00386 0.19392 0.0
H1083 H 0.97201 0.98273 0.22013 0.0
C1084 C 0.06398 0.03412 0.21288 0.0
C1085 C 0.0765 0.04681 0.20569 0.0
C1086 C 0.06285 0.04893 0.19765 0.0
C1087 C 0.03838 0.03916 0.19667 0.0
C1088 C 0.02676 0.0277 0.20381 0.0
C1089 C 0.03881 0.02469 0.21177 0.0
C1090 C 0.0207 1.01132 0.21825 0.0
C1091 C 0.0323 0.98637 0.22175 0.0
C1092 C 1.01354 0.0293 0.22585 0.0
C1093 C 0.9975 1.00637 0.21235 0.0
C1094 C 1.00155 0.01711 0.2042 0.0
C1095 C 0.9833 0.01681 0.1976 0.0
C1096 C 0.96054 1.00395 0.19912 0.0
C1097 C 0.95643 0.99041 0.20704 0.0
C1098 C 0.97477 0.99249 0.21393 0.0
H1099 H 1.01709 0.45428 0.46559 0.0
H1100 H 0.08283 0.47223 0.44917 0.0
H1101 H 0.06921 0.51674 0.44841 0.0
H1102 H 0.97172 0.49557 0.45529 0.0
H1103 H 0.9567 0.50665 0.46525 0.0
H1104 H 0.97143 0.4756 0.46494 0.0
H1105 H 0.99932 0.48777 0.47827 0.0
H1106 H 0.98509 0.5191 0.47856 0.0
H1107 H 0.01935 0.5157 0.47774 0.0
H1108 H 0.04855 0.55773 0.44828 0.0
H1109 H 0.0211 0.59584 0.4494 0.0
H1110 H 0.96896 0.55466 0.46647 0.0
C1111 C 0.02856 0.4677 0.46188 0.0
C1112 C 0.05065 0.45957 0.45719 0.0
C1113 C 0.06539 0.47773 0.45253 0.0
C1114 C 0.05797 0.50317 0.45213 0.0
C1115 C 0.03595 0.5105 0.45656 0.0
C1116 C 0.02145 0.4936 0.46144 0.0
C1117 C 0.99863 0.50733 0.46556 0.0
C1118 C 0.97312 0.49558 0.46257 0.0
C1119 C 1.00073 0.50747 0.47563 0.0
C1120 C 1.00228 0.53404 0.46183 0.0
C1121 C 0.02417 0.53525 0.45676 0.0
C1122 C 0.0315 0.55727 0.45232 0.0
C1123 C 1.01588 0.57877 0.45299 0.0
C1124 C 0.99331 0.57811 0.45809 0.0
C1125 C 0.98648 0.5556 0.46266 0.0
H1126 H 0.57429 0.5294 0.71901 0.0
H1127 H 0.56835 0.56368 0.69293 0.0
H1128 H 0.52658 0.54572 0.6912 0.0
H1129 H 0.53764 0.47208 0.71531 0.0
H1130 H 0.51962 0.47362 0.72541 0.0
H1131 H 0.55111 0.4875 0.72483 0.0
H1132 H 0.53214 0.53028 0.73012 0.0
H1133 H 0.50043 0.51672 0.73042 0.0
H1134 H 0.50652 0.54497 0.72401 0.0
H1135 H 0.4854 0.52831 0.69182 0.0
H1136 H 0.44554 0.50539 0.69429 0.0
H1137 H 0.47275 0.48092 0.71995 0.0
C1138 C 0.56431 0.53319 0.71293 0.0
C1139 C 0.57608 0.54728 0.70595 0.0
C1140 C 0.56153 0.5518 0.69822 0.0
C1141 C 0.53706 0.5421 0.6972 0.0
C1142 C 0.52626 0.52867 0.70407 0.0
C1143 C 0.53898 0.5241 0.71184 0.0
C1144 C 0.52133 0.50966 0.71817 0.0
C1145 C 0.53314 0.48419 0.7211 0.0
C1146 C 0.51472 0.5264 0.72616 0.0
C1147 C 0.49772 0.50569 0.71238 0.0
C1148 C 0.50114 0.5178 0.70443 0.0
C1149 C 0.48251 0.51825 0.69795 0.0
C1150 C 0.45994 0.50498 0.6994 0.0
C1151 C 0.45631 0.49047 0.70714 0.0
C1152 C 0.4751 0.49157 0.71391 0.0
H1153 H 0.48424 0.05956 0.94667 0.0
H1154 H 0.50735 0.08778 0.97246 0.0
H1155 H 0.52878 0.0473 0.97519 0.0
H1156 H 0.47361 0.99664 0.95125 0.0
H1157 H 0.489 0.98388 0.9416 0.0
H1158 H 0.4752 1.01533 0.94132 0.0
H1159 H 0.51863 0.03476 0.93648 0.0
H1160 H 0.5321 1.00311 0.9364 0.0
H1161 H 0.547 0.0279 0.94278 0.0
H1162 H 0.54553 1.00329 0.97572 0.0
H1163 H 0.56259 0.96045 0.97316 0.0
H1164 H 0.53188 0.96151 0.94663 0.0
C1165 C 0.49398 0.0582 0.95288 0.0
C1166 C 0.49277 0.07772 0.95941 0.0
C1167 C 0.5064 0.07352 0.96738 0.0
C1168 C 0.51909 0.05043 0.96901 0.0
C1169 C 0.51895 0.03176 0.96253 0.0
C1170 C 0.50754 0.03566 0.95451 0.0
C1171 C 0.51148 1.01283 0.94849 0.0
C1172 C 0.48579 1.0015 0.9455 0.0
C1173 C 0.5283 0.02009 0.94057 0.0
C1174 C 0.52568 0.99495 0.95463 0.0
C1175 C 0.52981 1.00644 0.96267 0.0
C1176 C 0.54253 0.99409 0.96945 0.0
C1177 C 0.55188 0.96954 0.96794 0.0
C1178 C 0.54838 0.9573 0.95972 0.0
C1179 C 0.53496 0.97028 0.95298 0.0
H1180 H 0.97049 0.54144 0.08854 0.0
H1181 H 0.95092 0.53612 0.06068 0.0
H1182 H 0.99139 0.51476 0.05805 0.0
H1183 H 0.03542 0.55654 0.08599 0.0
H1184 H 0.0463 0.53714 0.09502 0.0
H1185 H 1.01453 0.55048 0.09519 0.0
H1186 H 0.99492 0.50548 0.09722 0.0
H1187 H 0.02677 0.49225 0.09732 0.0
H1188 H 1.00339 0.48047 0.08964 0.0
H1189 H 0.03478 0.4963 0.05792 0.0
H1190 H 0.07688 0.47769 0.06064 0.0
H1191 H 0.0705 0.4977 0.08831 0.0
C1192 C 0.97411 0.53653 0.08179 0.0
C1193 C 0.95651 0.54193 0.07484 0.0
C1194 C 0.96314 0.53313 0.06628 0.0
C1195 C 0.98651 0.52085 0.06463 0.0
C1196 C 1.00346 0.5173 0.07155 0.0
C1197 C 0.99749 0.5245 0.07999 0.0
C1198 C 0.01918 0.518 0.08628 0.0
C1199 C 0.02946 0.54197 0.09089 0.0
C1200 C 1.01054 0.49785 0.09301 0.0
C1201 C 0.03864 0.50695 0.07992 0.0
C1202 C 0.02892 0.50653 0.07149 0.0
C1203 C 0.04272 0.49665 0.06448 0.0
C1204 C 0.06696 0.48642 0.06611 0.0
C1205 C 0.07763 0.48647 0.07468 0.0
C1206 C 0.06314 0.49714 0.08167 0.0
H1207 H 0.553 0.55925 0.3377 0.0
H1208 H 0.52563 0.58801 0.31245 0.0
H1209 H 0.5052 0.54743 0.30973 0.0
H1210 H 0.56349 0.49608 0.33279 0.0
H1211 H 0.54899 0.48295 0.34255 0.0
H1212 H 0.56259 0.51446 0.3428 0.0
H1213 H 0.51949 0.53346 0.34813 0.0
H1214 H 0.50614 0.50179 0.34821 0.0
H1215 H 0.49066 0.52681 0.34206 0.0
H1216 H 0.48965 0.50344 0.309 0.0
H1217 H 0.47321 0.46024 0.31145 0.0
H1218 H 0.50605 0.46044 0.33769 0.0
C1219 C 0.54256 0.55772 0.33162 0.0
C1220 C 0.54269 0.57737 0.32513 0.0
C1221 C 0.52795 0.57345 0.31739 0.0
C1222 C 0.51564 0.55032 0.31578 0.0
C1223 C 0.51691 0.53139 0.32212 0.0
C1224 C 0.52907 0.53508 0.33003 0.0
C1225 C 0.52577 0.51198 0.33597 0.0
C1226 C 0.55177 0.5007 0.33868 0.0
C1227 C 0.50955 0.51892 0.34407 0.0
C1228 C 0.51119 0.49426 0.32986 0.0
C1229 C 0.50626 0.50606 0.32194 0.0
C1230 C 0.49321 0.49392 0.31518 0.0
C1231 C 0.48425 0.46916 0.31661 0.0
C1232 C 0.48842 0.45661 0.32472 0.0
C1233 C 0.50235 0.46941 0.33141 0.0
H1234 H 0.4667 0.03937 0.56465 0.0
H1235 H 0.45869 0.04389 0.59316 0.0
H1236 H 0.50206 0.0292 0.59484 0.0
H1237 H 0.50075 0.97653 0.56653 0.0
H1238 H 0.52087 0.98229 0.55711 0.0
H1239 H 0.48927 0.99606 0.55761 0.0
H1240 H 0.50937 0.04039 0.555 0.0
H1241 H 0.54109 0.02676 0.55488 0.0
H1242 H 0.53344 0.05205 0.56245 0.0
H1243 H 0.54683 0.02176 0.59391 0.0
H1244 H 0.58795 1.00132 0.59135 0.0
H1245 H 0.56644 0.98664 0.5642 0.0
C1246 C 0.47375 0.03714 0.57128 0.0
C1247 C 0.45933 0.04559 0.57876 0.0
C1248 C 0.46953 0.04067 0.58723 0.0
C1249 C 0.49431 0.03175 0.58831 0.0
C1250 C 0.50844 0.02571 0.58091 0.0
C1251 C 0.49829 0.02634 0.57258 0.0
C1252 C 0.51748 1.01483 0.56604 0.0
C1253 C 0.50642 0.991 0.56156 0.0
C1254 C 0.52583 0.0347 0.55919 0.0
C1255 C 0.53959 1.00797 0.57221 0.0
C1256 C 0.53392 1.01582 0.58062 0.0
C1257 C 0.55123 1.0142 0.58748 0.0
C1258 C 0.57451 1.0023 0.58595 0.0
C1259 C 0.5799 0.99072 0.57777 0.0
C1260 C 0.56265 0.99461 0.57062 0.0
H1261 H 0.99372 0.96546 0.81457 0.0
H1262 H 0.99151 0.95533 0.84302 0.0
H1263 H 1.00701 0.99832 0.84492 0.0
H1264 H 0.05703 0.99914 0.81584 0.0
H1265 H 0.05001 0.01978 0.80668 0.0
H1266 H 0.03636 0.98827 0.80714 0.0
H1267 H 0.99147 1.00834 0.80539 0.0
H1268 H 1.00501 0.03995 0.80531 0.0
H1269 H 0.98062 0.03179 0.81321 0.0
H1270 H 1.01417 0.04319 0.84421 0.0
H1271 H 0.03352 0.0846 0.84165 0.0
H1272 H 0.04634 0.06481 0.81422 0.0
C1273 C 0.99672 0.97194 0.82123 0.0
C1274 C 0.98889 0.95708 0.82867 0.0
C1275 C 0.99454 0.96656 0.83717 0.0
C1276 C 1.00387 0.99107 0.83836 0.0
C1277 C 1.00937 1.00563 0.83102 0.0
C1278 C 1.0078 0.99617 0.82261 0.0
C1279 C 0.01849 1.01575 0.81608 0.0
C1280 C 0.04187 1.00509 0.81115 0.0
C1281 C 0.99765 0.02447 0.80961 0.0
C1282 C 0.02604 0.03737 0.82231 0.0
C1283 C 0.01916 0.03108 0.83079 0.0
C1284 C 0.02113 0.04799 0.83772 0.0
C1285 C 0.03244 0.07147 0.83619 0.0
C1286 C 0.0434 0.07743 0.82792 0.0
C1287 C 0.03903 0.06059 0.82071 0.0
loop_
_geom_bond_atom_site_label_1
_geom_bond_atom_site_label_2
_geom_bond_distance
_geom_bond_site_symmetry_2
_ccdc_geom_bond_type
C0 C1 1.264 . S
C0 C5 1.479 . S
C0 C10 1.465 . S
C1 C0 1.264 . S
C1 C3 1.339 . S
C1 H28 0.931 . S
C2 C3 1.395 . S
C2 C4 1.320 . S
C3 C1 1.339 . S
C3 C2 1.395 . S
C3 H29 0.929 . S
C4 C2 1.320 . S
C4 C5 1.405 . S
C4 H30 0.930 . S
C5 C0 1.479 . S
C5 C4 1.405 . S
C5 H31 0.931 . S
U6 O7 2.454 . S
U6 O8 2.458 . S
U6 C9 2.984 . S
U6 C10 2.847 . S
U6 C23 2.882 . S
U6 O24 2.441 . S
U6 O25 2.420 . S
U6 O26 2.455 . S
U6 O27 2.449 . S
O7 U6 2.454 . S
O7 C9 1.353 . S
O8 U6 2.458 . S
O8 C9 1.286 . S
C9 U6 2.984 . S
C9 O7 1.353 . S
C9 O8 1.286 . S
C9 C11 1.363 . S
C10 C0 1.465 . S
C10 U6 2.847 . S
C10 O24 1.249 . S
C10 O25 1.202 . S
C11 C9 1.363 . S
C11 C13 1.408 . S
C11 C16 1.342 . S
C12 C13 1.310 . S
C12 C15 1.461 . S
C12 H32 0.932 . S
C13 C11 1.408 . S
C13 C12 1.310 . S
C13 H33 0.930 . S
C14 C15 1.474 . S
C14 C16 1.285 . S
C14 H34 0.929 . S
C15 C12 1.461 . S
C15 C14 1.474 . S
C16 C11 1.342 . S
C16 C14 1.285 . S
C16 H35 0.930 . S
C17 C20 1.424 . S
C17 C22 1.245 . S
C17 C23 1.428 . S
C18 C21 1.260 . S
C18 C22 1.477 . S
C18 H36 0.932 . S
C19 C20 1.384 . S
C19 C21 1.479 . S
C19 H37 0.929 . S
C20 C17 1.424 . S
C20 C19 1.384 . S
C20 H38 0.928 . S
C21 C18 1.260 . S
C21 C19 1.479 . S
C22 C17 1.245 . S
C22 C18 1.477 . S
C22 H39 0.932 . S
C23 U6 2.882 . S
C23 C17 1.428 . S
C23 O26 1.301 . S
C23 O27 1.282 . S
O24 U6 2.441 . S
O24 C10 1.249 . S
O25 U6 2.420 . S
O25 C10 1.202 . S
O26 U6 2.455 . S
O26 C23 1.301 . S
O27 U6 2.449 . S
O27 C23 1.282 . S
H28 C1 0.931 . S
H29 C3 0.929 . S
H30 C4 0.930 . S
H31 C5 0.931 . S
H32 C12 0.932 . S
H33 C13 0.930 . S
H34 C14 0.929 . S
H35 C16 0.930 . S
H36 C18 0.932 . S
H37 C19 0.929 . S
H38 C20 0.928 . S
H39 C22 0.932 . S
C40 C41 1.264 . S
C40 C45 1.479 . S
C40 C50 1.465 . S
C41 C40 1.264 . S
C41 C43 1.339 . S
C41 H68 0.931 . S
C42 C43 1.395 . S
C42 C44 1.320 . S
C43 C41 1.339 . S
C43 C42 1.395 . S
C43 H69 0.929 . S
C44 C42 1.320 . S
C44 C45 1.405 . S
C44 H70 0.930 . S
C45 C40 1.479 . S
C45 C44 1.405 . S
C45 H71 0.931 . S
U46 O47 2.454 . S
U46 O48 2.458 . S
U46 C49 2.984 . S
U46 C50 2.847 . S
U46 C63 2.882 . S
U46 O64 2.441 . S
U46 O65 2.420 . S
U46 O66 2.455 . S
U46 O67 2.449 . S
O47 U46 2.454 . S
O47 C49 1.353 . S
O48 U46 2.458 . S
O48 C49 1.286 . S
C49 U46 2.984 . S
C49 O47 1.353 . S
C49 O48 1.286 . S
C49 C51 1.363 . S
C50 C40 1.465 . S
C50 U46 2.847 . S
C50 O64 1.249 . S
C50 O65 1.202 . S
C51 C49 1.363 . S
C51 C53 1.408 . S
C51 C56 1.342 . S
C52 C53 1.310 . S
C52 C55 1.461 . S
C52 H72 0.932 . S
C53 C51 1.408 . S
C53 C52 1.310 . S
C53 H73 0.930 . S
C54 C55 1.474 . S
C54 C56 1.285 . S
C54 H74 0.929 . S
C55 C52 1.461 . S
C55 C54 1.474 . S
C56 C51 1.342 . S
C56 C54 1.285 . S
C56 H75 0.930 . S
C57 C60 1.424 . S
C57 C62 1.245 . S
C57 C63 1.428 . S
C58 C61 1.260 . S
C58 C62 1.477 . S
C58 H76 0.932 . S
C59 C60 1.384 . S
C59 C61 1.479 . S
C59 H77 0.929 . S
C60 C57 1.424 . S
C60 C59 1.384 . S
C60 H78 0.928 . S
C61 C58 1.260 . S
C61 C59 1.479 . S
C62 C57 1.245 . S
C62 C58 1.477 . S
C62 H79 0.932 . S
C63 U46 2.882 . S
C63 C57 1.428 . S
C63 O66 1.301 . S
C63 O67 1.282 . S
O64 U46 2.441 . S
O64 C50 1.249 . S
O65 U46 2.420 . S
O65 C50 1.202 . S
O66 U46 2.455 . S
O66 C63 1.301 . S
O67 U46 2.449 . S
O67 C63 1.282 . S
H68 C41 0.931 . S
H69 C43 0.929 . S
H70 C44 0.930 . S
H71 C45 0.931 . S
H72 C52 0.932 . S
H73 C53 0.930 . S
H74 C54 0.929 . S
H75 C56 0.930 . S
H76 C58 0.932 . S
H77 C59 0.929 . S
H78 C60 0.928 . S
H79 C62 0.932 . S
C80 C81 1.264 . S
C80 C85 1.479 . S
C80 C90 1.465 . S
C81 C80 1.264 . S
C81 C83 1.339 . S
C81 H108 0.931 . S
C82 C83 1.395 . S
C82 C84 1.320 . S
C83 C81 1.339 . S
C83 C82 1.395 . S
C83 H109 0.929 . S
C84 C82 1.320 . S
C84 C85 1.405 . S
C84 H110 0.930 . S
C85 C80 1.479 . S
C85 C84 1.405 . S
C85 H111 0.931 . S
U86 O87 2.454 . S
U86 O88 2.458 . S
U86 C89 2.984 . S
U86 C90 2.847 . S
U86 C103 2.882 . S
U86 O104 2.441 . S
U86 O105 2.420 . S
U86 O106 2.455 . S
U86 O107 2.449 . S
O87 U86 2.454 . S
O87 C89 1.353 . S
O88 U86 2.458 . S
O88 C89 1.286 . S
C89 U86 2.984 . S
C89 O87 1.353 . S
C89 O88 1.286 . S
C89 C91 1.363 . S
C90 C80 1.465 . S
C90 U86 2.847 . S
C90 O104 1.249 . S
C90 O105 1.202 . S
C91 C89 1.363 . S
C91 C93 1.408 . S
C91 C96 1.342 . S
C92 C93 1.310 . S
C92 C95 1.461 . S
C92 H112 0.932 . S
C93 C91 1.408 . S
C93 C92 1.310 . S
C93 H113 0.930 . S
C94 C95 1.474 . S
C94 C96 1.285 . S
C94 H114 0.929 . S
C95 C92 1.461 . S
C95 C94 1.474 . S
C96 C91 1.342 . S
C96 C94 1.285 . S
C96 H115 0.930 . S
C97 C100 1.424 . S
C97 C102 1.245 . S
C97 C103 1.428 . S
C98 C101 1.260 . S
C98 C102 1.477 . S
C98 H116 0.932 . S
C99 C100 1.384 . S
C99 C101 1.479 . S
C99 H117 0.929 . S
C100 C97 1.424 . S
C100 C99 1.384 . S
C100 H118 0.928 . S
C101 C98 1.260 . S
C101 C99 1.479 . S
C102 C97 1.245 . S
C102 C98 1.477 . S
C102 H119 0.932 . S
C103 U86 2.882 . S
C103 C97 1.428 . S
C103 O106 1.301 . S
C103 O107 1.282 . S
O104 U86 2.441 . S
O104 C90 1.249 . S
O105 U86 2.420 . S
O105 C90 1.202 . S
O106 U86 2.455 . S
O106 C103 1.301 . S
O107 U86 2.449 . S
O107 C103 1.282 . S
H108 C81 0.931 . S
H109 C83 0.929 . S
H110 C84 0.930 . S
H111 C85 0.931 . S
H112 C92 0.932 . S
H113 C93 0.930 . S
H114 C94 0.929 . S
H115 C96 0.930 . S
H116 C98 0.932 . S
H117 C99 0.929 . S
H118 C100 0.928 . S
H119 C102 0.932 . S
C120 C121 1.264 . S
C120 C125 1.479 . S
C120 C130 1.465 . S
C121 C120 1.264 . S
C121 C123 1.339 . S
C121 H148 0.931 . S
C122 C123 1.395 . S
C122 C124 1.320 . S
C123 C121 1.339 . S
C123 C122 1.395 . S
C123 H149 0.929 . S
C124 C122 1.320 . S
C124 C125 1.405 . S
C124 H150 0.930 . S
C125 C120 1.479 . S
C125 C124 1.405 . S
C125 H151 0.931 . S
U126 O127 2.454 . S
U126 O128 2.458 . S
U126 C129 2.984 . S
U126 C130 2.847 . S
U126 C143 2.882 . S
U126 O144 2.441 . S
U126 O145 2.420 . S
U126 O146 2.455 . S
U126 O147 2.449 . S
O127 U126 2.454 . S
O127 C129 1.353 . S
O128 U126 2.458 . S
O128 C129 1.286 . S
C129 U126 2.984 . S
C129 O127 1.353 . S
C129 O128 1.286 . S
C129 C131 1.363 . S
C130 C120 1.465 . S
C130 U126 2.847 . S
C130 O144 1.249 . S
C130 O145 1.202 . S
C131 C129 1.363 . S
C131 C133 1.408 . S
C131 C136 1.342 . S
C132 C133 1.310 . S
C132 C135 1.461 . S
C132 H152 0.932 . S
C133 C131 1.408 . S
C133 C132 1.310 . S
C133 H153 0.930 . S
C134 C135 1.474 . S
C134 C136 1.285 . S
C134 H154 0.929 . S
C135 C132 1.461 . S
C135 C134 1.474 . S
C136 C131 1.342 . S
C136 C134 1.285 . S
C136 H155 0.930 . S
C137 C140 1.424 . S
C137 C142 1.245 . S
C137 C143 1.428 . S
C138 C141 1.260 . S
C138 C142 1.477 . S
C138 H156 0.932 . S
C139 C140 1.384 . S
C139 C141 1.479 . S
C139 H157 0.929 . S
C140 C137 1.424 . S
C140 C139 1.384 . S
C140 H158 0.928 . S
C141 C138 1.260 . S
C141 C139 1.479 . S
C142 C137 1.245 . S
C142 C138 1.477 . S
C142 H159 0.932 . S
C143 U126 2.882 . S
C143 C137 1.428 . S
C143 O146 1.301 . S
C143 O147 1.282 . S
O144 U126 2.441 . S
O144 C130 1.249 . S
O145 U126 2.420 . S
O145 C130 1.202 . S
O146 U126 2.455 . S
O146 C143 1.301 . S
O147 U126 2.449 . S
O147 C143 1.282 . S
H148 C121 0.931 . S
H149 C123 0.929 . S
H150 C124 0.930 . S
H151 C125 0.931 . S
H152 C132 0.932 . S
H153 C133 0.930 . S
H154 C134 0.929 . S
H155 C136 0.930 . S
H156 C138 0.932 . S
H157 C139 0.929 . S
H158 C140 0.928 . S
H159 C142 0.932 . S
C160 C161 1.264 . S
C160 C165 1.479 . S
C160 C170 1.465 . S
C161 C160 1.264 . S
C161 C163 1.339 . S
C161 H188 0.931 . S
C162 C163 1.395 . S
C162 C164 1.320 . S
C163 C161 1.339 . S
C163 C162 1.395 . S
C163 H189 0.929 . S
C164 C162 1.320 . S
C164 C165 1.405 . S
C164 H190 0.930 . S
C165 C160 1.479 . S
C165 C164 1.405 . S
C165 H191 0.931 . S
U166 O167 2.454 . S
U166 O168 2.458 . S
U166 C169 2.984 . S
U166 C170 2.847 . S
U166 C183 2.882 . S
U166 O184 2.441 . S
U166 O185 2.420 . S
U166 O186 2.455 . S
U166 O187 2.449 . S
O167 U166 2.454 . S
O167 C169 1.353 . S
O168 U166 2.458 . S
O168 C169 1.286 . S
C169 U166 2.984 . S
C169 O167 1.353 . S
C169 O168 1.286 . S
C169 C171 1.363 . S
C170 C160 1.465 . S
C170 U166 2.847 . S
C170 O184 1.249 . S
C170 O185 1.202 . S
C171 C169 1.363 . S
C171 C173 1.408 . S
C171 C176 1.342 . S
C172 C173 1.310 . S
C172 C175 1.461 . S
C172 H192 0.932 . S
C173 C171 1.408 . S
C173 C172 1.310 . S
C173 H193 0.930 . S
C174 C175 1.474 . S
C174 C176 1.285 . S
C174 H194 0.929 . S
C175 C172 1.461 . S
C175 C174 1.474 . S
C176 C171 1.342 . S
C176 C174 1.285 . S
C176 H195 0.930 . S
C177 C180 1.424 . S
C177 C182 1.245 . S
C177 C183 1.428 . S
C178 C181 1.260 . S
C178 C182 1.477 . S
C178 H196 0.932 . S
C179 C180 1.384 . S
C179 C181 1.479 . S
C179 H197 0.929 . S
C180 C177 1.424 . S
C180 C179 1.384 . S
C180 H198 0.928 . S
C181 C178 1.260 . S
C181 C179 1.479 . S
C182 C177 1.245 . S
C182 C178 1.477 . S
C182 H199 0.932 . S
C183 U166 2.882 . S
C183 C177 1.428 . S
C183 O186 1.301 . S
C183 O187 1.282 . S
O184 U166 2.441 . S
O184 C170 1.249 . S
O185 U166 2.420 . S
O185 C170 1.202 . S
O186 U166 2.455 . S
O186 C183 1.301 . S
O187 U166 2.449 . S
O187 C183 1.282 . S
H188 C161 0.931 . S
H189 C163 0.929 . S
H190 C164 0.930 . S
H191 C165 0.931 . S
H192 C172 0.932 . S
H193 C173 0.930 . S
H194 C174 0.929 . S
H195 C176 0.930 . S
H196 C178 0.932 . S
H197 C179 0.929 . S
H198 C180 0.928 . S
H199 C182 0.932 . S
C200 C201 1.264 . S
C200 C205 1.479 . S
C200 C210 1.465 . S
C201 C200 1.264 . S
C201 C203 1.339 . S
C201 H228 0.931 . S
C202 C203 1.395 . S
C202 C204 1.320 . S
C203 C201 1.339 . S
C203 C202 1.395 . S
C203 H229 0.929 . S
C204 C202 1.320 . S
C204 C205 1.405 . S
C204 H230 0.930 . S
C205 C200 1.479 . S
C205 C204 1.405 . S
C205 H231 0.931 . S
U206 O207 2.454 . S
U206 O208 2.458 . S
U206 C209 2.984 . S
U206 C210 2.847 . S
U206 C223 2.882 . S
U206 O224 2.441 . S
U206 O225 2.420 . S
U206 O226 2.455 . S
U206 O227 2.449 . S
O207 U206 2.454 . S
O207 C209 1.353 . S
O208 U206 2.458 . S
O208 C209 1.286 . S
C209 U206 2.984 . S
C209 O207 1.353 . S
C209 O208 1.286 . S
C209 C211 1.363 . S
C210 C200 1.465 . S
C210 U206 2.847 . S
C210 O224 1.249 . S
C210 O225 1.202 . S
C211 C209 1.363 . S
C211 C213 1.408 . S
C211 C216 1.342 . S
C212 C213 1.310 . S
C212 C215 1.461 . S
C212 H232 0.932 . S
C213 C211 1.408 . S
C213 C212 1.310 . S
C213 H233 0.930 . S
C214 C215 1.474 . S
C214 C216 1.285 . S
C214 H234 0.929 . S
C215 C212 1.461 . S
C215 C214 1.474 . S
C216 C211 1.342 . S
C216 C214 1.285 . S
C216 H235 0.930 . S
C217 C220 1.424 . S
C217 C222 1.245 . S
C217 C223 1.428 . S
C218 C221 1.260 . S
C218 C222 1.477 . S
C218 H236 0.932 . S
C219 C220 1.384 . S
C219 C221 1.479 . S
C219 H237 0.929 . S
C220 C217 1.424 . S
C220 C219 1.384 . S
C220 H238 0.928 . S
C221 C218 1.260 . S
C221 C219 1.479 . S
C222 C217 1.245 . S
C222 C218 1.477 . S
C222 H239 0.932 . S
C223 U206 2.882 . S
C223 C217 1.428 . S
C223 O226 1.301 . S
C223 O227 1.282 . S
O224 U206 2.441 . S
O224 C210 1.249 . S
O225 U206 2.420 . S
O225 C210 1.202 . S
O226 U206 2.455 . S
O226 C223 1.301 . S
O227 U206 2.449 . S
O227 C223 1.282 . S
H228 C201 0.931 . S
H229 C203 0.929 . S
H230 C204 0.930 . S
H231 C205 0.931 . S
H232 C212 0.932 . S
H233 C213 0.930 . S
H234 C214 0.929 . S
H235 C216 0.930 . S
H236 C218 0.932 . S
H237 C219 0.929 . S
H238 C220 0.928 . S
H239 C222 0.932 . S
C240 C241 1.264 . S
C240 C245 1.479 . S
C240 C250 1.465 . S
C241 C240 1.264 . S
C241 C243 1.339 . S
C241 H268 0.931 . S
C242 C243 1.395 . S
C242 C244 1.320 . S
C243 C241 1.339 . S
C243 C242 1.395 . S
C243 H269 0.929 . S
C244 C242 1.320 . S
C244 C245 1.405 . S
C244 H270 0.930 . S
C245 C240 1.479 . S
C245 C244 1.405 . S
C245 H271 0.931 . S
U246 O247 2.454 . S
U246 O248 2.458 . S
U246 C249 2.984 . S
U246 C250 2.847 . S
U246 C263 2.882 . S
U246 O264 2.441 . S
U246 O265 2.420 . S
U246 O266 2.455 . S
U246 O267 2.449 . S
O247 U246 2.454 . S
O247 C249 1.353 . S
O248 U246 2.458 . S
O248 C249 1.286 . S
C249 U246 2.984 . S
C249 O247 1.353 . S
C249 O248 1.286 . S
C249 C251 1.363 . S
C250 C240 1.465 . S
C250 U246 2.847 . S
C250 O264 1.249 . S
C250 O265 1.202 . S
C251 C249 1.363 . S
C251 C253 1.408 . S
C251 C256 1.342 . S
C252 C253 1.310 . S
C252 C255 1.461 . S
C252 H272 0.932 . S
C253 C251 1.408 . S
C253 C252 1.310 . S
C253 H273 0.930 . S
C254 C255 1.474 . S
C254 C256 1.285 . S
C254 H274 0.929 . S
C255 C252 1.461 . S
C255 C254 1.474 . S
C256 C251 1.342 . S
C256 C254 1.285 . S
C256 H275 0.930 . S
C257 C260 1.424 . S
C257 C262 1.245 . S
C257 C263 1.428 . S
C258 C261 1.260 . S
C258 C262 1.477 . S
C258 H276 0.932 . S
C259 C260 1.384 . S
C259 C261 1.479 . S
C259 H277 0.929 . S
C260 C257 1.424 . S
C260 C259 1.384 . S
C260 H278 0.928 . S
C261 C258 1.260 . S
C261 C259 1.479 . S
C262 C257 1.245 . S
C262 C258 1.477 . S
C262 H279 0.932 . S
C263 U246 2.882 . S
C263 C257 1.428 . S
C263 O266 1.301 . S
C263 O267 1.282 . S
O264 U246 2.441 . S
O264 C250 1.249 . S
O265 U246 2.420 . S
O265 C250 1.202 . S
O266 U246 2.455 . S
O266 C263 1.301 . S
O267 U246 2.449 . S
O267 C263 1.282 . S
H268 C241 0.931 . S
H269 C243 0.929 . S
H270 C244 0.930 . S
H271 C245 0.931 . S
H272 C252 0.932 . S
H273 C253 0.930 . S
H274 C254 0.929 . S
H275 C256 0.930 . S
H276 C258 0.932 . S
H277 C259 0.929 . S
H278 C260 0.928 . S
H279 C262 0.932 . S
C280 C281 1.264 . S
C280 C285 1.479 . S
C280 C290 1.465 . S
C281 C280 1.264 . S
C281 C283 1.339 . S
C281 H308 0.931 . S
C282 C283 1.395 . S
C282 C284 1.320 . S
C283 C281 1.339 . S
C283 C282 1.395 . S
C283 H309 0.929 . S
C284 C282 1.320 . S
C284 C285 1.405 . S
C284 H310 0.930 . S
C285 C280 1.479 . S
C285 C284 1.405 . S
C285 H311 0.931 . S
U286 O287 2.454 . S
U286 O288 2.458 . S
U286 C289 2.984 . S
U286 C290 2.847 . S
U286 C303 2.882 . S
U286 O304 2.441 . S
U286 O305 2.420 . S
U286 O306 2.455 . S
U286 O307 2.449 . S
O287 U286 2.454 . S
O287 C289 1.353 . S
O288 U286 2.458 . S
O288 C289 1.286 . S
C289 U286 2.984 . S
C289 O287 1.353 . S
C289 O288 1.286 . S
C289 C291 1.363 . S
C290 C280 1.465 . S
C290 U286 2.847 . S
C290 O304 1.249 . S
C290 O305 1.202 . S
C291 C289 1.363 . S
C291 C293 1.408 . S
C291 C296 1.342 . S
C292 C293 1.310 . S
C292 C295 1.461 . S
C292 H312 0.932 . S
C293 C291 1.408 . S
C293 C292 1.310 . S
C293 H313 0.930 . S
C294 C295 1.474 . S
C294 C296 1.285 . S
C294 H314 0.929 . S
C295 C292 1.461 . S
C295 C294 1.474 . S
C296 C291 1.342 . S
C296 C294 1.285 . S
C296 H315 0.930 . S
C297 C300 1.424 . S
C297 C302 1.245 . S
C297 C303 1.428 . S
C298 C301 1.260 . S
C298 C302 1.477 . S
C298 H316 0.932 . S
C299 C300 1.384 . S
C299 C301 1.479 . S
C299 H317 0.929 . S
C300 C297 1.424 . S
C300 C299 1.384 . S
C300 H318 0.928 . S
C301 C298 1.260 . S
C301 C299 1.479 . S
C302 C297 1.245 . S
C302 C298 1.477 . S
C302 H319 0.932 . S
C303 U286 2.882 . S
C303 C297 1.428 . S
C303 O306 1.301 . S
C303 O307 1.282 . S
O304 U286 2.441 . S
O304 C290 1.249 . S
O305 U286 2.420 . S
O305 C290 1.202 . S
O306 U286 2.455 . S
O306 C303 1.301 . S
O307 U286 2.449 . S
O307 C303 1.282 . S
H308 C281 0.931 . S
H309 C283 0.929 . S
H310 C284 0.930 . S
H311 C285 0.931 . S
H312 C292 0.932 . S
H313 C293 0.930 . S
H314 C294 0.929 . S
H315 C296 0.930 . S
H316 C298 0.932 . S
H317 C299 0.929 . S
H318 C300 0.928 . S
H319 C302 0.932 . S
C320 C321 1.264 . S
C320 C325 1.479 . S
C320 C330 1.465 . S
C321 C320 1.264 . S
C321 C323 1.339 . S
C321 H348 0.931 . S
C322 C323 1.395 . S
C322 C324 1.320 . S
C323 C321 1.339 . S
C323 C322 1.395 . S
C323 H349 0.929 . S
C324 C322 1.320 . S
C324 C325 1.405 . S
C324 H350 0.930 . S
C325 C320 1.479 . S
C325 C324 1.405 . S
C325 H351 0.931 . S
U326 O327 2.454 . S
U326 O328 2.458 . S
U326 C329 2.984 . S
U326 C330 2.847 . S
U326 C343 2.882 . S
U326 O344 2.441 . S
U326 O345 2.420 . S
U326 O346 2.455 . S
U326 O347 2.449 . S
O327 U326 2.454 . S
O327 C329 1.353 . S
O328 U326 2.458 . S
O328 C329 1.286 . S
C329 U326 2.984 . S
C329 O327 1.353 . S
C329 O328 1.286 . S
C329 C331 1.363 . S
C330 C320 1.465 . S
C330 U326 2.847 . S
C330 O344 1.249 . S
C330 O345 1.202 . S
C331 C329 1.363 . S
C331 C333 1.408 . S
C331 C336 1.342 . S
C332 C333 1.310 . S
C332 C335 1.461 . S
C332 H352 0.932 . S
C333 C331 1.408 . S
C333 C332 1.310 . S
C333 H353 0.930 . S
C334 C335 1.474 . S
C334 C336 1.285 . S
C334 H354 0.929 . S
C335 C332 1.461 . S
C335 C334 1.474 . S
C336 C331 1.342 . S
C336 C334 1.285 . S
C336 H355 0.930 . S
C337 C340 1.424 . S
C337 C342 1.245 . S
C337 C343 1.428 . S
C338 C341 1.260 . S
C338 C342 1.477 . S
C338 H356 0.932 . S
C339 C340 1.384 . S
C339 C341 1.479 . S
C339 H357 0.929 . S
C340 C337 1.424 . S
C340 C339 1.384 . S
C340 H358 0.928 . S
C341 C338 1.260 . S
C341 C339 1.479 . S
C342 C337 1.245 . S
C342 C338 1.477 . S
C342 H359 0.932 . S
C343 U326 2.882 . S
C343 C337 1.428 . S
C343 O346 1.301 . S
C343 O347 1.282 . S
O344 U326 2.441 . S
O344 C330 1.249 . S
O345 U326 2.420 . S
O345 C330 1.202 . S
O346 U326 2.455 . S
O346 C343 1.301 . S
O347 U326 2.449 . S
O347 C343 1.282 . S
H348 C321 0.931 . S
H349 C323 0.929 . S
H350 C324 0.930 . S
H351 C325 0.931 . S
H352 C332 0.932 . S
H353 C333 0.930 . S
H354 C334 0.929 . S
H355 C336 0.930 . S
H356 C338 0.932 . S
H357 C339 0.929 . S
H358 C340 0.928 . S
H359 C342 0.932 . S
C360 C361 1.264 . S
C360 C365 1.479 . S
C360 C370 1.465 . S
C361 C360 1.264 . S
C361 C363 1.339 . S
C361 H388 0.931 . S
C362 C363 1.395 . S
C362 C364 1.320 . S
C363 C361 1.339 . S
C363 C362 1.395 . S
C363 H389 0.929 . S
C364 C362 1.320 . S
C364 C365 1.405 . S
C364 H390 0.930 . S
C365 C360 1.479 . S
C365 C364 1.405 . S
C365 H391 0.931 . S
U366 O367 2.454 . S
U366 O368 2.458 . S
U366 C369 2.984 . S
U366 C370 2.847 . S
U366 C383 2.882 . S
U366 O384 2.441 . S
U366 O385 2.420 . S
U366 O386 2.455 . S
U366 O387 2.449 . S
O367 U366 2.454 . S
O367 C369 1.353 . S
O368 U366 2.458 . S
O368 C369 1.286 . S
C369 U366 2.984 . S
C369 O367 1.353 . S
C369 O368 1.286 . S
C369 C371 1.363 . S
C370 C360 1.465 . S
C370 U366 2.847 . S
C370 O384 1.249 . S
C370 O385 1.202 . S
C371 C369 1.363 . S
C371 C373 1.408 . S
C371 C376 1.342 . S
C372 C373 1.310 . S
C372 C375 1.461 . S
C372 H392 0.932 . S
C373 C371 1.408 . S
C373 C372 1.310 . S
C373 H393 0.930 . S
C374 C375 1.474 . S
C374 C376 1.285 . S
C374 H394 0.929 . S
C375 C372 1.461 . S
C375 C374 1.474 . S
C376 C371 1.342 . S
C376 C374 1.285 . S
C376 H395 0.930 . S
C377 C380 1.424 . S
C377 C382 1.245 . S
C377 C383 1.428 . S
C378 C381 1.260 . S
C378 C382 1.477 . S
C378 H396 0.932 . S
C379 C380 1.384 . S
C379 C381 1.479 . S
C379 H397 0.929 . S
C380 C377 1.424 . S
C380 C379 1.384 . S
C380 H398 0.928 . S
C381 C378 1.260 . S
C381 C379 1.479 . S
C382 C377 1.245 . S
C382 C378 1.477 . S
C382 H399 0.932 . S
C383 U366 2.882 . S
C383 C377 1.428 . S
C383 O386 1.301 . S
C383 O387 1.282 . S
O384 U366 2.441 . S
O384 C370 1.249 . S
O385 U366 2.420 . S
O385 C370 1.202 . S
O386 U366 2.455 . S
O386 C383 1.301 . S
O387 U366 2.449 . S
O387 C383 1.282 . S
H388 C361 0.931 . S
H389 C363 0.929 . S
H390 C364 0.930 . S
H391 C365 0.931 . S
H392 C372 0.932 . S
H393 C373 0.930 . S
H394 C374 0.929 . S
H395 C376 0.930 . S
H396 C378 0.932 . S
H397 C379 0.929 . S
H398 C380 0.928 . S
H399 C382 0.932 . S
C400 C401 1.264 . S
C400 C405 1.479 . S
C400 C410 1.465 . S
C401 C400 1.264 . S
C401 C403 1.339 . S
C401 H428 0.931 . S
C402 C403 1.395 . S
C402 C404 1.320 . S
C403 C401 1.339 . S
C403 C402 1.395 . S
C403 H429 0.929 . S
C404 C402 1.320 . S
C404 C405 1.405 . S
C404 H430 0.930 . S
C405 C400 1.479 . S
C405 C404 1.405 . S
C405 H431 0.931 . S
U406 O407 2.454 . S
U406 O408 2.458 . S
U406 C409 2.984 . S
U406 C410 2.847 . S
U406 C423 2.882 . S
U406 O424 2.441 . S
U406 O425 2.420 . S
U406 O426 2.455 . S
U406 O427 2.449 . S
O407 U406 2.454 . S
O407 C409 1.353 . S
O408 U406 2.458 . S
O408 C409 1.286 . S
C409 U406 2.984 . S
C409 O407 1.353 . S
C409 O408 1.286 . S
C409 C411 1.363 . S
C410 C400 1.465 . S
C410 U406 2.847 . S
C410 O424 1.249 . S
C410 O425 1.202 . S
C411 C409 1.363 . S
C411 C413 1.408 . S
C411 C416 1.342 . S
C412 C413 1.310 . S
C412 C415 1.461 . S
C412 H432 0.932 . S
C413 C411 1.408 . S
C413 C412 1.310 . S
C413 H433 0.930 . S
C414 C415 1.474 . S
C414 C416 1.285 . S
C414 H434 0.929 . S
C415 C412 1.461 . S
C415 C414 1.474 . S
C416 C411 1.342 . S
C416 C414 1.285 . S
C416 H435 0.930 . S
C417 C420 1.424 . S
C417 C422 1.245 . S
C417 C423 1.428 . S
C418 C421 1.260 . S
C418 C422 1.477 . S
C418 H436 0.932 . S
C419 C420 1.384 . S
C419 C421 1.479 . S
C419 H437 0.929 . S
C420 C417 1.424 . S
C420 C419 1.384 . S
C420 H438 0.928 . S
C421 C418 1.260 . S
C421 C419 1.479 . S
C422 C417 1.245 . S
C422 C418 1.477 . S
C422 H439 0.932 . S
C423 U406 2.882 . S
C423 C417 1.428 . S
C423 O426 1.301 . S
C423 O427 1.282 . S
O424 U406 2.441 . S
O424 C410 1.249 . S
O425 U406 2.420 . S
O425 C410 1.202 . S
O426 U406 2.455 . S
O426 C423 1.301 . S
O427 U406 2.449 . S
O427 C423 1.282 . S
H428 C401 0.931 . S
H429 C403 0.929 . S
H430 C404 0.930 . S
H431 C405 0.931 . S
H432 C412 0.932 . S
H433 C413 0.930 . S
H434 C414 0.929 . S
H435 C416 0.930 . S
H436 C418 0.932 . S
H437 C419 0.929 . S
H438 C420 0.928 . S
H439 C422 0.932 . S
C440 C441 1.264 . S
C440 C445 1.479 . S
C440 C450 1.465 . S
C441 C440 1.264 . S
C441 C443 1.339 . S
C441 H468 0.931 . S
C442 C443 1.395 . S
C442 C444 1.320 . S
C443 C441 1.339 . S
C443 C442 1.395 . S
C443 H469 0.929 . S
C444 C442 1.320 . S
C444 C445 1.405 . S
C444 H470 0.930 . S
C445 C440 1.479 . S
C445 C444 1.405 . S
C445 H471 0.931 . S
U446 O447 2.454 . S
U446 O448 2.458 . S
U446 C449 2.984 . S
U446 C450 2.847 . S
U446 C463 2.882 . S
U446 O464 2.441 . S
U446 O465 2.420 . S
U446 O466 2.455 . S
U446 O467 2.449 . S
O447 U446 2.454 . S
O447 C449 1.353 . S
O448 U446 2.458 . S
O448 C449 1.286 . S
C449 U446 2.984 . S
C449 O447 1.353 . S
C449 O448 1.286 . S
C449 C451 1.363 . S
C450 C440 1.465 . S
C450 U446 2.847 . S
C450 O464 1.249 . S
C450 O465 1.202 . S
C451 C449 1.363 . S
C451 C453 1.408 . S
C451 C456 1.342 . S
C452 C453 1.310 . S
C452 C455 1.461 . S
C452 H472 0.932 . S
C453 C451 1.408 . S
C453 C452 1.310 . S
C453 H473 0.930 . S
C454 C455 1.474 . S
C454 C456 1.285 . S
C454 H474 0.929 . S
C455 C452 1.461 . S
C455 C454 1.474 . S
C456 C451 1.342 . S
C456 C454 1.285 . S
C456 H475 0.930 . S
C457 C460 1.424 . S
C457 C462 1.245 . S
C457 C463 1.428 . S
C458 C461 1.260 . S
C458 C462 1.477 . S
C458 H476 0.932 . S
C459 C460 1.384 . S
C459 C461 1.479 . S
C459 H477 0.929 . S
C460 C457 1.424 . S
C460 C459 1.384 . S
C460 H478 0.928 . S
C461 C458 1.260 . S
C461 C459 1.479 . S
C462 C457 1.245 . S
C462 C458 1.477 . S
C462 H479 0.932 . S
C463 U446 2.882 . S
C463 C457 1.428 . S
C463 O466 1.301 . S
C463 O467 1.282 . S
O464 U446 2.441 . S
O464 C450 1.249 . S
O465 U446 2.420 . S
O465 C450 1.202 . S
O466 U446 2.455 . S
O466 C463 1.301 . S
O467 U446 2.449 . S
O467 C463 1.282 . S
H468 C441 0.931 . S
H469 C443 0.929 . S
H470 C444 0.930 . S
H471 C445 0.931 . S
H472 C452 0.932 . S
H473 C453 0.930 . S
H474 C454 0.929 . S
H475 C456 0.930 . S
H476 C458 0.932 . S
H477 C459 0.929 . S
H478 C460 0.928 . S
H479 C462 0.932 . S
C480 C481 1.264 . S
C480 C485 1.479 . S
C480 C490 1.465 . S
C481 C480 1.264 . S
C481 C483 1.339 . S
C481 H508 0.931 . S
C482 C483 1.395 . S
C482 C484 1.320 . S
C483 C481 1.339 . S
C483 C482 1.395 . S
C483 H509 0.929 . S
C484 C482 1.320 . S
C484 C485 1.405 . S
C484 H510 0.930 . S
C485 C480 1.479 . S
C485 C484 1.405 . S
C485 H511 0.931 . S
U486 O487 2.454 . S
U486 O488 2.458 . S
U486 C489 2.984 . S
U486 C490 2.847 . S
U486 C503 2.882 . S
U486 O504 2.441 . S
U486 O505 2.420 . S
U486 O506 2.455 . S
U486 O507 2.449 . S
O487 U486 2.454 . S
O487 C489 1.353 . S
O488 U486 2.458 . S
O488 C489 1.286 . S
C489 U486 2.984 . S
C489 O487 1.353 . S
C489 O488 1.286 . S
C489 C491 1.363 . S
C490 C480 1.465 . S
C490 U486 2.847 . S
C490 O504 1.249 . S
C490 O505 1.202 . S
C491 C489 1.363 . S
C491 C493 1.408 . S
C491 C496 1.342 . S
C492 C493 1.310 . S
C492 C495 1.461 . S
C492 H512 0.932 . S
C493 C491 1.408 . S
C493 C492 1.310 . S
C493 H513 0.930 . S
C494 C495 1.474 . S
C494 C496 1.285 . S
C494 H514 0.929 . S
C495 C492 1.461 . S
C495 C494 1.474 . S
C496 C491 1.342 . S
C496 C494 1.285 . S
C496 H515 0.930 . S
C497 C500 1.424 . S
C497 C502 1.245 . S
C497 C503 1.428 . S
C498 C501 1.260 . S
C498 C502 1.477 . S
C498 H516 0.932 . S
C499 C500 1.384 . S
C499 C501 1.479 . S
C499 H517 0.929 . S
C500 C497 1.424 . S
C500 C499 1.384 . S
C500 H518 0.928 . S
C501 C498 1.260 . S
C501 C499 1.479 . S
C502 C497 1.245 . S
C502 C498 1.477 . S
C502 H519 0.932 . S
C503 U486 2.882 . S
C503 C497 1.428 . S
C503 O506 1.301 . S
C503 O507 1.282 . S
O504 U486 2.441 . S
O504 C490 1.249 . S
O505 U486 2.420 . S
O505 C490 1.202 . S
O506 U486 2.455 . S
O506 C503 1.301 . S
O507 U486 2.449 . S
O507 C503 1.282 . S
H508 C481 0.931 . S
H509 C483 0.929 . S
H510 C484 0.930 . S
H511 C485 0.931 . S
H512 C492 0.932 . S
H513 C493 0.930 . S
H514 C494 0.929 . S
H515 C496 0.930 . S
H516 C498 0.932 . S
H517 C499 0.929 . S
H518 C500 0.928 . S
H519 C502 0.932 . S
C520 C521 1.264 . S
C520 C525 1.479 . S
C520 C530 1.465 . S
C521 C520 1.264 . S
C521 C523 1.339 . S
C521 H548 0.931 . S
C522 C523 1.395 . S
C522 C524 1.320 . S
C523 C521 1.339 . S
C523 C522 1.395 . S
C523 H549 0.929 . S
C524 C522 1.320 . S
C524 C525 1.405 . S
C524 H550 0.930 . S
C525 C520 1.479 . S
C525 C524 1.405 . S
C525 H551 0.931 . S
U526 O527 2.454 . S
U526 O528 2.458 . S
U526 C529 2.984 . S
U526 C530 2.847 . S
U526 C543 2.882 . S
U526 O544 2.441 . S
U526 O545 2.420 . S
U526 O546 2.455 . S
U526 O547 2.449 . S
O527 U526 2.454 . S
O527 C529 1.353 . S
O528 U526 2.458 . S
O528 C529 1.286 . S
C529 U526 2.984 . S
C529 O527 1.353 . S
C529 O528 1.286 . S
C529 C531 1.363 . S
C530 C520 1.465 . S
C530 U526 2.847 . S
C530 O544 1.249 . S
C530 O545 1.202 . S
C531 C529 1.363 . S
C531 C533 1.408 . S
C531 C536 1.342 . S
C532 C533 1.310 . S
C532 C535 1.461 . S
C532 H552 0.932 . S
C533 C531 1.408 . S
C533 C532 1.310 . S
C533 H553 0.930 . S
C534 C535 1.474 . S
C534 C536 1.285 . S
C534 H554 0.929 . S
C535 C532 1.461 . S
C535 C534 1.474 . S
C536 C531 1.342 . S
C536 C534 1.285 . S
C536 H555 0.930 . S
C537 C540 1.424 . S
C537 C542 1.245 . S
C537 C543 1.428 . S
C538 C541 1.260 . S
C538 C542 1.477 . S
C538 H556 0.932 . S
C539 C540 1.384 . S
C539 C541 1.479 . S
C539 H557 0.929 . S
C540 C537 1.424 . S
C540 C539 1.384 . S
C540 H558 0.928 . S
C541 C538 1.260 . S
C541 C539 1.479 . S
C542 C537 1.245 . S
C542 C538 1.477 . S
C542 H559 0.932 . S
C543 U526 2.882 . S
C543 C537 1.428 . S
C543 O546 1.301 . S
C543 O547 1.282 . S
O544 U526 2.441 . S
O544 C530 1.249 . S
O545 U526 2.420 . S
O545 C530 1.202 . S
O546 U526 2.455 . S
O546 C543 1.301 . S
O547 U526 2.449 . S
O547 C543 1.282 . S
H548 C521 0.931 . S
H549 C523 0.929 . S
H550 C524 0.930 . S
H551 C525 0.931 . S
H552 C532 0.932 . S
H553 C533 0.930 . S
H554 C534 0.929 . S
H555 C536 0.930 . S
H556 C538 0.932 . S
H557 C539 0.929 . S
H558 C540 0.928 . S
H559 C542 0.932 . S
C560 C561 1.264 . S
C560 C565 1.479 . S
C560 C570 1.465 . S
C561 C560 1.264 . S
C561 C563 1.339 . S
C561 H588 0.931 . S
C562 C563 1.395 . S
C562 C564 1.320 . S
C563 C561 1.339 . S
C563 C562 1.395 . S
C563 H589 0.929 . S
C564 C562 1.320 . S
C564 C565 1.405 . S
C564 H590 0.930 . S
C565 C560 1.479 . S
C565 C564 1.405 . S
C565 H591 0.931 . S
U566 O567 2.454 . S
U566 O568 2.458 . S
U566 C569 2.984 . S
U566 C570 2.847 . S
U566 C583 2.882 . S
U566 O584 2.441 . S
U566 O585 2.420 . S
U566 O586 2.455 . S
U566 O587 2.449 . S
O567 U566 2.454 . S
O567 C569 1.353 . S
O568 U566 2.458 . S
O568 C569 1.286 . S
C569 U566 2.984 . S
C569 O567 1.353 . S
C569 O568 1.286 . S
C569 C571 1.363 . S
C570 C560 1.465 . S
C570 U566 2.847 . S
C570 O584 1.249 . S
C570 O585 1.202 . S
C571 C569 1.363 . S
C571 C573 1.408 . S
C571 C576 1.342 . S
C572 C573 1.310 . S
C572 C575 1.461 . S
C572 H592 0.932 . S
C573 C571 1.408 . S
C573 C572 1.310 . S
C573 H593 0.930 . S
C574 C575 1.474 . S
C574 C576 1.285 . S
C574 H594 0.929 . S
C575 C572 1.461 . S
C575 C574 1.474 . S
C576 C571 1.342 . S
C576 C574 1.285 . S
C576 H595 0.930 . S
C577 C580 1.424 . S
C577 C582 1.245 . S
C577 C583 1.428 . S
C578 C581 1.260 . S
C578 C582 1.477 . S
C578 H596 0.932 . S
C579 C580 1.384 . S
C579 C581 1.479 . S
C579 H597 0.929 . S
C580 C577 1.424 . S
C580 C579 1.384 . S
C580 H598 0.928 . S
C581 C578 1.260 . S
C581 C579 1.479 . S
C582 C577 1.245 . S
C582 C578 1.477 . S
C582 H599 0.932 . S
C583 U566 2.882 . S
C583 C577 1.428 . S
C583 O586 1.301 . S
C583 O587 1.282 . S
O584 U566 2.441 . S
O584 C570 1.249 . S
O585 U566 2.420 . S
O585 C570 1.202 . S
O586 U566 2.455 . S
O586 C583 1.301 . S
O587 U566 2.449 . S
O587 C583 1.282 . S
H588 C561 0.931 . S
H589 C563 0.929 . S
H590 C564 0.930 . S
H591 C565 0.931 . S
H592 C572 0.932 . S
H593 C573 0.930 . S
H594 C574 0.929 . S
H595 C576 0.930 . S
H596 C578 0.932 . S
H597 C579 0.929 . S
H598 C580 0.928 . S
H599 C582 0.932 . S
C600 C601 1.264 . S
C600 C605 1.479 . S
C600 C610 1.465 . S
C601 C600 1.264 . S
C601 C603 1.339 . S
C601 H628 0.931 . S
C602 C603 1.395 . S
C602 C604 1.320 . S
C603 C601 1.339 . S
C603 C602 1.395 . S
C603 H629 0.929 . S
C604 C602 1.320 . S
C604 C605 1.405 . S
C604 H630 0.930 . S
C605 C600 1.479 . S
C605 C604 1.405 . S
C605 H631 0.931 . S
U606 O607 2.454 . S
U606 O608 2.458 . S
U606 C609 2.984 . S
U606 C610 2.847 . S
U606 C623 2.882 . S
U606 O624 2.441 . S
U606 O625 2.420 . S
U606 O626 2.455 . S
U606 O627 2.449 . S
O607 U606 2.454 . S
O607 C609 1.353 . S
O608 U606 2.458 . S
O608 C609 1.286 . S
C609 U606 2.984 . S
C609 O607 1.353 . S
C609 O608 1.286 . S
C609 C611 1.363 . S
C610 C600 1.465 . S
C610 U606 2.847 . S
C610 O624 1.249 . S
C610 O625 1.202 . S
C611 C609 1.363 . S
C611 C613 1.408 . S
C611 C616 1.342 . S
C612 C613 1.310 . S
C612 C615 1.461 . S
C612 H632 0.932 . S
C613 C611 1.408 . S
C613 C612 1.310 . S
C613 H633 0.930 . S
C614 C615 1.474 . S
C614 C616 1.285 . S
C614 H634 0.929 . S
C615 C612 1.461 . S
C615 C614 1.474 . S
C616 C611 1.342 . S
C616 C614 1.285 . S
C616 H635 0.930 . S
C617 C620 1.424 . S
C617 C622 1.245 . S
C617 C623 1.428 . S
C618 C621 1.260 . S
C618 C622 1.477 . S
C618 H636 0.932 . S
C619 C620 1.384 . S
C619 C621 1.479 . S
C619 H637 0.929 . S
C620 C617 1.424 . S
C620 C619 1.384 . S
C620 H638 0.928 . S
C621 C618 1.260 . S
C621 C619 1.479 . S
C622 C617 1.245 . S
C622 C618 1.477 . S
C622 H639 0.932 . S
C623 U606 2.882 . S
C623 C617 1.428 . S
C623 O626 1.301 . S
C623 O627 1.282 . S
O624 U606 2.441 . S
O624 C610 1.249 . S
O625 U606 2.420 . S
O625 C610 1.202 . S
O626 U606 2.455 . S
O626 C623 1.301 . S
O627 U606 2.449 . S
O627 C623 1.282 . S
H628 C601 0.931 . S
H629 C603 0.929 . S
H630 C604 0.930 . S
H631 C605 0.931 . S
H632 C612 0.932 . S
H633 C613 0.930 . S
H634 C614 0.929 . S
H635 C616 0.930 . S
H636 C618 0.932 . S
H637 C619 0.929 . S
H638 C620 0.928 . S
H639 C622 0.932 . S
H640 C652 0.930 . S
H641 C654 0.930 . S
H642 C655 0.930 . S
H643 C659 0.959 . S
H644 C659 0.959 . S
H645 C659 0.961 . S
H646 C660 0.960 . S
H647 C660 0.961 . S
H648 C660 0.959 . S
H649 C663 0.929 . S
H650 C664 0.931 . S
H651 C666 0.930 . S
C652 H640 0.930 . S
C652 C653 1.399 . S
C652 C657 1.399 . S
C653 C652 1.399 . S
C653 C654 1.376 . S
C654 H641 0.930 . S
C654 C653 1.376 . S
C654 C655 1.388 . S
C655 H642 0.930 . S
C655 C654 1.388 . S
C655 C656 1.390 . S
C656 C655 1.390 . S
C656 C657 1.394 . S
C656 C662 1.465 . S
C657 C652 1.399 . S
C657 C656 1.394 . S
C657 C658 1.516 . S
C658 C657 1.516 . S
C658 C659 1.502 . S
C658 C660 1.561 . S
C658 C661 1.526 . S
C659 H643 0.959 . S
C659 H644 0.959 . S
C659 H645 0.961 . S
C659 C658 1.502 . S
C660 H646 0.960 . S
C660 H647 0.961 . S
C660 H648 0.959 . S
C660 C658 1.561 . S
C661 C658 1.526 . S
C661 C662 1.396 . S
C661 C666 1.390 . S
C662 C656 1.465 . S
C662 C661 1.396 . S
C662 C663 1.399 . S
C663 H649 0.929 . S
C663 C662 1.399 . S
C663 C664 1.385 . S
C664 H650 0.931 . S
C664 C663 1.385 . S
C664 C665 1.389 . S
C665 C664 1.389 . S
C665 C666 1.387 . S
C666 H651 0.930 . S
C666 C661 1.390 . S
C666 C665 1.387 . S
H667 C679 0.930 . S
H668 C681 0.930 . S
H669 C682 0.930 . S
H670 C686 0.959 . S
H671 C686 0.959 . S
H672 C686 0.961 . S
H673 C687 0.960 . S
H674 C687 0.961 . S
H675 C687 0.959 . S
H676 C690 0.929 . S
H677 C691 0.931 . S
H678 C693 0.930 . S
C679 H667 0.930 . S
C679 C680 1.399 . S
C679 C684 1.399 . S
C680 C679 1.399 . S
C680 C681 1.376 . S
C681 H668 0.930 . S
C681 C680 1.376 . S
C681 C682 1.388 . S
C682 H669 0.930 . S
C682 C681 1.388 . S
C682 C683 1.390 . S
C683 C682 1.390 . S
C683 C684 1.394 . S
C683 C689 1.465 . S
C684 C679 1.399 . S
C684 C683 1.394 . S
C684 C685 1.516 . S
C685 C684 1.516 . S
C685 C686 1.502 . S
C685 C687 1.561 . S
C685 C688 1.526 . S
C686 H670 0.959 . S
C686 H671 0.959 . S
C686 H672 0.961 . S
C686 C685 1.502 . S
C687 H673 0.960 . S
C687 H674 0.961 . S
C687 H675 0.959 . S
C687 C685 1.561 . S
C688 C685 1.526 . S
C688 C689 1.396 . S
C688 C693 1.390 . S
C689 C683 1.465 . S
C689 C688 1.396 . S
C689 C690 1.399 . S
C690 H676 0.929 . S
C690 C689 1.399 . S
C690 C691 1.385 . S
C691 H677 0.931 . S
C691 C690 1.385 . S
C691 C692 1.389 . S
C692 C691 1.389 . S
C692 C693 1.387 . S
C693 H678 0.930 . S
C693 C688 1.390 . S
C693 C692 1.387 . S
H694 C706 0.930 . S
H695 C708 0.930 . S
H696 C709 0.930 . S
H697 C713 0.959 . S
H698 C713 0.959 . S
H699 C713 0.961 . S
H700 C714 0.960 . S
H701 C714 0.961 . S
H702 C714 0.959 . S
H703 C717 0.929 . S
H704 C718 0.931 . S
H705 C720 0.930 . S
C706 H694 0.930 . S
C706 C707 1.399 . S
C706 C711 1.399 . S
C707 C706 1.399 . S
C707 C708 1.376 . S
C708 H695 0.930 . S
C708 C707 1.376 . S
C708 C709 1.388 . S
C709 H696 0.930 . S
C709 C708 1.388 . S
C709 C710 1.390 . S
C710 C709 1.390 . S
C710 C711 1.394 . S
C710 C716 1.465 . S
C711 C706 1.399 . S
C711 C710 1.394 . S
C711 C712 1.516 . S
C712 C711 1.516 . S
C712 C713 1.502 . S
C712 C714 1.561 . S
C712 C715 1.526 . S
C713 H697 0.959 . S
C713 H698 0.959 . S
C713 H699 0.961 . S
C713 C712 1.502 . S
C714 H700 0.960 . S
C714 H701 0.961 . S
C714 H702 0.959 . S
C714 C712 1.561 . S
C715 C712 1.526 . S
C715 C716 1.396 . S
C715 C720 1.390 . S
C716 C710 1.465 . S
C716 C715 1.396 . S
C716 C717 1.399 . S
C717 H703 0.929 . S
C717 C716 1.399 . S
C717 C718 1.385 . S
C718 H704 0.931 . S
C718 C717 1.385 . S
C718 C719 1.389 . S
C719 C718 1.389 . S
C719 C720 1.387 . S
C720 H705 0.930 . S
C720 C715 1.390 . S
C720 C719 1.387 . S
H721 C733 0.930 . S
H722 C735 0.930 . S
H723 C736 0.955 . S
H724 C740 0.959 . S
H725 C740 0.959 . S
H726 C740 0.961 . S
H727 C741 1.017 . S
H728 C741 0.934 1_554 S
H729 C741 0.915 1_554 S
H730 C744 0.929 . S
H731 C745 0.931 . S
H732 C747 0.930 . S
C733 H721 0.930 . S
C733 C734 1.399 . S
C733 C738 1.399 . S
C734 C733 1.399 . S
C734 C735 1.376 . S
C735 H722 0.930 . S
C735 C734 1.376 . S
C735 C736 1.388 . S
C736 H723 0.955 . S
C736 C735 1.388 . S
C736 C737 1.390 . S
C737 C736 1.390 . S
C737 C738 1.394 . S
C737 C743 1.465 1_556 S
C738 C733 1.399 . S
C738 C737 1.394 . S
C738 C739 1.516 . S
C739 C738 1.516 . S
C739 C740 1.502 . S
C739 C741 1.580 . S
C739 C742 1.526 1_556 S
C740 H724 0.959 . S
C740 H725 0.959 . S
C740 H726 0.961 . S
C740 C739 1.502 . S
C741 H727 1.017 . S
C741 H728 0.934 1_556 S
C741 H729 0.915 1_556 S
C741 C739 1.580 . S
C742 C739 1.526 1_554 S
C742 C743 1.396 . S
C742 C747 1.390 . S
C743 C737 1.465 1_554 S
C743 C742 1.396 . S
C743 C744 1.399 . S
C744 H730 0.929 . S
C744 C743 1.399 . S
C744 C745 1.385 . S
C745 H731 0.931 . S
C745 C744 1.385 . S
C745 C746 1.389 . S
C746 C745 1.389 . S
C746 C747 1.387 . S
C747 H732 0.930 . S
C747 C742 1.390 . S
C747 C746 1.387 . S
H748 C760 0.930 . S
H749 C762 0.930 . S
H750 C763 0.930 1_556 S
H751 C767 0.959 . S
H752 C767 0.959 . S
H753 C767 0.961 . S
H754 C768 0.960 . S
H755 C768 0.961 . S
H756 C768 0.959 . S
H757 C771 0.929 . S
H758 C772 0.931 . S
H759 C774 0.930 . S
C760 H748 0.930 . S
C760 C761 1.399 . S
C760 C765 1.399 . S
C761 C760 1.399 . S
C761 C762 1.376 . S
C762 H749 0.930 . S
C762 C761 1.376 . S
C762 C763 1.388 . S
C763 H750 0.930 1_554 S
C763 C762 1.388 . S
C763 C764 1.390 . S
C764 C763 1.390 . S
C764 C765 1.394 . S
C764 C770 1.465 1_554 S
C765 C760 1.399 . S
C765 C764 1.394 . S
C765 C766 1.516 . S
C766 C765 1.516 . S
C766 C767 1.502 . S
C766 C768 1.561 . S
C766 C769 1.526 1_554 S
C767 H751 0.959 . S
C767 H752 0.959 . S
C767 H753 0.961 . S
C767 C766 1.502 . S
C768 H754 0.960 . S
C768 H755 0.961 . S
C768 H756 0.959 . S
C768 C766 1.561 . S
C769 C766 1.526 1_556 S
C769 C770 1.396 . S
C769 C774 1.390 . S
C770 C764 1.465 1_556 S
C770 C769 1.396 . S
C770 C771 1.399 . S
C771 H757 0.929 . S
C771 C770 1.399 . S
C771 C772 1.385 . S
C772 H758 0.931 . S
C772 C771 1.385 . S
C772 C773 1.389 . S
C773 C772 1.389 . S
C773 C774 1.387 . S
C774 H759 0.930 . S
C774 C769 1.390 . S
C774 C773 1.387 . S
H775 C787 0.930 . S
H776 C789 0.930 . S
H777 C790 0.930 . S
H778 C794 0.959 . S
H779 C794 0.959 . S
H780 C794 0.961 . S
H781 C795 0.960 . S
H782 C795 0.961 . S
H783 C795 0.959 . S
H784 C798 0.929 . S
H785 C799 0.931 . S
H786 C801 0.930 . S
C787 H775 0.930 . S
C787 C788 1.399 . S
C787 C792 1.399 . S
C788 C787 1.399 . S
C788 C789 1.376 . S
C789 H776 0.930 . S
C789 C788 1.376 . S
C789 C790 1.388 . S
C790 H777 0.930 . S
C790 C789 1.388 . S
C790 C791 1.390 . S
C791 C790 1.390 . S
C791 C792 1.394 . S
C791 C797 1.465 . S
C792 C787 1.399 . S
C792 C791 1.394 . S
C792 C793 1.516 . S
C793 C792 1.516 . S
C793 C794 1.502 . S
C793 C795 1.561 . S
C793 C796 1.526 . S
C794 H778 0.959 . S
C794 H779 0.959 . S
C794 H780 0.961 . S
C794 C793 1.502 . S
C795 H781 0.960 . S
C795 H782 0.961 . S
C795 H783 0.959 . S
C795 C793 1.561 . S
C796 C793 1.526 . S
C796 C797 1.396 . S
C796 C801 1.390 . S
C797 C791 1.465 . S
C797 C796 1.396 . S
C797 C798 1.399 . S
C798 H784 0.929 . S
C798 C797 1.399 . S
C798 C799 1.385 . S
C799 H785 0.931 . S
C799 C798 1.385 . S
C799 C800 1.389 . S
C800 C799 1.389 . S
C800 C801 1.387 . S
C801 H786 0.930 . S
C801 C796 1.390 . S
C801 C800 1.387 . S
H802 C814 0.930 . S
H803 C816 0.930 . S
H804 C817 0.930 . S
H805 C821 0.959 . S
H806 C821 0.959 . S
H807 C821 0.961 . S
H808 C822 0.960 . S
H809 C822 0.961 . S
H810 C822 0.959 . S
H811 C825 0.929 . S
H812 C826 0.931 . S
H813 C828 0.930 . S
C814 H802 0.930 . S
C814 C815 1.399 . S
C814 C819 1.399 . S
C815 C814 1.399 . S
C815 C816 1.376 . S
C816 H803 0.930 . S
C816 C815 1.376 . S
C816 C817 1.388 . S
C817 H804 0.930 . S
C817 C816 1.388 . S
C817 C818 1.390 . S
C818 C817 1.390 . S
C818 C819 1.394 . S
C818 C824 1.465 . S
C819 C814 1.399 . S
C819 C818 1.394 . S
C819 C820 1.516 . S
C820 C819 1.516 . S
C820 C821 1.502 . S
C820 C822 1.561 . S
C820 C823 1.526 . S
C821 H805 0.959 . S
C821 H806 0.959 . S
C821 H807 0.961 . S
C821 C820 1.502 . S
C822 H808 0.960 . S
C822 H809 0.961 . S
C822 H810 0.959 . S
C822 C820 1.561 . S
C823 C820 1.526 . S
C823 C824 1.396 . S
C823 C828 1.390 . S
C824 C818 1.465 . S
C824 C823 1.396 . S
C824 C825 1.399 . S
C825 H811 0.929 . S
C825 C824 1.399 . S
C825 C826 1.385 . S
C826 H812 0.931 . S
C826 C825 1.385 . S
C826 C827 1.389 . S
C827 C826 1.389 . S
C827 C828 1.387 . S
C828 H813 0.930 . S
C828 C823 1.390 . S
C828 C827 1.387 . S
H829 C841 0.930 . S
H830 C843 0.930 . S
H831 C844 0.930 . S
H832 C848 0.959 . S
H833 C848 0.959 . S
H834 C848 0.961 . S
H835 C849 0.960 . S
H836 C849 0.961 . S
H837 C849 0.959 . S
H838 C852 0.929 . S
H839 C853 0.931 . S
H840 C855 0.930 . S
C841 H829 0.930 . S
C841 C842 1.399 . S
C841 C846 1.399 . S
C842 C841 1.399 . S
C842 C843 1.376 . S
C843 H830 0.930 . S
C843 C842 1.376 . S
C843 C844 1.388 . S
C844 H831 0.930 . S
C844 C843 1.388 . S
C844 C845 1.390 . S
C845 C844 1.390 . S
C845 C846 1.394 . S
C845 C851 1.465 . S
C846 C841 1.399 . S
C846 C845 1.394 . S
C846 C847 1.516 . S
C847 C846 1.516 . S
C847 C848 1.502 . S
C847 C849 1.561 . S
C847 C850 1.526 . S
C848 H832 0.959 . S
C848 H833 0.959 . S
C848 H834 0.961 . S
C848 C847 1.502 . S
C849 H835 0.960 . S
C849 H836 0.961 . S
C849 H837 0.959 . S
C849 C847 1.561 . S
C850 C847 1.526 . S
C850 C851 1.396 . S
C850 C855 1.390 . S
C851 C845 1.465 . S
C851 C850 1.396 . S
C851 C852 1.399 . S
C852 H838 0.929 . S
C852 C851 1.399 . S
C852 C853 1.385 . S
C853 H839 0.931 . S
C853 C852 1.385 . S
C853 C854 1.389 . S
C854 C853 1.389 . S
C854 C855 1.387 . S
C855 H840 0.930 . S
C855 C850 1.390 . S
C855 C854 1.387 . S
H856 C868 0.930 . S
H857 C870 0.930 . S
H858 C871 0.930 . S
H859 C875 0.959 . S
H860 C875 0.959 . S
H861 C875 0.961 . S
H862 C876 0.960 . S
H863 C876 0.961 . S
H864 C876 0.959 . S
H865 C879 0.929 . S
H866 C880 0.931 . S
H867 C882 0.930 . S
C868 H856 0.930 . S
C868 C869 1.399 . S
C868 C873 1.399 . S
C869 C868 1.399 . S
C869 C870 1.376 . S
C870 H857 0.930 . S
C870 C869 1.376 . S
C870 C871 1.388 . S
C871 H858 0.930 . S
C871 C870 1.388 . S
C871 C872 1.390 . S
C872 C871 1.390 . S
C872 C873 1.394 . S
C872 C878 1.465 . S
C873 C868 1.399 . S
C873 C872 1.394 . S
C873 C874 1.516 . S
C874 C873 1.516 . S
C874 C875 1.502 . S
C874 C876 1.561 . S
C874 C877 1.526 . S
C875 H859 0.959 . S
C875 H860 0.959 . S
C875 H861 0.961 . S
C875 C874 1.502 . S
C876 H862 0.960 . S
C876 H863 0.961 . S
C876 H864 0.959 . S
C876 C874 1.561 . S
C877 C874 1.526 . S
C877 C878 1.396 . S
C877 C882 1.390 . S
C878 C872 1.465 . S
C878 C877 1.396 . S
C878 C879 1.399 . S
C879 H865 0.929 . S
C879 C878 1.399 . S
C879 C880 1.385 . S
C880 H866 0.931 . S
C880 C879 1.385 . S
C880 C881 1.389 . S
C881 C880 1.389 . S
C881 C882 1.387 . S
C882 H867 0.930 . S
C882 C877 1.390 . S
C882 C881 1.387 . S
H883 C895 0.930 . S
H884 C897 0.930 . S
H885 C898 0.930 . S
H886 C902 0.959 . S
H887 C902 0.959 . S
H888 C902 0.961 . S
H889 C903 0.960 . S
H890 C903 0.961 . S
H891 C903 0.959 . S
H892 C906 0.929 . S
H893 C907 0.931 . S
H894 C909 0.930 . S
C895 H883 0.930 . S
C895 C896 1.399 . S
C895 C900 1.399 . S
C896 C895 1.399 . S
C896 C897 1.376 . S
C897 H884 0.930 . S
C897 C896 1.376 . S
C897 C898 1.388 . S
C898 H885 0.930 . S
C898 C897 1.388 . S
C898 C899 1.390 . S
C899 C898 1.390 . S
C899 C900 1.394 . S
C899 C905 1.465 . S
C900 C895 1.399 . S
C900 C899 1.394 . S
C900 C901 1.516 . S
C901 C900 1.516 . S
C901 C902 1.502 . S
C901 C903 1.561 . S
C901 C904 1.526 . S
C902 H886 0.959 . S
C902 H887 0.959 . S
C902 H888 0.961 . S
C902 C901 1.502 . S
C903 H889 0.960 . S
C903 H890 0.961 . S
C903 H891 0.959 . S
C903 C901 1.561 . S
C904 C901 1.526 . S
C904 C905 1.396 . S
C904 C909 1.390 . S
C905 C899 1.465 . S
C905 C904 1.396 . S
C905 C906 1.399 . S
C906 H892 0.929 . S
C906 C905 1.399 . S
C906 C907 1.385 . S
C907 H893 0.931 . S
C907 C906 1.385 . S
C907 C908 1.389 . S
C908 C907 1.389 . S
C908 C909 1.387 . S
C909 H894 0.930 . S
C909 C904 1.390 . S
C909 C908 1.387 . S
H910 C922 0.930 . S
H911 C924 0.930 . S
H912 C925 0.930 . S
H913 C929 0.959 . S
H914 C929 0.959 . S
H915 C929 0.961 . S
H916 C930 0.960 . S
H917 C930 0.961 . S
H918 C930 0.959 . S
H919 C933 0.929 . S
H920 C934 0.931 . S
H921 C936 0.930 . S
C922 H910 0.930 . S
C922 C923 1.399 . S
C922 C927 1.399 . S
C923 C922 1.399 . S
C923 C924 1.376 . S
C924 H911 0.930 . S
C924 C923 1.376 . S
C924 C925 1.388 . S
C925 H912 0.930 . S
C925 C924 1.388 . S
C925 C926 1.390 . S
C926 C925 1.390 . S
C926 C927 1.394 . S
C926 C932 1.465 . S
C927 C922 1.399 . S
C927 C926 1.394 . S
C927 C928 1.516 . S
C928 C927 1.516 . S
C928 C929 1.502 . S
C928 C930 1.561 . S
C928 C931 1.526 . S
C929 H913 0.959 . S
C929 H914 0.959 . S
C929 H915 0.961 . S
C929 C928 1.502 . S
C930 H916 0.960 . S
C930 H917 0.961 . S
C930 H918 0.959 . S
C930 C928 1.561 . S
C931 C928 1.526 . S
C931 C932 1.396 . S
C931 C936 1.390 . S
C932 C926 1.465 . S
C932 C931 1.396 . S
C932 C933 1.399 . S
C933 H919 0.929 . S
C933 C932 1.399 . S
C933 C934 1.385 . S
C934 H920 0.931 . S
C934 C933 1.385 . S
C934 C935 1.389 . S
C935 C934 1.389 . S
C935 C936 1.387 . S
C936 H921 0.930 . S
C936 C931 1.390 . S
C936 C935 1.387 . S
H937 C949 0.930 . S
H938 C951 0.930 . S
H939 C952 0.930 . S
H940 C956 0.959 . S
H941 C956 0.959 . S
H942 C956 0.961 . S
H943 C957 0.960 . S
H944 C957 0.961 . S
H945 C957 0.959 . S
H946 C960 0.929 . S
H947 C961 0.931 . S
H948 C963 0.930 . S
C949 H937 0.930 . S
C949 C950 1.399 . S
C949 C954 1.399 . S
C950 C949 1.399 . S
C950 C951 1.376 . S
C951 H938 0.930 . S
C951 C950 1.376 . S
C951 C952 1.388 . S
C952 H939 0.930 . S
C952 C951 1.388 . S
C952 C953 1.390 . S
C953 C952 1.390 . S
C953 C954 1.394 . S
C953 C959 1.465 . S
C954 C949 1.399 . S
C954 C953 1.394 . S
C954 C955 1.516 . S
C955 C954 1.516 . S
C955 C956 1.502 . S
C955 C957 1.561 . S
C955 C958 1.526 . S
C956 H940 0.959 . S
C956 H941 0.959 . S
C956 H942 0.961 . S
C956 C955 1.502 . S
C957 H943 0.960 . S
C957 H944 0.961 . S
C957 H945 0.959 . S
C957 C955 1.561 . S
C958 C955 1.526 . S
C958 C959 1.396 . S
C958 C963 1.390 . S
C959 C953 1.465 . S
C959 C958 1.396 . S
C959 C960 1.399 . S
C960 H946 0.929 . S
C960 C959 1.399 . S
C960 C961 1.385 . S
C961 H947 0.931 . S
C961 C960 1.385 . S
C961 C962 1.389 . S
C962 C961 1.389 . S
C962 C963 1.387 . S
C963 H948 0.930 . S
C963 C958 1.390 . S
C963 C962 1.387 . S
H964 C976 0.930 . S
H965 C978 0.930 . S
H966 C979 0.930 . S
H967 C983 0.959 . S
H968 C983 0.959 . S
H969 C983 0.961 . S
H970 C984 0.960 . S
H971 C984 0.961 . S
H972 C984 0.959 . S
H973 C987 0.929 . S
H974 C988 0.931 . S
H975 C990 0.930 . S
C976 H964 0.930 . S
C976 C977 1.399 . S
C976 C981 1.399 . S
C977 C976 1.399 . S
C977 C978 1.376 . S
C978 H965 0.930 . S
C978 C977 1.376 . S
C978 C979 1.388 . S
C979 H966 0.930 . S
C979 C978 1.388 . S
C979 C980 1.390 . S
C980 C979 1.390 . S
C980 C981 1.394 . S
C980 C986 1.465 . S
C981 C976 1.399 . S
C981 C980 1.394 . S
C981 C982 1.516 . S
C982 C981 1.516 . S
C982 C983 1.502 . S
C982 C984 1.561 . S
C982 C985 1.526 . S
C983 H967 0.959 . S
C983 H968 0.959 . S
C983 H969 0.961 . S
C983 C982 1.502 . S
C984 H970 0.960 . S
C984 H971 0.961 . S
C984 H972 0.959 . S
C984 C982 1.561 . S
C985 C982 1.526 . S
C985 C986 1.396 . S
C985 C990 1.390 . S
C986 C980 1.465 . S
C986 C985 1.396 . S
C986 C987 1.399 . S
C987 H973 0.929 . S
C987 C986 1.399 . S
C987 C988 1.385 . S
C988 H974 0.931 . S
C988 C987 1.385 . S
C988 C989 1.389 . S
C989 C988 1.389 . S
C989 C990 1.387 . S
C990 H975 0.930 . S
C990 C985 1.390 . S
C990 C989 1.387 . S
H991 C1003 0.930 . S
H992 C1005 0.930 . S
H993 C1006 0.930 . S
H994 C1010 0.959 . S
H995 C1010 0.959 . S
H996 C1010 0.961 . S
H997 C1011 0.960 . S
H998 C1011 0.961 . S
H999 C1011 0.959 . S
H1000 C1014 0.929 . S
H1001 C1015 0.931 . S
H1002 C1017 0.930 . S
C1003 H991 0.930 . S
C1003 C1004 1.399 . S
C1003 C1008 1.399 . S
C1004 C1003 1.399 . S
C1004 C1005 1.376 . S
C1005 H992 0.930 . S
C1005 C1004 1.376 . S
C1005 C1006 1.388 . S
C1006 H993 0.930 . S
C1006 C1005 1.388 . S
C1006 C1007 1.390 . S
C1007 C1006 1.390 . S
C1007 C1008 1.394 . S
C1007 C1013 1.465 . S
C1008 C1003 1.399 . S
C1008 C1007 1.394 . S
C1008 C1009 1.516 . S
C1009 C1008 1.516 . S
C1009 C1010 1.502 . S
C1009 C1011 1.561 . S
C1009 C1012 1.526 . S
C1010 H994 0.959 . S
C1010 H995 0.959 . S
C1010 H996 0.961 . S
C1010 C1009 1.502 . S
C1011 H997 0.960 . S
C1011 H998 0.961 . S
C1011 H999 0.959 . S
C1011 C1009 1.561 . S
C1012 C1009 1.526 . S
C1012 C1013 1.396 . S
C1012 C1017 1.390 . S
C1013 C1007 1.465 . S
C1013 C1012 1.396 . S
C1013 C1014 1.399 . S
C1014 H1000 0.929 . S
C1014 C1013 1.399 . S
C1014 C1015 1.385 . S
C1015 H1001 0.931 . S
C1015 C1014 1.385 . S
C1015 C1016 1.389 . S
C1016 C1015 1.389 . S
C1016 C1017 1.387 . S
C1017 H1002 0.930 . S
C1017 C1012 1.390 . S
C1017 C1016 1.387 . S
H1018 C1030 0.930 . S
H1019 C1032 0.930 . S
H1020 C1033 0.930 . S
H1021 C1037 0.959 . S
H1022 C1037 0.959 . S
H1023 C1037 0.961 . S
H1024 C1038 0.960 . S
H1025 C1038 0.961 . S
H1026 C1038 0.959 . S
H1027 C1041 0.929 . S
H1028 C1042 0.931 . S
H1029 C1044 0.930 . S
C1030 H1018 0.930 . S
C1030 C1031 1.399 . S
C1030 C1035 1.399 . S
C1031 C1030 1.399 . S
C1031 C1032 1.376 . S
C1032 H1019 0.930 . S
C1032 C1031 1.376 . S
C1032 C1033 1.388 . S
C1033 H1020 0.930 . S
C1033 C1032 1.388 . S
C1033 C1034 1.390 . S
C1034 C1033 1.390 . S
C1034 C1035 1.394 . S
C1034 C1040 1.465 . S
C1035 C1030 1.399 . S
C1035 C1034 1.394 . S
C1035 C1036 1.516 . S
C1036 C1035 1.516 . S
C1036 C1037 1.502 . S
C1036 C1038 1.561 . S
C1036 C1039 1.526 . S
C1037 H1021 0.959 . S
C1037 H1022 0.959 . S
C1037 H1023 0.961 . S
C1037 C1036 1.502 . S
C1038 H1024 0.960 . S
C1038 H1025 0.961 . S
C1038 H1026 0.959 . S
C1038 C1036 1.561 . S
C1039 C1036 1.526 . S
C1039 C1040 1.396 . S
C1039 C1044 1.390 . S
C1040 C1034 1.465 . S
C1040 C1039 1.396 . S
C1040 C1041 1.399 . S
C1041 H1027 0.929 . S
C1041 C1040 1.399 . S
C1041 C1042 1.385 . S
C1042 H1028 0.931 . S
C1042 C1041 1.385 . S
C1042 C1043 1.389 . S
C1043 C1042 1.389 . S
C1043 C1044 1.387 . S
C1044 H1029 0.930 . S
C1044 C1039 1.390 . S
C1044 C1043 1.387 . S
H1045 C1057 0.930 . S
H1046 C1059 0.930 . S
H1047 C1060 0.930 . S
H1048 C1064 0.959 . S
H1049 C1064 0.959 . S
H1050 C1064 0.961 . S
H1051 C1065 0.960 . S
H1052 C1065 0.961 . S
H1053 C1065 0.959 . S
H1054 C1068 0.929 . S
H1055 C1069 0.931 . S
H1056 C1071 0.930 . S
C1057 H1045 0.930 . S
C1057 C1058 1.399 . S
C1057 C1062 1.399 . S
C1058 C1057 1.399 . S
C1058 C1059 1.376 . S
C1059 H1046 0.930 . S
C1059 C1058 1.376 . S
C1059 C1060 1.388 . S
C1060 H1047 0.930 . S
C1060 C1059 1.388 . S
C1060 C1061 1.390 . S
C1061 C1060 1.390 . S
C1061 C1062 1.394 . S
C1061 C1067 1.465 . S
C1062 C1057 1.399 . S
C1062 C1061 1.394 . S
C1062 C1063 1.516 . S
C1063 C1062 1.516 . S
C1063 C1064 1.502 . S
C1063 C1065 1.561 . S
C1063 C1066 1.526 . S
C1064 H1048 0.959 . S
C1064 H1049 0.959 . S
C1064 H1050 0.961 . S
C1064 C1063 1.502 . S
C1065 H1051 0.960 . S
C1065 H1052 0.961 . S
C1065 H1053 0.959 . S
C1065 C1063 1.561 . S
C1066 C1063 1.526 . S
C1066 C1067 1.396 . S
C1066 C1071 1.390 . S
C1067 C1061 1.465 . S
C1067 C1066 1.396 . S
C1067 C1068 1.399 . S
C1068 H1054 0.929 . S
C1068 C1067 1.399 . S
C1068 C1069 1.385 . S
C1069 H1055 0.931 . S
C1069 C1068 1.385 . S
C1069 C1070 1.389 . S
C1070 C1069 1.389 . S
C1070 C1071 1.387 . S
C1071 H1056 0.930 . S
C1071 C1066 1.390 . S
C1071 C1070 1.387 . S
H1072 C1084 0.930 . S
H1073 C1086 0.930 . S
H1074 C1087 0.930 . S
H1075 C1091 0.959 . S
H1076 C1091 0.959 1_655 S
H1077 C1091 0.961 . S
H1078 C1092 0.960 1_455 S
H1079 C1092 0.961 . S
H1080 C1092 0.959 . S
H1081 C1095 0.929 . S
H1082 C1096 0.931 . S
H1083 C1098 0.930 . S
C1084 H1072 0.930 . S
C1084 C1085 1.399 . S
C1084 C1089 1.399 . S
C1085 C1084 1.399 . S
C1085 C1086 1.376 . S
C1086 H1073 0.930 . S
C1086 C1085 1.376 . S
C1086 C1087 1.388 . S
C1087 H1074 0.930 . S
C1087 C1086 1.388 . S
C1087 C1088 1.390 . S
C1088 C1087 1.390 . S
C1088 C1089 1.394 . S
C1088 C1094 1.465 1_455 S
C1089 C1084 1.399 . S
C1089 C1088 1.394 . S
C1089 C1090 1.516 1_545 S
C1090 C1089 1.516 1_565 S
C1090 C1091 1.502 . S
C1090 C1092 1.561 1_465 S
C1090 C1093 1.526 1_455 S
C1091 H1075 0.959 . S
C1091 H1076 0.959 1_455 S
C1091 H1077 0.961 . S
C1091 C1090 1.502 . S
C1092 H1078 0.960 1_655 S
C1092 H1079 0.961 . S
C1092 H1080 0.959 . S
C1092 C1090 1.561 1_645 S
C1093 C1090 1.526 1_655 S
C1093 C1094 1.396 1_565 S
C1093 C1098 1.390 . S
C1094 C1088 1.465 1_655 S
C1094 C1093 1.396 1_545 S
C1094 C1095 1.399 . S
C1095 H1081 0.929 . S
C1095 C1094 1.399 . S
C1095 C1096 1.385 1_545 S
C1096 H1082 0.931 . S
C1096 C1095 1.385 1_565 S
C1096 C1097 1.389 . S
C1097 C1096 1.389 . S
C1097 C1098 1.387 . S
C1098 H1083 0.930 . S
C1098 C1093 1.390 . S
C1098 C1097 1.387 . S
H1099 C1111 0.930 1_655 S
H1100 C1113 0.930 . S
H1101 C1114 0.930 . S
H1102 C1118 0.959 . S
H1103 C1118 0.959 . S
H1104 C1118 0.961 . S
H1105 C1119 0.960 . S
H1106 C1119 0.961 . S
H1107 C1119 0.959 . S
H1108 C1122 0.929 . S
H1109 C1123 0.931 . S
H1110 C1125 0.930 . S
C1111 H1099 0.930 1_455 S
C1111 C1112 1.399 . S
C1111 C1116 1.399 1_455 S
C1112 C1111 1.399 . S
C1112 C1113 1.376 . S
C1113 H1100 0.930 . S
C1113 C1112 1.376 . S
C1113 C1114 1.388 . S
C1114 H1101 0.930 . S
C1114 C1113 1.388 . S
C1114 C1115 1.390 . S
C1115 C1114 1.390 . S
C1115 C1116 1.394 1_455 S
C1115 C1121 1.465 . S
C1116 C1111 1.399 1_655 S
C1116 C1115 1.394 1_655 S
C1116 C1117 1.516 . S
C1117 C1116 1.516 . S
C1117 C1118 1.502 . S
C1117 C1119 1.561 . S
C1117 C1120 1.526 . S
C1118 H1102 0.959 . S
C1118 H1103 0.959 . S
C1118 H1104 0.961 . S
C1118 C1117 1.502 . S
C1119 H1105 0.960 . S
C1119 H1106 0.961 . S
C1119 H1107 0.959 . S
C1119 C1117 1.561 . S
C1120 C1117 1.526 . S
C1120 C1121 1.396 1_655 S
C1120 C1125 1.390 . S
C1121 C1115 1.465 . S
C1121 C1120 1.396 1_455 S
C1121 C1122 1.399 . S
C1122 H1108 0.929 . S
C1122 C1121 1.399 . S
C1122 C1123 1.385 . S
C1123 H1109 0.931 . S
C1123 C1122 1.385 . S
C1123 C1124 1.389 1_455 S
C1124 C1123 1.389 1_655 S
C1124 C1125 1.387 . S
C1125 H1110 0.930 . S
C1125 C1120 1.390 . S
C1125 C1124 1.387 . S
H1126 C1138 0.930 . S
H1127 C1140 0.930 . S
H1128 C1141 0.930 . S
H1129 C1145 0.959 . S
H1130 C1145 0.959 . S
H1131 C1145 0.961 . S
H1132 C1146 0.960 . S
H1133 C1146 0.961 . S
H1134 C1146 0.959 . S
H1135 C1149 0.929 . S
H1136 C1150 0.931 . S
H1137 C1152 0.930 . S
C1138 H1126 0.930 . S
C1138 C1139 1.399 . S
C1138 C1143 1.399 . S
C1139 C1138 1.399 . S
C1139 C1140 1.376 . S
C1140 H1127 0.930 . S
C1140 C1139 1.376 . S
C1140 C1141 1.388 . S
C1141 H1128 0.930 . S
C1141 C1140 1.388 . S
C1141 C1142 1.390 . S
C1142 C1141 1.390 . S
C1142 C1143 1.394 . S
C1142 C1148 1.465 . S
C1143 C1138 1.399 . S
C1143 C1142 1.394 . S
C1143 C1144 1.516 . S
C1144 C1143 1.516 . S
C1144 C1145 1.502 . S
C1144 C1146 1.561 . S
C1144 C1147 1.526 . S
C1145 H1129 0.959 . S
C1145 H1130 0.959 . S
C1145 H1131 0.961 . S
C1145 C1144 1.502 . S
C1146 H1132 0.960 . S
C1146 H1133 0.961 . S
C1146 H1134 0.959 . S
C1146 C1144 1.561 . S
C1147 C1144 1.526 . S
C1147 C1148 1.396 . S
C1147 C1152 1.390 . S
C1148 C1142 1.465 . S
C1148 C1147 1.396 . S
C1148 C1149 1.399 . S
C1149 H1135 0.929 . S
C1149 C1148 1.399 . S
C1149 C1150 1.385 . S
C1150 H1136 0.931 . S
C1150 C1149 1.385 . S
C1150 C1151 1.389 . S
C1151 C1150 1.389 . S
C1151 C1152 1.387 . S
C1152 H1137 0.930 . S
C1152 C1147 1.390 . S
C1152 C1151 1.387 . S
H1153 C1165 0.930 . S
H1154 C1167 0.930 . S
H1155 C1168 0.930 . S
H1156 C1172 0.959 . S
H1157 C1172 0.959 . S
H1158 C1172 0.961 1_545 S
H1159 C1173 0.960 . S
H1160 C1173 0.961 1_565 S
H1161 C1173 0.959 . S
H1162 C1176 0.929 . S
H1163 C1177 0.931 . S
H1164 C1179 0.930 . S
C1165 H1153 0.930 . S
C1165 C1166 1.399 . S
C1165 C1170 1.399 . S
C1166 C1165 1.399 . S
C1166 C1167 1.376 . S
C1167 H1154 0.930 . S
C1167 C1166 1.376 . S
C1167 C1168 1.388 . S
C1168 H1155 0.930 . S
C1168 C1167 1.388 . S
C1168 C1169 1.390 . S
C1169 C1168 1.390 . S
C1169 C1170 1.394 . S
C1169 C1175 1.465 1_545 S
C1170 C1165 1.399 . S
C1170 C1169 1.394 . S
C1170 C1171 1.516 1_545 S
C1171 C1170 1.516 1_565 S
C1171 C1172 1.502 . S
C1171 C1173 1.561 1_565 S
C1171 C1174 1.526 . S
C1172 H1156 0.959 . S
C1172 H1157 0.959 . S
C1172 H1158 0.961 1_565 S
C1172 C1171 1.502 . S
C1173 H1159 0.960 . S
C1173 H1160 0.961 1_545 S
C1173 H1161 0.959 . S
C1173 C1171 1.561 1_545 S
C1174 C1171 1.526 . S
C1174 C1175 1.396 . S
C1174 C1179 1.390 . S
C1175 C1169 1.465 1_565 S
C1175 C1174 1.396 . S
C1175 C1176 1.399 . S
C1176 H1162 0.929 . S
C1176 C1175 1.399 . S
C1176 C1177 1.385 . S
C1177 H1163 0.931 . S
C1177 C1176 1.385 . S
C1177 C1178 1.389 . S
C1178 C1177 1.389 . S
C1178 C1179 1.387 . S
C1179 H1164 0.930 . S
C1179 C1174 1.390 . S
C1179 C1178 1.387 . S
H1180 C1192 0.930 . S
H1181 C1194 0.930 . S
H1182 C1195 0.930 . S
H1183 C1199 0.959 . S
H1184 C1199 0.959 . S
H1185 C1199 0.961 1_655 S
H1186 C1200 0.960 . S
H1187 C1200 0.961 1_455 S
H1188 C1200 0.959 . S
H1189 C1203 0.929 . S
H1190 C1204 0.931 . S
H1191 C1206 0.930 . S
C1192 H1180 0.930 . S
C1192 C1193 1.399 . S
C1192 C1197 1.399 . S
C1193 C1192 1.399 . S
C1193 C1194 1.376 . S
C1194 H1181 0.930 . S
C1194 C1193 1.376 . S
C1194 C1195 1.388 . S
C1195 H1182 0.930 . S
C1195 C1194 1.388 . S
C1195 C1196 1.390 . S
C1196 C1195 1.390 . S
C1196 C1197 1.394 . S
C1196 C1202 1.465 1_655 S
C1197 C1192 1.399 . S
C1197 C1196 1.394 . S
C1197 C1198 1.480 1_655 S
C1198 C1197 1.480 1_455 S
C1198 C1199 1.516 . S
C1198 C1200 1.550 1_455 S
C1198 C1201 1.560 . S
C1199 H1183 0.959 . S
C1199 H1184 0.959 . S
C1199 H1185 0.961 1_455 S
C1199 C1198 1.516 . S
C1200 H1186 0.960 . S
C1200 H1187 0.961 1_655 S
C1200 H1188 0.959 . S
C1200 C1198 1.550 1_655 S
C1201 C1198 1.560 . S
C1201 C1202 1.396 . S
C1201 C1206 1.390 . S
C1202 C1196 1.465 1_455 S
C1202 C1201 1.396 . S
C1202 C1203 1.399 . S
C1203 H1189 0.929 . S
C1203 C1202 1.399 . S
C1203 C1204 1.385 . S
C1204 H1190 0.931 . S
C1204 C1203 1.385 . S
C1204 C1205 1.389 . S
C1205 C1204 1.389 . S
C1205 C1206 1.387 . S
C1206 H1191 0.930 . S
C1206 C1201 1.390 . S
C1206 C1205 1.387 . S
H1207 C1219 0.930 . S
H1208 C1221 0.930 . S
H1209 C1222 0.930 . S
H1210 C1226 0.959 . S
H1211 C1226 0.959 . S
H1212 C1226 0.961 . S
H1213 C1227 0.960 . S
H1214 C1227 0.961 . S
H1215 C1227 0.959 . S
H1216 C1230 0.929 . S
H1217 C1231 0.931 . S
H1218 C1233 0.930 . S
C1219 H1207 0.930 . S
C1219 C1220 1.399 . S
C1219 C1224 1.399 . S
C1220 C1219 1.399 . S
C1220 C1221 1.376 . S
C1221 H1208 0.930 . S
C1221 C1220 1.376 . S
C1221 C1222 1.388 . S
C1222 H1209 0.930 . S
C1222 C1221 1.388 . S
C1222 C1223 1.390 . S
C1223 C1222 1.390 . S
C1223 C1224 1.394 . S
C1223 C1229 1.465 . S
C1224 C1219 1.399 . S
C1224 C1223 1.394 . S
C1224 C1225 1.516 . S
C1225 C1224 1.516 . S
C1225 C1226 1.502 . S
C1225 C1227 1.561 . S
C1225 C1228 1.526 . S
C1226 H1210 0.959 . S
C1226 H1211 0.959 . S
C1226 H1212 0.961 . S
C1226 C1225 1.502 . S
C1227 H1213 0.960 . S
C1227 H1214 0.961 . S
C1227 H1215 0.959 . S
C1227 C1225 1.561 . S
C1228 C1225 1.526 . S
C1228 C1229 1.396 . S
C1228 C1233 1.390 . S
C1229 C1223 1.465 . S
C1229 C1228 1.396 . S
C1229 C1230 1.399 . S
C1230 H1216 0.929 . S
C1230 C1229 1.399 . S
C1230 C1231 1.385 . S
C1231 H1217 0.931 . S
C1231 C1230 1.385 . S
C1231 C1232 1.389 . S
C1232 C1231 1.389 . S
C1232 C1233 1.387 . S
C1233 H1218 0.930 . S
C1233 C1228 1.390 . S
C1233 C1232 1.387 . S
H1234 C1246 0.930 . S
H1235 C1248 0.930 . S
H1236 C1249 0.930 . S
H1237 C1253 0.959 . S
H1238 C1253 0.959 . S
H1239 C1253 0.961 . S
H1240 C1254 0.960 . S
H1241 C1254 0.961 . S
H1242 C1254 0.959 . S
H1243 C1257 0.929 1_545 S
H1244 C1258 0.931 . S
H1245 C1260 0.930 . S
C1246 H1234 0.930 . S
C1246 C1247 1.399 . S
C1246 C1251 1.399 . S
C1247 C1246 1.399 . S
C1247 C1248 1.376 . S
C1248 H1235 0.930 . S
C1248 C1247 1.376 . S
C1248 C1249 1.388 . S
C1249 H1236 0.930 . S
C1249 C1248 1.388 . S
C1249 C1250 1.390 . S
C1250 C1249 1.390 . S
C1250 C1251 1.394 . S
C1250 C1256 1.471 . S
C1251 C1246 1.399 . S
C1251 C1250 1.394 . S
C1251 C1252 1.516 1_545 S
C1252 C1251 1.516 1_565 S
C1252 C1253 1.502 . S
C1252 C1254 1.561 1_565 S
C1252 C1255 1.526 . S
C1253 H1237 0.959 . S
C1253 H1238 0.959 . S
C1253 H1239 0.961 . S
C1253 C1252 1.502 . S
C1254 H1240 0.960 . S
C1254 H1241 0.961 . S
C1254 H1242 0.959 . S
C1254 C1252 1.561 1_545 S
C1255 C1252 1.526 . S
C1255 C1256 1.391 1_565 S
C1255 C1260 1.390 . S
C1256 C1250 1.471 . S
C1256 C1255 1.391 1_545 S
C1256 C1257 1.398 1_545 S
C1257 H1243 0.929 1_565 S
C1257 C1256 1.398 1_565 S
C1257 C1258 1.385 . S
C1258 H1244 0.931 . S
C1258 C1257 1.385 . S
C1258 C1259 1.389 . S
C1259 C1258 1.389 . S
C1259 C1260 1.387 . S
C1260 H1245 0.930 . S
C1260 C1255 1.390 . S
C1260 C1259 1.387 . S
H1261 C1273 0.930 . S
H1262 C1275 0.930 . S
H1263 C1276 0.930 . S
H1264 C1280 0.959 . S
H1265 C1280 0.959 1_545 S
H1266 C1280 0.961 . S
H1267 C1281 0.960 1_565 S
H1268 C1281 0.961 . S
H1269 C1281 0.959 . S
H1270 C1284 0.929 1_655 S
H1271 C1285 0.931 . S
H1272 C1287 0.930 . S
C1273 H1261 0.930 . S
C1273 C1274 1.399 . S
C1273 C1278 1.399 . S
C1274 C1273 1.399 . S
C1274 C1275 1.376 . S
C1275 H1262 0.930 . S
C1275 C1274 1.376 . S
C1275 C1276 1.388 . S
C1276 H1263 0.930 . S
C1276 C1275 1.388 . S
C1276 C1277 1.390 . S
C1277 C1276 1.390 . S
C1277 C1278 1.394 . S
C1277 C1283 1.464 1_665 S
C1278 C1273 1.399 . S
C1278 C1277 1.394 . S
C1278 C1279 1.527 1_655 S
C1279 C1278 1.527 1_455 S
C1279 C1280 1.506 . S
C1279 C1281 1.557 1_465 S
C1279 C1282 1.514 1_565 S
C1280 H1264 0.959 . S
C1280 H1265 0.959 1_565 S
C1280 H1266 0.961 . S
C1280 C1279 1.506 . S
C1281 H1267 0.960 1_545 S
C1281 H1268 0.961 . S
C1281 H1269 0.959 . S
C1281 C1279 1.557 1_645 S
C1282 C1279 1.514 1_545 S
C1282 C1283 1.397 . S
C1282 C1287 1.390 . S
C1283 C1277 1.464 1_445 S
C1283 C1282 1.397 . S
C1283 C1284 1.399 . S
C1284 H1270 0.929 1_455 S
C1284 C1283 1.399 . S
C1284 C1285 1.385 . S
C1285 H1271 0.931 . S
C1285 C1284 1.385 . S
C1285 C1286 1.389 . S
C1286 C1285 1.389 . S
C1286 C1287 1.387 . S
C1287 H1272 0.930 . S
C1287 C1282 1.390 . S
C1287 C1286 1.387 . S
C653 C602 1.627 . S
C665 C2 1.622 . S
C680 C482 1.625 . S
C692 C42 1.624 . S
C707 C82 1.623 . S
C719 C522 1.632 . S
C734 C122 1.622 . S
C746 C562 1.630 . S
C761 C162 1.630 . S
C773 C362 1.637 . S
C788 C202 1.637 . S
C800 C402 1.635 . S
C815 C242 1.629 . S
C827 C442 1.637 . S
C842 C282 1.633 . S
C854 C322 1.637 . S
C869 C21 1.680 . S
C881 C181 1.674 . S
C896 C221 1.673 . S
C908 C61 1.678 . S
C923 C261 1.678 . S
C935 C101 1.681 . S
C950 C141 1.674 . S
C962 C301 1.679 . S
C977 C341 1.681 . S
C989 C501 1.676 . S
C1004 C381 1.681 . S
C1016 C541 1.679 . S
C1031 C421 1.679 . S
C1043 C581 1.681 . S
C1058 C461 1.674 . S
C1070 C621 1.677 . S
C1085 C15 1.873 . S
C1097 C415 1.902 . S
C1112 C455 1.867 . S
C1124 C55 1.915 . S
C1139 C335 1.872 . S
C1151 C95 1.904 . S
C1166 C375 1.915 . S
C1178 C135 1.884 . S
C1193 C575 1.912 . S
C1205 C175 1.888 . S
C1220 C215 1.915 . S
C1232 C615 1.883 . S
C1247 C255 1.875 . S
C1259 C495 1.899 . S
C1274 C295 1.876 . S
C1286 C535 1.898 . S
