# Generated by pormake.
# Topology snk, (6)-cn, num edge types: 1
# Building blocks:
#     Node 0, Type 0, BuildingBlock: BETFEN_clean_sbu_0, # of connection points: 6
#     Node 1, Type 0, BuildingBlock: BETFEN_clean_sbu_0, # of connection points: 6
#     Node 2, Type 0, BuildingBlock: BETFEN_clean_sbu_0, # of connection points: 6
#     Node 3, Type 0, BuildingBlock: BETFEN_clean_sbu_0, # of connection points: 6
#     Node 4, Type 0, BuildingBlock: BETFEN_clean_sbu_0, # of connection points: 6
#     Node 5, Type 0, BuildingBlock: BETFEN_clean_sbu_0, # of connection points: 6
#     Node 6, Type 0, BuildingBlock: BETFEN_clean_sbu_0, # of connection points: 6
#     Node 7, Type 0, BuildingBlock: BETFEN_clean_sbu_0, # of connection points: 6
#     Edge 8, Type (0, 0), BuildingBlock: OJICUG_clean_linker_0, # of connection points: 2
#     Edge 9, Type (0, 0), BuildingBlock: OJICUG_clean_linker_0, # of connection points: 2
#     Edge 10, Type (0, 0), BuildingBlock: OJICUG_clean_linker_0, # of connection points: 2
#     Edge 11, Type (0, 0), BuildingBlock: OJICUG_clean_linker_0, # of connection points: 2
#     Edge 12, Type (0, 0), BuildingBlock: OJICUG_clean_linker_0, # of connection points: 2
#     Edge 13, Type (0, 0), BuildingBlock: OJICUG_clean_linker_0, # of connection points: 2
#     Edge 14, Type (0, 0), BuildingBlock: OJICUG_clean_linker_0, # of connection points: 2
#     Edge 15, Type (0, 0), BuildingBlock: OJICUG_clean_linker_0, # of connection points: 2
#     Edge 16, Type (0, 0), BuildingBlock: OJICUG_clean_linker_0, # of connection points: 2
#     Edge 17, Type (0, 0), BuildingBlock: OJICUG_clean_linker_0, # of connection points: 2
#     Edge 18, Type (0, 0), BuildingBlock: OJICUG_clean_linker_0, # of connection points: 2
#     Edge 19, Type (0, 0), BuildingBlock: OJICUG_clean_linker_0, # of connection points: 2
#     Edge 20, Type (0, 0), BuildingBlock: OJICUG_clean_linker_0, # of connection points: 2
#     Edge 21, Type (0, 0), BuildingBlock: OJICUG_clean_linker_0, # of connection points: 2
#     Edge 22, Type (0, 0), BuildingBlock: OJICUG_clean_linker_0, # of connection points: 2
#     Edge 23, Type (0, 0), BuildingBlock: OJICUG_clean_linker_0, # of connection points: 2
#     Edge 24, Type (0, 0), BuildingBlock: OJICUG_clean_linker_0, # of connection points: 2
#     Edge 25, Type (0, 0), BuildingBlock: OJICUG_clean_linker_0, # of connection points: 2
#     Edge 26, Type (0, 0), BuildingBlock: OJICUG_clean_linker_0, # of connection points: 2
#     Edge 27, Type (0, 0), BuildingBlock: OJICUG_clean_linker_0, # of connection points: 2
#     Edge 28, Type (0, 0), BuildingBlock: OJICUG_clean_linker_0, # of connection points: 2
#     Edge 29, Type (0, 0), BuildingBlock: OJICUG_clean_linker_0, # of connection points: 2
#     Edge 30, Type (0, 0), BuildingBlock: OJICUG_clean_linker_0, # of connection points: 2
#     Edge 31, Type (0, 0), BuildingBlock: OJICUG_clean_linker_0, # of connection points: 2
# Relax obj value: 0.124
# Max RMSD: 0.194
# Mean RMSD: 0.152
data_MOF--net-snk--node1-BETFEN_clean_sbu_0--edge1-OJICUG_clean_linker_0
_symmetry_space_group_name_H-M    P1
_symmetry_Int_Tables_number       1
_symmetry_cell_setting            triclinic
loop_
_symmetry_equiv_pos_as_xyz
'x, y, z'
_cell_length_a     26.819426
_cell_length_b     26.833443
_cell_length_c     21.052962
_cell_angle_alpha  97.088071
_cell_angle_beta   97.035019
_cell_angle_gamma 90.940477
loop_
_atom_site_label
_atom_site_type_symbol
_atom_site_fract_x
_atom_site_fract_y
_atom_site_fract_z
_atom_type_partial_charge
Pr0 Pr 0.9857 0.97248 0.46165 0.0
Pr1 Pr 0.02351 0.03617 0.59258 0.0
C2 C 0.95585 0.93802 0.33634 0.0
C3 C 0.96353 0.95264 0.27284 0.0
C4 C 0.9582 0.91636 0.21833 0.0
C5 C 0.96761 0.92914 0.15828 0.0
C6 C 0.98271 0.97856 0.15155 0.0
C7 C 0.98755 0.01493 0.20646 0.0
C8 C 0.97805 1.00209 0.26645 0.0
C9 C 0.05538 0.92563 0.54149 0.0
C10 C 0.07589 0.06161 0.46928 0.0
C11 C 0.05321 0.07085 0.71787 0.0
C12 C 0.04561 0.05622 0.78139 0.0
C13 C 0.05096 0.09251 0.83591 0.0
C14 C 0.0416 0.07971 0.89597 0.0
C15 C 0.02653 0.03028 0.90271 0.0
C16 C 0.02168 0.99391 0.8478 0.0
C17 C 0.03114 0.00676 0.7878 0.0
C18 C 0.95387 0.0829 0.51243 0.0
C19 C 0.93342 0.94689 0.58493 0.0
O20 O 0.92903 0.96767 0.37179 0.0
O21 O 0.99529 0.92191 0.36969 0.0
O22 O 0.05811 0.97142 0.53335 0.0
O23 O 0.01736 0.90201 0.50541 0.0
O24 O 0.08365 0.06375 0.53277 0.0
O25 O 0.03784 0.03532 0.43451 0.0
O26 O 0.08019 0.04134 0.68248 0.0
O27 O 0.01366 0.08672 0.68447 0.0
O28 O 0.95109 0.03721 0.52102 0.0
O29 O 0.99196 0.10653 0.54835 0.0
O30 O 0.92562 0.94482 0.52145 0.0
O31 O 0.97148 0.97319 0.6197 0.0
H32 H 0.94729 0.87791 0.22233 0.0
H33 H 0.96406 0.89998 0.11741 0.0
H34 H 0.99839 0.05347 0.20306 0.0
H35 H 0.9823 0.03074 0.30793 0.0
H36 H 0.06183 0.13096 0.83189 0.0
H37 H 0.04514 0.10887 0.93684 0.0
H38 H 0.01087 0.95536 0.85121 0.0
H39 H 0.02688 0.97812 0.74631 0.0
Pr40 Pr 0.27703 0.72798 0.71719 0.0
Pr41 Pr 0.23165 0.78009 0.83665 0.0
C42 C 0.29608 0.68683 0.59944 0.0
C43 C 0.28514 0.69797 0.5325 0.0
C44 C 0.3194 0.68456 0.48866 0.0
C45 C 0.31131 0.69753 0.42597 0.0
C46 C 0.26873 0.7243 0.40594 0.0
C47 C 0.23414 0.73721 0.45002 0.0
C48 C 0.24232 0.72426 0.51276 0.0
C49 C 0.33885 0.80108 0.79585 0.0
C50 C 0.19766 0.82238 0.70222 0.0
C51 C 0.2124 0.82114 0.95436 0.0
C52 C 0.2233 0.81 1.02131 0.0
C53 C 0.18901 0.82342 0.06512 0.0
C54 C 0.19706 0.81044 0.1278 0.0
C55 C 0.23963 0.78366 0.14787 0.0
C56 C 0.27424 0.77074 0.10382 0.0
C57 C 0.2661 0.7837 0.04108 0.0
C58 C 0.16992 0.707 0.75766 0.0
C59 C 0.3111 0.68576 0.85162 0.0
O60 O 0.25812 0.67232 0.62704 0.0
O61 O 0.32705 0.71854 0.63769 0.0
O62 O 0.29235 0.80507 0.7794 0.0
O63 O 0.3552 0.75949 0.76862 0.0
O64 O 0.20629 0.83696 0.76489 0.0
O65 O 0.21525 0.78025 0.67538 0.0
O66 O 0.25035 0.83576 0.92683 0.0
O67 O 0.18154 0.78935 0.91606 0.0
O68 O 0.21635 0.70303 0.77453 0.0
O69 O 0.15352 0.74861 0.78479 0.0
O70 O 0.30243 0.67114 0.78897 0.0
O71 O 0.29352 0.7279 0.87844 0.0
H72 H 0.35292 0.66472 0.50326 0.0
H73 H 0.33908 0.68761 0.39369 0.0
H74 H 0.20065 0.75725 0.43601 0.0
H75 H 0.21547 0.73521 0.54597 0.0
H76 H 0.1555 0.84327 0.05049 0.0
H77 H 0.16928 0.82036 0.16005 0.0
H78 H 0.30772 0.75069 0.11785 0.0
H79 H 0.29297 0.77275 1.00789 0.0
Pr80 Pr 0.53123 0.98242 0.08684 0.0
Pr81 Pr 0.4781 0.02645 0.96689 0.0
C82 C 0.57322 0.96475 0.20478 0.0
C83 C 0.56158 0.97524 0.27157 0.0
C84 C 0.57749 0.94236 0.31622 0.0
C85 C 0.56424 0.95001 0.37884 0.0
C86 C 0.53467 0.99072 0.39794 0.0
C87 C 0.51924 0.02393 0.35304 0.0
C88 C 0.5325 0.01621 0.29041 0.0
C89 C 0.45749 0.92008 1.01007 0.0
C90 C 0.43655 0.06152 0.1016 0.0
C91 C 0.43618 0.04428 0.84899 0.0
C92 C 0.44774 0.03372 0.78217 0.0
C93 C 0.43181 0.06657 0.73749 0.0
C94 C 0.44503 0.05888 0.67486 0.0
C95 C 0.47458 0.01815 0.65577 0.0
C96 C 0.49003 0.98497 0.7007 0.0
C97 C 0.4768 0.99273 0.76334 0.0
C98 C 0.55184 0.08872 0.04395 0.0
C99 C 0.57275 0.94732 0.95217 0.0
O100 O 0.58626 1.00323 0.17715 0.0
O101 O 0.54266 0.9327 0.16646 0.0
O102 O 0.45369 0.96669 1.02583 0.0
O103 O 0.49922 0.90393 0.03715 0.0
O104 O 0.42158 0.05224 0.03908 0.0
O105 O 0.47893 0.04434 0.1283 0.0
O106 O 0.42297 0.00586 0.87662 0.0
O107 O 0.46691 0.07619 0.88727 0.0
O108 O 0.55561 0.04217 0.02781 0.0
O109 O 0.51008 0.10491 1.01696 0.0
O110 O 0.58776 0.95668 1.01467 0.0
O111 O 0.53034 0.96444 0.92548 0.0
H112 H 0.59955 0.91026 0.30233 0.0
H113 H 0.57619 0.92332 0.4118 0.0
H114 H 0.497 0.05601 0.36632 0.0
H115 H 0.51964 0.04198 0.25658 0.0
H116 H 0.40978 0.09869 0.75137 0.0
H117 H 0.43308 0.08555 0.64188 0.0
H118 H 0.51225 0.95288 0.68742 0.0
H119 H 0.48968 0.96699 0.79719 0.0
Pr120 Pr 0.28633 0.27331 0.34256 0.0
Pr121 Pr 0.22284 0.23509 0.21142 0.0
C122 C 0.32047 0.30357 0.46787 0.0
C123 C 0.30598 0.29572 0.53139 0.0
C124 C 0.34223 0.30162 0.58593 0.0
C125 C 0.32958 0.29206 0.646 0.0
C126 C 0.28034 0.27628 0.6527 0.0
C127 C 0.24399 0.27091 0.5978 0.0
C128 C 0.2567 0.28052 0.53778 0.0
C129 C 0.33338 0.20358 0.26293 0.0
C130 C 0.19737 0.18286 0.33481 0.0
C131 C 0.18844 0.20501 0.08614 0.0
C132 C 0.20295 0.21275 1.0226 0.0
C133 C 0.1667 0.20683 0.96806 0.0
C134 C 0.17935 0.21634 0.90798 0.0
C135 C 0.2286 0.23207 0.90126 0.0
C136 C 0.26496 0.23745 0.95615 0.0
C137 C 0.25224 0.22789 1.01619 0.0
C138 C 0.17589 0.30472 0.29141 0.0
C139 C 0.31198 0.3254 0.21919 0.0
O140 O 0.29043 0.32997 0.4324 0.0
O141 O 0.33709 0.26436 0.43456 0.0
O142 O 0.28755 0.20085 0.27103 0.0
O143 O 0.35694 0.24165 0.29898 0.0
O144 O 0.19528 0.17505 0.27132 0.0
O145 O 0.22361 0.22094 0.36961 0.0
O146 O 0.21832 0.17842 0.12155 0.0
O147 O 0.17211 0.24435 0.11952 0.0
O148 O 0.22161 0.30755 0.28285 0.0
O149 O 0.15232 0.26659 0.25551 0.0
O150 O 0.314 0.33327 0.28266 0.0
O151 O 0.28572 0.28732 0.18439 0.0
H152 H 0.38047 0.31337 0.58201 0.0
H153 H 0.35836 0.29732 0.68728 0.0
H154 H 0.2059 0.25828 0.60087 0.0
H155 H 0.22816 0.27558 0.49621 0.0
H156 H 0.12845 0.19513 0.972 0.0
H157 H 0.15057 0.21107 0.86669 0.0
H158 H 0.30305 0.25005 0.95307 0.0
H159 H 0.28078 0.23284 0.05776 0.0
Pr160 Pr 0.77698 0.2283 0.21789 0.0
Pr161 Pr 0.73182 0.28056 0.33748 0.0
C162 C 0.7958 0.18702 0.10008 0.0
C163 C 0.78497 0.19832 0.0332 0.0
C164 C 0.81843 0.18346 0.9888 0.0
C165 C 0.81047 0.1965 0.92614 0.0
C166 C 0.76885 0.2248 0.90671 0.0
C167 C 0.73507 0.23917 0.95136 0.0
C168 C 0.7431 0.22612 1.01405 0.0
C169 C 0.83886 0.30153 0.2963 0.0
C170 C 0.69756 0.32269 0.203 0.0
C171 C 0.71292 0.3218 0.45527 0.0
C172 C 0.72388 0.31062 0.52217 0.0
C173 C 0.69048 0.3255 0.56664 0.0
C174 C 0.69853 0.31251 0.62933 0.0
C175 C 0.74018 0.28425 0.64871 0.0
C176 C 0.77392 0.26987 0.604 0.0
C177 C 0.76579 0.28286 0.54128 0.0
C178 C 0.67002 0.20732 0.25888 0.0
C179 C 0.81118 0.18612 0.35226 0.0
O180 O 0.75768 0.17284 0.12763 0.0
O181 O 0.82698 0.21848 0.13838 0.0
O182 O 0.79234 0.30545 0.27992 0.0
O183 O 0.8552 0.25992 0.26907 0.0
O184 O 0.70626 0.33734 0.26565 0.0
O185 O 0.71514 0.28055 0.17618 0.0
O186 O 0.75092 0.33617 0.42765 0.0
O187 O 0.68187 0.29015 0.41705 0.0
O188 O 0.71649 0.20342 0.27557 0.0
O189 O 0.65363 0.24893 0.28602 0.0
O190 O 0.80237 0.17146 0.28963 0.0
O191 O 0.79372 0.22832 0.3791 0.0
H192 H 0.85121 0.16242 1.00294 0.0
H193 H 0.8376 0.18542 0.89339 0.0
H194 H 0.70232 0.26041 0.93782 0.0
H195 H 0.71689 0.23816 0.04769 0.0
H196 H 0.65766 0.34651 0.55253 0.0
H197 H 0.67143 0.32361 0.66212 0.0
H198 H 0.8067 0.24866 0.6175 0.0
H199 H 0.79196 0.2708 0.50758 0.0
Pr200 Pr 0.78624 0.77334 0.84243 0.0
Pr201 Pr 0.72271 0.73516 0.71129 0.0
C202 C 0.82044 0.80354 0.96774 0.0
C203 C 0.80592 0.79573 0.03126 0.0
C204 C 0.84212 0.80178 0.08585 0.0
C205 C 0.82946 0.79223 0.14591 0.0
C206 C 0.78025 0.77632 0.15255 0.0
C207 C 0.74394 0.7708 0.0976 0.0
C208 C 0.75667 0.78041 0.03759 0.0
C209 C 0.83329 0.70373 0.76266 0.0
C210 C 0.69724 0.68292 0.83468 0.0
C211 C 0.68833 0.70506 0.58601 0.0
C212 C 0.70284 0.7128 0.52246 0.0
C213 C 0.66663 0.70668 0.46787 0.0
C214 C 0.67928 0.71618 0.40779 0.0
C215 C 0.72848 0.73209 0.40111 0.0
C216 C 0.7648 0.73766 0.45605 0.0
C217 C 0.75208 0.72811 0.51609 0.0
C218 C 0.67581 0.80483 0.79131 0.0
C219 C 0.81182 0.82552 0.7191 0.0
O220 O 0.79046 0.83001 0.93228 0.0
O221 O 0.83697 0.76429 0.93442 0.0
O222 O 0.78748 0.70093 0.77081 0.0
O223 O 0.85684 0.74178 0.79876 0.0
O224 O 0.69512 0.67513 0.77119 0.0
O225 O 0.7235 0.72099 0.86948 0.0
O226 O 0.71823 0.67848 0.62142 0.0
O227 O 0.67199 0.74439 0.61937 0.0
O228 O 0.72153 0.8076 0.78274 0.0
O229 O 0.65221 0.76672 0.75539 0.0
O230 O 0.81387 0.83334 0.78258 0.0
O231 O 0.78555 0.78746 0.68428 0.0
H232 H 0.88034 0.81362 0.08197 0.0
H233 H 0.85819 0.79761 0.18723 0.0
H234 H 0.70588 0.75807 0.10063 0.0
H235 H 0.72816 0.77537 0.99599 0.0
H236 H 0.62842 0.69484 0.47178 0.0
H237 H 0.65054 0.71076 0.36647 0.0
H238 H 0.80285 0.7504 0.453 0.0
H239 H 0.78059 0.7332 0.55769 0.0
Pr240 Pr 0.48578 0.47239 0.96165 0.0
Pr241 Pr 0.52342 0.53624 0.09254 0.0
C242 C 0.45608 0.43781 0.83633 0.0
C243 C 0.4637 0.45247 0.77283 0.0
C244 C 0.4585 0.41618 0.71833 0.0
C245 C 0.46786 0.429 0.65827 0.0
C246 C 0.48279 0.47847 0.65153 0.0
C247 C 0.4875 0.51485 0.70643 0.0
C248 C 0.47804 0.50197 0.76642 0.0
C249 C 0.55541 0.42568 0.04172 0.0
C250 C 0.57583 0.56165 0.96925 0.0
C251 C 0.55298 0.57102 0.21782 0.0
C252 C 0.54544 0.55636 0.28135 0.0
C253 C 0.55069 0.59264 0.33586 0.0
C254 C 0.54137 0.57982 0.39593 0.0
C255 C 0.52645 0.53034 0.40268 0.0
C256 C 0.52171 0.49397 0.34778 0.0
C257 C 0.53113 0.50685 0.28777 0.0
C258 C 0.45378 0.58281 1.01218 0.0
C259 C 0.43346 0.44683 0.0849 0.0
O260 O 0.42912 0.46732 0.87174 0.0
O261 O 0.49561 0.42188 0.86972 0.0
O262 O 0.55812 0.47146 0.0335 0.0
O263 O 0.51745 0.40201 1.00558 0.0
O264 O 0.58356 0.56385 0.03274 0.0
O265 O 0.53783 0.53529 0.93448 0.0
O266 O 0.58008 0.54163 0.18247 0.0
O267 O 0.51336 0.58673 0.18439 0.0
O268 O 0.45105 0.53714 1.02083 0.0
O269 O 0.49181 0.60652 0.04814 0.0
O270 O 0.42569 0.44469 1.02142 0.0
O271 O 0.47146 0.47321 0.11968 0.0
H272 H 0.44774 0.37769 0.72234 0.0
H273 H 0.46443 0.39984 0.61742 0.0
H274 H 0.49819 0.55343 0.70302 0.0
H275 H 0.48219 0.53062 0.80789 0.0
H276 H 0.56144 0.63113 0.33183 0.0
H277 H 0.54483 0.60898 0.43678 0.0
H278 H 0.51102 0.45539 0.35119 0.0
H279 H 0.52695 0.47821 0.24629 0.0
Pr280 Pr 0.03133 0.48286 0.58674 0.0
Pr281 Pr 0.97779 0.52615 0.46637 0.0
C282 C 0.07377 0.46607 0.70488 0.0
C283 C 0.06174 0.47626 0.77148 0.0
C284 C 0.08228 0.44676 0.81799 0.0
C285 C 0.06895 0.4541 0.88059 0.0
C286 C 0.03471 0.4911 0.89776 0.0
C287 C 0.01464 0.52098 0.85096 0.0
C288 C 0.02798 0.51356 0.78838 0.0
C289 C 0.95718 0.42033 0.511 0.0
C290 C 0.93653 0.56193 0.60101 0.0
C291 C 0.9354 0.54306 0.34825 0.0
C292 C 0.94738 0.53283 0.28164 0.0
C293 C 0.92684 0.56231 0.23511 0.0
C294 C 0.94015 0.55495 0.17251 0.0
C295 C 0.97439 0.51795 0.15535 0.0
C296 C 0.99447 0.48808 0.20215 0.0
C297 C 0.98115 0.49552 0.26474 0.0
C298 C 0.05197 0.5886 0.54234 0.0
C299 C 0.07262 0.4471 0.45217 0.0
O300 O 0.08575 0.50495 0.67731 0.0
O301 O 0.044 0.43335 0.66647 0.0
O302 O 0.95359 0.46701 0.52632 0.0
O303 O 0.99892 0.40421 0.53811 0.0
O304 O 0.92137 0.55223 0.53858 0.0
O305 O 0.97902 0.54499 0.62771 0.0
O306 O 0.92329 0.50423 0.37582 0.0
O307 O 0.9653 0.57568 0.38665 0.0
O308 O 0.05551 0.54196 0.52667 0.0
O309 O 0.01022 0.60478 0.51532 0.0
O310 O 0.08779 0.45688 0.51459 0.0
O311 O 0.03009 0.46397 0.42546 0.0
H312 H 0.10829 0.41768 0.80572 0.0
H313 H 0.08561 0.4309 0.91562 0.0
H314 H 0.98772 0.54936 0.86224 0.0
H315 H 0.01139 0.5365 0.75302 0.0
H316 H 0.90083 0.5914 0.24739 0.0
H317 H 0.92348 0.57815 0.13748 0.0
H318 H 0.02139 0.4597 0.19088 0.0
H319 H 0.99775 0.4726 0.30012 0.0
C320 C 0.14509 0.12562 0.4696 0.0
C321 C 0.10909 0.09069 0.43519 0.0
H322 H 0.2013 0.18184 0.46493 0.0
C323 C 0.10385 0.08471 0.36725 0.0
H324 H 0.15017 0.1311 0.52186 0.0
C325 C 0.13316 0.11382 0.33445 0.0
C326 C 0.16824 0.14969 0.36887 0.0
H327 H 0.07674 0.05781 0.33912 0.0
H328 H 0.12762 0.10881 0.28219 0.0
C329 C 0.17428 0.15485 0.4368 0.0
C330 C 0.12805 0.92765 0.62935 0.0
C331 C 0.09304 0.90024 0.58222 0.0
H332 H 0.18819 0.92434 0.70624 0.0
C333 C 0.09356 0.84758 0.57447 0.0
H334 H 0.12899 0.96824 0.63547 0.0
C335 C 0.1284 0.82274 0.6129 0.0
C336 C 0.16251 0.84997 0.66118 0.0
H337 H 0.06717 0.82545 0.53838 0.0
H338 H 0.12792 0.78203 0.60572 0.0
C339 C 0.16195 0.90263 0.66954 0.0
C340 C 0.41478 0.81571 0.87682 0.0
C341 C 0.36866 0.83274 0.84998 0.0
H342 H 0.47832 0.8296 0.94897 0.0
C343 C 0.35118 0.87877 0.87674 0.0
H344 H 0.42909 0.78022 0.85752 0.0
C345 C 0.37969 0.90737 0.92943 0.0
C346 C 0.42576 0.89001 0.95625 0.0
H347 H 0.31566 0.89265 0.85689 0.0
H348 H 0.36577 0.94292 0.94914 0.0
C349 C 0.44282 0.84384 0.9296 0.0
C350 C 0.43629 0.1313 0.19029 0.0
C351 C 0.40899 0.09675 0.14262 0.0
H352 H 0.43362 0.19276 0.26455 0.0
C353 C 0.35629 0.09682 0.135 0.0
H354 H 0.47703 0.13215 0.19689 0.0
C355 C 0.33131 0.13066 0.17537 0.0
C356 C 0.35877 0.16607 0.22194 0.0
H357 H 0.33455 0.07023 0.0988 0.0
H358 H 0.29071 0.12931 0.1699 0.0
C359 C 0.41145 0.16606 0.22891 0.0
C360 C 0.9055 0.92361 0.68689 0.0
C361 C 0.90025 0.91773 0.61895 0.0
H362 H 0.88168 0.89942 0.77187 0.0
C363 C 0.86422 0.88286 0.58447 0.0
H364 H 0.93263 0.95045 0.71508 0.0
C365 C 0.83499 0.8536 0.61718 0.0
C366 C 0.84102 0.85868 0.68511 0.0
H367 H 0.85913 0.87746 0.53221 0.0
H368 H 0.80795 0.82666 0.589 0.0
C369 C 0.87615 0.89447 0.71961 0.0
C370 C 0.88079 0.08084 0.42512 0.0
C371 C 0.91609 0.10826 0.47185 0.0
H372 H 0.82031 0.08415 0.34864 0.0
C373 C 0.91574 0.16092 0.47938 0.0
H374 H 0.8797 0.04025 0.4192 0.0
C375 C 0.88079 0.18577 0.4411 0.0
C376 C 0.84641 0.15853 0.39319 0.0
H377 H 0.94235 0.18306 0.51517 0.0
H378 H 0.88142 0.22649 0.4481 0.0
C379 C 0.84677 0.10585 0.38506 0.0
C380 C 0.65789 0.12972 0.17777 0.0
C381 C 0.64035 0.17571 0.2046 0.0
H382 H 0.64347 0.06574 0.10508 0.0
C383 C 0.59427 0.19277 0.17768 0.0
H384 H 0.69338 0.11582 0.1977 0.0
C385 C 0.56634 0.16474 0.12475 0.0
C386 C 0.58348 0.11863 0.09799 0.0
H387 H 0.5799 0.22821 0.19704 0.0
H388 H 0.53088 0.17901 0.10532 0.0
C389 C 0.6295 0.10123 0.12488 0.0
C390 C 0.67795 0.87813 0.87836 0.0
C391 C 0.65047 0.84247 0.83216 0.0
H392 H 0.67475 0.93887 0.95457 0.0
C393 C 0.59778 0.84236 0.82542 0.0
H394 H 0.71855 0.87959 0.88364 0.0
C395 C 0.57297 0.87723 0.8639 0.0
C396 C 0.60029 0.91201 0.91123 0.0
H397 H 0.57559 0.81546 0.79006 0.0
H398 H 0.53223 0.87627 0.85749 0.0
C399 C 0.653 0.91208 0.91863 0.0
C400 C 0.60371 0.5848 0.86718 0.0
C401 C 0.609 0.59075 0.93513 0.0
H402 H 0.62742 0.60893 0.78211 0.0
C403 C 0.64504 0.62566 0.96952 0.0
H404 H 0.57657 0.55793 0.83907 0.0
C405 C 0.67421 0.65489 0.9367 0.0
C406 C 0.66812 0.64975 0.86876 0.0
H407 H 0.65017 0.63111 1.02178 0.0
H408 H 0.70126 0.68185 0.96481 0.0
C409 C 0.633 0.61392 0.83436 0.0
C410 C 0.62825 0.32293 0.11372 0.0
C411 C 0.66237 0.35022 0.16192 0.0
H412 H 0.56708 0.32553 0.0391 0.0
C413 C 0.66186 0.40289 0.17009 0.0
H414 H 0.62773 0.28221 0.10669 0.0
C415 C 0.628 0.42784 0.12975 0.0
C416 C 0.593 0.40037 0.08266 0.0
H417 H 0.6881 0.42464 0.20672 0.0
H418 H 0.62898 0.46843 0.1357 0.0
C419 C 0.59346 0.34771 0.07514 0.0
C420 C 0.9426 0.34407 0.43049 0.0
C421 C 0.92549 0.39023 0.45714 0.0
H422 H 0.92899 0.28054 0.35824 0.0
C423 C 0.87949 0.40762 0.4302 0.0
H424 H 0.97805 0.32981 0.44995 0.0
C425 C 0.85108 0.3791 0.37736 0.0
C426 C 0.8686 0.3331 0.35058 0.0
H427 H 0.86554 0.44316 0.44991 0.0
H428 H 0.81562 0.39303 0.35741 0.0
C429 C 0.91465 0.31601 0.37756 0.0
C430 C 0.91138 0.66657 0.72817 0.0
C431 C 0.85869 0.66634 0.72149 0.0
H432 H 0.97697 0.63292 0.69585 0.0
C433 C 0.83125 0.63082 0.67506 0.0
H434 H 0.93354 0.69337 0.76368 0.0
C435 C 0.85624 0.59706 0.63459 0.0
C436 C 0.90894 0.59721 0.64195 0.0
H437 H 0.79065 0.62929 0.6698 0.0
H438 H 0.8345 0.57033 0.59854 0.0
C439 C 0.93623 0.6319 0.68944 0.0
C440 C 0.37623 0.39442 0.21963 0.0
C441 C 0.34117 0.35855 0.18516 0.0
H442 H 0.43261 0.4505 0.21506 0.0
C443 C 0.33519 0.35339 0.11723 0.0
H444 H 0.38173 0.39943 0.27189 0.0
C445 C 0.36437 0.38267 0.08449 0.0
C446 C 0.40032 0.41764 0.11895 0.0
H447 H 0.3082 0.32639 0.08907 0.0
H448 H 0.35932 0.37721 0.03223 0.0
C449 C 0.40553 0.42358 0.18689 0.0
C450 C 0.38079 0.58061 0.92469 0.0
C451 C 0.41601 0.6081 0.97148 0.0
H452 H 0.32039 0.5838 0.8481 0.0
C453 C 0.41559 0.66076 0.97894 0.0
H454 H 0.37977 0.54002 0.91882 0.0
C455 C 0.38065 0.68554 0.94057 0.0
C456 C 0.34633 0.65823 0.89262 0.0
H457 H 0.44213 0.68295 1.01476 0.0
H458 H 0.38121 0.72625 0.94752 0.0
C459 C 0.34679 0.60555 0.88454 0.0
C460 C 0.09436 0.69265 0.67609 0.0
C461 C 0.14035 0.6755 0.70317 0.0
H462 H 0.03109 0.67901 0.60353 0.0
C463 C 0.1579 0.62953 0.67634 0.0
H464 H 0.08 0.7281 0.69545 0.0
C465 C 0.12958 0.60111 0.62333 0.0
C466 C 0.08362 0.61856 0.59633 0.0
H467 H 0.19332 0.61556 0.69638 0.0
H468 H 0.14354 0.56559 0.60356 0.0
C469 C 0.0665 0.66469 0.62304 0.0
C470 C 0.17793 0.37806 0.37842 0.0
C471 C 0.15051 0.34231 0.3323 0.0
H472 H 0.17465 0.43887 0.45451 0.0
C473 C 0.09781 0.34204 0.32565 0.0
H474 H 0.21853 0.37964 0.38363 0.0
C475 C 0.07295 0.37686 0.36412 0.0
C476 C 0.10022 0.41176 0.41134 0.0
H477 H 0.07566 0.31506 0.29036 0.0
H478 H 0.0322 0.37579 0.35776 0.0
C479 C 0.15293 0.41198 0.41866 0.0
C480 C 0.04502 0.03721 1.024 0.0
C481 C 0.01542 0.0169 0.96648 0.0
H482 H 0.05855 0.04062 0.12685 0.0
C483 C 0.97486 0.98394 0.97048 0.0
H484 H 0.07701 0.0621 1.02284 0.0
C485 C 0.96422 0.97163 0.03026 0.0
C486 C 0.99383 0.99194 0.08777 0.0
H487 H 0.95069 0.96822 0.92741 0.0
H488 H 0.93223 0.94675 0.03141 0.0
C489 C 0.03438 0.0249 0.08378 0.0
C490 C 0.27207 0.70648 0.28631 0.0
C491 C 0.26096 0.73937 0.33974 0.0
H492 H 0.27348 0.69428 0.18414 0.0
C493 C 0.24295 0.78705 0.32952 0.0
H494 H 0.2853 0.66922 0.29224 0.0
C495 C 0.23624 0.80145 0.26749 0.0
C496 C 0.24736 0.76857 0.21406 0.0
H497 H 0.23483 0.81366 0.36966 0.0
H498 H 0.223 0.83872 0.26155 0.0
C499 C 0.26535 0.72089 0.22428 0.0
C500 C 0.45596 0.01913 0.53579 0.0
C501 C 0.48988 0.01085 0.58964 0.0
H502 H 0.44315 0.01865 0.43334 0.0
C503 C 0.53873 0.99606 0.5799 0.0
H504 H 0.41783 0.02984 0.54138 0.0
C505 C 0.55328 0.98971 0.51792 0.0
C506 C 0.51937 0.99799 0.46406 0.0
H507 H 0.5661 0.99019 0.62036 0.0
H508 H 0.59141 0.97901 0.51233 0.0
C509 C 0.47052 0.01278 0.4738 0.0
C510 C 0.20831 0.26848 0.79657 0.0
C511 C 0.24184 0.24329 0.83748 0.0
H512 H 0.19433 0.29932 0.70718 0.0
C513 C 0.28818 0.22914 0.81705 0.0
H514 H 0.17266 0.28072 0.81111 0.0
C515 C 0.30063 0.23986 0.75737 0.0
C516 C 0.26711 0.26505 0.71646 0.0
H517 H 0.31462 0.20902 0.84677 0.0
H518 H 0.33628 0.22762 0.74284 0.0
C519 C 0.22076 0.2792 0.73689 0.0
C520 C 0.74503 0.28827 0.8306 0.0
C521 C 0.76126 0.23993 0.84054 0.0
H522 H 0.72657 0.34043 0.76284 0.0
C523 C 0.77071 0.20639 0.78685 0.0
H524 H 0.73823 0.31536 0.87094 0.0
C525 C 0.76409 0.22081 0.72483 0.0
C526 C 0.74785 0.26914 0.71488 0.0
H527 H 0.78254 0.16864 0.79259 0.0
H528 H 0.77088 0.19372 0.68449 0.0
C529 C 0.73841 0.30269 0.76858 0.0
C530 C 0.70811 0.76831 0.2963 0.0
C531 C 0.74172 0.7433 0.33733 0.0
H532 H 0.69406 0.79903 0.20683 0.0
C533 C 0.78814 0.72933 0.31701 0.0
H534 H 0.67239 0.78041 0.31074 0.0
C535 C 0.8006 0.74005 0.25733 0.0
C536 C 0.767 0.76507 0.21631 0.0
H537 H 0.81465 0.70934 0.34682 0.0
H538 H 0.83632 0.72795 0.24289 0.0
C539 C 0.72057 0.77904 0.23663 0.0
C540 C 0.46434 0.47148 0.53023 0.0
C541 C 0.49386 0.49189 0.58775 0.0
H542 H 0.45083 0.46801 0.42738 0.0
C543 C 0.53431 0.525 0.58377 0.0
H544 H 0.43244 0.44648 0.53137 0.0
C545 C 0.54491 0.53734 0.52399 0.0
C546 C 0.51538 0.51692 0.46646 0.0
H547 H 0.55842 0.54081 0.62684 0.0
H548 H 0.57681 0.56234 0.52284 0.0
C549 C 0.47494 0.48382 0.47045 0.0
C550 C 0.01017 0.45621 0.99549 0.0
C551 C 0.01943 0.49801 0.96387 0.0
H552 H 0.98795 0.42961 0.07994 0.0
C553 C 0.01362 0.54641 0.99571 0.0
H554 H 0.01345 0.41838 0.97197 0.0
C555 C 0.99894 0.55284 0.05762 0.0
C556 C 0.98967 0.51104 0.08924 0.0
H557 H 0.02116 0.57944 0.97317 0.0
H558 H 0.99565 0.59067 0.08114 0.0
C559 C 0.99548 0.46264 0.0574 0.0
loop_
_geom_bond_atom_site_label_1
_geom_bond_atom_site_label_2
_geom_bond_distance
_geom_bond_site_symmetry_2
_ccdc_geom_bond_type
Pr0 C2 2.880 1_655 S
Pr0 O20 2.562 . S
Pr0 O21 2.490 1_655 S
Pr0 O22 2.695 1_655 S
Pr0 O23 2.512 1_655 S
Pr0 O25 2.437 1_665 S
Pr0 O28 2.436 1_565 S
Pr0 O30 2.438 . S
Pr1 C11 2.880 1_455 S
Pr1 O22 2.436 1_545 S
Pr1 O24 2.438 . S
Pr1 O26 2.562 . S
Pr1 O27 2.490 1_455 S
Pr1 O28 2.695 1_455 S
Pr1 O29 2.512 1_455 S
Pr1 O31 2.437 1_445 S
C2 Pr0 2.880 1_455 S
C2 C3 1.491 . S
C2 O20 1.254 1_455 S
C2 O21 1.225 . S
C3 C2 1.491 . S
C3 C4 1.392 . S
C3 C8 1.356 . S
C4 C3 1.392 . S
C4 C5 1.368 . S
C4 H32 0.929 . S
C5 C4 1.368 . S
C5 C6 1.386 . S
C5 H33 0.929 . S
C6 C5 1.386 . S
C6 C7 1.373 . S
C7 C6 1.373 . S
C7 C8 1.409 . S
C7 H34 0.931 1_565 S
C8 C3 1.356 . S
C8 C7 1.409 . S
C8 H35 0.930 1_465 S
C9 O22 1.270 . S
C9 O23 1.248 . S
C10 O24 1.267 . S
C10 O25 1.278 . S
C11 Pr1 2.880 1_655 S
C11 C12 1.491 . S
C11 O26 1.254 1_655 S
C11 O27 1.225 . S
C12 C11 1.491 . S
C12 C13 1.392 . S
C12 C17 1.356 . S
C13 C12 1.392 . S
C13 C14 1.368 . S
C13 H36 0.929 . S
C14 C13 1.368 . S
C14 C15 1.386 . S
C14 H37 0.929 . S
C15 C14 1.386 . S
C15 C16 1.373 . S
C16 C15 1.373 . S
C16 C17 1.409 . S
C16 H38 0.931 1_545 S
C17 C12 1.356 . S
C17 C16 1.409 . S
C17 H39 0.930 1_645 S
C18 O28 1.270 . S
C18 O29 1.248 . S
C19 O30 1.267 . S
C19 O31 1.278 . S
O20 Pr0 2.562 . S
O20 C2 1.254 1_655 S
O21 Pr0 2.490 1_455 S
O21 C2 1.225 . S
O22 Pr0 2.695 1_455 S
O22 Pr1 2.436 1_565 S
O22 C9 1.270 . S
O23 Pr0 2.512 1_455 S
O23 C9 1.248 . S
O24 Pr1 2.438 . S
O24 C10 1.267 . S
O25 Pr0 2.437 1_445 S
O25 C10 1.278 . S
O26 Pr1 2.562 . S
O26 C11 1.254 1_455 S
O27 Pr1 2.490 1_655 S
O27 C11 1.225 . S
O28 Pr0 2.436 1_545 S
O28 Pr1 2.695 1_655 S
O28 C18 1.270 . S
O29 Pr1 2.512 1_655 S
O29 C18 1.248 . S
O30 Pr0 2.438 . S
O30 C19 1.267 . S
O31 Pr1 2.437 1_665 S
O31 C19 1.278 . S
H32 C4 0.929 . S
H33 C5 0.929 . S
H34 C7 0.931 1_545 S
H35 C8 0.930 1_645 S
H36 C13 0.929 . S
H37 C14 0.929 . S
H38 C16 0.931 1_565 S
H39 C17 0.930 1_465 S
Pr40 C42 2.880 . S
Pr40 O60 2.562 . S
Pr40 O61 2.490 . S
Pr40 O62 2.695 . S
Pr40 O63 2.512 . S
Pr40 O65 2.437 . S
Pr40 O68 2.436 . S
Pr40 O70 2.438 . S
Pr41 C51 2.880 . S
Pr41 O62 2.436 . S
Pr41 O64 2.438 . S
Pr41 O66 2.562 . S
Pr41 O67 2.490 . S
Pr41 O68 2.695 . S
Pr41 O69 2.512 . S
Pr41 O71 2.437 . S
C42 Pr40 2.880 . S
C42 C43 1.491 . S
C42 O60 1.254 . S
C42 O61 1.225 . S
C43 C42 1.491 . S
C43 C44 1.392 . S
C43 C48 1.356 . S
C44 C43 1.392 . S
C44 C45 1.368 . S
C44 H72 0.929 . S
C45 C44 1.368 . S
C45 C46 1.386 . S
C45 H73 0.929 . S
C46 C45 1.386 . S
C46 C47 1.373 . S
C47 C46 1.373 . S
C47 C48 1.409 . S
C47 H74 0.931 . S
C48 C43 1.356 . S
C48 C47 1.409 . S
C48 H75 0.930 . S
C49 O62 1.270 . S
C49 O63 1.248 . S
C50 O64 1.267 . S
C50 O65 1.278 . S
C51 Pr41 2.880 . S
C51 C52 1.491 1_556 S
C51 O66 1.254 . S
C51 O67 1.225 . S
C52 C51 1.491 1_554 S
C52 C53 1.392 . S
C52 C57 1.356 . S
C53 C52 1.392 . S
C53 C54 1.368 . S
C53 H76 0.929 1_554 S
C54 C53 1.368 . S
C54 C55 1.386 . S
C54 H77 0.929 . S
C55 C54 1.386 . S
C55 C56 1.373 . S
C56 C55 1.373 . S
C56 C57 1.409 . S
C56 H78 0.931 . S
C57 C52 1.356 . S
C57 C56 1.409 . S
C57 H79 0.930 . S
C58 O68 1.270 . S
C58 O69 1.248 . S
C59 O70 1.267 . S
C59 O71 1.278 . S
O60 Pr40 2.562 . S
O60 C42 1.254 . S
O61 Pr40 2.490 . S
O61 C42 1.225 . S
O62 Pr40 2.695 . S
O62 Pr41 2.436 . S
O62 C49 1.270 . S
O63 Pr40 2.512 . S
O63 C49 1.248 . S
O64 Pr41 2.438 . S
O64 C50 1.267 . S
O65 Pr40 2.437 . S
O65 C50 1.278 . S
O66 Pr41 2.562 . S
O66 C51 1.254 . S
O67 Pr41 2.490 . S
O67 C51 1.225 . S
O68 Pr40 2.436 . S
O68 Pr41 2.695 . S
O68 C58 1.270 . S
O69 Pr41 2.512 . S
O69 C58 1.248 . S
O70 Pr40 2.438 . S
O70 C59 1.267 . S
O71 Pr41 2.437 . S
O71 C59 1.278 . S
H72 C44 0.929 . S
H73 C45 0.929 . S
H74 C47 0.931 . S
H75 C48 0.930 . S
H76 C53 0.929 1_556 S
H77 C54 0.929 . S
H78 C56 0.931 . S
H79 C57 0.930 . S
Pr80 C82 2.880 . S
Pr80 O100 2.562 1_565 S
Pr80 O101 2.490 . S
Pr80 O102 2.695 1_554 S
Pr80 O103 2.512 . S
Pr80 O105 2.437 1_565 S
Pr80 O108 2.436 1_565 S
Pr80 O110 2.438 1_554 S
Pr81 C91 2.880 . S
Pr81 O102 2.436 1_545 S
Pr81 O104 2.438 1_556 S
Pr81 O106 2.562 1_545 S
Pr81 O107 2.490 . S
Pr81 O108 2.695 1_556 S
Pr81 O109 2.512 . S
Pr81 O111 2.437 1_545 S
C82 Pr80 2.880 . S
C82 C83 1.491 . S
C82 O100 1.254 1_565 S
C82 O101 1.225 . S
C83 C82 1.491 . S
C83 C84 1.392 . S
C83 C88 1.356 1_565 S
C84 C83 1.392 . S
C84 C85 1.368 . S
C84 H112 0.929 . S
C85 C84 1.368 . S
C85 C86 1.386 . S
C85 H113 0.929 . S
C86 C85 1.386 . S
C86 C87 1.373 1_565 S
C87 C86 1.373 1_545 S
C87 C88 1.409 . S
C87 H114 0.931 . S
C88 C83 1.356 1_545 S
C88 C87 1.409 . S
C88 H115 0.930 . S
C89 O102 1.270 . S
C89 O103 1.248 1_556 S
C90 O104 1.267 . S
C90 O105 1.278 . S
C91 Pr81 2.880 . S
C91 C92 1.491 . S
C91 O106 1.254 1_545 S
C91 O107 1.225 . S
C92 C91 1.491 . S
C92 C93 1.392 . S
C92 C97 1.356 1_545 S
C93 C92 1.392 . S
C93 C94 1.368 . S
C93 H116 0.929 . S
C94 C93 1.368 . S
C94 C95 1.386 . S
C94 H117 0.929 . S
C95 C94 1.386 . S
C95 C96 1.373 1_545 S
C96 C95 1.373 1_565 S
C96 C97 1.409 . S
C96 H118 0.931 . S
C97 C92 1.356 1_565 S
C97 C96 1.409 . S
C97 H119 0.930 . S
C98 O108 1.270 . S
C98 O109 1.248 1_554 S
C99 O110 1.267 . S
C99 O111 1.278 . S
O100 Pr80 2.562 1_545 S
O100 C82 1.254 1_545 S
O101 Pr80 2.490 . S
O101 C82 1.225 . S
O102 Pr80 2.695 1_556 S
O102 Pr81 2.436 1_565 S
O102 C89 1.270 . S
O103 Pr80 2.512 . S
O103 C89 1.248 1_554 S
O104 Pr81 2.438 1_554 S
O104 C90 1.267 . S
O105 Pr80 2.437 1_545 S
O105 C90 1.278 . S
O106 Pr81 2.562 1_565 S
O106 C91 1.254 1_565 S
O107 Pr81 2.490 . S
O107 C91 1.225 . S
O108 Pr80 2.436 1_545 S
O108 Pr81 2.695 1_554 S
O108 C98 1.270 . S
O109 Pr81 2.512 . S
O109 C98 1.248 1_556 S
O110 Pr80 2.438 1_556 S
O110 C99 1.267 . S
O111 Pr81 2.437 1_565 S
O111 C99 1.278 . S
H112 C84 0.929 . S
H113 C85 0.929 . S
H114 C87 0.931 . S
H115 C88 0.930 . S
H116 C93 0.929 . S
H117 C94 0.929 . S
H118 C96 0.931 . S
H119 C97 0.930 . S
Pr120 C122 2.880 . S
Pr120 O140 2.562 . S
Pr120 O141 2.490 . S
Pr120 O142 2.695 . S
Pr120 O143 2.512 . S
Pr120 O145 2.437 . S
Pr120 O148 2.436 . S
Pr120 O150 2.438 . S
Pr121 C131 2.880 . S
Pr121 O142 2.436 . S
Pr121 O144 2.438 . S
Pr121 O146 2.562 . S
Pr121 O147 2.490 . S
Pr121 O148 2.695 . S
Pr121 O149 2.512 . S
Pr121 O151 2.437 . S
C122 Pr120 2.880 . S
C122 C123 1.491 . S
C122 O140 1.254 . S
C122 O141 1.225 . S
C123 C122 1.491 . S
C123 C124 1.392 . S
C123 C128 1.356 . S
C124 C123 1.392 . S
C124 C125 1.368 . S
C124 H152 0.929 . S
C125 C124 1.368 . S
C125 C126 1.386 . S
C125 H153 0.929 . S
C126 C125 1.386 . S
C126 C127 1.373 . S
C127 C126 1.373 . S
C127 C128 1.409 . S
C127 H154 0.931 . S
C128 C123 1.356 . S
C128 C127 1.409 . S
C128 H155 0.930 . S
C129 O142 1.270 . S
C129 O143 1.248 . S
C130 O144 1.267 . S
C130 O145 1.278 . S
C131 Pr121 2.880 . S
C131 C132 1.491 1_554 S
C131 O146 1.254 . S
C131 O147 1.225 . S
C132 C131 1.491 1_556 S
C132 C133 1.392 . S
C132 C137 1.356 . S
C133 C132 1.392 . S
C133 C134 1.368 . S
C133 H156 0.929 . S
C134 C133 1.368 . S
C134 C135 1.386 . S
C134 H157 0.929 . S
C135 C134 1.386 . S
C135 C136 1.373 . S
C136 C135 1.373 . S
C136 C137 1.409 . S
C136 H158 0.931 . S
C137 C132 1.356 . S
C137 C136 1.409 . S
C137 H159 0.930 . S
C138 O148 1.270 . S
C138 O149 1.248 . S
C139 O150 1.267 . S
C139 O151 1.278 . S
O140 Pr120 2.562 . S
O140 C122 1.254 . S
O141 Pr120 2.490 . S
O141 C122 1.225 . S
O142 Pr120 2.695 . S
O142 Pr121 2.436 . S
O142 C129 1.270 . S
O143 Pr120 2.512 . S
O143 C129 1.248 . S
O144 Pr121 2.438 . S
O144 C130 1.267 . S
O145 Pr120 2.437 . S
O145 C130 1.278 . S
O146 Pr121 2.562 . S
O146 C131 1.254 . S
O147 Pr121 2.490 . S
O147 C131 1.225 . S
O148 Pr120 2.436 . S
O148 Pr121 2.695 . S
O148 C138 1.270 . S
O149 Pr121 2.512 . S
O149 C138 1.248 . S
O150 Pr120 2.438 . S
O150 C139 1.267 . S
O151 Pr121 2.437 . S
O151 C139 1.278 . S
H152 C124 0.929 . S
H153 C125 0.929 . S
H154 C127 0.931 . S
H155 C128 0.930 . S
H156 C133 0.929 . S
H157 C134 0.929 . S
H158 C136 0.931 . S
H159 C137 0.930 . S
Pr160 C162 2.880 . S
Pr160 O180 2.562 . S
Pr160 O181 2.490 . S
Pr160 O182 2.695 . S
Pr160 O183 2.512 . S
Pr160 O185 2.437 . S
Pr160 O188 2.436 . S
Pr160 O190 2.438 . S
Pr161 C171 2.880 . S
Pr161 O182 2.436 . S
Pr161 O184 2.438 . S
Pr161 O186 2.562 . S
Pr161 O187 2.490 . S
Pr161 O188 2.695 . S
Pr161 O189 2.512 . S
Pr161 O191 2.437 . S
C162 Pr160 2.880 . S
C162 C163 1.491 1_554 S
C162 O180 1.254 . S
C162 O181 1.225 . S
C163 C162 1.491 1_556 S
C163 C164 1.392 . S
C163 C168 1.356 . S
C164 C163 1.392 . S
C164 C165 1.368 . S
C164 H192 0.929 1_556 S
C165 C164 1.368 . S
C165 C166 1.386 . S
C165 H193 0.929 . S
C166 C165 1.386 . S
C166 C167 1.373 . S
C167 C166 1.373 . S
C167 C168 1.409 . S
C167 H194 0.931 . S
C168 C163 1.356 . S
C168 C167 1.409 . S
C168 H195 0.930 . S
C169 O182 1.270 . S
C169 O183 1.248 . S
C170 O184 1.267 . S
C170 O185 1.278 . S
C171 Pr161 2.880 . S
C171 C172 1.491 . S
C171 O186 1.254 . S
C171 O187 1.225 . S
C172 C171 1.491 . S
C172 C173 1.392 . S
C172 C177 1.356 . S
C173 C172 1.392 . S
C173 C174 1.368 . S
C173 H196 0.929 . S
C174 C173 1.368 . S
C174 C175 1.386 . S
C174 H197 0.929 . S
C175 C174 1.386 . S
C175 C176 1.373 . S
C176 C175 1.373 . S
C176 C177 1.409 . S
C176 H198 0.931 . S
C177 C172 1.356 . S
C177 C176 1.409 . S
C177 H199 0.930 . S
C178 O188 1.270 . S
C178 O189 1.248 . S
C179 O190 1.267 . S
C179 O191 1.278 . S
O180 Pr160 2.562 . S
O180 C162 1.254 . S
O181 Pr160 2.490 . S
O181 C162 1.225 . S
O182 Pr160 2.695 . S
O182 Pr161 2.436 . S
O182 C169 1.270 . S
O183 Pr160 2.512 . S
O183 C169 1.248 . S
O184 Pr161 2.438 . S
O184 C170 1.267 . S
O185 Pr160 2.437 . S
O185 C170 1.278 . S
O186 Pr161 2.562 . S
O186 C171 1.254 . S
O187 Pr161 2.490 . S
O187 C171 1.225 . S
O188 Pr160 2.436 . S
O188 Pr161 2.695 . S
O188 C178 1.270 . S
O189 Pr161 2.512 . S
O189 C178 1.248 . S
O190 Pr160 2.438 . S
O190 C179 1.267 . S
O191 Pr161 2.437 . S
O191 C179 1.278 . S
H192 C164 0.929 1_554 S
H193 C165 0.929 . S
H194 C167 0.931 . S
H195 C168 0.930 . S
H196 C173 0.929 . S
H197 C174 0.929 . S
H198 C176 0.931 . S
H199 C177 0.930 . S
Pr200 C202 2.880 . S
Pr200 O220 2.562 . S
Pr200 O221 2.490 . S
Pr200 O222 2.695 . S
Pr200 O223 2.512 . S
Pr200 O225 2.437 . S
Pr200 O228 2.436 . S
Pr200 O230 2.438 . S
Pr201 C211 2.880 . S
Pr201 O222 2.436 . S
Pr201 O224 2.438 . S
Pr201 O226 2.562 . S
Pr201 O227 2.490 . S
Pr201 O228 2.695 . S
Pr201 O229 2.512 . S
Pr201 O231 2.437 . S
C202 Pr200 2.880 . S
C202 C203 1.491 1_556 S
C202 O220 1.254 . S
C202 O221 1.225 . S
C203 C202 1.491 1_554 S
C203 C204 1.392 . S
C203 C208 1.356 . S
C204 C203 1.392 . S
C204 C205 1.368 . S
C204 H232 0.929 . S
C205 C204 1.368 . S
C205 C206 1.386 . S
C205 H233 0.929 . S
C206 C205 1.386 . S
C206 C207 1.373 . S
C207 C206 1.373 . S
C207 C208 1.409 . S
C207 H234 0.931 . S
C208 C203 1.356 . S
C208 C207 1.409 . S
C208 H235 0.930 . S
C209 O222 1.270 . S
C209 O223 1.248 . S
C210 O224 1.267 . S
C210 O225 1.278 . S
C211 Pr201 2.880 . S
C211 C212 1.491 . S
C211 O226 1.254 . S
C211 O227 1.225 . S
C212 C211 1.491 . S
C212 C213 1.392 . S
C212 C217 1.356 . S
C213 C212 1.392 . S
C213 C214 1.368 . S
C213 H236 0.929 . S
C214 C213 1.368 . S
C214 C215 1.386 . S
C214 H237 0.929 . S
C215 C214 1.386 . S
C215 C216 1.373 . S
C216 C215 1.373 . S
C216 C217 1.409 . S
C216 H238 0.931 . S
C217 C212 1.356 . S
C217 C216 1.409 . S
C217 H239 0.930 . S
C218 O228 1.270 . S
C218 O229 1.248 . S
C219 O230 1.267 . S
C219 O231 1.278 . S
O220 Pr200 2.562 . S
O220 C202 1.254 . S
O221 Pr200 2.490 . S
O221 C202 1.225 . S
O222 Pr200 2.695 . S
O222 Pr201 2.436 . S
O222 C209 1.270 . S
O223 Pr200 2.512 . S
O223 C209 1.248 . S
O224 Pr201 2.438 . S
O224 C210 1.267 . S
O225 Pr200 2.437 . S
O225 C210 1.278 . S
O226 Pr201 2.562 . S
O226 C211 1.254 . S
O227 Pr201 2.490 . S
O227 C211 1.225 . S
O228 Pr200 2.436 . S
O228 Pr201 2.695 . S
O228 C218 1.270 . S
O229 Pr201 2.512 . S
O229 C218 1.248 . S
O230 Pr200 2.438 . S
O230 C219 1.267 . S
O231 Pr201 2.437 . S
O231 C219 1.278 . S
H232 C204 0.929 . S
H233 C205 0.929 . S
H234 C207 0.931 . S
H235 C208 0.930 . S
H236 C213 0.929 . S
H237 C214 0.929 . S
H238 C216 0.931 . S
H239 C217 0.930 . S
Pr240 C242 2.880 . S
Pr240 O260 2.562 . S
Pr240 O261 2.490 . S
Pr240 O262 2.695 1_556 S
Pr240 O263 2.512 . S
Pr240 O265 2.437 . S
Pr240 O268 2.436 . S
Pr240 O270 2.438 . S
Pr241 C251 2.880 . S
Pr241 O262 2.436 . S
Pr241 O264 2.438 . S
Pr241 O266 2.562 . S
Pr241 O267 2.490 . S
Pr241 O268 2.695 1_554 S
Pr241 O269 2.512 . S
Pr241 O271 2.437 . S
C242 Pr240 2.880 . S
C242 C243 1.491 . S
C242 O260 1.254 . S
C242 O261 1.225 . S
C243 C242 1.491 . S
C243 C244 1.392 . S
C243 C248 1.356 . S
C244 C243 1.392 . S
C244 C245 1.368 . S
C244 H272 0.929 . S
C245 C244 1.368 . S
C245 C246 1.386 . S
C245 H273 0.929 . S
C246 C245 1.386 . S
C246 C247 1.373 . S
C247 C246 1.373 . S
C247 C248 1.409 . S
C247 H274 0.931 . S
C248 C243 1.356 . S
C248 C247 1.409 . S
C248 H275 0.930 . S
C249 O262 1.270 . S
C249 O263 1.248 1_554 S
C250 O264 1.267 1_556 S
C250 O265 1.278 . S
C251 Pr241 2.880 . S
C251 C252 1.491 . S
C251 O266 1.254 . S
C251 O267 1.225 . S
C252 C251 1.491 . S
C252 C253 1.392 . S
C252 C257 1.356 . S
C253 C252 1.392 . S
C253 C254 1.368 . S
C253 H276 0.929 . S
C254 C253 1.368 . S
C254 C255 1.386 . S
C254 H277 0.929 . S
C255 C254 1.386 . S
C255 C256 1.373 . S
C256 C255 1.373 . S
C256 C257 1.409 . S
C256 H278 0.931 . S
C257 C252 1.356 . S
C257 C256 1.409 . S
C257 H279 0.930 . S
C258 O268 1.270 . S
C258 O269 1.248 1_556 S
C259 O270 1.267 1_554 S
C259 O271 1.278 . S
O260 Pr240 2.562 . S
O260 C242 1.254 . S
O261 Pr240 2.490 . S
O261 C242 1.225 . S
O262 Pr240 2.695 1_554 S
O262 Pr241 2.436 . S
O262 C249 1.270 . S
O263 Pr240 2.512 . S
O263 C249 1.248 1_556 S
O264 Pr241 2.438 . S
O264 C250 1.267 1_554 S
O265 Pr240 2.437 . S
O265 C250 1.278 . S
O266 Pr241 2.562 . S
O266 C251 1.254 . S
O267 Pr241 2.490 . S
O267 C251 1.225 . S
O268 Pr240 2.436 . S
O268 Pr241 2.695 1_556 S
O268 C258 1.270 . S
O269 Pr241 2.512 . S
O269 C258 1.248 1_554 S
O270 Pr240 2.438 . S
O270 C259 1.267 1_556 S
O271 Pr241 2.437 . S
O271 C259 1.278 . S
H272 C244 0.929 . S
H273 C245 0.929 . S
H274 C247 0.931 . S
H275 C248 0.930 . S
H276 C253 0.929 . S
H277 C254 0.929 . S
H278 C256 0.931 . S
H279 C257 0.930 . S
Pr280 C282 2.880 1_455 S
Pr280 O300 2.562 . S
Pr280 O301 2.490 1_455 S
Pr280 O302 2.695 1_455 S
Pr280 O303 2.512 1_455 S
Pr280 O305 2.437 1_455 S
Pr280 O308 2.436 . S
Pr280 O310 2.438 . S
Pr281 C291 2.880 1_655 S
Pr281 O302 2.436 . S
Pr281 O304 2.438 . S
Pr281 O306 2.562 . S
Pr281 O307 2.490 1_655 S
Pr281 O308 2.695 1_655 S
Pr281 O309 2.512 1_655 S
Pr281 O311 2.437 1_655 S
C282 Pr280 2.880 1_655 S
C282 C283 1.491 . S
C282 O300 1.254 1_655 S
C282 O301 1.225 . S
C283 C282 1.491 . S
C283 C284 1.392 . S
C283 C288 1.356 . S
C284 C283 1.392 . S
C284 C285 1.368 . S
C284 H312 0.929 . S
C285 C284 1.368 . S
C285 C286 1.386 . S
C285 H313 0.929 . S
C286 C285 1.386 . S
C286 C287 1.373 . S
C287 C286 1.373 . S
C287 C288 1.409 . S
C287 H314 0.931 . S
C288 C283 1.356 . S
C288 C287 1.409 . S
C288 H315 0.930 1_655 S
C289 O302 1.270 . S
C289 O303 1.248 . S
C290 O304 1.267 . S
C290 O305 1.278 . S
C291 Pr281 2.880 1_455 S
C291 C292 1.491 . S
C291 O306 1.254 1_455 S
C291 O307 1.225 . S
C292 C291 1.491 . S
C292 C293 1.392 . S
C292 C297 1.356 . S
C293 C292 1.392 . S
C293 C294 1.368 . S
C293 H316 0.929 . S
C294 C293 1.368 . S
C294 C295 1.386 . S
C294 H317 0.929 . S
C295 C294 1.386 . S
C295 C296 1.373 . S
C296 C295 1.373 . S
C296 C297 1.409 . S
C296 H318 0.931 . S
C297 C292 1.356 . S
C297 C296 1.409 . S
C297 H319 0.930 1_455 S
C298 O308 1.270 . S
C298 O309 1.248 . S
C299 O310 1.267 . S
C299 O311 1.278 . S
O300 Pr280 2.562 . S
O300 C282 1.254 1_455 S
O301 Pr280 2.490 1_655 S
O301 C282 1.225 . S
O302 Pr280 2.695 1_655 S
O302 Pr281 2.436 . S
O302 C289 1.270 . S
O303 Pr280 2.512 1_655 S
O303 C289 1.248 . S
O304 Pr281 2.438 . S
O304 C290 1.267 . S
O305 Pr280 2.437 1_655 S
O305 C290 1.278 . S
O306 Pr281 2.562 . S
O306 C291 1.254 1_655 S
O307 Pr281 2.490 1_455 S
O307 C291 1.225 . S
O308 Pr280 2.436 . S
O308 Pr281 2.695 1_455 S
O308 C298 1.270 . S
O309 Pr281 2.512 1_455 S
O309 C298 1.248 . S
O310 Pr280 2.438 . S
O310 C299 1.267 . S
O311 Pr281 2.437 1_455 S
O311 C299 1.278 . S
H312 C284 0.929 . S
H313 C285 0.929 . S
H314 C287 0.931 . S
H315 C288 0.930 1_455 S
H316 C293 0.929 . S
H317 C294 0.929 . S
H318 C296 0.931 . S
H319 C297 0.930 1_655 S
C320 C321 1.387 . S
C320 H324 0.950 . S
C320 C329 1.390 . S
C321 C320 1.387 . S
C321 C323 1.387 . S
H322 C329 0.950 . S
C323 C321 1.387 . S
C323 C325 1.390 . S
C323 H327 0.950 . S
H324 C320 0.950 . S
C325 C323 1.390 . S
C325 C326 1.387 . S
C325 H328 0.950 . S
C326 C325 1.387 . S
C326 C329 1.387 . S
H327 C323 0.950 . S
H328 C325 0.950 . S
C329 C320 1.390 . S
C329 H322 0.950 . S
C329 C326 1.387 . S
C330 C331 1.387 . S
C330 H334 0.950 . S
C330 C339 1.390 . S
C331 C330 1.387 . S
C331 C333 1.387 . S
H332 C339 0.950 . S
C333 C331 1.387 . S
C333 C335 1.390 . S
C333 H337 0.950 . S
H334 C330 0.950 . S
C335 C333 1.390 . S
C335 C336 1.387 . S
C335 H338 0.950 . S
C336 C335 1.387 . S
C336 C339 1.387 . S
H337 C333 0.950 . S
H338 C335 0.950 . S
C339 C330 1.390 . S
C339 H332 0.950 . S
C339 C336 1.387 . S
C340 C341 1.387 . S
C340 H344 0.950 . S
C340 C349 1.390 . S
C341 C340 1.387 . S
C341 C343 1.387 . S
H342 C349 0.950 . S
C343 C341 1.387 . S
C343 C345 1.390 . S
C343 H347 0.950 . S
H344 C340 0.950 . S
C345 C343 1.390 . S
C345 C346 1.387 . S
C345 H348 0.950 . S
C346 C345 1.387 . S
C346 C349 1.387 . S
H347 C343 0.950 . S
H348 C345 0.950 . S
C349 C340 1.390 . S
C349 H342 0.950 . S
C349 C346 1.387 . S
C350 C351 1.387 . S
C350 H354 0.950 . S
C350 C359 1.390 . S
C351 C350 1.387 . S
C351 C353 1.387 . S
H352 C359 0.950 . S
C353 C351 1.387 . S
C353 C355 1.390 . S
C353 H357 0.950 . S
H354 C350 0.950 . S
C355 C353 1.390 . S
C355 C356 1.387 . S
C355 H358 0.950 . S
C356 C355 1.387 . S
C356 C359 1.387 . S
H357 C353 0.950 . S
H358 C355 0.950 . S
C359 C350 1.390 . S
C359 H352 0.950 . S
C359 C356 1.387 . S
C360 C361 1.387 . S
C360 H364 0.950 . S
C360 C369 1.390 . S
C361 C360 1.387 . S
C361 C363 1.387 . S
H362 C369 0.950 . S
C363 C361 1.387 . S
C363 C365 1.390 . S
C363 H367 0.950 . S
H364 C360 0.950 . S
C365 C363 1.390 . S
C365 C366 1.387 . S
C365 H368 0.950 . S
C366 C365 1.387 . S
C366 C369 1.387 . S
H367 C363 0.950 . S
H368 C365 0.950 . S
C369 C360 1.390 . S
C369 H362 0.950 . S
C369 C366 1.387 . S
C370 C371 1.387 . S
C370 H374 0.950 . S
C370 C379 1.390 . S
C371 C370 1.387 . S
C371 C373 1.387 . S
H372 C379 0.950 . S
C373 C371 1.387 . S
C373 C375 1.390 . S
C373 H377 0.950 . S
H374 C370 0.950 . S
C375 C373 1.390 . S
C375 C376 1.387 . S
C375 H378 0.950 . S
C376 C375 1.387 . S
C376 C379 1.387 . S
H377 C373 0.950 . S
H378 C375 0.950 . S
C379 C370 1.390 . S
C379 H372 0.950 . S
C379 C376 1.387 . S
C380 C381 1.387 . S
C380 H384 0.950 . S
C380 C389 1.390 . S
C381 C380 1.387 . S
C381 C383 1.387 . S
H382 C389 0.950 . S
C383 C381 1.387 . S
C383 C385 1.390 . S
C383 H387 0.950 . S
H384 C380 0.950 . S
C385 C383 1.390 . S
C385 C386 1.387 . S
C385 H388 0.950 . S
C386 C385 1.387 . S
C386 C389 1.387 . S
H387 C383 0.950 . S
H388 C385 0.950 . S
C389 C380 1.390 . S
C389 H382 0.950 . S
C389 C386 1.387 . S
C390 C391 1.387 . S
C390 H394 0.950 . S
C390 C399 1.390 . S
C391 C390 1.387 . S
C391 C393 1.387 . S
H392 C399 0.950 . S
C393 C391 1.387 . S
C393 C395 1.390 . S
C393 H397 0.950 . S
H394 C390 0.950 . S
C395 C393 1.390 . S
C395 C396 1.387 . S
C395 H398 0.950 . S
C396 C395 1.387 . S
C396 C399 1.387 . S
H397 C393 0.950 . S
H398 C395 0.950 . S
C399 C390 1.390 . S
C399 H392 0.950 . S
C399 C396 1.387 . S
C400 C401 1.387 . S
C400 H404 0.950 . S
C400 C409 1.390 . S
C401 C400 1.387 . S
C401 C403 1.387 . S
H402 C409 0.950 . S
C403 C401 1.387 . S
C403 C405 1.390 . S
C403 H407 0.950 . S
H404 C400 0.950 . S
C405 C403 1.390 . S
C405 C406 1.387 . S
C405 H408 0.950 . S
C406 C405 1.387 . S
C406 C409 1.387 . S
H407 C403 0.950 . S
H408 C405 0.950 . S
C409 C400 1.390 . S
C409 H402 0.950 . S
C409 C406 1.387 . S
C410 C411 1.387 . S
C410 H414 0.950 . S
C410 C419 1.390 . S
C411 C410 1.387 . S
C411 C413 1.387 . S
H412 C419 0.950 . S
C413 C411 1.387 . S
C413 C415 1.390 . S
C413 H417 0.950 . S
H414 C410 0.950 . S
C415 C413 1.390 . S
C415 C416 1.387 . S
C415 H418 0.950 . S
C416 C415 1.387 . S
C416 C419 1.387 . S
H417 C413 0.950 . S
H418 C415 0.950 . S
C419 C410 1.390 . S
C419 H412 0.950 . S
C419 C416 1.387 . S
C420 C421 1.387 . S
C420 H424 0.950 . S
C420 C429 1.390 . S
C421 C420 1.387 . S
C421 C423 1.387 . S
H422 C429 0.950 . S
C423 C421 1.387 . S
C423 C425 1.390 . S
C423 H427 0.950 . S
H424 C420 0.950 . S
C425 C423 1.390 . S
C425 C426 1.387 . S
C425 H428 0.950 . S
C426 C425 1.387 . S
C426 C429 1.387 . S
H427 C423 0.950 . S
H428 C425 0.950 . S
C429 C420 1.390 . S
C429 H422 0.950 . S
C429 C426 1.387 . S
C430 C431 1.387 . S
C430 H434 0.950 . S
C430 C439 1.390 . S
C431 C430 1.387 . S
C431 C433 1.387 . S
H432 C439 0.950 . S
C433 C431 1.387 . S
C433 C435 1.390 . S
C433 H437 0.950 . S
H434 C430 0.950 . S
C435 C433 1.390 . S
C435 C436 1.387 . S
C435 H438 0.950 . S
C436 C435 1.387 . S
C436 C439 1.387 . S
H437 C433 0.950 . S
H438 C435 0.950 . S
C439 C430 1.390 . S
C439 H432 0.950 . S
C439 C436 1.387 . S
C440 C441 1.387 . S
C440 H444 0.950 . S
C440 C449 1.390 . S
C441 C440 1.387 . S
C441 C443 1.387 . S
H442 C449 0.950 . S
C443 C441 1.387 . S
C443 C445 1.390 . S
C443 H447 0.950 . S
H444 C440 0.950 . S
C445 C443 1.390 . S
C445 C446 1.387 . S
C445 H448 0.950 . S
C446 C445 1.387 . S
C446 C449 1.387 . S
H447 C443 0.950 . S
H448 C445 0.950 . S
C449 C440 1.390 . S
C449 H442 0.950 . S
C449 C446 1.387 . S
C450 C451 1.387 . S
C450 H454 0.950 . S
C450 C459 1.390 . S
C451 C450 1.387 . S
C451 C453 1.387 . S
H452 C459 0.950 . S
C453 C451 1.387 . S
C453 C455 1.390 . S
C453 H457 0.950 . S
H454 C450 0.950 . S
C455 C453 1.390 . S
C455 C456 1.387 . S
C455 H458 0.950 . S
C456 C455 1.387 . S
C456 C459 1.387 . S
H457 C453 0.950 . S
H458 C455 0.950 . S
C459 C450 1.390 . S
C459 H452 0.950 . S
C459 C456 1.387 . S
C460 C461 1.387 . S
C460 H464 0.950 . S
C460 C469 1.390 . S
C461 C460 1.387 . S
C461 C463 1.387 . S
H462 C469 0.950 . S
C463 C461 1.387 . S
C463 C465 1.390 . S
C463 H467 0.950 . S
H464 C460 0.950 . S
C465 C463 1.390 . S
C465 C466 1.387 . S
C465 H468 0.950 . S
C466 C465 1.387 . S
C466 C469 1.387 . S
H467 C463 0.950 . S
H468 C465 0.950 . S
C469 C460 1.390 . S
C469 H462 0.950 . S
C469 C466 1.387 . S
C470 C471 1.387 . S
C470 H474 0.950 . S
C470 C479 1.390 . S
C471 C470 1.387 . S
C471 C473 1.387 . S
H472 C479 0.950 . S
C473 C471 1.387 . S
C473 C475 1.390 . S
C473 H477 0.950 . S
H474 C470 0.950 . S
C475 C473 1.390 . S
C475 C476 1.387 . S
C475 H478 0.950 . S
C476 C475 1.387 . S
C476 C479 1.387 . S
H477 C473 0.950 . S
H478 C475 0.950 . S
C479 C470 1.390 . S
C479 H472 0.950 . S
C479 C476 1.387 . S
C480 C481 1.387 1_554 S
C480 H484 0.950 . S
C480 C489 1.390 1_655 S
C481 C480 1.387 1_556 S
C481 C483 1.387 1_545 S
H482 C489 0.950 . S
C483 C481 1.387 1_565 S
C483 C485 1.390 1_655 S
C483 H487 0.950 . S
H484 C480 0.950 . S
C485 C483 1.390 1_455 S
C485 C486 1.387 1_556 S
C485 H488 0.950 . S
C486 C485 1.387 1_554 S
C486 C489 1.387 1_565 S
H487 C483 0.950 . S
H488 C485 0.950 . S
C489 C480 1.390 1_455 S
C489 H482 0.950 . S
C489 C486 1.387 1_545 S
C490 C491 1.387 . S
C490 H494 0.950 . S
C490 C499 1.390 . S
C491 C490 1.387 . S
C491 C493 1.387 . S
H492 C499 0.950 . S
C493 C491 1.387 . S
C493 C495 1.390 . S
C493 H497 0.950 . S
H494 C490 0.950 . S
C495 C493 1.390 . S
C495 C496 1.387 . S
C495 H498 0.950 . S
C496 C495 1.387 . S
C496 C499 1.387 . S
H497 C493 0.950 . S
H498 C495 0.950 . S
C499 C490 1.390 . S
C499 H492 0.950 . S
C499 C496 1.387 . S
C500 C501 1.387 . S
C500 H504 0.950 . S
C500 C509 1.390 . S
C501 C500 1.387 . S
C501 C503 1.387 1_545 S
H502 C509 0.950 . S
C503 C501 1.387 1_565 S
C503 C505 1.390 . S
C503 H507 0.950 . S
H504 C500 0.950 . S
C505 C503 1.390 . S
C505 C506 1.387 . S
C505 H508 0.950 . S
C506 C505 1.387 . S
C506 C509 1.387 1_565 S
H507 C503 0.950 . S
H508 C505 0.950 . S
C509 C500 1.390 . S
C509 H502 0.950 . S
C509 C506 1.387 1_545 S
C510 C511 1.387 . S
C510 H514 0.950 . S
C510 C519 1.390 . S
C511 C510 1.387 . S
C511 C513 1.387 . S
H512 C519 0.950 . S
C513 C511 1.387 . S
C513 C515 1.390 . S
C513 H517 0.950 . S
H514 C510 0.950 . S
C515 C513 1.390 . S
C515 C516 1.387 . S
C515 H518 0.950 . S
C516 C515 1.387 . S
C516 C519 1.387 . S
H517 C513 0.950 . S
H518 C515 0.950 . S
C519 C510 1.390 . S
C519 H512 0.950 . S
C519 C516 1.387 . S
C520 C521 1.387 . S
C520 H524 0.950 . S
C520 C529 1.390 . S
C521 C520 1.387 . S
C521 C523 1.387 . S
H522 C529 0.950 . S
C523 C521 1.387 . S
C523 C525 1.390 . S
C523 H527 0.950 . S
H524 C520 0.950 . S
C525 C523 1.390 . S
C525 C526 1.387 . S
C525 H528 0.950 . S
C526 C525 1.387 . S
C526 C529 1.387 . S
H527 C523 0.950 . S
H528 C525 0.950 . S
C529 C520 1.390 . S
C529 H522 0.950 . S
C529 C526 1.387 . S
C530 C531 1.387 . S
C530 H534 0.950 . S
C530 C539 1.390 . S
C531 C530 1.387 . S
C531 C533 1.387 . S
H532 C539 0.950 . S
C533 C531 1.387 . S
C533 C535 1.390 . S
C533 H537 0.950 . S
H534 C530 0.950 . S
C535 C533 1.390 . S
C535 C536 1.387 . S
C535 H538 0.950 . S
C536 C535 1.387 . S
C536 C539 1.387 . S
H537 C533 0.950 . S
H538 C535 0.950 . S
C539 C530 1.390 . S
C539 H532 0.950 . S
C539 C536 1.387 . S
C540 C541 1.387 . S
C540 H544 0.950 . S
C540 C549 1.390 . S
C541 C540 1.387 . S
C541 C543 1.387 . S
H542 C549 0.950 . S
C543 C541 1.387 . S
C543 C545 1.390 . S
C543 H547 0.950 . S
H544 C540 0.950 . S
C545 C543 1.390 . S
C545 C546 1.387 . S
C545 H548 0.950 . S
C546 C545 1.387 . S
C546 C549 1.387 . S
H547 C543 0.950 . S
H548 C545 0.950 . S
C549 C540 1.390 . S
C549 H542 0.950 . S
C549 C546 1.387 . S
C550 C551 1.387 . S
C550 H554 0.950 . S
C550 C559 1.390 1_556 S
C551 C550 1.387 . S
C551 C553 1.387 1_655 S
H552 C559 0.950 . S
C553 C551 1.387 1_455 S
C553 C555 1.390 1_556 S
C553 H557 0.950 . S
H554 C550 0.950 . S
C555 C553 1.390 1_554 S
C555 C556 1.387 . S
C555 H558 0.950 . S
C556 C555 1.387 . S
C556 C559 1.387 1_455 S
H557 C553 0.950 . S
H558 C555 0.950 . S
C559 C550 1.390 1_554 S
C559 H552 0.950 . S
C559 C556 1.387 1_655 S
C321 C10 1.973 . S
C326 C130 1.970 . S
C331 C9 1.552 . S
C336 C50 1.574 . S
C341 C49 1.056 . S
C346 C89 1.060 . S
C351 C90 1.573 . S
C356 C129 1.550 . S
C361 C19 1.973 . S
C366 C219 1.975 . S
C371 C18 1.551 . S
C376 C179 1.573 . S
C381 C178 1.058 . S
C386 C98 1.054 . S
C391 C218 1.551 . S
C396 C99 1.575 . S
C401 C250 1.972 . S
C406 C210 1.974 . S
C411 C170 1.573 . S
C416 C249 1.550 . S
C421 C289 1.057 . S
C426 C169 1.058 . S
C431 C209 1.550 . S
C436 C290 1.574 . S
C441 C139 1.972 . S
C446 C259 1.972 . S
C451 C258 1.551 . S
C456 C59 1.574 . S
C461 C58 1.056 . S
C466 C298 1.055 . S
C471 C138 1.550 . S
C476 C299 1.571 . S
C481 C15 1.928 . S
C486 C6 1.928 . S
C491 C46 1.510 . S
C496 C55 1.510 . S
C501 C95 1.507 . S
C506 C86 1.507 . S
C511 C135 1.931 . S
C516 C126 1.931 . S
C521 C166 1.506 . S
C526 C175 1.506 . S
C531 C215 1.931 . S
C536 C206 1.931 . S
C541 C246 1.930 . S
C546 C255 1.930 . S
C551 C286 1.509 . S
C556 C295 1.509 . S
