# Generated by pormake.
# Topology ull, (4)-cn, num edge types: 1
# Building blocks:
#     Node 0, Type 0, BuildingBlock: QUQFOY_clean_sbu_3, # of connection points: 4
#     Node 1, Type 0, BuildingBlock: QUQFOY_clean_sbu_3, # of connection points: 4
#     Node 2, Type 0, BuildingBlock: QUQFOY_clean_sbu_3, # of connection points: 4
#     Node 3, Type 0, BuildingBlock: QUQFOY_clean_sbu_3, # of connection points: 4
#     Node 4, Type 0, BuildingBlock: QUQFOY_clean_sbu_3, # of connection points: 4
#     Node 5, Type 0, BuildingBlock: QUQFOY_clean_sbu_3, # of connection points: 4
#     Node 6, Type 0, BuildingBlock: QUQFOY_clean_sbu_3, # of connection points: 4
#     Node 7, Type 0, BuildingBlock: QUQFOY_clean_sbu_3, # of connection points: 4
#     Node 8, Type 0, BuildingBlock: QUQFOY_clean_sbu_3, # of connection points: 4
#     Node 9, Type 0, BuildingBlock: QUQFOY_clean_sbu_3, # of connection points: 4
#     Node 10, Type 0, BuildingBlock: QUQFOY_clean_sbu_3, # of connection points: 4
#     Node 11, Type 0, BuildingBlock: QUQFOY_clean_sbu_3, # of connection points: 4
#     Node 12, Type 0, BuildingBlock: QUQFOY_clean_sbu_3, # of connection points: 4
#     Node 13, Type 0, BuildingBlock: QUQFOY_clean_sbu_3, # of connection points: 4
#     Node 14, Type 0, BuildingBlock: QUQFOY_clean_sbu_3, # of connection points: 4
#     Node 15, Type 0, BuildingBlock: QUQFOY_clean_sbu_3, # of connection points: 4
#     Node 16, Type 0, BuildingBlock: QUQFOY_clean_sbu_3, # of connection points: 4
#     Node 17, Type 0, BuildingBlock: QUQFOY_clean_sbu_3, # of connection points: 4
#     Node 18, Type 0, BuildingBlock: QUQFOY_clean_sbu_3, # of connection points: 4
#     Node 19, Type 0, BuildingBlock: QUQFOY_clean_sbu_3, # of connection points: 4
#     Node 20, Type 0, BuildingBlock: QUQFOY_clean_sbu_3, # of connection points: 4
#     Node 21, Type 0, BuildingBlock: QUQFOY_clean_sbu_3, # of connection points: 4
#     Node 22, Type 0, BuildingBlock: QUQFOY_clean_sbu_3, # of connection points: 4
#     Node 23, Type 0, BuildingBlock: QUQFOY_clean_sbu_3, # of connection points: 4
#     Node 24, Type 0, BuildingBlock: QUQFOY_clean_sbu_3, # of connection points: 4
#     Node 25, Type 0, BuildingBlock: QUQFOY_clean_sbu_3, # of connection points: 4
#     Node 26, Type 0, BuildingBlock: QUQFOY_clean_sbu_3, # of connection points: 4
#     Node 27, Type 0, BuildingBlock: QUQFOY_clean_sbu_3, # of connection points: 4
#     Node 28, Type 0, BuildingBlock: QUQFOY_clean_sbu_3, # of connection points: 4
#     Node 29, Type 0, BuildingBlock: QUQFOY_clean_sbu_3, # of connection points: 4
#     Node 30, Type 0, BuildingBlock: QUQFOY_clean_sbu_3, # of connection points: 4
#     Node 31, Type 0, BuildingBlock: QUQFOY_clean_sbu_3, # of connection points: 4
#     Node 32, Type 0, BuildingBlock: QUQFOY_clean_sbu_3, # of connection points: 4
#     Node 33, Type 0, BuildingBlock: QUQFOY_clean_sbu_3, # of connection points: 4
#     Node 34, Type 0, BuildingBlock: QUQFOY_clean_sbu_3, # of connection points: 4
#     Node 35, Type 0, BuildingBlock: QUQFOY_clean_sbu_3, # of connection points: 4
#     Node 36, Type 0, BuildingBlock: QUQFOY_clean_sbu_3, # of connection points: 4
#     Node 37, Type 0, BuildingBlock: QUQFOY_clean_sbu_3, # of connection points: 4
#     Node 38, Type 0, BuildingBlock: QUQFOY_clean_sbu_3, # of connection points: 4
#     Node 39, Type 0, BuildingBlock: QUQFOY_clean_sbu_3, # of connection points: 4
#     Node 40, Type 0, BuildingBlock: QUQFOY_clean_sbu_3, # of connection points: 4
#     Node 41, Type 0, BuildingBlock: QUQFOY_clean_sbu_3, # of connection points: 4
#     Node 42, Type 0, BuildingBlock: QUQFOY_clean_sbu_3, # of connection points: 4
#     Node 43, Type 0, BuildingBlock: QUQFOY_clean_sbu_3, # of connection points: 4
#     Node 44, Type 0, BuildingBlock: QUQFOY_clean_sbu_3, # of connection points: 4
#     Node 45, Type 0, BuildingBlock: QUQFOY_clean_sbu_3, # of connection points: 4
#     Node 46, Type 0, BuildingBlock: QUQFOY_clean_sbu_3, # of connection points: 4
#     Node 47, Type 0, BuildingBlock: QUQFOY_clean_sbu_3, # of connection points: 4
#     Edge 48, Type (0, 0), BuildingBlock: ZUJKAS_clean_linker_0, # of connection points: 2
#     Edge 49, Type (0, 0), BuildingBlock: ZUJKAS_clean_linker_0, # of connection points: 2
#     Edge 50, Type (0, 0), BuildingBlock: ZUJKAS_clean_linker_0, # of connection points: 2
#     Edge 51, Type (0, 0), BuildingBlock: ZUJKAS_clean_linker_0, # of connection points: 2
#     Edge 52, Type (0, 0), BuildingBlock: ZUJKAS_clean_linker_0, # of connection points: 2
#     Edge 53, Type (0, 0), BuildingBlock: ZUJKAS_clean_linker_0, # of connection points: 2
#     Edge 54, Type (0, 0), BuildingBlock: ZUJKAS_clean_linker_0, # of connection points: 2
#     Edge 55, Type (0, 0), BuildingBlock: ZUJKAS_clean_linker_0, # of connection points: 2
#     Edge 56, Type (0, 0), BuildingBlock: ZUJKAS_clean_linker_0, # of connection points: 2
#     Edge 57, Type (0, 0), BuildingBlock: ZUJKAS_clean_linker_0, # of connection points: 2
#     Edge 58, Type (0, 0), BuildingBlock: ZUJKAS_clean_linker_0, # of connection points: 2
#     Edge 59, Type (0, 0), BuildingBlock: ZUJKAS_clean_linker_0, # of connection points: 2
#     Edge 60, Type (0, 0), BuildingBlock: ZUJKAS_clean_linker_0, # of connection points: 2
#     Edge 61, Type (0, 0), BuildingBlock: ZUJKAS_clean_linker_0, # of connection points: 2
#     Edge 62, Type (0, 0), BuildingBlock: ZUJKAS_clean_linker_0, # of connection points: 2
#     Edge 63, Type (0, 0), BuildingBlock: ZUJKAS_clean_linker_0, # of connection points: 2
#     Edge 64, Type (0, 0), BuildingBlock: ZUJKAS_clean_linker_0, # of connection points: 2
#     Edge 65, Type (0, 0), BuildingBlock: ZUJKAS_clean_linker_0, # of connection points: 2
#     Edge 66, Type (0, 0), BuildingBlock: ZUJKAS_clean_linker_0, # of connection points: 2
#     Edge 67, Type (0, 0), BuildingBlock: ZUJKAS_clean_linker_0, # of connection points: 2
#     Edge 68, Type (0, 0), BuildingBlock: ZUJKAS_clean_linker_0, # of connection points: 2
#     Edge 69, Type (0, 0), BuildingBlock: ZUJKAS_clean_linker_0, # of connection points: 2
#     Edge 70, Type (0, 0), BuildingBlock: ZUJKAS_clean_linker_0, # of connection points: 2
#     Edge 71, Type (0, 0), BuildingBlock: ZUJKAS_clean_linker_0, # of connection points: 2
#     Edge 72, Type (0, 0), BuildingBlock: ZUJKAS_clean_linker_0, # of connection points: 2
#     Edge 73, Type (0, 0), BuildingBlock: ZUJKAS_clean_linker_0, # of connection points: 2
#     Edge 74, Type (0, 0), BuildingBlock: ZUJKAS_clean_linker_0, # of connection points: 2
#     Edge 75, Type (0, 0), BuildingBlock: ZUJKAS_clean_linker_0, # of connection points: 2
#     Edge 76, Type (0, 0), BuildingBlock: ZUJKAS_clean_linker_0, # of connection points: 2
#     Edge 77, Type (0, 0), BuildingBlock: ZUJKAS_clean_linker_0, # of connection points: 2
#     Edge 78, Type (0, 0), BuildingBlock: ZUJKAS_clean_linker_0, # of connection points: 2
#     Edge 79, Type (0, 0), BuildingBlock: ZUJKAS_clean_linker_0, # of connection points: 2
#     Edge 80, Type (0, 0), BuildingBlock: ZUJKAS_clean_linker_0, # of connection points: 2
#     Edge 81, Type (0, 0), BuildingBlock: ZUJKAS_clean_linker_0, # of connection points: 2
#     Edge 82, Type (0, 0), BuildingBlock: ZUJKAS_clean_linker_0, # of connection points: 2
#     Edge 83, Type (0, 0), BuildingBlock: ZUJKAS_clean_linker_0, # of connection points: 2
#     Edge 84, Type (0, 0), BuildingBlock: ZUJKAS_clean_linker_0, # of connection points: 2
#     Edge 85, Type (0, 0), BuildingBlock: ZUJKAS_clean_linker_0, # of connection points: 2
#     Edge 86, Type (0, 0), BuildingBlock: ZUJKAS_clean_linker_0, # of connection points: 2
#     Edge 87, Type (0, 0), BuildingBlock: ZUJKAS_clean_linker_0, # of connection points: 2
#     Edge 88, Type (0, 0), BuildingBlock: ZUJKAS_clean_linker_0, # of connection points: 2
#     Edge 89, Type (0, 0), BuildingBlock: ZUJKAS_clean_linker_0, # of connection points: 2
#     Edge 90, Type (0, 0), BuildingBlock: ZUJKAS_clean_linker_0, # of connection points: 2
#     Edge 91, Type (0, 0), BuildingBlock: ZUJKAS_clean_linker_0, # of connection points: 2
#     Edge 92, Type (0, 0), BuildingBlock: ZUJKAS_clean_linker_0, # of connection points: 2
#     Edge 93, Type (0, 0), BuildingBlock: ZUJKAS_clean_linker_0, # of connection points: 2
#     Edge 94, Type (0, 0), BuildingBlock: ZUJKAS_clean_linker_0, # of connection points: 2
#     Edge 95, Type (0, 0), BuildingBlock: ZUJKAS_clean_linker_0, # of connection points: 2
#     Edge 96, Type (0, 0), BuildingBlock: ZUJKAS_clean_linker_0, # of connection points: 2
#     Edge 97, Type (0, 0), BuildingBlock: ZUJKAS_clean_linker_0, # of connection points: 2
#     Edge 98, Type (0, 0), BuildingBlock: ZUJKAS_clean_linker_0, # of connection points: 2
#     Edge 99, Type (0, 0), BuildingBlock: ZUJKAS_clean_linker_0, # of connection points: 2
#     Edge 100, Type (0, 0), BuildingBlock: ZUJKAS_clean_linker_0, # of connection points: 2
#     Edge 101, Type (0, 0), BuildingBlock: ZUJKAS_clean_linker_0, # of connection points: 2
#     Edge 102, Type (0, 0), BuildingBlock: ZUJKAS_clean_linker_0, # of connection points: 2
#     Edge 103, Type (0, 0), BuildingBlock: ZUJKAS_clean_linker_0, # of connection points: 2
#     Edge 104, Type (0, 0), BuildingBlock: ZUJKAS_clean_linker_0, # of connection points: 2
#     Edge 105, Type (0, 0), BuildingBlock: ZUJKAS_clean_linker_0, # of connection points: 2
#     Edge 106, Type (0, 0), BuildingBlock: ZUJKAS_clean_linker_0, # of connection points: 2
#     Edge 107, Type (0, 0), BuildingBlock: ZUJKAS_clean_linker_0, # of connection points: 2
#     Edge 108, Type (0, 0), BuildingBlock: ZUJKAS_clean_linker_0, # of connection points: 2
#     Edge 109, Type (0, 0), BuildingBlock: ZUJKAS_clean_linker_0, # of connection points: 2
#     Edge 110, Type (0, 0), BuildingBlock: ZUJKAS_clean_linker_0, # of connection points: 2
#     Edge 111, Type (0, 0), BuildingBlock: ZUJKAS_clean_linker_0, # of connection points: 2
#     Edge 112, Type (0, 0), BuildingBlock: ZUJKAS_clean_linker_0, # of connection points: 2
#     Edge 113, Type (0, 0), BuildingBlock: ZUJKAS_clean_linker_0, # of connection points: 2
#     Edge 114, Type (0, 0), BuildingBlock: ZUJKAS_clean_linker_0, # of connection points: 2
#     Edge 115, Type (0, 0), BuildingBlock: ZUJKAS_clean_linker_0, # of connection points: 2
#     Edge 116, Type (0, 0), BuildingBlock: ZUJKAS_clean_linker_0, # of connection points: 2
#     Edge 117, Type (0, 0), BuildingBlock: ZUJKAS_clean_linker_0, # of connection points: 2
#     Edge 118, Type (0, 0), BuildingBlock: ZUJKAS_clean_linker_0, # of connection points: 2
#     Edge 119, Type (0, 0), BuildingBlock: ZUJKAS_clean_linker_0, # of connection points: 2
#     Edge 120, Type (0, 0), BuildingBlock: ZUJKAS_clean_linker_0, # of connection points: 2
#     Edge 121, Type (0, 0), BuildingBlock: ZUJKAS_clean_linker_0, # of connection points: 2
#     Edge 122, Type (0, 0), BuildingBlock: ZUJKAS_clean_linker_0, # of connection points: 2
#     Edge 123, Type (0, 0), BuildingBlock: ZUJKAS_clean_linker_0, # of connection points: 2
#     Edge 124, Type (0, 0), BuildingBlock: ZUJKAS_clean_linker_0, # of connection points: 2
#     Edge 125, Type (0, 0), BuildingBlock: ZUJKAS_clean_linker_0, # of connection points: 2
#     Edge 126, Type (0, 0), BuildingBlock: ZUJKAS_clean_linker_0, # of connection points: 2
#     Edge 127, Type (0, 0), BuildingBlock: ZUJKAS_clean_linker_0, # of connection points: 2
#     Edge 128, Type (0, 0), BuildingBlock: ZUJKAS_clean_linker_0, # of connection points: 2
#     Edge 129, Type (0, 0), BuildingBlock: ZUJKAS_clean_linker_0, # of connection points: 2
#     Edge 130, Type (0, 0), BuildingBlock: ZUJKAS_clean_linker_0, # of connection points: 2
#     Edge 131, Type (0, 0), BuildingBlock: ZUJKAS_clean_linker_0, # of connection points: 2
#     Edge 132, Type (0, 0), BuildingBlock: ZUJKAS_clean_linker_0, # of connection points: 2
#     Edge 133, Type (0, 0), BuildingBlock: ZUJKAS_clean_linker_0, # of connection points: 2
#     Edge 134, Type (0, 0), BuildingBlock: ZUJKAS_clean_linker_0, # of connection points: 2
#     Edge 135, Type (0, 0), BuildingBlock: ZUJKAS_clean_linker_0, # of connection points: 2
#     Edge 136, Type (0, 0), BuildingBlock: ZUJKAS_clean_linker_0, # of connection points: 2
#     Edge 137, Type (0, 0), BuildingBlock: ZUJKAS_clean_linker_0, # of connection points: 2
#     Edge 138, Type (0, 0), BuildingBlock: ZUJKAS_clean_linker_0, # of connection points: 2
#     Edge 139, Type (0, 0), BuildingBlock: ZUJKAS_clean_linker_0, # of connection points: 2
#     Edge 140, Type (0, 0), BuildingBlock: ZUJKAS_clean_linker_0, # of connection points: 2
#     Edge 141, Type (0, 0), BuildingBlock: ZUJKAS_clean_linker_0, # of connection points: 2
#     Edge 142, Type (0, 0), BuildingBlock: ZUJKAS_clean_linker_0, # of connection points: 2
#     Edge 143, Type (0, 0), BuildingBlock: ZUJKAS_clean_linker_0, # of connection points: 2
# Relax obj value: 0.026
# Max RMSD: 0.091
# Mean RMSD: 0.091
data_MOF--net-ull--node1-QUQFOY_clean_sbu_3--edge1-ZUJKAS_clean_linker_0
_symmetry_space_group_name_H-M    P1
_symmetry_Int_Tables_number       1
_symmetry_cell_setting            triclinic
loop_
_symmetry_equiv_pos_as_xyz
'x, y, z'
_cell_length_a     81.497938
_cell_length_b     81.587494
_cell_length_c     81.633184
_cell_angle_alpha  89.96893
_cell_angle_beta   90.021823
_cell_angle_gamma 90.013716
loop_
_atom_site_label
_atom_site_type_symbol
_atom_site_fract_x
_atom_site_fract_y
_atom_site_fract_z
_atom_type_partial_charge
C0 C 0.05096 0.31307 0.13276 0.0
O1 O 0.04614 0.29867 0.13619 0.0
Cd2 Cd 0.02513 0.2924 0.15568 0.0
O3 O 0.04524 0.32538 0.14046 0.0
Cd4 Cd 0.02584 0.3307 0.1632 0.0
C5 C -0.00544 0.31733 0.14024 0.0
O6 O 0.03099 0.30658 0.18046 0.0
O7 O 0.00896 0.32037 0.18528 0.0
O8 O 0.04589 0.35036 0.17309 0.0
C9 C 0.0184 0.30875 0.18934 0.0
O10 O -0.00014 0.30303 0.14364 0.0
C11 C 0.03546 0.36118 0.17709 0.0
O12 O 0.00242 0.33007 0.1447 0.0
O13 O 0.0205 0.35818 0.17397 0.0
C14 C 0.66649 0.04947 0.13411 0.0
O15 O 0.6809 0.04457 0.13744 0.0
Cd16 Cd 0.68687 0.02269 0.15606 0.0
O17 O 0.65415 0.04346 0.14157 0.0
Cd18 Cd 0.64879 0.02356 0.16387 0.0
C19 C 0.66158 -0.00726 0.14001 0.0
O20 O 0.673 0.02756 0.18125 0.0
O21 O 0.65879 0.00558 0.18525 0.0
O22 O 0.63079 0.04359 0.17622 0.0
C23 C 0.67053 0.01473 0.1897 0.0
O24 O 0.67595 -0.00196 0.14314 0.0
C25 C 0.61884 0.03388 0.17851 0.0
O26 O 0.64893 0.00036 0.14509 0.0
O27 O 0.62048 0.01931 0.17324 0.0
C28 C 0.93408 0.66604 0.13076 0.0
O29 O 0.93928 0.68034 0.13406 0.0
Cd30 Cd 0.95762 0.68737 0.15587 0.0
O31 O 0.93802 0.65386 0.13971 0.0
Cd32 Cd 0.95434 0.64875 0.16483 0.0
C33 C 0.98921 0.66104 0.14611 0.0
O34 O 0.94797 0.67389 0.17971 0.0
O35 O 0.96741 0.659 0.1896 0.0
O36 O 0.933 0.63061 0.17485 0.0
C37 C 0.95856 0.67169 0.19086 0.0
O38 O 0.98382 0.67559 0.14787 0.0
C39 C 0.94257 0.61882 0.17833 0.0
O40 O 0.98053 0.6487 0.15019 0.0
O41 O 0.95761 0.62062 0.17469 0.0
C42 C 0.31493 0.92783 0.13517 0.0
O43 O 0.30052 0.93225 0.13909 0.0
Cd44 Cd 0.29439 0.95355 0.15827 0.0
O45 O 0.32736 0.93404 0.14232 0.0
Cd46 Cd 0.33311 0.95378 0.16469 0.0
C47 C 0.31817 0.98435 0.14146 0.0
O48 O 0.30961 0.94873 0.18268 0.0
O49 O 0.32341 0.9709 0.18691 0.0
O50 O 0.35253 0.9343 0.1759 0.0
C51 C 0.31194 0.96142 0.19136 0.0
O52 O 0.30409 0.97856 0.14504 0.0
C53 C 0.3641 0.94452 0.17786 0.0
O54 O 0.33124 0.97716 0.14614 0.0
O55 O 0.36156 0.95908 0.17295 0.0
C56 C 0.04897 0.66352 0.84541 0.0
O57 O 0.04452 0.67809 0.84223 0.0
Cd58 Cd 0.0239 0.68523 0.82263 0.0
O59 O 0.04301 0.6515 0.83742 0.0
Cd60 Cd 0.02368 0.64722 0.81435 0.0
C61 C -0.00781 0.66106 0.83683 0.0
O62 O 0.03 0.67147 0.79762 0.0
O63 O 0.00784 0.65823 0.79184 0.0
O64 O 0.04328 0.62737 0.80405 0.0
C65 C 0.01773 0.66963 0.78822 0.0
O66 O -0.00189 0.67525 0.83407 0.0
C67 C 0.03264 0.61676 0.79997 0.0
O68 O -0.00033 0.64821 0.83206 0.0
O69 O 0.01777 0.61993 0.80336 0.0
C70 C 0.31227 0.04948 0.84523 0.0
O71 O 0.29801 0.04425 0.84172 0.0
Cd72 Cd 0.29179 0.02355 0.82187 0.0
O73 O 0.32481 0.0443 0.83747 0.0
Cd74 Cd 0.33086 0.02546 0.81444 0.0
C75 C 0.31732 -0.0071 0.83611 0.0
O76 O 0.30645 0.03046 0.79774 0.0
O77 O 0.3217 0.01002 0.79077 0.0
O78 O 0.34983 0.04567 0.80365 0.0
C79 C 0.30923 0.0188 0.78787 0.0
O80 O 0.30291 -0.00175 0.83324 0.0
C81 C 0.36155 0.03567 0.80134 0.0
O82 O 0.32995 0.00095 0.83162 0.0
O83 O 0.35928 0.02097 0.80595 0.0
C84 C 0.92991 0.31345 0.84561 0.0
O85 O 0.9349 0.29895 0.84291 0.0
Cd86 Cd 0.9562 0.2919 0.824 0.0
O87 O 0.9356 0.32548 0.83744 0.0
Cd88 Cd 0.95486 0.33061 0.81461 0.0
C89 C 0.98659 0.3181 0.83795 0.0
O90 O 0.9501 0.30552 0.79904 0.0
O91 O 0.9707 0.32037 0.79161 0.0
O92 O 0.93391 0.34819 0.80315 0.0
C93 C 0.96197 0.30775 0.78926 0.0
O94 O 0.98097 0.30369 0.83572 0.0
C95 C 0.94336 0.36014 0.79996 0.0
O96 O 0.97904 0.33062 0.83241 0.0
O97 O 0.95828 0.35871 0.8043 0.0
C98 C 0.66586 0.93218 0.84636 0.0
O99 O 0.68026 0.93755 0.84376 0.0
Cd100 Cd 0.68746 0.95777 0.82366 0.0
O101 O 0.65384 0.93696 0.83758 0.0
Cd102 Cd 0.64891 0.95512 0.81381 0.0
C103 C 0.66068 0.98836 0.83535 0.0
O104 O 0.67438 0.94996 0.79894 0.0
O105 O 0.65931 0.96986 0.79018 0.0
O106 O 0.63107 0.9342 0.80267 0.0
C107 C 0.67212 0.96124 0.78849 0.0
O108 O 0.67531 0.98323 0.83337 0.0
C109 C 0.61924 0.94381 0.79944 0.0
O110 O 0.64843 0.97994 0.8305 0.0
O111 O 0.6209 0.95871 0.80365 0.0
C112 C 0.13395 0.04746 0.31009 0.0
O113 O 0.13748 0.04206 0.29594 0.0
Cd114 Cd 0.15801 0.02169 0.29062 0.0
O115 O 0.14206 0.04277 0.32258 0.0
Cd116 Cd 0.16567 0.02471 0.32862 0.0
C117 C 0.14424 -0.00835 0.31694 0.0
O118 O 0.1828 0.02896 0.30427 0.0
O119 O 0.1883 0.00796 0.31938 0.0
O120 O 0.17703 0.0457 0.34624 0.0
C121 C 0.19213 0.01687 0.30726 0.0
O122 O 0.1472 -0.00356 0.30238 0.0
C123 C 0.17945 0.03634 0.35843 0.0
O124 O 0.14846 0.0003 0.32923 0.0
O125 O 0.17468 0.02158 0.35705 0.0
C126 C 0.92754 0.13403 0.31173 0.0
O127 O 0.93197 0.13687 0.2971 0.0
Cd128 Cd 0.95429 0.15466 0.29015 0.0
O129 O 0.93418 0.14167 0.32361 0.0
Cd130 Cd 0.95464 0.16368 0.32802 0.0
C131 C 0.98432 0.13829 0.31523 0.0
O132 O 0.95042 0.1804 0.30341 0.0
O133 O 0.97261 0.18468 0.31724 0.0
O134 O 0.93491 0.17656 0.34594 0.0
C135 C 0.96336 0.18881 0.30547 0.0
O136 O 0.97862 0.14102 0.30095 0.0
C137 C 0.94475 0.179 0.35774 0.0
O138 O 0.97738 0.14427 0.32788 0.0
O139 O 0.95931 0.17366 0.35604 0.0
C140 C 0.84523 0.9309 0.3149 0.0
O141 O 0.84197 0.93583 0.30051 0.0
Cd142 Cd 0.82158 0.95592 0.29388 0.0
O143 O 0.83694 0.93605 0.32709 0.0
Cd144 Cd 0.81328 0.95443 0.332 0.0
C145 C 0.83473 0.98716 0.31913 0.0
O146 O 0.79672 0.94895 0.3075 0.0
O147 O 0.7905 0.97038 0.32167 0.0
O148 O 0.80206 0.93407 0.3505 0.0
C149 C 0.78713 0.96099 0.30978 0.0
O150 O 0.83209 0.98169 0.30475 0.0
C151 C 0.79909 0.944 0.3621 0.0
O152 O 0.83031 0.97905 0.33172 0.0
O153 O 0.80349 0.95879 0.36002 0.0
C154 C 0.04999 0.84585 0.31277 0.0
O155 O 0.04499 0.84343 0.29823 0.0
Cd156 Cd 0.02318 0.82513 0.29102 0.0
O157 O 0.04421 0.83752 0.32465 0.0
Cd158 Cd 0.02484 0.81464 0.32943 0.0
C159 C -0.00637 0.83921 0.31813 0.0
O160 O 0.02882 0.79965 0.30387 0.0
O161 O 0.00824 0.7924 0.31885 0.0
O162 O 0.04573 0.80221 0.3464 0.0
C163 C 0.01673 0.79012 0.30607 0.0
O164 O -0.00103 0.83733 0.30358 0.0
C165 C 0.03639 0.79918 0.35847 0.0
O166 O 0.00116 0.83296 0.33032 0.0
O167 O 0.0216 0.804 0.35735 0.0
C168 C 0.13381 0.93248 0.66566 0.0
O169 O 0.13687 0.93782 0.67996 0.0
Cd170 Cd 0.15748 0.9577 0.68669 0.0
O171 O 0.14231 0.93718 0.65343 0.0
Cd172 Cd 0.16609 0.95524 0.6481 0.0
C173 C 0.14509 0.98853 0.66061 0.0
O174 O 0.18179 0.94933 0.67302 0.0
O175 O 0.19036 0.96929 0.65796 0.0
O176 O 0.17543 0.93465 0.62875 0.0
C177 C 0.19245 0.96035 0.67046 0.0
O178 O 0.1476 0.98344 0.67516 0.0
C179 C 0.17965 0.94485 0.61777 0.0
O180 O 0.14944 0.98005 0.64826 0.0
O181 O 0.17672 0.95988 0.62054 0.0
C182 C 0.0469 0.13198 0.66563 0.0
O183 O 0.04112 0.13427 0.6799 0.0
Cd184 Cd 0.02178 0.1551 0.68749 0.0
O185 O 0.04272 0.14122 0.65376 0.0
Cd186 Cd 0.02477 0.16519 0.6491 0.0
C187 C -0.00941 0.14488 0.66097 0.0
O188 O 0.03059 0.17972 0.67466 0.0
O189 O 0.0112 0.18942 0.6595 0.0
O190 O 0.04535 0.17611 0.63058 0.0
C191 C 0.01983 0.1907 0.67232 0.0
O192 O -0.00418 0.14649 0.67559 0.0
C193 C 0.03537 0.17935 0.61908 0.0
O194 O -0.00077 0.14951 0.64881 0.0
O195 O 0.02049 0.17526 0.62125 0.0
C196 C 0.84486 0.05178 0.66458 0.0
O197 O 0.84239 0.0471 0.67921 0.0
Cd198 Cd 0.82408 0.0256 0.68719 0.0
O199 O 0.83684 0.04547 0.65275 0.0
Cd200 Cd 0.81468 0.02513 0.6484 0.0
C201 C 0.83893 -0.00533 0.66221 0.0
O202 O 0.79904 0.0308 0.67331 0.0
O203 O 0.7918 0.00961 0.65929 0.0
O204 O 0.80406 0.04475 0.6288 0.0
C205 C 0.78935 0.01878 0.67155 0.0
O206 O 0.8365 0.00068 0.67641 0.0
C207 C 0.79993 0.03419 0.61816 0.0
O208 O 0.83323 0.00165 0.64945 0.0
O209 O 0.80342 0.01933 0.62119 0.0
C210 C 0.92964 0.84528 0.66852 0.0
O211 O 0.93482 0.84186 0.68279 0.0
Cd212 Cd 0.95672 0.82308 0.68821 0.0
O213 O 0.93529 0.83779 0.65606 0.0
Cd214 Cd 0.95495 0.81543 0.65006 0.0
C215 C 0.98597 0.83946 0.6623 0.0
O216 O 0.95158 0.79798 0.67425 0.0
O217 O 0.97323 0.79404 0.65956 0.0
O218 O 0.93466 0.80291 0.6324 0.0
C219 C 0.96438 0.78958 0.6715 0.0
O220 O 0.98101 0.83625 0.67676 0.0
C221 C 0.94411 0.80106 0.62019 0.0
O222 O 0.9781 0.83431 0.64983 0.0
O223 O 0.95862 0.80661 0.62157 0.0
C224 C 0.31059 0.13331 0.04945 0.0
O225 O 0.2963 0.13706 0.0445 0.0
Cd226 Cd 0.29034 0.15744 0.02414 0.0
O227 O 0.32312 0.14105 0.0442 0.0
Cd228 Cd 0.32946 0.1642 0.02565 0.0
C229 C 0.31525 0.14283 -0.00677 0.0
O230 O 0.30545 0.18138 0.03106 0.0
O231 O 0.32076 0.18828 0.01062 0.0
O232 O 0.34872 0.17417 0.04597 0.0
C233 C 0.30844 0.19138 0.01953 0.0
O234 O 0.30096 0.14595 -0.00126 0.0
C235 C 0.36045 0.17647 0.03599 0.0
O236 O 0.32804 0.14713 0.00111 0.0
O237 O 0.35804 0.17223 0.02121 0.0
C238 C 0.31366 0.84523 0.92889 0.0
O239 O 0.29921 0.842 0.93374 0.0
Cd240 Cd 0.29292 0.82291 0.95509 0.0
O241 O 0.32591 0.83746 0.93469 0.0
Cd242 Cd 0.33114 0.81467 0.95414 0.0
C243 C 0.31835 0.83808 0.9854 0.0
O244 O 0.30672 0.79786 0.94932 0.0
O245 O 0.32078 0.79255 0.97108 0.0
O246 O 0.34952 0.80298 0.93396 0.0
C247 C 0.30896 0.78879 0.96174 0.0
O248 O 0.30396 0.83528 0.97995 0.0
C249 C 0.36122 0.80023 0.94385 0.0
O250 O 0.33097 0.8329 0.9778 0.0
O251 O 0.35926 0.80493 0.95856 0.0
C252 C 0.13602 0.31337 0.92864 0.0
O253 O 0.13938 0.29901 0.93364 0.0
Cd254 Cd 0.15903 0.29258 0.95455 0.0
O255 O 0.14384 0.32573 0.93412 0.0
Cd256 Cd 0.1667 0.33159 0.95326 0.0
C257 C 0.14399 0.31783 0.985 0.0
O258 O 0.18344 0.30724 0.94823 0.0
O259 O 0.19041 0.32244 0.96871 0.0
O260 O 0.17722 0.35081 0.93321 0.0
C261 C 0.1933 0.30999 0.95994 0.0
O262 O 0.14683 0.30348 0.97952 0.0
C263 C 0.17942 0.36247 0.94327 0.0
O264 O 0.149 0.33049 0.97734 0.0
O265 O 0.175 0.36 0.95799 0.0
C266 C 0.6646 0.13327 0.93093 0.0
O267 O 0.67912 0.13636 0.93569 0.0
Cd268 Cd 0.68606 0.15664 0.95581 0.0
O269 O 0.65252 0.14161 0.93625 0.0
Cd270 Cd 0.6471 0.16519 0.95445 0.0
C271 C 0.66057 0.14379 0.98717 0.0
O272 O 0.67187 0.18097 0.94859 0.0
O273 O 0.6569 0.18932 0.96874 0.0
O274 O 0.6288 0.17509 0.93334 0.0
C275 C 0.66949 0.19139 0.95987 0.0
O276 O 0.67489 0.14608 0.98136 0.0
C277 C 0.61688 0.17819 0.94284 0.0
O278 O 0.64786 0.14858 0.97941 0.0
O279 O 0.61872 0.17456 0.95788 0.0
C280 C 0.84323 0.66788 0.92728 0.0
O281 O 0.84003 0.68226 0.93227 0.0
Cd282 Cd 0.82214 0.68774 0.95488 0.0
O283 O 0.83594 0.65554 0.93348 0.0
Cd284 Cd 0.81424 0.64971 0.95386 0.0
C285 C 0.83963 0.66204 0.98367 0.0
O286 O 0.79675 0.67387 0.95048 0.0
O287 O 0.79311 0.65941 0.97233 0.0
O288 O 0.80183 0.6318 0.93381 0.0
C289 C 0.78849 0.67123 0.96339 0.0
O290 O 0.83638 0.67648 0.97868 0.0
C291 C 0.79979 0.61974 0.94343 0.0
O292 O 0.83395 0.64953 0.97625 0.0
O293 O 0.80514 0.62132 0.95797 0.0
C294 C 0.66434 0.84446 0.04754 0.0
O295 O 0.67867 0.84081 0.04266 0.0
Cd296 Cd 0.68456 0.8207 0.02216 0.0
O297 O 0.65189 0.83669 0.04216 0.0
Cd298 Cd 0.64607 0.8135 0.02345 0.0
C299 C 0.65957 0.83545 -0.00864 0.0
O300 O 0.67004 0.79632 0.029 0.0
O301 O 0.65588 0.79043 0.00747 0.0
O302 O 0.62709 0.80295 0.04372 0.0
C303 C 0.6676 0.78678 0.01698 0.0
O304 O 0.6739 0.83231 -0.00325 0.0
C305 C 0.61545 0.80028 0.03374 0.0
O306 O 0.64686 0.83102 -0.00071 0.0
O307 O 0.61776 0.80453 0.01894 0.0
C308 C 0.13372 0.66596 0.05051 0.0
O309 O 0.13617 0.68041 0.0453 0.0
Cd310 Cd 0.15461 0.68678 0.02329 0.0
O311 O 0.14186 0.65398 0.0447 0.0
Cd312 Cd 0.16424 0.64924 0.02485 0.0
C313 C 0.14021 0.66043 -0.00652 0.0
O314 O 0.18054 0.67428 0.02855 0.0
O315 O 0.18558 0.65966 0.0071 0.0
O316 O 0.17714 0.63215 0.04532 0.0
C317 C 0.18931 0.67185 0.01594 0.0
O318 O 0.14258 0.67499 -0.0014 0.0
C319 C 0.17957 0.61995 0.036 0.0
O320 O 0.14573 0.64816 0.00142 0.0
O321 O 0.17431 0.62109 0.02139 0.0
C322 C 0.8473 0.31087 0.04652 0.0
O323 O 0.84433 0.29662 0.04099 0.0
Cd324 Cd 0.82333 0.28993 0.02147 0.0
O325 O 0.83854 0.32306 0.04221 0.0
Cd326 Cd 0.81453 0.32868 0.0246 0.0
C327 C 0.83499 0.3165 -0.00925 0.0
O328 O 0.79897 0.30358 0.02977 0.0
O329 O 0.79037 0.31921 0.01023 0.0
O330 O 0.80375 0.34674 0.04555 0.0
C331 C 0.78839 0.30637 0.01871 0.0
O332 O 0.83284 0.30191 -0.00411 0.0
C333 C 0.80112 0.35875 0.03601 0.0
O334 O 0.83054 0.32878 -0.00069 0.0
O335 O 0.8055 0.35706 0.02117 0.0
C336 C 0.54835 0.81071 0.63223 0.0
O337 O 0.54271 0.79648 0.63513 0.0
Cd338 Cd 0.52214 0.79004 0.65509 0.0
O339 O 0.54374 0.82297 0.64072 0.0
Cd340 Cd 0.52553 0.82856 0.66428 0.0
C341 C 0.49237 0.8173 0.64231 0.0
O342 O 0.52973 0.80329 0.67983 0.0
O343 O 0.50982 0.81892 0.68754 0.0
O344 O 0.54645 0.84615 0.67593 0.0
C345 C 0.51817 0.80605 0.68986 0.0
O346 O 0.49717 0.8026 0.64453 0.0
C347 C 0.53698 0.85824 0.67847 0.0
O348 O 0.50094 0.82938 0.64728 0.0
O349 O 0.52222 0.85682 0.67366 0.0
C350 C 0.16407 0.5485 0.63439 0.0
O351 O 0.17851 0.54422 0.63841 0.0
Cd352 Cd 0.18462 0.5234 0.65809 0.0
O353 O 0.15166 0.54236 0.64164 0.0
Cd354 Cd 0.14575 0.52303 0.66436 0.0
C355 C 0.1609 0.49229 0.64168 0.0
O356 O 0.16915 0.52934 0.68208 0.0
O357 O 0.15552 0.5074 0.68768 0.0
O358 O 0.12515 0.54286 0.67252 0.0
C359 C 0.16695 0.51718 0.69152 0.0
O360 O 0.17495 0.49818 0.64521 0.0
C361 C 0.11441 0.53233 0.67651 0.0
O362 O 0.1478 0.49945 0.64627 0.0
O363 O 0.11794 0.51735 0.67419 0.0
C364 C 0.43112 0.16248 0.63249 0.0
O365 O 0.43627 0.1769 0.63528 0.0
Cd366 Cd 0.45643 0.18401 0.6554 0.0
O367 O 0.43617 0.15044 0.64107 0.0
Cd368 Cd 0.45486 0.14578 0.66452 0.0
C369 C 0.4873 0.15824 0.64235 0.0
O370 O 0.44945 0.17066 0.68032 0.0
O371 O 0.47091 0.15673 0.68701 0.0
O372 O 0.43462 0.1274 0.67621 0.0
C373 C 0.46153 0.16875 0.68993 0.0
O374 O 0.48201 0.17271 0.6449 0.0
C375 C 0.44461 0.11586 0.67926 0.0
O376 O 0.47914 0.14576 0.64704 0.0
O377 O 0.45939 0.11792 0.67474 0.0
C378 C 0.81186 0.42857 0.63154 0.0
O379 O 0.7974 0.43385 0.6339 0.0
Cd380 Cd 0.79099 0.45612 0.6519 0.0
O381 O 0.82385 0.43438 0.63969 0.0
Cd382 Cd 0.82843 0.45435 0.66205 0.0
C383 C 0.81798 0.48537 0.63728 0.0
O384 O 0.80309 0.45134 0.67804 0.0
O385 O 0.81775 0.47293 0.6825 0.0
O386 O 0.8448 0.43386 0.67589 0.0
C387 C 0.80548 0.46424 0.6864 0.0
O388 O 0.80335 0.48037 0.63955 0.0
C389 C 0.8571 0.44304 0.67851 0.0
O390 O 0.83015 0.4775 0.64316 0.0
O391 O 0.8564 0.45754 0.67284 0.0
C392 C 0.55059 0.1677 0.3427 0.0
O393 O 0.54516 0.18187 0.33922 0.0
Cd394 Cd 0.5244 0.18783 0.31936 0.0
O395 O 0.54554 0.1551 0.33496 0.0
Cd396 Cd 0.52664 0.14865 0.31207 0.0
C397 C 0.49411 0.16204 0.33389 0.0
O398 O 0.53148 0.17296 0.29548 0.0
O399 O 0.51118 0.15775 0.28815 0.0
O400 O 0.54706 0.12993 0.30137 0.0
C401 C 0.51986 0.17035 0.28552 0.0
O402 O 0.49928 0.17647 0.33084 0.0
C403 C 0.53725 0.11804 0.29921 0.0
O404 O 0.50227 0.14948 0.32946 0.0
O405 O 0.52251 0.12009 0.30384 0.0
C406 C 0.81103 0.54677 0.34663 0.0
O407 O 0.79666 0.54151 0.34368 0.0
Cd408 Cd 0.78965 0.52129 0.32359 0.0
O409 O 0.82321 0.54194 0.33811 0.0
Cd410 Cd 0.8284 0.52389 0.31425 0.0
C411 C 0.81634 0.49065 0.33576 0.0
O412 O 0.80311 0.52898 0.29903 0.0
O413 O 0.81828 0.50903 0.2906 0.0
O414 O 0.8462 0.54483 0.303 0.0
C415 C 0.80551 0.51765 0.28867 0.0
O416 O 0.80177 0.49597 0.3338 0.0
C417 C 0.8581 0.53527 0.29991 0.0
O418 O 0.82866 0.49888 0.33076 0.0
O419 O 0.85652 0.52041 0.30431 0.0
C420 C 0.42835 0.81408 0.3399 0.0
O421 O 0.43297 0.7997 0.33618 0.0
Cd422 Cd 0.45508 0.79364 0.31793 0.0
O423 O 0.43484 0.82653 0.33304 0.0
Cd424 Cd 0.45542 0.83235 0.31141 0.0
C425 C 0.48528 0.8176 0.33566 0.0
O426 O 0.45094 0.80883 0.2934 0.0
O427 O 0.47322 0.82261 0.2897 0.0
O428 O 0.43607 0.85163 0.29979 0.0
C429 C 0.46388 0.81111 0.28507 0.0
O430 O 0.47961 0.80352 0.33196 0.0
C431 C 0.4463 0.8632 0.29787 0.0
O432 O 0.47822 0.83064 0.33071 0.0
O433 O 0.46082 0.86073 0.30299 0.0
C434 C 0.16637 0.42896 0.34654 0.0
O435 O 0.18078 0.43367 0.34295 0.0
Cd436 Cd 0.18709 0.45447 0.32329 0.0
O437 O 0.15399 0.43469 0.33891 0.0
Cd438 Cd 0.14854 0.45381 0.31592 0.0
C439 C 0.16233 0.48553 0.33809 0.0
O440 O 0.17264 0.44826 0.29877 0.0
O441 O 0.15861 0.46994 0.29316 0.0
O442 O 0.12903 0.4336 0.30616 0.0
C443 C 0.17036 0.46051 0.28946 0.0
O444 O 0.17658 0.47987 0.33502 0.0
C445 C 0.11803 0.44388 0.30223 0.0
O446 O 0.14948 0.47785 0.33359 0.0
O447 O 0.12084 0.45884 0.30546 0.0
C448 C 0.63265 0.54937 0.81402 0.0
O449 O 0.63509 0.5441 0.7996 0.0
Cd450 Cd 0.65458 0.52325 0.79268 0.0
O451 O 0.64125 0.5441 0.82594 0.0
Cd452 Cd 0.66454 0.52509 0.83025 0.0
C453 C 0.64231 0.49242 0.81887 0.0
O454 O 0.68012 0.53021 0.80507 0.0
O455 O 0.68689 0.50891 0.8192 0.0
O456 O 0.67689 0.54539 0.84803 0.0
C457 C 0.68978 0.51819 0.8071 0.0
O458 O 0.64429 0.4977 0.80431 0.0
C459 C 0.67968 0.53565 0.85983 0.0
O460 O 0.64737 0.50067 0.83111 0.0
O461 O 0.67481 0.52096 0.85817 0.0
C462 C 0.43243 0.63154 0.81332 0.0
O463 O 0.43792 0.63456 0.79907 0.0
Cd464 Cd 0.45656 0.6561 0.79185 0.0
O465 O 0.4364 0.64051 0.82546 0.0
Cd466 Cd 0.45356 0.66499 0.83065 0.0
C467 C 0.48796 0.64546 0.81801 0.0
O468 O 0.44737 0.68008 0.80553 0.0
O469 O 0.46681 0.68965 0.82063 0.0
O470 O 0.43287 0.67526 0.84946 0.0
C471 C 0.45803 0.69112 0.80792 0.0
O472 O 0.48264 0.64747 0.80346 0.0
C473 C 0.44285 0.67841 0.86099 0.0
O474 O 0.47935 0.64967 0.83035 0.0
O475 O 0.45776 0.6745 0.85871 0.0
C476 C 0.34291 0.42836 0.8136 0.0
O477 O 0.33992 0.43274 0.79897 0.0
Cd478 Cd 0.32162 0.45483 0.79231 0.0
O479 O 0.33518 0.43482 0.8255 0.0
Cd480 Cd 0.31292 0.45483 0.8299 0.0
C481 C 0.33781 0.48487 0.81725 0.0
O482 O 0.29577 0.4508 0.80547 0.0
O483 O 0.29221 0.47312 0.81923 0.0
O484 O 0.30021 0.43541 0.84837 0.0
C485 C 0.28763 0.46389 0.80763 0.0
O486 O 0.33473 0.47961 0.80287 0.0
C487 C 0.298 0.44553 0.85997 0.0
O488 O 0.33241 0.47737 0.82983 0.0
O489 O 0.30332 0.46001 0.85784 0.0
C490 C 0.55024 0.34641 0.81262 0.0
O491 O 0.54508 0.34481 0.79804 0.0
Cd492 Cd 0.52219 0.32796 0.79088 0.0
O493 O 0.54401 0.33793 0.82415 0.0
Cd494 Cd 0.52338 0.31582 0.82726 0.0
C495 C 0.49325 0.34214 0.81826 0.0
O496 O 0.52643 0.30093 0.80131 0.0
O497 O 0.50445 0.29634 0.81537 0.0
O498 O 0.54325 0.3007 0.84328 0.0
C499 C 0.51338 0.29265 0.80322 0.0
O500 O 0.49834 0.34082 0.80356 0.0
C501 C 0.5338 0.29784 0.8553 0.0
O502 O 0.50067 0.33497 0.82997 0.0
O503 O 0.51946 0.30389 0.85461 0.0
C504 C 0.63274 0.42769 0.16402 0.0
O505 O 0.63516 0.43272 0.17854 0.0
Cd506 Cd 0.65412 0.45381 0.18627 0.0
O507 O 0.64116 0.43334 0.15214 0.0
Cd508 Cd 0.66409 0.45276 0.14772 0.0
C509 C 0.64115 0.48476 0.16035 0.0
O510 O 0.67927 0.44763 0.17303 0.0
O511 O 0.6871 0.46823 0.15841 0.0
O512 O 0.67611 0.43256 0.12969 0.0
C513 C 0.68921 0.4594 0.17099 0.0
O514 O 0.64314 0.47907 0.17475 0.0
C515 C 0.67914 0.44242 0.11805 0.0
O516 O 0.64656 0.47708 0.14787 0.0
O517 O 0.6744 0.45715 0.11985 0.0
C518 C 0.55015 0.6334 0.1646 0.0
O519 O 0.54516 0.63651 0.179 0.0
Cd520 Cd 0.52422 0.65611 0.18536 0.0
O521 O 0.54463 0.64146 0.15242 0.0
Cd522 Cd 0.52544 0.66447 0.14751 0.0
C523 C 0.49336 0.642 0.16018 0.0
O524 O 0.53043 0.68133 0.17194 0.0
O525 O 0.50873 0.68669 0.15776 0.0
O526 O 0.54533 0.67643 0.12894 0.0
C527 C 0.51809 0.69051 0.16953 0.0
O528 O 0.49876 0.64468 0.17458 0.0
C529 C 0.53528 0.67884 0.1173 0.0
O530 O 0.50132 0.64681 0.14764 0.0
O531 O 0.52067 0.67384 0.11942 0.0
C532 C 0.3453 0.55107 0.1669 0.0
O533 O 0.34272 0.54614 0.18141 0.0
Cd534 Cd 0.3247 0.52387 0.18793 0.0
O535 O 0.33735 0.54495 0.15495 0.0
Cd536 Cd 0.31505 0.52484 0.15054 0.0
C537 C 0.33984 0.49419 0.16184 0.0
O538 O 0.29862 0.52845 0.17549 0.0
O539 O 0.29436 0.50653 0.16129 0.0
O540 O 0.30175 0.54493 0.13329 0.0
C541 C 0.29023 0.51553 0.17324 0.0
O542 O 0.33737 0.49939 0.17635 0.0
C543 C 0.29919 0.53535 0.12131 0.0
O544 O 0.33406 0.50185 0.14952 0.0
O545 O 0.30462 0.52081 0.12262 0.0
C546 C 0.43025 0.34507 0.16389 0.0
O547 O 0.43558 0.34213 0.17822 0.0
Cd548 Cd 0.45567 0.32193 0.18536 0.0
O549 O 0.43502 0.33652 0.15172 0.0
Cd550 Cd 0.45325 0.31275 0.14665 0.0
C551 C 0.48646 0.33421 0.15903 0.0
O552 O 0.44794 0.29739 0.17182 0.0
O553 O 0.468 0.28904 0.15676 0.0
O554 O 0.43284 0.30149 0.12815 0.0
C555 C 0.45927 0.28703 0.16942 0.0
O556 O 0.48114 0.33213 0.17357 0.0
C557 C 0.44284 0.29852 0.1166 0.0
O558 O 0.47821 0.32933 0.1467 0.0
O559 O 0.45762 0.303 0.1187 0.0
C560 C 0.81583 0.6351 0.54827 0.0
O561 O 0.8013 0.63857 0.54386 0.0
Cd562 Cd 0.79449 0.65837 0.52328 0.0
O563 O 0.828 0.643 0.54246 0.0
Cd564 Cd 0.83299 0.66631 0.52362 0.0
C565 C 0.81917 0.64364 0.49216 0.0
O566 O 0.80872 0.6831 0.52923 0.0
O567 O 0.82269 0.68907 0.50758 0.0
O568 O 0.85155 0.6773 0.54393 0.0
C569 C 0.8109 0.69254 0.51707 0.0
O570 O 0.80495 0.64652 0.49797 0.0
C571 C 0.8632 0.68031 0.53407 0.0
O572 O 0.83204 0.64853 0.49959 0.0
O573 O 0.86115 0.67602 0.51924 0.0
C574 C 0.81328 0.34361 0.42854 0.0
O575 O 0.79886 0.34077 0.43373 0.0
Cd576 Cd 0.79193 0.32142 0.45476 0.0
O577 O 0.82546 0.33544 0.43397 0.0
Cd578 Cd 0.8308 0.31252 0.45312 0.0
C579 C 0.81792 0.33479 0.48547 0.0
O580 O 0.80577 0.29665 0.44841 0.0
O581 O 0.82105 0.28921 0.4687 0.0
O582 O 0.84891 0.301 0.43266 0.0
C583 C 0.80831 0.28678 0.46015 0.0
O584 O 0.80348 0.33247 0.47995 0.0
C585 C 0.86089 0.29855 0.44229 0.0
O586 O 0.83046 0.32981 0.47757 0.0
O587 O 0.85917 0.3033 0.45702 0.0
C588 C 0.63435 0.81039 0.42762 0.0
O589 O 0.63815 0.7961 0.43247 0.0
Cd590 Cd 0.65709 0.79092 0.45428 0.0
O591 O 0.6416 0.82292 0.43348 0.0
Cd592 Cd 0.66403 0.82912 0.45303 0.0
C593 C 0.64009 0.8162 0.48369 0.0
O594 O 0.68205 0.80536 0.44939 0.0
O595 O 0.68536 0.81966 0.47139 0.0
O596 O 0.676 0.84739 0.4329 0.0
C597 C 0.69026 0.80805 0.46234 0.0
O598 O 0.64355 0.80185 0.47857 0.0
C599 C 0.67791 0.85939 0.4426 0.0
O600 O 0.6451 0.82887 0.47606 0.0
O601 O 0.67267 0.8576 0.45715 0.0
C602 C 0.16965 0.63348 0.43001 0.0
O603 O 0.18405 0.63615 0.43536 0.0
Cd604 Cd 0.19068 0.65506 0.45679 0.0
O605 O 0.1575 0.64172 0.43537 0.0
Cd606 Cd 0.15203 0.66457 0.45458 0.0
C607 C 0.16372 0.64081 0.48629 0.0
O608 O 0.17729 0.6801 0.45055 0.0
O609 O 0.16205 0.68729 0.47093 0.0
O610 O 0.13462 0.67646 0.43371 0.0
C611 C 0.17484 0.68974 0.46248 0.0
O612 O 0.17832 0.6431 0.48117 0.0
C613 C 0.12252 0.67923 0.44311 0.0
O614 O 0.15144 0.64645 0.47842 0.0
O615 O 0.12384 0.67448 0.45788 0.0
C616 C 0.3484 0.16647 0.4298 0.0
O617 O 0.34578 0.18068 0.4356 0.0
Cd618 Cd 0.32575 0.18721 0.45616 0.0
O619 O 0.33973 0.1543 0.43435 0.0
Cd620 Cd 0.31628 0.14884 0.45272 0.0
C621 C 0.33801 0.15997 0.48604 0.0
O622 O 0.30088 0.1742 0.44837 0.0
O623 O 0.2929 0.15861 0.46818 0.0
O624 O 0.30463 0.13126 0.43183 0.0
C625 C 0.29069 0.17148 0.45979 0.0
O626 O 0.33573 0.1747 0.48137 0.0
C627 C 0.30181 0.11927 0.44135 0.0
O628 O 0.33335 0.14792 0.47727 0.0
O629 O 0.30651 0.12071 0.45611 0.0
C630 C 0.1685 0.34386 0.54901 0.0
O631 O 0.18281 0.34037 0.54393 0.0
Cd632 Cd 0.18911 0.32001 0.52381 0.0
O633 O 0.15606 0.33582 0.54403 0.0
Cd634 Cd 0.14998 0.3123 0.52582 0.0
C635 C 0.16339 0.33382 0.49311 0.0
O636 O 0.17443 0.29607 0.53132 0.0
O637 O 0.15943 0.28807 0.51113 0.0
O638 O 0.13105 0.30219 0.54638 0.0
C639 C 0.17199 0.28578 0.51997 0.0
O640 O 0.17781 0.33112 0.49852 0.0
C641 C 0.11932 0.29954 0.53648 0.0
O642 O 0.15079 0.32918 0.50111 0.0
O643 O 0.12159 0.30359 0.52162 0.0
C644 C 0.63307 0.16476 0.54722 0.0
O645 O 0.63642 0.17939 0.54306 0.0
Cd646 Cd 0.65692 0.18693 0.52334 0.0
O647 O 0.64126 0.15277 0.54146 0.0
Cd648 Cd 0.66483 0.1477 0.52311 0.0
C649 C 0.64361 0.1629 0.49105 0.0
O650 O 0.68091 0.17198 0.53042 0.0
O651 O 0.68956 0.1576 0.51002 0.0
O652 O 0.67241 0.12702 0.54309 0.0
C653 C 0.6916 0.16981 0.51935 0.0
O654 O 0.64617 0.17698 0.49732 0.0
C655 C 0.67703 0.11648 0.53262 0.0
O656 O 0.64821 0.14988 0.49837 0.0
O657 O 0.67531 0.12017 0.5176 0.0
C658 C 0.34822 0.81617 0.54544 0.0
O659 O 0.3453 0.8016 0.54079 0.0
Cd660 Cd 0.32499 0.79392 0.52106 0.0
O661 O 0.33976 0.82812 0.53998 0.0
Cd662 Cd 0.31616 0.83271 0.5214 0.0
C663 C 0.33731 0.8185 0.48887 0.0
O664 O 0.30081 0.80809 0.52888 0.0
O665 O 0.29145 0.822 0.50852 0.0
O666 O 0.30812 0.85319 0.54139 0.0
C667 C 0.28988 0.80981 0.51798 0.0
O668 O 0.33511 0.8043 0.49499 0.0
C669 C 0.30296 0.8635 0.53094 0.0
O670 O 0.33259 0.83132 0.49644 0.0
O671 O 0.30465 0.85983 0.51592 0.0
H672 H 0.10276 0.41421 0.30202 0.0
H673 H 0.08415 0.4039 0.28086 0.0
H674 H 0.08419 0.45141 0.25761 0.0
H675 H 0.10202 0.46201 0.27928 0.0
H676 H 0.05528 0.43636 0.25292 0.0
H677 H 0.10607 0.39382 0.23808 0.0
H678 H 0.09851 0.39074 0.25846 0.0
H679 H 0.10816 0.40987 0.25306 0.0
C680 C 0.09838 0.42256 0.29266 0.0
C681 C 0.10396 0.43882 0.29211 0.0
C682 C 0.08787 0.41664 0.28052 0.0
C683 C 0.08332 0.42673 0.26733 0.0
C684 C 0.0877 0.44337 0.26758 0.0
H685 H 0.06408 0.37818 0.17525 0.0
H686 H 0.07456 0.39784 0.19529 0.0
C687 C 0.09787 0.44941 0.27998 0.0
C688 C 0.07565 0.41955 0.25252 0.0
H689 H 0.08098 0.38942 0.22416 0.0
C690 C 0.0609 0.42615 0.24654 0.0
C691 C 0.0833 0.4066 0.24388 0.0
C692 C 0.09997 0.39997 0.24858 0.0
C693 C 0.05335 0.4198 0.2324 0.0
C694 C 0.0605 0.40616 0.2244 0.0
C695 C 0.07541 0.39984 0.23025 0.0
C696 C 0.05266 0.39761 0.21036 0.0
C697 C 0.03801 0.428 0.22609 0.0
C698 C 0.03657 0.39155 0.21166 0.0
C699 C 0.03039 0.38076 0.19988 0.0
C700 C 0.04041 0.37543 0.18695 0.0
C701 C 0.05615 0.38212 0.18515 0.0
C702 C 0.06214 0.3933 0.19663 0.0
H703 H 0.03777 0.4412 0.22944 0.0
H704 H 0.03695 0.42694 0.21258 0.0
H705 H 0.02713 0.42213 0.23179 0.0
H706 H 0.02914 0.39426 0.2223 0.0
H707 H 0.01828 0.37558 0.20164 0.0
H708 H 0.61072 0.06481 0.18776 0.0
H709 H 0.59049 0.07279 0.20826 0.0
H710 H 0.57469 0.02253 0.21265 0.0
H711 H 0.59507 0.01436 0.19207 0.0
H712 H 0.55536 0.06802 0.21137 0.0
H713 H 0.5923 0.03567 0.25897 0.0
H714 H 0.6005 0.04011 0.23893 0.0
H715 H 0.5855 0.02421 0.2414 0.0
C716 C 0.60274 0.05548 0.19284 0.0
C717 C 0.6046 0.03894 0.18846 0.0
C718 C 0.59117 0.06006 0.20452 0.0
C719 C 0.5813 0.04821 0.2121 0.0
C720 C 0.58235 0.03181 0.20704 0.0
H721 H 0.51783 0.09343 0.28715 0.0
H722 H 0.52589 0.0723 0.26736 0.0
C723 C 0.59392 0.0272 0.19524 0.0
C724 C 0.57117 0.0531 0.22628 0.0
H725 H 0.57193 0.05369 0.26809 0.0
C726 C 0.55863 0.06459 0.22379 0.0
C727 C 0.57563 0.04863 0.24243 0.0
C728 C 0.58926 0.03654 0.24574 0.0
C729 C 0.55111 0.07253 0.23704 0.0
C730 C 0.55621 0.06871 0.25317 0.0
C731 C 0.56802 0.05647 0.25569 0.0
C732 C 0.55152 0.0792 0.26716 0.0
C733 C 0.53868 0.08583 0.23366 0.0
C734 C 0.56342 0.08945 0.27416 0.0
C735 C 0.55889 0.10145 0.28543 0.0
C736 C 0.54238 0.10337 0.28995 0.0
C737 C 0.53065 0.09228 0.28385 0.0
C738 C 0.5352 0.08027 0.27249 0.0
H739 H 0.53748 0.08853 0.22037 0.0
H740 H 0.5265 0.08195 0.23833 0.0
H741 H 0.54217 0.09729 0.24011 0.0
H742 H 0.5761 0.08877 0.27022 0.0
H743 H 0.56823 0.10973 0.28999 0.0
H744 H 0.91104 0.61148 0.1866 0.0
H745 H 0.90193 0.59147 0.20688 0.0
H746 H 0.95164 0.57427 0.21254 0.0
H747 H 0.96095 0.59442 0.19228 0.0
H748 H 0.90529 0.55649 0.21038 0.0
H749 H 0.93836 0.59213 0.25841 0.0
H750 H 0.93468 0.6003 0.2382 0.0
H751 H 0.95009 0.5849 0.24121 0.0
C752 C 0.92001 0.60323 0.1919 0.0
C753 C 0.93674 0.60466 0.18801 0.0
C754 C 0.91478 0.59179 0.20347 0.0
C755 C 0.92617 0.58162 0.21137 0.0
C756 C 0.94272 0.5822 0.20671 0.0
H757 H 0.88217 0.51655 0.28588 0.0
H758 H 0.90225 0.52549 0.26535 0.0
C759 C 0.94798 0.59365 0.19508 0.0
C760 C 0.92071 0.57164 0.22547 0.0
H761 H 0.92061 0.5714 0.2673 0.0
C762 C 0.90888 0.55944 0.22283 0.0
C763 C 0.92537 0.57571 0.24167 0.0
C764 C 0.93775 0.58903 0.24518 0.0
C765 C 0.90097 0.55173 0.23601 0.0
C766 C 0.90516 0.55629 0.2522 0.0
C767 C 0.91757 0.56789 0.25485 0.0
C768 C 0.89511 0.551 0.26631 0.0
C769 C 0.88744 0.53959 0.23253 0.0
C770 C 0.88505 0.56253 0.27414 0.0
C771 C 0.87364 0.55751 0.28583 0.0
C772 C 0.87215 0.54085 0.28996 0.0
C773 C 0.88302 0.52946 0.28291 0.0
C774 C 0.89442 0.53451 0.27113 0.0
H775 H 0.88437 0.53893 0.21928 0.0
H776 H 0.89133 0.52721 0.23663 0.0
H777 H 0.87618 0.54291 0.23943 0.0
H778 H 0.88546 0.57533 0.2706 0.0
H779 H 0.86551 0.56658 0.2911 0.0
H780 H 0.46692 0.88557 0.28371 0.0
H781 H 0.45941 0.90678 0.26375 0.0
H782 H 0.40827 0.89492 0.27041 0.0
H783 H 0.41563 0.87381 0.29023 0.0
H784 H 0.44303 0.89855 0.23481 0.0
H785 H 0.40782 0.94509 0.26909 0.0
H786 H 0.42181 0.93103 0.27899 0.0
H787 H 0.40123 0.9247 0.27405 0.0
C788 C 0.45406 0.88783 0.28126 0.0
C789 C 0.44185 0.878 0.28846 0.0
C790 C 0.4498 0.89991 0.26984 0.0
C791 C 0.43329 0.90252 0.26574 0.0
C792 C 0.42106 0.89334 0.27364 0.0
H793 H 0.37448 0.91383 0.18571 0.0
H794 H 0.39583 0.90646 0.20529 0.0
C795 C 0.4253 0.8812 0.28489 0.0
C796 C 0.42871 0.913 0.25167 0.0
H797 H 0.40062 0.94177 0.24033 0.0
C798 C 0.43411 0.90834 0.23602 0.0
C799 C 0.41727 0.92591 0.25326 0.0
C800 C 0.41183 0.93209 0.26979 0.0
C801 C 0.42719 0.91522 0.22187 0.0
C802 C 0.41449 0.9269 0.22348 0.0
C803 C 0.41023 0.93267 0.23911 0.0
C804 C 0.40382 0.93141 0.20952 0.0
C805 C 0.43297 0.90936 0.20533 0.0
C806 C 0.40135 0.94789 0.20525 0.0
C807 C 0.38911 0.95215 0.194 0.0
C808 C 0.379 0.93999 0.1871 0.0
C809 C 0.38207 0.92347 0.19081 0.0
C810 C 0.39436 0.91922 0.20192 0.0
H811 H 0.44594 0.9052 0.20586 0.0
H812 H 0.42537 0.89877 0.20145 0.0
H813 H 0.43184 0.91914 0.19594 0.0
H814 H 0.40844 0.95747 0.21111 0.0
H815 H 0.38697 0.965 0.19143 0.0
H816 H 0.09938 0.51574 0.70109 0.0
H817 H 0.08004 0.5271 0.72084 0.0
H818 H 0.07659 0.57138 0.69204 0.0
H819 H 0.09689 0.56044 0.67291 0.0
H820 H 0.08482 0.5789 0.72069 0.0
H821 H 0.033 0.53598 0.7274 0.0
H822 H 0.052 0.52532 0.73017 0.0
H823 H 0.04733 0.53453 0.71062 0.0
C824 C 0.09406 0.52768 0.69872 0.0
C825 C 0.09965 0.5373 0.68559 0.0
C826 C 0.08289 0.53414 0.70997 0.0
C827 C 0.07672 0.5501 0.70795 0.0
C828 C 0.08122 0.55907 0.69393 0.0
H829 H 0.01367 0.60122 0.77734 0.0
H830 H 0.02343 0.58327 0.75539 0.0
C831 C 0.09276 0.55282 0.68298 0.0
C832 C 0.06808 0.55843 0.72163 0.0
H833 H 0.03817 0.55388 0.75062 0.0
C834 C 0.07443 0.57349 0.727 0.0
C835 C 0.05448 0.5515 0.72993 0.0
C836 C 0.04622 0.53603 0.72409 0.0
C837 C 0.06786 0.58165 0.74054 0.0
C838 C 0.05505 0.57418 0.74956 0.0
C839 C 0.0483 0.55937 0.74396 0.0
C840 C 0.04834 0.58199 0.76449 0.0
C841 C 0.07461 0.59836 0.74485 0.0
C842 C 0.05886 0.58637 0.77741 0.0
C843 C 0.05342 0.5969 0.78972 0.0
C844 C 0.03723 0.60274 0.7896 0.0
C845 C 0.02622 0.59688 0.7777 0.0
C846 C 0.03178 0.58665 0.76515 0.0
H847 H 0.08052 0.6043 0.73411 0.0
H848 H 0.06481 0.60661 0.74945 0.0
H849 H 0.08407 0.59703 0.75453 0.0
H850 H 0.07156 0.58246 0.77741 0.0
H851 H 0.06208 0.60109 0.79887 0.0
H852 H 0.38463 0.01571 0.78748 0.0
H853 H 0.40561 0.02367 0.76749 0.0
H854 H 0.39213 0.07442 0.77353 0.0
H855 H 0.37121 0.06662 0.79342 0.0
H856 H 0.39674 0.03953 0.73834 0.0
H857 H 0.44245 0.07619 0.77242 0.0
H858 H 0.42872 0.06193 0.7824 0.0
H859 H 0.42181 0.08221 0.77712 0.0
C860 C 0.38647 0.02861 0.78489 0.0
C861 C 0.37623 0.04055 0.79194 0.0
C862 C 0.39843 0.03311 0.77345 0.0
C863 C 0.4005 0.04963 0.76915 0.0
C864 C 0.39094 0.06163 0.7769 0.0
H865 H 0.41352 0.10663 0.68715 0.0
H866 H 0.40534 0.08634 0.70751 0.0
C867 C 0.37891 0.05714 0.7882 0.0
C868 C 0.41089 0.05431 0.75506 0.0
H869 H 0.43963 0.08235 0.74347 0.0
C870 C 0.40643 0.04857 0.73947 0.0
C871 C 0.42365 0.06593 0.75657 0.0
C872 C 0.42956 0.0718 0.77306 0.0
C873 C 0.41346 0.0552 0.72526 0.0
C874 C 0.4251 0.06795 0.72674 0.0
C875 C 0.43057 0.07267 0.74235 0.0
C876 C 0.43007 0.07804 0.71254 0.0
C877 C 0.40786 0.04901 0.70878 0.0
C878 C 0.44668 0.07998 0.70848 0.0
C879 C 0.4514 0.09159 0.69678 0.0
C880 C 0.43957 0.1016 0.6892 0.0
C881 C 0.4229 0.09909 0.69277 0.0
C882 C 0.4182 0.08742 0.70434 0.0
H883 H 0.40345 0.03614 0.70959 0.0
H884 H 0.39751 0.05668 0.70439 0.0
H885 H 0.4179 0.04967 0.6996 0.0
H886 H 0.45601 0.07294 0.71479 0.0
H887 H 0.46435 0.09331 0.69433 0.0
H888 H 0.86297 0.41201 0.68915 0.0
H889 H 0.88301 0.40329 0.70957 0.0
H890 H 0.90211 0.45251 0.71224 0.0
H891 H 0.88195 0.46143 0.69173 0.0
H892 H 0.91862 0.4061 0.71086 0.0
H893 H 0.88595 0.44098 0.75968 0.0
H894 H 0.87649 0.43653 0.74019 0.0
H895 H 0.8922 0.45186 0.74154 0.0
C896 C 0.87158 0.42095 0.69388 0.0
C897 C 0.8708 0.43744 0.68895 0.0
C898 C 0.88304 0.41594 0.70553 0.0
C899 C 0.89386 0.42731 0.71253 0.0
C900 C 0.89371 0.44361 0.70707 0.0
H901 H 0.96174 0.38389 0.78488 0.0
H902 H 0.9521 0.40383 0.76452 0.0
C903 C 0.88226 0.44865 0.69531 0.0
C904 C 0.9044 0.42204 0.72629 0.0
H905 H 0.90655 0.42277 0.76805 0.0
C906 C 0.91631 0.40999 0.72335 0.0
C907 C 0.90116 0.4271 0.74254 0.0
C908 C 0.88822 0.43977 0.74632 0.0
C909 C 0.92451 0.40225 0.73633 0.0
C910 C 0.92077 0.40682 0.75262 0.0
C911 C 0.90945 0.41944 0.75552 0.0
C912 C 0.92656 0.39695 0.76666 0.0
C913 C 0.93629 0.38848 0.73259 0.0
C914 C 0.91528 0.38708 0.77506 0.0
C915 C 0.9207 0.37573 0.78663 0.0
C916 C 0.93752 0.37413 0.79007 0.0
C917 C 0.94871 0.38483 0.78246 0.0
C918 C 0.94325 0.39616 0.77078 0.0
H919 H 0.93635 0.38519 0.71938 0.0
H920 H 0.9489 0.39221 0.73611 0.0
H921 H 0.93306 0.3774 0.73981 0.0
H922 H 0.90233 0.38755 0.77206 0.0
H923 H 0.91178 0.36774 0.79237 0.0
H924 H 0.61154 0.91243 0.79119 0.0
H925 H 0.59157 0.90354 0.77078 0.0
H926 H 0.57526 0.95343 0.76458 0.0
H927 H 0.59536 0.96253 0.78504 0.0
H928 H 0.55638 0.90782 0.76703 0.0
H929 H 0.59369 0.93906 0.71899 0.0
H930 H 0.60159 0.9353 0.7393 0.0
H931 H 0.58661 0.95108 0.73606 0.0
C932 C 0.6035 0.92149 0.78574 0.0
C933 C 0.60515 0.9382 0.78956 0.0
C934 C 0.59208 0.91638 0.77411 0.0
C935 C 0.58216 0.92788 0.76604 0.0
C936 C 0.58298 0.94443 0.77057 0.0
H937 H 0.51824 0.8831 0.69101 0.0
H938 H 0.52685 0.90371 0.71112 0.0
C939 C 0.59439 0.94957 0.7823 0.0
C940 C 0.57224 0.92246 0.7519 0.0
H941 H 0.57306 0.92119 0.71011 0.0
C942 C 0.5597 0.91101 0.75456 0.0
C943 C 0.57679 0.92662 0.73569 0.0
C944 C 0.59045 0.93862 0.7322 0.0
C945 C 0.55215 0.9029 0.74142 0.0
C946 C 0.55725 0.90649 0.72524 0.0
C947 C 0.56915 0.9186 0.72255 0.0
C948 C 0.55226 0.89604 0.71134 0.0
C949 C 0.53962 0.88974 0.74496 0.0
C950 C 0.56386 0.88547 0.70434 0.0
C951 C 0.55902 0.87375 0.6929 0.0
C952 C 0.54249 0.87245 0.68821 0.0
C953 C 0.53106 0.88378 0.69443 0.0
C954 C 0.53592 0.8955 0.70596 0.0
H955 H 0.53842 0.8872 0.75827 0.0
H956 H 0.52747 0.89367 0.74025 0.0
H957 H 0.543 0.87818 0.73862 0.0
H958 H 0.57654 0.88576 0.70834 0.0
H959 H 0.56812 0.86526 0.68827 0.0
H960 H 0.18872 0.06758 0.36551 0.0
H961 H 0.20904 0.0762 0.3857 0.0
H962 H 0.21276 0.02657 0.40351 0.0
H963 H 0.19241 0.01775 0.3832 0.0
H964 H 0.21188 0.07269 0.42107 0.0
H965 H 0.25937 0.0386 0.38562 0.0
H966 H 0.23937 0.04301 0.37721 0.0
H967 H 0.24163 0.02748 0.39261 0.0
C968 C 0.1936 0.05853 0.37393 0.0
C969 C 0.18913 0.04195 0.37264 0.0
C970 C 0.20518 0.06349 0.38548 0.0
C971 C 0.21254 0.05196 0.39588 0.0
C972 C 0.20732 0.03559 0.39542 0.0
H973 H 0.28821 0.09506 0.4602 0.0
H974 H 0.26752 0.075 0.45157 0.0
C975 C 0.19565 0.03061 0.38388 0.0
C976 C 0.22672 0.05705 0.40593 0.0
H977 H 0.26861 0.05662 0.40594 0.0
C978 C 0.22429 0.06891 0.4181 0.0
C979 C 0.24285 0.05214 0.40183 0.0
C980 C 0.24611 0.03967 0.38856 0.0
C981 C 0.23763 0.07665 0.42571 0.0
C982 C 0.25376 0.07228 0.42105 0.0
C983 C 0.25619 0.0598 0.40952 0.0
C984 C 0.26801 0.08227 0.42609 0.0
C985 C 0.2344 0.09024 0.43783 0.0
C986 C 0.27559 0.0924 0.41446 0.0
C987 C 0.28736 0.10381 0.41931 0.0
C988 C 0.2918 0.10522 0.43588 0.0
C989 C 0.285 0.09427 0.44734 0.0
C990 C 0.27314 0.08288 0.44248 0.0
H991 H 0.22115 0.09331 0.43875 0.0
H992 H 0.23878 0.08644 0.45014 0.0
H993 H 0.24125 0.10146 0.43428 0.0
H994 H 0.27179 0.09205 0.40174 0.0
H995 H 0.29243 0.11201 0.41018 0.0
H996 H 0.86876 0.28967 0.41117 0.0
H997 H 0.88956 0.26993 0.40273 0.0
H998 H 0.90637 0.26583 0.45266 0.0
H999 H 0.88541 0.28561 0.4613 0.0
H1000 H 0.92479 0.26793 0.40673 0.0
H1001 H 0.89026 0.21902 0.43979 0.0
H1002 H 0.88133 0.23882 0.43564 0.0
H1003 H 0.89673 0.23675 0.45121 0.0
C1004 C 0.87706 0.28482 0.42033 0.0
C1005 C 0.87533 0.28903 0.43692 0.0
C1006 C 0.88897 0.27357 0.41548 0.0
C1007 C 0.89931 0.26628 0.42712 0.0
C1008 C 0.89835 0.27121 0.44355 0.0
H1009 H 0.9644 0.19249 0.38145 0.0
H1010 H 0.95624 0.21273 0.40217 0.0
C1011 C 0.88644 0.28255 0.44843 0.0
C1012 C 0.90986 0.25246 0.42199 0.0
H1013 H 0.91073 0.21064 0.42155 0.0
C1014 C 0.92207 0.2554 0.41026 0.0
C1015 C 0.90612 0.23617 0.4266 0.0
C1016 C 0.89286 0.23236 0.43893 0.0
C1017 C 0.92997 0.2424 0.40224 0.0
C1018 C 0.92556 0.2261 0.4062 0.0
C1019 C 0.91411 0.22318 0.41867 0.0
C1020 C 0.93052 0.21224 0.39565 0.0
C1021 C 0.94203 0.24618 0.38872 0.0
C1022 C 0.91864 0.20484 0.38567 0.0
C1023 C 0.92322 0.19335 0.37391 0.0
C1024 C 0.93977 0.18899 0.37196 0.0
C1025 C 0.95155 0.19565 0.38267 0.0
C1026 C 0.94694 0.20725 0.39443 0.0
H1027 H 0.94283 0.25952 0.38609 0.0
H1028 H 0.9544 0.24178 0.39232 0.0
H1029 H 0.93846 0.2397 0.3773 0.0
H1030 H 0.90589 0.20853 0.38647 0.0
H1031 H 0.91384 0.18837 0.36592 0.0
H1032 H 0.6912 0.8831 0.46224 0.0
H1033 H 0.71099 0.90425 0.45411 0.0
H1034 H 0.70619 0.88929 0.40367 0.0
H1035 H 0.68653 0.86822 0.41164 0.0
H1036 H 0.74076 0.89575 0.4388 0.0
H1037 H 0.70575 0.93958 0.40073 0.0
H1038 H 0.69599 0.92594 0.41522 0.0
H1039 H 0.7017 0.91868 0.3952 0.0
C1040 C 0.69404 0.88463 0.44937 0.0
C1041 C 0.68738 0.87397 0.43757 0.0
C1042 C 0.70536 0.89668 0.44476 0.0
C1043 C 0.70992 0.89841 0.42829 0.0
C1044 C 0.70261 0.88836 0.41641 0.0
H1045 H 0.792 0.91284 0.37167 0.0
H1046 H 0.77172 0.90439 0.39196 0.0
C1047 C 0.69144 0.87625 0.421 0.0
C1048 C 0.72379 0.90909 0.42355 0.0
H1049 H 0.73488 0.93756 0.39507 0.0
C1050 C 0.73946 0.90521 0.42955 0.0
C1051 C 0.72204 0.92154 0.41165 0.0
C1052 C 0.70542 0.92681 0.40544 0.0
C1053 C 0.75356 0.91251 0.42293 0.0
C1054 C 0.75187 0.92384 0.40996 0.0
C1055 C 0.73614 0.92874 0.40494 0.0
C1056 C 0.76606 0.92904 0.39994 0.0
C1057 C 0.77016 0.90752 0.42939 0.0
C1058 C 0.76974 0.94571 0.39786 0.0
C1059 C 0.78141 0.95059 0.38627 0.0
C1060 C 0.7893 0.93886 0.37641 0.0
C1061 C 0.78612 0.92215 0.37909 0.0
C1062 C 0.77461 0.91729 0.39075 0.0
H1063 H 0.76934 0.9032 0.44228 0.0
H1064 H 0.77498 0.89726 0.42187 0.0
H1065 H 0.77902 0.91783 0.42873 0.0
H1066 H 0.76316 0.95494 0.40475 0.0
H1067 H 0.78355 0.96356 0.38441 0.0
H1068 H 0.06781 0.79022 0.3652 0.0
H1069 H 0.077 0.77002 0.38525 0.0
H1070 H 0.02745 0.76484 0.40302 0.0
H1071 H 0.01806 0.78509 0.38285 0.0
H1072 H 0.07352 0.76768 0.42063 0.0
H1073 H 0.04117 0.71837 0.38605 0.0
H1074 H 0.04494 0.73831 0.37724 0.0
H1075 H 0.02943 0.73585 0.39262 0.0
C1076 C 0.05888 0.785 0.37354 0.0
C1077 C 0.04218 0.78911 0.37234 0.0
C1078 C 0.06416 0.77349 0.38501 0.0
C1079 C 0.05285 0.76582 0.39543 0.0
C1080 C 0.03631 0.77053 0.39493 0.0
H1081 H 0.09807 0.69294 0.46161 0.0
H1082 H 0.07757 0.71298 0.45242 0.0
C1083 C 0.031 0.78214 0.38347 0.0
C1084 C 0.05845 0.75201 0.40573 0.0
H1085 H 0.05943 0.7102 0.40666 0.0
C1086 C 0.07018 0.75511 0.41791 0.0
C1087 C 0.0541 0.73566 0.40195 0.0
C1088 C 0.04179 0.73171 0.38871 0.0
C1089 C 0.07835 0.74222 0.42584 0.0
C1090 C 0.07453 0.72587 0.42153 0.0
C1091 C 0.06218 0.72277 0.40998 0.0
C1092 C 0.08494 0.71208 0.42699 0.0
C1093 C 0.09177 0.74617 0.43795 0.0
C1094 C 0.09533 0.7045 0.41559 0.0
C1095 C 0.10699 0.69312 0.42076 0.0
C1096 C 0.1084 0.68904 0.43742 0.0
C1097 C 0.09728 0.69587 0.44869 0.0
C1098 C 0.08563 0.70736 0.4435 0.0
H1099 H 0.09443 0.75952 0.43855 0.0
H1100 H 0.08804 0.742 0.45034 0.0
H1101 H 0.10324 0.73961 0.43464 0.0
H1102 H 0.09494 0.70798 0.40278 0.0
H1103 H 0.11531 0.68801 0.41177 0.0
H1104 H 0.18055 0.91471 0.60343 0.0
H1105 H 0.20145 0.90463 0.58443 0.0
H1106 H 0.22317 0.95283 0.58254 0.0
H1107 H 0.20177 0.96317 0.6008 0.0
H1108 H 0.22693 0.93754 0.55381 0.0
H1109 H 0.24564 0.89617 0.60425 0.0
H1110 H 0.22499 0.89233 0.59775 0.0
H1111 H 0.23022 0.91176 0.60687 0.0
C1112 C 0.18953 0.92323 0.59859 0.0
C1113 C 0.18972 0.93964 0.60373 0.0
C1114 C 0.20153 0.91745 0.58786 0.0
C1115 C 0.21421 0.92785 0.58258 0.0
C1116 C 0.2136 0.94455 0.58661 0.0
H1117 H 0.30644 0.88119 0.55895 0.0
H1118 H 0.28673 0.90073 0.57027 0.0
C1119 C 0.20135 0.95044 0.59703 0.0
C1120 C 0.22887 0.92102 0.57431 0.0
H1121 H 0.25839 0.89178 0.57855 0.0
C1122 C 0.2339 0.9276 0.55923 0.0
C1123 C 0.23829 0.90844 0.58167 0.0
C1124 C 0.23463 0.9019 0.5986 0.0
C1125 C 0.24782 0.92155 0.55105 0.0
C1126 C 0.25657 0.90822 0.55792 0.0
C1127 C 0.25171 0.90196 0.57319 0.0
C1128 C 0.27031 0.89985 0.54939 0.0
C1129 C 0.25309 0.9297 0.53532 0.0
C1130 C 0.26812 0.89349 0.53355 0.0
C1131 C 0.27967 0.88276 0.52687 0.0
C1132 C 0.2933 0.87779 0.53615 0.0
C1133 C 0.296 0.88484 0.55158 0.0
C1134 C 0.28471 0.89594 0.55805 0.0
H1135 H 0.24944 0.94282 0.53513 0.0
H1136 H 0.26656 0.92891 0.53351 0.0
H1137 H 0.2469 0.9236 0.52486 0.0
H1138 H 0.25696 0.89589 0.52676 0.0
H1139 H 0.27722 0.87731 0.51502 0.0
H1140 H 0.01579 0.19449 0.59648 0.0
H1141 H 0.02431 0.21469 0.57594 0.0
H1142 H 0.07493 0.20688 0.58923 0.0
H1143 H 0.06656 0.18677 0.60972 0.0
H1144 H 0.04128 0.24328 0.5852 0.0
H1145 H 0.07635 0.20838 0.53889 0.0
H1146 H 0.06177 0.19879 0.55256 0.0
H1147 H 0.08228 0.20324 0.55944 0.0
C1148 C 0.02876 0.19676 0.59471 0.0
C1149 C 0.04052 0.18911 0.60475 0.0
C1150 C 0.03358 0.20832 0.58301 0.0
C1151 C 0.05023 0.21215 0.58099 0.0
C1152 C 0.06203 0.20387 0.59039 0.0
H1153 H 0.10997 0.29232 0.56767 0.0
H1154 H 0.08893 0.27282 0.5761 0.0
C1155 C 0.05723 0.19245 0.60216 0.0
C1156 C 0.05533 0.2262 0.57075 0.0
H1157 H 0.08336 0.23709 0.54177 0.0
C1158 C 0.05017 0.24193 0.57541 0.0
C1159 C 0.06673 0.22441 0.55786 0.0
C1160 C 0.07198 0.20777 0.55177 0.0
C1161 C 0.05717 0.25599 0.5684 0.0
C1162 C 0.06969 0.25418 0.55658 0.0
C1163 C 0.07384 0.23845 0.55096 0.0
C1164 C 0.08016 0.26808 0.55152 0.0
C1165 C 0.05158 0.27263 0.57418 0.0
C1166 C 0.08206 0.27205 0.53491 0.0
C1167 C 0.09411 0.28324 0.53004 0.0
C1168 C 0.1046 0.29039 0.54171 0.0
C1169 C 0.10208 0.28701 0.5584 0.0
C1170 C 0.08998 0.27594 0.56325 0.0
H1171 H 0.03874 0.27221 0.57874 0.0
H1172 H 0.05953 0.27667 0.58445 0.0
H1173 H 0.05242 0.28187 0.56422 0.0
H1174 H 0.07468 0.266 0.52568 0.0
H1175 H 0.09581 0.28556 0.51708 0.0
H1176 H 0.7987 0.06374 0.60277 0.0
H1177 H 0.77721 0.0733 0.58416 0.0
H1178 H 0.75529 0.02516 0.58454 0.0
H1179 H 0.77726 0.01532 0.60249 0.0
H1180 H 0.75075 0.04009 0.55517 0.0
H1181 H 0.7336 0.08199 0.60563 0.0
H1182 H 0.75413 0.08564 0.59865 0.0
H1183 H 0.74897 0.0663 0.60802 0.0
C1184 C 0.78955 0.0551 0.5985 0.0
C1185 C 0.78948 0.03887 0.60421 0.0
C1186 C 0.77723 0.06058 0.58798 0.0
C1187 C 0.76434 0.05008 0.58347 0.0
C1188 C 0.76502 0.03351 0.58802 0.0
H1189 H 0.67296 0.09894 0.56066 0.0
H1190 H 0.69191 0.07861 0.57192 0.0
C1191 C 0.77759 0.0279 0.59825 0.0
C1192 C 0.74944 0.0568 0.57555 0.0
H1193 H 0.72052 0.08656 0.58006 0.0
C1194 C 0.74402 0.05017 0.56063 0.0
C1195 C 0.74033 0.06954 0.58299 0.0
C1196 C 0.74444 0.07615 0.59979 0.0
C1197 C 0.7301 0.05645 0.5526 0.0
C1198 C 0.72173 0.07002 0.55948 0.0
C1199 C 0.7269 0.07621 0.57468 0.0
C1200 C 0.70823 0.07879 0.55096 0.0
C1201 C 0.72446 0.04833 0.53699 0.0
C1202 C 0.71058 0.08504 0.53509 0.0
C1203 C 0.69945 0.09624 0.52845 0.0
C1204 C 0.68611 0.10179 0.5378 0.0
C1205 C 0.6832 0.09486 0.55325 0.0
C1206 C 0.69405 0.08329 0.55968 0.0
H1207 H 0.7277 0.0351 0.53692 0.0
H1208 H 0.711 0.04953 0.53526 0.0
H1209 H 0.73076 0.05414 0.52643 0.0
H1210 H 0.72159 0.08219 0.52825 0.0
H1211 H 0.70206 0.10158 0.51658 0.0
H1212 H 0.87209 0.68783 0.56527 0.0
H1213 H 0.89208 0.70834 0.57387 0.0
H1214 H 0.90642 0.71587 0.52358 0.0
H1215 H 0.88627 0.69531 0.51479 0.0
H1216 H 0.92689 0.71299 0.56861 0.0
H1217 H 0.88766 0.76079 0.53938 0.0
H1218 H 0.88032 0.74022 0.54292 0.0
H1219 H 0.89481 0.74412 0.52684 0.0
C1220 C 0.87972 0.69358 0.55604 0.0
C1221 C 0.87748 0.69012 0.53934 0.0
C1222 C 0.89116 0.70528 0.56099 0.0
C1223 C 0.90051 0.71376 0.54933 0.0
C1224 C 0.89915 0.70956 0.53272 0.0
H1225 H 0.96314 0.78955 0.59502 0.0
H1226 H 0.955 0.76965 0.57399 0.0
C1227 C 0.88771 0.69776 0.52775 0.0
C1228 C 0.9103 0.72804 0.5547 0.0
H1229 H 0.90843 0.76977 0.55701 0.0
C1230 C 0.92319 0.72544 0.56578 0.0
C1231 C 0.90526 0.74422 0.55103 0.0
C1232 C 0.89121 0.74764 0.53947 0.0
C1233 C 0.93057 0.73859 0.57405 0.0
C1234 C 0.92495 0.75471 0.57099 0.0
C1235 C 0.91274 0.75738 0.55919 0.0
C1236 C 0.92966 0.76848 0.58178 0.0
C1237 C 0.94346 0.73507 0.58685 0.0
C1238 C 0.91793 0.77488 0.59259 0.0
C1239 C 0.92249 0.78619 0.60453 0.0
C1240 C 0.93888 0.79137 0.60584 0.0
C1241 C 0.95042 0.78574 0.59432 0.0
C1242 C 0.94583 0.77433 0.58237 0.0
H1243 H 0.94511 0.72172 0.58899 0.0
H1244 H 0.95539 0.74025 0.58283 0.0
H1245 H 0.94013 0.74098 0.59864 0.0
H1246 H 0.90537 0.77052 0.59228 0.0
H1247 H 0.9133 0.79037 0.61315 0.0
H1248 H 0.46269 0.28363 0.0941 0.0
H1249 H 0.45457 0.26299 0.07385 0.0
H1250 H 0.40382 0.26982 0.08716 0.0
H1251 H 0.41179 0.29036 0.10736 0.0
H1252 H 0.43823 0.23412 0.08351 0.0
H1253 H 0.4023 0.26771 0.03684 0.0
H1254 H 0.41672 0.27777 0.05035 0.0
H1255 H 0.39633 0.27298 0.05733 0.0
C1256 C 0.44976 0.28105 0.09238 0.0
C1257 C 0.43786 0.28856 0.10235 0.0
C1258 C 0.44517 0.26924 0.08085 0.0
C1259 C 0.4286 0.265 0.07893 0.0
C1260 C 0.41665 0.27314 0.08824 0.0
H1261 H 0.3702 0.18384 0.06702 0.0
H1262 H 0.39119 0.20355 0.07505 0.0
C1263 C 0.42123 0.28481 0.09985 0.0
C1264 C 0.42379 0.25073 0.06888 0.0
H1265 H 0.39587 0.23891 0.04014 0.0
C1266 C 0.42928 0.23515 0.07372 0.0
C1267 C 0.4123 0.25212 0.05599 0.0
C1268 C 0.40669 0.26857 0.0497 0.0
C1269 C 0.42254 0.22088 0.06693 0.0
C1270 C 0.40993 0.22228 0.05513 0.0
C1271 C 0.40546 0.23785 0.04931 0.0
C1272 C 0.39967 0.20813 0.05034 0.0
C1273 C 0.42848 0.20443 0.07292 0.0
C1274 C 0.39765 0.20396 0.03379 0.0
C1275 C 0.38563 0.19263 0.02915 0.0
C1276 C 0.37529 0.18556 0.041 0.0
C1277 C 0.37797 0.18909 0.05762 0.0
C1278 C 0.39005 0.20028 0.06224 0.0
H1279 H 0.44134 0.20515 0.07738 0.0
H1280 H 0.42068 0.20038 0.08331 0.0
H1281 H 0.42773 0.19503 0.0631 0.0
H1282 H 0.40488 0.20999 0.02443 0.0
H1283 H 0.3838 0.1902 0.01624 0.0
H1284 H 0.38384 0.78512 0.96348 0.0
H1285 H 0.40427 0.76473 0.95503 0.0
H1286 H 0.39086 0.77236 0.90449 0.0
H1287 H 0.37052 0.79263 0.91277 0.0
H1288 H 0.39478 0.73612 0.93833 0.0
H1289 H 0.44118 0.77043 0.90275 0.0
H1290 H 0.42763 0.78024 0.91727 0.0
H1291 H 0.42063 0.77568 0.89686 0.0
C1292 C 0.38558 0.78277 0.95054 0.0
C1293 C 0.37554 0.7904 0.93878 0.0
C1294 C 0.39721 0.77111 0.94575 0.0
C1295 C 0.39916 0.76716 0.92914 0.0
C1296 C 0.38977 0.77545 0.91735 0.0
H1297 H 0.41165 0.68611 0.87015 0.0
H1298 H 0.40336 0.70606 0.8908 0.0
C1299 C 0.37807 0.78696 0.92211 0.0
C1300 C 0.40928 0.75301 0.92408 0.0
H1301 H 0.43794 0.74171 0.89588 0.0
C1302 C 0.40452 0.73733 0.92936 0.0
C1303 C 0.42209 0.75462 0.91255 0.0
C1304 C 0.42831 0.77118 0.90715 0.0
C1305 C 0.41134 0.72318 0.92239 0.0
C1306 C 0.42308 0.72483 0.90976 0.0
C1307 C 0.42881 0.74048 0.90547 0.0
C1308 C 0.42803 0.71079 0.89944 0.0
C1309 C 0.40547 0.70662 0.92813 0.0
C1310 C 0.44464 0.70669 0.89758 0.0
C1311 C 0.44942 0.69524 0.88577 0.0
C1312 C 0.43766 0.68795 0.87546 0.0
C1313 C 0.42098 0.6915 0.87791 0.0
C1314 C 0.41622 0.70284 0.88978 0.0
H1315 H 0.40094 0.70717 0.94095 0.0
H1316 H 0.39514 0.70256 0.92025 0.0
H1317 H 0.41539 0.69733 0.92734 0.0
H1318 H 0.45394 0.71279 0.90485 0.0
H1319 H 0.46238 0.69279 0.88413 0.0
H1320 H 0.28377 0.4659 0.88247 0.0
H1321 H 0.26387 0.45822 0.90368 0.0
H1322 H 0.27008 0.40728 0.89105 0.0
H1323 H 0.28983 0.4148 0.86992 0.0
H1324 H 0.23455 0.44167 0.8956 0.0
H1325 H 0.27014 0.40667 0.94143 0.0
H1326 H 0.2796 0.42092 0.92733 0.0
H1327 H 0.27478 0.40038 0.92088 0.0
C1328 C 0.2812 0.45304 0.88452 0.0
C1329 C 0.28829 0.44094 0.87451 0.0
C1330 C 0.26983 0.4487 0.89661 0.0
C1331 C 0.26566 0.43219 0.89903 0.0
C1332 C 0.27337 0.42006 0.8896 0.0
H1333 H 0.18652 0.37259 0.91232 0.0
H1334 H 0.20564 0.39414 0.90435 0.0
C1335 C 0.28457 0.42439 0.87745 0.0
C1336 C 0.25183 0.42754 0.90976 0.0
H1337 H 0.24132 0.39948 0.93884 0.0
C1338 C 0.23602 0.43279 0.90539 0.0
C1339 C 0.25379 0.41616 0.92265 0.0
C1340 C 0.27053 0.41083 0.92847 0.0
C1341 C 0.22205 0.42579 0.91257 0.0
C1342 C 0.22402 0.41318 0.92426 0.0
C1343 C 0.23983 0.40905 0.92973 0.0
C1344 C 0.21025 0.40244 0.92912 0.0
C1345 C 0.20532 0.43139 0.90701 0.0
C1346 C 0.20634 0.40008 0.94569 0.0
C1347 C 0.19535 0.38774 0.95029 0.0
C1348 C 0.18838 0.37741 0.93838 0.0
C1349 C 0.1917 0.38035 0.92176 0.0
C1350 C 0.20254 0.39275 0.91718 0.0
H1351 H 0.20565 0.44431 0.9027 0.0
H1352 H 0.20124 0.42364 0.89661 0.0
H1353 H 0.19615 0.43031 0.91702 0.0
H1354 H 0.21229 0.40735 0.95508 0.0
H1355 H 0.19307 0.3857 0.9632 0.0
H1356 H 0.60876 0.1847 0.91118 0.0
H1357 H 0.58825 0.20416 0.90145 0.0
H1358 H 0.57186 0.21207 0.95104 0.0
H1359 H 0.59254 0.1926 0.96098 0.0
H1360 H 0.55312 0.20779 0.9053 0.0
H1361 H 0.58977 0.25723 0.93512 0.0
H1362 H 0.59781 0.23683 0.93225 0.0
H1363 H 0.58269 0.2406 0.94777 0.0
C1364 C 0.60059 0.19031 0.92002 0.0
C1365 C 0.60241 0.18731 0.93687 0.0
C1366 C 0.58884 0.20139 0.91442 0.0
C1367 C 0.57875 0.2097 0.92556 0.0
C1368 C 0.5797 0.20588 0.9423 0.0
H1369 H 0.5148 0.2845 0.87961 0.0
H1370 H 0.52316 0.26377 0.89978 0.0
C1371 C 0.59146 0.19472 0.94792 0.0
C1372 C 0.5687 0.22355 0.9196 0.0
H1373 H 0.56905 0.2653 0.91702 0.0
C1374 C 0.55627 0.22039 0.90814 0.0
C1375 C 0.57303 0.23994 0.92326 0.0
C1376 C 0.5866 0.24398 0.93519 0.0
C1377 C 0.54862 0.23321 0.89958 0.0
C1378 C 0.55352 0.24954 0.9027 0.0
C1379 C 0.5653 0.25274 0.91479 0.0
C1380 C 0.54847 0.26312 0.89184 0.0
C1381 C 0.53619 0.22919 0.88648 0.0
C1382 C 0.56007 0.2699 0.88112 0.0
C1383 C 0.55538 0.28165 0.86966 0.0
C1384 C 0.539 0.28693 0.86877 0.0
C1385 C 0.52752 0.28066 0.88002 0.0
C1386 C 0.53223 0.26878 0.89147 0.0
H1387 H 0.53487 0.21577 0.88456 0.0
H1388 H 0.52405 0.23422 0.89003 0.0
H1389 H 0.53978 0.23497 0.87469 0.0
H1390 H 0.57268 0.26567 0.88127 0.0
H1391 H 0.56452 0.28629 0.86121 0.0
H1392 H 0.68922 0.56666 0.86747 0.0
H1393 H 0.70933 0.57486 0.88802 0.0
H1394 H 0.71302 0.52485 0.90475 0.0
H1395 H 0.69286 0.51645 0.88404 0.0
H1396 H 0.71133 0.57065 0.92325 0.0
H1397 H 0.75997 0.53748 0.88846 0.0
H1398 H 0.74017 0.54188 0.87958 0.0
H1399 H 0.74211 0.52619 0.89485 0.0
C1400 C 0.69407 0.55743 0.87569 0.0
C1401 C 0.68961 0.54088 0.87403 0.0
C1402 C 0.70553 0.56214 0.88745 0.0
C1403 C 0.71278 0.55041 0.89771 0.0
C1404 C 0.70766 0.53403 0.89678 0.0
H1405 H 0.78686 0.59549 0.96275 0.0
H1406 H 0.76682 0.57461 0.95443 0.0
C1407 C 0.69611 0.52928 0.88502 0.0
C1408 C 0.72668 0.55541 0.9082 0.0
H1409 H 0.76855 0.55566 0.90891 0.0
C1410 C 0.72385 0.56708 0.92048 0.0
C1411 C 0.74295 0.55074 0.90438 0.0
C1412 C 0.74662 0.53845 0.89107 0.0
C1413 C 0.73693 0.575 0.92835 0.0
C1414 C 0.75321 0.57099 0.92387 0.0
C1415 C 0.75603 0.55857 0.91235 0.0
C1416 C 0.76713 0.58146 0.92883 0.0
C1417 C 0.73327 0.58847 0.94048 0.0
C1418 C 0.77438 0.59166 0.91706 0.0
C1419 C 0.78575 0.60352 0.92173 0.0
C1420 C 0.79013 0.60534 0.93827 0.0
C1421 C 0.78368 0.59438 0.94991 0.0
C1422 C 0.7722 0.58252 0.94521 0.0
H1423 H 0.71993 0.59113 0.94137 0.0
H1424 H 0.73774 0.58481 0.95278 0.0
H1425 H 0.73976 0.5999 0.93693 0.0
H1426 H 0.77063 0.59099 0.90434 0.0
H1427 H 0.79059 0.61172 0.91246 0.0
H1428 H 0.5151 0.69269 0.09438 0.0
H1429 H 0.5228 0.71286 0.07347 0.0
H1430 H 0.57366 0.7076 0.08711 0.0
H1431 H 0.56612 0.68754 0.10794 0.0
H1432 H 0.53842 0.74238 0.08204 0.0
H1433 H 0.57536 0.70801 0.03682 0.0
H1434 H 0.56116 0.69809 0.05065 0.0
H1435 H 0.58142 0.7036 0.0575 0.0
C1436 C 0.52796 0.69552 0.09261 0.0
C1437 C 0.54001 0.6886 0.10283 0.0
C1438 C 0.53232 0.70706 0.0807 0.0
C1439 C 0.54879 0.71159 0.07866 0.0
C1440 C 0.5609 0.70404 0.08827 0.0
H1441 H 0.60564 0.79334 0.06483 0.0
H1442 H 0.58499 0.77338 0.07315 0.0
C1443 C 0.55656 0.69265 0.10025 0.0
C1444 C 0.55333 0.7256 0.06811 0.0
H1445 H 0.58129 0.73704 0.03926 0.0
C1446 C 0.54748 0.74121 0.07237 0.0
C1447 C 0.56496 0.72402 0.05538 0.0
C1448 C 0.57096 0.70749 0.0497 0.0
C1449 C 0.55401 0.75539 0.06517 0.0
C1450 C 0.56676 0.75385 0.05356 0.0
C1451 C 0.57159 0.7382 0.04829 0.0
C1452 C 0.57685 0.76804 0.04848 0.0
C1453 C 0.5477 0.7719 0.07055 0.0
C1454 C 0.57895 0.77183 0.03185 0.0
C1455 C 0.59077 0.78329 0.02704 0.0
C1456 C 0.60083 0.79089 0.03881 0.0
C1457 C 0.59808 0.78768 0.05549 0.0
C1458 C 0.5862 0.77636 0.06027 0.0
H1459 H 0.53481 0.77107 0.0749 0.0
H1460 H 0.55531 0.77642 0.08089 0.0
H1461 H 0.54837 0.781 0.06045 0.0
H1462 H 0.57193 0.76542 0.02257 0.0
H1463 H 0.59267 0.78547 0.01409 0.0
H1464 H 0.18911 0.61316 0.06718 0.0
H1465 H 0.20886 0.59254 0.07603 0.0
H1466 H 0.2123 0.57426 0.02659 0.0
H1467 H 0.19247 0.59503 0.01753 0.0
H1468 H 0.21008 0.55706 0.07282 0.0
H1469 H 0.25958 0.59003 0.03902 0.0
H1470 H 0.23998 0.59945 0.04313 0.0
H1471 H 0.24161 0.58377 0.02783 0.0
C1472 C 0.19384 0.6046 0.05821 0.0
C1473 C 0.18939 0.60583 0.04163 0.0
C1474 C 0.20509 0.5928 0.0633 0.0
C1475 C 0.21215 0.58205 0.05191 0.0
C1476 C 0.20707 0.58259 0.0355 0.0
H1477 H 0.2853 0.51616 0.0975 0.0
H1478 H 0.26498 0.52474 0.07699 0.0
C1479 C 0.19571 0.5944 0.03038 0.0
C1480 C 0.22581 0.57142 0.05727 0.0
H1481 H 0.26765 0.56982 0.05771 0.0
C1482 C 0.22267 0.55949 0.06924 0.0
C1483 C 0.24217 0.5748 0.0526 0.0
C1484 C 0.24618 0.58774 0.04 0.0
C1485 C 0.23555 0.5515 0.07737 0.0
C1486 C 0.25193 0.55552 0.0733 0.0
C1487 C 0.25505 0.56673 0.06066 0.0
C1488 C 0.26573 0.55034 0.08382 0.0
C1489 C 0.2316 0.53972 0.09108 0.0
C1490 C 0.27324 0.56202 0.09394 0.0
C1491 C 0.28475 0.5572 0.10561 0.0
C1492 C 0.28904 0.54061 0.10729 0.0
C1493 C 0.28222 0.52904 0.09647 0.0
C1494 C 0.27058 0.53388 0.08483 0.0
H1495 H 0.21823 0.53909 0.09367 0.0
H1496 H 0.23591 0.52727 0.08775 0.0
H1497 H 0.23808 0.54344 0.10246 0.0
H1498 H 0.26964 0.57479 0.09331 0.0
H1499 H 0.28985 0.5664 0.1137 0.0
H1500 H 0.68793 0.41137 0.10977 0.0
H1501 H 0.70876 0.4032 0.08995 0.0
H1502 H 0.71461 0.45355 0.07494 0.0
H1503 H 0.69372 0.46191 0.0949 0.0
H1504 H 0.71274 0.40833 0.05505 0.0
H1505 H 0.76031 0.43919 0.09329 0.0
H1506 H 0.73996 0.43507 0.10096 0.0
H1507 H 0.74313 0.45118 0.08633 0.0
C1508 C 0.6934 0.42069 0.10205 0.0
C1509 C 0.68933 0.4373 0.10401 0.0
C1510 C 0.70528 0.416 0.09071 0.0
C1511 C 0.71336 0.42781 0.0812 0.0
C1512 C 0.70861 0.4443 0.08234 0.0
H1513 H 0.78877 0.38378 0.01733 0.0
H1514 H 0.7688 0.40452 0.02598 0.0
C1515 C 0.69663 0.44902 0.09367 0.0
C1516 C 0.72766 0.42276 0.0713 0.0
H1517 H 0.76951 0.42171 0.0725 0.0
C1518 C 0.72518 0.41154 0.05854 0.0
C1519 C 0.74382 0.42693 0.07606 0.0
C1520 C 0.74711 0.43868 0.08995 0.0
C1521 C 0.73846 0.40362 0.051 0.0
C1522 C 0.7546 0.4072 0.05632 0.0
C1523 C 0.75711 0.41912 0.06843 0.0
C1524 C 0.76862 0.39686 0.05135 0.0
C1525 C 0.73508 0.39064 0.03827 0.0
C1526 C 0.77567 0.38629 0.06293 0.0
C1527 C 0.78706 0.37451 0.05807 0.0
C1528 C 0.79163 0.37313 0.04154 0.0
C1529 C 0.78543 0.38451 0.03015 0.0
C1530 C 0.77397 0.3963 0.03503 0.0
H1531 H 0.72177 0.38796 0.03702 0.0
H1532 H 0.73973 0.39485 0.02621 0.0
H1533 H 0.74156 0.37909 0.04145 0.0
H1534 H 0.77171 0.38659 0.0756 0.0
H1535 H 0.79169 0.366 0.06716 0.0
H1536 H -0.00947 0.20813 0.30716 0.0
H1537 H -0.00043 0.22876 0.28749 0.0
H1538 H 0.95686 0.21929 0.25774 0.0
H1539 H 0.94776 0.1984 0.27734 0.0
H1540 H 0.98677 0.22018 0.24014 0.0
H1541 H 0.97951 0.27445 0.28046 0.0
H1542 H -0.00851 0.25823 0.28931 0.0
H1543 H 0.97013 0.2549 0.28493 0.0
C1544 C 0.98299 0.21048 0.29649 0.0
C1545 C 0.9684 0.20169 0.29381 0.0
C1546 C 0.98815 0.22232 0.2853 0.0
C1547 C 0.97877 0.22566 0.27131 0.0
C1548 C 0.96421 0.2169 0.26854 0.0
H1549 H -0.00989 0.30871 0.20699 0.0
H1550 H 0.9808 0.28815 0.22657 0.0
C1551 C 0.95902 0.20503 0.27975 0.0
C1552 C 0.98443 0.23805 0.25939 0.0
H1553 H -0.00592 0.27854 0.25558 0.0
C1554 C 0.98831 0.23297 0.24345 0.0
C1555 C 0.98626 0.25471 0.26378 0.0
C1556 C 0.98149 0.26097 0.2805 0.0
C1557 C -0.00577 0.24411 0.23177 0.0
C1558 C -0.00343 0.26068 0.23632 0.0
C1559 C -0.00754 0.26578 0.25221 0.0
C1560 C 0.00258 0.27312 0.22459 0.0
C1561 C -0.0024 0.23812 0.21461 0.0
C1562 C 0.01806 0.27161 0.2172 0.0
C1563 C 0.02341 0.28333 0.20589 0.0
C1564 C 0.01339 0.29679 0.20195 0.0
C1565 C -0.0019 0.29846 0.20973 0.0
C1566 C -0.00725 0.28673 0.22093 0.0
H1567 H -0.0087 0.22631 0.21206 0.0
H1568 H -0.0064 0.24728 0.20537 0.0
H1569 H 0.01099 0.23615 0.21312 0.0
H1570 H 0.02599 0.26138 0.22016 0.0
H1571 H 0.03529 0.28178 0.20015 0.0
H1572 H 0.7784 0.9447 0.28175 0.0
H1573 H 0.758 0.95326 0.2614 0.0
H1574 H 0.74679 -0.00403 0.29043 0.0
H1575 H 0.76682 0.9874 0.3109 0.0
H1576 H 0.71922 0.98042 0.27898 0.0
H1577 H 0.76419 -0.00903 0.22893 0.0
H1578 H 0.76471 0.97074 0.2376 0.0
H1579 H 0.77031 0.98806 0.24998 0.0
C1580 C 0.77152 0.95587 0.28381 0.0
C1581 C 0.77427 0.96544 0.29786 0.0
C1582 C 0.75997 0.96079 0.27214 0.0
C1583 C 0.75113 0.97539 0.2743 0.0
C1584 C 0.75357 0.98471 0.28851 0.0
H1585 H 0.69742 0.03109 0.20135 0.0
H1586 H 0.71673 0.02171 0.22239 0.0
C1587 C 0.76503 0.97979 0.30018 0.0
C1588 C 0.73928 0.98109 0.26183 0.0
H1589 H 0.73606 -0.00629 0.2221 0.0
C1590 C 0.72288 0.98332 0.26654 0.0
C1591 C 0.7442 0.98511 0.24571 0.0
C1592 C 0.76183 0.98376 0.24024 0.0
C1593 C 0.71118 -0.01063 0.25549 0.0
C1594 C 0.716 -0.00705 0.23924 0.0
C1595 C 0.73243 -0.00915 0.23457 0.0
C1596 C 0.70413 -0.00122 0.22686 0.0
C1597 C 0.69387 -0.00783 0.26142 0.0
C1598 C 0.69077 0.98894 0.2224 0.0
C1599 C 0.67971 -0.00571 0.21051 0.0
C1600 C 0.68193 0.00951 0.20273 0.0
C1601 C 0.69537 0.01934 0.20717 0.0
C1602 C 0.70641 0.01399 0.21914 0.0
H1603 H 0.69331 -0.00681 0.27498 0.0
H1604 H 0.68858 0.00346 0.25597 0.0
H1605 H 0.6861 0.98163 0.25772 0.0
H1606 H 0.689 0.97702 0.22797 0.0
H1607 H 0.66954 0.98638 0.20727 0.0
H1608 H 0.94981 0.70402 0.18985 0.0
H1609 H 0.95972 0.72597 0.20779 0.0
H1610 H 0.98641 0.69047 0.23653 0.0
H1611 H 0.977 0.66861 0.2184 0.0
H1612 H 0.95668 0.73188 0.23995 0.0
H1613 H 0.02218 0.72258 0.22502 0.0
H1614 H 0.00588 0.713 0.21352 0.0
H1615 H 0.01292 0.70408 0.23246 0.0
C1616 C 0.9577 0.70091 0.20007 0.0
C1617 C 0.9628 0.68466 0.20266 0.0
C1618 C 0.96339 0.71345 0.21025 0.0
C1619 C 0.97417 0.70988 0.22319 0.0
C1620 C 0.97855 0.69354 0.22628 0.0
H1621 H -0.00515 0.76524 0.30953 0.0
H1622 H 0.9846 0.74685 0.28829 0.0
C1623 C 0.97305 0.68106 0.21601 0.0
C1624 C 0.9808 0.72316 0.23358 0.0
H1625 H 0.01652 0.73833 0.24922 0.0
C1626 C 0.96977 0.73342 0.24185 0.0
C1627 C -0.00211 0.72545 0.23569 0.0
C1628 C 0.01039 0.71581 0.22605 0.0
C1629 C 0.97536 0.7454 0.25282 0.0
C1630 C -0.00761 0.74676 0.25594 0.0
C1631 C 0.00345 0.73706 0.24705 0.0
C1632 C -0.00105 0.75773 0.26879 0.0
C1633 C 0.96294 0.75649 0.2609 0.0
C1634 C 0.01103 0.76941 0.26503 0.0
C1635 C 0.01719 0.77971 0.27724 0.0
C1636 C 0.01128 0.77851 0.29336 0.0
C1637 C -0.00051 0.76655 0.29716 0.0
C1638 C -0.0065 0.75615 0.28501 0.0
H1639 H 0.9517 0.75772 0.25329 0.0
H1640 H 0.95926 0.75111 0.27283 0.0
H1641 H 0.96808 0.76889 0.26313 0.0
H1642 H 0.01553 0.77069 0.25261 0.0
H1643 H 0.02627 0.78884 0.27398 0.0
H1644 H 0.20226 0.03234 0.27924 0.0
H1645 H 0.22326 0.02296 0.25991 0.0
H1646 H 0.23239 0.98061 0.29023 0.0
H1647 H 0.21176 -0.00998 0.30971 0.0
H1648 H 0.26071 -0.00478 0.27964 0.0
H1649 H 0.21764 0.9849 0.22791 0.0
H1650 H 0.21718 0.00531 0.23612 0.0
H1651 H 0.21072 0.98835 0.24862 0.0
C1652 C 0.2088 0.02108 0.2818 0.0
C1653 C 0.2053 0.01186 0.29593 0.0
C1654 C 0.2207 0.01568 0.27071 0.0
C1655 C 0.22913 0.00094 0.27352 0.0
C1656 C 0.22594 -0.00803 0.28781 0.0
H1657 H 0.28489 0.9448 0.20228 0.0
H1658 H 0.26511 0.95387 0.22299 0.0
C1659 C 0.21414 -0.00263 0.29891 0.0
C1660 C 0.24136 -0.00522 0.26166 0.0
H1661 H 0.24602 0.98192 0.22218 0.0
C1662 C 0.25751 -0.00771 0.26707 0.0
C1663 C 0.23705 -0.00929 0.24538 0.0
C1664 C 0.21968 -0.00771 0.23916 0.0
C1665 C 0.26956 0.98602 0.25656 0.0
C1666 C 0.26538 0.98247 0.24013 0.0
C1667 C 0.24918 0.98475 0.23477 0.0
C1668 C 0.2777 0.97664 0.2282 0.0
C1669 C 0.28658 0.983 0.26321 0.0
C1670 C 0.29125 0.98647 0.22431 0.0
C1671 C 0.30258 0.9813 0.2126 0.0
C1672 C 0.30044 0.96628 0.20444 0.0
C1673 C 0.28688 0.9564 0.20841 0.0
C1674 C 0.27557 0.96158 0.22018 0.0
H1675 H 0.28653 0.98186 0.27677 0.0
H1676 H 0.292 0.9717 0.25791 0.0
H1677 H 0.29459 -0.0065 0.25994 0.0
H1678 H 0.29292 -0.00171 0.23011 0.0
H1679 H 0.31284 0.98924 0.20974 0.0
H1680 H 0.03505 0.69698 0.77913 0.0
H1681 H 0.02718 0.71737 0.75849 0.0
H1682 H 0.98344 0.68964 0.74764 0.0
H1683 H -0.00869 0.66913 0.76791 0.0
H1684 H -0.00052 0.70043 0.71993 0.0
H1685 H -0.00968 0.75097 0.76464 0.0
H1686 H 0.01028 0.74164 0.76512 0.0
H1687 H -0.00744 0.72986 0.77085 0.0
C1688 C 0.02381 0.6952 0.77227 0.0
C1689 C 0.01373 0.68153 0.77521 0.0
C1690 C 0.01929 0.7069 0.76058 0.0
C1691 C 0.00459 0.70512 0.75178 0.0
C1692 C -0.00521 0.69126 0.75438 0.0
H1693 H 0.94867 0.77796 0.69875 0.0
H1694 H 0.95859 0.75706 0.71792 0.0
C1695 C -0.0007 0.67957 0.76598 0.0
C1696 C -0.00077 0.71768 0.73988 0.0
H1697 H 0.9871 0.75757 0.73661 0.0
C1698 C -0.0032 0.71294 0.72354 0.0
C1699 C -0.00448 0.73389 0.74475 0.0
C1700 C -0.00285 0.73942 0.76231 0.0
C1701 C -0.00923 0.72402 0.71187 0.0
C1702 C 0.98739 0.74032 0.71666 0.0
C1703 C 0.98979 0.74506 0.733 0.0
C1704 C 0.98129 0.75266 0.70489 0.0
C1705 C 0.9877 0.71805 0.69464 0.0
C1706 C -0.00918 0.75711 0.69131 0.0
C1707 C 0.98517 0.76892 0.68033 0.0
C1708 C 0.96994 0.77663 0.68283 0.0
C1709 C 0.96042 0.77219 0.69648 0.0
C1710 C 0.96608 0.76031 0.70745 0.0
H1711 H 0.9867 0.70448 0.69411 0.0
H1712 H 0.97628 0.72346 0.68955 0.0
H1713 H -0.00191 0.7218 0.68671 0.0
H1714 H 0.00274 0.75159 0.68932 0.0
H1715 H -0.00716 0.77215 0.66999 0.0
H1716 H 0.22018 0.97799 0.66537 0.0
H1717 H 0.2401 0.98701 0.68581 0.0
H1718 H 0.21277 0.96192 0.72353 0.0
H1719 H 0.1931 0.95233 0.70297 0.0
H1720 H 0.23444 0.0066 0.71117 0.0
H1721 H 0.25868 0.94717 0.73372 0.0
H1722 H 0.24634 0.94877 0.71544 0.0
H1723 H 0.2368 0.94891 0.73532 0.0
C1724 C 0.21857 0.97419 0.67798 0.0
C1725 C 0.20515 0.96444 0.68261 0.0
C1726 C 0.22992 0.97938 0.68965 0.0
C1727 C 0.228 0.97504 0.70616 0.0
C1728 C 0.21471 0.96511 0.7108 0.0
H1729 H 0.27719 0.02831 0.78508 0.0
H1730 H 0.25686 0.01807 0.76551 0.0
C1731 C 0.20346 0.95968 0.69906 0.0
C1732 C 0.23946 0.98173 0.71853 0.0
H1733 H 0.26658 0.97096 0.74848 0.0
C1734 C 0.24152 -0.00119 0.7193 0.0
C1735 C 0.24872 0.97153 0.72906 0.0
C1736 C 0.24767 0.95307 0.72828 0.0
C1737 C 0.25272 0.00598 0.73018 0.0
C1738 C 0.26174 -0.0042 0.74092 0.0
C1739 C 0.25957 0.97873 0.74027 0.0
C1740 C 0.27398 0.00249 0.75251 0.0
C1741 C 0.25511 0.02432 0.72969 0.0
C1742 C 0.29026 -0.00306 0.75185 0.0
C1743 C 0.30179 0.00256 0.76314 0.0
C1744 C 0.29727 0.01392 0.77525 0.0
C1745 C 0.28104 0.01971 0.77574 0.0
C1746 C 0.26944 0.0139 0.76455 0.0
H1747 H 0.25078 0.02966 0.71793 0.0
H1748 H 0.24793 0.03003 0.73972 0.0
H1749 H 0.26822 0.02762 0.73139 0.0
H1750 H 0.29401 0.98814 0.74265 0.0
H1751 H 0.31422 -0.0021 0.76247 0.0
H1752 H 0.00232 0.21864 0.66822 0.0
H1753 H -0.00672 0.23776 0.68934 0.0
H1754 H 0.01801 0.2089 0.72615 0.0
H1755 H 0.0276 0.18997 0.70491 0.0
H1756 H 0.97354 0.23109 0.71476 0.0
H1757 H 0.03339 0.2545 0.73744 0.0
H1758 H 0.03155 0.24284 0.71876 0.0
H1759 H 0.03135 0.23261 0.73828 0.0
C1760 C 0.00603 0.2165 0.68078 0.0
C1761 C 0.01568 0.20288 0.68495 0.0
C1762 C 0.00082 0.2274 0.69284 0.0
C1763 C 0.00506 0.22481 0.70929 0.0
C1764 C 0.01488 0.21131 0.71348 0.0
H1765 H 0.95233 0.27569 0.7879 0.0
H1766 H 0.96248 0.25453 0.7692 0.0
C1767 C 0.02031 0.20049 0.70136 0.0
C1768 C -0.0015 0.23594 0.72199 0.0
H1769 H 0.00967 0.26295 0.75183 0.0
C1770 C 0.98143 0.23806 0.72289 0.0
C1771 C 0.00885 0.24503 0.7325 0.0
C1772 C 0.02731 0.24378 0.73165 0.0
C1773 C 0.9744 0.24932 0.73377 0.0
C1774 C 0.98473 0.25834 0.74436 0.0
C1775 C 0.00179 0.25596 0.74371 0.0
C1776 C 0.97825 0.27099 0.75558 0.0
C1777 C 0.95605 0.25186 0.73338 0.0
C1778 C 0.98396 0.28716 0.75428 0.0
C1779 C 0.97839 0.29916 0.76507 0.0
C1780 C 0.96693 0.29522 0.77729 0.0
C1781 C 0.96102 0.27908 0.77846 0.0
C1782 C 0.96677 0.26701 0.76777 0.0
H1783 H 0.95054 0.24723 0.72182 0.0
H1784 H 0.95037 0.24508 0.7437 0.0
H1785 H 0.95291 0.26504 0.73469 0.0
H1786 H -0.00719 0.29048 0.74495 0.0
H1787 H 0.98314 0.31151 0.76389 0.0
H1788 H 0.78825 0.02921 0.70336 0.0
H1789 H 0.77011 0.01909 0.72508 0.0
H1790 H 0.74554 0.98789 0.69015 0.0
H1791 H 0.76392 -0.0025 0.66859 0.0
H1792 H 0.73774 0.02012 0.72911 0.0
H1793 H 0.75718 0.95537 0.72523 0.0
H1794 H 0.76815 0.97166 0.71505 0.0
H1795 H 0.75019 0.96273 0.70575 0.0
C1796 C 0.77893 0.02023 0.70034 0.0
C1797 C 0.77756 0.014 0.68435 0.0
C1798 C 0.76864 0.01443 0.71274 0.0
C1799 C 0.7568 0.00241 0.7093 0.0
C1800 C 0.75497 -0.00325 0.69318 0.0
H1801 H 0.66861 0.98057 0.76162 0.0
H1802 H 0.69016 -0.00962 0.74331 0.0
C1803 C 0.76536 0.00236 0.68085 0.0
C1804 C 0.74607 -0.00402 0.72242 0.0
H1805 H 0.73157 0.96042 0.73899 0.0
C1806 C 0.73652 0.00708 0.73141 0.0
C1807 C 0.74481 0.97899 0.72572 0.0
C1808 C 0.75578 0.96653 0.71755 0.0
C1809 C 0.72516 0.0016 0.74307 0.0
C1810 C 0.72293 0.98454 0.74537 0.0
C1811 C 0.73305 0.97348 0.73697 0.0
C1812 C 0.70986 0.97794 0.75606 0.0
C1813 C 0.71572 0.01416 0.75283 0.0
C1814 C 0.71366 0.96695 0.76875 0.0
C1815 C 0.70129 0.96101 0.779 0.0
C1816 C 0.68497 0.96606 0.77676 0.0
C1817 C 0.68113 0.97664 0.76374 0.0
C1818 C 0.69344 0.98237 0.75337 0.0
H1819 H 0.72258 0.02589 0.75373 0.0
H1820 H 0.70391 0.01676 0.74658 0.0
H1821 H 0.71305 0.0097 0.7654 0.0
H1822 H 0.72624 0.96323 0.7709 0.0
H1823 H 0.70459 0.95288 0.78897 0.0
H1824 H 0.21951 0.31545 0.97973 0.0
H1825 H 0.23958 0.29544 -0.01056 0.0
H1826 H 0.2153 0.25757 0.9616 0.0
H1827 H 0.19555 0.27771 0.95133 0.0
H1828 H 0.23433 0.26919 0.00778 0.0
H1829 H 0.26216 0.2498 0.94895 0.0
H1830 H 0.24896 0.26747 0.95053 0.0
H1831 H 0.24032 0.24719 0.94936 0.0
C1832 C 0.21861 0.3029 0.97549 0.0
C1833 C 0.20605 0.29812 0.96472 0.0
C1834 C 0.23004 0.29148 0.98108 0.0
C1835 C 0.22905 0.27505 0.97611 0.0
C1836 C 0.21655 0.27026 0.96527 0.0
H1837 H 0.27626 0.19454 0.02841 0.0
H1838 H 0.25667 0.215 0.01846 0.0
C1839 C 0.20524 0.28175 0.95946 0.0
C1840 C 0.24067 0.26288 0.98294 0.0
H1841 H 0.26885 0.23387 0.97241 0.0
C1842 C 0.24195 0.26152 5e-05 0.0
C1843 C 0.25069 0.25299 0.97284 0.0
C1844 C 0.25061 0.25452 0.95441 0.0
C1845 C 0.253 0.25055 0.00735 0.0
C1846 C 0.26266 0.24031 -0.00276 0.0
C1847 C 0.26136 0.24166 0.98014 0.0
C1848 C 0.27453 0.22838 0.00405 0.0
C1849 C 0.2545 0.25037 0.02578 0.0
C1850 C 0.291 0.22897 -0.00093 0.0
C1851 C 0.30209 0.21714 0.00448 0.0
C1852 C 0.29696 0.20458 0.01507 0.0
C1853 C 0.28058 0.20421 0.02039 0.0
C1854 C 0.2694 0.21593 0.01477 0.0
H1855 H 0.25003 0.262 0.03127 0.0
H1856 H 0.24692 0.24024 0.03078 0.0
H1857 H 0.26741 0.24841 0.02967 0.0
H1858 H 0.29522 0.23847 -0.00919 0.0
H1859 H 0.31467 0.21773 0.00021 0.0
H1860 H 0.19971 0.69956 0.03179 0.0
H1861 H 0.22026 0.71933 0.02228 0.0
H1862 H 0.22773 0.69063 0.97855 0.0
H1863 H 0.20755 0.67071 0.98806 0.0
H1864 H 0.25656 0.70024 -0.00728 0.0
H1865 H 0.21412 0.75302 0.98577 0.0
H1866 H 0.21406 0.74398 0.00583 0.0
H1867 H 0.20695 0.73228 0.98858 0.0
C1868 C 0.20576 0.69747 0.02016 0.0
C1869 C 0.20199 0.68363 0.01064 0.0
C1870 C 0.2174 0.70882 0.0147 0.0
C1871 C 0.22528 0.70656 -0.00042 0.0
C1872 C 0.22171 0.69263 -0.00979 0.0
H1873 H 0.2813 0.77923 0.9453 0.0
H1874 H 0.26118 0.75863 0.95393 0.0
C1875 C 0.21017 0.68127 -0.00433 0.0
C1876 C 0.23751 0.71851 -0.00644 0.0
H1877 H 0.24255 0.75852 0.98246 0.0
C1878 C 0.25351 0.71298 -0.00956 0.0
C1879 C 0.23338 0.73504 -0.00965 0.0
C1880 C 0.21616 0.74144 -0.00735 0.0
C1881 C 0.26559 0.7236 0.98441 0.0
C1882 C 0.26161 0.74026 0.98175 0.0
C1883 C 0.24556 0.74575 0.98463 0.0
C1884 C 0.27402 0.75226 0.97625 0.0
C1885 C 0.28243 0.71685 0.98072 0.0
C1886 C 0.28781 0.75549 0.98599 0.0
C1887 C 0.29932 0.76714 0.98108 0.0
C1888 C 0.29714 0.7759 0.96641 0.0
C1889 C 0.28332 0.77264 0.95664 0.0
C1890 C 0.27182 0.76092 0.96156 0.0
H1891 H 0.28214 0.70335 0.97898 0.0
H1892 H 0.28767 0.72258 0.96954 0.0
H1893 H 0.29073 0.71954 -0.00885 0.0
H1894 H 0.28955 0.74917 -0.00246 0.0
H1895 H 0.30979 0.76944 0.98892 0.0
H1896 H 0.7613 0.31145 8e-05 0.0
H1897 H 0.74165 0.29102 -0.00954 0.0
H1898 H 0.7681 0.25325 0.01641 0.0
H1899 H 0.78755 0.27378 0.02655 0.0
H1900 H 0.74769 0.26504 0.97122 0.0
H1901 H 0.72156 0.24425 0.03052 0.0
H1902 H 0.73411 0.26238 0.0288 0.0
H1903 H 0.74346 0.24241 0.02922 0.0
C1904 C 0.7628 0.29882 0.00392 0.0
C1905 C 0.77589 0.29418 0.0141 0.0
C1906 C 0.75161 0.28717 -0.00162 0.0
C1907 C 0.75334 0.27065 0.00282 0.0
C1908 C 0.76634 0.26599 0.01312 0.0
H1909 H 0.7017 0.19231 0.95055 0.0
H1910 H 0.72289 0.21118 0.96042 0.0
C1911 C 0.77745 0.27771 0.01886 0.0
C1912 C 0.74184 0.25836 -0.00392 0.0
H1913 H 0.71337 0.22968 0.00683 0.0
C1914 C 0.74016 0.2573 0.97899 0.0
C1915 C 0.73202 0.24836 0.00628 0.0
C1916 C 0.73273 0.24947 0.02472 0.0
C1917 C 0.72872 0.24669 0.97179 0.0
C1918 C 0.71901 0.23658 0.98198 0.0
C1919 C 0.72088 0.23744 -0.00094 0.0
C1920 C 0.70626 0.22554 0.97531 0.0
C1921 C 0.72676 0.24684 0.9534 0.0
C1922 C 0.68997 0.22727 0.98054 0.0
C1923 C 0.67794 0.2164 0.97514 0.0
C1924 C 0.68197 0.20366 0.96432 0.0
C1925 C 0.69822 0.20215 0.95875 0.0
C1926 C 0.71032 0.21293 0.96434 0.0
H1927 H 0.7319 0.25818 0.94787 0.0
H1928 H 0.73343 0.23623 0.94812 0.0
H1929 H 0.71364 0.24582 0.94986 0.0
H1930 H 0.68659 0.23694 0.98898 0.0
H1931 H 0.66551 0.21786 0.9796 0.0
H1932 H 0.77646 0.69815 0.94738 0.0
H1933 H 0.75541 0.71721 0.95714 0.0
H1934 H 0.7502 0.68889 0.00147 0.0
H1935 H 0.77094 0.66964 -0.00828 0.0
H1936 H 0.72053 0.69761 0.98792 0.0
H1937 H 0.76195 0.7514 -0.00686 0.0
H1938 H 0.76177 0.74212 0.9732 0.0
H1939 H 0.76951 0.73078 -0.00956 0.0
C1940 C 0.7708 0.69597 0.95919 0.0
C1941 C 0.77541 0.68247 0.96883 0.0
C1942 C 0.75887 0.70692 0.96478 0.0
C1943 C 0.7515 0.70459 0.98014 0.0
C1944 C 0.75583 0.69093 -0.01038 0.0
H1945 H 0.69531 0.7777 0.03359 0.0
H1946 H 0.71535 0.75684 0.02552 0.0
C1947 C 0.76769 0.67997 0.98402 0.0
C1948 C 0.73915 0.71629 0.98636 0.0
H1949 H 0.73347 0.75636 -0.00317 0.0
C1950 C 0.72335 0.71045 -0.01008 0.0
C1951 C 0.74299 0.73295 -0.01079 0.0
C1952 C 0.76002 0.73969 0.98646 0.0
C1953 C 0.71115 0.72093 -0.00402 0.0
C1954 C 0.71482 0.73771 -0.00176 0.0
C1955 C 0.7307 0.74349 -0.00502 0.0
C1956 C 0.70226 0.7496 0.00361 0.0
C1957 C 0.69453 0.7139 8e-05 0.0
C1958 C 0.68831 0.75239 -0.00605 0.0
C1959 C 0.67685 0.76421 -0.00145 0.0
C1960 C 0.67922 0.77356 0.01281 0.0
C1961 C 0.69313 0.77065 0.02256 0.0
C1962 C 0.70459 0.75878 0.01796 0.0
H1963 H 0.69514 0.70045 0.00214 0.0
H1964 H 0.68932 0.71978 0.01119 0.0
H1965 H 0.68602 0.71615 -0.01029 0.0
H1966 H 0.68647 0.74566 0.98266 0.0
H1967 H 0.66629 0.76622 -0.00926 0.0
H1968 H 0.47598 0.71881 0.81196 0.0
H1969 H 0.48524 0.73779 0.79076 0.0
H1970 H 0.45955 0.70954 0.75416 0.0
H1971 H 0.44978 0.69075 0.77546 0.0
H1972 H 0.50467 0.73036 0.76518 0.0
H1973 H 0.44546 0.75563 0.74284 0.0
H1974 H 0.44707 0.74402 0.76158 0.0
H1975 H 0.44677 0.73368 0.74213 0.0
C1976 C 0.4721 0.71679 0.79943 0.0
C1977 C 0.46215 0.70335 0.79533 0.0
C1978 C 0.47743 0.7276 0.78733 0.0
C1979 C 0.473 0.72512 0.77091 0.0
C1980 C 0.46283 0.71186 0.7668 0.0
H1981 H 0.52667 0.77366 0.69139 0.0
H1982 H 0.51597 0.75301 0.71038 0.0
C1983 C 0.4573 0.70112 0.77896 0.0
C1984 C 0.47983 0.73602 0.75814 0.0
H1985 H 0.46934 0.76321 0.72818 0.0
C1986 C 0.49696 0.73756 0.75708 0.0
C1987 C 0.46971 0.74539 0.74764 0.0
C1988 C 0.45123 0.74475 0.74865 0.0
C1989 C 0.50428 0.74849 0.74603 0.0
C1990 C 0.49417 0.75778 0.73545 0.0
C1991 C 0.47705 0.75601 0.73629 0.0
C1992 C 0.501 0.77012 0.72407 0.0
C1993 C 0.5227 0.75038 0.74622 0.0
C1994 C 0.49593 0.7865 0.72532 0.0
C1995 C 0.50182 0.79822 0.71438 0.0
C1996 C 0.51296 0.79379 0.70204 0.0
C1997 C 0.51823 0.77743 0.70092 0.0
C1998 C 0.51217 0.76564 0.71177 0.0
H1999 H 0.52817 0.74561 0.75774 0.0
H2000 H 0.52803 0.74336 0.73588 0.0
H2001 H 0.5263 0.76343 0.74479 0.0
H2002 H 0.48733 0.7902 0.73474 0.0
H2003 H 0.49755 0.81074 0.71553 0.0
H2004 H 0.27572 0.44752 0.78083 0.0
H2005 H 0.25489 0.45716 0.76142 0.0
H2006 H 0.24994 0.50205 0.78886 0.0
H2007 H 0.27042 0.49244 0.80841 0.0
H2008 H 0.22027 0.48859 0.78055 0.0
H2009 H 0.26139 0.49247 0.72646 0.0
H2010 H 0.26105 0.4727 0.73615 0.0
H2011 H 0.26906 0.49007 0.74707 0.0
C2012 C 0.27016 0.45942 0.78272 0.0
C2013 C 0.27475 0.46925 0.7961 0.0
C2014 C 0.25837 0.46495 0.77158 0.0
C2015 C 0.25111 0.48043 0.77358 0.0
C2016 C 0.25547 0.49011 0.78706 0.0
H2017 H 0.19478 0.53378 0.70032 0.0
H2018 H 0.21499 0.52569 0.72105 0.0
C2019 C 0.26718 0.48459 0.79822 0.0
C2020 C 0.23875 0.48654 0.76181 0.0
H2021 H 0.23295 0.49659 0.72165 0.0
C2022 C 0.22303 0.49038 0.76767 0.0
C2023 C 0.24252 0.48912 0.74509 0.0
C2024 C 0.25946 0.48603 0.73831 0.0
C2025 C 0.21085 0.49648 0.75719 0.0
C2026 C 0.21444 0.49849 0.74037 0.0
C2027 C 0.23024 0.49493 0.73455 0.0
C2028 C 0.20185 0.50387 0.72851 0.0
C2029 C 0.19433 0.50091 0.76426 0.0
C2030 C 0.18782 0.49428 0.72591 0.0
C2031 C 0.17628 0.49888 0.71417 0.0
C2032 C 0.17863 0.51309 0.70471 0.0
C2033 C 0.19262 0.52279 0.70746 0.0
C2034 C 0.20417 0.51817 0.71924 0.0
H2035 H 0.19504 0.50307 0.77768 0.0
H2036 H 0.18926 0.51205 0.75829 0.0
H2037 H 0.18565 0.49064 0.76214 0.0
H2038 H 0.18597 0.48303 0.73272 0.0
H2039 H 0.16567 0.4911 0.71229 0.0
H2040 H 0.48492 0.27522 0.80345 0.0
H2041 H 0.47607 0.25436 0.78395 0.0
H2042 H 0.52096 0.26066 0.7567 0.0
H2043 H 0.52985 0.28184 0.77608 0.0
H2044 H 0.49266 0.25942 0.73705 0.0
H2045 H 0.49467 0.20783 0.78134 0.0
H2046 H 0.48251 0.22488 0.78809 0.0
H2047 H 0.50426 0.22737 0.78534 0.0
C2048 C 0.49295 0.27216 0.79334 0.0
C2049 C 0.50814 0.28008 0.79135 0.0
C2050 C 0.48789 0.2602 0.78225 0.0
C2051 C 0.498 0.25581 0.76908 0.0
C2052 C 0.51306 0.26385 0.76687 0.0
H2053 H 0.48855 0.16904 0.70954 0.0
H2054 H 0.49718 0.19057 0.7284 0.0
C2055 C 0.51812 0.27589 0.77795 0.0
C2056 C 0.49274 0.24286 0.7576 0.0
H2057 H 0.48192 0.20253 0.7557 0.0
C2058 C 0.49037 0.24696 0.74108 0.0
C2059 C 0.48994 0.2266 0.76291 0.0
C2060 C 0.49312 0.22133 0.78035 0.0
C2061 C 0.48501 0.23522 0.72972 0.0
C2062 C 0.48169 0.21909 0.73516 0.0
C2063 C 0.48429 0.21496 0.75164 0.0
C2064 C 0.47614 0.20609 0.72385 0.0
C2065 C 0.48327 0.2401 0.71197 0.0
C2066 C 0.46128 0.20758 0.71528 0.0
C2067 C 0.45632 0.1953 0.70442 0.0
C2068 C 0.46611 0.18131 0.70209 0.0
C2069 C 0.48076 0.17969 0.71103 0.0
C2070 C 0.48572 0.19198 0.72181 0.0
H2071 H 0.49016 0.25152 0.70917 0.0
H2072 H 0.4877 0.23021 0.70374 0.0
H2073 H 0.47012 0.24234 0.70921 0.0
H2074 H 0.45353 0.21823 0.71699 0.0
H2075 H 0.44493 0.19683 0.69776 0.0
H2076 H 0.77785 0.4486 0.69739 0.0
H2077 H 0.75813 0.45865 0.71769 0.0
H2078 H 0.78646 0.50297 0.72329 0.0
H2079 H 0.80635 0.49291 0.70337 0.0
H2080 H 0.77769 0.48967 0.75257 0.0
H2081 H 0.7237 0.49436 0.71138 0.0
H2082 H 0.733 0.47441 0.71165 0.0
H2083 H 0.74432 0.49162 0.70379 0.0
C2084 C 0.77986 0.46048 0.70296 0.0
C2085 C 0.79362 0.46998 0.69877 0.0
C2086 C 0.76852 0.46626 0.71444 0.0
C2087 C 0.77071 0.48167 0.72176 0.0
C2088 C 0.78452 0.49108 0.71771 0.0
H2089 H 0.69766 0.53465 0.77895 0.0
H2090 H 0.71791 0.5266 0.75826 0.0
C2091 C 0.79587 0.4853 0.70633 0.0
C2092 C 0.75894 0.48787 0.73405 0.0
H2093 H 0.71872 0.4979 0.73989 0.0
C2094 C 0.76481 0.49154 0.74979 0.0
C2095 C 0.74221 0.49054 0.73028 0.0
C2096 C 0.73543 0.48769 0.71332 0.0
C2097 C 0.75432 0.49752 0.76199 0.0
C2098 C 0.73747 0.49954 0.75842 0.0
C2099 C 0.73164 0.49621 0.7426 0.0
C2100 C 0.7256 0.50469 0.77109 0.0
C2101 C 0.76142 0.50178 0.77853 0.0
C2102 C 0.72322 0.49498 0.78506 0.0
C2103 C 0.71178 0.49957 0.79689 0.0
C2104 C 0.70238 0.51388 0.79488 0.0
C2105 C 0.70477 0.5236 0.78085 0.0
C2106 C 0.71628 0.519 0.76902 0.0
H2107 H 0.77484 0.50409 0.7778 0.0
H2108 H 0.75537 0.51279 0.78377 0.0
H2109 H 0.75945 0.49137 0.78705 0.0
H2110 H 0.73005 0.48371 0.78671 0.0
H2111 H 0.71015 0.49177 0.8075 0.0
H2112 H 0.5288 0.20259 0.28436 0.0
H2113 H 0.51779 0.22379 0.26618 0.0
H2114 H 0.48841 0.1874 0.24146 0.0
H2115 H 0.4989 0.16629 0.25993 0.0
H2116 H 0.51899 0.22792 0.23406 0.0
H2117 H 0.45414 0.22092 0.2526 0.0
H2118 H 0.47076 0.21141 0.26369 0.0
H2119 H 0.46254 0.20189 0.24554 0.0
C2120 C 0.52004 0.19912 0.275 0.0
C2121 C 0.51458 0.18285 0.27361 0.0
C2122 C 0.51372 0.21124 0.26468 0.0
C2123 C 0.50195 0.20723 0.25278 0.0
C2124 C 0.49705 0.19085 0.25093 0.0
H2125 H 0.4789 0.26047 0.16541 0.0
H2126 H 0.48885 0.24178 0.18654 0.0
C2127 C 0.50318 0.17878 0.26137 0.0
C2128 C 0.49504 0.22009 0.24201 0.0
H2129 H 0.45894 0.23551 0.22748 0.0
C2130 C 0.50587 0.2297 0.23274 0.0
C2131 C 0.47792 0.22269 0.24062 0.0
C2132 C 0.46569 0.2138 0.25129 0.0
C2133 C 0.50003 0.24136 0.22157 0.0
C2134 C 0.4829 0.24304 0.21925 0.0
C2135 C 0.47207 0.23397 0.22905 0.0
C2136 C 0.47602 0.25381 0.2064 0.0
C2137 C 0.51229 0.25181 0.21246 0.0
C2138 C 0.46478 0.26621 0.21043 0.0
C2139 C 0.45879 0.27671 0.19829 0.0
C2140 C 0.46404 0.27499 0.18199 0.0
C2141 C 0.47481 0.2622 0.17792 0.0
C2142 C 0.48062 0.2516 0.18999 0.0
H2143 H 0.52399 0.25293 0.21937 0.0
H2144 H 0.51511 0.246 0.2005 0.0
H2145 H 0.50741 0.26431 0.21014 0.0
H2146 H 0.46095 0.26799 0.22301 0.0
H2147 H 0.45049 0.28648 0.20175 0.0
H2148 H 0.77312 0.52633 0.28835 0.0
H2149 H 0.75174 0.51597 0.26994 0.0
H2150 H 0.78812 0.48813 0.2435 0.0
H2151 H 0.80938 0.49797 0.26214 0.0
H2152 H 0.74718 0.5184 0.23776 0.0
H2153 H 0.7551 0.45307 0.25391 0.0
H2154 H 0.76453 0.46937 0.26551 0.0
H2155 H 0.774 0.46194 0.24701 0.0
C2156 C 0.77653 0.51805 0.27856 0.0
C2157 C 0.79285 0.51281 0.27674 0.0
C2158 C 0.76432 0.51211 0.26811 0.0
C2159 C 0.76829 0.50093 0.25565 0.0
C2160 C 0.78471 0.4963 0.25338 0.0
H2161 H 0.71503 0.48019 0.16774 0.0
H2162 H 0.73339 0.49 0.18923 0.0
C2163 C 0.79686 0.50205 0.26393 0.0
C2164 C 0.75537 0.49429 0.2448 0.0
H2165 H 0.74034 0.4586 0.22902 0.0
C2166 C 0.74555 0.50532 0.23598 0.0
C2167 C 0.75296 0.47722 0.2428 0.0
C2168 C 0.76209 0.46474 0.25296 0.0
C2169 C 0.7339 0.49975 0.22464 0.0
C2170 C 0.73244 0.48271 0.2217 0.0
C2171 C 0.74171 0.47166 0.23107 0.0
C2172 C 0.72173 0.47615 0.20863 0.0
C2173 C 0.72325 0.51218 0.21601 0.0
C2174 C 0.70965 0.46442 0.21226 0.0
C2175 C 0.69936 0.45851 0.19991 0.0
C2176 C 0.70097 0.46432 0.18378 0.0
C2177 C 0.7134 0.47565 0.18011 0.0
C2178 C 0.72379 0.48139 0.19239 0.0
H2179 H 0.72196 0.52356 0.22338 0.0
H2180 H 0.72903 0.51558 0.20419 0.0
H2181 H 0.71082 0.5072 0.2135 0.0
H2182 H 0.70798 0.46009 0.2247 0.0
H2183 H 0.68986 0.44977 0.20307 0.0
H2184 H 0.53442 0.70035 0.19719 0.0
H2185 H 0.52585 0.72152 0.21672 0.0
H2186 H 0.48287 0.73128 0.18745 0.0
H2187 H 0.49143 0.71047 0.16781 0.0
H2188 H 0.49873 0.75942 0.19759 0.0
H2189 H 0.48807 0.71664 0.24953 0.0
H2190 H 0.50826 0.7157 0.24076 0.0
H2191 H 0.49081 0.70965 0.22873 0.0
C2192 C 0.52318 0.70707 0.19491 0.0
C2193 C 0.51355 0.7037 0.18103 0.0
C2194 C 0.51826 0.71905 0.20611 0.0
C2195 C 0.5036 0.72774 0.20363 0.0
C2196 C 0.49419 0.72464 0.1896 0.0
H2197 H 0.44745 0.78412 0.27384 0.0
H2198 H 0.457 0.76423 0.2535 0.0
C2199 C 0.4991 0.71273 0.17841 0.0
C2200 C 0.49794 0.74011 0.21557 0.0
H2201 H 0.48516 0.74498 0.25506 0.0
C2202 C 0.49577 0.75629 0.21017 0.0
C2203 C 0.49387 0.73588 0.23187 0.0
C2204 C 0.49521 0.7185 0.23808 0.0
C2205 C 0.48971 0.76843 0.22068 0.0
C2206 C 0.48602 0.76429 0.23709 0.0
C2207 C 0.48809 0.74809 0.24247 0.0
C2208 C 0.48003 0.77662 0.24891 0.0
C2209 C 0.48699 0.78548 0.21404 0.0
C2210 C 0.48985 0.7901 0.25304 0.0
C2211 C 0.48441 0.8015 0.26454 0.0
C2212 C 0.46911 0.79951 0.27225 0.0
C2213 C 0.45927 0.786 0.26806 0.0
C2214 C 0.46472 0.77462 0.2565 0.0
H2215 H 0.48617 0.78553 0.20046 0.0
H2216 H 0.47559 0.79095 0.21911 0.0
H2217 H 0.49747 0.7934 0.21762 0.0
H2218 H 0.50185 0.79167 0.24755 0.0
H2219 H 0.49233 0.81172 0.26758 0.0
H2220 H 0.27276 0.48711 0.17249 0.0
H2221 H 0.25222 0.47772 0.19208 0.0
H2222 H 0.25814 0.5223 0.21985 0.0
H2223 H 0.27903 0.53172 0.20039 0.0
H2224 H 0.25821 0.49409 0.2391 0.0
H2225 H 0.20525 0.49441 0.19638 0.0
H2226 H 0.22245 0.48278 0.18906 0.0
H2227 H 0.22438 0.50458 0.19177 0.0
C2228 C 0.26965 0.49499 0.18271 0.0
C2229 C 0.27745 0.5102 0.18487 0.0
C2230 C 0.25785 0.48962 0.19384 0.0
C2231 C 0.2535 0.49943 0.20723 0.0
C2232 C 0.2613 0.5146 0.20951 0.0
H2233 H 0.16916 0.48726 0.26962 0.0
H2234 H 0.18968 0.49626 0.24983 0.0
C2235 C 0.27318 0.51997 0.19839 0.0
C2236 C 0.24105 0.49364 0.21904 0.0
H2237 H 0.20119 0.48125 0.22206 0.0
C2238 C 0.24571 0.49134 0.23542 0.0
C2239 C 0.22475 0.49021 0.21418 0.0
C2240 C 0.21883 0.49326 0.19693 0.0
C2241 C 0.23452 0.48549 0.24709 0.0
C2242 C 0.21837 0.48157 0.24211 0.0
C2243 C 0.21366 0.48406 0.22577 0.0
C2244 C 0.20588 0.47564 0.25383 0.0
C2245 C 0.23998 0.48387 0.26469 0.0
C2246 C 0.20806 0.46087 0.26238 0.0
C2247 C 0.19635 0.45569 0.27377 0.0
C2248 C 0.18226 0.46518 0.27667 0.0
C2249 C 0.17992 0.47971 0.26771 0.0
C2250 C 0.19162 0.48488 0.25639 0.0
H2251 H 0.2513 0.49106 0.26716 0.0
H2252 H 0.23021 0.48804 0.2732 0.0
H2253 H 0.24265 0.47081 0.26737 0.0
H2254 H 0.21884 0.45339 0.26029 0.0
H2255 H 0.19844 0.4444 0.28044 0.0
H2256 H 0.78182 0.69981 0.53221 0.0
H2257 H 0.76145 0.72018 0.5236 0.0
H2258 H 0.79273 0.73459 0.48348 0.0
H2259 H 0.81317 0.71447 0.49205 0.0
H2260 H 0.779 0.76103 0.50069 0.0
H2261 H 0.73217 0.71491 0.4826 0.0
H2262 H 0.73969 0.71304 0.50322 0.0
H2263 H 0.75336 0.70961 0.48631 0.0
C2264 C 0.78439 0.7074 0.52162 0.0
C2265 C 0.79903 0.70548 0.51273 0.0
C2266 C 0.77271 0.71894 0.51667 0.0
C2267 C 0.77552 0.72866 0.50277 0.0
C2268 C 0.79033 0.72711 0.4942 0.0
H2269 H 0.70428 0.78277 0.44536 0.0
H2270 H 0.72554 0.76389 0.45508 0.0
C2271 C 0.80197 0.7156 0.4991 0.0
C2272 C 0.763 0.74038 0.49694 0.0
H2273 H 0.72431 0.74278 0.48116 0.0
C2274 C 0.76703 0.75708 0.49643 0.0
C2275 C 0.74753 0.73508 0.49115 0.0
C2276 C 0.74291 0.71717 0.49067 0.0
C2277 C 0.75591 0.76871 0.49039 0.0
C2278 C 0.74026 0.76348 0.485 0.0
C2279 C 0.7363 0.74674 0.48539 0.0
C2280 C 0.72778 0.77517 0.47898 0.0
C2281 C 0.76116 0.78644 0.48952 0.0
C2282 C 0.72198 0.78766 0.48923 0.0
C2283 C 0.70999 0.79851 0.48368 0.0
C2284 C 0.70341 0.79691 0.46783 0.0
C2285 C 0.70916 0.78432 0.4576 0.0
C2286 C 0.72126 0.77353 0.46315 0.0
H2287 H 0.77474 0.78767 0.4896 0.0
H2288 H 0.7563 0.79247 0.47833 0.0
H2289 H 0.75633 0.79306 0.50036 0.0
H2290 H 0.72656 0.78888 0.50163 0.0
H2291 H 0.7057 0.80799 0.49191 0.0
H2292 H 0.71925 0.16545 0.50147 0.0
H2293 H 0.73869 0.18637 0.49252 0.0
H2294 H 0.71125 0.2232 0.51874 0.0
H2295 H 0.69202 0.20214 0.52823 0.0
H2296 H 0.73177 0.21213 0.47344 0.0
H2297 H 0.75756 0.23376 0.53258 0.0
H2298 H 0.74555 0.21525 0.53094 0.0
H2299 H 0.7356 0.23492 0.53135 0.0
C2300 C 0.71752 0.17796 0.50556 0.0
C2301 C 0.70417 0.1822 0.51555 0.0
C2302 C 0.7286 0.1899 0.5004 0.0
C2303 C 0.72647 0.20632 0.50503 0.0
C2304 C 0.71331 0.21055 0.5153 0.0
H2305 H 0.77592 0.2854 0.4515 0.0
H2306 H 0.7551 0.26654 0.46215 0.0
C2307 C 0.70232 0.19853 0.52067 0.0
C2308 C 0.73757 0.21897 0.49826 0.0
H2309 H 0.76522 0.24852 0.5088 0.0
C2310 C 0.7391 0.22009 0.48116 0.0
C2311 C 0.74712 0.22929 0.50839 0.0
C2312 C 0.74653 0.22819 0.52683 0.0
C2313 C 0.75019 0.23102 0.47388 0.0
C2314 C 0.75965 0.24144 0.48399 0.0
C2315 C 0.75789 0.24054 0.50109 0.0
C2316 C 0.7721 0.25275 0.47719 0.0
C2317 C 0.75206 0.23085 0.45548 0.0
C2318 C 0.78847 0.2514 0.48232 0.0
C2319 C 0.80029 0.26228 0.47647 0.0
C2320 C 0.79596 0.27464 0.4653 0.0
C2321 C 0.77962 0.27584 0.45995 0.0
C2322 C 0.76773 0.26507 0.46599 0.0
H2323 H 0.74723 0.21934 0.45003 0.0
H2324 H 0.74506 0.24123 0.45017 0.0
H2325 H 0.76513 0.23221 0.45188 0.0
H2326 H 0.7921 0.24197 0.49093 0.0
H2327 H 0.8128 0.26107 0.48079 0.0
H2328 H 0.29048 0.77786 0.52806 0.0
H2329 H 0.27228 0.75573 0.51898 0.0
H2330 H 0.24393 0.7905 0.49094 0.0
H2331 H 0.26233 0.8125 0.49951 0.0
H2332 H 0.23994 0.75005 0.52188 0.0
H2333 H 0.25572 0.75726 0.45641 0.0
H2334 H 0.26711 0.76728 0.47251 0.0
H2335 H 0.24827 0.77606 0.46498 0.0
C2336 C 0.28028 0.78077 0.52006 0.0
C2337 C 0.27789 0.79683 0.51431 0.0
C2338 C 0.26995 0.76813 0.51485 0.0
C2339 C 0.25706 0.77142 0.50392 0.0
C2340 C 0.25414 0.78762 0.49894 0.0
H2341 H 0.17086 0.71499 0.48381 0.0
H2342 H 0.19185 0.73378 0.49395 0.0
C2343 C 0.26456 0.80019 0.50395 0.0
C2344 C 0.24665 0.758 0.49762 0.0
H2345 H 0.23141 0.74174 0.46227 0.0
C2346 C 0.23819 0.7481 0.50885 0.0
C2347 C 0.24474 0.75517 0.48062 0.0
C2348 C 0.2546 0.76439 0.46795 0.0
C2349 C 0.22726 0.73595 0.50352 0.0
C2350 C 0.22437 0.73405 0.48653 0.0
C2351 C 0.23341 0.74342 0.4753 0.0
C2352 C 0.21167 0.72278 0.48013 0.0
C2353 C 0.21902 0.72525 0.51616 0.0
C2354 C 0.21569 0.71089 0.46837 0.0
C2355 C 0.20363 0.70038 0.46226 0.0
C2356 C 0.18738 0.70156 0.46789 0.0
C2357 C 0.18333 0.7137 0.47939 0.0
C2358 C 0.19533 0.72433 0.48532 0.0
H2359 H 0.2265 0.72437 0.52751 0.0
H2360 H 0.20702 0.73071 0.51952 0.0
H2361 H 0.21686 0.71268 0.51141 0.0
H2362 H 0.22821 0.70962 0.46408 0.0
H2363 H 0.20709 0.6911 0.45342 0.0
H2364 H 0.20421 0.28508 0.52916 0.0
H2365 H 0.22568 0.26695 0.51859 0.0
H2366 H 0.18962 0.24124 0.48964 0.0
H2367 H 0.16825 0.25963 0.4997 0.0
H2368 H 0.2303 0.23469 0.52006 0.0
H2369 H 0.22293 0.25302 0.45525 0.0
H2370 H 0.21331 0.26403 0.47183 0.0
H2371 H 0.20402 0.24569 0.46376 0.0
C2372 C 0.20087 0.2755 0.52061 0.0
C2373 C 0.18462 0.27383 0.51511 0.0
C2374 C 0.21314 0.2652 0.51455 0.0
C2375 C 0.2093 0.25306 0.50299 0.0
C2376 C 0.19293 0.25089 0.49812 0.0
H2377 H 0.26447 0.16678 0.47975 0.0
H2378 H 0.2454 0.18744 0.48996 0.0
C2379 C 0.18072 0.26129 0.504 0.0
C2380 C 0.22234 0.24249 0.49613 0.0
H2381 H 0.23811 0.2283 0.46012 0.0
C2382 C 0.23213 0.2334 0.50696 0.0
C2383 C 0.22499 0.24115 0.47905 0.0
C2384 C 0.21588 0.25164 0.46682 0.0
C2385 C 0.24403 0.22247 0.50115 0.0
C2386 C 0.2458 0.22022 0.48405 0.0
C2387 C 0.23652 0.22982 0.47322 0.0
C2388 C 0.25691 0.20766 0.47717 0.0
C2389 C 0.25466 0.21356 0.5134 0.0
C2390 C 0.26916 0.21204 0.4659 0.0
C2391 C 0.27987 0.20017 0.45975 0.0
C2392 C 0.27852 0.18379 0.46488 0.0
C2393 C 0.26592 0.17937 0.47575 0.0
C2394 C 0.25511 0.19117 0.4817 0.0
H2395 H 0.25559 0.22046 0.5251 0.0
H2396 H 0.24908 0.20146 0.51619 0.0
H2397 H 0.26722 0.21152 0.50856 0.0
H2398 H 0.27063 0.22468 0.46211 0.0
H2399 H 0.28949 0.2039 0.45139 0.0
H2400 H 0.06442 0.28973 0.11292 0.0
H2401 H 0.08121 0.29401 0.08856 0.0
H2402 H 0.08028 0.3462 0.09671 0.0
H2403 H 0.06344 0.3421 0.12123 0.0
H2404 H 0.0698 0.31477 0.06135 0.0
H2405 H 0.12986 0.33423 0.08764 0.0
H2406 H 0.11508 0.32259 0.09934 0.0
H2407 H 0.11152 0.34388 0.09527 0.0
C2408 C 0.06793 0.30213 0.10971 0.0
C2409 C 0.06251 0.31559 0.11899 0.0
C2410 C 0.07753 0.30453 0.09577 0.0
C2411 C 0.08199 0.3204 0.09093 0.0
C2412 C 0.07708 0.33385 0.1004 0.0
H2413 H 0.1373 0.34607 0.00204 0.0
H2414 H 0.12171 0.34863 0.02762 0.0
C2415 C 0.06742 0.33147 0.11435 0.0
C2416 C 0.09076 0.32276 0.0753 0.0
H2417 H 0.12807 0.33228 0.05889 0.0
C2418 C 0.0825 0.31872 0.06078 0.0
C2419 C 0.10723 0.32809 0.07467 0.0
C2420 C 0.11657 0.3324 0.09003 0.0
C2421 C 0.09046 0.31943 0.0456 0.0
C2422 C 0.10717 0.32403 0.04502 0.0
C2423 C 0.11526 0.32872 0.05945 0.0
C2424 C 0.11671 0.32268 0.02972 0.0
C2425 C 0.081 0.31506 0.03032 0.0
C2426 C 0.1192 0.30723 0.02267 0.0
C2427 C 0.12806 0.30571 0.00817 0.0
C2428 C 0.13467 0.31963 0.00043 0.0
C2429 C 0.13231 0.33512 0.00764 0.0
C2430 C 0.12345 0.33662 0.02225 0.0
H2431 H 0.06755 0.31631 0.0322 0.0
H2432 H 0.08472 0.32293 0.01986 0.0
H2433 H 0.08358 0.30212 0.02703 0.0
H2434 H 0.1143 0.29632 0.02843 0.0
H2435 H 0.12969 0.29359 0.00302 0.0
H2436 H 0.63738 0.06136 0.12212 0.0
H2437 H 0.63344 0.0787 0.09792 0.0
H2438 H 0.68585 0.08192 0.09161 0.0
H2439 H 0.68998 0.0646 0.11564 0.0
H2440 H 0.64697 0.1115 0.0893 0.0
H2441 H 0.66729 0.061 0.04847 0.0
H2442 H 0.66092 0.0576 0.06939 0.0
H2443 H 0.68107 0.06544 0.06508 0.0
C2444 C 0.64808 0.0659 0.11569 0.0
C2445 C 0.664 0.06142 0.12069 0.0
C2446 C 0.64579 0.07581 0.1019 0.0
C2447 C 0.65936 0.08132 0.09291 0.0
C2448 C 0.67524 0.07756 0.09831 0.0
H2449 H 0.68517 0.13239 0.00668 0.0
H2450 H 0.68275 0.1178 0.03257 0.0
C2451 C 0.67756 0.06768 0.11206 0.0
C2452 C 0.65706 0.09026 0.07736 0.0
H2453 H 0.66504 0.08746 0.03647 0.0
C2454 C 0.65071 0.10624 0.07769 0.0
C2455 C 0.66184 0.08322 0.06229 0.0
C2456 C 0.66803 0.06582 0.06118 0.0
C2457 C 0.6498 0.1157 0.06332 0.0
C2458 C 0.65521 0.10884 0.04837 0.0
C2459 C 0.66097 0.09266 0.048 0.0
C2460 C 0.65624 0.11854 0.03314 0.0
C2461 C 0.64376 0.13314 0.06429 0.0
C2462 C 0.64207 0.12379 0.02492 0.0
C2463 C 0.64338 0.13216 0.01 0.0
C2464 C 0.6589 0.13533 0.00312 0.0
C2465 C 0.67302 0.13015 0.01156 0.0
C2466 C 0.67169 0.12181 0.02639 0.0
H2467 H 0.64222 0.13732 0.07715 0.0
H2468 H 0.65243 0.14151 0.05796 0.0
H2469 H 0.63172 0.1341 0.05801 0.0
H2470 H 0.63003 0.12116 0.02987 0.0
H2471 H 0.63227 0.13598 0.0038 0.0
H2472 H 0.92122 0.6372 0.11917 0.0
H2473 H 0.9058 0.63305 0.09372 0.0
H2474 H 0.90853 0.68483 0.08354 0.0
H2475 H 0.92396 0.68914 0.10876 0.0
H2476 H 0.87559 0.64787 0.08324 0.0
H2477 H 0.92751 0.66291 0.04202 0.0
H2478 H 0.93032 0.65793 0.0634 0.0
H2479 H 0.92387 0.67815 0.05744 0.0
C2480 C 0.9185 0.64771 0.11154 0.0
C2481 C 0.92394 0.66349 0.11594 0.0
C2482 C 0.90971 0.6453 0.09702 0.0
C2483 C 0.90634 0.65859 0.08666 0.0
C2484 C 0.91133 0.67438 0.09123 0.0
H2485 H 0.85518 0.68591 0.00114 0.0
H2486 H 0.87162 0.68274 0.02588 0.0
C2487 C 0.92007 0.67681 0.10571 0.0
C2488 C 0.8975 0.65615 0.07106 0.0
H2489 H 0.90075 0.66294 0.02996 0.0
C2490 C 0.88112 0.65089 0.07154 0.0
C2491 C 0.90485 0.66002 0.05586 0.0
C2492 C 0.92266 0.66492 0.05457 0.0
C2493 C 0.87158 0.6503 0.05723 0.0
C2494 C 0.87874 0.6549 0.04215 0.0
C2495 C 0.89531 0.65948 0.04159 0.0
C2496 C 0.86894 0.65639 0.02702 0.0
C2497 C 0.85372 0.64556 0.05843 0.0
C2498 C 0.86216 0.64255 0.0194 0.0
C2499 C 0.85273 0.6443 0.00518 0.0
C2500 C 0.84997 0.65993 -0.00159 0.0
C2501 C 0.857 0.6737 0.00603 0.0
C2502 C 0.86642 0.67193 0.02016 0.0
H2503 H 0.84948 0.64475 0.07134 0.0
H2504 H 0.84595 0.65459 0.05184 0.0
H2505 H 0.85188 0.63343 0.05257 0.0
H2506 H 0.86418 0.63043 0.02443 0.0
H2507 H 0.84753 0.63345 -0.00041 0.0
H2508 H 0.29412 0.85206 0.00368 0.0
H2509 H 0.29687 0.86688 0.02941 0.0
H2510 H 0.34931 0.85995 0.02818 0.0
H2511 H 0.34671 0.84488 0.0023 0.0
H2512 H 0.33378 0.85267 0.05914 0.0
H2513 H 0.31579 0.91351 0.03476 0.0
H2514 H 0.30166 0.89747 0.02948 0.0
H2515 H 0.3223 0.89687 0.02171 0.0
C2516 C 0.30628 0.8537 0.00879 0.0
C2517 C 0.32022 0.84734 0.00087 0.0
C2518 C 0.30782 0.86224 0.02348 0.0
C2519 C 0.3233 0.86468 0.03053 0.0
C2520 C 0.33726 0.85825 0.02282 0.0
H2521 H 0.3439 0.91623 0.12259 0.0
H2522 H 0.34758 0.89984 0.09773 0.0
C2523 C 0.33575 0.8497 0.00804 0.0
C2524 C 0.32465 0.87375 0.04612 0.0
H2525 H 0.31477 0.91025 0.06387 0.0
C2526 C 0.32989 0.86534 0.06019 0.0
C2527 C 0.31961 0.89027 0.04735 0.0
C2528 C 0.31467 0.90013 0.0325 0.0
C2529 C 0.32941 0.87284 0.07566 0.0
C2530 C 0.32366 0.88912 0.07694 0.0
C2531 C 0.31903 0.8977 0.0628 0.0
C2532 C 0.3216 0.89736 0.09289 0.0
C2533 C 0.33437 0.86318 0.09062 0.0
C2534 C 0.30579 0.9012 0.0984 0.0
C2535 C 0.30362 0.91053 0.11254 0.0
C2536 C 0.31727 0.91633 0.12135 0.0
C2537 C 0.33313 0.91197 0.11609 0.0
C2538 C 0.33527 0.90257 0.10193 0.0
H2539 H 0.33657 0.85005 0.08777 0.0
H2540 H 0.34581 0.86844 0.0958 0.0
H2541 H 0.32471 0.86404 0.10017 0.0
H2542 H 0.29511 0.89729 0.09152 0.0
H2543 H 0.29124 0.91362 0.11625 0.0
H2544 H 0.06044 0.63396 0.85667 0.0
H2545 H 0.07829 0.62916 0.88034 0.0
H2546 H 0.08148 0.68127 0.88857 0.0
H2547 H 0.06389 0.68623 0.86492 0.0
H2548 H 0.11189 0.66433 0.89101 0.0
H2549 H 0.06245 0.6351 0.92807 0.0
H2550 H 0.06654 0.62639 0.90825 0.0
H2551 H 0.05813 0.64667 0.90971 0.0
C2552 C 0.06503 0.64441 0.86346 0.0
C2553 C 0.06062 0.66049 0.85898 0.0
C2554 C 0.07515 0.64163 0.87701 0.0
C2555 C 0.08097 0.65486 0.8863 0.0
C2556 C 0.07705 0.6709 0.88156 0.0
H2557 H 0.12799 0.68395 0.97313 0.0
H2558 H 0.11486 0.68018 0.9466 0.0
C2559 C 0.06696 0.6737 0.86805 0.0
C2560 C 0.09079 0.65221 0.90129 0.0
H2561 H 0.08782 0.63942 0.94101 0.0
C2562 C 0.10672 0.6587 0.90189 0.0
C2563 C 0.08401 0.64477 0.91541 0.0
C2564 C 0.06681 0.6379 0.91548 0.0
C2565 C 0.11585 0.65847 0.91643 0.0
C2566 C 0.10874 0.6518 0.93075 0.0
C2567 C 0.09317 0.64454 0.92997 0.0
C2568 C 0.11661 0.65373 0.94693 0.0
C2569 C 0.1329 0.66568 0.91645 0.0
C2570 C 0.12145 0.64003 0.95612 0.0
C2571 C 0.12895 0.64212 0.9714 0.0
C2572 C 0.13155 0.65795 0.97775 0.0
C2573 C 0.12627 0.67159 0.96861 0.0
C2574 C 0.11886 0.66948 0.95338 0.0
H2575 H 0.1383 0.66577 0.90396 0.0
H2576 H 0.1323 0.67854 0.92084 0.0
H2577 H 0.14117 0.65873 0.92475 0.0
H2578 H 0.11963 0.62777 0.95137 0.0
H2579 H 0.13283 0.63136 0.97815 0.0
H2580 H 0.2882 0.0642 0.86323 0.0
H2581 H 0.2915 0.08128 0.88752 0.0
H2582 H 0.34411 0.07777 0.88316 0.0
H2583 H 0.34098 0.06077 0.85866 0.0
H2584 H 0.30779 0.07039 0.91604 0.0
H2585 H 0.33603 0.12721 0.8909 0.0
H2586 H 0.3254 0.11257 0.87814 0.0
H2587 H 0.34573 0.1082 0.88538 0.0
C2588 C 0.3005 0.06721 0.86727 0.0
C2589 C 0.31433 0.06105 0.85903 0.0
C2590 C 0.30235 0.07698 0.88116 0.0
C2591 C 0.31804 0.08085 0.88704 0.0
C2592 C 0.3319 0.07512 0.87864 0.0
H2593 H 0.34344 0.13303 0.97759 0.0
H2594 H 0.34554 0.11765 0.95186 0.0
C2595 C 0.33007 0.06535 0.8647 0.0
C2596 C 0.3197 0.0898 0.90268 0.0
H2597 H 0.33254 0.12585 0.91962 0.0
C2598 C 0.31325 0.08249 0.91684 0.0
C2599 C 0.327 0.10549 0.90366 0.0
C2600 C 0.33386 0.11395 0.88872 0.0
C2601 C 0.3136 0.09059 0.93194 0.0
C2602 C 0.32037 0.10651 0.93283 0.0
C2603 C 0.32733 0.11364 0.91882 0.0
C2604 C 0.31931 0.11627 0.94801 0.0
C2605 C 0.30665 0.08207 0.94682 0.0
C2606 C 0.3039 0.12079 0.95411 0.0
C2607 C 0.30264 0.12949 0.96873 0.0
C2608 C 0.31681 0.13395 0.97751 0.0
C2609 C 0.3323 0.12972 0.97116 0.0
C2610 C 0.33353 0.12098 0.95647 0.0
H2611 H 0.30616 0.06857 0.94512 0.0
H2612 H 0.31405 0.08481 0.95791 0.0
H2613 H 0.29395 0.08648 0.94897 0.0
H2614 H 0.29281 0.1175 0.94757 0.0
H2615 H 0.29052 0.13265 0.97316 0.0
H2616 H 0.84332 0.34561 0.976 0.0
H2617 H 0.85647 0.34933 0.94922 0.0
H2618 H 0.85742 0.29693 0.9424 0.0
H2619 H 0.84426 0.29306 0.96887 0.0
H2620 H 0.8871 0.33674 0.93955 0.0
H2621 H 0.83753 0.31358 0.89942 0.0
H2622 H 0.834 0.31967 0.9204 0.0
H2623 H 0.84222 0.29972 0.91584 0.0
C2624 C 0.84622 0.33489 0.96873 0.0
C2625 C 0.84272 0.31903 0.97456 0.0
C2626 C 0.8537 0.33705 0.95346 0.0
C2627 C 0.85759 0.32341 0.94375 0.0
C2628 C 0.85413 0.30762 0.94955 0.0
H2629 H 0.91434 0.29068 0.86459 0.0
H2630 H 0.89565 0.29564 0.8874 0.0
C2631 C 0.84673 0.30544 0.96477 0.0
C2632 C 0.86626 0.32539 0.92799 0.0
H2633 H 0.86479 0.3136 0.88793 0.0
C2634 C 0.88213 0.33203 0.92816 0.0
C2635 C 0.85966 0.31925 0.91319 0.0
C2636 C 0.84234 0.31281 0.91213 0.0
C2637 C 0.89203 0.33169 0.91411 0.0
C2638 C 0.88573 0.32472 0.89955 0.0
C2639 C 0.86957 0.31886 0.89917 0.0
C2640 C 0.89623 0.32204 0.88508 0.0
C2641 C 0.90944 0.33791 0.91517 0.0
C2642 C 0.90247 0.33528 0.87608 0.0
C2643 C 0.91318 0.3325 0.863 0.0
C2644 C 0.9178 0.31643 0.85876 0.0
C2645 C 0.91112 0.30321 0.86757 0.0
C2646 C 0.90041 0.306 0.88058 0.0
H2647 H 0.91316 0.34066 0.92798 0.0
H2648 H 0.91809 0.32875 0.91001 0.0
H2649 H 0.9106 0.34932 0.90786 0.0
H2650 H 0.8992 0.34774 0.87928 0.0
H2651 H 0.91805 0.34296 0.85642 0.0
H2652 H 0.63123 0.84573 0.97632 0.0
H2653 H 0.62876 0.86019 0.95009 0.0
H2654 H 0.6814 0.85962 0.94478 0.0
H2655 H 0.68403 0.84515 0.97074 0.0
H2656 H 0.64285 0.89078 0.94152 0.0
H2657 H 0.66494 0.84106 0.90097 0.0
H2658 H 0.65812 0.8374 0.92171 0.0
H2659 H 0.67849 0.84499 0.91785 0.0
C2660 C 0.64227 0.84861 0.96952 0.0
C2661 C 0.65783 0.84422 0.9756 0.0
C2662 C 0.64082 0.85686 0.95456 0.0
C2663 C 0.65488 0.86067 0.94541 0.0
C2664 C 0.67039 0.85644 0.95151 0.0
H2665 H 0.68877 0.91752 0.86592 0.0
H2666 H 0.68394 0.89944 0.88927 0.0
C2667 C 0.67186 0.84827 0.96642 0.0
C2668 C 0.6536 0.86974 0.9298 0.0
H2669 H 0.66544 0.86829 0.88975 0.0
C2670 C 0.64748 0.8858 0.9301 0.0
C2671 C 0.65963 0.86312 0.91497 0.0
C2672 C 0.66552 0.84563 0.91377 0.0
C2673 C 0.64812 0.89578 0.91612 0.0
C2674 C 0.65488 0.8894 0.90152 0.0
C2675 C 0.66034 0.87312 0.90103 0.0
C2676 C 0.65751 0.89981 0.88697 0.0
C2677 C 0.64234 0.91332 0.91725 0.0
C2678 C 0.6442 0.90576 0.87786 0.0
C2679 C 0.6469 0.91608 0.86446 0.0
C2680 C 0.66296 0.92062 0.86001 0.0
C2681 C 0.67625 0.91434 0.86904 0.0
C2682 C 0.67353 0.90398 0.88236 0.0
H2683 H 0.63958 0.91701 0.93005 0.0
H2684 H 0.65178 0.92174 0.9122 0.0
H2685 H 0.63102 0.91482 0.90983 0.0
H2686 H 0.63175 0.90249 0.88118 0.0
H2687 H 0.6364 0.92067 0.85774 0.0
H2688 H 0.1127 0.05817 0.28651 0.0
H2689 H 0.08767 0.07413 0.29036 0.0
H2690 H 0.09742 0.07725 0.34218 0.0
H2691 H 0.1226 0.06131 0.33849 0.0
H2692 H 0.06131 0.06377 0.31204 0.0
H2693 H 0.08657 0.12526 0.32771 0.0
H2694 H 0.09853 0.10992 0.31715 0.0
H2695 H 0.09468 0.10793 0.33869 0.0
C2696 C 0.10968 0.06241 0.29871 0.0
C2697 C 0.11964 0.05842 0.3122 0.0
C2698 C 0.09535 0.0715 0.30088 0.0
C2699 C 0.09079 0.07689 0.31653 0.0
C2700 C 0.10087 0.07334 0.32998 0.0
H2701 H 0.00243 0.13248 0.34302 0.0
H2702 H 0.02794 0.11665 0.34518 0.0
C2703 C 0.11521 0.06419 0.32784 0.0
C2704 C 0.07494 0.08536 0.31878 0.0
H2705 H 0.05777 0.12247 0.32751 0.0
C2706 C 0.06051 0.07658 0.3155 0.0
C2707 C 0.07401 0.10199 0.32348 0.0
C2708 C 0.08924 0.11194 0.32689 0.0
C2709 C 0.04511 0.08413 0.31648 0.0
C2710 C 0.04419 0.10094 0.32054 0.0
C2711 C 0.05857 0.10958 0.32439 0.0
C2712 C 0.02856 0.11004 0.31953 0.0
C2713 C 0.02995 0.07408 0.31303 0.0
C2714 C 0.02063 0.11161 0.30439 0.0
C2715 C 0.00616 0.1206 0.30309 0.0
C2716 C -0.00065 0.12828 0.31693 0.0
C2717 C 0.00732 0.12665 0.33215 0.0
C2718 C 0.02188 0.11766 0.33341 0.0
H2719 H 0.03224 0.06078 0.3149 0.0
H2720 H 0.01959 0.0779 0.32099 0.0
H2721 H 0.02623 0.0759 0.30008 0.0
H2722 H 0.02577 0.10606 0.29348 0.0
H2723 H 0.0004 0.12163 0.29118 0.0
H2724 H 0.91675 0.12296 0.34155 0.0
H2725 H 0.89837 0.09981 0.34684 0.0
H2726 H 0.89242 0.09252 0.29487 0.0
H2727 H 0.91061 0.11566 0.28941 0.0
H2728 H 0.86267 0.09035 0.31382 0.0
H2729 H 0.91339 0.05188 0.33872 0.0
H2730 H 0.9104 0.07166 0.34796 0.0
H2731 H 0.91719 0.07032 0.3271 0.0
C2732 C 0.91142 0.11653 0.33124 0.0
C2733 C 0.91528 0.12106 0.31505 0.0
C2734 C 0.90098 0.10328 0.3343 0.0
C2735 C 0.89428 0.09436 0.32124 0.0
C2736 C 0.89755 0.09925 0.3051 0.0
H2737 H 0.8436 0.0084 0.29491 0.0
H2738 H 0.85665 0.03508 0.29778 0.0
C2739 C 0.90798 0.11246 0.30202 0.0
C2740 C 0.88439 0.07947 0.32419 0.0
H2741 H 0.8875 0.03953 0.33623 0.0
C2742 C 0.86802 0.07928 0.3189 0.0
C2743 C 0.89142 0.06511 0.3309 0.0
C2744 C 0.90909 0.0646 0.33642 0.0
C2745 C 0.85861 0.06492 0.31968 0.0
C2746 C 0.86589 0.05037 0.32565 0.0
C2747 C 0.882 0.05074 0.33166 0.0
C2748 C 0.85756 0.03435 0.32426 0.0
C2749 C 0.84104 0.06537 0.31386 0.0
C2750 C 0.85415 0.0249 0.33821 0.0
C2751 C 0.84671 0.00952 0.33663 0.0
C2752 C 0.84276 0.00331 0.32103 0.0
C2753 C 0.84641 0.0128 0.30711 0.0
C2754 C 0.85376 0.02813 0.30872 0.0
H2755 H 0.83591 0.07797 0.31446 0.0
H2756 H 0.84053 0.06128 0.30091 0.0
H2757 H 0.83319 0.05706 0.32126 0.0
H2758 H 0.85718 0.02946 0.3503 0.0
H2759 H 0.84411 0.00251 0.34759 0.0
H2760 H 0.86679 0.91943 0.29203 0.0
H2761 H 0.89145 0.90313 0.29671 0.0
H2762 H 0.88066 0.90113 0.34836 0.0
H2763 H 0.85584 0.91749 0.34386 0.0
H2764 H 0.91748 0.91398 0.32024 0.0
H2765 H 0.89107 0.85225 0.33323 0.0
H2766 H 0.87999 0.86748 0.32156 0.0
H2767 H 0.88231 0.86988 0.34326 0.0
C2768 C 0.8695 0.91539 0.30438 0.0
C2769 C 0.85936 0.91983 0.31759 0.0
C2770 C 0.88361 0.90609 0.30701 0.0
C2771 C 0.88777 0.90093 0.32285 0.0
C2772 C 0.87752 0.90491 0.33603 0.0
H2773 H 0.97607 0.84325 0.3466 0.0
H2774 H 0.95058 0.85889 0.3502 0.0
C2775 C 0.86339 0.91429 0.33343 0.0
C2776 C 0.90343 0.89226 0.32552 0.0
H2777 H 0.91987 0.85441 0.33233 0.0
C2778 C 0.91804 0.90099 0.32306 0.0
C2779 C 0.90402 0.87539 0.32937 0.0
C2780 C 0.88856 0.86558 0.33197 0.0
C2781 C 0.93329 0.89314 0.32382 0.0
C2782 C 0.93387 0.87609 0.3268 0.0
C2783 C 0.91931 0.86749 0.33002 0.0
C2784 C 0.94929 0.86679 0.32494 0.0
C2785 C 0.94866 0.90309 0.32109 0.0
C2786 C 0.95678 0.86596 0.30953 0.0
C2787 C 0.97121 0.85708 0.30741 0.0
C2788 C 0.97844 0.84878 0.32068 0.0
C2789 C 0.97086 0.84958 0.33615 0.0
C2790 C 0.95631 0.85845 0.33824 0.0
H2791 H 0.9466 0.91629 0.32373 0.0
H2792 H 0.95888 0.89859 0.32888 0.0
H2793 H 0.95245 0.90199 0.30808 0.0
H2794 H 0.95137 0.8721 0.29907 0.0
H2795 H 0.97666 0.85671 0.29532 0.0
H2796 H 0.13301 0.97835 0.34575 0.0
H2797 H 0.1194 0.95178 0.34947 0.0
H2798 H 0.12321 0.94253 0.29761 0.0
H2799 H 0.13679 0.96882 0.29375 0.0
H2800 H 0.08982 0.94125 0.33403 0.0
H2801 H 0.14203 0.90062 0.31873 0.0
H2802 H 0.14468 0.92188 0.32431 0.0
H2803 H 0.13878 0.91644 0.30379 0.0
C2804 C 0.13103 0.97061 0.33516 0.0
C2805 C 0.13601 0.97569 0.31946 0.0
C2806 C 0.12328 0.95546 0.33732 0.0
C2807 C 0.12061 0.94512 0.32386 0.0
C2808 C 0.1255 0.95019 0.3082 0.0
H2809 H 0.06688 0.86408 0.29033 0.0
H2810 H 0.08505 0.88729 0.29562 0.0
C2811 C 0.13314 0.96531 0.30601 0.0
C2812 C 0.1119 0.92937 0.32579 0.0
H2813 H 0.11508 0.88867 0.31676 0.0
C2814 C 0.0954 0.92967 0.33061 0.0
C2815 C 0.11929 0.91434 0.32134 0.0
C2816 C 0.13722 0.91323 0.31691 0.0
C2817 C 0.08576 0.91543 0.3301 0.0
C2818 C 0.09295 0.90059 0.32481 0.0
C2819 C 0.10965 0.90013 0.32075 0.0
C2820 C 0.08294 0.8858 0.32198 0.0
C2821 C 0.06777 0.9165 0.33433 0.0
C2822 C 0.07606 0.87714 0.33512 0.0
C2823 C 0.06569 0.86381 0.33216 0.0
C2824 C 0.06202 0.85903 0.316 0.0
C2825 C 0.06937 0.86749 0.30291 0.0
C2826 C 0.07979 0.88072 0.30589 0.0
H2827 H 0.06371 0.92934 0.33636 0.0
H2828 H 0.06024 0.91107 0.32438 0.0
H2829 H 0.06537 0.90939 0.34567 0.0
H2830 H 0.07852 0.88084 0.34762 0.0
H2831 H 0.06026 0.85754 0.34252 0.0
H2832 H 0.00518 0.85267 0.68623 0.0
H2833 H 0.03106 0.86724 0.68302 0.0
H2834 H 0.02775 0.86207 0.63056 0.0
H2835 H 0.00161 0.8475 0.63359 0.0
H2836 H 0.05984 0.85451 0.66739 0.0
H2837 H 0.03668 0.91171 0.63807 0.0
H2838 H 0.02333 0.89779 0.64895 0.0
H2839 H 0.0307 0.89256 0.62892 0.0
C2840 C 0.00984 0.85469 0.67397 0.0
C2841 C 0.0013 0.84891 0.66016 0.0
C2842 C 0.02466 0.863 0.67218 0.0
C2843 C 0.03122 0.86578 0.65657 0.0
C2844 C 0.02274 0.8602 0.6427 0.0
H2845 H 0.1214 0.92113 0.63659 0.0
H2846 H 0.09744 0.90343 0.63262 0.0
C2847 C 0.00785 0.85185 0.64448 0.0
C2848 C 0.04721 0.87416 0.65508 0.0
H2849 H 0.06496 0.91027 0.64364 0.0
C2850 C 0.06102 0.86664 0.66205 0.0
C2851 C 0.04866 0.88991 0.648 0.0
C2852 C 0.03407 0.89859 0.64063 0.0
C2853 C 0.0762 0.87467 0.66258 0.0
C2854 C 0.07749 0.89071 0.65619 0.0
C2855 C 0.06387 0.89796 0.64855 0.0
C2856 C 0.09245 0.90065 0.65849 0.0
C2857 C 0.09069 0.86601 0.67018 0.0
C2858 C 0.09746 0.90497 0.67434 0.0
C2859 C 0.11106 0.91508 0.67667 0.0
C2860 C 0.11989 0.92112 0.66316 0.0
C2861 C 0.11491 0.91664 0.64726 0.0
C2862 C 0.10123 0.90656 0.64495 0.0
H2863 H 0.08905 0.85249 0.67006 0.0
H2864 H 0.10224 0.8691 0.66366 0.0
H2865 H 0.09195 0.86994 0.68313 0.0
H2866 H 0.09064 0.90077 0.68493 0.0
H2867 H 0.11452 0.91831 0.68907 0.0
H2868 H 0.13193 0.00093 0.63228 0.0
H2869 H 0.11713 0.02689 0.6289 0.0
H2870 H 0.12477 0.03793 0.67998 0.0
H2871 H 0.13945 0.01214 0.68353 0.0
H2872 H 0.08809 0.0357 0.64796 0.0
H2873 H 0.13905 0.08031 0.6549 0.0
H2874 H 0.14234 0.05915 0.64922 0.0
H2875 H 0.13861 0.06451 0.67024 0.0
C2876 C 0.13059 0.00897 0.64275 0.0
C2877 C 0.13682 0.00446 0.65819 0.0
C2878 C 0.12216 0.02376 0.64079 0.0
C2879 C 0.12009 0.03435 0.65415 0.0
C2880 C 0.1265 0.03001 0.66947 0.0
H2881 H 0.05496 0.10734 0.6868 0.0
H2882 H 0.07306 0.08402 0.6817 0.0
C2883 C 0.13478 0.01521 0.67149 0.0
C2884 C 0.11021 0.0494 0.65256 0.0
H2885 H 0.11178 0.09079 0.65837 0.0
C2886 C 0.09328 0.04779 0.64992 0.0
C2887 C 0.11709 0.0651 0.6551 0.0
C2888 C 0.1353 0.06746 0.65738 0.0
C2889 C 0.0829 0.06146 0.65063 0.0
C2890 C 0.08968 0.077 0.65403 0.0
C2891 C 0.10669 0.07876 0.65585 0.0
C2892 C 0.0791 0.09132 0.65696 0.0
C2893 C 0.06468 0.0592 0.64832 0.0
C2894 C 0.07673 0.10311 0.64473 0.0
C2895 C 0.06632 0.11643 0.64754 0.0
C2896 C 0.05828 0.11817 0.66271 0.0
C2897 C 0.06097 0.10639 0.675 0.0
C2898 C 0.07126 0.09306 0.67212 0.0
H2899 H 0.06162 0.04685 0.64347 0.0
H2900 H 0.0584 0.0608 0.66028 0.0
H2901 H 0.05979 0.06863 0.63981 0.0
H2902 H 0.08277 0.1019 0.63297 0.0
H2903 H 0.06455 0.12532 0.63784 0.0
H2904 H 0.9756 0.13769 0.63169 0.0
H2905 H 0.94841 0.12543 0.62766 0.0
H2906 H 0.9415 0.12339 0.67999 0.0
H2907 H 0.96839 0.13565 0.68417 0.0
H2908 H 0.938 0.0948 0.63952 0.0
H2909 H 0.89889 0.14456 0.66381 0.0
H2910 H 0.91997 0.1478 0.65777 0.0
H2911 H 0.91524 0.13927 0.67755 0.0
C2912 C 0.96823 0.13474 0.64233 0.0
C2913 C 0.97416 0.13766 0.65826 0.0
C2914 C 0.95271 0.12778 0.63999 0.0
C2915 C 0.94286 0.12383 0.65352 0.0
C2916 C 0.94876 0.12673 0.66938 0.0
H2917 H 0.86382 0.06808 0.68683 0.0
H2918 H 0.8863 0.08701 0.68131 0.0
C2919 C 0.96422 0.13361 0.67174 0.0
C2920 C 0.92688 0.11558 0.65134 0.0
H2921 H 0.8869 0.11749 0.66353 0.0
C2922 C 0.92671 0.09987 0.6444 0.0
C2923 C 0.91222 0.12231 0.65769 0.0
C2924 C 0.91152 0.13949 0.66447 0.0
C2925 C 0.91248 0.09019 0.64472 0.0
C2926 C 0.89808 0.09656 0.65197 0.0
C2927 C 0.89801 0.11264 0.65806 0.0
C2928 C 0.88357 0.08614 0.65496 0.0
C2929 C 0.91325 0.07287 0.63827 0.0
C2930 C 0.8744 0.07967 0.64195 0.0
C2931 C 0.86153 0.06877 0.64505 0.0
C2932 C 0.85764 0.06422 0.66123 0.0
C2933 C 0.86653 0.07122 0.67423 0.0
C2934 C 0.87935 0.08209 0.67111 0.0
H2935 H 0.926 0.06903 0.63535 0.0
H2936 H 0.90805 0.06416 0.64734 0.0
H2937 H 0.90582 0.07198 0.62691 0.0
H2938 H 0.87737 0.08285 0.62941 0.0
H2939 H 0.85486 0.06368 0.63476 0.0
H2940 H 0.91672 0.86516 0.69214 0.0
H2941 H 0.90009 0.88972 0.68816 0.0
H2942 H 0.89963 0.8813 0.63604 0.0
H2943 H 0.91629 0.85661 0.63983 0.0
H2944 H 0.91169 0.91653 0.66703 0.0
H2945 H 0.85061 0.8917 0.64895 0.0
H2946 H 0.86535 0.8797 0.66035 0.0
H2947 H 0.86848 0.88346 0.63894 0.0
C2948 C 0.91289 0.86834 0.67984 0.0
C2949 C 0.91793 0.85896 0.66629 0.0
C2950 C 0.9034 0.88238 0.6776 0.0
C2951 C 0.89864 0.88723 0.66183 0.0
C2952 C 0.90307 0.87762 0.64832 0.0
H2953 H 0.84488 0.97646 0.63453 0.0
H2954 H 0.86004 0.95055 0.6327 0.0
C2955 C 0.91263 0.86356 0.65052 0.0
C2956 C 0.89023 0.90308 0.65954 0.0
H2957 H 0.85338 0.92046 0.64996 0.0
C2958 C 0.89897 0.91742 0.66322 0.0
C2959 C 0.87373 0.90412 0.65437 0.0
C2960 C 0.86387 0.88896 0.65048 0.0
C2961 C 0.8915 0.93284 0.66219 0.0
C2962 C 0.87479 0.93386 0.65768 0.0
C2963 C 0.86619 0.91957 0.65344 0.0
C2964 C 0.86576 0.94952 0.65855 0.0
C2965 C 0.90153 0.9479 0.66606 0.0
C2966 C 0.86387 0.95734 0.67371 0.0
C2967 C 0.85529 0.97205 0.67481 0.0
C2968 C 0.84832 0.97923 0.66076 0.0
C2969 C 0.85017 0.97131 0.64556 0.0
C2970 C 0.85877 0.95651 0.64449 0.0
H2971 H 0.91488 0.94556 0.66458 0.0
H2972 H 0.89799 0.95834 0.65807 0.0
H2973 H 0.89934 0.95152 0.67898 0.0
H2974 H 0.86895 0.95197 0.68475 0.0
H2975 H 0.85406 0.97775 0.68673 0.0
H2976 H 0.29281 0.00204 0.1287 0.0
H2977 H 0.29416 0.02806 0.1141 0.0
H2978 H 0.34688 0.02809 0.11856 0.0
H2979 H 0.34572 0.00184 0.1331 0.0
H2980 H 0.30759 0.05769 0.12614 0.0
H2981 H 0.33879 0.0365 0.06932 0.0
H2982 H 0.32916 0.02249 0.08349 0.0
H2983 H 0.34871 0.0314 0.08832 0.0
C2984 C 0.30473 0.00748 0.12652 0.0
C2985 C 0.31917 -0.00017 0.13207 0.0
C2986 C 0.30546 0.02237 0.11819 0.0
C2987 C 0.32061 0.0299 0.11517 0.0
C2988 C 0.33508 0.02232 0.12058 0.0
H2989 H 0.33937 0.12077 0.06146 0.0
H2990 H 0.34288 0.09657 0.07884 0.0
C2991 C 0.33438 0.00736 0.12893 0.0
C2992 C 0.32104 0.04592 0.10673 0.0
H2993 H 0.33265 0.06466 0.0712 0.0
C2994 C 0.31314 0.05926 0.11417 0.0
C2995 C 0.32838 0.04789 0.09117 0.0
C2996 C 0.33665 0.03382 0.08249 0.0
C2997 C 0.31215 0.07452 0.10633 0.0
C2998 C 0.31904 0.07636 0.09055 0.0
C2999 C 0.32738 0.06317 0.08332 0.0
C3000 C 0.3169 0.09156 0.08092 0.0
C3001 C 0.30373 0.08851 0.11499 0.0
C3002 C 0.30113 0.0967 0.07635 0.0
C3003 C 0.29907 0.11049 0.06644 0.0
C3004 C 0.31276 0.11935 0.06082 0.0
C3005 C 0.32856 0.11426 0.0656 0.0
C3006 C 0.3306 0.10043 0.0755 0.0
H3007 H 0.3035 0.08662 0.12847 0.0
H3008 H 0.30991 0.10035 0.11234 0.0
H3009 H 0.29085 0.08935 0.11067 0.0
H3010 H 0.29042 0.08981 0.08013 0.0
H3011 H 0.28674 0.11401 0.06295 0.0
H3012 H 0.34589 0.97726 0.84477 0.0
H3013 H 0.34865 0.9505 0.85817 0.0
H3014 H 0.29598 0.94586 0.85991 0.0
H3015 H 0.29304 0.97236 0.8465 0.0
H3016 H 0.33588 0.94083 0.88902 0.0
H3017 H 0.31086 0.90262 0.8388 0.0
H3018 H 0.31778 0.92342 0.83567 0.0
H3019 H 0.29778 0.91949 0.84413 0.0
C3020 C 0.3349 0.97052 0.84796 0.0
C3021 C 0.31924 0.97693 0.84449 0.0
C3022 C 0.33651 0.95524 0.85559 0.0
C3023 C 0.32252 0.94611 0.85971 0.0
C3024 C 0.30692 0.95257 0.85647 0.0
H3025 H 0.29035 0.86396 0.91379 0.0
H3026 H 0.29467 0.88758 0.89595 0.0
C3027 C 0.30529 0.96779 0.8489 0.0
C3028 C 0.32402 0.9301 0.86805 0.0
H3029 H 0.31177 0.8902 0.86544 0.0
C3030 C 0.3309 0.92967 0.88379 0.0
C3031 C 0.31752 0.91561 0.86112 0.0
C3032 C 0.31071 0.91523 0.84393 0.0
C3033 C 0.3306 0.91527 0.89319 0.0
C3034 C 0.32346 0.90095 0.88652 0.0
C3035 C 0.31719 0.90123 0.87052 0.0
C3036 C 0.32116 0.88597 0.89643 0.0
C3037 C 0.33714 0.91571 0.91049 0.0
C3038 C 0.33465 0.87705 0.90228 0.0
C3039 C 0.33224 0.86353 0.91252 0.0
C3040 C 0.31628 0.8587 0.91702 0.0
C3041 C 0.3028 0.86738 0.91064 0.0
C3042 C 0.30523 0.88086 0.90042 0.0
H3043 H 0.33956 0.92842 0.91473 0.0
H3044 H 0.32835 0.90984 0.91906 0.0
H3045 H 0.34883 0.90876 0.91106 0.0
H3046 H 0.34703 0.88069 0.8991 0.0
H3047 H 0.34288 0.85706 0.91714 0.0
H3048 H 0.00479 0.29404 0.85228 0.0
H3049 H 0.0305 0.29685 0.86715 0.0
H3050 H 0.02972 0.3491 0.85927 0.0
H3051 H 0.0038 0.34645 0.84413 0.0
H3052 H 0.06087 0.33278 0.85264 0.0
H3053 H 0.03524 0.31687 0.91351 0.0
H3054 H 0.02981 0.30254 0.89772 0.0
H3055 H 0.02255 0.32333 0.89655 0.0
C3056 C 0.00999 0.30618 0.8537 0.0
C3057 C 0.00216 0.32005 0.84707 0.0
C3058 C 0.02468 0.30774 0.86226 0.0
C3059 C 0.03183 0.32319 0.86448 0.0
C3060 C 0.02427 0.33709 0.85774 0.0
H3061 H 0.12455 0.34232 0.91593 0.0
H3062 H 0.09981 0.3464 0.89939 0.0
C3063 C 0.00947 0.33554 0.84915 0.0
C3064 C 0.04734 0.32453 0.87374 0.0
H3065 H 0.06439 0.31501 0.91068 0.0
C3066 C 0.06167 0.32918 0.86541 0.0
C3067 C 0.04824 0.31985 0.89039 0.0
C3068 C 0.03312 0.31551 0.90013 0.0
C3069 C 0.07706 0.32842 0.87312 0.0
C3070 C 0.078 0.32301 0.88953 0.0
C3071 C 0.0636 0.31901 0.89803 0.0
C3072 C 0.09382 0.32061 0.89802 0.0
C3073 C 0.09228 0.33268 0.86352 0.0
C3074 C 0.09862 0.30476 0.90258 0.0
C3075 C 0.11269 0.30237 0.91202 0.0
C3076 C 0.12215 0.31583 0.91719 0.0
C3077 C 0.11755 0.33169 0.91215 0.0
C3078 C 0.10346 0.33405 0.90266 0.0
H3079 H 0.08966 0.33441 0.85027 0.0
H3080 H 0.0976 0.34422 0.86837 0.0
H3081 H 0.10166 0.32291 0.86492 0.0
H3082 H 0.09127 0.29425 0.89911 0.0
H3083 H 0.11587 0.28999 0.91563 0.0
H3084 H 0.63512 0.12238 0.91903 0.0
H3085 H 0.63029 0.09892 0.90094 0.0
H3086 H 0.68233 0.08979 0.89874 0.0
H3087 H 0.68737 0.11312 0.91682 0.0
H3088 H 0.65986 0.09104 0.86628 0.0
H3089 H 0.64205 0.0486 0.91688 0.0
H3090 H 0.63465 0.06945 0.91674 0.0
H3091 H 0.65595 0.06548 0.92045 0.0
C3092 C 0.64556 0.11544 0.91465 0.0
C3093 C 0.66164 0.11959 0.91942 0.0
C3094 C 0.64275 0.10207 0.90434 0.0
C3095 C 0.65596 0.09271 0.89863 0.0
C3096 C 0.67201 0.09695 0.90308 0.0
H3097 H 0.68367 0.01165 0.84193 0.0
H3098 H 0.6798 0.03773 0.85589 0.0
C3099 C 0.67484 0.11026 0.91342 0.0
C3100 C 0.65316 0.07819 0.88831 0.0
H3101 H 0.64496 0.03727 0.89057 0.0
C3102 C 0.65638 0.07931 0.8715 0.0
C3103 C 0.64851 0.06303 0.89524 0.0
C3104 C 0.64508 0.06139 0.91332 0.0
C3105 C 0.65561 0.06541 0.86144 0.0
C3106 C 0.65182 0.05006 0.86853 0.0
C3107 C 0.64785 0.0491 0.88522 0.0
C3108 C 0.65365 0.03465 0.85926 0.0
C3109 C 0.65916 0.06718 0.8434 0.0
C3110 C 0.64023 0.02418 0.85676 0.0
C3111 C 0.64239 0.00919 0.84875 0.0
C3112 C 0.65806 0.00437 0.84338 0.0
C3113 C 0.67144 0.01496 0.84593 0.0
C3114 C 0.66924 0.02994 0.85379 0.0
H3115 H 0.65704 0.07994 0.83912 0.0
H3116 H 0.67222 0.0641 0.84109 0.0
H3117 H 0.65142 0.05873 0.83604 0.0
H3118 H 0.62813 0.02759 0.86107 0.0
H3119 H 0.63186 0.00127 0.84701 0.0
H3120 H 0.9731 0.68592 0.84846 0.0
H3121 H 0.94641 0.68384 0.86177 0.0
H3122 H 0.9481 0.63119 0.85749 0.0
H3123 H 0.975 0.63309 0.84423 0.0
H3124 H 0.91735 0.66904 0.84866 0.0
H3125 H 0.93835 0.6397 0.90663 0.0
H3126 H 0.95232 0.64984 0.89279 0.0
H3127 H 0.9444 0.62993 0.88784 0.0
C3128 C 0.96788 0.67386 0.8504 0.0
C3129 C 0.97622 0.65965 0.84532 0.0
C3130 C 0.9526 0.67272 0.85797 0.0
C3131 C 0.94538 0.65737 0.86068 0.0
C3132 C 0.9536 0.64313 0.85567 0.0
H3133 H 0.85508 0.63877 0.91551 0.0
H3134 H 0.87855 0.63473 0.89729 0.0
C3135 C 0.96894 0.64426 0.84807 0.0
C3136 C 0.92916 0.65648 0.86866 0.0
H3137 H 0.91019 0.64548 0.90424 0.0
C3138 C 0.91572 0.66377 0.86076 0.0
C3139 C 0.92712 0.64951 0.88438 0.0
C3140 C 0.94129 0.64188 0.89352 0.0
C3141 C 0.90031 0.6646 0.86834 0.0
C3142 C 0.89843 0.6582 0.88432 0.0
C3143 C 0.91171 0.65036 0.89197 0.0
C3144 C 0.88321 0.6606 0.89386 0.0
C3145 C 0.88623 0.67241 0.85923 0.0
C3146 C 0.87803 0.6765 0.89785 0.0
C3147 C 0.86466 0.67887 0.90825 0.0
C3148 C 0.85629 0.66537 0.91495 0.0
C3149 C 0.86124 0.64944 0.91056 0.0
C3150 C 0.87465 0.64709 0.90016 0.0
H3151 H 0.88818 0.67201 0.84577 0.0
H3152 H 0.87443 0.66625 0.86214 0.0
H3153 H 0.88524 0.68547 0.8629 0.0
H3154 H 0.88468 0.68708 0.89337 0.0
H3155 H 0.8612 0.69129 0.9114 0.0
H3156 H 0.63313 0.97671 0.13169 0.0
H3157 H 0.63059 0.95026 0.11766 0.0
H3158 H 0.68325 0.94735 0.11355 0.0
H3159 H 0.68597 0.97355 0.12756 0.0
H3160 H 0.64267 0.94105 0.08599 0.0
H3161 H 0.67021 0.90372 0.13565 0.0
H3162 H 0.66269 0.92429 0.13891 0.0
H3163 H 0.68252 0.92103 0.12981 0.0
C3164 C 0.64416 0.97045 0.12778 0.0
C3165 C 0.65976 0.9772 0.13085 0.0
C3166 C 0.64268 0.95535 0.1198 0.0
C3167 C 0.65675 0.94676 0.1149 0.0
C3168 C 0.67227 0.95364 0.11758 0.0
H3169 H 0.68807 0.86372 0.06124 0.0
H3170 H 0.68428 0.88786 0.07845 0.0
C3171 C 0.67377 0.96869 0.12551 0.0
C3172 C 0.65539 0.93071 0.10665 0.0
H3173 H 0.66831 0.89103 0.10929 0.0
C3174 C 0.64801 0.93003 0.09115 0.0
C3175 C 0.66237 0.91641 0.11351 0.0
C3176 C 0.66976 0.91631 0.13046 0.0
C3177 C 0.64822 0.91554 0.0819 0.0
C3178 C 0.65577 0.90139 0.08851 0.0
C3179 C 0.66258 0.90194 0.10427 0.0
C3180 C 0.65778 0.88625 0.07879 0.0
C3181 C 0.64109 0.91569 0.06483 0.0
C3182 C 0.64413 0.87718 0.0736 0.0
C3183 C 0.64624 0.86335 0.06372 0.0
C3184 C 0.66206 0.85836 0.05894 0.0
C3185 C 0.67572 0.86724 0.06463 0.0
C3186 C 0.67359 0.88103 0.07448 0.0
H3187 H 0.63851 0.92833 0.06046 0.0
H3188 H 0.64957 0.90968 0.05605 0.0
H3189 H 0.62938 0.90873 0.06479 0.0
H3190 H 0.63185 0.88089 0.07705 0.0
H3191 H 0.63547 0.85674 0.05963 0.0
H3192 H 0.00427 0.63211 0.13768 0.0
H3193 H 0.03129 0.62872 0.12489 0.0
H3194 H 0.03822 0.68112 0.12548 0.0
H3195 H 0.01154 0.68464 0.13832 0.0
H3196 H 0.04078 0.6418 0.09485 0.0
H3197 H 0.0815 0.66436 0.14413 0.0
H3198 H 0.0605 0.65831 0.14782 0.0
H3199 H 0.06509 0.67838 0.13987 0.0
C3200 C 0.01164 0.64289 0.13525 0.0
C3201 C 0.00574 0.65865 0.13901 0.0
C3202 C 0.02706 0.64092 0.12797 0.0
C3203 C 0.03685 0.65465 0.12454 0.0
C3204 C 0.03104 0.67034 0.12841 0.0
H3205 H 0.11491 0.68861 0.06649 0.0
H3206 H 0.09251 0.68345 0.08569 0.0
C3207 C 0.01568 0.67233 0.13562 0.0
C3208 C 0.05256 0.65293 0.11567 0.0
H3209 H 0.0926 0.66513 0.11668 0.0
C3210 C 0.05222 0.64654 0.09972 0.0
C3211 C 0.06743 0.65913 0.12211 0.0
C3212 C 0.06872 0.66527 0.13949 0.0
C3213 C 0.06614 0.64718 0.08964 0.0
C3214 C 0.08075 0.65421 0.0958 0.0
C3215 C 0.08132 0.65984 0.11201 0.0
C3216 C 0.09509 0.65707 0.08513 0.0
C3217 C 0.06487 0.6412 0.07219 0.0
C3218 C 0.10411 0.64392 0.07875 0.0
C3219 C 0.11693 0.64681 0.06776 0.0
C3220 C 0.12091 0.66292 0.06298 0.0
C3221 C 0.11212 0.67607 0.06983 0.0
C3222 C 0.09935 0.67316 0.08084 0.0
H3223 H 0.05202 0.63836 0.06864 0.0
H3224 H 0.06981 0.65054 0.0636 0.0
H3225 H 0.07229 0.6299 0.07076 0.0
H3226 H 0.10108 0.63144 0.0821 0.0
H3227 H 0.1235 0.63641 0.06279 0.0
H3228 H 0.98131 0.3451 0.12663 0.0
H3229 H 0.95519 0.34748 0.11185 0.0
H3230 H 0.94643 0.29584 0.11884 0.0
H3231 H 0.97238 0.29327 0.13349 0.0
H3232 H 0.94569 0.32759 0.08255 0.0
H3233 H 0.90405 0.32022 0.13594 0.0
H3234 H 0.92514 0.32681 0.13796 0.0
H3235 H 0.92047 0.30554 0.13473 0.0
C3236 C 0.9738 0.33427 0.12506 0.0
C3237 C 0.97891 0.319 0.13125 0.0
C3238 C 0.95892 0.33566 0.11663 0.0
C3239 C 0.94888 0.32187 0.1145 0.0
C3240 C 0.95395 0.30665 0.1206 0.0
H3241 H 0.87049 0.28844 0.05557 0.0
H3242 H 0.89482 0.2931 0.07247 0.0
C3243 C 0.96883 0.3052 0.12888 0.0
C3244 C 0.9333 0.32306 0.1054 0.0
H3245 H 0.89206 0.31703 0.10941 0.0
C3246 C 0.93392 0.32557 0.08842 0.0
C3247 C 0.91804 0.32043 0.11318 0.0
C3248 C 0.91678 0.31823 0.13149 0.0
C3249 C 0.91964 0.32473 0.07888 0.0
C3250 C 0.90451 0.32137 0.08658 0.0
C3251 C 0.90377 0.31955 0.10362 0.0
C3252 C 0.88951 0.31866 0.07692 0.0
C3253 C 0.92078 0.32689 0.06057 0.0
C3254 C 0.8785 0.33152 0.07409 0.0
C3255 C 0.86459 0.32894 0.06441 0.0
C3256 C 0.8615 0.31344 0.0575 0.0
C3257 C 0.87248 0.30052 0.0607 0.0
C3258 C 0.88638 0.30314 0.07032 0.0
H3259 H 0.9332 0.3309 0.05662 0.0
H3260 H 0.91786 0.31509 0.05445 0.0
H3261 H 0.91163 0.33606 0.05637 0.0
H3262 H 0.88079 0.34356 0.07918 0.0
H3263 H 0.85637 0.33914 0.06221 0.0
H3264 H 0.62545 0.7919 0.50133 0.0
H3265 H 0.60986 0.7945 0.52663 0.0
H3266 H 0.61691 0.84687 0.5259 0.0
H3267 H 0.63272 0.84444 0.50044 0.0
H3268 H 0.62378 0.83055 0.55693 0.0
H3269 H 0.56305 0.81394 0.53117 0.0
H3270 H 0.57913 0.7999 0.52576 0.0
H3271 H 0.57996 0.82072 0.51857 0.0
C3272 C 0.62367 0.80401 0.50645 0.0
C3273 C 0.63029 0.81798 0.49882 0.0
C3274 C 0.61469 0.80546 0.52089 0.0
C3275 C 0.6121 0.82088 0.52796 0.0
C3276 C 0.61874 0.83488 0.52051 0.0
H3277 H 0.56135 0.8396 0.62097 0.0
H3278 H 0.57757 0.84376 0.59608 0.0
C3279 C 0.62771 0.83345 0.50597 0.0
C3280 C 0.60275 0.8221 0.54338 0.0
H3281 H 0.56579 0.81233 0.56028 0.0
C3282 C 0.61103 0.82684 0.55769 0.0
C3283 C 0.58613 0.81728 0.54422 0.0
C3284 C 0.57648 0.81282 0.52909 0.0
C3285 C 0.60329 0.82602 0.57304 0.0
C3286 C 0.58688 0.8205 0.57393 0.0
C3287 C 0.57843 0.81642 0.55953 0.0
C3288 C 0.57838 0.81805 0.5897 0.0
C3289 C 0.61289 0.83034 0.58824 0.0
C3290 C 0.57356 0.80222 0.59431 0.0
C3291 C 0.56428 0.79978 0.60844 0.0
C3292 C 0.55955 0.81318 0.61818 0.0
C3293 C 0.56481 0.82902 0.61376 0.0
C3294 C 0.57412 0.83143 0.59958 0.0
H3295 H 0.6262 0.83175 0.58569 0.0
H3296 H 0.60824 0.84209 0.59328 0.0
H3297 H 0.61123 0.82078 0.59778 0.0
H3298 H 0.57674 0.79175 0.58678 0.0
H3299 H 0.56048 0.78743 0.61149 0.0
H3300 H 0.18773 0.56286 0.61556 0.0
H3301 H 0.18386 0.57938 0.59094 0.0
H3302 H 0.13138 0.57631 0.59677 0.0
H3303 H 0.13506 0.55973 0.62154 0.0
H3304 H 0.16457 0.56689 0.56292 0.0
H3305 H 0.14197 0.62633 0.58789 0.0
H3306 H 0.15377 0.61215 0.60016 0.0
H3307 H 0.13279 0.60766 0.59532 0.0
C3308 C 0.17534 0.56584 0.61178 0.0
C3309 C 0.1617 0.55989 0.62048 0.0
C3310 C 0.17317 0.57528 0.5977 0.0
C3311 C 0.15736 0.57906 0.59214 0.0
C3312 C 0.14368 0.57363 0.60102 0.0
H3313 H 0.1347 0.63397 0.50204 0.0
H3314 H 0.13107 0.61829 0.52747 0.0
C3315 C 0.14583 0.56412 0.61512 0.0
C3316 C 0.15535 0.58764 0.57635 0.0
H3317 H 0.14552 0.62454 0.5593 0.0
C3318 C 0.16027 0.57945 0.56208 0.0
C3319 C 0.14955 0.60392 0.57537 0.0
C3320 C 0.14426 0.61316 0.59046 0.0
C3321 C 0.16002 0.58731 0.54684 0.0
C3322 C 0.15501 0.60386 0.54594 0.0
C3323 C 0.14939 0.61185 0.56009 0.0
C3324 C 0.15695 0.61342 0.53071 0.0
C3325 C 0.16535 0.5779 0.53185 0.0
C3326 C 0.1727 0.61602 0.52436 0.0
C3327 C 0.17483 0.62489 0.50994 0.0
C3328 C 0.16122 0.63144 0.5016 0.0
C3329 C 0.14542 0.62901 0.50812 0.0
C3330 C 0.14331 0.62011 0.52263 0.0
H3331 H 0.16411 0.56446 0.53368 0.0
H3332 H 0.15807 0.58153 0.52093 0.0
H3333 H 0.17846 0.58057 0.52932 0.0
H3334 H 0.1834 0.61119 0.5306 0.0
H3335 H 0.18718 0.62659 0.50536 0.0
H3336 H 0.35151 0.13133 0.4974 0.0
H3337 H 0.36559 0.127 0.52364 0.0
H3338 H 0.35669 0.1774 0.53676 0.0
H3339 H 0.3428 0.18191 0.51068 0.0
H3340 H 0.39415 0.14734 0.5347 0.0
H3341 H 0.34082 0.1488 0.57701 0.0
H3342 H 0.33893 0.14371 0.55553 0.0
H3343 H 0.34107 0.16471 0.56176 0.0
C3344 C 0.35246 0.14145 0.50593 0.0
C3345 C 0.34609 0.15698 0.50196 0.0
C3346 C 0.36048 0.13894 0.52088 0.0
C3347 C 0.36194 0.15184 0.53213 0.0
C3348 C 0.35544 0.16726 0.52828 0.0
H3349 H 0.4208 0.18462 0.60963 0.0
H3350 H 0.40359 0.17948 0.58568 0.0
C3351 C 0.34762 0.16983 0.51333 0.0
C3352 C 0.37119 0.14972 0.5475 0.0
H3353 H 0.36732 0.15299 0.589 0.0
C3354 C 0.3883 0.14821 0.5466 0.0
C3355 C 0.36343 0.15088 0.56294 0.0
C3356 C 0.34503 0.15198 0.56446 0.0
C3357 C 0.39796 0.14877 0.56079 0.0
C3358 C 0.39026 0.15083 0.57613 0.0
C3359 C 0.37312 0.15146 0.57713 0.0
C3360 C 0.39997 0.15379 0.59104 0.0
C3361 C 0.41639 0.14784 0.55932 0.0
C3362 C 0.40336 0.14101 0.60199 0.0
C3363 C 0.41327 0.14387 0.61569 0.0
C3364 C 0.41981 0.15957 0.61863 0.0
C3365 C 0.41597 0.1724 0.60776 0.0
C3366 C 0.40617 0.1695 0.59406 0.0
H3367 H 0.42035 0.14406 0.54686 0.0
H3368 H 0.42174 0.16006 0.56203 0.0
H3369 H 0.4214 0.13904 0.56841 0.0
H3370 H 0.3986 0.12882 0.59978 0.0
H3371 H 0.41595 0.13374 0.62384 0.0
H3372 H 0.84657 0.34231 0.50159 0.0
H3373 H 0.8494 0.35534 0.52853 0.0
H3374 H 0.79675 0.35888 0.53234 0.0
H3375 H 0.79376 0.34587 0.5057 0.0
H3376 H 0.83755 0.38653 0.53818 0.0
H3377 H 0.81014 0.33708 0.57572 0.0
H3378 H 0.81735 0.33378 0.55505 0.0
H3379 H 0.79751 0.34277 0.55862 0.0
C3380 C 0.8356 0.34582 0.5082 0.0
C3381 C 0.81994 0.34299 0.50151 0.0
C3382 C 0.83725 0.35322 0.52357 0.0
C3383 C 0.82327 0.35773 0.53252 0.0
C3384 C 0.80767 0.35511 0.52579 0.0
H3385 H 0.7892 0.41346 0.61203 0.0
H3386 H 0.79435 0.39491 0.58916 0.0
C3387 C 0.80601 0.34779 0.51047 0.0
C3388 C 0.82475 0.36594 0.54858 0.0
H3389 H 0.811 0.36388 0.588 0.0
C3390 C 0.83207 0.38148 0.54919 0.0
C3391 C 0.81761 0.35923 0.56287 0.0
C3392 C 0.81036 0.34222 0.56311 0.0
C3393 C 0.83148 0.39099 0.56349 0.0
C3394 C 0.82358 0.38461 0.57755 0.0
C3395 C 0.81698 0.36873 0.57716 0.0
C3396 C 0.82071 0.39479 0.59223 0.0
C3397 C 0.83846 0.40812 0.56319 0.0
C3398 C 0.83384 0.40052 0.60174 0.0
C3399 C 0.83095 0.41117 0.61484 0.0
C3400 C 0.81488 0.41621 0.61862 0.0
C3401 C 0.80173 0.40991 0.60941 0.0
C3402 C 0.80463 0.39928 0.59635 0.0
H3403 H 0.84168 0.41214 0.55059 0.0
H3404 H 0.82957 0.41698 0.56845 0.0
H3405 H 0.84976 0.40851 0.57078 0.0
H3406 H 0.84631 0.39697 0.59887 0.0
H3407 H 0.84135 0.41571 0.62175 0.0
H3408 H 0.56453 0.19188 0.36116 0.0
H3409 H 0.58177 0.18869 0.38538 0.0
H3410 H 0.57999 0.13614 0.38003 0.0
H3411 H 0.56282 0.13916 0.3556 0.0
H3412 H 0.57145 0.17138 0.41362 0.0
H3413 H 0.62925 0.1459 0.38776 0.0
H3414 H 0.6142 0.15632 0.37528 0.0
H3415 H 0.61058 0.13567 0.38196 0.0
C3416 C 0.56795 0.17963 0.36497 0.0
C3417 C 0.56223 0.16577 0.35647 0.0
C3418 C 0.57781 0.17785 0.37881 0.0
C3419 C 0.58222 0.1622 0.38439 0.0
C3420 C 0.57692 0.14833 0.37574 0.0
H3421 H 0.63481 0.13523 0.47405 0.0
H3422 H 0.6197 0.13386 0.4481 0.0
C3423 C 0.56705 0.15009 0.36184 0.0
C3424 C 0.59127 0.16052 0.39997 0.0
H3425 H 0.62774 0.14837 0.41658 0.0
C3426 C 0.58375 0.16632 0.41428 0.0
C3427 C 0.60721 0.15375 0.40075 0.0
C3428 C 0.6159 0.14764 0.38563 0.0
C3429 C 0.59185 0.16575 0.42939 0.0
C3430 C 0.60798 0.15946 0.43011 0.0
C3431 C 0.61536 0.15321 0.4159 0.0
C3432 C 0.61763 0.16015 0.44539 0.0
C3433 C 0.58308 0.17192 0.44446 0.0
C3434 C 0.62168 0.17538 0.45219 0.0
C3435 C 0.63023 0.17623 0.46695 0.0
C3436 C 0.63498 0.16182 0.47515 0.0
C3437 C 0.63125 0.14654 0.46808 0.0
C3438 C 0.62267 0.14572 0.45327 0.0
H3439 H 0.56956 0.17212 0.4427 0.0
H3440 H 0.58597 0.1642 0.45529 0.0
H3441 H 0.58715 0.18463 0.4471 0.0
H3442 H 0.61813 0.18664 0.44611 0.0
H3443 H 0.63301 0.1882 0.47195 0.0
H3444 H 0.84026 0.55839 0.35861 0.0
H3445 H 0.84448 0.57519 0.38312 0.0
H3446 H 0.79216 0.57748 0.3906 0.0
H3447 H 0.78778 0.56062 0.36632 0.0
H3448 H 0.83214 0.60699 0.3917 0.0
H3449 H 0.81017 0.55835 0.43382 0.0
H3450 H 0.81575 0.55429 0.4128 0.0
H3451 H 0.79603 0.56296 0.41758 0.0
C3452 C 0.82964 0.56254 0.36541 0.0
C3453 C 0.81368 0.558 0.36061 0.0
C3454 C 0.83209 0.57213 0.3794 0.0
C3455 C 0.81865 0.57726 0.38879 0.0
C3456 C 0.80271 0.57332 0.38367 0.0
H3457 H 0.79419 0.63195 0.4733 0.0
H3458 H 0.79613 0.6161 0.44812 0.0
C3459 C 0.80024 0.56374 0.36975 0.0
C3460 C 0.82114 0.58649 0.40416 0.0
H3461 H 0.81266 0.58523 0.44504 0.0
C3462 C 0.8281 0.6022 0.40342 0.0
C3463 C 0.81596 0.58008 0.4194 0.0
C3464 C 0.80921 0.56293 0.42103 0.0
C3465 C 0.82922 0.61205 0.41749 0.0
C3466 C 0.8234 0.60587 0.43258 0.0
C3467 C 0.81702 0.58993 0.43339 0.0
C3468 C 0.82266 0.61607 0.44749 0.0
C3469 C 0.83594 0.62922 0.41601 0.0
C3470 C 0.83699 0.62128 0.45547 0.0
C3471 C 0.83595 0.63039 0.46995 0.0
C3472 C 0.82054 0.63434 0.47667 0.0
C3473 C 0.80626 0.62913 0.46852 0.0
C3474 C 0.80732 0.62006 0.45411 0.0
H3475 H 0.83752 0.63302 0.40303 0.0
H3476 H 0.82768 0.63809 0.4222 0.0
H3477 H 0.84808 0.62985 0.42214 0.0
H3478 H 0.84894 0.6181 0.45063 0.0
H3479 H 0.84718 0.63418 0.47595 0.0
H3480 H 0.34805 0.79364 0.46934 0.0
H3481 H 0.36224 0.79574 0.44318 0.0
H3482 H 0.35955 0.84846 0.4456 0.0
H3483 H 0.34512 0.84654 0.4719 0.0
H3484 H 0.35122 0.83402 0.41405 0.0
H3485 H 0.41037 0.81138 0.43893 0.0
H3486 H 0.39321 0.79843 0.44369 0.0
H3487 H 0.39405 0.81887 0.45187 0.0
C3488 C 0.35044 0.80572 0.46437 0.0
C3489 C 0.34557 0.81994 0.47281 0.0
C3490 C 0.35858 0.80688 0.44942 0.0
C3491 C 0.36213 0.82225 0.44264 0.0
C3492 C 0.35698 0.83649 0.45074 0.0
H3493 H 0.41691 0.84298 0.35273 0.0
H3494 H 0.39952 0.84641 0.37695 0.0
C3495 C 0.34878 0.83536 0.46576 0.0
C3496 C 0.37144 0.82323 0.42717 0.0
H3497 H 0.4077 0.81171 0.40985 0.0
C3498 C 0.36364 0.82936 0.41311 0.0
C3499 C 0.38766 0.8172 0.42609 0.0
C3500 C 0.3969 0.81124 0.44098 0.0
C3501 C 0.37145 0.82889 0.39777 0.0
C3502 C 0.38741 0.82225 0.39664 0.0
C3503 C 0.39537 0.81664 0.4108 0.0
C3504 C 0.39603 0.82042 0.38086 0.0
C3505 C 0.36243 0.83491 0.3828 0.0
C3506 C 0.39964 0.80469 0.37502 0.0
C3507 C 0.40958 0.80266 0.36127 0.0
C3508 C 0.41621 0.81636 0.35318 0.0
C3509 C 0.41202 0.83217 0.35869 0.0
C3510 C 0.40203 0.83417 0.37247 0.0
H3511 H 0.34929 0.83744 0.38538 0.0
H3512 H 0.36823 0.84638 0.37837 0.0
H3513 H 0.36325 0.82572 0.3728 0.0
H3514 H 0.39513 0.79394 0.38141 0.0
H3515 H 0.41248 0.79032 0.35734 0.0
H3516 H 0.18998 0.41437 0.36526 0.0
H3517 H 0.18607 0.39709 0.38933 0.0
H3518 H 0.13359 0.40013 0.38332 0.0
H3519 H 0.13733 0.4174 0.35905 0.0
H3520 H 0.16782 0.40796 0.41754 0.0
H3521 H 0.14304 0.35029 0.39062 0.0
H3522 H 0.15433 0.36508 0.3786 0.0
H3523 H 0.13355 0.36924 0.38448 0.0
C3524 C 0.17759 0.41123 0.36889 0.0
C3525 C 0.16396 0.41734 0.36026 0.0
C3526 C 0.17539 0.40135 0.38265 0.0
C3527 C 0.15956 0.3973 0.388 0.0
C3528 C 0.14591 0.40297 0.37922 0.0
H3529 H 0.13481 0.34235 0.47739 0.0
H3530 H 0.13207 0.35806 0.45188 0.0
C3531 C 0.14809 0.41289 0.36541 0.0
C3532 C 0.15752 0.38815 0.40347 0.0
H3533 H 0.14622 0.35111 0.41935 0.0
C3534 C 0.163 0.39557 0.41796 0.0
C3535 C 0.15106 0.37208 0.40394 0.0
C3536 C 0.14522 0.36358 0.38861 0.0
C3537 C 0.16258 0.38718 0.43291 0.0
C3538 C 0.15678 0.37086 0.43329 0.0
C3539 C 0.15069 0.36363 0.41893 0.0
C3540 C 0.15821 0.36081 0.44825 0.0
C3541 C 0.16855 0.39576 0.44817 0.0
C3542 C 0.1738 0.35694 0.45436 0.0
C3543 C 0.17542 0.34804 0.46882 0.0
C3544 C 0.16145 0.34275 0.47746 0.0
C3545 C 0.1458 0.34631 0.47108 0.0
C3546 C 0.1442 0.35524 0.45652 0.0
H3547 H 0.16833 0.4093 0.44673 0.0
H3548 H 0.16096 0.39237 0.45895 0.0
H3549 H 0.1814 0.39202 0.45068 0.0
H3550 H 0.18474 0.36094 0.44797 0.0
H3551 H 0.18766 0.34543 0.47329 0.0
H3552 H 0.62194 0.56134 0.84352 0.0
H3553 H 0.59917 0.58034 0.84832 0.0
H3554 H 0.59073 0.58362 0.79629 0.0
H3555 H 0.61343 0.56475 0.79131 0.0
H3556 H 0.59091 0.61474 0.81447 0.0
H3557 H 0.55 0.56691 0.84118 0.0
H3558 H 0.5703 0.56895 0.84962 0.0
H3559 H 0.56777 0.56175 0.82902 0.0
C3560 C 0.6153 0.56617 0.83309 0.0
C3561 C 0.61943 0.56144 0.81703 0.0
C3562 C 0.60228 0.57697 0.83587 0.0
C3563 C 0.59324 0.58321 0.82266 0.0
C3564 C 0.59759 0.57888 0.80663 0.0
H3565 H 0.51007 0.63702 0.79444 0.0
H3566 H 0.53652 0.62369 0.79804 0.0
C3567 C 0.61053 0.56806 0.80382 0.0
C3568 C 0.5789 0.59392 0.82537 0.0
H3569 H 0.53883 0.59313 0.8374 0.0
C3570 C 0.57957 0.61012 0.81967 0.0
C3571 C 0.56421 0.58782 0.83228 0.0
C3572 C 0.56287 0.57039 0.83832 0.0
C3573 C 0.5657 0.62027 0.82021 0.0
C3574 C 0.55077 0.61389 0.8263 0.0
C3575 C 0.55032 0.59795 0.83274 0.0
C3576 C 0.53513 0.62288 0.8245 0.0
C3577 C 0.5671 0.63763 0.814 0.0
C3578 C 0.5254 0.62653 0.83819 0.0
C3579 C 0.51013 0.6341 0.83618 0.0
C3580 C 0.5043 0.63795 0.82041 0.0
C3581 C 0.51416 0.63428 0.80676 0.0
C3582 C 0.52938 0.62678 0.80879 0.0
H3583 H 0.57991 0.64221 0.8149 0.0
H3584 H 0.56347 0.638 0.8009 0.0
H3585 H 0.55893 0.64603 0.82093 0.0
H3586 H 0.52959 0.62343 0.85041 0.0
H3587 H 0.50282 0.63673 0.84694 0.0
H3588 H 0.41554 0.6229 0.84107 0.0
H3589 H 0.39894 0.59818 0.84539 0.0
H3590 H 0.40901 0.58265 0.79596 0.0
H3591 H 0.42547 0.60726 0.79141 0.0
H3592 H 0.37034 0.58637 0.8206 0.0
H3593 H 0.42323 0.5446 0.83179 0.0
H3594 H 0.42407 0.5663 0.83623 0.0
H3595 H 0.42511 0.55933 0.81543 0.0
C3596 C 0.41418 0.61425 0.8311 0.0
C3597 C 0.42185 0.61703 0.8159 0.0
C3598 C 0.40471 0.60018 0.8336 0.0
C3599 C 0.40294 0.58866 0.82102 0.0
C3600 C 0.41038 0.59144 0.80582 0.0
H3601 H 0.34663 0.50656 0.79342 0.0
H3602 H 0.36195 0.53207 0.79663 0.0
C3603 C 0.41972 0.60552 0.80324 0.0
C3604 C 0.39327 0.57363 0.82356 0.0
H3605 H 0.39722 0.53221 0.82762 0.0
C3606 C 0.37614 0.57454 0.82238 0.0
C3607 C 0.40098 0.55832 0.82594 0.0
C3608 C 0.41937 0.55695 0.82753 0.0
C3609 C 0.36652 0.5603 0.82281 0.0
C3610 C 0.3743 0.54492 0.82444 0.0
C3611 C 0.39136 0.54408 0.82636 0.0
C3612 C 0.36502 0.52952 0.82281 0.0
C3613 C 0.34815 0.56168 0.82109 0.0
C3614 C 0.36192 0.51964 0.8365 0.0
C3615 C 0.35308 0.50505 0.83475 0.0
C3616 C 0.34742 0.50009 0.81923 0.0
C3617 C 0.35082 0.50999 0.80553 0.0
C3618 C 0.3595 0.5246 0.80733 0.0
H3619 H 0.3438 0.57445 0.823 0.0
H3620 H 0.3445 0.55776 0.80859 0.0
H3621 H 0.34189 0.55349 0.82999 0.0
H3622 H 0.36622 0.52328 0.84852 0.0
H3623 H 0.35071 0.49767 0.84552 0.0
H3624 H 0.36034 0.41026 0.79142 0.0
H3625 H 0.38455 0.39341 0.79672 0.0
H3626 H 0.38035 0.40325 0.84843 0.0
H3627 H 0.35609 0.42013 0.84331 0.0
H3628 H 0.41168 0.41061 0.83392 0.0
H3629 H 0.39023 0.34782 0.8189 0.0
H3630 H 0.38508 0.36301 0.80381 0.0
H3631 H 0.37631 0.36431 0.82396 0.0
C3632 C 0.36438 0.40864 0.80395 0.0
C3633 C 0.35632 0.4166 0.81693 0.0
C3634 C 0.37816 0.39893 0.80696 0.0
C3635 C 0.38411 0.39701 0.82297 0.0
C3636 C 0.37585 0.40453 0.83601 0.0
H3637 H 0.47359 0.34082 0.84545 0.0
H3638 H 0.44696 0.35435 0.84929 0.0
C3639 C 0.36199 0.41415 0.83304 0.0
C3640 C 0.39981 0.38845 0.8258 0.0
H3641 H 0.41934 0.35198 0.8197 0.0
C3642 C 0.41331 0.39772 0.83111 0.0
C3643 C 0.40183 0.37164 0.82217 0.0
C3644 C 0.38757 0.36104 0.81703 0.0
C3645 C 0.42902 0.39078 0.83203 0.0
C3646 C 0.43116 0.37422 0.82759 0.0
C3647 C 0.41756 0.36472 0.82306 0.0
C3648 C 0.44762 0.36699 0.82603 0.0
C3649 C 0.44338 0.40125 0.83714 0.0
C3650 C 0.4567 0.36983 0.81175 0.0
C3651 C 0.47177 0.36209 0.80946 0.0
C3652 C 0.47804 0.35143 0.82146 0.0
C3653 C 0.46911 0.34902 0.83602 0.0
C3654 C 0.45391 0.35667 0.83823 0.0
H3655 H 0.4394 0.41321 0.84229 0.0
H3656 H 0.45092 0.39471 0.8464 0.0
H3657 H 0.4513 0.40362 0.82633 0.0
H3658 H 0.45194 0.37777 0.80222 0.0
H3659 H 0.47838 0.36426 0.79815 0.0
H3660 H 0.56233 0.35532 0.84269 0.0
H3661 H 0.58132 0.37781 0.84872 0.0
H3662 H 0.58551 0.38823 0.7971 0.0
H3663 H 0.56675 0.36579 0.79091 0.0
H3664 H 0.61596 0.389 0.81511 0.0
H3665 H 0.56639 0.42626 0.84391 0.0
H3666 H 0.5698 0.40596 0.85181 0.0
H3667 H 0.56197 0.40855 0.83143 0.0
C3668 C 0.56743 0.36229 0.83261 0.0
C3669 C 0.56288 0.35888 0.81632 0.0
C3670 C 0.57822 0.37516 0.83609 0.0
C3671 C 0.58459 0.38478 0.82336 0.0
C3672 C 0.58066 0.38095 0.80709 0.0
H3673 H 0.63211 0.47093 0.79543 0.0
H3674 H 0.61989 0.44399 0.79935 0.0
C3675 C 0.56989 0.36814 0.80359 0.0
C3676 C 0.59469 0.39942 0.82677 0.0
H3677 H 0.5918 0.43905 0.83979 0.0
C3678 C 0.61079 0.39987 0.82075 0.0
C3679 C 0.5879 0.41352 0.83423 0.0
C3680 C 0.57054 0.41371 0.84066 0.0
C3681 C 0.62007 0.41433 0.82133 0.0
C3682 C 0.61291 0.42869 0.82783 0.0
C3683 C 0.59719 0.42799 0.83477 0.0
C3684 C 0.62073 0.4449 0.82582 0.0
C3685 C 0.6373 0.41422 0.81457 0.0
C3686 C 0.6248 0.45453 0.83945 0.0
C3687 C 0.63175 0.47006 0.83727 0.0
C3688 C 0.63455 0.47622 0.82141 0.0
C3689 C 0.63019 0.46657 0.80782 0.0
C3690 C 0.62333 0.45109 0.81002 0.0
H3691 H 0.64269 0.40172 0.81494 0.0
H3692 H 0.63701 0.41826 0.80159 0.0
H3693 H 0.64538 0.4227 0.8215 0.0
H3694 H 0.62268 0.44999 0.85175 0.0
H3695 H 0.63494 0.4772 0.84799 0.0
H3696 H 0.50707 0.34584 0.18263 0.0
H3697 H 0.53353 0.3592 0.17894 0.0
H3698 H 0.52904 0.35416 0.12655 0.0
H3699 H 0.5023 0.34083 0.13007 0.0
H3700 H 0.56203 0.34651 0.16275 0.0
H3701 H 0.53807 0.4037 0.13399 0.0
H3702 H 0.52494 0.38967 0.14499 0.0
H3703 H 0.53215 0.38452 0.12488 0.0
C3704 C 0.51162 0.34757 0.17029 0.0
C3705 C 0.50251 0.34233 0.15663 0.0
C3706 C 0.52679 0.35517 0.16822 0.0
C3707 C 0.53314 0.35774 0.15249 0.0
C3708 C 0.52421 0.35244 0.13879 0.0
H3709 H 0.62158 0.41659 0.13434 0.0
H3710 H 0.59881 0.39764 0.12933 0.0
C3711 C 0.50898 0.3448 0.14083 0.0
C3712 C 0.5491 0.36613 0.1507 0.0
H3713 H 0.56625 0.40267 0.1398 0.0
C3714 C 0.56303 0.35871 0.15754 0.0
C3715 C 0.55032 0.38197 0.14379 0.0
C3716 C 0.5356 0.39056 0.13656 0.0
C3717 C 0.57808 0.36699 0.15821 0.0
C3718 C 0.57909 0.38317 0.15212 0.0
C3719 C 0.56538 0.39026 0.14449 0.0
C3720 C 0.59367 0.39354 0.155 0.0
C3721 C 0.59269 0.35848 0.16574 0.0
C3722 C 0.59822 0.3975 0.17108 0.0
C3723 C 0.61112 0.40834 0.17399 0.0
C3724 C 0.61969 0.41549 0.16086 0.0
C3725 C 0.61526 0.41128 0.14473 0.0
C3726 C 0.60227 0.40046 0.14183 0.0
H3727 H 0.59144 0.34494 0.16506 0.0
H3728 H 0.60427 0.36216 0.15959 0.0
H3729 H 0.59357 0.36192 0.17887 0.0
H3730 H 0.5915 0.39254 0.1814 0.0
H3731 H 0.61419 0.41131 0.18656 0.0
H3732 H 0.63421 0.50119 0.13176 0.0
H3733 H 0.62119 0.52816 0.12895 0.0
H3734 H 0.61631 0.53132 0.18144 0.0
H3735 H 0.62928 0.50462 0.18443 0.0
H3736 H 0.5895 0.53797 0.14049 0.0
H3737 H 0.63926 0.57458 0.16877 0.0
H3738 H 0.64238 0.55398 0.16128 0.0
H3739 H 0.63312 0.55734 0.18099 0.0
C3740 C 0.63038 0.50765 0.1427 0.0
C3741 C 0.63286 0.50077 0.15832 0.0
C3742 C 0.62298 0.52304 0.14106 0.0
C3743 C 0.61812 0.53181 0.15501 0.0
C3744 C 0.62033 0.52488 0.17055 0.0
H3745 H 0.56421 0.61364 0.18771 0.0
H3746 H 0.58184 0.58991 0.18317 0.0
C3747 C 0.62766 0.50954 0.17221 0.0
C3748 C 0.61014 0.548 0.15352 0.0
H3749 H 0.61283 0.58743 0.16714 0.0
C3750 C 0.59469 0.5489 0.14602 0.0
C3751 C 0.61702 0.56217 0.16074 0.0
C3752 C 0.63394 0.56205 0.16826 0.0
C3753 C 0.58546 0.56341 0.14642 0.0
C3754 C 0.59204 0.57738 0.15431 0.0
C3755 C 0.60781 0.57666 0.16116 0.0
C3756 C 0.58222 0.59239 0.15679 0.0
C3757 C 0.56841 0.56344 0.13921 0.0
C3758 C 0.57691 0.60184 0.14345 0.0
C3759 C 0.56678 0.61543 0.14598 0.0
C3760 C 0.56186 0.6198 0.16192 0.0
C3761 C 0.56769 0.61059 0.17527 0.0
C3762 C 0.57779 0.59703 0.17272 0.0
H3763 H 0.56408 0.55087 0.13621 0.0
H3764 H 0.55955 0.56913 0.14783 0.0
H3765 H 0.56839 0.57077 0.12776 0.0
H3766 H 0.58045 0.59859 0.13108 0.0
H3767 H 0.5626 0.62232 0.13544 0.0
H3768 H 0.47335 0.63031 0.18428 0.0
H3769 H 0.44666 0.61721 0.18123 0.0
H3770 H 0.45013 0.62181 0.12872 0.0
H3771 H 0.47706 0.63488 0.13159 0.0
H3772 H 0.41815 0.63069 0.16535 0.0
H3773 H 0.43985 0.57255 0.13683 0.0
H3774 H 0.45357 0.58623 0.14753 0.0
H3775 H 0.44628 0.59145 0.12746 0.0
C3776 C 0.46854 0.62849 0.17205 0.0
C3777 C 0.47739 0.63361 0.15817 0.0
C3778 C 0.45324 0.62105 0.17035 0.0
C3779 C 0.44651 0.61849 0.15476 0.0
C3780 C 0.45525 0.62353 0.14084 0.0
H3781 H 0.35658 0.56207 0.13724 0.0
H3782 H 0.37969 0.58058 0.13225 0.0
C3783 C 0.4706 0.63101 0.14252 0.0
C3784 C 0.43028 0.61057 0.15334 0.0
H3785 H 0.41174 0.57462 0.14276 0.0
C3786 C 0.41667 0.61851 0.16024 0.0
C3787 C 0.42844 0.59475 0.14655 0.0
C3788 C 0.44278 0.58563 0.13924 0.0
C3789 C 0.40133 0.61079 0.16104 0.0
C3790 C 0.39969 0.59464 0.15503 0.0
C3791 C 0.41309 0.58701 0.14739 0.0
C3792 C 0.38471 0.58484 0.15791 0.0
C3793 C 0.38709 0.61989 0.16855 0.0
C3794 C 0.37989 0.58118 0.174 0.0
C3795 C 0.36676 0.5706 0.17691 0.0
C3796 C 0.35825 0.5634 0.16377 0.0
C3797 C 0.36286 0.56742 0.14764 0.0
C3798 C 0.37605 0.57798 0.14475 0.0
H3799 H 0.38882 0.63337 0.1677 0.0
H3800 H 0.37534 0.61658 0.16249 0.0
H3801 H 0.38616 0.61662 0.18172 0.0
H3802 H 0.38664 0.58608 0.18433 0.0
H3803 H 0.36356 0.56776 0.18947 0.0
H3804 H 0.41768 0.35642 0.13483 0.0
H3805 H 0.4004 0.38063 0.13065 0.0
H3806 H 0.40027 0.38957 0.18271 0.0
H3807 H 0.41732 0.36541 0.18706 0.0
H3808 H 0.36898 0.39227 0.16722 0.0
H3809 H 0.41755 0.42824 0.13531 0.0
H3810 H 0.41282 0.40833 0.12713 0.0
H3811 H 0.42213 0.41001 0.14698 0.0
C3812 C 0.4139 0.36348 0.1454 0.0
C3813 C 0.41898 0.35904 0.16128 0.0
C3814 C 0.4041 0.37734 0.14297 0.0
C3815 C 0.39929 0.38697 0.15636 0.0
C3816 C 0.40393 0.3823 0.17222 0.0
H3817 H 0.35358 0.47492 0.18544 0.0
H3818 H 0.36706 0.44852 0.18195 0.0
C3819 C 0.4137 0.3685 0.17467 0.0
C3820 C 0.38964 0.40211 0.15404 0.0
H3821 H 0.39252 0.44159 0.14045 0.0
C3822 C 0.37403 0.40301 0.1612 0.0
C3823 C 0.39628 0.41603 0.14611 0.0
C3824 C 0.41315 0.41576 0.13851 0.0
C3825 C 0.36506 0.41765 0.1611 0.0
C3826 C 0.37203 0.43177 0.15386 0.0
C3827 C 0.38729 0.4307 0.14602 0.0
C3828 C 0.36427 0.44802 0.15561 0.0
C3829 C 0.34832 0.41798 0.16899 0.0
C3830 C 0.35876 0.45672 0.14185 0.0
C3831 C 0.35106 0.47192 0.14377 0.0
C3832 C 0.34889 0.47866 0.15949 0.0
C3833 C 0.35492 0.47007 0.17316 0.0
C3834 C 0.36255 0.45492 0.17122 0.0
H3835 H 0.34286 0.40552 0.16968 0.0
H3836 H 0.34947 0.42275 0.18166 0.0
H3837 H 0.33982 0.42611 0.16213 0.0
H3838 H 0.36015 0.45161 0.12968 0.0
H3839 H 0.34661 0.47825 0.13298 0.0
H3840 H 0.84716 0.50105 0.63082 0.0
H3841 H 0.85085 0.52781 0.61753 0.0
H3842 H 0.79858 0.53151 0.61038 0.0
H3843 H 0.79471 0.50502 0.62354 0.0
H3844 H 0.83972 0.53832 0.58491 0.0
H3845 H 0.81176 0.57407 0.63544 0.0
H3846 H 0.81934 0.55343 0.63814 0.0
H3847 H 0.7996 0.5569 0.62892 0.0
C3848 C 0.83646 0.50754 0.62635 0.0
C3849 C 0.82063 0.50094 0.62836 0.0
C3850 C 0.83861 0.5228 0.6188 0.0
C3851 C 0.82495 0.5317 0.6133 0.0
C3852 C 0.80923 0.52494 0.61486 0.0
H3853 H 0.79284 0.6152 0.56231 0.0
H3854 H 0.79754 0.59095 0.57913 0.0
C3855 C 0.80707 0.50974 0.62232 0.0
C3856 C 0.82686 0.54803 0.60576 0.0
H3857 H 0.81389 0.58759 0.60949 0.0
C3858 C 0.83438 0.5492 0.59036 0.0
C3859 C 0.8199 0.56214 0.61301 0.0
C3860 C 0.81232 0.56166 0.62987 0.0
C3861 C 0.83418 0.56397 0.58152 0.0
C3862 C 0.82649 0.57788 0.58845 0.0
C3863 C 0.81971 0.57687 0.6042 0.0
C3864 C 0.824 0.59313 0.57899 0.0
C3865 C 0.84135 0.56432 0.56448 0.0
C3866 C 0.83733 0.60258 0.57364 0.0
C3867 C 0.8347 0.61648 0.56395 0.0
C3868 C 0.81867 0.62117 0.55954 0.0
C3869 C 0.80534 0.61193 0.56541 0.0
C3870 C 0.80799 0.59806 0.57505 0.0
H3871 H 0.8442 0.55183 0.55986 0.0
H3872 H 0.83275 0.57033 0.5558 0.0
H3873 H 0.8529 0.57152 0.5646 0.0
H3874 H 0.84976 0.59912 0.57681 0.0
H3875 H 0.84524 0.62338 0.55972 0.0
H3876 H 0.79274 0.47018 0.34766 0.0
H3877 H 0.79645 0.44373 0.36096 0.0
H3878 H 0.84889 0.44794 0.35536 0.0
H3879 H 0.84536 0.47468 0.34208 0.0
H3880 H 0.81221 0.41521 0.34815 0.0
H3881 H 0.84206 0.4388 0.40488 0.0
H3882 H 0.83102 0.45203 0.39099 0.0
H3883 H 0.85104 0.44466 0.38562 0.0
C3884 C 0.8051 0.46557 0.34926 0.0
C3885 C 0.81877 0.47461 0.34387 0.0
C3886 C 0.80717 0.4504 0.35683 0.0
C3887 C 0.82293 0.44397 0.35923 0.0
C3888 C 0.83664 0.45283 0.35378 0.0
H3889 H 0.8426 0.35525 0.41689 0.0
H3890 H 0.84691 0.3783 0.39815 0.0
C3891 C 0.83458 0.46807 0.34617 0.0
C3892 C 0.82473 0.428 0.36756 0.0
H3893 H 0.83632 0.41063 0.40378 0.0
C3894 C 0.81766 0.41414 0.36023 0.0
C3895 C 0.83193 0.42668 0.38326 0.0
C3896 C 0.83938 0.44131 0.39177 0.0
C3897 C 0.81711 0.39906 0.36844 0.0
C3898 C 0.82357 0.39794 0.38447 0.0
C3899 C 0.83136 0.41158 0.39148 0.0
C3900 C 0.82106 0.38323 0.39475 0.0
C3901 C 0.80938 0.38453 0.36001 0.0
C3902 C 0.8051 0.37846 0.39904 0.0
C3903 C 0.80258 0.36538 0.40976 0.0
C3904 C 0.81599 0.35686 0.41646 0.0
C3905 C 0.83199 0.36153 0.41193 0.0
C3906 C 0.83449 0.37468 0.40123 0.0
H3907 H 0.80971 0.38589 0.34647 0.0
H3908 H 0.81566 0.37295 0.36343 0.0
H3909 H 0.79633 0.38359 0.36378 0.0
H3910 H 0.79457 0.38513 0.39443 0.0
H3911 H 0.7901 0.36214 0.413 0.0
H3912 H 0.50261 0.79234 0.34908 0.0
H3913 H 0.52864 0.79371 0.36373 0.0
H3914 H 0.52899 0.84632 0.35863 0.0
H3915 H 0.50276 0.84514 0.34402 0.0
H3916 H 0.55828 0.80695 0.35108 0.0
H3917 H 0.53792 0.8386 0.40795 0.0
H3918 H 0.52369 0.82882 0.39409 0.0
H3919 H 0.53251 0.8483 0.38891 0.0
C3920 C 0.50811 0.80425 0.35116 0.0
C3921 C 0.50059 0.81864 0.34536 0.0
C3922 C 0.52301 0.80499 0.35952 0.0
C3923 C 0.53065 0.82011 0.36233 0.0
C3924 C 0.52314 0.83455 0.35677 0.0
H3925 H 0.62188 0.83911 0.41544 0.0
H3926 H 0.59769 0.84254 0.39799 0.0
C3927 C 0.50819 0.83383 0.34838 0.0
C3928 C 0.54679 0.82053 0.37057 0.0
H3929 H 0.56606 0.83237 0.40572 0.0
C3930 C 0.56003 0.81258 0.363 0.0
C3931 C 0.549 0.82798 0.38604 0.0
C3932 C 0.53503 0.83633 0.39484 0.0
C3933 C 0.57542 0.81166 0.3706 0.0
C3934 C 0.57751 0.81866 0.3863 0.0
C3935 C 0.5644 0.82703 0.39367 0.0
C3936 C 0.59286 0.81657 0.39574 0.0
C3937 C 0.5893 0.80321 0.36176 0.0
C3938 C 0.59815 0.80083 0.40019 0.0
C3939 C 0.61195 0.79881 0.4101 0.0
C3940 C 0.62065 0.81252 0.41589 0.0
C3941 C 0.61548 0.82829 0.41117 0.0
C3942 C 0.60166 0.83029 0.40123 0.0
H3943 H 0.58726 0.80306 0.3483 0.0
H3944 H 0.60122 0.80929 0.36432 0.0
H3945 H 0.59009 0.79031 0.366 0.0
H3946 H 0.59132 0.7901 0.39637 0.0
H3947 H 0.61552 0.7865 0.41356 0.0
H3948 H 0.14042 0.62307 0.41706 0.0
H3949 H 0.13585 0.59951 0.39907 0.0
H3950 H 0.18788 0.58997 0.39825 0.0
H3951 H 0.19264 0.61352 0.41605 0.0
H3952 H 0.17187 0.58783 0.36705 0.0
H3953 H 0.14029 0.55169 0.41565 0.0
H3954 H 0.13218 0.57173 0.41136 0.0
H3955 H 0.15225 0.56974 0.42021 0.0
C3956 C 0.15091 0.61604 0.41296 0.0
C3957 C 0.16689 0.62009 0.41811 0.0
C3958 C 0.14826 0.60255 0.40274 0.0
C3959 C 0.16151 0.59291 0.39758 0.0
C3960 C 0.1775 0.59726 0.40219 0.0
H3961 H 0.18718 0.50481 0.34946 0.0
H3962 H 0.18507 0.53145 0.3627 0.0
C3963 C 0.18017 0.61071 0.41239 0.0
C3964 C 0.15886 0.57793 0.38777 0.0
H3965 H 0.14437 0.53876 0.39027 0.0
C3966 C 0.16571 0.57715 0.37204 0.0
C3967 C 0.15075 0.56408 0.39434 0.0
C3968 C 0.14352 0.5642 0.41135 0.0
C3969 C 0.16503 0.56268 0.36281 0.0
C3970 C 0.15756 0.54862 0.36966 0.0
C3971 C 0.1501 0.5496 0.3851 0.0
C3972 C 0.15856 0.53246 0.36157 0.0
C3973 C 0.17248 0.56252 0.3459 0.0
C3974 C 0.1443 0.52397 0.35705 0.0
C3975 C 0.14544 0.50861 0.34954 0.0
C3976 C 0.16088 0.50148 0.34657 0.0
C3977 C 0.1751 0.50995 0.35144 0.0
C3978 C 0.17393 0.52525 0.35891 0.0
H3979 H 0.1731 0.57506 0.3406 0.0
H3980 H 0.18519 0.55769 0.34665 0.0
H3981 H 0.16536 0.55455 0.33747 0.0
H3982 H 0.13232 0.5293 0.35919 0.0
H3983 H 0.13425 0.50239 0.34597 0.0
H3984 H 0.47217 0.18594 0.34189 0.0
H3985 H 0.44642 0.18296 0.35675 0.0
H3986 H 0.45436 0.13085 0.36058 0.0
H3987 H 0.48034 0.13367 0.34569 0.0
H3988 H 0.41853 0.16247 0.34844 0.0
H3989 H 0.44708 0.14731 0.40863 0.0
H3990 H 0.4585 0.15675 0.39218 0.0
H3991 H 0.45341 0.13538 0.3912 0.0
C3992 C 0.46851 0.17382 0.34588 0.0
C3993 C 0.47838 0.16004 0.34269 0.0
C3994 C 0.45375 0.17215 0.35432 0.0
C3995 C 0.44861 0.15672 0.35983 0.0
C3996 C 0.45826 0.14288 0.35654 0.0
H3997 H 0.35966 0.13744 0.41727 0.0
H3998 H 0.38329 0.13333 0.39917 0.0
C3999 C 0.47305 0.14452 0.348 0.0
C4000 C 0.4332 0.15538 0.36922 0.0
H4001 H 0.41831 0.14955 0.40785 0.0
C4002 C 0.41842 0.15946 0.36138 0.0
C4003 C 0.4332 0.15151 0.3861 0.0
C4004 C 0.44887 0.14758 0.39514 0.0
C4005 C 0.40364 0.16011 0.37013 0.0
C4006 C 0.40374 0.15669 0.38706 0.0
C4007 C 0.41838 0.15209 0.39481 0.0
C4008 C 0.38901 0.15911 0.39721 0.0
C4009 C 0.38803 0.16478 0.36138 0.0
C4010 C 0.38453 0.17498 0.40196 0.0
C4011 C 0.37116 0.1774 0.41234 0.0
C4012 C 0.36203 0.16395 0.41811 0.0
C4013 C 0.36643 0.14806 0.41304 0.0
C4014 C 0.3799 0.14566 0.40273 0.0
H4015 H 0.38957 0.16486 0.34785 0.0
H4016 H 0.37802 0.15614 0.36465 0.0
H4017 H 0.38419 0.17721 0.36535 0.0
H4018 H 0.39156 0.18548 0.39784 0.0
H4019 H 0.36811 0.1898 0.41599 0.0
H4020 H 0.18631 0.47499 0.62851 0.0
H4021 H 0.18495 0.44963 0.61282 0.0
H4022 H 0.13224 0.44929 0.61735 0.0
H4023 H 0.13342 0.47476 0.63324 0.0
H4024 H 0.14843 0.41861 0.62462 0.0
H4025 H 0.16809 0.44515 0.5652 0.0
H4026 H 0.18131 0.45028 0.58204 0.0
H4027 H 0.16049 0.45756 0.58187 0.0
C4028 C 0.17439 0.4696 0.62617 0.0
C4029 C 0.15995 0.47695 0.63208 0.0
C4030 C 0.17365 0.45514 0.61713 0.0
C4031 C 0.15849 0.44777 0.61377 0.0
C4032 C 0.14405 0.45491 0.61977 0.0
H4033 H 0.13967 0.35598 0.56137 0.0
H4034 H 0.13595 0.38084 0.57772 0.0
C4035 C 0.14475 0.46945 0.6288 0.0
C4036 C 0.15793 0.43242 0.60424 0.0
H4037 H 0.16897 0.41602 0.56746 0.0
C4038 C 0.1527 0.41801 0.61205 0.0
C4039 C 0.16349 0.43179 0.58786 0.0
C4040 C 0.16853 0.44704 0.57867 0.0
C4041 C 0.1536 0.40279 0.60409 0.0
C4042 C 0.15969 0.40212 0.5879 0.0
C4043 C 0.16442 0.41661 0.57994 0.0
C4044 C 0.16185 0.38647 0.57909 0.0
C4045 C 0.14866 0.3875 0.61323 0.0
C4046 C 0.17764 0.38148 0.57448 0.0
C4047 C 0.17982 0.36736 0.56512 0.0
C4048 C 0.16622 0.35802 0.5601 0.0
C4049 C 0.15041 0.36287 0.56506 0.0
C4050 C 0.14825 0.37703 0.57445 0.0
H4051 H 0.14719 0.38976 0.62656 0.0
H4052 H 0.13678 0.38299 0.60835 0.0
H4053 H 0.15791 0.37767 0.61145 0.0
H4054 H 0.18827 0.38867 0.57794 0.0
H4055 H 0.19216 0.36399 0.56154 0.0
H4056 H 0.62058 0.13503 0.55662 0.0
H4057 H 0.59687 0.12995 0.57433 0.0
H4058 H 0.59058 0.18198 0.58101 0.0
H4059 H 0.6142 0.18725 0.56335 0.0
H4060 H 0.58981 0.15976 0.61109 0.0
H4061 H 0.54789 0.14226 0.55997 0.0
H4062 H 0.56806 0.13326 0.56074 0.0
H4063 H 0.5659 0.15472 0.55661 0.0
C4064 C 0.61421 0.14541 0.56191 0.0
C4065 C 0.61924 0.16157 0.55851 0.0
C4066 C 0.60066 0.14246 0.57198 0.0
C4067 C 0.592 0.1556 0.57882 0.0
C4068 C 0.59716 0.1717 0.57578 0.0
H4069 H 0.50982 0.18185 0.63525 0.0
H4070 H 0.53585 0.17868 0.62097 0.0
C4071 C 0.61063 0.17468 0.56566 0.0
C4072 C 0.57731 0.15273 0.58895 0.0
H4073 H 0.5365 0.14382 0.58636 0.0
C4074 C 0.57818 0.15609 0.60576 0.0
C4075 C 0.56226 0.14783 0.58189 0.0
C4076 C 0.5608 0.14434 0.5638 0.0
C4077 C 0.56418 0.15512 0.61568 0.0
C4078 C 0.54895 0.15101 0.60847 0.0
C4079 C 0.54823 0.14696 0.5918 0.0
C4080 C 0.53342 0.15249 0.61765 0.0
C4081 C 0.56572 0.15878 0.63373 0.0
C4082 C 0.52331 0.13882 0.62022 0.0
C4083 C 0.50834 0.14057 0.62841 0.0
C4084 C 0.50319 0.15609 0.63391 0.0
C4085 C 0.51338 0.16973 0.63119 0.0
C4086 C 0.52833 0.16794 0.62313 0.0
H4087 H 0.57849 0.15697 0.63812 0.0
H4088 H 0.56232 0.17177 0.63595 0.0
H4089 H 0.55737 0.15089 0.64104 0.0
H4090 H 0.52702 0.12682 0.6159 0.0
H4091 H 0.50074 0.12984 0.63026 0.0
H4092 H 0.47843 0.84676 0.6338 0.0
H4093 H 0.45211 0.85112 0.61988 0.0
H4094 H 0.44444 0.79887 0.61789 0.0
H4095 H 0.47047 0.79435 0.63179 0.0
H4096 H 0.44277 0.83893 0.58871 0.0
H4097 H 0.40137 0.81624 0.63743 0.0
H4098 H 0.42241 0.82206 0.64135 0.0
H4099 H 0.41772 0.80219 0.633 0.0
C4100 C 0.47109 0.8362 0.63048 0.0
C4101 C 0.47653 0.8202 0.63396 0.0
C4102 C 0.45608 0.83873 0.62256 0.0
C4103 C 0.44625 0.82532 0.61817 0.0
C4104 C 0.45169 0.80938 0.62153 0.0
H4105 H 0.36756 0.7935 0.56067 0.0
H4106 H 0.39047 0.79849 0.57923 0.0
C4107 C 0.46665 0.80684 0.62938 0.0
C4108 C 0.43065 0.82769 0.60927 0.0
H4109 H 0.39032 0.81657 0.61004 0.0
C4110 C 0.43119 0.8344 0.59346 0.0
C4111 C 0.41562 0.82181 0.6156 0.0
C4112 C 0.41417 0.81532 0.63285 0.0
C4113 C 0.41727 0.83432 0.58334 0.0
C4114 C 0.40249 0.82754 0.58935 0.0
C4115 C 0.40174 0.82167 0.60548 0.0
C4116 C 0.38819 0.8249 0.57858 0.0
C4117 C 0.4187 0.84058 0.566 0.0
C4118 C 0.37923 0.83813 0.57226 0.0
C4119 C 0.36608 0.83533 0.56161 0.0
C4120 C 0.36173 0.81924 0.55714 0.0
C4121 C 0.37061 0.80604 0.56378 0.0
C4122 C 0.38368 0.80885 0.57443 0.0
H4123 H 0.43159 0.84339 0.56258 0.0
H4124 H 0.41373 0.83142 0.55725 0.0
H4125 H 0.41135 0.85196 0.56469 0.0
H4126 H 0.38245 0.85059 0.57552 0.0
H4127 H 0.35946 0.84577 0.55677 0.0
loop_
_geom_bond_atom_site_label_1
_geom_bond_atom_site_label_2
_geom_bond_distance
_geom_bond_site_symmetry_2
_ccdc_geom_bond_type
C0 O1 1.306 . S
C0 O3 1.160 . S
O1 C0 1.306 . S
O1 Cd2 2.228 . S
Cd2 O1 2.228 . S
Cd2 O6 2.273 . S
Cd2 O10 2.277 . S
O3 C0 1.160 . S
O3 Cd4 2.203 . S
Cd4 O3 2.203 . S
Cd4 O6 2.411 . S
Cd4 O7 2.333 . S
Cd4 O8 2.352 . S
Cd4 O12 2.277 . S
Cd4 O13 2.356 . S
C5 O10 1.209 . S
C5 O12 1.226 . S
O6 Cd2 2.273 . S
O6 Cd4 2.411 . S
O6 C9 1.320 . S
O7 Cd4 2.333 . S
O7 C9 1.214 . S
O8 Cd4 2.352 . S
O8 C11 1.258 . S
C9 O6 1.320 . S
C9 O7 1.214 . S
O10 Cd2 2.277 . S
O10 C5 1.209 . S
C11 O8 1.258 . S
C11 O13 1.282 . S
O12 Cd4 2.277 . S
O12 C5 1.226 . S
O13 Cd4 2.356 . S
O13 C11 1.282 . S
C14 O15 1.306 . S
C14 O17 1.160 . S
O15 C14 1.306 . S
O15 Cd16 2.228 . S
Cd16 O15 2.228 . S
Cd16 O20 2.273 . S
Cd16 O24 2.277 . S
O17 C14 1.160 . S
O17 Cd18 2.203 . S
Cd18 O17 2.203 . S
Cd18 O20 2.411 . S
Cd18 O21 2.333 . S
Cd18 O22 2.352 . S
Cd18 O26 2.277 . S
Cd18 O27 2.356 . S
C19 O24 1.209 . S
C19 O26 1.226 . S
O20 Cd16 2.273 . S
O20 Cd18 2.411 . S
O20 C23 1.320 . S
O21 Cd18 2.333 . S
O21 C23 1.214 . S
O22 Cd18 2.352 . S
O22 C25 1.258 . S
C23 O20 1.320 . S
C23 O21 1.214 . S
O24 Cd16 2.277 . S
O24 C19 1.209 . S
C25 O22 1.258 . S
C25 O27 1.282 . S
O26 Cd18 2.277 . S
O26 C19 1.226 . S
O27 Cd18 2.356 . S
O27 C25 1.282 . S
C28 O29 1.306 . S
C28 O31 1.160 . S
O29 C28 1.306 . S
O29 Cd30 2.228 . S
Cd30 O29 2.228 . S
Cd30 O34 2.273 . S
Cd30 O38 2.277 . S
O31 C28 1.160 . S
O31 Cd32 2.203 . S
Cd32 O31 2.203 . S
Cd32 O34 2.411 . S
Cd32 O35 2.333 . S
Cd32 O36 2.352 . S
Cd32 O40 2.277 . S
Cd32 O41 2.356 . S
C33 O38 1.209 . S
C33 O40 1.226 . S
O34 Cd30 2.273 . S
O34 Cd32 2.411 . S
O34 C37 1.320 . S
O35 Cd32 2.333 . S
O35 C37 1.214 . S
O36 Cd32 2.352 . S
O36 C39 1.258 . S
C37 O34 1.320 . S
C37 O35 1.214 . S
O38 Cd30 2.277 . S
O38 C33 1.209 . S
C39 O36 1.258 . S
C39 O41 1.282 . S
O40 Cd32 2.277 . S
O40 C33 1.226 . S
O41 Cd32 2.356 . S
O41 C39 1.282 . S
C42 O43 1.306 . S
C42 O45 1.160 . S
O43 C42 1.306 . S
O43 Cd44 2.228 . S
Cd44 O43 2.228 . S
Cd44 O48 2.273 . S
Cd44 O52 2.277 . S
O45 C42 1.160 . S
O45 Cd46 2.203 . S
Cd46 O45 2.203 . S
Cd46 O48 2.411 . S
Cd46 O49 2.333 . S
Cd46 O50 2.352 . S
Cd46 O54 2.277 . S
Cd46 O55 2.356 . S
C47 O52 1.209 . S
C47 O54 1.226 . S
O48 Cd44 2.273 . S
O48 Cd46 2.411 . S
O48 C51 1.320 . S
O49 Cd46 2.333 . S
O49 C51 1.214 . S
O50 Cd46 2.352 . S
O50 C53 1.258 . S
C51 O48 1.320 . S
C51 O49 1.214 . S
O52 Cd44 2.277 . S
O52 C47 1.209 . S
C53 O50 1.258 . S
C53 O55 1.282 . S
O54 Cd46 2.277 . S
O54 C47 1.226 . S
O55 Cd46 2.356 . S
O55 C53 1.282 . S
C56 O57 1.306 . S
C56 O59 1.160 . S
O57 C56 1.306 . S
O57 Cd58 2.228 . S
Cd58 O57 2.228 . S
Cd58 O62 2.273 . S
Cd58 O66 2.277 . S
O59 C56 1.160 . S
O59 Cd60 2.203 . S
Cd60 O59 2.203 . S
Cd60 O62 2.411 . S
Cd60 O63 2.333 . S
Cd60 O64 2.352 . S
Cd60 O68 2.277 . S
Cd60 O69 2.356 . S
C61 O66 1.209 . S
C61 O68 1.226 . S
O62 Cd58 2.273 . S
O62 Cd60 2.411 . S
O62 C65 1.320 . S
O63 Cd60 2.333 . S
O63 C65 1.214 . S
O64 Cd60 2.352 . S
O64 C67 1.258 . S
C65 O62 1.320 . S
C65 O63 1.214 . S
O66 Cd58 2.277 . S
O66 C61 1.209 . S
C67 O64 1.258 . S
C67 O69 1.282 . S
O68 Cd60 2.277 . S
O68 C61 1.226 . S
O69 Cd60 2.356 . S
O69 C67 1.282 . S
C70 O71 1.306 . S
C70 O73 1.160 . S
O71 C70 1.306 . S
O71 Cd72 2.228 . S
Cd72 O71 2.228 . S
Cd72 O76 2.273 . S
Cd72 O80 2.277 . S
O73 C70 1.160 . S
O73 Cd74 2.203 . S
Cd74 O73 2.203 . S
Cd74 O76 2.411 . S
Cd74 O77 2.333 . S
Cd74 O78 2.352 . S
Cd74 O82 2.277 . S
Cd74 O83 2.356 . S
C75 O80 1.209 . S
C75 O82 1.226 . S
O76 Cd72 2.273 . S
O76 Cd74 2.411 . S
O76 C79 1.320 . S
O77 Cd74 2.333 . S
O77 C79 1.214 . S
O78 Cd74 2.352 . S
O78 C81 1.258 . S
C79 O76 1.320 . S
C79 O77 1.214 . S
O80 Cd72 2.277 . S
O80 C75 1.209 . S
C81 O78 1.258 . S
C81 O83 1.282 . S
O82 Cd74 2.277 . S
O82 C75 1.226 . S
O83 Cd74 2.356 . S
O83 C81 1.282 . S
C84 O85 1.306 . S
C84 O87 1.160 . S
O85 C84 1.306 . S
O85 Cd86 2.228 . S
Cd86 O85 2.228 . S
Cd86 O90 2.273 . S
Cd86 O94 2.277 . S
O87 C84 1.160 . S
O87 Cd88 2.203 . S
Cd88 O87 2.203 . S
Cd88 O90 2.411 . S
Cd88 O91 2.333 . S
Cd88 O92 2.352 . S
Cd88 O96 2.277 . S
Cd88 O97 2.356 . S
C89 O94 1.209 . S
C89 O96 1.226 . S
O90 Cd86 2.273 . S
O90 Cd88 2.411 . S
O90 C93 1.320 . S
O91 Cd88 2.333 . S
O91 C93 1.214 . S
O92 Cd88 2.352 . S
O92 C95 1.258 . S
C93 O90 1.320 . S
C93 O91 1.214 . S
O94 Cd86 2.277 . S
O94 C89 1.209 . S
C95 O92 1.258 . S
C95 O97 1.282 . S
O96 Cd88 2.277 . S
O96 C89 1.226 . S
O97 Cd88 2.356 . S
O97 C95 1.282 . S
C98 O99 1.306 . S
C98 O101 1.160 . S
O99 C98 1.306 . S
O99 Cd100 2.228 . S
Cd100 O99 2.228 . S
Cd100 O104 2.273 . S
Cd100 O108 2.277 . S
O101 C98 1.160 . S
O101 Cd102 2.203 . S
Cd102 O101 2.203 . S
Cd102 O104 2.411 . S
Cd102 O105 2.333 . S
Cd102 O106 2.352 . S
Cd102 O110 2.277 . S
Cd102 O111 2.356 . S
C103 O108 1.209 . S
C103 O110 1.226 . S
O104 Cd100 2.273 . S
O104 Cd102 2.411 . S
O104 C107 1.320 . S
O105 Cd102 2.333 . S
O105 C107 1.214 . S
O106 Cd102 2.352 . S
O106 C109 1.258 . S
C107 O104 1.320 . S
C107 O105 1.214 . S
O108 Cd100 2.277 . S
O108 C103 1.209 . S
C109 O106 1.258 . S
C109 O111 1.282 . S
O110 Cd102 2.277 . S
O110 C103 1.226 . S
O111 Cd102 2.356 . S
O111 C109 1.282 . S
C112 O113 1.306 . S
C112 O115 1.160 . S
O113 C112 1.306 . S
O113 Cd114 2.228 . S
Cd114 O113 2.228 . S
Cd114 O118 2.273 . S
Cd114 O122 2.277 . S
O115 C112 1.160 . S
O115 Cd116 2.203 . S
Cd116 O115 2.203 . S
Cd116 O118 2.411 . S
Cd116 O119 2.333 . S
Cd116 O120 2.352 . S
Cd116 O124 2.277 . S
Cd116 O125 2.356 . S
C117 O122 1.209 . S
C117 O124 1.226 . S
O118 Cd114 2.273 . S
O118 Cd116 2.411 . S
O118 C121 1.320 . S
O119 Cd116 2.333 . S
O119 C121 1.214 . S
O120 Cd116 2.352 . S
O120 C123 1.258 . S
C121 O118 1.320 . S
C121 O119 1.214 . S
O122 Cd114 2.277 . S
O122 C117 1.209 . S
C123 O120 1.258 . S
C123 O125 1.282 . S
O124 Cd116 2.277 . S
O124 C117 1.226 . S
O125 Cd116 2.356 . S
O125 C123 1.282 . S
C126 O127 1.306 . S
C126 O129 1.160 . S
O127 C126 1.306 . S
O127 Cd128 2.228 . S
Cd128 O127 2.228 . S
Cd128 O132 2.273 . S
Cd128 O136 2.277 . S
O129 C126 1.160 . S
O129 Cd130 2.203 . S
Cd130 O129 2.203 . S
Cd130 O132 2.411 . S
Cd130 O133 2.333 . S
Cd130 O134 2.352 . S
Cd130 O138 2.277 . S
Cd130 O139 2.356 . S
C131 O136 1.209 . S
C131 O138 1.226 . S
O132 Cd128 2.273 . S
O132 Cd130 2.411 . S
O132 C135 1.320 . S
O133 Cd130 2.333 . S
O133 C135 1.214 . S
O134 Cd130 2.352 . S
O134 C137 1.258 . S
C135 O132 1.320 . S
C135 O133 1.214 . S
O136 Cd128 2.277 . S
O136 C131 1.209 . S
C137 O134 1.258 . S
C137 O139 1.282 . S
O138 Cd130 2.277 . S
O138 C131 1.226 . S
O139 Cd130 2.356 . S
O139 C137 1.282 . S
C140 O141 1.306 . S
C140 O143 1.160 . S
O141 C140 1.306 . S
O141 Cd142 2.228 . S
Cd142 O141 2.228 . S
Cd142 O146 2.273 . S
Cd142 O150 2.277 . S
O143 C140 1.160 . S
O143 Cd144 2.203 . S
Cd144 O143 2.203 . S
Cd144 O146 2.411 . S
Cd144 O147 2.333 . S
Cd144 O148 2.352 . S
Cd144 O152 2.277 . S
Cd144 O153 2.356 . S
C145 O150 1.209 . S
C145 O152 1.226 . S
O146 Cd142 2.273 . S
O146 Cd144 2.411 . S
O146 C149 1.320 . S
O147 Cd144 2.333 . S
O147 C149 1.214 . S
O148 Cd144 2.352 . S
O148 C151 1.258 . S
C149 O146 1.320 . S
C149 O147 1.214 . S
O150 Cd142 2.277 . S
O150 C145 1.209 . S
C151 O148 1.258 . S
C151 O153 1.282 . S
O152 Cd144 2.277 . S
O152 C145 1.226 . S
O153 Cd144 2.356 . S
O153 C151 1.282 . S
C154 O155 1.306 . S
C154 O157 1.160 . S
O155 C154 1.306 . S
O155 Cd156 2.228 . S
Cd156 O155 2.228 . S
Cd156 O160 2.273 . S
Cd156 O164 2.277 . S
O157 C154 1.160 . S
O157 Cd158 2.203 . S
Cd158 O157 2.203 . S
Cd158 O160 2.411 . S
Cd158 O161 2.333 . S
Cd158 O162 2.352 . S
Cd158 O166 2.277 . S
Cd158 O167 2.356 . S
C159 O164 1.209 . S
C159 O166 1.226 . S
O160 Cd156 2.273 . S
O160 Cd158 2.411 . S
O160 C163 1.320 . S
O161 Cd158 2.333 . S
O161 C163 1.214 . S
O162 Cd158 2.352 . S
O162 C165 1.258 . S
C163 O160 1.320 . S
C163 O161 1.214 . S
O164 Cd156 2.277 . S
O164 C159 1.209 . S
C165 O162 1.258 . S
C165 O167 1.282 . S
O166 Cd158 2.277 . S
O166 C159 1.226 . S
O167 Cd158 2.356 . S
O167 C165 1.282 . S
C168 O169 1.306 . S
C168 O171 1.160 . S
O169 C168 1.306 . S
O169 Cd170 2.228 . S
Cd170 O169 2.228 . S
Cd170 O174 2.273 . S
Cd170 O178 2.277 . S
O171 C168 1.160 . S
O171 Cd172 2.203 . S
Cd172 O171 2.203 . S
Cd172 O174 2.411 . S
Cd172 O175 2.333 . S
Cd172 O176 2.352 . S
Cd172 O180 2.277 . S
Cd172 O181 2.356 . S
C173 O178 1.209 . S
C173 O180 1.226 . S
O174 Cd170 2.273 . S
O174 Cd172 2.411 . S
O174 C177 1.320 . S
O175 Cd172 2.333 . S
O175 C177 1.214 . S
O176 Cd172 2.352 . S
O176 C179 1.258 . S
C177 O174 1.320 . S
C177 O175 1.214 . S
O178 Cd170 2.277 . S
O178 C173 1.209 . S
C179 O176 1.258 . S
C179 O181 1.282 . S
O180 Cd172 2.277 . S
O180 C173 1.226 . S
O181 Cd172 2.356 . S
O181 C179 1.282 . S
C182 O183 1.306 . S
C182 O185 1.160 . S
O183 C182 1.306 . S
O183 Cd184 2.228 . S
Cd184 O183 2.228 . S
Cd184 O188 2.273 . S
Cd184 O192 2.277 . S
O185 C182 1.160 . S
O185 Cd186 2.203 . S
Cd186 O185 2.203 . S
Cd186 O188 2.411 . S
Cd186 O189 2.333 . S
Cd186 O190 2.352 . S
Cd186 O194 2.277 . S
Cd186 O195 2.356 . S
C187 O192 1.209 . S
C187 O194 1.226 . S
O188 Cd184 2.273 . S
O188 Cd186 2.411 . S
O188 C191 1.320 . S
O189 Cd186 2.333 . S
O189 C191 1.214 . S
O190 Cd186 2.352 . S
O190 C193 1.258 . S
C191 O188 1.320 . S
C191 O189 1.214 . S
O192 Cd184 2.277 . S
O192 C187 1.209 . S
C193 O190 1.258 . S
C193 O195 1.282 . S
O194 Cd186 2.277 . S
O194 C187 1.226 . S
O195 Cd186 2.356 . S
O195 C193 1.282 . S
C196 O197 1.306 . S
C196 O199 1.160 . S
O197 C196 1.306 . S
O197 Cd198 2.228 . S
Cd198 O197 2.228 . S
Cd198 O202 2.273 . S
Cd198 O206 2.277 . S
O199 C196 1.160 . S
O199 Cd200 2.203 . S
Cd200 O199 2.203 . S
Cd200 O202 2.411 . S
Cd200 O203 2.333 . S
Cd200 O204 2.352 . S
Cd200 O208 2.277 . S
Cd200 O209 2.356 . S
C201 O206 1.209 . S
C201 O208 1.226 . S
O202 Cd198 2.273 . S
O202 Cd200 2.411 . S
O202 C205 1.320 . S
O203 Cd200 2.333 . S
O203 C205 1.214 . S
O204 Cd200 2.352 . S
O204 C207 1.258 . S
C205 O202 1.320 . S
C205 O203 1.214 . S
O206 Cd198 2.277 . S
O206 C201 1.209 . S
C207 O204 1.258 . S
C207 O209 1.282 . S
O208 Cd200 2.277 . S
O208 C201 1.226 . S
O209 Cd200 2.356 . S
O209 C207 1.282 . S
C210 O211 1.306 . S
C210 O213 1.160 . S
O211 C210 1.306 . S
O211 Cd212 2.228 . S
Cd212 O211 2.228 . S
Cd212 O216 2.273 . S
Cd212 O220 2.277 . S
O213 C210 1.160 . S
O213 Cd214 2.203 . S
Cd214 O213 2.203 . S
Cd214 O216 2.411 . S
Cd214 O217 2.333 . S
Cd214 O218 2.352 . S
Cd214 O222 2.277 . S
Cd214 O223 2.356 . S
C215 O220 1.209 . S
C215 O222 1.226 . S
O216 Cd212 2.273 . S
O216 Cd214 2.411 . S
O216 C219 1.320 . S
O217 Cd214 2.333 . S
O217 C219 1.214 . S
O218 Cd214 2.352 . S
O218 C221 1.258 . S
C219 O216 1.320 . S
C219 O217 1.214 . S
O220 Cd212 2.277 . S
O220 C215 1.209 . S
C221 O218 1.258 . S
C221 O223 1.282 . S
O222 Cd214 2.277 . S
O222 C215 1.226 . S
O223 Cd214 2.356 . S
O223 C221 1.282 . S
C224 O225 1.306 . S
C224 O227 1.160 . S
O225 C224 1.306 . S
O225 Cd226 2.228 . S
Cd226 O225 2.228 . S
Cd226 O230 2.273 . S
Cd226 O234 2.277 . S
O227 C224 1.160 . S
O227 Cd228 2.203 . S
Cd228 O227 2.203 . S
Cd228 O230 2.411 . S
Cd228 O231 2.333 . S
Cd228 O232 2.352 . S
Cd228 O236 2.277 . S
Cd228 O237 2.356 . S
C229 O234 1.209 . S
C229 O236 1.226 . S
O230 Cd226 2.273 . S
O230 Cd228 2.411 . S
O230 C233 1.320 . S
O231 Cd228 2.333 . S
O231 C233 1.214 . S
O232 Cd228 2.352 . S
O232 C235 1.258 . S
C233 O230 1.320 . S
C233 O231 1.214 . S
O234 Cd226 2.277 . S
O234 C229 1.209 . S
C235 O232 1.258 . S
C235 O237 1.282 . S
O236 Cd228 2.277 . S
O236 C229 1.226 . S
O237 Cd228 2.356 . S
O237 C235 1.282 . S
C238 O239 1.306 . S
C238 O241 1.160 . S
O239 C238 1.306 . S
O239 Cd240 2.228 . S
Cd240 O239 2.228 . S
Cd240 O244 2.273 . S
Cd240 O248 2.277 . S
O241 C238 1.160 . S
O241 Cd242 2.203 . S
Cd242 O241 2.203 . S
Cd242 O244 2.411 . S
Cd242 O245 2.333 . S
Cd242 O246 2.352 . S
Cd242 O250 2.277 . S
Cd242 O251 2.356 . S
C243 O248 1.209 . S
C243 O250 1.226 . S
O244 Cd240 2.273 . S
O244 Cd242 2.411 . S
O244 C247 1.320 . S
O245 Cd242 2.333 . S
O245 C247 1.214 . S
O246 Cd242 2.352 . S
O246 C249 1.258 . S
C247 O244 1.320 . S
C247 O245 1.214 . S
O248 Cd240 2.277 . S
O248 C243 1.209 . S
C249 O246 1.258 . S
C249 O251 1.282 . S
O250 Cd242 2.277 . S
O250 C243 1.226 . S
O251 Cd242 2.356 . S
O251 C249 1.282 . S
C252 O253 1.306 . S
C252 O255 1.160 . S
O253 C252 1.306 . S
O253 Cd254 2.228 . S
Cd254 O253 2.228 . S
Cd254 O258 2.273 . S
Cd254 O262 2.277 . S
O255 C252 1.160 . S
O255 Cd256 2.203 . S
Cd256 O255 2.203 . S
Cd256 O258 2.411 . S
Cd256 O259 2.333 . S
Cd256 O260 2.352 . S
Cd256 O264 2.277 . S
Cd256 O265 2.356 . S
C257 O262 1.209 . S
C257 O264 1.226 . S
O258 Cd254 2.273 . S
O258 Cd256 2.411 . S
O258 C261 1.320 . S
O259 Cd256 2.333 . S
O259 C261 1.214 . S
O260 Cd256 2.352 . S
O260 C263 1.258 . S
C261 O258 1.320 . S
C261 O259 1.214 . S
O262 Cd254 2.277 . S
O262 C257 1.209 . S
C263 O260 1.258 . S
C263 O265 1.282 . S
O264 Cd256 2.277 . S
O264 C257 1.226 . S
O265 Cd256 2.356 . S
O265 C263 1.282 . S
C266 O267 1.306 . S
C266 O269 1.160 . S
O267 C266 1.306 . S
O267 Cd268 2.228 . S
Cd268 O267 2.228 . S
Cd268 O272 2.273 . S
Cd268 O276 2.277 . S
O269 C266 1.160 . S
O269 Cd270 2.203 . S
Cd270 O269 2.203 . S
Cd270 O272 2.411 . S
Cd270 O273 2.333 . S
Cd270 O274 2.352 . S
Cd270 O278 2.277 . S
Cd270 O279 2.356 . S
C271 O276 1.209 . S
C271 O278 1.226 . S
O272 Cd268 2.273 . S
O272 Cd270 2.411 . S
O272 C275 1.320 . S
O273 Cd270 2.333 . S
O273 C275 1.214 . S
O274 Cd270 2.352 . S
O274 C277 1.258 . S
C275 O272 1.320 . S
C275 O273 1.214 . S
O276 Cd268 2.277 . S
O276 C271 1.209 . S
C277 O274 1.258 . S
C277 O279 1.282 . S
O278 Cd270 2.277 . S
O278 C271 1.226 . S
O279 Cd270 2.356 . S
O279 C277 1.282 . S
C280 O281 1.306 . S
C280 O283 1.160 . S
O281 C280 1.306 . S
O281 Cd282 2.228 . S
Cd282 O281 2.228 . S
Cd282 O286 2.273 . S
Cd282 O290 2.277 . S
O283 C280 1.160 . S
O283 Cd284 2.203 . S
Cd284 O283 2.203 . S
Cd284 O286 2.411 . S
Cd284 O287 2.333 . S
Cd284 O288 2.352 . S
Cd284 O292 2.277 . S
Cd284 O293 2.356 . S
C285 O290 1.209 . S
C285 O292 1.226 . S
O286 Cd282 2.273 . S
O286 Cd284 2.411 . S
O286 C289 1.320 . S
O287 Cd284 2.333 . S
O287 C289 1.214 . S
O288 Cd284 2.352 . S
O288 C291 1.258 . S
C289 O286 1.320 . S
C289 O287 1.214 . S
O290 Cd282 2.277 . S
O290 C285 1.209 . S
C291 O288 1.258 . S
C291 O293 1.282 . S
O292 Cd284 2.277 . S
O292 C285 1.226 . S
O293 Cd284 2.356 . S
O293 C291 1.282 . S
C294 O295 1.306 . S
C294 O297 1.160 . S
O295 C294 1.306 . S
O295 Cd296 2.228 . S
Cd296 O295 2.228 . S
Cd296 O300 2.273 . S
Cd296 O304 2.277 . S
O297 C294 1.160 . S
O297 Cd298 2.203 . S
Cd298 O297 2.203 . S
Cd298 O300 2.411 . S
Cd298 O301 2.333 . S
Cd298 O302 2.352 . S
Cd298 O306 2.277 . S
Cd298 O307 2.356 . S
C299 O304 1.209 . S
C299 O306 1.226 . S
O300 Cd296 2.273 . S
O300 Cd298 2.411 . S
O300 C303 1.320 . S
O301 Cd298 2.333 . S
O301 C303 1.214 . S
O302 Cd298 2.352 . S
O302 C305 1.258 . S
C303 O300 1.320 . S
C303 O301 1.214 . S
O304 Cd296 2.277 . S
O304 C299 1.209 . S
C305 O302 1.258 . S
C305 O307 1.282 . S
O306 Cd298 2.277 . S
O306 C299 1.226 . S
O307 Cd298 2.356 . S
O307 C305 1.282 . S
C308 O309 1.306 . S
C308 O311 1.160 . S
O309 C308 1.306 . S
O309 Cd310 2.228 . S
Cd310 O309 2.228 . S
Cd310 O314 2.273 . S
Cd310 O318 2.277 . S
O311 C308 1.160 . S
O311 Cd312 2.203 . S
Cd312 O311 2.203 . S
Cd312 O314 2.411 . S
Cd312 O315 2.333 . S
Cd312 O316 2.352 . S
Cd312 O320 2.277 . S
Cd312 O321 2.356 . S
C313 O318 1.209 . S
C313 O320 1.226 . S
O314 Cd310 2.273 . S
O314 Cd312 2.411 . S
O314 C317 1.320 . S
O315 Cd312 2.333 . S
O315 C317 1.214 . S
O316 Cd312 2.352 . S
O316 C319 1.258 . S
C317 O314 1.320 . S
C317 O315 1.214 . S
O318 Cd310 2.277 . S
O318 C313 1.209 . S
C319 O316 1.258 . S
C319 O321 1.282 . S
O320 Cd312 2.277 . S
O320 C313 1.226 . S
O321 Cd312 2.356 . S
O321 C319 1.282 . S
C322 O323 1.306 . S
C322 O325 1.160 . S
O323 C322 1.306 . S
O323 Cd324 2.228 . S
Cd324 O323 2.228 . S
Cd324 O328 2.273 . S
Cd324 O332 2.277 . S
O325 C322 1.160 . S
O325 Cd326 2.203 . S
Cd326 O325 2.203 . S
Cd326 O328 2.411 . S
Cd326 O329 2.333 . S
Cd326 O330 2.352 . S
Cd326 O334 2.277 . S
Cd326 O335 2.356 . S
C327 O332 1.209 . S
C327 O334 1.226 . S
O328 Cd324 2.273 . S
O328 Cd326 2.411 . S
O328 C331 1.320 . S
O329 Cd326 2.333 . S
O329 C331 1.214 . S
O330 Cd326 2.352 . S
O330 C333 1.258 . S
C331 O328 1.320 . S
C331 O329 1.214 . S
O332 Cd324 2.277 . S
O332 C327 1.209 . S
C333 O330 1.258 . S
C333 O335 1.282 . S
O334 Cd326 2.277 . S
O334 C327 1.226 . S
O335 Cd326 2.356 . S
O335 C333 1.282 . S
C336 O337 1.306 . S
C336 O339 1.160 . S
O337 C336 1.306 . S
O337 Cd338 2.228 . S
Cd338 O337 2.228 . S
Cd338 O342 2.273 . S
Cd338 O346 2.277 . S
O339 C336 1.160 . S
O339 Cd340 2.203 . S
Cd340 O339 2.203 . S
Cd340 O342 2.411 . S
Cd340 O343 2.333 . S
Cd340 O344 2.352 . S
Cd340 O348 2.277 . S
Cd340 O349 2.356 . S
C341 O346 1.209 . S
C341 O348 1.226 . S
O342 Cd338 2.273 . S
O342 Cd340 2.411 . S
O342 C345 1.320 . S
O343 Cd340 2.333 . S
O343 C345 1.214 . S
O344 Cd340 2.352 . S
O344 C347 1.258 . S
C345 O342 1.320 . S
C345 O343 1.214 . S
O346 Cd338 2.277 . S
O346 C341 1.209 . S
C347 O344 1.258 . S
C347 O349 1.282 . S
O348 Cd340 2.277 . S
O348 C341 1.226 . S
O349 Cd340 2.356 . S
O349 C347 1.282 . S
C350 O351 1.306 . S
C350 O353 1.160 . S
O351 C350 1.306 . S
O351 Cd352 2.228 . S
Cd352 O351 2.228 . S
Cd352 O356 2.273 . S
Cd352 O360 2.277 . S
O353 C350 1.160 . S
O353 Cd354 2.203 . S
Cd354 O353 2.203 . S
Cd354 O356 2.411 . S
Cd354 O357 2.333 . S
Cd354 O358 2.352 . S
Cd354 O362 2.277 . S
Cd354 O363 2.356 . S
C355 O360 1.209 . S
C355 O362 1.226 . S
O356 Cd352 2.273 . S
O356 Cd354 2.411 . S
O356 C359 1.320 . S
O357 Cd354 2.333 . S
O357 C359 1.214 . S
O358 Cd354 2.352 . S
O358 C361 1.258 . S
C359 O356 1.320 . S
C359 O357 1.214 . S
O360 Cd352 2.277 . S
O360 C355 1.209 . S
C361 O358 1.258 . S
C361 O363 1.282 . S
O362 Cd354 2.277 . S
O362 C355 1.226 . S
O363 Cd354 2.356 . S
O363 C361 1.282 . S
C364 O365 1.306 . S
C364 O367 1.160 . S
O365 C364 1.306 . S
O365 Cd366 2.228 . S
Cd366 O365 2.228 . S
Cd366 O370 2.273 . S
Cd366 O374 2.277 . S
O367 C364 1.160 . S
O367 Cd368 2.203 . S
Cd368 O367 2.203 . S
Cd368 O370 2.411 . S
Cd368 O371 2.333 . S
Cd368 O372 2.352 . S
Cd368 O376 2.277 . S
Cd368 O377 2.356 . S
C369 O374 1.209 . S
C369 O376 1.226 . S
O370 Cd366 2.273 . S
O370 Cd368 2.411 . S
O370 C373 1.320 . S
O371 Cd368 2.333 . S
O371 C373 1.214 . S
O372 Cd368 2.352 . S
O372 C375 1.258 . S
C373 O370 1.320 . S
C373 O371 1.214 . S
O374 Cd366 2.277 . S
O374 C369 1.209 . S
C375 O372 1.258 . S
C375 O377 1.282 . S
O376 Cd368 2.277 . S
O376 C369 1.226 . S
O377 Cd368 2.356 . S
O377 C375 1.282 . S
C378 O379 1.306 . S
C378 O381 1.160 . S
O379 C378 1.306 . S
O379 Cd380 2.228 . S
Cd380 O379 2.228 . S
Cd380 O384 2.273 . S
Cd380 O388 2.277 . S
O381 C378 1.160 . S
O381 Cd382 2.203 . S
Cd382 O381 2.203 . S
Cd382 O384 2.411 . S
Cd382 O385 2.333 . S
Cd382 O386 2.352 . S
Cd382 O390 2.277 . S
Cd382 O391 2.356 . S
C383 O388 1.209 . S
C383 O390 1.226 . S
O384 Cd380 2.273 . S
O384 Cd382 2.411 . S
O384 C387 1.320 . S
O385 Cd382 2.333 . S
O385 C387 1.214 . S
O386 Cd382 2.352 . S
O386 C389 1.258 . S
C387 O384 1.320 . S
C387 O385 1.214 . S
O388 Cd380 2.277 . S
O388 C383 1.209 . S
C389 O386 1.258 . S
C389 O391 1.282 . S
O390 Cd382 2.277 . S
O390 C383 1.226 . S
O391 Cd382 2.356 . S
O391 C389 1.282 . S
C392 O393 1.306 . S
C392 O395 1.160 . S
O393 C392 1.306 . S
O393 Cd394 2.228 . S
Cd394 O393 2.228 . S
Cd394 O398 2.273 . S
Cd394 O402 2.277 . S
O395 C392 1.160 . S
O395 Cd396 2.203 . S
Cd396 O395 2.203 . S
Cd396 O398 2.411 . S
Cd396 O399 2.333 . S
Cd396 O400 2.352 . S
Cd396 O404 2.277 . S
Cd396 O405 2.356 . S
C397 O402 1.209 . S
C397 O404 1.226 . S
O398 Cd394 2.273 . S
O398 Cd396 2.411 . S
O398 C401 1.320 . S
O399 Cd396 2.333 . S
O399 C401 1.214 . S
O400 Cd396 2.352 . S
O400 C403 1.258 . S
C401 O398 1.320 . S
C401 O399 1.214 . S
O402 Cd394 2.277 . S
O402 C397 1.209 . S
C403 O400 1.258 . S
C403 O405 1.282 . S
O404 Cd396 2.277 . S
O404 C397 1.226 . S
O405 Cd396 2.356 . S
O405 C403 1.282 . S
C406 O407 1.306 . S
C406 O409 1.160 . S
O407 C406 1.306 . S
O407 Cd408 2.228 . S
Cd408 O407 2.228 . S
Cd408 O412 2.273 . S
Cd408 O416 2.277 . S
O409 C406 1.160 . S
O409 Cd410 2.203 . S
Cd410 O409 2.203 . S
Cd410 O412 2.411 . S
Cd410 O413 2.333 . S
Cd410 O414 2.352 . S
Cd410 O418 2.277 . S
Cd410 O419 2.356 . S
C411 O416 1.209 . S
C411 O418 1.226 . S
O412 Cd408 2.273 . S
O412 Cd410 2.411 . S
O412 C415 1.320 . S
O413 Cd410 2.333 . S
O413 C415 1.214 . S
O414 Cd410 2.352 . S
O414 C417 1.258 . S
C415 O412 1.320 . S
C415 O413 1.214 . S
O416 Cd408 2.277 . S
O416 C411 1.209 . S
C417 O414 1.258 . S
C417 O419 1.282 . S
O418 Cd410 2.277 . S
O418 C411 1.226 . S
O419 Cd410 2.356 . S
O419 C417 1.282 . S
C420 O421 1.306 . S
C420 O423 1.160 . S
O421 C420 1.306 . S
O421 Cd422 2.228 . S
Cd422 O421 2.228 . S
Cd422 O426 2.273 . S
Cd422 O430 2.277 . S
O423 C420 1.160 . S
O423 Cd424 2.203 . S
Cd424 O423 2.203 . S
Cd424 O426 2.411 . S
Cd424 O427 2.333 . S
Cd424 O428 2.352 . S
Cd424 O432 2.277 . S
Cd424 O433 2.356 . S
C425 O430 1.209 . S
C425 O432 1.226 . S
O426 Cd422 2.273 . S
O426 Cd424 2.411 . S
O426 C429 1.320 . S
O427 Cd424 2.333 . S
O427 C429 1.214 . S
O428 Cd424 2.352 . S
O428 C431 1.258 . S
C429 O426 1.320 . S
C429 O427 1.214 . S
O430 Cd422 2.277 . S
O430 C425 1.209 . S
C431 O428 1.258 . S
C431 O433 1.282 . S
O432 Cd424 2.277 . S
O432 C425 1.226 . S
O433 Cd424 2.356 . S
O433 C431 1.282 . S
C434 O435 1.306 . S
C434 O437 1.160 . S
O435 C434 1.306 . S
O435 Cd436 2.228 . S
Cd436 O435 2.228 . S
Cd436 O440 2.273 . S
Cd436 O444 2.277 . S
O437 C434 1.160 . S
O437 Cd438 2.203 . S
Cd438 O437 2.203 . S
Cd438 O440 2.411 . S
Cd438 O441 2.333 . S
Cd438 O442 2.352 . S
Cd438 O446 2.277 . S
Cd438 O447 2.356 . S
C439 O444 1.209 . S
C439 O446 1.226 . S
O440 Cd436 2.273 . S
O440 Cd438 2.411 . S
O440 C443 1.320 . S
O441 Cd438 2.333 . S
O441 C443 1.214 . S
O442 Cd438 2.352 . S
O442 C445 1.258 . S
C443 O440 1.320 . S
C443 O441 1.214 . S
O444 Cd436 2.277 . S
O444 C439 1.209 . S
C445 O442 1.258 . S
C445 O447 1.282 . S
O446 Cd438 2.277 . S
O446 C439 1.226 . S
O447 Cd438 2.356 . S
O447 C445 1.282 . S
C448 O449 1.306 . S
C448 O451 1.160 . S
O449 C448 1.306 . S
O449 Cd450 2.228 . S
Cd450 O449 2.228 . S
Cd450 O454 2.273 . S
Cd450 O458 2.277 . S
O451 C448 1.160 . S
O451 Cd452 2.203 . S
Cd452 O451 2.203 . S
Cd452 O454 2.411 . S
Cd452 O455 2.333 . S
Cd452 O456 2.352 . S
Cd452 O460 2.277 . S
Cd452 O461 2.356 . S
C453 O458 1.209 . S
C453 O460 1.226 . S
O454 Cd450 2.273 . S
O454 Cd452 2.411 . S
O454 C457 1.320 . S
O455 Cd452 2.333 . S
O455 C457 1.214 . S
O456 Cd452 2.352 . S
O456 C459 1.258 . S
C457 O454 1.320 . S
C457 O455 1.214 . S
O458 Cd450 2.277 . S
O458 C453 1.209 . S
C459 O456 1.258 . S
C459 O461 1.282 . S
O460 Cd452 2.277 . S
O460 C453 1.226 . S
O461 Cd452 2.356 . S
O461 C459 1.282 . S
C462 O463 1.306 . S
C462 O465 1.160 . S
O463 C462 1.306 . S
O463 Cd464 2.228 . S
Cd464 O463 2.228 . S
Cd464 O468 2.273 . S
Cd464 O472 2.277 . S
O465 C462 1.160 . S
O465 Cd466 2.203 . S
Cd466 O465 2.203 . S
Cd466 O468 2.411 . S
Cd466 O469 2.333 . S
Cd466 O470 2.352 . S
Cd466 O474 2.277 . S
Cd466 O475 2.356 . S
C467 O472 1.209 . S
C467 O474 1.226 . S
O468 Cd464 2.273 . S
O468 Cd466 2.411 . S
O468 C471 1.320 . S
O469 Cd466 2.333 . S
O469 C471 1.214 . S
O470 Cd466 2.352 . S
O470 C473 1.258 . S
C471 O468 1.320 . S
C471 O469 1.214 . S
O472 Cd464 2.277 . S
O472 C467 1.209 . S
C473 O470 1.258 . S
C473 O475 1.282 . S
O474 Cd466 2.277 . S
O474 C467 1.226 . S
O475 Cd466 2.356 . S
O475 C473 1.282 . S
C476 O477 1.306 . S
C476 O479 1.160 . S
O477 C476 1.306 . S
O477 Cd478 2.228 . S
Cd478 O477 2.228 . S
Cd478 O482 2.273 . S
Cd478 O486 2.277 . S
O479 C476 1.160 . S
O479 Cd480 2.203 . S
Cd480 O479 2.203 . S
Cd480 O482 2.411 . S
Cd480 O483 2.333 . S
Cd480 O484 2.352 . S
Cd480 O488 2.277 . S
Cd480 O489 2.356 . S
C481 O486 1.209 . S
C481 O488 1.226 . S
O482 Cd478 2.273 . S
O482 Cd480 2.411 . S
O482 C485 1.320 . S
O483 Cd480 2.333 . S
O483 C485 1.214 . S
O484 Cd480 2.352 . S
O484 C487 1.258 . S
C485 O482 1.320 . S
C485 O483 1.214 . S
O486 Cd478 2.277 . S
O486 C481 1.209 . S
C487 O484 1.258 . S
C487 O489 1.282 . S
O488 Cd480 2.277 . S
O488 C481 1.226 . S
O489 Cd480 2.356 . S
O489 C487 1.282 . S
C490 O491 1.306 . S
C490 O493 1.160 . S
O491 C490 1.306 . S
O491 Cd492 2.228 . S
Cd492 O491 2.228 . S
Cd492 O496 2.273 . S
Cd492 O500 2.277 . S
O493 C490 1.160 . S
O493 Cd494 2.203 . S
Cd494 O493 2.203 . S
Cd494 O496 2.411 . S
Cd494 O497 2.333 . S
Cd494 O498 2.352 . S
Cd494 O502 2.277 . S
Cd494 O503 2.356 . S
C495 O500 1.209 . S
C495 O502 1.226 . S
O496 Cd492 2.273 . S
O496 Cd494 2.411 . S
O496 C499 1.320 . S
O497 Cd494 2.333 . S
O497 C499 1.214 . S
O498 Cd494 2.352 . S
O498 C501 1.258 . S
C499 O496 1.320 . S
C499 O497 1.214 . S
O500 Cd492 2.277 . S
O500 C495 1.209 . S
C501 O498 1.258 . S
C501 O503 1.282 . S
O502 Cd494 2.277 . S
O502 C495 1.226 . S
O503 Cd494 2.356 . S
O503 C501 1.282 . S
C504 O505 1.306 . S
C504 O507 1.160 . S
O505 C504 1.306 . S
O505 Cd506 2.228 . S
Cd506 O505 2.228 . S
Cd506 O510 2.273 . S
Cd506 O514 2.277 . S
O507 C504 1.160 . S
O507 Cd508 2.203 . S
Cd508 O507 2.203 . S
Cd508 O510 2.411 . S
Cd508 O511 2.333 . S
Cd508 O512 2.352 . S
Cd508 O516 2.277 . S
Cd508 O517 2.356 . S
C509 O514 1.209 . S
C509 O516 1.226 . S
O510 Cd506 2.273 . S
O510 Cd508 2.411 . S
O510 C513 1.320 . S
O511 Cd508 2.333 . S
O511 C513 1.214 . S
O512 Cd508 2.352 . S
O512 C515 1.258 . S
C513 O510 1.320 . S
C513 O511 1.214 . S
O514 Cd506 2.277 . S
O514 C509 1.209 . S
C515 O512 1.258 . S
C515 O517 1.282 . S
O516 Cd508 2.277 . S
O516 C509 1.226 . S
O517 Cd508 2.356 . S
O517 C515 1.282 . S
C518 O519 1.306 . S
C518 O521 1.160 . S
O519 C518 1.306 . S
O519 Cd520 2.228 . S
Cd520 O519 2.228 . S
Cd520 O524 2.273 . S
Cd520 O528 2.277 . S
O521 C518 1.160 . S
O521 Cd522 2.203 . S
Cd522 O521 2.203 . S
Cd522 O524 2.411 . S
Cd522 O525 2.333 . S
Cd522 O526 2.352 . S
Cd522 O530 2.277 . S
Cd522 O531 2.356 . S
C523 O528 1.209 . S
C523 O530 1.226 . S
O524 Cd520 2.273 . S
O524 Cd522 2.411 . S
O524 C527 1.320 . S
O525 Cd522 2.333 . S
O525 C527 1.214 . S
O526 Cd522 2.352 . S
O526 C529 1.258 . S
C527 O524 1.320 . S
C527 O525 1.214 . S
O528 Cd520 2.277 . S
O528 C523 1.209 . S
C529 O526 1.258 . S
C529 O531 1.282 . S
O530 Cd522 2.277 . S
O530 C523 1.226 . S
O531 Cd522 2.356 . S
O531 C529 1.282 . S
C532 O533 1.306 . S
C532 O535 1.160 . S
O533 C532 1.306 . S
O533 Cd534 2.228 . S
Cd534 O533 2.228 . S
Cd534 O538 2.273 . S
Cd534 O542 2.277 . S
O535 C532 1.160 . S
O535 Cd536 2.203 . S
Cd536 O535 2.203 . S
Cd536 O538 2.411 . S
Cd536 O539 2.333 . S
Cd536 O540 2.352 . S
Cd536 O544 2.277 . S
Cd536 O545 2.356 . S
C537 O542 1.209 . S
C537 O544 1.226 . S
O538 Cd534 2.273 . S
O538 Cd536 2.411 . S
O538 C541 1.320 . S
O539 Cd536 2.333 . S
O539 C541 1.214 . S
O540 Cd536 2.352 . S
O540 C543 1.258 . S
C541 O538 1.320 . S
C541 O539 1.214 . S
O542 Cd534 2.277 . S
O542 C537 1.209 . S
C543 O540 1.258 . S
C543 O545 1.282 . S
O544 Cd536 2.277 . S
O544 C537 1.226 . S
O545 Cd536 2.356 . S
O545 C543 1.282 . S
C546 O547 1.306 . S
C546 O549 1.160 . S
O547 C546 1.306 . S
O547 Cd548 2.228 . S
Cd548 O547 2.228 . S
Cd548 O552 2.273 . S
Cd548 O556 2.277 . S
O549 C546 1.160 . S
O549 Cd550 2.203 . S
Cd550 O549 2.203 . S
Cd550 O552 2.411 . S
Cd550 O553 2.333 . S
Cd550 O554 2.352 . S
Cd550 O558 2.277 . S
Cd550 O559 2.356 . S
C551 O556 1.209 . S
C551 O558 1.226 . S
O552 Cd548 2.273 . S
O552 Cd550 2.411 . S
O552 C555 1.320 . S
O553 Cd550 2.333 . S
O553 C555 1.214 . S
O554 Cd550 2.352 . S
O554 C557 1.258 . S
C555 O552 1.320 . S
C555 O553 1.214 . S
O556 Cd548 2.277 . S
O556 C551 1.209 . S
C557 O554 1.258 . S
C557 O559 1.282 . S
O558 Cd550 2.277 . S
O558 C551 1.226 . S
O559 Cd550 2.356 . S
O559 C557 1.282 . S
C560 O561 1.306 . S
C560 O563 1.160 . S
O561 C560 1.306 . S
O561 Cd562 2.228 . S
Cd562 O561 2.228 . S
Cd562 O566 2.273 . S
Cd562 O570 2.277 . S
O563 C560 1.160 . S
O563 Cd564 2.203 . S
Cd564 O563 2.203 . S
Cd564 O566 2.411 . S
Cd564 O567 2.333 . S
Cd564 O568 2.352 . S
Cd564 O572 2.277 . S
Cd564 O573 2.356 . S
C565 O570 1.209 . S
C565 O572 1.226 . S
O566 Cd562 2.273 . S
O566 Cd564 2.411 . S
O566 C569 1.320 . S
O567 Cd564 2.333 . S
O567 C569 1.214 . S
O568 Cd564 2.352 . S
O568 C571 1.258 . S
C569 O566 1.320 . S
C569 O567 1.214 . S
O570 Cd562 2.277 . S
O570 C565 1.209 . S
C571 O568 1.258 . S
C571 O573 1.282 . S
O572 Cd564 2.277 . S
O572 C565 1.226 . S
O573 Cd564 2.356 . S
O573 C571 1.282 . S
C574 O575 1.306 . S
C574 O577 1.160 . S
O575 C574 1.306 . S
O575 Cd576 2.228 . S
Cd576 O575 2.228 . S
Cd576 O580 2.273 . S
Cd576 O584 2.277 . S
O577 C574 1.160 . S
O577 Cd578 2.203 . S
Cd578 O577 2.203 . S
Cd578 O580 2.411 . S
Cd578 O581 2.333 . S
Cd578 O582 2.352 . S
Cd578 O586 2.277 . S
Cd578 O587 2.356 . S
C579 O584 1.209 . S
C579 O586 1.226 . S
O580 Cd576 2.273 . S
O580 Cd578 2.411 . S
O580 C583 1.320 . S
O581 Cd578 2.333 . S
O581 C583 1.214 . S
O582 Cd578 2.352 . S
O582 C585 1.258 . S
C583 O580 1.320 . S
C583 O581 1.214 . S
O584 Cd576 2.277 . S
O584 C579 1.209 . S
C585 O582 1.258 . S
C585 O587 1.282 . S
O586 Cd578 2.277 . S
O586 C579 1.226 . S
O587 Cd578 2.356 . S
O587 C585 1.282 . S
C588 O589 1.306 . S
C588 O591 1.160 . S
O589 C588 1.306 . S
O589 Cd590 2.228 . S
Cd590 O589 2.228 . S
Cd590 O594 2.273 . S
Cd590 O598 2.277 . S
O591 C588 1.160 . S
O591 Cd592 2.203 . S
Cd592 O591 2.203 . S
Cd592 O594 2.411 . S
Cd592 O595 2.333 . S
Cd592 O596 2.352 . S
Cd592 O600 2.277 . S
Cd592 O601 2.356 . S
C593 O598 1.209 . S
C593 O600 1.226 . S
O594 Cd590 2.273 . S
O594 Cd592 2.411 . S
O594 C597 1.320 . S
O595 Cd592 2.333 . S
O595 C597 1.214 . S
O596 Cd592 2.352 . S
O596 C599 1.258 . S
C597 O594 1.320 . S
C597 O595 1.214 . S
O598 Cd590 2.277 . S
O598 C593 1.209 . S
C599 O596 1.258 . S
C599 O601 1.282 . S
O600 Cd592 2.277 . S
O600 C593 1.226 . S
O601 Cd592 2.356 . S
O601 C599 1.282 . S
C602 O603 1.306 . S
C602 O605 1.160 . S
O603 C602 1.306 . S
O603 Cd604 2.228 . S
Cd604 O603 2.228 . S
Cd604 O608 2.273 . S
Cd604 O612 2.277 . S
O605 C602 1.160 . S
O605 Cd606 2.203 . S
Cd606 O605 2.203 . S
Cd606 O608 2.411 . S
Cd606 O609 2.333 . S
Cd606 O610 2.352 . S
Cd606 O614 2.277 . S
Cd606 O615 2.356 . S
C607 O612 1.209 . S
C607 O614 1.226 . S
O608 Cd604 2.273 . S
O608 Cd606 2.411 . S
O608 C611 1.320 . S
O609 Cd606 2.333 . S
O609 C611 1.214 . S
O610 Cd606 2.352 . S
O610 C613 1.258 . S
C611 O608 1.320 . S
C611 O609 1.214 . S
O612 Cd604 2.277 . S
O612 C607 1.209 . S
C613 O610 1.258 . S
C613 O615 1.282 . S
O614 Cd606 2.277 . S
O614 C607 1.226 . S
O615 Cd606 2.356 . S
O615 C613 1.282 . S
C616 O617 1.306 . S
C616 O619 1.160 . S
O617 C616 1.306 . S
O617 Cd618 2.228 . S
Cd618 O617 2.228 . S
Cd618 O622 2.273 . S
Cd618 O626 2.277 . S
O619 C616 1.160 . S
O619 Cd620 2.203 . S
Cd620 O619 2.203 . S
Cd620 O622 2.411 . S
Cd620 O623 2.333 . S
Cd620 O624 2.352 . S
Cd620 O628 2.277 . S
Cd620 O629 2.356 . S
C621 O626 1.209 . S
C621 O628 1.226 . S
O622 Cd618 2.273 . S
O622 Cd620 2.411 . S
O622 C625 1.320 . S
O623 Cd620 2.333 . S
O623 C625 1.214 . S
O624 Cd620 2.352 . S
O624 C627 1.258 . S
C625 O622 1.320 . S
C625 O623 1.214 . S
O626 Cd618 2.277 . S
O626 C621 1.209 . S
C627 O624 1.258 . S
C627 O629 1.282 . S
O628 Cd620 2.277 . S
O628 C621 1.226 . S
O629 Cd620 2.356 . S
O629 C627 1.282 . S
C630 O631 1.306 . S
C630 O633 1.160 . S
O631 C630 1.306 . S
O631 Cd632 2.228 . S
Cd632 O631 2.228 . S
Cd632 O636 2.273 . S
Cd632 O640 2.277 . S
O633 C630 1.160 . S
O633 Cd634 2.203 . S
Cd634 O633 2.203 . S
Cd634 O636 2.411 . S
Cd634 O637 2.333 . S
Cd634 O638 2.352 . S
Cd634 O642 2.277 . S
Cd634 O643 2.356 . S
C635 O640 1.209 . S
C635 O642 1.226 . S
O636 Cd632 2.273 . S
O636 Cd634 2.411 . S
O636 C639 1.320 . S
O637 Cd634 2.333 . S
O637 C639 1.214 . S
O638 Cd634 2.352 . S
O638 C641 1.258 . S
C639 O636 1.320 . S
C639 O637 1.214 . S
O640 Cd632 2.277 . S
O640 C635 1.209 . S
C641 O638 1.258 . S
C641 O643 1.282 . S
O642 Cd634 2.277 . S
O642 C635 1.226 . S
O643 Cd634 2.356 . S
O643 C641 1.282 . S
C644 O645 1.306 . S
C644 O647 1.160 . S
O645 C644 1.306 . S
O645 Cd646 2.228 . S
Cd646 O645 2.228 . S
Cd646 O650 2.273 . S
Cd646 O654 2.277 . S
O647 C644 1.160 . S
O647 Cd648 2.203 . S
Cd648 O647 2.203 . S
Cd648 O650 2.411 . S
Cd648 O651 2.333 . S
Cd648 O652 2.352 . S
Cd648 O656 2.277 . S
Cd648 O657 2.356 . S
C649 O654 1.209 . S
C649 O656 1.226 . S
O650 Cd646 2.273 . S
O650 Cd648 2.411 . S
O650 C653 1.320 . S
O651 Cd648 2.333 . S
O651 C653 1.214 . S
O652 Cd648 2.352 . S
O652 C655 1.258 . S
C653 O650 1.320 . S
C653 O651 1.214 . S
O654 Cd646 2.277 . S
O654 C649 1.209 . S
C655 O652 1.258 . S
C655 O657 1.282 . S
O656 Cd648 2.277 . S
O656 C649 1.226 . S
O657 Cd648 2.356 . S
O657 C655 1.282 . S
C658 O659 1.306 . S
C658 O661 1.160 . S
O659 C658 1.306 . S
O659 Cd660 2.228 . S
Cd660 O659 2.228 . S
Cd660 O664 2.273 . S
Cd660 O668 2.277 . S
O661 C658 1.160 . S
O661 Cd662 2.203 . S
Cd662 O661 2.203 . S
Cd662 O664 2.411 . S
Cd662 O665 2.333 . S
Cd662 O666 2.352 . S
Cd662 O670 2.277 . S
Cd662 O671 2.356 . S
C663 O668 1.209 . S
C663 O670 1.226 . S
O664 Cd660 2.273 . S
O664 Cd662 2.411 . S
O664 C667 1.320 . S
O665 Cd662 2.333 . S
O665 C667 1.214 . S
O666 Cd662 2.352 . S
O666 C669 1.258 . S
C667 O664 1.320 . S
C667 O665 1.214 . S
O668 Cd660 2.277 . S
O668 C663 1.209 . S
C669 O666 1.258 . S
C669 O671 1.282 . S
O670 Cd662 2.277 . S
O670 C663 1.226 . S
O671 Cd662 2.356 . S
O671 C669 1.282 . S
H672 C680 0.929 . S
H673 C682 0.930 . S
H674 C684 0.930 . S
H675 C687 0.929 . S
H676 C690 0.930 . S
H677 C692 0.960 . S
H678 C692 0.960 . S
H679 C692 0.960 . S
C680 H672 0.929 . S
C680 C681 1.377 . S
C680 C682 1.384 . S
C681 C680 1.377 . S
C681 C687 1.390 . S
C682 H673 0.930 . S
C682 C680 1.384 . S
C682 C683 1.372 . S
C683 C682 1.372 . S
C683 C684 1.400 . S
C683 C688 1.490 . S
C684 H674 0.930 . S
C684 C683 1.400 . S
C684 C687 1.386 . S
H685 C701 0.930 . S
H686 C702 0.931 . S
C687 H675 0.929 . S
C687 C681 1.390 . S
C687 C684 1.386 . S
C688 C683 1.490 . S
C688 C690 1.395 . S
C688 C691 1.403 . S
H689 C695 0.930 . S
C690 H676 0.930 . S
C690 C688 1.395 . S
C690 C693 1.403 . S
C691 C688 1.403 . S
C691 C692 1.524 . S
C691 C695 1.400 . S
C692 H677 0.960 . S
C692 H678 0.960 . S
C692 H679 0.960 . S
C692 C691 1.524 . S
C693 C690 1.403 . S
C693 C694 1.392 . S
C693 C697 1.495 . S
C694 C693 1.392 . S
C694 C695 1.385 . S
C694 C696 1.478 . S
C695 H689 0.930 . S
C695 C691 1.400 . S
C695 C694 1.385 . S
C696 C694 1.478 . S
C696 C698 1.381 . S
C696 C702 1.383 . S
C697 C693 1.495 . S
C697 H703 0.959 . S
C697 H704 0.961 . S
C697 H705 0.960 . S
C698 C696 1.381 . S
C698 C699 1.394 . S
C698 H706 0.930 . S
C699 C698 1.394 . S
C699 C700 1.383 . S
C699 H707 0.929 . S
C700 C699 1.383 . S
C700 C701 1.377 . S
C701 H685 0.930 . S
C701 C700 1.377 . S
C701 C702 1.379 . S
C702 H686 0.931 . S
C702 C696 1.383 . S
C702 C701 1.379 . S
H703 C697 0.959 . S
H704 C697 0.961 . S
H705 C697 0.960 . S
H706 C698 0.930 . S
H707 C699 0.929 . S
H708 C716 0.929 . S
H709 C718 0.930 . S
H710 C720 0.930 . S
H711 C723 0.929 . S
H712 C726 0.930 . S
H713 C728 0.960 . S
H714 C728 0.960 . S
H715 C728 0.960 . S
C716 H708 0.929 . S
C716 C717 1.377 . S
C716 C718 1.384 . S
C717 C716 1.377 . S
C717 C723 1.390 . S
C718 H709 0.930 . S
C718 C716 1.384 . S
C718 C719 1.372 . S
C719 C718 1.372 . S
C719 C720 1.400 . S
C719 C724 1.490 . S
C720 H710 0.930 . S
C720 C719 1.400 . S
C720 C723 1.386 . S
H721 C737 0.930 . S
H722 C738 0.931 . S
C723 H711 0.929 . S
C723 C717 1.390 . S
C723 C720 1.386 . S
C724 C719 1.490 . S
C724 C726 1.395 . S
C724 C727 1.403 . S
H725 C731 0.930 . S
C726 H712 0.930 . S
C726 C724 1.395 . S
C726 C729 1.403 . S
C727 C724 1.403 . S
C727 C728 1.524 . S
C727 C731 1.400 . S
C728 H713 0.960 . S
C728 H714 0.960 . S
C728 H715 0.960 . S
C728 C727 1.524 . S
C729 C726 1.403 . S
C729 C730 1.392 . S
C729 C733 1.495 . S
C730 C729 1.392 . S
C730 C731 1.385 . S
C730 C732 1.478 . S
C731 H725 0.930 . S
C731 C727 1.400 . S
C731 C730 1.385 . S
C732 C730 1.478 . S
C732 C734 1.381 . S
C732 C738 1.383 . S
C733 C729 1.495 . S
C733 H739 0.959 . S
C733 H740 0.961 . S
C733 H741 0.960 . S
C734 C732 1.381 . S
C734 C735 1.394 . S
C734 H742 0.930 . S
C735 C734 1.394 . S
C735 C736 1.383 . S
C735 H743 0.929 . S
C736 C735 1.383 . S
C736 C737 1.377 . S
C737 H721 0.930 . S
C737 C736 1.377 . S
C737 C738 1.379 . S
C738 H722 0.931 . S
C738 C732 1.383 . S
C738 C737 1.379 . S
H739 C733 0.959 . S
H740 C733 0.961 . S
H741 C733 0.960 . S
H742 C734 0.930 . S
H743 C735 0.929 . S
H744 C752 0.929 . S
H745 C754 0.930 . S
H746 C756 0.930 . S
H747 C759 0.929 . S
H748 C762 0.930 . S
H749 C764 0.960 . S
H750 C764 0.960 . S
H751 C764 0.960 . S
C752 H744 0.929 . S
C752 C753 1.377 . S
C752 C754 1.384 . S
C753 C752 1.377 . S
C753 C759 1.390 . S
C754 H745 0.930 . S
C754 C752 1.384 . S
C754 C755 1.372 . S
C755 C754 1.372 . S
C755 C756 1.400 . S
C755 C760 1.490 . S
C756 H746 0.930 . S
C756 C755 1.400 . S
C756 C759 1.386 . S
H757 C773 0.930 . S
H758 C774 0.931 . S
C759 H747 0.929 . S
C759 C753 1.390 . S
C759 C756 1.386 . S
C760 C755 1.490 . S
C760 C762 1.395 . S
C760 C763 1.403 . S
H761 C767 0.930 . S
C762 H748 0.930 . S
C762 C760 1.395 . S
C762 C765 1.403 . S
C763 C760 1.403 . S
C763 C764 1.524 . S
C763 C767 1.400 . S
C764 H749 0.960 . S
C764 H750 0.960 . S
C764 H751 0.960 . S
C764 C763 1.524 . S
C765 C762 1.403 . S
C765 C766 1.392 . S
C765 C769 1.495 . S
C766 C765 1.392 . S
C766 C767 1.385 . S
C766 C768 1.478 . S
C767 H761 0.930 . S
C767 C763 1.400 . S
C767 C766 1.385 . S
C768 C766 1.478 . S
C768 C770 1.381 . S
C768 C774 1.383 . S
C769 C765 1.495 . S
C769 H775 0.959 . S
C769 H776 0.961 . S
C769 H777 0.960 . S
C770 C768 1.381 . S
C770 C771 1.394 . S
C770 H778 0.930 . S
C771 C770 1.394 . S
C771 C772 1.383 . S
C771 H779 0.929 . S
C772 C771 1.383 . S
C772 C773 1.377 . S
C773 H757 0.930 . S
C773 C772 1.377 . S
C773 C774 1.379 . S
C774 H758 0.931 . S
C774 C768 1.383 . S
C774 C773 1.379 . S
H775 C769 0.959 . S
H776 C769 0.961 . S
H777 C769 0.960 . S
H778 C770 0.930 . S
H779 C771 0.929 . S
H780 C788 0.929 . S
H781 C790 0.930 . S
H782 C792 0.930 . S
H783 C795 0.929 . S
H784 C798 0.930 . S
H785 C800 0.960 . S
H786 C800 0.960 . S
H787 C800 0.960 . S
C788 H780 0.929 . S
C788 C789 1.377 . S
C788 C790 1.384 . S
C789 C788 1.377 . S
C789 C795 1.390 . S
C790 H781 0.930 . S
C790 C788 1.384 . S
C790 C791 1.372 . S
C791 C790 1.372 . S
C791 C792 1.400 . S
C791 C796 1.490 . S
C792 H782 0.930 . S
C792 C791 1.400 . S
C792 C795 1.386 . S
H793 C809 0.930 . S
H794 C810 0.931 . S
C795 H783 0.929 . S
C795 C789 1.390 . S
C795 C792 1.386 . S
C796 C791 1.490 . S
C796 C798 1.395 . S
C796 C799 1.403 . S
H797 C803 0.930 . S
C798 H784 0.930 . S
C798 C796 1.395 . S
C798 C801 1.403 . S
C799 C796 1.403 . S
C799 C800 1.524 . S
C799 C803 1.400 . S
C800 H785 0.960 . S
C800 H786 0.960 . S
C800 H787 0.960 . S
C800 C799 1.524 . S
C801 C798 1.403 . S
C801 C802 1.392 . S
C801 C805 1.495 . S
C802 C801 1.392 . S
C802 C803 1.385 . S
C802 C804 1.478 . S
C803 H797 0.930 . S
C803 C799 1.400 . S
C803 C802 1.385 . S
C804 C802 1.478 . S
C804 C806 1.381 . S
C804 C810 1.383 . S
C805 C801 1.495 . S
C805 H811 0.959 . S
C805 H812 0.961 . S
C805 H813 0.960 . S
C806 C804 1.381 . S
C806 C807 1.394 . S
C806 H814 0.930 . S
C807 C806 1.394 . S
C807 C808 1.383 . S
C807 H815 0.929 . S
C808 C807 1.383 . S
C808 C809 1.377 . S
C809 H793 0.930 . S
C809 C808 1.377 . S
C809 C810 1.379 . S
C810 H794 0.931 . S
C810 C804 1.383 . S
C810 C809 1.379 . S
H811 C805 0.959 . S
H812 C805 0.961 . S
H813 C805 0.960 . S
H814 C806 0.930 . S
H815 C807 0.929 . S
H816 C824 0.929 . S
H817 C826 0.930 . S
H818 C828 0.930 . S
H819 C831 0.929 . S
H820 C834 0.930 . S
H821 C836 0.960 . S
H822 C836 0.960 . S
H823 C836 0.960 . S
C824 H816 0.929 . S
C824 C825 1.377 . S
C824 C826 1.384 . S
C825 C824 1.377 . S
C825 C831 1.390 . S
C826 H817 0.930 . S
C826 C824 1.384 . S
C826 C827 1.372 . S
C827 C826 1.372 . S
C827 C828 1.400 . S
C827 C832 1.490 . S
C828 H818 0.930 . S
C828 C827 1.400 . S
C828 C831 1.386 . S
H829 C845 0.930 . S
H830 C846 0.931 . S
C831 H819 0.929 . S
C831 C825 1.390 . S
C831 C828 1.386 . S
C832 C827 1.490 . S
C832 C834 1.395 . S
C832 C835 1.403 . S
H833 C839 0.930 . S
C834 H820 0.930 . S
C834 C832 1.395 . S
C834 C837 1.403 . S
C835 C832 1.403 . S
C835 C836 1.524 . S
C835 C839 1.400 . S
C836 H821 0.960 . S
C836 H822 0.960 . S
C836 H823 0.960 . S
C836 C835 1.524 . S
C837 C834 1.403 . S
C837 C838 1.392 . S
C837 C841 1.495 . S
C838 C837 1.392 . S
C838 C839 1.385 . S
C838 C840 1.478 . S
C839 H833 0.930 . S
C839 C835 1.400 . S
C839 C838 1.385 . S
C840 C838 1.478 . S
C840 C842 1.381 . S
C840 C846 1.383 . S
C841 C837 1.495 . S
C841 H847 0.959 . S
C841 H848 0.961 . S
C841 H849 0.960 . S
C842 C840 1.381 . S
C842 C843 1.394 . S
C842 H850 0.930 . S
C843 C842 1.394 . S
C843 C844 1.383 . S
C843 H851 0.929 . S
C844 C843 1.383 . S
C844 C845 1.377 . S
C845 H829 0.930 . S
C845 C844 1.377 . S
C845 C846 1.379 . S
C846 H830 0.931 . S
C846 C840 1.383 . S
C846 C845 1.379 . S
H847 C841 0.959 . S
H848 C841 0.961 . S
H849 C841 0.960 . S
H850 C842 0.930 . S
H851 C843 0.929 . S
H852 C860 0.929 . S
H853 C862 0.930 . S
H854 C864 0.930 . S
H855 C867 0.929 . S
H856 C870 0.930 . S
H857 C872 0.960 . S
H858 C872 0.960 . S
H859 C872 0.960 . S
C860 H852 0.929 . S
C860 C861 1.377 . S
C860 C862 1.384 . S
C861 C860 1.377 . S
C861 C867 1.390 . S
C862 H853 0.930 . S
C862 C860 1.384 . S
C862 C863 1.372 . S
C863 C862 1.372 . S
C863 C864 1.400 . S
C863 C868 1.490 . S
C864 H854 0.930 . S
C864 C863 1.400 . S
C864 C867 1.386 . S
H865 C881 0.930 . S
H866 C882 0.931 . S
C867 H855 0.929 . S
C867 C861 1.390 . S
C867 C864 1.386 . S
C868 C863 1.490 . S
C868 C870 1.395 . S
C868 C871 1.403 . S
H869 C875 0.930 . S
C870 H856 0.930 . S
C870 C868 1.395 . S
C870 C873 1.403 . S
C871 C868 1.403 . S
C871 C872 1.524 . S
C871 C875 1.400 . S
C872 H857 0.960 . S
C872 H858 0.960 . S
C872 H859 0.960 . S
C872 C871 1.524 . S
C873 C870 1.403 . S
C873 C874 1.392 . S
C873 C877 1.495 . S
C874 C873 1.392 . S
C874 C875 1.385 . S
C874 C876 1.478 . S
C875 H869 0.930 . S
C875 C871 1.400 . S
C875 C874 1.385 . S
C876 C874 1.478 . S
C876 C878 1.381 . S
C876 C882 1.383 . S
C877 C873 1.495 . S
C877 H883 0.959 . S
C877 H884 0.961 . S
C877 H885 0.960 . S
C878 C876 1.381 . S
C878 C879 1.394 . S
C878 H886 0.930 . S
C879 C878 1.394 . S
C879 C880 1.383 . S
C879 H887 0.929 . S
C880 C879 1.383 . S
C880 C881 1.377 . S
C881 H865 0.930 . S
C881 C880 1.377 . S
C881 C882 1.379 . S
C882 H866 0.931 . S
C882 C876 1.383 . S
C882 C881 1.379 . S
H883 C877 0.959 . S
H884 C877 0.961 . S
H885 C877 0.960 . S
H886 C878 0.930 . S
H887 C879 0.929 . S
H888 C896 0.929 . S
H889 C898 0.930 . S
H890 C900 0.930 . S
H891 C903 0.929 . S
H892 C906 0.930 . S
H893 C908 0.960 . S
H894 C908 0.960 . S
H895 C908 0.960 . S
C896 H888 0.929 . S
C896 C897 1.377 . S
C896 C898 1.384 . S
C897 C896 1.377 . S
C897 C903 1.390 . S
C898 H889 0.930 . S
C898 C896 1.384 . S
C898 C899 1.372 . S
C899 C898 1.372 . S
C899 C900 1.400 . S
C899 C904 1.490 . S
C900 H890 0.930 . S
C900 C899 1.400 . S
C900 C903 1.386 . S
H901 C917 0.930 . S
H902 C918 0.931 . S
C903 H891 0.929 . S
C903 C897 1.390 . S
C903 C900 1.386 . S
C904 C899 1.490 . S
C904 C906 1.395 . S
C904 C907 1.403 . S
H905 C911 0.930 . S
C906 H892 0.930 . S
C906 C904 1.395 . S
C906 C909 1.403 . S
C907 C904 1.403 . S
C907 C908 1.524 . S
C907 C911 1.400 . S
C908 H893 0.960 . S
C908 H894 0.960 . S
C908 H895 0.960 . S
C908 C907 1.524 . S
C909 C906 1.403 . S
C909 C910 1.392 . S
C909 C913 1.495 . S
C910 C909 1.392 . S
C910 C911 1.385 . S
C910 C912 1.478 . S
C911 H905 0.930 . S
C911 C907 1.400 . S
C911 C910 1.385 . S
C912 C910 1.478 . S
C912 C914 1.381 . S
C912 C918 1.383 . S
C913 C909 1.495 . S
C913 H919 0.959 . S
C913 H920 0.961 . S
C913 H921 0.960 . S
C914 C912 1.381 . S
C914 C915 1.394 . S
C914 H922 0.930 . S
C915 C914 1.394 . S
C915 C916 1.383 . S
C915 H923 0.929 . S
C916 C915 1.383 . S
C916 C917 1.377 . S
C917 H901 0.930 . S
C917 C916 1.377 . S
C917 C918 1.379 . S
C918 H902 0.931 . S
C918 C912 1.383 . S
C918 C917 1.379 . S
H919 C913 0.959 . S
H920 C913 0.961 . S
H921 C913 0.960 . S
H922 C914 0.930 . S
H923 C915 0.929 . S
H924 C932 0.929 . S
H925 C934 0.930 . S
H926 C936 0.930 . S
H927 C939 0.929 . S
H928 C942 0.930 . S
H929 C944 0.960 . S
H930 C944 0.960 . S
H931 C944 0.960 . S
C932 H924 0.929 . S
C932 C933 1.377 . S
C932 C934 1.384 . S
C933 C932 1.377 . S
C933 C939 1.390 . S
C934 H925 0.930 . S
C934 C932 1.384 . S
C934 C935 1.372 . S
C935 C934 1.372 . S
C935 C936 1.400 . S
C935 C940 1.490 . S
C936 H926 0.930 . S
C936 C935 1.400 . S
C936 C939 1.386 . S
H937 C953 0.930 . S
H938 C954 0.931 . S
C939 H927 0.929 . S
C939 C933 1.390 . S
C939 C936 1.386 . S
C940 C935 1.490 . S
C940 C942 1.395 . S
C940 C943 1.403 . S
H941 C947 0.930 . S
C942 H928 0.930 . S
C942 C940 1.395 . S
C942 C945 1.403 . S
C943 C940 1.403 . S
C943 C944 1.524 . S
C943 C947 1.400 . S
C944 H929 0.960 . S
C944 H930 0.960 . S
C944 H931 0.960 . S
C944 C943 1.524 . S
C945 C942 1.403 . S
C945 C946 1.392 . S
C945 C949 1.495 . S
C946 C945 1.392 . S
C946 C947 1.385 . S
C946 C948 1.478 . S
C947 H941 0.930 . S
C947 C943 1.400 . S
C947 C946 1.385 . S
C948 C946 1.478 . S
C948 C950 1.381 . S
C948 C954 1.383 . S
C949 C945 1.495 . S
C949 H955 0.959 . S
C949 H956 0.961 . S
C949 H957 0.960 . S
C950 C948 1.381 . S
C950 C951 1.394 . S
C950 H958 0.930 . S
C951 C950 1.394 . S
C951 C952 1.383 . S
C951 H959 0.929 . S
C952 C951 1.383 . S
C952 C953 1.377 . S
C953 H937 0.930 . S
C953 C952 1.377 . S
C953 C954 1.379 . S
C954 H938 0.931 . S
C954 C948 1.383 . S
C954 C953 1.379 . S
H955 C949 0.959 . S
H956 C949 0.961 . S
H957 C949 0.960 . S
H958 C950 0.930 . S
H959 C951 0.929 . S
H960 C968 0.929 . S
H961 C970 0.930 . S
H962 C972 0.930 . S
H963 C975 0.929 . S
H964 C978 0.930 . S
H965 C980 0.960 . S
H966 C980 0.960 . S
H967 C980 0.960 . S
C968 H960 0.929 . S
C968 C969 1.377 . S
C968 C970 1.384 . S
C969 C968 1.377 . S
C969 C975 1.390 . S
C970 H961 0.930 . S
C970 C968 1.384 . S
C970 C971 1.372 . S
C971 C970 1.372 . S
C971 C972 1.400 . S
C971 C976 1.490 . S
C972 H962 0.930 . S
C972 C971 1.400 . S
C972 C975 1.386 . S
H973 C989 0.930 . S
H974 C990 0.931 . S
C975 H963 0.929 . S
C975 C969 1.390 . S
C975 C972 1.386 . S
C976 C971 1.490 . S
C976 C978 1.395 . S
C976 C979 1.403 . S
H977 C983 0.930 . S
C978 H964 0.930 . S
C978 C976 1.395 . S
C978 C981 1.403 . S
C979 C976 1.403 . S
C979 C980 1.524 . S
C979 C983 1.400 . S
C980 H965 0.960 . S
C980 H966 0.960 . S
C980 H967 0.960 . S
C980 C979 1.524 . S
C981 C978 1.403 . S
C981 C982 1.392 . S
C981 C985 1.495 . S
C982 C981 1.392 . S
C982 C983 1.385 . S
C982 C984 1.478 . S
C983 H977 0.930 . S
C983 C979 1.400 . S
C983 C982 1.385 . S
C984 C982 1.478 . S
C984 C986 1.381 . S
C984 C990 1.383 . S
C985 C981 1.495 . S
C985 H991 0.959 . S
C985 H992 0.961 . S
C985 H993 0.960 . S
C986 C984 1.381 . S
C986 C987 1.394 . S
C986 H994 0.930 . S
C987 C986 1.394 . S
C987 C988 1.383 . S
C987 H995 0.929 . S
C988 C987 1.383 . S
C988 C989 1.377 . S
C989 H973 0.930 . S
C989 C988 1.377 . S
C989 C990 1.379 . S
C990 H974 0.931 . S
C990 C984 1.383 . S
C990 C989 1.379 . S
H991 C985 0.959 . S
H992 C985 0.961 . S
H993 C985 0.960 . S
H994 C986 0.930 . S
H995 C987 0.929 . S
H996 C1004 0.929 . S
H997 C1006 0.930 . S
H998 C1008 0.930 . S
H999 C1011 0.929 . S
H1000 C1014 0.930 . S
H1001 C1016 0.960 . S
H1002 C1016 0.960 . S
H1003 C1016 0.960 . S
C1004 H996 0.929 . S
C1004 C1005 1.377 . S
C1004 C1006 1.384 . S
C1005 C1004 1.377 . S
C1005 C1011 1.390 . S
C1006 H997 0.930 . S
C1006 C1004 1.384 . S
C1006 C1007 1.372 . S
C1007 C1006 1.372 . S
C1007 C1008 1.400 . S
C1007 C1012 1.490 . S
C1008 H998 0.930 . S
C1008 C1007 1.400 . S
C1008 C1011 1.386 . S
H1009 C1025 0.930 . S
H1010 C1026 0.931 . S
C1011 H999 0.929 . S
C1011 C1005 1.390 . S
C1011 C1008 1.386 . S
C1012 C1007 1.490 . S
C1012 C1014 1.395 . S
C1012 C1015 1.403 . S
H1013 C1019 0.930 . S
C1014 H1000 0.930 . S
C1014 C1012 1.395 . S
C1014 C1017 1.403 . S
C1015 C1012 1.403 . S
C1015 C1016 1.524 . S
C1015 C1019 1.400 . S
C1016 H1001 0.960 . S
C1016 H1002 0.960 . S
C1016 H1003 0.960 . S
C1016 C1015 1.524 . S
C1017 C1014 1.403 . S
C1017 C1018 1.392 . S
C1017 C1021 1.495 . S
C1018 C1017 1.392 . S
C1018 C1019 1.385 . S
C1018 C1020 1.478 . S
C1019 H1013 0.930 . S
C1019 C1015 1.400 . S
C1019 C1018 1.385 . S
C1020 C1018 1.478 . S
C1020 C1022 1.381 . S
C1020 C1026 1.383 . S
C1021 C1017 1.495 . S
C1021 H1027 0.959 . S
C1021 H1028 0.961 . S
C1021 H1029 0.960 . S
C1022 C1020 1.381 . S
C1022 C1023 1.394 . S
C1022 H1030 0.930 . S
C1023 C1022 1.394 . S
C1023 C1024 1.383 . S
C1023 H1031 0.929 . S
C1024 C1023 1.383 . S
C1024 C1025 1.377 . S
C1025 H1009 0.930 . S
C1025 C1024 1.377 . S
C1025 C1026 1.379 . S
C1026 H1010 0.931 . S
C1026 C1020 1.383 . S
C1026 C1025 1.379 . S
H1027 C1021 0.959 . S
H1028 C1021 0.961 . S
H1029 C1021 0.960 . S
H1030 C1022 0.930 . S
H1031 C1023 0.929 . S
H1032 C1040 0.929 . S
H1033 C1042 0.930 . S
H1034 C1044 0.930 . S
H1035 C1047 0.929 . S
H1036 C1050 0.930 . S
H1037 C1052 0.960 . S
H1038 C1052 0.960 . S
H1039 C1052 0.960 . S
C1040 H1032 0.929 . S
C1040 C1041 1.377 . S
C1040 C1042 1.384 . S
C1041 C1040 1.377 . S
C1041 C1047 1.390 . S
C1042 H1033 0.930 . S
C1042 C1040 1.384 . S
C1042 C1043 1.372 . S
C1043 C1042 1.372 . S
C1043 C1044 1.400 . S
C1043 C1048 1.490 . S
C1044 H1034 0.930 . S
C1044 C1043 1.400 . S
C1044 C1047 1.386 . S
H1045 C1061 0.930 . S
H1046 C1062 0.931 . S
C1047 H1035 0.929 . S
C1047 C1041 1.390 . S
C1047 C1044 1.386 . S
C1048 C1043 1.490 . S
C1048 C1050 1.395 . S
C1048 C1051 1.403 . S
H1049 C1055 0.930 . S
C1050 H1036 0.930 . S
C1050 C1048 1.395 . S
C1050 C1053 1.403 . S
C1051 C1048 1.403 . S
C1051 C1052 1.524 . S
C1051 C1055 1.400 . S
C1052 H1037 0.960 . S
C1052 H1038 0.960 . S
C1052 H1039 0.960 . S
C1052 C1051 1.524 . S
C1053 C1050 1.403 . S
C1053 C1054 1.392 . S
C1053 C1057 1.495 . S
C1054 C1053 1.392 . S
C1054 C1055 1.385 . S
C1054 C1056 1.478 . S
C1055 H1049 0.930 . S
C1055 C1051 1.400 . S
C1055 C1054 1.385 . S
C1056 C1054 1.478 . S
C1056 C1058 1.381 . S
C1056 C1062 1.383 . S
C1057 C1053 1.495 . S
C1057 H1063 0.959 . S
C1057 H1064 0.961 . S
C1057 H1065 0.960 . S
C1058 C1056 1.381 . S
C1058 C1059 1.394 . S
C1058 H1066 0.930 . S
C1059 C1058 1.394 . S
C1059 C1060 1.383 . S
C1059 H1067 0.929 . S
C1060 C1059 1.383 . S
C1060 C1061 1.377 . S
C1061 H1045 0.930 . S
C1061 C1060 1.377 . S
C1061 C1062 1.379 . S
C1062 H1046 0.931 . S
C1062 C1056 1.383 . S
C1062 C1061 1.379 . S
H1063 C1057 0.959 . S
H1064 C1057 0.961 . S
H1065 C1057 0.960 . S
H1066 C1058 0.930 . S
H1067 C1059 0.929 . S
H1068 C1076 0.929 . S
H1069 C1078 0.930 . S
H1070 C1080 0.930 . S
H1071 C1083 0.929 . S
H1072 C1086 0.930 . S
H1073 C1088 0.960 . S
H1074 C1088 0.960 . S
H1075 C1088 0.960 . S
C1076 H1068 0.929 . S
C1076 C1077 1.377 . S
C1076 C1078 1.384 . S
C1077 C1076 1.377 . S
C1077 C1083 1.390 . S
C1078 H1069 0.930 . S
C1078 C1076 1.384 . S
C1078 C1079 1.372 . S
C1079 C1078 1.372 . S
C1079 C1080 1.400 . S
C1079 C1084 1.490 . S
C1080 H1070 0.930 . S
C1080 C1079 1.400 . S
C1080 C1083 1.386 . S
H1081 C1097 0.930 . S
H1082 C1098 0.931 . S
C1083 H1071 0.929 . S
C1083 C1077 1.390 . S
C1083 C1080 1.386 . S
C1084 C1079 1.490 . S
C1084 C1086 1.395 . S
C1084 C1087 1.403 . S
H1085 C1091 0.930 . S
C1086 H1072 0.930 . S
C1086 C1084 1.395 . S
C1086 C1089 1.403 . S
C1087 C1084 1.403 . S
C1087 C1088 1.524 . S
C1087 C1091 1.400 . S
C1088 H1073 0.960 . S
C1088 H1074 0.960 . S
C1088 H1075 0.960 . S
C1088 C1087 1.524 . S
C1089 C1086 1.403 . S
C1089 C1090 1.392 . S
C1089 C1093 1.495 . S
C1090 C1089 1.392 . S
C1090 C1091 1.385 . S
C1090 C1092 1.478 . S
C1091 H1085 0.930 . S
C1091 C1087 1.400 . S
C1091 C1090 1.385 . S
C1092 C1090 1.478 . S
C1092 C1094 1.381 . S
C1092 C1098 1.383 . S
C1093 C1089 1.495 . S
C1093 H1099 0.959 . S
C1093 H1100 0.961 . S
C1093 H1101 0.960 . S
C1094 C1092 1.381 . S
C1094 C1095 1.394 . S
C1094 H1102 0.930 . S
C1095 C1094 1.394 . S
C1095 C1096 1.383 . S
C1095 H1103 0.929 . S
C1096 C1095 1.383 . S
C1096 C1097 1.377 . S
C1097 H1081 0.930 . S
C1097 C1096 1.377 . S
C1097 C1098 1.379 . S
C1098 H1082 0.931 . S
C1098 C1092 1.383 . S
C1098 C1097 1.379 . S
H1099 C1093 0.959 . S
H1100 C1093 0.961 . S
H1101 C1093 0.960 . S
H1102 C1094 0.930 . S
H1103 C1095 0.929 . S
H1104 C1112 0.929 . S
H1105 C1114 0.930 . S
H1106 C1116 0.930 . S
H1107 C1119 0.929 . S
H1108 C1122 0.930 . S
H1109 C1124 0.960 . S
H1110 C1124 0.960 . S
H1111 C1124 0.960 . S
C1112 H1104 0.929 . S
C1112 C1113 1.377 . S
C1112 C1114 1.384 . S
C1113 C1112 1.377 . S
C1113 C1119 1.390 . S
C1114 H1105 0.930 . S
C1114 C1112 1.384 . S
C1114 C1115 1.372 . S
C1115 C1114 1.372 . S
C1115 C1116 1.400 . S
C1115 C1120 1.490 . S
C1116 H1106 0.930 . S
C1116 C1115 1.400 . S
C1116 C1119 1.386 . S
H1117 C1133 0.930 . S
H1118 C1134 0.931 . S
C1119 H1107 0.929 . S
C1119 C1113 1.390 . S
C1119 C1116 1.386 . S
C1120 C1115 1.490 . S
C1120 C1122 1.395 . S
C1120 C1123 1.403 . S
H1121 C1127 0.930 . S
C1122 H1108 0.930 . S
C1122 C1120 1.395 . S
C1122 C1125 1.403 . S
C1123 C1120 1.403 . S
C1123 C1124 1.524 . S
C1123 C1127 1.400 . S
C1124 H1109 0.960 . S
C1124 H1110 0.960 . S
C1124 H1111 0.960 . S
C1124 C1123 1.524 . S
C1125 C1122 1.403 . S
C1125 C1126 1.392 . S
C1125 C1129 1.495 . S
C1126 C1125 1.392 . S
C1126 C1127 1.385 . S
C1126 C1128 1.478 . S
C1127 H1121 0.930 . S
C1127 C1123 1.400 . S
C1127 C1126 1.385 . S
C1128 C1126 1.478 . S
C1128 C1130 1.381 . S
C1128 C1134 1.383 . S
C1129 C1125 1.495 . S
C1129 H1135 0.959 . S
C1129 H1136 0.961 . S
C1129 H1137 0.960 . S
C1130 C1128 1.381 . S
C1130 C1131 1.394 . S
C1130 H1138 0.930 . S
C1131 C1130 1.394 . S
C1131 C1132 1.383 . S
C1131 H1139 0.929 . S
C1132 C1131 1.383 . S
C1132 C1133 1.377 . S
C1133 H1117 0.930 . S
C1133 C1132 1.377 . S
C1133 C1134 1.379 . S
C1134 H1118 0.931 . S
C1134 C1128 1.383 . S
C1134 C1133 1.379 . S
H1135 C1129 0.959 . S
H1136 C1129 0.961 . S
H1137 C1129 0.960 . S
H1138 C1130 0.930 . S
H1139 C1131 0.929 . S
H1140 C1148 0.929 . S
H1141 C1150 0.930 . S
H1142 C1152 0.930 . S
H1143 C1155 0.929 . S
H1144 C1158 0.930 . S
H1145 C1160 0.960 . S
H1146 C1160 0.960 . S
H1147 C1160 0.960 . S
C1148 H1140 0.929 . S
C1148 C1149 1.377 . S
C1148 C1150 1.384 . S
C1149 C1148 1.377 . S
C1149 C1155 1.390 . S
C1150 H1141 0.930 . S
C1150 C1148 1.384 . S
C1150 C1151 1.372 . S
C1151 C1150 1.372 . S
C1151 C1152 1.400 . S
C1151 C1156 1.490 . S
C1152 H1142 0.930 . S
C1152 C1151 1.400 . S
C1152 C1155 1.386 . S
H1153 C1169 0.930 . S
H1154 C1170 0.931 . S
C1155 H1143 0.929 . S
C1155 C1149 1.390 . S
C1155 C1152 1.386 . S
C1156 C1151 1.490 . S
C1156 C1158 1.395 . S
C1156 C1159 1.403 . S
H1157 C1163 0.930 . S
C1158 H1144 0.930 . S
C1158 C1156 1.395 . S
C1158 C1161 1.403 . S
C1159 C1156 1.403 . S
C1159 C1160 1.524 . S
C1159 C1163 1.400 . S
C1160 H1145 0.960 . S
C1160 H1146 0.960 . S
C1160 H1147 0.960 . S
C1160 C1159 1.524 . S
C1161 C1158 1.403 . S
C1161 C1162 1.392 . S
C1161 C1165 1.495 . S
C1162 C1161 1.392 . S
C1162 C1163 1.385 . S
C1162 C1164 1.478 . S
C1163 H1157 0.930 . S
C1163 C1159 1.400 . S
C1163 C1162 1.385 . S
C1164 C1162 1.478 . S
C1164 C1166 1.381 . S
C1164 C1170 1.383 . S
C1165 C1161 1.495 . S
C1165 H1171 0.959 . S
C1165 H1172 0.961 . S
C1165 H1173 0.960 . S
C1166 C1164 1.381 . S
C1166 C1167 1.394 . S
C1166 H1174 0.930 . S
C1167 C1166 1.394 . S
C1167 C1168 1.383 . S
C1167 H1175 0.929 . S
C1168 C1167 1.383 . S
C1168 C1169 1.377 . S
C1169 H1153 0.930 . S
C1169 C1168 1.377 . S
C1169 C1170 1.379 . S
C1170 H1154 0.931 . S
C1170 C1164 1.383 . S
C1170 C1169 1.379 . S
H1171 C1165 0.959 . S
H1172 C1165 0.961 . S
H1173 C1165 0.960 . S
H1174 C1166 0.930 . S
H1175 C1167 0.929 . S
H1176 C1184 0.929 . S
H1177 C1186 0.930 . S
H1178 C1188 0.930 . S
H1179 C1191 0.929 . S
H1180 C1194 0.930 . S
H1181 C1196 0.960 . S
H1182 C1196 0.960 . S
H1183 C1196 0.960 . S
C1184 H1176 0.929 . S
C1184 C1185 1.377 . S
C1184 C1186 1.384 . S
C1185 C1184 1.377 . S
C1185 C1191 1.390 . S
C1186 H1177 0.930 . S
C1186 C1184 1.384 . S
C1186 C1187 1.372 . S
C1187 C1186 1.372 . S
C1187 C1188 1.400 . S
C1187 C1192 1.490 . S
C1188 H1178 0.930 . S
C1188 C1187 1.400 . S
C1188 C1191 1.386 . S
H1189 C1205 0.930 . S
H1190 C1206 0.931 . S
C1191 H1179 0.929 . S
C1191 C1185 1.390 . S
C1191 C1188 1.386 . S
C1192 C1187 1.490 . S
C1192 C1194 1.395 . S
C1192 C1195 1.403 . S
H1193 C1199 0.930 . S
C1194 H1180 0.930 . S
C1194 C1192 1.395 . S
C1194 C1197 1.403 . S
C1195 C1192 1.403 . S
C1195 C1196 1.524 . S
C1195 C1199 1.400 . S
C1196 H1181 0.960 . S
C1196 H1182 0.960 . S
C1196 H1183 0.960 . S
C1196 C1195 1.524 . S
C1197 C1194 1.403 . S
C1197 C1198 1.392 . S
C1197 C1201 1.495 . S
C1198 C1197 1.392 . S
C1198 C1199 1.385 . S
C1198 C1200 1.478 . S
C1199 H1193 0.930 . S
C1199 C1195 1.400 . S
C1199 C1198 1.385 . S
C1200 C1198 1.478 . S
C1200 C1202 1.381 . S
C1200 C1206 1.383 . S
C1201 C1197 1.495 . S
C1201 H1207 0.959 . S
C1201 H1208 0.961 . S
C1201 H1209 0.960 . S
C1202 C1200 1.381 . S
C1202 C1203 1.394 . S
C1202 H1210 0.930 . S
C1203 C1202 1.394 . S
C1203 C1204 1.383 . S
C1203 H1211 0.929 . S
C1204 C1203 1.383 . S
C1204 C1205 1.377 . S
C1205 H1189 0.930 . S
C1205 C1204 1.377 . S
C1205 C1206 1.379 . S
C1206 H1190 0.931 . S
C1206 C1200 1.383 . S
C1206 C1205 1.379 . S
H1207 C1201 0.959 . S
H1208 C1201 0.961 . S
H1209 C1201 0.960 . S
H1210 C1202 0.930 . S
H1211 C1203 0.929 . S
H1212 C1220 0.929 . S
H1213 C1222 0.930 . S
H1214 C1224 0.930 . S
H1215 C1227 0.929 . S
H1216 C1230 0.930 . S
H1217 C1232 0.960 . S
H1218 C1232 0.960 . S
H1219 C1232 0.960 . S
C1220 H1212 0.929 . S
C1220 C1221 1.377 . S
C1220 C1222 1.384 . S
C1221 C1220 1.377 . S
C1221 C1227 1.390 . S
C1222 H1213 0.930 . S
C1222 C1220 1.384 . S
C1222 C1223 1.372 . S
C1223 C1222 1.372 . S
C1223 C1224 1.400 . S
C1223 C1228 1.490 . S
C1224 H1214 0.930 . S
C1224 C1223 1.400 . S
C1224 C1227 1.386 . S
H1225 C1241 0.930 . S
H1226 C1242 0.931 . S
C1227 H1215 0.929 . S
C1227 C1221 1.390 . S
C1227 C1224 1.386 . S
C1228 C1223 1.490 . S
C1228 C1230 1.395 . S
C1228 C1231 1.403 . S
H1229 C1235 0.930 . S
C1230 H1216 0.930 . S
C1230 C1228 1.395 . S
C1230 C1233 1.403 . S
C1231 C1228 1.403 . S
C1231 C1232 1.524 . S
C1231 C1235 1.400 . S
C1232 H1217 0.960 . S
C1232 H1218 0.960 . S
C1232 H1219 0.960 . S
C1232 C1231 1.524 . S
C1233 C1230 1.403 . S
C1233 C1234 1.392 . S
C1233 C1237 1.495 . S
C1234 C1233 1.392 . S
C1234 C1235 1.385 . S
C1234 C1236 1.478 . S
C1235 H1229 0.930 . S
C1235 C1231 1.400 . S
C1235 C1234 1.385 . S
C1236 C1234 1.478 . S
C1236 C1238 1.381 . S
C1236 C1242 1.383 . S
C1237 C1233 1.495 . S
C1237 H1243 0.959 . S
C1237 H1244 0.961 . S
C1237 H1245 0.960 . S
C1238 C1236 1.381 . S
C1238 C1239 1.394 . S
C1238 H1246 0.930 . S
C1239 C1238 1.394 . S
C1239 C1240 1.383 . S
C1239 H1247 0.929 . S
C1240 C1239 1.383 . S
C1240 C1241 1.377 . S
C1241 H1225 0.930 . S
C1241 C1240 1.377 . S
C1241 C1242 1.379 . S
C1242 H1226 0.931 . S
C1242 C1236 1.383 . S
C1242 C1241 1.379 . S
H1243 C1237 0.959 . S
H1244 C1237 0.961 . S
H1245 C1237 0.960 . S
H1246 C1238 0.930 . S
H1247 C1239 0.929 . S
H1248 C1256 0.929 . S
H1249 C1258 0.930 . S
H1250 C1260 0.930 . S
H1251 C1263 0.929 . S
H1252 C1266 0.930 . S
H1253 C1268 0.960 . S
H1254 C1268 0.960 . S
H1255 C1268 0.960 . S
C1256 H1248 0.929 . S
C1256 C1257 1.377 . S
C1256 C1258 1.384 . S
C1257 C1256 1.377 . S
C1257 C1263 1.390 . S
C1258 H1249 0.930 . S
C1258 C1256 1.384 . S
C1258 C1259 1.372 . S
C1259 C1258 1.372 . S
C1259 C1260 1.400 . S
C1259 C1264 1.490 . S
C1260 H1250 0.930 . S
C1260 C1259 1.400 . S
C1260 C1263 1.386 . S
H1261 C1277 0.930 . S
H1262 C1278 0.931 . S
C1263 H1251 0.929 . S
C1263 C1257 1.390 . S
C1263 C1260 1.386 . S
C1264 C1259 1.490 . S
C1264 C1266 1.395 . S
C1264 C1267 1.403 . S
H1265 C1271 0.930 . S
C1266 H1252 0.930 . S
C1266 C1264 1.395 . S
C1266 C1269 1.403 . S
C1267 C1264 1.403 . S
C1267 C1268 1.524 . S
C1267 C1271 1.400 . S
C1268 H1253 0.960 . S
C1268 H1254 0.960 . S
C1268 H1255 0.960 . S
C1268 C1267 1.524 . S
C1269 C1266 1.403 . S
C1269 C1270 1.392 . S
C1269 C1273 1.495 . S
C1270 C1269 1.392 . S
C1270 C1271 1.385 . S
C1270 C1272 1.478 . S
C1271 H1265 0.930 . S
C1271 C1267 1.400 . S
C1271 C1270 1.385 . S
C1272 C1270 1.478 . S
C1272 C1274 1.381 . S
C1272 C1278 1.383 . S
C1273 C1269 1.495 . S
C1273 H1279 0.959 . S
C1273 H1280 0.961 . S
C1273 H1281 0.960 . S
C1274 C1272 1.381 . S
C1274 C1275 1.394 . S
C1274 H1282 0.930 . S
C1275 C1274 1.394 . S
C1275 C1276 1.383 . S
C1275 H1283 0.929 . S
C1276 C1275 1.383 . S
C1276 C1277 1.377 . S
C1277 H1261 0.930 . S
C1277 C1276 1.377 . S
C1277 C1278 1.379 . S
C1278 H1262 0.931 . S
C1278 C1272 1.383 . S
C1278 C1277 1.379 . S
H1279 C1273 0.959 . S
H1280 C1273 0.961 . S
H1281 C1273 0.960 . S
H1282 C1274 0.930 . S
H1283 C1275 0.929 . S
H1284 C1292 0.929 . S
H1285 C1294 0.930 . S
H1286 C1296 0.930 . S
H1287 C1299 0.929 . S
H1288 C1302 0.930 . S
H1289 C1304 0.960 . S
H1290 C1304 0.960 . S
H1291 C1304 0.960 . S
C1292 H1284 0.929 . S
C1292 C1293 1.377 . S
C1292 C1294 1.384 . S
C1293 C1292 1.377 . S
C1293 C1299 1.390 . S
C1294 H1285 0.930 . S
C1294 C1292 1.384 . S
C1294 C1295 1.372 . S
C1295 C1294 1.372 . S
C1295 C1296 1.400 . S
C1295 C1300 1.490 . S
C1296 H1286 0.930 . S
C1296 C1295 1.400 . S
C1296 C1299 1.386 . S
H1297 C1313 0.930 . S
H1298 C1314 0.931 . S
C1299 H1287 0.929 . S
C1299 C1293 1.390 . S
C1299 C1296 1.386 . S
C1300 C1295 1.490 . S
C1300 C1302 1.395 . S
C1300 C1303 1.403 . S
H1301 C1307 0.930 . S
C1302 H1288 0.930 . S
C1302 C1300 1.395 . S
C1302 C1305 1.403 . S
C1303 C1300 1.403 . S
C1303 C1304 1.524 . S
C1303 C1307 1.400 . S
C1304 H1289 0.960 . S
C1304 H1290 0.960 . S
C1304 H1291 0.960 . S
C1304 C1303 1.524 . S
C1305 C1302 1.403 . S
C1305 C1306 1.392 . S
C1305 C1309 1.495 . S
C1306 C1305 1.392 . S
C1306 C1307 1.385 . S
C1306 C1308 1.478 . S
C1307 H1301 0.930 . S
C1307 C1303 1.400 . S
C1307 C1306 1.385 . S
C1308 C1306 1.478 . S
C1308 C1310 1.381 . S
C1308 C1314 1.383 . S
C1309 C1305 1.495 . S
C1309 H1315 0.959 . S
C1309 H1316 0.961 . S
C1309 H1317 0.960 . S
C1310 C1308 1.381 . S
C1310 C1311 1.394 . S
C1310 H1318 0.930 . S
C1311 C1310 1.394 . S
C1311 C1312 1.383 . S
C1311 H1319 0.929 . S
C1312 C1311 1.383 . S
C1312 C1313 1.377 . S
C1313 H1297 0.930 . S
C1313 C1312 1.377 . S
C1313 C1314 1.379 . S
C1314 H1298 0.931 . S
C1314 C1308 1.383 . S
C1314 C1313 1.379 . S
H1315 C1309 0.959 . S
H1316 C1309 0.961 . S
H1317 C1309 0.960 . S
H1318 C1310 0.930 . S
H1319 C1311 0.929 . S
H1320 C1328 0.929 . S
H1321 C1330 0.930 . S
H1322 C1332 0.930 . S
H1323 C1335 0.929 . S
H1324 C1338 0.930 . S
H1325 C1340 0.960 . S
H1326 C1340 0.960 . S
H1327 C1340 0.960 . S
C1328 H1320 0.929 . S
C1328 C1329 1.377 . S
C1328 C1330 1.384 . S
C1329 C1328 1.377 . S
C1329 C1335 1.390 . S
C1330 H1321 0.930 . S
C1330 C1328 1.384 . S
C1330 C1331 1.372 . S
C1331 C1330 1.372 . S
C1331 C1332 1.400 . S
C1331 C1336 1.490 . S
C1332 H1322 0.930 . S
C1332 C1331 1.400 . S
C1332 C1335 1.386 . S
H1333 C1349 0.930 . S
H1334 C1350 0.931 . S
C1335 H1323 0.929 . S
C1335 C1329 1.390 . S
C1335 C1332 1.386 . S
C1336 C1331 1.490 . S
C1336 C1338 1.395 . S
C1336 C1339 1.403 . S
H1337 C1343 0.930 . S
C1338 H1324 0.930 . S
C1338 C1336 1.395 . S
C1338 C1341 1.403 . S
C1339 C1336 1.403 . S
C1339 C1340 1.524 . S
C1339 C1343 1.400 . S
C1340 H1325 0.960 . S
C1340 H1326 0.960 . S
C1340 H1327 0.960 . S
C1340 C1339 1.524 . S
C1341 C1338 1.403 . S
C1341 C1342 1.392 . S
C1341 C1345 1.495 . S
C1342 C1341 1.392 . S
C1342 C1343 1.385 . S
C1342 C1344 1.478 . S
C1343 H1337 0.930 . S
C1343 C1339 1.400 . S
C1343 C1342 1.385 . S
C1344 C1342 1.478 . S
C1344 C1346 1.381 . S
C1344 C1350 1.383 . S
C1345 C1341 1.495 . S
C1345 H1351 0.959 . S
C1345 H1352 0.961 . S
C1345 H1353 0.960 . S
C1346 C1344 1.381 . S
C1346 C1347 1.394 . S
C1346 H1354 0.930 . S
C1347 C1346 1.394 . S
C1347 C1348 1.383 . S
C1347 H1355 0.929 . S
C1348 C1347 1.383 . S
C1348 C1349 1.377 . S
C1349 H1333 0.930 . S
C1349 C1348 1.377 . S
C1349 C1350 1.379 . S
C1350 H1334 0.931 . S
C1350 C1344 1.383 . S
C1350 C1349 1.379 . S
H1351 C1345 0.959 . S
H1352 C1345 0.961 . S
H1353 C1345 0.960 . S
H1354 C1346 0.930 . S
H1355 C1347 0.929 . S
H1356 C1364 0.929 . S
H1357 C1366 0.930 . S
H1358 C1368 0.930 . S
H1359 C1371 0.929 . S
H1360 C1374 0.930 . S
H1361 C1376 0.960 . S
H1362 C1376 0.960 . S
H1363 C1376 0.960 . S
C1364 H1356 0.929 . S
C1364 C1365 1.377 . S
C1364 C1366 1.384 . S
C1365 C1364 1.377 . S
C1365 C1371 1.390 . S
C1366 H1357 0.930 . S
C1366 C1364 1.384 . S
C1366 C1367 1.372 . S
C1367 C1366 1.372 . S
C1367 C1368 1.400 . S
C1367 C1372 1.490 . S
C1368 H1358 0.930 . S
C1368 C1367 1.400 . S
C1368 C1371 1.386 . S
H1369 C1385 0.930 . S
H1370 C1386 0.931 . S
C1371 H1359 0.929 . S
C1371 C1365 1.390 . S
C1371 C1368 1.386 . S
C1372 C1367 1.490 . S
C1372 C1374 1.395 . S
C1372 C1375 1.403 . S
H1373 C1379 0.930 . S
C1374 H1360 0.930 . S
C1374 C1372 1.395 . S
C1374 C1377 1.403 . S
C1375 C1372 1.403 . S
C1375 C1376 1.524 . S
C1375 C1379 1.400 . S
C1376 H1361 0.960 . S
C1376 H1362 0.960 . S
C1376 H1363 0.960 . S
C1376 C1375 1.524 . S
C1377 C1374 1.403 . S
C1377 C1378 1.392 . S
C1377 C1381 1.495 . S
C1378 C1377 1.392 . S
C1378 C1379 1.385 . S
C1378 C1380 1.478 . S
C1379 H1373 0.930 . S
C1379 C1375 1.400 . S
C1379 C1378 1.385 . S
C1380 C1378 1.478 . S
C1380 C1382 1.381 . S
C1380 C1386 1.383 . S
C1381 C1377 1.495 . S
C1381 H1387 0.959 . S
C1381 H1388 0.961 . S
C1381 H1389 0.960 . S
C1382 C1380 1.381 . S
C1382 C1383 1.394 . S
C1382 H1390 0.930 . S
C1383 C1382 1.394 . S
C1383 C1384 1.383 . S
C1383 H1391 0.929 . S
C1384 C1383 1.383 . S
C1384 C1385 1.377 . S
C1385 H1369 0.930 . S
C1385 C1384 1.377 . S
C1385 C1386 1.379 . S
C1386 H1370 0.931 . S
C1386 C1380 1.383 . S
C1386 C1385 1.379 . S
H1387 C1381 0.959 . S
H1388 C1381 0.961 . S
H1389 C1381 0.960 . S
H1390 C1382 0.930 . S
H1391 C1383 0.929 . S
H1392 C1400 0.929 . S
H1393 C1402 0.930 . S
H1394 C1404 0.930 . S
H1395 C1407 0.929 . S
H1396 C1410 0.930 . S
H1397 C1412 0.960 . S
H1398 C1412 0.960 . S
H1399 C1412 0.960 . S
C1400 H1392 0.929 . S
C1400 C1401 1.377 . S
C1400 C1402 1.384 . S
C1401 C1400 1.377 . S
C1401 C1407 1.390 . S
C1402 H1393 0.930 . S
C1402 C1400 1.384 . S
C1402 C1403 1.372 . S
C1403 C1402 1.372 . S
C1403 C1404 1.400 . S
C1403 C1408 1.490 . S
C1404 H1394 0.930 . S
C1404 C1403 1.400 . S
C1404 C1407 1.386 . S
H1405 C1421 0.930 . S
H1406 C1422 0.931 . S
C1407 H1395 0.929 . S
C1407 C1401 1.390 . S
C1407 C1404 1.386 . S
C1408 C1403 1.490 . S
C1408 C1410 1.395 . S
C1408 C1411 1.403 . S
H1409 C1415 0.930 . S
C1410 H1396 0.930 . S
C1410 C1408 1.395 . S
C1410 C1413 1.403 . S
C1411 C1408 1.403 . S
C1411 C1412 1.524 . S
C1411 C1415 1.400 . S
C1412 H1397 0.960 . S
C1412 H1398 0.960 . S
C1412 H1399 0.960 . S
C1412 C1411 1.524 . S
C1413 C1410 1.403 . S
C1413 C1414 1.392 . S
C1413 C1417 1.495 . S
C1414 C1413 1.392 . S
C1414 C1415 1.385 . S
C1414 C1416 1.478 . S
C1415 H1409 0.930 . S
C1415 C1411 1.400 . S
C1415 C1414 1.385 . S
C1416 C1414 1.478 . S
C1416 C1418 1.381 . S
C1416 C1422 1.383 . S
C1417 C1413 1.495 . S
C1417 H1423 0.959 . S
C1417 H1424 0.961 . S
C1417 H1425 0.960 . S
C1418 C1416 1.381 . S
C1418 C1419 1.394 . S
C1418 H1426 0.930 . S
C1419 C1418 1.394 . S
C1419 C1420 1.383 . S
C1419 H1427 0.929 . S
C1420 C1419 1.383 . S
C1420 C1421 1.377 . S
C1421 H1405 0.930 . S
C1421 C1420 1.377 . S
C1421 C1422 1.379 . S
C1422 H1406 0.931 . S
C1422 C1416 1.383 . S
C1422 C1421 1.379 . S
H1423 C1417 0.959 . S
H1424 C1417 0.961 . S
H1425 C1417 0.960 . S
H1426 C1418 0.930 . S
H1427 C1419 0.929 . S
H1428 C1436 0.929 . S
H1429 C1438 0.930 . S
H1430 C1440 0.930 . S
H1431 C1443 0.929 . S
H1432 C1446 0.930 . S
H1433 C1448 0.960 . S
H1434 C1448 0.960 . S
H1435 C1448 0.960 . S
C1436 H1428 0.929 . S
C1436 C1437 1.377 . S
C1436 C1438 1.384 . S
C1437 C1436 1.377 . S
C1437 C1443 1.390 . S
C1438 H1429 0.930 . S
C1438 C1436 1.384 . S
C1438 C1439 1.372 . S
C1439 C1438 1.372 . S
C1439 C1440 1.400 . S
C1439 C1444 1.490 . S
C1440 H1430 0.930 . S
C1440 C1439 1.400 . S
C1440 C1443 1.386 . S
H1441 C1457 0.930 . S
H1442 C1458 0.931 . S
C1443 H1431 0.929 . S
C1443 C1437 1.390 . S
C1443 C1440 1.386 . S
C1444 C1439 1.490 . S
C1444 C1446 1.395 . S
C1444 C1447 1.403 . S
H1445 C1451 0.930 . S
C1446 H1432 0.930 . S
C1446 C1444 1.395 . S
C1446 C1449 1.403 . S
C1447 C1444 1.403 . S
C1447 C1448 1.524 . S
C1447 C1451 1.400 . S
C1448 H1433 0.960 . S
C1448 H1434 0.960 . S
C1448 H1435 0.960 . S
C1448 C1447 1.524 . S
C1449 C1446 1.403 . S
C1449 C1450 1.392 . S
C1449 C1453 1.495 . S
C1450 C1449 1.392 . S
C1450 C1451 1.385 . S
C1450 C1452 1.478 . S
C1451 H1445 0.930 . S
C1451 C1447 1.400 . S
C1451 C1450 1.385 . S
C1452 C1450 1.478 . S
C1452 C1454 1.381 . S
C1452 C1458 1.383 . S
C1453 C1449 1.495 . S
C1453 H1459 0.959 . S
C1453 H1460 0.961 . S
C1453 H1461 0.960 . S
C1454 C1452 1.381 . S
C1454 C1455 1.394 . S
C1454 H1462 0.930 . S
C1455 C1454 1.394 . S
C1455 C1456 1.383 . S
C1455 H1463 0.929 . S
C1456 C1455 1.383 . S
C1456 C1457 1.377 . S
C1457 H1441 0.930 . S
C1457 C1456 1.377 . S
C1457 C1458 1.379 . S
C1458 H1442 0.931 . S
C1458 C1452 1.383 . S
C1458 C1457 1.379 . S
H1459 C1453 0.959 . S
H1460 C1453 0.961 . S
H1461 C1453 0.960 . S
H1462 C1454 0.930 . S
H1463 C1455 0.929 . S
H1464 C1472 0.929 . S
H1465 C1474 0.930 . S
H1466 C1476 0.930 . S
H1467 C1479 0.929 . S
H1468 C1482 0.930 . S
H1469 C1484 0.960 . S
H1470 C1484 0.960 . S
H1471 C1484 0.960 . S
C1472 H1464 0.929 . S
C1472 C1473 1.377 . S
C1472 C1474 1.384 . S
C1473 C1472 1.377 . S
C1473 C1479 1.390 . S
C1474 H1465 0.930 . S
C1474 C1472 1.384 . S
C1474 C1475 1.372 . S
C1475 C1474 1.372 . S
C1475 C1476 1.400 . S
C1475 C1480 1.490 . S
C1476 H1466 0.930 . S
C1476 C1475 1.400 . S
C1476 C1479 1.386 . S
H1477 C1493 0.930 . S
H1478 C1494 0.931 . S
C1479 H1467 0.929 . S
C1479 C1473 1.390 . S
C1479 C1476 1.386 . S
C1480 C1475 1.490 . S
C1480 C1482 1.395 . S
C1480 C1483 1.403 . S
H1481 C1487 0.930 . S
C1482 H1468 0.930 . S
C1482 C1480 1.395 . S
C1482 C1485 1.403 . S
C1483 C1480 1.403 . S
C1483 C1484 1.524 . S
C1483 C1487 1.400 . S
C1484 H1469 0.960 . S
C1484 H1470 0.960 . S
C1484 H1471 0.960 . S
C1484 C1483 1.524 . S
C1485 C1482 1.403 . S
C1485 C1486 1.392 . S
C1485 C1489 1.495 . S
C1486 C1485 1.392 . S
C1486 C1487 1.385 . S
C1486 C1488 1.478 . S
C1487 H1481 0.930 . S
C1487 C1483 1.400 . S
C1487 C1486 1.385 . S
C1488 C1486 1.478 . S
C1488 C1490 1.381 . S
C1488 C1494 1.383 . S
C1489 C1485 1.495 . S
C1489 H1495 0.959 . S
C1489 H1496 0.961 . S
C1489 H1497 0.960 . S
C1490 C1488 1.381 . S
C1490 C1491 1.394 . S
C1490 H1498 0.930 . S
C1491 C1490 1.394 . S
C1491 C1492 1.383 . S
C1491 H1499 0.929 . S
C1492 C1491 1.383 . S
C1492 C1493 1.377 . S
C1493 H1477 0.930 . S
C1493 C1492 1.377 . S
C1493 C1494 1.379 . S
C1494 H1478 0.931 . S
C1494 C1488 1.383 . S
C1494 C1493 1.379 . S
H1495 C1489 0.959 . S
H1496 C1489 0.961 . S
H1497 C1489 0.960 . S
H1498 C1490 0.930 . S
H1499 C1491 0.929 . S
H1500 C1508 0.929 . S
H1501 C1510 0.930 . S
H1502 C1512 0.930 . S
H1503 C1515 0.929 . S
H1504 C1518 0.930 . S
H1505 C1520 0.960 . S
H1506 C1520 0.960 . S
H1507 C1520 0.960 . S
C1508 H1500 0.929 . S
C1508 C1509 1.377 . S
C1508 C1510 1.384 . S
C1509 C1508 1.377 . S
C1509 C1515 1.390 . S
C1510 H1501 0.930 . S
C1510 C1508 1.384 . S
C1510 C1511 1.372 . S
C1511 C1510 1.372 . S
C1511 C1512 1.400 . S
C1511 C1516 1.490 . S
C1512 H1502 0.930 . S
C1512 C1511 1.400 . S
C1512 C1515 1.386 . S
H1513 C1529 0.930 . S
H1514 C1530 0.931 . S
C1515 H1503 0.929 . S
C1515 C1509 1.390 . S
C1515 C1512 1.386 . S
C1516 C1511 1.490 . S
C1516 C1518 1.395 . S
C1516 C1519 1.403 . S
H1517 C1523 0.930 . S
C1518 H1504 0.930 . S
C1518 C1516 1.395 . S
C1518 C1521 1.403 . S
C1519 C1516 1.403 . S
C1519 C1520 1.524 . S
C1519 C1523 1.400 . S
C1520 H1505 0.960 . S
C1520 H1506 0.960 . S
C1520 H1507 0.960 . S
C1520 C1519 1.524 . S
C1521 C1518 1.403 . S
C1521 C1522 1.392 . S
C1521 C1525 1.495 . S
C1522 C1521 1.392 . S
C1522 C1523 1.385 . S
C1522 C1524 1.478 . S
C1523 H1517 0.930 . S
C1523 C1519 1.400 . S
C1523 C1522 1.385 . S
C1524 C1522 1.478 . S
C1524 C1526 1.381 . S
C1524 C1530 1.383 . S
C1525 C1521 1.495 . S
C1525 H1531 0.959 . S
C1525 H1532 0.961 . S
C1525 H1533 0.960 . S
C1526 C1524 1.381 . S
C1526 C1527 1.394 . S
C1526 H1534 0.930 . S
C1527 C1526 1.394 . S
C1527 C1528 1.383 . S
C1527 H1535 0.929 . S
C1528 C1527 1.383 . S
C1528 C1529 1.377 . S
C1529 H1513 0.930 . S
C1529 C1528 1.377 . S
C1529 C1530 1.379 . S
C1530 H1514 0.931 . S
C1530 C1524 1.383 . S
C1530 C1529 1.379 . S
H1531 C1525 0.959 . S
H1532 C1525 0.961 . S
H1533 C1525 0.960 . S
H1534 C1526 0.930 . S
H1535 C1527 0.929 . S
H1536 C1544 0.929 . S
H1537 C1546 0.930 1_455 S
H1538 C1548 0.930 . S
H1539 C1551 0.929 . S
H1540 C1554 0.930 . S
H1541 C1556 0.960 . S
H1542 C1556 0.960 . S
H1543 C1556 0.960 . S
C1544 H1536 0.929 . S
C1544 C1545 1.377 . S
C1544 C1546 1.384 . S
C1545 C1544 1.377 . S
C1545 C1551 1.390 . S
C1546 H1537 0.930 1_655 S
C1546 C1544 1.384 . S
C1546 C1547 1.372 . S
C1547 C1546 1.372 . S
C1547 C1548 1.400 . S
C1547 C1552 1.490 . S
C1548 H1538 0.930 . S
C1548 C1547 1.400 . S
C1548 C1551 1.386 . S
H1549 C1565 0.930 . S
H1550 C1566 0.931 1_655 S
C1551 H1539 0.929 . S
C1551 C1545 1.390 . S
C1551 C1548 1.386 . S
C1552 C1547 1.490 . S
C1552 C1554 1.395 1_655 S
C1552 C1555 1.403 . S
H1553 C1559 0.930 . S
C1554 H1540 0.930 . S
C1554 C1552 1.395 1_455 S
C1554 C1557 1.403 . S
C1555 C1552 1.403 . S
C1555 C1556 1.524 . S
C1555 C1559 1.400 . S
C1556 H1541 0.960 . S
C1556 H1542 0.960 . S
C1556 H1543 0.960 . S
C1556 C1555 1.524 . S
C1557 C1554 1.403 . S
C1557 C1558 1.392 . S
C1557 C1561 1.495 . S
C1558 C1557 1.392 . S
C1558 C1559 1.385 1_455 S
C1558 C1560 1.478 . S
C1559 H1553 0.930 . S
C1559 C1555 1.400 . S
C1559 C1558 1.385 1_655 S
C1560 C1558 1.478 . S
C1560 C1562 1.381 . S
C1560 C1566 1.383 . S
C1561 C1557 1.495 . S
C1561 H1567 0.959 . S
C1561 H1568 0.961 . S
C1561 H1569 0.960 . S
C1562 C1560 1.381 . S
C1562 C1563 1.394 . S
C1562 H1570 0.930 . S
C1563 C1562 1.394 . S
C1563 C1564 1.383 . S
C1563 H1571 0.929 . S
C1564 C1563 1.383 . S
C1564 C1565 1.377 . S
C1565 H1549 0.930 . S
C1565 C1564 1.377 . S
C1565 C1566 1.379 . S
C1566 H1550 0.931 1_455 S
C1566 C1560 1.383 . S
C1566 C1565 1.379 . S
H1567 C1561 0.959 . S
H1568 C1561 0.961 . S
H1569 C1561 0.960 . S
H1570 C1562 0.930 . S
H1571 C1563 0.929 . S
H1572 C1580 0.929 . S
H1573 C1582 0.930 . S
H1574 C1584 0.967 . S
H1575 C1587 0.929 1_545 S
H1576 C1590 0.930 . S
H1577 C1592 0.960 . S
H1578 C1592 0.953 1_565 S
H1579 C1592 0.960 . S
C1580 H1572 0.929 . S
C1580 C1581 1.377 . S
C1580 C1582 1.384 . S
C1581 C1580 1.377 . S
C1581 C1587 1.390 . S
C1582 H1573 0.930 . S
C1582 C1580 1.384 . S
C1582 C1583 1.372 . S
C1583 C1582 1.372 . S
C1583 C1584 1.374 1_565 S
C1583 C1588 1.490 . S
C1584 H1574 0.967 . S
C1584 C1583 1.374 1_545 S
C1584 C1587 1.376 1_545 S
H1585 C1601 0.930 . S
H1586 C1602 0.931 . S
C1587 H1575 0.929 1_565 S
C1587 C1581 1.390 . S
C1587 C1584 1.376 1_565 S
C1588 C1583 1.490 . S
C1588 C1590 1.395 . S
C1588 C1591 1.403 1_565 S
H1589 C1595 0.930 . S
C1590 H1576 0.930 . S
C1590 C1588 1.395 . S
C1590 C1593 1.403 . S
C1591 C1588 1.403 1_545 S
C1591 C1592 1.524 . S
C1591 C1595 1.400 . S
C1592 H1577 0.960 . S
C1592 H1578 0.953 1_545 S
C1592 H1579 0.960 . S
C1592 C1591 1.524 . S
C1593 C1590 1.403 . S
C1593 C1594 1.392 1_565 S
C1593 C1597 1.495 . S
C1594 C1593 1.392 1_545 S
C1594 C1595 1.385 . S
C1594 C1596 1.478 . S
C1595 H1589 0.930 . S
C1595 C1591 1.400 . S
C1595 C1594 1.385 . S
C1596 C1594 1.478 . S
C1596 C1598 1.381 1_545 S
C1596 C1602 1.383 . S
C1597 C1593 1.495 . S
C1597 H1603 0.959 . S
C1597 H1604 0.961 . S
C1597 H1605 0.960 . S
C1598 C1596 1.381 1_565 S
C1598 C1599 1.394 1_565 S
C1598 H1606 0.930 . S
C1599 C1598 1.394 1_545 S
C1599 C1600 1.383 . S
C1599 H1607 0.929 1_545 S
C1600 C1599 1.383 . S
C1600 C1601 1.377 . S
C1601 H1585 0.930 . S
C1601 C1600 1.377 . S
C1601 C1602 1.379 . S
C1602 H1586 0.931 . S
C1602 C1596 1.383 . S
C1602 C1601 1.379 . S
H1603 C1597 0.959 . S
H1604 C1597 0.961 . S
H1605 C1597 0.960 . S
H1606 C1598 0.930 . S
H1607 C1599 0.929 1_565 S
H1608 C1616 0.929 . S
H1609 C1618 0.930 . S
H1610 C1620 0.930 1_455 S
H1611 C1623 0.929 . S
H1612 C1626 0.930 . S
H1613 C1628 0.960 . S
H1614 C1628 0.960 . S
H1615 C1628 0.960 . S
C1616 H1608 0.929 . S
C1616 C1617 1.377 . S
C1616 C1618 1.384 . S
C1617 C1616 1.377 . S
C1617 C1623 1.390 . S
C1618 H1609 0.930 . S
C1618 C1616 1.384 . S
C1618 C1619 1.372 . S
C1619 C1618 1.372 . S
C1619 C1620 1.400 . S
C1619 C1624 1.490 . S
C1620 H1610 0.930 1_655 S
C1620 C1619 1.400 . S
C1620 C1623 1.386 . S
H1621 C1637 0.930 . S
H1622 C1638 0.931 . S
C1623 H1611 0.929 . S
C1623 C1617 1.390 . S
C1623 C1620 1.386 . S
C1624 C1619 1.490 . S
C1624 C1626 1.395 . S
C1624 C1627 1.403 1_655 S
H1625 C1631 0.930 . S
C1626 H1612 0.930 . S
C1626 C1624 1.395 . S
C1626 C1629 1.403 . S
C1627 C1624 1.403 1_455 S
C1627 C1628 1.524 . S
C1627 C1631 1.400 . S
C1628 H1613 0.960 . S
C1628 H1614 0.960 . S
C1628 H1615 0.960 . S
C1628 C1627 1.524 . S
C1629 C1626 1.403 . S
C1629 C1630 1.392 1_655 S
C1629 C1633 1.495 . S
C1630 C1629 1.392 1_455 S
C1630 C1631 1.385 . S
C1630 C1632 1.478 . S
C1631 H1625 0.930 . S
C1631 C1627 1.400 . S
C1631 C1630 1.385 . S
C1632 C1630 1.478 . S
C1632 C1634 1.381 . S
C1632 C1638 1.383 . S
C1633 C1629 1.495 . S
C1633 H1639 0.959 . S
C1633 H1640 0.961 . S
C1633 H1641 0.960 . S
C1634 C1632 1.381 . S
C1634 C1635 1.394 . S
C1634 H1642 0.930 1_455 S
C1635 C1634 1.394 . S
C1635 C1636 1.383 . S
C1635 H1643 0.929 . S
C1636 C1635 1.383 . S
C1636 C1637 1.377 . S
C1637 H1621 0.930 . S
C1637 C1636 1.377 . S
C1637 C1638 1.379 . S
C1638 H1622 0.931 . S
C1638 C1632 1.383 . S
C1638 C1637 1.379 . S
H1639 C1633 0.959 . S
H1640 C1633 0.961 . S
H1641 C1633 0.960 . S
H1642 C1634 0.930 1_655 S
H1643 C1635 0.929 . S
H1644 C1652 0.929 . S
H1645 C1654 0.930 . S
H1646 C1656 0.930 1_565 S
H1647 C1659 0.948 . S
H1648 C1662 0.930 . S
H1649 C1664 0.960 . S
H1650 C1664 0.960 . S
H1651 C1664 0.960 . S
C1652 H1644 0.929 . S
C1652 C1653 1.377 . S
C1652 C1654 1.384 . S
C1653 C1652 1.377 . S
C1653 C1659 1.390 . S
C1654 H1645 0.930 . S
C1654 C1652 1.384 . S
C1654 C1655 1.372 . S
C1655 C1654 1.372 . S
C1655 C1656 1.400 . S
C1655 C1660 1.490 . S
C1656 H1646 0.930 1_545 S
C1656 C1655 1.400 . S
C1656 C1659 1.386 . S
H1657 C1673 0.930 . S
H1658 C1674 0.931 . S
C1659 H1647 0.948 . S
C1659 C1653 1.390 . S
C1659 C1656 1.386 . S
C1660 C1655 1.490 . S
C1660 C1662 1.395 . S
C1660 C1663 1.403 . S
H1661 C1667 0.930 . S
C1662 H1648 0.930 . S
C1662 C1660 1.395 . S
C1662 C1665 1.403 1_545 S
C1663 C1660 1.403 . S
C1663 C1664 1.524 . S
C1663 C1667 1.400 1_545 S
C1664 H1649 0.960 . S
C1664 H1650 0.960 . S
C1664 H1651 0.960 . S
C1664 C1663 1.524 . S
C1665 C1662 1.403 1_565 S
C1665 C1666 1.392 . S
C1665 C1669 1.495 . S
C1666 C1665 1.392 . S
C1666 C1667 1.385 . S
C1666 C1668 1.478 . S
C1667 H1661 0.930 . S
C1667 C1663 1.400 1_565 S
C1667 C1666 1.385 . S
C1668 C1666 1.478 . S
C1668 C1670 1.381 . S
C1668 C1674 1.383 . S
C1669 C1665 1.495 . S
C1669 H1675 0.959 . S
C1669 H1676 0.961 . S
C1669 H1677 0.990 . S
C1670 C1668 1.381 . S
C1670 C1671 1.394 . S
C1670 H1678 0.930 1_565 S
C1671 C1670 1.394 . S
C1671 C1672 1.383 . S
C1671 H1679 0.907 1_565 S
C1672 C1671 1.383 . S
C1672 C1673 1.377 . S
C1673 H1657 0.930 . S
C1673 C1672 1.377 . S
C1673 C1674 1.379 . S
C1674 H1658 0.931 . S
C1674 C1668 1.383 . S
C1674 C1673 1.379 . S
H1675 C1669 0.959 . S
H1676 C1669 0.961 . S
H1677 C1669 0.990 . S
H1678 C1670 0.930 1_545 S
H1679 C1671 0.907 1_545 S
H1680 C1688 0.929 . S
H1681 C1690 0.930 . S
H1682 C1692 0.953 . S
H1683 C1695 0.929 1_655 S
H1684 C1698 0.930 . S
H1685 C1700 0.960 . S
H1686 C1700 0.960 1_455 S
H1687 C1700 0.960 . S
C1688 H1680 0.929 . S
C1688 C1689 1.377 . S
C1688 C1690 1.384 . S
C1689 C1688 1.377 . S
C1689 C1695 1.390 . S
C1690 H1681 0.930 . S
C1690 C1688 1.384 . S
C1690 C1691 1.372 . S
C1691 C1690 1.372 . S
C1691 C1692 1.383 1_455 S
C1691 C1696 1.490 . S
C1692 H1682 0.953 . S
C1692 C1691 1.383 1_655 S
C1692 C1695 1.379 1_655 S
H1693 C1709 0.930 . S
H1694 C1710 0.931 . S
C1695 H1683 0.929 1_455 S
C1695 C1689 1.390 . S
C1695 C1692 1.379 1_455 S
C1696 C1691 1.490 . S
C1696 C1698 1.395 . S
C1696 C1699 1.403 1_455 S
H1697 C1703 0.930 . S
C1698 H1684 0.930 . S
C1698 C1696 1.395 . S
C1698 C1701 1.403 . S
C1699 C1696 1.403 1_655 S
C1699 C1700 1.524 . S
C1699 C1703 1.400 . S
C1700 H1685 0.960 . S
C1700 H1686 0.960 1_655 S
C1700 H1687 0.960 . S
C1700 C1699 1.524 . S
C1701 C1698 1.403 . S
C1701 C1702 1.392 1_455 S
C1701 C1705 1.495 . S
C1702 C1701 1.392 1_655 S
C1702 C1703 1.385 . S
C1702 C1704 1.478 . S
C1703 H1697 0.930 . S
C1703 C1699 1.400 . S
C1703 C1702 1.385 . S
C1704 C1702 1.478 . S
C1704 C1706 1.381 1_655 S
C1704 C1710 1.383 . S
C1705 C1701 1.495 . S
C1705 H1711 0.959 . S
C1705 H1712 0.961 1_455 S
C1705 H1713 0.960 . S
C1706 C1704 1.381 1_455 S
C1706 C1707 1.394 1_455 S
C1706 H1714 0.930 . S
C1707 C1706 1.394 1_655 S
C1707 C1708 1.383 . S
C1707 H1715 0.929 1_655 S
C1708 C1707 1.383 . S
C1708 C1709 1.377 . S
C1709 H1693 0.930 . S
C1709 C1708 1.377 . S
C1709 C1710 1.379 . S
C1710 H1694 0.931 . S
C1710 C1704 1.383 . S
C1710 C1709 1.379 . S
H1711 C1705 0.959 . S
H1712 C1705 0.961 1_655 S
H1713 C1705 0.960 . S
H1714 C1706 0.930 . S
H1715 C1707 0.929 1_455 S
H1716 C1724 0.929 . S
H1717 C1726 0.930 . S
H1718 C1728 0.903 1_545 S
H1719 C1731 0.929 . S
H1720 C1734 0.930 . S
H1721 C1736 0.960 . S
H1722 C1736 0.960 . S
H1723 C1736 0.960 . S
C1724 H1716 0.929 . S
C1724 C1725 1.377 . S
C1724 C1726 1.384 . S
C1725 C1724 1.377 . S
C1725 C1731 1.390 . S
C1726 H1717 0.930 . S
C1726 C1724 1.384 . S
C1726 C1727 1.372 . S
C1727 C1726 1.372 . S
C1727 C1728 1.400 . S
C1727 C1732 1.490 . S
C1728 H1718 0.903 1_565 S
C1728 C1727 1.400 . S
C1728 C1731 1.386 . S
H1729 C1745 0.930 . S
H1730 C1746 0.931 . S
C1731 H1719 0.929 . S
C1731 C1725 1.390 . S
C1731 C1728 1.386 . S
C1732 C1727 1.490 . S
C1732 C1734 1.395 1_565 S
C1732 C1735 1.403 . S
H1733 C1739 0.930 . S
C1734 H1720 0.930 . S
C1734 C1732 1.395 1_545 S
C1734 C1737 1.403 . S
C1735 C1732 1.403 . S
C1735 C1736 1.524 . S
C1735 C1739 1.400 . S
C1736 H1721 0.960 . S
C1736 H1722 0.960 . S
C1736 H1723 0.960 . S
C1736 C1735 1.524 . S
C1737 C1734 1.403 . S
C1737 C1738 1.392 . S
C1737 C1741 1.495 . S
C1738 C1737 1.392 . S
C1738 C1739 1.385 1_545 S
C1738 C1740 1.478 . S
C1739 H1733 0.930 . S
C1739 C1735 1.400 . S
C1739 C1738 1.385 1_565 S
C1740 C1738 1.478 . S
C1740 C1742 1.381 . S
C1740 C1746 1.383 . S
C1741 C1737 1.495 . S
C1741 H1747 0.959 . S
C1741 H1748 0.961 . S
C1741 H1749 0.960 . S
C1742 C1740 1.381 . S
C1742 C1743 1.394 . S
C1742 H1750 0.930 1_545 S
C1743 C1742 1.394 . S
C1743 C1744 1.383 . S
C1743 H1751 0.929 . S
C1744 C1743 1.383 . S
C1744 C1745 1.377 . S
C1745 H1729 0.930 . S
C1745 C1744 1.377 . S
C1745 C1746 1.379 . S
C1746 H1730 0.931 . S
C1746 C1740 1.383 . S
C1746 C1745 1.379 . S
H1747 C1741 0.959 . S
H1748 C1741 0.961 . S
H1749 C1741 0.960 . S
H1750 C1742 0.930 1_565 S
H1751 C1743 0.929 . S
H1752 C1760 0.929 . S
H1753 C1762 0.930 . S
H1754 C1764 0.930 . S
H1755 C1767 0.929 . S
H1756 C1770 0.930 . S
H1757 C1772 0.960 . S
H1758 C1772 0.960 . S
H1759 C1772 0.960 . S
C1760 H1752 0.929 . S
C1760 C1761 1.377 . S
C1760 C1762 1.384 . S
C1761 C1760 1.377 . S
C1761 C1767 1.390 . S
C1762 H1753 0.930 . S
C1762 C1760 1.384 . S
C1762 C1763 1.372 . S
C1763 C1762 1.372 . S
C1763 C1764 1.400 . S
C1763 C1768 1.490 . S
C1764 H1754 0.930 . S
C1764 C1763 1.400 . S
C1764 C1767 1.386 . S
H1765 C1781 0.930 . S
H1766 C1782 0.931 . S
C1767 H1755 0.929 . S
C1767 C1761 1.390 . S
C1767 C1764 1.386 . S
C1768 C1763 1.490 . S
C1768 C1770 1.395 1_455 S
C1768 C1771 1.403 . S
H1769 C1775 0.930 . S
C1770 H1756 0.930 . S
C1770 C1768 1.395 1_655 S
C1770 C1773 1.403 . S
C1771 C1768 1.403 . S
C1771 C1772 1.524 . S
C1771 C1775 1.400 . S
C1772 H1757 0.960 . S
C1772 H1758 0.960 . S
C1772 H1759 0.960 . S
C1772 C1771 1.524 . S
C1773 C1770 1.403 . S
C1773 C1774 1.392 . S
C1773 C1777 1.495 . S
C1774 C1773 1.392 . S
C1774 C1775 1.385 1_655 S
C1774 C1776 1.478 . S
C1775 H1769 0.930 . S
C1775 C1771 1.400 . S
C1775 C1774 1.385 1_455 S
C1776 C1774 1.478 . S
C1776 C1778 1.381 . S
C1776 C1782 1.383 . S
C1777 C1773 1.495 . S
C1777 H1783 0.959 . S
C1777 H1784 0.961 . S
C1777 H1785 0.960 . S
C1778 C1776 1.381 . S
C1778 C1779 1.394 . S
C1778 H1786 0.930 . S
C1779 C1778 1.394 . S
C1779 C1780 1.383 . S
C1779 H1787 0.929 . S
C1780 C1779 1.383 . S
C1780 C1781 1.377 . S
C1781 H1765 0.930 . S
C1781 C1780 1.377 . S
C1781 C1782 1.379 . S
C1782 H1766 0.931 . S
C1782 C1776 1.383 . S
C1782 C1781 1.379 . S
H1783 C1777 0.959 . S
H1784 C1777 0.961 . S
H1785 C1777 0.960 . S
H1786 C1778 0.930 . S
H1787 C1779 0.929 . S
H1788 C1796 0.929 . S
H1789 C1798 0.930 . S
H1790 C1800 0.930 1_565 S
H1791 C1803 0.929 . S
H1792 C1806 0.930 . S
H1793 C1808 0.960 . S
H1794 C1808 0.960 . S
H1795 C1808 0.960 . S
C1796 H1788 0.929 . S
C1796 C1797 1.377 . S
C1796 C1798 1.384 . S
C1797 C1796 1.377 . S
C1797 C1803 1.390 . S
C1798 H1789 0.930 . S
C1798 C1796 1.384 . S
C1798 C1799 1.372 . S
C1799 C1798 1.372 . S
C1799 C1800 1.400 . S
C1799 C1804 1.490 . S
C1800 H1790 0.930 1_545 S
C1800 C1799 1.400 . S
C1800 C1803 1.386 . S
H1801 C1817 0.930 . S
H1802 C1818 0.931 . S
C1803 H1791 0.929 . S
C1803 C1797 1.390 . S
C1803 C1800 1.386 . S
C1804 C1799 1.490 . S
C1804 C1806 1.395 . S
C1804 C1807 1.403 1_545 S
H1805 C1811 0.930 . S
C1806 H1792 0.930 . S
C1806 C1804 1.395 . S
C1806 C1809 1.403 . S
C1807 C1804 1.403 1_565 S
C1807 C1808 1.524 . S
C1807 C1811 1.400 . S
C1808 H1793 0.960 . S
C1808 H1794 0.960 . S
C1808 H1795 0.960 . S
C1808 C1807 1.524 . S
C1809 C1806 1.403 . S
C1809 C1810 1.392 1_545 S
C1809 C1813 1.495 . S
C1810 C1809 1.392 1_565 S
C1810 C1811 1.385 . S
C1810 C1812 1.478 . S
C1811 H1805 0.930 . S
C1811 C1807 1.400 . S
C1811 C1810 1.385 . S
C1812 C1810 1.478 . S
C1812 C1814 1.381 . S
C1812 C1818 1.383 . S
C1813 C1809 1.495 . S
C1813 H1819 0.959 . S
C1813 H1820 0.961 . S
C1813 H1821 0.960 . S
C1814 C1812 1.381 . S
C1814 C1815 1.394 . S
C1814 H1822 0.930 1_565 S
C1815 C1814 1.394 . S
C1815 C1816 1.383 . S
C1815 H1823 0.929 . S
C1816 C1815 1.383 . S
C1816 C1817 1.377 . S
C1817 H1801 0.930 . S
C1817 C1816 1.377 . S
C1817 C1818 1.379 . S
C1818 H1802 0.931 . S
C1818 C1812 1.383 . S
C1818 C1817 1.379 . S
H1819 C1813 0.959 . S
H1820 C1813 0.961 . S
H1821 C1813 0.960 . S
H1822 C1814 0.930 1_545 S
H1823 C1815 0.929 . S
H1824 C1832 0.929 . S
H1825 C1834 0.930 . S
H1826 C1836 0.930 . S
H1827 C1839 0.929 . S
H1828 C1842 0.930 . S
H1829 C1844 0.960 . S
H1830 C1844 0.960 . S
H1831 C1844 0.960 . S
C1832 H1824 0.929 . S
C1832 C1833 1.377 . S
C1832 C1834 1.384 . S
C1833 C1832 1.377 . S
C1833 C1839 1.390 . S
C1834 H1825 0.930 . S
C1834 C1832 1.384 . S
C1834 C1835 1.372 . S
C1835 C1834 1.372 . S
C1835 C1836 1.400 . S
C1835 C1840 1.490 . S
C1836 H1826 0.930 . S
C1836 C1835 1.400 . S
C1836 C1839 1.386 . S
H1837 C1853 0.930 . S
H1838 C1854 0.931 . S
C1839 H1827 0.929 . S
C1839 C1833 1.390 . S
C1839 C1836 1.386 . S
C1840 C1835 1.490 . S
C1840 C1842 1.395 1_556 S
C1840 C1843 1.403 . S
H1841 C1847 0.930 . S
C1842 H1828 0.930 . S
C1842 C1840 1.395 1_554 S
C1842 C1845 1.403 . S
C1843 C1840 1.403 . S
C1843 C1844 1.524 . S
C1843 C1847 1.400 . S
C1844 H1829 0.960 . S
C1844 H1830 0.960 . S
C1844 H1831 0.960 . S
C1844 C1843 1.524 . S
C1845 C1842 1.403 . S
C1845 C1846 1.392 . S
C1845 C1849 1.495 . S
C1846 C1845 1.392 . S
C1846 C1847 1.385 1_554 S
C1846 C1848 1.478 . S
C1847 H1841 0.930 . S
C1847 C1843 1.400 . S
C1847 C1846 1.385 1_556 S
C1848 C1846 1.478 . S
C1848 C1850 1.381 . S
C1848 C1854 1.383 . S
C1849 C1845 1.495 . S
C1849 H1855 0.959 . S
C1849 H1856 0.961 . S
C1849 H1857 0.960 . S
C1850 C1848 1.381 . S
C1850 C1851 1.394 . S
C1850 H1858 0.935 . S
C1851 C1850 1.394 . S
C1851 C1852 1.383 . S
C1851 H1859 0.929 . S
C1852 C1851 1.383 . S
C1852 C1853 1.377 . S
C1853 H1837 0.930 . S
C1853 C1852 1.377 . S
C1853 C1854 1.379 . S
C1854 H1838 0.931 . S
C1854 C1848 1.383 . S
C1854 C1853 1.379 . S
H1855 C1849 0.959 . S
H1856 C1849 0.961 . S
H1857 C1849 0.960 . S
H1858 C1850 0.935 . S
H1859 C1851 0.929 . S
H1860 C1868 0.929 . S
H1861 C1870 0.930 . S
H1862 C1872 0.962 . S
H1863 C1875 0.929 1_556 S
H1864 C1878 0.930 . S
H1865 C1880 0.960 . S
H1866 C1880 0.960 1_554 S
H1867 C1880 0.960 . S
C1868 H1860 0.929 . S
C1868 C1869 1.377 . S
C1868 C1870 1.384 . S
C1869 C1868 1.377 . S
C1869 C1875 1.390 . S
C1870 H1861 0.930 . S
C1870 C1868 1.384 . S
C1870 C1871 1.372 . S
C1871 C1870 1.372 . S
C1871 C1872 1.378 1_554 S
C1871 C1876 1.490 . S
C1872 H1862 0.962 . S
C1872 C1871 1.378 1_556 S
C1872 C1875 1.377 1_556 S
H1873 C1889 0.930 . S
H1874 C1890 0.931 . S
C1875 H1863 0.929 1_554 S
C1875 C1869 1.390 . S
C1875 C1872 1.377 1_554 S
C1876 C1871 1.490 . S
C1876 C1878 1.395 . S
C1876 C1879 1.403 1_554 S
H1877 C1883 0.930 . S
C1878 H1864 0.930 . S
C1878 C1876 1.395 . S
C1878 C1881 1.403 . S
C1879 C1876 1.403 1_556 S
C1879 C1880 1.524 . S
C1879 C1883 1.400 . S
C1880 H1865 0.960 . S
C1880 H1866 0.960 1_556 S
C1880 H1867 0.960 . S
C1880 C1879 1.524 . S
C1881 C1878 1.403 . S
C1881 C1882 1.392 1_554 S
C1881 C1885 1.495 . S
C1882 C1881 1.392 1_556 S
C1882 C1883 1.385 . S
C1882 C1884 1.478 . S
C1883 H1877 0.930 . S
C1883 C1879 1.400 . S
C1883 C1882 1.385 . S
C1884 C1882 1.478 . S
C1884 C1886 1.381 1_556 S
C1884 C1890 1.383 . S
C1885 C1881 1.495 . S
C1885 H1891 0.959 . S
C1885 H1892 0.961 1_554 S
C1885 H1893 0.960 . S
C1886 C1884 1.381 1_554 S
C1886 C1887 1.394 1_554 S
C1886 H1894 0.930 . S
C1887 C1886 1.394 1_556 S
C1887 C1888 1.383 . S
C1887 H1895 0.929 1_556 S
C1888 C1887 1.383 . S
C1888 C1889 1.377 . S
C1889 H1873 0.930 . S
C1889 C1888 1.377 . S
C1889 C1890 1.379 . S
C1890 H1874 0.931 . S
C1890 C1884 1.383 . S
C1890 C1889 1.379 . S
H1891 C1885 0.959 . S
H1892 C1885 0.961 1_556 S
H1893 C1885 0.960 . S
H1894 C1886 0.930 . S
H1895 C1887 0.929 1_554 S
H1896 C1904 0.929 . S
H1897 C1906 0.930 . S
H1898 C1908 0.953 . S
H1899 C1911 0.929 . S
H1900 C1914 0.930 . S
H1901 C1916 0.960 . S
H1902 C1916 0.960 . S
H1903 C1916 0.960 . S
C1904 H1896 0.929 . S
C1904 C1905 1.377 . S
C1904 C1906 1.384 . S
C1905 C1904 1.377 . S
C1905 C1911 1.390 . S
C1906 H1897 0.930 . S
C1906 C1904 1.384 . S
C1906 C1907 1.372 . S
C1907 C1906 1.372 . S
C1907 C1908 1.400 . S
C1907 C1912 1.490 . S
C1908 H1898 0.953 . S
C1908 C1907 1.400 . S
C1908 C1911 1.386 . S
H1909 C1925 0.930 . S
H1910 C1926 0.931 . S
C1911 H1899 0.929 . S
C1911 C1905 1.390 . S
C1911 C1908 1.386 . S
C1912 C1907 1.490 . S
C1912 C1914 1.395 1_554 S
C1912 C1915 1.403 . S
H1913 C1919 0.930 . S
C1914 H1900 0.930 . S
C1914 C1912 1.395 1_556 S
C1914 C1917 1.403 . S
C1915 C1912 1.403 . S
C1915 C1916 1.524 . S
C1915 C1919 1.400 . S
C1916 H1901 0.960 . S
C1916 H1902 0.960 . S
C1916 H1903 0.960 . S
C1916 C1915 1.524 . S
C1917 C1914 1.403 . S
C1917 C1918 1.392 . S
C1917 C1921 1.495 . S
C1918 C1917 1.392 . S
C1918 C1919 1.385 1_556 S
C1918 C1920 1.478 . S
C1919 H1913 0.930 . S
C1919 C1915 1.400 . S
C1919 C1918 1.385 1_554 S
C1920 C1918 1.478 . S
C1920 C1922 1.381 . S
C1920 C1926 1.383 . S
C1921 C1917 1.495 . S
C1921 H1927 0.959 . S
C1921 H1928 0.961 . S
C1921 H1929 0.960 . S
C1922 C1920 1.381 . S
C1922 C1923 1.394 . S
C1922 H1930 0.920 1_556 S
C1923 C1922 1.394 . S
C1923 C1924 1.383 . S
C1923 H1931 0.929 . S
C1924 C1923 1.383 . S
C1924 C1925 1.377 . S
C1925 H1909 0.930 . S
C1925 C1924 1.377 . S
C1925 C1926 1.379 . S
C1926 H1910 0.931 . S
C1926 C1920 1.383 . S
C1926 C1925 1.379 . S
H1927 C1921 0.959 . S
H1928 C1921 0.961 . S
H1929 C1921 0.960 . S
H1930 C1922 0.920 1_554 S
H1931 C1923 0.929 . S
H1932 C1940 0.929 . S
H1933 C1942 0.930 . S
H1934 C1944 0.930 1_554 S
H1935 C1947 0.914 1_554 S
H1936 C1950 0.930 . S
H1937 C1952 0.960 . S
H1938 C1952 0.960 . S
H1939 C1952 0.973 . S
C1940 H1932 0.929 . S
C1940 C1941 1.377 . S
C1940 C1942 1.384 . S
C1941 C1940 1.377 . S
C1941 C1947 1.390 . S
C1942 H1933 0.930 . S
C1942 C1940 1.384 . S
C1942 C1943 1.372 . S
C1943 C1942 1.372 . S
C1943 C1944 1.400 . S
C1943 C1948 1.490 . S
C1944 H1934 0.930 1_556 S
C1944 C1943 1.400 . S
C1944 C1947 1.386 . S
H1945 C1961 0.930 . S
H1946 C1962 0.931 . S
C1947 H1935 0.914 1_556 S
C1947 C1941 1.390 . S
C1947 C1944 1.386 . S
C1948 C1943 1.490 . S
C1948 C1950 1.395 . S
C1948 C1951 1.403 . S
H1949 C1955 0.930 . S
C1950 H1936 0.930 . S
C1950 C1948 1.395 . S
C1950 C1953 1.403 1_556 S
C1951 C1948 1.403 . S
C1951 C1952 1.524 . S
C1951 C1955 1.400 1_556 S
C1952 H1937 0.960 . S
C1952 H1938 0.960 . S
C1952 H1939 0.973 . S
C1952 C1951 1.524 . S
C1953 C1950 1.403 1_554 S
C1953 C1954 1.392 . S
C1953 C1957 1.495 . S
C1954 C1953 1.392 . S
C1954 C1955 1.385 . S
C1954 C1956 1.478 . S
C1955 H1949 0.930 . S
C1955 C1951 1.400 1_554 S
C1955 C1954 1.385 . S
C1956 C1954 1.478 . S
C1956 C1958 1.402 . S
C1956 C1962 1.383 . S
C1957 C1953 1.495 . S
C1957 H1963 0.959 . S
C1957 H1964 0.961 . S
C1957 H1965 0.960 1_554 S
C1958 C1956 1.402 . S
C1958 C1959 1.405 . S
C1958 H1966 0.899 1_554 S
C1959 C1958 1.405 . S
C1959 C1960 1.383 . S
C1959 H1967 0.929 1_554 S
C1960 C1959 1.383 . S
C1960 C1961 1.377 . S
C1961 H1945 0.930 . S
C1961 C1960 1.377 . S
C1961 C1962 1.379 . S
C1962 H1946 0.931 . S
C1962 C1956 1.383 . S
C1962 C1961 1.379 . S
H1963 C1957 0.959 . S
H1964 C1957 0.961 . S
H1965 C1957 0.960 1_556 S
H1966 C1958 0.899 1_556 S
H1967 C1959 0.929 1_556 S
H1968 C1976 0.929 . S
H1969 C1978 0.930 . S
H1970 C1980 0.930 . S
H1971 C1983 0.929 . S
H1972 C1986 0.930 . S
H1973 C1988 0.960 . S
H1974 C1988 0.960 . S
H1975 C1988 0.960 . S
C1976 H1968 0.929 . S
C1976 C1977 1.377 . S
C1976 C1978 1.384 . S
C1977 C1976 1.377 . S
C1977 C1983 1.390 . S
C1978 H1969 0.930 . S
C1978 C1976 1.384 . S
C1978 C1979 1.372 . S
C1979 C1978 1.372 . S
C1979 C1980 1.400 . S
C1979 C1984 1.490 . S
C1980 H1970 0.930 . S
C1980 C1979 1.400 . S
C1980 C1983 1.386 . S
H1981 C1997 0.930 . S
H1982 C1998 0.931 . S
C1983 H1971 0.929 . S
C1983 C1977 1.390 . S
C1983 C1980 1.386 . S
C1984 C1979 1.490 . S
C1984 C1986 1.395 . S
C1984 C1987 1.403 . S
H1985 C1991 0.930 . S
C1986 H1972 0.930 . S
C1986 C1984 1.395 . S
C1986 C1989 1.403 . S
C1987 C1984 1.403 . S
C1987 C1988 1.524 . S
C1987 C1991 1.400 . S
C1988 H1973 0.960 . S
C1988 H1974 0.960 . S
C1988 H1975 0.960 . S
C1988 C1987 1.524 . S
C1989 C1986 1.403 . S
C1989 C1990 1.392 . S
C1989 C1993 1.495 . S
C1990 C1989 1.392 . S
C1990 C1991 1.385 . S
C1990 C1992 1.478 . S
C1991 H1985 0.930 . S
C1991 C1987 1.400 . S
C1991 C1990 1.385 . S
C1992 C1990 1.478 . S
C1992 C1994 1.381 . S
C1992 C1998 1.383 . S
C1993 C1989 1.495 . S
C1993 H1999 0.959 . S
C1993 H2000 0.961 . S
C1993 H2001 0.960 . S
C1994 C1992 1.381 . S
C1994 C1995 1.394 . S
C1994 H2002 0.930 . S
C1995 C1994 1.394 . S
C1995 C1996 1.383 . S
C1995 H2003 0.929 . S
C1996 C1995 1.383 . S
C1996 C1997 1.377 . S
C1997 H1981 0.930 . S
C1997 C1996 1.377 . S
C1997 C1998 1.379 . S
C1998 H1982 0.931 . S
C1998 C1992 1.383 . S
C1998 C1997 1.379 . S
H1999 C1993 0.959 . S
H2000 C1993 0.961 . S
H2001 C1993 0.960 . S
H2002 C1994 0.930 . S
H2003 C1995 0.929 . S
H2004 C2012 0.929 . S
H2005 C2014 0.930 . S
H2006 C2016 0.930 . S
H2007 C2019 0.929 . S
H2008 C2022 0.930 . S
H2009 C2024 0.960 . S
H2010 C2024 0.960 . S
H2011 C2024 0.960 . S
C2012 H2004 0.929 . S
C2012 C2013 1.377 . S
C2012 C2014 1.384 . S
C2013 C2012 1.377 . S
C2013 C2019 1.390 . S
C2014 H2005 0.930 . S
C2014 C2012 1.384 . S
C2014 C2015 1.372 . S
C2015 C2014 1.372 . S
C2015 C2016 1.400 . S
C2015 C2020 1.490 . S
C2016 H2006 0.930 . S
C2016 C2015 1.400 . S
C2016 C2019 1.386 . S
H2017 C2033 0.930 . S
H2018 C2034 0.931 . S
C2019 H2007 0.929 . S
C2019 C2013 1.390 . S
C2019 C2016 1.386 . S
C2020 C2015 1.490 . S
C2020 C2022 1.395 . S
C2020 C2023 1.403 . S
H2021 C2027 0.930 . S
C2022 H2008 0.930 . S
C2022 C2020 1.395 . S
C2022 C2025 1.403 . S
C2023 C2020 1.403 . S
C2023 C2024 1.524 . S
C2023 C2027 1.400 . S
C2024 H2009 0.960 . S
C2024 H2010 0.960 . S
C2024 H2011 0.960 . S
C2024 C2023 1.524 . S
C2025 C2022 1.403 . S
C2025 C2026 1.392 . S
C2025 C2029 1.495 . S
C2026 C2025 1.392 . S
C2026 C2027 1.385 . S
C2026 C2028 1.478 . S
C2027 H2021 0.930 . S
C2027 C2023 1.400 . S
C2027 C2026 1.385 . S
C2028 C2026 1.478 . S
C2028 C2030 1.381 . S
C2028 C2034 1.383 . S
C2029 C2025 1.495 . S
C2029 H2035 0.959 . S
C2029 H2036 0.961 . S
C2029 H2037 0.960 . S
C2030 C2028 1.381 . S
C2030 C2031 1.394 . S
C2030 H2038 0.930 . S
C2031 C2030 1.394 . S
C2031 C2032 1.383 . S
C2031 H2039 0.929 . S
C2032 C2031 1.383 . S
C2032 C2033 1.377 . S
C2033 H2017 0.930 . S
C2033 C2032 1.377 . S
C2033 C2034 1.379 . S
C2034 H2018 0.931 . S
C2034 C2028 1.383 . S
C2034 C2033 1.379 . S
H2035 C2029 0.959 . S
H2036 C2029 0.961 . S
H2037 C2029 0.960 . S
H2038 C2030 0.930 . S
H2039 C2031 0.929 . S
H2040 C2048 0.929 . S
H2041 C2050 0.930 . S
H2042 C2052 0.930 . S
H2043 C2055 0.929 . S
H2044 C2058 0.930 . S
H2045 C2060 0.960 . S
H2046 C2060 0.960 . S
H2047 C2060 0.960 . S
C2048 H2040 0.929 . S
C2048 C2049 1.377 . S
C2048 C2050 1.384 . S
C2049 C2048 1.377 . S
C2049 C2055 1.390 . S
C2050 H2041 0.930 . S
C2050 C2048 1.384 . S
C2050 C2051 1.372 . S
C2051 C2050 1.372 . S
C2051 C2052 1.400 . S
C2051 C2056 1.490 . S
C2052 H2042 0.930 . S
C2052 C2051 1.400 . S
C2052 C2055 1.386 . S
H2053 C2069 0.930 . S
H2054 C2070 0.931 . S
C2055 H2043 0.929 . S
C2055 C2049 1.390 . S
C2055 C2052 1.386 . S
C2056 C2051 1.490 . S
C2056 C2058 1.395 . S
C2056 C2059 1.403 . S
H2057 C2063 0.930 . S
C2058 H2044 0.930 . S
C2058 C2056 1.395 . S
C2058 C2061 1.403 . S
C2059 C2056 1.403 . S
C2059 C2060 1.524 . S
C2059 C2063 1.400 . S
C2060 H2045 0.960 . S
C2060 H2046 0.960 . S
C2060 H2047 0.960 . S
C2060 C2059 1.524 . S
C2061 C2058 1.403 . S
C2061 C2062 1.392 . S
C2061 C2065 1.495 . S
C2062 C2061 1.392 . S
C2062 C2063 1.385 . S
C2062 C2064 1.478 . S
C2063 H2057 0.930 . S
C2063 C2059 1.400 . S
C2063 C2062 1.385 . S
C2064 C2062 1.478 . S
C2064 C2066 1.381 . S
C2064 C2070 1.383 . S
C2065 C2061 1.495 . S
C2065 H2071 0.959 . S
C2065 H2072 0.961 . S
C2065 H2073 0.960 . S
C2066 C2064 1.381 . S
C2066 C2067 1.394 . S
C2066 H2074 0.930 . S
C2067 C2066 1.394 . S
C2067 C2068 1.383 . S
C2067 H2075 0.929 . S
C2068 C2067 1.383 . S
C2068 C2069 1.377 . S
C2069 H2053 0.930 . S
C2069 C2068 1.377 . S
C2069 C2070 1.379 . S
C2070 H2054 0.931 . S
C2070 C2064 1.383 . S
C2070 C2069 1.379 . S
H2071 C2065 0.959 . S
H2072 C2065 0.961 . S
H2073 C2065 0.960 . S
H2074 C2066 0.930 . S
H2075 C2067 0.929 . S
H2076 C2084 0.929 . S
H2077 C2086 0.930 . S
H2078 C2088 0.930 . S
H2079 C2091 0.929 . S
H2080 C2094 0.930 . S
H2081 C2096 0.960 . S
H2082 C2096 0.960 . S
H2083 C2096 0.960 . S
C2084 H2076 0.929 . S
C2084 C2085 1.377 . S
C2084 C2086 1.384 . S
C2085 C2084 1.377 . S
C2085 C2091 1.390 . S
C2086 H2077 0.930 . S
C2086 C2084 1.384 . S
C2086 C2087 1.372 . S
C2087 C2086 1.372 . S
C2087 C2088 1.400 . S
C2087 C2092 1.490 . S
C2088 H2078 0.930 . S
C2088 C2087 1.400 . S
C2088 C2091 1.386 . S
H2089 C2105 0.930 . S
H2090 C2106 0.931 . S
C2091 H2079 0.929 . S
C2091 C2085 1.390 . S
C2091 C2088 1.386 . S
C2092 C2087 1.490 . S
C2092 C2094 1.395 . S
C2092 C2095 1.403 . S
H2093 C2099 0.930 . S
C2094 H2080 0.930 . S
C2094 C2092 1.395 . S
C2094 C2097 1.403 . S
C2095 C2092 1.403 . S
C2095 C2096 1.524 . S
C2095 C2099 1.400 . S
C2096 H2081 0.960 . S
C2096 H2082 0.960 . S
C2096 H2083 0.960 . S
C2096 C2095 1.524 . S
C2097 C2094 1.403 . S
C2097 C2098 1.392 . S
C2097 C2101 1.495 . S
C2098 C2097 1.392 . S
C2098 C2099 1.385 . S
C2098 C2100 1.478 . S
C2099 H2093 0.930 . S
C2099 C2095 1.400 . S
C2099 C2098 1.385 . S
C2100 C2098 1.478 . S
C2100 C2102 1.381 . S
C2100 C2106 1.383 . S
C2101 C2097 1.495 . S
C2101 H2107 0.959 . S
C2101 H2108 0.961 . S
C2101 H2109 0.960 . S
C2102 C2100 1.381 . S
C2102 C2103 1.394 . S
C2102 H2110 0.930 . S
C2103 C2102 1.394 . S
C2103 C2104 1.383 . S
C2103 H2111 0.929 . S
C2104 C2103 1.383 . S
C2104 C2105 1.377 . S
C2105 H2089 0.930 . S
C2105 C2104 1.377 . S
C2105 C2106 1.379 . S
C2106 H2090 0.931 . S
C2106 C2100 1.383 . S
C2106 C2105 1.379 . S
H2107 C2101 0.959 . S
H2108 C2101 0.961 . S
H2109 C2101 0.960 . S
H2110 C2102 0.930 . S
H2111 C2103 0.929 . S
H2112 C2120 0.929 . S
H2113 C2122 0.930 . S
H2114 C2124 0.930 . S
H2115 C2127 0.929 . S
H2116 C2130 0.930 . S
H2117 C2132 0.960 . S
H2118 C2132 0.960 . S
H2119 C2132 0.960 . S
C2120 H2112 0.929 . S
C2120 C2121 1.377 . S
C2120 C2122 1.384 . S
C2121 C2120 1.377 . S
C2121 C2127 1.390 . S
C2122 H2113 0.930 . S
C2122 C2120 1.384 . S
C2122 C2123 1.372 . S
C2123 C2122 1.372 . S
C2123 C2124 1.400 . S
C2123 C2128 1.490 . S
C2124 H2114 0.930 . S
C2124 C2123 1.400 . S
C2124 C2127 1.386 . S
H2125 C2141 0.930 . S
H2126 C2142 0.931 . S
C2127 H2115 0.929 . S
C2127 C2121 1.390 . S
C2127 C2124 1.386 . S
C2128 C2123 1.490 . S
C2128 C2130 1.395 . S
C2128 C2131 1.403 . S
H2129 C2135 0.930 . S
C2130 H2116 0.930 . S
C2130 C2128 1.395 . S
C2130 C2133 1.403 . S
C2131 C2128 1.403 . S
C2131 C2132 1.524 . S
C2131 C2135 1.400 . S
C2132 H2117 0.960 . S
C2132 H2118 0.960 . S
C2132 H2119 0.960 . S
C2132 C2131 1.524 . S
C2133 C2130 1.403 . S
C2133 C2134 1.392 . S
C2133 C2137 1.495 . S
C2134 C2133 1.392 . S
C2134 C2135 1.385 . S
C2134 C2136 1.478 . S
C2135 H2129 0.930 . S
C2135 C2131 1.400 . S
C2135 C2134 1.385 . S
C2136 C2134 1.478 . S
C2136 C2138 1.381 . S
C2136 C2142 1.383 . S
C2137 C2133 1.495 . S
C2137 H2143 0.959 . S
C2137 H2144 0.961 . S
C2137 H2145 0.960 . S
C2138 C2136 1.381 . S
C2138 C2139 1.394 . S
C2138 H2146 0.930 . S
C2139 C2138 1.394 . S
C2139 C2140 1.383 . S
C2139 H2147 0.929 . S
C2140 C2139 1.383 . S
C2140 C2141 1.377 . S
C2141 H2125 0.930 . S
C2141 C2140 1.377 . S
C2141 C2142 1.379 . S
C2142 H2126 0.931 . S
C2142 C2136 1.383 . S
C2142 C2141 1.379 . S
H2143 C2137 0.959 . S
H2144 C2137 0.961 . S
H2145 C2137 0.960 . S
H2146 C2138 0.930 . S
H2147 C2139 0.929 . S
H2148 C2156 0.929 . S
H2149 C2158 0.930 . S
H2150 C2160 0.930 . S
H2151 C2163 0.929 . S
H2152 C2166 0.930 . S
H2153 C2168 0.960 . S
H2154 C2168 0.960 . S
H2155 C2168 0.960 . S
C2156 H2148 0.929 . S
C2156 C2157 1.377 . S
C2156 C2158 1.384 . S
C2157 C2156 1.377 . S
C2157 C2163 1.390 . S
C2158 H2149 0.930 . S
C2158 C2156 1.384 . S
C2158 C2159 1.372 . S
C2159 C2158 1.372 . S
C2159 C2160 1.400 . S
C2159 C2164 1.490 . S
C2160 H2150 0.930 . S
C2160 C2159 1.400 . S
C2160 C2163 1.386 . S
H2161 C2177 0.930 . S
H2162 C2178 0.931 . S
C2163 H2151 0.929 . S
C2163 C2157 1.390 . S
C2163 C2160 1.386 . S
C2164 C2159 1.490 . S
C2164 C2166 1.395 . S
C2164 C2167 1.403 . S
H2165 C2171 0.930 . S
C2166 H2152 0.930 . S
C2166 C2164 1.395 . S
C2166 C2169 1.403 . S
C2167 C2164 1.403 . S
C2167 C2168 1.524 . S
C2167 C2171 1.400 . S
C2168 H2153 0.960 . S
C2168 H2154 0.960 . S
C2168 H2155 0.960 . S
C2168 C2167 1.524 . S
C2169 C2166 1.403 . S
C2169 C2170 1.392 . S
C2169 C2173 1.495 . S
C2170 C2169 1.392 . S
C2170 C2171 1.385 . S
C2170 C2172 1.478 . S
C2171 H2165 0.930 . S
C2171 C2167 1.400 . S
C2171 C2170 1.385 . S
C2172 C2170 1.478 . S
C2172 C2174 1.381 . S
C2172 C2178 1.383 . S
C2173 C2169 1.495 . S
C2173 H2179 0.959 . S
C2173 H2180 0.961 . S
C2173 H2181 0.960 . S
C2174 C2172 1.381 . S
C2174 C2175 1.394 . S
C2174 H2182 0.930 . S
C2175 C2174 1.394 . S
C2175 C2176 1.383 . S
C2175 H2183 0.929 . S
C2176 C2175 1.383 . S
C2176 C2177 1.377 . S
C2177 H2161 0.930 . S
C2177 C2176 1.377 . S
C2177 C2178 1.379 . S
C2178 H2162 0.931 . S
C2178 C2172 1.383 . S
C2178 C2177 1.379 . S
H2179 C2173 0.959 . S
H2180 C2173 0.961 . S
H2181 C2173 0.960 . S
H2182 C2174 0.930 . S
H2183 C2175 0.929 . S
H2184 C2192 0.929 . S
H2185 C2194 0.930 . S
H2186 C2196 0.930 . S
H2187 C2199 0.929 . S
H2188 C2202 0.930 . S
H2189 C2204 0.960 . S
H2190 C2204 0.960 . S
H2191 C2204 0.960 . S
C2192 H2184 0.929 . S
C2192 C2193 1.377 . S
C2192 C2194 1.384 . S
C2193 C2192 1.377 . S
C2193 C2199 1.390 . S
C2194 H2185 0.930 . S
C2194 C2192 1.384 . S
C2194 C2195 1.372 . S
C2195 C2194 1.372 . S
C2195 C2196 1.400 . S
C2195 C2200 1.490 . S
C2196 H2186 0.930 . S
C2196 C2195 1.400 . S
C2196 C2199 1.386 . S
H2197 C2213 0.930 . S
H2198 C2214 0.931 . S
C2199 H2187 0.929 . S
C2199 C2193 1.390 . S
C2199 C2196 1.386 . S
C2200 C2195 1.490 . S
C2200 C2202 1.395 . S
C2200 C2203 1.403 . S
H2201 C2207 0.930 . S
C2202 H2188 0.930 . S
C2202 C2200 1.395 . S
C2202 C2205 1.403 . S
C2203 C2200 1.403 . S
C2203 C2204 1.524 . S
C2203 C2207 1.400 . S
C2204 H2189 0.960 . S
C2204 H2190 0.960 . S
C2204 H2191 0.960 . S
C2204 C2203 1.524 . S
C2205 C2202 1.403 . S
C2205 C2206 1.392 . S
C2205 C2209 1.495 . S
C2206 C2205 1.392 . S
C2206 C2207 1.385 . S
C2206 C2208 1.478 . S
C2207 H2201 0.930 . S
C2207 C2203 1.400 . S
C2207 C2206 1.385 . S
C2208 C2206 1.478 . S
C2208 C2210 1.381 . S
C2208 C2214 1.383 . S
C2209 C2205 1.495 . S
C2209 H2215 0.959 . S
C2209 H2216 0.961 . S
C2209 H2217 0.960 . S
C2210 C2208 1.381 . S
C2210 C2211 1.394 . S
C2210 H2218 0.930 . S
C2211 C2210 1.394 . S
C2211 C2212 1.383 . S
C2211 H2219 0.929 . S
C2212 C2211 1.383 . S
C2212 C2213 1.377 . S
C2213 H2197 0.930 . S
C2213 C2212 1.377 . S
C2213 C2214 1.379 . S
C2214 H2198 0.931 . S
C2214 C2208 1.383 . S
C2214 C2213 1.379 . S
H2215 C2209 0.959 . S
H2216 C2209 0.961 . S
H2217 C2209 0.960 . S
H2218 C2210 0.930 . S
H2219 C2211 0.929 . S
H2220 C2228 0.929 . S
H2221 C2230 0.930 . S
H2222 C2232 0.930 . S
H2223 C2235 0.929 . S
H2224 C2238 0.930 . S
H2225 C2240 0.960 . S
H2226 C2240 0.960 . S
H2227 C2240 0.960 . S
C2228 H2220 0.929 . S
C2228 C2229 1.377 . S
C2228 C2230 1.384 . S
C2229 C2228 1.377 . S
C2229 C2235 1.390 . S
C2230 H2221 0.930 . S
C2230 C2228 1.384 . S
C2230 C2231 1.372 . S
C2231 C2230 1.372 . S
C2231 C2232 1.400 . S
C2231 C2236 1.490 . S
C2232 H2222 0.930 . S
C2232 C2231 1.400 . S
C2232 C2235 1.386 . S
H2233 C2249 0.930 . S
H2234 C2250 0.931 . S
C2235 H2223 0.929 . S
C2235 C2229 1.390 . S
C2235 C2232 1.386 . S
C2236 C2231 1.490 . S
C2236 C2238 1.395 . S
C2236 C2239 1.403 . S
H2237 C2243 0.930 . S
C2238 H2224 0.930 . S
C2238 C2236 1.395 . S
C2238 C2241 1.403 . S
C2239 C2236 1.403 . S
C2239 C2240 1.524 . S
C2239 C2243 1.400 . S
C2240 H2225 0.960 . S
C2240 H2226 0.960 . S
C2240 H2227 0.960 . S
C2240 C2239 1.524 . S
C2241 C2238 1.403 . S
C2241 C2242 1.392 . S
C2241 C2245 1.495 . S
C2242 C2241 1.392 . S
C2242 C2243 1.385 . S
C2242 C2244 1.478 . S
C2243 H2237 0.930 . S
C2243 C2239 1.400 . S
C2243 C2242 1.385 . S
C2244 C2242 1.478 . S
C2244 C2246 1.381 . S
C2244 C2250 1.383 . S
C2245 C2241 1.495 . S
C2245 H2251 0.959 . S
C2245 H2252 0.961 . S
C2245 H2253 0.960 . S
C2246 C2244 1.381 . S
C2246 C2247 1.394 . S
C2246 H2254 0.930 . S
C2247 C2246 1.394 . S
C2247 C2248 1.383 . S
C2247 H2255 0.929 . S
C2248 C2247 1.383 . S
C2248 C2249 1.377 . S
C2249 H2233 0.930 . S
C2249 C2248 1.377 . S
C2249 C2250 1.379 . S
C2250 H2234 0.931 . S
C2250 C2244 1.383 . S
C2250 C2249 1.379 . S
H2251 C2245 0.959 . S
H2252 C2245 0.961 . S
H2253 C2245 0.960 . S
H2254 C2246 0.930 . S
H2255 C2247 0.929 . S
H2256 C2264 0.929 . S
H2257 C2266 0.930 . S
H2258 C2268 0.930 . S
H2259 C2271 0.929 . S
H2260 C2274 0.930 . S
H2261 C2276 0.960 . S
H2262 C2276 0.960 . S
H2263 C2276 0.960 . S
C2264 H2256 0.929 . S
C2264 C2265 1.377 . S
C2264 C2266 1.384 . S
C2265 C2264 1.377 . S
C2265 C2271 1.390 . S
C2266 H2257 0.930 . S
C2266 C2264 1.384 . S
C2266 C2267 1.372 . S
C2267 C2266 1.372 . S
C2267 C2268 1.400 . S
C2267 C2272 1.490 . S
C2268 H2258 0.930 . S
C2268 C2267 1.400 . S
C2268 C2271 1.386 . S
H2269 C2285 0.930 . S
H2270 C2286 0.931 . S
C2271 H2259 0.929 . S
C2271 C2265 1.390 . S
C2271 C2268 1.386 . S
C2272 C2267 1.490 . S
C2272 C2274 1.395 . S
C2272 C2275 1.403 . S
H2273 C2279 0.930 . S
C2274 H2260 0.930 . S
C2274 C2272 1.395 . S
C2274 C2277 1.403 . S
C2275 C2272 1.403 . S
C2275 C2276 1.524 . S
C2275 C2279 1.400 . S
C2276 H2261 0.960 . S
C2276 H2262 0.960 . S
C2276 H2263 0.960 . S
C2276 C2275 1.524 . S
C2277 C2274 1.403 . S
C2277 C2278 1.392 . S
C2277 C2281 1.495 . S
C2278 C2277 1.392 . S
C2278 C2279 1.385 . S
C2278 C2280 1.478 . S
C2279 H2273 0.930 . S
C2279 C2275 1.400 . S
C2279 C2278 1.385 . S
C2280 C2278 1.478 . S
C2280 C2282 1.381 . S
C2280 C2286 1.383 . S
C2281 C2277 1.495 . S
C2281 H2287 0.959 . S
C2281 H2288 0.961 . S
C2281 H2289 0.960 . S
C2282 C2280 1.381 . S
C2282 C2283 1.394 . S
C2282 H2290 0.930 . S
C2283 C2282 1.394 . S
C2283 C2284 1.383 . S
C2283 H2291 0.929 . S
C2284 C2283 1.383 . S
C2284 C2285 1.377 . S
C2285 H2269 0.930 . S
C2285 C2284 1.377 . S
C2285 C2286 1.379 . S
C2286 H2270 0.931 . S
C2286 C2280 1.383 . S
C2286 C2285 1.379 . S
H2287 C2281 0.959 . S
H2288 C2281 0.961 . S
H2289 C2281 0.960 . S
H2290 C2282 0.930 . S
H2291 C2283 0.929 . S
H2292 C2300 0.929 . S
H2293 C2302 0.930 . S
H2294 C2304 0.930 . S
H2295 C2307 0.929 . S
H2296 C2310 0.930 . S
H2297 C2312 0.960 . S
H2298 C2312 0.960 . S
H2299 C2312 0.960 . S
C2300 H2292 0.929 . S
C2300 C2301 1.377 . S
C2300 C2302 1.384 . S
C2301 C2300 1.377 . S
C2301 C2307 1.390 . S
C2302 H2293 0.930 . S
C2302 C2300 1.384 . S
C2302 C2303 1.372 . S
C2303 C2302 1.372 . S
C2303 C2304 1.400 . S
C2303 C2308 1.490 . S
C2304 H2294 0.930 . S
C2304 C2303 1.400 . S
C2304 C2307 1.386 . S
H2305 C2321 0.930 . S
H2306 C2322 0.931 . S
C2307 H2295 0.929 . S
C2307 C2301 1.390 . S
C2307 C2304 1.386 . S
C2308 C2303 1.490 . S
C2308 C2310 1.395 . S
C2308 C2311 1.403 . S
H2309 C2315 0.930 . S
C2310 H2296 0.930 . S
C2310 C2308 1.395 . S
C2310 C2313 1.403 . S
C2311 C2308 1.403 . S
C2311 C2312 1.524 . S
C2311 C2315 1.400 . S
C2312 H2297 0.960 . S
C2312 H2298 0.960 . S
C2312 H2299 0.960 . S
C2312 C2311 1.524 . S
C2313 C2310 1.403 . S
C2313 C2314 1.392 . S
C2313 C2317 1.495 . S
C2314 C2313 1.392 . S
C2314 C2315 1.385 . S
C2314 C2316 1.478 . S
C2315 H2309 0.930 . S
C2315 C2311 1.400 . S
C2315 C2314 1.385 . S
C2316 C2314 1.478 . S
C2316 C2318 1.381 . S
C2316 C2322 1.383 . S
C2317 C2313 1.495 . S
C2317 H2323 0.959 . S
C2317 H2324 0.961 . S
C2317 H2325 0.960 . S
C2318 C2316 1.381 . S
C2318 C2319 1.394 . S
C2318 H2326 0.930 . S
C2319 C2318 1.394 . S
C2319 C2320 1.383 . S
C2319 H2327 0.929 . S
C2320 C2319 1.383 . S
C2320 C2321 1.377 . S
C2321 H2305 0.930 . S
C2321 C2320 1.377 . S
C2321 C2322 1.379 . S
C2322 H2306 0.931 . S
C2322 C2316 1.383 . S
C2322 C2321 1.379 . S
H2323 C2317 0.959 . S
H2324 C2317 0.961 . S
H2325 C2317 0.960 . S
H2326 C2318 0.930 . S
H2327 C2319 0.929 . S
H2328 C2336 0.929 . S
H2329 C2338 0.930 . S
H2330 C2340 0.930 . S
H2331 C2343 0.929 . S
H2332 C2346 0.930 . S
H2333 C2348 0.960 . S
H2334 C2348 0.960 . S
H2335 C2348 0.960 . S
C2336 H2328 0.929 . S
C2336 C2337 1.377 . S
C2336 C2338 1.384 . S
C2337 C2336 1.377 . S
C2337 C2343 1.390 . S
C2338 H2329 0.930 . S
C2338 C2336 1.384 . S
C2338 C2339 1.372 . S
C2339 C2338 1.372 . S
C2339 C2340 1.400 . S
C2339 C2344 1.490 . S
C2340 H2330 0.930 . S
C2340 C2339 1.400 . S
C2340 C2343 1.386 . S
H2341 C2357 0.930 . S
H2342 C2358 0.931 . S
C2343 H2331 0.929 . S
C2343 C2337 1.390 . S
C2343 C2340 1.386 . S
C2344 C2339 1.490 . S
C2344 C2346 1.395 . S
C2344 C2347 1.403 . S
H2345 C2351 0.930 . S
C2346 H2332 0.930 . S
C2346 C2344 1.395 . S
C2346 C2349 1.403 . S
C2347 C2344 1.403 . S
C2347 C2348 1.524 . S
C2347 C2351 1.400 . S
C2348 H2333 0.960 . S
C2348 H2334 0.960 . S
C2348 H2335 0.960 . S
C2348 C2347 1.524 . S
C2349 C2346 1.403 . S
C2349 C2350 1.392 . S
C2349 C2353 1.495 . S
C2350 C2349 1.392 . S
C2350 C2351 1.385 . S
C2350 C2352 1.478 . S
C2351 H2345 0.930 . S
C2351 C2347 1.400 . S
C2351 C2350 1.385 . S
C2352 C2350 1.478 . S
C2352 C2354 1.381 . S
C2352 C2358 1.383 . S
C2353 C2349 1.495 . S
C2353 H2359 0.959 . S
C2353 H2360 0.961 . S
C2353 H2361 0.960 . S
C2354 C2352 1.381 . S
C2354 C2355 1.394 . S
C2354 H2362 0.930 . S
C2355 C2354 1.394 . S
C2355 C2356 1.383 . S
C2355 H2363 0.929 . S
C2356 C2355 1.383 . S
C2356 C2357 1.377 . S
C2357 H2341 0.930 . S
C2357 C2356 1.377 . S
C2357 C2358 1.379 . S
C2358 H2342 0.931 . S
C2358 C2352 1.383 . S
C2358 C2357 1.379 . S
H2359 C2353 0.959 . S
H2360 C2353 0.961 . S
H2361 C2353 0.960 . S
H2362 C2354 0.930 . S
H2363 C2355 0.929 . S
H2364 C2372 0.929 . S
H2365 C2374 0.930 . S
H2366 C2376 0.930 . S
H2367 C2379 0.929 . S
H2368 C2382 0.930 . S
H2369 C2384 0.960 . S
H2370 C2384 0.960 . S
H2371 C2384 0.960 . S
C2372 H2364 0.929 . S
C2372 C2373 1.377 . S
C2372 C2374 1.384 . S
C2373 C2372 1.377 . S
C2373 C2379 1.390 . S
C2374 H2365 0.930 . S
C2374 C2372 1.384 . S
C2374 C2375 1.372 . S
C2375 C2374 1.372 . S
C2375 C2376 1.400 . S
C2375 C2380 1.490 . S
C2376 H2366 0.930 . S
C2376 C2375 1.400 . S
C2376 C2379 1.386 . S
H2377 C2393 0.930 . S
H2378 C2394 0.931 . S
C2379 H2367 0.929 . S
C2379 C2373 1.390 . S
C2379 C2376 1.386 . S
C2380 C2375 1.490 . S
C2380 C2382 1.395 . S
C2380 C2383 1.403 . S
H2381 C2387 0.930 . S
C2382 H2368 0.930 . S
C2382 C2380 1.395 . S
C2382 C2385 1.403 . S
C2383 C2380 1.403 . S
C2383 C2384 1.524 . S
C2383 C2387 1.400 . S
C2384 H2369 0.960 . S
C2384 H2370 0.960 . S
C2384 H2371 0.960 . S
C2384 C2383 1.524 . S
C2385 C2382 1.403 . S
C2385 C2386 1.392 . S
C2385 C2389 1.495 . S
C2386 C2385 1.392 . S
C2386 C2387 1.385 . S
C2386 C2388 1.478 . S
C2387 H2381 0.930 . S
C2387 C2383 1.400 . S
C2387 C2386 1.385 . S
C2388 C2386 1.478 . S
C2388 C2390 1.381 . S
C2388 C2394 1.383 . S
C2389 C2385 1.495 . S
C2389 H2395 0.959 . S
C2389 H2396 0.961 . S
C2389 H2397 0.960 . S
C2390 C2388 1.381 . S
C2390 C2391 1.394 . S
C2390 H2398 0.930 . S
C2391 C2390 1.394 . S
C2391 C2392 1.383 . S
C2391 H2399 0.929 . S
C2392 C2391 1.383 . S
C2392 C2393 1.377 . S
C2393 H2377 0.930 . S
C2393 C2392 1.377 . S
C2393 C2394 1.379 . S
C2394 H2378 0.931 . S
C2394 C2388 1.383 . S
C2394 C2393 1.379 . S
H2395 C2389 0.959 . S
H2396 C2389 0.961 . S
H2397 C2389 0.960 . S
H2398 C2390 0.930 . S
H2399 C2391 0.929 . S
H2400 C2408 0.929 . S
H2401 C2410 0.930 . S
H2402 C2412 0.930 . S
H2403 C2415 0.929 . S
H2404 C2418 0.930 . S
H2405 C2420 0.960 . S
H2406 C2420 0.960 . S
H2407 C2420 0.960 . S
C2408 H2400 0.929 . S
C2408 C2409 1.377 . S
C2408 C2410 1.384 . S
C2409 C2408 1.377 . S
C2409 C2415 1.390 . S
C2410 H2401 0.930 . S
C2410 C2408 1.384 . S
C2410 C2411 1.372 . S
C2411 C2410 1.372 . S
C2411 C2412 1.400 . S
C2411 C2416 1.490 . S
C2412 H2402 0.930 . S
C2412 C2411 1.400 . S
C2412 C2415 1.386 . S
H2413 C2429 0.930 . S
H2414 C2430 0.931 . S
C2415 H2403 0.929 . S
C2415 C2409 1.390 . S
C2415 C2412 1.386 . S
C2416 C2411 1.490 . S
C2416 C2418 1.395 . S
C2416 C2419 1.403 . S
H2417 C2423 0.930 . S
C2418 H2404 0.930 . S
C2418 C2416 1.395 . S
C2418 C2421 1.403 . S
C2419 C2416 1.403 . S
C2419 C2420 1.524 . S
C2419 C2423 1.400 . S
C2420 H2405 0.960 . S
C2420 H2406 0.960 . S
C2420 H2407 0.960 . S
C2420 C2419 1.524 . S
C2421 C2418 1.403 . S
C2421 C2422 1.392 . S
C2421 C2425 1.495 . S
C2422 C2421 1.392 . S
C2422 C2423 1.385 . S
C2422 C2424 1.478 . S
C2423 H2417 0.930 . S
C2423 C2419 1.400 . S
C2423 C2422 1.385 . S
C2424 C2422 1.478 . S
C2424 C2426 1.381 . S
C2424 C2430 1.383 . S
C2425 C2421 1.495 . S
C2425 H2431 0.959 . S
C2425 H2432 0.961 . S
C2425 H2433 0.960 . S
C2426 C2424 1.381 . S
C2426 C2427 1.394 . S
C2426 H2434 0.930 . S
C2427 C2426 1.394 . S
C2427 C2428 1.383 . S
C2427 H2435 0.929 . S
C2428 C2427 1.383 . S
C2428 C2429 1.377 . S
C2429 H2413 0.930 . S
C2429 C2428 1.377 . S
C2429 C2430 1.379 . S
C2430 H2414 0.931 . S
C2430 C2424 1.383 . S
C2430 C2429 1.379 . S
H2431 C2425 0.959 . S
H2432 C2425 0.961 . S
H2433 C2425 0.960 . S
H2434 C2426 0.930 . S
H2435 C2427 0.929 . S
H2436 C2444 0.929 . S
H2437 C2446 0.930 . S
H2438 C2448 0.930 . S
H2439 C2451 0.929 . S
H2440 C2454 0.930 . S
H2441 C2456 0.960 . S
H2442 C2456 0.960 . S
H2443 C2456 0.960 . S
C2444 H2436 0.929 . S
C2444 C2445 1.377 . S
C2444 C2446 1.384 . S
C2445 C2444 1.377 . S
C2445 C2451 1.390 . S
C2446 H2437 0.930 . S
C2446 C2444 1.384 . S
C2446 C2447 1.372 . S
C2447 C2446 1.372 . S
C2447 C2448 1.400 . S
C2447 C2452 1.490 . S
C2448 H2438 0.930 . S
C2448 C2447 1.400 . S
C2448 C2451 1.386 . S
H2449 C2465 0.930 . S
H2450 C2466 0.931 . S
C2451 H2439 0.929 . S
C2451 C2445 1.390 . S
C2451 C2448 1.386 . S
C2452 C2447 1.490 . S
C2452 C2454 1.395 . S
C2452 C2455 1.403 . S
H2453 C2459 0.930 . S
C2454 H2440 0.930 . S
C2454 C2452 1.395 . S
C2454 C2457 1.403 . S
C2455 C2452 1.403 . S
C2455 C2456 1.524 . S
C2455 C2459 1.400 . S
C2456 H2441 0.960 . S
C2456 H2442 0.960 . S
C2456 H2443 0.960 . S
C2456 C2455 1.524 . S
C2457 C2454 1.403 . S
C2457 C2458 1.392 . S
C2457 C2461 1.495 . S
C2458 C2457 1.392 . S
C2458 C2459 1.385 . S
C2458 C2460 1.478 . S
C2459 H2453 0.930 . S
C2459 C2455 1.400 . S
C2459 C2458 1.385 . S
C2460 C2458 1.478 . S
C2460 C2462 1.381 . S
C2460 C2466 1.383 . S
C2461 C2457 1.495 . S
C2461 H2467 0.959 . S
C2461 H2468 0.961 . S
C2461 H2469 0.960 . S
C2462 C2460 1.381 . S
C2462 C2463 1.394 . S
C2462 H2470 0.930 . S
C2463 C2462 1.394 . S
C2463 C2464 1.383 . S
C2463 H2471 0.929 . S
C2464 C2463 1.383 . S
C2464 C2465 1.377 . S
C2465 H2449 0.930 . S
C2465 C2464 1.377 . S
C2465 C2466 1.379 . S
C2466 H2450 0.931 . S
C2466 C2460 1.383 . S
C2466 C2465 1.379 . S
H2467 C2461 0.959 . S
H2468 C2461 0.961 . S
H2469 C2461 0.960 . S
H2470 C2462 0.930 . S
H2471 C2463 0.929 . S
H2472 C2480 0.929 . S
H2473 C2482 0.930 . S
H2474 C2484 0.930 . S
H2475 C2487 0.929 . S
H2476 C2490 0.930 . S
H2477 C2492 0.960 . S
H2478 C2492 0.960 . S
H2479 C2492 0.960 . S
C2480 H2472 0.929 . S
C2480 C2481 1.377 . S
C2480 C2482 1.384 . S
C2481 C2480 1.377 . S
C2481 C2487 1.390 . S
C2482 H2473 0.930 . S
C2482 C2480 1.384 . S
C2482 C2483 1.372 . S
C2483 C2482 1.372 . S
C2483 C2484 1.400 . S
C2483 C2488 1.490 . S
C2484 H2474 0.930 . S
C2484 C2483 1.400 . S
C2484 C2487 1.386 . S
H2485 C2501 0.930 . S
H2486 C2502 0.931 . S
C2487 H2475 0.929 . S
C2487 C2481 1.390 . S
C2487 C2484 1.386 . S
C2488 C2483 1.490 . S
C2488 C2490 1.395 . S
C2488 C2491 1.403 . S
H2489 C2495 0.930 . S
C2490 H2476 0.930 . S
C2490 C2488 1.395 . S
C2490 C2493 1.403 . S
C2491 C2488 1.403 . S
C2491 C2492 1.524 . S
C2491 C2495 1.400 . S
C2492 H2477 0.960 . S
C2492 H2478 0.960 . S
C2492 H2479 0.960 . S
C2492 C2491 1.524 . S
C2493 C2490 1.403 . S
C2493 C2494 1.392 . S
C2493 C2497 1.495 . S
C2494 C2493 1.392 . S
C2494 C2495 1.385 . S
C2494 C2496 1.478 . S
C2495 H2489 0.930 . S
C2495 C2491 1.400 . S
C2495 C2494 1.385 . S
C2496 C2494 1.478 . S
C2496 C2498 1.381 . S
C2496 C2502 1.383 . S
C2497 C2493 1.495 . S
C2497 H2503 0.959 . S
C2497 H2504 0.961 . S
C2497 H2505 0.960 . S
C2498 C2496 1.381 . S
C2498 C2499 1.394 . S
C2498 H2506 0.930 . S
C2499 C2498 1.394 . S
C2499 C2500 1.383 . S
C2499 H2507 0.929 . S
C2500 C2499 1.383 . S
C2500 C2501 1.377 . S
C2501 H2485 0.930 . S
C2501 C2500 1.377 . S
C2501 C2502 1.379 . S
C2502 H2486 0.931 . S
C2502 C2496 1.383 . S
C2502 C2501 1.379 . S
H2503 C2497 0.959 . S
H2504 C2497 0.961 . S
H2505 C2497 0.960 . S
H2506 C2498 0.930 . S
H2507 C2499 0.929 . S
H2508 C2516 0.929 . S
H2509 C2518 0.930 . S
H2510 C2520 0.930 . S
H2511 C2523 0.929 . S
H2512 C2526 0.930 . S
H2513 C2528 0.960 . S
H2514 C2528 0.960 . S
H2515 C2528 0.960 . S
C2516 H2508 0.929 . S
C2516 C2517 1.377 . S
C2516 C2518 1.384 . S
C2517 C2516 1.377 . S
C2517 C2523 1.390 . S
C2518 H2509 0.930 . S
C2518 C2516 1.384 . S
C2518 C2519 1.372 . S
C2519 C2518 1.372 . S
C2519 C2520 1.400 . S
C2519 C2524 1.490 . S
C2520 H2510 0.930 . S
C2520 C2519 1.400 . S
C2520 C2523 1.386 . S
H2521 C2537 0.930 . S
H2522 C2538 0.931 . S
C2523 H2511 0.929 . S
C2523 C2517 1.390 . S
C2523 C2520 1.386 . S
C2524 C2519 1.490 . S
C2524 C2526 1.395 . S
C2524 C2527 1.403 . S
H2525 C2531 0.930 . S
C2526 H2512 0.930 . S
C2526 C2524 1.395 . S
C2526 C2529 1.403 . S
C2527 C2524 1.403 . S
C2527 C2528 1.524 . S
C2527 C2531 1.400 . S
C2528 H2513 0.960 . S
C2528 H2514 0.960 . S
C2528 H2515 0.960 . S
C2528 C2527 1.524 . S
C2529 C2526 1.403 . S
C2529 C2530 1.392 . S
C2529 C2533 1.495 . S
C2530 C2529 1.392 . S
C2530 C2531 1.385 . S
C2530 C2532 1.478 . S
C2531 H2525 0.930 . S
C2531 C2527 1.400 . S
C2531 C2530 1.385 . S
C2532 C2530 1.478 . S
C2532 C2534 1.381 . S
C2532 C2538 1.383 . S
C2533 C2529 1.495 . S
C2533 H2539 0.959 . S
C2533 H2540 0.961 . S
C2533 H2541 0.960 . S
C2534 C2532 1.381 . S
C2534 C2535 1.394 . S
C2534 H2542 0.930 . S
C2535 C2534 1.394 . S
C2535 C2536 1.383 . S
C2535 H2543 0.929 . S
C2536 C2535 1.383 . S
C2536 C2537 1.377 . S
C2537 H2521 0.930 . S
C2537 C2536 1.377 . S
C2537 C2538 1.379 . S
C2538 H2522 0.931 . S
C2538 C2532 1.383 . S
C2538 C2537 1.379 . S
H2539 C2533 0.959 . S
H2540 C2533 0.961 . S
H2541 C2533 0.960 . S
H2542 C2534 0.930 . S
H2543 C2535 0.929 . S
H2544 C2552 0.929 . S
H2545 C2554 0.930 . S
H2546 C2556 0.930 . S
H2547 C2559 0.929 . S
H2548 C2562 0.930 . S
H2549 C2564 0.960 . S
H2550 C2564 0.960 . S
H2551 C2564 0.960 . S
C2552 H2544 0.929 . S
C2552 C2553 1.377 . S
C2552 C2554 1.384 . S
C2553 C2552 1.377 . S
C2553 C2559 1.390 . S
C2554 H2545 0.930 . S
C2554 C2552 1.384 . S
C2554 C2555 1.372 . S
C2555 C2554 1.372 . S
C2555 C2556 1.400 . S
C2555 C2560 1.490 . S
C2556 H2546 0.930 . S
C2556 C2555 1.400 . S
C2556 C2559 1.386 . S
H2557 C2573 0.966 . S
H2558 C2574 0.931 . S
C2559 H2547 0.929 . S
C2559 C2553 1.390 . S
C2559 C2556 1.386 . S
C2560 C2555 1.490 . S
C2560 C2562 1.395 . S
C2560 C2563 1.403 . S
H2561 C2567 0.930 . S
C2562 H2548 0.930 . S
C2562 C2560 1.395 . S
C2562 C2565 1.403 . S
C2563 C2560 1.403 . S
C2563 C2564 1.524 . S
C2563 C2567 1.400 . S
C2564 H2549 0.960 . S
C2564 H2550 0.960 . S
C2564 H2551 0.960 . S
C2564 C2563 1.524 . S
C2565 C2562 1.403 . S
C2565 C2566 1.392 . S
C2565 C2569 1.495 . S
C2566 C2565 1.392 . S
C2566 C2567 1.385 . S
C2566 C2568 1.478 . S
C2567 H2561 0.930 . S
C2567 C2563 1.400 . S
C2567 C2566 1.385 . S
C2568 C2566 1.478 . S
C2568 C2570 1.381 . S
C2568 C2574 1.383 . S
C2569 C2565 1.495 . S
C2569 H2575 0.959 . S
C2569 H2576 0.961 . S
C2569 H2577 0.960 . S
C2570 C2568 1.381 . S
C2570 C2571 1.394 . S
C2570 H2578 0.930 . S
C2571 C2570 1.394 . S
C2571 C2572 1.383 . S
C2571 H2579 0.929 . S
C2572 C2571 1.383 . S
C2572 C2573 1.377 . S
C2573 H2557 0.966 . S
C2573 C2572 1.377 . S
C2573 C2574 1.379 . S
C2574 H2558 0.931 . S
C2574 C2568 1.383 . S
C2574 C2573 1.379 . S
H2575 C2569 0.959 . S
H2576 C2569 0.961 . S
H2577 C2569 0.960 . S
H2578 C2570 0.930 . S
H2579 C2571 0.929 . S
H2580 C2588 0.929 . S
H2581 C2590 0.930 . S
H2582 C2592 0.930 . S
H2583 C2595 0.929 . S
H2584 C2598 0.930 . S
H2585 C2600 0.960 . S
H2586 C2600 0.960 . S
H2587 C2600 0.960 . S
C2588 H2580 0.929 . S
C2588 C2589 1.377 . S
C2588 C2590 1.384 . S
C2589 C2588 1.377 . S
C2589 C2595 1.390 . S
C2590 H2581 0.930 . S
C2590 C2588 1.384 . S
C2590 C2591 1.372 . S
C2591 C2590 1.372 . S
C2591 C2592 1.400 . S
C2591 C2596 1.490 . S
C2592 H2582 0.930 . S
C2592 C2591 1.400 . S
C2592 C2595 1.386 . S
H2593 C2609 0.969 . S
H2594 C2610 0.931 . S
C2595 H2583 0.929 . S
C2595 C2589 1.390 . S
C2595 C2592 1.386 . S
C2596 C2591 1.490 . S
C2596 C2598 1.395 . S
C2596 C2599 1.403 . S
H2597 C2603 0.930 . S
C2598 H2584 0.930 . S
C2598 C2596 1.395 . S
C2598 C2601 1.403 . S
C2599 C2596 1.403 . S
C2599 C2600 1.524 . S
C2599 C2603 1.400 . S
C2600 H2585 0.960 . S
C2600 H2586 0.960 . S
C2600 H2587 0.960 . S
C2600 C2599 1.524 . S
C2601 C2598 1.403 . S
C2601 C2602 1.392 . S
C2601 C2605 1.495 . S
C2602 C2601 1.392 . S
C2602 C2603 1.385 . S
C2602 C2604 1.478 . S
C2603 H2597 0.930 . S
C2603 C2599 1.400 . S
C2603 C2602 1.385 . S
C2604 C2602 1.478 . S
C2604 C2606 1.381 . S
C2604 C2610 1.383 . S
C2605 C2601 1.495 . S
C2605 H2611 0.959 . S
C2605 H2612 0.961 . S
C2605 H2613 0.960 . S
C2606 C2604 1.381 . S
C2606 C2607 1.394 . S
C2606 H2614 0.930 . S
C2607 C2606 1.394 . S
C2607 C2608 1.383 . S
C2607 H2615 0.929 . S
C2608 C2607 1.383 . S
C2608 C2609 1.377 . S
C2609 H2593 0.969 . S
C2609 C2608 1.377 . S
C2609 C2610 1.379 . S
C2610 H2594 0.931 . S
C2610 C2604 1.383 . S
C2610 C2609 1.379 . S
H2611 C2605 0.959 . S
H2612 C2605 0.961 . S
H2613 C2605 0.960 . S
H2614 C2606 0.930 . S
H2615 C2607 0.929 . S
H2616 C2624 0.929 . S
H2617 C2626 0.930 . S
H2618 C2628 0.930 . S
H2619 C2631 0.929 . S
H2620 C2634 0.930 . S
H2621 C2636 0.960 . S
H2622 C2636 0.960 . S
H2623 C2636 0.960 . S
C2624 H2616 0.929 . S
C2624 C2625 1.377 . S
C2624 C2626 1.384 . S
C2625 C2624 1.377 . S
C2625 C2631 1.390 . S
C2626 H2617 0.930 . S
C2626 C2624 1.384 . S
C2626 C2627 1.372 . S
C2627 C2626 1.372 . S
C2627 C2628 1.400 . S
C2627 C2632 1.490 . S
C2628 H2618 0.930 . S
C2628 C2627 1.400 . S
C2628 C2631 1.386 . S
H2629 C2645 0.930 . S
H2630 C2646 0.931 . S
C2631 H2619 0.929 . S
C2631 C2625 1.390 . S
C2631 C2628 1.386 . S
C2632 C2627 1.490 . S
C2632 C2634 1.395 . S
C2632 C2635 1.403 . S
H2633 C2639 0.930 . S
C2634 H2620 0.930 . S
C2634 C2632 1.395 . S
C2634 C2637 1.403 . S
C2635 C2632 1.403 . S
C2635 C2636 1.524 . S
C2635 C2639 1.400 . S
C2636 H2621 0.960 . S
C2636 H2622 0.960 . S
C2636 H2623 0.960 . S
C2636 C2635 1.524 . S
C2637 C2634 1.403 . S
C2637 C2638 1.392 . S
C2637 C2641 1.495 . S
C2638 C2637 1.392 . S
C2638 C2639 1.385 . S
C2638 C2640 1.478 . S
C2639 H2633 0.930 . S
C2639 C2635 1.400 . S
C2639 C2638 1.385 . S
C2640 C2638 1.478 . S
C2640 C2642 1.381 . S
C2640 C2646 1.383 . S
C2641 C2637 1.495 . S
C2641 H2647 0.959 . S
C2641 H2648 0.961 . S
C2641 H2649 0.960 . S
C2642 C2640 1.381 . S
C2642 C2643 1.394 . S
C2642 H2650 0.930 . S
C2643 C2642 1.394 . S
C2643 C2644 1.383 . S
C2643 H2651 0.929 . S
C2644 C2643 1.383 . S
C2644 C2645 1.377 . S
C2645 H2629 0.930 . S
C2645 C2644 1.377 . S
C2645 C2646 1.379 . S
C2646 H2630 0.931 . S
C2646 C2640 1.383 . S
C2646 C2645 1.379 . S
H2647 C2641 0.959 . S
H2648 C2641 0.961 . S
H2649 C2641 0.960 . S
H2650 C2642 0.930 . S
H2651 C2643 0.929 . S
H2652 C2660 0.929 . S
H2653 C2662 0.930 . S
H2654 C2664 0.930 . S
H2655 C2667 0.929 . S
H2656 C2670 0.930 . S
H2657 C2672 0.960 . S
H2658 C2672 0.960 . S
H2659 C2672 0.960 . S
C2660 H2652 0.929 . S
C2660 C2661 1.377 . S
C2660 C2662 1.384 . S
C2661 C2660 1.377 . S
C2661 C2667 1.390 . S
C2662 H2653 0.930 . S
C2662 C2660 1.384 . S
C2662 C2663 1.372 . S
C2663 C2662 1.372 . S
C2663 C2664 1.400 . S
C2663 C2668 1.490 . S
C2664 H2654 0.930 . S
C2664 C2663 1.400 . S
C2664 C2667 1.386 . S
H2665 C2681 0.930 . S
H2666 C2682 0.931 . S
C2667 H2655 0.929 . S
C2667 C2661 1.390 . S
C2667 C2664 1.386 . S
C2668 C2663 1.490 . S
C2668 C2670 1.395 . S
C2668 C2671 1.403 . S
H2669 C2675 0.930 . S
C2670 H2656 0.930 . S
C2670 C2668 1.395 . S
C2670 C2673 1.403 . S
C2671 C2668 1.403 . S
C2671 C2672 1.524 . S
C2671 C2675 1.400 . S
C2672 H2657 0.960 . S
C2672 H2658 0.960 . S
C2672 H2659 0.960 . S
C2672 C2671 1.524 . S
C2673 C2670 1.403 . S
C2673 C2674 1.392 . S
C2673 C2677 1.495 . S
C2674 C2673 1.392 . S
C2674 C2675 1.385 . S
C2674 C2676 1.478 . S
C2675 H2669 0.930 . S
C2675 C2671 1.400 . S
C2675 C2674 1.385 . S
C2676 C2674 1.478 . S
C2676 C2678 1.381 . S
C2676 C2682 1.383 . S
C2677 C2673 1.495 . S
C2677 H2683 0.959 . S
C2677 H2684 0.961 . S
C2677 H2685 0.960 . S
C2678 C2676 1.381 . S
C2678 C2679 1.394 . S
C2678 H2686 0.930 . S
C2679 C2678 1.394 . S
C2679 C2680 1.383 . S
C2679 H2687 0.929 . S
C2680 C2679 1.383 . S
C2680 C2681 1.377 . S
C2681 H2665 0.930 . S
C2681 C2680 1.377 . S
C2681 C2682 1.379 . S
C2682 H2666 0.931 . S
C2682 C2676 1.383 . S
C2682 C2681 1.379 . S
H2683 C2677 0.959 . S
H2684 C2677 0.961 . S
H2685 C2677 0.960 . S
H2686 C2678 0.930 . S
H2687 C2679 0.929 . S
H2688 C2696 0.929 . S
H2689 C2698 0.930 . S
H2690 C2700 0.930 . S
H2691 C2703 0.929 . S
H2692 C2706 0.930 . S
H2693 C2708 0.960 . S
H2694 C2708 0.960 . S
H2695 C2708 0.960 . S
C2696 H2688 0.929 . S
C2696 C2697 1.377 . S
C2696 C2698 1.384 . S
C2697 C2696 1.377 . S
C2697 C2703 1.390 . S
C2698 H2689 0.930 . S
C2698 C2696 1.384 . S
C2698 C2699 1.372 . S
C2699 C2698 1.372 . S
C2699 C2700 1.400 . S
C2699 C2704 1.490 . S
C2700 H2690 0.930 . S
C2700 C2699 1.400 . S
C2700 C2703 1.386 . S
H2701 C2717 0.930 . S
H2702 C2718 0.931 . S
C2703 H2691 0.929 . S
C2703 C2697 1.390 . S
C2703 C2700 1.386 . S
C2704 C2699 1.490 . S
C2704 C2706 1.395 . S
C2704 C2707 1.403 . S
H2705 C2711 0.930 . S
C2706 H2692 0.930 . S
C2706 C2704 1.395 . S
C2706 C2709 1.403 . S
C2707 C2704 1.403 . S
C2707 C2708 1.524 . S
C2707 C2711 1.400 . S
C2708 H2693 0.960 . S
C2708 H2694 0.960 . S
C2708 H2695 0.960 . S
C2708 C2707 1.524 . S
C2709 C2706 1.403 . S
C2709 C2710 1.392 . S
C2709 C2713 1.495 . S
C2710 C2709 1.392 . S
C2710 C2711 1.385 . S
C2710 C2712 1.478 . S
C2711 H2705 0.930 . S
C2711 C2707 1.400 . S
C2711 C2710 1.385 . S
C2712 C2710 1.478 . S
C2712 C2714 1.381 . S
C2712 C2718 1.383 . S
C2713 C2709 1.495 . S
C2713 H2719 0.959 . S
C2713 H2720 0.961 . S
C2713 H2721 0.960 . S
C2714 C2712 1.381 . S
C2714 C2715 1.394 . S
C2714 H2722 0.930 . S
C2715 C2714 1.394 . S
C2715 C2716 1.383 . S
C2715 H2723 0.929 . S
C2716 C2715 1.383 . S
C2716 C2717 1.377 . S
C2717 H2701 0.930 . S
C2717 C2716 1.377 . S
C2717 C2718 1.379 . S
C2718 H2702 0.931 . S
C2718 C2712 1.383 . S
C2718 C2717 1.379 . S
H2719 C2713 0.959 . S
H2720 C2713 0.961 . S
H2721 C2713 0.960 . S
H2722 C2714 0.930 . S
H2723 C2715 0.929 . S
H2724 C2732 0.929 . S
H2725 C2734 0.930 . S
H2726 C2736 0.930 . S
H2727 C2739 0.929 . S
H2728 C2742 0.930 . S
H2729 C2744 0.960 . S
H2730 C2744 0.960 . S
H2731 C2744 0.960 . S
C2732 H2724 0.929 . S
C2732 C2733 1.377 . S
C2732 C2734 1.384 . S
C2733 C2732 1.377 . S
C2733 C2739 1.390 . S
C2734 H2725 0.930 . S
C2734 C2732 1.384 . S
C2734 C2735 1.372 . S
C2735 C2734 1.372 . S
C2735 C2736 1.400 . S
C2735 C2740 1.490 . S
C2736 H2726 0.930 . S
C2736 C2735 1.400 . S
C2736 C2739 1.386 . S
H2737 C2753 0.930 . S
H2738 C2754 0.931 . S
C2739 H2727 0.929 . S
C2739 C2733 1.390 . S
C2739 C2736 1.386 . S
C2740 C2735 1.490 . S
C2740 C2742 1.395 . S
C2740 C2743 1.403 . S
H2741 C2747 0.930 . S
C2742 H2728 0.930 . S
C2742 C2740 1.395 . S
C2742 C2745 1.403 . S
C2743 C2740 1.403 . S
C2743 C2744 1.524 . S
C2743 C2747 1.400 . S
C2744 H2729 0.960 . S
C2744 H2730 0.960 . S
C2744 H2731 0.960 . S
C2744 C2743 1.524 . S
C2745 C2742 1.403 . S
C2745 C2746 1.392 . S
C2745 C2749 1.495 . S
C2746 C2745 1.392 . S
C2746 C2747 1.385 . S
C2746 C2748 1.478 . S
C2747 H2741 0.930 . S
C2747 C2743 1.400 . S
C2747 C2746 1.385 . S
C2748 C2746 1.478 . S
C2748 C2750 1.381 . S
C2748 C2754 1.383 . S
C2749 C2745 1.495 . S
C2749 H2755 0.959 . S
C2749 H2756 0.961 . S
C2749 H2757 0.960 . S
C2750 C2748 1.381 . S
C2750 C2751 1.394 . S
C2750 H2758 0.930 . S
C2751 C2750 1.394 . S
C2751 C2752 1.383 . S
C2751 H2759 0.929 . S
C2752 C2751 1.383 . S
C2752 C2753 1.377 . S
C2753 H2737 0.930 . S
C2753 C2752 1.377 . S
C2753 C2754 1.379 . S
C2754 H2738 0.931 . S
C2754 C2748 1.383 . S
C2754 C2753 1.379 . S
H2755 C2749 0.959 . S
H2756 C2749 0.961 . S
H2757 C2749 0.960 . S
H2758 C2750 0.930 . S
H2759 C2751 0.929 . S
H2760 C2768 0.929 . S
H2761 C2770 0.930 . S
H2762 C2772 0.930 . S
H2763 C2775 0.929 . S
H2764 C2778 0.930 . S
H2765 C2780 0.960 . S
H2766 C2780 0.960 . S
H2767 C2780 0.960 . S
C2768 H2760 0.929 . S
C2768 C2769 1.377 . S
C2768 C2770 1.384 . S
C2769 C2768 1.377 . S
C2769 C2775 1.390 . S
C2770 H2761 0.930 . S
C2770 C2768 1.384 . S
C2770 C2771 1.372 . S
C2771 C2770 1.372 . S
C2771 C2772 1.400 . S
C2771 C2776 1.490 . S
C2772 H2762 0.930 . S
C2772 C2771 1.400 . S
C2772 C2775 1.386 . S
H2773 C2789 0.930 . S
H2774 C2790 0.931 . S
C2775 H2763 0.929 . S
C2775 C2769 1.390 . S
C2775 C2772 1.386 . S
C2776 C2771 1.490 . S
C2776 C2778 1.395 . S
C2776 C2779 1.403 . S
H2777 C2783 0.930 . S
C2778 H2764 0.930 . S
C2778 C2776 1.395 . S
C2778 C2781 1.403 . S
C2779 C2776 1.403 . S
C2779 C2780 1.524 . S
C2779 C2783 1.400 . S
C2780 H2765 0.960 . S
C2780 H2766 0.960 . S
C2780 H2767 0.960 . S
C2780 C2779 1.524 . S
C2781 C2778 1.403 . S
C2781 C2782 1.392 . S
C2781 C2785 1.495 . S
C2782 C2781 1.392 . S
C2782 C2783 1.385 . S
C2782 C2784 1.478 . S
C2783 H2777 0.930 . S
C2783 C2779 1.400 . S
C2783 C2782 1.385 . S
C2784 C2782 1.478 . S
C2784 C2786 1.381 . S
C2784 C2790 1.383 . S
C2785 C2781 1.495 . S
C2785 H2791 0.959 . S
C2785 H2792 0.961 . S
C2785 H2793 0.960 . S
C2786 C2784 1.381 . S
C2786 C2787 1.394 . S
C2786 H2794 0.930 . S
C2787 C2786 1.394 . S
C2787 C2788 1.383 . S
C2787 H2795 0.929 . S
C2788 C2787 1.383 . S
C2788 C2789 1.377 . S
C2789 H2773 0.930 . S
C2789 C2788 1.377 . S
C2789 C2790 1.379 . S
C2790 H2774 0.931 . S
C2790 C2784 1.383 . S
C2790 C2789 1.379 . S
H2791 C2785 0.959 . S
H2792 C2785 0.961 . S
H2793 C2785 0.960 . S
H2794 C2786 0.930 . S
H2795 C2787 0.929 . S
H2796 C2804 0.929 . S
H2797 C2806 0.930 . S
H2798 C2808 0.930 . S
H2799 C2811 0.929 . S
H2800 C2814 0.930 . S
H2801 C2816 0.960 . S
H2802 C2816 0.960 . S
H2803 C2816 0.960 . S
C2804 H2796 0.929 . S
C2804 C2805 1.377 . S
C2804 C2806 1.384 . S
C2805 C2804 1.377 . S
C2805 C2811 1.390 . S
C2806 H2797 0.930 . S
C2806 C2804 1.384 . S
C2806 C2807 1.372 . S
C2807 C2806 1.372 . S
C2807 C2808 1.400 . S
C2807 C2812 1.490 . S
C2808 H2798 0.930 . S
C2808 C2807 1.400 . S
C2808 C2811 1.386 . S
H2809 C2825 0.930 . S
H2810 C2826 0.931 . S
C2811 H2799 0.929 . S
C2811 C2805 1.390 . S
C2811 C2808 1.386 . S
C2812 C2807 1.490 . S
C2812 C2814 1.395 . S
C2812 C2815 1.403 . S
H2813 C2819 0.930 . S
C2814 H2800 0.930 . S
C2814 C2812 1.395 . S
C2814 C2817 1.403 . S
C2815 C2812 1.403 . S
C2815 C2816 1.524 . S
C2815 C2819 1.400 . S
C2816 H2801 0.960 . S
C2816 H2802 0.960 . S
C2816 H2803 0.960 . S
C2816 C2815 1.524 . S
C2817 C2814 1.403 . S
C2817 C2818 1.392 . S
C2817 C2821 1.495 . S
C2818 C2817 1.392 . S
C2818 C2819 1.385 . S
C2818 C2820 1.478 . S
C2819 H2813 0.930 . S
C2819 C2815 1.400 . S
C2819 C2818 1.385 . S
C2820 C2818 1.478 . S
C2820 C2822 1.381 . S
C2820 C2826 1.383 . S
C2821 C2817 1.495 . S
C2821 H2827 0.959 . S
C2821 H2828 0.961 . S
C2821 H2829 0.960 . S
C2822 C2820 1.381 . S
C2822 C2823 1.394 . S
C2822 H2830 0.930 . S
C2823 C2822 1.394 . S
C2823 C2824 1.383 . S
C2823 H2831 0.929 . S
C2824 C2823 1.383 . S
C2824 C2825 1.377 . S
C2825 H2809 0.930 . S
C2825 C2824 1.377 . S
C2825 C2826 1.379 . S
C2826 H2810 0.931 . S
C2826 C2820 1.383 . S
C2826 C2825 1.379 . S
H2827 C2821 0.959 . S
H2828 C2821 0.961 . S
H2829 C2821 0.960 . S
H2830 C2822 0.930 . S
H2831 C2823 0.929 . S
H2832 C2840 0.929 . S
H2833 C2842 0.930 . S
H2834 C2844 0.930 . S
H2835 C2847 0.929 . S
H2836 C2850 0.930 . S
H2837 C2852 0.960 . S
H2838 C2852 0.960 . S
H2839 C2852 0.960 . S
C2840 H2832 0.929 . S
C2840 C2841 1.377 . S
C2840 C2842 1.384 . S
C2841 C2840 1.377 . S
C2841 C2847 1.390 . S
C2842 H2833 0.930 . S
C2842 C2840 1.384 . S
C2842 C2843 1.372 . S
C2843 C2842 1.372 . S
C2843 C2844 1.400 . S
C2843 C2848 1.490 . S
C2844 H2834 0.930 . S
C2844 C2843 1.400 . S
C2844 C2847 1.386 . S
H2845 C2861 0.930 . S
H2846 C2862 0.931 . S
C2847 H2835 0.929 . S
C2847 C2841 1.390 . S
C2847 C2844 1.386 . S
C2848 C2843 1.490 . S
C2848 C2850 1.395 . S
C2848 C2851 1.403 . S
H2849 C2855 0.930 . S
C2850 H2836 0.930 . S
C2850 C2848 1.395 . S
C2850 C2853 1.403 . S
C2851 C2848 1.403 . S
C2851 C2852 1.524 . S
C2851 C2855 1.400 . S
C2852 H2837 0.960 . S
C2852 H2838 0.960 . S
C2852 H2839 0.960 . S
C2852 C2851 1.524 . S
C2853 C2850 1.403 . S
C2853 C2854 1.392 . S
C2853 C2857 1.495 . S
C2854 C2853 1.392 . S
C2854 C2855 1.385 . S
C2854 C2856 1.478 . S
C2855 H2849 0.930 . S
C2855 C2851 1.400 . S
C2855 C2854 1.385 . S
C2856 C2854 1.478 . S
C2856 C2858 1.381 . S
C2856 C2862 1.383 . S
C2857 C2853 1.495 . S
C2857 H2863 0.959 . S
C2857 H2864 0.961 . S
C2857 H2865 0.960 . S
C2858 C2856 1.381 . S
C2858 C2859 1.394 . S
C2858 H2866 0.930 . S
C2859 C2858 1.394 . S
C2859 C2860 1.383 . S
C2859 H2867 0.929 . S
C2860 C2859 1.383 . S
C2860 C2861 1.377 . S
C2861 H2845 0.930 . S
C2861 C2860 1.377 . S
C2861 C2862 1.379 . S
C2862 H2846 0.931 . S
C2862 C2856 1.383 . S
C2862 C2861 1.379 . S
H2863 C2857 0.959 . S
H2864 C2857 0.961 . S
H2865 C2857 0.960 . S
H2866 C2858 0.930 . S
H2867 C2859 0.929 . S
H2868 C2876 0.929 . S
H2869 C2878 0.930 . S
H2870 C2880 0.930 . S
H2871 C2883 0.929 . S
H2872 C2886 0.930 . S
H2873 C2888 0.960 . S
H2874 C2888 0.960 . S
H2875 C2888 0.960 . S
C2876 H2868 0.929 . S
C2876 C2877 1.377 . S
C2876 C2878 1.384 . S
C2877 C2876 1.377 . S
C2877 C2883 1.390 . S
C2878 H2869 0.930 . S
C2878 C2876 1.384 . S
C2878 C2879 1.372 . S
C2879 C2878 1.372 . S
C2879 C2880 1.400 . S
C2879 C2884 1.490 . S
C2880 H2870 0.930 . S
C2880 C2879 1.400 . S
C2880 C2883 1.386 . S
H2881 C2897 0.930 . S
H2882 C2898 0.931 . S
C2883 H2871 0.929 . S
C2883 C2877 1.390 . S
C2883 C2880 1.386 . S
C2884 C2879 1.490 . S
C2884 C2886 1.395 . S
C2884 C2887 1.403 . S
H2885 C2891 0.930 . S
C2886 H2872 0.930 . S
C2886 C2884 1.395 . S
C2886 C2889 1.403 . S
C2887 C2884 1.403 . S
C2887 C2888 1.524 . S
C2887 C2891 1.400 . S
C2888 H2873 0.960 . S
C2888 H2874 0.960 . S
C2888 H2875 0.960 . S
C2888 C2887 1.524 . S
C2889 C2886 1.403 . S
C2889 C2890 1.392 . S
C2889 C2893 1.495 . S
C2890 C2889 1.392 . S
C2890 C2891 1.385 . S
C2890 C2892 1.478 . S
C2891 H2885 0.930 . S
C2891 C2887 1.400 . S
C2891 C2890 1.385 . S
C2892 C2890 1.478 . S
C2892 C2894 1.381 . S
C2892 C2898 1.383 . S
C2893 C2889 1.495 . S
C2893 H2899 0.959 . S
C2893 H2900 0.961 . S
C2893 H2901 0.960 . S
C2894 C2892 1.381 . S
C2894 C2895 1.394 . S
C2894 H2902 0.930 . S
C2895 C2894 1.394 . S
C2895 C2896 1.383 . S
C2895 H2903 0.929 . S
C2896 C2895 1.383 . S
C2896 C2897 1.377 . S
C2897 H2881 0.930 . S
C2897 C2896 1.377 . S
C2897 C2898 1.379 . S
C2898 H2882 0.931 . S
C2898 C2892 1.383 . S
C2898 C2897 1.379 . S
H2899 C2893 0.959 . S
H2900 C2893 0.961 . S
H2901 C2893 0.960 . S
H2902 C2894 0.930 . S
H2903 C2895 0.929 . S
H2904 C2912 0.929 . S
H2905 C2914 0.930 . S
H2906 C2916 0.930 . S
H2907 C2919 0.929 . S
H2908 C2922 0.930 . S
H2909 C2924 0.960 . S
H2910 C2924 0.960 . S
H2911 C2924 0.960 . S
C2912 H2904 0.929 . S
C2912 C2913 1.377 . S
C2912 C2914 1.384 . S
C2913 C2912 1.377 . S
C2913 C2919 1.390 . S
C2914 H2905 0.930 . S
C2914 C2912 1.384 . S
C2914 C2915 1.372 . S
C2915 C2914 1.372 . S
C2915 C2916 1.400 . S
C2915 C2920 1.490 . S
C2916 H2906 0.930 . S
C2916 C2915 1.400 . S
C2916 C2919 1.386 . S
H2917 C2933 0.930 . S
H2918 C2934 0.931 . S
C2919 H2907 0.929 . S
C2919 C2913 1.390 . S
C2919 C2916 1.386 . S
C2920 C2915 1.490 . S
C2920 C2922 1.395 . S
C2920 C2923 1.403 . S
H2921 C2927 0.930 . S
C2922 H2908 0.930 . S
C2922 C2920 1.395 . S
C2922 C2925 1.403 . S
C2923 C2920 1.403 . S
C2923 C2924 1.524 . S
C2923 C2927 1.400 . S
C2924 H2909 0.960 . S
C2924 H2910 0.960 . S
C2924 H2911 0.960 . S
C2924 C2923 1.524 . S
C2925 C2922 1.403 . S
C2925 C2926 1.392 . S
C2925 C2929 1.495 . S
C2926 C2925 1.392 . S
C2926 C2927 1.385 . S
C2926 C2928 1.478 . S
C2927 H2921 0.930 . S
C2927 C2923 1.400 . S
C2927 C2926 1.385 . S
C2928 C2926 1.478 . S
C2928 C2930 1.381 . S
C2928 C2934 1.383 . S
C2929 C2925 1.495 . S
C2929 H2935 0.959 . S
C2929 H2936 0.961 . S
C2929 H2937 0.960 . S
C2930 C2928 1.381 . S
C2930 C2931 1.394 . S
C2930 H2938 0.930 . S
C2931 C2930 1.394 . S
C2931 C2932 1.383 . S
C2931 H2939 0.929 . S
C2932 C2931 1.383 . S
C2932 C2933 1.377 . S
C2933 H2917 0.930 . S
C2933 C2932 1.377 . S
C2933 C2934 1.379 . S
C2934 H2918 0.931 . S
C2934 C2928 1.383 . S
C2934 C2933 1.379 . S
H2935 C2929 0.959 . S
H2936 C2929 0.961 . S
H2937 C2929 0.960 . S
H2938 C2930 0.930 . S
H2939 C2931 0.929 . S
H2940 C2948 0.929 . S
H2941 C2950 0.930 . S
H2942 C2952 0.930 . S
H2943 C2955 0.929 . S
H2944 C2958 0.930 . S
H2945 C2960 0.960 . S
H2946 C2960 0.960 . S
H2947 C2960 0.960 . S
C2948 H2940 0.929 . S
C2948 C2949 1.377 . S
C2948 C2950 1.384 . S
C2949 C2948 1.377 . S
C2949 C2955 1.390 . S
C2950 H2941 0.930 . S
C2950 C2948 1.384 . S
C2950 C2951 1.372 . S
C2951 C2950 1.372 . S
C2951 C2952 1.400 . S
C2951 C2956 1.490 . S
C2952 H2942 0.930 . S
C2952 C2951 1.400 . S
C2952 C2955 1.386 . S
H2953 C2969 0.930 . S
H2954 C2970 0.931 . S
C2955 H2943 0.929 . S
C2955 C2949 1.390 . S
C2955 C2952 1.386 . S
C2956 C2951 1.490 . S
C2956 C2958 1.395 . S
C2956 C2959 1.403 . S
H2957 C2963 0.930 . S
C2958 H2944 0.930 . S
C2958 C2956 1.395 . S
C2958 C2961 1.403 . S
C2959 C2956 1.403 . S
C2959 C2960 1.524 . S
C2959 C2963 1.400 . S
C2960 H2945 0.960 . S
C2960 H2946 0.960 . S
C2960 H2947 0.960 . S
C2960 C2959 1.524 . S
C2961 C2958 1.403 . S
C2961 C2962 1.392 . S
C2961 C2965 1.495 . S
C2962 C2961 1.392 . S
C2962 C2963 1.385 . S
C2962 C2964 1.478 . S
C2963 H2957 0.930 . S
C2963 C2959 1.400 . S
C2963 C2962 1.385 . S
C2964 C2962 1.478 . S
C2964 C2966 1.381 . S
C2964 C2970 1.383 . S
C2965 C2961 1.495 . S
C2965 H2971 0.959 . S
C2965 H2972 0.961 . S
C2965 H2973 0.960 . S
C2966 C2964 1.381 . S
C2966 C2967 1.394 . S
C2966 H2974 0.930 . S
C2967 C2966 1.394 . S
C2967 C2968 1.383 . S
C2967 H2975 0.929 . S
C2968 C2967 1.383 . S
C2968 C2969 1.377 . S
C2969 H2953 0.930 . S
C2969 C2968 1.377 . S
C2969 C2970 1.379 . S
C2970 H2954 0.931 . S
C2970 C2964 1.383 . S
C2970 C2969 1.379 . S
H2971 C2965 0.959 . S
H2972 C2965 0.961 . S
H2973 C2965 0.960 . S
H2974 C2966 0.930 . S
H2975 C2967 0.929 . S
H2976 C2984 0.929 . S
H2977 C2986 0.930 . S
H2978 C2988 0.930 . S
H2979 C2991 0.929 . S
H2980 C2994 0.930 . S
H2981 C2996 0.960 . S
H2982 C2996 0.960 . S
H2983 C2996 0.960 . S
C2984 H2976 0.929 . S
C2984 C2985 1.377 . S
C2984 C2986 1.384 . S
C2985 C2984 1.377 . S
C2985 C2991 1.390 . S
C2986 H2977 0.930 . S
C2986 C2984 1.384 . S
C2986 C2987 1.372 . S
C2987 C2986 1.372 . S
C2987 C2988 1.400 . S
C2987 C2992 1.490 . S
C2988 H2978 0.930 . S
C2988 C2987 1.400 . S
C2988 C2991 1.386 . S
H2989 C3005 0.930 . S
H2990 C3006 0.931 . S
C2991 H2979 0.929 . S
C2991 C2985 1.390 . S
C2991 C2988 1.386 . S
C2992 C2987 1.490 . S
C2992 C2994 1.395 . S
C2992 C2995 1.403 . S
H2993 C2999 0.930 . S
C2994 H2980 0.930 . S
C2994 C2992 1.395 . S
C2994 C2997 1.403 . S
C2995 C2992 1.403 . S
C2995 C2996 1.524 . S
C2995 C2999 1.400 . S
C2996 H2981 0.960 . S
C2996 H2982 0.960 . S
C2996 H2983 0.960 . S
C2996 C2995 1.524 . S
C2997 C2994 1.403 . S
C2997 C2998 1.392 . S
C2997 C3001 1.495 . S
C2998 C2997 1.392 . S
C2998 C2999 1.385 . S
C2998 C3000 1.478 . S
C2999 H2993 0.930 . S
C2999 C2995 1.400 . S
C2999 C2998 1.385 . S
C3000 C2998 1.478 . S
C3000 C3002 1.381 . S
C3000 C3006 1.383 . S
C3001 C2997 1.495 . S
C3001 H3007 0.959 . S
C3001 H3008 0.961 . S
C3001 H3009 0.960 . S
C3002 C3000 1.381 . S
C3002 C3003 1.394 . S
C3002 H3010 0.930 . S
C3003 C3002 1.394 . S
C3003 C3004 1.383 . S
C3003 H3011 0.929 . S
C3004 C3003 1.383 . S
C3004 C3005 1.377 . S
C3005 H2989 0.930 . S
C3005 C3004 1.377 . S
C3005 C3006 1.379 . S
C3006 H2990 0.931 . S
C3006 C3000 1.383 . S
C3006 C3005 1.379 . S
H3007 C3001 0.959 . S
H3008 C3001 0.961 . S
H3009 C3001 0.960 . S
H3010 C3002 0.930 . S
H3011 C3003 0.929 . S
H3012 C3020 0.929 . S
H3013 C3022 0.930 . S
H3014 C3024 0.930 . S
H3015 C3027 0.929 . S
H3016 C3030 0.930 . S
H3017 C3032 0.960 . S
H3018 C3032 0.960 . S
H3019 C3032 0.960 . S
C3020 H3012 0.929 . S
C3020 C3021 1.377 . S
C3020 C3022 1.384 . S
C3021 C3020 1.377 . S
C3021 C3027 1.390 . S
C3022 H3013 0.930 . S
C3022 C3020 1.384 . S
C3022 C3023 1.372 . S
C3023 C3022 1.372 . S
C3023 C3024 1.400 . S
C3023 C3028 1.490 . S
C3024 H3014 0.930 . S
C3024 C3023 1.400 . S
C3024 C3027 1.386 . S
H3025 C3041 0.930 . S
H3026 C3042 0.931 . S
C3027 H3015 0.929 . S
C3027 C3021 1.390 . S
C3027 C3024 1.386 . S
C3028 C3023 1.490 . S
C3028 C3030 1.395 . S
C3028 C3031 1.403 . S
H3029 C3035 0.930 . S
C3030 H3016 0.930 . S
C3030 C3028 1.395 . S
C3030 C3033 1.403 . S
C3031 C3028 1.403 . S
C3031 C3032 1.524 . S
C3031 C3035 1.400 . S
C3032 H3017 0.960 . S
C3032 H3018 0.960 . S
C3032 H3019 0.960 . S
C3032 C3031 1.524 . S
C3033 C3030 1.403 . S
C3033 C3034 1.392 . S
C3033 C3037 1.495 . S
C3034 C3033 1.392 . S
C3034 C3035 1.385 . S
C3034 C3036 1.478 . S
C3035 H3029 0.930 . S
C3035 C3031 1.400 . S
C3035 C3034 1.385 . S
C3036 C3034 1.478 . S
C3036 C3038 1.381 . S
C3036 C3042 1.383 . S
C3037 C3033 1.495 . S
C3037 H3043 0.959 . S
C3037 H3044 0.961 . S
C3037 H3045 0.960 . S
C3038 C3036 1.381 . S
C3038 C3039 1.394 . S
C3038 H3046 0.930 . S
C3039 C3038 1.394 . S
C3039 C3040 1.383 . S
C3039 H3047 0.929 . S
C3040 C3039 1.383 . S
C3040 C3041 1.377 . S
C3041 H3025 0.930 . S
C3041 C3040 1.377 . S
C3041 C3042 1.379 . S
C3042 H3026 0.931 . S
C3042 C3036 1.383 . S
C3042 C3041 1.379 . S
H3043 C3037 0.959 . S
H3044 C3037 0.961 . S
H3045 C3037 0.960 . S
H3046 C3038 0.930 . S
H3047 C3039 0.929 . S
H3048 C3056 0.929 . S
H3049 C3058 0.930 . S
H3050 C3060 0.930 . S
H3051 C3063 0.947 . S
H3052 C3066 0.930 . S
H3053 C3068 0.960 . S
H3054 C3068 0.960 . S
H3055 C3068 0.960 . S
C3056 H3048 0.929 . S
C3056 C3057 1.377 . S
C3056 C3058 1.384 . S
C3057 C3056 1.377 . S
C3057 C3063 1.390 . S
C3058 H3049 0.930 . S
C3058 C3056 1.384 . S
C3058 C3059 1.372 . S
C3059 C3058 1.372 . S
C3059 C3060 1.400 . S
C3059 C3064 1.490 . S
C3060 H3050 0.930 . S
C3060 C3059 1.400 . S
C3060 C3063 1.386 . S
H3061 C3077 0.930 . S
H3062 C3078 0.931 . S
C3063 H3051 0.947 . S
C3063 C3057 1.390 . S
C3063 C3060 1.386 . S
C3064 C3059 1.490 . S
C3064 C3066 1.395 . S
C3064 C3067 1.403 . S
H3065 C3071 0.930 . S
C3066 H3052 0.930 . S
C3066 C3064 1.395 . S
C3066 C3069 1.403 . S
C3067 C3064 1.403 . S
C3067 C3068 1.524 . S
C3067 C3071 1.400 . S
C3068 H3053 0.960 . S
C3068 H3054 0.960 . S
C3068 H3055 0.960 . S
C3068 C3067 1.524 . S
C3069 C3066 1.403 . S
C3069 C3070 1.392 . S
C3069 C3073 1.495 . S
C3070 C3069 1.392 . S
C3070 C3071 1.385 . S
C3070 C3072 1.478 . S
C3071 H3065 0.930 . S
C3071 C3067 1.400 . S
C3071 C3070 1.385 . S
C3072 C3070 1.478 . S
C3072 C3074 1.381 . S
C3072 C3078 1.383 . S
C3073 C3069 1.495 . S
C3073 H3079 0.959 . S
C3073 H3080 0.961 . S
C3073 H3081 0.960 . S
C3074 C3072 1.381 . S
C3074 C3075 1.394 . S
C3074 H3082 0.930 . S
C3075 C3074 1.394 . S
C3075 C3076 1.383 . S
C3075 H3083 0.929 . S
C3076 C3075 1.383 . S
C3076 C3077 1.377 . S
C3077 H3061 0.930 . S
C3077 C3076 1.377 . S
C3077 C3078 1.379 . S
C3078 H3062 0.931 . S
C3078 C3072 1.383 . S
C3078 C3077 1.379 . S
H3079 C3073 0.959 . S
H3080 C3073 0.961 . S
H3081 C3073 0.960 . S
H3082 C3074 0.930 . S
H3083 C3075 0.929 . S
H3084 C3092 0.929 . S
H3085 C3094 0.930 . S
H3086 C3096 0.930 . S
H3087 C3099 0.929 . S
H3088 C3102 0.930 . S
H3089 C3104 0.960 . S
H3090 C3104 0.960 . S
H3091 C3104 0.960 . S
C3092 H3084 0.929 . S
C3092 C3093 1.377 . S
C3092 C3094 1.384 . S
C3093 C3092 1.377 . S
C3093 C3099 1.390 . S
C3094 H3085 0.930 . S
C3094 C3092 1.384 . S
C3094 C3095 1.372 . S
C3095 C3094 1.372 . S
C3095 C3096 1.400 . S
C3095 C3100 1.490 . S
C3096 H3086 0.930 . S
C3096 C3095 1.400 . S
C3096 C3099 1.386 . S
H3097 C3113 0.930 . S
H3098 C3114 0.931 . S
C3099 H3087 0.929 . S
C3099 C3093 1.390 . S
C3099 C3096 1.386 . S
C3100 C3095 1.490 . S
C3100 C3102 1.395 . S
C3100 C3103 1.403 . S
H3101 C3107 0.930 . S
C3102 H3088 0.930 . S
C3102 C3100 1.395 . S
C3102 C3105 1.403 . S
C3103 C3100 1.403 . S
C3103 C3104 1.524 . S
C3103 C3107 1.400 . S
C3104 H3089 0.960 . S
C3104 H3090 0.960 . S
C3104 H3091 0.960 . S
C3104 C3103 1.524 . S
C3105 C3102 1.403 . S
C3105 C3106 1.392 . S
C3105 C3109 1.495 . S
C3106 C3105 1.392 . S
C3106 C3107 1.385 . S
C3106 C3108 1.478 . S
C3107 H3101 0.930 . S
C3107 C3103 1.400 . S
C3107 C3106 1.385 . S
C3108 C3106 1.478 . S
C3108 C3110 1.381 . S
C3108 C3114 1.383 . S
C3109 C3105 1.495 . S
C3109 H3115 0.959 . S
C3109 H3116 0.961 . S
C3109 H3117 0.960 . S
C3110 C3108 1.381 . S
C3110 C3111 1.394 . S
C3110 H3118 0.930 . S
C3111 C3110 1.394 . S
C3111 C3112 1.383 . S
C3111 H3119 0.929 . S
C3112 C3111 1.383 . S
C3112 C3113 1.377 . S
C3113 H3097 0.930 . S
C3113 C3112 1.377 . S
C3113 C3114 1.379 . S
C3114 H3098 0.931 . S
C3114 C3108 1.383 . S
C3114 C3113 1.379 . S
H3115 C3109 0.959 . S
H3116 C3109 0.961 . S
H3117 C3109 0.960 . S
H3118 C3110 0.930 . S
H3119 C3111 0.929 . S
H3120 C3128 0.929 . S
H3121 C3130 0.930 . S
H3122 C3132 0.930 . S
H3123 C3135 0.929 . S
H3124 C3138 0.930 . S
H3125 C3140 0.960 . S
H3126 C3140 0.960 . S
H3127 C3140 0.960 . S
C3128 H3120 0.929 . S
C3128 C3129 1.377 . S
C3128 C3130 1.384 . S
C3129 C3128 1.377 . S
C3129 C3135 1.390 . S
C3130 H3121 0.930 . S
C3130 C3128 1.384 . S
C3130 C3131 1.372 . S
C3131 C3130 1.372 . S
C3131 C3132 1.400 . S
C3131 C3136 1.490 . S
C3132 H3122 0.930 . S
C3132 C3131 1.400 . S
C3132 C3135 1.386 . S
H3133 C3149 0.930 . S
H3134 C3150 0.931 . S
C3135 H3123 0.929 . S
C3135 C3129 1.390 . S
C3135 C3132 1.386 . S
C3136 C3131 1.490 . S
C3136 C3138 1.395 . S
C3136 C3139 1.403 . S
H3137 C3143 0.930 . S
C3138 H3124 0.930 . S
C3138 C3136 1.395 . S
C3138 C3141 1.403 . S
C3139 C3136 1.403 . S
C3139 C3140 1.524 . S
C3139 C3143 1.400 . S
C3140 H3125 0.960 . S
C3140 H3126 0.960 . S
C3140 H3127 0.960 . S
C3140 C3139 1.524 . S
C3141 C3138 1.403 . S
C3141 C3142 1.392 . S
C3141 C3145 1.495 . S
C3142 C3141 1.392 . S
C3142 C3143 1.385 . S
C3142 C3144 1.478 . S
C3143 H3137 0.930 . S
C3143 C3139 1.400 . S
C3143 C3142 1.385 . S
C3144 C3142 1.478 . S
C3144 C3146 1.381 . S
C3144 C3150 1.383 . S
C3145 C3141 1.495 . S
C3145 H3151 0.959 . S
C3145 H3152 0.961 . S
C3145 H3153 0.960 . S
C3146 C3144 1.381 . S
C3146 C3147 1.394 . S
C3146 H3154 0.930 . S
C3147 C3146 1.394 . S
C3147 C3148 1.383 . S
C3147 H3155 0.929 . S
C3148 C3147 1.383 . S
C3148 C3149 1.377 . S
C3149 H3133 0.930 . S
C3149 C3148 1.377 . S
C3149 C3150 1.379 . S
C3150 H3134 0.931 . S
C3150 C3144 1.383 . S
C3150 C3149 1.379 . S
H3151 C3145 0.959 . S
H3152 C3145 0.961 . S
H3153 C3145 0.960 . S
H3154 C3146 0.930 . S
H3155 C3147 0.929 . S
H3156 C3164 0.929 . S
H3157 C3166 0.930 . S
H3158 C3168 0.930 . S
H3159 C3171 0.929 . S
H3160 C3174 0.930 . S
H3161 C3176 0.960 . S
H3162 C3176 0.960 . S
H3163 C3176 0.960 . S
C3164 H3156 0.929 . S
C3164 C3165 1.377 . S
C3164 C3166 1.384 . S
C3165 C3164 1.377 . S
C3165 C3171 1.390 . S
C3166 H3157 0.930 . S
C3166 C3164 1.384 . S
C3166 C3167 1.372 . S
C3167 C3166 1.372 . S
C3167 C3168 1.400 . S
C3167 C3172 1.490 . S
C3168 H3158 0.930 . S
C3168 C3167 1.400 . S
C3168 C3171 1.386 . S
H3169 C3185 0.930 . S
H3170 C3186 0.931 . S
C3171 H3159 0.929 . S
C3171 C3165 1.390 . S
C3171 C3168 1.386 . S
C3172 C3167 1.490 . S
C3172 C3174 1.395 . S
C3172 C3175 1.403 . S
H3173 C3179 0.930 . S
C3174 H3160 0.930 . S
C3174 C3172 1.395 . S
C3174 C3177 1.403 . S
C3175 C3172 1.403 . S
C3175 C3176 1.524 . S
C3175 C3179 1.400 . S
C3176 H3161 0.960 . S
C3176 H3162 0.960 . S
C3176 H3163 0.960 . S
C3176 C3175 1.524 . S
C3177 C3174 1.403 . S
C3177 C3178 1.392 . S
C3177 C3181 1.495 . S
C3178 C3177 1.392 . S
C3178 C3179 1.385 . S
C3178 C3180 1.478 . S
C3179 H3173 0.930 . S
C3179 C3175 1.400 . S
C3179 C3178 1.385 . S
C3180 C3178 1.478 . S
C3180 C3182 1.381 . S
C3180 C3186 1.383 . S
C3181 C3177 1.495 . S
C3181 H3187 0.959 . S
C3181 H3188 0.961 . S
C3181 H3189 0.960 . S
C3182 C3180 1.381 . S
C3182 C3183 1.394 . S
C3182 H3190 0.930 . S
C3183 C3182 1.394 . S
C3183 C3184 1.383 . S
C3183 H3191 0.929 . S
C3184 C3183 1.383 . S
C3184 C3185 1.377 . S
C3185 H3169 0.930 . S
C3185 C3184 1.377 . S
C3185 C3186 1.379 . S
C3186 H3170 0.931 . S
C3186 C3180 1.383 . S
C3186 C3185 1.379 . S
H3187 C3181 0.959 . S
H3188 C3181 0.961 . S
H3189 C3181 0.960 . S
H3190 C3182 0.930 . S
H3191 C3183 0.929 . S
H3192 C3200 0.929 . S
H3193 C3202 0.930 . S
H3194 C3204 0.930 . S
H3195 C3207 0.929 . S
H3196 C3210 0.930 . S
H3197 C3212 0.960 . S
H3198 C3212 0.960 . S
H3199 C3212 0.960 . S
C3200 H3192 0.929 . S
C3200 C3201 1.377 . S
C3200 C3202 1.384 . S
C3201 C3200 1.377 . S
C3201 C3207 1.390 . S
C3202 H3193 0.930 . S
C3202 C3200 1.384 . S
C3202 C3203 1.372 . S
C3203 C3202 1.372 . S
C3203 C3204 1.400 . S
C3203 C3208 1.490 . S
C3204 H3194 0.930 . S
C3204 C3203 1.400 . S
C3204 C3207 1.386 . S
H3205 C3221 0.930 . S
H3206 C3222 0.931 . S
C3207 H3195 0.929 . S
C3207 C3201 1.390 . S
C3207 C3204 1.386 . S
C3208 C3203 1.490 . S
C3208 C3210 1.395 . S
C3208 C3211 1.403 . S
H3209 C3215 0.930 . S
C3210 H3196 0.930 . S
C3210 C3208 1.395 . S
C3210 C3213 1.403 . S
C3211 C3208 1.403 . S
C3211 C3212 1.524 . S
C3211 C3215 1.400 . S
C3212 H3197 0.960 . S
C3212 H3198 0.960 . S
C3212 H3199 0.960 . S
C3212 C3211 1.524 . S
C3213 C3210 1.403 . S
C3213 C3214 1.392 . S
C3213 C3217 1.495 . S
C3214 C3213 1.392 . S
C3214 C3215 1.385 . S
C3214 C3216 1.478 . S
C3215 H3209 0.930 . S
C3215 C3211 1.400 . S
C3215 C3214 1.385 . S
C3216 C3214 1.478 . S
C3216 C3218 1.381 . S
C3216 C3222 1.383 . S
C3217 C3213 1.495 . S
C3217 H3223 0.959 . S
C3217 H3224 0.961 . S
C3217 H3225 0.960 . S
C3218 C3216 1.381 . S
C3218 C3219 1.394 . S
C3218 H3226 0.930 . S
C3219 C3218 1.394 . S
C3219 C3220 1.383 . S
C3219 H3227 0.929 . S
C3220 C3219 1.383 . S
C3220 C3221 1.377 . S
C3221 H3205 0.930 . S
C3221 C3220 1.377 . S
C3221 C3222 1.379 . S
C3222 H3206 0.931 . S
C3222 C3216 1.383 . S
C3222 C3221 1.379 . S
H3223 C3217 0.959 . S
H3224 C3217 0.961 . S
H3225 C3217 0.960 . S
H3226 C3218 0.930 . S
H3227 C3219 0.929 . S
H3228 C3236 0.929 . S
H3229 C3238 0.930 . S
H3230 C3240 0.930 . S
H3231 C3243 0.929 . S
H3232 C3246 0.930 . S
H3233 C3248 0.960 . S
H3234 C3248 0.960 . S
H3235 C3248 0.960 . S
C3236 H3228 0.929 . S
C3236 C3237 1.377 . S
C3236 C3238 1.384 . S
C3237 C3236 1.377 . S
C3237 C3243 1.390 . S
C3238 H3229 0.930 . S
C3238 C3236 1.384 . S
C3238 C3239 1.372 . S
C3239 C3238 1.372 . S
C3239 C3240 1.400 . S
C3239 C3244 1.490 . S
C3240 H3230 0.930 . S
C3240 C3239 1.400 . S
C3240 C3243 1.386 . S
H3241 C3257 0.930 . S
H3242 C3258 0.931 . S
C3243 H3231 0.929 . S
C3243 C3237 1.390 . S
C3243 C3240 1.386 . S
C3244 C3239 1.490 . S
C3244 C3246 1.395 . S
C3244 C3247 1.403 . S
H3245 C3251 0.930 . S
C3246 H3232 0.930 . S
C3246 C3244 1.395 . S
C3246 C3249 1.403 . S
C3247 C3244 1.403 . S
C3247 C3248 1.524 . S
C3247 C3251 1.400 . S
C3248 H3233 0.960 . S
C3248 H3234 0.960 . S
C3248 H3235 0.960 . S
C3248 C3247 1.524 . S
C3249 C3246 1.403 . S
C3249 C3250 1.392 . S
C3249 C3253 1.495 . S
C3250 C3249 1.392 . S
C3250 C3251 1.385 . S
C3250 C3252 1.478 . S
C3251 H3245 0.930 . S
C3251 C3247 1.400 . S
C3251 C3250 1.385 . S
C3252 C3250 1.478 . S
C3252 C3254 1.381 . S
C3252 C3258 1.383 . S
C3253 C3249 1.495 . S
C3253 H3259 0.959 . S
C3253 H3260 0.961 . S
C3253 H3261 0.960 . S
C3254 C3252 1.381 . S
C3254 C3255 1.394 . S
C3254 H3262 0.930 . S
C3255 C3254 1.394 . S
C3255 C3256 1.383 . S
C3255 H3263 0.929 . S
C3256 C3255 1.383 . S
C3256 C3257 1.377 . S
C3257 H3241 0.930 . S
C3257 C3256 1.377 . S
C3257 C3258 1.379 . S
C3258 H3242 0.931 . S
C3258 C3252 1.383 . S
C3258 C3257 1.379 . S
H3259 C3253 0.959 . S
H3260 C3253 0.961 . S
H3261 C3253 0.960 . S
H3262 C3254 0.930 . S
H3263 C3255 0.929 . S
H3264 C3272 0.929 . S
H3265 C3274 0.930 . S
H3266 C3276 0.930 . S
H3267 C3279 0.929 . S
H3268 C3282 0.930 . S
H3269 C3284 0.960 . S
H3270 C3284 0.960 . S
H3271 C3284 0.960 . S
C3272 H3264 0.929 . S
C3272 C3273 1.377 . S
C3272 C3274 1.384 . S
C3273 C3272 1.377 . S
C3273 C3279 1.390 . S
C3274 H3265 0.930 . S
C3274 C3272 1.384 . S
C3274 C3275 1.372 . S
C3275 C3274 1.372 . S
C3275 C3276 1.400 . S
C3275 C3280 1.490 . S
C3276 H3266 0.930 . S
C3276 C3275 1.400 . S
C3276 C3279 1.386 . S
H3277 C3293 0.930 . S
H3278 C3294 0.931 . S
C3279 H3267 0.929 . S
C3279 C3273 1.390 . S
C3279 C3276 1.386 . S
C3280 C3275 1.490 . S
C3280 C3282 1.395 . S
C3280 C3283 1.403 . S
H3281 C3287 0.930 . S
C3282 H3268 0.930 . S
C3282 C3280 1.395 . S
C3282 C3285 1.403 . S
C3283 C3280 1.403 . S
C3283 C3284 1.524 . S
C3283 C3287 1.400 . S
C3284 H3269 0.960 . S
C3284 H3270 0.960 . S
C3284 H3271 0.960 . S
C3284 C3283 1.524 . S
C3285 C3282 1.403 . S
C3285 C3286 1.392 . S
C3285 C3289 1.495 . S
C3286 C3285 1.392 . S
C3286 C3287 1.385 . S
C3286 C3288 1.478 . S
C3287 H3281 0.930 . S
C3287 C3283 1.400 . S
C3287 C3286 1.385 . S
C3288 C3286 1.478 . S
C3288 C3290 1.381 . S
C3288 C3294 1.383 . S
C3289 C3285 1.495 . S
C3289 H3295 0.959 . S
C3289 H3296 0.961 . S
C3289 H3297 0.960 . S
C3290 C3288 1.381 . S
C3290 C3291 1.394 . S
C3290 H3298 0.930 . S
C3291 C3290 1.394 . S
C3291 C3292 1.383 . S
C3291 H3299 0.929 . S
C3292 C3291 1.383 . S
C3292 C3293 1.377 . S
C3293 H3277 0.930 . S
C3293 C3292 1.377 . S
C3293 C3294 1.379 . S
C3294 H3278 0.931 . S
C3294 C3288 1.383 . S
C3294 C3293 1.379 . S
H3295 C3289 0.959 . S
H3296 C3289 0.961 . S
H3297 C3289 0.960 . S
H3298 C3290 0.930 . S
H3299 C3291 0.929 . S
H3300 C3308 0.929 . S
H3301 C3310 0.930 . S
H3302 C3312 0.930 . S
H3303 C3315 0.929 . S
H3304 C3318 0.930 . S
H3305 C3320 0.960 . S
H3306 C3320 0.960 . S
H3307 C3320 0.960 . S
C3308 H3300 0.929 . S
C3308 C3309 1.377 . S
C3308 C3310 1.384 . S
C3309 C3308 1.377 . S
C3309 C3315 1.390 . S
C3310 H3301 0.930 . S
C3310 C3308 1.384 . S
C3310 C3311 1.372 . S
C3311 C3310 1.372 . S
C3311 C3312 1.400 . S
C3311 C3316 1.490 . S
C3312 H3302 0.930 . S
C3312 C3311 1.400 . S
C3312 C3315 1.386 . S
H3313 C3329 0.930 . S
H3314 C3330 0.931 . S
C3315 H3303 0.929 . S
C3315 C3309 1.390 . S
C3315 C3312 1.386 . S
C3316 C3311 1.490 . S
C3316 C3318 1.395 . S
C3316 C3319 1.403 . S
H3317 C3323 0.930 . S
C3318 H3304 0.930 . S
C3318 C3316 1.395 . S
C3318 C3321 1.403 . S
C3319 C3316 1.403 . S
C3319 C3320 1.524 . S
C3319 C3323 1.400 . S
C3320 H3305 0.960 . S
C3320 H3306 0.960 . S
C3320 H3307 0.960 . S
C3320 C3319 1.524 . S
C3321 C3318 1.403 . S
C3321 C3322 1.392 . S
C3321 C3325 1.495 . S
C3322 C3321 1.392 . S
C3322 C3323 1.385 . S
C3322 C3324 1.478 . S
C3323 H3317 0.930 . S
C3323 C3319 1.400 . S
C3323 C3322 1.385 . S
C3324 C3322 1.478 . S
C3324 C3326 1.381 . S
C3324 C3330 1.383 . S
C3325 C3321 1.495 . S
C3325 H3331 0.959 . S
C3325 H3332 0.961 . S
C3325 H3333 0.960 . S
C3326 C3324 1.381 . S
C3326 C3327 1.394 . S
C3326 H3334 0.930 . S
C3327 C3326 1.394 . S
C3327 C3328 1.383 . S
C3327 H3335 0.929 . S
C3328 C3327 1.383 . S
C3328 C3329 1.377 . S
C3329 H3313 0.930 . S
C3329 C3328 1.377 . S
C3329 C3330 1.379 . S
C3330 H3314 0.931 . S
C3330 C3324 1.383 . S
C3330 C3329 1.379 . S
H3331 C3325 0.959 . S
H3332 C3325 0.961 . S
H3333 C3325 0.960 . S
H3334 C3326 0.930 . S
H3335 C3327 0.929 . S
H3336 C3344 0.929 . S
H3337 C3346 0.930 . S
H3338 C3348 0.930 . S
H3339 C3351 0.929 . S
H3340 C3354 0.930 . S
H3341 C3356 0.960 . S
H3342 C3356 0.960 . S
H3343 C3356 0.960 . S
C3344 H3336 0.929 . S
C3344 C3345 1.377 . S
C3344 C3346 1.384 . S
C3345 C3344 1.377 . S
C3345 C3351 1.390 . S
C3346 H3337 0.930 . S
C3346 C3344 1.384 . S
C3346 C3347 1.372 . S
C3347 C3346 1.372 . S
C3347 C3348 1.400 . S
C3347 C3352 1.490 . S
C3348 H3338 0.930 . S
C3348 C3347 1.400 . S
C3348 C3351 1.386 . S
H3349 C3365 0.930 . S
H3350 C3366 0.931 . S
C3351 H3339 0.929 . S
C3351 C3345 1.390 . S
C3351 C3348 1.386 . S
C3352 C3347 1.490 . S
C3352 C3354 1.395 . S
C3352 C3355 1.403 . S
H3353 C3359 0.930 . S
C3354 H3340 0.930 . S
C3354 C3352 1.395 . S
C3354 C3357 1.403 . S
C3355 C3352 1.403 . S
C3355 C3356 1.524 . S
C3355 C3359 1.400 . S
C3356 H3341 0.960 . S
C3356 H3342 0.960 . S
C3356 H3343 0.960 . S
C3356 C3355 1.524 . S
C3357 C3354 1.403 . S
C3357 C3358 1.392 . S
C3357 C3361 1.495 . S
C3358 C3357 1.392 . S
C3358 C3359 1.385 . S
C3358 C3360 1.478 . S
C3359 H3353 0.930 . S
C3359 C3355 1.400 . S
C3359 C3358 1.385 . S
C3360 C3358 1.478 . S
C3360 C3362 1.381 . S
C3360 C3366 1.383 . S
C3361 C3357 1.495 . S
C3361 H3367 0.959 . S
C3361 H3368 0.961 . S
C3361 H3369 0.960 . S
C3362 C3360 1.381 . S
C3362 C3363 1.394 . S
C3362 H3370 0.930 . S
C3363 C3362 1.394 . S
C3363 C3364 1.383 . S
C3363 H3371 0.929 . S
C3364 C3363 1.383 . S
C3364 C3365 1.377 . S
C3365 H3349 0.930 . S
C3365 C3364 1.377 . S
C3365 C3366 1.379 . S
C3366 H3350 0.931 . S
C3366 C3360 1.383 . S
C3366 C3365 1.379 . S
H3367 C3361 0.959 . S
H3368 C3361 0.961 . S
H3369 C3361 0.960 . S
H3370 C3362 0.930 . S
H3371 C3363 0.929 . S
H3372 C3380 0.929 . S
H3373 C3382 0.930 . S
H3374 C3384 0.930 . S
H3375 C3387 0.929 . S
H3376 C3390 0.930 . S
H3377 C3392 0.960 . S
H3378 C3392 0.960 . S
H3379 C3392 0.960 . S
C3380 H3372 0.929 . S
C3380 C3381 1.377 . S
C3380 C3382 1.384 . S
C3381 C3380 1.377 . S
C3381 C3387 1.390 . S
C3382 H3373 0.930 . S
C3382 C3380 1.384 . S
C3382 C3383 1.372 . S
C3383 C3382 1.372 . S
C3383 C3384 1.400 . S
C3383 C3388 1.490 . S
C3384 H3374 0.930 . S
C3384 C3383 1.400 . S
C3384 C3387 1.386 . S
H3385 C3401 0.930 . S
H3386 C3402 0.931 . S
C3387 H3375 0.929 . S
C3387 C3381 1.390 . S
C3387 C3384 1.386 . S
C3388 C3383 1.490 . S
C3388 C3390 1.395 . S
C3388 C3391 1.403 . S
H3389 C3395 0.930 . S
C3390 H3376 0.930 . S
C3390 C3388 1.395 . S
C3390 C3393 1.403 . S
C3391 C3388 1.403 . S
C3391 C3392 1.524 . S
C3391 C3395 1.400 . S
C3392 H3377 0.960 . S
C3392 H3378 0.960 . S
C3392 H3379 0.960 . S
C3392 C3391 1.524 . S
C3393 C3390 1.403 . S
C3393 C3394 1.392 . S
C3393 C3397 1.495 . S
C3394 C3393 1.392 . S
C3394 C3395 1.385 . S
C3394 C3396 1.478 . S
C3395 H3389 0.930 . S
C3395 C3391 1.400 . S
C3395 C3394 1.385 . S
C3396 C3394 1.478 . S
C3396 C3398 1.381 . S
C3396 C3402 1.383 . S
C3397 C3393 1.495 . S
C3397 H3403 0.959 . S
C3397 H3404 0.961 . S
C3397 H3405 0.960 . S
C3398 C3396 1.381 . S
C3398 C3399 1.394 . S
C3398 H3406 0.930 . S
C3399 C3398 1.394 . S
C3399 C3400 1.383 . S
C3399 H3407 0.929 . S
C3400 C3399 1.383 . S
C3400 C3401 1.377 . S
C3401 H3385 0.930 . S
C3401 C3400 1.377 . S
C3401 C3402 1.379 . S
C3402 H3386 0.931 . S
C3402 C3396 1.383 . S
C3402 C3401 1.379 . S
H3403 C3397 0.959 . S
H3404 C3397 0.961 . S
H3405 C3397 0.960 . S
H3406 C3398 0.930 . S
H3407 C3399 0.929 . S
H3408 C3416 0.929 . S
H3409 C3418 0.930 . S
H3410 C3420 0.930 . S
H3411 C3423 0.929 . S
H3412 C3426 0.930 . S
H3413 C3428 0.960 . S
H3414 C3428 0.960 . S
H3415 C3428 0.960 . S
C3416 H3408 0.929 . S
C3416 C3417 1.377 . S
C3416 C3418 1.384 . S
C3417 C3416 1.377 . S
C3417 C3423 1.390 . S
C3418 H3409 0.930 . S
C3418 C3416 1.384 . S
C3418 C3419 1.372 . S
C3419 C3418 1.372 . S
C3419 C3420 1.400 . S
C3419 C3424 1.490 . S
C3420 H3410 0.930 . S
C3420 C3419 1.400 . S
C3420 C3423 1.386 . S
H3421 C3437 0.930 . S
H3422 C3438 0.931 . S
C3423 H3411 0.929 . S
C3423 C3417 1.390 . S
C3423 C3420 1.386 . S
C3424 C3419 1.490 . S
C3424 C3426 1.395 . S
C3424 C3427 1.403 . S
H3425 C3431 0.930 . S
C3426 H3412 0.930 . S
C3426 C3424 1.395 . S
C3426 C3429 1.403 . S
C3427 C3424 1.403 . S
C3427 C3428 1.524 . S
C3427 C3431 1.400 . S
C3428 H3413 0.960 . S
C3428 H3414 0.960 . S
C3428 H3415 0.960 . S
C3428 C3427 1.524 . S
C3429 C3426 1.403 . S
C3429 C3430 1.392 . S
C3429 C3433 1.495 . S
C3430 C3429 1.392 . S
C3430 C3431 1.385 . S
C3430 C3432 1.478 . S
C3431 H3425 0.930 . S
C3431 C3427 1.400 . S
C3431 C3430 1.385 . S
C3432 C3430 1.478 . S
C3432 C3434 1.381 . S
C3432 C3438 1.383 . S
C3433 C3429 1.495 . S
C3433 H3439 0.959 . S
C3433 H3440 0.961 . S
C3433 H3441 0.960 . S
C3434 C3432 1.381 . S
C3434 C3435 1.394 . S
C3434 H3442 0.930 . S
C3435 C3434 1.394 . S
C3435 C3436 1.383 . S
C3435 H3443 0.929 . S
C3436 C3435 1.383 . S
C3436 C3437 1.377 . S
C3437 H3421 0.930 . S
C3437 C3436 1.377 . S
C3437 C3438 1.379 . S
C3438 H3422 0.931 . S
C3438 C3432 1.383 . S
C3438 C3437 1.379 . S
H3439 C3433 0.959 . S
H3440 C3433 0.961 . S
H3441 C3433 0.960 . S
H3442 C3434 0.930 . S
H3443 C3435 0.929 . S
H3444 C3452 0.929 . S
H3445 C3454 0.930 . S
H3446 C3456 0.930 . S
H3447 C3459 0.929 . S
H3448 C3462 0.930 . S
H3449 C3464 0.960 . S
H3450 C3464 0.960 . S
H3451 C3464 0.960 . S
C3452 H3444 0.929 . S
C3452 C3453 1.377 . S
C3452 C3454 1.384 . S
C3453 C3452 1.377 . S
C3453 C3459 1.390 . S
C3454 H3445 0.930 . S
C3454 C3452 1.384 . S
C3454 C3455 1.372 . S
C3455 C3454 1.372 . S
C3455 C3456 1.400 . S
C3455 C3460 1.490 . S
C3456 H3446 0.930 . S
C3456 C3455 1.400 . S
C3456 C3459 1.386 . S
H3457 C3473 0.930 . S
H3458 C3474 0.931 . S
C3459 H3447 0.929 . S
C3459 C3453 1.390 . S
C3459 C3456 1.386 . S
C3460 C3455 1.490 . S
C3460 C3462 1.395 . S
C3460 C3463 1.403 . S
H3461 C3467 0.930 . S
C3462 H3448 0.930 . S
C3462 C3460 1.395 . S
C3462 C3465 1.403 . S
C3463 C3460 1.403 . S
C3463 C3464 1.524 . S
C3463 C3467 1.400 . S
C3464 H3449 0.960 . S
C3464 H3450 0.960 . S
C3464 H3451 0.960 . S
C3464 C3463 1.524 . S
C3465 C3462 1.403 . S
C3465 C3466 1.392 . S
C3465 C3469 1.495 . S
C3466 C3465 1.392 . S
C3466 C3467 1.385 . S
C3466 C3468 1.478 . S
C3467 H3461 0.930 . S
C3467 C3463 1.400 . S
C3467 C3466 1.385 . S
C3468 C3466 1.478 . S
C3468 C3470 1.381 . S
C3468 C3474 1.383 . S
C3469 C3465 1.495 . S
C3469 H3475 0.959 . S
C3469 H3476 0.961 . S
C3469 H3477 0.960 . S
C3470 C3468 1.381 . S
C3470 C3471 1.394 . S
C3470 H3478 0.930 . S
C3471 C3470 1.394 . S
C3471 C3472 1.383 . S
C3471 H3479 0.929 . S
C3472 C3471 1.383 . S
C3472 C3473 1.377 . S
C3473 H3457 0.930 . S
C3473 C3472 1.377 . S
C3473 C3474 1.379 . S
C3474 H3458 0.931 . S
C3474 C3468 1.383 . S
C3474 C3473 1.379 . S
H3475 C3469 0.959 . S
H3476 C3469 0.961 . S
H3477 C3469 0.960 . S
H3478 C3470 0.930 . S
H3479 C3471 0.929 . S
H3480 C3488 0.929 . S
H3481 C3490 0.930 . S
H3482 C3492 0.930 . S
H3483 C3495 0.929 . S
H3484 C3498 0.930 . S
H3485 C3500 0.960 . S
H3486 C3500 0.960 . S
H3487 C3500 0.960 . S
C3488 H3480 0.929 . S
C3488 C3489 1.377 . S
C3488 C3490 1.384 . S
C3489 C3488 1.377 . S
C3489 C3495 1.390 . S
C3490 H3481 0.930 . S
C3490 C3488 1.384 . S
C3490 C3491 1.372 . S
C3491 C3490 1.372 . S
C3491 C3492 1.400 . S
C3491 C3496 1.490 . S
C3492 H3482 0.930 . S
C3492 C3491 1.400 . S
C3492 C3495 1.386 . S
H3493 C3509 0.930 . S
H3494 C3510 0.931 . S
C3495 H3483 0.929 . S
C3495 C3489 1.390 . S
C3495 C3492 1.386 . S
C3496 C3491 1.490 . S
C3496 C3498 1.395 . S
C3496 C3499 1.403 . S
H3497 C3503 0.930 . S
C3498 H3484 0.930 . S
C3498 C3496 1.395 . S
C3498 C3501 1.403 . S
C3499 C3496 1.403 . S
C3499 C3500 1.524 . S
C3499 C3503 1.400 . S
C3500 H3485 0.960 . S
C3500 H3486 0.960 . S
C3500 H3487 0.960 . S
C3500 C3499 1.524 . S
C3501 C3498 1.403 . S
C3501 C3502 1.392 . S
C3501 C3505 1.495 . S
C3502 C3501 1.392 . S
C3502 C3503 1.385 . S
C3502 C3504 1.478 . S
C3503 H3497 0.930 . S
C3503 C3499 1.400 . S
C3503 C3502 1.385 . S
C3504 C3502 1.478 . S
C3504 C3506 1.381 . S
C3504 C3510 1.383 . S
C3505 C3501 1.495 . S
C3505 H3511 0.959 . S
C3505 H3512 0.961 . S
C3505 H3513 0.960 . S
C3506 C3504 1.381 . S
C3506 C3507 1.394 . S
C3506 H3514 0.930 . S
C3507 C3506 1.394 . S
C3507 C3508 1.383 . S
C3507 H3515 0.929 . S
C3508 C3507 1.383 . S
C3508 C3509 1.377 . S
C3509 H3493 0.930 . S
C3509 C3508 1.377 . S
C3509 C3510 1.379 . S
C3510 H3494 0.931 . S
C3510 C3504 1.383 . S
C3510 C3509 1.379 . S
H3511 C3505 0.959 . S
H3512 C3505 0.961 . S
H3513 C3505 0.960 . S
H3514 C3506 0.930 . S
H3515 C3507 0.929 . S
H3516 C3524 0.929 . S
H3517 C3526 0.930 . S
H3518 C3528 0.930 . S
H3519 C3531 0.929 . S
H3520 C3534 0.930 . S
H3521 C3536 0.960 . S
H3522 C3536 0.960 . S
H3523 C3536 0.960 . S
C3524 H3516 0.929 . S
C3524 C3525 1.377 . S
C3524 C3526 1.384 . S
C3525 C3524 1.377 . S
C3525 C3531 1.390 . S
C3526 H3517 0.930 . S
C3526 C3524 1.384 . S
C3526 C3527 1.372 . S
C3527 C3526 1.372 . S
C3527 C3528 1.400 . S
C3527 C3532 1.490 . S
C3528 H3518 0.930 . S
C3528 C3527 1.400 . S
C3528 C3531 1.386 . S
H3529 C3545 0.930 . S
H3530 C3546 0.931 . S
C3531 H3519 0.929 . S
C3531 C3525 1.390 . S
C3531 C3528 1.386 . S
C3532 C3527 1.490 . S
C3532 C3534 1.395 . S
C3532 C3535 1.403 . S
H3533 C3539 0.930 . S
C3534 H3520 0.930 . S
C3534 C3532 1.395 . S
C3534 C3537 1.403 . S
C3535 C3532 1.403 . S
C3535 C3536 1.524 . S
C3535 C3539 1.400 . S
C3536 H3521 0.960 . S
C3536 H3522 0.960 . S
C3536 H3523 0.960 . S
C3536 C3535 1.524 . S
C3537 C3534 1.403 . S
C3537 C3538 1.392 . S
C3537 C3541 1.495 . S
C3538 C3537 1.392 . S
C3538 C3539 1.385 . S
C3538 C3540 1.478 . S
C3539 H3533 0.930 . S
C3539 C3535 1.400 . S
C3539 C3538 1.385 . S
C3540 C3538 1.478 . S
C3540 C3542 1.381 . S
C3540 C3546 1.383 . S
C3541 C3537 1.495 . S
C3541 H3547 0.959 . S
C3541 H3548 0.961 . S
C3541 H3549 0.960 . S
C3542 C3540 1.381 . S
C3542 C3543 1.394 . S
C3542 H3550 0.930 . S
C3543 C3542 1.394 . S
C3543 C3544 1.383 . S
C3543 H3551 0.929 . S
C3544 C3543 1.383 . S
C3544 C3545 1.377 . S
C3545 H3529 0.930 . S
C3545 C3544 1.377 . S
C3545 C3546 1.379 . S
C3546 H3530 0.931 . S
C3546 C3540 1.383 . S
C3546 C3545 1.379 . S
H3547 C3541 0.959 . S
H3548 C3541 0.961 . S
H3549 C3541 0.960 . S
H3550 C3542 0.930 . S
H3551 C3543 0.929 . S
H3552 C3560 0.929 . S
H3553 C3562 0.930 . S
H3554 C3564 0.930 . S
H3555 C3567 0.929 . S
H3556 C3570 0.930 . S
H3557 C3572 0.960 . S
H3558 C3572 0.960 . S
H3559 C3572 0.960 . S
C3560 H3552 0.929 . S
C3560 C3561 1.377 . S
C3560 C3562 1.384 . S
C3561 C3560 1.377 . S
C3561 C3567 1.390 . S
C3562 H3553 0.930 . S
C3562 C3560 1.384 . S
C3562 C3563 1.372 . S
C3563 C3562 1.372 . S
C3563 C3564 1.400 . S
C3563 C3568 1.490 . S
C3564 H3554 0.930 . S
C3564 C3563 1.400 . S
C3564 C3567 1.386 . S
H3565 C3581 0.930 . S
H3566 C3582 0.931 . S
C3567 H3555 0.929 . S
C3567 C3561 1.390 . S
C3567 C3564 1.386 . S
C3568 C3563 1.490 . S
C3568 C3570 1.395 . S
C3568 C3571 1.403 . S
H3569 C3575 0.930 . S
C3570 H3556 0.930 . S
C3570 C3568 1.395 . S
C3570 C3573 1.403 . S
C3571 C3568 1.403 . S
C3571 C3572 1.524 . S
C3571 C3575 1.400 . S
C3572 H3557 0.960 . S
C3572 H3558 0.960 . S
C3572 H3559 0.960 . S
C3572 C3571 1.524 . S
C3573 C3570 1.403 . S
C3573 C3574 1.392 . S
C3573 C3577 1.495 . S
C3574 C3573 1.392 . S
C3574 C3575 1.385 . S
C3574 C3576 1.478 . S
C3575 H3569 0.930 . S
C3575 C3571 1.400 . S
C3575 C3574 1.385 . S
C3576 C3574 1.478 . S
C3576 C3578 1.381 . S
C3576 C3582 1.383 . S
C3577 C3573 1.495 . S
C3577 H3583 0.959 . S
C3577 H3584 0.961 . S
C3577 H3585 0.960 . S
C3578 C3576 1.381 . S
C3578 C3579 1.394 . S
C3578 H3586 0.930 . S
C3579 C3578 1.394 . S
C3579 C3580 1.383 . S
C3579 H3587 0.929 . S
C3580 C3579 1.383 . S
C3580 C3581 1.377 . S
C3581 H3565 0.930 . S
C3581 C3580 1.377 . S
C3581 C3582 1.379 . S
C3582 H3566 0.931 . S
C3582 C3576 1.383 . S
C3582 C3581 1.379 . S
H3583 C3577 0.959 . S
H3584 C3577 0.961 . S
H3585 C3577 0.960 . S
H3586 C3578 0.930 . S
H3587 C3579 0.929 . S
H3588 C3596 0.929 . S
H3589 C3598 0.930 . S
H3590 C3600 0.930 . S
H3591 C3603 0.929 . S
H3592 C3606 0.930 . S
H3593 C3608 0.960 . S
H3594 C3608 0.960 . S
H3595 C3608 0.960 . S
C3596 H3588 0.929 . S
C3596 C3597 1.377 . S
C3596 C3598 1.384 . S
C3597 C3596 1.377 . S
C3597 C3603 1.390 . S
C3598 H3589 0.930 . S
C3598 C3596 1.384 . S
C3598 C3599 1.372 . S
C3599 C3598 1.372 . S
C3599 C3600 1.400 . S
C3599 C3604 1.490 . S
C3600 H3590 0.930 . S
C3600 C3599 1.400 . S
C3600 C3603 1.386 . S
H3601 C3617 0.930 . S
H3602 C3618 0.931 . S
C3603 H3591 0.929 . S
C3603 C3597 1.390 . S
C3603 C3600 1.386 . S
C3604 C3599 1.490 . S
C3604 C3606 1.395 . S
C3604 C3607 1.403 . S
H3605 C3611 0.930 . S
C3606 H3592 0.930 . S
C3606 C3604 1.395 . S
C3606 C3609 1.403 . S
C3607 C3604 1.403 . S
C3607 C3608 1.524 . S
C3607 C3611 1.400 . S
C3608 H3593 0.960 . S
C3608 H3594 0.960 . S
C3608 H3595 0.960 . S
C3608 C3607 1.524 . S
C3609 C3606 1.403 . S
C3609 C3610 1.392 . S
C3609 C3613 1.495 . S
C3610 C3609 1.392 . S
C3610 C3611 1.385 . S
C3610 C3612 1.478 . S
C3611 H3605 0.930 . S
C3611 C3607 1.400 . S
C3611 C3610 1.385 . S
C3612 C3610 1.478 . S
C3612 C3614 1.381 . S
C3612 C3618 1.383 . S
C3613 C3609 1.495 . S
C3613 H3619 0.959 . S
C3613 H3620 0.961 . S
C3613 H3621 0.960 . S
C3614 C3612 1.381 . S
C3614 C3615 1.394 . S
C3614 H3622 0.930 . S
C3615 C3614 1.394 . S
C3615 C3616 1.383 . S
C3615 H3623 0.929 . S
C3616 C3615 1.383 . S
C3616 C3617 1.377 . S
C3617 H3601 0.930 . S
C3617 C3616 1.377 . S
C3617 C3618 1.379 . S
C3618 H3602 0.931 . S
C3618 C3612 1.383 . S
C3618 C3617 1.379 . S
H3619 C3613 0.959 . S
H3620 C3613 0.961 . S
H3621 C3613 0.960 . S
H3622 C3614 0.930 . S
H3623 C3615 0.929 . S
H3624 C3632 0.929 . S
H3625 C3634 0.930 . S
H3626 C3636 0.930 . S
H3627 C3639 0.929 . S
H3628 C3642 0.930 . S
H3629 C3644 0.960 . S
H3630 C3644 0.960 . S
H3631 C3644 0.960 . S
C3632 H3624 0.929 . S
C3632 C3633 1.377 . S
C3632 C3634 1.384 . S
C3633 C3632 1.377 . S
C3633 C3639 1.390 . S
C3634 H3625 0.930 . S
C3634 C3632 1.384 . S
C3634 C3635 1.372 . S
C3635 C3634 1.372 . S
C3635 C3636 1.400 . S
C3635 C3640 1.490 . S
C3636 H3626 0.930 . S
C3636 C3635 1.400 . S
C3636 C3639 1.386 . S
H3637 C3653 0.930 . S
H3638 C3654 0.931 . S
C3639 H3627 0.929 . S
C3639 C3633 1.390 . S
C3639 C3636 1.386 . S
C3640 C3635 1.490 . S
C3640 C3642 1.395 . S
C3640 C3643 1.403 . S
H3641 C3647 0.930 . S
C3642 H3628 0.930 . S
C3642 C3640 1.395 . S
C3642 C3645 1.403 . S
C3643 C3640 1.403 . S
C3643 C3644 1.524 . S
C3643 C3647 1.400 . S
C3644 H3629 0.960 . S
C3644 H3630 0.960 . S
C3644 H3631 0.960 . S
C3644 C3643 1.524 . S
C3645 C3642 1.403 . S
C3645 C3646 1.392 . S
C3645 C3649 1.495 . S
C3646 C3645 1.392 . S
C3646 C3647 1.385 . S
C3646 C3648 1.478 . S
C3647 H3641 0.930 . S
C3647 C3643 1.400 . S
C3647 C3646 1.385 . S
C3648 C3646 1.478 . S
C3648 C3650 1.381 . S
C3648 C3654 1.383 . S
C3649 C3645 1.495 . S
C3649 H3655 0.959 . S
C3649 H3656 0.961 . S
C3649 H3657 0.960 . S
C3650 C3648 1.381 . S
C3650 C3651 1.394 . S
C3650 H3658 0.930 . S
C3651 C3650 1.394 . S
C3651 C3652 1.383 . S
C3651 H3659 0.929 . S
C3652 C3651 1.383 . S
C3652 C3653 1.377 . S
C3653 H3637 0.930 . S
C3653 C3652 1.377 . S
C3653 C3654 1.379 . S
C3654 H3638 0.931 . S
C3654 C3648 1.383 . S
C3654 C3653 1.379 . S
H3655 C3649 0.959 . S
H3656 C3649 0.961 . S
H3657 C3649 0.960 . S
H3658 C3650 0.930 . S
H3659 C3651 0.929 . S
H3660 C3668 0.929 . S
H3661 C3670 0.930 . S
H3662 C3672 0.930 . S
H3663 C3675 0.929 . S
H3664 C3678 0.930 . S
H3665 C3680 0.960 . S
H3666 C3680 0.960 . S
H3667 C3680 0.960 . S
C3668 H3660 0.929 . S
C3668 C3669 1.377 . S
C3668 C3670 1.384 . S
C3669 C3668 1.377 . S
C3669 C3675 1.390 . S
C3670 H3661 0.930 . S
C3670 C3668 1.384 . S
C3670 C3671 1.372 . S
C3671 C3670 1.372 . S
C3671 C3672 1.400 . S
C3671 C3676 1.490 . S
C3672 H3662 0.930 . S
C3672 C3671 1.400 . S
C3672 C3675 1.386 . S
H3673 C3689 0.930 . S
H3674 C3690 0.931 . S
C3675 H3663 0.929 . S
C3675 C3669 1.390 . S
C3675 C3672 1.386 . S
C3676 C3671 1.490 . S
C3676 C3678 1.395 . S
C3676 C3679 1.403 . S
H3677 C3683 0.930 . S
C3678 H3664 0.930 . S
C3678 C3676 1.395 . S
C3678 C3681 1.403 . S
C3679 C3676 1.403 . S
C3679 C3680 1.524 . S
C3679 C3683 1.400 . S
C3680 H3665 0.960 . S
C3680 H3666 0.960 . S
C3680 H3667 0.960 . S
C3680 C3679 1.524 . S
C3681 C3678 1.403 . S
C3681 C3682 1.392 . S
C3681 C3685 1.495 . S
C3682 C3681 1.392 . S
C3682 C3683 1.385 . S
C3682 C3684 1.478 . S
C3683 H3677 0.930 . S
C3683 C3679 1.400 . S
C3683 C3682 1.385 . S
C3684 C3682 1.478 . S
C3684 C3686 1.381 . S
C3684 C3690 1.383 . S
C3685 C3681 1.495 . S
C3685 H3691 0.959 . S
C3685 H3692 0.961 . S
C3685 H3693 0.960 . S
C3686 C3684 1.381 . S
C3686 C3687 1.394 . S
C3686 H3694 0.930 . S
C3687 C3686 1.394 . S
C3687 C3688 1.383 . S
C3687 H3695 0.929 . S
C3688 C3687 1.383 . S
C3688 C3689 1.377 . S
C3689 H3673 0.930 . S
C3689 C3688 1.377 . S
C3689 C3690 1.379 . S
C3690 H3674 0.931 . S
C3690 C3684 1.383 . S
C3690 C3689 1.379 . S
H3691 C3685 0.959 . S
H3692 C3685 0.961 . S
H3693 C3685 0.960 . S
H3694 C3686 0.930 . S
H3695 C3687 0.929 . S
H3696 C3704 0.929 . S
H3697 C3706 0.930 . S
H3698 C3708 0.930 . S
H3699 C3711 0.929 . S
H3700 C3714 0.930 . S
H3701 C3716 0.960 . S
H3702 C3716 0.960 . S
H3703 C3716 0.960 . S
C3704 H3696 0.929 . S
C3704 C3705 1.377 . S
C3704 C3706 1.384 . S
C3705 C3704 1.377 . S
C3705 C3711 1.390 . S
C3706 H3697 0.930 . S
C3706 C3704 1.384 . S
C3706 C3707 1.372 . S
C3707 C3706 1.372 . S
C3707 C3708 1.400 . S
C3707 C3712 1.490 . S
C3708 H3698 0.930 . S
C3708 C3707 1.400 . S
C3708 C3711 1.386 . S
H3709 C3725 0.930 . S
H3710 C3726 0.931 . S
C3711 H3699 0.929 . S
C3711 C3705 1.390 . S
C3711 C3708 1.386 . S
C3712 C3707 1.490 . S
C3712 C3714 1.395 . S
C3712 C3715 1.403 . S
H3713 C3719 0.930 . S
C3714 H3700 0.930 . S
C3714 C3712 1.395 . S
C3714 C3717 1.403 . S
C3715 C3712 1.403 . S
C3715 C3716 1.524 . S
C3715 C3719 1.400 . S
C3716 H3701 0.960 . S
C3716 H3702 0.960 . S
C3716 H3703 0.960 . S
C3716 C3715 1.524 . S
C3717 C3714 1.403 . S
C3717 C3718 1.392 . S
C3717 C3721 1.495 . S
C3718 C3717 1.392 . S
C3718 C3719 1.385 . S
C3718 C3720 1.478 . S
C3719 H3713 0.930 . S
C3719 C3715 1.400 . S
C3719 C3718 1.385 . S
C3720 C3718 1.478 . S
C3720 C3722 1.381 . S
C3720 C3726 1.383 . S
C3721 C3717 1.495 . S
C3721 H3727 0.959 . S
C3721 H3728 0.961 . S
C3721 H3729 0.960 . S
C3722 C3720 1.381 . S
C3722 C3723 1.394 . S
C3722 H3730 0.930 . S
C3723 C3722 1.394 . S
C3723 C3724 1.383 . S
C3723 H3731 0.929 . S
C3724 C3723 1.383 . S
C3724 C3725 1.377 . S
C3725 H3709 0.930 . S
C3725 C3724 1.377 . S
C3725 C3726 1.379 . S
C3726 H3710 0.931 . S
C3726 C3720 1.383 . S
C3726 C3725 1.379 . S
H3727 C3721 0.959 . S
H3728 C3721 0.961 . S
H3729 C3721 0.960 . S
H3730 C3722 0.930 . S
H3731 C3723 0.929 . S
H3732 C3740 0.929 . S
H3733 C3742 0.930 . S
H3734 C3744 0.930 . S
H3735 C3747 0.929 . S
H3736 C3750 0.930 . S
H3737 C3752 0.960 . S
H3738 C3752 0.960 . S
H3739 C3752 0.960 . S
C3740 H3732 0.929 . S
C3740 C3741 1.377 . S
C3740 C3742 1.384 . S
C3741 C3740 1.377 . S
C3741 C3747 1.390 . S
C3742 H3733 0.930 . S
C3742 C3740 1.384 . S
C3742 C3743 1.372 . S
C3743 C3742 1.372 . S
C3743 C3744 1.400 . S
C3743 C3748 1.490 . S
C3744 H3734 0.930 . S
C3744 C3743 1.400 . S
C3744 C3747 1.386 . S
H3745 C3761 0.930 . S
H3746 C3762 0.931 . S
C3747 H3735 0.929 . S
C3747 C3741 1.390 . S
C3747 C3744 1.386 . S
C3748 C3743 1.490 . S
C3748 C3750 1.395 . S
C3748 C3751 1.403 . S
H3749 C3755 0.930 . S
C3750 H3736 0.930 . S
C3750 C3748 1.395 . S
C3750 C3753 1.403 . S
C3751 C3748 1.403 . S
C3751 C3752 1.524 . S
C3751 C3755 1.400 . S
C3752 H3737 0.960 . S
C3752 H3738 0.960 . S
C3752 H3739 0.960 . S
C3752 C3751 1.524 . S
C3753 C3750 1.403 . S
C3753 C3754 1.392 . S
C3753 C3757 1.495 . S
C3754 C3753 1.392 . S
C3754 C3755 1.385 . S
C3754 C3756 1.478 . S
C3755 H3749 0.930 . S
C3755 C3751 1.400 . S
C3755 C3754 1.385 . S
C3756 C3754 1.478 . S
C3756 C3758 1.381 . S
C3756 C3762 1.383 . S
C3757 C3753 1.495 . S
C3757 H3763 0.959 . S
C3757 H3764 0.961 . S
C3757 H3765 0.960 . S
C3758 C3756 1.381 . S
C3758 C3759 1.394 . S
C3758 H3766 0.930 . S
C3759 C3758 1.394 . S
C3759 C3760 1.383 . S
C3759 H3767 0.929 . S
C3760 C3759 1.383 . S
C3760 C3761 1.377 . S
C3761 H3745 0.930 . S
C3761 C3760 1.377 . S
C3761 C3762 1.379 . S
C3762 H3746 0.931 . S
C3762 C3756 1.383 . S
C3762 C3761 1.379 . S
H3763 C3757 0.959 . S
H3764 C3757 0.961 . S
H3765 C3757 0.960 . S
H3766 C3758 0.930 . S
H3767 C3759 0.929 . S
H3768 C3776 0.929 . S
H3769 C3778 0.930 . S
H3770 C3780 0.930 . S
H3771 C3783 0.929 . S
H3772 C3786 0.930 . S
H3773 C3788 0.960 . S
H3774 C3788 0.960 . S
H3775 C3788 0.960 . S
C3776 H3768 0.929 . S
C3776 C3777 1.377 . S
C3776 C3778 1.384 . S
C3777 C3776 1.377 . S
C3777 C3783 1.390 . S
C3778 H3769 0.930 . S
C3778 C3776 1.384 . S
C3778 C3779 1.372 . S
C3779 C3778 1.372 . S
C3779 C3780 1.400 . S
C3779 C3784 1.490 . S
C3780 H3770 0.930 . S
C3780 C3779 1.400 . S
C3780 C3783 1.386 . S
H3781 C3797 0.930 . S
H3782 C3798 0.931 . S
C3783 H3771 0.929 . S
C3783 C3777 1.390 . S
C3783 C3780 1.386 . S
C3784 C3779 1.490 . S
C3784 C3786 1.395 . S
C3784 C3787 1.403 . S
H3785 C3791 0.930 . S
C3786 H3772 0.930 . S
C3786 C3784 1.395 . S
C3786 C3789 1.403 . S
C3787 C3784 1.403 . S
C3787 C3788 1.524 . S
C3787 C3791 1.400 . S
C3788 H3773 0.960 . S
C3788 H3774 0.960 . S
C3788 H3775 0.960 . S
C3788 C3787 1.524 . S
C3789 C3786 1.403 . S
C3789 C3790 1.392 . S
C3789 C3793 1.495 . S
C3790 C3789 1.392 . S
C3790 C3791 1.385 . S
C3790 C3792 1.478 . S
C3791 H3785 0.930 . S
C3791 C3787 1.400 . S
C3791 C3790 1.385 . S
C3792 C3790 1.478 . S
C3792 C3794 1.381 . S
C3792 C3798 1.383 . S
C3793 C3789 1.495 . S
C3793 H3799 0.959 . S
C3793 H3800 0.961 . S
C3793 H3801 0.960 . S
C3794 C3792 1.381 . S
C3794 C3795 1.394 . S
C3794 H3802 0.930 . S
C3795 C3794 1.394 . S
C3795 C3796 1.383 . S
C3795 H3803 0.929 . S
C3796 C3795 1.383 . S
C3796 C3797 1.377 . S
C3797 H3781 0.930 . S
C3797 C3796 1.377 . S
C3797 C3798 1.379 . S
C3798 H3782 0.931 . S
C3798 C3792 1.383 . S
C3798 C3797 1.379 . S
H3799 C3793 0.959 . S
H3800 C3793 0.961 . S
H3801 C3793 0.960 . S
H3802 C3794 0.930 . S
H3803 C3795 0.929 . S
H3804 C3812 0.929 . S
H3805 C3814 0.930 . S
H3806 C3816 0.930 . S
H3807 C3819 0.929 . S
H3808 C3822 0.930 . S
H3809 C3824 0.960 . S
H3810 C3824 0.960 . S
H3811 C3824 0.960 . S
C3812 H3804 0.929 . S
C3812 C3813 1.377 . S
C3812 C3814 1.384 . S
C3813 C3812 1.377 . S
C3813 C3819 1.390 . S
C3814 H3805 0.930 . S
C3814 C3812 1.384 . S
C3814 C3815 1.372 . S
C3815 C3814 1.372 . S
C3815 C3816 1.400 . S
C3815 C3820 1.490 . S
C3816 H3806 0.930 . S
C3816 C3815 1.400 . S
C3816 C3819 1.386 . S
H3817 C3833 0.930 . S
H3818 C3834 0.931 . S
C3819 H3807 0.929 . S
C3819 C3813 1.390 . S
C3819 C3816 1.386 . S
C3820 C3815 1.490 . S
C3820 C3822 1.395 . S
C3820 C3823 1.403 . S
H3821 C3827 0.930 . S
C3822 H3808 0.930 . S
C3822 C3820 1.395 . S
C3822 C3825 1.403 . S
C3823 C3820 1.403 . S
C3823 C3824 1.524 . S
C3823 C3827 1.400 . S
C3824 H3809 0.960 . S
C3824 H3810 0.960 . S
C3824 H3811 0.960 . S
C3824 C3823 1.524 . S
C3825 C3822 1.403 . S
C3825 C3826 1.392 . S
C3825 C3829 1.495 . S
C3826 C3825 1.392 . S
C3826 C3827 1.385 . S
C3826 C3828 1.478 . S
C3827 H3821 0.930 . S
C3827 C3823 1.400 . S
C3827 C3826 1.385 . S
C3828 C3826 1.478 . S
C3828 C3830 1.381 . S
C3828 C3834 1.383 . S
C3829 C3825 1.495 . S
C3829 H3835 0.959 . S
C3829 H3836 0.961 . S
C3829 H3837 0.960 . S
C3830 C3828 1.381 . S
C3830 C3831 1.394 . S
C3830 H3838 0.930 . S
C3831 C3830 1.394 . S
C3831 C3832 1.383 . S
C3831 H3839 0.929 . S
C3832 C3831 1.383 . S
C3832 C3833 1.377 . S
C3833 H3817 0.930 . S
C3833 C3832 1.377 . S
C3833 C3834 1.379 . S
C3834 H3818 0.931 . S
C3834 C3828 1.383 . S
C3834 C3833 1.379 . S
H3835 C3829 0.959 . S
H3836 C3829 0.961 . S
H3837 C3829 0.960 . S
H3838 C3830 0.930 . S
H3839 C3831 0.929 . S
H3840 C3848 0.929 . S
H3841 C3850 0.930 . S
H3842 C3852 0.930 . S
H3843 C3855 0.929 . S
H3844 C3858 0.930 . S
H3845 C3860 0.960 . S
H3846 C3860 0.960 . S
H3847 C3860 0.960 . S
C3848 H3840 0.929 . S
C3848 C3849 1.377 . S
C3848 C3850 1.384 . S
C3849 C3848 1.377 . S
C3849 C3855 1.390 . S
C3850 H3841 0.930 . S
C3850 C3848 1.384 . S
C3850 C3851 1.372 . S
C3851 C3850 1.372 . S
C3851 C3852 1.400 . S
C3851 C3856 1.490 . S
C3852 H3842 0.930 . S
C3852 C3851 1.400 . S
C3852 C3855 1.386 . S
H3853 C3869 0.930 . S
H3854 C3870 0.931 . S
C3855 H3843 0.929 . S
C3855 C3849 1.390 . S
C3855 C3852 1.386 . S
C3856 C3851 1.490 . S
C3856 C3858 1.395 . S
C3856 C3859 1.403 . S
H3857 C3863 0.930 . S
C3858 H3844 0.930 . S
C3858 C3856 1.395 . S
C3858 C3861 1.403 . S
C3859 C3856 1.403 . S
C3859 C3860 1.524 . S
C3859 C3863 1.400 . S
C3860 H3845 0.960 . S
C3860 H3846 0.960 . S
C3860 H3847 0.960 . S
C3860 C3859 1.524 . S
C3861 C3858 1.403 . S
C3861 C3862 1.392 . S
C3861 C3865 1.495 . S
C3862 C3861 1.392 . S
C3862 C3863 1.385 . S
C3862 C3864 1.478 . S
C3863 H3857 0.930 . S
C3863 C3859 1.400 . S
C3863 C3862 1.385 . S
C3864 C3862 1.478 . S
C3864 C3866 1.381 . S
C3864 C3870 1.383 . S
C3865 C3861 1.495 . S
C3865 H3871 0.959 . S
C3865 H3872 0.961 . S
C3865 H3873 0.960 . S
C3866 C3864 1.381 . S
C3866 C3867 1.394 . S
C3866 H3874 0.930 . S
C3867 C3866 1.394 . S
C3867 C3868 1.383 . S
C3867 H3875 0.929 . S
C3868 C3867 1.383 . S
C3868 C3869 1.377 . S
C3869 H3853 0.930 . S
C3869 C3868 1.377 . S
C3869 C3870 1.379 . S
C3870 H3854 0.931 . S
C3870 C3864 1.383 . S
C3870 C3869 1.379 . S
H3871 C3865 0.959 . S
H3872 C3865 0.961 . S
H3873 C3865 0.960 . S
H3874 C3866 0.930 . S
H3875 C3867 0.929 . S
H3876 C3884 0.929 . S
H3877 C3886 0.930 . S
H3878 C3888 0.930 . S
H3879 C3891 0.929 . S
H3880 C3894 0.930 . S
H3881 C3896 0.960 . S
H3882 C3896 0.960 . S
H3883 C3896 0.960 . S
C3884 H3876 0.929 . S
C3884 C3885 1.377 . S
C3884 C3886 1.384 . S
C3885 C3884 1.377 . S
C3885 C3891 1.390 . S
C3886 H3877 0.930 . S
C3886 C3884 1.384 . S
C3886 C3887 1.372 . S
C3887 C3886 1.372 . S
C3887 C3888 1.400 . S
C3887 C3892 1.490 . S
C3888 H3878 0.930 . S
C3888 C3887 1.400 . S
C3888 C3891 1.386 . S
H3889 C3905 0.930 . S
H3890 C3906 0.931 . S
C3891 H3879 0.929 . S
C3891 C3885 1.390 . S
C3891 C3888 1.386 . S
C3892 C3887 1.490 . S
C3892 C3894 1.395 . S
C3892 C3895 1.403 . S
H3893 C3899 0.930 . S
C3894 H3880 0.930 . S
C3894 C3892 1.395 . S
C3894 C3897 1.403 . S
C3895 C3892 1.403 . S
C3895 C3896 1.524 . S
C3895 C3899 1.400 . S
C3896 H3881 0.960 . S
C3896 H3882 0.960 . S
C3896 H3883 0.960 . S
C3896 C3895 1.524 . S
C3897 C3894 1.403 . S
C3897 C3898 1.392 . S
C3897 C3901 1.495 . S
C3898 C3897 1.392 . S
C3898 C3899 1.385 . S
C3898 C3900 1.478 . S
C3899 H3893 0.930 . S
C3899 C3895 1.400 . S
C3899 C3898 1.385 . S
C3900 C3898 1.478 . S
C3900 C3902 1.381 . S
C3900 C3906 1.383 . S
C3901 C3897 1.495 . S
C3901 H3907 0.959 . S
C3901 H3908 0.961 . S
C3901 H3909 0.960 . S
C3902 C3900 1.381 . S
C3902 C3903 1.394 . S
C3902 H3910 0.930 . S
C3903 C3902 1.394 . S
C3903 C3904 1.383 . S
C3903 H3911 0.929 . S
C3904 C3903 1.383 . S
C3904 C3905 1.377 . S
C3905 H3889 0.930 . S
C3905 C3904 1.377 . S
C3905 C3906 1.379 . S
C3906 H3890 0.931 . S
C3906 C3900 1.383 . S
C3906 C3905 1.379 . S
H3907 C3901 0.959 . S
H3908 C3901 0.961 . S
H3909 C3901 0.960 . S
H3910 C3902 0.930 . S
H3911 C3903 0.929 . S
H3912 C3920 0.929 . S
H3913 C3922 0.930 . S
H3914 C3924 0.930 . S
H3915 C3927 0.929 . S
H3916 C3930 0.930 . S
H3917 C3932 0.960 . S
H3918 C3932 0.960 . S
H3919 C3932 0.960 . S
C3920 H3912 0.929 . S
C3920 C3921 1.377 . S
C3920 C3922 1.384 . S
C3921 C3920 1.377 . S
C3921 C3927 1.390 . S
C3922 H3913 0.930 . S
C3922 C3920 1.384 . S
C3922 C3923 1.372 . S
C3923 C3922 1.372 . S
C3923 C3924 1.400 . S
C3923 C3928 1.490 . S
C3924 H3914 0.930 . S
C3924 C3923 1.400 . S
C3924 C3927 1.386 . S
H3925 C3941 0.930 . S
H3926 C3942 0.931 . S
C3927 H3915 0.929 . S
C3927 C3921 1.390 . S
C3927 C3924 1.386 . S
C3928 C3923 1.490 . S
C3928 C3930 1.395 . S
C3928 C3931 1.403 . S
H3929 C3935 0.930 . S
C3930 H3916 0.930 . S
C3930 C3928 1.395 . S
C3930 C3933 1.403 . S
C3931 C3928 1.403 . S
C3931 C3932 1.524 . S
C3931 C3935 1.400 . S
C3932 H3917 0.960 . S
C3932 H3918 0.960 . S
C3932 H3919 0.960 . S
C3932 C3931 1.524 . S
C3933 C3930 1.403 . S
C3933 C3934 1.392 . S
C3933 C3937 1.495 . S
C3934 C3933 1.392 . S
C3934 C3935 1.385 . S
C3934 C3936 1.478 . S
C3935 H3929 0.930 . S
C3935 C3931 1.400 . S
C3935 C3934 1.385 . S
C3936 C3934 1.478 . S
C3936 C3938 1.381 . S
C3936 C3942 1.383 . S
C3937 C3933 1.495 . S
C3937 H3943 0.959 . S
C3937 H3944 0.961 . S
C3937 H3945 0.960 . S
C3938 C3936 1.381 . S
C3938 C3939 1.394 . S
C3938 H3946 0.930 . S
C3939 C3938 1.394 . S
C3939 C3940 1.383 . S
C3939 H3947 0.929 . S
C3940 C3939 1.383 . S
C3940 C3941 1.377 . S
C3941 H3925 0.930 . S
C3941 C3940 1.377 . S
C3941 C3942 1.379 . S
C3942 H3926 0.931 . S
C3942 C3936 1.383 . S
C3942 C3941 1.379 . S
H3943 C3937 0.959 . S
H3944 C3937 0.961 . S
H3945 C3937 0.960 . S
H3946 C3938 0.930 . S
H3947 C3939 0.929 . S
H3948 C3956 0.929 . S
H3949 C3958 0.930 . S
H3950 C3960 0.930 . S
H3951 C3963 0.929 . S
H3952 C3966 0.930 . S
H3953 C3968 0.960 . S
H3954 C3968 0.960 . S
H3955 C3968 0.960 . S
C3956 H3948 0.929 . S
C3956 C3957 1.377 . S
C3956 C3958 1.384 . S
C3957 C3956 1.377 . S
C3957 C3963 1.390 . S
C3958 H3949 0.930 . S
C3958 C3956 1.384 . S
C3958 C3959 1.372 . S
C3959 C3958 1.372 . S
C3959 C3960 1.400 . S
C3959 C3964 1.490 . S
C3960 H3950 0.930 . S
C3960 C3959 1.400 . S
C3960 C3963 1.386 . S
H3961 C3977 0.930 . S
H3962 C3978 0.931 . S
C3963 H3951 0.929 . S
C3963 C3957 1.390 . S
C3963 C3960 1.386 . S
C3964 C3959 1.490 . S
C3964 C3966 1.395 . S
C3964 C3967 1.403 . S
H3965 C3971 0.930 . S
C3966 H3952 0.930 . S
C3966 C3964 1.395 . S
C3966 C3969 1.403 . S
C3967 C3964 1.403 . S
C3967 C3968 1.524 . S
C3967 C3971 1.400 . S
C3968 H3953 0.960 . S
C3968 H3954 0.960 . S
C3968 H3955 0.960 . S
C3968 C3967 1.524 . S
C3969 C3966 1.403 . S
C3969 C3970 1.392 . S
C3969 C3973 1.495 . S
C3970 C3969 1.392 . S
C3970 C3971 1.385 . S
C3970 C3972 1.478 . S
C3971 H3965 0.930 . S
C3971 C3967 1.400 . S
C3971 C3970 1.385 . S
C3972 C3970 1.478 . S
C3972 C3974 1.381 . S
C3972 C3978 1.383 . S
C3973 C3969 1.495 . S
C3973 H3979 0.959 . S
C3973 H3980 0.961 . S
C3973 H3981 0.960 . S
C3974 C3972 1.381 . S
C3974 C3975 1.394 . S
C3974 H3982 0.930 . S
C3975 C3974 1.394 . S
C3975 C3976 1.383 . S
C3975 H3983 0.929 . S
C3976 C3975 1.383 . S
C3976 C3977 1.377 . S
C3977 H3961 0.930 . S
C3977 C3976 1.377 . S
C3977 C3978 1.379 . S
C3978 H3962 0.931 . S
C3978 C3972 1.383 . S
C3978 C3977 1.379 . S
H3979 C3973 0.959 . S
H3980 C3973 0.961 . S
H3981 C3973 0.960 . S
H3982 C3974 0.930 . S
H3983 C3975 0.929 . S
H3984 C3992 0.929 . S
H3985 C3994 0.930 . S
H3986 C3996 0.930 . S
H3987 C3999 0.929 . S
H3988 C4002 0.930 . S
H3989 C4004 0.960 . S
H3990 C4004 0.960 . S
H3991 C4004 0.960 . S
C3992 H3984 0.929 . S
C3992 C3993 1.377 . S
C3992 C3994 1.384 . S
C3993 C3992 1.377 . S
C3993 C3999 1.390 . S
C3994 H3985 0.930 . S
C3994 C3992 1.384 . S
C3994 C3995 1.372 . S
C3995 C3994 1.372 . S
C3995 C3996 1.400 . S
C3995 C4000 1.490 . S
C3996 H3986 0.930 . S
C3996 C3995 1.400 . S
C3996 C3999 1.386 . S
H3997 C4013 0.930 . S
H3998 C4014 0.931 . S
C3999 H3987 0.929 . S
C3999 C3993 1.390 . S
C3999 C3996 1.386 . S
C4000 C3995 1.490 . S
C4000 C4002 1.395 . S
C4000 C4003 1.403 . S
H4001 C4007 0.930 . S
C4002 H3988 0.930 . S
C4002 C4000 1.395 . S
C4002 C4005 1.403 . S
C4003 C4000 1.403 . S
C4003 C4004 1.524 . S
C4003 C4007 1.400 . S
C4004 H3989 0.960 . S
C4004 H3990 0.960 . S
C4004 H3991 0.960 . S
C4004 C4003 1.524 . S
C4005 C4002 1.403 . S
C4005 C4006 1.392 . S
C4005 C4009 1.495 . S
C4006 C4005 1.392 . S
C4006 C4007 1.385 . S
C4006 C4008 1.478 . S
C4007 H4001 0.930 . S
C4007 C4003 1.400 . S
C4007 C4006 1.385 . S
C4008 C4006 1.478 . S
C4008 C4010 1.381 . S
C4008 C4014 1.383 . S
C4009 C4005 1.495 . S
C4009 H4015 0.959 . S
C4009 H4016 0.961 . S
C4009 H4017 0.960 . S
C4010 C4008 1.381 . S
C4010 C4011 1.394 . S
C4010 H4018 0.930 . S
C4011 C4010 1.394 . S
C4011 C4012 1.383 . S
C4011 H4019 0.929 . S
C4012 C4011 1.383 . S
C4012 C4013 1.377 . S
C4013 H3997 0.930 . S
C4013 C4012 1.377 . S
C4013 C4014 1.379 . S
C4014 H3998 0.931 . S
C4014 C4008 1.383 . S
C4014 C4013 1.379 . S
H4015 C4009 0.959 . S
H4016 C4009 0.961 . S
H4017 C4009 0.960 . S
H4018 C4010 0.930 . S
H4019 C4011 0.929 . S
H4020 C4028 0.929 . S
H4021 C4030 0.930 . S
H4022 C4032 0.930 . S
H4023 C4035 0.929 . S
H4024 C4038 0.930 . S
H4025 C4040 0.960 . S
H4026 C4040 0.960 . S
H4027 C4040 0.960 . S
C4028 H4020 0.929 . S
C4028 C4029 1.377 . S
C4028 C4030 1.384 . S
C4029 C4028 1.377 . S
C4029 C4035 1.390 . S
C4030 H4021 0.930 . S
C4030 C4028 1.384 . S
C4030 C4031 1.372 . S
C4031 C4030 1.372 . S
C4031 C4032 1.400 . S
C4031 C4036 1.490 . S
C4032 H4022 0.930 . S
C4032 C4031 1.400 . S
C4032 C4035 1.386 . S
H4033 C4049 0.930 . S
H4034 C4050 0.931 . S
C4035 H4023 0.929 . S
C4035 C4029 1.390 . S
C4035 C4032 1.386 . S
C4036 C4031 1.490 . S
C4036 C4038 1.395 . S
C4036 C4039 1.403 . S
H4037 C4043 0.930 . S
C4038 H4024 0.930 . S
C4038 C4036 1.395 . S
C4038 C4041 1.403 . S
C4039 C4036 1.403 . S
C4039 C4040 1.524 . S
C4039 C4043 1.400 . S
C4040 H4025 0.960 . S
C4040 H4026 0.960 . S
C4040 H4027 0.960 . S
C4040 C4039 1.524 . S
C4041 C4038 1.403 . S
C4041 C4042 1.392 . S
C4041 C4045 1.495 . S
C4042 C4041 1.392 . S
C4042 C4043 1.385 . S
C4042 C4044 1.478 . S
C4043 H4037 0.930 . S
C4043 C4039 1.400 . S
C4043 C4042 1.385 . S
C4044 C4042 1.478 . S
C4044 C4046 1.381 . S
C4044 C4050 1.383 . S
C4045 C4041 1.495 . S
C4045 H4051 0.959 . S
C4045 H4052 0.961 . S
C4045 H4053 0.960 . S
C4046 C4044 1.381 . S
C4046 C4047 1.394 . S
C4046 H4054 0.930 . S
C4047 C4046 1.394 . S
C4047 C4048 1.383 . S
C4047 H4055 0.929 . S
C4048 C4047 1.383 . S
C4048 C4049 1.377 . S
C4049 H4033 0.930 . S
C4049 C4048 1.377 . S
C4049 C4050 1.379 . S
C4050 H4034 0.931 . S
C4050 C4044 1.383 . S
C4050 C4049 1.379 . S
H4051 C4045 0.959 . S
H4052 C4045 0.961 . S
H4053 C4045 0.960 . S
H4054 C4046 0.930 . S
H4055 C4047 0.929 . S
H4056 C4064 0.929 . S
H4057 C4066 0.930 . S
H4058 C4068 0.930 . S
H4059 C4071 0.929 . S
H4060 C4074 0.930 . S
H4061 C4076 0.960 . S
H4062 C4076 0.960 . S
H4063 C4076 0.960 . S
C4064 H4056 0.929 . S
C4064 C4065 1.377 . S
C4064 C4066 1.384 . S
C4065 C4064 1.377 . S
C4065 C4071 1.390 . S
C4066 H4057 0.930 . S
C4066 C4064 1.384 . S
C4066 C4067 1.372 . S
C4067 C4066 1.372 . S
C4067 C4068 1.400 . S
C4067 C4072 1.490 . S
C4068 H4058 0.930 . S
C4068 C4067 1.400 . S
C4068 C4071 1.386 . S
H4069 C4085 0.930 . S
H4070 C4086 0.931 . S
C4071 H4059 0.929 . S
C4071 C4065 1.390 . S
C4071 C4068 1.386 . S
C4072 C4067 1.490 . S
C4072 C4074 1.395 . S
C4072 C4075 1.403 . S
H4073 C4079 0.930 . S
C4074 H4060 0.930 . S
C4074 C4072 1.395 . S
C4074 C4077 1.403 . S
C4075 C4072 1.403 . S
C4075 C4076 1.524 . S
C4075 C4079 1.400 . S
C4076 H4061 0.960 . S
C4076 H4062 0.960 . S
C4076 H4063 0.960 . S
C4076 C4075 1.524 . S
C4077 C4074 1.403 . S
C4077 C4078 1.392 . S
C4077 C4081 1.495 . S
C4078 C4077 1.392 . S
C4078 C4079 1.385 . S
C4078 C4080 1.478 . S
C4079 H4073 0.930 . S
C4079 C4075 1.400 . S
C4079 C4078 1.385 . S
C4080 C4078 1.478 . S
C4080 C4082 1.381 . S
C4080 C4086 1.383 . S
C4081 C4077 1.495 . S
C4081 H4087 0.959 . S
C4081 H4088 0.961 . S
C4081 H4089 0.960 . S
C4082 C4080 1.381 . S
C4082 C4083 1.394 . S
C4082 H4090 0.930 . S
C4083 C4082 1.394 . S
C4083 C4084 1.383 . S
C4083 H4091 0.929 . S
C4084 C4083 1.383 . S
C4084 C4085 1.377 . S
C4085 H4069 0.930 . S
C4085 C4084 1.377 . S
C4085 C4086 1.379 . S
C4086 H4070 0.931 . S
C4086 C4080 1.383 . S
C4086 C4085 1.379 . S
H4087 C4081 0.959 . S
H4088 C4081 0.961 . S
H4089 C4081 0.960 . S
H4090 C4082 0.930 . S
H4091 C4083 0.929 . S
H4092 C4100 0.929 . S
H4093 C4102 0.930 . S
H4094 C4104 0.930 . S
H4095 C4107 0.929 . S
H4096 C4110 0.930 . S
H4097 C4112 0.960 . S
H4098 C4112 0.960 . S
H4099 C4112 0.960 . S
C4100 H4092 0.929 . S
C4100 C4101 1.377 . S
C4100 C4102 1.384 . S
C4101 C4100 1.377 . S
C4101 C4107 1.390 . S
C4102 H4093 0.930 . S
C4102 C4100 1.384 . S
C4102 C4103 1.372 . S
C4103 C4102 1.372 . S
C4103 C4104 1.400 . S
C4103 C4108 1.490 . S
C4104 H4094 0.930 . S
C4104 C4103 1.400 . S
C4104 C4107 1.386 . S
H4105 C4121 0.930 . S
H4106 C4122 0.931 . S
C4107 H4095 0.929 . S
C4107 C4101 1.390 . S
C4107 C4104 1.386 . S
C4108 C4103 1.490 . S
C4108 C4110 1.395 . S
C4108 C4111 1.403 . S
H4109 C4115 0.930 . S
C4110 H4096 0.930 . S
C4110 C4108 1.395 . S
C4110 C4113 1.403 . S
C4111 C4108 1.403 . S
C4111 C4112 1.524 . S
C4111 C4115 1.400 . S
C4112 H4097 0.960 . S
C4112 H4098 0.960 . S
C4112 H4099 0.960 . S
C4112 C4111 1.524 . S
C4113 C4110 1.403 . S
C4113 C4114 1.392 . S
C4113 C4117 1.495 . S
C4114 C4113 1.392 . S
C4114 C4115 1.385 . S
C4114 C4116 1.478 . S
C4115 H4109 0.930 . S
C4115 C4111 1.400 . S
C4115 C4114 1.385 . S
C4116 C4114 1.478 . S
C4116 C4118 1.381 . S
C4116 C4122 1.383 . S
C4117 C4113 1.495 . S
C4117 H4123 0.959 . S
C4117 H4124 0.961 . S
C4117 H4125 0.960 . S
C4118 C4116 1.381 . S
C4118 C4119 1.394 . S
C4118 H4126 0.930 . S
C4119 C4118 1.394 . S
C4119 C4120 1.383 . S
C4119 H4127 0.929 . S
C4120 C4119 1.383 . S
C4120 C4121 1.377 . S
C4121 H4105 0.930 . S
C4121 C4120 1.377 . S
C4121 C4122 1.379 . S
C4122 H4106 0.931 . S
C4122 C4116 1.383 . S
C4122 C4121 1.379 . S
H4123 C4117 0.959 . S
H4124 C4117 0.961 . S
H4125 C4117 0.960 . S
H4126 C4118 0.930 . S
H4127 C4119 0.929 . S
C681 C445 1.336 . S
C700 C11 1.329 . S
C717 C25 1.335 . S
C736 C403 1.327 . S
C753 C39 1.334 . S
C772 C417 1.328 . S
C789 C431 1.336 . S
C808 C53 1.338 . S
C825 C361 1.334 . S
C844 C67 1.333 . S
C861 C81 1.335 . S
C880 C375 1.338 . S
C897 C389 1.334 . S
C916 C95 1.328 . S
C933 C109 1.336 . S
C952 C347 1.329 . S
C969 C123 1.335 . S
C988 C627 1.327 . S
C1005 C585 1.336 . S
C1024 C137 1.328 . S
C1041 C599 1.336 . S
C1060 C151 1.338 . S
C1077 C165 1.334 . S
C1096 C613 1.328 . S
C1113 C179 1.336 . S
C1132 C669 1.331 . S
C1149 C193 1.335 . S
C1168 C641 1.336 . S
C1185 C207 1.336 . S
C1204 C655 1.332 . S
C1221 C571 1.336 . S
C1240 C221 1.328 . S
C1257 C557 1.336 . S
C1276 C235 1.338 . S
C1293 C249 1.336 . S
C1312 C473 1.338 . S
C1329 C487 1.336 . S
C1348 C263 1.338 . S
C1365 C277 1.336 . S
C1384 C501 1.328 . S
C1401 C459 1.335 . S
C1420 C291 1.327 . S
C1437 C529 1.336 . S
C1456 C305 1.338 . S
C1473 C319 1.334 . S
C1492 C543 1.328 . S
C1509 C515 1.336 . S
C1528 C333 1.329 . S
C1545 C135 1.231 . S
C1564 C9 1.240 . S
C1581 C149 1.237 . S
C1600 C23 1.218 . S
C1617 C37 1.236 . S
C1636 C163 1.225 . S
C1653 C121 1.235 . S
C1672 C51 1.219 . S
C1689 C65 1.236 . S
C1708 C219 1.218 . S
C1725 C177 1.234 . S
C1744 C79 1.222 . S
C1761 C191 1.234 . S
C1780 C93 1.223 . S
C1797 C205 1.237 . S
C1816 C107 1.224 . S
C1833 C261 1.234 . S
C1852 C233 1.223 . S
C1869 C317 1.236 . S
C1888 C247 1.218 . S
C1905 C331 1.234 . S
C1924 C275 1.223 . S
C1941 C289 1.236 . S
C1960 C303 1.219 . S
C1977 C471 1.233 . S
C1996 C345 1.230 . S
C2013 C485 1.235 . S
C2032 C359 1.219 . S
C2049 C499 1.231 . S
C2068 C373 1.242 . S
C2085 C387 1.237 . S
C2104 C457 1.218 . S
C2121 C401 1.236 . S
C2140 C555 1.229 . S
C2157 C415 1.235 . S
C2176 C513 1.233 . S
C2193 C527 1.236 . S
C2212 C429 1.218 . S
C2229 C541 1.233 . S
C2248 C443 1.242 . S
C2265 C569 1.237 . S
C2284 C597 1.223 . S
C2301 C653 1.232 . S
C2320 C583 1.235 . S
C2337 C667 1.236 . S
C2356 C611 1.231 . S
C2373 C639 1.237 . S
C2392 C625 1.225 . S
C2409 C0 1.404 . S
C2428 C257 1.395 1_554 S
C2445 C14 1.402 . S
C2464 C271 1.410 1_554 S
C2481 C28 1.402 . S
C2500 C285 1.410 1_554 S
C2517 C243 1.401 1_554 S
C2536 C42 1.410 . S
C2553 C56 1.405 . S
C2572 C313 1.392 1_556 S
C2589 C70 1.405 . S
C2608 C229 1.392 1_556 S
C2625 C327 1.404 1_556 S
C2644 C84 1.394 . S
C2661 C299 1.405 1_556 S
C2680 C98 1.392 . S
C2697 C112 1.404 . S
C2716 C131 1.393 1_455 S
C2733 C126 1.403 . S
C2752 C145 1.406 1_545 S
C2769 C140 1.404 . S
C2788 C159 1.397 1_655 S
C2805 C117 1.405 1_565 S
C2824 C154 1.391 . S
C2841 C215 1.401 1_455 S
C2860 C168 1.410 . S
C2877 C173 1.405 1_545 S
C2896 C182 1.391 . S
C2913 C187 1.404 1_655 S
C2932 C196 1.398 . S
C2949 C210 1.404 . S
C2968 C201 1.393 1_565 S
C2985 C47 1.402 1_545 S
C3004 C224 1.404 . S
C3021 C75 1.405 1_565 S
C3040 C238 1.392 . S
C3057 C89 1.402 1_455 S
C3076 C252 1.407 . S
C3093 C266 1.403 . S
C3112 C103 1.405 1_545 S
C3129 C61 1.401 1_655 S
C3148 C280 1.410 . S
C3165 C19 1.404 1_565 S
C3184 C294 1.398 . S
C3201 C33 1.405 1_455 S
C3220 C308 1.392 . S
C3237 C5 1.405 1_655 S
C3256 C322 1.391 . S
C3273 C593 1.402 . S
C3292 C336 1.407 . S
C3309 C350 1.405 . S
C3328 C607 1.389 . S
C3345 C621 1.404 . S
C3364 C364 1.392 . S
C3381 C579 1.404 . S
C3400 C378 1.396 . S
C3417 C392 1.405 . S
C3436 C649 1.391 . S
C3453 C406 1.402 . S
C3472 C565 1.408 . S
C3489 C663 1.401 . S
C3508 C420 1.408 . S
C3525 C434 1.406 . S
C3544 C635 1.390 . S
C3561 C448 1.404 . S
C3580 C467 1.402 . S
C3597 C462 1.403 . S
C3616 C481 1.406 . S
C3633 C476 1.402 . S
C3652 C495 1.404 . S
C3669 C490 1.404 . S
C3688 C453 1.400 . S
C3705 C551 1.401 . S
C3724 C504 1.409 . S
C3741 C509 1.404 . S
C3760 C518 1.395 . S
C3777 C523 1.401 . S
C3796 C532 1.410 . S
C3813 C546 1.405 . S
C3832 C537 1.393 . S
C3849 C383 1.402 . S
C3868 C560 1.405 . S
C3885 C411 1.401 . S
C3904 C574 1.410 . S
C3921 C425 1.403 . S
C3940 C588 1.398 . S
C3957 C602 1.405 . S
C3976 C439 1.392 . S
C3993 C397 1.401 . S
C4012 C616 1.410 . S
C4029 C355 1.401 . S
C4048 C630 1.410 . S
C4065 C644 1.403 . S
C4084 C369 1.407 . S
C4101 C341 1.405 . S
C4120 C658 1.393 . S
