# Generated by pormake.
# Topology tsi, (8)-cn, num edge types: 1
# Building blocks:
#     Node 0, Type 0, BuildingBlock: AJUNOK_clean_sbu_0, # of connection points: 8
#     Node 1, Type 0, BuildingBlock: AJUNOK_clean_sbu_0, # of connection points: 8
#     Node 2, Type 0, BuildingBlock: AJUNOK_clean_sbu_0, # of connection points: 8
#     Node 3, Type 0, BuildingBlock: AJUNOK_clean_sbu_0, # of connection points: 8
#     Edge 4, Type (0, 0), BuildingBlock: UVAHIK_clean_linker_0, # of connection points: 2
#     Edge 5, Type (0, 0), BuildingBlock: UVAHIK_clean_linker_0, # of connection points: 2
#     Edge 6, Type (0, 0), BuildingBlock: UVAHIK_clean_linker_0, # of connection points: 2
#     Edge 7, Type (0, 0), BuildingBlock: UVAHIK_clean_linker_0, # of connection points: 2
#     Edge 8, Type (0, 0), BuildingBlock: UVAHIK_clean_linker_0, # of connection points: 2
#     Edge 9, Type (0, 0), BuildingBlock: UVAHIK_clean_linker_0, # of connection points: 2
#     Edge 10, Type (0, 0), BuildingBlock: UVAHIK_clean_linker_0, # of connection points: 2
#     Edge 11, Type (0, 0), BuildingBlock: UVAHIK_clean_linker_0, # of connection points: 2
#     Edge 12, Type (0, 0), BuildingBlock: UVAHIK_clean_linker_0, # of connection points: 2
#     Edge 13, Type (0, 0), BuildingBlock: UVAHIK_clean_linker_0, # of connection points: 2
#     Edge 14, Type (0, 0), BuildingBlock: UVAHIK_clean_linker_0, # of connection points: 2
#     Edge 15, Type (0, 0), BuildingBlock: UVAHIK_clean_linker_0, # of connection points: 2
#     Edge 16, Type (0, 0), BuildingBlock: UVAHIK_clean_linker_0, # of connection points: 2
#     Edge 17, Type (0, 0), BuildingBlock: UVAHIK_clean_linker_0, # of connection points: 2
#     Edge 18, Type (0, 0), BuildingBlock: UVAHIK_clean_linker_0, # of connection points: 2
#     Edge 19, Type (0, 0), BuildingBlock: UVAHIK_clean_linker_0, # of connection points: 2
# Relax obj value: 0.176
# Max RMSD: 0.228
# Mean RMSD: 0.228
data_MOF--net-tsi--node1-AJUNOK_clean_sbu_0--edge1-UVAHIK_clean_linker_0
_symmetry_space_group_name_H-M    P1
_symmetry_Int_Tables_number       1
_symmetry_cell_setting            triclinic
loop_
_symmetry_equiv_pos_as_xyz
'x, y, z'
_cell_length_a     19.89723
_cell_length_b     19.92066
_cell_length_c     91.351655
_cell_angle_alpha  90.240445
_cell_angle_beta   89.449514
_cell_angle_gamma 89.786584
loop_
_atom_site_label
_atom_site_type_symbol
_atom_site_fract_x
_atom_site_fract_y
_atom_site_fract_z
_atom_type_partial_charge
Cd0 Cd 0.05087 0.18399 0.40823 0.0
Cd1 Cd 0.03274 0.34962 0.38653 0.0
C2 C 0.13725 0.13071 0.38091 0.0
N3 N 0.07587 0.15928 0.38335 0.0
C4 C 0.06081 0.1731 0.35757 0.0
C5 C 0.12649 0.14928 0.35484 0.0
C6 C 0.16389 0.12586 0.36675 0.0
C7 C 0.03657 0.17817 0.37196 0.0
H8 H 0.16783 0.11607 0.39008 0.0
H9 H 0.98767 0.19984 0.37399 0.0
C10 C 0.89663 0.23848 0.39547 0.0
C11 C 0.95734 0.36844 0.41874 0.0
C12 C 0.95116 0.38754 0.43344 0.0
C13 C 0.0084 0.40701 0.44126 0.0
C14 C 0.07085 0.40631 0.43398 0.0
C15 C 0.07471 0.38697 0.41929 0.0
N16 N 0.01873 0.3673 0.41201 0.0
H17 H 0.91258 0.35683 0.41268 0.0
H18 H 0.12232 0.39 0.41354 0.0
C19 C 0.91707 0.37515 0.36236 0.0
N20 N 0.98263 0.35651 0.36345 0.0
C21 C 0.9902 0.33995 0.33753 0.0
C22 C 0.9217 0.3561 0.33612 0.0
C23 C 0.8853 0.37473 0.34877 0.0
C24 C 0.01975 0.34045 0.35138 0.0
H25 H 0.88924 0.38979 0.37208 0.0
H26 H 0.0721 0.32703 0.35258 0.0
C27 C 0.17193 0.27322 0.39456 0.0
C28 C 0.10885 0.06717 0.42047 0.0
N29 N 0.02539 0.22592 0.43168 0.0
C30 C 0.07979 0.23735 0.44021 0.0
C31 C 0.07321 0.23918 0.45544 0.0
C32 C 0.00996 0.22884 0.46203 0.0
C33 C 0.95374 0.22306 0.45285 0.0
C34 C 0.96274 0.22061 0.43764 0.0
C35 C 0.08796 0.47843 0.38686 0.0
O36 O 0.92964 0.19383 0.40232 0.0
O37 O 0.92625 0.28922 0.39004 0.0
O38 O 0.13759 0.28474 0.38318 0.0
O39 O 0.14188 0.26638 0.40676 0.0
O40 O 0.04744 0.06759 0.41676 0.0
O41 O 0.14216 0.11992 0.41812 0.0
O42 O 0.12247 0.4278 0.38288 0.0
O43 O 0.02522 0.46981 0.38891 0.0
H44 H 0.12936 0.23911 0.43528 0.0
H45 H 0.92039 0.20963 0.43072 0.0
H46 H 0.02918 0.18982 0.34871 0.0
H47 H 0.21486 0.10764 0.36532 0.0
H48 H 0.90189 0.38769 0.43858 0.0
H49 H 0.11601 0.42297 0.43941 0.0
H50 H 0.02017 0.32538 0.32809 0.0
H51 H 0.83284 0.38906 0.34818 0.0
H52 H 0.1183 0.24286 0.46192 0.0
H53 H 0.90379 0.21605 0.45738 0.0
Cd54 Cd 0.04953 0.74396 0.64444 0.0
Cd55 Cd 0.83012 0.7311 0.63541 0.0
C56 C 0.08915 0.88518 0.6271 0.0
N57 N 0.0679 0.82094 0.62499 0.0
C58 C 0.06036 0.83966 0.59919 0.0
C59 C 0.0785 0.90703 0.60108 0.0
C60 C 0.09344 0.92982 0.61527 0.0
C61 C 0.05494 0.79772 0.6113 0.0
H62 H 0.10172 0.90204 0.63799 0.0
H63 H 0.03923 0.74666 0.60971 0.0
C64 C 0.93489 0.60309 0.64989 0.0
C65 C 0.77204 0.68103 0.66633 0.0
C66 C 0.75026 0.67986 0.68091 0.0
C67 C 0.75172 0.7389 0.68938 0.0
C68 C 0.77564 0.79791 0.68278 0.0
C69 C 0.79748 0.79669 0.66818 0.0
N70 N 0.79576 0.73865 0.66026 0.0
H71 H 0.76988 0.63564 0.65982 0.0
H72 H 0.81492 0.84257 0.66327 0.0
C73 C 0.92793 0.65306 0.61201 0.0
N74 N 0.90004 0.71431 0.61486 0.0
C75 C 0.91934 0.74783 0.59003 0.0
C76 C 0.94698 0.6844 0.58673 0.0
C77 C 0.95281 0.63749 0.59807 0.0
C78 C 0.89607 0.76176 0.60423 0.0
H79 H 0.92722 0.61425 0.62016 0.0
H80 H 0.87124 0.80904 0.60657 0.0
C81 C 0.91494 0.87597 0.6422 0.0
C82 C 0.13171 0.65998 0.6272 0.0
N83 N 0.09965 0.76707 0.66696 0.0
C84 C 0.08222 0.82392 0.67437 0.0
C85 C 0.10863 0.83683 0.68823 0.0
C86 C 0.15326 0.79061 0.69457 0.0
C87 C 0.17083 0.73263 0.68654 0.0
C88 C 0.14317 0.72174 0.67272 0.0
C89 C 0.71026 0.69827 0.62023 0.0
O90 O 0.98936 0.63647 0.65043 0.0
O91 O 0.88179 0.6298 0.64497 0.0
O92 O 0.85972 0.85012 0.63819 0.0
O93 O 0.96668 0.8387 0.64365 0.0
O94 O 0.06811 0.65591 0.62658 0.0
O95 O 0.15696 0.70217 0.63611 0.0
O96 O 0.73375 0.75729 0.6196 0.0
O97 O 0.73966 0.65752 0.62861 0.0
H98 H 0.047 0.85878 0.66961 0.0
H99 H 0.15547 0.67646 0.66667 0.0
H100 H 0.0484 0.81992 0.58847 0.0
H101 H 0.10858 0.98126 0.61716 0.0
H102 H 0.73301 0.63289 0.6855 0.0
H103 H 0.77649 0.84501 0.68873 0.0
H104 H 0.91394 0.78562 0.58163 0.0
H105 H 0.97204 0.58739 0.59598 0.0
H106 H 0.09415 0.88251 0.69392 0.0
H107 H 0.20417 0.6951 0.69105 0.0
Cd108 Cd 0.47329 0.67339 0.89328 0.0
Cd109 Cd 0.47077 0.88642 0.8964 0.0
C110 C 0.56528 0.7336 0.86676 0.0
N111 N 0.50038 0.71964 0.87045 0.0
C112 C 0.47069 0.71407 0.84514 0.0
C113 C 0.53739 0.72825 0.84101 0.0
C114 C 0.58464 0.73916 0.85208 0.0
C115 C 0.45326 0.7101 0.85996 0.0
H116 H 0.6034 0.73591 0.87502 0.0
H117 H 0.40276 0.69591 0.8631 0.0
C118 C 0.33345 0.7795 0.90346 0.0
C119 C 0.40866 0.96895 0.92429 0.0
C120 C 0.40385 -0.00474 0.9385 0.0
C121 C 0.45284 0.97867 0.9489 0.0
C122 C 0.50561 0.93555 0.9446 0.0
C123 C 0.50853 0.91058 0.9303 0.0
N124 N 0.46058 0.92762 0.92046 0.0
H125 H 0.37106 0.98165 0.91628 0.0
H126 H 0.54952 0.87795 0.92702 0.0
C127 C 0.36851 0.84902 0.86903 0.0
N128 N 0.43412 0.86136 0.8722 0.0
C129 C 0.45889 0.87583 0.84662 0.0
C130 C 0.39191 0.86121 0.84302 0.0
C131 C 0.34677 0.84713 0.85453 0.0
C132 C 0.47901 0.87489 0.86125 0.0
H133 H 0.33187 0.84274 0.87764 0.0
H134 H 0.53046 0.8867 0.86389 0.0
C135 C 0.60961 0.77378 0.90334 0.0
C136 C 0.46833 0.55961 0.87507 0.0
N137 N 0.48126 0.61724 0.91563 0.0
C138 C 0.53835 0.58295 0.91892 0.0
C139 C 0.54381 0.54959 0.9323 0.0
C140 C 0.48991 0.55148 0.94237 0.0
C141 C 0.43134 0.58671 0.93854 0.0
C142 C 0.42808 0.61934 0.92507 0.0
C143 C 0.49404 0.0102 0.88276 0.0
O144 O 0.36445 0.72595 0.89978 0.0
O145 O 0.36317 0.83593 0.90349 0.0
O146 O 0.57863 0.82885 0.90125 0.0
O147 O 0.57999 0.71789 0.90178 0.0
O148 O 0.41406 0.58384 0.88033 0.0
O149 O 0.5231 0.58266 0.8799 0.0
O150 O 0.54227 0.96995 0.88513 0.0
O151 O 0.43755 -0.00341 0.88859 0.0
H152 H 0.57982 0.58188 0.91117 0.0
H153 H 0.38299 0.64634 0.92215 0.0
H154 H 0.43224 0.70591 0.83703 0.0
H155 H 0.63699 0.74828 0.84946 0.0
H156 H 0.36185 0.02763 0.94136 0.0
H157 H 0.54501 0.92204 0.95215 0.0
H158 H 0.4956 0.88835 0.83826 0.0
H159 H 0.29474 0.83511 0.85244 0.0
H160 H 0.59019 0.52371 0.93483 0.0
H161 H 0.38815 0.58867 0.94584 0.0
Cd162 Cd 0.57497 0.19552 0.13975 0.0
Cd163 Cd 0.40326 0.18957 0.15713 0.0
C164 C 0.58627 0.29766 0.11219 0.0
N165 N 0.58054 0.23152 0.11553 0.0
C166 C 0.56578 0.20329 0.09029 0.0
C167 C 0.56776 0.27162 0.08657 0.0
C168 C 0.57995 0.3189 0.09772 0.0
C169 C 0.57189 0.18431 0.10493 0.0
H170 H 0.59387 0.33418 0.1208 0.0
H171 H 0.56711 0.13206 0.10793 0.0
C172 C 0.48766 0.0661 0.14657 0.0
C173 C 0.4301 0.15133 0.18978 0.0
C174 C 0.4297 0.1542 0.20502 0.0
C175 C 0.43023 0.21674 0.21216 0.0
C176 C 0.43669 0.27496 0.2036 0.0
C177 C 0.43698 0.26977 0.1883 0.0
N178 N 0.43168 0.20853 0.18173 0.0
H179 H 0.42443 0.10334 0.18438 0.0
H180 H 0.43737 0.31495 0.18182 0.0
C181 C 0.36858 0.13129 0.12498 0.0
N182 N 0.39251 0.18922 0.13091 0.0
C183 C 0.40988 0.23433 0.10685 0.0
C184 C 0.39146 0.17289 0.1005 0.0
C185 C 0.36835 0.12173 0.10981 0.0
C186 C 0.40999 0.24142 0.12208 0.0
H187 H 0.35284 0.09083 0.13206 0.0
H188 H 0.42544 0.28849 0.12661 0.0
C189 C 0.47435 0.34083 0.14966 0.0
C190 C 0.68704 0.11026 0.14071 0.0
N191 N 0.60073 0.22929 0.1641 0.0
C192 C 0.62696 0.29118 0.16678 0.0
C193 C 0.64523 0.30994 0.18098 0.0
C194 C 0.63779 0.2642 0.19255 0.0
C195 C 0.61171 0.20041 0.18943 0.0
C196 C 0.59435 0.18373 0.17509 0.0
C197 C 0.28442 0.11954 0.16418 0.0
O198 O 0.49992 0.09959 0.13512 0.0
O199 O 0.48284 0.09738 0.15857 0.0
O200 O 0.42338 0.30994 0.15471 0.0
O201 O 0.52451 0.3084 0.14445 0.0
O202 O 0.62938 0.09367 0.14535 0.0
O203 O 0.69391 0.16923 0.13548 0.0
O204 O 0.28314 0.18346 0.16395 0.0
O205 O 0.33909 0.09114 0.16071 0.0
H206 H 0.63484 0.32585 0.15786 0.0
H207 H 0.57779 0.13347 0.17275 0.0
H208 H 0.55645 0.16511 0.0821 0.0
H209 H 0.58362 0.37196 0.09533 0.0
H210 H 0.4237 0.10796 0.21107 0.0
H211 H 0.43811 0.32421 0.20865 0.0
H212 H 0.42728 0.2757 0.10019 0.0
H213 H 0.35146 0.07412 0.10545 0.0
H214 H 0.66545 0.35961 0.18283 0.0
H215 H 0.60693 0.16275 0.19789 0.0
C216 C 0.05187 0.4158 0.46699 0.0
C217 C 0.00274 0.43201 0.4566 0.0
C218 C 0.04872 0.44299 0.48113 0.0
C219 C 0.97821 0.58787 0.50146 0.0
H220 H 0.017 0.48207 0.5359 0.0
C221 C 0.9186 0.68137 0.56003 0.0
C222 C 0.96267 0.66412 0.57136 0.0
C223 C 0.9282 0.6556 0.54591 0.0
C224 C 0.00704 0.51261 0.52638 0.0
H225 H 0.9114 0.48916 0.45302 0.0
H226 H 0.90544 0.53578 0.47769 0.0
H227 H 0.02258 0.42955 0.51173 0.0
H228 H 0.05331 0.6086 0.57652 0.0
H229 H 0.0704 0.56402 0.55182 0.0
H230 H 0.96246 0.67083 0.51606 0.0
C231 C 0.94677 0.50248 0.47487 0.0
C232 C 0.01006 0.48242 0.51253 0.0
C233 C 0.94971 0.47502 0.46078 0.0
C234 C 0.01799 0.62231 0.56809 0.0
C235 C 0.02762 0.59652 0.55394 0.0
C236 C 0.97531 0.61805 0.51529 0.0
C237 C -0.00333 0.4875 0.48517 0.0
C238 C -0.00495 0.51956 0.49991 0.0
C239 C 0.98216 0.61194 0.54274 0.0
C240 C 0.98911 0.58071 0.52795 0.0
H241 H 0.09313 0.38246 0.46417 0.0
H242 H 0.08808 0.43055 0.48878 0.0
H243 H 0.9677 0.61828 0.49195 0.0
H244 H 0.87477 0.71238 0.5622 0.0
H245 H 0.89165 0.66785 0.53762 0.0
C246 C 0.60536 0.77717 0.82029 0.0
C247 C 0.55798 0.73009 0.82529 0.0
C248 C 0.62452 0.77909 0.80554 0.0
C249 C 0.62529 0.67549 0.77163 0.0
H250 H 0.66282 0.84564 0.75282 0.0
C251 C 0.67298 0.69938 0.7093 0.0
C252 C 0.728 0.739 0.70492 0.0
C253 C 0.65115 0.69892 0.7239 0.0
C254 C 0.65297 0.79772 0.75797 0.0
H255 H 0.49376 0.64794 0.81856 0.0
H256 H 0.5253 0.65289 0.7928 0.0
H257 H 0.62532 0.84407 0.77833 0.0
H258 H 0.80337 0.80889 0.71267 0.0
H259 H 0.76424 0.80903 0.73805 0.0
H260 H 0.65207 0.62938 0.75115 0.0
C261 C 0.54869 0.68758 0.80034 0.0
C262 C 0.63164 0.79674 0.7726 0.0
C263 C 0.52991 0.68532 0.81511 0.0
C264 C 0.76017 0.77862 0.71554 0.0
C265 C 0.73789 0.77861 0.73011 0.0
C266 C 0.646 0.67656 0.75696 0.0
C267 C 0.59653 0.73425 0.79535 0.0
C268 C 0.61782 0.73556 0.77966 0.0
C269 C 0.68332 0.73855 0.73446 0.0
C270 C 0.66036 0.73765 0.74999 0.0
H271 H 0.62719 0.81321 0.82775 0.0
H272 H 0.66202 0.81525 0.80216 0.0
H273 H 0.61635 0.62736 0.77674 0.0
H274 H 0.64603 0.66925 0.70142 0.0
H275 H 0.60838 0.66822 0.72688 0.0
C276 C 0.52647 0.45516 0.9583 0.0
C277 C 0.49504 0.51817 0.95689 0.0
C278 C 0.53185 0.42464 0.97203 0.0
C279 C 0.5303 0.46622 1.01148 0.0
H280 H 0.50258 0.27522 1.01691 0.0
C281 C 0.51653 0.3525 0.06888 0.0
C282 C 0.55442 0.29398 0.07134 0.0
C283 C 0.50606 0.37569 0.05469 0.0
C284 C 0.51101 0.32853 1.01552 0.0
H285 H 0.4449 0.59848 0.96888 0.0
H286 H 0.45307 0.54491 0.99266 0.0
H287 H 0.49143 0.32407 0.99249 0.0
H288 H 0.60823 0.21216 0.06065 0.0
H289 H 0.58955 0.25269 0.0358 0.0
H290 H 0.54994 0.471 0.03441 0.0
C291 C 0.47418 0.51924 0.9832 0.0
C292 C 0.50471 0.35651 1.00154 0.0
C293 C 0.46878 0.54965 0.96951 0.0
C294 C 0.57899 0.25752 0.05917 0.0
C295 C 0.56821 0.28066 0.04492 0.0
C296 C 0.53647 0.4384 0.02539 0.0
C297 C 0.50617 0.45658 0.98466 0.0
C298 C 0.51388 0.42584 0.99939 0.0
C299 C 0.53288 0.34085 0.04256 0.0
C300 C 0.52651 0.36936 0.02762 0.0
H301 H 0.54662 0.42918 0.94878 0.0
H302 H 0.55722 0.3766 0.97277 0.0
H303 H 0.53921 0.51948 1.01017 0.0
H304 H 0.49477 0.38056 0.07794 0.0
H305 H 0.47711 0.42128 0.05322 0.0
C306 C 0.92114 0.37413 0.30883 0.0
C307 C 0.88818 0.35212 0.32161 0.0
C308 C 0.89023 0.36863 0.29517 0.0
C309 C 0.75871 0.27397 0.27575 0.0
H310 H 0.77489 0.41623 0.24712 0.0
C311 C 0.6238 0.26025 0.21999 0.0
C312 C 0.66066 0.28112 0.20761 0.0
C313 C 0.64754 0.27268 0.23412 0.0
C314 C 0.77037 0.37572 0.25493 0.0
H315 H 0.79671 0.30674 0.32999 0.0
H316 H 0.74257 0.2979 0.30622 0.0
H317 H 0.82436 0.4304 0.27125 0.0
H318 H 0.75155 0.33159 0.20047 0.0
H319 H 0.79305 0.3529 0.22502 0.0
H320 H 0.70564 0.21882 0.25939 0.0
C321 C 0.79254 0.31909 0.30674 0.0
C322 C 0.79876 0.38388 0.26878 0.0
C323 C 0.82332 0.32486 0.3204 0.0
C324 C 0.72126 0.31577 0.20974 0.0
C325 C 0.74511 0.32801 0.22385 0.0
C326 C 0.73049 0.26571 0.26189 0.0
C327 C 0.82569 0.34067 0.29394 0.0
C328 C 0.79366 0.33294 0.27934 0.0
C329 C 0.70892 0.30611 0.23624 0.0
C330 C 0.73632 0.31628 0.25124 0.0
H331 H 0.97085 0.39592 0.30937 0.0
H332 H 0.9175 0.38518 0.28554 0.0
H333 H 0.7546 0.23331 0.28354 0.0
H334 H 0.57654 0.23415 0.21876 0.0
H335 H 0.61769 0.25608 0.24339 0.0
C336 C 0.43785 0.17111 0.23779 0.0
C337 C 0.41447 0.22064 0.22813 0.0
C338 C 0.41202 0.16683 0.25206 0.0
C339 C 0.25814 0.21297 0.27276 0.0
H340 H 0.35861 0.15259 0.30643 0.0
C341 C 0.14402 0.20952 0.33097 0.0
C342 C 0.15788 0.15409 0.33995 0.0
C343 C 0.17662 0.21739 0.3175 0.0
C344 C 0.32978 0.16881 0.29708 0.0
H345 H 0.34881 0.30741 0.22634 0.0
H346 H 0.30598 0.30155 0.2513 0.0
H347 H 0.4171 0.17176 0.28317 0.0
H348 H 0.2165 0.06226 0.34142 0.0
H349 H 0.27402 0.07642 0.31789 0.0
H350 H 0.17096 0.21027 0.28664 0.0
C351 C 0.34284 0.2647 0.24772 0.0
C352 C 0.36331 0.17995 0.28375 0.0
C353 C 0.36836 0.26876 0.23345 0.0
C354 C 0.20502 0.10613 0.33494 0.0
C355 C 0.23809 0.11422 0.32145 0.0
C356 C 0.22479 0.20216 0.28607 0.0
C357 C 0.36245 0.21223 0.25704 0.0
C358 C 0.32789 0.2023 0.27142 0.0
C359 C 0.22447 0.17018 0.31261 0.0
C360 C 0.26014 0.18002 0.29839 0.0
H361 H 0.47417 0.13389 0.23412 0.0
H362 H 0.42846 0.1258 0.2589 0.0
H363 H 0.22881 0.22851 0.26344 0.0
H364 H 0.10948 0.24823 0.33453 0.0
H365 H 0.16559 0.2616 0.31107 0.0
C366 C 0.24657 0.78534 0.71303 0.0
C367 C 0.1797 0.80175 0.70961 0.0
C368 C 0.27066 0.79424 0.72726 0.0
C369 C 0.21212 0.81076 0.76571 0.0
H370 H 0.39162 0.8787 0.77241 0.0
C371 C 0.30345 0.87848 0.8237 0.0
C372 C 0.36935 0.85959 0.82743 0.0
C373 C 0.28138 0.87366 0.80923 0.0
C374 C 0.3416 0.85903 0.77074 0.0
H375 H 0.08579 0.84024 0.71858 0.0
H376 H 0.12807 0.85693 0.74325 0.0
H377 H 0.35134 0.86581 0.74741 0.0
H378 H 0.4639 0.82305 0.81847 0.0
H379 H 0.42552 0.81372 0.79342 0.0
H380 H 0.20236 0.80366 0.789 0.0
C381 C 0.16179 0.83653 0.73497 0.0
C382 C 0.31849 0.85162 0.75639 0.0
C383 C 0.13775 0.82775 0.72076 0.0
C384 C 0.41295 0.83773 0.81614 0.0
C385 C 0.3909 0.83269 0.80169 0.0
C386 C 0.23519 0.81815 0.78004 0.0
C387 C 0.22844 0.81958 0.73844 0.0
C388 C 0.25338 0.82749 0.75369 0.0
C389 C 0.32457 0.84998 0.79806 0.0
C390 C 0.30017 0.84249 0.78275 0.0
H391 H 0.2805 0.76584 0.70469 0.0
H392 H 0.32209 0.78011 0.72955 0.0
H393 H 0.16218 0.79084 0.76406 0.0
H394 H 0.26874 0.89758 0.83192 0.0
H395 H 0.23043 0.88895 0.80679 0.0
C396 C 0.4301 0.07292 0.96686 0.0
C397 C 0.44926 0.0059 0.96413 0.0
C398 C 0.42811 0.09848 0.98118 0.0
C399 C 0.49207 0.06509 1.01855 0.0
H400 H 0.34128 0.17493 0.03142 0.0
C401 C 0.4233 0.09803 0.07933 0.0
C402 C 0.40027 0.16079 0.08445 0.0
C403 C 0.43414 0.08657 0.0644 0.0
C404 C 0.38432 0.14524 0.02796 0.0
H405 H 0.47959 0.91286 0.97445 0.0
H406 H 0.4759 0.95711 0.9993 0.0
H407 H 0.35052 0.14084 1.00577 0.0
H408 H 0.37119 0.26103 0.07768 0.0
H409 H 0.39085 0.24102 0.05157 0.0
H410 H 0.52526 0.06846 0.04076 0.0
C411 C 0.46385 0.9905 0.99037 0.0
C412 C 0.3896 0.12562 1.01324 0.0
C413 C 0.46585 0.96503 0.97609 0.0
C414 C 0.3889 0.21204 0.07418 0.0
C415 C 0.39971 0.20048 0.05919 0.0
C416 C 0.48679 0.08466 0.03324 0.0
C417 C 0.44523 0.05762 0.99312 0.0
C418 C 0.44273 0.08396 1.00843 0.0
C419 C 0.4224 0.13751 0.05413 0.0
C420 C 0.43199 0.12358 0.0382 0.0
H421 H 0.41781 0.10608 0.95791 0.0
H422 H 0.41415 0.15055 0.98288 0.0
H423 H 0.53458 0.03446 1.01517 0.0
H424 H 0.43428 0.0578 0.08689 0.0
H425 H 0.45095 0.03724 0.0609 0.0
C426 C 0.96234 0.16165 0.4829 0.0
C427 C 0.00503 0.21327 0.47801 0.0
C428 C 0.96621 0.13765 0.49722 0.0
C429 C 0.03896 0.16798 0.53419 0.0
H430 H 0.03346 0.97366 0.53592 0.0
C431 C 0.04601 0.01481 0.58863 0.0
C432 C 0.07943 0.9525 0.5882 0.0
C433 C 0.03854 0.05271 0.57582 0.0
C434 C 0.03584 0.02795 0.53566 0.0
H435 H 0.08155 0.28364 0.48493 0.0
H436 H 0.08959 0.24039 0.5098 0.0
H437 H 0.01368 0.02963 0.51286 0.0
H438 H 0.13535 0.88344 0.57429 0.0
H439 H 0.12372 0.94972 0.55213 0.0
H440 H 0.06313 0.16553 0.55704 0.0
C441 C 0.05285 0.21865 0.50253 0.0
C442 C 0.0233 0.06026 0.52243 0.0
C443 C 0.04866 0.24308 0.48819 0.0
C444 C 0.10839 0.93073 0.57492 0.0
C445 C 0.10134 0.96862 0.56219 0.0
C446 C 0.05162 0.13546 0.5475 0.0
C447 C 0.01331 0.16397 0.50707 0.0
C448 C 0.02465 0.13071 0.52147 0.0
C449 C 0.06462 0.02913 0.56235 0.0
C450 C 0.0507 0.06491 0.54836 0.0
H451 H 0.92843 0.13674 0.47546 0.0
H452 H 0.93372 0.09663 0.50041 0.0
H453 H 0.04009 0.2223 0.53388 0.0
H454 H 0.02275 0.03263 0.59869 0.0
H455 H 0.00975 0.0989 0.57636 0.0
C456 C 0.21239 0.0023 0.42628 0.0
C457 C 0.14182 0.00701 0.42627 0.0
C458 C 0.24375 0.94107 0.42915 0.0
C459 C 0.26424 0.80235 0.4163 0.0
H460 H 0.17631 0.66053 0.43802 0.0
C461 C 0.08527 0.58438 0.40109 0.0
C462 C 0.12161 0.53893 0.39231 0.0
C463 C 0.11881 0.63225 0.40932 0.0
C464 C 0.20317 0.69915 0.43207 0.0
H465 H 0.04904 0.95472 0.43107 0.0
H466 H 0.10322 0.848 0.43597 0.0
H467 H 0.18547 0.77204 0.44892 0.0
H468 H 0.22127 0.51024 0.38456 0.0
H469 H 0.27983 0.59715 0.39857 0.0
H470 H 0.27477 0.73145 0.39878 0.0
C471 C 0.13474 0.89111 0.4338 0.0
C472 C 0.20867 0.76275 0.43832 0.0
C473 C 0.10343 0.95196 0.43075 0.0
C474 C 0.19198 0.54494 0.39122 0.0
C475 C 0.2256 0.59374 0.39935 0.0
C476 C 0.25883 0.73867 0.41005 0.0
C477 C 0.2049 0.88417 0.43221 0.0
C478 C 0.23276 0.81624 0.42984 0.0
C479 C 0.18925 0.63615 0.40882 0.0
C480 C 0.22243 0.68887 0.4174 0.0
H481 H 0.24325 0.04452 0.42306 0.0
H482 H 0.2978 0.93696 0.42786 0.0
H483 H 0.28383 0.84251 0.40955 0.0
H484 H 0.03114 0.5809 0.40222 0.0
H485 H 0.08954 0.66623 0.41617 0.0
C486 C 0.16534 0.63217 0.60171 0.0
C487 C 0.17471 0.62364 0.61681 0.0
C488 C 0.21645 0.61398 0.59185 0.0
C489 C 0.38491 0.5367 0.58843 0.0
H490 H 0.4471 0.71999 0.58485 0.0
C491 C 0.62076 0.61594 0.61462 0.0
C492 C 0.65325 0.67632 0.61127 0.0
C493 C 0.56642 0.59447 0.60639 0.0
C494 C 0.43132 0.66808 0.58513 0.0
H495 H 0.23941 0.58297 0.63345 0.0
H496 H 0.32752 0.54863 0.61628 0.0
H497 H 0.32815 0.69745 0.5852 0.0
H498 H 0.65781 0.75939 0.59606 0.0
H499 H 0.56288 0.72136 0.58142 0.0
H500 H 0.48824 0.50768 0.58924 0.0
C501 C 0.28148 0.56961 0.61197 0.0
C502 C 0.36253 0.65513 0.58528 0.0
C503 C 0.23158 0.58982 0.62183 0.0
C504 C 0.63249 0.71335 0.59907 0.0
C505 C 0.57844 0.69128 0.59064 0.0
C506 C 0.45384 0.54938 0.58786 0.0
C507 C 0.27621 0.58535 0.59702 0.0
C508 C 0.33918 0.59042 0.5885 0.0
C509 C 0.54358 0.63233 0.59443 0.0
C510 C 0.47738 0.61601 0.58788 0.0
H511 H 0.12166 0.65874 0.5977 0.0
H512 H 0.21179 0.62741 0.58042 0.0
H513 H 0.36783 0.48618 0.59069 0.0
H514 H 0.63599 0.58608 0.62391 0.0
H515 H 0.54028 0.54985 0.60999 0.0
C516 C 0.52273 0.51309 0.85269 0.0
C517 C 0.46877 0.51243 0.86272 0.0
C518 C 0.52727 0.46478 0.84165 0.0
C519 C 0.44505 0.30571 0.82903 0.0
H520 H 0.61192 0.23322 0.84379 0.0
C521 C 0.44455 0.10469 0.86886 0.0
C522 C 0.49957 0.06258 0.87154 0.0
C523 C 0.44623 0.14945 0.85724 0.0
C524 C 0.56594 0.2518 0.83899 0.0
H525 H 0.37312 0.46715 0.86808 0.0
H526 H 0.38277 0.37971 0.84955 0.0
H527 H 0.60134 0.35187 0.84021 0.0
H528 H 0.59852 0.03194 0.86376 0.0
H529 H 0.6022 0.11208 0.84358 0.0
H530 H 0.40775 0.20522 0.82946 0.0
C531 C 0.42116 0.41805 0.84983 0.0
C532 C 0.55969 0.32066 0.83689 0.0
C533 C 0.41605 0.46727 0.86069 0.0
C534 C 0.55598 0.06512 0.86217 0.0
C535 C 0.55767 0.11004 0.85047 0.0
C536 C 0.45142 0.23662 0.83108 0.0
C537 C 0.47881 0.41394 0.84073 0.0
C538 C 0.49632 0.34862 0.83382 0.0
C539 C 0.50298 0.15314 0.84796 0.0
C540 C 0.50904 0.21079 0.83789 0.0
H541 H 0.56263 0.54968 0.85367 0.0
H542 H 0.57141 0.46398 0.83462 0.0
H543 H 0.39663 0.32583 0.82591 0.0
H544 H 0.40001 0.10322 0.87577 0.0
H545 H 0.40399 0.18329 0.85596 0.0
C546 C 0.16467 0.10854 0.17214 0.0
C547 C 0.2252 0.0786 0.16763 0.0
C548 C 0.1069 0.06965 0.17354 0.0
C549 C 0.9902 0.97402 0.17659 0.0
H550 H 0.96414 0.92779 0.13574 0.0
C551 C 0.73593 0.00666 0.15136 0.0
C552 C 0.74359 0.06354 0.1424 0.0
C553 C 0.7914 0.96738 0.15491 0.0
C554 C 0.97071 0.93779 0.1473 0.0
H555 H 0.27475 0.98385 0.16238 0.0
H556 H 0.17298 0.91674 0.16429 0.0
H557 H 0.07753 0.93514 0.14533 0.0
H558 H 0.8132 0.12003 0.12893 0.0
H559 H 0.9104 0.05108 0.13506 0.0
H560 H 0.88353 0.98367 0.17812 0.0
C561 C 0.17048 0.96982 0.16689 0.0
C562 C 0.03552 0.94186 0.15284 0.0
C563 C 0.22834 0.00851 0.16567 0.0
C564 C 0.80623 0.07699 0.13599 0.0
C565 C 0.86149 0.03695 0.13934 0.0
C566 C 0.92534 0.96898 0.17111 0.0
C567 C 0.10891 0.00052 0.1703 0.0
C568 C 0.04554 0.96592 0.16713 0.0
C569 C 0.8549 0.98362 0.14929 0.0
C570 C 0.9158 0.95676 0.15612 0.0
H571 H 0.16119 0.16225 0.17391 0.0
H572 H 0.05965 0.0947 0.17597 0.0
H573 H -0.00296 0.992 0.18768 0.0
H574 H 0.68787 0.99472 0.15636 0.0
H575 H 0.7855 0.92686 0.16269 0.0
C576 C 0.97798 0.98055 0.64992 0.0
C577 C 0.91931 0.95038 0.64448 0.0
C578 C 0.98208 0.0505 0.65174 0.0
C579 C 0.87679 0.20302 0.65671 0.0
H580 H 0.0339 0.29948 0.64301 0.0
C581 C 0.87511 0.4921 0.65094 0.0
C582 C 0.93488 0.52895 0.65257 0.0
C583 C 0.87532 0.42182 0.6514 0.0
C584 C 0.99004 0.27355 0.64717 0.0
H585 H 0.81809 0.97131 0.6371 0.0
H586 H 0.82483 0.09259 0.64052 0.0
H587 H 0.03046 0.17729 0.64094 0.0
H588 H 0.04174 0.51951 0.65651 0.0
H589 H 0.04188 0.39685 0.65777 0.0
H590 H 0.83644 0.29849 0.66313 0.0
C591 C 0.86804 0.06209 0.64327 0.0
C592 C 0.98801 0.2032 0.64591 0.0
C593 C 0.86429 0.99231 0.64126 0.0
C594 C -0.00535 0.49312 0.65524 0.0
C595 C -0.0052 0.42247 0.65578 0.0
C596 C 0.87907 0.27314 0.65812 0.0
C597 C 0.92709 0.09231 0.64848 0.0
C598 C 0.93093 0.16701 0.65047 0.0
C599 C 0.93523 0.38554 0.65363 0.0
C600 C 0.93527 0.30988 0.65316 0.0
H601 H 0.02071 0.9502 0.65291 0.0
H602 H 0.02802 0.07178 0.65598 0.0
H603 H 0.83251 0.17686 0.6606 0.0
H604 H 0.82798 0.51744 0.64879 0.0
H605 H 0.82846 0.39601 0.64945 0.0
C606 C 0.71897 0.83467 0.9071 0.0
C607 C 0.68304 0.77408 0.90628 0.0
C608 C 0.78904 0.8343 0.90858 0.0
C609 C 0.9367 0.72633 0.9011 0.0
H610 H 0.03115 0.85418 0.92543 0.0
C611 C 0.22533 0.71579 0.90664 0.0
C612 C 0.25979 0.77729 0.90638 0.0
C613 C 0.15523 0.71419 0.90812 0.0
C614 C 0.00564 0.81848 0.91847 0.0
H615 H 0.69289 0.66554 0.90693 0.0
H616 H 0.81447 0.66507 0.90959 0.0
H617 H 0.9084 0.85432 0.92527 0.0
H618 H 0.24718 0.8854 0.90786 0.0
H619 H 0.12531 0.8826 0.91019 0.0
H620 H 0.03344 0.69124 0.89405 0.0
C621 C 0.78866 0.71289 0.90887 0.0
C622 C 0.93519 0.81856 0.9184 0.0
C623 C 0.71874 0.71323 0.90744 0.0
C624 C 0.22248 0.83704 0.90805 0.0
C625 C 0.15238 0.83543 0.90946 0.0
C626 C 0.00699 0.72642 0.90112 0.0
C627 C 0.82488 0.77335 0.90923 0.0
C628 C 0.89983 0.77256 0.90968 0.0
C629 C 0.11764 0.77404 0.9093 0.0
C630 C 0.04255 0.7726 0.90977 0.0
H631 H 0.69323 0.88248 0.90625 0.0
H632 H 0.81534 0.88179 0.90872 0.0
H633 H 0.91121 0.69098 0.89405 0.0
H634 H 0.25237 0.66874 0.90548 0.0
H635 H 0.13044 0.66589 0.90823 0.0
C636 C 0.53243 0.45059 0.14508 0.0
C637 C 0.47398 0.4153 0.14903 0.0
C638 C 0.53198 0.52073 0.14433 0.0
C639 C 0.43499 0.67053 0.15691 0.0
H640 H 0.54221 0.76118 0.12741 0.0
C641 C 0.48343 0.95636 0.13288 0.0
C642 C 0.48386 0.99183 0.14621 0.0
C643 C 0.48 0.8861 0.13274 0.0
C644 C 0.51133 0.73678 0.13562 0.0
H645 H 0.36892 0.42637 0.15516 0.0
H646 H 0.36766 0.54831 0.15354 0.0
H647 H 0.53914 0.63901 0.12782 0.0
H648 H 0.48125 0.9813 0.16984 0.0
H649 H 0.47697 0.85952 0.1696 0.0
H650 H 0.40557 0.76812 0.16445 0.0
C651 C 0.41439 0.52201 0.15131 0.0
C652 C 0.51035 0.66653 0.13599 0.0
C653 C 0.415 0.45189 0.15218 0.0
C654 C 0.48073 0.9556 0.15936 0.0
C655 C 0.47776 0.88557 0.15923 0.0
C656 C 0.43561 0.74068 0.15647 0.0
C657 C 0.47291 0.55748 0.14741 0.0
C658 C 0.47257 0.63239 0.14672 0.0
C659 C 0.4772 0.84974 0.14593 0.0
C660 C 0.4743 0.77485 0.14592 0.0
H661 H 0.57887 0.42411 0.14265 0.0
H662 H 0.57834 0.54614 0.14154 0.0
H663 H 0.40585 0.64629 0.16543 0.0
H664 H 0.48533 0.98288 0.12255 0.0
H665 H 0.47875 0.86036 0.12228 0.0
C666 C 0.78503 0.29115 0.39021 0.0
C667 C 0.82223 0.23417 0.3943 0.0
C668 C 0.71508 0.28891 0.38929 0.0
C669 C 0.56636 0.19328 0.40207 0.0
H670 H 0.47644 0.30057 0.37278 0.0
C671 C 0.27936 0.25884 0.38004 0.0
C672 C 0.2459 0.26346 0.39364 0.0
C673 C 0.34914 0.24895 0.37934 0.0
C674 C 0.50045 0.26954 0.38093 0.0
H675 H 0.81438 0.1298 0.40066 0.0
H676 H 0.69175 0.1254 0.39883 0.0
H677 H 0.59836 0.29258 0.37254 0.0
H678 H 0.25974 0.26119 0.41716 0.0
H679 H 0.38087 0.24599 0.41596 0.0
H680 H 0.46828 0.16915 0.41027 0.0
C681 C 0.71697 0.17225 0.39648 0.0
C682 C 0.57071 0.2657 0.38092 0.0
C683 C 0.78735 0.17462 0.39747 0.0
C684 C 0.28379 0.25774 0.40649 0.0
C685 C 0.35343 0.24837 0.4058 0.0
C686 C 0.49601 0.19679 0.40202 0.0
C687 C 0.67987 0.22948 0.39237 0.0
C688 C 0.60479 0.22855 0.39166 0.0
C689 C 0.38725 0.24387 0.39222 0.0
C690 C 0.46204 0.23592 0.39161 0.0
H691 H 0.80977 0.33835 0.38801 0.0
H692 H 0.68852 0.33453 0.38647 0.0
H693 H 0.59057 0.16446 0.41056 0.0
H694 H 0.25162 0.26234 0.36993 0.0
H695 H 0.37309 0.24477 0.36869 0.0
loop_
_geom_bond_atom_site_label_1
_geom_bond_atom_site_label_2
_geom_bond_distance
_geom_bond_site_symmetry_2
_ccdc_geom_bond_type
Cd0 N3 2.334 . S
Cd0 N29 2.304 . S
Cd0 O36 2.268 1_455 S
Cd0 O39 2.273 . S
Cd0 O40 2.417 1_455 S
Cd0 O41 2.330 . S
Cd1 N16 2.304 . S
Cd1 N20 2.334 . S
Cd1 O37 2.273 . S
Cd1 O38 2.268 1_655 S
Cd1 O42 2.417 1_655 S
Cd1 O43 2.330 . S
C2 N3 1.332 . S
C2 C6 1.381 . S
C2 H8 0.931 . S
N3 Cd0 2.334 . S
N3 C2 1.332 . S
N3 C7 1.328 1_455 S
C4 C5 1.396 1_655 S
C4 C7 1.378 . S
C4 H46 0.931 . S
C5 C4 1.396 1_455 S
C5 C6 1.382 . S
C6 C2 1.381 . S
C6 C5 1.382 . S
C6 H47 0.930 . S
C7 N3 1.328 1_655 S
C7 C4 1.378 . S
C7 H9 0.930 . S
H8 C2 0.931 . S
H9 C7 0.930 . S
C10 O36 1.238 . S
C10 O37 1.253 . S
C11 C12 1.379 . S
C11 N16 1.337 . S
C11 H17 0.929 . S
C12 C11 1.379 . S
C12 C13 1.380 . S
C12 H48 0.929 . S
C13 C12 1.380 . S
C13 C14 1.399 1_655 S
C14 C13 1.399 1_455 S
C14 C15 1.376 . S
C14 H49 0.931 . S
C15 C14 1.376 . S
C15 N16 1.338 1_455 S
C15 H18 0.930 . S
N16 Cd1 2.304 . S
N16 C11 1.337 . S
N16 C15 1.338 1_655 S
H17 C11 0.929 . S
H18 C15 0.930 . S
C19 N20 1.332 . S
C19 C23 1.381 . S
C19 H25 0.931 . S
N20 Cd1 2.334 . S
N20 C19 1.332 . S
N20 C24 1.328 1_655 S
C21 C22 1.396 1_455 S
C21 C24 1.378 . S
C21 H50 0.931 . S
C22 C21 1.396 1_655 S
C22 C23 1.382 . S
C23 C19 1.381 . S
C23 C22 1.382 . S
C23 H51 0.930 . S
C24 N20 1.328 1_455 S
C24 C21 1.378 . S
C24 H26 0.930 . S
H25 C19 0.931 . S
H26 C24 0.930 . S
C27 O38 1.238 . S
C27 O39 1.253 . S
C28 O40 1.239 1_455 S
C28 O41 1.230 . S
N29 Cd0 2.304 . S
N29 C30 1.337 . S
N29 C34 1.338 1_455 S
C30 N29 1.337 . S
C30 C31 1.379 . S
C30 H44 0.929 . S
C31 C30 1.379 . S
C31 C32 1.380 . S
C31 H52 0.929 . S
C32 C31 1.380 . S
C32 C33 1.399 1_455 S
C33 C32 1.399 1_655 S
C33 C34 1.376 . S
C33 H53 0.931 . S
C34 N29 1.338 1_655 S
C34 C33 1.376 . S
C34 H45 0.930 . S
C35 O42 1.239 1_655 S
C35 O43 1.230 . S
O36 Cd0 2.268 1_655 S
O36 C10 1.238 . S
O37 Cd1 2.273 . S
O37 C10 1.253 . S
O38 Cd1 2.268 1_455 S
O38 C27 1.238 . S
O39 Cd0 2.273 . S
O39 C27 1.253 . S
O40 Cd0 2.417 1_655 S
O40 C28 1.239 1_655 S
O41 Cd0 2.330 . S
O41 C28 1.230 . S
O42 Cd1 2.417 1_455 S
O42 C35 1.239 1_455 S
O43 Cd1 2.330 . S
O43 C35 1.230 . S
H44 C30 0.929 . S
H45 C34 0.930 . S
H46 C4 0.931 . S
H47 C6 0.930 . S
H48 C12 0.929 . S
H49 C14 0.931 . S
H50 C21 0.931 . S
H51 C23 0.930 . S
H52 C31 0.929 . S
H53 C33 0.931 . S
Cd54 N57 2.334 . S
Cd54 N83 2.304 . S
Cd54 O90 2.268 . S
Cd54 O93 2.273 . S
Cd54 O94 2.417 . S
Cd54 O95 2.330 . S
Cd55 N70 2.304 . S
Cd55 N74 2.334 . S
Cd55 O91 2.273 . S
Cd55 O92 2.268 . S
Cd55 O96 2.417 . S
Cd55 O97 2.330 . S
C56 N57 1.332 . S
C56 C60 1.381 . S
C56 H62 0.931 . S
N57 Cd54 2.334 . S
N57 C56 1.332 . S
N57 C61 1.328 . S
C58 C59 1.396 . S
C58 C61 1.378 . S
C58 H100 0.931 . S
C59 C58 1.396 . S
C59 C60 1.382 . S
C60 C56 1.381 . S
C60 C59 1.382 . S
C60 H101 0.930 . S
C61 N57 1.328 . S
C61 C58 1.378 . S
C61 H63 0.930 . S
H62 C56 0.931 . S
H63 C61 0.930 . S
C64 O90 1.238 1_655 S
C64 O91 1.253 . S
C65 C66 1.379 . S
C65 N70 1.337 . S
C65 H71 0.929 . S
C66 C65 1.379 . S
C66 C67 1.380 . S
C66 H102 0.929 . S
C67 C66 1.380 . S
C67 C68 1.399 . S
C68 C67 1.399 . S
C68 C69 1.376 . S
C68 H103 0.931 . S
C69 C68 1.376 . S
C69 N70 1.338 . S
C69 H72 0.930 . S
N70 Cd55 2.304 . S
N70 C65 1.337 . S
N70 C69 1.338 . S
H71 C65 0.929 . S
H72 C69 0.930 . S
C73 N74 1.332 . S
C73 C77 1.381 . S
C73 H79 0.931 . S
N74 Cd55 2.334 . S
N74 C73 1.332 . S
N74 C78 1.328 . S
C75 C76 1.396 . S
C75 C78 1.378 . S
C75 H104 0.931 . S
C76 C75 1.396 . S
C76 C77 1.382 . S
C77 C73 1.381 . S
C77 C76 1.382 . S
C77 H105 0.930 . S
C78 N74 1.328 . S
C78 C75 1.378 . S
C78 H80 0.930 . S
H79 C73 0.931 . S
H80 C78 0.930 . S
C81 O92 1.238 1_455 S
C81 O93 1.253 . S
C82 O94 1.239 . S
C82 O95 1.230 . S
N83 Cd54 2.304 . S
N83 C84 1.337 . S
N83 C88 1.338 . S
C84 N83 1.337 . S
C84 C85 1.379 . S
C84 H98 0.929 . S
C85 C84 1.379 . S
C85 C86 1.380 . S
C85 H106 0.929 . S
C86 C85 1.380 . S
C86 C87 1.399 . S
C87 C86 1.399 . S
C87 C88 1.376 . S
C87 H107 0.931 . S
C88 N83 1.338 . S
C88 C87 1.376 . S
C88 H99 0.930 . S
C89 O96 1.239 . S
C89 O97 1.230 . S
O90 Cd54 2.268 . S
O90 C64 1.238 1_455 S
O91 Cd55 2.273 . S
O91 C64 1.253 . S
O92 Cd55 2.268 . S
O92 C81 1.238 1_655 S
O93 Cd54 2.273 . S
O93 C81 1.253 . S
O94 Cd54 2.417 . S
O94 C82 1.239 . S
O95 Cd54 2.330 . S
O95 C82 1.230 . S
O96 Cd55 2.417 . S
O96 C89 1.239 . S
O97 Cd55 2.330 . S
O97 C89 1.230 . S
H98 C84 0.929 . S
H99 C88 0.930 . S
H100 C58 0.931 . S
H101 C60 0.930 . S
H102 C66 0.929 . S
H103 C68 0.931 . S
H104 C75 0.931 . S
H105 C77 0.930 . S
H106 C85 0.929 . S
H107 C87 0.931 . S
Cd108 N111 2.334 . S
Cd108 N137 2.304 . S
Cd108 O144 2.268 . S
Cd108 O147 2.273 . S
Cd108 O148 2.417 . S
Cd108 O149 2.330 . S
Cd109 N124 2.304 . S
Cd109 N128 2.334 . S
Cd109 O145 2.273 . S
Cd109 O146 2.268 . S
Cd109 O150 2.417 . S
Cd109 O151 2.330 . S
C110 N111 1.332 . S
C110 C114 1.381 . S
C110 H116 0.931 . S
N111 Cd108 2.334 . S
N111 C110 1.332 . S
N111 C115 1.328 . S
C112 C113 1.396 . S
C112 C115 1.378 . S
C112 H154 0.931 . S
C113 C112 1.396 . S
C113 C114 1.382 . S
C114 C110 1.381 . S
C114 C113 1.382 . S
C114 H155 0.930 . S
C115 N111 1.328 . S
C115 C112 1.378 . S
C115 H117 0.930 . S
H116 C110 0.931 . S
H117 C115 0.930 . S
C118 O144 1.238 . S
C118 O145 1.253 . S
C119 C120 1.379 . S
C119 N124 1.337 . S
C119 H125 0.929 . S
C120 C119 1.379 . S
C120 C121 1.380 . S
C120 H156 0.929 . S
C121 C120 1.380 . S
C121 C122 1.399 . S
C122 C121 1.399 . S
C122 C123 1.376 . S
C122 H157 0.931 . S
C123 C122 1.376 . S
C123 N124 1.338 . S
C123 H126 0.930 . S
N124 Cd109 2.304 . S
N124 C119 1.337 . S
N124 C123 1.338 . S
H125 C119 0.929 . S
H126 C123 0.930 . S
C127 N128 1.332 . S
C127 C131 1.381 . S
C127 H133 0.931 . S
N128 Cd109 2.334 . S
N128 C127 1.332 . S
N128 C132 1.328 . S
C129 C130 1.396 . S
C129 C132 1.378 . S
C129 H158 0.931 . S
C130 C129 1.396 . S
C130 C131 1.382 . S
C131 C127 1.381 . S
C131 C130 1.382 . S
C131 H159 0.930 . S
C132 N128 1.328 . S
C132 C129 1.378 . S
C132 H134 0.930 . S
H133 C127 0.931 . S
H134 C132 0.930 . S
C135 O146 1.238 . S
C135 O147 1.253 . S
C136 O148 1.239 . S
C136 O149 1.230 . S
N137 Cd108 2.304 . S
N137 C138 1.337 . S
N137 C142 1.338 . S
C138 N137 1.337 . S
C138 C139 1.379 . S
C138 H152 0.929 . S
C139 C138 1.379 . S
C139 C140 1.380 . S
C139 H160 0.929 . S
C140 C139 1.380 . S
C140 C141 1.399 . S
C141 C140 1.399 . S
C141 C142 1.376 . S
C141 H161 0.931 . S
C142 N137 1.338 . S
C142 C141 1.376 . S
C142 H153 0.930 . S
C143 O150 1.239 . S
C143 O151 1.230 . S
O144 Cd108 2.268 . S
O144 C118 1.238 . S
O145 Cd109 2.273 . S
O145 C118 1.253 . S
O146 Cd109 2.268 . S
O146 C135 1.238 . S
O147 Cd108 2.273 . S
O147 C135 1.253 . S
O148 Cd108 2.417 . S
O148 C136 1.239 . S
O149 Cd108 2.330 . S
O149 C136 1.230 . S
O150 Cd109 2.417 . S
O150 C143 1.239 . S
O151 Cd109 2.330 . S
O151 C143 1.230 . S
H152 C138 0.929 . S
H153 C142 0.930 . S
H154 C112 0.931 . S
H155 C114 0.930 . S
H156 C120 0.929 . S
H157 C122 0.931 . S
H158 C129 0.931 . S
H159 C131 0.930 . S
H160 C139 0.929 . S
H161 C141 0.931 . S
Cd162 N165 2.334 . S
Cd162 N191 2.304 . S
Cd162 O198 2.268 . S
Cd162 O201 2.273 . S
Cd162 O202 2.417 . S
Cd162 O203 2.330 . S
Cd163 N178 2.304 . S
Cd163 N182 2.334 . S
Cd163 O199 2.273 . S
Cd163 O200 2.268 . S
Cd163 O204 2.417 . S
Cd163 O205 2.330 . S
C164 N165 1.332 . S
C164 C168 1.381 . S
C164 H170 0.931 . S
N165 Cd162 2.334 . S
N165 C164 1.332 . S
N165 C169 1.328 . S
C166 C167 1.396 . S
C166 C169 1.378 . S
C166 H208 0.931 . S
C167 C166 1.396 . S
C167 C168 1.382 . S
C168 C164 1.381 . S
C168 C167 1.382 . S
C168 H209 0.930 . S
C169 N165 1.328 . S
C169 C166 1.378 . S
C169 H171 0.930 . S
H170 C164 0.931 . S
H171 C169 0.930 . S
C172 O198 1.238 . S
C172 O199 1.253 . S
C173 C174 1.379 . S
C173 N178 1.337 . S
C173 H179 0.929 . S
C174 C173 1.379 . S
C174 C175 1.380 . S
C174 H210 0.929 . S
C175 C174 1.380 . S
C175 C176 1.399 . S
C176 C175 1.399 . S
C176 C177 1.376 . S
C176 H211 0.931 . S
C177 C176 1.376 . S
C177 N178 1.338 . S
C177 H180 0.930 . S
N178 Cd163 2.304 . S
N178 C173 1.337 . S
N178 C177 1.338 . S
H179 C173 0.929 . S
H180 C177 0.930 . S
C181 N182 1.332 . S
C181 C185 1.381 . S
C181 H187 0.931 . S
N182 Cd163 2.334 . S
N182 C181 1.332 . S
N182 C186 1.328 . S
C183 C184 1.396 . S
C183 C186 1.378 . S
C183 H212 0.931 . S
C184 C183 1.396 . S
C184 C185 1.382 . S
C185 C181 1.381 . S
C185 C184 1.382 . S
C185 H213 0.930 . S
C186 N182 1.328 . S
C186 C183 1.378 . S
C186 H188 0.930 . S
H187 C181 0.931 . S
H188 C186 0.930 . S
C189 O200 1.238 . S
C189 O201 1.253 . S
C190 O202 1.239 . S
C190 O203 1.230 . S
N191 Cd162 2.304 . S
N191 C192 1.337 . S
N191 C196 1.338 . S
C192 N191 1.337 . S
C192 C193 1.379 . S
C192 H206 0.929 . S
C193 C192 1.379 . S
C193 C194 1.380 . S
C193 H214 0.929 . S
C194 C193 1.380 . S
C194 C195 1.399 . S
C195 C194 1.399 . S
C195 C196 1.376 . S
C195 H215 0.931 . S
C196 N191 1.338 . S
C196 C195 1.376 . S
C196 H207 0.930 . S
C197 O204 1.239 . S
C197 O205 1.230 . S
O198 Cd162 2.268 . S
O198 C172 1.238 . S
O199 Cd163 2.273 . S
O199 C172 1.253 . S
O200 Cd163 2.268 . S
O200 C189 1.238 . S
O201 Cd162 2.273 . S
O201 C189 1.253 . S
O202 Cd162 2.417 . S
O202 C190 1.239 . S
O203 Cd162 2.330 . S
O203 C190 1.230 . S
O204 Cd163 2.417 . S
O204 C197 1.239 . S
O205 Cd163 2.330 . S
O205 C197 1.230 . S
H206 C192 0.929 . S
H207 C196 0.930 . S
H208 C166 0.931 . S
H209 C168 0.930 . S
H210 C174 0.929 . S
H211 C176 0.931 . S
H212 C183 0.931 . S
H213 C185 0.930 . S
H214 C193 0.929 . S
H215 C195 0.931 . S
C216 C217 1.349 . S
C216 C218 1.327 . S
C216 H241 0.950 1_655 S
C217 C216 1.349 . S
C217 C233 1.349 . S
C218 C216 1.327 . S
C218 C237 1.429 . S
C218 H242 0.950 1_655 S
C219 C236 1.574 . S
C219 C238 1.368 . S
C219 H243 0.949 . S
H220 C224 0.949 . S
C221 C222 1.349 . S
C221 C223 1.327 . S
C221 H244 0.950 . S
C222 C221 1.349 . S
C222 C234 1.349 . S
C223 C221 1.327 . S
C223 C239 1.429 . S
C223 H245 0.950 . S
C224 H220 0.949 . S
C224 C232 1.574 . S
C224 C240 1.368 . S
H225 C233 0.950 . S
H226 C231 0.950 . S
H227 C232 0.949 . S
H228 C234 0.950 . S
H229 C235 0.950 . S
H230 C236 0.949 . S
C231 H226 0.950 . S
C231 C233 1.327 . S
C231 C237 1.429 . S
C232 C224 1.574 . S
C232 H227 0.949 . S
C232 C238 1.368 . S
C233 C217 1.349 . S
C233 H225 0.950 . S
C233 C231 1.327 . S
C234 C222 1.349 . S
C234 H228 0.950 . S
C234 C235 1.327 . S
C235 H229 0.950 . S
C235 C234 1.327 . S
C235 C239 1.429 . S
C236 C219 1.574 . S
C236 H230 0.949 . S
C236 C240 1.368 . S
C237 C218 1.429 . S
C237 C231 1.429 . S
C237 C238 1.523 . S
C238 C219 1.368 . S
C238 C232 1.368 . S
C238 C237 1.523 . S
C239 C223 1.429 . S
C239 C235 1.429 . S
C239 C240 1.523 . S
C240 C224 1.368 . S
C240 C236 1.368 . S
C240 C239 1.523 . S
H241 C216 0.950 1_455 S
H242 C218 0.950 1_455 S
H243 C219 0.949 . S
H244 C221 0.950 . S
H245 C223 0.950 . S
C246 C247 1.349 . S
C246 C248 1.327 . S
C246 H271 0.950 . S
C247 C246 1.349 . S
C247 C263 1.349 . S
C248 C246 1.327 . S
C248 C267 1.429 . S
C248 H272 0.950 . S
C249 C266 1.574 . S
C249 C268 1.368 . S
C249 H273 0.949 . S
H250 C254 0.949 . S
C251 C252 1.349 . S
C251 C253 1.327 . S
C251 H274 0.950 . S
C252 C251 1.349 . S
C252 C264 1.349 . S
C253 C251 1.327 . S
C253 C269 1.429 . S
C253 H275 0.950 . S
C254 H250 0.949 . S
C254 C262 1.574 . S
C254 C270 1.368 . S
H255 C263 0.950 . S
H256 C261 0.950 . S
H257 C262 0.949 . S
H258 C264 0.950 . S
H259 C265 0.950 . S
H260 C266 0.949 . S
C261 H256 0.950 . S
C261 C263 1.327 . S
C261 C267 1.429 . S
C262 C254 1.574 . S
C262 H257 0.949 . S
C262 C268 1.368 . S
C263 C247 1.349 . S
C263 H255 0.950 . S
C263 C261 1.327 . S
C264 C252 1.349 . S
C264 H258 0.950 . S
C264 C265 1.327 . S
C265 H259 0.950 . S
C265 C264 1.327 . S
C265 C269 1.429 . S
C266 C249 1.574 . S
C266 H260 0.949 . S
C266 C270 1.368 . S
C267 C248 1.429 . S
C267 C261 1.429 . S
C267 C268 1.523 . S
C268 C249 1.368 . S
C268 C262 1.368 . S
C268 C267 1.523 . S
C269 C253 1.429 . S
C269 C265 1.429 . S
C269 C270 1.523 . S
C270 C254 1.368 . S
C270 C266 1.368 . S
C270 C269 1.523 . S
H271 C246 0.950 . S
H272 C248 0.950 . S
H273 C249 0.949 . S
H274 C251 0.950 . S
H275 C253 0.950 . S
C276 C277 1.349 . S
C276 C278 1.327 . S
C276 H301 0.950 . S
C277 C276 1.349 . S
C277 C293 1.349 . S
C278 C276 1.327 . S
C278 C297 1.429 . S
C278 H302 0.950 . S
C279 C296 1.568 . S
C279 C298 1.374 1_554 S
C279 H303 0.949 1_554 S
H280 C284 0.949 . S
C281 C282 1.349 . S
C281 C283 1.327 . S
C281 H304 0.950 . S
C282 C281 1.349 . S
C282 C294 1.349 . S
C283 C281 1.327 . S
C283 C299 1.429 . S
C283 H305 0.950 . S
C284 H280 0.949 . S
C284 C292 1.578 1_554 S
C284 C300 1.364 . S
H285 C293 0.950 . S
H286 C291 0.950 . S
H287 C292 0.949 . S
H288 C294 0.950 . S
H289 C295 0.950 . S
H290 C296 0.949 . S
C291 H286 0.950 . S
C291 C293 1.327 . S
C291 C297 1.429 . S
C292 C284 1.578 1_556 S
C292 H287 0.949 . S
C292 C298 1.368 . S
C293 C277 1.349 . S
C293 H285 0.950 . S
C293 C291 1.327 . S
C294 C282 1.349 . S
C294 H288 0.950 . S
C294 C295 1.327 . S
C295 H289 0.950 . S
C295 C294 1.327 . S
C295 C299 1.429 . S
C296 C279 1.568 . S
C296 H290 0.949 . S
C296 C300 1.368 . S
C297 C278 1.429 . S
C297 C291 1.429 . S
C297 C298 1.523 . S
C298 C279 1.374 1_556 S
C298 C292 1.368 . S
C298 C297 1.523 . S
C299 C283 1.429 . S
C299 C295 1.429 . S
C299 C300 1.523 . S
C300 C284 1.364 . S
C300 C296 1.368 . S
C300 C299 1.523 . S
H301 C276 0.950 . S
H302 C278 0.950 . S
H303 C279 0.949 1_556 S
H304 C281 0.950 . S
H305 C283 0.950 . S
C306 C307 1.349 . S
C306 C308 1.327 . S
C306 H331 0.950 . S
C307 C306 1.349 . S
C307 C323 1.349 . S
C308 C306 1.327 . S
C308 C327 1.429 . S
C308 H332 0.950 . S
C309 C326 1.574 . S
C309 C328 1.368 . S
C309 H333 0.949 . S
H310 C314 0.949 . S
C311 C312 1.349 . S
C311 C313 1.327 . S
C311 H334 0.950 . S
C312 C311 1.349 . S
C312 C324 1.349 . S
C313 C311 1.327 . S
C313 C329 1.429 . S
C313 H335 0.950 . S
C314 H310 0.949 . S
C314 C322 1.574 . S
C314 C330 1.368 . S
H315 C323 0.950 . S
H316 C321 0.950 . S
H317 C322 0.949 . S
H318 C324 0.950 . S
H319 C325 0.950 . S
H320 C326 0.949 . S
C321 H316 0.950 . S
C321 C323 1.327 . S
C321 C327 1.429 . S
C322 C314 1.574 . S
C322 H317 0.949 . S
C322 C328 1.368 . S
C323 C307 1.349 . S
C323 H315 0.950 . S
C323 C321 1.327 . S
C324 C312 1.349 . S
C324 H318 0.950 . S
C324 C325 1.327 . S
C325 H319 0.950 . S
C325 C324 1.327 . S
C325 C329 1.429 . S
C326 C309 1.574 . S
C326 H320 0.949 . S
C326 C330 1.368 . S
C327 C308 1.429 . S
C327 C321 1.429 . S
C327 C328 1.523 . S
C328 C309 1.368 . S
C328 C322 1.368 . S
C328 C327 1.523 . S
C329 C313 1.429 . S
C329 C325 1.429 . S
C329 C330 1.523 . S
C330 C314 1.368 . S
C330 C326 1.368 . S
C330 C329 1.523 . S
H331 C306 0.950 . S
H332 C308 0.950 . S
H333 C309 0.949 . S
H334 C311 0.950 . S
H335 C313 0.950 . S
C336 C337 1.349 . S
C336 C338 1.327 . S
C336 H361 0.950 . S
C337 C336 1.349 . S
C337 C353 1.349 . S
C338 C336 1.327 . S
C338 C357 1.429 . S
C338 H362 0.950 . S
C339 C356 1.574 . S
C339 C358 1.368 . S
C339 H363 0.949 . S
H340 C344 0.949 . S
C341 C342 1.349 . S
C341 C343 1.327 . S
C341 H364 0.950 . S
C342 C341 1.349 . S
C342 C354 1.349 . S
C343 C341 1.327 . S
C343 C359 1.429 . S
C343 H365 0.950 . S
C344 H340 0.949 . S
C344 C352 1.574 . S
C344 C360 1.368 . S
H345 C353 0.950 . S
H346 C351 0.950 . S
H347 C352 0.949 . S
H348 C354 0.950 . S
H349 C355 0.950 . S
H350 C356 0.949 . S
C351 H346 0.950 . S
C351 C353 1.327 . S
C351 C357 1.429 . S
C352 C344 1.574 . S
C352 H347 0.949 . S
C352 C358 1.368 . S
C353 C337 1.349 . S
C353 H345 0.950 . S
C353 C351 1.327 . S
C354 C342 1.349 . S
C354 H348 0.950 . S
C354 C355 1.327 . S
C355 H349 0.950 . S
C355 C354 1.327 . S
C355 C359 1.429 . S
C356 C339 1.574 . S
C356 H350 0.949 . S
C356 C360 1.368 . S
C357 C338 1.429 . S
C357 C351 1.429 . S
C357 C358 1.523 . S
C358 C339 1.368 . S
C358 C352 1.368 . S
C358 C357 1.523 . S
C359 C343 1.429 . S
C359 C355 1.429 . S
C359 C360 1.523 . S
C360 C344 1.368 . S
C360 C356 1.368 . S
C360 C359 1.523 . S
H361 C336 0.950 . S
H362 C338 0.950 . S
H363 C339 0.949 . S
H364 C341 0.950 . S
H365 C343 0.950 . S
C366 C367 1.349 . S
C366 C368 1.327 . S
C366 H391 0.950 . S
C367 C366 1.349 . S
C367 C383 1.349 . S
C368 C366 1.327 . S
C368 C387 1.429 . S
C368 H392 0.950 . S
C369 C386 1.574 . S
C369 C388 1.368 . S
C369 H393 0.949 . S
H370 C374 0.949 . S
C371 C372 1.349 . S
C371 C373 1.327 . S
C371 H394 0.950 . S
C372 C371 1.349 . S
C372 C384 1.349 . S
C373 C371 1.327 . S
C373 C389 1.429 . S
C373 H395 0.950 . S
C374 H370 0.949 . S
C374 C382 1.574 . S
C374 C390 1.368 . S
H375 C383 0.950 . S
H376 C381 0.950 . S
H377 C382 0.949 . S
H378 C384 0.950 . S
H379 C385 0.950 . S
H380 C386 0.949 . S
C381 H376 0.950 . S
C381 C383 1.327 . S
C381 C387 1.429 . S
C382 C374 1.574 . S
C382 H377 0.949 . S
C382 C388 1.368 . S
C383 C367 1.349 . S
C383 H375 0.950 . S
C383 C381 1.327 . S
C384 C372 1.349 . S
C384 H378 0.950 . S
C384 C385 1.327 . S
C385 H379 0.950 . S
C385 C384 1.327 . S
C385 C389 1.429 . S
C386 C369 1.574 . S
C386 H380 0.949 . S
C386 C390 1.368 . S
C387 C368 1.429 . S
C387 C381 1.429 . S
C387 C388 1.523 . S
C388 C369 1.368 . S
C388 C382 1.368 . S
C388 C387 1.523 . S
C389 C373 1.429 . S
C389 C385 1.429 . S
C389 C390 1.523 . S
C390 C374 1.368 . S
C390 C386 1.368 . S
C390 C389 1.523 . S
H391 C366 0.950 . S
H392 C368 0.950 . S
H393 C369 0.949 . S
H394 C371 0.950 . S
H395 C373 0.950 . S
C396 C397 1.349 . S
C396 C398 1.327 . S
C396 H421 0.950 . S
C397 C396 1.349 . S
C397 C413 1.349 . S
C398 C396 1.327 . S
C398 C417 1.429 . S
C398 H422 0.950 1_565 S
C399 C416 1.574 1_566 S
C399 C418 1.368 1_565 S
C399 H423 0.949 . S
H400 C404 0.949 . S
C401 C402 1.349 . S
C401 C403 1.327 . S
C401 H424 0.950 . S
C402 C401 1.349 . S
C402 C414 1.349 . S
C403 C401 1.327 . S
C403 C419 1.429 . S
C403 H425 0.950 . S
C404 H400 0.949 . S
C404 C412 1.574 1_554 S
C404 C420 1.368 . S
H405 C413 0.950 . S
H406 C411 0.950 . S
H407 C412 0.949 . S
H408 C414 0.950 . S
H409 C415 0.950 . S
H410 C416 0.949 . S
C411 H406 0.950 . S
C411 C413 1.327 . S
C411 C417 1.429 . S
C412 C404 1.574 1_556 S
C412 H407 0.949 . S
C412 C418 1.368 . S
C413 C397 1.349 . S
C413 H405 0.950 . S
C413 C411 1.327 . S
C414 C402 1.349 . S
C414 H408 0.950 . S
C414 C415 1.327 . S
C415 H409 0.950 . S
C415 C414 1.327 . S
C415 C419 1.429 . S
C416 C399 1.574 1_544 S
C416 H410 0.949 . S
C416 C420 1.368 . S
C417 C398 1.429 . S
C417 C411 1.429 . S
C417 C418 1.523 1_565 S
C418 C399 1.368 1_545 S
C418 C412 1.368 . S
C418 C417 1.523 1_545 S
C419 C403 1.429 . S
C419 C415 1.429 . S
C419 C420 1.523 . S
C420 C404 1.368 . S
C420 C416 1.368 . S
C420 C419 1.523 . S
H421 C396 0.950 . S
H422 C398 0.950 1_545 S
H423 C399 0.949 . S
H424 C401 0.950 . S
H425 C403 0.950 . S
C426 C427 1.349 . S
C426 C428 1.327 . S
C426 H451 0.950 . S
C427 C426 1.349 . S
C427 C443 1.349 . S
C428 C426 1.327 . S
C428 C447 1.429 . S
C428 H452 0.950 1_545 S
C429 C446 1.574 1_545 S
C429 C448 1.369 1_545 S
C429 H453 0.949 . S
H430 C434 0.949 . S
C431 C432 1.349 . S
C431 C433 1.327 . S
C431 H454 0.950 . S
C432 C431 1.349 . S
C432 C444 1.349 . S
C433 C431 1.327 . S
C433 C449 1.429 . S
C433 H455 0.950 . S
C434 H430 0.949 . S
C434 C442 1.574 . S
C434 C450 1.368 . S
H435 C443 0.950 . S
H436 C441 0.950 . S
H437 C442 0.949 . S
H438 C444 0.950 . S
H439 C445 0.950 . S
H440 C446 0.949 1_545 S
C441 H436 0.950 . S
C441 C443 1.327 . S
C441 C447 1.429 . S
C442 C434 1.574 . S
C442 H437 0.949 . S
C442 C448 1.368 . S
C443 C427 1.349 . S
C443 H435 0.950 . S
C443 C441 1.327 . S
C444 C432 1.349 . S
C444 H438 0.950 . S
C444 C445 1.327 . S
C445 H439 0.950 . S
C445 C444 1.327 . S
C445 C449 1.429 . S
C446 C429 1.574 1_565 S
C446 H440 0.949 1_565 S
C446 C450 1.368 . S
C447 C428 1.429 . S
C447 C441 1.429 . S
C447 C448 1.523 1_545 S
C448 C429 1.369 1_565 S
C448 C442 1.368 . S
C448 C447 1.523 1_565 S
C449 C433 1.429 . S
C449 C445 1.429 . S
C449 C450 1.523 . S
C450 C434 1.368 . S
C450 C446 1.368 . S
C450 C449 1.523 . S
H451 C426 0.950 . S
H452 C428 0.950 1_565 S
H453 C429 0.949 . S
H454 C431 0.950 . S
H455 C433 0.950 . S
C456 C457 1.349 1_655 S
C456 C458 1.327 1_545 S
C456 H481 0.950 . S
C457 C456 1.349 1_455 S
C457 C473 1.351 . S
C458 C456 1.327 1_565 S
C458 C477 1.429 1_655 S
C458 H482 0.950 . S
C459 C476 1.574 . S
C459 C478 1.377 . S
C459 H483 0.949 . S
H460 C464 0.949 . S
C461 C462 1.349 1_455 S
C461 C463 1.327 . S
C461 H484 0.950 . S
C462 C461 1.349 1_655 S
C462 C474 1.349 . S
C463 C461 1.327 . S
C463 C479 1.429 1_455 S
C463 H485 0.950 . S
C464 H460 0.949 . S
C464 C472 1.574 . S
C464 C480 1.375 . S
H465 C473 0.952 . S
H466 C471 0.950 . S
H467 C472 0.949 . S
H468 C474 0.950 . S
H469 C475 0.950 . S
H470 C476 0.949 . S
C471 H466 0.950 . S
C471 C473 1.323 1_565 S
C471 C477 1.429 . S
C472 C464 1.574 . S
C472 H467 0.949 . S
C472 C478 1.359 1_655 S
C473 C457 1.351 . S
C473 H465 0.952 . S
C473 C471 1.323 1_545 S
C474 C462 1.349 . S
C474 H468 0.950 . S
C474 C475 1.327 . S
C475 H469 0.950 . S
C475 C474 1.327 . S
C475 C479 1.429 . S
C476 C459 1.574 . S
C476 H470 0.949 . S
C476 C480 1.361 1_455 S
C477 C458 1.429 1_455 S
C477 C471 1.429 . S
C477 C478 1.523 . S
C478 C459 1.377 . S
C478 C472 1.359 1_455 S
C478 C477 1.523 . S
C479 C463 1.429 1_655 S
C479 C475 1.429 . S
C479 C480 1.523 . S
C480 C464 1.375 . S
C480 C476 1.361 1_655 S
C480 C479 1.523 . S
H481 C456 0.950 . S
H482 C458 0.950 . S
H483 C459 0.949 . S
H484 C461 0.950 . S
H485 C463 0.950 . S
C486 C487 1.349 . S
C486 C488 1.327 . S
C486 H511 0.950 . S
C487 C486 1.349 . S
C487 C503 1.349 . S
C488 C486 1.327 . S
C488 C507 1.429 . S
C488 H512 0.950 . S
C489 C506 1.574 . S
C489 C508 1.368 . S
C489 H513 0.949 . S
H490 C494 0.949 . S
C491 C492 1.349 . S
C491 C493 1.327 . S
C491 H514 0.950 . S
C492 C491 1.349 . S
C492 C504 1.349 . S
C493 C491 1.327 . S
C493 C509 1.429 . S
C493 H515 0.950 . S
C494 H490 0.949 . S
C494 C502 1.574 . S
C494 C510 1.368 . S
H495 C503 0.950 . S
H496 C501 0.950 . S
H497 C502 0.949 . S
H498 C504 0.950 . S
H499 C505 0.950 . S
H500 C506 0.949 . S
C501 H496 0.950 . S
C501 C503 1.327 . S
C501 C507 1.429 . S
C502 C494 1.574 . S
C502 H497 0.949 . S
C502 C508 1.368 . S
C503 C487 1.349 . S
C503 H495 0.950 . S
C503 C501 1.327 . S
C504 C492 1.349 . S
C504 H498 0.950 . S
C504 C505 1.327 . S
C505 H499 0.950 . S
C505 C504 1.327 . S
C505 C509 1.429 . S
C506 C489 1.574 . S
C506 H500 0.949 . S
C506 C510 1.368 . S
C507 C488 1.429 . S
C507 C501 1.429 . S
C507 C508 1.523 . S
C508 C489 1.368 . S
C508 C502 1.368 . S
C508 C507 1.523 . S
C509 C493 1.429 . S
C509 C505 1.429 . S
C509 C510 1.523 . S
C510 C494 1.368 . S
C510 C506 1.368 . S
C510 C509 1.523 . S
H511 C486 0.950 . S
H512 C488 0.950 . S
H513 C489 0.949 . S
H514 C491 0.950 . S
H515 C493 0.950 . S
C516 C517 1.349 . S
C516 C518 1.327 . S
C516 H541 0.950 . S
C517 C516 1.349 . S
C517 C533 1.349 . S
C518 C516 1.327 . S
C518 C537 1.429 . S
C518 H542 0.950 . S
C519 C536 1.574 . S
C519 C538 1.368 . S
C519 H543 0.949 . S
H520 C524 0.949 . S
C521 C522 1.351 . S
C521 C523 1.323 1_565 S
C521 H544 0.952 . S
C522 C521 1.351 . S
C522 C534 1.349 . S
C523 C521 1.323 1_545 S
C523 C539 1.429 . S
C523 H545 0.950 . S
C524 H520 0.949 . S
C524 C532 1.574 . S
C524 C540 1.368 . S
H525 C533 0.950 . S
H526 C531 0.950 . S
H527 C532 0.949 . S
H528 C534 0.950 . S
H529 C535 0.950 . S
H530 C536 0.949 . S
C531 H526 0.950 . S
C531 C533 1.327 . S
C531 C537 1.429 . S
C532 C524 1.574 . S
C532 H527 0.949 . S
C532 C538 1.368 . S
C533 C517 1.349 . S
C533 H525 0.950 . S
C533 C531 1.327 . S
C534 C522 1.349 . S
C534 H528 0.950 . S
C534 C535 1.327 1_565 S
C535 H529 0.950 . S
C535 C534 1.327 1_545 S
C535 C539 1.429 . S
C536 C519 1.574 . S
C536 H530 0.949 . S
C536 C540 1.368 . S
C537 C518 1.429 . S
C537 C531 1.429 . S
C537 C538 1.523 . S
C538 C519 1.368 . S
C538 C532 1.368 . S
C538 C537 1.523 . S
C539 C523 1.429 . S
C539 C535 1.429 . S
C539 C540 1.523 . S
C540 C524 1.368 . S
C540 C536 1.368 . S
C540 C539 1.523 . S
H541 C516 0.950 . S
H542 C518 0.950 . S
H543 C519 0.949 . S
H544 C521 0.952 . S
H545 C523 0.950 . S
C546 C547 1.349 . S
C546 C548 1.327 . S
C546 H571 0.950 . S
C547 C546 1.349 . S
C547 C563 1.349 . S
C548 C546 1.327 . S
C548 C567 1.429 . S
C548 H572 0.950 . S
C549 C566 1.574 1_455 S
C549 C568 1.368 . S
C549 H573 0.949 . S
H550 C554 0.949 . S
C551 C552 1.349 . S
C551 C553 1.327 . S
C551 H574 0.950 . S
C552 C551 1.349 . S
C552 C564 1.349 . S
C553 C551 1.327 . S
C553 C569 1.429 . S
C553 H575 0.950 . S
C554 H550 0.949 . S
C554 C562 1.574 1_655 S
C554 C570 1.368 . S
H555 C563 0.950 . S
H556 C561 0.950 . S
H557 C562 0.949 . S
H558 C564 0.950 . S
H559 C565 0.950 . S
H560 C566 0.949 . S
C561 H556 0.950 . S
C561 C563 1.327 . S
C561 C567 1.429 . S
C562 C554 1.574 1_455 S
C562 H557 0.949 . S
C562 C568 1.368 . S
C563 C547 1.349 . S
C563 H555 0.950 . S
C563 C561 1.327 . S
C564 C552 1.349 . S
C564 H558 0.950 . S
C564 C565 1.327 . S
C565 H559 0.950 . S
C565 C564 1.327 . S
C565 C569 1.429 . S
C566 C549 1.574 1_655 S
C566 H560 0.949 . S
C566 C570 1.368 . S
C567 C548 1.429 . S
C567 C561 1.429 . S
C567 C568 1.523 . S
C568 C549 1.368 . S
C568 C562 1.368 . S
C568 C567 1.523 . S
C569 C553 1.429 . S
C569 C565 1.429 . S
C569 C570 1.523 . S
C570 C554 1.368 . S
C570 C566 1.368 . S
C570 C569 1.523 . S
H571 C546 0.950 . S
H572 C548 0.950 . S
H573 C549 0.949 . S
H574 C551 0.950 . S
H575 C553 0.950 . S
C576 C577 1.349 1_455 S
C576 C578 1.327 1_565 S
C576 H601 0.950 . S
C577 C576 1.349 1_655 S
C577 C593 1.342 1_565 S
C578 C576 1.327 1_545 S
C578 C597 1.429 1_455 S
C578 H602 0.950 . S
C579 C596 1.574 . S
C579 C598 1.368 . S
C579 H603 0.949 . S
H580 C584 0.949 . S
C581 C582 1.349 1_655 S
C581 C583 1.327 . S
C581 H604 0.950 . S
C582 C581 1.349 1_455 S
C582 C594 1.349 . S
C583 C581 1.327 . S
C583 C599 1.429 1_655 S
C583 H605 0.950 . S
C584 H580 0.949 . S
C584 C592 1.574 . S
C584 C600 1.368 . S
H585 C593 0.943 1_565 S
H586 C591 0.950 . S
H587 C592 0.949 . S
H588 C594 0.950 . S
H589 C595 0.950 . S
H590 C596 0.949 . S
C591 H586 0.950 . S
C591 C593 1.341 . S
C591 C597 1.429 . S
C592 C584 1.574 . S
C592 H587 0.949 . S
C592 C598 1.368 1_455 S
C593 C577 1.342 1_545 S
C593 H585 0.943 1_545 S
C593 C591 1.341 . S
C594 C582 1.349 . S
C594 H588 0.950 . S
C594 C595 1.327 . S
C595 H589 0.950 . S
C595 C594 1.327 . S
C595 C599 1.429 . S
C596 C579 1.574 . S
C596 H590 0.949 . S
C596 C600 1.368 1_655 S
C597 C578 1.429 1_655 S
C597 C591 1.429 . S
C597 C598 1.523 . S
C598 C579 1.368 . S
C598 C592 1.368 1_655 S
C598 C597 1.523 . S
C599 C583 1.429 1_455 S
C599 C595 1.429 . S
C599 C600 1.523 . S
C600 C584 1.368 . S
C600 C596 1.368 1_455 S
C600 C599 1.523 . S
H601 C576 0.950 . S
H602 C578 0.950 . S
H603 C579 0.949 . S
H604 C581 0.950 . S
H605 C583 0.950 . S
C606 C607 1.349 . S
C606 C608 1.327 . S
C606 H631 0.950 . S
C607 C606 1.349 . S
C607 C623 1.349 . S
C608 C606 1.327 . S
C608 C627 1.429 . S
C608 H632 0.950 . S
C609 C626 1.574 1_655 S
C609 C628 1.368 . S
C609 H633 0.949 . S
H610 C614 0.949 . S
C611 C612 1.349 . S
C611 C613 1.327 . S
C611 H634 0.950 . S
C612 C611 1.349 . S
C612 C624 1.349 . S
C613 C611 1.327 . S
C613 C629 1.429 . S
C613 H635 0.950 . S
C614 H610 0.949 . S
C614 C622 1.574 1_455 S
C614 C630 1.368 . S
H615 C623 0.950 . S
H616 C621 0.950 . S
H617 C622 0.949 . S
H618 C624 0.950 . S
H619 C625 0.950 . S
H620 C626 0.949 . S
C621 H616 0.950 . S
C621 C623 1.327 . S
C621 C627 1.429 . S
C622 C614 1.574 1_655 S
C622 H617 0.949 . S
C622 C628 1.368 . S
C623 C607 1.349 . S
C623 H615 0.950 . S
C623 C621 1.327 . S
C624 C612 1.349 . S
C624 H618 0.950 . S
C624 C625 1.327 . S
C625 H619 0.950 . S
C625 C624 1.327 . S
C625 C629 1.429 . S
C626 C609 1.574 1_455 S
C626 H620 0.949 . S
C626 C630 1.368 . S
C627 C608 1.429 . S
C627 C621 1.429 . S
C627 C628 1.523 . S
C628 C609 1.368 . S
C628 C622 1.368 . S
C628 C627 1.523 . S
C629 C613 1.429 . S
C629 C625 1.429 . S
C629 C630 1.523 . S
C630 C614 1.368 . S
C630 C626 1.368 . S
C630 C629 1.523 . S
H631 C606 0.950 . S
H632 C608 0.950 . S
H633 C609 0.949 . S
H634 C611 0.950 . S
H635 C613 0.950 . S
C636 C637 1.349 . S
C636 C638 1.327 . S
C636 H661 0.950 . S
C637 C636 1.349 . S
C637 C653 1.349 . S
C638 C636 1.327 . S
C638 C657 1.429 . S
C638 H662 0.950 . S
C639 C656 1.574 . S
C639 C658 1.368 . S
C639 H663 0.949 . S
H640 C644 0.949 . S
C641 C642 1.349 . S
C641 C643 1.327 1_545 S
C641 H664 0.950 . S
C642 C641 1.349 . S
C642 C654 1.342 1_545 S
C643 C641 1.327 1_565 S
C643 C659 1.429 . S
C643 H665 0.950 . S
C644 H640 0.949 . S
C644 C652 1.574 . S
C644 C660 1.368 . S
H645 C653 0.950 . S
H646 C651 0.950 . S
H647 C652 0.949 . S
H648 C654 0.943 1_545 S
H649 C655 0.950 . S
H650 C656 0.949 . S
C651 H646 0.950 . S
C651 C653 1.327 . S
C651 C657 1.429 . S
C652 C644 1.574 . S
C652 H647 0.949 . S
C652 C658 1.368 . S
C653 C637 1.349 . S
C653 H645 0.950 . S
C653 C651 1.327 . S
C654 C642 1.342 1_565 S
C654 H648 0.943 1_565 S
C654 C655 1.341 . S
C655 H649 0.950 . S
C655 C654 1.341 . S
C655 C659 1.429 . S
C656 C639 1.574 . S
C656 H650 0.949 . S
C656 C660 1.368 . S
C657 C638 1.429 . S
C657 C651 1.429 . S
C657 C658 1.523 . S
C658 C639 1.368 . S
C658 C652 1.368 . S
C658 C657 1.523 . S
C659 C643 1.429 . S
C659 C655 1.429 . S
C659 C660 1.523 . S
C660 C644 1.368 . S
C660 C656 1.368 . S
C660 C659 1.523 . S
H661 C636 0.950 . S
H662 C638 0.950 . S
H663 C639 0.949 . S
H664 C641 0.950 . S
H665 C643 0.950 . S
C666 C667 1.349 . S
C666 C668 1.327 . S
C666 H691 0.950 . S
C667 C666 1.349 . S
C667 C683 1.349 . S
C668 C666 1.327 . S
C668 C687 1.429 . S
C668 H692 0.950 . S
C669 C686 1.574 . S
C669 C688 1.368 . S
C669 H693 0.949 . S
H670 C674 0.949 . S
C671 C672 1.349 . S
C671 C673 1.327 . S
C671 H694 0.950 . S
C672 C671 1.349 . S
C672 C684 1.349 . S
C673 C671 1.327 . S
C673 C689 1.429 . S
C673 H695 0.950 . S
C674 H670 0.949 . S
C674 C682 1.574 . S
C674 C690 1.368 . S
H675 C683 0.950 . S
H676 C681 0.950 . S
H677 C682 0.949 . S
H678 C684 0.950 . S
H679 C685 0.950 . S
H680 C686 0.949 . S
C681 H676 0.950 . S
C681 C683 1.327 . S
C681 C687 1.429 . S
C682 C674 1.574 . S
C682 H677 0.949 . S
C682 C688 1.368 . S
C683 C667 1.349 . S
C683 H675 0.950 . S
C683 C681 1.327 . S
C684 C672 1.349 . S
C684 H678 0.950 . S
C684 C685 1.327 . S
C685 H679 0.950 . S
C685 C684 1.327 . S
C685 C689 1.429 . S
C686 C669 1.574 . S
C686 H680 0.949 . S
C686 C690 1.368 . S
C687 C668 1.429 . S
C687 C681 1.429 . S
C687 C688 1.523 . S
C688 C669 1.368 . S
C688 C682 1.368 . S
C688 C687 1.523 . S
C689 C673 1.429 . S
C689 C685 1.429 . S
C689 C690 1.523 . S
C690 C674 1.368 . S
C690 C686 1.368 . S
C690 C689 1.523 . S
H691 C666 0.950 . S
H692 C668 0.950 . S
H693 C669 0.949 . S
H694 C671 0.950 . S
H695 C673 0.950 . S
C217 C13 2.205 . S
C222 C76 2.210 . S
C247 C113 2.210 . S
C252 C67 2.206 . S
C277 C140 2.206 . S
C282 C167 2.210 . S
C307 C22 2.210 . S
C312 C194 2.206 . S
C337 C175 2.205 . S
C342 C5 2.210 . S
C367 C86 2.205 . S
C372 C130 2.210 . S
C397 C121 2.206 . S
C402 C184 2.210 . S
C427 C32 2.205 . S
C432 C59 2.210 . S
C457 C28 0.452 . S
C462 C35 0.452 . S
C487 C82 0.452 . S
C492 C89 0.452 . S
C517 C136 0.452 . S
C522 C143 0.452 . S
C547 C197 0.452 . S
C552 C190 0.452 . S
C577 C81 1.695 1_655 S
C582 C64 1.695 1_455 S
C607 C135 1.695 . S
C612 C118 1.695 . S
C637 C189 1.695 . S
C642 C172 1.695 . S
C667 C10 1.695 . S
C672 C27 1.695 . S
