# Generated by pormake.
# Topology unx, (4)-cn, num edge types: 1
# Building blocks:
#     Node 0, Type 0, BuildingBlock: QUQFOY_clean_sbu_1, # of connection points: 4
#     Node 1, Type 0, BuildingBlock: QUQFOY_clean_sbu_1, # of connection points: 4
#     Node 2, Type 0, BuildingBlock: QUQFOY_clean_sbu_1, # of connection points: 4
#     Node 3, Type 0, BuildingBlock: QUQFOY_clean_sbu_1, # of connection points: 4
#     Node 4, Type 0, BuildingBlock: QUQFOY_clean_sbu_1, # of connection points: 4
#     Node 5, Type 0, BuildingBlock: QUQFOY_clean_sbu_1, # of connection points: 4
#     Node 6, Type 0, BuildingBlock: QUQFOY_clean_sbu_1, # of connection points: 4
#     Node 7, Type 0, BuildingBlock: QUQFOY_clean_sbu_1, # of connection points: 4
#     Node 8, Type 0, BuildingBlock: QUQFOY_clean_sbu_1, # of connection points: 4
#     Node 9, Type 0, BuildingBlock: QUQFOY_clean_sbu_1, # of connection points: 4
#     Node 10, Type 0, BuildingBlock: QUQFOY_clean_sbu_1, # of connection points: 4
#     Node 11, Type 0, BuildingBlock: QUQFOY_clean_sbu_1, # of connection points: 4
#     Node 12, Type 0, BuildingBlock: QUQFOY_clean_sbu_1, # of connection points: 4
#     Node 13, Type 0, BuildingBlock: QUQFOY_clean_sbu_1, # of connection points: 4
#     Node 14, Type 0, BuildingBlock: QUQFOY_clean_sbu_1, # of connection points: 4
#     Node 15, Type 0, BuildingBlock: QUQFOY_clean_sbu_1, # of connection points: 4
#     Node 16, Type 0, BuildingBlock: QUQFOY_clean_sbu_1, # of connection points: 4
#     Node 17, Type 0, BuildingBlock: QUQFOY_clean_sbu_1, # of connection points: 4
#     Node 18, Type 0, BuildingBlock: QUQFOY_clean_sbu_1, # of connection points: 4
#     Node 19, Type 0, BuildingBlock: QUQFOY_clean_sbu_1, # of connection points: 4
#     Node 20, Type 0, BuildingBlock: QUQFOY_clean_sbu_1, # of connection points: 4
#     Node 21, Type 0, BuildingBlock: QUQFOY_clean_sbu_1, # of connection points: 4
#     Node 22, Type 0, BuildingBlock: QUQFOY_clean_sbu_1, # of connection points: 4
#     Node 23, Type 0, BuildingBlock: QUQFOY_clean_sbu_1, # of connection points: 4
#     Node 24, Type 0, BuildingBlock: QUQFOY_clean_sbu_1, # of connection points: 4
#     Node 25, Type 0, BuildingBlock: QUQFOY_clean_sbu_1, # of connection points: 4
#     Node 26, Type 0, BuildingBlock: QUQFOY_clean_sbu_1, # of connection points: 4
#     Node 27, Type 0, BuildingBlock: QUQFOY_clean_sbu_1, # of connection points: 4
#     Node 28, Type 0, BuildingBlock: QUQFOY_clean_sbu_1, # of connection points: 4
#     Node 29, Type 0, BuildingBlock: QUQFOY_clean_sbu_1, # of connection points: 4
#     Node 30, Type 0, BuildingBlock: QUQFOY_clean_sbu_1, # of connection points: 4
#     Node 31, Type 0, BuildingBlock: QUQFOY_clean_sbu_1, # of connection points: 4
#     Node 32, Type 0, BuildingBlock: QUQFOY_clean_sbu_1, # of connection points: 4
#     Node 33, Type 0, BuildingBlock: QUQFOY_clean_sbu_1, # of connection points: 4
#     Node 34, Type 0, BuildingBlock: QUQFOY_clean_sbu_1, # of connection points: 4
#     Node 35, Type 0, BuildingBlock: QUQFOY_clean_sbu_1, # of connection points: 4
#     Node 36, Type 0, BuildingBlock: QUQFOY_clean_sbu_1, # of connection points: 4
#     Node 37, Type 0, BuildingBlock: QUQFOY_clean_sbu_1, # of connection points: 4
#     Node 38, Type 0, BuildingBlock: QUQFOY_clean_sbu_1, # of connection points: 4
#     Node 39, Type 0, BuildingBlock: QUQFOY_clean_sbu_1, # of connection points: 4
#     Node 40, Type 0, BuildingBlock: QUQFOY_clean_sbu_1, # of connection points: 4
#     Node 41, Type 0, BuildingBlock: QUQFOY_clean_sbu_1, # of connection points: 4
#     Node 42, Type 0, BuildingBlock: QUQFOY_clean_sbu_1, # of connection points: 4
#     Node 43, Type 0, BuildingBlock: QUQFOY_clean_sbu_1, # of connection points: 4
#     Node 44, Type 0, BuildingBlock: QUQFOY_clean_sbu_1, # of connection points: 4
#     Node 45, Type 0, BuildingBlock: QUQFOY_clean_sbu_1, # of connection points: 4
#     Node 46, Type 0, BuildingBlock: QUQFOY_clean_sbu_1, # of connection points: 4
#     Node 47, Type 0, BuildingBlock: QUQFOY_clean_sbu_1, # of connection points: 4
#     Edge 48, Type (0, 0), BuildingBlock: CIFDUS_clean_linker_0, # of connection points: 2
#     Edge 49, Type (0, 0), BuildingBlock: CIFDUS_clean_linker_0, # of connection points: 2
#     Edge 50, Type (0, 0), BuildingBlock: CIFDUS_clean_linker_0, # of connection points: 2
#     Edge 51, Type (0, 0), BuildingBlock: CIFDUS_clean_linker_0, # of connection points: 2
#     Edge 52, Type (0, 0), BuildingBlock: CIFDUS_clean_linker_0, # of connection points: 2
#     Edge 53, Type (0, 0), BuildingBlock: CIFDUS_clean_linker_0, # of connection points: 2
#     Edge 54, Type (0, 0), BuildingBlock: CIFDUS_clean_linker_0, # of connection points: 2
#     Edge 55, Type (0, 0), BuildingBlock: CIFDUS_clean_linker_0, # of connection points: 2
#     Edge 56, Type (0, 0), BuildingBlock: CIFDUS_clean_linker_0, # of connection points: 2
#     Edge 57, Type (0, 0), BuildingBlock: CIFDUS_clean_linker_0, # of connection points: 2
#     Edge 58, Type (0, 0), BuildingBlock: CIFDUS_clean_linker_0, # of connection points: 2
#     Edge 59, Type (0, 0), BuildingBlock: CIFDUS_clean_linker_0, # of connection points: 2
#     Edge 60, Type (0, 0), BuildingBlock: CIFDUS_clean_linker_0, # of connection points: 2
#     Edge 61, Type (0, 0), BuildingBlock: CIFDUS_clean_linker_0, # of connection points: 2
#     Edge 62, Type (0, 0), BuildingBlock: CIFDUS_clean_linker_0, # of connection points: 2
#     Edge 63, Type (0, 0), BuildingBlock: CIFDUS_clean_linker_0, # of connection points: 2
#     Edge 64, Type (0, 0), BuildingBlock: CIFDUS_clean_linker_0, # of connection points: 2
#     Edge 65, Type (0, 0), BuildingBlock: CIFDUS_clean_linker_0, # of connection points: 2
#     Edge 66, Type (0, 0), BuildingBlock: CIFDUS_clean_linker_0, # of connection points: 2
#     Edge 67, Type (0, 0), BuildingBlock: CIFDUS_clean_linker_0, # of connection points: 2
#     Edge 68, Type (0, 0), BuildingBlock: CIFDUS_clean_linker_0, # of connection points: 2
#     Edge 69, Type (0, 0), BuildingBlock: CIFDUS_clean_linker_0, # of connection points: 2
#     Edge 70, Type (0, 0), BuildingBlock: CIFDUS_clean_linker_0, # of connection points: 2
#     Edge 71, Type (0, 0), BuildingBlock: CIFDUS_clean_linker_0, # of connection points: 2
#     Edge 72, Type (0, 0), BuildingBlock: CIFDUS_clean_linker_0, # of connection points: 2
#     Edge 73, Type (0, 0), BuildingBlock: CIFDUS_clean_linker_0, # of connection points: 2
#     Edge 74, Type (0, 0), BuildingBlock: CIFDUS_clean_linker_0, # of connection points: 2
#     Edge 75, Type (0, 0), BuildingBlock: CIFDUS_clean_linker_0, # of connection points: 2
#     Edge 76, Type (0, 0), BuildingBlock: CIFDUS_clean_linker_0, # of connection points: 2
#     Edge 77, Type (0, 0), BuildingBlock: CIFDUS_clean_linker_0, # of connection points: 2
#     Edge 78, Type (0, 0), BuildingBlock: CIFDUS_clean_linker_0, # of connection points: 2
#     Edge 79, Type (0, 0), BuildingBlock: CIFDUS_clean_linker_0, # of connection points: 2
#     Edge 80, Type (0, 0), BuildingBlock: CIFDUS_clean_linker_0, # of connection points: 2
#     Edge 81, Type (0, 0), BuildingBlock: CIFDUS_clean_linker_0, # of connection points: 2
#     Edge 82, Type (0, 0), BuildingBlock: CIFDUS_clean_linker_0, # of connection points: 2
#     Edge 83, Type (0, 0), BuildingBlock: CIFDUS_clean_linker_0, # of connection points: 2
#     Edge 84, Type (0, 0), BuildingBlock: CIFDUS_clean_linker_0, # of connection points: 2
#     Edge 85, Type (0, 0), BuildingBlock: CIFDUS_clean_linker_0, # of connection points: 2
#     Edge 86, Type (0, 0), BuildingBlock: CIFDUS_clean_linker_0, # of connection points: 2
#     Edge 87, Type (0, 0), BuildingBlock: CIFDUS_clean_linker_0, # of connection points: 2
#     Edge 88, Type (0, 0), BuildingBlock: CIFDUS_clean_linker_0, # of connection points: 2
#     Edge 89, Type (0, 0), BuildingBlock: CIFDUS_clean_linker_0, # of connection points: 2
#     Edge 90, Type (0, 0), BuildingBlock: CIFDUS_clean_linker_0, # of connection points: 2
#     Edge 91, Type (0, 0), BuildingBlock: CIFDUS_clean_linker_0, # of connection points: 2
#     Edge 92, Type (0, 0), BuildingBlock: CIFDUS_clean_linker_0, # of connection points: 2
#     Edge 93, Type (0, 0), BuildingBlock: CIFDUS_clean_linker_0, # of connection points: 2
#     Edge 94, Type (0, 0), BuildingBlock: CIFDUS_clean_linker_0, # of connection points: 2
#     Edge 95, Type (0, 0), BuildingBlock: CIFDUS_clean_linker_0, # of connection points: 2
#     Edge 96, Type (0, 0), BuildingBlock: CIFDUS_clean_linker_0, # of connection points: 2
#     Edge 97, Type (0, 0), BuildingBlock: CIFDUS_clean_linker_0, # of connection points: 2
#     Edge 98, Type (0, 0), BuildingBlock: CIFDUS_clean_linker_0, # of connection points: 2
#     Edge 99, Type (0, 0), BuildingBlock: CIFDUS_clean_linker_0, # of connection points: 2
#     Edge 100, Type (0, 0), BuildingBlock: CIFDUS_clean_linker_0, # of connection points: 2
#     Edge 101, Type (0, 0), BuildingBlock: CIFDUS_clean_linker_0, # of connection points: 2
#     Edge 102, Type (0, 0), BuildingBlock: CIFDUS_clean_linker_0, # of connection points: 2
#     Edge 103, Type (0, 0), BuildingBlock: CIFDUS_clean_linker_0, # of connection points: 2
#     Edge 104, Type (0, 0), BuildingBlock: CIFDUS_clean_linker_0, # of connection points: 2
#     Edge 105, Type (0, 0), BuildingBlock: CIFDUS_clean_linker_0, # of connection points: 2
#     Edge 106, Type (0, 0), BuildingBlock: CIFDUS_clean_linker_0, # of connection points: 2
#     Edge 107, Type (0, 0), BuildingBlock: CIFDUS_clean_linker_0, # of connection points: 2
#     Edge 108, Type (0, 0), BuildingBlock: CIFDUS_clean_linker_0, # of connection points: 2
#     Edge 109, Type (0, 0), BuildingBlock: CIFDUS_clean_linker_0, # of connection points: 2
#     Edge 110, Type (0, 0), BuildingBlock: CIFDUS_clean_linker_0, # of connection points: 2
#     Edge 111, Type (0, 0), BuildingBlock: CIFDUS_clean_linker_0, # of connection points: 2
#     Edge 112, Type (0, 0), BuildingBlock: CIFDUS_clean_linker_0, # of connection points: 2
#     Edge 113, Type (0, 0), BuildingBlock: CIFDUS_clean_linker_0, # of connection points: 2
#     Edge 114, Type (0, 0), BuildingBlock: CIFDUS_clean_linker_0, # of connection points: 2
#     Edge 115, Type (0, 0), BuildingBlock: CIFDUS_clean_linker_0, # of connection points: 2
#     Edge 116, Type (0, 0), BuildingBlock: CIFDUS_clean_linker_0, # of connection points: 2
#     Edge 117, Type (0, 0), BuildingBlock: CIFDUS_clean_linker_0, # of connection points: 2
#     Edge 118, Type (0, 0), BuildingBlock: CIFDUS_clean_linker_0, # of connection points: 2
#     Edge 119, Type (0, 0), BuildingBlock: CIFDUS_clean_linker_0, # of connection points: 2
#     Edge 120, Type (0, 0), BuildingBlock: CIFDUS_clean_linker_0, # of connection points: 2
#     Edge 121, Type (0, 0), BuildingBlock: CIFDUS_clean_linker_0, # of connection points: 2
#     Edge 122, Type (0, 0), BuildingBlock: CIFDUS_clean_linker_0, # of connection points: 2
#     Edge 123, Type (0, 0), BuildingBlock: CIFDUS_clean_linker_0, # of connection points: 2
#     Edge 124, Type (0, 0), BuildingBlock: CIFDUS_clean_linker_0, # of connection points: 2
#     Edge 125, Type (0, 0), BuildingBlock: CIFDUS_clean_linker_0, # of connection points: 2
#     Edge 126, Type (0, 0), BuildingBlock: CIFDUS_clean_linker_0, # of connection points: 2
#     Edge 127, Type (0, 0), BuildingBlock: CIFDUS_clean_linker_0, # of connection points: 2
#     Edge 128, Type (0, 0), BuildingBlock: CIFDUS_clean_linker_0, # of connection points: 2
#     Edge 129, Type (0, 0), BuildingBlock: CIFDUS_clean_linker_0, # of connection points: 2
#     Edge 130, Type (0, 0), BuildingBlock: CIFDUS_clean_linker_0, # of connection points: 2
#     Edge 131, Type (0, 0), BuildingBlock: CIFDUS_clean_linker_0, # of connection points: 2
#     Edge 132, Type (0, 0), BuildingBlock: CIFDUS_clean_linker_0, # of connection points: 2
#     Edge 133, Type (0, 0), BuildingBlock: CIFDUS_clean_linker_0, # of connection points: 2
#     Edge 134, Type (0, 0), BuildingBlock: CIFDUS_clean_linker_0, # of connection points: 2
#     Edge 135, Type (0, 0), BuildingBlock: CIFDUS_clean_linker_0, # of connection points: 2
#     Edge 136, Type (0, 0), BuildingBlock: CIFDUS_clean_linker_0, # of connection points: 2
#     Edge 137, Type (0, 0), BuildingBlock: CIFDUS_clean_linker_0, # of connection points: 2
#     Edge 138, Type (0, 0), BuildingBlock: CIFDUS_clean_linker_0, # of connection points: 2
#     Edge 139, Type (0, 0), BuildingBlock: CIFDUS_clean_linker_0, # of connection points: 2
#     Edge 140, Type (0, 0), BuildingBlock: CIFDUS_clean_linker_0, # of connection points: 2
#     Edge 141, Type (0, 0), BuildingBlock: CIFDUS_clean_linker_0, # of connection points: 2
#     Edge 142, Type (0, 0), BuildingBlock: CIFDUS_clean_linker_0, # of connection points: 2
#     Edge 143, Type (0, 0), BuildingBlock: CIFDUS_clean_linker_0, # of connection points: 2
# Relax obj value: 0.327
# Max RMSD: 0.121
# Mean RMSD: 0.121
data_MOF--net-unx--node1-QUQFOY_clean_sbu_1--edge1-CIFDUS_clean_linker_0
_symmetry_space_group_name_H-M    P1
_symmetry_Int_Tables_number       1
_symmetry_cell_setting            triclinic
loop_
_symmetry_equiv_pos_as_xyz
'x, y, z'
_cell_length_a     54.646614
_cell_length_b     54.673721
_cell_length_c     54.618448
_cell_angle_alpha  89.985161
_cell_angle_beta   90.028316
_cell_angle_gamma 89.983333
loop_
_atom_site_label
_atom_site_type_symbol
_atom_site_fract_x
_atom_site_fract_y
_atom_site_fract_z
_atom_type_partial_charge
O0 O 0.14966 0.52209 0.19838 0.0
Cd1 Cd 0.14812 0.53528 0.23324 0.0
Cd2 Cd 0.09398 0.51347 0.20951 0.0
O3 O 0.11759 0.5043 0.1813 0.0
O4 O 0.17993 0.55292 0.23066 0.0
O5 O 0.17466 0.52229 0.25612 0.0
C6 C 0.18927 0.53778 0.24595 0.0
C7 C 0.05253 0.50216 0.20802 0.0
C8 C 0.13985 0.51108 0.18049 0.0
C9 C 0.10395 0.56712 0.23004 0.0
O10 O 0.09347 0.54937 0.21947 0.0
O11 O 0.12551 0.56515 0.23862 0.0
O12 O 0.06241 0.51537 0.19131 0.0
O13 O 0.06677 0.49294 0.22446 0.0
O14 O 0.6752 0.32832 0.46074 0.0
Cd15 Cd 0.70644 0.34916 0.46093 0.0
Cd16 Cd 0.67937 0.3703 0.49013 0.0
O17 O 0.66574 0.33621 0.49893 0.0
O18 O 0.72863 0.32746 0.44281 0.0
O19 O 0.73127 0.33353 0.48288 0.0
C20 C 0.73701 0.32064 0.46385 0.0
C21 C 0.69256 0.40338 0.51171 0.0
C22 C 0.66383 0.32257 0.48018 0.0
C23 C 0.68415 0.39285 0.44325 0.0
O24 O 0.66779 0.38491 0.45767 0.0
O25 O 0.70529 0.3831 0.44377 0.0
O26 O 0.67001 0.39627 0.51306 0.0
O27 O 0.70851 0.3886 0.50224 0.0
O28 O 0.85379 0.94011 0.69347 0.0
Cd29 Cd 0.86261 0.94054 0.72962 0.0
Cd30 Cd 0.89463 0.97209 0.70721 0.0
O31 O 0.86321 0.9785 0.68677 0.0
O32 O 0.83366 0.92212 0.74124 0.0
O33 O 0.8393 0.96141 0.74909 0.0
C34 C 0.82484 0.94269 0.74864 0.0
C35 C 0.92796 0.99843 0.70717 0.0
C36 C 0.85066 0.95967 0.68148 0.0
C37 C 0.91021 0.92121 0.72269 0.0
O38 O 0.91012 0.9378 0.70641 0.0
O39 O 0.8934 0.92069 0.73879 0.0
O40 O 0.91952 0.98923 0.68724 0.0
O41 O 0.91564 0.99517 0.72706 0.0
O42 O 0.32639 0.15765 0.95169 0.0
Cd43 Cd 0.29459 0.13833 0.94899 0.0
Cd44 Cd 0.31875 0.11706 0.98377 0.0
O45 O 0.33106 0.15216 0.99126 0.0
O46 O 0.27594 0.1598 0.92631 0.0
O47 O 0.26829 0.15696 0.96613 0.0
C48 C 0.26539 0.16844 0.9456 0.0
C49 C 0.3054 0.08561 0.00828 0.0
C50 C 0.33497 0.16474 0.97208 0.0
C51 C 0.31718 0.09249 0.93734 0.0
O52 O 0.33228 0.10059 0.95302 0.0
O53 O 0.2965 0.103 0.935 0.0
O54 O 0.32762 0.09355 0.00987 0.0
O55 O 0.28977 0.09824 0.9957 0.0
O56 O 0.09085 0.42901 0.769 0.0
Cd57 Cd 0.1041 0.45923 0.78687 0.0
Cd58 Cd 0.13989 0.43633 0.75602 0.0
O59 O 0.11269 0.41926 0.73662 0.0
O60 O 0.0757 0.46133 0.80968 0.0
O61 O 0.08234 0.48882 0.78102 0.0
C62 C 0.06779 0.47963 0.79721 0.0
C63 C 0.17919 0.44679 0.74335 0.0
C64 C 0.0936 0.41655 0.74959 0.0
C65 C 0.14486 0.43399 0.80953 0.0
O66 O 0.1437 0.42162 0.79 0.0
O67 O 0.13345 0.45426 0.8111 0.0
O68 O 0.1714 0.42458 0.74245 0.0
O69 O 0.16349 0.46379 0.74819 0.0
O70 O 0.79132 0.40562 0.06048 0.0
Cd71 Cd 0.80257 0.38901 0.02881 0.0
Cd72 Cd 0.76696 0.36126 0.04982 0.0
O73 O 0.75293 0.39362 0.06301 0.0
O74 O 0.82841 0.41287 0.01916 0.0
O75 O 0.79258 0.41001 0.00041 0.0
C76 C 0.81258 0.42203 0.00427 0.0
C77 C 0.74776 0.3247 0.04092 0.0
C78 C 0.76971 0.40877 0.06839 0.0
C79 C 0.81663 0.34406 0.05149 0.0
O80 O 0.79927 0.35074 0.0653 0.0
O81 O 0.81961 0.35488 0.03107 0.0
O82 O 0.74672 0.33418 0.06251 0.0
O83 O 0.75605 0.3381 0.02326 0.0
O84 O 0.90161 0.06093 0.28205 0.0
Cd85 Cd 0.88897 0.02744 0.29307 0.0
Cd86 Cd 0.85317 0.05225 0.26214 0.0
O87 O 0.88192 0.07265 0.24875 0.0
O88 O 0.91687 0.02028 0.31557 0.0
O89 O 0.91085 0.00032 0.28098 0.0
C90 C 0.92507 0.00549 0.29918 0.0
C91 C 0.81483 0.04529 0.245 0.0
C92 C 0.89971 0.07492 0.2636 0.0
C93 C 0.84306 0.04353 0.3142 0.0
O94 O 0.84513 0.05955 0.29761 0.0
O95 O 0.85751 0.02526 0.31461 0.0
O96 O 0.82291 0.06711 0.24864 0.0
O97 O 0.8301 0.02738 0.24725 0.0
O98 O 0.19941 0.10145 0.57484 0.0
Cd99 Cd 0.19522 0.12353 0.54494 0.0
Cd100 Cd 0.2302 0.1428 0.56789 0.0
O101 O 0.23898 0.10744 0.57808 0.0
O102 O 0.17302 0.10319 0.52487 0.0
O103 O 0.21256 0.10829 0.51681 0.0
C104 C 0.19246 0.09622 0.51341 0.0
C105 C 0.25412 0.17427 0.55388 0.0
C106 C 0.22026 0.09433 0.58222 0.0
C107 C 0.18338 0.16691 0.57151 0.0
O108 O 0.2006 0.15859 0.58473 0.0
O109 O 0.17997 0.15785 0.55032 0.0
O110 O 0.25705 0.16553 0.57567 0.0
O111 O 0.24014 0.16255 0.53876 0.0
O112 O 0.2008 0.86047 0.46143 0.0
Cd113 Cd 0.23673 0.86982 0.4578 0.0
Cd114 Cd 0.2059 0.91405 0.4787 0.0
O115 O 0.17921 0.88744 0.48238 0.0
O116 O 0.24471 0.84011 0.43855 0.0
O117 O 0.25901 0.84581 0.47569 0.0
C118 C 0.25576 0.83137 0.45731 0.0
C119 C 0.20271 0.95237 0.49761 0.0
C120 C 0.18097 0.86694 0.47151 0.0
C121 C 0.23143 0.91419 0.42759 0.0
O122 O 0.21619 0.9212 0.44358 0.0
O123 O 0.24423 0.89503 0.43071 0.0
O124 O 0.18623 0.94445 0.48285 0.0
O125 O 0.21983 0.93738 0.50393 0.0
O126 O 0.35306 0.45444 0.69118 0.0
Cd127 Cd 0.3622 0.45149 0.72728 0.0
Cd128 Cd 0.40104 0.48071 0.7023 0.0
O129 O 0.37346 0.48621 0.67691 0.0
O130 O 0.33523 0.42881 0.73639 0.0
O131 O 0.33632 0.46698 0.74916 0.0
C132 C 0.32447 0.44668 0.74715 0.0
C133 C 0.43708 0.50363 0.70248 0.0
C134 C 0.35677 0.47018 0.67455 0.0
C135 C 0.40992 0.42855 0.72025 0.0
O136 O 0.41327 0.44567 0.70499 0.0
O137 O 0.39169 0.42889 0.73472 0.0
O138 O 0.42914 0.49333 0.68294 0.0
O139 O 0.42318 0.5035 0.72155 0.0
O140 O 0.80372 0.64426 0.93564 0.0
Cd141 Cd 0.76891 0.63344 0.9442 0.0
Cd142 Cd 0.80103 0.60173 0.9689 0.0
O143 O 0.82056 0.63426 0.97079 0.0
O144 O 0.75039 0.65961 0.92713 0.0
O145 O 0.75327 0.65747 0.96747 0.0
C146 C 0.74706 0.66967 0.94818 0.0
C147 C 0.805 0.56693 0.99295 0.0
C148 C 0.82013 0.64766 0.95171 0.0
C149 C 0.77313 0.58525 0.92501 0.0
O150 O 0.79387 0.58745 0.93519 0.0
O151 O 0.75651 0.60102 0.92893 0.0
O152 O 0.82313 0.57503 0.98023 0.0
O153 O 0.78606 0.58093 0.99526 0.0
O154 O 0.64815 0.04319 0.18698 0.0
Cd155 Cd 0.63439 0.04405 0.22172 0.0
Cd156 Cd 0.60095 0.01775 0.19089 0.0
O157 O 0.63295 0.00874 0.17273 0.0
O158 O 0.65991 0.06562 0.23618 0.0
O159 O 0.65745 0.02625 0.2447 0.0
C160 C 0.66958 0.04647 0.24582 0.0
C161 C 0.56355 0.99733 0.18869 0.0
C162 C 0.64903 0.02555 0.17195 0.0
C163 C 0.5893 0.06768 0.2083 0.0
O164 O 0.59151 0.05375 0.18989 0.0
O165 O 0.60278 0.06449 0.22704 0.0
O166 O 0.57446 0.00495 0.16927 0.0
O167 O 0.5754 0.99825 0.20914 0.0
O168 O 0.54849 0.20549 0.09281 0.0
Cd169 Cd 0.51249 0.19952 0.10056 0.0
Cd170 Cd 0.53739 0.22809 0.14329 0.0
O171 O 0.56141 0.23654 0.11524 0.0
O172 O 0.50598 0.17756 0.07214 0.0
O173 O 0.49076 0.21482 0.07465 0.0
C174 C 0.49456 0.19533 0.0619 0.0
C175 C 0.54296 0.24481 0.18246 0.0
C176 C 0.56425 0.22187 0.09741 0.0
C177 C 0.5191 0.17443 0.14703 0.0
O178 O 0.5335 0.19195 0.15172 0.0
O179 O 0.5049 0.17535 0.12862 0.0
O180 O 0.56021 0.23397 0.17086 0.0
O181 O 0.5231 0.24938 0.17054 0.0
O182 O 0.04412 0.82649 0.40085 0.0
Cd183 Cd 0.01417 0.80624 0.39166 0.0
Cd184 Cd 0.04865 0.78913 0.36077 0.0
O185 O 0.06911 0.79618 0.39229 0.0
O186 O 0.99478 0.80654 0.42246 0.0
O187 O 0.01512 0.77403 0.40914 0.0
C188 C 0.00354 0.78499 0.42667 0.0
C189 C 0.0607 0.76565 0.32716 0.0
C190 C 0.06455 0.81591 0.40389 0.0
C191 C 0.01025 0.82567 0.34415 0.0
O192 O 0.03229 0.81841 0.34449 0.0
O193 O 0.99569 0.81953 0.36126 0.0
O194 O 0.07404 0.7833 0.33516 0.0
O195 O 0.04232 0.75888 0.34038 0.0
O196 O 0.43797 0.28249 0.589 0.0
Cd197 Cd 0.46981 0.29365 0.60558 0.0
Cd198 Cd 0.44478 0.26175 0.63563 0.0
O199 O 0.42876 0.24672 0.60509 0.0
O200 O 0.47968 0.3178 0.58008 0.0
O201 O 0.49911 0.28289 0.58615 0.0
C202 C 0.49528 0.30185 0.57251 0.0
C203 C 0.45375 0.24603 0.67376 0.0
C204 C 0.42605 0.26256 0.58827 0.0
C205 C 0.4475 0.31216 0.64938 0.0
O206 O 0.43223 0.29586 0.64332 0.0
O207 O 0.46807 0.313 0.63852 0.0
O208 O 0.43172 0.24575 0.66528 0.0
O209 O 0.47141 0.25105 0.65883 0.0
O210 O 0.96125 0.69622 0.84139 0.0
Cd211 Cd 0.94856 0.73131 0.84372 0.0
Cd212 Cd 0.97403 0.70693 0.89742 0.0
O213 O 0.98177 0.67966 0.87231 0.0
O214 O 0.93076 0.73175 0.8115 0.0
O215 O 0.96278 0.75497 0.81871 0.0
C216 C 0.9468 0.74684 0.80332 0.0
C217 C 0.98893 0.70488 0.9381 0.0
C218 C 0.97314 0.67855 0.85066 0.0
C219 C 0.91966 0.72785 0.88989 0.0
O220 O 0.93827 0.71733 0.89893 0.0
O221 O 0.92019 0.73691 0.86839 0.0
O222 O 0.9747 0.68838 0.9293 0.0
O223 O 0.99643 0.72164 0.92325 0.0
O224 O 0.06377 0.71515 0.09452 0.0
Cd225 Cd 0.03486 0.70065 0.11351 0.0
Cd226 Cd 0.06099 0.73329 0.14362 0.0
O227 O 0.07231 0.75045 0.11203 0.0
O228 O 0.02407 0.67655 0.08812 0.0
O229 O 0.00355 0.71033 0.09652 0.0
C230 C 0.00711 0.6918 0.08229 0.0
C231 C 0.05325 0.7493 0.18241 0.0
C232 C 0.07399 0.736 0.09387 0.0
C233 C 0.06384 0.68121 0.15344 0.0
O234 O 0.07663 0.6999 0.14862 0.0
O235 O 0.04234 0.67937 0.14458 0.0
O236 O 0.07472 0.75051 0.17268 0.0
O237 O 0.03537 0.74193 0.16874 0.0
O238 O 0.43752 0.81139 0.10238 0.0
Cd239 Cd 0.47235 0.80648 0.11502 0.0
Cd240 Cd 0.44342 0.77905 0.14409 0.0
O241 O 0.42381 0.77483 0.11176 0.0
O242 O 0.4898 0.82258 0.08761 0.0
O243 O 0.49103 0.78266 0.09406 0.0
C244 C 0.4951 0.80101 0.07967 0.0
C245 C 0.4447 0.75448 0.17863 0.0
C246 C 0.42263 0.79402 0.09859 0.0
C247 C 0.46302 0.82674 0.16169 0.0
O248 O 0.44431 0.81335 0.15872 0.0
O249 O 0.48104 0.8248 0.14709 0.0
O250 O 0.42436 0.7636 0.1709 0.0
O251 O 0.46349 0.75569 0.16428 0.0
O252 O 0.42957 0.20952 0.84358 0.0
Cd253 Cd 0.44025 0.24381 0.85392 0.0
Cd254 Cd 0.46599 0.21263 0.88342 0.0
O255 O 0.46454 0.19152 0.85194 0.0
O256 O 0.42535 0.2629 0.82695 0.0
O257 O 0.46529 0.2572 0.83037 0.0
C258 C 0.44684 0.26427 0.81735 0.0
C259 C 0.49123 0.20667 0.91706 0.0
C260 C 0.44448 0.19209 0.8401 0.0
C261 C 0.42198 0.24023 0.9021 0.0
O262 O 0.43356 0.22023 0.90024 0.0
O263 O 0.42454 0.25669 0.88589 0.0
O264 O 0.47748 0.18942 0.90887 0.0
O265 O 0.49401 0.22583 0.90348 0.0
O266 O 0.56274 0.28506 0.4103 0.0
Cd267 Cd 0.53355 0.30273 0.39482 0.0
Cd268 Cd 0.5477 0.26618 0.36457 0.0
O269 O 0.55952 0.24785 0.39528 0.0
O270 O 0.52886 0.3283 0.42049 0.0
O271 O 0.50364 0.29706 0.41536 0.0
C272 C 0.51101 0.31525 0.42855 0.0
C273 C 0.53393 0.24989 0.32789 0.0
C274 C 0.56765 0.26239 0.41146 0.0
C275 C 0.55865 0.31615 0.35076 0.0
O276 O 0.56866 0.29565 0.35487 0.0
O277 O 0.53923 0.32185 0.36229 0.0
O278 O 0.55527 0.24477 0.33653 0.0
O279 O 0.5188 0.26137 0.34198 0.0
O280 O 0.15502 0.04192 0.68724 0.0
Cd281 Cd 0.13995 0.04939 0.72085 0.0
Cd282 Cd 0.10855 0.02021 0.69625 0.0
O283 O 0.13854 0.00635 0.67822 0.0
O284 O 0.16539 0.07245 0.73271 0.0
O285 O 0.16108 0.03489 0.74721 0.0
C286 C 0.17387 0.0547 0.74563 0.0
C287 C 0.07215 0.0014 0.70583 0.0
C288 C 0.15528 0.02213 0.67508 0.0
C289 C 0.09529 0.07099 0.70357 0.0
O290 O 0.09853 0.05504 0.68708 0.0
O291 O 0.10805 0.06999 0.723 0.0
O292 O 0.07927 0.0036 0.68344 0.0
O293 O 0.08766 0.00611 0.72309 0.0
O294 O 0.69402 0.8438 0.94903 0.0
Cd295 Cd 0.73001 0.85316 0.95137 0.0
Cd296 Cd 0.70047 0.89159 0.97505 0.0
O297 O 0.67625 0.8627 0.97986 0.0
O298 O 0.74116 0.8236 0.93349 0.0
O299 O 0.74933 0.82946 0.97256 0.0
C300 C 0.74874 0.81488 0.95398 0.0
C301 C 0.69809 0.92917 0.99525 0.0
C302 C 0.67621 0.84595 0.96368 0.0
C303 C 0.72592 0.89862 0.92528 0.0
O304 O 0.70813 0.90171 0.93987 0.0
O305 O 0.74093 0.88114 0.92846 0.0
O306 O 0.68012 0.92085 0.98255 0.0
O307 O 0.71614 0.91452 0.99956 0.0
O308 O 0.84192 0.44079 0.19028 0.0
Cd309 Cd 0.86362 0.44912 0.21944 0.0
Cd310 Cd 0.87894 0.47798 0.18797 0.0
O311 O 0.84252 0.47867 0.1771 0.0
O312 O 0.84467 0.43502 0.24663 0.0
O313 O 0.84695 0.47493 0.23897 0.0
C314 C 0.83611 0.45683 0.24978 0.0
C315 C 0.90801 0.50631 0.19681 0.0
C316 C 0.83206 0.4579 0.17806 0.0
C317 C 0.90818 0.43471 0.19713 0.0
O318 O 0.89865 0.44721 0.18 0.0
O319 O 0.89888 0.43548 0.21847 0.0
O320 O 0.89963 0.50436 0.17472 0.0
O321 O 0.89617 0.49575 0.21446 0.0
O322 O 0.30182 0.65331 0.4573 0.0
Cd323 Cd 0.26561 0.64717 0.45092 0.0
Cd324 Cd 0.29121 0.60131 0.47717 0.0
O325 O 0.31801 0.62727 0.48367 0.0
O326 O 0.26128 0.67607 0.42924 0.0
O327 O 0.24494 0.67411 0.46604 0.0
C328 C 0.24998 0.68678 0.44678 0.0
C329 C 0.29405 0.56181 0.49367 0.0
C330 C 0.31945 0.64661 0.47079 0.0
C331 C 0.2693 0.60114 0.42394 0.0
O332 O 0.28304 0.59449 0.4414 0.0
O333 O 0.25705 0.62084 0.42527 0.0
O334 O 0.31116 0.57111 0.48056 0.0
O335 O 0.27646 0.57608 0.5003 0.0
O336 O 0.0806 0.93036 0.29966 0.0
Cd337 Cd 0.1 0.96202 0.30463 0.0
Cd338 Cd 0.12454 0.93522 0.27198 0.0
O339 O 0.09009 0.92368 0.26114 0.0
O340 O 0.07766 0.97929 0.32762 0.0
O341 O 0.08178 0.98935 0.2885 0.0
C342 C 0.06966 0.99104 0.30878 0.0
C343 C 0.16062 0.94066 0.25019 0.0
C344 C 0.07556 0.92075 0.2791 0.0
C345 C 0.14386 0.93845 0.32025 0.0
O346 O 0.13536 0.9228 0.30543 0.0
O347 O 0.1347 0.95986 0.32049 0.0
O348 O 0.14975 0.91972 0.2509 0.0
O349 O 0.14902 0.95944 0.25873 0.0
O350 O 0.79056 0.91324 0.55552 0.0
Cd351 Cd 0.79151 0.9065 0.51889 0.0
Cd352 Cd 0.76304 0.86641 0.54307 0.0
O353 O 0.75916 0.8926 0.57016 0.0
O354 O 0.81174 0.93564 0.51138 0.0
O355 O 0.77345 0.93223 0.4992 0.0
C356 C 0.79258 0.94575 0.50226 0.0
C357 C 0.74082 0.82995 0.54325 0.0
C358 C 0.77545 0.90902 0.57257 0.0
C359 C 0.81457 0.85892 0.52053 0.0
O360 O 0.79772 0.85435 0.5358 0.0
O361 O 0.81435 0.87853 0.50806 0.0
O362 O 0.75355 0.83678 0.56178 0.0
O363 O 0.73774 0.84552 0.52575 0.0
O364 O 0.89767 0.54301 0.82918 0.0
Cd365 Cd 0.8869 0.50981 0.81599 0.0
Cd366 Cd 0.85985 0.54421 0.79052 0.0
O367 O 0.89359 0.56167 0.79383 0.0
O368 O 0.91243 0.48827 0.83043 0.0
O369 O 0.91081 0.49737 0.79093 0.0
C370 C 0.92267 0.48802 0.80917 0.0
C371 C 0.82779 0.55452 0.76449 0.0
C372 C 0.90391 0.56001 0.81469 0.0
C373 C 0.83788 0.5148 0.83143 0.0
O374 O 0.84168 0.53565 0.82199 0.0
O375 O 0.85319 0.49761 0.82815 0.0
O376 O 0.83717 0.57041 0.77912 0.0
O377 O 0.83913 0.53396 0.76176 0.0
O378 O 0.17078 0.60216 0.05903 0.0
Cd379 Cd 0.18681 0.61977 0.03015 0.0
Cd380 Cd 0.21365 0.63257 0.06381 0.0
O381 O 0.20685 0.59699 0.07576 0.0
O382 O 0.17974 0.59776 0.00241 0.0
O383 O 0.21652 0.6012 0.01952 0.0
C384 C 0.20156 0.58908 0.00568 0.0
C385 C 0.24656 0.65727 0.05785 0.0
C386 C 0.18465 0.59027 0.0734 0.0
C387 C 0.17777 0.66782 0.04756 0.0
O388 O 0.18572 0.65715 0.06664 0.0
O389 O 0.17917 0.65699 0.02695 0.0
O390 O 0.24096 0.65014 0.07975 0.0
O391 O 0.23688 0.64594 0.03939 0.0
O392 O 0.19721 0.34656 0.97117 0.0
Cd393 Cd 0.2308 0.35208 0.95603 0.0
Cd394 Cd 0.20711 0.40348 0.98228 0.0
O395 O 0.18238 0.37702 0.99339 0.0
O396 O 0.23187 0.32016 0.938 0.0
O397 O 0.25735 0.32879 0.96789 0.0
C398 C 0.24879 0.31295 0.95262 0.0
C399 C 0.20088 0.44384 0.99634 0.0
C400 C 0.1808 0.35537 0.98498 0.0
C401 C 0.22145 0.39727 0.92637 0.0
O402 O 0.21225 0.40678 0.94542 0.0
O403 O 0.23152 0.37626 0.92687 0.0
O404 O 0.18425 0.43186 0.98496 0.0
O405 O 0.22078 0.43238 0.00173 0.0
O406 O 0.33631 0.94181 0.19405 0.0
Cd407 Cd 0.3447 0.94664 0.23009 0.0
Cd408 Cd 0.38121 0.97313 0.20032 0.0
O409 O 0.35132 0.97495 0.17671 0.0
O410 O 0.31554 0.9288 0.24259 0.0
O411 O 0.32041 0.96849 0.24782 0.0
C412 C 0.30632 0.94955 0.24878 0.0
C413 C 0.4179 0.9947 0.19606 0.0
C414 C 0.33654 0.95694 0.17647 0.0
C415 C 0.39246 0.92508 0.22761 0.0
O416 O 0.39403 0.93929 0.20934 0.0
O417 O 0.37457 0.92678 0.2424 0.0
O418 O 0.40951 0.98115 0.17874 0.0
O419 O 0.40349 -0.0007 0.21423 0.0
O420 O 0.81202 0.15583 0.43829 0.0
Cd421 Cd 0.77849 0.14247 0.44757 0.0
Cd422 Cd 0.80871 0.11991 0.47605 0.0
O423 O 0.82721 0.15295 0.47532 0.0
O424 O 0.7588 0.16617 0.42887 0.0
O425 O 0.76093 0.16635 0.46936 0.0
C426 C 0.75526 0.17752 0.44926 0.0
C427 C 0.80711 0.08974 0.50504 0.0
C428 C 0.82732 0.16282 0.45424 0.0
C429 C 0.7895 0.09454 0.43249 0.0
O430 O 0.80866 0.10021 0.44431 0.0
O431 O 0.77065 0.10811 0.4339 0.0
O432 O 0.82785 0.09722 0.49663 0.0
O433 O 0.7878 0.1027 0.50054 0.0
O434 O 0.65551 0.56319 0.69416 0.0
Cd435 Cd 0.64618 0.56026 0.73031 0.0
Cd436 Cd 0.61629 0.52853 0.70598 0.0
O437 O 0.64718 0.52514 0.68425 0.0
O438 O 0.67494 0.57672 0.7452 0.0
O439 O 0.66799 0.53692 0.7484 0.0
C440 C 0.68279 0.55522 0.75102 0.0
C441 C 0.58191 0.50386 0.70601 0.0
C442 C 0.65887 0.54487 0.6803 0.0
C443 C 0.59738 0.57635 0.72473 0.0
O444 O 0.5997 0.56195 0.70672 0.0
O445 O 0.61391 0.57715 0.74109 0.0
O446 O 0.59015 0.51336 0.6861 0.0
O447 O 0.59596 0.50419 0.72505 0.0
O448 O 0.55756 0.67648 0.60331 0.0
Cd449 Cd 0.52865 0.69527 0.61785 0.0
Cd450 Cd 0.56447 0.71859 0.63296 0.0
O451 O 0.57829 0.71042 0.59842 0.0
O452 O 0.50254 0.68708 0.59438 0.0
O453 O 0.51992 0.7238 0.59664 0.0
C454 C 0.50676 0.70821 0.58456 0.0
C455 C 0.56497 0.75052 0.65957 0.0
C456 C 0.57416 0.68834 0.59223 0.0
C457 C 0.54102 0.68393 0.66609 0.0
O458 O 0.56134 0.68996 0.65662 0.0
O459 O 0.52128 0.68771 0.65432 0.0
O460 O 0.58527 0.7402 0.65303 0.0
O461 O 0.54563 0.74657 0.64636 0.0
O462 O 0.05412 0.33546 0.90007 0.0
Cd463 Cd 0.02299 0.32195 0.88436 0.0
Cd464 Cd 0.05459 0.29349 0.8672 0.0
O465 O 0.06889 0.29829 0.90219 0.0
O466 O 0.99713 0.33324 0.90688 0.0
O467 O 0.01031 0.29476 0.90496 0.0
C468 C 0.99834 0.31165 0.91651 0.0
C469 C 0.04964 0.25976 0.843 0.0
C470 C 0.06819 0.32009 0.91033 0.0
C471 C 0.0357 0.33129 0.83486 0.0
O472 O 0.05549 0.3221 0.84291 0.0
O473 O 0.01649 0.3302 0.84795 0.0
O474 O 0.07132 0.26724 0.84879 0.0
O475 O 0.03107 0.26873 0.85468 0.0
O476 O 0.96073 0.18663 0.33494 0.0
Cd477 Cd 0.96881 0.21945 0.35109 0.0
Cd478 Cd 0.99251 0.18787 0.37685 0.0
O479 O 0.99552 0.16888 0.34415 0.0
O480 O 0.95324 0.24106 0.32683 0.0
O481 O 0.99339 0.23805 0.33084 0.0
C482 C 0.97475 0.24519 0.31812 0.0
C483 C 0.01851 0.19308 0.40938 0.0
C484 C 0.97647 0.1701 0.33079 0.0
C485 C 0.94725 0.20815 0.39695 0.0
O486 O 0.95877 0.18845 0.39279 0.0
O487 O 0.95111 0.22685 0.3837 0.0
O488 O 0.0112 0.1715 0.40313 0.0
O489 O 0.01483 0.21094 0.39423 0.0
O490 O 0.04918 0.22232 0.60829 0.0
Cd491 Cd 0.02009 0.20208 0.59672 0.0
Cd492 Cd 0.03857 0.22943 0.65892 0.0
O493 O 0.0668 0.24283 0.63744 0.0
O494 O 0.03351 0.18292 0.56878 0.0
O495 O 0.00421 0.21046 0.56434 0.0
C496 C 0.01888 0.19471 0.55461 0.0
C497 C 0.03611 0.23965 0.70042 0.0
C498 C 0.06716 0.23493 0.61561 0.0
C499 C 0.01819 0.17471 0.64284 0.0
O500 O 0.02718 0.19399 0.65226 0.0
O501 O 0.01037 0.17477 0.62085 0.0
O502 O 0.05324 0.22581 0.69209 0.0
O503 O 0.02084 0.24885 0.68486 0.0
O504 O 0.46264 0.69235 0.34954 0.0
Cd505 Cd 0.45256 0.72646 0.36097 0.0
Cd506 Cd 0.48266 0.70017 0.40019 0.0
O507 O 0.49497 0.68022 0.37056 0.0
O508 O 0.42808 0.7325 0.33444 0.0
O509 O 0.46352 0.75169 0.33605 0.0
C510 C 0.44381 0.74653 0.3241 0.0
C511 C 0.50106 0.69868 0.43904 0.0
C512 C 0.48063 0.67796 0.35235 0.0
C513 C 0.42922 0.71182 0.40677 0.0
O514 O 0.44637 0.69627 0.40773 0.0
O515 O 0.43012 0.72945 0.39157 0.0
O516 O 0.4942 0.67929 0.42769 0.0
O517 O 0.5004 0.71903 0.42708 0.0
O518 O 0.55435 0.78621 0.89972 0.0
Cd519 Cd 0.51884 0.79667 0.89469 0.0
Cd520 Cd 0.55292 0.76987 0.84436 0.0
O521 O 0.57652 0.76469 0.87359 0.0
O522 O 0.51674 0.81944 0.92315 0.0
O523 O 0.49659 0.78457 0.922 0.0
C524 C 0.50325 0.80368 0.93413 0.0
C525 C 0.56398 0.75789 0.80459 0.0
C526 C 0.57404 0.77529 0.8942 0.0
C527 C 0.52298 0.82103 0.8465 0.0
O528 O 0.53687 0.80334 0.84088 0.0
O529 O 0.51152 0.82122 0.86676 0.0
O530 O 0.57708 0.77297 0.81695 0.0
O531 O 0.54564 0.74775 0.81544 0.0
O532 O 0.60104 0.44506 0.29092 0.0
Cd533 Cd 0.61005 0.48002 0.30034 0.0
Cd534 Cd 0.65347 0.45476 0.27306 0.0
O535 O 0.62762 0.42819 0.26548 0.0
O536 O 0.58151 0.48527 0.32237 0.0
O537 O 0.58521 0.50439 0.28709 0.0
C538 C 0.57211 0.49918 0.306 0.0
C539 C 0.69165 0.45728 0.2541 0.0
C540 C 0.60749 0.42756 0.27715 0.0
C541 C 0.65587 0.47056 0.32747 0.0
O542 O 0.66209 0.45785 0.30914 0.0
O543 O 0.63679 0.48386 0.32689 0.0
O544 O 0.68433 0.43764 0.2647 0.0
O545 O 0.67586 0.47455 0.25089 0.0
O546 O 0.31564 0.39423 0.55217 0.0
Cd547 Cd 0.31065 0.38217 0.51694 0.0
Cd548 Cd 0.28242 0.35278 0.54428 0.0
O549 O 0.27893 0.38416 0.56513 0.0
O550 O 0.32751 0.40845 0.4986 0.0
O551 O 0.28717 0.40407 0.49911 0.0
C552 C 0.30613 0.41713 0.49369 0.0
C553 C 0.25783 0.31846 0.54467 0.0
C554 C 0.29817 0.39708 0.56723 0.0
C555 C 0.32913 0.33428 0.52416 0.0
O556 O 0.3163 0.33708 0.54325 0.0
O557 O 0.32733 0.34963 0.50681 0.0
O558 O 0.26771 0.32669 0.56441 0.0
O559 O 0.25795 0.33234 0.52552 0.0
O560 O 0.40596 0.04798 0.7983 0.0
Cd561 Cd 0.39584 0.01214 0.79739 0.0
Cd562 Cd 0.35577 0.04147 0.7739 0.0
O563 O 0.38358 0.06696 0.77056 0.0
O564 O 0.42545 0.00066 0.81483 0.0
O565 O 0.41866 0.99196 0.77607 0.0
C566 C 0.4336 0.99246 0.79438 0.0
C567 C 0.31848 0.04549 0.75337 0.0
C568 C 0.40166 0.06662 0.78524 0.0
C569 C 0.35047 0.01611 0.82455 0.0
O570 O 0.34553 0.03227 0.80867 0.0
O571 O 0.36922 0.00254 0.82233 0.0
O572 O 0.32666 0.06232 0.76756 0.0
O573 O 0.333 0.0276 0.74815 0.0
O574 O 0.69691 0.09727 0.05834 0.0
Cd575 Cd 0.69484 0.11007 0.02332 0.0
Cd576 Cd 0.72369 0.1431 0.05104 0.0
O577 O 0.73285 0.11141 0.0697 0.0
O578 O 0.67253 0.08439 0.01028 0.0
O579 O 0.71166 0.08653 0.00039 0.0
C580 C 0.69136 0.07444 0.00029 0.0
C581 C 0.74561 0.17964 0.05165 0.0
C582 C 0.71562 0.09597 0.07201 0.0
C583 C 0.67317 0.15608 0.0361 0.0
O584 O 0.6881 0.15416 0.05377 0.0
O585 O 0.67514 0.14199 0.01769 0.0
O586 O 0.73824 0.16932 0.07149 0.0
O587 O 0.74361 0.16747 0.03149 0.0
O588 O 0.94265 0.28527 0.08728 0.0
Cd589 Cd 0.97745 0.2935 0.09856 0.0
Cd590 Cd 0.95219 0.26496 0.13525 0.0
O591 O 0.93055 0.25238 0.10719 0.0
O592 O 0.98393 0.31593 0.0708 0.0
O593 O 0.00276 0.28047 0.07491 0.0
C594 C 0.99736 0.29908 0.06137 0.0
C595 C 0.95379 0.24874 0.17461 0.0
C596 C 0.92797 0.26749 0.08973 0.0
C597 C 0.96383 0.31699 0.14371 0.0
O598 O 0.94717 0.30097 0.14271 0.0
O599 O 0.98179 0.31608 0.12895 0.0
O600 O 0.9334 0.25368 0.16401 0.0
O601 O 0.97335 0.24908 0.16138 0.0
O602 O 0.95142 0.82134 0.58512 0.0
Cd603 Cd 0.98088 0.80443 0.60067 0.0
Cd604 Cd 0.94511 0.7862 0.62555 0.0
O605 O 0.9284 0.78903 0.59148 0.0
O606 O 0.00546 0.80352 0.57395 0.0
O607 O 0.984 0.77114 0.58608 0.0
C608 C 0.99787 0.78147 0.56984 0.0
C609 C 0.93877 0.75979 0.65807 0.0
C610 C 0.93273 0.80867 0.57966 0.0
C611 C 0.9742 0.82585 0.64722 0.0
O612 O 0.95279 0.81846 0.64222 0.0
O613 O 0.99217 0.81914 0.634 0.0
O614 O 0.92102 0.77271 0.64941 0.0
O615 O 0.95896 0.75886 0.64574 0.0
O616 O 0.60191 0.93512 0.80105 0.0
Cd617 Cd 0.61449 0.97009 0.79754 0.0
Cd618 Cd 0.64452 0.9405 0.77011 0.0
O619 O 0.6115 0.9227 0.76411 0.0
O620 O 0.58964 0.98599 0.81859 0.0
O621 O 0.5903 0.99032 0.77836 0.0
C622 C 0.57885 0.99303 0.79887 0.0
C623 C 0.67957 0.93841 0.74636 0.0
C624 C 0.59797 0.92114 0.78298 0.0
C625 C 0.66099 0.95984 0.81794 0.0
O626 O 0.65782 0.94075 0.80512 0.0
O627 O 0.64709 0.97821 0.81486 0.0
O628 O 0.66957 0.91895 0.75507 0.0
O629 O 0.66763 0.95875 0.74798 0.0
O630 O 0.27774 0.8963 0.05263 0.0
Cd631 Cd 0.29171 0.89937 0.0182 0.0
Cd632 Cd 0.26746 0.84303 0.04461 0.0
O633 O 0.25863 0.8671 0.07258 0.0
O634 O 0.3081 0.93163 0.02297 0.0
O635 O 0.27793 0.92647 0.99674 0.0
C636 C 0.29273 0.94111 0.00789 0.0
C637 C 0.25621 0.80154 0.04544 0.0
C638 C 0.26714 0.88875 0.0718 0.0
C639 C 0.32093 0.85452 0.02023 0.0
O640 O 0.3023 0.8461 0.03122 0.0
O641 O 0.32044 0.87582 0.01079 0.0
O642 O 0.27097 0.81066 0.06136 0.0
O643 O 0.24617 0.81642 0.03006 0.0
O644 O 0.40818 0.56384 0.30481 0.0
Cd645 Cd 0.3932 0.52971 0.3025 0.0
Cd646 Cd 0.3665 0.55717 0.27371 0.0
O647 O 0.39948 0.57466 0.26717 0.0
O648 O 0.41876 0.51219 0.32111 0.0
O649 O 0.41359 0.50793 0.28112 0.0
C650 C 0.42717 0.50491 0.30029 0.0
C651 C 0.33377 0.55131 0.24784 0.0
C652 C 0.4127 0.5769 0.28618 0.0
C653 C 0.34682 0.54332 0.32156 0.0
O654 O 0.35115 0.5614 0.30764 0.0
O655 O 0.36014 0.52429 0.32009 0.0
O656 O 0.34134 0.57303 0.25302 0.0
O657 O 0.34711 0.53287 0.25434 0.0
O658 O 0.7144 0.58903 0.54983 0.0
Cd659 Cd 0.7042 0.58961 0.5139 0.0
Cd660 Cd 0.7299 0.64413 0.53642 0.0
O661 O 0.73699 0.61942 0.56418 0.0
O662 O 0.68116 0.56158 0.51659 0.0
O663 O 0.7152 0.55908 0.49531 0.0
C664 C 0.69608 0.54848 0.50415 0.0
C665 C 0.74113 0.68491 0.54408 0.0
C666 C 0.72659 0.5988 0.56698 0.0
C667 C 0.67743 0.63699 0.51137 0.0
O668 O 0.69506 0.64624 0.52324 0.0
O669 O 0.67815 0.61503 0.50379 0.0
O670 O 0.72692 0.67309 0.55845 0.0
O671 O 0.7507 0.67325 0.52595 0.0
H672 H 0.20775 0.56119 0.10707 0.0
H673 H 0.13844 0.572 0.07064 0.0
H674 H 0.11934 0.54186 0.09716 0.0
H675 H 0.12043 0.51893 0.13561 0.0
H676 H 0.18905 0.50943 0.17335 0.0
H677 H 0.21039 0.53151 0.14095 0.0
C678 C 0.18857 0.55669 0.10472 0.0
C679 C 0.17441 0.56948 0.08745 0.0
C680 C 0.17751 0.53939 0.12024 0.0
C681 C 0.14968 0.56297 0.08424 0.0
C682 C 0.1387 0.54559 0.09933 0.0
C683 C 0.1402 0.52065 0.13614 0.0
C684 C 0.15306 0.51296 0.157 0.0
C685 C 0.15216 0.5345 0.11809 0.0
C686 C 0.17872 0.51537 0.15748 0.0
C687 C 0.19089 0.52837 0.13916 0.0
H688 H 0.71175 0.41076 0.40558 0.0
H689 H 0.64318 0.42102 0.44346 0.0
H690 H 0.63059 0.45131 0.41336 0.0
H691 H 0.63605 0.46956 0.37282 0.0
H692 H 0.70347 0.45768 0.33362 0.0
H693 H 0.71979 0.43419 0.36794 0.0
C694 C 0.6942 0.41986 0.4074 0.0
C695 C 0.67817 0.41311 0.42632 0.0
C696 C 0.68685 0.43712 0.38978 0.0
C697 C 0.65565 0.42538 0.42868 0.0
C698 C 0.64844 0.44284 0.41155 0.0
C699 C 0.65467 0.46267 0.37223 0.0
C700 C 0.66842 0.46509 0.35071 0.0
C701 C 0.66348 0.44818 0.39153 0.0
C702 C 0.69248 0.45591 0.35004 0.0
C703 C 0.70172 0.44222 0.36953 0.0
H704 H 0.81005 0.93223 0.67826 0.0
H705 H 0.8521 0.98627 0.63899 0.0
H706 H 0.82794 0.97839 0.602 0.0
H707 H 0.8004 0.95099 0.57965 0.0
H708 H 0.76051 0.8949 0.61841 0.0
H709 H 0.77773 0.90932 0.65718 0.0
C710 C 0.81364 0.94256 0.66167 0.0
C711 C 0.83317 0.95934 0.661 0.0
C712 C 0.80014 0.93749 0.64051 0.0
C713 C 0.83729 0.97312 0.63976 0.0
C714 C 0.82358 0.96851 0.61865 0.0
C715 C 0.79508 0.94219 0.59665 0.0
C716 C 0.77973 0.92148 0.59616 0.0
C717 C 0.80578 0.94994 0.61859 0.0
C718 C 0.77247 0.9107 0.61831 0.0
C719 C 0.7825 0.9188 0.64041 0.0
H720 H 0.37024 0.01708 0.86962 0.0
H721 H 0.30167 0.02206 0.83104 0.0
H722 H 0.28352 0.04434 0.86527 0.0
H723 H 0.29028 0.07013 0.90157 0.0
H724 H 0.36015 0.06736 0.93845 0.0
H725 H 0.3746 0.03672 0.90963 0.0
C726 C 0.35099 0.02197 0.86929 0.0
C727 C 0.33733 0.01815 0.84791 0.0
C728 C 0.34119 0.03612 0.88835 0.0
C729 C 0.31248 0.02484 0.84745 0.0
C730 C 0.30224 0.03796 0.86682 0.0
C731 C 0.30853 0.06256 0.90349 0.0
C732 C 0.32433 0.07161 0.92166 0.0
C733 C 0.31693 0.04508 0.88661 0.0
C734 C 0.34776 0.0612 0.92425 0.0
C735 C 0.35606 0.04354 0.90784 0.0
H736 H 0.20881 0.3745 0.88455 0.0
H737 H 0.21719 0.44595 0.91676 0.0
H738 H 0.19388 0.46425 0.88317 0.0
H739 H 0.16719 0.4591 0.84686 0.0
H740 H 0.15768 0.38682 0.81648 0.0
H741 H 0.1848 0.36974 0.84726 0.0
C742 C 0.20628 0.39417 0.88374 0.0
C743 C 0.21483 0.40886 0.90293 0.0
C744 C 0.19187 0.40436 0.86509 0.0
C745 C 0.21092 0.4343 0.90199 0.0
C746 C 0.19729 0.44472 0.883 0.0
C747 C 0.17098 0.43963 0.84715 0.0
C748 C 0.16021 0.42427 0.82957 0.0
C749 C 0.18685 0.42979 0.86493 0.0
C750 C 0.16563 0.39909 0.82987 0.0
C751 C 0.18127 0.38926 0.84739 0.0
H752 H 0.75767 0.40114 0.11531 0.0
H753 H 0.77766 0.45723 0.06382 0.0
H754 H 0.79529 0.48181 0.09669 0.0
H755 H 0.81548 0.48088 0.13696 0.0
H756 H 0.79885 0.4223 0.18718 0.0
H757 H 0.76939 0.40536 0.15836 0.0
C758 C 0.76456 0.4194 0.11164 0.0
C759 C 0.76663 0.42738 0.08738 0.0
C760 C 0.77626 0.43253 0.13035 0.0
C761 C 0.77588 0.45087 0.08254 0.0
C762 C 0.7864 0.46469 0.10126 0.0
C763 C 0.80479 0.4649 0.14187 0.0
C764 C 0.80991 0.45234 0.16368 0.0
C765 C 0.78842 0.45475 0.12482 0.0
C766 C 0.79574 0.43183 0.17006 0.0
C767 C 0.77883 0.42214 0.15363 0.0
H768 H 0.77179 0.0943 0.3863 0.0
H769 H 0.81303 0.05139 0.43803 0.0
H770 H 0.83058 0.02725 0.40476 0.0
H771 H 0.84177 0.02576 0.36106 0.0
H772 H 0.802 0.07072 0.30968 0.0
H773 H 0.77631 0.08636 0.34242 0.0
C774 C 0.78378 0.07897 0.39027 0.0
C775 C 0.79159 0.07487 0.41433 0.0
C776 C 0.79473 0.06602 0.371 0.0
C777 C 0.80713 0.05501 0.41943 0.0
C778 C 0.81735 0.04138 0.40042 0.0
C779 C 0.82705 0.03845 0.35701 0.0
C780 C 0.8244 0.04776 0.33324 0.0
C781 C 0.81258 0.04787 0.37608 0.0
C782 C 0.80496 0.06389 0.32808 0.0
C783 C 0.79015 0.07283 0.34676 0.0
H784 H 0.19496 0.05267 0.57656 0.0
H785 H 0.24705 0.08821 0.62393 0.0
H786 H 0.23543 0.06103 0.65756 0.0
H787 H 0.20205 0.037 0.67555 0.0
H788 H 0.14722 0.00477 0.6289 0.0
H789 H 0.16879 0.01988 0.5927 0.0
C790 C 0.2044 0.05373 0.59402 0.0
C791 C 0.22121 0.07274 0.5982 0.0
C792 C 0.1968 0.03884 0.61343 0.0
C793 C 0.23385 0.07382 0.62051 0.0
C794 C 0.227 0.05846 0.63978 0.0
C795 C 0.19547 0.03241 0.65736 0.0
C796 C 0.17279 0.02053 0.65472 0.0
C797 C 0.20721 0.04232 0.63686 0.0
C798 C 0.16453 0.01413 0.63127 0.0
C799 C 0.17669 0.02309 0.61062 0.0
H800 H 0.11257 0.23105 0.63456 0.0
H801 H 0.07328 0.23316 0.56613 0.0
H802 H 0.10832 0.21494 0.54509 0.0
H803 H 0.14621 0.19075 0.5481 0.0
H804 H 0.18359 0.18585 0.61761 0.0
H805 H 0.15324 0.21254 0.63623 0.0
C806 C 0.11205 0.22842 0.61487 0.0
C807 C 0.09035 0.23317 0.60192 0.0
C808 C 0.13162 0.21657 0.60324 0.0
C809 C 0.08982 0.22951 0.57646 0.0
C810 C 0.10972 0.21879 0.5645 0.0
C811 C 0.14788 0.1958 0.56723 0.0
C812 C 0.16678 0.18578 0.58156 0.0
C813 C 0.13008 0.2109 0.57801 0.0
C814 C 0.16899 0.19292 0.60621 0.0
C815 C 0.15165 0.20827 0.61692 0.0
H816 H 0.06581 0.3232 0.79657 0.0
H817 H 0.00644 0.36931 0.82058 0.0
H818 H 0.01456 0.39764 0.78688 0.0
H819 H 0.04532 0.41401 0.75867 0.0
H820 H 0.10741 0.36996 0.73833 0.0
H821 H 0.09059 0.33537 0.76103 0.0
C822 C 0.05428 0.33916 0.79402 0.0
C823 C 0.03611 0.3447 0.81142 0.0
C824 C 0.0595 0.35562 0.77504 0.0
C825 C 0.02079 0.36494 0.80762 0.0
C826 C 0.02547 0.38114 0.78837 0.0
C827 C 0.05445 0.39637 0.75812 0.0
C828 C 0.07795 0.39471 0.74767 0.0
C829 C 0.04572 0.37738 0.77298 0.0
C830 C 0.08944 0.37179 0.74651 0.0
C831 C 0.08011 0.35218 0.76006 0.0
H832 H 0.85394 0.32188 0.02641 0.0
H833 H 0.81474 0.3201 0.09504 0.0
H834 H 0.84276 0.28945 0.11082 0.0
H835 H 0.88243 0.26895 0.10793 0.0
H836 H 0.92334 0.27269 0.04072 0.0
H837 H 0.89019 0.29552 0.02121 0.0
C838 C 0.85142 0.3146 0.0447 0.0
C839 C 0.83272 0.32387 0.05971 0.0
C840 C 0.86777 0.29694 0.05386 0.0
C841 C 0.82934 0.31378 0.08321 0.0
C842 C 0.84527 0.29607 0.09228 0.0
C843 C 0.88346 0.27366 0.08865 0.0
C844 C 0.90513 0.26922 0.07573 0.0
C845 C 0.86507 0.28818 0.07812 0.0
C846 C 0.9066 0.2758 0.05089 0.0
C847 C 0.88788 0.2893 0.03991 0.0
H848 H 0.94305 0.17349 0.2944 0.0
H849 H 0.99733 0.12485 0.32495 0.0
H850 H 0.98142 0.09132 0.29995 0.0
H851 H 0.94691 0.07443 0.27691 0.0
H852 H 0.89022 0.12217 0.24985 0.0
H853 H 0.9128 0.15776 0.26509 0.0
C854 C 0.95169 0.15564 0.29529 0.0
C855 C 0.97086 0.15141 0.31206 0.0
C856 C 0.94198 0.13637 0.28144 0.0
C857 C 0.98233 0.12845 0.31249 0.0
C858 C 0.97319 0.10928 0.29824 0.0
C859 C 0.93995 0.09274 0.2736 0.0
C860 C 0.91675 0.09577 0.26276 0.0
C861 C 0.95226 0.11279 0.28369 0.0
C862 C 0.90801 0.11944 0.25817 0.0
C863 C 0.92074 0.13972 0.26727 0.0
H864 H 0.13336 0.88129 0.46911 0.0
H865 H 0.18034 0.81836 0.46118 0.0
H866 H 0.14771 0.79606 0.44055 0.0
H867 H 0.10788 0.79656 0.41963 0.0
H868 H 0.06118 0.85984 0.42708 0.0
H869 H 0.09148 0.87965 0.45296 0.0
C870 C 0.13616 0.86244 0.4636 0.0
C871 C 0.15928 0.85165 0.4664 0.0
C872 C 0.11754 0.84991 0.45105 0.0
C873 C 0.1627 0.82719 0.45904 0.0
C874 C 0.14413 0.81446 0.44704 0.0
C875 C 0.10429 0.81462 0.42702 0.0
C876 C 0.08255 0.82687 0.42091 0.0
C877 C 0.12184 0.82602 0.44198 0.0
C878 C 0.07796 0.85008 0.43111 0.0
C879 C 0.09525 0.86147 0.44602 0.0
H880 H 0.47215 0.35295 0.66475 0.0
H881 H 0.40789 0.30933 0.67923 0.0
H882 H 0.39329 0.33953 0.70832 0.0
H883 H 0.39486 0.38159 0.72356 0.0
H884 H 0.45784 0.42627 0.70773 0.0
H885 H 0.4772 0.39225 0.68624 0.0
C886 C 0.45513 0.34995 0.67451 0.0
C887 C 0.44075 0.32939 0.66912 0.0
C888 C 0.44658 0.36761 0.69114 0.0
C889 C 0.419 0.32543 0.68238 0.0
C890 C 0.41064 0.34262 0.69921 0.0
C891 C 0.41325 0.3835 0.71632 0.0
C892 C 0.42477 0.40637 0.71684 0.0
C893 C 0.42372 0.36427 0.70293 0.0
C894 C 0.44856 0.40876 0.7073 0.0
C895 C 0.45951 0.38942 0.69474 0.0
H896 H 0.91375 0.71187 0.93641 0.0
H897 H 0.8728 0.7339 0.87243 0.0
H898 H 0.83656 0.71318 0.8885 0.0
H899 H 0.8196 0.68218 0.91613 0.0
H900 H 0.86224 0.65661 0.97765 0.0
H901 H 0.895 0.68511 0.96684 0.0
C902 C 0.89675 0.71264 0.92615 0.0
C903 C 0.8962 0.72384 0.90286 0.0
C904 C 0.87658 0.69937 0.93469 0.0
C905 C 0.87385 0.72522 0.89023 0.0
C906 C 0.85322 0.71306 0.89927 0.0
C907 C 0.83598 0.68292 0.92734 0.0
C908 C 0.83879 0.66677 0.94729 0.0
C909 C 0.85489 0.6989 0.92069 0.0
C910 C 0.85981 0.6685 0.96197 0.0
C911 C 0.8785 0.68483 0.95581 0.0
H912 H 0.54227 0.16981 0.19054 0.0
H913 H 0.50346 0.12805 0.13577 0.0
H914 H 0.51881 0.09011 0.15385 0.0
H915 H 0.54934 0.06994 0.17971 0.0
H916 H 0.59107 0.11198 0.23194 0.0
H917 H 0.56822 0.14885 0.22052 0.0
C918 C 0.53676 0.15238 0.18279 0.0
C919 C 0.52225 0.15174 0.16142 0.0
C920 C 0.54649 0.13081 0.1926 0.0
C921 C 0.51477 0.12906 0.15203 0.0
C922 C 0.52373 0.10739 0.16224 0.0
C923 C 0.55317 0.08712 0.18889 0.0
C924 C 0.57226 0.08848 0.20617 0.0
C925 C 0.54059 0.1082 0.18165 0.0
C926 C 0.57662 0.11059 0.21843 0.0
C927 C 0.56366 0.13165 0.21178 0.0
H928 H 0.02152 0.82489 0.29646 0.0
H929 H 0.98816 0.86977 0.35197 0.0
H930 H 0.0013 0.90663 0.33031 0.0
H931 H 0.03341 0.92422 0.30424 0.0
H932 H 0.07154 0.87848 0.2525 0.0
H933 H 0.04531 0.84392 0.26351 0.0
C934 C 0.01602 0.84281 0.30304 0.0
C935 C 0.0045 0.84477 0.32603 0.0
C936 C 0.0254 0.86373 0.29156 0.0
C937 C 0.99712 0.86786 0.33438 0.0
C938 C 0.00513 0.88893 0.32223 0.0
C939 C 0.03535 0.90687 0.29477 0.0
C940 C 0.0548 0.90354 0.27819 0.0
C941 C 0.02107 0.88689 0.30213 0.0
C942 C 0.05687 0.88133 0.26553 0.0
C943 C 0.04201 0.86153 0.27202 0.0
H944 H 0.42642 0.28075 0.54266 0.0
H945 H 0.38035 0.24297 0.59435 0.0
H946 H 0.34393 0.25841 0.57337 0.0
H947 H 0.32665 0.29159 0.54853 0.0
H948 H 0.37332 0.33326 0.50042 0.0
H949 H 0.40809 0.30723 0.51144 0.0
C950 C 0.40835 0.2751 0.54868 0.0
C951 C 0.40593 0.26134 0.57035 0.0
C952 C 0.38769 0.28541 0.53758 0.0
C953 C 0.38262 0.25367 0.57782 0.0
C954 C 0.36181 0.26287 0.56605 0.0
C955 C 0.34432 0.29454 0.53997 0.0
C956 C 0.34774 0.31474 0.52432 0.0
C957 C 0.36429 0.28021 0.5472 0.0
C958 C 0.3704 0.31803 0.51277 0.0
C959 C 0.39028 0.30324 0.51921 0.0
H960 H 0.92395 0.59803 0.7889 0.0
H961 H 0.9266 0.5614 0.85894 0.0
H962 H 0.95413 0.59247 0.87471 0.0
H963 H 0.97165 0.63338 0.87095 0.0
H964 H 0.9681 0.67102 0.80165 0.0
H965 H 0.94774 0.6359 0.78311 0.0
C966 C 0.93077 0.59673 0.80751 0.0
C967 C 0.92261 0.5778 0.82287 0.0
C968 C 0.94664 0.6148 0.81664 0.0
C969 C 0.93209 0.57607 0.8468 0.0
C970 C 0.94798 0.59379 0.85588 0.0
C971 C 0.96737 0.63351 0.85155 0.0
C972 C 0.97097 0.65489 0.83783 0.0
C973 C 0.95467 0.6137 0.84128 0.0
C974 C 0.96528 0.65478 0.81268 0.0
C975 C 0.95332 0.63483 0.80212 0.0
H976 H 0.13845 0.68603 0.02269 0.0
H977 H 0.19044 0.70331 0.07947 0.0
H978 H 0.16378 0.73557 0.0948 0.0
H979 H 0.12123 0.74868 0.09964 0.0
H980 H 0.06791 0.72861 0.04524 0.0
H981 H 0.09955 0.7089 0.02073 0.0
C982 C 0.1443 0.69755 0.03776 0.0
C983 C 0.16581 0.69181 0.05055 0.0
C984 C 0.1284 0.71552 0.04709 0.0
C985 C 0.17347 0.70699 0.06987 0.0
C986 C 0.15825 0.72545 0.07865 0.0
C987 C 0.11688 0.74135 0.08169 0.0
C988 C 0.09234 0.73939 0.07453 0.0
C989 C 0.13489 0.72853 0.06859 0.0
C990 C 0.08679 0.72999 0.0512 0.0
C991 C 0.10481 0.71826 0.03741 0.0
H992 H 0.43694 0.82511 0.2033 0.0
H993 H 0.4852 0.87181 0.16183 0.0
H994 H 0.47132 0.90724 0.18549 0.0
H995 H 0.4383 0.92541 0.20974 0.0
H996 H 0.38622 0.87901 0.2467 0.0
H997 H 0.40926 0.84283 0.23381 0.0
C998 C 0.44488 0.84299 0.19989 0.0
C999 C 0.46147 0.84611 0.18039 0.0
C1000 C 0.43587 0.86328 0.21262 0.0
C1001 C 0.4722 0.86907 0.17654 0.0
C1002 C 0.46408 0.88932 0.18993 0.0
C1003 C 0.43238 0.90737 0.21557 0.0
C1004 C 0.41019 0.90472 0.22848 0.0
C1005 C 0.4448 0.88678 0.20679 0.0
C1006 C 0.40306 0.88145 0.23655 0.0
C1007 C 0.41609 0.86078 0.2289 0.0
H1008 H 0.4261 0.22441 0.94833 0.0
H1009 H 0.37507 0.25695 0.89773 0.0
H1010 H 0.34083 0.24026 0.92126 0.0
H1011 H 0.32723 0.20659 0.94778 0.0
H1012 H 0.37887 0.17053 0.99529 0.0
H1013 H 0.41111 0.19862 0.9819 0.0
C1014 C 0.4074 0.22875 0.94317 0.0
C1015 C 0.40294 0.24131 0.9211 0.0
C1016 C 0.38804 0.21782 0.95589 0.0
C1017 C 0.37885 0.24722 0.91459 0.0
C1018 C 0.35931 0.23731 0.92784 0.0
C1019 C 0.34536 0.20557 0.95586 0.0
C1020 C 0.35103 0.18629 0.97196 0.0
C1021 C 0.36388 0.22104 0.94725 0.0
C1022 C 0.37427 0.18518 0.98274 0.0
C1023 C 0.39271 0.20108 0.97488 0.0
H1024 H 0.56696 0.27087 0.45963 0.0
H1025 H 0.61105 0.24008 0.40209 0.0
H1026 H 0.64826 0.252 0.42385 0.0
H1027 H 0.66629 0.28262 0.45138 0.0
H1028 H 0.62144 0.31734 0.50625 0.0
H1029 H 0.58653 0.29225 0.49388 0.0
C1030 C 0.58479 0.26554 0.45266 0.0
C1031 C 0.58648 0.25521 0.42916 0.0
C1032 C 0.6059 0.27409 0.4644 0.0
C1033 C 0.60942 0.24811 0.42016 0.0
C1034 C 0.63068 0.25545 0.43236 0.0
C1035 C 0.64906 0.28408 0.46114 0.0
C1036 C 0.64606 0.30233 0.47907 0.0
C1037 C 0.62894 0.27029 0.45329 0.0
C1038 C 0.62399 0.30368 0.49212 0.0
C1039 C 0.60401 0.28943 0.48493 0.0
H1040 H 0.70102 0.93125 0.82034 0.0
H1041 H 0.66068 0.9856 0.86096 0.0
H1042 H 0.68326 0.97478 0.89813 0.0
H1043 H 0.70706 0.9438 0.9201 0.0
H1044 H 0.74415 0.8868 0.88003 0.0
H1045 H 0.73097 0.90524 0.84138 0.0
C1046 C 0.69758 0.94109 0.83724 0.0
C1047 C 0.67875 0.95866 0.83821 0.0
C1048 C 0.70994 0.93415 0.85858 0.0
C1049 C 0.67488 0.97181 0.85991 0.0
C1050 C 0.68767 0.9655 0.88116 0.0
C1051 C 0.71282 0.93579 0.90286 0.0
C1052 C 0.72595 0.9136 0.90282 0.0
C1053 C 0.70415 0.94576 0.88092 0.0
C1054 C 0.73387 0.90373 0.88049 0.0
C1055 C 0.72608 0.91412 0.85842 0.0
H1056 H 0.30968 0.57589 0.32174 0.0
H1057 H 0.34027 0.51592 0.36309 0.0
H1058 H 0.31297 0.5254 0.39729 0.0
H1059 H 0.28673 0.55535 0.41772 0.0
H1060 H 0.25925 0.61758 0.37755 0.0
H1061 H 0.27817 0.60195 0.34015 0.0
C1062 C 0.31015 0.56467 0.33812 0.0
C1063 C 0.32746 0.54569 0.34024 0.0
C1064 C 0.2949 0.57062 0.35783 0.0
C1065 C 0.32737 0.53085 0.3612 0.0
C1066 C 0.3118 0.5363 0.38075 0.0
C1067 C 0.28432 0.56519 0.40063 0.0
C1068 C 0.2722 0.58795 0.40051 0.0
C1069 C 0.29638 0.55683 0.37963 0.0
C1070 C 0.26866 0.60016 0.37818 0.0
C1071 C 0.27978 0.59138 0.35687 0.0
H1072 H 0.17177 0.96779 0.34982 0.0
H1073 H 0.1634 0.89312 0.32536 0.0
H1074 H 0.19641 0.88018 0.35209 0.0
H1075 H 0.22291 0.88868 0.38688 0.0
H1076 H 0.2288 0.96214 0.41458 0.0
H1077 H 0.20285 0.97719 0.3813 0.0
C1078 C 0.1773 0.94875 0.35026 0.0
C1079 C 0.16473 0.93142 0.33601 0.0
C1080 C 0.19632 0.94126 0.36593 0.0
C1081 C 0.17245 0.90685 0.33642 0.0
C1082 C 0.19149 0.89938 0.3516 0.0
C1083 C 0.21953 0.90814 0.38486 0.0
C1084 C 0.2277 0.9243 0.40299 0.0
C1085 C 0.20308 0.91627 0.36693 0.0
C1086 C 0.22282 0.94943 0.40057 0.0
C1087 C 0.20754 0.95793 0.38189 0.0
H1088 H 0.79364 0.53566 0.8278 0.0
H1089 H 0.83812 0.49151 0.87573 0.0
H1090 H 0.81444 0.5056 0.91101 0.0
H1091 H 0.79093 0.53976 0.92812 0.0
H1092 H 0.75075 0.58789 0.88023 0.0
H1093 H 0.76222 0.56271 0.84498 0.0
C1094 C 0.79739 0.52834 0.8459 0.0
C1095 C 0.81794 0.51319 0.84944 0.0
C1096 C 0.78479 0.5378 0.8661 0.0
C1097 C 0.8225 0.50334 0.87269 0.0
C1098 C 0.80919 0.51172 0.89287 0.0
C1099 C 0.78391 0.54411 0.91003 0.0
C1100 C 0.77065 0.5659 0.90648 0.0
C1101 C 0.79176 0.5304 0.88988 0.0
C1102 C 0.76116 0.57129 0.88326 0.0
C1103 C 0.76798 0.55705 0.86311 0.0
H1104 H 0.86212 0.87216 0.51592 0.0
H1105 H 0.81521 0.81002 0.52836 0.0
H1106 H 0.84952 0.78687 0.54509 0.0
H1107 H 0.89029 0.78767 0.56392 0.0
H1108 H 0.93663 0.85072 0.55316 0.0
H1109 H 0.90533 0.86992 0.52796 0.0
C1110 C 0.8597 0.85322 0.52135 0.0
C1111 C 0.83621 0.84292 0.52131 0.0
C1112 C 0.87927 0.84039 0.53197 0.0
C1113 C 0.83319 0.81838 0.52848 0.0
C1114 C 0.85273 0.80522 0.53829 0.0
C1115 C 0.89369 0.80542 0.55573 0.0
C1116 C 0.91541 0.81804 0.56108 0.0
C1117 C 0.87546 0.81659 0.54147 0.0
C1118 C 0.91979 0.84081 0.54985 0.0
C1119 C 0.90192 0.85184 0.53535 0.0
H1120 H 0.10283 0.29362 0.93496 0.0
H1121 H 0.06746 0.36424 0.93323 0.0
H1122 H 0.09608 0.37974 0.96356 0.0
H1123 H 0.13586 0.3758 0.98355 0.0
H1124 H 0.17295 0.30623 0.9833 0.0
H1125 H 0.13848 0.28751 0.96194 0.0
C1126 C 0.10119 0.31228 0.94149 0.0
C1127 C 0.0836 0.32797 0.93117 0.0
C1128 C 0.11798 0.32128 0.95879 0.0
C1129 C 0.08131 0.35194 0.94028 0.0
C1130 C 0.09759 0.36083 0.95779 0.0
C1131 C 0.13588 0.35629 0.97991 0.0
C1132 C 0.15708 0.34254 0.9845 0.0
C1133 C 0.11668 0.34603 0.96629 0.0
C1134 C 0.15685 0.31724 0.97972 0.0
C1135 C 0.13732 0.30662 0.96709 0.0
H1136 H 0.90057 0.22355 0.39221 0.0
H1137 H 0.95111 0.19035 0.4428 0.0
H1138 H 0.91724 0.17731 0.46892 0.0
H1139 H 0.87349 0.16763 0.47218 0.0
H1140 H 0.82317 0.19753 0.41917 0.0
H1141 H 0.85638 0.21977 0.39942 0.0
C1142 C 0.90407 0.21431 0.40945 0.0
C1143 C 0.92804 0.2077 0.41564 0.0
C1144 C 0.88447 0.20574 0.42364 0.0
C1145 C 0.93261 0.19544 0.43777 0.0
C1146 C 0.91328 0.18784 0.45257 0.0
C1147 C 0.86976 0.17961 0.45679 0.0
C1148 C 0.84616 0.18055 0.44679 0.0
C1149 C 0.88911 0.19165 0.44494 0.0
C1150 C 0.84142 0.19616 0.42686 0.0
C1151 C 0.86037 0.20888 0.41553 0.0
H1152 H 0.5202 0.64013 0.67569 0.0
H1153 H 0.56544 0.69646 0.70704 0.0
H1154 H 0.584 0.66691 0.7349 0.0
H1155 H 0.596 0.62379 0.74025 0.0
H1156 H 0.5523 0.56735 0.70672 0.0
H1157 H 0.52427 0.59786 0.6904 0.0
C1158 C 0.53311 0.64608 0.68957 0.0
C1159 C 0.54193 0.6701 0.68908 0.0
C1160 C 0.54462 0.62871 0.70464 0.0
C1161 C 0.5587 0.67781 0.70702 0.0
C1162 C 0.56954 0.66086 0.72274 0.0
C1163 C 0.57974 0.6182 0.73033 0.0
C1164 C 0.57664 0.59358 0.72394 0.0
C1165 C 0.56408 0.63597 0.72024 0.0
C1166 C 0.55537 0.5864 0.71127 0.0
C1167 C 0.53935 0.60384 0.70183 0.0
H1168 H 0.42244 0.82799 0.06271 0.0
H1169 H 0.38049 0.76751 0.09134 0.0
H1170 H 0.3466 0.77803 0.0639 0.0
H1171 H 0.32683 0.80845 0.03761 0.0
H1172 H 0.36768 0.87119 0.01234 0.0
H1173 H 0.40454 0.85511 0.03191 0.0
C1174 C 0.40597 0.81692 0.06283 0.0
C1175 C 0.40366 0.79741 0.07957 0.0
C1176 C 0.38647 0.82346 0.04754 0.0
C1177 C 0.38254 0.78283 0.07894 0.0
C1178 C 0.36319 0.78887 0.06327 0.0
C1179 C 0.34392 0.81839 0.03585 0.0
C1180 C 0.34433 0.84137 0.02405 0.0
C1181 C 0.36462 0.80975 0.04831 0.0
C1182 C 0.36676 0.85363 0.02147 0.0
C1183 C 0.38777 0.84458 0.03294 0.0
H1184 H 0.42518 0.67906 0.44364 0.0
H1185 H 0.38442 0.73469 0.40495 0.0
H1186 H 0.34704 0.72197 0.42609 0.0
H1187 H 0.32538 0.69113 0.45011 0.0
H1188 H 0.36563 0.63299 0.48547 0.0
H1189 H 0.4041 0.65115 0.47153 0.0
C1190 C 0.40818 0.68863 0.43994 0.0
C1191 C 0.40744 0.70741 0.42223 0.0
C1192 C 0.38676 0.68072 0.45151 0.0
C1193 C 0.38541 0.71998 0.4182 0.0
C1194 C 0.36406 0.71267 0.43024 0.0
C1195 C 0.34258 0.68256 0.45514 0.0
C1196 C 0.34263 0.66036 0.46832 0.0
C1197 C 0.3644 0.69243 0.44612 0.0
C1198 C 0.36506 0.64992 0.47518 0.0
C1199 C 0.38703 0.66019 0.46702 0.0
H1200 H 0.67545 0.80457 0.93683 0.0
H1201 H 0.62924 0.85062 0.98143 0.0
H1202 H 0.59315 0.82813 0.96718 0.0
H1203 H 0.57483 0.80088 0.93676 0.0
H1204 H 0.62115 0.75849 0.88866 0.0
H1205 H 0.65732 0.77377 0.9101 0.0
C1206 C 0.65751 0.8096 0.9437 0.0
C1207 C 0.65492 0.82973 0.95966 0.0
C1208 C 0.63694 0.79734 0.93466 0.0
C1209 C 0.63167 0.83545 0.96892 0.0
C1210 C 0.61107 0.82266 0.96066 0.0
C1211 C 0.59279 0.79456 0.93115 0.0
C1212 C 0.59528 0.77898 0.91067 0.0
C1213 C 0.61346 0.80439 0.94269 0.0
C1214 C 0.61869 0.77068 0.9041 0.0
C1215 C 0.63937 0.77955 0.91626 0.0
H1216 H 0.70969 0.55351 0.57798 0.0
H1217 H 0.73701 0.6197 0.61141 0.0
H1218 H 0.72077 0.60657 0.65093 0.0
H1219 H 0.69274 0.5802 0.67376 0.0
H1220 H 0.66278 0.51556 0.63967 0.0
H1221 H 0.68621 0.52423 0.60246 0.0
C1222 C 0.7126 0.56486 0.59402 0.0
C1223 C 0.72408 0.58785 0.59162 0.0
C1224 C 0.70227 0.55773 0.61637 0.0
C1225 C 0.72813 0.60203 0.61267 0.0
C1226 C 0.71859 0.59465 0.63522 0.0
C1227 C 0.69148 0.56784 0.65828 0.0
C1228 C 0.67555 0.5476 0.65919 0.0
C1229 C 0.70458 0.57319 0.63692 0.0
C1230 C 0.67465 0.53142 0.63927 0.0
C1231 C 0.68801 0.5364 0.61802 0.0
H1232 H 0.29968 0.92406 0.17495 0.0
H1233 H 0.33616 0.9786 0.13089 0.0
H1234 H 0.31283 0.96517 0.09499 0.0
H1235 H 0.28742 0.93392 0.07538 0.0
H1236 H 0.25456 0.87676 0.11902 0.0
H1237 H 0.27063 0.89585 0.15615 0.0
C1238 C 0.30248 0.93322 0.15755 0.0
C1239 C 0.32016 0.95191 0.15544 0.0
C1240 C 0.28963 0.92492 0.13699 0.0
C1241 C 0.32297 0.96396 0.13293 0.0
C1242 C 0.30966 0.95624 0.11242 0.0
C1243 C 0.28331 0.92581 0.09303 0.0
C1244 C 0.27022 0.90355 0.09434 0.0
C1245 C 0.2937 0.93612 0.1141 0.0
C1246 C 0.26472 0.89369 0.11742 0.0
C1247 C 0.27413 0.90448 0.13864 0.0
H1248 H 0.31283 0.44877 0.66827 0.0
H1249 H 0.37192 0.48266 0.62839 0.0
H1250 H 0.35638 0.46514 0.59019 0.0
H1251 H 0.33062 0.43435 0.56997 0.0
H1252 H 0.27291 0.39875 0.61047 0.0
H1253 H 0.28325 0.4229 0.64672 0.0
C1254 C 0.32197 0.45281 0.6511 0.0
C1255 C 0.34375 0.46657 0.65115 0.0
C1256 C 0.31348 0.44194 0.6295 0.0
C1257 C 0.35518 0.47208 0.62881 0.0
C1258 C 0.34645 0.4618 0.60704 0.0
C1259 C 0.3201 0.43207 0.58666 0.0
C1260 C 0.30143 0.41433 0.58778 0.0
C1261 C 0.32639 0.44573 0.60744 0.0
C1262 C 0.28754 0.41205 0.60926 0.0
C1263 C 0.29349 0.42581 0.62998 0.0
H1264 H 0.69161 0.05036 0.1723 0.0
H1265 H 0.646 0.00548 0.12601 0.0
H1266 H 0.6683 0.01983 0.08992 0.0
H1267 H 0.69332 0.05223 0.07162 0.0
H1268 H 0.73572 0.10016 0.11782 0.0
H1269 H 0.72257 0.07717 0.154 0.0
C1270 C 0.68694 0.04326 0.15434 0.0
C1271 C 0.66671 0.0275 0.15163 0.0
C1272 C 0.69905 0.05245 0.13372 0.0
C1273 C 0.66128 0.01785 0.12847 0.0
C1274 C 0.67389 0.02624 0.10785 0.0
C1275 C 0.70019 0.05722 0.08959 0.0
C1276 C 0.71488 0.07821 0.09228 0.0
C1277 C 0.69167 0.04466 0.11021 0.0
C1278 C 0.72422 0.0842 0.11541 0.0
C1279 C 0.71649 0.07121 0.13607 0.0
H1280 H 0.57066 0.20308 0.0523 0.0
H1281 H 0.60984 0.23728 0.11176 0.0
H1282 H 0.64863 0.223 0.09452 0.0
H1283 H 0.66981 0.19388 0.06776 0.0
H1284 H 0.62992 0.15666 0.01058 0.0
H1285 H 0.59288 0.17926 0.0216 0.0
C1286 C 0.58776 0.2079 0.06119 0.0
C1287 C 0.58742 0.22065 0.08361 0.0
C1288 C 0.60972 0.19866 0.05184 0.0
C1289 C 0.60964 0.22733 0.09461 0.0
C1290 C 0.63177 0.21892 0.0849 0.0
C1291 C 0.65309 0.19096 0.05744 0.0
C1292 C 0.65236 0.1731 0.03884 0.0
C1293 C 0.63181 0.20342 0.06436 0.0
C1294 C 0.63083 0.17004 0.02518 0.0
C1295 C 0.60966 0.18288 0.03155 0.0
H1296 H 0.53756 0.35456 0.32677 0.0
H1297 H 0.60529 0.31453 0.33375 0.0
H1298 H 0.62538 0.34277 0.30578 0.0
H1299 H 0.62529 0.38211 0.28422 0.0
H1300 H 0.55818 0.42303 0.27835 0.0
H1301 H 0.53605 0.39074 0.2999 0.0
C1302 C 0.55667 0.352 0.32205 0.0
C1303 C 0.57003 0.33285 0.33278 0.0
C1304 C 0.56816 0.36827 0.30578 0.0
C1305 C 0.59464 0.32936 0.32603 0.0
C1306 C 0.60616 0.34543 0.30992 0.0
C1307 C 0.60563 0.38338 0.28666 0.0
C1308 C 0.59336 0.40482 0.27979 0.0
C1309 C 0.5933 0.36533 0.30019 0.0
C1310 C 0.56793 0.40653 0.28343 0.0
C1311 C 0.55537 0.38828 0.29612 0.0
H1312 H 0.46541 0.14703 0.83517 0.0
H1313 H 0.40741 0.19266 0.80695 0.0
H1314 H 0.39114 0.15842 0.78363 0.0
H1315 H 0.38971 0.11417 0.77625 0.0
H1316 H 0.44703 0.0683 0.80541 0.0
H1317 H 0.46736 0.1039 0.82281 0.0
C1318 C 0.44946 0.14955 0.82361 0.0
C1319 C 0.4373 0.17215 0.82333 0.0
C1320 C 0.43991 0.12965 0.81047 0.0
C1321 C 0.41681 0.17524 0.80799 0.0
C1322 C 0.40748 0.15569 0.79455 0.0
C1323 C 0.40698 0.11208 0.78583 0.0
C1324 C 0.41655 0.08864 0.78994 0.0
C1325 C 0.41832 0.13258 0.79639 0.0
C1326 C 0.43903 0.08619 0.80234 0.0
C1327 C 0.45067 0.10651 0.8124 0.0
H1328 H 0.91533 0.38953 0.21594 0.0
H1329 H 0.94454 0.44123 0.16408 0.0
H1330 H 0.96965 0.40921 0.14555 0.0
H1331 H 0.97592 0.36511 0.13853 0.0
H1332 H 0.94366 0.31329 0.18853 0.0
H1333 H 0.92746 0.34648 0.21343 0.0
C1334 C 0.9278 0.39387 0.20111 0.0
C1335 C 0.92782 0.41741 0.191 0.0
C1336 C 0.94128 0.37516 0.18985 0.0
C1337 C 0.94399 0.42297 0.17179 0.0
C1338 C 0.95826 0.40468 0.16114 0.0
C1339 C 0.96606 0.36121 0.15531 0.0
C1340 C 0.96054 0.33696 0.16146 0.0
C1341 C 0.95597 0.38044 0.1691 0.0
C1342 C 0.94773 0.33197 0.18325 0.0
C1343 C 0.9384 0.35091 0.19748 0.0
H1344 H 0.06065 0.07253 0.66822 0.0
H1345 H 0.08876 0.1133 0.72979 0.0
H1346 H 0.06224 0.14778 0.71913 0.0
H1347 H 0.03642 0.16827 0.6887 0.0
H1348 H 0.01073 0.12819 0.62556 0.0
H1349 H 0.03029 0.09116 0.64103 0.0
C1350 C 0.06089 0.0889 0.67945 0.0
C1351 C 0.07719 0.09067 0.69936 0.0
C1352 C 0.04596 0.10871 0.67296 0.0
C1353 C 0.07672 0.11167 0.71412 0.0
C1354 C 0.06154 0.13136 0.70803 0.0
C1355 C 0.03458 0.15132 0.67854 0.0
C1356 C 0.02262 0.15121 0.65564 0.0
C1357 C 0.04683 0.13039 0.68695 0.0
C1358 C 0.02001 0.12893 0.64307 0.0
C1359 C 0.03144 0.10778 0.65178 0.0
H1360 H 0.55927 0.92235 0.81346 0.0
H1361 H 0.59362 0.87767 0.75815 0.0
H1362 H 0.56721 0.84327 0.76946 0.0
H1363 H 0.54109 0.8242 0.80047 0.0
H1364 H 0.51024 0.86809 0.8585 0.0
H1365 H 0.52776 0.90484 0.84006 0.0
C1366 C 0.56073 0.90518 0.8036 0.0
C1367 C 0.57886 0.90222 0.78551 0.0
C1368 C 0.5461 0.88541 0.81074 0.0
C1369 C 0.58005 0.88022 0.77237 0.0
C1370 C 0.56502 0.86057 0.77891 0.0
C1371 C 0.53762 0.8419 0.80877 0.0
C1372 C 0.525 0.84333 0.83126 0.0
C1373 C 0.54893 0.86265 0.79889 0.0
C1374 C 0.5201 0.86642 0.84138 0.0
C1375 C 0.5304 0.8874 0.831 0.0
H1376 H 0.45194 0.5761 0.31599 0.0
H1377 H 0.41596 0.62033 0.26132 0.0
H1378 H 0.4407 0.65562 0.27348 0.0
H1379 H 0.46464 0.67538 0.30585 0.0
H1380 H 0.49706 0.63185 0.36321 0.0
H1381 H 0.48251 0.59454 0.34323 0.0
C1382 C 0.44991 0.59336 0.30638 0.0
C1383 C 0.43166 0.59595 0.28834 0.0
C1384 C 0.46352 0.61364 0.31407 0.0
C1385 C 0.42966 0.61806 0.27549 0.0
C1386 C 0.4437 0.63824 0.28254 0.0
C1387 C 0.4692 0.65764 0.31354 0.0
C1388 C 0.48126 0.65629 0.33631 0.0
C1389 C 0.45955 0.63652 0.30275 0.0
C1390 C 0.48762 0.63332 0.34583 0.0
C1391 C 0.47898 0.61203 0.33458 0.0
H1392 H 0.63448 0.61774 0.52504 0.0
H1393 H 0.66906 0.6856 0.50496 0.0
H1394 H 0.6377 0.70858 0.5271 0.0
H1395 H 0.60586 0.70859 0.55915 0.0
H1396 H 0.57372 0.63992 0.58135 0.0
H1397 H 0.59886 0.61813 0.5519 0.0
C1398 C 0.63442 0.63758 0.5245 0.0
C1399 C 0.65398 0.64999 0.51349 0.0
C1400 C 0.61738 0.65052 0.53866 0.0
C1401 C 0.65401 0.67571 0.51325 0.0
C1402 C 0.63638 0.68882 0.52633 0.0
C1403 C 0.60423 0.6889 0.55735 0.0
C1404 C 0.58835 0.6759 0.57284 0.0
C1405 C 0.61892 0.67632 0.54037 0.0
C1406 C 0.58607 0.65042 0.56994 0.0
C1407 C 0.60036 0.63787 0.55298 0.0
H1408 H 0.95412 0.82205 0.69158 0.0
H1409 H 0.99755 0.87005 0.64663 0.0
H1410 H 0.98494 0.90508 0.67161 0.0
H1411 H 0.95331 0.92239 0.69847 0.0
H1412 H 0.90656 0.87436 0.74022 0.0
H1413 H 0.929 0.8389 0.72472 0.0
C1414 C 0.96162 0.84009 0.68797 0.0
C1415 C 0.97638 0.84372 0.66719 0.0
C1416 C 0.95311 0.86014 0.70146 0.0
C1417 C 0.98622 0.86693 0.6626 0.0
C1418 C 0.97864 0.88697 0.67664 0.0
C1419 C 0.94843 0.90417 0.70467 0.0
C1420 C 0.92782 0.90088 0.71985 0.0
C1421 C 0.96077 0.88391 0.69492 0.0
C1422 C 0.92211 0.87732 0.72829 0.0
C1423 C 0.93485 0.85705 0.71929 0.0
H1424 H 0.03994 0.64677 0.18095 0.0
H1425 H 0.11184 0.67454 0.16361 0.0
H1426 H 0.13046 0.64497 0.19108 0.0
H1427 H 0.12691 0.60839 0.21642 0.0
H1428 H 0.05565 0.57875 0.23235 0.0
H1429 H 0.0362 0.6124 0.21015 0.0
C1430 C 0.05965 0.64627 0.1832 0.0
C1431 C 0.07445 0.66257 0.16993 0.0
C1432 C 0.07039 0.62918 0.19923 0.0
C1433 C 0.09998 0.66205 0.17342 0.0
C1434 C 0.11071 0.64523 0.18926 0.0
C1435 C 0.10712 0.6099 0.21592 0.0
C1436 C 0.09273 0.59126 0.22605 0.0
C1437 C 0.09616 0.62846 0.20197 0.0
C1438 C 0.06707 0.5931 0.22483 0.0
C1439 C 0.05597 0.61208 0.21176 0.0
H1440 H 0.22304 0.56587 0.22321 0.0
H1441 H 0.21604 0.50696 0.27537 0.0
H1442 H 0.2607 0.50356 0.27767 0.0
H1443 H 0.3017 0.5184 0.26576 0.0
H1444 H 0.30807 0.57862 0.21522 0.0
H1445 H 0.26354 0.57988 0.21064 0.0
C1446 C 0.2312 0.55233 0.23521 0.0
C1447 C 0.21617 0.53682 0.24927 0.0
C1448 C 0.25676 0.55035 0.23624 0.0
C1449 C 0.22716 0.51929 0.26455 0.0
C1450 C 0.25269 0.5172 0.2657 0.0
C1451 C 0.29332 0.53125 0.25315 0.0
C1452 C 0.30808 0.54804 0.24035 0.0
C1453 C 0.26767 0.53261 0.25156 0.0
C1454 C 0.29704 0.56524 0.22482 0.0
C1455 C 0.27161 0.56616 0.22248 0.0
H1456 H 0.66007 0.44029 0.51424 0.0
H1457 H 0.73767 0.42578 0.51293 0.0
H1458 H 0.74586 0.46967 0.50831 0.0
H1459 H 0.73052 0.51224 0.50342 0.0
H1460 H 0.65263 0.52519 0.50345 0.0
H1461 H 0.64499 0.48162 0.50881 0.0
C1462 C 0.67886 0.44665 0.51347 0.0
C1463 C 0.69824 0.42974 0.51435 0.0
C1464 C 0.68333 0.47159 0.50976 0.0
C1465 C 0.72241 0.43843 0.51273 0.0
C1466 C 0.72708 0.46348 0.50973 0.0
C1467 C 0.71192 0.50537 0.50411 0.0
C1468 C 0.69213 0.52183 0.50282 0.0
C1469 C 0.70763 0.48021 0.50778 0.0
C1470 C 0.66812 0.51283 0.50426 0.0
C1471 C 0.66374 0.48797 0.50756 0.0
H1472 H 0.78996 0.91046 0.73495 0.0
H1473 H 0.79937 0.98199 0.76697 0.0
H1474 H 0.75498 0.98841 0.76585 0.0
H1475 H 0.71342 0.97319 0.75636 0.0
H1476 H 0.70471 0.90141 0.72486 0.0
H1477 H 0.74911 0.89597 0.72427 0.0
C1478 C 0.78236 0.92735 0.74205 0.0
C1479 C 0.798 0.94554 0.75147 0.0
C1480 C 0.75701 0.93114 0.74075 0.0
C1481 C 0.78775 0.96752 0.76002 0.0
C1482 C 0.7624 0.97131 0.75911 0.0
C1483 C 0.72132 0.95668 0.74869 0.0
C1484 C 0.70587 0.93786 0.74025 0.0
C1485 C 0.74686 0.95329 0.74935 0.0
C1486 C 0.71627 0.91625 0.73109 0.0
C1487 C 0.74162 0.91302 0.73107 0.0
H1488 H 0.27608 0.05334 0.98477 0.0
H1489 H 0.32473 0.0603 0.04656 0.0
H1490 H 0.32471 0.0159 0.05194 0.0
H1491 H 0.31408 0.97518 0.03677 0.0
H1492 H 0.26677 0.96764 0.97394 0.0
H1493 H 0.26338 0.01224 0.97097 0.0
C1494 C 0.28603 0.04517 -0.00011 0.0
C1495 C 0.30013 0.0601 0.0155 0.0
C1496 C 0.28679 0.01953 0.00218 0.0
C1497 C 0.31352 0.04921 0.03454 0.0
C1498 C 0.31374 0.02382 0.03742 0.0
C1499 C 0.30308 0.98324 0.02232 0.0
C1500 C 0.29101 0.96807 0.00534 0.0
C1501 C 0.30109 0.0088 0.02087 0.0
C1502 C 0.27647 0.97888 0.98707 0.0
C1503 C 0.27442 0.00438 0.98546 0.0
H1504 H 0.21503 0.41424 0.75195 0.0
H1505 H 0.2031 0.49049 0.73559 0.0
H1506 H 0.24733 0.49808 0.7385 0.0
H1507 H 0.28962 0.48227 0.74419 0.0
H1508 H 0.30022 0.40587 0.76088 0.0
H1509 H 0.2561 0.39926 0.76019 0.0
C1510 C 0.22205 0.43252 0.74873 0.0
C1511 C 0.20585 0.45167 0.74298 0.0
C1512 C 0.24722 0.43679 0.75108 0.0
C1513 C 0.21525 0.47536 0.73962 0.0
C1514 C 0.24049 0.47971 0.74149 0.0
C1515 C 0.28217 0.46437 0.74837 0.0
C1516 C 0.29812 0.44459 0.75277 0.0
C1517 C 0.25668 0.46053 0.74721 0.0
C1518 C 0.28829 0.42137 0.75761 0.0
C1519 C 0.26309 0.41753 0.75696 0.0
H1520 H 0.77793 0.45623 0.01007 0.0
H1521 H 0.85246 0.44635 0.98644 0.0
H1522 H 0.85741 0.49083 0.98274 0.0
H1523 H 0.8405 0.53242 0.9868 0.0
H1524 H 0.76664 0.54203 0.01317 0.0
H1525 H 0.76176 0.49774 0.01614 0.0
C1526 C 0.79504 0.46385 0.0035 0.0
C1527 C 0.81455 0.44811 0.99764 0.0
C1528 C 0.79809 0.48936 0.0027 0.0
C1529 C 0.83702 0.45815 0.99033 0.0
C1530 C 0.83991 0.48355 0.98856 0.0
C1531 C 0.82345 0.52489 0.9936 0.0
C1532 C 0.80397 0.54066 -0.0002 0.0
C1533 C 0.82064 0.49934 0.99496 0.0
C1534 C 0.78202 0.53044 0.00847 0.0
C1535 C 0.77909 0.50507 0.00987 0.0
H1536 H 0.77912 0.07623 0.25891 0.0
H1537 H 0.79056 0.00421 0.2288 0.0
H1538 H 0.74625 0.99672 0.22978 0.0
H1539 H 0.70409 0.01164 0.23769 0.0
H1540 H 0.69368 0.08388 0.2676 0.0
H1541 H 0.73794 0.08996 0.26912 0.0
C1542 C 0.77197 0.05897 0.25222 0.0
C1543 C 0.78809 0.04103 0.24317 0.0
C1544 C 0.74671 0.05463 0.25345 0.0
C1545 C 0.7785 0.0185 0.23539 0.0
C1546 C 0.75321 0.01414 0.23618 0.0
C1547 C 0.71159 0.02838 0.24525 0.0
C1548 C 0.69568 0.04721 0.25283 0.0
C1549 C 0.73712 0.0321 0.24517 0.0
C1550 C 0.70558 0.06907 0.26194 0.0
C1551 C 0.73086 0.07266 0.2625 0.0
H1552 H 0.22657 0.06237 0.52297 0.0
H1553 H 0.15841 0.07345 0.48485 0.0
H1554 H 0.15507 0.02931 0.47757 0.0
H1555 H 0.17056 0.98767 0.48396 0.0
H1556 H 0.23751 0.97644 0.52446 0.0
H1557 H 0.24189 0.02065 0.52971 0.0
C1558 C 0.21141 0.05516 0.51237 0.0
C1559 C 0.19315 0.07112 0.50369 0.0
C1560 C 0.20899 0.02976 0.50949 0.0
C1561 C 0.17298 0.06151 0.49104 0.0
C1562 C 0.17092 0.0363 0.48724 0.0
C1563 C 0.18603 0.99483 0.49414 0.0
C1564 C 0.20365 0.97871 0.50389 0.0
C1565 C 0.18856 0.02024 0.49683 0.0
C1566 C 0.22358 0.98838 0.51694 0.0
C1567 C 0.22623 0.01367 0.51971 0.0
H1568 H 0.23201 0.20755 0.52411 0.0
H1569 H 0.2925 0.19825 0.57412 0.0
H1570 H 0.29803 0.24246 0.57606 0.0
H1571 H 0.28331 0.28338 0.56697 0.0
H1572 H 0.22393 0.29411 0.51612 0.0
H1573 H 0.21981 0.24949 0.5115 0.0
C1574 C 0.2469 0.2152 0.53479 0.0
C1575 C 0.26188 0.19965 0.54896 0.0
C1576 C 0.24952 0.24077 0.53638 0.0
C1577 C 0.28082 0.20982 0.56301 0.0
C1578 C 0.28379 0.2351 0.56437 0.0
C1579 C 0.26922 0.276 0.55506 0.0
C1580 C 0.25334 0.29192 0.54254 0.0
C1581 C 0.26768 0.25067 0.55188 0.0
C1582 C 0.23591 0.28214 0.5264 0.0
C1583 C 0.23377 0.25669 0.52361 0.0
H1584 H 0.0326 0.45811 0.8247 0.0
H1585 H 0.0435 0.51526 0.77128 0.0
H1586 H 0.99916 0.52115 0.76837 0.0
H1587 H 0.95715 0.50952 0.78067 0.0
H1588 H 0.94691 0.45297 0.83475 0.0
H1589 H 0.99118 0.44679 0.83711 0.0
C1590 C 0.02539 0.47213 0.81264 0.0
C1591 C 0.04147 0.48636 0.79837 0.0
C1592 C -7e-05 0.47502 0.81068 0.0
C1593 C 0.03163 0.50423 0.78269 0.0
C1594 C 0.00624 0.50741 0.78081 0.0
C1595 C 0.96463 0.49546 0.79253 0.0
C1596 C 0.94879 0.48132 0.80715 0.0
C1597 C 0.99019 0.49266 0.79446 0.0
C1598 C 0.95873 0.46376 0.82305 0.0
C1599 C 0.98403 0.46043 0.82459 0.0
H1600 H 0.7525 0.29109 0.07637 0.0
H1601 H 0.73902 0.29813 0.99889 0.0
H1602 H 0.7398 0.25337 0.99465 0.0
H1603 H 0.74365 0.21217 0.01358 0.0
H1604 H 0.75911 0.20668 0.09092 0.0
H1605 H 0.75902 0.25106 0.09441 0.0
C1606 C 0.74932 0.28291 0.05855 0.0
C1607 C 0.74503 0.29791 0.03807 0.0
C1608 C 0.75078 0.25745 0.05616 0.0
C1609 C 0.74183 0.28695 0.01502 0.0
C1610 C 0.74254 0.26139 0.01258 0.0
C1611 C 0.74763 0.22072 0.03104 0.0
C1612 C 0.75144 0.20608 0.05197 0.0
C1613 C 0.74714 0.24644 0.03305 0.0
C1614 C 0.75621 0.21747 0.07453 0.0
C1615 C 0.7559 0.24286 0.07661 0.0
H1616 H 0.96042 0.01943 0.3315 0.0
H1617 H 0.94914 0.97716 0.26568 0.0
H1618 H 0.99331 0.97181 0.26138 0.0
H1619 H 0.03515 0.97946 0.27598 0.0
H1620 H 0.04658 0.01926 0.34306 0.0
H1621 H 0.00232 0.02609 0.34678 0.0
C1622 C 0.96755 0.00873 0.31639 0.0
C1623 C 0.95136 0.9986 0.29899 0.0
C1624 C 0.99303 0.00597 0.31386 0.0
C1625 C 0.96107 0.98498 0.27945 0.0
C1626 C 0.98637 0.98215 0.27682 0.0
C1627 C 0.02795 0.99022 0.29104 0.0
C1628 C 0.04406 -0.00039 0.3088 0.0
C1629 C 0.00251 0.99287 0.29369 0.0
C1630 C 0.03451 0.01248 0.32886 0.0
C1631 C 0.00923 0.01606 0.33113 0.0
H1632 H 0.24995 0.79836 0.42111 0.0
H1633 H 0.26903 0.80422 0.49756 0.0
H1634 H 0.26644 0.75966 0.50174 0.0
H1635 H 0.25717 0.71908 0.48373 0.0
H1636 H 0.23855 0.71411 0.40717 0.0
H1637 H 0.24157 0.75851 0.40317 0.0
C1638 C 0.25388 0.78994 0.43867 0.0
C1639 C 0.25969 0.80464 0.45899 0.0
C1640 C 0.25163 0.76454 0.44107 0.0
C1641 C 0.26476 0.79334 0.48156 0.0
C1642 C 0.26292 0.76789 0.48403 0.0
C1643 C 0.25317 0.72786 0.46638 0.0
C1644 C 0.24702 0.71352 0.44589 0.0
C1645 C 0.25583 0.75336 0.46402 0.0
C1646 C 0.2428 0.72491 0.42326 0.0
C1647 C 0.24484 0.75021 0.4209 0.0
H1648 H 0.47091 0.48626 0.73396 0.0
H1649 H 0.46127 0.53412 0.67201 0.0
H1650 H 0.50567 0.53703 0.66698 0.0
H1651 H 0.54661 0.52381 0.67831 0.0
H1652 H 0.55741 0.47591 0.74015 0.0
H1653 H 0.51292 0.47427 0.74662 0.0
C1654 C 0.47867 0.49791 0.71988 0.0
C1655 C 0.46303 0.51048 0.70369 0.0
C1656 C 0.5042 0.4986 0.71649 0.0
C1657 C 0.47308 0.52478 0.68493 0.0
C1658 C 0.49838 0.52611 0.68185 0.0
C1659 C 0.53931 0.51262 0.69299 0.0
C1660 C 0.55528 0.49948 0.70838 0.0
C1661 C 0.51402 0.51255 0.69707 0.0
C1662 C 0.54546 0.48579 0.72778 0.0
C1663 C 0.52008 0.48511 0.73164 0.0
H1664 H 0.7628 0.70318 0.98151 0.0
H1665 H 0.71909 0.69523 0.91619 0.0
H1666 H 0.71688 0.73961 0.91187 0.0
H1667 H 0.72954 0.78025 0.92486 0.0
H1668 H 0.77289 0.78939 0.99023 0.0
H1669 H 0.77365 0.74482 0.99604 0.0
C1670 C 0.75223 0.71122 0.96674 0.0
C1671 C 0.7409 0.69596 0.94929 0.0
C1672 C 0.75169 0.73684 0.96394 0.0
C1673 C 0.72777 0.7066 0.92993 0.0
C1674 C 0.72674 0.73195 0.9273 0.0
C1675 C 0.73948 0.77255 0.94024 0.0
C1676 C 0.75167 0.78809 0.95678 0.0
C1677 C 0.73919 0.74717 0.94378 0.0
C1678 C 0.76375 0.77778 0.97701 0.0
C1679 C 0.76397 0.75234 0.98043 0.0
H1680 H 0.45243 0.98314 0.16229 0.0
H1681 H 0.44351 0.01698 0.23311 0.0
H1682 H 0.48798 0.01836 0.23821 0.0
H1683 H 0.52952 0.00906 0.22284 0.0
H1684 H 0.53802 0.97633 0.15155 0.0
H1685 H 0.49355 0.97465 0.14668 0.0
C1686 C 0.46014 0.99118 0.17872 0.0
C1687 C 0.44453 9e-05 0.19722 0.0
C1688 C 0.48568 0.99145 0.18174 0.0
C1689 C 0.455 0.01026 0.21843 0.0
C1690 C 0.48046 0.01076 0.22149 0.0
C1691 C 0.52157 0.00104 0.20651 0.0
C1692 C 0.53699 0.99227 0.18781 0.0
C1693 C 0.49597 0.00103 0.20345 0.0
C1694 C 0.5265 0.98275 0.16636 0.0
C1695 C 0.5011 0.98206 0.16347 0.0
H1696 H 0.50739 0.25892 0.21537 0.0
H1697 H 0.58266 0.2351 0.2103 0.0
H1698 H 0.58485 0.23117 0.25439 0.0
H1699 H 0.56607 0.23411 0.29421 0.0
H1700 H 0.49226 0.26114 0.30152 0.0
H1701 H 0.48865 0.26355 0.25676 0.0
C1702 C 0.52438 0.25335 0.22399 0.0
C1703 C 0.54484 0.24741 0.2094 0.0
C1704 C 0.52565 0.25113 0.24971 0.0
C1705 C 0.56664 0.23996 0.22092 0.0
C1706 C 0.5679 0.23745 0.2462 0.0
C1707 C 0.54899 0.24024 0.28615 0.0
C1708 C 0.5294 0.24718 0.30127 0.0
C1709 C 0.54751 0.24272 0.26071 0.0
C1710 C 0.50755 0.25532 0.29032 0.0
C1711 C 0.50559 0.25701 0.26473 0.0
H1712 H 0.02464 0.75528 0.29467 0.0
H1713 H 0.10304 0.76046 0.30163 0.0
H1714 H 0.10749 0.75677 0.25722 0.0
H1715 H 0.08907 0.75457 0.2164 0.0
H1716 H 0.01057 0.75059 0.20888 0.0
H1717 H 0.00612 0.75195 0.25347 0.0
C1718 C 0.04271 0.75488 0.28648 0.0
C1719 C 0.06355 0.75766 0.30144 0.0
C1720 C 0.04505 0.75377 0.26081 0.0
C1721 C 0.0868 0.75795 0.29053 0.0
C1722 C 0.08931 0.75614 0.26513 0.0
C1723 C 0.07093 0.75426 0.22444 0.0
C1724 C 0.05016 0.75282 0.20921 0.0
C1725 C 0.06855 0.75465 0.25006 0.0
C1726 C 0.02686 0.752 0.22009 0.0
C1727 C 0.02432 0.75256 0.24562 0.0
H1728 H 0.5186 0.2805 0.46189 0.0
H1729 H 0.49198 0.35417 0.45372 0.0
H1730 H 0.48691 0.35749 0.49835 0.0
H1731 H 0.4896 0.33887 0.53948 0.0
H1732 H 0.51927 0.26606 0.54727 0.0
H1733 H 0.52456 0.2633 0.50301 0.0
C1734 C 0.51124 0.2971 0.46994 0.0
C1735 C 0.50467 0.31674 0.45469 0.0
C1736 C 0.50961 0.29921 0.4955 0.0
C1737 C 0.49633 0.33859 0.46519 0.0
C1738 C 0.49375 0.34055 0.49065 0.0
C1739 C 0.49766 0.32256 0.53156 0.0
C1740 C 0.50395 0.30266 0.54677 0.0
C1741 C 0.50041 0.32097 0.50599 0.0
C1742 C 0.5144 0.28171 0.53612 0.0
C1743 C 0.51714 0.27997 0.51074 0.0
H1744 H 0.97293 0.768 0.6925 0.0
H1745 H 0.90148 0.7365 0.68181 0.0
H1746 H 0.89735 0.73032 0.72612 0.0
H1747 H 0.91363 0.73517 0.76793 0.0
H1748 H 0.98379 0.76981 0.77863 0.0
H1749 H 0.98861 0.77407 0.73434 0.0
C1750 C 0.95675 0.75917 0.69987 0.0
C1751 C 0.93786 0.7519 0.68392 0.0
C1752 C 0.95403 0.75689 0.72539 0.0
C1753 C 0.91649 0.7416 0.69373 0.0
C1754 C 0.91404 0.73835 0.71905 0.0
C1755 C 0.92992 0.74382 0.76061 0.0
C1756 C 0.94832 0.75217 0.77667 0.0
C1757 C 0.93256 0.74623 0.73508 0.0
C1758 C 0.96925 0.76338 0.76679 0.0
C1759 C 0.97213 0.76562 0.74142 0.0
H1760 H 0.97816 0.67043 0.97268 0.0
H1761 H 0.01122 0.74157 0.96368 0.0
H1762 H 0.01661 0.74487 0.00795 0.0
H1763 H 0.01258 0.7274 0.04922 0.0
H1764 H 0.98327 0.65488 0.05827 0.0
H1765 H 0.97505 0.65245 0.01409 0.0
C1766 C 0.98667 0.68661 0.98038 0.0
C1767 C 0.99432 0.70572 0.96478 0.0
C1768 C 0.98985 0.68833 0.00592 0.0
C1769 C 0.00532 0.72652 0.97514 0.0
C1770 C 0.00823 0.72851 0.00051 0.0
C1771 C 0.00376 0.71135 0.04154 0.0
C1772 C 0.99768 0.69167 0.05697 0.0
C1773 C 0.00044 0.70962 0.01607 0.0
C1774 C 0.98741 0.67048 0.04677 0.0
C1775 C 0.98302 0.66902 0.02151 0.0
H1776 H 0.47756 0.74033 0.2886 0.0
H1777 H 0.40309 0.76307 0.30091 0.0
H1778 H 0.39614 0.76539 0.25665 0.0
H1779 H 0.41105 0.76027 0.21469 0.0
H1780 H 0.48519 0.73616 0.20203 0.0
H1781 H 0.4922 0.73407 0.24624 0.0
C1782 C 0.46002 0.74636 0.2815 0.0
C1783 C 0.44103 0.75225 0.29787 0.0
C1784 C 0.45589 0.74659 0.25606 0.0
C1785 C 0.41808 0.75903 0.28857 0.0
C1786 C 0.41405 0.76004 0.26332 0.0
C1787 C 0.42865 0.75413 0.22151 0.0
C1788 C 0.44753 0.74823 0.20495 0.0
C1789 C 0.43272 0.75354 0.24691 0.0
C1790 C 0.47026 0.74058 0.21428 0.0
C1791 C 0.47438 0.73968 0.23958 0.0
H1792 H 0.50431 0.23086 0.02899 0.0
H1793 H 0.47743 0.15705 0.03544 0.0
H1794 H 0.47684 0.15303 0.9908 0.0
H1795 H 0.48398 0.17047 0.95019 0.0
H1796 H 0.5121 0.24393 0.94338 0.0
H1797 H 0.51326 0.24776 0.98798 0.0
C1798 C 0.4978 0.21413 0.02052 0.0
C1799 C 0.49019 0.19451 0.03532 0.0
C1800 C 0.49853 0.21163 0.99489 0.0
C1801 C 0.48278 0.17255 0.02429 0.0
C1802 C 0.48276 0.17016 0.99884 0.0
C1803 C 0.49081 0.1872 0.9584 0.0
C1804 C 0.49796 0.20688 0.94337 0.0
C1805 C 0.49081 0.1895 0.98398 0.0
C1806 C 0.50671 0.22839 0.95443 0.0
C1807 C 0.50702 0.23073 0.97996 0.0
H1808 H 0.28418 0.07942 0.76476 0.0
H1809 H 0.29322 0.00924 0.72969 0.0
H1810 H 0.24877 0.00469 0.72709 0.0
H1811 H 0.20735 0.02033 0.73557 0.0
H1812 H 0.19848 0.09132 0.76862 0.0
H1813 H 0.24301 0.09552 0.77217 0.0
C1814 C 0.27649 0.06323 0.75625 0.0
C1815 C 0.29206 0.0447 0.7474 0.0
C1816 C 0.25098 0.06056 0.75522 0.0
C1817 C 0.2817 0.02387 0.73646 0.0
C1818 C 0.25628 0.02112 0.73526 0.0
C1819 C 0.21524 0.03638 0.74419 0.0
C1820 C 0.19982 0.05515 0.75264 0.0
C1821 C 0.24077 0.03914 0.74499 0.0
C1822 C 0.2101 0.0764 0.76268 0.0
C1823 C 0.2355 0.07892 0.76436 0.0
H1824 H 0.72591 0.04038 0.00981 0.0
H1825 H 0.65384 0.04968 0.97909 0.0
H1826 H 0.64888 0.00526 0.97657 0.0
H1827 H 0.66448 0.964 0.98428 0.0
H1828 H 0.73599 0.95434 0.01647 0.0
H1829 H 0.7414 0.99874 0.01804 0.0
C1830 C 0.70941 0.03262 0.00196 0.0
C1831 C 0.69049 0.04821 0.99402 0.0
C1832 C 0.70629 0.00708 0.00159 0.0
C1833 C 0.66881 0.03799 0.9848 0.0
C1834 C 0.66587 0.01263 0.98366 0.0
C1835 C 0.68115 0.97154 0.99196 0.0
C1836 C 0.69974 0.95577 0.00039 0.0
C1837 C 0.68431 0.99702 0.99238 0.0
C1838 C 0.72126 0.96599 0.01011 0.0
C1839 C 0.72449 0.99139 0.01073 0.0
H1840 H 0.80123 0.48734 0.23233 0.0
H1841 H 0.81383 0.43009 0.28523 0.0
H1842 H 0.76973 0.4249 0.29042 0.0
H1843 H 0.72814 0.43378 0.27712 0.0
H1844 H 0.71459 0.49066 0.22407 0.0
H1845 H 0.75878 0.49846 0.22116 0.0
C1846 C 0.79431 0.47437 0.24567 0.0
C1847 C 0.81076 0.45932 0.25869 0.0
C1848 C 0.7689 0.47078 0.24776 0.0
C1849 C 0.80153 0.44209 0.27533 0.0
C1850 C 0.77634 0.43887 0.27799 0.0
C1851 C 0.7348 0.44775 0.26469 0.0
C1852 C 0.71816 0.46124 0.25035 0.0
C1853 C 0.75995 0.4525 0.26367 0.0
C1854 C 0.72708 0.47976 0.23494 0.0
C1855 C 0.75229 0.48435 0.23348 0.0
H1856 H 0.27243 0.44934 0.51031 0.0
H1857 H 0.3362 0.44336 0.46422 0.0
H1858 H 0.33854 0.48791 0.46119 0.0
H1859 H 0.32415 0.52819 0.47363 0.0
H1860 H 0.26097 0.535 0.52054 0.0
H1861 H 0.25712 0.49033 0.52191 0.0
C1862 C 0.28638 0.45784 0.49903 0.0
C1863 C 0.30388 0.44316 0.4871 0.0
C1864 C 0.2882 0.4835 0.49823 0.0
C1865 C 0.32234 0.45434 0.47321 0.0
C1866 C 0.32386 0.47977 0.47175 0.0
C1867 C 0.30963 0.51999 0.4844 0.0
C1868 C 0.29305 0.53496 0.49724 0.0
C1869 C 0.30727 0.49448 0.48468 0.0
C1870 C 0.27417 0.52392 0.51076 0.0
C1871 C 0.27182 0.4984 0.51133 0.0
H1872 H 0.19414 0.97525 0.26405 0.0
H1873 H 0.1868 0.90754 0.22407 0.0
H1874 H 0.23117 0.90387 0.22159 0.0
H1875 H 0.27185 0.91843 0.23247 0.0
H1876 H 0.28044 0.98661 0.27119 0.0
H1877 H 0.23575 0.99133 0.27292 0.0
C1878 C 0.20226 0.96002 0.25427 0.0
C1879 C 0.18708 0.94174 0.24414 0.0
C1880 C 0.22797 0.95775 0.2533 0.0
C1881 C 0.19797 0.92191 0.23192 0.0
C1882 C 0.22337 0.91967 0.23069 0.0
C1883 C 0.26401 0.93421 0.24161 0.0
C1884 C 0.27948 0.95187 0.25222 0.0
C1885 C 0.2385 0.93714 0.24181 0.0
C1886 C 0.26895 0.97255 0.26327 0.0
C1887 C 0.24341 0.97533 0.26406 0.0
H1888 H 0.77022 0.0588 0.49404 0.0
H1889 H 0.84053 0.06242 0.52976 0.0
H1890 H 0.84267 0.01776 0.53064 0.0
H1891 H 0.82608 0.97814 0.51861 0.0
H1892 H 0.75614 0.97394 0.48208 0.0
H1893 H 0.75268 0.01862 0.48341 0.0
C1894 C 0.7856 0.04979 0.5028 0.0
C1895 C 0.805 0.06386 0.5123 0.0
C1896 C 0.78719 0.02413 0.50221 0.0
C1897 C 0.8252 0.05195 0.5228 0.0
C1898 C 0.82659 0.02646 0.52293 0.0
C1899 C 0.81015 0.98693 0.51066 0.0
C1900 C 0.79154 0.9727 0.4999 0.0
C1901 C 0.80803 0.01244 0.51205 0.0
C1902 C 0.77088 0.98447 0.49013 0.0
C1903 C 0.76878 0.00998 0.49115 0.0
H1904 H 0.79228 0.52019 0.76408 0.0
H1905 H 0.8056 0.59652 0.74954 0.0
H1906 H 0.76155 0.60372 0.74552 0.0
H1907 H 0.71935 0.58871 0.74806 0.0
H1908 H 0.70576 0.51262 0.76416 0.0
H1909 H 0.74983 0.50508 0.76645 0.0
C1910 C 0.78554 0.53824 0.75932 0.0
C1911 C 0.80216 0.55771 0.75647 0.0
C1912 C 0.76015 0.54243 0.75817 0.0
C1913 C 0.79316 0.58119 0.75128 0.0
C1914 C 0.76798 0.58536 0.74933 0.0
C1915 C 0.72596 0.57051 0.75241 0.0
C1916 C 0.70917 0.55131 0.7562 0.0
C1917 C 0.7513 0.56622 0.75325 0.0
C1918 C 0.71819 0.5278 0.76145 0.0
C1919 C 0.74342 0.52342 0.7625 0.0
H1920 H 0.23639 0.47889 0.99942 0.0
H1921 H 0.15812 0.46839 0.0008 0.0
H1922 H 0.15183 0.51251 0.00075 0.0
H1923 H 0.16813 0.55373 -0.00015 0.0
H1924 H 0.24613 0.56566 0.00064 0.0
H1925 H 0.253 0.52124 0.99921 0.0
C1926 C 0.21801 0.48633 0.00013 0.0
C1927 C 0.19775 0.4704 0.00028 0.0
C1928 C 0.21447 0.51188 0.99968 0.0
C1929 C 0.17401 0.48026 0.00076 0.0
C1930 C 0.17038 0.50548 0.00052 0.0
C1931 C 0.18669 0.54675 0.99917 0.0
C1932 C 0.20656 0.56306 -0.00015 0.0
C1933 C 0.19043 0.52141 0.99961 0.0
C1934 C 0.23049 0.55353 -0.00028 0.0
C1935 C 0.2344 0.52814 0.99923 0.0
H1936 H 0.23187 0.69049 0.02461 0.0
H1937 H 0.28102 0.68065 0.08559 0.0
H1938 H 0.28849 0.72484 0.0869 0.0
H1939 H 0.27821 0.76637 0.07298 0.0
H1940 H 0.2267 0.77621 0.01384 0.0
H1941 H 0.22251 0.73186 0.00993 0.0
C1942 C 0.24488 0.69792 0.03766 0.0
C1943 C 0.25638 0.68226 0.05463 0.0
C1944 C 0.24798 0.72339 0.03914 0.0
C1945 C 0.2724 0.69228 0.07203 0.0
C1946 C 0.27637 0.71756 0.07299 0.0
C1947 C 0.266 0.75885 0.05926 0.0
C1948 C 0.25262 0.77467 0.04386 0.0
C1949 C 0.26371 0.73333 0.05709 0.0
C1950 C 0.23705 0.76453 0.02607 0.0
C1951 C 0.23478 0.73915 0.0237 0.0
H1952 H 0.73417 0.71996 0.50984 0.0
H1953 H 0.75171 0.7089 0.58596 0.0
H1954 H 0.75028 0.75306 0.59309 0.0
H1955 H 0.7444 0.79456 0.57764 0.0
H1956 H 0.72556 0.80614 0.50178 0.0
H1957 H 0.72603 0.76193 0.49477 0.0
C1958 C 0.73815 0.72738 0.52782 0.0
C1959 C 0.74377 0.71146 0.54724 0.0
C1960 C 0.73631 0.75271 0.53196 0.0
C1961 C 0.74791 0.721 0.5707 0.0
C1962 C 0.74681 0.74616 0.57482 0.0
C1963 C 0.73998 0.78745 0.55964 0.0
C1964 C 0.735 0.80368 0.54026 0.0
C1965 C 0.74088 0.76215 0.55563 0.0
C1966 C 0.72925 0.79408 0.51708 0.0
C1967 C 0.72988 0.76881 0.51297 0.0
H1968 H 0.23486 0.27677 0.9214 0.0
H1969 H 0.27714 0.28988 0.98687 0.0
H1970 H 0.28333 0.24588 0.99191 0.0
H1971 H 0.27651 0.20367 0.97791 0.0
H1972 H 0.23692 0.1906 0.91096 0.0
H1973 H 0.22919 0.2346 0.90665 0.0
C1974 C 0.24562 0.27004 0.93668 0.0
C1975 C 0.25552 0.28667 0.95375 0.0
C1976 C 0.249 0.2447 0.93952 0.0
C1977 C 0.26945 0.27757 0.97338 0.0
C1978 C 0.27278 0.25238 0.97641 0.0
C1979 C 0.26559 0.21044 0.96276 0.0
C1980 C 0.2565 0.19392 0.94522 0.0
C1981 C 0.26237 0.23578 0.95979 0.0
C1982 C 0.24345 0.20296 0.92501 0.0
C1983 C 0.23934 0.2281 0.92241 0.0
H1984 H 0.7499 0.29008 0.42739 0.0
H1985 H 0.74389 0.29402 0.50603 0.0
H1986 H 0.7477 0.24947 0.50873 0.0
H1987 H 0.74971 0.20897 0.48816 0.0
H1988 H 0.75205 0.2064 0.4091 0.0
H1989 H 0.75201 0.25068 0.40725 0.0
C1990 C 0.7499 0.28131 0.44521 0.0
C1991 C 0.74665 0.29544 0.46643 0.0
C1992 C 0.75066 0.25575 0.44652 0.0
C1993 C 0.74671 0.28367 0.48936 0.0
C1994 C 0.74844 0.25812 0.49089 0.0
C1995 C 0.74974 0.21812 0.47054 0.0
C1996 C 0.75051 0.20421 0.44882 0.0
C1997 C 0.74967 0.2439 0.4695 0.0
C1998 C 0.75097 0.21646 0.42615 0.0
C1999 C 0.75129 0.24188 0.42503 0.0
H2000 H 0.53076 0.76337 0.76849 0.0
H2001 H 0.60705 0.74855 0.78164 0.0
H2002 H 0.61495 0.74845 0.73745 0.0
H2003 H 0.59979 0.75133 0.69524 0.0
H2004 H 0.5236 0.76765 0.68206 0.0
H2005 H 0.51626 0.7696 0.7261 0.0
C2006 C 0.54901 0.75976 0.76156 0.0
C2007 C 0.5682 0.75521 0.77809 0.0
C2008 C 0.55355 0.76073 0.73622 0.0
C2009 C 0.59196 0.75153 0.76911 0.0
C2010 C 0.59649 0.75174 0.74391 0.0
C2011 C 0.58168 0.75594 0.70191 0.0
C2012 C 0.56227 0.75925 0.68519 0.0
C2013 C 0.57743 0.75637 0.72729 0.0
C2014 C 0.53894 0.76513 0.69437 0.0
C2015 C 0.53463 0.76588 0.71961 0.0
H2016 H 0.06455 0.22091 0.73657 0.0
H2017 H 0.002 0.26757 0.72426 0.0
H2018 H 0.99811 0.2742 0.76836 0.0
H2019 H 0.01435 0.26918 0.80999 0.0
H2020 H 0.07877 0.2252 0.82185 0.0
H2021 H 0.07956 0.21431 0.77836 0.0
C2022 C 0.05001 0.2325 0.7435 0.0
C2023 C 0.03371 0.2439 0.72709 0.0
C2024 C 0.04797 0.23632 0.76883 0.0
C2025 C 0.0149 0.25873 0.73644 0.0
C2026 C 0.01259 0.26242 0.76167 0.0
C2027 C 0.02804 0.25649 0.80321 0.0
C2028 C 0.0462 0.24756 0.81917 0.0
C2029 C 0.02915 0.25148 0.77801 0.0
C2030 C 0.06436 0.2319 0.80997 0.0
C2031 C 0.065 0.22597 0.78508 0.0
H2032 H 0.49568 0.8356 0.04423 0.0
H2033 H 0.5051 0.75804 0.05554 0.0
H2034 H 0.50612 0.75161 0.01117 0.0
H2035 H 0.50332 0.76814 0.96896 0.0
H2036 H 0.4944 0.84579 0.9585 0.0
H2037 H 0.49331 0.85198 0.00278 0.0
C2038 C 0.49837 0.81728 0.03709 0.0
C2039 C 0.50052 0.79736 0.05329 0.0
C2040 C 0.49829 0.81367 0.01166 0.0
C2041 C 0.50368 0.77376 0.04355 0.0
C2042 C 0.50397 0.77003 0.01816 0.0
C2043 C 0.50064 0.78631 0.97647 0.0
C2044 C 0.4985 0.80647 0.96057 0.0
C2045 C 0.50088 0.78982 0.00203 0.0
C2046 C 0.49576 0.83001 0.97043 0.0
C2047 C 0.49539 0.83357 0.99572 0.0
H2048 H 0.93847 0.25909 0.28791 0.0
H2049 H 0.01598 0.2442 0.28909 0.0
H2050 H 0.01656 0.24318 0.24421 0.0
H2051 H 0.99393 0.24308 0.20462 0.0
H2052 H 0.91558 0.25404 0.20558 0.0
H2053 H 0.91645 0.25925 0.24958 0.0
C2054 C 0.95565 0.25605 0.27843 0.0
C2055 C 0.97711 0.2517 0.2919 0.0
C2056 C 0.95556 0.25398 0.25291 0.0
C2057 C 0.99919 0.24788 0.27921 0.0
C2058 C 0.99945 0.24686 0.25353 0.0
C2059 C 0.97703 0.2462 0.21454 0.0
C2060 C 0.95469 0.24779 0.2017 0.0
C2061 C 0.97754 0.24908 0.2402 0.0
C2062 C 0.93302 0.25228 0.21486 0.0
C2063 C 0.93348 0.25558 0.24009 0.0
H2064 H 0.01713 0.22889 0.51864 0.0
H2065 H 0.02366 0.15136 0.53129 0.0
H2066 H 0.02721 0.14411 0.48723 0.0
H2067 H 0.02701 0.1597 0.44519 0.0
H2068 H 0.02194 0.23743 0.43231 0.0
H2069 H 0.02032 0.24482 0.47638 0.0
C2070 C 0.01919 0.21045 0.51163 0.0
C2071 C 0.01976 0.19062 0.52798 0.0
C2072 C 0.02206 0.20652 0.48634 0.0
C2073 C 0.023 0.16683 0.5189 0.0
C2074 C 0.02517 0.16271 0.49378 0.0
C2075 C 0.02614 0.17832 0.45199 0.0
C2076 C 0.02459 0.19795 0.43538 0.0
C2077 C 0.02473 0.18241 0.47733 0.0
C2078 C 0.02341 0.22195 0.44461 0.0
C2079 C 0.02211 0.22619 0.46984 0.0
H2080 H 0.42497 0.2693 0.70546 0.0
H2081 H 0.49175 0.2276 0.70152 0.0
H2082 H 0.49757 0.23255 0.74598 0.0
H2083 H 0.48183 0.24686 0.78622 0.0
H2084 H 0.41556 0.28979 0.78855 0.0
H2085 H 0.41187 0.28708 0.74416 0.0
C2086 C 0.44068 0.26102 0.71437 0.0
C2087 C 0.45747 0.24733 0.70051 0.0
C2088 C 0.44424 0.2647 0.73949 0.0
C2089 C 0.47829 0.23766 0.71202 0.0
C2090 C 0.48168 0.2407 0.73734 0.0
C2091 C 0.46702 0.25625 0.77692 0.0
C2092 C 0.44896 0.26853 0.79069 0.0
C2093 C 0.46464 0.25406 0.7513 0.0
C2094 C 0.42969 0.28029 0.77839 0.0
C2095 C 0.4274 0.2785 0.75303 0.0
H2096 H 0.50422 0.67272 0.55085 0.0
H2097 H 0.50218 0.75117 0.55842 0.0
H2098 H 0.50193 0.75556 0.51361 0.0
H2099 H 0.50279 0.73658 0.47213 0.0
H2100 H 0.50805 0.65795 0.46632 0.0
H2101 H 0.50728 0.65425 0.51062 0.0
C2102 C 0.50319 0.69083 0.54279 0.0
C2103 C 0.50252 0.71158 0.55797 0.0
C2104 C 0.50431 0.69318 0.51727 0.0
C2105 C 0.50215 0.73489 0.54712 0.0
C2106 C 0.50231 0.73738 0.52152 0.0
C2107 C 0.50426 0.7187 0.4806 0.0
C2108 C 0.50549 0.69757 0.46581 0.0
C2109 C 0.50369 0.71661 0.50637 0.0
C2110 C 0.50713 0.67453 0.47714 0.0
C2111 C 0.50647 0.67234 0.50253 0.0
H2112 H 0.46198 0.5104 0.33499 0.0
H2113 H 0.45194 0.48838 0.25977 0.0
H2114 H 0.49639 0.48744 0.25404 0.0
H2115 H 0.5382 0.4938 0.27039 0.0
H2116 H 0.54746 0.51531 0.34573 0.0
H2117 H 0.50306 0.5166 0.35118 0.0
C2118 C 0.46941 0.50495 0.31741 0.0
C2119 C 0.45357 0.49922 0.2979 0.0
C2120 C 0.49484 0.50524 0.31406 0.0
C2121 C 0.46368 0.49258 0.27519 0.0
C2122 C 0.48909 0.49237 0.27181 0.0
C2123 C 0.53038 0.4994 0.28777 0.0
C2124 C 0.54591 0.50507 0.30751 0.0
C2125 C 0.50484 0.4991 0.29101 0.0
C2126 C 0.53574 0.51138 0.33021 0.0
C2127 C 0.51042 0.51178 0.3334 0.0
H2128 H 0.46863 0.00174 0.8278 0.0
H2129 H 0.45864 0.9767 0.75354 0.0
H2130 H 0.50309 0.97755 0.74726 0.0
H2131 H 0.54482 0.98545 0.76323 0.0
H2132 H 0.55356 0.01128 0.83739 0.0
H2133 H 0.50931 0.01098 0.84302 0.0
C2134 C 0.47607 0.99614 0.81027 0.0
C2135 C 0.46029 0.98885 0.79126 0.0
C2136 C 0.50138 0.99752 0.80657 0.0
C2137 C 0.47038 0.98202 0.76861 0.0
C2138 C 0.49577 0.98282 0.76492 0.0
C2139 C 0.53697 0.99168 0.78036 0.0
C2140 C 0.55244 0.99869 0.79979 0.0
C2141 C 0.51143 0.99081 0.78372 0.0
C2142 C 0.54204 0.0061 0.82209 0.0
C2143 C 0.51676 0.00563 0.82543 0.0
H2144 H 0.0193 0.52672 0.18065 0.0
H2145 H 0.02504 0.4746 0.23975 0.0
H2146 H 0.98044 0.47457 0.24414 0.0
H2147 H 0.93989 0.48796 0.22986 0.0
H2148 H 0.93442 0.53881 0.16971 0.0
H2149 H 0.97905 0.54149 0.16769 0.0
C2150 C 0.01085 0.5152 0.19443 0.0
C2151 C 0.02551 0.50041 0.20965 0.0
C2152 C 0.98531 0.51554 0.19703 0.0
C2153 C 0.01419 0.48592 0.22761 0.0
C2154 C 0.98871 0.48606 0.23026 0.0
C2155 C 0.94844 0.50027 0.21685 0.0
C2156 C 0.93384 0.51351 0.2002 0.0
C2157 C 0.9741 0.5008 0.21506 0.0
C2158 C 0.94524 0.52878 0.18296 0.0
C2159 C 0.97075 0.53001 0.18157 0.0
H2160 H 0.03585 0.01829 0.67779 0.0
H2161 H 0.04951 0.98157 0.74631 0.0
H2162 H 0.00533 0.98109 0.75491 0.0
H2163 H 0.96272 0.98896 0.74123 0.0
H2164 H 0.95028 0.0257 0.67246 0.0
H2165 H 0.99436 0.02935 0.66609 0.0
C2166 C 0.02917 0.00987 0.6945 0.0
C2167 C 0.04576 -0.00078 0.71104 0.0
C2168 C 0.00408 0.01034 0.69952 0.0
C2169 C 0.03696 0.98934 0.73306 0.0
C2170 C 0.01178 0.98929 0.73804 0.0
C2171 C 0.96974 0.99852 0.72531 0.0
C2172 C 0.95338 0.00729 0.7074 0.0
C2173 C 0.99515 -0.00037 0.7213 0.0
C2174 C 0.96259 0.01908 0.68654 0.0
C2175 C 0.98774 0.02083 0.68274 0.0
H2176 H 0.01858 0.28026 0.94924 0.0
H2177 H 0.96466 0.33755 0.94246 0.0
H2178 H 0.96109 0.33973 0.98698 0.0
H2179 H 0.97485 0.32712 0.02753 0.0
H2180 H 0.0286 0.26975 0.03504 0.0
H2181 H 0.03125 0.26635 0.99035 0.0
C2182 C 0.00552 0.29272 0.95749 0.0
C2183 C 0.99164 0.30852 0.94254 0.0
C2184 C 0.00418 0.29445 0.98316 0.0
C2185 C 0.9753 0.32501 0.95354 0.0
C2186 C 0.9735 0.32648 0.97899 0.0
C2187 C 0.98745 0.31407 0.01948 0.0
C2188 C 0.00186 0.29899 0.03464 0.0
C2189 C 0.98829 0.31173 0.99393 0.0
C2190 C 0.01761 0.28182 0.02379 0.0
C2191 C 0.01891 0.2797 0.99826 0.0
H2192 H 0.9725 0.7632 0.4599 0.0
H2193 H 0.04504 0.79268 0.45096 0.0
H2194 H 0.05171 0.79117 0.49511 0.0
H2195 H 0.03452 0.78727 0.53658 0.0
H2196 H 0.96307 0.75531 0.54596 0.0
H2197 H 0.95862 0.75126 0.50165 0.0
C2198 C 0.98997 0.76853 0.46766 0.0
C2199 C 0.00827 0.77804 0.45233 0.0
C2200 C 0.99385 0.76726 0.49321 0.0
C2201 C 0.03079 0.78512 0.4625 0.0
C2202 C 0.03457 0.7844 0.48776 0.0
C2203 C 0.01838 0.77859 0.52893 0.0
C2204 C 0.99917 0.77169 0.54456 0.0
C2205 C 0.01594 0.77628 0.50337 0.0
C2206 C 0.97829 0.76054 0.53439 0.0
C2207 C 0.97556 0.75852 0.50897 0.0
loop_
_geom_bond_atom_site_label_1
_geom_bond_atom_site_label_2
_geom_bond_distance
_geom_bond_site_symmetry_2
_ccdc_geom_bond_type
O0 Cd1 2.223 . S
O0 C8 1.315 . S
Cd1 O0 2.223 . S
Cd1 O4 2.297 . S
Cd1 O5 2.439 . S
Cd1 O11 2.240 . S
Cd2 O3 2.240 . S
Cd2 O10 2.223 . S
Cd2 O12 2.297 . S
Cd2 O13 2.439 . S
O3 Cd2 2.240 . S
O3 C8 1.279 . S
O4 Cd1 2.297 . S
O4 C6 1.247 . S
O5 Cd1 2.439 . S
O5 C6 1.208 . S
C6 O4 1.247 . S
C6 O5 1.208 . S
C7 O12 1.247 . S
C7 O13 1.208 . S
C8 O0 1.315 . S
C8 O3 1.279 . S
C9 O10 1.315 . S
C9 O11 1.279 . S
O10 Cd2 2.223 . S
O10 C9 1.315 . S
O11 Cd1 2.240 . S
O11 C9 1.279 . S
O12 Cd2 2.297 . S
O12 C7 1.247 . S
O13 Cd2 2.439 . S
O13 C7 1.208 . S
O14 Cd15 2.223 . S
O14 C22 1.315 . S
Cd15 O14 2.223 . S
Cd15 O18 2.297 . S
Cd15 O19 2.439 . S
Cd15 O25 2.240 . S
Cd16 O17 2.240 . S
Cd16 O24 2.223 . S
Cd16 O26 2.297 . S
Cd16 O27 2.439 . S
O17 Cd16 2.240 . S
O17 C22 1.279 . S
O18 Cd15 2.297 . S
O18 C20 1.247 . S
O19 Cd15 2.439 . S
O19 C20 1.208 . S
C20 O18 1.247 . S
C20 O19 1.208 . S
C21 O26 1.247 . S
C21 O27 1.208 . S
C22 O14 1.315 . S
C22 O17 1.279 . S
C23 O24 1.315 . S
C23 O25 1.279 . S
O24 Cd16 2.223 . S
O24 C23 1.315 . S
O25 Cd15 2.240 . S
O25 C23 1.279 . S
O26 Cd16 2.297 . S
O26 C21 1.247 . S
O27 Cd16 2.439 . S
O27 C21 1.208 . S
O28 Cd29 2.223 . S
O28 C36 1.315 . S
Cd29 O28 2.223 . S
Cd29 O32 2.297 . S
Cd29 O33 2.439 . S
Cd29 O39 2.240 . S
Cd30 O31 2.240 . S
Cd30 O38 2.223 . S
Cd30 O40 2.297 . S
Cd30 O41 2.439 . S
O31 Cd30 2.240 . S
O31 C36 1.279 . S
O32 Cd29 2.297 . S
O32 C34 1.247 . S
O33 Cd29 2.439 . S
O33 C34 1.208 . S
C34 O32 1.247 . S
C34 O33 1.208 . S
C35 O40 1.247 . S
C35 O41 1.208 . S
C36 O28 1.315 . S
C36 O31 1.279 . S
C37 O38 1.315 . S
C37 O39 1.279 . S
O38 Cd30 2.223 . S
O38 C37 1.315 . S
O39 Cd29 2.240 . S
O39 C37 1.279 . S
O40 Cd30 2.297 . S
O40 C35 1.247 . S
O41 Cd30 2.439 . S
O41 C35 1.208 . S
O42 Cd43 2.223 . S
O42 C50 1.315 . S
Cd43 O42 2.223 . S
Cd43 O46 2.297 . S
Cd43 O47 2.439 . S
Cd43 O53 2.240 . S
Cd44 O45 2.240 . S
Cd44 O52 2.223 . S
Cd44 O54 2.297 . S
Cd44 O55 2.439 . S
O45 Cd44 2.240 . S
O45 C50 1.279 . S
O46 Cd43 2.297 . S
O46 C48 1.247 . S
O47 Cd43 2.439 . S
O47 C48 1.208 . S
C48 O46 1.247 . S
C48 O47 1.208 . S
C49 O54 1.247 . S
C49 O55 1.208 . S
C50 O42 1.315 . S
C50 O45 1.279 . S
C51 O52 1.315 . S
C51 O53 1.279 . S
O52 Cd44 2.223 . S
O52 C51 1.315 . S
O53 Cd43 2.240 . S
O53 C51 1.279 . S
O54 Cd44 2.297 . S
O54 C49 1.247 . S
O55 Cd44 2.439 . S
O55 C49 1.208 . S
O56 Cd57 2.223 . S
O56 C64 1.315 . S
Cd57 O56 2.223 . S
Cd57 O60 2.297 . S
Cd57 O61 2.439 . S
Cd57 O67 2.240 . S
Cd58 O59 2.240 . S
Cd58 O66 2.223 . S
Cd58 O68 2.297 . S
Cd58 O69 2.439 . S
O59 Cd58 2.240 . S
O59 C64 1.279 . S
O60 Cd57 2.297 . S
O60 C62 1.247 . S
O61 Cd57 2.439 . S
O61 C62 1.208 . S
C62 O60 1.247 . S
C62 O61 1.208 . S
C63 O68 1.247 . S
C63 O69 1.208 . S
C64 O56 1.315 . S
C64 O59 1.279 . S
C65 O66 1.315 . S
C65 O67 1.279 . S
O66 Cd58 2.223 . S
O66 C65 1.315 . S
O67 Cd57 2.240 . S
O67 C65 1.279 . S
O68 Cd58 2.297 . S
O68 C63 1.247 . S
O69 Cd58 2.439 . S
O69 C63 1.208 . S
O70 Cd71 2.223 . S
O70 C78 1.315 . S
Cd71 O70 2.223 . S
Cd71 O74 2.297 . S
Cd71 O75 2.439 . S
Cd71 O81 2.240 . S
Cd72 O73 2.240 . S
Cd72 O80 2.223 . S
Cd72 O82 2.297 . S
Cd72 O83 2.439 . S
O73 Cd72 2.240 . S
O73 C78 1.279 . S
O74 Cd71 2.297 . S
O74 C76 1.247 . S
O75 Cd71 2.439 . S
O75 C76 1.208 . S
C76 O74 1.247 . S
C76 O75 1.208 . S
C77 O82 1.247 . S
C77 O83 1.208 . S
C78 O70 1.315 . S
C78 O73 1.279 . S
C79 O80 1.315 . S
C79 O81 1.279 . S
O80 Cd72 2.223 . S
O80 C79 1.315 . S
O81 Cd71 2.240 . S
O81 C79 1.279 . S
O82 Cd72 2.297 . S
O82 C77 1.247 . S
O83 Cd72 2.439 . S
O83 C77 1.208 . S
O84 Cd85 2.223 . S
O84 C92 1.315 . S
Cd85 O84 2.223 . S
Cd85 O88 2.297 . S
Cd85 O89 2.439 . S
Cd85 O95 2.240 . S
Cd86 O87 2.240 . S
Cd86 O94 2.223 . S
Cd86 O96 2.297 . S
Cd86 O97 2.439 . S
O87 Cd86 2.240 . S
O87 C92 1.279 . S
O88 Cd85 2.297 . S
O88 C90 1.247 . S
O89 Cd85 2.439 . S
O89 C90 1.208 . S
C90 O88 1.247 . S
C90 O89 1.208 . S
C91 O96 1.247 . S
C91 O97 1.208 . S
C92 O84 1.315 . S
C92 O87 1.279 . S
C93 O94 1.315 . S
C93 O95 1.279 . S
O94 Cd86 2.223 . S
O94 C93 1.315 . S
O95 Cd85 2.240 . S
O95 C93 1.279 . S
O96 Cd86 2.297 . S
O96 C91 1.247 . S
O97 Cd86 2.439 . S
O97 C91 1.208 . S
O98 Cd99 2.223 . S
O98 C106 1.315 . S
Cd99 O98 2.223 . S
Cd99 O102 2.297 . S
Cd99 O103 2.439 . S
Cd99 O109 2.240 . S
Cd100 O101 2.240 . S
Cd100 O108 2.223 . S
Cd100 O110 2.297 . S
Cd100 O111 2.439 . S
O101 Cd100 2.240 . S
O101 C106 1.279 . S
O102 Cd99 2.297 . S
O102 C104 1.247 . S
O103 Cd99 2.439 . S
O103 C104 1.208 . S
C104 O102 1.247 . S
C104 O103 1.208 . S
C105 O110 1.247 . S
C105 O111 1.208 . S
C106 O98 1.315 . S
C106 O101 1.279 . S
C107 O108 1.315 . S
C107 O109 1.279 . S
O108 Cd100 2.223 . S
O108 C107 1.315 . S
O109 Cd99 2.240 . S
O109 C107 1.279 . S
O110 Cd100 2.297 . S
O110 C105 1.247 . S
O111 Cd100 2.439 . S
O111 C105 1.208 . S
O112 Cd113 2.223 . S
O112 C120 1.315 . S
Cd113 O112 2.223 . S
Cd113 O116 2.297 . S
Cd113 O117 2.439 . S
Cd113 O123 2.240 . S
Cd114 O115 2.240 . S
Cd114 O122 2.223 . S
Cd114 O124 2.297 . S
Cd114 O125 2.439 . S
O115 Cd114 2.240 . S
O115 C120 1.279 . S
O116 Cd113 2.297 . S
O116 C118 1.247 . S
O117 Cd113 2.439 . S
O117 C118 1.208 . S
C118 O116 1.247 . S
C118 O117 1.208 . S
C119 O124 1.247 . S
C119 O125 1.208 . S
C120 O112 1.315 . S
C120 O115 1.279 . S
C121 O122 1.315 . S
C121 O123 1.279 . S
O122 Cd114 2.223 . S
O122 C121 1.315 . S
O123 Cd113 2.240 . S
O123 C121 1.279 . S
O124 Cd114 2.297 . S
O124 C119 1.247 . S
O125 Cd114 2.439 . S
O125 C119 1.208 . S
O126 Cd127 2.223 . S
O126 C134 1.315 . S
Cd127 O126 2.223 . S
Cd127 O130 2.297 . S
Cd127 O131 2.439 . S
Cd127 O137 2.240 . S
Cd128 O129 2.240 . S
Cd128 O136 2.223 . S
Cd128 O138 2.297 . S
Cd128 O139 2.439 . S
O129 Cd128 2.240 . S
O129 C134 1.279 . S
O130 Cd127 2.297 . S
O130 C132 1.247 . S
O131 Cd127 2.439 . S
O131 C132 1.208 . S
C132 O130 1.247 . S
C132 O131 1.208 . S
C133 O138 1.247 . S
C133 O139 1.208 . S
C134 O126 1.315 . S
C134 O129 1.279 . S
C135 O136 1.315 . S
C135 O137 1.279 . S
O136 Cd128 2.223 . S
O136 C135 1.315 . S
O137 Cd127 2.240 . S
O137 C135 1.279 . S
O138 Cd128 2.297 . S
O138 C133 1.247 . S
O139 Cd128 2.439 . S
O139 C133 1.208 . S
O140 Cd141 2.223 . S
O140 C148 1.315 . S
Cd141 O140 2.223 . S
Cd141 O144 2.297 . S
Cd141 O145 2.439 . S
Cd141 O151 2.240 . S
Cd142 O143 2.240 . S
Cd142 O150 2.223 . S
Cd142 O152 2.297 . S
Cd142 O153 2.439 . S
O143 Cd142 2.240 . S
O143 C148 1.279 . S
O144 Cd141 2.297 . S
O144 C146 1.247 . S
O145 Cd141 2.439 . S
O145 C146 1.208 . S
C146 O144 1.247 . S
C146 O145 1.208 . S
C147 O152 1.247 . S
C147 O153 1.208 . S
C148 O140 1.315 . S
C148 O143 1.279 . S
C149 O150 1.315 . S
C149 O151 1.279 . S
O150 Cd142 2.223 . S
O150 C149 1.315 . S
O151 Cd141 2.240 . S
O151 C149 1.279 . S
O152 Cd142 2.297 . S
O152 C147 1.247 . S
O153 Cd142 2.439 . S
O153 C147 1.208 . S
O154 Cd155 2.223 . S
O154 C162 1.315 . S
Cd155 O154 2.223 . S
Cd155 O158 2.297 . S
Cd155 O159 2.439 . S
Cd155 O165 2.240 . S
Cd156 O157 2.240 . S
Cd156 O164 2.223 . S
Cd156 O166 2.297 . S
Cd156 O167 2.439 . S
O157 Cd156 2.240 . S
O157 C162 1.279 . S
O158 Cd155 2.297 . S
O158 C160 1.247 . S
O159 Cd155 2.439 . S
O159 C160 1.208 . S
C160 O158 1.247 . S
C160 O159 1.208 . S
C161 O166 1.247 . S
C161 O167 1.208 . S
C162 O154 1.315 . S
C162 O157 1.279 . S
C163 O164 1.315 . S
C163 O165 1.279 . S
O164 Cd156 2.223 . S
O164 C163 1.315 . S
O165 Cd155 2.240 . S
O165 C163 1.279 . S
O166 Cd156 2.297 . S
O166 C161 1.247 . S
O167 Cd156 2.439 . S
O167 C161 1.208 . S
O168 Cd169 2.223 . S
O168 C176 1.315 . S
Cd169 O168 2.223 . S
Cd169 O172 2.297 . S
Cd169 O173 2.439 . S
Cd169 O179 2.240 . S
Cd170 O171 2.240 . S
Cd170 O178 2.223 . S
Cd170 O180 2.297 . S
Cd170 O181 2.439 . S
O171 Cd170 2.240 . S
O171 C176 1.279 . S
O172 Cd169 2.297 . S
O172 C174 1.247 . S
O173 Cd169 2.439 . S
O173 C174 1.208 . S
C174 O172 1.247 . S
C174 O173 1.208 . S
C175 O180 1.247 . S
C175 O181 1.208 . S
C176 O168 1.315 . S
C176 O171 1.279 . S
C177 O178 1.315 . S
C177 O179 1.279 . S
O178 Cd170 2.223 . S
O178 C177 1.315 . S
O179 Cd169 2.240 . S
O179 C177 1.279 . S
O180 Cd170 2.297 . S
O180 C175 1.247 . S
O181 Cd170 2.439 . S
O181 C175 1.208 . S
O182 Cd183 2.223 . S
O182 C190 1.315 . S
Cd183 O182 2.223 . S
Cd183 O186 2.297 . S
Cd183 O187 2.439 . S
Cd183 O193 2.240 . S
Cd184 O185 2.240 . S
Cd184 O192 2.223 . S
Cd184 O194 2.297 . S
Cd184 O195 2.439 . S
O185 Cd184 2.240 . S
O185 C190 1.279 . S
O186 Cd183 2.297 . S
O186 C188 1.247 . S
O187 Cd183 2.439 . S
O187 C188 1.208 . S
C188 O186 1.247 . S
C188 O187 1.208 . S
C189 O194 1.247 . S
C189 O195 1.208 . S
C190 O182 1.315 . S
C190 O185 1.279 . S
C191 O192 1.315 . S
C191 O193 1.279 . S
O192 Cd184 2.223 . S
O192 C191 1.315 . S
O193 Cd183 2.240 . S
O193 C191 1.279 . S
O194 Cd184 2.297 . S
O194 C189 1.247 . S
O195 Cd184 2.439 . S
O195 C189 1.208 . S
O196 Cd197 2.223 . S
O196 C204 1.315 . S
Cd197 O196 2.223 . S
Cd197 O200 2.297 . S
Cd197 O201 2.439 . S
Cd197 O207 2.240 . S
Cd198 O199 2.240 . S
Cd198 O206 2.223 . S
Cd198 O208 2.297 . S
Cd198 O209 2.439 . S
O199 Cd198 2.240 . S
O199 C204 1.279 . S
O200 Cd197 2.297 . S
O200 C202 1.247 . S
O201 Cd197 2.439 . S
O201 C202 1.208 . S
C202 O200 1.247 . S
C202 O201 1.208 . S
C203 O208 1.247 . S
C203 O209 1.208 . S
C204 O196 1.315 . S
C204 O199 1.279 . S
C205 O206 1.315 . S
C205 O207 1.279 . S
O206 Cd198 2.223 . S
O206 C205 1.315 . S
O207 Cd197 2.240 . S
O207 C205 1.279 . S
O208 Cd198 2.297 . S
O208 C203 1.247 . S
O209 Cd198 2.439 . S
O209 C203 1.208 . S
O210 Cd211 2.223 . S
O210 C218 1.315 . S
Cd211 O210 2.223 . S
Cd211 O214 2.297 . S
Cd211 O215 2.439 . S
Cd211 O221 2.240 . S
Cd212 O213 2.240 . S
Cd212 O220 2.223 . S
Cd212 O222 2.297 . S
Cd212 O223 2.439 . S
O213 Cd212 2.240 . S
O213 C218 1.279 . S
O214 Cd211 2.297 . S
O214 C216 1.247 . S
O215 Cd211 2.439 . S
O215 C216 1.208 . S
C216 O214 1.247 . S
C216 O215 1.208 . S
C217 O222 1.247 . S
C217 O223 1.208 . S
C218 O210 1.315 . S
C218 O213 1.279 . S
C219 O220 1.315 . S
C219 O221 1.279 . S
O220 Cd212 2.223 . S
O220 C219 1.315 . S
O221 Cd211 2.240 . S
O221 C219 1.279 . S
O222 Cd212 2.297 . S
O222 C217 1.247 . S
O223 Cd212 2.439 . S
O223 C217 1.208 . S
O224 Cd225 2.223 . S
O224 C232 1.315 . S
Cd225 O224 2.223 . S
Cd225 O228 2.297 . S
Cd225 O229 2.439 . S
Cd225 O235 2.240 . S
Cd226 O227 2.240 . S
Cd226 O234 2.223 . S
Cd226 O236 2.297 . S
Cd226 O237 2.439 . S
O227 Cd226 2.240 . S
O227 C232 1.279 . S
O228 Cd225 2.297 . S
O228 C230 1.247 . S
O229 Cd225 2.439 . S
O229 C230 1.208 . S
C230 O228 1.247 . S
C230 O229 1.208 . S
C231 O236 1.247 . S
C231 O237 1.208 . S
C232 O224 1.315 . S
C232 O227 1.279 . S
C233 O234 1.315 . S
C233 O235 1.279 . S
O234 Cd226 2.223 . S
O234 C233 1.315 . S
O235 Cd225 2.240 . S
O235 C233 1.279 . S
O236 Cd226 2.297 . S
O236 C231 1.247 . S
O237 Cd226 2.439 . S
O237 C231 1.208 . S
O238 Cd239 2.223 . S
O238 C246 1.315 . S
Cd239 O238 2.223 . S
Cd239 O242 2.297 . S
Cd239 O243 2.439 . S
Cd239 O249 2.240 . S
Cd240 O241 2.240 . S
Cd240 O248 2.223 . S
Cd240 O250 2.297 . S
Cd240 O251 2.439 . S
O241 Cd240 2.240 . S
O241 C246 1.279 . S
O242 Cd239 2.297 . S
O242 C244 1.247 . S
O243 Cd239 2.439 . S
O243 C244 1.208 . S
C244 O242 1.247 . S
C244 O243 1.208 . S
C245 O250 1.247 . S
C245 O251 1.208 . S
C246 O238 1.315 . S
C246 O241 1.279 . S
C247 O248 1.315 . S
C247 O249 1.279 . S
O248 Cd240 2.223 . S
O248 C247 1.315 . S
O249 Cd239 2.240 . S
O249 C247 1.279 . S
O250 Cd240 2.297 . S
O250 C245 1.247 . S
O251 Cd240 2.439 . S
O251 C245 1.208 . S
O252 Cd253 2.223 . S
O252 C260 1.315 . S
Cd253 O252 2.223 . S
Cd253 O256 2.297 . S
Cd253 O257 2.439 . S
Cd253 O263 2.240 . S
Cd254 O255 2.240 . S
Cd254 O262 2.223 . S
Cd254 O264 2.297 . S
Cd254 O265 2.439 . S
O255 Cd254 2.240 . S
O255 C260 1.279 . S
O256 Cd253 2.297 . S
O256 C258 1.247 . S
O257 Cd253 2.439 . S
O257 C258 1.208 . S
C258 O256 1.247 . S
C258 O257 1.208 . S
C259 O264 1.247 . S
C259 O265 1.208 . S
C260 O252 1.315 . S
C260 O255 1.279 . S
C261 O262 1.315 . S
C261 O263 1.279 . S
O262 Cd254 2.223 . S
O262 C261 1.315 . S
O263 Cd253 2.240 . S
O263 C261 1.279 . S
O264 Cd254 2.297 . S
O264 C259 1.247 . S
O265 Cd254 2.439 . S
O265 C259 1.208 . S
O266 Cd267 2.223 . S
O266 C274 1.315 . S
Cd267 O266 2.223 . S
Cd267 O270 2.297 . S
Cd267 O271 2.439 . S
Cd267 O277 2.240 . S
Cd268 O269 2.240 . S
Cd268 O276 2.223 . S
Cd268 O278 2.297 . S
Cd268 O279 2.439 . S
O269 Cd268 2.240 . S
O269 C274 1.279 . S
O270 Cd267 2.297 . S
O270 C272 1.247 . S
O271 Cd267 2.439 . S
O271 C272 1.208 . S
C272 O270 1.247 . S
C272 O271 1.208 . S
C273 O278 1.247 . S
C273 O279 1.208 . S
C274 O266 1.315 . S
C274 O269 1.279 . S
C275 O276 1.315 . S
C275 O277 1.279 . S
O276 Cd268 2.223 . S
O276 C275 1.315 . S
O277 Cd267 2.240 . S
O277 C275 1.279 . S
O278 Cd268 2.297 . S
O278 C273 1.247 . S
O279 Cd268 2.439 . S
O279 C273 1.208 . S
O280 Cd281 2.223 . S
O280 C288 1.315 . S
Cd281 O280 2.223 . S
Cd281 O284 2.297 . S
Cd281 O285 2.439 . S
Cd281 O291 2.240 . S
Cd282 O283 2.240 . S
Cd282 O290 2.223 . S
Cd282 O292 2.297 . S
Cd282 O293 2.439 . S
O283 Cd282 2.240 . S
O283 C288 1.279 . S
O284 Cd281 2.297 . S
O284 C286 1.247 . S
O285 Cd281 2.439 . S
O285 C286 1.208 . S
C286 O284 1.247 . S
C286 O285 1.208 . S
C287 O292 1.247 . S
C287 O293 1.208 . S
C288 O280 1.315 . S
C288 O283 1.279 . S
C289 O290 1.315 . S
C289 O291 1.279 . S
O290 Cd282 2.223 . S
O290 C289 1.315 . S
O291 Cd281 2.240 . S
O291 C289 1.279 . S
O292 Cd282 2.297 . S
O292 C287 1.247 . S
O293 Cd282 2.439 . S
O293 C287 1.208 . S
O294 Cd295 2.223 . S
O294 C302 1.315 . S
Cd295 O294 2.223 . S
Cd295 O298 2.297 . S
Cd295 O299 2.439 . S
Cd295 O305 2.240 . S
Cd296 O297 2.240 . S
Cd296 O304 2.223 . S
Cd296 O306 2.297 . S
Cd296 O307 2.439 . S
O297 Cd296 2.240 . S
O297 C302 1.279 . S
O298 Cd295 2.297 . S
O298 C300 1.247 . S
O299 Cd295 2.439 . S
O299 C300 1.208 . S
C300 O298 1.247 . S
C300 O299 1.208 . S
C301 O306 1.247 . S
C301 O307 1.208 . S
C302 O294 1.315 . S
C302 O297 1.279 . S
C303 O304 1.315 . S
C303 O305 1.279 . S
O304 Cd296 2.223 . S
O304 C303 1.315 . S
O305 Cd295 2.240 . S
O305 C303 1.279 . S
O306 Cd296 2.297 . S
O306 C301 1.247 . S
O307 Cd296 2.439 . S
O307 C301 1.208 . S
O308 Cd309 2.223 . S
O308 C316 1.315 . S
Cd309 O308 2.223 . S
Cd309 O312 2.297 . S
Cd309 O313 2.439 . S
Cd309 O319 2.240 . S
Cd310 O311 2.240 . S
Cd310 O318 2.223 . S
Cd310 O320 2.297 . S
Cd310 O321 2.439 . S
O311 Cd310 2.240 . S
O311 C316 1.279 . S
O312 Cd309 2.297 . S
O312 C314 1.247 . S
O313 Cd309 2.439 . S
O313 C314 1.208 . S
C314 O312 1.247 . S
C314 O313 1.208 . S
C315 O320 1.247 . S
C315 O321 1.208 . S
C316 O308 1.315 . S
C316 O311 1.279 . S
C317 O318 1.315 . S
C317 O319 1.279 . S
O318 Cd310 2.223 . S
O318 C317 1.315 . S
O319 Cd309 2.240 . S
O319 C317 1.279 . S
O320 Cd310 2.297 . S
O320 C315 1.247 . S
O321 Cd310 2.439 . S
O321 C315 1.208 . S
O322 Cd323 2.223 . S
O322 C330 1.315 . S
Cd323 O322 2.223 . S
Cd323 O326 2.297 . S
Cd323 O327 2.439 . S
Cd323 O333 2.240 . S
Cd324 O325 2.240 . S
Cd324 O332 2.223 . S
Cd324 O334 2.297 . S
Cd324 O335 2.439 . S
O325 Cd324 2.240 . S
O325 C330 1.279 . S
O326 Cd323 2.297 . S
O326 C328 1.247 . S
O327 Cd323 2.439 . S
O327 C328 1.208 . S
C328 O326 1.247 . S
C328 O327 1.208 . S
C329 O334 1.247 . S
C329 O335 1.208 . S
C330 O322 1.315 . S
C330 O325 1.279 . S
C331 O332 1.315 . S
C331 O333 1.279 . S
O332 Cd324 2.223 . S
O332 C331 1.315 . S
O333 Cd323 2.240 . S
O333 C331 1.279 . S
O334 Cd324 2.297 . S
O334 C329 1.247 . S
O335 Cd324 2.439 . S
O335 C329 1.208 . S
O336 Cd337 2.223 . S
O336 C344 1.315 . S
Cd337 O336 2.223 . S
Cd337 O340 2.297 . S
Cd337 O341 2.439 . S
Cd337 O347 2.240 . S
Cd338 O339 2.240 . S
Cd338 O346 2.223 . S
Cd338 O348 2.297 . S
Cd338 O349 2.439 . S
O339 Cd338 2.240 . S
O339 C344 1.279 . S
O340 Cd337 2.297 . S
O340 C342 1.247 . S
O341 Cd337 2.439 . S
O341 C342 1.208 . S
C342 O340 1.247 . S
C342 O341 1.208 . S
C343 O348 1.247 . S
C343 O349 1.208 . S
C344 O336 1.315 . S
C344 O339 1.279 . S
C345 O346 1.315 . S
C345 O347 1.279 . S
O346 Cd338 2.223 . S
O346 C345 1.315 . S
O347 Cd337 2.240 . S
O347 C345 1.279 . S
O348 Cd338 2.297 . S
O348 C343 1.247 . S
O349 Cd338 2.439 . S
O349 C343 1.208 . S
O350 Cd351 2.223 . S
O350 C358 1.315 . S
Cd351 O350 2.223 . S
Cd351 O354 2.297 . S
Cd351 O355 2.439 . S
Cd351 O361 2.240 . S
Cd352 O353 2.240 . S
Cd352 O360 2.223 . S
Cd352 O362 2.297 . S
Cd352 O363 2.439 . S
O353 Cd352 2.240 . S
O353 C358 1.279 . S
O354 Cd351 2.297 . S
O354 C356 1.247 . S
O355 Cd351 2.439 . S
O355 C356 1.208 . S
C356 O354 1.247 . S
C356 O355 1.208 . S
C357 O362 1.247 . S
C357 O363 1.208 . S
C358 O350 1.315 . S
C358 O353 1.279 . S
C359 O360 1.315 . S
C359 O361 1.279 . S
O360 Cd352 2.223 . S
O360 C359 1.315 . S
O361 Cd351 2.240 . S
O361 C359 1.279 . S
O362 Cd352 2.297 . S
O362 C357 1.247 . S
O363 Cd352 2.439 . S
O363 C357 1.208 . S
O364 Cd365 2.223 . S
O364 C372 1.315 . S
Cd365 O364 2.223 . S
Cd365 O368 2.297 . S
Cd365 O369 2.439 . S
Cd365 O375 2.240 . S
Cd366 O367 2.240 . S
Cd366 O374 2.223 . S
Cd366 O376 2.297 . S
Cd366 O377 2.439 . S
O367 Cd366 2.240 . S
O367 C372 1.279 . S
O368 Cd365 2.297 . S
O368 C370 1.247 . S
O369 Cd365 2.439 . S
O369 C370 1.208 . S
C370 O368 1.247 . S
C370 O369 1.208 . S
C371 O376 1.247 . S
C371 O377 1.208 . S
C372 O364 1.315 . S
C372 O367 1.279 . S
C373 O374 1.315 . S
C373 O375 1.279 . S
O374 Cd366 2.223 . S
O374 C373 1.315 . S
O375 Cd365 2.240 . S
O375 C373 1.279 . S
O376 Cd366 2.297 . S
O376 C371 1.247 . S
O377 Cd366 2.439 . S
O377 C371 1.208 . S
O378 Cd379 2.223 . S
O378 C386 1.315 . S
Cd379 O378 2.223 . S
Cd379 O382 2.297 . S
Cd379 O383 2.439 . S
Cd379 O389 2.240 . S
Cd380 O381 2.240 . S
Cd380 O388 2.223 . S
Cd380 O390 2.297 . S
Cd380 O391 2.439 . S
O381 Cd380 2.240 . S
O381 C386 1.279 . S
O382 Cd379 2.297 . S
O382 C384 1.247 . S
O383 Cd379 2.439 . S
O383 C384 1.208 . S
C384 O382 1.247 . S
C384 O383 1.208 . S
C385 O390 1.247 . S
C385 O391 1.208 . S
C386 O378 1.315 . S
C386 O381 1.279 . S
C387 O388 1.315 . S
C387 O389 1.279 . S
O388 Cd380 2.223 . S
O388 C387 1.315 . S
O389 Cd379 2.240 . S
O389 C387 1.279 . S
O390 Cd380 2.297 . S
O390 C385 1.247 . S
O391 Cd380 2.439 . S
O391 C385 1.208 . S
O392 Cd393 2.223 . S
O392 C400 1.315 . S
Cd393 O392 2.223 . S
Cd393 O396 2.297 . S
Cd393 O397 2.439 . S
Cd393 O403 2.240 . S
Cd394 O395 2.240 . S
Cd394 O402 2.223 . S
Cd394 O404 2.297 . S
Cd394 O405 2.439 . S
O395 Cd394 2.240 . S
O395 C400 1.279 . S
O396 Cd393 2.297 . S
O396 C398 1.247 . S
O397 Cd393 2.439 . S
O397 C398 1.208 . S
C398 O396 1.247 . S
C398 O397 1.208 . S
C399 O404 1.247 . S
C399 O405 1.208 . S
C400 O392 1.315 . S
C400 O395 1.279 . S
C401 O402 1.315 . S
C401 O403 1.279 . S
O402 Cd394 2.223 . S
O402 C401 1.315 . S
O403 Cd393 2.240 . S
O403 C401 1.279 . S
O404 Cd394 2.297 . S
O404 C399 1.247 . S
O405 Cd394 2.439 . S
O405 C399 1.208 . S
O406 Cd407 2.223 . S
O406 C414 1.315 . S
Cd407 O406 2.223 . S
Cd407 O410 2.297 . S
Cd407 O411 2.439 . S
Cd407 O417 2.240 . S
Cd408 O409 2.240 . S
Cd408 O416 2.223 . S
Cd408 O418 2.297 . S
Cd408 O419 2.439 . S
O409 Cd408 2.240 . S
O409 C414 1.279 . S
O410 Cd407 2.297 . S
O410 C412 1.247 . S
O411 Cd407 2.439 . S
O411 C412 1.208 . S
C412 O410 1.247 . S
C412 O411 1.208 . S
C413 O418 1.247 . S
C413 O419 1.208 . S
C414 O406 1.315 . S
C414 O409 1.279 . S
C415 O416 1.315 . S
C415 O417 1.279 . S
O416 Cd408 2.223 . S
O416 C415 1.315 . S
O417 Cd407 2.240 . S
O417 C415 1.279 . S
O418 Cd408 2.297 . S
O418 C413 1.247 . S
O419 Cd408 2.439 . S
O419 C413 1.208 . S
O420 Cd421 2.223 . S
O420 C428 1.315 . S
Cd421 O420 2.223 . S
Cd421 O424 2.297 . S
Cd421 O425 2.439 . S
Cd421 O431 2.240 . S
Cd422 O423 2.240 . S
Cd422 O430 2.223 . S
Cd422 O432 2.297 . S
Cd422 O433 2.439 . S
O423 Cd422 2.240 . S
O423 C428 1.279 . S
O424 Cd421 2.297 . S
O424 C426 1.247 . S
O425 Cd421 2.439 . S
O425 C426 1.208 . S
C426 O424 1.247 . S
C426 O425 1.208 . S
C427 O432 1.247 . S
C427 O433 1.208 . S
C428 O420 1.315 . S
C428 O423 1.279 . S
C429 O430 1.315 . S
C429 O431 1.279 . S
O430 Cd422 2.223 . S
O430 C429 1.315 . S
O431 Cd421 2.240 . S
O431 C429 1.279 . S
O432 Cd422 2.297 . S
O432 C427 1.247 . S
O433 Cd422 2.439 . S
O433 C427 1.208 . S
O434 Cd435 2.223 . S
O434 C442 1.315 . S
Cd435 O434 2.223 . S
Cd435 O438 2.297 . S
Cd435 O439 2.439 . S
Cd435 O445 2.240 . S
Cd436 O437 2.240 . S
Cd436 O444 2.223 . S
Cd436 O446 2.297 . S
Cd436 O447 2.439 . S
O437 Cd436 2.240 . S
O437 C442 1.279 . S
O438 Cd435 2.297 . S
O438 C440 1.247 . S
O439 Cd435 2.439 . S
O439 C440 1.208 . S
C440 O438 1.247 . S
C440 O439 1.208 . S
C441 O446 1.247 . S
C441 O447 1.208 . S
C442 O434 1.315 . S
C442 O437 1.279 . S
C443 O444 1.315 . S
C443 O445 1.279 . S
O444 Cd436 2.223 . S
O444 C443 1.315 . S
O445 Cd435 2.240 . S
O445 C443 1.279 . S
O446 Cd436 2.297 . S
O446 C441 1.247 . S
O447 Cd436 2.439 . S
O447 C441 1.208 . S
O448 Cd449 2.223 . S
O448 C456 1.315 . S
Cd449 O448 2.223 . S
Cd449 O452 2.297 . S
Cd449 O453 2.439 . S
Cd449 O459 2.240 . S
Cd450 O451 2.240 . S
Cd450 O458 2.223 . S
Cd450 O460 2.297 . S
Cd450 O461 2.439 . S
O451 Cd450 2.240 . S
O451 C456 1.279 . S
O452 Cd449 2.297 . S
O452 C454 1.247 . S
O453 Cd449 2.439 . S
O453 C454 1.208 . S
C454 O452 1.247 . S
C454 O453 1.208 . S
C455 O460 1.247 . S
C455 O461 1.208 . S
C456 O448 1.315 . S
C456 O451 1.279 . S
C457 O458 1.315 . S
C457 O459 1.279 . S
O458 Cd450 2.223 . S
O458 C457 1.315 . S
O459 Cd449 2.240 . S
O459 C457 1.279 . S
O460 Cd450 2.297 . S
O460 C455 1.247 . S
O461 Cd450 2.439 . S
O461 C455 1.208 . S
O462 Cd463 2.223 . S
O462 C470 1.315 . S
Cd463 O462 2.223 . S
Cd463 O466 2.297 . S
Cd463 O467 2.439 . S
Cd463 O473 2.240 . S
Cd464 O465 2.240 . S
Cd464 O472 2.223 . S
Cd464 O474 2.297 . S
Cd464 O475 2.439 . S
O465 Cd464 2.240 . S
O465 C470 1.279 . S
O466 Cd463 2.297 . S
O466 C468 1.247 . S
O467 Cd463 2.439 . S
O467 C468 1.208 . S
C468 O466 1.247 . S
C468 O467 1.208 . S
C469 O474 1.247 . S
C469 O475 1.208 . S
C470 O462 1.315 . S
C470 O465 1.279 . S
C471 O472 1.315 . S
C471 O473 1.279 . S
O472 Cd464 2.223 . S
O472 C471 1.315 . S
O473 Cd463 2.240 . S
O473 C471 1.279 . S
O474 Cd464 2.297 . S
O474 C469 1.247 . S
O475 Cd464 2.439 . S
O475 C469 1.208 . S
O476 Cd477 2.223 . S
O476 C484 1.315 . S
Cd477 O476 2.223 . S
Cd477 O480 2.297 . S
Cd477 O481 2.439 . S
Cd477 O487 2.240 . S
Cd478 O479 2.240 . S
Cd478 O486 2.223 . S
Cd478 O488 2.297 . S
Cd478 O489 2.439 . S
O479 Cd478 2.240 . S
O479 C484 1.279 . S
O480 Cd477 2.297 . S
O480 C482 1.247 . S
O481 Cd477 2.439 . S
O481 C482 1.208 . S
C482 O480 1.247 . S
C482 O481 1.208 . S
C483 O488 1.247 . S
C483 O489 1.208 . S
C484 O476 1.315 . S
C484 O479 1.279 . S
C485 O486 1.315 . S
C485 O487 1.279 . S
O486 Cd478 2.223 . S
O486 C485 1.315 . S
O487 Cd477 2.240 . S
O487 C485 1.279 . S
O488 Cd478 2.297 . S
O488 C483 1.247 . S
O489 Cd478 2.439 . S
O489 C483 1.208 . S
O490 Cd491 2.223 . S
O490 C498 1.315 . S
Cd491 O490 2.223 . S
Cd491 O494 2.297 . S
Cd491 O495 2.439 . S
Cd491 O501 2.240 . S
Cd492 O493 2.240 . S
Cd492 O500 2.223 . S
Cd492 O502 2.297 . S
Cd492 O503 2.439 . S
O493 Cd492 2.240 . S
O493 C498 1.279 . S
O494 Cd491 2.297 . S
O494 C496 1.247 . S
O495 Cd491 2.439 . S
O495 C496 1.208 . S
C496 O494 1.247 . S
C496 O495 1.208 . S
C497 O502 1.247 . S
C497 O503 1.208 . S
C498 O490 1.315 . S
C498 O493 1.279 . S
C499 O500 1.315 . S
C499 O501 1.279 . S
O500 Cd492 2.223 . S
O500 C499 1.315 . S
O501 Cd491 2.240 . S
O501 C499 1.279 . S
O502 Cd492 2.297 . S
O502 C497 1.247 . S
O503 Cd492 2.439 . S
O503 C497 1.208 . S
O504 Cd505 2.223 . S
O504 C512 1.315 . S
Cd505 O504 2.223 . S
Cd505 O508 2.297 . S
Cd505 O509 2.439 . S
Cd505 O515 2.240 . S
Cd506 O507 2.240 . S
Cd506 O514 2.223 . S
Cd506 O516 2.297 . S
Cd506 O517 2.439 . S
O507 Cd506 2.240 . S
O507 C512 1.279 . S
O508 Cd505 2.297 . S
O508 C510 1.247 . S
O509 Cd505 2.439 . S
O509 C510 1.208 . S
C510 O508 1.247 . S
C510 O509 1.208 . S
C511 O516 1.247 . S
C511 O517 1.208 . S
C512 O504 1.315 . S
C512 O507 1.279 . S
C513 O514 1.315 . S
C513 O515 1.279 . S
O514 Cd506 2.223 . S
O514 C513 1.315 . S
O515 Cd505 2.240 . S
O515 C513 1.279 . S
O516 Cd506 2.297 . S
O516 C511 1.247 . S
O517 Cd506 2.439 . S
O517 C511 1.208 . S
O518 Cd519 2.223 . S
O518 C526 1.315 . S
Cd519 O518 2.223 . S
Cd519 O522 2.297 . S
Cd519 O523 2.439 . S
Cd519 O529 2.240 . S
Cd520 O521 2.240 . S
Cd520 O528 2.223 . S
Cd520 O530 2.297 . S
Cd520 O531 2.439 . S
O521 Cd520 2.240 . S
O521 C526 1.279 . S
O522 Cd519 2.297 . S
O522 C524 1.247 . S
O523 Cd519 2.439 . S
O523 C524 1.208 . S
C524 O522 1.247 . S
C524 O523 1.208 . S
C525 O530 1.247 . S
C525 O531 1.208 . S
C526 O518 1.315 . S
C526 O521 1.279 . S
C527 O528 1.315 . S
C527 O529 1.279 . S
O528 Cd520 2.223 . S
O528 C527 1.315 . S
O529 Cd519 2.240 . S
O529 C527 1.279 . S
O530 Cd520 2.297 . S
O530 C525 1.247 . S
O531 Cd520 2.439 . S
O531 C525 1.208 . S
O532 Cd533 2.223 . S
O532 C540 1.315 . S
Cd533 O532 2.223 . S
Cd533 O536 2.297 . S
Cd533 O537 2.439 . S
Cd533 O543 2.240 . S
Cd534 O535 2.240 . S
Cd534 O542 2.223 . S
Cd534 O544 2.297 . S
Cd534 O545 2.439 . S
O535 Cd534 2.240 . S
O535 C540 1.279 . S
O536 Cd533 2.297 . S
O536 C538 1.247 . S
O537 Cd533 2.439 . S
O537 C538 1.208 . S
C538 O536 1.247 . S
C538 O537 1.208 . S
C539 O544 1.247 . S
C539 O545 1.208 . S
C540 O532 1.315 . S
C540 O535 1.279 . S
C541 O542 1.315 . S
C541 O543 1.279 . S
O542 Cd534 2.223 . S
O542 C541 1.315 . S
O543 Cd533 2.240 . S
O543 C541 1.279 . S
O544 Cd534 2.297 . S
O544 C539 1.247 . S
O545 Cd534 2.439 . S
O545 C539 1.208 . S
O546 Cd547 2.223 . S
O546 C554 1.315 . S
Cd547 O546 2.223 . S
Cd547 O550 2.297 . S
Cd547 O551 2.439 . S
Cd547 O557 2.240 . S
Cd548 O549 2.240 . S
Cd548 O556 2.223 . S
Cd548 O558 2.297 . S
Cd548 O559 2.439 . S
O549 Cd548 2.240 . S
O549 C554 1.279 . S
O550 Cd547 2.297 . S
O550 C552 1.247 . S
O551 Cd547 2.439 . S
O551 C552 1.208 . S
C552 O550 1.247 . S
C552 O551 1.208 . S
C553 O558 1.247 . S
C553 O559 1.208 . S
C554 O546 1.315 . S
C554 O549 1.279 . S
C555 O556 1.315 . S
C555 O557 1.279 . S
O556 Cd548 2.223 . S
O556 C555 1.315 . S
O557 Cd547 2.240 . S
O557 C555 1.279 . S
O558 Cd548 2.297 . S
O558 C553 1.247 . S
O559 Cd548 2.439 . S
O559 C553 1.208 . S
O560 Cd561 2.223 . S
O560 C568 1.315 . S
Cd561 O560 2.223 . S
Cd561 O564 2.297 . S
Cd561 O565 2.439 . S
Cd561 O571 2.240 . S
Cd562 O563 2.240 . S
Cd562 O570 2.223 . S
Cd562 O572 2.297 . S
Cd562 O573 2.439 . S
O563 Cd562 2.240 . S
O563 C568 1.279 . S
O564 Cd561 2.297 . S
O564 C566 1.247 . S
O565 Cd561 2.439 . S
O565 C566 1.208 . S
C566 O564 1.247 . S
C566 O565 1.208 . S
C567 O572 1.247 . S
C567 O573 1.208 . S
C568 O560 1.315 . S
C568 O563 1.279 . S
C569 O570 1.315 . S
C569 O571 1.279 . S
O570 Cd562 2.223 . S
O570 C569 1.315 . S
O571 Cd561 2.240 . S
O571 C569 1.279 . S
O572 Cd562 2.297 . S
O572 C567 1.247 . S
O573 Cd562 2.439 . S
O573 C567 1.208 . S
O574 Cd575 2.223 . S
O574 C582 1.315 . S
Cd575 O574 2.223 . S
Cd575 O578 2.297 . S
Cd575 O579 2.439 . S
Cd575 O585 2.240 . S
Cd576 O577 2.240 . S
Cd576 O584 2.223 . S
Cd576 O586 2.297 . S
Cd576 O587 2.439 . S
O577 Cd576 2.240 . S
O577 C582 1.279 . S
O578 Cd575 2.297 . S
O578 C580 1.247 . S
O579 Cd575 2.439 . S
O579 C580 1.208 . S
C580 O578 1.247 . S
C580 O579 1.208 . S
C581 O586 1.247 . S
C581 O587 1.208 . S
C582 O574 1.315 . S
C582 O577 1.279 . S
C583 O584 1.315 . S
C583 O585 1.279 . S
O584 Cd576 2.223 . S
O584 C583 1.315 . S
O585 Cd575 2.240 . S
O585 C583 1.279 . S
O586 Cd576 2.297 . S
O586 C581 1.247 . S
O587 Cd576 2.439 . S
O587 C581 1.208 . S
O588 Cd589 2.223 . S
O588 C596 1.315 . S
Cd589 O588 2.223 . S
Cd589 O592 2.297 . S
Cd589 O593 2.439 . S
Cd589 O599 2.240 . S
Cd590 O591 2.240 . S
Cd590 O598 2.223 . S
Cd590 O600 2.297 . S
Cd590 O601 2.439 . S
O591 Cd590 2.240 . S
O591 C596 1.279 . S
O592 Cd589 2.297 . S
O592 C594 1.247 . S
O593 Cd589 2.439 . S
O593 C594 1.208 . S
C594 O592 1.247 . S
C594 O593 1.208 . S
C595 O600 1.247 . S
C595 O601 1.208 . S
C596 O588 1.315 . S
C596 O591 1.279 . S
C597 O598 1.315 . S
C597 O599 1.279 . S
O598 Cd590 2.223 . S
O598 C597 1.315 . S
O599 Cd589 2.240 . S
O599 C597 1.279 . S
O600 Cd590 2.297 . S
O600 C595 1.247 . S
O601 Cd590 2.439 . S
O601 C595 1.208 . S
O602 Cd603 2.223 . S
O602 C610 1.315 . S
Cd603 O602 2.223 . S
Cd603 O606 2.297 . S
Cd603 O607 2.439 . S
Cd603 O613 2.240 . S
Cd604 O605 2.240 . S
Cd604 O612 2.223 . S
Cd604 O614 2.297 . S
Cd604 O615 2.439 . S
O605 Cd604 2.240 . S
O605 C610 1.279 . S
O606 Cd603 2.297 . S
O606 C608 1.247 . S
O607 Cd603 2.439 . S
O607 C608 1.208 . S
C608 O606 1.247 . S
C608 O607 1.208 . S
C609 O614 1.247 . S
C609 O615 1.208 . S
C610 O602 1.315 . S
C610 O605 1.279 . S
C611 O612 1.315 . S
C611 O613 1.279 . S
O612 Cd604 2.223 . S
O612 C611 1.315 . S
O613 Cd603 2.240 . S
O613 C611 1.279 . S
O614 Cd604 2.297 . S
O614 C609 1.247 . S
O615 Cd604 2.439 . S
O615 C609 1.208 . S
O616 Cd617 2.223 . S
O616 C624 1.315 . S
Cd617 O616 2.223 . S
Cd617 O620 2.297 . S
Cd617 O621 2.439 . S
Cd617 O627 2.240 . S
Cd618 O619 2.240 . S
Cd618 O626 2.223 . S
Cd618 O628 2.297 . S
Cd618 O629 2.439 . S
O619 Cd618 2.240 . S
O619 C624 1.279 . S
O620 Cd617 2.297 . S
O620 C622 1.247 . S
O621 Cd617 2.439 . S
O621 C622 1.208 . S
C622 O620 1.247 . S
C622 O621 1.208 . S
C623 O628 1.247 . S
C623 O629 1.208 . S
C624 O616 1.315 . S
C624 O619 1.279 . S
C625 O626 1.315 . S
C625 O627 1.279 . S
O626 Cd618 2.223 . S
O626 C625 1.315 . S
O627 Cd617 2.240 . S
O627 C625 1.279 . S
O628 Cd618 2.297 . S
O628 C623 1.247 . S
O629 Cd618 2.439 . S
O629 C623 1.208 . S
O630 Cd631 2.223 . S
O630 C638 1.315 . S
Cd631 O630 2.223 . S
Cd631 O634 2.297 . S
Cd631 O635 2.439 . S
Cd631 O641 2.240 . S
Cd632 O633 2.240 . S
Cd632 O640 2.223 . S
Cd632 O642 2.297 . S
Cd632 O643 2.439 . S
O633 Cd632 2.240 . S
O633 C638 1.279 . S
O634 Cd631 2.297 . S
O634 C636 1.247 . S
O635 Cd631 2.439 . S
O635 C636 1.208 . S
C636 O634 1.247 . S
C636 O635 1.208 . S
C637 O642 1.247 . S
C637 O643 1.208 . S
C638 O630 1.315 . S
C638 O633 1.279 . S
C639 O640 1.315 . S
C639 O641 1.279 . S
O640 Cd632 2.223 . S
O640 C639 1.315 . S
O641 Cd631 2.240 . S
O641 C639 1.279 . S
O642 Cd632 2.297 . S
O642 C637 1.247 . S
O643 Cd632 2.439 . S
O643 C637 1.208 . S
O644 Cd645 2.223 . S
O644 C652 1.315 . S
Cd645 O644 2.223 . S
Cd645 O648 2.297 . S
Cd645 O649 2.439 . S
Cd645 O655 2.240 . S
Cd646 O647 2.240 . S
Cd646 O654 2.223 . S
Cd646 O656 2.297 . S
Cd646 O657 2.439 . S
O647 Cd646 2.240 . S
O647 C652 1.279 . S
O648 Cd645 2.297 . S
O648 C650 1.247 . S
O649 Cd645 2.439 . S
O649 C650 1.208 . S
C650 O648 1.247 . S
C650 O649 1.208 . S
C651 O656 1.247 . S
C651 O657 1.208 . S
C652 O644 1.315 . S
C652 O647 1.279 . S
C653 O654 1.315 . S
C653 O655 1.279 . S
O654 Cd646 2.223 . S
O654 C653 1.315 . S
O655 Cd645 2.240 . S
O655 C653 1.279 . S
O656 Cd646 2.297 . S
O656 C651 1.247 . S
O657 Cd646 2.439 . S
O657 C651 1.208 . S
O658 Cd659 2.223 . S
O658 C666 1.315 . S
Cd659 O658 2.223 . S
Cd659 O662 2.297 . S
Cd659 O663 2.439 . S
Cd659 O669 2.240 . S
Cd660 O661 2.240 . S
Cd660 O668 2.223 . S
Cd660 O670 2.297 . S
Cd660 O671 2.439 . S
O661 Cd660 2.240 . S
O661 C666 1.279 . S
O662 Cd659 2.297 . S
O662 C664 1.247 . S
O663 Cd659 2.439 . S
O663 C664 1.208 . S
C664 O662 1.247 . S
C664 O663 1.208 . S
C665 O670 1.247 . S
C665 O671 1.208 . S
C666 O658 1.315 . S
C666 O661 1.279 . S
C667 O668 1.315 . S
C667 O669 1.279 . S
O668 Cd660 2.223 . S
O668 C667 1.315 . S
O669 Cd659 2.240 . S
O669 C667 1.279 . S
O670 Cd660 2.297 . S
O670 C665 1.247 . S
O671 Cd660 2.439 . S
O671 C665 1.208 . S
H672 C678 0.930 . S
H673 C681 0.930 . S
H674 C682 0.930 . S
H675 C683 0.930 . S
H676 C686 0.930 . S
H677 C687 0.930 . S
C678 H672 0.930 . S
C678 C679 1.355 . S
C678 C680 1.415 . S
C679 C678 1.355 . S
C679 C681 1.419 . S
C680 C678 1.415 . S
C680 C685 1.425 . S
C680 C687 1.409 . S
C681 H673 0.930 . S
C681 C679 1.419 . S
C681 C682 1.362 . S
C682 H674 0.930 . S
C682 C681 1.362 . S
C682 C685 1.409 . S
C683 H675 0.930 . S
C683 C684 1.355 . S
C683 C685 1.415 . S
C684 C683 1.355 . S
C684 C686 1.419 . S
C685 C680 1.425 . S
C685 C682 1.409 . S
C685 C683 1.415 . S
C686 H676 0.930 . S
C686 C684 1.419 . S
C686 C687 1.362 . S
C687 H677 0.930 . S
C687 C680 1.409 . S
C687 C686 1.362 . S
H688 C694 0.930 . S
H689 C697 0.930 . S
H690 C698 0.930 . S
H691 C699 0.930 . S
H692 C702 0.930 . S
H693 C703 0.930 . S
C694 H688 0.930 . S
C694 C695 1.355 . S
C694 C696 1.415 . S
C695 C694 1.355 . S
C695 C697 1.419 . S
C696 C694 1.415 . S
C696 C701 1.425 . S
C696 C703 1.409 . S
C697 H689 0.930 . S
C697 C695 1.419 . S
C697 C698 1.362 . S
C698 H690 0.930 . S
C698 C697 1.362 . S
C698 C701 1.409 . S
C699 H691 0.930 . S
C699 C700 1.355 . S
C699 C701 1.415 . S
C700 C699 1.355 . S
C700 C702 1.419 . S
C701 C696 1.425 . S
C701 C698 1.409 . S
C701 C699 1.415 . S
C702 H692 0.930 . S
C702 C700 1.419 . S
C702 C703 1.362 . S
C703 H693 0.930 . S
C703 C696 1.409 . S
C703 C702 1.362 . S
H704 C710 0.930 . S
H705 C713 0.930 . S
H706 C714 0.930 . S
H707 C715 0.930 . S
H708 C718 0.930 . S
H709 C719 0.930 . S
C710 H704 0.930 . S
C710 C711 1.355 . S
C710 C712 1.415 . S
C711 C710 1.355 . S
C711 C713 1.419 . S
C712 C710 1.415 . S
C712 C717 1.425 . S
C712 C719 1.409 . S
C713 H705 0.930 . S
C713 C711 1.419 . S
C713 C714 1.362 . S
C714 H706 0.930 . S
C714 C713 1.362 . S
C714 C717 1.409 . S
C715 H707 0.930 . S
C715 C716 1.355 . S
C715 C717 1.415 . S
C716 C715 1.355 . S
C716 C718 1.419 . S
C717 C712 1.425 . S
C717 C714 1.409 . S
C717 C715 1.415 . S
C718 H708 0.930 . S
C718 C716 1.419 . S
C718 C719 1.362 . S
C719 H709 0.930 . S
C719 C712 1.409 . S
C719 C718 1.362 . S
H720 C726 0.930 . S
H721 C729 0.930 . S
H722 C730 0.930 . S
H723 C731 0.930 . S
H724 C734 0.930 . S
H725 C735 0.930 . S
C726 H720 0.930 . S
C726 C727 1.355 . S
C726 C728 1.415 . S
C727 C726 1.355 . S
C727 C729 1.419 . S
C728 C726 1.415 . S
C728 C733 1.425 . S
C728 C735 1.409 . S
C729 H721 0.930 . S
C729 C727 1.419 . S
C729 C730 1.362 . S
C730 H722 0.930 . S
C730 C729 1.362 . S
C730 C733 1.409 . S
C731 H723 0.930 . S
C731 C732 1.355 . S
C731 C733 1.415 . S
C732 C731 1.355 . S
C732 C734 1.419 . S
C733 C728 1.425 . S
C733 C730 1.409 . S
C733 C731 1.415 . S
C734 H724 0.930 . S
C734 C732 1.419 . S
C734 C735 1.362 . S
C735 H725 0.930 . S
C735 C728 1.409 . S
C735 C734 1.362 . S
H736 C742 0.930 . S
H737 C745 0.930 . S
H738 C746 0.930 . S
H739 C747 0.930 . S
H740 C750 0.930 . S
H741 C751 0.930 . S
C742 H736 0.930 . S
C742 C743 1.355 . S
C742 C744 1.415 . S
C743 C742 1.355 . S
C743 C745 1.419 . S
C744 C742 1.415 . S
C744 C749 1.425 . S
C744 C751 1.409 . S
C745 H737 0.930 . S
C745 C743 1.419 . S
C745 C746 1.362 . S
C746 H738 0.930 . S
C746 C745 1.362 . S
C746 C749 1.409 . S
C747 H739 0.930 . S
C747 C748 1.355 . S
C747 C749 1.415 . S
C748 C747 1.355 . S
C748 C750 1.419 . S
C749 C744 1.425 . S
C749 C746 1.409 . S
C749 C747 1.415 . S
C750 H740 0.930 . S
C750 C748 1.419 . S
C750 C751 1.362 . S
C751 H741 0.930 . S
C751 C744 1.409 . S
C751 C750 1.362 . S
H752 C758 0.930 . S
H753 C761 0.930 . S
H754 C762 0.930 . S
H755 C763 0.930 . S
H756 C766 0.930 . S
H757 C767 0.930 . S
C758 H752 0.930 . S
C758 C759 1.355 . S
C758 C760 1.415 . S
C759 C758 1.355 . S
C759 C761 1.419 . S
C760 C758 1.415 . S
C760 C765 1.425 . S
C760 C767 1.409 . S
C761 H753 0.930 . S
C761 C759 1.419 . S
C761 C762 1.362 . S
C762 H754 0.930 . S
C762 C761 1.362 . S
C762 C765 1.409 . S
C763 H755 0.930 . S
C763 C764 1.355 . S
C763 C765 1.415 . S
C764 C763 1.355 . S
C764 C766 1.419 . S
C765 C760 1.425 . S
C765 C762 1.409 . S
C765 C763 1.415 . S
C766 H756 0.930 . S
C766 C764 1.419 . S
C766 C767 1.362 . S
C767 H757 0.930 . S
C767 C760 1.409 . S
C767 C766 1.362 . S
H768 C774 0.930 . S
H769 C777 0.930 . S
H770 C778 0.930 . S
H771 C779 0.930 . S
H772 C782 0.930 . S
H773 C783 0.930 . S
C774 H768 0.930 . S
C774 C775 1.355 . S
C774 C776 1.415 . S
C775 C774 1.355 . S
C775 C777 1.419 . S
C776 C774 1.415 . S
C776 C781 1.425 . S
C776 C783 1.409 . S
C777 H769 0.930 . S
C777 C775 1.419 . S
C777 C778 1.362 . S
C778 H770 0.930 . S
C778 C777 1.362 . S
C778 C781 1.409 . S
C779 H771 0.930 . S
C779 C780 1.355 . S
C779 C781 1.415 . S
C780 C779 1.355 . S
C780 C782 1.419 . S
C781 C776 1.425 . S
C781 C778 1.409 . S
C781 C779 1.415 . S
C782 H772 0.930 . S
C782 C780 1.419 . S
C782 C783 1.362 . S
C783 H773 0.930 . S
C783 C776 1.409 . S
C783 C782 1.362 . S
H784 C790 0.930 . S
H785 C793 0.930 . S
H786 C794 0.930 . S
H787 C795 0.930 . S
H788 C798 0.930 . S
H789 C799 0.930 . S
C790 H784 0.930 . S
C790 C791 1.355 . S
C790 C792 1.415 . S
C791 C790 1.355 . S
C791 C793 1.419 . S
C792 C790 1.415 . S
C792 C797 1.425 . S
C792 C799 1.409 . S
C793 H785 0.930 . S
C793 C791 1.419 . S
C793 C794 1.362 . S
C794 H786 0.930 . S
C794 C793 1.362 . S
C794 C797 1.409 . S
C795 H787 0.930 . S
C795 C796 1.355 . S
C795 C797 1.415 . S
C796 C795 1.355 . S
C796 C798 1.419 . S
C797 C792 1.425 . S
C797 C794 1.409 . S
C797 C795 1.415 . S
C798 H788 0.930 . S
C798 C796 1.419 . S
C798 C799 1.362 . S
C799 H789 0.930 . S
C799 C792 1.409 . S
C799 C798 1.362 . S
H800 C806 0.930 . S
H801 C809 0.930 . S
H802 C810 0.930 . S
H803 C811 0.930 . S
H804 C814 0.930 . S
H805 C815 0.930 . S
C806 H800 0.930 . S
C806 C807 1.355 . S
C806 C808 1.415 . S
C807 C806 1.355 . S
C807 C809 1.419 . S
C808 C806 1.415 . S
C808 C813 1.425 . S
C808 C815 1.409 . S
C809 H801 0.930 . S
C809 C807 1.419 . S
C809 C810 1.362 . S
C810 H802 0.930 . S
C810 C809 1.362 . S
C810 C813 1.409 . S
C811 H803 0.930 . S
C811 C812 1.355 . S
C811 C813 1.415 . S
C812 C811 1.355 . S
C812 C814 1.419 . S
C813 C808 1.425 . S
C813 C810 1.409 . S
C813 C811 1.415 . S
C814 H804 0.930 . S
C814 C812 1.419 . S
C814 C815 1.362 . S
C815 H805 0.930 . S
C815 C808 1.409 . S
C815 C814 1.362 . S
H816 C822 0.930 . S
H817 C825 0.930 . S
H818 C826 0.930 . S
H819 C827 0.930 . S
H820 C830 0.930 . S
H821 C831 0.930 . S
C822 H816 0.930 . S
C822 C823 1.355 . S
C822 C824 1.415 . S
C823 C822 1.355 . S
C823 C825 1.419 . S
C824 C822 1.415 . S
C824 C829 1.425 . S
C824 C831 1.409 . S
C825 H817 0.930 . S
C825 C823 1.419 . S
C825 C826 1.362 . S
C826 H818 0.930 . S
C826 C825 1.362 . S
C826 C829 1.409 . S
C827 H819 0.930 . S
C827 C828 1.355 . S
C827 C829 1.415 . S
C828 C827 1.355 . S
C828 C830 1.419 . S
C829 C824 1.425 . S
C829 C826 1.409 . S
C829 C827 1.415 . S
C830 H820 0.930 . S
C830 C828 1.419 . S
C830 C831 1.362 . S
C831 H821 0.930 . S
C831 C824 1.409 . S
C831 C830 1.362 . S
H832 C838 0.930 . S
H833 C841 0.930 . S
H834 C842 0.930 . S
H835 C843 0.930 . S
H836 C846 0.930 . S
H837 C847 0.930 . S
C838 H832 0.930 . S
C838 C839 1.355 . S
C838 C840 1.415 . S
C839 C838 1.355 . S
C839 C841 1.419 . S
C840 C838 1.415 . S
C840 C845 1.425 . S
C840 C847 1.409 . S
C841 H833 0.930 . S
C841 C839 1.419 . S
C841 C842 1.362 . S
C842 H834 0.930 . S
C842 C841 1.362 . S
C842 C845 1.409 . S
C843 H835 0.930 . S
C843 C844 1.355 . S
C843 C845 1.415 . S
C844 C843 1.355 . S
C844 C846 1.419 . S
C845 C840 1.425 . S
C845 C842 1.409 . S
C845 C843 1.415 . S
C846 H836 0.930 . S
C846 C844 1.419 . S
C846 C847 1.362 . S
C847 H837 0.930 . S
C847 C840 1.409 . S
C847 C846 1.362 . S
H848 C854 0.930 . S
H849 C857 0.930 . S
H850 C858 0.930 . S
H851 C859 0.930 . S
H852 C862 0.930 . S
H853 C863 0.930 . S
C854 H848 0.930 . S
C854 C855 1.355 . S
C854 C856 1.415 . S
C855 C854 1.355 . S
C855 C857 1.419 . S
C856 C854 1.415 . S
C856 C861 1.425 . S
C856 C863 1.409 . S
C857 H849 0.930 . S
C857 C855 1.419 . S
C857 C858 1.362 . S
C858 H850 0.930 . S
C858 C857 1.362 . S
C858 C861 1.409 . S
C859 H851 0.930 . S
C859 C860 1.355 . S
C859 C861 1.415 . S
C860 C859 1.355 . S
C860 C862 1.419 . S
C861 C856 1.425 . S
C861 C858 1.409 . S
C861 C859 1.415 . S
C862 H852 0.930 . S
C862 C860 1.419 . S
C862 C863 1.362 . S
C863 H853 0.930 . S
C863 C856 1.409 . S
C863 C862 1.362 . S
H864 C870 0.930 . S
H865 C873 0.930 . S
H866 C874 0.930 . S
H867 C875 0.930 . S
H868 C878 0.930 . S
H869 C879 0.930 . S
C870 H864 0.930 . S
C870 C871 1.355 . S
C870 C872 1.415 . S
C871 C870 1.355 . S
C871 C873 1.419 . S
C872 C870 1.415 . S
C872 C877 1.425 . S
C872 C879 1.409 . S
C873 H865 0.930 . S
C873 C871 1.419 . S
C873 C874 1.362 . S
C874 H866 0.930 . S
C874 C873 1.362 . S
C874 C877 1.409 . S
C875 H867 0.930 . S
C875 C876 1.355 . S
C875 C877 1.415 . S
C876 C875 1.355 . S
C876 C878 1.419 . S
C877 C872 1.425 . S
C877 C874 1.409 . S
C877 C875 1.415 . S
C878 H868 0.930 . S
C878 C876 1.419 . S
C878 C879 1.362 . S
C879 H869 0.930 . S
C879 C872 1.409 . S
C879 C878 1.362 . S
H880 C886 0.930 . S
H881 C889 0.930 . S
H882 C890 0.930 . S
H883 C891 0.930 . S
H884 C894 0.930 . S
H885 C895 0.930 . S
C886 H880 0.930 . S
C886 C887 1.355 . S
C886 C888 1.415 . S
C887 C886 1.355 . S
C887 C889 1.419 . S
C888 C886 1.415 . S
C888 C893 1.425 . S
C888 C895 1.409 . S
C889 H881 0.930 . S
C889 C887 1.419 . S
C889 C890 1.362 . S
C890 H882 0.930 . S
C890 C889 1.362 . S
C890 C893 1.409 . S
C891 H883 0.930 . S
C891 C892 1.355 . S
C891 C893 1.415 . S
C892 C891 1.355 . S
C892 C894 1.419 . S
C893 C888 1.425 . S
C893 C890 1.409 . S
C893 C891 1.415 . S
C894 H884 0.930 . S
C894 C892 1.419 . S
C894 C895 1.362 . S
C895 H885 0.930 . S
C895 C888 1.409 . S
C895 C894 1.362 . S
H896 C902 0.930 . S
H897 C905 0.930 . S
H898 C906 0.930 . S
H899 C907 0.930 . S
H900 C910 0.930 . S
H901 C911 0.930 . S
C902 H896 0.930 . S
C902 C903 1.355 . S
C902 C904 1.415 . S
C903 C902 1.355 . S
C903 C905 1.419 . S
C904 C902 1.415 . S
C904 C909 1.425 . S
C904 C911 1.409 . S
C905 H897 0.930 . S
C905 C903 1.419 . S
C905 C906 1.362 . S
C906 H898 0.930 . S
C906 C905 1.362 . S
C906 C909 1.409 . S
C907 H899 0.930 . S
C907 C908 1.355 . S
C907 C909 1.415 . S
C908 C907 1.355 . S
C908 C910 1.419 . S
C909 C904 1.425 . S
C909 C906 1.409 . S
C909 C907 1.415 . S
C910 H900 0.930 . S
C910 C908 1.419 . S
C910 C911 1.362 . S
C911 H901 0.930 . S
C911 C904 1.409 . S
C911 C910 1.362 . S
H912 C918 0.930 . S
H913 C921 0.930 . S
H914 C922 0.930 . S
H915 C923 0.930 . S
H916 C926 0.930 . S
H917 C927 0.930 . S
C918 H912 0.930 . S
C918 C919 1.355 . S
C918 C920 1.415 . S
C919 C918 1.355 . S
C919 C921 1.419 . S
C920 C918 1.415 . S
C920 C925 1.425 . S
C920 C927 1.409 . S
C921 H913 0.930 . S
C921 C919 1.419 . S
C921 C922 1.362 . S
C922 H914 0.930 . S
C922 C921 1.362 . S
C922 C925 1.409 . S
C923 H915 0.930 . S
C923 C924 1.355 . S
C923 C925 1.415 . S
C924 C923 1.355 . S
C924 C926 1.419 . S
C925 C920 1.425 . S
C925 C922 1.409 . S
C925 C923 1.415 . S
C926 H916 0.930 . S
C926 C924 1.419 . S
C926 C927 1.362 . S
C927 H917 0.930 . S
C927 C920 1.409 . S
C927 C926 1.362 . S
H928 C934 0.930 . S
H929 C937 0.930 . S
H930 C938 0.930 . S
H931 C939 0.930 . S
H932 C942 0.930 . S
H933 C943 0.930 . S
C934 H928 0.930 . S
C934 C935 1.355 . S
C934 C936 1.415 . S
C935 C934 1.355 . S
C935 C937 1.419 . S
C936 C934 1.415 . S
C936 C941 1.425 . S
C936 C943 1.409 . S
C937 H929 0.930 . S
C937 C935 1.419 . S
C937 C938 1.362 . S
C938 H930 0.930 . S
C938 C937 1.362 . S
C938 C941 1.409 . S
C939 H931 0.930 . S
C939 C940 1.355 . S
C939 C941 1.415 . S
C940 C939 1.355 . S
C940 C942 1.419 . S
C941 C936 1.425 . S
C941 C938 1.409 . S
C941 C939 1.415 . S
C942 H932 0.930 . S
C942 C940 1.419 . S
C942 C943 1.362 . S
C943 H933 0.930 . S
C943 C936 1.409 . S
C943 C942 1.362 . S
H944 C950 0.930 . S
H945 C953 0.930 . S
H946 C954 0.930 . S
H947 C955 0.930 . S
H948 C958 0.930 . S
H949 C959 0.930 . S
C950 H944 0.930 . S
C950 C951 1.355 . S
C950 C952 1.415 . S
C951 C950 1.355 . S
C951 C953 1.419 . S
C952 C950 1.415 . S
C952 C957 1.425 . S
C952 C959 1.409 . S
C953 H945 0.930 . S
C953 C951 1.419 . S
C953 C954 1.362 . S
C954 H946 0.930 . S
C954 C953 1.362 . S
C954 C957 1.409 . S
C955 H947 0.930 . S
C955 C956 1.355 . S
C955 C957 1.415 . S
C956 C955 1.355 . S
C956 C958 1.419 . S
C957 C952 1.425 . S
C957 C954 1.409 . S
C957 C955 1.415 . S
C958 H948 0.930 . S
C958 C956 1.419 . S
C958 C959 1.362 . S
C959 H949 0.930 . S
C959 C952 1.409 . S
C959 C958 1.362 . S
H960 C966 0.930 . S
H961 C969 0.930 . S
H962 C970 0.930 . S
H963 C971 0.930 . S
H964 C974 0.930 . S
H965 C975 0.930 . S
C966 H960 0.930 . S
C966 C967 1.355 . S
C966 C968 1.415 . S
C967 C966 1.355 . S
C967 C969 1.419 . S
C968 C966 1.415 . S
C968 C973 1.425 . S
C968 C975 1.409 . S
C969 H961 0.930 . S
C969 C967 1.419 . S
C969 C970 1.362 . S
C970 H962 0.930 . S
C970 C969 1.362 . S
C970 C973 1.409 . S
C971 H963 0.930 . S
C971 C972 1.355 . S
C971 C973 1.415 . S
C972 C971 1.355 . S
C972 C974 1.419 . S
C973 C968 1.425 . S
C973 C970 1.409 . S
C973 C971 1.415 . S
C974 H964 0.930 . S
C974 C972 1.419 . S
C974 C975 1.362 . S
C975 H965 0.930 . S
C975 C968 1.409 . S
C975 C974 1.362 . S
H976 C982 0.930 . S
H977 C985 0.930 . S
H978 C986 0.930 . S
H979 C987 0.930 . S
H980 C990 0.930 . S
H981 C991 0.930 . S
C982 H976 0.930 . S
C982 C983 1.355 . S
C982 C984 1.415 . S
C983 C982 1.355 . S
C983 C985 1.419 . S
C984 C982 1.415 . S
C984 C989 1.425 . S
C984 C991 1.409 . S
C985 H977 0.930 . S
C985 C983 1.419 . S
C985 C986 1.362 . S
C986 H978 0.930 . S
C986 C985 1.362 . S
C986 C989 1.409 . S
C987 H979 0.930 . S
C987 C988 1.355 . S
C987 C989 1.415 . S
C988 C987 1.355 . S
C988 C990 1.419 . S
C989 C984 1.425 . S
C989 C986 1.409 . S
C989 C987 1.415 . S
C990 H980 0.930 . S
C990 C988 1.419 . S
C990 C991 1.362 . S
C991 H981 0.930 . S
C991 C984 1.409 . S
C991 C990 1.362 . S
H992 C998 0.930 . S
H993 C1001 0.930 . S
H994 C1002 0.930 . S
H995 C1003 0.930 . S
H996 C1006 0.930 . S
H997 C1007 0.930 . S
C998 H992 0.930 . S
C998 C999 1.355 . S
C998 C1000 1.415 . S
C999 C998 1.355 . S
C999 C1001 1.419 . S
C1000 C998 1.415 . S
C1000 C1005 1.425 . S
C1000 C1007 1.409 . S
C1001 H993 0.930 . S
C1001 C999 1.419 . S
C1001 C1002 1.362 . S
C1002 H994 0.930 . S
C1002 C1001 1.362 . S
C1002 C1005 1.409 . S
C1003 H995 0.930 . S
C1003 C1004 1.355 . S
C1003 C1005 1.415 . S
C1004 C1003 1.355 . S
C1004 C1006 1.419 . S
C1005 C1000 1.425 . S
C1005 C1002 1.409 . S
C1005 C1003 1.415 . S
C1006 H996 0.930 . S
C1006 C1004 1.419 . S
C1006 C1007 1.362 . S
C1007 H997 0.930 . S
C1007 C1000 1.409 . S
C1007 C1006 1.362 . S
H1008 C1014 0.930 . S
H1009 C1017 0.930 . S
H1010 C1018 0.930 . S
H1011 C1019 0.930 . S
H1012 C1022 0.930 . S
H1013 C1023 0.930 . S
C1014 H1008 0.930 . S
C1014 C1015 1.355 . S
C1014 C1016 1.415 . S
C1015 C1014 1.355 . S
C1015 C1017 1.419 . S
C1016 C1014 1.415 . S
C1016 C1021 1.425 . S
C1016 C1023 1.409 . S
C1017 H1009 0.930 . S
C1017 C1015 1.419 . S
C1017 C1018 1.362 . S
C1018 H1010 0.930 . S
C1018 C1017 1.362 . S
C1018 C1021 1.409 . S
C1019 H1011 0.930 . S
C1019 C1020 1.355 . S
C1019 C1021 1.415 . S
C1020 C1019 1.355 . S
C1020 C1022 1.419 . S
C1021 C1016 1.425 . S
C1021 C1018 1.409 . S
C1021 C1019 1.415 . S
C1022 H1012 0.930 . S
C1022 C1020 1.419 . S
C1022 C1023 1.362 . S
C1023 H1013 0.930 . S
C1023 C1016 1.409 . S
C1023 C1022 1.362 . S
H1024 C1030 0.930 . S
H1025 C1033 0.930 . S
H1026 C1034 0.930 . S
H1027 C1035 0.930 . S
H1028 C1038 0.930 . S
H1029 C1039 0.930 . S
C1030 H1024 0.930 . S
C1030 C1031 1.355 . S
C1030 C1032 1.415 . S
C1031 C1030 1.355 . S
C1031 C1033 1.419 . S
C1032 C1030 1.415 . S
C1032 C1037 1.425 . S
C1032 C1039 1.409 . S
C1033 H1025 0.930 . S
C1033 C1031 1.419 . S
C1033 C1034 1.362 . S
C1034 H1026 0.930 . S
C1034 C1033 1.362 . S
C1034 C1037 1.409 . S
C1035 H1027 0.930 . S
C1035 C1036 1.355 . S
C1035 C1037 1.415 . S
C1036 C1035 1.355 . S
C1036 C1038 1.419 . S
C1037 C1032 1.425 . S
C1037 C1034 1.409 . S
C1037 C1035 1.415 . S
C1038 H1028 0.930 . S
C1038 C1036 1.419 . S
C1038 C1039 1.362 . S
C1039 H1029 0.930 . S
C1039 C1032 1.409 . S
C1039 C1038 1.362 . S
H1040 C1046 0.930 . S
H1041 C1049 0.930 . S
H1042 C1050 0.930 . S
H1043 C1051 0.930 . S
H1044 C1054 0.930 . S
H1045 C1055 0.930 . S
C1046 H1040 0.930 . S
C1046 C1047 1.355 . S
C1046 C1048 1.415 . S
C1047 C1046 1.355 . S
C1047 C1049 1.419 . S
C1048 C1046 1.415 . S
C1048 C1053 1.425 . S
C1048 C1055 1.409 . S
C1049 H1041 0.930 . S
C1049 C1047 1.419 . S
C1049 C1050 1.362 . S
C1050 H1042 0.930 . S
C1050 C1049 1.362 . S
C1050 C1053 1.409 . S
C1051 H1043 0.930 . S
C1051 C1052 1.355 . S
C1051 C1053 1.415 . S
C1052 C1051 1.355 . S
C1052 C1054 1.419 . S
C1053 C1048 1.425 . S
C1053 C1050 1.409 . S
C1053 C1051 1.415 . S
C1054 H1044 0.930 . S
C1054 C1052 1.419 . S
C1054 C1055 1.362 . S
C1055 H1045 0.930 . S
C1055 C1048 1.409 . S
C1055 C1054 1.362 . S
H1056 C1062 0.930 . S
H1057 C1065 0.930 . S
H1058 C1066 0.930 . S
H1059 C1067 0.930 . S
H1060 C1070 0.930 . S
H1061 C1071 0.930 . S
C1062 H1056 0.930 . S
C1062 C1063 1.355 . S
C1062 C1064 1.415 . S
C1063 C1062 1.355 . S
C1063 C1065 1.419 . S
C1064 C1062 1.415 . S
C1064 C1069 1.425 . S
C1064 C1071 1.409 . S
C1065 H1057 0.930 . S
C1065 C1063 1.419 . S
C1065 C1066 1.362 . S
C1066 H1058 0.930 . S
C1066 C1065 1.362 . S
C1066 C1069 1.409 . S
C1067 H1059 0.930 . S
C1067 C1068 1.355 . S
C1067 C1069 1.415 . S
C1068 C1067 1.355 . S
C1068 C1070 1.419 . S
C1069 C1064 1.425 . S
C1069 C1066 1.409 . S
C1069 C1067 1.415 . S
C1070 H1060 0.930 . S
C1070 C1068 1.419 . S
C1070 C1071 1.362 . S
C1071 H1061 0.930 . S
C1071 C1064 1.409 . S
C1071 C1070 1.362 . S
H1072 C1078 0.930 . S
H1073 C1081 0.930 . S
H1074 C1082 0.930 . S
H1075 C1083 0.930 . S
H1076 C1086 0.930 . S
H1077 C1087 0.930 . S
C1078 H1072 0.930 . S
C1078 C1079 1.355 . S
C1078 C1080 1.415 . S
C1079 C1078 1.355 . S
C1079 C1081 1.419 . S
C1080 C1078 1.415 . S
C1080 C1085 1.425 . S
C1080 C1087 1.409 . S
C1081 H1073 0.930 . S
C1081 C1079 1.419 . S
C1081 C1082 1.362 . S
C1082 H1074 0.930 . S
C1082 C1081 1.362 . S
C1082 C1085 1.409 . S
C1083 H1075 0.930 . S
C1083 C1084 1.355 . S
C1083 C1085 1.415 . S
C1084 C1083 1.355 . S
C1084 C1086 1.419 . S
C1085 C1080 1.425 . S
C1085 C1082 1.409 . S
C1085 C1083 1.415 . S
C1086 H1076 0.930 . S
C1086 C1084 1.419 . S
C1086 C1087 1.362 . S
C1087 H1077 0.930 . S
C1087 C1080 1.409 . S
C1087 C1086 1.362 . S
H1088 C1094 0.930 . S
H1089 C1097 0.930 . S
H1090 C1098 0.930 . S
H1091 C1099 0.930 . S
H1092 C1102 0.930 . S
H1093 C1103 0.930 . S
C1094 H1088 0.930 . S
C1094 C1095 1.355 . S
C1094 C1096 1.415 . S
C1095 C1094 1.355 . S
C1095 C1097 1.419 . S
C1096 C1094 1.415 . S
C1096 C1101 1.425 . S
C1096 C1103 1.409 . S
C1097 H1089 0.930 . S
C1097 C1095 1.419 . S
C1097 C1098 1.362 . S
C1098 H1090 0.930 . S
C1098 C1097 1.362 . S
C1098 C1101 1.409 . S
C1099 H1091 0.930 . S
C1099 C1100 1.355 . S
C1099 C1101 1.415 . S
C1100 C1099 1.355 . S
C1100 C1102 1.419 . S
C1101 C1096 1.425 . S
C1101 C1098 1.409 . S
C1101 C1099 1.415 . S
C1102 H1092 0.930 . S
C1102 C1100 1.419 . S
C1102 C1103 1.362 . S
C1103 H1093 0.930 . S
C1103 C1096 1.409 . S
C1103 C1102 1.362 . S
H1104 C1110 0.930 . S
H1105 C1113 0.930 . S
H1106 C1114 0.930 . S
H1107 C1115 0.930 . S
H1108 C1118 0.930 . S
H1109 C1119 0.930 . S
C1110 H1104 0.930 . S
C1110 C1111 1.355 . S
C1110 C1112 1.415 . S
C1111 C1110 1.355 . S
C1111 C1113 1.419 . S
C1112 C1110 1.415 . S
C1112 C1117 1.425 . S
C1112 C1119 1.409 . S
C1113 H1105 0.930 . S
C1113 C1111 1.419 . S
C1113 C1114 1.362 . S
C1114 H1106 0.930 . S
C1114 C1113 1.362 . S
C1114 C1117 1.409 . S
C1115 H1107 0.930 . S
C1115 C1116 1.355 . S
C1115 C1117 1.415 . S
C1116 C1115 1.355 . S
C1116 C1118 1.419 . S
C1117 C1112 1.425 . S
C1117 C1114 1.409 . S
C1117 C1115 1.415 . S
C1118 H1108 0.930 . S
C1118 C1116 1.419 . S
C1118 C1119 1.362 . S
C1119 H1109 0.930 . S
C1119 C1112 1.409 . S
C1119 C1118 1.362 . S
H1120 C1126 0.930 . S
H1121 C1129 0.930 . S
H1122 C1130 0.930 . S
H1123 C1131 0.930 . S
H1124 C1134 0.930 . S
H1125 C1135 0.930 . S
C1126 H1120 0.930 . S
C1126 C1127 1.355 . S
C1126 C1128 1.415 . S
C1127 C1126 1.355 . S
C1127 C1129 1.419 . S
C1128 C1126 1.415 . S
C1128 C1133 1.425 . S
C1128 C1135 1.409 . S
C1129 H1121 0.930 . S
C1129 C1127 1.419 . S
C1129 C1130 1.362 . S
C1130 H1122 0.930 . S
C1130 C1129 1.362 . S
C1130 C1133 1.409 . S
C1131 H1123 0.930 . S
C1131 C1132 1.355 . S
C1131 C1133 1.415 . S
C1132 C1131 1.355 . S
C1132 C1134 1.419 . S
C1133 C1128 1.425 . S
C1133 C1130 1.409 . S
C1133 C1131 1.415 . S
C1134 H1124 0.930 . S
C1134 C1132 1.419 . S
C1134 C1135 1.362 . S
C1135 H1125 0.930 . S
C1135 C1128 1.409 . S
C1135 C1134 1.362 . S
H1136 C1142 0.930 . S
H1137 C1145 0.930 . S
H1138 C1146 0.930 . S
H1139 C1147 0.930 . S
H1140 C1150 0.930 . S
H1141 C1151 0.930 . S
C1142 H1136 0.930 . S
C1142 C1143 1.355 . S
C1142 C1144 1.415 . S
C1143 C1142 1.355 . S
C1143 C1145 1.419 . S
C1144 C1142 1.415 . S
C1144 C1149 1.425 . S
C1144 C1151 1.409 . S
C1145 H1137 0.930 . S
C1145 C1143 1.419 . S
C1145 C1146 1.362 . S
C1146 H1138 0.930 . S
C1146 C1145 1.362 . S
C1146 C1149 1.409 . S
C1147 H1139 0.930 . S
C1147 C1148 1.355 . S
C1147 C1149 1.415 . S
C1148 C1147 1.355 . S
C1148 C1150 1.419 . S
C1149 C1144 1.425 . S
C1149 C1146 1.409 . S
C1149 C1147 1.415 . S
C1150 H1140 0.930 . S
C1150 C1148 1.419 . S
C1150 C1151 1.362 . S
C1151 H1141 0.930 . S
C1151 C1144 1.409 . S
C1151 C1150 1.362 . S
H1152 C1158 0.930 . S
H1153 C1161 0.930 . S
H1154 C1162 0.930 . S
H1155 C1163 0.930 . S
H1156 C1166 0.930 . S
H1157 C1167 0.930 . S
C1158 H1152 0.930 . S
C1158 C1159 1.355 . S
C1158 C1160 1.415 . S
C1159 C1158 1.355 . S
C1159 C1161 1.419 . S
C1160 C1158 1.415 . S
C1160 C1165 1.425 . S
C1160 C1167 1.409 . S
C1161 H1153 0.930 . S
C1161 C1159 1.419 . S
C1161 C1162 1.362 . S
C1162 H1154 0.930 . S
C1162 C1161 1.362 . S
C1162 C1165 1.409 . S
C1163 H1155 0.930 . S
C1163 C1164 1.355 . S
C1163 C1165 1.415 . S
C1164 C1163 1.355 . S
C1164 C1166 1.419 . S
C1165 C1160 1.425 . S
C1165 C1162 1.409 . S
C1165 C1163 1.415 . S
C1166 H1156 0.930 . S
C1166 C1164 1.419 . S
C1166 C1167 1.362 . S
C1167 H1157 0.930 . S
C1167 C1160 1.409 . S
C1167 C1166 1.362 . S
H1168 C1174 0.930 . S
H1169 C1177 0.930 . S
H1170 C1178 0.930 . S
H1171 C1179 0.930 . S
H1172 C1182 0.930 . S
H1173 C1183 0.930 . S
C1174 H1168 0.930 . S
C1174 C1175 1.355 . S
C1174 C1176 1.415 . S
C1175 C1174 1.355 . S
C1175 C1177 1.419 . S
C1176 C1174 1.415 . S
C1176 C1181 1.425 . S
C1176 C1183 1.409 . S
C1177 H1169 0.930 . S
C1177 C1175 1.419 . S
C1177 C1178 1.362 . S
C1178 H1170 0.930 . S
C1178 C1177 1.362 . S
C1178 C1181 1.409 . S
C1179 H1171 0.930 . S
C1179 C1180 1.355 . S
C1179 C1181 1.415 . S
C1180 C1179 1.355 . S
C1180 C1182 1.419 . S
C1181 C1176 1.425 . S
C1181 C1178 1.409 . S
C1181 C1179 1.415 . S
C1182 H1172 0.930 . S
C1182 C1180 1.419 . S
C1182 C1183 1.362 . S
C1183 H1173 0.930 . S
C1183 C1176 1.409 . S
C1183 C1182 1.362 . S
H1184 C1190 0.930 . S
H1185 C1193 0.930 . S
H1186 C1194 0.930 . S
H1187 C1195 0.930 . S
H1188 C1198 0.930 . S
H1189 C1199 0.930 . S
C1190 H1184 0.930 . S
C1190 C1191 1.355 . S
C1190 C1192 1.415 . S
C1191 C1190 1.355 . S
C1191 C1193 1.419 . S
C1192 C1190 1.415 . S
C1192 C1197 1.425 . S
C1192 C1199 1.409 . S
C1193 H1185 0.930 . S
C1193 C1191 1.419 . S
C1193 C1194 1.362 . S
C1194 H1186 0.930 . S
C1194 C1193 1.362 . S
C1194 C1197 1.409 . S
C1195 H1187 0.930 . S
C1195 C1196 1.355 . S
C1195 C1197 1.415 . S
C1196 C1195 1.355 . S
C1196 C1198 1.419 . S
C1197 C1192 1.425 . S
C1197 C1194 1.409 . S
C1197 C1195 1.415 . S
C1198 H1188 0.930 . S
C1198 C1196 1.419 . S
C1198 C1199 1.362 . S
C1199 H1189 0.930 . S
C1199 C1192 1.409 . S
C1199 C1198 1.362 . S
H1200 C1206 0.930 . S
H1201 C1209 0.930 . S
H1202 C1210 0.930 . S
H1203 C1211 0.930 . S
H1204 C1214 0.930 . S
H1205 C1215 0.930 . S
C1206 H1200 0.930 . S
C1206 C1207 1.355 . S
C1206 C1208 1.415 . S
C1207 C1206 1.355 . S
C1207 C1209 1.419 . S
C1208 C1206 1.415 . S
C1208 C1213 1.425 . S
C1208 C1215 1.409 . S
C1209 H1201 0.930 . S
C1209 C1207 1.419 . S
C1209 C1210 1.362 . S
C1210 H1202 0.930 . S
C1210 C1209 1.362 . S
C1210 C1213 1.409 . S
C1211 H1203 0.930 . S
C1211 C1212 1.355 . S
C1211 C1213 1.415 . S
C1212 C1211 1.355 . S
C1212 C1214 1.419 . S
C1213 C1208 1.425 . S
C1213 C1210 1.409 . S
C1213 C1211 1.415 . S
C1214 H1204 0.930 . S
C1214 C1212 1.419 . S
C1214 C1215 1.362 . S
C1215 H1205 0.930 . S
C1215 C1208 1.409 . S
C1215 C1214 1.362 . S
H1216 C1222 0.930 . S
H1217 C1225 0.930 . S
H1218 C1226 0.930 . S
H1219 C1227 0.930 . S
H1220 C1230 0.930 . S
H1221 C1231 0.930 . S
C1222 H1216 0.930 . S
C1222 C1223 1.355 . S
C1222 C1224 1.415 . S
C1223 C1222 1.355 . S
C1223 C1225 1.419 . S
C1224 C1222 1.415 . S
C1224 C1229 1.425 . S
C1224 C1231 1.409 . S
C1225 H1217 0.930 . S
C1225 C1223 1.419 . S
C1225 C1226 1.362 . S
C1226 H1218 0.930 . S
C1226 C1225 1.362 . S
C1226 C1229 1.409 . S
C1227 H1219 0.930 . S
C1227 C1228 1.355 . S
C1227 C1229 1.415 . S
C1228 C1227 1.355 . S
C1228 C1230 1.419 . S
C1229 C1224 1.425 . S
C1229 C1226 1.409 . S
C1229 C1227 1.415 . S
C1230 H1220 0.930 . S
C1230 C1228 1.419 . S
C1230 C1231 1.362 . S
C1231 H1221 0.930 . S
C1231 C1224 1.409 . S
C1231 C1230 1.362 . S
H1232 C1238 0.930 . S
H1233 C1241 0.930 . S
H1234 C1242 0.930 . S
H1235 C1243 0.930 . S
H1236 C1246 0.930 . S
H1237 C1247 0.930 . S
C1238 H1232 0.930 . S
C1238 C1239 1.355 . S
C1238 C1240 1.415 . S
C1239 C1238 1.355 . S
C1239 C1241 1.419 . S
C1240 C1238 1.415 . S
C1240 C1245 1.425 . S
C1240 C1247 1.409 . S
C1241 H1233 0.930 . S
C1241 C1239 1.419 . S
C1241 C1242 1.362 . S
C1242 H1234 0.930 . S
C1242 C1241 1.362 . S
C1242 C1245 1.409 . S
C1243 H1235 0.930 . S
C1243 C1244 1.355 . S
C1243 C1245 1.415 . S
C1244 C1243 1.355 . S
C1244 C1246 1.419 . S
C1245 C1240 1.425 . S
C1245 C1242 1.409 . S
C1245 C1243 1.415 . S
C1246 H1236 0.930 . S
C1246 C1244 1.419 . S
C1246 C1247 1.362 . S
C1247 H1237 0.930 . S
C1247 C1240 1.409 . S
C1247 C1246 1.362 . S
H1248 C1254 0.930 . S
H1249 C1257 0.930 . S
H1250 C1258 0.930 . S
H1251 C1259 0.930 . S
H1252 C1262 0.930 . S
H1253 C1263 0.930 . S
C1254 H1248 0.930 . S
C1254 C1255 1.355 . S
C1254 C1256 1.415 . S
C1255 C1254 1.355 . S
C1255 C1257 1.419 . S
C1256 C1254 1.415 . S
C1256 C1261 1.425 . S
C1256 C1263 1.409 . S
C1257 H1249 0.930 . S
C1257 C1255 1.419 . S
C1257 C1258 1.362 . S
C1258 H1250 0.930 . S
C1258 C1257 1.362 . S
C1258 C1261 1.409 . S
C1259 H1251 0.930 . S
C1259 C1260 1.355 . S
C1259 C1261 1.415 . S
C1260 C1259 1.355 . S
C1260 C1262 1.419 . S
C1261 C1256 1.425 . S
C1261 C1258 1.409 . S
C1261 C1259 1.415 . S
C1262 H1252 0.930 . S
C1262 C1260 1.419 . S
C1262 C1263 1.362 . S
C1263 H1253 0.930 . S
C1263 C1256 1.409 . S
C1263 C1262 1.362 . S
H1264 C1270 0.930 . S
H1265 C1273 0.930 . S
H1266 C1274 0.930 . S
H1267 C1275 0.930 . S
H1268 C1278 0.930 . S
H1269 C1279 0.930 . S
C1270 H1264 0.930 . S
C1270 C1271 1.355 . S
C1270 C1272 1.415 . S
C1271 C1270 1.355 . S
C1271 C1273 1.419 . S
C1272 C1270 1.415 . S
C1272 C1277 1.425 . S
C1272 C1279 1.409 . S
C1273 H1265 0.930 . S
C1273 C1271 1.419 . S
C1273 C1274 1.362 . S
C1274 H1266 0.930 . S
C1274 C1273 1.362 . S
C1274 C1277 1.409 . S
C1275 H1267 0.930 . S
C1275 C1276 1.355 . S
C1275 C1277 1.415 . S
C1276 C1275 1.355 . S
C1276 C1278 1.419 . S
C1277 C1272 1.425 . S
C1277 C1274 1.409 . S
C1277 C1275 1.415 . S
C1278 H1268 0.930 . S
C1278 C1276 1.419 . S
C1278 C1279 1.362 . S
C1279 H1269 0.930 . S
C1279 C1272 1.409 . S
C1279 C1278 1.362 . S
H1280 C1286 0.930 . S
H1281 C1289 0.930 . S
H1282 C1290 0.930 . S
H1283 C1291 0.930 . S
H1284 C1294 0.930 . S
H1285 C1295 0.930 . S
C1286 H1280 0.930 . S
C1286 C1287 1.355 . S
C1286 C1288 1.415 . S
C1287 C1286 1.355 . S
C1287 C1289 1.419 . S
C1288 C1286 1.415 . S
C1288 C1293 1.425 . S
C1288 C1295 1.409 . S
C1289 H1281 0.930 . S
C1289 C1287 1.419 . S
C1289 C1290 1.362 . S
C1290 H1282 0.930 . S
C1290 C1289 1.362 . S
C1290 C1293 1.409 . S
C1291 H1283 0.930 . S
C1291 C1292 1.355 . S
C1291 C1293 1.415 . S
C1292 C1291 1.355 . S
C1292 C1294 1.419 . S
C1293 C1288 1.425 . S
C1293 C1290 1.409 . S
C1293 C1291 1.415 . S
C1294 H1284 0.930 . S
C1294 C1292 1.419 . S
C1294 C1295 1.362 . S
C1295 H1285 0.930 . S
C1295 C1288 1.409 . S
C1295 C1294 1.362 . S
H1296 C1302 0.930 . S
H1297 C1305 0.930 . S
H1298 C1306 0.930 . S
H1299 C1307 0.930 . S
H1300 C1310 0.930 . S
H1301 C1311 0.930 . S
C1302 H1296 0.930 . S
C1302 C1303 1.355 . S
C1302 C1304 1.415 . S
C1303 C1302 1.355 . S
C1303 C1305 1.419 . S
C1304 C1302 1.415 . S
C1304 C1309 1.425 . S
C1304 C1311 1.409 . S
C1305 H1297 0.930 . S
C1305 C1303 1.419 . S
C1305 C1306 1.362 . S
C1306 H1298 0.930 . S
C1306 C1305 1.362 . S
C1306 C1309 1.409 . S
C1307 H1299 0.930 . S
C1307 C1308 1.355 . S
C1307 C1309 1.415 . S
C1308 C1307 1.355 . S
C1308 C1310 1.419 . S
C1309 C1304 1.425 . S
C1309 C1306 1.409 . S
C1309 C1307 1.415 . S
C1310 H1300 0.930 . S
C1310 C1308 1.419 . S
C1310 C1311 1.362 . S
C1311 H1301 0.930 . S
C1311 C1304 1.409 . S
C1311 C1310 1.362 . S
H1312 C1318 0.930 . S
H1313 C1321 0.930 . S
H1314 C1322 0.930 . S
H1315 C1323 0.930 . S
H1316 C1326 0.930 . S
H1317 C1327 0.930 . S
C1318 H1312 0.930 . S
C1318 C1319 1.355 . S
C1318 C1320 1.415 . S
C1319 C1318 1.355 . S
C1319 C1321 1.419 . S
C1320 C1318 1.415 . S
C1320 C1325 1.425 . S
C1320 C1327 1.409 . S
C1321 H1313 0.930 . S
C1321 C1319 1.419 . S
C1321 C1322 1.362 . S
C1322 H1314 0.930 . S
C1322 C1321 1.362 . S
C1322 C1325 1.409 . S
C1323 H1315 0.930 . S
C1323 C1324 1.355 . S
C1323 C1325 1.415 . S
C1324 C1323 1.355 . S
C1324 C1326 1.419 . S
C1325 C1320 1.425 . S
C1325 C1322 1.409 . S
C1325 C1323 1.415 . S
C1326 H1316 0.930 . S
C1326 C1324 1.419 . S
C1326 C1327 1.362 . S
C1327 H1317 0.930 . S
C1327 C1320 1.409 . S
C1327 C1326 1.362 . S
H1328 C1334 0.930 . S
H1329 C1337 0.930 . S
H1330 C1338 0.930 . S
H1331 C1339 0.930 . S
H1332 C1342 0.930 . S
H1333 C1343 0.930 . S
C1334 H1328 0.930 . S
C1334 C1335 1.355 . S
C1334 C1336 1.415 . S
C1335 C1334 1.355 . S
C1335 C1337 1.419 . S
C1336 C1334 1.415 . S
C1336 C1341 1.425 . S
C1336 C1343 1.409 . S
C1337 H1329 0.930 . S
C1337 C1335 1.419 . S
C1337 C1338 1.362 . S
C1338 H1330 0.930 . S
C1338 C1337 1.362 . S
C1338 C1341 1.409 . S
C1339 H1331 0.930 . S
C1339 C1340 1.355 . S
C1339 C1341 1.415 . S
C1340 C1339 1.355 . S
C1340 C1342 1.419 . S
C1341 C1336 1.425 . S
C1341 C1338 1.409 . S
C1341 C1339 1.415 . S
C1342 H1332 0.930 . S
C1342 C1340 1.419 . S
C1342 C1343 1.362 . S
C1343 H1333 0.930 . S
C1343 C1336 1.409 . S
C1343 C1342 1.362 . S
H1344 C1350 0.930 . S
H1345 C1353 0.930 . S
H1346 C1354 0.930 . S
H1347 C1355 0.930 . S
H1348 C1358 0.930 . S
H1349 C1359 0.930 . S
C1350 H1344 0.930 . S
C1350 C1351 1.355 . S
C1350 C1352 1.415 . S
C1351 C1350 1.355 . S
C1351 C1353 1.419 . S
C1352 C1350 1.415 . S
C1352 C1357 1.425 . S
C1352 C1359 1.409 . S
C1353 H1345 0.930 . S
C1353 C1351 1.419 . S
C1353 C1354 1.362 . S
C1354 H1346 0.930 . S
C1354 C1353 1.362 . S
C1354 C1357 1.409 . S
C1355 H1347 0.930 . S
C1355 C1356 1.355 . S
C1355 C1357 1.415 . S
C1356 C1355 1.355 . S
C1356 C1358 1.419 . S
C1357 C1352 1.425 . S
C1357 C1354 1.409 . S
C1357 C1355 1.415 . S
C1358 H1348 0.930 . S
C1358 C1356 1.419 . S
C1358 C1359 1.362 . S
C1359 H1349 0.930 . S
C1359 C1352 1.409 . S
C1359 C1358 1.362 . S
H1360 C1366 0.930 . S
H1361 C1369 0.930 . S
H1362 C1370 0.930 . S
H1363 C1371 0.930 . S
H1364 C1374 0.930 . S
H1365 C1375 0.930 . S
C1366 H1360 0.930 . S
C1366 C1367 1.355 . S
C1366 C1368 1.415 . S
C1367 C1366 1.355 . S
C1367 C1369 1.419 . S
C1368 C1366 1.415 . S
C1368 C1373 1.425 . S
C1368 C1375 1.409 . S
C1369 H1361 0.930 . S
C1369 C1367 1.419 . S
C1369 C1370 1.362 . S
C1370 H1362 0.930 . S
C1370 C1369 1.362 . S
C1370 C1373 1.409 . S
C1371 H1363 0.930 . S
C1371 C1372 1.355 . S
C1371 C1373 1.415 . S
C1372 C1371 1.355 . S
C1372 C1374 1.419 . S
C1373 C1368 1.425 . S
C1373 C1370 1.409 . S
C1373 C1371 1.415 . S
C1374 H1364 0.930 . S
C1374 C1372 1.419 . S
C1374 C1375 1.362 . S
C1375 H1365 0.930 . S
C1375 C1368 1.409 . S
C1375 C1374 1.362 . S
H1376 C1382 0.930 . S
H1377 C1385 0.930 . S
H1378 C1386 0.930 . S
H1379 C1387 0.930 . S
H1380 C1390 0.930 . S
H1381 C1391 0.930 . S
C1382 H1376 0.930 . S
C1382 C1383 1.355 . S
C1382 C1384 1.415 . S
C1383 C1382 1.355 . S
C1383 C1385 1.419 . S
C1384 C1382 1.415 . S
C1384 C1389 1.425 . S
C1384 C1391 1.409 . S
C1385 H1377 0.930 . S
C1385 C1383 1.419 . S
C1385 C1386 1.362 . S
C1386 H1378 0.930 . S
C1386 C1385 1.362 . S
C1386 C1389 1.409 . S
C1387 H1379 0.930 . S
C1387 C1388 1.355 . S
C1387 C1389 1.415 . S
C1388 C1387 1.355 . S
C1388 C1390 1.419 . S
C1389 C1384 1.425 . S
C1389 C1386 1.409 . S
C1389 C1387 1.415 . S
C1390 H1380 0.930 . S
C1390 C1388 1.419 . S
C1390 C1391 1.362 . S
C1391 H1381 0.930 . S
C1391 C1384 1.409 . S
C1391 C1390 1.362 . S
H1392 C1398 0.930 . S
H1393 C1401 0.930 . S
H1394 C1402 0.930 . S
H1395 C1403 0.930 . S
H1396 C1406 0.930 . S
H1397 C1407 0.930 . S
C1398 H1392 0.930 . S
C1398 C1399 1.355 . S
C1398 C1400 1.415 . S
C1399 C1398 1.355 . S
C1399 C1401 1.419 . S
C1400 C1398 1.415 . S
C1400 C1405 1.425 . S
C1400 C1407 1.409 . S
C1401 H1393 0.930 . S
C1401 C1399 1.419 . S
C1401 C1402 1.362 . S
C1402 H1394 0.930 . S
C1402 C1401 1.362 . S
C1402 C1405 1.409 . S
C1403 H1395 0.930 . S
C1403 C1404 1.355 . S
C1403 C1405 1.415 . S
C1404 C1403 1.355 . S
C1404 C1406 1.419 . S
C1405 C1400 1.425 . S
C1405 C1402 1.409 . S
C1405 C1403 1.415 . S
C1406 H1396 0.930 . S
C1406 C1404 1.419 . S
C1406 C1407 1.362 . S
C1407 H1397 0.930 . S
C1407 C1400 1.409 . S
C1407 C1406 1.362 . S
H1408 C1414 0.930 . S
H1409 C1417 0.930 . S
H1410 C1418 0.930 . S
H1411 C1419 0.930 . S
H1412 C1422 0.930 . S
H1413 C1423 0.930 . S
C1414 H1408 0.930 . S
C1414 C1415 1.355 . S
C1414 C1416 1.415 . S
C1415 C1414 1.355 . S
C1415 C1417 1.419 . S
C1416 C1414 1.415 . S
C1416 C1421 1.425 . S
C1416 C1423 1.409 . S
C1417 H1409 0.930 . S
C1417 C1415 1.419 . S
C1417 C1418 1.362 . S
C1418 H1410 0.930 . S
C1418 C1417 1.362 . S
C1418 C1421 1.409 . S
C1419 H1411 0.930 . S
C1419 C1420 1.355 . S
C1419 C1421 1.415 . S
C1420 C1419 1.355 . S
C1420 C1422 1.419 . S
C1421 C1416 1.425 . S
C1421 C1418 1.409 . S
C1421 C1419 1.415 . S
C1422 H1412 0.930 . S
C1422 C1420 1.419 . S
C1422 C1423 1.362 . S
C1423 H1413 0.930 . S
C1423 C1416 1.409 . S
C1423 C1422 1.362 . S
H1424 C1430 0.930 . S
H1425 C1433 0.930 . S
H1426 C1434 0.930 . S
H1427 C1435 0.930 . S
H1428 C1438 0.930 . S
H1429 C1439 0.930 . S
C1430 H1424 0.930 . S
C1430 C1431 1.355 . S
C1430 C1432 1.415 . S
C1431 C1430 1.355 . S
C1431 C1433 1.419 . S
C1432 C1430 1.415 . S
C1432 C1437 1.425 . S
C1432 C1439 1.409 . S
C1433 H1425 0.930 . S
C1433 C1431 1.419 . S
C1433 C1434 1.362 . S
C1434 H1426 0.930 . S
C1434 C1433 1.362 . S
C1434 C1437 1.409 . S
C1435 H1427 0.930 . S
C1435 C1436 1.355 . S
C1435 C1437 1.415 . S
C1436 C1435 1.355 . S
C1436 C1438 1.419 . S
C1437 C1432 1.425 . S
C1437 C1434 1.409 . S
C1437 C1435 1.415 . S
C1438 H1428 0.930 . S
C1438 C1436 1.419 . S
C1438 C1439 1.362 . S
C1439 H1429 0.930 . S
C1439 C1432 1.409 . S
C1439 C1438 1.362 . S
H1440 C1446 0.930 . S
H1441 C1449 0.930 . S
H1442 C1450 0.930 . S
H1443 C1451 0.930 . S
H1444 C1454 0.930 . S
H1445 C1455 0.930 . S
C1446 H1440 0.930 . S
C1446 C1447 1.355 . S
C1446 C1448 1.415 . S
C1447 C1446 1.355 . S
C1447 C1449 1.419 . S
C1448 C1446 1.415 . S
C1448 C1453 1.425 . S
C1448 C1455 1.409 . S
C1449 H1441 0.930 . S
C1449 C1447 1.419 . S
C1449 C1450 1.362 . S
C1450 H1442 0.930 . S
C1450 C1449 1.362 . S
C1450 C1453 1.409 . S
C1451 H1443 0.930 . S
C1451 C1452 1.355 . S
C1451 C1453 1.415 . S
C1452 C1451 1.355 . S
C1452 C1454 1.419 . S
C1453 C1448 1.425 . S
C1453 C1450 1.409 . S
C1453 C1451 1.415 . S
C1454 H1444 0.930 . S
C1454 C1452 1.419 . S
C1454 C1455 1.362 . S
C1455 H1445 0.930 . S
C1455 C1448 1.409 . S
C1455 C1454 1.362 . S
H1456 C1462 0.930 . S
H1457 C1465 0.930 . S
H1458 C1466 0.930 . S
H1459 C1467 0.930 . S
H1460 C1470 0.930 . S
H1461 C1471 0.930 . S
C1462 H1456 0.930 . S
C1462 C1463 1.355 . S
C1462 C1464 1.415 . S
C1463 C1462 1.355 . S
C1463 C1465 1.419 . S
C1464 C1462 1.415 . S
C1464 C1469 1.425 . S
C1464 C1471 1.409 . S
C1465 H1457 0.930 . S
C1465 C1463 1.419 . S
C1465 C1466 1.362 . S
C1466 H1458 0.930 . S
C1466 C1465 1.362 . S
C1466 C1469 1.409 . S
C1467 H1459 0.930 . S
C1467 C1468 1.355 . S
C1467 C1469 1.415 . S
C1468 C1467 1.355 . S
C1468 C1470 1.419 . S
C1469 C1464 1.425 . S
C1469 C1466 1.409 . S
C1469 C1467 1.415 . S
C1470 H1460 0.930 . S
C1470 C1468 1.419 . S
C1470 C1471 1.362 . S
C1471 H1461 0.930 . S
C1471 C1464 1.409 . S
C1471 C1470 1.362 . S
H1472 C1478 0.930 . S
H1473 C1481 0.930 . S
H1474 C1482 0.930 . S
H1475 C1483 0.930 1_545 S
H1476 C1486 0.930 . S
H1477 C1487 0.930 . S
C1478 H1472 0.930 . S
C1478 C1479 1.355 . S
C1478 C1480 1.415 . S
C1479 C1478 1.355 . S
C1479 C1481 1.419 1_565 S
C1480 C1478 1.415 . S
C1480 C1485 1.425 . S
C1480 C1487 1.409 . S
C1481 H1473 0.930 . S
C1481 C1479 1.419 1_545 S
C1481 C1482 1.362 . S
C1482 H1474 0.930 . S
C1482 C1481 1.362 . S
C1482 C1485 1.409 1_545 S
C1483 H1475 0.930 1_565 S
C1483 C1484 1.355 . S
C1483 C1485 1.415 . S
C1484 C1483 1.355 . S
C1484 C1486 1.419 . S
C1485 C1480 1.425 . S
C1485 C1482 1.409 1_565 S
C1485 C1483 1.415 . S
C1486 H1476 0.930 . S
C1486 C1484 1.419 . S
C1486 C1487 1.362 . S
C1487 H1477 0.930 . S
C1487 C1480 1.409 . S
C1487 C1486 1.362 . S
H1488 C1494 0.930 . S
H1489 C1497 0.930 . S
H1490 C1498 0.930 . S
H1491 C1499 0.930 . S
H1492 C1502 0.930 . S
H1493 C1503 0.930 . S
C1494 H1488 0.930 . S
C1494 C1495 1.355 1_556 S
C1494 C1496 1.415 . S
C1495 C1494 1.355 1_554 S
C1495 C1497 1.419 . S
C1496 C1494 1.415 . S
C1496 C1501 1.425 1_546 S
C1496 C1503 1.409 1_545 S
C1497 H1489 0.930 . S
C1497 C1495 1.419 . S
C1497 C1498 1.362 . S
C1498 H1490 0.930 . S
C1498 C1497 1.362 . S
C1498 C1501 1.409 1_545 S
C1499 H1491 0.930 . S
C1499 C1500 1.355 1_554 S
C1499 C1501 1.415 . S
C1500 C1499 1.355 1_556 S
C1500 C1502 1.419 . S
C1501 C1496 1.425 1_564 S
C1501 C1498 1.409 1_565 S
C1501 C1499 1.415 . S
C1502 H1492 0.930 . S
C1502 C1500 1.419 . S
C1502 C1503 1.362 . S
C1503 H1493 0.930 . S
C1503 C1496 1.409 1_565 S
C1503 C1502 1.362 . S
H1504 C1510 0.930 . S
H1505 C1513 0.930 . S
H1506 C1514 0.930 . S
H1507 C1515 0.930 . S
H1508 C1518 0.930 . S
H1509 C1519 0.930 . S
C1510 H1504 0.930 . S
C1510 C1511 1.355 . S
C1510 C1512 1.415 . S
C1511 C1510 1.355 . S
C1511 C1513 1.419 . S
C1512 C1510 1.415 . S
C1512 C1517 1.425 . S
C1512 C1519 1.409 . S
C1513 H1505 0.930 . S
C1513 C1511 1.419 . S
C1513 C1514 1.362 . S
C1514 H1506 0.930 . S
C1514 C1513 1.362 . S
C1514 C1517 1.409 . S
C1515 H1507 0.930 . S
C1515 C1516 1.355 . S
C1515 C1517 1.415 . S
C1516 C1515 1.355 . S
C1516 C1518 1.419 . S
C1517 C1512 1.425 . S
C1517 C1514 1.409 . S
C1517 C1515 1.415 . S
C1518 H1508 0.930 . S
C1518 C1516 1.419 . S
C1518 C1519 1.362 . S
C1519 H1509 0.930 . S
C1519 C1512 1.409 . S
C1519 C1518 1.362 . S
H1520 C1526 0.930 . S
H1521 C1529 0.930 . S
H1522 C1530 0.930 . S
H1523 C1531 0.930 . S
H1524 C1534 0.930 . S
H1525 C1535 0.930 . S
C1526 H1520 0.930 . S
C1526 C1527 1.355 . S
C1526 C1528 1.415 . S
C1527 C1526 1.355 . S
C1527 C1529 1.419 1_556 S
C1528 C1526 1.415 . S
C1528 C1533 1.425 1_556 S
C1528 C1535 1.409 . S
C1529 H1521 0.930 . S
C1529 C1527 1.419 1_554 S
C1529 C1530 1.362 . S
C1530 H1522 0.930 . S
C1530 C1529 1.362 . S
C1530 C1533 1.409 . S
C1531 H1523 0.930 . S
C1531 C1532 1.355 . S
C1531 C1533 1.415 . S
C1532 C1531 1.355 . S
C1532 C1534 1.419 1_554 S
C1533 C1528 1.425 1_554 S
C1533 C1530 1.409 . S
C1533 C1531 1.415 . S
C1534 H1524 0.930 . S
C1534 C1532 1.419 1_556 S
C1534 C1535 1.362 . S
C1535 H1525 0.930 . S
C1535 C1528 1.409 . S
C1535 C1534 1.362 . S
H1536 C1542 0.930 . S
H1537 C1545 0.930 . S
H1538 C1546 0.930 . S
H1539 C1547 0.930 1_565 S
H1540 C1550 0.930 . S
H1541 C1551 0.930 . S
C1542 H1536 0.930 . S
C1542 C1543 1.355 . S
C1542 C1544 1.415 . S
C1543 C1542 1.355 . S
C1543 C1545 1.419 1_545 S
C1544 C1542 1.415 . S
C1544 C1549 1.425 . S
C1544 C1551 1.409 . S
C1545 H1537 0.930 . S
C1545 C1543 1.419 1_565 S
C1545 C1546 1.362 . S
C1546 H1538 0.930 . S
C1546 C1545 1.362 . S
C1546 C1549 1.409 1_565 S
C1547 H1539 0.930 1_545 S
C1547 C1548 1.355 . S
C1547 C1549 1.415 . S
C1548 C1547 1.355 . S
C1548 C1550 1.419 . S
C1549 C1544 1.425 . S
C1549 C1546 1.409 1_545 S
C1549 C1547 1.415 . S
C1550 H1540 0.930 . S
C1550 C1548 1.419 . S
C1550 C1551 1.362 . S
C1551 H1541 0.930 . S
C1551 C1544 1.409 . S
C1551 C1550 1.362 . S
H1552 C1558 0.930 . S
H1553 C1561 0.930 . S
H1554 C1562 0.930 . S
H1555 C1563 0.930 . S
H1556 C1566 0.930 . S
H1557 C1567 0.930 . S
C1558 H1552 0.930 . S
C1558 C1559 1.355 . S
C1558 C1560 1.415 . S
C1559 C1558 1.355 . S
C1559 C1561 1.419 . S
C1560 C1558 1.415 . S
C1560 C1565 1.425 1_545 S
C1560 C1567 1.409 1_545 S
C1561 H1553 0.930 . S
C1561 C1559 1.419 . S
C1561 C1562 1.362 . S
C1562 H1554 0.930 . S
C1562 C1561 1.362 . S
C1562 C1565 1.409 1_545 S
C1563 H1555 0.930 . S
C1563 C1564 1.355 . S
C1563 C1565 1.415 . S
C1564 C1563 1.355 . S
C1564 C1566 1.419 . S
C1565 C1560 1.425 1_565 S
C1565 C1562 1.409 1_565 S
C1565 C1563 1.415 . S
C1566 H1556 0.930 . S
C1566 C1564 1.419 . S
C1566 C1567 1.362 . S
C1567 H1557 0.930 . S
C1567 C1560 1.409 1_565 S
C1567 C1566 1.362 . S
H1568 C1574 0.930 . S
H1569 C1577 0.930 . S
H1570 C1578 0.930 . S
H1571 C1579 0.930 . S
H1572 C1582 0.930 . S
H1573 C1583 0.930 . S
C1574 H1568 0.930 . S
C1574 C1575 1.355 . S
C1574 C1576 1.415 . S
C1575 C1574 1.355 . S
C1575 C1577 1.419 . S
C1576 C1574 1.415 . S
C1576 C1581 1.425 . S
C1576 C1583 1.409 . S
C1577 H1569 0.930 . S
C1577 C1575 1.419 . S
C1577 C1578 1.362 . S
C1578 H1570 0.930 . S
C1578 C1577 1.362 . S
C1578 C1581 1.409 . S
C1579 H1571 0.930 . S
C1579 C1580 1.355 . S
C1579 C1581 1.415 . S
C1580 C1579 1.355 . S
C1580 C1582 1.419 . S
C1581 C1576 1.425 . S
C1581 C1578 1.409 . S
C1581 C1579 1.415 . S
C1582 H1572 0.930 . S
C1582 C1580 1.419 . S
C1582 C1583 1.362 . S
C1583 H1573 0.930 . S
C1583 C1576 1.409 . S
C1583 C1582 1.362 . S
H1584 C1590 0.930 . S
H1585 C1593 0.930 . S
H1586 C1594 0.930 . S
H1587 C1595 0.930 . S
H1588 C1598 0.930 . S
H1589 C1599 0.930 . S
C1590 H1584 0.930 . S
C1590 C1591 1.355 . S
C1590 C1592 1.415 . S
C1591 C1590 1.355 . S
C1591 C1593 1.419 . S
C1592 C1590 1.415 . S
C1592 C1597 1.425 1_455 S
C1592 C1599 1.409 1_455 S
C1593 H1585 0.930 . S
C1593 C1591 1.419 . S
C1593 C1594 1.362 . S
C1594 H1586 0.930 . S
C1594 C1593 1.362 . S
C1594 C1597 1.409 1_455 S
C1595 H1587 0.930 . S
C1595 C1596 1.355 . S
C1595 C1597 1.415 . S
C1596 C1595 1.355 . S
C1596 C1598 1.419 . S
C1597 C1592 1.425 1_655 S
C1597 C1594 1.409 1_655 S
C1597 C1595 1.415 . S
C1598 H1588 0.930 . S
C1598 C1596 1.419 . S
C1598 C1599 1.362 . S
C1599 H1589 0.930 . S
C1599 C1592 1.409 1_655 S
C1599 C1598 1.362 . S
H1600 C1606 0.930 . S
H1601 C1609 0.930 . S
H1602 C1610 0.930 . S
H1603 C1611 0.930 . S
H1604 C1614 0.930 . S
H1605 C1615 0.930 . S
C1606 H1600 0.930 . S
C1606 C1607 1.355 . S
C1606 C1608 1.415 . S
C1607 C1606 1.355 . S
C1607 C1609 1.419 . S
C1608 C1606 1.415 . S
C1608 C1613 1.425 . S
C1608 C1615 1.409 . S
C1609 H1601 0.930 . S
C1609 C1607 1.419 . S
C1609 C1610 1.362 . S
C1610 H1602 0.930 . S
C1610 C1609 1.362 . S
C1610 C1613 1.409 . S
C1611 H1603 0.930 . S
C1611 C1612 1.355 . S
C1611 C1613 1.415 . S
C1612 C1611 1.355 . S
C1612 C1614 1.419 . S
C1613 C1608 1.425 . S
C1613 C1610 1.409 . S
C1613 C1611 1.415 . S
C1614 H1604 0.930 . S
C1614 C1612 1.419 . S
C1614 C1615 1.362 . S
C1615 H1605 0.930 . S
C1615 C1608 1.409 . S
C1615 C1614 1.362 . S
H1616 C1622 0.930 . S
H1617 C1625 0.930 . S
H1618 C1626 0.930 . S
H1619 C1627 0.930 . S
H1620 C1630 0.930 . S
H1621 C1631 0.930 . S
C1622 H1616 0.930 . S
C1622 C1623 1.355 1_545 S
C1622 C1624 1.415 . S
C1623 C1622 1.355 1_565 S
C1623 C1625 1.419 . S
C1624 C1622 1.415 . S
C1624 C1629 1.425 1_645 S
C1624 C1631 1.409 1_655 S
C1625 H1617 0.930 . S
C1625 C1623 1.419 . S
C1625 C1626 1.362 . S
C1626 H1618 0.930 . S
C1626 C1625 1.362 . S
C1626 C1629 1.409 1_655 S
C1627 H1619 0.930 . S
C1627 C1628 1.355 1_565 S
C1627 C1629 1.415 . S
C1628 C1627 1.355 1_545 S
C1628 C1630 1.419 . S
C1629 C1624 1.425 1_465 S
C1629 C1626 1.409 1_455 S
C1629 C1627 1.415 . S
C1630 H1620 0.930 . S
C1630 C1628 1.419 . S
C1630 C1631 1.362 . S
C1631 H1621 0.930 . S
C1631 C1624 1.409 1_455 S
C1631 C1630 1.362 . S
H1632 C1638 0.930 . S
H1633 C1641 0.930 . S
H1634 C1642 0.930 . S
H1635 C1643 0.930 . S
H1636 C1646 0.930 . S
H1637 C1647 0.930 . S
C1638 H1632 0.930 . S
C1638 C1639 1.355 . S
C1638 C1640 1.415 . S
C1639 C1638 1.355 . S
C1639 C1641 1.419 . S
C1640 C1638 1.415 . S
C1640 C1645 1.425 . S
C1640 C1647 1.409 . S
C1641 H1633 0.930 . S
C1641 C1639 1.419 . S
C1641 C1642 1.362 . S
C1642 H1634 0.930 . S
C1642 C1641 1.362 . S
C1642 C1645 1.409 . S
C1643 H1635 0.930 . S
C1643 C1644 1.355 . S
C1643 C1645 1.415 . S
C1644 C1643 1.355 . S
C1644 C1646 1.419 . S
C1645 C1640 1.425 . S
C1645 C1642 1.409 . S
C1645 C1643 1.415 . S
C1646 H1636 0.930 . S
C1646 C1644 1.419 . S
C1646 C1647 1.362 . S
C1647 H1637 0.930 . S
C1647 C1640 1.409 . S
C1647 C1646 1.362 . S
H1648 C1654 0.930 . S
H1649 C1657 0.930 . S
H1650 C1658 0.930 . S
H1651 C1659 0.930 . S
H1652 C1662 0.930 . S
H1653 C1663 0.930 . S
C1654 H1648 0.930 . S
C1654 C1655 1.355 . S
C1654 C1656 1.415 . S
C1655 C1654 1.355 . S
C1655 C1657 1.419 . S
C1656 C1654 1.415 . S
C1656 C1661 1.425 . S
C1656 C1663 1.409 . S
C1657 H1649 0.930 . S
C1657 C1655 1.419 . S
C1657 C1658 1.362 . S
C1658 H1650 0.930 . S
C1658 C1657 1.362 . S
C1658 C1661 1.409 . S
C1659 H1651 0.930 . S
C1659 C1660 1.355 . S
C1659 C1661 1.415 . S
C1660 C1659 1.355 . S
C1660 C1662 1.419 . S
C1661 C1656 1.425 . S
C1661 C1658 1.409 . S
C1661 C1659 1.415 . S
C1662 H1652 0.930 . S
C1662 C1660 1.419 . S
C1662 C1663 1.362 . S
C1663 H1653 0.930 . S
C1663 C1656 1.409 . S
C1663 C1662 1.362 . S
H1664 C1670 0.930 . S
H1665 C1673 0.930 . S
H1666 C1674 0.930 . S
H1667 C1675 0.930 . S
H1668 C1678 0.930 . S
H1669 C1679 0.930 . S
C1670 H1664 0.930 . S
C1670 C1671 1.355 . S
C1670 C1672 1.415 . S
C1671 C1670 1.355 . S
C1671 C1673 1.419 . S
C1672 C1670 1.415 . S
C1672 C1677 1.425 . S
C1672 C1679 1.409 . S
C1673 H1665 0.930 . S
C1673 C1671 1.419 . S
C1673 C1674 1.362 . S
C1674 H1666 0.930 . S
C1674 C1673 1.362 . S
C1674 C1677 1.409 . S
C1675 H1667 0.930 . S
C1675 C1676 1.355 . S
C1675 C1677 1.415 . S
C1676 C1675 1.355 . S
C1676 C1678 1.419 . S
C1677 C1672 1.425 . S
C1677 C1674 1.409 . S
C1677 C1675 1.415 . S
C1678 H1668 0.930 . S
C1678 C1676 1.419 . S
C1678 C1679 1.362 . S
C1679 H1669 0.930 . S
C1679 C1672 1.409 . S
C1679 C1678 1.362 . S
H1680 C1686 0.930 . S
H1681 C1689 0.930 . S
H1682 C1690 0.930 . S
H1683 C1691 0.930 . S
H1684 C1694 0.930 . S
H1685 C1695 0.930 . S
C1686 H1680 0.930 . S
C1686 C1687 1.375 . S
C1686 C1688 1.415 . S
C1687 C1686 1.375 . S
C1687 C1689 1.392 1_545 S
C1688 C1686 1.415 . S
C1688 C1693 1.425 1_545 S
C1688 C1695 1.409 . S
C1689 H1681 0.930 . S
C1689 C1687 1.392 1_565 S
C1689 C1690 1.362 . S
C1690 H1682 0.930 . S
C1690 C1689 1.362 . S
C1690 C1693 1.409 . S
C1691 H1683 0.930 . S
C1691 C1692 1.375 . S
C1691 C1693 1.415 . S
C1692 C1691 1.375 . S
C1692 C1694 1.392 1_565 S
C1693 C1688 1.425 1_565 S
C1693 C1690 1.409 . S
C1693 C1691 1.415 . S
C1694 H1684 0.930 . S
C1694 C1692 1.392 1_545 S
C1694 C1695 1.362 . S
C1695 H1685 0.930 . S
C1695 C1688 1.409 . S
C1695 C1694 1.362 . S
H1696 C1702 0.930 . S
H1697 C1705 0.930 . S
H1698 C1706 0.930 . S
H1699 C1707 0.930 . S
H1700 C1710 0.930 . S
H1701 C1711 0.930 . S
C1702 H1696 0.930 . S
C1702 C1703 1.355 . S
C1702 C1704 1.415 . S
C1703 C1702 1.355 . S
C1703 C1705 1.419 . S
C1704 C1702 1.415 . S
C1704 C1709 1.425 . S
C1704 C1711 1.409 . S
C1705 H1697 0.930 . S
C1705 C1703 1.419 . S
C1705 C1706 1.362 . S
C1706 H1698 0.930 . S
C1706 C1705 1.362 . S
C1706 C1709 1.409 . S
C1707 H1699 0.930 . S
C1707 C1708 1.355 . S
C1707 C1709 1.415 . S
C1708 C1707 1.355 . S
C1708 C1710 1.419 . S
C1709 C1704 1.425 . S
C1709 C1706 1.409 . S
C1709 C1707 1.415 . S
C1710 H1700 0.930 . S
C1710 C1708 1.419 . S
C1710 C1711 1.362 . S
C1711 H1701 0.930 . S
C1711 C1704 1.409 . S
C1711 C1710 1.362 . S
H1712 C1718 0.930 1_655 S
H1713 C1721 0.930 . S
H1714 C1722 0.930 . S
H1715 C1723 0.930 . S
H1716 C1726 0.930 . S
H1717 C1727 0.930 . S
C1718 H1712 0.930 1_455 S
C1718 C1719 1.355 . S
C1718 C1720 1.415 . S
C1719 C1718 1.355 . S
C1719 C1721 1.419 . S
C1720 C1718 1.415 . S
C1720 C1725 1.425 . S
C1720 C1727 1.409 1_455 S
C1721 H1713 0.930 . S
C1721 C1719 1.419 . S
C1721 C1722 1.362 . S
C1722 H1714 0.930 . S
C1722 C1721 1.362 . S
C1722 C1725 1.409 . S
C1723 H1715 0.930 . S
C1723 C1724 1.355 . S
C1723 C1725 1.415 . S
C1724 C1723 1.355 . S
C1724 C1726 1.419 1_455 S
C1725 C1720 1.425 . S
C1725 C1722 1.409 . S
C1725 C1723 1.415 . S
C1726 H1716 0.930 . S
C1726 C1724 1.419 1_655 S
C1726 C1727 1.362 . S
C1727 H1717 0.930 . S
C1727 C1720 1.409 1_655 S
C1727 C1726 1.362 . S
H1728 C1734 0.930 . S
H1729 C1737 0.930 . S
H1730 C1738 0.930 . S
H1731 C1739 0.930 . S
H1732 C1742 0.930 . S
H1733 C1743 0.930 . S
C1734 H1728 0.930 . S
C1734 C1735 1.355 . S
C1734 C1736 1.415 . S
C1735 C1734 1.355 . S
C1735 C1737 1.419 . S
C1736 C1734 1.415 . S
C1736 C1741 1.425 . S
C1736 C1743 1.409 . S
C1737 H1729 0.930 . S
C1737 C1735 1.419 . S
C1737 C1738 1.362 . S
C1738 H1730 0.930 . S
C1738 C1737 1.362 . S
C1738 C1741 1.409 . S
C1739 H1731 0.930 . S
C1739 C1740 1.355 . S
C1739 C1741 1.415 . S
C1740 C1739 1.355 . S
C1740 C1742 1.419 . S
C1741 C1736 1.425 . S
C1741 C1738 1.409 . S
C1741 C1739 1.415 . S
C1742 H1732 0.930 . S
C1742 C1740 1.419 . S
C1742 C1743 1.362 . S
C1743 H1733 0.930 . S
C1743 C1736 1.409 . S
C1743 C1742 1.362 . S
H1744 C1750 0.930 . S
H1745 C1753 0.930 . S
H1746 C1754 0.930 . S
H1747 C1755 0.930 . S
H1748 C1758 0.930 1_455 S
H1749 C1759 0.930 1_455 S
C1750 H1744 0.930 . S
C1750 C1751 1.355 . S
C1750 C1752 1.415 . S
C1751 C1750 1.355 . S
C1751 C1753 1.419 . S
C1752 C1750 1.415 . S
C1752 C1757 1.425 . S
C1752 C1759 1.409 . S
C1753 H1745 0.930 . S
C1753 C1751 1.419 . S
C1753 C1754 1.362 . S
C1754 H1746 0.930 . S
C1754 C1753 1.362 . S
C1754 C1757 1.409 . S
C1755 H1747 0.930 . S
C1755 C1756 1.355 . S
C1755 C1757 1.415 . S
C1756 C1755 1.355 . S
C1756 C1758 1.419 . S
C1757 C1752 1.425 . S
C1757 C1754 1.409 . S
C1757 C1755 1.415 . S
C1758 H1748 0.930 1_655 S
C1758 C1756 1.419 . S
C1758 C1759 1.362 . S
C1759 H1749 0.930 1_655 S
C1759 C1752 1.409 . S
C1759 C1758 1.362 . S
H1760 C1766 0.930 . S
H1761 C1769 0.930 . S
H1762 C1770 0.930 . S
H1763 C1771 0.930 . S
H1764 C1774 0.930 . S
H1765 C1775 0.930 . S
C1766 H1760 0.930 . S
C1766 C1767 1.355 1_655 S
C1766 C1768 1.415 . S
C1767 C1766 1.355 1_455 S
C1767 C1769 1.419 . S
C1768 C1766 1.415 . S
C1768 C1773 1.425 1_656 S
C1768 C1775 1.409 1_556 S
C1769 H1761 0.930 . S
C1769 C1767 1.419 . S
C1769 C1770 1.362 . S
C1770 H1762 0.930 . S
C1770 C1769 1.362 . S
C1770 C1773 1.409 1_556 S
C1771 H1763 0.930 . S
C1771 C1772 1.355 1_455 S
C1771 C1773 1.415 . S
C1772 C1771 1.355 1_655 S
C1772 C1774 1.419 . S
C1773 C1768 1.425 1_454 S
C1773 C1770 1.409 1_554 S
C1773 C1771 1.415 . S
C1774 H1764 0.930 . S
C1774 C1772 1.419 . S
C1774 C1775 1.362 . S
C1775 H1765 0.930 . S
C1775 C1768 1.409 1_554 S
C1775 C1774 1.362 . S
H1776 C1782 0.930 . S
H1777 C1785 0.930 . S
H1778 C1786 0.930 . S
H1779 C1787 0.930 . S
H1780 C1790 0.930 . S
H1781 C1791 0.930 . S
C1782 H1776 0.930 . S
C1782 C1783 1.355 . S
C1782 C1784 1.415 . S
C1783 C1782 1.355 . S
C1783 C1785 1.419 . S
C1784 C1782 1.415 . S
C1784 C1789 1.425 . S
C1784 C1791 1.409 . S
C1785 H1777 0.930 . S
C1785 C1783 1.419 . S
C1785 C1786 1.362 . S
C1786 H1778 0.930 . S
C1786 C1785 1.362 . S
C1786 C1789 1.409 . S
C1787 H1779 0.930 . S
C1787 C1788 1.355 . S
C1787 C1789 1.415 . S
C1788 C1787 1.355 . S
C1788 C1790 1.419 . S
C1789 C1784 1.425 . S
C1789 C1786 1.409 . S
C1789 C1787 1.415 . S
C1790 H1780 0.930 . S
C1790 C1788 1.419 . S
C1790 C1791 1.362 . S
C1791 H1781 0.930 . S
C1791 C1784 1.409 . S
C1791 C1790 1.362 . S
H1792 C1798 0.930 . S
H1793 C1801 0.930 . S
H1794 C1802 0.930 . S
H1795 C1803 0.930 . S
H1796 C1806 0.930 . S
H1797 C1807 0.930 . S
C1798 H1792 0.930 . S
C1798 C1799 1.355 . S
C1798 C1800 1.415 . S
C1799 C1798 1.355 . S
C1799 C1801 1.419 . S
C1800 C1798 1.415 . S
C1800 C1805 1.425 1_554 S
C1800 C1807 1.409 1_554 S
C1801 H1793 0.930 . S
C1801 C1799 1.419 . S
C1801 C1802 1.362 . S
C1802 H1794 0.930 . S
C1802 C1801 1.362 . S
C1802 C1805 1.409 1_554 S
C1803 H1795 0.930 . S
C1803 C1804 1.355 . S
C1803 C1805 1.415 . S
C1804 C1803 1.355 . S
C1804 C1806 1.419 . S
C1805 C1800 1.425 1_556 S
C1805 C1802 1.409 1_556 S
C1805 C1803 1.415 . S
C1806 H1796 0.930 . S
C1806 C1804 1.419 . S
C1806 C1807 1.362 . S
C1807 H1797 0.930 . S
C1807 C1800 1.409 1_556 S
C1807 C1806 1.362 . S
H1808 C1814 0.930 . S
H1809 C1817 0.930 . S
H1810 C1818 0.930 . S
H1811 C1819 0.930 1_565 S
H1812 C1822 0.930 . S
H1813 C1823 0.930 . S
C1814 H1808 0.930 . S
C1814 C1815 1.355 . S
C1814 C1816 1.415 . S
C1815 C1814 1.355 . S
C1815 C1817 1.419 1_545 S
C1816 C1814 1.415 . S
C1816 C1821 1.425 . S
C1816 C1823 1.409 . S
C1817 H1809 0.930 . S
C1817 C1815 1.419 1_565 S
C1817 C1818 1.362 . S
C1818 H1810 0.930 . S
C1818 C1817 1.362 . S
C1818 C1821 1.409 1_565 S
C1819 H1811 0.930 1_545 S
C1819 C1820 1.355 . S
C1819 C1821 1.415 . S
C1820 C1819 1.355 . S
C1820 C1822 1.419 . S
C1821 C1816 1.425 . S
C1821 C1818 1.409 1_545 S
C1821 C1819 1.415 . S
C1822 H1812 0.930 . S
C1822 C1820 1.419 . S
C1822 C1823 1.362 . S
C1823 H1813 0.930 . S
C1823 C1816 1.409 . S
C1823 C1822 1.362 . S
H1824 C1830 0.930 . S
H1825 C1833 0.930 . S
H1826 C1834 0.930 . S
H1827 C1835 0.930 . S
H1828 C1838 0.930 . S
H1829 C1839 0.930 . S
C1830 H1824 0.930 . S
C1830 C1831 1.355 . S
C1830 C1832 1.415 . S
C1831 C1830 1.355 . S
C1831 C1833 1.419 1_556 S
C1832 C1830 1.415 . S
C1832 C1837 1.425 1_546 S
C1832 C1839 1.409 1_545 S
C1833 H1825 0.930 . S
C1833 C1831 1.419 1_554 S
C1833 C1834 1.362 . S
C1834 H1826 0.930 . S
C1834 C1833 1.362 . S
C1834 C1837 1.409 1_545 S
C1835 H1827 0.930 . S
C1835 C1836 1.355 . S
C1835 C1837 1.415 . S
C1836 C1835 1.355 . S
C1836 C1838 1.419 1_554 S
C1837 C1832 1.425 1_564 S
C1837 C1834 1.409 1_565 S
C1837 C1835 1.415 . S
C1838 H1828 0.930 . S
C1838 C1836 1.419 1_556 S
C1838 C1839 1.362 . S
C1839 H1829 0.930 . S
C1839 C1832 1.409 1_565 S
C1839 C1838 1.362 . S
H1840 C1846 0.930 . S
H1841 C1849 0.930 . S
H1842 C1850 0.930 . S
H1843 C1851 0.930 . S
H1844 C1854 0.930 . S
H1845 C1855 0.930 . S
C1846 H1840 0.930 . S
C1846 C1847 1.355 . S
C1846 C1848 1.415 . S
C1847 C1846 1.355 . S
C1847 C1849 1.419 . S
C1848 C1846 1.415 . S
C1848 C1853 1.425 . S
C1848 C1855 1.409 . S
C1849 H1841 0.930 . S
C1849 C1847 1.419 . S
C1849 C1850 1.362 . S
C1850 H1842 0.930 . S
C1850 C1849 1.362 . S
C1850 C1853 1.409 . S
C1851 H1843 0.930 . S
C1851 C1852 1.355 . S
C1851 C1853 1.415 . S
C1852 C1851 1.355 . S
C1852 C1854 1.419 . S
C1853 C1848 1.425 . S
C1853 C1850 1.409 . S
C1853 C1851 1.415 . S
C1854 H1844 0.930 . S
C1854 C1852 1.419 . S
C1854 C1855 1.362 . S
C1855 H1845 0.930 . S
C1855 C1848 1.409 . S
C1855 C1854 1.362 . S
H1856 C1862 0.930 . S
H1857 C1865 0.930 . S
H1858 C1866 0.930 . S
H1859 C1867 0.930 . S
H1860 C1870 0.930 . S
H1861 C1871 0.930 . S
C1862 H1856 0.930 . S
C1862 C1863 1.355 . S
C1862 C1864 1.415 . S
C1863 C1862 1.355 . S
C1863 C1865 1.419 . S
C1864 C1862 1.415 . S
C1864 C1869 1.425 . S
C1864 C1871 1.409 . S
C1865 H1857 0.930 . S
C1865 C1863 1.419 . S
C1865 C1866 1.362 . S
C1866 H1858 0.930 . S
C1866 C1865 1.362 . S
C1866 C1869 1.409 . S
C1867 H1859 0.930 . S
C1867 C1868 1.355 . S
C1867 C1869 1.415 . S
C1868 C1867 1.355 . S
C1868 C1870 1.419 . S
C1869 C1864 1.425 . S
C1869 C1866 1.409 . S
C1869 C1867 1.415 . S
C1870 H1860 0.930 . S
C1870 C1868 1.419 . S
C1870 C1871 1.362 . S
C1871 H1861 0.930 . S
C1871 C1864 1.409 . S
C1871 C1870 1.362 . S
H1872 C1878 0.930 1_545 S
H1873 C1881 0.930 . S
H1874 C1882 0.930 . S
H1875 C1883 0.930 . S
H1876 C1886 0.930 . S
H1877 C1887 0.930 . S
C1878 H1872 0.930 1_565 S
C1878 C1879 1.355 . S
C1878 C1880 1.415 . S
C1879 C1878 1.355 . S
C1879 C1881 1.419 . S
C1880 C1878 1.415 . S
C1880 C1885 1.425 . S
C1880 C1887 1.409 1_565 S
C1881 H1873 0.930 . S
C1881 C1879 1.419 . S
C1881 C1882 1.362 . S
C1882 H1874 0.930 . S
C1882 C1881 1.362 . S
C1882 C1885 1.409 . S
C1883 H1875 0.930 . S
C1883 C1884 1.355 . S
C1883 C1885 1.415 . S
C1884 C1883 1.355 . S
C1884 C1886 1.419 1_565 S
C1885 C1880 1.425 . S
C1885 C1882 1.409 . S
C1885 C1883 1.415 . S
C1886 H1876 0.930 . S
C1886 C1884 1.419 1_545 S
C1886 C1887 1.362 . S
C1887 H1877 0.930 . S
C1887 C1880 1.409 1_545 S
C1887 C1886 1.362 . S
H1888 C1894 0.930 . S
H1889 C1897 0.930 . S
H1890 C1898 0.930 . S
H1891 C1899 0.930 . S
H1892 C1902 0.930 . S
H1893 C1903 0.930 . S
C1894 H1888 0.930 . S
C1894 C1895 1.355 . S
C1894 C1896 1.415 . S
C1895 C1894 1.355 . S
C1895 C1897 1.419 . S
C1896 C1894 1.415 . S
C1896 C1901 1.425 1_545 S
C1896 C1903 1.409 1_545 S
C1897 H1889 0.930 . S
C1897 C1895 1.419 . S
C1897 C1898 1.362 . S
C1898 H1890 0.930 . S
C1898 C1897 1.362 . S
C1898 C1901 1.409 1_545 S
C1899 H1891 0.930 . S
C1899 C1900 1.355 . S
C1899 C1901 1.415 . S
C1900 C1899 1.355 . S
C1900 C1902 1.419 . S
C1901 C1896 1.425 1_565 S
C1901 C1898 1.409 1_565 S
C1901 C1899 1.415 . S
C1902 H1892 0.930 . S
C1902 C1900 1.419 . S
C1902 C1903 1.362 . S
C1903 H1893 0.930 . S
C1903 C1896 1.409 1_565 S
C1903 C1902 1.362 . S
H1904 C1910 0.930 . S
H1905 C1913 0.930 . S
H1906 C1914 0.930 . S
H1907 C1915 0.930 . S
H1908 C1918 0.930 . S
H1909 C1919 0.930 . S
C1910 H1904 0.930 . S
C1910 C1911 1.355 . S
C1910 C1912 1.415 . S
C1911 C1910 1.355 . S
C1911 C1913 1.419 . S
C1912 C1910 1.415 . S
C1912 C1917 1.425 . S
C1912 C1919 1.409 . S
C1913 H1905 0.930 . S
C1913 C1911 1.419 . S
C1913 C1914 1.362 . S
C1914 H1906 0.930 . S
C1914 C1913 1.362 . S
C1914 C1917 1.409 . S
C1915 H1907 0.930 . S
C1915 C1916 1.355 . S
C1915 C1917 1.415 . S
C1916 C1915 1.355 . S
C1916 C1918 1.419 . S
C1917 C1912 1.425 . S
C1917 C1914 1.409 . S
C1917 C1915 1.415 . S
C1918 H1908 0.930 . S
C1918 C1916 1.419 . S
C1918 C1919 1.362 . S
C1919 H1909 0.930 . S
C1919 C1912 1.409 . S
C1919 C1918 1.362 . S
H1920 C1926 0.930 . S
H1921 C1929 0.930 . S
H1922 C1930 0.930 . S
H1923 C1931 0.930 . S
H1924 C1934 0.930 . S
H1925 C1935 0.930 . S
C1926 H1920 0.930 . S
C1926 C1927 1.355 1_556 S
C1926 C1928 1.415 . S
C1927 C1926 1.355 1_554 S
C1927 C1929 1.419 . S
C1928 C1926 1.415 . S
C1928 C1933 1.425 1_556 S
C1928 C1935 1.409 . S
C1929 H1921 0.930 . S
C1929 C1927 1.419 . S
C1929 C1930 1.362 . S
C1930 H1922 0.930 . S
C1930 C1929 1.362 . S
C1930 C1933 1.409 . S
C1931 H1923 0.930 . S
C1931 C1932 1.355 1_554 S
C1931 C1933 1.415 . S
C1932 C1931 1.355 1_556 S
C1932 C1934 1.419 . S
C1933 C1928 1.425 1_554 S
C1933 C1930 1.409 . S
C1933 C1931 1.415 . S
C1934 H1924 0.930 . S
C1934 C1932 1.419 . S
C1934 C1935 1.362 . S
C1935 H1925 0.930 . S
C1935 C1928 1.409 . S
C1935 C1934 1.362 . S
H1936 C1942 0.930 1_556 S
H1937 C1945 0.930 . S
H1938 C1946 0.930 . S
H1939 C1947 0.930 . S
H1940 C1950 0.930 . S
H1941 C1951 0.930 . S
C1942 H1936 0.930 1_554 S
C1942 C1943 1.355 . S
C1942 C1944 1.415 . S
C1943 C1942 1.355 . S
C1943 C1945 1.419 . S
C1944 C1942 1.415 . S
C1944 C1949 1.425 . S
C1944 C1951 1.409 1_554 S
C1945 H1937 0.930 . S
C1945 C1943 1.419 . S
C1945 C1946 1.362 . S
C1946 H1938 0.930 . S
C1946 C1945 1.362 . S
C1946 C1949 1.409 . S
C1947 H1939 0.930 . S
C1947 C1948 1.355 . S
C1947 C1949 1.415 . S
C1948 C1947 1.355 . S
C1948 C1950 1.419 1_554 S
C1949 C1944 1.425 . S
C1949 C1946 1.409 . S
C1949 C1947 1.415 . S
C1950 H1940 0.930 . S
C1950 C1948 1.419 1_556 S
C1950 C1951 1.362 . S
C1951 H1941 0.930 . S
C1951 C1944 1.409 1_556 S
C1951 C1950 1.362 . S
H1952 C1958 0.930 . S
H1953 C1961 0.930 . S
H1954 C1962 0.930 . S
H1955 C1963 0.930 . S
H1956 C1966 0.930 . S
H1957 C1967 0.930 . S
C1958 H1952 0.930 . S
C1958 C1959 1.355 . S
C1958 C1960 1.415 . S
C1959 C1958 1.355 . S
C1959 C1961 1.419 . S
C1960 C1958 1.415 . S
C1960 C1965 1.425 . S
C1960 C1967 1.409 . S
C1961 H1953 0.930 . S
C1961 C1959 1.419 . S
C1961 C1962 1.362 . S
C1962 H1954 0.930 . S
C1962 C1961 1.362 . S
C1962 C1965 1.409 . S
C1963 H1955 0.930 . S
C1963 C1964 1.355 . S
C1963 C1965 1.415 . S
C1964 C1963 1.355 . S
C1964 C1966 1.419 . S
C1965 C1960 1.425 . S
C1965 C1962 1.409 . S
C1965 C1963 1.415 . S
C1966 H1956 0.930 . S
C1966 C1964 1.419 . S
C1966 C1967 1.362 . S
C1967 H1957 0.930 . S
C1967 C1960 1.409 . S
C1967 C1966 1.362 . S
H1968 C1974 0.930 . S
H1969 C1977 0.930 . S
H1970 C1978 0.930 . S
H1971 C1979 0.930 1_554 S
H1972 C1982 0.930 . S
H1973 C1983 0.930 . S
C1974 H1968 0.930 . S
C1974 C1975 1.355 . S
C1974 C1976 1.415 . S
C1975 C1974 1.355 . S
C1975 C1977 1.419 1_556 S
C1976 C1974 1.415 . S
C1976 C1981 1.425 . S
C1976 C1983 1.409 . S
C1977 H1969 0.930 . S
C1977 C1975 1.419 1_554 S
C1977 C1978 1.362 . S
C1978 H1970 0.930 . S
C1978 C1977 1.362 . S
C1978 C1981 1.409 1_554 S
C1979 H1971 0.930 1_556 S
C1979 C1980 1.355 . S
C1979 C1981 1.415 . S
C1980 C1979 1.355 . S
C1980 C1982 1.419 . S
C1981 C1976 1.425 . S
C1981 C1978 1.409 1_556 S
C1981 C1979 1.415 . S
C1982 H1972 0.930 . S
C1982 C1980 1.419 . S
C1982 C1983 1.362 . S
C1983 H1973 0.930 . S
C1983 C1976 1.409 . S
C1983 C1982 1.362 . S
H1984 C1990 0.930 . S
H1985 C1993 0.930 . S
H1986 C1994 0.930 . S
H1987 C1995 0.930 . S
H1988 C1998 0.930 . S
H1989 C1999 0.930 . S
C1990 H1984 0.930 . S
C1990 C1991 1.355 . S
C1990 C1992 1.415 . S
C1991 C1990 1.355 . S
C1991 C1993 1.419 . S
C1992 C1990 1.415 . S
C1992 C1997 1.425 . S
C1992 C1999 1.409 . S
C1993 H1985 0.930 . S
C1993 C1991 1.419 . S
C1993 C1994 1.362 . S
C1994 H1986 0.930 . S
C1994 C1993 1.362 . S
C1994 C1997 1.409 . S
C1995 H1987 0.930 . S
C1995 C1996 1.355 . S
C1995 C1997 1.415 . S
C1996 C1995 1.355 . S
C1996 C1998 1.419 . S
C1997 C1992 1.425 . S
C1997 C1994 1.409 . S
C1997 C1995 1.415 . S
C1998 H1988 0.930 . S
C1998 C1996 1.419 . S
C1998 C1999 1.362 . S
C1999 H1989 0.930 . S
C1999 C1992 1.409 . S
C1999 C1998 1.362 . S
H2000 C2006 0.930 . S
H2001 C2009 0.930 . S
H2002 C2010 0.930 . S
H2003 C2011 0.930 . S
H2004 C2014 0.930 . S
H2005 C2015 0.930 . S
C2006 H2000 0.930 . S
C2006 C2007 1.355 . S
C2006 C2008 1.415 . S
C2007 C2006 1.355 . S
C2007 C2009 1.419 . S
C2008 C2006 1.415 . S
C2008 C2013 1.425 . S
C2008 C2015 1.409 . S
C2009 H2001 0.930 . S
C2009 C2007 1.419 . S
C2009 C2010 1.362 . S
C2010 H2002 0.930 . S
C2010 C2009 1.362 . S
C2010 C2013 1.409 . S
C2011 H2003 0.930 . S
C2011 C2012 1.355 . S
C2011 C2013 1.415 . S
C2012 C2011 1.355 . S
C2012 C2014 1.419 . S
C2013 C2008 1.425 . S
C2013 C2010 1.409 . S
C2013 C2011 1.415 . S
C2014 H2004 0.930 . S
C2014 C2012 1.419 . S
C2014 C2015 1.362 . S
C2015 H2005 0.930 . S
C2015 C2008 1.409 . S
C2015 C2014 1.362 . S
H2016 C2022 0.930 . S
H2017 C2025 0.930 . S
H2018 C2026 0.930 . S
H2019 C2027 0.930 . S
H2020 C2030 0.930 . S
H2021 C2031 0.930 . S
C2022 H2016 0.930 . S
C2022 C2023 1.355 . S
C2022 C2024 1.415 . S
C2023 C2022 1.355 . S
C2023 C2025 1.419 . S
C2024 C2022 1.415 . S
C2024 C2029 1.425 . S
C2024 C2031 1.409 . S
C2025 H2017 0.930 . S
C2025 C2023 1.419 . S
C2025 C2026 1.362 . S
C2026 H2018 0.930 . S
C2026 C2025 1.362 . S
C2026 C2029 1.409 . S
C2027 H2019 0.930 . S
C2027 C2028 1.355 . S
C2027 C2029 1.415 . S
C2028 C2027 1.355 . S
C2028 C2030 1.419 . S
C2029 C2024 1.425 . S
C2029 C2026 1.409 . S
C2029 C2027 1.415 . S
C2030 H2020 0.930 . S
C2030 C2028 1.419 . S
C2030 C2031 1.362 . S
C2031 H2021 0.930 . S
C2031 C2024 1.409 . S
C2031 C2030 1.362 . S
H2032 C2038 0.930 . S
H2033 C2041 0.930 . S
H2034 C2042 0.930 . S
H2035 C2043 0.930 . S
H2036 C2046 0.930 . S
H2037 C2047 0.930 . S
C2038 H2032 0.930 . S
C2038 C2039 1.355 . S
C2038 C2040 1.415 . S
C2039 C2038 1.355 . S
C2039 C2041 1.419 . S
C2040 C2038 1.415 . S
C2040 C2045 1.425 1_554 S
C2040 C2047 1.409 1_554 S
C2041 H2033 0.930 . S
C2041 C2039 1.419 . S
C2041 C2042 1.362 . S
C2042 H2034 0.930 . S
C2042 C2041 1.362 . S
C2042 C2045 1.409 1_554 S
C2043 H2035 0.930 . S
C2043 C2044 1.355 . S
C2043 C2045 1.415 . S
C2044 C2043 1.355 . S
C2044 C2046 1.419 . S
C2045 C2040 1.425 1_556 S
C2045 C2042 1.409 1_556 S
C2045 C2043 1.415 . S
C2046 H2036 0.930 . S
C2046 C2044 1.419 . S
C2046 C2047 1.362 . S
C2047 H2037 0.930 . S
C2047 C2040 1.409 1_556 S
C2047 C2046 1.362 . S
H2048 C2054 0.930 . S
H2049 C2057 0.930 . S
H2050 C2058 0.930 . S
H2051 C2059 0.930 . S
H2052 C2062 0.930 . S
H2053 C2063 0.930 . S
C2054 H2048 0.930 . S
C2054 C2055 1.355 . S
C2054 C2056 1.415 . S
C2055 C2054 1.355 . S
C2055 C2057 1.419 . S
C2056 C2054 1.415 . S
C2056 C2061 1.425 . S
C2056 C2063 1.409 . S
C2057 H2049 0.930 . S
C2057 C2055 1.419 . S
C2057 C2058 1.362 . S
C2058 H2050 0.930 . S
C2058 C2057 1.362 . S
C2058 C2061 1.409 . S
C2059 H2051 0.930 . S
C2059 C2060 1.355 . S
C2059 C2061 1.415 . S
C2060 C2059 1.355 . S
C2060 C2062 1.419 . S
C2061 C2056 1.425 . S
C2061 C2058 1.409 . S
C2061 C2059 1.415 . S
C2062 H2052 0.930 . S
C2062 C2060 1.419 . S
C2062 C2063 1.362 . S
C2063 H2053 0.930 . S
C2063 C2056 1.409 . S
C2063 C2062 1.362 . S
H2064 C2070 0.930 . S
H2065 C2073 0.930 . S
H2066 C2074 0.930 . S
H2067 C2075 0.930 . S
H2068 C2078 0.930 . S
H2069 C2079 0.930 . S
C2070 H2064 0.930 . S
C2070 C2071 1.355 . S
C2070 C2072 1.415 . S
C2071 C2070 1.355 . S
C2071 C2073 1.419 1_655 S
C2072 C2070 1.415 . S
C2072 C2077 1.425 1_655 S
C2072 C2079 1.409 . S
C2073 H2065 0.930 . S
C2073 C2071 1.419 1_455 S
C2073 C2074 1.362 . S
C2074 H2066 0.930 . S
C2074 C2073 1.362 . S
C2074 C2077 1.409 . S
C2075 H2067 0.930 . S
C2075 C2076 1.355 . S
C2075 C2077 1.415 . S
C2076 C2075 1.355 . S
C2076 C2078 1.419 1_455 S
C2077 C2072 1.425 1_455 S
C2077 C2074 1.409 . S
C2077 C2075 1.415 . S
C2078 H2068 0.930 . S
C2078 C2076 1.419 1_655 S
C2078 C2079 1.362 . S
C2079 H2069 0.930 . S
C2079 C2072 1.409 . S
C2079 C2078 1.362 . S
H2080 C2086 0.930 . S
H2081 C2089 0.930 . S
H2082 C2090 0.930 . S
H2083 C2091 0.930 . S
H2084 C2094 0.930 . S
H2085 C2095 0.930 . S
C2086 H2080 0.930 . S
C2086 C2087 1.355 . S
C2086 C2088 1.415 . S
C2087 C2086 1.355 . S
C2087 C2089 1.419 . S
C2088 C2086 1.415 . S
C2088 C2093 1.425 . S
C2088 C2095 1.409 . S
C2089 H2081 0.930 . S
C2089 C2087 1.419 . S
C2089 C2090 1.362 . S
C2090 H2082 0.930 . S
C2090 C2089 1.362 . S
C2090 C2093 1.409 . S
C2091 H2083 0.930 . S
C2091 C2092 1.355 . S
C2091 C2093 1.415 . S
C2092 C2091 1.355 . S
C2092 C2094 1.419 . S
C2093 C2088 1.425 . S
C2093 C2090 1.409 . S
C2093 C2091 1.415 . S
C2094 H2084 0.930 . S
C2094 C2092 1.419 . S
C2094 C2095 1.362 . S
C2095 H2085 0.930 . S
C2095 C2088 1.409 . S
C2095 C2094 1.362 . S
H2096 C2102 0.930 . S
H2097 C2105 0.930 . S
H2098 C2106 0.930 . S
H2099 C2107 0.930 . S
H2100 C2110 0.930 . S
H2101 C2111 0.930 . S
C2102 H2096 0.930 . S
C2102 C2103 1.355 . S
C2102 C2104 1.415 . S
C2103 C2102 1.355 . S
C2103 C2105 1.419 . S
C2104 C2102 1.415 . S
C2104 C2109 1.425 . S
C2104 C2111 1.409 . S
C2105 H2097 0.930 . S
C2105 C2103 1.419 . S
C2105 C2106 1.362 . S
C2106 H2098 0.930 . S
C2106 C2105 1.362 . S
C2106 C2109 1.409 . S
C2107 H2099 0.930 . S
C2107 C2108 1.355 . S
C2107 C2109 1.415 . S
C2108 C2107 1.355 . S
C2108 C2110 1.419 . S
C2109 C2104 1.425 . S
C2109 C2106 1.409 . S
C2109 C2107 1.415 . S
C2110 H2100 0.930 . S
C2110 C2108 1.419 . S
C2110 C2111 1.362 . S
C2111 H2101 0.930 . S
C2111 C2104 1.409 . S
C2111 C2110 1.362 . S
H2112 C2118 0.930 . S
H2113 C2121 0.930 . S
H2114 C2122 0.930 . S
H2115 C2123 0.930 . S
H2116 C2126 0.930 . S
H2117 C2127 0.930 . S
C2118 H2112 0.930 . S
C2118 C2119 1.355 . S
C2118 C2120 1.415 . S
C2119 C2118 1.355 . S
C2119 C2121 1.419 . S
C2120 C2118 1.415 . S
C2120 C2125 1.425 . S
C2120 C2127 1.409 . S
C2121 H2113 0.930 . S
C2121 C2119 1.419 . S
C2121 C2122 1.362 . S
C2122 H2114 0.930 . S
C2122 C2121 1.362 . S
C2122 C2125 1.409 . S
C2123 H2115 0.930 . S
C2123 C2124 1.355 . S
C2123 C2125 1.415 . S
C2124 C2123 1.355 . S
C2124 C2126 1.419 . S
C2125 C2120 1.425 . S
C2125 C2122 1.409 . S
C2125 C2123 1.415 . S
C2126 H2116 0.930 . S
C2126 C2124 1.419 . S
C2126 C2127 1.362 . S
C2127 H2117 0.930 . S
C2127 C2120 1.409 . S
C2127 C2126 1.362 . S
H2128 C2134 0.930 . S
H2129 C2137 0.930 . S
H2130 C2138 0.930 . S
H2131 C2139 0.930 . S
H2132 C2142 0.930 . S
H2133 C2143 0.930 . S
C2134 H2128 0.930 . S
C2134 C2135 1.377 . S
C2134 C2136 1.415 . S
C2135 C2134 1.377 . S
C2135 C2137 1.389 1_565 S
C2136 C2134 1.415 . S
C2136 C2141 1.425 1_565 S
C2136 C2143 1.409 . S
C2137 H2129 0.930 . S
C2137 C2135 1.389 1_545 S
C2137 C2138 1.362 . S
C2138 H2130 0.930 . S
C2138 C2137 1.362 . S
C2138 C2141 1.409 . S
C2139 H2131 0.930 . S
C2139 C2140 1.377 . S
C2139 C2141 1.415 . S
C2140 C2139 1.377 . S
C2140 C2142 1.389 1_545 S
C2141 C2136 1.425 1_545 S
C2141 C2138 1.409 . S
C2141 C2139 1.415 . S
C2142 H2132 0.930 . S
C2142 C2140 1.389 1_565 S
C2142 C2143 1.362 . S
C2143 H2133 0.930 . S
C2143 C2136 1.409 . S
C2143 C2142 1.362 . S
H2144 C2150 0.930 . S
H2145 C2153 0.930 . S
H2146 C2154 0.930 . S
H2147 C2155 0.930 . S
H2148 C2158 0.930 . S
H2149 C2159 0.930 . S
C2150 H2144 0.930 . S
C2150 C2151 1.355 . S
C2150 C2152 1.415 . S
C2151 C2150 1.355 . S
C2151 C2153 1.419 . S
C2152 C2150 1.415 . S
C2152 C2157 1.425 1_455 S
C2152 C2159 1.409 1_455 S
C2153 H2145 0.930 . S
C2153 C2151 1.419 . S
C2153 C2154 1.362 . S
C2154 H2146 0.930 . S
C2154 C2153 1.362 . S
C2154 C2157 1.409 1_455 S
C2155 H2147 0.930 . S
C2155 C2156 1.355 . S
C2155 C2157 1.415 . S
C2156 C2155 1.355 . S
C2156 C2158 1.419 . S
C2157 C2152 1.425 1_655 S
C2157 C2154 1.409 1_655 S
C2157 C2155 1.415 . S
C2158 H2148 0.930 . S
C2158 C2156 1.419 . S
C2158 C2159 1.362 . S
C2159 H2149 0.930 . S
C2159 C2152 1.409 1_655 S
C2159 C2158 1.362 . S
H2160 C2166 0.930 . S
H2161 C2169 0.930 . S
H2162 C2170 0.930 . S
H2163 C2171 0.930 . S
H2164 C2174 0.930 . S
H2165 C2175 0.930 . S
C2166 H2160 0.930 . S
C2166 C2167 1.355 1_545 S
C2166 C2168 1.415 . S
C2167 C2166 1.355 1_565 S
C2167 C2169 1.419 . S
C2168 C2166 1.415 . S
C2168 C2173 1.425 1_445 S
C2168 C2175 1.409 1_455 S
C2169 H2161 0.930 . S
C2169 C2167 1.419 . S
C2169 C2170 1.362 . S
C2170 H2162 0.930 . S
C2170 C2169 1.362 . S
C2170 C2173 1.409 1_455 S
C2171 H2163 0.930 . S
C2171 C2172 1.355 1_565 S
C2171 C2173 1.415 . S
C2172 C2171 1.355 1_545 S
C2172 C2174 1.419 . S
C2173 C2168 1.425 1_665 S
C2173 C2170 1.409 1_655 S
C2173 C2171 1.415 . S
C2174 H2164 0.930 . S
C2174 C2172 1.419 . S
C2174 C2175 1.362 . S
C2175 H2165 0.930 . S
C2175 C2168 1.409 1_655 S
C2175 C2174 1.362 . S
H2176 C2182 0.930 . S
H2177 C2185 0.930 . S
H2178 C2186 0.930 . S
H2179 C2187 0.930 . S
H2180 C2190 0.930 . S
H2181 C2191 0.930 . S
C2182 H2176 0.930 . S
C2182 C2183 1.355 1_455 S
C2182 C2184 1.415 . S
C2183 C2182 1.355 1_655 S
C2183 C2185 1.419 . S
C2184 C2182 1.415 . S
C2184 C2189 1.425 1_456 S
C2184 C2191 1.409 1_556 S
C2185 H2177 0.930 . S
C2185 C2183 1.419 . S
C2185 C2186 1.362 . S
C2186 H2178 0.930 . S
C2186 C2185 1.362 . S
C2186 C2189 1.409 1_556 S
C2187 H2179 0.930 . S
C2187 C2188 1.355 1_655 S
C2187 C2189 1.415 . S
C2188 C2187 1.355 1_455 S
C2188 C2190 1.419 . S
C2189 C2184 1.425 1_654 S
C2189 C2186 1.409 1_554 S
C2189 C2187 1.415 . S
C2190 H2180 0.930 . S
C2190 C2188 1.419 . S
C2190 C2191 1.362 . S
C2191 H2181 0.930 . S
C2191 C2184 1.409 1_554 S
C2191 C2190 1.362 . S
H2192 C2198 0.930 . S
H2193 C2201 0.930 . S
H2194 C2202 0.930 . S
H2195 C2203 0.930 . S
H2196 C2206 0.930 . S
H2197 C2207 0.930 . S
C2198 H2192 0.930 . S
C2198 C2199 1.379 . S
C2198 C2200 1.415 . S
C2199 C2198 1.379 . S
C2199 C2201 1.386 1_655 S
C2200 C2198 1.415 . S
C2200 C2205 1.425 1_655 S
C2200 C2207 1.409 . S
C2201 H2193 0.930 . S
C2201 C2199 1.386 1_455 S
C2201 C2202 1.362 . S
C2202 H2194 0.930 . S
C2202 C2201 1.362 . S
C2202 C2205 1.409 . S
C2203 H2195 0.930 . S
C2203 C2204 1.379 . S
C2203 C2205 1.415 . S
C2204 C2203 1.379 . S
C2204 C2206 1.386 1_455 S
C2205 C2200 1.425 1_455 S
C2205 C2202 1.409 . S
C2205 C2203 1.415 . S
C2206 H2196 0.930 . S
C2206 C2204 1.386 1_655 S
C2206 C2207 1.362 . S
C2207 H2197 0.930 . S
C2207 C2200 1.409 . S
C2207 C2206 1.362 . S
C679 C386 0.931 . S
C684 C8 0.913 . S
C695 C23 0.917 . S
C700 C541 0.915 . S
C711 C36 0.923 . S
C716 C358 0.954 . S
C727 C569 0.969 . S
C732 C51 0.934 . S
C743 C401 0.959 . S
C748 C65 0.926 . S
C759 C78 0.966 . S
C764 C316 0.931 . S
C775 C429 0.936 . S
C780 C93 0.914 . S
C791 C106 0.927 . S
C796 C288 0.960 . S
C807 C498 0.984 . S
C812 C107 0.947 . S
C823 C471 1.018 . S
C828 C64 1.008 . S
C839 C79 0.913 . S
C844 C596 0.932 . S
C855 C484 1.014 . S
C860 C92 0.990 . S
C871 C120 0.929 . S
C876 C190 0.913 . S
C887 C205 0.915 . S
C892 C135 0.917 . S
C903 C219 0.951 . S
C908 C148 0.988 . S
C919 C177 0.937 . S
C924 C163 0.973 . S
C935 C191 0.986 . S
C940 C344 1.012 . S
C951 C204 1.009 . S
C956 C555 1.018 . S
C967 C372 0.916 . S
C972 C218 0.917 . S
C983 C387 0.918 . S
C988 C232 0.914 . S
C999 C247 1.007 . S
C1004 C415 1.018 . S
C1015 C261 1.018 . S
C1020 C50 1.009 . S
C1031 C274 0.965 . S
C1036 C22 1.000 . S
C1047 C625 1.007 . S
C1052 C303 0.977 . S
C1063 C653 1.001 . S
C1068 C331 0.967 . S
C1079 C345 0.917 . S
C1084 C121 0.942 . S
C1095 C373 1.018 . S
C1100 C149 1.001 . S
C1111 C359 0.916 . S
C1116 C610 0.916 . S
C1127 C470 0.926 . S
C1132 C400 0.913 . S
C1143 C485 0.939 . S
C1148 C428 0.915 . S
C1159 C457 0.916 . S
C1164 C443 0.916 . S
C1175 C246 1.016 . S
C1180 C639 1.014 . S
C1191 C513 1.014 . S
C1196 C330 1.016 . S
C1207 C302 0.935 . S
C1212 C526 0.971 . S
C1223 C666 0.914 . S
C1228 C442 0.934 . S
C1239 C414 1.018 . S
C1244 C638 1.006 . S
C1255 C134 0.918 . S
C1260 C554 0.945 . S
C1271 C162 0.991 . S
C1276 C582 1.015 . S
C1287 C176 1.017 . S
C1292 C583 0.997 . S
C1303 C275 0.914 . S
C1308 C540 0.934 . S
C1319 C260 0.925 . S
C1324 C568 0.913 . S
C1335 C317 0.940 . S
C1340 C597 0.916 . S
C1351 C289 1.010 . S
C1356 C499 0.981 . S
C1367 C624 0.966 . S
C1372 C527 0.931 . S
C1383 C652 0.992 . S
C1388 C512 0.956 . S
C1399 C667 0.985 . S
C1404 C456 0.948 . S
C1415 C611 1.011 . S
C1420 C37 1.018 . S
C1431 C233 0.920 . S
C1436 C9 0.950 . S
C1447 C6 1.586 . S
C1452 C651 1.522 . S
C1463 C21 1.515 . S
C1468 C664 1.487 . S
C1479 C34 1.529 . S
C1484 C623 1.482 . S
C1495 C49 1.572 1_554 S
C1500 C636 1.567 1_556 S
C1511 C63 1.534 . S
C1516 C132 1.481 . S
C1527 C76 1.482 1_556 S
C1532 C147 1.531 1_554 S
C1543 C91 1.578 . S
C1548 C160 1.501 . S
C1559 C104 1.575 . S
C1564 C119 1.564 . S
C1575 C105 1.573 . S
C1580 C553 1.567 . S
C1591 C62 1.585 . S
C1596 C370 1.518 . S
C1607 C77 1.496 . S
C1612 C581 1.501 . S
C1623 C90 1.586 1_565 S
C1628 C342 1.535 1_545 S
C1639 C118 1.520 . S
C1644 C328 1.485 . S
C1655 C133 1.571 . S
C1660 C441 1.569 . S
C1671 C146 1.574 . S
C1676 C300 1.565 . S
C1687 C413 1.505 1_545 S
C1692 C161 1.487 1_565 S
C1703 C175 1.489 . S
C1708 C273 1.511 . S
C1719 C189 1.486 . S
C1724 C231 1.561 . S
C1735 C272 1.491 . S
C1740 C202 1.569 . S
C1751 C609 1.481 . S
C1756 C216 1.541 . S
C1767 C217 1.565 1_455 S
C1772 C230 1.489 1_655 S
C1783 C510 1.561 . S
C1788 C245 1.578 . S
C1799 C174 1.500 . S
C1804 C259 1.576 . S
C1815 C567 1.578 . S
C1820 C286 1.503 . S
C1831 C580 1.493 1_556 S
C1836 C301 1.571 1_554 S
C1847 C314 1.526 . S
C1852 C539 1.586 . S
C1863 C552 1.517 . S
C1868 C329 1.585 . S
C1879 C343 1.530 . S
C1884 C412 1.586 . S
C1895 C427 1.532 . S
C1900 C356 1.586 . S
C1911 C371 1.485 . S
C1916 C440 1.557 . S
C1927 C399 1.523 1_554 S
C1932 C384 1.586 1_556 S
C1943 C385 1.502 . S
C1948 C637 1.578 . S
C1959 C665 1.500 . S
C1964 C357 1.577 . S
C1975 C398 1.577 . S
C1980 C48 1.501 . S
C1991 C20 1.491 . S
C1996 C426 1.508 . S
C2007 C525 1.490 . S
C2012 C455 1.567 . S
C2023 C497 1.586 . S
C2028 C469 1.540 . S
C2039 C244 1.506 . S
C2044 C524 1.493 . S
C2055 C482 1.489 . S
C2060 C595 1.511 . S
C2071 C496 1.481 1_655 S
C2076 C483 1.542 1_455 S
C2087 C203 1.584 . S
C2092 C258 1.515 . S
C2103 C454 1.492 . S
C2108 C511 1.506 . S
C2119 C650 1.586 . S
C2124 C538 1.535 . S
C2135 C566 1.489 1_565 S
C2140 C622 1.502 1_545 S
C2151 C7 1.586 . S
C2156 C315 1.536 . S
C2167 C287 1.584 1_565 S
C2172 C35 1.546 1_545 S
C2183 C468 1.544 1_655 S
C2188 C594 1.585 1_455 S
C2199 C188 1.486 1_655 S
C2204 C608 1.506 1_455 S
