# Generated by pormake.
# Topology uou, (4)-cn, num edge types: 1
# Building blocks:
#     Node 0, Type 0, BuildingBlock: QUQFOY_clean_sbu_3, # of connection points: 4
#     Node 1, Type 0, BuildingBlock: QUQFOY_clean_sbu_3, # of connection points: 4
#     Node 2, Type 0, BuildingBlock: QUQFOY_clean_sbu_3, # of connection points: 4
#     Node 3, Type 0, BuildingBlock: QUQFOY_clean_sbu_3, # of connection points: 4
#     Node 4, Type 0, BuildingBlock: QUQFOY_clean_sbu_3, # of connection points: 4
#     Node 5, Type 0, BuildingBlock: QUQFOY_clean_sbu_3, # of connection points: 4
#     Node 6, Type 0, BuildingBlock: QUQFOY_clean_sbu_3, # of connection points: 4
#     Node 7, Type 0, BuildingBlock: QUQFOY_clean_sbu_3, # of connection points: 4
#     Node 8, Type 0, BuildingBlock: QUQFOY_clean_sbu_3, # of connection points: 4
#     Node 9, Type 0, BuildingBlock: QUQFOY_clean_sbu_3, # of connection points: 4
#     Node 10, Type 0, BuildingBlock: QUQFOY_clean_sbu_3, # of connection points: 4
#     Node 11, Type 0, BuildingBlock: QUQFOY_clean_sbu_3, # of connection points: 4
#     Node 12, Type 0, BuildingBlock: QUQFOY_clean_sbu_3, # of connection points: 4
#     Node 13, Type 0, BuildingBlock: QUQFOY_clean_sbu_3, # of connection points: 4
#     Node 14, Type 0, BuildingBlock: QUQFOY_clean_sbu_3, # of connection points: 4
#     Node 15, Type 0, BuildingBlock: QUQFOY_clean_sbu_3, # of connection points: 4
#     Edge 16, Type (0, 0), BuildingBlock: UVAHIK_clean_linker_0, # of connection points: 2
#     Edge 17, Type (0, 0), BuildingBlock: UVAHIK_clean_linker_0, # of connection points: 2
#     Edge 18, Type (0, 0), BuildingBlock: UVAHIK_clean_linker_0, # of connection points: 2
#     Edge 19, Type (0, 0), BuildingBlock: UVAHIK_clean_linker_0, # of connection points: 2
#     Edge 20, Type (0, 0), BuildingBlock: UVAHIK_clean_linker_0, # of connection points: 2
#     Edge 21, Type (0, 0), BuildingBlock: UVAHIK_clean_linker_0, # of connection points: 2
#     Edge 22, Type (0, 0), BuildingBlock: UVAHIK_clean_linker_0, # of connection points: 2
#     Edge 23, Type (0, 0), BuildingBlock: UVAHIK_clean_linker_0, # of connection points: 2
#     Edge 24, Type (0, 0), BuildingBlock: UVAHIK_clean_linker_0, # of connection points: 2
#     Edge 25, Type (0, 0), BuildingBlock: UVAHIK_clean_linker_0, # of connection points: 2
#     Edge 26, Type (0, 0), BuildingBlock: UVAHIK_clean_linker_0, # of connection points: 2
#     Edge 27, Type (0, 0), BuildingBlock: UVAHIK_clean_linker_0, # of connection points: 2
#     Edge 28, Type (0, 0), BuildingBlock: UVAHIK_clean_linker_0, # of connection points: 2
#     Edge 29, Type (0, 0), BuildingBlock: UVAHIK_clean_linker_0, # of connection points: 2
#     Edge 30, Type (0, 0), BuildingBlock: UVAHIK_clean_linker_0, # of connection points: 2
#     Edge 31, Type (0, 0), BuildingBlock: UVAHIK_clean_linker_0, # of connection points: 2
#     Edge 32, Type (0, 0), BuildingBlock: UVAHIK_clean_linker_0, # of connection points: 2
#     Edge 33, Type (0, 0), BuildingBlock: UVAHIK_clean_linker_0, # of connection points: 2
#     Edge 34, Type (0, 0), BuildingBlock: UVAHIK_clean_linker_0, # of connection points: 2
#     Edge 35, Type (0, 0), BuildingBlock: UVAHIK_clean_linker_0, # of connection points: 2
#     Edge 36, Type (0, 0), BuildingBlock: UVAHIK_clean_linker_0, # of connection points: 2
#     Edge 37, Type (0, 0), BuildingBlock: UVAHIK_clean_linker_0, # of connection points: 2
#     Edge 38, Type (0, 0), BuildingBlock: UVAHIK_clean_linker_0, # of connection points: 2
#     Edge 39, Type (0, 0), BuildingBlock: UVAHIK_clean_linker_0, # of connection points: 2
#     Edge 40, Type (0, 0), BuildingBlock: UVAHIK_clean_linker_0, # of connection points: 2
#     Edge 41, Type (0, 0), BuildingBlock: UVAHIK_clean_linker_0, # of connection points: 2
#     Edge 42, Type (0, 0), BuildingBlock: UVAHIK_clean_linker_0, # of connection points: 2
#     Edge 43, Type (0, 0), BuildingBlock: UVAHIK_clean_linker_0, # of connection points: 2
#     Edge 44, Type (0, 0), BuildingBlock: UVAHIK_clean_linker_0, # of connection points: 2
#     Edge 45, Type (0, 0), BuildingBlock: UVAHIK_clean_linker_0, # of connection points: 2
#     Edge 46, Type (0, 0), BuildingBlock: UVAHIK_clean_linker_0, # of connection points: 2
#     Edge 47, Type (0, 0), BuildingBlock: UVAHIK_clean_linker_0, # of connection points: 2
# Relax obj value: 0.038
# Max RMSD: 0.067
# Mean RMSD: 0.067
data_MOF--net-uou--node1-QUQFOY_clean_sbu_3--edge1-UVAHIK_clean_linker_0
_symmetry_space_group_name_H-M    P1
_symmetry_Int_Tables_number       1
_symmetry_cell_setting            triclinic
loop_
_symmetry_equiv_pos_as_xyz
'x, y, z'
_cell_length_a     51.063287
_cell_length_b     51.475495
_cell_length_c     72.162936
_cell_angle_alpha  89.958456
_cell_angle_beta   90.038759
_cell_angle_gamma 89.992605
loop_
_atom_site_label
_atom_site_type_symbol
_atom_site_fract_x
_atom_site_fract_y
_atom_site_fract_z
_atom_type_partial_charge
C0 C 0.00988 0.02774 0.13205 0.0
O1 O -0.00704 0.02831 0.11915 0.0
Cd2 Cd 0.0028 0.04594 0.0894 0.0
O3 O 0.03306 0.03611 0.12935 0.0
Cd4 Cd 0.06207 0.05421 0.10516 0.0
C5 C 0.02335 0.10761 0.10221 0.0
O6 O 0.04394 0.02677 0.08172 0.0
O7 O 0.0704 0.05598 0.07145 0.0
O8 O 0.09391 0.02455 0.11818 0.0
C9 C 0.05605 0.03644 0.06809 0.0
O10 O 0.0064 0.09262 0.0949 0.0
C11 C 0.11286 0.04046 0.11855 0.0
O12 O 0.04531 0.09878 0.10784 0.0
O13 O 0.10812 0.06349 0.11312 0.0
C14 C 0.47722 0.96953 0.13992 0.0
O15 O 0.4965 0.96811 0.12886 0.0
Cd16 Cd 0.49218 0.94943 0.09869 0.0
O17 O 0.45475 0.96096 0.13528 0.0
Cd18 Cd 0.43055 0.9409 0.10949 0.0
C19 C 0.47042 0.88792 0.11044 0.0
O20 O 0.45228 0.96733 0.08701 0.0
O21 O 0.4272 0.9378 0.07548 0.0
O22 O 0.39582 0.97037 0.11828 0.0
C23 C 0.44231 0.95698 0.07278 0.0
O24 O 0.48837 0.90282 0.10432 0.0
C25 C 0.37778 0.95349 0.11902 0.0
O26 O 0.44769 0.89675 0.11417 0.0
O27 O 0.38424 0.93014 0.11549 0.0
C28 C 0.51473 0.96154 0.33032 0.0
O29 O 0.49541 0.96047 0.34137 0.0
Cd30 Cd 0.49767 0.94294 0.37179 0.0
O31 O 0.53731 0.95342 0.33523 0.0
Cd32 Cd 0.56053 0.93549 0.36261 0.0
C33 C 0.52202 0.88151 0.36195 0.0
O34 O 0.53649 0.96266 0.38309 0.0
O35 O 0.56085 0.93475 0.39704 0.0
O36 O 0.5954 0.96507 0.35412 0.0
C37 C 0.54512 0.95376 0.39819 0.0
O38 O 0.50337 0.89623 0.36717 0.0
C39 C 0.61389 0.94871 0.35535 0.0
O40 O 0.54474 0.89072 0.35866 0.0
O41 O 0.60759 0.92556 0.35962 0.0
C42 C 0.9734 0.02986 0.32181 0.0
O43 O -0.00518 0.03163 0.33067 0.0
Cd44 Cd -0.00237 0.04916 0.36122 0.0
O45 O 0.95193 0.03709 0.32915 0.0
Cd46 Cd 0.93399 0.05422 0.35841 0.0
C47 C 0.96973 0.10968 0.35417 0.0
O48 O 0.96269 0.02856 0.37738 0.0
O49 O 0.93939 0.05646 0.39231 0.0
O50 O 0.89954 0.02261 0.3539 0.0
C51 C 0.95606 0.0382 0.39279 0.0
O52 O 0.98971 0.09564 0.35756 0.0
C53 C 0.88055 0.03834 0.35537 0.0
O54 O 0.94696 0.09961 0.35295 0.0
O55 O 0.88628 0.06205 0.35825 0.0
C56 C 0.97045 0.97019 0.82205 0.0
O57 O 0.99176 0.96956 0.83112 0.0
Cd58 Cd -0.00504 0.95249 0.86182 0.0
O59 O 0.94918 0.96212 0.82926 0.0
Cd60 Cd 0.93121 0.94475 0.85845 0.0
C61 C 0.96937 0.89085 0.8547 0.0
O62 O 0.95874 0.97116 0.87766 0.0
O63 O 0.93626 0.94233 0.89233 0.0
O64 O 0.8958 0.97519 0.85365 0.0
C65 C 0.95244 0.96101 0.89298 0.0
O66 O 0.98869 0.90575 0.85818 0.0
C67 C 0.87734 0.95884 0.85508 0.0
O68 O 0.94619 0.89991 0.85328 0.0
O69 O 0.88383 0.93533 0.85803 0.0
C70 C 0.51218 0.02446 0.82531 0.0
O71 O 0.49166 0.02541 0.83522 0.0
Cd72 Cd 0.49126 0.04392 0.86554 0.0
O73 O 0.5339 0.03325 0.83133 0.0
Cd74 Cd 0.55394 0.05293 0.85907 0.0
C75 C 0.51415 0.10571 0.85563 0.0
O76 O 0.52928 0.02631 0.88001 0.0
O77 O 0.55213 0.05637 0.89306 0.0
O78 O 0.58998 0.02364 0.85302 0.0
C79 C 0.53695 0.03702 0.89481 0.0
O80 O 0.49561 0.0906 0.86047 0.0
C81 C 0.60796 0.04059 0.85385 0.0
O82 O 0.53734 0.09707 0.85334 0.0
O83 O 0.60086 0.06389 0.85688 0.0
C84 C 0.47381 0.03096 0.63548 0.0
O85 O 0.4917 0.03196 0.62329 0.0
Cd86 Cd 0.48483 0.04885 0.59299 0.0
O87 O 0.45067 0.03886 0.63191 0.0
Cd88 Cd 0.42359 0.05647 0.60631 0.0
C89 C 0.46199 0.11043 0.60394 0.0
O90 O 0.44458 0.02882 0.58457 0.0
O91 O 0.41832 0.05639 0.57206 0.0
O92 O 0.3902 0.02703 0.61755 0.0
C93 C 0.43375 0.03729 0.57005 0.0
O94 O 0.4799 0.09564 0.59763 0.0
C95 C 0.37164 0.04339 0.61765 0.0
O96 O 0.4398 0.10127 0.60874 0.0
O97 O 0.37725 0.06648 0.61279 0.0
C98 C 0.00635 0.95765 0.63225 0.0
O99 O 0.98905 0.95557 0.61969 0.0
Cd100 Cd -0.00113 0.93737 0.59016 0.0
O101 O 0.02987 0.95041 0.62932 0.0
Cd102 Cd 0.05878 0.93273 0.6049 0.0
C103 C 0.02281 0.8773 0.60363 0.0
O104 O 0.03847 0.95895 0.58162 0.0
O105 O 0.06612 0.93113 0.57099 0.0
O106 O 0.08975 0.96398 0.61709 0.0
C107 C 0.05076 0.94999 0.56785 0.0
O108 O 0.00484 0.89109 0.59632 0.0
C109 C 0.10935 0.94887 0.61739 0.0
O110 O 0.04442 0.8875 0.60868 0.0
O111 O 0.10544 0.92556 0.61226 0.0
C112 C 0.51002 0.53212 0.13806 0.0
O113 O 0.48987 0.53477 0.12791 0.0
Cd114 Cd 0.49231 0.55342 0.09766 0.0
O115 O 0.5325 0.53926 0.13234 0.0
Cd116 Cd 0.55522 0.55755 0.1052 0.0
C117 C 0.51957 0.6132 0.10819 0.0
O118 O 0.52935 0.53247 0.08415 0.0
O119 O 0.55524 0.55996 0.07104 0.0
O120 O 0.58813 0.52549 0.11276 0.0
C121 C 0.5386 0.54182 0.06933 0.0
O122 O 0.50004 0.59957 0.10308 0.0
C123 C 0.6076 0.54074 0.1122 0.0
O124 O 0.54198 0.60282 0.11069 0.0
O125 O 0.60285 0.56445 0.10853 0.0
C126 C 0.97182 0.46045 0.13636 0.0
O127 O 0.99084 0.45982 0.12503 0.0
Cd128 Cd 0.98743 0.44285 0.09449 0.0
O129 O 0.9492 0.45221 0.1317 0.0
Cd130 Cd 0.92499 0.43461 0.10476 0.0
C131 C 0.96402 0.38101 0.10415 0.0
O132 O 0.94795 0.46254 0.08417 0.0
O133 O 0.92276 0.43519 0.07041 0.0
O134 O 0.89058 0.46375 0.11467 0.0
C135 C 0.93845 0.45421 0.06917 0.0
O136 O 0.98238 0.39602 0.09882 0.0
C137 C 0.87205 0.44742 0.11362 0.0
O138 O 0.9413 0.38992 0.10783 0.0
O139 O 0.87813 0.42445 0.10879 0.0
C140 C 0.00812 0.46645 0.32681 0.0
O141 O 0.98854 0.46474 0.33758 0.0
Cd142 Cd 0.9923 0.44629 0.36786 0.0
O143 O 0.03061 0.45836 0.33182 0.0
Cd144 Cd 0.05473 0.43912 0.35797 0.0
C145 C 0.01619 0.38524 0.35655 0.0
O146 O 0.03147 0.46516 0.37983 0.0
O147 O 0.0571 0.43666 0.39207 0.0
O148 O 0.08808 0.46983 0.34885 0.0
C149 C 0.04123 0.45534 0.39433 0.0
O150 O -0.00222 0.39982 0.36238 0.0
C151 C 0.10712 0.45403 0.34914 0.0
O152 O 0.03883 0.39452 0.35309 0.0
O153 O 0.10187 0.43059 0.35333 0.0
C154 C 0.47333 0.528 0.32847 0.0
O155 O 0.49195 0.5282 0.34015 0.0
Cd156 Cd 0.48775 0.54523 0.37065 0.0
O157 O 0.45071 0.53661 0.33276 0.0
Cd158 Cd 0.42569 0.5545 0.3592 0.0
C159 C 0.46557 0.60744 0.36034 0.0
O160 O 0.44753 0.52677 0.38054 0.0
O161 O 0.42268 0.55516 0.3935 0.0
O162 O 0.39119 0.52543 0.34932 0.0
C163 C 0.43799 0.53592 0.39529 0.0
O164 O 0.48342 0.59212 0.3661 0.0
C165 C 0.37292 0.54211 0.34955 0.0
O166 O 0.44284 0.59892 0.35619 0.0
O167 O 0.37919 0.56521 0.35397 0.0
C168 C 0.46768 0.46084 0.82528 0.0
O169 O 0.4881 0.459 0.83525 0.0
Cd170 Cd 0.48725 0.44086 0.86571 0.0
O171 O 0.44555 0.45313 0.83129 0.0
Cd172 Cd 0.42414 0.43465 0.85889 0.0
C173 C 0.4616 0.38007 0.85615 0.0
O174 O 0.44981 0.46067 0.87947 0.0
O175 O 0.42502 0.43266 0.89306 0.0
O176 O 0.38979 0.46547 0.85191 0.0
C177 C 0.44129 0.45118 0.89445 0.0
O178 O 0.48081 0.39437 0.86095 0.0
C179 C 0.37099 0.44941 0.85247 0.0
O180 O 0.43886 0.38974 0.85372 0.0
O181 O 0.3768 0.42587 0.8559 0.0
C182 C 0.00644 0.53451 0.8293 0.0
O183 O 0.98766 0.53661 0.84073 0.0
Cd184 Cd -0.00763 0.55527 0.87068 0.0
O185 O 0.02944 0.54216 0.83352 0.0
Cd186 Cd 0.055 0.56059 0.85956 0.0
C187 C 0.01798 0.61556 0.8588 0.0
O188 O 0.03135 0.53484 0.88109 0.0
O189 O 0.05774 0.56194 0.89395 0.0
O190 O 0.0877 0.52947 0.84981 0.0
C191 C 0.04133 0.54363 0.8958 0.0
O192 O -0.00071 0.60155 0.86489 0.0
C193 C 0.1071 0.54479 0.85061 0.0
O194 O 0.04023 0.6056 0.85504 0.0
O195 O 0.10233 0.56817 0.8552 0.0
C196 C 0.97236 0.52192 0.6399 0.0
O197 O -0.0075 0.52301 0.62961 0.0
Cd198 Cd 0.99119 0.54159 0.59926 0.0
O199 O 0.9504 0.53075 0.63436 0.0
Cd200 Cd 0.92828 0.55076 0.60762 0.0
C201 C 0.96859 0.60343 0.60964 0.0
O202 O 0.95195 0.52433 0.58629 0.0
O203 O 0.92742 0.55332 0.5735 0.0
O204 O 0.893 0.52129 0.61508 0.0
C205 C 0.94321 0.53448 0.57158 0.0
O206 O 0.98693 0.58826 0.60452 0.0
C207 C 0.87495 0.53819 0.61538 0.0
O208 O 0.94546 0.59489 0.61242 0.0
O209 O 0.88162 0.56157 0.61215 0.0
C210 C 0.50702 0.46354 0.63514 0.0
O211 O 0.48908 0.46312 0.62295 0.0
Cd212 Cd 0.49567 0.44641 0.59259 0.0
O213 O 0.53003 0.45541 0.63144 0.0
Cd214 Cd 0.55699 0.43825 0.6057 0.0
C215 C 0.51837 0.38459 0.60355 0.0
O216 O 0.53597 0.46602 0.58393 0.0
O217 O 0.56191 0.4381 0.57152 0.0
O218 O 0.58984 0.46785 0.61742 0.0
C219 C 0.54658 0.45727 0.56943 0.0
O220 O 0.50059 0.39963 0.59733 0.0
C221 C 0.60883 0.45202 0.61683 0.0
O222 O 0.54073 0.39346 0.60828 0.0
O223 O 0.6037 0.42905 0.61145 0.0
C224 C 0.34387 0.98753 0.12453 0.0
C225 C 0.35048 0.9611 0.12313 0.0
C226 C 0.31794 0.99512 0.1273 0.0
C227 C 0.25043 0.97141 0.12075 0.0
H228 H 0.23271 0.03338 0.14864 0.0
C229 C 0.14394 0.00556 0.12829 0.0
C230 C 0.13947 0.03178 0.12379 0.0
C231 C 0.16934 -0.00358 0.13118 0.0
C232 C 0.23741 0.01607 0.14079 0.0
H233 H 0.33522 0.92185 0.1242 0.0
H234 H 0.28988 0.93506 0.12947 0.0
H235 H 0.2778 0.01753 0.14861 0.0
H236 H 0.15802 0.06922 0.1197 0.0
H237 H 0.20254 0.0532 0.12481 0.0
H238 H 0.21007 0.97003 0.11288 0.0
C239 C 0.30471 0.94996 0.12801 0.0
C240 C 0.26322 0.007 0.14072 0.0
C241 C 0.33069 0.94236 0.12509 0.0
C242 C 0.16085 0.04892 0.12311 0.0
C243 C 0.18631 0.03977 0.12611 0.0
C244 C 0.22462 0.98034 0.12096 0.0
C245 C 0.29796 0.97647 0.12889 0.0
C246 C 0.27014 0.98479 0.13044 0.0
C247 C 0.19083 0.0133 0.12974 0.0
C248 C 0.2179 0.00296 0.13076 0.0
H249 H 0.35865 0.00248 0.12303 0.0
H250 H 0.31349 0.01568 0.12758 0.0
H251 H 0.25505 0.95454 0.11242 0.0
H252 H 0.12787 0.99186 0.12904 0.0
H253 H 0.17221 0.976 0.13422 0.0
C254 C 0.66192 0.9386 0.35366 0.0
C255 C 0.64145 0.95678 0.3528 0.0
C256 C 0.688 0.94675 0.35237 0.0
C257 C 0.72967 0.00301 0.33868 0.0
H258 H 0.77999 0.97102 0.37185 0.0
C259 C 0.83212 0.04666 0.35383 0.0
C260 C 0.8532 0.02911 0.35399 0.0
C261 C 0.80634 0.03756 0.35266 0.0
C262 C 0.76621 0.97998 0.36238 0.0
H263 H 0.63223 -0.00231 0.3496 0.0
H264 H 0.67749 0.0119 0.34778 0.0
H265 H 0.73506 0.95517 0.37121 0.0
H266 H 0.86378 0.98828 0.35297 0.0
H267 H 0.81891 0.97251 0.35106 0.0
H268 H 0.76086 0.02821 0.3302 0.0
C269 C 0.67355 0.99131 0.34909 0.0
C270 C 0.74047 0.97083 0.36194 0.0
C271 C 0.64755 0.98316 0.35025 0.0
C272 C 0.84798 0.00233 0.35291 0.0
C273 C 0.82228 0.99326 0.35191 0.0
C274 C 0.75538 0.0123 0.33923 0.0
C275 C 0.69414 0.97326 0.35031 0.0
C276 C 0.72183 0.98228 0.35013 0.0
C277 C 0.80118 0.01074 0.35182 0.0
C278 C 0.77389 0.00091 0.35112 0.0
H279 H 0.65783 0.91812 0.35553 0.0
H280 H 0.70336 0.93227 0.35306 0.0
H281 H 0.71596 0.01203 0.32919 0.0
H282 H 0.83553 0.06739 0.35462 0.0
H283 H 0.79043 0.05147 0.35277 0.0
C284 C 0.84361 0.99371 0.85206 0.0
C285 C 0.8497 0.96716 0.85361 0.0
C286 C 0.81762 0.00194 0.85107 0.0
C287 C 0.75113 0.98024 0.83943 0.0
H288 H 0.72959 0.03828 0.87011 0.0
C289 C 0.64266 0.00676 0.85045 0.0
C290 C 0.63579 0.03311 0.85198 0.0
C291 C 0.66888 -0.00073 0.84956 0.0
C292 C 0.73533 0.02233 0.86122 0.0
H293 H 0.83328 0.92838 0.8551 0.0
H294 H 0.78767 0.94282 0.85329 0.0
H295 H 0.77501 0.02382 0.87074 0.0
H296 H 0.65105 0.07235 0.85332 0.0
H297 H 0.69698 0.05933 0.85138 0.0
H298 H 0.71152 0.97881 0.82981 0.0
C299 C 0.80313 0.95721 0.85279 0.0
C300 C 0.76135 0.01398 0.86164 0.0
C301 C 0.8292 0.94896 0.85392 0.0
C302 C 0.65574 0.05189 0.85223 0.0
C303 C 0.68204 0.0444 0.85124 0.0
C304 C 0.72512 0.9887 0.83891 0.0
C305 C 0.79709 0.98382 0.85149 0.0
C306 C 0.76949 0.99277 0.85083 0.0
C307 C 0.68893 0.01796 0.85005 0.0
C308 C 0.71686 0.00974 0.8499 0.0
H309 H 0.85895 0.00824 0.85174 0.0
H310 H 0.81359 0.02254 0.84984 0.0
H311 H 0.75693 0.96408 0.83075 0.0
H312 H 0.62776 0.99178 0.85029 0.0
H313 H 0.67343 0.97874 0.84895 0.0
C314 C 0.15758 0.94215 0.62226 0.0
C315 C 0.13568 0.95867 0.62232 0.0
C316 C 0.18271 0.95218 0.62521 0.0
C317 C 0.21954 0.01226 0.61887 0.0
H318 H 0.27269 0.97843 0.64871 0.0
C319 C 0.32421 0.05357 0.62323 0.0
C320 C 0.3446 0.03533 0.62222 0.0
C321 C 0.2984 0.04543 0.62618 0.0
C322 C 0.25813 0.98802 0.6402 0.0
H323 H 0.12284 -0.0015 0.62629 0.0
H324 H 0.16661 0.01591 0.63133 0.0
H325 H 0.22811 0.96123 0.64839 0.0
H326 H 0.35404 0.99429 0.62398 0.0
H327 H 0.30921 0.98009 0.62858 0.0
H328 H 0.24951 0.03841 0.61005 0.0
C329 C 0.16439 0.99527 0.62886 0.0
C330 C 0.23261 0.97818 0.64007 0.0
C331 C 0.13931 0.98524 0.62605 0.0
C332 C 0.33878 0.00888 0.62473 0.0
C333 C 0.31302 0.00072 0.62751 0.0
C334 C 0.24508 0.02194 0.61885 0.0
C335 C 0.18638 0.97894 0.62814 0.0
C336 C 0.21312 0.99008 0.62926 0.0
C337 C 0.29243 0.01884 0.62802 0.0
C338 C 0.2648 0.00978 0.62935 0.0
H339 H 0.1554 0.92159 0.61944 0.0
H340 H 0.19935 0.93917 0.62447 0.0
H341 H 0.205 0.02163 0.6102 0.0
H342 H 0.32812 0.07411 0.62147 0.0
H343 H 0.2831 0.05996 0.62682 0.0
C344 C 0.82413 0.43728 0.11637 0.0
C345 C 0.84465 0.45542 0.11694 0.0
C346 C 0.79812 0.44544 0.11824 0.0
C347 C 0.75697 0.50191 0.13253 0.0
H348 H 0.70606 0.47061 0.09951 0.0
C349 C 0.65604 0.54782 0.11559 0.0
C350 C 0.63448 0.53087 0.11513 0.0
C351 C 0.68145 0.53803 0.11763 0.0
C352 C 0.71999 0.47935 0.10896 0.0
H353 H 0.85405 0.49626 0.12033 0.0
H354 H 0.80893 0.5105 0.1231 0.0
H355 H 0.75071 0.45407 0.10011 0.0
H356 H 0.62263 0.49043 0.11679 0.0
H357 H 0.66688 0.47346 0.12021 0.0
H358 H 0.72622 0.52772 0.1409 0.0
C359 C 0.81276 0.48992 0.12159 0.0
C360 C 0.74557 0.4698 0.10938 0.0
C361 C 0.8387 0.48175 0.11987 0.0
C362 C 0.63881 0.50402 0.11703 0.0
C363 C 0.66416 0.49426 0.11891 0.0
C364 C 0.73141 0.51161 0.13197 0.0
C365 C 0.7921 0.47194 0.12059 0.0
C366 C 0.76446 0.48106 0.12107 0.0
C367 C 0.68576 0.51112 0.11907 0.0
C368 C 0.71271 0.50051 0.12011 0.0
H369 H 0.82811 0.41683 0.11424 0.0
H370 H 0.78272 0.431 0.1177 0.0
H371 H 0.77087 0.51078 0.14193 0.0
H372 H 0.65331 0.56859 0.11418 0.0
H373 H 0.69778 0.55146 0.11758 0.0
C374 C 0.3254 0.55299 0.34516 0.0
C375 C 0.34554 0.53443 0.34574 0.0
C376 C 0.29935 0.54523 0.34278 0.0
C377 C 0.25774 0.4887 0.3292 0.0
H378 H 0.20595 0.52309 0.35983 0.0
C379 C 0.15537 0.44573 0.3458 0.0
C380 C 0.13413 0.46309 0.34557 0.0
C381 C 0.18098 0.45492 0.34359 0.0
C382 C 0.22013 0.51348 0.35102 0.0
H383 H 0.35426 0.49325 0.3439 0.0
H384 H 0.30902 0.47973 0.34027 0.0
H385 H 0.2509 0.53874 0.35981 0.0
H386 H 0.12303 0.50355 0.34228 0.0
H387 H 0.1676 0.51945 0.33853 0.0
H388 H 0.2269 0.46291 0.32093 0.0
C389 C 0.31321 0.5003 0.34124 0.0
C390 C 0.2459 0.52252 0.35094 0.0
C391 C 0.3392 0.50806 0.34346 0.0
C392 C 0.13896 0.48966 0.34262 0.0
C393 C 0.16449 0.49883 0.34055 0.0
C394 C 0.23198 0.47952 0.32942 0.0
C395 C 0.2929 0.51873 0.34109 0.0
C396 C 0.2651 0.51014 0.34014 0.0
C397 C 0.1858 0.48162 0.34126 0.0
C398 C 0.21295 0.49174 0.34042 0.0
H399 H 0.3297 0.57347 0.34676 0.0
H400 H 0.28425 0.55999 0.34242 0.0
H401 H 0.27191 0.47895 0.32047 0.0
H402 H 0.15226 0.42515 0.34802 0.0
H403 H 0.19707 0.44123 0.34431 0.0
C404 C 0.15564 0.55202 0.84835 0.0
C405 C 0.13401 0.53521 0.84733 0.0
C406 C 0.18112 0.54228 0.84664 0.0
C407 C 0.21849 0.48252 0.85409 0.0
H408 H 0.27253 0.51689 0.82543 0.0
C409 C 0.32297 0.44027 0.84872 0.0
C410 C 0.34368 0.45816 0.84969 0.0
C411 C 0.29716 0.44894 0.84662 0.0
C412 C 0.25773 0.50718 0.83365 0.0
H413 H 0.1221 0.49515 0.84313 0.0
H414 H 0.16645 0.47827 0.84023 0.0
H415 H 0.22794 0.534 0.82511 0.0
H416 H 0.35362 0.49914 0.8491 0.0
H417 H 0.30879 0.51421 0.84596 0.0
H418 H 0.24823 0.45616 0.8631 0.0
C419 C 0.16374 0.4989 0.8425 0.0
C420 C 0.2322 0.51698 0.83342 0.0
C421 C 0.13834 0.50862 0.84407 0.0
C422 C 0.33811 0.48483 0.84833 0.0
C423 C 0.31237 0.49349 0.84638 0.0
C424 C 0.24404 0.47285 0.85446 0.0
C425 C 0.18541 0.51555 0.84403 0.0
C426 C 0.21236 0.50481 0.84371 0.0
C427 C 0.29153 0.47569 0.84559 0.0
C428 C 0.26404 0.48515 0.84434 0.0
H429 H 0.15292 0.57259 0.85084 0.0
H430 H 0.19748 0.55554 0.84798 0.0
H431 H 0.20366 0.47294 0.86237 0.0
H432 H 0.32668 0.41959 0.84962 0.0
H433 H 0.28163 0.43467 0.84579 0.0
C434 C 0.64066 0.4869 0.62523 0.0
C435 C 0.6358 0.46066 0.62106 0.0
C436 C 0.66625 0.4959 0.62744 0.0
C437 C 0.7343 0.47574 0.63618 0.0
H438 H 0.75185 0.53716 0.60759 0.0
C439 C 0.8408 0.50414 0.62 0.0
C440 C 0.84747 0.53057 0.61884 0.0
C441 C 0.81481 0.49655 0.62248 0.0
C442 C 0.74725 0.5203 0.61596 0.0
H443 H 0.6539 0.42305 0.61672 0.0
H444 H 0.69875 0.43882 0.62066 0.0
H445 H 0.70678 0.52185 0.60836 0.0
H446 H 0.83222 0.56983 0.61989 0.0
H447 H 0.78676 0.55661 0.62464 0.0
H448 H 0.77477 0.47415 0.64378 0.0
C449 C 0.68268 0.45238 0.62223 0.0
C450 C 0.7214 0.51147 0.61635 0.0
C451 C 0.65703 0.44338 0.6199 0.0
C452 C 0.82765 0.54931 0.62061 0.0
C453 C 0.80159 0.54171 0.62324 0.0
C454 C 0.76015 0.4847 0.63593 0.0
C455 C 0.68754 0.47884 0.62564 0.0
C456 C 0.71472 0.48893 0.62627 0.0
C457 C 0.79483 0.5152 0.62401 0.0
C458 C 0.76702 0.50688 0.62558 0.0
H459 H 0.62473 0.50071 0.62632 0.0
H460 H 0.6694 0.51631 0.63031 0.0
H461 H 0.72963 0.4585 0.64413 0.0
H462 H 0.8556 0.48919 0.61862 0.0
H463 H 0.81035 0.47599 0.62267 0.0
C464 C -0.00293 0.0144 0.29358 0.0
C465 C 0.97337 0.01979 0.30266 0.0
C466 C -0.00288 0.00673 0.27506 0.0
C467 C 0.9578 0.01472 0.23331 0.0
H468 H 0.01129 0.97031 0.21209 0.0
C469 C 0.97629 0.01271 0.15496 0.0
C470 C 0.0026 0.01778 0.15052 0.0
C471 C 0.96934 0.00538 0.17293 0.0
C472 C -0.00389 0.9826 0.21784 0.0
H473 H 0.93103 0.01989 0.29975 0.0
H474 H 0.93118 0.00631 0.26741 0.0
H475 H 0.0048 0.97085 0.24563 0.0
H476 H 0.0424 0.0177 0.16113 0.0
H477 H 0.03025 0.00518 0.19242 0.0
H478 H 0.94985 0.0273 0.20567 0.0
C479 C 0.94972 0.00844 0.27456 0.0
C480 C -0.00756 0.98296 0.237 0.0
C481 C 0.94966 0.01621 0.29308 0.0
C482 C 0.02192 0.01416 0.16414 0.0
C483 C 0.015 0.00668 0.18203 0.0
C484 C 0.96141 0.01428 0.21418 0.0
C485 C 0.97348 0.00417 0.26524 0.0
C486 C 0.97393 -0.00022 0.24497 0.0
C487 C 0.9886 0.00278 0.18671 0.0
C488 C 0.98126 -0.00104 0.20633 0.0
H489 H 0.01566 0.01688 0.30059 0.0
H490 H 0.01579 0.00397 0.26822 0.0
H491 H 0.94356 0.0281 0.23901 0.0
H492 H 0.96095 0.01518 0.14473 0.0
H493 H 0.94886 0.00233 0.17617 0.0
C494 C 0.50586 0.98111 0.16675 0.0
C495 C 0.48087 0.98022 0.15866 0.0
C496 C 0.50874 0.98796 0.18535 0.0
C497 C 0.47032 0.98473 0.22794 0.0
H498 H 0.53231 0.01568 0.24977 0.0
C499 C 0.48633 0.98204 0.30618 0.0
C500 C 0.51085 0.97211 0.3115 0.0
C501 C 0.48209 0.99044 0.28806 0.0
C502 C 0.51485 0.00709 0.24383 0.0
H503 H 0.43961 0.9881 0.16307 0.0
H504 H 0.4447 0.0007 0.19537 0.0
H505 H 0.52558 0.01818 0.21624 0.0
H506 H 0.55054 0.96444 0.30223 0.0
H507 H 0.54294 0.97862 0.27048 0.0
H508 H 0.45996 0.97287 0.25528 0.0
C509 C 0.46197 0.9953 0.18757 0.0
C510 C 0.51101 0.00849 0.22468 0.0
C511 C 0.45906 0.98812 0.16907 0.0
C512 C 0.53137 0.97183 0.29854 0.0
C513 C 0.52711 0.9802 0.2804 0.0
C514 C 0.47409 0.98345 0.24701 0.0
C515 C 0.48669 0.99433 0.19611 0.0
C516 C 0.48902 -0.00329 0.2165 0.0
C517 C 0.50226 0.98903 0.27489 0.0
C518 C 0.4967 0.99401 0.2551 0.0
H519 H 0.52303 0.97519 0.15902 0.0
H520 H 0.52803 0.98677 0.19154 0.0
H521 H 0.45341 0.975 0.22211 0.0
H522 H 0.47019 0.98286 0.3159 0.0
H523 H 0.46283 -0.00253 0.28423 0.0
C524 C 0.97289 0.9734 0.655 0.0
C525 C -0.00079 0.96838 0.65052 0.0
C526 C 0.96613 0.98197 0.67271 0.0
C527 C -0.00673 0.00886 0.71629 0.0
H528 H 0.94088 0.96542 0.73977 0.0
C529 C -0.00591 0.9845 0.7935 0.0
C530 C 0.9704 0.97944 0.80269 0.0
C531 C -0.00582 0.9907 0.77469 0.0
C532 C 0.95508 0.97825 0.7334 0.0
H533 H 0.03915 0.96963 0.66081 0.0
H534 H 0.02731 0.98426 0.6917 0.0
H535 H 0.94716 0.96289 0.70649 0.0
H536 H 0.92809 0.97872 0.79969 0.0
H537 H 0.92828 0.98982 0.76687 0.0
H538 H 0.00188 0.02344 0.74338 0.0
C539 C 0.01194 0.98181 0.6815 0.0
C540 C 0.95869 0.97676 0.71429 0.0
C541 C 0.01868 0.97313 0.66385 0.0
C542 C 0.94671 0.98213 0.79293 0.0
C543 C 0.9468 0.98847 0.77413 0.0
C544 C 0.98958 0.01043 0.73542 0.0
C545 C 0.98557 0.98584 0.68621 0.0
C546 C 0.97845 0.99135 0.70566 0.0
C547 C 0.97057 0.99212 0.7647 0.0
C548 C 0.9711 0.99443 0.74425 0.0
H549 H 0.95744 0.9701 0.64498 0.0
H550 H 0.94567 0.98509 0.67597 0.0
H551 H 0.00837 0.02062 0.7099 0.0
H552 H 0.01267 0.98268 0.80063 0.0
H553 H 0.01286 0.99305 0.76779 0.0
C554 C 0.46011 0.01826 0.66748 0.0
C555 C 0.47991 0.02063 0.65408 0.0
C556 C 0.46611 0.00989 0.68536 0.0
C557 C 0.51995 0.01185 0.71791 0.0
H558 H 0.47346 0.97038 0.74842 0.0
C559 C 0.53379 0.00906 0.79628 0.0
C560 C 0.51076 0.01402 0.80632 0.0
C561 C 0.53251 0.00175 0.7777 0.0
C562 C 0.48666 0.98195 0.74006 0.0
H563 H 0.52135 0.01488 0.64867 0.0
H564 H 0.53179 0.0004 0.68 0.0
H565 H 0.46643 0.97244 0.71494 0.0
H566 H 0.4683 0.01375 0.80509 0.0
H567 H 0.46606 0.00183 0.77255 0.0
H568 H 0.53931 0.02263 0.74292 0.0
C569 C 0.51168 0.0052 0.67664 0.0
C570 C 0.48266 0.98308 0.72094 0.0
C571 C 0.50567 0.0135 0.65873 0.0
C572 C 0.4864 0.01017 0.7977 0.0
C573 C 0.48513 0.00309 0.77907 0.0
C574 C 0.52387 0.01084 0.73699 0.0
C575 C 0.49203 0.00377 0.6902 0.0
C576 C 0.4988 -0.0013 0.70978 0.0
C577 C 0.50818 -0.00051 0.76874 0.0
C578 C 0.50677 -0.00346 0.74835 0.0
H579 H 0.44003 0.02343 0.66431 0.0
H580 H 0.45062 0.00931 0.6956 0.0
H581 H 0.53251 0.0243 0.7097 0.0
H582 H 0.55286 0.01145 0.80264 0.0
H583 H 0.5506 -0.00136 0.7702 0.0
C584 C 0.52991 0.51368 0.1668 0.0
C585 C 0.50749 0.52121 0.15686 0.0
C586 C 0.52784 0.50543 0.18514 0.0
C587 C 0.48033 0.48688 0.22194 0.0
H588 H 0.5298 0.52243 0.25387 0.0
C589 C 0.4578 0.51811 0.29639 0.0
C590 C 0.47807 0.51815 0.30957 0.0
C591 C 0.46276 0.51074 0.27814 0.0
C592 C 0.51618 0.51183 0.2452 0.0
H593 H 0.46519 0.52475 0.15799 0.0
H594 H 0.46164 0.51118 0.1902 0.0
H595 H 0.53619 0.52327 0.22061 0.0
H596 H 0.51908 0.509 0.31421 0.0
H597 H 0.52768 0.49617 0.28228 0.0
H598 H 0.45961 0.47666 0.24671 0.0
C599 C 0.48078 0.51114 0.18374 0.0
C600 C 0.51984 0.51228 0.22609 0.0
C601 C 0.48283 0.51915 0.16533 0.0
C602 C 0.5031 0.50948 0.30433 0.0
C603 C 0.50805 0.50212 0.28607 0.0
C604 C 0.47661 0.48651 0.24111 0.0
C605 C 0.50334 0.50481 0.19397 0.0
C606 C 0.50156 0.50046 0.21422 0.0
C607 C 0.48807 0.50326 0.27271 0.0
C608 C 0.49411 0.49963 0.25286 0.0
H609 H 0.54916 0.51462 0.16053 0.0
H610 H 0.54552 0.50022 0.19256 0.0
H611 H 0.46616 0.47722 0.21315 0.0
H612 H 0.43825 0.52451 0.3 0.0
H613 H 0.44704 0.51211 0.2681 0.0
C614 C 0.98002 0.47816 0.29969 0.0
C615 C 0.00486 0.47713 0.30801 0.0
C616 C 0.97751 0.48528 0.28111 0.0
C617 C 0.01652 0.4826 0.23882 0.0
H618 H 0.95503 0.51441 0.21686 0.0
C619 C 0.00067 0.48038 0.16049 0.0
C620 C 0.97601 0.47077 0.15521 0.0
C621 C 0.00506 0.48868 0.17861 0.0
C622 C 0.97236 0.5056 0.22283 0.0
H623 H 0.04623 0.48496 0.30401 0.0
H624 H 0.04176 0.49794 0.27173 0.0
H625 H 0.96144 0.5164 0.25042 0.0
H626 H 0.93626 0.46353 0.16455 0.0
H627 H 0.94411 0.47751 0.19627 0.0
H628 H 0.02702 0.47096 0.21146 0.0
C629 C 0.02433 0.49249 0.27935 0.0
C630 C 0.97601 0.5067 0.242 0.0
C631 C 0.02688 0.48507 0.29784 0.0
C632 C 0.95553 0.47067 0.16821 0.0
C633 C 0.95994 0.47894 0.18634 0.0
C634 C 0.01293 0.48159 0.21972 0.0
C635 C -0.00024 0.49176 0.2706 0.0
C636 C -0.00223 0.49456 0.25023 0.0
C637 C 0.98489 0.48751 0.19181 0.0
C638 C 0.99047 0.49243 0.21159 0.0
H639 H 0.96269 0.47222 0.30724 0.0
H640 H 0.95833 0.48426 0.27474 0.0
H641 H 0.03326 0.47263 0.24469 0.0
H642 H 0.01678 0.48103 0.15074 0.0
H643 H 0.0244 0.49547 0.18242 0.0
C644 C 0.47544 0.48043 0.65874 0.0
C645 C 0.5011 0.47321 0.65392 0.0
C646 C 0.46953 0.48776 0.67688 0.0
C647 C 0.49883 0.50646 0.72192 0.0
H648 H 0.44151 0.46633 0.74244 0.0
C649 C 0.49407 0.47487 0.79789 0.0
C650 C 0.46956 0.47145 0.80634 0.0
C651 C 0.49568 0.48265 0.7794 0.0
C652 C 0.45717 0.47825 0.73694 0.0
H653 H 0.54095 0.46938 0.66409 0.0
H654 H 0.53054 0.48179 0.69574 0.0
H655 H 0.44836 0.46683 0.70921 0.0
H656 H 0.42755 0.47527 0.80251 0.0
H657 H 0.43042 0.4892 0.77033 0.0
H658 H 0.50818 0.51706 0.74983 0.0
C659 C 0.51504 0.48202 0.68548 0.0
C660 C 0.4611 0.4785 0.71785 0.0
C661 C 0.52094 0.47463 0.66738 0.0
C662 C 0.44674 0.47732 0.79628 0.0
C663 C 0.44836 0.48529 0.77785 0.0
C664 C 0.49482 0.50629 0.74105 0.0
C665 C 0.48919 0.4881 0.69049 0.0
C666 C 0.48246 0.49191 0.71022 0.0
C667 C 0.47281 0.48734 0.76907 0.0
C668 C 0.47446 0.49148 0.74879 0.0
H669 H 0.45974 0.47978 0.64865 0.0
H670 H 0.44948 0.49257 0.68036 0.0
H671 H 0.51523 0.51726 0.71633 0.0
H672 H 0.51201 0.47058 0.8053 0.0
H673 H 0.51482 0.48371 0.77299 0.0
C674 C 0.9764 0.51438 0.80598 0.0
C675 C 0.00157 0.52306 0.81088 0.0
C676 C 0.97148 0.50498 0.7882 0.0
C677 C 0.00313 0.4833 0.74462 0.0
H678 H 0.94444 0.51846 0.72152 0.0
C679 C -0.00112 0.50889 0.6675 0.0
C680 C 0.97441 0.51122 0.65879 0.0
C681 C 0.00042 0.50189 0.68615 0.0
C682 C 0.96051 0.50786 0.72776 0.0
H683 H 0.04161 0.52745 0.80125 0.0
H684 H 0.03286 0.51155 0.77013 0.0
H685 H 0.95037 0.52143 0.75473 0.0
H686 H 0.93254 0.50574 0.66219 0.0
H687 H 0.93529 0.493 0.69462 0.0
H688 H 0.0138 0.47062 0.7174 0.0
C689 C 0.01702 0.5117 0.78011 0.0
C690 C 0.96392 0.50961 0.74685 0.0
C691 C 0.02195 0.5211 0.79788 0.0
C692 C 0.95166 0.50461 0.66866 0.0
C693 C 0.95322 0.49732 0.68722 0.0
C694 C -0.00035 0.48145 0.72547 0.0
C695 C 0.99162 0.50407 0.77498 0.0
C696 C 0.98572 0.49807 0.75539 0.0
C697 C 0.97752 0.49682 0.69635 0.0
C698 C 0.97877 0.49444 0.71678 0.0
H699 H 0.96033 0.51534 0.81575 0.0
H700 H 0.95177 0.49897 0.78465 0.0
H701 H 0.0199 0.4739 0.75093 0.0
H702 H 0.01675 0.51376 0.6602 0.0
H703 H 0.01944 0.50195 0.6928 0.0
C704 C 0.03686 0.15396 0.10758 0.0
C705 C 0.01711 0.13557 0.10415 0.0
C706 C 0.03076 0.18044 0.10871 0.0
C707 C 0.97871 0.22757 0.09557 0.0
H708 H 0.0158 0.27317 0.12932 0.0
C709 C 0.94883 0.33476 0.10712 0.0
C710 C 0.9694 0.35283 0.10591 0.0
C711 C 0.95416 0.30811 0.10797 0.0
C712 C 0.00535 0.26065 0.11979 0.0
H713 H 0.97536 0.13048 0.09988 0.0
H714 H 0.96467 0.17628 0.10242 0.0
H715 H 0.0261 0.22686 0.12891 0.0
H716 H 0.01169 0.35711 0.10515 0.0
H717 H 0.02087 0.31072 0.10684 0.0
H718 H 0.95776 0.26139 0.08664 0.0
C719 C 0.98498 0.1705 0.10365 0.0
C720 C 0.01133 0.23414 0.11947 0.0
C721 C 0.99111 0.14415 0.1023 0.0
C722 C -0.00463 0.34372 0.10599 0.0
C723 C 0.00068 0.31715 0.10708 0.0
C724 C 0.97254 0.254 0.09604 0.0
C725 C 0.00474 0.18906 0.10665 0.0
C726 C -0.00182 0.21726 0.10728 0.0
C727 C 0.98014 0.29906 0.10789 0.0
C728 C 0.9859 0.27083 0.10807 0.0
H729 H 0.0571 0.14798 0.109 0.0
H730 H 0.04656 0.19416 0.11079 0.0
H731 H 0.96852 0.21533 0.08572 0.0
H732 H 0.92862 0.34114 0.10707 0.0
H733 H 0.93796 0.29457 0.10871 0.0
C734 C 0.50226 0.85104 0.11222 0.0
C735 C 0.47625 0.85993 0.11293 0.0
C736 C 0.50793 0.8246 0.11377 0.0
C737 C 0.47957 0.7611 0.12799 0.0
H738 H 0.5334 0.73341 0.09564 0.0
C739 C 0.49048 0.65199 0.11169 0.0
C740 C 0.51589 0.64145 0.1111 0.0
C741 C 0.48671 0.67868 0.11377 0.0
C742 C 0.51858 0.7409 0.10495 0.0
H743 H 0.43578 0.84797 0.11611 0.0
H744 H 0.4456 0.8017 0.11834 0.0
H745 H 0.52444 0.77986 0.09563 0.0
H746 H 0.55727 0.65074 0.11252 0.0
H747 H 0.55063 0.69757 0.11598 0.0
H748 H 0.47326 0.72186 0.13685 0.0
C749 C 0.4617 0.81524 0.11694 0.0
C750 C 0.51343 0.76756 0.10497 0.0
C751 C 0.45604 0.84177 0.11556 0.0
C752 C 0.53746 0.65824 0.1129 0.0
C753 C 0.53367 0.68504 0.1148 0.0
C754 C 0.48459 0.7344 0.12785 0.0
C755 C 0.48772 0.8063 0.11589 0.0
C756 C 0.49375 0.778 0.11641 0.0
C757 C 0.50824 0.69553 0.11516 0.0
C758 C 0.50402 0.72401 0.11623 0.0
H759 H 0.51835 0.86452 0.11042 0.0
H760 H 0.52822 0.81852 0.11329 0.0
H761 H 0.46461 0.7685 0.13722 0.0
H762 H 0.47341 0.63964 0.11041 0.0
H763 H 0.4669 0.68621 0.1138 0.0
C764 C 0.45148 0.65394 0.35644 0.0
C765 C 0.47156 0.63551 0.35863 0.0
C766 C 0.45735 0.68048 0.35559 0.0
C767 C 0.50992 0.7274 0.36772 0.0
H768 H 0.47023 0.77406 0.33621 0.0
C769 C 0.53772 0.83554 0.358 0.0
C770 C 0.51697 0.85331 0.35984 0.0
C771 C 0.53272 0.80886 0.35675 0.0
C772 C 0.4814 0.76125 0.34513 0.0
H773 H 0.51363 0.6305 0.36103 0.0
H774 H 0.52386 0.67649 0.35905 0.0
H775 H 0.46038 0.72766 0.33598 0.0
H776 H 0.47466 0.85696 0.36137 0.0
H777 H 0.46604 0.81055 0.35906 0.0
H778 H 0.53105 0.76104 0.37674 0.0
C779 C 0.50351 0.67062 0.35852 0.0
C780 C 0.4757 0.73468 0.34507 0.0
C781 C 0.49764 0.64417 0.35955 0.0
C782 C 0.49113 0.84383 0.36002 0.0
C783 C 0.48614 0.81724 0.35858 0.0
C784 C 0.51576 0.75392 0.36765 0.0
C785 C 0.48345 0.68916 0.35674 0.0
C786 C 0.48979 0.71742 0.35645 0.0
C787 C 0.50687 0.79945 0.35709 0.0
C788 C 0.50146 0.77114 0.35645 0.0
H789 H 0.43118 0.64792 0.35576 0.0
H790 H 0.44135 0.69419 0.35445 0.0
H791 H 0.52087 0.71483 0.37694 0.0
H792 H 0.55785 0.84219 0.35781 0.0
H793 H 0.54908 0.79558 0.35547 0.0
C794 C 0.98511 0.34772 0.35509 0.0
C795 C 0.01091 0.35715 0.35402 0.0
C796 C 0.97992 0.32121 0.3534 0.0
C797 C 0.0086 0.25879 0.33758 0.0
H798 H 0.95664 0.22911 0.37059 0.0
C799 C -0.00137 0.14865 0.35068 0.0
C800 C 0.97328 0.1381 0.35193 0.0
C801 C 0.00232 0.17545 0.34935 0.0
C802 C 0.97094 0.23716 0.3611 0.0
H803 H 0.05149 0.34604 0.35006 0.0
H804 H 0.04249 0.29961 0.34749 0.0
H805 H 0.96523 0.27562 0.37145 0.0
H806 H 0.93188 0.14752 0.35244 0.0
H807 H 0.93838 0.19449 0.35019 0.0
H808 H 0.01467 0.22008 0.32758 0.0
C809 C 0.0262 0.31282 0.34934 0.0
C810 C 0.97588 0.26384 0.36157 0.0
C811 C 0.03139 0.33943 0.35091 0.0
C812 C 0.95166 0.155 0.35153 0.0
C813 C 0.95538 0.1819 0.35033 0.0
C814 C 0.00376 0.23206 0.33719 0.0
C815 C 0.0004 0.30336 0.35073 0.0
C816 C -0.00516 0.275 0.34987 0.0
C817 C 0.98077 0.1924 0.34934 0.0
C818 C 0.98496 0.22094 0.34901 0.0
H819 H 0.9688 0.36082 0.35728 0.0
H820 H 0.95977 0.31471 0.35417 0.0
H821 H 0.02302 0.26677 0.32817 0.0
H822 H 0.01575 0.13622 0.35091 0.0
H823 H 0.02213 0.18295 0.34881 0.0
C824 C 0.03444 0.66076 0.85248 0.0
C825 C 0.01352 0.64379 0.85622 0.0
C826 C 0.03006 0.68749 0.85073 0.0
C827 C 0.97847 0.73611 0.84149 0.0
H828 H 0.02421 0.78294 0.86834 0.0
C829 C 0.95344 0.84469 0.85284 0.0
C830 C 0.97421 0.8626 0.85268 0.0
C831 C 0.95844 0.81797 0.85196 0.0
C832 C 0.01147 0.77021 0.8605 0.0
H833 H 0.9715 0.64162 0.86063 0.0
H834 H 0.96398 0.68809 0.85755 0.0
H835 H 0.03302 0.73646 0.86876 0.0
H836 H 0.01646 0.86649 0.85076 0.0
H837 H 0.02505 0.82017 0.8488 0.0
H838 H 0.95691 0.76985 0.8332 0.0
C839 C 0.98372 0.68074 0.85591 0.0
C840 C 0.01653 0.74355 0.86077 0.0
C841 C 0.9881 0.65411 0.85781 0.0
C842 C -1e-05 0.85324 0.85113 0.0
C843 C 0.00495 0.82662 0.8501 0.0
C844 C 0.97348 0.76282 0.84112 0.0
C845 C 0.00466 0.69776 0.8525 0.0
C846 C -1e-05 0.72619 0.85138 0.0
C847 C 0.98429 0.8086 0.85077 0.0
C848 C 0.98984 0.78021 0.85071 0.0
H849 H 0.05424 0.65346 0.85115 0.0
H850 H 0.04655 0.70014 0.84794 0.0
H851 H 0.96554 0.72321 0.83395 0.0
H852 H 0.93337 0.85125 0.85408 0.0
H853 H 0.94205 0.80466 0.8527 0.0
C854 C 0.44492 0.33458 0.8514 0.0
C855 C 0.46604 0.35184 0.85358 0.0
C856 C 0.44936 0.30785 0.84976 0.0
C857 C 0.50022 0.25933 0.83836 0.0
H858 H 0.45868 0.21324 0.86901 0.0
C859 C 0.52873 0.152 0.85141 0.0
C860 C 0.50843 0.1337 0.85301 0.0
C861 C 0.52305 0.17853 0.84995 0.0
C862 C 0.47021 0.22574 0.86012 0.0
H863 H 0.50842 0.35453 0.85526 0.0
H864 H 0.51605 0.30807 0.85239 0.0
H865 H 0.44918 0.25958 0.8688 0.0
H866 H 0.4662 0.1289 0.85361 0.0
H867 H 0.45635 0.17488 0.85066 0.0
H868 H 0.52129 0.2255 0.82968 0.0
C869 C 0.4961 0.31518 0.85188 0.0
C870 C 0.46475 0.25233 0.86002 0.0
C871 C 0.49167 0.34182 0.85366 0.0
C872 C 0.48235 0.14247 0.85261 0.0
C873 C 0.47668 0.1689 0.85102 0.0
C874 C 0.50559 0.23269 0.83836 0.0
C875 C 0.475 0.29787 0.85009 0.0
C876 C 0.47983 0.26945 0.84927 0.0
C877 C 0.49693 0.18732 0.84993 0.0
C878 C 0.49077 0.21558 0.84936 0.0
H879 H 0.42495 0.34165 0.85125 0.0
H880 H 0.43273 0.29497 0.84824 0.0
H881 H 0.51199 0.27203 0.82976 0.0
H882 H 0.54903 0.14591 0.85171 0.0
H883 H 0.53915 0.19218 0.84934 0.0
C884 C 0.49314 0.14798 0.60445 0.0
C885 C 0.4673 0.13863 0.60561 0.0
C886 C 0.49833 0.17456 0.60558 0.0
C887 C 0.46869 0.23784 0.59697 0.0
H888 H 0.52507 0.26434 0.62764 0.0
C889 C 0.48663 0.34763 0.60446 0.0
C890 C 0.51265 0.35648 0.60525 0.0
C891 C 0.48095 0.32116 0.60555 0.0
C892 C 0.50948 0.25726 0.61881 0.0
H893 H 0.42666 0.14994 0.60899 0.0
H894 H 0.43578 0.19655 0.61068 0.0
H895 H 0.51528 0.21793 0.62769 0.0
H896 H 0.55314 0.34439 0.60792 0.0
H897 H 0.54332 0.29803 0.60927 0.0
H898 H 0.46327 0.27683 0.5876 0.0
C899 C 0.45196 0.18317 0.60894 0.0
C900 C 0.50381 0.23068 0.61892 0.0
C901 C 0.44677 0.1565 0.60805 0.0
C902 C 0.53288 0.33821 0.60734 0.0
C903 C 0.52721 0.31162 0.60822 0.0
C904 C 0.47453 0.26435 0.59669 0.0
C905 C 0.4778 0.19245 0.60767 0.0
C906 C 0.48335 0.22072 0.60801 0.0
C907 C 0.50115 0.30275 0.60723 0.0
C908 C 0.49499 0.27445 0.60762 0.0
H909 H 0.50943 0.13475 0.60264 0.0
H910 H 0.5184 0.18117 0.6044 0.0
H911 H 0.45308 0.23063 0.5882 0.0
H912 H 0.47053 0.3612 0.60307 0.0
H913 H 0.46063 0.31518 0.60517 0.0
C914 C -0.0073 0.83898 0.60452 0.0
C915 C 0.01814 0.84915 0.60637 0.0
C916 C 0.98804 0.81246 0.60685 0.0
C917 C 0.01983 0.74926 0.60324 0.0
H918 H 0.96022 0.72474 0.63158 0.0
C919 C 0.00051 0.63999 0.61294 0.0
C920 C 0.97441 0.63144 0.6119 0.0
C921 C 0.00632 0.66644 0.61404 0.0
C922 C 0.97678 0.73124 0.62344 0.0
H923 H 0.05863 0.83936 0.61222 0.0
H924 H 0.05047 0.7928 0.61603 0.0
H925 H 0.96968 0.77117 0.63017 0.0
H926 H 0.93389 0.644 0.61151 0.0
H927 H 0.944 0.69026 0.61291 0.0
H928 H 0.02655 0.70961 0.59596 0.0
C929 C 0.03418 0.80551 0.61281 0.0
C930 C 0.98225 0.75784 0.62271 0.0
C931 C 0.03882 0.83215 0.6107 0.0
C932 C 0.9542 0.64995 0.61237 0.0
C933 C 0.96003 0.67649 0.61326 0.0
C934 C 0.01423 0.72271 0.60381 0.0
C935 C 0.00873 0.79542 0.61089 0.0
C936 C 0.00374 0.76712 0.61251 0.0
C937 C 0.98619 0.68509 0.61391 0.0
C938 C -0.00744 0.71334 0.61385 0.0
H939 H 0.97628 0.85152 0.60127 0.0
H940 H 0.96828 0.80521 0.60508 0.0
H941 H 0.03631 0.75589 0.59505 0.0
H942 H 0.01656 0.62623 0.61283 0.0
H943 H 0.02666 0.67226 0.61495 0.0
C944 C 0.98436 0.98862 0.91016 0.0
C945 C 0.9657 0.96856 0.91028 0.0
C946 C -0.00246 0.99541 0.92637 0.0
C947 C 0.01542 0.97042 0.97241 0.0
H948 H 0.02161 0.04326 -0.01456 0.0
C949 C 0.03513 0.00525 0.04636 0.0
C950 C 0.05107 0.02713 0.04913 0.0
C951 C 0.02868 -0.00277 0.02852 0.0
C952 C 0.0205 0.02287 0.98183 0.0
H953 H 0.94607 0.93995 0.92742 0.0
H954 H 0.96896 0.952 0.95584 0.0
H955 H 0.0019 0.03111 0.95592 0.0
H956 H 0.07357 0.05727 0.03544 0.0
H957 H 0.06226 0.04315 0.00406 0.0
H958 H 0.03354 0.96216 -0.00152 0.0
C959 C 0.97362 0.96222 0.94314 0.0
C960 C 0.00915 0.01591 0.96496 0.0
C961 C 0.96038 0.95546 0.92692 0.0
C962 C 0.06114 0.0404 0.03369 0.0
C963 C 0.0546 0.03239 0.01577 0.0
C964 C 0.0268 0.97737 -0.01074 0.0
C965 C -0.00765 0.98223 0.943 0.0
C966 C 0.00606 0.98961 0.96025 0.0
C967 C 0.03803 0.01092 0.01305 0.0
C968 C 0.02899 0.00364 -0.00571 0.0
H969 H 0.98893 -0.00099 0.89751 0.0
H970 H 0.01203 0.01076 0.92584 0.0
H971 H 0.01373 0.95001 0.96895 0.0
H972 H 0.02712 0.99458 0.058 0.0
H973 H 0.01558 0.98084 0.02688 0.0
C974 C 0.50886 0.00805 0.91402 0.0
C975 C 0.52675 0.02872 0.91294 0.0
C976 C 0.49865 0.00038 0.93106 0.0
C977 C 0.48701 0.02387 0.97835 0.0
H978 H 0.48164 0.95054 -0.00978 0.0
C979 C 0.46693 0.98678 0.05196 0.0
C980 C 0.44976 0.96568 0.05407 0.0
C981 C 0.47479 0.99475 0.03439 0.0
C982 C 0.48267 0.97107 -0.01302 0.0
H983 H 0.54818 0.05747 0.92883 0.0
H984 H 0.53049 0.04387 0.95873 0.0
H985 H 0.4991 0.96384 0.96023 0.0
H986 H 0.42701 0.93657 0.03949 0.0
H987 H 0.44073 0.95065 0.00861 0.0
H988 H 0.47078 0.0311 0.00516 0.0
C989 C 0.52413 0.03384 0.94632 0.0
C990 C 0.49271 0.97868 0.96985 0.0
C991 C 0.53437 0.04151 0.92925 0.0
C992 C 0.44032 0.95285 0.03825 0.0
C993 C 0.44825 0.96082 0.02062 0.0
C994 C 0.47698 0.01626 -0.00453 0.0
C995 C 0.50613 0.01323 0.94737 0.0
C996 C 0.49513 0.00516 0.96542 0.0
C997 C 0.46565 0.98178 0.01855 0.0
C998 C 0.4749 0.9898 0.0 0.0
H999 H 0.50256 -0.00214 0.90166 0.0
H1000 H 0.48459 0.98464 0.93143 0.0
H1001 H 0.48823 0.04441 0.97517 0.0
H1002 H 0.47456 -0.00297 0.06391 0.0
H1003 H 0.48849 0.01073 0.03323 0.0
C1004 C 0.45839 0.00584 0.55066 0.0
C1005 C 0.44175 0.02752 0.55175 0.0
C1006 C 0.46778 -0.00263 0.53361 0.0
C1007 C 0.48232 0.02111 0.48714 0.0
H1008 H 0.48918 0.94778 0.47568 0.0
C1009 C 0.51681 0.98387 0.41614 0.0
C1010 C 0.53432 0.96282 0.41595 0.0
C1011 C 0.50523 0.99187 0.43263 0.0
C1012 C 0.48764 0.96831 0.4788 0.0
H1013 H 0.42118 0.05688 0.53585 0.0
H1014 H 0.43763 0.04192 0.50582 0.0
H1015 H 0.46732 0.96108 0.50419 0.0
H1016 H 0.55391 0.93394 0.43289 0.0
H1017 H 0.53371 0.94811 0.46191 0.0
H1018 H 0.50278 0.02834 0.46181 0.0
C1019 C 0.44356 0.0317 0.51826 0.0
C1020 C 0.47505 0.97591 0.49505 0.0
C1021 C 0.43405 0.04016 0.53539 0.0
C1022 C 0.54044 0.95019 0.43265 0.0
C1023 C 0.52876 0.95817 0.44919 0.0
C1024 C 0.4949 0.0135 0.47088 0.0
C1025 C 0.46075 0.0104 0.51727 0.0
C1026 C 0.47242 0.00238 0.49943 0.0
C1027 C 0.51091 0.97898 0.44929 0.0
C1028 C 0.4978 0.98703 0.46661 0.0
H1029 H 0.46463 0.99565 0.56305 0.0
H1030 H 0.48123 0.98111 0.53331 0.0
H1031 H 0.48096 0.04162 0.49032 0.0
H1032 H 0.51171 0.99401 0.40348 0.0
H1033 H 0.49135 0.00778 0.43226 0.0
C1034 C 0.02906 0.98148 0.54671 0.0
C1035 C 0.04574 0.96003 0.54906 0.0
C1036 C 0.02324 0.9907 0.52905 0.0
C1037 C 0.01903 0.96963 0.48096 0.0
H1038 H 0.01207 0.04351 0.47145 0.0
C1039 C 0.98778 0.01013 0.40981 0.0
C1040 C 0.96873 0.02983 0.41014 0.0
C1041 C -3e-05 0.00214 0.42614 0.0
C1042 C 0.01381 0.02283 0.47395 0.0
H1043 H 0.06989 0.93172 0.53484 0.0
H1044 H 0.05964 0.94795 0.50376 0.0
H1045 H 0.02966 0.02867 0.50106 0.0
H1046 H 0.94753 0.05669 0.42774 0.0
H1047 H 0.96868 0.04253 0.45637 0.0
H1048 H 0.0027 0.96377 0.45399 0.0
C1049 C 0.05098 0.95745 0.51566 0.0
C1050 C 0.02392 0.01434 0.49085 0.0
C1051 C 0.0569 0.94824 0.53341 0.0
C1052 C 0.96217 0.04148 0.42709 0.0
C1053 C 0.9744 0.03351 0.44343 0.0
C1054 C 0.00894 0.97812 0.46404 0.0
C1055 C 0.03396 0.97868 0.51334 0.0
C1056 C 0.02616 0.98766 0.49466 0.0
C1057 C -0.00662 0.01372 0.44311 0.0
C1058 C 0.0058 0.00479 0.46051 0.0
H1059 H 0.02016 0.991 0.55851 0.0
H1060 H 0.00974 0.00682 0.5277 0.0
H1061 H 0.02023 0.94894 0.4836 0.0
H1062 H -0.00667 0.00085 0.39693 0.0
H1063 H 0.01471 0.98703 0.42547 0.0
C1064 C 0.51044 0.5129 0.0502 0.0
C1065 C 0.52934 0.53268 0.05115 0.0
C1066 C 0.50144 0.50405 0.03312 0.0
C1067 C 0.4949 0.52308 -0.01556 0.0
H1068 H 0.48537 0.44912 0.97657 0.0
C1069 C 0.47014 0.48013 0.91307 0.0
C1070 C 0.4512 0.46036 0.91246 0.0
C1071 C 0.47981 0.48892 0.92998 0.0
C1072 C 0.48765 0.46984 0.97865 0.0
H1073 H 0.55372 0.5587 0.035 0.0
H1074 H 0.53801 0.54306 0.00499 0.0
H1075 H 0.50275 0.4646 0.00604 0.0
H1076 H 0.42743 0.43431 0.92903 0.0
H1077 H 0.44422 0.44989 0.95873 0.0
H1078 H 0.47974 0.52833 0.95707 0.0
C1079 C 0.53003 0.53461 0.01753 0.0
C1080 C 0.49764 0.47869 -0.00451 0.0
C1081 C 0.5391 0.54347 0.03467 0.0
C1082 C 0.44207 0.44954 0.9291 0.0
C1083 C 0.45177 0.45835 0.94607 0.0
C1084 C 0.48491 0.51423 0.96761 0.0
C1085 C 0.51114 0.51479 0.01662 0.0
C1086 C 0.50128 0.5054 -0.00144 0.0
C1087 C 0.47073 0.47815 0.94665 0.0
C1088 C 0.48115 0.48752 0.96456 0.0
H1089 H 0.50248 0.50426 0.06268 0.0
H1090 H 0.48658 0.48903 0.03285 0.0
H1091 H 0.49715 0.5438 -0.01346 0.0
H1092 H 0.47763 0.48879 0.90045 0.0
H1093 H 0.49467 0.50394 0.93 0.0
C1094 C 0.93932 0.45349 0.03448 0.0
C1095 C 0.94765 0.46446 0.05128 0.0
C1096 C 0.94915 0.46282 0.01769 0.0
C1097 C 0.00554 0.49791 -0.00162 0.0
H1098 H 0.96009 0.50831 0.95596 0.0
C1099 C 0.04029 0.54663 0.93045 0.0
C1100 C 0.03178 0.53483 0.91399 0.0
C1101 C 0.03012 0.5386 0.9475 0.0
C1102 C 0.97305 0.50528 0.96766 0.0
H1103 H 0.97226 0.49413 0.06373 0.0
H1104 H 0.98912 0.51047 0.03448 0.0
H1105 H 0.94156 0.49298 -0.01487 0.0
H1106 H 0.0065 0.50503 0.90241 0.0
H1107 H 0.98912 0.49092 0.93205 0.0
H1108 H 0.03705 0.51009 0.98088 0.0
C1109 C 0.97538 0.49444 0.03426 0.0
C1110 C 0.96244 0.49649 -0.01568 0.0
C1111 C 0.96558 0.48515 0.05099 0.0
C1112 C 0.01331 0.51464 0.91486 0.0
C1113 C 0.00321 0.50665 0.93183 0.0
C1114 C 0.01615 0.50669 0.98171 0.0
C1115 C 0.96745 0.48322 0.01746 0.0
C1116 C 0.9786 0.49265 -0.00019 0.0
C1117 C 0.01131 0.51868 0.94829 0.0
C1118 C 2e-05 0.51032 0.96617 0.0
H1119 H 0.92552 0.43751 0.03432 0.0
H1120 H 0.94286 0.4537 0.00491 0.0
H1121 H 0.01851 0.49478 0.01005 0.0
H1122 H 0.0545 0.56225 0.93015 0.0
H1123 H 0.0366 0.5483 0.96001 0.0
C1124 C 0.9443 0.53848 0.53705 0.0
C1125 C 0.95289 0.52617 0.55332 0.0
C1126 C 0.95419 0.53085 0.51986 0.0
C1127 C 0.98694 0.47643 0.49632 0.0
H1128 H 0.00722 0.52914 0.46069 0.0
C1129 C 0.04206 0.45175 0.4289 0.0
C1130 C 0.03269 0.46395 0.4128 0.0
C1131 C 0.03315 0.45962 0.4463 0.0
C1132 C 0.00145 0.51421 0.47046 0.0
H1133 H 0.97837 0.49618 0.56442 0.0
H1134 H -0.0043 0.48306 0.53449 0.0
H1135 H 0.98908 0.5422 0.49052 0.0
H1136 H 0.00693 0.49408 0.40224 0.0
H1137 H 0.99128 0.50761 0.43254 0.0
H1138 H -0.00076 0.44844 0.47624 0.0
C1139 C 0.98116 0.49837 0.53496 0.0
C1140 C 0.99102 0.52168 0.48749 0.0
C1141 C 0.97132 0.50599 0.5521 0.0
C1142 C 0.01454 0.48433 0.41441 0.0
C1143 C 0.00569 0.4922 0.43176 0.0
C1144 C -0.00263 0.46896 0.47929 0.0
C1145 C 0.97277 0.51076 0.51868 0.0
C1146 C 0.98361 0.50286 0.50056 0.0
C1147 C 0.01479 0.47985 0.44787 0.0
C1148 C 0.00464 0.48778 0.46618 0.0
H1149 H 0.93006 0.55405 0.53759 0.0
H1150 H 0.94716 0.54053 0.50749 0.0
H1151 H 0.98109 0.4615 0.50606 0.0
H1152 H 0.05612 0.43603 0.42805 0.0
H1153 H 0.04068 0.44995 0.45853 0.0
C1154 C 0.52137 0.48805 0.54977 0.0
C1155 C 0.53826 0.46658 0.55106 0.0
C1156 C 0.51166 0.49597 0.53265 0.0
C1157 C 0.49701 0.47085 0.48654 0.0
H1158 H 0.49006 0.54375 0.47375 0.0
C1159 C 0.46482 0.5058 0.4144 0.0
C1160 C 0.44758 0.52702 0.41345 0.0
C1161 C 0.47553 0.49817 0.43128 0.0
C1162 C 0.49158 0.52334 0.47726 0.0
H1163 H 0.55896 0.43705 0.53545 0.0
H1164 H 0.54199 0.45105 0.50533 0.0
H1165 H 0.51156 0.53147 0.50266 0.0
H1166 H 0.42743 0.55652 0.42946 0.0
H1167 H 0.44611 0.543 0.45917 0.0
H1168 H 0.47695 0.46272 0.46118 0.0
C1169 C 0.53608 0.46151 0.51766 0.0
C1170 C 0.50398 0.51632 0.49374 0.0
C1171 C 0.5459 0.45361 0.53484 0.0
C1172 C 0.44073 0.54013 0.4298 0.0
C1173 C 0.45154 0.53251 0.44674 0.0
C1174 C 0.48461 0.47788 0.47007 0.0
C1175 C 0.51863 0.48258 0.51646 0.0
C1176 C 0.50674 0.49001 0.49856 0.0
C1177 C 0.46923 0.51161 0.44759 0.0
C1178 C 0.48174 0.50419 0.46529 0.0
H1179 H 0.51518 0.49847 0.56205 0.0
H1180 H 0.49803 0.51208 0.53218 0.0
H1181 H 0.49845 0.45045 0.49008 0.0
H1182 H 0.47046 0.49529 0.40202 0.0
H1183 H 0.48932 0.48218 0.43148 0.0
loop_
_geom_bond_atom_site_label_1
_geom_bond_atom_site_label_2
_geom_bond_distance
_geom_bond_site_symmetry_2
_ccdc_geom_bond_type
C0 O1 1.306 . S
C0 O3 1.160 . S
O1 C0 1.306 . S
O1 Cd2 2.208 1_455 S
Cd2 O1 2.208 1_655 S
Cd2 O6 2.240 1_655 S
Cd2 O10 2.252 1_655 S
O3 C0 1.160 . S
O3 Cd4 2.203 . S
Cd4 O3 2.203 . S
Cd4 O6 2.411 . S
Cd4 O7 2.333 . S
Cd4 O8 2.352 . S
Cd4 O12 2.277 . S
Cd4 O13 2.356 . S
C5 O10 1.209 . S
C5 O12 1.226 . S
O6 Cd2 2.240 1_455 S
O6 Cd4 2.411 . S
O6 C9 1.320 . S
O7 Cd4 2.333 . S
O7 C9 1.214 . S
O8 Cd4 2.352 . S
O8 C11 1.258 . S
C9 O6 1.320 . S
C9 O7 1.214 . S
O10 Cd2 2.252 1_455 S
O10 C5 1.209 . S
C11 O8 1.258 . S
C11 O13 1.282 . S
O12 Cd4 2.277 . S
O12 C5 1.226 . S
O13 Cd4 2.356 . S
O13 C11 1.282 . S
C14 O15 1.306 . S
C14 O17 1.160 . S
O15 C14 1.306 . S
O15 Cd16 2.228 . S
Cd16 O15 2.228 . S
Cd16 O20 2.273 . S
Cd16 O24 2.277 . S
O17 C14 1.160 . S
O17 Cd18 2.203 . S
Cd18 O17 2.203 . S
Cd18 O20 2.411 . S
Cd18 O21 2.333 . S
Cd18 O22 2.352 . S
Cd18 O26 2.277 . S
Cd18 O27 2.356 . S
C19 O24 1.209 . S
C19 O26 1.226 . S
O20 Cd16 2.273 . S
O20 Cd18 2.411 . S
O20 C23 1.320 . S
O21 Cd18 2.333 . S
O21 C23 1.214 . S
O22 Cd18 2.352 . S
O22 C25 1.258 . S
C23 O20 1.320 . S
C23 O21 1.214 . S
O24 Cd16 2.277 . S
O24 C19 1.209 . S
C25 O22 1.258 . S
C25 O27 1.282 . S
O26 Cd18 2.277 . S
O26 C19 1.226 . S
O27 Cd18 2.356 . S
O27 C25 1.282 . S
C28 O29 1.306 . S
C28 O31 1.160 . S
O29 C28 1.306 . S
O29 Cd30 2.228 . S
Cd30 O29 2.228 . S
Cd30 O34 2.273 . S
Cd30 O38 2.277 . S
O31 C28 1.160 . S
O31 Cd32 2.203 . S
Cd32 O31 2.203 . S
Cd32 O34 2.411 . S
Cd32 O35 2.333 . S
Cd32 O36 2.352 . S
Cd32 O40 2.277 . S
Cd32 O41 2.356 . S
C33 O38 1.209 . S
C33 O40 1.226 . S
O34 Cd30 2.273 . S
O34 Cd32 2.411 . S
O34 C37 1.320 . S
O35 Cd32 2.333 . S
O35 C37 1.214 . S
O36 Cd32 2.352 . S
O36 C39 1.258 . S
C37 O34 1.320 . S
C37 O35 1.214 . S
O38 Cd30 2.277 . S
O38 C33 1.209 . S
C39 O36 1.258 . S
C39 O41 1.282 . S
O40 Cd32 2.277 . S
O40 C33 1.226 . S
O41 Cd32 2.356 . S
O41 C39 1.282 . S
C42 O43 1.306 . S
C42 O45 1.160 . S
O43 C42 1.306 . S
O43 Cd44 2.208 1_655 S
Cd44 O43 2.208 1_455 S
Cd44 O48 2.240 1_455 S
Cd44 O52 2.252 1_455 S
O45 C42 1.160 . S
O45 Cd46 2.203 . S
Cd46 O45 2.203 . S
Cd46 O48 2.411 . S
Cd46 O49 2.333 . S
Cd46 O50 2.352 . S
Cd46 O54 2.277 . S
Cd46 O55 2.356 . S
C47 O52 1.209 . S
C47 O54 1.226 . S
O48 Cd44 2.240 1_655 S
O48 Cd46 2.411 . S
O48 C51 1.320 . S
O49 Cd46 2.333 . S
O49 C51 1.214 . S
O50 Cd46 2.352 . S
O50 C53 1.258 . S
C51 O48 1.320 . S
C51 O49 1.214 . S
O52 Cd44 2.252 1_655 S
O52 C47 1.209 . S
C53 O50 1.258 . S
C53 O55 1.282 . S
O54 Cd46 2.277 . S
O54 C47 1.226 . S
O55 Cd46 2.356 . S
O55 C53 1.282 . S
C56 O57 1.306 . S
C56 O59 1.160 . S
O57 C56 1.306 . S
O57 Cd58 2.208 1_655 S
Cd58 O57 2.208 1_455 S
Cd58 O62 2.240 1_455 S
Cd58 O66 2.252 1_455 S
O59 C56 1.160 . S
O59 Cd60 2.203 . S
Cd60 O59 2.203 . S
Cd60 O62 2.411 . S
Cd60 O63 2.333 . S
Cd60 O64 2.352 . S
Cd60 O68 2.277 . S
Cd60 O69 2.356 . S
C61 O66 1.209 . S
C61 O68 1.226 . S
O62 Cd58 2.240 1_655 S
O62 Cd60 2.411 . S
O62 C65 1.320 . S
O63 Cd60 2.333 . S
O63 C65 1.214 . S
O64 Cd60 2.352 . S
O64 C67 1.258 . S
C65 O62 1.320 . S
C65 O63 1.214 . S
O66 Cd58 2.252 1_655 S
O66 C61 1.209 . S
C67 O64 1.258 . S
C67 O69 1.282 . S
O68 Cd60 2.277 . S
O68 C61 1.226 . S
O69 Cd60 2.356 . S
O69 C67 1.282 . S
C70 O71 1.306 . S
C70 O73 1.160 . S
O71 C70 1.306 . S
O71 Cd72 2.228 . S
Cd72 O71 2.228 . S
Cd72 O76 2.273 . S
Cd72 O80 2.277 . S
O73 C70 1.160 . S
O73 Cd74 2.203 . S
Cd74 O73 2.203 . S
Cd74 O76 2.411 . S
Cd74 O77 2.333 . S
Cd74 O78 2.352 . S
Cd74 O82 2.277 . S
Cd74 O83 2.356 . S
C75 O80 1.209 . S
C75 O82 1.226 . S
O76 Cd72 2.273 . S
O76 Cd74 2.411 . S
O76 C79 1.320 . S
O77 Cd74 2.333 . S
O77 C79 1.214 . S
O78 Cd74 2.352 . S
O78 C81 1.258 . S
C79 O76 1.320 . S
C79 O77 1.214 . S
O80 Cd72 2.277 . S
O80 C75 1.209 . S
C81 O78 1.258 . S
C81 O83 1.282 . S
O82 Cd74 2.277 . S
O82 C75 1.226 . S
O83 Cd74 2.356 . S
O83 C81 1.282 . S
C84 O85 1.306 . S
C84 O87 1.160 . S
O85 C84 1.306 . S
O85 Cd86 2.228 . S
Cd86 O85 2.228 . S
Cd86 O90 2.273 . S
Cd86 O94 2.277 . S
O87 C84 1.160 . S
O87 Cd88 2.203 . S
Cd88 O87 2.203 . S
Cd88 O90 2.411 . S
Cd88 O91 2.333 . S
Cd88 O92 2.352 . S
Cd88 O96 2.277 . S
Cd88 O97 2.356 . S
C89 O94 1.209 . S
C89 O96 1.226 . S
O90 Cd86 2.273 . S
O90 Cd88 2.411 . S
O90 C93 1.320 . S
O91 Cd88 2.333 . S
O91 C93 1.214 . S
O92 Cd88 2.352 . S
O92 C95 1.258 . S
C93 O90 1.320 . S
C93 O91 1.214 . S
O94 Cd86 2.277 . S
O94 C89 1.209 . S
C95 O92 1.258 . S
C95 O97 1.282 . S
O96 Cd88 2.277 . S
O96 C89 1.226 . S
O97 Cd88 2.356 . S
O97 C95 1.282 . S
C98 O99 1.306 . S
C98 O101 1.160 . S
O99 C98 1.306 . S
O99 Cd100 2.208 1_455 S
Cd100 O99 2.208 1_655 S
Cd100 O104 2.240 1_655 S
Cd100 O108 2.252 1_655 S
O101 C98 1.160 . S
O101 Cd102 2.203 . S
Cd102 O101 2.203 . S
Cd102 O104 2.411 . S
Cd102 O105 2.333 . S
Cd102 O106 2.352 . S
Cd102 O110 2.277 . S
Cd102 O111 2.356 . S
C103 O108 1.209 . S
C103 O110 1.226 . S
O104 Cd100 2.240 1_455 S
O104 Cd102 2.411 . S
O104 C107 1.320 . S
O105 Cd102 2.333 . S
O105 C107 1.214 . S
O106 Cd102 2.352 . S
O106 C109 1.258 . S
C107 O104 1.320 . S
C107 O105 1.214 . S
O108 Cd100 2.252 1_455 S
O108 C103 1.209 . S
C109 O106 1.258 . S
C109 O111 1.282 . S
O110 Cd102 2.277 . S
O110 C103 1.226 . S
O111 Cd102 2.356 . S
O111 C109 1.282 . S
C112 O113 1.306 . S
C112 O115 1.160 . S
O113 C112 1.306 . S
O113 Cd114 2.228 . S
Cd114 O113 2.228 . S
Cd114 O118 2.273 . S
Cd114 O122 2.277 . S
O115 C112 1.160 . S
O115 Cd116 2.203 . S
Cd116 O115 2.203 . S
Cd116 O118 2.411 . S
Cd116 O119 2.333 . S
Cd116 O120 2.352 . S
Cd116 O124 2.277 . S
Cd116 O125 2.356 . S
C117 O122 1.209 . S
C117 O124 1.226 . S
O118 Cd114 2.273 . S
O118 Cd116 2.411 . S
O118 C121 1.320 . S
O119 Cd116 2.333 . S
O119 C121 1.214 . S
O120 Cd116 2.352 . S
O120 C123 1.258 . S
C121 O118 1.320 . S
C121 O119 1.214 . S
O122 Cd114 2.277 . S
O122 C117 1.209 . S
C123 O120 1.258 . S
C123 O125 1.282 . S
O124 Cd116 2.277 . S
O124 C117 1.226 . S
O125 Cd116 2.356 . S
O125 C123 1.282 . S
C126 O127 1.306 . S
C126 O129 1.160 . S
O127 C126 1.306 . S
O127 Cd128 2.208 1_655 S
Cd128 O127 2.208 1_455 S
Cd128 O132 2.240 1_455 S
Cd128 O136 2.252 1_455 S
O129 C126 1.160 . S
O129 Cd130 2.203 . S
Cd130 O129 2.203 . S
Cd130 O132 2.411 . S
Cd130 O133 2.333 . S
Cd130 O134 2.352 . S
Cd130 O138 2.277 . S
Cd130 O139 2.356 . S
C131 O136 1.209 . S
C131 O138 1.226 . S
O132 Cd128 2.240 1_655 S
O132 Cd130 2.411 . S
O132 C135 1.320 . S
O133 Cd130 2.333 . S
O133 C135 1.214 . S
O134 Cd130 2.352 . S
O134 C137 1.258 . S
C135 O132 1.320 . S
C135 O133 1.214 . S
O136 Cd128 2.252 1_655 S
O136 C131 1.209 . S
C137 O134 1.258 . S
C137 O139 1.282 . S
O138 Cd130 2.277 . S
O138 C131 1.226 . S
O139 Cd130 2.356 . S
O139 C137 1.282 . S
C140 O141 1.306 . S
C140 O143 1.160 . S
O141 C140 1.306 . S
O141 Cd142 2.208 1_455 S
Cd142 O141 2.208 1_655 S
Cd142 O146 2.240 1_655 S
Cd142 O150 2.252 1_655 S
O143 C140 1.160 . S
O143 Cd144 2.203 . S
Cd144 O143 2.203 . S
Cd144 O146 2.411 . S
Cd144 O147 2.333 . S
Cd144 O148 2.352 . S
Cd144 O152 2.277 . S
Cd144 O153 2.356 . S
C145 O150 1.209 . S
C145 O152 1.226 . S
O146 Cd142 2.240 1_455 S
O146 Cd144 2.411 . S
O146 C149 1.320 . S
O147 Cd144 2.333 . S
O147 C149 1.214 . S
O148 Cd144 2.352 . S
O148 C151 1.258 . S
C149 O146 1.320 . S
C149 O147 1.214 . S
O150 Cd142 2.252 1_455 S
O150 C145 1.209 . S
C151 O148 1.258 . S
C151 O153 1.282 . S
O152 Cd144 2.277 . S
O152 C145 1.226 . S
O153 Cd144 2.356 . S
O153 C151 1.282 . S
C154 O155 1.306 . S
C154 O157 1.160 . S
O155 C154 1.306 . S
O155 Cd156 2.228 . S
Cd156 O155 2.228 . S
Cd156 O160 2.273 . S
Cd156 O164 2.277 . S
O157 C154 1.160 . S
O157 Cd158 2.203 . S
Cd158 O157 2.203 . S
Cd158 O160 2.411 . S
Cd158 O161 2.333 . S
Cd158 O162 2.352 . S
Cd158 O166 2.277 . S
Cd158 O167 2.356 . S
C159 O164 1.209 . S
C159 O166 1.226 . S
O160 Cd156 2.273 . S
O160 Cd158 2.411 . S
O160 C163 1.320 . S
O161 Cd158 2.333 . S
O161 C163 1.214 . S
O162 Cd158 2.352 . S
O162 C165 1.258 . S
C163 O160 1.320 . S
C163 O161 1.214 . S
O164 Cd156 2.277 . S
O164 C159 1.209 . S
C165 O162 1.258 . S
C165 O167 1.282 . S
O166 Cd158 2.277 . S
O166 C159 1.226 . S
O167 Cd158 2.356 . S
O167 C165 1.282 . S
C168 O169 1.306 . S
C168 O171 1.160 . S
O169 C168 1.306 . S
O169 Cd170 2.228 . S
Cd170 O169 2.228 . S
Cd170 O174 2.273 . S
Cd170 O178 2.277 . S
O171 C168 1.160 . S
O171 Cd172 2.203 . S
Cd172 O171 2.203 . S
Cd172 O174 2.411 . S
Cd172 O175 2.333 . S
Cd172 O176 2.352 . S
Cd172 O180 2.277 . S
Cd172 O181 2.356 . S
C173 O178 1.209 . S
C173 O180 1.226 . S
O174 Cd170 2.273 . S
O174 Cd172 2.411 . S
O174 C177 1.320 . S
O175 Cd172 2.333 . S
O175 C177 1.214 . S
O176 Cd172 2.352 . S
O176 C179 1.258 . S
C177 O174 1.320 . S
C177 O175 1.214 . S
O178 Cd170 2.277 . S
O178 C173 1.209 . S
C179 O176 1.258 . S
C179 O181 1.282 . S
O180 Cd172 2.277 . S
O180 C173 1.226 . S
O181 Cd172 2.356 . S
O181 C179 1.282 . S
C182 O183 1.306 . S
C182 O185 1.160 . S
O183 C182 1.306 . S
O183 Cd184 2.208 1_455 S
Cd184 O183 2.208 1_655 S
Cd184 O188 2.240 1_655 S
Cd184 O192 2.252 1_655 S
O185 C182 1.160 . S
O185 Cd186 2.203 . S
Cd186 O185 2.203 . S
Cd186 O188 2.411 . S
Cd186 O189 2.333 . S
Cd186 O190 2.352 . S
Cd186 O194 2.277 . S
Cd186 O195 2.356 . S
C187 O192 1.209 . S
C187 O194 1.226 . S
O188 Cd184 2.240 1_455 S
O188 Cd186 2.411 . S
O188 C191 1.320 . S
O189 Cd186 2.333 . S
O189 C191 1.214 . S
O190 Cd186 2.352 . S
O190 C193 1.258 . S
C191 O188 1.320 . S
C191 O189 1.214 . S
O192 Cd184 2.252 1_455 S
O192 C187 1.209 . S
C193 O190 1.258 . S
C193 O195 1.282 . S
O194 Cd186 2.277 . S
O194 C187 1.226 . S
O195 Cd186 2.356 . S
O195 C193 1.282 . S
C196 O197 1.306 . S
C196 O199 1.160 . S
O197 C196 1.306 . S
O197 Cd198 2.208 1_655 S
Cd198 O197 2.208 1_455 S
Cd198 O202 2.240 1_455 S
Cd198 O206 2.252 1_455 S
O199 C196 1.160 . S
O199 Cd200 2.203 . S
Cd200 O199 2.203 . S
Cd200 O202 2.411 . S
Cd200 O203 2.333 . S
Cd200 O204 2.352 . S
Cd200 O208 2.277 . S
Cd200 O209 2.356 . S
C201 O206 1.209 . S
C201 O208 1.226 . S
O202 Cd198 2.240 1_655 S
O202 Cd200 2.411 . S
O202 C205 1.320 . S
O203 Cd200 2.333 . S
O203 C205 1.214 . S
O204 Cd200 2.352 . S
O204 C207 1.258 . S
C205 O202 1.320 . S
C205 O203 1.214 . S
O206 Cd198 2.252 1_655 S
O206 C201 1.209 . S
C207 O204 1.258 . S
C207 O209 1.282 . S
O208 Cd200 2.277 . S
O208 C201 1.226 . S
O209 Cd200 2.356 . S
O209 C207 1.282 . S
C210 O211 1.306 . S
C210 O213 1.160 . S
O211 C210 1.306 . S
O211 Cd212 2.228 . S
Cd212 O211 2.228 . S
Cd212 O216 2.273 . S
Cd212 O220 2.277 . S
O213 C210 1.160 . S
O213 Cd214 2.203 . S
Cd214 O213 2.203 . S
Cd214 O216 2.411 . S
Cd214 O217 2.333 . S
Cd214 O218 2.352 . S
Cd214 O222 2.277 . S
Cd214 O223 2.356 . S
C215 O220 1.209 . S
C215 O222 1.226 . S
O216 Cd212 2.273 . S
O216 Cd214 2.411 . S
O216 C219 1.320 . S
O217 Cd214 2.333 . S
O217 C219 1.214 . S
O218 Cd214 2.352 . S
O218 C221 1.258 . S
C219 O216 1.320 . S
C219 O217 1.214 . S
O220 Cd212 2.277 . S
O220 C215 1.209 . S
C221 O218 1.258 . S
C221 O223 1.282 . S
O222 Cd214 2.277 . S
O222 C215 1.226 . S
O223 Cd214 2.356 . S
O223 C221 1.282 . S
C224 C225 1.349 . S
C224 C226 1.327 . S
C224 H249 0.950 . S
C225 C224 1.349 . S
C225 C241 1.349 . S
C226 C224 1.327 . S
C226 C245 1.429 . S
C226 H250 0.950 1_565 S
C227 C244 1.574 . S
C227 C246 1.368 . S
C227 H251 0.949 . S
H228 C232 0.949 . S
C229 C230 1.349 . S
C229 C231 1.327 . S
C229 H252 0.950 . S
C230 C229 1.349 . S
C230 C242 1.349 . S
C231 C229 1.327 . S
C231 C247 1.429 . S
C231 H253 0.950 1_545 S
C232 H228 0.949 . S
C232 C240 1.574 . S
C232 C248 1.368 . S
H233 C241 0.950 . S
H234 C239 0.950 . S
H235 C240 0.949 . S
H236 C242 0.950 . S
H237 C243 0.950 . S
H238 C244 0.949 . S
C239 H234 0.950 . S
C239 C241 1.327 . S
C239 C245 1.429 . S
C240 C232 1.574 . S
C240 H235 0.949 . S
C240 C246 1.368 1_545 S
C241 C225 1.349 . S
C241 H233 0.950 . S
C241 C239 1.327 . S
C242 C230 1.349 . S
C242 H236 0.950 . S
C242 C243 1.327 . S
C243 H237 0.950 . S
C243 C242 1.327 . S
C243 C247 1.429 . S
C244 C227 1.574 . S
C244 H238 0.949 . S
C244 C248 1.368 1_565 S
C245 C226 1.429 . S
C245 C239 1.429 . S
C245 C246 1.523 . S
C246 C227 1.368 . S
C246 C240 1.368 1_565 S
C246 C245 1.523 . S
C247 C231 1.429 . S
C247 C243 1.429 . S
C247 C248 1.523 . S
C248 C232 1.368 . S
C248 C244 1.368 1_545 S
C248 C247 1.523 . S
H249 C224 0.950 . S
H250 C226 0.950 1_545 S
H251 C227 0.949 . S
H252 C229 0.950 . S
H253 C231 0.950 1_565 S
C254 C255 1.349 . S
C254 C256 1.327 . S
C254 H279 0.950 . S
C255 C254 1.349 . S
C255 C271 1.349 . S
C256 C254 1.327 . S
C256 C275 1.429 . S
C256 H280 0.950 . S
C257 C274 1.574 . S
C257 C276 1.368 1_545 S
C257 H281 0.949 . S
H258 C262 0.949 . S
C259 C260 1.349 . S
C259 C261 1.327 . S
C259 H282 0.950 . S
C260 C259 1.349 . S
C260 C272 1.349 . S
C261 C259 1.327 . S
C261 C277 1.429 . S
C261 H283 0.950 . S
C262 H258 0.949 . S
C262 C270 1.574 . S
C262 C278 1.368 1_565 S
H263 C271 0.950 . S
H264 C269 0.950 1_545 S
H265 C270 0.949 . S
H266 C272 0.950 . S
H267 C273 0.950 1_565 S
H268 C274 0.949 . S
C269 H264 0.950 1_565 S
C269 C271 1.327 . S
C269 C275 1.429 . S
C270 C262 1.574 . S
C270 H265 0.949 . S
C270 C276 1.368 . S
C271 C255 1.349 . S
C271 H263 0.950 . S
C271 C269 1.327 . S
C272 C260 1.349 . S
C272 H266 0.950 . S
C272 C273 1.327 . S
C273 H267 0.950 1_545 S
C273 C272 1.327 . S
C273 C277 1.429 . S
C274 C257 1.574 . S
C274 H268 0.949 . S
C274 C278 1.368 . S
C275 C256 1.429 . S
C275 C269 1.429 . S
C275 C276 1.523 . S
C276 C257 1.368 1_565 S
C276 C270 1.368 . S
C276 C275 1.523 . S
C277 C261 1.429 . S
C277 C273 1.429 . S
C277 C278 1.523 . S
C278 C262 1.368 1_545 S
C278 C274 1.368 . S
C278 C277 1.523 . S
H279 C254 0.950 . S
H280 C256 0.950 . S
H281 C257 0.949 . S
H282 C259 0.950 . S
H283 C261 0.950 . S
C284 C285 1.349 . S
C284 C286 1.327 . S
C284 H309 0.950 . S
C285 C284 1.349 . S
C285 C301 1.349 . S
C286 C284 1.327 . S
C286 C305 1.429 . S
C286 H310 0.950 1_565 S
C287 C304 1.574 . S
C287 C306 1.368 . S
C287 H311 0.949 . S
H288 C292 0.949 . S
C289 C290 1.349 . S
C289 C291 1.327 . S
C289 H312 0.950 . S
C290 C289 1.349 . S
C290 C302 1.349 . S
C291 C289 1.327 . S
C291 C307 1.429 . S
C291 H313 0.950 1_545 S
C292 H288 0.949 . S
C292 C300 1.574 . S
C292 C308 1.368 . S
H293 C301 0.950 . S
H294 C299 0.950 . S
H295 C300 0.949 . S
H296 C302 0.950 . S
H297 C303 0.950 . S
H298 C304 0.949 . S
C299 H294 0.950 . S
C299 C301 1.327 . S
C299 C305 1.429 . S
C300 C292 1.574 . S
C300 H295 0.949 . S
C300 C306 1.368 1_545 S
C301 C285 1.349 . S
C301 H293 0.950 . S
C301 C299 1.327 . S
C302 C290 1.349 . S
C302 H296 0.950 . S
C302 C303 1.327 . S
C303 H297 0.950 . S
C303 C302 1.327 . S
C303 C307 1.429 . S
C304 C287 1.574 . S
C304 H298 0.949 . S
C304 C308 1.368 1_565 S
C305 C286 1.429 . S
C305 C299 1.429 . S
C305 C306 1.523 . S
C306 C287 1.368 . S
C306 C300 1.368 1_565 S
C306 C305 1.523 . S
C307 C291 1.429 . S
C307 C303 1.429 . S
C307 C308 1.523 . S
C308 C292 1.368 . S
C308 C304 1.368 1_545 S
C308 C307 1.523 . S
H309 C284 0.950 . S
H310 C286 0.950 1_545 S
H311 C287 0.949 . S
H312 C289 0.950 . S
H313 C291 0.950 1_565 S
C314 C315 1.349 . S
C314 C316 1.327 . S
C314 H339 0.950 . S
C315 C314 1.349 . S
C315 C331 1.349 . S
C316 C314 1.327 . S
C316 C335 1.429 . S
C316 H340 0.950 . S
C317 C334 1.574 . S
C317 C336 1.368 1_545 S
C317 H341 0.949 . S
H318 C322 0.949 . S
C319 C320 1.349 . S
C319 C321 1.327 . S
C319 H342 0.950 . S
C320 C319 1.349 . S
C320 C332 1.349 . S
C321 C319 1.327 . S
C321 C337 1.429 . S
C321 H343 0.950 . S
C322 H318 0.949 . S
C322 C330 1.574 . S
C322 C338 1.368 1_565 S
H323 C331 0.950 . S
H324 C329 0.950 1_545 S
H325 C330 0.949 . S
H326 C332 0.950 . S
H327 C333 0.950 1_565 S
H328 C334 0.949 . S
C329 H324 0.950 1_565 S
C329 C331 1.327 . S
C329 C335 1.429 . S
C330 C322 1.574 . S
C330 H325 0.949 . S
C330 C336 1.368 . S
C331 C315 1.349 . S
C331 H323 0.950 . S
C331 C329 1.327 . S
C332 C320 1.349 . S
C332 H326 0.950 . S
C332 C333 1.327 . S
C333 H327 0.950 1_545 S
C333 C332 1.327 . S
C333 C337 1.429 . S
C334 C317 1.574 . S
C334 H328 0.949 . S
C334 C338 1.368 . S
C335 C316 1.429 . S
C335 C329 1.429 . S
C335 C336 1.523 . S
C336 C317 1.368 1_565 S
C336 C330 1.368 . S
C336 C335 1.523 . S
C337 C321 1.429 . S
C337 C333 1.429 . S
C337 C338 1.523 . S
C338 C322 1.368 1_545 S
C338 C334 1.368 . S
C338 C337 1.523 . S
H339 C314 0.950 . S
H340 C316 0.950 . S
H341 C317 0.949 . S
H342 C319 0.950 . S
H343 C321 0.950 . S
C344 C345 1.349 . S
C344 C346 1.327 . S
C344 H369 0.950 . S
C345 C344 1.349 . S
C345 C361 1.349 . S
C346 C344 1.327 . S
C346 C365 1.429 . S
C346 H370 0.950 . S
C347 C364 1.574 . S
C347 C366 1.368 . S
C347 H371 0.949 . S
H348 C352 0.949 . S
C349 C350 1.349 . S
C349 C351 1.327 . S
C349 H372 0.950 . S
C350 C349 1.349 . S
C350 C362 1.349 . S
C351 C349 1.327 . S
C351 C367 1.429 . S
C351 H373 0.950 . S
C352 H348 0.949 . S
C352 C360 1.574 . S
C352 C368 1.368 . S
H353 C361 0.950 . S
H354 C359 0.950 . S
H355 C360 0.949 . S
H356 C362 0.950 . S
H357 C363 0.950 . S
H358 C364 0.949 . S
C359 H354 0.950 . S
C359 C361 1.327 . S
C359 C365 1.429 . S
C360 C352 1.574 . S
C360 H355 0.949 . S
C360 C366 1.368 . S
C361 C345 1.349 . S
C361 H353 0.950 . S
C361 C359 1.327 . S
C362 C350 1.349 . S
C362 H356 0.950 . S
C362 C363 1.327 . S
C363 H357 0.950 . S
C363 C362 1.327 . S
C363 C367 1.429 . S
C364 C347 1.574 . S
C364 H358 0.949 . S
C364 C368 1.368 . S
C365 C346 1.429 . S
C365 C359 1.429 . S
C365 C366 1.523 . S
C366 C347 1.368 . S
C366 C360 1.368 . S
C366 C365 1.523 . S
C367 C351 1.429 . S
C367 C363 1.429 . S
C367 C368 1.523 . S
C368 C352 1.368 . S
C368 C364 1.368 . S
C368 C367 1.523 . S
H369 C344 0.950 . S
H370 C346 0.950 . S
H371 C347 0.949 . S
H372 C349 0.950 . S
H373 C351 0.950 . S
C374 C375 1.349 . S
C374 C376 1.327 . S
C374 H399 0.950 . S
C375 C374 1.349 . S
C375 C391 1.349 . S
C376 C374 1.327 . S
C376 C395 1.429 . S
C376 H400 0.950 . S
C377 C394 1.574 . S
C377 C396 1.368 . S
C377 H401 0.949 . S
H378 C382 0.949 . S
C379 C380 1.349 . S
C379 C381 1.327 . S
C379 H402 0.950 . S
C380 C379 1.349 . S
C380 C392 1.349 . S
C381 C379 1.327 . S
C381 C397 1.429 . S
C381 H403 0.950 . S
C382 H378 0.949 . S
C382 C390 1.574 . S
C382 C398 1.368 . S
H383 C391 0.950 . S
H384 C389 0.950 . S
H385 C390 0.949 . S
H386 C392 0.950 . S
H387 C393 0.950 . S
H388 C394 0.949 . S
C389 H384 0.950 . S
C389 C391 1.327 . S
C389 C395 1.429 . S
C390 C382 1.574 . S
C390 H385 0.949 . S
C390 C396 1.368 . S
C391 C375 1.349 . S
C391 H383 0.950 . S
C391 C389 1.327 . S
C392 C380 1.349 . S
C392 H386 0.950 . S
C392 C393 1.327 . S
C393 H387 0.950 . S
C393 C392 1.327 . S
C393 C397 1.429 . S
C394 C377 1.574 . S
C394 H388 0.949 . S
C394 C398 1.368 . S
C395 C376 1.429 . S
C395 C389 1.429 . S
C395 C396 1.523 . S
C396 C377 1.368 . S
C396 C390 1.368 . S
C396 C395 1.523 . S
C397 C381 1.429 . S
C397 C393 1.429 . S
C397 C398 1.523 . S
C398 C382 1.368 . S
C398 C394 1.368 . S
C398 C397 1.523 . S
H399 C374 0.950 . S
H400 C376 0.950 . S
H401 C377 0.949 . S
H402 C379 0.950 . S
H403 C381 0.950 . S
C404 C405 1.349 . S
C404 C406 1.327 . S
C404 H429 0.950 . S
C405 C404 1.349 . S
C405 C421 1.349 . S
C406 C404 1.327 . S
C406 C425 1.429 . S
C406 H430 0.950 . S
C407 C424 1.574 . S
C407 C426 1.368 . S
C407 H431 0.949 . S
H408 C412 0.949 . S
C409 C410 1.349 . S
C409 C411 1.327 . S
C409 H432 0.950 . S
C410 C409 1.349 . S
C410 C422 1.349 . S
C411 C409 1.327 . S
C411 C427 1.429 . S
C411 H433 0.950 . S
C412 H408 0.949 . S
C412 C420 1.574 . S
C412 C428 1.368 . S
H413 C421 0.950 . S
H414 C419 0.950 . S
H415 C420 0.949 . S
H416 C422 0.950 . S
H417 C423 0.950 . S
H418 C424 0.949 . S
C419 H414 0.950 . S
C419 C421 1.327 . S
C419 C425 1.429 . S
C420 C412 1.574 . S
C420 H415 0.949 . S
C420 C426 1.368 . S
C421 C405 1.349 . S
C421 H413 0.950 . S
C421 C419 1.327 . S
C422 C410 1.349 . S
C422 H416 0.950 . S
C422 C423 1.327 . S
C423 H417 0.950 . S
C423 C422 1.327 . S
C423 C427 1.429 . S
C424 C407 1.574 . S
C424 H418 0.949 . S
C424 C428 1.368 . S
C425 C406 1.429 . S
C425 C419 1.429 . S
C425 C426 1.523 . S
C426 C407 1.368 . S
C426 C420 1.368 . S
C426 C425 1.523 . S
C427 C411 1.429 . S
C427 C423 1.429 . S
C427 C428 1.523 . S
C428 C412 1.368 . S
C428 C424 1.368 . S
C428 C427 1.523 . S
H429 C404 0.950 . S
H430 C406 0.950 . S
H431 C407 0.949 . S
H432 C409 0.950 . S
H433 C411 0.950 . S
C434 C435 1.349 . S
C434 C436 1.327 . S
C434 H459 0.950 . S
C435 C434 1.349 . S
C435 C451 1.349 . S
C436 C434 1.327 . S
C436 C455 1.429 . S
C436 H460 0.950 . S
C437 C454 1.574 . S
C437 C456 1.368 . S
C437 H461 0.949 . S
H438 C442 0.949 . S
C439 C440 1.349 . S
C439 C441 1.327 . S
C439 H462 0.950 . S
C440 C439 1.349 . S
C440 C452 1.349 . S
C441 C439 1.327 . S
C441 C457 1.429 . S
C441 H463 0.950 . S
C442 H438 0.949 . S
C442 C450 1.574 . S
C442 C458 1.368 . S
H443 C451 0.950 . S
H444 C449 0.950 . S
H445 C450 0.949 . S
H446 C452 0.950 . S
H447 C453 0.950 . S
H448 C454 0.949 . S
C449 H444 0.950 . S
C449 C451 1.327 . S
C449 C455 1.429 . S
C450 C442 1.574 . S
C450 H445 0.949 . S
C450 C456 1.368 . S
C451 C435 1.349 . S
C451 H443 0.950 . S
C451 C449 1.327 . S
C452 C440 1.349 . S
C452 H446 0.950 . S
C452 C453 1.327 . S
C453 H447 0.950 . S
C453 C452 1.327 . S
C453 C457 1.429 . S
C454 C437 1.574 . S
C454 H448 0.949 . S
C454 C458 1.368 . S
C455 C436 1.429 . S
C455 C449 1.429 . S
C455 C456 1.523 . S
C456 C437 1.368 . S
C456 C450 1.368 . S
C456 C455 1.523 . S
C457 C441 1.429 . S
C457 C453 1.429 . S
C457 C458 1.523 . S
C458 C442 1.368 . S
C458 C454 1.368 . S
C458 C457 1.523 . S
H459 C434 0.950 . S
H460 C436 0.950 . S
H461 C437 0.949 . S
H462 C439 0.950 . S
H463 C441 0.950 . S
C464 C465 1.349 . S
C464 C466 1.327 . S
C464 H489 0.950 . S
C465 C464 1.349 . S
C465 C481 1.349 . S
C466 C464 1.327 . S
C466 C485 1.429 . S
C466 H490 0.950 1_655 S
C467 C484 1.574 . S
C467 C486 1.368 . S
C467 H491 0.949 . S
H468 C472 0.949 . S
C469 C470 1.349 . S
C469 C471 1.327 . S
C469 H492 0.950 . S
C470 C469 1.349 . S
C470 C482 1.349 . S
C471 C469 1.327 . S
C471 C487 1.429 . S
C471 H493 0.950 1_455 S
C472 H468 0.949 . S
C472 C480 1.574 . S
C472 C488 1.368 . S
H473 C481 0.950 . S
H474 C479 0.950 . S
H475 C480 0.949 . S
H476 C482 0.950 . S
H477 C483 0.950 . S
H478 C484 0.949 . S
C479 H474 0.950 . S
C479 C481 1.327 . S
C479 C485 1.429 . S
C480 C472 1.574 . S
C480 H475 0.949 . S
C480 C486 1.368 1_455 S
C481 C465 1.349 . S
C481 H473 0.950 . S
C481 C479 1.327 . S
C482 C470 1.349 . S
C482 H476 0.950 . S
C482 C483 1.327 . S
C483 H477 0.950 . S
C483 C482 1.327 . S
C483 C487 1.429 . S
C484 C467 1.574 . S
C484 H478 0.949 . S
C484 C488 1.368 1_655 S
C485 C466 1.429 . S
C485 C479 1.429 . S
C485 C486 1.523 . S
C486 C467 1.368 . S
C486 C480 1.368 1_655 S
C486 C485 1.523 . S
C487 C471 1.429 . S
C487 C483 1.429 . S
C487 C488 1.523 . S
C488 C472 1.368 . S
C488 C484 1.368 1_455 S
C488 C487 1.523 . S
H489 C464 0.950 . S
H490 C466 0.950 1_455 S
H491 C467 0.949 . S
H492 C469 0.950 . S
H493 C471 0.950 1_655 S
C494 C495 1.349 . S
C494 C496 1.327 . S
C494 H519 0.950 . S
C495 C494 1.349 . S
C495 C511 1.349 . S
C496 C494 1.327 . S
C496 C515 1.429 . S
C496 H520 0.950 . S
C497 C514 1.574 . S
C497 C516 1.368 . S
C497 H521 0.949 . S
H498 C502 0.949 . S
C499 C500 1.349 . S
C499 C501 1.327 . S
C499 H522 0.950 . S
C500 C499 1.349 . S
C500 C512 1.349 . S
C501 C499 1.327 . S
C501 C517 1.429 . S
C501 H523 0.950 . S
C502 H498 0.949 . S
C502 C510 1.574 . S
C502 C518 1.368 . S
H503 C511 0.950 . S
H504 C509 0.950 . S
H505 C510 0.949 . S
H506 C512 0.950 . S
H507 C513 0.950 . S
H508 C514 0.949 . S
C509 H504 0.950 . S
C509 C511 1.327 . S
C509 C515 1.429 . S
C510 C502 1.574 . S
C510 H505 0.949 . S
C510 C516 1.368 . S
C511 C495 1.349 . S
C511 H503 0.950 . S
C511 C509 1.327 . S
C512 C500 1.349 . S
C512 H506 0.950 . S
C512 C513 1.327 . S
C513 H507 0.950 . S
C513 C512 1.327 . S
C513 C517 1.429 . S
C514 C497 1.574 . S
C514 H508 0.949 . S
C514 C518 1.368 . S
C515 C496 1.429 . S
C515 C509 1.429 . S
C515 C516 1.523 . S
C516 C497 1.368 . S
C516 C510 1.368 . S
C516 C515 1.523 . S
C517 C501 1.429 . S
C517 C513 1.429 . S
C517 C518 1.523 . S
C518 C502 1.368 . S
C518 C514 1.368 . S
C518 C517 1.523 . S
H519 C494 0.950 . S
H520 C496 0.950 . S
H521 C497 0.949 . S
H522 C499 0.950 . S
H523 C501 0.950 . S
C524 C525 1.349 . S
C524 C526 1.327 . S
C524 H549 0.950 . S
C525 C524 1.349 . S
C525 C541 1.349 . S
C526 C524 1.327 . S
C526 C545 1.429 . S
C526 H550 0.950 1_455 S
C527 C544 1.574 . S
C527 C546 1.368 . S
C527 H551 0.949 . S
H528 C532 0.949 . S
C529 C530 1.349 . S
C529 C531 1.327 . S
C529 H552 0.950 . S
C530 C529 1.349 . S
C530 C542 1.349 . S
C531 C529 1.327 . S
C531 C547 1.429 . S
C531 H553 0.950 1_655 S
C532 H528 0.949 . S
C532 C540 1.574 . S
C532 C548 1.368 . S
H533 C541 0.950 . S
H534 C539 0.950 . S
H535 C540 0.949 . S
H536 C542 0.950 . S
H537 C543 0.950 . S
H538 C544 0.949 . S
C539 H534 0.950 . S
C539 C541 1.327 . S
C539 C545 1.429 . S
C540 C532 1.574 . S
C540 H535 0.949 . S
C540 C546 1.368 1_655 S
C541 C525 1.349 . S
C541 H533 0.950 . S
C541 C539 1.327 . S
C542 C530 1.349 . S
C542 H536 0.950 . S
C542 C543 1.327 . S
C543 H537 0.950 . S
C543 C542 1.327 . S
C543 C547 1.429 . S
C544 C527 1.574 . S
C544 H538 0.949 . S
C544 C548 1.368 1_455 S
C545 C526 1.429 . S
C545 C539 1.429 . S
C545 C546 1.523 . S
C546 C527 1.368 . S
C546 C540 1.368 1_455 S
C546 C545 1.523 . S
C547 C531 1.429 . S
C547 C543 1.429 . S
C547 C548 1.523 . S
C548 C532 1.368 . S
C548 C544 1.368 1_655 S
C548 C547 1.523 . S
H549 C524 0.950 . S
H550 C526 0.950 1_655 S
H551 C527 0.949 . S
H552 C529 0.950 . S
H553 C531 0.950 1_455 S
C554 C555 1.349 . S
C554 C556 1.327 . S
C554 H579 0.950 . S
C555 C554 1.349 . S
C555 C571 1.349 . S
C556 C554 1.327 . S
C556 C575 1.429 . S
C556 H580 0.950 . S
C557 C574 1.574 . S
C557 C576 1.368 . S
C557 H581 0.949 . S
H558 C562 0.949 . S
C559 C560 1.349 . S
C559 C561 1.327 . S
C559 H582 0.950 . S
C560 C559 1.349 . S
C560 C572 1.349 . S
C561 C559 1.327 . S
C561 C577 1.429 . S
C561 H583 0.950 . S
C562 H558 0.949 . S
C562 C570 1.574 . S
C562 C578 1.368 . S
H563 C571 0.950 . S
H564 C569 0.950 . S
H565 C570 0.949 . S
H566 C572 0.950 . S
H567 C573 0.950 . S
H568 C574 0.949 . S
C569 H564 0.950 . S
C569 C571 1.327 . S
C569 C575 1.429 . S
C570 C562 1.574 . S
C570 H565 0.949 . S
C570 C576 1.368 . S
C571 C555 1.349 . S
C571 H563 0.950 . S
C571 C569 1.327 . S
C572 C560 1.349 . S
C572 H566 0.950 . S
C572 C573 1.327 . S
C573 H567 0.950 . S
C573 C572 1.327 . S
C573 C577 1.429 . S
C574 C557 1.574 . S
C574 H568 0.949 . S
C574 C578 1.368 . S
C575 C556 1.429 . S
C575 C569 1.429 . S
C575 C576 1.523 . S
C576 C557 1.368 . S
C576 C570 1.368 . S
C576 C575 1.523 . S
C577 C561 1.429 . S
C577 C573 1.429 . S
C577 C578 1.523 . S
C578 C562 1.368 . S
C578 C574 1.368 . S
C578 C577 1.523 . S
H579 C554 0.950 . S
H580 C556 0.950 . S
H581 C557 0.949 . S
H582 C559 0.950 . S
H583 C561 0.950 . S
C584 C585 1.349 . S
C584 C586 1.327 . S
C584 H609 0.950 . S
C585 C584 1.349 . S
C585 C601 1.349 . S
C586 C584 1.327 . S
C586 C605 1.429 . S
C586 H610 0.950 . S
C587 C604 1.574 . S
C587 C606 1.368 . S
C587 H611 0.949 . S
H588 C592 0.949 . S
C589 C590 1.349 . S
C589 C591 1.327 . S
C589 H612 0.950 . S
C590 C589 1.349 . S
C590 C602 1.349 . S
C591 C589 1.327 . S
C591 C607 1.429 . S
C591 H613 0.950 . S
C592 H588 0.949 . S
C592 C600 1.574 . S
C592 C608 1.368 . S
H593 C601 0.950 . S
H594 C599 0.950 . S
H595 C600 0.949 . S
H596 C602 0.950 . S
H597 C603 0.950 . S
H598 C604 0.949 . S
C599 H594 0.950 . S
C599 C601 1.327 . S
C599 C605 1.429 . S
C600 C592 1.574 . S
C600 H595 0.949 . S
C600 C606 1.368 . S
C601 C585 1.349 . S
C601 H593 0.950 . S
C601 C599 1.327 . S
C602 C590 1.349 . S
C602 H596 0.950 . S
C602 C603 1.327 . S
C603 H597 0.950 . S
C603 C602 1.327 . S
C603 C607 1.429 . S
C604 C587 1.574 . S
C604 H598 0.949 . S
C604 C608 1.368 . S
C605 C586 1.429 . S
C605 C599 1.429 . S
C605 C606 1.523 . S
C606 C587 1.368 . S
C606 C600 1.368 . S
C606 C605 1.523 . S
C607 C591 1.429 . S
C607 C603 1.429 . S
C607 C608 1.523 . S
C608 C592 1.368 . S
C608 C604 1.368 . S
C608 C607 1.523 . S
H609 C584 0.950 . S
H610 C586 0.950 . S
H611 C587 0.949 . S
H612 C589 0.950 . S
H613 C591 0.950 . S
C614 C615 1.349 . S
C614 C616 1.327 . S
C614 H639 0.950 . S
C615 C614 1.349 . S
C615 C631 1.349 . S
C616 C614 1.327 . S
C616 C635 1.429 . S
C616 H640 0.950 1_455 S
C617 C634 1.574 . S
C617 C636 1.368 . S
C617 H641 0.949 . S
H618 C622 0.949 . S
C619 C620 1.349 . S
C619 C621 1.327 . S
C619 H642 0.950 . S
C620 C619 1.349 . S
C620 C632 1.349 . S
C621 C619 1.327 . S
C621 C637 1.429 . S
C621 H643 0.950 1_655 S
C622 H618 0.949 . S
C622 C630 1.574 . S
C622 C638 1.368 . S
H623 C631 0.950 . S
H624 C629 0.950 . S
H625 C630 0.949 . S
H626 C632 0.950 . S
H627 C633 0.950 . S
H628 C634 0.949 . S
C629 H624 0.950 . S
C629 C631 1.327 . S
C629 C635 1.429 . S
C630 C622 1.574 . S
C630 H625 0.949 . S
C630 C636 1.368 1_655 S
C631 C615 1.349 . S
C631 H623 0.950 . S
C631 C629 1.327 . S
C632 C620 1.349 . S
C632 H626 0.950 . S
C632 C633 1.327 . S
C633 H627 0.950 . S
C633 C632 1.327 . S
C633 C637 1.429 . S
C634 C617 1.574 . S
C634 H628 0.949 . S
C634 C638 1.368 1_455 S
C635 C616 1.429 . S
C635 C629 1.429 . S
C635 C636 1.523 . S
C636 C617 1.368 . S
C636 C630 1.368 1_455 S
C636 C635 1.523 . S
C637 C621 1.429 . S
C637 C633 1.429 . S
C637 C638 1.523 . S
C638 C622 1.368 . S
C638 C634 1.368 1_655 S
C638 C637 1.523 . S
H639 C614 0.950 . S
H640 C616 0.950 1_655 S
H641 C617 0.949 . S
H642 C619 0.950 . S
H643 C621 0.950 1_455 S
C644 C645 1.349 . S
C644 C646 1.327 . S
C644 H669 0.950 . S
C645 C644 1.349 . S
C645 C661 1.349 . S
C646 C644 1.327 . S
C646 C665 1.429 . S
C646 H670 0.950 . S
C647 C664 1.574 . S
C647 C666 1.368 . S
C647 H671 0.949 . S
H648 C652 0.949 . S
C649 C650 1.349 . S
C649 C651 1.327 . S
C649 H672 0.950 . S
C650 C649 1.349 . S
C650 C662 1.349 . S
C651 C649 1.327 . S
C651 C667 1.429 . S
C651 H673 0.950 . S
C652 H648 0.949 . S
C652 C660 1.574 . S
C652 C668 1.368 . S
H653 C661 0.950 . S
H654 C659 0.950 . S
H655 C660 0.949 . S
H656 C662 0.950 . S
H657 C663 0.950 . S
H658 C664 0.949 . S
C659 H654 0.950 . S
C659 C661 1.327 . S
C659 C665 1.429 . S
C660 C652 1.574 . S
C660 H655 0.949 . S
C660 C666 1.368 . S
C661 C645 1.349 . S
C661 H653 0.950 . S
C661 C659 1.327 . S
C662 C650 1.349 . S
C662 H656 0.950 . S
C662 C663 1.327 . S
C663 H657 0.950 . S
C663 C662 1.327 . S
C663 C667 1.429 . S
C664 C647 1.574 . S
C664 H658 0.949 . S
C664 C668 1.368 . S
C665 C646 1.429 . S
C665 C659 1.429 . S
C665 C666 1.523 . S
C666 C647 1.368 . S
C666 C660 1.368 . S
C666 C665 1.523 . S
C667 C651 1.429 . S
C667 C663 1.429 . S
C667 C668 1.523 . S
C668 C652 1.368 . S
C668 C664 1.368 . S
C668 C667 1.523 . S
H669 C644 0.950 . S
H670 C646 0.950 . S
H671 C647 0.949 . S
H672 C649 0.950 . S
H673 C651 0.950 . S
C674 C675 1.349 . S
C674 C676 1.327 . S
C674 H699 0.950 . S
C675 C674 1.349 . S
C675 C691 1.349 . S
C676 C674 1.327 . S
C676 C695 1.429 . S
C676 H700 0.950 1_455 S
C677 C694 1.574 . S
C677 C696 1.368 . S
C677 H701 0.949 . S
H678 C682 0.949 . S
C679 C680 1.349 . S
C679 C681 1.327 . S
C679 H702 0.950 . S
C680 C679 1.349 . S
C680 C692 1.349 . S
C681 C679 1.327 . S
C681 C697 1.429 . S
C681 H703 0.950 1_655 S
C682 H678 0.949 . S
C682 C690 1.574 . S
C682 C698 1.368 . S
H683 C691 0.950 . S
H684 C689 0.950 . S
H685 C690 0.949 . S
H686 C692 0.950 . S
H687 C693 0.950 . S
H688 C694 0.949 . S
C689 H684 0.950 . S
C689 C691 1.327 . S
C689 C695 1.429 . S
C690 C682 1.574 . S
C690 H685 0.949 . S
C690 C696 1.368 1_655 S
C691 C675 1.349 . S
C691 H683 0.950 . S
C691 C689 1.327 . S
C692 C680 1.349 . S
C692 H686 0.950 . S
C692 C693 1.327 . S
C693 H687 0.950 . S
C693 C692 1.327 . S
C693 C697 1.429 . S
C694 C677 1.574 . S
C694 H688 0.949 . S
C694 C698 1.368 1_455 S
C695 C676 1.429 . S
C695 C689 1.429 . S
C695 C696 1.523 . S
C696 C677 1.368 . S
C696 C690 1.368 1_455 S
C696 C695 1.523 . S
C697 C681 1.429 . S
C697 C693 1.429 . S
C697 C698 1.523 . S
C698 C682 1.368 . S
C698 C694 1.368 1_655 S
C698 C697 1.523 . S
H699 C674 0.950 . S
H700 C676 0.950 1_655 S
H701 C677 0.949 . S
H702 C679 0.950 . S
H703 C681 0.950 1_455 S
C704 C705 1.349 . S
C704 C706 1.327 . S
C704 H729 0.950 . S
C705 C704 1.349 . S
C705 C721 1.349 . S
C706 C704 1.327 . S
C706 C725 1.429 . S
C706 H730 0.950 . S
C707 C724 1.574 . S
C707 C726 1.368 1_655 S
C707 H731 0.949 . S
H708 C712 0.949 . S
C709 C710 1.349 . S
C709 C711 1.327 . S
C709 H732 0.950 . S
C710 C709 1.349 . S
C710 C722 1.349 . S
C711 C709 1.327 . S
C711 C727 1.429 . S
C711 H733 0.950 . S
C712 H708 0.949 . S
C712 C720 1.574 . S
C712 C728 1.368 1_455 S
H713 C721 0.950 . S
H714 C719 0.950 1_655 S
H715 C720 0.949 . S
H716 C722 0.950 . S
H717 C723 0.950 1_455 S
H718 C724 0.949 . S
C719 H714 0.950 1_455 S
C719 C721 1.327 . S
C719 C725 1.429 . S
C720 C712 1.574 . S
C720 H715 0.949 . S
C720 C726 1.368 . S
C721 C705 1.349 . S
C721 H713 0.950 . S
C721 C719 1.327 . S
C722 C710 1.349 . S
C722 H716 0.950 . S
C722 C723 1.327 . S
C723 H717 0.950 1_655 S
C723 C722 1.327 . S
C723 C727 1.429 . S
C724 C707 1.574 . S
C724 H718 0.949 . S
C724 C728 1.368 . S
C725 C706 1.429 . S
C725 C719 1.429 . S
C725 C726 1.523 . S
C726 C707 1.368 1_455 S
C726 C720 1.368 . S
C726 C725 1.523 . S
C727 C711 1.429 . S
C727 C723 1.429 . S
C727 C728 1.523 . S
C728 C712 1.368 1_655 S
C728 C724 1.368 . S
C728 C727 1.523 . S
H729 C704 0.950 . S
H730 C706 0.950 . S
H731 C707 0.949 . S
H732 C709 0.950 . S
H733 C711 0.950 . S
C734 C735 1.349 . S
C734 C736 1.327 . S
C734 H759 0.950 . S
C735 C734 1.349 . S
C735 C751 1.349 . S
C736 C734 1.327 . S
C736 C755 1.429 . S
C736 H760 0.950 . S
C737 C754 1.574 . S
C737 C756 1.368 . S
C737 H761 0.949 . S
H738 C742 0.949 . S
C739 C740 1.349 . S
C739 C741 1.327 . S
C739 H762 0.950 . S
C740 C739 1.349 . S
C740 C752 1.349 . S
C741 C739 1.327 . S
C741 C757 1.429 . S
C741 H763 0.950 . S
C742 H738 0.949 . S
C742 C750 1.574 . S
C742 C758 1.368 . S
H743 C751 0.950 . S
H744 C749 0.950 . S
H745 C750 0.949 . S
H746 C752 0.950 . S
H747 C753 0.950 . S
H748 C754 0.949 . S
C749 H744 0.950 . S
C749 C751 1.327 . S
C749 C755 1.429 . S
C750 C742 1.574 . S
C750 H745 0.949 . S
C750 C756 1.368 . S
C751 C735 1.349 . S
C751 H743 0.950 . S
C751 C749 1.327 . S
C752 C740 1.349 . S
C752 H746 0.950 . S
C752 C753 1.327 . S
C753 H747 0.950 . S
C753 C752 1.327 . S
C753 C757 1.429 . S
C754 C737 1.574 . S
C754 H748 0.949 . S
C754 C758 1.368 . S
C755 C736 1.429 . S
C755 C749 1.429 . S
C755 C756 1.523 . S
C756 C737 1.368 . S
C756 C750 1.368 . S
C756 C755 1.523 . S
C757 C741 1.429 . S
C757 C753 1.429 . S
C757 C758 1.523 . S
C758 C742 1.368 . S
C758 C754 1.368 . S
C758 C757 1.523 . S
H759 C734 0.950 . S
H760 C736 0.950 . S
H761 C737 0.949 . S
H762 C739 0.950 . S
H763 C741 0.950 . S
C764 C765 1.349 . S
C764 C766 1.327 . S
C764 H789 0.950 . S
C765 C764 1.349 . S
C765 C781 1.349 . S
C766 C764 1.327 . S
C766 C785 1.429 . S
C766 H790 0.950 . S
C767 C784 1.574 . S
C767 C786 1.368 . S
C767 H791 0.949 . S
H768 C772 0.949 . S
C769 C770 1.349 . S
C769 C771 1.327 . S
C769 H792 0.950 . S
C770 C769 1.349 . S
C770 C782 1.349 . S
C771 C769 1.327 . S
C771 C787 1.429 . S
C771 H793 0.950 . S
C772 H768 0.949 . S
C772 C780 1.574 . S
C772 C788 1.368 . S
H773 C781 0.950 . S
H774 C779 0.950 . S
H775 C780 0.949 . S
H776 C782 0.950 . S
H777 C783 0.950 . S
H778 C784 0.949 . S
C779 H774 0.950 . S
C779 C781 1.327 . S
C779 C785 1.429 . S
C780 C772 1.574 . S
C780 H775 0.949 . S
C780 C786 1.368 . S
C781 C765 1.349 . S
C781 H773 0.950 . S
C781 C779 1.327 . S
C782 C770 1.349 . S
C782 H776 0.950 . S
C782 C783 1.327 . S
C783 H777 0.950 . S
C783 C782 1.327 . S
C783 C787 1.429 . S
C784 C767 1.574 . S
C784 H778 0.949 . S
C784 C788 1.368 . S
C785 C766 1.429 . S
C785 C779 1.429 . S
C785 C786 1.523 . S
C786 C767 1.368 . S
C786 C780 1.368 . S
C786 C785 1.523 . S
C787 C771 1.429 . S
C787 C783 1.429 . S
C787 C788 1.523 . S
C788 C772 1.368 . S
C788 C784 1.368 . S
C788 C787 1.523 . S
H789 C764 0.950 . S
H790 C766 0.950 . S
H791 C767 0.949 . S
H792 C769 0.950 . S
H793 C771 0.950 . S
C794 C795 1.349 . S
C794 C796 1.327 . S
C794 H819 0.950 . S
C795 C794 1.349 . S
C795 C811 1.349 . S
C796 C794 1.327 . S
C796 C815 1.429 . S
C796 H820 0.950 1_455 S
C797 C814 1.574 . S
C797 C816 1.368 . S
C797 H821 0.949 . S
H798 C802 0.949 . S
C799 C800 1.349 . S
C799 C801 1.327 . S
C799 H822 0.950 . S
C800 C799 1.349 . S
C800 C812 1.349 . S
C801 C799 1.327 . S
C801 C817 1.429 . S
C801 H823 0.950 1_655 S
C802 H798 0.949 . S
C802 C810 1.574 . S
C802 C818 1.368 . S
H803 C811 0.950 . S
H804 C809 0.950 . S
H805 C810 0.949 . S
H806 C812 0.950 . S
H807 C813 0.950 . S
H808 C814 0.949 . S
C809 H804 0.950 . S
C809 C811 1.327 . S
C809 C815 1.429 . S
C810 C802 1.574 . S
C810 H805 0.949 . S
C810 C816 1.368 1_655 S
C811 C795 1.349 . S
C811 H803 0.950 . S
C811 C809 1.327 . S
C812 C800 1.349 . S
C812 H806 0.950 . S
C812 C813 1.327 . S
C813 H807 0.950 . S
C813 C812 1.327 . S
C813 C817 1.429 . S
C814 C797 1.574 . S
C814 H808 0.949 . S
C814 C818 1.368 1_455 S
C815 C796 1.429 . S
C815 C809 1.429 . S
C815 C816 1.523 . S
C816 C797 1.368 . S
C816 C810 1.368 1_455 S
C816 C815 1.523 . S
C817 C801 1.429 . S
C817 C813 1.429 . S
C817 C818 1.523 . S
C818 C802 1.368 . S
C818 C814 1.368 1_655 S
C818 C817 1.523 . S
H819 C794 0.950 . S
H820 C796 0.950 1_655 S
H821 C797 0.949 . S
H822 C799 0.950 . S
H823 C801 0.950 1_455 S
C824 C825 1.349 . S
C824 C826 1.327 . S
C824 H849 0.950 . S
C825 C824 1.349 . S
C825 C841 1.349 . S
C826 C824 1.327 . S
C826 C845 1.429 . S
C826 H850 0.950 . S
C827 C844 1.574 . S
C827 C846 1.368 1_655 S
C827 H851 0.949 . S
H828 C832 0.949 . S
C829 C830 1.349 . S
C829 C831 1.327 . S
C829 H852 0.950 . S
C830 C829 1.349 . S
C830 C842 1.349 . S
C831 C829 1.327 . S
C831 C847 1.429 . S
C831 H853 0.950 . S
C832 H828 0.949 . S
C832 C840 1.574 . S
C832 C848 1.368 1_455 S
H833 C841 0.950 . S
H834 C839 0.950 1_655 S
H835 C840 0.949 . S
H836 C842 0.950 . S
H837 C843 0.950 1_455 S
H838 C844 0.949 . S
C839 H834 0.950 1_455 S
C839 C841 1.327 . S
C839 C845 1.429 . S
C840 C832 1.574 . S
C840 H835 0.949 . S
C840 C846 1.368 . S
C841 C825 1.349 . S
C841 H833 0.950 . S
C841 C839 1.327 . S
C842 C830 1.349 . S
C842 H836 0.950 . S
C842 C843 1.327 . S
C843 H837 0.950 1_655 S
C843 C842 1.327 . S
C843 C847 1.429 . S
C844 C827 1.574 . S
C844 H838 0.949 . S
C844 C848 1.368 . S
C845 C826 1.429 . S
C845 C839 1.429 . S
C845 C846 1.523 . S
C846 C827 1.368 1_455 S
C846 C840 1.368 . S
C846 C845 1.523 . S
C847 C831 1.429 . S
C847 C843 1.429 . S
C847 C848 1.523 . S
C848 C832 1.368 1_655 S
C848 C844 1.368 . S
C848 C847 1.523 . S
H849 C824 0.950 . S
H850 C826 0.950 . S
H851 C827 0.949 . S
H852 C829 0.950 . S
H853 C831 0.950 . S
C854 C855 1.349 . S
C854 C856 1.327 . S
C854 H879 0.950 . S
C855 C854 1.349 . S
C855 C871 1.349 . S
C856 C854 1.327 . S
C856 C875 1.429 . S
C856 H880 0.950 . S
C857 C874 1.574 . S
C857 C876 1.368 . S
C857 H881 0.949 . S
H858 C862 0.949 . S
C859 C860 1.349 . S
C859 C861 1.327 . S
C859 H882 0.950 . S
C860 C859 1.349 . S
C860 C872 1.349 . S
C861 C859 1.327 . S
C861 C877 1.429 . S
C861 H883 0.950 . S
C862 H858 0.949 . S
C862 C870 1.574 . S
C862 C878 1.368 . S
H863 C871 0.950 . S
H864 C869 0.950 . S
H865 C870 0.949 . S
H866 C872 0.950 . S
H867 C873 0.950 . S
H868 C874 0.949 . S
C869 H864 0.950 . S
C869 C871 1.327 . S
C869 C875 1.429 . S
C870 C862 1.574 . S
C870 H865 0.949 . S
C870 C876 1.368 . S
C871 C855 1.349 . S
C871 H863 0.950 . S
C871 C869 1.327 . S
C872 C860 1.349 . S
C872 H866 0.950 . S
C872 C873 1.327 . S
C873 H867 0.950 . S
C873 C872 1.327 . S
C873 C877 1.429 . S
C874 C857 1.574 . S
C874 H868 0.949 . S
C874 C878 1.368 . S
C875 C856 1.429 . S
C875 C869 1.429 . S
C875 C876 1.523 . S
C876 C857 1.368 . S
C876 C870 1.368 . S
C876 C875 1.523 . S
C877 C861 1.429 . S
C877 C873 1.429 . S
C877 C878 1.523 . S
C878 C862 1.368 . S
C878 C874 1.368 . S
C878 C877 1.523 . S
H879 C854 0.950 . S
H880 C856 0.950 . S
H881 C857 0.949 . S
H882 C859 0.950 . S
H883 C861 0.950 . S
C884 C885 1.349 . S
C884 C886 1.327 . S
C884 H909 0.950 . S
C885 C884 1.349 . S
C885 C901 1.349 . S
C886 C884 1.327 . S
C886 C905 1.429 . S
C886 H910 0.950 . S
C887 C904 1.574 . S
C887 C906 1.368 . S
C887 H911 0.949 . S
H888 C892 0.949 . S
C889 C890 1.349 . S
C889 C891 1.327 . S
C889 H912 0.950 . S
C890 C889 1.349 . S
C890 C902 1.349 . S
C891 C889 1.327 . S
C891 C907 1.429 . S
C891 H913 0.950 . S
C892 H888 0.949 . S
C892 C900 1.574 . S
C892 C908 1.368 . S
H893 C901 0.950 . S
H894 C899 0.950 . S
H895 C900 0.949 . S
H896 C902 0.950 . S
H897 C903 0.950 . S
H898 C904 0.949 . S
C899 H894 0.950 . S
C899 C901 1.327 . S
C899 C905 1.429 . S
C900 C892 1.574 . S
C900 H895 0.949 . S
C900 C906 1.368 . S
C901 C885 1.349 . S
C901 H893 0.950 . S
C901 C899 1.327 . S
C902 C890 1.349 . S
C902 H896 0.950 . S
C902 C903 1.327 . S
C903 H897 0.950 . S
C903 C902 1.327 . S
C903 C907 1.429 . S
C904 C887 1.574 . S
C904 H898 0.949 . S
C904 C908 1.368 . S
C905 C886 1.429 . S
C905 C899 1.429 . S
C905 C906 1.523 . S
C906 C887 1.368 . S
C906 C900 1.368 . S
C906 C905 1.523 . S
C907 C891 1.429 . S
C907 C903 1.429 . S
C907 C908 1.523 . S
C908 C892 1.368 . S
C908 C904 1.368 . S
C908 C907 1.523 . S
H909 C884 0.950 . S
H910 C886 0.950 . S
H911 C887 0.949 . S
H912 C889 0.950 . S
H913 C891 0.950 . S
C914 C915 1.349 . S
C914 C916 1.327 . S
C914 H939 0.950 . S
C915 C914 1.349 . S
C915 C931 1.349 . S
C916 C914 1.327 . S
C916 C935 1.429 . S
C916 H940 0.950 1_455 S
C917 C934 1.574 . S
C917 C936 1.368 . S
C917 H941 0.949 . S
H918 C922 0.949 . S
C919 C920 1.349 . S
C919 C921 1.327 . S
C919 H942 0.950 . S
C920 C919 1.349 . S
C920 C932 1.349 . S
C921 C919 1.327 . S
C921 C937 1.429 . S
C921 H943 0.950 1_655 S
C922 H918 0.949 . S
C922 C930 1.574 . S
C922 C938 1.368 . S
H923 C931 0.950 . S
H924 C929 0.950 . S
H925 C930 0.949 . S
H926 C932 0.950 . S
H927 C933 0.950 . S
H928 C934 0.949 . S
C929 H924 0.950 . S
C929 C931 1.327 . S
C929 C935 1.429 . S
C930 C922 1.574 . S
C930 H925 0.949 . S
C930 C936 1.368 1_655 S
C931 C915 1.349 . S
C931 H923 0.950 . S
C931 C929 1.327 . S
C932 C920 1.349 . S
C932 H926 0.950 . S
C932 C933 1.327 . S
C933 H927 0.950 . S
C933 C932 1.327 . S
C933 C937 1.429 . S
C934 C917 1.574 . S
C934 H928 0.949 . S
C934 C938 1.368 1_455 S
C935 C916 1.429 . S
C935 C929 1.429 . S
C935 C936 1.523 . S
C936 C917 1.368 . S
C936 C930 1.368 1_455 S
C936 C935 1.523 . S
C937 C921 1.429 . S
C937 C933 1.429 . S
C937 C938 1.523 . S
C938 C922 1.368 . S
C938 C934 1.368 1_655 S
C938 C937 1.523 . S
H939 C914 0.950 . S
H940 C916 0.950 1_655 S
H941 C917 0.949 . S
H942 C919 0.950 . S
H943 C921 0.950 1_455 S
C944 C945 1.349 . S
C944 C946 1.327 . S
C944 H969 0.962 . S
C945 C944 1.349 . S
C945 C961 1.349 . S
C946 C944 1.327 . S
C946 C965 1.429 . S
C946 H970 0.950 1_565 S
C947 C964 1.574 1_656 S
C947 C966 1.368 . S
C947 H971 0.949 . S
H948 C952 0.949 . S
C949 C950 1.349 . S
C949 C951 1.327 . S
C949 H972 0.962 . S
C950 C949 1.349 . S
C950 C962 1.349 . S
C951 C949 1.327 . S
C951 C967 1.429 . S
C951 H973 0.950 1_545 S
C952 H948 0.949 . S
C952 C960 1.574 1_454 S
C952 C968 1.368 . S
H953 C961 0.950 . S
H954 C959 0.950 . S
H955 C960 0.949 . S
H956 C962 0.950 . S
H957 C963 0.950 . S
H958 C964 0.949 . S
C959 H954 0.950 . S
C959 C961 1.327 . S
C959 C965 1.429 . S
C960 C952 1.574 1_656 S
C960 H955 0.949 . S
C960 C966 1.368 1_545 S
C961 C945 1.349 . S
C961 H953 0.950 . S
C961 C959 1.327 . S
C962 C950 1.349 . S
C962 H956 0.950 . S
C962 C963 1.327 . S
C963 H957 0.950 . S
C963 C962 1.327 . S
C963 C967 1.429 . S
C964 C947 1.574 1_454 S
C964 H958 0.949 . S
C964 C968 1.368 1_565 S
C965 C946 1.429 . S
C965 C959 1.429 . S
C965 C966 1.523 . S
C966 C947 1.368 . S
C966 C960 1.368 1_565 S
C966 C965 1.523 . S
C967 C951 1.429 . S
C967 C963 1.429 . S
C967 C968 1.523 . S
C968 C952 1.368 . S
C968 C964 1.368 1_545 S
C968 C967 1.523 . S
H969 C944 0.962 . S
H970 C946 0.950 1_545 S
H971 C947 0.949 . S
H972 C949 0.962 . S
H973 C951 0.950 1_565 S
C974 C975 1.349 . S
C974 C976 1.327 . S
C974 H999 0.950 . S
C975 C974 1.349 . S
C975 C991 1.349 . S
C976 C974 1.327 . S
C976 C995 1.429 . S
C976 H1000 0.950 1_545 S
C977 C994 1.574 1_556 S
C977 C996 1.368 . S
C977 H1001 0.949 . S
H978 C982 0.949 . S
C979 C980 1.349 . S
C979 C981 1.327 . S
C979 H1002 0.950 . S
C980 C979 1.349 . S
C980 C992 1.349 . S
C981 C979 1.327 . S
C981 C997 1.429 . S
C981 H1003 0.950 1_565 S
C982 H978 0.949 . S
C982 C990 1.574 1_554 S
C982 C998 1.368 . S
H983 C991 0.950 . S
H984 C989 0.950 . S
H985 C990 0.949 . S
H986 C992 0.950 . S
H987 C993 0.950 . S
H988 C994 0.949 . S
C989 H984 0.950 . S
C989 C991 1.327 . S
C989 C995 1.429 . S
C990 C982 1.574 1_556 S
C990 H985 0.949 . S
C990 C996 1.368 1_565 S
C991 C975 1.349 . S
C991 H983 0.950 . S
C991 C989 1.327 . S
C992 C980 1.349 . S
C992 H986 0.950 . S
C992 C993 1.327 . S
C993 H987 0.950 . S
C993 C992 1.327 . S
C993 C997 1.429 . S
C994 C977 1.574 1_554 S
C994 H988 0.949 . S
C994 C998 1.368 1_545 S
C995 C976 1.429 . S
C995 C989 1.429 . S
C995 C996 1.523 . S
C996 C977 1.368 . S
C996 C990 1.368 1_545 S
C996 C995 1.523 . S
C997 C981 1.429 . S
C997 C993 1.429 . S
C997 C998 1.523 . S
C998 C982 1.368 . S
C998 C994 1.368 1_565 S
C998 C997 1.523 . S
H999 C974 0.950 . S
H1000 C976 0.950 1_565 S
H1001 C977 0.949 . S
H1002 C979 0.950 . S
H1003 C981 0.950 1_545 S
C1004 C1005 1.349 . S
C1004 C1006 1.327 . S
C1004 H1029 0.950 . S
C1005 C1004 1.349 . S
C1005 C1021 1.349 . S
C1006 C1004 1.327 . S
C1006 C1025 1.429 . S
C1006 H1030 0.950 1_545 S
C1007 C1024 1.574 . S
C1007 C1026 1.368 . S
C1007 H1031 0.949 . S
H1008 C1012 0.949 . S
C1009 C1010 1.349 . S
C1009 C1011 1.327 . S
C1009 H1032 0.950 . S
C1010 C1009 1.349 . S
C1010 C1022 1.349 . S
C1011 C1009 1.327 . S
C1011 C1027 1.429 . S
C1011 H1033 0.950 1_565 S
C1012 H1008 0.949 . S
C1012 C1020 1.574 . S
C1012 C1028 1.368 . S
H1013 C1021 0.950 . S
H1014 C1019 0.950 . S
H1015 C1020 0.949 . S
H1016 C1022 0.950 . S
H1017 C1023 0.950 . S
H1018 C1024 0.949 . S
C1019 H1014 0.950 . S
C1019 C1021 1.327 . S
C1019 C1025 1.429 . S
C1020 C1012 1.574 . S
C1020 H1015 0.949 . S
C1020 C1026 1.368 1_565 S
C1021 C1005 1.349 . S
C1021 H1013 0.950 . S
C1021 C1019 1.327 . S
C1022 C1010 1.349 . S
C1022 H1016 0.950 . S
C1022 C1023 1.327 . S
C1023 H1017 0.950 . S
C1023 C1022 1.327 . S
C1023 C1027 1.429 . S
C1024 C1007 1.574 . S
C1024 H1018 0.949 . S
C1024 C1028 1.368 1_545 S
C1025 C1006 1.429 . S
C1025 C1019 1.429 . S
C1025 C1026 1.523 . S
C1026 C1007 1.368 . S
C1026 C1020 1.368 1_545 S
C1026 C1025 1.523 . S
C1027 C1011 1.429 . S
C1027 C1023 1.429 . S
C1027 C1028 1.523 . S
C1028 C1012 1.368 . S
C1028 C1024 1.368 1_565 S
C1028 C1027 1.523 . S
H1029 C1004 0.950 . S
H1030 C1006 0.950 1_565 S
H1031 C1007 0.949 . S
H1032 C1009 0.950 . S
H1033 C1011 0.950 1_545 S
C1034 C1035 1.349 . S
C1034 C1036 1.327 . S
C1034 H1059 0.950 . S
C1035 C1034 1.349 . S
C1035 C1051 1.349 . S
C1036 C1034 1.327 . S
C1036 C1055 1.429 . S
C1036 H1060 0.950 1_565 S
C1037 C1054 1.574 . S
C1037 C1056 1.368 1_655 S
C1037 H1061 0.949 . S
H1038 C1042 0.949 . S
C1039 C1040 1.349 . S
C1039 C1041 1.327 . S
C1039 H1062 0.950 . S
C1040 C1039 1.349 . S
C1040 C1052 1.349 . S
C1041 C1039 1.327 . S
C1041 C1057 1.429 . S
C1041 H1063 0.950 1_545 S
C1042 H1038 0.949 . S
C1042 C1050 1.574 . S
C1042 C1058 1.368 1_455 S
H1043 C1051 0.950 . S
H1044 C1049 0.950 1_655 S
H1045 C1050 0.949 . S
H1046 C1052 0.950 . S
H1047 C1053 0.950 1_455 S
H1048 C1054 0.949 . S
C1049 H1044 0.950 1_455 S
C1049 C1051 1.327 . S
C1049 C1055 1.429 . S
C1050 C1042 1.574 . S
C1050 H1045 0.949 . S
C1050 C1056 1.368 1_545 S
C1051 C1035 1.349 . S
C1051 H1043 0.950 . S
C1051 C1049 1.327 . S
C1052 C1040 1.349 . S
C1052 H1046 0.950 . S
C1052 C1053 1.327 . S
C1053 H1047 0.950 1_655 S
C1053 C1052 1.327 . S
C1053 C1057 1.429 . S
C1054 C1037 1.574 . S
C1054 H1048 0.949 . S
C1054 C1058 1.368 1_565 S
C1055 C1036 1.429 . S
C1055 C1049 1.429 . S
C1055 C1056 1.523 . S
C1056 C1037 1.368 1_455 S
C1056 C1050 1.368 1_565 S
C1056 C1055 1.523 . S
C1057 C1041 1.429 . S
C1057 C1053 1.429 . S
C1057 C1058 1.523 . S
C1058 C1042 1.368 1_655 S
C1058 C1054 1.368 1_545 S
C1058 C1057 1.523 . S
H1059 C1034 0.950 . S
H1060 C1036 0.950 1_545 S
H1061 C1037 0.949 . S
H1062 C1039 0.950 . S
H1063 C1041 0.950 1_565 S
C1064 C1065 1.349 . S
C1064 C1066 1.327 . S
C1064 H1089 0.950 . S
C1065 C1064 1.349 . S
C1065 C1081 1.349 . S
C1066 C1064 1.327 . S
C1066 C1085 1.429 . S
C1066 H1090 0.950 . S
C1067 C1084 1.574 1_554 S
C1067 C1086 1.368 . S
C1067 H1091 0.949 . S
H1068 C1072 0.949 . S
C1069 C1070 1.349 . S
C1069 C1071 1.327 . S
C1069 H1092 0.950 . S
C1070 C1069 1.349 . S
C1070 C1082 1.349 . S
C1071 C1069 1.327 . S
C1071 C1087 1.429 . S
C1071 H1093 0.950 . S
C1072 H1068 0.949 . S
C1072 C1080 1.574 1_556 S
C1072 C1088 1.368 . S
H1073 C1081 0.950 . S
H1074 C1079 0.950 . S
H1075 C1080 0.949 . S
H1076 C1082 0.950 . S
H1077 C1083 0.950 . S
H1078 C1084 0.949 . S
C1079 H1074 0.950 . S
C1079 C1081 1.327 . S
C1079 C1085 1.429 . S
C1080 C1072 1.574 1_554 S
C1080 H1075 0.949 . S
C1080 C1086 1.368 . S
C1081 C1065 1.349 . S
C1081 H1073 0.950 . S
C1081 C1079 1.327 . S
C1082 C1070 1.349 . S
C1082 H1076 0.950 . S
C1082 C1083 1.327 . S
C1083 H1077 0.950 . S
C1083 C1082 1.327 . S
C1083 C1087 1.429 . S
C1084 C1067 1.574 1_556 S
C1084 H1078 0.949 . S
C1084 C1088 1.368 . S
C1085 C1066 1.429 . S
C1085 C1079 1.429 . S
C1085 C1086 1.523 . S
C1086 C1067 1.368 . S
C1086 C1080 1.368 . S
C1086 C1085 1.523 . S
C1087 C1071 1.429 . S
C1087 C1083 1.429 . S
C1087 C1088 1.523 . S
C1088 C1072 1.368 . S
C1088 C1084 1.368 . S
C1088 C1087 1.523 . S
H1089 C1064 0.950 . S
H1090 C1066 0.950 . S
H1091 C1067 0.949 . S
H1092 C1069 0.950 . S
H1093 C1071 0.950 . S
C1094 C1095 1.349 . S
C1094 C1096 1.327 . S
C1094 H1119 0.950 . S
C1095 C1094 1.349 . S
C1095 C1111 1.349 . S
C1096 C1094 1.327 . S
C1096 C1115 1.429 . S
C1096 H1120 0.950 . S
C1097 C1114 1.574 1_554 S
C1097 C1116 1.368 1_455 S
C1097 H1121 0.949 . S
H1098 C1102 0.949 . S
C1099 C1100 1.349 . S
C1099 C1101 1.327 . S
C1099 H1122 0.950 . S
C1100 C1099 1.349 . S
C1100 C1112 1.349 . S
C1101 C1099 1.327 . S
C1101 C1117 1.429 . S
C1101 H1123 0.950 . S
C1102 H1098 0.949 . S
C1102 C1110 1.574 1_556 S
C1102 C1118 1.368 1_655 S
H1103 C1111 0.950 . S
H1104 C1109 0.950 . S
H1105 C1110 0.949 . S
H1106 C1112 0.950 . S
H1107 C1113 0.950 . S
H1108 C1114 0.949 . S
C1109 H1104 0.950 . S
C1109 C1111 1.327 . S
C1109 C1115 1.429 . S
C1110 C1102 1.574 1_554 S
C1110 H1105 0.949 . S
C1110 C1116 1.368 . S
C1111 C1095 1.349 . S
C1111 H1103 0.950 . S
C1111 C1109 1.327 . S
C1112 C1100 1.349 . S
C1112 H1106 0.950 . S
C1112 C1113 1.327 . S
C1113 H1107 0.950 . S
C1113 C1112 1.327 . S
C1113 C1117 1.429 . S
C1114 C1097 1.574 1_556 S
C1114 H1108 0.949 . S
C1114 C1118 1.368 . S
C1115 C1096 1.429 . S
C1115 C1109 1.429 . S
C1115 C1116 1.523 . S
C1116 C1097 1.368 1_655 S
C1116 C1110 1.368 . S
C1116 C1115 1.523 . S
C1117 C1101 1.429 . S
C1117 C1113 1.429 . S
C1117 C1118 1.523 . S
C1118 C1102 1.368 1_455 S
C1118 C1114 1.368 . S
C1118 C1117 1.523 . S
H1119 C1094 0.950 . S
H1120 C1096 0.950 . S
H1121 C1097 0.949 . S
H1122 C1099 0.950 . S
H1123 C1101 0.950 . S
C1124 C1125 1.349 . S
C1124 C1126 1.327 . S
C1124 H1149 0.950 . S
C1125 C1124 1.349 . S
C1125 C1141 1.349 . S
C1126 C1124 1.327 . S
C1126 C1145 1.429 . S
C1126 H1150 0.950 1_655 S
C1127 C1144 1.574 . S
C1127 C1146 1.368 . S
C1127 H1151 0.949 . S
H1128 C1132 0.949 . S
C1129 C1130 1.349 . S
C1129 C1131 1.327 . S
C1129 H1152 0.950 . S
C1130 C1129 1.349 . S
C1130 C1142 1.349 . S
C1131 C1129 1.327 . S
C1131 C1147 1.429 . S
C1131 H1153 0.950 1_455 S
C1132 H1128 0.949 . S
C1132 C1140 1.574 . S
C1132 C1148 1.368 . S
H1133 C1141 0.950 . S
H1134 C1139 0.950 . S
H1135 C1140 0.949 . S
H1136 C1142 0.950 . S
H1137 C1143 0.950 . S
H1138 C1144 0.949 . S
C1139 H1134 0.950 . S
C1139 C1141 1.327 . S
C1139 C1145 1.429 . S
C1140 C1132 1.574 . S
C1140 H1135 0.949 . S
C1140 C1146 1.368 1_455 S
C1141 C1125 1.349 . S
C1141 H1133 0.950 . S
C1141 C1139 1.327 . S
C1142 C1130 1.349 . S
C1142 H1136 0.950 . S
C1142 C1143 1.327 . S
C1143 H1137 0.950 . S
C1143 C1142 1.327 . S
C1143 C1147 1.429 . S
C1144 C1127 1.574 . S
C1144 H1138 0.949 . S
C1144 C1148 1.368 1_655 S
C1145 C1126 1.429 . S
C1145 C1139 1.429 . S
C1145 C1146 1.523 . S
C1146 C1127 1.368 . S
C1146 C1140 1.368 1_655 S
C1146 C1145 1.523 . S
C1147 C1131 1.429 . S
C1147 C1143 1.429 . S
C1147 C1148 1.523 . S
C1148 C1132 1.368 . S
C1148 C1144 1.368 1_455 S
C1148 C1147 1.523 . S
H1149 C1124 0.950 . S
H1150 C1126 0.950 1_455 S
H1151 C1127 0.949 . S
H1152 C1129 0.950 . S
H1153 C1131 0.950 1_655 S
C1154 C1155 1.349 . S
C1154 C1156 1.327 . S
C1154 H1179 0.950 . S
C1155 C1154 1.349 . S
C1155 C1171 1.349 . S
C1156 C1154 1.327 . S
C1156 C1175 1.429 . S
C1156 H1180 0.950 . S
C1157 C1174 1.574 . S
C1157 C1176 1.368 . S
C1157 H1181 0.949 . S
H1158 C1162 0.949 . S
C1159 C1160 1.349 . S
C1159 C1161 1.327 . S
C1159 H1182 0.950 . S
C1160 C1159 1.349 . S
C1160 C1172 1.349 . S
C1161 C1159 1.327 . S
C1161 C1177 1.429 . S
C1161 H1183 0.950 . S
C1162 H1158 0.949 . S
C1162 C1170 1.574 . S
C1162 C1178 1.368 . S
H1163 C1171 0.950 . S
H1164 C1169 0.950 . S
H1165 C1170 0.949 . S
H1166 C1172 0.950 . S
H1167 C1173 0.950 . S
H1168 C1174 0.949 . S
C1169 H1164 0.950 . S
C1169 C1171 1.327 . S
C1169 C1175 1.429 . S
C1170 C1162 1.574 . S
C1170 H1165 0.949 . S
C1170 C1176 1.368 . S
C1171 C1155 1.349 . S
C1171 H1163 0.950 . S
C1171 C1169 1.327 . S
C1172 C1160 1.349 . S
C1172 H1166 0.950 . S
C1172 C1173 1.327 . S
C1173 H1167 0.950 . S
C1173 C1172 1.327 . S
C1173 C1177 1.429 . S
C1174 C1157 1.574 . S
C1174 H1168 0.949 . S
C1174 C1178 1.368 . S
C1175 C1156 1.429 . S
C1175 C1169 1.429 . S
C1175 C1176 1.523 . S
C1176 C1157 1.368 . S
C1176 C1170 1.368 . S
C1176 C1175 1.523 . S
C1177 C1161 1.429 . S
C1177 C1173 1.429 . S
C1177 C1178 1.523 . S
C1178 C1162 1.368 . S
C1178 C1174 1.368 . S
C1178 C1177 1.523 . S
H1179 C1154 0.950 . S
H1180 C1156 0.950 . S
H1181 C1157 0.949 . S
H1182 C1159 0.950 . S
H1183 C1161 0.950 . S
C225 C25 1.500 . S
C230 C11 1.500 . S
C255 C39 1.500 . S
C260 C53 1.500 . S
C285 C67 1.500 . S
C290 C81 1.500 . S
C315 C109 1.500 . S
C320 C95 1.500 . S
C345 C137 1.500 . S
C350 C123 1.500 . S
C375 C165 1.500 . S
C380 C151 1.500 . S
C405 C193 1.500 . S
C410 C179 1.500 . S
C435 C221 1.500 . S
C440 C207 1.500 . S
C465 C42 1.355 . S
C470 C0 1.355 . S
C495 C14 1.355 . S
C500 C28 1.355 . S
C525 C98 1.355 . S
C530 C56 1.355 . S
C555 C84 1.355 . S
C560 C70 1.355 . S
C585 C112 1.355 . S
C590 C154 1.355 . S
C615 C140 1.355 . S
C620 C126 1.355 . S
C645 C210 1.355 . S
C650 C168 1.355 . S
C675 C182 1.355 . S
C680 C196 1.355 . S
C705 C5 1.495 . S
C710 C131 1.495 . S
C735 C19 1.495 . S
C740 C117 1.495 . S
C765 C159 1.495 . S
C770 C33 1.495 . S
C795 C145 1.495 . S
C800 C47 1.495 . S
C825 C187 1.495 . S
C830 C61 1.495 . S
C855 C173 1.495 . S
C860 C75 1.495 . S
C885 C89 1.495 . S
C890 C215 1.495 . S
C915 C103 1.495 . S
C920 C201 1.495 . S
C945 C65 1.291 . S
C950 C9 1.291 . S
C975 C79 1.291 . S
C980 C23 1.291 . S
C1005 C93 1.291 . S
C1010 C37 1.291 . S
C1035 C107 1.291 . S
C1040 C51 1.291 . S
C1065 C121 1.291 . S
C1070 C177 1.291 . S
C1095 C135 1.291 . S
C1100 C191 1.291 . S
C1125 C205 1.291 . S
C1130 C149 1.291 . S
C1155 C219 1.291 . S
C1160 C163 1.291 . S
