# Generated by pormake.
# Topology qtz-x, (6)-cn, num edge types: 1
# Building blocks:
#     Node 0, Type 0, BuildingBlock: BETFAJ_clean_sbu_0, # of connection points: 6
#     Node 1, Type 0, BuildingBlock: BETFAJ_clean_sbu_0, # of connection points: 6
#     Node 2, Type 0, BuildingBlock: BETFAJ_clean_sbu_0, # of connection points: 6
#     Edge 3, Type (0, 0), BuildingBlock: ZUJKAS_clean_linker_0, # of connection points: 2
#     Edge 4, Type (0, 0), BuildingBlock: ZUJKAS_clean_linker_0, # of connection points: 2
#     Edge 5, Type (0, 0), BuildingBlock: ZUJKAS_clean_linker_0, # of connection points: 2
#     Edge 6, Type (0, 0), BuildingBlock: ZUJKAS_clean_linker_0, # of connection points: 2
#     Edge 7, Type (0, 0), BuildingBlock: ZUJKAS_clean_linker_0, # of connection points: 2
#     Edge 8, Type (0, 0), BuildingBlock: ZUJKAS_clean_linker_0, # of connection points: 2
#     Edge 9, Type (0, 0), BuildingBlock: ZUJKAS_clean_linker_0, # of connection points: 2
#     Edge 10, Type (0, 0), BuildingBlock: ZUJKAS_clean_linker_0, # of connection points: 2
#     Edge 11, Type (0, 0), BuildingBlock: ZUJKAS_clean_linker_0, # of connection points: 2
# Relax obj value: 0.175
# Max RMSD: 0.236
# Mean RMSD: 0.218
data_MOF--net-qtz-x--node1-BETFAJ_clean_sbu_0--edge1-ZUJKAS_clean_linker_0
_symmetry_space_group_name_H-M    P1
_symmetry_Int_Tables_number       1
_symmetry_cell_setting            triclinic
loop_
_symmetry_equiv_pos_as_xyz
'x, y, z'
_cell_length_a     19.09081
_cell_length_b     19.081239
_cell_length_c     65.705628
_cell_angle_alpha  73.942796
_cell_angle_beta   109.09857
_cell_angle_gamma 120.62608
loop_
_atom_site_label
_atom_site_type_symbol
_atom_site_fract_x
_atom_site_fract_y
_atom_site_fract_z
_atom_type_partial_charge
Sm0 Sm 0.97757 0.59012 0.19004 0.0
Sm1 Sm 0.14067 0.71482 0.17904 0.0
C2 C 0.85848 0.46072 0.20768 0.0
C3 C 0.83783 0.42889 0.22937 0.0
C4 C 0.84964 0.36141 0.24192 0.0
C5 C 0.83209 0.33143 0.26258 0.0
C6 C 0.80157 0.36776 0.27113 0.0
C7 C 0.78855 0.43453 0.25845 0.0
C8 C 0.80653 0.46483 0.23781 0.0
C9 C 1.0028 0.74918 0.18422 0.0
C10 C 0.14566 0.66889 0.22945 0.0
C11 C 0.26232 0.83482 0.16046 0.0
C12 C 0.2815 0.84761 0.13937 0.0
C13 C 0.21799 0.80934 0.1219 0.0
C14 C 0.237 0.81596 0.10244 0.0
C15 C 0.32011 0.86046 0.10012 0.0
C16 C 0.38348 0.8999 0.11755 0.0
C17 C 0.36425 0.89348 0.13701 0.0
C18 C 0.11153 0.55412 0.18424 0.0
C19 C 0.9736 0.64757 0.13964 0.0
O20 O 0.92464 0.4606 0.20584 0.0
O21 O 0.85119 0.52655 0.19706 0.0
O22 O 0.05731 0.72537 0.19433 0.0
O23 O 0.93125 0.688 0.17757 0.0
O24 O 0.07313 0.60464 0.22351 0.0
O25 O 0.18097 0.72983 0.21485 0.0
O26 O 0.19475 0.83803 0.15976 0.0
O27 O 0.27008 0.7738 0.17429 0.0
O28 O 0.05926 0.58043 0.17407 0.0
O29 O 0.18295 0.61353 0.19161 0.0
O30 O 0.04445 0.71078 0.14663 0.0
O31 O 0.93805 0.58234 0.15334 0.0
H32 H 0.8728 0.33185 0.23577 0.0
H33 H 0.84167 0.27918 0.27179 0.0
H34 H 0.76581 0.46437 0.26463 0.0
H35 H 0.79641 0.51674 0.22858 0.0
H36 H 0.15379 0.7727 0.1234 0.0
H37 H 0.18685 0.78388 0.08949 0.0
H38 H 0.44802 0.93532 0.11619 0.0
H39 H 0.41416 0.92305 0.15035 0.0
Sm40 Sm 0.73699 0.11938 0.53892 0.0
Sm41 Sm 0.6765 0.94558 0.53474 0.0
C42 C 0.77096 0.25784 0.55041 0.0
C43 C 0.78823 0.28615 0.57103 0.0
C44 C 0.74089 0.23605 0.58669 0.0
C45 C 0.76108 0.26248 0.60662 0.0
C46 C 0.82934 0.33924 0.61133 0.0
C47 C 0.87647 0.38905 0.59555 0.0
C48 C 0.85592 0.36279 0.5756 0.0
C49 C 0.85906 0.08742 0.5364 0.0
C50 C 0.72459 -0.01824 0.5829 0.0
C51 C 0.64256 0.81097 0.52131 0.0
C52 C 0.60321 0.78365 0.49949 0.0
C53 C 0.65312 0.79674 0.48578 0.0
C54 C 0.61743 0.78152 0.46418 0.0
C55 C 0.53091 0.75231 0.45585 0.0
C56 C 0.4806 0.73591 0.46983 0.0
C57 C 0.51625 0.75126 0.49139 0.0
C58 C 0.55352 0.97711 0.53667 0.0
C59 C 0.68791 0.08417 0.49041 0.0
O60 O 0.69491 0.20221 0.54333 0.0
O61 O 0.82805 0.24389 0.54815 0.0
O62 O 0.80526 0.04211 0.54776 0.0
O63 O 0.85051 0.15234 0.52628 0.0
O64 O 0.71797 0.04932 0.57316 0.0
O65 O 0.72469 0.93414 0.5717 0.0
O66 O 0.71647 0.87502 0.52332 0.0
O67 O 0.59458 0.81333 0.5312 0.0
O68 O 0.60837 0.02292 0.52564 0.0
O69 O 0.56051 0.91115 0.54641 0.0
O70 O 0.68659 0.01281 0.49974 0.0
O71 O 0.69597 0.13545 0.50193 0.0
H72 H 0.68861 0.17629 0.58361 0.0
H73 H 0.72278 0.22294 0.61825 0.0
H74 H 0.93031 0.44781 0.59874 0.0
H75 H 0.89376 0.4019 0.56382 0.0
H76 H 0.72021 0.82108 0.49156 0.0
H77 H 0.65775 0.79341 0.45395 0.0
H78 H 0.41385 0.71402 0.46391 0.0
H79 H 0.47573 0.74023 0.50147 0.0
Sm80 Sm 0.73432 0.79654 0.8575 0.0
Sm81 Sm 0.8655 0.74326 0.8634 0.0
C82 C 0.607 0.81048 0.86046 0.0
C83 C 0.57617 0.80988 0.87836 0.0
C84 C 0.58177 0.7584 0.89812 0.0
C85 C 0.55665 0.76191 0.91539 0.0
C86 C 0.52578 0.81725 0.91329 0.0
C87 C 0.51948 0.86804 0.89336 0.0
C88 C 0.54445 0.86432 0.87608 0.0
C89 C 0.8915 0.92348 0.85653 0.0
C90 C 0.83191 0.74883 0.90719 0.0
C91 C 0.9909 0.72746 0.86002 0.0
C92 C 1.00622 0.70756 0.84227 0.0
C93 C 0.99058 0.74516 0.82082 0.0
C94 C 0.99253 0.71709 0.80363 0.0
C95 C 1.01053 0.65103 0.8075 0.0
C96 C 0.03023 0.61619 0.8291 0.0
C97 C 0.02792 0.64416 0.84632 0.0
C98 C 0.70782 0.61633 0.86401 0.0
C99 C 0.76777 0.79045 0.81341 0.0
O100 O 0.60124 0.74097 0.85867 0.0
O101 O 0.678 0.87375 0.85751 0.0
O102 O 0.87496 0.85787 0.86971 0.0
O103 O 0.82397 0.92538 0.84383 0.0
O104 O 0.76406 0.75376 0.8946 0.0
O105 O 0.88962 0.75545 0.89891 0.0
O106 O 0.99181 0.79871 0.85701 0.0
O107 O 0.92951 0.66773 0.86865 0.0
O108 O 0.72515 0.6823 0.85102 0.0
O109 O 0.77505 0.61365 0.87662 0.0
O110 O 0.83213 0.77919 0.8261 0.0
O111 O 0.7135 0.79142 0.8215 0.0
H112 H 0.60632 0.71598 0.9003 0.0
H113 H 0.56135 0.72113 0.93038 0.0
H114 H 0.49719 0.91219 0.89127 0.0
H115 H 0.5403 0.905 0.86102 0.0
H116 H 0.97362 0.7942 0.8172 0.0
H117 H 0.97605 0.74478 0.78721 0.0
H118 H 0.04566 0.56611 0.83268 0.0
H119 H 0.04023 0.61433 0.86274 0.0
H120 H 0.88827 0.80667 0.1655 0.0
H121 H 0.90663 0.94398 0.16488 0.0
H122 H 0.16168 0.01714 0.20078 0.0
H123 H 0.14402 0.88026 0.20117 0.0
H124 H 0.94775 0.02329 0.1997 0.0
H125 H 0.18665 0.2023 0.15012 0.0
H126 H 0.12596 0.0919 0.15202 0.0
H127 H 0.21428 0.13823 0.17352 0.0
C128 C 0.94842 0.85223 0.17313 0.0
C129 C 1.01476 0.83283 0.18336 0.0
C130 C 0.95879 0.9306 0.17279 0.0
C131 C 0.03581 -0.00874 0.18254 0.0
C132 C 0.10219 0.97194 0.19277 0.0
H133 H 0.22293 0.49293 0.2029 0.0
H134 H 0.2018 0.3552 0.20277 0.0
C135 C 0.09189 0.89356 0.19309 0.0
C136 C 0.04576 0.07379 0.18258 0.0
H137 H 0.15998 0.27896 0.16696 0.0
C138 C 0.99382 0.07919 0.19244 0.0
C139 C 0.10591 0.14671 0.1731 0.0
C140 C 0.16091 0.14478 0.16141 0.0
C141 C 1.00162 0.15554 0.19349 0.0
C142 C 0.0621 0.22847 0.18412 0.0
C143 C 0.11378 0.22305 0.17418 0.0
C144 C 0.07342 0.31116 0.18459 0.0
C145 C 0.94646 0.15757 0.20511 0.0
C146 C 1.00836 0.3324 0.17433 0.0
C147 C 1.02028 0.4111 0.17441 0.0
C148 C 0.09767 0.47011 0.18463 0.0
C149 C 0.1626 0.44871 0.19491 0.0
C150 C 0.15067 0.37011 0.19482 0.0
H151 H 0.91905 0.0994 0.21603 0.0
H152 H 0.9819 0.20946 0.21486 0.0
H153 H 0.8943 0.16615 0.19292 0.0
H154 H 0.94872 0.28849 0.16598 0.0
H155 H 0.96922 0.426 0.16629 0.0
H156 H 0.51873 0.10484 0.51454 0.0
H157 H 0.40163 0.12496 0.51481 0.0
H158 H 0.31432 0.90041 0.55906 0.0
H159 H 0.43103 0.88056 0.55904 0.0
H160 H 0.22884 0.02015 0.50276 0.0
H161 H 0.32103 0.06497 0.58929 0.0
H162 H 0.39233 0.07159 0.57549 0.0
H163 H 0.31591 0.97296 0.58531 0.0
C164 C 0.47474 0.06012 0.5244 0.0
C165 C 0.48413 -0.00879 0.53679 0.0
C166 C 0.40786 0.07158 0.52453 0.0
C167 C 0.34976 0.0148 0.5372 0.0
C168 C 0.35914 0.94593 0.54951 0.0
H169 H 0.89511 0.96066 0.55868 0.0
H170 H 1.01246 0.94111 0.55835 0.0
C171 C 0.42569 0.93441 0.54936 0.0
C172 C 0.27778 0.02581 0.53711 0.0
H173 H 0.18442 0.0457 0.57013 0.0
C174 C 0.21942 0.02632 0.51746 0.0
C175 C 0.26514 0.03328 0.55633 0.0
C176 C 0.32725 0.03646 0.57778 0.0
C177 C 0.1481 0.03257 0.51656 0.0
C178 C 0.13544 0.04005 0.53577 0.0
C179 C 0.19384 0.03958 0.55543 0.0
C180 C 0.06329 0.05074 0.5357 0.0
C181 C 0.08591 0.02919 0.49511 0.0
C182 C 0.05319 0.11913 0.52328 0.0
C183 C 0.98644 0.1303 0.52345 0.0
C184 C 0.92855 0.07366 0.53618 0.0
C185 C 0.93867 0.00526 0.5487 0.0
C186 C 1.0057 -0.00588 0.54853 0.0
H187 H 0.09205 0.00045 0.48364 0.0
H188 H 1.02085 -0.00584 0.49741 0.0
H189 H 0.09729 0.09265 0.48752 0.0
H190 H 0.09762 0.16457 0.51361 0.0
H191 H 0.98056 0.18379 0.51369 0.0
H192 H 0.93484 0.0697 0.83008 0.0
H193 H 0.07425 0.187 0.83118 0.0
H194 H 0.17771 0.05305 0.88533 0.0
H195 H 0.03839 0.93496 0.88413 0.0
H196 H 0.18035 0.27782 0.86542 0.0
H197 H 0.32827 0.13215 0.84306 0.0
H198 H 0.21655 0.08803 0.83927 0.0
H199 H 0.2801 0.07613 0.86575 0.0
C200 C 0.98741 0.06511 0.84215 0.0
C201 C 0.97596 -0.00671 0.85701 0.0
C202 C 0.06691 0.13215 0.84277 0.0
C203 C 0.13643 0.12839 0.85816 0.0
C204 C 0.12514 0.05667 0.87305 0.0
H205 H 0.66301 0.47029 0.89049 0.0
H206 H 0.52313 0.35371 0.8892 0.0
C207 C 0.04555 -0.01051 0.87243 0.0
C208 C 0.22026 0.20051 0.85898 0.0
H209 H 0.4179 0.26366 0.85461 0.0
C210 C 0.23226 0.27492 0.86297 0.0
C211 C 0.28777 0.19644 0.85577 0.0
C212 C 0.27766 0.11917 0.85053 0.0
C213 C 0.31047 0.34507 0.86423 0.0
C214 C 0.37801 0.34093 0.86107 0.0
C215 C 0.36597 0.26657 0.85705 0.0
C216 C 0.46201 0.4128 0.86205 0.0
C217 C 0.32063 0.42244 0.86943 0.0
C218 C 0.47404 0.48455 0.84712 0.0
C219 C 0.55394 0.5513 0.84784 0.0
C220 C 0.62304 0.54703 0.86341 0.0
C221 C 0.61083 0.47522 0.87831 0.0
C222 C 0.53105 0.4086 0.87759 0.0
H223 H 0.26962 0.40971 0.8767 0.0
H224 H 0.38144 0.45317 0.88084 0.0
H225 H 0.31908 0.46576 0.85423 0.0
H226 H 0.42185 0.48849 0.83474 0.0
H227 H 0.56173 0.60581 0.83609 0.0
H228 H 0.3927 0.83777 0.91257 0.0
H229 H 0.3569 0.85195 0.94323 0.0
H230 H 0.56685 0.82108 0.98693 0.0
H231 H 0.60519 0.81032 0.95634 0.0
H232 H 0.3165 0.74253 0.98016 0.0
H233 H 0.60177 0.03083 1.00212 0.0
H234 H 0.57318 -0.00627 0.97668 0.0
H235 H 0.62367 0.95102 1.00114 0.0
C236 C 0.43194 0.83509 0.92867 0.0
C237 C 0.50215 0.82338 0.93195 0.0
C238 C 0.41103 0.84264 0.94618 0.0
C239 C 0.46003 0.83899 0.9673 0.0
C240 C 0.52918 0.82583 0.9707 0.0
H241 H 0.45007 0.84439 0.09676 0.0
H242 H 0.48061 0.84122 0.06379 0.0
C243 C 0.55032 0.81855 0.95321 0.0
C244 C 0.43797 0.84722 0.98587 0.0
H245 H 0.51525 0.95874 0.02774 0.0
C246 C 0.35957 0.79019 0.99047 0.0
C247 C 0.49424 0.90967 0.99923 0.0
C248 C 0.57759 0.9753 0.99445 0.0
C249 C 0.33701 0.79214 1.00855 0.0
C250 C 0.39403 0.85361 1.02217 0.0
C251 C 0.47182 0.91149 1.01733 0.0
C252 C 0.37553 0.85744 0.04195 0.0
C253 C 0.25351 0.72679 1.0133 0.0
C254 C 0.30712 0.86908 0.04058 0.0
C255 C 0.28958 0.8711 0.05941 0.0
C256 C 0.34069 0.86235 0.07996 0.0
C257 C 0.41014 0.85243 0.08119 0.0
C258 C 0.42741 0.85012 0.06238 0.0
H259 H 0.22637 0.67324 1.00454 0.0
H260 H 0.25918 0.70478 0.03099 0.0
H261 H 0.20918 0.75306 1.00795 0.0
H262 H 0.26736 0.87676 1.02494 0.0
H263 H 0.23627 0.87995 0.05788 0.0
H264 H 0.68778 0.22488 0.46501 0.0
H265 H 0.69463 0.26885 0.42674 0.0
H266 H 0.69259 0.0442 0.4243 0.0
H267 H 0.68373 -0.00112 0.46232 0.0
H268 H 0.81814 0.29863 0.40948 0.0
H269 H 0.52201 0.05528 0.36953 0.0
H270 H 0.54259 0.06822 0.39744 0.0
H271 H 0.58496 0.01475 0.39052 0.0
C272 C 0.68752 0.18423 0.45626 0.0
C273 C 0.68522 0.10836 0.46678 0.0
C274 C 0.69155 0.20953 0.43437 0.0
C275 C 0.69317 0.1595 0.42253 0.0
C276 C 0.68952 0.08313 0.4329 0.0
H277 H 0.89632 0.32187 0.30807 0.0
H278 H 0.86796 0.27098 0.34448 0.0
C279 C 0.68505 0.05757 0.45475 0.0
C280 C 0.70482 0.18989 0.39987 0.0
H281 H 0.62325 0.14248 0.34792 0.0
C282 C 0.77512 0.26471 0.39601 0.0
C283 C 0.6485 0.14586 0.38224 0.0
C284 C 0.56988 0.06698 0.38507 0.0
C285 C 0.79145 0.29601 0.37515 0.0
C286 C 0.73673 0.2507 0.35768 0.0
C287 C 0.66552 0.17671 0.36139 0.0
C288 C 0.75259 0.27938 0.33546 0.0
C289 C 0.86683 0.37776 0.37194 0.0
C290 C 0.69618 0.29926 0.31819 0.0
C291 C 0.71198 0.32797 0.29731 0.0
C292 C 0.78416 0.33658 0.29327 0.0
C293 C 0.83986 0.31538 0.31058 0.0
C294 C 0.82415 0.28699 0.33144 0.0
H295 H 0.89 0.41387 0.38549 0.0
H296 H 0.91796 0.36709 0.37127 0.0
H297 H 0.8522 0.41485 0.35643 0.0
H298 H 0.64034 0.29338 0.32092 0.0
H299 H 0.66729 0.34271 0.28429 0.0
H300 H 0.67825 0.86137 0.782 0.0
H301 H 0.66926 0.8892 0.74269 0.0
H302 H 0.82563 0.77655 0.75155 0.0
H303 H 0.83476 0.74835 0.79073 0.0
H304 H 0.82133 -0.01604 0.72281 0.0
H305 H 0.61152 0.666 0.70193 0.0
H306 H 0.61436 0.69713 0.72591 0.0
H307 H 0.69759 0.68009 0.7252 0.0
C308 C 0.71003 0.8418 0.77555 0.0
C309 C 0.75767 0.80309 0.78951 0.0
C310 C 0.70506 0.85799 0.75312 0.0
C311 C 0.74645 0.83456 0.74424 0.0
C312 C 0.79275 0.79461 0.75807 0.0
H313 H 0.77297 0.86978 0.61119 0.0
H314 H 0.78211 0.83582 0.65052 0.0
C315 C 0.79839 0.77911 0.78048 0.0
C316 C 0.7441 0.85479 0.72063 0.0
H317 H 0.6672 0.76929 0.67381 0.0
C318 C 0.78748 0.93721 0.71204 0.0
C319 C 0.7009 0.79343 0.70676 0.0
C320 C 0.6529 0.70409 0.71527 0.0
C321 C 0.78942 0.96004 0.6899 0.0
C322 C 0.74441 0.89888 0.67582 0.0
C323 C 0.70156 0.81622 0.68453 0.0
C324 C 0.73938 0.91957 0.65196 0.0
C325 C 0.84155 0.04927 0.68203 0.0
C326 C 0.71101 0.97679 0.63958 0.0
C327 C 0.70693 -0.00295 0.61725 0.0
C328 C 0.72931 0.9592 0.60663 0.0
C329 C 0.75553 0.90018 0.61889 0.0
C330 C 0.76072 0.88072 0.64137 0.0
H331 H 0.89261 0.08168 0.69545 0.0
H332 H 0.86964 0.05584 0.66882 0.0
H333 H 0.80144 0.08043 0.67572 0.0
H334 H 0.69139 0.00558 0.64715 0.0
H335 H 0.68511 0.04178 0.60827 0.0
H336 H 0.75183 0.77183 0.93058 0.0
H337 H 0.77012 0.74886 0.97006 0.0
H338 H 0.95071 0.66649 0.97729 0.0
H339 H 0.93518 0.69247 0.9379 0.0
H340 H 0.74253 0.61547 0.99895 0.0
H341 H 0.08067 0.83252 1.01839 0.0
H342 H 1.01849 0.82829 0.99094 0.0
H343 H 0.05766 0.75458 1.00357 0.0
C344 C 0.79582 0.74928 0.94058 0.0
C345 C 0.84275 0.73484 0.93111 0.0
C346 C 0.80611 0.736 0.96317 0.0
C347 C 0.86304 0.70742 0.97675 0.0
C348 C 0.90836 0.69097 0.96726 0.0
H349 H 0.87873 0.5184 0.11572 0.0
H350 H 0.84559 0.52745 0.07595 0.0
C351 C 0.89909 0.70548 0.9447 0.0
C352 C 0.87418 0.69425 1.00078 0.0
H353 H 1.02055 0.74612 0.04812 0.0
C354 C 0.80331 0.64429 1.0097 0.0
C355 C 0.95343 0.73225 1.01486 0.0
C356 C 0.03172 0.79052 1.00645 0.0
C357 C 0.80938 0.6316 0.03222 0.0
C358 C 0.88878 0.66829 0.04627 0.0
C359 C 0.95966 0.71763 0.03736 0.0
C360 C 0.90032 0.66037 0.07016 0.0
C361 C 0.73046 0.58106 0.04064 0.0
C362 C 0.94168 0.73172 0.08015 0.0
C363 C 0.96145 0.72665 0.10272 0.0
C364 C 0.93984 0.65004 0.11589 0.0
C365 C 0.89506 0.57815 0.10594 0.0
C366 C 0.87609 0.58333 0.08322 0.0
H367 H 0.6742 0.57584 0.02758 0.0
H368 H 0.72327 0.51809 0.04713 0.0
H369 H 0.73299 0.60812 0.05397 0.0
H370 H 0.96078 0.79179 0.07047 0.0
H371 H 0.99587 0.78317 0.1099 0.0
H372 H 0.29771 0.78742 0.24729 0.0
H373 H 0.36353 0.79818 0.28579 0.0
H374 H 0.15071 0.57568 0.30306 0.0
H375 H 0.08476 0.5635 0.26454 0.0
H376 H 0.30587 0.81279 0.31703 0.0
H377 H 0.34568 0.53049 0.33935 0.0
H378 H 0.32099 0.57399 0.31148 0.0
H379 H 0.24051 0.51333 0.32656 0.0
C380 C 0.26497 0.74037 0.25925 0.0
C381 C 0.18607 0.67435 0.25281 0.0
C382 C 0.30273 0.74674 0.28126 0.0
C383 C 0.26261 0.68718 0.29729 0.0
C384 C 0.18363 0.62139 0.29096 0.0
H385 H 0.38361 0.62719 0.4382 0.0
H386 H 0.31895 0.61385 0.39969 0.0
C387 C 0.14585 0.61477 0.26892 0.0
C388 C 0.30257 0.69559 0.32061 0.0
H389 H 0.37549 0.60002 0.36832 0.0
C390 C 0.32143 0.76646 0.32824 0.0
C391 C 0.32273 0.63501 0.33519 0.0
C392 C 0.30721 0.55924 0.32775 0.0
C393 C 0.35864 0.77783 0.35016 0.0
C394 C 0.37879 0.71722 0.36475 0.0
C395 C 0.3599 0.64634 0.35711 0.0
C396 C 0.41883 0.72575 0.38806 0.0
C397 C 0.37429 0.8538 0.35755 0.0
C398 C 0.49706 0.79248 0.39431 0.0
C399 C 0.53383 0.80068 0.41631 0.0
C400 C 0.49344 0.74179 0.43249 0.0
C401 C 0.41585 0.67416 0.42615 0.0
C402 C 0.37904 0.66618 0.40416 0.0
H403 H 0.33508 0.88194 0.34605 0.0
H404 H 0.36159 0.83957 0.37393 0.0
H405 H 0.44073 0.90009 0.35842 0.0
H406 H 0.52969 0.83837 0.38219 0.0
H407 H 0.59318 0.85398 0.4206 0.0
H408 H 0.05896 0.73244 0.7691 0.0
H409 H 0.03157 0.67248 0.73719 0.0
H410 H 0.9199 0.4292 0.77216 0.0
H411 H 0.94358 0.48836 0.8038 0.0
H412 H 0.08049 0.56779 0.73082 0.0
H413 H 0.73533 0.42179 0.71826 0.0
H414 H 0.8054 0.49731 0.73657 0.0
H415 H 0.78754 0.39253 0.74472 0.0
C416 C 0.02827 0.66615 0.76999 0.0
C417 C 1.00277 0.61526 0.78896 0.0
C418 C 1.01318 0.63202 0.75179 0.0
C419 C 0.97227 0.54643 0.75219 0.0
C420 C 0.95002 0.49542 0.77137 0.0
H421 H 0.82481 0.24739 0.65175 0.0
H422 H 0.86091 0.29466 0.68657 0.0
C423 C 0.96471 0.52945 0.78955 0.0
C424 C 0.95138 0.51084 0.73234 0.0
H425 H 0.7875 0.39297 0.69519 0.0
C426 C 1.01648 0.5295 0.72304 0.0
C427 C 0.86767 0.46113 0.72219 0.0
C428 C 0.79482 0.4425 0.73079 0.0
C429 C 1.00005 0.49961 0.70386 0.0
C430 C 0.91653 0.4502 0.69375 0.0
C431 C 0.85149 0.43055 0.70315 0.0
C432 C 0.89519 0.4216 0.67281 0.0
C433 C 0.07182 0.52089 0.69444 0.0
C434 C 0.90157 0.47737 0.65363 0.0
C435 C 0.87979 0.45055 0.6337 0.0
C436 C 0.85159 0.36737 0.63259 0.0
C437 C 0.84517 0.31161 0.65194 0.0
C438 C 0.86635 0.3385 0.67187 0.0
H439 H 0.13304 0.54781 0.70606 0.0
H440 H 0.06393 0.46535 0.68967 0.0
H441 H 0.07261 0.56627 0.67958 0.0
H442 H 0.92265 0.54158 0.65408 0.0
H443 H 0.88401 0.49489 0.61912 0.0
loop_
_geom_bond_atom_site_label_1
_geom_bond_atom_site_label_2
_geom_bond_distance
_geom_bond_site_symmetry_2
_ccdc_geom_bond_type
Sm0 C2 2.846 . S
Sm0 O20 2.543 . S
Sm0 O21 2.450 . S
Sm0 O22 2.681 1_655 S
Sm0 O23 2.464 . S
Sm0 O24 2.396 1_655 S
Sm0 O28 2.386 . S
Sm0 O31 2.408 . S
Sm1 C11 2.846 . S
Sm1 O22 2.386 . S
Sm1 O25 2.408 . S
Sm1 O26 2.543 . S
Sm1 O27 2.450 . S
Sm1 O28 2.681 1_455 S
Sm1 O29 2.464 . S
Sm1 O30 2.396 1_455 S
C2 Sm0 2.846 . S
C2 C3 1.506 . S
C2 O20 1.261 . S
C2 O21 1.242 . S
C3 C2 1.506 . S
C3 C4 1.358 . S
C3 C8 1.382 . S
C4 C3 1.358 . S
C4 C5 1.385 . S
C4 H32 0.930 . S
C5 C4 1.385 . S
C5 C6 1.395 . S
C5 H33 0.929 . S
C6 C5 1.395 . S
C6 C7 1.335 . S
C7 C6 1.335 . S
C7 C8 1.398 . S
C7 H34 0.930 . S
C8 C3 1.382 . S
C8 C7 1.398 . S
C8 H35 0.929 . S
C9 O22 1.271 1_655 S
C9 O23 1.251 . S
C10 O24 1.252 . S
C10 O25 1.272 . S
C11 Sm1 2.846 . S
C11 C12 1.506 . S
C11 O26 1.261 . S
C11 O27 1.242 . S
C12 C11 1.506 . S
C12 C13 1.358 . S
C12 C17 1.382 . S
C13 C12 1.358 . S
C13 C14 1.385 . S
C13 H36 0.930 . S
C14 C13 1.385 . S
C14 C15 1.395 . S
C14 H37 0.929 . S
C15 C14 1.395 . S
C15 C16 1.335 . S
C16 C15 1.335 . S
C16 C17 1.398 . S
C16 H38 0.930 . S
C17 C12 1.382 . S
C17 C16 1.398 . S
C17 H39 0.929 . S
C18 O28 1.271 1_455 S
C18 O29 1.251 . S
C19 O30 1.252 . S
C19 O31 1.272 . S
O20 Sm0 2.543 . S
O20 C2 1.261 . S
O21 Sm0 2.450 . S
O21 C2 1.242 . S
O22 Sm0 2.681 1_455 S
O22 Sm1 2.386 . S
O22 C9 1.271 1_455 S
O23 Sm0 2.464 . S
O23 C9 1.251 . S
O24 Sm0 2.396 1_455 S
O24 C10 1.252 . S
O25 Sm1 2.408 . S
O25 C10 1.272 . S
O26 Sm1 2.543 . S
O26 C11 1.261 . S
O27 Sm1 2.450 . S
O27 C11 1.242 . S
O28 Sm0 2.386 . S
O28 Sm1 2.681 1_655 S
O28 C18 1.271 1_655 S
O29 Sm1 2.464 . S
O29 C18 1.251 . S
O30 Sm1 2.396 1_655 S
O30 C19 1.252 . S
O31 Sm0 2.408 . S
O31 C19 1.272 . S
H32 C4 0.930 . S
H33 C5 0.929 . S
H34 C7 0.930 . S
H35 C8 0.929 . S
H36 C13 0.930 . S
H37 C14 0.929 . S
H38 C16 0.930 . S
H39 C17 0.929 . S
Sm40 C42 2.846 . S
Sm40 O60 2.543 . S
Sm40 O61 2.450 . S
Sm40 O62 2.681 1_545 S
Sm40 O63 2.464 . S
Sm40 O64 2.396 . S
Sm40 O68 2.386 . S
Sm40 O71 2.408 . S
Sm41 C51 2.846 . S
Sm41 O62 2.386 . S
Sm41 O65 2.408 . S
Sm41 O66 2.543 . S
Sm41 O67 2.450 . S
Sm41 O68 2.681 1_565 S
Sm41 O69 2.464 . S
Sm41 O70 2.396 1_565 S
C42 Sm40 2.846 . S
C42 C43 1.506 . S
C42 O60 1.261 . S
C42 O61 1.242 . S
C43 C42 1.506 . S
C43 C44 1.358 . S
C43 C48 1.382 . S
C44 C43 1.358 . S
C44 C45 1.385 . S
C44 H72 0.930 . S
C45 C44 1.385 . S
C45 C46 1.395 . S
C45 H73 0.929 . S
C46 C45 1.395 . S
C46 C47 1.335 . S
C47 C46 1.335 . S
C47 C48 1.398 . S
C47 H74 0.930 . S
C48 C43 1.382 . S
C48 C47 1.398 . S
C48 H75 0.929 . S
C49 O62 1.271 1_545 S
C49 O63 1.251 . S
C50 O64 1.252 1_565 S
C50 O65 1.272 . S
C51 Sm41 2.846 . S
C51 C52 1.506 . S
C51 O66 1.261 . S
C51 O67 1.242 . S
C52 C51 1.506 . S
C52 C53 1.358 . S
C52 C57 1.382 . S
C53 C52 1.358 . S
C53 C54 1.385 . S
C53 H76 0.930 . S
C54 C53 1.385 . S
C54 C55 1.395 . S
C54 H77 0.929 . S
C55 C54 1.395 . S
C55 C56 1.335 . S
C56 C55 1.335 . S
C56 C57 1.398 . S
C56 H78 0.930 . S
C57 C52 1.382 . S
C57 C56 1.398 . S
C57 H79 0.929 . S
C58 O68 1.271 1_565 S
C58 O69 1.251 . S
C59 O70 1.252 . S
C59 O71 1.272 . S
O60 Sm40 2.543 . S
O60 C42 1.261 . S
O61 Sm40 2.450 . S
O61 C42 1.242 . S
O62 Sm40 2.681 1_565 S
O62 Sm41 2.386 . S
O62 C49 1.271 1_565 S
O63 Sm40 2.464 . S
O63 C49 1.251 . S
O64 Sm40 2.396 . S
O64 C50 1.252 1_545 S
O65 Sm41 2.408 . S
O65 C50 1.272 . S
O66 Sm41 2.543 . S
O66 C51 1.261 . S
O67 Sm41 2.450 . S
O67 C51 1.242 . S
O68 Sm40 2.386 . S
O68 Sm41 2.681 1_545 S
O68 C58 1.271 1_545 S
O69 Sm41 2.464 . S
O69 C58 1.251 . S
O70 Sm41 2.396 1_545 S
O70 C59 1.252 . S
O71 Sm40 2.408 . S
O71 C59 1.272 . S
H72 C44 0.930 . S
H73 C45 0.929 . S
H74 C47 0.930 . S
H75 C48 0.929 . S
H76 C53 0.930 . S
H77 C54 0.929 . S
H78 C56 0.930 . S
H79 C57 0.929 . S
Sm80 C82 2.846 . S
Sm80 O100 2.543 . S
Sm80 O101 2.450 . S
Sm80 O102 2.681 . S
Sm80 O103 2.464 1_565 S
Sm80 O104 2.396 . S
Sm80 O108 2.386 . S
Sm80 O111 2.408 . S
Sm81 C91 2.846 . S
Sm81 O102 2.386 . S
Sm81 O105 2.408 . S
Sm81 O106 2.543 . S
Sm81 O107 2.450 . S
Sm81 O108 2.681 . S
Sm81 O109 2.464 . S
Sm81 O110 2.396 . S
C82 Sm80 2.846 . S
C82 C83 1.506 . S
C82 O100 1.261 . S
C82 O101 1.242 . S
C83 C82 1.506 . S
C83 C84 1.358 . S
C83 C88 1.382 1_565 S
C84 C83 1.358 . S
C84 C85 1.385 . S
C84 H112 0.930 . S
C85 C84 1.385 . S
C85 C86 1.395 . S
C85 H113 0.929 . S
C86 C85 1.395 . S
C86 C87 1.335 1_565 S
C87 C86 1.335 1_545 S
C87 C88 1.398 . S
C87 H114 0.930 . S
C88 C83 1.382 1_545 S
C88 C87 1.398 . S
C88 H115 0.929 . S
C89 O102 1.271 . S
C89 O103 1.251 1_565 S
C90 O104 1.252 . S
C90 O105 1.272 . S
C91 Sm81 2.846 . S
C91 C92 1.506 . S
C91 O106 1.261 . S
C91 O107 1.242 . S
C92 C91 1.506 . S
C92 C93 1.358 . S
C92 C97 1.382 . S
C93 C92 1.358 . S
C93 C94 1.385 . S
C93 H116 0.930 . S
C94 C93 1.385 . S
C94 C95 1.395 . S
C94 H117 0.929 1_655 S
C95 C94 1.395 . S
C95 C96 1.335 . S
C96 C95 1.335 . S
C96 C97 1.398 . S
C96 H118 0.930 . S
C97 C92 1.382 . S
C97 C96 1.398 . S
C97 H119 0.929 . S
C98 O108 1.271 . S
C98 O109 1.251 . S
C99 O110 1.252 . S
C99 O111 1.272 . S
O100 Sm80 2.543 . S
O100 C82 1.261 . S
O101 Sm80 2.450 . S
O101 C82 1.242 . S
O102 Sm80 2.681 . S
O102 Sm81 2.386 . S
O102 C89 1.271 . S
O103 Sm80 2.464 1_545 S
O103 C89 1.251 1_545 S
O104 Sm80 2.396 . S
O104 C90 1.252 . S
O105 Sm81 2.408 . S
O105 C90 1.272 . S
O106 Sm81 2.543 . S
O106 C91 1.261 . S
O107 Sm81 2.450 . S
O107 C91 1.242 . S
O108 Sm80 2.386 . S
O108 Sm81 2.681 . S
O108 C98 1.271 . S
O109 Sm81 2.464 . S
O109 C98 1.251 . S
O110 Sm81 2.396 . S
O110 C99 1.252 . S
O111 Sm80 2.408 . S
O111 C99 1.272 . S
H112 C84 0.930 . S
H113 C85 0.929 . S
H114 C87 0.930 . S
H115 C88 0.929 . S
H116 C93 0.930 . S
H117 C94 0.929 1_455 S
H118 C96 0.930 . S
H119 C97 0.929 . S
H120 C128 0.929 . S
H121 C130 0.930 . S
H122 C132 0.930 1_545 S
H123 C135 0.929 . S
H124 C138 0.930 . S
H125 C140 0.960 . S
H126 C140 0.960 . S
H127 C140 0.960 . S
C128 H120 0.929 . S
C128 C129 1.377 1_655 S
C128 C130 1.384 . S
C129 C128 1.377 1_455 S
C129 C135 1.390 . S
C130 H121 0.930 . S
C130 C128 1.384 . S
C130 C131 1.372 . S
C131 C130 1.372 . S
C131 C132 1.400 1_655 S
C131 C136 1.490 1_565 S
C132 H122 0.930 1_565 S
C132 C131 1.400 1_455 S
C132 C135 1.386 . S
H133 C149 0.930 . S
H134 C150 0.931 . S
C135 H123 0.929 . S
C135 C129 1.390 . S
C135 C132 1.386 . S
C136 C131 1.490 1_545 S
C136 C138 1.395 . S
C136 C139 1.403 1_655 S
H137 C143 0.930 . S
C138 H124 0.930 . S
C138 C136 1.395 . S
C138 C141 1.403 . S
C139 C136 1.403 1_455 S
C139 C140 1.524 . S
C139 C143 1.400 . S
C140 H125 0.960 . S
C140 H126 0.960 . S
C140 H127 0.960 . S
C140 C139 1.524 . S
C141 C138 1.403 . S
C141 C142 1.392 . S
C141 C145 1.495 . S
C142 C141 1.392 . S
C142 C143 1.385 1_655 S
C142 C144 1.478 . S
C143 H137 0.930 . S
C143 C139 1.400 . S
C143 C142 1.385 1_455 S
C144 C142 1.478 . S
C144 C146 1.381 . S
C144 C150 1.383 1_655 S
C145 C141 1.495 . S
C145 H151 0.959 . S
C145 H152 0.961 . S
C145 H153 0.960 . S
C146 C144 1.381 . S
C146 C147 1.394 . S
C146 H154 0.930 . S
C147 C146 1.394 . S
C147 C148 1.383 . S
C147 H155 0.929 . S
C148 C147 1.383 . S
C148 C149 1.377 1_655 S
C149 H133 0.930 . S
C149 C148 1.377 1_455 S
C149 C150 1.379 . S
C150 H134 0.931 . S
C150 C144 1.383 1_455 S
C150 C149 1.379 . S
H151 C145 0.959 . S
H152 C145 0.961 . S
H153 C145 0.960 . S
H154 C146 0.930 . S
H155 C147 0.929 . S
H156 C164 0.929 . S
H157 C166 0.930 . S
H158 C168 0.930 . S
H159 C171 0.929 . S
H160 C174 0.930 . S
H161 C176 0.960 . S
H162 C176 0.960 . S
H163 C176 0.960 . S
C164 H156 0.929 . S
C164 C165 1.377 . S
C164 C166 1.384 . S
C165 C164 1.377 . S
C165 C171 1.390 1_545 S
C166 H157 0.930 . S
C166 C164 1.384 . S
C166 C167 1.372 . S
C167 C166 1.372 . S
C167 C168 1.400 1_545 S
C167 C172 1.490 . S
C168 H158 0.930 . S
C168 C167 1.400 1_565 S
C168 C171 1.386 . S
H169 C185 0.930 . S
H170 C186 0.931 . S
C171 H159 0.929 . S
C171 C165 1.390 1_565 S
C171 C168 1.386 . S
C172 C167 1.490 . S
C172 C174 1.395 . S
C172 C175 1.403 1_545 S
H173 C179 0.930 . S
C174 H160 0.930 . S
C174 C172 1.395 . S
C174 C177 1.403 . S
C175 C172 1.403 1_565 S
C175 C176 1.524 . S
C175 C179 1.400 . S
C176 H161 0.960 . S
C176 H162 0.960 . S
C176 H163 0.960 . S
C176 C175 1.524 . S
C177 C174 1.403 . S
C177 C178 1.392 . S
C177 C181 1.495 . S
C178 C177 1.392 . S
C178 C179 1.385 1_545 S
C178 C180 1.478 . S
C179 H173 0.930 . S
C179 C175 1.400 . S
C179 C178 1.385 1_565 S
C180 C178 1.478 . S
C180 C182 1.381 . S
C180 C186 1.383 1_445 S
C181 C177 1.495 . S
C181 H187 0.959 . S
C181 H188 0.961 . S
C181 H189 0.960 . S
C182 C180 1.381 . S
C182 C183 1.394 1_455 S
C182 H190 0.930 . S
C183 C182 1.394 1_655 S
C183 C184 1.383 . S
C183 H191 0.929 . S
C184 C183 1.383 . S
C184 C185 1.377 1_545 S
C185 H169 0.930 . S
C185 C184 1.377 1_565 S
C185 C186 1.379 . S
C186 H170 0.931 . S
C186 C180 1.383 1_665 S
C186 C185 1.379 . S
H187 C181 0.959 . S
H188 C181 0.961 . S
H189 C181 0.960 . S
H190 C182 0.930 . S
H191 C183 0.929 . S
H192 C200 0.929 1_655 S
H193 C202 0.930 . S
H194 C204 0.930 . S
H195 C207 0.929 . S
H196 C210 0.930 . S
H197 C212 0.960 . S
H198 C212 0.960 . S
H199 C212 0.960 . S
C200 H192 0.929 1_455 S
C200 C201 1.377 1_455 S
C200 C202 1.384 . S
C201 C200 1.377 1_655 S
C201 C207 1.390 1_655 S
C202 H193 0.930 . S
C202 C200 1.384 . S
C202 C203 1.372 . S
C203 C202 1.372 . S
C203 C204 1.400 . S
C203 C208 1.490 . S
C204 H194 0.930 . S
C204 C203 1.400 . S
C204 C207 1.386 . S
H205 C221 0.930 . S
H206 C222 0.931 . S
C207 H195 0.929 . S
C207 C201 1.390 1_455 S
C207 C204 1.386 . S
C208 C203 1.490 . S
C208 C210 1.395 . S
C208 C211 1.403 . S
H209 C215 0.930 . S
C210 H196 0.930 . S
C210 C208 1.395 . S
C210 C213 1.403 . S
C211 C208 1.403 . S
C211 C212 1.524 . S
C211 C215 1.400 . S
C212 H197 0.960 . S
C212 H198 0.960 . S
C212 H199 0.960 . S
C212 C211 1.524 . S
C213 C210 1.403 . S
C213 C214 1.392 . S
C213 C217 1.495 . S
C214 C213 1.392 . S
C214 C215 1.385 . S
C214 C216 1.478 . S
C215 H209 0.930 . S
C215 C211 1.400 . S
C215 C214 1.385 . S
C216 C214 1.478 . S
C216 C218 1.381 . S
C216 C222 1.383 . S
C217 C213 1.495 . S
C217 H223 0.959 . S
C217 H224 0.961 . S
C217 H225 0.960 . S
C218 C216 1.381 . S
C218 C219 1.394 . S
C218 H226 0.930 . S
C219 C218 1.394 . S
C219 C220 1.383 . S
C219 H227 0.929 . S
C220 C219 1.383 . S
C220 C221 1.377 . S
C221 H205 0.930 . S
C221 C220 1.377 . S
C221 C222 1.379 . S
C222 H206 0.931 . S
C222 C216 1.383 . S
C222 C221 1.379 . S
H223 C217 0.959 . S
H224 C217 0.961 . S
H225 C217 0.960 . S
H226 C218 0.930 . S
H227 C219 0.929 . S
H228 C236 0.929 . S
H229 C238 0.930 . S
H230 C240 0.930 . S
H231 C243 0.929 . S
H232 C246 0.930 . S
H233 C248 0.960 1_554 S
H234 C248 0.960 1_545 S
H235 C248 0.960 . S
C236 H228 0.929 . S
C236 C237 1.377 1_545 S
C236 C238 1.384 . S
C237 C236 1.377 1_565 S
C237 C243 1.390 . S
C238 H229 0.930 . S
C238 C236 1.384 . S
C238 C239 1.372 1_545 S
C239 C238 1.372 1_565 S
C239 C240 1.400 . S
C239 C244 1.490 . S
C240 H230 0.930 . S
C240 C239 1.400 . S
C240 C243 1.386 . S
H241 C257 0.930 . S
H242 C258 0.931 . S
C243 H231 0.929 . S
C243 C237 1.390 . S
C243 C240 1.386 . S
C244 C239 1.490 . S
C244 C246 1.395 . S
C244 C247 1.403 . S
H245 C251 0.930 . S
C246 H232 0.930 . S
C246 C244 1.395 . S
C246 C249 1.403 . S
C247 C244 1.403 . S
C247 C248 1.524 . S
C247 C251 1.400 1_556 S
C248 H233 0.960 1_556 S
C248 H234 0.960 1_565 S
C248 H235 0.960 . S
C248 C247 1.524 . S
C249 C246 1.403 . S
C249 C250 1.392 . S
C249 C253 1.495 . S
C250 C249 1.392 . S
C250 C251 1.385 1_556 S
C250 C252 1.478 1_556 S
C251 H245 0.930 . S
C251 C247 1.400 1_554 S
C251 C250 1.385 1_554 S
C252 C250 1.478 1_554 S
C252 C254 1.381 . S
C252 C258 1.383 . S
C253 C249 1.495 . S
C253 H259 0.959 . S
C253 H260 0.961 . S
C253 H261 0.960 . S
C254 C252 1.381 . S
C254 C255 1.394 . S
C254 H262 0.939 . S
C255 C254 1.394 . S
C255 C256 1.383 . S
C255 H263 0.929 . S
C256 C255 1.383 . S
C256 C257 1.377 . S
C257 H241 0.930 . S
C257 C256 1.377 . S
C257 C258 1.379 . S
C258 H242 0.931 . S
C258 C252 1.383 . S
C258 C257 1.379 . S
H259 C253 0.959 . S
H260 C253 0.961 . S
H261 C253 0.960 . S
H262 C254 0.939 . S
H263 C255 0.929 . S
H264 C272 0.929 . S
H265 C274 0.930 . S
H266 C276 0.930 . S
H267 C279 0.929 . S
H268 C282 0.930 . S
H269 C284 0.960 . S
H270 C284 0.960 . S
H271 C284 0.960 . S
C272 H264 0.929 . S
C272 C273 1.377 . S
C272 C274 1.384 . S
C273 C272 1.377 . S
C273 C279 1.390 . S
C274 H265 0.930 . S
C274 C272 1.384 . S
C274 C275 1.372 . S
C275 C274 1.372 . S
C275 C276 1.400 . S
C275 C280 1.490 . S
C276 H266 0.930 . S
C276 C275 1.400 . S
C276 C279 1.386 . S
H277 C293 0.930 . S
H278 C294 0.931 . S
C279 H267 0.929 . S
C279 C273 1.390 . S
C279 C276 1.386 . S
C280 C275 1.490 . S
C280 C282 1.395 . S
C280 C283 1.403 . S
H281 C287 0.930 . S
C282 H268 0.930 . S
C282 C280 1.395 . S
C282 C285 1.403 . S
C283 C280 1.403 . S
C283 C284 1.524 . S
C283 C287 1.400 . S
C284 H269 0.960 . S
C284 H270 0.960 . S
C284 H271 0.960 . S
C284 C283 1.524 . S
C285 C282 1.403 . S
C285 C286 1.392 . S
C285 C289 1.495 . S
C286 C285 1.392 . S
C286 C287 1.385 . S
C286 C288 1.478 . S
C287 H281 0.930 . S
C287 C283 1.400 . S
C287 C286 1.385 . S
C288 C286 1.478 . S
C288 C290 1.381 . S
C288 C294 1.383 . S
C289 C285 1.495 . S
C289 H295 0.959 . S
C289 H296 0.961 . S
C289 H297 0.960 . S
C290 C288 1.381 . S
C290 C291 1.394 . S
C290 H298 0.930 . S
C291 C290 1.394 . S
C291 C292 1.383 . S
C291 H299 0.929 . S
C292 C291 1.383 . S
C292 C293 1.377 . S
C293 H277 0.930 . S
C293 C292 1.377 . S
C293 C294 1.379 . S
C294 H278 0.931 . S
C294 C288 1.383 . S
C294 C293 1.379 . S
H295 C289 0.959 . S
H296 C289 0.961 . S
H297 C289 0.960 . S
H298 C290 0.930 . S
H299 C291 0.929 . S
H300 C308 0.929 . S
H301 C310 0.930 . S
H302 C312 0.930 . S
H303 C315 0.929 . S
H304 C318 0.930 . S
H305 C320 0.960 . S
H306 C320 0.960 . S
H307 C320 0.960 . S
C308 H300 0.929 . S
C308 C309 1.377 . S
C308 C310 1.384 . S
C309 C308 1.377 . S
C309 C315 1.390 . S
C310 H301 0.930 . S
C310 C308 1.384 . S
C310 C311 1.372 . S
C311 C310 1.372 . S
C311 C312 1.400 . S
C311 C316 1.490 . S
C312 H302 0.930 . S
C312 C311 1.400 . S
C312 C315 1.386 . S
H313 C329 0.930 . S
H314 C330 0.931 . S
C315 H303 0.929 . S
C315 C309 1.390 . S
C315 C312 1.386 . S
C316 C311 1.490 . S
C316 C318 1.395 . S
C316 C319 1.403 . S
H317 C323 0.930 . S
C318 H304 0.930 . S
C318 C316 1.395 . S
C318 C321 1.403 . S
C319 C316 1.403 . S
C319 C320 1.524 . S
C319 C323 1.400 . S
C320 H305 0.960 . S
C320 H306 0.960 . S
C320 H307 0.960 . S
C320 C319 1.524 . S
C321 C318 1.403 . S
C321 C322 1.392 . S
C321 C325 1.495 1_565 S
C322 C321 1.392 . S
C322 C323 1.385 . S
C322 C324 1.478 . S
C323 H317 0.930 . S
C323 C319 1.400 . S
C323 C322 1.385 . S
C324 C322 1.478 . S
C324 C326 1.381 . S
C324 C330 1.383 . S
C325 C321 1.495 1_545 S
C325 H331 0.959 . S
C325 H332 0.961 . S
C325 H333 0.960 . S
C326 C324 1.381 . S
C326 C327 1.394 . S
C326 H334 0.930 . S
C327 C326 1.394 . S
C327 C328 1.383 . S
C327 H335 0.929 . S
C328 C327 1.383 . S
C328 C329 1.377 . S
C329 H313 0.930 . S
C329 C328 1.377 . S
C329 C330 1.379 . S
C330 H314 0.931 . S
C330 C324 1.383 . S
C330 C329 1.379 . S
H331 C325 0.959 . S
H332 C325 0.961 . S
H333 C325 0.960 . S
H334 C326 0.930 . S
H335 C327 0.929 . S
H336 C344 0.929 . S
H337 C346 0.930 . S
H338 C348 0.930 . S
H339 C351 0.929 . S
H340 C354 0.930 . S
H341 C356 0.960 . S
H342 C356 0.960 . S
H343 C356 0.960 . S
C344 H336 0.929 . S
C344 C345 1.377 . S
C344 C346 1.384 . S
C345 C344 1.377 . S
C345 C351 1.390 . S
C346 H337 0.930 . S
C346 C344 1.384 . S
C346 C347 1.372 . S
C347 C346 1.372 . S
C347 C348 1.400 . S
C347 C352 1.490 . S
C348 H338 0.930 . S
C348 C347 1.400 . S
C348 C351 1.386 . S
H349 C365 0.930 . S
H350 C366 0.931 . S
C351 H339 0.929 . S
C351 C345 1.390 . S
C351 C348 1.386 . S
C352 C347 1.490 . S
C352 C354 1.395 . S
C352 C355 1.403 . S
H353 C359 0.930 . S
C354 H340 0.930 . S
C354 C352 1.395 . S
C354 C357 1.354 1_556 S
C355 C352 1.403 . S
C355 C356 1.524 1_655 S
C355 C359 1.400 1_556 S
C356 H341 0.960 . S
C356 H342 0.960 . S
C356 H343 0.960 . S
C356 C355 1.524 1_455 S
C357 C354 1.354 1_554 S
C357 C358 1.414 . S
C357 C361 1.522 . S
C358 C357 1.414 . S
C358 C359 1.385 . S
C358 C360 1.478 . S
C359 H353 0.930 . S
C359 C355 1.400 1_554 S
C359 C358 1.385 . S
C360 C358 1.478 . S
C360 C362 1.381 . S
C360 C366 1.383 . S
C361 C357 1.522 . S
C361 H367 0.959 1_554 S
C361 H368 0.961 . S
C361 H369 0.960 . S
C362 C360 1.381 . S
C362 C363 1.394 . S
C362 H370 0.930 . S
C363 C362 1.394 . S
C363 C364 1.383 . S
C363 H371 0.929 . S
C364 C363 1.383 . S
C364 C365 1.377 . S
C365 H349 0.930 . S
C365 C364 1.377 . S
C365 C366 1.379 . S
C366 H350 0.931 . S
C366 C360 1.383 . S
C366 C365 1.379 . S
H367 C361 0.959 1_556 S
H368 C361 0.961 . S
H369 C361 0.960 . S
H370 C362 0.930 . S
H371 C363 0.929 . S
H372 C380 0.929 . S
H373 C382 0.930 . S
H374 C384 0.930 . S
H375 C387 0.929 . S
H376 C390 0.930 . S
H377 C392 0.960 . S
H378 C392 0.960 . S
H379 C392 0.960 . S
C380 H372 0.929 . S
C380 C381 1.377 . S
C380 C382 1.384 . S
C381 C380 1.377 . S
C381 C387 1.390 . S
C382 H373 0.930 . S
C382 C380 1.384 . S
C382 C383 1.372 . S
C383 C382 1.372 . S
C383 C384 1.400 . S
C383 C388 1.490 . S
C384 H374 0.930 . S
C384 C383 1.400 . S
C384 C387 1.386 . S
H385 C401 0.930 . S
H386 C402 0.931 . S
C387 H375 0.929 . S
C387 C381 1.390 . S
C387 C384 1.386 . S
C388 C383 1.490 . S
C388 C390 1.395 . S
C388 C391 1.403 . S
H389 C395 0.930 . S
C390 H376 0.930 . S
C390 C388 1.395 . S
C390 C393 1.403 . S
C391 C388 1.403 . S
C391 C392 1.524 . S
C391 C395 1.400 . S
C392 H377 0.960 . S
C392 H378 0.960 . S
C392 H379 0.960 . S
C392 C391 1.524 . S
C393 C390 1.403 . S
C393 C394 1.392 . S
C393 C397 1.495 . S
C394 C393 1.392 . S
C394 C395 1.385 . S
C394 C396 1.478 . S
C395 H389 0.930 . S
C395 C391 1.400 . S
C395 C394 1.385 . S
C396 C394 1.478 . S
C396 C398 1.381 . S
C396 C402 1.383 . S
C397 C393 1.495 . S
C397 H403 0.959 . S
C397 H404 0.961 . S
C397 H405 0.960 . S
C398 C396 1.381 . S
C398 C399 1.394 . S
C398 H406 0.930 . S
C399 C398 1.394 . S
C399 C400 1.383 . S
C399 H407 0.929 . S
C400 C399 1.383 . S
C400 C401 1.377 . S
C401 H385 0.930 . S
C401 C400 1.377 . S
C401 C402 1.379 . S
C402 H386 0.931 . S
C402 C396 1.383 . S
C402 C401 1.379 . S
H403 C397 0.959 . S
H404 C397 0.961 . S
H405 C397 0.960 . S
H406 C398 0.930 . S
H407 C399 0.929 . S
H408 C416 0.929 . S
H409 C418 0.933 . S
H410 C420 0.930 . S
H411 C423 0.929 . S
H412 C426 0.930 . S
H413 C428 0.960 . S
H414 C428 0.960 . S
H415 C428 0.960 . S
C416 H408 0.929 . S
C416 C417 1.377 1_455 S
C416 C418 1.382 . S
C417 C416 1.377 1_655 S
C417 C423 1.390 . S
C418 H409 0.933 . S
C418 C416 1.382 . S
C418 C419 1.371 1_455 S
C419 C418 1.371 1_655 S
C419 C420 1.400 . S
C419 C424 1.490 . S
C420 H410 0.930 . S
C420 C419 1.400 . S
C420 C423 1.386 . S
H421 C437 0.930 . S
H422 C438 0.931 . S
C423 H411 0.929 . S
C423 C417 1.390 . S
C423 C420 1.386 . S
C424 C419 1.490 . S
C424 C426 1.395 1_655 S
C424 C427 1.403 . S
H425 C431 0.930 . S
C426 H412 0.930 . S
C426 C424 1.395 1_455 S
C426 C429 1.403 . S
C427 C424 1.403 . S
C427 C428 1.524 . S
C427 C431 1.400 . S
C428 H413 0.960 . S
C428 H414 0.960 . S
C428 H415 0.960 . S
C428 C427 1.524 . S
C429 C426 1.403 . S
C429 C430 1.392 1_455 S
C429 C433 1.495 . S
C430 C429 1.392 1_655 S
C430 C431 1.385 . S
C430 C432 1.478 . S
C431 H425 0.930 . S
C431 C427 1.400 . S
C431 C430 1.385 . S
C432 C430 1.478 . S
C432 C434 1.381 . S
C432 C438 1.383 . S
C433 C429 1.495 . S
C433 H439 0.959 . S
C433 H440 0.961 . S
C433 H441 0.960 . S
C434 C432 1.381 . S
C434 C435 1.394 . S
C434 H442 0.930 . S
C435 C434 1.394 . S
C435 C436 1.383 . S
C435 H443 0.929 . S
C436 C435 1.383 . S
C436 C437 1.377 . S
C437 H421 0.930 . S
C437 C436 1.377 . S
C437 C438 1.379 . S
C438 H422 0.931 . S
C438 C432 1.383 . S
C438 C437 1.379 . S
H439 C433 0.959 . S
H440 C433 0.961 . S
H441 C433 0.960 . S
H442 C434 0.930 . S
H443 C435 0.929 . S
C129 C9 1.318 1_455 S
C148 C18 1.345 1_655 S
C165 C58 1.395 1_545 S
C184 C49 1.379 . S
C201 C89 1.177 1_545 S
C220 C98 1.199 . S
C237 C86 0.910 . S
C256 C15 0.909 . S
C273 C59 1.808 . S
C292 C6 1.786 . S
C309 C99 2.268 . S
C328 C50 2.257 . S
C345 C90 2.196 . S
C364 C19 2.183 . S
C381 C10 1.492 . S
C400 C55 1.417 . S
C417 C95 0.898 . S
C436 C46 0.923 . S
