# Generated by pormake.
# Topology wni, (7)-cn, num edge types: 1
# Building blocks:
#     Node 0, Type 0, BuildingBlock: NUHQUE_clean_sbu_2, # of connection points: 7
#     Node 1, Type 0, BuildingBlock: NUHQUE_clean_sbu_2, # of connection points: 7
#     Node 2, Type 0, BuildingBlock: NUHQUE_clean_sbu_2, # of connection points: 7
#     Node 3, Type 0, BuildingBlock: NUHQUE_clean_sbu_2, # of connection points: 7
#     Node 4, Type 0, BuildingBlock: NUHQUE_clean_sbu_2, # of connection points: 7
#     Node 5, Type 0, BuildingBlock: NUHQUE_clean_sbu_2, # of connection points: 7
#     Edge 6, Type (0, 0), BuildingBlock: AJUNOK_clean_linker_0, # of connection points: 2
#     Edge 7, Type (0, 0), BuildingBlock: AJUNOK_clean_linker_0, # of connection points: 2
#     Edge 8, Type (0, 0), BuildingBlock: AJUNOK_clean_linker_0, # of connection points: 2
#     Edge 9, Type (0, 0), BuildingBlock: AJUNOK_clean_linker_0, # of connection points: 2
#     Edge 10, Type (0, 0), BuildingBlock: AJUNOK_clean_linker_0, # of connection points: 2
#     Edge 11, Type (0, 0), BuildingBlock: AJUNOK_clean_linker_0, # of connection points: 2
#     Edge 12, Type (0, 0), BuildingBlock: AJUNOK_clean_linker_0, # of connection points: 2
#     Edge 13, Type (0, 0), BuildingBlock: AJUNOK_clean_linker_0, # of connection points: 2
#     Edge 14, Type (0, 0), BuildingBlock: AJUNOK_clean_linker_0, # of connection points: 2
#     Edge 15, Type (0, 0), BuildingBlock: AJUNOK_clean_linker_0, # of connection points: 2
#     Edge 16, Type (0, 0), BuildingBlock: AJUNOK_clean_linker_0, # of connection points: 2
#     Edge 17, Type (0, 0), BuildingBlock: AJUNOK_clean_linker_0, # of connection points: 2
#     Edge 18, Type (0, 0), BuildingBlock: AJUNOK_clean_linker_0, # of connection points: 2
#     Edge 19, Type (0, 0), BuildingBlock: AJUNOK_clean_linker_0, # of connection points: 2
#     Edge 20, Type (0, 0), BuildingBlock: AJUNOK_clean_linker_0, # of connection points: 2
#     Edge 21, Type (0, 0), BuildingBlock: AJUNOK_clean_linker_0, # of connection points: 2
#     Edge 22, Type (0, 0), BuildingBlock: AJUNOK_clean_linker_0, # of connection points: 2
#     Edge 23, Type (0, 0), BuildingBlock: AJUNOK_clean_linker_0, # of connection points: 2
#     Edge 24, Type (0, 0), BuildingBlock: AJUNOK_clean_linker_0, # of connection points: 2
#     Edge 25, Type (0, 0), BuildingBlock: AJUNOK_clean_linker_0, # of connection points: 2
#     Edge 26, Type (0, 0), BuildingBlock: AJUNOK_clean_linker_0, # of connection points: 2
# Relax obj value: 0.290
# Max RMSD: 0.308
# Mean RMSD: 0.308
data_MOF--net-wni--node1-NUHQUE_clean_sbu_2--edge1-AJUNOK_clean_linker_0
_symmetry_space_group_name_H-M    P1
_symmetry_Int_Tables_number       1
_symmetry_cell_setting            triclinic
loop_
_symmetry_equiv_pos_as_xyz
'x, y, z'
_cell_length_a     27.417852
_cell_length_b     27.376719
_cell_length_c     23.46719
_cell_angle_alpha  90.127408
_cell_angle_beta   89.867103
_cell_angle_gamma 119.91519
loop_
_atom_site_label
_atom_site_type_symbol
_atom_site_fract_x
_atom_site_fract_y
_atom_site_fract_z
_atom_type_partial_charge
O0 O 0.35921 0.56516 0.02154 0.0
Tb1 Tb 0.32738 0.50529 0.09089 0.0
Eu2 Eu 0.21275 0.40358 0.1559 0.0
C3 C 0.38644 0.55867 0.97876 0.0
O4 O 0.38823 0.51173 0.97446 0.0
C5 C 0.28505 0.37925 0.07045 0.0
O6 O 0.15441 0.35666 0.2299 0.0
C7 C 0.15518 0.40953 0.07119 0.0
C8 C 0.12525 0.37894 0.25102 0.0
O9 O 0.13203 0.42537 0.22736 0.0
C10 C 0.26481 0.53166 0.18366 0.0
C11 C 0.11719 0.42913 0.05111 0.0
C12 C 0.10682 0.42627 0.99266 0.0
C13 C 0.06688 0.4388 0.9705 0.0
C14 C 1.03954 0.45762 1.00784 0.0
C15 C 0.05133 0.46333 0.06666 0.0
C16 C 0.09051 0.44886 0.08809 0.0
O17 O 0.29204 0.42537 0.04563 0.0
O18 O 0.26607 0.36754 0.12333 0.0
O19 O 0.41817 0.54868 0.10187 0.0
O20 O 0.36674 0.49196 0.16636 0.0
C21 C 0.41843 0.52691 0.15077 0.0
O22 O 0.25306 0.4837 0.20748 0.0
O23 O 0.28152 0.54217 0.13047 0.0
O24 O 0.13502 0.36695 0.10693 0.0
O25 O 0.20744 0.44792 0.08137 0.0
H26 H 0.12999 0.41375 0.96439 0.0
H27 H 1.00779 0.46635 0.99133 0.0
H28 H 0.10043 0.45311 0.13304 0.0
O29 O 0.50633 0.81826 0.6951 0.0
Tb30 Tb 0.57195 0.84586 0.75854 0.0
Eu31 Eu 0.67166 0.82358 0.8207 0.0
C32 C 0.51334 0.84533 0.64698 0.0
O33 O 0.56368 0.88567 0.63216 0.0
C34 C 0.69816 0.92182 0.73689 0.0
O35 O 0.71369 0.80439 0.8943 0.0
C36 C 0.66183 0.76024 0.73384 0.0
C37 C 0.68616 0.7524 0.91422 0.0
O38 O 0.63841 0.71735 0.8894 0.0
C39 C 0.543 0.75465 0.84938 0.0
C40 C 0.64168 0.70247 0.71364 0.0
C41 C 0.64343 0.69402 0.65503 0.0
C42 C 0.62764 0.64041 0.63305 0.0
C43 C 0.60964 0.595 0.67102 0.0
C44 C 0.60579 0.60236 0.72981 0.0
C45 C 0.62184 0.65648 0.75096 0.0
O46 O 0.65123 0.88394 0.71234 0.0
O47 O 0.70997 0.91361 0.7894 0.0
O48 O 0.5396 0.90351 0.76891 0.0
O49 O 0.58784 0.89684 0.83607 0.0
C50 C 0.56004 0.92149 0.81934 0.0
O51 O 0.59198 0.78841 0.87272 0.0
O52 O 0.53195 0.76278 0.79711 0.0
O53 O 0.70622 0.78304 0.76721 0.0
O54 O 0.62362 0.77356 0.74775 0.0
H55 H 0.65752 0.72965 0.62644 0.0
H56 H 0.60031 0.55402 0.65522 0.0
H57 H 0.61902 0.66275 0.79607 0.0
O58 O 0.25586 0.7119 0.36009 0.0
Tb59 Tb 0.22762 0.74481 0.42865 0.0
Eu60 Eu 0.24665 0.86828 0.48102 0.0
C61 C 0.22261 0.68492 0.31704 0.0
O62 O 0.17403 0.68322 0.31264 0.0
C63 C 0.14541 0.78834 0.40464 0.0
O64 O 0.26269 0.9384 0.54345 0.0
C65 C 0.30767 0.91424 0.39093 0.0
C66 C 0.26075 0.93151 0.5992 0.0
O67 O 0.24386 0.88091 0.61958 0.0
C68 C 0.31927 0.81404 0.51847 0.0
C69 C 0.36628 0.95091 0.37329 0.0
C70 C 0.37698 0.96599 0.31587 0.0
C71 C 0.43179 1.00282 0.29706 0.0
C72 C 0.47618 1.02455 0.33627 0.0
C73 C 0.46645 1.00956 0.39422 0.0
C74 C 0.411 0.97186 0.41241 0.0
O75 O 0.18295 0.77836 0.38057 0.0
O76 O 0.15576 0.8131 0.45497 0.0
O77 O 0.18051 0.65408 0.44107 0.0
O78 O 0.17522 0.7063 0.50484 0.0
C79 C 0.15864 0.6543 0.49005 0.0
O80 O 0.28709 0.83304 0.53855 0.0
O81 O 0.31048 0.79097 0.46766 0.0
O82 O 0.28432 0.93779 0.42079 0.0
O83 O 0.2942 0.86375 0.40877 0.0
H84 H 0.34234 0.9498 0.28582 0.0
H85 H 0.5184 0.05377 0.32155 0.0
H86 H 0.4024 0.95889 0.4566 0.0
O87 O 0.5735 0.34327 0.99993 0.0
Tb88 Tb 0.51518 0.31155 0.92924 0.0
Eu89 Eu 0.41246 0.19285 0.86918 0.0
C90 C 0.56661 0.37133 0.0417 0.0
O91 O 0.52024 0.37422 0.04401 0.0
C92 C 0.3895 0.27052 0.9488 0.0
O93 O 0.35554 0.12582 0.80545 0.0
C94 C 0.42259 0.1418 0.9578 0.0
C95 C 0.36695 0.12816 0.75051 0.0
O96 O 0.40981 0.17412 0.72986 0.0
C97 C 0.53997 0.2446 0.83843 0.0
C98 C 0.44654 0.10743 0.97756 0.0
C99 C 0.44342 0.09567 0.03577 0.0
C100 C 0.46387 0.06172 0.05726 0.0
C101 C 0.48731 0.03907 0.01982 0.0
C102 C 0.49223 0.05154 0.96122 0.0
C103 C 0.47144 0.08593 0.9402 0.0
O104 O 0.43547 0.27841 0.97451 0.0
O105 O 0.37701 0.24805 0.89731 0.0
O106 O 0.56123 0.4024 0.91719 0.0
O107 O 0.50181 0.35167 0.85433 0.0
C108 C 0.53847 0.4032 0.86912 0.0
O109 O 0.49078 0.22902 0.81529 0.0
O110 O 0.55154 0.26457 0.89059 0.0
O111 O 0.37977 0.11813 0.92267 0.0
O112 O 0.45827 0.19443 0.94548 0.0
H113 H 0.42371 0.11196 0.06434 0.0
H114 H 0.50085 1.01087 0.03646 0.0
H115 H 0.47421 0.09564 0.89514 0.0
O116 O 0.72183 0.24091 0.66064 0.0
Tb117 Tb 0.75499 0.21203 0.59289 0.0
Eu118 Eu 0.87995 0.23467 0.53632 0.0
C119 C 0.69911 0.21019 0.70638 0.0
O120 O 0.70242 0.16443 0.71421 0.0
C121 C 0.80344 0.13436 0.61541 0.0
O122 O 0.94222 0.24776 0.46544 0.0
C123 C 0.92866 0.29742 0.6247 0.0
C124 C 0.97775 0.30035 0.45117 0.0
O125 O 0.97717 0.34029 0.48154 0.0
C126 C 0.82135 0.30457 0.50101 0.0
C127 C 0.96563 0.35495 0.64593 0.0
C128 C 0.9768 0.36185 0.70431 0.0
C129 C 1.01596 0.41449 0.72705 0.0
C130 C 0.04217 0.46121 0.69039 0.0
C131 C 1.02983 0.45551 0.63176 0.0
C132 C 0.99081 0.40204 0.6099 0.0
O133 O 0.7942 0.17222 0.63993 0.0
O134 O 0.82614 0.14406 0.56413 0.0
O135 O 0.66425 0.15885 0.58557 0.0
O136 O 0.71558 0.15733 0.51852 0.0
C137 C 0.66387 0.13706 0.53637 0.0
O138 O 0.8428 0.27451 0.4808 0.0
O139 O 0.7962 0.2938 0.55092 0.0
O140 O 0.95171 0.27412 0.59378 0.0
O141 O 0.87817 0.28476 0.60765 0.0
H142 H 0.95478 0.32563 0.73204 0.0
H143 H 0.0735 0.50178 0.70719 0.0
H144 H 0.98008 0.3972 0.56521 0.0
O145 O 0.82666 0.50159 0.34116 0.0
Tb146 Tb 0.84942 0.55413 0.26583 0.0
Eu147 Eu 0.83438 0.65608 0.20082 0.0
C148 C 0.86661 0.50425 0.37405 0.0
O149 O 0.91895 0.54349 0.36427 0.0
C150 C 0.93328 0.68117 0.28288 0.0
O151 O 0.81656 0.69845 0.12647 0.0
C152 C 0.77347 0.65058 0.28832 0.0
C153 C 0.76454 0.67191 0.10676 0.0
O154 O 0.72854 0.62495 0.13232 0.0
C155 C 0.75978 0.52727 0.17479 0.0
C156 C 0.7159 0.63081 0.30864 0.0
C157 C 0.70734 0.63246 0.36726 0.0
C158 C 0.65371 0.61655 0.3891 0.0
C159 C 0.60854 0.59889 0.35097 0.0
C160 C 0.61604 0.59512 0.29219 0.0
C161 C 0.67007 0.61095 0.27127 0.0
O162 O 0.89505 0.63528 0.3088 0.0
O163 O 0.92457 0.69267 0.23044 0.0
O164 O 0.89028 0.5045 0.25067 0.0
O165 O 0.90606 0.57 0.19273 0.0
C166 C 0.91755 0.53034 0.20504 0.0
O167 O 0.7958 0.57502 0.15057 0.0
O168 O 0.7663 0.5171 0.22791 0.0
O169 O 0.79548 0.69341 0.25283 0.0
O170 O 0.78664 0.61184 0.27635 0.0
H171 H 0.74281 0.64638 0.39593 0.0
H172 H 0.56762 0.58963 0.36667 0.0
H173 H 0.67642 0.60787 0.22624 0.0
C174 C 0.51524 0.52842 0.26692 0.0
C175 C 0.56724 0.5762 0.25319 0.0
C176 C 0.46735 0.51208 0.23316 0.0
C177 C 0.4698 0.54282 0.18436 0.0
H178 H 0.51144 0.50367 0.30436 0.0
H179 H 0.42811 0.47542 0.24564 0.0
S180 S 0.59515 0.67237 0.13098 0.0
N181 N 0.61775 0.6548 0.18821 0.0
N182 N 0.52831 0.62366 0.12417 0.0
C183 C 0.52169 0.5902 0.16965 0.0
C184 C 0.57029 0.60697 0.20416 0.0
C185 C 0.50254 0.96718 0.83775 0.0
C186 C 0.54774 0.95947 0.85356 0.0
C187 C 0.48634 0.99897 0.87153 0.0
C188 C 0.51509 1.02479 0.92217 0.0
H189 H 0.47805 0.94677 0.80001 0.0
H190 H 0.44955 1.00129 0.85901 0.0
S191 S 0.64215 1.02498 0.97721 0.0
N192 N 0.62446 0.98459 0.91989 0.0
N193 N 0.59545 0.04611 0.98259 0.0
C194 C 0.56255 1.02014 0.93656 0.0
C195 C 0.57852 0.98707 0.90248 0.0
C196 C 0.0971 0.60572 0.57458 0.0
C197 C 0.12367 0.603 0.52435 0.0
C198 C 0.06581 0.55762 0.60847 0.0
C199 C 0.06008 0.50511 0.59342 0.0
H200 H 0.10078 0.64531 0.58801 0.0
H201 H 0.04615 0.56162 0.64693 0.0
S202 S 0.12397 0.47642 0.46743 0.0
N203 N 0.14296 0.54365 0.46169 0.0
N204 N 0.08551 0.45408 0.5259 0.0
C205 C 0.08643 0.50195 0.54321 0.0
C206 C 0.11791 0.55069 0.50861 0.0
C207 C 0.53863 0.50157 0.75523 0.0
C208 C 0.58693 0.55331 0.76857 0.0
C209 C 0.52263 0.45325 0.78833 0.0
C210 C 0.5543 0.45496 0.83602 0.0
H211 H 0.5133 0.49832 0.7185 0.0
H212 H 0.48551 0.41424 0.77619 0.0
S213 S 0.6853 0.57953 0.88808 0.0
N214 N 0.66679 0.60291 0.8321 0.0
N215 N 0.63648 0.51264 0.89484 0.0
C216 C 0.6022 0.50663 0.85038 0.0
C217 C 0.61854 0.5557 0.81658 0.0
C218 C 0.56732 0.04282 0.41936 0.0
C219 C 0.51449 0.03589 0.43496 0.0
C220 C 0.61528 0.07437 0.45305 0.0
C221 C 0.61213 0.09955 0.50403 0.0
H222 H 0.57198 1.02479 0.38001 0.0
H223 H 0.65525 0.0799 0.43848 0.0
S224 S 0.48368 0.09192 0.56606 0.0
N225 N 0.46205 0.05596 0.50599 0.0
N226 N 0.55146 0.11314 0.57031 0.0
C227 C 0.5592 0.09081 0.52163 0.0
C228 C 0.51053 0.05938 0.48695 0.0
C229 C 1.01345 0.52808 0.08906 0.0
C230 C 1.02075 0.48249 0.10509 0.0
C231 C 0.98091 0.54412 0.12202 0.0
C232 C 0.95442 0.51519 0.17229 0.0
H233 H 1.03271 0.55132 0.05037 0.0
H234 H 0.97585 0.57888 0.10756 0.0
S235 S 0.96122 0.39389 0.23416 0.0
N236 N 0.99903 0.40915 0.17527 0.0
N237 N 0.93917 0.43997 0.23775 0.0
C238 C 0.96257 0.47054 0.1897 0.0
C239 C 0.99548 0.45409 0.15606 0.0
C240 C 0.35259 0.29024 0.03839 0.0
C241 C 0.3543 0.29002 0.97832 0.0
C242 C 0.32673 0.31592 0.06811 0.0
C243 C 0.30276 0.34354 0.03887 0.0
H244 H 0.37283 0.27176 0.06276 0.0
H245 H 0.32833 0.3168 0.11424 0.0
S246 S 0.29315 0.35222 0.88167 0.0
N247 N 0.32681 0.31685 0.89078 0.0
N248 N 0.27931 0.36612 0.94629 0.0
C249 C 0.30223 0.34168 0.97879 0.0
C250 C 0.32764 0.31462 0.94859 0.0
C251 C 0.78293 0.07846 0.70553 0.0
C252 C 0.78488 0.08015 0.64545 0.0
C253 C 0.75841 1.02707 0.7353 0.0
C254 C 0.73373 0.97541 0.70601 0.0
H255 H 0.79911 0.11716 0.72981 0.0
H256 H 0.75589 0.0278 0.78134 0.0
S257 S 0.73051 0.95651 0.54906 0.0
N258 N 0.76293 1.02551 0.55806 0.0
N259 N 0.71568 0.92908 0.61369 0.0
C260 C 0.73736 0.97656 0.64607 0.0
C261 C 0.76328 0.02887 0.61586 0.0
C262 C 1.03846 0.74108 0.28434 0.0
C263 C 0.98686 0.71743 0.31349 0.0
C264 C 0.08972 0.7661 0.31423 0.0
C265 C 0.09138 0.76961 0.37428 0.0
H266 H 1.03922 0.73733 0.23843 0.0
H267 H 0.12836 0.78139 0.29011 0.0
S268 S 0.9679 0.71877 0.47015 0.0
N269 N 0.94057 0.70229 0.40556 0.0
N270 N 1.03679 0.75048 0.46132 0.0
C271 C 1.04019 0.74918 0.40362 0.0
C272 C 0.98799 0.72274 0.37332 0.0
C273 C 1.03082 0.36917 0.37429 0.0
C274 C 1.01394 0.31641 0.39924 0.0
C275 C 0.06635 0.38815 0.32678 0.0
C276 C 0.0871 0.35543 0.30146 0.0
H277 H 1.01636 0.39651 0.39154 0.0
H278 H 0.07786 0.42939 0.31013 0.0
S279 S 0.05461 0.21304 0.34913 0.0
N280 N 1.01969 0.23075 0.39432 0.0
N281 N 0.08702 0.26655 0.30457 0.0
C282 C 0.07018 0.30209 0.3254 0.0
C283 C 1.03335 0.28248 0.37413 0.0
C284 C 0.76021 0.76615 0.98766 0.0
C285 C 0.7065 0.73235 0.96337 0.0
C286 C 0.77928 0.7466 0.03355 0.0
C287 C 0.74536 0.69252 0.05714 0.0
H288 H 0.78784 0.80799 0.97106 0.0
H289 H 0.82074 0.77424 0.05086 0.0
S290 S 0.60111 0.5869 1.00902 0.0
N291 N 0.61963 0.64175 0.96727 0.0
N292 N 0.65535 0.60518 0.05145 0.0
C293 C 0.69168 0.6583 0.03289 0.0
C294 C 0.67231 0.67814 0.98669 0.0
C295 C 0.34273 0.08325 0.65319 0.0
C296 C 0.33509 0.07785 0.7128 0.0
C297 C 0.31703 0.03613 0.61684 0.0
C298 C 0.28299 0.98127 0.63833 0.0
H299 H 0.36954 0.12418 0.63434 0.0
H300 H 0.32544 0.04279 0.57151 0.0
S301 S 0.24772 0.94378 0.79088 0.0
N302 N 0.28919 1.01285 0.79135 0.0
N303 N 0.24154 0.92465 0.72332 0.0
C304 C 0.27399 0.9753 0.69774 0.0
C305 C 0.29979 1.02341 0.73474 0.0
C306 C 0.44628 0.66247 0.96624 0.0
C307 C 0.42357 0.60785 0.94317 0.0
C308 C 0.48536 0.70993 0.93572 0.0
C309 C 0.50174 0.70447 0.88055 0.0
H310 H 0.43511 0.6686 1.00891 0.0
H311 H 0.50259 0.75117 0.95524 0.0
S312 S 0.45575 0.57155 0.80091 0.0
N313 N 0.42156 0.55128 0.86216 0.0
N314 N 0.49351 0.64101 0.80395 0.0
C315 C 0.47907 0.65046 0.85657 0.0
C316 C 0.44035 0.60195 0.88815 0.0
C317 C 0.4167 0.82865 0.52406 0.0
C318 C 0.36799 0.82134 0.55205 0.0
C319 C 0.46396 0.83677 0.55494 0.0
C320 C 0.46338 0.83619 0.61475 0.0
H321 H 0.41874 0.82912 0.47794 0.0
H322 H 0.5009 0.84295 0.5319 0.0
S323 S 0.34681 0.81978 0.70833 0.0
N324 N 0.32272 0.8154 0.643 0.0
N325 N 0.41079 0.82906 0.70097 0.0
C326 C 0.41492 0.82873 0.64323 0.0
C327 C 0.3674 0.82176 0.61188 0.0
C328 C 0.27811 0.58917 0.27042 0.0
C329 C 0.25533 0.5723 0.21571 0.0
C330 C 0.26901 0.62742 0.30192 0.0
C331 C 0.23544 0.64879 0.28037 0.0
H332 H 0.30338 0.57292 0.28884 0.0
H333 H 0.28708 0.63895 0.34418 0.0
S334 S 0.16434 0.61513 0.13972 0.0
N335 N 0.19767 0.57885 0.14108 0.0
N336 N 0.1786 0.64922 0.20109 0.0
C337 C 0.21199 0.63166 0.22574 0.0
C338 C 0.22247 0.59378 0.19316 0.0
C339 C 0.67003 0.42982 0.05709 0.0
C340 C 0.61497 0.40808 0.0784 0.0
C341 C 0.71681 0.46877 0.08848 0.0
C342 C 0.7102 0.48599 0.14286 0.0
H343 H 0.67708 0.41804 0.01507 0.0
H344 H 0.75844 0.48527 0.07024 0.0
S345 S 0.57572 0.44235 0.21807 0.0
N346 N 0.55676 0.40767 0.157 0.0
N347 N 0.64517 0.47935 0.21691 0.0
C348 C 0.65572 0.46417 0.16517 0.0
C349 C 0.60793 0.42559 0.13265 0.0
C350 C 0.63275 0.24684 0.71796 0.0
C351 C 0.66143 0.22134 0.74235 0.0
C352 C 0.59305 0.25377 0.74926 0.0
C353 C 0.58185 0.23691 0.80644 0.0
H354 H 0.63974 0.2601 0.6738 0.0
H355 H 0.57126 0.27281 0.72871 0.0
S356 S 0.64533 0.16824 0.89039 0.0
N357 N 0.67519 0.17856 0.82698 0.0
N358 N 0.60201 0.19367 0.88649 0.0
C359 C 0.61072 0.21222 0.83173 0.0
C360 C 0.65014 0.20385 0.79946 0.0
C361 C 0.88308 0.38835 0.44172 0.0
C362 C 0.83143 0.35548 0.46971 0.0
C363 C 0.89494 0.43788 0.41323 0.0
C364 C 0.85489 0.45558 0.41022 0.0
H365 H 0.91486 0.37604 0.44207 0.0
H366 H 0.93515 0.4614 0.39177 0.0
S367 S 0.71261 0.38378 0.47521 0.0
N368 N 0.73994 0.34413 0.49311 0.0
N369 N 0.76126 0.43625 0.43712 0.0
C370 C 0.80284 0.42296 0.43762 0.0
C371 C 0.79136 0.37319 0.46804 0.0
C372 C 1.03503 0.46668 0.81998 0.0
C373 C 1.02995 0.42031 0.7889 0.0
C374 C 0.04675 0.47226 0.87854 0.0
C375 C 0.05329 0.43141 0.90853 0.0
H376 H 1.02935 0.49872 0.79905 0.0
H377 H 0.05121 0.50919 0.90033 0.0
S378 S 0.04392 0.30175 0.84709 0.0
N379 N 1.03485 0.33397 0.79226 0.0
N380 N 0.05164 0.34175 0.90285 0.0
C381 C 0.04764 0.38446 0.87805 0.0
C382 C 1.03724 0.37957 0.81822 0.0
C383 C 0.67997 0.6735 0.5406 0.0
C384 C 0.63268 0.63285 0.57081 0.0
C385 C 0.68612 0.6679 0.48215 0.0
C386 C 0.64577 0.62089 0.45137 0.0
H387 H 0.71294 0.70996 0.5623 0.0
H388 H 0.72275 0.70111 0.46089 0.0
S389 S 0.51441 0.50181 0.51032 0.0
N390 N 0.54383 0.54451 0.56503 0.0
N391 N 0.55755 0.5318 0.45606 0.0
C392 C 0.59855 0.57944 0.48111 0.0
C393 C 0.59162 0.58582 0.54053 0.0
C394 C 0.43129 0.99127 0.13614 0.0
C395 C 0.45834 0.0479 0.11867 0.0
C396 C 0.42309 0.97707 0.19403 0.0
C397 C 0.44224 1.01905 0.23632 0.0
H398 H 0.41534 0.9577 0.10481 0.0
H399 H 0.40163 0.93295 0.20583 0.0
S400 S 0.51645 0.17348 0.21272 0.0
N401 N 0.50518 0.14616 0.148 0.0
N402 N 0.48945 0.11941 0.25698 0.0
C403 C 0.46997 0.07582 0.21944 0.0
C404 C 0.478 0.09026 0.16053 0.0
loop_
_geom_bond_atom_site_label_1
_geom_bond_atom_site_label_2
_geom_bond_distance
_geom_bond_site_symmetry_2
_ccdc_geom_bond_type
O0 Tb1 2.292 1_556 S
O0 C3 1.255 . S
Tb1 O0 2.292 1_554 S
Tb1 O17 2.326 . S
Tb1 O19 2.500 . S
Tb1 O20 2.473 . S
Tb1 O23 2.324 . S
Eu2 O6 2.292 . S
Eu2 C7 2.852 . S
Eu2 O18 2.324 . S
Eu2 O22 2.326 . S
Eu2 O24 2.500 . S
Eu2 O25 2.473 . S
C3 O0 1.255 . S
C3 O4 1.247 . S
O4 C3 1.247 . S
C5 O17 1.242 . S
C5 O18 1.258 . S
O6 Eu2 2.292 . S
O6 C8 1.255 . S
C7 Eu2 2.852 . S
C7 C11 1.503 . S
C7 O24 1.273 . S
C7 O25 1.257 . S
C8 O6 1.255 . S
C8 O9 1.247 . S
O9 C8 1.247 . S
C10 O22 1.242 . S
C10 O23 1.258 . S
C11 C7 1.503 . S
C11 C12 1.379 1_554 S
C11 C16 1.392 . S
C12 C11 1.379 1_556 S
C12 C13 1.404 . S
C12 H26 0.929 . S
C13 C12 1.404 . S
C13 C14 1.389 1_455 S
C14 C13 1.389 1_655 S
C14 C15 1.399 1_556 S
C14 H27 0.931 . S
C15 C14 1.399 1_554 S
C15 C16 1.390 1_655 S
C16 C11 1.392 . S
C16 C15 1.390 1_455 S
C16 H28 0.929 1_455 S
O17 Tb1 2.326 . S
O17 C5 1.242 . S
O18 Eu2 2.324 . S
O18 C5 1.258 . S
O19 Tb1 2.500 . S
O19 C21 1.273 . S
O20 Tb1 2.473 . S
O20 C21 1.257 . S
C21 O19 1.273 . S
C21 O20 1.257 . S
O22 Eu2 2.326 . S
O22 C10 1.242 . S
O23 Tb1 2.324 . S
O23 C10 1.258 . S
O24 Eu2 2.500 . S
O24 C7 1.273 . S
O25 Eu2 2.473 . S
O25 C7 1.257 . S
H26 C12 0.929 . S
H27 C14 0.931 . S
H28 C16 0.929 1_655 S
O29 Tb30 2.292 . S
O29 C32 1.255 . S
Tb30 O29 2.292 . S
Tb30 O46 2.326 . S
Tb30 O48 2.500 . S
Tb30 O49 2.473 . S
Tb30 O52 2.324 . S
Eu31 O35 2.292 . S
Eu31 C36 2.852 . S
Eu31 O47 2.324 . S
Eu31 O51 2.326 . S
Eu31 O53 2.500 . S
Eu31 O54 2.473 . S
C32 O29 1.255 . S
C32 O33 1.247 . S
O33 C32 1.247 . S
C34 O46 1.242 . S
C34 O47 1.258 . S
O35 Eu31 2.292 . S
O35 C37 1.255 . S
C36 Eu31 2.852 . S
C36 C40 1.503 . S
C36 O53 1.273 . S
C36 O54 1.257 . S
C37 O35 1.255 . S
C37 O38 1.247 . S
O38 C37 1.247 . S
C39 O51 1.242 . S
C39 O52 1.258 . S
C40 C36 1.503 . S
C40 C41 1.379 . S
C40 C45 1.392 . S
C41 C40 1.379 . S
C41 C42 1.404 . S
C41 H55 0.929 . S
C42 C41 1.404 . S
C42 C43 1.389 . S
C43 C42 1.389 . S
C43 C44 1.399 . S
C43 H56 0.931 . S
C44 C43 1.399 . S
C44 C45 1.390 . S
C45 C40 1.392 . S
C45 C44 1.390 . S
C45 H57 0.929 . S
O46 Tb30 2.326 . S
O46 C34 1.242 . S
O47 Eu31 2.324 . S
O47 C34 1.258 . S
O48 Tb30 2.500 . S
O48 C50 1.273 . S
O49 Tb30 2.473 . S
O49 C50 1.257 . S
C50 O48 1.273 . S
C50 O49 1.257 . S
O51 Eu31 2.326 . S
O51 C39 1.242 . S
O52 Tb30 2.324 . S
O52 C39 1.258 . S
O53 Eu31 2.500 . S
O53 C36 1.273 . S
O54 Eu31 2.473 . S
O54 C36 1.257 . S
H55 C41 0.929 . S
H56 C43 0.931 . S
H57 C45 0.929 . S
O58 Tb59 2.292 . S
O58 C61 1.255 . S
Tb59 O58 2.292 . S
Tb59 O75 2.326 . S
Tb59 O77 2.500 . S
Tb59 O78 2.473 . S
Tb59 O81 2.324 . S
Eu60 O64 2.292 . S
Eu60 C65 2.852 . S
Eu60 O76 2.324 . S
Eu60 O80 2.326 . S
Eu60 O82 2.500 . S
Eu60 O83 2.473 . S
C61 O58 1.255 . S
C61 O62 1.247 . S
O62 C61 1.247 . S
C63 O75 1.242 . S
C63 O76 1.258 . S
O64 Eu60 2.292 . S
O64 C66 1.255 . S
C65 Eu60 2.852 . S
C65 C69 1.503 . S
C65 O82 1.273 . S
C65 O83 1.257 . S
C66 O64 1.255 . S
C66 O67 1.247 . S
O67 C66 1.247 . S
C68 O80 1.242 . S
C68 O81 1.258 . S
C69 C65 1.503 . S
C69 C70 1.379 . S
C69 C74 1.392 . S
C70 C69 1.379 . S
C70 C71 1.404 . S
C70 H84 0.929 . S
C71 C70 1.404 . S
C71 C72 1.389 1_565 S
C72 C71 1.389 1_545 S
C72 C73 1.399 . S
C72 H85 0.931 . S
C73 C72 1.399 . S
C73 C74 1.390 1_545 S
C74 C69 1.392 . S
C74 C73 1.390 1_565 S
C74 H86 0.929 1_565 S
O75 Tb59 2.326 . S
O75 C63 1.242 . S
O76 Eu60 2.324 . S
O76 C63 1.258 . S
O77 Tb59 2.500 . S
O77 C79 1.273 . S
O78 Tb59 2.473 . S
O78 C79 1.257 . S
C79 O77 1.273 . S
C79 O78 1.257 . S
O80 Eu60 2.326 . S
O80 C68 1.242 . S
O81 Tb59 2.324 . S
O81 C68 1.258 . S
O82 Eu60 2.500 . S
O82 C65 1.273 . S
O83 Eu60 2.473 . S
O83 C65 1.257 . S
H84 C70 0.929 . S
H85 C72 0.931 . S
H86 C74 0.929 1_545 S
O87 Tb88 2.292 1_554 S
O87 C90 1.255 . S
Tb88 O87 2.292 1_556 S
Tb88 O104 2.326 . S
Tb88 O106 2.500 . S
Tb88 O107 2.473 . S
Tb88 O110 2.324 . S
Eu89 O93 2.292 . S
Eu89 C94 2.852 . S
Eu89 O105 2.324 . S
Eu89 O109 2.326 . S
Eu89 O111 2.500 . S
Eu89 O112 2.473 . S
C90 O87 1.255 . S
C90 O91 1.247 . S
O91 C90 1.247 . S
C92 O104 1.242 . S
C92 O105 1.258 . S
O93 Eu89 2.292 . S
O93 C95 1.255 . S
C94 Eu89 2.852 . S
C94 C98 1.503 . S
C94 O111 1.273 . S
C94 O112 1.257 . S
C95 O93 1.255 . S
C95 O96 1.247 . S
O96 C95 1.247 . S
C97 O109 1.242 . S
C97 O110 1.258 . S
C98 C94 1.503 . S
C98 C99 1.379 1_556 S
C98 C103 1.392 . S
C99 C98 1.379 1_554 S
C99 C100 1.404 . S
C99 H113 0.929 . S
C100 C99 1.404 . S
C100 C101 1.389 1_545 S
C101 C100 1.389 1_565 S
C101 C102 1.399 1_554 S
C101 H114 0.931 . S
C102 C101 1.399 1_556 S
C102 C103 1.390 1_565 S
C103 C98 1.392 . S
C103 C102 1.390 1_545 S
C103 H115 0.929 1_545 S
O104 Tb88 2.326 . S
O104 C92 1.242 . S
O105 Eu89 2.324 . S
O105 C92 1.258 . S
O106 Tb88 2.500 . S
O106 C108 1.273 . S
O107 Tb88 2.473 . S
O107 C108 1.257 . S
C108 O106 1.273 . S
C108 O107 1.257 . S
O109 Eu89 2.326 . S
O109 C97 1.242 . S
O110 Tb88 2.324 . S
O110 C97 1.258 . S
O111 Eu89 2.500 . S
O111 C94 1.273 . S
O112 Eu89 2.473 . S
O112 C94 1.257 . S
H113 C99 0.929 . S
H114 C101 0.931 . S
H115 C103 0.929 1_565 S
O116 Tb117 2.292 . S
O116 C119 1.255 . S
Tb117 O116 2.292 . S
Tb117 O133 2.326 . S
Tb117 O135 2.500 . S
Tb117 O136 2.473 . S
Tb117 O139 2.324 . S
Eu118 O122 2.292 . S
Eu118 C123 2.852 . S
Eu118 O134 2.324 . S
Eu118 O138 2.326 . S
Eu118 O140 2.500 . S
Eu118 O141 2.473 . S
C119 O116 1.255 . S
C119 O120 1.247 . S
O120 C119 1.247 . S
C121 O133 1.242 . S
C121 O134 1.258 . S
O122 Eu118 2.292 . S
O122 C124 1.255 . S
C123 Eu118 2.852 . S
C123 C127 1.503 . S
C123 O140 1.273 . S
C123 O141 1.257 . S
C124 O122 1.255 . S
C124 O125 1.247 . S
O125 C124 1.247 . S
C126 O138 1.242 . S
C126 O139 1.258 . S
C127 C123 1.503 . S
C127 C128 1.379 . S
C127 C132 1.392 . S
C128 C127 1.379 . S
C128 C129 1.404 . S
C128 H142 0.929 . S
C129 C128 1.404 . S
C129 C130 1.389 1_655 S
C130 C129 1.389 1_455 S
C130 C131 1.399 . S
C130 H143 0.931 . S
C131 C130 1.399 . S
C131 C132 1.390 1_455 S
C132 C127 1.392 . S
C132 C131 1.390 1_655 S
C132 H144 0.929 1_655 S
O133 Tb117 2.326 . S
O133 C121 1.242 . S
O134 Eu118 2.324 . S
O134 C121 1.258 . S
O135 Tb117 2.500 . S
O135 C137 1.273 . S
O136 Tb117 2.473 . S
O136 C137 1.257 . S
C137 O135 1.273 . S
C137 O136 1.257 . S
O138 Eu118 2.326 . S
O138 C126 1.242 . S
O139 Tb117 2.324 . S
O139 C126 1.258 . S
O140 Eu118 2.500 . S
O140 C123 1.273 . S
O141 Eu118 2.473 . S
O141 C123 1.257 . S
H142 C128 0.929 . S
H143 C130 0.931 . S
H144 C132 0.929 1_455 S
O145 Tb146 2.292 . S
O145 C148 1.255 . S
Tb146 O145 2.292 . S
Tb146 O162 2.326 . S
Tb146 O164 2.500 . S
Tb146 O165 2.473 . S
Tb146 O168 2.324 . S
Eu147 O151 2.292 . S
Eu147 C152 2.852 . S
Eu147 O163 2.324 . S
Eu147 O167 2.326 . S
Eu147 O169 2.500 . S
Eu147 O170 2.473 . S
C148 O145 1.255 . S
C148 O149 1.247 . S
O149 C148 1.247 . S
C150 O162 1.242 . S
C150 O163 1.258 . S
O151 Eu147 2.292 . S
O151 C153 1.255 . S
C152 Eu147 2.852 . S
C152 C156 1.503 . S
C152 O169 1.273 . S
C152 O170 1.257 . S
C153 O151 1.255 . S
C153 O154 1.247 . S
O154 C153 1.247 . S
C155 O167 1.242 . S
C155 O168 1.258 . S
C156 C152 1.503 . S
C156 C157 1.379 . S
C156 C161 1.392 . S
C157 C156 1.379 . S
C157 C158 1.404 . S
C157 H171 0.929 . S
C158 C157 1.404 . S
C158 C159 1.389 . S
C159 C158 1.389 . S
C159 C160 1.399 . S
C159 H172 0.931 . S
C160 C159 1.399 . S
C160 C161 1.390 . S
C161 C156 1.392 . S
C161 C160 1.390 . S
C161 H173 0.929 . S
O162 Tb146 2.326 . S
O162 C150 1.242 . S
O163 Eu147 2.324 . S
O163 C150 1.258 . S
O164 Tb146 2.500 . S
O164 C166 1.273 . S
O165 Tb146 2.473 . S
O165 C166 1.257 . S
C166 O164 1.273 . S
C166 O165 1.257 . S
O167 Eu147 2.326 . S
O167 C155 1.242 . S
O168 Tb146 2.324 . S
O168 C155 1.258 . S
O169 Eu147 2.500 . S
O169 C152 1.273 . S
O170 Eu147 2.473 . S
O170 C152 1.257 . S
H171 C157 0.929 . S
H172 C159 0.931 . S
H173 C161 0.929 . S
C174 C175 1.369 . S
C174 C176 1.419 . S
C174 H178 0.930 . S
C175 C174 1.369 . S
C175 C184 1.429 . S
C176 C174 1.419 . S
C176 C177 1.363 . S
C176 H179 0.929 . S
C177 C176 1.363 . S
C177 C183 1.428 . S
H178 C174 0.930 . S
H179 C176 0.929 . S
S180 N181 1.613 . S
S180 N182 1.610 . S
N181 S180 1.613 . S
N181 C184 1.350 . S
N182 S180 1.610 . S
N182 C183 1.351 . S
C183 C177 1.428 . S
C183 N182 1.351 . S
C183 C184 1.434 . S
C184 C175 1.429 . S
C184 N181 1.350 . S
C184 C183 1.434 . S
C185 C186 1.369 . S
C185 C187 1.419 . S
C185 H189 0.930 . S
C186 C185 1.369 . S
C186 C195 1.429 . S
C187 C185 1.419 . S
C187 C188 1.363 . S
C187 H190 0.929 . S
C188 C187 1.363 . S
C188 C194 1.428 . S
H189 C185 0.930 . S
H190 C187 0.929 . S
S191 N192 1.613 . S
S191 N193 1.610 . S
N192 S191 1.613 . S
N192 C195 1.350 . S
N193 S191 1.610 . S
N193 C194 1.351 . S
C194 C188 1.428 . S
C194 N193 1.351 . S
C194 C195 1.434 . S
C195 C186 1.429 . S
C195 N192 1.350 . S
C195 C194 1.434 . S
C196 C197 1.369 . S
C196 C198 1.419 . S
C196 H200 0.930 . S
C197 C196 1.369 . S
C197 C206 1.429 . S
C198 C196 1.419 . S
C198 C199 1.363 . S
C198 H201 0.929 . S
C199 C198 1.363 . S
C199 C205 1.428 . S
H200 C196 0.930 . S
H201 C198 0.929 . S
S202 N203 1.613 . S
S202 N204 1.610 . S
N203 S202 1.613 . S
N203 C206 1.350 . S
N204 S202 1.610 . S
N204 C205 1.351 . S
C205 C199 1.428 . S
C205 N204 1.351 . S
C205 C206 1.434 . S
C206 C197 1.429 . S
C206 N203 1.350 . S
C206 C205 1.434 . S
C207 C208 1.369 . S
C207 C209 1.419 . S
C207 H211 0.930 . S
C208 C207 1.369 . S
C208 C217 1.429 . S
C209 C207 1.419 . S
C209 C210 1.363 . S
C209 H212 0.929 . S
C210 C209 1.363 . S
C210 C216 1.428 . S
H211 C207 0.930 . S
H212 C209 0.929 . S
S213 N214 1.613 . S
S213 N215 1.610 . S
N214 S213 1.613 . S
N214 C217 1.350 . S
N215 S213 1.610 . S
N215 C216 1.351 . S
C216 C210 1.428 . S
C216 N215 1.351 . S
C216 C217 1.434 . S
C217 C208 1.429 . S
C217 N214 1.350 . S
C217 C216 1.434 . S
C218 C219 1.369 . S
C218 C220 1.419 . S
C218 H222 0.930 . S
C219 C218 1.369 . S
C219 C228 1.429 . S
C220 C218 1.419 . S
C220 C221 1.363 . S
C220 H223 0.929 . S
C221 C220 1.363 . S
C221 C227 1.428 . S
H222 C218 0.930 . S
H223 C220 0.929 . S
S224 N225 1.613 . S
S224 N226 1.610 . S
N225 S224 1.613 . S
N225 C228 1.350 . S
N226 S224 1.610 . S
N226 C227 1.351 . S
C227 C221 1.428 . S
C227 N226 1.351 . S
C227 C228 1.434 . S
C228 C219 1.429 . S
C228 N225 1.350 . S
C228 C227 1.434 . S
C229 C230 1.369 . S
C229 C231 1.419 . S
C229 H233 0.930 . S
C230 C229 1.369 . S
C230 C239 1.429 . S
C231 C229 1.419 . S
C231 C232 1.363 . S
C231 H234 0.929 . S
C232 C231 1.363 . S
C232 C238 1.428 . S
H233 C229 0.930 . S
H234 C231 0.929 . S
S235 N236 1.613 . S
S235 N237 1.610 . S
N236 S235 1.613 . S
N236 C239 1.350 . S
N237 S235 1.610 . S
N237 C238 1.351 . S
C238 C232 1.428 . S
C238 N237 1.351 . S
C238 C239 1.434 . S
C239 C230 1.429 . S
C239 N236 1.350 . S
C239 C238 1.434 . S
C240 C241 1.369 1_554 S
C240 C242 1.419 . S
C240 H244 0.930 . S
C241 C240 1.369 1_556 S
C241 C250 1.429 . S
C242 C240 1.419 . S
C242 C243 1.363 . S
C242 H245 0.929 . S
C243 C242 1.363 . S
C243 C249 1.428 1_554 S
H244 C240 0.930 . S
H245 C242 0.929 . S
S246 N247 1.613 . S
S246 N248 1.610 . S
N247 S246 1.613 . S
N247 C250 1.350 . S
N248 S246 1.610 . S
N248 C249 1.351 . S
C249 C243 1.428 1_556 S
C249 N248 1.351 . S
C249 C250 1.434 . S
C250 C241 1.429 . S
C250 N247 1.350 . S
C250 C249 1.434 . S
C251 C252 1.369 . S
C251 C253 1.419 1_545 S
C251 H255 0.930 . S
C252 C251 1.369 . S
C252 C261 1.429 . S
C253 C251 1.419 1_565 S
C253 C254 1.363 . S
C253 H256 0.929 . S
C254 C253 1.363 . S
C254 C260 1.428 . S
H255 C251 0.930 . S
H256 C253 0.929 . S
S257 N258 1.613 1_565 S
S257 N259 1.610 . S
N258 S257 1.613 1_545 S
N258 C261 1.350 . S
N259 S257 1.610 . S
N259 C260 1.351 . S
C260 C254 1.428 . S
C260 N259 1.351 . S
C260 C261 1.434 1_565 S
C261 C252 1.429 . S
C261 N258 1.350 . S
C261 C260 1.434 1_545 S
C262 C263 1.369 . S
C262 C264 1.419 1_655 S
C262 H266 0.930 . S
C263 C262 1.369 . S
C263 C272 1.429 . S
C264 C262 1.419 1_455 S
C264 C265 1.363 . S
C264 H267 0.929 . S
C265 C264 1.363 . S
C265 C271 1.428 . S
H266 C262 0.930 . S
H267 C264 0.929 . S
S268 N269 1.613 . S
S268 N270 1.610 1_655 S
N269 S268 1.613 . S
N269 C272 1.350 . S
N270 S268 1.610 1_455 S
N270 C271 1.351 . S
C271 C265 1.428 . S
C271 N270 1.351 . S
C271 C272 1.434 1_455 S
C272 C263 1.429 . S
C272 N269 1.350 . S
C272 C271 1.434 1_655 S
C273 C274 1.369 . S
C273 C275 1.419 1_655 S
C273 H277 0.930 . S
C274 C273 1.369 . S
C274 C283 1.429 . S
C275 C273 1.419 1_455 S
C275 C276 1.363 . S
C275 H278 0.929 . S
C276 C275 1.363 . S
C276 C282 1.428 . S
H277 C273 0.930 . S
H278 C275 0.929 . S
S279 N280 1.613 1_455 S
S279 N281 1.610 . S
N280 S279 1.613 1_655 S
N280 C283 1.350 . S
N281 S279 1.610 . S
N281 C282 1.351 . S
C282 C276 1.428 . S
C282 N281 1.351 . S
C282 C283 1.434 1_455 S
C283 C274 1.429 . S
C283 N280 1.350 . S
C283 C282 1.434 1_655 S
C284 C285 1.369 1_554 S
C284 C286 1.419 . S
C284 H288 0.930 . S
C285 C284 1.369 1_556 S
C285 C294 1.429 . S
C286 C284 1.419 . S
C286 C287 1.363 . S
C286 H289 0.929 . S
C287 C286 1.363 . S
C287 C293 1.428 1_554 S
H288 C284 0.930 . S
H289 C286 0.929 . S
S290 N291 1.613 . S
S290 N292 1.610 . S
N291 S290 1.613 . S
N291 C294 1.350 . S
N292 S290 1.610 . S
N292 C293 1.351 . S
C293 C287 1.428 1_556 S
C293 N292 1.351 . S
C293 C294 1.434 . S
C294 C285 1.429 . S
C294 N291 1.350 . S
C294 C293 1.434 . S
C295 C296 1.369 . S
C295 C297 1.419 1_545 S
C295 H299 0.930 . S
C296 C295 1.369 . S
C296 C305 1.429 . S
C297 C295 1.419 1_565 S
C297 C298 1.363 . S
C297 H300 0.929 . S
C298 C297 1.363 . S
C298 C304 1.428 . S
H299 C295 0.930 . S
H300 C297 0.929 . S
S301 N302 1.613 1_565 S
S301 N303 1.610 . S
N302 S301 1.613 1_545 S
N302 C305 1.350 . S
N303 S301 1.610 . S
N303 C304 1.351 . S
C304 C298 1.428 . S
C304 N303 1.351 . S
C304 C305 1.434 1_565 S
C305 C296 1.429 . S
C305 N302 1.350 . S
C305 C304 1.434 1_545 S
C306 C307 1.369 . S
C306 C308 1.419 . S
C306 H310 0.930 . S
C307 C306 1.369 . S
C307 C316 1.429 . S
C308 C306 1.419 . S
C308 C309 1.363 . S
C308 H311 0.929 . S
C309 C308 1.363 . S
C309 C315 1.428 . S
H310 C306 0.930 . S
H311 C308 0.929 . S
S312 N313 1.613 . S
S312 N314 1.610 . S
N313 S312 1.613 . S
N313 C316 1.350 . S
N314 S312 1.610 . S
N314 C315 1.351 . S
C315 C309 1.428 . S
C315 N314 1.351 . S
C315 C316 1.434 . S
C316 C307 1.429 . S
C316 N313 1.350 . S
C316 C315 1.434 . S
C317 C318 1.369 . S
C317 C319 1.419 . S
C317 H321 0.930 . S
C318 C317 1.369 . S
C318 C327 1.429 . S
C319 C317 1.419 . S
C319 C320 1.363 . S
C319 H322 0.929 . S
C320 C319 1.363 . S
C320 C326 1.428 . S
H321 C317 0.930 . S
H322 C319 0.929 . S
S323 N324 1.613 . S
S323 N325 1.610 . S
N324 S323 1.613 . S
N324 C327 1.350 . S
N325 S323 1.610 . S
N325 C326 1.351 . S
C326 C320 1.428 . S
C326 N325 1.351 . S
C326 C327 1.434 . S
C327 C318 1.429 . S
C327 N324 1.350 . S
C327 C326 1.434 . S
C328 C329 1.369 . S
C328 C330 1.419 . S
C328 H332 0.930 . S
C329 C328 1.369 . S
C329 C338 1.429 . S
C330 C328 1.419 . S
C330 C331 1.363 . S
C330 H333 0.929 . S
C331 C330 1.363 . S
C331 C337 1.428 . S
H332 C328 0.930 . S
H333 C330 0.929 . S
S334 N335 1.613 . S
S334 N336 1.610 . S
N335 S334 1.613 . S
N335 C338 1.350 . S
N336 S334 1.610 . S
N336 C337 1.351 . S
C337 C331 1.428 . S
C337 N336 1.351 . S
C337 C338 1.434 . S
C338 C329 1.429 . S
C338 N335 1.350 . S
C338 C337 1.434 . S
C339 C340 1.369 . S
C339 C341 1.419 . S
C339 H343 0.930 . S
C340 C339 1.369 . S
C340 C349 1.429 . S
C341 C339 1.419 . S
C341 C342 1.363 . S
C341 H344 0.929 . S
C342 C341 1.363 . S
C342 C348 1.428 . S
H343 C339 0.930 . S
H344 C341 0.929 . S
S345 N346 1.613 . S
S345 N347 1.610 . S
N346 S345 1.613 . S
N346 C349 1.350 . S
N347 S345 1.610 . S
N347 C348 1.351 . S
C348 C342 1.428 . S
C348 N347 1.351 . S
C348 C349 1.434 . S
C349 C340 1.429 . S
C349 N346 1.350 . S
C349 C348 1.434 . S
C350 C351 1.369 . S
C350 C352 1.419 . S
C350 H354 0.930 . S
C351 C350 1.369 . S
C351 C360 1.429 . S
C352 C350 1.419 . S
C352 C353 1.363 . S
C352 H355 0.929 . S
C353 C352 1.363 . S
C353 C359 1.428 . S
H354 C350 0.930 . S
H355 C352 0.929 . S
S356 N357 1.613 . S
S356 N358 1.610 . S
N357 S356 1.613 . S
N357 C360 1.350 . S
N358 S356 1.610 . S
N358 C359 1.351 . S
C359 C353 1.428 . S
C359 N358 1.351 . S
C359 C360 1.434 . S
C360 C351 1.429 . S
C360 N357 1.350 . S
C360 C359 1.434 . S
C361 C362 1.369 . S
C361 C363 1.419 . S
C361 H365 0.930 . S
C362 C361 1.369 . S
C362 C371 1.429 . S
C363 C361 1.419 . S
C363 C364 1.363 . S
C363 H366 0.929 . S
C364 C363 1.363 . S
C364 C370 1.428 . S
H365 C361 0.930 . S
H366 C363 0.929 . S
S367 N368 1.613 . S
S367 N369 1.610 . S
N368 S367 1.613 . S
N368 C371 1.350 . S
N369 S367 1.610 . S
N369 C370 1.351 . S
C370 C364 1.428 . S
C370 N369 1.351 . S
C370 C371 1.434 . S
C371 C362 1.429 . S
C371 N368 1.350 . S
C371 C370 1.434 . S
C372 C373 1.369 . S
C372 C374 1.427 . S
C372 H376 0.930 . S
C373 C372 1.369 . S
C373 C382 1.414 1_655 S
C374 C372 1.427 . S
C374 C375 1.347 1_655 S
C374 H377 0.938 . S
C375 C374 1.347 1_455 S
C375 C381 1.428 . S
H376 C372 0.930 . S
H377 C374 0.938 . S
S378 N379 1.613 . S
S378 N380 1.610 . S
N379 S378 1.613 . S
N379 C382 1.358 . S
N380 S378 1.610 . S
N380 C381 1.351 . S
C381 C375 1.428 . S
C381 N380 1.351 . S
C381 C382 1.441 . S
C382 C373 1.414 1_455 S
C382 N379 1.358 . S
C382 C381 1.441 . S
C383 C384 1.369 . S
C383 C385 1.419 . S
C383 H387 0.930 . S
C384 C383 1.369 . S
C384 C393 1.429 . S
C385 C383 1.419 . S
C385 C386 1.363 . S
C385 H388 0.929 . S
C386 C385 1.363 . S
C386 C392 1.428 . S
H387 C383 0.930 . S
H388 C385 0.929 . S
S389 N390 1.613 . S
S389 N391 1.610 . S
N390 S389 1.613 . S
N390 C393 1.350 . S
N391 S389 1.610 . S
N391 C392 1.351 . S
C392 C386 1.428 . S
C392 N391 1.351 . S
C392 C393 1.434 . S
C393 C384 1.429 . S
C393 N390 1.350 . S
C393 C392 1.434 . S
C394 C395 1.369 1_565 S
C394 C396 1.419 . S
C394 H398 0.930 . S
C395 C394 1.369 1_545 S
C395 C404 1.429 . S
C396 C394 1.419 . S
C396 C397 1.363 . S
C396 H399 0.929 . S
C397 C396 1.363 . S
C397 C403 1.428 1_565 S
H398 C394 0.930 . S
H399 C396 0.929 . S
S400 N401 1.613 . S
S400 N402 1.610 . S
N401 S400 1.613 . S
N401 C404 1.350 . S
N402 S400 1.610 . S
N402 C403 1.351 . S
C403 C397 1.428 1_545 S
C403 N402 1.351 . S
C403 C404 1.434 . S
C404 C395 1.429 . S
C404 N401 1.350 . S
C404 C403 1.434 . S
C175 C160 1.676 . S
C177 C21 1.648 . S
C186 C50 1.654 . S
C188 C102 1.673 . S
C197 C79 1.650 . S
C199 C131 1.672 . S
C208 C44 1.677 . S
C210 C108 1.647 . S
C219 C73 1.678 . S
C221 C137 1.647 . S
C230 C15 1.676 . S
C232 C166 1.648 . S
C241 C92 2.449 . S
C243 C5 2.452 . S
C252 C121 2.449 . S
C254 C34 2.452 . S
C263 C150 2.452 . S
C265 C63 2.449 . S
C274 C124 2.299 . S
C276 C8 2.304 . S
C285 C37 2.302 . S
C287 C153 2.304 . S
C296 C95 2.299 . S
C298 C66 2.303 . S
C307 C3 1.442 . S
C309 C39 1.571 . S
C318 C68 1.576 . S
C320 C32 1.444 . S
C329 C10 1.571 . S
C331 C61 1.447 . S
C340 C90 1.451 . S
C342 C155 1.572 . S
C351 C119 1.450 . S
C353 C97 1.572 . S
C362 C126 1.573 . S
C364 C148 1.439 . S
C373 C129 1.490 . S
C375 C13 1.490 . S
C384 C42 1.496 . S
C386 C158 1.491 . S
C395 C100 1.497 . S
C397 C71 1.490 . S
