# Generated by pormake.
# Topology lta, (4)-cn, num edge types: 1
# Building blocks:
#     Node 0, Type 0, BuildingBlock: UXUYUI_clean_sbu_0, # of connection points: 4
#     Node 1, Type 0, BuildingBlock: UXUYUI_clean_sbu_0, # of connection points: 4
#     Node 2, Type 0, BuildingBlock: UXUYUI_clean_sbu_0, # of connection points: 4
#     Node 3, Type 0, BuildingBlock: UXUYUI_clean_sbu_0, # of connection points: 4
#     Node 4, Type 0, BuildingBlock: UXUYUI_clean_sbu_0, # of connection points: 4
#     Node 5, Type 0, BuildingBlock: UXUYUI_clean_sbu_0, # of connection points: 4
#     Node 6, Type 0, BuildingBlock: UXUYUI_clean_sbu_0, # of connection points: 4
#     Node 7, Type 0, BuildingBlock: UXUYUI_clean_sbu_0, # of connection points: 4
#     Node 8, Type 0, BuildingBlock: UXUYUI_clean_sbu_0, # of connection points: 4
#     Node 9, Type 0, BuildingBlock: UXUYUI_clean_sbu_0, # of connection points: 4
#     Node 10, Type 0, BuildingBlock: UXUYUI_clean_sbu_0, # of connection points: 4
#     Node 11, Type 0, BuildingBlock: UXUYUI_clean_sbu_0, # of connection points: 4
#     Node 12, Type 0, BuildingBlock: UXUYUI_clean_sbu_0, # of connection points: 4
#     Node 13, Type 0, BuildingBlock: UXUYUI_clean_sbu_0, # of connection points: 4
#     Node 14, Type 0, BuildingBlock: UXUYUI_clean_sbu_0, # of connection points: 4
#     Node 15, Type 0, BuildingBlock: UXUYUI_clean_sbu_0, # of connection points: 4
#     Node 16, Type 0, BuildingBlock: UXUYUI_clean_sbu_0, # of connection points: 4
#     Node 17, Type 0, BuildingBlock: UXUYUI_clean_sbu_0, # of connection points: 4
#     Node 18, Type 0, BuildingBlock: UXUYUI_clean_sbu_0, # of connection points: 4
#     Node 19, Type 0, BuildingBlock: UXUYUI_clean_sbu_0, # of connection points: 4
#     Node 20, Type 0, BuildingBlock: UXUYUI_clean_sbu_0, # of connection points: 4
#     Node 21, Type 0, BuildingBlock: UXUYUI_clean_sbu_0, # of connection points: 4
#     Node 22, Type 0, BuildingBlock: UXUYUI_clean_sbu_0, # of connection points: 4
#     Node 23, Type 0, BuildingBlock: UXUYUI_clean_sbu_0, # of connection points: 4
#     Edge 24, Type (0, 0), BuildingBlock: KIFKEQ_clean_linker_1, # of connection points: 2
#     Edge 25, Type (0, 0), BuildingBlock: KIFKEQ_clean_linker_1, # of connection points: 2
#     Edge 26, Type (0, 0), BuildingBlock: KIFKEQ_clean_linker_1, # of connection points: 2
#     Edge 27, Type (0, 0), BuildingBlock: KIFKEQ_clean_linker_1, # of connection points: 2
#     Edge 28, Type (0, 0), BuildingBlock: KIFKEQ_clean_linker_1, # of connection points: 2
#     Edge 29, Type (0, 0), BuildingBlock: KIFKEQ_clean_linker_1, # of connection points: 2
#     Edge 30, Type (0, 0), BuildingBlock: KIFKEQ_clean_linker_1, # of connection points: 2
#     Edge 31, Type (0, 0), BuildingBlock: KIFKEQ_clean_linker_1, # of connection points: 2
#     Edge 32, Type (0, 0), BuildingBlock: KIFKEQ_clean_linker_1, # of connection points: 2
#     Edge 33, Type (0, 0), BuildingBlock: KIFKEQ_clean_linker_1, # of connection points: 2
#     Edge 34, Type (0, 0), BuildingBlock: KIFKEQ_clean_linker_1, # of connection points: 2
#     Edge 35, Type (0, 0), BuildingBlock: KIFKEQ_clean_linker_1, # of connection points: 2
#     Edge 36, Type (0, 0), BuildingBlock: KIFKEQ_clean_linker_1, # of connection points: 2
#     Edge 37, Type (0, 0), BuildingBlock: KIFKEQ_clean_linker_1, # of connection points: 2
#     Edge 38, Type (0, 0), BuildingBlock: KIFKEQ_clean_linker_1, # of connection points: 2
#     Edge 39, Type (0, 0), BuildingBlock: KIFKEQ_clean_linker_1, # of connection points: 2
#     Edge 40, Type (0, 0), BuildingBlock: KIFKEQ_clean_linker_1, # of connection points: 2
#     Edge 41, Type (0, 0), BuildingBlock: KIFKEQ_clean_linker_1, # of connection points: 2
#     Edge 42, Type (0, 0), BuildingBlock: KIFKEQ_clean_linker_1, # of connection points: 2
#     Edge 43, Type (0, 0), BuildingBlock: KIFKEQ_clean_linker_1, # of connection points: 2
#     Edge 44, Type (0, 0), BuildingBlock: KIFKEQ_clean_linker_1, # of connection points: 2
#     Edge 45, Type (0, 0), BuildingBlock: KIFKEQ_clean_linker_1, # of connection points: 2
#     Edge 46, Type (0, 0), BuildingBlock: KIFKEQ_clean_linker_1, # of connection points: 2
#     Edge 47, Type (0, 0), BuildingBlock: KIFKEQ_clean_linker_1, # of connection points: 2
#     Edge 48, Type (0, 0), BuildingBlock: KIFKEQ_clean_linker_1, # of connection points: 2
#     Edge 49, Type (0, 0), BuildingBlock: KIFKEQ_clean_linker_1, # of connection points: 2
#     Edge 50, Type (0, 0), BuildingBlock: KIFKEQ_clean_linker_1, # of connection points: 2
#     Edge 51, Type (0, 0), BuildingBlock: KIFKEQ_clean_linker_1, # of connection points: 2
#     Edge 52, Type (0, 0), BuildingBlock: KIFKEQ_clean_linker_1, # of connection points: 2
#     Edge 53, Type (0, 0), BuildingBlock: KIFKEQ_clean_linker_1, # of connection points: 2
#     Edge 54, Type (0, 0), BuildingBlock: KIFKEQ_clean_linker_1, # of connection points: 2
#     Edge 55, Type (0, 0), BuildingBlock: KIFKEQ_clean_linker_1, # of connection points: 2
#     Edge 56, Type (0, 0), BuildingBlock: KIFKEQ_clean_linker_1, # of connection points: 2
#     Edge 57, Type (0, 0), BuildingBlock: KIFKEQ_clean_linker_1, # of connection points: 2
#     Edge 58, Type (0, 0), BuildingBlock: KIFKEQ_clean_linker_1, # of connection points: 2
#     Edge 59, Type (0, 0), BuildingBlock: KIFKEQ_clean_linker_1, # of connection points: 2
#     Edge 60, Type (0, 0), BuildingBlock: KIFKEQ_clean_linker_1, # of connection points: 2
#     Edge 61, Type (0, 0), BuildingBlock: KIFKEQ_clean_linker_1, # of connection points: 2
#     Edge 62, Type (0, 0), BuildingBlock: KIFKEQ_clean_linker_1, # of connection points: 2
#     Edge 63, Type (0, 0), BuildingBlock: KIFKEQ_clean_linker_1, # of connection points: 2
#     Edge 64, Type (0, 0), BuildingBlock: KIFKEQ_clean_linker_1, # of connection points: 2
#     Edge 65, Type (0, 0), BuildingBlock: KIFKEQ_clean_linker_1, # of connection points: 2
#     Edge 66, Type (0, 0), BuildingBlock: KIFKEQ_clean_linker_1, # of connection points: 2
#     Edge 67, Type (0, 0), BuildingBlock: KIFKEQ_clean_linker_1, # of connection points: 2
#     Edge 68, Type (0, 0), BuildingBlock: KIFKEQ_clean_linker_1, # of connection points: 2
#     Edge 69, Type (0, 0), BuildingBlock: KIFKEQ_clean_linker_1, # of connection points: 2
#     Edge 70, Type (0, 0), BuildingBlock: KIFKEQ_clean_linker_1, # of connection points: 2
#     Edge 71, Type (0, 0), BuildingBlock: KIFKEQ_clean_linker_1, # of connection points: 2
# Relax obj value: 0.238
# Max RMSD: 0.085
# Mean RMSD: 0.085
data_MOF--net-lta--node1-UXUYUI_clean_sbu_0--edge1-KIFKEQ_clean_linker_1
_symmetry_space_group_name_H-M    P1
_symmetry_Int_Tables_number       1
_symmetry_cell_setting            triclinic
loop_
_symmetry_equiv_pos_as_xyz
'x, y, z'
_cell_length_a     84.194289
_cell_length_b     84.235801
_cell_length_c     84.205041
_cell_angle_alpha  90.023991
_cell_angle_beta   89.999053
_cell_angle_gamma 89.98647
loop_
_atom_site_label
_atom_site_type_symbol
_atom_site_fract_x
_atom_site_fract_y
_atom_site_fract_z
_atom_type_partial_charge
Li0 Li 0.12276 0.3196 0.51053 0.0
Li1 Li 0.13273 0.29702 0.49554 0.0
Li2 Li 0.12336 0.3192 0.48077 0.0
Li3 Li 0.10545 0.30129 0.49618 0.0
C4 C 0.15648 0.31639 0.50114 0.0
N5 N 0.18677 0.30926 0.51162 0.0
C6 C 0.15886 0.31054 0.51651 0.0
C7 C 0.16953 0.3187 0.49115 0.0
C8 C 0.17425 0.30699 0.52157 0.0
C9 C 0.18475 0.31501 0.49667 0.0
C10 C 0.11038 0.28683 0.52387 0.0
C11 C 0.09698 0.26177 0.52755 0.0
N12 N 0.09165 0.2668 0.54194 0.0
C13 C 0.105 0.29163 0.53883 0.0
C14 C 0.10655 0.27167 0.51831 0.0
C15 C 0.09547 0.28138 0.54774 0.0
C16 C 0.11049 0.33544 0.53711 0.0
N17 N 0.12375 0.33371 0.52809 0.0
C18 C 0.13721 0.35367 0.54309 0.0
C19 C 0.13692 0.34266 0.5307 0.0
C20 C 0.12376 0.35557 0.55281 0.0
C21 C 0.11028 0.34621 0.5497 0.0
H22 H 0.09999 0.32857 0.53438 0.0
H23 H 0.14709 0.34153 0.52296 0.0
C24 C 0.15949 0.2804 0.48356 0.0
N25 N 0.14875 0.28111 0.4956 0.0
C26 C 0.17141 0.26893 0.4837 0.0
C27 C 0.16141 0.25957 0.50894 0.0
C28 C 0.14954 0.27107 0.5082 0.0
C29 C 0.17245 0.25838 0.49653 0.0
H30 H 0.15891 0.28888 0.47395 0.0
H31 H 0.14109 0.27212 0.51779 0.0
C32 C 0.10191 0.34055 0.49661 0.0
N33 N 0.09492 0.37249 0.49914 0.0
C34 C 0.08632 0.34546 0.49949 0.0
C35 C 0.11397 0.35186 0.49511 0.0
C36 C 0.08302 0.36167 0.5007 0.0
C37 C 0.11018 0.36795 0.4964 0.0
C38 C 0.12429 0.28538 0.46712 0.0
C39 C 0.13283 0.28987 0.45362 0.0
C40 C 0.12198 0.26927 0.47033 0.0
C41 C 0.13928 0.27816 0.44378 0.0
C42 C 0.12864 0.25791 0.46023 0.0
N43 N 0.1371 0.26256 0.44729 0.0
C44 C 0.13917 0.33475 0.45544 0.0
C45 C 0.11149 0.33966 0.45716 0.0
C46 C 0.14049 0.34506 0.44253 0.0
N47 N 0.12486 0.33239 0.46254 0.0
C48 C 0.11231 0.3503 0.44449 0.0
C49 C 0.12698 0.35316 0.43712 0.0
H50 H 0.14954 0.32865 0.45983 0.0
H51 H 0.10022 0.33741 0.46288 0.0
C52 C 0.07494 0.29636 0.5086 0.0
N53 N 0.08484 0.29244 0.49648 0.0
C54 C 0.0595 0.2904 0.50899 0.0
C55 C 0.06469 0.27668 0.48427 0.0
C56 C 0.08011 0.28275 0.48448 0.0
C57 C 0.05417 0.28059 0.49661 0.0
H58 H 0.07901 0.30429 0.51786 0.0
H59 H 0.08821 0.27996 0.47492 0.0
O60 O 0.1414 0.31947 0.49588 0.0
O61 O 0.11958 0.29678 0.51488 0.0
O62 O 0.10536 0.32472 0.4956 0.0
O63 O 0.11796 0.29672 0.47692 0.0
H64 H 0.14889 0.30858 0.52438 0.0
H65 H 0.16798 0.32319 0.47925 0.0
H66 H 0.17623 0.30236 0.53338 0.0
H67 H 0.19494 0.31668 0.48904 0.0
H68 H 0.0938 0.25008 0.52328 0.0
H69 H 0.10824 0.30308 0.54359 0.0
H70 H 0.11085 0.26763 0.50694 0.0
H71 H 0.09116 0.285 0.55929 0.0
H72 H 0.1477 0.36091 0.54474 0.0
H73 H 0.09967 0.34719 0.55688 0.0
H74 H 0.1799 0.2685 0.47404 0.0
H75 H 0.16187 0.25159 0.51902 0.0
H76 H 0.07689 0.33682 0.50078 0.0
H77 H 0.12612 0.34826 0.49302 0.0
H78 H 0.07101 0.36566 0.5029 0.0
H79 H 0.11939 0.37684 0.49526 0.0
H80 H 0.13456 0.30225 0.45079 0.0
H81 H 0.11514 0.26553 0.4805 0.0
H82 H 0.14603 0.28149 0.43337 0.0
H83 H 0.12705 0.2454 0.46267 0.0
H84 H 0.152 0.34702 0.43713 0.0
H85 H 0.10162 0.35624 0.44051 0.0
H86 H 0.05164 0.29391 0.51855 0.0
H87 H 0.06096 0.26917 0.47452 0.0
Li88 Li 0.69719 0.13339 0.50056 0.0
Li89 Li 0.67287 0.12404 0.51334 0.0
Li90 Li 0.69218 0.10617 0.5021 0.0
Li91 Li 0.67598 0.12269 0.48445 0.0
C92 C 0.70493 0.112 0.52977 0.0
N93 N 0.72454 0.09333 0.54836 0.0
C94 C 0.6993 0.10553 0.54398 0.0
C95 C 0.72066 0.10926 0.52524 0.0
C96 C 0.70936 0.09605 0.55316 0.0
C97 C 0.73035 0.09971 0.53472 0.0
C98 C 0.67395 0.15646 0.50494 0.0
C99 C 0.66494 0.18365 0.50468 0.0
N100 N 0.6716 0.18593 0.51922 0.0
C101 C 0.68071 0.15908 0.51989 0.0
C102 C 0.66601 0.16885 0.49726 0.0
C103 C 0.67939 0.17405 0.5269 0.0
C104 C 0.71288 0.16027 0.48881 0.0
N105 N 0.71256 0.14977 0.50106 0.0
C106 C 0.73351 0.16356 0.51425 0.0
C107 C 0.72241 0.15129 0.51376 0.0
C108 C 0.73444 0.17425 0.50152 0.0
C109 C 0.72395 0.17256 0.48869 0.0
H110 H 0.7045 0.15909 0.47916 0.0
H111 H 0.72155 0.14307 0.52356 0.0
C112 C 0.65562 0.11319 0.53931 0.0
N113 N 0.6573 0.12603 0.52969 0.0
C114 C 0.64459 0.11336 0.55166 0.0
C115 C 0.63641 0.13958 0.54333 0.0
C116 C 0.64774 0.13896 0.53125 0.0
C117 C 0.63488 0.12673 0.55383 0.0
H118 H 0.66274 0.10272 0.53724 0.0
H119 H 0.64869 0.14874 0.52304 0.0
C120 C 0.71037 0.12415 0.47325 0.0
N121 N 0.73336 0.13778 0.45415 0.0
C122 C 0.70608 0.13181 0.45916 0.0
C123 C 0.72641 0.12317 0.47744 0.0
C124 C 0.71785 0.13868 0.44971 0.0
C125 C 0.73784 0.13022 0.46769 0.0
C126 C 0.65274 0.10352 0.49783 0.0
C127 C 0.64643 0.0882 0.49842 0.0
C128 C 0.64261 0.1165 0.49568 0.0
C129 C 0.63005 0.0861 0.49679 0.0
C130 C 0.62631 0.11391 0.4941 0.0
N131 N 0.62041 0.09889 0.49468 0.0
C132 C 0.69146 0.07515 0.51295 0.0
C133 C 0.7144 0.08102 0.49771 0.0
C134 C 0.69611 0.05935 0.5144 0.0
N135 N 0.70048 0.08551 0.50454 0.0
C136 C 0.71963 0.06534 0.49903 0.0
C137 C 0.7103 0.05418 0.50723 0.0
H138 H 0.68042 0.07912 0.5182 0.0
H139 H 0.72132 0.08955 0.49109 0.0
C140 C 0.66129 0.13821 0.45877 0.0
N141 N 0.66441 0.12376 0.4652 0.0
C142 C 0.65167 0.13946 0.44534 0.0
C143 C 0.64879 0.11089 0.44534 0.0
C144 C 0.65865 0.11019 0.45865 0.0
C145 C 0.645 0.1257 0.43861 0.0
H146 H 0.6662 0.14876 0.46416 0.0
H147 H 0.66132 0.09886 0.46406 0.0
O148 O 0.69518 0.12109 0.52042 0.0
O149 O 0.67529 0.14198 0.49767 0.0
O150 O 0.69895 0.11749 0.48275 0.0
O151 O 0.66878 0.1057 0.49942 0.0
H152 H 0.68737 0.1079 0.548 0.0
H153 H 0.7253 0.11435 0.51445 0.0
H154 H 0.70511 0.09091 0.56414 0.0
H155 H 0.7425 0.09738 0.53124 0.0
H156 H 0.65881 0.19333 0.49888 0.0
H157 H 0.68688 0.14969 0.52607 0.0
H158 H 0.66069 0.16706 0.48571 0.0
H159 H 0.68456 0.17623 0.53846 0.0
H160 H 0.74142 0.16455 0.52435 0.0
H161 H 0.72417 0.18077 0.4788 0.0
H162 H 0.64345 0.10305 0.55925 0.0
H163 H 0.62902 0.15004 0.54454 0.0
H164 H 0.6938 0.13253 0.45556 0.0
H165 H 0.73005 0.11713 0.48813 0.0
H166 H 0.71466 0.14474 0.43884 0.0
H167 H 0.75027 0.12966 0.47089 0.0
H168 H 0.65411 0.07803 0.50008 0.0
H169 H 0.64726 0.12846 0.4952 0.0
H170 H 0.62499 0.0743 0.4972 0.0
H171 H 0.61834 0.12384 0.49241 0.0
H172 H 0.68833 0.05119 0.52056 0.0
H173 H 0.73074 0.06197 0.49349 0.0
H174 H 0.64938 0.15109 0.44039 0.0
H175 H 0.64378 0.09999 0.44075 0.0
Li176 Li 0.86002 0.69754 0.4954 0.0
Li177 Li 0.86547 0.67478 0.5124 0.0
Li178 Li 0.88665 0.68985 0.49973 0.0
Li179 Li 0.86871 0.6732 0.48366 0.0
C180 C 0.87883 0.70751 0.52595 0.0
N181 N 0.89448 0.72808 0.54621 0.0
C182 C 0.87799 0.70533 0.54238 0.0
C183 C 0.88744 0.72034 0.51985 0.0
C184 C 0.88602 0.71581 0.55242 0.0
C185 C 0.89533 0.73054 0.53027 0.0
C186 C 0.83408 0.67795 0.50242 0.0
C187 C 0.80615 0.67161 0.50305 0.0
N188 N 0.80442 0.68083 0.51619 0.0
C189 C 0.83202 0.68737 0.51596 0.0
C190 C 0.82104 0.67001 0.49591 0.0
C191 C 0.81693 0.68867 0.52273 0.0
C192 C 0.83259 0.71307 0.48394 0.0
N193 N 0.84623 0.71515 0.49232 0.0
C194 C 0.83971 0.74227 0.49726 0.0
C195 C 0.85002 0.72944 0.49875 0.0
C196 C 0.8252 0.74033 0.48926 0.0
C197 C 0.82179 0.72552 0.48235 0.0
H198 H 0.82996 0.70164 0.47873 0.0
H199 H 0.86099 0.73088 0.50516 0.0
C200 C 0.87211 0.66253 0.54239 0.0
N201 N 0.86087 0.66253 0.53081 0.0
C202 C 0.87029 0.65302 0.55583 0.0
C203 C 0.84552 0.64334 0.545 0.0
C204 C 0.84778 0.65312 0.53181 0.0
C205 C 0.85691 0.64317 0.55718 0.0
H206 H 0.88269 0.66967 0.54098 0.0
H207 H 0.83928 0.65284 0.52222 0.0
C208 C 0.87205 0.70615 0.46858 0.0
N209 N 0.8614 0.72951 0.44817 0.0
C210 C 0.86084 0.70253 0.45689 0.0
C211 C 0.87794 0.72161 0.46982 0.0
C212 C 0.85559 0.71452 0.4467 0.0
C213 C 0.87238 0.73326 0.45941 0.0
C214 C 0.88443 0.6503 0.50189 0.0
C215 C 0.89869 0.64272 0.5057 0.0
C216 C 0.87068 0.64129 0.49959 0.0
C217 C 0.89897 0.6262 0.5071 0.0
C218 C 0.87145 0.6248 0.50111 0.0
N219 N 0.88546 0.61765 0.5048 0.0
C220 C 0.91534 0.69365 0.51633 0.0
C221 C 0.91565 0.70302 0.48978 0.0
C222 C 0.93111 0.69823 0.51844 0.0
N223 N 0.90799 0.6962 0.5022 0.0
C224 C 0.93149 0.70763 0.4913 0.0
C225 C 0.93946 0.7052 0.50577 0.0
H226 H 0.9089 0.68811 0.52597 0.0
H227 H 0.90953 0.70468 0.47862 0.0
C228 C 0.85353 0.65614 0.45903 0.0
N229 N 0.86772 0.65942 0.46596 0.0
C230 C 0.85275 0.64558 0.44627 0.0
C231 C 0.8812 0.64205 0.44807 0.0
C232 C 0.88144 0.65275 0.46072 0.0
C233 C 0.8667 0.63828 0.44069 0.0
H234 H 0.84284 0.66172 0.46344 0.0
H235 H 0.89253 0.65557 0.46654 0.0
O236 O 0.87109 0.69725 0.51596 0.0
O237 O 0.84869 0.67653 0.4954 0.0
O238 O 0.87699 0.69467 0.47895 0.0
O239 O 0.88399 0.66649 0.50061 0.0
H240 H 0.87105 0.69575 0.54736 0.0
H241 H 0.88819 0.72227 0.50719 0.0
H242 H 0.88549 0.71422 0.56516 0.0
H243 H 0.90215 0.74041 0.52569 0.0
H244 H 0.79596 0.66552 0.49813 0.0
H245 H 0.84189 0.69363 0.52122 0.0
H246 H 0.82242 0.66267 0.48545 0.0
H247 H 0.81517 0.69592 0.53319 0.0
H248 H 0.84303 0.75355 0.50246 0.0
H249 H 0.8107 0.72339 0.4762 0.0
H250 H 0.87953 0.65295 0.56477 0.0
H251 H 0.83506 0.63588 0.54557 0.0
H252 H 0.8561 0.69065 0.45582 0.0
H253 H 0.88662 0.72463 0.47879 0.0
H254 H 0.84684 0.71191 0.43766 0.0
H255 H 0.87676 0.7453 0.46029 0.0
H256 H 0.90942 0.64956 0.50757 0.0
H257 H 0.85951 0.64694 0.4967 0.0
H258 H 0.90993 0.62017 0.51004 0.0
H259 H 0.8609 0.61768 0.49936 0.0
H260 H 0.9367 0.69628 0.52985 0.0
H261 H 0.93751 0.71263 0.4811 0.0
H262 H 0.84135 0.64321 0.4408 0.0
H263 H 0.89221 0.63654 0.44437 0.0
Li264 Li 0.32001 0.86519 0.51439 0.0
Li265 Li 0.29794 0.85757 0.49744 0.0
Li266 Li 0.32183 0.86763 0.48552 0.0
Li267 Li 0.30348 0.88463 0.50095 0.0
C268 C 0.31904 0.83327 0.50496 0.0
N269 N 0.31763 0.80359 0.51887 0.0
C270 C 0.31038 0.831 0.51896 0.0
C271 C 0.32696 0.82042 0.49805 0.0
C272 C 0.30982 0.81591 0.5258 0.0
C273 C 0.32611 0.80552 0.50527 0.0
C274 C 0.28605 0.8771 0.52672 0.0
C275 C 0.26133 0.89144 0.52891 0.0
N276 N 0.26371 0.89299 0.5448 0.0
C277 C 0.28812 0.87863 0.54312 0.0
C278 C 0.27242 0.88334 0.5196 0.0
C279 C 0.27674 0.88678 0.55204 0.0
C280 C 0.33182 0.87338 0.54421 0.0
N281 N 0.33272 0.86207 0.53275 0.0
C282 C 0.35386 0.84909 0.5465 0.0
C283 C 0.34348 0.85007 0.53362 0.0
C284 C 0.35317 0.86057 0.55862 0.0
C285 C 0.34178 0.87272 0.55742 0.0
H286 H 0.32365 0.88318 0.54284 0.0
H287 H 0.34446 0.8416 0.52404 0.0
C288 C 0.28299 0.8315 0.48283 0.0
N289 N 0.28174 0.8423 0.49476 0.0
C290 C 0.27124 0.82004 0.48071 0.0
C291 C 0.25751 0.83066 0.50361 0.0
C292 C 0.26941 0.84203 0.50513 0.0
C293 C 0.25827 0.8195 0.49122 0.0
H294 H 0.29316 0.83178 0.475 0.0
H295 H 0.26893 0.85045 0.51477 0.0
C296 C 0.34289 0.88609 0.50403 0.0
N297 N 0.37506 0.89074 0.50846 0.0
C298 C 0.34861 0.90101 0.50848 0.0
C299 C 0.35352 0.87351 0.50188 0.0
C300 C 0.36493 0.90313 0.51065 0.0
C301 C 0.36974 0.87611 0.50417 0.0
C302 C 0.28933 0.86855 0.46918 0.0
C303 C 0.29487 0.85976 0.45623 0.0
C304 C 0.27309 0.87176 0.47054 0.0
C305 C 0.28404 0.85405 0.44503 0.0
C306 C 0.26264 0.86582 0.45911 0.0
N307 N 0.26828 0.85714 0.4467 0.0
C308 C 0.33967 0.85265 0.46151 0.0
C309 C 0.34287 0.88059 0.46304 0.0
C310 C 0.35053 0.85179 0.44903 0.0
N311 N 0.33611 0.86689 0.46821 0.0
C312 C 0.35396 0.88026 0.45072 0.0
C313 C 0.35791 0.86571 0.44359 0.0
H314 H 0.33406 0.84198 0.46589 0.0
H315 H 0.33977 0.89174 0.46861 0.0
C316 C 0.29921 0.91399 0.51586 0.0
N317 N 0.2958 0.90556 0.50255 0.0
C318 C 0.29524 0.93003 0.51677 0.0
C319 C 0.28398 0.92823 0.49039 0.0
C320 C 0.2881 0.91219 0.49004 0.0
C321 C 0.28791 0.93745 0.50373 0.0
H322 H 0.30543 0.90834 0.52558 0.0
H323 H 0.28571 0.90518 0.47955 0.0
O324 O 0.31964 0.84788 0.49786 0.0
O325 O 0.29711 0.86916 0.51779 0.0
O326 O 0.32693 0.88381 0.50208 0.0
O327 O 0.29976 0.87408 0.48037 0.0
H328 H 0.30416 0.84074 0.52453 0.0
H329 H 0.33371 0.82195 0.48723 0.0
H330 H 0.30316 0.814 0.53662 0.0
H331 H 0.33219 0.79548 0.50004 0.0
H332 H 0.25082 0.89646 0.52349 0.0
H333 H 0.29826 0.87338 0.54897 0.0
H334 H 0.2705 0.88205 0.50701 0.0
H335 H 0.27823 0.88809 0.56474 0.0
H336 H 0.36271 0.83976 0.54662 0.0
H337 H 0.34068 0.88179 0.56646 0.0
H338 H 0.27229 0.81174 0.47095 0.0
H339 H 0.24801 0.83044 0.51227 0.0
H340 H 0.34051 0.91083 0.51027 0.0
H341 H 0.34929 0.86184 0.49858 0.0
H342 H 0.36953 0.91461 0.51408 0.0
H343 H 0.37809 0.86648 0.50257 0.0
H344 H 0.30737 0.85724 0.45489 0.0
H345 H 0.26858 0.87876 0.48028 0.0
H346 H 0.28817 0.84713 0.43502 0.0
H347 H 0.25003 0.86813 0.46008 0.0
H348 H 0.35337 0.84034 0.4439 0.0
H349 H 0.35931 0.89126 0.44675 0.0
H350 H 0.29831 0.93665 0.52735 0.0
H351 H 0.27856 0.93351 0.47999 0.0
Li352 Li 0.10889 0.69035 0.49856 0.0
Li353 Li 0.12707 0.67324 0.51343 0.0
Li354 Li 0.13627 0.69516 0.49739 0.0
Li355 Li 0.12553 0.67156 0.48462 0.0
C356 C 0.13008 0.70674 0.52631 0.0
N357 N 0.14573 0.72829 0.54551 0.0
C358 C 0.14004 0.70141 0.53848 0.0
C359 C 0.12789 0.72304 0.52409 0.0
C360 C 0.14788 0.71249 0.54802 0.0
C361 C 0.13598 0.73374 0.53385 0.0
C362 C 0.10622 0.65086 0.50095 0.0
C363 C 0.11644 0.62416 0.50254 0.0
N364 N 0.10132 0.61849 0.50281 0.0
C365 C 0.09079 0.64478 0.50123 0.0
C366 C 0.11917 0.64049 0.50159 0.0
C367 C 0.08855 0.62837 0.50218 0.0
C368 C 0.07761 0.69413 0.48815 0.0
N369 N 0.08832 0.69912 0.49912 0.0
C370 C 0.06871 0.71498 0.51205 0.0
C371 C 0.08429 0.70948 0.51082 0.0
C372 C 0.05727 0.70975 0.5011 0.0
C373 C 0.06194 0.69941 0.48886 0.0
H374 H 0.08119 0.68574 0.4791 0.0
H375 H 0.09308 0.71313 0.51944 0.0
C376 C 0.1435 0.65448 0.53601 0.0
N377 N 0.12925 0.66091 0.53204 0.0
C378 C 0.14475 0.64451 0.54918 0.0
C379 C 0.11667 0.6482 0.55402 0.0
C380 C 0.11598 0.65812 0.54078 0.0
C381 C 0.13116 0.6411 0.55828 0.0
H382 H 0.15383 0.65696 0.52883 0.0
H383 H 0.1048 0.66334 0.53721 0.0
C384 C 0.11252 0.70472 0.47092 0.0
N385 N 0.09356 0.72612 0.45476 0.0
C386 C 0.10623 0.70077 0.45607 0.0
C387 C 0.10942 0.71969 0.47737 0.0
C388 C 0.09662 0.71171 0.44813 0.0
C389 C 0.09974 0.7303 0.46909 0.0
C390 C 0.15865 0.67246 0.48941 0.0
C391 C 0.15917 0.67944 0.47434 0.0
C392 C 0.1722 0.66497 0.49541 0.0
C393 C 0.1732 0.67875 0.46553 0.0
C394 C 0.18601 0.66453 0.48622 0.0
N395 N 0.18622 0.67137 0.4716 0.0
C396 C 0.16409 0.71121 0.50656 0.0
C397 C 0.15207 0.7209 0.483 0.0
C398 C 0.17592 0.72274 0.50561 0.0
N399 N 0.15228 0.71079 0.49557 0.0
C400 C 0.16383 0.73243 0.48141 0.0
C401 C 0.17578 0.73353 0.49293 0.0
H402 H 0.16433 0.70259 0.51605 0.0
H403 H 0.14285 0.71997 0.47415 0.0
C404 C 0.11297 0.65658 0.45782 0.0
N405 N 0.126 0.657 0.46733 0.0
C406 C 0.11246 0.64637 0.44477 0.0
C407 C 0.13846 0.63661 0.45204 0.0
C408 C 0.13846 0.64701 0.46492 0.0
C409 C 0.1254 0.63632 0.44166 0.0
H410 H 0.10294 0.66415 0.46044 0.0
H411 H 0.14835 0.64693 0.47307 0.0
O412 O 0.1224 0.69605 0.51675 0.0
O413 O 0.10853 0.66691 0.50002 0.0
O414 O 0.12181 0.69409 0.479 0.0
O415 O 0.14513 0.67318 0.49843 0.0
H416 H 0.14187 0.68888 0.54046 0.0
H417 H 0.12006 0.72742 0.51494 0.0
H418 H 0.15572 0.70853 0.5574 0.0
H419 H 0.13447 0.74639 0.53218 0.0
H420 H 0.12635 0.616 0.50305 0.0
H421 H 0.08064 0.65267 0.50073 0.0
H422 H 0.1312 0.64496 0.50136 0.0
H423 H 0.07667 0.62349 0.50242 0.0
H424 H 0.06557 0.72299 0.52162 0.0
H425 H 0.05342 0.69487 0.48036 0.0
H426 H 0.15619 0.63945 0.55216 0.0
H427 H 0.10586 0.64572 0.56053 0.0
H428 H 0.10885 0.68946 0.45063 0.0
H429 H 0.11436 0.72302 0.48872 0.0
H430 H 0.09162 0.70877 0.43666 0.0
H431 H 0.09714 0.74186 0.47405 0.0
H432 H 0.14888 0.68531 0.46943 0.0
H433 H 0.17207 0.65957 0.50705 0.0
H434 H 0.17375 0.68409 0.45386 0.0
H435 H 0.19656 0.65876 0.49073 0.0
H436 H 0.18516 0.72313 0.51455 0.0
H437 H 0.16344 0.74056 0.47145 0.0
H438 H 0.10211 0.64649 0.43713 0.0
H439 H 0.14847 0.62871 0.45037 0.0
Li440 Li 0.32002 0.1257 0.50969 0.0
Li441 Li 0.3027 0.10894 0.4931 0.0
Li442 Li 0.32051 0.12783 0.48073 0.0
Li443 Li 0.29729 0.13604 0.49578 0.0
C444 C 0.34217 0.10686 0.49327 0.0
N445 N 0.37456 0.10184 0.49191 0.0
C446 C 0.34812 0.09171 0.49012 0.0
C447 C 0.35268 0.11949 0.49568 0.0
C448 C 0.36455 0.0894 0.4895 0.0
C449 C 0.36902 0.1167 0.49496 0.0
C450 C 0.2865 0.12582 0.52349 0.0
C451 C 0.25925 0.12962 0.53153 0.0
N452 N 0.26427 0.13833 0.54417 0.0
C453 C 0.29139 0.13467 0.53665 0.0
C454 C 0.27031 0.12313 0.52099 0.0
C455 C 0.27997 0.14094 0.54694 0.0
C456 C 0.3373 0.14002 0.53474 0.0
N457 N 0.3331 0.126 0.52794 0.0
C458 C 0.34943 0.11159 0.54607 0.0
C459 C 0.33872 0.11192 0.53344 0.0
C460 C 0.35417 0.12589 0.55319 0.0
C461 C 0.34781 0.14023 0.54756 0.0
H462 H 0.33261 0.15102 0.53007 0.0
H463 H 0.33514 0.10097 0.52777 0.0
C464 C 0.30029 0.07914 0.47886 0.0
N465 N 0.29506 0.08802 0.49126 0.0
C466 C 0.29667 0.06302 0.4781 0.0
C467 C 0.28196 0.06564 0.50266 0.0
C468 C 0.28581 0.08175 0.5029 0.0
C469 C 0.28779 0.05598 0.49036 0.0
H470 H 0.30774 0.08449 0.46987 0.0
H471 H 0.28201 0.08911 0.51271 0.0
C472 C 0.31937 0.15994 0.48983 0.0
N473 N 0.31955 0.18956 0.47574 0.0
C474 C 0.31167 0.16233 0.47531 0.0
C475 C 0.32712 0.17263 0.49719 0.0
C476 C 0.3119 0.17739 0.46838 0.0
C477 C 0.3271 0.18751 0.48987 0.0
C478 C 0.28784 0.1155 0.46612 0.0
C479 C 0.29185 0.11236 0.45032 0.0
C480 C 0.27338 0.11 0.47212 0.0
C481 C 0.28153 0.10338 0.44093 0.0
C482 C 0.26339 0.10103 0.46238 0.0
N483 N 0.26765 0.09791 0.44712 0.0
C484 C 0.33533 0.11786 0.4531 0.0
C485 C 0.34487 0.14275 0.46209 0.0
C486 C 0.34627 0.1178 0.44068 0.0
N487 N 0.3347 0.13028 0.46337 0.0
C488 C 0.35612 0.14312 0.44992 0.0
C489 C 0.35699 0.13048 0.43904 0.0
H490 H 0.32755 0.10779 0.45482 0.0
H491 H 0.34468 0.15215 0.4708 0.0
C492 C 0.28147 0.1626 0.50863 0.0
N493 N 0.28113 0.15158 0.49685 0.0
C494 C 0.26964 0.17415 0.50957 0.0
C495 C 0.25777 0.16318 0.48582 0.0
C496 C 0.26971 0.15174 0.48547 0.0
C497 C 0.25756 0.17454 0.49805 0.0
H498 H 0.29095 0.16239 0.51729 0.0
H499 H 0.26997 0.14313 0.47599 0.0
O500 O 0.32612 0.10931 0.49372 0.0
O501 O 0.29751 0.11974 0.51318 0.0
O502 O 0.31914 0.14537 0.49703 0.0
O503 O 0.29785 0.12422 0.47553 0.0
H504 H 0.34012 0.08184 0.48816 0.0
H505 H 0.34829 0.13133 0.498 0.0
H506 H 0.36933 0.07772 0.48709 0.0
H507 H 0.37729 0.12635 0.49679 0.0
H508 H 0.24669 0.12772 0.52966 0.0
H509 H 0.30384 0.13682 0.53884 0.0
H510 H 0.26628 0.11613 0.51102 0.0
H511 H 0.28359 0.1479 0.55711 0.0
H512 H 0.35399 0.10029 0.55018 0.0
H513 H 0.35129 0.15149 0.5527 0.0
H514 H 0.30123 0.05603 0.46831 0.0
H515 H 0.27528 0.06067 0.51245 0.0
H516 H 0.30559 0.15271 0.46939 0.0
H517 H 0.33311 0.171 0.50844 0.0
H518 H 0.306 0.17941 0.45715 0.0
H519 H 0.33306 0.19743 0.49544 0.0
H520 H 0.3027 0.11697 0.44527 0.0
H521 H 0.26998 0.11251 0.48422 0.0
H522 H 0.28453 0.10081 0.42871 0.0
H523 H 0.25224 0.09657 0.46695 0.0
H524 H 0.34641 0.10783 0.43256 0.0
H525 H 0.3644 0.15294 0.44939 0.0
H526 H 0.26992 0.18259 0.51927 0.0
H527 H 0.24898 0.16327 0.47645 0.0
Li528 Li 0.88576 0.30148 0.49592 0.0
Li529 Li 0.86946 0.3205 0.51087 0.0
Li530 Li 0.85812 0.29782 0.49752 0.0
Li531 Li 0.86855 0.31989 0.482 0.0
C532 C 0.8665 0.28813 0.52646 0.0
N533 N 0.85186 0.26849 0.5483 0.0
C534 C 0.85756 0.29461 0.53886 0.0
C535 C 0.86818 0.27166 0.52532 0.0
C536 C 0.85021 0.28448 0.54975 0.0
C537 C 0.86062 0.26193 0.53642 0.0
C538 C 0.89016 0.34083 0.49487 0.0
C539 C 0.88145 0.3681 0.49529 0.0
N540 N 0.89675 0.37292 0.49343 0.0
C541 C 0.90579 0.34603 0.49294 0.0
C542 C 0.87787 0.35193 0.49604 0.0
C543 C 0.90888 0.36232 0.49225 0.0
C544 C 0.91563 0.29468 0.48278 0.0
N545 N 0.90601 0.29187 0.49542 0.0
C546 C 0.92622 0.27673 0.50827 0.0
C547 C 0.91087 0.28297 0.50796 0.0
C548 C 0.93654 0.27967 0.49551 0.0
C549 C 0.931 0.28854 0.48252 0.0
H550 H 0.91144 0.30197 0.47307 0.0
H551 H 0.90296 0.28104 0.51789 0.0
C552 C 0.85553 0.34142 0.53315 0.0
N553 N 0.86928 0.33437 0.52852 0.0
C554 C 0.85561 0.35254 0.54544 0.0
C555 C 0.88397 0.34875 0.54804 0.0
C556 C 0.88333 0.33766 0.53574 0.0
C557 C 0.87 0.35645 0.55293 0.0
H558 H 0.84457 0.33859 0.52712 0.0
H559 H 0.89407 0.33187 0.53172 0.0
C560 C 0.87898 0.28538 0.46961 0.0
N561 N 0.89529 0.26228 0.45293 0.0
C562 C 0.88325 0.28794 0.45378 0.0
C563 C 0.88273 0.27092 0.47684 0.0
C564 C 0.89156 0.27615 0.44557 0.0
C565 C 0.89106 0.25943 0.46825 0.0
C566 C 0.83601 0.3208 0.48946 0.0
C567 C 0.8341 0.31281 0.47502 0.0
C568 C 0.82324 0.32921 0.49591 0.0
C569 C 0.81945 0.31344 0.46725 0.0
C570 C 0.80878 0.32956 0.48777 0.0
N571 N 0.8072 0.32173 0.47373 0.0
C572 C 0.83049 0.2835 0.51017 0.0
C573 C 0.84097 0.27111 0.48718 0.0
C574 C 0.81857 0.27205 0.51125 0.0
N575 N 0.84159 0.28258 0.49849 0.0
C576 C 0.82917 0.25955 0.48768 0.0
C577 C 0.81788 0.25977 0.49997 0.0
H578 H 0.83098 0.29307 0.51871 0.0
H579 H 0.84956 0.27097 0.47768 0.0
C580 C 0.8795 0.33251 0.45335 0.0
N581 N 0.86732 0.33337 0.4639 0.0
C582 C 0.87996 0.34263 0.44025 0.0
C583 C 0.85561 0.35476 0.44941 0.0
C584 C 0.85557 0.34432 0.46227 0.0
C585 C 0.86793 0.35401 0.43817 0.0
H586 H 0.88905 0.32415 0.45532 0.0
H587 H 0.84641 0.34533 0.47118 0.0
O588 O 0.87366 0.29786 0.51559 0.0
O589 O 0.88699 0.32491 0.49552 0.0
O590 O 0.87096 0.29686 0.47791 0.0
O591 O 0.85017 0.3202 0.49747 0.0
H592 H 0.85613 0.30731 0.53999 0.0
H593 H 0.87523 0.26641 0.51597 0.0
H594 H 0.84316 0.28934 0.55933 0.0
H595 H 0.86175 0.24916 0.53561 0.0
H596 H 0.87205 0.37682 0.49618 0.0
H597 H 0.91543 0.33757 0.49199 0.0
H598 H 0.86569 0.34812 0.49749 0.0
H599 H 0.92093 0.36652 0.49076 0.0
H600 H 0.93008 0.26993 0.51848 0.0
H601 H 0.9387 0.29128 0.47258 0.0
H602 H 0.8446 0.35833 0.54872 0.0
H603 H 0.89528 0.3513 0.55361 0.0
H604 H 0.88004 0.29883 0.44781 0.0
H605 H 0.87934 0.26866 0.48899 0.0
H606 H 0.89499 0.27802 0.43333 0.0
H607 H 0.89417 0.24826 0.47377 0.0
H608 H 0.84377 0.30621 0.46978 0.0
H609 H 0.82445 0.33542 0.50709 0.0
H610 H 0.81783 0.30733 0.45607 0.0
H611 H 0.79881 0.33604 0.49262 0.0
H612 H 0.81015 0.27271 0.52095 0.0
H613 H 0.82882 0.25063 0.47842 0.0
H614 H 0.88968 0.34158 0.4319 0.0
H615 H 0.84634 0.36363 0.44858 0.0
Li616 Li 0.68771 0.88443 0.49626 0.0
Li617 Li 0.67138 0.86426 0.50914 0.0
Li618 Li 0.69527 0.85714 0.49448 0.0
Li619 Li 0.67145 0.86599 0.48076 0.0
C620 C 0.70136 0.87981 0.52411 0.0
N621 N 0.71649 0.90088 0.54421 0.0
C622 C 0.69361 0.88543 0.53768 0.0
C623 C 0.71683 0.88485 0.52081 0.0
C624 C 0.70146 0.89607 0.54769 0.0
C625 C 0.72426 0.89554 0.5311 0.0
C626 C 0.6528 0.88992 0.48761 0.0
C627 C 0.6268 0.89022 0.47555 0.0
N628 N 0.63012 0.90457 0.46893 0.0
C629 C 0.65594 0.90468 0.4807 0.0
C630 C 0.63809 0.88265 0.48506 0.0
C631 C 0.64432 0.91189 0.47131 0.0
C632 C 0.70572 0.91117 0.48683 0.0
N633 N 0.6953 0.90555 0.4978 0.0
C634 C 0.6954 0.93033 0.51154 0.0
C635 C 0.68994 0.9148 0.50989 0.0
C636 C 0.70615 0.93647 0.50038 0.0
C637 C 0.71129 0.92674 0.48787 0.0
H638 H 0.70956 0.90364 0.47719 0.0
H639 H 0.68134 0.91012 0.51819 0.0
C640 C 0.66586 0.85189 0.5399 0.0
N641 N 0.65903 0.85952 0.5274 0.0
C642 C 0.65692 0.84843 0.55344 0.0
C643 C 0.63406 0.86034 0.54075 0.0
C644 C 0.64349 0.8638 0.5276 0.0
C645 C 0.6408 0.85265 0.5539 0.0
H646 H 0.67827 0.84862 0.53937 0.0
H647 H 0.63842 0.86996 0.51759 0.0
C648 C 0.70546 0.86829 0.46696 0.0
N649 N 0.72966 0.85799 0.44732 0.0
C650 C 0.70194 0.85983 0.45311 0.0
C651 C 0.72127 0.87162 0.47075 0.0
C652 C 0.71435 0.85472 0.44335 0.0
C653 C 0.73334 0.86626 0.4607 0.0
C654 C 0.66795 0.8345 0.50216 0.0
C655 C 0.67794 0.82432 0.51065 0.0
C656 C 0.65148 0.83258 0.50317 0.0
C657 C 0.67127 0.81238 0.52004 0.0
C658 C 0.64528 0.82053 0.51272 0.0
N659 N 0.65522 0.81076 0.52088 0.0
C660 C 0.72383 0.84328 0.50494 0.0
C661 C 0.71315 0.83226 0.48131 0.0
C662 C 0.73665 0.83284 0.50434 0.0
N663 N 0.71252 0.84288 0.49345 0.0
C664 C 0.72588 0.82174 0.48011 0.0
C665 C 0.73779 0.82196 0.49176 0.0
H666 H 0.72284 0.85162 0.51463 0.0
H667 H 0.70374 0.83198 0.47258 0.0
C668 C 0.65963 0.87535 0.45083 0.0
N669 N 0.65914 0.86374 0.46202 0.0
C670 C 0.64973 0.87456 0.43756 0.0
C671 C 0.63947 0.84959 0.44735 0.0
C672 C 0.6496 0.85085 0.46038 0.0
C673 C 0.63929 0.86167 0.43585 0.0
H674 H 0.66744 0.88542 0.45244 0.0
H675 H 0.64966 0.84167 0.46932 0.0
O676 O 0.69379 0.86954 0.51403 0.0
O677 O 0.66414 0.88253 0.49662 0.0
O678 O 0.69349 0.8732 0.47679 0.0
O679 O 0.67424 0.84653 0.49324 0.0
H680 H 0.68159 0.8818 0.54035 0.0
H681 H 0.72297 0.88072 0.51031 0.0
H682 H 0.69558 0.90057 0.55819 0.0
H683 H 0.73619 0.89961 0.52863 0.0
H684 H 0.61543 0.88465 0.47335 0.0
H685 H 0.66726 0.91047 0.48244 0.0
H686 H 0.63554 0.87108 0.49002 0.0
H687 H 0.64661 0.92329 0.46585 0.0
H688 H 0.69093 0.93762 0.52116 0.0
H689 H 0.7195 0.93114 0.479 0.0
H690 H 0.66248 0.84248 0.56339 0.0
H691 H 0.62172 0.86399 0.54079 0.0
H692 H 0.68978 0.85709 0.45001 0.0
H693 H 0.72421 0.8781 0.48145 0.0
H694 H 0.7118 0.84809 0.43264 0.0
H695 H 0.74564 0.86865 0.46356 0.0
H696 H 0.69069 0.82569 0.51013 0.0
H697 H 0.64356 0.84054 0.49693 0.0
H698 H 0.67886 0.80445 0.52671 0.0
H699 H 0.63256 0.819 0.51372 0.0
H700 H 0.74563 0.83331 0.51354 0.0
H701 H 0.72625 0.81333 0.47039 0.0
H702 H 0.64988 0.88416 0.42902 0.0
H703 H 0.63179 0.83933 0.44632 0.0
Li704 Li 0.50011 0.13676 0.29829 0.0
Li705 Li 0.51634 0.12649 0.31988 0.0
Li706 Li 0.50101 0.10957 0.30216 0.0
Li707 Li 0.48672 0.12697 0.32113 0.0
C708 C 0.52732 0.11409 0.28615 0.0
N709 N 0.54297 0.09462 0.26483 0.0
C710 C 0.5422 0.10779 0.28995 0.0
C711 C 0.52059 0.11078 0.27134 0.0
C712 C 0.54988 0.09791 0.27905 0.0
C713 C 0.52861 0.10082 0.26078 0.0
C714 C 0.5067 0.16022 0.31741 0.0
C715 C 0.50199 0.18844 0.316 0.0
N716 N 0.51676 0.19052 0.3098 0.0
C717 C 0.52185 0.16266 0.31104 0.0
C718 C 0.49669 0.17323 0.31993 0.0
C719 C 0.5267 0.17806 0.30726 0.0
C720 C 0.48694 0.1635 0.28253 0.0
N721 N 0.49909 0.15287 0.28251 0.0
C722 C 0.51046 0.16502 0.25961 0.0
C723 C 0.51085 0.15355 0.2715 0.0
C724 C 0.49779 0.17587 0.259 0.0
C725 C 0.48596 0.17505 0.27074 0.0
H726 H 0.47796 0.16295 0.29167 0.0
H727 H 0.52061 0.14525 0.27201 0.0
C728 C 0.5441 0.11464 0.33435 0.0
N729 N 0.53449 0.12756 0.33319 0.0
C730 C 0.55698 0.11471 0.34479 0.0
C731 C 0.54944 0.14114 0.3531 0.0
C732 C 0.53682 0.14062 0.34239 0.0
C733 C 0.55969 0.12806 0.35439 0.0
H734 H 0.5415 0.10412 0.32745 0.0
H735 H 0.52867 0.15049 0.34172 0.0
C736 C 0.47076 0.1288 0.28877 0.0
N737 N 0.44891 0.14249 0.26842 0.0
C738 C 0.45763 0.13696 0.29484 0.0
C739 C 0.4726 0.12737 0.27232 0.0
C740 C 0.44676 0.14385 0.28437 0.0
C741 C 0.46149 0.13446 0.26224 0.0
C742 C 0.50311 0.10553 0.34138 0.0
C743 C 0.50546 0.08986 0.34625 0.0
C744 C 0.50235 0.11765 0.3527 0.0
C745 C 0.50694 0.08654 0.36244 0.0
C746 C 0.50389 0.11385 0.36877 0.0
N747 N 0.50613 0.0985 0.37327 0.0
C748 C 0.51162 0.07832 0.29761 0.0
C749 C 0.48843 0.08514 0.28314 0.0
C750 C 0.51067 0.06267 0.29229 0.0
N751 N 0.50047 0.08907 0.29313 0.0
C752 C 0.48698 0.06962 0.27757 0.0
C753 C 0.49802 0.05809 0.2824 0.0
H754 H 0.52096 0.08182 0.30572 0.0
H755 H 0.47967 0.09393 0.2799 0.0
C756 C 0.46355 0.14209 0.34038 0.0
N757 N 0.46931 0.12789 0.33535 0.0
C758 C 0.45092 0.14265 0.3511 0.0
C759 C 0.45055 0.11393 0.35137 0.0
C760 C 0.46304 0.11394 0.34049 0.0
C761 C 0.44437 0.12843 0.35681 0.0
H762 H 0.46876 0.15296 0.33608 0.0
H763 H 0.46785 0.10283 0.33621 0.0
O764 O 0.51951 0.12367 0.29674 0.0
O765 O 0.50165 0.14514 0.32078 0.0
O766 O 0.48154 0.12202 0.29887 0.0
O767 O 0.50181 0.10896 0.32555 0.0
H768 H 0.54784 0.11059 0.30111 0.0
H769 H 0.50923 0.11575 0.2681 0.0
H770 H 0.56136 0.09289 0.28189 0.0
H771 H 0.52344 0.09804 0.24935 0.0
H772 H 0.49434 0.1986 0.31784 0.0
H773 H 0.52972 0.15274 0.30887 0.0
H774 H 0.48489 0.17163 0.3247 0.0
H775 H 0.53836 0.18009 0.30226 0.0
H776 H 0.52007 0.16547 0.25107 0.0
H777 H 0.47592 0.18308 0.27072 0.0
H778 H 0.56442 0.10426 0.34572 0.0
H779 H 0.55111 0.15162 0.36036 0.0
H780 H 0.45588 0.13807 0.3075 0.0
H781 H 0.48253 0.12096 0.26736 0.0
H782 H 0.43662 0.15029 0.28892 0.0
H783 H 0.46286 0.13356 0.2495 0.0
H784 H 0.50614 0.08036 0.3376 0.0
H785 H 0.50064 0.12987 0.34913 0.0
H786 H 0.50875 0.07446 0.36639 0.0
H787 H 0.50333 0.1231 0.37766 0.0
H788 H 0.51928 0.0541 0.2965 0.0
H789 H 0.47711 0.06656 0.26991 0.0
H790 H 0.44654 0.15405 0.35512 0.0
H791 H 0.4457 0.10273 0.35541 0.0
Li792 Li 0.87007 0.51101 0.31975 0.0
Li793 Li 0.86046 0.49638 0.29664 0.0
Li794 Li 0.87111 0.48198 0.31904 0.0
Li795 Li 0.88769 0.49788 0.30119 0.0
C796 C 0.83748 0.50283 0.31934 0.0
N797 N 0.80811 0.51747 0.32012 0.0
C798 C 0.83518 0.51738 0.31166 0.0
C799 C 0.82481 0.49573 0.32736 0.0
C800 C 0.82025 0.52459 0.3122 0.0
C801 C 0.81006 0.50333 0.32764 0.0
C802 C 0.88236 0.52504 0.28694 0.0
C803 C 0.89619 0.52829 0.26204 0.0
N804 N 0.90137 0.54279 0.26689 0.0
C805 C 0.88761 0.54009 0.29155 0.0
C806 C 0.88648 0.51921 0.27195 0.0
C807 C 0.89728 0.54884 0.2813 0.0
C808 C 0.88068 0.53845 0.33547 0.0
N809 N 0.86813 0.52836 0.33432 0.0
C810 C 0.85458 0.5421 0.35515 0.0
C811 C 0.85534 0.52981 0.34408 0.0
C812 C 0.8672 0.55292 0.35635 0.0
C813 C 0.88039 0.55099 0.34632 0.0
H814 H 0.89109 0.53653 0.3282 0.0
H815 H 0.84583 0.52126 0.34362 0.0
C816 C 0.8324 0.48485 0.2828 0.0
N817 N 0.84414 0.4958 0.28119 0.0
C818 C 0.82023 0.48399 0.27161 0.0
C819 C 0.83227 0.50596 0.25758 0.0
C820 C 0.84423 0.50636 0.26901 0.0
C821 C 0.8201 0.49463 0.25878 0.0
H822 H 0.83251 0.4768 0.2928 0.0
H823 H 0.85354 0.51512 0.26819 0.0
C824 C 0.89091 0.49723 0.34074 0.0
N825 N 0.89622 0.49733 0.37312 0.0
C826 C 0.90632 0.4989 0.34665 0.0
C827 C 0.87819 0.49563 0.35129 0.0
C828 C 0.90877 0.49891 0.36307 0.0
C829 C 0.88112 0.4957 0.36762 0.0
C830 C 0.86851 0.46826 0.2858 0.0
C831 C 0.85999 0.45516 0.29138 0.0
C832 C 0.86935 0.47109 0.26945 0.0
C833 C 0.85226 0.44525 0.28055 0.0
C834 C 0.86142 0.46093 0.259 0.0
N835 N 0.85311 0.44833 0.26472 0.0
C836 C 0.85642 0.45779 0.33719 0.0
C837 C 0.88458 0.45729 0.33673 0.0
C838 C 0.85609 0.44491 0.34762 0.0
N839 N 0.87053 0.46373 0.33211 0.0
C840 C 0.88482 0.44452 0.34727 0.0
C841 C 0.87043 0.43826 0.35293 0.0
H842 H 0.84545 0.46317 0.33326 0.0
H843 H 0.89561 0.46229 0.33245 0.0
C844 C 0.91917 0.50827 0.29929 0.0
N845 N 0.90826 0.49872 0.29226 0.0
C846 C 0.93478 0.5085 0.29376 0.0
C847 C 0.92744 0.48945 0.27355 0.0
C848 C 0.91201 0.48946 0.27959 0.0
C849 C 0.93915 0.49888 0.28081 0.0
H850 H 0.9158 0.51542 0.30942 0.0
H851 H 0.90308 0.48193 0.27431 0.0
O852 O 0.85191 0.49534 0.31872 0.0
O853 O 0.873 0.51621 0.2969 0.0
O854 O 0.88837 0.49729 0.32469 0.0
O855 O 0.87594 0.47825 0.29627 0.0
H856 H 0.84478 0.52309 0.30535 0.0
H857 H 0.82634 0.48446 0.33333 0.0
H858 H 0.81832 0.53584 0.30632 0.0
H859 H 0.80016 0.49796 0.33383 0.0
H860 H 0.89961 0.52381 0.25049 0.0
H861 H 0.88411 0.54508 0.30283 0.0
H862 H 0.88238 0.5077 0.26808 0.0
H863 H 0.90147 0.56048 0.28477 0.0
H864 H 0.84423 0.54311 0.36272 0.0
H865 H 0.89055 0.55883 0.34716 0.0
H866 H 0.81091 0.47525 0.2731 0.0
H867 H 0.83265 0.51432 0.24782 0.0
H868 H 0.91629 0.50018 0.33863 0.0
H869 H 0.86617 0.49436 0.34695 0.0
H870 H 0.92064 0.5002 0.36781 0.0
H871 H 0.87138 0.49448 0.37591 0.0
H872 H 0.85925 0.4527 0.30394 0.0
H873 H 0.87586 0.48112 0.26486 0.0
H874 H 0.84556 0.43513 0.28473 0.0
H875 H 0.86186 0.46308 0.24635 0.0
H876 H 0.84476 0.4405 0.35182 0.0
H877 H 0.89612 0.43961 0.35097 0.0
H878 H 0.94342 0.51573 0.29995 0.0
H879 H 0.93019 0.482 0.26344 0.0
Li880 Li 0.5105 0.8694 0.3186 0.0
Li881 Li 0.49371 0.88755 0.30288 0.0
Li882 Li 0.48162 0.86786 0.3202 0.0
Li883 Li 0.49564 0.8605 0.29604 0.0
C884 C 0.49565 0.8872 0.34251 0.0
N885 N 0.49613 0.88991 0.37521 0.0
C886 C 0.49322 0.90196 0.34969 0.0
C887 C 0.4983 0.87381 0.35196 0.0
C888 C 0.49352 0.90308 0.36625 0.0
C889 C 0.49851 0.87543 0.36846 0.0
C890 C 0.52251 0.87077 0.28427 0.0
C891 C 0.52906 0.86938 0.25641 0.0
N892 N 0.54074 0.85873 0.25976 0.0
C893 C 0.53468 0.85994 0.28745 0.0
C894 C 0.51977 0.87565 0.26864 0.0
C895 C 0.54373 0.85395 0.2749 0.0
C896 C 0.53561 0.85296 0.33331 0.0
N897 N 0.52938 0.86758 0.3306 0.0
C898 C 0.54923 0.87973 0.34676 0.0
C899 C 0.53598 0.88088 0.33689 0.0
C900 C 0.5558 0.86474 0.35008 0.0
C901 C 0.54894 0.85126 0.34301 0.0
H902 H 0.53012 0.84263 0.32804 0.0
H903 H 0.53068 0.89234 0.33455 0.0
C904 C 0.47835 0.9169 0.29929 0.0
N905 N 0.49182 0.90872 0.29587 0.0
C906 C 0.47685 0.93272 0.29469 0.0
C907 C 0.50324 0.93143 0.28339 0.0
C908 C 0.50413 0.91555 0.28801 0.0
C909 C 0.48951 0.9403 0.28685 0.0
H910 H 0.46881 0.91113 0.30566 0.0
H911 H 0.51476 0.90875 0.28564 0.0
C912 C 0.48957 0.8358 0.31727 0.0
N913 N 0.47422 0.8068 0.31697 0.0
C914 C 0.47486 0.8342 0.30971 0.0
C915 C 0.49645 0.82264 0.32466 0.0
C916 C 0.4673 0.81944 0.30969 0.0
C917 C 0.48851 0.80809 0.32439 0.0
C918 C 0.46565 0.8807 0.28811 0.0
C919 C 0.44951 0.88173 0.29189 0.0
C920 C 0.47121 0.88766 0.27411 0.0
C921 C 0.43929 0.89 0.28177 0.0
C922 C 0.46063 0.89585 0.26431 0.0
N923 N 0.44502 0.89686 0.26832 0.0
C924 C 0.45339 0.87636 0.33525 0.0
C925 C 0.46436 0.85233 0.34497 0.0
C926 C 0.4411 0.87559 0.34633 0.0
N927 N 0.46458 0.86475 0.33466 0.0
C928 C 0.45239 0.85117 0.35637 0.0
C929 C 0.44059 0.86293 0.35715 0.0
H930 H 0.45427 0.88644 0.32735 0.0
H931 H 0.4737 0.84356 0.34469 0.0
C932 C 0.50627 0.83315 0.28046 0.0
N933 N 0.49617 0.84567 0.27915 0.0
C934 C 0.50697 0.82172 0.26852 0.0
C935 C 0.48678 0.83624 0.25414 0.0
C936 C 0.4865 0.84739 0.26636 0.0
C937 C 0.49708 0.82317 0.25518 0.0
H938 H 0.51371 0.83201 0.29087 0.0
H939 H 0.47848 0.85733 0.26567 0.0
O940 O 0.49524 0.88593 0.32632 0.0
O941 O 0.5133 0.87649 0.29637 0.0
O942 O 0.49736 0.85007 0.31735 0.0
O943 O 0.47584 0.87275 0.29799 0.0
H944 H 0.4911 0.91242 0.34253 0.0
H945 H 0.50013 0.86227 0.34663 0.0
H946 H 0.49166 0.91443 0.37197 0.0
H947 H 0.50053 0.86516 0.37591 0.0
H948 H 0.527 0.87298 0.24426 0.0
H949 H 0.53698 0.85604 0.29945 0.0
H950 H 0.51056 0.88418 0.26596 0.0
H951 H 0.5531 0.84547 0.27718 0.0
H952 H 0.55395 0.89041 0.35213 0.0
H953 H 0.55374 0.8395 0.34501 0.0
H954 H 0.46595 0.93898 0.29741 0.0
H955 H 0.51342 0.9368 0.27767 0.0
H956 H 0.46928 0.84418 0.30391 0.0
H957 H 0.50781 0.82366 0.33058 0.0
H958 H 0.45592 0.81804 0.30388 0.0
H959 H 0.49371 0.79781 0.33007 0.0
H960 H 0.44487 0.87606 0.30242 0.0
H961 H 0.48361 0.88687 0.27093 0.0
H962 H 0.42678 0.89092 0.28458 0.0
H963 H 0.46484 0.90141 0.25352 0.0
H964 H 0.43242 0.88507 0.34679 0.0
H965 H 0.45242 0.84127 0.36457 0.0
H966 H 0.5149 0.81169 0.26989 0.0
H967 H 0.47906 0.83785 0.24398 0.0
Li968 Li 0.12359 0.51082 0.3204 0.0
Li969 Li 0.1074 0.49541 0.3017 0.0
Li970 Li 0.12683 0.48151 0.31989 0.0
Li971 Li 0.13535 0.49697 0.29721 0.0
C972 C 0.09865 0.49393 0.33872 0.0
N973 N 0.0802 0.49301 0.36591 0.0
C974 C 0.08293 0.49929 0.33839 0.0
C975 C 0.10486 0.48783 0.35287 0.0
C976 C 0.07384 0.49882 0.35226 0.0
C977 C 0.09538 0.48753 0.36649 0.0
C978 C 0.11072 0.52455 0.28858 0.0
C979 C 0.09614 0.52995 0.26451 0.0
N980 N 0.09104 0.54391 0.27083 0.0
C981 C 0.10541 0.539 0.2948 0.0
C982 C 0.10613 0.52002 0.27327 0.0
C983 C 0.09544 0.5486 0.28565 0.0
C984 C 0.13768 0.53727 0.33535 0.0
N985 N 0.12384 0.5292 0.33343 0.0
C986 C 0.1104 0.54688 0.35104 0.0
C987 C 0.11026 0.53392 0.34075 0.0
C988 C 0.12464 0.55515 0.35372 0.0
C989 C 0.13837 0.55032 0.34555 0.0
H990 H 0.14824 0.53342 0.32912 0.0
H991 H 0.09933 0.52758 0.33868 0.0
C992 C 0.08218 0.48131 0.28428 0.0
N993 N 0.08682 0.49435 0.29259 0.0
C994 C 0.06684 0.48048 0.27796 0.0
C995 C 0.06162 0.50666 0.28857 0.0
C996 C 0.07688 0.50685 0.2949 0.0
C997 C 0.05641 0.49331 0.2801 0.0
H998 H 0.0903 0.47148 0.28275 0.0
H999 H 0.08074 0.51692 0.30183 0.0
C1000 C 0.15353 0.49876 0.33223 0.0
N1001 N 0.17339 0.50012 0.35835 0.0
C1002 C 0.16996 0.49722 0.33034 0.0
C1003 C 0.14725 0.50121 0.34739 0.0
C1004 C 0.17979 0.49786 0.34369 0.0
C1005 C 0.15746 0.50182 0.36045 0.0
C1006 C 0.12928 0.46901 0.28546 0.0
C1007 C 0.14097 0.4579 0.28935 0.0
C1008 C 0.1255 0.47176 0.26954 0.0
C1009 C 0.14884 0.44981 0.27718 0.0
C1010 C 0.13367 0.46346 0.25772 0.0
N1011 N 0.14508 0.45276 0.26175 0.0
C1012 C 0.11709 0.45342 0.3343 0.0
C1013 C 0.14408 0.45963 0.3394 0.0
C1014 C 0.11796 0.44019 0.34424 0.0
N1015 N 0.12994 0.46297 0.33234 0.0
C1016 C 0.14543 0.44666 0.34961 0.0
C1017 C 0.13219 0.4369 0.35227 0.0
H1018 H 0.10602 0.45635 0.32846 0.0
H1019 H 0.15426 0.46711 0.33734 0.0
C1020 C 0.14891 0.50624 0.2679 0.0
N1021 N 0.15134 0.49789 0.28148 0.0
C1022 C 0.16042 0.50632 0.25601 0.0
C1023 C 0.17692 0.48958 0.27254 0.0
C1024 C 0.16498 0.48965 0.28401 0.0
C1025 C 0.17462 0.49791 0.25831 0.0
H1026 H 0.13801 0.51275 0.26624 0.0
H1027 H 0.16644 0.48291 0.29483 0.0
O1028 O 0.10766 0.49416 0.32515 0.0
O1029 O 0.12038 0.51495 0.29744 0.0
O1030 O 0.14377 0.49812 0.31924 0.0
O1031 O 0.12177 0.47735 0.29718 0.0
H1032 H 0.07781 0.50389 0.32758 0.0
H1033 H 0.1168 0.48319 0.35339 0.0
H1034 H 0.0617 0.50305 0.35216 0.0
H1035 H 0.10008 0.48288 0.3775 0.0
H1036 H 0.09238 0.52652 0.25271 0.0
H1037 H 0.10891 0.54274 0.30657 0.0
H1038 H 0.10998 0.50881 0.26832 0.0
H1039 H 0.09119 0.55978 0.29034 0.0
H1040 H 0.09955 0.55013 0.35714 0.0
H1041 H 0.14953 0.55652 0.34705 0.0
H1042 H 0.06314 0.46995 0.27158 0.0
H1043 H 0.05378 0.51663 0.29076 0.0
H1044 H 0.17509 0.49552 0.31869 0.0
H1045 H 0.13467 0.50292 0.34904 0.0
H1046 H 0.19251 0.49661 0.3424 0.0
H1047 H 0.15273 0.50372 0.37224 0.0
H1048 H 0.14406 0.45568 0.30163 0.0
H1049 H 0.11647 0.48032 0.26635 0.0
H1050 H 0.15799 0.44125 0.28 0.0
H1051 H 0.13096 0.46555 0.24533 0.0
H1052 H 0.10748 0.43298 0.34609 0.0
H1053 H 0.15665 0.44434 0.35546 0.0
H1054 H 0.15833 0.51296 0.2452 0.0
H1055 H 0.18768 0.48284 0.27461 0.0
Li1056 Li 0.48688 0.86775 0.67094 0.0
Li1057 Li 0.50241 0.88547 0.68812 0.0
Li1058 Li 0.51546 0.86567 0.67118 0.0
Li1059 Li 0.50032 0.85796 0.69468 0.0
C1060 C 0.49558 0.89189 0.65244 0.0
N1061 N 0.48011 0.90723 0.62792 0.0
C1062 C 0.48892 0.90689 0.65489 0.0
C1063 C 0.49451 0.88474 0.63749 0.0
C1064 C 0.48113 0.91444 0.64234 0.0
C1065 C 0.48659 0.89267 0.62526 0.0
C1066 C 0.47271 0.86925 0.70493 0.0
C1067 C 0.46604 0.86695 0.73268 0.0
N1068 N 0.45257 0.85897 0.72868 0.0
C1069 C 0.45877 0.86112 0.70108 0.0
C1070 C 0.47635 0.8723 0.72083 0.0
C1071 C 0.44875 0.856 0.71327 0.0
C1072 C 0.46511 0.85169 0.6513 0.0
N1073 N 0.46831 0.86585 0.65833 0.0
C1074 C 0.44498 0.87736 0.64707 0.0
C1075 C 0.45841 0.87848 0.65671 0.0
C1076 C 0.44146 0.86296 0.63937 0.0
C1077 C 0.45166 0.84995 0.64179 0.0
H1078 H 0.47298 0.84173 0.65313 0.0
H1079 H 0.46106 0.88948 0.66276 0.0
C1080 C 0.51638 0.91552 0.69196 0.0
N1081 N 0.50368 0.90645 0.69599 0.0
C1082 C 0.51722 0.9313 0.69682 0.0
C1083 C 0.49163 0.92827 0.70951 0.0
C1084 C 0.49146 0.91242 0.70466 0.0
C1085 C 0.50458 0.93801 0.70545 0.0
H1086 H 0.52575 0.91055 0.68472 0.0
H1087 H 0.48134 0.90501 0.7074 0.0
C1088 C 0.50653 0.83583 0.66581 0.0
N1089 N 0.52161 0.81095 0.65065 0.0
C1090 C 0.5133 0.82354 0.67468 0.0
C1091 C 0.5073 0.8354 0.64924 0.0
C1092 C 0.52089 0.81108 0.66679 0.0
C1093 C 0.51503 0.82274 0.6418 0.0
C1094 C 0.53047 0.87979 0.7017 0.0
C1095 C 0.54462 0.88448 0.6944 0.0
C1096 C 0.52709 0.88487 0.71714 0.0
C1097 C 0.5551 0.89436 0.70264 0.0
C1098 C 0.53787 0.89476 0.72497 0.0
N1099 N 0.55153 0.89926 0.71761 0.0
C1100 C 0.53681 0.87152 0.64641 0.0
C1101 C 0.54381 0.84948 0.66246 0.0
C1102 C 0.5502 0.86924 0.63697 0.0
N1103 N 0.53381 0.86162 0.65877 0.0
C1104 C 0.55721 0.84657 0.65313 0.0
C1105 C 0.56052 0.85658 0.64024 0.0
H1106 H 0.52883 0.88126 0.64392 0.0
H1107 H 0.54137 0.84207 0.67265 0.0
C1108 C 0.487 0.8327 0.71202 0.0
N1109 N 0.49934 0.84307 0.71133 0.0
C1110 C 0.48633 0.8214 0.72409 0.0
C1111 C 0.51139 0.83131 0.73409 0.0
C1112 C 0.51144 0.84258 0.72198 0.0
C1113 C 0.4987 0.82059 0.73523 0.0
H1114 H 0.47778 0.83311 0.7031 0.0
H1115 H 0.52124 0.85079 0.72094 0.0
O1116 O 0.5031 0.88422 0.66462 0.0
O1117 O 0.48275 0.87421 0.69318 0.0
O1118 O 0.49918 0.84821 0.67332 0.0
O1119 O 0.52 0.87021 0.6938 0.0
H1120 H 0.48965 0.9126 0.66638 0.0
H1121 H 0.49963 0.87315 0.63541 0.0
H1122 H 0.47585 0.92602 0.64408 0.0
H1123 H 0.48557 0.88724 0.61366 0.0
H1124 H 0.46875 0.86913 0.74504 0.0
H1125 H 0.45577 0.85868 0.68882 0.0
H1126 H 0.48708 0.87862 0.72399 0.0
H1127 H 0.43795 0.84962 0.71048 0.0
H1128 H 0.43762 0.88778 0.64548 0.0
H1129 H 0.44927 0.8385 0.63647 0.0
H1130 H 0.52756 0.93822 0.69361 0.0
H1131 H 0.48146 0.93293 0.71584 0.0
H1132 H 0.51281 0.82369 0.68752 0.0
H1133 H 0.50211 0.84481 0.64221 0.0
H1134 H 0.52625 0.80152 0.6735 0.0
H1135 H 0.51582 0.82231 0.62898 0.0
H1136 H 0.54743 0.88063 0.68247 0.0
H1137 H 0.5162 0.88131 0.72296 0.0
H1138 H 0.56606 0.89815 0.69712 0.0
H1139 H 0.53536 0.89887 0.73688 0.0
H1140 H 0.55236 0.87715 0.62706 0.0
H1141 H 0.56502 0.83678 0.65607 0.0
H1142 H 0.47648 0.81314 0.7245 0.0
H1143 H 0.52112 0.83101 0.7425 0.0
Li1144 Li 0.12255 0.51109 0.6745 0.0
Li1145 Li 0.13232 0.49649 0.69652 0.0
Li1146 Li 0.12174 0.48232 0.67369 0.0
Li1147 Li 0.10413 0.49801 0.69274 0.0
C1148 C 0.15492 0.50382 0.67382 0.0
N1149 N 0.18378 0.51939 0.67286 0.0
C1150 C 0.15683 0.51835 0.68163 0.0
C1151 C 0.16769 0.49721 0.66554 0.0
C1152 C 0.17151 0.52603 0.681 0.0
C1153 C 0.18219 0.50527 0.66519 0.0
C1154 C 0.11653 0.5252 0.70983 0.0
C1155 C 0.10752 0.52922 0.73673 0.0
N1156 N 0.11245 0.54458 0.73601 0.0
C1157 C 0.1215 0.54102 0.70936 0.0
C1158 C 0.10949 0.51924 0.72363 0.0
C1159 C 0.11934 0.55062 0.72271 0.0
C1160 C 0.11667 0.54261 0.66481 0.0
N1161 N 0.12502 0.52924 0.66137 0.0
C1162 C 0.13628 0.54143 0.63841 0.0
C1163 C 0.13467 0.52839 0.64847 0.0
C1164 C 0.12782 0.55545 0.64163 0.0
C1165 C 0.11792 0.55595 0.65506 0.0
H1166 H 0.10889 0.54283 0.67503 0.0
H1167 H 0.14091 0.51748 0.64584 0.0
C1168 C 0.15967 0.48337 0.71041 0.0
N1169 N 0.14903 0.49545 0.71183 0.0
C1170 C 0.17238 0.48211 0.72098 0.0
C1171 C 0.16331 0.50609 0.73388 0.0
C1172 C 0.15071 0.50676 0.72321 0.0
C1173 C 0.17432 0.49366 0.73283 0.0
H1174 H 0.15837 0.47479 0.70094 0.0
H1175 H 0.14251 0.51649 0.72398 0.0
C1176 C 0.099 0.50457 0.65547 0.0
N1177 N 0.08974 0.52031 0.62824 0.0
C1178 C 0.087 0.516 0.65614 0.0
C1179 C 0.10624 0.50106 0.64095 0.0
C1180 C 0.0825 0.52385 0.64224 0.0
C1181 C 0.10139 0.50916 0.62731 0.0
C1182 C 0.12309 0.46819 0.70752 0.0
C1183 C 0.13132 0.45465 0.70257 0.0
C1184 C 0.12123 0.47117 0.72374 0.0
C1185 C 0.1378 0.44446 0.71394 0.0
C1186 C 0.12791 0.46072 0.73475 0.0
N1187 N 0.136 0.4477 0.72966 0.0
C1188 C 0.13659 0.45741 0.6566 0.0
C1189 C 0.10871 0.45977 0.65328 0.0
C1190 C 0.1371 0.44491 0.64569 0.0
N1191 N 0.12254 0.46455 0.66007 0.0
C1192 C 0.10869 0.44747 0.6422 0.0
C1193 C 0.12304 0.43997 0.63819 0.0
H1194 H 0.1474 0.46156 0.66216 0.0
H1195 H 0.09773 0.46574 0.65627 0.0
C1196 C 0.07533 0.51214 0.70206 0.0
N1197 N 0.08401 0.49856 0.70246 0.0
C1198 C 0.06008 0.51244 0.70853 0.0
C1199 C 0.06334 0.48495 0.71622 0.0
C1200 C 0.07849 0.48517 0.70954 0.0
C1201 C 0.0538 0.49863 0.7155 0.0
H1202 H 0.08016 0.52264 0.69647 0.0
H1203 H 0.08577 0.4746 0.70976 0.0
O1204 O 0.14073 0.49592 0.67439 0.0
O1205 O 0.11856 0.51568 0.6968 0.0
O1206 O 0.10397 0.49715 0.66903 0.0
O1207 O 0.11679 0.47836 0.69653 0.0
H1208 H 0.14712 0.52364 0.68814 0.0
H1209 H 0.16642 0.48596 0.65947 0.0
H1210 H 0.17315 0.53727 0.687 0.0
H1211 H 0.19218 0.50029 0.65883 0.0
H1212 H 0.10209 0.52475 0.74748 0.0
H1213 H 0.12708 0.54581 0.69882 0.0
H1214 H 0.10561 0.50705 0.72425 0.0
H1215 H 0.12316 0.56288 0.72252 0.0
H1216 H 0.14379 0.54042 0.62801 0.0
H1217 H 0.11124 0.56653 0.65802 0.0
H1218 H 0.18079 0.47246 0.71969 0.0
H1219 H 0.1644 0.51519 0.74291 0.0
H1220 H 0.08133 0.5189 0.6673 0.0
H1221 H 0.11568 0.49236 0.64026 0.0
H1222 H 0.07328 0.5328 0.64259 0.0
H1223 H 0.10696 0.50665 0.61601 0.0
H1224 H 0.13277 0.45207 0.69008 0.0
H1225 H 0.11477 0.48148 0.72781 0.0
H1226 H 0.14428 0.43399 0.71027 0.0
H1227 H 0.12666 0.46295 0.74734 0.0
H1228 H 0.14841 0.43949 0.64282 0.0
H1229 H 0.09759 0.44389 0.63678 0.0
H1230 H 0.05309 0.52318 0.70753 0.0
H1231 H 0.05905 0.47412 0.72166 0.0
Li1232 Li 0.49456 0.13469 0.69787 0.0
Li1233 Li 0.47993 0.12475 0.67496 0.0
Li1234 Li 0.4933 0.10738 0.69362 0.0
Li1235 Li 0.50902 0.12406 0.67546 0.0
C1236 C 0.46615 0.11305 0.70831 0.0
N1237 N 0.44861 0.09508 0.72946 0.0
C1238 C 0.45075 0.10823 0.70442 0.0
C1239 C 0.47245 0.10906 0.72313 0.0
C1240 C 0.44211 0.09908 0.71522 0.0
C1241 C 0.46346 0.09987 0.73361 0.0
C1242 C 0.48786 0.15744 0.67515 0.0
C1243 C 0.48764 0.18507 0.66762 0.0
N1244 N 0.47316 0.18678 0.67456 0.0
C1245 C 0.47296 0.15949 0.68223 0.0
C1246 C 0.49527 0.17034 0.66781 0.0
C1247 C 0.46573 0.17441 0.6818 0.0
C1248 C 0.50637 0.16239 0.71223 0.0
N1249 N 0.49486 0.15114 0.71312 0.0
C1250 C 0.48307 0.16407 0.73538 0.0
C1251 C 0.48324 0.15181 0.72427 0.0
C1252 C 0.49503 0.17571 0.73503 0.0
C1253 C 0.5068 0.17475 0.72323 0.0
H1254 H 0.51523 0.16176 0.70295 0.0
H1255 H 0.47396 0.14297 0.72441 0.0
C1256 C 0.45194 0.11434 0.66009 0.0
N1257 N 0.46263 0.12643 0.66045 0.0
C1258 C 0.43951 0.11447 0.64913 0.0
C1259 C 0.44976 0.13909 0.63855 0.0
C1260 C 0.46188 0.13858 0.64983 0.0
C1261 C 0.43838 0.12694 0.63815 0.0
H1262 H 0.45335 0.10438 0.66805 0.0
H1263 H 0.4709 0.14767 0.64977 0.0
C1264 C 0.52299 0.12656 0.70878 0.0
N1265 N 0.54333 0.14117 0.73003 0.0
C1266 C 0.53614 0.13505 0.70328 0.0
C1267 C 0.52035 0.12529 0.72513 0.0
C1268 C 0.54625 0.14239 0.71419 0.0
C1269 C 0.53071 0.13283 0.73567 0.0
C1270 C 0.49356 0.10353 0.65418 0.0
C1271 C 0.49127 0.08802 0.64878 0.0
C1272 C 0.49536 0.11587 0.64321 0.0
C1273 C 0.49088 0.08508 0.63245 0.0
C1274 C 0.49489 0.11244 0.62699 0.0
N1275 N 0.49268 0.09725 0.62199 0.0
C1276 C 0.48161 0.07642 0.69775 0.0
C1277 C 0.50443 0.08267 0.71306 0.0
C1278 C 0.48215 0.06068 0.70287 0.0
N1279 N 0.49282 0.08691 0.7027 0.0
C1280 C 0.50545 0.06705 0.71845 0.0
C1281 C 0.49445 0.05575 0.71303 0.0
H1282 H 0.47262 0.08017 0.68937 0.0
H1283 H 0.51323 0.09126 0.71669 0.0
C1284 C 0.5332 0.13936 0.65801 0.0
N1285 N 0.52717 0.12502 0.66221 0.0
C1286 C 0.54586 0.14028 0.64735 0.0
C1287 C 0.54586 0.11162 0.64563 0.0
C1288 C 0.53334 0.11126 0.65648 0.0
C1289 C 0.55222 0.12629 0.64081 0.0
H1290 H 0.52812 0.15008 0.6629 0.0
H1291 H 0.52824 0.10002 0.66001 0.0
O1292 O 0.47487 0.12193 0.69782 0.0
O1293 O 0.49536 0.14303 0.67572 0.0
O1294 O 0.51286 0.11941 0.69823 0.0
O1295 O 0.49383 0.10658 0.67013 0.0
H1296 H 0.44541 0.11168 0.69329 0.0
H1297 H 0.48421 0.1129 0.72645 0.0
H1298 H 0.43021 0.09521 0.71232 0.0
H1299 H 0.46829 0.09656 0.74504 0.0
H1300 H 0.49325 0.19514 0.66197 0.0
H1301 H 0.46702 0.1497 0.68801 0.0
H1302 H 0.5068 0.16901 0.66231 0.0
H1303 H 0.45422 0.17615 0.68723 0.0
H1304 H 0.47352 0.16454 0.74398 0.0
H1305 H 0.51633 0.18335 0.72255 0.0
H1306 H 0.43117 0.10468 0.64891 0.0
H1307 H 0.44935 0.14883 0.63017 0.0
H1308 H 0.5385 0.13606 0.69072 0.0
H1309 H 0.5104 0.11862 0.72967 0.0
H1310 H 0.55642 0.14908 0.71007 0.0
H1311 H 0.52872 0.13204 0.74834 0.0
H1312 H 0.48979 0.07836 0.65713 0.0
H1313 H 0.49707 0.12796 0.64717 0.0
H1314 H 0.48912 0.07312 0.6281 0.0
H1315 H 0.49627 0.12187 0.61838 0.0
H1316 H 0.47358 0.05229 0.69823 0.0
H1317 H 0.51504 0.06373 0.72635 0.0
H1318 H 0.55055 0.15184 0.64425 0.0
H1319 H 0.55018 0.10054 0.64076 0.0
Li1320 Li 0.86789 0.515 0.67352 0.0
Li1321 Li 0.88694 0.49907 0.69105 0.0
Li1322 Li 0.87054 0.48645 0.67066 0.0
Li1323 Li 0.85862 0.49684 0.69383 0.0
C1324 C 0.89357 0.49792 0.6535 0.0
N1325 N 0.90533 0.48671 0.62501 0.0
C1326 C 0.90672 0.4878 0.65333 0.0
C1327 C 0.88644 0.50241 0.63921 0.0
C1328 C 0.91247 0.48224 0.63879 0.0
C1329 C 0.89256 0.4966 0.62492 0.0
C1330 C 0.86463 0.52407 0.70915 0.0
C1331 C 0.8589 0.52652 0.73711 0.0
N1332 N 0.84938 0.53919 0.73397 0.0
C1333 C 0.85493 0.53722 0.70622 0.0
C1334 C 0.86678 0.51878 0.72473 0.0
C1335 C 0.84728 0.54466 0.71893 0.0
C1336 C 0.84984 0.53971 0.66006 0.0
N1337 N 0.86481 0.53418 0.66241 0.0
C1338 C 0.87569 0.55506 0.64668 0.0
C1339 C 0.87766 0.54162 0.65614 0.0
C1340 C 0.86033 0.56093 0.6437 0.0
C1341 C 0.84731 0.5532 0.65076 0.0
H1342 H 0.83985 0.5335 0.66523 0.0
H1343 H 0.88941 0.53682 0.65813 0.0
C1344 C 0.91622 0.48623 0.69987 0.0
N1345 N 0.90685 0.49928 0.70116 0.0
C1346 C 0.93129 0.48613 0.70669 0.0
C1347 C 0.92661 0.5128 0.71632 0.0
C1348 C 0.91159 0.51236 0.70932 0.0
C1349 C 0.93675 0.49962 0.71486 0.0
H1350 H 0.91203 0.47599 0.69334 0.0
H1351 H 0.90377 0.52252 0.71019 0.0
C1352 C 0.83765 0.48999 0.66926 0.0
N1353 N 0.81105 0.47142 0.66434 0.0
C1354 C 0.83688 0.47467 0.67559 0.0
C1355 C 0.82488 0.49587 0.66045 0.0
C1356 C 0.82334 0.46547 0.67297 0.0
C1357 C 0.81154 0.4863 0.65809 0.0
C1358 C 0.87626 0.46857 0.70423 0.0
C1359 C 0.87163 0.45283 0.70169 0.0
C1360 C 0.88278 0.47293 0.71887 0.0
C1361 C 0.8735 0.44174 0.71388 0.0
C1362 C 0.88447 0.46149 0.73075 0.0
N1363 N 0.87983 0.44627 0.72804 0.0
C1364 C 0.88007 0.45699 0.65829 0.0
C1365 C 0.86146 0.47079 0.64229 0.0
C1366 C 0.88041 0.4444 0.64753 0.0
N1367 N 0.8706 0.46976 0.65554 0.0
C1368 C 0.86143 0.45847 0.63121 0.0
C1369 C 0.87095 0.44501 0.6338 0.0
H1370 H 0.88736 0.45662 0.66886 0.0
H1371 H 0.85425 0.48123 0.64029 0.0
C1372 C 0.82997 0.50573 0.70765 0.0
N1373 N 0.84151 0.49446 0.70852 0.0
C1374 C 0.81736 0.50565 0.71837 0.0
C1375 C 0.82809 0.48171 0.73 0.0
C1376 C 0.84064 0.48241 0.71923 0.0
C1377 C 0.81643 0.49358 0.72978 0.0
H1378 H 0.83071 0.51491 0.69871 0.0
H1379 H 0.84962 0.47336 0.7196 0.0
O1380 O 0.88744 0.50309 0.66762 0.0
O1381 O 0.87199 0.51647 0.69681 0.0
O1382 O 0.85075 0.49928 0.67168 0.0
O1383 O 0.87459 0.47952 0.69234 0.0
H1384 H 0.91232 0.48416 0.6643 0.0
H1385 H 0.87614 0.51011 0.63916 0.0
H1386 H 0.92259 0.47432 0.63847 0.0
H1387 H 0.8871 0.4999 0.61377 0.0
H1388 H 0.86035 0.52246 0.74921 0.0
H1389 H 0.85322 0.54155 0.69426 0.0
H1390 H 0.87435 0.50875 0.72724 0.0
H1391 H 0.83965 0.55478 0.71682 0.0
H1392 H 0.88605 0.56043 0.64129 0.0
H1393 H 0.83529 0.55741 0.64898 0.0
H1394 H 0.9388 0.47582 0.70506 0.0
H1395 H 0.93033 0.52337 0.72261 0.0
H1396 H 0.84661 0.46992 0.68246 0.0
H1397 H 0.82529 0.50771 0.65547 0.0
H1398 H 0.8226 0.45359 0.6778 0.0
H1399 H 0.80157 0.4907 0.65128 0.0
H1400 H 0.86659 0.44921 0.69044 0.0
H1401 H 0.88649 0.48499 0.72106 0.0
H1402 H 0.86993 0.42954 0.71208 0.0
H1403 H 0.88948 0.46472 0.74214 0.0
H1404 H 0.88783 0.43421 0.65006 0.0
H1405 H 0.85417 0.45956 0.62065 0.0
H1406 H 0.80844 0.5149 0.71776 0.0
H1407 H 0.82773 0.47222 0.73867 0.0
Li1408 Li 0.32056 0.5089 0.12382 0.0
Li1409 Li 0.29675 0.49552 0.13366 0.0
Li1410 Li 0.31901 0.48026 0.12306 0.0
Li1411 Li 0.30166 0.49611 0.1058 0.0
C1412 C 0.32717 0.50131 0.1535 0.0
N1413 N 0.34452 0.51735 0.17626 0.0
C1414 C 0.31939 0.50974 0.1655 0.0
C1415 C 0.34376 0.50093 0.15314 0.0
C1416 C 0.32838 0.51779 0.1769 0.0
C1417 C 0.35232 0.50916 0.16473 0.0
C1418 C 0.29018 0.52489 0.11067 0.0
C1419 C 0.26654 0.53277 0.09655 0.0
N1420 N 0.27456 0.54534 0.09034 0.0
C1421 C 0.29817 0.53792 0.10422 0.0
C1422 C 0.27422 0.52233 0.1069 0.0
C1423 C 0.29006 0.54812 0.09394 0.0
C1424 C 0.34761 0.52716 0.11717 0.0
N1425 N 0.33448 0.52644 0.12649 0.0
C1426 C 0.34199 0.55031 0.13988 0.0
C1427 C 0.33133 0.53783 0.1375 0.0
C1428 C 0.35591 0.55113 0.13069 0.0
C1429 C 0.35853 0.53944 0.11908 0.0
H1430 H 0.34963 0.51821 0.10823 0.0
H1431 H 0.32062 0.53709 0.14456 0.0
C1432 C 0.28067 0.48398 0.1605 0.0
N1433 N 0.28111 0.49595 0.14969 0.0
C1434 C 0.26911 0.48391 0.17235 0.0
C1435 C 0.25925 0.50892 0.16221 0.0
C1436 C 0.27082 0.50835 0.15037 0.0
C1437 C 0.25827 0.49651 0.17327 0.0
H1438 H 0.2893 0.4745 0.15989 0.0
H1439 H 0.27165 0.51784 0.14178 0.0
C1440 C 0.33639 0.48689 0.09734 0.0
N1441 N 0.3589 0.46955 0.08093 0.0
C1442 C 0.33266 0.48021 0.08261 0.0
C1443 C 0.3516 0.48483 0.10368 0.0
C1444 C 0.34421 0.47148 0.0745 0.0
C1445 C 0.3628 0.47599 0.09522 0.0
C1446 C 0.28442 0.46801 0.12448 0.0
C1447 C 0.28822 0.45411 0.1327 0.0
C1448 C 0.26852 0.47251 0.12281 0.0
C1449 C 0.27602 0.44501 0.13929 0.0
C1450 C 0.25667 0.4631 0.12961 0.0
N1451 N 0.26063 0.44967 0.13765 0.0
C1452 C 0.3386 0.45871 0.13917 0.0
C1453 C 0.33248 0.45106 0.1128 0.0
C1454 C 0.34882 0.4458 0.14085 0.0
N1455 N 0.33104 0.46132 0.12517 0.0
C1456 C 0.34284 0.43816 0.11383 0.0
C1457 C 0.35146 0.43557 0.12792 0.0
H1458 H 0.3369 0.46682 0.14897 0.0
H1459 H 0.32601 0.45322 0.10193 0.0
C1460 C 0.29821 0.5085 0.07519 0.0
N1461 N 0.29258 0.49726 0.08527 0.0
C1462 C 0.29252 0.50938 0.05968 0.0
C1463 C 0.2755 0.4869 0.06514 0.0
C1464 C 0.28139 0.48659 0.08064 0.0
C1465 C 0.28115 0.49837 0.05444 0.0
H1466 H 0.3074 0.51657 0.07911 0.0
H1467 H 0.27731 0.47763 0.08886 0.0
O1468 O 0.31859 0.49356 0.1421 0.0
O1469 O 0.29796 0.51466 0.12058 0.0
O1470 O 0.32521 0.49539 0.10552 0.0
O1471 O 0.2962 0.47718 0.11812 0.0
H1472 H 0.30656 0.51019 0.16594 0.0
H1473 H 0.34996 0.49449 0.14391 0.0
H1474 H 0.32252 0.52442 0.18621 0.0
H1475 H 0.36517 0.50906 0.16454 0.0
H1476 H 0.25422 0.53087 0.09344 0.0
H1477 H 0.31052 0.54007 0.10701 0.0
H1478 H 0.26788 0.51228 0.11178 0.0
H1479 H 0.2961 0.55821 0.08879 0.0
H1480 H 0.3395 0.55905 0.14898 0.0
H1481 H 0.36888 0.53981 0.11144 0.0
H1482 H 0.26879 0.47426 0.18084 0.0
H1483 H 0.25105 0.51882 0.16261 0.0
H1484 H 0.32095 0.48163 0.07753 0.0
H1485 H 0.35465 0.48984 0.11511 0.0
H1486 H 0.34147 0.46619 0.06312 0.0
H1487 H 0.37457 0.4742 0.10004 0.0
H1488 H 0.30046 0.45045 0.13408 0.0
H1489 H 0.26539 0.48324 0.11649 0.0
H1490 H 0.27878 0.43426 0.14576 0.0
H1491 H 0.24433 0.4665 0.12853 0.0
H1492 H 0.35477 0.44403 0.15211 0.0
H1493 H 0.34449 0.43071 0.10349 0.0
H1494 H 0.29741 0.51819 0.05169 0.0
H1495 H 0.26677 0.47818 0.0615 0.0
Li1496 Li 0.31953 0.51074 0.86736 0.0
Li1497 Li 0.29964 0.49655 0.88481 0.0
Li1498 Li 0.31827 0.48129 0.86608 0.0
Li1499 Li 0.29732 0.49721 0.85687 0.0
C1500 C 0.33364 0.49594 0.89709 0.0
N1501 N 0.35416 0.49759 0.9227 0.0
C1502 C 0.32952 0.50471 0.91058 0.0
C1503 C 0.34819 0.48791 0.89671 0.0
C1504 C 0.34005 0.50544 0.92338 0.0
C1505 C 0.3584 0.48893 0.90975 0.0
C1506 C 0.2879 0.52662 0.86375 0.0
C1507 C 0.26405 0.54232 0.8615 0.0
N1508 N 0.26943 0.54832 0.8475 0.0
C1509 C 0.29321 0.53297 0.84937 0.0
C1510 C 0.27321 0.53133 0.8699 0.0
C1511 C 0.28369 0.5439 0.84132 0.0
C1512 C 0.33804 0.53491 0.85261 0.0
N1513 N 0.33347 0.52862 0.86678 0.0
C1514 C 0.34993 0.54698 0.8808 0.0
C1515 C 0.3389 0.53464 0.88073 0.0
C1516 C 0.35521 0.55337 0.86636 0.0
C1517 C 0.34894 0.54739 0.85212 0.0
H1518 H 0.33342 0.53009 0.84165 0.0
H1519 H 0.33473 0.52983 0.89182 0.0
C1520 C 0.28995 0.48294 0.91369 0.0
N1521 N 0.29019 0.49656 0.90507 0.0
C1522 C 0.28465 0.48314 0.9294 0.0
C1523 C 0.27949 0.51128 0.92679 0.0
C1524 C 0.28488 0.51052 0.91115 0.0
C1525 C 0.27965 0.49753 0.93623 0.0
H1526 H 0.29442 0.47206 0.90852 0.0
H1527 H 0.28545 0.5212 0.90406 0.0
C1528 C 0.33412 0.4966 0.84161 0.0
N1529 N 0.36425 0.49608 0.82853 0.0
C1530 C 0.33609 0.4966 0.82511 0.0
C1531 C 0.3475 0.49646 0.85141 0.0
C1532 C 0.35141 0.4963 0.81874 0.0
C1533 C 0.36262 0.49617 0.8446 0.0
C1534 C 0.28259 0.47067 0.86483 0.0
C1535 C 0.28409 0.46121 0.85128 0.0
C1536 C 0.26774 0.47253 0.87201 0.0
C1537 C 0.27058 0.45399 0.84492 0.0
C1538 C 0.25452 0.46507 0.86531 0.0
N1539 N 0.2562 0.45606 0.852 0.0
C1540 C 0.33339 0.45391 0.87753 0.0
C1541 C 0.33574 0.45765 0.84972 0.0
C1542 C 0.34329 0.44064 0.87685 0.0
N1543 N 0.3302 0.46233 0.86414 0.0
C1544 C 0.34587 0.44461 0.84852 0.0
C1545 C 0.34996 0.43613 0.86226 0.0
H1546 H 0.32861 0.45781 0.8888 0.0
H1547 H 0.33258 0.46422 0.83917 0.0
C1548 C 0.26612 0.50027 0.84394 0.0
N1549 N 0.28167 0.4975 0.84059 0.0
C1550 C 0.25473 0.49934 0.83195 0.0
C1551 C 0.27559 0.49278 0.81332 0.0
C1552 C 0.28655 0.49379 0.82567 0.0
C1553 C 0.25945 0.4955 0.81642 0.0
H1554 H 0.26252 0.50288 0.85597 0.0
H1555 H 0.29892 0.49126 0.82345 0.0
O1556 O 0.32332 0.49485 0.88455 0.0
O1557 O 0.29703 0.51582 0.87173 0.0
O1558 O 0.31913 0.49685 0.84796 0.0
O1559 O 0.29559 0.47813 0.87104 0.0
H1560 H 0.31842 0.51112 0.91109 0.0
H1561 H 0.3516 0.48093 0.88649 0.0
H1562 H 0.33703 0.51226 0.93384 0.0
H1563 H 0.36969 0.48279 0.90958 0.0
H1564 H 0.25264 0.54604 0.86609 0.0
H1565 H 0.30444 0.52929 0.84436 0.0
H1566 H 0.26886 0.52645 0.88095 0.0
H1567 H 0.28761 0.54884 0.83013 0.0
H1568 H 0.35426 0.5515 0.89204 0.0
H1569 H 0.35276 0.552 0.84074 0.0
H1570 H 0.28518 0.47233 0.93633 0.0
H1571 H 0.27563 0.52258 0.93156 0.0
H1572 H 0.32591 0.49682 0.81729 0.0
H1573 H 0.34627 0.49675 0.86413 0.0
H1574 H 0.35309 0.49626 0.806 0.0
H1575 H 0.37306 0.49607 0.85209 0.0
H1576 H 0.29554 0.45966 0.84563 0.0
H1577 H 0.26643 0.47981 0.88253 0.0
H1578 H 0.27151 0.44675 0.83435 0.0
H1579 H 0.24292 0.4665 0.87065 0.0
H1580 H 0.34624 0.43439 0.8877 0.0
H1581 H 0.35063 0.44131 0.83703 0.0
H1582 H 0.2424 0.50163 0.8348 0.0
H1583 H 0.27966 0.48954 0.80155 0.0
Li1584 Li 0.48158 0.32192 0.86788 0.0
Li1585 Li 0.49767 0.30342 0.88501 0.0
Li1586 Li 0.51136 0.32252 0.86822 0.0
Li1587 Li 0.49655 0.30028 0.85755 0.0
C1588 C 0.49887 0.34212 0.89062 0.0
N1589 N 0.5043 0.37304 0.90006 0.0
C1590 C 0.50412 0.34531 0.90603 0.0
C1591 C 0.49645 0.35462 0.87998 0.0
C1592 C 0.50677 0.36105 0.91059 0.0
C1593 C 0.49926 0.37018 0.88499 0.0
C1594 C 0.46848 0.28781 0.86613 0.0
C1595 C 0.46207 0.26034 0.86105 0.0
N1596 N 0.44887 0.26497 0.85299 0.0
C1597 C 0.4547 0.29226 0.85801 0.0
C1598 C 0.47206 0.27169 0.86788 0.0
C1599 C 0.44499 0.28056 0.85138 0.0
C1600 C 0.45543 0.33689 0.85303 0.0
N1601 N 0.46321 0.33487 0.86703 0.0
C1602 C 0.44533 0.35251 0.88018 0.0
C1603 C 0.4583 0.34222 0.88054 0.0
C1604 C 0.43718 0.35493 0.86585 0.0
C1605 C 0.4422 0.34683 0.85219 0.0
H1606 H 0.4595 0.33074 0.84254 0.0
H1607 H 0.46459 0.34024 0.89155 0.0
C1608 C 0.51061 0.29756 0.9151 0.0
N1609 N 0.49833 0.29395 0.90529 0.0
C1610 C 0.51104 0.29145 0.93047 0.0
C1611 C 0.48613 0.27807 0.92533 0.0
C1612 C 0.48627 0.28432 0.90999 0.0
C1613 C 0.49856 0.28176 0.93582 0.0
H1614 H 0.51991 0.30544 0.91105 0.0
H1615 H 0.47659 0.28179 0.90195 0.0
C1616 C 0.50158 0.3208 0.83451 0.0
N1617 N 0.5117 0.31546 0.80375 0.0
C1618 C 0.51695 0.31522 0.83161 0.0
C1619 C 0.4914 0.32378 0.82174 0.0
C1620 C 0.52183 0.31255 0.81598 0.0
C1621 C 0.49673 0.32098 0.80628 0.0
C1622 C 0.52552 0.28949 0.87892 0.0
C1623 C 0.54076 0.2941 0.88362 0.0
C1624 C 0.52011 0.27426 0.88267 0.0
C1625 C 0.55009 0.28362 0.89248 0.0
C1626 C 0.52977 0.26412 0.89155 0.0
N1627 N 0.54443 0.26899 0.89626 0.0
C1628 C 0.53852 0.33774 0.88032 0.0
C1629 C 0.53043 0.34687 0.85494 0.0
C1630 C 0.55105 0.34858 0.88055 0.0
N1631 N 0.52872 0.33691 0.86752 0.0
C1632 C 0.54267 0.35804 0.85477 0.0
C1633 C 0.55319 0.35891 0.86767 0.0
H1634 H 0.53643 0.33015 0.89046 0.0
H1635 H 0.52215 0.34634 0.84516 0.0
C1636 C 0.48401 0.28496 0.83042 0.0
N1637 N 0.49627 0.28507 0.84092 0.0
C1638 C 0.48353 0.27372 0.81829 0.0
C1639 C 0.50871 0.26342 0.82755 0.0
C1640 C 0.50858 0.27472 0.83964 0.0
C1641 C 0.49599 0.26277 0.81681 0.0
H1642 H 0.47461 0.29364 0.83145 0.0
H1643 H 0.51832 0.27526 0.84796 0.0
O1644 O 0.49641 0.3268 0.88587 0.0
O1645 O 0.4782 0.29915 0.8726 0.0
O1646 O 0.4965 0.32304 0.8498 0.0
O1647 O 0.51614 0.29967 0.87037 0.0
H1648 H 0.50613 0.33574 0.91437 0.0
H1649 H 0.49257 0.35232 0.86794 0.0
H1650 H 0.51081 0.36372 0.92249 0.0
H1651 H 0.49745 0.37997 0.87687 0.0
H1652 H 0.4648 0.24784 0.8622 0.0
H1653 H 0.45156 0.30462 0.85676 0.0
H1654 H 0.48241 0.26795 0.87442 0.0
H1655 H 0.43438 0.28388 0.84495 0.0
H1656 H 0.44167 0.3585 0.89097 0.0
H1657 H 0.4362 0.34848 0.84093 0.0
H1658 H 0.52069 0.29479 0.9383 0.0
H1659 H 0.47631 0.27064 0.92905 0.0
H1660 H 0.52498 0.31278 0.84135 0.0
H1661 H 0.47949 0.32812 0.82372 0.0
H1662 H 0.53365 0.30813 0.81359 0.0
H1663 H 0.48896 0.32317 0.79629 0.0
H1664 H 0.54543 0.30556 0.88034 0.0
H1665 H 0.50854 0.27035 0.87885 0.0
H1666 H 0.56186 0.2871 0.89627 0.0
H1667 H 0.52562 0.25238 0.89468 0.0
H1668 H 0.55873 0.34915 0.89086 0.0
H1669 H 0.54392 0.36589 0.84466 0.0
H1670 H 0.47364 0.27368 0.81006 0.0
H1671 H 0.5185 0.25511 0.82676 0.0
Li1672 Li 0.6934 0.50035 0.88532 0.0
Li1673 Li 0.67509 0.48402 0.86953 0.0
Li1674 Li 0.69787 0.49732 0.85818 0.0
Li1675 Li 0.67518 0.51303 0.86709 0.0
C1676 C 0.70809 0.46923 0.86804 0.0
N1677 N 0.72885 0.44756 0.85467 0.0
C1678 C 0.7023 0.45548 0.86077 0.0
C1679 C 0.72449 0.47181 0.86872 0.0
C1680 C 0.71297 0.4447 0.85404 0.0
C1681 C 0.73478 0.46077 0.86182 0.0
C1682 C 0.65386 0.50092 0.88863 0.0
C1683 C 0.62689 0.49975 0.87904 0.0
N1684 N 0.62153 0.50237 0.89406 0.0
C1685 C 0.6481 0.50363 0.90395 0.0
C1686 C 0.64318 0.49899 0.87605 0.0
C1687 C 0.63171 0.50431 0.90645 0.0
C1688 C 0.6958 0.51277 0.91604 0.0
N1689 N 0.70232 0.50214 0.90581 0.0
C1690 C 0.71992 0.49263 0.92589 0.0
C1691 C 0.71429 0.4923 0.91031 0.0
C1692 C 0.713 0.50305 0.93694 0.0
C1693 C 0.70099 0.51344 0.93175 0.0
H1694 H 0.68623 0.52036 0.91208 0.0
H1695 H 0.71919 0.48394 0.90191 0.0
C1696 C 0.65731 0.45916 0.85562 0.0
N1697 N 0.66145 0.46611 0.86958 0.0
C1698 C 0.64645 0.44665 0.85544 0.0
C1699 C 0.64433 0.44875 0.88402 0.0
C1700 C 0.65542 0.46104 0.88366 0.0
C1701 C 0.63965 0.44149 0.86976 0.0
H1702 H 0.66237 0.46344 0.84463 0.0
H1703 H 0.65899 0.46678 0.89458 0.0
C1704 C 0.70851 0.52666 0.87856 0.0
N1705 N 0.7294 0.54455 0.89653 0.0
C1706 C 0.70433 0.54195 0.8835 0.0
C1707 C 0.72349 0.52065 0.88245 0.0
C1708 C 0.715 0.55076 0.89265 0.0
C1709 C 0.73383 0.52981 0.89164 0.0
C1710 C 0.67528 0.50308 0.83491 0.0
C1711 C 0.68317 0.51735 0.83178 0.0
C1712 C 0.66721 0.49532 0.82265 0.0
C1713 C 0.68282 0.52363 0.81644 0.0
C1714 C 0.66712 0.50201 0.80747 0.0
N1715 N 0.67487 0.5159 0.8047 0.0
C1716 C 0.71247 0.48357 0.83133 0.0
C1717 C 0.72433 0.50739 0.84048 0.0
C1718 C 0.72353 0.48243 0.81905 0.0
N1719 N 0.71323 0.49579 0.84184 0.0
C1720 C 0.73549 0.50685 0.82828 0.0
C1721 C 0.73525 0.49419 0.8174 0.0
H1722 H 0.70323 0.47473 0.83248 0.0
H1723 H 0.72436 0.51723 0.8487 0.0
C1724 C 0.66031 0.54103 0.87684 0.0
N1725 N 0.66116 0.53066 0.8645 0.0
C1726 C 0.64977 0.55381 0.87634 0.0
C1727 C 0.6406 0.54459 0.85075 0.0
C1728 C 0.65142 0.53207 0.85169 0.0
C1729 C 0.63972 0.55567 0.86318 0.0
H1730 H 0.66756 0.53913 0.88727 0.0
H1731 H 0.65167 0.52331 0.84235 0.0
O1732 O 0.69778 0.47999 0.87458 0.0
O1733 O 0.66989 0.50036 0.88601 0.0
O1734 O 0.69813 0.51775 0.86975 0.0
O1735 O 0.67574 0.49648 0.84976 0.0
H1736 H 0.68971 0.45314 0.86027 0.0
H1737 H 0.72926 0.48227 0.87439 0.0
H1738 H 0.70862 0.43406 0.84831 0.0
H1739 H 0.74747 0.46271 0.86215 0.0
H1740 H 0.6185 0.49827 0.86943 0.0
H1741 H 0.65622 0.50521 0.91379 0.0
H1742 H 0.64741 0.49694 0.86409 0.0
H1743 H 0.62708 0.5064 0.91826 0.0
H1744 H 0.72931 0.48455 0.92932 0.0
H1745 H 0.69513 0.52149 0.93989 0.0
H1746 H 0.64305 0.44138 0.84421 0.0
H1747 H 0.63942 0.44498 0.89529 0.0
H1748 H 0.69306 0.54706 0.88017 0.0
H1749 H 0.72703 0.50898 0.87854 0.0
H1750 H 0.71187 0.56258 0.8966 0.0
H1751 H 0.74538 0.5252 0.89487 0.0
H1752 H 0.6895 0.52355 0.84107 0.0
H1753 H 0.66106 0.48427 0.82483 0.0
H1754 H 0.68888 0.53466 0.81386 0.0
H1755 H 0.66091 0.49614 0.79788 0.0
H1756 H 0.72293 0.4724 0.81103 0.0
H1757 H 0.74401 0.51642 0.82724 0.0
H1758 H 0.64914 0.56186 0.88636 0.0
H1759 H 0.63297 0.54556 0.84045 0.0
Li1760 Li 0.49572 0.69204 0.88627 0.0
Li1761 Li 0.51183 0.67485 0.86906 0.0
Li1762 Li 0.49709 0.69731 0.85911 0.0
Li1763 Li 0.48282 0.67383 0.8682 0.0
C1764 C 0.52524 0.70843 0.86784 0.0
N1765 N 0.54527 0.73045 0.85397 0.0
C1766 C 0.53865 0.70342 0.85943 0.0
C1767 C 0.52219 0.72468 0.86941 0.0
C1768 C 0.5486 0.71473 0.85246 0.0
C1769 C 0.53239 0.73561 0.86224 0.0
C1770 C 0.49694 0.65246 0.88845 0.0
C1771 C 0.49868 0.62583 0.87807 0.0
N1772 N 0.4971 0.61999 0.89305 0.0
C1773 C 0.4953 0.64621 0.90373 0.0
C1774 C 0.49862 0.64221 0.8755 0.0
C1775 C 0.49543 0.62976 0.90581 0.0
C1776 C 0.484 0.69353 0.91721 0.0
N1777 N 0.49447 0.70036 0.90703 0.0
C1778 C 0.50381 0.71781 0.92731 0.0
C1779 C 0.50419 0.71236 0.91166 0.0
C1780 C 0.49344 0.71069 0.93827 0.0
C1781 C 0.48327 0.69854 0.93297 0.0
H1782 H 0.47648 0.68395 0.91313 0.0
H1783 H 0.51242 0.71752 0.90328 0.0
C1784 C 0.5362 0.65837 0.85306 0.0
N1785 N 0.53025 0.66202 0.8676 0.0
C1786 C 0.54915 0.64812 0.85168 0.0
C1787 C 0.54961 0.64567 0.88029 0.0
C1788 C 0.53676 0.6561 0.88111 0.0
C1789 C 0.55591 0.64143 0.86541 0.0
H1790 H 0.53084 0.66339 0.84254 0.0
H1791 H 0.53171 0.6592 0.89251 0.0
C1792 C 0.46835 0.70638 0.88098 0.0
N1793 N 0.45019 0.72633 0.89973 0.0
C1794 C 0.45313 0.70179 0.88579 0.0
C1795 C 0.47413 0.72129 0.88538 0.0
C1796 C 0.44418 0.712 0.89534 0.0
C1797 C 0.46484 0.73115 0.89496 0.0
C1798 C 0.49057 0.67498 0.83566 0.0
C1799 C 0.47596 0.68264 0.83367 0.0
C1800 C 0.49745 0.66701 0.82282 0.0
C1801 C 0.46848 0.68217 0.81887 0.0
C1802 C 0.48959 0.66681 0.80821 0.0
N1803 N 0.4754 0.67434 0.80656 0.0
C1804 C 0.50891 0.7129 0.8321 0.0
C1805 C 0.48566 0.72438 0.84308 0.0
C1806 C 0.50945 0.72453 0.82035 0.0
N1807 N 0.49729 0.71321 0.84329 0.0
C1808 C 0.48561 0.73611 0.83144 0.0
C1809 C 0.4977 0.73637 0.81992 0.0
H1810 H 0.51779 0.70363 0.83237 0.0
H1811 H 0.47631 0.72407 0.85185 0.0
C1812 C 0.45575 0.65832 0.87908 0.0
N1813 N 0.46553 0.65936 0.86629 0.0
C1814 C 0.44314 0.64759 0.87913 0.0
C1815 C 0.45134 0.63859 0.85315 0.0
C1816 C 0.4637 0.64961 0.85354 0.0
C1817 C 0.4408 0.63749 0.86605 0.0
H1818 H 0.45793 0.66568 0.88937 0.0
H1819 H 0.47206 0.65003 0.84383 0.0
O1820 O 0.51527 0.6975 0.8746 0.0
O1821 O 0.4967 0.66855 0.88626 0.0
O1822 O 0.47738 0.69647 0.87174 0.0
O1823 O 0.49829 0.67545 0.84996 0.0
H1824 H 0.54134 0.69096 0.85819 0.0
H1825 H 0.512 0.72884 0.87598 0.0
H1826 H 0.55895 0.71099 0.84584 0.0
H1827 H 0.53007 0.7482 0.86325 0.0
H1828 H 0.49997 0.61776 0.86816 0.0
H1829 H 0.49394 0.65401 0.91386 0.0
H1830 H 0.49982 0.64682 0.86357 0.0
H1831 H 0.49418 0.62475 0.91757 0.0
H1832 H 0.51174 0.7273 0.93084 0.0
H1833 H 0.47528 0.69251 0.94104 0.0
H1834 H 0.55377 0.64544 0.83999 0.0
H1835 H 0.55424 0.64065 0.89119 0.0
H1836 H 0.44817 0.69059 0.88204 0.0
H1837 H 0.48573 0.72515 0.88157 0.0
H1838 H 0.43242 0.70855 0.8992 0.0
H1839 H 0.46928 0.74264 0.8986 0.0
H1840 H 0.47039 0.68886 0.84341 0.0
H1841 H 0.50874 0.66102 0.82412 0.0
H1842 H 0.45718 0.68805 0.81718 0.0
H1843 H 0.49479 0.66068 0.79819 0.0
H1844 H 0.51907 0.72431 0.81182 0.0
H1845 H 0.47608 0.74474 0.83134 0.0
H1846 H 0.43534 0.64723 0.88935 0.0
H1847 H 0.45032 0.63073 0.84302 0.0
Li1848 Li 0.69583 0.49417 0.13569 0.0
Li1849 Li 0.67167 0.48233 0.12506 0.0
Li1850 Li 0.69049 0.49684 0.10712 0.0
Li1851 Li 0.67325 0.51088 0.12582 0.0
C1852 C 0.70697 0.46728 0.11873 0.0
N1853 N 0.73317 0.44758 0.1169 0.0
C1854 C 0.7059 0.45148 0.12368 0.0
C1855 C 0.7213 0.47296 0.11259 0.0
C1856 C 0.7193 0.44173 0.12274 0.0
C1857 C 0.73443 0.46285 0.11182 0.0
C1858 C 0.66509 0.48815 0.15523 0.0
C1859 C 0.63973 0.48056 0.16617 0.0
N1860 N 0.64729 0.47148 0.17718 0.0
C1861 C 0.67262 0.47885 0.16673 0.0
C1862 C 0.64852 0.48913 0.15502 0.0
C1863 C 0.66341 0.47048 0.1777 0.0
C1864 C 0.71668 0.50677 0.15788 0.0
N1865 N 0.71176 0.49284 0.15142 0.0
C1866 C 0.72923 0.47818 0.16825 0.0
C1867 C 0.71764 0.47867 0.15643 0.0
C1868 C 0.73466 0.4924 0.17504 0.0
C1869 C 0.72824 0.50684 0.16972 0.0
H1870 H 0.71161 0.51783 0.1538 0.0
H1871 H 0.71313 0.46774 0.1515 0.0
C1872 C 0.64464 0.46417 0.1175 0.0
N1873 N 0.65786 0.46458 0.12673 0.0
C1874 C 0.63396 0.45159 0.11876 0.0
C1875 C 0.65089 0.43984 0.13875 0.0
C1876 C 0.66123 0.4527 0.13713 0.0
C1877 C 0.63699 0.43925 0.12955 0.0
H1878 H 0.64238 0.47361 0.10913 0.0
H1879 H 0.67186 0.4533 0.1443 0.0
C1880 C 0.70884 0.52311 0.11797 0.0
N1881 N 0.73404 0.54222 0.10914 0.0
C1882 C 0.70609 0.53845 0.11225 0.0
C1883 C 0.72444 0.51764 0.11952 0.0
C1884 C 0.71897 0.54788 0.10774 0.0
C1885 C 0.73701 0.52744 0.11491 0.0
C1886 C 0.65494 0.50569 0.1004 0.0
C1887 C 0.65741 0.51285 0.08564 0.0
C1888 C 0.6402 0.50725 0.1079 0.0
C1889 C 0.64518 0.52169 0.07874 0.0
C1890 C 0.62828 0.51621 0.10063 0.0
N1891 N 0.631 0.52319 0.08633 0.0
C1892 C 0.70196 0.48312 0.07906 0.0
C1893 C 0.70213 0.51125 0.0789 0.0
C1894 C 0.70738 0.4827 0.06342 0.0
N1895 N 0.69944 0.49724 0.08644 0.0
C1896 C 0.70745 0.5114 0.06321 0.0
C1897 C 0.70993 0.49698 0.05519 0.0
H1898 H 0.69941 0.47215 0.08521 0.0
H1899 H 0.69947 0.5223 0.0848 0.0
C1900 C 0.65451 0.53229 0.14346 0.0
N1901 N 0.66167 0.52994 0.1292 0.0
C1902 C 0.645 0.54564 0.14593 0.0
C1903 C 0.65078 0.55409 0.11911 0.0
C1904 C 0.66027 0.54065 0.11722 0.0
C1905 C 0.64282 0.55663 0.13356 0.0
H1906 H 0.65602 0.5237 0.15287 0.0
H1907 H 0.66617 0.53853 0.10602 0.0
O1908 O 0.69394 0.47698 0.1196 0.0
O1909 O 0.67391 0.49624 0.14424 0.0
O1910 O 0.69633 0.51376 0.12252 0.0
O1911 O 0.66685 0.49716 0.10744 0.0
H1912 H 0.69487 0.44679 0.12826 0.0
H1913 H 0.72223 0.48496 0.1082 0.0
H1914 H 0.71866 0.42951 0.12663 0.0
H1915 H 0.74559 0.46712 0.10711 0.0
H1916 H 0.6269 0.48113 0.16607 0.0
H1917 H 0.68542 0.47799 0.16712 0.0
H1918 H 0.64251 0.49636 0.1463 0.0
H1919 H 0.66908 0.46316 0.1866 0.0
H1920 H 0.73366 0.46679 0.17224 0.0
H1921 H 0.73219 0.51808 0.17455 0.0
H1922 H 0.62353 0.45145 0.11124 0.0
H1923 H 0.65361 0.43061 0.14728 0.0
H1924 H 0.69414 0.54299 0.11119 0.0
H1925 H 0.72688 0.50606 0.12443 0.0
H1926 H 0.71699 0.55971 0.10317 0.0
H1927 H 0.74913 0.52332 0.11601 0.0
H1928 H 0.66866 0.51165 0.07958 0.0
H1929 H 0.63804 0.50175 0.11928 0.0
H1930 H 0.64697 0.52736 0.06736 0.0
H1931 H 0.61687 0.51762 0.10637 0.0
H1932 H 0.70925 0.47132 0.05775 0.0
H1933 H 0.70889 0.52269 0.05722 0.0
H1934 H 0.63933 0.54726 0.15736 0.0
H1935 H 0.64931 0.56209 0.10916 0.0
Li1936 Li 0.49774 0.69436 0.13682 0.0
Li1937 Li 0.51159 0.67078 0.12718 0.0
Li1938 Li 0.4962 0.68824 0.10838 0.0
Li1939 Li 0.48288 0.67046 0.12709 0.0
C1940 C 0.52535 0.70599 0.12134 0.0
N1941 N 0.54564 0.73178 0.12147 0.0
C1942 C 0.54058 0.70461 0.1278 0.0
C1943 C 0.52056 0.7204 0.11467 0.0
C1944 C 0.55063 0.71781 0.12784 0.0
C1945 C 0.53095 0.73333 0.11492 0.0
C1946 C 0.50455 0.6643 0.15763 0.0
C1947 C 0.51302 0.6395 0.16919 0.0
N1948 N 0.52005 0.64762 0.18125 0.0
C1949 C 0.51172 0.67238 0.17022 0.0
C1950 C 0.50506 0.64772 0.15718 0.0
C1951 C 0.51955 0.66374 0.18203 0.0
C1952 C 0.48382 0.71715 0.15658 0.0
N1953 N 0.49796 0.71096 0.1519 0.0
C1954 C 0.51205 0.72875 0.16888 0.0
C1955 C 0.51193 0.71631 0.15796 0.0
C1956 C 0.49763 0.73559 0.17371 0.0
C1957 C 0.48337 0.72959 0.16749 0.0
H1958 H 0.47287 0.71245 0.15179 0.0
H1959 H 0.52296 0.71078 0.15453 0.0
C1960 C 0.53305 0.64697 0.11817 0.0
N1961 N 0.53027 0.6583 0.12931 0.0
C1962 C 0.54649 0.63736 0.11922 0.0
C1963 C 0.55405 0.65131 0.14315 0.0
C1964 C 0.54053 0.66077 0.14154 0.0
C1965 C 0.55713 0.63942 0.13189 0.0
H1966 H 0.52482 0.6454 0.10845 0.0
H1967 H 0.53823 0.6701 0.15004 0.0
C1968 C 0.4688 0.70504 0.11752 0.0
N1969 N 0.44924 0.72884 0.10622 0.0
C1970 C 0.45355 0.70143 0.11205 0.0
C1971 C 0.47398 0.7208 0.1175 0.0
C1972 C 0.44387 0.71362 0.1063 0.0
C1973 C 0.46395 0.73265 0.11168 0.0
C1974 C 0.49029 0.65195 0.10225 0.0
C1975 C 0.48248 0.65376 0.08772 0.0
C1976 C 0.49071 0.63705 0.10953 0.0
C1977 C 0.47494 0.64067 0.08086 0.0
C1978 C 0.48301 0.62426 0.10231 0.0
N1979 N 0.47533 0.62632 0.08824 0.0
C1980 C 0.51025 0.70026 0.08083 0.0
C1981 C 0.48217 0.69877 0.0795 0.0
C1982 C 0.51098 0.70577 0.06523 0.0
N1983 N 0.496 0.69689 0.0876 0.0
C1984 C 0.48234 0.7042 0.06384 0.0
C1985 C 0.49691 0.70759 0.05646 0.0
H1986 H 0.52109 0.69836 0.08744 0.0
H1987 H 0.47104 0.69549 0.08494 0.0
C1988 C 0.4625 0.65021 0.14434 0.0
N1989 N 0.46464 0.65752 0.13013 0.0
C1990 C 0.44973 0.63988 0.14658 0.0
C1991 C 0.4414 0.64513 0.11961 0.0
C1992 C 0.45426 0.65543 0.11795 0.0
C1993 C 0.43909 0.63704 0.13403 0.0
H1994 H 0.47078 0.65229 0.15392 0.0
H1995 H 0.45615 0.66152 0.10682 0.0
O1996 O 0.51538 0.69315 0.1212 0.0
O1997 O 0.49696 0.67257 0.14589 0.0
O1998 O 0.47844 0.69322 0.12316 0.0
O1999 O 0.49755 0.66469 0.10926 0.0
H2000 H 0.54458 0.69351 0.13283 0.0
H2001 H 0.50905 0.72156 0.10914 0.0
H2002 H 0.5624 0.71694 0.13291 0.0
H2003 H 0.52737 0.74456 0.10983 0.0
H2004 H 0.5136 0.62668 0.16892 0.0
H2005 H 0.51132 0.68519 0.17086 0.0
H2006 H 0.49943 0.64126 0.14763 0.0
H2007 H 0.52523 0.66985 0.19179 0.0
H2008 H 0.52328 0.73278 0.17368 0.0
H2009 H 0.472 0.73458 0.17087 0.0
H2010 H 0.54839 0.62823 0.11036 0.0
H2011 H 0.56208 0.65338 0.15298 0.0
H2012 H 0.44925 0.68935 0.11216 0.0
H2013 H 0.48553 0.72389 0.12213 0.0
H2014 H 0.43208 0.71097 0.10193 0.0
H2015 H 0.46784 0.74489 0.11157 0.0
H2016 H 0.48214 0.66516 0.08185 0.0
H2017 H 0.49686 0.6354 0.12067 0.0
H2018 H 0.46876 0.64193 0.06966 0.0
H2019 H 0.48314 0.61269 0.10788 0.0
H2020 H 0.52246 0.70831 0.06003 0.0
H2021 H 0.47124 0.70508 0.05741 0.0
H2022 H 0.44826 0.63415 0.15799 0.0
H2023 H 0.43364 0.64319 0.10954 0.0
Li2024 Li 0.48316 0.32003 0.12302 0.0
Li2025 Li 0.49622 0.29641 0.13262 0.0
Li2026 Li 0.51196 0.31852 0.12378 0.0
Li2027 Li 0.4969 0.30171 0.10492 0.0
C2028 C 0.48813 0.31851 0.15557 0.0
N2029 N 0.46998 0.31916 0.18293 0.0
C2030 C 0.47319 0.31123 0.15588 0.0
C2031 C 0.4938 0.32611 0.16919 0.0
C2032 C 0.46421 0.31169 0.16982 0.0
C2033 C 0.48446 0.32632 0.1829 0.0
C2034 C 0.46861 0.28563 0.11267 0.0
C2035 C 0.46588 0.25952 0.10123 0.0
N2036 N 0.44982 0.26124 0.10131 0.0
C2037 C 0.45207 0.28711 0.11272 0.0
C2038 C 0.47556 0.2717 0.10696 0.0
C2039 C 0.44278 0.27466 0.1069 0.0
C2040 C 0.45332 0.33228 0.11447 0.0
N2041 N 0.46565 0.33409 0.12472 0.0
C2042 C 0.45316 0.35654 0.13671 0.0
C2043 C 0.46583 0.34593 0.1357 0.0
C2044 C 0.44018 0.35486 0.12639 0.0
C2045 C 0.44028 0.3425 0.11521 0.0
H2046 H 0.45371 0.323 0.10561 0.0
H2047 H 0.47588 0.34726 0.14356 0.0
C2048 C 0.50666 0.28101 0.15992 0.0
N2049 N 0.49529 0.28045 0.14847 0.0
C2050 C 0.50693 0.26969 0.17196 0.0
C2051 C 0.48315 0.25804 0.16084 0.0
C2052 C 0.4835 0.26943 0.14884 0.0
C2053 C 0.49507 0.25803 0.17246 0.0
H2054 H 0.51548 0.29032 0.15971 0.0
H2055 H 0.47428 0.26951 0.13997 0.0
C2056 C 0.49859 0.3414 0.1034 0.0
N2057 N 0.49935 0.37386 0.09875 0.0
C2058 C 0.49705 0.34766 0.08812 0.0
C2059 C 0.5005 0.35165 0.11633 0.0
C2060 C 0.49747 0.3641 0.08601 0.0
C2061 C 0.50086 0.36802 0.11373 0.0
C2062 C 0.52507 0.28483 0.12506 0.0
C2063 C 0.53739 0.28962 0.13511 0.0
C2064 C 0.52295 0.26869 0.12186 0.0
C2065 C 0.54716 0.27816 0.14206 0.0
C2066 C 0.53296 0.25758 0.12905 0.0
N2067 N 0.54474 0.2625 0.13893 0.0
C2068 C 0.53466 0.33583 0.1412 0.0
C2069 C 0.53891 0.33524 0.11337 0.0
C2070 C 0.54753 0.34605 0.14325 0.0
N2071 N 0.53054 0.33084 0.12643 0.0
C2072 C 0.55185 0.34548 0.11485 0.0
C2073 C 0.55617 0.3512 0.12994 0.0
H2074 H 0.52779 0.33204 0.15135 0.0
H2075 H 0.53523 0.33115 0.10176 0.0
C2076 C 0.48393 0.29539 0.07491 0.0
N2077 N 0.49685 0.29313 0.0843 0.0
C2078 C 0.48385 0.28963 0.05938 0.0
C2079 C 0.51031 0.27924 0.0636 0.0
C2080 C 0.50984 0.28512 0.07908 0.0
C2081 C 0.49726 0.28164 0.0535 0.0
H2082 H 0.4738 0.30187 0.07945 0.0
H2083 H 0.51992 0.28351 0.08688 0.0
O2084 O 0.49728 0.31812 0.14212 0.0
O2085 O 0.47788 0.29787 0.11804 0.0
O2086 O 0.49818 0.32532 0.10562 0.0
O2087 O 0.51528 0.2959 0.11826 0.0
H2088 H 0.46852 0.30528 0.14553 0.0
H2089 H 0.50531 0.33181 0.16919 0.0
H2090 H 0.45265 0.3061 0.17022 0.0
H2091 H 0.48872 0.33216 0.19351 0.0
H2092 H 0.47113 0.2487 0.0967 0.0
H2093 H 0.44645 0.29772 0.11729 0.0
H2094 H 0.4883 0.27036 0.10685 0.0
H2095 H 0.42997 0.27566 0.10685 0.0
H2096 H 0.45347 0.36593 0.14551 0.0
H2097 H 0.43058 0.34101 0.1069 0.0
H2098 H 0.51614 0.27019 0.18094 0.0
H2099 H 0.47378 0.24922 0.16095 0.0
H2100 H 0.49555 0.33987 0.07799 0.0
H2101 H 0.50168 0.34703 0.12825 0.0
H2102 H 0.49629 0.36912 0.07424 0.0
H2103 H 0.50233 0.37607 0.12363 0.0
H2104 H 0.5393 0.30203 0.13769 0.0
H2105 H 0.51372 0.26472 0.1139 0.0
H2106 H 0.55665 0.2817 0.14996 0.0
H2107 H 0.53137 0.24505 0.12674 0.0
H2108 H 0.55058 0.35001 0.1551 0.0
H2109 H 0.55804 0.34932 0.10425 0.0
H2110 H 0.47365 0.29193 0.05189 0.0
H2111 H 0.52083 0.27306 0.05952 0.0
H2112 H 0.12248 0.40614 0.34869 0.0
H2113 H 0.14329 0.43857 0.38252 0.0
H2114 H 0.12205 0.38528 0.36901 0.0
H2115 H 0.14273 0.41781 0.40281 0.0
H2116 H 0.1163 0.38356 0.43745 0.0
H2117 H 0.11867 0.40346 0.41644 0.0
H2118 H 0.14283 0.36935 0.38674 0.0
H2119 H 0.14063 0.34943 0.40792 0.0
C2120 C 0.12703 0.40874 0.36043 0.0
C2121 C 0.13291 0.42392 0.36407 0.0
C2122 C 0.12686 0.39683 0.37199 0.0
C2123 C 0.13229 0.40002 0.38744 0.0
C2124 C 0.1384 0.41512 0.39099 0.0
C2125 C 0.13881 0.42693 0.37938 0.0
C2126 C 0.12206 0.38032 0.42641 0.0
C2127 C 0.12826 0.365 0.42424 0.0
C2128 C 0.12352 0.3917 0.41447 0.0
C2129 C 0.13096 0.3879 0.40004 0.0
C2130 C 0.13701 0.37252 0.39777 0.0
C2131 C 0.13581 0.36119 0.40986 0.0
H2132 H 0.62237 0.1485 0.43362 0.0
H2133 H 0.64151 0.10542 0.41326 0.0
H2134 H 0.60284 0.14983 0.41249 0.0
H2135 H 0.6212 0.10617 0.3927 0.0
H2136 H 0.59064 0.11932 0.34993 0.0
H2137 H 0.61209 0.11954 0.36949 0.0
H2138 H 0.57923 0.1366 0.40509 0.0
H2139 H 0.55805 0.13681 0.38544 0.0
C2140 C 0.62251 0.13936 0.42459 0.0
C2141 C 0.63354 0.12683 0.42521 0.0
C2142 C 0.61111 0.13999 0.41258 0.0
C2143 C 0.61029 0.12801 0.40097 0.0
C2144 C 0.62153 0.11566 0.40137 0.0
C2145 C 0.63306 0.11512 0.41331 0.0
C2146 C 0.58807 0.12311 0.36196 0.0
C2147 C 0.57274 0.12813 0.36617 0.0
C2148 C 0.60032 0.12319 0.37317 0.0
C2149 C 0.59743 0.12815 0.38887 0.0
C2150 C 0.58201 0.13306 0.39304 0.0
C2151 C 0.56984 0.13313 0.38181 0.0
H2152 H 0.88799 0.63433 0.41636 0.0
H2153 H 0.84416 0.61548 0.43526 0.0
H2154 H 0.88793 0.61392 0.39587 0.0
H2155 H 0.84364 0.59565 0.41426 0.0
H2156 H 0.85809 0.55086 0.38736 0.0
H2157 H 0.85756 0.57191 0.40717 0.0
H2158 H 0.87468 0.60528 0.37214 0.0
H2159 H 0.87546 0.58407 0.35238 0.0
C2160 C 0.8783 0.62588 0.41611 0.0
C2161 C 0.86614 0.6265 0.42754 0.0
C2162 C 0.87816 0.6143 0.40423 0.0
C2163 C 0.86581 0.6031 0.40344 0.0
C2164 C 0.85346 0.60394 0.41466 0.0
C2165 C 0.85364 0.61546 0.42658 0.0
C2166 C 0.86161 0.56273 0.38387 0.0
C2167 C 0.86679 0.56583 0.36832 0.0
C2168 C 0.86127 0.57481 0.39521 0.0
C2169 C 0.86601 0.59032 0.39125 0.0
C2170 C 0.87115 0.59343 0.37565 0.0
C2171 C 0.87158 0.58129 0.36433 0.0
H2172 H 0.38698 0.8799 0.44293 0.0
H2173 H 0.35581 0.84994 0.41532 0.0
H2174 H 0.40686 0.87867 0.42182 0.0
H2175 H 0.37577 0.84865 0.39421 0.0
H2176 H 0.40868 0.86761 0.35372 0.0
H2177 H 0.38846 0.86795 0.37461 0.0
H2178 H 0.42449 0.85751 0.40958 0.0
H2179 H 0.44469 0.85728 0.38874 0.0
C2180 C 0.38437 0.87311 0.43231 0.0
C2181 C 0.36987 0.86503 0.43073 0.0
C2182 C 0.39579 0.8723 0.42031 0.0
C2183 C 0.39285 0.86353 0.40642 0.0
C2184 C 0.37829 0.85555 0.40477 0.0
C2185 C 0.36694 0.8562 0.41687 0.0
C2186 C 0.41224 0.86538 0.36587 0.0
C2187 C 0.42822 0.86242 0.36963 0.0
C2188 C 0.40068 0.86546 0.37779 0.0
C2189 C 0.40495 0.8628 0.39369 0.0
C2190 C 0.42092 0.85973 0.39743 0.0
C2191 C 0.43243 0.85946 0.3855 0.0
H2192 H 0.10386 0.57478 0.63131 0.0
H2193 H 0.15447 0.5673 0.62733 0.0
H2194 H 0.10557 0.5965 0.61228 0.0
H2195 H 0.15617 0.58901 0.60823 0.0
H2196 H 0.14751 0.61311 0.55958 0.0
H2197 H 0.14746 0.59351 0.58081 0.0
H2198 H 0.11624 0.62341 0.60845 0.0
H2199 H 0.11636 0.64313 0.58721 0.0
C2200 C 0.11539 0.57793 0.62656 0.0
C2201 C 0.12902 0.56927 0.63077 0.0
C2202 C 0.11637 0.59039 0.61566 0.0
C2203 C 0.131 0.59443 0.60871 0.0
C2204 C 0.14469 0.58601 0.6132 0.0
C2205 C 0.14371 0.57357 0.62412 0.0
C2206 C 0.14087 0.61566 0.5703 0.0
C2207 C 0.13191 0.62968 0.57168 0.0
C2208 C 0.14083 0.60441 0.58247 0.0
C2209 C 0.13181 0.6069 0.59629 0.0
C2210 C 0.12312 0.62106 0.59784 0.0
C2211 C 0.12318 0.63234 0.58567 0.0
H2212 H 0.35301 0.14158 0.58159 0.0
H2213 H 0.38242 0.11022 0.55361 0.0
H2214 H 0.37327 0.14187 0.6025 0.0
H2215 H 0.40261 0.11051 0.57446 0.0
H2216 H 0.44179 0.13188 0.60639 0.0
H2217 H 0.42109 0.13164 0.58604 0.0
H2218 H 0.38585 0.12172 0.62195 0.0
H2219 H 0.40661 0.12197 0.64235 0.0
C2220 C 0.3638 0.13477 0.57994 0.0
C2221 C 0.36617 0.12586 0.56603 0.0
C2222 C 0.37531 0.13485 0.59191 0.0
C2223 C 0.38948 0.12623 0.59004 0.0
C2224 C 0.39183 0.11734 0.57613 0.0
C2225 C 0.38025 0.11708 0.56428 0.0
C2226 C 0.42961 0.12975 0.60993 0.0
C2227 C 0.42576 0.12696 0.62592 0.0
C2228 C 0.4178 0.12949 0.5983 0.0
C2229 C 0.40191 0.12664 0.60245 0.0
C2230 C 0.39802 0.12403 0.61846 0.0
C2231 C 0.40987 0.12407 0.63009 0.0
H2232 H 0.84551 0.43212 0.61828 0.0
H2233 H 0.89639 0.42772 0.6233 0.0
H2234 H 0.84554 0.41053 0.59902 0.0
H2235 H 0.89634 0.40568 0.60452 0.0
H2236 H 0.89192 0.38008 0.55649 0.0
H2237 H 0.89229 0.40112 0.57635 0.0
H2238 H 0.84957 0.38202 0.59741 0.0
H2239 H 0.84916 0.361 0.57746 0.0
C2240 C 0.8567 0.42654 0.61526 0.0
C2241 C 0.87096 0.43167 0.62228 0.0
C2242 C 0.85669 0.41403 0.60438 0.0
C2243 C 0.87094 0.40636 0.60026 0.0
C2244 C 0.88518 0.41144 0.60733 0.0
C2245 C 0.88519 0.42396 0.61822 0.0
C2246 C 0.88272 0.38026 0.56548 0.0
C2247 C 0.87051 0.36889 0.56541 0.0
C2248 C 0.88293 0.39232 0.57686 0.0
C2249 C 0.87094 0.39326 0.58845 0.0
C2250 C 0.85883 0.38177 0.58849 0.0
C2251 C 0.8586 0.36973 0.57708 0.0
H2252 H 0.583 0.87804 0.63162 0.0
H2253 H 0.56934 0.82901 0.62573 0.0
H2254 H 0.60443 0.87442 0.6124 0.0
H2255 H 0.5908 0.82537 0.60636 0.0
H2256 H 0.61163 0.83881 0.55545 0.0
H2257 H 0.594 0.83746 0.57847 0.0
H2258 H 0.6303 0.85903 0.60757 0.0
H2259 H 0.64798 0.86033 0.5845 0.0
C2260 C 0.58475 0.86645 0.62633 0.0
C2261 C 0.57451 0.85383 0.63003 0.0
C2262 C 0.59707 0.86433 0.61546 0.0
C2263 C 0.59924 0.84962 0.60791 0.0
C2264 C 0.58933 0.83684 0.612 0.0
C2265 C 0.57713 0.83889 0.62309 0.0
C2266 C 0.6159 0.84302 0.56684 0.0
C2267 C 0.63108 0.84978 0.56823 0.0
C2268 C 0.60588 0.84213 0.58002 0.0
C2269 C 0.6108 0.8482 0.59476 0.0
C2270 C 0.62623 0.85434 0.5963 0.0
C2271 C 0.63635 0.85501 0.58316 0.0
H2272 H 0.37389 0.10487 0.42828 0.0
H2273 H 0.36834 0.15542 0.42141 0.0
H2274 H 0.39422 0.10429 0.40786 0.0
H2275 H 0.38948 0.15502 0.4017 0.0
H2276 H 0.41728 0.14623 0.35603 0.0
H2277 H 0.39575 0.14661 0.37544 0.0
H2278 H 0.42093 0.112 0.40381 0.0
H2279 H 0.44213 0.11132 0.38414 0.0
C2280 C 0.37695 0.11587 0.42238 0.0
C2281 C 0.3694 0.13019 0.42648 0.0
C2282 C 0.38882 0.11558 0.41082 0.0
C2283 C 0.39359 0.12962 0.40318 0.0
C2284 C 0.386 0.14394 0.40721 0.0
C2285 C 0.37401 0.14421 0.41869 0.0
C2286 C 0.41817 0.13874 0.36645 0.0
C2287 C 0.43132 0.12871 0.36858 0.0
C2288 C 0.40588 0.13899 0.3776 0.0
C2289 C 0.40658 0.12932 0.39121 0.0
C2290 C 0.41983 0.11936 0.39333 0.0
C2291 C 0.43201 0.119 0.3821 0.0
H2292 H 0.84309 0.36542 0.42046 0.0
H2293 H 0.89409 0.3686 0.42547 0.0
H2294 H 0.84391 0.38541 0.39962 0.0
H2295 H 0.895 0.38783 0.40399 0.0
H2296 H 0.88867 0.43575 0.37951 0.0
H2297 H 0.88819 0.41486 0.39947 0.0
H2298 H 0.85181 0.3903 0.37282 0.0
H2299 H 0.85208 0.41149 0.35304 0.0
C2300 C 0.85449 0.37032 0.41707 0.0
C2301 C 0.86851 0.36544 0.42473 0.0
C2302 C 0.85498 0.38163 0.40496 0.0
C2303 C 0.86952 0.38828 0.40013 0.0
C2304 C 0.88357 0.38314 0.40755 0.0
C2305 C 0.88307 0.37192 0.41974 0.0
C2306 C 0.88069 0.4258 0.37786 0.0
C2307 C 0.87042 0.42523 0.36473 0.0
C2308 C 0.88043 0.41379 0.38927 0.0
C2309 C 0.86999 0.40085 0.38775 0.0
C2310 C 0.85983 0.40021 0.3745 0.0
C2311 C 0.86 0.41231 0.36314 0.0
H2312 H 0.56023 0.84167 0.3725 0.0
H2313 H 0.58169 0.88422 0.35349 0.0
H2314 H 0.58133 0.83977 0.3921 0.0
H2315 H 0.60235 0.8828 0.37371 0.0
H2316 H 0.64458 0.86846 0.40448 0.0
H2317 H 0.62527 0.86814 0.3828 0.0
H2318 H 0.58866 0.85375 0.41578 0.0
H2319 H 0.60795 0.85386 0.43727 0.0
C2320 C 0.56952 0.85055 0.37239 0.0
C2321 C 0.56922 0.86313 0.36143 0.0
C2322 C 0.58152 0.84958 0.38379 0.0
C2323 C 0.59345 0.86122 0.38459 0.0
C2324 C 0.5934 0.87357 0.37336 0.0
C2325 C 0.58144 0.8745 0.3619 0.0
C2326 C 0.6324 0.86523 0.40704 0.0
C2327 C 0.62778 0.86112 0.42254 0.0
C2328 C 0.62134 0.86507 0.39465 0.0
C2329 C 0.60543 0.86087 0.39754 0.0
C2330 C 0.60088 0.85671 0.41305 0.0
C2331 C 0.61193 0.8568 0.42539 0.0
H2332 H 0.14992 0.62943 0.42151 0.0
H2333 H 0.10057 0.61857 0.43049 0.0
H2334 H 0.14997 0.61082 0.39931 0.0
H2335 H 0.10061 0.60005 0.40824 0.0
H2336 H 0.10264 0.57863 0.35857 0.0
H2337 H 0.10288 0.59914 0.37905 0.0
H2338 H 0.1482 0.58188 0.39579 0.0
H2339 H 0.14793 0.56133 0.37544 0.0
C2340 C 0.1391 0.62302 0.41878 0.0
C2341 C 0.12526 0.62542 0.42781 0.0
C2342 C 0.13913 0.6124 0.40606 0.0
C2343 C 0.12531 0.60396 0.40205 0.0
C2344 C 0.11139 0.60655 0.4109 0.0
C2345 C 0.11137 0.61715 0.42365 0.0
C2346 C 0.11264 0.5792 0.36664 0.0
C2347 C 0.12524 0.56832 0.36541 0.0
C2348 C 0.11277 0.59095 0.37836 0.0
C2349 C 0.12553 0.59209 0.38905 0.0
C2350 C 0.1383 0.58144 0.38759 0.0
C2351 C 0.13815 0.56968 0.37591 0.0
H2352 H 0.36606 0.83468 0.5738 0.0
H2353 H 0.36698 0.88605 0.57355 0.0
H2354 H 0.38671 0.83454 0.59416 0.0
H2355 H 0.38699 0.88574 0.59439 0.0
H2356 H 0.41219 0.87716 0.64246 0.0
H2357 H 0.38996 0.87617 0.6239 0.0
H2358 H 0.41638 0.84423 0.59378 0.0
H2359 H 0.43893 0.84573 0.61181 0.0
C2360 C 0.37058 0.84593 0.57807 0.0
C2361 C 0.36484 0.86037 0.57192 0.0
C2362 C 0.38233 0.84581 0.58979 0.0
C2363 C 0.38837 0.86013 0.59581 0.0
C2364 C 0.38235 0.87455 0.59007 0.0
C2365 C 0.37081 0.87468 0.57817 0.0
C2366 C 0.41338 0.87004 0.63182 0.0
C2367 C 0.42747 0.86161 0.62864 0.0
C2368 C 0.40058 0.8694 0.62127 0.0
C2369 C 0.40149 0.8601 0.60748 0.0
C2370 C 0.41533 0.85133 0.60446 0.0
C2371 C 0.42822 0.85216 0.61485 0.0
H2372 H 0.10874 0.44047 0.60922 0.0
H2373 H 0.13811 0.41123 0.63938 0.0
H2374 H 0.10911 0.41998 0.58884 0.0
H2375 H 0.13816 0.39042 0.61916 0.0
H2376 H 0.14809 0.36361 0.57295 0.0
H2377 H 0.14816 0.38402 0.59342 0.0
H2378 H 0.09893 0.39438 0.58319 0.0
H2379 H 0.09916 0.37474 0.56208 0.0
C2380 C 0.11512 0.42955 0.61154 0.0
C2381 C 0.12334 0.4274 0.62589 0.0
C2382 C 0.11531 0.41777 0.59989 0.0
C2383 C 0.12358 0.40348 0.60237 0.0
C2384 C 0.13184 0.40136 0.61675 0.0
C2385 C 0.13178 0.41324 0.62836 0.0
C2386 C 0.13733 0.37037 0.57494 0.0
C2387 C 0.12364 0.36754 0.5658 0.0
C2388 C 0.13731 0.38193 0.58685 0.0
C2389 C 0.12356 0.39089 0.58997 0.0
C2390 C 0.10981 0.38789 0.58097 0.0
C2391 C 0.10987 0.37643 0.569 0.0
H2392 H 0.55598 0.14815 0.617 0.0
H2393 H 0.57742 0.10597 0.6369 0.0
H2394 H 0.57648 0.149 0.59674 0.0
H2395 H 0.59726 0.10618 0.61594 0.0
H2396 H 0.63946 0.11896 0.58491 0.0
H2397 H 0.62004 0.11959 0.6064 0.0
H2398 H 0.58413 0.13554 0.57332 0.0
H2399 H 0.60373 0.13539 0.55203 0.0
C2400 C 0.56509 0.13908 0.61713 0.0
C2401 C 0.56501 0.12699 0.62863 0.0
C2402 C 0.57673 0.13943 0.60532 0.0
C2403 C 0.58848 0.1276 0.60459 0.0
C2404 C 0.58851 0.11559 0.6162 0.0
C2405 C 0.57696 0.11534 0.62811 0.0
C2406 C 0.62739 0.12258 0.58228 0.0
C2407 C 0.62308 0.12715 0.56684 0.0
C2408 C 0.61624 0.1229 0.59456 0.0
C2409 C 0.60048 0.12761 0.59162 0.0
C2410 C 0.59621 0.13215 0.57611 0.0
C2411 C 0.60741 0.13201 0.56388 0.0
H2412 H 0.83674 0.56467 0.62162 0.0
H2413 H 0.87854 0.58774 0.64049 0.0
H2414 H 0.83397 0.58567 0.60202 0.0
H2415 H 0.87629 0.60826 0.62028 0.0
H2416 H 0.86228 0.64929 0.58865 0.0
H2417 H 0.86132 0.63054 0.61075 0.0
H2418 H 0.84756 0.59322 0.57829 0.0
H2419 H 0.84826 0.61199 0.55637 0.0
C2420 C 0.84525 0.5743 0.62172 0.0
C2421 C 0.85793 0.57444 0.6326 0.0
C2422 C 0.84378 0.58625 0.61032 0.0
C2423 C 0.855 0.59857 0.60944 0.0
C2424 C 0.86736 0.59902 0.62067 0.0
C2425 C 0.86877 0.58712 0.63213 0.0
C2426 C 0.85899 0.63708 0.5863 0.0
C2427 C 0.85536 0.6321 0.57079 0.0
C2428 C 0.85847 0.62634 0.59893 0.0
C2429 C 0.85439 0.61036 0.59631 0.0
C2430 C 0.85046 0.60549 0.58082 0.0
C2431 C 0.85089 0.61625 0.56822 0.0
H2432 H 0.37991 0.43646 0.14366 0.0
H2433 H 0.35107 0.40592 0.11411 0.0
H2434 H 0.40046 0.4164 0.1444 0.0
H2435 H 0.3723 0.38633 0.11377 0.0
H2436 H 0.40844 0.34827 0.12718 0.0
H2437 H 0.38646 0.36717 0.1286 0.0
H2438 H 0.42009 0.40599 0.1277 0.0
H2439 H 0.4419 0.38706 0.12693 0.0
C2440 C 0.37786 0.42543 0.13739 0.0
C2441 C 0.36374 0.42288 0.12882 0.0
C2442 C 0.38983 0.414 0.13757 0.0
C2443 C 0.38819 0.39979 0.12897 0.0
C2444 C 0.37396 0.39707 0.12063 0.0
C2445 C 0.36186 0.40844 0.12063 0.0
C2446 C 0.41104 0.36087 0.12729 0.0
C2447 C 0.42682 0.36624 0.12703 0.0
C2448 C 0.39848 0.3717 0.12805 0.0
C2449 C 0.40146 0.38814 0.12834 0.0
C2450 C 0.41731 0.39344 0.12789 0.0
C2451 C 0.42983 0.38262 0.12736 0.0
H2452 H 0.42231 0.62785 0.841 0.0
H2453 H 0.42981 0.61997 0.89117 0.0
H2454 H 0.4018 0.6075 0.84089 0.0
H2455 H 0.40859 0.60048 0.89128 0.0
H2456 H 0.38292 0.55395 0.88293 0.0
H2457 H 0.40338 0.57435 0.88264 0.0
H2458 H 0.37548 0.60177 0.84937 0.0
H2459 H 0.35524 0.581 0.84933 0.0
C2460 C 0.41956 0.62183 0.85202 0.0
C2461 C 0.42779 0.62555 0.86608 0.0
C2462 C 0.40762 0.61031 0.852 0.0
C2463 C 0.40352 0.60231 0.86607 0.0
C2464 C 0.41158 0.60621 0.88017 0.0
C2465 C 0.42362 0.6176 0.88016 0.0
C2466 C 0.38115 0.56439 0.87563 0.0
C2467 C 0.36749 0.56594 0.8662 0.0
C2468 C 0.39284 0.57612 0.87549 0.0
C2469 C 0.39107 0.58978 0.86605 0.0
C2470 C 0.37736 0.59131 0.85661 0.0
C2471 C 0.36573 0.57946 0.85661 0.0
H2472 H 0.40737 0.34984 0.85418 0.0
H2473 H 0.43717 0.38561 0.87563 0.0
H2474 H 0.38546 0.36904 0.85265 0.0
H2475 H 0.41543 0.4048 0.87386 0.0
H2476 H 0.37916 0.43761 0.84875 0.0
H2477 H 0.39997 0.41735 0.84918 0.0
H2478 H 0.36872 0.38571 0.87463 0.0
H2479 H 0.34788 0.40612 0.87441 0.0
C2480 C 0.4092 0.36181 0.85852 0.0
C2481 C 0.42387 0.3663 0.86505 0.0
C2482 C 0.3967 0.37271 0.8577 0.0
C2483 C 0.39886 0.38834 0.86309 0.0
C2484 C 0.41356 0.39283 0.86955 0.0
C2485 C 0.42592 0.38186 0.87065 0.0
C2486 C 0.37669 0.42626 0.85427 0.0
C2487 C 0.36197 0.42337 0.86155 0.0
C2488 C 0.38859 0.41475 0.85459 0.0
C2489 C 0.38589 0.40007 0.86197 0.0
C2490 C 0.37101 0.39696 0.86883 0.0
C2491 C 0.35917 0.4086 0.86876 0.0
H2492 H 0.6109 0.44231 0.88446 0.0
H2493 H 0.64056 0.41264 0.85496 0.0
H2494 H 0.59009 0.42206 0.88394 0.0
H2495 H 0.61972 0.39232 0.85451 0.0
H2496 H 0.5845 0.3541 0.87451 0.0
H2497 H 0.60579 0.37393 0.87509 0.0
H2498 H 0.57215 0.41033 0.86198 0.0
H2499 H 0.55091 0.39052 0.86133 0.0
C2500 C 0.61299 0.43139 0.87798 0.0
C2501 C 0.62731 0.42899 0.86977 0.0
C2502 C 0.60106 0.41989 0.87759 0.0
C2503 C 0.60332 0.40568 0.86916 0.0
C2504 C 0.61774 0.40316 0.86115 0.0
C2505 C 0.62958 0.41478 0.86133 0.0
C2506 C 0.5817 0.36635 0.87177 0.0
C2507 C 0.5661 0.37082 0.86786 0.0
C2508 C 0.59386 0.37764 0.87201 0.0
C2509 C 0.59056 0.39363 0.8686 0.0
C2510 C 0.57496 0.39809 0.86475 0.0
C2511 C 0.56286 0.38677 0.86427 0.0
H2512 H 0.60845 0.55376 0.85506 0.0
H2513 H 0.64439 0.58695 0.87039 0.0
H2514 H 0.58878 0.57495 0.85506 0.0
H2515 H 0.62481 0.60833 0.87002 0.0
H2516 H 0.58165 0.63796 0.88511 0.0
H2517 H 0.60204 0.6175 0.88417 0.0
H2518 H 0.58083 0.59836 0.84152 0.0
H2519 H 0.55989 0.61815 0.84304 0.0
C2520 C 0.61218 0.56566 0.8582 0.0
C2521 C 0.62794 0.56872 0.86271 0.0
C2522 C 0.60092 0.57783 0.85817 0.0
C2523 C 0.6052 0.59339 0.8625 0.0
C2524 C 0.62104 0.59646 0.86685 0.0
C2525 C 0.63227 0.58424 0.86702 0.0
C2526 C 0.58125 0.6293 0.87561 0.0
C2527 C 0.56904 0.62967 0.86422 0.0
C2528 C 0.59309 0.61769 0.87494 0.0
C2529 C 0.59307 0.60622 0.8628 0.0
C2530 C 0.58108 0.60684 0.85118 0.0
C2531 C 0.56919 0.61836 0.85192 0.0
H2532 H 0.64621 0.58703 0.12232 0.0
H2533 H 0.6141 0.55694 0.14876 0.0
H2534 H 0.62667 0.60843 0.12312 0.0
H2535 H 0.59481 0.57844 0.14981 0.0
H2536 H 0.568 0.62446 0.15853 0.0
H2537 H 0.59018 0.60581 0.16054 0.0
H2538 H 0.59995 0.61206 0.11058 0.0
H2539 H 0.57797 0.63085 0.10862 0.0
C2540 C 0.63503 0.58499 0.12836 0.0
C2541 C 0.63169 0.57021 0.13538 0.0
C2542 C 0.62389 0.59727 0.12885 0.0
C2543 C 0.60922 0.59507 0.13648 0.0
C2544 C 0.60611 0.58053 0.14402 0.0
C2545 C 0.61719 0.56822 0.14343 0.0
C2546 C 0.57506 0.62202 0.14805 0.0
C2547 C 0.57122 0.62901 0.1334 0.0
C2548 C 0.58766 0.61127 0.14918 0.0
C2549 C 0.59675 0.60746 0.13571 0.0
C2550 C 0.59324 0.61488 0.12118 0.0
C2551 C 0.58057 0.62549 0.12003 0.0
H2552 H 0.38824 0.54871 0.13044 0.0
H2553 H 0.35026 0.58271 0.13644 0.0
H2554 H 0.40765 0.56992 0.13258 0.0
H2555 H 0.36979 0.60392 0.13939 0.0
H2556 H 0.40871 0.6388 0.12237 0.0
H2557 H 0.38833 0.6183 0.12297 0.0
H2558 H 0.41938 0.58832 0.15072 0.0
H2559 H 0.44005 0.60842 0.14936 0.0
C2560 C 0.38403 0.56072 0.13229 0.0
C2561 C 0.36769 0.56403 0.1331 0.0
C2562 C 0.39518 0.57287 0.13375 0.0
C2563 C 0.39029 0.58865 0.13617 0.0
C2564 C 0.37395 0.59193 0.13736 0.0
C2565 C 0.36277 0.57974 0.13584 0.0
C2566 C 0.41121 0.62781 0.12855 0.0
C2567 C 0.42609 0.62522 0.13569 0.0
C2568 C 0.39944 0.61613 0.12907 0.0
C2569 C 0.40225 0.60161 0.13681 0.0
C2570 C 0.41691 0.59926 0.14444 0.0
C2571 C 0.4287 0.61089 0.14384 0.0
H2572 H 0.60468 0.44083 0.13094 0.0
H2573 H 0.64369 0.40752 0.13177 0.0
H2574 H 0.58587 0.41891 0.13222 0.0
H2575 H 0.62482 0.38553 0.1335 0.0
H2576 H 0.58498 0.35193 0.11481 0.0
H2577 H 0.605 0.37286 0.11595 0.0
H2578 H 0.57654 0.39819 0.15031 0.0
H2579 H 0.5563 0.37759 0.14877 0.0
C2580 C 0.60923 0.42881 0.13144 0.0
C2581 C 0.62565 0.42589 0.13115 0.0
C2582 C 0.59846 0.41626 0.13236 0.0
C2583 C 0.60387 0.40049 0.13298 0.0
C2584 C 0.6203 0.39755 0.13291 0.0
C2585 C 0.63109 0.41014 0.13206 0.0
C2586 C 0.58301 0.36197 0.12261 0.0
C2587 C 0.56901 0.36314 0.13163 0.0
C2588 C 0.59455 0.37387 0.12339 0.0
C2589 C 0.5923 0.38721 0.13316 0.0
C2590 C 0.57852 0.38814 0.14252 0.0
C2591 C 0.56701 0.37625 0.14177 0.0
H2592 H 0.03637 0.26767 0.52045 0.0
H2593 H 0.03404 0.28251 0.47145 0.0
H2594 H 0.00777 0.26283 0.52036 0.0
H2595 H 0.0055 0.27825 0.47142 0.0
H2596 H 0.9545 0.26555 0.4724 0.0
H2597 H 0.98319 0.26122 0.47268 0.0
H2598 H 0.98528 0.2796 0.52061 0.0
H2599 H 0.95671 0.28339 0.52041 0.0
C2600 C 0.02973 0.26976 0.50964 0.0
C2601 C 0.03735 0.27558 0.496 0.0
C2602 C 0.01336 0.26705 0.50958 0.0
C2603 C 0.00426 0.27032 0.49594 0.0
C2604 C 0.0121 0.27536 0.48207 0.0
C2605 C 0.02847 0.27788 0.48209 0.0
C2606 C 0.96113 0.2684 0.48305 0.0
C2607 C 0.95343 0.2749 0.49634 0.0
C2608 C 0.97755 0.26598 0.48321 0.0
C2609 C 0.98661 0.27021 0.4966 0.0
C2610 C 0.97872 0.27595 0.51017 0.0
C2611 C 0.96231 0.2782 0.51006 0.0
H2612 H 0.70608 0.03264 0.53129 0.0
H2613 H 0.72408 0.03675 0.48338 0.0
H2614 H 0.70831 0.004 0.52964 0.0
H2615 H 0.72757 0.00817 0.48222 0.0
H2616 H 0.70539 0.95841 0.47679 0.0
H2617 H 0.71014 0.98678 0.47901 0.0
H2618 H 0.72336 0.9807 0.5283 0.0
H2619 H 0.71784 0.95231 0.52611 0.0
C2620 C 0.71077 0.02746 0.52049 0.0
C2621 C 0.71454 0.03704 0.50734 0.0
C2622 C 0.71231 0.01099 0.51963 0.0
C2623 C 0.71791 0.00368 0.50569 0.0
C2624 C 0.72284 0.01335 0.493 0.0
C2625 C 0.72107 0.02981 0.49377 0.0
C2626 C 0.70957 0.96314 0.48801 0.0
C2627 C 0.71112 0.95326 0.50132 0.0
C2628 C 0.7124 0.9794 0.48929 0.0
C2629 C 0.71707 0.98612 0.50388 0.0
C2630 C 0.71945 0.97602 0.51697 0.0
C2631 C 0.71637 0.95977 0.51574 0.0
H2632 H 0.95555 0.73072 0.49338 0.0
H2633 H 0.96227 0.68825 0.52143 0.0
H2634 H 0.98421 0.73533 0.49365 0.0
H2635 H 0.99068 0.69311 0.522 0.0
H2636 H 0.04029 0.70959 0.52865 0.0
H2637 H 0.01156 0.71188 0.5316 0.0
H2638 H 0.00706 0.72048 0.48123 0.0
H2639 H 0.03586 0.71853 0.47833 0.0
C2640 C 0.96309 0.72244 0.49969 0.0
C2641 C 0.9566 0.70905 0.50729 0.0
C2642 C 0.97947 0.72514 0.4999 0.0
C2643 C 0.98964 0.7146 0.50786 0.0
C2644 C 0.9831 0.7016 0.51599 0.0
C2645 C 0.96679 0.69882 0.51567 0.0
C2646 C 0.03321 0.71242 0.51828 0.0
C2647 C 0.04028 0.71373 0.50322 0.0
C2648 C 0.01677 0.71359 0.51996 0.0
C2649 C 0.0071 0.71618 0.50662 0.0
C2650 C 0.01424 0.71855 0.49173 0.0
C2651 C 0.03069 0.71729 0.49004 0.0
H2652 H 0.2617 0.03848 0.49926 0.0
H2653 H 0.31048 0.03393 0.48389 0.0
H2654 H 0.26042 0.0097 0.50337 0.0
H2655 H 0.309 0.00539 0.48747 0.0
H2656 H 0.30885 0.95968 0.51428 0.0
H2657 H 0.30735 0.98828 0.5112 0.0
H2658 H 0.26168 0.98362 0.48832 0.0
H2659 H 0.26289 0.95479 0.49191 0.0
C2660 C 0.27206 0.03134 0.49662 0.0
C2661 C 0.28619 0.03848 0.49127 0.0
C2662 C 0.2713 0.01489 0.49887 0.0
C2663 C 0.28468 0.00537 0.49593 0.0
C2664 C 0.29859 0.01248 0.4901 0.0
C2665 C 0.29935 0.02882 0.48782 0.0
C2666 C 0.29829 0.96472 0.50894 0.0
C2667 C 0.286 0.95494 0.50332 0.0
C2668 C 0.29754 0.98111 0.50697 0.0
C2669 C 0.28452 0.98813 0.49929 0.0
C2670 C 0.27186 0.97849 0.49427 0.0
C2671 C 0.27262 0.96202 0.49622 0.0
H2672 H 0.50159 0.95607 0.2609 0.0
H2673 H 0.47616 0.96374 0.30488 0.0
H2674 H 0.50252 0.98477 0.25658 0.0
H2675 H 0.47666 0.99214 0.30024 0.0
H2676 H 0.47019 0.04168 0.28353 0.0
H2677 H 0.46654 0.01306 0.28143 0.0
H2678 H 0.5165 0.00736 0.27132 0.0
H2679 H 0.52013 0.03611 0.27312 0.0
C2680 C 0.49611 0.96382 0.26958 0.0
C2681 C 0.48883 0.95756 0.28327 0.0
C2682 C 0.49659 0.98022 0.26705 0.0
C2683 C 0.4896 0.99063 0.27803 0.0
C2684 C 0.48189 0.98437 0.29142 0.0
C2685 C 0.48158 0.96805 0.29405 0.0
C2686 C 0.48032 0.03439 0.28042 0.0
C2687 C 0.49548 0.04111 0.27862 0.0
C2688 C 0.47824 0.018 0.27934 0.0
C2689 C 0.49126 0.00803 0.27638 0.0
C2690 C 0.50624 0.0148 0.27355 0.0
C2691 C 0.50835 0.03121 0.27473 0.0
H2692 H 0.96101 0.52293 0.27935 0.0
H2693 H 0.9556 0.47263 0.27071 0.0
H2694 H 0.98942 0.52057 0.27524 0.0
H2695 H 0.98389 0.47048 0.26542 0.0
H2696 H 0.03527 0.46959 0.28555 0.0
H2697 H 0.00667 0.47049 0.28164 0.0
H2698 H 0.01131 0.5161 0.25848 0.0
H2699 H 0.03994 0.51536 0.26307 0.0
C2700 C 0.96584 0.5114 0.27632 0.0
C2701 C 0.95602 0.49793 0.27569 0.0
C2702 C 0.98215 0.51008 0.27368 0.0
C2703 C 0.98903 0.49528 0.27013 0.0
C2704 C 0.97905 0.48201 0.26843 0.0
C2705 C 0.96276 0.48329 0.27126 0.0
C2706 C 0.03019 0.4796 0.27928 0.0
C2707 C 0.03972 0.49248 0.27477 0.0
C2708 C 0.01378 0.48013 0.27697 0.0
C2709 C 0.0066 0.49349 0.26992 0.0
C2710 C 0.01638 0.50581 0.2643 0.0
C2711 C 0.03276 0.50537 0.26683 0.0
H2712 H 0.5161 0.96237 0.68733 0.0
H2713 H 0.49239 0.95295 0.73195 0.0
H2714 H 0.51489 0.99061 0.69268 0.0
H2715 H 0.49056 0.98153 0.73685 0.0
H2716 H 0.47208 0.03353 0.72115 0.0
H2717 H 0.47568 0.00468 0.72207 0.0
H2718 H 0.52578 0.01063 0.71301 0.0
H2719 H 0.52223 0.03932 0.7119 0.0
C2720 C 0.51088 0.96624 0.69843 0.0
C2721 C 0.50443 0.95527 0.70924 0.0
C2722 C 0.51013 0.98247 0.70144 0.0
C2723 C 0.50271 0.9882 0.7152 0.0
C2724 C 0.49631 0.97736 0.72612 0.0
C2725 C 0.49728 0.96103 0.72323 0.0
C2726 C 0.48389 0.02865 0.71962 0.0
C2727 C 0.49685 0.03865 0.71634 0.0
C2728 C 0.48596 0.0122 0.72027 0.0
C2729 C 0.50098 0.0055 0.71748 0.0
C2730 C 0.51406 0.01554 0.71509 0.0
C2731 C 0.51203 0.03195 0.71458 0.0
H2732 H 0.95746 0.52438 0.71238 0.0
H2733 H 0.95372 0.47636 0.72999 0.0
H2734 H 0.98588 0.52403 0.71734 0.0
H2735 H 0.98229 0.47601 0.73499 0.0
H2736 H 0.03256 0.47459 0.71117 0.0
H2737 H 0.00418 0.47508 0.71597 0.0
H2738 H 0.0082 0.52216 0.73595 0.0
H2739 H 0.03684 0.52164 0.73122 0.0
C2740 C 0.96263 0.51391 0.71776 0.0
C2741 C 0.95339 0.50031 0.72058 0.0
C2742 C 0.97895 0.51372 0.72064 0.0
C2743 C 0.98636 0.49992 0.72639 0.0
C2744 C 0.97694 0.48671 0.73028 0.0
C2745 C 0.96061 0.48691 0.7274 0.0
C2746 C 0.02752 0.48487 0.71703 0.0
C2747 C 0.03696 0.49814 0.72067 0.0
C2748 C 0.01121 0.48514 0.7198 0.0
C2749 C 0.00393 0.4987 0.72626 0.0
C2750 C 0.01347 0.51163 0.73075 0.0
C2751 C 0.02984 0.51135 0.728 0.0
H2752 H 0.28921 0.52033 0.95703 0.0
H2753 H 0.26235 0.47673 0.95439 0.0
H2754 H 0.28589 0.52077 0.98562 0.0
H2755 H 0.25882 0.47723 0.98321 0.0
H2756 H 0.27941 0.47284 0.03465 0.0
H2757 H 0.27567 0.47309 0.00597 0.0
H2758 H 0.26801 0.52382 0.00747 0.0
H2759 H 0.27216 0.52355 0.03616 0.0
C2760 C 0.28223 0.51104 0.96252 0.0
C2761 C 0.27605 0.49849 0.95344 0.0
C2762 C 0.28029 0.5113 0.97896 0.0
C2763 C 0.27207 0.49904 0.98674 0.0
C2764 C 0.26539 0.48675 0.9776 0.0
C2765 C 0.2674 0.48646 0.96111 0.0
C2766 C 0.27656 0.48398 0.02888 0.0
C2767 C 0.27626 0.49821 0.03756 0.0
C2768 C 0.27438 0.48413 0.01243 0.0
C2769 C 0.27174 0.49852 0.00438 0.0
C2770 C 0.27038 0.5126 0.01326 0.0
C2771 C 0.2727 0.51245 0.02968 0.0
H2772 H 0.47329 0.28363 0.95583 0.0
H2773 H 0.5224 0.26903 0.95379 0.0
H2774 H 0.47319 0.27963 0.9844 0.0
H2775 H 0.52226 0.26457 0.98245 0.0
H2776 H 0.5219 0.28618 0.03312 0.0
H2777 H 0.52214 0.28212 0.00459 0.0
H2778 H 0.47472 0.26256 0.00692 0.0
H2779 H 0.4744 0.26701 0.0356 0.0
C2780 C 0.48393 0.2791 0.96146 0.0
C2781 C 0.4979 0.27679 0.95265 0.0
C2782 C 0.48388 0.27675 0.97786 0.0
C2783 C 0.49778 0.27193 0.98578 0.0
C2784 C 0.51146 0.26862 0.97677 0.0
C2785 C 0.51154 0.27112 0.96038 0.0
C2786 C 0.51167 0.28068 0.0276 0.0
C2787 C 0.49809 0.27703 0.03655 0.0
C2788 C 0.51181 0.27829 0.01121 0.0
C2789 C 0.49841 0.27209 0.00341 0.0
C2790 C 0.48513 0.26763 0.01252 0.0
C2791 C 0.48495 0.27014 0.02892 0.0
H2792 H 0.71877 0.47634 0.95439 0.0
H2793 H 0.71622 0.52745 0.95832 0.0
H2794 H 0.72171 0.47428 0.98303 0.0
H2795 H 0.71843 0.5253 0.98713 0.0
H2796 H 0.73039 0.51656 0.03896 0.0
H2797 H 0.73466 0.51769 0.01025 0.0
H2798 H 0.70229 0.47839 0.00399 0.0
H2799 H 0.69795 0.47733 0.03243 0.0
C2800 C 0.71915 0.48717 0.96131 0.0
C2801 C 0.71709 0.50207 0.95407 0.0
C2802 C 0.72065 0.48596 0.97777 0.0
C2803 C 0.72005 0.4996 0.98736 0.0
C2804 C 0.71898 0.51456 0.98006 0.0
C2805 C 0.71752 0.51579 0.96357 0.0
C2806 C 0.72426 0.50813 0.03143 0.0
C2807 C 0.71383 0.49685 0.03799 0.0
C2808 C 0.72673 0.50876 0.01501 0.0
C2809 C 0.71886 0.4981 0.00486 0.0
C2810 C 0.7088 0.48657 0.01149 0.0
C2811 C 0.70631 0.48596 0.02784 0.0
H2812 H 0.51977 0.71708 0.95615 0.0
H2813 H 0.46864 0.71355 0.95919 0.0
H2814 H 0.52126 0.72024 0.98482 0.0
H2815 H 0.47022 0.7159 0.98798 0.0
H2816 H 0.47716 0.7275 0.03985 0.0
H2817 H 0.47676 0.73202 0.01116 0.0
H2818 H 0.51742 0.70115 0.00587 0.0
H2819 H 0.51781 0.69667 0.0343 0.0
C2820 C 0.50881 0.71728 0.96288 0.0
C2821 C 0.49409 0.71487 0.95539 0.0
C2822 C 0.50969 0.7189 0.97935 0.0
C2823 C 0.49589 0.71806 0.9887 0.0
C2824 C 0.48108 0.71665 0.98113 0.0
C2825 C 0.48019 0.71509 0.96464 0.0
C2826 C 0.48606 0.72178 0.03253 0.0
C2827 C 0.4975 0.7117 0.03934 0.0
C2828 C 0.48584 0.72438 0.01613 0.0
C2829 C 0.49706 0.71695 0.00624 0.0
C2830 C 0.5088 0.70731 0.01315 0.0
C2831 C 0.50901 0.70472 0.02949 0.0
H2832 H 0.1806 0.23767 0.47313 0.0
H2833 H 0.19253 0.25172 0.52099 0.0
H2834 H 0.20126 0.21725 0.47397 0.0
H2835 H 0.21323 0.23131 0.52182 0.0
H2836 H 0.2604 0.20583 0.50663 0.0
H2837 H 0.23969 0.22609 0.50681 0.0
H2838 H 0.20561 0.19156 0.49029 0.0
H2839 H 0.22608 0.1711 0.49066 0.0
C2840 C 0.18771 0.2364 0.48378 0.0
C2841 C 0.18502 0.24619 0.497 0.0
C2842 C 0.19941 0.22469 0.48431 0.0
C2843 C 0.20876 0.22274 0.49798 0.0
C2844 C 0.2062 0.23265 0.51113 0.0
C2845 C 0.19434 0.24422 0.51069 0.0
C2846 C 0.24845 0.20246 0.5033 0.0
C2847 C 0.24493 0.18683 0.49858 0.0
C2848 C 0.23663 0.21409 0.50334 0.0
C2849 C 0.22114 0.21035 0.49848 0.0
C2850 C 0.21755 0.19475 0.49388 0.0
C2851 C 0.2293 0.18308 0.49404 0.0
H2852 H 0.74092 0.19524 0.52532 0.0
H2853 H 0.75485 0.182 0.47776 0.0
H2854 H 0.76108 0.21622 0.52537 0.0
H2855 H 0.77499 0.20293 0.47783 0.0
H2856 H 0.82114 0.22815 0.49339 0.0
H2857 H 0.80066 0.20774 0.4938 0.0
H2858 H 0.7663 0.2423 0.50967 0.0
H2859 H 0.78663 0.26297 0.50874 0.0
C2860 C 0.74833 0.19683 0.51492 0.0
C2861 C 0.7464 0.18706 0.50154 0.0
C2862 C 0.75974 0.20886 0.51491 0.0
C2863 C 0.76956 0.21111 0.50162 0.0
C2864 C 0.76762 0.20133 0.48826 0.0
C2865 C 0.75607 0.18947 0.48818 0.0
C2866 C 0.80919 0.23149 0.49677 0.0
C2867 C 0.80551 0.24725 0.5009 0.0
C2868 C 0.7975 0.21977 0.49707 0.0
C2869 C 0.78195 0.22351 0.5017 0.0
C2870 C 0.77827 0.23914 0.50617 0.0
C2871 C 0.78993 0.25093 0.50569 0.0
H2872 H 0.81843 0.76167 0.51278 0.0
H2873 H 0.80503 0.74853 0.46497 0.0
H2874 H 0.79841 0.78235 0.51274 0.0
H2875 H 0.78416 0.76852 0.46539 0.0
H2876 H 0.75662 0.81512 0.46632 0.0
H2877 H 0.7787 0.79631 0.46522 0.0
H2878 H 0.77045 0.78409 0.51443 0.0
H2879 H 0.74883 0.80323 0.51556 0.0
C2880 C 0.8113 0.76325 0.50219 0.0
C2881 C 0.81336 0.75339 0.48887 0.0
C2882 C 0.79962 0.77496 0.50228 0.0
C2883 C 0.78953 0.77699 0.48914 0.0
C2884 C 0.79179 0.76737 0.47568 0.0
C2885 C 0.80362 0.75574 0.47552 0.0
C2886 C 0.7596 0.80837 0.47686 0.0
C2887 C 0.75112 0.81062 0.49104 0.0
C2888 C 0.77218 0.79758 0.47624 0.0
C2889 C 0.77639 0.78872 0.48975 0.0
C2890 C 0.76778 0.79096 0.5039 0.0
C2891 C 0.75535 0.80186 0.50455 0.0
H2892 H 0.19476 0.74059 0.4677 0.0
H2893 H 0.18393 0.75466 0.51581 0.0
H2894 H 0.21476 0.76172 0.46604 0.0
H2895 H 0.20372 0.77586 0.51408 0.0
H2896 H 0.22633 0.82256 0.49645 0.0
H2897 H 0.20631 0.80165 0.49627 0.0
H2898 H 0.24175 0.76765 0.48166 0.0
H2899 H 0.26204 0.78833 0.4825 0.0
C2900 C 0.19666 0.74825 0.47786 0.0
C2901 C 0.18791 0.74607 0.49189 0.0
C2902 C 0.20808 0.76023 0.47693 0.0
C2903 C 0.21064 0.77037 0.48991 0.0
C2904 C 0.20182 0.76824 0.50389 0.0
C2905 C 0.19063 0.75609 0.50492 0.0
C2906 C 0.22992 0.81062 0.49332 0.0
C2907 C 0.24585 0.8071 0.48967 0.0
C2908 C 0.21844 0.7987 0.49314 0.0
C2909 C 0.22258 0.78312 0.48903 0.0
C2910 C 0.23831 0.77965 0.48476 0.0
C2911 C 0.24987 0.79152 0.48518 0.0
H2912 H 0.50597 0.17227 0.22775 0.0
H2913 H 0.48761 0.20673 0.26116 0.0
H2914 H 0.50524 0.19224 0.20683 0.0
H2915 H 0.48632 0.22645 0.23997 0.0
H2916 H 0.47067 0.24971 0.19196 0.0
H2917 H 0.47097 0.22966 0.21306 0.0
H2918 H 0.51999 0.21909 0.20225 0.0
H2919 H 0.51971 0.23918 0.18127 0.0
C2920 C 0.50186 0.1841 0.23067 0.0
C2921 C 0.49694 0.18791 0.24618 0.0
C2922 C 0.50138 0.19548 0.21867 0.0
C2923 C 0.49574 0.21082 0.22186 0.0
C2924 C 0.49057 0.21462 0.23723 0.0
C2925 C 0.49126 0.20331 0.24931 0.0
C2926 C 0.48146 0.24304 0.19411 0.0
C2927 C 0.49517 0.24592 0.18508 0.0
C2928 C 0.48166 0.23169 0.20619 0.0
C2929 C 0.4955 0.22289 0.20919 0.0
C2930 C 0.50916 0.22568 0.20006 0.0
C2931 C 0.50903 0.2372 0.18817 0.0
H2932 H 0.80718 0.46835 0.24483 0.0
H2933 H 0.80411 0.51955 0.24564 0.0
H2934 H 0.78604 0.46741 0.225 0.0
H2935 H 0.78339 0.51864 0.22546 0.0
H2936 H 0.73527 0.51002 0.20225 0.0
H2937 H 0.75567 0.51024 0.22277 0.0
H2938 H 0.78203 0.47456 0.19696 0.0
H2939 H 0.7616 0.47435 0.1764 0.0
C2940 C 0.80195 0.47939 0.2408 0.0
C2941 C 0.80728 0.49402 0.24677 0.0
C2942 C 0.78998 0.47886 0.22934 0.0
C2943 C 0.78308 0.49295 0.22368 0.0
C2944 C 0.78837 0.50757 0.22971 0.0
C2945 C 0.80035 0.5081 0.24113 0.0
C2946 C 0.74547 0.50231 0.20091 0.0
C2947 C 0.74688 0.49222 0.18769 0.0
C2948 C 0.75714 0.50242 0.21266 0.0
C2949 C 0.77047 0.49246 0.21143 0.0
C2950 C 0.77179 0.48223 0.19831 0.0
C2951 C 0.7601 0.48211 0.18655 0.0
H2952 H 0.47771 0.73952 0.19897 0.0
H2953 H 0.51723 0.7614 0.17465 0.0
H2954 H 0.47758 0.76112 0.21823 0.0
H2955 H 0.51709 0.78305 0.19392 0.0
H2956 H 0.52284 0.80844 0.24203 0.0
H2957 H 0.52292 0.78738 0.22213 0.0
H2958 H 0.47169 0.7895 0.21972 0.0
H2959 H 0.47158 0.81012 0.24002 0.0
C2960 C 0.48626 0.74903 0.19766 0.0
C2961 C 0.49748 0.74878 0.18531 0.0
C2962 C 0.48618 0.7614 0.20867 0.0
C2963 C 0.49731 0.77378 0.20756 0.0
C2964 C 0.50851 0.77355 0.19519 0.0
C2965 C 0.50859 0.76117 0.18418 0.0
C2966 C 0.51161 0.80433 0.2373 0.0
C2967 C 0.49721 0.81088 0.24261 0.0
C2968 C 0.51166 0.79241 0.22579 0.0
C2969 C 0.49731 0.78678 0.21939 0.0
C2970 C 0.48293 0.79347 0.22457 0.0
C2971 C 0.48288 0.8054 0.23606 0.0
H2972 H 0.17075 0.49098 0.227 0.0
H2973 H 0.2061 0.50443 0.26163 0.0
H2974 H 0.19118 0.4906 0.20629 0.0
H2975 H 0.22651 0.50418 0.24088 0.0
H2976 H 0.2517 0.52044 0.19395 0.0
H2977 H 0.23138 0.52077 0.21478 0.0
H2978 H 0.21688 0.47347 0.20133 0.0
H2979 H 0.23732 0.47308 0.18062 0.0
C2980 C 0.18288 0.49392 0.23012 0.0
C2981 C 0.18692 0.49774 0.24584 0.0
C2982 C 0.19453 0.4936 0.21834 0.0
C2983 C 0.21034 0.49737 0.22206 0.0
C2984 C 0.21436 0.50132 0.23775 0.0
C2985 C 0.20275 0.50137 0.24959 0.0
C2986 C 0.24413 0.51016 0.19547 0.0
C2987 C 0.24601 0.49674 0.18576 0.0
C2988 C 0.23262 0.51031 0.20739 0.0
C2989 C 0.22263 0.49715 0.20958 0.0
C2990 C 0.22441 0.48378 0.19978 0.0
C2991 C 0.23612 0.48352 0.18805 0.0
H2992 H 0.48984 0.76779 0.82302 0.0
H2993 H 0.50609 0.73325 0.78862 0.0
H2994 H 0.48981 0.78816 0.80245 0.0
H2995 H 0.5066 0.75384 0.76828 0.0
H2996 H 0.52257 0.80031 0.74306 0.0
H2997 H 0.52236 0.77987 0.7637 0.0
H2998 H 0.47436 0.79295 0.77617 0.0
H2999 H 0.47455 0.81338 0.75547 0.0
C3000 C 0.49332 0.7645 0.81109 0.0
C3001 C 0.49794 0.74885 0.80749 0.0
C3002 C 0.49335 0.77618 0.79935 0.0
C3003 C 0.49821 0.77251 0.78385 0.0
C3004 C 0.50297 0.75696 0.78022 0.0
C3005 C 0.50274 0.74522 0.7919 0.0
C3006 C 0.51202 0.79883 0.75027 0.0
C3007 C 0.49858 0.80836 0.74775 0.0
C3008 C 0.51186 0.7871 0.76197 0.0
C3009 C 0.49834 0.78489 0.77146 0.0
C3010 C 0.48495 0.79452 0.76904 0.0
C3011 C 0.48502 0.80609 0.75718 0.0
H3012 H 0.26176 0.50709 0.78627 0.0
H3013 H 0.23044 0.48105 0.81745 0.0
H3014 H 0.24205 0.50543 0.76508 0.0
H3015 H 0.21056 0.47973 0.79636 0.0
H3016 H 0.18482 0.46811 0.7498 0.0
H3017 H 0.20627 0.46759 0.76945 0.0
H3018 H 0.21537 0.5173 0.76073 0.0
H3019 H 0.19417 0.51774 0.74101 0.0
C3020 C 0.2507 0.50094 0.78855 0.0
C3021 C 0.24759 0.49426 0.80352 0.0
C3022 C 0.23939 0.50009 0.77648 0.0
C3023 C 0.22478 0.49248 0.77911 0.0
C3024 C 0.22178 0.48554 0.79397 0.0
C3025 C 0.23306 0.48647 0.80609 0.0
C3026 C 0.19157 0.47884 0.75198 0.0
C3027 C 0.18784 0.49298 0.74399 0.0
C3028 C 0.20372 0.47858 0.76328 0.0
C3029 C 0.21243 0.49242 0.76662 0.0
C3030 C 0.20894 0.50643 0.7583 0.0
C3031 C 0.19673 0.50672 0.74714 0.0
H3032 H 0.5032 0.20688 0.73032 0.0
H3033 H 0.48712 0.17419 0.76653 0.0
H3034 H 0.50351 0.22825 0.74988 0.0
H3035 H 0.48687 0.19575 0.78582 0.0
H3036 H 0.4716 0.24294 0.8095 0.0
H3037 H 0.47124 0.22203 0.78931 0.0
H3038 H 0.5192 0.23419 0.77582 0.0
H3039 H 0.51957 0.25509 0.79604 0.0
C3040 C 0.49982 0.2042 0.74243 0.0
C3041 C 0.49514 0.18879 0.74684 0.0
C3042 C 0.49993 0.21647 0.75358 0.0
C3043 C 0.49515 0.2136 0.76928 0.0
C3044 C 0.4904 0.19827 0.77371 0.0
C3045 C 0.49049 0.18596 0.76264 0.0
C3046 C 0.48199 0.24119 0.80212 0.0
C3047 C 0.49562 0.25055 0.80428 0.0
C3048 C 0.48183 0.2292 0.79069 0.0
C3049 C 0.4952 0.22654 0.78109 0.0
C3050 C 0.50872 0.2361 0.78304 0.0
C3051 C 0.50897 0.24794 0.79463 0.0
H3052 H 0.76666 0.50253 0.81837 0.0
H3053 H 0.73057 0.4842 0.78671 0.0
H3054 H 0.78568 0.50257 0.79657 0.0
H3055 H 0.74992 0.48367 0.76511 0.0
H3056 H 0.79689 0.46914 0.73807 0.0
H3057 H 0.77678 0.46899 0.75913 0.0
H3058 H 0.7876 0.51795 0.76979 0.0
H3059 H 0.8076 0.51814 0.7487 0.0
C3060 C 0.76274 0.49858 0.80678 0.0
C3061 C 0.74703 0.49347 0.80429 0.0
C3062 C 0.77367 0.49855 0.79434 0.0
C3063 C 0.76919 0.4932 0.77921 0.0
C3064 C 0.75364 0.48775 0.77673 0.0
C3065 C 0.74262 0.48799 0.78913 0.0
C3066 C 0.79487 0.47986 0.74489 0.0
C3067 C 0.80372 0.49365 0.74183 0.0
C3068 C 0.78336 0.47979 0.75684 0.0
C3069 C 0.78075 0.49344 0.76605 0.0
C3070 C 0.78951 0.50726 0.76288 0.0
C3071 C 0.80082 0.50741 0.75079 0.0
loop_
_geom_bond_atom_site_label_1
_geom_bond_atom_site_label_2
_geom_bond_distance
_geom_bond_site_symmetry_2
_ccdc_geom_bond_type
Li0 N17 1.990 . S
Li0 O60 1.956 . S
Li0 O61 1.970 . S
Li0 O62 1.961 . S
Li1 N25 1.990 . S
Li1 O60 1.970 . S
Li1 O61 1.956 . S
Li1 O63 1.961 . S
Li2 N47 1.990 . S
Li2 O60 1.961 . S
Li2 O62 1.956 . S
Li2 O63 1.970 . S
Li3 N53 1.990 . S
Li3 O61 1.961 . S
Li3 O62 1.970 . S
Li3 O63 1.956 . S
C4 C6 1.348 . S
C4 C7 1.356 . S
C4 O60 1.325 . S
N5 C8 1.314 . S
N5 C9 1.279 . S
C6 C4 1.348 . S
C6 C8 1.353 . S
C6 H64 0.929 . S
C7 C4 1.356 . S
C7 C9 1.358 . S
C7 H65 0.930 . S
C8 N5 1.314 . S
C8 C6 1.353 . S
C8 H66 0.930 . S
C9 N5 1.279 . S
C9 C7 1.358 . S
C9 H67 0.930 . S
C10 C13 1.348 . S
C10 C14 1.356 . S
C10 O61 1.325 . S
C11 N12 1.279 . S
C11 C14 1.358 . S
C11 H68 0.930 . S
N12 C11 1.279 . S
N12 C15 1.314 . S
C13 C10 1.348 . S
C13 C15 1.353 . S
C13 H69 0.929 . S
C14 C10 1.356 . S
C14 C11 1.358 . S
C14 H70 0.930 . S
C15 N12 1.314 . S
C15 C13 1.353 . S
C15 H71 0.930 . S
C16 N17 1.314 . S
C16 C21 1.353 . S
C16 H22 0.930 . S
N17 Li0 1.990 . S
N17 C16 1.314 . S
N17 C19 1.279 . S
C18 C19 1.358 . S
C18 C20 1.356 . S
C18 H72 0.930 . S
C19 N17 1.279 . S
C19 C18 1.358 . S
C19 H23 0.930 . S
C20 C18 1.356 . S
C20 C21 1.348 . S
C21 C16 1.353 . S
C21 C20 1.348 . S
C21 H73 0.929 . S
H22 C16 0.930 . S
H23 C19 0.930 . S
C24 N25 1.314 . S
C24 C26 1.353 . S
C24 H30 0.930 . S
N25 Li1 1.990 . S
N25 C24 1.314 . S
N25 C28 1.279 . S
C26 C24 1.353 . S
C26 C29 1.348 . S
C26 H74 0.929 . S
C27 C28 1.358 . S
C27 C29 1.356 . S
C27 H75 0.930 . S
C28 N25 1.279 . S
C28 C27 1.358 . S
C28 H31 0.930 . S
C29 C26 1.348 . S
C29 C27 1.356 . S
H30 C24 0.930 . S
H31 C28 0.930 . S
C32 C34 1.348 . S
C32 C35 1.356 . S
C32 O62 1.325 . S
N33 C36 1.314 . S
N33 C37 1.279 . S
C34 C32 1.348 . S
C34 C36 1.353 . S
C34 H76 0.929 . S
C35 C32 1.356 . S
C35 C37 1.358 . S
C35 H77 0.930 . S
C36 N33 1.314 . S
C36 C34 1.353 . S
C36 H78 0.930 . S
C37 N33 1.279 . S
C37 C35 1.358 . S
C37 H79 0.930 . S
C38 C39 1.348 . S
C38 C40 1.356 . S
C38 O63 1.325 . S
C39 C38 1.348 . S
C39 C41 1.353 . S
C39 H80 0.929 . S
C40 C38 1.356 . S
C40 C42 1.358 . S
C40 H81 0.930 . S
C41 C39 1.353 . S
C41 N43 1.314 . S
C41 H82 0.930 . S
C42 C40 1.358 . S
C42 N43 1.279 . S
C42 H83 0.930 . S
N43 C41 1.314 . S
N43 C42 1.279 . S
C44 C46 1.353 . S
C44 N47 1.314 . S
C44 H50 0.930 . S
C45 N47 1.279 . S
C45 C48 1.358 . S
C45 H51 0.930 . S
C46 C44 1.353 . S
C46 C49 1.348 . S
C46 H84 0.929 . S
N47 Li2 1.990 . S
N47 C44 1.314 . S
N47 C45 1.279 . S
C48 C45 1.358 . S
C48 C49 1.356 . S
C48 H85 0.930 . S
C49 C46 1.348 . S
C49 C48 1.356 . S
H50 C44 0.930 . S
H51 C45 0.930 . S
C52 N53 1.314 . S
C52 C54 1.353 . S
C52 H58 0.930 . S
N53 Li3 1.990 . S
N53 C52 1.314 . S
N53 C56 1.279 . S
C54 C52 1.353 . S
C54 C57 1.348 . S
C54 H86 0.929 . S
C55 C56 1.358 . S
C55 C57 1.356 . S
C55 H87 0.930 . S
C56 N53 1.279 . S
C56 C55 1.358 . S
C56 H59 0.930 . S
C57 C54 1.348 . S
C57 C55 1.356 . S
H58 C52 0.930 . S
H59 C56 0.930 . S
O60 Li0 1.956 . S
O60 Li1 1.970 . S
O60 Li2 1.961 . S
O60 C4 1.325 . S
O61 Li0 1.970 . S
O61 Li1 1.956 . S
O61 Li3 1.961 . S
O61 C10 1.325 . S
O62 Li0 1.961 . S
O62 Li2 1.956 . S
O62 Li3 1.970 . S
O62 C32 1.325 . S
O63 Li1 1.961 . S
O63 Li2 1.970 . S
O63 Li3 1.956 . S
O63 C38 1.325 . S
H64 C6 0.929 . S
H65 C7 0.930 . S
H66 C8 0.930 . S
H67 C9 0.930 . S
H68 C11 0.930 . S
H69 C13 0.929 . S
H70 C14 0.930 . S
H71 C15 0.930 . S
H72 C18 0.930 . S
H73 C21 0.929 . S
H74 C26 0.929 . S
H75 C27 0.930 . S
H76 C34 0.929 . S
H77 C35 0.930 . S
H78 C36 0.930 . S
H79 C37 0.930 . S
H80 C39 0.929 . S
H81 C40 0.930 . S
H82 C41 0.930 . S
H83 C42 0.930 . S
H84 C46 0.929 . S
H85 C48 0.930 . S
H86 C54 0.929 . S
H87 C55 0.930 . S
Li88 N105 1.990 . S
Li88 O148 1.956 . S
Li88 O149 1.970 . S
Li88 O150 1.961 . S
Li89 N113 1.990 . S
Li89 O148 1.970 . S
Li89 O149 1.956 . S
Li89 O151 1.961 . S
Li90 N135 1.990 . S
Li90 O148 1.961 . S
Li90 O150 1.956 . S
Li90 O151 1.970 . S
Li91 N141 1.990 . S
Li91 O149 1.961 . S
Li91 O150 1.970 . S
Li91 O151 1.956 . S
C92 C94 1.348 . S
C92 C95 1.356 . S
C92 O148 1.325 . S
N93 C96 1.314 . S
N93 C97 1.279 . S
C94 C92 1.348 . S
C94 C96 1.353 . S
C94 H152 0.929 . S
C95 C92 1.356 . S
C95 C97 1.358 . S
C95 H153 0.930 . S
C96 N93 1.314 . S
C96 C94 1.353 . S
C96 H154 0.930 . S
C97 N93 1.279 . S
C97 C95 1.358 . S
C97 H155 0.930 . S
C98 C101 1.348 . S
C98 C102 1.356 . S
C98 O149 1.325 . S
C99 N100 1.279 . S
C99 C102 1.358 . S
C99 H156 0.930 . S
N100 C99 1.279 . S
N100 C103 1.314 . S
C101 C98 1.348 . S
C101 C103 1.353 . S
C101 H157 0.929 . S
C102 C98 1.356 . S
C102 C99 1.358 . S
C102 H158 0.930 . S
C103 N100 1.314 . S
C103 C101 1.353 . S
C103 H159 0.930 . S
C104 N105 1.314 . S
C104 C109 1.353 . S
C104 H110 0.930 . S
N105 Li88 1.990 . S
N105 C104 1.314 . S
N105 C107 1.279 . S
C106 C107 1.358 . S
C106 C108 1.356 . S
C106 H160 0.930 . S
C107 N105 1.279 . S
C107 C106 1.358 . S
C107 H111 0.930 . S
C108 C106 1.356 . S
C108 C109 1.348 . S
C109 C104 1.353 . S
C109 C108 1.348 . S
C109 H161 0.929 . S
H110 C104 0.930 . S
H111 C107 0.930 . S
C112 N113 1.314 . S
C112 C114 1.353 . S
C112 H118 0.930 . S
N113 Li89 1.990 . S
N113 C112 1.314 . S
N113 C116 1.279 . S
C114 C112 1.353 . S
C114 C117 1.348 . S
C114 H162 0.929 . S
C115 C116 1.358 . S
C115 C117 1.356 . S
C115 H163 0.930 . S
C116 N113 1.279 . S
C116 C115 1.358 . S
C116 H119 0.930 . S
C117 C114 1.348 . S
C117 C115 1.356 . S
H118 C112 0.930 . S
H119 C116 0.930 . S
C120 C122 1.348 . S
C120 C123 1.356 . S
C120 O150 1.325 . S
N121 C124 1.314 . S
N121 C125 1.279 . S
C122 C120 1.348 . S
C122 C124 1.353 . S
C122 H164 0.929 . S
C123 C120 1.356 . S
C123 C125 1.358 . S
C123 H165 0.930 . S
C124 N121 1.314 . S
C124 C122 1.353 . S
C124 H166 0.930 . S
C125 N121 1.279 . S
C125 C123 1.358 . S
C125 H167 0.930 . S
C126 C127 1.348 . S
C126 C128 1.356 . S
C126 O151 1.325 . S
C127 C126 1.348 . S
C127 C129 1.353 . S
C127 H168 0.929 . S
C128 C126 1.356 . S
C128 C130 1.358 . S
C128 H169 0.930 . S
C129 C127 1.353 . S
C129 N131 1.314 . S
C129 H170 0.930 . S
C130 C128 1.358 . S
C130 N131 1.279 . S
C130 H171 0.930 . S
N131 C129 1.314 . S
N131 C130 1.279 . S
C132 C134 1.353 . S
C132 N135 1.314 . S
C132 H138 0.930 . S
C133 N135 1.279 . S
C133 C136 1.358 . S
C133 H139 0.930 . S
C134 C132 1.353 . S
C134 C137 1.348 . S
C134 H172 0.929 . S
N135 Li90 1.990 . S
N135 C132 1.314 . S
N135 C133 1.279 . S
C136 C133 1.358 . S
C136 C137 1.356 . S
C136 H173 0.930 . S
C137 C134 1.348 . S
C137 C136 1.356 . S
H138 C132 0.930 . S
H139 C133 0.930 . S
C140 N141 1.314 . S
C140 C142 1.353 . S
C140 H146 0.930 . S
N141 Li91 1.990 . S
N141 C140 1.314 . S
N141 C144 1.279 . S
C142 C140 1.353 . S
C142 C145 1.348 . S
C142 H174 0.929 . S
C143 C144 1.358 . S
C143 C145 1.356 . S
C143 H175 0.930 . S
C144 N141 1.279 . S
C144 C143 1.358 . S
C144 H147 0.930 . S
C145 C142 1.348 . S
C145 C143 1.356 . S
H146 C140 0.930 . S
H147 C144 0.930 . S
O148 Li88 1.956 . S
O148 Li89 1.970 . S
O148 Li90 1.961 . S
O148 C92 1.325 . S
O149 Li88 1.970 . S
O149 Li89 1.956 . S
O149 Li91 1.961 . S
O149 C98 1.325 . S
O150 Li88 1.961 . S
O150 Li90 1.956 . S
O150 Li91 1.970 . S
O150 C120 1.325 . S
O151 Li89 1.961 . S
O151 Li90 1.970 . S
O151 Li91 1.956 . S
O151 C126 1.325 . S
H152 C94 0.929 . S
H153 C95 0.930 . S
H154 C96 0.930 . S
H155 C97 0.930 . S
H156 C99 0.930 . S
H157 C101 0.929 . S
H158 C102 0.930 . S
H159 C103 0.930 . S
H160 C106 0.930 . S
H161 C109 0.929 . S
H162 C114 0.929 . S
H163 C115 0.930 . S
H164 C122 0.929 . S
H165 C123 0.930 . S
H166 C124 0.930 . S
H167 C125 0.930 . S
H168 C127 0.929 . S
H169 C128 0.930 . S
H170 C129 0.930 . S
H171 C130 0.930 . S
H172 C134 0.929 . S
H173 C136 0.930 . S
H174 C142 0.929 . S
H175 C143 0.930 . S
Li176 N193 1.990 . S
Li176 O236 1.956 . S
Li176 O237 1.970 . S
Li176 O238 1.961 . S
Li177 N201 1.990 . S
Li177 O236 1.970 . S
Li177 O237 1.956 . S
Li177 O239 1.961 . S
Li178 N223 1.990 . S
Li178 O236 1.961 . S
Li178 O238 1.956 . S
Li178 O239 1.970 . S
Li179 N229 1.990 . S
Li179 O237 1.961 . S
Li179 O238 1.970 . S
Li179 O239 1.956 . S
C180 C182 1.348 . S
C180 C183 1.356 . S
C180 O236 1.325 . S
N181 C184 1.314 . S
N181 C185 1.279 . S
C182 C180 1.348 . S
C182 C184 1.353 . S
C182 H240 0.929 . S
C183 C180 1.356 . S
C183 C185 1.358 . S
C183 H241 0.930 . S
C184 N181 1.314 . S
C184 C182 1.353 . S
C184 H242 0.930 . S
C185 N181 1.279 . S
C185 C183 1.358 . S
C185 H243 0.930 . S
C186 C189 1.348 . S
C186 C190 1.356 . S
C186 O237 1.325 . S
C187 N188 1.279 . S
C187 C190 1.358 . S
C187 H244 0.930 . S
N188 C187 1.279 . S
N188 C191 1.314 . S
C189 C186 1.348 . S
C189 C191 1.353 . S
C189 H245 0.929 . S
C190 C186 1.356 . S
C190 C187 1.358 . S
C190 H246 0.930 . S
C191 N188 1.314 . S
C191 C189 1.353 . S
C191 H247 0.930 . S
C192 N193 1.314 . S
C192 C197 1.353 . S
C192 H198 0.930 . S
N193 Li176 1.990 . S
N193 C192 1.314 . S
N193 C195 1.279 . S
C194 C195 1.358 . S
C194 C196 1.356 . S
C194 H248 0.930 . S
C195 N193 1.279 . S
C195 C194 1.358 . S
C195 H199 0.930 . S
C196 C194 1.356 . S
C196 C197 1.348 . S
C197 C192 1.353 . S
C197 C196 1.348 . S
C197 H249 0.929 . S
H198 C192 0.930 . S
H199 C195 0.930 . S
C200 N201 1.314 . S
C200 C202 1.353 . S
C200 H206 0.930 . S
N201 Li177 1.990 . S
N201 C200 1.314 . S
N201 C204 1.279 . S
C202 C200 1.353 . S
C202 C205 1.348 . S
C202 H250 0.929 . S
C203 C204 1.358 . S
C203 C205 1.356 . S
C203 H251 0.930 . S
C204 N201 1.279 . S
C204 C203 1.358 . S
C204 H207 0.930 . S
C205 C202 1.348 . S
C205 C203 1.356 . S
H206 C200 0.930 . S
H207 C204 0.930 . S
C208 C210 1.348 . S
C208 C211 1.356 . S
C208 O238 1.325 . S
N209 C212 1.314 . S
N209 C213 1.279 . S
C210 C208 1.348 . S
C210 C212 1.353 . S
C210 H252 0.929 . S
C211 C208 1.356 . S
C211 C213 1.358 . S
C211 H253 0.930 . S
C212 N209 1.314 . S
C212 C210 1.353 . S
C212 H254 0.930 . S
C213 N209 1.279 . S
C213 C211 1.358 . S
C213 H255 0.930 . S
C214 C215 1.348 . S
C214 C216 1.356 . S
C214 O239 1.325 . S
C215 C214 1.348 . S
C215 C217 1.353 . S
C215 H256 0.929 . S
C216 C214 1.356 . S
C216 C218 1.358 . S
C216 H257 0.930 . S
C217 C215 1.353 . S
C217 N219 1.314 . S
C217 H258 0.930 . S
C218 C216 1.358 . S
C218 N219 1.279 . S
C218 H259 0.930 . S
N219 C217 1.314 . S
N219 C218 1.279 . S
C220 C222 1.353 . S
C220 N223 1.314 . S
C220 H226 0.930 . S
C221 N223 1.279 . S
C221 C224 1.358 . S
C221 H227 0.930 . S
C222 C220 1.353 . S
C222 C225 1.348 . S
C222 H260 0.929 . S
N223 Li178 1.990 . S
N223 C220 1.314 . S
N223 C221 1.279 . S
C224 C221 1.358 . S
C224 C225 1.356 . S
C224 H261 0.930 . S
C225 C222 1.348 . S
C225 C224 1.356 . S
H226 C220 0.930 . S
H227 C221 0.930 . S
C228 N229 1.314 . S
C228 C230 1.353 . S
C228 H234 0.930 . S
N229 Li179 1.990 . S
N229 C228 1.314 . S
N229 C232 1.279 . S
C230 C228 1.353 . S
C230 C233 1.348 . S
C230 H262 0.929 . S
C231 C232 1.358 . S
C231 C233 1.356 . S
C231 H263 0.930 . S
C232 N229 1.279 . S
C232 C231 1.358 . S
C232 H235 0.930 . S
C233 C230 1.348 . S
C233 C231 1.356 . S
H234 C228 0.930 . S
H235 C232 0.930 . S
O236 Li176 1.956 . S
O236 Li177 1.970 . S
O236 Li178 1.961 . S
O236 C180 1.325 . S
O237 Li176 1.970 . S
O237 Li177 1.956 . S
O237 Li179 1.961 . S
O237 C186 1.325 . S
O238 Li176 1.961 . S
O238 Li178 1.956 . S
O238 Li179 1.970 . S
O238 C208 1.325 . S
O239 Li177 1.961 . S
O239 Li178 1.970 . S
O239 Li179 1.956 . S
O239 C214 1.325 . S
H240 C182 0.929 . S
H241 C183 0.930 . S
H242 C184 0.930 . S
H243 C185 0.930 . S
H244 C187 0.930 . S
H245 C189 0.929 . S
H246 C190 0.930 . S
H247 C191 0.930 . S
H248 C194 0.930 . S
H249 C197 0.929 . S
H250 C202 0.929 . S
H251 C203 0.930 . S
H252 C210 0.929 . S
H253 C211 0.930 . S
H254 C212 0.930 . S
H255 C213 0.930 . S
H256 C215 0.929 . S
H257 C216 0.930 . S
H258 C217 0.930 . S
H259 C218 0.930 . S
H260 C222 0.929 . S
H261 C224 0.930 . S
H262 C230 0.929 . S
H263 C231 0.930 . S
Li264 N281 1.990 . S
Li264 O324 1.956 . S
Li264 O325 1.970 . S
Li264 O326 1.961 . S
Li265 N289 1.990 . S
Li265 O324 1.970 . S
Li265 O325 1.956 . S
Li265 O327 1.961 . S
Li266 N311 1.990 . S
Li266 O324 1.961 . S
Li266 O326 1.956 . S
Li266 O327 1.970 . S
Li267 N317 1.990 . S
Li267 O325 1.961 . S
Li267 O326 1.970 . S
Li267 O327 1.956 . S
C268 C270 1.348 . S
C268 C271 1.356 . S
C268 O324 1.325 . S
N269 C272 1.314 . S
N269 C273 1.279 . S
C270 C268 1.348 . S
C270 C272 1.353 . S
C270 H328 0.929 . S
C271 C268 1.356 . S
C271 C273 1.358 . S
C271 H329 0.930 . S
C272 N269 1.314 . S
C272 C270 1.353 . S
C272 H330 0.930 . S
C273 N269 1.279 . S
C273 C271 1.358 . S
C273 H331 0.930 . S
C274 C277 1.348 . S
C274 C278 1.356 . S
C274 O325 1.325 . S
C275 N276 1.279 . S
C275 C278 1.358 . S
C275 H332 0.930 . S
N276 C275 1.279 . S
N276 C279 1.314 . S
C277 C274 1.348 . S
C277 C279 1.353 . S
C277 H333 0.929 . S
C278 C274 1.356 . S
C278 C275 1.358 . S
C278 H334 0.930 . S
C279 N276 1.314 . S
C279 C277 1.353 . S
C279 H335 0.930 . S
C280 N281 1.314 . S
C280 C285 1.353 . S
C280 H286 0.930 . S
N281 Li264 1.990 . S
N281 C280 1.314 . S
N281 C283 1.279 . S
C282 C283 1.358 . S
C282 C284 1.356 . S
C282 H336 0.930 . S
C283 N281 1.279 . S
C283 C282 1.358 . S
C283 H287 0.930 . S
C284 C282 1.356 . S
C284 C285 1.348 . S
C285 C280 1.353 . S
C285 C284 1.348 . S
C285 H337 0.929 . S
H286 C280 0.930 . S
H287 C283 0.930 . S
C288 N289 1.314 . S
C288 C290 1.353 . S
C288 H294 0.930 . S
N289 Li265 1.990 . S
N289 C288 1.314 . S
N289 C292 1.279 . S
C290 C288 1.353 . S
C290 C293 1.348 . S
C290 H338 0.929 . S
C291 C292 1.358 . S
C291 C293 1.356 . S
C291 H339 0.930 . S
C292 N289 1.279 . S
C292 C291 1.358 . S
C292 H295 0.930 . S
C293 C290 1.348 . S
C293 C291 1.356 . S
H294 C288 0.930 . S
H295 C292 0.930 . S
C296 C298 1.348 . S
C296 C299 1.356 . S
C296 O326 1.325 . S
N297 C300 1.314 . S
N297 C301 1.279 . S
C298 C296 1.348 . S
C298 C300 1.353 . S
C298 H340 0.929 . S
C299 C296 1.356 . S
C299 C301 1.358 . S
C299 H341 0.930 . S
C300 N297 1.314 . S
C300 C298 1.353 . S
C300 H342 0.930 . S
C301 N297 1.279 . S
C301 C299 1.358 . S
C301 H343 0.930 . S
C302 C303 1.348 . S
C302 C304 1.356 . S
C302 O327 1.325 . S
C303 C302 1.348 . S
C303 C305 1.353 . S
C303 H344 0.929 . S
C304 C302 1.356 . S
C304 C306 1.358 . S
C304 H345 0.930 . S
C305 C303 1.353 . S
C305 N307 1.314 . S
C305 H346 0.930 . S
C306 C304 1.358 . S
C306 N307 1.279 . S
C306 H347 0.930 . S
N307 C305 1.314 . S
N307 C306 1.279 . S
C308 C310 1.353 . S
C308 N311 1.314 . S
C308 H314 0.930 . S
C309 N311 1.279 . S
C309 C312 1.358 . S
C309 H315 0.930 . S
C310 C308 1.353 . S
C310 C313 1.348 . S
C310 H348 0.929 . S
N311 Li266 1.990 . S
N311 C308 1.314 . S
N311 C309 1.279 . S
C312 C309 1.358 . S
C312 C313 1.356 . S
C312 H349 0.930 . S
C313 C310 1.348 . S
C313 C312 1.356 . S
H314 C308 0.930 . S
H315 C309 0.930 . S
C316 N317 1.314 . S
C316 C318 1.353 . S
C316 H322 0.930 . S
N317 Li267 1.990 . S
N317 C316 1.314 . S
N317 C320 1.279 . S
C318 C316 1.353 . S
C318 C321 1.348 . S
C318 H350 0.929 . S
C319 C320 1.358 . S
C319 C321 1.356 . S
C319 H351 0.930 . S
C320 N317 1.279 . S
C320 C319 1.358 . S
C320 H323 0.930 . S
C321 C318 1.348 . S
C321 C319 1.356 . S
H322 C316 0.930 . S
H323 C320 0.930 . S
O324 Li264 1.956 . S
O324 Li265 1.970 . S
O324 Li266 1.961 . S
O324 C268 1.325 . S
O325 Li264 1.970 . S
O325 Li265 1.956 . S
O325 Li267 1.961 . S
O325 C274 1.325 . S
O326 Li264 1.961 . S
O326 Li266 1.956 . S
O326 Li267 1.970 . S
O326 C296 1.325 . S
O327 Li265 1.961 . S
O327 Li266 1.970 . S
O327 Li267 1.956 . S
O327 C302 1.325 . S
H328 C270 0.929 . S
H329 C271 0.930 . S
H330 C272 0.930 . S
H331 C273 0.930 . S
H332 C275 0.930 . S
H333 C277 0.929 . S
H334 C278 0.930 . S
H335 C279 0.930 . S
H336 C282 0.930 . S
H337 C285 0.929 . S
H338 C290 0.929 . S
H339 C291 0.930 . S
H340 C298 0.929 . S
H341 C299 0.930 . S
H342 C300 0.930 . S
H343 C301 0.930 . S
H344 C303 0.929 . S
H345 C304 0.930 . S
H346 C305 0.930 . S
H347 C306 0.930 . S
H348 C310 0.929 . S
H349 C312 0.930 . S
H350 C318 0.929 . S
H351 C319 0.930 . S
Li352 N369 1.990 . S
Li352 O412 1.956 . S
Li352 O413 1.970 . S
Li352 O414 1.961 . S
Li353 N377 1.990 . S
Li353 O412 1.970 . S
Li353 O413 1.956 . S
Li353 O415 1.961 . S
Li354 N399 1.990 . S
Li354 O412 1.961 . S
Li354 O414 1.956 . S
Li354 O415 1.970 . S
Li355 N405 1.990 . S
Li355 O413 1.961 . S
Li355 O414 1.970 . S
Li355 O415 1.956 . S
C356 C358 1.348 . S
C356 C359 1.356 . S
C356 O412 1.325 . S
N357 C360 1.314 . S
N357 C361 1.279 . S
C358 C356 1.348 . S
C358 C360 1.353 . S
C358 H416 0.929 . S
C359 C356 1.356 . S
C359 C361 1.358 . S
C359 H417 0.930 . S
C360 N357 1.314 . S
C360 C358 1.353 . S
C360 H418 0.930 . S
C361 N357 1.279 . S
C361 C359 1.358 . S
C361 H419 0.930 . S
C362 C365 1.348 . S
C362 C366 1.356 . S
C362 O413 1.325 . S
C363 N364 1.279 . S
C363 C366 1.358 . S
C363 H420 0.930 . S
N364 C363 1.279 . S
N364 C367 1.314 . S
C365 C362 1.348 . S
C365 C367 1.353 . S
C365 H421 0.929 . S
C366 C362 1.356 . S
C366 C363 1.358 . S
C366 H422 0.930 . S
C367 N364 1.314 . S
C367 C365 1.353 . S
C367 H423 0.930 . S
C368 N369 1.314 . S
C368 C373 1.353 . S
C368 H374 0.930 . S
N369 Li352 1.990 . S
N369 C368 1.314 . S
N369 C371 1.279 . S
C370 C371 1.358 . S
C370 C372 1.356 . S
C370 H424 0.930 . S
C371 N369 1.279 . S
C371 C370 1.358 . S
C371 H375 0.930 . S
C372 C370 1.356 . S
C372 C373 1.348 . S
C373 C368 1.353 . S
C373 C372 1.348 . S
C373 H425 0.929 . S
H374 C368 0.930 . S
H375 C371 0.930 . S
C376 N377 1.314 . S
C376 C378 1.353 . S
C376 H382 0.930 . S
N377 Li353 1.990 . S
N377 C376 1.314 . S
N377 C380 1.279 . S
C378 C376 1.353 . S
C378 C381 1.348 . S
C378 H426 0.929 . S
C379 C380 1.358 . S
C379 C381 1.356 . S
C379 H427 0.930 . S
C380 N377 1.279 . S
C380 C379 1.358 . S
C380 H383 0.930 . S
C381 C378 1.348 . S
C381 C379 1.356 . S
H382 C376 0.930 . S
H383 C380 0.930 . S
C384 C386 1.348 . S
C384 C387 1.356 . S
C384 O414 1.325 . S
N385 C388 1.314 . S
N385 C389 1.279 . S
C386 C384 1.348 . S
C386 C388 1.353 . S
C386 H428 0.929 . S
C387 C384 1.356 . S
C387 C389 1.358 . S
C387 H429 0.930 . S
C388 N385 1.314 . S
C388 C386 1.353 . S
C388 H430 0.930 . S
C389 N385 1.279 . S
C389 C387 1.358 . S
C389 H431 0.930 . S
C390 C391 1.348 . S
C390 C392 1.356 . S
C390 O415 1.325 . S
C391 C390 1.348 . S
C391 C393 1.353 . S
C391 H432 0.929 . S
C392 C390 1.356 . S
C392 C394 1.358 . S
C392 H433 0.930 . S
C393 C391 1.353 . S
C393 N395 1.314 . S
C393 H434 0.930 . S
C394 C392 1.358 . S
C394 N395 1.279 . S
C394 H435 0.930 . S
N395 C393 1.314 . S
N395 C394 1.279 . S
C396 C398 1.353 . S
C396 N399 1.314 . S
C396 H402 0.930 . S
C397 N399 1.279 . S
C397 C400 1.358 . S
C397 H403 0.930 . S
C398 C396 1.353 . S
C398 C401 1.348 . S
C398 H436 0.929 . S
N399 Li354 1.990 . S
N399 C396 1.314 . S
N399 C397 1.279 . S
C400 C397 1.358 . S
C400 C401 1.356 . S
C400 H437 0.930 . S
C401 C398 1.348 . S
C401 C400 1.356 . S
H402 C396 0.930 . S
H403 C397 0.930 . S
C404 N405 1.314 . S
C404 C406 1.353 . S
C404 H410 0.930 . S
N405 Li355 1.990 . S
N405 C404 1.314 . S
N405 C408 1.279 . S
C406 C404 1.353 . S
C406 C409 1.348 . S
C406 H438 0.929 . S
C407 C408 1.358 . S
C407 C409 1.356 . S
C407 H439 0.930 . S
C408 N405 1.279 . S
C408 C407 1.358 . S
C408 H411 0.930 . S
C409 C406 1.348 . S
C409 C407 1.356 . S
H410 C404 0.930 . S
H411 C408 0.930 . S
O412 Li352 1.956 . S
O412 Li353 1.970 . S
O412 Li354 1.961 . S
O412 C356 1.325 . S
O413 Li352 1.970 . S
O413 Li353 1.956 . S
O413 Li355 1.961 . S
O413 C362 1.325 . S
O414 Li352 1.961 . S
O414 Li354 1.956 . S
O414 Li355 1.970 . S
O414 C384 1.325 . S
O415 Li353 1.961 . S
O415 Li354 1.970 . S
O415 Li355 1.956 . S
O415 C390 1.325 . S
H416 C358 0.929 . S
H417 C359 0.930 . S
H418 C360 0.930 . S
H419 C361 0.930 . S
H420 C363 0.930 . S
H421 C365 0.929 . S
H422 C366 0.930 . S
H423 C367 0.930 . S
H424 C370 0.930 . S
H425 C373 0.929 . S
H426 C378 0.929 . S
H427 C379 0.930 . S
H428 C386 0.929 . S
H429 C387 0.930 . S
H430 C388 0.930 . S
H431 C389 0.930 . S
H432 C391 0.929 . S
H433 C392 0.930 . S
H434 C393 0.930 . S
H435 C394 0.930 . S
H436 C398 0.929 . S
H437 C400 0.930 . S
H438 C406 0.929 . S
H439 C407 0.930 . S
Li440 N457 1.990 . S
Li440 O500 1.956 . S
Li440 O501 1.970 . S
Li440 O502 1.961 . S
Li441 N465 1.990 . S
Li441 O500 1.970 . S
Li441 O501 1.956 . S
Li441 O503 1.961 . S
Li442 N487 1.990 . S
Li442 O500 1.961 . S
Li442 O502 1.956 . S
Li442 O503 1.970 . S
Li443 N493 1.990 . S
Li443 O501 1.961 . S
Li443 O502 1.970 . S
Li443 O503 1.956 . S
C444 C446 1.348 . S
C444 C447 1.356 . S
C444 O500 1.325 . S
N445 C448 1.314 . S
N445 C449 1.279 . S
C446 C444 1.348 . S
C446 C448 1.353 . S
C446 H504 0.929 . S
C447 C444 1.356 . S
C447 C449 1.358 . S
C447 H505 0.930 . S
C448 N445 1.314 . S
C448 C446 1.353 . S
C448 H506 0.930 . S
C449 N445 1.279 . S
C449 C447 1.358 . S
C449 H507 0.930 . S
C450 C453 1.348 . S
C450 C454 1.356 . S
C450 O501 1.325 . S
C451 N452 1.279 . S
C451 C454 1.358 . S
C451 H508 0.930 . S
N452 C451 1.279 . S
N452 C455 1.314 . S
C453 C450 1.348 . S
C453 C455 1.353 . S
C453 H509 0.929 . S
C454 C450 1.356 . S
C454 C451 1.358 . S
C454 H510 0.930 . S
C455 N452 1.314 . S
C455 C453 1.353 . S
C455 H511 0.930 . S
C456 N457 1.314 . S
C456 C461 1.353 . S
C456 H462 0.930 . S
N457 Li440 1.990 . S
N457 C456 1.314 . S
N457 C459 1.279 . S
C458 C459 1.358 . S
C458 C460 1.356 . S
C458 H512 0.930 . S
C459 N457 1.279 . S
C459 C458 1.358 . S
C459 H463 0.930 . S
C460 C458 1.356 . S
C460 C461 1.348 . S
C461 C456 1.353 . S
C461 C460 1.348 . S
C461 H513 0.929 . S
H462 C456 0.930 . S
H463 C459 0.930 . S
C464 N465 1.314 . S
C464 C466 1.353 . S
C464 H470 0.930 . S
N465 Li441 1.990 . S
N465 C464 1.314 . S
N465 C468 1.279 . S
C466 C464 1.353 . S
C466 C469 1.348 . S
C466 H514 0.929 . S
C467 C468 1.358 . S
C467 C469 1.356 . S
C467 H515 0.930 . S
C468 N465 1.279 . S
C468 C467 1.358 . S
C468 H471 0.930 . S
C469 C466 1.348 . S
C469 C467 1.356 . S
H470 C464 0.930 . S
H471 C468 0.930 . S
C472 C474 1.348 . S
C472 C475 1.356 . S
C472 O502 1.325 . S
N473 C476 1.314 . S
N473 C477 1.279 . S
C474 C472 1.348 . S
C474 C476 1.353 . S
C474 H516 0.929 . S
C475 C472 1.356 . S
C475 C477 1.358 . S
C475 H517 0.930 . S
C476 N473 1.314 . S
C476 C474 1.353 . S
C476 H518 0.930 . S
C477 N473 1.279 . S
C477 C475 1.358 . S
C477 H519 0.930 . S
C478 C479 1.348 . S
C478 C480 1.356 . S
C478 O503 1.325 . S
C479 C478 1.348 . S
C479 C481 1.353 . S
C479 H520 0.929 . S
C480 C478 1.356 . S
C480 C482 1.358 . S
C480 H521 0.930 . S
C481 C479 1.353 . S
C481 N483 1.314 . S
C481 H522 0.930 . S
C482 C480 1.358 . S
C482 N483 1.279 . S
C482 H523 0.930 . S
N483 C481 1.314 . S
N483 C482 1.279 . S
C484 C486 1.353 . S
C484 N487 1.314 . S
C484 H490 0.930 . S
C485 N487 1.279 . S
C485 C488 1.358 . S
C485 H491 0.930 . S
C486 C484 1.353 . S
C486 C489 1.348 . S
C486 H524 0.929 . S
N487 Li442 1.990 . S
N487 C484 1.314 . S
N487 C485 1.279 . S
C488 C485 1.358 . S
C488 C489 1.356 . S
C488 H525 0.930 . S
C489 C486 1.348 . S
C489 C488 1.356 . S
H490 C484 0.930 . S
H491 C485 0.930 . S
C492 N493 1.314 . S
C492 C494 1.353 . S
C492 H498 0.930 . S
N493 Li443 1.990 . S
N493 C492 1.314 . S
N493 C496 1.279 . S
C494 C492 1.353 . S
C494 C497 1.348 . S
C494 H526 0.929 . S
C495 C496 1.358 . S
C495 C497 1.356 . S
C495 H527 0.930 . S
C496 N493 1.279 . S
C496 C495 1.358 . S
C496 H499 0.930 . S
C497 C494 1.348 . S
C497 C495 1.356 . S
H498 C492 0.930 . S
H499 C496 0.930 . S
O500 Li440 1.956 . S
O500 Li441 1.970 . S
O500 Li442 1.961 . S
O500 C444 1.325 . S
O501 Li440 1.970 . S
O501 Li441 1.956 . S
O501 Li443 1.961 . S
O501 C450 1.325 . S
O502 Li440 1.961 . S
O502 Li442 1.956 . S
O502 Li443 1.970 . S
O502 C472 1.325 . S
O503 Li441 1.961 . S
O503 Li442 1.970 . S
O503 Li443 1.956 . S
O503 C478 1.325 . S
H504 C446 0.929 . S
H505 C447 0.930 . S
H506 C448 0.930 . S
H507 C449 0.930 . S
H508 C451 0.930 . S
H509 C453 0.929 . S
H510 C454 0.930 . S
H511 C455 0.930 . S
H512 C458 0.930 . S
H513 C461 0.929 . S
H514 C466 0.929 . S
H515 C467 0.930 . S
H516 C474 0.929 . S
H517 C475 0.930 . S
H518 C476 0.930 . S
H519 C477 0.930 . S
H520 C479 0.929 . S
H521 C480 0.930 . S
H522 C481 0.930 . S
H523 C482 0.930 . S
H524 C486 0.929 . S
H525 C488 0.930 . S
H526 C494 0.929 . S
H527 C495 0.930 . S
Li528 N545 1.990 . S
Li528 O588 1.956 . S
Li528 O589 1.970 . S
Li528 O590 1.961 . S
Li529 N553 1.990 . S
Li529 O588 1.970 . S
Li529 O589 1.956 . S
Li529 O591 1.961 . S
Li530 N575 1.990 . S
Li530 O588 1.961 . S
Li530 O590 1.956 . S
Li530 O591 1.970 . S
Li531 N581 1.990 . S
Li531 O589 1.961 . S
Li531 O590 1.970 . S
Li531 O591 1.956 . S
C532 C534 1.348 . S
C532 C535 1.356 . S
C532 O588 1.325 . S
N533 C536 1.314 . S
N533 C537 1.279 . S
C534 C532 1.348 . S
C534 C536 1.353 . S
C534 H592 0.929 . S
C535 C532 1.356 . S
C535 C537 1.358 . S
C535 H593 0.930 . S
C536 N533 1.314 . S
C536 C534 1.353 . S
C536 H594 0.930 . S
C537 N533 1.279 . S
C537 C535 1.358 . S
C537 H595 0.930 . S
C538 C541 1.348 . S
C538 C542 1.356 . S
C538 O589 1.325 . S
C539 N540 1.279 . S
C539 C542 1.358 . S
C539 H596 0.930 . S
N540 C539 1.279 . S
N540 C543 1.314 . S
C541 C538 1.348 . S
C541 C543 1.353 . S
C541 H597 0.929 . S
C542 C538 1.356 . S
C542 C539 1.358 . S
C542 H598 0.930 . S
C543 N540 1.314 . S
C543 C541 1.353 . S
C543 H599 0.930 . S
C544 N545 1.314 . S
C544 C549 1.353 . S
C544 H550 0.930 . S
N545 Li528 1.990 . S
N545 C544 1.314 . S
N545 C547 1.279 . S
C546 C547 1.358 . S
C546 C548 1.356 . S
C546 H600 0.930 . S
C547 N545 1.279 . S
C547 C546 1.358 . S
C547 H551 0.930 . S
C548 C546 1.356 . S
C548 C549 1.348 . S
C549 C544 1.353 . S
C549 C548 1.348 . S
C549 H601 0.929 . S
H550 C544 0.930 . S
H551 C547 0.930 . S
C552 N553 1.314 . S
C552 C554 1.353 . S
C552 H558 0.930 . S
N553 Li529 1.990 . S
N553 C552 1.314 . S
N553 C556 1.279 . S
C554 C552 1.353 . S
C554 C557 1.348 . S
C554 H602 0.929 . S
C555 C556 1.358 . S
C555 C557 1.356 . S
C555 H603 0.930 . S
C556 N553 1.279 . S
C556 C555 1.358 . S
C556 H559 0.930 . S
C557 C554 1.348 . S
C557 C555 1.356 . S
H558 C552 0.930 . S
H559 C556 0.930 . S
C560 C562 1.348 . S
C560 C563 1.356 . S
C560 O590 1.325 . S
N561 C564 1.314 . S
N561 C565 1.279 . S
C562 C560 1.348 . S
C562 C564 1.353 . S
C562 H604 0.929 . S
C563 C560 1.356 . S
C563 C565 1.358 . S
C563 H605 0.930 . S
C564 N561 1.314 . S
C564 C562 1.353 . S
C564 H606 0.930 . S
C565 N561 1.279 . S
C565 C563 1.358 . S
C565 H607 0.930 . S
C566 C567 1.348 . S
C566 C568 1.356 . S
C566 O591 1.325 . S
C567 C566 1.348 . S
C567 C569 1.353 . S
C567 H608 0.929 . S
C568 C566 1.356 . S
C568 C570 1.358 . S
C568 H609 0.930 . S
C569 C567 1.353 . S
C569 N571 1.314 . S
C569 H610 0.930 . S
C570 C568 1.358 . S
C570 N571 1.279 . S
C570 H611 0.930 . S
N571 C569 1.314 . S
N571 C570 1.279 . S
C572 C574 1.353 . S
C572 N575 1.314 . S
C572 H578 0.930 . S
C573 N575 1.279 . S
C573 C576 1.358 . S
C573 H579 0.930 . S
C574 C572 1.353 . S
C574 C577 1.348 . S
C574 H612 0.929 . S
N575 Li530 1.990 . S
N575 C572 1.314 . S
N575 C573 1.279 . S
C576 C573 1.358 . S
C576 C577 1.356 . S
C576 H613 0.930 . S
C577 C574 1.348 . S
C577 C576 1.356 . S
H578 C572 0.930 . S
H579 C573 0.930 . S
C580 N581 1.314 . S
C580 C582 1.353 . S
C580 H586 0.930 . S
N581 Li531 1.990 . S
N581 C580 1.314 . S
N581 C584 1.279 . S
C582 C580 1.353 . S
C582 C585 1.348 . S
C582 H614 0.929 . S
C583 C584 1.358 . S
C583 C585 1.356 . S
C583 H615 0.930 . S
C584 N581 1.279 . S
C584 C583 1.358 . S
C584 H587 0.930 . S
C585 C582 1.348 . S
C585 C583 1.356 . S
H586 C580 0.930 . S
H587 C584 0.930 . S
O588 Li528 1.956 . S
O588 Li529 1.970 . S
O588 Li530 1.961 . S
O588 C532 1.325 . S
O589 Li528 1.970 . S
O589 Li529 1.956 . S
O589 Li531 1.961 . S
O589 C538 1.325 . S
O590 Li528 1.961 . S
O590 Li530 1.956 . S
O590 Li531 1.970 . S
O590 C560 1.325 . S
O591 Li529 1.961 . S
O591 Li530 1.970 . S
O591 Li531 1.956 . S
O591 C566 1.325 . S
H592 C534 0.929 . S
H593 C535 0.930 . S
H594 C536 0.930 . S
H595 C537 0.930 . S
H596 C539 0.930 . S
H597 C541 0.929 . S
H598 C542 0.930 . S
H599 C543 0.930 . S
H600 C546 0.930 . S
H601 C549 0.929 . S
H602 C554 0.929 . S
H603 C555 0.930 . S
H604 C562 0.929 . S
H605 C563 0.930 . S
H606 C564 0.930 . S
H607 C565 0.930 . S
H608 C567 0.929 . S
H609 C568 0.930 . S
H610 C569 0.930 . S
H611 C570 0.930 . S
H612 C574 0.929 . S
H613 C576 0.930 . S
H614 C582 0.929 . S
H615 C583 0.930 . S
Li616 N633 1.990 . S
Li616 O676 1.956 . S
Li616 O677 1.970 . S
Li616 O678 1.961 . S
Li617 N641 1.990 . S
Li617 O676 1.970 . S
Li617 O677 1.956 . S
Li617 O679 1.961 . S
Li618 N663 1.990 . S
Li618 O676 1.961 . S
Li618 O678 1.956 . S
Li618 O679 1.970 . S
Li619 N669 1.990 . S
Li619 O677 1.961 . S
Li619 O678 1.970 . S
Li619 O679 1.956 . S
C620 C622 1.348 . S
C620 C623 1.356 . S
C620 O676 1.325 . S
N621 C624 1.314 . S
N621 C625 1.279 . S
C622 C620 1.348 . S
C622 C624 1.353 . S
C622 H680 0.929 . S
C623 C620 1.356 . S
C623 C625 1.358 . S
C623 H681 0.930 . S
C624 N621 1.314 . S
C624 C622 1.353 . S
C624 H682 0.930 . S
C625 N621 1.279 . S
C625 C623 1.358 . S
C625 H683 0.930 . S
C626 C629 1.348 . S
C626 C630 1.356 . S
C626 O677 1.325 . S
C627 N628 1.279 . S
C627 C630 1.358 . S
C627 H684 0.930 . S
N628 C627 1.279 . S
N628 C631 1.314 . S
C629 C626 1.348 . S
C629 C631 1.353 . S
C629 H685 0.929 . S
C630 C626 1.356 . S
C630 C627 1.358 . S
C630 H686 0.930 . S
C631 N628 1.314 . S
C631 C629 1.353 . S
C631 H687 0.930 . S
C632 N633 1.314 . S
C632 C637 1.353 . S
C632 H638 0.930 . S
N633 Li616 1.990 . S
N633 C632 1.314 . S
N633 C635 1.279 . S
C634 C635 1.358 . S
C634 C636 1.356 . S
C634 H688 0.930 . S
C635 N633 1.279 . S
C635 C634 1.358 . S
C635 H639 0.930 . S
C636 C634 1.356 . S
C636 C637 1.348 . S
C637 C632 1.353 . S
C637 C636 1.348 . S
C637 H689 0.929 . S
H638 C632 0.930 . S
H639 C635 0.930 . S
C640 N641 1.314 . S
C640 C642 1.353 . S
C640 H646 0.930 . S
N641 Li617 1.990 . S
N641 C640 1.314 . S
N641 C644 1.279 . S
C642 C640 1.353 . S
C642 C645 1.348 . S
C642 H690 0.929 . S
C643 C644 1.358 . S
C643 C645 1.356 . S
C643 H691 0.930 . S
C644 N641 1.279 . S
C644 C643 1.358 . S
C644 H647 0.930 . S
C645 C642 1.348 . S
C645 C643 1.356 . S
H646 C640 0.930 . S
H647 C644 0.930 . S
C648 C650 1.348 . S
C648 C651 1.356 . S
C648 O678 1.325 . S
N649 C652 1.314 . S
N649 C653 1.279 . S
C650 C648 1.348 . S
C650 C652 1.353 . S
C650 H692 0.929 . S
C651 C648 1.356 . S
C651 C653 1.358 . S
C651 H693 0.930 . S
C652 N649 1.314 . S
C652 C650 1.353 . S
C652 H694 0.930 . S
C653 N649 1.279 . S
C653 C651 1.358 . S
C653 H695 0.930 . S
C654 C655 1.348 . S
C654 C656 1.356 . S
C654 O679 1.325 . S
C655 C654 1.348 . S
C655 C657 1.353 . S
C655 H696 0.929 . S
C656 C654 1.356 . S
C656 C658 1.358 . S
C656 H697 0.930 . S
C657 C655 1.353 . S
C657 N659 1.314 . S
C657 H698 0.930 . S
C658 C656 1.358 . S
C658 N659 1.279 . S
C658 H699 0.930 . S
N659 C657 1.314 . S
N659 C658 1.279 . S
C660 C662 1.353 . S
C660 N663 1.314 . S
C660 H666 0.930 . S
C661 N663 1.279 . S
C661 C664 1.358 . S
C661 H667 0.930 . S
C662 C660 1.353 . S
C662 C665 1.348 . S
C662 H700 0.929 . S
N663 Li618 1.990 . S
N663 C660 1.314 . S
N663 C661 1.279 . S
C664 C661 1.358 . S
C664 C665 1.356 . S
C664 H701 0.930 . S
C665 C662 1.348 . S
C665 C664 1.356 . S
H666 C660 0.930 . S
H667 C661 0.930 . S
C668 N669 1.314 . S
C668 C670 1.353 . S
C668 H674 0.930 . S
N669 Li619 1.990 . S
N669 C668 1.314 . S
N669 C672 1.279 . S
C670 C668 1.353 . S
C670 C673 1.348 . S
C670 H702 0.929 . S
C671 C672 1.358 . S
C671 C673 1.356 . S
C671 H703 0.930 . S
C672 N669 1.279 . S
C672 C671 1.358 . S
C672 H675 0.930 . S
C673 C670 1.348 . S
C673 C671 1.356 . S
H674 C668 0.930 . S
H675 C672 0.930 . S
O676 Li616 1.956 . S
O676 Li617 1.970 . S
O676 Li618 1.961 . S
O676 C620 1.325 . S
O677 Li616 1.970 . S
O677 Li617 1.956 . S
O677 Li619 1.961 . S
O677 C626 1.325 . S
O678 Li616 1.961 . S
O678 Li618 1.956 . S
O678 Li619 1.970 . S
O678 C648 1.325 . S
O679 Li617 1.961 . S
O679 Li618 1.970 . S
O679 Li619 1.956 . S
O679 C654 1.325 . S
H680 C622 0.929 . S
H681 C623 0.930 . S
H682 C624 0.930 . S
H683 C625 0.930 . S
H684 C627 0.930 . S
H685 C629 0.929 . S
H686 C630 0.930 . S
H687 C631 0.930 . S
H688 C634 0.930 . S
H689 C637 0.929 . S
H690 C642 0.929 . S
H691 C643 0.930 . S
H692 C650 0.929 . S
H693 C651 0.930 . S
H694 C652 0.930 . S
H695 C653 0.930 . S
H696 C655 0.929 . S
H697 C656 0.930 . S
H698 C657 0.930 . S
H699 C658 0.930 . S
H700 C662 0.929 . S
H701 C664 0.930 . S
H702 C670 0.929 . S
H703 C671 0.930 . S
Li704 N721 1.990 . S
Li704 O764 1.956 . S
Li704 O765 1.970 . S
Li704 O766 1.961 . S
Li705 N729 1.990 . S
Li705 O764 1.970 . S
Li705 O765 1.956 . S
Li705 O767 1.961 . S
Li706 N751 1.990 . S
Li706 O764 1.961 . S
Li706 O766 1.956 . S
Li706 O767 1.970 . S
Li707 N757 1.990 . S
Li707 O765 1.961 . S
Li707 O766 1.970 . S
Li707 O767 1.956 . S
C708 C710 1.348 . S
C708 C711 1.356 . S
C708 O764 1.325 . S
N709 C712 1.314 . S
N709 C713 1.279 . S
C710 C708 1.348 . S
C710 C712 1.353 . S
C710 H768 0.929 . S
C711 C708 1.356 . S
C711 C713 1.358 . S
C711 H769 0.930 . S
C712 N709 1.314 . S
C712 C710 1.353 . S
C712 H770 0.930 . S
C713 N709 1.279 . S
C713 C711 1.358 . S
C713 H771 0.930 . S
C714 C717 1.348 . S
C714 C718 1.356 . S
C714 O765 1.325 . S
C715 N716 1.279 . S
C715 C718 1.358 . S
C715 H772 0.930 . S
N716 C715 1.279 . S
N716 C719 1.314 . S
C717 C714 1.348 . S
C717 C719 1.353 . S
C717 H773 0.929 . S
C718 C714 1.356 . S
C718 C715 1.358 . S
C718 H774 0.930 . S
C719 N716 1.314 . S
C719 C717 1.353 . S
C719 H775 0.930 . S
C720 N721 1.314 . S
C720 C725 1.353 . S
C720 H726 0.930 . S
N721 Li704 1.990 . S
N721 C720 1.314 . S
N721 C723 1.279 . S
C722 C723 1.358 . S
C722 C724 1.356 . S
C722 H776 0.930 . S
C723 N721 1.279 . S
C723 C722 1.358 . S
C723 H727 0.930 . S
C724 C722 1.356 . S
C724 C725 1.348 . S
C725 C720 1.353 . S
C725 C724 1.348 . S
C725 H777 0.929 . S
H726 C720 0.930 . S
H727 C723 0.930 . S
C728 N729 1.314 . S
C728 C730 1.353 . S
C728 H734 0.930 . S
N729 Li705 1.990 . S
N729 C728 1.314 . S
N729 C732 1.279 . S
C730 C728 1.353 . S
C730 C733 1.348 . S
C730 H778 0.929 . S
C731 C732 1.358 . S
C731 C733 1.356 . S
C731 H779 0.930 . S
C732 N729 1.279 . S
C732 C731 1.358 . S
C732 H735 0.930 . S
C733 C730 1.348 . S
C733 C731 1.356 . S
H734 C728 0.930 . S
H735 C732 0.930 . S
C736 C738 1.348 . S
C736 C739 1.356 . S
C736 O766 1.325 . S
N737 C740 1.314 . S
N737 C741 1.279 . S
C738 C736 1.348 . S
C738 C740 1.353 . S
C738 H780 0.929 . S
C739 C736 1.356 . S
C739 C741 1.358 . S
C739 H781 0.930 . S
C740 N737 1.314 . S
C740 C738 1.353 . S
C740 H782 0.930 . S
C741 N737 1.279 . S
C741 C739 1.358 . S
C741 H783 0.930 . S
C742 C743 1.348 . S
C742 C744 1.356 . S
C742 O767 1.325 . S
C743 C742 1.348 . S
C743 C745 1.353 . S
C743 H784 0.929 . S
C744 C742 1.356 . S
C744 C746 1.358 . S
C744 H785 0.930 . S
C745 C743 1.353 . S
C745 N747 1.314 . S
C745 H786 0.930 . S
C746 C744 1.358 . S
C746 N747 1.279 . S
C746 H787 0.930 . S
N747 C745 1.314 . S
N747 C746 1.279 . S
C748 C750 1.353 . S
C748 N751 1.314 . S
C748 H754 0.930 . S
C749 N751 1.279 . S
C749 C752 1.358 . S
C749 H755 0.930 . S
C750 C748 1.353 . S
C750 C753 1.348 . S
C750 H788 0.929 . S
N751 Li706 1.990 . S
N751 C748 1.314 . S
N751 C749 1.279 . S
C752 C749 1.358 . S
C752 C753 1.356 . S
C752 H789 0.930 . S
C753 C750 1.348 . S
C753 C752 1.356 . S
H754 C748 0.930 . S
H755 C749 0.930 . S
C756 N757 1.314 . S
C756 C758 1.353 . S
C756 H762 0.930 . S
N757 Li707 1.990 . S
N757 C756 1.314 . S
N757 C760 1.279 . S
C758 C756 1.353 . S
C758 C761 1.348 . S
C758 H790 0.929 . S
C759 C760 1.358 . S
C759 C761 1.356 . S
C759 H791 0.930 . S
C760 N757 1.279 . S
C760 C759 1.358 . S
C760 H763 0.930 . S
C761 C758 1.348 . S
C761 C759 1.356 . S
H762 C756 0.930 . S
H763 C760 0.930 . S
O764 Li704 1.956 . S
O764 Li705 1.970 . S
O764 Li706 1.961 . S
O764 C708 1.325 . S
O765 Li704 1.970 . S
O765 Li705 1.956 . S
O765 Li707 1.961 . S
O765 C714 1.325 . S
O766 Li704 1.961 . S
O766 Li706 1.956 . S
O766 Li707 1.970 . S
O766 C736 1.325 . S
O767 Li705 1.961 . S
O767 Li706 1.970 . S
O767 Li707 1.956 . S
O767 C742 1.325 . S
H768 C710 0.929 . S
H769 C711 0.930 . S
H770 C712 0.930 . S
H771 C713 0.930 . S
H772 C715 0.930 . S
H773 C717 0.929 . S
H774 C718 0.930 . S
H775 C719 0.930 . S
H776 C722 0.930 . S
H777 C725 0.929 . S
H778 C730 0.929 . S
H779 C731 0.930 . S
H780 C738 0.929 . S
H781 C739 0.930 . S
H782 C740 0.930 . S
H783 C741 0.930 . S
H784 C743 0.929 . S
H785 C744 0.930 . S
H786 C745 0.930 . S
H787 C746 0.930 . S
H788 C750 0.929 . S
H789 C752 0.930 . S
H790 C758 0.929 . S
H791 C759 0.930 . S
Li792 N809 1.990 . S
Li792 O852 1.956 . S
Li792 O853 1.970 . S
Li792 O854 1.961 . S
Li793 N817 1.990 . S
Li793 O852 1.970 . S
Li793 O853 1.956 . S
Li793 O855 1.961 . S
Li794 N839 1.990 . S
Li794 O852 1.961 . S
Li794 O854 1.956 . S
Li794 O855 1.970 . S
Li795 N845 1.990 . S
Li795 O853 1.961 . S
Li795 O854 1.970 . S
Li795 O855 1.956 . S
C796 C798 1.348 . S
C796 C799 1.356 . S
C796 O852 1.325 . S
N797 C800 1.314 . S
N797 C801 1.279 . S
C798 C796 1.348 . S
C798 C800 1.353 . S
C798 H856 0.929 . S
C799 C796 1.356 . S
C799 C801 1.358 . S
C799 H857 0.930 . S
C800 N797 1.314 . S
C800 C798 1.353 . S
C800 H858 0.930 . S
C801 N797 1.279 . S
C801 C799 1.358 . S
C801 H859 0.930 . S
C802 C805 1.348 . S
C802 C806 1.356 . S
C802 O853 1.325 . S
C803 N804 1.279 . S
C803 C806 1.358 . S
C803 H860 0.930 . S
N804 C803 1.279 . S
N804 C807 1.314 . S
C805 C802 1.348 . S
C805 C807 1.353 . S
C805 H861 0.929 . S
C806 C802 1.356 . S
C806 C803 1.358 . S
C806 H862 0.930 . S
C807 N804 1.314 . S
C807 C805 1.353 . S
C807 H863 0.930 . S
C808 N809 1.314 . S
C808 C813 1.353 . S
C808 H814 0.930 . S
N809 Li792 1.990 . S
N809 C808 1.314 . S
N809 C811 1.279 . S
C810 C811 1.358 . S
C810 C812 1.356 . S
C810 H864 0.930 . S
C811 N809 1.279 . S
C811 C810 1.358 . S
C811 H815 0.930 . S
C812 C810 1.356 . S
C812 C813 1.348 . S
C813 C808 1.353 . S
C813 C812 1.348 . S
C813 H865 0.929 . S
H814 C808 0.930 . S
H815 C811 0.930 . S
C816 N817 1.314 . S
C816 C818 1.353 . S
C816 H822 0.930 . S
N817 Li793 1.990 . S
N817 C816 1.314 . S
N817 C820 1.279 . S
C818 C816 1.353 . S
C818 C821 1.348 . S
C818 H866 0.929 . S
C819 C820 1.358 . S
C819 C821 1.356 . S
C819 H867 0.930 . S
C820 N817 1.279 . S
C820 C819 1.358 . S
C820 H823 0.930 . S
C821 C818 1.348 . S
C821 C819 1.356 . S
H822 C816 0.930 . S
H823 C820 0.930 . S
C824 C826 1.348 . S
C824 C827 1.356 . S
C824 O854 1.325 . S
N825 C828 1.314 . S
N825 C829 1.279 . S
C826 C824 1.348 . S
C826 C828 1.353 . S
C826 H868 0.929 . S
C827 C824 1.356 . S
C827 C829 1.358 . S
C827 H869 0.930 . S
C828 N825 1.314 . S
C828 C826 1.353 . S
C828 H870 0.930 . S
C829 N825 1.279 . S
C829 C827 1.358 . S
C829 H871 0.930 . S
C830 C831 1.348 . S
C830 C832 1.356 . S
C830 O855 1.325 . S
C831 C830 1.348 . S
C831 C833 1.353 . S
C831 H872 0.929 . S
C832 C830 1.356 . S
C832 C834 1.358 . S
C832 H873 0.930 . S
C833 C831 1.353 . S
C833 N835 1.314 . S
C833 H874 0.930 . S
C834 C832 1.358 . S
C834 N835 1.279 . S
C834 H875 0.930 . S
N835 C833 1.314 . S
N835 C834 1.279 . S
C836 C838 1.353 . S
C836 N839 1.314 . S
C836 H842 0.930 . S
C837 N839 1.279 . S
C837 C840 1.358 . S
C837 H843 0.930 . S
C838 C836 1.353 . S
C838 C841 1.348 . S
C838 H876 0.929 . S
N839 Li794 1.990 . S
N839 C836 1.314 . S
N839 C837 1.279 . S
C840 C837 1.358 . S
C840 C841 1.356 . S
C840 H877 0.930 . S
C841 C838 1.348 . S
C841 C840 1.356 . S
H842 C836 0.930 . S
H843 C837 0.930 . S
C844 N845 1.314 . S
C844 C846 1.353 . S
C844 H850 0.930 . S
N845 Li795 1.990 . S
N845 C844 1.314 . S
N845 C848 1.279 . S
C846 C844 1.353 . S
C846 C849 1.348 . S
C846 H878 0.929 . S
C847 C848 1.358 . S
C847 C849 1.356 . S
C847 H879 0.930 . S
C848 N845 1.279 . S
C848 C847 1.358 . S
C848 H851 0.930 . S
C849 C846 1.348 . S
C849 C847 1.356 . S
H850 C844 0.930 . S
H851 C848 0.930 . S
O852 Li792 1.956 . S
O852 Li793 1.970 . S
O852 Li794 1.961 . S
O852 C796 1.325 . S
O853 Li792 1.970 . S
O853 Li793 1.956 . S
O853 Li795 1.961 . S
O853 C802 1.325 . S
O854 Li792 1.961 . S
O854 Li794 1.956 . S
O854 Li795 1.970 . S
O854 C824 1.325 . S
O855 Li793 1.961 . S
O855 Li794 1.970 . S
O855 Li795 1.956 . S
O855 C830 1.325 . S
H856 C798 0.929 . S
H857 C799 0.930 . S
H858 C800 0.930 . S
H859 C801 0.930 . S
H860 C803 0.930 . S
H861 C805 0.929 . S
H862 C806 0.930 . S
H863 C807 0.930 . S
H864 C810 0.930 . S
H865 C813 0.929 . S
H866 C818 0.929 . S
H867 C819 0.930 . S
H868 C826 0.929 . S
H869 C827 0.930 . S
H870 C828 0.930 . S
H871 C829 0.930 . S
H872 C831 0.929 . S
H873 C832 0.930 . S
H874 C833 0.930 . S
H875 C834 0.930 . S
H876 C838 0.929 . S
H877 C840 0.930 . S
H878 C846 0.929 . S
H879 C847 0.930 . S
Li880 N897 1.990 . S
Li880 O940 1.956 . S
Li880 O941 1.970 . S
Li880 O942 1.961 . S
Li881 N905 1.990 . S
Li881 O940 1.970 . S
Li881 O941 1.956 . S
Li881 O943 1.961 . S
Li882 N927 1.990 . S
Li882 O940 1.961 . S
Li882 O942 1.956 . S
Li882 O943 1.970 . S
Li883 N933 1.990 . S
Li883 O941 1.961 . S
Li883 O942 1.970 . S
Li883 O943 1.956 . S
C884 C886 1.348 . S
C884 C887 1.356 . S
C884 O940 1.325 . S
N885 C888 1.314 . S
N885 C889 1.279 . S
C886 C884 1.348 . S
C886 C888 1.353 . S
C886 H944 0.929 . S
C887 C884 1.356 . S
C887 C889 1.358 . S
C887 H945 0.930 . S
C888 N885 1.314 . S
C888 C886 1.353 . S
C888 H946 0.930 . S
C889 N885 1.279 . S
C889 C887 1.358 . S
C889 H947 0.930 . S
C890 C893 1.348 . S
C890 C894 1.356 . S
C890 O941 1.325 . S
C891 N892 1.279 . S
C891 C894 1.358 . S
C891 H948 0.930 . S
N892 C891 1.279 . S
N892 C895 1.314 . S
C893 C890 1.348 . S
C893 C895 1.353 . S
C893 H949 0.929 . S
C894 C890 1.356 . S
C894 C891 1.358 . S
C894 H950 0.930 . S
C895 N892 1.314 . S
C895 C893 1.353 . S
C895 H951 0.930 . S
C896 N897 1.314 . S
C896 C901 1.353 . S
C896 H902 0.930 . S
N897 Li880 1.990 . S
N897 C896 1.314 . S
N897 C899 1.279 . S
C898 C899 1.358 . S
C898 C900 1.356 . S
C898 H952 0.930 . S
C899 N897 1.279 . S
C899 C898 1.358 . S
C899 H903 0.930 . S
C900 C898 1.356 . S
C900 C901 1.348 . S
C901 C896 1.353 . S
C901 C900 1.348 . S
C901 H953 0.929 . S
H902 C896 0.930 . S
H903 C899 0.930 . S
C904 N905 1.314 . S
C904 C906 1.353 . S
C904 H910 0.930 . S
N905 Li881 1.990 . S
N905 C904 1.314 . S
N905 C908 1.279 . S
C906 C904 1.353 . S
C906 C909 1.348 . S
C906 H954 0.929 . S
C907 C908 1.358 . S
C907 C909 1.356 . S
C907 H955 0.930 . S
C908 N905 1.279 . S
C908 C907 1.358 . S
C908 H911 0.930 . S
C909 C906 1.348 . S
C909 C907 1.356 . S
H910 C904 0.930 . S
H911 C908 0.930 . S
C912 C914 1.348 . S
C912 C915 1.356 . S
C912 O942 1.325 . S
N913 C916 1.314 . S
N913 C917 1.279 . S
C914 C912 1.348 . S
C914 C916 1.353 . S
C914 H956 0.929 . S
C915 C912 1.356 . S
C915 C917 1.358 . S
C915 H957 0.930 . S
C916 N913 1.314 . S
C916 C914 1.353 . S
C916 H958 0.930 . S
C917 N913 1.279 . S
C917 C915 1.358 . S
C917 H959 0.930 . S
C918 C919 1.348 . S
C918 C920 1.356 . S
C918 O943 1.325 . S
C919 C918 1.348 . S
C919 C921 1.353 . S
C919 H960 0.929 . S
C920 C918 1.356 . S
C920 C922 1.358 . S
C920 H961 0.930 . S
C921 C919 1.353 . S
C921 N923 1.314 . S
C921 H962 0.930 . S
C922 C920 1.358 . S
C922 N923 1.279 . S
C922 H963 0.930 . S
N923 C921 1.314 . S
N923 C922 1.279 . S
C924 C926 1.353 . S
C924 N927 1.314 . S
C924 H930 0.930 . S
C925 N927 1.279 . S
C925 C928 1.358 . S
C925 H931 0.930 . S
C926 C924 1.353 . S
C926 C929 1.348 . S
C926 H964 0.929 . S
N927 Li882 1.990 . S
N927 C924 1.314 . S
N927 C925 1.279 . S
C928 C925 1.358 . S
C928 C929 1.356 . S
C928 H965 0.930 . S
C929 C926 1.348 . S
C929 C928 1.356 . S
H930 C924 0.930 . S
H931 C925 0.930 . S
C932 N933 1.314 . S
C932 C934 1.353 . S
C932 H938 0.930 . S
N933 Li883 1.990 . S
N933 C932 1.314 . S
N933 C936 1.279 . S
C934 C932 1.353 . S
C934 C937 1.348 . S
C934 H966 0.929 . S
C935 C936 1.358 . S
C935 C937 1.356 . S
C935 H967 0.930 . S
C936 N933 1.279 . S
C936 C935 1.358 . S
C936 H939 0.930 . S
C937 C934 1.348 . S
C937 C935 1.356 . S
H938 C932 0.930 . S
H939 C936 0.930 . S
O940 Li880 1.956 . S
O940 Li881 1.970 . S
O940 Li882 1.961 . S
O940 C884 1.325 . S
O941 Li880 1.970 . S
O941 Li881 1.956 . S
O941 Li883 1.961 . S
O941 C890 1.325 . S
O942 Li880 1.961 . S
O942 Li882 1.956 . S
O942 Li883 1.970 . S
O942 C912 1.325 . S
O943 Li881 1.961 . S
O943 Li882 1.970 . S
O943 Li883 1.956 . S
O943 C918 1.325 . S
H944 C886 0.929 . S
H945 C887 0.930 . S
H946 C888 0.930 . S
H947 C889 0.930 . S
H948 C891 0.930 . S
H949 C893 0.929 . S
H950 C894 0.930 . S
H951 C895 0.930 . S
H952 C898 0.930 . S
H953 C901 0.929 . S
H954 C906 0.929 . S
H955 C907 0.930 . S
H956 C914 0.929 . S
H957 C915 0.930 . S
H958 C916 0.930 . S
H959 C917 0.930 . S
H960 C919 0.929 . S
H961 C920 0.930 . S
H962 C921 0.930 . S
H963 C922 0.930 . S
H964 C926 0.929 . S
H965 C928 0.930 . S
H966 C934 0.929 . S
H967 C935 0.930 . S
Li968 N985 1.990 . S
Li968 O1028 1.956 . S
Li968 O1029 1.970 . S
Li968 O1030 1.961 . S
Li969 N993 1.990 . S
Li969 O1028 1.970 . S
Li969 O1029 1.956 . S
Li969 O1031 1.961 . S
Li970 N1015 1.990 . S
Li970 O1028 1.961 . S
Li970 O1030 1.956 . S
Li970 O1031 1.970 . S
Li971 N1021 1.990 . S
Li971 O1029 1.961 . S
Li971 O1030 1.970 . S
Li971 O1031 1.956 . S
C972 C974 1.348 . S
C972 C975 1.356 . S
C972 O1028 1.325 . S
N973 C976 1.314 . S
N973 C977 1.279 . S
C974 C972 1.348 . S
C974 C976 1.353 . S
C974 H1032 0.929 . S
C975 C972 1.356 . S
C975 C977 1.358 . S
C975 H1033 0.930 . S
C976 N973 1.314 . S
C976 C974 1.353 . S
C976 H1034 0.930 . S
C977 N973 1.279 . S
C977 C975 1.358 . S
C977 H1035 0.930 . S
C978 C981 1.348 . S
C978 C982 1.356 . S
C978 O1029 1.325 . S
C979 N980 1.279 . S
C979 C982 1.358 . S
C979 H1036 0.930 . S
N980 C979 1.279 . S
N980 C983 1.314 . S
C981 C978 1.348 . S
C981 C983 1.353 . S
C981 H1037 0.929 . S
C982 C978 1.356 . S
C982 C979 1.358 . S
C982 H1038 0.930 . S
C983 N980 1.314 . S
C983 C981 1.353 . S
C983 H1039 0.930 . S
C984 N985 1.314 . S
C984 C989 1.353 . S
C984 H990 0.930 . S
N985 Li968 1.990 . S
N985 C984 1.314 . S
N985 C987 1.279 . S
C986 C987 1.358 . S
C986 C988 1.356 . S
C986 H1040 0.930 . S
C987 N985 1.279 . S
C987 C986 1.358 . S
C987 H991 0.930 . S
C988 C986 1.356 . S
C988 C989 1.348 . S
C989 C984 1.353 . S
C989 C988 1.348 . S
C989 H1041 0.929 . S
H990 C984 0.930 . S
H991 C987 0.930 . S
C992 N993 1.314 . S
C992 C994 1.353 . S
C992 H998 0.930 . S
N993 Li969 1.990 . S
N993 C992 1.314 . S
N993 C996 1.279 . S
C994 C992 1.353 . S
C994 C997 1.348 . S
C994 H1042 0.929 . S
C995 C996 1.358 . S
C995 C997 1.356 . S
C995 H1043 0.930 . S
C996 N993 1.279 . S
C996 C995 1.358 . S
C996 H999 0.930 . S
C997 C994 1.348 . S
C997 C995 1.356 . S
H998 C992 0.930 . S
H999 C996 0.930 . S
C1000 C1002 1.348 . S
C1000 C1003 1.356 . S
C1000 O1030 1.325 . S
N1001 C1004 1.314 . S
N1001 C1005 1.279 . S
C1002 C1000 1.348 . S
C1002 C1004 1.353 . S
C1002 H1044 0.929 . S
C1003 C1000 1.356 . S
C1003 C1005 1.358 . S
C1003 H1045 0.930 . S
C1004 N1001 1.314 . S
C1004 C1002 1.353 . S
C1004 H1046 0.930 . S
C1005 N1001 1.279 . S
C1005 C1003 1.358 . S
C1005 H1047 0.930 . S
C1006 C1007 1.348 . S
C1006 C1008 1.356 . S
C1006 O1031 1.325 . S
C1007 C1006 1.348 . S
C1007 C1009 1.353 . S
C1007 H1048 0.929 . S
C1008 C1006 1.356 . S
C1008 C1010 1.358 . S
C1008 H1049 0.930 . S
C1009 C1007 1.353 . S
C1009 N1011 1.314 . S
C1009 H1050 0.930 . S
C1010 C1008 1.358 . S
C1010 N1011 1.279 . S
C1010 H1051 0.930 . S
N1011 C1009 1.314 . S
N1011 C1010 1.279 . S
C1012 C1014 1.353 . S
C1012 N1015 1.314 . S
C1012 H1018 0.930 . S
C1013 N1015 1.279 . S
C1013 C1016 1.358 . S
C1013 H1019 0.930 . S
C1014 C1012 1.353 . S
C1014 C1017 1.348 . S
C1014 H1052 0.929 . S
N1015 Li970 1.990 . S
N1015 C1012 1.314 . S
N1015 C1013 1.279 . S
C1016 C1013 1.358 . S
C1016 C1017 1.356 . S
C1016 H1053 0.930 . S
C1017 C1014 1.348 . S
C1017 C1016 1.356 . S
H1018 C1012 0.930 . S
H1019 C1013 0.930 . S
C1020 N1021 1.314 . S
C1020 C1022 1.353 . S
C1020 H1026 0.930 . S
N1021 Li971 1.990 . S
N1021 C1020 1.314 . S
N1021 C1024 1.279 . S
C1022 C1020 1.353 . S
C1022 C1025 1.348 . S
C1022 H1054 0.929 . S
C1023 C1024 1.358 . S
C1023 C1025 1.356 . S
C1023 H1055 0.930 . S
C1024 N1021 1.279 . S
C1024 C1023 1.358 . S
C1024 H1027 0.930 . S
C1025 C1022 1.348 . S
C1025 C1023 1.356 . S
H1026 C1020 0.930 . S
H1027 C1024 0.930 . S
O1028 Li968 1.956 . S
O1028 Li969 1.970 . S
O1028 Li970 1.961 . S
O1028 C972 1.325 . S
O1029 Li968 1.970 . S
O1029 Li969 1.956 . S
O1029 Li971 1.961 . S
O1029 C978 1.325 . S
O1030 Li968 1.961 . S
O1030 Li970 1.956 . S
O1030 Li971 1.970 . S
O1030 C1000 1.325 . S
O1031 Li969 1.961 . S
O1031 Li970 1.970 . S
O1031 Li971 1.956 . S
O1031 C1006 1.325 . S
H1032 C974 0.929 . S
H1033 C975 0.930 . S
H1034 C976 0.930 . S
H1035 C977 0.930 . S
H1036 C979 0.930 . S
H1037 C981 0.929 . S
H1038 C982 0.930 . S
H1039 C983 0.930 . S
H1040 C986 0.930 . S
H1041 C989 0.929 . S
H1042 C994 0.929 . S
H1043 C995 0.930 . S
H1044 C1002 0.929 . S
H1045 C1003 0.930 . S
H1046 C1004 0.930 . S
H1047 C1005 0.930 . S
H1048 C1007 0.929 . S
H1049 C1008 0.930 . S
H1050 C1009 0.930 . S
H1051 C1010 0.930 . S
H1052 C1014 0.929 . S
H1053 C1016 0.930 . S
H1054 C1022 0.929 . S
H1055 C1023 0.930 . S
Li1056 N1073 1.990 . S
Li1056 O1116 1.956 . S
Li1056 O1117 1.970 . S
Li1056 O1118 1.961 . S
Li1057 N1081 1.990 . S
Li1057 O1116 1.970 . S
Li1057 O1117 1.956 . S
Li1057 O1119 1.961 . S
Li1058 N1103 1.990 . S
Li1058 O1116 1.961 . S
Li1058 O1118 1.956 . S
Li1058 O1119 1.970 . S
Li1059 N1109 1.990 . S
Li1059 O1117 1.961 . S
Li1059 O1118 1.970 . S
Li1059 O1119 1.956 . S
C1060 C1062 1.348 . S
C1060 C1063 1.356 . S
C1060 O1116 1.325 . S
N1061 C1064 1.314 . S
N1061 C1065 1.279 . S
C1062 C1060 1.348 . S
C1062 C1064 1.353 . S
C1062 H1120 0.929 . S
C1063 C1060 1.356 . S
C1063 C1065 1.358 . S
C1063 H1121 0.930 . S
C1064 N1061 1.314 . S
C1064 C1062 1.353 . S
C1064 H1122 0.930 . S
C1065 N1061 1.279 . S
C1065 C1063 1.358 . S
C1065 H1123 0.930 . S
C1066 C1069 1.348 . S
C1066 C1070 1.356 . S
C1066 O1117 1.325 . S
C1067 N1068 1.279 . S
C1067 C1070 1.358 . S
C1067 H1124 0.930 . S
N1068 C1067 1.279 . S
N1068 C1071 1.314 . S
C1069 C1066 1.348 . S
C1069 C1071 1.353 . S
C1069 H1125 0.929 . S
C1070 C1066 1.356 . S
C1070 C1067 1.358 . S
C1070 H1126 0.930 . S
C1071 N1068 1.314 . S
C1071 C1069 1.353 . S
C1071 H1127 0.930 . S
C1072 N1073 1.314 . S
C1072 C1077 1.353 . S
C1072 H1078 0.930 . S
N1073 Li1056 1.990 . S
N1073 C1072 1.314 . S
N1073 C1075 1.279 . S
C1074 C1075 1.358 . S
C1074 C1076 1.356 . S
C1074 H1128 0.930 . S
C1075 N1073 1.279 . S
C1075 C1074 1.358 . S
C1075 H1079 0.930 . S
C1076 C1074 1.356 . S
C1076 C1077 1.348 . S
C1077 C1072 1.353 . S
C1077 C1076 1.348 . S
C1077 H1129 0.929 . S
H1078 C1072 0.930 . S
H1079 C1075 0.930 . S
C1080 N1081 1.314 . S
C1080 C1082 1.353 . S
C1080 H1086 0.930 . S
N1081 Li1057 1.990 . S
N1081 C1080 1.314 . S
N1081 C1084 1.279 . S
C1082 C1080 1.353 . S
C1082 C1085 1.348 . S
C1082 H1130 0.929 . S
C1083 C1084 1.358 . S
C1083 C1085 1.356 . S
C1083 H1131 0.930 . S
C1084 N1081 1.279 . S
C1084 C1083 1.358 . S
C1084 H1087 0.930 . S
C1085 C1082 1.348 . S
C1085 C1083 1.356 . S
H1086 C1080 0.930 . S
H1087 C1084 0.930 . S
C1088 C1090 1.348 . S
C1088 C1091 1.356 . S
C1088 O1118 1.325 . S
N1089 C1092 1.314 . S
N1089 C1093 1.279 . S
C1090 C1088 1.348 . S
C1090 C1092 1.353 . S
C1090 H1132 0.929 . S
C1091 C1088 1.356 . S
C1091 C1093 1.358 . S
C1091 H1133 0.930 . S
C1092 N1089 1.314 . S
C1092 C1090 1.353 . S
C1092 H1134 0.930 . S
C1093 N1089 1.279 . S
C1093 C1091 1.358 . S
C1093 H1135 0.930 . S
C1094 C1095 1.348 . S
C1094 C1096 1.356 . S
C1094 O1119 1.325 . S
C1095 C1094 1.348 . S
C1095 C1097 1.353 . S
C1095 H1136 0.929 . S
C1096 C1094 1.356 . S
C1096 C1098 1.358 . S
C1096 H1137 0.930 . S
C1097 C1095 1.353 . S
C1097 N1099 1.314 . S
C1097 H1138 0.930 . S
C1098 C1096 1.358 . S
C1098 N1099 1.279 . S
C1098 H1139 0.930 . S
N1099 C1097 1.314 . S
N1099 C1098 1.279 . S
C1100 C1102 1.353 . S
C1100 N1103 1.314 . S
C1100 H1106 0.930 . S
C1101 N1103 1.279 . S
C1101 C1104 1.358 . S
C1101 H1107 0.930 . S
C1102 C1100 1.353 . S
C1102 C1105 1.348 . S
C1102 H1140 0.929 . S
N1103 Li1058 1.990 . S
N1103 C1100 1.314 . S
N1103 C1101 1.279 . S
C1104 C1101 1.358 . S
C1104 C1105 1.356 . S
C1104 H1141 0.930 . S
C1105 C1102 1.348 . S
C1105 C1104 1.356 . S
H1106 C1100 0.930 . S
H1107 C1101 0.930 . S
C1108 N1109 1.314 . S
C1108 C1110 1.353 . S
C1108 H1114 0.930 . S
N1109 Li1059 1.990 . S
N1109 C1108 1.314 . S
N1109 C1112 1.279 . S
C1110 C1108 1.353 . S
C1110 C1113 1.348 . S
C1110 H1142 0.929 . S
C1111 C1112 1.358 . S
C1111 C1113 1.356 . S
C1111 H1143 0.930 . S
C1112 N1109 1.279 . S
C1112 C1111 1.358 . S
C1112 H1115 0.930 . S
C1113 C1110 1.348 . S
C1113 C1111 1.356 . S
H1114 C1108 0.930 . S
H1115 C1112 0.930 . S
O1116 Li1056 1.956 . S
O1116 Li1057 1.970 . S
O1116 Li1058 1.961 . S
O1116 C1060 1.325 . S
O1117 Li1056 1.970 . S
O1117 Li1057 1.956 . S
O1117 Li1059 1.961 . S
O1117 C1066 1.325 . S
O1118 Li1056 1.961 . S
O1118 Li1058 1.956 . S
O1118 Li1059 1.970 . S
O1118 C1088 1.325 . S
O1119 Li1057 1.961 . S
O1119 Li1058 1.970 . S
O1119 Li1059 1.956 . S
O1119 C1094 1.325 . S
H1120 C1062 0.929 . S
H1121 C1063 0.930 . S
H1122 C1064 0.930 . S
H1123 C1065 0.930 . S
H1124 C1067 0.930 . S
H1125 C1069 0.929 . S
H1126 C1070 0.930 . S
H1127 C1071 0.930 . S
H1128 C1074 0.930 . S
H1129 C1077 0.929 . S
H1130 C1082 0.929 . S
H1131 C1083 0.930 . S
H1132 C1090 0.929 . S
H1133 C1091 0.930 . S
H1134 C1092 0.930 . S
H1135 C1093 0.930 . S
H1136 C1095 0.929 . S
H1137 C1096 0.930 . S
H1138 C1097 0.930 . S
H1139 C1098 0.930 . S
H1140 C1102 0.929 . S
H1141 C1104 0.930 . S
H1142 C1110 0.929 . S
H1143 C1111 0.930 . S
Li1144 N1161 1.990 . S
Li1144 O1204 1.956 . S
Li1144 O1205 1.970 . S
Li1144 O1206 1.961 . S
Li1145 N1169 1.990 . S
Li1145 O1204 1.970 . S
Li1145 O1205 1.956 . S
Li1145 O1207 1.961 . S
Li1146 N1191 1.990 . S
Li1146 O1204 1.961 . S
Li1146 O1206 1.956 . S
Li1146 O1207 1.970 . S
Li1147 N1197 1.990 . S
Li1147 O1205 1.961 . S
Li1147 O1206 1.970 . S
Li1147 O1207 1.956 . S
C1148 C1150 1.348 . S
C1148 C1151 1.356 . S
C1148 O1204 1.325 . S
N1149 C1152 1.314 . S
N1149 C1153 1.279 . S
C1150 C1148 1.348 . S
C1150 C1152 1.353 . S
C1150 H1208 0.929 . S
C1151 C1148 1.356 . S
C1151 C1153 1.358 . S
C1151 H1209 0.930 . S
C1152 N1149 1.314 . S
C1152 C1150 1.353 . S
C1152 H1210 0.930 . S
C1153 N1149 1.279 . S
C1153 C1151 1.358 . S
C1153 H1211 0.930 . S
C1154 C1157 1.348 . S
C1154 C1158 1.356 . S
C1154 O1205 1.325 . S
C1155 N1156 1.279 . S
C1155 C1158 1.358 . S
C1155 H1212 0.930 . S
N1156 C1155 1.279 . S
N1156 C1159 1.314 . S
C1157 C1154 1.348 . S
C1157 C1159 1.353 . S
C1157 H1213 0.929 . S
C1158 C1154 1.356 . S
C1158 C1155 1.358 . S
C1158 H1214 0.930 . S
C1159 N1156 1.314 . S
C1159 C1157 1.353 . S
C1159 H1215 0.930 . S
C1160 N1161 1.314 . S
C1160 C1165 1.353 . S
C1160 H1166 0.930 . S
N1161 Li1144 1.990 . S
N1161 C1160 1.314 . S
N1161 C1163 1.279 . S
C1162 C1163 1.358 . S
C1162 C1164 1.356 . S
C1162 H1216 0.930 . S
C1163 N1161 1.279 . S
C1163 C1162 1.358 . S
C1163 H1167 0.930 . S
C1164 C1162 1.356 . S
C1164 C1165 1.348 . S
C1165 C1160 1.353 . S
C1165 C1164 1.348 . S
C1165 H1217 0.929 . S
H1166 C1160 0.930 . S
H1167 C1163 0.930 . S
C1168 N1169 1.314 . S
C1168 C1170 1.353 . S
C1168 H1174 0.930 . S
N1169 Li1145 1.990 . S
N1169 C1168 1.314 . S
N1169 C1172 1.279 . S
C1170 C1168 1.353 . S
C1170 C1173 1.348 . S
C1170 H1218 0.929 . S
C1171 C1172 1.358 . S
C1171 C1173 1.356 . S
C1171 H1219 0.930 . S
C1172 N1169 1.279 . S
C1172 C1171 1.358 . S
C1172 H1175 0.930 . S
C1173 C1170 1.348 . S
C1173 C1171 1.356 . S
H1174 C1168 0.930 . S
H1175 C1172 0.930 . S
C1176 C1178 1.348 . S
C1176 C1179 1.356 . S
C1176 O1206 1.325 . S
N1177 C1180 1.314 . S
N1177 C1181 1.279 . S
C1178 C1176 1.348 . S
C1178 C1180 1.353 . S
C1178 H1220 0.929 . S
C1179 C1176 1.356 . S
C1179 C1181 1.358 . S
C1179 H1221 0.930 . S
C1180 N1177 1.314 . S
C1180 C1178 1.353 . S
C1180 H1222 0.930 . S
C1181 N1177 1.279 . S
C1181 C1179 1.358 . S
C1181 H1223 0.930 . S
C1182 C1183 1.348 . S
C1182 C1184 1.356 . S
C1182 O1207 1.325 . S
C1183 C1182 1.348 . S
C1183 C1185 1.353 . S
C1183 H1224 0.929 . S
C1184 C1182 1.356 . S
C1184 C1186 1.358 . S
C1184 H1225 0.930 . S
C1185 C1183 1.353 . S
C1185 N1187 1.314 . S
C1185 H1226 0.930 . S
C1186 C1184 1.358 . S
C1186 N1187 1.279 . S
C1186 H1227 0.930 . S
N1187 C1185 1.314 . S
N1187 C1186 1.279 . S
C1188 C1190 1.353 . S
C1188 N1191 1.314 . S
C1188 H1194 0.930 . S
C1189 N1191 1.279 . S
C1189 C1192 1.358 . S
C1189 H1195 0.930 . S
C1190 C1188 1.353 . S
C1190 C1193 1.348 . S
C1190 H1228 0.929 . S
N1191 Li1146 1.990 . S
N1191 C1188 1.314 . S
N1191 C1189 1.279 . S
C1192 C1189 1.358 . S
C1192 C1193 1.356 . S
C1192 H1229 0.930 . S
C1193 C1190 1.348 . S
C1193 C1192 1.356 . S
H1194 C1188 0.930 . S
H1195 C1189 0.930 . S
C1196 N1197 1.314 . S
C1196 C1198 1.353 . S
C1196 H1202 0.930 . S
N1197 Li1147 1.990 . S
N1197 C1196 1.314 . S
N1197 C1200 1.279 . S
C1198 C1196 1.353 . S
C1198 C1201 1.348 . S
C1198 H1230 0.929 . S
C1199 C1200 1.358 . S
C1199 C1201 1.356 . S
C1199 H1231 0.930 . S
C1200 N1197 1.279 . S
C1200 C1199 1.358 . S
C1200 H1203 0.930 . S
C1201 C1198 1.348 . S
C1201 C1199 1.356 . S
H1202 C1196 0.930 . S
H1203 C1200 0.930 . S
O1204 Li1144 1.956 . S
O1204 Li1145 1.970 . S
O1204 Li1146 1.961 . S
O1204 C1148 1.325 . S
O1205 Li1144 1.970 . S
O1205 Li1145 1.956 . S
O1205 Li1147 1.961 . S
O1205 C1154 1.325 . S
O1206 Li1144 1.961 . S
O1206 Li1146 1.956 . S
O1206 Li1147 1.970 . S
O1206 C1176 1.325 . S
O1207 Li1145 1.961 . S
O1207 Li1146 1.970 . S
O1207 Li1147 1.956 . S
O1207 C1182 1.325 . S
H1208 C1150 0.929 . S
H1209 C1151 0.930 . S
H1210 C1152 0.930 . S
H1211 C1153 0.930 . S
H1212 C1155 0.930 . S
H1213 C1157 0.929 . S
H1214 C1158 0.930 . S
H1215 C1159 0.930 . S
H1216 C1162 0.930 . S
H1217 C1165 0.929 . S
H1218 C1170 0.929 . S
H1219 C1171 0.930 . S
H1220 C1178 0.929 . S
H1221 C1179 0.930 . S
H1222 C1180 0.930 . S
H1223 C1181 0.930 . S
H1224 C1183 0.929 . S
H1225 C1184 0.930 . S
H1226 C1185 0.930 . S
H1227 C1186 0.930 . S
H1228 C1190 0.929 . S
H1229 C1192 0.930 . S
H1230 C1198 0.929 . S
H1231 C1199 0.930 . S
Li1232 N1249 1.990 . S
Li1232 O1292 1.956 . S
Li1232 O1293 1.970 . S
Li1232 O1294 1.961 . S
Li1233 N1257 1.990 . S
Li1233 O1292 1.970 . S
Li1233 O1293 1.956 . S
Li1233 O1295 1.961 . S
Li1234 N1279 1.990 . S
Li1234 O1292 1.961 . S
Li1234 O1294 1.956 . S
Li1234 O1295 1.970 . S
Li1235 N1285 1.990 . S
Li1235 O1293 1.961 . S
Li1235 O1294 1.970 . S
Li1235 O1295 1.956 . S
C1236 C1238 1.348 . S
C1236 C1239 1.356 . S
C1236 O1292 1.325 . S
N1237 C1240 1.314 . S
N1237 C1241 1.279 . S
C1238 C1236 1.348 . S
C1238 C1240 1.353 . S
C1238 H1296 0.929 . S
C1239 C1236 1.356 . S
C1239 C1241 1.358 . S
C1239 H1297 0.930 . S
C1240 N1237 1.314 . S
C1240 C1238 1.353 . S
C1240 H1298 0.930 . S
C1241 N1237 1.279 . S
C1241 C1239 1.358 . S
C1241 H1299 0.930 . S
C1242 C1245 1.348 . S
C1242 C1246 1.356 . S
C1242 O1293 1.325 . S
C1243 N1244 1.279 . S
C1243 C1246 1.358 . S
C1243 H1300 0.930 . S
N1244 C1243 1.279 . S
N1244 C1247 1.314 . S
C1245 C1242 1.348 . S
C1245 C1247 1.353 . S
C1245 H1301 0.929 . S
C1246 C1242 1.356 . S
C1246 C1243 1.358 . S
C1246 H1302 0.930 . S
C1247 N1244 1.314 . S
C1247 C1245 1.353 . S
C1247 H1303 0.930 . S
C1248 N1249 1.314 . S
C1248 C1253 1.353 . S
C1248 H1254 0.930 . S
N1249 Li1232 1.990 . S
N1249 C1248 1.314 . S
N1249 C1251 1.279 . S
C1250 C1251 1.358 . S
C1250 C1252 1.356 . S
C1250 H1304 0.930 . S
C1251 N1249 1.279 . S
C1251 C1250 1.358 . S
C1251 H1255 0.930 . S
C1252 C1250 1.356 . S
C1252 C1253 1.348 . S
C1253 C1248 1.353 . S
C1253 C1252 1.348 . S
C1253 H1305 0.929 . S
H1254 C1248 0.930 . S
H1255 C1251 0.930 . S
C1256 N1257 1.314 . S
C1256 C1258 1.353 . S
C1256 H1262 0.930 . S
N1257 Li1233 1.990 . S
N1257 C1256 1.314 . S
N1257 C1260 1.279 . S
C1258 C1256 1.353 . S
C1258 C1261 1.348 . S
C1258 H1306 0.929 . S
C1259 C1260 1.358 . S
C1259 C1261 1.356 . S
C1259 H1307 0.930 . S
C1260 N1257 1.279 . S
C1260 C1259 1.358 . S
C1260 H1263 0.930 . S
C1261 C1258 1.348 . S
C1261 C1259 1.356 . S
H1262 C1256 0.930 . S
H1263 C1260 0.930 . S
C1264 C1266 1.348 . S
C1264 C1267 1.356 . S
C1264 O1294 1.325 . S
N1265 C1268 1.314 . S
N1265 C1269 1.279 . S
C1266 C1264 1.348 . S
C1266 C1268 1.353 . S
C1266 H1308 0.929 . S
C1267 C1264 1.356 . S
C1267 C1269 1.358 . S
C1267 H1309 0.930 . S
C1268 N1265 1.314 . S
C1268 C1266 1.353 . S
C1268 H1310 0.930 . S
C1269 N1265 1.279 . S
C1269 C1267 1.358 . S
C1269 H1311 0.930 . S
C1270 C1271 1.348 . S
C1270 C1272 1.356 . S
C1270 O1295 1.325 . S
C1271 C1270 1.348 . S
C1271 C1273 1.353 . S
C1271 H1312 0.929 . S
C1272 C1270 1.356 . S
C1272 C1274 1.358 . S
C1272 H1313 0.930 . S
C1273 C1271 1.353 . S
C1273 N1275 1.314 . S
C1273 H1314 0.930 . S
C1274 C1272 1.358 . S
C1274 N1275 1.279 . S
C1274 H1315 0.930 . S
N1275 C1273 1.314 . S
N1275 C1274 1.279 . S
C1276 C1278 1.353 . S
C1276 N1279 1.314 . S
C1276 H1282 0.930 . S
C1277 N1279 1.279 . S
C1277 C1280 1.358 . S
C1277 H1283 0.930 . S
C1278 C1276 1.353 . S
C1278 C1281 1.348 . S
C1278 H1316 0.929 . S
N1279 Li1234 1.990 . S
N1279 C1276 1.314 . S
N1279 C1277 1.279 . S
C1280 C1277 1.358 . S
C1280 C1281 1.356 . S
C1280 H1317 0.930 . S
C1281 C1278 1.348 . S
C1281 C1280 1.356 . S
H1282 C1276 0.930 . S
H1283 C1277 0.930 . S
C1284 N1285 1.314 . S
C1284 C1286 1.353 . S
C1284 H1290 0.930 . S
N1285 Li1235 1.990 . S
N1285 C1284 1.314 . S
N1285 C1288 1.279 . S
C1286 C1284 1.353 . S
C1286 C1289 1.348 . S
C1286 H1318 0.929 . S
C1287 C1288 1.358 . S
C1287 C1289 1.356 . S
C1287 H1319 0.930 . S
C1288 N1285 1.279 . S
C1288 C1287 1.358 . S
C1288 H1291 0.930 . S
C1289 C1286 1.348 . S
C1289 C1287 1.356 . S
H1290 C1284 0.930 . S
H1291 C1288 0.930 . S
O1292 Li1232 1.956 . S
O1292 Li1233 1.970 . S
O1292 Li1234 1.961 . S
O1292 C1236 1.325 . S
O1293 Li1232 1.970 . S
O1293 Li1233 1.956 . S
O1293 Li1235 1.961 . S
O1293 C1242 1.325 . S
O1294 Li1232 1.961 . S
O1294 Li1234 1.956 . S
O1294 Li1235 1.970 . S
O1294 C1264 1.325 . S
O1295 Li1233 1.961 . S
O1295 Li1234 1.970 . S
O1295 Li1235 1.956 . S
O1295 C1270 1.325 . S
H1296 C1238 0.929 . S
H1297 C1239 0.930 . S
H1298 C1240 0.930 . S
H1299 C1241 0.930 . S
H1300 C1243 0.930 . S
H1301 C1245 0.929 . S
H1302 C1246 0.930 . S
H1303 C1247 0.930 . S
H1304 C1250 0.930 . S
H1305 C1253 0.929 . S
H1306 C1258 0.929 . S
H1307 C1259 0.930 . S
H1308 C1266 0.929 . S
H1309 C1267 0.930 . S
H1310 C1268 0.930 . S
H1311 C1269 0.930 . S
H1312 C1271 0.929 . S
H1313 C1272 0.930 . S
H1314 C1273 0.930 . S
H1315 C1274 0.930 . S
H1316 C1278 0.929 . S
H1317 C1280 0.930 . S
H1318 C1286 0.929 . S
H1319 C1287 0.930 . S
Li1320 N1337 1.990 . S
Li1320 O1380 1.956 . S
Li1320 O1381 1.970 . S
Li1320 O1382 1.961 . S
Li1321 N1345 1.990 . S
Li1321 O1380 1.970 . S
Li1321 O1381 1.956 . S
Li1321 O1383 1.961 . S
Li1322 N1367 1.990 . S
Li1322 O1380 1.961 . S
Li1322 O1382 1.956 . S
Li1322 O1383 1.970 . S
Li1323 N1373 1.990 . S
Li1323 O1381 1.961 . S
Li1323 O1382 1.970 . S
Li1323 O1383 1.956 . S
C1324 C1326 1.348 . S
C1324 C1327 1.356 . S
C1324 O1380 1.325 . S
N1325 C1328 1.314 . S
N1325 C1329 1.279 . S
C1326 C1324 1.348 . S
C1326 C1328 1.353 . S
C1326 H1384 0.929 . S
C1327 C1324 1.356 . S
C1327 C1329 1.358 . S
C1327 H1385 0.930 . S
C1328 N1325 1.314 . S
C1328 C1326 1.353 . S
C1328 H1386 0.930 . S
C1329 N1325 1.279 . S
C1329 C1327 1.358 . S
C1329 H1387 0.930 . S
C1330 C1333 1.348 . S
C1330 C1334 1.356 . S
C1330 O1381 1.325 . S
C1331 N1332 1.279 . S
C1331 C1334 1.358 . S
C1331 H1388 0.930 . S
N1332 C1331 1.279 . S
N1332 C1335 1.314 . S
C1333 C1330 1.348 . S
C1333 C1335 1.353 . S
C1333 H1389 0.929 . S
C1334 C1330 1.356 . S
C1334 C1331 1.358 . S
C1334 H1390 0.930 . S
C1335 N1332 1.314 . S
C1335 C1333 1.353 . S
C1335 H1391 0.930 . S
C1336 N1337 1.314 . S
C1336 C1341 1.353 . S
C1336 H1342 0.930 . S
N1337 Li1320 1.990 . S
N1337 C1336 1.314 . S
N1337 C1339 1.279 . S
C1338 C1339 1.358 . S
C1338 C1340 1.356 . S
C1338 H1392 0.930 . S
C1339 N1337 1.279 . S
C1339 C1338 1.358 . S
C1339 H1343 0.930 . S
C1340 C1338 1.356 . S
C1340 C1341 1.348 . S
C1341 C1336 1.353 . S
C1341 C1340 1.348 . S
C1341 H1393 0.929 . S
H1342 C1336 0.930 . S
H1343 C1339 0.930 . S
C1344 N1345 1.314 . S
C1344 C1346 1.353 . S
C1344 H1350 0.930 . S
N1345 Li1321 1.990 . S
N1345 C1344 1.314 . S
N1345 C1348 1.279 . S
C1346 C1344 1.353 . S
C1346 C1349 1.348 . S
C1346 H1394 0.929 . S
C1347 C1348 1.358 . S
C1347 C1349 1.356 . S
C1347 H1395 0.930 . S
C1348 N1345 1.279 . S
C1348 C1347 1.358 . S
C1348 H1351 0.930 . S
C1349 C1346 1.348 . S
C1349 C1347 1.356 . S
H1350 C1344 0.930 . S
H1351 C1348 0.930 . S
C1352 C1354 1.348 . S
C1352 C1355 1.356 . S
C1352 O1382 1.325 . S
N1353 C1356 1.314 . S
N1353 C1357 1.279 . S
C1354 C1352 1.348 . S
C1354 C1356 1.353 . S
C1354 H1396 0.929 . S
C1355 C1352 1.356 . S
C1355 C1357 1.358 . S
C1355 H1397 0.930 . S
C1356 N1353 1.314 . S
C1356 C1354 1.353 . S
C1356 H1398 0.930 . S
C1357 N1353 1.279 . S
C1357 C1355 1.358 . S
C1357 H1399 0.930 . S
C1358 C1359 1.348 . S
C1358 C1360 1.356 . S
C1358 O1383 1.325 . S
C1359 C1358 1.348 . S
C1359 C1361 1.353 . S
C1359 H1400 0.929 . S
C1360 C1358 1.356 . S
C1360 C1362 1.358 . S
C1360 H1401 0.930 . S
C1361 C1359 1.353 . S
C1361 N1363 1.314 . S
C1361 H1402 0.930 . S
C1362 C1360 1.358 . S
C1362 N1363 1.279 . S
C1362 H1403 0.930 . S
N1363 C1361 1.314 . S
N1363 C1362 1.279 . S
C1364 C1366 1.353 . S
C1364 N1367 1.314 . S
C1364 H1370 0.930 . S
C1365 N1367 1.279 . S
C1365 C1368 1.358 . S
C1365 H1371 0.930 . S
C1366 C1364 1.353 . S
C1366 C1369 1.348 . S
C1366 H1404 0.929 . S
N1367 Li1322 1.990 . S
N1367 C1364 1.314 . S
N1367 C1365 1.279 . S
C1368 C1365 1.358 . S
C1368 C1369 1.356 . S
C1368 H1405 0.930 . S
C1369 C1366 1.348 . S
C1369 C1368 1.356 . S
H1370 C1364 0.930 . S
H1371 C1365 0.930 . S
C1372 N1373 1.314 . S
C1372 C1374 1.353 . S
C1372 H1378 0.930 . S
N1373 Li1323 1.990 . S
N1373 C1372 1.314 . S
N1373 C1376 1.279 . S
C1374 C1372 1.353 . S
C1374 C1377 1.348 . S
C1374 H1406 0.929 . S
C1375 C1376 1.358 . S
C1375 C1377 1.356 . S
C1375 H1407 0.930 . S
C1376 N1373 1.279 . S
C1376 C1375 1.358 . S
C1376 H1379 0.930 . S
C1377 C1374 1.348 . S
C1377 C1375 1.356 . S
H1378 C1372 0.930 . S
H1379 C1376 0.930 . S
O1380 Li1320 1.956 . S
O1380 Li1321 1.970 . S
O1380 Li1322 1.961 . S
O1380 C1324 1.325 . S
O1381 Li1320 1.970 . S
O1381 Li1321 1.956 . S
O1381 Li1323 1.961 . S
O1381 C1330 1.325 . S
O1382 Li1320 1.961 . S
O1382 Li1322 1.956 . S
O1382 Li1323 1.970 . S
O1382 C1352 1.325 . S
O1383 Li1321 1.961 . S
O1383 Li1322 1.970 . S
O1383 Li1323 1.956 . S
O1383 C1358 1.325 . S
H1384 C1326 0.929 . S
H1385 C1327 0.930 . S
H1386 C1328 0.930 . S
H1387 C1329 0.930 . S
H1388 C1331 0.930 . S
H1389 C1333 0.929 . S
H1390 C1334 0.930 . S
H1391 C1335 0.930 . S
H1392 C1338 0.930 . S
H1393 C1341 0.929 . S
H1394 C1346 0.929 . S
H1395 C1347 0.930 . S
H1396 C1354 0.929 . S
H1397 C1355 0.930 . S
H1398 C1356 0.930 . S
H1399 C1357 0.930 . S
H1400 C1359 0.929 . S
H1401 C1360 0.930 . S
H1402 C1361 0.930 . S
H1403 C1362 0.930 . S
H1404 C1366 0.929 . S
H1405 C1368 0.930 . S
H1406 C1374 0.929 . S
H1407 C1375 0.930 . S
Li1408 N1425 1.990 . S
Li1408 O1468 1.956 . S
Li1408 O1469 1.970 . S
Li1408 O1470 1.961 . S
Li1409 N1433 1.990 . S
Li1409 O1468 1.970 . S
Li1409 O1469 1.956 . S
Li1409 O1471 1.961 . S
Li1410 N1455 1.990 . S
Li1410 O1468 1.961 . S
Li1410 O1470 1.956 . S
Li1410 O1471 1.970 . S
Li1411 N1461 1.990 . S
Li1411 O1469 1.961 . S
Li1411 O1470 1.970 . S
Li1411 O1471 1.956 . S
C1412 C1414 1.348 . S
C1412 C1415 1.356 . S
C1412 O1468 1.325 . S
N1413 C1416 1.314 . S
N1413 C1417 1.279 . S
C1414 C1412 1.348 . S
C1414 C1416 1.353 . S
C1414 H1472 0.929 . S
C1415 C1412 1.356 . S
C1415 C1417 1.358 . S
C1415 H1473 0.930 . S
C1416 N1413 1.314 . S
C1416 C1414 1.353 . S
C1416 H1474 0.930 . S
C1417 N1413 1.279 . S
C1417 C1415 1.358 . S
C1417 H1475 0.930 . S
C1418 C1421 1.348 . S
C1418 C1422 1.356 . S
C1418 O1469 1.325 . S
C1419 N1420 1.279 . S
C1419 C1422 1.358 . S
C1419 H1476 0.930 . S
N1420 C1419 1.279 . S
N1420 C1423 1.314 . S
C1421 C1418 1.348 . S
C1421 C1423 1.353 . S
C1421 H1477 0.929 . S
C1422 C1418 1.356 . S
C1422 C1419 1.358 . S
C1422 H1478 0.930 . S
C1423 N1420 1.314 . S
C1423 C1421 1.353 . S
C1423 H1479 0.930 . S
C1424 N1425 1.314 . S
C1424 C1429 1.353 . S
C1424 H1430 0.930 . S
N1425 Li1408 1.990 . S
N1425 C1424 1.314 . S
N1425 C1427 1.279 . S
C1426 C1427 1.358 . S
C1426 C1428 1.356 . S
C1426 H1480 0.930 . S
C1427 N1425 1.279 . S
C1427 C1426 1.358 . S
C1427 H1431 0.930 . S
C1428 C1426 1.356 . S
C1428 C1429 1.348 . S
C1429 C1424 1.353 . S
C1429 C1428 1.348 . S
C1429 H1481 0.929 . S
H1430 C1424 0.930 . S
H1431 C1427 0.930 . S
C1432 N1433 1.314 . S
C1432 C1434 1.353 . S
C1432 H1438 0.930 . S
N1433 Li1409 1.990 . S
N1433 C1432 1.314 . S
N1433 C1436 1.279 . S
C1434 C1432 1.353 . S
C1434 C1437 1.348 . S
C1434 H1482 0.929 . S
C1435 C1436 1.358 . S
C1435 C1437 1.356 . S
C1435 H1483 0.930 . S
C1436 N1433 1.279 . S
C1436 C1435 1.358 . S
C1436 H1439 0.930 . S
C1437 C1434 1.348 . S
C1437 C1435 1.356 . S
H1438 C1432 0.930 . S
H1439 C1436 0.930 . S
C1440 C1442 1.348 . S
C1440 C1443 1.356 . S
C1440 O1470 1.325 . S
N1441 C1444 1.314 . S
N1441 C1445 1.279 . S
C1442 C1440 1.348 . S
C1442 C1444 1.353 . S
C1442 H1484 0.929 . S
C1443 C1440 1.356 . S
C1443 C1445 1.358 . S
C1443 H1485 0.930 . S
C1444 N1441 1.314 . S
C1444 C1442 1.353 . S
C1444 H1486 0.930 . S
C1445 N1441 1.279 . S
C1445 C1443 1.358 . S
C1445 H1487 0.930 . S
C1446 C1447 1.348 . S
C1446 C1448 1.356 . S
C1446 O1471 1.325 . S
C1447 C1446 1.348 . S
C1447 C1449 1.353 . S
C1447 H1488 0.929 . S
C1448 C1446 1.356 . S
C1448 C1450 1.358 . S
C1448 H1489 0.930 . S
C1449 C1447 1.353 . S
C1449 N1451 1.314 . S
C1449 H1490 0.930 . S
C1450 C1448 1.358 . S
C1450 N1451 1.279 . S
C1450 H1491 0.930 . S
N1451 C1449 1.314 . S
N1451 C1450 1.279 . S
C1452 C1454 1.353 . S
C1452 N1455 1.314 . S
C1452 H1458 0.930 . S
C1453 N1455 1.279 . S
C1453 C1456 1.358 . S
C1453 H1459 0.930 . S
C1454 C1452 1.353 . S
C1454 C1457 1.348 . S
C1454 H1492 0.929 . S
N1455 Li1410 1.990 . S
N1455 C1452 1.314 . S
N1455 C1453 1.279 . S
C1456 C1453 1.358 . S
C1456 C1457 1.356 . S
C1456 H1493 0.930 . S
C1457 C1454 1.348 . S
C1457 C1456 1.356 . S
H1458 C1452 0.930 . S
H1459 C1453 0.930 . S
C1460 N1461 1.314 . S
C1460 C1462 1.353 . S
C1460 H1466 0.930 . S
N1461 Li1411 1.990 . S
N1461 C1460 1.314 . S
N1461 C1464 1.279 . S
C1462 C1460 1.353 . S
C1462 C1465 1.348 . S
C1462 H1494 0.929 . S
C1463 C1464 1.358 . S
C1463 C1465 1.356 . S
C1463 H1495 0.930 . S
C1464 N1461 1.279 . S
C1464 C1463 1.358 . S
C1464 H1467 0.930 . S
C1465 C1462 1.348 . S
C1465 C1463 1.356 . S
H1466 C1460 0.930 . S
H1467 C1464 0.930 . S
O1468 Li1408 1.956 . S
O1468 Li1409 1.970 . S
O1468 Li1410 1.961 . S
O1468 C1412 1.325 . S
O1469 Li1408 1.970 . S
O1469 Li1409 1.956 . S
O1469 Li1411 1.961 . S
O1469 C1418 1.325 . S
O1470 Li1408 1.961 . S
O1470 Li1410 1.956 . S
O1470 Li1411 1.970 . S
O1470 C1440 1.325 . S
O1471 Li1409 1.961 . S
O1471 Li1410 1.970 . S
O1471 Li1411 1.956 . S
O1471 C1446 1.325 . S
H1472 C1414 0.929 . S
H1473 C1415 0.930 . S
H1474 C1416 0.930 . S
H1475 C1417 0.930 . S
H1476 C1419 0.930 . S
H1477 C1421 0.929 . S
H1478 C1422 0.930 . S
H1479 C1423 0.930 . S
H1480 C1426 0.930 . S
H1481 C1429 0.929 . S
H1482 C1434 0.929 . S
H1483 C1435 0.930 . S
H1484 C1442 0.929 . S
H1485 C1443 0.930 . S
H1486 C1444 0.930 . S
H1487 C1445 0.930 . S
H1488 C1447 0.929 . S
H1489 C1448 0.930 . S
H1490 C1449 0.930 . S
H1491 C1450 0.930 . S
H1492 C1454 0.929 . S
H1493 C1456 0.930 . S
H1494 C1462 0.929 . S
H1495 C1463 0.930 . S
Li1496 N1513 1.990 . S
Li1496 O1556 1.956 . S
Li1496 O1557 1.970 . S
Li1496 O1558 1.961 . S
Li1497 N1521 1.990 . S
Li1497 O1556 1.970 . S
Li1497 O1557 1.956 . S
Li1497 O1559 1.961 . S
Li1498 N1543 1.990 . S
Li1498 O1556 1.961 . S
Li1498 O1558 1.956 . S
Li1498 O1559 1.970 . S
Li1499 N1549 1.990 . S
Li1499 O1557 1.961 . S
Li1499 O1558 1.970 . S
Li1499 O1559 1.956 . S
C1500 C1502 1.348 . S
C1500 C1503 1.356 . S
C1500 O1556 1.325 . S
N1501 C1504 1.314 . S
N1501 C1505 1.279 . S
C1502 C1500 1.348 . S
C1502 C1504 1.353 . S
C1502 H1560 0.929 . S
C1503 C1500 1.356 . S
C1503 C1505 1.358 . S
C1503 H1561 0.930 . S
C1504 N1501 1.314 . S
C1504 C1502 1.353 . S
C1504 H1562 0.930 . S
C1505 N1501 1.279 . S
C1505 C1503 1.358 . S
C1505 H1563 0.930 . S
C1506 C1509 1.348 . S
C1506 C1510 1.356 . S
C1506 O1557 1.325 . S
C1507 N1508 1.279 . S
C1507 C1510 1.358 . S
C1507 H1564 0.930 . S
N1508 C1507 1.279 . S
N1508 C1511 1.314 . S
C1509 C1506 1.348 . S
C1509 C1511 1.353 . S
C1509 H1565 0.929 . S
C1510 C1506 1.356 . S
C1510 C1507 1.358 . S
C1510 H1566 0.930 . S
C1511 N1508 1.314 . S
C1511 C1509 1.353 . S
C1511 H1567 0.930 . S
C1512 N1513 1.314 . S
C1512 C1517 1.353 . S
C1512 H1518 0.930 . S
N1513 Li1496 1.990 . S
N1513 C1512 1.314 . S
N1513 C1515 1.279 . S
C1514 C1515 1.358 . S
C1514 C1516 1.356 . S
C1514 H1568 0.930 . S
C1515 N1513 1.279 . S
C1515 C1514 1.358 . S
C1515 H1519 0.930 . S
C1516 C1514 1.356 . S
C1516 C1517 1.348 . S
C1517 C1512 1.353 . S
C1517 C1516 1.348 . S
C1517 H1569 0.929 . S
H1518 C1512 0.930 . S
H1519 C1515 0.930 . S
C1520 N1521 1.314 . S
C1520 C1522 1.353 . S
C1520 H1526 0.930 . S
N1521 Li1497 1.990 . S
N1521 C1520 1.314 . S
N1521 C1524 1.279 . S
C1522 C1520 1.353 . S
C1522 C1525 1.348 . S
C1522 H1570 0.929 . S
C1523 C1524 1.358 . S
C1523 C1525 1.356 . S
C1523 H1571 0.930 . S
C1524 N1521 1.279 . S
C1524 C1523 1.358 . S
C1524 H1527 0.930 . S
C1525 C1522 1.348 . S
C1525 C1523 1.356 . S
H1526 C1520 0.930 . S
H1527 C1524 0.930 . S
C1528 C1530 1.348 . S
C1528 C1531 1.356 . S
C1528 O1558 1.325 . S
N1529 C1532 1.314 . S
N1529 C1533 1.279 . S
C1530 C1528 1.348 . S
C1530 C1532 1.353 . S
C1530 H1572 0.929 . S
C1531 C1528 1.356 . S
C1531 C1533 1.358 . S
C1531 H1573 0.930 . S
C1532 N1529 1.314 . S
C1532 C1530 1.353 . S
C1532 H1574 0.930 . S
C1533 N1529 1.279 . S
C1533 C1531 1.358 . S
C1533 H1575 0.930 . S
C1534 C1535 1.348 . S
C1534 C1536 1.356 . S
C1534 O1559 1.325 . S
C1535 C1534 1.348 . S
C1535 C1537 1.353 . S
C1535 H1576 0.929 . S
C1536 C1534 1.356 . S
C1536 C1538 1.358 . S
C1536 H1577 0.930 . S
C1537 C1535 1.353 . S
C1537 N1539 1.314 . S
C1537 H1578 0.930 . S
C1538 C1536 1.358 . S
C1538 N1539 1.279 . S
C1538 H1579 0.930 . S
N1539 C1537 1.314 . S
N1539 C1538 1.279 . S
C1540 C1542 1.353 . S
C1540 N1543 1.314 . S
C1540 H1546 0.930 . S
C1541 N1543 1.279 . S
C1541 C1544 1.358 . S
C1541 H1547 0.930 . S
C1542 C1540 1.353 . S
C1542 C1545 1.348 . S
C1542 H1580 0.929 . S
N1543 Li1498 1.990 . S
N1543 C1540 1.314 . S
N1543 C1541 1.279 . S
C1544 C1541 1.358 . S
C1544 C1545 1.356 . S
C1544 H1581 0.930 . S
C1545 C1542 1.348 . S
C1545 C1544 1.356 . S
H1546 C1540 0.930 . S
H1547 C1541 0.930 . S
C1548 N1549 1.314 . S
C1548 C1550 1.353 . S
C1548 H1554 0.930 . S
N1549 Li1499 1.990 . S
N1549 C1548 1.314 . S
N1549 C1552 1.279 . S
C1550 C1548 1.353 . S
C1550 C1553 1.348 . S
C1550 H1582 0.929 . S
C1551 C1552 1.358 . S
C1551 C1553 1.356 . S
C1551 H1583 0.930 . S
C1552 N1549 1.279 . S
C1552 C1551 1.358 . S
C1552 H1555 0.930 . S
C1553 C1550 1.348 . S
C1553 C1551 1.356 . S
H1554 C1548 0.930 . S
H1555 C1552 0.930 . S
O1556 Li1496 1.956 . S
O1556 Li1497 1.970 . S
O1556 Li1498 1.961 . S
O1556 C1500 1.325 . S
O1557 Li1496 1.970 . S
O1557 Li1497 1.956 . S
O1557 Li1499 1.961 . S
O1557 C1506 1.325 . S
O1558 Li1496 1.961 . S
O1558 Li1498 1.956 . S
O1558 Li1499 1.970 . S
O1558 C1528 1.325 . S
O1559 Li1497 1.961 . S
O1559 Li1498 1.970 . S
O1559 Li1499 1.956 . S
O1559 C1534 1.325 . S
H1560 C1502 0.929 . S
H1561 C1503 0.930 . S
H1562 C1504 0.930 . S
H1563 C1505 0.930 . S
H1564 C1507 0.930 . S
H1565 C1509 0.929 . S
H1566 C1510 0.930 . S
H1567 C1511 0.930 . S
H1568 C1514 0.930 . S
H1569 C1517 0.929 . S
H1570 C1522 0.929 . S
H1571 C1523 0.930 . S
H1572 C1530 0.929 . S
H1573 C1531 0.930 . S
H1574 C1532 0.930 . S
H1575 C1533 0.930 . S
H1576 C1535 0.929 . S
H1577 C1536 0.930 . S
H1578 C1537 0.930 . S
H1579 C1538 0.930 . S
H1580 C1542 0.929 . S
H1581 C1544 0.930 . S
H1582 C1550 0.929 . S
H1583 C1551 0.930 . S
Li1584 N1601 1.990 . S
Li1584 O1644 1.956 . S
Li1584 O1645 1.970 . S
Li1584 O1646 1.961 . S
Li1585 N1609 1.990 . S
Li1585 O1644 1.970 . S
Li1585 O1645 1.956 . S
Li1585 O1647 1.961 . S
Li1586 N1631 1.990 . S
Li1586 O1644 1.961 . S
Li1586 O1646 1.956 . S
Li1586 O1647 1.970 . S
Li1587 N1637 1.990 . S
Li1587 O1645 1.961 . S
Li1587 O1646 1.970 . S
Li1587 O1647 1.956 . S
C1588 C1590 1.348 . S
C1588 C1591 1.356 . S
C1588 O1644 1.325 . S
N1589 C1592 1.314 . S
N1589 C1593 1.279 . S
C1590 C1588 1.348 . S
C1590 C1592 1.353 . S
C1590 H1648 0.929 . S
C1591 C1588 1.356 . S
C1591 C1593 1.358 . S
C1591 H1649 0.930 . S
C1592 N1589 1.314 . S
C1592 C1590 1.353 . S
C1592 H1650 0.930 . S
C1593 N1589 1.279 . S
C1593 C1591 1.358 . S
C1593 H1651 0.930 . S
C1594 C1597 1.348 . S
C1594 C1598 1.356 . S
C1594 O1645 1.325 . S
C1595 N1596 1.279 . S
C1595 C1598 1.358 . S
C1595 H1652 0.930 . S
N1596 C1595 1.279 . S
N1596 C1599 1.314 . S
C1597 C1594 1.348 . S
C1597 C1599 1.353 . S
C1597 H1653 0.929 . S
C1598 C1594 1.356 . S
C1598 C1595 1.358 . S
C1598 H1654 0.930 . S
C1599 N1596 1.314 . S
C1599 C1597 1.353 . S
C1599 H1655 0.930 . S
C1600 N1601 1.314 . S
C1600 C1605 1.353 . S
C1600 H1606 0.930 . S
N1601 Li1584 1.990 . S
N1601 C1600 1.314 . S
N1601 C1603 1.279 . S
C1602 C1603 1.358 . S
C1602 C1604 1.356 . S
C1602 H1656 0.930 . S
C1603 N1601 1.279 . S
C1603 C1602 1.358 . S
C1603 H1607 0.930 . S
C1604 C1602 1.356 . S
C1604 C1605 1.348 . S
C1605 C1600 1.353 . S
C1605 C1604 1.348 . S
C1605 H1657 0.929 . S
H1606 C1600 0.930 . S
H1607 C1603 0.930 . S
C1608 N1609 1.314 . S
C1608 C1610 1.353 . S
C1608 H1614 0.930 . S
N1609 Li1585 1.990 . S
N1609 C1608 1.314 . S
N1609 C1612 1.279 . S
C1610 C1608 1.353 . S
C1610 C1613 1.348 . S
C1610 H1658 0.929 . S
C1611 C1612 1.358 . S
C1611 C1613 1.356 . S
C1611 H1659 0.930 . S
C1612 N1609 1.279 . S
C1612 C1611 1.358 . S
C1612 H1615 0.930 . S
C1613 C1610 1.348 . S
C1613 C1611 1.356 . S
H1614 C1608 0.930 . S
H1615 C1612 0.930 . S
C1616 C1618 1.348 . S
C1616 C1619 1.356 . S
C1616 O1646 1.325 . S
N1617 C1620 1.314 . S
N1617 C1621 1.279 . S
C1618 C1616 1.348 . S
C1618 C1620 1.353 . S
C1618 H1660 0.929 . S
C1619 C1616 1.356 . S
C1619 C1621 1.358 . S
C1619 H1661 0.930 . S
C1620 N1617 1.314 . S
C1620 C1618 1.353 . S
C1620 H1662 0.930 . S
C1621 N1617 1.279 . S
C1621 C1619 1.358 . S
C1621 H1663 0.930 . S
C1622 C1623 1.348 . S
C1622 C1624 1.356 . S
C1622 O1647 1.325 . S
C1623 C1622 1.348 . S
C1623 C1625 1.353 . S
C1623 H1664 0.929 . S
C1624 C1622 1.356 . S
C1624 C1626 1.358 . S
C1624 H1665 0.930 . S
C1625 C1623 1.353 . S
C1625 N1627 1.314 . S
C1625 H1666 0.930 . S
C1626 C1624 1.358 . S
C1626 N1627 1.279 . S
C1626 H1667 0.930 . S
N1627 C1625 1.314 . S
N1627 C1626 1.279 . S
C1628 C1630 1.353 . S
C1628 N1631 1.314 . S
C1628 H1634 0.930 . S
C1629 N1631 1.279 . S
C1629 C1632 1.358 . S
C1629 H1635 0.930 . S
C1630 C1628 1.353 . S
C1630 C1633 1.348 . S
C1630 H1668 0.929 . S
N1631 Li1586 1.990 . S
N1631 C1628 1.314 . S
N1631 C1629 1.279 . S
C1632 C1629 1.358 . S
C1632 C1633 1.356 . S
C1632 H1669 0.930 . S
C1633 C1630 1.348 . S
C1633 C1632 1.356 . S
H1634 C1628 0.930 . S
H1635 C1629 0.930 . S
C1636 N1637 1.314 . S
C1636 C1638 1.353 . S
C1636 H1642 0.930 . S
N1637 Li1587 1.990 . S
N1637 C1636 1.314 . S
N1637 C1640 1.279 . S
C1638 C1636 1.353 . S
C1638 C1641 1.348 . S
C1638 H1670 0.929 . S
C1639 C1640 1.358 . S
C1639 C1641 1.356 . S
C1639 H1671 0.930 . S
C1640 N1637 1.279 . S
C1640 C1639 1.358 . S
C1640 H1643 0.930 . S
C1641 C1638 1.348 . S
C1641 C1639 1.356 . S
H1642 C1636 0.930 . S
H1643 C1640 0.930 . S
O1644 Li1584 1.956 . S
O1644 Li1585 1.970 . S
O1644 Li1586 1.961 . S
O1644 C1588 1.325 . S
O1645 Li1584 1.970 . S
O1645 Li1585 1.956 . S
O1645 Li1587 1.961 . S
O1645 C1594 1.325 . S
O1646 Li1584 1.961 . S
O1646 Li1586 1.956 . S
O1646 Li1587 1.970 . S
O1646 C1616 1.325 . S
O1647 Li1585 1.961 . S
O1647 Li1586 1.970 . S
O1647 Li1587 1.956 . S
O1647 C1622 1.325 . S
H1648 C1590 0.929 . S
H1649 C1591 0.930 . S
H1650 C1592 0.930 . S
H1651 C1593 0.930 . S
H1652 C1595 0.930 . S
H1653 C1597 0.929 . S
H1654 C1598 0.930 . S
H1655 C1599 0.930 . S
H1656 C1602 0.930 . S
H1657 C1605 0.929 . S
H1658 C1610 0.929 . S
H1659 C1611 0.930 . S
H1660 C1618 0.929 . S
H1661 C1619 0.930 . S
H1662 C1620 0.930 . S
H1663 C1621 0.930 . S
H1664 C1623 0.929 . S
H1665 C1624 0.930 . S
H1666 C1625 0.930 . S
H1667 C1626 0.930 . S
H1668 C1630 0.929 . S
H1669 C1632 0.930 . S
H1670 C1638 0.929 . S
H1671 C1639 0.930 . S
Li1672 N1689 1.990 . S
Li1672 O1732 1.956 . S
Li1672 O1733 1.970 . S
Li1672 O1734 1.961 . S
Li1673 N1697 1.990 . S
Li1673 O1732 1.970 . S
Li1673 O1733 1.956 . S
Li1673 O1735 1.961 . S
Li1674 N1719 1.990 . S
Li1674 O1732 1.961 . S
Li1674 O1734 1.956 . S
Li1674 O1735 1.970 . S
Li1675 N1725 1.990 . S
Li1675 O1733 1.961 . S
Li1675 O1734 1.970 . S
Li1675 O1735 1.956 . S
C1676 C1678 1.348 . S
C1676 C1679 1.356 . S
C1676 O1732 1.325 . S
N1677 C1680 1.314 . S
N1677 C1681 1.279 . S
C1678 C1676 1.348 . S
C1678 C1680 1.353 . S
C1678 H1736 0.929 . S
C1679 C1676 1.356 . S
C1679 C1681 1.358 . S
C1679 H1737 0.930 . S
C1680 N1677 1.314 . S
C1680 C1678 1.353 . S
C1680 H1738 0.930 . S
C1681 N1677 1.279 . S
C1681 C1679 1.358 . S
C1681 H1739 0.930 . S
C1682 C1685 1.348 . S
C1682 C1686 1.356 . S
C1682 O1733 1.325 . S
C1683 N1684 1.279 . S
C1683 C1686 1.358 . S
C1683 H1740 0.930 . S
N1684 C1683 1.279 . S
N1684 C1687 1.314 . S
C1685 C1682 1.348 . S
C1685 C1687 1.353 . S
C1685 H1741 0.929 . S
C1686 C1682 1.356 . S
C1686 C1683 1.358 . S
C1686 H1742 0.930 . S
C1687 N1684 1.314 . S
C1687 C1685 1.353 . S
C1687 H1743 0.930 . S
C1688 N1689 1.314 . S
C1688 C1693 1.353 . S
C1688 H1694 0.930 . S
N1689 Li1672 1.990 . S
N1689 C1688 1.314 . S
N1689 C1691 1.279 . S
C1690 C1691 1.358 . S
C1690 C1692 1.356 . S
C1690 H1744 0.930 . S
C1691 N1689 1.279 . S
C1691 C1690 1.358 . S
C1691 H1695 0.930 . S
C1692 C1690 1.356 . S
C1692 C1693 1.348 . S
C1693 C1688 1.353 . S
C1693 C1692 1.348 . S
C1693 H1745 0.929 . S
H1694 C1688 0.930 . S
H1695 C1691 0.930 . S
C1696 N1697 1.314 . S
C1696 C1698 1.353 . S
C1696 H1702 0.930 . S
N1697 Li1673 1.990 . S
N1697 C1696 1.314 . S
N1697 C1700 1.279 . S
C1698 C1696 1.353 . S
C1698 C1701 1.348 . S
C1698 H1746 0.929 . S
C1699 C1700 1.358 . S
C1699 C1701 1.356 . S
C1699 H1747 0.930 . S
C1700 N1697 1.279 . S
C1700 C1699 1.358 . S
C1700 H1703 0.930 . S
C1701 C1698 1.348 . S
C1701 C1699 1.356 . S
H1702 C1696 0.930 . S
H1703 C1700 0.930 . S
C1704 C1706 1.348 . S
C1704 C1707 1.356 . S
C1704 O1734 1.325 . S
N1705 C1708 1.314 . S
N1705 C1709 1.279 . S
C1706 C1704 1.348 . S
C1706 C1708 1.353 . S
C1706 H1748 0.929 . S
C1707 C1704 1.356 . S
C1707 C1709 1.358 . S
C1707 H1749 0.930 . S
C1708 N1705 1.314 . S
C1708 C1706 1.353 . S
C1708 H1750 0.930 . S
C1709 N1705 1.279 . S
C1709 C1707 1.358 . S
C1709 H1751 0.930 . S
C1710 C1711 1.348 . S
C1710 C1712 1.356 . S
C1710 O1735 1.325 . S
C1711 C1710 1.348 . S
C1711 C1713 1.353 . S
C1711 H1752 0.929 . S
C1712 C1710 1.356 . S
C1712 C1714 1.358 . S
C1712 H1753 0.930 . S
C1713 C1711 1.353 . S
C1713 N1715 1.314 . S
C1713 H1754 0.930 . S
C1714 C1712 1.358 . S
C1714 N1715 1.279 . S
C1714 H1755 0.930 . S
N1715 C1713 1.314 . S
N1715 C1714 1.279 . S
C1716 C1718 1.353 . S
C1716 N1719 1.314 . S
C1716 H1722 0.930 . S
C1717 N1719 1.279 . S
C1717 C1720 1.358 . S
C1717 H1723 0.930 . S
C1718 C1716 1.353 . S
C1718 C1721 1.348 . S
C1718 H1756 0.929 . S
N1719 Li1674 1.990 . S
N1719 C1716 1.314 . S
N1719 C1717 1.279 . S
C1720 C1717 1.358 . S
C1720 C1721 1.356 . S
C1720 H1757 0.930 . S
C1721 C1718 1.348 . S
C1721 C1720 1.356 . S
H1722 C1716 0.930 . S
H1723 C1717 0.930 . S
C1724 N1725 1.314 . S
C1724 C1726 1.353 . S
C1724 H1730 0.930 . S
N1725 Li1675 1.990 . S
N1725 C1724 1.314 . S
N1725 C1728 1.279 . S
C1726 C1724 1.353 . S
C1726 C1729 1.348 . S
C1726 H1758 0.929 . S
C1727 C1728 1.358 . S
C1727 C1729 1.356 . S
C1727 H1759 0.930 . S
C1728 N1725 1.279 . S
C1728 C1727 1.358 . S
C1728 H1731 0.930 . S
C1729 C1726 1.348 . S
C1729 C1727 1.356 . S
H1730 C1724 0.930 . S
H1731 C1728 0.930 . S
O1732 Li1672 1.956 . S
O1732 Li1673 1.970 . S
O1732 Li1674 1.961 . S
O1732 C1676 1.325 . S
O1733 Li1672 1.970 . S
O1733 Li1673 1.956 . S
O1733 Li1675 1.961 . S
O1733 C1682 1.325 . S
O1734 Li1672 1.961 . S
O1734 Li1674 1.956 . S
O1734 Li1675 1.970 . S
O1734 C1704 1.325 . S
O1735 Li1673 1.961 . S
O1735 Li1674 1.970 . S
O1735 Li1675 1.956 . S
O1735 C1710 1.325 . S
H1736 C1678 0.929 . S
H1737 C1679 0.930 . S
H1738 C1680 0.930 . S
H1739 C1681 0.930 . S
H1740 C1683 0.930 . S
H1741 C1685 0.929 . S
H1742 C1686 0.930 . S
H1743 C1687 0.930 . S
H1744 C1690 0.930 . S
H1745 C1693 0.929 . S
H1746 C1698 0.929 . S
H1747 C1699 0.930 . S
H1748 C1706 0.929 . S
H1749 C1707 0.930 . S
H1750 C1708 0.930 . S
H1751 C1709 0.930 . S
H1752 C1711 0.929 . S
H1753 C1712 0.930 . S
H1754 C1713 0.930 . S
H1755 C1714 0.930 . S
H1756 C1718 0.929 . S
H1757 C1720 0.930 . S
H1758 C1726 0.929 . S
H1759 C1727 0.930 . S
Li1760 N1777 1.990 . S
Li1760 O1820 1.956 . S
Li1760 O1821 1.970 . S
Li1760 O1822 1.961 . S
Li1761 N1785 1.990 . S
Li1761 O1820 1.970 . S
Li1761 O1821 1.956 . S
Li1761 O1823 1.961 . S
Li1762 N1807 1.990 . S
Li1762 O1820 1.961 . S
Li1762 O1822 1.956 . S
Li1762 O1823 1.970 . S
Li1763 N1813 1.990 . S
Li1763 O1821 1.961 . S
Li1763 O1822 1.970 . S
Li1763 O1823 1.956 . S
C1764 C1766 1.348 . S
C1764 C1767 1.356 . S
C1764 O1820 1.325 . S
N1765 C1768 1.314 . S
N1765 C1769 1.279 . S
C1766 C1764 1.348 . S
C1766 C1768 1.353 . S
C1766 H1824 0.929 . S
C1767 C1764 1.356 . S
C1767 C1769 1.358 . S
C1767 H1825 0.930 . S
C1768 N1765 1.314 . S
C1768 C1766 1.353 . S
C1768 H1826 0.930 . S
C1769 N1765 1.279 . S
C1769 C1767 1.358 . S
C1769 H1827 0.930 . S
C1770 C1773 1.348 . S
C1770 C1774 1.356 . S
C1770 O1821 1.325 . S
C1771 N1772 1.279 . S
C1771 C1774 1.358 . S
C1771 H1828 0.930 . S
N1772 C1771 1.279 . S
N1772 C1775 1.314 . S
C1773 C1770 1.348 . S
C1773 C1775 1.353 . S
C1773 H1829 0.929 . S
C1774 C1770 1.356 . S
C1774 C1771 1.358 . S
C1774 H1830 0.930 . S
C1775 N1772 1.314 . S
C1775 C1773 1.353 . S
C1775 H1831 0.930 . S
C1776 N1777 1.314 . S
C1776 C1781 1.353 . S
C1776 H1782 0.930 . S
N1777 Li1760 1.990 . S
N1777 C1776 1.314 . S
N1777 C1779 1.279 . S
C1778 C1779 1.358 . S
C1778 C1780 1.356 . S
C1778 H1832 0.930 . S
C1779 N1777 1.279 . S
C1779 C1778 1.358 . S
C1779 H1783 0.930 . S
C1780 C1778 1.356 . S
C1780 C1781 1.348 . S
C1781 C1776 1.353 . S
C1781 C1780 1.348 . S
C1781 H1833 0.929 . S
H1782 C1776 0.930 . S
H1783 C1779 0.930 . S
C1784 N1785 1.314 . S
C1784 C1786 1.353 . S
C1784 H1790 0.930 . S
N1785 Li1761 1.990 . S
N1785 C1784 1.314 . S
N1785 C1788 1.279 . S
C1786 C1784 1.353 . S
C1786 C1789 1.348 . S
C1786 H1834 0.929 . S
C1787 C1788 1.358 . S
C1787 C1789 1.356 . S
C1787 H1835 0.930 . S
C1788 N1785 1.279 . S
C1788 C1787 1.358 . S
C1788 H1791 0.930 . S
C1789 C1786 1.348 . S
C1789 C1787 1.356 . S
H1790 C1784 0.930 . S
H1791 C1788 0.930 . S
C1792 C1794 1.348 . S
C1792 C1795 1.356 . S
C1792 O1822 1.325 . S
N1793 C1796 1.314 . S
N1793 C1797 1.279 . S
C1794 C1792 1.348 . S
C1794 C1796 1.353 . S
C1794 H1836 0.929 . S
C1795 C1792 1.356 . S
C1795 C1797 1.358 . S
C1795 H1837 0.930 . S
C1796 N1793 1.314 . S
C1796 C1794 1.353 . S
C1796 H1838 0.930 . S
C1797 N1793 1.279 . S
C1797 C1795 1.358 . S
C1797 H1839 0.930 . S
C1798 C1799 1.348 . S
C1798 C1800 1.356 . S
C1798 O1823 1.325 . S
C1799 C1798 1.348 . S
C1799 C1801 1.353 . S
C1799 H1840 0.929 . S
C1800 C1798 1.356 . S
C1800 C1802 1.358 . S
C1800 H1841 0.930 . S
C1801 C1799 1.353 . S
C1801 N1803 1.314 . S
C1801 H1842 0.930 . S
C1802 C1800 1.358 . S
C1802 N1803 1.279 . S
C1802 H1843 0.930 . S
N1803 C1801 1.314 . S
N1803 C1802 1.279 . S
C1804 C1806 1.353 . S
C1804 N1807 1.314 . S
C1804 H1810 0.930 . S
C1805 N1807 1.279 . S
C1805 C1808 1.358 . S
C1805 H1811 0.930 . S
C1806 C1804 1.353 . S
C1806 C1809 1.348 . S
C1806 H1844 0.929 . S
N1807 Li1762 1.990 . S
N1807 C1804 1.314 . S
N1807 C1805 1.279 . S
C1808 C1805 1.358 . S
C1808 C1809 1.356 . S
C1808 H1845 0.930 . S
C1809 C1806 1.348 . S
C1809 C1808 1.356 . S
H1810 C1804 0.930 . S
H1811 C1805 0.930 . S
C1812 N1813 1.314 . S
C1812 C1814 1.353 . S
C1812 H1818 0.930 . S
N1813 Li1763 1.990 . S
N1813 C1812 1.314 . S
N1813 C1816 1.279 . S
C1814 C1812 1.353 . S
C1814 C1817 1.348 . S
C1814 H1846 0.929 . S
C1815 C1816 1.358 . S
C1815 C1817 1.356 . S
C1815 H1847 0.930 . S
C1816 N1813 1.279 . S
C1816 C1815 1.358 . S
C1816 H1819 0.930 . S
C1817 C1814 1.348 . S
C1817 C1815 1.356 . S
H1818 C1812 0.930 . S
H1819 C1816 0.930 . S
O1820 Li1760 1.956 . S
O1820 Li1761 1.970 . S
O1820 Li1762 1.961 . S
O1820 C1764 1.325 . S
O1821 Li1760 1.970 . S
O1821 Li1761 1.956 . S
O1821 Li1763 1.961 . S
O1821 C1770 1.325 . S
O1822 Li1760 1.961 . S
O1822 Li1762 1.956 . S
O1822 Li1763 1.970 . S
O1822 C1792 1.325 . S
O1823 Li1761 1.961 . S
O1823 Li1762 1.970 . S
O1823 Li1763 1.956 . S
O1823 C1798 1.325 . S
H1824 C1766 0.929 . S
H1825 C1767 0.930 . S
H1826 C1768 0.930 . S
H1827 C1769 0.930 . S
H1828 C1771 0.930 . S
H1829 C1773 0.929 . S
H1830 C1774 0.930 . S
H1831 C1775 0.930 . S
H1832 C1778 0.930 . S
H1833 C1781 0.929 . S
H1834 C1786 0.929 . S
H1835 C1787 0.930 . S
H1836 C1794 0.929 . S
H1837 C1795 0.930 . S
H1838 C1796 0.930 . S
H1839 C1797 0.930 . S
H1840 C1799 0.929 . S
H1841 C1800 0.930 . S
H1842 C1801 0.930 . S
H1843 C1802 0.930 . S
H1844 C1806 0.929 . S
H1845 C1808 0.930 . S
H1846 C1814 0.929 . S
H1847 C1815 0.930 . S
Li1848 N1865 1.990 . S
Li1848 O1908 1.956 . S
Li1848 O1909 1.970 . S
Li1848 O1910 1.961 . S
Li1849 N1873 1.990 . S
Li1849 O1908 1.970 . S
Li1849 O1909 1.956 . S
Li1849 O1911 1.961 . S
Li1850 N1895 1.990 . S
Li1850 O1908 1.961 . S
Li1850 O1910 1.956 . S
Li1850 O1911 1.970 . S
Li1851 N1901 1.990 . S
Li1851 O1909 1.961 . S
Li1851 O1910 1.970 . S
Li1851 O1911 1.956 . S
C1852 C1854 1.348 . S
C1852 C1855 1.356 . S
C1852 O1908 1.325 . S
N1853 C1856 1.314 . S
N1853 C1857 1.279 . S
C1854 C1852 1.348 . S
C1854 C1856 1.353 . S
C1854 H1912 0.929 . S
C1855 C1852 1.356 . S
C1855 C1857 1.358 . S
C1855 H1913 0.930 . S
C1856 N1853 1.314 . S
C1856 C1854 1.353 . S
C1856 H1914 0.930 . S
C1857 N1853 1.279 . S
C1857 C1855 1.358 . S
C1857 H1915 0.930 . S
C1858 C1861 1.348 . S
C1858 C1862 1.356 . S
C1858 O1909 1.325 . S
C1859 N1860 1.279 . S
C1859 C1862 1.358 . S
C1859 H1916 0.930 . S
N1860 C1859 1.279 . S
N1860 C1863 1.314 . S
C1861 C1858 1.348 . S
C1861 C1863 1.353 . S
C1861 H1917 0.929 . S
C1862 C1858 1.356 . S
C1862 C1859 1.358 . S
C1862 H1918 0.930 . S
C1863 N1860 1.314 . S
C1863 C1861 1.353 . S
C1863 H1919 0.930 . S
C1864 N1865 1.314 . S
C1864 C1869 1.353 . S
C1864 H1870 0.930 . S
N1865 Li1848 1.990 . S
N1865 C1864 1.314 . S
N1865 C1867 1.279 . S
C1866 C1867 1.358 . S
C1866 C1868 1.356 . S
C1866 H1920 0.930 . S
C1867 N1865 1.279 . S
C1867 C1866 1.358 . S
C1867 H1871 0.930 . S
C1868 C1866 1.356 . S
C1868 C1869 1.348 . S
C1869 C1864 1.353 . S
C1869 C1868 1.348 . S
C1869 H1921 0.929 . S
H1870 C1864 0.930 . S
H1871 C1867 0.930 . S
C1872 N1873 1.314 . S
C1872 C1874 1.353 . S
C1872 H1878 0.930 . S
N1873 Li1849 1.990 . S
N1873 C1872 1.314 . S
N1873 C1876 1.279 . S
C1874 C1872 1.353 . S
C1874 C1877 1.348 . S
C1874 H1922 0.929 . S
C1875 C1876 1.358 . S
C1875 C1877 1.356 . S
C1875 H1923 0.930 . S
C1876 N1873 1.279 . S
C1876 C1875 1.358 . S
C1876 H1879 0.930 . S
C1877 C1874 1.348 . S
C1877 C1875 1.356 . S
H1878 C1872 0.930 . S
H1879 C1876 0.930 . S
C1880 C1882 1.348 . S
C1880 C1883 1.356 . S
C1880 O1910 1.325 . S
N1881 C1884 1.314 . S
N1881 C1885 1.279 . S
C1882 C1880 1.348 . S
C1882 C1884 1.353 . S
C1882 H1924 0.929 . S
C1883 C1880 1.356 . S
C1883 C1885 1.358 . S
C1883 H1925 0.930 . S
C1884 N1881 1.314 . S
C1884 C1882 1.353 . S
C1884 H1926 0.930 . S
C1885 N1881 1.279 . S
C1885 C1883 1.358 . S
C1885 H1927 0.930 . S
C1886 C1887 1.348 . S
C1886 C1888 1.356 . S
C1886 O1911 1.325 . S
C1887 C1886 1.348 . S
C1887 C1889 1.353 . S
C1887 H1928 0.929 . S
C1888 C1886 1.356 . S
C1888 C1890 1.358 . S
C1888 H1929 0.930 . S
C1889 C1887 1.353 . S
C1889 N1891 1.314 . S
C1889 H1930 0.930 . S
C1890 C1888 1.358 . S
C1890 N1891 1.279 . S
C1890 H1931 0.930 . S
N1891 C1889 1.314 . S
N1891 C1890 1.279 . S
C1892 C1894 1.353 . S
C1892 N1895 1.314 . S
C1892 H1898 0.930 . S
C1893 N1895 1.279 . S
C1893 C1896 1.358 . S
C1893 H1899 0.930 . S
C1894 C1892 1.353 . S
C1894 C1897 1.348 . S
C1894 H1932 0.929 . S
N1895 Li1850 1.990 . S
N1895 C1892 1.314 . S
N1895 C1893 1.279 . S
C1896 C1893 1.358 . S
C1896 C1897 1.356 . S
C1896 H1933 0.930 . S
C1897 C1894 1.348 . S
C1897 C1896 1.356 . S
H1898 C1892 0.930 . S
H1899 C1893 0.930 . S
C1900 N1901 1.314 . S
C1900 C1902 1.353 . S
C1900 H1906 0.930 . S
N1901 Li1851 1.990 . S
N1901 C1900 1.314 . S
N1901 C1904 1.279 . S
C1902 C1900 1.353 . S
C1902 C1905 1.348 . S
C1902 H1934 0.929 . S
C1903 C1904 1.358 . S
C1903 C1905 1.356 . S
C1903 H1935 0.930 . S
C1904 N1901 1.279 . S
C1904 C1903 1.358 . S
C1904 H1907 0.930 . S
C1905 C1902 1.348 . S
C1905 C1903 1.356 . S
H1906 C1900 0.930 . S
H1907 C1904 0.930 . S
O1908 Li1848 1.956 . S
O1908 Li1849 1.970 . S
O1908 Li1850 1.961 . S
O1908 C1852 1.325 . S
O1909 Li1848 1.970 . S
O1909 Li1849 1.956 . S
O1909 Li1851 1.961 . S
O1909 C1858 1.325 . S
O1910 Li1848 1.961 . S
O1910 Li1850 1.956 . S
O1910 Li1851 1.970 . S
O1910 C1880 1.325 . S
O1911 Li1849 1.961 . S
O1911 Li1850 1.970 . S
O1911 Li1851 1.956 . S
O1911 C1886 1.325 . S
H1912 C1854 0.929 . S
H1913 C1855 0.930 . S
H1914 C1856 0.930 . S
H1915 C1857 0.930 . S
H1916 C1859 0.930 . S
H1917 C1861 0.929 . S
H1918 C1862 0.930 . S
H1919 C1863 0.930 . S
H1920 C1866 0.930 . S
H1921 C1869 0.929 . S
H1922 C1874 0.929 . S
H1923 C1875 0.930 . S
H1924 C1882 0.929 . S
H1925 C1883 0.930 . S
H1926 C1884 0.930 . S
H1927 C1885 0.930 . S
H1928 C1887 0.929 . S
H1929 C1888 0.930 . S
H1930 C1889 0.930 . S
H1931 C1890 0.930 . S
H1932 C1894 0.929 . S
H1933 C1896 0.930 . S
H1934 C1902 0.929 . S
H1935 C1903 0.930 . S
Li1936 N1953 1.990 . S
Li1936 O1996 1.956 . S
Li1936 O1997 1.970 . S
Li1936 O1998 1.961 . S
Li1937 N1961 1.990 . S
Li1937 O1996 1.970 . S
Li1937 O1997 1.956 . S
Li1937 O1999 1.961 . S
Li1938 N1983 1.990 . S
Li1938 O1996 1.961 . S
Li1938 O1998 1.956 . S
Li1938 O1999 1.970 . S
Li1939 N1989 1.990 . S
Li1939 O1997 1.961 . S
Li1939 O1998 1.970 . S
Li1939 O1999 1.956 . S
C1940 C1942 1.348 . S
C1940 C1943 1.356 . S
C1940 O1996 1.325 . S
N1941 C1944 1.314 . S
N1941 C1945 1.279 . S
C1942 C1940 1.348 . S
C1942 C1944 1.353 . S
C1942 H2000 0.929 . S
C1943 C1940 1.356 . S
C1943 C1945 1.358 . S
C1943 H2001 0.930 . S
C1944 N1941 1.314 . S
C1944 C1942 1.353 . S
C1944 H2002 0.930 . S
C1945 N1941 1.279 . S
C1945 C1943 1.358 . S
C1945 H2003 0.930 . S
C1946 C1949 1.348 . S
C1946 C1950 1.356 . S
C1946 O1997 1.325 . S
C1947 N1948 1.279 . S
C1947 C1950 1.358 . S
C1947 H2004 0.930 . S
N1948 C1947 1.279 . S
N1948 C1951 1.314 . S
C1949 C1946 1.348 . S
C1949 C1951 1.353 . S
C1949 H2005 0.929 . S
C1950 C1946 1.356 . S
C1950 C1947 1.358 . S
C1950 H2006 0.930 . S
C1951 N1948 1.314 . S
C1951 C1949 1.353 . S
C1951 H2007 0.930 . S
C1952 N1953 1.314 . S
C1952 C1957 1.353 . S
C1952 H1958 0.930 . S
N1953 Li1936 1.990 . S
N1953 C1952 1.314 . S
N1953 C1955 1.279 . S
C1954 C1955 1.358 . S
C1954 C1956 1.356 . S
C1954 H2008 0.930 . S
C1955 N1953 1.279 . S
C1955 C1954 1.358 . S
C1955 H1959 0.930 . S
C1956 C1954 1.356 . S
C1956 C1957 1.348 . S
C1957 C1952 1.353 . S
C1957 C1956 1.348 . S
C1957 H2009 0.929 . S
H1958 C1952 0.930 . S
H1959 C1955 0.930 . S
C1960 N1961 1.314 . S
C1960 C1962 1.353 . S
C1960 H1966 0.930 . S
N1961 Li1937 1.990 . S
N1961 C1960 1.314 . S
N1961 C1964 1.279 . S
C1962 C1960 1.353 . S
C1962 C1965 1.348 . S
C1962 H2010 0.929 . S
C1963 C1964 1.358 . S
C1963 C1965 1.356 . S
C1963 H2011 0.930 . S
C1964 N1961 1.279 . S
C1964 C1963 1.358 . S
C1964 H1967 0.930 . S
C1965 C1962 1.348 . S
C1965 C1963 1.356 . S
H1966 C1960 0.930 . S
H1967 C1964 0.930 . S
C1968 C1970 1.348 . S
C1968 C1971 1.356 . S
C1968 O1998 1.325 . S
N1969 C1972 1.314 . S
N1969 C1973 1.279 . S
C1970 C1968 1.348 . S
C1970 C1972 1.353 . S
C1970 H2012 0.929 . S
C1971 C1968 1.356 . S
C1971 C1973 1.358 . S
C1971 H2013 0.930 . S
C1972 N1969 1.314 . S
C1972 C1970 1.353 . S
C1972 H2014 0.930 . S
C1973 N1969 1.279 . S
C1973 C1971 1.358 . S
C1973 H2015 0.930 . S
C1974 C1975 1.348 . S
C1974 C1976 1.356 . S
C1974 O1999 1.325 . S
C1975 C1974 1.348 . S
C1975 C1977 1.353 . S
C1975 H2016 0.929 . S
C1976 C1974 1.356 . S
C1976 C1978 1.358 . S
C1976 H2017 0.930 . S
C1977 C1975 1.353 . S
C1977 N1979 1.314 . S
C1977 H2018 0.930 . S
C1978 C1976 1.358 . S
C1978 N1979 1.279 . S
C1978 H2019 0.930 . S
N1979 C1977 1.314 . S
N1979 C1978 1.279 . S
C1980 C1982 1.353 . S
C1980 N1983 1.314 . S
C1980 H1986 0.930 . S
C1981 N1983 1.279 . S
C1981 C1984 1.358 . S
C1981 H1987 0.930 . S
C1982 C1980 1.353 . S
C1982 C1985 1.348 . S
C1982 H2020 0.929 . S
N1983 Li1938 1.990 . S
N1983 C1980 1.314 . S
N1983 C1981 1.279 . S
C1984 C1981 1.358 . S
C1984 C1985 1.356 . S
C1984 H2021 0.930 . S
C1985 C1982 1.348 . S
C1985 C1984 1.356 . S
H1986 C1980 0.930 . S
H1987 C1981 0.930 . S
C1988 N1989 1.314 . S
C1988 C1990 1.353 . S
C1988 H1994 0.930 . S
N1989 Li1939 1.990 . S
N1989 C1988 1.314 . S
N1989 C1992 1.279 . S
C1990 C1988 1.353 . S
C1990 C1993 1.348 . S
C1990 H2022 0.929 . S
C1991 C1992 1.358 . S
C1991 C1993 1.356 . S
C1991 H2023 0.930 . S
C1992 N1989 1.279 . S
C1992 C1991 1.358 . S
C1992 H1995 0.930 . S
C1993 C1990 1.348 . S
C1993 C1991 1.356 . S
H1994 C1988 0.930 . S
H1995 C1992 0.930 . S
O1996 Li1936 1.956 . S
O1996 Li1937 1.970 . S
O1996 Li1938 1.961 . S
O1996 C1940 1.325 . S
O1997 Li1936 1.970 . S
O1997 Li1937 1.956 . S
O1997 Li1939 1.961 . S
O1997 C1946 1.325 . S
O1998 Li1936 1.961 . S
O1998 Li1938 1.956 . S
O1998 Li1939 1.970 . S
O1998 C1968 1.325 . S
O1999 Li1937 1.961 . S
O1999 Li1938 1.970 . S
O1999 Li1939 1.956 . S
O1999 C1974 1.325 . S
H2000 C1942 0.929 . S
H2001 C1943 0.930 . S
H2002 C1944 0.930 . S
H2003 C1945 0.930 . S
H2004 C1947 0.930 . S
H2005 C1949 0.929 . S
H2006 C1950 0.930 . S
H2007 C1951 0.930 . S
H2008 C1954 0.930 . S
H2009 C1957 0.929 . S
H2010 C1962 0.929 . S
H2011 C1963 0.930 . S
H2012 C1970 0.929 . S
H2013 C1971 0.930 . S
H2014 C1972 0.930 . S
H2015 C1973 0.930 . S
H2016 C1975 0.929 . S
H2017 C1976 0.930 . S
H2018 C1977 0.930 . S
H2019 C1978 0.930 . S
H2020 C1982 0.929 . S
H2021 C1984 0.930 . S
H2022 C1990 0.929 . S
H2023 C1991 0.930 . S
Li2024 N2041 1.990 . S
Li2024 O2084 1.956 . S
Li2024 O2085 1.970 . S
Li2024 O2086 1.961 . S
Li2025 N2049 1.990 . S
Li2025 O2084 1.970 . S
Li2025 O2085 1.956 . S
Li2025 O2087 1.961 . S
Li2026 N2071 1.990 . S
Li2026 O2084 1.961 . S
Li2026 O2086 1.956 . S
Li2026 O2087 1.970 . S
Li2027 N2077 1.990 . S
Li2027 O2085 1.961 . S
Li2027 O2086 1.970 . S
Li2027 O2087 1.956 . S
C2028 C2030 1.348 . S
C2028 C2031 1.356 . S
C2028 O2084 1.325 . S
N2029 C2032 1.314 . S
N2029 C2033 1.279 . S
C2030 C2028 1.348 . S
C2030 C2032 1.353 . S
C2030 H2088 0.929 . S
C2031 C2028 1.356 . S
C2031 C2033 1.358 . S
C2031 H2089 0.930 . S
C2032 N2029 1.314 . S
C2032 C2030 1.353 . S
C2032 H2090 0.930 . S
C2033 N2029 1.279 . S
C2033 C2031 1.358 . S
C2033 H2091 0.930 . S
C2034 C2037 1.348 . S
C2034 C2038 1.356 . S
C2034 O2085 1.325 . S
C2035 N2036 1.279 . S
C2035 C2038 1.358 . S
C2035 H2092 0.930 . S
N2036 C2035 1.279 . S
N2036 C2039 1.314 . S
C2037 C2034 1.348 . S
C2037 C2039 1.353 . S
C2037 H2093 0.929 . S
C2038 C2034 1.356 . S
C2038 C2035 1.358 . S
C2038 H2094 0.930 . S
C2039 N2036 1.314 . S
C2039 C2037 1.353 . S
C2039 H2095 0.930 . S
C2040 N2041 1.314 . S
C2040 C2045 1.353 . S
C2040 H2046 0.930 . S
N2041 Li2024 1.990 . S
N2041 C2040 1.314 . S
N2041 C2043 1.279 . S
C2042 C2043 1.358 . S
C2042 C2044 1.356 . S
C2042 H2096 0.930 . S
C2043 N2041 1.279 . S
C2043 C2042 1.358 . S
C2043 H2047 0.930 . S
C2044 C2042 1.356 . S
C2044 C2045 1.348 . S
C2045 C2040 1.353 . S
C2045 C2044 1.348 . S
C2045 H2097 0.929 . S
H2046 C2040 0.930 . S
H2047 C2043 0.930 . S
C2048 N2049 1.314 . S
C2048 C2050 1.353 . S
C2048 H2054 0.930 . S
N2049 Li2025 1.990 . S
N2049 C2048 1.314 . S
N2049 C2052 1.279 . S
C2050 C2048 1.353 . S
C2050 C2053 1.348 . S
C2050 H2098 0.929 . S
C2051 C2052 1.358 . S
C2051 C2053 1.356 . S
C2051 H2099 0.930 . S
C2052 N2049 1.279 . S
C2052 C2051 1.358 . S
C2052 H2055 0.930 . S
C2053 C2050 1.348 . S
C2053 C2051 1.356 . S
H2054 C2048 0.930 . S
H2055 C2052 0.930 . S
C2056 C2058 1.348 . S
C2056 C2059 1.356 . S
C2056 O2086 1.325 . S
N2057 C2060 1.314 . S
N2057 C2061 1.279 . S
C2058 C2056 1.348 . S
C2058 C2060 1.353 . S
C2058 H2100 0.929 . S
C2059 C2056 1.356 . S
C2059 C2061 1.358 . S
C2059 H2101 0.930 . S
C2060 N2057 1.314 . S
C2060 C2058 1.353 . S
C2060 H2102 0.930 . S
C2061 N2057 1.279 . S
C2061 C2059 1.358 . S
C2061 H2103 0.930 . S
C2062 C2063 1.348 . S
C2062 C2064 1.356 . S
C2062 O2087 1.325 . S
C2063 C2062 1.348 . S
C2063 C2065 1.353 . S
C2063 H2104 0.929 . S
C2064 C2062 1.356 . S
C2064 C2066 1.358 . S
C2064 H2105 0.930 . S
C2065 C2063 1.353 . S
C2065 N2067 1.314 . S
C2065 H2106 0.930 . S
C2066 C2064 1.358 . S
C2066 N2067 1.279 . S
C2066 H2107 0.930 . S
N2067 C2065 1.314 . S
N2067 C2066 1.279 . S
C2068 C2070 1.353 . S
C2068 N2071 1.314 . S
C2068 H2074 0.930 . S
C2069 N2071 1.279 . S
C2069 C2072 1.358 . S
C2069 H2075 0.930 . S
C2070 C2068 1.353 . S
C2070 C2073 1.348 . S
C2070 H2108 0.929 . S
N2071 Li2026 1.990 . S
N2071 C2068 1.314 . S
N2071 C2069 1.279 . S
C2072 C2069 1.358 . S
C2072 C2073 1.356 . S
C2072 H2109 0.930 . S
C2073 C2070 1.348 . S
C2073 C2072 1.356 . S
H2074 C2068 0.930 . S
H2075 C2069 0.930 . S
C2076 N2077 1.314 . S
C2076 C2078 1.353 . S
C2076 H2082 0.930 . S
N2077 Li2027 1.990 . S
N2077 C2076 1.314 . S
N2077 C2080 1.279 . S
C2078 C2076 1.353 . S
C2078 C2081 1.348 . S
C2078 H2110 0.929 . S
C2079 C2080 1.358 . S
C2079 C2081 1.356 . S
C2079 H2111 0.930 . S
C2080 N2077 1.279 . S
C2080 C2079 1.358 . S
C2080 H2083 0.930 . S
C2081 C2078 1.348 . S
C2081 C2079 1.356 . S
H2082 C2076 0.930 . S
H2083 C2080 0.930 . S
O2084 Li2024 1.956 . S
O2084 Li2025 1.970 . S
O2084 Li2026 1.961 . S
O2084 C2028 1.325 . S
O2085 Li2024 1.970 . S
O2085 Li2025 1.956 . S
O2085 Li2027 1.961 . S
O2085 C2034 1.325 . S
O2086 Li2024 1.961 . S
O2086 Li2026 1.956 . S
O2086 Li2027 1.970 . S
O2086 C2056 1.325 . S
O2087 Li2025 1.961 . S
O2087 Li2026 1.970 . S
O2087 Li2027 1.956 . S
O2087 C2062 1.325 . S
H2088 C2030 0.929 . S
H2089 C2031 0.930 . S
H2090 C2032 0.930 . S
H2091 C2033 0.930 . S
H2092 C2035 0.930 . S
H2093 C2037 0.929 . S
H2094 C2038 0.930 . S
H2095 C2039 0.930 . S
H2096 C2042 0.930 . S
H2097 C2045 0.929 . S
H2098 C2050 0.929 . S
H2099 C2051 0.930 . S
H2100 C2058 0.929 . S
H2101 C2059 0.930 . S
H2102 C2060 0.930 . S
H2103 C2061 0.930 . S
H2104 C2063 0.929 . S
H2105 C2064 0.930 . S
H2106 C2065 0.930 . S
H2107 C2066 0.930 . S
H2108 C2070 0.929 . S
H2109 C2072 0.930 . S
H2110 C2078 0.929 . S
H2111 C2079 0.930 . S
H2112 C2120 0.950 . S
H2113 C2125 0.950 . S
H2114 C2122 0.950 . S
H2115 C2124 0.950 . S
H2116 C2126 0.950 . S
H2117 C2128 0.950 . S
H2118 C2130 0.950 . S
H2119 C2131 0.950 . S
C2120 H2112 0.950 . S
C2120 C2121 1.386 . S
C2120 C2122 1.391 . S
C2121 C2120 1.386 . S
C2121 C2125 1.393 . S
C2122 H2114 0.950 . S
C2122 C2120 1.391 . S
C2122 C2123 1.400 . S
C2123 C2122 1.400 . S
C2123 C2124 1.398 . S
C2123 C2129 1.491 . S
C2124 H2115 0.950 . S
C2124 C2123 1.398 . S
C2124 C2125 1.391 . S
C2125 H2113 0.950 . S
C2125 C2121 1.393 . S
C2125 C2124 1.391 . S
C2126 H2116 0.950 . S
C2126 C2127 1.386 . S
C2126 C2128 1.391 . S
C2127 C2126 1.386 . S
C2127 C2131 1.393 . S
C2128 H2117 0.950 . S
C2128 C2126 1.391 . S
C2128 C2129 1.400 . S
C2129 C2123 1.491 . S
C2129 C2128 1.400 . S
C2129 C2130 1.398 . S
C2130 H2118 0.950 . S
C2130 C2129 1.398 . S
C2130 C2131 1.391 . S
C2131 H2119 0.950 . S
C2131 C2127 1.393 . S
C2131 C2130 1.391 . S
H2132 C2140 0.950 . S
H2133 C2145 0.950 . S
H2134 C2142 0.950 . S
H2135 C2144 0.950 . S
H2136 C2146 0.950 . S
H2137 C2148 0.950 . S
H2138 C2150 0.950 . S
H2139 C2151 0.950 . S
C2140 H2132 0.950 . S
C2140 C2141 1.386 . S
C2140 C2142 1.391 . S
C2141 C2140 1.386 . S
C2141 C2145 1.393 . S
C2142 H2134 0.950 . S
C2142 C2140 1.391 . S
C2142 C2143 1.400 . S
C2143 C2142 1.400 . S
C2143 C2144 1.398 . S
C2143 C2149 1.491 . S
C2144 H2135 0.950 . S
C2144 C2143 1.398 . S
C2144 C2145 1.391 . S
C2145 H2133 0.950 . S
C2145 C2141 1.393 . S
C2145 C2144 1.391 . S
C2146 H2136 0.950 . S
C2146 C2147 1.386 . S
C2146 C2148 1.391 . S
C2147 C2146 1.386 . S
C2147 C2151 1.393 . S
C2148 H2137 0.950 . S
C2148 C2146 1.391 . S
C2148 C2149 1.400 . S
C2149 C2143 1.491 . S
C2149 C2148 1.400 . S
C2149 C2150 1.398 . S
C2150 H2138 0.950 . S
C2150 C2149 1.398 . S
C2150 C2151 1.391 . S
C2151 H2139 0.950 . S
C2151 C2147 1.393 . S
C2151 C2150 1.391 . S
H2152 C2160 0.950 . S
H2153 C2165 0.950 . S
H2154 C2162 0.950 . S
H2155 C2164 0.950 . S
H2156 C2166 0.950 . S
H2157 C2168 0.950 . S
H2158 C2170 0.950 . S
H2159 C2171 0.950 . S
C2160 H2152 0.950 . S
C2160 C2161 1.386 . S
C2160 C2162 1.391 . S
C2161 C2160 1.386 . S
C2161 C2165 1.393 . S
C2162 H2154 0.950 . S
C2162 C2160 1.391 . S
C2162 C2163 1.400 . S
C2163 C2162 1.400 . S
C2163 C2164 1.398 . S
C2163 C2169 1.491 . S
C2164 H2155 0.950 . S
C2164 C2163 1.398 . S
C2164 C2165 1.391 . S
C2165 H2153 0.950 . S
C2165 C2161 1.393 . S
C2165 C2164 1.391 . S
C2166 H2156 0.950 . S
C2166 C2167 1.386 . S
C2166 C2168 1.391 . S
C2167 C2166 1.386 . S
C2167 C2171 1.393 . S
C2168 H2157 0.950 . S
C2168 C2166 1.391 . S
C2168 C2169 1.400 . S
C2169 C2163 1.491 . S
C2169 C2168 1.400 . S
C2169 C2170 1.398 . S
C2170 H2158 0.950 . S
C2170 C2169 1.398 . S
C2170 C2171 1.391 . S
C2171 H2159 0.950 . S
C2171 C2167 1.393 . S
C2171 C2170 1.391 . S
H2172 C2180 0.950 . S
H2173 C2185 0.950 . S
H2174 C2182 0.950 . S
H2175 C2184 0.950 . S
H2176 C2186 0.950 . S
H2177 C2188 0.950 . S
H2178 C2190 0.950 . S
H2179 C2191 0.950 . S
C2180 H2172 0.950 . S
C2180 C2181 1.386 . S
C2180 C2182 1.391 . S
C2181 C2180 1.386 . S
C2181 C2185 1.393 . S
C2182 H2174 0.950 . S
C2182 C2180 1.391 . S
C2182 C2183 1.400 . S
C2183 C2182 1.400 . S
C2183 C2184 1.398 . S
C2183 C2189 1.491 . S
C2184 H2175 0.950 . S
C2184 C2183 1.398 . S
C2184 C2185 1.391 . S
C2185 H2173 0.950 . S
C2185 C2181 1.393 . S
C2185 C2184 1.391 . S
C2186 H2176 0.950 . S
C2186 C2187 1.386 . S
C2186 C2188 1.391 . S
C2187 C2186 1.386 . S
C2187 C2191 1.393 . S
C2188 H2177 0.950 . S
C2188 C2186 1.391 . S
C2188 C2189 1.400 . S
C2189 C2183 1.491 . S
C2189 C2188 1.400 . S
C2189 C2190 1.398 . S
C2190 H2178 0.950 . S
C2190 C2189 1.398 . S
C2190 C2191 1.391 . S
C2191 H2179 0.950 . S
C2191 C2187 1.393 . S
C2191 C2190 1.391 . S
H2192 C2200 0.950 . S
H2193 C2205 0.950 . S
H2194 C2202 0.950 . S
H2195 C2204 0.950 . S
H2196 C2206 0.950 . S
H2197 C2208 0.950 . S
H2198 C2210 0.950 . S
H2199 C2211 0.950 . S
C2200 H2192 0.950 . S
C2200 C2201 1.386 . S
C2200 C2202 1.391 . S
C2201 C2200 1.386 . S
C2201 C2205 1.393 . S
C2202 H2194 0.950 . S
C2202 C2200 1.391 . S
C2202 C2203 1.400 . S
C2203 C2202 1.400 . S
C2203 C2204 1.398 . S
C2203 C2209 1.491 . S
C2204 H2195 0.950 . S
C2204 C2203 1.398 . S
C2204 C2205 1.391 . S
C2205 H2193 0.950 . S
C2205 C2201 1.393 . S
C2205 C2204 1.391 . S
C2206 H2196 0.950 . S
C2206 C2207 1.386 . S
C2206 C2208 1.391 . S
C2207 C2206 1.386 . S
C2207 C2211 1.393 . S
C2208 H2197 0.950 . S
C2208 C2206 1.391 . S
C2208 C2209 1.400 . S
C2209 C2203 1.491 . S
C2209 C2208 1.400 . S
C2209 C2210 1.398 . S
C2210 H2198 0.950 . S
C2210 C2209 1.398 . S
C2210 C2211 1.391 . S
C2211 H2199 0.950 . S
C2211 C2207 1.393 . S
C2211 C2210 1.391 . S
H2212 C2220 0.950 . S
H2213 C2225 0.950 . S
H2214 C2222 0.950 . S
H2215 C2224 0.950 . S
H2216 C2226 0.950 . S
H2217 C2228 0.950 . S
H2218 C2230 0.950 . S
H2219 C2231 0.950 . S
C2220 H2212 0.950 . S
C2220 C2221 1.386 . S
C2220 C2222 1.391 . S
C2221 C2220 1.386 . S
C2221 C2225 1.393 . S
C2222 H2214 0.950 . S
C2222 C2220 1.391 . S
C2222 C2223 1.400 . S
C2223 C2222 1.400 . S
C2223 C2224 1.398 . S
C2223 C2229 1.491 . S
C2224 H2215 0.950 . S
C2224 C2223 1.398 . S
C2224 C2225 1.391 . S
C2225 H2213 0.950 . S
C2225 C2221 1.393 . S
C2225 C2224 1.391 . S
C2226 H2216 0.950 . S
C2226 C2227 1.386 . S
C2226 C2228 1.391 . S
C2227 C2226 1.386 . S
C2227 C2231 1.393 . S
C2228 H2217 0.950 . S
C2228 C2226 1.391 . S
C2228 C2229 1.400 . S
C2229 C2223 1.491 . S
C2229 C2228 1.400 . S
C2229 C2230 1.398 . S
C2230 H2218 0.950 . S
C2230 C2229 1.398 . S
C2230 C2231 1.391 . S
C2231 H2219 0.950 . S
C2231 C2227 1.393 . S
C2231 C2230 1.391 . S
H2232 C2240 0.950 . S
H2233 C2245 0.950 . S
H2234 C2242 0.950 . S
H2235 C2244 0.950 . S
H2236 C2246 0.950 . S
H2237 C2248 0.950 . S
H2238 C2250 0.950 . S
H2239 C2251 0.950 . S
C2240 H2232 0.950 . S
C2240 C2241 1.386 . S
C2240 C2242 1.391 . S
C2241 C2240 1.386 . S
C2241 C2245 1.393 . S
C2242 H2234 0.950 . S
C2242 C2240 1.391 . S
C2242 C2243 1.400 . S
C2243 C2242 1.400 . S
C2243 C2244 1.398 . S
C2243 C2249 1.491 . S
C2244 H2235 0.950 . S
C2244 C2243 1.398 . S
C2244 C2245 1.391 . S
C2245 H2233 0.950 . S
C2245 C2241 1.393 . S
C2245 C2244 1.391 . S
C2246 H2236 0.950 . S
C2246 C2247 1.386 . S
C2246 C2248 1.391 . S
C2247 C2246 1.386 . S
C2247 C2251 1.393 . S
C2248 H2237 0.950 . S
C2248 C2246 1.391 . S
C2248 C2249 1.400 . S
C2249 C2243 1.491 . S
C2249 C2248 1.400 . S
C2249 C2250 1.398 . S
C2250 H2238 0.950 . S
C2250 C2249 1.398 . S
C2250 C2251 1.391 . S
C2251 H2239 0.950 . S
C2251 C2247 1.393 . S
C2251 C2250 1.391 . S
H2252 C2260 0.950 . S
H2253 C2265 0.950 . S
H2254 C2262 0.950 . S
H2255 C2264 0.950 . S
H2256 C2266 0.950 . S
H2257 C2268 0.950 . S
H2258 C2270 0.950 . S
H2259 C2271 0.950 . S
C2260 H2252 0.950 . S
C2260 C2261 1.386 . S
C2260 C2262 1.391 . S
C2261 C2260 1.386 . S
C2261 C2265 1.393 . S
C2262 H2254 0.950 . S
C2262 C2260 1.391 . S
C2262 C2263 1.400 . S
C2263 C2262 1.400 . S
C2263 C2264 1.398 . S
C2263 C2269 1.491 . S
C2264 H2255 0.950 . S
C2264 C2263 1.398 . S
C2264 C2265 1.391 . S
C2265 H2253 0.950 . S
C2265 C2261 1.393 . S
C2265 C2264 1.391 . S
C2266 H2256 0.950 . S
C2266 C2267 1.386 . S
C2266 C2268 1.391 . S
C2267 C2266 1.386 . S
C2267 C2271 1.393 . S
C2268 H2257 0.950 . S
C2268 C2266 1.391 . S
C2268 C2269 1.400 . S
C2269 C2263 1.491 . S
C2269 C2268 1.400 . S
C2269 C2270 1.398 . S
C2270 H2258 0.950 . S
C2270 C2269 1.398 . S
C2270 C2271 1.391 . S
C2271 H2259 0.950 . S
C2271 C2267 1.393 . S
C2271 C2270 1.391 . S
H2272 C2280 0.950 . S
H2273 C2285 0.950 . S
H2274 C2282 0.950 . S
H2275 C2284 0.950 . S
H2276 C2286 0.950 . S
H2277 C2288 0.950 . S
H2278 C2290 0.950 . S
H2279 C2291 0.950 . S
C2280 H2272 0.950 . S
C2280 C2281 1.386 . S
C2280 C2282 1.391 . S
C2281 C2280 1.386 . S
C2281 C2285 1.393 . S
C2282 H2274 0.950 . S
C2282 C2280 1.391 . S
C2282 C2283 1.400 . S
C2283 C2282 1.400 . S
C2283 C2284 1.398 . S
C2283 C2289 1.491 . S
C2284 H2275 0.950 . S
C2284 C2283 1.398 . S
C2284 C2285 1.391 . S
C2285 H2273 0.950 . S
C2285 C2281 1.393 . S
C2285 C2284 1.391 . S
C2286 H2276 0.950 . S
C2286 C2287 1.386 . S
C2286 C2288 1.391 . S
C2287 C2286 1.386 . S
C2287 C2291 1.393 . S
C2288 H2277 0.950 . S
C2288 C2286 1.391 . S
C2288 C2289 1.400 . S
C2289 C2283 1.491 . S
C2289 C2288 1.400 . S
C2289 C2290 1.398 . S
C2290 H2278 0.950 . S
C2290 C2289 1.398 . S
C2290 C2291 1.391 . S
C2291 H2279 0.950 . S
C2291 C2287 1.393 . S
C2291 C2290 1.391 . S
H2292 C2300 0.950 . S
H2293 C2305 0.950 . S
H2294 C2302 0.950 . S
H2295 C2304 0.950 . S
H2296 C2306 0.950 . S
H2297 C2308 0.950 . S
H2298 C2310 0.950 . S
H2299 C2311 0.950 . S
C2300 H2292 0.950 . S
C2300 C2301 1.386 . S
C2300 C2302 1.391 . S
C2301 C2300 1.386 . S
C2301 C2305 1.393 . S
C2302 H2294 0.950 . S
C2302 C2300 1.391 . S
C2302 C2303 1.400 . S
C2303 C2302 1.400 . S
C2303 C2304 1.398 . S
C2303 C2309 1.491 . S
C2304 H2295 0.950 . S
C2304 C2303 1.398 . S
C2304 C2305 1.391 . S
C2305 H2293 0.950 . S
C2305 C2301 1.393 . S
C2305 C2304 1.391 . S
C2306 H2296 0.950 . S
C2306 C2307 1.386 . S
C2306 C2308 1.391 . S
C2307 C2306 1.386 . S
C2307 C2311 1.393 . S
C2308 H2297 0.950 . S
C2308 C2306 1.391 . S
C2308 C2309 1.400 . S
C2309 C2303 1.491 . S
C2309 C2308 1.400 . S
C2309 C2310 1.398 . S
C2310 H2298 0.950 . S
C2310 C2309 1.398 . S
C2310 C2311 1.391 . S
C2311 H2299 0.950 . S
C2311 C2307 1.393 . S
C2311 C2310 1.391 . S
H2312 C2320 0.950 . S
H2313 C2325 0.950 . S
H2314 C2322 0.950 . S
H2315 C2324 0.950 . S
H2316 C2326 0.950 . S
H2317 C2328 0.950 . S
H2318 C2330 0.950 . S
H2319 C2331 0.950 . S
C2320 H2312 0.950 . S
C2320 C2321 1.386 . S
C2320 C2322 1.391 . S
C2321 C2320 1.386 . S
C2321 C2325 1.393 . S
C2322 H2314 0.950 . S
C2322 C2320 1.391 . S
C2322 C2323 1.400 . S
C2323 C2322 1.400 . S
C2323 C2324 1.398 . S
C2323 C2329 1.491 . S
C2324 H2315 0.950 . S
C2324 C2323 1.398 . S
C2324 C2325 1.391 . S
C2325 H2313 0.950 . S
C2325 C2321 1.393 . S
C2325 C2324 1.391 . S
C2326 H2316 0.950 . S
C2326 C2327 1.386 . S
C2326 C2328 1.391 . S
C2327 C2326 1.386 . S
C2327 C2331 1.393 . S
C2328 H2317 0.950 . S
C2328 C2326 1.391 . S
C2328 C2329 1.400 . S
C2329 C2323 1.491 . S
C2329 C2328 1.400 . S
C2329 C2330 1.398 . S
C2330 H2318 0.950 . S
C2330 C2329 1.398 . S
C2330 C2331 1.391 . S
C2331 H2319 0.950 . S
C2331 C2327 1.393 . S
C2331 C2330 1.391 . S
H2332 C2340 0.950 . S
H2333 C2345 0.950 . S
H2334 C2342 0.950 . S
H2335 C2344 0.950 . S
H2336 C2346 0.950 . S
H2337 C2348 0.950 . S
H2338 C2350 0.950 . S
H2339 C2351 0.950 . S
C2340 H2332 0.950 . S
C2340 C2341 1.386 . S
C2340 C2342 1.391 . S
C2341 C2340 1.386 . S
C2341 C2345 1.393 . S
C2342 H2334 0.950 . S
C2342 C2340 1.391 . S
C2342 C2343 1.400 . S
C2343 C2342 1.400 . S
C2343 C2344 1.398 . S
C2343 C2349 1.491 . S
C2344 H2335 0.950 . S
C2344 C2343 1.398 . S
C2344 C2345 1.391 . S
C2345 H2333 0.950 . S
C2345 C2341 1.393 . S
C2345 C2344 1.391 . S
C2346 H2336 0.950 . S
C2346 C2347 1.386 . S
C2346 C2348 1.391 . S
C2347 C2346 1.386 . S
C2347 C2351 1.393 . S
C2348 H2337 0.950 . S
C2348 C2346 1.391 . S
C2348 C2349 1.400 . S
C2349 C2343 1.491 . S
C2349 C2348 1.400 . S
C2349 C2350 1.398 . S
C2350 H2338 0.950 . S
C2350 C2349 1.398 . S
C2350 C2351 1.391 . S
C2351 H2339 0.950 . S
C2351 C2347 1.393 . S
C2351 C2350 1.391 . S
H2352 C2360 0.950 . S
H2353 C2365 0.950 . S
H2354 C2362 0.950 . S
H2355 C2364 0.950 . S
H2356 C2366 0.950 . S
H2357 C2368 0.950 . S
H2358 C2370 0.950 . S
H2359 C2371 0.950 . S
C2360 H2352 0.950 . S
C2360 C2361 1.386 . S
C2360 C2362 1.391 . S
C2361 C2360 1.386 . S
C2361 C2365 1.393 . S
C2362 H2354 0.950 . S
C2362 C2360 1.391 . S
C2362 C2363 1.400 . S
C2363 C2362 1.400 . S
C2363 C2364 1.398 . S
C2363 C2369 1.491 . S
C2364 H2355 0.950 . S
C2364 C2363 1.398 . S
C2364 C2365 1.391 . S
C2365 H2353 0.950 . S
C2365 C2361 1.393 . S
C2365 C2364 1.391 . S
C2366 H2356 0.950 . S
C2366 C2367 1.386 . S
C2366 C2368 1.391 . S
C2367 C2366 1.386 . S
C2367 C2371 1.393 . S
C2368 H2357 0.950 . S
C2368 C2366 1.391 . S
C2368 C2369 1.400 . S
C2369 C2363 1.491 . S
C2369 C2368 1.400 . S
C2369 C2370 1.398 . S
C2370 H2358 0.950 . S
C2370 C2369 1.398 . S
C2370 C2371 1.391 . S
C2371 H2359 0.950 . S
C2371 C2367 1.393 . S
C2371 C2370 1.391 . S
H2372 C2380 0.950 . S
H2373 C2385 0.950 . S
H2374 C2382 0.950 . S
H2375 C2384 0.950 . S
H2376 C2386 0.950 . S
H2377 C2388 0.950 . S
H2378 C2390 0.950 . S
H2379 C2391 0.950 . S
C2380 H2372 0.950 . S
C2380 C2381 1.386 . S
C2380 C2382 1.391 . S
C2381 C2380 1.386 . S
C2381 C2385 1.393 . S
C2382 H2374 0.950 . S
C2382 C2380 1.391 . S
C2382 C2383 1.400 . S
C2383 C2382 1.400 . S
C2383 C2384 1.398 . S
C2383 C2389 1.491 . S
C2384 H2375 0.950 . S
C2384 C2383 1.398 . S
C2384 C2385 1.391 . S
C2385 H2373 0.950 . S
C2385 C2381 1.393 . S
C2385 C2384 1.391 . S
C2386 H2376 0.950 . S
C2386 C2387 1.386 . S
C2386 C2388 1.391 . S
C2387 C2386 1.386 . S
C2387 C2391 1.393 . S
C2388 H2377 0.950 . S
C2388 C2386 1.391 . S
C2388 C2389 1.400 . S
C2389 C2383 1.491 . S
C2389 C2388 1.400 . S
C2389 C2390 1.398 . S
C2390 H2378 0.950 . S
C2390 C2389 1.398 . S
C2390 C2391 1.391 . S
C2391 H2379 0.950 . S
C2391 C2387 1.393 . S
C2391 C2390 1.391 . S
H2392 C2400 0.950 . S
H2393 C2405 0.950 . S
H2394 C2402 0.950 . S
H2395 C2404 0.950 . S
H2396 C2406 0.950 . S
H2397 C2408 0.950 . S
H2398 C2410 0.950 . S
H2399 C2411 0.950 . S
C2400 H2392 0.950 . S
C2400 C2401 1.386 . S
C2400 C2402 1.391 . S
C2401 C2400 1.386 . S
C2401 C2405 1.393 . S
C2402 H2394 0.950 . S
C2402 C2400 1.391 . S
C2402 C2403 1.400 . S
C2403 C2402 1.400 . S
C2403 C2404 1.398 . S
C2403 C2409 1.491 . S
C2404 H2395 0.950 . S
C2404 C2403 1.398 . S
C2404 C2405 1.391 . S
C2405 H2393 0.950 . S
C2405 C2401 1.393 . S
C2405 C2404 1.391 . S
C2406 H2396 0.950 . S
C2406 C2407 1.386 . S
C2406 C2408 1.391 . S
C2407 C2406 1.386 . S
C2407 C2411 1.393 . S
C2408 H2397 0.950 . S
C2408 C2406 1.391 . S
C2408 C2409 1.400 . S
C2409 C2403 1.491 . S
C2409 C2408 1.400 . S
C2409 C2410 1.398 . S
C2410 H2398 0.950 . S
C2410 C2409 1.398 . S
C2410 C2411 1.391 . S
C2411 H2399 0.950 . S
C2411 C2407 1.393 . S
C2411 C2410 1.391 . S
H2412 C2420 0.950 . S
H2413 C2425 0.950 . S
H2414 C2422 0.950 . S
H2415 C2424 0.950 . S
H2416 C2426 0.950 . S
H2417 C2428 0.950 . S
H2418 C2430 0.950 . S
H2419 C2431 0.950 . S
C2420 H2412 0.950 . S
C2420 C2421 1.386 . S
C2420 C2422 1.391 . S
C2421 C2420 1.386 . S
C2421 C2425 1.393 . S
C2422 H2414 0.950 . S
C2422 C2420 1.391 . S
C2422 C2423 1.400 . S
C2423 C2422 1.400 . S
C2423 C2424 1.398 . S
C2423 C2429 1.491 . S
C2424 H2415 0.950 . S
C2424 C2423 1.398 . S
C2424 C2425 1.391 . S
C2425 H2413 0.950 . S
C2425 C2421 1.393 . S
C2425 C2424 1.391 . S
C2426 H2416 0.950 . S
C2426 C2427 1.386 . S
C2426 C2428 1.391 . S
C2427 C2426 1.386 . S
C2427 C2431 1.393 . S
C2428 H2417 0.950 . S
C2428 C2426 1.391 . S
C2428 C2429 1.400 . S
C2429 C2423 1.491 . S
C2429 C2428 1.400 . S
C2429 C2430 1.398 . S
C2430 H2418 0.950 . S
C2430 C2429 1.398 . S
C2430 C2431 1.391 . S
C2431 H2419 0.950 . S
C2431 C2427 1.393 . S
C2431 C2430 1.391 . S
H2432 C2440 0.950 . S
H2433 C2445 0.950 . S
H2434 C2442 0.950 . S
H2435 C2444 0.950 . S
H2436 C2446 0.950 . S
H2437 C2448 0.950 . S
H2438 C2450 0.950 . S
H2439 C2451 0.950 . S
C2440 H2432 0.950 . S
C2440 C2441 1.386 . S
C2440 C2442 1.391 . S
C2441 C2440 1.386 . S
C2441 C2445 1.393 . S
C2442 H2434 0.950 . S
C2442 C2440 1.391 . S
C2442 C2443 1.400 . S
C2443 C2442 1.400 . S
C2443 C2444 1.398 . S
C2443 C2449 1.491 . S
C2444 H2435 0.950 . S
C2444 C2443 1.398 . S
C2444 C2445 1.391 . S
C2445 H2433 0.950 . S
C2445 C2441 1.393 . S
C2445 C2444 1.391 . S
C2446 H2436 0.950 . S
C2446 C2447 1.386 . S
C2446 C2448 1.391 . S
C2447 C2446 1.386 . S
C2447 C2451 1.393 . S
C2448 H2437 0.950 . S
C2448 C2446 1.391 . S
C2448 C2449 1.400 . S
C2449 C2443 1.491 . S
C2449 C2448 1.400 . S
C2449 C2450 1.398 . S
C2450 H2438 0.950 . S
C2450 C2449 1.398 . S
C2450 C2451 1.391 . S
C2451 H2439 0.950 . S
C2451 C2447 1.393 . S
C2451 C2450 1.391 . S
H2452 C2460 0.950 . S
H2453 C2465 0.950 . S
H2454 C2462 0.950 . S
H2455 C2464 0.950 . S
H2456 C2466 0.950 . S
H2457 C2468 0.950 . S
H2458 C2470 0.950 . S
H2459 C2471 0.950 . S
C2460 H2452 0.950 . S
C2460 C2461 1.386 . S
C2460 C2462 1.391 . S
C2461 C2460 1.386 . S
C2461 C2465 1.393 . S
C2462 H2454 0.950 . S
C2462 C2460 1.391 . S
C2462 C2463 1.400 . S
C2463 C2462 1.400 . S
C2463 C2464 1.398 . S
C2463 C2469 1.491 . S
C2464 H2455 0.950 . S
C2464 C2463 1.398 . S
C2464 C2465 1.391 . S
C2465 H2453 0.950 . S
C2465 C2461 1.393 . S
C2465 C2464 1.391 . S
C2466 H2456 0.950 . S
C2466 C2467 1.386 . S
C2466 C2468 1.391 . S
C2467 C2466 1.386 . S
C2467 C2471 1.393 . S
C2468 H2457 0.950 . S
C2468 C2466 1.391 . S
C2468 C2469 1.400 . S
C2469 C2463 1.491 . S
C2469 C2468 1.400 . S
C2469 C2470 1.398 . S
C2470 H2458 0.950 . S
C2470 C2469 1.398 . S
C2470 C2471 1.391 . S
C2471 H2459 0.950 . S
C2471 C2467 1.393 . S
C2471 C2470 1.391 . S
H2472 C2480 0.950 . S
H2473 C2485 0.950 . S
H2474 C2482 0.950 . S
H2475 C2484 0.950 . S
H2476 C2486 0.950 . S
H2477 C2488 0.950 . S
H2478 C2490 0.950 . S
H2479 C2491 0.950 . S
C2480 H2472 0.950 . S
C2480 C2481 1.386 . S
C2480 C2482 1.391 . S
C2481 C2480 1.386 . S
C2481 C2485 1.393 . S
C2482 H2474 0.950 . S
C2482 C2480 1.391 . S
C2482 C2483 1.400 . S
C2483 C2482 1.400 . S
C2483 C2484 1.398 . S
C2483 C2489 1.491 . S
C2484 H2475 0.950 . S
C2484 C2483 1.398 . S
C2484 C2485 1.391 . S
C2485 H2473 0.950 . S
C2485 C2481 1.393 . S
C2485 C2484 1.391 . S
C2486 H2476 0.950 . S
C2486 C2487 1.386 . S
C2486 C2488 1.391 . S
C2487 C2486 1.386 . S
C2487 C2491 1.393 . S
C2488 H2477 0.950 . S
C2488 C2486 1.391 . S
C2488 C2489 1.400 . S
C2489 C2483 1.491 . S
C2489 C2488 1.400 . S
C2489 C2490 1.398 . S
C2490 H2478 0.950 . S
C2490 C2489 1.398 . S
C2490 C2491 1.391 . S
C2491 H2479 0.950 . S
C2491 C2487 1.393 . S
C2491 C2490 1.391 . S
H2492 C2500 0.950 . S
H2493 C2505 0.950 . S
H2494 C2502 0.950 . S
H2495 C2504 0.950 . S
H2496 C2506 0.950 . S
H2497 C2508 0.950 . S
H2498 C2510 0.950 . S
H2499 C2511 0.950 . S
C2500 H2492 0.950 . S
C2500 C2501 1.386 . S
C2500 C2502 1.391 . S
C2501 C2500 1.386 . S
C2501 C2505 1.393 . S
C2502 H2494 0.950 . S
C2502 C2500 1.391 . S
C2502 C2503 1.400 . S
C2503 C2502 1.400 . S
C2503 C2504 1.398 . S
C2503 C2509 1.491 . S
C2504 H2495 0.950 . S
C2504 C2503 1.398 . S
C2504 C2505 1.391 . S
C2505 H2493 0.950 . S
C2505 C2501 1.393 . S
C2505 C2504 1.391 . S
C2506 H2496 0.950 . S
C2506 C2507 1.386 . S
C2506 C2508 1.391 . S
C2507 C2506 1.386 . S
C2507 C2511 1.393 . S
C2508 H2497 0.950 . S
C2508 C2506 1.391 . S
C2508 C2509 1.400 . S
C2509 C2503 1.491 . S
C2509 C2508 1.400 . S
C2509 C2510 1.398 . S
C2510 H2498 0.950 . S
C2510 C2509 1.398 . S
C2510 C2511 1.391 . S
C2511 H2499 0.950 . S
C2511 C2507 1.393 . S
C2511 C2510 1.391 . S
H2512 C2520 0.950 . S
H2513 C2525 0.950 . S
H2514 C2522 0.950 . S
H2515 C2524 0.950 . S
H2516 C2526 0.950 . S
H2517 C2528 0.950 . S
H2518 C2530 0.950 . S
H2519 C2531 0.950 . S
C2520 H2512 0.950 . S
C2520 C2521 1.386 . S
C2520 C2522 1.391 . S
C2521 C2520 1.386 . S
C2521 C2525 1.393 . S
C2522 H2514 0.950 . S
C2522 C2520 1.391 . S
C2522 C2523 1.400 . S
C2523 C2522 1.400 . S
C2523 C2524 1.398 . S
C2523 C2529 1.491 . S
C2524 H2515 0.950 . S
C2524 C2523 1.398 . S
C2524 C2525 1.391 . S
C2525 H2513 0.950 . S
C2525 C2521 1.393 . S
C2525 C2524 1.391 . S
C2526 H2516 0.950 . S
C2526 C2527 1.386 . S
C2526 C2528 1.391 . S
C2527 C2526 1.386 . S
C2527 C2531 1.393 . S
C2528 H2517 0.950 . S
C2528 C2526 1.391 . S
C2528 C2529 1.400 . S
C2529 C2523 1.491 . S
C2529 C2528 1.400 . S
C2529 C2530 1.398 . S
C2530 H2518 0.950 . S
C2530 C2529 1.398 . S
C2530 C2531 1.391 . S
C2531 H2519 0.950 . S
C2531 C2527 1.393 . S
C2531 C2530 1.391 . S
H2532 C2540 0.950 . S
H2533 C2545 0.950 . S
H2534 C2542 0.950 . S
H2535 C2544 0.950 . S
H2536 C2546 0.950 . S
H2537 C2548 0.950 . S
H2538 C2550 0.950 . S
H2539 C2551 0.950 . S
C2540 H2532 0.950 . S
C2540 C2541 1.386 . S
C2540 C2542 1.391 . S
C2541 C2540 1.386 . S
C2541 C2545 1.393 . S
C2542 H2534 0.950 . S
C2542 C2540 1.391 . S
C2542 C2543 1.400 . S
C2543 C2542 1.400 . S
C2543 C2544 1.398 . S
C2543 C2549 1.491 . S
C2544 H2535 0.950 . S
C2544 C2543 1.398 . S
C2544 C2545 1.391 . S
C2545 H2533 0.950 . S
C2545 C2541 1.393 . S
C2545 C2544 1.391 . S
C2546 H2536 0.950 . S
C2546 C2547 1.386 . S
C2546 C2548 1.391 . S
C2547 C2546 1.386 . S
C2547 C2551 1.393 . S
C2548 H2537 0.950 . S
C2548 C2546 1.391 . S
C2548 C2549 1.400 . S
C2549 C2543 1.491 . S
C2549 C2548 1.400 . S
C2549 C2550 1.398 . S
C2550 H2538 0.950 . S
C2550 C2549 1.398 . S
C2550 C2551 1.391 . S
C2551 H2539 0.950 . S
C2551 C2547 1.393 . S
C2551 C2550 1.391 . S
H2552 C2560 0.950 . S
H2553 C2565 0.950 . S
H2554 C2562 0.950 . S
H2555 C2564 0.950 . S
H2556 C2566 0.950 . S
H2557 C2568 0.950 . S
H2558 C2570 0.950 . S
H2559 C2571 0.950 . S
C2560 H2552 0.950 . S
C2560 C2561 1.386 . S
C2560 C2562 1.391 . S
C2561 C2560 1.386 . S
C2561 C2565 1.393 . S
C2562 H2554 0.950 . S
C2562 C2560 1.391 . S
C2562 C2563 1.400 . S
C2563 C2562 1.400 . S
C2563 C2564 1.398 . S
C2563 C2569 1.491 . S
C2564 H2555 0.950 . S
C2564 C2563 1.398 . S
C2564 C2565 1.391 . S
C2565 H2553 0.950 . S
C2565 C2561 1.393 . S
C2565 C2564 1.391 . S
C2566 H2556 0.950 . S
C2566 C2567 1.386 . S
C2566 C2568 1.391 . S
C2567 C2566 1.386 . S
C2567 C2571 1.393 . S
C2568 H2557 0.950 . S
C2568 C2566 1.391 . S
C2568 C2569 1.400 . S
C2569 C2563 1.491 . S
C2569 C2568 1.400 . S
C2569 C2570 1.398 . S
C2570 H2558 0.950 . S
C2570 C2569 1.398 . S
C2570 C2571 1.391 . S
C2571 H2559 0.950 . S
C2571 C2567 1.393 . S
C2571 C2570 1.391 . S
H2572 C2580 0.950 . S
H2573 C2585 0.950 . S
H2574 C2582 0.950 . S
H2575 C2584 0.950 . S
H2576 C2586 0.950 . S
H2577 C2588 0.950 . S
H2578 C2590 0.950 . S
H2579 C2591 0.950 . S
C2580 H2572 0.950 . S
C2580 C2581 1.386 . S
C2580 C2582 1.391 . S
C2581 C2580 1.386 . S
C2581 C2585 1.393 . S
C2582 H2574 0.950 . S
C2582 C2580 1.391 . S
C2582 C2583 1.400 . S
C2583 C2582 1.400 . S
C2583 C2584 1.398 . S
C2583 C2589 1.491 . S
C2584 H2575 0.950 . S
C2584 C2583 1.398 . S
C2584 C2585 1.391 . S
C2585 H2573 0.950 . S
C2585 C2581 1.393 . S
C2585 C2584 1.391 . S
C2586 H2576 0.950 . S
C2586 C2587 1.386 . S
C2586 C2588 1.391 . S
C2587 C2586 1.386 . S
C2587 C2591 1.393 . S
C2588 H2577 0.950 . S
C2588 C2586 1.391 . S
C2588 C2589 1.400 . S
C2589 C2583 1.491 . S
C2589 C2588 1.400 . S
C2589 C2590 1.398 . S
C2590 H2578 0.950 . S
C2590 C2589 1.398 . S
C2590 C2591 1.391 . S
C2591 H2579 0.950 . S
C2591 C2587 1.393 . S
C2591 C2590 1.391 . S
H2592 C2600 0.950 . S
H2593 C2605 0.950 . S
H2594 C2602 0.950 . S
H2595 C2604 0.950 . S
H2596 C2606 0.950 . S
H2597 C2608 0.950 . S
H2598 C2610 0.950 . S
H2599 C2611 0.950 . S
C2600 H2592 0.950 . S
C2600 C2601 1.386 . S
C2600 C2602 1.391 . S
C2601 C2600 1.386 . S
C2601 C2605 1.393 . S
C2602 H2594 0.950 . S
C2602 C2600 1.391 . S
C2602 C2603 1.400 . S
C2603 C2602 1.400 . S
C2603 C2604 1.398 . S
C2603 C2609 1.491 1_455 S
C2604 H2595 0.950 . S
C2604 C2603 1.398 . S
C2604 C2605 1.391 . S
C2605 H2593 0.950 . S
C2605 C2601 1.393 . S
C2605 C2604 1.391 . S
C2606 H2596 0.950 . S
C2606 C2607 1.386 . S
C2606 C2608 1.391 . S
C2607 C2606 1.386 . S
C2607 C2611 1.393 . S
C2608 H2597 0.950 . S
C2608 C2606 1.391 . S
C2608 C2609 1.400 . S
C2609 C2603 1.491 1_655 S
C2609 C2608 1.400 . S
C2609 C2610 1.398 . S
C2610 H2598 0.950 . S
C2610 C2609 1.398 . S
C2610 C2611 1.391 . S
C2611 H2599 0.950 . S
C2611 C2607 1.393 . S
C2611 C2610 1.391 . S
H2612 C2620 0.950 . S
H2613 C2625 0.950 . S
H2614 C2622 0.950 . S
H2615 C2624 0.950 . S
H2616 C2626 0.950 . S
H2617 C2628 0.950 . S
H2618 C2630 0.950 . S
H2619 C2631 0.950 . S
C2620 H2612 0.950 . S
C2620 C2621 1.386 . S
C2620 C2622 1.391 . S
C2621 C2620 1.386 . S
C2621 C2625 1.393 . S
C2622 H2614 0.950 . S
C2622 C2620 1.391 . S
C2622 C2623 1.400 . S
C2623 C2622 1.400 . S
C2623 C2624 1.398 . S
C2623 C2629 1.491 1_545 S
C2624 H2615 0.950 . S
C2624 C2623 1.398 . S
C2624 C2625 1.391 . S
C2625 H2613 0.950 . S
C2625 C2621 1.393 . S
C2625 C2624 1.391 . S
C2626 H2616 0.950 . S
C2626 C2627 1.386 . S
C2626 C2628 1.391 . S
C2627 C2626 1.386 . S
C2627 C2631 1.393 . S
C2628 H2617 0.950 . S
C2628 C2626 1.391 . S
C2628 C2629 1.400 . S
C2629 C2623 1.491 1_565 S
C2629 C2628 1.400 . S
C2629 C2630 1.398 . S
C2630 H2618 0.950 . S
C2630 C2629 1.398 . S
C2630 C2631 1.391 . S
C2631 H2619 0.950 . S
C2631 C2627 1.393 . S
C2631 C2630 1.391 . S
H2632 C2640 0.950 . S
H2633 C2645 0.950 . S
H2634 C2642 0.950 . S
H2635 C2644 0.950 . S
H2636 C2646 0.950 . S
H2637 C2648 0.950 . S
H2638 C2650 0.950 . S
H2639 C2651 0.950 . S
C2640 H2632 0.950 . S
C2640 C2641 1.386 . S
C2640 C2642 1.391 . S
C2641 C2640 1.386 . S
C2641 C2645 1.393 . S
C2642 H2634 0.950 . S
C2642 C2640 1.391 . S
C2642 C2643 1.400 . S
C2643 C2642 1.400 . S
C2643 C2644 1.398 . S
C2643 C2649 1.491 1_655 S
C2644 H2635 0.950 . S
C2644 C2643 1.398 . S
C2644 C2645 1.391 . S
C2645 H2633 0.950 . S
C2645 C2641 1.393 . S
C2645 C2644 1.391 . S
C2646 H2636 0.950 . S
C2646 C2647 1.386 . S
C2646 C2648 1.391 . S
C2647 C2646 1.386 . S
C2647 C2651 1.393 . S
C2648 H2637 0.950 . S
C2648 C2646 1.391 . S
C2648 C2649 1.400 . S
C2649 C2643 1.491 1_455 S
C2649 C2648 1.400 . S
C2649 C2650 1.398 . S
C2650 H2638 0.950 . S
C2650 C2649 1.398 . S
C2650 C2651 1.391 . S
C2651 H2639 0.950 . S
C2651 C2647 1.393 . S
C2651 C2650 1.391 . S
H2652 C2660 0.950 . S
H2653 C2665 0.950 . S
H2654 C2662 0.950 . S
H2655 C2664 0.950 . S
H2656 C2666 0.950 . S
H2657 C2668 0.950 . S
H2658 C2670 0.950 . S
H2659 C2671 0.950 . S
C2660 H2652 0.950 . S
C2660 C2661 1.386 . S
C2660 C2662 1.391 . S
C2661 C2660 1.386 . S
C2661 C2665 1.393 . S
C2662 H2654 0.950 . S
C2662 C2660 1.391 . S
C2662 C2663 1.400 . S
C2663 C2662 1.400 . S
C2663 C2664 1.398 . S
C2663 C2669 1.491 1_545 S
C2664 H2655 0.950 . S
C2664 C2663 1.398 . S
C2664 C2665 1.391 . S
C2665 H2653 0.950 . S
C2665 C2661 1.393 . S
C2665 C2664 1.391 . S
C2666 H2656 0.950 . S
C2666 C2667 1.386 . S
C2666 C2668 1.391 . S
C2667 C2666 1.386 . S
C2667 C2671 1.393 . S
C2668 H2657 0.950 . S
C2668 C2666 1.391 . S
C2668 C2669 1.400 . S
C2669 C2663 1.491 1_565 S
C2669 C2668 1.400 . S
C2669 C2670 1.398 . S
C2670 H2658 0.950 . S
C2670 C2669 1.398 . S
C2670 C2671 1.391 . S
C2671 H2659 0.950 . S
C2671 C2667 1.393 . S
C2671 C2670 1.391 . S
H2672 C2680 0.950 . S
H2673 C2685 0.950 . S
H2674 C2682 0.950 . S
H2675 C2684 0.950 . S
H2676 C2686 0.950 . S
H2677 C2688 0.950 . S
H2678 C2690 0.950 . S
H2679 C2691 0.950 . S
C2680 H2672 0.950 . S
C2680 C2681 1.386 . S
C2680 C2682 1.391 . S
C2681 C2680 1.386 . S
C2681 C2685 1.393 . S
C2682 H2674 0.950 . S
C2682 C2680 1.391 . S
C2682 C2683 1.400 . S
C2683 C2682 1.400 . S
C2683 C2684 1.398 . S
C2683 C2689 1.491 1_565 S
C2684 H2675 0.950 . S
C2684 C2683 1.398 . S
C2684 C2685 1.391 . S
C2685 H2673 0.950 . S
C2685 C2681 1.393 . S
C2685 C2684 1.391 . S
C2686 H2676 0.950 . S
C2686 C2687 1.386 . S
C2686 C2688 1.391 . S
C2687 C2686 1.386 . S
C2687 C2691 1.393 . S
C2688 H2677 0.950 . S
C2688 C2686 1.391 . S
C2688 C2689 1.400 . S
C2689 C2683 1.491 1_545 S
C2689 C2688 1.400 . S
C2689 C2690 1.398 . S
C2690 H2678 0.950 . S
C2690 C2689 1.398 . S
C2690 C2691 1.391 . S
C2691 H2679 0.950 . S
C2691 C2687 1.393 . S
C2691 C2690 1.391 . S
H2692 C2700 0.950 . S
H2693 C2705 0.950 . S
H2694 C2702 0.950 . S
H2695 C2704 0.950 . S
H2696 C2706 0.950 . S
H2697 C2708 0.950 . S
H2698 C2710 0.950 . S
H2699 C2711 0.950 . S
C2700 H2692 0.950 . S
C2700 C2701 1.386 . S
C2700 C2702 1.391 . S
C2701 C2700 1.386 . S
C2701 C2705 1.393 . S
C2702 H2694 0.950 . S
C2702 C2700 1.391 . S
C2702 C2703 1.400 . S
C2703 C2702 1.400 . S
C2703 C2704 1.398 . S
C2703 C2709 1.491 1_655 S
C2704 H2695 0.950 . S
C2704 C2703 1.398 . S
C2704 C2705 1.391 . S
C2705 H2693 0.950 . S
C2705 C2701 1.393 . S
C2705 C2704 1.391 . S
C2706 H2696 0.950 . S
C2706 C2707 1.386 . S
C2706 C2708 1.391 . S
C2707 C2706 1.386 . S
C2707 C2711 1.393 . S
C2708 H2697 0.950 . S
C2708 C2706 1.391 . S
C2708 C2709 1.400 . S
C2709 C2703 1.491 1_455 S
C2709 C2708 1.400 . S
C2709 C2710 1.398 . S
C2710 H2698 0.950 . S
C2710 C2709 1.398 . S
C2710 C2711 1.391 . S
C2711 H2699 0.950 . S
C2711 C2707 1.393 . S
C2711 C2710 1.391 . S
H2712 C2720 0.950 . S
H2713 C2725 0.950 . S
H2714 C2722 0.950 . S
H2715 C2724 0.950 . S
H2716 C2726 0.950 . S
H2717 C2728 0.950 . S
H2718 C2730 0.950 . S
H2719 C2731 0.950 . S
C2720 H2712 0.950 . S
C2720 C2721 1.386 . S
C2720 C2722 1.391 . S
C2721 C2720 1.386 . S
C2721 C2725 1.393 . S
C2722 H2714 0.950 . S
C2722 C2720 1.391 . S
C2722 C2723 1.400 . S
C2723 C2722 1.400 . S
C2723 C2724 1.398 . S
C2723 C2729 1.491 1_565 S
C2724 H2715 0.950 . S
C2724 C2723 1.398 . S
C2724 C2725 1.391 . S
C2725 H2713 0.950 . S
C2725 C2721 1.393 . S
C2725 C2724 1.391 . S
C2726 H2716 0.950 . S
C2726 C2727 1.386 . S
C2726 C2728 1.391 . S
C2727 C2726 1.386 . S
C2727 C2731 1.393 . S
C2728 H2717 0.950 . S
C2728 C2726 1.391 . S
C2728 C2729 1.400 . S
C2729 C2723 1.491 1_545 S
C2729 C2728 1.400 . S
C2729 C2730 1.398 . S
C2730 H2718 0.950 . S
C2730 C2729 1.398 . S
C2730 C2731 1.391 . S
C2731 H2719 0.950 . S
C2731 C2727 1.393 . S
C2731 C2730 1.391 . S
H2732 C2740 0.950 . S
H2733 C2745 0.950 . S
H2734 C2742 0.950 . S
H2735 C2744 0.950 . S
H2736 C2746 0.950 . S
H2737 C2748 0.950 . S
H2738 C2750 0.950 . S
H2739 C2751 0.950 . S
C2740 H2732 0.950 . S
C2740 C2741 1.386 . S
C2740 C2742 1.391 . S
C2741 C2740 1.386 . S
C2741 C2745 1.393 . S
C2742 H2734 0.950 . S
C2742 C2740 1.391 . S
C2742 C2743 1.400 . S
C2743 C2742 1.400 . S
C2743 C2744 1.398 . S
C2743 C2749 1.491 1_655 S
C2744 H2735 0.950 . S
C2744 C2743 1.398 . S
C2744 C2745 1.391 . S
C2745 H2733 0.950 . S
C2745 C2741 1.393 . S
C2745 C2744 1.391 . S
C2746 H2736 0.950 . S
C2746 C2747 1.386 . S
C2746 C2748 1.391 . S
C2747 C2746 1.386 . S
C2747 C2751 1.393 . S
C2748 H2737 0.950 . S
C2748 C2746 1.391 . S
C2748 C2749 1.400 . S
C2749 C2743 1.491 1_455 S
C2749 C2748 1.400 . S
C2749 C2750 1.398 . S
C2750 H2738 0.950 . S
C2750 C2749 1.398 . S
C2750 C2751 1.391 . S
C2751 H2739 0.950 . S
C2751 C2747 1.393 . S
C2751 C2750 1.391 . S
H2752 C2760 0.950 . S
H2753 C2765 0.950 . S
H2754 C2762 0.950 . S
H2755 C2764 0.950 . S
H2756 C2766 0.950 . S
H2757 C2768 0.950 . S
H2758 C2770 0.950 . S
H2759 C2771 0.950 . S
C2760 H2752 0.950 . S
C2760 C2761 1.386 . S
C2760 C2762 1.391 . S
C2761 C2760 1.386 . S
C2761 C2765 1.393 . S
C2762 H2754 0.950 . S
C2762 C2760 1.391 . S
C2762 C2763 1.400 . S
C2763 C2762 1.400 . S
C2763 C2764 1.398 . S
C2763 C2769 1.491 1_556 S
C2764 H2755 0.950 . S
C2764 C2763 1.398 . S
C2764 C2765 1.391 . S
C2765 H2753 0.950 . S
C2765 C2761 1.393 . S
C2765 C2764 1.391 . S
C2766 H2756 0.950 . S
C2766 C2767 1.386 . S
C2766 C2768 1.391 . S
C2767 C2766 1.386 . S
C2767 C2771 1.393 . S
C2768 H2757 0.950 . S
C2768 C2766 1.391 . S
C2768 C2769 1.400 . S
C2769 C2763 1.491 1_554 S
C2769 C2768 1.400 . S
C2769 C2770 1.398 . S
C2770 H2758 0.950 . S
C2770 C2769 1.398 . S
C2770 C2771 1.391 . S
C2771 H2759 0.950 . S
C2771 C2767 1.393 . S
C2771 C2770 1.391 . S
H2772 C2780 0.950 . S
H2773 C2785 0.950 . S
H2774 C2782 0.950 . S
H2775 C2784 0.950 . S
H2776 C2786 0.950 . S
H2777 C2788 0.950 . S
H2778 C2790 0.950 . S
H2779 C2791 0.950 . S
C2780 H2772 0.950 . S
C2780 C2781 1.386 . S
C2780 C2782 1.391 . S
C2781 C2780 1.386 . S
C2781 C2785 1.393 . S
C2782 H2774 0.950 . S
C2782 C2780 1.391 . S
C2782 C2783 1.400 . S
C2783 C2782 1.400 . S
C2783 C2784 1.398 . S
C2783 C2789 1.491 1_556 S
C2784 H2775 0.950 . S
C2784 C2783 1.398 . S
C2784 C2785 1.391 . S
C2785 H2773 0.950 . S
C2785 C2781 1.393 . S
C2785 C2784 1.391 . S
C2786 H2776 0.950 . S
C2786 C2787 1.386 . S
C2786 C2788 1.391 . S
C2787 C2786 1.386 . S
C2787 C2791 1.393 . S
C2788 H2777 0.950 . S
C2788 C2786 1.391 . S
C2788 C2789 1.400 . S
C2789 C2783 1.491 1_554 S
C2789 C2788 1.400 . S
C2789 C2790 1.398 . S
C2790 H2778 0.950 . S
C2790 C2789 1.398 . S
C2790 C2791 1.391 . S
C2791 H2779 0.950 . S
C2791 C2787 1.393 . S
C2791 C2790 1.391 . S
H2792 C2800 0.950 . S
H2793 C2805 0.950 . S
H2794 C2802 0.950 . S
H2795 C2804 0.950 . S
H2796 C2806 0.950 . S
H2797 C2808 0.950 . S
H2798 C2810 0.950 . S
H2799 C2811 0.950 . S
C2800 H2792 0.950 . S
C2800 C2801 1.386 . S
C2800 C2802 1.391 . S
C2801 C2800 1.386 . S
C2801 C2805 1.393 . S
C2802 H2794 0.950 . S
C2802 C2800 1.391 . S
C2802 C2803 1.400 . S
C2803 C2802 1.400 . S
C2803 C2804 1.398 . S
C2803 C2809 1.491 1_556 S
C2804 H2795 0.950 . S
C2804 C2803 1.398 . S
C2804 C2805 1.391 . S
C2805 H2793 0.950 . S
C2805 C2801 1.393 . S
C2805 C2804 1.391 . S
C2806 H2796 0.950 . S
C2806 C2807 1.386 . S
C2806 C2808 1.391 . S
C2807 C2806 1.386 . S
C2807 C2811 1.393 . S
C2808 H2797 0.950 . S
C2808 C2806 1.391 . S
C2808 C2809 1.400 . S
C2809 C2803 1.491 1_554 S
C2809 C2808 1.400 . S
C2809 C2810 1.398 . S
C2810 H2798 0.950 . S
C2810 C2809 1.398 . S
C2810 C2811 1.391 . S
C2811 H2799 0.950 . S
C2811 C2807 1.393 . S
C2811 C2810 1.391 . S
H2812 C2820 0.950 . S
H2813 C2825 0.950 . S
H2814 C2822 0.950 . S
H2815 C2824 0.950 . S
H2816 C2826 0.950 . S
H2817 C2828 0.950 . S
H2818 C2830 0.950 . S
H2819 C2831 0.950 . S
C2820 H2812 0.950 . S
C2820 C2821 1.386 . S
C2820 C2822 1.391 . S
C2821 C2820 1.386 . S
C2821 C2825 1.393 . S
C2822 H2814 0.950 . S
C2822 C2820 1.391 . S
C2822 C2823 1.400 . S
C2823 C2822 1.400 . S
C2823 C2824 1.398 . S
C2823 C2829 1.491 1_556 S
C2824 H2815 0.950 . S
C2824 C2823 1.398 . S
C2824 C2825 1.391 . S
C2825 H2813 0.950 . S
C2825 C2821 1.393 . S
C2825 C2824 1.391 . S
C2826 H2816 0.950 . S
C2826 C2827 1.386 . S
C2826 C2828 1.391 . S
C2827 C2826 1.386 . S
C2827 C2831 1.393 . S
C2828 H2817 0.950 . S
C2828 C2826 1.391 . S
C2828 C2829 1.400 . S
C2829 C2823 1.491 1_554 S
C2829 C2828 1.400 . S
C2829 C2830 1.398 . S
C2830 H2818 0.950 . S
C2830 C2829 1.398 . S
C2830 C2831 1.391 . S
C2831 H2819 0.950 . S
C2831 C2827 1.393 . S
C2831 C2830 1.391 . S
H2832 C2840 0.950 . S
H2833 C2845 0.950 . S
H2834 C2842 0.950 . S
H2835 C2844 0.950 . S
H2836 C2846 0.950 . S
H2837 C2848 0.950 . S
H2838 C2850 0.950 . S
H2839 C2851 0.950 . S
C2840 H2832 0.950 . S
C2840 C2841 1.386 . S
C2840 C2842 1.391 . S
C2841 C2840 1.386 . S
C2841 C2845 1.393 . S
C2842 H2834 0.950 . S
C2842 C2840 1.391 . S
C2842 C2843 1.400 . S
C2843 C2842 1.400 . S
C2843 C2844 1.398 . S
C2843 C2849 1.491 . S
C2844 H2835 0.950 . S
C2844 C2843 1.398 . S
C2844 C2845 1.391 . S
C2845 H2833 0.950 . S
C2845 C2841 1.393 . S
C2845 C2844 1.391 . S
C2846 H2836 0.950 . S
C2846 C2847 1.386 . S
C2846 C2848 1.391 . S
C2847 C2846 1.386 . S
C2847 C2851 1.393 . S
C2848 H2837 0.950 . S
C2848 C2846 1.391 . S
C2848 C2849 1.400 . S
C2849 C2843 1.491 . S
C2849 C2848 1.400 . S
C2849 C2850 1.398 . S
C2850 H2838 0.950 . S
C2850 C2849 1.398 . S
C2850 C2851 1.391 . S
C2851 H2839 0.950 . S
C2851 C2847 1.393 . S
C2851 C2850 1.391 . S
H2852 C2860 0.950 . S
H2853 C2865 0.950 . S
H2854 C2862 0.950 . S
H2855 C2864 0.950 . S
H2856 C2866 0.950 . S
H2857 C2868 0.950 . S
H2858 C2870 0.950 . S
H2859 C2871 0.950 . S
C2860 H2852 0.950 . S
C2860 C2861 1.386 . S
C2860 C2862 1.391 . S
C2861 C2860 1.386 . S
C2861 C2865 1.393 . S
C2862 H2854 0.950 . S
C2862 C2860 1.391 . S
C2862 C2863 1.400 . S
C2863 C2862 1.400 . S
C2863 C2864 1.398 . S
C2863 C2869 1.491 . S
C2864 H2855 0.950 . S
C2864 C2863 1.398 . S
C2864 C2865 1.391 . S
C2865 H2853 0.950 . S
C2865 C2861 1.393 . S
C2865 C2864 1.391 . S
C2866 H2856 0.950 . S
C2866 C2867 1.386 . S
C2866 C2868 1.391 . S
C2867 C2866 1.386 . S
C2867 C2871 1.393 . S
C2868 H2857 0.950 . S
C2868 C2866 1.391 . S
C2868 C2869 1.400 . S
C2869 C2863 1.491 . S
C2869 C2868 1.400 . S
C2869 C2870 1.398 . S
C2870 H2858 0.950 . S
C2870 C2869 1.398 . S
C2870 C2871 1.391 . S
C2871 H2859 0.950 . S
C2871 C2867 1.393 . S
C2871 C2870 1.391 . S
H2872 C2880 0.950 . S
H2873 C2885 0.950 . S
H2874 C2882 0.950 . S
H2875 C2884 0.950 . S
H2876 C2886 0.950 . S
H2877 C2888 0.950 . S
H2878 C2890 0.950 . S
H2879 C2891 0.950 . S
C2880 H2872 0.950 . S
C2880 C2881 1.386 . S
C2880 C2882 1.391 . S
C2881 C2880 1.386 . S
C2881 C2885 1.393 . S
C2882 H2874 0.950 . S
C2882 C2880 1.391 . S
C2882 C2883 1.400 . S
C2883 C2882 1.400 . S
C2883 C2884 1.398 . S
C2883 C2889 1.491 . S
C2884 H2875 0.950 . S
C2884 C2883 1.398 . S
C2884 C2885 1.391 . S
C2885 H2873 0.950 . S
C2885 C2881 1.393 . S
C2885 C2884 1.391 . S
C2886 H2876 0.950 . S
C2886 C2887 1.386 . S
C2886 C2888 1.391 . S
C2887 C2886 1.386 . S
C2887 C2891 1.393 . S
C2888 H2877 0.950 . S
C2888 C2886 1.391 . S
C2888 C2889 1.400 . S
C2889 C2883 1.491 . S
C2889 C2888 1.400 . S
C2889 C2890 1.398 . S
C2890 H2878 0.950 . S
C2890 C2889 1.398 . S
C2890 C2891 1.391 . S
C2891 H2879 0.950 . S
C2891 C2887 1.393 . S
C2891 C2890 1.391 . S
H2892 C2900 0.950 . S
H2893 C2905 0.950 . S
H2894 C2902 0.950 . S
H2895 C2904 0.950 . S
H2896 C2906 0.950 . S
H2897 C2908 0.950 . S
H2898 C2910 0.950 . S
H2899 C2911 0.950 . S
C2900 H2892 0.950 . S
C2900 C2901 1.386 . S
C2900 C2902 1.391 . S
C2901 C2900 1.386 . S
C2901 C2905 1.393 . S
C2902 H2894 0.950 . S
C2902 C2900 1.391 . S
C2902 C2903 1.400 . S
C2903 C2902 1.400 . S
C2903 C2904 1.398 . S
C2903 C2909 1.491 . S
C2904 H2895 0.950 . S
C2904 C2903 1.398 . S
C2904 C2905 1.391 . S
C2905 H2893 0.950 . S
C2905 C2901 1.393 . S
C2905 C2904 1.391 . S
C2906 H2896 0.950 . S
C2906 C2907 1.386 . S
C2906 C2908 1.391 . S
C2907 C2906 1.386 . S
C2907 C2911 1.393 . S
C2908 H2897 0.950 . S
C2908 C2906 1.391 . S
C2908 C2909 1.400 . S
C2909 C2903 1.491 . S
C2909 C2908 1.400 . S
C2909 C2910 1.398 . S
C2910 H2898 0.950 . S
C2910 C2909 1.398 . S
C2910 C2911 1.391 . S
C2911 H2899 0.950 . S
C2911 C2907 1.393 . S
C2911 C2910 1.391 . S
H2912 C2920 0.950 . S
H2913 C2925 0.950 . S
H2914 C2922 0.950 . S
H2915 C2924 0.950 . S
H2916 C2926 0.950 . S
H2917 C2928 0.950 . S
H2918 C2930 0.950 . S
H2919 C2931 0.950 . S
C2920 H2912 0.950 . S
C2920 C2921 1.386 . S
C2920 C2922 1.391 . S
C2921 C2920 1.386 . S
C2921 C2925 1.393 . S
C2922 H2914 0.950 . S
C2922 C2920 1.391 . S
C2922 C2923 1.400 . S
C2923 C2922 1.400 . S
C2923 C2924 1.398 . S
C2923 C2929 1.491 . S
C2924 H2915 0.950 . S
C2924 C2923 1.398 . S
C2924 C2925 1.391 . S
C2925 H2913 0.950 . S
C2925 C2921 1.393 . S
C2925 C2924 1.391 . S
C2926 H2916 0.950 . S
C2926 C2927 1.386 . S
C2926 C2928 1.391 . S
C2927 C2926 1.386 . S
C2927 C2931 1.393 . S
C2928 H2917 0.950 . S
C2928 C2926 1.391 . S
C2928 C2929 1.400 . S
C2929 C2923 1.491 . S
C2929 C2928 1.400 . S
C2929 C2930 1.398 . S
C2930 H2918 0.950 . S
C2930 C2929 1.398 . S
C2930 C2931 1.391 . S
C2931 H2919 0.950 . S
C2931 C2927 1.393 . S
C2931 C2930 1.391 . S
H2932 C2940 0.950 . S
H2933 C2945 0.950 . S
H2934 C2942 0.950 . S
H2935 C2944 0.950 . S
H2936 C2946 0.950 . S
H2937 C2948 0.950 . S
H2938 C2950 0.950 . S
H2939 C2951 0.950 . S
C2940 H2932 0.950 . S
C2940 C2941 1.386 . S
C2940 C2942 1.391 . S
C2941 C2940 1.386 . S
C2941 C2945 1.393 . S
C2942 H2934 0.950 . S
C2942 C2940 1.391 . S
C2942 C2943 1.400 . S
C2943 C2942 1.400 . S
C2943 C2944 1.398 . S
C2943 C2949 1.491 . S
C2944 H2935 0.950 . S
C2944 C2943 1.398 . S
C2944 C2945 1.391 . S
C2945 H2933 0.950 . S
C2945 C2941 1.393 . S
C2945 C2944 1.391 . S
C2946 H2936 0.950 . S
C2946 C2947 1.386 . S
C2946 C2948 1.391 . S
C2947 C2946 1.386 . S
C2947 C2951 1.393 . S
C2948 H2937 0.950 . S
C2948 C2946 1.391 . S
C2948 C2949 1.400 . S
C2949 C2943 1.491 . S
C2949 C2948 1.400 . S
C2949 C2950 1.398 . S
C2950 H2938 0.950 . S
C2950 C2949 1.398 . S
C2950 C2951 1.391 . S
C2951 H2939 0.950 . S
C2951 C2947 1.393 . S
C2951 C2950 1.391 . S
H2952 C2960 0.950 . S
H2953 C2965 0.950 . S
H2954 C2962 0.950 . S
H2955 C2964 0.950 . S
H2956 C2966 0.950 . S
H2957 C2968 0.950 . S
H2958 C2970 0.950 . S
H2959 C2971 0.950 . S
C2960 H2952 0.950 . S
C2960 C2961 1.386 . S
C2960 C2962 1.391 . S
C2961 C2960 1.386 . S
C2961 C2965 1.393 . S
C2962 H2954 0.950 . S
C2962 C2960 1.391 . S
C2962 C2963 1.400 . S
C2963 C2962 1.400 . S
C2963 C2964 1.398 . S
C2963 C2969 1.491 . S
C2964 H2955 0.950 . S
C2964 C2963 1.398 . S
C2964 C2965 1.391 . S
C2965 H2953 0.950 . S
C2965 C2961 1.393 . S
C2965 C2964 1.391 . S
C2966 H2956 0.950 . S
C2966 C2967 1.386 . S
C2966 C2968 1.391 . S
C2967 C2966 1.386 . S
C2967 C2971 1.393 . S
C2968 H2957 0.950 . S
C2968 C2966 1.391 . S
C2968 C2969 1.400 . S
C2969 C2963 1.491 . S
C2969 C2968 1.400 . S
C2969 C2970 1.398 . S
C2970 H2958 0.950 . S
C2970 C2969 1.398 . S
C2970 C2971 1.391 . S
C2971 H2959 0.950 . S
C2971 C2967 1.393 . S
C2971 C2970 1.391 . S
H2972 C2980 0.950 . S
H2973 C2985 0.950 . S
H2974 C2982 0.950 . S
H2975 C2984 0.950 . S
H2976 C2986 0.950 . S
H2977 C2988 0.950 . S
H2978 C2990 0.950 . S
H2979 C2991 0.950 . S
C2980 H2972 0.950 . S
C2980 C2981 1.386 . S
C2980 C2982 1.391 . S
C2981 C2980 1.386 . S
C2981 C2985 1.393 . S
C2982 H2974 0.950 . S
C2982 C2980 1.391 . S
C2982 C2983 1.400 . S
C2983 C2982 1.400 . S
C2983 C2984 1.398 . S
C2983 C2989 1.491 . S
C2984 H2975 0.950 . S
C2984 C2983 1.398 . S
C2984 C2985 1.391 . S
C2985 H2973 0.950 . S
C2985 C2981 1.393 . S
C2985 C2984 1.391 . S
C2986 H2976 0.950 . S
C2986 C2987 1.386 . S
C2986 C2988 1.391 . S
C2987 C2986 1.386 . S
C2987 C2991 1.393 . S
C2988 H2977 0.950 . S
C2988 C2986 1.391 . S
C2988 C2989 1.400 . S
C2989 C2983 1.491 . S
C2989 C2988 1.400 . S
C2989 C2990 1.398 . S
C2990 H2978 0.950 . S
C2990 C2989 1.398 . S
C2990 C2991 1.391 . S
C2991 H2979 0.950 . S
C2991 C2987 1.393 . S
C2991 C2990 1.391 . S
H2992 C3000 0.950 . S
H2993 C3005 0.950 . S
H2994 C3002 0.950 . S
H2995 C3004 0.950 . S
H2996 C3006 0.950 . S
H2997 C3008 0.950 . S
H2998 C3010 0.950 . S
H2999 C3011 0.950 . S
C3000 H2992 0.950 . S
C3000 C3001 1.386 . S
C3000 C3002 1.391 . S
C3001 C3000 1.386 . S
C3001 C3005 1.393 . S
C3002 H2994 0.950 . S
C3002 C3000 1.391 . S
C3002 C3003 1.400 . S
C3003 C3002 1.400 . S
C3003 C3004 1.398 . S
C3003 C3009 1.491 . S
C3004 H2995 0.950 . S
C3004 C3003 1.398 . S
C3004 C3005 1.391 . S
C3005 H2993 0.950 . S
C3005 C3001 1.393 . S
C3005 C3004 1.391 . S
C3006 H2996 0.950 . S
C3006 C3007 1.386 . S
C3006 C3008 1.391 . S
C3007 C3006 1.386 . S
C3007 C3011 1.393 . S
C3008 H2997 0.950 . S
C3008 C3006 1.391 . S
C3008 C3009 1.400 . S
C3009 C3003 1.491 . S
C3009 C3008 1.400 . S
C3009 C3010 1.398 . S
C3010 H2998 0.950 . S
C3010 C3009 1.398 . S
C3010 C3011 1.391 . S
C3011 H2999 0.950 . S
C3011 C3007 1.393 . S
C3011 C3010 1.391 . S
H3012 C3020 0.950 . S
H3013 C3025 0.950 . S
H3014 C3022 0.950 . S
H3015 C3024 0.950 . S
H3016 C3026 0.950 . S
H3017 C3028 0.950 . S
H3018 C3030 0.950 . S
H3019 C3031 0.950 . S
C3020 H3012 0.950 . S
C3020 C3021 1.386 . S
C3020 C3022 1.391 . S
C3021 C3020 1.386 . S
C3021 C3025 1.393 . S
C3022 H3014 0.950 . S
C3022 C3020 1.391 . S
C3022 C3023 1.400 . S
C3023 C3022 1.400 . S
C3023 C3024 1.398 . S
C3023 C3029 1.491 . S
C3024 H3015 0.950 . S
C3024 C3023 1.398 . S
C3024 C3025 1.391 . S
C3025 H3013 0.950 . S
C3025 C3021 1.393 . S
C3025 C3024 1.391 . S
C3026 H3016 0.950 . S
C3026 C3027 1.386 . S
C3026 C3028 1.391 . S
C3027 C3026 1.386 . S
C3027 C3031 1.393 . S
C3028 H3017 0.950 . S
C3028 C3026 1.391 . S
C3028 C3029 1.400 . S
C3029 C3023 1.491 . S
C3029 C3028 1.400 . S
C3029 C3030 1.398 . S
C3030 H3018 0.950 . S
C3030 C3029 1.398 . S
C3030 C3031 1.391 . S
C3031 H3019 0.950 . S
C3031 C3027 1.393 . S
C3031 C3030 1.391 . S
H3032 C3040 0.950 . S
H3033 C3045 0.950 . S
H3034 C3042 0.950 . S
H3035 C3044 0.950 . S
H3036 C3046 0.950 . S
H3037 C3048 0.950 . S
H3038 C3050 0.950 . S
H3039 C3051 0.950 . S
C3040 H3032 0.950 . S
C3040 C3041 1.386 . S
C3040 C3042 1.391 . S
C3041 C3040 1.386 . S
C3041 C3045 1.393 . S
C3042 H3034 0.950 . S
C3042 C3040 1.391 . S
C3042 C3043 1.400 . S
C3043 C3042 1.400 . S
C3043 C3044 1.398 . S
C3043 C3049 1.491 . S
C3044 H3035 0.950 . S
C3044 C3043 1.398 . S
C3044 C3045 1.391 . S
C3045 H3033 0.950 . S
C3045 C3041 1.393 . S
C3045 C3044 1.391 . S
C3046 H3036 0.950 . S
C3046 C3047 1.386 . S
C3046 C3048 1.391 . S
C3047 C3046 1.386 . S
C3047 C3051 1.393 . S
C3048 H3037 0.950 . S
C3048 C3046 1.391 . S
C3048 C3049 1.400 . S
C3049 C3043 1.491 . S
C3049 C3048 1.400 . S
C3049 C3050 1.398 . S
C3050 H3038 0.950 . S
C3050 C3049 1.398 . S
C3050 C3051 1.391 . S
C3051 H3039 0.950 . S
C3051 C3047 1.393 . S
C3051 C3050 1.391 . S
H3052 C3060 0.950 . S
H3053 C3065 0.950 . S
H3054 C3062 0.950 . S
H3055 C3064 0.950 . S
H3056 C3066 0.950 . S
H3057 C3068 0.950 . S
H3058 C3070 0.950 . S
H3059 C3071 0.950 . S
C3060 H3052 0.950 . S
C3060 C3061 1.386 . S
C3060 C3062 1.391 . S
C3061 C3060 1.386 . S
C3061 C3065 1.393 . S
C3062 H3054 0.950 . S
C3062 C3060 1.391 . S
C3062 C3063 1.400 . S
C3063 C3062 1.400 . S
C3063 C3064 1.398 . S
C3063 C3069 1.491 . S
C3064 H3055 0.950 . S
C3064 C3063 1.398 . S
C3064 C3065 1.391 . S
C3065 H3053 0.950 . S
C3065 C3061 1.393 . S
C3065 C3064 1.391 . S
C3066 H3056 0.950 . S
C3066 C3067 1.386 . S
C3066 C3068 1.391 . S
C3067 C3066 1.386 . S
C3067 C3071 1.393 . S
C3068 H3057 0.950 . S
C3068 C3066 1.391 . S
C3068 C3069 1.400 . S
C3069 C3063 1.491 . S
C3069 C3068 1.400 . S
C3069 C3070 1.398 . S
C3070 H3058 0.950 . S
C3070 C3069 1.398 . S
C3070 C3071 1.391 . S
C3071 H3059 0.950 . S
C3071 C3067 1.393 . S
C3071 C3070 1.391 . S
C2121 C1017 1.549 . S
C2127 C49 1.539 . S
C2141 C145 1.549 . S
C2147 C733 1.539 . S
C2161 C233 1.537 . S
C2167 C812 1.551 . S
C2181 C313 1.549 . S
C2187 C929 1.540 . S
C2201 C1164 1.550 . S
C2207 C381 1.538 . S
C2221 C460 1.538 . S
C2227 C1261 1.549 . S
C2241 C1369 1.544 . S
C2247 C557 1.544 . S
C2261 C1105 1.550 . S
C2267 C645 1.538 . S
C2281 C489 1.546 . S
C2287 C761 1.543 . S
C2301 C585 1.543 . S
C2307 C841 1.545 . S
C2321 C900 1.550 . S
C2327 C673 1.539 . S
C2341 C409 1.541 . S
C2347 C988 1.547 . S
C2361 C284 1.540 . S
C2367 C1076 1.548 . S
C2381 C1193 1.545 . S
C2387 C20 1.544 . S
C2401 C1289 1.550 . S
C2407 C117 1.539 . S
C2421 C1340 1.550 . S
C2427 C205 1.539 . S
C2441 C1457 1.550 . S
C2447 C2044 1.539 . S
C2461 C1817 1.545 . S
C2467 C1516 1.543 . S
C2481 C1604 1.537 . S
C2487 C1545 1.551 . S
C2501 C1701 1.549 . S
C2507 C1633 1.540 . S
C2521 C1729 1.539 . S
C2527 C1789 1.550 . S
C2541 C1905 1.536 . S
C2547 C1965 1.551 . S
C2561 C1428 1.545 . S
C2567 C1993 1.544 . S
C2581 C1877 1.539 . S
C2587 C2073 1.549 . S
C2601 C57 1.324 . S
C2607 C548 1.340 . S
C2621 C137 1.328 . S
C2627 C636 1.337 . S
C2641 C225 1.336 . S
C2647 C372 1.329 . S
C2661 C469 1.330 . S
C2667 C321 1.334 . S
C2681 C909 1.339 . S
C2687 C753 1.325 . S
C2701 C849 1.325 . S
C2707 C997 1.339 . S
C2721 C1085 1.326 . S
C2727 C1281 1.338 . S
C2741 C1349 1.340 . S
C2747 C1201 1.324 . S
C2761 C1525 1.340 . S
C2767 C1465 1.324 . S
C2781 C1613 1.340 . S
C2787 C2081 1.324 . S
C2801 C1692 1.339 . S
C2807 C1897 1.324 . S
C2821 C1780 1.335 . S
C2827 C1985 1.328 . S
C2841 C29 0.538 . S
C2847 C497 0.547 . S
C2861 C108 0.545 . S
C2867 C577 0.538 . S
C2881 C196 0.546 . S
C2887 C665 0.537 . S
C2901 C401 0.543 . S
C2907 C293 0.539 . S
C2921 C724 0.547 . S
C2927 C2053 0.538 . S
C2941 C821 0.541 . S
C2947 C1868 0.544 . S
C2961 C1956 0.538 . S
C2967 C937 0.545 . S
C2981 C1025 0.543 . S
C2987 C1437 0.543 . S
C3001 C1809 0.545 . S
C3007 C1113 0.541 . S
C3021 C1553 0.542 . S
C3027 C1173 0.540 . S
C3041 C1252 0.541 . S
C3047 C1641 0.541 . S
C3061 C1721 0.542 . S
C3067 C1377 0.544 . S
