# Generated by pormake.
# Topology smm, (6)-cn, num edge types: 1
# Building blocks:
#     Node 0, Type 0, BuildingBlock: BETDEL_clean_sbu_0, # of connection points: 6
#     Node 1, Type 0, BuildingBlock: BETDEL_clean_sbu_0, # of connection points: 6
#     Node 2, Type 0, BuildingBlock: BETDEL_clean_sbu_0, # of connection points: 6
#     Node 3, Type 0, BuildingBlock: BETDEL_clean_sbu_0, # of connection points: 6
#     Node 4, Type 0, BuildingBlock: BETDEL_clean_sbu_0, # of connection points: 6
#     Node 5, Type 0, BuildingBlock: BETDEL_clean_sbu_0, # of connection points: 6
#     Node 6, Type 0, BuildingBlock: BETDEL_clean_sbu_0, # of connection points: 6
#     Node 7, Type 0, BuildingBlock: BETDEL_clean_sbu_0, # of connection points: 6
#     Node 8, Type 0, BuildingBlock: BETDEL_clean_sbu_0, # of connection points: 6
#     Edge 9, Type (0, 0), BuildingBlock: MIFKUJ_clean_linker_0, # of connection points: 2
#     Edge 10, Type (0, 0), BuildingBlock: MIFKUJ_clean_linker_0, # of connection points: 2
#     Edge 11, Type (0, 0), BuildingBlock: MIFKUJ_clean_linker_0, # of connection points: 2
#     Edge 12, Type (0, 0), BuildingBlock: MIFKUJ_clean_linker_0, # of connection points: 2
#     Edge 13, Type (0, 0), BuildingBlock: MIFKUJ_clean_linker_0, # of connection points: 2
#     Edge 14, Type (0, 0), BuildingBlock: MIFKUJ_clean_linker_0, # of connection points: 2
#     Edge 15, Type (0, 0), BuildingBlock: MIFKUJ_clean_linker_0, # of connection points: 2
#     Edge 16, Type (0, 0), BuildingBlock: MIFKUJ_clean_linker_0, # of connection points: 2
#     Edge 17, Type (0, 0), BuildingBlock: MIFKUJ_clean_linker_0, # of connection points: 2
#     Edge 18, Type (0, 0), BuildingBlock: MIFKUJ_clean_linker_0, # of connection points: 2
#     Edge 19, Type (0, 0), BuildingBlock: MIFKUJ_clean_linker_0, # of connection points: 2
#     Edge 20, Type (0, 0), BuildingBlock: MIFKUJ_clean_linker_0, # of connection points: 2
#     Edge 21, Type (0, 0), BuildingBlock: MIFKUJ_clean_linker_0, # of connection points: 2
#     Edge 22, Type (0, 0), BuildingBlock: MIFKUJ_clean_linker_0, # of connection points: 2
#     Edge 23, Type (0, 0), BuildingBlock: MIFKUJ_clean_linker_0, # of connection points: 2
#     Edge 24, Type (0, 0), BuildingBlock: MIFKUJ_clean_linker_0, # of connection points: 2
#     Edge 25, Type (0, 0), BuildingBlock: MIFKUJ_clean_linker_0, # of connection points: 2
#     Edge 26, Type (0, 0), BuildingBlock: MIFKUJ_clean_linker_0, # of connection points: 2
#     Edge 27, Type (0, 0), BuildingBlock: MIFKUJ_clean_linker_0, # of connection points: 2
#     Edge 28, Type (0, 0), BuildingBlock: MIFKUJ_clean_linker_0, # of connection points: 2
#     Edge 29, Type (0, 0), BuildingBlock: MIFKUJ_clean_linker_0, # of connection points: 2
#     Edge 30, Type (0, 0), BuildingBlock: MIFKUJ_clean_linker_0, # of connection points: 2
#     Edge 31, Type (0, 0), BuildingBlock: MIFKUJ_clean_linker_0, # of connection points: 2
#     Edge 32, Type (0, 0), BuildingBlock: MIFKUJ_clean_linker_0, # of connection points: 2
#     Edge 33, Type (0, 0), BuildingBlock: MIFKUJ_clean_linker_0, # of connection points: 2
#     Edge 34, Type (0, 0), BuildingBlock: MIFKUJ_clean_linker_0, # of connection points: 2
#     Edge 35, Type (0, 0), BuildingBlock: MIFKUJ_clean_linker_0, # of connection points: 2
# Relax obj value: 0.075
# Max RMSD: 0.145
# Mean RMSD: 0.145
data_MOF--net-smm--node1-BETDEL_clean_sbu_0--edge1-MIFKUJ_clean_linker_0
_symmetry_space_group_name_H-M    P1
_symmetry_Int_Tables_number       1
_symmetry_cell_setting            triclinic
loop_
_symmetry_equiv_pos_as_xyz
'x, y, z'
_cell_length_a     71.795595
_cell_length_b     71.833065
_cell_length_c     18.439084
_cell_angle_alpha  90.103676
_cell_angle_beta   89.799315
_cell_angle_gamma 119.95818
loop_
_atom_site_label
_atom_site_type_symbol
_atom_site_fract_x
_atom_site_fract_y
_atom_site_fract_z
_atom_type_partial_charge
Dy0 Dy 0.05257 0.2212 0.98497 0.0
C1 C 0.98391 0.13401 0.04436 0.0
C2 C 0.07798 0.26097 0.9256 0.0
Dy3 Dy 1.01285 0.17606 0.01319 0.0
O4 O 0.08147 0.25454 -0.01268 0.0
O5 O 0.06084 0.24552 0.89574 0.0
O6 O 0.06744 0.22009 0.08968 0.0
O7 O 0.03367 0.20382 0.07895 0.0
C8 C 0.04903 0.20656 0.11892 0.0
C9 C 1.01816 0.19121 0.87811 0.0
O10 O 0.99888 0.19577 0.05433 0.0
O11 O 0.02561 0.22831 0.0063 0.0
O12 O 0.98233 0.14515 -0.00801 0.0
O13 O 1.0011 0.14612 0.08201 0.0
O14 O 0.99946 0.17901 0.907 0.0
O15 O 0.03267 0.19312 0.92026 0.0
O16 O 0.06758 0.20118 0.95773 0.0
O17 O 0.04043 0.16953 0.00911 0.0
C18 C 1.00647 0.21629 0.03744 0.0
C19 C 0.06009 0.18121 0.98153 0.0
Dy20 Dy 0.84609 0.8569 0.97654 0.0
C21 C 0.93539 0.88027 -0.00292 0.0
C22 C 0.8045 0.8425 0.93564 0.0
Dy23 Dy 0.89194 0.86399 -0.00785 0.0
O24 O 0.81045 0.83834 -0.00301 0.0
O25 O 0.82133 0.8548 0.89655 0.0
O26 O 0.84858 0.87367 0.08122 0.0
O27 O 0.86569 0.85719 0.0665 0.0
C28 C 0.863 0.86967 0.1077 0.0
C29 C 0.87324 0.84987 0.86322 0.0
O30 O 0.87402 0.83022 0.03249 0.0
O31 O 0.84167 0.82338 0.98068 0.0
O32 O 0.92475 0.88207 0.94367 0.0
O33 O 0.9222 0.86932 0.04961 0.0
O34 O 0.88612 0.84423 0.89207 0.0
O35 O 0.8721 0.86361 0.9024 0.0
O36 O 0.86484 0.89237 0.95556 0.0
O37 O 0.89639 0.897 0.007 0.0
C38 C 0.85385 0.81671 0.0132 0.0
C39 C 0.88449 0.90489 0.98146 0.0
Dy40 Dy 0.2135 0.01637 0.9644 0.0
C41 C 0.19044 0.08144 0.02978 0.0
C42 C 0.22879 0.99153 0.90619 0.0
Dy43 Dy 0.20594 0.0547 -0.00665 0.0
O44 O 0.21642 0.98654 0.96293 0.0
O45 O 0.23263 1.00999 0.88095 0.0
O46 O 0.19795 1.00099 0.0699 0.0
O47 O 0.21376 0.03454 0.05908 0.0
C48 C 0.20171 0.019 0.0994 0.0
C49 C 0.21727 0.05096 0.85829 0.0
O50 O 0.23905 0.06867 0.0399 0.0
O51 O 0.24703 0.0443 0.98477 0.0
O52 O 0.20638 0.0862 0.98594 0.0
O53 O 0.18347 0.0623 0.05608 0.0
O54 O 0.22224 0.06927 0.88753 0.0
O55 O 0.20487 0.0359 0.89935 0.0
O56 O 0.1788 1.00059 0.93308 0.0
O57 O 0.17236 0.02639 0.98534 0.0
C58 C 0.25308 0.06262 0.02016 0.0
C59 C 0.16544 1.00711 0.95614 0.0
Dy60 Dy 0.7212 0.55642 0.31276 0.0
C61 C 0.65715 0.46827 0.38386 0.0
C62 C 0.74542 0.59599 0.25008 0.0
Dy63 Dy 0.6832 0.51045 0.34532 0.0
O64 O 0.75075 0.58933 0.30766 0.0
O65 O 0.72698 0.58091 0.22626 0.0
O66 O 0.73711 0.55758 0.41819 0.0
O67 O 0.70349 0.53899 0.40856 0.0
C68 C 0.71929 0.54313 0.44834 0.0
C69 C 0.68683 0.52398 0.20816 0.0
O70 O 0.66918 0.52957 0.39191 0.0
O71 O 0.69329 0.56197 0.33657 0.0
O72 O 0.67781 0.47927 0.39288 0.0
O73 O 0.65058 0.4806 0.3563 0.0
O74 O 0.66868 0.5103 0.23742 0.0
O75 O 0.7019 0.52754 0.25024 0.0
O76 O 0.7372 0.53719 0.28609 0.0
O77 O 0.71224 0.50644 0.34749 0.0
C78 C 0.67505 0.54957 0.37249 0.0
C79 C 0.73128 0.5182 0.31607 0.0
Dy80 Dy 0.51523 0.19223 0.2963 0.0
C81 C 0.60313 0.21429 0.36272 0.0
C82 C 0.4751 0.17766 0.23979 0.0
Dy83 Dy 0.56108 0.19953 0.32613 0.0
O84 O 0.48239 0.18908 0.2984 0.0
O85 O 0.48987 0.17447 0.21136 0.0
O86 O 0.51483 0.20678 0.40311 0.0
O87 O 0.53259 0.19092 0.3905 0.0
C88 C 0.52893 0.2027 0.43167 0.0
C89 C 0.54705 0.19025 0.18975 0.0
O90 O 0.5416 0.16579 0.36754 0.0
O91 O 0.50988 0.15852 0.3098 0.0
O92 O 0.59219 0.19931 0.31575 0.0
O93 O 0.59077 0.22067 0.39218 0.0
O94 O 0.56004 0.18469 0.21803 0.0
O95 O 0.54399 0.20195 0.23288 0.0
O96 O 0.53429 0.22732 0.26998 0.0
O97 O 0.56637 0.23319 0.32184 0.0
C98 C 0.52186 0.15203 0.34454 0.0
C99 C 0.55407 0.24037 0.2941 0.0
Dy100 Dy 0.88138 0.35287 0.32353 0.0
C101 C 0.86281 0.42125 0.38501 0.0
C102 C 0.89488 0.32594 0.27071 0.0
Dy103 Dy 0.87558 0.39213 0.3517 0.0
O104 O 0.89266 0.329 0.33887 0.0
O105 O 0.88936 0.33735 0.23111 0.0
O106 O 0.8646 0.33783 0.42782 0.0
O107 O 0.88264 0.3716 0.41797 0.0
C108 C 0.86972 0.35622 0.45749 0.0
C109 C 0.88503 0.38705 0.21499 0.0
O110 O 0.90876 0.40498 0.39561 0.0
O111 O 0.91535 0.3811 0.33103 0.0
O112 O 0.87765 0.42419 0.33864 0.0
O113 O 0.8554 0.40256 0.41559 0.0
O114 O 0.89136 0.40561 0.24455 0.0
O115 O 0.87282 0.37246 0.25788 0.0
O116 O 0.84604 0.33699 0.30123 0.0
O117 O 0.8415 0.36458 0.3488 0.0
C118 C 0.92225 0.39899 0.36975 0.0
C119 C 0.83357 0.34468 0.32368 0.0
Dy120 Dy 0.3892 0.89057 0.62858 0.0
C121 C 0.32414 0.80339 0.70621 0.0
C122 C 0.4145 0.93023 0.56819 0.0
Dy123 Dy 0.35133 0.84475 0.66204 0.0
O124 O 0.41702 0.92447 0.63247 0.0
O125 O 0.39831 0.91417 0.53624 0.0
O126 O 0.40463 0.89163 0.7345 0.0
O127 O 0.37084 0.87371 0.72441 0.0
C128 C 0.38655 0.87779 0.76471 0.0
C129 C 0.35645 0.85705 0.52275 0.0
O130 O 0.33666 0.86413 0.70047 0.0
O131 O 0.36056 0.89556 0.64024 0.0
O132 O 0.31949 0.81401 0.6598 0.0
O133 O 0.34353 0.81563 0.73036 0.0
O134 O 0.3379 0.8441 0.55142 0.0
O135 O 0.37098 0.86109 0.56787 0.0
O136 O 0.40623 0.87207 0.6086 0.0
O137 O 0.37998 0.83989 0.66063 0.0
C138 C 0.34224 0.88362 0.67605 0.0
C139 C 0.39962 0.85243 0.63401 0.0
Dy140 Dy 0.18141 0.52524 0.66668 0.0
C141 C 0.26679 0.5425 0.74993 0.0
C142 C 0.14289 0.51272 0.60053 0.0
Dy143 Dy 0.22603 0.53085 0.70581 0.0
O144 O 0.14829 0.52131 0.66458 0.0
O145 O 0.1587 0.51129 0.57196 0.0
O146 O 0.17915 0.53839 0.77411 0.0
O147 O 0.19641 0.52185 0.76398 0.0
C148 C 0.19217 0.53322 0.80518 0.0
C149 C 0.21528 0.52505 0.56553 0.0
O150 O 0.20489 0.49687 0.74217 0.0
O151 O 0.17495 0.49097 0.67587 0.0
O152 O 0.25515 0.52686 0.706 0.0
O153 O 0.25582 0.55137 0.77215 0.0
O154 O 0.2274 0.51857 0.59474 0.0
O155 O 0.21143 0.53578 0.61033 0.0
O156 O 0.20189 0.56085 0.64955 0.0
O157 O 0.23194 0.56471 0.71103 0.0
C158 C 0.18572 0.48367 0.71388 0.0
C159 C 0.22088 0.57301 0.68104 0.0
Dy160 Dy 0.54379 0.67838 0.67481 0.0
C161 C 0.51756 0.74211 0.70661 0.0
C162 C 0.55849 0.65192 0.62729 0.0
Dy163 Dy 0.53571 0.71674 0.69237 0.0
O164 O 0.5594 0.65831 0.69375 0.0
O165 O 0.54929 0.65975 0.58681 0.0
O166 O 0.52723 0.66396 0.77974 0.0
O167 O 0.5432 0.69755 0.76483 0.0
C168 C 0.53103 0.68235 0.80632 0.0
C169 C 0.54949 0.71246 0.56223 0.0
O170 O 0.56982 0.73359 0.72901 0.0
O171 O 0.57715 0.70725 0.68623 0.0
O172 O 0.51246 0.72712 0.65881 0.0
O173 O 0.53295 0.74355 0.74788 0.0
O174 O 0.55407 0.73087 0.58977 0.0
O175 O 0.53638 0.69751 0.6025 0.0
O176 O 0.50826 0.66109 0.65528 0.0
O177 O 0.50317 0.68757 0.70853 0.0
C178 C 0.58338 0.72659 0.71421 0.0
C179 C 0.4955 0.6679 0.68195 0.0
H180 H 0.11266 0.2952 -0.01282 0.0
H181 H 0.13103 0.3326 0.94614 0.0
H182 H 0.0889 0.31447 0.76103 0.0
H183 H 0.07066 0.27694 0.80148 0.0
H184 H 0.12925 0.3432 0.72227 0.0
H185 H 0.0802 0.33805 0.90565 0.0
H186 H 0.06229 0.32875 0.02507 0.0
H187 H 0.12223 0.37137 0.12897 0.0
H188 H 0.14059 0.3807 0.01014 0.0
H189 H 0.15062 0.4505 0.64802 0.0
H190 H 0.13266 0.41224 0.6792 0.0
H191 H 0.17864 0.42594 0.84988 0.0
H192 H 0.19681 0.46413 0.81876 0.0
H193 H 0.13512 0.39935 0.89304 0.0
H194 H 0.18339 0.40401 0.70132 0.0
H195 H 0.19901 0.41315 0.57839 0.0
H196 H 0.13701 0.37116 0.486 0.0
H197 H 0.12095 0.36201 0.60844 0.0
C198 C 0.10745 0.29916 0.93739 0.0
C199 C 0.09019 0.2832 0.89764 0.0
C200 C 0.11788 0.32056 0.91418 0.0
C201 C 0.11114 0.32643 0.85106 0.0
C202 C 0.09435 0.31035 0.80997 0.0
C203 C 0.08393 0.28893 0.83317 0.0
C204 C 0.12132 0.3494 0.82905 0.0
C205 C 0.13029 0.35542 0.75933 0.0
C206 C 0.12278 0.36542 0.8774 0.0
C207 C 0.11182 0.35991 0.94903 0.0
C208 C 0.08961 0.34531 0.954 0.0
C209 C 0.07936 0.34006 0.02157 0.0
C210 C 0.09112 0.34942 0.08458 0.0
C211 C 0.11315 0.3641 0.08011 0.0
C212 C 0.12348 0.3694 0.01266 0.0
C213 C 0.15697 0.44537 0.69199 0.0
C214 C 0.17519 0.46039 0.73076 0.0
C215 C 0.14672 0.42349 0.70962 0.0
C216 C 0.15436 0.41625 0.76673 0.0
C217 C 0.17248 0.43119 0.80562 0.0
C218 C 0.18291 0.45301 0.78746 0.0
C219 C 0.1433 0.39313 0.7868 0.0
C220 C 0.13408 0.38709 0.85611 0.0
C221 C 0.14127 0.37708 0.7376 0.0
C222 C 0.15093 0.3825 0.66402 0.0
C223 C 0.17305 0.39687 0.65478 0.0
C224 C 0.18199 0.40202 0.58519 0.0
C225 C 0.169 0.39279 0.52441 0.0
C226 C 0.14705 0.37833 0.53312 0.0
C227 C 0.13802 0.37314 0.6026 0.0
H228 H 0.17596 0.3968 0.47058 0.0
H229 H 0.08316 0.34534 0.13685 0.0
H230 H 0.76923 0.8094 -0.00186 0.0
H231 H 0.73199 0.79213 0.95548 0.0
H232 H 0.75142 0.83727 0.77866 0.0
H233 H 0.78896 0.85431 0.81992 0.0
H234 H 0.70934 0.82525 0.8807 0.0
H235 H 0.74469 0.79845 0.71651 0.0
H236 H 0.76784 0.78267 0.69464 0.0
H237 H 0.72619 0.72827 0.82657 0.0
H238 H 0.70297 0.74391 0.85003 0.0
H239 H 0.60928 0.76985 0.69484 0.0
H240 H 0.6474 0.79173 0.72639 0.0
H241 H 0.64618 0.73554 0.81555 0.0
H242 H 0.60871 0.71356 0.77879 0.0
H243 H 0.68077 0.75557 0.75217 0.0
H244 H 0.64542 0.77895 0.91973 0.0
H245 H 0.62201 0.79327 0.95778 0.0
H246 H 0.66221 0.85184 0.84223 0.0
H247 H 0.68564 0.83771 0.80251 0.0
C248 C 0.76555 0.81575 0.95048 0.0
C249 C 0.78194 0.83316 0.91218 0.0
C250 C 0.74431 0.80589 0.92628 0.0
C251 C 0.73904 0.81348 0.86413 0.0
C252 C 0.75523 0.83128 0.82693 0.0
C253 C 0.77661 0.84092 0.85035 0.0
C254 C 0.71674 0.802 0.83639 0.0
C255 C 0.70305 0.81018 0.85147 0.0
C256 C 0.70852 0.78203 0.8008 0.0
C257 C 0.72223 0.77244 0.78552 0.0
C258 C 0.74057 0.78321 0.7413 0.0
C259 C 0.75368 0.77427 0.72851 0.0
C260 C 0.74852 0.7545 0.75933 0.0
C261 C 0.73018 0.74359 0.80278 0.0
C262 C 0.71703 0.75247 0.81575 0.0
C263 C 0.61728 0.76227 0.721 0.0
C264 C 0.60619 0.74007 0.73419 0.0
C265 C 0.63902 0.77479 0.73964 0.0
C266 C 0.64978 0.76547 0.77473 0.0
C267 C 0.63847 0.74322 0.78819 0.0
C268 C 0.61701 0.73064 0.76739 0.0
C269 C 0.67282 0.7786 0.7966 0.0
C270 C 0.6868 0.77071 0.78074 0.0
C271 C 0.68111 0.79858 0.83334 0.0
C272 C 0.66713 0.80717 0.85754 0.0
C273 C 0.64917 0.79481 0.90208 0.0
C274 C 0.63591 0.8029 0.92398 0.0
C275 C 0.6406 0.82343 0.90232 0.0
C276 C 0.65858 0.83593 0.85887 0.0
C277 C 0.67185 0.82789 0.83665 0.0
H278 H 0.63032 0.82966 0.91934 0.0
H279 H 0.75869 0.74762 0.74944 0.0
H280 H 0.22058 0.95189 0.95007 0.0
H281 H 0.23773 0.93179 0.90685 0.0
H282 H 0.27608 0.98291 0.75657 0.0
H283 H 0.25849 1.00272 0.79822 0.0
H284 H 0.26302 0.94566 0.69319 0.0
H285 H 0.29637 0.97683 0.92091 0.0
H286 H 0.29748 0.98461 0.05166 0.0
H287 H 0.26769 0.91724 0.0997 0.0
H288 H 0.26613 0.90904 0.96909 0.0
H289 H 0.34693 0.92199 0.63 0.0
H290 H 0.32555 0.9384 0.66525 0.0
H291 H 0.2854 0.88349 0.79916 0.0
H292 H 0.30677 0.86696 0.7646 0.0
H293 H 0.29813 0.9212 0.8704 0.0
H294 H 0.26671 0.89068 0.64016 0.0
H295 H 0.26688 0.88387 0.50912 0.0
H296 H 0.29466 0.9513 0.46558 0.0
H297 H 0.29493 0.95855 0.59651 0.0
C298 C 0.23257 0.95874 0.90748 0.0
C299 C 0.2383 0.97889 0.87771 0.0
C300 C 0.24245 0.94731 0.88308 0.0
C301 C 0.2585 0.95598 0.82926 0.0
C302 C 0.2638 0.97589 0.79822 0.0
C303 C 0.25378 0.98723 0.82217 0.0
C304 C 0.27002 0.94453 0.80611 0.0
C305 C 0.2709 0.94053 0.73193 0.0
C306 C 0.27996 0.93742 0.85662 0.0
C307 C 0.28092 0.94231 0.93519 0.0
C308 C 0.2899 0.96367 0.95933 0.0
C309 C 0.29064 0.96815 0.03341 0.0
C310 C 0.2826 0.95142 0.08394 0.0
C311 C 0.27387 0.93018 0.06049 0.0
C312 C 0.27307 0.92561 0.98645 0.0
C313 C 0.33348 0.9133 0.66662 0.0
C314 C 0.32859 0.89312 0.69441 0.0
C315 C 0.32121 0.9227 0.6865 0.0
C316 C 0.30376 0.91211 0.73445 0.0
C317 C 0.29877 0.89193 0.76203 0.0
C318 C 0.31098 0.88247 0.74194 0.0
C319 C 0.29118 0.92242 0.75759 0.0
C320 C 0.29015 0.92624 0.83176 0.0
C321 C 0.28126 0.92951 0.70703 0.0
C322 C 0.28101 0.92517 0.62823 0.0
C323 C 0.27301 0.90407 0.6027 0.0
C324 C 0.273 0.90013 0.52842 0.0
C325 C 0.28083 0.91715 0.47906 0.0
C326 C 0.28863 0.93814 0.50388 0.0
C327 C 0.28869 0.94217 0.57811 0.0
H328 H 0.28081 0.91406 0.42158 0.0
H329 H 0.28319 0.95493 0.14127 0.0
H330 H 0.44424 0.1867 0.28463 0.0
H331 H 0.40663 0.16927 0.24607 0.0
H332 H 0.41774 0.12874 0.10004 0.0
H333 H 0.45554 0.1468 0.1363 0.0
H334 H 0.39337 0.14052 0.03645 0.0
H335 H 0.39318 0.11266 0.27399 0.0
H336 H 0.4006 0.11486 0.40511 0.0
H337 H 0.36161 0.14386 0.44093 0.0
H338 H 0.3544 0.14239 0.30975 0.0
H339 H 0.28665 0.0566 0.98365 0.0
H340 H 0.32412 0.0779 0.02082 0.0
H341 H 0.30899 0.11972 0.14424 0.0
H342 H 0.27127 0.09829 0.10795 0.0
H343 H 0.33486 0.10903 0.21964 0.0
H344 H 0.33448 0.13606 0.98262 0.0
H345 H 0.32669 0.13343 0.85168 0.0
H346 H 0.36607 0.10481 0.81601 0.0
H347 H 0.37386 0.10699 0.94695 0.0
C348 C 0.43865 0.17418 0.24387 0.0
C349 C 0.45275 0.16804 0.21356 0.0
C350 C 0.41711 0.16411 0.22224 0.0
C351 C 0.40914 0.14733 0.17116 0.0
C352 C 0.42341 0.14157 0.13967 0.0
C353 C 0.44502 0.15187 0.16046 0.0
C354 C 0.38596 0.13567 0.15059 0.0
C355 C 0.38062 0.13344 0.07664 0.0
C356 C 0.36918 0.12685 0.20288 0.0
C357 C 0.37346 0.12765 0.28185 0.0
C358 C 0.38634 0.11968 0.3097 0.0
C359 C 0.39049 0.12077 0.38407 0.0
C360 C 0.3816 0.12949 0.43131 0.0
C361 C 0.36852 0.13714 0.40427 0.0
C362 C 0.36443 0.13622 0.3299 0.0
C363 C 0.29122 0.07034 0.01859 0.0
C364 C 0.27591 0.0758 0.04232 0.0
C365 C 0.31271 0.08256 0.03959 0.0
C366 C 0.31945 0.1006 0.08447 0.0
C367 C 0.30418 0.10595 0.10919 0.0
C368 C 0.28264 0.09372 0.08812 0.0
C369 C 0.34241 0.11372 0.10576 0.0
C370 C 0.34766 0.11622 0.17969 0.0
C371 C 0.35913 0.12271 0.05357 0.0
C372 C 0.35461 0.12153 0.9747 0.0
C373 C 0.34136 0.12907 0.94693 0.0
C374 C 0.33696 0.12768 0.8727 0.0
C375 C 0.34584 0.11892 0.82558 0.0
C376 C 0.35919 0.11158 0.85258 0.0
C377 C 0.36362 0.11291 0.92679 0.0
H378 H 0.34242 0.11785 0.76812 0.0
H379 H 0.38481 0.13028 0.48887 0.0
H380 H 0.90016 0.31782 0.12952 0.0
H381 H 0.91695 0.29749 0.08452 0.0
H382 H 0.92798 0.28529 0.30482 0.0
H383 H 0.91075 0.30505 0.34973 0.0
H384 H 0.95612 0.30421 0.09591 0.0
H385 H 0.927 0.23822 0.31819 0.0
H386 H 0.89535 0.2175 0.39679 0.0
H387 H 0.85556 0.2266 0.24414 0.0
H388 H 0.8869 0.24712 0.16419 0.0
H389 H 0.02202 0.25733 0.0844 0.0
H390 H 1.00159 0.27457 0.12164 0.0
H391 H 0.94237 0.21638 0.07192 0.0
H392 H 0.96286 0.19864 0.03966 0.0
H393 H 0.93588 0.23139 0.18527 0.0
H394 H 0.96757 0.26458 0.9571 0.0
H395 H 0.9975 0.28362 0.87048 0.0
H396 H 0.02792 0.33726 0.01621 0.0
H397 H 0.99828 0.31845 0.10402 0.0
C398 C 0.90598 0.31058 0.1682 0.0
C399 C 0.90405 0.31288 0.24307 0.0
C400 C 0.91566 0.29906 0.14249 0.0
C401 C 0.92357 0.28964 0.19118 0.0
C402 C 0.92165 0.29201 0.26606 0.0
C403 C 0.91186 0.30338 0.29172 0.0
C404 C 0.93437 0.27786 0.16399 0.0
C405 C 0.95162 0.28824 0.11516 0.0
C406 C 0.92835 0.25688 0.18811 0.0
C407 C 0.90936 0.24438 0.23555 0.0
C408 C 0.91148 0.23573 0.30127 0.0
C409 C 0.8936 0.22403 0.34608 0.0
C410 C 0.87347 0.22079 0.32558 0.0
C411 C 0.87117 0.22919 0.26009 0.0
C412 C 0.889 0.24088 0.21506 0.0
C413 C 1.00464 0.24825 0.08133 0.0
C414 C 0.99399 0.22672 0.05863 0.0
C415 C 0.99294 0.25817 0.10215 0.0
C416 C 0.97036 0.24704 0.09786 0.0
C417 C 0.95974 0.22541 0.07559 0.0
C418 C 0.97144 0.21528 0.05692 0.0
C419 C 0.95784 0.2578 0.11762 0.0
C420 C 0.9403 0.24728 0.16537 0.0
C421 C 0.96325 0.27843 0.09101 0.0
C422 C 0.98076 0.29004 0.0373 0.0
C423 C 0.98066 0.28042 0.9707 0.0
C424 C 0.99758 0.29117 0.92142 0.0
C425 C 1.01462 0.31161 0.9379 0.0
C426 C 1.01471 0.32142 0.00352 0.0
C427 C 0.99784 0.31074 0.053 0.0
H428 H 0.02775 0.31987 0.89982 0.0
H429 H 0.85965 0.21174 0.36036 0.0
H430 H 0.81627 0.78335 0.96149 0.0
H431 H 0.7989 0.74559 -0.00351 0.0
H432 H 0.8512 0.75972 0.14228 0.0
H433 H 0.86904 0.79751 0.10581 0.0
H434 H 0.8395 0.72313 0.07582 0.0
H435 H 0.80136 0.75232 0.20445 0.0
H436 H 0.78101 0.77148 0.21732 0.0
H437 H 0.73223 0.72617 0.07472 0.0
H438 H 0.75227 0.70672 0.06092 0.0
H439 H 0.78431 0.62874 0.29436 0.0
H440 H 0.80358 0.66567 0.24838 0.0
H441 H 0.75331 0.6498 0.0918 0.0
H442 H 0.73397 0.61285 0.13784 0.0
H443 H 0.76391 0.68697 0.16227 0.0
H444 H 0.80163 0.65685 0.03884 0.0
H445 H 0.82185 0.63754 0.02864 0.0
H446 H 0.87173 0.68481 0.16364 0.0
H447 H 0.85164 0.70426 0.1755 0.0
C448 C 0.82418 0.77845 0.00074 0.0
C449 C 0.84403 0.79353 0.0311 0.0
C450 C 0.81413 0.75682 0.02107 0.0
C451 C 0.82347 0.7498 0.07327 0.0
C452 C 0.84359 0.76471 0.10214 0.0
C453 C 0.85379 0.78634 0.08121 0.0
C454 C 0.81215 0.727 0.0982 0.0
C455 C 0.82307 0.71533 0.09564 0.0
C456 C 0.79053 0.71657 0.12267 0.0
C457 C 0.77841 0.72819 0.13115 0.0
C458 C 0.78635 0.74652 0.17552 0.0
C459 C 0.77488 0.75742 0.18304 0.0
C460 C 0.75542 0.75012 0.14658 0.0
C461 C 0.74733 0.73183 0.10284 0.0
C462 C 0.7587 0.72082 0.0953 0.0
C463 C 0.77748 0.6331 0.24973 0.0
C464 C 0.75767 0.61793 0.21957 0.0
C465 C 0.78852 0.65419 0.22335 0.0
C466 C 0.77998 0.66051 0.16626 0.0
C467 C 0.76023 0.64531 0.13583 0.0
C468 C 0.74923 0.62419 0.16199 0.0
C469 C 0.79127 0.68314 0.13993 0.0
C470 C 0.78034 0.69477 0.14236 0.0
C471 C 0.81289 0.69354 0.11575 0.0
C472 C 0.82502 0.6819 0.10864 0.0
C473 C 0.81682 0.66303 0.06686 0.0
C474 C 0.82828 0.65208 0.06069 0.0
C475 C 0.84804 0.65991 0.09563 0.0
C476 C 0.85641 0.67875 0.13669 0.0
C477 C 0.845 0.68976 0.1431 0.0
H478 H 0.85689 0.65141 0.09076 0.0
H479 H 0.74658 0.75861 0.15241 0.0
H480 H 0.12811 0.49062 0.47333 0.0
H481 H 0.0911 0.47259 0.42799 0.0
H482 H 0.07175 0.49634 0.61162 0.0
H483 H 0.10858 0.51404 0.65761 0.0
H484 H 0.04536 0.45445 0.59396 0.0
H485 H 0.07552 0.51649 0.43809 0.0
H486 H 0.10157 0.54201 0.3497 0.0
H487 H 0.08369 0.49076 0.19656 0.0
H488 H 0.05773 0.46489 0.28443 0.0
H489 H 0.94122 0.4302 0.47359 0.0
H490 H 0.97918 0.44984 0.50821 0.0
H491 H 0.99378 0.41658 0.3427 0.0
H492 H 0.95577 0.39654 0.30841 0.0
H493 H 0.02262 0.46249 0.34783 0.0
H494 H 0.99317 0.40068 0.49945 0.0
H495 H 0.97001 0.37354 0.58943 0.0
H496 H 0.98792 0.42284 0.75026 0.0
H497 H 1.01092 0.45036 0.66084 0.0
C498 C 0.11599 0.4922 0.50344 0.0
C499 C 0.12118 0.5037 0.56899 0.0
C500 C 0.09486 0.48195 0.47739 0.0
C501 C 0.07861 0.48319 0.51617 0.0
C502 C 0.08397 0.49513 0.58079 0.0
C503 C 0.10504 0.5053 0.6069 0.0
C504 C 0.05582 0.47109 0.49196 0.0
C505 C 0.04033 0.45653 0.5406 0.0
C506 C 0.04938 0.47315 0.4213 0.0
C507 C 0.06482 0.48872 0.3681 0.0
C508 C 0.07725 0.51064 0.38575 0.0
C509 C 0.09199 0.52518 0.33571 0.0
C510 C 0.09433 0.51801 0.26763 0.0
C511 C 0.08189 0.4963 0.24934 0.0
C512 C 0.06714 0.48169 0.29921 0.0
C513 C 0.95249 0.42712 0.44421 0.0
C514 C 0.94542 0.41174 0.38834 0.0
C515 C 0.97417 0.4383 0.46432 0.0
C516 C 0.98924 0.43454 0.42838 0.0
C517 C 0.98237 0.41965 0.37129 0.0
C518 C 0.96064 0.4082 0.3519 0.0
C519 C 1.01217 0.44621 0.45051 0.0
C520 C 0.02765 0.46059 0.4014 0.0
C521 C 1.01866 0.44391 0.52071 0.0
C522 C 1.00358 0.42763 0.57308 0.0
C523 C 0.99189 0.4058 0.5536 0.0
C524 C 0.97893 0.39032 0.6047 0.0
C525 C 0.97761 0.39644 0.67564 0.0
C526 C 0.98906 0.4181 0.69542 0.0
C527 C 1.00202 0.43365 0.64449 0.0
H528 H 0.96758 0.38443 0.71512 0.0
H529 H 0.10576 0.52931 0.22904 0.0
H530 H 0.55508 0.63485 0.49234 0.0
H531 H 0.57214 0.6148 0.44766 0.0
H532 H 0.60135 0.62106 0.6572 0.0
H533 H 0.58368 0.64035 0.70255 0.0
H534 H 0.61148 0.62569 0.42777 0.0
H535 H 0.61048 0.58013 0.69043 0.0
H536 H 0.58724 0.56332 0.7971 0.0
H537 H 0.53242 0.55504 0.67736 0.0
H538 H 0.55526 0.57151 0.56968 0.0
H539 H 0.68785 0.59203 0.39102 0.0
H540 H 0.66632 0.60749 0.43418 0.0
H541 H 0.61087 0.54395 0.45146 0.0
H542 H 0.63266 0.52835 0.41158 0.0
H543 H 0.61083 0.56541 0.56084 0.0
H544 H 0.6186 0.57998 0.30672 0.0
H545 H 0.63807 0.59332 0.19089 0.0
H546 H 0.67195 0.65741 0.27683 0.0
H547 H 0.65289 0.6444 0.39354 0.0
C548 C 0.56494 0.63169 0.52898 0.0
C549 C 0.56798 0.63903 0.60096 0.0
C550 C 0.57476 0.62032 0.50338 0.0
C551 C 0.5879 0.61617 0.54915 0.0
C552 C 0.59094 0.62358 0.62114 0.0
C553 C 0.58091 0.63471 0.64697 0.0
C554 C 0.59911 0.60489 0.52091 0.0
C555 C 0.61124 0.61245 0.45681 0.0
C556 C 0.59855 0.58732 0.55778 0.0
C557 C 0.58465 0.57729 0.62223 0.0
C558 C 0.59346 0.57467 0.6868 0.0
C559 C 0.58035 0.5652 0.74745 0.0
C560 C 0.55838 0.55819 0.74409 0.0
C561 C 0.54946 0.56056 0.67999 0.0
C562 C 0.56248 0.57 0.61916 0.0
C563 C 0.67104 0.58135 0.40371 0.0
C564 C 0.66189 0.55898 0.39716 0.0
C565 C 0.6587 0.59022 0.42818 0.0
C566 C 0.63679 0.57696 0.44467 0.0
C567 C 0.6277 0.55457 0.43892 0.0
C568 C 0.64015 0.54566 0.41583 0.0
C569 C 0.6234 0.58641 0.46826 0.0
C570 C 0.61095 0.57856 0.53161 0.0
C571 C 0.62308 0.60325 0.42939 0.0
C572 C 0.63444 0.61117 0.35905 0.0
C573 C 0.63029 0.59689 0.30104 0.0
C574 C 0.64125 0.6044 0.23522 0.0
C575 C 0.65627 0.62619 0.22656 0.0
C576 C 0.66032 0.64053 0.28364 0.0
C577 C 0.64943 0.6331 0.34961 0.0
H578 H 0.66475 0.63197 0.17557 0.0
H579 H 0.54827 0.55087 0.79111 0.0
H580 H 0.48726 0.11817 0.28048 0.0
H581 H 0.47029 0.08018 0.31251 0.0
H582 H 0.51687 0.09545 0.48262 0.0
H583 H 0.53445 0.13345 0.44882 0.0
H584 H 0.50988 0.0602 0.41956 0.0
H585 H 0.46357 0.08494 0.51456 0.0
H586 H 0.4408 0.10167 0.51052 0.0
H587 H 0.39962 0.05485 0.35437 0.0
H588 H 0.4223 0.03799 0.35678 0.0
H589 H 0.4504 0.96403 0.62568 0.0
H590 H 0.46969 1.00117 0.58189 0.0
H591 H 0.4257 0.98351 0.40227 0.0
H592 H 0.40634 0.9463 0.4461 0.0
H593 H 0.43139 0.01945 0.46738 0.0
H594 H 0.47728 0.9939 0.37703 0.0
H595 H 0.49951 0.97667 0.38561 0.0
H596 H 0.54121 0.02482 0.53741 0.0
H597 H 0.51904 0.04218 0.53051 0.0
C598 C 0.49394 0.11345 0.3246 0.0
C599 C 0.51213 0.12888 0.36241 0.0
C600 C 0.48414 0.09169 0.34316 0.0
C601 C 0.49196 0.0849 0.40114 0.0
C602 C 0.51045 0.10023 0.43786 0.0
C603 C 0.52048 0.12198 0.41853 0.0
C604 C 0.48076 0.06188 0.42387 0.0
C605 C 0.49276 0.0514 0.43087 0.0
C606 C 0.4583 0.05012 0.43722 0.0
C607 C 0.44474 0.06033 0.43539 0.0
C608 C 0.44976 0.07832 0.47894 0.0
C609 C 0.43685 0.0878 0.47701 0.0
C610 C 0.4188 0.07934 0.43215 0.0
C611 C 0.41362 0.06139 0.38906 0.0
C612 C 0.42648 0.05185 0.39073 0.0
C613 C 0.445 0.96804 0.57638 0.0
C614 C 0.42697 0.95228 0.53893 0.0
C615 C 0.45607 0.98925 0.55127 0.0
C616 C 0.44932 0.99511 0.48822 0.0
C617 C 0.4313 0.97934 0.45073 0.0
C618 C 0.42031 0.95808 0.47558 0.0
C619 C 0.46051 0.01785 0.46309 0.0
C620 C 0.4485 0.02827 0.45579 0.0
C621 C 0.48294 0.02954 0.44992 0.0
C622 C 0.49639 0.01923 0.45371 0.0
C623 C 0.4911 1.00073 0.41263 0.0
C624 C 0.50371 0.99095 0.41713 0.0
C625 C 0.52173 0.99962 0.46214 0.0
C626 C 0.52723 0.01811 0.50261 0.0
C627 C 0.51466 0.02794 0.49836 0.0
H628 H 0.53147 0.99202 0.46557 0.0
H629 H 0.40877 0.08662 0.43098 0.0
H630 H 0.20362 0.1216 0.97752 0.0
H631 H 0.18267 0.13996 0.97094 0.0
H632 H 0.13053 0.0874 0.08572 0.0
H633 H 0.15147 0.06899 0.09257 0.0
H634 H 0.11722 0.09796 0.96017 0.0
H635 H 0.15999 0.13489 0.1684 0.0
H636 H 0.19362 0.15595 0.23687 0.0
H637 H 0.21491 0.20731 0.08239 0.0
H638 H 0.18152 0.18642 0.01239 0.0
H639 H 0.05049 0.14155 0.03058 0.0
H640 H 0.07396 0.12631 0.0374 0.0
H641 H 0.1252 0.18323 0.93746 0.0
H642 H 0.1018 0.199 0.93194 0.0
H643 H 0.14005 0.17139 0.05009 0.0
H644 H 0.0976 0.13557 0.84285 0.0
H645 H 0.06429 0.11497 0.77236 0.0
H646 H 0.04296 0.06201 0.92014 0.0
H647 H 0.07604 0.08241 -0.00786 0.0
C648 C 0.18786 0.11416 0.0026 0.0
C649 C 0.17919 0.0939 0.03576 0.0
C650 C 0.1759 0.12466 -0.00125 0.0
C651 C 0.15502 0.11506 0.02782 0.0
C652 C 0.14659 0.09509 0.06282 0.0
C653 C 0.15862 0.08466 0.06717 0.0
C654 C 0.14157 0.12529 0.01829 0.0
C655 C 0.12206 0.1139 0.9807 0.0
C656 C 0.14826 0.14639 0.04271 0.0
C657 C 0.16835 0.15899 0.08474 0.0
C658 C 0.17192 0.15059 0.14867 0.0
C659 C 0.19093 0.16252 0.18783 0.0
C660 C 0.20642 0.18293 0.16389 0.0
C661 C 0.20291 0.19149 0.10081 0.0
C662 C 0.18394 0.17962 0.06141 0.0
C663 C 0.06668 0.15087 0.00939 0.0
C664 C 0.07419 0.17154 0.9804 0.0
C665 C 0.0801 0.14203 0.01314 0.0
C666 C 0.1013 0.15346 -0.0129 0.0
C667 C 0.10888 0.17407 0.95775 0.0
C668 C 0.09545 0.18302 0.95429 0.0
C669 C 0.11555 0.14397 -0.00737 0.0
C670 C 0.13522 0.15549 0.02927 0.0
C671 C 0.1091 0.12303 0.96678 0.0
C672 C 0.08925 0.11059 0.92321 0.0
C673 C 0.08575 0.11958 0.8606 0.0
C674 C 0.06692 0.10793 0.82032 0.0
C675 C 0.05152 0.0872 0.84178 0.0
C676 C 0.05492 0.07807 0.90356 0.0
C677 C 0.07372 0.08966 0.94407 0.0
H678 H 0.03696 0.0782 0.81048 0.0
H679 H 0.22112 0.19214 0.19429 0.0
H680 H 0.91645 0.93264 0.07078 0.0
H681 H 0.93086 0.9712 0.08433 0.0
H682 H 0.88717 0.96934 0.92096 0.0
H683 H 0.87224 0.93034 0.90766 0.0
H684 H 0.93335 1.00374 0.90737 0.0
H685 H 0.87463 0.97374 0.07928 0.0
H686 H 0.85373 0.94998 0.18045 0.0
H687 H 0.90879 0.98163 0.31944 0.0
H688 H 0.93014 1.00536 0.21868 0.0
H689 H 0.95032 0.10778 0.95864 0.0
H690 H 0.93173 0.06861 0.95302 0.0
H691 H 0.96886 0.0674 0.13443 0.0
H692 H 0.98775 0.10689 0.14005 0.0
H693 H 0.9254 0.03432 0.13946 0.0
H694 H 0.98467 0.06253 0.97751 0.0
H695 H 1.00872 0.08583 0.88077 0.0
H696 H 0.95684 0.05735 0.72799 0.0
H697 H 0.93231 0.03413 0.82438 0.0
C698 C 0.90988 0.94035 0.03738 0.0
C699 C 0.89319 0.92838 -0.01206 0.0
C700 C 0.91811 0.96241 0.0455 0.0
C701 C 0.91004 0.97309 0.00389 0.0
C702 C 0.89359 0.96134 0.95362 0.0
C703 C 0.88504 0.93909 0.94626 0.0
C704 C 0.91891 0.99653 0.01357 0.0
C705 C 0.93125 1.01044 0.95747 0.0
C706 C 0.91694 1.00522 0.08024 0.0
C707 C 0.90404 0.99121 0.14122 0.0
C708 C 0.88234 0.97553 0.13125 0.0
C709 C 0.8704 0.96208 0.18855 0.0
C710 C 0.87994 0.96426 0.25628 0.0
C711 C 0.90143 0.97995 0.26691 0.0
C712 C 0.91345 0.99342 0.20974 0.0
C713 C 0.9543 0.09919 -0.00181 0.0
C714 C 0.97055 0.11038 0.04962 0.0
C715 C 0.94371 0.0768 -0.0053 0.0
C716 C 0.94911 0.06511 0.04265 0.0
C717 C 0.96449 0.07614 0.09682 0.0
C718 C 0.97524 0.09866 0.10004 0.0
C719 C 0.93958 0.04156 0.0328 0.0
C720 C 0.92729 0.02764 0.08899 0.0
C721 C 0.94196 0.03284 0.96673 0.0
C722 C 0.95658 0.04675 0.9084 0.0
C723 C 0.97832 0.06138 0.92347 0.0
C724 C 0.99206 0.07454 0.86866 0.0
C725 C 0.98432 0.07307 0.79827 0.0
C726 C 0.96281 0.05846 0.78258 0.0
C727 C 0.94897 0.04529 0.8373 0.0
H728 H 0.99502 0.08322 0.75587 0.0
H729 H 0.87068 0.95382 0.30056 0.0
H730 H 0.9621 0.87961 0.10325 0.0
H731 H 1.00164 0.89748 0.09872 0.0
H732 H 1.00106 0.9212 0.88433 0.0
H733 H 0.96207 0.9032 0.88797 0.0
H734 H 0.02927 0.90869 0.88683 0.0
H735 H 1.01164 0.95261 0.03969 0.0
H736 H 0.99499 0.95983 0.14524 0.0
H737 H 0.03117 0.94303 0.28924 0.0
H738 H 0.04785 0.93547 0.1844 0.0
H739 H 0.13365 0.01711 0.97177 0.0
H740 H 0.09502 0.99256 0.97859 0.0
H741 H 0.10502 0.93878 0.94345 0.0
H742 H 0.14384 0.96342 0.93467 0.0
H743 H 0.07255 0.96307 0.07287 0.0
H744 H 0.0619 0.89807 0.86864 0.0
H745 H 0.07718 0.89425 0.75309 0.0
H746 H 0.09569 0.95916 0.69617 0.0
H747 H 0.08087 0.96348 0.81188 0.0
C748 C 0.9705 0.88853 0.05517 0.0
C749 C 0.95904 0.89009 -0.00385 0.0
C750 C 0.99305 0.89877 0.05261 0.0
C751 C 1.00439 0.91082 -0.00876 0.0
C752 C 0.99278 0.91194 0.93206 0.0
C753 C 0.97042 0.90171 0.93445 0.0
C754 C 0.02831 0.9231 -0.01158 0.0
C755 C 0.03874 0.92042 0.92798 0.0
C756 C 0.04074 0.93865 0.04133 0.0
C757 C 0.03077 0.94322 0.1043 0.0
C758 C 1.01591 0.95031 0.09388 0.0
C759 C 1.00649 0.95448 0.15355 0.0
C760 C 1.01196 0.95182 0.2239 0.0
C761 C 0.02691 0.94504 0.23472 0.0
C762 C 0.03636 0.94081 0.17521 0.0
C763 C 0.12767 1.00008 0.96463 0.0
C764 C 0.14189 0.99225 0.95271 0.0
C765 C 0.10553 0.98602 0.96893 0.0
C766 C 0.09701 0.96377 0.96174 0.0
C767 C 0.11112 0.95589 0.94831 0.0
C768 C 0.13334 0.97001 0.94332 0.0
C769 C 0.07344 0.94899 0.97045 0.0
C770 C 0.06313 0.9511 0.03228 0.0
C771 C 0.06102 0.93336 0.91776 0.0
C772 C 0.0705 0.93114 0.84912 0.0
C773 C 0.06935 0.91155 0.83157 0.0
C774 C 0.07799 0.90934 0.76621 0.0
C775 C 0.08759 0.92654 0.71764 0.0
C776 C 0.08855 0.94598 0.73433 0.0
C777 C 0.08012 0.94835 0.7999 0.0
H778 H 0.09418 0.92477 0.66689 0.0
H779 H 1.00465 0.95507 0.27004 0.0
H780 H 0.72744 0.48498 0.39785 0.0
H781 H 0.75286 0.47221 0.4105 0.0
H782 H 0.79535 0.51959 0.25627 0.0
H783 H 0.76983 0.53282 0.24341 0.0
H784 H 0.78849 0.47652 0.23501 0.0
H785 H 0.80885 0.52926 0.42321 0.0
H786 H 0.80242 0.54688 0.52742 0.0
H787 H 0.77848 0.4889 0.65202 0.0
H788 H 0.78443 0.4708 0.5481 0.0
H789 H 0.87402 0.45765 0.3086 0.0
H790 H 0.85416 0.47701 0.29966 0.0
H791 H 0.80894 0.43493 0.46013 0.0
H792 H 0.82876 0.41534 0.46903 0.0
H793 H 0.81952 0.47808 0.47673 0.0
H794 H 0.79519 0.42426 0.29162 0.0
H795 H 0.79916 0.40445 0.18899 0.0
H796 H 0.82799 0.46204 0.06076 0.0
H797 H 0.82449 0.48229 0.16315 0.0
C798 C 0.7421 0.49272 0.36605 0.0
C799 C 0.74658 0.51 0.31954 0.0
C800 C 0.75668 0.48541 0.37377 0.0
C801 C 0.77608 0.49509 0.33501 0.0
C802 C 0.78048 0.51198 0.28696 0.0
C803 C 0.76592 0.51953 0.27974 0.0
C804 C 0.79155 0.48733 0.34554 0.0
C805 C 0.79568 0.47729 0.28739 0.0
C806 C 0.80031 0.4877 0.41463 0.0
C807 C 0.79693 0.49861 0.47758 0.0
C808 C 0.80206 0.5202 0.47262 0.0
C809 C 0.79852 0.53029 0.53168 0.0
C810 C 0.79 0.519 0.59624 0.0
C811 C 0.78506 0.49762 0.60194 0.0
C812 C 0.78853 0.48744 0.54299 0.0
C813 C 0.86007 0.45275 0.34299 0.0
C814 C 0.85287 0.43494 0.38934 0.0
C815 C 0.84869 0.46377 0.33755 0.0
C816 C 0.82992 0.45723 0.37848 0.0
C817 C 0.82337 0.44021 0.42795 0.0
C818 C 0.83469 0.42905 0.43306 0.0
C819 C 0.81647 0.46729 0.36617 0.0
C820 C 0.81262 0.47762 0.42407 0.0
C821 C 0.80773 0.46696 0.2971 0.0
C822 C 0.80983 0.45485 0.23534 0.0
C823 C 0.80257 0.43275 0.24178 0.0
C824 C 0.80469 0.42143 0.18361 0.0
C825 C 0.81388 0.43199 0.11847 0.0
C826 C 0.82092 0.45389 0.11132 0.0
C827 C 0.81886 0.4653 0.16938 0.0
H828 H 0.81551 0.4232 0.07349 0.0
H829 H 0.78726 0.52684 0.6419 0.0
H830 H 0.67191 0.44016 0.39309 0.0
H831 H 0.65126 0.40113 0.37732 0.0
H832 H 0.59263 0.40368 0.3657 0.0
H833 H 0.61336 0.443 0.37916 0.0
H834 H 0.59351 0.36731 0.45687 0.0
H835 H 0.60572 0.39984 0.22019 0.0
H836 H 0.62769 0.425 0.12355 0.0
H837 H 0.66794 0.39654 0.11715 0.0
H838 H 0.64642 0.37145 0.21488 0.0
H839 H 0.53178 0.26205 0.30166 0.0
H840 H 0.54679 0.30094 0.31639 0.0
H841 H 0.61092 0.31052 0.29978 0.0
H842 H 0.5961 0.27176 0.28664 0.0
H843 H 0.60437 0.34098 0.22012 0.0
H844 H 0.59333 0.30911 0.45582 0.0
H845 H 0.57205 0.28352 0.55223 0.0
H846 H 0.53073 0.3107 0.56357 0.0
H847 H 0.55133 0.33599 0.46509 0.0
C848 C 0.65458 0.43239 0.38863 0.0
C849 C 0.64421 0.44458 0.38731 0.0
C850 C 0.64283 0.41011 0.37939 0.0
C851 C 0.62047 0.39959 0.37003 0.0
C852 C 0.60989 0.41155 0.37294 0.0
C853 C 0.62171 0.43395 0.38064 0.0
C854 C 0.60859 0.37639 0.35185 0.0
C855 C 0.59551 0.36151 0.40469 0.0
C856 C 0.61163 0.36891 0.28427 0.0
C857 C 0.62463 0.38396 0.22556 0.0
C858 C 0.61941 0.39912 0.19885 0.0
C859 C 0.63175 0.41333 0.14373 0.0
C860 C 0.64925 0.41242 0.11441 0.0
C861 C 0.65441 0.39726 0.14006 0.0
C862 C 0.64214 0.38304 0.19531 0.0
C863 C 0.54906 0.2725 0.29993 0.0
C864 C 0.56278 0.26388 0.29314 0.0
C865 C 0.5576 0.29467 0.30871 0.0
C866 C 0.57996 0.30856 0.30959 0.0
C867 C 0.59363 0.30007 0.29924 0.0
C868 C 0.58513 0.27793 0.29194 0.0
C869 C 0.58927 0.33181 0.3251 0.0
C870 C 0.60204 0.34672 0.27191 0.0
C871 C 0.58599 0.33927 0.39249 0.0
C872 C 0.57369 0.32424 0.45223 0.0
C873 C 0.57954 0.30946 0.47815 0.0
C874 C 0.56763 0.29503 0.5333 0.0
C875 C 0.55005 0.29547 0.56406 0.0
C876 C 0.54433 0.31034 0.53959 0.0
C877 C 0.55609 0.3247 0.48393 0.0
H878 H 0.54089 0.28432 0.60696 0.0
H879 H 0.65877 0.42342 0.07168 0.0
H880 H 0.63032 0.20294 0.29957 0.0
H881 H 0.66958 0.22392 0.2946 0.0
H882 H 0.66879 0.27201 0.43302 0.0
H883 H 0.62939 0.25108 0.43764 0.0
H884 H 0.69367 0.28979 0.3135 0.0
H885 H 0.68622 0.23861 0.4958 0.0
H886 H 0.67292 0.2024 0.54672 0.0
H887 H 0.70326 0.18731 0.37334 0.0
H888 H 0.7165 0.22335 0.32082 0.0
H889 H 0.80391 0.3524 0.38855 0.0
H890 H 0.76518 0.329 0.39476 0.0
H891 H 0.77019 0.28147 0.26602 0.0
H892 H 0.80939 0.30474 0.26124 0.0
H893 H 0.74309 0.26271 0.37548 0.0
H894 H 0.75144 0.31364 0.19395 0.0
H895 H 0.76529 0.34983 0.14205 0.0
H896 H 0.73328 0.36507 0.3092 0.0
H897 H 0.71951 0.3291 0.36286 0.0
C898 C 0.63854 0.21779 0.33006 0.0
C899 C 0.62681 0.22535 0.36922 0.0
C900 C 0.661 0.22978 0.32717 0.0
C901 C 0.67219 0.24954 0.36357 0.0
C902 C 0.66051 0.25682 0.40442 0.0
C903 C 0.63802 0.24479 0.4075 0.0
C904 C 0.69596 0.26309 0.35596 0.0
C905 C 0.7045 0.28397 0.32802 0.0
C906 C 0.71006 0.25526 0.37235 0.0
C907 C 0.70217 0.23361 0.404 0.0
C908 C 0.68991 0.22751 0.46821 0.0
C909 C 0.68241 0.20703 0.49743 0.0
C910 C 0.6872 0.19255 0.46319 0.0
C911 C 0.69954 0.19854 0.39976 0.0
C912 C 0.70707 0.219 0.37028 0.0
C913 C 0.79687 0.33705 0.36094 0.0
C914 C 0.80984 0.33054 0.32391 0.0
C915 C 0.77462 0.32367 0.36442 0.0
C916 C 0.76464 0.30358 0.32986 0.0
C917 C 0.7775 0.29694 0.29294 0.0
C918 C 0.7999 0.31028 0.29001 0.0
C919 C 0.74084 0.28951 0.33378 0.0
C920 C 0.73228 0.26852 0.36073 0.0
C921 C 0.72668 0.29718 0.31588 0.0
C922 C 0.73456 0.31869 0.28277 0.0
C923 C 0.74744 0.32474 0.21989 0.0
C924 C 0.75528 0.34522 0.19014 0.0
C925 C 0.7502 0.35975 0.22239 0.0
C926 C 0.73721 0.3538 0.28431 0.0
C927 C 0.72936 0.33336 0.31437 0.0
H928 H 0.7563 0.3756 0.19934 0.0
H929 H 0.68137 0.1767 0.48589 0.0
H930 H 0.47975 0.7328 0.64687 0.0
H931 H 0.46361 0.7555 0.639 0.0
H932 H 0.51605 0.80477 0.7626 0.0
H933 H 0.53213 0.78149 0.77257 0.0
H934 H 0.47772 0.80187 0.79977 0.0
H935 H 0.51577 0.80957 0.58029 0.0
H936 H 0.52751 0.79765 0.47275 0.0
H937 H 0.46266 0.7642 0.39378 0.0
H938 H 0.45046 0.77565 0.50139 0.0
H939 H 0.44302 0.87485 0.65615 0.0
H940 H 0.46702 0.8599 0.67175 0.0
H941 H 0.41406 0.79635 0.62939 0.0
H942 H 0.3899 0.811 0.6163 0.0
H943 H 0.4587 0.81292 0.55103 0.0
H944 H 0.42112 0.80126 0.78378 0.0
H945 H 0.41014 0.81474 0.88925 0.0
H946 H 0.47639 0.85837 0.93967 0.0
H947 H 0.48773 0.84539 0.83359 0.0
C948 C 0.4878 0.74839 0.67301 0.0
C949 C 0.50731 0.75551 0.70966 0.0
C950 C 0.47859 0.7614 0.66819 0.0
C951 C 0.48889 0.78208 0.69848 0.0
C952 C 0.50792 0.78893 0.73823 0.0
C953 C 0.51708 0.77568 0.74392 0.0
C954 C 0.47983 0.79643 0.68571 0.0
C955 C 0.47398 0.80465 0.7453 0.0
C956 C 0.47489 0.80011 0.6146 0.0
C957 C 0.48218 0.79339 0.54919 0.0
C958 C 0.50399 0.79957 0.5402 0.0
C959 C 0.51073 0.79291 0.4792 0.0
C960 C 0.49584 0.78015 0.42652 0.0
C961 C 0.47418 0.77408 0.43463 0.0
C962 C 0.46734 0.78069 0.49558 0.0
C963 C 0.43661 0.85774 0.64924 0.0
C964 C 0.41465 0.84405 0.63491 0.0
C965 C 0.45028 0.84925 0.65852 0.0
C966 C 0.44222 0.82706 0.65192 0.0
C967 C 0.42051 0.81352 0.63471 0.0
C968 C 0.40676 0.82189 0.62731 0.0
C969 C 0.45612 0.81766 0.66491 0.0
C970 C 0.46286 0.81044 0.60527 0.0
C971 C 0.46205 0.81513 0.73566 0.0
C972 C 0.45526 0.82257 0.80028 0.0
C973 C 0.43334 0.81387 0.81696 0.0
C974 C 0.42704 0.82139 0.8769 0.0
C975 C 0.44255 0.83746 0.92097 0.0
C976 C 0.46439 0.84596 0.90538 0.0
C977 C 0.47076 0.83853 0.84537 0.0
H978 H 0.43765 0.84329 0.96729 0.0
H979 H 0.50109 0.77499 0.37936 0.0
H980 H 0.20356 0.59725 0.63137 0.0
H981 H 0.21883 0.63619 0.6421 0.0
H982 H 0.27448 0.64134 0.74945 0.0
H983 H 0.25935 0.60261 0.73985 0.0
H984 H 0.26066 0.66512 0.81826 0.0
H985 H 0.27627 0.65531 0.57123 0.0
H986 H 0.26735 0.64011 0.44782 0.0
H987 H 0.22621 0.66696 0.41854 0.0
H988 H 0.23466 0.68207 0.54222 0.0
H989 H 0.33524 0.77718 0.77857 0.0
H990 H 0.31539 0.73784 0.78114 0.0
H991 H 0.26337 0.73744 0.66321 0.0
H992 H 0.28346 0.77671 0.65871 0.0
H993 H 0.27322 0.71091 0.60202 0.0
H994 H 0.25943 0.72283 0.84688 0.0
H995 H 0.26869 0.73825 0.96992 0.0
H996 H 0.30632 0.70774 0.004 0.0
H997 H 0.29758 0.6924 0.88071 0.0
C998 C 0.21909 0.60667 0.65699 0.0
C999 C 0.23022 0.59672 0.68444 0.0
C1000 C 0.22781 0.62896 0.66306 0.0
C1001 C 0.24789 0.64176 0.69631 0.0
C1002 C 0.25896 0.63184 0.72384 0.0
C1003 C 0.25028 0.60963 0.71786 0.0
C1004 C 0.25755 0.6655 0.70219 0.0
C1005 C 0.26358 0.67517 0.77092 0.0
C1006 C 0.26092 0.6786 0.64073 0.0
C1007 C 0.25591 0.66961 0.56625 0.0
C1008 C 0.26519 0.65783 0.53867 0.0
C1009 C 0.26024 0.64925 0.46865 0.0
C1010 C 0.24617 0.65251 0.42544 0.0
C1011 C 0.23707 0.66441 0.45211 0.0
C1012 C 0.24195 0.67299 0.52215 0.0
C1013 C 0.3194 0.76868 0.75435 0.0
C1014 C 0.31089 0.77998 0.71832 0.0
C1015 C 0.30802 0.74617 0.75597 0.0
C1016 C 0.28778 0.73457 0.72255 0.0
C1017 C 0.27896 0.74596 0.68909 0.0
C1018 C 0.2904 0.76842 0.68693 0.0
C1019 C 0.27643 0.71064 0.71818 0.0
C1020 C 0.27014 0.70091 0.64961 0.0
C1021 C 0.27281 0.69751 0.77985 0.0
C1022 C 0.27796 0.70659 0.85429 0.0
C1023 C 0.26979 0.71951 0.88042 0.0
C1024 C 0.27492 0.72822 0.95025 0.0
C1025 C 0.28806 0.72396 -0.00525 0.0
C1026 C 0.29612 0.711 0.9695 0.0
C1027 C 0.29107 0.70228 0.89966 0.0
H1028 H 0.29204 0.73074 0.04876 0.0
H1029 H 0.24236 0.64586 0.37125 0.0
H1030 H 0.4721 0.62556 0.63829 0.0
H1031 H 0.4334 0.60095 0.65473 0.0
H1032 H 0.42715 0.65176 0.75572 0.0
H1033 H 0.46545 0.67626 0.73996 0.0
H1034 H 0.40663 0.61507 0.83368 0.0
H1035 H 0.4087 0.63629 0.58277 0.0
H1036 H 0.42059 0.64112 0.45514 0.0
H1037 H 0.39945 0.57382 0.4387 0.0
H1038 H 0.38716 0.56856 0.56616 0.0
H1039 H 0.29527 0.58049 0.81393 0.0
H1040 H 0.33454 0.59834 0.80922 0.0
H1041 H 0.33043 0.54321 0.70015 0.0
H1042 H 0.29116 0.52554 0.70335 0.0
H1043 H 0.35679 0.57834 0.62933 0.0
H1044 H 0.34923 0.55664 0.87722 0.0
H1045 H 0.33625 0.55247 0.0034 0.0
H1046 H 0.36805 0.62103 0.02743 0.0
H1047 H 0.38098 0.62563 0.90104 0.0
C1048 C 0.46246 0.63151 0.66365 0.0
C1049 C 0.47197 0.65291 0.68788 0.0
C1050 C 0.44034 0.61743 0.67291 0.0
C1051 C 0.42737 0.62452 0.70653 0.0
C1052 C 0.43683 0.64588 0.73008 0.0
C1053 C 0.4588 0.65991 0.72067 0.0
C1054 C 0.40396 0.60983 0.71823 0.0
C1055 C 0.39569 0.60712 0.789 0.0
C1056 C 0.38976 0.59899 0.66031 0.0
C1057 C 0.39727 0.60209 0.58406 0.0
C1058 C 0.40674 0.62257 0.55203 0.0
C1059 C 0.41351 0.62537 0.47972 0.0
C1060 C 0.41099 0.60783 0.439 0.0
C1061 C 0.40148 0.58741 0.47037 0.0
C1062 C 0.39452 0.58448 0.54253 0.0
C1063 C 0.30276 0.572 0.79047 0.0
C1064 C 0.29019 0.55164 0.7591 0.0
C1065 C 0.32522 0.5822 0.78782 0.0
C1066 C 0.33552 0.57209 0.75457 0.0
C1067 C 0.3229 0.55135 0.72592 0.0
C1068 C 0.30046 0.54122 0.72819 0.0
C1069 C 0.3593 0.5838 0.74487 0.0
C1070 C 0.36769 0.58597 0.67439 0.0
C1071 C 0.37359 0.59416 0.80319 0.0
C1072 C 0.36594 0.59147 0.87942 0.0
C1073 C 0.35333 0.57083 0.90923 0.0
C1074 C 0.346 0.56839 0.98084 0.0
C1075 C 0.35128 0.58647 0.02336 0.0
C1076 C 0.36396 0.60704 -0.00558 0.0
C1077 C 0.37132 0.60957 0.92283 0.0
H1078 H 0.34558 0.58455 0.07877 0.0
H1079 H 0.41629 0.61006 0.38307 0.0
H1080 H 0.98772 0.18044 0.77438 0.0
H1081 H 0.99355 0.18296 0.64302 0.0
H1082 H 0.06211 0.21454 0.67662 0.0
H1083 H 0.05643 0.21197 0.80779 0.0
H1084 H 0.04931 0.23187 0.5625 0.0
H1085 H 0.0373 0.16332 0.6508 0.0
H1086 H 1.01699 0.12908 0.71708 0.0
H1087 H 0.96279 0.11042 0.57726 0.0
H1088 H 0.98266 0.1447 0.51082 0.0
H1089 H 0.08049 0.21713 0.21857 0.0
H1090 H 0.07567 0.21254 0.35 0.0
H1091 H 1.00678 0.17813 0.32234 0.0
H1092 H 1.01148 0.18246 0.19095 0.0
H1093 H 0.02016 0.16197 0.43421 0.0
H1094 H 0.03038 0.22969 0.34894 0.0
H1095 H 0.0491 0.26405 0.28267 0.0
H1096 H 0.10483 0.28446 0.41647 0.0
H1097 H 0.08653 0.25002 0.4828 0.0
C1098 C 1.00402 0.18825 0.7536 0.0
C1099 C 0.02164 0.19582 0.80062 0.0
C1100 C 1.00731 0.18962 0.67892 0.0
C1101 C 0.02821 0.19861 0.65094 0.0
C1102 C 0.04588 0.20748 0.69776 0.0
C1103 C 0.04261 0.20601 0.77238 0.0
C1104 C 0.03162 0.19742 0.57308 0.0
C1105 C 0.0432 0.21663 0.53446 0.0
C1106 C 0.02322 0.17744 0.53707 0.0
C1107 C 1.01139 0.15667 0.57629 0.0
C1108 C 0.02099 0.15199 0.63452 0.0
C1109 C 1.00957 0.13256 0.67207 0.0
C1110 C 0.98859 0.11762 0.65152 0.0
C1111 C 0.97903 0.12203 0.59318 0.0
C1112 C 0.99037 0.14144 0.55552 0.0
C1113 C 0.06435 0.2082 0.24057 0.0
C1114 C 0.04633 0.20053 0.19539 0.0
C1115 C 0.06163 0.20561 0.31533 0.0
C1116 C 0.04089 0.1954 0.34526 0.0
C1117 C 0.02289 0.18615 0.29982 0.0
C1118 C 0.0256 0.18873 0.22507 0.0
C1119 C 0.03792 0.19643 0.42361 0.0
C1120 C 0.02639 0.1772 0.46232 0.0
C1121 C 0.04619 0.2164 0.45967 0.0
C1122 C 0.05718 0.23719 0.42026 0.0
C1123 C 0.04669 0.24143 0.36382 0.0
C1124 C 0.05721 0.26093 0.32631 0.0
C1125 C 0.07817 0.2764 0.34521 0.0
C1126 C 0.08861 0.27243 0.4018 0.0
C1127 C 0.07817 0.25293 0.43938 0.0
H1128 H 0.08629 0.2915 0.31612 0.0
H1129 H 0.97973 0.10262 0.68069 0.0
H1130 H 0.88438 0.82949 0.76273 0.0
H1131 H 0.88208 0.83178 0.63102 0.0
H1132 H 0.84776 0.86638 0.6585 0.0
H1133 H 0.8504 0.86458 0.79018 0.0
H1134 H 0.83355 0.83505 0.53855 0.0
H1135 H 0.89703 0.89548 0.64359 0.0
H1136 H 0.9296 0.91132 0.71946 0.0
H1137 H 0.9562 0.88087 0.58781 0.0
H1138 H 0.92357 0.86453 0.51191 0.0
H1139 H 0.85099 0.88845 0.21134 0.0
H1140 H 0.85465 0.88619 0.3423 0.0
H1141 H 0.89259 0.85564 0.30673 0.0
H1142 H 0.88895 0.85779 0.17553 0.0
H1143 H 0.90524 0.88383 0.43003 0.0
H1144 H 0.84366 0.82436 0.32284 0.0
H1145 H 0.81151 0.80755 0.24539 0.0
H1146 H 0.78127 0.83376 0.37996 0.0
H1147 H 0.81361 0.85135 0.45704 0.0
C1148 C 0.8759 0.83712 0.74065 0.0
C1149 C 0.8678 0.84712 0.78613 0.0
C1150 C 0.8746 0.8384 0.66569 0.0
C1151 C 0.86501 0.84948 0.63587 0.0
C1152 C 0.85523 0.8578 0.68111 0.0
C1153 C 0.85675 0.85676 0.75607 0.0
C1154 C 0.86749 0.8547 0.55838 0.0
C1155 C 0.84914 0.84584 0.51478 0.0
C1156 C 0.88798 0.86845 0.5279 0.0
C1157 C 0.90777 0.87859 0.57262 0.0
C1158 C 0.90975 0.89202 0.6312 0.0
C1159 C 0.92823 0.90111 0.67416 0.0
C1160 C 0.94494 0.89705 0.65861 0.0
C1161 C 0.94323 0.88397 0.59988 0.0
C1162 C 0.92475 0.87479 0.55686 0.0
C1163 C 0.86055 0.88175 0.23148 0.0
C1164 C 0.86925 0.87279 0.18401 0.0
C1165 C 0.86265 0.88051 0.30602 0.0
C1166 C 0.87351 0.87038 0.33343 0.0
C1167 C 0.88407 0.86341 0.28606 0.0
C1168 C 0.88189 0.86454 0.21144 0.0
C1169 C 0.87126 0.86439 0.41029 0.0
C1170 C 0.88964 0.87303 0.45374 0.0
C1171 C 0.85082 0.85025 0.44051 0.0
C1172 C 0.83116 0.83939 0.3952 0.0
C1173 C 0.83024 0.82673 0.33554 0.0
C1174 C 0.81197 0.81702 0.29174 0.0
C1175 C 0.79433 0.81956 0.30772 0.0
C1176 C 0.79495 0.83183 0.36759 0.0
C1177 C 0.81328 0.8417 0.4113 0.0
H1178 H 0.78017 0.812 0.27379 0.0
H1179 H 0.95923 0.90409 0.69196 0.0
H1180 H 0.23624 0.08196 0.75522 0.0
H1181 H 0.23534 0.07632 0.62398 0.0
H1182 H 0.205 1.00786 0.6582 0.0
H1183 H 0.20506 0.01332 0.78887 0.0
H1184 H 0.24848 0.05648 0.52379 0.0
H1185 H 0.16308 0.98374 0.54933 0.0
H1186 H 0.13337 0.96925 0.63841 0.0
H1187 H 0.15271 0.03321 0.71086 0.0
H1188 H 0.18234 0.04806 0.6217 0.0
H1189 H 0.185 0.98766 0.20215 0.0
H1190 H 0.18746 0.99301 0.33373 0.0
H1191 H 0.21534 0.06134 0.30228 0.0
H1192 H 0.21307 0.05614 0.17094 0.0
H1193 H 0.17346 0.01271 0.43496 0.0
H1194 H 0.25918 0.08569 0.41437 0.0
H1195 H 0.28961 0.10101 0.32804 0.0
H1196 H 0.26981 0.03798 0.245 0.0
H1197 H 0.23953 0.02225 0.33161 0.0
C1198 C 0.22974 0.06576 0.73462 0.0
C1199 C 0.22039 0.04803 0.78157 0.0
C1200 C 0.22937 0.06258 0.65991 0.0
C1201 C 0.21973 0.04167 0.63185 0.0
C1202 C 0.21219 0.02409 0.67915 0.0
C1203 C 0.21228 0.02723 0.75361 0.0
C1204 C 0.21505 0.03805 0.55385 0.0
C1205 C 0.23211 0.04709 0.50416 0.0
C1206 C 0.19364 0.02567 0.52885 0.0
C1207 C 0.17501 0.01696 0.57927 0.0
C1208 C 0.16084 0.9947 0.5838 0.0
C1209 C 0.14405 0.98643 0.63444 0.0
C1210 C 0.14121 1.00031 0.68046 0.0
C1211 C 0.15498 0.02248 0.67536 0.0
C1212 C 0.17176 0.03082 0.62479 0.0
C1213 C 0.19125 1.00375 0.22347 0.0
C1214 C 0.19926 0.02155 0.17695 0.0
C1215 C 0.19259 1.00676 0.29836 0.0
C1216 C 0.20199 0.02759 0.32704 0.0
C1217 C 0.20838 0.0452 0.28067 0.0
C1218 C 0.20706 0.0422 0.20592 0.0
C1219 C 0.20689 0.0311 0.40483 0.0
C1220 C 0.18984 0.02206 0.4545 0.0
C1221 C 0.22831 0.04363 0.42964 0.0
C1222 C 0.24695 0.05283 0.37904 0.0
C1223 C 0.26141 0.07509 0.378 0.0
C1224 C 0.27862 0.08385 0.32897 0.0
C1225 C 0.28159 0.07048 0.28093 0.0
C1226 C 0.26744 0.04832 0.28208 0.0
C1227 C 0.25025 0.03948 0.33112 0.0
H1228 H 0.29489 0.07728 0.24295 0.0
H1229 H 0.12836 0.99391 0.72015 0.0
H1230 H 0.68285 0.51489 0.51867 0.0
H1231 H 0.67764 0.51069 0.64991 0.0
H1232 H 0.74525 0.555 0.68224 0.0
H1233 H 0.75064 0.55908 0.55076 0.0
H1234 H 0.7279 0.52095 0.7805 0.0
H1235 H 0.71182 0.57366 0.68156 0.0
H1236 H 0.69339 0.58557 0.59665 0.0
H1237 H 0.63221 0.5383 0.68288 0.0
H1238 H 0.65026 0.52578 0.7673 0.0
H1239 H 0.72442 0.54956 0.13826 0.0
H1240 H 0.73 0.55432 0.00741 0.0
H1241 H 0.66177 0.51387 0.97307 0.0
H1242 H 0.65599 0.50983 0.10431 0.0
H1243 H 0.67932 0.54605 0.87512 0.0
H1244 H 0.69405 0.49238 0.96993 0.0
H1245 H 0.71133 0.47874 0.05306 0.0
H1246 H 0.77351 0.52602 0.97358 0.0
H1247 H 0.75659 0.54014 0.89066 0.0
C1248 C 0.69665 0.52342 0.55383 0.0
C1249 C 0.71705 0.53767 0.52531 0.0
C1250 C 0.69365 0.52101 0.62847 0.0
C1251 C 0.71099 0.53296 0.67511 0.0
C1252 C 0.7317 0.54583 0.64665 0.0
C1253 C 0.73473 0.54818 0.57185 0.0
C1254 C 0.70719 0.53355 0.75312 0.0
C1255 C 0.71749 0.52665 0.80141 0.0
C1256 C 0.69324 0.54064 0.77952 0.0
C1257 C 0.6824 0.54864 0.73036 0.0
C1258 C 0.69443 0.56572 0.68216 0.0
C1259 C 0.68405 0.57257 0.63408 0.0
C1260 C 0.66164 0.56266 0.63424 0.0
C1261 C 0.64957 0.54593 0.68273 0.0
C1262 C 0.65987 0.53895 0.73072 0.0
C1263 C 0.71058 0.54215 0.10284 0.0
C1264 C 0.68981 0.52917 0.13084 0.0
C1265 C 0.71379 0.54478 0.02828 0.0
C1266 C 0.69634 0.53403 0.98096 0.0
C1267 C 0.67543 0.52218 0.00898 0.0
C1268 C 0.67216 0.51981 0.0837 0.0
C1269 C 0.70009 0.53351 0.90269 0.0
C1270 C 0.68977 0.5404 0.85428 0.0
C1271 C 0.71387 0.52623 0.87603 0.0
C1272 C 0.72406 0.51743 0.92457 0.0
C1273 C 0.71141 0.49993 0.97043 0.0
C1274 C 0.72114 0.49212 0.01751 0.0
C1275 C 0.74351 0.50155 0.01875 0.0
C1276 C 0.75619 0.51875 0.97264 0.0
C1277 C 0.74654 0.52665 0.92553 0.0
H1278 H 0.75102 0.4955 0.05534 0.0
H1279 H 0.65363 0.56797 0.59692 0.0
H1280 H 0.5172 0.22238 0.53295 0.0
H1281 H 0.52252 0.22262 0.66392 0.0
H1282 H 0.56001 0.19137 0.6322 0.0
H1283 H 0.55456 0.19089 0.50135 0.0
H1284 H 0.52567 0.16924 0.72231 0.0
H1285 H 0.58387 0.24181 0.69508 0.0
H1286 H 0.60112 0.27955 0.65486 0.0
H1287 H 0.55614 0.2889 0.78139 0.0
H1288 H 0.53848 0.25114 0.82189 0.0
H1289 H 0.55948 0.17229 0.08449 0.0
H1290 H 0.55596 0.17494 0.95369 0.0
H1291 H 0.52036 0.20792 -0.00928 0.0
H1292 H 0.5242 0.2057 0.12158 0.0
H1293 H 0.55339 0.22951 0.8981 0.0
H1294 H 0.49521 0.15767 0.926 0.0
H1295 H 0.47716 0.1199 0.96617 0.0
H1296 H 0.52065 0.10893 0.83706 0.0
H1297 H 0.53918 0.14674 0.79692 0.0
C1298 C 0.52691 0.21596 0.55399 0.0
C1299 C 0.53514 0.20624 0.50786 0.0
C1300 C 0.53003 0.21621 0.6285 0.0
C1301 C 0.54155 0.20691 0.65717 0.0
C1302 C 0.55099 0.19851 0.61064 0.0
C1303 C 0.54786 0.19823 0.53622 0.0
C1304 C 0.54155 0.20363 0.73565 0.0
C1305 C 0.53207 0.18241 0.76087 0.0
C1306 C 0.54914 0.22085 0.78527 0.0
C1307 C 0.55976 0.24359 0.76111 0.0
C1308 C 0.57757 0.25187 0.71396 0.0
C1309 C 0.58746 0.27328 0.69131 0.0
C1310 C 0.57974 0.28661 0.71563 0.0
C1311 C 0.56212 0.27856 0.76272 0.0
C1312 C 0.55219 0.25717 0.78565 0.0
C1313 C 0.55061 0.17978 0.06459 0.0
C1314 C 0.54224 0.18893 0.11249 0.0
C1315 C 0.54857 0.18123 -0.00987 0.0
C1316 C 0.53791 0.19163 0.96305 0.0
C1317 C 0.52871 0.19993 0.01098 0.0
C1318 C 0.53082 0.19856 0.08541 0.0
C1319 C 0.5377 0.19512 0.88473 0.0
C1320 C 0.54704 0.21634 0.85953 0.0
C1321 C 0.52985 0.17789 0.83503 0.0
C1322 C 0.51871 0.15511 0.85897 0.0
C1323 C 0.50105 0.14726 0.90664 0.0
C1324 C 0.4907 0.12583 0.92932 0.0
C1325 C 0.49779 0.11204 0.90432 0.0
C1326 C 0.5152 0.11964 0.85644 0.0
C1327 C 0.52561 0.14106 0.83365 0.0
H1328 H 0.48975 0.09545 0.92193 0.0
H1329 H 0.58738 0.30317 0.69787 0.0
H1330 H 0.87813 0.39339 0.52324 0.0
H1331 H 0.87551 0.39886 0.65285 0.0
H1332 H 0.84772 0.33077 0.68981 0.0
H1333 H 0.84974 0.32512 0.55968 0.0
H1334 H 0.8325 0.35144 0.78711 0.0
H1335 H 0.8996 0.35995 0.68979 0.0
H1336 H 0.92919 0.37599 0.60062 0.0
H1337 H 0.94743 0.43905 0.67976 0.0
H1338 H 0.91751 0.42341 0.76807 0.0
H1339 H 0.86614 0.34916 0.14184 0.0
H1340 H 0.86136 0.34423 0.01072 0.0
H1341 H 0.89744 0.413 0.98056 0.0
H1342 H 0.90288 0.41798 0.11153 0.0
H1343 H 0.90732 0.39327 0.87923 0.0
H1344 H 0.84276 0.38631 0.98069 0.0
H1345 H 0.8119 0.37201 0.06492 0.0
H1346 H 0.78854 0.30858 0.97904 0.0
H1347 H 0.81942 0.32247 0.89492 0.0
C1348 C 0.87093 0.37954 0.55879 0.0
C1349 C 0.8646 0.35891 0.53229 0.0
C1350 C 0.86934 0.38266 0.63254 0.0
C1351 C 0.86181 0.36525 0.68055 0.0
C1352 C 0.85361 0.34437 0.65331 0.0
C1353 C 0.85497 0.3412 0.57928 0.0
C1354 C 0.86607 0.36917 0.75868 0.0
C1355 C 0.8488 0.36045 0.80758 0.0
C1356 C 0.88739 0.38126 0.78464 0.0
C1357 C 0.9062 0.39053 0.73497 0.0
C1358 C 0.90987 0.37724 0.68799 0.0
C1359 C 0.92661 0.38626 0.63738 0.0
C1360 C 0.94003 0.40852 0.63424 0.0
C1361 C 0.9369 0.42181 0.68206 0.0
C1362 C 0.92004 0.41288 0.73234 0.0
C1363 C 0.87341 0.36318 0.10706 0.0
C1364 C 0.88475 0.38395 0.13643 0.0
C1365 C 0.87049 0.36036 0.03241 0.0
C1366 C 0.8786 0.37829 0.98643 0.0
C1367 C 0.89091 0.39899 0.0154 0.0
C1368 C 0.89401 0.40181 0.09003 0.0
C1369 C 0.87374 0.37549 0.90829 0.0
C1370 C 0.89095 0.38436 0.85917 0.0
C1371 C 0.85235 0.36376 0.88237 0.0
C1372 C 0.83352 0.35541 0.93191 0.0
C1373 C 0.83111 0.36929 0.98004 0.0
C1374 C 0.81361 0.36126 0.02775 0.0
C1375 C 0.7983 0.33939 0.02748 0.0
C1376 C 0.80042 0.32552 0.97925 0.0
C1377 C 0.8179 0.33347 0.93147 0.0
H1378 H 0.78479 0.33318 0.06456 0.0
H1379 H 0.95304 0.41545 0.59535 0.0
H1380 H 0.39511 0.87486 0.45499 0.0
H1381 H 0.40179 0.87529 0.32513 0.0
H1382 H 0.33365 0.84529 0.28406 0.0
H1383 H 0.32679 0.84421 0.41476 0.0
H1384 H 0.35174 0.82632 0.20717 0.0
H1385 H 0.36777 0.8993 0.25479 0.0
H1386 H 0.38605 0.93485 0.31404 0.0
H1387 H 0.44732 0.94404 0.24582 0.0
H1388 H 0.42943 0.90845 0.18684 0.0
H1389 H 0.34973 0.8544 0.84158 0.0
H1390 H 0.34677 0.84671 0.97135 0.0
H1391 H 0.41585 0.8766 0.98571 0.0
H1392 H 0.41891 0.88475 0.85597 0.0
H1393 H 0.40022 0.8941 0.07734 0.0
H1394 H 0.38471 0.82365 0.01725 0.0
H1395 H 0.36689 0.78956 0.94934 0.0
H1396 H 0.30574 0.77567 0.03652 0.0
H1397 H 0.32314 0.80989 0.1041 0.0
C1398 C 0.38157 0.86854 0.41822 0.0
C1399 C 0.36043 0.8595 0.44448 0.0
C1400 C 0.38541 0.86878 0.34415 0.0
C1401 C 0.36821 0.8604 0.29521 0.0
C1402 C 0.3471 0.85174 0.32124 0.0
C1403 C 0.34322 0.85129 0.39556 0.0
C1404 C 0.37228 0.86065 0.21677 0.0
C1405 C 0.36217 0.84114 0.17845 0.0
C1406 C 0.38653 0.87991 0.18026 0.0
C1407 C 0.39727 0.90113 0.21697 0.0
C1408 C 0.38515 0.90882 0.25302 0.0
C1409 C 0.39544 0.92899 0.2864 0.0
C1410 C 0.41783 0.94167 0.28366 0.0
C1411 C 0.42999 0.93419 0.24785 0.0
C1412 C 0.41978 0.91404 0.2144 0.0
C1413 C 0.36423 0.859 0.87229 0.0
C1414 C 0.38456 0.8705 0.8397 0.0
C1415 C 0.36252 0.85445 0.94614 0.0
C1416 C 0.38111 0.8611 -0.0122 0.0
C1417 C 0.40136 0.87142 0.95423 0.0
C1418 C 0.40308 0.8761 0.88046 0.0
C1419 C 0.37948 0.85986 0.06738 0.0
C1420 C 0.39003 0.8792 0.10606 0.0
C1421 C 0.36575 0.84046 0.10395 0.0
C1422 C 0.35524 0.81945 0.06546 0.0
C1423 C 0.36745 0.81339 0.02176 0.0
C1424 C 0.35742 0.79404 0.98329 0.0
C1425 C 0.33519 0.78049 -0.01155 0.0
C1426 C 0.32296 0.78619 0.03254 0.0
C1427 C 0.33291 0.80556 0.07106 0.0
H1428 H 0.32746 0.76558 0.95826 0.0
H1429 H 0.42578 0.95735 0.30894 0.0
H1430 H 0.21637 0.52028 0.87858 0.0
H1431 H 0.22186 0.52179 0.00967 0.0
H1432 H 0.1864 0.55537 0.03499 0.0
H1433 H 0.18058 0.55364 0.90388 0.0
H1434 H 0.23961 0.5541 0.11184 0.0
H1435 H 0.15309 0.53337 0.17792 0.0
H1436 H 0.1174 0.51594 0.11974 0.0
H1437 H 0.13433 0.47621 -0.00609 0.0
H1438 H 0.1701 0.49339 0.05123 0.0
H1439 H 0.19424 0.54256 0.49808 0.0
H1440 H 0.19104 0.5459 0.36755 0.0
H1441 H 0.22526 0.51167 0.32757 0.0
H1442 H 0.22843 0.50817 0.45846 0.0
H1443 H 0.17293 0.51529 0.25913 0.0
H1444 H 0.2603 0.5379 0.18602 0.0
H1445 H 0.29619 0.55542 0.24261 0.0
H1446 H 0.27762 0.59097 0.38391 0.0
H1447 H 0.24177 0.57394 0.32743 0.0
C1448 C 0.20995 0.52818 0.91213 0.0
C1449 C 0.19772 0.5365 0.88195 0.0
C1450 C 0.2132 0.52913 0.98666 0.0
C1451 C 0.20422 0.53838 0.03146 0.0
C1452 C 0.19315 0.5479 0.0009 0.0
C1453 C 0.18985 0.54691 0.92636 0.0
C1454 C 0.20499 0.53649 0.11043 0.0
C1455 C 0.22508 0.54549 0.14416 0.0
C1456 C 0.18593 0.52555 0.15205 0.0
C1457 C 0.16431 0.5148 0.11838 0.0
C1458 C 0.14915 0.52086 0.13804 0.0
C1459 C 0.12892 0.51103 0.10521 0.0
C1460 C 0.12359 0.49497 0.05327 0.0
C1461 C 0.13849 0.48869 0.03403 0.0
C1462 C 0.15876 0.4985 0.06651 0.0
C1463 C 0.20081 0.53549 0.46141 0.0
C1464 C 0.21164 0.52517 0.48776 0.0
C1465 C 0.19899 0.53744 0.38715 0.0
C1466 C 0.20818 0.52928 0.33864 0.0
C1467 C 0.21835 0.5183 0.36474 0.0
C1468 C 0.22007 0.51624 0.43912 0.0
C1469 C 0.20757 0.53274 0.26057 0.0
C1470 C 0.18748 0.52402 0.22699 0.0
C1471 C 0.22664 0.5439 0.21918 0.0
C1472 C 0.24826 0.55444 0.25301 0.0
C1473 C 0.2639 0.54951 0.22901 0.0
C1474 C 0.28424 0.55935 0.26107 0.0
C1475 C 0.28915 0.57423 0.31701 0.0
C1476 C 0.27377 0.57937 0.34081 0.0
C1477 C 0.25342 0.5696 0.30885 0.0
H1478 H 0.3049 0.58182 0.3418 0.0
H1479 H 0.10792 0.4874 0.02795 0.0
H1480 H 0.57106 0.74363 0.46184 0.0
H1481 H 0.56872 0.73892 0.33017 0.0
H1482 H 0.53228 0.6701 0.35808 0.0
H1483 H 0.53372 0.67473 0.48934 0.0
H1484 H 0.57787 0.71788 0.22506 0.0
H1485 H 0.48923 0.65039 0.25101 0.0
H1486 H 0.45982 0.63785 0.34094 0.0
H1487 H 0.48627 0.70209 0.42309 0.0
H1488 H 0.5156 0.71505 0.33307 0.0
H1489 H 0.51159 0.65172 0.90991 0.0
H1490 H 0.51353 0.65782 0.04089 0.0
H1491 H 0.54505 0.72626 0.00473 0.0
H1492 H 0.54331 0.7203 0.87376 0.0
H1493 H 0.502 0.68001 0.14134 0.0
H1494 H 0.58988 0.74824 0.11919 0.0
H1495 H 0.62011 0.76224 0.03248 0.0
H1496 H 0.59555 0.69915 0.94219 0.0
H1497 H 0.56555 0.68463 0.02995 0.0
C1498 C 0.56294 0.7275 0.43975 0.0
C1499 C 0.55228 0.70953 0.48528 0.0
C1500 C 0.56172 0.72484 0.36476 0.0
C1501 C 0.54992 0.7042 0.33499 0.0
C1502 C 0.54112 0.68616 0.38049 0.0
C1503 C 0.54209 0.68882 0.45534 0.0
C1504 C 0.54458 0.70164 0.25744 0.0
C1505 C 0.56132 0.70981 0.20658 0.0
C1506 C 0.52293 0.6911 0.23399 0.0
C1507 C 0.50471 0.68362 0.28578 0.0
C1508 C 0.48866 0.66185 0.28789 0.0
C1509 C 0.47203 0.65467 0.33895 0.0
C1510 C 0.47125 0.66915 0.38788 0.0
C1511 C 0.48695 0.69088 0.38535 0.0
C1512 C 0.50356 0.69815 0.33433 0.0
C1513 C 0.51845 0.66801 0.92999 0.0
C1514 C 0.52779 0.68559 0.88248 0.0
C1515 C 0.51946 0.67145 0.00453 0.0
C1516 C 0.52985 0.69247 0.03175 0.0
C1517 C 0.53728 0.70995 0.98417 0.0
C1518 C 0.53628 0.70653 0.90969 0.0
C1519 C 0.53528 0.6961 0.10899 0.0
C1520 C 0.51854 0.68814 0.15981 0.0
C1521 C 0.55695 0.70707 0.1323 0.0
C1522 C 0.57529 0.71542 0.08054 0.0
C1523 C 0.59099 0.73733 0.08109 0.0
C1524 C 0.60809 0.74536 0.03173 0.0
C1525 C 0.60966 0.73162 0.98148 0.0
C1526 C 0.59425 0.70979 0.98093 0.0
C1527 C 0.57721 0.70164 0.03057 0.0
H1528 H 0.62289 0.73788 0.94324 0.0
H1529 H 0.45852 0.66357 0.4278 0.0
loop_
_geom_bond_atom_site_label_1
_geom_bond_atom_site_label_2
_geom_bond_distance
_geom_bond_site_symmetry_2
_ccdc_geom_bond_type
Dy0 O4 2.398 . S
Dy0 O5 2.491 1_554 S
Dy0 O6 2.403 . S
Dy0 O7 2.664 . S
Dy0 O11 2.326 . S
Dy0 O15 2.310 1_554 S
Dy0 O16 2.351 . S
C1 O12 1.185 1_554 S
C1 O13 1.355 . S
C2 O4 1.185 1_556 S
C2 O5 1.355 . S
Dy3 O7 2.310 1_655 S
Dy3 O10 2.351 . S
Dy3 O12 2.398 1_554 S
Dy3 O13 2.491 . S
Dy3 O14 2.403 1_554 S
Dy3 O15 2.664 1_654 S
Dy3 O17 2.326 1_654 S
O4 Dy0 2.398 . S
O4 C2 1.185 1_554 S
O5 Dy0 2.491 1_556 S
O5 C2 1.355 . S
O6 Dy0 2.403 . S
O6 C8 1.254 . S
O7 Dy0 2.664 . S
O7 Dy3 2.310 1_455 S
O7 C8 1.268 . S
C8 O6 1.254 . S
C8 O7 1.268 . S
C9 O14 1.254 1_455 S
C9 O15 1.268 . S
O10 Dy3 2.351 . S
O10 C18 1.249 . S
O11 Dy0 2.326 . S
O11 C18 1.267 1_455 S
O12 C1 1.185 1_556 S
O12 Dy3 2.398 1_556 S
O13 C1 1.355 . S
O13 Dy3 2.491 . S
O14 Dy3 2.403 1_556 S
O14 C9 1.254 1_655 S
O15 Dy0 2.310 1_556 S
O15 Dy3 2.664 1_456 S
O15 C9 1.268 . S
O16 Dy0 2.351 . S
O16 C19 1.249 1_554 S
O17 Dy3 2.326 1_456 S
O17 C19 1.267 . S
C18 O10 1.249 . S
C18 O11 1.267 1_655 S
C19 O16 1.249 1_556 S
C19 O17 1.267 . S
Dy20 O24 2.398 . S
Dy20 O25 2.491 1_554 S
Dy20 O26 2.403 . S
Dy20 O27 2.664 . S
Dy20 O31 2.326 . S
Dy20 O35 2.310 1_554 S
Dy20 O36 2.351 . S
C21 O32 1.185 1_554 S
C21 O33 1.355 . S
C22 O24 1.185 1_556 S
C22 O25 1.355 . S
Dy23 O27 2.310 . S
Dy23 O30 2.351 . S
Dy23 O32 2.398 1_554 S
Dy23 O33 2.491 . S
Dy23 O34 2.403 1_554 S
Dy23 O35 2.664 1_554 S
Dy23 O37 2.326 1_554 S
O24 Dy20 2.398 . S
O24 C22 1.185 1_554 S
O25 Dy20 2.491 1_556 S
O25 C22 1.355 . S
O26 Dy20 2.403 . S
O26 C28 1.254 . S
O27 Dy20 2.664 . S
O27 Dy23 2.310 . S
O27 C28 1.268 . S
C28 O26 1.254 . S
C28 O27 1.268 . S
C29 O34 1.254 . S
C29 O35 1.268 . S
O30 Dy23 2.351 . S
O30 C38 1.249 . S
O31 Dy20 2.326 . S
O31 C38 1.267 . S
O32 C21 1.185 1_556 S
O32 Dy23 2.398 1_556 S
O33 C21 1.355 . S
O33 Dy23 2.491 . S
O34 Dy23 2.403 1_556 S
O34 C29 1.254 . S
O35 Dy20 2.310 1_556 S
O35 Dy23 2.664 1_556 S
O35 C29 1.268 . S
O36 Dy20 2.351 . S
O36 C39 1.249 1_554 S
O37 Dy23 2.326 1_556 S
O37 C39 1.267 . S
C38 O30 1.249 . S
C38 O31 1.267 . S
C39 O36 1.249 1_556 S
C39 O37 1.267 . S
Dy40 O44 2.398 . S
Dy40 O45 2.491 1_554 S
Dy40 O46 2.403 . S
Dy40 O47 2.664 1_565 S
Dy40 O51 2.326 1_565 S
Dy40 O55 2.310 1_564 S
Dy40 O56 2.351 . S
C41 O52 1.185 1_554 S
C41 O53 1.355 . S
C42 O44 1.185 1_556 S
C42 O45 1.355 . S
Dy43 O47 2.310 . S
Dy43 O50 2.351 . S
Dy43 O52 2.398 1_554 S
Dy43 O53 2.491 . S
Dy43 O54 2.403 1_554 S
Dy43 O55 2.664 1_554 S
Dy43 O57 2.326 1_554 S
O44 Dy40 2.398 . S
O44 C42 1.185 1_554 S
O45 Dy40 2.491 1_556 S
O45 C42 1.355 . S
O46 Dy40 2.403 . S
O46 C48 1.254 1_565 S
O47 Dy40 2.664 1_545 S
O47 Dy43 2.310 . S
O47 C48 1.268 . S
C48 O46 1.254 1_545 S
C48 O47 1.268 . S
C49 O54 1.254 . S
C49 O55 1.268 . S
O50 Dy43 2.351 . S
O50 C58 1.249 . S
O51 Dy40 2.326 1_545 S
O51 C58 1.267 . S
O52 C41 1.185 1_556 S
O52 Dy43 2.398 1_556 S
O53 C41 1.355 . S
O53 Dy43 2.491 . S
O54 Dy43 2.403 1_556 S
O54 C49 1.254 . S
O55 Dy40 2.310 1_546 S
O55 Dy43 2.664 1_556 S
O55 C49 1.268 . S
O56 Dy40 2.351 . S
O56 C59 1.249 1_554 S
O57 Dy43 2.326 1_556 S
O57 C59 1.267 1_545 S
C58 O50 1.249 . S
C58 O51 1.267 . S
C59 O56 1.249 1_556 S
C59 O57 1.267 1_565 S
Dy60 O64 2.398 . S
Dy60 O65 2.491 . S
Dy60 O66 2.403 . S
Dy60 O67 2.664 . S
Dy60 O71 2.326 . S
Dy60 O75 2.310 . S
Dy60 O76 2.351 . S
C61 O72 1.185 . S
C61 O73 1.355 . S
C62 O64 1.185 . S
C62 O65 1.355 . S
Dy63 O67 2.310 . S
Dy63 O70 2.351 . S
Dy63 O72 2.398 . S
Dy63 O73 2.491 . S
Dy63 O74 2.403 . S
Dy63 O75 2.664 . S
Dy63 O77 2.326 . S
O64 Dy60 2.398 . S
O64 C62 1.185 . S
O65 Dy60 2.491 . S
O65 C62 1.355 . S
O66 Dy60 2.403 . S
O66 C68 1.254 . S
O67 Dy60 2.664 . S
O67 Dy63 2.310 . S
O67 C68 1.268 . S
C68 O66 1.254 . S
C68 O67 1.268 . S
C69 O74 1.254 . S
C69 O75 1.268 . S
O70 Dy63 2.351 . S
O70 C78 1.249 . S
O71 Dy60 2.326 . S
O71 C78 1.267 . S
O72 C61 1.185 . S
O72 Dy63 2.398 . S
O73 C61 1.355 . S
O73 Dy63 2.491 . S
O74 Dy63 2.403 . S
O74 C69 1.254 . S
O75 Dy60 2.310 . S
O75 Dy63 2.664 . S
O75 C69 1.268 . S
O76 Dy60 2.351 . S
O76 C79 1.249 . S
O77 Dy63 2.326 . S
O77 C79 1.267 . S
C78 O70 1.249 . S
C78 O71 1.267 . S
C79 O76 1.249 . S
C79 O77 1.267 . S
Dy80 O84 2.398 . S
Dy80 O85 2.491 . S
Dy80 O86 2.403 . S
Dy80 O87 2.664 . S
Dy80 O91 2.326 . S
Dy80 O95 2.310 . S
Dy80 O96 2.351 . S
C81 O92 1.185 . S
C81 O93 1.355 . S
C82 O84 1.185 . S
C82 O85 1.355 . S
Dy83 O87 2.310 . S
Dy83 O90 2.351 . S
Dy83 O92 2.398 . S
Dy83 O93 2.491 . S
Dy83 O94 2.403 . S
Dy83 O95 2.664 . S
Dy83 O97 2.326 . S
O84 Dy80 2.398 . S
O84 C82 1.185 . S
O85 Dy80 2.491 . S
O85 C82 1.355 . S
O86 Dy80 2.403 . S
O86 C88 1.254 . S
O87 Dy80 2.664 . S
O87 Dy83 2.310 . S
O87 C88 1.268 . S
C88 O86 1.254 . S
C88 O87 1.268 . S
C89 O94 1.254 . S
C89 O95 1.268 . S
O90 Dy83 2.351 . S
O90 C98 1.249 . S
O91 Dy80 2.326 . S
O91 C98 1.267 . S
O92 C81 1.185 . S
O92 Dy83 2.398 . S
O93 C81 1.355 . S
O93 Dy83 2.491 . S
O94 Dy83 2.403 . S
O94 C89 1.254 . S
O95 Dy80 2.310 . S
O95 Dy83 2.664 . S
O95 C89 1.268 . S
O96 Dy80 2.351 . S
O96 C99 1.249 . S
O97 Dy83 2.326 . S
O97 C99 1.267 . S
C98 O90 1.249 . S
C98 O91 1.267 . S
C99 O96 1.249 . S
C99 O97 1.267 . S
Dy100 O104 2.398 . S
Dy100 O105 2.491 . S
Dy100 O106 2.403 . S
Dy100 O107 2.664 . S
Dy100 O111 2.326 . S
Dy100 O115 2.310 . S
Dy100 O116 2.351 . S
C101 O112 1.185 . S
C101 O113 1.355 . S
C102 O104 1.185 . S
C102 O105 1.355 . S
Dy103 O107 2.310 . S
Dy103 O110 2.351 . S
Dy103 O112 2.398 . S
Dy103 O113 2.491 . S
Dy103 O114 2.403 . S
Dy103 O115 2.664 . S
Dy103 O117 2.326 . S
O104 Dy100 2.398 . S
O104 C102 1.185 . S
O105 Dy100 2.491 . S
O105 C102 1.355 . S
O106 Dy100 2.403 . S
O106 C108 1.254 . S
O107 Dy100 2.664 . S
O107 Dy103 2.310 . S
O107 C108 1.268 . S
C108 O106 1.254 . S
C108 O107 1.268 . S
C109 O114 1.254 . S
C109 O115 1.268 . S
O110 Dy103 2.351 . S
O110 C118 1.249 . S
O111 Dy100 2.326 . S
O111 C118 1.267 . S
O112 C101 1.185 . S
O112 Dy103 2.398 . S
O113 C101 1.355 . S
O113 Dy103 2.491 . S
O114 Dy103 2.403 . S
O114 C109 1.254 . S
O115 Dy100 2.310 . S
O115 Dy103 2.664 . S
O115 C109 1.268 . S
O116 Dy100 2.351 . S
O116 C119 1.249 . S
O117 Dy103 2.326 . S
O117 C119 1.267 . S
C118 O110 1.249 . S
C118 O111 1.267 . S
C119 O116 1.249 . S
C119 O117 1.267 . S
Dy120 O124 2.398 . S
Dy120 O125 2.491 . S
Dy120 O126 2.403 . S
Dy120 O127 2.664 . S
Dy120 O131 2.326 . S
Dy120 O135 2.310 . S
Dy120 O136 2.351 . S
C121 O132 1.185 . S
C121 O133 1.355 . S
C122 O124 1.185 . S
C122 O125 1.355 . S
Dy123 O127 2.310 . S
Dy123 O130 2.351 . S
Dy123 O132 2.398 . S
Dy123 O133 2.491 . S
Dy123 O134 2.403 . S
Dy123 O135 2.664 . S
Dy123 O137 2.326 . S
O124 Dy120 2.398 . S
O124 C122 1.185 . S
O125 Dy120 2.491 . S
O125 C122 1.355 . S
O126 Dy120 2.403 . S
O126 C128 1.254 . S
O127 Dy120 2.664 . S
O127 Dy123 2.310 . S
O127 C128 1.268 . S
C128 O126 1.254 . S
C128 O127 1.268 . S
C129 O134 1.254 . S
C129 O135 1.268 . S
O130 Dy123 2.351 . S
O130 C138 1.249 . S
O131 Dy120 2.326 . S
O131 C138 1.267 . S
O132 C121 1.185 . S
O132 Dy123 2.398 . S
O133 C121 1.355 . S
O133 Dy123 2.491 . S
O134 Dy123 2.403 . S
O134 C129 1.254 . S
O135 Dy120 2.310 . S
O135 Dy123 2.664 . S
O135 C129 1.268 . S
O136 Dy120 2.351 . S
O136 C139 1.249 . S
O137 Dy123 2.326 . S
O137 C139 1.267 . S
C138 O130 1.249 . S
C138 O131 1.267 . S
C139 O136 1.249 . S
C139 O137 1.267 . S
Dy140 O144 2.398 . S
Dy140 O145 2.491 . S
Dy140 O146 2.403 . S
Dy140 O147 2.664 . S
Dy140 O151 2.326 . S
Dy140 O155 2.310 . S
Dy140 O156 2.351 . S
C141 O152 1.185 . S
C141 O153 1.355 . S
C142 O144 1.185 . S
C142 O145 1.355 . S
Dy143 O147 2.310 . S
Dy143 O150 2.351 . S
Dy143 O152 2.398 . S
Dy143 O153 2.491 . S
Dy143 O154 2.403 . S
Dy143 O155 2.664 . S
Dy143 O157 2.326 . S
O144 Dy140 2.398 . S
O144 C142 1.185 . S
O145 Dy140 2.491 . S
O145 C142 1.355 . S
O146 Dy140 2.403 . S
O146 C148 1.254 . S
O147 Dy140 2.664 . S
O147 Dy143 2.310 . S
O147 C148 1.268 . S
C148 O146 1.254 . S
C148 O147 1.268 . S
C149 O154 1.254 . S
C149 O155 1.268 . S
O150 Dy143 2.351 . S
O150 C158 1.249 . S
O151 Dy140 2.326 . S
O151 C158 1.267 . S
O152 C141 1.185 . S
O152 Dy143 2.398 . S
O153 C141 1.355 . S
O153 Dy143 2.491 . S
O154 Dy143 2.403 . S
O154 C149 1.254 . S
O155 Dy140 2.310 . S
O155 Dy143 2.664 . S
O155 C149 1.268 . S
O156 Dy140 2.351 . S
O156 C159 1.249 . S
O157 Dy143 2.326 . S
O157 C159 1.267 . S
C158 O150 1.249 . S
C158 O151 1.267 . S
C159 O156 1.249 . S
C159 O157 1.267 . S
Dy160 O164 2.398 . S
Dy160 O165 2.491 . S
Dy160 O166 2.403 . S
Dy160 O167 2.664 . S
Dy160 O171 2.326 . S
Dy160 O175 2.310 . S
Dy160 O176 2.351 . S
C161 O172 1.185 . S
C161 O173 1.355 . S
C162 O164 1.185 . S
C162 O165 1.355 . S
Dy163 O167 2.310 . S
Dy163 O170 2.351 . S
Dy163 O172 2.398 . S
Dy163 O173 2.491 . S
Dy163 O174 2.403 . S
Dy163 O175 2.664 . S
Dy163 O177 2.326 . S
O164 Dy160 2.398 . S
O164 C162 1.185 . S
O165 Dy160 2.491 . S
O165 C162 1.355 . S
O166 Dy160 2.403 . S
O166 C168 1.254 . S
O167 Dy160 2.664 . S
O167 Dy163 2.310 . S
O167 C168 1.268 . S
C168 O166 1.254 . S
C168 O167 1.268 . S
C169 O174 1.254 . S
C169 O175 1.268 . S
O170 Dy163 2.351 . S
O170 C178 1.249 . S
O171 Dy160 2.326 . S
O171 C178 1.267 . S
O172 C161 1.185 . S
O172 Dy163 2.398 . S
O173 C161 1.355 . S
O173 Dy163 2.491 . S
O174 Dy163 2.403 . S
O174 C169 1.254 . S
O175 Dy160 2.310 . S
O175 Dy163 2.664 . S
O175 C169 1.268 . S
O176 Dy160 2.351 . S
O176 C179 1.249 . S
O177 Dy163 2.326 . S
O177 C179 1.267 . S
C178 O170 1.249 . S
C178 O171 1.267 . S
C179 O176 1.249 . S
C179 O177 1.267 . S
H180 C198 0.951 1_554 S
H181 C200 0.951 . S
H182 C202 0.950 . S
H183 C203 0.950 . S
H184 C205 0.950 . S
H185 C208 0.943 1_556 S
H186 C209 0.950 . S
H187 C211 0.950 . S
H188 C212 0.950 . S
H189 C213 0.951 . S
H190 C215 0.951 . S
H191 C217 0.950 . S
H192 C218 0.950 . S
H193 C220 0.950 . S
H194 C223 0.950 . S
H195 C224 0.950 . S
H196 C226 0.950 . S
H197 C227 0.950 . S
C198 H180 0.951 1_556 S
C198 C199 1.366 . S
C198 C200 1.388 . S
C199 C198 1.366 . S
C199 C203 1.385 . S
C200 H181 0.951 . S
C200 C198 1.388 . S
C200 C201 1.366 . S
C201 C200 1.366 . S
C201 C202 1.414 . S
C201 C204 1.499 . S
C202 H182 0.950 . S
C202 C201 1.414 . S
C202 C203 1.374 . S
C203 H183 0.950 . S
C203 C199 1.385 . S
C203 C202 1.374 . S
C204 C201 1.499 . S
C204 C205 1.373 . S
C204 C206 1.389 . S
C205 H184 0.950 . S
C205 C204 1.373 . S
C205 C221 1.377 . S
C206 C204 1.389 . S
C206 C207 1.524 . S
C206 C220 1.377 . S
C207 C206 1.524 . S
C207 C208 1.395 1_556 S
C207 C212 1.363 1_556 S
C208 H185 0.943 1_554 S
C208 C207 1.395 1_554 S
C208 C209 1.342 . S
C209 H186 0.950 . S
C209 C208 1.342 . S
C209 C210 1.287 . S
C210 C209 1.287 . S
C210 C211 1.524 . S
C210 H229 0.913 . S
C211 H187 0.950 . S
C211 C210 1.524 . S
C211 C212 1.415 . S
C212 H188 0.950 . S
C212 C207 1.363 1_554 S
C212 C211 1.415 . S
C213 H189 0.951 . S
C213 C214 1.366 . S
C213 C215 1.388 . S
C214 C213 1.366 . S
C214 C218 1.385 . S
C215 H190 0.951 . S
C215 C213 1.388 . S
C215 C216 1.366 . S
C216 C215 1.366 . S
C216 C217 1.414 . S
C216 C219 1.499 . S
C217 H191 0.950 . S
C217 C216 1.414 . S
C217 C218 1.374 . S
C218 H192 0.950 . S
C218 C214 1.385 . S
C218 C217 1.374 . S
C219 C216 1.499 . S
C219 C220 1.373 . S
C219 C221 1.389 . S
C220 H193 0.950 . S
C220 C206 1.377 . S
C220 C219 1.373 . S
C221 C205 1.377 . S
C221 C219 1.389 . S
C221 C222 1.524 . S
C222 C221 1.524 . S
C222 C223 1.397 . S
C222 C227 1.363 . S
C223 H194 0.950 . S
C223 C222 1.397 . S
C223 C224 1.334 . S
C224 H195 0.950 . S
C224 C223 1.334 . S
C224 C225 1.287 . S
C225 C224 1.287 . S
C225 C226 1.524 . S
C225 H228 0.999 . S
C226 H196 0.950 . S
C226 C225 1.524 . S
C226 C227 1.415 . S
C227 H197 0.950 . S
C227 C222 1.363 . S
C227 C226 1.415 . S
H228 C225 0.999 . S
H229 C210 0.913 . S
H230 C248 0.951 1_554 S
H231 C250 0.951 . S
H232 C252 0.950 . S
H233 C253 0.950 . S
H234 C255 0.950 . S
H235 C258 0.950 . S
H236 C259 0.950 . S
H237 C261 0.950 . S
H238 C262 0.950 . S
H239 C263 0.951 . S
H240 C265 0.951 . S
H241 C267 0.950 . S
H242 C268 0.950 . S
H243 C270 0.950 . S
H244 C273 0.950 . S
H245 C274 0.950 . S
H246 C276 0.950 . S
H247 C277 0.950 . S
C248 H230 0.951 1_556 S
C248 C249 1.366 . S
C248 C250 1.388 . S
C249 C248 1.366 . S
C249 C253 1.385 . S
C250 H231 0.951 . S
C250 C248 1.388 . S
C250 C251 1.366 . S
C251 C250 1.366 . S
C251 C252 1.414 . S
C251 C254 1.499 . S
C252 H232 0.950 . S
C252 C251 1.414 . S
C252 C253 1.374 . S
C253 H233 0.950 . S
C253 C249 1.385 . S
C253 C252 1.374 . S
C254 C251 1.499 . S
C254 C255 1.373 . S
C254 C256 1.389 . S
C255 H234 0.950 . S
C255 C254 1.373 . S
C255 C271 1.377 . S
C256 C254 1.389 . S
C256 C257 1.524 . S
C256 C270 1.377 . S
C257 C256 1.524 . S
C257 C258 1.397 . S
C257 C262 1.363 . S
C258 H235 0.950 . S
C258 C257 1.397 . S
C258 C259 1.334 . S
C259 H236 0.950 . S
C259 C258 1.334 . S
C259 C260 1.287 . S
C260 C259 1.287 . S
C260 C261 1.524 . S
C260 H279 0.913 . S
C261 H237 0.950 . S
C261 C260 1.524 . S
C261 C262 1.415 . S
C262 H238 0.950 . S
C262 C257 1.363 . S
C262 C261 1.415 . S
C263 H239 0.951 . S
C263 C264 1.366 . S
C263 C265 1.388 . S
C264 C263 1.366 . S
C264 C268 1.385 . S
C265 H240 0.951 . S
C265 C263 1.388 . S
C265 C266 1.366 . S
C266 C265 1.366 . S
C266 C267 1.414 . S
C266 C269 1.499 . S
C267 H241 0.950 . S
C267 C266 1.414 . S
C267 C268 1.374 . S
C268 H242 0.950 . S
C268 C264 1.385 . S
C268 C267 1.374 . S
C269 C266 1.499 . S
C269 C270 1.373 . S
C269 C271 1.389 . S
C270 H243 0.950 . S
C270 C256 1.377 . S
C270 C269 1.373 . S
C271 C255 1.377 . S
C271 C269 1.389 . S
C271 C272 1.524 . S
C272 C271 1.524 . S
C272 C273 1.397 . S
C272 C277 1.363 . S
C273 H244 0.950 . S
C273 C272 1.397 . S
C273 C274 1.334 . S
C274 H245 0.950 . S
C274 C273 1.334 . S
C274 C275 1.287 . S
C275 C274 1.287 . S
C275 C276 1.524 . S
C275 H278 0.999 . S
C276 H246 0.950 . S
C276 C275 1.524 . S
C276 C277 1.415 . S
C277 H247 0.950 . S
C277 C272 1.363 . S
C277 C276 1.415 . S
H278 C275 0.999 . S
H279 C260 0.913 . S
H280 C298 0.951 . S
H281 C300 0.951 . S
H282 C302 0.950 . S
H283 C303 0.950 . S
H284 C305 0.950 . S
H285 C308 0.950 . S
H286 C309 0.950 . S
H287 C311 0.950 . S
H288 C312 0.950 1_556 S
H289 C313 0.951 . S
H290 C315 0.951 . S
H291 C317 0.950 . S
H292 C318 0.950 . S
H293 C320 0.950 . S
H294 C323 0.950 . S
H295 C324 0.950 . S
H296 C326 0.950 . S
H297 C327 0.950 . S
C298 H280 0.951 . S
C298 C299 1.366 . S
C298 C300 1.388 . S
C299 C298 1.366 . S
C299 C303 1.385 . S
C300 H281 0.951 . S
C300 C298 1.388 . S
C300 C301 1.366 . S
C301 C300 1.366 . S
C301 C302 1.414 . S
C301 C304 1.499 . S
C302 H282 0.950 . S
C302 C301 1.414 . S
C302 C303 1.374 . S
C303 H283 0.950 . S
C303 C299 1.385 . S
C303 C302 1.374 . S
C304 C301 1.499 . S
C304 C305 1.373 . S
C304 C306 1.389 . S
C305 H284 0.950 . S
C305 C304 1.373 . S
C305 C321 1.377 . S
C306 C304 1.389 . S
C306 C307 1.524 . S
C306 C320 1.377 . S
C307 C306 1.524 . S
C307 C308 1.397 1_556 S
C307 C312 1.363 1_556 S
C308 H285 0.950 . S
C308 C307 1.397 1_554 S
C308 C309 1.334 . S
C309 H286 0.950 . S
C309 C308 1.334 . S
C309 C310 1.287 . S
C310 C309 1.287 . S
C310 C311 1.524 . S
C310 H329 0.913 . S
C311 H287 0.950 . S
C311 C310 1.524 . S
C311 C312 1.415 . S
C312 H288 0.950 1_554 S
C312 C307 1.363 1_554 S
C312 C311 1.415 . S
C313 H289 0.951 . S
C313 C314 1.366 . S
C313 C315 1.388 . S
C314 C313 1.366 . S
C314 C318 1.385 . S
C315 H290 0.951 . S
C315 C313 1.388 . S
C315 C316 1.366 . S
C316 C315 1.366 . S
C316 C317 1.414 . S
C316 C319 1.499 . S
C317 H291 0.950 . S
C317 C316 1.414 . S
C317 C318 1.374 . S
C318 H292 0.950 . S
C318 C314 1.385 . S
C318 C317 1.374 . S
C319 C316 1.499 . S
C319 C320 1.373 . S
C319 C321 1.389 . S
C320 H293 0.950 . S
C320 C306 1.377 . S
C320 C319 1.373 . S
C321 C305 1.377 . S
C321 C319 1.389 . S
C321 C322 1.524 . S
C322 C321 1.524 . S
C322 C323 1.397 . S
C322 C327 1.363 . S
C323 H294 0.950 . S
C323 C322 1.397 . S
C323 C324 1.334 . S
C324 H295 0.950 . S
C324 C323 1.334 . S
C324 C325 1.287 . S
C325 C324 1.287 . S
C325 C326 1.524 . S
C325 H328 0.999 . S
C326 H296 0.950 . S
C326 C325 1.524 . S
C326 C327 1.415 . S
C327 H297 0.950 . S
C327 C322 1.363 . S
C327 C326 1.415 . S
H328 C325 0.999 . S
H329 C310 0.913 . S
H330 C348 0.951 . S
H331 C350 0.951 . S
H332 C352 0.950 . S
H333 C353 0.950 . S
H334 C355 0.950 . S
H335 C358 0.950 . S
H336 C359 0.950 . S
H337 C361 0.950 . S
H338 C362 0.950 . S
H339 C363 0.951 . S
H340 C365 0.951 . S
H341 C367 0.950 . S
H342 C368 0.950 . S
H343 C370 0.950 . S
H344 C373 0.950 . S
H345 C374 0.950 . S
H346 C376 0.950 . S
H347 C377 0.950 . S
C348 H330 0.951 . S
C348 C349 1.366 . S
C348 C350 1.388 . S
C349 C348 1.366 . S
C349 C353 1.385 . S
C350 H331 0.951 . S
C350 C348 1.388 . S
C350 C351 1.366 . S
C351 C350 1.366 . S
C351 C352 1.414 . S
C351 C354 1.499 . S
C352 H332 0.950 . S
C352 C351 1.414 . S
C352 C353 1.374 . S
C353 H333 0.950 . S
C353 C349 1.385 . S
C353 C352 1.374 . S
C354 C351 1.499 . S
C354 C355 1.373 . S
C354 C356 1.389 . S
C355 H334 0.950 . S
C355 C354 1.373 . S
C355 C371 1.377 . S
C356 C354 1.389 . S
C356 C357 1.524 . S
C356 C370 1.377 . S
C357 C356 1.524 . S
C357 C358 1.397 . S
C357 C362 1.363 . S
C358 H335 0.950 . S
C358 C357 1.397 . S
C358 C359 1.334 . S
C359 H336 0.950 . S
C359 C358 1.334 . S
C359 C360 1.287 . S
C360 C359 1.287 . S
C360 C361 1.524 . S
C360 H379 0.913 . S
C361 H337 0.950 . S
C361 C360 1.524 . S
C361 C362 1.415 . S
C362 H338 0.950 . S
C362 C357 1.363 . S
C362 C361 1.415 . S
C363 H339 0.951 . S
C363 C364 1.366 . S
C363 C365 1.388 . S
C364 C363 1.366 . S
C364 C368 1.385 . S
C365 H340 0.951 . S
C365 C363 1.388 . S
C365 C366 1.366 . S
C366 C365 1.366 . S
C366 C367 1.414 . S
C366 C369 1.499 . S
C367 H341 0.950 . S
C367 C366 1.414 . S
C367 C368 1.374 . S
C368 H342 0.950 . S
C368 C364 1.385 . S
C368 C367 1.374 . S
C369 C366 1.499 . S
C369 C370 1.373 . S
C369 C371 1.389 . S
C370 H343 0.950 . S
C370 C356 1.377 . S
C370 C369 1.373 . S
C371 C355 1.377 . S
C371 C369 1.389 . S
C371 C372 1.524 . S
C372 C371 1.524 . S
C372 C373 1.397 1_554 S
C372 C377 1.363 . S
C373 H344 0.950 . S
C373 C372 1.397 1_556 S
C373 C374 1.334 . S
C374 H345 0.950 . S
C374 C373 1.334 . S
C374 C375 1.287 . S
C375 C374 1.287 . S
C375 C376 1.524 1_556 S
C375 H378 0.999 . S
C376 H346 0.950 . S
C376 C375 1.524 1_554 S
C376 C377 1.415 . S
C377 H347 0.950 . S
C377 C372 1.363 . S
C377 C376 1.415 . S
H378 C375 0.999 . S
H379 C360 0.913 . S
H380 C398 0.951 . S
H381 C400 0.951 . S
H382 C402 0.950 . S
H383 C403 0.950 . S
H384 C405 0.950 . S
H385 C408 0.950 . S
H386 C409 0.950 . S
H387 C411 0.950 . S
H388 C412 0.950 . S
H389 C413 0.951 1_455 S
H390 C415 0.951 . S
H391 C417 0.950 . S
H392 C418 0.950 . S
H393 C420 0.950 . S
H394 C423 0.950 . S
H395 C424 0.950 . S
H396 C426 0.950 . S
H397 C427 0.950 . S
C398 H380 0.951 . S
C398 C399 1.366 . S
C398 C400 1.388 . S
C399 C398 1.366 . S
C399 C403 1.385 . S
C400 H381 0.951 . S
C400 C398 1.388 . S
C400 C401 1.366 . S
C401 C400 1.366 . S
C401 C402 1.414 . S
C401 C404 1.499 . S
C402 H382 0.950 . S
C402 C401 1.414 . S
C402 C403 1.374 . S
C403 H383 0.950 . S
C403 C399 1.385 . S
C403 C402 1.374 . S
C404 C401 1.499 . S
C404 C405 1.373 . S
C404 C406 1.389 . S
C405 H384 0.950 . S
C405 C404 1.373 . S
C405 C421 1.377 . S
C406 C404 1.389 . S
C406 C407 1.524 . S
C406 C420 1.377 . S
C407 C406 1.524 . S
C407 C408 1.397 . S
C407 C412 1.363 . S
C408 H385 0.950 . S
C408 C407 1.397 . S
C408 C409 1.334 . S
C409 H386 0.950 . S
C409 C408 1.334 . S
C409 C410 1.287 . S
C410 C409 1.287 . S
C410 C411 1.524 . S
C410 H429 0.913 . S
C411 H387 0.950 . S
C411 C410 1.524 . S
C411 C412 1.415 . S
C412 H388 0.950 . S
C412 C407 1.363 . S
C412 C411 1.415 . S
C413 H389 0.951 1_655 S
C413 C414 1.366 . S
C413 C415 1.388 . S
C414 C413 1.366 . S
C414 C418 1.385 . S
C415 H390 0.951 . S
C415 C413 1.388 . S
C415 C416 1.366 . S
C416 C415 1.366 . S
C416 C417 1.414 . S
C416 C419 1.499 . S
C417 H391 0.950 . S
C417 C416 1.414 . S
C417 C418 1.374 . S
C418 H392 0.950 . S
C418 C414 1.385 . S
C418 C417 1.374 . S
C419 C416 1.499 . S
C419 C420 1.373 . S
C419 C421 1.389 . S
C420 H393 0.950 . S
C420 C406 1.377 . S
C420 C419 1.373 . S
C421 C405 1.377 . S
C421 C419 1.389 . S
C421 C422 1.524 . S
C422 C421 1.524 . S
C422 C423 1.397 1_554 S
C422 C427 1.363 . S
C423 H394 0.950 . S
C423 C422 1.397 1_556 S
C423 C424 1.334 . S
C424 H395 0.950 . S
C424 C423 1.334 . S
C424 C425 1.287 1_655 S
C425 C424 1.287 1_455 S
C425 C426 1.524 1_556 S
C425 H428 0.999 . S
C426 H396 0.950 . S
C426 C425 1.524 1_554 S
C426 C427 1.415 1_455 S
C427 H397 0.950 . S
C427 C422 1.363 . S
C427 C426 1.415 1_655 S
H428 C425 0.999 . S
H429 C410 0.913 . S
H430 C448 0.951 . S
H431 C450 0.951 . S
H432 C452 0.950 . S
H433 C453 0.950 . S
H434 C455 0.950 . S
H435 C458 0.950 . S
H436 C459 0.950 . S
H437 C461 0.950 . S
H438 C462 0.950 . S
H439 C463 0.951 . S
H440 C465 0.951 . S
H441 C467 0.950 . S
H442 C468 0.950 . S
H443 C470 0.950 . S
H444 C473 0.950 . S
H445 C474 0.950 . S
H446 C476 0.950 . S
H447 C477 0.950 . S
C448 H430 0.951 . S
C448 C449 1.366 . S
C448 C450 1.388 . S
C449 C448 1.366 . S
C449 C453 1.385 . S
C450 H431 0.951 . S
C450 C448 1.388 . S
C450 C451 1.366 . S
C451 C450 1.366 . S
C451 C452 1.414 . S
C451 C454 1.499 . S
C452 H432 0.950 . S
C452 C451 1.414 . S
C452 C453 1.374 . S
C453 H433 0.950 . S
C453 C449 1.385 . S
C453 C452 1.374 . S
C454 C451 1.499 . S
C454 C455 1.373 . S
C454 C456 1.389 . S
C455 H434 0.950 . S
C455 C454 1.373 . S
C455 C471 1.377 . S
C456 C454 1.389 . S
C456 C457 1.524 . S
C456 C470 1.377 . S
C457 C456 1.524 . S
C457 C458 1.397 . S
C457 C462 1.363 . S
C458 H435 0.950 . S
C458 C457 1.397 . S
C458 C459 1.334 . S
C459 H436 0.950 . S
C459 C458 1.334 . S
C459 C460 1.287 . S
C460 C459 1.287 . S
C460 C461 1.524 . S
C460 H479 0.913 . S
C461 H437 0.950 . S
C461 C460 1.524 . S
C461 C462 1.415 . S
C462 H438 0.950 . S
C462 C457 1.363 . S
C462 C461 1.415 . S
C463 H439 0.951 . S
C463 C464 1.366 . S
C463 C465 1.388 . S
C464 C463 1.366 . S
C464 C468 1.385 . S
C465 H440 0.951 . S
C465 C463 1.388 . S
C465 C466 1.366 . S
C466 C465 1.366 . S
C466 C467 1.414 . S
C466 C469 1.499 . S
C467 H441 0.950 . S
C467 C466 1.414 . S
C467 C468 1.374 . S
C468 H442 0.950 . S
C468 C464 1.385 . S
C468 C467 1.374 . S
C469 C466 1.499 . S
C469 C470 1.373 . S
C469 C471 1.389 . S
C470 H443 0.950 . S
C470 C456 1.377 . S
C470 C469 1.373 . S
C471 C455 1.377 . S
C471 C469 1.389 . S
C471 C472 1.524 . S
C472 C471 1.524 . S
C472 C473 1.397 . S
C472 C477 1.363 . S
C473 H444 0.950 . S
C473 C472 1.397 . S
C473 C474 1.334 . S
C474 H445 0.950 . S
C474 C473 1.334 . S
C474 C475 1.287 . S
C475 C474 1.287 . S
C475 C476 1.524 . S
C475 H478 0.999 . S
C476 H446 0.950 . S
C476 C475 1.524 . S
C476 C477 1.415 . S
C477 H447 0.950 . S
C477 C472 1.363 . S
C477 C476 1.415 . S
H478 C475 0.999 . S
H479 C460 0.913 . S
H480 C498 0.951 . S
H481 C500 0.951 . S
H482 C502 0.950 . S
H483 C503 0.950 . S
H484 C505 0.950 . S
H485 C508 0.950 . S
H486 C509 0.950 . S
H487 C511 0.950 . S
H488 C512 0.950 . S
H489 C513 0.951 . S
H490 C515 0.951 . S
H491 C517 0.950 . S
H492 C518 0.950 . S
H493 C520 0.950 . S
H494 C523 0.950 . S
H495 C524 0.950 . S
H496 C526 0.950 . S
H497 C527 0.950 . S
C498 H480 0.951 . S
C498 C499 1.366 . S
C498 C500 1.388 . S
C499 C498 1.366 . S
C499 C503 1.385 . S
C500 H481 0.951 . S
C500 C498 1.388 . S
C500 C501 1.366 . S
C501 C500 1.366 . S
C501 C502 1.414 . S
C501 C504 1.499 . S
C502 H482 0.950 . S
C502 C501 1.414 . S
C502 C503 1.374 . S
C503 H483 0.950 . S
C503 C499 1.385 . S
C503 C502 1.374 . S
C504 C501 1.499 . S
C504 C505 1.373 . S
C504 C506 1.389 . S
C505 H484 0.950 . S
C505 C504 1.373 . S
C505 C521 1.377 1_455 S
C506 C504 1.389 . S
C506 C507 1.524 . S
C506 C520 1.377 1_455 S
C507 C506 1.524 . S
C507 C508 1.397 . S
C507 C512 1.363 . S
C508 H485 0.950 . S
C508 C507 1.397 . S
C508 C509 1.334 . S
C509 H486 0.950 . S
C509 C508 1.334 . S
C509 C510 1.287 . S
C510 C509 1.287 . S
C510 C511 1.524 . S
C510 H529 0.913 . S
C511 H487 0.950 . S
C511 C510 1.524 . S
C511 C512 1.415 . S
C512 H488 0.950 . S
C512 C507 1.363 . S
C512 C511 1.415 . S
C513 H489 0.951 . S
C513 C514 1.366 . S
C513 C515 1.388 . S
C514 C513 1.366 . S
C514 C518 1.385 . S
C515 H490 0.951 . S
C515 C513 1.388 . S
C515 C516 1.366 . S
C516 C515 1.366 . S
C516 C517 1.414 . S
C516 C519 1.499 . S
C517 H491 0.950 . S
C517 C516 1.414 . S
C517 C518 1.374 . S
C518 H492 0.950 . S
C518 C514 1.385 . S
C518 C517 1.374 . S
C519 C516 1.499 . S
C519 C520 1.373 . S
C519 C521 1.389 . S
C520 H493 0.950 . S
C520 C506 1.377 1_655 S
C520 C519 1.373 . S
C521 C505 1.377 1_655 S
C521 C519 1.389 . S
C521 C522 1.524 . S
C522 C521 1.524 . S
C522 C523 1.397 . S
C522 C527 1.363 . S
C523 H494 0.950 . S
C523 C522 1.397 . S
C523 C524 1.334 . S
C524 H495 0.950 . S
C524 C523 1.334 . S
C524 C525 1.287 . S
C525 C524 1.287 . S
C525 C526 1.524 . S
C525 H528 0.999 . S
C526 H496 0.950 . S
C526 C525 1.524 . S
C526 C527 1.415 . S
C527 H497 0.950 . S
C527 C522 1.363 . S
C527 C526 1.415 . S
H528 C525 0.999 . S
H529 C510 0.913 . S
H530 C548 0.951 . S
H531 C550 0.951 . S
H532 C552 0.950 . S
H533 C553 0.950 . S
H534 C555 0.950 . S
H535 C558 0.950 . S
H536 C559 0.950 . S
H537 C561 0.950 . S
H538 C562 0.950 . S
H539 C563 0.951 . S
H540 C565 0.951 . S
H541 C567 0.950 . S
H542 C568 0.950 . S
H543 C570 0.950 . S
H544 C573 0.950 . S
H545 C574 0.950 . S
H546 C576 0.950 . S
H547 C577 0.950 . S
C548 H530 0.951 . S
C548 C549 1.366 . S
C548 C550 1.388 . S
C549 C548 1.366 . S
C549 C553 1.385 . S
C550 H531 0.951 . S
C550 C548 1.388 . S
C550 C551 1.366 . S
C551 C550 1.366 . S
C551 C552 1.414 . S
C551 C554 1.499 . S
C552 H532 0.950 . S
C552 C551 1.414 . S
C552 C553 1.374 . S
C553 H533 0.950 . S
C553 C549 1.385 . S
C553 C552 1.374 . S
C554 C551 1.499 . S
C554 C555 1.373 . S
C554 C556 1.389 . S
C555 H534 0.950 . S
C555 C554 1.373 . S
C555 C571 1.377 . S
C556 C554 1.389 . S
C556 C557 1.524 . S
C556 C570 1.377 . S
C557 C556 1.524 . S
C557 C558 1.397 . S
C557 C562 1.363 . S
C558 H535 0.950 . S
C558 C557 1.397 . S
C558 C559 1.334 . S
C559 H536 0.950 . S
C559 C558 1.334 . S
C559 C560 1.287 . S
C560 C559 1.287 . S
C560 C561 1.524 . S
C560 H579 0.913 . S
C561 H537 0.950 . S
C561 C560 1.524 . S
C561 C562 1.415 . S
C562 H538 0.950 . S
C562 C557 1.363 . S
C562 C561 1.415 . S
C563 H539 0.951 . S
C563 C564 1.366 . S
C563 C565 1.388 . S
C564 C563 1.366 . S
C564 C568 1.385 . S
C565 H540 0.951 . S
C565 C563 1.388 . S
C565 C566 1.366 . S
C566 C565 1.366 . S
C566 C567 1.414 . S
C566 C569 1.499 . S
C567 H541 0.950 . S
C567 C566 1.414 . S
C567 C568 1.374 . S
C568 H542 0.950 . S
C568 C564 1.385 . S
C568 C567 1.374 . S
C569 C566 1.499 . S
C569 C570 1.373 . S
C569 C571 1.389 . S
C570 H543 0.950 . S
C570 C556 1.377 . S
C570 C569 1.373 . S
C571 C555 1.377 . S
C571 C569 1.389 . S
C571 C572 1.524 . S
C572 C571 1.524 . S
C572 C573 1.397 . S
C572 C577 1.363 . S
C573 H544 0.950 . S
C573 C572 1.397 . S
C573 C574 1.334 . S
C574 H545 0.950 . S
C574 C573 1.334 . S
C574 C575 1.287 . S
C575 C574 1.287 . S
C575 C576 1.524 . S
C575 H578 0.999 . S
C576 H546 0.950 . S
C576 C575 1.524 . S
C576 C577 1.415 . S
C577 H547 0.950 . S
C577 C572 1.363 . S
C577 C576 1.415 . S
H578 C575 0.999 . S
H579 C560 0.913 . S
H580 C598 0.951 . S
H581 C600 0.951 . S
H582 C602 0.950 . S
H583 C603 0.950 . S
H584 C605 0.950 . S
H585 C608 0.950 . S
H586 C609 0.950 . S
H587 C611 0.950 . S
H588 C612 0.950 . S
H589 C613 0.951 . S
H590 C615 0.908 1_545 S
H591 C617 0.950 . S
H592 C618 0.950 . S
H593 C620 0.950 . S
H594 C623 0.950 . S
H595 C624 0.910 1_565 S
H596 C626 0.950 . S
H597 C627 0.950 . S
C598 H580 0.951 . S
C598 C599 1.366 . S
C598 C600 1.388 . S
C599 C598 1.366 . S
C599 C603 1.385 . S
C600 H581 0.951 . S
C600 C598 1.388 . S
C600 C601 1.366 . S
C601 C600 1.366 . S
C601 C602 1.414 . S
C601 C604 1.499 . S
C602 H582 0.950 . S
C602 C601 1.414 . S
C602 C603 1.374 . S
C603 H583 0.950 . S
C603 C599 1.385 . S
C603 C602 1.374 . S
C604 C601 1.499 . S
C604 C605 1.373 . S
C604 C606 1.389 . S
C605 H584 0.950 . S
C605 C604 1.373 . S
C605 C621 1.377 . S
C606 C604 1.389 . S
C606 C607 1.524 . S
C606 C620 1.377 . S
C607 C606 1.524 . S
C607 C608 1.397 . S
C607 C612 1.363 . S
C608 H585 0.950 . S
C608 C607 1.397 . S
C608 C609 1.334 . S
C609 H586 0.950 . S
C609 C608 1.334 . S
C609 C610 1.287 . S
C610 C609 1.287 . S
C610 C611 1.524 . S
C610 H629 0.913 . S
C611 H587 0.950 . S
C611 C610 1.524 . S
C611 C612 1.415 . S
C612 H588 0.950 . S
C612 C607 1.363 . S
C612 C611 1.415 . S
C613 H589 0.951 . S
C613 C614 1.366 . S
C613 C615 1.388 . S
C614 C613 1.366 . S
C614 C618 1.385 . S
C615 H590 0.908 1_565 S
C615 C613 1.388 . S
C615 C616 1.366 . S
C616 C615 1.366 . S
C616 C617 1.414 . S
C616 C619 1.499 1_565 S
C617 H591 0.950 . S
C617 C616 1.414 . S
C617 C618 1.374 . S
C618 H592 0.950 . S
C618 C614 1.385 . S
C618 C617 1.374 . S
C619 C616 1.499 1_545 S
C619 C620 1.373 . S
C619 C621 1.389 . S
C620 H593 0.950 . S
C620 C606 1.377 . S
C620 C619 1.373 . S
C621 C605 1.377 . S
C621 C619 1.389 . S
C621 C622 1.524 . S
C622 C621 1.524 . S
C622 C623 1.397 . S
C622 C627 1.363 . S
C623 H594 0.950 . S
C623 C622 1.397 . S
C623 C624 1.334 . S
C624 H595 0.910 1_545 S
C624 C623 1.334 . S
C624 C625 1.287 . S
C625 C624 1.287 . S
C625 C626 1.524 . S
C625 H628 0.999 . S
C626 H596 0.950 . S
C626 C625 1.524 . S
C626 C627 1.415 . S
C627 H597 0.950 . S
C627 C622 1.363 . S
C627 C626 1.415 . S
H628 C625 0.999 . S
H629 C610 0.913 . S
H630 C648 0.951 1_556 S
H631 C650 0.951 1_556 S
H632 C652 0.950 . S
H633 C653 0.950 . S
H634 C655 0.950 . S
H635 C658 0.950 . S
H636 C659 0.950 . S
H637 C661 0.950 . S
H638 C662 0.950 . S
H639 C663 0.951 . S
H640 C665 0.951 . S
H641 C667 0.950 . S
H642 C668 0.950 . S
H643 C670 0.950 . S
H644 C673 0.950 . S
H645 C674 0.950 . S
H646 C676 0.950 . S
H647 C677 0.950 . S
C648 H630 0.951 1_554 S
C648 C649 1.366 . S
C648 C650 1.388 . S
C649 C648 1.366 . S
C649 C653 1.385 . S
C650 H631 0.951 1_554 S
C650 C648 1.388 . S
C650 C651 1.366 . S
C651 C650 1.366 . S
C651 C652 1.414 . S
C651 C654 1.499 . S
C652 H632 0.950 . S
C652 C651 1.414 . S
C652 C653 1.374 . S
C653 H633 0.950 . S
C653 C649 1.385 . S
C653 C652 1.374 . S
C654 C651 1.499 . S
C654 C655 1.373 1_554 S
C654 C656 1.389 . S
C655 H634 0.950 . S
C655 C654 1.373 1_556 S
C655 C671 1.377 . S
C656 C654 1.389 . S
C656 C657 1.524 . S
C656 C670 1.377 . S
C657 C656 1.524 . S
C657 C658 1.397 . S
C657 C662 1.363 . S
C658 H635 0.950 . S
C658 C657 1.397 . S
C658 C659 1.334 . S
C659 H636 0.950 . S
C659 C658 1.334 . S
C659 C660 1.287 . S
C660 C659 1.287 . S
C660 C661 1.524 . S
C660 H679 0.913 . S
C661 H637 0.950 . S
C661 C660 1.524 . S
C661 C662 1.415 . S
C662 H638 0.950 . S
C662 C657 1.363 . S
C662 C661 1.415 . S
C663 H639 0.951 . S
C663 C664 1.366 . S
C663 C665 1.388 . S
C664 C663 1.366 . S
C664 C668 1.385 1_554 S
C665 H640 0.951 . S
C665 C663 1.388 . S
C665 C666 1.366 . S
C666 C665 1.366 . S
C666 C667 1.414 1_554 S
C666 C669 1.499 . S
C667 H641 0.950 . S
C667 C666 1.414 1_556 S
C667 C668 1.374 . S
C668 H642 0.950 . S
C668 C664 1.385 1_556 S
C668 C667 1.374 . S
C669 C666 1.499 . S
C669 C670 1.373 . S
C669 C671 1.389 1_554 S
C670 H643 0.950 . S
C670 C656 1.377 . S
C670 C669 1.373 . S
C671 C655 1.377 . S
C671 C669 1.389 1_556 S
C671 C672 1.524 . S
C672 C671 1.524 . S
C672 C673 1.397 . S
C672 C677 1.363 . S
C673 H644 0.950 . S
C673 C672 1.397 . S
C673 C674 1.334 . S
C674 H645 0.950 . S
C674 C673 1.334 . S
C674 C675 1.287 . S
C675 C674 1.287 . S
C675 C676 1.524 . S
C675 H678 0.999 . S
C676 H646 0.950 . S
C676 C675 1.524 . S
C676 C677 1.415 . S
C677 H647 0.950 . S
C677 C672 1.363 . S
C677 C676 1.415 . S
H678 C675 0.999 . S
H679 C660 0.913 . S
H680 C698 0.951 . S
H681 C700 0.951 . S
H682 C702 0.950 . S
H683 C703 0.950 . S
H684 C705 0.950 . S
H685 C708 0.951 1_556 S
H686 C709 0.950 . S
H687 C711 0.950 . S
H688 C712 0.950 . S
H689 C713 0.951 . S
H690 C715 0.951 . S
H691 C717 0.950 . S
H692 C718 0.950 . S
H693 C720 0.950 . S
H694 C723 0.950 1_554 S
H695 C724 0.950 . S
H696 C726 0.950 . S
H697 C727 0.950 . S
C698 H680 0.951 . S
C698 C699 1.366 . S
C698 C700 1.388 . S
C699 C698 1.366 . S
C699 C703 1.385 1_554 S
C700 H681 0.951 . S
C700 C698 1.388 . S
C700 C701 1.366 . S
C701 C700 1.366 . S
C701 C702 1.414 1_554 S
C701 C704 1.499 . S
C702 H682 0.950 . S
C702 C701 1.414 1_556 S
C702 C703 1.374 . S
C703 H683 0.950 . S
C703 C699 1.385 1_556 S
C703 C702 1.374 . S
C704 C701 1.499 . S
C704 C705 1.373 1_554 S
C704 C706 1.389 . S
C705 H684 0.950 . S
C705 C704 1.373 1_556 S
C705 C721 1.377 1_565 S
C706 C704 1.389 . S
C706 C707 1.524 . S
C706 C720 1.377 1_565 S
C707 C706 1.524 . S
C707 C708 1.397 . S
C707 C712 1.363 . S
C708 H685 0.951 1_554 S
C708 C707 1.397 . S
C708 C709 1.334 . S
C709 H686 0.950 . S
C709 C708 1.334 . S
C709 C710 1.287 . S
C710 C709 1.287 . S
C710 C711 1.524 . S
C710 H729 0.913 . S
C711 H687 0.950 . S
C711 C710 1.524 . S
C711 C712 1.415 . S
C712 H688 0.950 . S
C712 C707 1.363 . S
C712 C711 1.415 . S
C713 H689 0.951 . S
C713 C714 1.366 1_556 S
C713 C715 1.388 . S
C714 C713 1.366 1_554 S
C714 C718 1.385 . S
C715 H690 0.951 . S
C715 C713 1.388 . S
C715 C716 1.366 1_556 S
C716 C715 1.366 1_554 S
C716 C717 1.414 . S
C716 C719 1.499 . S
C717 H691 0.950 . S
C717 C716 1.414 . S
C717 C718 1.374 . S
C718 H692 0.950 . S
C718 C714 1.385 . S
C718 C717 1.374 . S
C719 C716 1.499 . S
C719 C720 1.373 . S
C719 C721 1.389 1_554 S
C720 H693 0.950 . S
C720 C706 1.377 1_545 S
C720 C719 1.373 . S
C721 C705 1.377 1_545 S
C721 C719 1.389 1_556 S
C721 C722 1.524 . S
C722 C721 1.524 . S
C722 C723 1.397 . S
C722 C727 1.363 . S
C723 H694 0.950 1_556 S
C723 C722 1.397 . S
C723 C724 1.334 1_655 S
C724 H695 0.950 . S
C724 C723 1.334 1_455 S
C724 C725 1.287 . S
C725 C724 1.287 . S
C725 C726 1.524 1_455 S
C725 H728 0.999 . S
C726 H696 0.950 . S
C726 C725 1.524 1_655 S
C726 C727 1.415 . S
C727 H697 0.950 . S
C727 C722 1.363 . S
C727 C726 1.415 . S
H728 C725 0.999 . S
H729 C710 0.913 . S
H730 C748 0.951 . S
H731 C750 0.951 . S
H732 C752 0.950 . S
H733 C753 0.950 . S
H734 C755 0.950 . S
H735 C758 0.950 1_655 S
H736 C759 0.950 . S
H737 C761 0.950 . S
H738 C762 0.950 . S
H739 C763 0.951 . S
H740 C765 0.951 . S
H741 C767 0.950 . S
H742 C768 0.950 . S
H743 C770 0.950 . S
H744 C773 0.950 . S
H745 C774 0.950 . S
H746 C776 0.950 . S
H747 C777 0.950 . S
C748 H730 0.951 . S
C748 C749 1.366 . S
C748 C750 1.388 . S
C749 C748 1.366 . S
C749 C753 1.385 1_554 S
C750 H731 0.951 . S
C750 C748 1.388 . S
C750 C751 1.366 . S
C751 C750 1.366 . S
C751 C752 1.414 1_554 S
C751 C754 1.499 1_655 S
C752 H732 0.950 . S
C752 C751 1.414 1_556 S
C752 C753 1.374 . S
C753 H733 0.950 . S
C753 C749 1.385 1_556 S
C753 C752 1.374 . S
C754 C751 1.499 1_455 S
C754 C755 1.373 1_554 S
C754 C756 1.389 . S
C755 H734 0.950 . S
C755 C754 1.373 1_556 S
C755 C771 1.377 . S
C756 C754 1.389 . S
C756 C757 1.524 . S
C756 C770 1.377 . S
C757 C756 1.524 . S
C757 C758 1.397 . S
C757 C762 1.363 . S
C758 H735 0.950 1_455 S
C758 C757 1.397 . S
C758 C759 1.334 1_455 S
C759 H736 0.950 . S
C759 C758 1.334 1_655 S
C759 C760 1.287 . S
C760 C759 1.287 . S
C760 C761 1.524 1_655 S
C760 H779 0.913 . S
C761 H737 0.950 . S
C761 C760 1.524 1_455 S
C761 C762 1.415 . S
C762 H738 0.950 . S
C762 C757 1.363 . S
C762 C761 1.415 . S
C763 H739 0.951 . S
C763 C764 1.366 1_556 S
C763 C765 1.388 . S
C764 C763 1.366 1_554 S
C764 C768 1.385 . S
C765 H740 0.951 . S
C765 C763 1.388 . S
C765 C766 1.366 1_556 S
C766 C765 1.366 1_554 S
C766 C767 1.414 . S
C766 C769 1.499 . S
C767 H741 0.950 . S
C767 C766 1.414 . S
C767 C768 1.374 . S
C768 H742 0.950 . S
C768 C764 1.385 . S
C768 C767 1.374 . S
C769 C766 1.499 . S
C769 C770 1.373 . S
C769 C771 1.389 1_554 S
C770 H743 0.950 . S
C770 C756 1.377 . S
C770 C769 1.373 . S
C771 C755 1.377 . S
C771 C769 1.389 1_556 S
C771 C772 1.524 . S
C772 C771 1.524 . S
C772 C773 1.397 . S
C772 C777 1.363 . S
C773 H744 0.950 . S
C773 C772 1.397 . S
C773 C774 1.334 . S
C774 H745 0.950 . S
C774 C773 1.334 . S
C774 C775 1.287 . S
C775 C774 1.287 . S
C775 C776 1.524 . S
C775 H778 0.999 . S
C776 H746 0.950 . S
C776 C775 1.524 . S
C776 C777 1.415 . S
C777 H747 0.950 . S
C777 C772 1.363 . S
C777 C776 1.415 . S
H778 C775 0.999 . S
H779 C760 0.913 . S
H780 C798 0.951 . S
H781 C800 0.951 . S
H782 C802 0.950 . S
H783 C803 0.950 . S
H784 C805 0.950 . S
H785 C808 0.950 . S
H786 C809 0.950 . S
H787 C811 0.950 . S
H788 C812 0.950 . S
H789 C813 0.951 . S
H790 C815 0.951 . S
H791 C817 0.950 . S
H792 C818 0.950 . S
H793 C820 0.950 . S
H794 C823 0.950 . S
H795 C824 0.950 . S
H796 C826 0.950 . S
H797 C827 0.950 . S
C798 H780 0.951 . S
C798 C799 1.366 . S
C798 C800 1.388 . S
C799 C798 1.366 . S
C799 C803 1.385 . S
C800 H781 0.951 . S
C800 C798 1.388 . S
C800 C801 1.366 . S
C801 C800 1.366 . S
C801 C802 1.414 . S
C801 C804 1.499 . S
C802 H782 0.950 . S
C802 C801 1.414 . S
C802 C803 1.374 . S
C803 H783 0.950 . S
C803 C799 1.385 . S
C803 C802 1.374 . S
C804 C801 1.499 . S
C804 C805 1.373 . S
C804 C806 1.389 . S
C805 H784 0.950 . S
C805 C804 1.373 . S
C805 C821 1.377 . S
C806 C804 1.389 . S
C806 C807 1.524 . S
C806 C820 1.377 . S
C807 C806 1.524 . S
C807 C808 1.397 . S
C807 C812 1.363 . S
C808 H785 0.950 . S
C808 C807 1.397 . S
C808 C809 1.334 . S
C809 H786 0.950 . S
C809 C808 1.334 . S
C809 C810 1.287 . S
C810 C809 1.287 . S
C810 C811 1.524 . S
C810 H829 0.913 . S
C811 H787 0.950 . S
C811 C810 1.524 . S
C811 C812 1.415 . S
C812 H788 0.950 . S
C812 C807 1.363 . S
C812 C811 1.415 . S
C813 H789 0.951 . S
C813 C814 1.366 . S
C813 C815 1.388 . S
C814 C813 1.366 . S
C814 C818 1.385 . S
C815 H790 0.951 . S
C815 C813 1.388 . S
C815 C816 1.366 . S
C816 C815 1.366 . S
C816 C817 1.414 . S
C816 C819 1.499 . S
C817 H791 0.950 . S
C817 C816 1.414 . S
C817 C818 1.374 . S
C818 H792 0.950 . S
C818 C814 1.385 . S
C818 C817 1.374 . S
C819 C816 1.499 . S
C819 C820 1.373 . S
C819 C821 1.389 . S
C820 H793 0.950 . S
C820 C806 1.377 . S
C820 C819 1.373 . S
C821 C805 1.377 . S
C821 C819 1.389 . S
C821 C822 1.524 . S
C822 C821 1.524 . S
C822 C823 1.397 . S
C822 C827 1.363 . S
C823 H794 0.950 . S
C823 C822 1.397 . S
C823 C824 1.334 . S
C824 H795 0.950 . S
C824 C823 1.334 . S
C824 C825 1.287 . S
C825 C824 1.287 . S
C825 C826 1.524 . S
C825 H828 0.999 . S
C826 H796 0.950 . S
C826 C825 1.524 . S
C826 C827 1.415 . S
C827 H797 0.950 . S
C827 C822 1.363 . S
C827 C826 1.415 . S
H828 C825 0.999 . S
H829 C810 0.913 . S
H830 C848 0.951 . S
H831 C850 0.951 . S
H832 C852 0.950 . S
H833 C853 0.950 . S
H834 C855 0.950 . S
H835 C858 0.950 . S
H836 C859 0.950 . S
H837 C861 0.950 . S
H838 C862 0.950 . S
H839 C863 0.951 . S
H840 C865 0.951 . S
H841 C867 0.950 . S
H842 C868 0.950 . S
H843 C870 0.950 . S
H844 C873 0.950 . S
H845 C874 0.950 . S
H846 C876 0.950 . S
H847 C877 0.950 . S
C848 H830 0.951 . S
C848 C849 1.366 . S
C848 C850 1.388 . S
C849 C848 1.366 . S
C849 C853 1.385 . S
C850 H831 0.951 . S
C850 C848 1.388 . S
C850 C851 1.366 . S
C851 C850 1.366 . S
C851 C852 1.414 . S
C851 C854 1.499 . S
C852 H832 0.950 . S
C852 C851 1.414 . S
C852 C853 1.374 . S
C853 H833 0.950 . S
C853 C849 1.385 . S
C853 C852 1.374 . S
C854 C851 1.499 . S
C854 C855 1.373 . S
C854 C856 1.389 . S
C855 H834 0.950 . S
C855 C854 1.373 . S
C855 C871 1.377 . S
C856 C854 1.389 . S
C856 C857 1.524 . S
C856 C870 1.377 . S
C857 C856 1.524 . S
C857 C858 1.397 . S
C857 C862 1.363 . S
C858 H835 0.950 . S
C858 C857 1.397 . S
C858 C859 1.334 . S
C859 H836 0.950 . S
C859 C858 1.334 . S
C859 C860 1.287 . S
C860 C859 1.287 . S
C860 C861 1.524 . S
C860 H879 0.913 . S
C861 H837 0.950 . S
C861 C860 1.524 . S
C861 C862 1.415 . S
C862 H838 0.950 . S
C862 C857 1.363 . S
C862 C861 1.415 . S
C863 H839 0.951 . S
C863 C864 1.366 . S
C863 C865 1.388 . S
C864 C863 1.366 . S
C864 C868 1.385 . S
C865 H840 0.951 . S
C865 C863 1.388 . S
C865 C866 1.366 . S
C866 C865 1.366 . S
C866 C867 1.414 . S
C866 C869 1.499 . S
C867 H841 0.950 . S
C867 C866 1.414 . S
C867 C868 1.374 . S
C868 H842 0.950 . S
C868 C864 1.385 . S
C868 C867 1.374 . S
C869 C866 1.499 . S
C869 C870 1.373 . S
C869 C871 1.389 . S
C870 H843 0.950 . S
C870 C856 1.377 . S
C870 C869 1.373 . S
C871 C855 1.377 . S
C871 C869 1.389 . S
C871 C872 1.524 . S
C872 C871 1.524 . S
C872 C873 1.397 . S
C872 C877 1.363 . S
C873 H844 0.950 . S
C873 C872 1.397 . S
C873 C874 1.334 . S
C874 H845 0.950 . S
C874 C873 1.334 . S
C874 C875 1.287 . S
C875 C874 1.287 . S
C875 C876 1.524 . S
C875 H878 0.999 . S
C876 H846 0.950 . S
C876 C875 1.524 . S
C876 C877 1.415 . S
C877 H847 0.950 . S
C877 C872 1.363 . S
C877 C876 1.415 . S
H878 C875 0.999 . S
H879 C860 0.913 . S
H880 C898 0.951 . S
H881 C900 0.951 . S
H882 C902 0.950 . S
H883 C903 0.950 . S
H884 C905 0.950 . S
H885 C908 0.950 . S
H886 C909 0.950 . S
H887 C911 0.950 . S
H888 C912 0.950 . S
H889 C913 0.951 . S
H890 C915 0.951 . S
H891 C917 0.950 . S
H892 C918 0.950 . S
H893 C920 0.950 . S
H894 C923 0.950 . S
H895 C924 0.950 . S
H896 C926 0.950 . S
H897 C927 0.950 . S
C898 H880 0.951 . S
C898 C899 1.366 . S
C898 C900 1.388 . S
C899 C898 1.366 . S
C899 C903 1.385 . S
C900 H881 0.951 . S
C900 C898 1.388 . S
C900 C901 1.366 . S
C901 C900 1.366 . S
C901 C902 1.414 . S
C901 C904 1.499 . S
C902 H882 0.950 . S
C902 C901 1.414 . S
C902 C903 1.374 . S
C903 H883 0.950 . S
C903 C899 1.385 . S
C903 C902 1.374 . S
C904 C901 1.499 . S
C904 C905 1.373 . S
C904 C906 1.389 . S
C905 H884 0.950 . S
C905 C904 1.373 . S
C905 C921 1.377 . S
C906 C904 1.389 . S
C906 C907 1.524 . S
C906 C920 1.377 . S
C907 C906 1.524 . S
C907 C908 1.397 . S
C907 C912 1.363 . S
C908 H885 0.950 . S
C908 C907 1.397 . S
C908 C909 1.334 . S
C909 H886 0.950 . S
C909 C908 1.334 . S
C909 C910 1.287 . S
C910 C909 1.287 . S
C910 C911 1.524 . S
C910 H929 0.913 . S
C911 H887 0.950 . S
C911 C910 1.524 . S
C911 C912 1.415 . S
C912 H888 0.950 . S
C912 C907 1.363 . S
C912 C911 1.415 . S
C913 H889 0.951 . S
C913 C914 1.366 . S
C913 C915 1.388 . S
C914 C913 1.366 . S
C914 C918 1.385 . S
C915 H890 0.951 . S
C915 C913 1.388 . S
C915 C916 1.366 . S
C916 C915 1.366 . S
C916 C917 1.414 . S
C916 C919 1.499 . S
C917 H891 0.950 . S
C917 C916 1.414 . S
C917 C918 1.374 . S
C918 H892 0.950 . S
C918 C914 1.385 . S
C918 C917 1.374 . S
C919 C916 1.499 . S
C919 C920 1.373 . S
C919 C921 1.389 . S
C920 H893 0.950 . S
C920 C906 1.377 . S
C920 C919 1.373 . S
C921 C905 1.377 . S
C921 C919 1.389 . S
C921 C922 1.524 . S
C922 C921 1.524 . S
C922 C923 1.397 . S
C922 C927 1.363 . S
C923 H894 0.950 . S
C923 C922 1.397 . S
C923 C924 1.334 . S
C924 H895 0.950 . S
C924 C923 1.334 . S
C924 C925 1.287 . S
C925 C924 1.287 . S
C925 C926 1.524 . S
C925 H928 0.999 . S
C926 H896 0.950 . S
C926 C925 1.524 . S
C926 C927 1.415 . S
C927 H897 0.950 . S
C927 C922 1.363 . S
C927 C926 1.415 . S
H928 C925 0.999 . S
H929 C910 0.913 . S
H930 C948 0.951 . S
H931 C950 0.951 . S
H932 C952 0.950 . S
H933 C953 0.950 . S
H934 C955 0.950 . S
H935 C958 0.950 . S
H936 C959 0.950 . S
H937 C961 0.950 . S
H938 C962 0.950 . S
H939 C963 0.951 . S
H940 C965 0.951 . S
H941 C967 0.950 . S
H942 C968 0.950 . S
H943 C970 0.950 . S
H944 C973 0.950 . S
H945 C974 0.950 . S
H946 C976 0.950 . S
H947 C977 0.950 . S
C948 H930 0.951 . S
C948 C949 1.366 . S
C948 C950 1.388 . S
C949 C948 1.366 . S
C949 C953 1.385 . S
C950 H931 0.951 . S
C950 C948 1.388 . S
C950 C951 1.366 . S
C951 C950 1.366 . S
C951 C952 1.414 . S
C951 C954 1.499 . S
C952 H932 0.950 . S
C952 C951 1.414 . S
C952 C953 1.374 . S
C953 H933 0.950 . S
C953 C949 1.385 . S
C953 C952 1.374 . S
C954 C951 1.499 . S
C954 C955 1.373 . S
C954 C956 1.389 . S
C955 H934 0.950 . S
C955 C954 1.373 . S
C955 C971 1.377 . S
C956 C954 1.389 . S
C956 C957 1.524 . S
C956 C970 1.377 . S
C957 C956 1.524 . S
C957 C958 1.397 . S
C957 C962 1.363 . S
C958 H935 0.950 . S
C958 C957 1.397 . S
C958 C959 1.334 . S
C959 H936 0.950 . S
C959 C958 1.334 . S
C959 C960 1.287 . S
C960 C959 1.287 . S
C960 C961 1.524 . S
C960 H979 0.913 . S
C961 H937 0.950 . S
C961 C960 1.524 . S
C961 C962 1.415 . S
C962 H938 0.950 . S
C962 C957 1.363 . S
C962 C961 1.415 . S
C963 H939 0.951 . S
C963 C964 1.366 . S
C963 C965 1.388 . S
C964 C963 1.366 . S
C964 C968 1.385 . S
C965 H940 0.951 . S
C965 C963 1.388 . S
C965 C966 1.366 . S
C966 C965 1.366 . S
C966 C967 1.414 . S
C966 C969 1.499 . S
C967 H941 0.950 . S
C967 C966 1.414 . S
C967 C968 1.374 . S
C968 H942 0.950 . S
C968 C964 1.385 . S
C968 C967 1.374 . S
C969 C966 1.499 . S
C969 C970 1.373 . S
C969 C971 1.389 . S
C970 H943 0.950 . S
C970 C956 1.377 . S
C970 C969 1.373 . S
C971 C955 1.377 . S
C971 C969 1.389 . S
C971 C972 1.524 . S
C972 C971 1.524 . S
C972 C973 1.397 . S
C972 C977 1.363 . S
C973 H944 0.950 . S
C973 C972 1.397 . S
C973 C974 1.334 . S
C974 H945 0.950 . S
C974 C973 1.334 . S
C974 C975 1.287 . S
C975 C974 1.287 . S
C975 C976 1.524 . S
C975 H978 0.986 1_556 S
C976 H946 0.950 . S
C976 C975 1.524 . S
C976 C977 1.415 . S
C977 H947 0.950 . S
C977 C972 1.363 . S
C977 C976 1.415 . S
H978 C975 0.986 1_554 S
H979 C960 0.913 . S
H980 C998 0.951 . S
H981 C1000 0.951 . S
H982 C1002 0.950 . S
H983 C1003 0.950 . S
H984 C1005 0.950 . S
H985 C1008 0.950 . S
H986 C1009 0.950 . S
H987 C1011 0.950 . S
H988 C1012 0.950 . S
H989 C1013 0.951 . S
H990 C1015 0.951 . S
H991 C1017 0.950 . S
H992 C1018 0.950 . S
H993 C1020 0.950 . S
H994 C1023 0.950 . S
H995 C1024 0.950 . S
H996 C1026 0.950 . S
H997 C1027 0.950 . S
C998 H980 0.951 . S
C998 C999 1.366 . S
C998 C1000 1.388 . S
C999 C998 1.366 . S
C999 C1003 1.385 . S
C1000 H981 0.951 . S
C1000 C998 1.388 . S
C1000 C1001 1.366 . S
C1001 C1000 1.366 . S
C1001 C1002 1.414 . S
C1001 C1004 1.499 . S
C1002 H982 0.950 . S
C1002 C1001 1.414 . S
C1002 C1003 1.374 . S
C1003 H983 0.950 . S
C1003 C999 1.385 . S
C1003 C1002 1.374 . S
C1004 C1001 1.499 . S
C1004 C1005 1.373 . S
C1004 C1006 1.389 . S
C1005 H984 0.950 . S
C1005 C1004 1.373 . S
C1005 C1021 1.377 . S
C1006 C1004 1.389 . S
C1006 C1007 1.524 . S
C1006 C1020 1.377 . S
C1007 C1006 1.524 . S
C1007 C1008 1.397 . S
C1007 C1012 1.363 . S
C1008 H985 0.950 . S
C1008 C1007 1.397 . S
C1008 C1009 1.334 . S
C1009 H986 0.950 . S
C1009 C1008 1.334 . S
C1009 C1010 1.287 . S
C1010 C1009 1.287 . S
C1010 C1011 1.524 . S
C1010 H1029 0.913 . S
C1011 H987 0.950 . S
C1011 C1010 1.524 . S
C1011 C1012 1.415 . S
C1012 H988 0.950 . S
C1012 C1007 1.363 . S
C1012 C1011 1.415 . S
C1013 H989 0.951 . S
C1013 C1014 1.366 . S
C1013 C1015 1.388 . S
C1014 C1013 1.366 . S
C1014 C1018 1.385 . S
C1015 H990 0.951 . S
C1015 C1013 1.388 . S
C1015 C1016 1.366 . S
C1016 C1015 1.366 . S
C1016 C1017 1.414 . S
C1016 C1019 1.499 . S
C1017 H991 0.950 . S
C1017 C1016 1.414 . S
C1017 C1018 1.374 . S
C1018 H992 0.950 . S
C1018 C1014 1.385 . S
C1018 C1017 1.374 . S
C1019 C1016 1.499 . S
C1019 C1020 1.373 . S
C1019 C1021 1.389 . S
C1020 H993 0.950 . S
C1020 C1006 1.377 . S
C1020 C1019 1.373 . S
C1021 C1005 1.377 . S
C1021 C1019 1.389 . S
C1021 C1022 1.524 . S
C1022 C1021 1.524 . S
C1022 C1023 1.397 . S
C1022 C1027 1.363 . S
C1023 H994 0.950 . S
C1023 C1022 1.397 . S
C1023 C1024 1.334 . S
C1024 H995 0.950 . S
C1024 C1023 1.334 . S
C1024 C1025 1.287 . S
C1025 C1024 1.287 . S
C1025 C1026 1.524 . S
C1025 H1028 0.999 . S
C1026 H996 0.950 . S
C1026 C1025 1.524 . S
C1026 C1027 1.415 . S
C1027 H997 0.950 . S
C1027 C1022 1.363 . S
C1027 C1026 1.415 . S
H1028 C1025 0.999 . S
H1029 C1010 0.913 . S
H1030 C1048 0.951 . S
H1031 C1050 0.951 . S
H1032 C1052 0.950 . S
H1033 C1053 0.950 . S
H1034 C1055 0.950 . S
H1035 C1058 0.950 . S
H1036 C1059 0.950 . S
H1037 C1061 0.950 . S
H1038 C1062 0.950 . S
H1039 C1063 0.951 . S
H1040 C1065 0.951 . S
H1041 C1067 0.950 . S
H1042 C1068 0.950 . S
H1043 C1070 0.950 . S
H1044 C1073 0.950 . S
H1045 C1074 0.950 . S
H1046 C1076 0.950 . S
H1047 C1077 0.950 . S
C1048 H1030 0.951 . S
C1048 C1049 1.366 . S
C1048 C1050 1.388 . S
C1049 C1048 1.366 . S
C1049 C1053 1.385 . S
C1050 H1031 0.951 . S
C1050 C1048 1.388 . S
C1050 C1051 1.366 . S
C1051 C1050 1.366 . S
C1051 C1052 1.414 . S
C1051 C1054 1.499 . S
C1052 H1032 0.950 . S
C1052 C1051 1.414 . S
C1052 C1053 1.374 . S
C1053 H1033 0.950 . S
C1053 C1049 1.385 . S
C1053 C1052 1.374 . S
C1054 C1051 1.499 . S
C1054 C1055 1.373 . S
C1054 C1056 1.389 . S
C1055 H1034 0.950 . S
C1055 C1054 1.373 . S
C1055 C1071 1.377 . S
C1056 C1054 1.389 . S
C1056 C1057 1.524 . S
C1056 C1070 1.377 . S
C1057 C1056 1.524 . S
C1057 C1058 1.397 . S
C1057 C1062 1.363 . S
C1058 H1035 0.950 . S
C1058 C1057 1.397 . S
C1058 C1059 1.334 . S
C1059 H1036 0.950 . S
C1059 C1058 1.334 . S
C1059 C1060 1.287 . S
C1060 C1059 1.287 . S
C1060 C1061 1.524 . S
C1060 H1079 0.913 . S
C1061 H1037 0.950 . S
C1061 C1060 1.524 . S
C1061 C1062 1.415 . S
C1062 H1038 0.950 . S
C1062 C1057 1.363 . S
C1062 C1061 1.415 . S
C1063 H1039 0.951 . S
C1063 C1064 1.366 . S
C1063 C1065 1.388 . S
C1064 C1063 1.366 . S
C1064 C1068 1.385 . S
C1065 H1040 0.951 . S
C1065 C1063 1.388 . S
C1065 C1066 1.366 . S
C1066 C1065 1.366 . S
C1066 C1067 1.414 . S
C1066 C1069 1.499 . S
C1067 H1041 0.950 . S
C1067 C1066 1.414 . S
C1067 C1068 1.374 . S
C1068 H1042 0.950 . S
C1068 C1064 1.385 . S
C1068 C1067 1.374 . S
C1069 C1066 1.499 . S
C1069 C1070 1.373 . S
C1069 C1071 1.389 . S
C1070 H1043 0.950 . S
C1070 C1056 1.377 . S
C1070 C1069 1.373 . S
C1071 C1055 1.377 . S
C1071 C1069 1.389 . S
C1071 C1072 1.524 . S
C1072 C1071 1.524 . S
C1072 C1073 1.397 . S
C1072 C1077 1.363 . S
C1073 H1044 0.950 . S
C1073 C1072 1.397 . S
C1073 C1074 1.334 . S
C1074 H1045 0.950 . S
C1074 C1073 1.334 . S
C1074 C1075 1.287 . S
C1075 C1074 1.287 . S
C1075 C1076 1.524 . S
C1075 H1078 0.999 . S
C1076 H1046 0.950 . S
C1076 C1075 1.524 . S
C1076 C1077 1.415 . S
C1077 H1047 0.950 . S
C1077 C1072 1.363 . S
C1077 C1076 1.415 . S
H1078 C1075 0.999 . S
H1079 C1060 0.913 . S
H1080 C1098 0.951 . S
H1081 C1100 0.951 . S
H1082 C1102 0.950 . S
H1083 C1103 0.950 . S
H1084 C1105 0.950 . S
H1085 C1108 0.950 . S
H1086 C1109 0.950 1_455 S
H1087 C1111 0.950 . S
H1088 C1112 0.950 . S
H1089 C1113 0.951 . S
H1090 C1115 0.951 . S
H1091 C1117 0.950 1_655 S
H1092 C1118 0.950 1_655 S
H1093 C1120 0.947 1_655 S
H1094 C1123 0.950 . S
H1095 C1124 0.950 . S
H1096 C1126 0.950 . S
H1097 C1127 0.950 . S
C1098 H1080 0.951 . S
C1098 C1099 1.366 1_655 S
C1098 C1100 1.388 . S
C1099 C1098 1.366 1_455 S
C1099 C1103 1.385 . S
C1100 H1081 0.951 . S
C1100 C1098 1.388 . S
C1100 C1101 1.366 1_655 S
C1101 C1100 1.366 1_455 S
C1101 C1102 1.414 . S
C1101 C1104 1.499 . S
C1102 H1082 0.950 . S
C1102 C1101 1.414 . S
C1102 C1103 1.374 . S
C1103 H1083 0.950 . S
C1103 C1099 1.385 . S
C1103 C1102 1.374 . S
C1104 C1101 1.499 . S
C1104 C1105 1.373 . S
C1104 C1106 1.389 . S
C1105 H1084 0.950 . S
C1105 C1104 1.373 . S
C1105 C1121 1.377 . S
C1106 C1104 1.389 . S
C1106 C1107 1.524 1_455 S
C1106 C1120 1.377 . S
C1107 C1106 1.524 1_655 S
C1107 C1108 1.397 1_655 S
C1107 C1112 1.363 . S
C1108 H1085 0.950 . S
C1108 C1107 1.397 1_455 S
C1108 C1109 1.334 1_455 S
C1109 H1086 0.950 1_655 S
C1109 C1108 1.334 1_655 S
C1109 C1110 1.287 . S
C1110 C1109 1.287 . S
C1110 C1111 1.524 . S
C1110 H1129 0.913 . S
C1111 H1087 0.950 . S
C1111 C1110 1.524 . S
C1111 C1112 1.415 . S
C1112 H1088 0.950 . S
C1112 C1107 1.363 . S
C1112 C1111 1.415 . S
C1113 H1089 0.951 . S
C1113 C1114 1.366 . S
C1113 C1115 1.388 . S
C1114 C1113 1.366 . S
C1114 C1118 1.385 . S
C1115 H1090 0.951 . S
C1115 C1113 1.388 . S
C1115 C1116 1.366 . S
C1116 C1115 1.366 . S
C1116 C1117 1.414 . S
C1116 C1119 1.499 . S
C1117 H1091 0.950 1_455 S
C1117 C1116 1.414 . S
C1117 C1118 1.374 . S
C1118 H1092 0.950 1_455 S
C1118 C1114 1.385 . S
C1118 C1117 1.374 . S
C1119 C1116 1.499 . S
C1119 C1120 1.373 . S
C1119 C1121 1.389 . S
C1120 H1093 0.947 1_455 S
C1120 C1106 1.377 . S
C1120 C1119 1.373 . S
C1121 C1105 1.377 . S
C1121 C1119 1.389 . S
C1121 C1122 1.524 . S
C1122 C1121 1.524 . S
C1122 C1123 1.397 . S
C1122 C1127 1.363 . S
C1123 H1094 0.950 . S
C1123 C1122 1.397 . S
C1123 C1124 1.334 . S
C1124 H1095 0.950 . S
C1124 C1123 1.334 . S
C1124 C1125 1.287 . S
C1125 C1124 1.287 . S
C1125 C1126 1.524 . S
C1125 H1128 0.999 . S
C1126 H1096 0.950 . S
C1126 C1125 1.524 . S
C1126 C1127 1.415 . S
C1127 H1097 0.950 . S
C1127 C1122 1.363 . S
C1127 C1126 1.415 . S
H1128 C1125 0.999 . S
H1129 C1110 0.913 . S
H1130 C1148 0.951 . S
H1131 C1150 0.951 . S
H1132 C1152 0.950 . S
H1133 C1153 0.950 . S
H1134 C1155 0.950 . S
H1135 C1158 0.950 . S
H1136 C1159 0.950 . S
H1137 C1161 0.950 . S
H1138 C1162 0.950 . S
H1139 C1163 0.951 . S
H1140 C1165 0.951 . S
H1141 C1167 0.950 . S
H1142 C1168 0.950 . S
H1143 C1170 0.950 . S
H1144 C1173 0.950 . S
H1145 C1174 0.950 . S
H1146 C1176 0.950 . S
H1147 C1177 0.950 . S
C1148 H1130 0.951 . S
C1148 C1149 1.366 . S
C1148 C1150 1.388 . S
C1149 C1148 1.366 . S
C1149 C1153 1.385 . S
C1150 H1131 0.951 . S
C1150 C1148 1.388 . S
C1150 C1151 1.366 . S
C1151 C1150 1.366 . S
C1151 C1152 1.414 . S
C1151 C1154 1.499 . S
C1152 H1132 0.950 . S
C1152 C1151 1.414 . S
C1152 C1153 1.374 . S
C1153 H1133 0.950 . S
C1153 C1149 1.385 . S
C1153 C1152 1.374 . S
C1154 C1151 1.499 . S
C1154 C1155 1.373 . S
C1154 C1156 1.389 . S
C1155 H1134 0.950 . S
C1155 C1154 1.373 . S
C1155 C1171 1.377 . S
C1156 C1154 1.389 . S
C1156 C1157 1.524 . S
C1156 C1170 1.377 . S
C1157 C1156 1.524 . S
C1157 C1158 1.397 . S
C1157 C1162 1.363 . S
C1158 H1135 0.950 . S
C1158 C1157 1.397 . S
C1158 C1159 1.334 . S
C1159 H1136 0.950 . S
C1159 C1158 1.334 . S
C1159 C1160 1.287 . S
C1160 C1159 1.287 . S
C1160 C1161 1.524 . S
C1160 H1179 0.913 . S
C1161 H1137 0.950 . S
C1161 C1160 1.524 . S
C1161 C1162 1.415 . S
C1162 H1138 0.950 . S
C1162 C1157 1.363 . S
C1162 C1161 1.415 . S
C1163 H1139 0.951 . S
C1163 C1164 1.366 . S
C1163 C1165 1.388 . S
C1164 C1163 1.366 . S
C1164 C1168 1.385 . S
C1165 H1140 0.951 . S
C1165 C1163 1.388 . S
C1165 C1166 1.366 . S
C1166 C1165 1.366 . S
C1166 C1167 1.414 . S
C1166 C1169 1.499 . S
C1167 H1141 0.950 . S
C1167 C1166 1.414 . S
C1167 C1168 1.374 . S
C1168 H1142 0.950 . S
C1168 C1164 1.385 . S
C1168 C1167 1.374 . S
C1169 C1166 1.499 . S
C1169 C1170 1.373 . S
C1169 C1171 1.389 . S
C1170 H1143 0.950 . S
C1170 C1156 1.377 . S
C1170 C1169 1.373 . S
C1171 C1155 1.377 . S
C1171 C1169 1.389 . S
C1171 C1172 1.524 . S
C1172 C1171 1.524 . S
C1172 C1173 1.397 . S
C1172 C1177 1.363 . S
C1173 H1144 0.950 . S
C1173 C1172 1.397 . S
C1173 C1174 1.334 . S
C1174 H1145 0.950 . S
C1174 C1173 1.334 . S
C1174 C1175 1.287 . S
C1175 C1174 1.287 . S
C1175 C1176 1.524 . S
C1175 H1178 0.999 . S
C1176 H1146 0.950 . S
C1176 C1175 1.524 . S
C1176 C1177 1.415 . S
C1177 H1147 0.950 . S
C1177 C1172 1.363 . S
C1177 C1176 1.415 . S
H1178 C1175 0.999 . S
H1179 C1160 0.913 . S
H1180 C1198 0.951 . S
H1181 C1200 0.951 . S
H1182 C1202 0.950 . S
H1183 C1203 0.950 . S
H1184 C1205 0.950 . S
H1185 C1208 0.950 . S
H1186 C1209 0.950 . S
H1187 C1211 0.950 . S
H1188 C1212 0.950 . S
H1189 C1213 0.951 . S
H1190 C1215 0.951 . S
H1191 C1217 0.950 . S
H1192 C1218 0.950 . S
H1193 C1220 0.950 1_565 S
H1194 C1223 0.950 . S
H1195 C1224 0.950 . S
H1196 C1226 0.950 . S
H1197 C1227 0.950 . S
C1198 H1180 0.951 . S
C1198 C1199 1.366 . S
C1198 C1200 1.388 . S
C1199 C1198 1.366 . S
C1199 C1203 1.385 . S
C1200 H1181 0.951 . S
C1200 C1198 1.388 . S
C1200 C1201 1.366 . S
C1201 C1200 1.366 . S
C1201 C1202 1.414 . S
C1201 C1204 1.499 . S
C1202 H1182 0.950 . S
C1202 C1201 1.414 . S
C1202 C1203 1.374 . S
C1203 H1183 0.950 . S
C1203 C1199 1.385 . S
C1203 C1202 1.374 . S
C1204 C1201 1.499 . S
C1204 C1205 1.373 . S
C1204 C1206 1.389 . S
C1205 H1184 0.950 . S
C1205 C1204 1.373 . S
C1205 C1221 1.377 . S
C1206 C1204 1.389 . S
C1206 C1207 1.524 1_545 S
C1206 C1220 1.377 . S
C1207 C1206 1.524 1_565 S
C1207 C1208 1.397 . S
C1207 C1212 1.363 . S
C1208 H1185 0.950 . S
C1208 C1207 1.397 . S
C1208 C1209 1.334 . S
C1209 H1186 0.950 . S
C1209 C1208 1.334 . S
C1209 C1210 1.287 . S
C1210 C1209 1.287 . S
C1210 C1211 1.524 . S
C1210 H1229 0.913 . S
C1211 H1187 0.950 . S
C1211 C1210 1.524 . S
C1211 C1212 1.415 . S
C1212 H1188 0.950 . S
C1212 C1207 1.363 . S
C1212 C1211 1.415 . S
C1213 H1189 0.951 . S
C1213 C1214 1.366 . S
C1213 C1215 1.388 . S
C1214 C1213 1.366 . S
C1214 C1218 1.385 . S
C1215 H1190 0.951 . S
C1215 C1213 1.388 . S
C1215 C1216 1.366 . S
C1216 C1215 1.366 . S
C1216 C1217 1.414 . S
C1216 C1219 1.499 . S
C1217 H1191 0.950 . S
C1217 C1216 1.414 . S
C1217 C1218 1.374 . S
C1218 H1192 0.950 . S
C1218 C1214 1.385 . S
C1218 C1217 1.374 . S
C1219 C1216 1.499 . S
C1219 C1220 1.373 . S
C1219 C1221 1.389 . S
C1220 H1193 0.950 1_545 S
C1220 C1206 1.377 . S
C1220 C1219 1.373 . S
C1221 C1205 1.377 . S
C1221 C1219 1.389 . S
C1221 C1222 1.524 . S
C1222 C1221 1.524 . S
C1222 C1223 1.397 . S
C1222 C1227 1.363 . S
C1223 H1194 0.950 . S
C1223 C1222 1.397 . S
C1223 C1224 1.334 . S
C1224 H1195 0.950 . S
C1224 C1223 1.334 . S
C1224 C1225 1.287 . S
C1225 C1224 1.287 . S
C1225 C1226 1.524 . S
C1225 H1228 0.999 . S
C1226 H1196 0.950 . S
C1226 C1225 1.524 . S
C1226 C1227 1.415 . S
C1227 H1197 0.950 . S
C1227 C1222 1.363 . S
C1227 C1226 1.415 . S
H1228 C1225 0.999 . S
H1229 C1210 0.913 . S
H1230 C1248 0.951 . S
H1231 C1250 0.951 . S
H1232 C1252 0.950 . S
H1233 C1253 0.950 . S
H1234 C1255 0.950 . S
H1235 C1258 0.950 . S
H1236 C1259 0.950 . S
H1237 C1261 0.950 . S
H1238 C1262 0.950 . S
H1239 C1263 0.951 . S
H1240 C1265 0.951 . S
H1241 C1267 0.950 . S
H1242 C1268 0.950 . S
H1243 C1270 0.950 . S
H1244 C1273 0.950 . S
H1245 C1274 0.950 1_554 S
H1246 C1276 0.950 . S
H1247 C1277 0.950 . S
C1248 H1230 0.951 . S
C1248 C1249 1.366 . S
C1248 C1250 1.388 . S
C1249 C1248 1.366 . S
C1249 C1253 1.385 . S
C1250 H1231 0.951 . S
C1250 C1248 1.388 . S
C1250 C1251 1.366 . S
C1251 C1250 1.366 . S
C1251 C1252 1.414 . S
C1251 C1254 1.499 . S
C1252 H1232 0.950 . S
C1252 C1251 1.414 . S
C1252 C1253 1.374 . S
C1253 H1233 0.950 . S
C1253 C1249 1.385 . S
C1253 C1252 1.374 . S
C1254 C1251 1.499 . S
C1254 C1255 1.373 . S
C1254 C1256 1.389 . S
C1255 H1234 0.950 . S
C1255 C1254 1.373 . S
C1255 C1271 1.377 . S
C1256 C1254 1.389 . S
C1256 C1257 1.524 . S
C1256 C1270 1.377 . S
C1257 C1256 1.524 . S
C1257 C1258 1.397 . S
C1257 C1262 1.363 . S
C1258 H1235 0.950 . S
C1258 C1257 1.397 . S
C1258 C1259 1.334 . S
C1259 H1236 0.950 . S
C1259 C1258 1.334 . S
C1259 C1260 1.287 . S
C1260 C1259 1.287 . S
C1260 C1261 1.524 . S
C1260 H1279 0.913 . S
C1261 H1237 0.950 . S
C1261 C1260 1.524 . S
C1261 C1262 1.415 . S
C1262 H1238 0.950 . S
C1262 C1257 1.363 . S
C1262 C1261 1.415 . S
C1263 H1239 0.951 . S
C1263 C1264 1.366 . S
C1263 C1265 1.388 . S
C1264 C1263 1.366 . S
C1264 C1268 1.385 . S
C1265 H1240 0.951 . S
C1265 C1263 1.388 . S
C1265 C1266 1.374 . S
C1266 C1265 1.374 . S
C1266 C1267 1.421 . S
C1266 C1269 1.483 1_554 S
C1267 H1241 0.950 . S
C1267 C1266 1.421 . S
C1267 C1268 1.374 . S
C1268 H1242 0.950 . S
C1268 C1264 1.385 . S
C1268 C1267 1.374 . S
C1269 C1266 1.483 1_556 S
C1269 C1270 1.373 . S
C1269 C1271 1.389 . S
C1270 H1243 0.950 . S
C1270 C1256 1.377 . S
C1270 C1269 1.373 . S
C1271 C1255 1.377 . S
C1271 C1269 1.389 . S
C1271 C1272 1.524 . S
C1272 C1271 1.524 . S
C1272 C1273 1.397 . S
C1272 C1277 1.363 . S
C1273 H1244 0.950 . S
C1273 C1272 1.397 . S
C1273 C1274 1.334 . S
C1274 H1245 0.950 1_556 S
C1274 C1273 1.334 . S
C1274 C1275 1.287 . S
C1275 C1274 1.287 . S
C1275 C1276 1.524 . S
C1275 H1278 0.999 1_556 S
C1276 H1246 0.950 . S
C1276 C1275 1.524 . S
C1276 C1277 1.415 . S
C1277 H1247 0.950 . S
C1277 C1272 1.363 . S
C1277 C1276 1.415 . S
H1278 C1275 0.999 1_554 S
H1279 C1260 0.913 . S
H1280 C1298 0.951 . S
H1281 C1300 0.951 . S
H1282 C1302 0.950 . S
H1283 C1303 0.950 . S
H1284 C1305 0.950 . S
H1285 C1308 0.950 . S
H1286 C1309 0.950 . S
H1287 C1311 0.950 . S
H1288 C1312 0.950 . S
H1289 C1313 0.951 . S
H1290 C1315 0.951 . S
H1291 C1317 0.950 . S
H1292 C1318 0.950 . S
H1293 C1320 0.950 . S
H1294 C1323 0.950 . S
H1295 C1324 0.950 1_554 S
H1296 C1326 0.950 . S
H1297 C1327 0.950 . S
C1298 H1280 0.951 . S
C1298 C1299 1.366 . S
C1298 C1300 1.388 . S
C1299 C1298 1.366 . S
C1299 C1303 1.385 . S
C1300 H1281 0.951 . S
C1300 C1298 1.388 . S
C1300 C1301 1.366 . S
C1301 C1300 1.366 . S
C1301 C1302 1.414 . S
C1301 C1304 1.499 . S
C1302 H1282 0.950 . S
C1302 C1301 1.414 . S
C1302 C1303 1.374 . S
C1303 H1283 0.950 . S
C1303 C1299 1.385 . S
C1303 C1302 1.374 . S
C1304 C1301 1.499 . S
C1304 C1305 1.373 . S
C1304 C1306 1.389 . S
C1305 H1284 0.950 . S
C1305 C1304 1.373 . S
C1305 C1321 1.377 . S
C1306 C1304 1.389 . S
C1306 C1307 1.524 . S
C1306 C1320 1.377 . S
C1307 C1306 1.524 . S
C1307 C1308 1.397 . S
C1307 C1312 1.363 . S
C1308 H1285 0.950 . S
C1308 C1307 1.397 . S
C1308 C1309 1.334 . S
C1309 H1286 0.950 . S
C1309 C1308 1.334 . S
C1309 C1310 1.287 . S
C1310 C1309 1.287 . S
C1310 C1311 1.524 . S
C1310 H1329 0.913 . S
C1311 H1287 0.950 . S
C1311 C1310 1.524 . S
C1311 C1312 1.415 . S
C1312 H1288 0.950 . S
C1312 C1307 1.363 . S
C1312 C1311 1.415 . S
C1313 H1289 0.951 . S
C1313 C1314 1.366 . S
C1313 C1315 1.388 . S
C1314 C1313 1.366 . S
C1314 C1318 1.385 . S
C1315 H1290 0.951 . S
C1315 C1313 1.388 . S
C1315 C1316 1.371 . S
C1316 C1315 1.371 . S
C1316 C1317 1.420 . S
C1316 C1319 1.488 1_554 S
C1317 H1291 0.950 . S
C1317 C1316 1.420 . S
C1317 C1318 1.374 . S
C1318 H1292 0.950 . S
C1318 C1314 1.385 . S
C1318 C1317 1.374 . S
C1319 C1316 1.488 1_556 S
C1319 C1320 1.373 . S
C1319 C1321 1.389 . S
C1320 H1293 0.950 . S
C1320 C1306 1.377 . S
C1320 C1319 1.373 . S
C1321 C1305 1.377 . S
C1321 C1319 1.389 . S
C1321 C1322 1.524 . S
C1322 C1321 1.524 . S
C1322 C1323 1.397 . S
C1322 C1327 1.363 . S
C1323 H1294 0.950 . S
C1323 C1322 1.397 . S
C1323 C1324 1.334 . S
C1324 H1295 0.950 1_556 S
C1324 C1323 1.334 . S
C1324 C1325 1.287 . S
C1325 C1324 1.287 . S
C1325 C1326 1.524 . S
C1325 H1328 0.999 . S
C1326 H1296 0.950 . S
C1326 C1325 1.524 . S
C1326 C1327 1.415 . S
C1327 H1297 0.950 . S
C1327 C1322 1.363 . S
C1327 C1326 1.415 . S
H1328 C1325 0.999 . S
H1329 C1310 0.913 . S
H1330 C1348 0.951 . S
H1331 C1350 0.951 . S
H1332 C1352 0.950 . S
H1333 C1353 0.950 . S
H1334 C1355 0.950 . S
H1335 C1358 0.950 . S
H1336 C1359 0.950 . S
H1337 C1361 0.950 . S
H1338 C1362 0.950 . S
H1339 C1363 0.951 . S
H1340 C1365 0.951 . S
H1341 C1367 0.950 . S
H1342 C1368 0.950 . S
H1343 C1370 0.950 . S
H1344 C1373 0.950 . S
H1345 C1374 0.950 1_554 S
H1346 C1376 0.950 . S
H1347 C1377 0.950 . S
C1348 H1330 0.951 . S
C1348 C1349 1.366 . S
C1348 C1350 1.388 . S
C1349 C1348 1.366 . S
C1349 C1353 1.385 . S
C1350 H1331 0.951 . S
C1350 C1348 1.388 . S
C1350 C1351 1.366 . S
C1351 C1350 1.366 . S
C1351 C1352 1.414 . S
C1351 C1354 1.499 . S
C1352 H1332 0.950 . S
C1352 C1351 1.414 . S
C1352 C1353 1.374 . S
C1353 H1333 0.950 . S
C1353 C1349 1.385 . S
C1353 C1352 1.374 . S
C1354 C1351 1.499 . S
C1354 C1355 1.373 . S
C1354 C1356 1.389 . S
C1355 H1334 0.950 . S
C1355 C1354 1.373 . S
C1355 C1371 1.377 . S
C1356 C1354 1.389 . S
C1356 C1357 1.524 . S
C1356 C1370 1.377 . S
C1357 C1356 1.524 . S
C1357 C1358 1.397 . S
C1357 C1362 1.363 . S
C1358 H1335 0.950 . S
C1358 C1357 1.397 . S
C1358 C1359 1.334 . S
C1359 H1336 0.950 . S
C1359 C1358 1.334 . S
C1359 C1360 1.287 . S
C1360 C1359 1.287 . S
C1360 C1361 1.524 . S
C1360 H1379 0.913 . S
C1361 H1337 0.950 . S
C1361 C1360 1.524 . S
C1361 C1362 1.415 . S
C1362 H1338 0.950 . S
C1362 C1357 1.363 . S
C1362 C1361 1.415 . S
C1363 H1339 0.951 . S
C1363 C1364 1.366 . S
C1363 C1365 1.388 . S
C1364 C1363 1.366 . S
C1364 C1368 1.385 . S
C1365 H1340 0.951 . S
C1365 C1363 1.388 . S
C1365 C1366 1.373 . S
C1366 C1365 1.373 . S
C1366 C1367 1.420 . S
C1366 C1369 1.485 1_554 S
C1367 H1341 0.950 . S
C1367 C1366 1.420 . S
C1367 C1368 1.374 . S
C1368 H1342 0.950 . S
C1368 C1364 1.385 . S
C1368 C1367 1.374 . S
C1369 C1366 1.485 1_556 S
C1369 C1370 1.373 . S
C1369 C1371 1.389 . S
C1370 H1343 0.950 . S
C1370 C1356 1.377 . S
C1370 C1369 1.373 . S
C1371 C1355 1.377 . S
C1371 C1369 1.389 . S
C1371 C1372 1.524 . S
C1372 C1371 1.524 . S
C1372 C1373 1.397 . S
C1372 C1377 1.363 . S
C1373 H1344 0.950 . S
C1373 C1372 1.397 . S
C1373 C1374 1.334 . S
C1374 H1345 0.950 1_556 S
C1374 C1373 1.334 . S
C1374 C1375 1.287 . S
C1375 C1374 1.287 . S
C1375 C1376 1.524 . S
C1375 H1378 0.999 . S
C1376 H1346 0.950 . S
C1376 C1375 1.524 . S
C1376 C1377 1.415 . S
C1377 H1347 0.950 . S
C1377 C1372 1.363 . S
C1377 C1376 1.415 . S
H1378 C1375 0.999 . S
H1379 C1360 0.913 . S
H1380 C1398 0.951 . S
H1381 C1400 0.951 . S
H1382 C1402 0.950 . S
H1383 C1403 0.950 . S
H1384 C1405 0.950 . S
H1385 C1408 0.950 . S
H1386 C1409 0.950 . S
H1387 C1411 0.950 . S
H1388 C1412 0.950 . S
H1389 C1413 0.951 . S
H1390 C1415 0.951 . S
H1391 C1417 0.950 1_554 S
H1392 C1418 0.950 . S
H1393 C1420 0.950 . S
H1394 C1423 0.950 . S
H1395 C1424 0.950 1_556 S
H1396 C1426 0.950 . S
H1397 C1427 0.950 . S
C1398 H1380 0.951 . S
C1398 C1399 1.366 . S
C1398 C1400 1.388 . S
C1399 C1398 1.366 . S
C1399 C1403 1.385 . S
C1400 H1381 0.951 . S
C1400 C1398 1.388 . S
C1400 C1401 1.366 . S
C1401 C1400 1.366 . S
C1401 C1402 1.414 . S
C1401 C1404 1.499 . S
C1402 H1382 0.950 . S
C1402 C1401 1.414 . S
C1402 C1403 1.374 . S
C1403 H1383 0.950 . S
C1403 C1399 1.385 . S
C1403 C1402 1.374 . S
C1404 C1401 1.499 . S
C1404 C1405 1.373 . S
C1404 C1406 1.389 . S
C1405 H1384 0.950 . S
C1405 C1404 1.373 . S
C1405 C1421 1.377 . S
C1406 C1404 1.389 . S
C1406 C1407 1.524 . S
C1406 C1420 1.377 . S
C1407 C1406 1.524 . S
C1407 C1408 1.397 . S
C1407 C1412 1.363 . S
C1408 H1385 0.950 . S
C1408 C1407 1.397 . S
C1408 C1409 1.334 . S
C1409 H1386 0.950 . S
C1409 C1408 1.334 . S
C1409 C1410 1.287 . S
C1410 C1409 1.287 . S
C1410 C1411 1.524 . S
C1410 H1429 0.913 . S
C1411 H1387 0.950 . S
C1411 C1410 1.524 . S
C1411 C1412 1.415 . S
C1412 H1388 0.950 . S
C1412 C1407 1.363 . S
C1412 C1411 1.415 . S
C1413 H1389 0.951 . S
C1413 C1414 1.366 . S
C1413 C1415 1.388 . S
C1414 C1413 1.366 . S
C1414 C1418 1.385 . S
C1415 H1390 0.951 . S
C1415 C1413 1.388 . S
C1415 C1416 1.366 1_556 S
C1416 C1415 1.366 1_554 S
C1416 C1417 1.414 1_554 S
C1416 C1419 1.499 . S
C1417 H1391 0.950 1_556 S
C1417 C1416 1.414 1_556 S
C1417 C1418 1.374 . S
C1418 H1392 0.950 . S
C1418 C1414 1.385 . S
C1418 C1417 1.374 . S
C1419 C1416 1.499 . S
C1419 C1420 1.373 . S
C1419 C1421 1.389 . S
C1420 H1393 0.950 . S
C1420 C1406 1.377 . S
C1420 C1419 1.373 . S
C1421 C1405 1.377 . S
C1421 C1419 1.389 . S
C1421 C1422 1.524 . S
C1422 C1421 1.524 . S
C1422 C1423 1.397 . S
C1422 C1427 1.363 . S
C1423 H1394 0.950 . S
C1423 C1422 1.397 . S
C1423 C1424 1.334 . S
C1424 H1395 0.950 1_554 S
C1424 C1423 1.334 . S
C1424 C1425 1.287 . S
C1425 C1424 1.287 . S
C1425 C1426 1.524 . S
C1425 H1428 0.999 . S
C1426 H1396 0.950 . S
C1426 C1425 1.524 . S
C1426 C1427 1.415 . S
C1427 H1397 0.950 . S
C1427 C1422 1.363 . S
C1427 C1426 1.415 . S
H1428 C1425 0.999 . S
H1429 C1410 0.913 . S
H1430 C1448 0.951 . S
H1431 C1450 0.951 . S
H1432 C1452 0.950 1_554 S
H1433 C1453 0.950 . S
H1434 C1455 0.950 . S
H1435 C1458 0.950 . S
H1436 C1459 0.951 . S
H1437 C1461 0.950 . S
H1438 C1462 0.950 . S
H1439 C1463 0.951 . S
H1440 C1465 0.951 . S
H1441 C1467 0.950 . S
H1442 C1468 0.950 . S
H1443 C1470 0.950 . S
H1444 C1473 0.950 . S
H1445 C1474 0.950 . S
H1446 C1476 0.950 . S
H1447 C1477 0.950 . S
C1448 H1430 0.951 . S
C1448 C1449 1.366 . S
C1448 C1450 1.388 . S
C1449 C1448 1.366 . S
C1449 C1453 1.385 . S
C1450 H1431 0.951 . S
C1450 C1448 1.388 . S
C1450 C1451 1.366 1_556 S
C1451 C1450 1.366 1_554 S
C1451 C1452 1.414 1_554 S
C1451 C1454 1.499 . S
C1452 H1432 0.950 1_556 S
C1452 C1451 1.414 1_556 S
C1452 C1453 1.374 . S
C1453 H1433 0.950 . S
C1453 C1449 1.385 . S
C1453 C1452 1.374 . S
C1454 C1451 1.499 . S
C1454 C1455 1.373 . S
C1454 C1456 1.389 . S
C1455 H1434 0.950 . S
C1455 C1454 1.373 . S
C1455 C1471 1.377 . S
C1456 C1454 1.389 . S
C1456 C1457 1.524 . S
C1456 C1470 1.377 . S
C1457 C1456 1.524 . S
C1457 C1458 1.397 . S
C1457 C1462 1.363 . S
C1458 H1435 0.950 . S
C1458 C1457 1.397 . S
C1458 C1459 1.334 . S
C1459 H1436 0.951 . S
C1459 C1458 1.334 . S
C1459 C1460 1.287 . S
C1460 C1459 1.287 . S
C1460 C1461 1.524 . S
C1460 H1479 0.913 . S
C1461 H1437 0.950 . S
C1461 C1460 1.524 . S
C1461 C1462 1.415 . S
C1462 H1438 0.950 . S
C1462 C1457 1.363 . S
C1462 C1461 1.415 . S
C1463 H1439 0.951 . S
C1463 C1464 1.366 . S
C1463 C1465 1.388 . S
C1464 C1463 1.366 . S
C1464 C1468 1.385 . S
C1465 H1440 0.951 . S
C1465 C1463 1.388 . S
C1465 C1466 1.366 . S
C1466 C1465 1.366 . S
C1466 C1467 1.414 . S
C1466 C1469 1.499 . S
C1467 H1441 0.950 . S
C1467 C1466 1.414 . S
C1467 C1468 1.374 . S
C1468 H1442 0.950 . S
C1468 C1464 1.385 . S
C1468 C1467 1.374 . S
C1469 C1466 1.499 . S
C1469 C1470 1.373 . S
C1469 C1471 1.389 . S
C1470 H1443 0.950 . S
C1470 C1456 1.377 . S
C1470 C1469 1.373 . S
C1471 C1455 1.377 . S
C1471 C1469 1.389 . S
C1471 C1472 1.524 . S
C1472 C1471 1.524 . S
C1472 C1473 1.397 . S
C1472 C1477 1.363 . S
C1473 H1444 0.950 . S
C1473 C1472 1.397 . S
C1473 C1474 1.334 . S
C1474 H1445 0.950 . S
C1474 C1473 1.334 . S
C1474 C1475 1.287 . S
C1475 C1474 1.287 . S
C1475 C1476 1.524 . S
C1475 H1478 0.999 . S
C1476 H1446 0.950 . S
C1476 C1475 1.524 . S
C1476 C1477 1.415 . S
C1477 H1447 0.950 . S
C1477 C1472 1.363 . S
C1477 C1476 1.415 . S
H1478 C1475 0.999 . S
H1479 C1460 0.913 . S
H1480 C1498 0.951 . S
H1481 C1500 0.951 . S
H1482 C1502 0.950 . S
H1483 C1503 0.950 . S
H1484 C1505 0.950 . S
H1485 C1508 0.950 . S
H1486 C1509 0.950 . S
H1487 C1511 0.950 . S
H1488 C1512 0.950 . S
H1489 C1513 0.951 . S
H1490 C1515 0.951 . S
H1491 C1517 0.950 1_554 S
H1492 C1518 0.950 . S
H1493 C1520 0.950 . S
H1494 C1523 0.950 . S
H1495 C1524 0.950 1_556 S
H1496 C1526 0.950 . S
H1497 C1527 0.950 . S
C1498 H1480 0.951 . S
C1498 C1499 1.366 . S
C1498 C1500 1.388 . S
C1499 C1498 1.366 . S
C1499 C1503 1.385 . S
C1500 H1481 0.951 . S
C1500 C1498 1.388 . S
C1500 C1501 1.366 . S
C1501 C1500 1.366 . S
C1501 C1502 1.414 . S
C1501 C1504 1.499 . S
C1502 H1482 0.950 . S
C1502 C1501 1.414 . S
C1502 C1503 1.374 . S
C1503 H1483 0.950 . S
C1503 C1499 1.385 . S
C1503 C1502 1.374 . S
C1504 C1501 1.499 . S
C1504 C1505 1.373 . S
C1504 C1506 1.389 . S
C1505 H1484 0.950 . S
C1505 C1504 1.373 . S
C1505 C1521 1.377 . S
C1506 C1504 1.389 . S
C1506 C1507 1.524 . S
C1506 C1520 1.377 . S
C1507 C1506 1.524 . S
C1507 C1508 1.397 . S
C1507 C1512 1.363 . S
C1508 H1485 0.950 . S
C1508 C1507 1.397 . S
C1508 C1509 1.334 . S
C1509 H1486 0.950 . S
C1509 C1508 1.334 . S
C1509 C1510 1.287 . S
C1510 C1509 1.287 . S
C1510 C1511 1.524 . S
C1510 H1529 0.913 . S
C1511 H1487 0.950 . S
C1511 C1510 1.524 . S
C1511 C1512 1.415 . S
C1512 H1488 0.950 . S
C1512 C1507 1.363 . S
C1512 C1511 1.415 . S
C1513 H1489 0.951 . S
C1513 C1514 1.366 . S
C1513 C1515 1.388 . S
C1514 C1513 1.366 . S
C1514 C1518 1.385 . S
C1515 H1490 0.951 . S
C1515 C1513 1.388 . S
C1515 C1516 1.366 1_556 S
C1516 C1515 1.366 1_554 S
C1516 C1517 1.414 1_554 S
C1516 C1519 1.499 . S
C1517 H1491 0.950 1_556 S
C1517 C1516 1.414 1_556 S
C1517 C1518 1.374 . S
C1518 H1492 0.950 . S
C1518 C1514 1.385 . S
C1518 C1517 1.374 . S
C1519 C1516 1.499 . S
C1519 C1520 1.373 . S
C1519 C1521 1.389 . S
C1520 H1493 0.950 . S
C1520 C1506 1.377 . S
C1520 C1519 1.373 . S
C1521 C1505 1.377 . S
C1521 C1519 1.389 . S
C1521 C1522 1.524 . S
C1522 C1521 1.524 . S
C1522 C1523 1.397 . S
C1522 C1527 1.363 . S
C1523 H1494 0.950 . S
C1523 C1522 1.397 . S
C1523 C1524 1.334 . S
C1524 H1495 0.950 1_554 S
C1524 C1523 1.334 . S
C1524 C1525 1.287 . S
C1525 C1524 1.287 . S
C1525 C1526 1.524 . S
C1525 H1528 0.999 . S
C1526 H1496 0.950 . S
C1526 C1525 1.524 . S
C1526 C1527 1.415 . S
C1527 H1497 0.950 . S
C1527 C1522 1.363 . S
C1527 C1526 1.415 . S
H1528 C1525 0.999 . S
H1529 C1510 0.913 . S
C199 C2 1.821 . S
C214 C158 1.778 . S
C249 C22 1.821 . S
C264 C178 1.778 . S
C299 C42 1.821 . S
C314 C138 1.777 . S
C349 C82 1.821 . S
C364 C58 1.778 . S
C399 C102 1.821 . S
C414 C18 1.778 . S
C449 C38 1.779 . S
C464 C62 1.822 . S
C499 C142 1.821 . S
C514 C118 1.778 . S
C549 C162 1.821 . S
C564 C78 1.778 . S
C599 C98 1.778 . S
C614 C122 1.821 . S
C649 C41 1.539 . S
C664 C19 1.558 1_554 S
C699 C39 1.558 1_554 S
C714 C1 1.539 . S
C749 C21 1.539 . S
C764 C59 1.558 1_554 S
C799 C79 1.558 . S
C814 C101 1.538 . S
C849 C61 1.539 . S
C864 C99 1.558 . S
C899 C81 1.539 . S
C914 C119 1.558 . S
C949 C161 1.539 . S
C964 C139 1.558 . S
C999 C159 1.558 . S
C1014 C121 1.538 . S
C1049 C179 1.558 . S
C1064 C141 1.539 . S
C1099 C9 0.861 . S
C1114 C8 0.861 . S
C1149 C29 0.861 . S
C1164 C28 0.861 . S
C1199 C49 0.860 . S
C1214 C48 0.860 . S
C1249 C68 0.861 . S
C1264 C69 0.861 . S
C1299 C88 0.861 . S
C1314 C89 0.861 . S
C1349 C108 0.861 . S
C1364 C109 0.861 . S
C1399 C129 0.860 . S
C1414 C128 0.860 . S
C1449 C148 0.861 . S
C1464 C149 0.861 . S
C1499 C169 0.860 . S
C1514 C168 0.860 . S
