# Generated by pormake.
# Topology rac, (4)-cn, num edge types: 1
# Building blocks:
#     Node 0, Type 0, BuildingBlock: UXUYUI_clean_sbu_0, # of connection points: 4
#     Node 1, Type 0, BuildingBlock: UXUYUI_clean_sbu_0, # of connection points: 4
#     Node 2, Type 0, BuildingBlock: UXUYUI_clean_sbu_0, # of connection points: 4
#     Node 3, Type 0, BuildingBlock: UXUYUI_clean_sbu_0, # of connection points: 4
#     Node 4, Type 0, BuildingBlock: UXUYUI_clean_sbu_0, # of connection points: 4
#     Node 5, Type 0, BuildingBlock: UXUYUI_clean_sbu_0, # of connection points: 4
#     Node 6, Type 0, BuildingBlock: UXUYUI_clean_sbu_0, # of connection points: 4
#     Node 7, Type 0, BuildingBlock: UXUYUI_clean_sbu_0, # of connection points: 4
#     Edge 8, Type (0, 0), BuildingBlock: TEMPAE_clean_linker_10, # of connection points: 2
#     Edge 9, Type (0, 0), BuildingBlock: TEMPAE_clean_linker_10, # of connection points: 2
#     Edge 10, Type (0, 0), BuildingBlock: TEMPAE_clean_linker_10, # of connection points: 2
#     Edge 11, Type (0, 0), BuildingBlock: TEMPAE_clean_linker_10, # of connection points: 2
#     Edge 12, Type (0, 0), BuildingBlock: TEMPAE_clean_linker_10, # of connection points: 2
#     Edge 13, Type (0, 0), BuildingBlock: TEMPAE_clean_linker_10, # of connection points: 2
#     Edge 14, Type (0, 0), BuildingBlock: TEMPAE_clean_linker_10, # of connection points: 2
#     Edge 15, Type (0, 0), BuildingBlock: TEMPAE_clean_linker_10, # of connection points: 2
#     Edge 16, Type (0, 0), BuildingBlock: TEMPAE_clean_linker_10, # of connection points: 2
#     Edge 17, Type (0, 0), BuildingBlock: TEMPAE_clean_linker_10, # of connection points: 2
#     Edge 18, Type (0, 0), BuildingBlock: TEMPAE_clean_linker_10, # of connection points: 2
#     Edge 19, Type (0, 0), BuildingBlock: TEMPAE_clean_linker_10, # of connection points: 2
#     Edge 20, Type (0, 0), BuildingBlock: TEMPAE_clean_linker_10, # of connection points: 2
#     Edge 21, Type (0, 0), BuildingBlock: TEMPAE_clean_linker_10, # of connection points: 2
#     Edge 22, Type (0, 0), BuildingBlock: TEMPAE_clean_linker_10, # of connection points: 2
#     Edge 23, Type (0, 0), BuildingBlock: TEMPAE_clean_linker_10, # of connection points: 2
# Relax obj value: 0.361
# Max RMSD: 0.174
# Mean RMSD: 0.174
data_MOF--net-rac--node1-UXUYUI_clean_sbu_0--edge1-TEMPAE_clean_linker_10
_symmetry_space_group_name_H-M    P1
_symmetry_Int_Tables_number       1
_symmetry_cell_setting            triclinic
loop_
_symmetry_equiv_pos_as_xyz
'x, y, z'
_cell_length_a     57.71929
_cell_length_b     29.705233
_cell_length_c     62.2215
_cell_angle_alpha  89.997488
_cell_angle_beta   90.006395
_cell_angle_gamma 90.033331
loop_
_atom_site_label
_atom_site_type_symbol
_atom_site_fract_x
_atom_site_fract_y
_atom_site_fract_z
_atom_type_partial_charge
Li0 Li 0.40882 0.2598 0.0572 0.0
Li1 Li 0.39861 0.24368 0.09567 0.0
Li2 Li 0.38024 0.19911 0.06436 0.0
Li3 Li 0.37085 0.27689 0.07041 0.0
C4 C 0.43531 0.18973 0.06772 0.0
N5 N 0.47943 0.16772 0.05421 0.0
C6 C 0.45444 0.20065 0.08046 0.0
C7 C 0.43854 0.16713 0.04827 0.0
C8 C 0.47663 0.18937 0.0733 0.0
C9 C 0.46101 0.15643 0.04168 0.0
C10 C 0.39555 0.34639 0.08229 0.0
C11 C 0.3812 0.40989 0.10247 0.0
N12 N 0.38342 0.43627 0.08473 0.0
C13 C 0.39763 0.37416 0.06425 0.0
C14 C 0.38722 0.36438 0.10156 0.0
C15 C 0.39145 0.41949 0.06581 0.0
C16 C 0.42855 0.30502 0.02087 0.0
N17 N 0.43297 0.2887 0.04091 0.0
C18 C 0.46581 0.3375 0.04426 0.0
C19 C 0.45147 0.30364 0.05243 0.0
C20 C 0.46093 0.3568 0.02414 0.0
C21 C 0.44251 0.33889 0.01206 0.0
H22 H 0.41299 0.29507 0.01251 0.0
H23 H 0.45396 0.29207 0.06873 0.0
C24 C 0.40431 0.20478 0.13694 0.0
N25 N 0.4084 0.24199 0.12483 0.0
C26 C 0.40906 0.20517 0.15899 0.0
C27 C 0.42221 0.28205 0.15557 0.0
C28 C 0.41783 0.27969 0.13354 0.0
C29 C 0.41753 0.24467 0.16882 0.0
H30 H 0.39689 0.17513 0.12954 0.0
H31 H 0.42127 0.30857 0.12348 0.0
C32 C 0.37243 0.23204 0.02338 0.0
N33 N 0.35947 0.19815 0.9838 0.0
C34 C 0.34913 0.23227 0.01721 0.0
C35 C 0.38912 0.21439 0.00945 0.0
C36 C 0.34293 0.21499 0.99714 0.0
C37 C 0.38222 0.19752 0.98948 0.0
C38 C 0.34356 0.22696 0.09695 0.0
C39 C 0.32578 0.21983 0.08208 0.0
C40 C 0.33818 0.23369 0.1186 0.0
C41 C 0.30281 0.21965 0.08914 0.0
C42 C 0.31498 0.23338 0.12502 0.0
N43 N 0.29793 0.2264 0.11029 0.0
C44 C 0.35502 0.12489 0.07771 0.0
C45 C 0.3564 0.12808 0.03975 0.0
C46 C 0.33626 0.09521 0.07697 0.0
N47 N 0.36378 0.1429 0.05931 0.0
C48 C 0.33773 0.09799 0.03825 0.0
C49 C 0.32665 0.08309 0.05707 0.0
H50 H 0.36129 0.13653 0.09311 0.0
H51 H 0.36384 0.14153 0.02525 0.0
C52 C 0.34153 0.3351 0.04827 0.0
N53 N 0.34676 0.31947 0.06821 0.0
C54 C 0.3241 0.36696 0.0456 0.0
C55 C 0.31848 0.36733 0.08415 0.0
C56 C 0.33577 0.33495 0.08604 0.0
C57 C 0.31247 0.3834 0.06372 0.0
H58 H 0.3511 0.32321 0.03448 0.0
H59 H 0.34068 0.32272 0.10174 0.0
O60 O 0.41351 0.20099 0.07432 0.0
O61 O 0.40102 0.30162 0.08091 0.0
O62 O 0.37885 0.24939 0.04286 0.0
O63 O 0.36617 0.22691 0.0904 0.0
H64 H 0.45216 0.21801 0.09562 0.0
H65 H 0.42384 0.15792 0.03841 0.0
H66 H 0.49163 0.19786 0.08291 0.0
H67 H 0.4638 0.1391 0.02661 0.0
H68 H 0.37459 0.42415 0.11725 0.0
H69 H 0.40366 0.36081 0.04911 0.0
H70 H 0.38486 0.34324 0.11554 0.0
H71 H 0.39292 0.44128 0.05195 0.0
H72 H 0.47988 0.35007 0.0541 0.0
H73 H 0.4378 0.35328 0.99668 0.0
H74 H 0.40575 0.17494 0.1682 0.0
H75 H 0.4284 0.31356 0.16213 0.0
H76 H 0.33595 0.24542 0.02785 0.0
H77 H 0.4072 0.21368 0.01399 0.0
H78 H 0.32497 0.21489 0.99217 0.0
H79 H 0.39495 0.18382 0.97853 0.0
H80 H 0.32969 0.21454 0.06526 0.0
H81 H 0.35178 0.23921 0.1303 0.0
H82 H 0.28887 0.21413 0.07782 0.0
H83 H 0.31053 0.23865 0.14172 0.0
H84 H 0.3286 0.08366 0.09188 0.0
H85 H 0.33104 0.08907 0.02256 0.0
H86 H 0.32004 0.37926 0.02965 0.0
H87 H 0.30979 0.37949 0.09845 0.0
Li88 Li 0.09223 0.74095 0.06119 0.0
Li89 Li 0.10232 0.75726 0.09894 0.0
Li90 Li 0.12028 0.80225 0.0675 0.0
Li91 Li 0.13004 0.72429 0.07337 0.0
C92 C 0.06554 0.80832 0.07001 0.0
N93 N 0.02174 0.82339 0.05371 0.0
C94 C 0.04606 0.80057 0.08281 0.0
C95 C 0.06281 0.82395 0.04898 0.0
C96 C 0.02404 0.80836 0.07426 0.0
C97 C 0.0405 0.83129 0.04102 0.0
C98 C 0.10619 0.6542 0.08511 0.0
C99 C 0.12402 0.59124 0.10322 0.0
N100 N 0.11906 0.56454 0.08607 0.0
C101 C 0.10135 0.6261 0.06764 0.0
C102 C 0.11768 0.63662 0.10304 0.0
C103 C 0.10794 0.58089 0.06846 0.0
C104 C 0.06988 0.70153 0.02446 0.0
N105 N 0.06745 0.71338 0.04546 0.0
C106 C 0.03616 0.66136 0.04977 0.0
C107 C 0.05055 0.69507 0.05792 0.0
C108 C 0.0393 0.64599 0.02862 0.0
C109 C 0.05575 0.66788 0.0156 0.0
H110 H 0.08401 0.71528 0.01514 0.0
H111 H 0.04956 0.70381 0.07477 0.0
C112 C 0.09078 0.79748 0.13931 0.0
N113 N 0.0917 0.75852 0.12792 0.0
C114 C 0.08529 0.79667 0.16123 0.0
C115 C 0.08187 0.71578 0.15912 0.0
C116 C 0.08656 0.71839 0.13719 0.0
C117 C 0.0814 0.75518 0.17171 0.0
H118 H 0.09474 0.82906 0.13147 0.0
H119 H 0.08682 0.68804 0.12769 0.0
C120 C 0.13951 0.76061 0.03181 0.0
N121 N 0.17602 0.77657 0.00408 0.0
C122 C 0.16189 0.76677 0.03984 0.0
C123 C 0.13571 0.76236 0.00964 0.0
C124 C 0.18012 0.77485 0.02559 0.0
C125 C 0.15439 0.77052 0.99589 0.0
C126 C 0.15368 0.77308 0.10675 0.0
C127 C 0.17469 0.79276 0.10058 0.0
C128 C 0.15187 0.75295 0.12701 0.0
C129 C 0.19356 0.79137 0.11462 0.0
C130 C 0.17115 0.75222 0.14058 0.0
N131 N 0.19142 0.77127 0.13415 0.0
C132 C 0.14406 0.87912 0.07958 0.0
C133 C 0.14353 0.87066 0.04175 0.0
C134 C 0.16249 0.90946 0.07823 0.0
N135 N 0.13587 0.85847 0.06162 0.0
C136 C 0.16198 0.90113 0.03964 0.0
C137 C 0.17247 0.91908 0.05816 0.0
H138 H 0.13773 0.86889 0.0952 0.0
H139 H 0.13673 0.85413 0.02763 0.0
C140 C 0.15542 0.65942 0.05098 0.0
N141 N 0.154 0.68065 0.07031 0.0
C142 C 0.17192 0.62596 0.04763 0.0
C143 C 0.18453 0.63545 0.08443 0.0
C144 C 0.16809 0.66923 0.08694 0.0
C145 C 0.18654 0.61363 0.06457 0.0
H146 H 0.14349 0.66801 0.03824 0.0
H147 H 0.16616 0.68512 0.10235 0.0
O148 O 0.08718 0.79997 0.0779 0.0
O149 O 0.10039 0.69893 0.08439 0.0
O150 O 0.12132 0.75289 0.04546 0.0
O151 O 0.13477 0.77488 0.09343 0.0
H152 H 0.04795 0.78833 0.09911 0.0
H153 H 0.07778 0.82991 0.03888 0.0
H154 H 0.00878 0.80233 0.08393 0.0
H155 H 0.03809 0.84318 0.02474 0.0
H156 H 0.13308 0.57734 0.11692 0.0
H157 H 0.0929 0.63902 0.05345 0.0
H158 H 0.12224 0.658 0.11646 0.0
H159 H 0.10433 0.55886 0.05502 0.0
H160 H 0.02357 0.6457 0.0603 0.0
H161 H 0.05889 0.65677 0.99928 0.0
H162 H 0.08447 0.82829 0.16981 0.0
H163 H 0.07949 0.68274 0.16606 0.0
H164 H 0.16515 0.76516 0.05687 0.0
H165 H 0.11849 0.75776 0.00312 0.0
H166 H 0.19751 0.77975 0.03163 0.0
H167 H 0.15168 0.7721 0.9787 0.0
H168 H 0.1765 0.80923 0.08519 0.0
H169 H 0.1359 0.73736 0.13211 0.0
H170 H 0.20989 0.80642 0.11 0.0
H171 H 0.16999 0.73644 0.15621 0.0
H172 H 0.16975 0.92323 0.09288 0.0
H173 H 0.16906 0.90782 0.02384 0.0
H174 H 0.1729 0.60921 0.03219 0.0
H175 H 0.19557 0.62643 0.09784 0.0
Li176 Li 0.37215 0.22434 0.42629 0.0
Li177 Li 0.37848 0.30232 0.43525 0.0
Li178 Li 0.3996 0.26514 0.40341 0.0
Li179 Li 0.40819 0.24446 0.44115 0.0
C180 C 0.34858 0.27369 0.39308 0.0
N181 N 0.31336 0.26822 0.36301 0.0
C182 C 0.32656 0.29076 0.39777 0.0
C183 C 0.35266 0.25421 0.37296 0.0
C184 C 0.30899 0.28754 0.3824 0.0
C185 C 0.33464 0.25167 0.35802 0.0
C186 C 0.35799 0.25313 0.46749 0.0
C187 C 0.33899 0.25612 0.502 0.0
N188 N 0.31821 0.26097 0.49195 0.0
C189 C 0.33644 0.25797 0.45754 0.0
C190 C 0.35929 0.25207 0.48992 0.0
C191 C 0.31654 0.26195 0.47016 0.0
C192 C 0.35235 0.14909 0.44476 0.0
N193 N 0.35046 0.17614 0.42722 0.0
C194 C 0.32057 0.12975 0.41278 0.0
C195 C 0.33495 0.16724 0.41136 0.0
C196 C 0.32234 0.10094 0.4306 0.0
C197 C 0.33843 0.11104 0.44678 0.0
H198 H 0.36508 0.15666 0.45699 0.0
H199 H 0.33386 0.18855 0.39744 0.0
C200 C 0.35161 0.37771 0.42616 0.0
N201 N 0.36122 0.35543 0.44302 0.0
C202 C 0.33347 0.40805 0.42942 0.0
C203 C 0.33695 0.39572 0.46763 0.0
C204 C 0.35493 0.36514 0.46358 0.0
C205 C 0.32526 0.41638 0.45035 0.0
H206 H 0.35685 0.36938 0.40995 0.0
H207 H 0.36288 0.34728 0.47679 0.0
C208 C 0.39971 0.16041 0.41266 0.0
N209 N 0.39112 0.06983 0.40614 0.0
C210 C 0.4058 0.12887 0.42837 0.0
C211 C 0.38931 0.14575 0.3936 0.0
C212 C 0.40133 0.08327 0.42476 0.0
C213 C 0.38508 0.09987 0.39063 0.0
C214 C 0.43326 0.31538 0.43547 0.0
C215 C 0.45334 0.31106 0.42311 0.0
C216 C 0.43487 0.32832 0.457 0.0
C217 C 0.47484 0.31954 0.43261 0.0
C218 C 0.4567 0.33646 0.46591 0.0
N219 N 0.47606 0.33193 0.45363 0.0
C220 C 0.40782 0.31094 0.36385 0.0
C221 C 0.42008 0.23495 0.36521 0.0
C222 C 0.41277 0.31298 0.34186 0.0
N223 N 0.41107 0.27199 0.37489 0.0
C224 C 0.42467 0.23508 0.34321 0.0
C225 C 0.42061 0.27419 0.33099 0.0
H226 H 0.40058 0.33991 0.37197 0.0
H227 H 0.42267 0.20451 0.37438 0.0
C228 C 0.42729 0.20296 0.47833 0.0
N229 N 0.43222 0.21783 0.45817 0.0
C230 C 0.44116 0.17004 0.48802 0.0
C231 C 0.46566 0.17041 0.45655 0.0
C232 C 0.45135 0.20327 0.44748 0.0
C233 C 0.46009 0.15194 0.47671 0.0
H234 H 0.41153 0.21374 0.48614 0.0
H235 H 0.45439 0.21424 0.43115 0.0
O236 O 0.36619 0.27721 0.4078 0.0
O237 O 0.37781 0.24988 0.45548 0.0
O238 O 0.4034 0.20541 0.41613 0.0
O239 O 0.41212 0.3063 0.42661 0.0
H240 H 0.32295 0.30645 0.41308 0.0
H241 H 0.36942 0.24063 0.36894 0.0
H242 H 0.29189 0.30052 0.38588 0.0
H243 H 0.33758 0.23645 0.34246 0.0
H244 H 0.33976 0.25553 0.51937 0.0
H245 H 0.3351 0.25858 0.44028 0.0
H246 H 0.37582 0.24859 0.49794 0.0
H247 H 0.29977 0.26582 0.46261 0.0
H248 H 0.30812 0.12355 0.4001 0.0
H249 H 0.34051 0.08942 0.46066 0.0
H250 H 0.32506 0.42248 0.41549 0.0
H251 H 0.33174 0.40178 0.48408 0.0
H252 H 0.41355 0.13938 0.44335 0.0
H253 H 0.3842 0.16958 0.38137 0.0
H254 H 0.40586 0.05859 0.43684 0.0
H255 H 0.37688 0.08816 0.37602 0.0
H256 H 0.45231 0.30091 0.40642 0.0
H257 H 0.41943 0.33161 0.46676 0.0
H258 H 0.49056 0.31617 0.42328 0.0
H259 H 0.45825 0.3463 0.48258 0.0
H260 H 0.40992 0.34435 0.33343 0.0
H261 H 0.4303 0.20399 0.33582 0.0
H262 H 0.43606 0.15651 0.50347 0.0
H263 H 0.4802 0.15782 0.44735 0.0
Li264 Li 0.12078 0.69843 0.43932 0.0
Li265 Li 0.13312 0.77439 0.42701 0.0
Li266 Li 0.09526 0.7652 0.44233 0.0
Li267 Li 0.10224 0.73704 0.40644 0.0
C268 C 0.12096 0.76312 0.47717 0.0
N269 N 0.10929 0.78491 0.51893 0.0
C270 C 0.12945 0.80263 0.48648 0.0
C271 C 0.10662 0.7346 0.48909 0.0
C272 C 0.12333 0.81307 0.50762 0.0
C273 C 0.10089 0.74623 0.51018 0.0
C274 C 0.15638 0.71949 0.40252 0.0
C275 C 0.18217 0.74016 0.37366 0.0
N276 N 0.20059 0.72771 0.38594 0.0
C277 C 0.17556 0.70682 0.41484 0.0
C278 C 0.15968 0.73624 0.38176 0.0
C279 C 0.19777 0.71125 0.40617 0.0
C280 C 0.14215 0.61563 0.43267 0.0
N281 N 0.13612 0.64469 0.44858 0.0
C282 C 0.1642 0.61181 0.47215 0.0
C283 C 0.1463 0.64258 0.46827 0.0
C284 C 0.17218 0.58375 0.45545 0.0
C285 C 0.16021 0.58493 0.43573 0.0
H286 H 0.13443 0.61917 0.41691 0.0
H287 H 0.14181 0.66698 0.48045 0.0
C288 C 0.16255 0.84451 0.41202 0.0
N289 N 0.15967 0.81126 0.42673 0.0
C290 C 0.1818 0.87262 0.4131 0.0
C291 C 0.1949 0.83145 0.44437 0.0
C292 C 0.17543 0.80396 0.44259 0.0
C293 C 0.19807 0.86669 0.42964 0.0
H294 H 0.14984 0.84981 0.39966 0.0
H295 H 0.17263 0.77717 0.45408 0.0
C296 C 0.06447 0.69667 0.43624 0.0
N297 N 0.01863 0.68263 0.44702 0.0
C298 C 0.04691 0.71831 0.42476 0.0
C299 C 0.05877 0.66777 0.45315 0.0
C300 C 0.02382 0.71081 0.43047 0.0
C301 C 0.03547 0.66116 0.45838 0.0
C302 C 0.096 0.82901 0.4015 0.0
C303 C 0.07554 0.85317 0.40495 0.0
C304 C 0.10782 0.83397 0.38202 0.0
C305 C 0.06751 0.88247 0.38905 0.0
C306 C 0.09921 0.86354 0.3665 0.0
N307 N 0.07942 0.88703 0.37032 0.0
C308 C 0.08399 0.84489 0.46047 0.0
C309 C 0.05361 0.79354 0.46771 0.0
C310 C 0.07138 0.88022 0.46934 0.0
N311 N 0.07484 0.80278 0.45924 0.0
C312 C 0.04025 0.82821 0.47679 0.0
C313 C 0.04891 0.87255 0.47712 0.0
H314 H 0.10094 0.85142 0.45373 0.0
H315 H 0.04669 0.75985 0.46695 0.0
C316 C 0.10182 0.69524 0.36577 0.0
N317 N 0.09092 0.7269 0.37783 0.0
C318 C 0.09723 0.69171 0.34377 0.0
C319 C 0.06979 0.75254 0.34714 0.0
C320 C 0.0742 0.75352 0.36919 0.0
C321 C 0.08182 0.72211 0.33383 0.0
H322 H 0.11472 0.67376 0.37309 0.0
H323 H 0.06515 0.7775 0.37912 0.0
O324 O 0.12618 0.75291 0.4563 0.0
O325 O 0.13454 0.71652 0.41094 0.0
O326 O 0.08713 0.70302 0.43068 0.0
O327 O 0.10406 0.79995 0.41687 0.0
H328 H 0.14044 0.82522 0.47739 0.0
H329 H 0.09982 0.70403 0.48203 0.0
H330 H 0.12967 0.84364 0.51502 0.0
H331 H 0.08973 0.72458 0.51957 0.0
H332 H 0.18498 0.75317 0.35764 0.0
H333 H 0.17338 0.69441 0.43105 0.0
H334 H 0.14505 0.74624 0.372 0.0
H335 H 0.21277 0.7018 0.41556 0.0
H336 H 0.17247 0.61172 0.48777 0.0
H337 H 0.16579 0.56485 0.42217 0.0
H338 H 0.18382 0.89897 0.40121 0.0
H339 H 0.20695 0.82599 0.45745 0.0
H340 H 0.05108 0.7409 0.4117 0.0
H341 H 0.07219 0.65056 0.46209 0.0
H342 H 0.01004 0.72745 0.42178 0.0
H343 H 0.03077 0.63893 0.47144 0.0
H344 H 0.06575 0.84904 0.41962 0.0
H345 H 0.12314 0.81431 0.37866 0.0
H346 H 0.05173 0.90138 0.39155 0.0
H347 H 0.10816 0.86752 0.35134 0.0
H348 H 0.07903 0.91352 0.46972 0.0
H349 H 0.02304 0.82073 0.48271 0.0
H350 H 0.10626 0.6661 0.3347 0.0
H351 H 0.05786 0.77712 0.34071 0.0
Li352 Li 0.59313 0.73584 0.93875 0.0
Li353 Li 0.62784 0.71121 0.91947 0.0
Li354 Li 0.62521 0.79079 0.93049 0.0
Li355 Li 0.60217 0.76169 0.90034 0.0
C356 C 0.62905 0.74414 0.97024 0.0
N357 N 0.63609 0.76224 0.01329 0.0
C358 C 0.64279 0.71549 0.98268 0.0
C359 C 0.61907 0.78219 0.97963 0.0
C360 C 0.64608 0.72515 0.00444 0.0
C361 C 0.6228 0.79072 0.00143 0.0
C362 C 0.59608 0.65579 0.90619 0.0
C363 C 0.60486 0.59681 0.8808 0.0
N364 N 0.59918 0.56546 0.89583 0.0
C365 C 0.59031 0.62293 0.92138 0.0
C366 C 0.60338 0.6426 0.88571 0.0
C367 C 0.59199 0.57748 0.91583 0.0
C368 C 0.54968 0.69673 0.94668 0.0
N369 N 0.56968 0.70895 0.9567 0.0
C370 C 0.56152 0.65855 0.98576 0.0
C371 C 0.57534 0.69169 0.97627 0.0
C372 C 0.5418 0.64247 0.97495 0.0
C373 C 0.53538 0.66346 0.95558 0.0
H374 H 0.54593 0.70975 0.93082 0.0
H375 H 0.59144 0.70079 0.98386 0.0
C376 C 0.66404 0.65831 0.90208 0.0
N377 N 0.64794 0.66168 0.91789 0.0
C378 C 0.67904 0.62163 0.90158 0.0
C379 C 0.66058 0.59283 0.93369 0.0
C380 C 0.64598 0.63011 0.93357 0.0
C381 C 0.67746 0.58846 0.9176 0.0
H382 H 0.66552 0.6844 0.8901 0.0
H383 H 0.63308 0.63409 0.94604 0.0
C384 C 0.58295 0.84025 0.9299 0.0
N385 N 0.56673 0.9259 0.93841 0.0
C386 C 0.58573 0.8745 0.91474 0.0
C387 C 0.57156 0.84932 0.94924 0.0
C388 C 0.57751 0.91765 0.91937 0.0
C389 C 0.56359 0.89291 0.95329 0.0
C390 C 0.64488 0.78057 0.88396 0.0
C391 C 0.65366 0.82432 0.88238 0.0
C392 C 0.64463 0.75293 0.86576 0.0
C393 C 0.66187 0.8398 0.86259 0.0
C394 C 0.65294 0.76969 0.84625 0.0
N395 N 0.66131 0.81243 0.84508 0.0
C396 C 0.66644 0.81956 0.9477 0.0
C397 C 0.64391 0.88244 0.93735 0.0
C398 C 0.68548 0.84713 0.9519 0.0
N399 N 0.64624 0.83724 0.94028 0.0
C400 C 0.66274 0.91137 0.94109 0.0
C401 C 0.68415 0.89362 0.94794 0.0
H402 H 0.66814 0.78351 0.94944 0.0
H403 H 0.628 0.89595 0.93096 0.0
C404 C 0.57582 0.74029 0.86363 0.0
N405 N 0.58949 0.77291 0.87226 0.0
C406 C 0.57034 0.74095 0.84176 0.0
C407 C 0.59152 0.81072 0.83837 0.0
C408 C 0.59649 0.80881 0.86033 0.0
C409 C 0.57898 0.77563 0.82867 0.0
H410 H 0.57018 0.71239 0.87347 0.0
H411 H 0.6072 0.83459 0.86748 0.0
O412 O 0.62581 0.73534 0.94888 0.0
O413 O 0.59506 0.70054 0.91146 0.0
O414 O 0.59048 0.79759 0.92551 0.0
O415 O 0.63658 0.765 0.90319 0.0
H416 H 0.6508 0.68608 0.9756 0.0
H417 H 0.60875 0.80503 0.97014 0.0
H418 H 0.65661 0.70319 0.01429 0.0
H419 H 0.61516 0.82006 0.00891 0.0
H420 H 0.61057 0.58619 0.86503 0.0
H421 H 0.58503 0.63222 0.93742 0.0
H422 H 0.60799 0.66741 0.87376 0.0
H423 H 0.5877 0.55176 0.92748 0.0
H424 H 0.56693 0.64393 0.0009 0.0
H425 H 0.52046 0.65196 0.94656 0.0
H426 H 0.69216 0.61992 0.88916 0.0
H427 H 0.65875 0.56785 0.94625 0.0
H428 H 0.59439 0.86799 0.89967 0.0
H429 H 0.56878 0.82291 0.96095 0.0
H430 H 0.57972 0.94458 0.90785 0.0
H431 H 0.55484 0.90047 0.96823 0.0
H432 H 0.65405 0.84621 0.89624 0.0
H433 H 0.63779 0.71913 0.8666 0.0
H434 H 0.66863 0.87364 0.86115 0.0
H435 H 0.65264 0.74879 0.83202 0.0
H436 H 0.70135 0.83179 0.95759 0.0
H437 H 0.66086 0.94688 0.93758 0.0
H438 H 0.56064 0.71316 0.83496 0.0
H439 H 0.5982 0.83848 0.82893 0.0
Li440 Li 0.91007 0.26117 0.9429 0.0
Li441 Li 0.87348 0.27422 0.92471 0.0
Li442 Li 0.88224 0.20066 0.93573 0.0
Li443 Li 0.90317 0.23286 0.90449 0.0
C444 C 0.87444 0.28661 0.96968 0.0
N445 N 0.86736 0.35381 0.99972 0.0
C446 C 0.87805 0.33168 0.96419 0.0
C447 C 0.86707 0.27576 0.99045 0.0
C448 C 0.87442 0.36515 0.97958 0.0
C449 C 0.86362 0.3102 0.00541 0.0
C450 C 0.90638 0.33474 0.90483 0.0
C451 C 0.90517 0.37677 0.87163 0.0
N452 N 0.91173 0.4145 0.88241 0.0
C453 C 0.91324 0.37397 0.91553 0.0
C454 C 0.90242 0.33617 0.88266 0.0
C455 C 0.91578 0.41393 0.90394 0.0
C456 C 0.95026 0.31196 0.94746 0.0
N457 N 0.93325 0.29252 0.95942 0.0
C458 C 0.94416 0.33665 0.98999 0.0
C459 C 0.93068 0.30269 0.98061 0.0
C460 C 0.96064 0.35982 0.97751 0.0
C461 C 0.96422 0.34578 0.95621 0.0
H462 H 0.95182 0.3036 0.9306 0.0
H463 H 0.91729 0.28652 0.98995 0.0
C464 C 0.83022 0.30729 0.93631 0.0
N465 N 0.84765 0.31372 0.92194 0.0
C466 C 0.81043 0.33399 0.93556 0.0
C467 C 0.8265 0.37256 0.90476 0.0
C468 C 0.846 0.34512 0.90614 0.0
C469 C 0.80851 0.36735 0.91972 0.0
H470 H 0.83164 0.28116 0.94833 0.0
H471 H 0.8595 0.34855 0.89438 0.0
C472 C 0.92029 0.15642 0.93532 0.0
N473 N 0.92489 0.06686 0.94635 0.0
C474 C 0.92215 0.12369 0.9193 0.0
C475 C 0.92084 0.14376 0.95694 0.0
C476 C 0.92446 0.07853 0.92521 0.0
C477 C 0.92315 0.09825 0.96219 0.0
C478 C 0.84921 0.22472 0.8981 0.0
C479 C 0.82902 0.21141 0.90878 0.0
C480 C 0.8476 0.24562 0.87803 0.0
C481 C 0.80752 0.21946 0.89923 0.0
C482 C 0.82576 0.2531 0.86902 0.0
N483 N 0.80635 0.24 0.87972 0.0
C484 C 0.85353 0.14642 0.96283 0.0
C485 C 0.86163 0.11685 0.92828 0.0
C486 C 0.83556 0.11521 0.96567 0.0
N487 N 0.8657 0.1474 0.94411 0.0
C488 C 0.84381 0.08531 0.9304 0.0
C489 C 0.8299 0.08531 0.94894 0.0
H490 H 0.85655 0.17199 0.97486 0.0
H491 H 0.87099 0.11932 0.91326 0.0
C492 C 0.93537 0.24845 0.87112 0.0
N493 N 0.91626 0.22449 0.87681 0.0
C494 C 0.94198 0.25115 0.84955 0.0
C495 C 0.91026 0.20142 0.84048 0.0
C496 C 0.90417 0.19997 0.86218 0.0
C497 C 0.92889 0.22857 0.83384 0.0
H498 H 0.94452 0.26791 0.88313 0.0
H499 H 0.88896 0.18146 0.86719 0.0
O500 O 0.87803 0.25308 0.95494 0.0
O501 O 0.90446 0.29488 0.91581 0.0
O502 O 0.91742 0.20059 0.92987 0.0
O503 O 0.8704 0.21824 0.90746 0.0
H504 H 0.88348 0.34075 0.9482 0.0
H505 H 0.8642 0.24107 0.99503 0.0
H506 H 0.87721 0.40014 0.97551 0.0
H507 H 0.85801 0.30224 0.02156 0.0
H508 H 0.90202 0.37831 0.85451 0.0
H509 H 0.91665 0.37371 0.93262 0.0
H510 H 0.8968 0.30651 0.87408 0.0
H511 H 0.92104 0.44448 0.91205 0.0
H512 H 0.94113 0.34582 0.0066 0.0
H513 H 0.9766 0.36277 0.94595 0.0
H514 H 0.79694 0.329 0.94743 0.0
H515 H 0.82542 0.39727 0.892 0.0
H516 H 0.92162 0.13306 0.90249 0.0
H517 H 0.91928 0.16881 0.9695 0.0
H518 H 0.92583 0.05276 0.913 0.0
H519 H 0.9235 0.08787 0.97885 0.0
H520 H 0.82989 0.1957 0.92444 0.0
H521 H 0.86301 0.25643 0.86961 0.0
H522 H 0.79176 0.20959 0.90737 0.0
H523 H 0.82425 0.26946 0.85355 0.0
H524 H 0.82517 0.11667 0.98015 0.0
H525 H 0.84021 0.06261 0.91719 0.0
H526 H 0.95657 0.27212 0.84511 0.0
H527 H 0.89958 0.18383 0.82889 0.0
Li528 Li 0.60354 0.73686 0.59599 0.0
Li529 Li 0.62345 0.70733 0.56414 0.0
Li530 Li 0.63009 0.78206 0.57529 0.0
Li531 Li 0.59364 0.76665 0.55827 0.0
C532 C 0.66035 0.71772 0.59148 0.0
N533 N 0.70677 0.6948 0.58972 0.0
C534 C 0.67395 0.73089 0.57395 0.0
C535 C 0.67046 0.69296 0.60813 0.0
C536 C 0.69735 0.71896 0.57336 0.0
C537 C 0.69393 0.68172 0.60695 0.0
C538 C 0.5818 0.66034 0.57228 0.0
C539 C 0.5609 0.59682 0.55785 0.0
N540 N 0.56708 0.57202 0.57531 0.0
C541 C 0.58774 0.63438 0.59017 0.0
C542 C 0.5681 0.64158 0.55606 0.0
C543 C 0.58022 0.58973 0.59136 0.0
C544 C 0.5727 0.75064 0.63079 0.0
N545 N 0.59232 0.72902 0.62451 0.0
C546 C 0.60071 0.70835 0.6608 0.0
C547 C 0.60606 0.70744 0.63893 0.0
C548 C 0.58106 0.73195 0.66796 0.0
C549 C 0.56667 0.75243 0.65255 0.0
H550 H 0.56232 0.76823 0.619 0.0
H551 H 0.62172 0.69115 0.63352 0.0
C552 C 0.65551 0.65916 0.53714 0.0
N553 N 0.6412 0.65509 0.55447 0.0
C554 C 0.67398 0.62941 0.53418 0.0
C555 C 0.66213 0.58962 0.5661 0.0
C556 C 0.64394 0.62042 0.56858 0.0
C557 C 0.67795 0.59502 0.54917 0.0
H558 H 0.65413 0.68767 0.52658 0.0
H559 H 0.63343 0.61894 0.5829 0.0
C560 C 0.60211 0.84114 0.59302 0.0
N561 N 0.60982 0.92751 0.60782 0.0
C562 C 0.59909 0.87791 0.57928 0.0
C563 C 0.60891 0.84826 0.61431 0.0
C564 C 0.60311 0.92132 0.58707 0.0
C565 C 0.61276 0.8922 0.62147 0.0
C566 C 0.62322 0.75103 0.5242 0.0
C567 C 0.63726 0.77187 0.50883 0.0
C568 C 0.60716 0.71848 0.51778 0.0
C569 C 0.63496 0.75976 0.48724 0.0
C570 C 0.6054 0.70729 0.49604 0.0
N571 N 0.61921 0.728 0.48134 0.0
C572 C 0.66397 0.83427 0.59636 0.0
C573 C 0.65375 0.85798 0.56118 0.0
C574 C 0.67952 0.86989 0.59835 0.0
N575 N 0.65163 0.82906 0.57795 0.0
C576 C 0.66899 0.89419 0.5625 0.0
C577 C 0.68219 0.90034 0.58124 0.0
H578 H 0.66166 0.81079 0.60948 0.0
H579 H 0.64337 0.85309 0.54689 0.0
C580 C 0.55066 0.81117 0.55356 0.0
N581 N 0.57021 0.79956 0.54264 0.0
C582 C 0.53637 0.84592 0.54601 0.0
C583 C 0.56187 0.85452 0.51556 0.0
C584 C 0.57568 0.81993 0.52371 0.0
C585 C 0.5424 0.8692 0.52713 0.0
H586 H 0.54709 0.79577 0.56897 0.0
H587 H 0.59159 0.81191 0.51555 0.0
O588 O 0.63711 0.72727 0.59202 0.0
O589 O 0.58882 0.70426 0.5709 0.0
O590 O 0.59886 0.79832 0.58556 0.0
O591 O 0.62537 0.76261 0.54538 0.0
H592 H 0.66652 0.74951 0.56073 0.0
H593 H 0.66026 0.68206 0.62174 0.0
H594 H 0.70798 0.72868 0.55981 0.0
H595 H 0.70191 0.66241 0.61969 0.0
H596 H 0.55035 0.58183 0.54538 0.0
H597 H 0.59829 0.64832 0.60287 0.0
H598 H 0.56296 0.66141 0.54227 0.0
H599 H 0.58486 0.56917 0.60505 0.0
H600 H 0.61253 0.69267 0.67205 0.0
H601 H 0.55126 0.77065 0.65731 0.0
H602 H 0.68579 0.63477 0.52089 0.0
H603 H 0.6648 0.564 0.57824 0.0
H604 H 0.59399 0.87296 0.56272 0.0
H605 H 0.6115 0.82012 0.62509 0.0
H606 H 0.60098 0.95008 0.57659 0.0
H607 H 0.61817 0.89823 0.63787 0.0
H608 H 0.64981 0.79708 0.51356 0.0
H609 H 0.59624 0.70202 0.52942 0.0
H610 H 0.64571 0.7756 0.47517 0.0
H611 H 0.59304 0.68214 0.49085 0.0
H612 H 0.68957 0.87316 0.61296 0.0
H613 H 0.67029 0.91731 0.5491 0.0
H614 H 0.52166 0.85635 0.55559 0.0
H615 H 0.56704 0.87103 0.50079 0.0
Li616 Li 0.88006 0.30229 0.57094 0.0
Li617 Li 0.90071 0.27367 0.60337 0.0
Li618 Li 0.90853 0.24164 0.5658 0.0
Li619 Li 0.87168 0.22965 0.58364 0.0
C620 C 0.91881 0.34682 0.57062 0.0
N621 N 0.92553 0.43418 0.55683 0.0
C622 C 0.92244 0.38118 0.58557 0.0
C623 C 0.91873 0.35671 0.54867 0.0
C624 C 0.92578 0.42519 0.57827 0.0
C625 C 0.92211 0.40115 0.54202 0.0
C626 C 0.84688 0.28112 0.60908 0.0
C627 C 0.82392 0.25563 0.63909 0.0
N628 N 0.8043 0.26619 0.62807 0.0
C629 C 0.8265 0.29194 0.5981 0.0
C630 C 0.84562 0.26298 0.62977 0.0
C631 C 0.80515 0.28407 0.60796 0.0
C632 C 0.84808 0.34662 0.54407 0.0
N633 N 0.86308 0.35343 0.5606 0.0
C634 C 0.84399 0.42235 0.56974 0.0
C635 C 0.86163 0.39083 0.57313 0.0
C636 C 0.82724 0.41479 0.55367 0.0
C637 C 0.83 0.37696 0.54029 0.0
H638 H 0.84892 0.31572 0.53496 0.0
H639 H 0.87311 0.39461 0.58674 0.0
C640 C 0.93146 0.26074 0.63816 0.0
N641 N 0.91315 0.28533 0.63105 0.0
C642 C 0.93721 0.26063 0.65998 0.0
C643 C 0.90655 0.31445 0.66627 0.0
C644 C 0.90124 0.31313 0.64439 0.0
C645 C 0.92412 0.28651 0.6745 0.0
H646 H 0.94049 0.23865 0.62716 0.0
H647 H 0.88676 0.33233 0.63825 0.0
C648 C 0.87402 0.21359 0.53849 0.0
N649 N 0.86888 0.14519 0.50874 0.0
C650 C 0.87707 0.16875 0.54463 0.0
C651 C 0.86827 0.22363 0.5172 0.0
C652 C 0.87442 0.13466 0.52938 0.0
C653 C 0.86576 0.18859 0.5024 0.0
C654 C 0.90373 0.17107 0.60505 0.0
C655 C 0.9101 0.13088 0.59493 0.0
C656 C 0.89946 0.1711 0.62718 0.0
C657 C 0.91177 0.09141 0.60704 0.0
C658 C 0.90133 0.13094 0.63873 0.0
N659 N 0.90738 0.09225 0.6285 0.0
C660 C 0.94819 0.18896 0.56232 0.0
C661 C 0.93071 0.20202 0.52847 0.0
C662 C 0.96255 0.15591 0.55351 0.0
N663 N 0.93205 0.20997 0.54997 0.0
C664 C 0.94474 0.16911 0.51897 0.0
C665 C 0.96042 0.14445 0.53169 0.0
H666 H 0.94886 0.19573 0.57939 0.0
H667 H 0.91799 0.21949 0.51886 0.0
C668 C 0.82936 0.19243 0.57143 0.0
N669 N 0.84592 0.18995 0.58693 0.0
C670 C 0.81006 0.16439 0.5722 0.0
C671 C 0.8244 0.13358 0.6056 0.0
C672 C 0.84351 0.16206 0.60409 0.0
C673 C 0.80756 0.13406 0.58933 0.0
H674 H 0.83117 0.21618 0.55839 0.0
H675 H 0.85611 0.16223 0.6168 0.0
O676 O 0.91514 0.30371 0.57744 0.0
O677 O 0.86794 0.28741 0.59945 0.0
O678 O 0.87689 0.24772 0.55307 0.0
O679 O 0.90261 0.21043 0.59356 0.0
H680 H 0.92249 0.37395 0.60263 0.0
H681 H 0.91588 0.33036 0.53693 0.0
H682 H 0.92852 0.45221 0.58965 0.0
H683 H 0.92198 0.4094 0.52509 0.0
H684 H 0.82268 0.24136 0.65504 0.0
H685 H 0.82714 0.30569 0.58202 0.0
H686 H 0.86119 0.25416 0.63845 0.0
H687 H 0.78923 0.29201 0.59959 0.0
H688 H 0.8429 0.45125 0.58028 0.0
H689 H 0.81741 0.369 0.52796 0.0
H690 H 0.95077 0.2383 0.66554 0.0
H691 H 0.89635 0.33572 0.67676 0.0
H692 H 0.88128 0.16037 0.56102 0.0
H693 H 0.866 0.25816 0.51208 0.0
H694 H 0.87676 0.09982 0.53395 0.0
H695 H 0.8614 0.1959 0.48585 0.0
H696 H 0.91384 0.13 0.57791 0.0
H697 H 0.89423 0.20154 0.63532 0.0
H698 H 0.91663 0.06013 0.59937 0.0
H699 H 0.89788 0.13052 0.65582 0.0
H700 H 0.97422 0.13775 0.56402 0.0
H701 H 0.94284 0.16212 0.50198 0.0
H702 H 0.79749 0.16584 0.5593 0.0
H703 H 0.82279 0.11155 0.61939 0.0
C704 C 0.30068 0.0223 0.04213 0.0
C705 C 0.30408 0.0587 0.05614 0.0
C706 C 0.2793 0.99941 0.04136 0.0
C707 C 0.26075 0.01374 0.05466 0.0
C708 C 0.264 0.0511 0.06848 0.0
C709 C 0.28559 0.07289 0.06913 0.0
C710 C 0.27667 0.95942 0.0266 0.0
C711 C 0.24467 0.06795 0.08273 0.0
C712 C 0.19867 0.97787 0.04178 0.0
C713 C 0.19498 0.94363 0.05693 0.0
C714 C 0.22002 0.00081 0.04071 0.0
C715 C 0.23825 0.98871 0.05488 0.0
C716 C 0.23471 0.95353 0.06989 0.0
C717 C 0.21315 0.93165 0.07079 0.0
C718 C 0.22298 0.03847 0.02466 0.0
C719 C 0.25369 0.93905 0.08509 0.0
H720 H 0.3149 0.01119 0.03206 0.0
H721 H 0.28794 0.10161 0.07966 0.0
H722 H 0.27281 0.92883 0.0362 0.0
H723 H 0.26186 0.96472 0.01552 0.0
H724 H 0.29251 0.95316 0.01692 0.0
H725 H 0.24966 0.09863 0.09183 0.0
H726 H 0.22913 0.07568 0.0729 0.0
H727 H 0.23968 0.04137 0.09437 0.0
H728 H 0.1847 0.98725 0.03103 0.0
H729 H 0.2106 0.90454 0.08222 0.0
H730 H 0.23801 0.03152 0.01407 0.0
H731 H 0.22665 0.07044 0.03324 0.0
H732 H 0.20734 0.04321 0.0145 0.0
H733 H 0.26945 0.92976 0.0759 0.0
H734 H 0.24848 0.90992 0.0952 0.0
H735 H 0.25844 0.96743 0.09582 0.0
C736 C 0.21282 0.57385 0.46976 0.0
C737 C 0.19408 0.55696 0.45773 0.0
C738 C 0.23422 0.55125 0.47048 0.0
C739 C 0.23731 0.51118 0.4585 0.0
C740 C 0.21841 0.49336 0.44671 0.0
C741 C 0.19703 0.5161 0.44667 0.0
C742 C 0.25375 0.57101 0.48359 0.0
C743 C 0.22098 0.45093 0.43356 0.0
C744 C 0.29816 0.47959 0.44011 0.0
C745 C 0.30366 0.44346 0.45378 0.0
C746 C 0.27677 0.50205 0.44161 0.0
C747 C 0.26054 0.48895 0.45749 0.0
C748 C 0.2663 0.45386 0.47194 0.0
C749 C 0.28762 0.43129 0.46979 0.0
C750 C 0.27131 0.53907 0.42576 0.0
C751 C 0.24971 0.43941 0.48938 0.0
H752 H 0.21112 0.60568 0.47809 0.0
H753 H 0.18269 0.50206 0.43765 0.0
H754 H 0.26127 0.54498 0.49431 0.0
H755 H 0.26777 0.58267 0.47274 0.0
H756 H 0.24799 0.59993 0.49356 0.0
H757 H 0.20453 0.4409 0.42562 0.0
H758 H 0.23437 0.45604 0.42099 0.0
H759 H 0.2269 0.4228 0.4439 0.0
H760 H 0.31048 0.4901 0.42798 0.0
H761 H 0.29133 0.4031 0.48027 0.0
H762 H 0.2673 0.57075 0.43443 0.0
H763 H 0.25571 0.5299 0.41629 0.0
H764 H 0.28584 0.54553 0.41446 0.0
H765 H 0.24417 0.46898 0.49899 0.0
H766 H 0.25748 0.4141 0.50037 0.0
H767 H 0.23392 0.42466 0.48205 0.0
C768 C 0.72702 0.90538 0.94307 0.0
C769 C 0.7054 0.92242 0.94956 0.0
C770 C 0.7472 0.93175 0.94405 0.0
C771 C 0.74588 0.97674 0.95142 0.0
C772 C 0.72418 0.9943 0.95804 0.0
C773 C 0.70424 0.96695 0.95709 0.0
C774 C 0.76992 0.91161 0.9368 0.0
C775 C 0.72199 0.04219 0.96588 0.0
C776 C 0.80228 0.03377 0.96855 0.0
C777 C 0.8084 0.05741 0.94987 0.0
C778 C 0.78187 0.00779 0.96941 0.0
C779 C 0.76707 0.00578 0.95124 0.0
C780 C 0.773 0.0302 0.93248 0.0
C781 C 0.79356 0.05552 0.93201 0.0
C782 C 0.77631 0.98194 0.98965 0.0
C783 C 0.75766 0.02942 0.91282 0.0
H784 H 0.72817 0.87149 0.93673 0.0
H785 H 0.68775 0.98044 0.96234 0.0
H786 H 0.77646 0.93007 0.92254 0.0
H787 H 0.78311 0.91507 0.94966 0.0
H788 H 0.76827 0.87541 0.93257 0.0
H789 H 0.70404 0.05051 0.97092 0.0
H790 H 0.73381 0.04791 0.97968 0.0
H791 H 0.72726 0.06579 0.95295 0.0
H792 H 0.81366 0.03502 0.9824 0.0
H793 H 0.79786 0.07448 0.91767 0.0
H794 H 0.77584 0.94534 0.9861 0.0
H795 H 0.7589 0.99149 0.99565 0.0
H796 H 0.7892 0.98803 0.00259 0.0
H797 H 0.7563 0.99455 0.90656 0.0
H798 H 0.76431 0.05146 0.89978 0.0
H799 H 0.7399 0.04051 0.9171 0.0
C800 C 0.72113 0.59032 0.54597 0.0
C801 C 0.69977 0.56831 0.54842 0.0
C802 C 0.7421 0.56629 0.54625 0.0
C803 C 0.74175 0.51891 0.54879 0.0
C804 C 0.7202 0.4964 0.55096 0.0
C805 C 0.69948 0.52142 0.55095 0.0
C806 C 0.76464 0.59176 0.54431 0.0
C807 C 0.71904 0.44591 0.55343 0.0
C808 C 0.79541 0.45233 0.53224 0.0
C809 C 0.80597 0.44354 0.55217 0.0
C810 C 0.77452 0.4766 0.5309 0.0
C811 C 0.76398 0.49315 0.54988 0.0
C812 C 0.77473 0.48518 0.56998 0.0
C813 C 0.7954 0.46026 0.57089 0.0
C814 C 0.76358 0.48415 0.50915 0.0
C815 C 0.76424 0.50259 0.5906 0.0
H816 H 0.72149 0.62667 0.54441 0.0
H817 H 0.68301 0.50429 0.5528 0.0
H818 H 0.7752 0.58658 0.55901 0.0
H819 H 0.77484 0.57872 0.53054 0.0
H820 H 0.76193 0.62848 0.54204 0.0
H821 H 0.70093 0.43331 0.55403 0.0
H822 H 0.72812 0.42936 0.53985 0.0
H823 H 0.72802 0.4356 0.56841 0.0
H824 H 0.80346 0.44017 0.51763 0.0
H825 H 0.80295 0.45297 0.58644 0.0
H826 H 0.7619 0.52075 0.50598 0.0
H827 H 0.74584 0.4697 0.50893 0.0
H828 H 0.77378 0.4687 0.49594 0.0
H829 H 0.76178 0.53958 0.5896 0.0
H830 H 0.77517 0.49499 0.60484 0.0
H831 H 0.7469 0.48733 0.59307 0.0
C832 C 0.40565 0.22358 0.20653 0.0
C833 C 0.42039 0.24775 0.19271 0.0
C834 C 0.40735 0.22772 0.22895 0.0
C835 C 0.4236 0.25806 0.23793 0.0
C836 C 0.43859 0.28249 0.22423 0.0
C837 C 0.43712 0.27639 0.20187 0.0
C838 C 0.39143 0.20013 0.24303 0.0
C839 C 0.45575 0.31601 0.23315 0.0
C840 C 0.40826 0.2992 0.29396 0.0
C841 C 0.42302 0.27331 0.30702 0.0
C842 C 0.40903 0.29604 0.27146 0.0
C843 C 0.42434 0.26505 0.26164 0.0
C844 C 0.43956 0.23934 0.27456 0.0
C845 C 0.43904 0.24445 0.297 0.0
C846 C 0.39297 0.32504 0.25821 0.0
C847 C 0.45577 0.20515 0.26475 0.0
H848 H 0.3923 0.20205 0.19991 0.0
H849 H 0.44906 0.29451 0.19161 0.0
H850 H 0.40162 0.18185 0.25538 0.0
H851 H 0.37922 0.22264 0.25162 0.0
H852 H 0.3812 0.17525 0.23365 0.0
H853 H 0.46616 0.33246 0.22034 0.0
H854 H 0.44642 0.34246 0.2423 0.0
H855 H 0.46773 0.29916 0.24452 0.0
H856 H 0.39548 0.32108 0.30125 0.0
H857 H 0.45102 0.22509 0.30668 0.0
H858 H 0.37972 0.30362 0.25032 0.0
H859 H 0.40279 0.34241 0.24531 0.0
H860 H 0.38395 0.35076 0.26809 0.0
H861 H 0.44556 0.17897 0.25624 0.0
H862 H 0.46684 0.18843 0.27698 0.0
H863 H 0.46713 0.22143 0.25266 0.0
C864 C 0.05939 0.74185 0.30008 0.0
C865 C 0.07945 0.72416 0.3098 0.0
C866 C 0.05808 0.74848 0.27775 0.0
C867 C 0.07672 0.73477 0.26454 0.0
C868 C 0.09648 0.71476 0.27398 0.0
C869 C 0.09787 0.71082 0.29641 0.0
C870 C 0.03705 0.77151 0.26838 0.0
C871 C 0.11642 0.69812 0.26039 0.0
C872 C 0.06611 0.71605 0.20493 0.0
C873 C 0.07813 0.75241 0.1956 0.0
C874 C 0.06548 0.70988 0.22729 0.0
C875 C 0.07592 0.7422 0.24088 0.0
C876 C 0.08668 0.78053 0.23178 0.0
C877 C 0.08816 0.78462 0.20934 0.0
C878 C 0.05454 0.6677 0.23631 0.0
C879 C 0.09723 0.81673 0.24575 0.0
H880 H 0.04465 0.75119 0.30984 0.0
H881 H 0.11378 0.69817 0.30332 0.0
H882 H 0.04247 0.80231 0.25961 0.0
H883 H 0.02839 0.74917 0.25658 0.0
H884 H 0.02425 0.78114 0.28089 0.0
H885 H 0.12929 0.67885 0.26996 0.0
H886 H 0.10991 0.67625 0.24725 0.0
H887 H 0.12539 0.72709 0.25283 0.0
H888 H 0.05748 0.69162 0.19482 0.0
H889 H 0.09783 0.81257 0.20271 0.0
H890 H 0.04065 0.67644 0.24787 0.0
H891 H 0.06775 0.64805 0.24524 0.0
H892 H 0.04705 0.6459 0.22357 0.0
H893 H 0.08494 0.82675 0.25861 0.0
H894 H 0.10203 0.84715 0.23636 0.0
H895 H 0.11305 0.80362 0.25369 0.0
C896 C 0.59617 0.78127 0.79187 0.0
C897 C 0.5768 0.77289 0.80488 0.0
C898 C 0.59517 0.77532 0.76952 0.0
C899 C 0.57425 0.76074 0.75987 0.0
C900 C 0.55446 0.75319 0.77283 0.0
C901 C 0.55599 0.75918 0.79521 0.0
C902 C 0.61673 0.78345 0.7563 0.0
C903 C 0.5318 0.73805 0.76311 0.0
C904 C 0.56999 0.77994 0.69958 0.0
C905 C 0.57678 0.73789 0.69142 0.0
C906 C 0.56821 0.7874 0.72182 0.0
C907 C 0.57348 0.75207 0.73628 0.0
C908 C 0.57954 0.70913 0.72815 0.0
C909 C 0.58104 0.70253 0.70585 0.0
C910 C 0.56161 0.83362 0.72984 0.0
C911 C 0.58526 0.67055 0.74303 0.0
H912 H 0.61243 0.79105 0.79925 0.0
H913 H 0.54093 0.75293 0.80517 0.0
H914 H 0.62212 0.75169 0.74836 0.0
H915 H 0.61311 0.80831 0.74343 0.0
H916 H 0.6314 0.79603 0.76618 0.0
H917 H 0.51775 0.73563 0.77525 0.0
H918 H 0.52635 0.76185 0.75033 0.0
H919 H 0.53402 0.70461 0.75545 0.0
H920 H 0.56695 0.80767 0.68862 0.0
H921 H 0.58594 0.66976 0.69969 0.0
H922 H 0.57665 0.84925 0.73806 0.0
H923 H 0.54739 0.83112 0.74178 0.0
H924 H 0.556 0.85622 0.7166 0.0
H925 H 0.60103 0.6788 0.75246 0.0
H926 H 0.58836 0.63862 0.73419 0.0
H927 H 0.57096 0.66517 0.75466 0.0
C928 C 0.94933 0.27509 0.70715 0.0
C929 C 0.92723 0.28109 0.69814 0.0
C930 C 0.95209 0.26678 0.72925 0.0
C931 C 0.93231 0.26466 0.74267 0.0
C932 C 0.91003 0.27144 0.73375 0.0
C933 C 0.90776 0.27931 0.71163 0.0
C934 C 0.97611 0.25964 0.73821 0.0
C935 C 0.88847 0.26961 0.74751 0.0
C936 C 0.93185 0.2015 0.79573 0.0
C937 C 0.93294 0.23691 0.8106 0.0
C938 C 0.93278 0.20986 0.77353 0.0
C939 C 0.93463 0.25475 0.76603 0.0
C940 C 0.93668 0.29045 0.78098 0.0
C941 C 0.93585 0.28109 0.80308 0.0
C942 C 0.93078 0.17083 0.7581 0.0
C943 C 0.93847 0.33879 0.77365 0.0
H944 H 0.96449 0.27678 0.69691 0.0
H945 H 0.89058 0.28282 0.70483 0.0
H946 H 0.97962 0.28435 0.75117 0.0
H947 H 0.97737 0.2256 0.74546 0.0
H948 H 0.98974 0.26299 0.7257 0.0
H949 H 0.87251 0.27713 0.73821 0.0
H950 H 0.88669 0.23565 0.75475 0.0
H951 H 0.88986 0.2941 0.76091 0.0
H952 H 0.92981 0.16727 0.80148 0.0
H953 H 0.93636 0.30869 0.81447 0.0
H954 H 0.94482 0.17233 0.74594 0.0
H955 H 0.91407 0.17291 0.74935 0.0
H956 H 0.93163 0.13779 0.76644 0.0
H957 H 0.95236 0.34247 0.76146 0.0
H958 H 0.94209 0.36216 0.78719 0.0
H959 H 0.92196 0.34907 0.76594 0.0
C960 C 0.47782 0.43324 0.03139 0.0
C961 C 0.47334 0.39818 0.01682 0.0
C962 C 0.48855 0.47337 0.02475 0.0
C963 C 0.49506 0.4788 0.00296 0.0
C964 C 0.49064 0.44356 0.98815 0.0
C965 C 0.47978 0.40377 0.99523 0.0
C966 C 0.49282 0.51011 0.04106 0.0
C967 C 0.49744 0.44785 0.96482 0.0
C968 C 0.50529 0.59779 0.98173 0.0
C969 C 0.52952 0.60125 0.98268 0.0
C970 C 0.49383 0.55821 0.98825 0.0
C971 C 0.50689 0.52103 0.99581 0.0
C972 C 0.53134 0.52432 0.99678 0.0
C973 C 0.54231 0.56424 0.99022 0.0
C974 C 0.46773 0.55617 0.98708 0.0
C975 C 0.54595 0.48549 0.00462 0.0
H976 H 0.47246 0.42973 0.048 0.0
H977 H 0.47648 0.37685 0.98389 0.0
H978 H 0.51162 0.51764 0.04201 0.0
H979 H 0.48397 0.5415 0.03597 0.0
H980 H 0.48656 0.50081 0.05735 0.0
H981 H 0.49269 0.41757 0.95531 0.0
H982 H 0.48887 0.47765 0.95759 0.0
H983 H 0.51641 0.4532 0.96349 0.0
H984 H 0.49526 0.6262 0.97601 0.0
H985 H 0.56106 0.56609 0.99057 0.0
H986 H 0.46047 0.54953 0.00328 0.0
H987 H 0.46229 0.52795 0.97654 0.0
H988 H 0.46009 0.58786 0.9808 0.0
H989 H 0.54096 0.47646 0.02129 0.0
H990 H 0.56477 0.49338 0.00436 0.0
H991 H 0.54284 0.45542 0.99445 0.0
C992 C 0.02636 0.5664 0.03451 0.0
C993 C 0.02729 0.6044 0.0211 0.0
C994 C 0.01581 0.52624 0.02769 0.0
C995 C 0.00577 0.52387 0.00696 0.0
C996 C 0.0066 0.56213 0.99334 0.0
C997 C 0.01749 0.60183 0.00051 0.0
C998 C 0.01558 0.48618 0.04264 0.0
C999 C 0.99592 0.56113 0.9712 0.0
C1000 C 0.99617 0.4083 0.98175 0.0
C1001 C 0.9726 0.4007 0.98596 0.0
C1002 C 0.0072 0.44809 0.98854 0.0
C1003 C 0.99432 0.48139 0.99964 0.0
C1004 C 0.97056 0.47381 0.00402 0.0
C1005 C 0.96002 0.43358 0.9972 0.0
C1006 C 0.03263 0.45456 0.98378 0.0
C1007 C 0.95615 0.50849 0.01568 0.0
H1008 H 0.03433 0.56776 0.05027 0.0
H1009 H 0.01812 0.63106 0.9901 0.0
H1010 H 0.99747 0.47579 0.04595 0.0
H1011 H 0.02438 0.4572 0.03491 0.0
H1012 H 0.0243 0.49339 0.05818 0.0
H1013 H 0.99786 0.59373 0.96264 0.0
H1014 H 0.00413 0.53431 0.96141 0.0
H1015 H 0.97721 0.55296 0.9724 0.0
H1016 H 0.00603 0.38297 0.97318 0.0
H1017 H 0.94171 0.4284 1.00017 0.0
H1018 H 0.04232 0.45974 0.99898 0.0
H1019 H 0.03515 0.48516 0.97383 0.0
H1020 H 0.04024 0.42534 0.97517 0.0
H1021 H 0.96367 0.51525 0.03176 0.0
H1022 H 0.93788 0.4976 0.01775 0.0
H1023 H 0.95636 0.54071 0.00665 0.0
C1024 C 0.50553 0.9133 0.52136 0.0
C1025 C 0.52979 0.91077 0.52041 0.0
C1026 C 0.49372 0.95258 0.51499 0.0
C1027 C 0.50645 0.99037 0.50759 0.0
C1028 C 0.53094 0.98819 0.5069 0.0
C1029 C 0.54226 0.94858 0.51331 0.0
C1030 C 0.46759 0.95347 0.51591 0.0
C1031 C 0.54521 0.02769 0.49924 0.0
C1032 C 0.47744 0.07557 0.47067 0.0
C1033 C 0.4724 0.11113 0.48479 0.0
C1034 C 0.48825 0.03604 0.47793 0.0
C1035 C 0.49425 0.03172 0.4999 0.0
C1036 C 0.48916 0.06738 0.51428 0.0
C1037 C 0.47823 0.10657 0.50658 0.0
C1038 C 0.49324 0.99883 0.46205 0.0
C1039 C 0.49539 0.06423 0.53779 0.0
H1040 H 0.49575 0.88427 0.52676 0.0
H1041 H 0.56103 0.94741 0.51298 0.0
H1042 H 0.46167 0.98214 0.52592 0.0
H1043 H 0.46046 0.9586 0.49953 0.0
H1044 H 0.46026 0.92186 0.52261 0.0
H1045 H 0.56412 0.021 0.50016 0.0
H1046 H 0.5407 0.03578 0.48235 0.0
H1047 H 0.54125 0.05791 0.50904 0.0
H1048 H 0.47252 0.07826 0.4539 0.0
H1049 H 0.47445 0.13387 0.51758 0.0
H1050 H 0.48472 0.96721 0.46733 0.0
H1051 H 0.51215 0.99225 0.46142 0.0
H1052 H 0.48714 0.0071 0.44559 0.0
H1053 H 0.4871 0.03415 0.54505 0.0
H1054 H 0.48993 0.09451 0.54696 0.0
H1055 H 0.5144 0.06008 0.53958 0.0
C1056 C 0.96226 0.07469 0.50883 0.0
C1057 C 0.97333 0.10513 0.52274 0.0
C1058 C 0.97371 0.03606 0.50123 0.0
C1059 C 0.99681 0.02744 0.5077 0.0
C1060 C 0.00814 0.05814 0.52161 0.0
C1061 C 0.9963 0.09655 0.52892 0.0
C1062 C 0.96101 0.00427 0.4864 0.0
C1063 C 0.03281 0.05038 0.52878 0.0
C1064 C 0.02124 0.90834 0.50344 0.0
C1065 C 0.03461 0.91127 0.48466 0.0
C1066 C 0.00865 0.94571 0.51104 0.0
C1067 C 0.00935 0.98691 0.49953 0.0
C1068 C 0.02241 0.98969 0.48033 0.0
C1069 C 0.0348 0.95194 0.47314 0.0
C1070 C 0.99493 0.94137 0.53158 0.0
C1071 C 0.02351 0.03276 0.46746 0.0
H1072 H 0.94439 0.08049 0.50425 0.0
H1073 H 0.00509 0.12002 0.53947 0.0
H1074 H 0.97061 0.00084 0.47104 0.0
H1075 H 0.96007 0.9703 0.49376 0.0
H1076 H 0.94313 0.01585 0.48281 0.0
H1077 H 0.03906 0.07707 0.53987 0.0
H1078 H 0.03422 0.01738 0.53703 0.0
H1079 H 0.04444 0.04925 0.5146 0.0
H1080 H 0.02108 0.87717 0.51249 0.0
H1081 H 0.04469 0.95427 0.45837 0.0
H1082 H 0.97656 0.95056 0.52868 0.0
H1083 H 0.00181 0.9651 0.54378 0.0
H1084 H 0.99556 0.90673 0.53828 0.0
H1085 H 0.00579 0.04347 0.46282 0.0
H1086 H 0.0341 0.02914 0.45265 0.0
H1087 H 0.03105 0.06007 0.47741 0.0
C1088 C 0.20401 0.54125 0.07596 0.0
C1089 C 0.20374 0.57773 0.06176 0.0
C1090 C 0.22121 0.50827 0.07447 0.0
C1091 C 0.23868 0.51261 0.05866 0.0
C1092 C 0.23811 0.54884 0.04389 0.0
C1093 C 0.22043 0.58094 0.04552 0.0
C1094 C 0.22107 0.46959 0.09023 0.0
C1095 C 0.25667 0.55471 0.02703 0.0
C1096 C 0.29534 0.45724 0.0734 0.0
C1097 C 0.29422 0.41751 0.06139 0.0
C1098 C 0.27768 0.48931 0.07204 0.0
C1099 C 0.25836 0.48083 0.05862 0.0
C1100 C 0.25736 0.44104 0.04616 0.0
C1101 C 0.27549 0.40987 0.04758 0.0
C1102 C 0.27946 0.5318 0.08528 0.0
C1103 C 0.23683 0.43074 0.03194 0.0
H1104 H 0.19084 0.53881 0.08834 0.0
H1105 H 0.22012 0.60945 0.03464 0.0
H1106 H 0.22227 0.43706 0.08154 0.0
H1107 H 0.2364 0.47198 0.10093 0.0
H1108 H 0.20522 0.46926 0.10036 0.0
H1109 H 0.25283 0.583 0.0159 0.0
H1110 H 0.27355 0.56134 0.03496 0.0
H1111 H 0.25864 0.52341 0.01749 0.0
H1112 H 0.31005 0.46313 0.08387 0.0
H1113 H 0.27471 0.37887 0.0384 0.0
H1114 H 0.2654 0.5325 0.09743 0.0
H1115 H 0.27725 0.5618 0.07486 0.0
H1116 H 0.29635 0.53453 0.09376 0.0
H1117 H 0.22105 0.42688 0.04196 0.0
H1118 H 0.23932 0.39943 0.02246 0.0
H1119 H 0.23363 0.45903 0.02069 0.0
C1120 C 0.30239 0.03496 0.41406 0.0
C1121 C 0.30716 0.06099 0.43232 0.0
C1122 C 0.28622 0.99993 0.41485 0.0
C1123 C 0.27479 0.99047 0.43445 0.0
C1124 C 0.28053 0.0148 0.45324 0.0
C1125 C 0.2966 0.05005 0.45193 0.0
C1126 C 0.28047 0.97467 0.39446 0.0
C1127 C 0.26884 0.00521 0.47447 0.0
C1128 C 0.21415 0.94445 0.42891 0.0
C1129 C 0.21774 0.89821 0.43185 0.0
C1130 C 0.23258 0.97486 0.43013 0.0
C1131 C 0.2551 0.95864 0.43462 0.0
C1132 C 0.25878 0.91219 0.43826 0.0
C1133 C 0.24001 0.88238 0.43675 0.0
C1134 C 0.228 0.02426 0.42616 0.0
C1135 C 0.28258 0.89397 0.44329 0.0
H1136 H 0.31095 0.04264 0.39899 0.0
H1137 H 0.30016 0.0702 0.46607 0.0
H1138 H 0.28148 0.93784 0.39721 0.0
H1139 H 0.26242 0.98246 0.38954 0.0
H1140 H 0.29225 0.98366 0.38101 0.0
H1141 H 0.27742 0.02291 0.48803 0.0
H1142 H 0.25051 0.01631 0.47372 0.0
H1143 H 0.26881 0.96854 0.47783 0.0
H1144 H 0.19686 0.95691 0.42563 0.0
H1145 H 0.24285 0.84661 0.43894 0.0
H1146 H 0.238 0.0358 0.41196 0.0
H1147 H 0.23388 0.04446 0.44013 0.0
H1148 H 0.20936 0.03139 0.42331 0.0
H1149 H 0.29418 0.89906 0.42929 0.0
H1150 H 0.28221 0.8575 0.44725 0.0
H1151 H 0.29027 0.91252 0.45703 0.0
C1152 C 0.7048 0.53863 0.93752 0.0
C1153 C 0.6942 0.55086 0.91812 0.0
C1154 C 0.72218 0.50581 0.93801 0.0
C1155 C 0.72911 0.48499 0.91861 0.0
C1156 C 0.71788 0.49594 0.89909 0.0
C1157 C 0.70051 0.52882 0.89908 0.0
C1158 C 0.7338 0.49487 0.95913 0.0
C1159 C 0.72482 0.4742 0.87812 0.0
C1160 C 0.79089 0.44344 0.91579 0.0
C1161 C 0.78803 0.3971 0.91901 0.0
C1162 C 0.77178 0.47235 0.91547 0.0
C1163 C 0.74931 0.45439 0.9185 0.0
C1164 C 0.74625 0.40762 0.92166 0.0
C1165 C 0.76571 0.37943 0.92187 0.0
C1166 C 0.77566 0.52216 0.91212 0.0
C1167 C 0.72249 0.38747 0.92494 0.0
H1168 H 0.70014 0.55595 0.95223 0.0
H1169 H 0.69207 0.53778 0.88412 0.0
H1170 H 0.73396 0.45796 0.96182 0.0
H1171 H 0.75211 0.50629 0.95869 0.0
H1172 H 0.72508 0.51128 0.97298 0.0
H1173 H 0.71319 0.48397 0.86468 0.0
H1174 H 0.74278 0.48424 0.87395 0.0
H1175 H 0.72462 0.437 0.8797 0.0
H1176 H 0.80816 0.45724 0.9139 0.0
H1177 H 0.76345 0.34351 0.92412 0.0
H1178 H 0.76924 0.54119 0.92625 0.0
H1179 H 0.76573 0.53393 0.89793 0.0
H1180 H 0.79424 0.53053 0.90966 0.0
H1181 H 0.71424 0.40246 0.93937 0.0
H1182 H 0.7231 0.35034 0.92699 0.0
H1183 H 0.71123 0.39544 0.911 0.0
C1184 C 0.71326 0.94812 0.56518 0.0
C1185 C 0.69904 0.93772 0.58276 0.0
C1186 C 0.72995 0.98216 0.5666 0.0
C1187 C 0.73256 0.00604 0.58612 0.0
C1188 C 0.718 0.99632 0.6038 0.0
C1189 C 0.70133 0.96228 0.60188 0.0
C1190 C 0.74518 0.99179 0.54739 0.0
C1191 C 0.72038 0.0212 0.62485 0.0
C1192 C 0.79167 0.05708 0.59559 0.0
C1193 C 0.78792 0.1021 0.58982 0.0
C1194 C 0.7736 0.02569 0.59498 0.0
C1195 C 0.75132 0.03968 0.58828 0.0
C1196 C 0.74727 0.08522 0.58282 0.0
C1197 C 0.76565 0.11599 0.58373 0.0
C1198 C 0.77851 0.97733 0.60095 0.0
C1199 C 0.7237 0.10116 0.57556 0.0
H1200 H 0.71175 0.92885 0.55046 0.0
H1201 H 0.69011 0.95479 0.61539 0.0
H1202 H 0.74441 0.02808 0.54323 0.0
H1203 H 0.76346 0.98382 0.55134 0.0
H1204 H 0.74004 0.97187 0.53304 0.0
H1205 H 0.70704 0.01084 0.63674 0.0
H1206 H 0.73776 0.01479 0.63182 0.0
H1207 H 0.71894 0.058 0.62217 0.0
H1208 H 0.80892 0.04604 0.60002 0.0
H1209 H 0.76261 0.15092 0.57955 0.0
H1210 H 0.77584 0.95534 0.58675 0.0
H1211 H 0.76628 0.96595 0.61359 0.0
H1212 H 0.79649 0.9725 0.60688 0.0
H1213 H 0.71879 0.08377 0.56045 0.0
H1214 H 0.72323 0.13807 0.57273 0.0
H1215 H 0.71042 0.09248 0.58777 0.0
loop_
_geom_bond_atom_site_label_1
_geom_bond_atom_site_label_2
_geom_bond_distance
_geom_bond_site_symmetry_2
_ccdc_geom_bond_type
Li0 N17 1.990 . S
Li0 O60 1.956 . S
Li0 O61 1.970 . S
Li0 O62 1.961 . S
Li1 N25 1.990 . S
Li1 O60 1.970 . S
Li1 O61 1.956 . S
Li1 O63 1.961 . S
Li2 N47 1.990 . S
Li2 O60 1.961 . S
Li2 O62 1.956 . S
Li2 O63 1.970 . S
Li3 N53 1.990 . S
Li3 O61 1.961 . S
Li3 O62 1.970 . S
Li3 O63 1.956 . S
C4 C6 1.348 . S
C4 C7 1.356 . S
C4 O60 1.325 . S
N5 C8 1.314 . S
N5 C9 1.279 . S
C6 C4 1.348 . S
C6 C8 1.353 . S
C6 H64 0.929 . S
C7 C4 1.356 . S
C7 C9 1.358 . S
C7 H65 0.930 . S
C8 N5 1.314 . S
C8 C6 1.353 . S
C8 H66 0.930 . S
C9 N5 1.279 . S
C9 C7 1.358 . S
C9 H67 0.930 . S
C10 C13 1.348 . S
C10 C14 1.356 . S
C10 O61 1.325 . S
C11 N12 1.279 . S
C11 C14 1.358 . S
C11 H68 0.930 . S
N12 C11 1.279 . S
N12 C15 1.314 . S
C13 C10 1.348 . S
C13 C15 1.353 . S
C13 H69 0.929 . S
C14 C10 1.356 . S
C14 C11 1.358 . S
C14 H70 0.930 . S
C15 N12 1.314 . S
C15 C13 1.353 . S
C15 H71 0.930 . S
C16 N17 1.314 . S
C16 C21 1.353 . S
C16 H22 0.930 . S
N17 Li0 1.990 . S
N17 C16 1.314 . S
N17 C19 1.279 . S
C18 C19 1.358 . S
C18 C20 1.356 . S
C18 H72 0.930 . S
C19 N17 1.279 . S
C19 C18 1.358 . S
C19 H23 0.930 . S
C20 C18 1.356 . S
C20 C21 1.348 . S
C21 C16 1.353 . S
C21 C20 1.348 . S
C21 H73 0.932 1_554 S
H22 C16 0.930 . S
H23 C19 0.930 . S
C24 N25 1.314 . S
C24 C26 1.353 . S
C24 H30 0.930 . S
N25 Li1 1.990 . S
N25 C24 1.314 . S
N25 C28 1.279 . S
C26 C24 1.353 . S
C26 C29 1.348 . S
C26 H74 0.929 . S
C27 C28 1.358 . S
C27 C29 1.356 . S
C27 H75 0.930 . S
C28 N25 1.279 . S
C28 C27 1.358 . S
C28 H31 0.930 . S
C29 C26 1.348 . S
C29 C27 1.356 . S
H30 C24 0.930 . S
H31 C28 0.930 . S
C32 C34 1.348 . S
C32 C35 1.356 . S
C32 O62 1.325 . S
N33 C36 1.314 . S
N33 C37 1.279 . S
C34 C32 1.348 . S
C34 C36 1.353 1_554 S
C34 H76 0.929 . S
C35 C32 1.356 . S
C35 C37 1.358 1_554 S
C35 H77 0.930 . S
C36 N33 1.314 . S
C36 C34 1.353 1_556 S
C36 H78 0.930 . S
C37 N33 1.279 . S
C37 C35 1.358 1_556 S
C37 H79 0.930 . S
C38 C39 1.348 . S
C38 C40 1.356 . S
C38 O63 1.325 . S
C39 C38 1.348 . S
C39 C41 1.353 . S
C39 H80 0.929 . S
C40 C38 1.356 . S
C40 C42 1.358 . S
C40 H81 0.930 . S
C41 C39 1.353 . S
C41 N43 1.314 . S
C41 H82 0.930 . S
C42 C40 1.358 . S
C42 N43 1.279 . S
C42 H83 0.930 . S
N43 C41 1.314 . S
N43 C42 1.279 . S
C44 C46 1.353 . S
C44 N47 1.314 . S
C44 H50 0.930 . S
C45 N47 1.279 . S
C45 C48 1.358 . S
C45 H51 0.930 . S
C46 C44 1.353 . S
C46 C49 1.348 . S
C46 H84 0.929 . S
N47 Li2 1.990 . S
N47 C44 1.314 . S
N47 C45 1.279 . S
C48 C45 1.358 . S
C48 C49 1.356 . S
C48 H85 0.930 . S
C49 C46 1.348 . S
C49 C48 1.356 . S
H50 C44 0.930 . S
H51 C45 0.930 . S
C52 N53 1.314 . S
C52 C54 1.353 . S
C52 H58 0.930 . S
N53 Li3 1.990 . S
N53 C52 1.314 . S
N53 C56 1.279 . S
C54 C52 1.353 . S
C54 C57 1.348 . S
C54 H86 0.929 . S
C55 C56 1.358 . S
C55 C57 1.356 . S
C55 H87 0.930 . S
C56 N53 1.279 . S
C56 C55 1.358 . S
C56 H59 0.930 . S
C57 C54 1.348 . S
C57 C55 1.356 . S
H58 C52 0.930 . S
H59 C56 0.930 . S
O60 Li0 1.956 . S
O60 Li1 1.970 . S
O60 Li2 1.961 . S
O60 C4 1.325 . S
O61 Li0 1.970 . S
O61 Li1 1.956 . S
O61 Li3 1.961 . S
O61 C10 1.325 . S
O62 Li0 1.961 . S
O62 Li2 1.956 . S
O62 Li3 1.970 . S
O62 C32 1.325 . S
O63 Li1 1.961 . S
O63 Li2 1.970 . S
O63 Li3 1.956 . S
O63 C38 1.325 . S
H64 C6 0.929 . S
H65 C7 0.930 . S
H66 C8 0.930 . S
H67 C9 0.930 . S
H68 C11 0.930 . S
H69 C13 0.929 . S
H70 C14 0.930 . S
H71 C15 0.930 . S
H72 C18 0.930 . S
H73 C21 0.932 1_556 S
H74 C26 0.929 . S
H75 C27 0.930 . S
H76 C34 0.929 . S
H77 C35 0.930 . S
H78 C36 0.930 . S
H79 C37 0.930 . S
H80 C39 0.929 . S
H81 C40 0.930 . S
H82 C41 0.930 . S
H83 C42 0.930 . S
H84 C46 0.929 . S
H85 C48 0.930 . S
H86 C54 0.929 . S
H87 C55 0.930 . S
Li88 N105 1.990 . S
Li88 O148 1.956 . S
Li88 O149 1.970 . S
Li88 O150 1.961 . S
Li89 N113 1.990 . S
Li89 O148 1.970 . S
Li89 O149 1.956 . S
Li89 O151 1.961 . S
Li90 N135 1.990 . S
Li90 O148 1.961 . S
Li90 O150 1.956 . S
Li90 O151 1.970 . S
Li91 N141 1.990 . S
Li91 O149 1.961 . S
Li91 O150 1.970 . S
Li91 O151 1.956 . S
C92 C94 1.348 . S
C92 C95 1.356 . S
C92 O148 1.325 . S
N93 C96 1.314 . S
N93 C97 1.279 . S
C94 C92 1.348 . S
C94 C96 1.353 . S
C94 H152 0.929 . S
C95 C92 1.356 . S
C95 C97 1.358 . S
C95 H153 0.930 . S
C96 N93 1.314 . S
C96 C94 1.353 . S
C96 H154 0.930 . S
C97 N93 1.279 . S
C97 C95 1.358 . S
C97 H155 0.930 . S
C98 C101 1.348 . S
C98 C102 1.356 . S
C98 O149 1.325 . S
C99 N100 1.279 . S
C99 C102 1.358 . S
C99 H156 0.930 . S
N100 C99 1.279 . S
N100 C103 1.314 . S
C101 C98 1.348 . S
C101 C103 1.353 . S
C101 H157 0.929 . S
C102 C98 1.356 . S
C102 C99 1.358 . S
C102 H158 0.930 . S
C103 N100 1.314 . S
C103 C101 1.353 . S
C103 H159 0.930 . S
C104 N105 1.314 . S
C104 C109 1.353 . S
C104 H110 0.930 . S
N105 Li88 1.990 . S
N105 C104 1.314 . S
N105 C107 1.279 . S
C106 C107 1.358 . S
C106 C108 1.356 . S
C106 H160 0.930 . S
C107 N105 1.279 . S
C107 C106 1.358 . S
C107 H111 0.930 . S
C108 C106 1.356 . S
C108 C109 1.348 . S
C109 C104 1.353 . S
C109 C108 1.348 . S
C109 H161 0.932 1_554 S
H110 C104 0.930 . S
H111 C107 0.930 . S
C112 N113 1.314 . S
C112 C114 1.353 . S
C112 H118 0.930 . S
N113 Li89 1.990 . S
N113 C112 1.314 . S
N113 C116 1.279 . S
C114 C112 1.353 . S
C114 C117 1.348 . S
C114 H162 0.929 . S
C115 C116 1.358 . S
C115 C117 1.356 . S
C115 H163 0.930 . S
C116 N113 1.279 . S
C116 C115 1.358 . S
C116 H119 0.930 . S
C117 C114 1.348 . S
C117 C115 1.356 . S
H118 C112 0.930 . S
H119 C116 0.930 . S
C120 C122 1.348 . S
C120 C123 1.356 . S
C120 O150 1.325 . S
N121 C124 1.314 . S
N121 C125 1.279 . S
C122 C120 1.348 . S
C122 C124 1.353 1_554 S
C122 H164 0.929 . S
C123 C120 1.356 . S
C123 C125 1.358 1_554 S
C123 H165 0.930 . S
C124 N121 1.314 . S
C124 C122 1.353 1_556 S
C124 H166 0.930 . S
C125 N121 1.279 . S
C125 C123 1.358 1_556 S
C125 H167 0.930 . S
C126 C127 1.348 . S
C126 C128 1.356 . S
C126 O151 1.325 . S
C127 C126 1.348 . S
C127 C129 1.353 . S
C127 H168 0.929 . S
C128 C126 1.356 . S
C128 C130 1.358 . S
C128 H169 0.930 . S
C129 C127 1.353 . S
C129 N131 1.314 . S
C129 H170 0.930 . S
C130 C128 1.358 . S
C130 N131 1.279 . S
C130 H171 0.930 . S
N131 C129 1.314 . S
N131 C130 1.279 . S
C132 C134 1.353 . S
C132 N135 1.314 . S
C132 H138 0.930 . S
C133 N135 1.279 . S
C133 C136 1.358 . S
C133 H139 0.930 . S
C134 C132 1.353 . S
C134 C137 1.348 . S
C134 H172 0.929 . S
N135 Li90 1.990 . S
N135 C132 1.314 . S
N135 C133 1.279 . S
C136 C133 1.358 . S
C136 C137 1.356 . S
C136 H173 0.930 . S
C137 C134 1.348 . S
C137 C136 1.356 . S
H138 C132 0.930 . S
H139 C133 0.930 . S
C140 N141 1.314 . S
C140 C142 1.353 . S
C140 H146 0.930 . S
N141 Li91 1.990 . S
N141 C140 1.314 . S
N141 C144 1.279 . S
C142 C140 1.353 . S
C142 C145 1.348 . S
C142 H174 0.929 . S
C143 C144 1.358 . S
C143 C145 1.356 . S
C143 H175 0.930 . S
C144 N141 1.279 . S
C144 C143 1.358 . S
C144 H147 0.930 . S
C145 C142 1.348 . S
C145 C143 1.356 . S
H146 C140 0.930 . S
H147 C144 0.930 . S
O148 Li88 1.956 . S
O148 Li89 1.970 . S
O148 Li90 1.961 . S
O148 C92 1.325 . S
O149 Li88 1.970 . S
O149 Li89 1.956 . S
O149 Li91 1.961 . S
O149 C98 1.325 . S
O150 Li88 1.961 . S
O150 Li90 1.956 . S
O150 Li91 1.970 . S
O150 C120 1.325 . S
O151 Li89 1.961 . S
O151 Li90 1.970 . S
O151 Li91 1.956 . S
O151 C126 1.325 . S
H152 C94 0.929 . S
H153 C95 0.930 . S
H154 C96 0.930 . S
H155 C97 0.930 . S
H156 C99 0.930 . S
H157 C101 0.929 . S
H158 C102 0.930 . S
H159 C103 0.930 . S
H160 C106 0.930 . S
H161 C109 0.932 1_556 S
H162 C114 0.929 . S
H163 C115 0.930 . S
H164 C122 0.929 . S
H165 C123 0.930 . S
H166 C124 0.930 . S
H167 C125 0.930 . S
H168 C127 0.929 . S
H169 C128 0.930 . S
H170 C129 0.930 . S
H171 C130 0.930 . S
H172 C134 0.929 . S
H173 C136 0.930 . S
H174 C142 0.929 . S
H175 C143 0.930 . S
Li176 N193 1.990 . S
Li176 O236 1.956 . S
Li176 O237 1.970 . S
Li176 O238 1.961 . S
Li177 N201 1.990 . S
Li177 O236 1.970 . S
Li177 O237 1.956 . S
Li177 O239 1.961 . S
Li178 N223 1.990 . S
Li178 O236 1.961 . S
Li178 O238 1.956 . S
Li178 O239 1.970 . S
Li179 N229 1.990 . S
Li179 O237 1.961 . S
Li179 O238 1.970 . S
Li179 O239 1.956 . S
C180 C182 1.348 . S
C180 C183 1.356 . S
C180 O236 1.325 . S
N181 C184 1.314 . S
N181 C185 1.279 . S
C182 C180 1.348 . S
C182 C184 1.353 . S
C182 H240 0.929 . S
C183 C180 1.356 . S
C183 C185 1.358 . S
C183 H241 0.930 . S
C184 N181 1.314 . S
C184 C182 1.353 . S
C184 H242 0.930 . S
C185 N181 1.279 . S
C185 C183 1.358 . S
C185 H243 0.930 . S
C186 C189 1.348 . S
C186 C190 1.356 . S
C186 O237 1.325 . S
C187 N188 1.279 . S
C187 C190 1.358 . S
C187 H244 0.930 . S
N188 C187 1.279 . S
N188 C191 1.314 . S
C189 C186 1.348 . S
C189 C191 1.353 . S
C189 H245 0.929 . S
C190 C186 1.356 . S
C190 C187 1.358 . S
C190 H246 0.930 . S
C191 N188 1.314 . S
C191 C189 1.353 . S
C191 H247 0.930 . S
C192 N193 1.314 . S
C192 C197 1.353 . S
C192 H198 0.930 . S
N193 Li176 1.990 . S
N193 C192 1.314 . S
N193 C195 1.279 . S
C194 C195 1.358 . S
C194 C196 1.356 . S
C194 H248 0.930 . S
C195 N193 1.279 . S
C195 C194 1.358 . S
C195 H199 0.930 . S
C196 C194 1.356 . S
C196 C197 1.348 . S
C197 C192 1.353 . S
C197 C196 1.348 . S
C197 H249 0.929 . S
H198 C192 0.930 . S
H199 C195 0.930 . S
C200 N201 1.314 . S
C200 C202 1.353 . S
C200 H206 0.930 . S
N201 Li177 1.990 . S
N201 C200 1.314 . S
N201 C204 1.279 . S
C202 C200 1.353 . S
C202 C205 1.348 . S
C202 H250 0.929 . S
C203 C204 1.358 . S
C203 C205 1.356 . S
C203 H251 0.930 . S
C204 N201 1.279 . S
C204 C203 1.358 . S
C204 H207 0.930 . S
C205 C202 1.348 . S
C205 C203 1.356 . S
H206 C200 0.930 . S
H207 C204 0.930 . S
C208 C210 1.348 . S
C208 C211 1.356 . S
C208 O238 1.325 . S
N209 C212 1.314 . S
N209 C213 1.279 . S
C210 C208 1.348 . S
C210 C212 1.353 . S
C210 H252 0.929 . S
C211 C208 1.356 . S
C211 C213 1.358 . S
C211 H253 0.930 . S
C212 N209 1.314 . S
C212 C210 1.353 . S
C212 H254 0.930 . S
C213 N209 1.279 . S
C213 C211 1.358 . S
C213 H255 0.930 . S
C214 C215 1.348 . S
C214 C216 1.356 . S
C214 O239 1.325 . S
C215 C214 1.348 . S
C215 C217 1.353 . S
C215 H256 0.929 . S
C216 C214 1.356 . S
C216 C218 1.358 . S
C216 H257 0.930 . S
C217 C215 1.353 . S
C217 N219 1.314 . S
C217 H258 0.930 . S
C218 C216 1.358 . S
C218 N219 1.279 . S
C218 H259 0.930 . S
N219 C217 1.314 . S
N219 C218 1.279 . S
C220 C222 1.353 . S
C220 N223 1.314 . S
C220 H226 0.930 . S
C221 N223 1.279 . S
C221 C224 1.358 . S
C221 H227 0.930 . S
C222 C220 1.353 . S
C222 C225 1.348 . S
C222 H260 0.929 . S
N223 Li178 1.990 . S
N223 C220 1.314 . S
N223 C221 1.279 . S
C224 C221 1.358 . S
C224 C225 1.356 . S
C224 H261 0.930 . S
C225 C222 1.348 . S
C225 C224 1.356 . S
H226 C220 0.930 . S
H227 C221 0.930 . S
C228 N229 1.314 . S
C228 C230 1.353 . S
C228 H234 0.930 . S
N229 Li179 1.990 . S
N229 C228 1.314 . S
N229 C232 1.279 . S
C230 C228 1.353 . S
C230 C233 1.348 . S
C230 H262 0.929 . S
C231 C232 1.358 . S
C231 C233 1.356 . S
C231 H263 0.930 . S
C232 N229 1.279 . S
C232 C231 1.358 . S
C232 H235 0.930 . S
C233 C230 1.348 . S
C233 C231 1.356 . S
H234 C228 0.930 . S
H235 C232 0.930 . S
O236 Li176 1.956 . S
O236 Li177 1.970 . S
O236 Li178 1.961 . S
O236 C180 1.325 . S
O237 Li176 1.970 . S
O237 Li177 1.956 . S
O237 Li179 1.961 . S
O237 C186 1.325 . S
O238 Li176 1.961 . S
O238 Li178 1.956 . S
O238 Li179 1.970 . S
O238 C208 1.325 . S
O239 Li177 1.961 . S
O239 Li178 1.970 . S
O239 Li179 1.956 . S
O239 C214 1.325 . S
H240 C182 0.929 . S
H241 C183 0.930 . S
H242 C184 0.930 . S
H243 C185 0.930 . S
H244 C187 0.930 . S
H245 C189 0.929 . S
H246 C190 0.930 . S
H247 C191 0.930 . S
H248 C194 0.930 . S
H249 C197 0.929 . S
H250 C202 0.929 . S
H251 C203 0.930 . S
H252 C210 0.929 . S
H253 C211 0.930 . S
H254 C212 0.930 . S
H255 C213 0.930 . S
H256 C215 0.929 . S
H257 C216 0.930 . S
H258 C217 0.930 . S
H259 C218 0.930 . S
H260 C222 0.929 . S
H261 C224 0.930 . S
H262 C230 0.929 . S
H263 C231 0.930 . S
Li264 N281 1.990 . S
Li264 O324 1.956 . S
Li264 O325 1.970 . S
Li264 O326 1.961 . S
Li265 N289 1.990 . S
Li265 O324 1.970 . S
Li265 O325 1.956 . S
Li265 O327 1.961 . S
Li266 N311 1.990 . S
Li266 O324 1.961 . S
Li266 O326 1.956 . S
Li266 O327 1.970 . S
Li267 N317 1.990 . S
Li267 O325 1.961 . S
Li267 O326 1.970 . S
Li267 O327 1.956 . S
C268 C270 1.348 . S
C268 C271 1.356 . S
C268 O324 1.325 . S
N269 C272 1.314 . S
N269 C273 1.279 . S
C270 C268 1.348 . S
C270 C272 1.353 . S
C270 H328 0.929 . S
C271 C268 1.356 . S
C271 C273 1.358 . S
C271 H329 0.930 . S
C272 N269 1.314 . S
C272 C270 1.353 . S
C272 H330 0.930 . S
C273 N269 1.279 . S
C273 C271 1.358 . S
C273 H331 0.930 . S
C274 C277 1.348 . S
C274 C278 1.356 . S
C274 O325 1.325 . S
C275 N276 1.279 . S
C275 C278 1.358 . S
C275 H332 0.930 . S
N276 C275 1.279 . S
N276 C279 1.314 . S
C277 C274 1.348 . S
C277 C279 1.353 . S
C277 H333 0.929 . S
C278 C274 1.356 . S
C278 C275 1.358 . S
C278 H334 0.930 . S
C279 N276 1.314 . S
C279 C277 1.353 . S
C279 H335 0.930 . S
C280 N281 1.314 . S
C280 C285 1.353 . S
C280 H286 0.930 . S
N281 Li264 1.990 . S
N281 C280 1.314 . S
N281 C283 1.279 . S
C282 C283 1.358 . S
C282 C284 1.356 . S
C282 H336 0.930 . S
C283 N281 1.279 . S
C283 C282 1.358 . S
C283 H287 0.930 . S
C284 C282 1.356 . S
C284 C285 1.348 . S
C285 C280 1.353 . S
C285 C284 1.348 . S
C285 H337 0.929 . S
H286 C280 0.930 . S
H287 C283 0.930 . S
C288 N289 1.314 . S
C288 C290 1.353 . S
C288 H294 0.930 . S
N289 Li265 1.990 . S
N289 C288 1.314 . S
N289 C292 1.279 . S
C290 C288 1.353 . S
C290 C293 1.348 . S
C290 H338 0.929 . S
C291 C292 1.358 . S
C291 C293 1.356 . S
C291 H339 0.930 . S
C292 N289 1.279 . S
C292 C291 1.358 . S
C292 H295 0.930 . S
C293 C290 1.348 . S
C293 C291 1.356 . S
H294 C288 0.930 . S
H295 C292 0.930 . S
C296 C298 1.348 . S
C296 C299 1.356 . S
C296 O326 1.325 . S
N297 C300 1.314 . S
N297 C301 1.279 . S
C298 C296 1.348 . S
C298 C300 1.353 . S
C298 H340 0.929 . S
C299 C296 1.356 . S
C299 C301 1.358 . S
C299 H341 0.930 . S
C300 N297 1.314 . S
C300 C298 1.353 . S
C300 H342 0.930 . S
C301 N297 1.279 . S
C301 C299 1.358 . S
C301 H343 0.930 . S
C302 C303 1.348 . S
C302 C304 1.356 . S
C302 O327 1.325 . S
C303 C302 1.348 . S
C303 C305 1.353 . S
C303 H344 0.929 . S
C304 C302 1.356 . S
C304 C306 1.358 . S
C304 H345 0.930 . S
C305 C303 1.353 . S
C305 N307 1.314 . S
C305 H346 0.930 . S
C306 C304 1.358 . S
C306 N307 1.279 . S
C306 H347 0.930 . S
N307 C305 1.314 . S
N307 C306 1.279 . S
C308 C310 1.353 . S
C308 N311 1.314 . S
C308 H314 0.930 . S
C309 N311 1.279 . S
C309 C312 1.358 . S
C309 H315 0.930 . S
C310 C308 1.353 . S
C310 C313 1.348 . S
C310 H348 0.929 . S
N311 Li266 1.990 . S
N311 C308 1.314 . S
N311 C309 1.279 . S
C312 C309 1.358 . S
C312 C313 1.356 . S
C312 H349 0.930 . S
C313 C310 1.348 . S
C313 C312 1.356 . S
H314 C308 0.930 . S
H315 C309 0.930 . S
C316 N317 1.314 . S
C316 C318 1.353 . S
C316 H322 0.930 . S
N317 Li267 1.990 . S
N317 C316 1.314 . S
N317 C320 1.279 . S
C318 C316 1.353 . S
C318 C321 1.348 . S
C318 H350 0.929 . S
C319 C320 1.358 . S
C319 C321 1.356 . S
C319 H351 0.930 . S
C320 N317 1.279 . S
C320 C319 1.358 . S
C320 H323 0.930 . S
C321 C318 1.348 . S
C321 C319 1.356 . S
H322 C316 0.930 . S
H323 C320 0.930 . S
O324 Li264 1.956 . S
O324 Li265 1.970 . S
O324 Li266 1.961 . S
O324 C268 1.325 . S
O325 Li264 1.970 . S
O325 Li265 1.956 . S
O325 Li267 1.961 . S
O325 C274 1.325 . S
O326 Li264 1.961 . S
O326 Li266 1.956 . S
O326 Li267 1.970 . S
O326 C296 1.325 . S
O327 Li265 1.961 . S
O327 Li266 1.970 . S
O327 Li267 1.956 . S
O327 C302 1.325 . S
H328 C270 0.929 . S
H329 C271 0.930 . S
H330 C272 0.930 . S
H331 C273 0.930 . S
H332 C275 0.930 . S
H333 C277 0.929 . S
H334 C278 0.930 . S
H335 C279 0.930 . S
H336 C282 0.930 . S
H337 C285 0.929 . S
H338 C290 0.929 . S
H339 C291 0.930 . S
H340 C298 0.929 . S
H341 C299 0.930 . S
H342 C300 0.930 . S
H343 C301 0.930 . S
H344 C303 0.929 . S
H345 C304 0.930 . S
H346 C305 0.930 . S
H347 C306 0.930 . S
H348 C310 0.929 . S
H349 C312 0.930 . S
H350 C318 0.929 . S
H351 C319 0.930 . S
Li352 N369 1.990 . S
Li352 O412 1.956 . S
Li352 O413 1.970 . S
Li352 O414 1.961 . S
Li353 N377 1.990 . S
Li353 O412 1.970 . S
Li353 O413 1.956 . S
Li353 O415 1.961 . S
Li354 N399 1.990 . S
Li354 O412 1.961 . S
Li354 O414 1.956 . S
Li354 O415 1.970 . S
Li355 N405 1.990 . S
Li355 O413 1.961 . S
Li355 O414 1.970 . S
Li355 O415 1.956 . S
C356 C358 1.348 . S
C356 C359 1.356 . S
C356 O412 1.325 . S
N357 C360 1.314 . S
N357 C361 1.279 . S
C358 C356 1.348 . S
C358 C360 1.353 1_556 S
C358 H416 0.929 . S
C359 C356 1.356 . S
C359 C361 1.358 1_556 S
C359 H417 0.930 . S
C360 N357 1.314 . S
C360 C358 1.353 1_554 S
C360 H418 0.930 . S
C361 N357 1.279 . S
C361 C359 1.358 1_554 S
C361 H419 0.930 . S
C362 C365 1.348 . S
C362 C366 1.356 . S
C362 O413 1.325 . S
C363 N364 1.279 . S
C363 C366 1.358 . S
C363 H420 0.930 . S
N364 C363 1.279 . S
N364 C367 1.314 . S
C365 C362 1.348 . S
C365 C367 1.353 . S
C365 H421 0.929 . S
C366 C362 1.356 . S
C366 C363 1.358 . S
C366 H422 0.930 . S
C367 N364 1.314 . S
C367 C365 1.353 . S
C367 H423 0.930 . S
C368 N369 1.314 . S
C368 C373 1.353 . S
C368 H374 0.930 . S
N369 Li352 1.990 . S
N369 C368 1.314 . S
N369 C371 1.279 . S
C370 C371 1.358 . S
C370 C372 1.356 . S
C370 H424 0.930 1_556 S
C371 N369 1.279 . S
C371 C370 1.358 . S
C371 H375 0.930 . S
C372 C370 1.356 . S
C372 C373 1.348 . S
C373 C368 1.353 . S
C373 C372 1.348 . S
C373 H425 0.929 . S
H374 C368 0.930 . S
H375 C371 0.930 . S
C376 N377 1.314 . S
C376 C378 1.353 . S
C376 H382 0.930 . S
N377 Li353 1.990 . S
N377 C376 1.314 . S
N377 C380 1.279 . S
C378 C376 1.353 . S
C378 C381 1.348 . S
C378 H426 0.929 . S
C379 C380 1.358 . S
C379 C381 1.356 . S
C379 H427 0.930 . S
C380 N377 1.279 . S
C380 C379 1.358 . S
C380 H383 0.930 . S
C381 C378 1.348 . S
C381 C379 1.356 . S
H382 C376 0.930 . S
H383 C380 0.930 . S
C384 C386 1.348 . S
C384 C387 1.356 . S
C384 O414 1.325 . S
N385 C388 1.314 . S
N385 C389 1.279 . S
C386 C384 1.348 . S
C386 C388 1.353 . S
C386 H428 0.929 . S
C387 C384 1.356 . S
C387 C389 1.358 . S
C387 H429 0.930 . S
C388 N385 1.314 . S
C388 C386 1.353 . S
C388 H430 0.930 . S
C389 N385 1.279 . S
C389 C387 1.358 . S
C389 H431 0.930 . S
C390 C391 1.348 . S
C390 C392 1.356 . S
C390 O415 1.325 . S
C391 C390 1.348 . S
C391 C393 1.353 . S
C391 H432 0.929 . S
C392 C390 1.356 . S
C392 C394 1.358 . S
C392 H433 0.930 . S
C393 C391 1.353 . S
C393 N395 1.314 . S
C393 H434 0.930 . S
C394 C392 1.358 . S
C394 N395 1.279 . S
C394 H435 0.930 . S
N395 C393 1.314 . S
N395 C394 1.279 . S
C396 C398 1.353 . S
C396 N399 1.314 . S
C396 H402 0.930 . S
C397 N399 1.279 . S
C397 C400 1.358 . S
C397 H403 0.930 . S
C398 C396 1.353 . S
C398 C401 1.348 . S
C398 H436 0.929 . S
N399 Li354 1.990 . S
N399 C396 1.314 . S
N399 C397 1.279 . S
C400 C397 1.358 . S
C400 C401 1.356 . S
C400 H437 0.930 . S
C401 C398 1.348 . S
C401 C400 1.356 . S
H402 C396 0.930 . S
H403 C397 0.930 . S
C404 N405 1.314 . S
C404 C406 1.353 . S
C404 H410 0.930 . S
N405 Li355 1.990 . S
N405 C404 1.314 . S
N405 C408 1.279 . S
C406 C404 1.353 . S
C406 C409 1.348 . S
C406 H438 0.929 . S
C407 C408 1.358 . S
C407 C409 1.356 . S
C407 H439 0.930 . S
C408 N405 1.279 . S
C408 C407 1.358 . S
C408 H411 0.930 . S
C409 C406 1.348 . S
C409 C407 1.356 . S
H410 C404 0.930 . S
H411 C408 0.930 . S
O412 Li352 1.956 . S
O412 Li353 1.970 . S
O412 Li354 1.961 . S
O412 C356 1.325 . S
O413 Li352 1.970 . S
O413 Li353 1.956 . S
O413 Li355 1.961 . S
O413 C362 1.325 . S
O414 Li352 1.961 . S
O414 Li354 1.956 . S
O414 Li355 1.970 . S
O414 C384 1.325 . S
O415 Li353 1.961 . S
O415 Li354 1.970 . S
O415 Li355 1.956 . S
O415 C390 1.325 . S
H416 C358 0.929 . S
H417 C359 0.930 . S
H418 C360 0.930 . S
H419 C361 0.930 . S
H420 C363 0.930 . S
H421 C365 0.929 . S
H422 C366 0.930 . S
H423 C367 0.930 . S
H424 C370 0.930 1_554 S
H425 C373 0.929 . S
H426 C378 0.929 . S
H427 C379 0.930 . S
H428 C386 0.929 . S
H429 C387 0.930 . S
H430 C388 0.930 . S
H431 C389 0.930 . S
H432 C391 0.929 . S
H433 C392 0.930 . S
H434 C393 0.930 . S
H435 C394 0.930 . S
H436 C398 0.929 . S
H437 C400 0.930 . S
H438 C406 0.929 . S
H439 C407 0.930 . S
Li440 N457 1.990 . S
Li440 O500 1.956 . S
Li440 O501 1.970 . S
Li440 O502 1.961 . S
Li441 N465 1.990 . S
Li441 O500 1.970 . S
Li441 O501 1.956 . S
Li441 O503 1.961 . S
Li442 N487 1.990 . S
Li442 O500 1.961 . S
Li442 O502 1.956 . S
Li442 O503 1.970 . S
Li443 N493 1.990 . S
Li443 O501 1.961 . S
Li443 O502 1.970 . S
Li443 O503 1.956 . S
C444 C446 1.348 . S
C444 C447 1.356 . S
C444 O500 1.325 . S
N445 C448 1.314 . S
N445 C449 1.279 . S
C446 C444 1.348 . S
C446 C448 1.353 1_556 S
C446 H504 0.929 . S
C447 C444 1.356 . S
C447 C449 1.358 1_556 S
C447 H505 0.930 . S
C448 N445 1.314 . S
C448 C446 1.353 1_554 S
C448 H506 0.930 . S
C449 N445 1.279 . S
C449 C447 1.358 1_554 S
C449 H507 0.930 . S
C450 C453 1.348 . S
C450 C454 1.356 . S
C450 O501 1.325 . S
C451 N452 1.279 . S
C451 C454 1.358 . S
C451 H508 0.930 . S
N452 C451 1.279 . S
N452 C455 1.314 . S
C453 C450 1.348 . S
C453 C455 1.353 . S
C453 H509 0.929 . S
C454 C450 1.356 . S
C454 C451 1.358 . S
C454 H510 0.930 . S
C455 N452 1.314 . S
C455 C453 1.353 . S
C455 H511 0.930 . S
C456 N457 1.314 . S
C456 C461 1.353 . S
C456 H462 0.930 . S
N457 Li440 1.990 . S
N457 C456 1.314 . S
N457 C459 1.279 . S
C458 C459 1.358 . S
C458 C460 1.356 . S
C458 H512 0.930 1_556 S
C459 N457 1.279 . S
C459 C458 1.358 . S
C459 H463 0.930 . S
C460 C458 1.356 . S
C460 C461 1.348 . S
C461 C456 1.353 . S
C461 C460 1.348 . S
C461 H513 0.929 . S
H462 C456 0.930 . S
H463 C459 0.930 . S
C464 N465 1.314 . S
C464 C466 1.353 . S
C464 H470 0.930 . S
N465 Li441 1.990 . S
N465 C464 1.314 . S
N465 C468 1.279 . S
C466 C464 1.353 . S
C466 C469 1.348 . S
C466 H514 0.929 . S
C467 C468 1.358 . S
C467 C469 1.356 . S
C467 H515 0.930 . S
C468 N465 1.279 . S
C468 C467 1.358 . S
C468 H471 0.930 . S
C469 C466 1.348 . S
C469 C467 1.356 . S
H470 C464 0.930 . S
H471 C468 0.930 . S
C472 C474 1.348 . S
C472 C475 1.356 . S
C472 O502 1.325 . S
N473 C476 1.314 . S
N473 C477 1.279 . S
C474 C472 1.348 . S
C474 C476 1.353 . S
C474 H516 0.929 . S
C475 C472 1.356 . S
C475 C477 1.358 . S
C475 H517 0.930 . S
C476 N473 1.314 . S
C476 C474 1.353 . S
C476 H518 0.930 . S
C477 N473 1.279 . S
C477 C475 1.358 . S
C477 H519 0.930 . S
C478 C479 1.348 . S
C478 C480 1.356 . S
C478 O503 1.325 . S
C479 C478 1.348 . S
C479 C481 1.353 . S
C479 H520 0.929 . S
C480 C478 1.356 . S
C480 C482 1.358 . S
C480 H521 0.930 . S
C481 C479 1.353 . S
C481 N483 1.314 . S
C481 H522 0.930 . S
C482 C480 1.358 . S
C482 N483 1.279 . S
C482 H523 0.930 . S
N483 C481 1.314 . S
N483 C482 1.279 . S
C484 C486 1.353 . S
C484 N487 1.314 . S
C484 H490 0.930 . S
C485 N487 1.279 . S
C485 C488 1.358 . S
C485 H491 0.930 . S
C486 C484 1.353 . S
C486 C489 1.348 . S
C486 H524 0.929 . S
N487 Li442 1.990 . S
N487 C484 1.314 . S
N487 C485 1.279 . S
C488 C485 1.358 . S
C488 C489 1.356 . S
C488 H525 0.930 . S
C489 C486 1.348 . S
C489 C488 1.356 . S
H490 C484 0.930 . S
H491 C485 0.930 . S
C492 N493 1.314 . S
C492 C494 1.353 . S
C492 H498 0.930 . S
N493 Li443 1.990 . S
N493 C492 1.314 . S
N493 C496 1.279 . S
C494 C492 1.353 . S
C494 C497 1.348 . S
C494 H526 0.929 . S
C495 C496 1.358 . S
C495 C497 1.356 . S
C495 H527 0.930 . S
C496 N493 1.279 . S
C496 C495 1.358 . S
C496 H499 0.930 . S
C497 C494 1.348 . S
C497 C495 1.356 . S
H498 C492 0.930 . S
H499 C496 0.930 . S
O500 Li440 1.956 . S
O500 Li441 1.970 . S
O500 Li442 1.961 . S
O500 C444 1.325 . S
O501 Li440 1.970 . S
O501 Li441 1.956 . S
O501 Li443 1.961 . S
O501 C450 1.325 . S
O502 Li440 1.961 . S
O502 Li442 1.956 . S
O502 Li443 1.970 . S
O502 C472 1.325 . S
O503 Li441 1.961 . S
O503 Li442 1.970 . S
O503 Li443 1.956 . S
O503 C478 1.325 . S
H504 C446 0.929 . S
H505 C447 0.930 . S
H506 C448 0.930 . S
H507 C449 0.930 . S
H508 C451 0.930 . S
H509 C453 0.929 . S
H510 C454 0.930 . S
H511 C455 0.930 . S
H512 C458 0.930 1_554 S
H513 C461 0.929 . S
H514 C466 0.929 . S
H515 C467 0.930 . S
H516 C474 0.929 . S
H517 C475 0.930 . S
H518 C476 0.930 . S
H519 C477 0.930 . S
H520 C479 0.929 . S
H521 C480 0.930 . S
H522 C481 0.930 . S
H523 C482 0.930 . S
H524 C486 0.929 . S
H525 C488 0.930 . S
H526 C494 0.929 . S
H527 C495 0.930 . S
Li528 N545 1.990 . S
Li528 O588 1.956 . S
Li528 O589 1.970 . S
Li528 O590 1.961 . S
Li529 N553 1.990 . S
Li529 O588 1.970 . S
Li529 O589 1.956 . S
Li529 O591 1.961 . S
Li530 N575 1.990 . S
Li530 O588 1.961 . S
Li530 O590 1.956 . S
Li530 O591 1.970 . S
Li531 N581 1.990 . S
Li531 O589 1.961 . S
Li531 O590 1.970 . S
Li531 O591 1.956 . S
C532 C534 1.348 . S
C532 C535 1.356 . S
C532 O588 1.325 . S
N533 C536 1.314 . S
N533 C537 1.279 . S
C534 C532 1.348 . S
C534 C536 1.353 . S
C534 H592 0.929 . S
C535 C532 1.356 . S
C535 C537 1.358 . S
C535 H593 0.930 . S
C536 N533 1.314 . S
C536 C534 1.353 . S
C536 H594 0.930 . S
C537 N533 1.279 . S
C537 C535 1.358 . S
C537 H595 0.930 . S
C538 C541 1.348 . S
C538 C542 1.356 . S
C538 O589 1.325 . S
C539 N540 1.279 . S
C539 C542 1.358 . S
C539 H596 0.930 . S
N540 C539 1.279 . S
N540 C543 1.314 . S
C541 C538 1.348 . S
C541 C543 1.353 . S
C541 H597 0.929 . S
C542 C538 1.356 . S
C542 C539 1.358 . S
C542 H598 0.930 . S
C543 N540 1.314 . S
C543 C541 1.353 . S
C543 H599 0.930 . S
C544 N545 1.314 . S
C544 C549 1.353 . S
C544 H550 0.930 . S
N545 Li528 1.990 . S
N545 C544 1.314 . S
N545 C547 1.279 . S
C546 C547 1.358 . S
C546 C548 1.356 . S
C546 H600 0.930 . S
C547 N545 1.279 . S
C547 C546 1.358 . S
C547 H551 0.930 . S
C548 C546 1.356 . S
C548 C549 1.348 . S
C549 C544 1.353 . S
C549 C548 1.348 . S
C549 H601 0.929 . S
H550 C544 0.930 . S
H551 C547 0.930 . S
C552 N553 1.314 . S
C552 C554 1.353 . S
C552 H558 0.930 . S
N553 Li529 1.990 . S
N553 C552 1.314 . S
N553 C556 1.279 . S
C554 C552 1.353 . S
C554 C557 1.348 . S
C554 H602 0.929 . S
C555 C556 1.358 . S
C555 C557 1.356 . S
C555 H603 0.930 . S
C556 N553 1.279 . S
C556 C555 1.358 . S
C556 H559 0.930 . S
C557 C554 1.348 . S
C557 C555 1.356 . S
H558 C552 0.930 . S
H559 C556 0.930 . S
C560 C562 1.348 . S
C560 C563 1.356 . S
C560 O590 1.325 . S
N561 C564 1.314 . S
N561 C565 1.279 . S
C562 C560 1.348 . S
C562 C564 1.353 . S
C562 H604 0.929 . S
C563 C560 1.356 . S
C563 C565 1.358 . S
C563 H605 0.930 . S
C564 N561 1.314 . S
C564 C562 1.353 . S
C564 H606 0.930 . S
C565 N561 1.279 . S
C565 C563 1.358 . S
C565 H607 0.930 . S
C566 C567 1.348 . S
C566 C568 1.356 . S
C566 O591 1.325 . S
C567 C566 1.348 . S
C567 C569 1.353 . S
C567 H608 0.929 . S
C568 C566 1.356 . S
C568 C570 1.358 . S
C568 H609 0.930 . S
C569 C567 1.353 . S
C569 N571 1.314 . S
C569 H610 0.930 . S
C570 C568 1.358 . S
C570 N571 1.279 . S
C570 H611 0.930 . S
N571 C569 1.314 . S
N571 C570 1.279 . S
C572 C574 1.353 . S
C572 N575 1.314 . S
C572 H578 0.930 . S
C573 N575 1.279 . S
C573 C576 1.358 . S
C573 H579 0.930 . S
C574 C572 1.353 . S
C574 C577 1.348 . S
C574 H612 0.929 . S
N575 Li530 1.990 . S
N575 C572 1.314 . S
N575 C573 1.279 . S
C576 C573 1.358 . S
C576 C577 1.356 . S
C576 H613 0.930 . S
C577 C574 1.348 . S
C577 C576 1.356 . S
H578 C572 0.930 . S
H579 C573 0.930 . S
C580 N581 1.314 . S
C580 C582 1.353 . S
C580 H586 0.930 . S
N581 Li531 1.990 . S
N581 C580 1.314 . S
N581 C584 1.279 . S
C582 C580 1.353 . S
C582 C585 1.348 . S
C582 H614 0.929 . S
C583 C584 1.358 . S
C583 C585 1.356 . S
C583 H615 0.930 . S
C584 N581 1.279 . S
C584 C583 1.358 . S
C584 H587 0.930 . S
C585 C582 1.348 . S
C585 C583 1.356 . S
H586 C580 0.930 . S
H587 C584 0.930 . S
O588 Li528 1.956 . S
O588 Li529 1.970 . S
O588 Li530 1.961 . S
O588 C532 1.325 . S
O589 Li528 1.970 . S
O589 Li529 1.956 . S
O589 Li531 1.961 . S
O589 C538 1.325 . S
O590 Li528 1.961 . S
O590 Li530 1.956 . S
O590 Li531 1.970 . S
O590 C560 1.325 . S
O591 Li529 1.961 . S
O591 Li530 1.970 . S
O591 Li531 1.956 . S
O591 C566 1.325 . S
H592 C534 0.929 . S
H593 C535 0.930 . S
H594 C536 0.930 . S
H595 C537 0.930 . S
H596 C539 0.930 . S
H597 C541 0.929 . S
H598 C542 0.930 . S
H599 C543 0.930 . S
H600 C546 0.930 . S
H601 C549 0.929 . S
H602 C554 0.929 . S
H603 C555 0.930 . S
H604 C562 0.929 . S
H605 C563 0.930 . S
H606 C564 0.930 . S
H607 C565 0.930 . S
H608 C567 0.929 . S
H609 C568 0.930 . S
H610 C569 0.930 . S
H611 C570 0.930 . S
H612 C574 0.929 . S
H613 C576 0.930 . S
H614 C582 0.929 . S
H615 C583 0.930 . S
Li616 N633 1.990 . S
Li616 O676 1.956 . S
Li616 O677 1.970 . S
Li616 O678 1.961 . S
Li617 N641 1.990 . S
Li617 O676 1.970 . S
Li617 O677 1.956 . S
Li617 O679 1.961 . S
Li618 N663 1.990 . S
Li618 O676 1.961 . S
Li618 O678 1.956 . S
Li618 O679 1.970 . S
Li619 N669 1.990 . S
Li619 O677 1.961 . S
Li619 O678 1.970 . S
Li619 O679 1.956 . S
C620 C622 1.348 . S
C620 C623 1.356 . S
C620 O676 1.325 . S
N621 C624 1.314 . S
N621 C625 1.279 . S
C622 C620 1.348 . S
C622 C624 1.353 . S
C622 H680 0.929 . S
C623 C620 1.356 . S
C623 C625 1.358 . S
C623 H681 0.930 . S
C624 N621 1.314 . S
C624 C622 1.353 . S
C624 H682 0.930 . S
C625 N621 1.279 . S
C625 C623 1.358 . S
C625 H683 0.930 . S
C626 C629 1.348 . S
C626 C630 1.356 . S
C626 O677 1.325 . S
C627 N628 1.279 . S
C627 C630 1.358 . S
C627 H684 0.930 . S
N628 C627 1.279 . S
N628 C631 1.314 . S
C629 C626 1.348 . S
C629 C631 1.353 . S
C629 H685 0.929 . S
C630 C626 1.356 . S
C630 C627 1.358 . S
C630 H686 0.930 . S
C631 N628 1.314 . S
C631 C629 1.353 . S
C631 H687 0.930 . S
C632 N633 1.314 . S
C632 C637 1.353 . S
C632 H638 0.930 . S
N633 Li616 1.990 . S
N633 C632 1.314 . S
N633 C635 1.279 . S
C634 C635 1.358 . S
C634 C636 1.356 . S
C634 H688 0.930 . S
C635 N633 1.279 . S
C635 C634 1.358 . S
C635 H639 0.930 . S
C636 C634 1.356 . S
C636 C637 1.348 . S
C637 C632 1.353 . S
C637 C636 1.348 . S
C637 H689 0.929 . S
H638 C632 0.930 . S
H639 C635 0.930 . S
C640 N641 1.314 . S
C640 C642 1.353 . S
C640 H646 0.930 . S
N641 Li617 1.990 . S
N641 C640 1.314 . S
N641 C644 1.279 . S
C642 C640 1.353 . S
C642 C645 1.348 . S
C642 H690 0.929 . S
C643 C644 1.358 . S
C643 C645 1.356 . S
C643 H691 0.930 . S
C644 N641 1.279 . S
C644 C643 1.358 . S
C644 H647 0.930 . S
C645 C642 1.348 . S
C645 C643 1.356 . S
H646 C640 0.930 . S
H647 C644 0.930 . S
C648 C650 1.348 . S
C648 C651 1.356 . S
C648 O678 1.325 . S
N649 C652 1.314 . S
N649 C653 1.279 . S
C650 C648 1.348 . S
C650 C652 1.353 . S
C650 H692 0.929 . S
C651 C648 1.356 . S
C651 C653 1.358 . S
C651 H693 0.930 . S
C652 N649 1.314 . S
C652 C650 1.353 . S
C652 H694 0.930 . S
C653 N649 1.279 . S
C653 C651 1.358 . S
C653 H695 0.930 . S
C654 C655 1.348 . S
C654 C656 1.356 . S
C654 O679 1.325 . S
C655 C654 1.348 . S
C655 C657 1.353 . S
C655 H696 0.929 . S
C656 C654 1.356 . S
C656 C658 1.358 . S
C656 H697 0.930 . S
C657 C655 1.353 . S
C657 N659 1.314 . S
C657 H698 0.930 . S
C658 C656 1.358 . S
C658 N659 1.279 . S
C658 H699 0.930 . S
N659 C657 1.314 . S
N659 C658 1.279 . S
C660 C662 1.353 . S
C660 N663 1.314 . S
C660 H666 0.930 . S
C661 N663 1.279 . S
C661 C664 1.358 . S
C661 H667 0.930 . S
C662 C660 1.353 . S
C662 C665 1.348 . S
C662 H700 0.929 . S
N663 Li618 1.990 . S
N663 C660 1.314 . S
N663 C661 1.279 . S
C664 C661 1.358 . S
C664 C665 1.356 . S
C664 H701 0.930 . S
C665 C662 1.348 . S
C665 C664 1.356 . S
H666 C660 0.930 . S
H667 C661 0.930 . S
C668 N669 1.314 . S
C668 C670 1.353 . S
C668 H674 0.930 . S
N669 Li619 1.990 . S
N669 C668 1.314 . S
N669 C672 1.279 . S
C670 C668 1.353 . S
C670 C673 1.348 . S
C670 H702 0.929 . S
C671 C672 1.358 . S
C671 C673 1.356 . S
C671 H703 0.930 . S
C672 N669 1.279 . S
C672 C671 1.358 . S
C672 H675 0.930 . S
C673 C670 1.348 . S
C673 C671 1.356 . S
H674 C668 0.930 . S
H675 C672 0.930 . S
O676 Li616 1.956 . S
O676 Li617 1.970 . S
O676 Li618 1.961 . S
O676 C620 1.325 . S
O677 Li616 1.970 . S
O677 Li617 1.956 . S
O677 Li619 1.961 . S
O677 C626 1.325 . S
O678 Li616 1.961 . S
O678 Li618 1.956 . S
O678 Li619 1.970 . S
O678 C648 1.325 . S
O679 Li617 1.961 . S
O679 Li618 1.970 . S
O679 Li619 1.956 . S
O679 C654 1.325 . S
H680 C622 0.929 . S
H681 C623 0.930 . S
H682 C624 0.930 . S
H683 C625 0.930 . S
H684 C627 0.930 . S
H685 C629 0.929 . S
H686 C630 0.930 . S
H687 C631 0.930 . S
H688 C634 0.930 . S
H689 C637 0.929 . S
H690 C642 0.929 . S
H691 C643 0.930 . S
H692 C650 0.929 . S
H693 C651 0.930 . S
H694 C652 0.930 . S
H695 C653 0.930 . S
H696 C655 0.929 . S
H697 C656 0.930 . S
H698 C657 0.930 . S
H699 C658 0.930 . S
H700 C662 0.929 . S
H701 C664 0.930 . S
H702 C670 0.929 . S
H703 C671 0.930 . S
C704 C705 1.391 . S
C704 C706 1.394 1_545 S
C704 H720 0.931 . S
C705 C704 1.391 . S
C705 C709 1.376 . S
C706 C704 1.394 1_565 S
C706 C707 1.370 . S
C706 C710 1.531 1_554 S
C707 C706 1.370 . S
C707 C708 1.404 1_565 S
C707 C715 1.507 . S
C708 C707 1.404 1_545 S
C708 C709 1.392 . S
C708 C711 1.511 . S
C709 C705 1.376 . S
C709 C708 1.392 . S
C709 H721 0.929 . S
C710 C706 1.531 1_556 S
C710 H722 0.958 1_556 S
C710 H723 0.962 . S
C710 H724 0.960 . S
C711 C708 1.511 . S
C711 H725 0.961 . S
C711 H726 0.961 . S
C711 H727 0.961 . S
C712 C713 1.370 . S
C712 C714 1.363 1_565 S
C712 H728 0.931 1_565 S
C713 C712 1.370 . S
C713 C717 1.408 . S
C714 C712 1.363 1_545 S
C714 C715 1.370 1_545 S
C714 C718 1.524 . S
C715 C707 1.507 . S
C715 C714 1.370 1_565 S
C715 C716 1.403 . S
C716 C715 1.403 . S
C716 C717 1.404 . S
C716 C719 1.539 . S
C717 C713 1.408 . S
C717 C716 1.404 . S
C717 H729 0.930 . S
C718 C714 1.524 . S
C718 H730 0.956 . S
C718 H731 0.961 . S
C718 H732 0.961 . S
C719 C716 1.539 . S
C719 H733 0.958 . S
C719 H734 0.961 . S
C719 H735 0.960 . S
H720 C704 0.931 . S
H721 C709 0.929 . S
H722 C710 0.958 1_554 S
H723 C710 0.962 . S
H724 C710 0.960 . S
H725 C711 0.961 . S
H726 C711 0.961 . S
H727 C711 0.961 . S
H728 C712 0.931 1_545 S
H729 C717 0.930 . S
H730 C718 0.956 . S
H731 C718 0.961 . S
H732 C718 0.961 . S
H733 C719 0.958 . S
H734 C719 0.961 . S
H735 C719 0.960 . S
C736 C737 1.391 . S
C736 C738 1.394 . S
C736 H752 0.931 . S
C737 C736 1.391 . S
C737 C741 1.376 . S
C738 C736 1.394 . S
C738 C739 1.369 . S
C738 C742 1.531 . S
C739 C738 1.369 . S
C739 C740 1.410 . S
C739 C747 1.503 . S
C740 C739 1.410 . S
C740 C741 1.392 . S
C740 C743 1.511 . S
C741 C737 1.376 . S
C741 C740 1.392 . S
C741 H753 0.929 . S
C742 C738 1.531 . S
C742 H754 0.960 . S
C742 H755 0.962 . S
C742 H756 0.960 . S
C743 C740 1.511 . S
C743 H757 0.961 . S
C743 H758 0.961 . S
C743 H759 0.961 . S
C744 C745 1.370 . S
C744 C746 1.363 . S
C744 H760 0.931 . S
C745 C744 1.370 . S
C745 C749 1.408 . S
C746 C744 1.363 . S
C746 C747 1.370 . S
C746 C750 1.524 . S
C747 C739 1.503 . S
C747 C746 1.370 . S
C747 C748 1.403 . S
C748 C747 1.403 . S
C748 C749 1.404 . S
C748 C751 1.539 . S
C749 C745 1.408 . S
C749 C748 1.404 . S
C749 H761 0.930 . S
C750 C746 1.524 . S
C750 H762 0.956 . S
C750 H763 0.961 . S
C750 H764 0.961 . S
C751 C748 1.539 . S
C751 H765 0.958 . S
C751 H766 0.961 . S
C751 H767 0.960 . S
H752 C736 0.931 . S
H753 C741 0.929 . S
H754 C742 0.960 . S
H755 C742 0.962 . S
H756 C742 0.960 . S
H757 C743 0.961 . S
H758 C743 0.961 . S
H759 C743 0.961 . S
H760 C744 0.931 . S
H761 C749 0.930 . S
H762 C750 0.956 . S
H763 C750 0.961 . S
H764 C750 0.961 . S
H765 C751 0.958 . S
H766 C751 0.961 . S
H767 C751 0.960 . S
C768 C769 1.391 . S
C768 C770 1.394 . S
C768 H784 0.931 . S
C769 C768 1.391 . S
C769 C773 1.376 1_565 S
C770 C768 1.394 . S
C770 C771 1.369 . S
C770 C774 1.531 . S
C771 C770 1.369 . S
C771 C772 1.410 1_565 S
C771 C779 1.503 1_565 S
C772 C771 1.410 1_545 S
C772 C773 1.392 . S
C772 C775 1.511 . S
C773 C769 1.376 1_545 S
C773 C772 1.392 . S
C773 H785 0.929 . S
C774 C770 1.531 . S
C774 H786 0.960 . S
C774 H787 0.962 . S
C774 H788 0.960 . S
C775 C772 1.511 . S
C775 H789 0.961 . S
C775 H790 0.961 . S
C775 H791 0.961 . S
C776 C777 1.370 . S
C776 C778 1.363 . S
C776 H792 0.931 1_556 S
C777 C776 1.370 . S
C777 C781 1.408 . S
C778 C776 1.363 . S
C778 C779 1.370 . S
C778 C782 1.524 1_556 S
C779 C771 1.503 1_545 S
C779 C778 1.370 . S
C779 C780 1.403 . S
C780 C779 1.403 . S
C780 C781 1.404 . S
C780 C783 1.539 . S
C781 C777 1.408 . S
C781 C780 1.404 . S
C781 H793 0.930 . S
C782 C778 1.524 1_554 S
C782 H794 0.956 1_545 S
C782 H795 0.961 . S
C782 H796 0.961 . S
C783 C780 1.539 . S
C783 H797 0.958 1_545 S
C783 H798 0.961 . S
C783 H799 0.960 . S
H784 C768 0.931 . S
H785 C773 0.929 . S
H786 C774 0.960 . S
H787 C774 0.962 . S
H788 C774 0.960 . S
H789 C775 0.961 . S
H790 C775 0.961 . S
H791 C775 0.961 . S
H792 C776 0.931 1_554 S
H793 C781 0.930 . S
H794 C782 0.956 1_565 S
H795 C782 0.961 . S
H796 C782 0.961 . S
H797 C783 0.958 1_565 S
H798 C783 0.961 . S
H799 C783 0.960 . S
C800 C801 1.391 . S
C800 C802 1.394 . S
C800 H816 0.931 . S
C801 C800 1.391 . S
C801 C805 1.376 . S
C802 C800 1.394 . S
C802 C803 1.369 . S
C802 C806 1.531 . S
C803 C802 1.369 . S
C803 C804 1.410 . S
C803 C811 1.503 . S
C804 C803 1.410 . S
C804 C805 1.392 . S
C804 C807 1.511 . S
C805 C801 1.376 . S
C805 C804 1.392 . S
C805 H817 0.929 . S
C806 C802 1.531 . S
C806 H818 0.960 . S
C806 H819 0.962 . S
C806 H820 0.960 . S
C807 C804 1.511 . S
C807 H821 0.961 . S
C807 H822 0.961 . S
C807 H823 0.961 . S
C808 C809 1.370 . S
C808 C810 1.363 . S
C808 H824 0.931 . S
C809 C808 1.370 . S
C809 C813 1.408 . S
C810 C808 1.363 . S
C810 C811 1.370 . S
C810 C814 1.524 . S
C811 C803 1.503 . S
C811 C810 1.370 . S
C811 C812 1.403 . S
C812 C811 1.403 . S
C812 C813 1.404 . S
C812 C815 1.539 . S
C813 C809 1.408 . S
C813 C812 1.404 . S
C813 H825 0.930 . S
C814 C810 1.524 . S
C814 H826 0.956 . S
C814 H827 0.961 . S
C814 H828 0.961 . S
C815 C812 1.539 . S
C815 H829 0.958 . S
C815 H830 0.961 . S
C815 H831 0.960 . S
H816 C800 0.931 . S
H817 C805 0.929 . S
H818 C806 0.960 . S
H819 C806 0.962 . S
H820 C806 0.960 . S
H821 C807 0.961 . S
H822 C807 0.961 . S
H823 C807 0.961 . S
H824 C808 0.931 . S
H825 C813 0.930 . S
H826 C814 0.956 . S
H827 C814 0.961 . S
H828 C814 0.961 . S
H829 C815 0.958 . S
H830 C815 0.961 . S
H831 C815 0.960 . S
C832 C833 1.391 . S
C832 C834 1.394 . S
C832 H848 0.931 . S
C833 C832 1.391 . S
C833 C837 1.376 . S
C834 C832 1.394 . S
C834 C835 1.369 . S
C834 C838 1.531 . S
C835 C834 1.369 . S
C835 C836 1.410 . S
C835 C843 1.503 . S
C836 C835 1.410 . S
C836 C837 1.392 . S
C836 C839 1.511 . S
C837 C833 1.376 . S
C837 C836 1.392 . S
C837 H849 0.929 . S
C838 C834 1.531 . S
C838 H850 0.960 . S
C838 H851 0.962 . S
C838 H852 0.960 . S
C839 C836 1.511 . S
C839 H853 0.961 . S
C839 H854 0.961 . S
C839 H855 0.961 . S
C840 C841 1.370 . S
C840 C842 1.363 . S
C840 H856 0.931 . S
C841 C840 1.370 . S
C841 C845 1.408 . S
C842 C840 1.363 . S
C842 C843 1.370 . S
C842 C846 1.524 . S
C843 C835 1.503 . S
C843 C842 1.370 . S
C843 C844 1.403 . S
C844 C843 1.403 . S
C844 C845 1.404 . S
C844 C847 1.539 . S
C845 C841 1.408 . S
C845 C844 1.404 . S
C845 H857 0.930 . S
C846 C842 1.524 . S
C846 H858 0.956 . S
C846 H859 0.961 . S
C846 H860 0.961 . S
C847 C844 1.539 . S
C847 H861 0.958 . S
C847 H862 0.961 . S
C847 H863 0.960 . S
H848 C832 0.931 . S
H849 C837 0.929 . S
H850 C838 0.960 . S
H851 C838 0.962 . S
H852 C838 0.960 . S
H853 C839 0.961 . S
H854 C839 0.961 . S
H855 C839 0.961 . S
H856 C840 0.931 . S
H857 C845 0.930 . S
H858 C846 0.956 . S
H859 C846 0.961 . S
H860 C846 0.961 . S
H861 C847 0.958 . S
H862 C847 0.961 . S
H863 C847 0.960 . S
C864 C865 1.391 . S
C864 C866 1.394 . S
C864 H880 0.931 . S
C865 C864 1.391 . S
C865 C869 1.376 . S
C866 C864 1.394 . S
C866 C867 1.369 . S
C866 C870 1.531 . S
C867 C866 1.369 . S
C867 C868 1.410 . S
C867 C875 1.503 . S
C868 C867 1.410 . S
C868 C869 1.392 . S
C868 C871 1.511 . S
C869 C865 1.376 . S
C869 C868 1.392 . S
C869 H881 0.929 . S
C870 C866 1.531 . S
C870 H882 0.960 . S
C870 H883 0.962 . S
C870 H884 0.960 . S
C871 C868 1.511 . S
C871 H885 0.961 . S
C871 H886 0.961 . S
C871 H887 0.961 . S
C872 C873 1.370 . S
C872 C874 1.363 . S
C872 H888 0.931 . S
C873 C872 1.370 . S
C873 C877 1.408 . S
C874 C872 1.363 . S
C874 C875 1.370 . S
C874 C878 1.524 . S
C875 C867 1.503 . S
C875 C874 1.370 . S
C875 C876 1.403 . S
C876 C875 1.403 . S
C876 C877 1.404 . S
C876 C879 1.539 . S
C877 C873 1.408 . S
C877 C876 1.404 . S
C877 H889 0.930 . S
C878 C874 1.524 . S
C878 H890 0.956 . S
C878 H891 0.961 . S
C878 H892 0.961 . S
C879 C876 1.539 . S
C879 H893 0.958 . S
C879 H894 0.961 . S
C879 H895 0.960 . S
H880 C864 0.931 . S
H881 C869 0.929 . S
H882 C870 0.960 . S
H883 C870 0.962 . S
H884 C870 0.960 . S
H885 C871 0.961 . S
H886 C871 0.961 . S
H887 C871 0.961 . S
H888 C872 0.931 . S
H889 C877 0.930 . S
H890 C878 0.956 . S
H891 C878 0.961 . S
H892 C878 0.961 . S
H893 C879 0.958 . S
H894 C879 0.961 . S
H895 C879 0.960 . S
C896 C897 1.391 . S
C896 C898 1.394 . S
C896 H912 0.931 . S
C897 C896 1.391 . S
C897 C901 1.376 . S
C898 C896 1.394 . S
C898 C899 1.369 . S
C898 C902 1.531 . S
C899 C898 1.369 . S
C899 C900 1.410 . S
C899 C907 1.503 . S
C900 C899 1.410 . S
C900 C901 1.392 . S
C900 C903 1.511 . S
C901 C897 1.376 . S
C901 C900 1.392 . S
C901 H913 0.929 . S
C902 C898 1.531 . S
C902 H914 0.960 . S
C902 H915 0.962 . S
C902 H916 0.960 . S
C903 C900 1.511 . S
C903 H917 0.961 . S
C903 H918 0.961 . S
C903 H919 0.961 . S
C904 C905 1.370 . S
C904 C906 1.363 . S
C904 H920 0.931 . S
C905 C904 1.370 . S
C905 C909 1.408 . S
C906 C904 1.363 . S
C906 C907 1.370 . S
C906 C910 1.524 . S
C907 C899 1.503 . S
C907 C906 1.370 . S
C907 C908 1.403 . S
C908 C907 1.403 . S
C908 C909 1.404 . S
C908 C911 1.539 . S
C909 C905 1.408 . S
C909 C908 1.404 . S
C909 H921 0.930 . S
C910 C906 1.524 . S
C910 H922 0.956 . S
C910 H923 0.961 . S
C910 H924 0.961 . S
C911 C908 1.539 . S
C911 H925 0.958 . S
C911 H926 0.961 . S
C911 H927 0.960 . S
H912 C896 0.931 . S
H913 C901 0.929 . S
H914 C902 0.960 . S
H915 C902 0.962 . S
H916 C902 0.960 . S
H917 C903 0.961 . S
H918 C903 0.961 . S
H919 C903 0.961 . S
H920 C904 0.931 . S
H921 C909 0.930 . S
H922 C910 0.956 . S
H923 C910 0.961 . S
H924 C910 0.961 . S
H925 C911 0.958 . S
H926 C911 0.961 . S
H927 C911 0.960 . S
C928 C929 1.391 . S
C928 C930 1.394 . S
C928 H944 0.931 . S
C929 C928 1.391 . S
C929 C933 1.376 . S
C930 C928 1.394 . S
C930 C931 1.369 . S
C930 C934 1.531 . S
C931 C930 1.369 . S
C931 C932 1.410 . S
C931 C939 1.503 . S
C932 C931 1.410 . S
C932 C933 1.392 . S
C932 C935 1.511 . S
C933 C929 1.376 . S
C933 C932 1.392 . S
C933 H945 0.929 . S
C934 C930 1.531 . S
C934 H946 0.960 . S
C934 H947 0.962 . S
C934 H948 0.960 . S
C935 C932 1.511 . S
C935 H949 0.961 . S
C935 H950 0.961 . S
C935 H951 0.961 . S
C936 C937 1.370 . S
C936 C938 1.363 . S
C936 H952 0.931 . S
C937 C936 1.370 . S
C937 C941 1.408 . S
C938 C936 1.363 . S
C938 C939 1.370 . S
C938 C942 1.524 . S
C939 C931 1.503 . S
C939 C938 1.370 . S
C939 C940 1.403 . S
C940 C939 1.403 . S
C940 C941 1.404 . S
C940 C943 1.539 . S
C941 C937 1.408 . S
C941 C940 1.404 . S
C941 H953 0.930 . S
C942 C938 1.524 . S
C942 H954 0.956 . S
C942 H955 0.961 . S
C942 H956 0.961 . S
C943 C940 1.539 . S
C943 H957 0.958 . S
C943 H958 0.961 . S
C943 H959 0.960 . S
H944 C928 0.931 . S
H945 C933 0.929 . S
H946 C934 0.960 . S
H947 C934 0.962 . S
H948 C934 0.960 . S
H949 C935 0.961 . S
H950 C935 0.961 . S
H951 C935 0.961 . S
H952 C936 0.931 . S
H953 C941 0.930 . S
H954 C942 0.956 . S
H955 C942 0.961 . S
H956 C942 0.961 . S
H957 C943 0.958 . S
H958 C943 0.961 . S
H959 C943 0.960 . S
C960 C961 1.391 . S
C960 C962 1.394 . S
C960 H976 0.931 . S
C961 C960 1.391 . S
C961 C965 1.376 1_554 S
C962 C960 1.394 . S
C962 C963 1.369 . S
C962 C966 1.531 . S
C963 C962 1.369 . S
C963 C964 1.410 1_554 S
C963 C971 1.503 . S
C964 C963 1.410 1_556 S
C964 C965 1.392 . S
C964 C967 1.511 . S
C965 C961 1.376 1_556 S
C965 C964 1.392 . S
C965 H977 0.929 . S
C966 C962 1.531 . S
C966 H978 0.960 . S
C966 H979 0.962 . S
C966 H980 0.960 . S
C967 C964 1.511 . S
C967 H981 0.961 . S
C967 H982 0.961 . S
C967 H983 0.961 . S
C968 C969 1.370 . S
C968 C970 1.363 . S
C968 H984 0.931 . S
C969 C968 1.370 . S
C969 C973 1.408 1_556 S
C970 C968 1.363 . S
C970 C971 1.370 1_556 S
C970 C974 1.524 . S
C971 C963 1.503 . S
C971 C970 1.370 1_554 S
C971 C972 1.403 . S
C972 C971 1.403 . S
C972 C973 1.404 . S
C972 C975 1.539 . S
C973 C969 1.408 1_554 S
C973 C972 1.404 . S
C973 H985 0.930 . S
C974 C970 1.524 . S
C974 H986 0.956 . S
C974 H987 0.961 . S
C974 H988 0.961 . S
C975 C972 1.539 . S
C975 H989 0.958 . S
C975 H990 0.961 . S
C975 H991 0.960 . S
H976 C960 0.931 . S
H977 C965 0.929 . S
H978 C966 0.960 . S
H979 C966 0.962 . S
H980 C966 0.960 . S
H981 C967 0.961 . S
H982 C967 0.961 . S
H983 C967 0.961 . S
H984 C968 0.931 . S
H985 C973 0.930 . S
H986 C974 0.956 . S
H987 C974 0.961 . S
H988 C974 0.961 . S
H989 C975 0.958 . S
H990 C975 0.961 . S
H991 C975 0.960 . S
C992 C993 1.391 . S
C992 C994 1.394 . S
C992 H1008 0.931 . S
C993 C992 1.391 . S
C993 C997 1.376 1_554 S
C994 C992 1.394 . S
C994 C995 1.369 1_455 S
C994 C998 1.531 . S
C995 C994 1.369 1_655 S
C995 C996 1.410 1_554 S
C995 C1003 1.503 . S
C996 C995 1.410 1_556 S
C996 C997 1.392 1_655 S
C996 C999 1.511 . S
C997 C993 1.376 1_556 S
C997 C996 1.392 1_455 S
C997 H1009 0.929 . S
C998 C994 1.531 . S
C998 H1010 0.960 1_455 S
C998 H1011 0.962 . S
C998 H1012 0.960 . S
C999 C996 1.511 . S
C999 H1013 0.961 . S
C999 H1014 0.961 . S
C999 H1015 0.961 . S
C1000 C1001 1.370 1_455 S
C1000 C1002 1.363 . S
C1000 H1016 0.931 . S
C1001 C1000 1.370 1_655 S
C1001 C1005 1.408 1_556 S
C1002 C1000 1.363 . S
C1002 C1003 1.371 1_456 S
C1002 C1006 1.524 . S
C1003 C995 1.503 . S
C1003 C1002 1.371 1_654 S
C1003 C1004 1.402 . S
C1004 C1003 1.402 . S
C1004 C1005 1.404 . S
C1004 C1007 1.539 . S
C1005 C1001 1.408 1_554 S
C1005 C1004 1.404 . S
C1005 H1017 0.930 . S
C1006 C1002 1.524 . S
C1006 H1018 0.956 1_556 S
C1006 H1019 0.961 . S
C1006 H1020 0.961 . S
C1007 C1004 1.539 . S
C1007 H1021 0.958 . S
C1007 H1022 0.961 . S
C1007 H1023 0.960 . S
H1008 C992 0.931 . S
H1009 C997 0.929 . S
H1010 C998 0.960 1_655 S
H1011 C998 0.962 . S
H1012 C998 0.960 . S
H1013 C999 0.961 . S
H1014 C999 0.961 . S
H1015 C999 0.961 . S
H1016 C1000 0.931 . S
H1017 C1005 0.930 . S
H1018 C1006 0.956 1_554 S
H1019 C1006 0.961 . S
H1020 C1006 0.961 . S
H1021 C1007 0.958 . S
H1022 C1007 0.961 . S
H1023 C1007 0.960 . S
C1024 C1025 1.391 . S
C1024 C1026 1.394 . S
C1024 H1040 0.931 . S
C1025 C1024 1.391 . S
C1025 C1029 1.376 . S
C1026 C1024 1.394 . S
C1026 C1027 1.369 . S
C1026 C1030 1.531 . S
C1027 C1026 1.369 . S
C1027 C1028 1.410 . S
C1027 C1035 1.503 1_565 S
C1028 C1027 1.410 . S
C1028 C1029 1.392 . S
C1028 C1031 1.511 1_565 S
C1029 C1025 1.376 . S
C1029 C1028 1.392 . S
C1029 H1041 0.929 . S
C1030 C1026 1.531 . S
C1030 H1042 0.960 . S
C1030 H1043 0.962 . S
C1030 H1044 0.960 . S
C1031 C1028 1.511 1_545 S
C1031 H1045 0.961 1_545 S
C1031 H1046 0.961 . S
C1031 H1047 0.961 . S
C1032 C1033 1.370 . S
C1032 C1034 1.363 . S
C1032 H1048 0.931 . S
C1033 C1032 1.370 . S
C1033 C1037 1.408 . S
C1034 C1032 1.363 . S
C1034 C1035 1.370 . S
C1034 C1038 1.524 . S
C1035 C1027 1.503 1_545 S
C1035 C1034 1.370 . S
C1035 C1036 1.403 . S
C1036 C1035 1.403 . S
C1036 C1037 1.404 . S
C1036 C1039 1.539 . S
C1037 C1033 1.408 . S
C1037 C1036 1.404 . S
C1037 H1049 0.930 . S
C1038 C1034 1.524 . S
C1038 H1050 0.956 1_545 S
C1038 H1051 0.961 1_545 S
C1038 H1052 0.961 . S
C1039 C1036 1.539 . S
C1039 H1053 0.958 . S
C1039 H1054 0.961 . S
C1039 H1055 0.960 . S
H1040 C1024 0.931 . S
H1041 C1029 0.929 . S
H1042 C1030 0.960 . S
H1043 C1030 0.962 . S
H1044 C1030 0.960 . S
H1045 C1031 0.961 1_565 S
H1046 C1031 0.961 . S
H1047 C1031 0.961 . S
H1048 C1032 0.931 . S
H1049 C1037 0.930 . S
H1050 C1038 0.956 1_565 S
H1051 C1038 0.961 1_565 S
H1052 C1038 0.961 . S
H1053 C1039 0.958 . S
H1054 C1039 0.961 . S
H1055 C1039 0.960 . S
C1056 C1057 1.391 . S
C1056 C1058 1.394 . S
C1056 H1072 0.931 . S
C1057 C1056 1.391 . S
C1057 C1061 1.376 1_655 S
C1058 C1056 1.394 . S
C1058 C1059 1.365 . S
C1058 C1062 1.531 . S
C1059 C1058 1.365 . S
C1059 C1060 1.412 1_655 S
C1059 C1067 1.505 1_645 S
C1060 C1059 1.412 1_455 S
C1060 C1061 1.392 . S
C1060 C1063 1.511 . S
C1061 C1057 1.376 1_455 S
C1061 C1060 1.392 . S
C1061 H1073 0.929 . S
C1062 C1058 1.531 . S
C1062 H1074 0.960 1_545 S
C1062 H1075 0.962 1_545 S
C1062 H1076 0.960 . S
C1063 C1060 1.511 . S
C1063 H1077 0.961 . S
C1063 H1078 0.961 . S
C1063 H1079 0.961 . S
C1064 C1065 1.393 . S
C1064 C1066 1.356 1_455 S
C1064 H1080 0.916 1_455 S
C1065 C1064 1.393 . S
C1065 C1069 1.408 . S
C1066 C1064 1.356 1_655 S
C1066 C1067 1.370 1_655 S
C1066 C1070 1.524 . S
C1067 C1059 1.505 1_465 S
C1067 C1066 1.370 1_455 S
C1067 C1068 1.403 . S
C1068 C1067 1.403 . S
C1068 C1069 1.404 . S
C1068 C1071 1.539 . S
C1069 C1065 1.408 . S
C1069 C1068 1.404 . S
C1069 H1081 0.930 . S
C1070 C1066 1.524 . S
C1070 H1082 0.956 . S
C1070 H1083 0.961 . S
C1070 H1084 0.961 . S
C1071 C1068 1.539 . S
C1071 H1085 0.958 1_565 S
C1071 H1086 0.961 . S
C1071 H1087 0.960 1_565 S
H1072 C1056 0.931 . S
H1073 C1061 0.929 . S
H1074 C1062 0.960 1_565 S
H1075 C1062 0.962 1_565 S
H1076 C1062 0.960 . S
H1077 C1063 0.961 . S
H1078 C1063 0.961 . S
H1079 C1063 0.961 . S
H1080 C1064 0.916 1_655 S
H1081 C1069 0.930 . S
H1082 C1070 0.956 . S
H1083 C1070 0.961 . S
H1084 C1070 0.961 . S
H1085 C1071 0.958 1_545 S
H1086 C1071 0.961 . S
H1087 C1071 0.960 1_545 S
C1088 C1089 1.391 . S
C1088 C1090 1.394 . S
C1088 H1104 0.931 . S
C1089 C1088 1.391 . S
C1089 C1093 1.376 . S
C1090 C1088 1.394 . S
C1090 C1091 1.369 . S
C1090 C1094 1.531 . S
C1091 C1090 1.369 . S
C1091 C1092 1.410 . S
C1091 C1099 1.503 . S
C1092 C1091 1.410 . S
C1092 C1093 1.392 . S
C1092 C1095 1.511 . S
C1093 C1089 1.376 . S
C1093 C1092 1.392 . S
C1093 H1105 0.929 . S
C1094 C1090 1.531 . S
C1094 H1106 0.960 . S
C1094 H1107 0.962 . S
C1094 H1108 0.960 . S
C1095 C1092 1.511 . S
C1095 H1109 0.961 . S
C1095 H1110 0.961 . S
C1095 H1111 0.961 . S
C1096 C1097 1.370 . S
C1096 C1098 1.363 . S
C1096 H1112 0.931 . S
C1097 C1096 1.370 . S
C1097 C1101 1.408 . S
C1098 C1096 1.363 . S
C1098 C1099 1.370 . S
C1098 C1102 1.524 . S
C1099 C1091 1.503 . S
C1099 C1098 1.370 . S
C1099 C1100 1.403 . S
C1100 C1099 1.403 . S
C1100 C1101 1.404 . S
C1100 C1103 1.539 . S
C1101 C1097 1.408 . S
C1101 C1100 1.404 . S
C1101 H1113 0.930 . S
C1102 C1098 1.524 . S
C1102 H1114 0.956 . S
C1102 H1115 0.961 . S
C1102 H1116 0.961 . S
C1103 C1100 1.539 . S
C1103 H1117 0.958 . S
C1103 H1118 0.961 . S
C1103 H1119 0.960 . S
H1104 C1088 0.931 . S
H1105 C1093 0.929 . S
H1106 C1094 0.960 . S
H1107 C1094 0.962 . S
H1108 C1094 0.960 . S
H1109 C1095 0.961 . S
H1110 C1095 0.961 . S
H1111 C1095 0.961 . S
H1112 C1096 0.931 . S
H1113 C1101 0.930 . S
H1114 C1102 0.956 . S
H1115 C1102 0.961 . S
H1116 C1102 0.961 . S
H1117 C1103 0.958 . S
H1118 C1103 0.961 . S
H1119 C1103 0.960 . S
C1120 C1121 1.391 . S
C1120 C1122 1.394 . S
C1120 H1136 0.931 . S
C1121 C1120 1.391 . S
C1121 C1125 1.376 . S
C1122 C1120 1.394 . S
C1122 C1123 1.369 . S
C1122 C1126 1.531 . S
C1123 C1122 1.369 . S
C1123 C1124 1.410 . S
C1123 C1131 1.503 1_545 S
C1124 C1123 1.410 . S
C1124 C1125 1.392 . S
C1124 C1127 1.511 1_545 S
C1125 C1121 1.376 . S
C1125 C1124 1.392 . S
C1125 H1137 0.929 . S
C1126 C1122 1.531 . S
C1126 H1138 0.960 . S
C1126 H1139 0.962 . S
C1126 H1140 0.960 . S
C1127 C1124 1.511 1_565 S
C1127 H1141 0.961 . S
C1127 H1142 0.961 . S
C1127 H1143 0.961 . S
C1128 C1129 1.370 . S
C1128 C1130 1.363 . S
C1128 H1144 0.931 . S
C1129 C1128 1.370 . S
C1129 C1133 1.408 . S
C1130 C1128 1.363 . S
C1130 C1131 1.370 . S
C1130 C1134 1.524 1_565 S
C1131 C1123 1.503 1_565 S
C1131 C1130 1.370 . S
C1131 C1132 1.403 . S
C1132 C1131 1.403 . S
C1132 C1133 1.404 . S
C1132 C1135 1.539 . S
C1133 C1129 1.408 . S
C1133 C1132 1.404 . S
C1133 H1145 0.930 . S
C1134 C1130 1.524 1_545 S
C1134 H1146 0.956 . S
C1134 H1147 0.961 . S
C1134 H1148 0.961 . S
C1135 C1132 1.539 . S
C1135 H1149 0.958 . S
C1135 H1150 0.961 . S
C1135 H1151 0.960 . S
H1136 C1120 0.931 . S
H1137 C1125 0.929 . S
H1138 C1126 0.960 . S
H1139 C1126 0.962 . S
H1140 C1126 0.960 . S
H1141 C1127 0.961 . S
H1142 C1127 0.961 . S
H1143 C1127 0.961 . S
H1144 C1128 0.931 . S
H1145 C1133 0.930 . S
H1146 C1134 0.956 . S
H1147 C1134 0.961 . S
H1148 C1134 0.961 . S
H1149 C1135 0.958 . S
H1150 C1135 0.961 . S
H1151 C1135 0.960 . S
C1152 C1153 1.391 . S
C1152 C1154 1.394 . S
C1152 H1168 0.931 . S
C1153 C1152 1.391 . S
C1153 C1157 1.376 . S
C1154 C1152 1.394 . S
C1154 C1155 1.369 . S
C1154 C1158 1.531 . S
C1155 C1154 1.369 . S
C1155 C1156 1.410 . S
C1155 C1163 1.503 . S
C1156 C1155 1.410 . S
C1156 C1157 1.392 . S
C1156 C1159 1.511 . S
C1157 C1153 1.376 . S
C1157 C1156 1.392 . S
C1157 H1169 0.929 . S
C1158 C1154 1.531 . S
C1158 H1170 0.960 . S
C1158 H1171 0.962 . S
C1158 H1172 0.960 . S
C1159 C1156 1.511 . S
C1159 H1173 0.961 . S
C1159 H1174 0.961 . S
C1159 H1175 0.961 . S
C1160 C1161 1.370 . S
C1160 C1162 1.363 . S
C1160 H1176 0.931 . S
C1161 C1160 1.370 . S
C1161 C1165 1.408 . S
C1162 C1160 1.363 . S
C1162 C1163 1.370 . S
C1162 C1166 1.524 . S
C1163 C1155 1.503 . S
C1163 C1162 1.370 . S
C1163 C1164 1.403 . S
C1164 C1163 1.403 . S
C1164 C1165 1.404 . S
C1164 C1167 1.539 . S
C1165 C1161 1.408 . S
C1165 C1164 1.404 . S
C1165 H1177 0.930 . S
C1166 C1162 1.524 . S
C1166 H1178 0.956 . S
C1166 H1179 0.961 . S
C1166 H1180 0.961 . S
C1167 C1164 1.539 . S
C1167 H1181 0.958 . S
C1167 H1182 0.961 . S
C1167 H1183 0.960 . S
H1168 C1152 0.931 . S
H1169 C1157 0.929 . S
H1170 C1158 0.960 . S
H1171 C1158 0.962 . S
H1172 C1158 0.960 . S
H1173 C1159 0.961 . S
H1174 C1159 0.961 . S
H1175 C1159 0.961 . S
H1176 C1160 0.931 . S
H1177 C1165 0.930 . S
H1178 C1166 0.956 . S
H1179 C1166 0.961 . S
H1180 C1166 0.961 . S
H1181 C1167 0.958 . S
H1182 C1167 0.961 . S
H1183 C1167 0.960 . S
C1184 C1185 1.391 . S
C1184 C1186 1.394 . S
C1184 H1200 0.931 . S
C1185 C1184 1.391 . S
C1185 C1189 1.376 . S
C1186 C1184 1.394 . S
C1186 C1187 1.369 . S
C1186 C1190 1.531 1_565 S
C1187 C1186 1.369 . S
C1187 C1188 1.410 . S
C1187 C1195 1.503 1_565 S
C1188 C1187 1.410 . S
C1188 C1189 1.392 . S
C1188 C1191 1.511 . S
C1189 C1185 1.376 . S
C1189 C1188 1.392 . S
C1189 H1201 0.929 . S
C1190 C1186 1.531 1_545 S
C1190 H1202 0.960 . S
C1190 H1203 0.962 1_545 S
C1190 H1204 0.960 . S
C1191 C1188 1.511 . S
C1191 H1205 0.961 . S
C1191 H1206 0.961 . S
C1191 H1207 0.961 1_565 S
C1192 C1193 1.370 . S
C1192 C1194 1.363 . S
C1192 H1208 0.931 . S
C1193 C1192 1.370 . S
C1193 C1197 1.408 . S
C1194 C1192 1.363 . S
C1194 C1195 1.370 . S
C1194 C1198 1.524 1_545 S
C1195 C1187 1.503 1_545 S
C1195 C1194 1.370 . S
C1195 C1196 1.403 . S
C1196 C1195 1.403 . S
C1196 C1197 1.404 . S
C1196 C1199 1.539 . S
C1197 C1193 1.408 . S
C1197 C1196 1.404 . S
C1197 H1209 0.930 . S
C1198 C1194 1.524 1_565 S
C1198 H1210 0.956 . S
C1198 H1211 0.961 . S
C1198 H1212 0.961 . S
C1199 C1196 1.539 . S
C1199 H1213 0.958 . S
C1199 H1214 0.961 . S
C1199 H1215 0.960 . S
H1200 C1184 0.931 . S
H1201 C1189 0.929 . S
H1202 C1190 0.960 . S
H1203 C1190 0.962 1_565 S
H1204 C1190 0.960 . S
H1205 C1191 0.961 . S
H1206 C1191 0.961 . S
H1207 C1191 0.961 1_545 S
H1208 C1192 0.931 . S
H1209 C1197 0.930 . S
H1210 C1198 0.956 . S
H1211 C1198 0.961 . S
H1212 C1198 0.961 . S
H1213 C1199 0.958 . S
H1214 C1199 0.961 . S
H1215 C1199 0.960 . S
C705 C49 1.954 . S
C713 C137 1.922 . S
C737 C284 1.964 . S
C745 C205 1.928 . S
C769 C401 1.928 . S
C777 C489 1.938 . S
C801 C557 1.927 . S
C809 C636 1.938 . S
C833 C29 1.628 . S
C841 C225 1.621 . S
C865 C321 1.600 . S
C873 C117 1.616 . S
C897 C409 1.607 . S
C905 C548 1.620 . S
C929 C645 1.611 . S
C937 C497 1.611 . S
C961 C20 2.265 . S
C969 C372 2.248 . S
C993 C108 2.277 . S
C1001 C460 2.244 . S
C1025 C585 2.229 . S
C1033 C233 2.271 . S
C1057 C665 2.282 . S
C1065 C313 2.247 . S
C1089 C145 0.251 . S
C1097 C57 0.172 . S
C1121 C196 0.152 . S
C1129 C293 0.104 . S
C1153 C381 0.168 . S
C1161 C469 0.104 . S
C1185 C577 0.168 . S
C1193 C673 0.104 . S
