# Generated by pormake.
# Topology ukt, (4)-cn, num edge types: 1
# Building blocks:
#     Node 0, Type 0, BuildingBlock: AZAVOO_clean_sbu_0, # of connection points: 4
#     Node 1, Type 0, BuildingBlock: AZAVOO_clean_sbu_0, # of connection points: 4
#     Node 2, Type 0, BuildingBlock: AZAVOO_clean_sbu_0, # of connection points: 4
#     Node 3, Type 0, BuildingBlock: AZAVOO_clean_sbu_0, # of connection points: 4
#     Node 4, Type 0, BuildingBlock: AZAVOO_clean_sbu_0, # of connection points: 4
#     Node 5, Type 0, BuildingBlock: AZAVOO_clean_sbu_0, # of connection points: 4
#     Node 6, Type 0, BuildingBlock: AZAVOO_clean_sbu_0, # of connection points: 4
#     Node 7, Type 0, BuildingBlock: AZAVOO_clean_sbu_0, # of connection points: 4
#     Node 8, Type 0, BuildingBlock: AZAVOO_clean_sbu_0, # of connection points: 4
#     Node 9, Type 0, BuildingBlock: AZAVOO_clean_sbu_0, # of connection points: 4
#     Node 10, Type 0, BuildingBlock: AZAVOO_clean_sbu_0, # of connection points: 4
#     Node 11, Type 0, BuildingBlock: AZAVOO_clean_sbu_0, # of connection points: 4
#     Node 12, Type 0, BuildingBlock: AZAVOO_clean_sbu_0, # of connection points: 4
#     Node 13, Type 0, BuildingBlock: AZAVOO_clean_sbu_0, # of connection points: 4
#     Node 14, Type 0, BuildingBlock: AZAVOO_clean_sbu_0, # of connection points: 4
#     Node 15, Type 0, BuildingBlock: AZAVOO_clean_sbu_0, # of connection points: 4
#     Edge 16, Type (0, 0), BuildingBlock: KIFKEQ_clean_linker_1, # of connection points: 2
#     Edge 17, Type (0, 0), BuildingBlock: KIFKEQ_clean_linker_1, # of connection points: 2
#     Edge 18, Type (0, 0), BuildingBlock: KIFKEQ_clean_linker_1, # of connection points: 2
#     Edge 19, Type (0, 0), BuildingBlock: KIFKEQ_clean_linker_1, # of connection points: 2
#     Edge 20, Type (0, 0), BuildingBlock: KIFKEQ_clean_linker_1, # of connection points: 2
#     Edge 21, Type (0, 0), BuildingBlock: KIFKEQ_clean_linker_1, # of connection points: 2
#     Edge 22, Type (0, 0), BuildingBlock: KIFKEQ_clean_linker_1, # of connection points: 2
#     Edge 23, Type (0, 0), BuildingBlock: KIFKEQ_clean_linker_1, # of connection points: 2
#     Edge 24, Type (0, 0), BuildingBlock: KIFKEQ_clean_linker_1, # of connection points: 2
#     Edge 25, Type (0, 0), BuildingBlock: KIFKEQ_clean_linker_1, # of connection points: 2
#     Edge 26, Type (0, 0), BuildingBlock: KIFKEQ_clean_linker_1, # of connection points: 2
#     Edge 27, Type (0, 0), BuildingBlock: KIFKEQ_clean_linker_1, # of connection points: 2
#     Edge 28, Type (0, 0), BuildingBlock: KIFKEQ_clean_linker_1, # of connection points: 2
#     Edge 29, Type (0, 0), BuildingBlock: KIFKEQ_clean_linker_1, # of connection points: 2
#     Edge 30, Type (0, 0), BuildingBlock: KIFKEQ_clean_linker_1, # of connection points: 2
#     Edge 31, Type (0, 0), BuildingBlock: KIFKEQ_clean_linker_1, # of connection points: 2
#     Edge 32, Type (0, 0), BuildingBlock: KIFKEQ_clean_linker_1, # of connection points: 2
#     Edge 33, Type (0, 0), BuildingBlock: KIFKEQ_clean_linker_1, # of connection points: 2
#     Edge 34, Type (0, 0), BuildingBlock: KIFKEQ_clean_linker_1, # of connection points: 2
#     Edge 35, Type (0, 0), BuildingBlock: KIFKEQ_clean_linker_1, # of connection points: 2
#     Edge 36, Type (0, 0), BuildingBlock: KIFKEQ_clean_linker_1, # of connection points: 2
#     Edge 37, Type (0, 0), BuildingBlock: KIFKEQ_clean_linker_1, # of connection points: 2
#     Edge 38, Type (0, 0), BuildingBlock: KIFKEQ_clean_linker_1, # of connection points: 2
#     Edge 39, Type (0, 0), BuildingBlock: KIFKEQ_clean_linker_1, # of connection points: 2
#     Edge 40, Type (0, 0), BuildingBlock: KIFKEQ_clean_linker_1, # of connection points: 2
#     Edge 41, Type (0, 0), BuildingBlock: KIFKEQ_clean_linker_1, # of connection points: 2
#     Edge 42, Type (0, 0), BuildingBlock: KIFKEQ_clean_linker_1, # of connection points: 2
#     Edge 43, Type (0, 0), BuildingBlock: KIFKEQ_clean_linker_1, # of connection points: 2
#     Edge 44, Type (0, 0), BuildingBlock: KIFKEQ_clean_linker_1, # of connection points: 2
#     Edge 45, Type (0, 0), BuildingBlock: KIFKEQ_clean_linker_1, # of connection points: 2
#     Edge 46, Type (0, 0), BuildingBlock: KIFKEQ_clean_linker_1, # of connection points: 2
#     Edge 47, Type (0, 0), BuildingBlock: KIFKEQ_clean_linker_1, # of connection points: 2
# Relax obj value: 0.298
# Max RMSD: 0.207
# Mean RMSD: 0.196
data_MOF--net-ukt--node1-AZAVOO_clean_sbu_0--edge1-KIFKEQ_clean_linker_1
_symmetry_space_group_name_H-M    P1
_symmetry_Int_Tables_number       1
_symmetry_cell_setting            triclinic
loop_
_symmetry_equiv_pos_as_xyz
'x, y, z'
_cell_length_a     41.700353
_cell_length_b     41.687569
_cell_length_c     38.499282
_cell_angle_alpha  89.769399
_cell_angle_beta   89.951053
_cell_angle_gamma 89.95579
loop_
_atom_site_label
_atom_site_type_symbol
_atom_site_fract_x
_atom_site_fract_y
_atom_site_fract_z
_atom_type_partial_charge
Mg0 Mg 0.59957 0.18265 0.05329 0.0
O1 O 0.65244 0.1736 0.04013 0.0
O2 O 0.67909 0.22004 0.0388 0.0
Mg3 Mg 0.6427 0.25988 0.04973 0.0
C4 C 0.67822 0.18957 0.03583 0.0
C5 C 0.6002 0.11301 0.03077 0.0
O6 O 0.6155 0.12932 0.00669 0.0
O7 O 0.61198 0.19263 0.11136 0.0
O8 O 0.63436 0.24097 0.10464 0.0
O9 O 0.58805 0.18957 0.99704 0.0
O10 O 0.60369 0.2289 0.03107 0.0
C11 C 0.62427 0.21826 0.1241 0.0
C12 C 0.59621 0.21924 1.00039 0.0
O13 O 0.59125 0.12782 0.0581 0.0
Mg14 Mg 0.34857 0.60681 0.06264 0.0
O15 O 0.33698 0.65783 0.04495 0.0
O16 O 0.28671 0.66073 0.02515 0.0
Mg17 Mg 0.26453 0.61096 0.03422 0.0
C18 C 0.3139 0.67354 0.03137 0.0
C19 C 0.42381 0.62776 0.07902 0.0
O20 O 0.44364 0.64429 0.09849 0.0
O21 O 0.31971 0.61485 0.11317 0.0
O22 O 0.2693 0.61635 0.09347 0.0
O23 O 0.3605 0.59515 0.00685 0.0
O24 O 0.31256 0.58909 0.03051 0.0
C25 C 0.28947 0.61742 0.11842 0.0
C26 C 0.33043 0.58832 1.00337 0.0
O27 O 0.3943 0.62688 0.08767 0.0
Mg28 Mg 0.88887 0.32245 0.05122 0.0
O29 O 0.83598 0.33156 0.03726 0.0
O30 O 0.81086 0.28454 0.03286 0.0
Mg31 Mg 0.8474 0.24465 0.04436 0.0
C32 C 0.81078 0.31514 0.03124 0.0
C33 C 0.89078 0.39257 0.02876 0.0
O34 O 0.87497 0.37744 1.00431 0.0
O35 O 0.87589 0.31023 0.10912 0.0
O36 O 0.85442 0.26176 0.10016 0.0
O37 O 0.90136 0.31572 0.99468 0.0
O38 O 0.88687 0.27644 0.02963 0.0
C39 C 0.86391 0.28381 0.12069 0.0
C40 C 0.89518 0.28564 0.99908 0.0
O41 O 0.89783 0.37712 0.05645 0.0
Mg42 Mg 0.17968 0.9086 0.06365 0.0
O43 O 0.17993 0.8559 0.04796 0.0
O44 O 0.23013 0.8406 0.03626 0.0
Mg45 Mg 0.26277 0.88343 0.04842 0.0
C46 C 0.20011 0.8348 0.03815 0.0
C47 C 0.11151 0.93115 0.07769 0.0
O48 O 0.12872 0.95732 0.08131 0.0
O49 O 0.19743 0.89521 0.11865 0.0
O50 O 0.24829 0.88251 0.10606 0.0
O51 O 0.17841 0.9224 0.00747 0.0
O52 O 0.22299 0.91641 0.0378 0.0
C53 C 0.2257 0.88668 0.12807 0.0
C54 C 0.20939 0.92185 0.00838 0.0
O55 O 0.12609 0.9045 0.07502 0.0
Mg56 Mg 0.59856 0.30988 0.45019 0.0
O57 O 0.65133 0.31987 0.46155 0.0
O58 O 0.67766 0.27343 0.46659 0.0
Mg59 Mg 0.64135 0.23296 0.45811 0.0
C60 C 0.67703 0.30406 0.46713 0.0
C61 C 0.56755 0.37285 0.46119 0.0
O62 O 0.54857 0.35047 0.47375 0.0
O63 O 0.61004 0.29675 0.39285 0.0
O64 O 0.63243 0.24869 0.40192 0.0
O65 O 0.58893 0.30687 0.5072 0.0
O66 O 0.60293 0.26516 0.47555 0.0
C67 C 0.62205 0.27047 0.38138 0.0
C68 C 0.59676 0.27698 0.50569 0.0
O69 O 0.59104 0.36411 0.4423 0.0
Mg70 Mg 0.18053 0.60363 0.43783 0.0
O71 O 0.17431 0.65599 0.45376 0.0
O72 O 0.22215 0.67957 0.45769 0.0
Mg73 Mg 0.2597 0.64232 0.44156 0.0
C74 C 0.19165 0.68037 0.46047 0.0
C75 C 0.11636 0.57711 0.45497 0.0
O76 O 0.13818 0.55766 0.46778 0.0
O77 O 0.18976 0.61793 0.38027 0.0
O78 O 0.2386 0.63936 0.38676 0.0
O79 O 0.18859 0.59111 0.49383 0.0
O80 O 0.22761 0.60321 0.45744 0.0
C81 C 0.21507 0.63103 0.36757 0.0
C82 C 0.21874 0.59605 0.48851 0.0
O83 O 0.12546 0.59955 0.43472 0.0
Mg84 Mg 0.90081 0.18098 0.44386 0.0
O85 O 0.84836 0.17665 0.46051 0.0
O86 O 0.82618 0.22482 0.46763 0.0
Mg87 Mg 0.86479 0.26163 0.45258 0.0
C88 C 0.82458 0.19426 0.46873 0.0
C89 C 0.89499 0.11167 0.46824 0.0
O90 O 0.88197 0.12952 0.49247 0.0
O91 O 0.88544 0.19348 0.38661 0.0
O92 O 0.867 0.24297 0.39697 0.0
O93 O 0.91561 0.18723 0.49975 0.0
O94 O 0.90296 0.22734 0.46504 0.0
C95 C 0.87387 0.2204 0.37588 0.0
C96 C 0.91101 0.21759 0.49547 0.0
O97 O 0.90392 0.12533 0.44004 0.0
Mg98 Mg 0.31542 0.9039 0.45442 0.0
O99 O 0.32655 0.85146 0.46706 0.0
O100 O 0.28074 0.82392 0.47015 0.0
Mg101 Mg 0.23971 0.85883 0.45886 0.0
C102 C 0.31126 0.82536 0.47215 0.0
C103 C 0.37827 0.93471 0.46905 0.0
O104 O 0.35593 0.95213 0.48392 0.0
O105 O 0.3053 0.89148 0.39678 0.0
O106 O 0.25808 0.8669 0.40359 0.0
O107 O 0.30946 0.91377 0.51109 0.0
O108 O 0.26964 0.8987 0.4773 0.0
C109 C 0.2804 0.87779 0.38413 0.0
C110 C 0.27981 0.90551 0.508 0.0
O111 O 0.36965 0.91261 0.44835 0.0
Mg112 Mg 0.43797 0.90761 0.85947 0.0
O113 O 0.41248 0.87548 0.89981 0.0
O114 O 0.38064 0.906 0.93286 0.0
Mg115 Mg 0.38737 0.95795 0.91571 0.0
C116 C 0.39187 0.8787 0.92417 0.0
C117 C 0.46889 0.86106 0.80894 0.0
O118 O 0.45559 0.88351 0.78969 0.0
O119 O 0.47407 0.92605 0.90127 0.0
O120 O 0.43967 0.95577 0.93196 0.0
O121 O 0.39392 0.90182 0.82673 0.0
O122 O 0.40103 0.94143 0.86378 0.0
C123 C 0.46785 0.94489 0.92672 0.0
C124 C 0.38213 0.92584 0.84362 0.0
O125 O 0.4684 0.86444 0.84183 0.0
Mg126 Mg 0.59032 0.45828 0.85225 0.0
O127 O 0.62028 0.43853 0.89823 0.0
O128 O 0.58858 0.40537 0.92846 0.0
Mg129 Mg 0.53853 0.4054 0.90426 0.0
C130 C 0.61579 0.41856 0.92312 0.0
C131 C 0.63414 0.4933 0.80369 0.0
O132 O 0.6115 0.48006 0.78485 0.0
O133 O 0.56349 0.49392 0.88843 0.0
O134 O 0.53114 0.45875 0.91515 0.0
O135 O 0.60549 0.41474 0.82344 0.0
O136 O 0.56109 0.41723 0.85458 0.0
C137 C 0.54044 0.48743 0.90937 0.0
C138 C 0.58202 0.40003 0.83857 0.0
O139 O 0.63128 0.49225 0.83664 0.0
Mg140 Mg 0.07907 0.59297 0.87295 0.0
O141 O 0.09634 0.62948 0.9136 0.0
O142 O 0.12431 0.60323 0.95438 0.0
Mg143 Mg 0.12461 0.55006 0.94089 0.0
C144 C 0.11298 0.6291 0.94148 0.0
C145 C 0.0527 0.6369 0.81502 0.0
O146 O 0.07291 0.61771 0.79914 0.0
O147 O 0.03904 0.57349 0.9102 0.0
O148 O 0.07049 0.54749 0.94788 0.0
O149 O 0.12656 0.59994 0.84618 0.0
O150 O 0.11791 0.56291 0.88606 0.0
C151 C 0.0427 0.55573 0.93725 0.0
C152 C 0.13796 0.57804 0.8666 0.0
O153 O 0.0475 0.63233 0.84733 0.0
Mg154 Mg 0.90561 0.04112 0.86832 0.0
O155 O 0.87224 0.06535 0.90873 0.0
O156 O 0.90198 0.10056 0.93855 0.0
Mg157 Mg 0.9542 0.093 0.92441 0.0
C158 C 0.87508 0.08776 0.93116 0.0
C159 C 0.86247 0.00834 0.81694 0.0
O160 O 0.88594 0.02131 0.79894 0.0
O161 O 0.92394 0.0057 0.91032 0.0
O162 O 0.95081 0.04101 0.94288 0.0
O163 O 0.89821 0.08438 0.83498 0.0
O164 O 0.93793 0.0796 0.8725 0.0
C165 C 0.94057 0.01269 0.93718 0.0
C166 C 0.92111 0.09768 0.85233 0.0
O167 O 0.86403 0.00939 0.84996 0.0
Mg168 Mg 0.46047 0.60069 0.63847 0.0
O169 O 0.4403 0.63311 0.59478 0.0
O170 O 0.41142 0.60251 0.55897 0.0
Mg171 Mg 0.41663 0.55061 0.57579 0.0
C172 C 0.42194 0.62983 0.56842 0.0
C173 C 0.4847 0.64684 0.69301 0.0
O174 O 0.46998 0.62372 0.70998 0.0
O175 O 0.50106 0.58185 0.60226 0.0
O176 O 0.4703 0.55326 0.5662 0.0
O177 O 0.41333 0.60705 0.66514 0.0
O178 O 0.42375 0.56732 0.62912 0.0
C179 C 0.49759 0.56393 0.57552 0.0
C180 C 0.40297 0.58348 0.64655 0.0
O181 O 0.48838 0.64381 0.66031 0.0
Mg182 Mg 0.89544 0.45945 0.63592 0.0
O183 O 0.86461 0.43593 0.59299 0.0
O184 O 0.89708 0.40603 0.56003 0.0
Mg185 Mg 0.94836 0.41391 0.57753 0.0
C186 C 0.8692 0.41621 0.56805 0.0
C187 C 0.84844 0.48696 0.68794 0.0
O188 O 0.87106 0.47289 0.70623 0.0
O189 O 0.9136 0.49842 0.59731 0.0
O190 O 0.94391 0.46685 0.56371 0.0
O191 O 0.88995 0.41361 0.66574 0.0
O192 O 0.93007 0.4234 0.62982 0.0
C193 C 0.93203 0.4942 0.57104 0.0
C194 C 0.91436 0.4031 0.64846 0.0
O195 O 0.8517 0.48819 0.65504 0.0
Mg196 Mg 0.04237 0.89421 0.64519 0.0
O197 O 0.06859 0.86532 0.6025 0.0
O198 O 0.10245 0.89817 0.57472 0.0
Mg199 Mg 0.09554 0.94849 0.596 0.0
C200 C 0.09036 0.87042 0.57968 0.0
C201 C 0.01157 0.84596 0.69261 0.0
O202 O 0.02032 0.87042 0.71183 0.0
O203 O 0.00762 0.91628 0.60357 0.0
O204 O 0.04381 0.94769 0.57741 0.0
O205 O 0.08454 0.88467 0.67909 0.0
O206 O 0.08056 0.92744 0.64552 0.0
C207 C 0.01529 0.93691 0.58009 0.0
C208 C 0.09817 0.909 0.66444 0.0
O209 O 0.01299 0.8492 0.65967 0.0
Mg210 Mg 0.60653 0.04282 0.64868 0.0
O211 O 0.63745 0.06805 0.60634 0.0
O212 O 0.60532 0.10176 0.57732 0.0
Mg213 Mg 0.55436 0.09513 0.59646 0.0
C214 C 0.63296 0.0898 0.58322 0.0
C215 C 0.65081 0.00815 0.69719 0.0
O216 O 0.62718 0.01973 0.71597 0.0
O217 O 0.58539 0.00789 0.60806 0.0
O218 O 0.55559 0.04315 0.57825 0.0
O219 O 0.61587 0.08528 0.68186 0.0
O220 O 0.57399 0.08118 0.64705 0.0
C221 C 0.56637 0.01483 0.583 0.0
C222 C 0.59207 0.09889 0.66613 0.0
O223 O 0.64896 0.01077 0.66427 0.0
H224 H 0.62953 0.27554 0.99307 0.0
H225 H 0.56523 0.21195 0.93868 0.0
H226 H 0.62817 0.31269 0.94438 0.0
H227 H 0.56349 0.24978 0.88984 0.0
H228 H 0.53407 0.3583 0.8548 0.0
H229 H 0.54021 0.30846 0.88781 0.0
H230 H 0.6431 0.31602 0.87872 0.0
H231 H 0.63703 0.36555 0.84538 0.0
C232 C 0.61529 0.26931 0.97072 0.0
C233 C 0.59731 0.24087 0.96993 0.0
C234 C 0.61477 0.2905 0.94261 0.0
C235 C 0.59585 0.28395 0.91333 0.0
C236 C 0.57833 0.25526 0.91212 0.0
C237 C 0.57936 0.2337 0.94003 0.0
C238 C 0.55792 0.34858 0.85866 0.0
C239 C 0.58504 0.36584 0.84779 0.0
C240 C 0.56143 0.3201 0.87752 0.0
C241 C 0.59214 0.30876 0.88612 0.0
C242 C 0.61919 0.32447 0.87256 0.0
C243 C 0.61566 0.35264 0.85321 0.0
H244 H 0.18629 0.61876 0.84621 0.0
H245 H 0.16866 0.53036 0.90174 0.0
H246 H 0.24154 0.6188 0.86719 0.0
H247 H 0.22265 0.5313 0.92443 0.0
H248 H 0.31786 0.53385 0.96764 0.0
H249 H 0.27787 0.52816 0.9217 0.0
H250 H 0.265 0.6312 0.92039 0.0
H251 H 0.30653 0.63648 0.9642 0.0
C252 C 0.19433 0.59908 0.86247 0.0
C253 C 0.17285 0.575 0.87309 0.0
C254 C 0.22595 0.59924 0.87481 0.0
C255 C 0.23665 0.57544 0.8982 0.0
C256 C 0.21572 0.55002 0.90637 0.0
C257 C 0.18437 0.5497 0.89375 0.0
C258 C 0.30744 0.55523 0.95618 0.0
C259 C 0.31509 0.58556 0.96924 0.0
C260 C 0.28414 0.55205 0.93028 0.0
C261 C 0.26735 0.57913 0.91784 0.0
C262 C 0.2773 0.60971 0.92895 0.0
C263 C 0.30105 0.61284 0.95429 0.0
H264 H 0.9703 0.13419 0.87633 0.0
H265 H 0.87141 0.13973 0.84347 0.0
H266 H 0.96453 0.1856 0.90594 0.0
H267 H 0.86604 0.19148 0.87266 0.0
H268 H 0.89765 0.29702 0.92865 0.0
H269 H 0.90605 0.25698 0.88253 0.0
H270 H 0.91023 0.18213 0.96002 0.0
H271 H 0.90073 0.22128 0.00561 0.0
C272 C 0.94777 0.14699 0.87419 0.0
C273 C 0.92115 0.13267 0.85821 0.0
C274 C 0.94455 0.1764 0.89102 0.0
C275 C 0.91484 0.19215 0.89153 0.0
C276 C 0.88925 0.17978 0.87219 0.0
C277 C 0.8924 0.1502 0.85548 0.0
C278 C 0.90002 0.27195 0.93566 0.0
C279 C 0.8984 0.26221 0.97067 0.0
C280 C 0.90485 0.24922 0.90938 0.0
C281 C 0.90885 0.21675 0.91804 0.0
C282 C 0.90713 0.20712 0.9529 0.0
C283 C 0.9016 0.22952 0.9789 0.0
H284 H 0.34966 0.98018 0.85886 0.0
H285 H 0.33701 0.8784 0.84385 0.0
H286 H 0.29988 0.9821 0.89211 0.0
H287 H 0.28696 0.88049 0.87698 0.0
H288 H 0.19208 0.90945 0.94092 0.0
H289 H 0.22662 0.91321 0.88906 0.0
H290 H 0.30459 0.94635 0.95317 0.0
H291 H 0.27083 0.94188 1.00458 0.0
C292 C 0.33538 0.95856 0.86113 0.0
C293 C 0.34736 0.92908 0.84931 0.0
C294 C 0.30698 0.95968 0.88019 0.0
C295 C 0.29004 0.93137 0.88738 0.0
C296 C 0.29962 0.90263 0.87154 0.0
C297 C 0.3282 0.90149 0.85248 0.0
C298 C 0.21654 0.91777 0.94371 0.0
C299 C 0.22889 0.92536 0.97667 0.0
C300 C 0.23616 0.91988 0.91418 0.0
C301 C 0.26794 0.9305 0.91729 0.0
C302 C 0.27995 0.93861 0.95013 0.0
C303 C 0.26072 0.93583 0.97954 0.0
H304 H 0.63778 0.22734 0.51919 0.0
H305 H 0.56117 0.28299 0.56446 0.0
H306 H 0.6379 0.19216 0.56967 0.0
H307 H 0.56108 0.24733 0.61526 0.0
H308 H 0.54136 0.137 0.64956 0.0
H309 H 0.5448 0.18796 0.61844 0.0
H310 H 0.64718 0.1896 0.63499 0.0
H311 H 0.64374 0.1387 0.66623 0.0
C312 C 0.62102 0.2321 0.53993 0.0
C313 C 0.59902 0.25746 0.53758 0.0
C314 C 0.62142 0.21224 0.56915 0.0
C315 C 0.59948 0.21706 0.59636 0.0
C316 C 0.57823 0.24315 0.59462 0.0
C317 C 0.57828 0.26345 0.56561 0.0
C318 C 0.56436 0.14898 0.64787 0.0
C319 C 0.5923 0.13375 0.65981 0.0
C320 C 0.56635 0.17816 0.63009 0.0
C321 C 0.59636 0.19233 0.6238 0.0
C322 C 0.62381 0.17891 0.6392 0.0
C323 C 0.62176 0.14993 0.65737 0.0
H324 H 0.37228 0.53246 0.61814 0.0
H325 H 0.35706 0.63022 0.65126 0.0
H326 H 0.32303 0.53493 0.58396 0.0
H327 H 0.3072 0.63213 0.61772 0.0
H328 H 0.20717 0.59644 0.55865 0.0
H329 H 0.24693 0.59135 0.60554 0.0
H330 H 0.32258 0.58559 0.52937 0.0
H331 H 0.28342 0.59127 0.4827 0.0
C332 C 0.35785 0.55406 0.61911 0.0
C333 C 0.36885 0.58137 0.6367 0.0
C334 C 0.32972 0.55539 0.59963 0.0
C335 C 0.3118 0.58381 0.59812 0.0
C336 C 0.32074 0.60996 0.61874 0.0
C337 C 0.34917 0.60876 0.63799 0.0
C338 C 0.23232 0.59423 0.552 0.0
C339 C 0.24225 0.59423 0.51705 0.0
C340 C 0.2549 0.59135 0.57875 0.0
C341 C 0.2875 0.58778 0.57076 0.0
C342 C 0.29742 0.58802 0.53595 0.0
C343 C 0.27505 0.59145 0.50934 0.0
H344 H 0.96806 0.37297 0.62568 0.0
H345 H 0.86917 0.35571 0.6535 0.0
H346 H 0.96939 0.32219 0.59438 0.0
H347 H 0.8709 0.30448 0.62263 0.0
H348 H 0.91923 0.28176 0.4905 0.0
H349 H 0.92342 0.32051 0.53744 0.0
H350 H 0.91172 0.24472 0.61299 0.0
H351 H 0.90814 0.20524 0.56564 0.0
C352 C 0.94704 0.35773 0.62631 0.0
C353 C 0.91834 0.36856 0.64137 0.0
C354 C 0.94786 0.3287 0.60849 0.0
C355 C 0.92017 0.30982 0.606 0.0
C356 C 0.89258 0.31868 0.62451 0.0
C357 C 0.89166 0.34795 0.64219 0.0
C358 C 0.91761 0.27322 0.51706 0.0
C359 C 0.91339 0.2405 0.52444 0.0
C360 C 0.9202 0.29537 0.54386 0.0
C361 C 0.91818 0.28536 0.57859 0.0
C362 C 0.91353 0.25277 0.58628 0.0
C363 C 0.91154 0.23035 0.55929 0.0
H364 H 0.13773 0.85719 0.66334 0.0
H365 H 0.13668 0.96011 0.64999 0.0
H366 H 0.18874 0.8544 0.63252 0.0
H367 H 0.1881 0.95724 0.61957 0.0
H368 H 0.28702 0.93637 0.56977 0.0
H369 H 0.24981 0.93651 0.61918 0.0
H370 H 0.18864 0.8698 0.56529 0.0
H371 H 0.2249 0.87025 0.51597 0.0
C372 C 0.14914 0.87938 0.6554 0.0
C373 C 0.13308 0.90887 0.65858 0.0
C374 C 0.17822 0.8777 0.63755 0.0
C375 C 0.19195 0.90554 0.62335 0.0
C376 C 0.17796 0.93546 0.63038 0.0
C377 C 0.14857 0.93709 0.64774 0.0
C378 C 0.26578 0.92148 0.56869 0.0
C379 C 0.25875 0.9035 0.53878 0.0
C380 C 0.24462 0.92157 0.59693 0.0
C381 C 0.21663 0.90296 0.59602 0.0
C382 C 0.21031 0.88404 0.56674 0.0
C383 C 0.23098 0.88455 0.53829 0.0
H384 H 0.36571 0.87416 0.98914 0.0
H385 H 0.38844 0.81801 0.89826 0.0
H386 H 0.34323 0.82629 0.01724 0.0
H387 H 0.36519 0.77055 0.92611 0.0
H388 H 0.28702 0.70491 0.97621 0.0
H389 H 0.30405 0.75629 0.95111 0.0
H390 H 0.37237 0.76807 0.03414 0.0
H391 H 0.35608 0.71638 0.05882 0.0
C392 C 0.36585 0.85165 0.97518 0.0
C393 C 0.37909 0.84974 0.94162 0.0
C394 C 0.35297 0.82438 0.99123 0.0
C395 C 0.35235 0.79498 0.97364 0.0
C396 C 0.36519 0.7931 0.94 0.0
C397 C 0.37874 0.82015 0.92426 0.0
C398 C 0.30524 0.71875 0.98945 0.0
C399 C 0.32032 0.70664 0.0194 0.0
C400 C 0.31508 0.74797 0.97498 0.0
C401 C 0.33957 0.76586 0.9907 0.0
C402 C 0.35338 0.75466 0.02167 0.0
C403 C 0.34409 0.72513 0.03569 0.0
H404 H 0.61602 0.3746 0.9762 0.0
H405 H 0.67895 0.43646 0.91698 0.0
H406 H 0.66212 0.3515 0.00575 0.0
H407 H 0.72517 0.41283 0.94616 0.0
H408 H 0.7527 0.28872 0.01416 0.0
H409 H 0.7055 0.3159 0.99139 0.0
H410 H 0.75388 0.4071 1.00035 0.0
H411 H 0.80145 0.37986 0.02245 0.0
C412 C 0.63964 0.38359 0.96971 0.0
C413 C 0.64366 0.40745 0.94408 0.0
C414 C 0.66616 0.37009 0.9865 0.0
C415 C 0.69745 0.38006 0.97819 0.0
C416 C 0.70143 0.40475 0.9535 0.0
C417 C 0.67487 0.41827 0.93665 0.0
C418 C 0.75327 0.3146 0.01155 0.0
C419 C 0.78105 0.33202 0.02004 0.0
C420 C 0.72606 0.33025 0.99865 0.0
C421 C 0.72584 0.36375 0.99392 0.0
C422 C 0.75334 0.38125 1.00318 0.0
C423 C 0.78058 0.3656 0.01609 0.0
H424 H 0.12737 0.64027 0.00955 0.0
H425 H 0.12091 0.68693 0.90937 0.0
H426 H 0.1484 0.68993 0.03477 0.0
H427 H 0.14284 0.73613 0.93454 0.0
H428 H 0.22732 0.79358 0.99162 0.0
H429 H 0.20434 0.74375 0.96904 0.0
H430 H 0.12259 0.75481 0.03662 0.0
H431 H 0.14493 0.80512 0.05863 0.0
C432 C 0.1302 0.66118 0.99303 0.0
C433 C 0.12236 0.65982 0.95755 0.0
C434 C 0.14223 0.68945 0.00744 0.0
C435 C 0.14737 0.71651 0.98641 0.0
C436 C 0.13917 0.71538 0.95111 0.0
C437 C 0.12641 0.68738 0.93686 0.0
C438 C 0.20458 0.78526 1.00187 0.0
C439 C 0.18786 0.80327 0.02681 0.0
C440 C 0.19142 0.75693 0.98881 0.0
C441 C 0.16173 0.74579 1.00108 0.0
C442 C 0.14552 0.76308 0.02684 0.0
C443 C 0.15829 0.7918 0.03933 0.0
H444 H 0.68171 0.13306 1.00071 0.0
H445 H 0.74064 0.20768 0.04466 0.0
H446 H 0.72901 0.10768 0.97641 0.0
H447 H 0.78843 0.18123 0.0224 0.0
H448 H 0.86291 0.1501 0.94429 0.0
H449 H 0.81586 0.17339 0.97138 0.0
H450 H 0.77542 0.07841 0.98409 0.0
H451 H 0.82216 0.05556 0.95482 0.0
C452 C 0.70492 0.14365 0.00584 0.0
C453 C 0.70744 0.17248 0.02442 0.0
C454 C 0.73219 0.12897 0.99203 0.0
C455 C 0.76279 0.14238 0.99708 0.0
C456 C 0.76531 0.17056 0.01703 0.0
C457 C 0.73793 0.18564 0.03014 0.0
C458 C 0.84398 0.13427 0.95309 0.0
C459 C 0.84618 0.10108 0.94777 0.0
C460 C 0.817 0.14756 0.96888 0.0
C461 C 0.79171 0.12788 0.98046 0.0
C462 C 0.79408 0.09448 0.97514 0.0
C463 C 0.82088 0.08127 0.95854 0.0
H464 H 0.3813 0.63202 0.51282 0.0
H465 H 0.43472 0.69308 0.58251 0.0
H466 H 0.3567 0.67901 0.48648 0.0
H467 H 0.40954 0.74016 0.55633 0.0
H468 H 0.37595 0.81958 0.48298 0.0
H469 H 0.40529 0.77237 0.50288 0.0
H470 H 0.31699 0.71828 0.50522 0.0
H471 H 0.28767 0.76517 0.48483 0.0
C472 C 0.38807 0.65545 0.52235 0.0
C473 C 0.40993 0.6587 0.54996 0.0
C474 C 0.37375 0.6824 0.50736 0.0
C475 C 0.38092 0.71328 0.51954 0.0
C476 C 0.4037 0.71669 0.5462 0.0
C477 C 0.41804 0.68968 0.56127 0.0
C478 C 0.3628 0.79756 0.48745 0.0
C479 C 0.32941 0.79623 0.48233 0.0
C480 C 0.37962 0.77057 0.49906 0.0
C481 C 0.36348 0.74162 0.50567 0.0
C482 C 0.33021 0.74011 0.49993 0.0
C483 C 0.31338 0.76709 0.48842 0.0
H484 H 0.80531 0.42951 0.57783 0.0
H485 H 0.86979 0.37186 0.51594 0.0
H486 H 0.75963 0.40345 0.55026 0.0
H487 H 0.82421 0.34637 0.48813 0.0
H488 H 0.73614 0.27942 0.48343 0.0
H489 H 0.78266 0.30835 0.50508 0.0
H490 H 0.73116 0.39786 0.49504 0.0
H491 H 0.6844 0.36899 0.4739 0.0
C492 C 0.80979 0.41163 0.55805 0.0
C493 C 0.84128 0.40276 0.54923 0.0
C494 C 0.78359 0.39679 0.54214 0.0
C495 C 0.78831 0.37272 0.51711 0.0
C496 C 0.81976 0.36448 0.50766 0.0
C497 C 0.84592 0.37931 0.52348 0.0
C498 C 0.73478 0.30531 0.48549 0.0
C499 C 0.70641 0.32182 0.47705 0.0
C500 C 0.76154 0.32191 0.49779 0.0
C501 C 0.76055 0.35541 0.50195 0.0
C502 C 0.73251 0.37201 0.49261 0.0
C503 C 0.70577 0.35544 0.48025 0.0
H504 H 0.22004 0.73671 0.48052 0.0
H505 H 0.12763 0.69043 0.47173 0.0
H506 H 0.19446 0.78294 0.50745 0.0
H507 H 0.10212 0.73688 0.49805 0.0
H508 H 0.13485 0.87239 0.52743 0.0
H509 H 0.15838 0.82757 0.49618 0.0
H510 H 0.09946 0.76167 0.55503 0.0
H511 H 0.07552 0.80656 0.58607 0.0
C512 C 0.19424 0.7365 0.48393 0.0
C513 C 0.17595 0.70971 0.47408 0.0
C514 C 0.17956 0.7631 0.49926 0.0
C515 C 0.14625 0.76352 0.50511 0.0
C516 C 0.12788 0.7371 0.49444 0.0
C517 C 0.14253 0.71053 0.4791 0.0
C518 C 0.12671 0.84838 0.53362 0.0
C519 C 0.10326 0.84313 0.55935 0.0
C520 C 0.14037 0.82265 0.51579 0.0
C521 C 0.13087 0.79102 0.52313 0.0
C522 C 0.10703 0.78577 0.54842 0.0
C523 C 0.09339 0.81153 0.56632 0.0
H524 H 0.69665 0.0735 0.58892 0.0
H525 H 0.63219 0.13714 0.53391 0.0
H526 H 0.74215 0.09856 0.55955 0.0
H527 H 0.67751 0.1618 0.50451 0.0
H528 H 0.81332 0.12996 0.47632 0.0
H529 H 0.76684 0.10398 0.50216 0.0
H530 H 0.72277 0.19654 0.51836 0.0
H531 H 0.76919 0.2227 0.49207 0.0
C532 C 0.69211 0.09256 0.57036 0.0
C533 C 0.6607 0.10324 0.56386 0.0
C534 C 0.71819 0.10687 0.55344 0.0
C535 C 0.71346 0.13224 0.52974 0.0
C536 C 0.68204 0.1426 0.52292 0.0
C537 C 0.65601 0.12824 0.53966 0.0
C538 C 0.79369 0.14486 0.48516 0.0
C539 C 0.79512 0.17851 0.48217 0.0
C540 C 0.76711 0.12991 0.50022 0.0
C541 C 0.74121 0.14816 0.51257 0.0
C542 C 0.74223 0.18175 0.50885 0.0
C543 C 0.7689 0.19676 0.49386 0.0
H544 H 0.53355 0.9461 0.91595 0.0
H545 H 0.46019 0.97367 0.98925 0.0
H546 H 0.57255 0.97834 0.94793 0.0
H547 H 0.49785 0.0071 0.01942 0.0
H548 H 0.56545 0.0708 0.07161 0.0
H549 H 0.54066 0.02061 0.05311 0.0
H550 H 0.58365 0.03211 0.9515 0.0
H551 H 0.60978 0.08037 0.97069 0.0
C552 C 0.52586 0.95853 0.93917 0.0
C553 C 0.49356 0.95784 0.94947 0.0
C554 C 0.5481 0.97743 0.95735 0.0
C555 C 0.53842 0.99629 0.98596 0.0
C556 C 0.50669 0.99311 0.99783 0.0
C557 C 0.48476 0.97403 0.98007 0.0
C558 C 0.57015 0.06208 0.04564 0.0
C559 C 0.58913 0.08 0.02252 0.0
C560 C 0.5557 0.03339 0.0348 0.0
C561 C 0.55935 0.02231 1.00035 0.0
C562 C 0.58022 0.03927 0.97823 0.0
C563 C 0.59506 0.06745 0.98923 0.0
H564 H 0.40687 0.56876 0.05434 0.0
H565 H 0.47096 0.64807 0.0357 0.0
H566 H 0.43436 0.53774 0.00975 0.0
H567 H 0.49762 0.61798 0.98987 0.0
H568 H 0.56395 0.54011 0.94377 0.0
H569 H 0.53369 0.5762 0.9816 0.0
H570 H 0.44565 0.52881 0.95194 0.0
H571 H 0.47624 0.49191 0.91614 0.0
C572 C 0.42624 0.57987 0.0399 0.0
C573 C 0.43665 0.61082 0.04831 0.0
C574 C 0.44211 0.56214 0.01421 0.0
C575 C 0.46856 0.57514 0.99601 0.0
C576 C 0.47796 0.60674 1.00366 0.0
C577 C 0.46242 0.62418 0.0297 0.0
C578 C 0.5381 0.5379 0.94504 0.0
C579 C 0.52246 0.51316 0.92726 0.0
C580 C 0.5206 0.55859 0.96669 0.0
C581 C 0.48702 0.5553 0.97045 0.0
C582 C 0.47143 0.53164 0.95077 0.0
C583 C 0.48894 0.51066 0.92986 0.0
H584 H 0.04383 0.52299 0.99848 0.0
H585 H 0.97843 0.55485 0.91849 0.0
H586 H 0.00259 0.49007 0.02366 0.0
H587 H 0.93577 0.52295 0.94534 0.0
H588 H 0.8891 0.42434 0.96686 0.0
H589 H 0.92079 0.46986 0.94877 0.0
H590 H 0.95643 0.47998 0.05365 0.0
H591 H 0.92599 0.43258 0.07119 0.0
C592 C 0.02029 0.52361 0.9866 0.0
C593 C 0.0148 0.54121 0.95585 0.0
C594 C 0.99626 0.5048 1.0015 0.0
C595 C 0.96556 0.50321 0.98657 0.0
C596 C 0.95927 0.52275 0.95723 0.0
C597 C 0.98365 0.54142 0.94195 0.0
C598 C 0.90337 0.43643 0.98631 0.0
C599 C 0.90541 0.42428 0.02043 0.0
C600 C 0.92149 0.46299 0.9759 0.0
C601 C 0.94188 0.47869 0.99941 0.0
C602 C 0.94188 0.46807 0.03434 0.0
C603 C 0.92415 0.44101 0.04462 0.0
H604 H 0.07218 0.98244 0.08685 0.0
H605 H 0.0741 0.88704 0.04362 0.0
H606 H 0.02195 0.9931 0.05741 0.0
H607 H 0.02312 0.89754 0.0143 0.0
H608 H 0.9752 0.95887 0.92291 0.0
H609 H 0.00989 0.93098 0.96433 0.0
H610 H 0.96625 0.98369 0.04848 0.0
H611 H 0.93273 0.01234 0.00676 0.0
C612 C 0.06135 0.96336 0.07189 0.0
C613 C 0.07738 0.93407 0.06729 0.0
C614 C 0.0323 0.96938 0.05507 0.0
C615 C 0.01847 0.94627 0.0331 0.0
C616 C 0.03328 0.91602 0.03063 0.0
C617 C 0.06237 0.90991 0.04771 0.0
C618 C 0.97208 0.96334 0.95041 0.0
C619 C 0.95145 0.98775 0.96172 0.0
C620 C 0.99204 0.94745 0.97425 0.0
C621 C 0.99145 0.95566 0.00975 0.0
C622 C 0.96794 0.97737 0.02129 0.0
C623 C 0.94843 0.9935 0.99747 0.0
H624 H 0.50815 0.56313 0.50613 0.0
H625 H 0.54672 0.52988 0.60368 0.0
H626 H 0.53569 0.51971 0.47588 0.0
H627 H 0.57399 0.48609 0.57348 0.0
H628 H 0.53816 0.39023 0.52078 0.0
H629 H 0.53495 0.44275 0.54713 0.0
H630 H 0.58837 0.48345 0.46167 0.0
H631 H 0.59257 0.42974 0.43517 0.0
C632 C 0.52411 0.54766 0.5208 0.0
C633 C 0.52528 0.54979 0.55725 0.0
C634 C 0.53976 0.52269 0.50347 0.0
C635 C 0.55644 0.49921 0.52242 0.0
C636 C 0.56108 0.50381 0.5583 0.0
C637 C 0.54578 0.5291 0.57557 0.0
C638 C 0.54939 0.4102 0.50741 0.0
C639 C 0.56538 0.40577 0.47562 0.0
C640 C 0.54794 0.44029 0.52289 0.0
C641 C 0.56192 0.46711 0.50682 0.0
C642 C 0.57775 0.46304 0.47481 0.0
C643 C 0.57995 0.43245 0.45958 0.0
H644 H 0.05808 0.5892 0.42307 0.0
H645 H 0.1011 0.56297 0.52107 0.0
H646 H 0.0044 0.58155 0.44887 0.0
H647 H 0.04846 0.55607 0.54665 0.0
H648 H 0.95669 0.55056 0.59495 0.0
H649 H 0.99671 0.58273 0.56393 0.0
H650 H 0.97767 0.52963 0.47017 0.0
H651 H 0.9379 0.49767 0.50114 0.0
C652 C 0.05604 0.58244 0.45017 0.0
C653 C 0.08367 0.57617 0.46993 0.0
C654 C 0.02544 0.57815 0.46494 0.0
C655 C 0.02217 0.56851 0.49993 0.0
C656 C 0.04998 0.56407 0.51989 0.0
C657 C 0.08023 0.56757 0.50504 0.0
C658 C 0.95982 0.54701 0.56729 0.0
C659 C 0.94447 0.52148 0.5505 0.0
C660 C 0.98296 0.56519 0.54958 0.0
C661 C 0.99082 0.55823 0.51478 0.0
C662 C 0.97222 0.53565 0.49688 0.0
C663 C 0.9494 0.5173 0.51465 0.0
H664 H 0.0269 0.96614 0.51839 0.0
H665 H 0.94926 0.94144 0.58771 0.0
H666 H 0.99213 0.0015 0.48629 0.0
H667 H 0.91319 0.97587 0.55388 0.0
H668 H 0.88119 0.07955 0.528 0.0
H669 H 0.90447 0.03028 0.54915 0.0
H670 H 0.95128 0.01645 0.45002 0.0
H671 H 0.92929 0.0675 0.42954 0.0
C672 C 0.00199 0.9676 0.52628 0.0
C673 C 0.99113 0.95147 0.55627 0.0
C674 C 0.98174 0.98781 0.50741 0.0
C675 C 0.94968 0.99236 0.51755 0.0
C676 C 0.93795 0.97383 0.5457 0.0
C677 C 0.95849 0.95369 0.56494 0.0
C678 C 0.89614 0.0659 0.51039 0.0
C679 C 0.90395 0.07803 0.47725 0.0
C680 C 0.90933 0.03716 0.52254 0.0
C681 C 0.93045 0.01922 0.50176 0.0
C682 C 0.93597 0.02994 0.46736 0.0
C683 C 0.92309 0.05913 0.45535 0.0
H684 H 0.54286 0.95654 0.60319 0.0
H685 H 0.55598 0.01764 0.51365 0.0
H686 H 0.50195 0.92621 0.57167 0.0
H687 H 0.51543 0.98738 0.48214 0.0
H688 H 0.43573 0.92687 0.4341 0.0
H689 H 0.49 0.93503 0.45807 0.0
H690 H 0.44862 0.95377 0.55883 0.0
H691 H 0.39532 0.94652 0.53506 0.0
C692 C 0.53822 0.96242 0.57622 0.0
C693 C 0.55227 0.9896 0.56095 0.0
C694 C 0.51463 0.94525 0.55825 0.0
C695 C 0.50511 0.95481 0.52464 0.0
C696 C 0.52225 0.97936 0.5079 0.0
C697 C 0.54545 0.99675 0.526 0.0
C698 C 0.43849 0.93237 0.4614 0.0
C699 C 0.41139 0.93661 0.4826 0.0
C700 C 0.46942 0.9369 0.47513 0.0
C701 C 0.47357 0.94468 0.51044 0.0
C702 C 0.44637 0.94723 0.53174 0.0
C703 C 0.41575 0.94354 0.51795 0.0
H704 H 0.63824 0.2139 0.35049 0.0
H705 H 0.60649 0.31015 0.32615 0.0
H706 H 0.63801 0.20051 0.28923 0.0
H707 H 0.60626 0.29644 0.2643 0.0
H708 H 0.60208 0.17947 0.17761 0.0
H709 H 0.60047 0.19232 0.23975 0.0
H710 H 0.64624 0.28319 0.21881 0.0
H711 H 0.64797 0.27067 0.15751 0.0
C712 C 0.63124 0.23235 0.33211 0.0
C713 C 0.62255 0.26331 0.34347 0.0
C714 C 0.63084 0.22444 0.29689 0.0
C715 C 0.62202 0.24729 0.27183 0.0
C716 C 0.6134 0.27832 0.28299 0.0
C717 C 0.6135 0.2862 0.31842 0.0
C718 C 0.61201 0.20204 0.18633 0.0
C719 C 0.6251 0.22393 0.16233 0.0
C720 C 0.61106 0.20945 0.22191 0.0
C721 C 0.6229 0.239 0.23419 0.0
C722 C 0.63634 0.26055 0.21024 0.0
C723 C 0.63755 0.2531 0.17496 0.0
H724 H 0.18564 0.59716 0.31504 0.0
H725 H 0.25645 0.67066 0.33371 0.0
H726 H 0.2023 0.595 0.254 0.0
H727 H 0.27273 0.6687 0.27317 0.0
H728 H 0.22666 0.6184 0.13951 0.0
H729 H 0.20561 0.62417 0.19819 0.0
H730 H 0.30222 0.63016 0.2379 0.0
H731 H 0.3234 0.62475 0.17912 0.0
C732 C 0.20416 0.61338 0.30599 0.0
C733 C 0.21989 0.63384 0.32939 0.0
C734 C 0.21382 0.61208 0.27104 0.0
C735 C 0.23937 0.63121 0.25884 0.0
C736 C 0.25362 0.65301 0.28184 0.0
C737 C 0.24403 0.6543 0.31655 0.0
C738 C 0.24352 0.62103 0.16069 0.0
C739 C 0.27685 0.62119 0.15441 0.0
C740 C 0.23135 0.62415 0.19442 0.0
C741 C 0.25214 0.62775 0.2228 0.0
C742 C 0.28546 0.62792 0.21658 0.0
C743 C 0.29765 0.62463 0.18285 0.0
H744 H 0.84235 0.22875 0.15142 0.0
H745 H 0.88478 0.32041 0.17634 0.0
H746 H 0.84514 0.21281 0.21192 0.0
H747 H 0.88733 0.30416 0.23762 0.0
H748 H 0.85217 0.27622 0.34709 0.0
H749 H 0.85012 0.29183 0.28655 0.0
H750 H 0.88592 0.19869 0.25707 0.0
H751 H 0.88829 0.18271 0.31851 0.0
C752 C 0.85217 0.24573 0.16976 0.0
C753 C 0.86334 0.27608 0.15866 0.0
C754 C 0.85401 0.2363 0.20458 0.0
C755 C 0.86673 0.25697 0.22965 0.0
C756 C 0.87729 0.28763 0.21893 0.0
C757 C 0.87577 0.29702 0.18381 0.0
C758 C 0.8596 0.25876 0.32794 0.0
C759 C 0.87046 0.228 0.33804 0.0
C760 C 0.85864 0.268 0.29305 0.0
C761 C 0.86816 0.24675 0.26689 0.0
C762 C 0.87834 0.21567 0.27664 0.0
C763 C 0.87966 0.20645 0.31185 0.0
H764 H 0.23201 0.84716 0.35016 0.0
H765 H 0.3163 0.90505 0.33133 0.0
H766 H 0.21925 0.84857 0.28877 0.0
H767 H 0.30322 0.90643 0.26928 0.0
H768 H 0.28447 0.8743 0.15658 0.0
H769 H 0.29892 0.87112 0.21763 0.0
H770 H 0.20035 0.88874 0.24615 0.0
H771 H 0.18561 0.89179 0.18476 0.0
C772 C 0.24801 0.86011 0.33294 0.0
C773 C 0.27519 0.87619 0.34592 0.0
C774 C 0.24046 0.86107 0.29766 0.0
C775 C 0.25992 0.87795 0.27417 0.0
C776 C 0.28775 0.89313 0.28676 0.0
C777 C 0.29528 0.89233 0.3223 0.0
C778 C 0.2657 0.87737 0.17574 0.0
C779 C 0.23374 0.88325 0.16557 0.0
C780 C 0.27415 0.8758 0.21083 0.0
C781 C 0.25088 0.87979 0.23678 0.0
C782 C 0.21884 0.88528 0.22675 0.0
C783 C 0.21037 0.8871 0.19156 0.0
H784 H 0.46784 0.84625 0.74007 0.0
H785 H 0.49439 0.80706 0.84 0.0
H786 H 0.47823 0.79492 0.71308 0.0
H787 H 0.50619 0.75558 0.81261 0.0
H788 H 0.47447 0.6608 0.76121 0.0
H789 H 0.47705 0.7126 0.78928 0.0
H790 H 0.51386 0.75479 0.69457 0.0
H791 H 0.50991 0.70274 0.66589 0.0
C792 C 0.47656 0.82682 0.75627 0.0
C793 C 0.47991 0.83079 0.79236 0.0
C794 C 0.48282 0.79726 0.74062 0.0
C795 C 0.49291 0.77075 0.76052 0.0
C796 C 0.49787 0.77519 0.79644 0.0
C797 C 0.49134 0.80481 0.81218 0.0
C798 C 0.48353 0.68098 0.74637 0.0
C799 C 0.49162 0.67757 0.71108 0.0
C800 C 0.48526 0.71083 0.76267 0.0
C801 C 0.49541 0.73823 0.74428 0.0
C802 C 0.50528 0.73445 0.70946 0.0
C803 C 0.5033 0.70451 0.69303 0.0
H804 H 0.79543 0.51656 0.6594 0.0
H805 H 0.83281 0.47963 0.7562 0.0
H806 H 0.74403 0.52715 0.68767 0.0
H807 H 0.78151 0.48866 0.78389 0.0
H808 H 0.6481 0.49225 0.7346 0.0
H809 H 0.70005 0.49757 0.70721 0.0
H810 H 0.74193 0.52246 0.80619 0.0
H811 H 0.68972 0.51551 0.83404 0.0
C812 C 0.79278 0.51092 0.68673 0.0
C813 C 0.81822 0.49699 0.70538 0.0
C814 C 0.7632 0.51677 0.70297 0.0
C815 C 0.75824 0.5085 0.73816 0.0
C816 C 0.78425 0.49586 0.757 0.0
C817 C 0.8138 0.49036 0.74092 0.0
C818 C 0.66824 0.49932 0.75057 0.0
C819 C 0.66472 0.50296 0.7867 0.0
C820 C 0.69821 0.50264 0.73469 0.0
C821 C 0.72559 0.51007 0.75438 0.0
C822 C 0.72163 0.51594 0.79021 0.0
C823 C 0.69159 0.51228 0.80621 0.0
H824 H 0.0055 0.7865 0.66188 0.0
H825 H 0.00929 0.83277 0.76192 0.0
H826 H 0.00846 0.73415 0.69056 0.0
H827 H 0.01364 0.78104 0.79033 0.0
H828 H 0.01057 0.68313 0.83855 0.0
H829 H 0.99275 0.73143 0.80791 0.0
H830 H 0.04807 0.70319 0.71808 0.0
H831 H 0.06461 0.65473 0.74802 0.0
C832 C 0.00646 0.78554 0.68997 0.0
C833 C 0.00742 0.81396 0.70947 0.0
C834 C 0.00854 0.75548 0.7065 0.0
C835 C 0.01183 0.75308 0.74292 0.0
C836 C 0.01087 0.78156 0.76238 0.0
C837 C 0.00857 0.81146 0.74593 0.0
C838 C 0.01851 0.68706 0.81208 0.0
C839 C 0.03921 0.66504 0.79593 0.0
C840 C 0.00847 0.71492 0.7945 0.0
C841 C 0.01906 0.72162 0.76039 0.0
C842 C 0.03888 0.69892 0.74399 0.0
C843 C 0.04867 0.67107 0.76141 0.0
H844 H 0.66393 0.00951 0.7664 0.0
H845 H 0.70603 0.98404 0.66775 0.0
H846 H 0.71514 0.00207 0.79464 0.0
H847 H 0.75743 0.97477 0.69648 0.0
H848 H 0.80825 0.98044 0.84463 0.0
H849 H 0.75725 0.97101 0.81527 0.0
H850 H 0.79831 0.00609 0.71917 0.0
H851 H 0.84921 0.01373 0.74795 0.0
C852 C 0.684 0.00151 0.75079 0.0
C853 C 0.6809 0.99785 0.71464 0.0
C854 C 0.71353 0.99693 0.76717 0.0
C855 C 0.74085 0.9881 0.74798 0.0
C856 C 0.73722 0.98234 0.7121 0.0
C857 C 0.70764 0.98737 0.69558 0.0
C858 C 0.80648 0.98547 0.81708 0.0
C859 C 0.83276 0.99816 0.79879 0.0
C860 C 0.77712 0.98034 0.80022 0.0
C861 C 0.77323 0.98821 0.76478 0.0
C862 C 0.80015 0.9993 0.74626 0.0
C863 C 0.82949 0.00398 0.76296 0.0
loop_
_geom_bond_atom_site_label_1
_geom_bond_atom_site_label_2
_geom_bond_distance
_geom_bond_site_symmetry_2
_ccdc_geom_bond_type
Mg0 O1 2.028 . S
Mg0 O7 1.986 . S
Mg0 O9 2.114 . S
Mg0 O10 2.251 . S
Mg0 O13 2.010 . S
O1 Mg0 2.028 . S
O1 C4 1.250 . S
O2 Mg3 2.028 . S
O2 C4 1.248 . S
Mg3 O2 2.028 . S
Mg3 O8 2.032 . S
Mg3 O10 2.079 . S
C4 O1 1.250 . S
C4 O2 1.248 . S
C5 O6 1.264 . S
C5 O13 1.249 . S
O6 C5 1.264 . S
O7 Mg0 1.986 . S
O7 C11 1.246 . S
O8 Mg3 2.032 . S
O8 C11 1.259 . S
O9 Mg0 2.114 . S
O9 C12 1.252 . S
O10 Mg0 2.251 . S
O10 Mg3 2.079 . S
O10 C12 1.273 . S
C11 O7 1.246 . S
C11 O8 1.259 . S
C12 O9 1.252 . S
C12 O10 1.273 . S
O13 Mg0 2.010 . S
O13 C5 1.249 . S
Mg14 O15 2.028 . S
Mg14 O21 1.986 . S
Mg14 O23 2.114 . S
Mg14 O24 2.251 . S
Mg14 O27 2.010 . S
O15 Mg14 2.028 . S
O15 C18 1.250 . S
O16 Mg17 2.028 . S
O16 C18 1.248 . S
Mg17 O16 2.028 . S
Mg17 O22 2.032 . S
Mg17 O24 2.079 . S
C18 O15 1.250 . S
C18 O16 1.248 . S
C19 O20 1.264 . S
C19 O27 1.249 . S
O20 C19 1.264 . S
O21 Mg14 1.986 . S
O21 C25 1.246 . S
O22 Mg17 2.032 . S
O22 C25 1.259 . S
O23 Mg14 2.114 . S
O23 C26 1.252 . S
O24 Mg14 2.251 . S
O24 Mg17 2.079 . S
O24 C26 1.273 . S
C25 O21 1.246 . S
C25 O22 1.259 . S
C26 O23 1.252 . S
C26 O24 1.273 . S
O27 Mg14 2.010 . S
O27 C19 1.249 . S
Mg28 O29 2.028 . S
Mg28 O35 1.986 . S
Mg28 O37 2.114 . S
Mg28 O38 2.251 . S
Mg28 O41 2.010 . S
O29 Mg28 2.028 . S
O29 C32 1.250 . S
O30 Mg31 2.028 . S
O30 C32 1.248 . S
Mg31 O30 2.028 . S
Mg31 O36 2.032 . S
Mg31 O38 2.079 . S
C32 O29 1.250 . S
C32 O30 1.248 . S
C33 O34 1.264 . S
C33 O41 1.249 . S
O34 C33 1.264 . S
O35 Mg28 1.986 . S
O35 C39 1.246 . S
O36 Mg31 2.032 . S
O36 C39 1.259 . S
O37 Mg28 2.114 . S
O37 C40 1.252 . S
O38 Mg28 2.251 . S
O38 Mg31 2.079 . S
O38 C40 1.273 . S
C39 O35 1.246 . S
C39 O36 1.259 . S
C40 O37 1.252 . S
C40 O38 1.273 . S
O41 Mg28 2.010 . S
O41 C33 1.249 . S
Mg42 O43 2.028 . S
Mg42 O49 1.986 . S
Mg42 O51 2.114 . S
Mg42 O52 2.251 . S
Mg42 O55 2.010 . S
O43 Mg42 2.028 . S
O43 C46 1.250 . S
O44 Mg45 2.028 . S
O44 C46 1.248 . S
Mg45 O44 2.028 . S
Mg45 O50 2.032 . S
Mg45 O52 2.079 . S
C46 O43 1.250 . S
C46 O44 1.248 . S
C47 O48 1.264 . S
C47 O55 1.249 . S
O48 C47 1.264 . S
O49 Mg42 1.986 . S
O49 C53 1.246 . S
O50 Mg45 2.032 . S
O50 C53 1.259 . S
O51 Mg42 2.114 . S
O51 C54 1.252 . S
O52 Mg42 2.251 . S
O52 Mg45 2.079 . S
O52 C54 1.273 . S
C53 O49 1.246 . S
C53 O50 1.259 . S
C54 O51 1.252 . S
C54 O52 1.273 . S
O55 Mg42 2.010 . S
O55 C47 1.249 . S
Mg56 O57 2.028 . S
Mg56 O63 1.986 . S
Mg56 O65 2.114 . S
Mg56 O66 2.251 . S
Mg56 O69 2.010 . S
O57 Mg56 2.028 . S
O57 C60 1.250 . S
O58 Mg59 2.028 . S
O58 C60 1.248 . S
Mg59 O58 2.028 . S
Mg59 O64 2.032 . S
Mg59 O66 2.079 . S
C60 O57 1.250 . S
C60 O58 1.248 . S
C61 O62 1.264 . S
C61 O69 1.249 . S
O62 C61 1.264 . S
O63 Mg56 1.986 . S
O63 C67 1.246 . S
O64 Mg59 2.032 . S
O64 C67 1.259 . S
O65 Mg56 2.114 . S
O65 C68 1.252 . S
O66 Mg56 2.251 . S
O66 Mg59 2.079 . S
O66 C68 1.273 . S
C67 O63 1.246 . S
C67 O64 1.259 . S
C68 O65 1.252 . S
C68 O66 1.273 . S
O69 Mg56 2.010 . S
O69 C61 1.249 . S
Mg70 O71 2.028 . S
Mg70 O77 1.986 . S
Mg70 O79 2.114 . S
Mg70 O80 2.251 . S
Mg70 O83 2.010 . S
O71 Mg70 2.028 . S
O71 C74 1.250 . S
O72 Mg73 2.028 . S
O72 C74 1.248 . S
Mg73 O72 2.028 . S
Mg73 O78 2.032 . S
Mg73 O80 2.079 . S
C74 O71 1.250 . S
C74 O72 1.248 . S
C75 O76 1.264 . S
C75 O83 1.249 . S
O76 C75 1.264 . S
O77 Mg70 1.986 . S
O77 C81 1.246 . S
O78 Mg73 2.032 . S
O78 C81 1.259 . S
O79 Mg70 2.114 . S
O79 C82 1.252 . S
O80 Mg70 2.251 . S
O80 Mg73 2.079 . S
O80 C82 1.273 . S
C81 O77 1.246 . S
C81 O78 1.259 . S
C82 O79 1.252 . S
C82 O80 1.273 . S
O83 Mg70 2.010 . S
O83 C75 1.249 . S
Mg84 O85 2.028 . S
Mg84 O91 1.986 . S
Mg84 O93 2.114 . S
Mg84 O94 2.251 . S
Mg84 O97 2.010 . S
O85 Mg84 2.028 . S
O85 C88 1.250 . S
O86 Mg87 2.028 . S
O86 C88 1.248 . S
Mg87 O86 2.028 . S
Mg87 O92 2.032 . S
Mg87 O94 2.079 . S
C88 O85 1.250 . S
C88 O86 1.248 . S
C89 O90 1.264 . S
C89 O97 1.249 . S
O90 C89 1.264 . S
O91 Mg84 1.986 . S
O91 C95 1.246 . S
O92 Mg87 2.032 . S
O92 C95 1.259 . S
O93 Mg84 2.114 . S
O93 C96 1.252 . S
O94 Mg84 2.251 . S
O94 Mg87 2.079 . S
O94 C96 1.273 . S
C95 O91 1.246 . S
C95 O92 1.259 . S
C96 O93 1.252 . S
C96 O94 1.273 . S
O97 Mg84 2.010 . S
O97 C89 1.249 . S
Mg98 O99 2.028 . S
Mg98 O105 1.986 . S
Mg98 O107 2.114 . S
Mg98 O108 2.251 . S
Mg98 O111 2.010 . S
O99 Mg98 2.028 . S
O99 C102 1.250 . S
O100 Mg101 2.028 . S
O100 C102 1.248 . S
Mg101 O100 2.028 . S
Mg101 O106 2.032 . S
Mg101 O108 2.079 . S
C102 O99 1.250 . S
C102 O100 1.248 . S
C103 O104 1.264 . S
C103 O111 1.249 . S
O104 C103 1.264 . S
O105 Mg98 1.986 . S
O105 C109 1.246 . S
O106 Mg101 2.032 . S
O106 C109 1.259 . S
O107 Mg98 2.114 . S
O107 C110 1.252 . S
O108 Mg98 2.251 . S
O108 Mg101 2.079 . S
O108 C110 1.273 . S
C109 O105 1.246 . S
C109 O106 1.259 . S
C110 O107 1.252 . S
C110 O108 1.273 . S
O111 Mg98 2.010 . S
O111 C103 1.249 . S
Mg112 O113 2.028 . S
Mg112 O119 1.986 . S
Mg112 O121 2.114 . S
Mg112 O122 2.251 . S
Mg112 O125 2.010 . S
O113 Mg112 2.028 . S
O113 C116 1.250 . S
O114 Mg115 2.028 1_556 S
O114 C116 1.248 . S
Mg115 O114 2.028 1_554 S
Mg115 O120 2.032 1_554 S
Mg115 O122 2.079 1_554 S
C116 O113 1.250 . S
C116 O114 1.248 . S
C117 O118 1.264 . S
C117 O125 1.249 . S
O118 C117 1.264 . S
O119 Mg112 1.986 . S
O119 C123 1.246 . S
O120 Mg115 2.032 1_556 S
O120 C123 1.259 . S
O121 Mg112 2.114 . S
O121 C124 1.252 . S
O122 Mg112 2.251 . S
O122 Mg115 2.079 1_556 S
O122 C124 1.273 . S
C123 O119 1.246 . S
C123 O120 1.259 . S
C124 O121 1.252 . S
C124 O122 1.273 . S
O125 Mg112 2.010 . S
O125 C117 1.249 . S
Mg126 O127 2.028 . S
Mg126 O133 1.986 . S
Mg126 O135 2.114 . S
Mg126 O136 2.251 . S
Mg126 O139 2.010 . S
O127 Mg126 2.028 . S
O127 C130 1.250 . S
O128 Mg129 2.028 1_556 S
O128 C130 1.248 . S
Mg129 O128 2.028 1_554 S
Mg129 O134 2.032 1_554 S
Mg129 O136 2.079 1_554 S
C130 O127 1.250 . S
C130 O128 1.248 . S
C131 O132 1.264 . S
C131 O139 1.249 . S
O132 C131 1.264 . S
O133 Mg126 1.986 . S
O133 C137 1.246 . S
O134 Mg129 2.032 1_556 S
O134 C137 1.259 . S
O135 Mg126 2.114 . S
O135 C138 1.252 . S
O136 Mg126 2.251 . S
O136 Mg129 2.079 1_556 S
O136 C138 1.273 . S
C137 O133 1.246 . S
C137 O134 1.259 . S
C138 O135 1.252 . S
C138 O136 1.273 . S
O139 Mg126 2.010 . S
O139 C131 1.249 . S
Mg140 O141 2.028 . S
Mg140 O147 1.986 . S
Mg140 O149 2.114 . S
Mg140 O150 2.251 . S
Mg140 O153 2.010 . S
O141 Mg140 2.028 . S
O141 C144 1.250 . S
O142 Mg143 2.028 1_556 S
O142 C144 1.248 . S
Mg143 O142 2.028 1_554 S
Mg143 O148 2.032 1_554 S
Mg143 O150 2.079 1_554 S
C144 O141 1.250 . S
C144 O142 1.248 . S
C145 O146 1.264 . S
C145 O153 1.249 . S
O146 C145 1.264 . S
O147 Mg140 1.986 . S
O147 C151 1.246 . S
O148 Mg143 2.032 1_556 S
O148 C151 1.259 . S
O149 Mg140 2.114 . S
O149 C152 1.252 . S
O150 Mg140 2.251 . S
O150 Mg143 2.079 1_556 S
O150 C152 1.273 . S
C151 O147 1.246 . S
C151 O148 1.259 . S
C152 O149 1.252 . S
C152 O150 1.273 . S
O153 Mg140 2.010 . S
O153 C145 1.249 . S
Mg154 O155 2.028 . S
Mg154 O161 1.986 . S
Mg154 O163 2.114 . S
Mg154 O164 2.251 . S
Mg154 O167 2.010 . S
O155 Mg154 2.028 . S
O155 C158 1.250 . S
O156 Mg157 2.028 1_556 S
O156 C158 1.248 . S
Mg157 O156 2.028 1_554 S
Mg157 O162 2.032 1_554 S
Mg157 O164 2.079 1_554 S
C158 O155 1.250 . S
C158 O156 1.248 . S
C159 O160 1.264 . S
C159 O167 1.249 . S
O160 C159 1.264 . S
O161 Mg154 1.986 . S
O161 C165 1.246 . S
O162 Mg157 2.032 1_556 S
O162 C165 1.259 . S
O163 Mg154 2.114 . S
O163 C166 1.252 . S
O164 Mg154 2.251 . S
O164 Mg157 2.079 1_556 S
O164 C166 1.273 . S
C165 O161 1.246 . S
C165 O162 1.259 . S
C166 O163 1.252 . S
C166 O164 1.273 . S
O167 Mg154 2.010 . S
O167 C159 1.249 . S
Mg168 O169 2.028 . S
Mg168 O175 1.986 . S
Mg168 O177 2.114 . S
Mg168 O178 2.251 . S
Mg168 O181 2.010 . S
O169 Mg168 2.028 . S
O169 C172 1.250 . S
O170 Mg171 2.028 . S
O170 C172 1.248 . S
Mg171 O170 2.028 . S
Mg171 O176 2.032 . S
Mg171 O178 2.079 . S
C172 O169 1.250 . S
C172 O170 1.248 . S
C173 O174 1.264 . S
C173 O181 1.249 . S
O174 C173 1.264 . S
O175 Mg168 1.986 . S
O175 C179 1.246 . S
O176 Mg171 2.032 . S
O176 C179 1.259 . S
O177 Mg168 2.114 . S
O177 C180 1.252 . S
O178 Mg168 2.251 . S
O178 Mg171 2.079 . S
O178 C180 1.273 . S
C179 O175 1.246 . S
C179 O176 1.259 . S
C180 O177 1.252 . S
C180 O178 1.273 . S
O181 Mg168 2.010 . S
O181 C173 1.249 . S
Mg182 O183 2.028 . S
Mg182 O189 1.986 . S
Mg182 O191 2.114 . S
Mg182 O192 2.251 . S
Mg182 O195 2.010 . S
O183 Mg182 2.028 . S
O183 C186 1.250 . S
O184 Mg185 2.028 . S
O184 C186 1.248 . S
Mg185 O184 2.028 . S
Mg185 O190 2.032 . S
Mg185 O192 2.079 . S
C186 O183 1.250 . S
C186 O184 1.248 . S
C187 O188 1.264 . S
C187 O195 1.249 . S
O188 C187 1.264 . S
O189 Mg182 1.986 . S
O189 C193 1.246 . S
O190 Mg185 2.032 . S
O190 C193 1.259 . S
O191 Mg182 2.114 . S
O191 C194 1.252 . S
O192 Mg182 2.251 . S
O192 Mg185 2.079 . S
O192 C194 1.273 . S
C193 O189 1.246 . S
C193 O190 1.259 . S
C194 O191 1.252 . S
C194 O192 1.273 . S
O195 Mg182 2.010 . S
O195 C187 1.249 . S
Mg196 O197 2.028 . S
Mg196 O203 1.986 . S
Mg196 O205 2.114 . S
Mg196 O206 2.251 . S
Mg196 O209 2.010 . S
O197 Mg196 2.028 . S
O197 C200 1.250 . S
O198 Mg199 2.028 . S
O198 C200 1.248 . S
Mg199 O198 2.028 . S
Mg199 O204 2.032 . S
Mg199 O206 2.079 . S
C200 O197 1.250 . S
C200 O198 1.248 . S
C201 O202 1.264 . S
C201 O209 1.249 . S
O202 C201 1.264 . S
O203 Mg196 1.986 . S
O203 C207 1.246 . S
O204 Mg199 2.032 . S
O204 C207 1.259 . S
O205 Mg196 2.114 . S
O205 C208 1.252 . S
O206 Mg196 2.251 . S
O206 Mg199 2.079 . S
O206 C208 1.273 . S
C207 O203 1.246 . S
C207 O204 1.259 . S
C208 O205 1.252 . S
C208 O206 1.273 . S
O209 Mg196 2.010 . S
O209 C201 1.249 . S
Mg210 O211 2.028 . S
Mg210 O217 1.986 . S
Mg210 O219 2.114 . S
Mg210 O220 2.251 . S
Mg210 O223 2.010 . S
O211 Mg210 2.028 . S
O211 C214 1.250 . S
O212 Mg213 2.028 . S
O212 C214 1.248 . S
Mg213 O212 2.028 . S
Mg213 O218 2.032 . S
Mg213 O220 2.079 . S
C214 O211 1.250 . S
C214 O212 1.248 . S
C215 O216 1.264 . S
C215 O223 1.249 . S
O216 C215 1.264 . S
O217 Mg210 1.986 . S
O217 C221 1.246 . S
O218 Mg213 2.032 . S
O218 C221 1.259 . S
O219 Mg210 2.114 . S
O219 C222 1.252 . S
O220 Mg210 2.251 . S
O220 Mg213 2.079 . S
O220 C222 1.273 . S
C221 O217 1.246 . S
C221 O218 1.259 . S
C222 O219 1.252 . S
C222 O220 1.273 . S
O223 Mg210 2.010 . S
O223 C215 1.249 . S
H224 C232 0.950 . S
H225 C237 0.937 1_556 S
H226 C234 0.950 . S
H227 C236 0.950 . S
H228 C238 0.950 . S
H229 C240 0.950 . S
H230 C242 0.950 1_554 S
H231 C243 0.950 . S
C232 H224 0.950 . S
C232 C233 1.386 . S
C232 C234 1.391 . S
C233 C232 1.386 . S
C233 C237 1.419 . S
C234 H226 0.950 . S
C234 C232 1.391 . S
C234 C235 1.382 1_554 S
C235 C234 1.382 1_556 S
C235 C236 1.407 . S
C235 C241 1.500 . S
C236 H227 0.950 . S
C236 C235 1.407 . S
C236 C237 1.377 1_556 S
C237 H225 0.937 1_554 S
C237 C233 1.419 . S
C237 C236 1.377 1_554 S
C238 H228 0.950 . S
C238 C239 1.386 . S
C238 C240 1.391 . S
C239 C238 1.386 . S
C239 C243 1.393 . S
C240 H229 0.950 . S
C240 C238 1.391 . S
C240 C241 1.400 . S
C241 C235 1.500 . S
C241 C240 1.400 . S
C241 C242 1.398 . S
C242 H230 0.950 1_556 S
C242 C241 1.398 . S
C242 C243 1.391 . S
C243 H231 0.950 . S
C243 C239 1.393 . S
C243 C242 1.391 . S
H244 C252 0.950 . S
H245 C257 0.950 . S
H246 C254 0.950 . S
H247 C256 0.950 1_554 S
H248 C258 0.950 . S
H249 C260 0.950 . S
H250 C262 0.950 . S
H251 C263 0.936 1_556 S
C252 H244 0.950 . S
C252 C253 1.386 . S
C252 C254 1.391 . S
C253 C252 1.386 . S
C253 C257 1.393 . S
C254 H246 0.950 . S
C254 C252 1.391 . S
C254 C255 1.400 . S
C255 C254 1.400 . S
C255 C256 1.398 . S
C255 C261 1.502 . S
C256 H247 0.950 1_556 S
C256 C255 1.398 . S
C256 C257 1.391 . S
C257 H245 0.950 . S
C257 C253 1.393 . S
C257 C256 1.391 . S
C258 H248 0.950 . S
C258 C259 1.386 . S
C258 C260 1.391 . S
C259 C258 1.386 . S
C259 C263 1.423 . S
C260 H249 0.950 . S
C260 C258 1.391 . S
C260 C261 1.378 1_554 S
C261 C255 1.502 . S
C261 C260 1.378 1_556 S
C261 C262 1.409 . S
C262 H250 0.950 . S
C262 C261 1.409 . S
C262 C263 1.376 1_556 S
C263 H251 0.936 1_554 S
C263 C259 1.423 . S
C263 C262 1.376 1_554 S
H264 C272 0.950 . S
H265 C277 0.950 . S
H266 C274 0.950 . S
H267 C276 0.950 . S
H268 C278 0.950 . S
H269 C280 0.950 . S
H270 C282 0.950 . S
H271 C283 0.950 . S
C272 H264 0.950 . S
C272 C273 1.386 . S
C272 C274 1.391 . S
C273 C272 1.386 . S
C273 C277 1.393 . S
C274 H266 0.950 . S
C274 C272 1.391 . S
C274 C275 1.400 . S
C275 C274 1.400 . S
C275 C276 1.398 . S
C275 C281 1.489 . S
C276 H267 0.950 . S
C276 C275 1.398 . S
C276 C277 1.391 . S
C277 H265 0.950 . S
C277 C273 1.393 . S
C277 C276 1.391 . S
C278 H268 0.950 . S
C278 C279 1.386 . S
C278 C280 1.391 1_554 S
C279 C278 1.386 . S
C279 C283 1.393 . S
C280 H269 0.950 . S
C280 C278 1.391 1_556 S
C280 C281 1.400 . S
C281 C275 1.489 . S
C281 C280 1.400 . S
C281 C282 1.401 1_556 S
C282 H270 0.950 . S
C282 C281 1.401 1_554 S
C282 C283 1.391 . S
C283 H271 0.950 . S
C283 C279 1.393 . S
C283 C282 1.391 . S
H284 C292 0.950 . S
H285 C297 0.950 . S
H286 C294 0.950 . S
H287 C296 0.950 . S
H288 C298 0.950 . S
H289 C300 0.950 1_556 S
H290 C302 0.950 . S
H291 C303 0.950 . S
C292 H284 0.950 . S
C292 C293 1.386 . S
C292 C294 1.391 . S
C293 C292 1.386 . S
C293 C297 1.393 . S
C294 H286 0.950 . S
C294 C292 1.391 . S
C294 C295 1.400 . S
C295 C294 1.400 . S
C295 C296 1.398 . S
C295 C301 1.492 1_556 S
C296 H287 0.950 . S
C296 C295 1.398 . S
C296 C297 1.391 . S
C297 H285 0.950 . S
C297 C293 1.393 . S
C297 C296 1.391 . S
C298 H288 0.950 . S
C298 C299 1.386 . S
C298 C300 1.391 . S
C299 C298 1.386 . S
C299 C303 1.393 . S
C300 H289 0.950 1_554 S
C300 C298 1.391 . S
C300 C301 1.400 . S
C301 C295 1.492 1_554 S
C301 C300 1.400 . S
C301 C302 1.397 . S
C302 H290 0.950 . S
C302 C301 1.397 . S
C302 C303 1.391 . S
C303 H291 0.950 . S
C303 C299 1.393 . S
C303 C302 1.391 . S
H304 C312 0.950 . S
H305 C317 0.950 . S
H306 C314 0.950 . S
H307 C316 0.950 . S
H308 C318 0.950 . S
H309 C320 0.950 . S
H310 C322 0.950 . S
H311 C323 0.950 . S
C312 H304 0.950 . S
C312 C313 1.386 . S
C312 C314 1.391 . S
C313 C312 1.386 . S
C313 C317 1.393 . S
C314 H306 0.950 . S
C314 C312 1.391 . S
C314 C315 1.400 . S
C315 C314 1.400 . S
C315 C316 1.398 . S
C315 C321 1.491 . S
C316 H307 0.950 . S
C316 C315 1.398 . S
C316 C317 1.391 . S
C317 H305 0.950 . S
C317 C313 1.393 . S
C317 C316 1.391 . S
C318 H308 0.950 . S
C318 C319 1.386 . S
C318 C320 1.391 . S
C319 C318 1.386 . S
C319 C323 1.393 . S
C320 H309 0.950 . S
C320 C318 1.391 . S
C320 C321 1.400 . S
C321 C315 1.491 . S
C321 C320 1.400 . S
C321 C322 1.398 . S
C322 H310 0.950 . S
C322 C321 1.398 . S
C322 C323 1.391 . S
C323 H311 0.950 . S
C323 C319 1.393 . S
C323 C322 1.391 . S
H324 C332 0.950 . S
H325 C337 0.950 . S
H326 C334 0.950 . S
H327 C336 0.950 . S
H328 C338 0.950 . S
H329 C340 0.950 . S
H330 C342 0.950 . S
H331 C343 0.950 . S
C332 H324 0.950 . S
C332 C333 1.386 . S
C332 C334 1.391 . S
C333 C332 1.386 . S
C333 C337 1.393 . S
C334 H326 0.950 . S
C334 C332 1.391 . S
C334 C335 1.400 . S
C335 C334 1.400 . S
C335 C336 1.398 . S
C335 C341 1.491 . S
C336 H327 0.950 . S
C336 C335 1.398 . S
C336 C337 1.391 . S
C337 H325 0.950 . S
C337 C333 1.393 . S
C337 C336 1.391 . S
C338 H328 0.950 . S
C338 C339 1.386 . S
C338 C340 1.391 . S
C339 C338 1.386 . S
C339 C343 1.393 . S
C340 H329 0.950 . S
C340 C338 1.391 . S
C340 C341 1.400 . S
C341 C335 1.491 . S
C341 C340 1.400 . S
C341 C342 1.398 . S
C342 H330 0.950 . S
C342 C341 1.398 . S
C342 C343 1.391 . S
C343 H331 0.950 . S
C343 C339 1.393 . S
C343 C342 1.391 . S
H344 C352 0.950 . S
H345 C357 0.950 . S
H346 C354 0.950 . S
H347 C356 0.950 . S
H348 C358 0.950 . S
H349 C360 0.950 . S
H350 C362 0.950 . S
H351 C363 0.950 . S
C352 H344 0.950 . S
C352 C353 1.386 . S
C352 C354 1.391 . S
C353 C352 1.386 . S
C353 C357 1.393 . S
C354 H346 0.950 . S
C354 C352 1.391 . S
C354 C355 1.400 . S
C355 C354 1.400 . S
C355 C356 1.398 . S
C355 C361 1.491 . S
C356 H347 0.950 . S
C356 C355 1.398 . S
C356 C357 1.391 . S
C357 H345 0.950 . S
C357 C353 1.393 . S
C357 C356 1.391 . S
C358 H348 0.950 . S
C358 C359 1.386 . S
C358 C360 1.391 . S
C359 C358 1.386 . S
C359 C363 1.393 . S
C360 H349 0.950 . S
C360 C358 1.391 . S
C360 C361 1.400 . S
C361 C355 1.491 . S
C361 C360 1.400 . S
C361 C362 1.398 . S
C362 H350 0.950 . S
C362 C361 1.398 . S
C362 C363 1.391 . S
C363 H351 0.950 . S
C363 C359 1.393 . S
C363 C362 1.391 . S
H364 C372 0.950 . S
H365 C377 0.950 . S
H366 C374 0.950 . S
H367 C376 0.950 . S
H368 C378 0.950 . S
H369 C380 0.950 . S
H370 C382 0.950 . S
H371 C383 0.950 . S
C372 H364 0.950 . S
C372 C373 1.386 . S
C372 C374 1.391 . S
C373 C372 1.386 . S
C373 C377 1.393 . S
C374 H366 0.950 . S
C374 C372 1.391 . S
C374 C375 1.400 . S
C375 C374 1.400 . S
C375 C376 1.398 . S
C375 C381 1.491 . S
C376 H367 0.950 . S
C376 C375 1.398 . S
C376 C377 1.391 . S
C377 H365 0.950 . S
C377 C373 1.393 . S
C377 C376 1.391 . S
C378 H368 0.950 . S
C378 C379 1.386 . S
C378 C380 1.391 . S
C379 C378 1.386 . S
C379 C383 1.393 . S
C380 H369 0.950 . S
C380 C378 1.391 . S
C380 C381 1.400 . S
C381 C375 1.491 . S
C381 C380 1.400 . S
C381 C382 1.398 . S
C382 H370 0.950 . S
C382 C381 1.398 . S
C382 C383 1.391 . S
C383 H371 0.950 . S
C383 C379 1.393 . S
C383 C382 1.391 . S
H384 C392 0.950 . S
H385 C397 0.950 . S
H386 C394 0.950 1_554 S
H387 C396 0.950 . S
H388 C398 0.950 . S
H389 C400 0.950 . S
H390 C402 0.950 . S
H391 C403 0.950 . S
C392 H384 0.950 . S
C392 C393 1.386 . S
C392 C394 1.391 . S
C393 C392 1.386 . S
C393 C397 1.393 . S
C394 H386 0.950 1_556 S
C394 C392 1.391 . S
C394 C395 1.400 1_556 S
C395 C394 1.400 1_554 S
C395 C396 1.398 1_554 S
C395 C401 1.491 . S
C396 H387 0.950 . S
C396 C395 1.398 1_556 S
C396 C397 1.391 . S
C397 H385 0.950 . S
C397 C393 1.393 . S
C397 C396 1.391 . S
C398 H388 0.950 . S
C398 C399 1.386 . S
C398 C400 1.391 . S
C399 C398 1.386 . S
C399 C403 1.393 . S
C400 H389 0.950 . S
C400 C398 1.391 . S
C400 C401 1.400 . S
C401 C395 1.491 . S
C401 C400 1.400 . S
C401 C402 1.398 . S
C402 H390 0.950 . S
C402 C401 1.398 . S
C402 C403 1.391 . S
C403 H391 0.950 . S
C403 C399 1.393 . S
C403 C402 1.391 . S
H404 C412 0.950 . S
H405 C417 0.950 . S
H406 C414 0.950 . S
H407 C416 0.950 . S
H408 C418 0.950 . S
H409 C420 0.950 . S
H410 C422 0.950 . S
H411 C423 0.950 . S
C412 H404 0.950 . S
C412 C413 1.386 . S
C412 C414 1.391 . S
C413 C412 1.386 . S
C413 C417 1.393 . S
C414 H406 0.950 . S
C414 C412 1.391 . S
C414 C415 1.400 1_556 S
C415 C414 1.400 1_554 S
C415 C416 1.398 . S
C415 C421 1.491 . S
C416 H407 0.950 . S
C416 C415 1.398 . S
C416 C417 1.391 1_554 S
C417 H405 0.950 . S
C417 C413 1.393 . S
C417 C416 1.391 1_556 S
C418 H408 0.950 . S
C418 C419 1.386 . S
C418 C420 1.391 . S
C419 C418 1.386 . S
C419 C423 1.393 . S
C420 H409 0.950 . S
C420 C418 1.391 . S
C420 C421 1.400 . S
C421 C415 1.491 . S
C421 C420 1.400 . S
C421 C422 1.398 . S
C422 H410 0.950 . S
C422 C421 1.398 . S
C422 C423 1.391 . S
C423 H411 0.950 . S
C423 C419 1.393 . S
C423 C422 1.391 . S
H424 C432 0.950 . S
H425 C437 0.950 . S
H426 C434 0.950 . S
H427 C436 0.950 . S
H428 C438 0.950 . S
H429 C440 0.950 . S
H430 C442 0.950 . S
H431 C443 0.950 . S
C432 H424 0.950 . S
C432 C433 1.386 . S
C432 C434 1.391 1_556 S
C433 C432 1.386 . S
C433 C437 1.393 . S
C434 H426 0.950 . S
C434 C432 1.391 1_554 S
C434 C435 1.400 . S
C435 C434 1.400 . S
C435 C436 1.398 1_554 S
C435 C441 1.491 . S
C436 H427 0.950 . S
C436 C435 1.398 1_556 S
C436 C437 1.391 . S
C437 H425 0.950 . S
C437 C433 1.393 . S
C437 C436 1.391 . S
C438 H428 0.950 . S
C438 C439 1.386 . S
C438 C440 1.391 . S
C439 C438 1.386 . S
C439 C443 1.393 . S
C440 H429 0.950 . S
C440 C438 1.391 . S
C440 C441 1.400 . S
C441 C435 1.491 . S
C441 C440 1.400 . S
C441 C442 1.398 . S
C442 H430 0.950 . S
C442 C441 1.398 . S
C442 C443 1.391 . S
C443 H431 0.950 . S
C443 C439 1.393 . S
C443 C442 1.391 . S
H444 C452 0.950 . S
H445 C457 0.950 . S
H446 C454 0.950 . S
H447 C456 0.950 . S
H448 C458 0.950 . S
H449 C460 0.950 1_554 S
H450 C462 0.950 . S
H451 C463 0.950 . S
C452 H444 0.950 . S
C452 C453 1.386 . S
C452 C454 1.391 . S
C453 C452 1.386 . S
C453 C457 1.393 . S
C454 H446 0.950 . S
C454 C452 1.391 . S
C454 C455 1.400 . S
C455 C454 1.400 . S
C455 C456 1.398 . S
C455 C461 1.491 . S
C456 H447 0.950 . S
C456 C455 1.398 . S
C456 C457 1.391 . S
C457 H445 0.950 . S
C457 C453 1.393 . S
C457 C456 1.391 . S
C458 H448 0.950 . S
C458 C459 1.386 . S
C458 C460 1.391 . S
C459 C458 1.386 . S
C459 C463 1.393 . S
C460 H449 0.950 1_556 S
C460 C458 1.391 . S
C460 C461 1.400 1_556 S
C461 C455 1.491 . S
C461 C460 1.400 1_554 S
C461 C462 1.398 1_554 S
C462 H450 0.950 . S
C462 C461 1.398 1_556 S
C462 C463 1.391 . S
C463 H451 0.950 . S
C463 C459 1.393 . S
C463 C462 1.391 . S
H464 C472 0.950 . S
H465 C477 0.950 . S
H466 C474 0.950 . S
H467 C476 0.950 . S
H468 C478 0.950 . S
H469 C480 0.950 . S
H470 C482 0.950 . S
H471 C483 0.950 . S
C472 H464 0.950 . S
C472 C473 1.386 . S
C472 C474 1.391 . S
C473 C472 1.386 . S
C473 C477 1.393 . S
C474 H466 0.950 . S
C474 C472 1.391 . S
C474 C475 1.400 . S
C475 C474 1.400 . S
C475 C476 1.398 . S
C475 C481 1.491 . S
C476 H467 0.950 . S
C476 C475 1.398 . S
C476 C477 1.391 . S
C477 H465 0.950 . S
C477 C473 1.393 . S
C477 C476 1.391 . S
C478 H468 0.950 . S
C478 C479 1.386 . S
C478 C480 1.391 . S
C479 C478 1.386 . S
C479 C483 1.393 . S
C480 H469 0.950 . S
C480 C478 1.391 . S
C480 C481 1.400 . S
C481 C475 1.491 . S
C481 C480 1.400 . S
C481 C482 1.398 . S
C482 H470 0.950 . S
C482 C481 1.398 . S
C482 C483 1.391 . S
C483 H471 0.950 . S
C483 C479 1.393 . S
C483 C482 1.391 . S
H484 C492 0.950 . S
H485 C497 0.950 . S
H486 C494 0.950 . S
H487 C496 0.950 . S
H488 C498 0.950 . S
H489 C500 0.950 . S
H490 C502 0.950 . S
H491 C503 0.950 . S
C492 H484 0.950 . S
C492 C493 1.386 . S
C492 C494 1.391 . S
C493 C492 1.386 . S
C493 C497 1.393 . S
C494 H486 0.950 . S
C494 C492 1.391 . S
C494 C495 1.400 . S
C495 C494 1.400 . S
C495 C496 1.398 . S
C495 C501 1.491 . S
C496 H487 0.950 . S
C496 C495 1.398 . S
C496 C497 1.391 . S
C497 H485 0.950 . S
C497 C493 1.393 . S
C497 C496 1.391 . S
C498 H488 0.950 . S
C498 C499 1.386 . S
C498 C500 1.391 . S
C499 C498 1.386 . S
C499 C503 1.393 . S
C500 H489 0.950 . S
C500 C498 1.391 . S
C500 C501 1.400 . S
C501 C495 1.491 . S
C501 C500 1.400 . S
C501 C502 1.398 . S
C502 H490 0.950 . S
C502 C501 1.398 . S
C502 C503 1.391 . S
C503 H491 0.950 . S
C503 C499 1.393 . S
C503 C502 1.391 . S
H504 C512 0.950 . S
H505 C517 0.950 . S
H506 C514 0.950 . S
H507 C516 0.950 . S
H508 C518 0.950 . S
H509 C520 0.950 . S
H510 C522 0.950 . S
H511 C523 0.950 . S
C512 H504 0.950 . S
C512 C513 1.386 . S
C512 C514 1.391 . S
C513 C512 1.386 . S
C513 C517 1.393 . S
C514 H506 0.950 . S
C514 C512 1.391 . S
C514 C515 1.400 . S
C515 C514 1.400 . S
C515 C516 1.398 . S
C515 C521 1.491 . S
C516 H507 0.950 . S
C516 C515 1.398 . S
C516 C517 1.391 . S
C517 H505 0.950 . S
C517 C513 1.393 . S
C517 C516 1.391 . S
C518 H508 0.950 . S
C518 C519 1.386 . S
C518 C520 1.391 . S
C519 C518 1.386 . S
C519 C523 1.393 . S
C520 H509 0.950 . S
C520 C518 1.391 . S
C520 C521 1.400 . S
C521 C515 1.491 . S
C521 C520 1.400 . S
C521 C522 1.398 . S
C522 H510 0.950 . S
C522 C521 1.398 . S
C522 C523 1.391 . S
C523 H511 0.950 . S
C523 C519 1.393 . S
C523 C522 1.391 . S
H524 C532 0.950 . S
H525 C537 0.950 . S
H526 C534 0.950 . S
H527 C536 0.950 . S
H528 C538 0.950 . S
H529 C540 0.950 . S
H530 C542 0.950 . S
H531 C543 0.950 . S
C532 H524 0.950 . S
C532 C533 1.386 . S
C532 C534 1.391 . S
C533 C532 1.386 . S
C533 C537 1.393 . S
C534 H526 0.950 . S
C534 C532 1.391 . S
C534 C535 1.400 . S
C535 C534 1.400 . S
C535 C536 1.398 . S
C535 C541 1.491 . S
C536 H527 0.950 . S
C536 C535 1.398 . S
C536 C537 1.391 . S
C537 H525 0.950 . S
C537 C533 1.393 . S
C537 C536 1.391 . S
C538 H528 0.950 . S
C538 C539 1.386 . S
C538 C540 1.391 . S
C539 C538 1.386 . S
C539 C543 1.393 . S
C540 H529 0.950 . S
C540 C538 1.391 . S
C540 C541 1.400 . S
C541 C535 1.491 . S
C541 C540 1.400 . S
C541 C542 1.398 . S
C542 H530 0.950 . S
C542 C541 1.398 . S
C542 C543 1.391 . S
C543 H531 0.950 . S
C543 C539 1.393 . S
C543 C542 1.391 . S
H544 C552 0.950 . S
H545 C557 0.950 . S
H546 C554 0.950 1_554 S
H547 C556 0.950 . S
H548 C558 0.950 . S
H549 C560 0.950 . S
H550 C562 0.950 . S
H551 C563 0.950 . S
C552 H544 0.950 . S
C552 C553 1.386 . S
C552 C554 1.391 . S
C553 C552 1.386 . S
C553 C557 1.393 . S
C554 H546 0.950 1_556 S
C554 C552 1.391 . S
C554 C555 1.400 . S
C555 C554 1.400 . S
C555 C556 1.398 . S
C555 C561 1.491 1_566 S
C556 H547 0.950 . S
C556 C555 1.398 . S
C556 C557 1.391 . S
C557 H545 0.950 . S
C557 C553 1.393 . S
C557 C556 1.391 . S
C558 H548 0.950 . S
C558 C559 1.386 . S
C558 C560 1.391 . S
C559 C558 1.386 . S
C559 C563 1.393 . S
C560 H549 0.950 . S
C560 C558 1.391 . S
C560 C561 1.400 . S
C561 C555 1.491 1_544 S
C561 C560 1.400 . S
C561 C562 1.398 . S
C562 H550 0.950 . S
C562 C561 1.398 . S
C562 C563 1.391 . S
C563 H551 0.950 . S
C563 C559 1.393 . S
C563 C562 1.391 . S
H564 C572 0.950 . S
H565 C577 0.950 . S
H566 C574 0.950 1_556 S
H567 C576 0.950 . S
H568 C578 0.950 . S
H569 C580 0.940 1_554 S
H570 C582 0.950 . S
H571 C583 0.950 . S
C572 H564 0.950 . S
C572 C573 1.386 . S
C572 C574 1.391 . S
C573 C572 1.386 . S
C573 C577 1.393 . S
C574 H566 0.950 1_554 S
C574 C572 1.391 . S
C574 C575 1.400 . S
C575 C574 1.400 . S
C575 C576 1.398 . S
C575 C581 1.491 1_554 S
C576 H567 0.950 . S
C576 C575 1.398 . S
C576 C577 1.391 . S
C577 H565 0.950 . S
C577 C573 1.393 . S
C577 C576 1.391 . S
C578 H568 0.950 . S
C578 C579 1.386 . S
C578 C580 1.399 . S
C579 C578 1.386 . S
C579 C583 1.393 . S
C580 H569 0.940 1_556 S
C580 C578 1.399 . S
C580 C581 1.402 . S
C581 C575 1.491 1_556 S
C581 C580 1.402 . S
C581 C582 1.398 . S
C582 H570 0.950 . S
C582 C581 1.398 . S
C582 C583 1.391 . S
C583 H571 0.950 . S
C583 C579 1.393 . S
C583 C582 1.391 . S
H584 C592 0.950 . S
H585 C597 0.950 . S
H586 C594 0.950 . S
H587 C596 0.950 . S
H588 C598 0.950 1_455 S
H589 C600 0.950 . S
H590 C602 0.950 . S
H591 C603 0.950 . S
C592 H584 0.950 . S
C592 C593 1.386 1_655 S
C592 C594 1.391 . S
C593 C592 1.386 1_455 S
C593 C597 1.393 . S
C594 H586 0.950 . S
C594 C592 1.391 . S
C594 C595 1.400 . S
C595 C594 1.400 . S
C595 C596 1.398 1_655 S
C595 C601 1.491 1_556 S
C596 H587 0.950 . S
C596 C595 1.398 1_455 S
C596 C597 1.391 . S
C597 H585 0.950 . S
C597 C593 1.393 . S
C597 C596 1.391 . S
C598 H588 0.950 1_655 S
C598 C599 1.386 . S
C598 C600 1.391 1_655 S
C599 C598 1.386 . S
C599 C603 1.393 . S
C600 H589 0.950 . S
C600 C598 1.391 1_455 S
C600 C601 1.400 1_455 S
C601 C595 1.491 1_554 S
C601 C600 1.400 1_655 S
C601 C602 1.398 . S
C602 H590 0.950 . S
C602 C601 1.398 . S
C602 C603 1.391 . S
C603 H591 0.950 . S
C603 C599 1.393 . S
C603 C602 1.391 . S
H604 C612 0.950 . S
H605 C617 0.950 . S
H606 C614 0.935 1_545 S
H607 C616 0.950 . S
H608 C618 0.950 . S
H609 C620 0.950 . S
H610 C622 0.950 . S
H611 C623 0.950 1_554 S
C612 H604 0.950 . S
C612 C613 1.386 . S
C612 C614 1.399 . S
C613 C612 1.386 . S
C613 C617 1.393 . S
C614 H606 0.935 1_565 S
C614 C612 1.399 . S
C614 C615 1.409 . S
C615 C614 1.409 . S
C615 C616 1.398 1_554 S
C615 C621 1.491 1_454 S
C616 H607 0.950 . S
C616 C615 1.398 1_556 S
C616 C617 1.391 1_556 S
C617 H605 0.950 . S
C617 C613 1.393 . S
C617 C616 1.391 1_554 S
C618 H608 0.950 . S
C618 C619 1.386 1_565 S
C618 C620 1.391 . S
C619 C618 1.386 1_545 S
C619 C623 1.393 . S
C620 H609 0.950 . S
C620 C618 1.391 . S
C620 C621 1.400 . S
C621 C615 1.491 1_656 S
C621 C620 1.400 . S
C621 C622 1.398 1_566 S
C622 H610 0.950 . S
C622 C621 1.398 1_544 S
C622 C623 1.391 1_554 S
C623 H611 0.950 1_556 S
C623 C619 1.393 . S
C623 C622 1.391 1_556 S
H624 C632 0.950 . S
H625 C637 0.950 . S
H626 C634 0.950 . S
H627 C636 0.950 . S
H628 C638 0.950 . S
H629 C640 0.950 . S
H630 C642 0.950 . S
H631 C643 0.950 . S
C632 H624 0.950 . S
C632 C633 1.386 . S
C632 C634 1.391 . S
C633 C632 1.386 . S
C633 C637 1.393 . S
C634 H626 0.950 . S
C634 C632 1.391 . S
C634 C635 1.400 . S
C635 C634 1.400 . S
C635 C636 1.398 . S
C635 C641 1.491 . S
C636 H627 0.950 . S
C636 C635 1.398 . S
C636 C637 1.391 . S
C637 H625 0.950 . S
C637 C633 1.393 . S
C637 C636 1.391 . S
C638 H628 0.950 . S
C638 C639 1.386 . S
C638 C640 1.391 . S
C639 C638 1.386 . S
C639 C643 1.393 . S
C640 H629 0.950 . S
C640 C638 1.391 . S
C640 C641 1.400 . S
C641 C635 1.491 . S
C641 C640 1.400 . S
C641 C642 1.398 . S
C642 H630 0.950 . S
C642 C641 1.398 . S
C642 C643 1.391 . S
C643 H631 0.950 . S
C643 C639 1.393 . S
C643 C642 1.391 . S
H644 C652 0.950 . S
H645 C657 0.950 . S
H646 C654 0.927 1_655 S
H647 C656 0.950 . S
H648 C658 0.950 . S
H649 C660 0.950 . S
H650 C662 0.950 . S
H651 C663 0.950 . S
C652 H644 0.950 . S
C652 C653 1.386 . S
C652 C654 1.391 . S
C653 C652 1.386 . S
C653 C657 1.393 . S
C654 H646 0.927 1_455 S
C654 C652 1.391 . S
C654 C655 1.400 . S
C655 C654 1.400 . S
C655 C656 1.398 . S
C655 C661 1.491 1_455 S
C656 H647 0.950 . S
C656 C655 1.398 . S
C656 C657 1.391 . S
C657 H645 0.950 . S
C657 C653 1.393 . S
C657 C656 1.391 . S
C658 H648 0.950 . S
C658 C659 1.386 . S
C658 C660 1.391 . S
C659 C658 1.386 . S
C659 C663 1.393 . S
C660 H649 0.950 . S
C660 C658 1.391 . S
C660 C661 1.400 . S
C661 C655 1.491 1_655 S
C661 C660 1.400 . S
C661 C662 1.398 . S
C662 H650 0.950 . S
C662 C661 1.398 . S
C662 C663 1.391 . S
C663 H651 0.950 . S
C663 C659 1.393 . S
C663 C662 1.391 . S
H664 C672 0.950 1_655 S
H665 C677 0.950 . S
H666 C674 0.950 . S
H667 C676 0.950 1_545 S
H668 C678 0.950 . S
H669 C680 0.950 1_455 S
H670 C682 0.950 1_565 S
H671 C683 0.950 . S
C672 H664 0.950 1_455 S
C672 C673 1.386 . S
C672 C674 1.391 1_455 S
C673 C672 1.386 . S
C673 C677 1.393 . S
C674 H666 0.950 . S
C674 C672 1.391 1_655 S
C674 C675 1.400 . S
C675 C674 1.400 . S
C675 C676 1.398 1_655 S
C675 C681 1.491 1_565 S
C676 H667 0.950 1_565 S
C676 C675 1.398 1_455 S
C676 C677 1.391 . S
C677 H665 0.950 . S
C677 C673 1.393 . S
C677 C676 1.391 . S
C678 H668 0.950 . S
C678 C679 1.386 . S
C678 C680 1.391 . S
C679 C678 1.386 . S
C679 C683 1.393 . S
C680 H669 0.950 1_655 S
C680 C678 1.391 . S
C680 C681 1.400 . S
C681 C675 1.491 1_545 S
C681 C680 1.400 . S
C681 C682 1.398 . S
C682 H670 0.950 1_545 S
C682 C681 1.398 . S
C682 C683 1.391 . S
C683 H671 0.950 . S
C683 C679 1.393 . S
C683 C682 1.391 . S
H684 C692 0.950 . S
H685 C697 0.950 . S
H686 C694 0.950 . S
H687 C696 0.950 . S
H688 C698 0.950 . S
H689 C700 0.950 . S
H690 C702 0.950 . S
H691 C703 0.950 1_545 S
C692 H684 0.950 . S
C692 C693 1.386 . S
C692 C694 1.391 . S
C693 C692 1.386 . S
C693 C697 1.393 1_545 S
C694 H686 0.950 . S
C694 C692 1.391 . S
C694 C695 1.400 1_545 S
C695 C694 1.400 1_565 S
C695 C696 1.398 . S
C695 C701 1.491 . S
C696 H687 0.950 . S
C696 C695 1.398 . S
C696 C697 1.391 . S
C697 H685 0.950 . S
C697 C693 1.393 1_565 S
C697 C696 1.391 . S
C698 H688 0.950 . S
C698 C699 1.386 . S
C698 C700 1.391 . S
C699 C698 1.386 . S
C699 C703 1.393 . S
C700 H689 0.950 . S
C700 C698 1.391 . S
C700 C701 1.400 . S
C701 C695 1.491 . S
C701 C700 1.400 . S
C701 C702 1.398 1_565 S
C702 H690 0.950 . S
C702 C701 1.398 1_545 S
C702 C703 1.391 1_545 S
C703 H691 0.950 1_565 S
C703 C699 1.393 . S
C703 C702 1.391 1_565 S
H704 C712 0.950 . S
H705 C717 0.950 . S
H706 C714 0.950 . S
H707 C716 0.950 . S
H708 C718 0.950 . S
H709 C720 0.950 . S
H710 C722 0.950 . S
H711 C723 0.950 . S
C712 H704 0.950 . S
C712 C713 1.386 . S
C712 C714 1.391 . S
C713 C712 1.386 . S
C713 C717 1.393 . S
C714 H706 0.950 . S
C714 C712 1.391 . S
C714 C715 1.400 . S
C715 C714 1.400 . S
C715 C716 1.398 . S
C715 C721 1.491 . S
C716 H707 0.950 . S
C716 C715 1.398 . S
C716 C717 1.391 . S
C717 H705 0.950 . S
C717 C713 1.393 . S
C717 C716 1.391 . S
C718 H708 0.950 . S
C718 C719 1.386 . S
C718 C720 1.391 . S
C719 C718 1.386 . S
C719 C723 1.393 . S
C720 H709 0.950 . S
C720 C718 1.391 . S
C720 C721 1.400 . S
C721 C715 1.491 . S
C721 C720 1.400 . S
C721 C722 1.398 . S
C722 H710 0.950 . S
C722 C721 1.398 . S
C722 C723 1.391 . S
C723 H711 0.950 . S
C723 C719 1.393 . S
C723 C722 1.391 . S
H724 C732 0.950 . S
H725 C737 0.950 . S
H726 C734 0.950 . S
H727 C736 0.950 . S
H728 C738 0.950 . S
H729 C740 0.950 . S
H730 C742 0.950 . S
H731 C743 0.950 . S
C732 H724 0.950 . S
C732 C733 1.386 . S
C732 C734 1.391 . S
C733 C732 1.386 . S
C733 C737 1.393 . S
C734 H726 0.950 . S
C734 C732 1.391 . S
C734 C735 1.400 . S
C735 C734 1.400 . S
C735 C736 1.398 . S
C735 C741 1.491 . S
C736 H727 0.950 . S
C736 C735 1.398 . S
C736 C737 1.391 . S
C737 H725 0.950 . S
C737 C733 1.393 . S
C737 C736 1.391 . S
C738 H728 0.950 . S
C738 C739 1.386 . S
C738 C740 1.391 . S
C739 C738 1.386 . S
C739 C743 1.393 . S
C740 H729 0.950 . S
C740 C738 1.391 . S
C740 C741 1.400 . S
C741 C735 1.491 . S
C741 C740 1.400 . S
C741 C742 1.398 . S
C742 H730 0.950 . S
C742 C741 1.398 . S
C742 C743 1.391 . S
C743 H731 0.950 . S
C743 C739 1.393 . S
C743 C742 1.391 . S
H744 C752 0.950 . S
H745 C757 0.950 . S
H746 C754 0.950 . S
H747 C756 0.950 . S
H748 C758 0.950 . S
H749 C760 0.950 . S
H750 C762 0.950 . S
H751 C763 0.950 . S
C752 H744 0.950 . S
C752 C753 1.386 . S
C752 C754 1.391 . S
C753 C752 1.386 . S
C753 C757 1.393 . S
C754 H746 0.950 . S
C754 C752 1.391 . S
C754 C755 1.400 . S
C755 C754 1.400 . S
C755 C756 1.398 . S
C755 C761 1.491 . S
C756 H747 0.950 . S
C756 C755 1.398 . S
C756 C757 1.391 . S
C757 H745 0.950 . S
C757 C753 1.393 . S
C757 C756 1.391 . S
C758 H748 0.950 . S
C758 C759 1.386 . S
C758 C760 1.391 . S
C759 C758 1.386 . S
C759 C763 1.393 . S
C760 H749 0.950 . S
C760 C758 1.391 . S
C760 C761 1.400 . S
C761 C755 1.491 . S
C761 C760 1.400 . S
C761 C762 1.398 . S
C762 H750 0.950 . S
C762 C761 1.398 . S
C762 C763 1.391 . S
C763 H751 0.950 . S
C763 C759 1.393 . S
C763 C762 1.391 . S
H764 C772 0.950 . S
H765 C777 0.950 . S
H766 C774 0.950 . S
H767 C776 0.950 . S
H768 C778 0.950 . S
H769 C780 0.950 . S
H770 C782 0.950 . S
H771 C783 0.950 . S
C772 H764 0.950 . S
C772 C773 1.386 . S
C772 C774 1.391 . S
C773 C772 1.386 . S
C773 C777 1.393 . S
C774 H766 0.950 . S
C774 C772 1.391 . S
C774 C775 1.400 . S
C775 C774 1.400 . S
C775 C776 1.398 . S
C775 C781 1.491 . S
C776 H767 0.950 . S
C776 C775 1.398 . S
C776 C777 1.391 . S
C777 H765 0.950 . S
C777 C773 1.393 . S
C777 C776 1.391 . S
C778 H768 0.950 . S
C778 C779 1.386 . S
C778 C780 1.391 . S
C779 C778 1.386 . S
C779 C783 1.393 . S
C780 H769 0.950 . S
C780 C778 1.391 . S
C780 C781 1.400 . S
C781 C775 1.491 . S
C781 C780 1.400 . S
C781 C782 1.398 . S
C782 H770 0.950 . S
C782 C781 1.398 . S
C782 C783 1.391 . S
C783 H771 0.950 . S
C783 C779 1.393 . S
C783 C782 1.391 . S
H784 C792 0.950 . S
H785 C797 0.950 . S
H786 C794 0.950 . S
H787 C796 0.950 . S
H788 C798 0.950 . S
H789 C800 0.950 . S
H790 C802 0.950 . S
H791 C803 0.950 . S
C792 H784 0.950 . S
C792 C793 1.386 . S
C792 C794 1.391 . S
C793 C792 1.386 . S
C793 C797 1.393 . S
C794 H786 0.950 . S
C794 C792 1.391 . S
C794 C795 1.400 . S
C795 C794 1.400 . S
C795 C796 1.398 . S
C795 C801 1.491 . S
C796 H787 0.950 . S
C796 C795 1.398 . S
C796 C797 1.391 . S
C797 H785 0.950 . S
C797 C793 1.393 . S
C797 C796 1.391 . S
C798 H788 0.950 . S
C798 C799 1.386 . S
C798 C800 1.391 . S
C799 C798 1.386 . S
C799 C803 1.393 . S
C800 H789 0.950 . S
C800 C798 1.391 . S
C800 C801 1.400 . S
C801 C795 1.491 . S
C801 C800 1.400 . S
C801 C802 1.398 . S
C802 H790 0.950 . S
C802 C801 1.398 . S
C802 C803 1.391 . S
C803 H791 0.950 . S
C803 C799 1.393 . S
C803 C802 1.391 . S
H804 C812 0.950 . S
H805 C817 0.950 . S
H806 C814 0.950 . S
H807 C816 0.950 . S
H808 C818 0.950 . S
H809 C820 0.950 . S
H810 C822 0.950 . S
H811 C823 0.950 . S
C812 H804 0.950 . S
C812 C813 1.386 . S
C812 C814 1.391 . S
C813 C812 1.386 . S
C813 C817 1.393 . S
C814 H806 0.950 . S
C814 C812 1.391 . S
C814 C815 1.400 . S
C815 C814 1.400 . S
C815 C816 1.398 . S
C815 C821 1.491 . S
C816 H807 0.950 . S
C816 C815 1.398 . S
C816 C817 1.391 . S
C817 H805 0.950 . S
C817 C813 1.393 . S
C817 C816 1.391 . S
C818 H808 0.950 . S
C818 C819 1.386 . S
C818 C820 1.391 . S
C819 C818 1.386 . S
C819 C823 1.393 . S
C820 H809 0.950 . S
C820 C818 1.391 . S
C820 C821 1.400 . S
C821 C815 1.491 . S
C821 C820 1.400 . S
C821 C822 1.398 . S
C822 H810 0.950 . S
C822 C821 1.398 . S
C822 C823 1.391 . S
C823 H811 0.950 . S
C823 C819 1.393 . S
C823 C822 1.391 . S
H824 C832 0.950 . S
H825 C837 0.950 . S
H826 C834 0.950 . S
H827 C836 0.950 . S
H828 C838 0.950 . S
H829 C840 0.950 . S
H830 C842 0.950 . S
H831 C843 0.950 . S
C832 H824 0.950 . S
C832 C833 1.386 . S
C832 C834 1.391 . S
C833 C832 1.386 . S
C833 C837 1.393 . S
C834 H826 0.950 . S
C834 C832 1.391 . S
C834 C835 1.400 . S
C835 C834 1.400 . S
C835 C836 1.398 . S
C835 C841 1.491 . S
C836 H827 0.950 . S
C836 C835 1.398 . S
C836 C837 1.391 . S
C837 H825 0.950 . S
C837 C833 1.393 . S
C837 C836 1.391 . S
C838 H828 0.950 . S
C838 C839 1.386 . S
C838 C840 1.391 . S
C839 C838 1.386 . S
C839 C843 1.393 . S
C840 H829 0.950 . S
C840 C838 1.391 . S
C840 C841 1.400 . S
C841 C835 1.491 . S
C841 C840 1.400 . S
C841 C842 1.398 . S
C842 H830 0.950 . S
C842 C841 1.398 . S
C842 C843 1.391 . S
C843 H831 0.950 . S
C843 C839 1.393 . S
C843 C842 1.391 . S
H844 C852 0.950 . S
H845 C857 0.950 . S
H846 C854 0.950 . S
H847 C856 0.950 . S
H848 C858 0.950 . S
H849 C860 0.950 . S
H850 C862 0.950 . S
H851 C863 0.950 . S
C852 H844 0.950 . S
C852 C853 1.386 . S
C852 C854 1.391 . S
C853 C852 1.386 . S
C853 C857 1.393 . S
C854 H846 0.950 . S
C854 C852 1.391 . S
C854 C855 1.400 . S
C855 C854 1.400 . S
C855 C856 1.398 . S
C855 C861 1.491 . S
C856 H847 0.950 . S
C856 C855 1.398 . S
C856 C857 1.391 . S
C857 H845 0.950 . S
C857 C853 1.393 . S
C857 C856 1.391 . S
C858 H848 0.950 . S
C858 C859 1.386 . S
C858 C860 1.391 . S
C859 C858 1.386 . S
C859 C863 1.393 . S
C860 H849 0.950 . S
C860 C858 1.391 . S
C860 C861 1.400 . S
C861 C855 1.491 . S
C861 C860 1.400 . S
C861 C862 1.398 . S
C862 H850 0.950 . S
C862 C861 1.398 . S
C862 C863 1.391 . S
C863 H851 0.950 . S
C863 C859 1.393 . S
C863 C862 1.391 . S
C233 C12 0.510 . S
C239 C138 0.534 . S
C253 C152 0.516 . S
C259 C26 0.544 . S
C273 C166 0.547 . S
C279 C40 0.516 . S
C293 C124 0.547 . S
C299 C54 0.519 . S
C313 C68 0.537 . S
C319 C222 0.509 . S
C333 C180 0.545 . S
C339 C82 0.511 . S
C353 C194 0.543 . S
C359 C96 0.527 . S
C373 C208 0.513 . S
C379 C110 0.527 . S
C393 C116 0.729 . S
C399 C18 0.720 . S
C413 C130 0.707 . S
C419 C32 0.686 . S
C433 C144 0.681 . S
C439 C46 0.712 . S
C453 C4 0.691 . S
C459 C158 0.699 . S
C473 C172 0.681 . S
C479 C102 0.729 . S
C493 C186 0.730 . S
C499 C60 0.680 . S
C513 C74 0.719 . S
C519 C200 0.730 . S
C533 C214 0.715 . S
C539 C88 0.682 . S
C553 C123 1.344 . S
C559 C5 1.333 . S
C573 C19 1.354 . S
C579 C137 1.332 . S
C593 C151 1.361 . S
C599 C33 1.348 . S
C613 C47 1.326 . S
C619 C165 1.354 . S
C633 C179 1.351 . S
C639 C61 1.357 . S
C653 C75 1.325 . S
C659 C193 1.355 . S
C673 C207 1.370 . S
C679 C89 1.330 . S
C693 C221 1.336 . S
C699 C103 1.343 . S
C713 C67 1.700 . S
C719 C11 1.689 . S
C733 C81 1.701 . S
C739 C25 1.692 . S
C753 C39 1.671 . S
C759 C95 1.678 . S
C773 C109 1.679 . S
C779 C53 1.671 . S
C793 C117 1.584 . S
C799 C173 1.573 . S
C813 C187 1.591 . S
C819 C131 1.597 . S
C833 C201 1.573 . S
C839 C145 1.584 . S
C853 C215 1.569 . S
C859 C159 1.566 . S
