# Generated by pormake.
# Topology rkf, (6)-cn, num edge types: 1
# Building blocks:
#     Node 0, Type 0, BuildingBlock: PAMTUU_clean_sbu_0, # of connection points: 6
#     Node 1, Type 0, BuildingBlock: PAMTUU_clean_sbu_0, # of connection points: 6
#     Node 2, Type 0, BuildingBlock: PAMTUU_clean_sbu_0, # of connection points: 6
#     Node 3, Type 0, BuildingBlock: PAMTUU_clean_sbu_0, # of connection points: 6
#     Node 4, Type 0, BuildingBlock: PAMTUU_clean_sbu_0, # of connection points: 6
#     Node 5, Type 0, BuildingBlock: PAMTUU_clean_sbu_0, # of connection points: 6
#     Edge 6, Type (0, 0), BuildingBlock: CIFDUS_clean_linker_0, # of connection points: 2
#     Edge 7, Type (0, 0), BuildingBlock: CIFDUS_clean_linker_0, # of connection points: 2
#     Edge 8, Type (0, 0), BuildingBlock: CIFDUS_clean_linker_0, # of connection points: 2
#     Edge 9, Type (0, 0), BuildingBlock: CIFDUS_clean_linker_0, # of connection points: 2
#     Edge 10, Type (0, 0), BuildingBlock: CIFDUS_clean_linker_0, # of connection points: 2
#     Edge 11, Type (0, 0), BuildingBlock: CIFDUS_clean_linker_0, # of connection points: 2
#     Edge 12, Type (0, 0), BuildingBlock: CIFDUS_clean_linker_0, # of connection points: 2
#     Edge 13, Type (0, 0), BuildingBlock: CIFDUS_clean_linker_0, # of connection points: 2
#     Edge 14, Type (0, 0), BuildingBlock: CIFDUS_clean_linker_0, # of connection points: 2
#     Edge 15, Type (0, 0), BuildingBlock: CIFDUS_clean_linker_0, # of connection points: 2
#     Edge 16, Type (0, 0), BuildingBlock: CIFDUS_clean_linker_0, # of connection points: 2
#     Edge 17, Type (0, 0), BuildingBlock: CIFDUS_clean_linker_0, # of connection points: 2
#     Edge 18, Type (0, 0), BuildingBlock: CIFDUS_clean_linker_0, # of connection points: 2
#     Edge 19, Type (0, 0), BuildingBlock: CIFDUS_clean_linker_0, # of connection points: 2
#     Edge 20, Type (0, 0), BuildingBlock: CIFDUS_clean_linker_0, # of connection points: 2
#     Edge 21, Type (0, 0), BuildingBlock: CIFDUS_clean_linker_0, # of connection points: 2
#     Edge 22, Type (0, 0), BuildingBlock: CIFDUS_clean_linker_0, # of connection points: 2
#     Edge 23, Type (0, 0), BuildingBlock: CIFDUS_clean_linker_0, # of connection points: 2
# Relax obj value: 0.932
# Max RMSD: 0.275
# Mean RMSD: 0.266
data_MOF--net-rkf--node1-PAMTUU_clean_sbu_0--edge1-CIFDUS_clean_linker_0
_symmetry_space_group_name_H-M    P1
_symmetry_Int_Tables_number       1
_symmetry_cell_setting            triclinic
loop_
_symmetry_equiv_pos_as_xyz
'x, y, z'
_cell_length_a     23.516966
_cell_length_b     24.04218
_cell_length_c     36.772096
_cell_angle_alpha  89.707715
_cell_angle_beta   89.719877
_cell_angle_gamma 121.27187
loop_
_atom_site_label
_atom_site_type_symbol
_atom_site_fract_x
_atom_site_fract_y
_atom_site_fract_z
_atom_type_partial_charge
Tb0 Tb 0.17365 0.93987 0.2316 0.0
Tb1 Tb 0.18304 0.0712 1.1996 0.0
C2 C 0.30585 0.05744 1.20213 0.0
C3 C 0.15753 0.80137 0.28787 0.0
C4 C 0.12969 0.73251 0.35414 0.0
C5 C 0.17482 0.80021 0.35266 0.0
C6 C 0.18834 0.83434 0.31991 0.0
C7 C 0.11522 0.73345 0.28876 0.0
C8 C 0.10114 0.6992 0.32169 0.0
C9 C 0.16741 0.83711 0.25361 0.0
O10 O 0.21189 0.00644 0.27855 0.0
O11 O 0.19199 0.08582 0.25857 0.0
O12 O 0.08387 -0.01247 1.20152 0.0
O13 O 0.09249 0.94775 0.25479 0.0
O14 O 0.21844 0.15341 1.16554 0.0
O15 O 0.13894 0.12747 0.20635 0.0
O16 O 0.16565 0.01297 1.15006 0.0
O17 O 0.12739 0.91301 1.17747 0.0
O18 O 0.26418 -0.00536 1.1992 0.0
O19 O 0.28427 0.09665 0.20897 0.0
C20 C 0.20882 0.0592 0.28451 0.0
O21 O 0.11626 0.83907 0.24173 0.0
O22 O 0.22264 0.89338 0.25023 0.0
C23 C 0.05759 0.96065 0.23263 0.0
C24 C 0.17421 0.22431 1.17011 0.0
C25 C 0.16511 0.33164 1.14912 0.0
C26 C 0.20095 0.33481 1.1803 0.0
C27 C 0.20508 0.28113 1.19089 0.0
C28 C 0.13709 0.22028 1.13963 0.0
C29 C 0.1324 0.27352 1.12921 0.0
C30 C 0.17757 0.16785 1.18107 0.0
C31 C 0.13475 0.94868 1.14825 0.0
H32 H 0.19639 0.82773 0.37722 0.0
H33 H 0.22103 0.88677 0.31996 0.0
H34 H 0.09131 0.70719 0.26417 0.0
H35 H 0.06588 0.64721 0.32205 0.0
H36 H 0.22653 0.37904 1.19604 0.0
H37 H 0.233 0.28423 0.21494 0.0
H38 H 0.11227 0.17616 1.12374 0.0
H39 H 0.10538 0.27002 1.1047 0.0
Tb40 Tb 0.22461 0.33747 0.52605 0.0
Tb41 Tb 0.28427 0.25023 0.55699 0.0
C42 C 0.37742 0.39862 0.53372 0.0
C43 C 0.09755 0.37945 0.50225 0.0
C44 C -0.03104 0.35947 0.49441 0.0
C45 C 0.016 0.40956 0.51666 0.0
C46 C 0.07983 0.41957 0.52042 0.0
C47 C 0.04931 0.32694 0.48193 0.0
C48 C -0.01416 0.31701 0.47812 0.0
C49 C 0.1669 0.39463 0.50316 0.0
O50 O 0.26319 0.31263 0.47797 0.0
O51 O 0.2509 0.21878 0.50109 0.0
O52 O 0.18046 0.19885 0.575 0.0
O53 O 0.15215 0.23507 0.52567 0.0
O54 O 0.34833 0.2355 0.59048 0.0
O55 O 0.29325 0.17017 0.5466 0.0
O56 O 0.27137 0.29448 0.60669 0.0
O57 O 0.20075 0.32646 0.58485 0.0
O58 O 0.32758 0.40823 0.53463 0.0
O59 O 0.36972 0.34067 0.53655 0.0
C60 C 0.25674 0.25527 0.4729 0.0
O61 O 0.19421 0.40472 0.535 0.0
O62 O 0.18147 0.35939 0.48293 0.0
C63 C 0.13487 0.20071 0.55556 0.0
C64 C 0.32977 0.12806 0.59253 0.0
C65 C 0.32456 0.01751 0.62185 0.0
C66 C 0.38556 0.07662 0.61891 0.0
C67 C 0.3881 0.13143 0.6042 0.0
C68 C 0.2686 0.06925 0.59572 0.0
C69 C 0.26608 0.01431 0.61023 0.0
C70 C 0.33569 0.18364 0.5726 0.0
C71 C 0.22975 0.31537 0.61229 0.0
H72 H 0.0045 0.4428 0.52979 0.0
H73 H 0.1161 0.46011 0.53648 0.0
H74 H 0.0611 0.29469 0.46782 0.0
H75 H -0.04832 0.2786 0.46023 0.0
H76 H 0.43117 0.08032 0.62797 0.0
H77 H 0.43586 0.17624 0.6013 0.0
H78 H 0.22305 0.06553 0.58655 0.0
H79 H 0.21817 -0.0303 0.61311 0.0
Tb80 Tb 0.09638 0.39527 0.88539 0.0
Tb81 Tb -0.03827 0.25977 0.86966 0.0
C82 C -0.03026 0.38943 0.85933 0.0
C83 C 0.2254 0.54532 0.93128 0.0
C84 C 0.26009 0.58377 1.00363 0.0
C85 C 0.21574 0.5969 0.98567 0.0
C86 C 0.1985 0.57782 0.94967 0.0
C87 C 0.27777 0.54233 0.9473 0.0
C88 C 0.29516 0.56161 0.98323 0.0
C89 C 0.19375 0.50824 0.89795 0.0
O90 O 0.03524 0.36872 0.93646 0.0
O91 O -0.02502 0.25882 0.92836 0.0
O92 O 0.04288 0.24219 0.87135 0.0
O93 O 0.11203 0.32236 0.91053 0.0
O94 O 0.87467 0.17924 0.89082 0.0
O95 O 0.89977 0.18469 0.83406 0.0
O96 O 0.00694 0.29835 0.8156 0.0
O97 O 0.11575 0.36389 0.83264 0.0
O98 O 0.03141 0.41018 0.85036 0.0
O99 O 0.93369 0.33246 0.87486 0.0
C100 C -0.0039 0.30904 0.94985 0.0
O101 O 0.19972 0.45815 0.89131 0.0
O102 O 0.1331 0.49449 0.89244 0.0
C103 C 0.09069 0.26584 0.89532 0.0
C104 C 0.78657 0.12777 0.84993 0.0
C105 C 0.65728 0.07912 0.82373 0.0
C106 C 0.68013 0.03679 0.83215 0.0
C107 C 0.74412 0.06099 0.84516 0.0
C108 C 0.76331 0.17019 0.84392 0.0
C109 C 0.69881 0.14594 0.831 0.0
C110 C 0.85572 0.1519 0.85929 0.0
C111 C 0.07121 0.3303 0.80742 0.0
H112 H 0.18893 0.61502 1.00062 0.0
H113 H 0.15983 0.5833 0.93746 0.0
H114 H 0.30112 0.51967 0.9333 0.0
H115 H 0.33004 0.55132 0.99618 0.0
H116 H 0.65063 -0.01466 0.82622 0.0
H117 H 0.76153 0.02774 0.84987 0.0
H118 H 0.79575 0.22207 0.84789 0.0
H119 H 0.68266 0.17976 0.82507 0.0
Tb120 Tb 0.76472 0.07447 0.21984 0.0
Tb121 Tb 0.82028 0.22807 0.23055 0.0
C122 C 0.67578 0.12792 1.20342 0.0
C123 C 0.68667 0.89305 1.20177 0.0
C124 C 0.61016 0.77132 1.16859 0.0
C125 C 0.61321 0.82694 1.15366 0.0
C126 C 0.65115 0.88744 1.17021 0.0
C127 C 0.68306 0.83782 0.21706 0.0
C128 C 0.64509 0.77734 1.20062 0.0
C129 C 0.7231 0.95438 0.22125 0.0
O130 O 0.81834 0.11861 1.16782 0.0
O131 O 0.83768 0.22306 1.1721 0.0
O132 O 0.90537 0.21522 0.22465 0.0
O133 O 0.8493 0.12073 0.25524 0.0
O134 O 0.80808 0.30668 0.21825 0.0
O135 O 0.88677 0.31856 0.25356 0.0
O136 O 0.80202 0.18695 0.28665 0.0
O137 O 0.72319 0.08341 0.27125 0.0
O138 O 0.69735 0.092 1.18994 0.0
O139 O 0.71166 0.17402 0.22689 0.0
C140 C 0.83944 0.17714 1.15339 0.0
O141 O 0.78214 -0.00164 0.20929 0.0
O142 O 0.68818 -0.02042 0.23138 0.0
C143 C 0.90564 0.16929 0.24368 0.0
C144 C 0.83345 0.37406 0.26945 0.0
C145 C 0.81096 0.411 0.33785 0.0
C146 C 0.8706 0.45165 0.31843 0.0
C147 C 0.8817 0.43311 0.28453 0.0
C148 C 0.77048 0.33813 0.28614 0.0
C149 C 0.75895 0.35714 0.31987 0.0
C150 C 0.85367 0.34453 0.24133 0.0
C151 C 0.75617 0.12689 0.2964 0.0
H152 H 0.5881 0.82416 1.12852 0.0
H153 H 0.65294 0.92972 1.1584 0.0
H154 H 0.70948 0.84146 0.24186 0.0
H155 H 0.64367 0.73544 0.2127 0.0
H156 H 0.91211 0.49368 0.33097 0.0
H157 H 0.93042 0.46161 0.27189 0.0
H158 H 0.73217 0.29246 0.27474 0.0
H159 H 0.71175 0.32582 0.33349 0.0
Tb160 Tb 0.65464 0.86868 0.56035 0.0
Tb161 Tb 0.79499 0.88509 0.53666 0.0
C162 C 0.66425 0.76208 0.52148 0.0
C163 C 0.50147 0.83806 0.60826 0.0
C164 C 0.4554 0.85742 0.67456 0.0
C165 C 0.43951 0.87624 0.64176 0.0
C166 C 0.46243 0.86652 0.60875 0.0
C167 C 0.5113 0.813 0.64055 0.0
C168 C 0.48783 0.8221 0.67346 0.0
C169 C 0.53869 0.84294 0.57514 0.0
O170 O 0.68179 0.82895 0.60799 0.0
O171 O 0.79043 0.86146 0.59393 0.0
O172 O 0.80831 -0.02198 0.55233 0.0
O173 O 0.72652 0.94379 0.59541 0.0
O174 O 0.89553 0.91945 0.54796 0.0
O175 O 0.85175 0.87385 0.49677 0.0
O176 O 0.75899 0.90937 0.4877 0.0
O177 O 0.68944 0.93825 0.514 0.0
O178 O 0.64385 0.80276 0.51743 0.0
O179 O 0.72073 0.78173 0.53758 0.0
C180 C 0.74038 0.837 0.61707 0.0
O181 O 0.58826 0.90138 0.56731 0.0
O182 O 0.55462 0.79873 0.57094 0.0
C183 C 0.78536 -0.01298 0.58299 0.0
C184 C 0.92587 0.8487 0.52268 0.0
C185 C -0.03992 0.75411 0.5124 0.0
C186 C 0.00778 0.82069 0.50711 0.0
C187 C -0.00947 0.86761 0.51196 0.0
C188 C 0.88071 0.78352 0.5324 0.0
C189 C 0.89764 0.73636 0.52717 0.0
C190 C 0.90261 0.89421 0.51828 0.0
C191 C 0.72497 0.93885 0.48589 0.0
H192 H 0.41479 0.90367 0.64188 0.0
H193 H 0.45407 0.88572 0.58396 0.0
H194 H 0.54129 0.79079 0.64078 0.0
H195 H 0.50153 0.80769 0.69831 0.0
H196 H 0.05615 0.83609 0.49537 0.0
H197 H 0.02599 0.91778 0.50456 0.0
H198 H 0.83062 0.76832 0.54116 0.0
H199 H 0.86009 0.68558 0.53156 0.0
Tb200 Tb -0.01351 0.80005 0.86739 0.0
Tb201 Tb 0.84109 0.76064 0.8957 0.0
C202 C 0.87817 0.66168 0.87733 0.0
C203 C 0.12201 0.77823 0.82887 0.0
C204 C 0.20659 0.77774 0.77568 0.0
C205 C 0.22094 0.77667 0.81264 0.0
C206 C 0.17913 0.77802 0.83919 0.0
C207 C 0.10097 0.76602 0.79275 0.0
C208 C 0.14296 0.76522 0.76618 0.0
C209 C 0.09257 0.80249 0.85453 0.0
O210 O 0.94894 0.81937 0.81756 0.0
O211 O 0.83982 0.7748 0.83621 0.0
O212 O 0.89386 0.86644 0.89284 0.0
O213 O 0.00269 0.89286 0.88322 0.0
O214 O 0.74218 0.6863 0.88751 0.0
O215 O 0.76604 0.76722 0.92274 0.0
O216 O 0.89382 0.79075 0.9477 0.0
O217 O -0.00404 0.81251 0.92668 0.0
O218 O 0.90963 0.70391 0.85162 0.0
O219 O 0.85911 0.68135 0.90518 0.0
C220 C 0.88659 0.80158 0.81075 0.0
O221 O 0.07977 0.84596 0.84198 0.0
O222 O 0.04541 0.75919 0.8757 0.0
C223 C -0.04146 0.90864 0.89143 0.0
C224 C 0.67352 0.66597 0.93877 0.0
C225 C 0.60325 0.60101 1.00248 0.0
C226 C 0.59036 0.64518 0.98431 0.0
C227 C 0.62516 0.67719 0.95279 0.0
C228 C 0.68165 0.61701 0.95418 0.0
C229 C 0.64591 0.58398 0.98553 0.0
C230 C 0.71941 0.71069 0.91094 0.0
C231 C -0.04308 0.81049 0.95312 0.0
H232 H 0.26877 0.78447 0.82076 0.0
H233 H 0.19497 0.78575 0.86729 0.0
H234 H 0.05589 0.76434 0.78457 0.0
H235 H 0.12949 0.76472 0.73802 0.0
H236 H 0.55855 0.66059 0.99609 0.0
H237 H 0.61789 0.71441 0.94094 0.0
H238 H 0.71835 0.60703 0.94334 0.0
H239 H 0.65579 0.549 0.99802 0.0
H240 H 0.90412 0.08634 1.19748 0.0
H241 H 0.01641 0.21169 0.28562 0.0
H242 H 0.06529 0.14435 0.29781 0.0
H243 H 0.069 0.04488 0.2846 0.0
H244 H 0.93638 0.91012 1.20462 0.0
H245 H 0.89356 -0.01904 1.19161 0.0
C246 C 0.94018 0.09936 0.21899 0.0
C247 C -0.0423 0.154 0.24021 0.0
C248 C -0.04075 0.05563 0.22928 0.0
C249 C 0.00404 0.17079 0.26819 0.0
C250 C 0.02976 0.13097 0.27601 0.0
C251 C 0.02833 0.02963 0.26573 0.0
C252 C 0.0066 -0.02672 0.24494 0.0
C253 C 0.00556 0.07184 0.25757 0.0
C254 C -0.04662 0.95329 0.22096 0.0
C255 C 0.93083 -0.00507 0.2125 0.0
H256 H 0.84048 0.11486 0.57382 0.0
H257 H 0.84253 -0.02861 0.6428 0.0
H258 H -0.03624 0.03571 0.64523 0.0
H259 H 0.06587 0.1126 0.61026 0.0
H260 H 0.05902 0.2501 0.53724 0.0
H261 H 0.94429 0.20931 0.55359 0.0
C262 C 0.86755 0.10015 0.59131 0.0
C263 C 0.83419 0.03772 0.60643 0.0
C264 C 0.93692 0.13483 0.59004 0.0
C265 C 0.86828 0.01901 0.62997 0.0
C266 C 0.93774 0.05499 0.63058 0.0
C267 C 0.03936 0.13409 0.59854 0.0
C268 C 0.06928 0.18126 0.57095 0.0
C269 C -0.02764 0.10957 0.60771 0.0
C270 C 0.03565 0.21092 0.55699 0.0
C271 C -0.02978 0.1884 0.56673 0.0
H272 H 0.07716 0.0147 0.87324 0.0
H273 H 0.89869 0.95258 0.93663 0.0
H274 H 0.94206 0.06436 0.95624 0.0
H275 H 0.02087 0.17991 0.94668 0.0
H276 H 0.18712 0.24278 0.87373 0.0
H277 H 0.16245 0.13085 0.86912 0.0
C278 C 0.04795 0.02565 0.8915 0.0
C279 C -0.01592 -0.02395 0.90267 0.0
C280 C 0.07244 0.09004 0.90187 0.0
C281 C 0.94704 -0.00951 0.92671 0.0
C282 C -0.02776 0.05409 0.93837 0.0
C283 C 0.05353 0.16922 0.93131 0.0
C284 C 0.10526 0.21864 0.9104 0.0
C285 C 0.03384 0.10439 0.92517 0.0
C286 C 0.14741 0.20515 0.89032 0.0
C287 C 0.13198 0.14096 0.88682 0.0
H288 H 0.27496 0.451 1.14082 0.0
H289 H 0.06301 0.34315 1.12318 0.0
H290 H 0.07413 0.42961 1.08307 0.0
H291 H 0.14601 0.51758 1.0417 0.0
H292 H 0.35893 0.6185 1.05374 0.0
H293 H 0.34527 0.55458 1.10877 0.0
C294 C 0.2309 0.44764 1.12933 0.0
C295 C 0.16849 0.39049 1.13429 0.0
C296 C 0.23798 0.49593 1.10501 0.0
C297 C 0.11172 0.38636 1.11914 0.0
C298 C 0.11804 0.43556 1.09617 0.0
C299 C 0.18949 0.52809 1.05731 0.0
C300 C 0.25356 0.57151 1.04332 0.0
C301 C 0.18132 0.48829 1.08715 0.0
C302 C 0.30926 0.5845 1.06385 0.0
C303 C 0.30143 0.54741 1.09493 0.0
H304 H -0.04352 0.46331 0.4788 0.0
H305 H 0.84471 0.25322 0.48155 0.0
H306 H 0.76701 0.25175 0.43737 0.0
H307 H 0.75584 0.3092 0.38585 0.0
H308 H 0.86945 0.51926 0.38181 0.0
H309 H 0.91984 0.52122 0.44003 0.0
C310 C 0.91339 0.4171 0.47125 0.0
C311 C 0.9083 0.3584 0.48207 0.0
C312 C 0.86997 0.41657 0.44509 0.0
C313 C 0.8513 0.29914 0.4724 0.0
C314 C 0.80687 0.29825 0.44708 0.0
C315 C 0.78885 0.35584 0.3983 0.0
C316 C 0.81184 0.41404 0.37833 0.0
C317 C 0.81926 0.35662 0.4311 0.0
C318 C 0.85325 0.47362 0.3958 0.0
C319 C 0.88235 0.47485 0.42903 0.0
H320 H 0.54039 0.96201 0.82887 0.0
H321 H 0.6389 0.141 0.76645 0.0
H322 H 0.56567 0.08677 0.71568 0.0
H323 H 0.50169 -0.0155 0.6836 0.0
H324 H 0.41466 0.80241 0.74248 0.0
H325 H 0.45577 0.86125 0.79969 0.0
C326 C 0.54468 -0.01055 0.80444 0.0
C327 C 0.59703 0.05468 0.80096 0.0
C328 C 0.50594 0.95674 0.77417 0.0
C329 C 0.59994 0.0905 0.76989 0.0
C330 C 0.55864 0.05921 0.74045 0.0
C331 C 0.48921 0.95759 0.70909 0.0
C332 C 0.4563 0.88932 0.70891 0.0
C333 C 0.51566 -0.00845 0.74136 0.0
C334 C 0.44075 0.85508 0.74209 0.0
C335 C 0.46453 0.88871 0.77469 0.0
H336 H 0.65967 0.69391 1.15596 0.0
H337 H 0.48969 0.71172 1.13424 0.0
H338 H 0.4571 0.63381 1.0848 0.0
H339 H 0.49374 0.58548 1.03918 0.0
H340 H 0.67629 0.58727 1.0563 0.0
H341 H 0.68207 0.62483 1.11771 0.0
C342 C 0.61376 0.67854 1.14154 0.0
C343 C 0.57821 0.70986 1.14792 0.0
C344 C 0.5969 0.63599 1.11226 0.0
C345 C 0.51881 0.68942 1.12906 0.0
C346 C 0.49994 0.64463 1.10093 0.0
C347 C 0.53415 0.59287 1.0566 0.0
C348 C 0.58683 0.58796 1.042 0.0
C349 C 0.54134 0.62142 1.0907 0.0
C350 C 0.63584 0.59263 1.06588 0.0
C351 C 0.64007 0.61548 1.10111 0.0
H352 H 0.06895 0.74158 0.51253 0.0
H353 H 0.87311 0.65996 0.46699 0.0
H354 H 0.90727 0.62538 0.41372 0.0
H355 H 0.00065 0.65241 0.3732 0.0
H356 H 0.19929 0.74367 0.41609 0.0
H357 H 0.15607 0.73769 0.4774 0.0
C358 C 0.033 0.71323 0.49173 0.0
C359 C -0.03035 0.70573 0.49296 0.0
C360 C 0.05405 0.69631 0.46016 0.0
C361 C 0.92268 0.66745 0.46649 0.0
C362 C 0.94249 0.64838 0.43559 0.0
C363 C 0.03421 0.66802 0.39614 0.0
C364 C 0.10329 0.70113 0.39007 0.0
C365 C 0.00941 0.6676 0.43091 0.0
C366 C 0.14598 0.71995 0.42011 0.0
C367 C 0.12132 0.71695 0.45513 0.0
H368 H 0.21222 0.75488 0.70335 0.0
H369 H 0.32363 0.88909 0.7892 0.0
H370 H 0.38101 -0.0237 0.74544 0.0
H371 H 0.37923 0.01965 0.68606 0.0
H372 H 0.25843 0.88998 0.60095 0.0
H373 H 0.22688 0.79594 0.64054 0.0
C374 C 0.25139 0.80254 0.71215 0.0
C375 C 0.2618 0.81563 0.74953 0.0
C376 C 0.28193 0.85391 0.68688 0.0
C377 C 0.31357 0.87726 0.76067 0.0
C378 C 0.34585 0.92791 0.73565 0.0
C379 C 0.34783 -0.02928 0.67577 0.0
C380 C 0.32007 0.96142 0.64109 0.0
C381 C 0.32736 0.91758 0.69913 0.0
C382 C 0.27934 0.89795 0.62796 0.0
C383 C 0.2613 0.84434 0.65055 0.0
H384 H 0.36827 -0.00336 1.17688 0.0
H385 H 0.40595 0.17719 0.22328 0.0
H386 H 0.5246 0.21656 0.22609 0.0
H387 H 0.61666 0.19681 0.21915 0.0
H388 H 0.57866 0.01672 1.17177 0.0
H389 H 0.46145 -0.01948 1.16538 0.0
C390 C 0.4025 0.04483 1.18731 0.0
C391 C 0.37821 0.08366 1.20009 0.0
C392 C 0.47067 0.06725 1.18884 0.0
C393 C 0.42331 0.14625 0.21322 0.0
C394 C 0.49119 0.16876 0.215 0.0
C395 C 0.58281 0.14989 0.20716 0.0
C396 C 0.60635 0.10941 1.19629 0.0
C397 C 0.51527 0.12923 1.20346 0.0
C398 C 0.56198 0.04897 1.18044 0.0
C399 C 0.49477 0.02801 1.17686 0.0
H400 H 0.41103 0.49642 0.48703 0.0
H401 H 0.49224 0.42958 0.56915 0.0
H402 H 0.59614 0.5363 0.56863 0.0
H403 H 0.65543 0.65346 0.55135 0.0
H404 H 0.56987 0.71767 0.46992 0.0
H405 H 0.47674 0.60684 0.46295 0.0
C406 C 0.45209 0.50499 0.50429 0.0
C407 C 0.44418 0.45627 0.52851 0.0
C408 C 0.51063 0.56606 0.50405 0.0
C409 C 0.49761 0.46692 0.55038 0.0
C410 C 0.55667 0.52793 0.55022 0.0
C411 C 0.61729 0.64265 0.5314 0.0
C412 C 0.61868 0.69361 0.51164 0.0
C413 C 0.56271 0.57867 0.52812 0.0
C414 C 0.56916 0.67925 0.48583 0.0
C415 C 0.5158 0.61597 0.48189 0.0
H416 H 0.88811 0.40691 0.90441 0.0
H417 H -0.00261 0.47238 0.80311 0.0
H418 H -0.02809 0.55838 0.79816 0.0
H419 H 0.92876 0.621 0.82518 0.0
H420 H 0.82698 0.5636 0.92896 0.0
H421 H 0.83864 0.46786 0.93031 0.0
C422 C 0.90484 0.43918 0.8809 0.0
C423 C 0.94424 0.43337 0.85402 0.0
C424 C 0.89205 0.49024 0.87894 0.0
C425 C -0.03307 0.47607 0.82404 0.0
C426 C -0.04742 0.52531 0.82128 0.0
C427 C 0.90831 0.5873 0.84801 0.0
C428 C 0.87741 0.59969 0.87708 0.0
C429 C 0.91678 0.53385 0.849 0.0
C430 C 0.8512 0.55528 0.90631 0.0
C431 C 0.85801 0.50066 0.9071 0.0
H432 H 0.21463 0.17199 0.30571 0.0
H433 H 0.23115 0.01372 0.34881 0.0
H434 H 0.24792 0.05995 0.4098 0.0
H435 H 0.2563 0.14476 0.45171 0.0
H436 H 0.2421 0.30399 0.40802 0.0
H437 H 0.22636 0.25815 0.34708 0.0
C438 C 0.22217 0.14745 0.3283 0.0
C439 C 0.22153 0.08888 0.32205 0.0
C440 C 0.23227 0.17471 0.36359 0.0
C441 C 0.23145 0.05859 0.35221 0.0
C442 C 0.24099 0.08513 0.38733 0.0
C443 C 0.2501 0.16982 0.4289 0.0
C444 C 0.2506 0.22837 0.43502 0.0
C445 C 0.24132 0.14312 0.39347 0.0
C446 C 0.24243 0.25944 0.40465 0.0
C447 C 0.23317 0.23297 0.36959 0.0
H448 H 0.11407 0.3063 0.6372 0.0
H449 H 0.30149 0.33738 0.6751 0.0
H450 H 0.27138 0.34749 0.73759 0.0
H451 H 0.19092 0.34673 0.78249 0.0
H452 H 0.00039 0.30749 0.74467 0.0
H453 H 0.03242 0.30162 0.6821 0.0
C454 C 0.1487 0.31574 0.65904 0.0
C455 C 0.21072 0.32179 0.65085 0.0
C456 C 0.13027 0.32004 0.69541 0.0
C457 C 0.25373 0.33265 0.68008 0.0
C458 C 0.23644 0.33853 0.71604 0.0
C459 C 0.15648 0.33732 0.76057 0.0
C460 C 0.09314 0.32823 0.76883 0.0
C461 C 0.17478 0.33232 0.72421 0.0
C462 C 0.04929 0.31489 0.73967 0.0
C463 C 0.0677 0.31153 0.70362 0.0
H464 H 0.939 0.19347 0.98868 0.0
H465 H 0.00047 0.39531 1.00109 0.0
H466 H -0.04327 0.37269 1.06361 0.0
H467 H 0.90078 0.29544 1.1156 0.0
H468 H 0.84253 0.09432 1.103 0.0
H469 H 0.88607 0.11729 1.04074 0.0
C470 C 0.94352 0.23296 1.005 0.0
C471 C -0.02653 0.29644 0.98946 0.0
C472 C 0.91899 0.21973 1.04147 0.0
C473 C -0.02163 0.34623 1.01174 0.0
C474 C -0.04686 0.33316 1.04774 0.0
C475 C 0.89732 0.25635 1.09935 0.0
C476 C 0.8673 0.19262 1.1147 0.0
C477 C 0.92324 0.27008 1.06305 0.0
C478 C 0.86461 0.14357 1.09261 0.0
C479 C 0.88973 0.15677 1.0567 0.0
H480 H 0.7021 0.0018 0.32066 0.0
H481 H 0.79663 0.19832 0.3603 0.0
H482 H 0.79178 0.15818 0.4226 0.0
H483 H 0.7642 0.06606 0.46615 0.0
H484 H 0.67865 0.87231 0.42357 0.0
H485 H 0.67604 0.9122 0.36272 0.0
C486 C 0.72091 0.03618 0.34285 0.0
C487 C 0.74897 0.10334 0.33534 0.0
C488 C 0.71965 0.01287 0.37847 0.0
C489 C 0.77428 0.14651 0.36486 0.0
C490 C 0.77159 0.12342 0.40065 0.0
C491 C 0.74429 0.03262 0.44357 0.0
C492 C 0.72072 -0.03426 0.44969 0.0
C493 C 0.74486 0.05658 0.40789 0.0
C494 C 0.69657 0.92359 0.41985 0.0
C495 C 0.69518 0.9465 0.38493 0.0
H496 H 0.85813 0.8572 0.64401 0.0
H497 H 0.6554 0.78654 0.67717 0.0
H498 H 0.6819 0.76916 0.73922 0.0
H499 H 0.76387 0.77536 0.78479 0.0
H500 H -0.0335 0.8485 0.75003 0.0
H501 H 0.93855 0.86353 0.68847 0.0
C502 C 0.81911 0.83755 0.66455 0.0
C503 C 0.75424 0.8229 0.6552 0.0
C504 C 0.83496 0.82835 0.70036 0.0
C505 C 0.70547 0.79805 0.68295 0.0
C506 C 0.72082 0.78826 0.71866 0.0
C507 C 0.80208 0.79456 0.76381 0.0
C508 C 0.86772 0.81063 0.77273 0.0
C509 C 0.78557 0.80343 0.72783 0.0
C510 C 0.91586 0.83557 0.74466 0.0
C511 C 0.8998 0.84419 0.70916 0.0
H512 H 0.94946 0.75868 1.02205 0.0
H513 H 0.04312 0.93894 0.96151 0.0
H514 H 0.10609 -0.00183 1.0151 0.0
H515 H 0.13703 -0.00052 1.0797 0.0
H516 H 0.04778 0.81798 1.13942 0.0
H517 H -0.01763 0.7598 1.08652 0.0
C518 C -0.01688 0.81097 1.02078 0.0
C519 C -0.00955 0.84431 0.98773 0.0
C520 C 0.02113 0.84497 1.05181 0.0
C521 C 0.03559 0.91201 0.98656 0.0
C522 C 0.07209 0.94604 1.01728 0.0
C523 C 0.10366 0.94717 1.08118 0.0
C524 C 0.09839 0.91381 1.11404 0.0
C525 C 0.06582 0.91316 1.05014 0.0
C526 C 0.05411 0.8457 1.11485 0.0
C527 C 0.01602 0.812 1.08443 0.0
loop_
_geom_bond_atom_site_label_1
_geom_bond_atom_site_label_2
_geom_bond_distance
_geom_bond_site_symmetry_2
_ccdc_geom_bond_type
Tb0 C9 2.764 . S
Tb0 O10 2.325 1_565 S
Tb0 O13 2.303 . S
Tb0 O17 2.322 1_554 S
Tb0 O18 2.349 . S
Tb0 O21 2.415 . S
Tb0 O22 2.399 . S
Tb1 O11 2.322 . S
Tb1 O12 2.349 . S
Tb1 O14 2.415 1_554 S
Tb1 O15 2.399 1_554 S
Tb1 O16 2.325 1_544 S
Tb1 O19 2.303 . S
Tb1 C30 2.764 1_554 S
C2 O18 1.261 . S
C2 O19 1.257 1_565 S
C3 C6 1.358 . S
C3 C7 1.332 . S
C3 C9 1.504 . S
C4 C5 1.373 . S
C4 C8 1.308 . S
C5 C4 1.373 . S
C5 C6 1.429 . S
C5 H32 0.932 . S
C6 C3 1.358 . S
C6 C5 1.429 . S
C6 H33 0.930 . S
C7 C3 1.332 . S
C7 C8 1.394 . S
C7 H34 0.932 . S
C8 C4 1.308 . S
C8 C7 1.394 . S
C8 H35 0.929 . S
C9 Tb0 2.764 . S
C9 C3 1.504 . S
C9 O21 1.239 . S
C9 O22 1.263 . S
O10 Tb0 2.325 1_545 S
O10 C20 1.236 . S
O11 Tb1 2.322 . S
O11 C20 1.257 . S
O12 Tb1 2.349 . S
O12 C23 1.261 . S
O13 Tb0 2.303 . S
O13 C23 1.257 1_565 S
O14 Tb1 2.415 1_556 S
O14 C30 1.239 . S
O15 Tb1 2.399 1_556 S
O15 C30 1.263 . S
O16 Tb1 2.325 1_566 S
O16 C31 1.236 . S
O17 Tb0 2.322 1_556 S
O17 C31 1.257 . S
O18 Tb0 2.349 . S
O18 C2 1.261 . S
O19 Tb1 2.303 . S
O19 C2 1.257 1_545 S
C20 O10 1.236 . S
C20 O11 1.257 . S
O21 Tb0 2.415 . S
O21 C9 1.239 . S
O22 Tb0 2.399 . S
O22 C9 1.263 . S
C23 O12 1.261 . S
C23 O13 1.257 1_545 S
C24 C27 1.358 . S
C24 C28 1.332 . S
C24 C30 1.504 . S
C25 C26 1.373 . S
C25 C29 1.308 . S
C26 C25 1.373 . S
C26 C27 1.429 . S
C26 H36 0.932 . S
C27 C24 1.358 . S
C27 C26 1.429 . S
C27 H37 0.930 . S
C28 C24 1.332 . S
C28 C29 1.394 . S
C28 H38 0.932 . S
C29 C25 1.308 . S
C29 C28 1.394 . S
C29 H39 0.929 . S
C30 Tb1 2.764 1_556 S
C30 O14 1.239 . S
C30 O15 1.263 . S
C30 C24 1.504 . S
C31 O16 1.236 . S
C31 O17 1.257 . S
H32 C5 0.932 . S
H33 C6 0.930 . S
H34 C7 0.932 . S
H35 C8 0.929 . S
H36 C26 0.932 . S
H37 C27 0.930 . S
H38 C28 0.932 . S
H39 C29 0.929 . S
Tb40 C49 2.764 . S
Tb40 O50 2.325 . S
Tb40 O53 2.303 . S
Tb40 O57 2.322 . S
Tb40 O58 2.349 . S
Tb40 O61 2.415 . S
Tb40 O62 2.399 . S
Tb41 O51 2.322 . S
Tb41 O52 2.349 . S
Tb41 O54 2.415 . S
Tb41 O55 2.399 . S
Tb41 O56 2.325 . S
Tb41 O59 2.303 . S
Tb41 C70 2.764 . S
C42 O58 1.261 . S
C42 O59 1.257 . S
C43 C46 1.358 . S
C43 C47 1.332 . S
C43 C49 1.504 . S
C44 C45 1.373 . S
C44 C48 1.308 . S
C45 C44 1.373 . S
C45 C46 1.429 . S
C45 H72 0.932 . S
C46 C43 1.358 . S
C46 C45 1.429 . S
C46 H73 0.930 . S
C47 C43 1.332 . S
C47 C48 1.394 . S
C47 H74 0.932 . S
C48 C44 1.308 . S
C48 C47 1.394 . S
C48 H75 0.929 . S
C49 Tb40 2.764 . S
C49 C43 1.504 . S
C49 O61 1.239 . S
C49 O62 1.263 . S
O50 Tb40 2.325 . S
O50 C60 1.236 . S
O51 Tb41 2.322 . S
O51 C60 1.257 . S
O52 Tb41 2.349 . S
O52 C63 1.261 . S
O53 Tb40 2.303 . S
O53 C63 1.257 . S
O54 Tb41 2.415 . S
O54 C70 1.239 . S
O55 Tb41 2.399 . S
O55 C70 1.263 . S
O56 Tb41 2.325 . S
O56 C71 1.236 . S
O57 Tb40 2.322 . S
O57 C71 1.257 . S
O58 Tb40 2.349 . S
O58 C42 1.261 . S
O59 Tb41 2.303 . S
O59 C42 1.257 . S
C60 O50 1.236 . S
C60 O51 1.257 . S
O61 Tb40 2.415 . S
O61 C49 1.239 . S
O62 Tb40 2.399 . S
O62 C49 1.263 . S
C63 O52 1.261 . S
C63 O53 1.257 . S
C64 C67 1.358 . S
C64 C68 1.332 . S
C64 C70 1.504 . S
C65 C66 1.373 . S
C65 C69 1.308 . S
C66 C65 1.373 . S
C66 C67 1.429 . S
C66 H76 0.932 . S
C67 C64 1.358 . S
C67 C66 1.429 . S
C67 H77 0.930 . S
C68 C64 1.332 . S
C68 C69 1.394 . S
C68 H78 0.932 . S
C69 C65 1.308 . S
C69 C68 1.394 . S
C69 H79 0.929 . S
C70 Tb41 2.764 . S
C70 O54 1.239 . S
C70 O55 1.263 . S
C70 C64 1.504 . S
C71 O56 1.236 . S
C71 O57 1.257 . S
H72 C45 0.932 . S
H73 C46 0.930 . S
H74 C47 0.932 . S
H75 C48 0.929 . S
H76 C66 0.932 . S
H77 C67 0.930 . S
H78 C68 0.932 . S
H79 C69 0.929 . S
Tb80 C89 2.764 . S
Tb80 O90 2.325 . S
Tb80 O93 2.303 . S
Tb80 O97 2.322 . S
Tb80 O98 2.349 . S
Tb80 O101 2.415 . S
Tb80 O102 2.399 . S
Tb81 O91 2.323 . S
Tb81 O92 2.349 . S
Tb81 O94 2.415 1_455 S
Tb81 O95 2.399 1_455 S
Tb81 O96 2.325 . S
Tb81 O99 2.303 . S
Tb81 C110 2.764 1_455 S
C82 O98 1.261 . S
C82 O99 1.257 . S
C83 C86 1.358 . S
C83 C87 1.332 . S
C83 C89 1.504 . S
C84 C85 1.373 . S
C84 C88 1.308 . S
C85 C84 1.373 . S
C85 C86 1.429 . S
C85 H112 0.932 . S
C86 C83 1.358 . S
C86 C85 1.429 . S
C86 H113 0.930 . S
C87 C83 1.332 . S
C87 C88 1.394 . S
C87 H114 0.932 . S
C88 C84 1.308 . S
C88 C87 1.394 . S
C88 H115 0.929 . S
C89 Tb80 2.764 . S
C89 C83 1.504 . S
C89 O101 1.239 . S
C89 O102 1.263 . S
O90 Tb80 2.325 . S
O90 C100 1.236 . S
O91 Tb81 2.323 . S
O91 C100 1.261 . S
O92 Tb81 2.349 . S
O92 C103 1.261 . S
O93 Tb80 2.303 . S
O93 C103 1.257 . S
O94 Tb81 2.415 1_655 S
O94 C110 1.239 . S
O95 Tb81 2.399 1_655 S
O95 C110 1.263 . S
O96 Tb81 2.325 . S
O96 C111 1.236 . S
O97 Tb80 2.322 . S
O97 C111 1.257 . S
O98 Tb80 2.349 . S
O98 C82 1.261 . S
O99 Tb81 2.303 . S
O99 C82 1.257 . S
C100 O90 1.236 . S
C100 O91 1.261 . S
O101 Tb80 2.415 . S
O101 C89 1.239 . S
O102 Tb80 2.399 . S
O102 C89 1.263 . S
C103 O92 1.261 . S
C103 O93 1.257 . S
C104 C107 1.358 . S
C104 C108 1.332 . S
C104 C110 1.504 . S
C105 C106 1.373 . S
C105 C109 1.308 . S
C106 C105 1.373 . S
C106 C107 1.429 . S
C106 H116 0.932 . S
C107 C104 1.358 . S
C107 C106 1.429 . S
C107 H117 0.930 . S
C108 C104 1.332 . S
C108 C109 1.394 . S
C108 H118 0.932 . S
C109 C105 1.308 . S
C109 C108 1.394 . S
C109 H119 0.929 . S
C110 Tb81 2.764 1_655 S
C110 O94 1.239 . S
C110 O95 1.263 . S
C110 C104 1.504 . S
C111 O96 1.236 . S
C111 O97 1.257 . S
H112 C85 0.932 . S
H113 C86 0.930 . S
H114 C87 0.932 . S
H115 C88 0.929 . S
H116 C106 0.932 . S
H117 C107 0.930 . S
H118 C108 0.932 . S
H119 C109 0.929 . S
Tb120 C129 2.780 1_545 S
Tb120 O130 2.335 . S
Tb120 O133 2.298 1_556 S
Tb120 O137 2.305 1_546 S
Tb120 O138 2.347 1_556 S
Tb120 O141 2.429 1_545 S
Tb120 O142 2.414 1_545 S
Tb121 O131 2.322 1_554 S
Tb121 O132 2.349 . S
Tb121 O134 2.415 . S
Tb121 O135 2.399 . S
Tb121 O136 2.325 . S
Tb121 O139 2.303 . S
Tb121 C150 2.764 . S
C122 O138 1.261 . S
C122 O139 1.257 . S
C123 C126 1.358 . S
C123 C127 1.332 . S
C123 C129 1.504 . S
C124 C125 1.373 . S
C124 C128 1.308 . S
C125 C124 1.373 . S
C125 C126 1.429 . S
C125 H152 0.932 . S
C126 C123 1.358 . S
C126 C125 1.429 . S
C126 H153 0.930 . S
C127 C123 1.332 . S
C127 C128 1.394 . S
C127 H154 0.932 . S
C128 C124 1.308 . S
C128 C127 1.394 . S
C128 H155 0.929 . S
C129 Tb120 2.780 1_565 S
C129 C123 1.504 . S
C129 O141 1.239 . S
C129 O142 1.263 . S
O130 Tb120 2.335 . S
O130 C140 1.236 . S
O131 Tb121 2.322 1_556 S
O131 C140 1.257 . S
O132 Tb121 2.349 . S
O132 C143 1.261 . S
O133 Tb120 2.298 1_554 S
O133 C143 1.257 . S
O134 Tb121 2.415 . S
O134 C150 1.239 . S
O135 Tb121 2.399 . S
O135 C150 1.263 . S
O136 Tb121 2.325 . S
O136 C151 1.236 . S
O137 Tb120 2.305 1_564 S
O137 C151 1.257 1_565 S
O138 Tb120 2.347 1_554 S
O138 C122 1.261 . S
O139 Tb121 2.303 . S
O139 C122 1.257 . S
C140 O130 1.236 . S
C140 O131 1.257 . S
O141 Tb120 2.429 1_565 S
O141 C129 1.239 . S
O142 Tb120 2.414 1_565 S
O142 C129 1.263 . S
C143 O132 1.261 . S
C143 O133 1.257 . S
C144 C147 1.358 . S
C144 C148 1.332 . S
C144 C150 1.504 . S
C145 C146 1.373 . S
C145 C149 1.308 . S
C146 C145 1.373 . S
C146 C147 1.429 . S
C146 H156 0.932 . S
C147 C144 1.358 . S
C147 C146 1.429 . S
C147 H157 0.930 . S
C148 C144 1.332 . S
C148 C149 1.394 . S
C148 H158 0.932 . S
C149 C145 1.308 . S
C149 C148 1.394 . S
C149 H159 0.929 . S
C150 Tb121 2.764 . S
C150 O134 1.239 . S
C150 O135 1.263 . S
C150 C144 1.504 . S
C151 O136 1.236 . S
C151 O137 1.257 1_545 S
H152 C125 0.932 . S
H153 C126 0.930 . S
H154 C127 0.932 . S
H155 C128 0.929 . S
H156 C146 0.932 . S
H157 C147 0.930 . S
H158 C148 0.932 . S
H159 C149 0.929 . S
Tb160 C169 2.764 . S
Tb160 O170 2.325 . S
Tb160 O173 2.303 . S
Tb160 O177 2.322 . S
Tb160 O178 2.349 . S
Tb160 O181 2.415 . S
Tb160 O182 2.399 . S
Tb161 O171 2.322 . S
Tb161 O172 2.349 . S
Tb161 O174 2.415 . S
Tb161 O175 2.399 . S
Tb161 O176 2.325 . S
Tb161 O179 2.303 . S
Tb161 C190 2.764 . S
C162 O178 1.261 . S
C162 O179 1.257 . S
C163 C166 1.358 . S
C163 C167 1.332 1_565 S
C163 C169 1.504 . S
C164 C165 1.373 1_545 S
C164 C168 1.308 . S
C165 C164 1.373 1_565 S
C165 C166 1.429 . S
C165 H192 0.932 . S
C166 C163 1.358 . S
C166 C165 1.429 . S
C166 H193 0.930 . S
C167 C163 1.332 1_545 S
C167 C168 1.394 . S
C167 H194 0.932 . S
C168 C164 1.308 . S
C168 C167 1.394 . S
C168 H195 0.929 . S
C169 Tb160 2.764 . S
C169 C163 1.504 . S
C169 O181 1.239 . S
C169 O182 1.263 . S
O170 Tb160 2.325 . S
O170 C180 1.236 . S
O171 Tb161 2.322 . S
O171 C180 1.257 . S
O172 Tb161 2.349 . S
O172 C183 1.261 . S
O173 Tb160 2.303 . S
O173 C183 1.257 . S
O174 Tb161 2.415 . S
O174 C190 1.239 . S
O175 Tb161 2.399 . S
O175 C190 1.263 . S
O176 Tb161 2.325 . S
O176 C191 1.236 . S
O177 Tb160 2.322 . S
O177 C191 1.257 . S
O178 Tb160 2.349 . S
O178 C162 1.261 . S
O179 Tb161 2.303 . S
O179 C162 1.257 . S
C180 O170 1.236 . S
C180 O171 1.257 . S
O181 Tb160 2.415 . S
O181 C169 1.239 . S
O182 Tb160 2.399 . S
O182 C169 1.263 . S
C183 O172 1.261 . S
C183 O173 1.257 . S
C184 C187 1.358 . S
C184 C188 1.332 . S
C184 C190 1.504 . S
C185 C186 1.373 . S
C185 C189 1.308 . S
C186 C185 1.373 . S
C186 C187 1.429 . S
C186 H196 0.932 . S
C187 C184 1.358 . S
C187 C186 1.429 . S
C187 H197 0.930 . S
C188 C184 1.332 . S
C188 C189 1.394 . S
C188 H198 0.932 . S
C189 C185 1.308 . S
C189 C188 1.394 . S
C189 H199 0.929 . S
C190 Tb161 2.764 . S
C190 O174 1.239 . S
C190 O175 1.263 . S
C190 C184 1.504 . S
C191 O176 1.236 . S
C191 O177 1.257 . S
H192 C165 0.932 . S
H193 C166 0.930 . S
H194 C167 0.932 . S
H195 C168 0.929 . S
H196 C186 0.932 . S
H197 C187 0.930 . S
H198 C188 0.932 . S
H199 C189 0.929 . S
Tb200 C209 2.764 . S
Tb200 O210 2.311 1_455 S
Tb200 O213 2.303 . S
Tb200 O217 2.322 . S
Tb200 O218 2.349 . S
Tb200 O221 2.415 . S
Tb200 O222 2.399 . S
Tb201 O211 2.322 . S
Tb201 O212 2.349 . S
Tb201 O214 2.415 . S
Tb201 O215 2.399 . S
Tb201 O216 2.325 1_655 S
Tb201 O219 2.303 . S
Tb201 C230 2.764 . S
C202 O218 1.261 . S
C202 O219 1.257 1_455 S
C203 C206 1.358 . S
C203 C207 1.332 . S
C203 C209 1.504 . S
C204 C205 1.373 . S
C204 C208 1.308 . S
C205 C204 1.373 . S
C205 C206 1.429 . S
C205 H232 0.932 . S
C206 C203 1.358 . S
C206 C205 1.429 . S
C206 H233 0.930 . S
C207 C203 1.332 . S
C207 C208 1.394 . S
C207 H234 0.932 . S
C208 C204 1.308 . S
C208 C207 1.394 . S
C208 H235 0.929 1_565 S
C209 Tb200 2.764 . S
C209 C203 1.504 . S
C209 O221 1.239 . S
C209 O222 1.263 . S
O210 Tb200 2.311 1_655 S
O210 C220 1.256 . S
O211 Tb201 2.322 . S
O211 C220 1.257 . S
O212 Tb201 2.349 . S
O212 C223 1.261 1_655 S
O213 Tb200 2.303 . S
O213 C223 1.257 . S
O214 Tb201 2.415 . S
O214 C230 1.239 . S
O215 Tb201 2.399 . S
O215 C230 1.263 . S
O216 Tb201 2.325 1_455 S
O216 C231 1.236 . S
O217 Tb200 2.322 . S
O217 C231 1.257 . S
O218 Tb200 2.349 . S
O218 C202 1.261 . S
O219 Tb201 2.303 . S
O219 C202 1.257 1_655 S
C220 O210 1.256 . S
C220 O211 1.257 . S
O221 Tb200 2.415 . S
O221 C209 1.239 . S
O222 Tb200 2.399 . S
O222 C209 1.263 . S
C223 O212 1.261 1_455 S
C223 O213 1.257 . S
C224 C227 1.358 . S
C224 C228 1.332 . S
C224 C230 1.504 . S
C225 C226 1.373 . S
C225 C229 1.308 . S
C226 C225 1.373 . S
C226 C227 1.429 . S
C226 H236 0.932 . S
C227 C224 1.358 . S
C227 C226 1.429 . S
C227 H237 0.930 . S
C228 C224 1.332 . S
C228 C229 1.394 . S
C228 H238 0.932 . S
C229 C225 1.308 . S
C229 C228 1.394 . S
C229 H239 0.929 . S
C230 Tb201 2.764 . S
C230 O214 1.239 . S
C230 O215 1.263 . S
C230 C224 1.504 . S
C231 O216 1.236 . S
C231 O217 1.257 . S
H232 C205 0.932 . S
H233 C206 0.930 . S
H234 C207 0.932 . S
H235 C208 0.929 1_545 S
H236 C226 0.932 . S
H237 C227 0.930 . S
H238 C228 0.932 . S
H239 C229 0.929 . S
H240 C246 0.930 1_565 S
H241 C249 0.930 . S
H242 C250 0.930 . S
H243 C251 0.930 . S
H244 C254 0.930 . S
H245 C255 0.951 . S
C246 H240 0.930 1_545 S
C246 C247 1.355 . S
C246 C248 1.415 . S
C247 C246 1.355 . S
C247 C249 1.419 . S
C248 C246 1.415 . S
C248 C253 1.425 1_655 S
C248 C255 1.409 1_545 S
C249 H241 0.930 . S
C249 C247 1.419 . S
C249 C250 1.362 1_655 S
C250 H242 0.930 . S
C250 C249 1.362 1_455 S
C250 C253 1.409 . S
C251 H243 0.930 . S
C251 C252 1.347 1_545 S
C251 C253 1.415 . S
C252 C251 1.347 1_565 S
C252 C254 1.422 . S
C253 C248 1.425 1_455 S
C253 C250 1.409 . S
C253 C251 1.415 . S
C254 H244 0.930 . S
C254 C252 1.422 . S
C254 C255 1.362 1_455 S
C255 H245 0.951 . S
C255 C248 1.409 1_565 S
C255 C254 1.362 1_655 S
H256 C262 0.930 . S
H257 C265 0.944 . S
H258 C266 0.930 1_455 S
H259 C267 0.930 . S
H260 C270 0.930 . S
H261 C271 0.930 1_655 S
C262 H256 0.930 . S
C262 C263 1.355 . S
C262 C264 1.415 . S
C263 C262 1.355 . S
C263 C265 1.406 1_545 S
C264 C262 1.415 . S
C264 C269 1.425 1_655 S
C264 C271 1.409 1_655 S
C265 H257 0.944 . S
C265 C263 1.406 1_565 S
C265 C266 1.361 1_565 S
C266 H258 0.930 1_655 S
C266 C265 1.361 1_545 S
C266 C269 1.409 1_655 S
C267 H259 0.930 . S
C267 C268 1.355 . S
C267 C269 1.415 . S
C268 C267 1.355 . S
C268 C270 1.419 . S
C269 C264 1.425 1_455 S
C269 C266 1.409 1_455 S
C269 C267 1.415 . S
C270 H260 0.930 . S
C270 C268 1.419 . S
C270 C271 1.362 . S
C271 H261 0.930 1_455 S
C271 C264 1.409 1_455 S
C271 C270 1.362 . S
H272 C278 0.930 . S
H273 C281 0.930 . S
H274 C282 0.930 . S
H275 C283 0.930 . S
H276 C286 0.930 . S
H277 C287 0.930 . S
C278 H272 0.930 . S
C278 C279 1.355 1_545 S
C278 C280 1.415 . S
C279 C278 1.355 1_565 S
C279 C281 1.419 1_455 S
C280 C278 1.415 . S
C280 C285 1.425 . S
C280 C287 1.409 . S
C281 H273 0.930 . S
C281 C279 1.419 1_655 S
C281 C282 1.362 1_565 S
C282 H274 0.930 . S
C282 C281 1.362 1_545 S
C282 C285 1.409 1_655 S
C283 H275 0.930 . S
C283 C284 1.355 . S
C283 C285 1.415 . S
C284 C283 1.355 . S
C284 C286 1.419 . S
C285 C280 1.425 . S
C285 C282 1.409 1_455 S
C285 C283 1.415 . S
C286 H276 0.930 . S
C286 C284 1.419 . S
C286 C287 1.362 . S
C287 H277 0.930 . S
C287 C280 1.409 . S
C287 C286 1.362 . S
H288 C294 0.930 . S
H289 C297 0.930 . S
H290 C298 0.930 . S
H291 C299 0.930 . S
H292 C302 0.930 . S
H293 C303 0.930 . S
C294 H288 0.930 . S
C294 C295 1.355 . S
C294 C296 1.415 . S
C295 C294 1.355 . S
C295 C297 1.419 . S
C296 C294 1.415 . S
C296 C301 1.425 . S
C296 C303 1.409 . S
C297 H289 0.930 . S
C297 C295 1.419 . S
C297 C298 1.362 . S
C298 H290 0.930 . S
C298 C297 1.362 . S
C298 C301 1.409 . S
C299 H291 0.930 . S
C299 C300 1.355 . S
C299 C301 1.415 . S
C300 C299 1.355 . S
C300 C302 1.419 . S
C301 C296 1.425 . S
C301 C298 1.409 . S
C301 C299 1.415 . S
C302 H292 0.930 . S
C302 C300 1.419 . S
C302 C303 1.362 . S
C303 H293 0.930 . S
C303 C296 1.409 . S
C303 C302 1.362 . S
H304 C310 0.930 . S
H305 C313 0.930 . S
H306 C314 0.930 . S
H307 C315 0.930 . S
H308 C318 0.930 . S
H309 C319 0.930 . S
C310 H304 0.930 . S
C310 C311 1.355 . S
C310 C312 1.415 . S
C311 C310 1.355 . S
C311 C313 1.419 . S
C312 C310 1.415 . S
C312 C317 1.425 1_455 S
C312 C319 1.409 1_455 S
C313 H305 0.930 . S
C313 C311 1.419 . S
C313 C314 1.362 . S
C314 H306 0.930 . S
C314 C313 1.362 . S
C314 C317 1.409 1_455 S
C315 H307 0.930 . S
C315 C316 1.355 . S
C315 C317 1.415 . S
C316 C315 1.355 . S
C316 C318 1.419 . S
C317 C312 1.425 1_655 S
C317 C314 1.409 1_655 S
C317 C315 1.415 . S
C318 H308 0.930 . S
C318 C316 1.419 . S
C318 C319 1.362 . S
C319 H309 0.930 . S
C319 C312 1.409 1_655 S
C319 C318 1.362 . S
H320 C326 0.930 . S
H321 C329 0.930 . S
H322 C330 0.930 . S
H323 C331 0.930 . S
H324 C334 0.930 . S
H325 C335 0.930 . S
C326 H320 0.930 . S
C326 C327 1.355 . S
C326 C328 1.415 . S
C327 C326 1.355 . S
C327 C329 1.419 . S
C328 C326 1.415 . S
C328 C333 1.425 . S
C328 C335 1.409 . S
C329 H321 0.930 . S
C329 C327 1.419 . S
C329 C330 1.362 . S
C330 H322 0.930 . S
C330 C329 1.362 . S
C330 C333 1.409 . S
C331 H323 0.930 . S
C331 C332 1.355 . S
C331 C333 1.415 . S
C332 C331 1.355 . S
C332 C334 1.419 . S
C333 C328 1.425 . S
C333 C330 1.409 . S
C333 C331 1.415 . S
C334 H324 0.930 . S
C334 C332 1.419 . S
C334 C335 1.362 . S
C335 H325 0.930 . S
C335 C328 1.409 . S
C335 C334 1.362 . S
H336 C342 0.930 . S
H337 C345 0.930 . S
H338 C346 0.930 . S
H339 C347 0.930 . S
H340 C350 0.930 . S
H341 C351 0.930 . S
C342 H336 0.930 . S
C342 C343 1.355 . S
C342 C344 1.415 . S
C343 C342 1.355 . S
C343 C345 1.419 . S
C344 C342 1.415 . S
C344 C349 1.425 . S
C344 C351 1.409 . S
C345 H337 0.930 . S
C345 C343 1.419 . S
C345 C346 1.362 . S
C346 H338 0.930 . S
C346 C345 1.362 . S
C346 C349 1.409 . S
C347 H339 0.930 . S
C347 C348 1.355 . S
C347 C349 1.415 . S
C348 C347 1.355 . S
C348 C350 1.419 . S
C349 C344 1.425 . S
C349 C346 1.409 . S
C349 C347 1.415 . S
C350 H340 0.930 . S
C350 C348 1.419 . S
C350 C351 1.362 . S
C351 H341 0.930 . S
C351 C344 1.409 . S
C351 C350 1.362 . S
H352 C358 0.930 . S
H353 C361 0.930 . S
H354 C362 0.930 . S
H355 C363 0.930 . S
H356 C366 0.930 1_455 S
H357 C367 0.930 . S
C358 H352 0.930 . S
C358 C359 1.355 . S
C358 C360 1.415 . S
C359 C358 1.355 . S
C359 C361 1.419 . S
C360 C358 1.415 . S
C360 C365 1.425 . S
C360 C367 1.409 . S
C361 H353 0.930 . S
C361 C359 1.419 . S
C361 C362 1.362 . S
C362 H354 0.930 . S
C362 C361 1.362 . S
C362 C365 1.409 . S
C363 H355 0.930 . S
C363 C364 1.355 . S
C363 C365 1.415 1_455 S
C364 C363 1.355 . S
C364 C366 1.419 1_455 S
C365 C360 1.425 . S
C365 C362 1.409 . S
C365 C363 1.415 1_655 S
C366 H356 0.930 1_655 S
C366 C364 1.419 1_655 S
C366 C367 1.362 . S
C367 H357 0.930 . S
C367 C360 1.409 . S
C367 C366 1.362 . S
H368 C374 0.930 . S
H369 C377 0.930 1_565 S
H370 C378 0.930 . S
H371 C379 0.930 . S
H372 C382 0.930 . S
H373 C383 0.930 . S
C374 H368 0.930 . S
C374 C375 1.355 1_545 S
C374 C376 1.415 . S
C375 C374 1.355 1_565 S
C375 C377 1.419 1_565 S
C376 C374 1.415 . S
C376 C381 1.425 . S
C376 C383 1.409 . S
C377 H369 0.930 1_545 S
C377 C375 1.419 1_545 S
C377 C378 1.362 . S
C378 H370 0.930 . S
C378 C377 1.362 . S
C378 C381 1.409 . S
C379 H371 0.930 . S
C379 C380 1.355 . S
C379 C381 1.415 . S
C380 C379 1.355 . S
C380 C382 1.419 . S
C381 C376 1.425 . S
C381 C378 1.409 . S
C381 C379 1.415 . S
C382 H372 0.930 . S
C382 C380 1.419 . S
C382 C383 1.362 . S
C383 H373 0.930 . S
C383 C376 1.409 . S
C383 C382 1.362 . S
H384 C390 0.930 1_556 S
H385 C393 0.930 . S
H386 C394 0.930 . S
H387 C395 0.930 . S
H388 C398 0.930 1_556 S
H389 C399 0.930 . S
C390 H384 0.930 1_554 S
C390 C391 1.355 1_545 S
C390 C392 1.415 . S
C391 C390 1.355 1_565 S
C391 C393 1.419 . S
C392 C390 1.415 . S
C392 C397 1.425 . S
C392 C399 1.409 1_554 S
C393 H385 0.930 . S
C393 C391 1.419 . S
C393 C394 1.362 . S
C394 H386 0.930 . S
C394 C393 1.362 . S
C394 C397 1.409 1_565 S
C395 H387 0.930 . S
C395 C396 1.355 . S
C395 C397 1.415 . S
C396 C395 1.355 . S
C396 C398 1.419 . S
C397 C392 1.425 . S
C397 C394 1.409 1_545 S
C397 C395 1.415 . S
C398 H388 0.930 1_554 S
C398 C396 1.419 . S
C398 C399 1.362 1_554 S
C399 H389 0.930 . S
C399 C392 1.409 1_556 S
C399 C398 1.362 1_556 S
H400 C406 0.930 . S
H401 C409 0.930 . S
H402 C410 0.930 . S
H403 C411 0.930 . S
H404 C414 0.930 . S
H405 C415 0.930 . S
C406 H400 0.930 . S
C406 C407 1.355 . S
C406 C408 1.415 . S
C407 C406 1.355 . S
C407 C409 1.419 . S
C408 C406 1.415 . S
C408 C413 1.425 . S
C408 C415 1.409 . S
C409 H401 0.930 . S
C409 C407 1.419 . S
C409 C410 1.362 . S
C410 H402 0.930 . S
C410 C409 1.362 . S
C410 C413 1.409 . S
C411 H403 0.930 . S
C411 C412 1.355 . S
C411 C413 1.415 . S
C412 C411 1.355 . S
C412 C414 1.419 . S
C413 C408 1.425 . S
C413 C410 1.409 . S
C413 C411 1.415 . S
C414 H404 0.930 . S
C414 C412 1.419 . S
C414 C415 1.362 . S
C415 H405 0.930 . S
C415 C408 1.409 . S
C415 C414 1.362 . S
H416 C422 0.930 . S
H417 C425 0.930 . S
H418 C426 0.930 . S
H419 C427 0.930 . S
H420 C430 0.930 . S
H421 C431 0.930 . S
C422 H416 0.930 . S
C422 C423 1.355 . S
C422 C424 1.415 . S
C423 C422 1.355 . S
C423 C425 1.419 . S
C424 C422 1.415 . S
C424 C429 1.425 . S
C424 C431 1.409 1_455 S
C425 H417 0.930 . S
C425 C423 1.419 . S
C425 C426 1.362 . S
C426 H418 0.930 . S
C426 C425 1.362 . S
C426 C429 1.409 . S
C427 H419 0.930 . S
C427 C428 1.355 1_455 S
C427 C429 1.415 . S
C428 C427 1.355 1_655 S
C428 C430 1.419 . S
C429 C424 1.425 . S
C429 C426 1.409 . S
C429 C427 1.415 . S
C430 H420 0.930 . S
C430 C428 1.419 . S
C430 C431 1.362 . S
C431 H421 0.930 . S
C431 C424 1.409 1_655 S
C431 C430 1.362 . S
H432 C438 0.930 . S
H433 C441 0.930 . S
H434 C442 0.930 . S
H435 C443 0.930 . S
H436 C446 0.930 . S
H437 C447 0.930 . S
C438 H432 0.930 . S
C438 C439 1.355 . S
C438 C440 1.415 . S
C439 C438 1.355 . S
C439 C441 1.419 . S
C440 C438 1.415 . S
C440 C445 1.425 . S
C440 C447 1.409 . S
C441 H433 0.930 . S
C441 C439 1.419 . S
C441 C442 1.362 . S
C442 H434 0.930 . S
C442 C441 1.362 . S
C442 C445 1.409 . S
C443 H435 0.930 . S
C443 C444 1.355 . S
C443 C445 1.415 . S
C444 C443 1.355 . S
C444 C446 1.419 . S
C445 C440 1.425 . S
C445 C442 1.409 . S
C445 C443 1.415 . S
C446 H436 0.930 . S
C446 C444 1.419 . S
C446 C447 1.362 . S
C447 H437 0.930 . S
C447 C440 1.409 . S
C447 C446 1.362 . S
H448 C454 0.930 . S
H449 C457 0.930 . S
H450 C458 0.930 . S
H451 C459 0.930 . S
H452 C462 0.930 . S
H453 C463 0.930 . S
C454 H448 0.930 . S
C454 C455 1.355 . S
C454 C456 1.415 . S
C455 C454 1.355 . S
C455 C457 1.419 . S
C456 C454 1.415 . S
C456 C461 1.425 . S
C456 C463 1.409 . S
C457 H449 0.930 . S
C457 C455 1.419 . S
C457 C458 1.362 . S
C458 H450 0.930 . S
C458 C457 1.362 . S
C458 C461 1.409 . S
C459 H451 0.930 . S
C459 C460 1.355 . S
C459 C461 1.415 . S
C460 C459 1.355 . S
C460 C462 1.419 . S
C461 C456 1.425 . S
C461 C458 1.409 . S
C461 C459 1.415 . S
C462 H452 0.930 . S
C462 C460 1.419 . S
C462 C463 1.362 . S
C463 H453 0.930 . S
C463 C456 1.409 . S
C463 C462 1.362 . S
H464 C470 0.930 . S
H465 C473 0.930 . S
H466 C474 0.930 1_455 S
H467 C475 0.930 . S
H468 C478 0.930 . S
H469 C479 0.930 . S
C470 H464 0.930 . S
C470 C471 1.355 . S
C470 C472 1.415 . S
C471 C470 1.355 . S
C471 C473 1.419 1_655 S
C472 C470 1.415 . S
C472 C477 1.425 . S
C472 C479 1.409 . S
C473 H465 0.930 . S
C473 C471 1.419 1_455 S
C473 C474 1.362 1_455 S
C474 H466 0.930 1_655 S
C474 C473 1.362 1_655 S
C474 C477 1.409 . S
C475 H467 0.930 . S
C475 C476 1.355 . S
C475 C477 1.415 . S
C476 C475 1.355 . S
C476 C478 1.419 . S
C477 C472 1.425 . S
C477 C474 1.409 . S
C477 C475 1.415 . S
C478 H468 0.930 . S
C478 C476 1.419 . S
C478 C479 1.362 . S
C479 H469 0.930 . S
C479 C472 1.409 . S
C479 C478 1.362 . S
H480 C486 0.930 . S
H481 C489 0.930 . S
H482 C490 0.930 . S
H483 C491 0.930 1_545 S
H484 C494 0.930 . S
H485 C495 0.930 . S
C486 H480 0.930 . S
C486 C487 1.355 . S
C486 C488 1.415 . S
C487 C486 1.355 . S
C487 C489 1.419 1_565 S
C488 C486 1.415 . S
C488 C493 1.425 . S
C488 C495 1.409 . S
C489 H481 0.930 . S
C489 C487 1.419 1_545 S
C489 C490 1.362 . S
C490 H482 0.930 . S
C490 C489 1.362 . S
C490 C493 1.409 1_545 S
C491 H483 0.930 1_565 S
C491 C492 1.355 . S
C491 C493 1.415 . S
C492 C491 1.355 . S
C492 C494 1.419 . S
C493 C488 1.425 . S
C493 C490 1.409 1_565 S
C493 C491 1.415 . S
C494 H484 0.930 . S
C494 C492 1.419 . S
C494 C495 1.362 . S
C495 H485 0.930 . S
C495 C488 1.409 . S
C495 C494 1.362 . S
H496 C502 0.930 . S
H497 C505 0.930 . S
H498 C506 0.930 . S
H499 C507 0.930 . S
H500 C510 0.930 . S
H501 C511 0.930 . S
C502 H496 0.930 . S
C502 C503 1.355 . S
C502 C504 1.415 . S
C503 C502 1.355 . S
C503 C505 1.419 . S
C504 C502 1.415 . S
C504 C509 1.425 . S
C504 C511 1.409 . S
C505 H497 0.930 . S
C505 C503 1.419 . S
C505 C506 1.362 . S
C506 H498 0.930 . S
C506 C505 1.362 . S
C506 C509 1.409 . S
C507 H499 0.930 . S
C507 C508 1.355 . S
C507 C509 1.415 . S
C508 C507 1.355 . S
C508 C510 1.419 . S
C509 C504 1.425 . S
C509 C506 1.409 . S
C509 C507 1.415 . S
C510 H500 0.930 . S
C510 C508 1.419 . S
C510 C511 1.362 . S
C511 H501 0.930 . S
C511 C504 1.409 . S
C511 C510 1.362 . S
H512 C518 0.930 . S
H513 C521 0.930 . S
H514 C522 0.930 . S
H515 C523 0.930 . S
H516 C526 0.930 . S
H517 C527 0.930 . S
C518 H512 0.930 . S
C518 C519 1.355 . S
C518 C520 1.415 . S
C519 C518 1.355 . S
C519 C521 1.419 . S
C520 C518 1.415 . S
C520 C525 1.425 . S
C520 C527 1.409 . S
C521 H513 0.930 . S
C521 C519 1.419 . S
C521 C522 1.362 . S
C522 H514 0.930 . S
C522 C521 1.362 . S
C522 C525 1.409 . S
C523 H515 0.930 . S
C523 C524 1.355 . S
C523 C525 1.415 . S
C524 C523 1.355 . S
C524 C526 1.419 . S
C525 C520 1.425 . S
C525 C522 1.409 . S
C525 C523 1.415 . S
C526 H516 0.930 . S
C526 C524 1.419 . S
C526 C527 1.362 . S
C527 H517 0.930 . S
C527 C520 1.409 . S
C527 C526 1.362 . S
C247 C143 0.792 . S
C252 C23 0.839 1_565 S
C263 C183 0.770 1_545 S
C268 C63 0.860 . S
C279 C223 0.793 . S
C284 C103 0.838 . S
C295 C25 0.861 . S
C300 C84 0.898 . S
C311 C44 0.777 . S
C316 C145 0.873 . S
C327 C105 0.989 . S
C332 C164 0.984 . S
C343 C124 0.885 . S
C348 C225 0.751 . S
C359 C185 0.859 . S
C364 C4 0.897 . S
C375 C204 0.823 . S
C380 C65 0.706 . S
C391 C2 0.625 . S
C396 C122 0.751 . S
C407 C42 0.673 . S
C412 C162 0.582 . S
C423 C82 0.639 . S
C428 C202 0.765 1_655 S
C439 C20 4.209 . S
C444 C60 4.204 . S
C455 C71 4.014 . S
C460 C111 3.999 . S
C471 C100 4.209 1_655 S
C476 C140 4.203 . S
C487 C151 4.018 1_565 S
C492 C191 3.993 . S
C503 C180 4.215 . S
C508 C220 4.207 . S
C519 C231 4.033 . S
C524 C31 3.989 . S
