# Generated by pormake.
# Topology whw, (6)-cn, num edge types: 1
# Building blocks:
#     Node 0, Type 0, BuildingBlock: FUNLAD_clean_sbu_0, # of connection points: 6
#     Node 1, Type 0, BuildingBlock: FUNLAD_clean_sbu_0, # of connection points: 6
#     Node 2, Type 0, BuildingBlock: FUNLAD_clean_sbu_0, # of connection points: 6
#     Node 3, Type 0, BuildingBlock: FUNLAD_clean_sbu_0, # of connection points: 6
#     Node 4, Type 0, BuildingBlock: FUNLAD_clean_sbu_0, # of connection points: 6
#     Node 5, Type 0, BuildingBlock: FUNLAD_clean_sbu_0, # of connection points: 6
#     Node 6, Type 0, BuildingBlock: FUNLAD_clean_sbu_0, # of connection points: 6
#     Node 7, Type 0, BuildingBlock: FUNLAD_clean_sbu_0, # of connection points: 6
#     Node 8, Type 0, BuildingBlock: FUNLAD_clean_sbu_0, # of connection points: 6
#     Node 9, Type 0, BuildingBlock: FUNLAD_clean_sbu_0, # of connection points: 6
#     Node 10, Type 0, BuildingBlock: FUNLAD_clean_sbu_0, # of connection points: 6
#     Node 11, Type 0, BuildingBlock: FUNLAD_clean_sbu_0, # of connection points: 6
#     Node 12, Type 0, BuildingBlock: FUNLAD_clean_sbu_0, # of connection points: 6
#     Node 13, Type 0, BuildingBlock: FUNLAD_clean_sbu_0, # of connection points: 6
#     Node 14, Type 0, BuildingBlock: FUNLAD_clean_sbu_0, # of connection points: 6
#     Node 15, Type 0, BuildingBlock: FUNLAD_clean_sbu_0, # of connection points: 6
#     Edge 16, Type (0, 0), BuildingBlock: EZIPEK_clean_linker_0, # of connection points: 2
#     Edge 17, Type (0, 0), BuildingBlock: EZIPEK_clean_linker_0, # of connection points: 2
#     Edge 18, Type (0, 0), BuildingBlock: EZIPEK_clean_linker_0, # of connection points: 2
#     Edge 19, Type (0, 0), BuildingBlock: EZIPEK_clean_linker_0, # of connection points: 2
#     Edge 20, Type (0, 0), BuildingBlock: EZIPEK_clean_linker_0, # of connection points: 2
#     Edge 21, Type (0, 0), BuildingBlock: EZIPEK_clean_linker_0, # of connection points: 2
#     Edge 22, Type (0, 0), BuildingBlock: EZIPEK_clean_linker_0, # of connection points: 2
#     Edge 23, Type (0, 0), BuildingBlock: EZIPEK_clean_linker_0, # of connection points: 2
#     Edge 24, Type (0, 0), BuildingBlock: EZIPEK_clean_linker_0, # of connection points: 2
#     Edge 25, Type (0, 0), BuildingBlock: EZIPEK_clean_linker_0, # of connection points: 2
#     Edge 26, Type (0, 0), BuildingBlock: EZIPEK_clean_linker_0, # of connection points: 2
#     Edge 27, Type (0, 0), BuildingBlock: EZIPEK_clean_linker_0, # of connection points: 2
#     Edge 28, Type (0, 0), BuildingBlock: EZIPEK_clean_linker_0, # of connection points: 2
#     Edge 29, Type (0, 0), BuildingBlock: EZIPEK_clean_linker_0, # of connection points: 2
#     Edge 30, Type (0, 0), BuildingBlock: EZIPEK_clean_linker_0, # of connection points: 2
#     Edge 31, Type (0, 0), BuildingBlock: EZIPEK_clean_linker_0, # of connection points: 2
#     Edge 32, Type (0, 0), BuildingBlock: EZIPEK_clean_linker_0, # of connection points: 2
#     Edge 33, Type (0, 0), BuildingBlock: EZIPEK_clean_linker_0, # of connection points: 2
#     Edge 34, Type (0, 0), BuildingBlock: EZIPEK_clean_linker_0, # of connection points: 2
#     Edge 35, Type (0, 0), BuildingBlock: EZIPEK_clean_linker_0, # of connection points: 2
#     Edge 36, Type (0, 0), BuildingBlock: EZIPEK_clean_linker_0, # of connection points: 2
#     Edge 37, Type (0, 0), BuildingBlock: EZIPEK_clean_linker_0, # of connection points: 2
#     Edge 38, Type (0, 0), BuildingBlock: EZIPEK_clean_linker_0, # of connection points: 2
#     Edge 39, Type (0, 0), BuildingBlock: EZIPEK_clean_linker_0, # of connection points: 2
#     Edge 40, Type (0, 0), BuildingBlock: EZIPEK_clean_linker_0, # of connection points: 2
#     Edge 41, Type (0, 0), BuildingBlock: EZIPEK_clean_linker_0, # of connection points: 2
#     Edge 42, Type (0, 0), BuildingBlock: EZIPEK_clean_linker_0, # of connection points: 2
#     Edge 43, Type (0, 0), BuildingBlock: EZIPEK_clean_linker_0, # of connection points: 2
#     Edge 44, Type (0, 0), BuildingBlock: EZIPEK_clean_linker_0, # of connection points: 2
#     Edge 45, Type (0, 0), BuildingBlock: EZIPEK_clean_linker_0, # of connection points: 2
#     Edge 46, Type (0, 0), BuildingBlock: EZIPEK_clean_linker_0, # of connection points: 2
#     Edge 47, Type (0, 0), BuildingBlock: EZIPEK_clean_linker_0, # of connection points: 2
#     Edge 48, Type (0, 0), BuildingBlock: EZIPEK_clean_linker_0, # of connection points: 2
#     Edge 49, Type (0, 0), BuildingBlock: EZIPEK_clean_linker_0, # of connection points: 2
#     Edge 50, Type (0, 0), BuildingBlock: EZIPEK_clean_linker_0, # of connection points: 2
#     Edge 51, Type (0, 0), BuildingBlock: EZIPEK_clean_linker_0, # of connection points: 2
#     Edge 52, Type (0, 0), BuildingBlock: EZIPEK_clean_linker_0, # of connection points: 2
#     Edge 53, Type (0, 0), BuildingBlock: EZIPEK_clean_linker_0, # of connection points: 2
#     Edge 54, Type (0, 0), BuildingBlock: EZIPEK_clean_linker_0, # of connection points: 2
#     Edge 55, Type (0, 0), BuildingBlock: EZIPEK_clean_linker_0, # of connection points: 2
#     Edge 56, Type (0, 0), BuildingBlock: EZIPEK_clean_linker_0, # of connection points: 2
#     Edge 57, Type (0, 0), BuildingBlock: EZIPEK_clean_linker_0, # of connection points: 2
#     Edge 58, Type (0, 0), BuildingBlock: EZIPEK_clean_linker_0, # of connection points: 2
#     Edge 59, Type (0, 0), BuildingBlock: EZIPEK_clean_linker_0, # of connection points: 2
#     Edge 60, Type (0, 0), BuildingBlock: EZIPEK_clean_linker_0, # of connection points: 2
#     Edge 61, Type (0, 0), BuildingBlock: EZIPEK_clean_linker_0, # of connection points: 2
#     Edge 62, Type (0, 0), BuildingBlock: EZIPEK_clean_linker_0, # of connection points: 2
#     Edge 63, Type (0, 0), BuildingBlock: EZIPEK_clean_linker_0, # of connection points: 2
# Relax obj value: 1.492
# Max RMSD: 0.254
# Mean RMSD: 0.254
data_MOF--net-whw--node1-FUNLAD_clean_sbu_0--edge1-EZIPEK_clean_linker_0
_symmetry_space_group_name_H-M    P1
_symmetry_Int_Tables_number       1
_symmetry_cell_setting            triclinic
loop_
_symmetry_equiv_pos_as_xyz
'x, y, z'
_cell_length_a     57.124247
_cell_length_b     57.1782
_cell_length_c     14.826241
_cell_angle_alpha  89.970015
_cell_angle_beta   89.787802
_cell_angle_gamma 89.978337
loop_
_atom_site_label
_atom_site_type_symbol
_atom_site_fract_x
_atom_site_fract_y
_atom_site_fract_z
_atom_type_partial_charge
C0 C 0.05473 0.15302 0.01274 0.0
N1 N 0.09707 0.09816 0.12408 0.0
C2 C 0.07628 0.08655 0.11876 0.0
C3 C 0.0756 0.06284 0.09455 0.0
C4 C 0.09647 0.05095 0.07436 0.0
C5 C 0.11773 0.06309 0.08279 0.0
C6 C 0.11764 0.08678 0.10793 0.0
Zn7 Zn 0.09616 0.13449 0.13729 0.0
C8 C 0.12868 0.15978 1.00662 0.0
N9 N 0.08638 0.19799 0.14221 0.0
C10 C 0.0761 0.20797 0.03223 0.0
C11 C 0.09888 0.21231 0.23987 0.0
C12 C 0.10521 0.24739 0.24541 0.0
C13 C 0.09518 0.26901 0.10212 0.0
C14 C 0.07802 0.24158 0.98713 0.0
Zn15 Zn 0.09 0.16823 0.14863 0.0
O16 O 0.07047 0.13689 1.01015 0.0
C17 C 0.05783 0.15373 0.28297 0.0
O18 O 0.05645 0.16664 0.07881 0.0
H19 H 0.10371 0.20232 0.29861 0.0
H20 H 0.06008 0.09594 0.12982 0.0
H21 H 0.07192 0.19545 0.98247 0.0
O22 O 0.06231 0.13466 0.2385 0.0
O23 O 0.07111 0.17059 0.26735 0.0
H24 H 0.13398 0.09628 0.11123 0.0
O25 O 0.12251 0.17239 0.22213 0.0
O26 O 0.12352 0.13602 0.25899 0.0
O27 O 0.11127 0.17256 0.02599 0.0
O28 O 0.12856 0.13945 0.04333 0.0
C29 C 0.13232 0.15673 0.26805 0.0
H30 H 0.05888 0.05405 0.08869 0.0
H31 H 0.13417 0.05447 0.06783 0.0
H32 H 0.11607 0.25173 0.3075 0.0
H33 H 0.07277 0.24625 0.92109 0.0
C34 C 0.19058 0.71156 0.25883 0.0
N35 N 0.24707 0.75389 0.36218 0.0
C36 C 0.25433 0.75333 0.27454 0.0
C37 C 0.27814 0.75327 0.25249 0.0
C38 C 0.29498 0.75446 0.32086 0.0
C39 C 0.28715 0.75552 0.41104 0.0
C40 C 0.26297 0.75502 0.43038 0.0
Zn41 Zn 0.21075 0.75311 0.37815 0.0
C42 C 0.18604 0.7873 0.24456 0.0
N43 N 0.14588 0.74771 0.3817 0.0
C44 C 0.13381 0.74056 0.2709 0.0
C45 C 0.13344 0.75756 0.48791 0.0
C46 C 0.09846 0.76371 0.50593 0.0
C47 C 0.07425 0.75784 0.36426 0.0
C48 C 0.09931 0.74407 0.23606 0.0
Zn49 Zn 0.17584 0.74944 0.38576 0.0
O50 O 0.20864 0.72497 0.25936 0.0
C51 C 0.19025 0.71543 0.52257 0.0
O52 O 0.17468 0.71728 0.31294 0.0
H53 H 0.14458 0.76107 0.54439 0.0
H54 H 0.24157 0.75297 0.22093 0.0
H55 H 0.14563 0.73677 0.21768 0.0
O56 O 0.21006 0.72033 0.4835 0.0
O57 O 0.17342 0.72842 0.502 0.0
H58 H 0.25695 0.75563 0.49961 0.0
O59 O 0.17341 0.78184 0.4636 0.0
O60 O 0.21023 0.78213 0.49385 0.0
O61 O 0.17178 0.7715 0.26709 0.0
O62 O 0.20664 0.78512 0.2782 0.0
C63 C 0.18991 0.79165 0.50513 0.0
H64 H 0.28339 0.75257 0.18225 0.0
H65 H 0.2996 0.7566 0.46575 0.0
H66 H 0.09498 0.77312 0.57341 0.0
H67 H 0.09264 0.74186 0.16913 0.0
C68 C 0.6377 0.85283 0.51903 0.0
N69 N 0.59444 0.9073 0.63488 0.0
C70 C 0.61519 0.91836 0.619 0.0
C71 C 0.61569 0.94195 0.59314 0.0
C72 C 0.59467 0.95438 0.58351 0.0
C73 C 0.57355 0.94291 0.60407 0.0
C74 C 0.57382 0.91921 0.6293 0.0
Zn75 Zn 0.595 0.87093 0.64318 0.0
C76 C 0.56381 0.84831 0.50297 0.0
N77 N 0.60554 0.80838 0.63891 0.0
C78 C 0.61354 0.79906 0.52541 0.0
C79 C 0.59375 0.7942 0.73902 0.0
C80 C 0.58557 0.75856 0.7414 0.0
C81 C 0.59272 0.73828 0.59084 0.0
C82 C 0.60909 0.76648 0.47656 0.0
Zn83 Zn 0.60263 0.83739 0.65006 0.0
O84 O 0.6224 0.86944 0.51868 0.0
C85 C 0.63399 0.84997 0.78983 0.0
O86 O 0.63534 0.83856 0.58216 0.0
H87 H 0.58815 0.77801 0.759 0.0
H88 H 0.63136 0.90855 0.62213 0.0
H89 H 0.61893 0.81173 0.47592 0.0
O90 O 0.62856 0.86961 0.75036 0.0
O91 O 0.62169 0.8329 0.76795 0.0
H92 H 0.55748 0.91007 0.64033 0.0
O93 O 0.57089 0.83202 0.7218 0.0
O94 O 0.56536 0.86772 0.7587 0.0
O95 O 0.58096 0.83528 0.52391 0.0
O96 O 0.56352 0.86809 0.54338 0.0
C97 C 0.55841 0.84623 0.76454 0.0
H98 H 0.63229 0.95023 0.57789 0.0
H99 H 0.55699 0.95196 0.5973 0.0
H100 H 0.57484 0.75078 0.80443 0.0
H101 H 0.61479 0.76218 0.41086 0.0
C102 C 0.50447 0.29093 0.75206 0.0
N103 N 0.44328 0.2528 0.85732 0.0
C104 C 0.43202 0.27334 0.83987 0.0
C105 C 0.40821 0.27355 0.81629 0.0
C106 C 0.39572 0.25244 0.81083 0.0
C107 C 0.4075 0.23158 0.832 0.0
C108 C 0.43138 0.23214 0.8546 0.0
Zn109 Zn 0.4798 0.25257 0.87223 0.0
C110 C 0.50419 0.2155 0.74039 0.0
N111 N 0.54521 0.25249 0.88592 0.0
C112 C 0.55976 0.25531 0.77658 0.0
C113 C 0.55514 0.24701 1.00064 0.0
C114 C 0.58976 0.24184 0.03237 0.0
C115 C 0.61686 0.24236 0.89456 0.0
C116 C 0.59447 0.25041 0.7544 0.0
Zn117 Zn 0.51558 0.25194 0.87989 0.0
O118 O 0.48348 0.28308 0.76162 0.0
C119 C 0.50035 0.28942 0.01493 0.0
O120 O 0.51969 0.28004 0.79508 0.0
H121 H 0.54258 0.24521 0.05416 0.0
H122 H 0.44168 0.2896 0.84154 0.0
H123 H 0.54932 0.25841 0.71719 0.0
O124 O 0.48006 0.28377 0.98289 0.0
O125 O 0.51711 0.27694 0.98845 0.0
H126 H 0.44058 0.21594 0.86729 0.0
O127 O 0.51644 0.22196 0.96621 0.0
O128 O 0.47905 0.22187 0.98418 0.0
O129 O 0.52023 0.22772 0.77334 0.0
O130 O 0.48325 0.22146 0.76407 0.0
C131 C 0.49904 0.21228 1.0019 0.0
H132 H 0.39972 0.28999 0.80071 0.0
H133 H 0.39846 0.21496 0.82867 0.0
H134 H 0.59186 0.23468 0.10325 0.0
H135 H 0.60263 0.25155 0.68919 0.0
C136 C 0.05643 0.84822 0.75767 0.0
N137 N 0.10393 0.80806 0.87103 0.0
C138 C 0.0917 0.7931 0.77279 0.0
C139 C 0.08943 0.75774 0.76108 0.0
C140 C 0.09879 0.73548 0.91894 0.0
C141 C 0.11559 0.76461 0.02668 0.0
C142 C 0.11534 0.79896 0.98142 0.0
Zn143 Zn 0.09917 0.83708 0.86943 0.0
C144 C 0.13176 0.85105 0.73288 0.0
N145 N 0.09302 0.90687 0.89722 0.0
C146 C 0.0725 0.91813 0.91548 0.0
C147 C 0.11376 0.91862 0.9001 0.0
C148 C 0.11446 0.94236 0.92401 0.0
C149 C 0.09366 0.95412 0.94637 0.0
C150 C 0.07243 0.94184 0.94037 0.0
Zn151 Zn 0.09392 0.87054 0.88489 0.0
O152 O 0.06612 0.83214 0.80178 0.0
C153 C 0.06205 0.84512 0.02095 0.0
O154 O 0.0659 0.86869 0.76564 0.0
H155 H 0.12993 0.90933 0.88739 0.0
H156 H 0.0863 0.80313 0.7147 0.0
H157 H 0.0562 0.90852 0.91413 0.0
O158 O 0.0792 0.83229 0.99848 0.0
O159 O 0.06184 0.86542 0.98355 0.0
H160 H 0.11765 0.78369 0.01789 0.0
O161 O 0.11979 0.86841 1.00839 0.0
O162 O 0.13284 0.83886 0.93615 0.0
O163 O 0.12819 0.86979 0.78087 0.0
O164 O 0.11723 0.83508 0.74562 0.0
C165 C 0.13489 0.8518 1.00381 0.0
H166 H 0.0818 0.75125 0.69741 0.0
H167 H 0.12194 0.75792 0.09359 0.0
H168 H 0.13116 0.95126 0.928 0.0
H169 H 0.05605 0.95036 0.95706 0.0
C170 C 0.4967 0.713 0.99819 0.0
N171 N 0.54098 0.7506 0.09284 0.0
C172 C 0.5553 0.7234 0.12678 0.0
C173 C 0.59041 0.7214 0.15616 0.0
C174 C 0.6115 0.76124 0.14778 0.0
C175 C 0.58417 0.79264 0.09771 0.0
C176 C 0.55058 0.78087 0.07383 0.0
Zn177 Zn 0.51172 0.75054 0.11177 0.0
C178 C 0.49628 0.78723 0.98684 0.0
N179 N 0.44084 0.75399 0.15739 0.0
C180 C 0.42741 0.7347 0.1422 0.0
C181 C 0.43117 0.77366 0.19379 0.0
C182 C 0.40756 0.77411 0.21984 0.0
C183 C 0.39338 0.75437 0.2064 0.0
C184 C 0.40351 0.73463 0.16515 0.0
Zn185 Zn 0.4772 0.75268 0.14045 0.0
O186 O 0.51374 0.72322 0.03083 0.0
C187 C 0.50022 0.71644 0.26636 0.0
O188 O 0.47639 0.72128 0.02247 0.0
H189 H 0.44189 0.78893 0.20509 0.0
H190 H 0.54525 0.70788 0.13848 0.0
H191 H 0.43534 0.71909 0.11455 0.0
O192 O 0.51649 0.72765 0.22816 0.0
O193 O 0.47933 0.72252 0.24532 0.0
H194 H 0.56585 0.79069 0.0793 0.0
O195 O 0.48299 0.78146 0.25738 0.0
O196 O 0.51707 0.7804 0.19899 0.0
O197 O 0.47765 0.78504 0.03551 0.0
O198 O 0.51112 0.77146 0.99644 0.0
C199 C 0.50392 0.78982 0.25661 0.0
H200 H 0.5956 0.70359 0.18502 0.0
H201 H 0.59132 0.81114 0.09586 0.0
H202 H 0.40046 0.78971 0.25108 0.0
H203 H 0.39316 0.71907 0.15328 0.0
C204 C 0.63346 0.15645 0.25544 0.0
N205 N 0.58754 0.19648 0.37627 0.0
C206 C 0.59931 0.21181 0.27685 0.0
C207 C 0.60257 0.24745 0.26835 0.0
C208 C 0.59427 0.26888 0.42784 0.0
C209 C 0.57807 0.23934 0.53586 0.0
C210 C 0.57725 0.20579 0.48884 0.0
Zn211 Zn 0.59022 0.16713 0.36661 0.0
C212 C 0.55761 0.15474 0.23028 0.0
N213 N 0.59629 0.09708 0.39086 0.0
C214 C 0.61693 0.08536 0.39996 0.0
C215 C 0.57549 0.08587 0.40372 0.0
C216 C 0.57491 0.0623 0.42998 0.0
C217 C 0.59593 0.05008 0.44318 0.0
C218 C 0.61714 0.0617 0.42571 0.0
Zn219 Zn 0.59591 0.13343 0.38162 0.0
O220 O 0.6229 0.17205 0.29887 0.0
C221 C 0.62655 0.15741 0.52234 0.0
O222 O 0.62506 0.13557 0.26458 0.0
H223 H 0.55929 0.09554 0.39789 0.0
H224 H 0.60388 0.20208 0.21686 0.0
H225 H 0.63329 0.09463 0.39132 0.0
O226 O 0.61009 0.16978 0.49144 0.0
O227 O 0.62746 0.13694 0.48681 0.0
H228 H 0.57192 0.19306 0.538 0.0
O229 O 0.56875 0.13476 0.50167 0.0
O230 O 0.55704 0.16572 0.43495 0.0
O231 O 0.56207 0.13545 0.27427 0.0
O232 O 0.57145 0.17117 0.24592 0.0
C233 C 0.55388 0.15159 0.49852 0.0
H234 H 0.61081 0.25435 0.20589 0.0
H235 H 0.57272 0.24353 0.60303 0.0
H236 H 0.55824 0.0539 0.4428 0.0
H237 H 0.63369 0.05281 0.43526 0.0
C238 C 0.19374 0.29317 0.51598 0.0
N239 N 0.14827 0.25626 0.63926 0.0
C240 C 0.13661 0.26084 0.52617 0.0
C241 C 0.10143 0.26596 0.50171 0.0
C242 C 0.07663 0.26684 0.64568 0.0
C243 C 0.10151 0.26045 0.78143 0.0
C244 C 0.13548 0.2549 0.75195 0.0
Zn245 Zn 0.17775 0.25336 0.64088 0.0
C246 C 0.18956 0.21724 0.50108 0.0
N247 N 0.24993 0.25208 0.65052 0.0
C248 C 0.26247 0.27237 0.6482 0.0
C249 C 0.26062 0.23147 0.67156 0.0
C250 C 0.28451 0.23086 0.69399 0.0
C251 C 0.29763 0.25164 0.69463 0.0
C252 C 0.28642 0.27251 0.66953 0.0
Zn253 Zn 0.21333 0.25369 0.64147 0.0
O254 O 0.1773 0.28407 0.55991 0.0
C255 C 0.1923 0.28894 0.7822 0.0
O256 O 0.21375 0.28292 0.5249 0.0
H257 H 0.25044 0.21554 0.67427 0.0
H258 H 0.1482 0.26061 0.46903 0.0
H259 H 0.25369 0.28867 0.6331 0.0
O260 O 0.17633 0.27632 0.7524 0.0
O261 O 0.21273 0.28491 0.74898 0.0
H262 H 0.14664 0.25178 0.80941 0.0
O263 O 0.20948 0.2252 0.75796 0.0
O264 O 0.17288 0.22339 0.72294 0.0
O265 O 0.2102 0.22179 0.53289 0.0
O266 O 0.17342 0.23011 0.52994 0.0
C267 C 0.18938 0.21526 0.76895 0.0
H268 H 0.09777 0.27029 0.42844 0.0
H269 H 0.09627 0.26484 0.84756 0.0
H270 H 0.29255 0.21442 0.71283 0.0
H271 H 0.29596 0.28888 0.66926 0.0
C272 C 0.99972 0.21276 0.50371 0.0
N273 N 0.04237 0.25793 0.58988 0.0
C274 C 0.05676 0.23348 0.64485 0.0
C275 C 0.09153 0.2334 0.67786 0.0
C276 C 0.11277 0.27108 0.6376 0.0
C277 C 0.08592 0.29928 0.55985 0.0
C278 C 0.05184 0.28658 0.54668 0.0
Zn279 Zn 0.01231 0.25423 0.60547 0.0
C280 C 0.99551 0.28749 0.48125 0.0
N281 N 0.9424 0.25061 0.65697 0.0
C282 C 0.93067 0.22993 0.66437 0.0
C283 C 0.93104 0.2713 0.67036 0.0
C284 C 0.9072 0.2717 0.69379 0.0
C285 C 0.89486 0.25062 0.70393 0.0
C286 C 0.90681 0.22954 0.68775 0.0
Zn287 Zn 0.97876 0.25081 0.64033 0.0
O288 O 0.01666 0.2238 0.53509 0.0
C289 C 0.00402 0.21882 0.76962 0.0
O290 O 0.97914 0.22089 0.52401 0.0
H291 H 0.94066 0.28755 0.66551 0.0
H292 H 0.04753 0.21724 0.65482 0.0
H293 H 0.93999 0.21364 0.65469 0.0
O294 O 0.01729 0.23397 0.7335 0.0
O295 O 0.98288 0.21987 0.74154 0.0
H296 H 0.06718 0.29653 0.54277 0.0
O297 O 0.98295 0.27794 0.75732 0.0
O298 O 0.01396 0.28698 0.68197 0.0
O299 O 0.97849 0.28452 0.53811 0.0
O300 O 0.0107 0.27184 0.48197 0.0
C301 C 1.00067 0.29161 0.74803 0.0
H302 H 0.09647 0.21696 0.71936 0.0
H303 H 0.09316 0.3171 0.5421 0.0
H304 H 0.89859 0.28828 0.70588 0.0
H305 H 0.89788 0.21294 0.69503 0.0
C306 C 0.69164 0.79224 0.01836 0.0
N307 N 0.64745 0.74856 0.13359 0.0
C308 C 0.63474 0.75862 0.02807 0.0
C309 C 0.59954 0.76366 1.01096 0.0
C310 C 0.57555 0.75574 0.1511 0.0
C311 C 0.60101 0.74187 0.27852 0.0
C312 C 0.63545 0.74004 0.24394 0.0
Zn313 Zn 0.67721 0.75175 0.13035 0.0
C314 C 0.69207 0.71665 0.9987 0.0
N315 N 0.74814 0.75241 0.16247 0.0
C316 C 0.75988 0.77311 0.16848 0.0
C317 C 0.75952 0.73174 0.17566 0.0
C318 C 0.78338 0.73138 0.19794 0.0
C319 C 0.79569 0.75249 0.20693 0.0
C320 C 0.78376 0.77354 0.19057 0.0
Zn321 Zn 0.7118 0.7524 0.14962 0.0
O322 O 0.67431 0.78308 0.05632 0.0
C323 C 0.68715 0.78774 0.27816 0.0
O324 O 0.71161 0.7822 0.03343 0.0
H325 H 0.74989 0.71548 0.1718 0.0
H326 H 0.64585 0.76279 0.97136 0.0
H327 H 0.75054 0.78937 0.159 0.0
O328 O 0.67226 0.77339 0.24888 0.0
O329 O 0.70826 0.78401 0.25134 0.0
H330 H 0.64709 0.73576 0.29874 0.0
O331 O 0.70842 0.72347 0.26651 0.0
O332 O 0.67586 0.72081 0.19994 0.0
O333 O 0.71117 0.72013 0.04362 0.0
O334 O 0.67597 0.73115 0.01251 0.0
C335 C 0.68901 0.71233 0.2581 0.0
H336 H 0.59532 0.77243 0.94343 0.0
H337 H 0.59407 0.73697 0.34332 0.0
H338 H 0.79202 0.71482 0.21019 0.0
H339 H 0.79271 0.79014 0.19705 0.0
C340 C 0.68761 0.21482 0.77697 0.0
N341 N 0.74941 0.25192 0.87009 0.0
C342 C 0.75945 0.23159 0.84142 0.0
C343 C 0.78322 0.23086 0.81695 0.0
C344 C 0.79691 0.25118 0.82252 0.0
C345 C 0.78635 0.27177 0.85458 0.0
C346 C 0.76246 0.27179 0.87761 0.0
Zn347 Zn 0.71311 0.25326 0.88885 0.0
C348 C 0.68934 0.28744 0.76671 0.0
N349 N 0.65003 0.25061 0.9596 0.0
C350 C 0.63984 0.22167 0.99764 0.0
C351 C 0.63653 0.27564 0.90459 0.0
C352 C 0.60239 0.27613 0.86463 0.0
C353 C 0.58066 0.23798 0.89334 0.0
C354 C 0.60608 0.20908 0.97407 0.0
Zn355 Zn 0.67982 0.25198 0.93057 0.0
O356 O 0.70654 0.22683 0.76791 0.0
C357 C 0.69602 0.21649 0.04642 0.0
O358 O 0.67552 0.22 0.84631 0.0
H359 H 0.6463 0.29122 0.8907 0.0
H360 H 0.74887 0.216 0.83516 0.0
H361 H 0.62447 0.21172 0.99694 0.0
O362 O 0.71247 0.21876 0.98692 0.0
O363 O 0.68225 0.23329 0.05104 0.0
H364 H 0.75419 0.28787 0.89915 0.0
O365 O 0.67711 0.28057 1.00572 0.0
O366 O 0.7144 0.28381 1.00917 0.0
O367 O 0.67433 0.27403 0.80367 0.0
O368 O 0.71058 0.2841 0.79046 0.0
C369 C 0.69404 0.29167 0.03477 0.0
H370 H 0.79077 0.21466 0.79255 0.0
H371 H 0.79635 0.2878 0.85957 0.0
H372 H 0.59856 0.29243 0.82078 0.0
H373 H 0.59858 0.19114 0.98777 0.0
C374 C 1.0011 0.78877 0.26681 0.0
N375 N 0.94089 0.75227 0.3691 0.0
C376 C 0.93003 0.77302 0.35177 0.0
C377 C 0.90622 0.77364 0.32875 0.0
C378 C 0.89343 0.75273 0.32331 0.0
C379 C 0.90485 0.73164 0.3436 0.0
C380 C 0.9287 0.73179 0.36628 0.0
Zn381 Zn 0.97714 0.75139 0.3845 0.0
C382 C 1.00173 0.71634 0.25829 0.0
N383 N 0.0403 0.75265 0.42969 0.0
C384 C 0.05043 0.78257 0.45003 0.0
C385 C 0.05394 0.72562 0.3921 0.0
C386 C 0.08857 0.72322 0.35806 0.0
C387 C 0.1105 0.76217 0.36884 0.0
C388 C 0.08425 0.79391 0.42398 0.0
Zn389 Zn 0.01101 0.75132 0.41311 0.0
O390 O 0.98188 0.77719 0.26278 0.0
C391 C 0.99638 0.78774 0.53812 0.0
O392 O 0.01457 0.7829 0.33016 0.0
H393 H 0.04392 0.71012 0.38653 0.0
H394 H 0.94003 0.78907 0.3531 0.0
H395 H 0.06586 0.7922 0.44422 0.0
O396 O 0.97884 0.78584 0.48329 0.0
O397 O 0.01046 0.77099 0.53548 0.0
H398 H 0.93764 0.71545 0.37901 0.0
O399 O 0.01294 0.72116 0.4881 0.0
O400 O 0.9757 0.72314 0.50728 0.0
O401 O 0.01664 0.73031 0.29041 0.0
O402 O 0.98059 0.71932 0.28617 0.0
C403 C 0.9953 0.71263 0.52466 0.0
H404 H 0.89797 0.79022 0.3134 0.0
H405 H 0.89553 0.71517 0.33992 0.0
H406 H 0.09287 0.70538 0.32555 0.0
H407 H 0.09183 0.81218 0.42698 0.0
C408 C 0.55701 0.65937 0.50977 0.0
N409 N 0.5941 0.59914 0.62771 0.0
C410 C 0.57356 0.58771 0.61211 0.0
C411 C 0.57349 0.56395 0.58804 0.0
C412 C 0.59473 0.55176 0.57968 0.0
C413 C 0.61559 0.56367 0.59962 0.0
C414 C 0.61488 0.58744 0.6234 0.0
Zn415 Zn 0.59421 0.63568 0.63458 0.0
C416 C 0.63064 0.65627 0.50245 0.0
N417 N 0.59519 0.70201 0.63761 0.0
C418 C 0.56561 0.71318 0.65809 0.0
C419 C 0.62346 0.7152 0.6098 0.0
C420 C 0.6281 0.75062 0.59443 0.0
C421 C 0.59004 0.7742 0.61048 0.0
C422 C 0.55627 0.74797 0.64691 0.0
Zn423 Zn 0.59504 0.67173 0.6438 0.0
O424 O 0.56354 0.6381 0.52378 0.0
C425 C 0.55709 0.65696 0.77357 0.0
O426 O 0.56856 0.67444 0.55101 0.0
H427 H 0.63872 0.70469 0.59957 0.0
H428 H 0.55723 0.59728 0.61436 0.0
H429 H 0.55684 0.72912 0.65711 0.0
O430 O 0.56348 0.63682 0.74296 0.0
O431 O 0.56948 0.67409 0.74987 0.0
H432 H 0.63106 0.59682 0.63431 0.0
O433 O 0.62156 0.67562 0.73606 0.0
O434 O 0.62599 0.63828 0.74707 0.0
O435 O 0.61981 0.67296 0.53752 0.0
O436 O 0.62368 0.63582 0.52501 0.0
C437 C 0.63292 0.65914 0.77001 0.0
H438 H 0.55706 0.55536 0.57313 0.0
H439 H 0.63231 0.55485 0.59383 0.0
H440 H 0.64649 0.75525 0.56866 0.0
H441 H 0.53829 0.75625 0.64877 0.0
C442 C 0.13123 0.34573 0.01359 0.0
N443 N 0.09509 0.40613 0.12487 0.0
C444 C 0.11547 0.41853 0.12353 0.0
C445 C 0.11555 0.44228 0.09913 0.0
C446 C 0.0945 0.45337 0.07539 0.0
C447 C 0.07368 0.44039 0.07982 0.0
C448 C 0.07436 0.41671 0.10475 0.0
Zn449 Zn 0.09567 0.36982 0.13849 0.0
C450 C 0.05847 0.34697 1.00739 0.0
N451 N 0.0923 0.30447 0.15689 0.0
C452 C 0.12258 0.29416 0.16669 0.0
C453 C 0.06405 0.29055 0.1352 0.0
C454 C 0.06055 0.25517 0.11263 0.0
C455 C 0.10013 0.23304 0.11319 0.0
C456 C 0.13295 0.26002 0.1467 0.0
Zn457 Zn 0.09248 0.33506 0.15369 0.0
O458 O 0.12836 0.36663 0.04359 0.0
C459 C 0.13063 0.34908 0.28333 0.0
O460 O 0.11656 0.33084 0.04099 0.0
H461 H 0.04805 0.30053 0.13593 0.0
H462 H 0.13181 0.40979 0.13819 0.0
H463 H 0.13182 0.27856 0.16117 0.0
O464 O 0.12358 0.37016 0.2672 0.0
O465 O 0.12023 0.33413 0.23792 0.0
H466 H 0.0584 0.40654 0.10472 0.0
O467 O 0.07022 0.33221 0.26287 0.0
O468 O 0.06102 0.36814 0.23577 0.0
O469 O 0.06371 0.33333 0.06972 0.0
O470 O 0.06995 0.36633 1.00812 0.0
C471 C 0.0563 0.34865 0.27713 0.0
H472 H 0.13196 0.45175 0.0963 0.0
H473 H 0.05713 0.44835 0.06186 0.0
H474 H 0.04182 0.25009 0.09251 0.0
H475 H 0.15127 0.25238 0.14425 0.0
C476 C 0.55851 0.34812 0.2507 0.0
N477 N 0.59424 0.30567 0.38512 0.0
C478 C 0.56518 0.29493 0.40917 0.0
C479 C 0.55694 0.26024 0.41968 0.0
C480 C 0.58662 0.23482 0.39012 0.0
C481 C 0.62919 0.2586 0.36474 0.0
C482 C 0.62262 0.29331 0.3631 0.0
Zn483 Zn 0.5956 0.33547 0.38052 0.0
C484 C 0.63439 0.34985 0.25471 0.0
N485 N 0.5975 0.40779 0.39949 0.0
C486 C 0.57718 0.42019 0.39301 0.0
C487 C 0.61765 0.41852 0.42601 0.0
C488 C 0.61764 0.44222 0.45089 0.0
C489 C 0.59678 0.45517 0.44766 0.0
C490 C 0.57647 0.44402 0.41613 0.0
Zn491 Zn 0.59671 0.37125 0.39141 0.0
O492 O 0.57069 0.3319 0.28154 0.0
C493 C 0.55926 0.35144 0.51886 0.0
O494 O 0.56449 0.36896 0.27804 0.0
H495 H 0.63361 0.40849 0.43163 0.0
H496 H 0.55699 0.27911 0.41848 0.0
H497 H 0.56122 0.41136 0.37374 0.0
O498 O 0.56916 0.33485 0.48 0.0
O499 O 0.56747 0.37175 0.50176 0.0
H500 H 0.63027 0.27695 0.35982 0.0
O501 O 0.62739 0.36735 0.50314 0.0
O502 O 0.62052 0.33105 0.48023 0.0
O503 O 0.62749 0.3701 0.28233 0.0
O504 O 0.62237 0.33277 0.28045 0.0
C505 C 0.63264 0.34584 0.52063 0.0
H506 H 0.53852 0.2528 0.43681 0.0
H507 H 0.64628 0.24837 0.3584 0.0
H508 H 0.63365 0.45022 0.47466 0.0
H509 H 0.56005 0.45344 0.41287 0.0
C510 C 0.1333 0.65503 0.74956 0.0
N511 N 0.09826 0.69875 0.87481 0.0
C512 C 0.12749 0.70961 0.89456 0.0
C513 C 0.13606 0.74349 0.90538 0.0
C514 C 0.10736 0.76936 0.88 0.0
C515 C 0.06364 0.74606 0.85981 0.0
C516 C 0.0699 0.71134 0.85667 0.0
Zn517 Zn 0.09499 0.66906 0.86878 0.0
C518 C 0.05741 0.65761 0.74731 0.0
N519 N 0.09388 0.59763 0.90063 0.0
C520 C 0.11433 0.58531 0.90034 0.0
C521 C 0.0732 0.5868 0.92006 0.0
C522 C 0.0727 0.56299 0.94346 0.0
C523 C 0.09364 0.55016 0.94665 0.0
C524 C 0.11458 0.56145 0.92281 0.0
Zn525 Zn 0.09538 0.63406 0.89419 0.0
O526 O 0.12209 0.67195 0.77954 0.0
C527 C 0.13 0.6553 0.02173 0.0
O528 O 0.12615 0.63466 0.77689 0.0
H529 H 0.05717 0.59686 0.92141 0.0
H530 H 0.14187 0.69752 0.8997 0.0
H531 H 0.13064 0.59425 0.88669 0.0
O532 O 0.11826 0.66927 0.97538 0.0
O533 O 0.1259 0.63384 1.00361 0.0
H534 H 0.06234 0.72776 0.85449 0.0
O535 O 0.06744 0.63701 1.00997 0.0
O536 O 0.06636 0.67267 0.9637 0.0
O537 O 0.06181 0.63798 0.78862 0.0
O538 O 0.07211 0.67344 0.75987 0.0
C539 C 0.05816 0.65742 0.01617 0.0
H540 H 0.15458 0.7481 0.91123 0.0
H541 H 0.0467 0.75657 0.85452 0.0
H542 H 0.05623 0.55485 0.96157 0.0
H543 H 0.13107 0.55212 0.92486 0.0
C544 C 0.16055 0.19199 0.9862 0.0
C545 C 0.14971 0.17082 0.95426 0.0
C546 C 0.17632 0.17421 0.82079 0.0
C547 C 0.18254 0.19764 0.8431 0.0
N548 N 0.18184 0.22808 0.95326 0.0
N549 N 0.14865 0.14191 0.83658 0.0
C550 C 0.17536 0.20601 0.92857 0.0
C551 C 0.1583 0.16181 0.87076 0.0
N552 N 0.15648 0.19913 0.07229 0.0
N553 N 0.18881 0.16327 0.75487 0.0
H554 H 0.13587 0.13241 0.87118 0.0
H555 H 0.15225 0.13581 0.77178 0.0
H556 H 0.20281 0.17162 0.72268 0.0
H557 H 0.18694 0.14559 0.73949 0.0
H558 H 0.16585 0.21231 0.10433 0.0
H559 H 0.14438 0.19098 0.11339 0.0
H560 H 0.17504 0.23697 1.0087 0.0
H561 H 0.19364 0.23795 0.91529 0.0
C562 C 0.18577 0.81678 0.1081 0.0
C563 C 0.17641 0.80902 0.19208 0.0
C564 C 0.14255 0.83661 0.16626 0.0
C565 C 0.15131 0.84306 0.07997 0.0
N566 N 0.18669 0.84782 0.99538 0.0
N567 N 0.14908 0.81822 0.31136 0.0
C568 C 0.17455 0.83556 0.05875 0.0
C569 C 0.15599 0.82132 0.22429 0.0
N570 N 0.20492 0.80581 0.07304 0.0
N571 N 0.12088 0.84429 0.19221 0.0
H572 H 0.15686 0.80602 0.3531 0.0
H573 H 0.13637 0.82828 0.34352 0.0
H574 H 0.11112 0.85623 0.15515 0.0
H575 H 0.11207 0.83857 0.24963 0.0
H576 H 0.21106 0.80898 1.00786 0.0
H577 H 0.21363 0.79245 0.10716 0.0
H578 H 0.20433 0.84489 0.98121 0.0
H579 H 0.17958 0.86278 0.96564 0.0
C580 C 0.53407 0.82332 0.28326 0.0
C581 C 0.5149 0.80961 0.31785 0.0
C582 C 0.52229 0.83093 0.46367 0.0
C583 C 0.54483 0.83913 0.43498 0.0
N584 N 0.57127 0.84278 0.3102 0.0
N585 N 0.49197 0.80104 0.45099 0.0
C586 C 0.55033 0.83511 0.34263 0.0
C587 C 0.5092 0.81383 0.41077 0.0
N588 N 0.53639 0.82602 0.19228 0.0
N589 N 0.51267 0.84028 0.53963 0.0
H590 H 0.48209 0.78868 0.41644 0.0
H591 H 0.48876 0.80162 0.52022 0.0
H592 H 0.52128 0.85311 0.57702 0.0
H593 H 0.49555 0.8368 0.56021 0.0
H594 H 0.54849 0.83728 0.16249 0.0
H595 H 0.52433 0.81914 0.14718 0.0
H596 H 0.57795 0.83778 0.24758 0.0
H597 H 0.58219 0.85342 0.34845 0.0
C598 C 0.50341 0.18727 0.60004 0.0
C599 C 0.51196 0.19332 0.68692 0.0
C600 C 0.54402 0.16357 0.66324 0.0
C601 C 0.53654 0.15928 0.5736 0.0
N602 N 0.50195 0.15727 0.48368 0.0
N603 N 0.5357 0.17997 0.81081 0.0
C604 C 0.51408 0.16833 0.54986 0.0
C605 C 0.53068 0.17899 0.72129 0.0
N606 N 0.48565 0.19994 0.56315 0.0
N607 N 0.56427 0.15348 0.69279 0.0
H608 H 0.52762 0.19175 0.85404 0.0
H609 H 0.54692 0.1684 0.84333 0.0
H610 H 0.57348 0.14107 0.65572 0.0
H611 H 0.57224 0.15733 0.75386 0.0
H612 H 0.48033 0.19779 0.49648 0.0
H613 H 0.47736 0.21351 0.59772 0.0
H614 H 0.48468 0.16139 0.4676 0.0
H615 H 0.50862 0.14226 0.45262 0.0
C616 C 0.01731 0.79828 0.10692 0.0
C617 C 0.01054 0.80606 0.19414 0.0
C618 C 0.03483 0.842 0.16539 0.0
C619 C 0.04165 0.8341 0.07802 0.0
N620 N 0.02754 0.81038 0.95602 0.0
N621 N 0.00403 0.8411 0.27952 0.0
C622 C 0.02943 0.81383 0.04612 0.0
C623 C 0.01686 0.82962 0.21606 0.0
N624 N 0.01269 0.77585 0.08124 0.0
N625 N 0.04544 0.86117 0.20116 0.0
H626 H 0.98932 0.83334 0.30905 0.0
H627 H 0.00635 0.85878 0.29405 0.0
H628 H 0.05806 0.87068 0.1657 0.0
H629 H 0.04264 0.86647 0.26763 0.0
H630 H 0.01925 0.76871 0.02154 0.0
H631 H 0.0036 0.76406 0.12203 0.0
H632 H 0.01704 0.79741 0.92764 0.0
H633 H 0.03515 0.82197 0.91086 0.0
C634 C 1.00208 0.18247 0.88623 0.0
C635 C 0.01492 0.19906 0.83191 0.0
C636 C 0.05009 0.17422 0.86302 0.0
C637 C 0.03922 0.16153 0.93299 0.0
N638 N 0.00292 0.15278 1.00654 0.0
N639 N 0.05437 0.21425 0.82391 0.0
C640 C 0.01453 0.16545 0.94278 0.0
C641 C 0.03981 0.19571 0.83346 0.0
N642 N 0.97824 0.18314 0.88711 0.0
N643 N 0.07192 0.16807 0.8344 0.0
H644 H 0.0484 0.23141 0.82455 0.0
H645 H 0.07234 0.21259 0.83327 0.0
H646 H 0.08024 0.15295 0.85718 0.0
H647 H 0.0804 0.17704 0.7823 0.0
H648 H 0.96796 0.17012 0.91627 0.0
H649 H 0.96859 0.19626 0.85613 0.0
H650 H 0.98575 0.15612 0.02647 0.0
H651 H 0.0111 0.13905 0.04064 0.0
C652 C 0.68156 0.17564 0.68037 0.0
C653 C 0.67579 0.19951 0.70131 0.0
C654 C 0.63785 0.19201 0.62508 0.0
C655 C 0.64411 0.16946 0.59139 0.0
N656 N 0.67571 0.14139 0.58289 0.0
N657 N 0.65037 0.23128 0.66311 0.0
C658 C 0.66717 0.16172 0.61766 0.0
C659 C 0.65496 0.20794 0.66095 0.0
N660 N 0.70052 0.16599 0.72156 0.0
N661 N 0.61477 0.19752 0.63333 0.0
H662 H 0.66181 0.24332 0.69145 0.0
H663 H 0.63612 0.23856 0.63029 0.0
H664 H 0.60194 0.18456 0.6344 0.0
H665 H 0.60891 0.21357 0.65675 0.0
H666 H 0.70457 0.14826 0.71783 0.0
H667 H 0.71132 0.17576 0.76395 0.0
H668 H 0.69297 0.13598 0.59171 0.0
H669 H 0.66599 0.13073 0.5403 0.0
C670 C 0.64669 0.84034 0.35409 0.0
C671 C 0.65474 0.84519 0.44239 0.0
C672 C 0.68759 0.81685 0.41558 0.0
C673 C 0.67814 0.80969 0.33116 0.0
N674 N 0.65124 0.81965 0.21165 0.0
N675 N 0.6896 0.84739 0.52991 0.0
C676 C 0.65853 0.82317 0.29798 0.0
C677 C 0.67721 0.83608 0.46507 0.0
N678 N 0.62777 0.85247 0.32352 0.0
N679 N 0.70588 0.80472 0.45148 0.0
H680 H 0.68307 0.86256 0.56024 0.0
H681 H 0.70696 0.84348 0.54509 0.0
H682 H 0.71393 0.79083 0.41802 0.0
H683 H 0.71184 0.80744 0.517 0.0
H684 H 0.61919 0.84929 0.26319 0.0
H685 H 0.62101 0.86676 0.3585 0.0
H686 H 0.63819 0.82902 0.17915 0.0
H687 H 0.65895 0.80744 0.16962 0.0
C688 C 0.68612 0.68457 0.40245 0.0
C689 C 0.67838 0.69179 0.31495 0.0
C690 C 0.64145 0.66908 0.34381 0.0
C691 C 0.64895 0.6624 0.43058 0.0
N692 N 0.68224 0.65611 0.52493 0.0
N693 N 0.65245 0.67982 0.19305 0.0
C694 C 0.6725 0.66783 0.45448 0.0
C695 C 0.65724 0.6806 0.28297 0.0
N696 N 0.70603 0.69382 0.43797 0.0
N697 N 0.61887 0.66469 0.31888 0.0
H698 H 0.6637 0.68634 0.14438 0.0
H699 H 0.63889 0.66989 0.166 0.0
H700 H 0.60726 0.65507 0.35882 0.0
H701 H 0.6114 0.67155 0.26064 0.0
H702 H 0.71081 0.69143 0.50513 0.0
H703 H 0.71727 0.70463 0.40177 0.0
H704 H 0.69988 0.65742 0.54195 0.0
H705 H 0.67288 0.64339 0.56058 0.0
C706 C 0.67559 0.2985 0.60644 0.0
C707 C 0.68134 0.30558 0.69517 0.0
C708 C 0.65993 0.3431 0.66501 0.0
C709 C 0.65317 0.33552 0.57735 0.0
N710 N 0.66521 0.31035 0.45509 0.0
N711 N 0.68976 0.34008 0.78153 0.0
C712 C 0.66441 0.31457 0.54539 0.0
C713 C 0.67666 0.32954 0.71686 0.0
N714 N 0.68102 0.27637 0.57916 0.0
N715 N 0.65023 0.36281 0.70053 0.0
H716 H 0.70344 0.33124 0.81335 0.0
H717 H 0.6886 0.35791 0.79569 0.0
H718 H 0.63843 0.37312 0.66465 0.0
H719 H 0.65297 0.36787 0.76723 0.0
H720 H 0.6746 0.26903 0.51983 0.0
H721 H 0.69121 0.2651 0.61813 0.0
H722 H 0.67496 0.29686 0.4262 0.0
H723 H 0.65797 0.32188 0.40876 0.0
C724 C 0.04573 0.31139 0.91911 0.0
C725 C 0.04296 0.33589 0.93222 0.0
C726 C 0.00894 0.33249 0.82582 0.0
C727 C 0.01083 0.30741 0.82333 0.0
N728 N 0.0271 0.27388 0.89668 0.0
N729 N 0.019 0.36945 0.90206 0.0
C730 C 0.02774 0.29731 0.88034 0.0
C731 C 0.02366 0.34645 0.88641 0.0
N732 N 0.06692 0.30155 0.93559 0.0
N733 N 0.99289 0.34293 0.77144 0.0
H734 H 0.02956 0.37959 0.94395 0.0
H735 H 0.00419 0.37796 0.87777 0.0
H736 H 0.98097 0.33313 0.73394 0.0
H737 H 0.99189 0.36095 0.76196 0.0
H738 H 0.07019 0.28425 0.9208 0.0
H739 H 0.08183 0.31141 0.94944 0.0
H740 H 0.03769 0.26609 0.94495 0.0
H741 H 0.01399 0.26307 0.87136 0.0
C742 C 0.02829 0.68025 0.23605 0.0
C743 C 0.01092 0.69564 0.20016 0.0
C744 C 0.01753 0.67468 0.05548 0.0
C745 C 0.03942 0.66535 0.08516 0.0
N746 N 0.06521 0.6601 0.21162 0.0
N747 N 0.98872 0.70602 0.06861 0.0
C748 C 0.04458 0.66824 0.17802 0.0
C749 C 0.00533 0.69231 0.1077 0.0
N750 N 0.02798 0.67549 0.3257 0.0
N751 N 0.00732 0.6652 0.98132 0.0
H752 H 0.97934 0.71854 0.10507 0.0
H753 H 0.98543 0.70569 0.99948 0.0
H754 H 0.01509 0.65126 0.94676 0.0
H755 H 0.9905 0.66968 0.96032 0.0
H756 H 0.03863 0.66285 0.3554 0.0
H757 H 0.01556 0.68322 0.36773 0.0
H758 H 0.07069 0.6638 0.27712 0.0
H759 H 0.07725 0.65087 0.17229 0.0
C760 C 0.54868 0.33803 0.67632 0.0
C761 C 0.54101 0.34491 0.58993 0.0
C762 C 0.50542 0.31999 0.61289 0.0
C763 C 0.51343 0.31269 0.69949 0.0
N764 N 0.53829 0.324 0.82376 0.0
N765 N 0.50787 0.34929 0.49294 0.0
C766 C 0.53364 0.32467 0.73398 0.0
C767 C 0.51799 0.33803 0.56374 0.0
N768 N 0.57093 0.34337 0.70286 0.0
N769 N 0.48666 0.30913 0.57493 0.0
H770 H 0.51663 0.36262 0.45833 0.0
H771 H 0.4905 0.34676 0.47415 0.0
H772 H 0.47704 0.29632 0.60849 0.0
H773 H 0.48166 0.31189 0.50824 0.0
H774 H 0.57871 0.33603 0.75976 0.0
H775 H 0.58198 0.35415 0.66509 0.0
H776 H 0.55077 0.33473 0.85394 0.0
H777 H 0.52776 0.31494 0.86891 0.0
C778 C 0.52465 0.68999 0.48679 0.0
C779 C 0.53597 0.66909 0.45471 0.0
C780 C 0.51168 0.67449 0.31722 0.0
C781 C 0.50691 0.69838 0.3389 0.0
N782 N 0.50926 0.7285 0.45123 0.0
N783 N 0.53847 0.64148 0.3323 0.0
C784 C 0.51342 0.70591 0.42599 0.0
C785 C 0.52879 0.66117 0.36802 0.0
N786 N 0.52391 0.69439 0.5768 0.0
N787 N 0.49851 0.66389 0.25298 0.0
H788 H 0.55053 0.63131 0.36745 0.0
H789 H 0.53539 0.63623 0.26603 0.0
H790 H 0.48475 0.67273 0.22159 0.0
H791 H 0.49973 0.64608 0.23862 0.0
H792 H 0.51395 0.70781 0.6052 0.0
H793 H 0.53165 0.68321 0.62307 0.0
H794 H 0.51599 0.73572 0.51026 0.0
H795 H 0.50011 0.74028 0.41067 0.0
C796 C 0.16732 0.70445 0.12082 0.0
C797 C 0.18313 0.69487 0.18255 0.0
C798 C 0.16731 0.65569 0.13364 0.0
C799 C 0.14812 0.66662 0.08756 0.0
N800 N 0.12602 0.70255 0.09355 0.0
N801 N 0.19753 0.6596 0.25067 0.0
C802 C 0.14706 0.69144 0.09663 0.0
C803 C 0.18293 0.66983 0.18999 0.0
N804 N 0.17031 0.72689 0.09288 0.0
N805 N 0.17072 0.63224 0.12505 0.0
H806 H 0.20967 0.66944 0.28701 0.0
H807 H 0.19685 0.64187 0.26675 0.0
H808 H 0.15952 0.62164 0.08787 0.0
H809 H 0.18538 0.6237 0.15064 0.0
H810 H 0.1582 0.73525 0.05233 0.0
H811 H 0.18515 0.73661 0.10959 0.0
H812 H 0.12461 0.72048 0.10002 0.0
H813 H 0.1101 0.69364 0.09679 0.0
C814 C 0.17202 0.32845 0.8099 0.0
C815 C 0.18455 0.30893 0.84625 0.0
C816 C 0.16801 0.31991 0.99681 0.0
C817 C 0.15243 0.3367 0.95772 0.0
N818 N 0.1398 0.35652 0.82393 0.0
N819 N 0.19439 0.28658 0.97723 0.0
C820 C 0.15486 0.34112 0.86351 0.0
C821 C 0.18266 0.30507 0.94089 0.0
N822 N 0.17623 0.33448 0.72229 0.0
N823 N 0.16918 0.31852 0.08862 0.0
H824 H 0.20652 0.27693 0.93982 0.0
H825 H 0.1916 0.2804 0.04245 0.0
H826 H 0.15952 0.32958 0.1305 0.0
H827 H 0.18116 0.30817 0.12316 0.0
H828 H 0.16939 0.34934 0.69152 0.0
H829 H 0.18834 0.32543 0.68274 0.0
H830 H 0.13835 0.35874 0.75451 0.0
H831 H 0.12773 0.36628 0.86117 0.0
C832 C 0.10697 0.23343 0.08179 0.0
C833 C 0.07437 0.23501 0.14577 0.0
C834 C 0.06904 0.26297 0.26877 0.0
C835 C 0.09339 0.26749 0.20414 0.0
N836 N 0.11763 0.2823 0.99587 0.0
N837 N 0.0423 0.22922 0.27495 0.0
C838 C 0.10077 0.26904 0.06723 0.0
C839 C 0.06322 0.2385 0.25162 0.0
N840 N 0.12019 0.22381 0.99348 0.0
N841 N 0.06208 0.27574 0.34021 0.0
H842 H 0.03617 0.2146 0.24025 0.0
H843 H 0.0316 0.23674 0.32421 0.0
H844 H 0.06943 0.29214 0.35202 0.0
H845 H 0.04849 0.26989 0.3813 0.0
H846 H 0.13401 0.23352 0.96708 0.0
H847 H 0.1143 0.21011 0.95326 0.0
H848 H 0.12636 0.27328 0.94482 0.0
H849 H 0.12636 0.27328 0.94482 0.0
C850 C 0.10717 0.7218 0.49304 0.0
C851 C 0.10891 0.73571 0.39083 0.0
C852 C 0.07386 0.76439 0.33279 0.0
C853 C 0.07803 0.7533 0.46562 0.0
N854 N 0.07208 0.71956 0.59436 0.0
N855 N 0.11809 0.78545 0.25692 0.0
C856 C 0.0831 0.72723 0.5193 0.0
C857 C 0.10968 0.76981 0.34129 0.0
N858 N 0.11635 0.70024 0.5045 0.0
N859 N 0.06222 0.78377 0.26799 0.0
H860 H 0.1325 0.78149 0.21668 0.0
H861 H 0.10706 0.79866 0.23383 0.0
H862 H 0.05271 0.79812 0.2912 0.0
H863 H 0.06737 0.78436 0.20037 0.0
H864 H 0.10908 0.6882 0.54947 0.0
H865 H 0.13006 0.69486 0.4628 0.0
H866 H 0.07873 0.70572 0.63218 0.0
H867 H 0.05617 0.72705 0.61369 0.0
C868 C 0.58238 0.77464 0.58222 0.0
C869 C 0.61577 0.77086 0.63593 0.0
C870 C 0.62124 0.7407 0.75093 0.0
C871 C 0.5962 0.73828 0.69161 0.0
N872 N 0.56856 0.72886 0.48445 0.0
N873 N 0.64894 0.77344 0.76261 0.0
C874 C 0.5867 0.7391 0.55709 0.0
C875 C 0.62794 0.765 0.73776 0.0
N876 N 0.56701 0.78661 0.50442 0.0
N877 N 0.62668 0.72768 0.82325 0.0
H878 H 0.65565 0.78786 0.7284 0.0
H879 H 0.65879 0.7656 0.81341 0.0
H880 H 0.61823 0.71178 0.83182 0.0
H881 H 0.64041 0.73216 0.86591 0.0
H882 H 0.55043 0.77986 0.49061 0.0
H883 H 0.57352 0.79877 0.45874 0.0
H884 H 0.56044 0.74017 0.43899 0.0
H885 H 0.56773 0.71104 0.47116 0.0
C886 C 0.58187 0.22919 0.87164 0.0
C887 C 0.58187 0.26494 0.90049 0.0
C888 C 0.60621 0.27818 0.02788 0.0
C889 C 0.61178 0.25073 0.99072 0.0
N890 N 0.63132 0.21187 0.82779 0.0
N891 N 0.57202 0.30351 1.00064 0.0
C892 C 0.61786 0.2343 0.86811 0.0
C893 C 0.58253 0.28244 0.99531 0.0
N894 N 0.57402 0.20994 0.79851 0.0
N895 N 0.61629 0.28844 0.10001 0.0
H896 H 0.55676 0.30633 0.96471 0.0
H897 H 0.57796 0.3166 0.04386 0.0
H898 H 0.63202 0.28186 0.12506 0.0
H899 H 0.60967 0.30383 0.12776 0.0
H900 H 0.58217 0.19368 0.79905 0.0
H901 H 0.56231 0.21318 0.74628 0.0
H902 H 0.62227 0.19717 0.80546 0.0
H903 H 0.62227 0.19717 0.80546 0.0
C904 C 0.09308 0.73829 0.94907 0.0
C905 C 0.10167 0.73433 0.81484 0.0
C906 C 0.1335 0.76072 0.75913 0.0
C907 C 0.12435 0.77313 0.8436 0.0
N908 N 0.07318 0.78531 0.94394 0.0
N909 N 0.12932 0.72237 0.6826 0.0
C910 C 0.09287 0.77166 0.90744 0.0
C911 C 0.12447 0.73704 0.75103 0.0
N912 N 0.07303 0.73247 0.02489 0.0
N913 N 0.1538 0.76754 0.72111 0.0
H914 H 0.12015 0.70672 0.67837 0.0
H915 H 0.14273 0.72559 0.6366 0.0
H916 H 0.16128 0.7829 0.74436 0.0
H917 H 0.1634 0.75701 0.67709 0.0
H918 H 0.06778 0.71537 0.03938 0.0
H919 H 0.06778 0.71537 0.03938 0.0
H920 H 0.06234 0.7777 0.99254 0.0
H921 H 0.06666 0.80015 0.9135 0.0
C922 C 0.57482 0.76188 0.18509 0.0
C923 C 0.5786 0.75191 0.05182 0.0
C924 C 0.60891 0.7221 0.01986 0.0
C925 C 0.61092 0.73517 0.12275 0.0
N926 N 0.61869 0.78494 0.25876 0.0
N927 N 0.57334 0.71923 0.92181 0.0
C928 C 0.61044 0.76886 0.17615 0.0
C929 C 0.58451 0.72685 0.99623 0.0
N930 N 0.56084 0.77878 0.2525 0.0
N931 N 0.61931 0.70136 1.00232 0.0
H932 H 0.55688 0.72599 0.906 0.0
H933 H 0.58001 0.70561 0.88275 0.0
H934 H 0.63458 0.69688 0.03629 0.0
H935 H 0.61229 0.6894 0.9567 0.0
H936 H 0.56882 0.7848 0.31113 0.0
H937 H 0.56882 0.7848 0.31113 0.0
H938 H 0.60848 0.79931 0.2773 0.0
H939 H 0.63349 0.78168 0.29725 0.0
C940 C 0.56743 0.26787 0.26339 0.0
C941 C 0.59069 0.27025 0.32476 0.0
C942 C 0.60058 0.23258 0.41482 0.0
C943 C 0.5684 0.2324 0.35746 0.0
N944 N 0.53836 0.23709 0.23665 0.0
N945 N 0.62042 0.27193 0.53179 0.0
C946 C 0.55878 0.24417 0.27214 0.0
C947 C 0.60024 0.26611 0.45801 0.0
N948 N 0.56314 0.28173 0.19193 0.0
N949 N 0.62066 0.21807 0.44543 0.0
H950 H 0.62307 0.28894 0.55493 0.0
H951 H 0.62307 0.28894 0.55493 0.0
H952 H 0.62614 0.20239 0.417 0.0
H953 H 0.63317 0.2257 0.48693 0.0
H954 H 0.54993 0.27805 0.14597 0.0
H955 H 0.57265 0.29706 0.18387 0.0
H956 H 0.52849 0.24742 0.19325 0.0
H957 H 0.53126 0.22157 0.26033 0.0
C958 C 0.08544 0.22967 0.51634 0.0
C959 C 0.08001 0.25747 0.55027 0.0
C960 C 0.11202 0.28013 0.65759 0.0
C961 C 0.11141 0.24419 0.63493 0.0
N962 N 0.11896 0.20414 0.54456 0.0
N963 N 0.06241 0.29673 0.71682 0.0
C964 C 0.10952 0.22569 0.54412 0.0
C965 C 0.07605 0.27497 0.67176 0.0
N966 N 0.07399 0.21825 0.45059 0.0
N967 N 0.12254 0.30036 0.72176 0.0
H968 H 0.07138 0.30866 0.75702 0.0
H969 H 0.07138 0.30866 0.75702 0.0
H970 H 0.13988 0.30008 0.7424 0.0
H971 H 0.11267 0.31526 0.73594 0.0
H972 H 0.07996 0.20234 0.42523 0.0
H973 H 0.05736 0.22401 0.43328 0.0
H974 H 0.11283 0.19108 0.50178 0.0
H975 H 0.13157 0.20022 0.59272 0.0
C976 C 0.08976 0.02128 0.95024 0.0
C977 C 0.09599 0.0261 0.04128 0.0
C978 C 0.10057 0.98382 0.0701 0.0
C979 C 0.0942 0.97898 0.97925 0.0
N980 N 0.08492 0.9926 0.83005 0.0
N981 N 0.10478 0.01238 0.19084 0.0
C982 C 0.08922 0.99762 0.91873 0.0
C983 C 0.10088 0.00745 0.10183 0.0
N984 N 0.08398 0.03945 0.89445 0.0
N985 N 0.10677 0.96572 0.12553 0.0
H986 H 0.10537 0.02939 0.2161 0.0
H987 H 0.1061 0.99984 0.24133 0.0
H988 H 0.10549 0.94821 0.10658 0.0
H989 H 0.11425 0.96781 0.18883 0.0
H990 H 0.07684 0.03751 0.83052 0.0
H991 H 0.08547 0.05695 0.91337 0.0
H992 H 0.08319 0.00505 0.77945 0.0
H993 H 0.08419 0.97557 0.80512 0.0
C994 C 0.33582 0.7366 0.32344 0.0
C995 C 0.32058 0.75494 0.29633 0.0
C996 C 0.35224 0.77116 0.20204 0.0
C997 C 0.36819 0.75437 0.23691 0.0
N998 N 0.37593 0.72442 0.34788 0.0
N999 N 0.31632 0.79281 0.22629 0.0
C1000 C 0.3602 0.73802 0.30258 0.0
C1001 C 0.32942 0.77316 0.24051 0.0
N1002 N 0.32698 0.71728 0.36578 0.0
N1003 N 0.35845 0.78458 0.12953 0.0
H1004 H 0.29989 0.79532 0.25565 0.0
H1005 H 0.32279 0.80758 0.19344 0.0
H1006 H 0.37461 0.78306 0.09707 0.0
H1007 H 0.3467 0.79541 0.09587 0.0
H1008 H 0.33692 0.70235 0.37834 0.0
H1009 H 0.30924 0.71522 0.38045 0.0
H1010 H 0.37129 0.71391 0.40255 0.0
H1011 H 0.39395 0.72543 0.33718 0.0
C1012 C 0.59139 0.00646 0.41995 0.0
C1013 C 0.59564 0.0255 0.47924 0.0
C1014 C 0.59926 0.998 0.60714 0.0
C1015 C 0.59482 0.97898 0.54786 0.0
N1016 N 0.5845 0.96475 0.40036 0.0
N1017 N 0.60498 0.03993 0.6274 0.0
C1018 C 0.5903 0.98315 0.45487 0.0
C1019 C 0.59993 0.02138 0.57248 0.0
N1020 N 0.58938 0.01067 0.32943 0.0
N1021 N 0.602 0.99361 0.69727 0.0
H1022 H 0.60452 0.05726 0.60547 0.0
H1023 H 0.61042 0.0385 0.69395 0.0
H1024 H 0.60171 0.97678 0.72442 0.0
H1025 H 0.60354 0.00639 0.74665 0.0
H1026 H 0.58866 0.99771 0.28041 0.0
H1027 H 0.58986 0.02745 0.30182 0.0
H1028 H 0.57834 0.9665 0.3348 0.0
H1029 H 0.58465 0.94741 0.42215 0.0
C1030 C 0.35249 0.25853 0.84253 0.0
C1031 C 0.37053 0.25219 0.78089 0.0
C1032 C 0.34082 0.245 0.66301 0.0
C1033 C 0.32282 0.25164 0.72445 0.0
N1034 N 0.31123 0.26682 0.86943 0.0
N1035 N 0.38236 0.23811 0.6346 0.0
C1036 C 0.32862 0.25897 0.81336 0.0
C1037 C 0.36478 0.24506 0.6916 0.0
N1038 N 0.35815 0.2631 0.93037 0.0
N1039 N 0.33494 0.23954 0.57612 0.0
H1040 H 0.40004 0.23917 0.65132 0.0
H1041 H 0.37977 0.23057 0.57169 0.0
H1042 H 0.31769 0.23924 0.55336 0.0
H1043 H 0.34688 0.23623 0.52467 0.0
H1044 H 0.34597 0.26544 0.98184 0.0
H1045 H 0.37534 0.26309 0.95391 0.0
H1046 H 0.31418 0.27512 0.93072 0.0
H1047 H 0.29353 0.26616 0.85269 0.0
C1048 C 0.828 0.25844 0.7034 0.0
C1049 C 0.82206 0.25106 0.79223 0.0
C1050 C 0.86392 0.24481 0.82486 0.0
C1051 C 0.8697 0.25062 0.73417 0.0
N1052 N 0.85714 0.25989 0.58349 0.0
N1053 N 0.83386 0.23455 0.93447 0.0
C1054 C 0.85169 0.25666 0.67251 0.0
C1055 C 0.83991 0.24344 0.85199 0.0
N1056 N 0.811 0.26746 0.64881 0.0
N1057 N 0.88146 0.24148 0.88608 0.0
H1058 H 0.81665 0.23419 0.95818 0.0
H1059 H 0.84558 0.2261 0.97705 0.0
H1060 H 0.89916 0.24222 0.86887 0.0
H1061 H 0.87864 0.23977 0.95515 0.0
H1062 H 0.81446 0.27575 0.5877 0.0
H1063 H 0.79338 0.26809 0.66727 0.0
H1064 H 0.8447 0.26178 0.53292 0.0
H1065 H 0.87422 0.25887 0.55863 0.0
C1066 C 0.85008 0.75451 0.35871 0.0
C1067 C 0.86833 0.75286 0.29354 0.0
C1068 C 0.83904 0.75106 0.17165 0.0
C1069 C 0.82078 0.75255 0.23678 0.0
N1070 N 0.8083 0.75767 0.39079 0.0
N1071 N 0.88071 0.74707 0.13974 0.0
C1072 C 0.82617 0.75474 0.33005 0.0
C1073 C 0.86292 0.75053 0.20037 0.0
N1074 N 0.85574 0.75516 0.44829 0.0
N1075 N 0.83346 0.75093 0.08197 0.0
H1076 H 0.89834 0.74728 0.1578 0.0
H1077 H 0.87824 0.7427 0.07239 0.0
H1078 H 0.81624 0.75071 0.0588 0.0
H1079 H 0.84562 0.75236 0.02992 0.0
H1080 H 0.84368 0.75419 0.5008 0.0
H1081 H 0.87298 0.75562 0.4712 0.0
H1082 H 0.8106 0.76159 0.45861 0.0
H1083 H 0.79069 0.7572 0.37263 0.0
C1084 C 0.60227 0.52219 0.45561 0.0
C1085 C 0.59521 0.52696 0.5459 0.0
C1086 C 0.58744 0.48494 0.56932 0.0
C1087 C 0.59604 0.48 0.48111 0.0
N1088 N 0.61416 0.49345 0.34361 0.0
N1089 N 0.58398 0.51279 0.69269 0.0
C1090 C 0.60423 0.49852 0.42535 0.0
C1091 C 0.58849 0.50829 0.60372 0.0
N1092 N 0.6062 0.54038 0.39756 0.0
N1093 N 0.57806 0.46728 0.62012 0.0
H1094 H 0.58445 0.52959 0.71999 0.0
H1095 H 0.5815 0.49984 0.74114 0.0
H1096 H 0.57814 0.44983 0.59978 0.0
H1097 H 0.56887 0.47001 0.67994 0.0
H1098 H 0.60885 0.53831 0.32855 0.0
H1099 H 0.605 0.55787 0.41698 0.0
H1100 H 0.62311 0.50566 0.30447 0.0
H1101 H 0.61479 0.47657 0.3171 0.0
C1102 C 0.09078 0.5066 0.91773 0.0
C1103 C 0.09382 0.52531 0.97954 0.0
C1104 C 0.09575 0.49699 0.10498 0.0
C1105 C 0.09435 0.47823 0.04245 0.0
N1106 N 0.09384 0.46488 0.88832 0.0
N1107 N 0.10206 0.53851 0.13048 0.0
C1108 C 0.09273 0.48297 0.94848 0.0
C1109 C 0.09713 0.52053 0.0728 0.0
N1110 N 0.08557 0.51143 0.82974 0.0
N1111 N 0.09498 0.49233 0.1954 0.0
H1112 H 0.10241 0.55598 0.11026 0.0
H1113 H 0.10738 0.53609 0.1969 0.0
H1114 H 0.09426 0.47537 0.22131 0.0
H1115 H 0.09327 0.50516 0.24476 0.0
H1116 H 0.08047 0.4988 0.78328 0.0
H1117 H 0.08474 0.52843 0.80435 0.0
H1118 H 0.09537 0.46715 0.8189 0.0
H1119 H 0.09507 0.44742 0.90812 0.0
C1120 C 0.1511 0.1642 0.42663 0.0
C1121 C 0.15272 0.16472 0.33085 0.0
C1122 C 0.18419 0.19522 0.3472 0.0
C1123 C 0.18172 0.19585 0.44275 0.0
N1124 N 0.16746 0.17529 0.57253 0.0
N1125 N 0.17906 0.17277 0.20886 0.0
C1126 C 0.16672 0.17835 0.48163 0.0
C1127 C 0.17177 0.17793 0.29403 0.0
N1128 N 0.13401 0.15087 0.46549 0.0
N1129 N 0.19774 0.2117 0.30595 0.0
H1130 H 0.17107 0.15961 0.171 0.0
H1131 H 0.19417 0.17984 0.18018 0.0
H1132 H 0.20742 0.22391 0.34249 0.0
H1133 H 0.19825 0.21388 0.23616 0.0
H1134 H 0.12993 0.15126 0.53394 0.0
H1135 H 0.12309 0.14005 0.42781 0.0
H1136 H 0.15903 0.16174 0.60645 0.0
H1137 H 0.17787 0.18587 0.61293 0.0
C1138 C 0.18587 0.81366 0.66007 0.0
C1139 C 0.1835 0.8133 0.56478 0.0
C1140 C 0.15383 0.84543 0.57981 0.0
C1141 C 0.15377 0.84403 0.67563 0.0
N1142 N 0.17506 0.8313 0.80494 0.0
N1143 N 0.17637 0.83938 0.44216 0.0
C1144 C 0.17172 0.82962 0.71464 0.0
C1145 C 0.17065 0.83229 0.52693 0.0
N1146 N 0.20135 0.79846 0.69855 0.0
N1147 N 0.13741 0.85888 0.53817 0.0
H1148 H 0.18949 0.83097 0.40505 0.0
H1149 H 0.16976 0.85465 0.41338 0.0
H1150 H 0.12558 0.86918 0.57445 0.0
H1151 H 0.13508 0.85885 0.46844 0.0
H1152 H 0.2035 0.79624 0.7676 0.0
H1153 H 0.21203 0.78754 0.65998 0.0
H1154 H 0.18725 0.82174 0.84145 0.0
H1155 H 0.16652 0.84429 0.84118 0.0
C1156 C 0.51056 0.82942 0.9506 0.0
C1157 C 0.50323 0.80692 0.91997 0.0
C1158 C 0.52536 0.81506 0.77765 0.0
C1159 C 0.5366 0.83555 0.81503 0.0
N1160 N 0.53918 0.86118 0.94372 0.0
N1161 N 0.5029 0.77911 0.79988 0.0
C1162 C 0.52861 0.84266 0.90275 0.0
C1163 C 0.51027 0.80031 0.83167 0.0
N1164 N 0.49994 0.83838 0.0254 0.0
N1165 N 0.52864 0.80966 0.68872 0.0
H1166 H 0.49028 0.7691 0.83331 0.0
H1167 H 0.50972 0.77096 0.74297 0.0
H1168 H 0.53911 0.8193 0.6452 0.0
H1169 H 0.51908 0.797 0.65447 0.0
H1170 H 0.50251 0.85542 0.04804 0.0
H1171 H 0.48693 0.82916 0.05997 0.0
H1172 H 0.53638 0.86557 1.01105 0.0
H1173 H 0.55198 0.87124 0.91212 0.0
C1174 C 0.51857 0.17788 0.21502 0.0
C1175 C 0.53507 0.1617 0.17608 0.0
C1176 C 0.51537 0.17061 0.03001 0.0
C1177 C 0.50434 0.19114 0.06489 0.0
N1178 N 0.49067 0.21047 0.1973 0.0
N1179 N 0.54735 0.14237 0.04042 0.0
C1180 C 0.50434 0.19341 0.15989 0.0
C1181 C 0.53271 0.15783 0.08178 0.0
N1182 N 0.51646 0.17805 0.30601 0.0
N1183 N 0.50748 0.16197 0.95035 0.0
H1184 H 0.55948 0.13247 0.07661 0.0
H1185 H 0.54795 0.14027 0.97061 0.0
H1186 H 0.49413 0.17037 0.91471 0.0
H1187 H 0.5127 0.14578 0.92487 0.0
H1188 H 0.5053 0.18885 0.34263 0.0
H1189 H 0.52455 0.16503 0.34289 0.0
H1190 H 0.49005 0.21442 0.2657 0.0
H1191 H 0.4798 0.22104 0.15819 0.0
C1192 C 1.00128 0.8142 0.68177 0.0
C1193 C 0.00521 0.8102 0.58807 0.0
C1194 C 0.03997 0.83713 0.60046 0.0
C1195 C 0.03615 0.84084 0.69406 0.0
N1196 N 0.00662 0.84063 0.80933 0.0
N1197 N 0.02357 0.82589 0.45615 0.0
C1198 C 0.01478 0.83165 0.73027 0.0
C1199 C 0.02307 0.82433 0.54725 0.0
N1200 N 0.98501 0.80099 0.72575 0.0
N1201 N 0.06018 0.84514 0.5621 0.0
H1202 H 0.01082 0.8175 0.41872 0.0
H1203 H 0.03471 0.83696 0.42035 0.0
H1204 H 0.07236 0.85507 0.59774 0.0
H1205 H 0.06533 0.84098 0.4966 0.0
H1206 H 0.98295 0.80129 0.79563 0.0
H1207 H 0.97452 0.78891 0.69192 0.0
H1208 H 0.9903 0.83634 0.83633 0.0
H1209 H 0.01554 0.85398 0.84287 0.0
C1210 C 0.02323 0.17501 0.49245 0.0
C1211 C 0.00655 0.19036 0.45132 0.0
C1212 C 0.01679 0.17115 0.30516 0.0
C1213 C 0.03654 0.15946 0.34368 0.0
N1214 N 0.05865 0.1514 0.47719 0.0
N1215 N 0.98784 0.20268 0.31496 0.0
C1216 C 0.03946 0.16146 0.43862 0.0
C1217 C 0.00311 0.18792 0.35677 0.0
N1218 N 0.02364 0.17358 0.58437 0.0
N1219 N 0.0114 0.1664 0.21774 0.0
H1220 H 0.97736 0.21437 0.35099 0.0
H1221 H 0.9864 0.20413 0.24522 0.0
H1222 H 0.02081 0.15397 0.18116 0.0
H1223 H 0.99655 0.17275 0.18551 0.0
H1224 H 0.03392 0.16168 0.61976 0.0
H1225 H 0.0118 0.1828 0.62472 0.0
H1226 H 0.06388 0.15467 0.54321 0.0
H1227 H 0.07003 0.14062 0.44082 0.0
C1228 C 0.6743 0.1769 0.05519 0.0
C1229 C 0.68826 0.19429 0.09906 0.0
C1230 C 0.67237 0.1788 0.24515 0.0
C1231 C 0.6553 0.16459 0.20064 0.0
N1232 N 0.63976 0.15154 0.0591 0.0
N1233 N 0.69954 0.21175 0.23929 0.0
C1234 C 0.65652 0.16374 0.1044 0.0
C1235 C 0.68713 0.19489 0.19519 0.0
N1236 N 0.67784 0.17317 0.96537 0.0
N1237 N 0.67455 0.17681 0.33657 0.0
H1238 H 0.7114 0.22265 0.2059 0.0
H1239 H 0.69729 0.21563 0.30739 0.0
H1240 H 0.66456 0.16503 0.37429 0.0
H1241 H 0.68771 0.18493 0.3735 0.0
H1242 H 0.66968 0.15993 0.92902 0.0
H1243 H 0.69099 0.18188 0.9298 0.0
H1244 H 0.63752 0.15246 0.98953 0.0
H1245 H 0.62715 0.14152 0.09236 0.0
C1246 C 0.67317 0.82813 0.80701 0.0
C1247 C 0.65614 0.8436 0.846 0.0
C1248 C 0.67413 0.83324 0.99369 0.0
C1249 C 0.68617 0.81349 0.95677 0.0
N1250 N 0.69888 0.79401 0.82249 0.0
N1251 N 0.64141 0.8606 0.98267 0.0
C1252 C 0.68644 0.81174 0.86138 0.0
C1253 C 0.65716 0.84627 0.94124 0.0
N1254 N 0.6768 0.82946 0.71672 0.0
N1255 N 0.67999 0.84038 0.07814 0.0
H1256 H 0.62953 0.87069 0.94605 0.0
H1257 H 0.6396 0.86151 0.05258 0.0
H1258 H 0.69283 0.83169 0.1154 0.0
H1259 H 0.67374 0.85583 0.10671 0.0
H1260 H 0.68953 0.81999 0.68214 0.0
H1261 H 0.6685 0.84241 0.67965 0.0
H1262 H 0.69835 0.79005 0.75401 0.0
H1263 H 0.7092 0.78261 0.8603 0.0
C1264 C 0.66895 0.6856 0.78473 0.0
C1265 C 0.65525 0.66703 0.82279 0.0
C1266 C 0.67826 0.6742 0.96353 0.0
C1267 C 0.68635 0.6965 0.93223 0.0
N1268 N 0.68895 0.72272 0.80614 0.0
N1269 N 0.64817 0.64377 0.95495 0.0
C1270 C 0.68172 0.70176 0.84045 0.0
C1271 C 0.66056 0.66112 0.9139 0.0
N1272 N 0.67028 0.68741 0.69353 0.0
N1273 N 0.68814 0.66507 0.03908 0.0
H1274 H 0.6357 0.63395 0.92032 0.0
H1275 H 0.64949 0.64019 0.02369 0.0
H1276 H 0.70116 0.67407 0.07415 0.0
H1277 H 0.68463 0.6482 0.06202 0.0
H1278 H 0.68154 0.69889 0.66018 0.0
H1279 H 0.66153 0.67563 0.65224 0.0
H1280 H 0.68358 0.72896 0.74345 0.0
H1281 H 0.69936 0.73429 0.84281 0.0
C1282 C 0.65103 0.34033 0.09855 0.0
C1283 C 0.65518 0.34434 0.1913 0.0
C1284 C 0.69114 0.31913 0.17706 0.0
C1285 C 0.68651 0.31445 0.08454 0.0
N1286 N 0.66572 0.32764 0.95342 0.0
N1287 N 0.68432 0.3446 0.30719 0.0
C1288 C 0.66778 0.32766 0.04465 0.0
C1289 C 0.67693 0.33595 0.22668 0.0
N1290 N 0.63031 0.34756 0.06224 0.0
N1291 N 0.70827 0.30674 0.21921 0.0
H1292 H 0.67455 0.3571 0.34236 0.0
H1293 H 0.7007 0.34089 0.3344 0.0
H1294 H 0.719 0.29505 0.18416 0.0
H1295 H 0.71093 0.30729 0.28867 0.0
H1296 H 0.62445 0.34232 0.99893 0.0
H1297 H 0.61835 0.35781 0.09809 0.0
H1298 H 0.6543 0.33846 0.91806 0.0
H1299 H 0.67686 0.31765 0.91355 0.0
C1300 C 0.01702 0.32722 0.28352 0.0
C1301 C 0.03372 0.34164 0.32865 0.0
C1302 C 0.01544 0.32789 0.47293 0.0
C1303 C 1.00232 0.31001 0.42848 0.0
N1304 N 0.99208 0.29253 0.28695 0.0
N1305 N 0.0492 0.35418 0.47067 0.0
C1306 C 0.00337 0.30991 0.33228 0.0
C1307 C 0.03276 0.34172 0.42473 0.0
N1308 N 0.01427 0.33006 0.19287 0.0
N1309 N 0.01142 0.33158 0.56229 0.0
H1310 H 0.06122 0.36501 0.43774 0.0
H1311 H 0.05163 0.3528 0.54007 0.0
H1312 H 0.99817 0.32264 0.59615 0.0
H1313 H 0.01908 0.34508 0.59893 0.0
H1314 H 1.0014 0.32156 0.15562 0.0
H1315 H 0.02347 0.34284 0.15714 0.0
H1316 H 0.9944 0.28939 0.2183 0.0
H1317 H 0.98123 0.28051 0.31978 0.0
C1318 C 0.02643 0.65821 0.61529 0.0
C1319 C 0.03414 0.66585 0.70167 0.0
C1320 C 0.00804 0.701 0.68246 0.0
C1321 C 1.0008 0.69375 0.59567 0.0
N1322 N 0.99711 0.66115 0.49561 0.0
N1323 N 0.0247 0.69097 0.82643 0.0
C1324 C 0.00815 0.67092 0.56749 0.0
C1325 C 0.02241 0.68609 0.73751 0.0
N1326 N 0.0372 0.63944 0.57665 0.0
N1327 N 1.00227 0.72297 0.71112 0.0
H1328 H 0.03482 0.68042 0.86727 0.0
H1329 H 0.01512 0.70379 0.86019 0.0
H1330 H 0.99077 0.73372 0.67551 0.0
H1331 H 0.00981 0.7309 0.76723 0.0
H1332 H 0.03437 0.63439 0.51008 0.0
H1333 H 0.04992 0.62978 0.61066 0.0
H1334 H 0.99993 0.644 0.4746 0.0
H1335 H 0.9836 0.66993 0.46238 0.0
C1336 C 0.52286 0.3205 0.23176 0.0
C1337 C 0.53649 0.33965 0.19613 0.0
C1338 C 0.51528 0.33171 0.05106 0.0
C1339 C 0.50645 0.30962 0.082 0.0
N1340 N 0.4998 0.28529 0.21125 0.0
N1341 N 0.54479 0.3626 0.06432 0.0
C1342 C 0.50958 0.30495 0.17508 0.0
C1343 C 0.53212 0.34519 0.10378 0.0
N1344 N 0.52236 0.31632 0.32172 0.0
N1345 N 0.50641 0.34058 0.97318 0.0
H1346 H 0.55657 0.3728 0.10086 0.0
H1347 H 0.54446 0.36588 0.99517 0.0
H1348 H 0.49364 0.33158 0.93671 0.0
H1349 H 0.51022 0.35735 0.94983 0.0
H1350 H 0.53069 0.32701 0.36848 0.0
H1351 H 0.53069 0.32701 0.36848 0.0
H1352 H 0.50203 0.28058 0.27873 0.0
H1353 H 0.48952 0.27389 0.17327 0.0
C1354 C 0.52235 0.67679 0.98487 0.0
C1355 C 0.50401 0.69059 0.94566 0.0
C1356 C 0.51417 0.67007 0.8023 0.0
C1357 C 0.53617 0.66211 0.837 0.0
N1358 N 0.56065 0.65871 0.96741 0.0
N1359 N 0.48297 0.69937 0.81011 0.0
C1360 C 0.53987 0.66545 0.93041 0.0
C1361 C 0.49985 0.68669 0.85234 0.0
N1362 N 0.52312 0.67478 0.07597 0.0
N1363 N 0.50639 0.66087 0.72336 0.0
H1364 H 0.47221 0.71099 0.84539 0.0
H1365 H 0.48064 0.69904 0.7404 0.0
H1366 H 0.51609 0.64825 0.68853 0.0
H1367 H 0.48981 0.66437 0.69748 0.0
H1368 H 0.53431 0.66335 0.1097 0.0
H1369 H 0.51133 0.68389 0.11621 0.0
H1370 H 0.56569 0.66339 0.03247 0.0
H1371 H 0.57333 0.64955 0.93086 0.0
C1372 C 0.17064 0.67499 0.54176 0.0
C1373 C 0.18391 0.69367 0.58111 0.0
C1374 C 0.1719 0.67729 0.73084 0.0
C1375 C 0.15497 0.6619 0.69152 0.0
N1376 N 0.13866 0.64659 0.5554 0.0
N1377 N 0.19564 0.71269 0.7177 0.0
C1378 C 0.15483 0.66064 0.59561 0.0
C1379 C 0.18434 0.69453 0.67712 0.0
N1380 N 0.17306 0.67111 0.45157 0.0
N1381 N 0.17611 0.67531 0.82099 0.0
H1382 H 0.20542 0.72487 0.68105 0.0
H1383 H 0.19418 0.71635 0.78632 0.0
H1384 H 0.16764 0.66278 0.86067 0.0
H1385 H 0.18933 0.68443 0.85404 0.0
H1386 H 0.16551 0.65706 0.41788 0.0
H1387 H 0.18472 0.68087 0.41266 0.0
H1388 H 0.13532 0.64669 0.48642 0.0
H1389 H 0.12776 0.63556 0.59277 0.0
C1390 C 0.14958 0.31356 0.35669 0.0
C1391 C 0.14957 0.33845 0.34895 0.0
C1392 C 0.18473 0.33555 0.45091 0.0
C1393 C 0.18587 0.31045 0.44129 0.0
N1394 N 0.17346 0.27878 0.34755 0.0
N1395 N 0.17089 0.37323 0.38934 0.0
C1396 C 0.17022 0.30096 0.3785 0.0
C1397 C 0.16847 0.34963 0.3958 0.0
N1398 N 0.12905 0.30168 0.35663 0.0
N1399 N 0.19888 0.34587 0.51279 0.0
H1400 H 0.15915 0.38341 0.35256 0.0
H1401 H 0.18512 0.38222 0.41606 0.0
H1402 H 0.21122 0.33618 0.54877 0.0
H1403 H 0.19764 0.36349 0.52998 0.0
H1404 H 0.12893 0.28367 0.36229 0.0
H1405 H 0.11277 0.30989 0.36182 0.0
H1406 H 0.16226 0.27128 0.30025 0.0
H1407 H 0.18821 0.26896 0.36476 0.0
loop_
_geom_bond_atom_site_label_1
_geom_bond_atom_site_label_2
_geom_bond_distance
_geom_bond_site_symmetry_2
_ccdc_geom_bond_type
C0 O16 1.251 . S
C0 O18 1.254 . S
N1 C2 1.333 . S
N1 C6 1.307 . S
N1 Zn7 2.020 . S
C2 N1 1.333 . S
C2 C3 1.379 . S
C2 H20 0.952 . S
C3 C2 1.379 . S
C3 C4 1.390 . S
C3 H30 0.949 . S
C4 C3 1.390 . S
C4 C5 1.357 . S
C5 C4 1.357 . S
C5 C6 1.370 . S
C5 H31 0.950 . S
C6 N1 1.307 . S
C6 C5 1.370 . S
C6 H24 0.948 . S
Zn7 N1 2.020 . S
Zn7 O16 2.039 . S
Zn7 O22 2.034 . S
Zn7 O26 2.025 . S
Zn7 O28 2.024 . S
C8 O27 1.246 . S
C8 O28 1.249 . S
N9 C10 1.307 . S
N9 C11 1.333 . S
N9 Zn15 2.020 . S
C10 N9 1.307 . S
C10 C14 1.370 . S
C10 H21 0.948 . S
C11 N9 1.333 . S
C11 C12 1.379 . S
C11 H19 0.952 . S
C12 C11 1.379 . S
C12 C13 1.390 . S
C12 H32 0.949 . S
C13 C12 1.390 . S
C13 C14 1.357 . S
C14 C10 1.370 . S
C14 C13 1.357 . S
C14 H33 0.950 . S
Zn15 N9 2.020 . S
Zn15 O18 2.025 . S
Zn15 O23 2.024 . S
Zn15 O25 2.039 . S
Zn15 O27 2.034 . S
O16 C0 1.251 . S
O16 Zn7 2.039 . S
C17 O22 1.246 . S
C17 O23 1.249 . S
O18 C0 1.254 . S
O18 Zn15 2.025 . S
H19 C11 0.952 . S
H20 C2 0.952 . S
H21 C10 0.948 . S
O22 Zn7 2.034 . S
O22 C17 1.246 . S
O23 Zn15 2.024 . S
O23 C17 1.249 . S
H24 C6 0.948 . S
O25 Zn15 2.039 . S
O25 C29 1.251 . S
O26 Zn7 2.025 . S
O26 C29 1.254 . S
O27 C8 1.246 . S
O27 Zn15 2.034 . S
O28 Zn7 2.024 . S
O28 C8 1.249 . S
C29 O25 1.251 . S
C29 O26 1.254 . S
H30 C3 0.949 . S
H31 C5 0.950 . S
H32 C12 0.949 . S
H33 C14 0.950 . S
C34 O50 1.251 . S
C34 O52 1.254 . S
N35 C36 1.333 . S
N35 C40 1.307 . S
N35 Zn41 2.020 . S
C36 N35 1.333 . S
C36 C37 1.379 . S
C36 H54 0.952 . S
C37 C36 1.379 . S
C37 C38 1.390 . S
C37 H64 0.949 . S
C38 C37 1.390 . S
C38 C39 1.357 . S
C39 C38 1.357 . S
C39 C40 1.370 . S
C39 H65 0.950 . S
C40 N35 1.307 . S
C40 C39 1.370 . S
C40 H58 0.948 . S
Zn41 N35 2.020 . S
Zn41 O50 2.039 . S
Zn41 O56 2.034 . S
Zn41 O60 2.025 . S
Zn41 O62 2.024 . S
C42 O61 1.246 . S
C42 O62 1.249 . S
N43 C44 1.307 . S
N43 C45 1.333 . S
N43 Zn49 2.020 . S
C44 N43 1.307 . S
C44 C48 1.370 . S
C44 H55 0.948 . S
C45 N43 1.333 . S
C45 C46 1.379 . S
C45 H53 0.952 . S
C46 C45 1.379 . S
C46 C47 1.390 . S
C46 H66 0.949 . S
C47 C46 1.390 . S
C47 C48 1.357 . S
C48 C44 1.370 . S
C48 C47 1.357 . S
C48 H67 0.950 . S
Zn49 N43 2.020 . S
Zn49 O52 2.025 . S
Zn49 O57 2.024 . S
Zn49 O59 2.039 . S
Zn49 O61 2.034 . S
O50 C34 1.251 . S
O50 Zn41 2.039 . S
C51 O56 1.246 . S
C51 O57 1.249 . S
O52 C34 1.254 . S
O52 Zn49 2.025 . S
H53 C45 0.952 . S
H54 C36 0.952 . S
H55 C44 0.948 . S
O56 Zn41 2.034 . S
O56 C51 1.246 . S
O57 Zn49 2.024 . S
O57 C51 1.249 . S
H58 C40 0.948 . S
O59 Zn49 2.039 . S
O59 C63 1.251 . S
O60 Zn41 2.025 . S
O60 C63 1.254 . S
O61 C42 1.246 . S
O61 Zn49 2.034 . S
O62 Zn41 2.024 . S
O62 C42 1.249 . S
C63 O59 1.251 . S
C63 O60 1.254 . S
H64 C37 0.949 . S
H65 C39 0.950 . S
H66 C46 0.949 . S
H67 C48 0.950 . S
C68 O84 1.251 . S
C68 O86 1.254 . S
N69 C70 1.333 . S
N69 C74 1.307 . S
N69 Zn75 2.020 . S
C70 N69 1.333 . S
C70 C71 1.379 . S
C70 H88 0.952 . S
C71 C70 1.379 . S
C71 C72 1.390 . S
C71 H98 0.949 . S
C72 C71 1.390 . S
C72 C73 1.357 . S
C73 C72 1.357 . S
C73 C74 1.370 . S
C73 H99 0.950 . S
C74 N69 1.307 . S
C74 C73 1.370 . S
C74 H92 0.948 . S
Zn75 N69 2.020 . S
Zn75 O84 2.039 . S
Zn75 O90 2.034 . S
Zn75 O94 2.025 . S
Zn75 O96 2.024 . S
C76 O95 1.246 . S
C76 O96 1.249 . S
N77 C78 1.307 . S
N77 C79 1.333 . S
N77 Zn83 2.020 . S
C78 N77 1.307 . S
C78 C82 1.370 . S
C78 H89 0.948 . S
C79 N77 1.333 . S
C79 C80 1.379 . S
C79 H87 0.952 . S
C80 C79 1.379 . S
C80 C81 1.390 . S
C80 H100 0.949 . S
C81 C80 1.390 . S
C81 C82 1.357 . S
C82 C78 1.370 . S
C82 C81 1.357 . S
C82 H101 0.950 . S
Zn83 N77 2.020 . S
Zn83 O86 2.025 . S
Zn83 O91 2.024 . S
Zn83 O93 2.039 . S
Zn83 O95 2.034 . S
O84 C68 1.251 . S
O84 Zn75 2.039 . S
C85 O90 1.246 . S
C85 O91 1.249 . S
O86 C68 1.254 . S
O86 Zn83 2.025 . S
H87 C79 0.952 . S
H88 C70 0.952 . S
H89 C78 0.948 . S
O90 Zn75 2.034 . S
O90 C85 1.246 . S
O91 Zn83 2.024 . S
O91 C85 1.249 . S
H92 C74 0.948 . S
O93 Zn83 2.039 . S
O93 C97 1.251 . S
O94 Zn75 2.025 . S
O94 C97 1.254 . S
O95 C76 1.246 . S
O95 Zn83 2.034 . S
O96 Zn75 2.024 . S
O96 C76 1.249 . S
C97 O93 1.251 . S
C97 O94 1.254 . S
H98 C71 0.949 . S
H99 C73 0.950 . S
H100 C80 0.949 . S
H101 C82 0.950 . S
C102 O118 1.251 . S
C102 O120 1.254 . S
N103 C104 1.333 . S
N103 C108 1.307 . S
N103 Zn109 2.020 . S
C104 N103 1.333 . S
C104 C105 1.379 . S
C104 H122 0.952 . S
C105 C104 1.379 . S
C105 C106 1.390 . S
C105 H132 0.949 . S
C106 C105 1.390 . S
C106 C107 1.357 . S
C107 C106 1.357 . S
C107 C108 1.370 . S
C107 H133 0.950 . S
C108 N103 1.307 . S
C108 C107 1.370 . S
C108 H126 0.948 . S
Zn109 N103 2.020 . S
Zn109 O118 2.039 . S
Zn109 O124 2.034 . S
Zn109 O128 2.025 . S
Zn109 O130 2.024 . S
C110 O129 1.246 . S
C110 O130 1.249 . S
N111 C112 1.307 . S
N111 C113 1.333 . S
N111 Zn117 2.020 . S
C112 N111 1.307 . S
C112 C116 1.370 . S
C112 H123 0.948 . S
C113 N111 1.333 . S
C113 C114 1.379 . S
C113 H121 0.952 . S
C114 C113 1.379 . S
C114 C115 1.390 . S
C114 H134 0.949 . S
C115 C114 1.390 . S
C115 C116 1.357 . S
C116 C112 1.370 . S
C116 C115 1.357 . S
C116 H135 0.950 . S
Zn117 N111 2.020 . S
Zn117 O120 2.025 . S
Zn117 O125 2.024 . S
Zn117 O127 2.039 . S
Zn117 O129 2.034 . S
O118 C102 1.251 . S
O118 Zn109 2.039 . S
C119 O124 1.246 1_554 S
C119 O125 1.249 1_554 S
O120 C102 1.254 . S
O120 Zn117 2.025 . S
H121 C113 0.952 . S
H122 C104 0.952 . S
H123 C112 0.948 . S
O124 Zn109 2.034 . S
O124 C119 1.246 1_556 S
O125 Zn117 2.024 . S
O125 C119 1.249 1_556 S
H126 C108 0.948 . S
O127 Zn117 2.039 . S
O127 C131 1.251 1_556 S
O128 Zn109 2.025 . S
O128 C131 1.254 1_556 S
O129 C110 1.246 . S
O129 Zn117 2.034 . S
O130 Zn109 2.024 . S
O130 C110 1.249 . S
C131 O127 1.251 1_554 S
C131 O128 1.254 1_554 S
H132 C105 0.949 . S
H133 C107 0.950 . S
H134 C114 0.949 . S
H135 C116 0.950 . S
C136 O152 1.251 . S
C136 O154 1.254 . S
N137 C138 1.333 . S
N137 C142 1.307 . S
N137 Zn143 2.020 . S
C138 N137 1.333 . S
C138 C139 1.379 . S
C138 H156 0.952 . S
C139 C138 1.379 . S
C139 C140 1.390 . S
C139 H166 0.949 . S
C140 C139 1.390 . S
C140 C141 1.357 . S
C141 C140 1.357 . S
C141 C142 1.370 . S
C141 H167 0.950 . S
C142 N137 1.307 . S
C142 C141 1.370 . S
C142 H160 0.948 . S
Zn143 N137 2.020 . S
Zn143 O152 2.039 . S
Zn143 O158 2.034 . S
Zn143 O162 2.025 . S
Zn143 O164 2.024 . S
C144 O163 1.246 . S
C144 O164 1.249 . S
N145 C146 1.307 . S
N145 C147 1.333 . S
N145 Zn151 2.020 . S
C146 N145 1.307 . S
C146 C150 1.370 . S
C146 H157 0.948 . S
C147 N145 1.333 . S
C147 C148 1.379 . S
C147 H155 0.952 . S
C148 C147 1.379 . S
C148 C149 1.390 . S
C148 H168 0.949 . S
C149 C148 1.390 . S
C149 C150 1.357 . S
C150 C146 1.370 . S
C150 C149 1.357 . S
C150 H169 0.950 . S
Zn151 N145 2.020 . S
Zn151 O154 2.025 . S
Zn151 O159 2.024 . S
Zn151 O161 2.039 . S
Zn151 O163 2.034 . S
O152 C136 1.251 . S
O152 Zn143 2.039 . S
C153 O158 1.246 . S
C153 O159 1.249 . S
O154 C136 1.254 . S
O154 Zn151 2.025 . S
H155 C147 0.952 . S
H156 C138 0.952 . S
H157 C146 0.948 . S
O158 Zn143 2.034 . S
O158 C153 1.246 . S
O159 Zn151 2.024 . S
O159 C153 1.249 . S
H160 C142 0.948 . S
O161 Zn151 2.039 . S
O161 C165 1.251 . S
O162 Zn143 2.025 . S
O162 C165 1.254 . S
O163 C144 1.246 . S
O163 Zn151 2.034 . S
O164 Zn143 2.024 . S
O164 C144 1.249 . S
C165 O161 1.251 . S
C165 O162 1.254 . S
H166 C139 0.949 . S
H167 C141 0.950 . S
H168 C148 0.949 . S
H169 C150 0.950 . S
C170 O186 1.251 1_556 S
C170 O188 1.254 1_556 S
N171 C172 1.333 . S
N171 C176 1.307 . S
N171 Zn177 2.020 . S
C172 N171 1.333 . S
C172 C173 1.379 . S
C172 H190 0.952 . S
C173 C172 1.379 . S
C173 C174 1.390 . S
C173 H200 0.949 . S
C174 C173 1.390 . S
C174 C175 1.357 . S
C175 C174 1.357 . S
C175 C176 1.370 . S
C175 H201 0.950 . S
C176 N171 1.307 . S
C176 C175 1.370 . S
C176 H194 0.948 . S
Zn177 N171 2.020 . S
Zn177 O186 2.039 . S
Zn177 O192 2.034 . S
Zn177 O196 2.025 . S
Zn177 O198 2.024 . S
C178 O197 1.246 1_556 S
C178 O198 1.249 1_556 S
N179 C180 1.307 . S
N179 C181 1.333 . S
N179 Zn185 2.020 . S
C180 N179 1.307 . S
C180 C184 1.370 . S
C180 H191 0.948 . S
C181 N179 1.333 . S
C181 C182 1.379 . S
C181 H189 0.952 . S
C182 C181 1.379 . S
C182 C183 1.390 . S
C182 H202 0.949 . S
C183 C182 1.390 . S
C183 C184 1.357 . S
C184 C180 1.370 . S
C184 C183 1.357 . S
C184 H203 0.950 . S
Zn185 N179 2.020 . S
Zn185 O188 2.025 . S
Zn185 O193 2.024 . S
Zn185 O195 2.039 . S
Zn185 O197 2.034 . S
O186 C170 1.251 1_554 S
O186 Zn177 2.039 . S
C187 O192 1.246 . S
C187 O193 1.249 . S
O188 C170 1.254 1_554 S
O188 Zn185 2.025 . S
H189 C181 0.952 . S
H190 C172 0.952 . S
H191 C180 0.948 . S
O192 Zn177 2.034 . S
O192 C187 1.246 . S
O193 Zn185 2.024 . S
O193 C187 1.249 . S
H194 C176 0.948 . S
O195 Zn185 2.039 . S
O195 C199 1.251 . S
O196 Zn177 2.025 . S
O196 C199 1.254 . S
O197 C178 1.246 1_554 S
O197 Zn185 2.034 . S
O198 Zn177 2.024 . S
O198 C178 1.249 1_554 S
C199 O195 1.251 . S
C199 O196 1.254 . S
H200 C173 0.949 . S
H201 C175 0.950 . S
H202 C182 0.949 . S
H203 C184 0.950 . S
C204 O220 1.251 . S
C204 O222 1.254 . S
N205 C206 1.333 . S
N205 C210 1.307 . S
N205 Zn211 2.020 . S
C206 N205 1.333 . S
C206 C207 1.379 . S
C206 H224 0.952 . S
C207 C206 1.379 . S
C207 C208 1.390 . S
C207 H234 0.949 . S
C208 C207 1.390 . S
C208 C209 1.357 . S
C209 C208 1.357 . S
C209 C210 1.370 . S
C209 H235 0.950 . S
C210 N205 1.307 . S
C210 C209 1.370 . S
C210 H228 0.948 . S
Zn211 N205 2.020 . S
Zn211 O220 2.039 . S
Zn211 O226 2.034 . S
Zn211 O230 2.025 . S
Zn211 O232 2.024 . S
C212 O231 1.246 . S
C212 O232 1.249 . S
N213 C214 1.307 . S
N213 C215 1.333 . S
N213 Zn219 2.020 . S
C214 N213 1.307 . S
C214 C218 1.370 . S
C214 H225 0.948 . S
C215 N213 1.333 . S
C215 C216 1.379 . S
C215 H223 0.952 . S
C216 C215 1.379 . S
C216 C217 1.390 . S
C216 H236 0.949 . S
C217 C216 1.390 . S
C217 C218 1.357 . S
C218 C214 1.370 . S
C218 C217 1.357 . S
C218 H237 0.950 . S
Zn219 N213 2.020 . S
Zn219 O222 2.025 . S
Zn219 O227 2.024 . S
Zn219 O229 2.039 . S
Zn219 O231 2.034 . S
O220 C204 1.251 . S
O220 Zn211 2.039 . S
C221 O226 1.246 . S
C221 O227 1.249 . S
O222 C204 1.254 . S
O222 Zn219 2.025 . S
H223 C215 0.952 . S
H224 C206 0.952 . S
H225 C214 0.948 . S
O226 Zn211 2.034 . S
O226 C221 1.246 . S
O227 Zn219 2.024 . S
O227 C221 1.249 . S
H228 C210 0.948 . S
O229 Zn219 2.039 . S
O229 C233 1.251 . S
O230 Zn211 2.025 . S
O230 C233 1.254 . S
O231 C212 1.246 . S
O231 Zn219 2.034 . S
O232 Zn211 2.024 . S
O232 C212 1.249 . S
C233 O229 1.251 . S
C233 O230 1.254 . S
H234 C207 0.949 . S
H235 C209 0.950 . S
H236 C216 0.949 . S
H237 C218 0.950 . S
C238 O254 1.251 . S
C238 O256 1.254 . S
N239 C240 1.333 . S
N239 C244 1.307 . S
N239 Zn245 2.020 . S
C240 N239 1.333 . S
C240 C241 1.379 . S
C240 H258 0.952 . S
C241 C240 1.379 . S
C241 C242 1.390 . S
C241 H268 0.949 . S
C242 C241 1.390 . S
C242 C243 1.357 . S
C243 C242 1.357 . S
C243 C244 1.370 . S
C243 H269 0.950 . S
C244 N239 1.307 . S
C244 C243 1.370 . S
C244 H262 0.948 . S
Zn245 N239 2.020 . S
Zn245 O254 2.039 . S
Zn245 O260 2.034 . S
Zn245 O264 2.025 . S
Zn245 O266 2.024 . S
C246 O265 1.246 . S
C246 O266 1.249 . S
N247 C248 1.307 . S
N247 C249 1.333 . S
N247 Zn253 2.020 . S
C248 N247 1.307 . S
C248 C252 1.370 . S
C248 H259 0.948 . S
C249 N247 1.333 . S
C249 C250 1.379 . S
C249 H257 0.952 . S
C250 C249 1.379 . S
C250 C251 1.390 . S
C250 H270 0.949 . S
C251 C250 1.390 . S
C251 C252 1.357 . S
C252 C248 1.370 . S
C252 C251 1.357 . S
C252 H271 0.950 . S
Zn253 N247 2.020 . S
Zn253 O256 2.025 . S
Zn253 O261 2.024 . S
Zn253 O263 2.039 . S
Zn253 O265 2.034 . S
O254 C238 1.251 . S
O254 Zn245 2.039 . S
C255 O260 1.246 . S
C255 O261 1.249 . S
O256 C238 1.254 . S
O256 Zn253 2.025 . S
H257 C249 0.952 . S
H258 C240 0.952 . S
H259 C248 0.948 . S
O260 Zn245 2.034 . S
O260 C255 1.246 . S
O261 Zn253 2.024 . S
O261 C255 1.249 . S
H262 C244 0.948 . S
O263 Zn253 2.039 . S
O263 C267 1.251 . S
O264 Zn245 2.025 . S
O264 C267 1.254 . S
O265 C246 1.246 . S
O265 Zn253 2.034 . S
O266 Zn245 2.024 . S
O266 C246 1.249 . S
C267 O263 1.251 . S
C267 O264 1.254 . S
H268 C241 0.949 . S
H269 C243 0.950 . S
H270 C250 0.949 . S
H271 C252 0.950 . S
C272 O288 1.251 1_655 S
C272 O290 1.254 . S
N273 C274 1.333 . S
N273 C278 1.307 . S
N273 Zn279 2.020 . S
C274 N273 1.333 . S
C274 C275 1.379 . S
C274 H292 0.952 . S
C275 C274 1.379 . S
C275 C276 1.390 . S
C275 H302 0.949 . S
C276 C275 1.390 . S
C276 C277 1.357 . S
C277 C276 1.357 . S
C277 C278 1.370 . S
C277 H303 0.950 . S
C278 N273 1.307 . S
C278 C277 1.370 . S
C278 H296 0.948 . S
Zn279 N273 2.020 . S
Zn279 O288 2.039 . S
Zn279 O294 2.034 . S
Zn279 O298 2.025 . S
Zn279 O300 2.024 . S
C280 O299 1.246 . S
C280 O300 1.249 1_655 S
N281 C282 1.307 . S
N281 C283 1.333 . S
N281 Zn287 2.020 . S
C282 N281 1.307 . S
C282 C286 1.370 . S
C282 H293 0.948 . S
C283 N281 1.333 . S
C283 C284 1.379 . S
C283 H291 0.952 . S
C284 C283 1.379 . S
C284 C285 1.390 . S
C284 H304 0.949 . S
C285 C284 1.390 . S
C285 C286 1.357 . S
C286 C282 1.370 . S
C286 C285 1.357 . S
C286 H305 0.950 . S
Zn287 N281 2.020 . S
Zn287 O290 2.025 . S
Zn287 O295 2.024 . S
Zn287 O297 2.039 . S
Zn287 O299 2.034 . S
O288 C272 1.251 1_455 S
O288 Zn279 2.039 . S
C289 O294 1.246 1_655 S
C289 O295 1.249 . S
O290 C272 1.254 . S
O290 Zn287 2.025 . S
H291 C283 0.952 . S
H292 C274 0.952 . S
H293 C282 0.948 . S
O294 Zn279 2.034 . S
O294 C289 1.246 1_455 S
O295 Zn287 2.024 . S
O295 C289 1.249 . S
H296 C278 0.948 . S
O297 Zn287 2.039 . S
O297 C301 1.251 . S
O298 Zn279 2.025 . S
O298 C301 1.254 1_455 S
O299 C280 1.246 . S
O299 Zn287 2.034 . S
O300 Zn279 2.024 . S
O300 C280 1.249 1_455 S
C301 O297 1.251 . S
C301 O298 1.254 1_655 S
H302 C275 0.949 . S
H303 C277 0.950 . S
H304 C284 0.949 . S
H305 C286 0.950 . S
C306 O322 1.251 1_556 S
C306 O324 1.254 1_556 S
N307 C308 1.333 . S
N307 C312 1.307 . S
N307 Zn313 2.020 . S
C308 N307 1.333 . S
C308 C309 1.379 . S
C308 H326 0.952 . S
C309 C308 1.379 . S
C309 C310 1.390 . S
C309 H336 0.949 . S
C310 C309 1.390 . S
C310 C311 1.357 . S
C311 C310 1.357 . S
C311 C312 1.370 . S
C311 H337 0.950 . S
C312 N307 1.307 . S
C312 C311 1.370 . S
C312 H330 0.948 . S
Zn313 N307 2.020 . S
Zn313 O322 2.039 . S
Zn313 O328 2.034 . S
Zn313 O332 2.025 . S
Zn313 O334 2.024 . S
C314 O333 1.246 1_556 S
C314 O334 1.249 1_556 S
N315 C316 1.307 . S
N315 C317 1.333 . S
N315 Zn321 2.020 . S
C316 N315 1.307 . S
C316 C320 1.370 . S
C316 H327 0.948 . S
C317 N315 1.333 . S
C317 C318 1.379 . S
C317 H325 0.952 . S
C318 C317 1.379 . S
C318 C319 1.390 . S
C318 H338 0.949 . S
C319 C318 1.390 . S
C319 C320 1.357 . S
C320 C316 1.370 . S
C320 C319 1.357 . S
C320 H339 0.950 . S
Zn321 N315 2.020 . S
Zn321 O324 2.025 . S
Zn321 O329 2.024 . S
Zn321 O331 2.039 . S
Zn321 O333 2.034 . S
O322 C306 1.251 1_554 S
O322 Zn313 2.039 . S
C323 O328 1.246 . S
C323 O329 1.249 . S
O324 C306 1.254 1_554 S
O324 Zn321 2.025 . S
H325 C317 0.952 . S
H326 C308 0.952 . S
H327 C316 0.948 . S
O328 Zn313 2.034 . S
O328 C323 1.246 . S
O329 Zn321 2.024 . S
O329 C323 1.249 . S
H330 C312 0.948 . S
O331 Zn321 2.039 . S
O331 C335 1.251 . S
O332 Zn313 2.025 . S
O332 C335 1.254 . S
O333 C314 1.246 1_554 S
O333 Zn321 2.034 . S
O334 Zn313 2.024 . S
O334 C314 1.249 1_554 S
C335 O331 1.251 . S
C335 O332 1.254 . S
H336 C309 0.949 . S
H337 C311 0.950 . S
H338 C318 0.949 . S
H339 C320 0.950 . S
C340 O356 1.251 . S
C340 O358 1.254 . S
N341 C342 1.333 . S
N341 C346 1.307 . S
N341 Zn347 2.020 . S
C342 N341 1.333 . S
C342 C343 1.379 . S
C342 H360 0.952 . S
C343 C342 1.379 . S
C343 C344 1.390 . S
C343 H370 0.949 . S
C344 C343 1.390 . S
C344 C345 1.357 . S
C345 C344 1.357 . S
C345 C346 1.370 . S
C345 H371 0.950 . S
C346 N341 1.307 . S
C346 C345 1.370 . S
C346 H364 0.948 . S
Zn347 N341 2.020 . S
Zn347 O356 2.039 . S
Zn347 O362 2.034 . S
Zn347 O366 2.025 . S
Zn347 O368 2.024 . S
C348 O367 1.246 . S
C348 O368 1.249 . S
N349 C350 1.307 . S
N349 C351 1.333 . S
N349 Zn355 2.020 . S
C350 N349 1.307 . S
C350 C354 1.370 . S
C350 H361 0.948 . S
C351 N349 1.333 . S
C351 C352 1.379 . S
C351 H359 0.952 . S
C352 C351 1.379 . S
C352 C353 1.390 . S
C352 H372 0.949 . S
C353 C352 1.390 . S
C353 C354 1.357 . S
C354 C350 1.370 . S
C354 C353 1.357 . S
C354 H373 0.950 . S
Zn355 N349 2.020 . S
Zn355 O358 2.025 . S
Zn355 O363 2.024 . S
Zn355 O365 2.039 . S
Zn355 O367 2.034 . S
O356 C340 1.251 . S
O356 Zn347 2.039 . S
C357 O362 1.246 1_554 S
C357 O363 1.249 1_554 S
O358 C340 1.254 . S
O358 Zn355 2.025 . S
H359 C351 0.952 . S
H360 C342 0.952 . S
H361 C350 0.948 . S
O362 Zn347 2.034 . S
O362 C357 1.246 1_556 S
O363 Zn355 2.024 . S
O363 C357 1.249 1_556 S
H364 C346 0.948 . S
O365 Zn355 2.039 . S
O365 C369 1.251 1_556 S
O366 Zn347 2.025 . S
O366 C369 1.254 1_556 S
O367 C348 1.246 . S
O367 Zn355 2.034 . S
O368 Zn347 2.024 . S
O368 C348 1.249 . S
C369 O365 1.251 1_554 S
C369 O366 1.254 1_554 S
H370 C343 0.949 . S
H371 C345 0.950 . S
H372 C352 0.949 . S
H373 C354 0.950 . S
C374 O390 1.251 . S
C374 O392 1.254 1_655 S
N375 C376 1.333 . S
N375 C380 1.307 . S
N375 Zn381 2.020 . S
C376 N375 1.333 . S
C376 C377 1.379 . S
C376 H394 0.952 . S
C377 C376 1.379 . S
C377 C378 1.390 . S
C377 H404 0.949 . S
C378 C377 1.390 . S
C378 C379 1.357 . S
C379 C378 1.357 . S
C379 C380 1.370 . S
C379 H405 0.950 . S
C380 N375 1.307 . S
C380 C379 1.370 . S
C380 H398 0.948 . S
Zn381 N375 2.020 . S
Zn381 O390 2.039 . S
Zn381 O396 2.034 . S
Zn381 O400 2.025 . S
Zn381 O402 2.024 . S
C382 O401 1.246 1_655 S
C382 O402 1.249 . S
N383 C384 1.307 . S
N383 C385 1.333 . S
N383 Zn389 2.020 . S
C384 N383 1.307 . S
C384 C388 1.370 . S
C384 H395 0.948 . S
C385 N383 1.333 . S
C385 C386 1.379 . S
C385 H393 0.952 . S
C386 C385 1.379 . S
C386 C387 1.390 . S
C386 H406 0.949 . S
C387 C386 1.390 . S
C387 C388 1.357 . S
C388 C384 1.370 . S
C388 C387 1.357 . S
C388 H407 0.950 . S
Zn389 N383 2.020 . S
Zn389 O392 2.025 . S
Zn389 O397 2.024 . S
Zn389 O399 2.039 . S
Zn389 O401 2.034 . S
O390 C374 1.251 . S
O390 Zn381 2.039 . S
C391 O396 1.246 . S
C391 O397 1.249 1_655 S
O392 C374 1.254 1_455 S
O392 Zn389 2.025 . S
H393 C385 0.952 . S
H394 C376 0.952 . S
H395 C384 0.948 . S
O396 Zn381 2.034 . S
O396 C391 1.246 . S
O397 Zn389 2.024 . S
O397 C391 1.249 1_455 S
H398 C380 0.948 . S
O399 Zn389 2.039 . S
O399 C403 1.251 1_455 S
O400 Zn381 2.025 . S
O400 C403 1.254 . S
O401 C382 1.246 1_455 S
O401 Zn389 2.034 . S
O402 Zn381 2.024 . S
O402 C382 1.249 . S
C403 O399 1.251 1_655 S
C403 O400 1.254 . S
H404 C377 0.949 . S
H405 C379 0.950 . S
H406 C386 0.949 . S
H407 C388 0.950 . S
C408 O424 1.251 . S
C408 O426 1.254 . S
N409 C410 1.333 . S
N409 C414 1.307 . S
N409 Zn415 2.020 . S
C410 N409 1.333 . S
C410 C411 1.379 . S
C410 H428 0.952 . S
C411 C410 1.379 . S
C411 C412 1.390 . S
C411 H438 0.949 . S
C412 C411 1.390 . S
C412 C413 1.357 . S
C413 C412 1.357 . S
C413 C414 1.370 . S
C413 H439 0.950 . S
C414 N409 1.307 . S
C414 C413 1.370 . S
C414 H432 0.948 . S
Zn415 N409 2.020 . S
Zn415 O424 2.039 . S
Zn415 O430 2.034 . S
Zn415 O434 2.025 . S
Zn415 O436 2.024 . S
C416 O435 1.246 . S
C416 O436 1.249 . S
N417 C418 1.307 . S
N417 C419 1.333 . S
N417 Zn423 2.020 . S
C418 N417 1.307 . S
C418 C422 1.370 . S
C418 H429 0.948 . S
C419 N417 1.333 . S
C419 C420 1.379 . S
C419 H427 0.952 . S
C420 C419 1.379 . S
C420 C421 1.390 . S
C420 H440 0.949 . S
C421 C420 1.390 . S
C421 C422 1.357 . S
C422 C418 1.370 . S
C422 C421 1.357 . S
C422 H441 0.950 . S
Zn423 N417 2.020 . S
Zn423 O426 2.025 . S
Zn423 O431 2.024 . S
Zn423 O433 2.039 . S
Zn423 O435 2.034 . S
O424 C408 1.251 . S
O424 Zn415 2.039 . S
C425 O430 1.246 . S
C425 O431 1.249 . S
O426 C408 1.254 . S
O426 Zn423 2.025 . S
H427 C419 0.952 . S
H428 C410 0.952 . S
H429 C418 0.948 . S
O430 Zn415 2.034 . S
O430 C425 1.246 . S
O431 Zn423 2.024 . S
O431 C425 1.249 . S
H432 C414 0.948 . S
O433 Zn423 2.039 . S
O433 C437 1.251 . S
O434 Zn415 2.025 . S
O434 C437 1.254 . S
O435 C416 1.246 . S
O435 Zn423 2.034 . S
O436 Zn415 2.024 . S
O436 C416 1.249 . S
C437 O433 1.251 . S
C437 O434 1.254 . S
H438 C411 0.949 . S
H439 C413 0.950 . S
H440 C420 0.949 . S
H441 C422 0.950 . S
C442 O458 1.251 . S
C442 O460 1.254 . S
N443 C444 1.333 . S
N443 C448 1.307 . S
N443 Zn449 2.020 . S
C444 N443 1.333 . S
C444 C445 1.379 . S
C444 H462 0.952 . S
C445 C444 1.379 . S
C445 C446 1.390 . S
C445 H472 0.949 . S
C446 C445 1.390 . S
C446 C447 1.357 . S
C447 C446 1.357 . S
C447 C448 1.370 . S
C447 H473 0.950 . S
C448 N443 1.307 . S
C448 C447 1.370 . S
C448 H466 0.948 . S
Zn449 N443 2.020 . S
Zn449 O458 2.039 . S
Zn449 O464 2.034 . S
Zn449 O468 2.025 . S
Zn449 O470 2.024 . S
C450 O469 1.246 . S
C450 O470 1.249 . S
N451 C452 1.307 . S
N451 C453 1.333 . S
N451 Zn457 2.020 . S
C452 N451 1.307 . S
C452 C456 1.370 . S
C452 H463 0.948 . S
C453 N451 1.333 . S
C453 C454 1.379 . S
C453 H461 0.952 . S
C454 C453 1.379 . S
C454 C455 1.390 . S
C454 H474 0.949 . S
C455 C454 1.390 . S
C455 C456 1.357 . S
C456 C452 1.370 . S
C456 C455 1.357 . S
C456 H475 0.950 . S
Zn457 N451 2.020 . S
Zn457 O460 2.025 . S
Zn457 O465 2.024 . S
Zn457 O467 2.039 . S
Zn457 O469 2.034 . S
O458 C442 1.251 . S
O458 Zn449 2.039 . S
C459 O464 1.246 . S
C459 O465 1.249 . S
O460 C442 1.254 . S
O460 Zn457 2.025 . S
H461 C453 0.952 . S
H462 C444 0.952 . S
H463 C452 0.948 . S
O464 Zn449 2.034 . S
O464 C459 1.246 . S
O465 Zn457 2.024 . S
O465 C459 1.249 . S
H466 C448 0.948 . S
O467 Zn457 2.039 . S
O467 C471 1.251 . S
O468 Zn449 2.025 . S
O468 C471 1.254 . S
O469 C450 1.246 . S
O469 Zn457 2.034 . S
O470 Zn449 2.024 . S
O470 C450 1.249 . S
C471 O467 1.251 . S
C471 O468 1.254 . S
H472 C445 0.949 . S
H473 C447 0.950 . S
H474 C454 0.949 . S
H475 C456 0.950 . S
C476 O492 1.251 . S
C476 O494 1.254 . S
N477 C478 1.333 . S
N477 C482 1.307 . S
N477 Zn483 2.020 . S
C478 N477 1.333 . S
C478 C479 1.379 . S
C478 H496 0.952 . S
C479 C478 1.379 . S
C479 C480 1.390 . S
C479 H506 0.949 . S
C480 C479 1.390 . S
C480 C481 1.357 . S
C481 C480 1.357 . S
C481 C482 1.370 . S
C481 H507 0.950 . S
C482 N477 1.307 . S
C482 C481 1.370 . S
C482 H500 0.948 . S
Zn483 N477 2.020 . S
Zn483 O492 2.039 . S
Zn483 O498 2.034 . S
Zn483 O502 2.025 . S
Zn483 O504 2.024 . S
C484 O503 1.246 . S
C484 O504 1.249 . S
N485 C486 1.307 . S
N485 C487 1.333 . S
N485 Zn491 2.020 . S
C486 N485 1.307 . S
C486 C490 1.370 . S
C486 H497 0.948 . S
C487 N485 1.333 . S
C487 C488 1.379 . S
C487 H495 0.952 . S
C488 C487 1.379 . S
C488 C489 1.390 . S
C488 H508 0.949 . S
C489 C488 1.390 . S
C489 C490 1.357 . S
C490 C486 1.370 . S
C490 C489 1.357 . S
C490 H509 0.950 . S
Zn491 N485 2.020 . S
Zn491 O494 2.025 . S
Zn491 O499 2.024 . S
Zn491 O501 2.039 . S
Zn491 O503 2.034 . S
O492 C476 1.251 . S
O492 Zn483 2.039 . S
C493 O498 1.246 . S
C493 O499 1.249 . S
O494 C476 1.254 . S
O494 Zn491 2.025 . S
H495 C487 0.952 . S
H496 C478 0.952 . S
H497 C486 0.948 . S
O498 Zn483 2.034 . S
O498 C493 1.246 . S
O499 Zn491 2.024 . S
O499 C493 1.249 . S
H500 C482 0.948 . S
O501 Zn491 2.039 . S
O501 C505 1.251 . S
O502 Zn483 2.025 . S
O502 C505 1.254 . S
O503 C484 1.246 . S
O503 Zn491 2.034 . S
O504 Zn483 2.024 . S
O504 C484 1.249 . S
C505 O501 1.251 . S
C505 O502 1.254 . S
H506 C479 0.949 . S
H507 C481 0.950 . S
H508 C488 0.949 . S
H509 C490 0.950 . S
C510 O526 1.251 . S
C510 O528 1.254 . S
N511 C512 1.333 . S
N511 C516 1.307 . S
N511 Zn517 2.020 . S
C512 N511 1.333 . S
C512 C513 1.379 . S
C512 H530 0.952 . S
C513 C512 1.379 . S
C513 C514 1.390 . S
C513 H540 0.949 . S
C514 C513 1.390 . S
C514 C515 1.357 . S
C515 C514 1.357 . S
C515 C516 1.370 . S
C515 H541 0.950 . S
C516 N511 1.307 . S
C516 C515 1.370 . S
C516 H534 0.948 . S
Zn517 N511 2.020 . S
Zn517 O526 2.039 . S
Zn517 O532 2.034 . S
Zn517 O536 2.025 . S
Zn517 O538 2.024 . S
C518 O537 1.246 . S
C518 O538 1.249 . S
N519 C520 1.307 . S
N519 C521 1.333 . S
N519 Zn525 2.020 . S
C520 N519 1.307 . S
C520 C524 1.370 . S
C520 H531 0.948 . S
C521 N519 1.333 . S
C521 C522 1.379 . S
C521 H529 0.952 . S
C522 C521 1.379 . S
C522 C523 1.390 . S
C522 H542 0.949 . S
C523 C522 1.390 . S
C523 C524 1.357 . S
C524 C520 1.370 . S
C524 C523 1.357 . S
C524 H543 0.950 . S
Zn525 N519 2.020 . S
Zn525 O528 2.025 . S
Zn525 O533 2.024 . S
Zn525 O535 2.039 . S
Zn525 O537 2.034 . S
O526 C510 1.251 . S
O526 Zn517 2.039 . S
C527 O532 1.246 . S
C527 O533 1.249 . S
O528 C510 1.254 . S
O528 Zn525 2.025 . S
H529 C521 0.952 . S
H530 C512 0.952 . S
H531 C520 0.948 . S
O532 Zn517 2.034 . S
O532 C527 1.246 . S
O533 Zn525 2.024 . S
O533 C527 1.249 . S
H534 C516 0.948 . S
O535 Zn525 2.039 . S
O535 C539 1.251 . S
O536 Zn517 2.025 . S
O536 C539 1.254 . S
O537 C518 1.246 . S
O537 Zn525 2.034 . S
O538 Zn517 2.024 . S
O538 C518 1.249 . S
C539 O535 1.251 . S
C539 O536 1.254 . S
H540 C513 0.949 . S
H541 C515 0.950 . S
H542 C522 0.949 . S
H543 C524 0.950 . S
C544 C545 1.363 . S
C544 C550 1.379 . S
C544 N552 1.356 1_556 S
C545 C544 1.363 . S
C545 C551 1.363 . S
C546 C547 1.363 . S
C546 C551 1.379 . S
C546 N553 1.356 . S
C547 C546 1.363 . S
C547 C550 1.363 . S
N548 C550 1.356 . S
N548 H560 0.984 . S
N548 H561 0.985 . S
N549 C551 1.356 . S
N549 H554 0.984 . S
N549 H555 0.985 . S
C550 C544 1.379 . S
C550 C547 1.363 . S
C550 N548 1.356 . S
C551 C545 1.363 . S
C551 C546 1.379 . S
C551 N549 1.356 . S
N552 C544 1.356 1_554 S
N552 H558 0.984 . S
N552 H559 0.984 . S
N553 C546 1.356 . S
N553 H556 0.984 . S
N553 H557 0.985 . S
H554 N549 0.984 . S
H555 N549 0.985 . S
H556 N553 0.984 . S
H557 N553 0.985 . S
H558 N552 0.984 . S
H559 N552 0.984 . S
H560 N548 0.984 . S
H561 N548 0.985 . S
C562 C563 1.363 . S
C562 C568 1.379 . S
C562 N570 1.356 . S
C563 C562 1.363 . S
C563 C569 1.363 . S
C564 C565 1.363 . S
C564 C569 1.379 . S
C564 N571 1.356 . S
C565 C564 1.363 . S
C565 C568 1.363 . S
N566 C568 1.356 1_556 S
N566 H578 0.984 . S
N566 H579 0.985 . S
N567 C569 1.356 . S
N567 H572 0.984 . S
N567 H573 0.985 . S
C568 C562 1.379 . S
C568 C565 1.363 . S
C568 N566 1.356 1_554 S
C569 C563 1.363 . S
C569 C564 1.379 . S
C569 N567 1.356 . S
N570 C562 1.356 . S
N570 H576 0.984 . S
N570 H577 0.984 . S
N571 C564 1.356 . S
N571 H574 0.984 . S
N571 H575 0.985 . S
H572 N567 0.984 . S
H573 N567 0.985 . S
H574 N571 0.984 . S
H575 N571 0.985 . S
H576 N570 0.984 . S
H577 N570 0.984 . S
H578 N566 0.984 . S
H579 N566 0.985 . S
C580 C581 1.363 . S
C580 C586 1.379 . S
C580 N588 1.356 . S
C581 C580 1.363 . S
C581 C587 1.363 . S
C582 C583 1.363 . S
C582 C587 1.379 . S
C582 N589 1.356 . S
C583 C582 1.363 . S
C583 C586 1.363 . S
N584 C586 1.356 . S
N584 H596 0.984 . S
N584 H597 0.985 . S
N585 C587 1.356 . S
N585 H590 0.984 . S
N585 H591 0.985 . S
C586 C580 1.379 . S
C586 C583 1.363 . S
C586 N584 1.356 . S
C587 C581 1.363 . S
C587 C582 1.379 . S
C587 N585 1.356 . S
N588 C580 1.356 . S
N588 H594 0.984 . S
N588 H595 0.984 . S
N589 C582 1.356 . S
N589 H592 0.984 . S
N589 H593 0.985 . S
H590 N585 0.984 . S
H591 N585 0.985 . S
H592 N589 0.984 . S
H593 N589 0.985 . S
H594 N588 0.984 . S
H595 N588 0.984 . S
H596 N584 0.984 . S
H597 N584 0.985 . S
C598 C599 1.363 . S
C598 C604 1.379 . S
C598 N606 1.356 . S
C599 C598 1.363 . S
C599 C605 1.363 . S
C600 C601 1.363 . S
C600 C605 1.379 . S
C600 N607 1.356 . S
C601 C600 1.363 . S
C601 C604 1.363 . S
N602 C604 1.356 . S
N602 H614 0.984 . S
N602 H615 0.985 . S
N603 C605 1.356 . S
N603 H608 0.984 . S
N603 H609 0.985 . S
C604 C598 1.379 . S
C604 C601 1.363 . S
C604 N602 1.356 . S
C605 C599 1.363 . S
C605 C600 1.379 . S
C605 N603 1.356 . S
N606 C598 1.356 . S
N606 H612 0.984 . S
N606 H613 0.984 . S
N607 C600 1.356 . S
N607 H610 0.984 . S
N607 H611 0.985 . S
H608 N603 0.984 . S
H609 N603 0.985 . S
H610 N607 0.984 . S
H611 N607 0.985 . S
H612 N606 0.984 . S
H613 N606 0.984 . S
H614 N602 0.984 . S
H615 N602 0.985 . S
C616 C617 1.363 . S
C616 C622 1.379 . S
C616 N624 1.356 . S
C617 C616 1.363 . S
C617 C623 1.363 . S
C618 C619 1.363 . S
C618 C623 1.379 . S
C618 N625 1.356 . S
C619 C618 1.363 . S
C619 C622 1.363 . S
N620 C622 1.356 . S
N620 H632 0.984 1_554 S
N620 H633 0.985 1_554 S
N621 C623 1.356 1_655 S
N621 H626 0.984 . S
N621 H627 0.985 . S
C622 C616 1.379 . S
C622 C619 1.363 . S
C622 N620 1.356 . S
C623 C617 1.363 . S
C623 C618 1.379 . S
C623 N621 1.356 1_455 S
N624 C616 1.356 . S
N624 H630 0.984 . S
N624 H631 0.984 . S
N625 C618 1.356 . S
N625 H628 0.984 . S
N625 H629 0.985 . S
H626 N621 0.984 . S
H627 N621 0.985 . S
H628 N625 0.984 . S
H629 N625 0.985 . S
H630 N624 0.984 . S
H631 N624 0.984 . S
H632 N620 0.984 1_556 S
H633 N620 0.985 1_556 S
C634 C635 1.363 . S
C634 C640 1.379 . S
C634 N642 1.356 1_455 S
C635 C634 1.363 . S
C635 C641 1.363 . S
C636 C637 1.363 . S
C636 C641 1.379 . S
C636 N643 1.356 . S
C637 C636 1.363 . S
C637 C640 1.363 . S
N638 C640 1.356 . S
N638 H650 0.984 . S
N638 H651 0.985 . S
N639 C641 1.356 . S
N639 H644 0.984 . S
N639 H645 0.985 . S
C640 C634 1.379 . S
C640 C637 1.363 . S
C640 N638 1.356 . S
C641 C635 1.363 . S
C641 C636 1.379 . S
C641 N639 1.356 . S
N642 C634 1.356 1_655 S
N642 H648 0.984 . S
N642 H649 0.984 . S
N643 C636 1.356 . S
N643 H646 0.984 . S
N643 H647 0.985 . S
H644 N639 0.984 . S
H645 N639 0.985 . S
H646 N643 0.984 . S
H647 N643 0.985 . S
H648 N642 0.984 . S
H649 N642 0.984 . S
H650 N638 0.984 . S
H651 N638 0.985 . S
C652 C653 1.363 . S
C652 C658 1.379 . S
C652 N660 1.356 . S
C653 C652 1.363 . S
C653 C659 1.363 . S
C654 C655 1.363 . S
C654 C659 1.379 . S
C654 N661 1.356 . S
C655 C654 1.363 . S
C655 C658 1.363 . S
N656 C658 1.356 . S
N656 H668 0.984 . S
N656 H669 0.985 . S
N657 C659 1.356 . S
N657 H662 0.984 . S
N657 H663 0.985 . S
C658 C652 1.379 . S
C658 C655 1.363 . S
C658 N656 1.356 . S
C659 C653 1.363 . S
C659 C654 1.379 . S
C659 N657 1.356 . S
N660 C652 1.356 . S
N660 H666 0.984 . S
N660 H667 0.984 . S
N661 C654 1.356 . S
N661 H664 0.984 . S
N661 H665 0.985 . S
H662 N657 0.984 . S
H663 N657 0.985 . S
H664 N661 0.984 . S
H665 N661 0.985 . S
H666 N660 0.984 . S
H667 N660 0.984 . S
H668 N656 0.984 . S
H669 N656 0.985 . S
C670 C671 1.363 . S
C670 C676 1.379 . S
C670 N678 1.356 . S
C671 C670 1.363 . S
C671 C677 1.363 . S
C672 C673 1.363 . S
C672 C677 1.379 . S
C672 N679 1.356 . S
C673 C672 1.363 . S
C673 C676 1.363 . S
N674 C676 1.356 . S
N674 H686 0.984 . S
N674 H687 0.985 . S
N675 C677 1.356 . S
N675 H680 0.984 . S
N675 H681 0.985 . S
C676 C670 1.379 . S
C676 C673 1.363 . S
C676 N674 1.356 . S
C677 C671 1.363 . S
C677 C672 1.379 . S
C677 N675 1.356 . S
N678 C670 1.356 . S
N678 H684 0.984 . S
N678 H685 0.984 . S
N679 C672 1.356 . S
N679 H682 0.984 . S
N679 H683 0.985 . S
H680 N675 0.984 . S
H681 N675 0.985 . S
H682 N679 0.984 . S
H683 N679 0.985 . S
H684 N678 0.984 . S
H685 N678 0.984 . S
H686 N674 0.984 . S
H687 N674 0.985 . S
C688 C689 1.363 . S
C688 C694 1.379 . S
C688 N696 1.356 . S
C689 C688 1.363 . S
C689 C695 1.363 . S
C690 C691 1.363 . S
C690 C695 1.379 . S
C690 N697 1.356 . S
C691 C690 1.363 . S
C691 C694 1.363 . S
N692 C694 1.356 . S
N692 H704 0.984 . S
N692 H705 0.985 . S
N693 C695 1.356 . S
N693 H698 0.984 . S
N693 H699 0.985 . S
C694 C688 1.379 . S
C694 C691 1.363 . S
C694 N692 1.356 . S
C695 C689 1.363 . S
C695 C690 1.379 . S
C695 N693 1.356 . S
N696 C688 1.356 . S
N696 H702 0.984 . S
N696 H703 0.984 . S
N697 C690 1.356 . S
N697 H700 0.984 . S
N697 H701 0.985 . S
H698 N693 0.984 . S
H699 N693 0.985 . S
H700 N697 0.984 . S
H701 N697 0.985 . S
H702 N696 0.984 . S
H703 N696 0.984 . S
H704 N692 0.984 . S
H705 N692 0.985 . S
C706 C707 1.363 . S
C706 C712 1.379 . S
C706 N714 1.356 . S
C707 C706 1.363 . S
C707 C713 1.363 . S
C708 C709 1.363 . S
C708 C713 1.379 . S
C708 N715 1.356 . S
C709 C708 1.363 . S
C709 C712 1.363 . S
N710 C712 1.356 . S
N710 H722 0.984 . S
N710 H723 0.985 . S
N711 C713 1.356 . S
N711 H716 0.984 . S
N711 H717 0.985 . S
C712 C706 1.379 . S
C712 C709 1.363 . S
C712 N710 1.356 . S
C713 C707 1.363 . S
C713 C708 1.379 . S
C713 N711 1.356 . S
N714 C706 1.356 . S
N714 H720 0.984 . S
N714 H721 0.984 . S
N715 C708 1.356 . S
N715 H718 0.984 . S
N715 H719 0.985 . S
H716 N711 0.984 . S
H717 N711 0.985 . S
H718 N715 0.984 . S
H719 N715 0.985 . S
H720 N714 0.984 . S
H721 N714 0.984 . S
H722 N710 0.984 . S
H723 N710 0.985 . S
C724 C725 1.363 . S
C724 C730 1.379 . S
C724 N732 1.356 . S
C725 C724 1.363 . S
C725 C731 1.363 . S
C726 C727 1.363 1_655 S
C726 C731 1.379 1_655 S
C726 N733 1.356 . S
C727 C726 1.363 1_455 S
C727 C730 1.363 . S
N728 C730 1.356 . S
N728 H740 0.984 . S
N728 H741 0.985 . S
N729 C731 1.356 . S
N729 H734 0.984 . S
N729 H735 0.985 1_455 S
C730 C724 1.379 . S
C730 C727 1.363 . S
C730 N728 1.356 . S
C731 C725 1.363 . S
C731 C726 1.379 1_455 S
C731 N729 1.356 . S
N732 C724 1.356 . S
N732 H738 0.984 . S
N732 H739 0.984 . S
N733 C726 1.356 . S
N733 H736 0.984 . S
N733 H737 0.985 . S
H734 N729 0.984 . S
H735 N729 0.985 1_655 S
H736 N733 0.984 . S
H737 N733 0.985 . S
H738 N732 0.984 . S
H739 N732 0.984 . S
H740 N728 0.984 . S
H741 N728 0.985 . S
C742 C743 1.363 . S
C742 C748 1.379 . S
C742 N750 1.356 . S
C743 C742 1.363 . S
C743 C749 1.363 . S
C744 C745 1.363 . S
C744 C749 1.379 . S
C744 N751 1.356 1_554 S
C745 C744 1.363 . S
C745 C748 1.363 . S
N746 C748 1.356 . S
N746 H758 0.984 . S
N746 H759 0.985 . S
N747 C749 1.356 . S
N747 H752 0.984 1_455 S
N747 H753 0.985 . S
C748 C742 1.379 . S
C748 C745 1.363 . S
C748 N746 1.356 . S
C749 C743 1.363 . S
C749 C744 1.379 . S
C749 N747 1.356 . S
N750 C742 1.356 . S
N750 H756 0.984 . S
N750 H757 0.984 . S
N751 C744 1.356 1_556 S
N751 H754 0.984 . S
N751 H755 0.985 . S
H752 N747 0.984 1_655 S
H753 N747 0.985 . S
H754 N751 0.984 . S
H755 N751 0.985 . S
H756 N750 0.984 . S
H757 N750 0.984 . S
H758 N746 0.984 . S
H759 N746 0.985 . S
C760 C761 1.363 . S
C760 C766 1.379 . S
C760 N768 1.356 . S
C761 C760 1.363 . S
C761 C767 1.363 . S
C762 C763 1.363 . S
C762 C767 1.379 . S
C762 N769 1.356 . S
C763 C762 1.363 . S
C763 C766 1.363 . S
N764 C766 1.356 . S
N764 H776 0.984 . S
N764 H777 0.985 . S
N765 C767 1.356 . S
N765 H770 0.984 . S
N765 H771 0.985 . S
C766 C760 1.379 . S
C766 C763 1.363 . S
C766 N764 1.356 . S
C767 C761 1.363 . S
C767 C762 1.379 . S
C767 N765 1.356 . S
N768 C760 1.356 . S
N768 H774 0.984 . S
N768 H775 0.984 . S
N769 C762 1.356 . S
N769 H772 0.984 . S
N769 H773 0.985 . S
H770 N765 0.984 . S
H771 N765 0.985 . S
H772 N769 0.984 . S
H773 N769 0.985 . S
H774 N768 0.984 . S
H775 N768 0.984 . S
H776 N764 0.984 . S
H777 N764 0.985 . S
C778 C779 1.363 . S
C778 C784 1.379 . S
C778 N786 1.356 . S
C779 C778 1.363 . S
C779 C785 1.363 . S
C780 C781 1.363 . S
C780 C785 1.379 . S
C780 N787 1.356 . S
C781 C780 1.363 . S
C781 C784 1.363 . S
N782 C784 1.356 . S
N782 H794 0.984 . S
N782 H795 0.985 . S
N783 C785 1.356 . S
N783 H788 0.984 . S
N783 H789 0.985 . S
C784 C778 1.379 . S
C784 C781 1.363 . S
C784 N782 1.356 . S
C785 C779 1.363 . S
C785 C780 1.379 . S
C785 N783 1.356 . S
N786 C778 1.356 . S
N786 H792 0.984 . S
N786 H793 0.984 . S
N787 C780 1.356 . S
N787 H790 0.984 . S
N787 H791 0.985 . S
H788 N783 0.984 . S
H789 N783 0.985 . S
H790 N787 0.984 . S
H791 N787 0.985 . S
H792 N786 0.984 . S
H793 N786 0.984 . S
H794 N782 0.984 . S
H795 N782 0.985 . S
C796 C797 1.363 . S
C796 C802 1.379 . S
C796 N804 1.356 . S
C797 C796 1.363 . S
C797 C803 1.363 . S
C798 C799 1.363 . S
C798 C803 1.379 . S
C798 N805 1.356 . S
C799 C798 1.363 . S
C799 C802 1.363 . S
N800 C802 1.356 . S
N800 H812 0.984 . S
N800 H813 0.985 1_554 S
N801 C803 1.356 . S
N801 H806 0.984 . S
N801 H807 0.985 . S
C802 C796 1.379 . S
C802 C799 1.363 . S
C802 N800 1.356 . S
C803 C797 1.363 . S
C803 C798 1.379 . S
C803 N801 1.356 . S
N804 C796 1.356 . S
N804 H810 0.984 . S
N804 H811 0.984 . S
N805 C798 1.356 . S
N805 H808 0.984 . S
N805 H809 0.985 . S
H806 N801 0.984 . S
H807 N801 0.985 . S
H808 N805 0.984 . S
H809 N805 0.985 . S
H810 N804 0.984 . S
H811 N804 0.984 . S
H812 N800 0.984 . S
H813 N800 0.985 1_556 S
C814 C815 1.363 . S
C814 C820 1.379 . S
C814 N822 1.356 . S
C815 C814 1.363 . S
C815 C821 1.363 . S
C816 C817 1.363 . S
C816 C821 1.379 . S
C816 N823 1.356 1_556 S
C817 C816 1.363 . S
C817 C820 1.363 . S
N818 C820 1.356 . S
N818 H830 0.984 . S
N818 H831 0.985 . S
N819 C821 1.356 . S
N819 H824 0.984 . S
N819 H825 0.985 . S
C820 C814 1.379 . S
C820 C817 1.363 . S
C820 N818 1.356 . S
C821 C815 1.363 . S
C821 C816 1.379 . S
C821 N819 1.356 . S
N822 C814 1.356 . S
N822 H828 0.984 . S
N822 H829 0.984 . S
N823 C816 1.356 1_554 S
N823 H826 0.984 . S
N823 H827 0.985 . S
H824 N819 0.984 . S
H825 N819 0.985 . S
H826 N823 0.984 . S
H827 N823 0.985 . S
H828 N822 0.984 . S
H829 N822 0.984 . S
H830 N818 0.984 . S
H831 N818 0.985 . S
C832 C833 1.363 . S
C832 C838 1.379 . S
C832 N840 1.356 . S
C833 C832 1.363 . S
C833 C839 1.363 . S
C834 C835 1.363 . S
C834 C839 1.379 . S
C834 N841 1.356 . S
C835 C834 1.363 . S
C835 C838 1.363 . S
N836 C838 1.356 . S
N836 H848 0.984 . S
N836 H849 0.985 . S
N837 C839 1.356 . S
N837 H842 0.984 . S
N837 H843 0.985 . S
C838 C832 1.379 . S
C838 C835 1.363 . S
C838 N836 1.356 . S
C839 C833 1.363 . S
C839 C834 1.379 . S
C839 N837 1.356 . S
N840 C832 1.356 . S
N840 H846 0.984 . S
N840 H847 0.984 . S
N841 C834 1.356 . S
N841 H844 0.984 . S
N841 H845 0.985 . S
H842 N837 0.984 . S
H843 N837 0.985 . S
H844 N841 0.984 . S
H845 N841 0.985 . S
H846 N840 0.984 . S
H847 N840 0.984 . S
H848 N836 0.984 . S
H849 N836 0.985 . S
C850 C851 1.363 . S
C850 C856 1.379 . S
C850 N858 1.356 . S
C851 C850 1.363 . S
C851 C857 1.363 . S
C852 C853 1.363 . S
C852 C857 1.379 . S
C852 N859 1.356 . S
C853 C852 1.363 . S
C853 C856 1.363 . S
N854 C856 1.356 . S
N854 H866 0.984 . S
N854 H867 0.985 . S
N855 C857 1.356 . S
N855 H860 0.984 . S
N855 H861 0.985 . S
C856 C850 1.379 . S
C856 C853 1.363 . S
C856 N854 1.356 . S
C857 C851 1.363 . S
C857 C852 1.379 . S
C857 N855 1.356 . S
N858 C850 1.356 . S
N858 H864 0.984 . S
N858 H865 0.984 . S
N859 C852 1.356 . S
N859 H862 0.984 . S
N859 H863 0.985 . S
H860 N855 0.984 . S
H861 N855 0.985 . S
H862 N859 0.984 . S
H863 N859 0.985 . S
H864 N858 0.984 . S
H865 N858 0.984 . S
H866 N854 0.984 . S
H867 N854 0.985 . S
C868 C869 1.363 . S
C868 C874 1.379 . S
C868 N876 1.356 . S
C869 C868 1.363 . S
C869 C875 1.363 . S
C870 C871 1.363 . S
C870 C875 1.379 . S
C870 N877 1.356 . S
C871 C870 1.363 . S
C871 C874 1.363 . S
N872 C874 1.356 . S
N872 H884 0.984 . S
N872 H885 0.985 . S
N873 C875 1.356 . S
N873 H878 0.984 . S
N873 H879 0.985 . S
C874 C868 1.379 . S
C874 C871 1.363 . S
C874 N872 1.356 . S
C875 C869 1.363 . S
C875 C870 1.379 . S
C875 N873 1.356 . S
N876 C868 1.356 . S
N876 H882 0.984 . S
N876 H883 0.984 . S
N877 C870 1.356 . S
N877 H880 0.984 . S
N877 H881 0.985 . S
H878 N873 0.984 . S
H879 N873 0.985 . S
H880 N877 0.984 . S
H881 N877 0.985 . S
H882 N876 0.984 . S
H883 N876 0.984 . S
H884 N872 0.984 . S
H885 N872 0.985 . S
C886 C887 1.363 . S
C886 C892 1.379 . S
C886 N894 1.356 . S
C887 C886 1.363 . S
C887 C893 1.354 1_556 S
C888 C889 1.354 1_554 S
C888 C893 1.379 . S
C888 N895 1.363 . S
C889 C888 1.354 1_556 S
C889 C892 1.363 . S
N890 C892 1.356 . S
N890 H902 0.984 . S
N890 H903 0.985 . S
N891 C893 1.363 . S
N891 H896 0.984 . S
N891 H897 0.985 . S
C892 C886 1.379 . S
C892 C889 1.363 . S
C892 N890 1.356 . S
C893 C887 1.354 1_554 S
C893 C888 1.379 . S
C893 N891 1.363 . S
N894 C886 1.356 . S
N894 H900 0.984 . S
N894 H901 0.984 . S
N895 C888 1.363 . S
N895 H898 0.984 . S
N895 H899 0.985 . S
H896 N891 0.984 . S
H897 N891 0.985 . S
H898 N895 0.984 . S
H899 N895 0.985 . S
H900 N894 0.984 . S
H901 N894 0.984 . S
H902 N890 0.984 . S
H903 N890 0.985 . S
C904 C905 1.363 . S
C904 C910 1.379 . S
C904 N912 1.356 . S
C905 C904 1.363 . S
C905 C911 1.363 . S
C906 C907 1.363 . S
C906 C911 1.379 . S
C906 N913 1.356 . S
C907 C906 1.363 . S
C907 C910 1.363 . S
N908 C910 1.356 . S
N908 H920 0.984 . S
N908 H921 0.985 . S
N909 C911 1.356 . S
N909 H914 0.984 . S
N909 H915 0.985 . S
C910 C904 1.379 . S
C910 C907 1.363 . S
C910 N908 1.356 . S
C911 C905 1.363 . S
C911 C906 1.379 . S
C911 N909 1.356 . S
N912 C904 1.356 . S
N912 H918 0.984 . S
N912 H919 0.984 . S
N913 C906 1.356 . S
N913 H916 0.984 . S
N913 H917 0.985 . S
H914 N909 0.984 . S
H915 N909 0.985 . S
H916 N913 0.984 . S
H917 N913 0.985 . S
H918 N912 0.984 . S
H919 N912 0.984 . S
H920 N908 0.984 . S
H921 N908 0.985 . S
C922 C923 1.363 . S
C922 C928 1.379 . S
C922 N930 1.356 . S
C923 C922 1.363 . S
C923 C929 1.363 1_554 S
C924 C925 1.363 1_556 S
C924 C929 1.379 . S
C924 N931 1.356 . S
C925 C924 1.363 1_554 S
C925 C928 1.363 . S
N926 C928 1.356 . S
N926 H938 0.984 . S
N926 H939 0.985 . S
N927 C929 1.356 . S
N927 H932 0.984 . S
N927 H933 0.985 . S
C928 C922 1.379 . S
C928 C925 1.363 . S
C928 N926 1.356 . S
C929 C923 1.363 1_556 S
C929 C924 1.379 . S
C929 N927 1.356 . S
N930 C922 1.356 . S
N930 H936 0.984 . S
N930 H937 0.984 . S
N931 C924 1.356 . S
N931 H934 0.984 . S
N931 H935 0.985 . S
H932 N927 0.984 . S
H933 N927 0.985 . S
H934 N931 0.984 . S
H935 N931 0.985 . S
H936 N930 0.984 . S
H937 N930 0.984 . S
H938 N926 0.984 . S
H939 N926 0.985 . S
C940 C941 1.363 . S
C940 C946 1.379 . S
C940 N948 1.356 . S
C941 C940 1.363 . S
C941 C947 1.363 . S
C942 C943 1.363 . S
C942 C947 1.379 . S
C942 N949 1.356 . S
C943 C942 1.363 . S
C943 C946 1.363 . S
N944 C946 1.356 . S
N944 H956 0.984 . S
N944 H957 0.985 . S
N945 C947 1.356 . S
N945 H950 0.984 . S
N945 H951 0.985 . S
C946 C940 1.379 . S
C946 C943 1.363 . S
C946 N944 1.356 . S
C947 C941 1.363 . S
C947 C942 1.379 . S
C947 N945 1.356 . S
N948 C940 1.356 . S
N948 H954 0.984 . S
N948 H955 0.984 . S
N949 C942 1.356 . S
N949 H952 0.984 . S
N949 H953 0.985 . S
H950 N945 0.984 . S
H951 N945 0.985 . S
H952 N949 0.984 . S
H953 N949 0.985 . S
H954 N948 0.984 . S
H955 N948 0.984 . S
H956 N944 0.984 . S
H957 N944 0.985 . S
C958 C959 1.363 . S
C958 C964 1.379 . S
C958 N966 1.356 . S
C959 C958 1.363 . S
C959 C965 1.363 . S
C960 C961 1.363 . S
C960 C965 1.379 . S
C960 N967 1.356 . S
C961 C960 1.363 . S
C961 C964 1.363 . S
N962 C964 1.356 . S
N962 H974 0.984 . S
N962 H975 0.985 . S
N963 C965 1.356 . S
N963 H968 0.984 . S
N963 H969 0.985 . S
C964 C958 1.379 . S
C964 C961 1.363 . S
C964 N962 1.356 . S
C965 C959 1.363 . S
C965 C960 1.379 . S
C965 N963 1.356 . S
N966 C958 1.356 . S
N966 H972 0.984 . S
N966 H973 0.984 . S
N967 C960 1.356 . S
N967 H970 0.984 . S
N967 H971 0.985 . S
H968 N963 0.984 . S
H969 N963 0.985 . S
H970 N967 0.984 . S
H971 N967 0.985 . S
H972 N966 0.984 . S
H973 N966 0.984 . S
H974 N962 0.984 . S
H975 N962 0.985 . S
C976 C977 1.355 1_556 S
C976 C982 1.386 . S
C976 N984 1.354 1_556 S
C977 C976 1.355 1_554 S
C977 C983 1.363 1_545 S
C978 C979 1.355 1_554 S
C978 C983 1.386 . S
C978 N985 1.354 1_554 S
C979 C978 1.355 1_556 S
C979 C982 1.363 1_565 S
N980 C982 1.357 1_565 S
N980 H992 0.986 1_565 S
N980 H993 0.983 . S
N981 C983 1.357 1_545 S
N981 H986 0.982 . S
N981 H987 0.987 1_545 S
C982 C976 1.386 . S
C982 C979 1.363 1_545 S
C982 N980 1.357 1_545 S
C983 C977 1.363 1_565 S
C983 C978 1.386 . S
C983 N981 1.357 1_565 S
N984 C976 1.354 1_554 S
N984 H990 0.984 1_554 S
N984 H991 0.984 . S
N985 C978 1.354 1_556 S
N985 H988 0.984 . S
N985 H989 0.985 1_556 S
H986 N981 0.982 . S
H987 N981 0.987 1_565 S
H988 N985 0.984 . S
H989 N985 0.985 1_554 S
H990 N984 0.984 1_556 S
H991 N984 0.984 . S
H992 N980 0.986 1_545 S
H993 N980 0.983 . S
C994 C995 1.363 . S
C994 C1000 1.379 . S
C994 N1002 1.356 . S
C995 C994 1.363 . S
C995 C1001 1.363 . S
C996 C997 1.363 . S
C996 C1001 1.379 . S
C996 N1003 1.356 . S
C997 C996 1.363 . S
C997 C1000 1.363 . S
N998 C1000 1.356 . S
N998 H1010 0.984 . S
N998 H1011 0.985 . S
N999 C1001 1.356 . S
N999 H1004 0.984 . S
N999 H1005 0.985 . S
C1000 C994 1.379 . S
C1000 C997 1.363 . S
C1000 N998 1.356 . S
C1001 C995 1.363 . S
C1001 C996 1.379 . S
C1001 N999 1.356 . S
N1002 C994 1.356 . S
N1002 H1008 0.984 . S
N1002 H1009 0.984 . S
N1003 C996 1.356 . S
N1003 H1006 0.984 . S
N1003 H1007 0.985 . S
H1004 N999 0.984 . S
H1005 N999 0.985 . S
H1006 N1003 0.984 . S
H1007 N1003 0.985 . S
H1008 N1002 0.984 . S
H1009 N1002 0.984 . S
H1010 N998 0.984 . S
H1011 N998 0.985 . S
C1012 C1013 1.381 . S
C1012 C1018 1.361 1_545 S
C1012 N1020 1.363 . S
C1013 C1012 1.381 . S
C1013 C1019 1.363 . S
C1014 C1015 1.380 . S
C1014 C1019 1.362 1_565 S
C1014 N1021 1.363 . S
C1015 C1014 1.380 . S
C1015 C1018 1.363 . S
N1016 C1018 1.356 . S
N1016 H1028 0.984 . S
N1016 H1029 0.985 . S
N1017 C1019 1.356 . S
N1017 H1022 0.984 . S
N1017 H1023 0.985 . S
C1018 C1012 1.361 1_565 S
C1018 C1015 1.363 . S
C1018 N1016 1.356 . S
C1019 C1013 1.363 . S
C1019 C1014 1.362 1_545 S
C1019 N1017 1.356 . S
N1020 C1012 1.363 . S
N1020 H1026 0.984 1_545 S
N1020 H1027 0.984 . S
N1021 C1014 1.363 . S
N1021 H1024 0.984 . S
N1021 H1025 0.985 1_565 S
H1022 N1017 0.984 . S
H1023 N1017 0.985 . S
H1024 N1021 0.984 . S
H1025 N1021 0.985 1_545 S
H1026 N1020 0.984 1_565 S
H1027 N1020 0.984 . S
H1028 N1016 0.984 . S
H1029 N1016 0.985 . S
C1030 C1031 1.363 . S
C1030 C1036 1.379 . S
C1030 N1038 1.356 . S
C1031 C1030 1.363 . S
C1031 C1037 1.363 . S
C1032 C1033 1.363 . S
C1032 C1037 1.379 . S
C1032 N1039 1.356 . S
C1033 C1032 1.363 . S
C1033 C1036 1.363 . S
N1034 C1036 1.356 . S
N1034 H1046 0.984 . S
N1034 H1047 0.985 . S
N1035 C1037 1.356 . S
N1035 H1040 0.984 . S
N1035 H1041 0.985 . S
C1036 C1030 1.379 . S
C1036 C1033 1.363 . S
C1036 N1034 1.356 . S
C1037 C1031 1.363 . S
C1037 C1032 1.379 . S
C1037 N1035 1.356 . S
N1038 C1030 1.356 . S
N1038 H1044 0.984 . S
N1038 H1045 0.984 . S
N1039 C1032 1.356 . S
N1039 H1042 0.984 . S
N1039 H1043 0.985 . S
H1040 N1035 0.984 . S
H1041 N1035 0.985 . S
H1042 N1039 0.984 . S
H1043 N1039 0.985 . S
H1044 N1038 0.984 . S
H1045 N1038 0.984 . S
H1046 N1034 0.984 . S
H1047 N1034 0.985 . S
C1048 C1049 1.363 . S
C1048 C1054 1.379 . S
C1048 N1056 1.356 . S
C1049 C1048 1.363 . S
C1049 C1055 1.363 . S
C1050 C1051 1.363 . S
C1050 C1055 1.379 . S
C1050 N1057 1.356 . S
C1051 C1050 1.363 . S
C1051 C1054 1.363 . S
N1052 C1054 1.356 . S
N1052 H1064 0.984 . S
N1052 H1065 0.985 . S
N1053 C1055 1.356 . S
N1053 H1058 0.984 . S
N1053 H1059 0.985 . S
C1054 C1048 1.379 . S
C1054 C1051 1.363 . S
C1054 N1052 1.356 . S
C1055 C1049 1.363 . S
C1055 C1050 1.379 . S
C1055 N1053 1.356 . S
N1056 C1048 1.356 . S
N1056 H1062 0.984 . S
N1056 H1063 0.984 . S
N1057 C1050 1.356 . S
N1057 H1060 0.984 . S
N1057 H1061 0.985 . S
H1058 N1053 0.984 . S
H1059 N1053 0.985 . S
H1060 N1057 0.984 . S
H1061 N1057 0.985 . S
H1062 N1056 0.984 . S
H1063 N1056 0.984 . S
H1064 N1052 0.984 . S
H1065 N1052 0.985 . S
C1066 C1067 1.363 . S
C1066 C1072 1.379 . S
C1066 N1074 1.356 . S
C1067 C1066 1.363 . S
C1067 C1073 1.363 . S
C1068 C1069 1.363 . S
C1068 C1073 1.379 . S
C1068 N1075 1.356 . S
C1069 C1068 1.363 . S
C1069 C1072 1.363 . S
N1070 C1072 1.356 . S
N1070 H1082 0.984 . S
N1070 H1083 0.985 . S
N1071 C1073 1.356 . S
N1071 H1076 0.984 . S
N1071 H1077 0.985 . S
C1072 C1066 1.379 . S
C1072 C1069 1.363 . S
C1072 N1070 1.356 . S
C1073 C1067 1.363 . S
C1073 C1068 1.379 . S
C1073 N1071 1.356 . S
N1074 C1066 1.356 . S
N1074 H1080 0.984 . S
N1074 H1081 0.984 . S
N1075 C1068 1.356 . S
N1075 H1078 0.984 . S
N1075 H1079 0.985 . S
H1076 N1071 0.984 . S
H1077 N1071 0.985 . S
H1078 N1075 0.984 . S
H1079 N1075 0.985 . S
H1080 N1074 0.984 . S
H1081 N1074 0.984 . S
H1082 N1070 0.984 . S
H1083 N1070 0.985 . S
C1084 C1085 1.363 . S
C1084 C1090 1.379 . S
C1084 N1092 1.356 . S
C1085 C1084 1.363 . S
C1085 C1091 1.363 . S
C1086 C1087 1.363 . S
C1086 C1091 1.379 . S
C1086 N1093 1.356 . S
C1087 C1086 1.363 . S
C1087 C1090 1.363 . S
N1088 C1090 1.356 . S
N1088 H1100 0.984 . S
N1088 H1101 0.985 . S
N1089 C1091 1.356 . S
N1089 H1094 0.984 . S
N1089 H1095 0.985 . S
C1090 C1084 1.379 . S
C1090 C1087 1.363 . S
C1090 N1088 1.356 . S
C1091 C1085 1.363 . S
C1091 C1086 1.379 . S
C1091 N1089 1.356 . S
N1092 C1084 1.356 . S
N1092 H1098 0.984 . S
N1092 H1099 0.984 . S
N1093 C1086 1.356 . S
N1093 H1096 0.984 . S
N1093 H1097 0.985 . S
H1094 N1089 0.984 . S
H1095 N1089 0.985 . S
H1096 N1093 0.984 . S
H1097 N1093 0.985 . S
H1098 N1092 0.984 . S
H1099 N1092 0.984 . S
H1100 N1088 0.984 . S
H1101 N1088 0.985 . S
C1102 C1103 1.363 . S
C1102 C1108 1.379 . S
C1102 N1110 1.356 . S
C1103 C1102 1.363 . S
C1103 C1109 1.363 1_556 S
C1104 C1105 1.363 . S
C1104 C1109 1.379 . S
C1104 N1111 1.356 . S
C1105 C1104 1.363 . S
C1105 C1108 1.363 1_554 S
N1106 C1108 1.356 . S
N1106 H1118 0.984 . S
N1106 H1119 0.985 1_556 S
N1107 C1109 1.356 . S
N1107 H1112 0.984 1_554 S
N1107 H1113 0.985 . S
C1108 C1102 1.379 . S
C1108 C1105 1.363 1_556 S
C1108 N1106 1.356 . S
C1109 C1103 1.363 1_554 S
C1109 C1104 1.379 . S
C1109 N1107 1.356 . S
N1110 C1102 1.356 . S
N1110 H1116 0.984 . S
N1110 H1117 0.984 . S
N1111 C1104 1.356 . S
N1111 H1114 0.984 . S
N1111 H1115 0.985 . S
H1112 N1107 0.984 1_556 S
H1113 N1107 0.985 . S
H1114 N1111 0.984 . S
H1115 N1111 0.985 . S
H1116 N1110 0.984 . S
H1117 N1110 0.984 . S
H1118 N1106 0.984 . S
H1119 N1106 0.985 1_554 S
C1120 C1121 1.363 . S
C1120 C1126 1.379 . S
C1120 N1128 1.356 . S
C1121 C1120 1.363 . S
C1121 C1127 1.363 . S
C1122 C1123 1.363 . S
C1122 C1127 1.379 . S
C1122 N1129 1.356 . S
C1123 C1122 1.363 . S
C1123 C1126 1.363 . S
N1124 C1126 1.356 . S
N1124 H1136 0.984 . S
N1124 H1137 0.985 . S
N1125 C1127 1.356 . S
N1125 H1130 0.984 . S
N1125 H1131 0.985 . S
C1126 C1120 1.379 . S
C1126 C1123 1.363 . S
C1126 N1124 1.356 . S
C1127 C1121 1.363 . S
C1127 C1122 1.379 . S
C1127 N1125 1.356 . S
N1128 C1120 1.356 . S
N1128 H1134 0.984 . S
N1128 H1135 0.984 . S
N1129 C1122 1.356 . S
N1129 H1132 0.984 . S
N1129 H1133 0.985 . S
H1130 N1125 0.984 . S
H1131 N1125 0.985 . S
H1132 N1129 0.984 . S
H1133 N1129 0.985 . S
H1134 N1128 0.984 . S
H1135 N1128 0.984 . S
H1136 N1124 0.984 . S
H1137 N1124 0.985 . S
C1138 C1139 1.363 . S
C1138 C1144 1.379 . S
C1138 N1146 1.356 . S
C1139 C1138 1.363 . S
C1139 C1145 1.363 . S
C1140 C1141 1.363 . S
C1140 C1145 1.379 . S
C1140 N1147 1.356 . S
C1141 C1140 1.363 . S
C1141 C1144 1.363 . S
N1142 C1144 1.356 . S
N1142 H1154 0.984 . S
N1142 H1155 0.985 . S
N1143 C1145 1.356 . S
N1143 H1148 0.984 . S
N1143 H1149 0.985 . S
C1144 C1138 1.379 . S
C1144 C1141 1.363 . S
C1144 N1142 1.356 . S
C1145 C1139 1.363 . S
C1145 C1140 1.379 . S
C1145 N1143 1.356 . S
N1146 C1138 1.356 . S
N1146 H1152 0.984 . S
N1146 H1153 0.984 . S
N1147 C1140 1.356 . S
N1147 H1150 0.984 . S
N1147 H1151 0.985 . S
H1148 N1143 0.984 . S
H1149 N1143 0.985 . S
H1150 N1147 0.984 . S
H1151 N1147 0.985 . S
H1152 N1146 0.984 . S
H1153 N1146 0.984 . S
H1154 N1142 0.984 . S
H1155 N1142 0.985 . S
C1156 C1157 1.363 . S
C1156 C1162 1.379 . S
C1156 N1164 1.356 1_556 S
C1157 C1156 1.363 . S
C1157 C1163 1.363 . S
C1158 C1159 1.363 . S
C1158 C1163 1.379 . S
C1158 N1165 1.356 . S
C1159 C1158 1.363 . S
C1159 C1162 1.363 . S
N1160 C1162 1.356 . S
N1160 H1172 0.984 1_556 S
N1160 H1173 0.985 . S
N1161 C1163 1.356 . S
N1161 H1166 0.984 . S
N1161 H1167 0.985 . S
C1162 C1156 1.379 . S
C1162 C1159 1.363 . S
C1162 N1160 1.356 . S
C1163 C1157 1.363 . S
C1163 C1158 1.379 . S
C1163 N1161 1.356 . S
N1164 C1156 1.356 1_554 S
N1164 H1170 0.984 . S
N1164 H1171 0.984 . S
N1165 C1158 1.356 . S
N1165 H1168 0.984 . S
N1165 H1169 0.985 . S
H1166 N1161 0.984 . S
H1167 N1161 0.985 . S
H1168 N1165 0.984 . S
H1169 N1165 0.985 . S
H1170 N1164 0.984 . S
H1171 N1164 0.984 . S
H1172 N1160 0.984 1_554 S
H1173 N1160 0.985 . S
C1174 C1175 1.363 . S
C1174 C1180 1.379 . S
C1174 N1182 1.356 . S
C1175 C1174 1.363 . S
C1175 C1181 1.363 . S
C1176 C1177 1.363 . S
C1176 C1181 1.379 . S
C1176 N1183 1.356 . S
C1177 C1176 1.363 . S
C1177 C1180 1.363 . S
N1178 C1180 1.356 . S
N1178 H1190 0.984 . S
N1178 H1191 0.985 . S
N1179 C1181 1.356 . S
N1179 H1184 0.984 . S
N1179 H1185 0.985 . S
C1180 C1174 1.379 . S
C1180 C1177 1.363 . S
C1180 N1178 1.356 . S
C1181 C1175 1.363 . S
C1181 C1176 1.379 . S
C1181 N1179 1.356 . S
N1182 C1174 1.356 . S
N1182 H1188 0.984 . S
N1182 H1189 0.984 . S
N1183 C1176 1.356 . S
N1183 H1186 0.984 1_554 S
N1183 H1187 0.985 1_554 S
H1184 N1179 0.984 . S
H1185 N1179 0.985 . S
H1186 N1183 0.984 1_556 S
H1187 N1183 0.985 1_556 S
H1188 N1182 0.984 . S
H1189 N1182 0.984 . S
H1190 N1178 0.984 . S
H1191 N1178 0.985 . S
C1192 C1193 1.363 . S
C1192 C1198 1.379 . S
C1192 N1200 1.356 1_455 S
C1193 C1192 1.363 . S
C1193 C1199 1.363 . S
C1194 C1195 1.363 . S
C1194 C1199 1.379 . S
C1194 N1201 1.356 . S
C1195 C1194 1.363 . S
C1195 C1198 1.363 . S
N1196 C1198 1.356 . S
N1196 H1208 0.984 . S
N1196 H1209 0.985 . S
N1197 C1199 1.358 1_655 S
N1197 H1202 0.982 . S
N1197 H1203 0.985 1_655 S
C1198 C1192 1.379 . S
C1198 C1195 1.363 . S
C1198 N1196 1.356 . S
C1199 C1193 1.363 . S
C1199 C1194 1.379 . S
C1199 N1197 1.358 1_455 S
N1200 C1192 1.356 1_655 S
N1200 H1206 0.988 . S
N1200 H1207 0.984 . S
N1201 C1194 1.356 . S
N1201 H1204 0.984 . S
N1201 H1205 0.985 . S
H1202 N1197 0.982 . S
H1203 N1197 0.985 1_455 S
H1204 N1201 0.984 . S
H1205 N1201 0.985 . S
H1206 N1200 0.988 . S
H1207 N1200 0.984 . S
H1208 N1196 0.984 . S
H1209 N1196 0.985 . S
C1210 C1211 1.363 . S
C1210 C1216 1.379 . S
C1210 N1218 1.356 . S
C1211 C1210 1.363 . S
C1211 C1217 1.363 . S
C1212 C1213 1.363 . S
C1212 C1217 1.379 . S
C1212 N1219 1.356 . S
C1213 C1212 1.363 . S
C1213 C1216 1.363 . S
N1214 C1216 1.356 . S
N1214 H1226 0.984 . S
N1214 H1227 0.985 . S
N1215 C1217 1.356 1_655 S
N1215 H1220 0.984 . S
N1215 H1221 0.985 . S
C1216 C1210 1.379 . S
C1216 C1213 1.363 . S
C1216 N1214 1.356 . S
C1217 C1211 1.363 . S
C1217 C1212 1.379 . S
C1217 N1215 1.356 1_455 S
N1218 C1210 1.356 . S
N1218 H1224 0.984 . S
N1218 H1225 0.984 . S
N1219 C1212 1.356 . S
N1219 H1222 0.984 . S
N1219 H1223 0.985 . S
H1220 N1215 0.984 . S
H1221 N1215 0.985 . S
H1222 N1219 0.984 . S
H1223 N1219 0.985 . S
H1224 N1218 0.984 . S
H1225 N1218 0.984 . S
H1226 N1214 0.984 . S
H1227 N1214 0.985 . S
C1228 C1229 1.363 . S
C1228 C1234 1.379 . S
C1228 N1236 1.356 1_554 S
C1229 C1228 1.363 . S
C1229 C1235 1.363 . S
C1230 C1231 1.363 . S
C1230 C1235 1.379 . S
C1230 N1237 1.356 . S
C1231 C1230 1.363 . S
C1231 C1234 1.363 . S
N1232 C1234 1.356 . S
N1232 H1244 0.984 1_554 S
N1232 H1245 0.985 . S
N1233 C1235 1.356 . S
N1233 H1238 0.984 . S
N1233 H1239 0.985 . S
C1234 C1228 1.379 . S
C1234 C1231 1.363 . S
C1234 N1232 1.356 . S
C1235 C1229 1.363 . S
C1235 C1230 1.379 . S
C1235 N1233 1.356 . S
N1236 C1228 1.356 1_556 S
N1236 H1242 0.984 . S
N1236 H1243 0.984 . S
N1237 C1230 1.356 . S
N1237 H1240 0.984 . S
N1237 H1241 0.985 . S
H1238 N1233 0.984 . S
H1239 N1233 0.985 . S
H1240 N1237 0.984 . S
H1241 N1237 0.985 . S
H1242 N1236 0.984 . S
H1243 N1236 0.984 . S
H1244 N1232 0.984 1_556 S
H1245 N1232 0.985 . S
C1246 C1247 1.363 . S
C1246 C1252 1.379 . S
C1246 N1254 1.356 . S
C1247 C1246 1.363 . S
C1247 C1253 1.363 . S
C1248 C1249 1.363 . S
C1248 C1253 1.379 . S
C1248 N1255 1.356 . S
C1249 C1248 1.363 . S
C1249 C1252 1.363 . S
N1250 C1252 1.356 . S
N1250 H1262 0.984 . S
N1250 H1263 0.985 . S
N1251 C1253 1.356 . S
N1251 H1256 0.984 . S
N1251 H1257 0.985 . S
C1252 C1246 1.379 . S
C1252 C1249 1.363 . S
C1252 N1250 1.356 . S
C1253 C1247 1.363 . S
C1253 C1248 1.379 . S
C1253 N1251 1.356 . S
N1254 C1246 1.356 . S
N1254 H1260 0.984 . S
N1254 H1261 0.984 . S
N1255 C1248 1.356 . S
N1255 H1258 0.984 1_556 S
N1255 H1259 0.985 1_556 S
H1256 N1251 0.984 . S
H1257 N1251 0.985 . S
H1258 N1255 0.984 1_554 S
H1259 N1255 0.985 1_554 S
H1260 N1254 0.984 . S
H1261 N1254 0.984 . S
H1262 N1250 0.984 . S
H1263 N1250 0.985 . S
C1264 C1265 1.363 . S
C1264 C1270 1.379 . S
C1264 N1272 1.356 . S
C1265 C1264 1.363 . S
C1265 C1271 1.363 . S
C1266 C1267 1.363 . S
C1266 C1271 1.379 . S
C1266 N1273 1.356 1_556 S
C1267 C1266 1.363 . S
C1267 C1270 1.363 . S
N1268 C1270 1.356 . S
N1268 H1280 0.984 . S
N1268 H1281 0.985 . S
N1269 C1271 1.356 . S
N1269 H1274 0.984 . S
N1269 H1275 0.985 1_556 S
C1270 C1264 1.379 . S
C1270 C1267 1.363 . S
C1270 N1268 1.356 . S
C1271 C1265 1.363 . S
C1271 C1266 1.379 . S
C1271 N1269 1.356 . S
N1272 C1264 1.356 . S
N1272 H1278 0.984 . S
N1272 H1279 0.984 . S
N1273 C1266 1.356 1_554 S
N1273 H1276 0.984 . S
N1273 H1277 0.985 . S
H1274 N1269 0.984 . S
H1275 N1269 0.985 1_554 S
H1276 N1273 0.984 . S
H1277 N1273 0.985 . S
H1278 N1272 0.984 . S
H1279 N1272 0.984 . S
H1280 N1268 0.984 . S
H1281 N1268 0.985 . S
C1282 C1283 1.363 . S
C1282 C1288 1.379 . S
C1282 N1290 1.356 . S
C1283 C1282 1.363 . S
C1283 C1289 1.363 . S
C1284 C1285 1.363 . S
C1284 C1289 1.379 . S
C1284 N1291 1.356 . S
C1285 C1284 1.363 . S
C1285 C1288 1.363 . S
N1286 C1288 1.356 1_556 S
N1286 H1298 0.984 . S
N1286 H1299 0.985 . S
N1287 C1289 1.356 . S
N1287 H1292 0.984 . S
N1287 H1293 0.985 . S
C1288 C1282 1.379 . S
C1288 C1285 1.363 . S
C1288 N1286 1.356 1_554 S
C1289 C1283 1.363 . S
C1289 C1284 1.379 . S
C1289 N1287 1.356 . S
N1290 C1282 1.356 . S
N1290 H1296 0.984 1_554 S
N1290 H1297 0.984 . S
N1291 C1284 1.356 . S
N1291 H1294 0.984 . S
N1291 H1295 0.985 . S
H1292 N1287 0.984 . S
H1293 N1287 0.985 . S
H1294 N1291 0.984 . S
H1295 N1291 0.985 . S
H1296 N1290 0.984 1_556 S
H1297 N1290 0.984 . S
H1298 N1286 0.984 . S
H1299 N1286 0.985 . S
C1300 C1301 1.363 . S
C1300 C1306 1.379 1_455 S
C1300 N1308 1.356 . S
C1301 C1300 1.363 . S
C1301 C1307 1.363 . S
C1302 C1303 1.363 . S
C1302 C1307 1.379 . S
C1302 N1309 1.356 . S
C1303 C1302 1.363 . S
C1303 C1306 1.363 1_455 S
N1304 C1306 1.356 . S
N1304 H1316 0.984 . S
N1304 H1317 0.985 . S
N1305 C1307 1.356 . S
N1305 H1310 0.984 . S
N1305 H1311 0.985 . S
C1306 C1300 1.379 1_655 S
C1306 C1303 1.363 1_655 S
C1306 N1304 1.356 . S
C1307 C1301 1.363 . S
C1307 C1302 1.379 . S
C1307 N1305 1.356 . S
N1308 C1300 1.356 . S
N1308 H1314 0.984 1_455 S
N1308 H1315 0.984 . S
N1309 C1302 1.356 . S
N1309 H1312 0.984 . S
N1309 H1313 0.985 . S
H1310 N1305 0.984 . S
H1311 N1305 0.985 . S
H1312 N1309 0.984 . S
H1313 N1309 0.985 . S
H1314 N1308 0.984 1_655 S
H1315 N1308 0.984 . S
H1316 N1304 0.984 . S
H1317 N1304 0.985 . S
C1318 C1319 1.363 . S
C1318 C1324 1.379 . S
C1318 N1326 1.356 . S
C1319 C1318 1.363 . S
C1319 C1325 1.363 . S
C1320 C1321 1.363 . S
C1320 C1325 1.379 . S
C1320 N1327 1.356 . S
C1321 C1320 1.363 . S
C1321 C1324 1.363 . S
N1322 C1324 1.356 1_655 S
N1322 H1334 0.984 . S
N1322 H1335 0.985 . S
N1323 C1325 1.356 . S
N1323 H1328 0.984 . S
N1323 H1329 0.985 . S
C1324 C1318 1.379 . S
C1324 C1321 1.363 . S
C1324 N1322 1.356 1_455 S
C1325 C1319 1.363 . S
C1325 C1320 1.379 . S
C1325 N1323 1.356 . S
N1326 C1318 1.356 . S
N1326 H1332 0.984 . S
N1326 H1333 0.984 . S
N1327 C1320 1.356 . S
N1327 H1330 1.008 . S
N1327 H1331 0.985 . S
H1328 N1323 0.984 . S
H1329 N1323 0.985 . S
H1330 N1327 1.008 . S
H1331 N1327 0.985 . S
H1332 N1326 0.984 . S
H1333 N1326 0.984 . S
H1334 N1322 0.984 . S
H1335 N1322 0.985 . S
C1336 C1337 1.363 . S
C1336 C1342 1.379 . S
C1336 N1344 1.356 . S
C1337 C1336 1.363 . S
C1337 C1343 1.363 . S
C1338 C1339 1.363 . S
C1338 C1343 1.379 . S
C1338 N1345 1.356 1_554 S
C1339 C1338 1.363 . S
C1339 C1342 1.363 . S
N1340 C1342 1.356 . S
N1340 H1352 0.984 . S
N1340 H1353 0.985 . S
N1341 C1343 1.356 . S
N1341 H1346 0.984 . S
N1341 H1347 0.985 . S
C1342 C1336 1.379 . S
C1342 C1339 1.363 . S
C1342 N1340 1.356 . S
C1343 C1337 1.363 . S
C1343 C1338 1.379 . S
C1343 N1341 1.356 . S
N1344 C1336 1.356 . S
N1344 H1350 0.984 . S
N1344 H1351 0.984 . S
N1345 C1338 1.356 1_556 S
N1345 H1348 0.984 . S
N1345 H1349 0.985 . S
H1346 N1341 0.984 . S
H1347 N1341 0.985 . S
H1348 N1345 0.984 . S
H1349 N1345 0.985 . S
H1350 N1344 0.984 . S
H1351 N1344 0.984 . S
H1352 N1340 0.984 . S
H1353 N1340 0.985 . S
C1354 C1355 1.363 . S
C1354 C1360 1.379 . S
C1354 N1362 1.356 1_556 S
C1355 C1354 1.363 . S
C1355 C1361 1.363 . S
C1356 C1357 1.363 . S
C1356 C1361 1.379 . S
C1356 N1363 1.356 . S
C1357 C1356 1.363 . S
C1357 C1360 1.363 . S
N1358 C1360 1.356 . S
N1358 H1370 0.984 1_556 S
N1358 H1371 0.985 . S
N1359 C1361 1.356 . S
N1359 H1364 0.984 . S
N1359 H1365 0.985 . S
C1360 C1354 1.379 . S
C1360 C1357 1.363 . S
C1360 N1358 1.356 . S
C1361 C1355 1.363 . S
C1361 C1356 1.379 . S
C1361 N1359 1.356 . S
N1362 C1354 1.356 1_554 S
N1362 H1368 0.984 . S
N1362 H1369 0.984 . S
N1363 C1356 1.356 . S
N1363 H1366 0.984 . S
N1363 H1367 0.985 . S
H1364 N1359 0.984 . S
H1365 N1359 0.985 . S
H1366 N1363 0.984 . S
H1367 N1363 0.985 . S
H1368 N1362 0.984 . S
H1369 N1362 0.984 . S
H1370 N1358 0.984 1_554 S
H1371 N1358 0.985 . S
C1372 C1373 1.363 . S
C1372 C1378 1.379 . S
C1372 N1380 1.356 . S
C1373 C1372 1.363 . S
C1373 C1379 1.363 . S
C1374 C1375 1.363 . S
C1374 C1379 1.379 . S
C1374 N1381 1.356 . S
C1375 C1374 1.363 . S
C1375 C1378 1.363 . S
N1376 C1378 1.356 . S
N1376 H1388 0.984 . S
N1376 H1389 0.985 . S
N1377 C1379 1.356 . S
N1377 H1382 0.984 . S
N1377 H1383 0.985 . S
C1378 C1372 1.379 . S
C1378 C1375 1.363 . S
C1378 N1376 1.356 . S
C1379 C1373 1.363 . S
C1379 C1374 1.379 . S
C1379 N1377 1.356 . S
N1380 C1372 1.356 . S
N1380 H1386 0.984 . S
N1380 H1387 0.984 . S
N1381 C1374 1.356 . S
N1381 H1384 0.984 . S
N1381 H1385 0.985 . S
H1382 N1377 0.984 . S
H1383 N1377 0.985 . S
H1384 N1381 0.984 . S
H1385 N1381 0.985 . S
H1386 N1380 0.984 . S
H1387 N1380 0.984 . S
H1388 N1376 0.984 . S
H1389 N1376 0.985 . S
C1390 C1391 1.363 . S
C1390 C1396 1.379 . S
C1390 N1398 1.356 . S
C1391 C1390 1.363 . S
C1391 C1397 1.363 . S
C1392 C1393 1.363 . S
C1392 C1397 1.379 . S
C1392 N1399 1.356 . S
C1393 C1392 1.363 . S
C1393 C1396 1.363 . S
N1394 C1396 1.356 . S
N1394 H1406 0.984 . S
N1394 H1407 0.985 . S
N1395 C1397 1.356 . S
N1395 H1400 0.984 . S
N1395 H1401 0.985 . S
C1396 C1390 1.379 . S
C1396 C1393 1.363 . S
C1396 N1394 1.356 . S
C1397 C1391 1.363 . S
C1397 C1392 1.379 . S
C1397 N1395 1.356 . S
N1398 C1390 1.356 . S
N1398 H1404 0.984 . S
N1398 H1405 0.984 . S
N1399 C1392 1.356 . S
N1399 H1402 0.984 . S
N1399 H1403 0.985 . S
H1400 N1395 0.984 . S
H1401 N1395 0.985 . S
H1402 N1399 0.984 . S
H1403 N1399 0.985 . S
H1404 N1398 0.984 . S
H1405 N1398 0.984 . S
H1406 N1394 0.984 . S
H1407 N1394 0.985 . S
C545 C8 2.174 1_556 S
C547 C267 2.163 . S
C563 C42 2.174 . S
C565 C165 2.163 1_554 S
C581 C199 2.163 . S
C583 C76 2.174 . S
C599 C110 2.174 . S
C601 C233 2.163 . S
C617 C374 2.163 1_455 S
C619 C153 2.174 1_554 S
C635 C289 2.174 1_455 S
C637 C0 2.163 1_556 S
C653 C340 2.163 . S
C655 C221 2.174 . S
C671 C68 2.163 . S
C673 C323 2.174 . S
C689 C335 2.163 . S
C691 C416 2.174 . S
C707 C348 2.174 . S
C709 C505 2.163 . S
C725 C450 2.174 1_556 S
C727 C301 2.163 1_455 S
C743 C382 2.174 1_455 S
C745 C539 2.163 1_554 S
C761 C493 2.174 . S
C763 C102 2.163 . S
C779 C408 2.163 . S
C781 C187 2.174 . S
C797 C34 2.163 . S
C799 C527 2.174 1_554 S
C815 C255 2.174 . S
C817 C442 2.163 1_556 S
C833 C455 0.870 . S
C835 C13 0.870 . S
C851 C387 0.869 . S
C853 C47 0.869 . S
C869 C421 0.869 . S
C871 C81 0.869 . S
C887 C353 0.869 . S
C889 C115 0.869 . S
C905 C140 0.870 . S
C907 C514 0.870 . S
C923 C310 0.869 . S
C925 C174 0.869 . S
C941 C208 0.869 . S
C943 C480 0.869 . S
C959 C242 0.869 . S
C961 C276 0.869 . S
C977 C4 1.583 . S
C979 C149 1.583 . S
C995 C38 1.583 . S
C997 C183 1.583 . S
C1013 C217 1.583 . S
C1015 C72 1.583 . S
C1031 C106 1.583 . S
C1033 C251 1.583 . S
C1049 C344 1.583 . S
C1051 C285 1.583 . S
C1067 C378 1.583 . S
C1069 C319 1.583 . S
C1085 C412 1.583 . S
C1087 C489 1.583 . S
C1103 C523 1.583 . S
C1105 C446 1.583 . S
C1121 C29 1.983 . S
C1123 C246 1.950 . S
C1139 C63 1.983 . S
C1141 C144 1.950 . S
C1157 C178 1.950 . S
C1159 C97 1.983 . S
C1175 C212 1.950 . S
C1177 C131 1.983 . S
C1193 C391 1.950 1_455 S
C1195 C136 1.983 . S
C1211 C272 1.983 1_455 S
C1213 C17 1.950 . S
C1229 C357 1.950 . S
C1231 C204 1.983 . S
C1247 C85 1.950 . S
C1249 C306 1.983 . S
C1265 C437 1.983 . S
C1267 C314 1.950 . S
C1283 C484 1.950 . S
C1285 C369 1.983 . S
C1301 C471 1.983 . S
C1303 C280 1.950 1_455 S
C1319 C518 1.950 . S
C1321 C403 1.983 1_455 S
C1337 C476 1.983 . S
C1339 C119 1.950 . S
C1355 C170 1.983 . S
C1357 C425 1.950 . S
C1373 C51 1.950 . S
C1375 C510 1.983 . S
C1391 C459 1.950 . S
C1393 C238 1.983 . S
