# Generated by pormake.
# Topology wmg, (6)-cn, num edge types: 1
# Building blocks:
#     Node 0, Type 0, BuildingBlock: VOLQOD_clean_sbu_1, # of connection points: 6
#     Node 1, Type 0, BuildingBlock: VOLQOD_clean_sbu_1, # of connection points: 6
#     Node 2, Type 0, BuildingBlock: VOLQOD_clean_sbu_1, # of connection points: 6
#     Node 3, Type 0, BuildingBlock: VOLQOD_clean_sbu_1, # of connection points: 6
#     Node 4, Type 0, BuildingBlock: VOLQOD_clean_sbu_1, # of connection points: 6
#     Node 5, Type 0, BuildingBlock: VOLQOD_clean_sbu_1, # of connection points: 6
#     Node 6, Type 0, BuildingBlock: VOLQOD_clean_sbu_1, # of connection points: 6
#     Node 7, Type 0, BuildingBlock: VOLQOD_clean_sbu_1, # of connection points: 6
#     Node 8, Type 0, BuildingBlock: VOLQOD_clean_sbu_1, # of connection points: 6
#     Node 9, Type 0, BuildingBlock: VOLQOD_clean_sbu_1, # of connection points: 6
#     Node 10, Type 0, BuildingBlock: VOLQOD_clean_sbu_1, # of connection points: 6
#     Node 11, Type 0, BuildingBlock: VOLQOD_clean_sbu_1, # of connection points: 6
#     Node 12, Type 0, BuildingBlock: VOLQOD_clean_sbu_1, # of connection points: 6
#     Node 13, Type 0, BuildingBlock: VOLQOD_clean_sbu_1, # of connection points: 6
#     Node 14, Type 0, BuildingBlock: VOLQOD_clean_sbu_1, # of connection points: 6
#     Node 15, Type 0, BuildingBlock: VOLQOD_clean_sbu_1, # of connection points: 6
#     Node 16, Type 0, BuildingBlock: VOLQOD_clean_sbu_1, # of connection points: 6
#     Node 17, Type 0, BuildingBlock: VOLQOD_clean_sbu_1, # of connection points: 6
#     Edge 18, Type (0, 0), BuildingBlock: CIFDUS_clean_linker_0, # of connection points: 2
#     Edge 19, Type (0, 0), BuildingBlock: CIFDUS_clean_linker_0, # of connection points: 2
#     Edge 20, Type (0, 0), BuildingBlock: CIFDUS_clean_linker_0, # of connection points: 2
#     Edge 21, Type (0, 0), BuildingBlock: CIFDUS_clean_linker_0, # of connection points: 2
#     Edge 22, Type (0, 0), BuildingBlock: CIFDUS_clean_linker_0, # of connection points: 2
#     Edge 23, Type (0, 0), BuildingBlock: CIFDUS_clean_linker_0, # of connection points: 2
#     Edge 24, Type (0, 0), BuildingBlock: CIFDUS_clean_linker_0, # of connection points: 2
#     Edge 25, Type (0, 0), BuildingBlock: CIFDUS_clean_linker_0, # of connection points: 2
#     Edge 26, Type (0, 0), BuildingBlock: CIFDUS_clean_linker_0, # of connection points: 2
#     Edge 27, Type (0, 0), BuildingBlock: CIFDUS_clean_linker_0, # of connection points: 2
#     Edge 28, Type (0, 0), BuildingBlock: CIFDUS_clean_linker_0, # of connection points: 2
#     Edge 29, Type (0, 0), BuildingBlock: CIFDUS_clean_linker_0, # of connection points: 2
#     Edge 30, Type (0, 0), BuildingBlock: CIFDUS_clean_linker_0, # of connection points: 2
#     Edge 31, Type (0, 0), BuildingBlock: CIFDUS_clean_linker_0, # of connection points: 2
#     Edge 32, Type (0, 0), BuildingBlock: CIFDUS_clean_linker_0, # of connection points: 2
#     Edge 33, Type (0, 0), BuildingBlock: CIFDUS_clean_linker_0, # of connection points: 2
#     Edge 34, Type (0, 0), BuildingBlock: CIFDUS_clean_linker_0, # of connection points: 2
#     Edge 35, Type (0, 0), BuildingBlock: CIFDUS_clean_linker_0, # of connection points: 2
#     Edge 36, Type (0, 0), BuildingBlock: CIFDUS_clean_linker_0, # of connection points: 2
#     Edge 37, Type (0, 0), BuildingBlock: CIFDUS_clean_linker_0, # of connection points: 2
#     Edge 38, Type (0, 0), BuildingBlock: CIFDUS_clean_linker_0, # of connection points: 2
#     Edge 39, Type (0, 0), BuildingBlock: CIFDUS_clean_linker_0, # of connection points: 2
#     Edge 40, Type (0, 0), BuildingBlock: CIFDUS_clean_linker_0, # of connection points: 2
#     Edge 41, Type (0, 0), BuildingBlock: CIFDUS_clean_linker_0, # of connection points: 2
#     Edge 42, Type (0, 0), BuildingBlock: CIFDUS_clean_linker_0, # of connection points: 2
#     Edge 43, Type (0, 0), BuildingBlock: CIFDUS_clean_linker_0, # of connection points: 2
#     Edge 44, Type (0, 0), BuildingBlock: CIFDUS_clean_linker_0, # of connection points: 2
#     Edge 45, Type (0, 0), BuildingBlock: CIFDUS_clean_linker_0, # of connection points: 2
#     Edge 46, Type (0, 0), BuildingBlock: CIFDUS_clean_linker_0, # of connection points: 2
#     Edge 47, Type (0, 0), BuildingBlock: CIFDUS_clean_linker_0, # of connection points: 2
#     Edge 48, Type (0, 0), BuildingBlock: CIFDUS_clean_linker_0, # of connection points: 2
#     Edge 49, Type (0, 0), BuildingBlock: CIFDUS_clean_linker_0, # of connection points: 2
#     Edge 50, Type (0, 0), BuildingBlock: CIFDUS_clean_linker_0, # of connection points: 2
#     Edge 51, Type (0, 0), BuildingBlock: CIFDUS_clean_linker_0, # of connection points: 2
#     Edge 52, Type (0, 0), BuildingBlock: CIFDUS_clean_linker_0, # of connection points: 2
#     Edge 53, Type (0, 0), BuildingBlock: CIFDUS_clean_linker_0, # of connection points: 2
#     Edge 54, Type (0, 0), BuildingBlock: CIFDUS_clean_linker_0, # of connection points: 2
#     Edge 55, Type (0, 0), BuildingBlock: CIFDUS_clean_linker_0, # of connection points: 2
#     Edge 56, Type (0, 0), BuildingBlock: CIFDUS_clean_linker_0, # of connection points: 2
#     Edge 57, Type (0, 0), BuildingBlock: CIFDUS_clean_linker_0, # of connection points: 2
#     Edge 58, Type (0, 0), BuildingBlock: CIFDUS_clean_linker_0, # of connection points: 2
#     Edge 59, Type (0, 0), BuildingBlock: CIFDUS_clean_linker_0, # of connection points: 2
#     Edge 60, Type (0, 0), BuildingBlock: CIFDUS_clean_linker_0, # of connection points: 2
#     Edge 61, Type (0, 0), BuildingBlock: CIFDUS_clean_linker_0, # of connection points: 2
#     Edge 62, Type (0, 0), BuildingBlock: CIFDUS_clean_linker_0, # of connection points: 2
#     Edge 63, Type (0, 0), BuildingBlock: CIFDUS_clean_linker_0, # of connection points: 2
#     Edge 64, Type (0, 0), BuildingBlock: CIFDUS_clean_linker_0, # of connection points: 2
#     Edge 65, Type (0, 0), BuildingBlock: CIFDUS_clean_linker_0, # of connection points: 2
#     Edge 66, Type (0, 0), BuildingBlock: CIFDUS_clean_linker_0, # of connection points: 2
#     Edge 67, Type (0, 0), BuildingBlock: CIFDUS_clean_linker_0, # of connection points: 2
#     Edge 68, Type (0, 0), BuildingBlock: CIFDUS_clean_linker_0, # of connection points: 2
#     Edge 69, Type (0, 0), BuildingBlock: CIFDUS_clean_linker_0, # of connection points: 2
#     Edge 70, Type (0, 0), BuildingBlock: CIFDUS_clean_linker_0, # of connection points: 2
#     Edge 71, Type (0, 0), BuildingBlock: CIFDUS_clean_linker_0, # of connection points: 2
# Relax obj value: 0.414
# Max RMSD: 0.275
# Mean RMSD: 0.275
data_MOF--net-wmg--node1-VOLQOD_clean_sbu_1--edge1-CIFDUS_clean_linker_0
_symmetry_space_group_name_H-M    P1
_symmetry_Int_Tables_number       1
_symmetry_cell_setting            triclinic
loop_
_symmetry_equiv_pos_as_xyz
'x, y, z'
_cell_length_a     56.427935
_cell_length_b     56.517291
_cell_length_c     23.566491
_cell_angle_alpha  90.048859
_cell_angle_beta   90.016812
_cell_angle_gamma 119.87924
loop_
_atom_site_label
_atom_site_type_symbol
_atom_site_fract_x
_atom_site_fract_y
_atom_site_fract_z
_atom_type_partial_charge
O0 O 0.14774 0.28894 0.0086 0.0
Zn1 Zn 0.16969 0.28577 0.07196 0.0
O2 O 0.16693 0.24998 0.06895 0.0
Zn3 Zn 0.15374 0.23089 0.14079 0.0
Zn4 Zn 0.14259 0.22792 0.00956 0.0
Zn5 Zn 0.20216 0.25513 0.05062 0.0
O6 O 0.18123 0.22152 0.17529 0.0
O7 O 0.21702 0.24848 0.12095 0.0
O8 O 0.1599 0.29361 0.1497 0.0
O9 O 0.15219 0.25649 0.1971 0.0
O10 O 0.114 0.20038 0.13437 0.0
O11 O 0.10635 0.20238 0.04229 0.0
O12 O 0.15637 0.20632 0.967 0.0
O13 O 0.20767 0.31625 0.05263 0.0
O14 O 0.20029 0.22901 0.99044 0.0
O15 O 0.22789 0.29324 0.02474 0.0
C16 C 0.14011 0.27585 0.96186 0.0
C17 C 0.20689 0.23394 0.16512 0.0
C18 C 0.09797 0.19272 0.0916 0.0
C19 C 0.15435 0.27998 0.1957 0.0
C20 C 0.18057 0.21041 0.96215 0.0
C21 C 0.22796 0.31566 0.03064 0.0
O22 O 0.13871 0.25281 0.95525 0.0
O23 O 0.69707 0.85225 0.00848 0.0
Zn24 Zn 0.69507 0.87477 0.07283 0.0
O25 O 0.72747 0.91081 0.07402 0.0
Zn26 Zn 0.74611 0.9174 0.14613 0.0
Zn27 Zn 0.75158 0.91316 0.01402 0.0
Zn28 Zn 0.71762 0.93828 0.06078 0.0
O29 O 0.75178 0.95257 0.18216 0.0
O30 O 0.72016 0.95706 0.13425 0.0
O31 O 0.68739 0.85635 0.15057 0.0
O32 O 0.7221 0.88808 0.20055 0.0
O33 O 0.77962 0.9131 0.13885 0.0
O34 O 0.77982 0.9058 0.04602 0.0
O35 O 0.77039 0.95013 0.97767 0.0
O36 O 0.66263 0.87745 0.04712 0.0
O37 O 0.74434 0.96694 0.00667 0.0
O38 O 0.67958 0.92155 0.02843 0.0
C39 C 0.70919 0.86084 0.96092 0.0
C40 C 0.73645 0.9631 0.17621 0.0
C41 C 0.78936 0.90726 0.09564 0.0
C42 C 0.70017 0.86514 0.19755 0.0
C43 C 0.76447 0.9691 0.97792 0.0
C44 C 0.65993 0.89701 0.02801 0.0
O45 O 0.72959 0.88482 0.95545 0.0
O46 O 0.11935 0.81089 0.01233 0.0
Zn47 Zn 0.0938 0.79504 0.07853 0.0
O48 O 0.06398 0.80285 0.07329 0.0
Zn49 Zn 0.06466 0.82457 0.13862 0.0
Zn50 Zn 0.06813 0.82267 0.00459 0.0
Zn51 Zn 0.0296 0.76933 0.06762 0.0
O52 O 0.03025 0.80364 0.18562 0.0
O53 O 0.00972 0.76345 0.14083 0.0
O54 O 0.11438 0.80834 0.15199 0.0
O55 O 0.09405 0.82912 0.19189 0.0
O56 O 0.0752 0.86355 0.11633 0.0
O57 O 0.08258 0.86113 0.02449 0.0
O58 O 0.03287 0.81068 0.96398 0.0
O59 O 0.07989 0.75498 0.07048 0.0
O60 O 0.00588 0.77095 0.00556 0.0
O61 O 0.03574 0.7378 0.05215 0.0
C62 C 0.11548 0.81757 0.96305 0.0
C63 C 0.01137 0.77873 0.18215 0.0
C64 C 0.08353 0.87487 0.068 0.0
C65 C 0.11196 0.82176 0.19283 0.0
C66 C 0.00991 0.78899 0.9686 0.0
C67 C 0.05671 0.73499 0.05675 0.0
O68 O 0.09502 0.82059 0.95242 0.0
O69 O 0.81831 0.69185 0.98143 0.0
Zn70 Zn 0.7962 0.69958 0.92547 0.0
O71 O 0.8049 0.73733 0.93094 0.0
Zn72 Zn 0.81801 0.75608 0.85907 0.0
Zn73 Zn 0.83187 0.75491 0.98814 0.0
Zn74 Zn 0.77368 0.73886 0.95543 0.0
O75 O 0.79254 0.76882 0.82779 0.0
O76 O 0.75758 0.74562 0.88681 0.0
O77 O 0.80163 0.68985 0.84613 0.0
O78 O 0.81541 0.72908 0.80121 0.0
O79 O 0.85897 0.78309 0.8625 0.0
O80 O 0.86755 0.77327 0.94918 0.0
O81 O 0.82718 0.78304 0.0311 0.0
O82 O 0.75772 0.67424 0.952 0.0
O83 O 0.78349 0.76878 0.01252 0.0
O84 O 0.74635 0.70329 0.98936 0.0
C85 C 0.82633 0.70265 0.03021 0.0
C86 C 0.76734 0.75874 0.84081 0.0
C87 C 0.87562 0.78472 0.90108 0.0
C88 C 0.80914 0.70413 0.80099 0.0
C89 C 0.80576 0.7848 0.03787 0.0
C90 C 0.74167 0.67905 0.98154 0.0
O91 O 0.83 0.72631 0.04148 0.0
O92 O 0.29573 0.12347 0.96779 0.0
Zn93 Zn 0.29269 0.10161 0.89913 0.0
O94 O 0.25518 0.07326 0.88934 0.0
Zn95 Zn 0.24107 0.07496 0.81555 0.0
Zn96 Zn 0.23272 0.07505 0.9483 0.0
Zn97 Zn 0.25415 0.03945 0.89657 0.0
O98 O 0.23143 0.0409 0.76853 0.0
O99 O 0.25516 0.02637 0.819 0.0
O100 O 0.30729 0.12543 0.83005 0.0
O101 O 0.27127 0.10558 0.77278 0.0
O102 O 0.21186 0.086 0.82258 0.0
O103 O 0.21235 0.09209 0.91621 0.0
O104 O 0.20463 0.03795 0.97553 0.0
O105 O 0.317 0.08641 0.92032 0.0
O106 O 0.2184 0.01214 0.93136 0.0
O107 O 0.28638 0.0437 0.94205 0.0
C108 C 0.28073 0.11762 0.01177 0.0
C109 C 0.24292 0.02642 0.77361 0.0
C110 C 0.20438 0.09372 0.86663 0.0
C111 C 0.29588 0.1239 0.78248 0.0
C112 C 0.20136 0.01471 0.96245 0.0
C113 C 0.31085 0.06366 0.94322 0.0
O114 O 0.25618 0.09793 0.01229 0.0
O115 O 0.85887 0.17608 0.97468 0.0
Zn116 Zn 0.88754 0.19583 0.9167 0.0
O117 O 0.91465 0.18444 0.91803 0.0
Zn118 Zn 0.91491 0.16798 0.84515 0.0
Zn119 Zn 0.90559 0.15845 0.97783 0.0
Zn120 Zn 0.94933 0.21515 0.93761 0.0
O121 O 0.95257 0.18974 0.80845 0.0
O122 O 0.97236 0.22499 0.86825 0.0
O123 O 0.86971 0.19017 0.84184 0.0
O124 O 0.88873 0.17094 0.79118 0.0
O125 O 0.899 0.12663 0.85328 0.0
O126 O 0.88581 0.1217 0.94378 0.0
O127 O 0.93868 0.1626 0.01944 0.0
O128 O 0.90307 0.23477 0.93946 0.0
O129 O 0.96831 0.20578 -0.00145 0.0
O130 O 0.94548 0.24703 0.96473 0.0
C131 C 0.86103 0.16687 0.02235 0.0
C132 C 0.97238 0.21327 0.82198 0.0
C133 C 0.88593 0.11166 0.89557 0.0
C134 C 0.87213 0.17994 0.79574 0.0
C135 C 0.96197 0.18387 0.02536 0.0
C136 C 0.92589 0.25206 0.96092 0.0
O137 O 0.88024 0.1618 0.03247 0.0
O138 O 0.81306 0.6258 0.35949 0.0
Zn139 Zn 0.84067 0.62914 0.41713 0.0
O140 O 0.84515 0.59745 0.4166 0.0
Zn141 Zn 0.83292 0.5782 0.4875 0.0
Zn142 Zn 0.82324 0.5752 0.35551 0.0
Zn143 Zn 0.88213 0.607 0.40129 0.0
O144 O 0.86232 0.57154 0.52135 0.0
O145 O 0.89839 0.60323 0.47372 0.0
O146 O 0.83173 0.63707 0.49514 0.0
O147 O 0.82858 0.60208 0.54404 0.0
O148 O 0.79424 0.54617 0.47905 0.0
O149 O 0.78692 0.54878 0.38687 0.0
O150 O 0.83975 0.55496 0.31862 0.0
O151 O 0.87466 0.66123 0.38789 0.0
O152 O 0.88307 0.58012 0.34521 0.0
O153 O 0.90329 0.64563 0.37112 0.0
C154 C 0.81307 0.61785 0.3089 0.0
C155 C 0.88819 0.58662 0.51512 0.0
C156 C 0.77841 0.53864 0.43591 0.0
C157 C 0.82793 0.62422 0.54172 0.0
C158 C 0.8644 0.56011 0.31738 0.0
C159 C 0.89737 0.66466 0.36971 0.0
O160 O 0.81944 0.59956 0.29878 0.0
O161 O 0.35637 0.19904 0.3162 0.0
Zn162 Zn 0.36082 0.22474 0.37806 0.0
O163 O 0.39816 0.25478 0.38102 0.0
Zn164 Zn 0.4123 0.2574 0.45788 0.0
Zn165 Zn 0.4204 0.2486 0.32741 0.0
Zn166 Zn 0.39873 0.28771 0.35766 0.0
O167 O 0.42437 0.2949 0.49107 0.0
O168 O 0.41091 0.31322 0.42343 0.0
O169 O 0.34831 0.20503 0.45154 0.0
O170 O 0.38262 0.23082 0.50939 0.0
O171 O 0.44021 0.24452 0.45998 0.0
O172 O 0.44214 0.2355 0.36866 0.0
O173 O 0.44546 0.28186 0.28232 0.0
O174 O 0.33455 0.23716 0.3567 0.0
O175 O 0.42496 0.30637 0.2935 0.0
O176 O 0.36158 0.28049 0.33336 0.0
C177 C 0.37157 0.20076 0.27477 0.0
C178 C 0.42097 0.31422 0.47236 0.0
C179 C 0.44882 0.23546 0.42013 0.0
C180 C 0.35883 0.21062 0.50085 0.0
C181 C 0.44297 0.3024 0.2699 0.0
C182 C 0.33787 0.25956 0.33724 0.0
O183 O 0.39642 0.21965 0.27204 0.0
O184 O 0.78362 0.14948 0.34777 0.0
Zn185 Zn 0.75667 0.12739 0.40649 0.0
O186 O 0.72832 0.13719 0.41064 0.0
Zn187 Zn 0.72939 0.15285 0.48512 0.0
Zn188 Zn 0.73369 0.16316 0.35183 0.0
Zn189 Zn 0.69386 0.10477 0.39721 0.0
O190 O 0.69401 0.12937 0.52825 0.0
O191 O 0.67513 0.09263 0.47204 0.0
O192 O 0.77681 0.13314 0.47901 0.0
O193 O 0.7585 0.15207 0.53265 0.0
O194 O 0.74208 0.19339 0.47963 0.0
O195 O 0.74847 0.19991 0.38651 0.0
O196 O 0.6988 0.15404 0.31126 0.0
O197 O 0.7424 0.08892 0.38031 0.0
O198 O 0.67081 0.11197 0.34232 0.0
O199 O 0.69865 0.07457 0.36413 0.0
C200 C 0.78158 0.16108 0.3034 0.0
C201 C 0.67614 0.10449 0.51873 0.0
C202 C 0.7502 0.20913 0.43653 0.0
C203 C 0.77552 0.14378 0.52552 0.0
C204 C 0.67557 0.13239 0.31154 0.0
C205 C 0.71911 0.07086 0.36213 0.0
O206 O 0.76163 0.1653 0.29586 0.0
O207 O 0.48565 0.02473 0.31577 0.0
Zn208 Zn 0.46666 0.02951 0.24723 0.0
O209 O 0.47015 0.06571 0.2479 0.0
Zn210 Zn 0.48475 0.0847 0.17626 0.0
Zn211 Zn 0.49412 0.08701 0.3084 0.0
Zn212 Zn 0.43523 0.0625 0.26263 0.0
O213 O 0.4581 0.09398 0.13679 0.0
O214 O 0.42133 0.06926 0.19027 0.0
O215 O 0.47879 0.02176 0.17117 0.0
O216 O 0.48798 0.05913 0.1228 0.0
O217 O 0.52425 0.11531 0.18487 0.0
O218 O 0.5308 0.11147 0.27679 0.0
O219 O 0.48143 0.11013 0.34729 0.0
O220 O 0.42769 0.00048 0.26154 0.0
O221 O 0.43787 0.09002 0.32116 0.0
O222 O 0.40823 0.02463 0.28752 0.0
C223 C 0.49421 0.03864 0.36147 0.0
C224 C 0.43238 0.08292 0.14549 0.0
C225 C 0.5398 0.12188 0.22828 0.0
C226 C 0.48586 0.03568 0.12533 0.0
C227 C 0.45797 0.10805 0.34975 0.0
C228 C 0.40742 0.00185 0.28138 0.0
O229 O 0.49708 0.0624 0.36552 0.0
O230 O 0.96515 0.45751 0.32225 0.0
Zn231 Zn 0.9578 0.4294 0.26409 0.0
O232 O 0.91957 0.40315 0.26163 0.0
Zn233 Zn 0.90433 0.40398 0.18827 0.0
Zn234 Zn 0.90194 0.41145 0.32065 0.0
Zn235 Zn 0.91498 0.36818 0.27768 0.0
O236 O 0.89189 0.36802 0.14611 0.0
O237 O 0.91142 0.35081 0.2025 0.0
O238 O 0.97222 0.44793 0.19062 0.0
O239 O 0.93443 0.43137 0.13899 0.0
O240 O 0.87855 0.41966 0.19514 0.0
O241 O 0.88711 0.4331 0.28557 0.0
O242 O 0.87053 0.37725 0.3533 0.0
O243 O 0.97964 0.41267 0.29022 0.0
O244 O 0.88051 0.34592 0.32297 0.0
O245 O 0.94807 0.37133 0.3181 0.0
C246 C 0.95354 0.45478 0.3699 0.0
C247 C 0.90069 0.35142 0.15531 0.0
C248 C 0.8773 0.43334 0.23713 0.0
C249 C 0.96008 0.44694 0.14459 0.0
C250 C 0.86522 0.35261 0.35024 0.0
C251 C 0.97297 0.39027 0.31509 0.0
O252 O 0.9295 0.43507 0.37952 0.0
O253 O 0.52838 0.49174 0.31861 0.0
Zn254 Zn 0.55418 0.5143 0.25816 0.0
O255 O 0.58301 0.50543 0.25155 0.0
Zn256 Zn 0.58575 0.4959 0.17329 0.0
Zn257 Zn 0.57595 0.47558 0.30097 0.0
Zn258 Zn 0.61633 0.5365 0.2766 0.0
O259 O 0.62213 0.52349 0.13924 0.0
O260 O 0.63739 0.55533 0.207 0.0
O261 O 0.53397 0.50933 0.18535 0.0
O262 O 0.55742 0.49832 0.12593 0.0
O263 O 0.57591 0.45617 0.166 0.0
O264 O 0.56228 0.44216 0.25456 0.0
O265 O 0.61031 0.48082 0.33726 0.0
O266 O 0.56798 0.55233 0.28727 0.0
O267 O 0.63898 0.52501 0.32329 0.0
O268 O 0.60883 0.56276 0.32054 0.0
C269 C 0.52966 0.47744 0.35886 0.0
C270 C 0.6387 0.54756 0.15688 0.0
C271 C 0.56512 0.4373 0.20307 0.0
C272 C 0.53816 0.50331 0.13574 0.0
C273 C 0.63365 0.50195 0.34332 0.0
C274 C 0.58915 0.56767 0.31646 0.0
O275 O 0.54806 0.47063 0.36023 0.0
O276 O 0.49878 0.96233 0.67104 0.0
Zn277 Zn 0.51666 0.9565 0.74028 0.0
O278 O 0.51048 0.91906 0.74063 0.0
Zn279 Zn 0.49429 0.90157 0.8124 0.0
Zn280 Zn 0.48595 0.89809 0.67977 0.0
Zn281 Zn 0.54437 0.91917 0.72837 0.0
O282 O 0.51786 0.88987 0.85445 0.0
O283 O 0.55494 0.90725 0.7996 0.0
O284 O 0.50552 0.96659 0.81546 0.0
O285 O 0.49293 0.92851 0.86386 0.0
O286 O 0.4545 0.87277 0.80388 0.0
O287 O 0.44872 0.87464 0.71095 0.0
O288 O 0.49752 0.87424 0.63893 0.0
O289 O 0.55633 0.98323 0.72585 0.0
O290 O 0.54085 0.89316 0.66603 0.0
O291 O 0.5741 0.95678 0.70707 0.0
C292 C 0.48891 0.94806 0.62614 0.0
C293 C 0.5423 0.89531 0.84486 0.0
C294 C 0.43925 0.86561 0.76008 0.0
C295 C 0.49709 0.95272 0.86119 0.0
C296 C 0.52086 0.87606 0.63592 0.0
C297 C 0.57625 0.98029 0.70979 0.0
O298 O 0.48418 0.92358 0.62306 0.0
O299 O 0.01861 0.532 0.69555 0.0
Zn300 Zn 0.02564 0.55991 0.75402 0.0
O301 O 0.06399 0.58583 0.75756 0.0
Zn302 Zn 0.07907 0.58398 0.8303 0.0
Zn303 Zn 0.08237 0.57965 0.6959 0.0
Zn304 Zn 0.06821 0.62097 0.74782 0.0
O305 O 0.09092 0.61861 0.87633 0.0
O306 O 0.0699 0.6359 0.82499 0.0
O307 O 0.01103 0.54079 0.82715 0.0
O308 O 0.04912 0.55486 0.87695 0.0
O309 O 0.10696 0.57148 0.82091 0.0
O310 O 0.1028 0.56255 0.72803 0.0
O311 O 0.11076 0.61477 0.66016 0.0
O312 O 0.0041 0.57703 0.72689 0.0
O313 O 0.10372 0.64467 0.70805 0.0
O314 O 0.03629 0.61907 0.70471 0.0
C315 C 0.03081 0.53401 0.64899 0.0
C316 C 0.08136 0.63474 0.87066 0.0
C317 C 0.11237 0.56205 0.77662 0.0
C318 C 0.02333 0.54011 0.87174 0.0
C319 C 0.11749 0.63919 0.67299 0.0
C320 C 0.01137 0.60005 0.70409 0.0
O321 O 0.05495 0.55358 0.63955 0.0
O322 O 0.45059 0.47422 0.66564 0.0
Zn323 Zn 0.43062 0.46015 0.73828 0.0
O324 O 0.40084 0.46762 0.74113 0.0
Zn325 Zn 0.39877 0.47965 0.817 0.0
Zn326 Zn 0.40498 0.49395 0.68525 0.0
Zn327 Zn 0.36946 0.43437 0.71914 0.0
O328 O 0.36282 0.45124 0.85437 0.0
O329 O 0.34946 0.4175 0.79074 0.0
O330 O 0.45552 0.47486 0.80493 0.0
O331 O 0.42886 0.48086 0.86542 0.0
O332 O 0.40935 0.52005 0.81515 0.0
O333 O 0.42016 0.5297 0.72366 0.0
O334 O 0.36934 0.4851 0.64854 0.0
O335 O 0.41758 0.42017 0.73389 0.0
O336 O 0.34514 0.44063 0.66554 0.0
O337 O 0.38108 0.40969 0.68153 0.0
C338 C 0.44739 0.48631 0.62332 0.0
C339 C 0.34757 0.42629 0.83944 0.0
C340 C 0.41954 0.53717 0.77435 0.0
C341 C 0.45072 0.48039 0.85446 0.0
C342 C 0.3477 0.46214 0.64233 0.0
C343 C 0.39955 0.40468 0.69845 0.0
O344 O 0.43039 0.49494 0.62433 0.0
O345 O 0.16299 0.35988 0.65118 0.0
Zn346 Zn 0.14044 0.36223 0.58789 0.0
O347 O 0.14353 0.39813 0.58965 0.0
Zn348 Zn 0.15552 0.41616 0.51738 0.0
Zn349 Zn 0.16815 0.42062 0.64752 0.0
Zn350 Zn 0.10893 0.3933 0.61016 0.0
O351 O 0.12651 0.42387 0.48473 0.0
O352 O 0.09129 0.39568 0.53932 0.0
O353 O 0.14923 0.35321 0.51016 0.0
O354 O 0.15661 0.39003 0.46201 0.0
O355 O 0.19555 0.44676 0.52162 0.0
O356 O 0.20419 0.4441 0.61297 0.0
O357 O 0.15598 0.44429 0.68698 0.0
O358 O 0.10296 0.33219 0.6113 0.0
O359 O 0.11204 0.42221 0.66394 0.0
O360 O 0.08694 0.35744 0.64887 0.0
C361 C 0.16954 0.37287 0.69816 0.0
C362 C 0.1008 0.41023 0.49482 0.0
C363 C 0.21213 0.45367 0.56346 0.0
C364 C 0.15443 0.36654 0.4638 0.0
C365 C 0.13213 0.44122 0.69057 0.0
C366 C 0.0858 0.33458 0.64218 0.0
O367 O 0.17074 0.39585 0.70387 0.0
O368 O 0.62703 0.7866 0.65197 0.0
Zn369 Zn 0.62034 0.76035 0.5872 0.0
O370 O 0.58249 0.73088 0.58828 0.0
Zn371 Zn 0.56519 0.7256 0.51491 0.0
Zn372 Zn 0.56256 0.7387 0.64261 0.0
Zn373 Zn 0.58089 0.69816 0.61373 0.0
O374 O 0.55469 0.68794 0.48271 0.0
O375 O 0.5768 0.67614 0.54486 0.0
O376 O 0.63126 0.77827 0.50868 0.0
O377 O 0.59324 0.75143 0.46069 0.0
O378 O 0.53673 0.73819 0.51572 0.0
O379 O 0.54506 0.75645 0.60253 0.0
O380 O 0.53264 0.70466 0.67823 0.0
O381 O 0.64545 0.74637 0.61084 0.0
O382 O 0.54833 0.67602 0.66515 0.0
O383 O 0.61602 0.70735 0.65249 0.0
C384 C 0.61338 0.78271 0.69764 0.0
C385 C 0.56472 0.67292 0.49741 0.0
C386 C 0.5341 0.75286 0.5538 0.0
C387 C 0.61772 0.77116 0.46223 0.0
C388 C 0.53062 0.68144 0.68537 0.0
C389 C 0.64042 0.72645 0.64352 0.0
O390 O 0.58854 0.76374 0.70145 0.0
O391 O 0.19701 0.84112 0.63273 0.0
Zn392 Zn 0.22425 0.85891 0.56965 0.0
O393 O 0.25338 0.85001 0.57542 0.0
Zn394 Zn 0.25529 0.8312 0.50724 0.0
Zn395 Zn 0.24711 0.82718 0.64012 0.0
Zn396 Zn 0.28742 0.88293 0.58759 0.0
O397 O 0.29172 0.85318 0.46661 0.0
O398 O 0.30795 0.89214 0.51507 0.0
O399 O 0.20586 0.84819 0.49333 0.0
O400 O 0.22807 0.82973 0.45142 0.0
O401 O 0.24312 0.79122 0.52222 0.0
O402 O 0.23313 0.78945 0.61391 0.0
O403 O 0.28125 0.83741 0.68363 0.0
O404 O 0.23846 0.89901 0.58276 0.0
O405 O 0.30979 0.87849 0.64891 0.0
O406 O 0.28151 0.91398 0.60781 0.0
C407 C 0.19934 0.83204 0.68065 0.0
C408 C 0.30878 0.87855 0.47279 0.0
C409 C 0.23345 0.77779 0.56801 0.0
C410 C 0.20996 0.83685 0.4506 0.0
C411 C 0.30448 0.85897 0.68289 0.0
C412 C 0.26134 0.91791 0.60114 0.0
O413 O 0.21903 0.82773 0.69101 0.0
H414 H 0.22904 0.14611 0.83904 0.0
H415 H 0.1514 0.07849 0.88887 0.0
H416 H 0.13501 0.10995 0.91445 0.0
H417 H 0.1464 0.15673 0.94009 0.0
H418 H 0.22689 0.22381 0.90328 0.0
H419 H 0.23869 0.19284 0.85496 0.0
C420 C 0.20813 0.13835 0.85309 0.0
C421 C 0.19115 0.11022 0.86107 0.0
C422 C 0.19976 0.1566 0.87162 0.0
C423 C 0.16446 0.10014 0.88127 0.0
C424 C 0.15532 0.11814 0.8967 0.0
C425 C 0.16627 0.16457 0.92029 0.0
C426 C 0.18588 0.19238 0.92564 0.0
C427 C 0.17331 0.14644 0.89481 0.0
C428 C 0.21163 0.20238 0.90027 0.0
C429 C 0.21836 0.18471 0.87258 0.0
H430 H 0.8158 0.98677 0.93658 0.0
H431 H 0.75362 0.00973 0.95218 0.0
H432 H 0.78532 0.05507 0.91591 0.0
H433 H 0.83221 0.08997 0.89402 0.0
H434 H 0.8957 0.06897 0.88557 0.0
H435 H 0.86191 0.02082 0.90331 0.0
C436 C 0.80903 0.00152 0.93103 0.0
C437 C 0.78247 -0.00502 0.94794 0.0
C438 C 0.82763 0.02787 0.9114 0.0
C439 C 0.77403 0.01433 0.94033 0.0
C440 C 0.79213 0.04026 0.9195 0.0
C441 C 0.83838 0.07459 0.89412 0.0
C442 C 0.86611 0.08263 0.88797 0.0
C443 C 0.81917 0.0475 0.90685 0.0
C444 C 0.87428 0.06294 0.8892 0.0
C445 C 0.85503 0.03557 0.90012 0.0
H446 H 0.89428 0.75213 0.8712 0.0
H447 H 0.91985 0.83621 0.9062 0.0
H448 H 0.96713 0.84619 0.91943 0.0
H449 H -0.00187 0.82841 0.94129 0.0
H450 H 0.96937 0.74241 0.92218 0.0
H451 H 0.92641 0.73547 0.88208 0.0
C452 C 0.91056 0.77286 0.87925 0.0
C453 C 0.90403 0.79356 0.88694 0.0
C454 C 0.93689 0.77776 0.89117 0.0
C455 C 0.92476 0.82021 0.89898 0.0
C456 C 0.95161 0.82572 0.90746 0.0
C457 C 0.98269 0.80833 0.92681 0.0
C458 C 0.98663 0.78587 0.93481 0.0
C459 C 0.95752 0.80431 0.90677 0.0
C460 C 0.96652 0.75987 0.91673 0.0
C461 C 0.94203 0.75594 0.89387 0.0
H462 H 0.84044 0.83854 0.02438 0.0
H463 H 0.77283 0.78041 0.1254 0.0
H464 H 0.76801 0.81728 0.16803 0.0
H465 H 0.7762 0.86379 0.1597 0.0
H466 H 0.83737 0.91986 0.04389 0.0
H467 H 0.85257 0.88685 0.02548 0.0
C468 C 0.82529 0.83422 0.05708 0.0
C469 C 0.80696 0.80706 0.07198 0.0
C470 C 0.82156 0.85532 0.07851 0.0
C471 C 0.78702 0.80131 0.11348 0.0
C472 C 0.78427 0.82235 0.13766 0.0
C473 C 0.79375 0.86919 0.13266 0.0
C474 C 0.80591 0.89414 0.10354 0.0
C475 C 0.8005 0.84921 0.11833 0.0
C476 C 0.82806 0.90082 0.06722 0.0
C477 C 0.83638 0.88177 0.05603 0.0
H478 H 0.17864 -0.00424 0.06648 0.0
H479 H 0.16597 0.97975 0.88688 0.0
H480 H 0.12331 0.93757 0.90511 0.0
H481 H 0.09342 0.90287 0.971 0.0
H482 H 0.10904 0.91408 0.15099 0.0
H483 H 0.14584 0.96105 0.13434 0.0
C484 C 0.16627 0.983 0.0317 0.0
C485 C 0.17531 0.99033 0.97555 0.0
C486 C 0.14226 0.95815 0.04267 0.0
C487 C 0.15939 0.97402 0.93039 0.0
C488 C 0.135 0.95008 0.94078 0.0
C489 C 0.10453 0.9157 0.00686 0.0
C490 C 0.09891 0.90486 0.06199 0.0
C491 C 0.12674 0.94159 -0.00335 0.0
C492 C 0.11303 0.92193 0.10805 0.0
C493 C 0.13435 0.94863 0.09843 0.0
H494 H 0.07057 0.21222 0.14763 0.0
H495 H 0.05982 0.14383 0.04763 0.0
H496 H 0.01236 0.13131 0.02775 0.0
H497 H 0.97828 0.14638 0.02084 0.0
H498 H -0.00665 0.22006 0.10605 0.0
H499 H 0.03448 0.22413 0.15008 0.0
C500 C 0.05732 0.19381 0.12388 0.0
C501 C 0.06829 0.17863 0.09989 0.0
C502 C 0.03104 0.18833 0.10854 0.0
C503 C 0.05146 0.1554 0.06737 0.0
C504 C 0.02453 0.14858 0.05524 0.0
C505 C 0.99021 0.1628 0.05044 0.0
C506 C 0.98304 0.18293 0.06039 0.0
C507 C 0.01469 0.16586 0.07279 0.0
C508 C -0.00128 0.20445 0.09786 0.0
C509 C 0.0222 0.20677 0.12289 0.0
H510 H 0.8288 0.50943 0.27615 0.0
H511 H 0.91493 0.56791 0.29146 0.0
H512 H 0.92613 0.5342 0.25561 0.0
H513 H 0.91161 0.48655 0.23445 0.0
H514 H 0.82601 0.42677 0.22674 0.0
H515 H 0.81425 0.46264 0.24363 0.0
C516 C 0.85003 0.51498 0.27062 0.0
C517 C 0.87101 0.54108 0.28732 0.0
C518 C 0.85635 0.49523 0.25133 0.0
C519 C 0.89839 0.54791 0.27972 0.0
C520 C 0.90483 0.52865 0.25916 0.0
C521 C 0.8904 0.48164 0.23448 0.0
C522 C 0.86963 0.45435 0.22879 0.0
C523 C 0.884 0.50204 0.24681 0.0
C524 C 0.84221 0.44782 0.22999 0.0
C525 C 0.83558 0.46826 0.24043 0.0
H526 H 0.51707 0.41283 0.15126 0.0
H527 H 0.57862 0.39827 0.22368 0.0
H528 H 0.54458 0.35031 0.2394 0.0
H529 H 0.49619 0.31718 0.25621 0.0
H530 H 0.43432 0.33528 0.1992 0.0
H531 H 0.46917 0.37692 0.15347 0.0
C532 C 0.52315 0.39867 0.16757 0.0
C533 C 0.55011 0.40868 0.18591 0.0
C534 C 0.50306 0.37198 0.18125 0.0
C535 C 0.55794 0.39066 0.20852 0.0
C536 C 0.53837 0.36343 0.21851 0.0
C537 C 0.49033 0.32985 0.23224 0.0
C538 C 0.46292 0.32359 0.2318 0.0
C539 C 0.51062 0.35448 0.2088 0.0
C540 C 0.45545 0.34008 0.20084 0.0
C541 C 0.47534 0.36384 0.17469 0.0
H542 H 0.56626 0.0986 0.18475 0.0
H543 H 0.57855 0.17261 0.26334 0.0
H544 H 0.62563 0.18512 0.28779 0.0
H545 H 0.65915 0.16983 0.30442 0.0
H546 H 0.64217 0.09128 0.24155 0.0
H547 H 0.60119 0.08539 0.19337 0.0
C548 C 0.5798 0.11808 0.20477 0.0
C549 C 0.56944 0.13502 0.2212 0.0
C550 C 0.60569 0.12371 0.22322 0.0
C551 C 0.58652 0.15969 0.24916 0.0
C552 C 0.6132 0.16652 0.26403 0.0
C553 C 0.64671 0.15177 0.27902 0.0
C554 C 0.65334 0.13091 0.27649 0.0
C555 C 0.62241 0.14792 0.25409 0.0
C556 C 0.63712 0.10741 0.24426 0.0
C557 C 0.61379 0.1041 0.2167 0.0
H558 H 0.49611 0.16077 0.36886 0.0
H559 H 0.4121 0.10088 0.40327 0.0
H560 H 0.40462 0.13614 0.44559 0.0
H561 H 0.41954 0.18461 0.456 0.0
H562 H 0.50078 0.24506 0.40546 0.0
H563 H 0.51241 0.20922 0.3885 0.0
C564 C 0.47636 0.15539 0.38685 0.0
C565 C 0.45458 0.12838 0.38263 0.0
C566 C 0.47189 0.17598 0.40851 0.0
C567 C 0.42902 0.12163 0.40551 0.0
C568 C 0.42478 0.14175 0.42979 0.0
C569 C 0.44017 0.18988 0.44391 0.0
C570 C 0.45954 0.21726 0.43315 0.0
C571 C 0.44575 0.16911 0.42943 0.0
C572 C 0.48588 0.22408 0.41532 0.0
C573 C 0.49228 0.20356 0.40463 0.0
H574 H 0.75115 0.24831 0.3698 0.0
H575 H 0.78872 0.2361 0.51763 0.0
H576 H 0.82777 0.28224 0.50799 0.0
H577 H 0.85492 0.32219 0.44576 0.0
H578 H 0.81683 0.33414 0.2986 0.0
H579 H 0.77422 0.29205 0.31948 0.0
C580 C 0.76742 0.2562 0.40112 0.0
C581 C 0.76729 0.23887 0.44392 0.0
C582 C 0.78999 0.28244 0.39451 0.0
C583 C 0.78835 0.24918 0.48449 0.0
C584 C 0.81089 0.27541 0.47844 0.0
C585 C 0.83697 0.31582 0.41941 0.0
C586 C 0.83876 0.3308 0.37057 0.0
C587 C 0.81255 0.29163 0.43185 0.0
C588 C 0.81564 0.32268 0.33639 0.0
C589 C 0.79138 0.29865 0.34823 0.0
H590 H 0.6631 0.52363 0.43957 0.0
H591 H 0.65449 0.47333 0.29486 0.0
H592 H 0.69751 0.47501 0.31858 0.0
H593 H 0.74117 0.49812 0.36999 0.0
H594 H 0.74941 0.54719 0.51668 0.0
H595 H 0.70247 0.53774 0.50453 0.0
C596 C 0.67043 0.51252 0.41434 0.0
C597 C 0.6562 0.49876 0.3652 0.0
C598 C 0.69497 0.51328 0.42874 0.0
C599 C 0.66542 0.48414 0.33276 0.0
C600 C 0.68997 0.48514 0.34623 0.0
C601 C 0.73218 0.50566 0.40073 0.0
C602 C 0.74863 0.52348 0.44372 0.0
C603 C 0.70543 0.50058 0.39275 0.0
C604 C 0.73698 0.53323 0.48346 0.0
C605 C 0.7103 0.52824 0.4759 0.0
H606 H 0.56279 0.80437 0.5217 0.0
H607 H 0.48129 0.74134 0.5635 0.0
H608 H 0.4682 0.77588 0.58369 0.0
H609 H 0.48329 0.82363 0.60992 0.0
H610 H 0.56718 0.88563 0.5816 0.0
H611 H 0.57618 0.8522 0.5356 0.0
C612 C 0.54181 0.7983 0.53248 0.0
C613 C 0.52284 0.77056 0.54025 0.0
C614 C 0.53525 0.81823 0.54837 0.0
C615 C 0.49595 0.76265 0.55601 0.0
C616 C 0.48869 0.78242 0.56863 0.0
C617 C 0.50332 0.82987 0.59235 0.0
C618 C 0.52467 0.8569 0.59971 0.0
C619 C 0.50865 0.81024 0.5682 0.0
C620 C 0.55058 0.86481 0.57712 0.0
C621 C 0.55571 0.84573 0.55073 0.0
H622 H 0.13405 0.66063 0.56714 0.0
H623 H 0.16046 0.66694 0.74087 0.0
H624 H 0.20368 0.70779 0.71832 0.0
H625 H 0.22979 0.74552 0.65428 0.0
H626 H 0.20183 0.74316 0.48314 0.0
H627 H 0.16411 0.69652 0.49823 0.0
C628 C 0.14961 0.67082 0.59943 0.0
C629 C 0.14429 0.66134 0.65561 0.0
C630 C 0.17408 0.69489 0.58646 0.0
C631 C 0.16428 0.67435 0.69755 0.0
C632 C 0.18893 0.69757 0.68465 0.0
C633 C 0.21591 0.73444 0.61972 0.0
C634 C 0.21821 0.74775 0.56811 0.0
C635 C 0.19353 0.70859 0.62992 0.0
C636 C 0.20043 0.73323 0.52329 0.0
C637 C 0.1786 0.70675 0.53228 0.0
H638 H 0.23696 0.42862 0.52022 0.0
H639 H 0.2522 0.50477 0.59299 0.0
H640 H 0.29912 0.51636 0.6164 0.0
H641 H 0.33175 0.50011 0.63405 0.0
H642 H 0.31232 0.42004 0.5759 0.0
H643 H 0.27115 0.4144 0.52925 0.0
C644 C 0.25111 0.44835 0.5386 0.0
C645 C 0.24158 0.46615 0.55375 0.0
C646 C 0.27695 0.45355 0.55657 0.0
C647 C 0.25949 0.49116 0.57966 0.0
C648 C 0.28607 0.49746 0.59407 0.0
C649 C 0.31873 0.48169 0.61016 0.0
C650 C 0.32479 0.46038 0.60881 0.0
C651 C 0.29443 0.4781 0.58564 0.0
C652 C 0.30777 0.43652 0.57814 0.0
C653 C 0.28432 0.43335 0.55129 0.0
H654 H 0.08677 0.51001 0.80638 0.0
H655 H 0.16473 0.57557 0.75181 0.0
H656 H 0.17982 0.54283 0.72837 0.0
H657 H 0.16727 0.49524 0.70704 0.0
H658 H 0.08646 0.43015 0.74916 0.0
H659 H 0.07588 0.46273 0.79404 0.0
C660 C 0.10746 0.51706 0.79162 0.0
C661 C 0.12492 0.54494 0.78183 0.0
C662 C 0.11508 0.49806 0.77456 0.0
C663 C 0.15131 0.55412 0.76079 0.0
C664 C 0.15971 0.53538 0.74663 0.0
C665 C 0.14759 0.48822 0.72718 0.0
C666 C 0.12754 0.46048 0.72442 0.0
C667 C 0.14126 0.50724 0.75076 0.0
C668 C 0.10204 0.45152 0.75019 0.0
C669 C 0.09601 0.4701 0.77594 0.0
H670 H 0.526 0.64731 0.77136 0.0
H671 H 0.47897 0.66599 0.65424 0.0
H672 H 0.43734 0.62413 0.68098 0.0
H673 H 0.41656 0.57859 0.72474 0.0
H674 H 0.46272 0.56069 0.84555 0.0
H675 H 0.50222 0.60628 0.83231 0.0
C676 C 0.50647 0.64242 0.75288 0.0
C677 C 0.50543 0.65924 0.71028 0.0
C678 C 0.48252 0.61859 0.76934 0.0
C679 C 0.48012 0.65313 0.68696 0.0
C680 C 0.45636 0.62921 0.70212 0.0
C681 C 0.43485 0.58524 0.75017 0.0
C682 C 0.43686 0.56647 0.78594 0.0
C683 C 0.45754 0.61129 0.74164 0.0
C684 C 0.46065 0.57502 0.81837 0.0
C685 C 0.48341 0.6009 0.80996 0.0
H686 H 0.415 0.89139 0.80219 0.0
H687 H 0.39872 0.8154 0.72663 0.0
H688 H 0.35159 0.80406 0.70597 0.0
H689 H 0.319 0.82049 0.69175 0.0
H690 H 0.33968 0.90082 0.75001 0.0
H691 H 0.38106 0.90606 0.79544 0.0
C692 C 0.40064 0.87183 0.78351 0.0
C693 C 0.40979 0.85391 0.76691 0.0
C694 C 0.37467 0.86677 0.76728 0.0
C695 C 0.39166 0.82908 0.74076 0.0
C696 C 0.36496 0.82288 0.72821 0.0
C697 C 0.3323 0.8388 0.71572 0.0
C698 C 0.3266 0.86029 0.71783 0.0
C699 C 0.35678 0.84225 0.73853 0.0
C700 C 0.34397 0.88416 0.74791 0.0
C701 C 0.36753 0.88711 0.77376 0.0
H702 H 0.1692 0.32992 0.94334 0.0
H703 H 0.11041 0.2539 0.86532 0.0
H704 H 0.11604 0.27731 0.77473 0.0
H705 H 0.13904 0.31895 0.71757 0.0
H706 H 0.19813 0.39482 0.79558 0.0
H707 H 0.19175 0.37157 0.88659 0.0
C708 C 0.15715 0.31857 0.90684 0.0
C709 C 0.13915 0.29032 0.91094 0.0
C710 C 0.16128 0.33191 0.85476 0.0
C711 C 0.12419 0.27573 0.86306 0.0
C712 C 0.12764 0.28902 0.81128 0.0
C713 C 0.15098 0.33026 0.7542 0.0
C714 C 0.16946 0.35839 0.74988 0.0
C715 C 0.14658 0.31696 0.80644 0.0
C716 C 0.18412 0.37303 0.79797 0.0
C717 C 0.18024 0.35984 0.84998 0.0
H718 H 0.65516 0.82898 0.94299 0.0
H719 H 0.73344 0.8592 0.86167 0.0
H720 H 0.71062 0.83866 0.77165 0.0
H721 H 0.66832 0.81315 0.71593 0.0
H722 H 0.59026 0.78533 0.79736 0.0
H723 H 0.61321 0.80475 0.88719 0.0
C724 C 0.66723 0.83063 0.90581 0.0
C725 C 0.69591 0.84512 0.90908 0.0
C726 C 0.65403 0.81986 0.85396 0.0
C727 C 0.71131 0.84781 0.86022 0.0
C728 C 0.69828 0.83631 0.80873 0.0
C729 C 0.65632 0.81165 0.7531 0.0
C730 C 0.62757 0.79783 0.74973 0.0
C731 C 0.66964 0.82263 0.80493 0.0
C732 C 0.61239 0.79586 0.79861 0.0
C733 C 0.62548 0.80678 0.85016 0.0
H734 H 0.2032 0.8219 0.79177 0.0
H735 H 0.15231 0.83464 0.67295 0.0
H736 H 0.12225 0.83188 0.75021 0.0
H737 H 0.11085 0.82655 0.85135 0.0
H738 H 0.16206 0.8142 0.97006 0.0
H739 H 0.19173 0.81639 0.89265 0.0
C740 C 0.18542 0.82386 0.78257 0.0
C741 C 0.18001 0.82841 0.7266 0.0
C742 C 0.16843 0.8226 0.82716 0.0
C743 C 0.15697 0.8311 0.71564 0.0
C744 C 0.1398 0.82961 0.7598 0.0
C745 C 0.12857 0.82447 0.86044 0.0
C746 C 0.13423 0.82029 0.91651 0.0
C747 C 0.14547 0.82558 0.81575 0.0
C748 C 0.15722 0.8175 0.92735 0.0
C749 C 0.17417 0.81866 0.88309 0.0
H750 H 0.81552 0.70532 0.14072 0.0
H751 H 0.83695 0.66065 0.02266 0.0
H752 H 0.83271 0.62901 0.09805 0.0
H753 H 0.82279 0.61418 0.19717 0.0
H754 H 0.8 0.65829 0.31427 0.0
H755 H 0.80421 0.68965 0.23891 0.0
C756 C 0.81969 0.68891 0.13172 0.0
C757 C 0.82697 0.68552 0.07657 0.0
C758 C 0.81639 0.6704 0.17468 0.0
C759 C 0.83159 0.66377 0.06505 0.0
C760 C 0.82897 0.6456 0.10797 0.0
C761 C 0.81834 0.63039 0.20612 0.0
C762 C 0.81109 0.63383 0.26138 0.0
C763 C 0.82116 0.6486 0.16281 0.0
C764 C 0.80555 0.65508 0.27214 0.0
C765 C 0.80817 0.67319 0.22919 0.0
H766 H 0.33458 0.14562 0.03593 0.0
H767 H 0.25509 0.12057 0.10759 0.0
H768 H 0.27642 0.14197 0.19783 0.0
H769 H 0.31749 0.16864 0.25465 0.0
H770 H 0.39702 0.19412 0.18249 0.0
H771 H 0.37555 0.17084 0.0939 0.0
C772 C 0.3219 0.14508 0.07107 0.0
C773 C 0.29335 0.13192 0.06501 0.0
C774 C 0.33421 0.15701 0.12272 0.0
C775 C 0.27715 0.13081 0.11124 0.0
C776 C 0.2893 0.14289 0.1628 0.0
C777 C 0.33018 0.1688 0.21993 0.0
C778 C 0.35882 0.18316 0.22504 0.0
C779 C 0.31779 0.15602 0.16889 0.0
C780 C 0.37492 0.18324 0.17952 0.0
C781 C 0.36269 0.17012 0.1288 0.0
H782 H 0.77396 0.16512 0.19118 0.0
H783 H 0.83249 0.16769 0.3127 0.0
H784 H 0.86187 0.16869 0.23586 0.0
H785 H 0.86988 0.16671 0.13477 0.0
H786 H 0.81154 0.16407 0.01268 0.0
H787 H 0.78283 0.16478 0.08944 0.0
C788 C 0.79337 0.1664 0.20075 0.0
C789 C 0.80106 0.16628 0.25731 0.0
C790 C 0.80988 0.16637 0.15648 0.0
C791 C 0.82613 0.16767 0.2693 0.0
C792 C 0.84285 0.16808 0.2255 0.0
C793 C 0.85074 0.16599 0.12497 0.0
C794 C 0.84266 0.16503 0.06837 0.0
C795 C 0.83464 0.16686 0.16903 0.0
C796 C 0.81809 0.16465 0.05614 0.0
C797 C 0.80175 0.16521 0.09989 0.0
H798 H 0.5118 0.00232 0.60358 0.0
H799 H 0.45945 0.92267 0.53112 0.0
H800 H 0.45791 0.94363 0.44171 0.0
H801 H 0.47172 0.9845 0.38371 0.0
H802 H 0.52379 0.06416 0.45624 0.0
H803 H 0.52554 0.04321 0.54561 0.0
C804 C 0.49977 0.98954 0.5685 0.0
C805 C 0.48564 0.96096 0.57425 0.0
C806 C 0.49931 0.0017 0.51683 0.0
C807 C 0.47047 0.94472 0.52797 0.0
C808 C 0.46969 0.95668 0.47668 0.0
C809 C 0.48378 -0.00273 0.41878 0.0
C810 C 0.49779 0.02584 0.41312 0.0
C811 C 0.48425 0.98512 0.47044 0.0
C812 C 0.5129 0.0421 0.45939 0.0
C813 C 0.5138 0.03015 0.51063 0.0
H814 H 0.03988 0.54196 0.53619 0.0
H815 H 0.98579 0.48375 0.65977 0.0
H816 H 0.95608 0.45462 0.58402 0.0
H817 H 0.94504 0.4462 0.48293 0.0
H818 H -0.00096 0.50467 0.35955 0.0
H819 H 0.029 0.53345 0.43524 0.0
C820 C 0.02182 0.5227 0.54646 0.0
C821 C 0.01506 0.51494 0.60326 0.0
C822 C 0.00456 0.50636 0.50292 0.0
C823 C -0.00861 0.49013 0.61614 0.0
C824 C 0.97432 0.47354 0.57298 0.0
C825 C 0.96317 0.4654 0.47271 0.0
C826 C 0.96977 0.47337 0.41593 0.0
C827 C 0.98052 0.48165 0.51627 0.0
C828 C -0.00647 0.49812 0.40312 0.0
C829 C 0.01075 0.51452 0.44626 0.0
H830 H 0.4718 0.45697 0.59598 0.0
H831 H 0.45409 0.51789 0.53048 0.0
H832 H 0.47577 0.51824 0.44061 0.0
H833 H 0.50072 0.50244 0.38252 0.0
H834 H 0.51989 0.44257 0.44812 0.0
H835 H 0.49581 0.44009 0.53629 0.0
C836 C 0.4729 0.47054 0.56228 0.0
C837 C 0.46171 0.48769 0.57011 0.0
C838 C 0.4852 0.4705 0.51074 0.0
C839 C 0.46276 0.50468 0.52561 0.0
C840 C 0.47503 0.5048 0.47421 0.0
C841 C 0.49938 0.48853 0.41567 0.0
C842 C 0.5121 0.47271 0.4088 0.0
C843 C 0.48634 0.48785 0.46648 0.0
C844 C 0.51029 0.45498 0.45245 0.0
C845 C 0.4967 0.45369 0.5029 0.0
H846 H 0.25522 0.27684 0.19083 0.0
H847 H 0.20176 0.19246 0.23455 0.0
H848 H 0.23726 0.19373 0.29724 0.0
H849 H 0.28492 0.21806 0.33191 0.0
H850 H 0.33751 0.30271 0.2866 0.0
H851 H 0.30053 0.30218 0.23254 0.0
C852 C 0.25129 0.25871 0.21425 0.0
C853 C 0.22629 0.23441 0.20741 0.0
C854 C 0.27155 0.2597 0.24976 0.0
C855 C 0.22103 0.21129 0.23901 0.0
C856 C 0.24131 0.21205 0.27459 0.0
C857 C 0.2882 0.23652 0.3109 0.0
C858 C 0.31414 0.2603 0.31267 0.0
C859 C 0.26687 0.23602 0.27925 0.0
C860 C 0.3179 0.28408 0.28563 0.0
C861 C 0.29679 0.28379 0.2545 0.0
H862 H 0.75761 0.05531 0.35315 0.0
H863 H 0.67504 0.03199 0.30377 0.0
H864 H 0.67303 -0.00407 0.24375 0.0
H865 H 0.69572 0.9734 0.19978 0.0
H866 H 0.77794 -0.0042 0.24901 0.0
H867 H 0.77904 0.02992 0.31489 0.0
C868 C 0.73904 0.04215 0.32979 0.0
C869 C 0.71661 0.0466 0.33256 0.0
C870 C 0.73806 0.02152 0.29494 0.0
C871 C 0.69265 0.02915 0.30238 0.0
C872 C 0.6915 0.00858 0.26777 0.0
C873 C 0.7139 0.98572 0.22498 0.0
C874 C 0.73689 0.98244 0.21892 0.0
C875 C 0.71429 0.00503 0.26276 0.0
C876 C 0.76005 -0.00191 0.25274 0.0
C877 C 0.76068 0.01759 0.29029 0.0
H878 H 0.95176 0.70002 0.38313 0.0
H879 H 0.88144 0.68421 0.28289 0.0
H880 H 0.91039 0.7212 0.21819 0.0
H881 H 0.95646 0.75404 0.18382 0.0
H882 H 0.02658 0.77241 0.28692 0.0
H883 H -0.00292 0.73897 0.35779 0.0
C884 C 0.94289 0.70512 0.34764 0.0
C885 C 0.91477 0.68943 0.33703 0.0
C886 C 0.95958 0.72686 0.31142 0.0
C887 C 0.90317 0.69618 0.29153 0.0
C888 C 0.91967 0.71723 0.25452 0.0
C889 C 0.96504 0.75132 0.22284 0.0
C890 C -0.00659 0.7655 0.23069 0.0
C891 C 0.94798 0.73221 0.26321 0.0
C892 C 0.00462 0.76184 0.2808 0.0
C893 C 0.98783 0.74252 0.32085 0.0
H894 H 0.71649 0.71765 0.82579 0.0
H895 H 0.77459 0.79662 0.75888 0.0
H896 H 0.74068 0.79287 0.68842 0.0
H897 H 0.69381 0.7674 0.64895 0.0
H898 H 0.63732 0.68753 0.71584 0.0
H899 H 0.67173 0.69125 0.78286 0.0
C900 C 0.72173 0.73421 0.7961 0.0
C901 C 0.74771 0.75767 0.7982 0.0
C902 C 0.70257 0.73157 0.75544 0.0
C903 C 0.75454 0.77853 0.75836 0.0
C904 C 0.73521 0.77631 0.71812 0.0
C905 C 0.68915 0.75063 0.6776 0.0
C906 C 0.66286 0.72728 0.67753 0.0
C907 C 0.70908 0.75292 0.71651 0.0
C908 C 0.65725 0.70577 0.71499 0.0
C909 C 0.67688 0.70791 0.7536 0.0
H910 H 0.22132 0.93177 0.60616 0.0
H911 H 0.3068 0.9623 0.64272 0.0
H912 H 0.3091 0.00086 0.69341 0.0
H913 H 0.28556 0.02214 0.73868 0.0
H914 H 0.2003 0.99235 0.70451 0.0
H915 H 0.19922 0.9574 0.64065 0.0
C916 C 0.24058 0.94712 0.62426 0.0
C917 C 0.26371 0.94377 0.62162 0.0
C918 C 0.24173 0.9692 0.65415 0.0
C919 C 0.28857 0.96407 0.64477 0.0
C920 C 0.28993 0.98615 0.67391 0.0
C921 C 0.26687 0.00827 0.71635 0.0
C922 C 0.24295 0.00936 0.72657 0.0
C923 C 0.26643 0.9883 0.68065 0.0
C924 C 0.21892 0.99173 0.69706 0.0
C925 C 0.2183 0.97169 0.66101 0.0
H926 H 0.01954 0.2594 0.84414 0.0
H927 H 0.97533 0.20337 0.70819 0.0
H928 H 0.00842 0.23526 0.63937 0.0
H929 H 0.04704 0.28182 0.6173 0.0
H930 H 0.08734 0.33814 0.75498 0.0
H931 H 0.05865 0.30346 0.82373 0.0
C932 C 0.01718 0.25391 0.79953 0.0
C933 C -0.00526 0.22922 0.78129 0.0
C934 C 0.03542 0.27267 0.7604 0.0
C935 C -0.00761 0.22231 0.7234 0.0
C936 C 0.01117 0.24065 0.68398 0.0
C937 C 0.04944 0.28624 0.6624 0.0
C938 C 0.06872 0.31247 0.68141 0.0
C939 C 0.03224 0.26632 0.70182 0.0
C940 C 0.07209 0.31817 0.73972 0.0
C941 C 0.05585 0.29835 0.77896 0.0
H942 H 0.94118 0.62469 0.53203 0.0
H943 H 0.8777 0.5467 0.59347 0.0
H944 H 0.90996 0.545 0.6605 0.0
H945 H 0.95663 0.56465 0.69789 0.0
H946 H 0.01986 0.64283 0.63622 0.0
H947 H 0.98695 0.64559 0.57339 0.0
C948 C 0.93434 0.60726 0.56 0.0
C949 C 0.90715 0.58565 0.5572 0.0
C950 C 0.95288 0.60652 0.59849 0.0
C951 C 0.89854 0.56351 0.59455 0.0
C952 C 0.91698 0.56254 0.63285 0.0
C953 C 0.96322 0.58245 0.67113 0.0
C954 C -0.00921 0.60342 0.67152 0.0
C955 C 0.94426 0.58381 0.63471 0.0
C956 C -0.00117 0.62638 0.63682 0.0
C957 C 0.98005 0.62792 0.60063 0.0
H958 H 0.41646 0.31293 0.58736 0.0
H959 H 0.43271 0.3652 0.44191 0.0
H960 H 0.42785 0.39816 0.50034 0.0
H961 H 0.41397 0.40961 0.58989 0.0
H962 H 0.39821 0.35841 0.73635 0.0
H963 H 0.40741 0.3271 0.68032 0.0
C964 C 0.41962 0.33186 0.56887 0.0
C965 C 0.4247 0.33655 0.51037 0.0
C966 C 0.41603 0.35039 0.60242 0.0
C967 C 0.42858 0.36107 0.4868 0.0
C968 C 0.42559 0.37981 0.52001 0.0
C969 C 0.41244 0.39147 0.60921 0.0
C970 C 0.40466 0.38557 0.66617 0.0
C971 C 0.41829 0.37415 0.57723 0.0
C972 C 0.40362 0.36275 0.69196 0.0
C973 C 0.40903 0.34507 0.66009 0.0
H974 H 0.67452 0.05954 0.55697 0.0
H975 H 0.63961 0.11121 0.58391 0.0
H976 H 0.60704 0.07819 0.6525 0.0
H977 H 0.58571 0.03233 0.69576 0.0
H978 H 0.62184 0.98145 0.66784 0.0
H979 H 0.6573 0.0169 0.60959 0.0
C980 C 0.65994 0.06365 0.57851 0.0
C981 C 0.65893 0.08731 0.56524 0.0
C982 C 0.64165 0.0448 0.61754 0.0
C983 C 0.64047 0.09292 0.59365 0.0
C984 C 0.62191 0.07406 0.63256 0.0
C985 C 0.60164 0.02918 0.67791 0.0
C986 C 0.60077 0.00399 0.68541 0.0
C987 C 0.62188 0.04957 0.64366 0.0
C988 C 0.62177 0.00044 0.66235 0.0
C989 C 0.64202 0.02067 0.62875 0.0
H990 H 0.36522 0.10127 0.95295 0.0
H991 H 0.3035 0.02179 0.01219 0.0
H992 H 0.33595 0.02107 0.07925 0.0
H993 H 0.38063 0.04387 0.12502 0.0
H994 H 0.44337 0.12251 0.06541 0.0
H995 H 0.4116 0.12274 0.99438 0.0
C996 C 0.35893 0.08363 0.98004 0.0
C997 C 0.3318 0.06169 0.97769 0.0
C998 C 0.37773 0.08335 0.01884 0.0
C999 C 0.32414 0.03896 0.01294 0.0
C1000 C 0.34266 0.03858 0.05161 0.0
C1001 C 0.38738 0.06115 0.0966 0.0
C1002 C 0.41413 0.0834 0.10107 0.0
C1003 C 0.36927 0.06086 0.05566 0.0
C1004 C 0.4228 0.10527 0.06301 0.0
C1005 C 0.40465 0.10536 0.02249 0.0
H1006 H 0.88802 0.26871 0.96262 0.0
H1007 H 0.9681 0.28961 0.02553 0.0
H1008 H 0.96751 0.32334 0.08896 0.0
H1009 H 0.94239 0.34307 0.13385 0.0
H1010 H 0.86272 0.32332 0.07194 0.0
H1011 H 0.86496 0.29275 0.00044 0.0
C1012 C 0.90557 0.28095 0.98948 0.0
C1013 C 0.92792 0.27627 0.98988 0.0
C1014 C 0.90495 0.30011 0.02655 0.0
C1015 C 0.95058 0.29259 0.0245 0.0
C1016 C 0.95019 0.31178 0.06111 0.0
C1017 C 0.92552 0.33211 0.10455 0.0
C1018 C 0.90212 0.33479 0.10874 0.0
C1019 C 0.92713 0.31499 0.06377 0.0
C1020 C 0.88076 0.32123 0.06967 0.0
C1021 C 0.88208 0.30381 0.02899 0.0
H1022 H 0.72382 0.62442 0.97387 0.0
H1023 H 0.70892 0.68312 0.06099 0.0
H1024 H 0.67612 0.64743 0.12274 0.0
H1025 H 0.65353 0.60045 0.15555 0.0
H1026 H 0.66588 0.54054 0.06763 0.0
H1027 H 0.69805 0.57595 0.00256 0.0
C1028 C 0.71317 0.62934 0.00594 0.0
C1029 C 0.71906 0.6565 0.01301 0.0
C1030 C 0.69421 0.60865 0.04156 0.0
C1031 C 0.70489 0.66246 0.05453 0.0
C1032 C 0.68621 0.64209 0.09017 0.0
C1033 C 0.66339 0.59516 0.12232 0.0
C1034 C 0.65791 0.56817 0.11689 0.0
C1035 C 0.68114 0.61531 0.08475 0.0
C1036 C 0.6701 0.56133 0.07275 0.0
C1037 C 0.6884 0.58153 0.03565 0.0
H1038 H 0.5756 0.87414 0.83375 0.0
H1039 H 0.5444 0.90841 0.95612 0.0
H1040 H 0.57764 0.91109 0.02644 0.0
H1041 H 0.61911 0.90827 0.04898 0.0
H1042 H 0.64788 0.87105 0.92822 0.0
H1043 H 0.61199 0.86458 0.86143 0.0
C1044 C 0.57575 0.88158 0.87629 0.0
C1045 C 0.55786 0.8912 0.88996 0.0
C1046 C 0.59464 0.88276 0.91644 0.0
C1047 C 0.55797 0.90072 0.94506 0.0
C1048 C 0.57711 0.90249 0.98502 0.0
C1049 C 0.61708 0.89837 0.00838 0.0
C1050 C 0.63596 0.89027 0.99291 0.0
C1051 C 0.59608 0.89431 0.97061 0.0
C1052 C 0.63333 0.87731 0.94061 0.0
C1053 C 0.61295 0.87373 0.90243 0.0
H1054 H 0.03743 0.63543 0.90936 0.0
H1055 H 0.12365 0.66945 0.93959 0.0
H1056 H 0.1227 0.70155 0.00885 0.0
H1057 H 0.09834 0.72369 0.04924 0.0
H1058 H 0.01191 0.6892 0.01679 0.0
H1059 H 0.01177 0.65286 0.96105 0.0
C1060 C 0.0559 0.64963 0.93194 0.0
C1061 C 0.08066 0.65064 0.91915 0.0
C1062 C 0.05511 0.66783 0.97102 0.0
C1063 C 0.10443 0.66858 0.94893 0.0
C1064 C 0.10386 0.68692 0.98817 0.0
C1065 C 0.07932 0.7079 0.03108 0.0
C1066 C 0.05529 0.70958 0.03613 0.0
C1067 C 0.07947 0.68731 -0.00201 0.0
C1068 C 0.03078 0.68868 0.01299 0.0
C1069 C 0.03069 0.66794 0.9808 0.0
H1070 H 0.27306 0.32085 0.97897 0.0
H1071 H 0.23442 0.36727 0.0272 0.0
H1072 H 0.26979 0.40711 0.97674 0.0
H1073 H 0.30976 0.42747 0.91121 0.0
H1074 H 0.34529 0.37869 0.85956 0.0
H1075 H 0.31329 0.34125 0.91927 0.0
C1076 C 0.27243 0.33972 0.97913 0.0
C1077 C 0.25098 0.34093 0.00659 0.0
C1078 C 0.29231 0.36219 0.94899 0.0
C1079 C 0.25068 0.36569 0.00633 0.0
C1080 C 0.27085 0.38849 0.97728 0.0
C1081 C 0.3106 0.40875 0.91393 0.0
C1082 C 0.32965 0.40567 0.88098 0.0
C1083 C 0.29149 0.38681 0.94735 0.0
C1084 C 0.33057 0.38133 0.88427 0.0
C1085 C 0.31231 0.35992 0.91838 0.0
H1086 H 0.02774 0.42556 0.31291 0.0
H1087 H 0.96647 0.34966 0.38747 0.0
H1088 H 0.00117 0.34909 0.44834 0.0
H1089 H 0.04782 0.37157 0.48469 0.0
H1090 H 0.10942 0.44738 0.41092 0.0
H1091 H 0.07537 0.44656 0.34509 0.0
C1092 C 0.02196 0.40872 0.34205 0.0
C1093 C -0.00556 0.3878 0.34599 0.0
C1094 C 0.04192 0.40868 0.37738 0.0
C1095 C 0.98744 0.36604 0.3836 0.0
C1096 C 0.00723 0.36577 0.41866 0.0
C1097 C 0.05386 0.388 0.45433 0.0
C1098 C 0.08099 0.40978 0.45329 0.0
C1099 C 0.03435 0.38728 0.41671 0.0
C1100 C 0.08861 0.43052 0.4128 0.0
C1101 C 0.06917 0.43004 0.37523 0.0
H1102 H 0.60169 0.65621 0.49416 0.0
H1103 H 0.5294 0.64588 0.40917 0.0
H1104 H 0.53122 0.613 0.34363 0.0
H1105 H 0.55291 0.58644 0.31282 0.0
H1106 H 0.62622 0.59881 0.39735 0.0
H1107 H 0.62457 0.63205 0.46053 0.0
C1108 C 0.58617 0.64666 0.46153 0.0
C1109 C 0.56514 0.65308 0.45709 0.0
C1110 C 0.58768 0.62836 0.42376 0.0
C1111 C 0.54565 0.64108 0.41367 0.0
C1112 C 0.54673 0.62235 0.37625 0.0
C1113 C 0.56866 0.59656 0.34476 0.0
C1114 C 0.5896 0.58996 0.35043 0.0
C1115 C 0.56762 0.61574 0.38113 0.0
C1116 C 0.60991 0.60343 0.39187 0.0
C1117 C 0.60891 0.62237 0.42827 0.0
H1118 H 0.40471 0.95386 0.3105 0.0
H1119 H 0.35683 -0.00579 0.30336 0.0
H1120 H 0.32023 0.95688 0.35615 0.0
H1121 H 0.3047 0.91641 0.41505 0.0
H1122 H 0.3524 0.87632 0.42703 0.0
H1123 H 0.38627 0.90978 0.36088 0.0
C1124 C 0.38601 0.95417 0.3194 0.0
C1125 C 0.38362 0.97695 0.3037 0.0
C1126 C 0.36523 0.93287 0.35101 0.0
C1127 C 0.3593 0.97709 0.3156 0.0
C1128 C 0.33838 0.95578 0.34582 0.0
C1129 C 0.32228 0.91475 0.40207 0.0
C1130 C 0.32639 0.8943 0.42552 0.0
C1131 C 0.34158 0.93416 0.36539 0.0
C1132 C 0.34899 0.89199 0.40892 0.0
C1133 C 0.36833 0.91118 0.37156 0.0
H1134 H 0.16715 0.33252 0.21557 0.0
H1135 H 0.13593 0.25424 0.29747 0.0
H1136 H 0.13401 0.27416 0.38787 0.0
H1137 H 0.14141 0.31385 0.44414 0.0
H1138 H 0.17271 0.39208 0.36198 0.0
H1139 H 0.17454 0.37212 0.2717 0.0
C1140 C 0.15974 0.31976 0.25307 0.0
C1141 C 0.15168 0.29194 0.24957 0.0
C1142 C 0.15889 0.33136 0.30518 0.0
C1143 C 0.14231 0.27576 0.29881 0.0
C1144 C 0.14125 0.28712 0.35068 0.0
C1145 C 0.14881 0.32657 0.40659 0.0
C1146 C 0.1569 0.35441 0.41002 0.0
C1147 C 0.14963 0.31494 0.35446 0.0
C1148 C 0.16627 0.37055 0.36072 0.0
C1149 C 0.16729 0.35917 0.3089 0.0
H1150 H 0.65042 0.81959 0.21446 0.0
H1151 H 0.72541 0.8751 0.30078 0.0
H1152 H 0.70699 0.85102 0.3898 0.0
H1153 H 0.66904 0.81485 0.44442 0.0
H1154 H 0.59398 0.75979 0.35757 0.0
H1155 H 0.613 0.78299 0.26837 0.0
C1156 C 0.66283 0.82632 0.25261 0.0
C1157 C 0.68923 0.8492 0.25065 0.0
C1158 C 0.65205 0.81252 0.30408 0.0
C1159 C 0.70494 0.85763 0.3008 0.0
C1160 C 0.69443 0.84387 0.35195 0.0
C1161 C 0.65686 0.80791 0.40601 0.0
C1162 C 0.63007 0.78562 0.40819 0.0
C1163 C 0.6679 0.82142 0.35429 0.0
C1164 C 0.61465 0.77692 0.35765 0.0
C1165 C 0.6255 0.79017 0.3063 0.0
H1166 H 0.14978 0.80649 0.21425 0.0
H1167 H 0.11319 0.85113 0.28595 0.0
H1168 H 0.14022 0.85969 0.37195 0.0
H1169 H 0.17356 0.85382 0.42761 0.0
H1170 H 0.21008 0.80913 0.35585 0.0
H1171 H 0.18367 0.80129 0.26921 0.0
C1172 C 0.1478 0.81821 0.24853 0.0
C1173 C 0.12944 0.82806 0.24361 0.0
C1174 C 0.16328 0.82297 0.29806 0.0
C1175 C 0.12713 0.84322 0.28855 0.0
C1176 C 0.14255 0.84811 0.33786 0.0
C1177 C 0.17572 0.84232 0.3931 0.0
C1178 C 0.19371 0.83204 0.39839 0.0
C1179 C 0.16053 0.83792 0.34323 0.0
C1180 C 0.19637 0.81731 0.35303 0.0
C1181 C 0.18128 0.8128 0.30337 0.0
H1182 H 0.82762 0.67188 0.5557 0.0
H1183 H 0.81627 0.60063 0.64662 0.0
H1184 H 0.80838 0.61852 0.73422 0.0
H1185 H 0.80589 0.65486 0.78577 0.0
H1186 H 0.81796 0.72643 0.69512 0.0
H1187 H 0.82422 0.70779 0.60684 0.0
C1188 C 0.82335 0.66021 0.5946 0.0
C1189 C 0.82265 0.63502 0.59447 0.0
C1190 C 0.81895 0.67064 0.64503 0.0
C1191 C 0.81706 0.62017 0.64539 0.0
C1192 C 0.8125 0.63034 0.69562 0.0
C1193 C 0.80971 0.66631 0.74667 0.0
C1194 C 0.81153 0.69202 0.74721 0.0
C1195 C 0.81356 0.65562 0.69601 0.0
C1196 C 0.81658 0.70662 0.69609 0.0
C1197 C 0.82017 0.696 0.64548 0.0
H1198 H 0.27805 0.12475 0.67641 0.0
H1199 H 0.3486 0.16669 0.78554 0.0
H1200 H 0.37414 0.19779 0.70814 0.0
H1201 H 0.3766 0.21224 0.60897 0.0
H1202 H 0.30586 0.16936 0.50053 0.0
H1203 H 0.28021 0.1394 0.57872 0.0
C1204 C 0.29899 0.14071 0.68356 0.0
C1205 C 0.31139 0.14333 0.7367 0.0
C1206 C 0.31354 0.15831 0.63903 0.0
C1207 C 0.33856 0.16418 0.745 0.0
C1208 C 0.35318 0.18196 0.70079 0.0
C1209 C 0.35554 0.19642 0.60248 0.0
C1210 C 0.34322 0.19303 0.54891 0.0
C1211 C 0.3409 0.17909 0.64754 0.0
C1212 C 0.31592 0.17237 0.54122 0.0
C1213 C 0.30119 0.15522 0.5859 0.0
H1214 H 0.78485 0.17356 0.62139 0.0
H1215 H 0.81024 0.12321 0.53182 0.0
H1216 H 0.84331 0.13094 0.60655 0.0
H1217 H 0.86453 0.15153 0.69779 0.0
H1218 H 0.83886 0.20186 0.78665 0.0
H1219 H 0.80651 0.19473 0.71115 0.0
C1220 C 0.7975 0.16414 0.61825 0.0
C1221 C 0.79497 0.14773 0.5713 0.0
C1222 C 0.81655 0.1688 0.66098 0.0
C1223 C 0.81174 0.13592 0.56764 0.0
C1224 C 0.83069 0.14035 0.61026 0.0
C1225 C 0.85202 0.16111 0.70044 0.0
C1226 C 0.85408 0.17713 0.74784 0.0
C1227 C 0.83326 0.15676 0.65711 0.0
C1228 C 0.83764 0.18933 0.75071 0.0
C1229 C 0.81908 0.18524 0.70763 0.0
H1230 H 0.47242 0.98305 0.10362 0.0
H1231 H 0.51043 0.06324 0.02817 0.0
H1232 H 0.51671 0.04488 0.93944 0.0
H1233 H 0.51119 0.00587 0.88245 0.0
H1234 H 0.47265 0.92572 0.95851 0.0
H1235 H 0.46675 0.94424 0.04693 0.0
C1236 C 0.48225 -0.00346 0.06794 0.0
C1237 C 0.49093 0.02445 0.07277 0.0
C1238 C 0.48558 0.98584 0.01663 0.0
C1239 C 0.50345 0.0416 0.02577 0.0
C1240 C 0.50704 0.03114 0.97482 0.0
C1241 C 0.50137 0.99246 0.91824 0.0
C1242 C 0.49247 0.96447 0.91353 0.0
C1243 C 0.49805 0.00324 0.96958 0.0
C1244 C 0.47986 0.94741 0.96065 0.0
C1245 C 0.47645 0.95795 0.01152 0.0
H1246 H 0.94038 0.45492 0.04593 0.0
H1247 H 0.01545 0.47961 0.13776 0.0
H1248 H 0.04155 0.51075 0.0613 0.0
H1249 H 0.043 0.53123 0.96939 0.0
H1250 H 0.96795 0.50678 0.87765 0.0
H1251 H 0.94186 0.47524 0.95364 0.0
C1252 C 0.96246 0.467 0.04917 0.0
C1253 C 0.97593 0.46495 0.09743 0.0
C1254 C 0.97733 0.48497 0.00535 0.0
C1255 C 0.00456 0.48083 0.10106 0.0
C1256 C 0.01951 0.49866 0.05742 0.0
C1257 C 0.02093 0.51906 0.96596 0.0
C1258 C 0.00746 0.52139 0.91799 0.0
C1259 C 0.00608 0.50097 0.00958 0.0
C1260 C 0.97885 0.5054 0.91419 0.0
C1261 C 0.9639 0.48733 0.95754 0.0
H1262 H 0.44802 0.49381 0.96426 0.0
H1263 H 0.49814 0.47859 0.84794 0.0
H1264 H 0.52988 0.4851 0.92445 0.0
H1265 H 0.54267 0.49366 0.02452 0.0
H1266 H 0.49263 0.50872 0.14126 0.0
H1267 H 0.46164 0.50378 0.06408 0.0
C1268 C 0.46592 0.492 0.95552 0.0
C1269 C 0.47057 0.48558 0.90044 0.0
C1270 C 0.48409 0.49567 -0.00028 0.0
C1271 C 0.49397 0.48345 0.88993 0.0
C1272 C 0.51215 0.48714 0.93367 0.0
C1273 C 0.52504 0.49594 0.0332 0.0
C1274 C 0.51995 0.50142 0.0887 0.0
C1275 C 0.50728 0.49302 0.98877 0.0
C1276 C 0.49705 0.50446 0.09897 0.0
C1277 C 0.47928 0.5016 0.05488 0.0
loop_
_geom_bond_atom_site_label_1
_geom_bond_atom_site_label_2
_geom_bond_distance
_geom_bond_site_symmetry_2
_ccdc_geom_bond_type
O0 Zn1 1.953 . S
O0 C16 1.225 1_554 S
Zn1 O0 1.953 . S
Zn1 O2 1.949 . S
Zn1 O8 1.919 . S
Zn1 O13 1.924 . S
O2 Zn1 1.949 . S
O2 Zn3 1.923 . S
O2 Zn4 1.950 . S
O2 Zn5 1.945 . S
Zn3 O2 1.923 . S
Zn3 O6 1.933 . S
Zn3 O9 1.941 . S
Zn3 O10 1.965 . S
Zn4 O2 1.950 . S
Zn4 O11 1.938 . S
Zn4 O12 1.906 1_554 S
Zn4 O22 1.953 1_554 S
Zn5 O2 1.945 . S
Zn5 O7 1.932 . S
Zn5 O14 1.977 . S
Zn5 O15 1.910 . S
O6 Zn3 1.933 . S
O6 C17 1.226 . S
O7 Zn5 1.932 . S
O7 C17 1.307 . S
O8 Zn1 1.919 . S
O8 C19 1.253 . S
O9 Zn3 1.941 . S
O9 C19 1.283 . S
O10 Zn3 1.965 . S
O10 C18 1.303 . S
O11 Zn4 1.938 . S
O11 C18 1.247 . S
O12 Zn4 1.906 1_556 S
O12 C20 1.304 1_556 S
O13 Zn1 1.924 . S
O13 C21 1.311 . S
O14 Zn5 1.977 . S
O14 C20 1.272 . S
O15 Zn5 1.910 . S
O15 C21 1.231 . S
C16 O0 1.225 1_556 S
C16 O22 1.298 . S
C17 O6 1.226 . S
C17 O7 1.307 . S
C18 O10 1.303 . S
C18 O11 1.247 . S
C19 O8 1.253 . S
C19 O9 1.283 . S
C20 O12 1.304 1_554 S
C20 O14 1.272 . S
C21 O13 1.311 . S
C21 O15 1.231 . S
O22 Zn4 1.953 1_556 S
O22 C16 1.298 . S
O23 Zn24 1.953 . S
O23 C39 1.225 1_554 S
Zn24 O23 1.953 . S
Zn24 O25 1.949 . S
Zn24 O31 1.919 . S
Zn24 O36 1.924 . S
O25 Zn24 1.949 . S
O25 Zn26 1.923 . S
O25 Zn27 1.950 . S
O25 Zn28 1.945 . S
Zn26 O25 1.923 . S
Zn26 O29 1.933 . S
Zn26 O32 1.941 . S
Zn26 O33 1.965 . S
Zn27 O25 1.950 . S
Zn27 O34 1.938 . S
Zn27 O35 1.906 1_554 S
Zn27 O45 1.953 1_554 S
Zn28 O25 1.945 . S
Zn28 O30 1.932 . S
Zn28 O37 1.977 . S
Zn28 O38 1.910 . S
O29 Zn26 1.933 . S
O29 C40 1.226 . S
O30 Zn28 1.932 . S
O30 C40 1.307 . S
O31 Zn24 1.919 . S
O31 C42 1.253 . S
O32 Zn26 1.941 . S
O32 C42 1.283 . S
O33 Zn26 1.965 . S
O33 C41 1.303 . S
O34 Zn27 1.938 . S
O34 C41 1.247 . S
O35 Zn27 1.906 1_556 S
O35 C43 1.304 1_556 S
O36 Zn24 1.924 . S
O36 C44 1.311 . S
O37 Zn28 1.977 . S
O37 C43 1.272 . S
O38 Zn28 1.910 . S
O38 C44 1.231 . S
C39 O23 1.225 1_556 S
C39 O45 1.298 . S
C40 O29 1.226 . S
C40 O30 1.307 . S
C41 O33 1.303 . S
C41 O34 1.247 . S
C42 O31 1.253 . S
C42 O32 1.283 . S
C43 O35 1.304 1_554 S
C43 O37 1.272 . S
C44 O36 1.311 . S
C44 O38 1.231 . S
O45 Zn27 1.953 1_556 S
O45 C39 1.298 . S
O46 Zn47 1.953 . S
O46 C62 1.225 1_554 S
Zn47 O46 1.953 . S
Zn47 O48 1.949 . S
Zn47 O54 1.919 . S
Zn47 O59 1.924 . S
O48 Zn47 1.949 . S
O48 Zn49 1.923 . S
O48 Zn50 1.950 . S
O48 Zn51 1.945 . S
Zn49 O48 1.923 . S
Zn49 O52 1.933 . S
Zn49 O55 1.941 . S
Zn49 O56 1.965 . S
Zn50 O48 1.950 . S
Zn50 O57 1.938 . S
Zn50 O58 1.906 1_554 S
Zn50 O68 1.953 1_554 S
Zn51 O48 1.945 . S
Zn51 O53 1.932 . S
Zn51 O60 1.977 . S
Zn51 O61 1.910 . S
O52 Zn49 1.933 . S
O52 C63 1.226 . S
O53 Zn51 1.932 . S
O53 C63 1.307 . S
O54 Zn47 1.919 . S
O54 C65 1.253 . S
O55 Zn49 1.941 . S
O55 C65 1.283 . S
O56 Zn49 1.965 . S
O56 C64 1.303 . S
O57 Zn50 1.938 . S
O57 C64 1.247 . S
O58 Zn50 1.906 1_556 S
O58 C66 1.304 1_556 S
O59 Zn47 1.924 . S
O59 C67 1.311 . S
O60 Zn51 1.977 . S
O60 C66 1.272 . S
O61 Zn51 1.910 . S
O61 C67 1.231 . S
C62 O46 1.225 1_556 S
C62 O68 1.298 . S
C63 O52 1.226 . S
C63 O53 1.307 . S
C64 O56 1.303 . S
C64 O57 1.247 . S
C65 O54 1.253 . S
C65 O55 1.283 . S
C66 O58 1.304 1_554 S
C66 O60 1.272 . S
C67 O59 1.311 . S
C67 O61 1.231 . S
O68 Zn50 1.953 1_556 S
O68 C62 1.298 . S
O69 Zn70 1.953 . S
O69 C85 1.225 1_556 S
Zn70 O69 1.953 . S
Zn70 O71 1.949 . S
Zn70 O77 1.919 . S
Zn70 O82 1.924 . S
O71 Zn70 1.949 . S
O71 Zn72 1.923 . S
O71 Zn73 1.950 . S
O71 Zn74 1.945 . S
Zn72 O71 1.923 . S
Zn72 O75 1.933 . S
Zn72 O78 1.941 . S
Zn72 O79 1.965 . S
Zn73 O71 1.950 . S
Zn73 O80 1.938 . S
Zn73 O81 1.906 1_556 S
Zn73 O91 1.953 1_556 S
Zn74 O71 1.945 . S
Zn74 O76 1.932 . S
Zn74 O83 1.977 . S
Zn74 O84 1.910 . S
O75 Zn72 1.933 . S
O75 C86 1.226 . S
O76 Zn74 1.932 . S
O76 C86 1.307 . S
O77 Zn70 1.919 . S
O77 C88 1.253 . S
O78 Zn72 1.941 . S
O78 C88 1.283 . S
O79 Zn72 1.965 . S
O79 C87 1.303 . S
O80 Zn73 1.938 . S
O80 C87 1.247 . S
O81 Zn73 1.906 1_554 S
O81 C89 1.304 1_554 S
O82 Zn70 1.924 . S
O82 C90 1.311 . S
O83 Zn74 1.977 . S
O83 C89 1.272 . S
O84 Zn74 1.910 . S
O84 C90 1.231 . S
C85 O69 1.225 1_554 S
C85 O91 1.298 . S
C86 O75 1.226 . S
C86 O76 1.307 . S
C87 O79 1.303 . S
C87 O80 1.247 . S
C88 O77 1.253 . S
C88 O78 1.283 . S
C89 O81 1.304 1_556 S
C89 O83 1.272 . S
C90 O82 1.311 . S
C90 O84 1.231 . S
O91 Zn73 1.953 1_554 S
O91 C85 1.298 . S
O92 Zn93 1.953 . S
O92 C108 1.225 1_556 S
Zn93 O92 1.953 . S
Zn93 O94 1.949 . S
Zn93 O100 1.919 . S
Zn93 O105 1.924 . S
O94 Zn93 1.949 . S
O94 Zn95 1.923 . S
O94 Zn96 1.950 . S
O94 Zn97 1.945 . S
Zn95 O94 1.923 . S
Zn95 O98 1.933 . S
Zn95 O101 1.941 . S
Zn95 O102 1.965 . S
Zn96 O94 1.950 . S
Zn96 O103 1.938 . S
Zn96 O104 1.906 1_556 S
Zn96 O114 1.953 1_556 S
Zn97 O94 1.945 . S
Zn97 O99 1.932 . S
Zn97 O106 1.977 . S
Zn97 O107 1.910 . S
O98 Zn95 1.933 . S
O98 C109 1.226 . S
O99 Zn97 1.932 . S
O99 C109 1.307 . S
O100 Zn93 1.919 . S
O100 C111 1.253 . S
O101 Zn95 1.941 . S
O101 C111 1.283 . S
O102 Zn95 1.965 . S
O102 C110 1.303 . S
O103 Zn96 1.938 . S
O103 C110 1.247 . S
O104 Zn96 1.906 1_554 S
O104 C112 1.304 1_554 S
O105 Zn93 1.924 . S
O105 C113 1.311 . S
O106 Zn97 1.977 . S
O106 C112 1.272 . S
O107 Zn97 1.910 . S
O107 C113 1.231 . S
C108 O92 1.225 1_554 S
C108 O114 1.298 . S
C109 O98 1.226 . S
C109 O99 1.307 . S
C110 O102 1.303 . S
C110 O103 1.247 . S
C111 O100 1.253 . S
C111 O101 1.283 . S
C112 O104 1.304 1_556 S
C112 O106 1.272 . S
C113 O105 1.311 . S
C113 O107 1.231 . S
O114 Zn96 1.953 1_554 S
O114 C108 1.298 . S
O115 Zn116 1.953 . S
O115 C131 1.225 1_556 S
Zn116 O115 1.953 . S
Zn116 O117 1.949 . S
Zn116 O123 1.919 . S
Zn116 O128 1.924 . S
O117 Zn116 1.949 . S
O117 Zn118 1.923 . S
O117 Zn119 1.950 . S
O117 Zn120 1.945 . S
Zn118 O117 1.923 . S
Zn118 O121 1.933 . S
Zn118 O124 1.941 . S
Zn118 O125 1.965 . S
Zn119 O117 1.950 . S
Zn119 O126 1.938 . S
Zn119 O127 1.906 1_556 S
Zn119 O137 1.953 1_556 S
Zn120 O117 1.945 . S
Zn120 O122 1.932 . S
Zn120 O129 1.977 . S
Zn120 O130 1.910 . S
O121 Zn118 1.933 . S
O121 C132 1.226 . S
O122 Zn120 1.932 . S
O122 C132 1.307 . S
O123 Zn116 1.919 . S
O123 C134 1.253 . S
O124 Zn118 1.941 . S
O124 C134 1.283 . S
O125 Zn118 1.965 . S
O125 C133 1.303 . S
O126 Zn119 1.938 . S
O126 C133 1.247 . S
O127 Zn119 1.906 1_554 S
O127 C135 1.304 1_554 S
O128 Zn116 1.924 . S
O128 C136 1.311 . S
O129 Zn120 1.977 . S
O129 C135 1.272 . S
O130 Zn120 1.910 . S
O130 C136 1.231 . S
C131 O115 1.225 1_554 S
C131 O137 1.298 . S
C132 O121 1.226 . S
C132 O122 1.307 . S
C133 O125 1.303 . S
C133 O126 1.247 . S
C134 O123 1.253 . S
C134 O124 1.283 . S
C135 O127 1.304 1_556 S
C135 O129 1.272 . S
C136 O128 1.311 . S
C136 O130 1.231 . S
O137 Zn119 1.953 1_554 S
O137 C131 1.298 . S
O138 Zn139 1.953 . S
O138 C154 1.225 . S
Zn139 O138 1.953 . S
Zn139 O140 1.949 . S
Zn139 O146 1.919 . S
Zn139 O151 1.924 . S
O140 Zn139 1.949 . S
O140 Zn141 1.923 . S
O140 Zn142 1.950 . S
O140 Zn143 1.945 . S
Zn141 O140 1.923 . S
Zn141 O144 1.933 . S
Zn141 O147 1.941 . S
Zn141 O148 1.965 . S
Zn142 O140 1.950 . S
Zn142 O149 1.938 . S
Zn142 O150 1.906 . S
Zn142 O160 1.953 . S
Zn143 O140 1.945 . S
Zn143 O145 1.932 . S
Zn143 O152 1.977 . S
Zn143 O153 1.910 . S
O144 Zn141 1.933 . S
O144 C155 1.226 . S
O145 Zn143 1.932 . S
O145 C155 1.307 . S
O146 Zn139 1.919 . S
O146 C157 1.253 . S
O147 Zn141 1.941 . S
O147 C157 1.283 . S
O148 Zn141 1.965 . S
O148 C156 1.303 . S
O149 Zn142 1.938 . S
O149 C156 1.247 . S
O150 Zn142 1.906 . S
O150 C158 1.304 . S
O151 Zn139 1.924 . S
O151 C159 1.311 . S
O152 Zn143 1.977 . S
O152 C158 1.272 . S
O153 Zn143 1.910 . S
O153 C159 1.231 . S
C154 O138 1.225 . S
C154 O160 1.298 . S
C155 O144 1.226 . S
C155 O145 1.307 . S
C156 O148 1.303 . S
C156 O149 1.247 . S
C157 O146 1.253 . S
C157 O147 1.283 . S
C158 O150 1.304 . S
C158 O152 1.272 . S
C159 O151 1.311 . S
C159 O153 1.231 . S
O160 Zn142 1.953 . S
O160 C154 1.298 . S
O161 Zn162 1.953 . S
O161 C177 1.225 . S
Zn162 O161 1.953 . S
Zn162 O163 1.949 . S
Zn162 O169 1.919 . S
Zn162 O174 1.924 . S
O163 Zn162 1.949 . S
O163 Zn164 1.923 . S
O163 Zn165 1.950 . S
O163 Zn166 1.945 . S
Zn164 O163 1.923 . S
Zn164 O167 1.933 . S
Zn164 O170 1.941 . S
Zn164 O171 1.965 . S
Zn165 O163 1.950 . S
Zn165 O172 1.938 . S
Zn165 O173 1.906 . S
Zn165 O183 1.953 . S
Zn166 O163 1.945 . S
Zn166 O168 1.932 . S
Zn166 O175 1.977 . S
Zn166 O176 1.910 . S
O167 Zn164 1.933 . S
O167 C178 1.226 . S
O168 Zn166 1.932 . S
O168 C178 1.307 . S
O169 Zn162 1.919 . S
O169 C180 1.253 . S
O170 Zn164 1.941 . S
O170 C180 1.283 . S
O171 Zn164 1.965 . S
O171 C179 1.303 . S
O172 Zn165 1.938 . S
O172 C179 1.247 . S
O173 Zn165 1.906 . S
O173 C181 1.304 . S
O174 Zn162 1.924 . S
O174 C182 1.311 . S
O175 Zn166 1.977 . S
O175 C181 1.272 . S
O176 Zn166 1.910 . S
O176 C182 1.231 . S
C177 O161 1.225 . S
C177 O183 1.298 . S
C178 O167 1.226 . S
C178 O168 1.307 . S
C179 O171 1.303 . S
C179 O172 1.247 . S
C180 O169 1.253 . S
C180 O170 1.283 . S
C181 O173 1.304 . S
C181 O175 1.272 . S
C182 O174 1.311 . S
C182 O176 1.231 . S
O183 Zn165 1.953 . S
O183 C177 1.298 . S
O184 Zn185 1.953 . S
O184 C200 1.225 . S
Zn185 O184 1.953 . S
Zn185 O186 1.949 . S
Zn185 O192 1.919 . S
Zn185 O197 1.924 . S
O186 Zn185 1.949 . S
O186 Zn187 1.923 . S
O186 Zn188 1.950 . S
O186 Zn189 1.945 . S
Zn187 O186 1.923 . S
Zn187 O190 1.933 . S
Zn187 O193 1.941 . S
Zn187 O194 1.965 . S
Zn188 O186 1.950 . S
Zn188 O195 1.938 . S
Zn188 O196 1.906 . S
Zn188 O206 1.953 . S
Zn189 O186 1.945 . S
Zn189 O191 1.932 . S
Zn189 O198 1.977 . S
Zn189 O199 1.910 . S
O190 Zn187 1.933 . S
O190 C201 1.226 . S
O191 Zn189 1.932 . S
O191 C201 1.307 . S
O192 Zn185 1.919 . S
O192 C203 1.253 . S
O193 Zn187 1.941 . S
O193 C203 1.283 . S
O194 Zn187 1.965 . S
O194 C202 1.303 . S
O195 Zn188 1.938 . S
O195 C202 1.247 . S
O196 Zn188 1.906 . S
O196 C204 1.304 . S
O197 Zn185 1.924 . S
O197 C205 1.311 . S
O198 Zn189 1.977 . S
O198 C204 1.272 . S
O199 Zn189 1.910 . S
O199 C205 1.231 . S
C200 O184 1.225 . S
C200 O206 1.298 . S
C201 O190 1.226 . S
C201 O191 1.307 . S
C202 O194 1.303 . S
C202 O195 1.247 . S
C203 O192 1.253 . S
C203 O193 1.283 . S
C204 O196 1.304 . S
C204 O198 1.272 . S
C205 O197 1.311 . S
C205 O199 1.231 . S
O206 Zn188 1.953 . S
O206 C200 1.298 . S
O207 Zn208 1.953 . S
O207 C223 1.225 . S
Zn208 O207 1.953 . S
Zn208 O209 1.949 . S
Zn208 O215 1.919 . S
Zn208 O220 1.924 . S
O209 Zn208 1.949 . S
O209 Zn210 1.923 . S
O209 Zn211 1.950 . S
O209 Zn212 1.945 . S
Zn210 O209 1.923 . S
Zn210 O213 1.933 . S
Zn210 O216 1.941 . S
Zn210 O217 1.965 . S
Zn211 O209 1.950 . S
Zn211 O218 1.938 . S
Zn211 O219 1.906 . S
Zn211 O229 1.953 . S
Zn212 O209 1.945 . S
Zn212 O214 1.932 . S
Zn212 O221 1.977 . S
Zn212 O222 1.910 . S
O213 Zn210 1.933 . S
O213 C224 1.226 . S
O214 Zn212 1.932 . S
O214 C224 1.307 . S
O215 Zn208 1.919 . S
O215 C226 1.253 . S
O216 Zn210 1.941 . S
O216 C226 1.283 . S
O217 Zn210 1.965 . S
O217 C225 1.303 . S
O218 Zn211 1.938 . S
O218 C225 1.247 . S
O219 Zn211 1.906 . S
O219 C227 1.304 . S
O220 Zn208 1.924 . S
O220 C228 1.311 . S
O221 Zn212 1.977 . S
O221 C227 1.272 . S
O222 Zn212 1.910 . S
O222 C228 1.231 . S
C223 O207 1.225 . S
C223 O229 1.298 . S
C224 O213 1.226 . S
C224 O214 1.307 . S
C225 O217 1.303 . S
C225 O218 1.247 . S
C226 O215 1.253 . S
C226 O216 1.283 . S
C227 O219 1.304 . S
C227 O221 1.272 . S
C228 O220 1.311 . S
C228 O222 1.231 . S
O229 Zn211 1.953 . S
O229 C223 1.298 . S
O230 Zn231 1.953 . S
O230 C246 1.225 . S
Zn231 O230 1.953 . S
Zn231 O232 1.949 . S
Zn231 O238 1.919 . S
Zn231 O243 1.924 . S
O232 Zn231 1.949 . S
O232 Zn233 1.923 . S
O232 Zn234 1.950 . S
O232 Zn235 1.945 . S
Zn233 O232 1.923 . S
Zn233 O236 1.933 . S
Zn233 O239 1.941 . S
Zn233 O240 1.965 . S
Zn234 O232 1.950 . S
Zn234 O241 1.938 . S
Zn234 O242 1.906 . S
Zn234 O252 1.953 . S
Zn235 O232 1.945 . S
Zn235 O237 1.932 . S
Zn235 O244 1.977 . S
Zn235 O245 1.910 . S
O236 Zn233 1.933 . S
O236 C247 1.226 . S
O237 Zn235 1.932 . S
O237 C247 1.307 . S
O238 Zn231 1.919 . S
O238 C249 1.253 . S
O239 Zn233 1.941 . S
O239 C249 1.283 . S
O240 Zn233 1.965 . S
O240 C248 1.303 . S
O241 Zn234 1.938 . S
O241 C248 1.247 . S
O242 Zn234 1.906 . S
O242 C250 1.304 . S
O243 Zn231 1.924 . S
O243 C251 1.311 . S
O244 Zn235 1.977 . S
O244 C250 1.272 . S
O245 Zn235 1.910 . S
O245 C251 1.231 . S
C246 O230 1.225 . S
C246 O252 1.298 . S
C247 O236 1.226 . S
C247 O237 1.307 . S
C248 O240 1.303 . S
C248 O241 1.247 . S
C249 O238 1.253 . S
C249 O239 1.283 . S
C250 O242 1.304 . S
C250 O244 1.272 . S
C251 O243 1.311 . S
C251 O245 1.231 . S
O252 Zn234 1.953 . S
O252 C246 1.298 . S
O253 Zn254 1.953 . S
O253 C269 1.225 . S
Zn254 O253 1.953 . S
Zn254 O255 1.949 . S
Zn254 O261 1.919 . S
Zn254 O266 1.924 . S
O255 Zn254 1.949 . S
O255 Zn256 1.923 . S
O255 Zn257 1.950 . S
O255 Zn258 1.945 . S
Zn256 O255 1.923 . S
Zn256 O259 1.933 . S
Zn256 O262 1.941 . S
Zn256 O263 1.965 . S
Zn257 O255 1.950 . S
Zn257 O264 1.938 . S
Zn257 O265 1.906 . S
Zn257 O275 1.953 . S
Zn258 O255 1.945 . S
Zn258 O260 1.932 . S
Zn258 O267 1.977 . S
Zn258 O268 1.910 . S
O259 Zn256 1.933 . S
O259 C270 1.226 . S
O260 Zn258 1.932 . S
O260 C270 1.307 . S
O261 Zn254 1.919 . S
O261 C272 1.253 . S
O262 Zn256 1.941 . S
O262 C272 1.283 . S
O263 Zn256 1.965 . S
O263 C271 1.303 . S
O264 Zn257 1.938 . S
O264 C271 1.247 . S
O265 Zn257 1.906 . S
O265 C273 1.304 . S
O266 Zn254 1.924 . S
O266 C274 1.311 . S
O267 Zn258 1.977 . S
O267 C273 1.272 . S
O268 Zn258 1.910 . S
O268 C274 1.231 . S
C269 O253 1.225 . S
C269 O275 1.298 . S
C270 O259 1.226 . S
C270 O260 1.307 . S
C271 O263 1.303 . S
C271 O264 1.247 . S
C272 O261 1.253 . S
C272 O262 1.283 . S
C273 O265 1.304 . S
C273 O267 1.272 . S
C274 O266 1.311 . S
C274 O268 1.231 . S
O275 Zn257 1.953 . S
O275 C269 1.298 . S
O276 Zn277 1.953 . S
O276 C292 1.225 . S
Zn277 O276 1.953 . S
Zn277 O278 1.949 . S
Zn277 O284 1.919 . S
Zn277 O289 1.924 . S
O278 Zn277 1.949 . S
O278 Zn279 1.923 . S
O278 Zn280 1.950 . S
O278 Zn281 1.945 . S
Zn279 O278 1.923 . S
Zn279 O282 1.933 . S
Zn279 O285 1.941 . S
Zn279 O286 1.965 . S
Zn280 O278 1.950 . S
Zn280 O287 1.938 . S
Zn280 O288 1.906 . S
Zn280 O298 1.953 . S
Zn281 O278 1.945 . S
Zn281 O283 1.932 . S
Zn281 O290 1.977 . S
Zn281 O291 1.910 . S
O282 Zn279 1.933 . S
O282 C293 1.226 . S
O283 Zn281 1.932 . S
O283 C293 1.307 . S
O284 Zn277 1.919 . S
O284 C295 1.253 . S
O285 Zn279 1.941 . S
O285 C295 1.283 . S
O286 Zn279 1.965 . S
O286 C294 1.303 . S
O287 Zn280 1.938 . S
O287 C294 1.247 . S
O288 Zn280 1.906 . S
O288 C296 1.304 . S
O289 Zn277 1.924 . S
O289 C297 1.311 . S
O290 Zn281 1.977 . S
O290 C296 1.272 . S
O291 Zn281 1.910 . S
O291 C297 1.231 . S
C292 O276 1.225 . S
C292 O298 1.298 . S
C293 O282 1.226 . S
C293 O283 1.307 . S
C294 O286 1.303 . S
C294 O287 1.247 . S
C295 O284 1.253 . S
C295 O285 1.283 . S
C296 O288 1.304 . S
C296 O290 1.272 . S
C297 O289 1.311 . S
C297 O291 1.231 . S
O298 Zn280 1.953 . S
O298 C292 1.298 . S
O299 Zn300 1.953 . S
O299 C315 1.225 . S
Zn300 O299 1.953 . S
Zn300 O301 1.949 . S
Zn300 O307 1.919 . S
Zn300 O312 1.924 . S
O301 Zn300 1.949 . S
O301 Zn302 1.923 . S
O301 Zn303 1.950 . S
O301 Zn304 1.945 . S
Zn302 O301 1.923 . S
Zn302 O305 1.933 . S
Zn302 O308 1.941 . S
Zn302 O309 1.965 . S
Zn303 O301 1.950 . S
Zn303 O310 1.938 . S
Zn303 O311 1.906 . S
Zn303 O321 1.953 . S
Zn304 O301 1.945 . S
Zn304 O306 1.932 . S
Zn304 O313 1.977 . S
Zn304 O314 1.910 . S
O305 Zn302 1.933 . S
O305 C316 1.226 . S
O306 Zn304 1.932 . S
O306 C316 1.307 . S
O307 Zn300 1.919 . S
O307 C318 1.253 . S
O308 Zn302 1.941 . S
O308 C318 1.283 . S
O309 Zn302 1.965 . S
O309 C317 1.303 . S
O310 Zn303 1.938 . S
O310 C317 1.247 . S
O311 Zn303 1.906 . S
O311 C319 1.304 . S
O312 Zn300 1.924 . S
O312 C320 1.311 . S
O313 Zn304 1.977 . S
O313 C319 1.272 . S
O314 Zn304 1.910 . S
O314 C320 1.231 . S
C315 O299 1.225 . S
C315 O321 1.298 . S
C316 O305 1.226 . S
C316 O306 1.307 . S
C317 O309 1.303 . S
C317 O310 1.247 . S
C318 O307 1.253 . S
C318 O308 1.283 . S
C319 O311 1.304 . S
C319 O313 1.272 . S
C320 O312 1.311 . S
C320 O314 1.231 . S
O321 Zn303 1.953 . S
O321 C315 1.298 . S
O322 Zn323 1.953 . S
O322 C338 1.225 . S
Zn323 O322 1.953 . S
Zn323 O324 1.949 . S
Zn323 O330 1.919 . S
Zn323 O335 1.924 . S
O324 Zn323 1.949 . S
O324 Zn325 1.923 . S
O324 Zn326 1.950 . S
O324 Zn327 1.945 . S
Zn325 O324 1.923 . S
Zn325 O328 1.933 . S
Zn325 O331 1.941 . S
Zn325 O332 1.965 . S
Zn326 O324 1.950 . S
Zn326 O333 1.938 . S
Zn326 O334 1.906 . S
Zn326 O344 1.953 . S
Zn327 O324 1.945 . S
Zn327 O329 1.932 . S
Zn327 O336 1.977 . S
Zn327 O337 1.910 . S
O328 Zn325 1.933 . S
O328 C339 1.226 . S
O329 Zn327 1.932 . S
O329 C339 1.307 . S
O330 Zn323 1.919 . S
O330 C341 1.253 . S
O331 Zn325 1.941 . S
O331 C341 1.283 . S
O332 Zn325 1.965 . S
O332 C340 1.303 . S
O333 Zn326 1.938 . S
O333 C340 1.247 . S
O334 Zn326 1.906 . S
O334 C342 1.304 . S
O335 Zn323 1.924 . S
O335 C343 1.311 . S
O336 Zn327 1.977 . S
O336 C342 1.272 . S
O337 Zn327 1.910 . S
O337 C343 1.231 . S
C338 O322 1.225 . S
C338 O344 1.298 . S
C339 O328 1.226 . S
C339 O329 1.307 . S
C340 O332 1.303 . S
C340 O333 1.247 . S
C341 O330 1.253 . S
C341 O331 1.283 . S
C342 O334 1.304 . S
C342 O336 1.272 . S
C343 O335 1.311 . S
C343 O337 1.231 . S
O344 Zn326 1.953 . S
O344 C338 1.298 . S
O345 Zn346 1.953 . S
O345 C361 1.225 . S
Zn346 O345 1.953 . S
Zn346 O347 1.949 . S
Zn346 O353 1.919 . S
Zn346 O358 1.924 . S
O347 Zn346 1.949 . S
O347 Zn348 1.923 . S
O347 Zn349 1.950 . S
O347 Zn350 1.945 . S
Zn348 O347 1.923 . S
Zn348 O351 1.933 . S
Zn348 O354 1.941 . S
Zn348 O355 1.965 . S
Zn349 O347 1.950 . S
Zn349 O356 1.938 . S
Zn349 O357 1.906 . S
Zn349 O367 1.953 . S
Zn350 O347 1.945 . S
Zn350 O352 1.932 . S
Zn350 O359 1.977 . S
Zn350 O360 1.910 . S
O351 Zn348 1.933 . S
O351 C362 1.226 . S
O352 Zn350 1.932 . S
O352 C362 1.307 . S
O353 Zn346 1.919 . S
O353 C364 1.253 . S
O354 Zn348 1.941 . S
O354 C364 1.283 . S
O355 Zn348 1.965 . S
O355 C363 1.303 . S
O356 Zn349 1.938 . S
O356 C363 1.247 . S
O357 Zn349 1.906 . S
O357 C365 1.304 . S
O358 Zn346 1.924 . S
O358 C366 1.311 . S
O359 Zn350 1.977 . S
O359 C365 1.272 . S
O360 Zn350 1.910 . S
O360 C366 1.231 . S
C361 O345 1.225 . S
C361 O367 1.298 . S
C362 O351 1.226 . S
C362 O352 1.307 . S
C363 O355 1.303 . S
C363 O356 1.247 . S
C364 O353 1.253 . S
C364 O354 1.283 . S
C365 O357 1.304 . S
C365 O359 1.272 . S
C366 O358 1.311 . S
C366 O360 1.231 . S
O367 Zn349 1.953 . S
O367 C361 1.298 . S
O368 Zn369 1.953 . S
O368 C384 1.225 . S
Zn369 O368 1.953 . S
Zn369 O370 1.949 . S
Zn369 O376 1.919 . S
Zn369 O381 1.924 . S
O370 Zn369 1.949 . S
O370 Zn371 1.923 . S
O370 Zn372 1.950 . S
O370 Zn373 1.945 . S
Zn371 O370 1.923 . S
Zn371 O374 1.933 . S
Zn371 O377 1.941 . S
Zn371 O378 1.965 . S
Zn372 O370 1.950 . S
Zn372 O379 1.938 . S
Zn372 O380 1.906 . S
Zn372 O390 1.953 . S
Zn373 O370 1.945 . S
Zn373 O375 1.932 . S
Zn373 O382 1.977 . S
Zn373 O383 1.910 . S
O374 Zn371 1.933 . S
O374 C385 1.226 . S
O375 Zn373 1.932 . S
O375 C385 1.307 . S
O376 Zn369 1.919 . S
O376 C387 1.253 . S
O377 Zn371 1.941 . S
O377 C387 1.283 . S
O378 Zn371 1.965 . S
O378 C386 1.303 . S
O379 Zn372 1.938 . S
O379 C386 1.247 . S
O380 Zn372 1.906 . S
O380 C388 1.304 . S
O381 Zn369 1.924 . S
O381 C389 1.311 . S
O382 Zn373 1.977 . S
O382 C388 1.272 . S
O383 Zn373 1.910 . S
O383 C389 1.231 . S
C384 O368 1.225 . S
C384 O390 1.298 . S
C385 O374 1.226 . S
C385 O375 1.307 . S
C386 O378 1.303 . S
C386 O379 1.247 . S
C387 O376 1.253 . S
C387 O377 1.283 . S
C388 O380 1.304 . S
C388 O382 1.272 . S
C389 O381 1.311 . S
C389 O383 1.231 . S
O390 Zn372 1.953 . S
O390 C384 1.298 . S
O391 Zn392 1.953 . S
O391 C407 1.225 . S
Zn392 O391 1.953 . S
Zn392 O393 1.949 . S
Zn392 O399 1.919 . S
Zn392 O404 1.924 . S
O393 Zn392 1.949 . S
O393 Zn394 1.923 . S
O393 Zn395 1.950 . S
O393 Zn396 1.945 . S
Zn394 O393 1.923 . S
Zn394 O397 1.933 . S
Zn394 O400 1.941 . S
Zn394 O401 1.965 . S
Zn395 O393 1.950 . S
Zn395 O402 1.938 . S
Zn395 O403 1.906 . S
Zn395 O413 1.953 . S
Zn396 O393 1.945 . S
Zn396 O398 1.932 . S
Zn396 O405 1.977 . S
Zn396 O406 1.910 . S
O397 Zn394 1.933 . S
O397 C408 1.226 . S
O398 Zn396 1.932 . S
O398 C408 1.307 . S
O399 Zn392 1.919 . S
O399 C410 1.253 . S
O400 Zn394 1.941 . S
O400 C410 1.283 . S
O401 Zn394 1.965 . S
O401 C409 1.303 . S
O402 Zn395 1.938 . S
O402 C409 1.247 . S
O403 Zn395 1.906 . S
O403 C411 1.304 . S
O404 Zn392 1.924 . S
O404 C412 1.311 . S
O405 Zn396 1.977 . S
O405 C411 1.272 . S
O406 Zn396 1.910 . S
O406 C412 1.231 . S
C407 O391 1.225 . S
C407 O413 1.298 . S
C408 O397 1.226 . S
C408 O398 1.307 . S
C409 O401 1.303 . S
C409 O402 1.247 . S
C410 O399 1.253 . S
C410 O400 1.283 . S
C411 O403 1.304 . S
C411 O405 1.272 . S
C412 O404 1.311 . S
C412 O406 1.231 . S
O413 Zn395 1.953 . S
O413 C407 1.298 . S
H414 C420 0.930 . S
H415 C423 0.930 . S
H416 C424 0.930 . S
H417 C425 0.930 . S
H418 C428 0.930 1_554 S
H419 C429 0.930 . S
C420 H414 0.930 . S
C420 C421 1.355 . S
C420 C422 1.415 . S
C421 C420 1.355 . S
C421 C423 1.419 . S
C422 C420 1.415 . S
C422 C427 1.425 . S
C422 C429 1.409 . S
C423 H415 0.930 . S
C423 C421 1.419 . S
C423 C424 1.362 . S
C424 H416 0.930 . S
C424 C423 1.362 . S
C424 C427 1.409 . S
C425 H417 0.930 . S
C425 C426 1.355 . S
C425 C427 1.415 . S
C426 C425 1.355 . S
C426 C428 1.419 . S
C427 C422 1.425 . S
C427 C424 1.409 . S
C427 C425 1.415 . S
C428 H418 0.930 1_556 S
C428 C426 1.419 . S
C428 C429 1.362 . S
C429 H419 0.930 . S
C429 C422 1.409 . S
C429 C428 1.362 . S
H430 C436 0.930 1_565 S
H431 C439 0.930 . S
H432 C440 0.930 . S
H433 C441 0.930 . S
H434 C444 0.930 . S
H435 C445 0.930 . S
C436 H430 0.930 1_545 S
C436 C437 1.355 . S
C436 C438 1.415 . S
C437 C436 1.355 . S
C437 C439 1.419 1_556 S
C438 C436 1.415 . S
C438 C443 1.425 . S
C438 C445 1.409 . S
C439 H431 0.930 . S
C439 C437 1.419 1_554 S
C439 C440 1.362 . S
C440 H432 0.930 . S
C440 C439 1.362 . S
C440 C443 1.409 1_554 S
C441 H433 0.930 . S
C441 C442 1.355 . S
C441 C443 1.415 . S
C442 C441 1.355 . S
C442 C444 1.419 . S
C443 C438 1.425 . S
C443 C440 1.409 1_556 S
C443 C441 1.415 . S
C444 H434 0.930 . S
C444 C442 1.419 . S
C444 C445 1.362 . S
C445 H435 0.930 . S
C445 C438 1.409 . S
C445 C444 1.362 . S
H446 C452 0.930 . S
H447 C455 0.930 . S
H448 C456 0.930 1_554 S
H449 C457 0.930 1_554 S
H450 C460 0.930 . S
H451 C461 0.930 . S
C452 H446 0.930 . S
C452 C453 1.355 . S
C452 C454 1.415 . S
C453 C452 1.355 . S
C453 C455 1.419 . S
C454 C452 1.415 . S
C454 C459 1.425 . S
C454 C461 1.409 . S
C455 H447 0.930 . S
C455 C453 1.419 . S
C455 C456 1.362 . S
C456 H448 0.930 1_556 S
C456 C455 1.362 . S
C456 C459 1.409 . S
C457 H449 0.930 1_556 S
C457 C458 1.355 . S
C457 C459 1.415 . S
C458 C457 1.355 . S
C458 C460 1.419 . S
C459 C454 1.425 . S
C459 C456 1.409 . S
C459 C457 1.415 . S
C460 H450 0.930 . S
C460 C458 1.419 . S
C460 C461 1.362 . S
C461 H451 0.930 . S
C461 C454 1.409 . S
C461 C460 1.362 . S
H462 C468 0.930 . S
H463 C471 0.930 . S
H464 C472 0.930 . S
H465 C473 0.930 . S
H466 C476 0.930 . S
H467 C477 0.930 1_556 S
C468 H462 0.930 . S
C468 C469 1.355 1_556 S
C468 C470 1.415 1_556 S
C469 C468 1.355 1_554 S
C469 C471 1.419 . S
C470 C468 1.415 1_554 S
C470 C475 1.425 . S
C470 C477 1.409 . S
C471 H463 0.930 . S
C471 C469 1.419 . S
C471 C472 1.362 . S
C472 H464 0.930 . S
C472 C471 1.362 . S
C472 C475 1.409 . S
C473 H465 0.930 . S
C473 C474 1.355 . S
C473 C475 1.415 . S
C474 C473 1.355 . S
C474 C476 1.419 . S
C475 C470 1.425 . S
C475 C472 1.409 . S
C475 C473 1.415 . S
C476 H466 0.930 . S
C476 C474 1.419 . S
C476 C477 1.362 . S
C477 H467 0.930 1_554 S
C477 C470 1.409 . S
C477 C476 1.362 . S
H478 C484 0.930 1_545 S
H479 C487 0.930 . S
H480 C488 0.930 . S
H481 C489 0.930 . S
H482 C492 0.930 . S
H483 C493 0.930 . S
C484 H478 0.930 1_565 S
C484 C485 1.355 . S
C484 C486 1.415 . S
C485 C484 1.355 . S
C485 C487 1.419 1_554 S
C486 C484 1.415 . S
C486 C491 1.425 . S
C486 C493 1.409 . S
C487 H479 0.930 . S
C487 C485 1.419 1_556 S
C487 C488 1.362 . S
C488 H480 0.930 . S
C488 C487 1.362 . S
C488 C491 1.409 1_556 S
C489 H481 0.930 . S
C489 C490 1.355 . S
C489 C491 1.415 . S
C490 C489 1.355 . S
C490 C492 1.419 . S
C491 C486 1.425 . S
C491 C488 1.409 1_554 S
C491 C489 1.415 . S
C492 H482 0.930 . S
C492 C490 1.419 . S
C492 C493 1.362 . S
C493 H483 0.930 . S
C493 C486 1.409 . S
C493 C492 1.362 . S
H494 C500 0.930 . S
H495 C503 0.930 . S
H496 C504 0.930 . S
H497 C505 0.930 . S
H498 C508 0.930 . S
H499 C509 0.930 . S
C500 H494 0.930 . S
C500 C501 1.355 . S
C500 C502 1.415 . S
C501 C500 1.355 . S
C501 C503 1.419 . S
C502 C500 1.415 . S
C502 C507 1.425 . S
C502 C509 1.409 . S
C503 H495 0.930 . S
C503 C501 1.419 . S
C503 C504 1.362 1_554 S
C504 H496 0.930 . S
C504 C503 1.362 1_556 S
C504 C507 1.409 1_556 S
C505 H497 0.930 . S
C505 C506 1.355 1_556 S
C505 C507 1.415 1_556 S
C506 C505 1.355 1_554 S
C506 C508 1.419 1_455 S
C507 C502 1.425 . S
C507 C504 1.409 1_554 S
C507 C505 1.415 1_554 S
C508 H498 0.930 . S
C508 C506 1.419 1_655 S
C508 C509 1.362 1_655 S
C509 H499 0.930 . S
C509 C502 1.409 . S
C509 C508 1.362 1_455 S
H510 C516 0.930 . S
H511 C519 0.930 . S
H512 C520 0.930 . S
H513 C521 0.930 . S
H514 C524 0.930 . S
H515 C525 0.930 . S
C516 H510 0.930 . S
C516 C517 1.355 . S
C516 C518 1.415 . S
C517 C516 1.355 . S
C517 C519 1.419 . S
C518 C516 1.415 . S
C518 C523 1.425 . S
C518 C525 1.409 . S
C519 H511 0.930 . S
C519 C517 1.419 . S
C519 C520 1.362 . S
C520 H512 0.930 . S
C520 C519 1.362 . S
C520 C523 1.409 . S
C521 H513 0.930 . S
C521 C522 1.355 . S
C521 C523 1.415 . S
C522 C521 1.355 . S
C522 C524 1.419 . S
C523 C518 1.425 . S
C523 C520 1.409 . S
C523 C521 1.415 . S
C524 H514 0.930 . S
C524 C522 1.419 . S
C524 C525 1.362 . S
C525 H515 0.930 . S
C525 C518 1.409 . S
C525 C524 1.362 . S
H526 C532 0.930 . S
H527 C535 0.930 . S
H528 C536 0.930 . S
H529 C537 0.930 . S
H530 C540 0.930 . S
H531 C541 0.930 . S
C532 H526 0.930 . S
C532 C533 1.355 . S
C532 C534 1.415 . S
C533 C532 1.355 . S
C533 C535 1.419 . S
C534 C532 1.415 . S
C534 C539 1.425 . S
C534 C541 1.409 . S
C535 H527 0.930 . S
C535 C533 1.419 . S
C535 C536 1.362 . S
C536 H528 0.930 . S
C536 C535 1.362 . S
C536 C539 1.409 . S
C537 H529 0.930 . S
C537 C538 1.355 . S
C537 C539 1.415 . S
C538 C537 1.355 . S
C538 C540 1.419 . S
C539 C534 1.425 . S
C539 C536 1.409 . S
C539 C537 1.415 . S
C540 H530 0.930 . S
C540 C538 1.419 . S
C540 C541 1.362 . S
C541 H531 0.930 . S
C541 C534 1.409 . S
C541 C540 1.362 . S
H542 C548 0.930 . S
H543 C551 0.930 . S
H544 C552 0.930 . S
H545 C553 0.930 . S
H546 C556 0.930 . S
H547 C557 0.930 . S
C548 H542 0.930 . S
C548 C549 1.355 . S
C548 C550 1.415 . S
C549 C548 1.355 . S
C549 C551 1.419 . S
C550 C548 1.415 . S
C550 C555 1.425 . S
C550 C557 1.409 . S
C551 H543 0.930 . S
C551 C549 1.419 . S
C551 C552 1.362 . S
C552 H544 0.930 . S
C552 C551 1.362 . S
C552 C555 1.409 . S
C553 H545 0.930 . S
C553 C554 1.355 . S
C553 C555 1.415 . S
C554 C553 1.355 . S
C554 C556 1.419 . S
C555 C550 1.425 . S
C555 C552 1.409 . S
C555 C553 1.415 . S
C556 H546 0.930 . S
C556 C554 1.419 . S
C556 C557 1.362 . S
C557 H547 0.930 . S
C557 C550 1.409 . S
C557 C556 1.362 . S
H558 C564 0.930 . S
H559 C567 0.930 . S
H560 C568 0.930 . S
H561 C569 0.930 . S
H562 C572 0.930 . S
H563 C573 0.930 . S
C564 H558 0.930 . S
C564 C565 1.355 . S
C564 C566 1.415 . S
C565 C564 1.355 . S
C565 C567 1.419 . S
C566 C564 1.415 . S
C566 C571 1.425 . S
C566 C573 1.409 . S
C567 H559 0.930 . S
C567 C565 1.419 . S
C567 C568 1.362 . S
C568 H560 0.930 . S
C568 C567 1.362 . S
C568 C571 1.409 . S
C569 H561 0.930 . S
C569 C570 1.355 . S
C569 C571 1.415 . S
C570 C569 1.355 . S
C570 C572 1.419 . S
C571 C566 1.425 . S
C571 C568 1.409 . S
C571 C569 1.415 . S
C572 H562 0.930 . S
C572 C570 1.419 . S
C572 C573 1.362 . S
C573 H563 0.930 . S
C573 C566 1.409 . S
C573 C572 1.362 . S
H574 C580 0.930 . S
H575 C583 0.930 . S
H576 C584 0.930 . S
H577 C585 0.930 . S
H578 C588 0.930 . S
H579 C589 0.930 . S
C580 H574 0.930 . S
C580 C581 1.355 . S
C580 C582 1.415 . S
C581 C580 1.355 . S
C581 C583 1.419 . S
C582 C580 1.415 . S
C582 C587 1.425 . S
C582 C589 1.409 . S
C583 H575 0.930 . S
C583 C581 1.419 . S
C583 C584 1.362 . S
C584 H576 0.930 . S
C584 C583 1.362 . S
C584 C587 1.409 . S
C585 H577 0.930 . S
C585 C586 1.355 . S
C585 C587 1.415 . S
C586 C585 1.355 . S
C586 C588 1.419 . S
C587 C582 1.425 . S
C587 C584 1.409 . S
C587 C585 1.415 . S
C588 H578 0.930 . S
C588 C586 1.419 . S
C588 C589 1.362 . S
C589 H579 0.930 . S
C589 C582 1.409 . S
C589 C588 1.362 . S
H590 C596 0.930 . S
H591 C599 0.930 . S
H592 C600 0.930 . S
H593 C601 0.930 . S
H594 C604 0.930 . S
H595 C605 0.930 . S
C596 H590 0.930 . S
C596 C597 1.355 . S
C596 C598 1.415 . S
C597 C596 1.355 . S
C597 C599 1.419 . S
C598 C596 1.415 . S
C598 C603 1.425 . S
C598 C605 1.409 . S
C599 H591 0.930 . S
C599 C597 1.419 . S
C599 C600 1.362 . S
C600 H592 0.930 . S
C600 C599 1.362 . S
C600 C603 1.409 . S
C601 H593 0.930 . S
C601 C602 1.355 . S
C601 C603 1.415 . S
C602 C601 1.355 . S
C602 C604 1.419 . S
C603 C598 1.425 . S
C603 C600 1.409 . S
C603 C601 1.415 . S
C604 H594 0.930 . S
C604 C602 1.419 . S
C604 C605 1.362 . S
C605 H595 0.930 . S
C605 C598 1.409 . S
C605 C604 1.362 . S
H606 C612 0.930 . S
H607 C615 0.930 . S
H608 C616 0.930 . S
H609 C617 0.930 . S
H610 C620 0.930 . S
H611 C621 0.930 . S
C612 H606 0.930 . S
C612 C613 1.355 . S
C612 C614 1.415 . S
C613 C612 1.355 . S
C613 C615 1.419 . S
C614 C612 1.415 . S
C614 C619 1.425 . S
C614 C621 1.409 . S
C615 H607 0.930 . S
C615 C613 1.419 . S
C615 C616 1.362 . S
C616 H608 0.930 . S
C616 C615 1.362 . S
C616 C619 1.409 . S
C617 H609 0.930 . S
C617 C618 1.355 . S
C617 C619 1.415 . S
C618 C617 1.355 . S
C618 C620 1.419 . S
C619 C614 1.425 . S
C619 C616 1.409 . S
C619 C617 1.415 . S
C620 H610 0.930 . S
C620 C618 1.419 . S
C620 C621 1.362 . S
C621 H611 0.930 . S
C621 C614 1.409 . S
C621 C620 1.362 . S
H622 C628 0.930 . S
H623 C631 0.930 . S
H624 C632 0.930 . S
H625 C633 0.930 . S
H626 C636 0.930 . S
H627 C637 0.930 . S
C628 H622 0.930 . S
C628 C629 1.355 . S
C628 C630 1.415 . S
C629 C628 1.355 . S
C629 C631 1.419 . S
C630 C628 1.415 . S
C630 C635 1.425 . S
C630 C637 1.409 . S
C631 H623 0.930 . S
C631 C629 1.419 . S
C631 C632 1.362 . S
C632 H624 0.930 . S
C632 C631 1.362 . S
C632 C635 1.409 . S
C633 H625 0.930 . S
C633 C634 1.355 . S
C633 C635 1.415 . S
C634 C633 1.355 . S
C634 C636 1.419 . S
C635 C630 1.425 . S
C635 C632 1.409 . S
C635 C633 1.415 . S
C636 H626 0.930 . S
C636 C634 1.419 . S
C636 C637 1.362 . S
C637 H627 0.930 . S
C637 C630 1.409 . S
C637 C636 1.362 . S
H638 C644 0.930 . S
H639 C647 0.930 . S
H640 C648 0.930 . S
H641 C649 0.930 . S
H642 C652 0.930 . S
H643 C653 0.930 . S
C644 H638 0.930 . S
C644 C645 1.355 . S
C644 C646 1.415 . S
C645 C644 1.355 . S
C645 C647 1.419 . S
C646 C644 1.415 . S
C646 C651 1.425 . S
C646 C653 1.409 . S
C647 H639 0.930 . S
C647 C645 1.419 . S
C647 C648 1.362 . S
C648 H640 0.930 . S
C648 C647 1.362 . S
C648 C651 1.409 . S
C649 H641 0.930 . S
C649 C650 1.355 . S
C649 C651 1.415 . S
C650 C649 1.355 . S
C650 C652 1.419 . S
C651 C646 1.425 . S
C651 C648 1.409 . S
C651 C649 1.415 . S
C652 H642 0.930 . S
C652 C650 1.419 . S
C652 C653 1.362 . S
C653 H643 0.930 . S
C653 C646 1.409 . S
C653 C652 1.362 . S
H654 C660 0.930 . S
H655 C663 0.930 . S
H656 C664 0.930 . S
H657 C665 0.930 . S
H658 C668 0.930 . S
H659 C669 0.930 . S
C660 H654 0.930 . S
C660 C661 1.355 . S
C660 C662 1.415 . S
C661 C660 1.355 . S
C661 C663 1.419 . S
C662 C660 1.415 . S
C662 C667 1.425 . S
C662 C669 1.409 . S
C663 H655 0.930 . S
C663 C661 1.419 . S
C663 C664 1.362 . S
C664 H656 0.930 . S
C664 C663 1.362 . S
C664 C667 1.409 . S
C665 H657 0.930 . S
C665 C666 1.355 . S
C665 C667 1.415 . S
C666 C665 1.355 . S
C666 C668 1.419 . S
C667 C662 1.425 . S
C667 C664 1.409 . S
C667 C665 1.415 . S
C668 H658 0.930 . S
C668 C666 1.419 . S
C668 C669 1.362 . S
C669 H659 0.930 . S
C669 C662 1.409 . S
C669 C668 1.362 . S
H670 C676 0.930 . S
H671 C679 0.930 . S
H672 C680 0.930 . S
H673 C681 0.930 . S
H674 C684 0.930 . S
H675 C685 0.930 . S
C676 H670 0.930 . S
C676 C677 1.355 . S
C676 C678 1.415 . S
C677 C676 1.355 . S
C677 C679 1.419 . S
C678 C676 1.415 . S
C678 C683 1.425 . S
C678 C685 1.409 . S
C679 H671 0.930 . S
C679 C677 1.419 . S
C679 C680 1.362 . S
C680 H672 0.930 . S
C680 C679 1.362 . S
C680 C683 1.409 . S
C681 H673 0.930 . S
C681 C682 1.355 . S
C681 C683 1.415 . S
C682 C681 1.355 . S
C682 C684 1.419 . S
C683 C678 1.425 . S
C683 C680 1.409 . S
C683 C681 1.415 . S
C684 H674 0.930 . S
C684 C682 1.419 . S
C684 C685 1.362 . S
C685 H675 0.930 . S
C685 C678 1.409 . S
C685 C684 1.362 . S
H686 C692 0.930 . S
H687 C695 0.930 . S
H688 C696 0.930 . S
H689 C697 0.930 . S
H690 C700 0.930 . S
H691 C701 0.930 . S
C692 H686 0.930 . S
C692 C693 1.355 . S
C692 C694 1.415 . S
C693 C692 1.355 . S
C693 C695 1.419 . S
C694 C692 1.415 . S
C694 C699 1.425 . S
C694 C701 1.409 . S
C695 H687 0.930 . S
C695 C693 1.419 . S
C695 C696 1.362 . S
C696 H688 0.930 . S
C696 C695 1.362 . S
C696 C699 1.409 . S
C697 H689 0.930 . S
C697 C698 1.355 . S
C697 C699 1.415 . S
C698 C697 1.355 . S
C698 C700 1.419 . S
C699 C694 1.425 . S
C699 C696 1.409 . S
C699 C697 1.415 . S
C700 H690 0.930 . S
C700 C698 1.419 . S
C700 C701 1.362 . S
C701 H691 0.930 . S
C701 C694 1.409 . S
C701 C700 1.362 . S
H702 C708 0.930 . S
H703 C711 0.930 . S
H704 C712 0.930 . S
H705 C713 0.930 . S
H706 C716 0.930 . S
H707 C717 0.930 . S
C708 H702 0.930 . S
C708 C709 1.355 . S
C708 C710 1.415 . S
C709 C708 1.355 . S
C709 C711 1.419 . S
C710 C708 1.415 . S
C710 C715 1.425 . S
C710 C717 1.409 . S
C711 H703 0.930 . S
C711 C709 1.419 . S
C711 C712 1.362 . S
C712 H704 0.930 . S
C712 C711 1.362 . S
C712 C715 1.409 . S
C713 H705 0.930 . S
C713 C714 1.355 . S
C713 C715 1.415 . S
C714 C713 1.355 . S
C714 C716 1.419 . S
C715 C710 1.425 . S
C715 C712 1.409 . S
C715 C713 1.415 . S
C716 H706 0.930 . S
C716 C714 1.419 . S
C716 C717 1.362 . S
C717 H707 0.930 . S
C717 C710 1.409 . S
C717 C716 1.362 . S
H718 C724 0.930 . S
H719 C727 0.930 . S
H720 C728 0.930 . S
H721 C729 0.930 . S
H722 C732 0.930 . S
H723 C733 0.930 . S
C724 H718 0.930 . S
C724 C725 1.355 . S
C724 C726 1.415 . S
C725 C724 1.355 . S
C725 C727 1.419 . S
C726 C724 1.415 . S
C726 C731 1.425 . S
C726 C733 1.409 . S
C727 H719 0.930 . S
C727 C725 1.419 . S
C727 C728 1.362 . S
C728 H720 0.930 . S
C728 C727 1.362 . S
C728 C731 1.409 . S
C729 H721 0.930 . S
C729 C730 1.355 . S
C729 C731 1.415 . S
C730 C729 1.355 . S
C730 C732 1.419 . S
C731 C726 1.425 . S
C731 C728 1.409 . S
C731 C729 1.415 . S
C732 H722 0.930 . S
C732 C730 1.419 . S
C732 C733 1.362 . S
C733 H723 0.930 . S
C733 C726 1.409 . S
C733 C732 1.362 . S
H734 C740 0.930 . S
H735 C743 0.930 . S
H736 C744 0.930 . S
H737 C745 0.930 . S
H738 C748 0.930 . S
H739 C749 0.930 . S
C740 H734 0.930 . S
C740 C741 1.355 . S
C740 C742 1.415 . S
C741 C740 1.355 . S
C741 C743 1.419 . S
C742 C740 1.415 . S
C742 C747 1.425 . S
C742 C749 1.409 . S
C743 H735 0.930 . S
C743 C741 1.419 . S
C743 C744 1.362 . S
C744 H736 0.930 . S
C744 C743 1.362 . S
C744 C747 1.409 . S
C745 H737 0.930 . S
C745 C746 1.355 . S
C745 C747 1.415 . S
C746 C745 1.355 . S
C746 C748 1.419 . S
C747 C742 1.425 . S
C747 C744 1.409 . S
C747 C745 1.415 . S
C748 H738 0.930 . S
C748 C746 1.419 . S
C748 C749 1.362 . S
C749 H739 0.930 . S
C749 C742 1.409 . S
C749 C748 1.362 . S
H750 C756 0.930 . S
H751 C759 0.930 . S
H752 C760 0.930 . S
H753 C761 0.930 . S
H754 C764 0.930 . S
H755 C765 0.930 . S
C756 H750 0.930 . S
C756 C757 1.355 . S
C756 C758 1.415 . S
C757 C756 1.355 . S
C757 C759 1.419 . S
C758 C756 1.415 . S
C758 C763 1.425 . S
C758 C765 1.409 . S
C759 H751 0.930 . S
C759 C757 1.419 . S
C759 C760 1.362 . S
C760 H752 0.930 . S
C760 C759 1.362 . S
C760 C763 1.409 . S
C761 H753 0.930 . S
C761 C762 1.355 . S
C761 C763 1.415 . S
C762 C761 1.355 . S
C762 C764 1.419 . S
C763 C758 1.425 . S
C763 C760 1.409 . S
C763 C761 1.415 . S
C764 H754 0.930 . S
C764 C762 1.419 . S
C764 C765 1.362 . S
C765 H755 0.930 . S
C765 C758 1.409 . S
C765 C764 1.362 . S
H766 C772 0.930 . S
H767 C775 0.930 . S
H768 C776 0.930 . S
H769 C777 0.930 . S
H770 C780 0.930 . S
H771 C781 0.930 . S
C772 H766 0.930 . S
C772 C773 1.355 . S
C772 C774 1.415 . S
C773 C772 1.355 . S
C773 C775 1.419 . S
C774 C772 1.415 . S
C774 C779 1.425 . S
C774 C781 1.409 . S
C775 H767 0.930 . S
C775 C773 1.419 . S
C775 C776 1.362 . S
C776 H768 0.930 . S
C776 C775 1.362 . S
C776 C779 1.409 . S
C777 H769 0.930 . S
C777 C778 1.355 . S
C777 C779 1.415 . S
C778 C777 1.355 . S
C778 C780 1.419 . S
C779 C774 1.425 . S
C779 C776 1.409 . S
C779 C777 1.415 . S
C780 H770 0.930 . S
C780 C778 1.419 . S
C780 C781 1.362 . S
C781 H771 0.930 . S
C781 C774 1.409 . S
C781 C780 1.362 . S
H782 C788 0.930 . S
H783 C791 0.930 . S
H784 C792 0.930 . S
H785 C793 0.930 . S
H786 C796 0.930 . S
H787 C797 0.930 . S
C788 H782 0.930 . S
C788 C789 1.355 . S
C788 C790 1.415 . S
C789 C788 1.355 . S
C789 C791 1.419 . S
C790 C788 1.415 . S
C790 C795 1.425 . S
C790 C797 1.409 . S
C791 H783 0.930 . S
C791 C789 1.419 . S
C791 C792 1.362 . S
C792 H784 0.930 . S
C792 C791 1.362 . S
C792 C795 1.409 . S
C793 H785 0.930 . S
C793 C794 1.355 . S
C793 C795 1.415 . S
C794 C793 1.355 . S
C794 C796 1.419 . S
C795 C790 1.425 . S
C795 C792 1.409 . S
C795 C793 1.415 . S
C796 H786 0.930 . S
C796 C794 1.419 . S
C796 C797 1.362 . S
C797 H787 0.930 . S
C797 C790 1.409 . S
C797 C796 1.362 . S
H798 C804 0.930 . S
H799 C807 0.930 . S
H800 C808 0.930 1_545 S
H801 C809 0.930 . S
H802 C812 0.930 . S
H803 C813 0.930 1_565 S
C804 H798 0.930 . S
C804 C805 1.355 . S
C804 C806 1.415 . S
C805 C804 1.355 . S
C805 C807 1.419 . S
C806 C804 1.415 . S
C806 C811 1.425 1_565 S
C806 C813 1.409 1_565 S
C807 H799 0.930 . S
C807 C805 1.419 . S
C807 C808 1.362 . S
C808 H800 0.930 1_565 S
C808 C807 1.362 . S
C808 C811 1.409 1_565 S
C809 H801 0.930 . S
C809 C810 1.355 . S
C809 C811 1.415 . S
C810 C809 1.355 . S
C810 C812 1.419 . S
C811 C806 1.425 1_545 S
C811 C808 1.409 1_545 S
C811 C809 1.415 . S
C812 H802 0.930 . S
C812 C810 1.419 . S
C812 C813 1.362 . S
C813 H803 0.930 1_545 S
C813 C806 1.409 1_545 S
C813 C812 1.362 . S
H814 C820 0.930 . S
H815 C823 0.941 . S
H816 C824 0.930 . S
H817 C825 0.930 . S
H818 C828 0.941 . S
H819 C829 0.930 . S
C820 H814 0.930 . S
C820 C821 1.355 . S
C820 C822 1.415 . S
C821 C820 1.355 . S
C821 C823 1.419 . S
C822 C820 1.415 . S
C822 C827 1.425 1_455 S
C822 C829 1.409 . S
C823 H815 0.941 . S
C823 C821 1.419 . S
C823 C824 1.362 1_455 S
C824 H816 0.930 . S
C824 C823 1.362 1_655 S
C824 C827 1.409 . S
C825 H817 0.930 . S
C825 C826 1.355 . S
C825 C827 1.415 . S
C826 C825 1.355 . S
C826 C828 1.419 . S
C827 C822 1.425 1_655 S
C827 C824 1.409 . S
C827 C825 1.415 . S
C828 H818 0.941 . S
C828 C826 1.419 . S
C828 C829 1.362 1_655 S
C829 H819 0.930 . S
C829 C822 1.409 . S
C829 C828 1.362 1_455 S
H830 C836 0.930 . S
H831 C839 0.930 . S
H832 C840 0.930 . S
H833 C841 0.930 . S
H834 C844 0.930 . S
H835 C845 0.930 . S
C836 H830 0.930 . S
C836 C837 1.355 . S
C836 C838 1.415 . S
C837 C836 1.355 . S
C837 C839 1.419 . S
C838 C836 1.415 . S
C838 C843 1.425 . S
C838 C845 1.409 . S
C839 H831 0.930 . S
C839 C837 1.419 . S
C839 C840 1.362 . S
C840 H832 0.930 . S
C840 C839 1.362 . S
C840 C843 1.409 . S
C841 H833 0.930 . S
C841 C842 1.355 . S
C841 C843 1.415 . S
C842 C841 1.355 . S
C842 C844 1.419 . S
C843 C838 1.425 . S
C843 C840 1.409 . S
C843 C841 1.415 . S
C844 H834 0.930 . S
C844 C842 1.419 . S
C844 C845 1.362 . S
C845 H835 0.930 . S
C845 C838 1.409 . S
C845 C844 1.362 . S
H846 C852 0.930 . S
H847 C855 0.930 . S
H848 C856 0.930 . S
H849 C857 0.930 . S
H850 C860 0.930 . S
H851 C861 0.930 . S
C852 H846 0.930 . S
C852 C853 1.355 . S
C852 C854 1.415 . S
C853 C852 1.355 . S
C853 C855 1.419 . S
C854 C852 1.415 . S
C854 C859 1.425 . S
C854 C861 1.409 . S
C855 H847 0.930 . S
C855 C853 1.419 . S
C855 C856 1.362 . S
C856 H848 0.930 . S
C856 C855 1.362 . S
C856 C859 1.409 . S
C857 H849 0.930 . S
C857 C858 1.355 . S
C857 C859 1.415 . S
C858 C857 1.355 . S
C858 C860 1.419 . S
C859 C854 1.425 . S
C859 C856 1.409 . S
C859 C857 1.415 . S
C860 H850 0.930 . S
C860 C858 1.419 . S
C860 C861 1.362 . S
C861 H851 0.930 . S
C861 C854 1.409 . S
C861 C860 1.362 . S
H862 C868 0.930 . S
H863 C871 0.930 . S
H864 C872 0.930 . S
H865 C873 0.930 . S
H866 C876 0.930 . S
H867 C877 0.930 . S
C868 H862 0.930 . S
C868 C869 1.355 . S
C868 C870 1.415 . S
C869 C868 1.355 . S
C869 C871 1.419 . S
C870 C868 1.415 . S
C870 C875 1.425 . S
C870 C877 1.409 . S
C871 H863 0.930 . S
C871 C869 1.419 . S
C871 C872 1.362 . S
C872 H864 0.930 . S
C872 C871 1.362 . S
C872 C875 1.409 . S
C873 H865 0.930 . S
C873 C874 1.355 . S
C873 C875 1.415 1_565 S
C874 C873 1.355 . S
C874 C876 1.419 . S
C875 C870 1.425 . S
C875 C872 1.409 . S
C875 C873 1.415 1_545 S
C876 H866 0.930 . S
C876 C874 1.419 . S
C876 C877 1.362 1_565 S
C877 H867 0.930 . S
C877 C870 1.409 . S
C877 C876 1.362 1_545 S
H878 C884 0.930 . S
H879 C887 0.930 . S
H880 C888 0.930 . S
H881 C889 0.930 . S
H882 C892 0.930 . S
H883 C893 0.930 . S
C884 H878 0.930 . S
C884 C885 1.355 . S
C884 C886 1.415 . S
C885 C884 1.355 . S
C885 C887 1.419 . S
C886 C884 1.415 . S
C886 C891 1.425 . S
C886 C893 1.409 1_655 S
C887 H879 0.930 . S
C887 C885 1.419 . S
C887 C888 1.362 . S
C888 H880 0.930 . S
C888 C887 1.362 . S
C888 C891 1.409 . S
C889 H881 0.930 . S
C889 C890 1.355 1_655 S
C889 C891 1.415 . S
C890 C889 1.355 1_455 S
C890 C892 1.419 . S
C891 C886 1.425 . S
C891 C888 1.409 . S
C891 C889 1.415 . S
C892 H882 0.930 . S
C892 C890 1.419 . S
C892 C893 1.362 . S
C893 H883 0.930 . S
C893 C886 1.409 1_455 S
C893 C892 1.362 . S
H894 C900 0.930 . S
H895 C903 0.930 . S
H896 C904 0.930 . S
H897 C905 0.930 . S
H898 C908 0.930 . S
H899 C909 0.930 . S
C900 H894 0.930 . S
C900 C901 1.355 . S
C900 C902 1.415 . S
C901 C900 1.355 . S
C901 C903 1.419 . S
C902 C900 1.415 . S
C902 C907 1.425 . S
C902 C909 1.409 . S
C903 H895 0.930 . S
C903 C901 1.419 . S
C903 C904 1.362 . S
C904 H896 0.930 . S
C904 C903 1.362 . S
C904 C907 1.409 . S
C905 H897 0.930 . S
C905 C906 1.355 . S
C905 C907 1.415 . S
C906 C905 1.355 . S
C906 C908 1.419 . S
C907 C902 1.425 . S
C907 C904 1.409 . S
C907 C905 1.415 . S
C908 H898 0.930 . S
C908 C906 1.419 . S
C908 C909 1.362 . S
C909 H899 0.930 . S
C909 C902 1.409 . S
C909 C908 1.362 . S
H910 C916 0.930 . S
H911 C919 0.930 . S
H912 C920 0.930 1_545 S
H913 C921 0.930 . S
H914 C924 0.930 . S
H915 C925 0.930 . S
C916 H910 0.930 . S
C916 C917 1.355 . S
C916 C918 1.415 . S
C917 C916 1.355 . S
C917 C919 1.419 . S
C918 C916 1.415 . S
C918 C923 1.425 . S
C918 C925 1.409 . S
C919 H911 0.930 . S
C919 C917 1.419 . S
C919 C920 1.362 . S
C920 H912 0.930 1_565 S
C920 C919 1.362 . S
C920 C923 1.409 . S
C921 H913 0.930 . S
C921 C922 1.355 . S
C921 C923 1.415 1_545 S
C922 C921 1.355 . S
C922 C924 1.419 1_545 S
C923 C918 1.425 . S
C923 C920 1.409 . S
C923 C921 1.415 1_565 S
C924 H914 0.930 . S
C924 C922 1.419 1_565 S
C924 C925 1.362 . S
C925 H915 0.930 . S
C925 C918 1.409 . S
C925 C924 1.362 . S
H926 C932 0.930 . S
H927 C935 0.930 . S
H928 C936 0.930 . S
H929 C937 0.930 . S
H930 C940 0.930 . S
H931 C941 0.930 . S
C932 H926 0.930 . S
C932 C933 1.355 1_455 S
C932 C934 1.415 . S
C933 C932 1.355 1_655 S
C933 C935 1.419 . S
C934 C932 1.415 . S
C934 C939 1.425 . S
C934 C941 1.409 . S
C935 H927 0.930 . S
C935 C933 1.419 . S
C935 C936 1.362 . S
C936 H928 0.930 . S
C936 C935 1.362 . S
C936 C939 1.409 1_655 S
C937 H929 0.930 . S
C937 C938 1.355 . S
C937 C939 1.415 . S
C938 C937 1.355 . S
C938 C940 1.419 . S
C939 C934 1.425 . S
C939 C936 1.409 1_455 S
C939 C937 1.415 . S
C940 H930 0.930 . S
C940 C938 1.419 . S
C940 C941 1.362 . S
C941 H931 0.930 . S
C941 C934 1.409 . S
C941 C940 1.362 . S
H942 C948 0.930 . S
H943 C951 0.930 . S
H944 C952 0.930 . S
H945 C953 0.930 . S
H946 C956 0.930 . S
H947 C957 0.930 . S
C948 H942 0.930 . S
C948 C949 1.355 . S
C948 C950 1.415 . S
C949 C948 1.355 . S
C949 C951 1.419 . S
C950 C948 1.415 . S
C950 C955 1.425 . S
C950 C957 1.409 . S
C951 H943 0.930 . S
C951 C949 1.419 . S
C951 C952 1.362 . S
C952 H944 0.930 . S
C952 C951 1.362 . S
C952 C955 1.409 . S
C953 H945 0.930 . S
C953 C954 1.355 . S
C953 C955 1.415 . S
C954 C953 1.355 . S
C954 C956 1.419 . S
C955 C950 1.425 . S
C955 C952 1.409 . S
C955 C953 1.415 . S
C956 H946 0.930 . S
C956 C954 1.419 . S
C956 C957 1.362 . S
C957 H947 0.930 . S
C957 C950 1.409 . S
C957 C956 1.362 . S
H958 C964 0.930 . S
H959 C967 0.930 . S
H960 C968 0.930 . S
H961 C969 0.930 . S
H962 C972 0.930 . S
H963 C973 0.930 . S
C964 H958 0.930 . S
C964 C965 1.355 . S
C964 C966 1.415 . S
C965 C964 1.355 . S
C965 C967 1.419 . S
C966 C964 1.415 . S
C966 C971 1.425 . S
C966 C973 1.409 . S
C967 H959 0.930 . S
C967 C965 1.419 . S
C967 C968 1.362 . S
C968 H960 0.930 . S
C968 C967 1.362 . S
C968 C971 1.409 . S
C969 H961 0.930 . S
C969 C970 1.355 . S
C969 C971 1.415 . S
C970 C969 1.355 . S
C970 C972 1.419 . S
C971 C966 1.425 . S
C971 C968 1.409 . S
C971 C969 1.415 . S
C972 H962 0.930 . S
C972 C970 1.419 . S
C972 C973 1.362 . S
C973 H963 0.930 . S
C973 C966 1.409 . S
C973 C972 1.362 . S
H974 C980 0.930 . S
H975 C983 0.930 . S
H976 C984 0.930 . S
H977 C985 0.930 . S
H978 C988 0.930 1_565 S
H979 C989 0.930 . S
C980 H974 0.930 . S
C980 C981 1.355 . S
C980 C982 1.415 . S
C981 C980 1.355 . S
C981 C983 1.419 . S
C982 C980 1.415 . S
C982 C987 1.425 . S
C982 C989 1.409 . S
C983 H975 0.930 . S
C983 C981 1.419 . S
C983 C984 1.362 . S
C984 H976 0.930 . S
C984 C983 1.362 . S
C984 C987 1.409 . S
C985 H977 0.930 . S
C985 C986 1.355 . S
C985 C987 1.415 . S
C986 C985 1.355 . S
C986 C988 1.419 . S
C987 C982 1.425 . S
C987 C984 1.409 . S
C987 C985 1.415 . S
C988 H978 0.930 1_545 S
C988 C986 1.419 . S
C988 C989 1.362 . S
C989 H979 0.930 . S
C989 C982 1.409 . S
C989 C988 1.362 . S
H990 C996 0.930 . S
H991 C999 0.930 . S
H992 C1000 0.930 . S
H993 C1001 0.930 . S
H994 C1004 0.930 . S
H995 C1005 0.930 . S
C996 H990 0.930 . S
C996 C997 1.355 1_556 S
C996 C998 1.415 1_556 S
C997 C996 1.355 1_554 S
C997 C999 1.419 . S
C998 C996 1.415 1_554 S
C998 C1003 1.425 . S
C998 C1005 1.409 1_554 S
C999 H991 0.930 . S
C999 C997 1.419 . S
C999 C1000 1.362 . S
C1000 H992 0.930 . S
C1000 C999 1.362 . S
C1000 C1003 1.409 . S
C1001 H993 0.930 . S
C1001 C1002 1.355 . S
C1001 C1003 1.415 . S
C1002 C1001 1.355 . S
C1002 C1004 1.419 . S
C1003 C998 1.425 . S
C1003 C1000 1.409 . S
C1003 C1001 1.415 . S
C1004 H994 0.930 . S
C1004 C1002 1.419 . S
C1004 C1005 1.362 1_554 S
C1005 H995 0.930 . S
C1005 C998 1.409 1_556 S
C1005 C1004 1.362 1_556 S
H1006 C1012 0.930 . S
H1007 C1015 0.930 . S
H1008 C1016 0.930 . S
H1009 C1017 0.930 . S
H1010 C1020 0.930 . S
H1011 C1021 0.930 1_556 S
C1012 H1006 0.930 . S
C1012 C1013 1.360 . S
C1012 C1014 1.415 1_556 S
C1013 C1012 1.360 . S
C1013 C1015 1.404 1_556 S
C1014 C1012 1.415 1_554 S
C1014 C1019 1.425 . S
C1014 C1021 1.409 . S
C1015 H1007 0.930 . S
C1015 C1013 1.404 1_554 S
C1015 C1016 1.362 . S
C1016 H1008 0.930 . S
C1016 C1015 1.362 . S
C1016 C1019 1.409 . S
C1017 H1009 0.930 . S
C1017 C1018 1.355 . S
C1017 C1019 1.415 . S
C1018 C1017 1.355 . S
C1018 C1020 1.419 . S
C1019 C1014 1.425 . S
C1019 C1016 1.409 . S
C1019 C1017 1.415 . S
C1020 H1010 0.930 . S
C1020 C1018 1.419 . S
C1020 C1021 1.362 . S
C1021 H1011 0.930 1_554 S
C1021 C1014 1.409 . S
C1021 C1020 1.362 . S
H1022 C1028 0.930 . S
H1023 C1031 0.930 1_556 S
H1024 C1032 0.930 . S
H1025 C1033 0.930 . S
H1026 C1036 0.930 . S
H1027 C1037 0.930 . S
C1028 H1022 0.930 . S
C1028 C1029 1.355 1_554 S
C1028 C1030 1.415 . S
C1029 C1028 1.355 1_556 S
C1029 C1031 1.419 1_556 S
C1030 C1028 1.415 . S
C1030 C1035 1.425 . S
C1030 C1037 1.409 . S
C1031 H1023 0.930 1_554 S
C1031 C1029 1.419 1_554 S
C1031 C1032 1.362 . S
C1032 H1024 0.930 . S
C1032 C1031 1.362 . S
C1032 C1035 1.409 . S
C1033 H1025 0.930 . S
C1033 C1034 1.355 . S
C1033 C1035 1.415 . S
C1034 C1033 1.355 . S
C1034 C1036 1.419 . S
C1035 C1030 1.425 . S
C1035 C1032 1.409 . S
C1035 C1033 1.415 . S
C1036 H1026 0.930 . S
C1036 C1034 1.419 . S
C1036 C1037 1.362 . S
C1037 H1027 0.930 . S
C1037 C1030 1.409 . S
C1037 C1036 1.362 . S
H1038 C1044 0.930 . S
H1039 C1047 0.930 . S
H1040 C1048 0.930 1_554 S
H1041 C1049 0.930 . S
H1042 C1052 0.930 . S
H1043 C1053 0.930 . S
C1044 H1038 0.930 . S
C1044 C1045 1.355 . S
C1044 C1046 1.415 . S
C1045 C1044 1.355 . S
C1045 C1047 1.419 . S
C1046 C1044 1.415 . S
C1046 C1051 1.425 . S
C1046 C1053 1.409 . S
C1047 H1039 0.930 . S
C1047 C1045 1.419 . S
C1047 C1048 1.362 . S
C1048 H1040 0.930 1_556 S
C1048 C1047 1.362 . S
C1048 C1051 1.409 . S
C1049 H1041 0.930 . S
C1049 C1050 1.355 1_554 S
C1049 C1051 1.415 1_554 S
C1050 C1049 1.355 1_556 S
C1050 C1052 1.419 . S
C1051 C1046 1.425 . S
C1051 C1048 1.409 . S
C1051 C1049 1.415 1_556 S
C1052 H1042 0.930 . S
C1052 C1050 1.419 . S
C1052 C1053 1.362 . S
C1053 H1043 0.930 . S
C1053 C1046 1.409 . S
C1053 C1052 1.362 . S
H1054 C1060 0.930 . S
H1055 C1063 0.930 . S
H1056 C1064 0.930 . S
H1057 C1065 0.930 . S
H1058 C1068 0.930 . S
H1059 C1069 0.930 . S
C1060 H1054 0.930 . S
C1060 C1061 1.355 . S
C1060 C1062 1.415 . S
C1061 C1060 1.355 . S
C1061 C1063 1.419 . S
C1062 C1060 1.415 . S
C1062 C1067 1.425 . S
C1062 C1069 1.409 1_556 S
C1063 H1055 0.930 . S
C1063 C1061 1.419 . S
C1063 C1064 1.362 . S
C1064 H1056 0.930 . S
C1064 C1063 1.362 . S
C1064 C1067 1.409 . S
C1065 H1057 0.930 . S
C1065 C1066 1.355 1_556 S
C1065 C1067 1.415 . S
C1066 C1065 1.355 1_554 S
C1066 C1068 1.419 . S
C1067 C1062 1.425 . S
C1067 C1064 1.409 . S
C1067 C1065 1.415 . S
C1068 H1058 0.930 . S
C1068 C1066 1.419 . S
C1068 C1069 1.362 . S
C1069 H1059 0.930 . S
C1069 C1062 1.409 1_554 S
C1069 C1068 1.362 . S
H1070 C1076 0.930 1_554 S
H1071 C1079 0.930 . S
H1072 C1080 0.930 . S
H1073 C1081 0.930 . S
H1074 C1084 0.930 . S
H1075 C1085 0.930 . S
C1076 H1070 0.930 1_556 S
C1076 C1077 1.355 1_556 S
C1076 C1078 1.415 . S
C1077 C1076 1.355 1_554 S
C1077 C1079 1.419 1_554 S
C1078 C1076 1.415 . S
C1078 C1083 1.425 . S
C1078 C1085 1.409 . S
C1079 H1071 0.930 . S
C1079 C1077 1.419 1_556 S
C1079 C1080 1.362 . S
C1080 H1072 0.930 . S
C1080 C1079 1.362 . S
C1080 C1083 1.409 . S
C1081 H1073 0.930 . S
C1081 C1082 1.355 . S
C1081 C1083 1.415 . S
C1082 C1081 1.355 . S
C1082 C1084 1.419 . S
C1083 C1078 1.425 . S
C1083 C1080 1.409 . S
C1083 C1081 1.415 . S
C1084 H1074 0.930 . S
C1084 C1082 1.419 . S
C1084 C1085 1.362 . S
C1085 H1075 0.930 . S
C1085 C1078 1.409 . S
C1085 C1084 1.362 . S
H1086 C1092 0.930 . S
H1087 C1095 0.930 1_655 S
H1088 C1096 0.930 . S
H1089 C1097 0.930 . S
H1090 C1100 0.930 . S
H1091 C1101 0.930 . S
C1092 H1086 0.930 . S
C1092 C1093 1.355 . S
C1092 C1094 1.415 . S
C1093 C1092 1.355 . S
C1093 C1095 1.419 . S
C1094 C1092 1.415 . S
C1094 C1099 1.425 . S
C1094 C1101 1.409 . S
C1095 H1087 0.930 1_455 S
C1095 C1093 1.419 . S
C1095 C1096 1.362 . S
C1096 H1088 0.930 . S
C1096 C1095 1.362 . S
C1096 C1099 1.409 . S
C1097 H1089 0.930 . S
C1097 C1098 1.355 . S
C1097 C1099 1.415 . S
C1098 C1097 1.355 . S
C1098 C1100 1.419 . S
C1099 C1094 1.425 . S
C1099 C1096 1.409 . S
C1099 C1097 1.415 . S
C1100 H1090 0.930 . S
C1100 C1098 1.419 . S
C1100 C1101 1.362 . S
C1101 H1091 0.930 . S
C1101 C1094 1.409 . S
C1101 C1100 1.362 . S
H1102 C1108 0.930 . S
H1103 C1111 0.930 . S
H1104 C1112 0.930 . S
H1105 C1113 0.930 . S
H1106 C1116 0.930 . S
H1107 C1117 0.930 . S
C1108 H1102 0.930 . S
C1108 C1109 1.355 . S
C1108 C1110 1.415 . S
C1109 C1108 1.355 . S
C1109 C1111 1.419 . S
C1110 C1108 1.415 . S
C1110 C1115 1.425 . S
C1110 C1117 1.409 . S
C1111 H1103 0.930 . S
C1111 C1109 1.419 . S
C1111 C1112 1.362 . S
C1112 H1104 0.930 . S
C1112 C1111 1.362 . S
C1112 C1115 1.409 . S
C1113 H1105 0.930 . S
C1113 C1114 1.355 . S
C1113 C1115 1.415 . S
C1114 C1113 1.355 . S
C1114 C1116 1.419 . S
C1115 C1110 1.425 . S
C1115 C1112 1.409 . S
C1115 C1113 1.415 . S
C1116 H1106 0.930 . S
C1116 C1114 1.419 . S
C1116 C1117 1.362 . S
C1117 H1107 0.930 . S
C1117 C1110 1.409 . S
C1117 C1116 1.362 . S
H1118 C1124 0.930 . S
H1119 C1127 0.930 1_545 S
H1120 C1128 0.930 . S
H1121 C1129 0.930 . S
H1122 C1132 0.930 . S
H1123 C1133 0.930 . S
C1124 H1118 0.930 . S
C1124 C1125 1.355 . S
C1124 C1126 1.415 . S
C1125 C1124 1.355 . S
C1125 C1127 1.419 . S
C1126 C1124 1.415 . S
C1126 C1131 1.425 . S
C1126 C1133 1.409 . S
C1127 H1119 0.930 1_565 S
C1127 C1125 1.419 . S
C1127 C1128 1.362 . S
C1128 H1120 0.930 . S
C1128 C1127 1.362 . S
C1128 C1131 1.409 . S
C1129 H1121 0.930 . S
C1129 C1130 1.355 . S
C1129 C1131 1.415 . S
C1130 C1129 1.355 . S
C1130 C1132 1.419 . S
C1131 C1126 1.425 . S
C1131 C1128 1.409 . S
C1131 C1129 1.415 . S
C1132 H1122 0.930 . S
C1132 C1130 1.419 . S
C1132 C1133 1.362 . S
C1133 H1123 0.930 . S
C1133 C1126 1.409 . S
C1133 C1132 1.362 . S
H1134 C1140 0.930 . S
H1135 C1143 0.930 . S
H1136 C1144 0.930 . S
H1137 C1145 0.930 . S
H1138 C1148 0.930 . S
H1139 C1149 0.930 . S
C1140 H1134 0.930 . S
C1140 C1141 1.355 . S
C1140 C1142 1.415 . S
C1141 C1140 1.355 . S
C1141 C1143 1.419 . S
C1142 C1140 1.415 . S
C1142 C1147 1.425 . S
C1142 C1149 1.409 . S
C1143 H1135 0.930 . S
C1143 C1141 1.419 . S
C1143 C1144 1.362 . S
C1144 H1136 0.930 . S
C1144 C1143 1.362 . S
C1144 C1147 1.409 . S
C1145 H1137 0.930 . S
C1145 C1146 1.355 . S
C1145 C1147 1.415 . S
C1146 C1145 1.355 . S
C1146 C1148 1.419 . S
C1147 C1142 1.425 . S
C1147 C1144 1.409 . S
C1147 C1145 1.415 . S
C1148 H1138 0.930 . S
C1148 C1146 1.419 . S
C1148 C1149 1.362 . S
C1149 H1139 0.930 . S
C1149 C1142 1.409 . S
C1149 C1148 1.362 . S
H1150 C1156 0.930 . S
H1151 C1159 0.930 . S
H1152 C1160 0.930 . S
H1153 C1161 0.930 . S
H1154 C1164 0.930 . S
H1155 C1165 0.930 . S
C1156 H1150 0.930 . S
C1156 C1157 1.355 . S
C1156 C1158 1.415 . S
C1157 C1156 1.355 . S
C1157 C1159 1.419 . S
C1158 C1156 1.415 . S
C1158 C1163 1.425 . S
C1158 C1165 1.409 . S
C1159 H1151 0.930 . S
C1159 C1157 1.419 . S
C1159 C1160 1.362 . S
C1160 H1152 0.930 . S
C1160 C1159 1.362 . S
C1160 C1163 1.409 . S
C1161 H1153 0.930 . S
C1161 C1162 1.355 . S
C1161 C1163 1.415 . S
C1162 C1161 1.355 . S
C1162 C1164 1.419 . S
C1163 C1158 1.425 . S
C1163 C1160 1.409 . S
C1163 C1161 1.415 . S
C1164 H1154 0.930 . S
C1164 C1162 1.419 . S
C1164 C1165 1.362 . S
C1165 H1155 0.930 . S
C1165 C1158 1.409 . S
C1165 C1164 1.362 . S
H1166 C1172 0.930 . S
H1167 C1175 0.930 . S
H1168 C1176 0.930 . S
H1169 C1177 0.930 . S
H1170 C1180 0.930 . S
H1171 C1181 0.930 . S
C1172 H1166 0.930 . S
C1172 C1173 1.355 . S
C1172 C1174 1.415 . S
C1173 C1172 1.355 . S
C1173 C1175 1.419 . S
C1174 C1172 1.415 . S
C1174 C1179 1.425 . S
C1174 C1181 1.409 . S
C1175 H1167 0.930 . S
C1175 C1173 1.419 . S
C1175 C1176 1.362 . S
C1176 H1168 0.930 . S
C1176 C1175 1.362 . S
C1176 C1179 1.409 . S
C1177 H1169 0.930 . S
C1177 C1178 1.355 . S
C1177 C1179 1.415 . S
C1178 C1177 1.355 . S
C1178 C1180 1.419 . S
C1179 C1174 1.425 . S
C1179 C1176 1.409 . S
C1179 C1177 1.415 . S
C1180 H1170 0.930 . S
C1180 C1178 1.419 . S
C1180 C1181 1.362 . S
C1181 H1171 0.930 . S
C1181 C1174 1.409 . S
C1181 C1180 1.362 . S
H1182 C1188 0.930 . S
H1183 C1191 0.930 . S
H1184 C1192 0.930 . S
H1185 C1193 0.930 . S
H1186 C1196 0.930 . S
H1187 C1197 0.930 . S
C1188 H1182 0.930 . S
C1188 C1189 1.355 . S
C1188 C1190 1.415 . S
C1189 C1188 1.355 . S
C1189 C1191 1.419 . S
C1190 C1188 1.415 . S
C1190 C1195 1.425 . S
C1190 C1197 1.409 . S
C1191 H1183 0.930 . S
C1191 C1189 1.419 . S
C1191 C1192 1.362 . S
C1192 H1184 0.930 . S
C1192 C1191 1.362 . S
C1192 C1195 1.409 . S
C1193 H1185 0.930 . S
C1193 C1194 1.355 . S
C1193 C1195 1.415 . S
C1194 C1193 1.355 . S
C1194 C1196 1.419 . S
C1195 C1190 1.425 . S
C1195 C1192 1.409 . S
C1195 C1193 1.415 . S
C1196 H1186 0.930 . S
C1196 C1194 1.419 . S
C1196 C1197 1.362 . S
C1197 H1187 0.930 . S
C1197 C1190 1.409 . S
C1197 C1196 1.362 . S
H1198 C1204 0.930 . S
H1199 C1207 0.930 . S
H1200 C1208 0.930 . S
H1201 C1209 0.930 . S
H1202 C1212 0.930 . S
H1203 C1213 0.930 . S
C1204 H1198 0.930 . S
C1204 C1205 1.355 . S
C1204 C1206 1.415 . S
C1205 C1204 1.355 . S
C1205 C1207 1.419 . S
C1206 C1204 1.415 . S
C1206 C1211 1.425 . S
C1206 C1213 1.409 . S
C1207 H1199 0.930 . S
C1207 C1205 1.419 . S
C1207 C1208 1.362 . S
C1208 H1200 0.930 . S
C1208 C1207 1.362 . S
C1208 C1211 1.409 . S
C1209 H1201 0.930 . S
C1209 C1210 1.355 . S
C1209 C1211 1.415 . S
C1210 C1209 1.355 . S
C1210 C1212 1.419 . S
C1211 C1206 1.425 . S
C1211 C1208 1.409 . S
C1211 C1209 1.415 . S
C1212 H1202 0.930 . S
C1212 C1210 1.419 . S
C1212 C1213 1.362 . S
C1213 H1203 0.930 . S
C1213 C1206 1.409 . S
C1213 C1212 1.362 . S
H1214 C1220 0.930 . S
H1215 C1223 0.930 . S
H1216 C1224 0.930 . S
H1217 C1225 0.930 . S
H1218 C1228 0.930 . S
H1219 C1229 0.930 . S
C1220 H1214 0.930 . S
C1220 C1221 1.355 . S
C1220 C1222 1.415 . S
C1221 C1220 1.355 . S
C1221 C1223 1.419 . S
C1222 C1220 1.415 . S
C1222 C1227 1.425 . S
C1222 C1229 1.409 . S
C1223 H1215 0.930 . S
C1223 C1221 1.419 . S
C1223 C1224 1.362 . S
C1224 H1216 0.930 . S
C1224 C1223 1.362 . S
C1224 C1227 1.409 . S
C1225 H1217 0.930 . S
C1225 C1226 1.355 . S
C1225 C1227 1.415 . S
C1226 C1225 1.355 . S
C1226 C1228 1.419 . S
C1227 C1222 1.425 . S
C1227 C1224 1.409 . S
C1227 C1225 1.415 . S
C1228 H1218 0.930 . S
C1228 C1226 1.419 . S
C1228 C1229 1.362 . S
C1229 H1219 0.930 . S
C1229 C1222 1.409 . S
C1229 C1228 1.362 . S
H1230 C1236 0.930 . S
H1231 C1239 0.930 . S
H1232 C1240 0.930 . S
H1233 C1241 0.930 . S
H1234 C1244 0.930 . S
H1235 C1245 0.930 . S
C1236 H1230 0.930 . S
C1236 C1237 1.355 1_565 S
C1236 C1238 1.415 . S
C1237 C1236 1.355 1_545 S
C1237 C1239 1.419 . S
C1238 C1236 1.415 . S
C1238 C1243 1.425 1_564 S
C1238 C1245 1.409 1_554 S
C1239 H1231 0.930 . S
C1239 C1237 1.419 . S
C1239 C1240 1.362 . S
C1240 H1232 0.930 . S
C1240 C1239 1.362 . S
C1240 C1243 1.409 1_554 S
C1241 H1233 0.930 . S
C1241 C1242 1.355 1_545 S
C1241 C1243 1.415 . S
C1242 C1241 1.355 1_565 S
C1242 C1244 1.419 . S
C1243 C1238 1.425 1_546 S
C1243 C1240 1.409 1_556 S
C1243 C1241 1.415 . S
C1244 H1234 0.930 . S
C1244 C1242 1.419 . S
C1244 C1245 1.362 . S
C1245 H1235 0.930 . S
C1245 C1238 1.409 1_556 S
C1245 C1244 1.362 . S
H1246 C1252 0.930 . S
H1247 C1255 0.930 . S
H1248 C1256 0.930 . S
H1249 C1257 0.930 . S
H1250 C1260 0.930 . S
H1251 C1261 0.930 . S
C1252 H1246 0.930 . S
C1252 C1253 1.355 . S
C1252 C1254 1.415 . S
C1253 C1252 1.355 . S
C1253 C1255 1.419 1_655 S
C1254 C1252 1.415 . S
C1254 C1259 1.425 1_654 S
C1254 C1261 1.409 1_554 S
C1255 H1247 0.930 . S
C1255 C1253 1.419 1_455 S
C1255 C1256 1.362 . S
C1256 H1248 0.930 . S
C1256 C1255 1.362 . S
C1256 C1259 1.409 1_554 S
C1257 H1249 0.930 . S
C1257 C1258 1.355 . S
C1257 C1259 1.415 . S
C1258 C1257 1.355 . S
C1258 C1260 1.419 1_455 S
C1259 C1254 1.425 1_456 S
C1259 C1256 1.409 1_556 S
C1259 C1257 1.415 . S
C1260 H1250 0.930 . S
C1260 C1258 1.419 1_655 S
C1260 C1261 1.362 . S
C1261 H1251 0.930 . S
C1261 C1254 1.409 1_556 S
C1261 C1260 1.362 . S
H1262 C1268 0.930 . S
H1263 C1271 0.930 . S
H1264 C1272 0.930 . S
H1265 C1273 0.930 . S
H1266 C1276 0.930 . S
H1267 C1277 0.930 . S
C1268 H1262 0.930 . S
C1268 C1269 1.355 . S
C1268 C1270 1.415 . S
C1269 C1268 1.355 . S
C1269 C1271 1.419 . S
C1270 C1268 1.415 . S
C1270 C1275 1.425 1_556 S
C1270 C1277 1.409 1_556 S
C1271 H1263 0.930 . S
C1271 C1269 1.419 . S
C1271 C1272 1.362 . S
C1272 H1264 0.930 . S
C1272 C1271 1.362 . S
C1272 C1275 1.409 1_556 S
C1273 H1265 0.930 . S
C1273 C1274 1.355 . S
C1273 C1275 1.415 . S
C1274 C1273 1.355 . S
C1274 C1276 1.419 . S
C1275 C1270 1.425 1_554 S
C1275 C1272 1.409 1_554 S
C1275 C1273 1.415 . S
C1276 H1266 0.930 . S
C1276 C1274 1.419 . S
C1276 C1277 1.362 . S
C1277 H1267 0.930 . S
C1277 C1270 1.409 1_554 S
C1277 C1276 1.362 . S
C421 C110 1.326 . S
C426 C20 1.336 1_556 S
C437 C43 1.350 1_546 S
C442 C133 1.347 . S
C453 C87 1.297 . S
C458 C66 1.333 1_656 S
C469 C89 1.345 1_554 S
C474 C41 1.284 . S
C485 C112 1.347 1_564 S
C490 C64 1.346 . S
C501 C18 1.281 . S
C506 C135 1.337 1_454 S
C517 C158 1.342 . S
C522 C248 1.341 . S
C533 C271 1.309 . S
C538 C181 1.333 . S
C549 C225 1.297 . S
C554 C204 1.333 . S
C565 C227 1.339 . S
C570 C179 1.335 . S
C581 C202 1.334 . S
C586 C250 1.354 . S
C597 C273 1.352 . S
C602 C156 1.344 . S
C613 C386 1.313 . S
C618 C296 1.334 . S
C629 C319 1.355 . S
C634 C409 1.327 . S
C645 C363 1.302 . S
C650 C342 1.333 . S
C661 C317 1.282 . S
C666 C365 1.336 . S
C677 C388 1.349 . S
C682 C340 1.291 . S
C693 C294 1.280 . S
C698 C411 1.338 . S
C709 C16 1.209 . S
C714 C361 1.209 . S
C725 C39 1.242 . S
C730 C384 1.242 . S
C741 C407 1.220 . S
C746 C62 1.220 . S
C757 C85 1.209 . S
C762 C154 1.209 . S
C773 C108 1.170 . S
C778 C177 1.170 . S
C789 C200 1.200 . S
C794 C131 1.200 . S
C805 C292 1.180 . S
C810 C223 1.180 . S
C821 C315 1.169 . S
C826 C246 1.169 . S
C837 C338 1.225 . S
C842 C269 1.225 . S
C853 C17 1.449 . S
C858 C182 1.480 . S
C869 C205 1.484 . S
C874 C40 1.454 . S
C885 C159 1.451 . S
C890 C63 1.375 . S
C901 C86 1.411 . S
C906 C389 1.470 . S
C917 C412 1.476 . S
C922 C109 1.426 . S
C933 C132 1.420 . S
C938 C366 1.466 . S
C949 C155 1.446 . S
C954 C320 1.479 1_655 S
C965 C178 1.374 . S
C970 C343 1.451 . S
C981 C201 1.454 . S
C986 C297 1.484 1_545 S
C997 C113 1.479 1_554 S
C1002 C224 1.446 . S
C1013 C136 1.495 . S
C1018 C247 1.453 . S
C1029 C90 1.476 . S
C1034 C270 1.424 . S
C1045 C293 1.442 . S
C1050 C44 1.476 1_556 S
C1061 C316 1.380 . S
C1066 C67 1.456 . S
C1077 C21 1.454 . S
C1082 C339 1.389 . S
C1093 C251 1.485 1_455 S
C1098 C362 1.454 . S
C1109 C385 1.445 . S
C1114 C274 1.483 . S
C1125 C228 1.475 1_565 S
C1130 C408 1.422 . S
C1141 C19 1.453 . S
C1146 C364 1.453 . S
C1157 C42 1.464 . S
C1162 C387 1.464 . S
C1173 C65 1.406 . S
C1178 C410 1.406 . S
C1189 C157 1.415 . S
C1194 C88 1.415 . S
C1205 C111 1.466 . S
C1210 C180 1.466 . S
C1221 C203 1.413 . S
C1226 C134 1.413 . S
C1237 C226 1.404 . S
C1242 C295 1.404 . S
C1253 C249 1.466 . S
C1258 C318 1.466 . S
C1269 C341 1.451 . S
C1274 C272 1.451 . S
