# Generated by pormake.
# Topology yfj, (5)-cn, num edge types: 1
# Building blocks:
#     Node 0, Type 0, BuildingBlock: XOMCOT_clean_sbu_0, # of connection points: 5
#     Node 1, Type 0, BuildingBlock: XOMCOT_clean_sbu_0, # of connection points: 5
#     Node 2, Type 0, BuildingBlock: XOMCOT_clean_sbu_0, # of connection points: 5
#     Node 3, Type 0, BuildingBlock: XOMCOT_clean_sbu_0, # of connection points: 5
#     Node 4, Type 0, BuildingBlock: XOMCOT_clean_sbu_0, # of connection points: 5
#     Node 5, Type 0, BuildingBlock: XOMCOT_clean_sbu_0, # of connection points: 5
#     Node 6, Type 0, BuildingBlock: XOMCOT_clean_sbu_0, # of connection points: 5
#     Node 7, Type 0, BuildingBlock: XOMCOT_clean_sbu_0, # of connection points: 5
#     Node 8, Type 0, BuildingBlock: XOMCOT_clean_sbu_0, # of connection points: 5
#     Node 9, Type 0, BuildingBlock: XOMCOT_clean_sbu_0, # of connection points: 5
#     Node 10, Type 0, BuildingBlock: XOMCOT_clean_sbu_0, # of connection points: 5
#     Node 11, Type 0, BuildingBlock: XOMCOT_clean_sbu_0, # of connection points: 5
#     Node 12, Type 0, BuildingBlock: XOMCOT_clean_sbu_0, # of connection points: 5
#     Node 13, Type 0, BuildingBlock: XOMCOT_clean_sbu_0, # of connection points: 5
#     Node 14, Type 0, BuildingBlock: XOMCOT_clean_sbu_0, # of connection points: 5
#     Node 15, Type 0, BuildingBlock: XOMCOT_clean_sbu_0, # of connection points: 5
#     Edge 16, Type (0, 0), BuildingBlock: CIFDUS_clean_linker_0, # of connection points: 2
#     Edge 17, Type (0, 0), BuildingBlock: CIFDUS_clean_linker_0, # of connection points: 2
#     Edge 18, Type (0, 0), BuildingBlock: CIFDUS_clean_linker_0, # of connection points: 2
#     Edge 19, Type (0, 0), BuildingBlock: CIFDUS_clean_linker_0, # of connection points: 2
#     Edge 20, Type (0, 0), BuildingBlock: CIFDUS_clean_linker_0, # of connection points: 2
#     Edge 21, Type (0, 0), BuildingBlock: CIFDUS_clean_linker_0, # of connection points: 2
#     Edge 22, Type (0, 0), BuildingBlock: CIFDUS_clean_linker_0, # of connection points: 2
#     Edge 23, Type (0, 0), BuildingBlock: CIFDUS_clean_linker_0, # of connection points: 2
#     Edge 24, Type (0, 0), BuildingBlock: CIFDUS_clean_linker_0, # of connection points: 2
#     Edge 25, Type (0, 0), BuildingBlock: CIFDUS_clean_linker_0, # of connection points: 2
#     Edge 26, Type (0, 0), BuildingBlock: CIFDUS_clean_linker_0, # of connection points: 2
#     Edge 27, Type (0, 0), BuildingBlock: CIFDUS_clean_linker_0, # of connection points: 2
#     Edge 28, Type (0, 0), BuildingBlock: CIFDUS_clean_linker_0, # of connection points: 2
#     Edge 29, Type (0, 0), BuildingBlock: CIFDUS_clean_linker_0, # of connection points: 2
#     Edge 30, Type (0, 0), BuildingBlock: CIFDUS_clean_linker_0, # of connection points: 2
#     Edge 31, Type (0, 0), BuildingBlock: CIFDUS_clean_linker_0, # of connection points: 2
#     Edge 32, Type (0, 0), BuildingBlock: CIFDUS_clean_linker_0, # of connection points: 2
#     Edge 33, Type (0, 0), BuildingBlock: CIFDUS_clean_linker_0, # of connection points: 2
#     Edge 34, Type (0, 0), BuildingBlock: CIFDUS_clean_linker_0, # of connection points: 2
#     Edge 35, Type (0, 0), BuildingBlock: CIFDUS_clean_linker_0, # of connection points: 2
#     Edge 36, Type (0, 0), BuildingBlock: CIFDUS_clean_linker_0, # of connection points: 2
#     Edge 37, Type (0, 0), BuildingBlock: CIFDUS_clean_linker_0, # of connection points: 2
#     Edge 38, Type (0, 0), BuildingBlock: CIFDUS_clean_linker_0, # of connection points: 2
#     Edge 39, Type (0, 0), BuildingBlock: CIFDUS_clean_linker_0, # of connection points: 2
#     Edge 40, Type (0, 0), BuildingBlock: CIFDUS_clean_linker_0, # of connection points: 2
#     Edge 41, Type (0, 0), BuildingBlock: CIFDUS_clean_linker_0, # of connection points: 2
#     Edge 42, Type (0, 0), BuildingBlock: CIFDUS_clean_linker_0, # of connection points: 2
#     Edge 43, Type (0, 0), BuildingBlock: CIFDUS_clean_linker_0, # of connection points: 2
#     Edge 44, Type (0, 0), BuildingBlock: CIFDUS_clean_linker_0, # of connection points: 2
#     Edge 45, Type (0, 0), BuildingBlock: CIFDUS_clean_linker_0, # of connection points: 2
#     Edge 46, Type (0, 0), BuildingBlock: CIFDUS_clean_linker_0, # of connection points: 2
#     Edge 47, Type (0, 0), BuildingBlock: CIFDUS_clean_linker_0, # of connection points: 2
#     Edge 48, Type (0, 0), BuildingBlock: CIFDUS_clean_linker_0, # of connection points: 2
#     Edge 49, Type (0, 0), BuildingBlock: CIFDUS_clean_linker_0, # of connection points: 2
#     Edge 50, Type (0, 0), BuildingBlock: CIFDUS_clean_linker_0, # of connection points: 2
#     Edge 51, Type (0, 0), BuildingBlock: CIFDUS_clean_linker_0, # of connection points: 2
#     Edge 52, Type (0, 0), BuildingBlock: CIFDUS_clean_linker_0, # of connection points: 2
#     Edge 53, Type (0, 0), BuildingBlock: CIFDUS_clean_linker_0, # of connection points: 2
#     Edge 54, Type (0, 0), BuildingBlock: CIFDUS_clean_linker_0, # of connection points: 2
#     Edge 55, Type (0, 0), BuildingBlock: CIFDUS_clean_linker_0, # of connection points: 2
# Relax obj value: 0.400
# Max RMSD: 0.241
# Mean RMSD: 0.241
data_MOF--net-yfj--node1-XOMCOT_clean_sbu_0--edge1-CIFDUS_clean_linker_0
_symmetry_space_group_name_H-M    P1
_symmetry_Int_Tables_number       1
_symmetry_cell_setting            triclinic
loop_
_symmetry_equiv_pos_as_xyz
'x, y, z'
_cell_length_a     42.542588
_cell_length_b     42.259996
_cell_length_c     41.984474
_cell_angle_alpha  89.737916
_cell_angle_beta   90.249676
_cell_angle_gamma 90.218636
loop_
_atom_site_label
_atom_site_type_symbol
_atom_site_fract_x
_atom_site_fract_y
_atom_site_fract_z
_atom_type_partial_charge
Co0 Co 0.13424 0.14714 0.34664 0.0
C1 C 0.17747 0.15934 0.29153 0.0
C2 C 0.13317 0.18255 0.2854 0.0
C3 C 0.15048 0.18621 0.25777 0.0
N4 N 0.14991 0.16532 0.30657 0.0
N5 N 0.17837 0.1716 0.26172 0.0
H6 H 0.1961 0.14502 0.30131 0.0
H7 H 0.10938 0.19061 0.28917 0.0
C8 C 0.10279 0.19948 0.38502 0.0
O9 O 0.08294 0.17923 0.39758 0.0
N10 N 0.11994 0.1284 0.38644 0.0
C11 C 0.10307 0.10166 0.39058 0.0
C12 C 0.10151 0.095 0.42269 0.0
C13 C 0.12964 0.13669 0.41595 0.0
N14 N 0.11819 0.11714 0.43869 0.0
C15 C 0.10015 0.11318 0.30084 0.0
C16 C 0.04209 0.11548 0.32955 0.0
C17 C 0.04867 0.0903 0.30886 0.0
C18 C 0.07737 0.0908 0.29276 0.0
C19 C 0.06577 0.1376 0.33696 0.0
N20 N 0.09535 0.13437 0.32484 0.0
H21 H 0.12307 0.11109 0.2901 0.0
H22 H 0.06067 0.15527 0.35424 0.0
H23 H 0.09329 0.08742 0.37162 0.0
H24 H 0.14517 0.1565 0.42048 0.0
O25 O 0.15642 0.10818 0.33872 0.0
O26 O 0.17539 0.14983 0.36504 0.0
O27 O 0.12022 0.19136 0.36136 0.0
C28 C 0.17887 0.12082 0.35536 0.0
H29 H 0.1429 0.1982 0.23625 0.0
H30 H 0.089 0.07529 0.43328 0.0
H31 H 0.01984 0.11667 0.34189 0.0
H32 H 0.08304 0.07272 0.27553 0.0
Co33 Co 0.85237 0.6259 0.58463 0.0
C34 C 0.86382 0.66278 0.52569 0.0
C35 C 0.81688 0.64428 0.52636 0.0
C36 C 0.82022 0.66385 0.50002 0.0
N37 N 0.84424 0.64373 0.54249 0.0
N38 N 0.84979 0.6758 0.49959 0.0
H39 H 0.88761 0.66774 0.53332 0.0
H40 H 0.79555 0.63254 0.53402 0.0
C41 C 0.7892 0.62019 0.61683 0.0
O42 O 0.79426 0.58965 0.61437 0.0
N43 N 0.86093 0.60846 0.62663 0.0
C44 C 0.86694 0.57785 0.63296 0.0
C45 C 0.87155 0.57426 0.66524 0.0
C46 C 0.86164 0.62306 0.65527 0.0
N47 N 0.86814 0.6027 0.67944 0.0
C48 C 0.9178 0.6103 0.58158 0.0
C49 C 0.91116 0.56225 0.53757 0.0
C50 C 0.94084 0.56731 0.55173 0.0
C51 C 0.94394 0.59219 0.57354 0.0
C52 C 0.88549 0.58098 0.54636 0.0
N53 N 0.88901 0.60427 0.56841 0.0
H54 H 0.92042 0.6281 0.59978 0.0
H55 H 0.86248 0.57623 0.53636 0.0
H56 H 0.86802 0.5594 0.61524 0.0
H57 H 0.85698 0.64793 0.65845 0.0
O58 O 0.87668 0.66509 0.59579 0.0
O59 O 0.82722 0.66181 0.60149 0.0
O60 O 0.8088 0.63983 0.60319 0.0
C61 C 0.85181 0.67941 0.60325 0.0
H62 H 0.80164 0.66987 0.48343 0.0
H63 H 0.87742 0.55227 0.67707 0.0
H64 H 0.9076 0.54353 0.52039 0.0
H65 H 0.96601 0.59666 0.5857 0.0
Co66 Co 0.38109 0.36603 0.85023 0.0
C67 C 0.33282 0.36959 0.7979 0.0
C68 C 0.36656 0.33312 0.78976 0.0
C69 C 0.34736 0.33567 0.76325 0.0
N70 N 0.35756 0.35443 0.81162 0.0
N71 N 0.32611 0.35885 0.7681 0.0
H72 H 0.32087 0.38909 0.80902 0.0
H73 H 0.38686 0.31795 0.79208 0.0
C74 C 0.41309 0.30901 0.87762 0.0
O75 O 0.43814 0.32411 0.88792 0.0
N76 N 0.40379 0.37876 0.88861 0.0
C77 C 0.42123 0.40523 0.89218 0.0
C78 C 0.42726 0.40975 0.92403 0.0
C79 C 0.39861 0.36826 0.91864 0.0
N80 N 0.41277 0.38663 0.94077 0.0
C81 C 0.40703 0.40634 0.80369 0.0
C82 C 0.46918 0.39858 0.82088 0.0
C83 C 0.4603 0.42639 0.8046 0.0
C84 C 0.42918 0.42863 0.79383 0.0
C85 C 0.44617 0.37629 0.82968 0.0
N86 N 0.41515 0.38197 0.82352 0.0
H87 H 0.38265 0.4108 0.79817 0.0
H88 H 0.45306 0.35669 0.84441 0.0
H89 H 0.4274 0.42148 0.87326 0.0
H90 H 0.38308 0.3487 0.92419 0.0
O91 O 0.35818 0.40527 0.8537 0.0
O92 O 0.34475 0.35915 0.87585 0.0
O93 O 0.39709 0.3206 0.85429 0.0
C94 C 0.33981 0.38935 0.87263 0.0
H95 H 0.35011 0.3224 0.74149 0.0
H96 H 0.44031 0.4294 0.93398 0.0
H97 H 0.49304 0.39532 0.82929 0.0
H98 H 0.42136 0.44877 0.7799 0.0
Co99 Co 0.66485 0.8889 0.08645 0.0
C100 C 0.66261 0.84571 0.02958 0.0
C101 C 0.7 0.87964 1.02589 0.0
C102 C 0.70052 0.86037 0.99943 0.0
N103 N 0.6763 0.87049 0.04509 0.0
N104 N 0.677 0.83894 1.00163 0.0
H105 H 0.64276 0.8325 0.0387 0.0
H106 H 0.71602 0.89898 0.03053 0.0
C107 C 0.72763 0.92179 0.10114 0.0
O108 O 0.74634 0.94528 0.09318 0.0
N109 N 0.6523 0.90627 0.12789 0.0
C110 C 0.62511 0.92162 0.1335 0.0
C111 C 0.62098 0.92491 0.16563 0.0
C112 C 0.66361 0.8993 0.15749 0.0
N113 N 0.64491 0.91057 0.18098 0.0
C114 C 0.61403 0.9101 0.04667 0.0
C115 C 0.62123 0.97377 0.05966 0.0
C116 C 0.59404 0.96396 0.04302 0.0
C117 C 0.59165 0.93162 0.03527 0.0
C118 C 0.64365 0.95166 0.06947 0.0
N119 N 0.63902 0.9201 0.06445 0.0
H120 H 0.61053 0.88516 0.04236 0.0
H121 H 0.66311 0.95976 0.08394 0.0
H122 H 0.60788 0.92822 0.11576 0.0
H123 H 0.68358 0.88416 0.16186 0.0
O124 O 0.63393 0.85605 0.09285 0.0
O125 O 0.68429 0.85443 0.10744 0.0
O126 O 0.70239 0.91809 0.08468 0.0
C127 C 0.65684 0.8409 0.10676 0.0
H128 H 0.71691 0.8623 0.97987 0.0
H129 H 0.60105 0.93613 0.17675 0.0
H130 H 0.62463 0.99799 0.06707 0.0
H131 H 0.5722 0.92249 1.0214 0.0
Co132 Co 0.14412 0.39074 0.96159 0.0
C133 C 0.18541 0.38392 1.02001 0.0
C134 C 0.15307 0.34525 1.01459 0.0
C135 C 0.17028 0.34069 0.04213 0.0
N136 N 0.16259 0.37223 1.00038 0.0
N137 N 0.19074 0.36496 0.04572 0.0
H138 H 0.19781 0.40588 1.01575 0.0
H139 H 0.13435 0.33014 1.00598 0.0
C140 C 0.11274 0.33835 0.92291 0.0
O141 O 0.09115 0.3575 0.91161 0.0
N142 N 0.12656 0.41043 0.92336 0.0
C143 C 0.1082 0.43635 0.92246 0.0
C144 C 0.10135 0.44358 0.89128 0.0
C145 C 0.13234 0.40358 0.89244 0.0
N146 N 0.11619 0.42275 0.87239 0.0
C147 C 0.111 0.42472 1.00772 0.0
C148 C 0.05211 0.41511 0.98187 0.0
C149 C 0.05799 0.4431 0.99896 0.0
C150 C 0.08712 0.44618 1.01437 0.0
C151 C 0.07685 0.39416 0.97589 0.0
N152 N 0.1066 0.4014 0.98573 0.0
H153 H 0.13424 0.42957 1.01697 0.0
H154 H 0.07243 0.3741 0.96101 0.0
H155 H 0.10048 0.44945 0.94299 0.0
H156 H 0.1468 0.38401 0.88485 0.0
O157 O 0.16676 0.43004 0.96837 0.0
O158 O 0.1836 0.38851 0.9407 0.0
O159 O 0.12956 0.34657 0.94713 0.0
C160 C 0.188 0.41735 0.9504 0.0
H161 H 0.16728 0.32121 0.05867 0.0
H162 H 0.08655 0.46279 0.88314 0.0
H163 H 0.0294 0.41082 0.97093 0.0
H164 H 0.09281 0.46687 1.0284 0.0
Co165 Co 0.66323 0.62965 0.22727 0.0
C166 C 0.65263 0.66955 0.28408 0.0
C167 C 0.69856 0.64895 0.28509 0.0
C168 C 0.6958 0.66946 0.31055 0.0
N169 N 0.67149 0.64912 0.26847 0.0
N170 N 0.66688 0.68272 0.30993 0.0
H171 H 0.62922 0.67525 0.27587 0.0
H172 H 0.71934 0.63593 0.2784 0.0
C173 C 0.72614 0.62265 0.19458 0.0
O174 O 0.71987 0.59223 0.19636 0.0
N175 N 0.65464 0.61048 0.18615 0.0
C176 C 0.64653 0.57998 0.18155 0.0
C177 C 0.64272 0.57484 0.14941 0.0
C178 C 0.65624 0.62336 0.15657 0.0
N179 N 0.64893 0.60207 0.13376 0.0
C180 C 0.59746 0.61452 0.23207 0.0
C181 C 0.60539 0.56515 0.27479 0.0
C182 C 0.57554 0.56981 0.26097 0.0
C183 C 0.57167 0.5955 0.24004 0.0
C184 C 0.63062 0.58481 0.2662 0.0
N185 N 0.62653 0.60856 0.24457 0.0
H186 H 0.59436 0.63274 0.21425 0.0
H187 H 0.65385 0.58014 0.27563 0.0
H188 H 0.6437 0.56259 0.2003 0.0
H189 H 0.66245 0.64771 0.15164 0.0
O190 O 0.63944 0.66859 0.21368 0.0
O191 O 0.68886 0.66448 0.20875 0.0
O192 O 0.70718 0.6426 0.20831 0.0
C193 C 0.66465 0.6822 0.20548 0.0
H194 H 0.71436 0.6751 0.32728 0.0
H195 H 0.63629 0.55264 0.13832 0.0
H196 H 0.6095 0.54585 0.29132 0.0
H197 H 0.54936 0.59978 0.2283 0.0
Co198 Co 0.36894 0.13781 0.45645 0.0
C199 C 0.33071 0.13771 0.51594 0.0
C200 C 0.3607 0.17839 0.51431 0.0
C201 C 0.34449 0.17826 0.54297 0.0
N202 N 0.35199 0.15286 0.49723 0.0
N203 N 0.32571 0.15242 0.54408 0.0
H204 H 0.3195 0.11578 0.5095 0.0
H205 H 0.37827 0.19545 0.50698 0.0
C206 C 0.39774 0.19317 0.41964 0.0
O207 O 0.41726 0.17399 0.40539 0.0
N208 N 0.38432 0.12135 0.41617 0.0
C209 C 0.40267 0.09575 0.41222 0.0
C210 C 0.40302 0.08793 0.38045 0.0
C211 C 0.37287 0.12798 0.38673 0.0
N212 N 0.38415 0.10812 0.36437 0.0
C213 C 0.405 0.10418 0.50135 0.0
C214 C 0.46324 0.11371 0.47441 0.0
C215 C 0.45887 0.08755 0.49482 0.0
C216 C 0.42981 0.08446 0.51002 0.0
C217 C 0.43765 0.13331 0.46669 0.0
N218 N 0.4083 0.12662 0.47806 0.0
H219 H 0.38217 0.0991 0.51127 0.0
H220 H 0.44127 0.1519 0.44973 0.0
H221 H 0.41376 0.0825 0.43123 0.0
H222 H 0.35565 0.14623 0.38209 0.0
O223 O 0.34833 0.09727 0.46231 0.0
O224 O 0.3279 0.13963 0.43817 0.0
O225 O 0.3811 0.18338 0.44339 0.0
C226 C 0.32525 0.11012 0.44667 0.0
H227 H 0.34724 0.19534 0.56191 0.0
H228 H 0.4158 0.06841 0.3702 0.0
H229 H 0.48549 0.11767 0.46261 0.0
H230 H 0.42557 0.06564 0.52708 0.0
Co231 Co 0.86408 0.88982 0.71415 0.0
C232 C 0.86051 0.84805 0.77219 0.0
C233 C 0.82199 0.88052 0.7701 0.0
C234 C 0.81888 0.86186 0.79701 0.0
N235 N 0.84819 0.87202 0.75438 0.0
N236 N 0.84317 0.84144 0.79846 0.0
H237 H 0.88141 0.83511 0.76579 0.0
H238 H 0.80595 0.89891 0.76268 0.0
C239 C 0.80621 0.92993 0.69726 0.0
O240 O 0.79089 0.95598 0.70389 0.0
N241 N 0.88063 0.90666 0.67401 0.0
C242 C 0.9093 0.91983 0.66958 0.0
C243 C 0.91308 0.92708 0.63794 0.0
C244 C 0.86823 0.90441 0.64424 0.0
N245 N 0.88733 0.91738 0.62202 0.0
C246 C 0.91678 0.90209 0.75451 0.0
C247 C 0.91935 0.9667 0.7446 0.0
C248 C 0.94531 0.95163 0.75896 0.0
C249 C 0.94278 0.91912 0.76544 0.0
C250 C 0.89323 0.94881 0.73473 0.0
N251 N 0.89309 0.91662 0.73811 0.0
H252 H 0.91686 0.87676 0.75743 0.0
H253 H 0.87481 0.9605 0.72145 0.0
H254 H 0.9271 0.92295 0.68769 0.0
H255 H 0.84635 0.89266 0.63868 0.0
O256 O 0.89091 0.85389 0.70889 0.0
O257 O 0.84171 0.85807 0.69121 0.0
O258 O 0.83054 0.92348 0.71437 0.0
C259 C 0.86733 0.84154 0.69354 0.0
H260 H 0.80021 0.86348 0.81435 0.0
H261 H 0.93372 0.93763 0.62718 0.0
H262 H 0.91996 0.99168 0.73885 0.0
H263 H 0.96145 0.90645 0.77751 0.0
Co264 Co 0.64151 0.63933 0.85789 0.0
C265 C 0.68109 0.64222 0.79931 0.0
C266 C 0.65202 0.68319 0.80274 0.0
C267 C 0.66739 0.6838 0.77364 0.0
N268 N 0.66055 0.65695 0.81894 0.0
N269 N 0.68544 0.6577 0.77135 0.0
H270 H 0.69131 0.61954 0.80446 0.0
H271 H 0.63447 0.69984 0.81061 0.0
C272 C 0.61362 0.69426 0.89602 0.0
O273 O 0.59292 0.6753 0.90919 0.0
N274 N 0.62377 0.62025 0.89625 0.0
C275 C 0.60655 0.59344 0.89674 0.0
C276 C 0.60269 0.58376 0.9277 0.0
C277 C 0.63156 0.62552 0.92717 0.0
N278 N 0.61814 0.60403 0.94705 0.0
C279 C 0.60609 0.61216 0.80819 0.0
C280 C 0.54831 0.61504 0.83736 0.0
C281 C 0.55332 0.59178 0.81408 0.0
C282 C 0.58186 0.59252 0.79767 0.0
C283 C 0.57318 0.635 0.84667 0.0
N284 N 0.60252 0.63123 0.83414 0.0
H285 H 0.62886 0.60885 0.79768 0.0
H286 H 0.56938 0.65047 0.86632 0.0
H287 H 0.59866 0.58073 0.87588 0.0
H288 H 0.64679 0.64462 0.93479 0.0
O289 O 0.66063 0.59867 0.8497 0.0
O290 O 0.68184 0.63796 0.87795 0.0
O291 O 0.63083 0.68446 0.87291 0.0
C292 C 0.68362 0.60918 0.86719 0.0
H293 H 0.66399 0.70116 0.75493 0.0
H294 H 0.59045 0.56251 0.93511 0.0
H295 H 0.52644 0.61598 0.8504 0.0
H296 H 0.5865 0.57614 0.77851 0.0
Co297 Co 0.35916 0.12725 0.09181 0.0
C298 C 0.36653 0.17829 0.04273 0.0
C299 C 0.32485 0.15068 0.03532 0.0
C300 C 0.32816 0.17167 1.01018 0.0
N301 N 0.3489 0.15479 0.0558 0.0
N302 N 0.35459 0.18901 1.01459 0.0
H303 H 0.38845 0.18637 0.05294 0.0
H304 H 0.30681 0.13277 0.03776 0.0
C305 C 0.29334 0.13378 0.11637 0.0
O306 O 0.28734 0.11132 0.09568 0.0
N307 N 0.37049 0.1001 0.12799 0.0
C308 C 0.3977 0.08396 0.13136 0.0
C309 C 0.40029 0.07291 0.16204 0.0
C310 C 0.35745 0.09926 0.15744 0.0
N311 N 0.37518 0.08282 0.1785 0.0
C312 C 0.41389 0.11545 0.05306 0.0
C313 C 0.40293 0.05108 0.04914 0.0
C314 C 0.43272 0.06273 0.03985 0.0
C315 C 0.43684 0.09589 0.03993 0.0
C316 C 0.37998 0.07174 0.06054 0.0
N317 N 0.38657 0.10301 0.06448 0.0
H318 H 0.41897 0.14034 0.05554 0.0
H319 H 0.35805 0.06225 0.06949 0.0
H320 H 0.41596 0.08226 0.1137 0.0
H321 H 0.33645 0.11176 0.16406 0.0
O322 O 0.39294 0.15728 0.10656 0.0
O323 O 0.34564 0.16027 0.12252 0.0
O324 O 0.3216 0.14558 0.11791 0.0
C325 C 0.37385 0.17113 0.12474 0.0
H326 H 0.31245 0.17337 0.98994 0.0
H327 H 0.42041 0.06083 0.17218 0.0
H328 H 0.39755 0.02612 0.04987 0.0
H329 H 0.45807 0.10703 0.03136 0.0
Co330 Co 0.86814 0.87574 0.34166 0.0
C331 C 0.82955 0.88005 0.2822 0.0
C332 C 0.84838 0.83351 0.28747 0.0
C333 C 0.82939 0.83442 0.26049 0.0
N334 N 0.84854 0.8623 0.30119 0.0
N335 N 0.81737 0.86384 0.25721 0.0
H336 H 0.82526 0.90481 0.28621 0.0
H337 H 0.86077 0.81305 0.29651 0.0
C338 C 0.89064 0.81681 0.3778 0.0
O339 O 0.91261 0.83343 0.392 0.0
N340 N 0.88526 0.8903 0.38229 0.0
C341 C 0.90395 0.9157 0.38699 0.0
C342 C 0.90529 0.92218 0.41907 0.0
C343 C 0.87426 0.88277 0.41164 0.0
N344 N 0.88656 0.90146 0.43466 0.0
C345 C 0.90711 0.90211 0.29449 0.0
C346 C 0.96252 0.89849 0.32843 0.0
C347 C 0.95883 0.9229 0.3059 0.0
C348 C 0.9317 0.92266 0.28705 0.0
C349 C 0.93719 0.87799 0.33493 0.0
N350 N 0.90871 0.8822 0.32024 0.0
H351 H 0.88526 0.90587 0.28213 0.0
H352 H 0.93973 0.86194 0.35447 0.0
H353 H 0.91458 0.92972 0.36829 0.0
H354 H 0.85667 0.86467 0.41582 0.0
O355 O 0.85356 0.91841 0.33499 0.0
O356 O 0.82713 0.87967 0.35951 0.0
O357 O 0.87474 0.82903 0.3546 0.0
C358 C 0.82875 0.90912 0.35025 0.0
H359 H 0.82455 0.81468 0.24489 0.0
H360 H 0.91868 0.94112 0.42991 0.0
H361 H 0.98345 0.8972 0.34315 0.0
H362 H 0.92826 0.94021 0.26847 0.0
Co363 Co 0.14614 0.37784 0.59364 0.0
C364 C 0.14775 0.33473 0.53635 0.0
C365 C 0.18791 0.36547 0.53904 0.0
C366 C 0.19016 0.34739 0.51188 0.0
N367 N 0.16142 0.35755 0.55466 0.0
N368 N 0.1649 0.32802 0.51 0.0
H369 H 0.12564 0.32337 0.54196 0.0
H370 H 0.20423 0.3837 0.54645 0.0
C371 C 0.2023 0.40469 0.63037 0.0
O372 O 0.18566 0.42824 0.6414 0.0
N373 N 0.13023 0.39691 0.6325 0.0
C374 C 0.10604 0.41717 0.63536 0.0
C375 C 0.1008 0.42256 0.66723 0.0
C376 C 0.13815 0.38895 0.66273 0.0
N377 N 0.12117 0.40492 0.68448 0.0
C378 C 0.1171 0.41283 0.54474 0.0
C379 C 0.12571 0.4722 0.57033 0.0
C380 C 0.10067 0.46736 0.54889 0.0
C381 C 0.09838 0.43777 0.53414 0.0
C382 C 0.14451 0.44652 0.5798 0.0
N383 N 0.138 0.41665 0.56924 0.0
H384 H 0.11209 0.38954 0.53555 0.0
H385 H 0.16183 0.45053 0.59781 0.0
H386 H 0.09264 0.42695 0.61574 0.0
H387 H 0.15602 0.3717 0.66856 0.0
O388 O 0.1048 0.35932 0.58802 0.0
O389 O 0.1448 0.33776 0.61471 0.0
O390 O 0.19176 0.388 0.60696 0.0
C391 C 0.11545 0.33662 0.60598 0.0
H392 H 0.2087 0.34907 0.49438 0.0
H393 H 0.08343 0.43849 0.6768 0.0
H394 H 0.12906 0.49481 0.5819 0.0
H395 H 0.08047 0.43312 0.51634 0.0
Co396 Co 0.65619 0.88674 0.46091 0.0
C397 C 0.69808 0.89071 0.51845 0.0
C398 C 0.67602 0.84526 0.5156 0.0
C399 C 0.69554 0.84588 0.54215 0.0
N400 N 0.6776 0.87346 0.50056 0.0
N401 N 0.70959 0.87457 0.54398 0.0
H402 H 0.70392 0.91504 0.51332 0.0
H403 H 0.66177 0.82545 0.50793 0.0
C404 C 0.631 0.82769 0.42701 0.0
O405 O 0.60889 0.84433 0.41307 0.0
N406 N 0.63664 0.90135 0.42125 0.0
C407 C 0.61595 0.92531 0.41838 0.0
C408 C 0.6102 0.9309 0.38662 0.0
C409 C 0.64472 0.89417 0.39083 0.0
N410 N 0.62814 0.91126 0.36926 0.0
C411 C 0.61991 0.91594 0.50807 0.0
C412 C 0.56187 0.90457 0.48096 0.0
C413 C 0.56562 0.93108 0.50078 0.0
C414 C 0.59451 0.9349 0.51639 0.0
C415 C 0.58804 0.88578 0.47359 0.0
N416 N 0.61728 0.8937 0.48466 0.0
H417 H 0.64263 0.92207 0.51774 0.0
H418 H 0.58499 0.86736 0.45648 0.0
H419 H 0.60631 0.93855 0.43798 0.0
H420 H 0.66176 0.87628 0.38466 0.0
O421 O 0.67241 0.92925 0.46565 0.0
O422 O 0.69588 0.88957 0.44026 0.0
O423 O 0.64779 0.84002 0.44944 0.0
C424 C 0.69576 0.91917 0.44878 0.0
H425 H 0.69919 0.82644 0.55858 0.0
H426 H 0.59428 0.94846 0.37695 0.0
H427 H 0.53978 0.90001 0.46891 0.0
H428 H 0.59827 0.95403 0.53307 0.0
Co429 Co 0.14415 0.14905 0.7122 0.0
C430 C 0.14189 0.20125 0.76062 0.0
C431 C 0.18224 0.1717 0.76697 0.0
C432 C 0.18122 0.19319 0.79166 0.0
N433 N 0.15751 0.17659 0.74742 0.0
N434 N 0.15565 0.21172 0.7879 0.0
H435 H 0.11976 0.21006 0.7516 0.0
H436 H 0.19918 0.1529 0.76433 0.0
C437 C 0.20257 0.1186 0.68433 0.0
O438 O 0.18772 0.09255 0.67634 0.0
N439 N 0.12979 0.12274 0.67687 0.0
C440 C 0.10376 0.10436 0.67672 0.0
C441 C 0.09825 0.0938 0.6463 0.0
C442 C 0.13845 0.12473 0.64591 0.0
N443 N 0.12006 0.10663 0.62697 0.0
C444 C 0.11541 0.12336 0.76727 0.0
C445 C 0.1166 0.06133 0.74743 0.0
C446 C 0.09264 0.07085 0.76835 0.0
C447 C 0.09485 0.10148 0.78088 0.0
C448 C 0.13817 0.08379 0.73572 0.0
N449 N 0.13484 0.11512 0.74287 0.0
H450 H 0.11246 0.14775 0.7738 0.0
H451 H 0.15389 0.07647 0.71733 0.0
H452 H 0.08867 0.10029 0.69699 0.0
H453 H 0.15739 0.13964 0.63736 0.0
O454 O 0.10272 0.16799 0.71154 0.0
O455 O 0.14442 0.18415 0.68371 0.0
O456 O 0.19026 0.13767 0.70449 0.0
C457 C 0.11465 0.18669 0.68998 0.0
H458 H 0.19785 0.19451 0.81117 0.0
H459 H 0.07866 0.07923 0.63866 0.0
H460 H 0.1169 0.03782 0.73739 0.0
H461 H 0.07863 0.1097 0.7988 0.0
Co462 Co 0.8747 0.64749 0.95413 0.0
C463 C 0.83435 0.64853 1.01216 0.0
C464 C 0.85732 0.69317 1.00596 0.0
C465 C 0.83966 0.69394 0.03372 0.0
N466 N 0.85399 0.66452 0.99233 0.0
N467 N 0.82516 0.66567 0.03765 0.0
H468 H 0.82838 0.62397 1.0091 0.0
H469 H 0.87201 0.71205 0.99686 0.0
C470 C 0.90074 0.70267 0.91457 0.0
O471 O 0.92144 0.68389 0.90158 0.0
N472 N 0.89358 0.62891 0.91631 0.0
C473 C 0.9118 0.60283 0.91606 0.0
C474 C 0.91329 0.59136 0.8855 0.0
C475 C 0.88343 0.63222 0.88579 0.0
N476 N 0.89544 0.60983 0.8665 0.0
C477 C 0.91111 0.62462 1.00556 0.0
C478 C 0.96854 0.62835 0.97567 0.0
C479 C 0.96447 0.60666 1.00069 0.0
C480 C 0.93613 0.60681 1.01725 0.0
C481 C 0.94302 0.64681 0.96545 0.0
N482 N 0.91388 0.64243 0.9784 0.0
H483 H 0.8885 0.62043 1.01614 0.0
H484 H 0.94621 0.66124 0.94476 0.0
H485 H 0.9213 0.59131 0.93701 0.0
H486 H 0.86599 0.64934 0.87832 0.0
O487 O 0.85788 0.60584 0.96329 0.0
O488 O 0.83465 0.64321 0.93389 0.0
O489 O 0.88351 0.69283 0.93782 0.0
C490 C 0.83445 0.61454 0.9454 0.0
H491 H 0.83795 0.7138 0.04978 0.0
H492 H 0.92535 0.57014 0.8781 0.0
H493 H 0.99037 0.62913 0.9625 0.0
H494 H 0.93205 0.59036 0.03669 0.0
Co495 Co 0.36959 0.37592 0.21522 0.0
C496 C 0.3621 0.33551 0.27368 0.0
C497 C 0.32039 0.36224 0.26404 0.0
C498 C 0.31567 0.34396 0.29106 0.0
N499 N 0.34951 0.35687 0.25287 0.0
N500 N 0.34195 0.32708 0.29722 0.0
H501 H 0.38548 0.32589 0.27153 0.0
H502 H 0.30364 0.37839 0.25349 0.0
C503 C 0.32109 0.41232 0.17577 0.0
O504 O 0.34264 0.43236 0.16595 0.0
N505 N 0.39127 0.39365 0.17852 0.0
C506 C 0.4169 0.41254 0.17937 0.0
C507 C 0.42643 0.4187 0.14877 0.0
C508 C 0.38662 0.38721 0.14727 0.0
N509 N 0.40732 0.40293 0.12862 0.0
C510 C 0.40412 0.40744 0.26327 0.0
C511 C 0.39252 0.46853 0.24313 0.0
C512 C 0.41925 0.46274 0.26211 0.0
C513 C 0.42326 0.43202 0.27421 0.0
C514 C 0.37342 0.44315 0.23332 0.0
N515 N 0.38137 0.41273 0.24086 0.0
H516 H 0.40958 0.38362 0.27076 0.0
H517 H 0.35377 0.4481 0.21812 0.0
H518 H 0.4284 0.42093 0.2007 0.0
H519 H 0.36786 0.37224 0.13837 0.0
O520 O 0.40701 0.35066 0.22264 0.0
O521 O 0.36542 0.33677 0.19339 0.0
O522 O 0.32706 0.393 0.1989 0.0
C523 C 0.39313 0.33002 0.20445 0.0
H524 H 0.2945 0.34351 0.30524 0.0
H525 H 0.44618 0.43338 0.14184 0.0
H526 H 0.38757 0.49196 0.23394 0.0
H527 H 0.44238 0.42648 0.29038 0.0
H528 H 0.11101 0.07079 0.48274 0.0
H529 H 0.13475 0.16971 0.47215 0.0
H530 H 0.13998 0.17464 0.5297 0.0
H531 H 0.13492 0.15157 0.58362 0.0
H532 H 0.10797 0.05368 0.59387 0.0
H533 H 0.10649 0.04775 0.53601 0.0
C534 C 0.11712 0.09352 0.49287 0.0
C535 C 0.12238 0.11977 0.4728 0.0
C536 C 0.1194 0.09643 0.52611 0.0
C537 C 0.13092 0.14887 0.4867 0.0
C538 C 0.13371 0.15183 0.51976 0.0
C539 C 0.12911 0.1289 0.5731 0.0
C540 C 0.12148 0.10309 0.59291 0.0
C541 C 0.12772 0.12584 0.53975 0.0
C542 C 0.11362 0.07392 0.57903 0.0
C543 C 0.11283 0.07052 0.54599 0.0
H544 H 0.88895 0.65323 0.81955 0.0
H545 H 0.88462 0.55321 0.83943 0.0
H546 H 0.8743 0.54229 0.7833 0.0
H547 H 0.86799 0.5608 0.72862 0.0
H548 H 0.87542 0.66066 0.70732 0.0
H549 H 0.88232 0.67195 0.76376 0.0
C550 C 0.88549 0.62914 0.81148 0.0
C551 C 0.88778 0.60404 0.83353 0.0
C552 C 0.88009 0.62296 0.77889 0.0
C553 C 0.88344 0.57286 0.82283 0.0
C554 C 0.87742 0.56662 0.79076 0.0
C555 C 0.87139 0.58507 0.73598 0.0
C556 C 0.87131 0.60967 0.71316 0.0
C557 C 0.8761 0.59143 0.7685 0.0
C558 C 0.87507 0.64103 0.72392 0.0
C559 C 0.87923 0.64759 0.75637 0.0
H560 H 0.39545 0.35577 0.0869 0.0
H561 H 0.4209 0.45436 0.09347 0.0
H562 H 0.42449 0.45805 0.03565 0.0
H563 H 0.42085 0.43353 0.98356 0.0
H564 H 0.39759 0.33436 0.97576 0.0
H565 H 0.39218 0.33073 0.03355 0.0
C566 C 0.40154 0.37802 0.07552 0.0
C567 C 0.40808 0.40472 0.09438 0.0
C568 C 0.40396 0.37989 0.04209 0.0
C569 C 0.41621 0.43341 0.07946 0.0
C570 C 0.41815 0.43557 0.04641 0.0
C571 C 0.41502 0.41094 0.9943 0.0
C572 C 0.40988 0.38425 0.97503 0.0
C573 C 0.41235 0.40893 1.02752 0.0
C574 C 0.40152 0.35542 0.98977 0.0
C575 C 0.39852 0.35328 1.02292 0.0
H576 H 0.67693 0.90222 0.32836 0.0
H577 H 0.57631 0.91287 0.33305 0.0
H578 H 0.57263 0.91152 0.2752 0.0
H579 H 0.59755 0.90964 0.22349 0.0
H580 H 0.69807 0.901 0.21625 0.0
H581 H 0.70235 0.89849 0.27459 0.0
C582 C 0.65427 0.90391 0.31658 0.0
C583 C 0.62689 0.90797 0.33502 0.0
C584 C 0.65234 0.90356 0.28286 0.0
C585 C 0.59769 0.91025 0.31944 0.0
C586 C 0.59556 0.90937 0.28634 0.0
C587 C 0.62053 0.90756 0.23445 0.0
C588 C 0.64757 0.90632 0.21524 0.0
C589 C 0.62271 0.90658 0.26782 0.0
C590 C 0.67692 0.90229 0.23029 0.0
C591 C 0.67932 0.90095 0.26373 0.0
H592 H 0.0777 0.42076 0.72817 0.0
H593 H 0.17311 0.38795 0.71857 0.0
H594 H 0.1798 0.38916 0.77632 0.0
H595 H 0.15907 0.40183 0.82991 0.0
H596 H 0.06427 0.43655 0.83819 0.0
H597 H 0.05714 0.43296 0.78078 0.0
C598 C 0.10007 0.41407 0.73855 0.0
C599 C 0.12479 0.40434 0.71877 0.0
C600 C 0.104 0.41544 0.77174 0.0
C601 C 0.15342 0.39516 0.73301 0.0
C602 C 0.15739 0.39609 0.76614 0.0
C603 C 0.13685 0.40841 0.81909 0.0
C604 C 0.11239 0.41981 0.83835 0.0
C605 C 0.1329 0.40644 0.78578 0.0
C606 C 0.08373 0.42836 0.82394 0.0
C607 C 0.07952 0.4261 0.79108 0.0
H608 H 0.66141 0.63114 0.98695 0.0
H609 H 0.57734 0.57338 0.98583 0.0
H610 H 0.58005 0.56747 0.04312 0.0
H611 H 0.606 0.57793 0.09398 0.0
H612 H 0.68819 0.63754 0.09728 0.0
H613 H 0.68622 0.64397 0.03908 0.0
C614 C 0.64353 0.61749 0.99919 0.0
C615 C 0.61954 0.60224 0.98155 0.0
C616 C 0.6448 0.61457 0.03273 0.0
C617 C 0.59664 0.58468 0.99822 0.0
C618 C 0.59795 0.58145 0.03124 0.0
C619 C 0.62351 0.59225 0.0819 0.0
C620 C 0.64727 0.60706 0.09979 0.0
C621 C 0.62199 0.59603 0.04869 0.0
C622 C 0.66954 0.62606 0.08397 0.0
C623 C 0.66847 0.6296 0.05071 0.0
H624 H 0.38796 0.05817 0.32465 0.0
H625 H 0.3636 0.15714 0.32765 0.0
H626 H 0.35464 0.15712 0.2701 0.0
H627 H 0.35845 0.12999 0.21805 0.0
H628 H 0.38634 0.03219 0.21548 0.0
H629 H 0.38934 0.0307 0.27366 0.0
C630 C 0.38089 0.07985 0.31284 0.0
C631 C 0.37691 0.1077 0.33065 0.0
C632 C 0.37644 0.07984 0.27968 0.0
C633 C 0.36679 0.13528 0.31475 0.0
C634 C 0.36181 0.13535 0.28173 0.0
C635 C 0.36451 0.10825 0.23036 0.0
C636 C 0.37213 0.08116 0.21262 0.0
C637 C 0.3671 0.10789 0.26385 0.0
C638 C 0.38046 0.05325 0.22876 0.0
C639 C 0.38228 0.05246 0.26195 0.0
H640 H 0.89227 0.94928 0.47679 0.0
H641 H 0.86754 0.85049 0.46958 0.0
H642 H 0.86168 0.84735 0.52746 0.0
H643 H 0.86838 0.8718 0.58101 0.0
H644 H 0.89668 0.96951 0.58706 0.0
H645 H 0.89643 0.97401 0.52902 0.0
C646 C 0.88575 0.92697 0.48774 0.0
C647 C 0.88078 0.9001 0.46864 0.0
C648 C 0.88311 0.92516 0.52106 0.0
C649 C 0.87144 0.87165 0.4835 0.0
C650 C 0.86825 0.86977 0.51671 0.0
C651 C 0.87389 0.89412 0.56945 0.0
C652 C 0.88262 0.92033 0.58814 0.0
C653 C 0.8746 0.89624 0.53585 0.0
C654 C 0.89008 0.94908 0.57303 0.0
C655 C 0.89 0.95161 0.5399 0.0
H656 H 0.30006 0.15184 0.17877 0.0
H657 H 0.2302 0.13645 0.10582 0.0
H658 H 0.18846 0.14862 0.14373 0.0
H659 H 0.17144 0.1614 0.19847 0.0
H660 H 0.24108 0.17211 0.27244 0.0
H661 H 0.28312 0.1639 0.23364 0.0
C662 C 0.27578 0.15156 0.17103 0.0
C663 C 0.26842 0.14355 0.13926 0.0
C664 C 0.25174 0.15749 0.19338 0.0
C665 C 0.23662 0.14262 0.13001 0.0
C666 C 0.21269 0.14954 0.15174 0.0
C667 C 0.19583 0.16227 0.20598 0.0
C668 C 0.20306 0.1676 0.23836 0.0
C669 C 0.2199 0.15669 0.1836 0.0
C670 C 0.23484 0.16798 0.24777 0.0
C671 C 0.2589 0.16336 0.22553 0.0
H672 H 0.82481 0.6977 0.44313 0.0
H673 H 0.90419 0.70963 0.50676 0.0
H674 H 0.92461 0.75131 0.47304 0.0
H675 H 0.91922 0.78692 0.42754 0.0
H676 H 0.83946 0.77816 0.36436 0.0
H677 H 0.82035 0.73284 0.39566 0.0
C678 C 0.84655 0.70929 0.44984 0.0
C679 C 0.86256 0.69992 0.4781 0.0
C680 C 0.85832 0.73407 0.43025 0.0
C681 C 0.89103 0.7155 0.48552 0.0
C682 C 0.90286 0.73973 0.46613 0.0
C683 C 0.89779 0.77501 0.42019 0.0
C684 C 0.88091 0.78625 0.39337 0.0
C685 C 0.8866 0.74946 0.4387 0.0
C686 C 0.85317 0.77016 0.38462 0.0
C687 C 0.8421 0.7443 0.40274 0.0
H688 H 0.30795 0.33359 0.71067 0.0
H689 H 0.29198 0.41337 0.77267 0.0
H690 H 0.25449 0.4348 0.73486 0.0
H691 H 0.22528 0.4313 0.68477 0.0
H692 H 0.24 0.35211 0.62211 0.0
H693 H 0.27947 0.33089 0.65915 0.0
C694 C 0.29663 0.3558 0.71604 0.0
C695 C 0.30334 0.37147 0.74517 0.0
C696 C 0.27491 0.3685 0.69374 0.0
C697 C 0.28763 0.40016 0.75113 0.0
C698 C 0.2661 0.41275 0.72922 0.0
C699 C 0.23731 0.40956 0.67879 0.0
C700 C 0.22955 0.39355 0.65028 0.0
C701 C 0.25952 0.39717 0.7005 0.0
C702 C 0.24548 0.36525 0.64353 0.0
C703 C 0.26796 0.35295 0.66492 0.0
H704 H 0.62027 0.81109 0.99011 0.0
H705 H 0.71751 0.80954 0.96171 0.0
H706 H 0.7062 0.76727 0.92393 0.0
H707 H 0.66912 0.72813 0.90055 0.0
H708 H 0.57214 0.72923 0.9299 0.0
H709 H 0.58281 0.7739 0.96496 0.0
C710 C 0.63903 0.80148 0.97576 0.0
C711 C 0.66978 0.81377 0.97908 0.0
C712 C 0.63235 0.77693 0.95383 0.0
C713 C 0.69357 0.80104 0.95971 0.0
C714 C 0.68713 0.77664 0.93803 0.0
C715 C 0.65018 0.73863 0.91402 0.0
C716 C 0.61975 0.72524 0.91222 0.0
C717 C 0.65663 0.76419 0.93491 0.0
C718 C 0.59574 0.73894 0.93054 0.0
C719 C 0.60187 0.76448 0.95086 0.0
H720 H 0.21655 0.42 0.06786 0.0
H721 H 0.21627 0.31897 0.08303 0.0
H722 H 0.25321 0.32484 0.12707 0.0
H723 H 0.28833 0.35827 0.16013 0.0
H724 H 0.29038 0.45896 0.14362 0.0
H725 H 0.25029 0.45363 0.10211 0.0
C726 C 0.2246 0.39923 0.08067 0.0
C727 C 0.21321 0.36905 0.07178 0.0
C728 C 0.24623 0.40271 0.10625 0.0
C729 C 0.22398 0.34258 0.08923 0.0
C730 C 0.24535 0.34588 0.11456 0.0
C731 C 0.27938 0.37913 0.14806 0.0
C732 C 0.29217 0.40907 0.15552 0.0
C733 C 0.25679 0.37579 0.12332 0.0
C734 C 0.28082 0.43567 0.13877 0.0
C735 C 0.25801 0.43261 0.11473 0.0
H736 H 0.60181 0.79816 0.37745 0.0
H737 H 0.68026 0.78748 0.44203 0.0
H738 H 0.69762 0.74085 0.41233 0.0
H739 H 0.69208 0.7049 0.36601 0.0
H740 H 0.61426 0.71856 0.30078 0.0
H741 H 0.59537 0.76182 0.3329 0.0
C742 C 0.62256 0.78556 0.38546 0.0
C743 C 0.6396 0.79662 0.4122 0.0
C744 C 0.63278 0.7592 0.36787 0.0
C745 C 0.66646 0.77965 0.42179 0.0
C746 C 0.67654 0.75302 0.4046 0.0
C747 C 0.67102 0.71721 0.35858 0.0
C748 C 0.65496 0.70786 0.33039 0.0
C749 C 0.66019 0.74287 0.3772 0.0
C750 C 0.62738 0.7244 0.32204 0.0
C751 C 0.61645 0.74952 0.34049 0.0
H752 H 0.23475 0.08382 0.64077 0.0
H753 H 0.23118 0.17731 0.68132 0.0
H754 H 0.26957 0.19608 0.64212 0.0
H755 H 0.30152 0.18674 0.59348 0.0
H756 H 0.30465 0.09235 0.5545 0.0
H757 H 0.269 0.0737 0.59533 0.0
C758 C 0.24262 0.10825 0.64146 0.0
C759 C 0.22987 0.12899 0.66424 0.0
C760 C 0.26438 0.11903 0.61852 0.0
C761 C 0.24059 0.16058 0.66441 0.0
C762 C 0.26243 0.17144 0.64172 0.0
C763 C 0.29472 0.16203 0.59402 0.0
C764 C 0.30567 0.14136 0.57004 0.0
C765 C 0.27411 0.15102 0.6182 0.0
C766 C 0.29627 0.10934 0.57161 0.0
C767 C 0.27593 0.09841 0.59534 0.0
H768 H 0.84452 0.73314 0.90337 0.0
H769 H 0.94413 0.74037 0.88635 0.0
H770 H 0.93543 0.78406 0.84919 0.0
H771 H 0.89936 0.818 0.81824 0.0
H772 H 0.79958 0.81042 0.83408 0.0
H773 H 0.80843 0.76963 0.87452 0.0
C774 C 0.86435 0.74489 0.89222 0.0
C775 C 0.89502 0.73355 0.89804 0.0
C776 C 0.8591 0.76974 0.87 0.0
C777 C 0.92032 0.74866 0.88261 0.0
C778 C 0.91534 0.77355 0.86107 0.0
C779 C 0.87953 0.8074 0.83045 0.0
C780 C 0.8488 0.81739 0.82276 0.0
C781 C 0.8848 0.78382 0.85391 0.0
C782 C 0.82351 0.80355 0.83943 0.0
C783 C 0.82855 0.78004 0.86263 0.0
H784 H 0.70993 0.69237 0.72222 0.0
H785 H 0.69943 0.59662 0.75706 0.0
H786 H 0.72884 0.57689 0.712 0.0
H787 H 0.75892 0.58619 0.66311 0.0
H788 H 0.76982 0.68133 0.62727 0.0
H789 H 0.73871 0.70153 0.67156 0.0
C790 C 0.71386 0.66717 0.71989 0.0
C791 C 0.70258 0.64628 0.74371 0.0
C792 C 0.73088 0.65566 0.69341 0.0
C793 C 0.70823 0.61364 0.73996 0.0
C794 C 0.72492 0.60214 0.71383 0.0
C795 C 0.75419 0.61133 0.66462 0.0
C796 C 0.7669 0.63212 0.64159 0.0
C797 C 0.73653 0.62287 0.69049 0.0
C798 C 0.76059 0.66467 0.64449 0.0
C799 C 0.74276 0.67628 0.66996 0.0
H800 H 0.33922 0.20036 0.952 0.0
H801 H 0.40129 0.23155 1.02748 0.0
H802 H 0.42555 0.26937 0.99138 0.0
H803 H 0.42942 0.29426 0.93873 0.0
H804 H 0.36556 0.26644 0.86376 0.0
H805 H 0.34196 0.22677 0.89932 0.0
C806 C 0.35788 0.21543 0.96086 0.0
C807 C 0.36832 0.21236 0.99289 0.0
C808 C 0.37171 0.23778 0.93986 0.0
C809 C 0.39282 0.23246 1.00319 0.0
C810 C 0.40677 0.25439 0.98245 0.0
C811 C 0.41054 0.27935 0.92988 0.0
C812 C 0.39966 0.28323 0.89822 0.0
C813 C 0.39655 0.25718 0.95073 0.0
C814 C 0.37469 0.26394 0.88775 0.0
C815 C 0.36109 0.24129 0.9082 0.0
H816 H 0.80062 0.83645 0.20026 0.0
H817 H 0.78459 0.91927 0.25804 0.0
H818 H 0.75324 0.94245 0.2161 0.0
H819 H 0.73299 0.94184 0.16139 0.0
H820 H 0.74743 0.86005 0.10274 0.0
H821 H 0.77543 0.83364 0.14669 0.0
C822 C 0.79006 0.85938 0.204 0.0
C823 C 0.79622 0.87611 0.23259 0.0
C824 C 0.77114 0.87281 0.17954 0.0
C825 C 0.78172 0.90583 0.23644 0.0
C826 C 0.76332 0.91925 0.21233 0.0
C827 C 0.7415 0.91784 0.15858 0.0
C828 C 0.73703 0.90247 0.12923 0.0
C829 C 0.75828 0.90327 0.18363 0.0
C830 C 0.74924 0.87185 0.12553 0.0
C831 C 0.76576 0.85699 0.15054 0.0
H832 H 0.15961 0.22766 0.39841 0.0
H833 H 0.06031 0.23555 0.41624 0.0
H834 H 0.07036 0.27596 0.45652 0.0
H835 H 0.10763 0.30696 0.48949 0.0
H836 H 0.20711 0.29769 0.47284 0.0
H837 H 0.1968 0.2604 0.42988 0.0
C838 C 0.14014 0.23894 0.41041 0.0
C839 C 0.10915 0.22887 0.40373 0.0
C840 C 0.14618 0.26166 0.43445 0.0
C841 C 0.08434 0.24308 0.42046 0.0
C842 C 0.0901 0.26603 0.44381 0.0
C843 C 0.12708 0.29673 0.47658 0.0
C844 C 0.15818 0.30541 0.48471 0.0
C845 C 0.12097 0.27506 0.45159 0.0
C846 C 0.18293 0.29196 0.46717 0.0
C847 C 0.17705 0.27044 0.44248 0.0
H848 H 0.72381 0.84838 0.60235 0.0
H849 H 0.74728 0.92685 0.54034 0.0
H850 H 0.7813 0.94873 0.58111 0.0
H851 H 0.80166 0.94847 0.63602 0.0
H852 H 0.77977 0.87055 0.69847 0.0
H853 H 0.74882 0.8454 0.65592 0.0
C854 C 0.73653 0.87006 0.59742 0.0
C855 C 0.73185 0.88607 0.56798 0.0
C856 C 0.75681 0.88265 0.62119 0.0
C857 C 0.74911 0.91416 0.56265 0.0
C858 C 0.76902 0.92674 0.58605 0.0
C859 C 0.79083 0.92551 0.64 0.0
C860 C 0.7941 0.91083 0.67006 0.0
C861 C 0.77262 0.91157 0.61559 0.0
C862 C 0.7789 0.88168 0.67519 0.0
C863 C 0.76075 0.86756 0.65094 0.0
H864 H 0.09421 0.32514 0.86217 0.0
H865 H 0.15264 0.28907 0.93824 0.0
H866 H 0.1708 0.24651 0.90337 0.0
H867 H 0.17106 0.22034 0.85068 0.0
H868 H 0.11434 0.25894 0.77435 0.0
H869 H 0.09459 0.29941 0.81002 0.0
C870 C 0.11059 0.30777 0.87146 0.0
C871 C 0.12169 0.31032 0.90317 0.0
C872 C 0.12147 0.2838 0.85104 0.0
C873 C 0.14342 0.28773 0.91419 0.0
C874 C 0.15394 0.26342 0.89413 0.0
C875 C 0.15456 0.23764 0.84161 0.0
C876 C 0.1443 0.23609 0.80946 0.0
C877 C 0.14339 0.26138 0.86235 0.0
C878 C 0.12251 0.25885 0.79878 0.0
C879 C 0.11122 0.28226 0.81924 0.0
H880 H 0.81728 0.69242 0.09665 0.0
H881 H 0.7863 0.61426 0.0382 0.0
H882 H 0.75556 0.59347 0.08184 0.0
H883 H 0.7368 0.59661 0.13676 0.0
H884 H 0.76253 0.67656 0.19465 0.0
H885 H 0.79555 0.69733 0.15138 0.0
C886 C 0.80377 0.67094 0.09325 0.0
C887 C 0.80522 0.65477 0.06378 0.0
C888 C 0.78513 0.65913 0.11867 0.0
C889 C 0.78697 0.62701 0.06039 0.0
C890 C 0.76897 0.61502 0.0855 0.0
C891 C 0.75004 0.61833 0.14016 0.0
C892 C 0.74784 0.63455 0.1693 0.0
C893 C 0.7681 0.63062 0.11482 0.0
C894 C 0.7642 0.66332 0.1727 0.0
C895 C 0.783 0.67526 0.14786 0.0
H896 H 0.3976 0.30865 0.32373 0.0
H897 H 0.29749 0.2933 0.32929 0.0
H898 H 0.30538 0.25378 0.37109 0.0
H899 H 0.34107 0.22008 0.40367 0.0
H900 H 0.44111 0.23403 0.39615 0.0
H901 H 0.43292 0.27737 0.35829 0.0
C902 C 0.37745 0.2967 0.33397 0.0
C903 C 0.34693 0.30421 0.32291 0.0
C904 C 0.38216 0.27365 0.35813 0.0
C905 C 0.32124 0.28852 0.33719 0.0
C906 C 0.32575 0.26567 0.36118 0.0
C907 C 0.361 0.23333 0.39455 0.0
C908 C 0.39171 0.22413 0.40339 0.0
C909 C 0.35611 0.25775 0.37173 0.0
C910 C 0.41725 0.24089 0.39029 0.0
C911 C 0.41257 0.26552 0.3683 0.0
H912 H 0.06537 0.02818 0.30905 0.0
H913 H 0.98427 0.08904 0.30387 0.0
H914 H 0.94978 0.04259 0.30171 0.0
H915 H 0.94264 0.98492 0.30251 0.0
H916 H 0.02352 0.92385 0.30836 0.0
H917 H 0.05823 0.97029 0.309 0.0
C918 C 0.04016 0.03134 0.30694 0.0
C919 C 0.02747 0.06218 0.3063 0.0
C920 C 0.02048 1.00451 0.30595 0.0
C921 C 0.99469 0.0657 0.30447 0.0
C922 C 0.97497 0.03912 0.30316 0.0
C923 C 0.96791 0.98167 0.30335 0.0
C924 C 0.98046 0.9508 0.30492 0.0
C925 C 0.98761 1.00844 0.30398 0.0
C926 C 0.01322 0.94722 0.30707 0.0
C927 C 0.03305 0.97379 0.30738 0.0
H928 H 0.03802 0.45527 0.54396 0.0
H929 H 0.10447 0.53267 0.54678 0.0
H930 H 0.06098 0.57049 0.54602 0.0
H931 H 1.00388 0.58137 0.54694 0.0
H932 H 0.93836 0.50304 0.54507 0.0
H933 H 0.98182 0.46597 0.5417 0.0
C934 C 0.04324 0.4804 0.54358 0.0
C935 C 0.07472 0.49094 0.54522 0.0
C936 C 0.01818 0.50194 0.54319 0.0
C937 C 0.0806 0.52373 0.54573 0.0
C938 C 0.0557 0.5454 0.5452 0.0
C939 C 0.99907 0.55619 0.54574 0.0
C940 C 0.96765 0.54519 0.54628 0.0
C941 C 0.02435 0.53475 0.54441 0.0
C942 C 0.96206 0.51243 0.5442 0.0
C943 C 0.98699 0.49109 0.54259 0.0
H944 H 0.44499 0.48883 0.81005 0.0
H945 H 0.52436 0.42731 0.79491 0.0
H946 H 0.55961 0.47309 0.79575 0.0
H947 H 0.56808 0.52996 0.80324 0.0
H948 H 0.48854 0.59176 0.8161 0.0
H949 H 0.45309 0.54618 0.81346 0.0
C950 C 0.46989 0.4853 0.80611 0.0
C951 C 0.48183 0.45438 0.80224 0.0
C952 C 0.49003 0.51177 0.80642 0.0
C953 C 0.5144 0.4506 0.79822 0.0
C954 C 0.53459 0.47684 0.79858 0.0
C955 C 0.54295 0.53377 0.80468 0.0
C956 C 0.53112 0.56457 0.8097 0.0
C957 C 0.52268 0.50747 0.80296 0.0
C958 C 0.49845 0.5685 0.8125 0.0
C959 C 0.47813 0.5424 0.81088 0.0
H960 H 0.49686 0.07594 0.03981 0.0
H961 H 0.43156 0.99841 1.02449 0.0
H962 H 0.47498 0.96173 1.02437 0.0
H963 H 0.53077 0.9509 0.03323 0.0
H964 H 0.59639 0.02943 0.03703 0.0
H965 H 0.55292 0.06618 0.03648 0.0
C966 C 0.49144 0.05135 0.03543 0.0
C967 C 0.45988 0.04065 0.03344 0.0
C968 C 0.51676 0.03013 0.03365 0.0
C969 C 0.45487 1.00804 1.02789 0.0
C970 C 0.47995 0.98672 1.02735 0.0
C971 C 0.53614 0.97594 0.03301 0.0
C972 C 0.56751 0.98671 0.0365 0.0
C973 C 0.51096 0.99742 0.03103 0.0
C974 C 0.57287 0.0197 0.03613 0.0
C975 C 0.54786 0.04105 0.03537 0.0
H976 H 0.04363 0.4878 0.04407 0.0
H977 H 0.02631 0.46259 0.94594 0.0
H978 H 0.99827 0.51196 0.93742 0.0
H979 H 0.97945 0.56299 0.95716 0.0
H980 H 0.99517 0.58842 0.05516 0.0
H981 H 0.02406 0.53893 0.06412 0.0
C982 C 0.03363 0.49303 1.02086 0.0
C983 C 0.03696 0.47115 0.99582 0.0
C984 C 0.01793 0.52194 1.01585 0.0
C985 C 0.02354 0.4784 0.96595 0.0
C986 C 1.0079 0.50696 0.96085 0.0
C987 C 0.98985 0.55794 0.98028 0.0
C988 C 0.98603 0.57957 1.00527 0.0
C989 C 1.0053 0.52905 0.98546 0.0
C990 C 0.99849 0.57234 0.03545 0.0
C991 C 0.01466 0.54394 0.04061 0.0
H992 H 0.48254 0.45325 0.26396 0.0
H993 H 0.41342 0.52761 0.26868 0.0
H994 H 0.45551 0.56721 0.27012 0.0
H995 H 0.51218 0.58079 0.26782 0.0
H996 H 0.58034 0.50549 0.26338 0.0
H997 H 0.53833 0.46632 0.26538 0.0
C998 C 0.47643 0.47802 0.26616 0.0
C999 C 0.44456 0.48718 0.26631 0.0
C1000 C 0.50072 0.50063 0.26715 0.0
C1001 C 0.43757 0.51966 0.26817 0.0
C1002 C 0.46169 0.54238 0.26914 0.0
C1003 C 0.51785 0.5558 0.26742 0.0
C1004 C 0.54958 0.54627 0.26551 0.0
C1005 C 0.49339 0.53316 0.26819 0.0
C1006 C 0.55636 0.51371 0.26538 0.0
C1007 C 0.53226 0.49119 0.2662 0.0
H1008 H 0.57547 0.99487 0.50124 0.0
H1009 H 0.50113 0.92505 0.50251 0.0
H1010 H 0.46195 0.96727 0.50126 0.0
H1011 H 0.4489 0.02377 0.49807 0.0
H1012 H 0.52329 0.09358 0.49808 0.0
H1013 H 0.56241 0.05139 0.50064 0.0
C1014 C 0.55072 0.98874 0.50194 0.0
C1015 C 0.54139 0.9566 0.50226 0.0
C1016 C 0.52832 0.01315 0.50123 0.0
C1017 C 0.5091 0.94941 0.50213 0.0
C1018 C 0.48667 0.97359 0.5015 0.0
C1019 C 0.47364 0.02992 0.49927 0.0
C1020 C 0.483 0.06204 0.49809 0.0
C1021 C 0.49602 1.00553 0.50085 0.0
C1022 C 0.51529 0.06923 0.49872 0.0
C1023 C 0.53769 0.04507 0.50032 0.0
H1024 H 0.08445 1.00576 0.7658 0.0
H1025 H 0.03278 0.09262 0.77953 0.0
H1026 H 0.98409 0.06336 0.78148 0.0
H1027 H 0.95479 0.01393 0.77507 0.0
H1028 H 1.0053 0.92808 0.75405 0.0
H1029 H 0.05498 0.95612 0.75913 0.0
C1030 C 0.06268 0.01848 0.76917 0.0
C1031 C 0.06311 0.05165 0.77287 0.0
C1032 C 0.03399 1.00161 0.76876 0.0
C1033 C 0.03413 0.06716 0.77763 0.0
C1034 C 1.0058 0.05044 0.77826 0.0
C1035 C 0.97657 1.00125 0.77144 0.0
C1036 C 0.97582 0.96873 0.76431 0.0
C1037 C 1.00533 0.01777 0.77321 0.0
C1038 C 1.00468 0.95288 0.76029 0.0
C1039 C 0.03334 0.96902 0.76283 0.0
H1040 H 0.31446 0.08913 0.3884 0.0
H1041 H 0.27484 0.09372 0.48244 0.0
H1042 H 0.22193 0.0886 0.46023 0.0
H1043 H 0.18862 0.09987 0.41397 0.0
H1044 H 0.22852 0.10168 0.31989 0.0
H1045 H 0.2799 0.08682 0.34173 0.0
C1046 C 0.29419 0.08736 0.40394 0.0
C1047 C 0.2979 0.09222 0.43666 0.0
C1048 C 0.26407 0.08652 0.39079 0.0
C1049 C 0.27209 0.09002 0.45708 0.0
C1050 C 0.24191 0.08754 0.44433 0.0
C1051 C 0.20843 0.0958 0.39832 0.0
C1052 C 0.20568 0.10248 0.36581 0.0
C1053 C 0.23774 0.08844 0.41119 0.0
C1054 C 0.23077 0.09699 0.34517 0.0
C1055 C 0.26 0.0886 0.35766 0.0
H1056 H 0.89838 0.70952 0.63415 0.0
H1057 H 0.80309 0.71984 0.60034 0.0
H1058 H 0.79948 0.77162 0.62565 0.0
H1059 H 0.82288 0.81265 0.65856 0.0
H1060 H 0.91781 0.80212 0.69383 0.0
H1061 H 0.92219 0.75131 0.66674 0.0
C1062 C 0.87705 0.72341 0.63211 0.0
C1063 C 0.85097 0.71131 0.61581 0.0
C1064 C 0.87502 0.7527 0.64711 0.0
C1065 C 0.82323 0.72893 0.6133 0.0
C1066 C 0.82119 0.75839 0.62765 0.0
C1067 C 0.84451 0.79921 0.66038 0.0
C1068 C 0.86993 0.81082 0.67815 0.0
C1069 C 0.84681 0.77025 0.64494 0.0
C1070 C 0.89789 0.79339 0.68028 0.0
C1071 C 0.90045 0.76448 0.66478 0.0
H1072 H 0.24397 0.41611 0.97781 0.0
H1073 H 0.19296 0.45325 0.89746 0.0
H1074 H 0.24106 0.45452 0.86573 0.0
H1075 H 0.29293 0.42985 0.85713 0.0
H1076 H 0.3392 0.38396 0.93622 0.0
H1077 H 0.29862 0.40155 0.9723 0.0
C1078 C 0.244 0.4262 0.95398 0.0
C1079 C 0.21557 0.43445 0.93969 0.0
C1080 C 0.27091 0.42411 0.93532 0.0
C1081 C 0.21509 0.44708 0.90875 0.0
C1082 C 0.2424 0.44715 0.89046 0.0
C1083 C 0.29428 0.42459 0.88242 0.0
C1084 C 0.3183 0.40519 0.8941 0.0
C1085 C 0.26978 0.43327 0.90277 0.0
C1086 C 0.32041 0.39839 0.92676 0.0
C1087 C 0.29727 0.40851 0.94744 0.0
H1088 H 0.70057 0.80857 0.13869 0.0
H1089 H 0.6024 0.80637 0.11221 0.0
H1090 H 0.59533 0.75722 0.1427 0.0
H1091 H 0.61786 0.71475 0.17636 0.0
H1092 H 0.71642 0.71823 0.20113 0.0
H1093 H 0.7225 0.76774 0.17201 0.0
C1094 C 0.67758 0.79736 0.13941 0.0
C1095 C 0.65205 0.81078 0.12322 0.0
C1096 C 0.67377 0.76968 0.15689 0.0
C1097 C 0.62241 0.79616 0.12447 0.0
C1098 C 0.61836 0.76825 0.14195 0.0
C1099 C 0.64046 0.72671 0.1756 0.0
C1100 C 0.66666 0.71326 0.19067 0.0
C1101 C 0.64392 0.75487 0.1583 0.0
C1102 C 0.69601 0.72839 0.18948 0.0
C1103 C 0.69954 0.75654 0.17284 0.0
H1104 H 0.69805 0.58736 0.92477 0.0
H1105 H 0.72978 0.58925 0.82751 0.0
H1106 H 0.78379 0.58062 0.84507 0.0
H1107 H 0.82139 0.591 0.88826 0.0
H1108 H 0.78963 0.59218 0.98542 0.0
H1109 H 0.73613 0.57995 0.96816 0.0
C1110 C 0.7167 0.58419 0.9075 0.0
C1111 C 0.71066 0.58983 0.87522 0.0
C1112 C 0.74764 0.58036 0.9179 0.0
C1113 C 0.73434 0.58551 0.85261 0.0
C1114 C 0.76522 0.5808 0.86267 0.0
C1115 C 0.80293 0.5869 0.90561 0.0
C1116 C 0.80862 0.59335 0.93775 0.0
C1117 C 0.77226 0.58099 0.89531 0.0
C1118 C 0.78523 0.58781 0.96046 0.0
C1119 C 0.75466 0.58105 0.95054 0.0
H1120 H 0.41895 0.21647 0.11985 0.0
H1121 H 0.34887 0.17757 0.18282 0.0
H1122 H 0.35661 0.22108 0.21981 0.0
H1123 H 0.37446 0.27514 0.22781 0.0
H1124 H 0.4393 0.31796 0.16203 0.0
H1125 H 0.44371 0.26788 0.13308 0.0
C1126 C 0.40601 0.21738 0.14204 0.0
C1127 C 0.38279 0.19467 0.14845 0.0
C1128 C 0.4098 0.24318 0.16262 0.0
C1129 C 0.36616 0.19554 0.17719 0.0
C1130 C 0.37074 0.22023 0.1984 0.0
C1131 C 0.3907 0.27285 0.20805 0.0
C1132 C 0.40671 0.29954 0.19693 0.0
C1133 C 0.39127 0.24493 0.19053 0.0
C1134 C 0.42727 0.29715 0.17108 0.0
C1135 C 0.42927 0.26877 0.15426 0.0
H1136 H 0.82633 0.93843 0.40557 0.0
H1137 H 0.77748 0.9268 0.31641 0.0
H1138 H 0.72832 0.94356 0.34088 0.0
H1139 H 0.69854 0.94164 0.39021 0.0
H1140 H 0.74682 0.94146 0.48044 0.0
H1141 H 0.79694 0.95081 0.45374 0.0
C1142 C 0.80511 0.94126 0.39138 0.0
C1143 C 0.80476 0.93124 0.35972 0.0
C1144 C 0.7768 0.94838 0.40626 0.0
C1145 C 0.77772 0.93452 0.34097 0.0
C1146 C 0.74969 0.94378 0.35505 0.0
C1147 C 0.71994 0.94548 0.40388 0.0
C1148 C 0.71974 0.94038 0.43678 0.0
C1149 C 0.74861 0.9479 0.38816 0.0
C1150 C 0.74697 0.94525 0.45492 0.0
C1151 C 0.77557 0.95012 0.43959 0.0
H1152 H 0.08651 0.24083 0.70742 0.0
H1153 H 0.10208 0.17889 0.628 0.0
H1154 H 0.09368 0.22235 0.59069 0.0
H1155 H 0.0996 0.27963 0.58306 0.0
H1156 H 0.0874 0.34204 0.66268 0.0
H1157 H 0.07578 0.29717 0.69753 0.0
C1158 C 0.08625 0.23671 0.68192 0.0
C1159 C 0.09547 0.20734 0.67015 0.0
C1160 C 0.0827 0.26216 0.66072 0.0
C1161 C 0.09536 0.20175 0.63725 0.0
C1162 C 0.09081 0.22662 0.61595 0.0
C1163 C 0.0926 0.2833 0.6076 0.0
C1164 C 0.09473 0.3135 0.62073 0.0
C1165 C 0.08712 0.25732 0.62761 0.0
C1166 C 0.08598 0.31859 0.65245 0.0
C1167 C 0.07965 0.29296 0.6724 0.0
loop_
_geom_bond_atom_site_label_1
_geom_bond_atom_site_label_2
_geom_bond_distance
_geom_bond_site_symmetry_2
_ccdc_geom_bond_type
Co0 N4 2.148 . S
Co0 N10 2.128 . S
Co0 N20 2.194 . S
Co0 O25 2.351 . S
Co0 O26 2.155 . S
Co0 O27 2.096 . S
C1 N4 1.301 . S
C1 N5 1.328 . S
C1 H6 0.930 . S
C2 C3 1.333 . S
C2 N4 1.317 . S
C2 H7 0.930 . S
C3 C2 1.333 . S
C3 N5 1.350 . S
C3 H29 0.931 . S
N4 Co0 2.148 . S
N4 C1 1.301 . S
N4 C2 1.317 . S
N5 C1 1.328 . S
N5 C3 1.350 . S
H6 C1 0.930 . S
H7 C2 0.930 . S
C8 O9 1.224 . S
C8 O27 1.247 . S
O9 C8 1.224 . S
N10 Co0 2.128 . S
N10 C11 1.355 . S
N10 C13 1.311 . S
C11 N10 1.355 . S
C11 C12 1.363 . S
C11 H23 0.929 . S
C12 C11 1.363 . S
C12 N14 1.375 . S
C12 H30 0.931 . S
C13 N10 1.311 . S
C13 N14 1.347 . S
C13 H24 0.929 . S
N14 C12 1.375 . S
N14 C13 1.347 . S
C15 C18 1.365 . S
C15 N20 1.328 . S
C15 H21 0.929 . S
C16 C17 1.362 . S
C16 C19 1.378 . S
C16 H31 0.929 . S
C17 C16 1.362 . S
C17 C18 1.366 . S
C18 C15 1.365 . S
C18 C17 1.366 . S
C18 H32 0.930 . S
C19 C16 1.378 . S
C19 N20 1.315 . S
C19 H22 0.930 . S
N20 Co0 2.194 . S
N20 C15 1.328 . S
N20 C19 1.315 . S
H21 C15 0.929 . S
H22 C19 0.930 . S
H23 C11 0.929 . S
H24 C13 0.929 . S
O25 Co0 2.351 . S
O25 C28 1.244 . S
O26 Co0 2.155 . S
O26 C28 1.240 . S
O27 Co0 2.096 . S
O27 C8 1.247 . S
C28 O25 1.244 . S
C28 O26 1.240 . S
H29 C3 0.931 . S
H30 C12 0.931 . S
H31 C16 0.929 . S
H32 C18 0.930 . S
Co33 N37 2.148 . S
Co33 N43 2.128 . S
Co33 N53 2.194 . S
Co33 O58 2.351 . S
Co33 O59 2.155 . S
Co33 O60 2.096 . S
C34 N37 1.301 . S
C34 N38 1.328 . S
C34 H39 0.930 . S
C35 C36 1.333 . S
C35 N37 1.317 . S
C35 H40 0.930 . S
C36 C35 1.333 . S
C36 N38 1.350 . S
C36 H62 0.931 . S
N37 Co33 2.148 . S
N37 C34 1.301 . S
N37 C35 1.317 . S
N38 C34 1.328 . S
N38 C36 1.350 . S
H39 C34 0.930 . S
H40 C35 0.930 . S
C41 O42 1.224 . S
C41 O60 1.247 . S
O42 C41 1.224 . S
N43 Co33 2.128 . S
N43 C44 1.355 . S
N43 C46 1.311 . S
C44 N43 1.355 . S
C44 C45 1.363 . S
C44 H56 0.929 . S
C45 C44 1.363 . S
C45 N47 1.375 . S
C45 H63 0.931 . S
C46 N43 1.311 . S
C46 N47 1.347 . S
C46 H57 0.929 . S
N47 C45 1.375 . S
N47 C46 1.347 . S
C48 C51 1.365 . S
C48 N53 1.328 . S
C48 H54 0.929 . S
C49 C50 1.362 . S
C49 C52 1.378 . S
C49 H64 0.929 . S
C50 C49 1.362 . S
C50 C51 1.366 . S
C51 C48 1.365 . S
C51 C50 1.366 . S
C51 H65 0.930 . S
C52 C49 1.378 . S
C52 N53 1.315 . S
C52 H55 0.930 . S
N53 Co33 2.194 . S
N53 C48 1.328 . S
N53 C52 1.315 . S
H54 C48 0.929 . S
H55 C52 0.930 . S
H56 C44 0.929 . S
H57 C46 0.929 . S
O58 Co33 2.351 . S
O58 C61 1.244 . S
O59 Co33 2.155 . S
O59 C61 1.240 . S
O60 Co33 2.096 . S
O60 C41 1.247 . S
C61 O58 1.244 . S
C61 O59 1.240 . S
H62 C36 0.931 . S
H63 C45 0.931 . S
H64 C49 0.929 . S
H65 C51 0.930 . S
Co66 N70 2.148 . S
Co66 N76 2.128 . S
Co66 N86 2.194 . S
Co66 O91 2.351 . S
Co66 O92 2.155 . S
Co66 O93 2.096 . S
C67 N70 1.301 . S
C67 N71 1.328 . S
C67 H72 0.930 . S
C68 C69 1.333 . S
C68 N70 1.317 . S
C68 H73 0.930 . S
C69 C68 1.333 . S
C69 N71 1.350 . S
C69 H95 0.931 . S
N70 Co66 2.148 . S
N70 C67 1.301 . S
N70 C68 1.317 . S
N71 C67 1.328 . S
N71 C69 1.350 . S
H72 C67 0.930 . S
H73 C68 0.930 . S
C74 O75 1.224 . S
C74 O93 1.247 . S
O75 C74 1.224 . S
N76 Co66 2.128 . S
N76 C77 1.355 . S
N76 C79 1.311 . S
C77 N76 1.355 . S
C77 C78 1.363 . S
C77 H89 0.929 . S
C78 C77 1.363 . S
C78 N80 1.375 . S
C78 H96 0.931 . S
C79 N76 1.311 . S
C79 N80 1.347 . S
C79 H90 0.929 . S
N80 C78 1.375 . S
N80 C79 1.347 . S
C81 C84 1.365 . S
C81 N86 1.328 . S
C81 H87 0.929 . S
C82 C83 1.362 . S
C82 C85 1.378 . S
C82 H97 0.929 . S
C83 C82 1.362 . S
C83 C84 1.366 . S
C84 C81 1.365 . S
C84 C83 1.366 . S
C84 H98 0.930 . S
C85 C82 1.378 . S
C85 N86 1.315 . S
C85 H88 0.930 . S
N86 Co66 2.194 . S
N86 C81 1.328 . S
N86 C85 1.315 . S
H87 C81 0.929 . S
H88 C85 0.930 . S
H89 C77 0.929 . S
H90 C79 0.929 . S
O91 Co66 2.351 . S
O91 C94 1.244 . S
O92 Co66 2.155 . S
O92 C94 1.240 . S
O93 Co66 2.096 . S
O93 C74 1.247 . S
C94 O91 1.244 . S
C94 O92 1.240 . S
H95 C69 0.931 . S
H96 C78 0.931 . S
H97 C82 0.929 . S
H98 C84 0.930 . S
Co99 N103 2.148 . S
Co99 N109 2.128 . S
Co99 N119 2.194 . S
Co99 O124 2.351 . S
Co99 O125 2.155 . S
Co99 O126 2.096 . S
C100 N103 1.301 . S
C100 N104 1.335 . S
C100 H105 0.930 . S
C101 C102 1.333 . S
C101 N103 1.317 . S
C101 H106 0.930 . S
C102 C101 1.333 . S
C102 N104 1.353 . S
C102 H128 0.931 1_554 S
N103 Co99 2.148 . S
N103 C100 1.301 . S
N103 C101 1.317 . S
N104 C100 1.335 . S
N104 C102 1.353 . S
H105 C100 0.930 . S
H106 C101 0.930 . S
C107 O108 1.224 . S
C107 O126 1.247 . S
O108 C107 1.224 . S
N109 Co99 2.128 . S
N109 C110 1.355 . S
N109 C112 1.311 . S
C110 N109 1.355 . S
C110 C111 1.363 . S
C110 H122 0.929 . S
C111 C110 1.363 . S
C111 N113 1.375 . S
C111 H129 0.931 . S
C112 N109 1.311 . S
C112 N113 1.347 . S
C112 H123 0.929 . S
N113 C111 1.375 . S
N113 C112 1.347 . S
C114 C117 1.365 . S
C114 N119 1.328 . S
C114 H120 0.929 . S
C115 C116 1.362 . S
C115 C118 1.378 . S
C115 H130 0.929 . S
C116 C115 1.362 . S
C116 C117 1.366 . S
C117 C114 1.365 . S
C117 C116 1.366 . S
C117 H131 0.930 . S
C118 C115 1.378 . S
C118 N119 1.315 . S
C118 H121 0.930 . S
N119 Co99 2.194 . S
N119 C114 1.328 . S
N119 C118 1.315 . S
H120 C114 0.929 . S
H121 C118 0.930 . S
H122 C110 0.929 . S
H123 C112 0.929 . S
O124 Co99 2.351 . S
O124 C127 1.244 . S
O125 Co99 2.155 . S
O125 C127 1.240 . S
O126 Co99 2.096 . S
O126 C107 1.247 . S
C127 O124 1.244 . S
C127 O125 1.240 . S
H128 C102 0.931 1_556 S
H129 C111 0.931 . S
H130 C115 0.929 . S
H131 C117 0.930 . S
Co132 N136 2.148 . S
Co132 N142 2.128 . S
Co132 N152 2.194 . S
Co132 O157 2.351 . S
Co132 O158 2.155 . S
Co132 O159 2.096 . S
C133 N136 1.301 . S
C133 N137 1.335 . S
C133 H138 0.930 . S
C134 C135 1.333 . S
C134 N136 1.317 . S
C134 H139 0.930 . S
C135 C134 1.333 . S
C135 N137 1.353 . S
C135 H161 0.931 1_556 S
N136 Co132 2.148 . S
N136 C133 1.301 . S
N136 C134 1.317 . S
N137 C133 1.335 . S
N137 C135 1.353 . S
H138 C133 0.930 . S
H139 C134 0.930 . S
C140 O141 1.224 . S
C140 O159 1.247 . S
O141 C140 1.224 . S
N142 Co132 2.128 . S
N142 C143 1.355 . S
N142 C145 1.311 . S
C143 N142 1.355 . S
C143 C144 1.363 . S
C143 H155 0.929 . S
C144 C143 1.363 . S
C144 N146 1.375 . S
C144 H162 0.931 . S
C145 N142 1.311 . S
C145 N146 1.347 . S
C145 H156 0.929 . S
N146 C144 1.375 . S
N146 C145 1.347 . S
C147 C150 1.365 . S
C147 N152 1.328 . S
C147 H153 0.929 . S
C148 C149 1.362 . S
C148 C151 1.378 . S
C148 H163 0.929 . S
C149 C148 1.362 . S
C149 C150 1.366 . S
C150 C147 1.365 . S
C150 C149 1.366 . S
C150 H164 0.930 . S
C151 C148 1.378 . S
C151 N152 1.315 . S
C151 H154 0.930 . S
N152 Co132 2.194 . S
N152 C147 1.328 . S
N152 C151 1.315 . S
H153 C147 0.929 . S
H154 C151 0.930 . S
H155 C143 0.929 . S
H156 C145 0.929 . S
O157 Co132 2.351 . S
O157 C160 1.244 . S
O158 Co132 2.155 . S
O158 C160 1.240 . S
O159 Co132 2.096 . S
O159 C140 1.247 . S
C160 O157 1.244 . S
C160 O158 1.240 . S
H161 C135 0.931 1_554 S
H162 C144 0.931 . S
H163 C148 0.929 . S
H164 C150 0.930 . S
Co165 N169 2.148 . S
Co165 N175 2.128 . S
Co165 N185 2.194 . S
Co165 O190 2.351 . S
Co165 O191 2.155 . S
Co165 O192 2.096 . S
C166 N169 1.301 . S
C166 N170 1.328 . S
C166 H171 0.930 . S
C167 C168 1.333 . S
C167 N169 1.317 . S
C167 H172 0.930 . S
C168 C167 1.333 . S
C168 N170 1.350 . S
C168 H194 0.931 . S
N169 Co165 2.148 . S
N169 C166 1.301 . S
N169 C167 1.317 . S
N170 C166 1.328 . S
N170 C168 1.350 . S
H171 C166 0.930 . S
H172 C167 0.930 . S
C173 O174 1.224 . S
C173 O192 1.247 . S
O174 C173 1.224 . S
N175 Co165 2.128 . S
N175 C176 1.355 . S
N175 C178 1.311 . S
C176 N175 1.355 . S
C176 C177 1.363 . S
C176 H188 0.929 . S
C177 C176 1.363 . S
C177 N179 1.375 . S
C177 H195 0.931 . S
C178 N175 1.311 . S
C178 N179 1.347 . S
C178 H189 0.929 . S
N179 C177 1.375 . S
N179 C178 1.347 . S
C180 C183 1.365 . S
C180 N185 1.328 . S
C180 H186 0.929 . S
C181 C182 1.362 . S
C181 C184 1.378 . S
C181 H196 0.929 . S
C182 C181 1.362 . S
C182 C183 1.366 . S
C183 C180 1.365 . S
C183 C182 1.366 . S
C183 H197 0.930 . S
C184 C181 1.378 . S
C184 N185 1.315 . S
C184 H187 0.930 . S
N185 Co165 2.194 . S
N185 C180 1.328 . S
N185 C184 1.315 . S
H186 C180 0.929 . S
H187 C184 0.930 . S
H188 C176 0.929 . S
H189 C178 0.929 . S
O190 Co165 2.351 . S
O190 C193 1.244 . S
O191 Co165 2.155 . S
O191 C193 1.240 . S
O192 Co165 2.096 . S
O192 C173 1.247 . S
C193 O190 1.244 . S
C193 O191 1.240 . S
H194 C168 0.931 . S
H195 C177 0.931 . S
H196 C181 0.929 . S
H197 C183 0.930 . S
Co198 N202 2.148 . S
Co198 N208 2.128 . S
Co198 N218 2.194 . S
Co198 O223 2.351 . S
Co198 O224 2.155 . S
Co198 O225 2.096 . S
C199 N202 1.301 . S
C199 N203 1.328 . S
C199 H204 0.930 . S
C200 C201 1.333 . S
C200 N202 1.317 . S
C200 H205 0.930 . S
C201 C200 1.333 . S
C201 N203 1.350 . S
C201 H227 0.931 . S
N202 Co198 2.148 . S
N202 C199 1.301 . S
N202 C200 1.317 . S
N203 C199 1.328 . S
N203 C201 1.350 . S
H204 C199 0.930 . S
H205 C200 0.930 . S
C206 O207 1.224 . S
C206 O225 1.247 . S
O207 C206 1.224 . S
N208 Co198 2.128 . S
N208 C209 1.355 . S
N208 C211 1.311 . S
C209 N208 1.355 . S
C209 C210 1.363 . S
C209 H221 0.929 . S
C210 C209 1.363 . S
C210 N212 1.375 . S
C210 H228 0.931 . S
C211 N208 1.311 . S
C211 N212 1.347 . S
C211 H222 0.929 . S
N212 C210 1.375 . S
N212 C211 1.347 . S
C213 C216 1.365 . S
C213 N218 1.328 . S
C213 H219 0.929 . S
C214 C215 1.362 . S
C214 C217 1.378 . S
C214 H229 0.929 . S
C215 C214 1.362 . S
C215 C216 1.366 . S
C216 C213 1.365 . S
C216 C215 1.366 . S
C216 H230 0.930 . S
C217 C214 1.378 . S
C217 N218 1.315 . S
C217 H220 0.930 . S
N218 Co198 2.194 . S
N218 C213 1.328 . S
N218 C217 1.315 . S
H219 C213 0.929 . S
H220 C217 0.930 . S
H221 C209 0.929 . S
H222 C211 0.929 . S
O223 Co198 2.351 . S
O223 C226 1.244 . S
O224 Co198 2.155 . S
O224 C226 1.240 . S
O225 Co198 2.096 . S
O225 C206 1.247 . S
C226 O223 1.244 . S
C226 O224 1.240 . S
H227 C201 0.931 . S
H228 C210 0.931 . S
H229 C214 0.929 . S
H230 C216 0.930 . S
Co231 N235 2.148 . S
Co231 N241 2.128 . S
Co231 N251 2.194 . S
Co231 O256 2.351 . S
Co231 O257 2.155 . S
Co231 O258 2.096 . S
C232 N235 1.301 . S
C232 N236 1.328 . S
C232 H237 0.930 . S
C233 C234 1.333 . S
C233 N235 1.317 . S
C233 H238 0.930 . S
C234 C233 1.333 . S
C234 N236 1.350 . S
C234 H260 0.931 . S
N235 Co231 2.148 . S
N235 C232 1.301 . S
N235 C233 1.317 . S
N236 C232 1.328 . S
N236 C234 1.350 . S
H237 C232 0.930 . S
H238 C233 0.930 . S
C239 O240 1.224 . S
C239 O258 1.247 . S
O240 C239 1.224 . S
N241 Co231 2.128 . S
N241 C242 1.355 . S
N241 C244 1.311 . S
C242 N241 1.355 . S
C242 C243 1.363 . S
C242 H254 0.929 . S
C243 C242 1.363 . S
C243 N245 1.375 . S
C243 H261 0.931 . S
C244 N241 1.311 . S
C244 N245 1.347 . S
C244 H255 0.929 . S
N245 C243 1.375 . S
N245 C244 1.347 . S
C246 C249 1.365 . S
C246 N251 1.328 . S
C246 H252 0.929 . S
C247 C248 1.362 . S
C247 C250 1.378 . S
C247 H262 0.929 . S
C248 C247 1.362 . S
C248 C249 1.366 . S
C249 C246 1.365 . S
C249 C248 1.366 . S
C249 H263 0.930 . S
C250 C247 1.378 . S
C250 N251 1.315 . S
C250 H253 0.930 . S
N251 Co231 2.194 . S
N251 C246 1.328 . S
N251 C250 1.315 . S
H252 C246 0.929 . S
H253 C250 0.930 . S
H254 C242 0.929 . S
H255 C244 0.929 . S
O256 Co231 2.351 . S
O256 C259 1.244 . S
O257 Co231 2.155 . S
O257 C259 1.240 . S
O258 Co231 2.096 . S
O258 C239 1.247 . S
C259 O256 1.244 . S
C259 O257 1.240 . S
H260 C234 0.931 . S
H261 C243 0.931 . S
H262 C247 0.929 . S
H263 C249 0.930 . S
Co264 N268 2.148 . S
Co264 N274 2.128 . S
Co264 N284 2.194 . S
Co264 O289 2.351 . S
Co264 O290 2.155 . S
Co264 O291 2.096 . S
C265 N268 1.301 . S
C265 N269 1.328 . S
C265 H270 0.930 . S
C266 C267 1.333 . S
C266 N268 1.317 . S
C266 H271 0.930 . S
C267 C266 1.333 . S
C267 N269 1.350 . S
C267 H293 0.931 . S
N268 Co264 2.148 . S
N268 C265 1.301 . S
N268 C266 1.317 . S
N269 C265 1.328 . S
N269 C267 1.350 . S
H270 C265 0.930 . S
H271 C266 0.930 . S
C272 O273 1.224 . S
C272 O291 1.247 . S
O273 C272 1.224 . S
N274 Co264 2.128 . S
N274 C275 1.355 . S
N274 C277 1.311 . S
C275 N274 1.355 . S
C275 C276 1.363 . S
C275 H287 0.929 . S
C276 C275 1.363 . S
C276 N278 1.375 . S
C276 H294 0.931 . S
C277 N274 1.311 . S
C277 N278 1.347 . S
C277 H288 0.929 . S
N278 C276 1.375 . S
N278 C277 1.347 . S
C279 C282 1.365 . S
C279 N284 1.328 . S
C279 H285 0.929 . S
C280 C281 1.362 . S
C280 C283 1.378 . S
C280 H295 0.929 . S
C281 C280 1.362 . S
C281 C282 1.366 . S
C282 C279 1.365 . S
C282 C281 1.366 . S
C282 H296 0.930 . S
C283 C280 1.378 . S
C283 N284 1.315 . S
C283 H286 0.930 . S
N284 Co264 2.194 . S
N284 C279 1.328 . S
N284 C283 1.315 . S
H285 C279 0.929 . S
H286 C283 0.930 . S
H287 C275 0.929 . S
H288 C277 0.929 . S
O289 Co264 2.351 . S
O289 C292 1.244 . S
O290 Co264 2.155 . S
O290 C292 1.240 . S
O291 Co264 2.096 . S
O291 C272 1.247 . S
C292 O289 1.244 . S
C292 O290 1.240 . S
H293 C267 0.931 . S
H294 C276 0.931 . S
H295 C280 0.929 . S
H296 C282 0.930 . S
Co297 N301 2.148 . S
Co297 N307 2.128 . S
Co297 N317 2.194 . S
Co297 O322 2.351 . S
Co297 O323 2.155 . S
Co297 O324 2.096 . S
C298 N301 1.301 . S
C298 N302 1.335 . S
C298 H303 0.930 . S
C299 C300 1.333 . S
C299 N301 1.317 . S
C299 H304 0.930 . S
C300 C299 1.333 . S
C300 N302 1.353 . S
C300 H326 0.931 1_554 S
N301 Co297 2.148 . S
N301 C298 1.301 . S
N301 C299 1.317 . S
N302 C298 1.335 . S
N302 C300 1.353 . S
H303 C298 0.930 . S
H304 C299 0.930 . S
C305 O306 1.224 . S
C305 O324 1.247 . S
O306 C305 1.224 . S
N307 Co297 2.128 . S
N307 C308 1.355 . S
N307 C310 1.311 . S
C308 N307 1.355 . S
C308 C309 1.363 . S
C308 H320 0.929 . S
C309 C308 1.363 . S
C309 N311 1.375 . S
C309 H327 0.931 . S
C310 N307 1.311 . S
C310 N311 1.347 . S
C310 H321 0.929 . S
N311 C309 1.375 . S
N311 C310 1.347 . S
C312 C315 1.365 . S
C312 N317 1.328 . S
C312 H318 0.929 . S
C313 C314 1.362 . S
C313 C316 1.378 . S
C313 H328 0.929 . S
C314 C313 1.362 . S
C314 C315 1.366 . S
C315 C312 1.365 . S
C315 C314 1.366 . S
C315 H329 0.930 . S
C316 C313 1.378 . S
C316 N317 1.315 . S
C316 H319 0.930 . S
N317 Co297 2.194 . S
N317 C312 1.328 . S
N317 C316 1.315 . S
H318 C312 0.929 . S
H319 C316 0.930 . S
H320 C308 0.929 . S
H321 C310 0.929 . S
O322 Co297 2.351 . S
O322 C325 1.244 . S
O323 Co297 2.155 . S
O323 C325 1.240 . S
O324 Co297 2.096 . S
O324 C305 1.247 . S
C325 O322 1.244 . S
C325 O323 1.240 . S
H326 C300 0.931 1_556 S
H327 C309 0.931 . S
H328 C313 0.929 . S
H329 C315 0.930 . S
Co330 N334 2.148 . S
Co330 N340 2.128 . S
Co330 N350 2.194 . S
Co330 O355 2.351 . S
Co330 O356 2.155 . S
Co330 O357 2.096 . S
C331 N334 1.301 . S
C331 N335 1.328 . S
C331 H336 0.930 . S
C332 C333 1.333 . S
C332 N334 1.317 . S
C332 H337 0.930 . S
C333 C332 1.333 . S
C333 N335 1.350 . S
C333 H359 0.931 . S
N334 Co330 2.148 . S
N334 C331 1.301 . S
N334 C332 1.317 . S
N335 C331 1.328 . S
N335 C333 1.350 . S
H336 C331 0.930 . S
H337 C332 0.930 . S
C338 O339 1.224 . S
C338 O357 1.247 . S
O339 C338 1.224 . S
N340 Co330 2.128 . S
N340 C341 1.355 . S
N340 C343 1.311 . S
C341 N340 1.355 . S
C341 C342 1.363 . S
C341 H353 0.929 . S
C342 C341 1.363 . S
C342 N344 1.375 . S
C342 H360 0.931 . S
C343 N340 1.311 . S
C343 N344 1.347 . S
C343 H354 0.929 . S
N344 C342 1.375 . S
N344 C343 1.347 . S
C345 C348 1.365 . S
C345 N350 1.328 . S
C345 H351 0.929 . S
C346 C347 1.362 . S
C346 C349 1.378 . S
C346 H361 0.929 . S
C347 C346 1.362 . S
C347 C348 1.366 . S
C348 C345 1.365 . S
C348 C347 1.366 . S
C348 H362 0.930 . S
C349 C346 1.378 . S
C349 N350 1.315 . S
C349 H352 0.930 . S
N350 Co330 2.194 . S
N350 C345 1.328 . S
N350 C349 1.315 . S
H351 C345 0.929 . S
H352 C349 0.930 . S
H353 C341 0.929 . S
H354 C343 0.929 . S
O355 Co330 2.351 . S
O355 C358 1.244 . S
O356 Co330 2.155 . S
O356 C358 1.240 . S
O357 Co330 2.096 . S
O357 C338 1.247 . S
C358 O355 1.244 . S
C358 O356 1.240 . S
H359 C333 0.931 . S
H360 C342 0.931 . S
H361 C346 0.929 . S
H362 C348 0.930 . S
Co363 N367 2.148 . S
Co363 N373 2.128 . S
Co363 N383 2.194 . S
Co363 O388 2.351 . S
Co363 O389 2.155 . S
Co363 O390 2.096 . S
C364 N367 1.301 . S
C364 N368 1.328 . S
C364 H369 0.930 . S
C365 C366 1.333 . S
C365 N367 1.317 . S
C365 H370 0.930 . S
C366 C365 1.333 . S
C366 N368 1.350 . S
C366 H392 0.931 . S
N367 Co363 2.148 . S
N367 C364 1.301 . S
N367 C365 1.317 . S
N368 C364 1.328 . S
N368 C366 1.350 . S
H369 C364 0.930 . S
H370 C365 0.930 . S
C371 O372 1.224 . S
C371 O390 1.247 . S
O372 C371 1.224 . S
N373 Co363 2.128 . S
N373 C374 1.355 . S
N373 C376 1.311 . S
C374 N373 1.355 . S
C374 C375 1.363 . S
C374 H386 0.929 . S
C375 C374 1.363 . S
C375 N377 1.375 . S
C375 H393 0.931 . S
C376 N373 1.311 . S
C376 N377 1.347 . S
C376 H387 0.929 . S
N377 C375 1.375 . S
N377 C376 1.347 . S
C378 C381 1.365 . S
C378 N383 1.328 . S
C378 H384 0.929 . S
C379 C380 1.362 . S
C379 C382 1.378 . S
C379 H394 0.929 . S
C380 C379 1.362 . S
C380 C381 1.366 . S
C381 C378 1.365 . S
C381 C380 1.366 . S
C381 H395 0.930 . S
C382 C379 1.378 . S
C382 N383 1.315 . S
C382 H385 0.930 . S
N383 Co363 2.194 . S
N383 C378 1.328 . S
N383 C382 1.315 . S
H384 C378 0.929 . S
H385 C382 0.930 . S
H386 C374 0.929 . S
H387 C376 0.929 . S
O388 Co363 2.351 . S
O388 C391 1.244 . S
O389 Co363 2.155 . S
O389 C391 1.240 . S
O390 Co363 2.096 . S
O390 C371 1.247 . S
C391 O388 1.244 . S
C391 O389 1.240 . S
H392 C366 0.931 . S
H393 C375 0.931 . S
H394 C379 0.929 . S
H395 C381 0.930 . S
Co396 N400 2.148 . S
Co396 N406 2.128 . S
Co396 N416 2.194 . S
Co396 O421 2.351 . S
Co396 O422 2.155 . S
Co396 O423 2.096 . S
C397 N400 1.301 . S
C397 N401 1.328 . S
C397 H402 0.930 . S
C398 C399 1.333 . S
C398 N400 1.317 . S
C398 H403 0.930 . S
C399 C398 1.333 . S
C399 N401 1.350 . S
C399 H425 0.931 . S
N400 Co396 2.148 . S
N400 C397 1.301 . S
N400 C398 1.317 . S
N401 C397 1.328 . S
N401 C399 1.350 . S
H402 C397 0.930 . S
H403 C398 0.930 . S
C404 O405 1.224 . S
C404 O423 1.247 . S
O405 C404 1.224 . S
N406 Co396 2.128 . S
N406 C407 1.355 . S
N406 C409 1.311 . S
C407 N406 1.355 . S
C407 C408 1.363 . S
C407 H419 0.929 . S
C408 C407 1.363 . S
C408 N410 1.375 . S
C408 H426 0.931 . S
C409 N406 1.311 . S
C409 N410 1.347 . S
C409 H420 0.929 . S
N410 C408 1.375 . S
N410 C409 1.347 . S
C411 C414 1.365 . S
C411 N416 1.328 . S
C411 H417 0.929 . S
C412 C413 1.362 . S
C412 C415 1.378 . S
C412 H427 0.929 . S
C413 C412 1.362 . S
C413 C414 1.366 . S
C414 C411 1.365 . S
C414 C413 1.366 . S
C414 H428 0.930 . S
C415 C412 1.378 . S
C415 N416 1.315 . S
C415 H418 0.930 . S
N416 Co396 2.194 . S
N416 C411 1.328 . S
N416 C415 1.315 . S
H417 C411 0.929 . S
H418 C415 0.930 . S
H419 C407 0.929 . S
H420 C409 0.929 . S
O421 Co396 2.351 . S
O421 C424 1.244 . S
O422 Co396 2.155 . S
O422 C424 1.240 . S
O423 Co396 2.096 . S
O423 C404 1.247 . S
C424 O421 1.244 . S
C424 O422 1.240 . S
H425 C399 0.931 . S
H426 C408 0.931 . S
H427 C412 0.929 . S
H428 C414 0.930 . S
Co429 N433 2.148 . S
Co429 N439 2.128 . S
Co429 N449 2.194 . S
Co429 O454 2.351 . S
Co429 O455 2.155 . S
Co429 O456 2.096 . S
C430 N433 1.301 . S
C430 N434 1.328 . S
C430 H435 0.930 . S
C431 C432 1.333 . S
C431 N433 1.317 . S
C431 H436 0.930 . S
C432 C431 1.333 . S
C432 N434 1.350 . S
C432 H458 0.931 . S
N433 Co429 2.148 . S
N433 C430 1.301 . S
N433 C431 1.317 . S
N434 C430 1.328 . S
N434 C432 1.350 . S
H435 C430 0.930 . S
H436 C431 0.930 . S
C437 O438 1.224 . S
C437 O456 1.247 . S
O438 C437 1.224 . S
N439 Co429 2.128 . S
N439 C440 1.355 . S
N439 C442 1.311 . S
C440 N439 1.355 . S
C440 C441 1.363 . S
C440 H452 0.929 . S
C441 C440 1.363 . S
C441 N443 1.375 . S
C441 H459 0.931 . S
C442 N439 1.311 . S
C442 N443 1.347 . S
C442 H453 0.929 . S
N443 C441 1.375 . S
N443 C442 1.347 . S
C444 C447 1.365 . S
C444 N449 1.328 . S
C444 H450 0.929 . S
C445 C446 1.362 . S
C445 C448 1.378 . S
C445 H460 0.929 . S
C446 C445 1.362 . S
C446 C447 1.366 . S
C447 C444 1.365 . S
C447 C446 1.366 . S
C447 H461 0.930 . S
C448 C445 1.378 . S
C448 N449 1.315 . S
C448 H451 0.930 . S
N449 Co429 2.194 . S
N449 C444 1.328 . S
N449 C448 1.315 . S
H450 C444 0.929 . S
H451 C448 0.930 . S
H452 C440 0.929 . S
H453 C442 0.929 . S
O454 Co429 2.351 . S
O454 C457 1.244 . S
O455 Co429 2.155 . S
O455 C457 1.240 . S
O456 Co429 2.096 . S
O456 C437 1.247 . S
C457 O454 1.244 . S
C457 O455 1.240 . S
H458 C432 0.931 . S
H459 C441 0.931 . S
H460 C445 0.929 . S
H461 C447 0.930 . S
Co462 N466 2.148 . S
Co462 N472 2.128 . S
Co462 N482 2.194 . S
Co462 O487 2.351 . S
Co462 O488 2.155 . S
Co462 O489 2.096 . S
C463 N466 1.301 . S
C463 N467 1.335 . S
C463 H468 0.930 . S
C464 C465 1.333 . S
C464 N466 1.317 . S
C464 H469 0.930 . S
C465 C464 1.333 . S
C465 N467 1.353 . S
C465 H491 0.931 1_556 S
N466 Co462 2.148 . S
N466 C463 1.301 . S
N466 C464 1.317 . S
N467 C463 1.335 . S
N467 C465 1.353 . S
H468 C463 0.930 . S
H469 C464 0.930 . S
C470 O471 1.224 . S
C470 O489 1.247 . S
O471 C470 1.224 . S
N472 Co462 2.128 . S
N472 C473 1.355 . S
N472 C475 1.311 . S
C473 N472 1.355 . S
C473 C474 1.363 . S
C473 H485 0.929 . S
C474 C473 1.363 . S
C474 N476 1.375 . S
C474 H492 0.931 . S
C475 N472 1.311 . S
C475 N476 1.347 . S
C475 H486 0.929 . S
N476 C474 1.375 . S
N476 C475 1.347 . S
C477 C480 1.365 . S
C477 N482 1.328 . S
C477 H483 0.929 . S
C478 C479 1.362 . S
C478 C481 1.378 . S
C478 H493 0.929 . S
C479 C478 1.362 . S
C479 C480 1.366 . S
C480 C477 1.365 . S
C480 C479 1.366 . S
C480 H494 0.930 . S
C481 C478 1.378 . S
C481 N482 1.315 . S
C481 H484 0.930 . S
N482 Co462 2.194 . S
N482 C477 1.328 . S
N482 C481 1.315 . S
H483 C477 0.929 . S
H484 C481 0.930 . S
H485 C473 0.929 . S
H486 C475 0.929 . S
O487 Co462 2.351 . S
O487 C490 1.244 . S
O488 Co462 2.155 . S
O488 C490 1.240 . S
O489 Co462 2.096 . S
O489 C470 1.247 . S
C490 O487 1.244 . S
C490 O488 1.240 . S
H491 C465 0.931 1_554 S
H492 C474 0.931 . S
H493 C478 0.929 . S
H494 C480 0.930 . S
Co495 N499 2.148 . S
Co495 N505 2.128 . S
Co495 N515 2.194 . S
Co495 O520 2.351 . S
Co495 O521 2.155 . S
Co495 O522 2.096 . S
C496 N499 1.301 . S
C496 N500 1.328 . S
C496 H501 0.930 . S
C497 C498 1.333 . S
C497 N499 1.317 . S
C497 H502 0.930 . S
C498 C497 1.333 . S
C498 N500 1.350 . S
C498 H524 0.931 . S
N499 Co495 2.148 . S
N499 C496 1.301 . S
N499 C497 1.317 . S
N500 C496 1.328 . S
N500 C498 1.350 . S
H501 C496 0.930 . S
H502 C497 0.930 . S
C503 O504 1.224 . S
C503 O522 1.247 . S
O504 C503 1.224 . S
N505 Co495 2.128 . S
N505 C506 1.355 . S
N505 C508 1.311 . S
C506 N505 1.355 . S
C506 C507 1.363 . S
C506 H518 0.929 . S
C507 C506 1.363 . S
C507 N509 1.375 . S
C507 H525 0.931 . S
C508 N505 1.311 . S
C508 N509 1.347 . S
C508 H519 0.929 . S
N509 C507 1.375 . S
N509 C508 1.347 . S
C510 C513 1.365 . S
C510 N515 1.328 . S
C510 H516 0.929 . S
C511 C512 1.362 . S
C511 C514 1.378 . S
C511 H526 0.929 . S
C512 C511 1.362 . S
C512 C513 1.366 . S
C513 C510 1.365 . S
C513 C512 1.366 . S
C513 H527 0.930 . S
C514 C511 1.378 . S
C514 N515 1.315 . S
C514 H517 0.930 . S
N515 Co495 2.194 . S
N515 C510 1.328 . S
N515 C514 1.315 . S
H516 C510 0.929 . S
H517 C514 0.930 . S
H518 C506 0.929 . S
H519 C508 0.929 . S
O520 Co495 2.351 . S
O520 C523 1.244 . S
O521 Co495 2.155 . S
O521 C523 1.240 . S
O522 Co495 2.096 . S
O522 C503 1.247 . S
C523 O520 1.244 . S
C523 O521 1.240 . S
H524 C498 0.931 . S
H525 C507 0.931 . S
H526 C511 0.929 . S
H527 C513 0.930 . S
H528 C534 0.930 . S
H529 C537 0.930 . S
H530 C538 0.930 . S
H531 C539 0.930 . S
H532 C542 0.930 . S
H533 C543 0.930 . S
C534 H528 0.930 . S
C534 C535 1.355 . S
C534 C536 1.415 . S
C535 C534 1.355 . S
C535 C537 1.419 . S
C536 C534 1.415 . S
C536 C541 1.425 . S
C536 C543 1.409 . S
C537 H529 0.930 . S
C537 C535 1.419 . S
C537 C538 1.362 . S
C538 H530 0.930 . S
C538 C537 1.362 . S
C538 C541 1.409 . S
C539 H531 0.930 . S
C539 C540 1.355 . S
C539 C541 1.415 . S
C540 C539 1.355 . S
C540 C542 1.419 . S
C541 C536 1.425 . S
C541 C538 1.409 . S
C541 C539 1.415 . S
C542 H532 0.930 . S
C542 C540 1.419 . S
C542 C543 1.362 . S
C543 H533 0.930 . S
C543 C536 1.409 . S
C543 C542 1.362 . S
H544 C550 0.930 . S
H545 C553 0.930 . S
H546 C554 0.930 . S
H547 C555 0.930 . S
H548 C558 0.930 . S
H549 C559 0.930 . S
C550 H544 0.930 . S
C550 C551 1.355 . S
C550 C552 1.415 . S
C551 C550 1.355 . S
C551 C553 1.419 . S
C552 C550 1.415 . S
C552 C557 1.425 . S
C552 C559 1.409 . S
C553 H545 0.930 . S
C553 C551 1.419 . S
C553 C554 1.362 . S
C554 H546 0.930 . S
C554 C553 1.362 . S
C554 C557 1.409 . S
C555 H547 0.930 . S
C555 C556 1.355 . S
C555 C557 1.415 . S
C556 C555 1.355 . S
C556 C558 1.419 . S
C557 C552 1.425 . S
C557 C554 1.409 . S
C557 C555 1.415 . S
C558 H548 0.930 . S
C558 C556 1.419 . S
C558 C559 1.362 . S
C559 H549 0.930 . S
C559 C552 1.409 . S
C559 C558 1.362 . S
H560 C566 0.930 . S
H561 C569 0.930 . S
H562 C570 0.930 1_556 S
H563 C571 0.930 . S
H564 C574 0.930 . S
H565 C575 0.930 1_554 S
C566 H560 0.930 . S
C566 C567 1.355 . S
C566 C568 1.415 . S
C567 C566 1.355 . S
C567 C569 1.419 . S
C568 C566 1.415 . S
C568 C573 1.425 1_554 S
C568 C575 1.409 1_554 S
C569 H561 0.930 . S
C569 C567 1.419 . S
C569 C570 1.362 . S
C570 H562 0.930 1_554 S
C570 C569 1.362 . S
C570 C573 1.409 1_554 S
C571 H563 0.930 . S
C571 C572 1.355 . S
C571 C573 1.415 . S
C572 C571 1.355 . S
C572 C574 1.419 . S
C573 C568 1.425 1_556 S
C573 C570 1.409 1_556 S
C573 C571 1.415 . S
C574 H564 0.930 . S
C574 C572 1.419 . S
C574 C575 1.362 . S
C575 H565 0.930 1_556 S
C575 C568 1.409 1_556 S
C575 C574 1.362 . S
H576 C582 0.930 . S
H577 C585 0.930 . S
H578 C586 0.930 . S
H579 C587 0.930 . S
H580 C590 0.930 . S
H581 C591 0.930 . S
C582 H576 0.930 . S
C582 C583 1.355 . S
C582 C584 1.415 . S
C583 C582 1.355 . S
C583 C585 1.419 . S
C584 C582 1.415 . S
C584 C589 1.425 . S
C584 C591 1.409 . S
C585 H577 0.930 . S
C585 C583 1.419 . S
C585 C586 1.362 . S
C586 H578 0.930 . S
C586 C585 1.362 . S
C586 C589 1.409 . S
C587 H579 0.930 . S
C587 C588 1.355 . S
C587 C589 1.415 . S
C588 C587 1.355 . S
C588 C590 1.419 . S
C589 C584 1.425 . S
C589 C586 1.409 . S
C589 C587 1.415 . S
C590 H580 0.930 . S
C590 C588 1.419 . S
C590 C591 1.362 . S
C591 H581 0.930 . S
C591 C584 1.409 . S
C591 C590 1.362 . S
H592 C598 0.930 . S
H593 C601 0.930 . S
H594 C602 0.930 . S
H595 C603 0.930 . S
H596 C606 0.930 . S
H597 C607 0.930 . S
C598 H592 0.930 . S
C598 C599 1.355 . S
C598 C600 1.415 . S
C599 C598 1.355 . S
C599 C601 1.419 . S
C600 C598 1.415 . S
C600 C605 1.425 . S
C600 C607 1.409 . S
C601 H593 0.930 . S
C601 C599 1.419 . S
C601 C602 1.362 . S
C602 H594 0.930 . S
C602 C601 1.362 . S
C602 C605 1.409 . S
C603 H595 0.930 . S
C603 C604 1.355 . S
C603 C605 1.415 . S
C604 C603 1.355 . S
C604 C606 1.419 . S
C605 C600 1.425 . S
C605 C602 1.409 . S
C605 C603 1.415 . S
C606 H596 0.930 . S
C606 C604 1.419 . S
C606 C607 1.362 . S
C607 H597 0.930 . S
C607 C600 1.409 . S
C607 C606 1.362 . S
H608 C614 0.930 . S
H609 C617 0.930 . S
H610 C618 0.930 . S
H611 C619 0.930 . S
H612 C622 0.930 . S
H613 C623 0.930 . S
C614 H608 0.930 . S
C614 C615 1.355 . S
C614 C616 1.415 . S
C615 C614 1.355 . S
C615 C617 1.419 . S
C616 C614 1.415 . S
C616 C621 1.425 1_556 S
C616 C623 1.409 1_556 S
C617 H609 0.930 . S
C617 C615 1.419 . S
C617 C618 1.362 . S
C618 H610 0.930 . S
C618 C617 1.362 . S
C618 C621 1.409 1_556 S
C619 H611 0.930 . S
C619 C620 1.355 . S
C619 C621 1.415 . S
C620 C619 1.355 . S
C620 C622 1.419 . S
C621 C616 1.425 1_554 S
C621 C618 1.409 1_554 S
C621 C619 1.415 . S
C622 H612 0.930 . S
C622 C620 1.419 . S
C622 C623 1.362 . S
C623 H613 0.930 . S
C623 C616 1.409 1_554 S
C623 C622 1.362 . S
H624 C630 0.930 . S
H625 C633 0.930 . S
H626 C634 0.930 . S
H627 C635 0.930 . S
H628 C638 0.930 . S
H629 C639 0.930 . S
C630 H624 0.930 . S
C630 C631 1.355 . S
C630 C632 1.415 . S
C631 C630 1.355 . S
C631 C633 1.419 . S
C632 C630 1.415 . S
C632 C637 1.425 . S
C632 C639 1.409 . S
C633 H625 0.930 . S
C633 C631 1.419 . S
C633 C634 1.362 . S
C634 H626 0.930 . S
C634 C633 1.362 . S
C634 C637 1.409 . S
C635 H627 0.930 . S
C635 C636 1.355 . S
C635 C637 1.415 . S
C636 C635 1.355 . S
C636 C638 1.419 . S
C637 C632 1.425 . S
C637 C634 1.409 . S
C637 C635 1.415 . S
C638 H628 0.930 . S
C638 C636 1.419 . S
C638 C639 1.362 . S
C639 H629 0.930 . S
C639 C632 1.409 . S
C639 C638 1.362 . S
H640 C646 0.930 . S
H641 C649 0.930 . S
H642 C650 0.930 . S
H643 C651 0.930 . S
H644 C654 0.930 . S
H645 C655 0.930 . S
C646 H640 0.930 . S
C646 C647 1.355 . S
C646 C648 1.415 . S
C647 C646 1.355 . S
C647 C649 1.419 . S
C648 C646 1.415 . S
C648 C653 1.425 . S
C648 C655 1.409 . S
C649 H641 0.930 . S
C649 C647 1.419 . S
C649 C650 1.362 . S
C650 H642 0.930 . S
C650 C649 1.362 . S
C650 C653 1.409 . S
C651 H643 0.930 . S
C651 C652 1.355 . S
C651 C653 1.415 . S
C652 C651 1.355 . S
C652 C654 1.419 . S
C653 C648 1.425 . S
C653 C650 1.409 . S
C653 C651 1.415 . S
C654 H644 0.930 . S
C654 C652 1.419 . S
C654 C655 1.362 . S
C655 H645 0.930 . S
C655 C648 1.409 . S
C655 C654 1.362 . S
H656 C662 0.930 . S
H657 C665 0.930 . S
H658 C666 0.930 . S
H659 C667 0.930 . S
H660 C670 0.930 . S
H661 C671 0.930 . S
C662 H656 0.930 . S
C662 C663 1.355 . S
C662 C664 1.415 . S
C663 C662 1.355 . S
C663 C665 1.419 . S
C664 C662 1.415 . S
C664 C669 1.425 . S
C664 C671 1.409 . S
C665 H657 0.930 . S
C665 C663 1.419 . S
C665 C666 1.362 . S
C666 H658 0.930 . S
C666 C665 1.362 . S
C666 C669 1.409 . S
C667 H659 0.930 . S
C667 C668 1.355 . S
C667 C669 1.415 . S
C668 C667 1.355 . S
C668 C670 1.419 . S
C669 C664 1.425 . S
C669 C666 1.409 . S
C669 C667 1.415 . S
C670 H660 0.930 . S
C670 C668 1.419 . S
C670 C671 1.362 . S
C671 H661 0.930 . S
C671 C664 1.409 . S
C671 C670 1.362 . S
H672 C678 0.930 . S
H673 C681 0.930 . S
H674 C682 0.930 . S
H675 C683 0.930 . S
H676 C686 0.930 . S
H677 C687 0.930 . S
C678 H672 0.930 . S
C678 C679 1.355 . S
C678 C680 1.415 . S
C679 C678 1.355 . S
C679 C681 1.419 . S
C680 C678 1.415 . S
C680 C685 1.425 . S
C680 C687 1.409 . S
C681 H673 0.930 . S
C681 C679 1.419 . S
C681 C682 1.362 . S
C682 H674 0.930 . S
C682 C681 1.362 . S
C682 C685 1.409 . S
C683 H675 0.930 . S
C683 C684 1.355 . S
C683 C685 1.415 . S
C684 C683 1.355 . S
C684 C686 1.419 . S
C685 C680 1.425 . S
C685 C682 1.409 . S
C685 C683 1.415 . S
C686 H676 0.930 . S
C686 C684 1.419 . S
C686 C687 1.362 . S
C687 H677 0.930 . S
C687 C680 1.409 . S
C687 C686 1.362 . S
H688 C694 0.930 . S
H689 C697 0.930 . S
H690 C698 0.930 . S
H691 C699 0.930 . S
H692 C702 0.930 . S
H693 C703 0.930 . S
C694 H688 0.930 . S
C694 C695 1.355 . S
C694 C696 1.415 . S
C695 C694 1.355 . S
C695 C697 1.419 . S
C696 C694 1.415 . S
C696 C701 1.425 . S
C696 C703 1.409 . S
C697 H689 0.930 . S
C697 C695 1.419 . S
C697 C698 1.362 . S
C698 H690 0.930 . S
C698 C697 1.362 . S
C698 C701 1.409 . S
C699 H691 0.930 . S
C699 C700 1.355 . S
C699 C701 1.415 . S
C700 C699 1.355 . S
C700 C702 1.419 . S
C701 C696 1.425 . S
C701 C698 1.409 . S
C701 C699 1.415 . S
C702 H692 0.930 . S
C702 C700 1.419 . S
C702 C703 1.362 . S
C703 H693 0.930 . S
C703 C696 1.409 . S
C703 C702 1.362 . S
H704 C710 0.930 . S
H705 C713 0.930 . S
H706 C714 0.930 . S
H707 C715 0.930 . S
H708 C718 0.930 . S
H709 C719 0.930 . S
C710 H704 0.930 . S
C710 C711 1.355 . S
C710 C712 1.415 . S
C711 C710 1.355 . S
C711 C713 1.419 . S
C712 C710 1.415 . S
C712 C717 1.425 . S
C712 C719 1.409 . S
C713 H705 0.930 . S
C713 C711 1.419 . S
C713 C714 1.362 . S
C714 H706 0.930 . S
C714 C713 1.362 . S
C714 C717 1.409 . S
C715 H707 0.930 . S
C715 C716 1.355 . S
C715 C717 1.415 . S
C716 C715 1.355 . S
C716 C718 1.419 . S
C717 C712 1.425 . S
C717 C714 1.409 . S
C717 C715 1.415 . S
C718 H708 0.930 . S
C718 C716 1.419 . S
C718 C719 1.362 . S
C719 H709 0.930 . S
C719 C712 1.409 . S
C719 C718 1.362 . S
H720 C726 0.930 . S
H721 C729 0.930 . S
H722 C730 0.930 . S
H723 C731 0.930 . S
H724 C734 0.930 . S
H725 C735 0.930 . S
C726 H720 0.930 . S
C726 C727 1.355 . S
C726 C728 1.415 . S
C727 C726 1.355 . S
C727 C729 1.419 . S
C728 C726 1.415 . S
C728 C733 1.425 . S
C728 C735 1.409 . S
C729 H721 0.930 . S
C729 C727 1.419 . S
C729 C730 1.362 . S
C730 H722 0.930 . S
C730 C729 1.362 . S
C730 C733 1.409 . S
C731 H723 0.930 . S
C731 C732 1.355 . S
C731 C733 1.415 . S
C732 C731 1.355 . S
C732 C734 1.419 . S
C733 C728 1.425 . S
C733 C730 1.409 . S
C733 C731 1.415 . S
C734 H724 0.930 . S
C734 C732 1.419 . S
C734 C735 1.362 . S
C735 H725 0.930 . S
C735 C728 1.409 . S
C735 C734 1.362 . S
H736 C742 0.930 . S
H737 C745 0.930 . S
H738 C746 0.930 . S
H739 C747 0.930 . S
H740 C750 0.930 . S
H741 C751 0.930 . S
C742 H736 0.930 . S
C742 C743 1.355 . S
C742 C744 1.415 . S
C743 C742 1.355 . S
C743 C745 1.419 . S
C744 C742 1.415 . S
C744 C749 1.425 . S
C744 C751 1.409 . S
C745 H737 0.930 . S
C745 C743 1.419 . S
C745 C746 1.362 . S
C746 H738 0.930 . S
C746 C745 1.362 . S
C746 C749 1.409 . S
C747 H739 0.930 . S
C747 C748 1.355 . S
C747 C749 1.415 . S
C748 C747 1.355 . S
C748 C750 1.419 . S
C749 C744 1.425 . S
C749 C746 1.409 . S
C749 C747 1.415 . S
C750 H740 0.930 . S
C750 C748 1.419 . S
C750 C751 1.362 . S
C751 H741 0.930 . S
C751 C744 1.409 . S
C751 C750 1.362 . S
H752 C758 0.930 . S
H753 C761 0.930 . S
H754 C762 0.930 . S
H755 C763 0.930 . S
H756 C766 0.930 . S
H757 C767 0.930 . S
C758 H752 0.930 . S
C758 C759 1.355 . S
C758 C760 1.415 . S
C759 C758 1.355 . S
C759 C761 1.419 . S
C760 C758 1.415 . S
C760 C765 1.425 . S
C760 C767 1.409 . S
C761 H753 0.930 . S
C761 C759 1.419 . S
C761 C762 1.362 . S
C762 H754 0.930 . S
C762 C761 1.362 . S
C762 C765 1.409 . S
C763 H755 0.930 . S
C763 C764 1.355 . S
C763 C765 1.415 . S
C764 C763 1.355 . S
C764 C766 1.419 . S
C765 C760 1.425 . S
C765 C762 1.409 . S
C765 C763 1.415 . S
C766 H756 0.930 . S
C766 C764 1.419 . S
C766 C767 1.362 . S
C767 H757 0.930 . S
C767 C760 1.409 . S
C767 C766 1.362 . S
H768 C774 0.930 . S
H769 C777 0.930 . S
H770 C778 0.930 . S
H771 C779 0.930 . S
H772 C782 0.930 . S
H773 C783 0.930 . S
C774 H768 0.930 . S
C774 C775 1.355 . S
C774 C776 1.415 . S
C775 C774 1.355 . S
C775 C777 1.419 . S
C776 C774 1.415 . S
C776 C781 1.425 . S
C776 C783 1.409 . S
C777 H769 0.930 . S
C777 C775 1.419 . S
C777 C778 1.362 . S
C778 H770 0.930 . S
C778 C777 1.362 . S
C778 C781 1.409 . S
C779 H771 0.930 . S
C779 C780 1.355 . S
C779 C781 1.415 . S
C780 C779 1.355 . S
C780 C782 1.419 . S
C781 C776 1.425 . S
C781 C778 1.409 . S
C781 C779 1.415 . S
C782 H772 0.930 . S
C782 C780 1.419 . S
C782 C783 1.362 . S
C783 H773 0.930 . S
C783 C776 1.409 . S
C783 C782 1.362 . S
H784 C790 0.930 . S
H785 C793 0.930 . S
H786 C794 0.930 . S
H787 C795 0.930 . S
H788 C798 0.930 . S
H789 C799 0.930 . S
C790 H784 0.930 . S
C790 C791 1.355 . S
C790 C792 1.415 . S
C791 C790 1.355 . S
C791 C793 1.419 . S
C792 C790 1.415 . S
C792 C797 1.425 . S
C792 C799 1.409 . S
C793 H785 0.930 . S
C793 C791 1.419 . S
C793 C794 1.362 . S
C794 H786 0.930 . S
C794 C793 1.362 . S
C794 C797 1.409 . S
C795 H787 0.930 . S
C795 C796 1.355 . S
C795 C797 1.415 . S
C796 C795 1.355 . S
C796 C798 1.419 . S
C797 C792 1.425 . S
C797 C794 1.409 . S
C797 C795 1.415 . S
C798 H788 0.930 . S
C798 C796 1.419 . S
C798 C799 1.362 . S
C799 H789 0.930 . S
C799 C792 1.409 . S
C799 C798 1.362 . S
H800 C806 0.930 . S
H801 C809 0.950 . S
H802 C810 0.930 . S
H803 C811 0.930 . S
H804 C814 0.930 . S
H805 C815 0.930 . S
C806 H800 0.930 . S
C806 C807 1.355 . S
C806 C808 1.415 . S
C807 C806 1.355 . S
C807 C809 1.419 . S
C808 C806 1.415 . S
C808 C813 1.425 . S
C808 C815 1.409 . S
C809 H801 0.950 . S
C809 C807 1.419 . S
C809 C810 1.362 . S
C810 H802 0.930 . S
C810 C809 1.362 . S
C810 C813 1.409 . S
C811 H803 0.930 . S
C811 C812 1.355 . S
C811 C813 1.415 . S
C812 C811 1.355 . S
C812 C814 1.419 . S
C813 C808 1.425 . S
C813 C810 1.409 . S
C813 C811 1.415 . S
C814 H804 0.930 . S
C814 C812 1.419 . S
C814 C815 1.362 . S
C815 H805 0.930 . S
C815 C808 1.409 . S
C815 C814 1.362 . S
H816 C822 0.930 . S
H817 C825 0.930 . S
H818 C826 0.930 . S
H819 C827 0.930 . S
H820 C830 0.930 . S
H821 C831 0.930 . S
C822 H816 0.930 . S
C822 C823 1.355 . S
C822 C824 1.415 . S
C823 C822 1.355 . S
C823 C825 1.419 . S
C824 C822 1.415 . S
C824 C829 1.425 . S
C824 C831 1.409 . S
C825 H817 0.930 . S
C825 C823 1.419 . S
C825 C826 1.362 . S
C826 H818 0.930 . S
C826 C825 1.362 . S
C826 C829 1.409 . S
C827 H819 0.930 . S
C827 C828 1.355 . S
C827 C829 1.415 . S
C828 C827 1.355 . S
C828 C830 1.419 . S
C829 C824 1.425 . S
C829 C826 1.409 . S
C829 C827 1.415 . S
C830 H820 0.930 . S
C830 C828 1.419 . S
C830 C831 1.362 . S
C831 H821 0.930 . S
C831 C824 1.409 . S
C831 C830 1.362 . S
H832 C838 0.930 . S
H833 C841 0.930 . S
H834 C842 0.930 . S
H835 C843 0.930 . S
H836 C846 0.930 . S
H837 C847 0.930 . S
C838 H832 0.930 . S
C838 C839 1.355 . S
C838 C840 1.415 . S
C839 C838 1.355 . S
C839 C841 1.419 . S
C840 C838 1.415 . S
C840 C845 1.425 . S
C840 C847 1.409 . S
C841 H833 0.930 . S
C841 C839 1.419 . S
C841 C842 1.362 . S
C842 H834 0.930 . S
C842 C841 1.362 . S
C842 C845 1.409 . S
C843 H835 0.930 . S
C843 C844 1.355 . S
C843 C845 1.415 . S
C844 C843 1.355 . S
C844 C846 1.419 . S
C845 C840 1.425 . S
C845 C842 1.409 . S
C845 C843 1.415 . S
C846 H836 0.930 . S
C846 C844 1.419 . S
C846 C847 1.362 . S
C847 H837 0.930 . S
C847 C840 1.409 . S
C847 C846 1.362 . S
H848 C854 0.930 . S
H849 C857 0.930 . S
H850 C858 0.930 . S
H851 C859 0.930 . S
H852 C862 0.930 . S
H853 C863 0.930 . S
C854 H848 0.930 . S
C854 C855 1.355 . S
C854 C856 1.415 . S
C855 C854 1.355 . S
C855 C857 1.419 . S
C856 C854 1.415 . S
C856 C861 1.425 . S
C856 C863 1.409 . S
C857 H849 0.930 . S
C857 C855 1.419 . S
C857 C858 1.362 . S
C858 H850 0.930 . S
C858 C857 1.362 . S
C858 C861 1.409 . S
C859 H851 0.930 . S
C859 C860 1.355 . S
C859 C861 1.415 . S
C860 C859 1.355 . S
C860 C862 1.419 . S
C861 C856 1.425 . S
C861 C858 1.409 . S
C861 C859 1.415 . S
C862 H852 0.930 . S
C862 C860 1.419 . S
C862 C863 1.362 . S
C863 H853 0.930 . S
C863 C856 1.409 . S
C863 C862 1.362 . S
H864 C870 0.930 . S
H865 C873 0.930 . S
H866 C874 0.930 . S
H867 C875 0.930 . S
H868 C878 0.930 . S
H869 C879 0.930 . S
C870 H864 0.930 . S
C870 C871 1.355 . S
C870 C872 1.415 . S
C871 C870 1.355 . S
C871 C873 1.419 . S
C872 C870 1.415 . S
C872 C877 1.425 . S
C872 C879 1.409 . S
C873 H865 0.930 . S
C873 C871 1.419 . S
C873 C874 1.362 . S
C874 H866 0.930 . S
C874 C873 1.362 . S
C874 C877 1.409 . S
C875 H867 0.930 . S
C875 C876 1.355 . S
C875 C877 1.415 . S
C876 C875 1.355 . S
C876 C878 1.419 . S
C877 C872 1.425 . S
C877 C874 1.409 . S
C877 C875 1.415 . S
C878 H868 0.930 . S
C878 C876 1.419 . S
C878 C879 1.362 . S
C879 H869 0.930 . S
C879 C872 1.409 . S
C879 C878 1.362 . S
H880 C886 0.930 . S
H881 C889 0.894 1_556 S
H882 C890 0.930 . S
H883 C891 0.930 . S
H884 C894 0.930 . S
H885 C895 0.930 . S
C886 H880 0.930 . S
C886 C887 1.355 . S
C886 C888 1.415 . S
C887 C886 1.355 . S
C887 C889 1.419 . S
C888 C886 1.415 . S
C888 C893 1.425 . S
C888 C895 1.409 . S
C889 H881 0.894 1_554 S
C889 C887 1.419 . S
C889 C890 1.362 . S
C890 H882 0.930 . S
C890 C889 1.362 . S
C890 C893 1.409 . S
C891 H883 0.930 . S
C891 C892 1.355 . S
C891 C893 1.415 . S
C892 C891 1.355 . S
C892 C894 1.419 . S
C893 C888 1.425 . S
C893 C890 1.409 . S
C893 C891 1.415 . S
C894 H884 0.930 . S
C894 C892 1.419 . S
C894 C895 1.362 . S
C895 H885 0.930 . S
C895 C888 1.409 . S
C895 C894 1.362 . S
H896 C902 0.930 . S
H897 C905 0.930 . S
H898 C906 0.930 . S
H899 C907 0.930 . S
H900 C910 0.930 . S
H901 C911 0.930 . S
C902 H896 0.930 . S
C902 C903 1.355 . S
C902 C904 1.415 . S
C903 C902 1.355 . S
C903 C905 1.419 . S
C904 C902 1.415 . S
C904 C909 1.425 . S
C904 C911 1.409 . S
C905 H897 0.930 . S
C905 C903 1.419 . S
C905 C906 1.362 . S
C906 H898 0.930 . S
C906 C905 1.362 . S
C906 C909 1.409 . S
C907 H899 0.930 . S
C907 C908 1.355 . S
C907 C909 1.415 . S
C908 C907 1.355 . S
C908 C910 1.419 . S
C909 C904 1.425 . S
C909 C906 1.409 . S
C909 C907 1.415 . S
C910 H900 0.930 . S
C910 C908 1.419 . S
C910 C911 1.362 . S
C911 H901 0.930 . S
C911 C904 1.409 . S
C911 C910 1.362 . S
H912 C918 0.930 . S
H913 C921 0.930 . S
H914 C922 0.930 . S
H915 C923 0.930 . S
H916 C926 0.930 . S
H917 C927 0.930 . S
C918 H912 0.930 . S
C918 C919 1.355 . S
C918 C920 1.415 1_545 S
C919 C918 1.355 . S
C919 C921 1.419 . S
C920 C918 1.415 1_565 S
C920 C925 1.425 1_465 S
C920 C927 1.409 . S
C921 H913 0.930 . S
C921 C919 1.419 . S
C921 C922 1.362 1_455 S
C922 H914 0.930 . S
C922 C921 1.362 1_655 S
C922 C925 1.409 . S
C923 H915 0.930 . S
C923 C924 1.355 . S
C923 C925 1.415 1_565 S
C924 C923 1.355 . S
C924 C926 1.419 . S
C925 C920 1.425 1_645 S
C925 C922 1.409 . S
C925 C923 1.415 1_545 S
C926 H916 0.930 . S
C926 C924 1.419 . S
C926 C927 1.362 1_655 S
C927 H917 0.930 . S
C927 C920 1.409 . S
C927 C926 1.362 1_455 S
H928 C934 0.930 . S
H929 C937 0.930 . S
H930 C938 0.930 . S
H931 C939 0.930 . S
H932 C942 0.930 . S
H933 C943 0.930 . S
C934 H928 0.930 . S
C934 C935 1.355 . S
C934 C936 1.415 1_455 S
C935 C934 1.355 . S
C935 C937 1.419 . S
C936 C934 1.415 1_655 S
C936 C941 1.425 1_655 S
C936 C943 1.409 . S
C937 H929 0.930 . S
C937 C935 1.419 . S
C937 C938 1.362 . S
C938 H930 0.930 . S
C938 C937 1.362 . S
C938 C941 1.409 . S
C939 H931 0.930 . S
C939 C940 1.355 . S
C939 C941 1.415 1_655 S
C940 C939 1.355 . S
C940 C942 1.419 . S
C941 C936 1.425 1_455 S
C941 C938 1.409 . S
C941 C939 1.415 1_455 S
C942 H932 0.930 . S
C942 C940 1.419 . S
C942 C943 1.362 . S
C943 H933 0.930 . S
C943 C936 1.409 . S
C943 C942 1.362 . S
H944 C950 0.930 . S
H945 C953 0.930 . S
H946 C954 0.930 . S
H947 C955 0.930 . S
H948 C958 0.930 . S
H949 C959 0.930 . S
C950 H944 0.930 . S
C950 C951 1.355 . S
C950 C952 1.415 . S
C951 C950 1.355 . S
C951 C953 1.419 . S
C952 C950 1.415 . S
C952 C957 1.425 . S
C952 C959 1.409 . S
C953 H945 0.930 . S
C953 C951 1.419 . S
C953 C954 1.362 . S
C954 H946 0.930 . S
C954 C953 1.362 . S
C954 C957 1.409 . S
C955 H947 0.930 . S
C955 C956 1.355 . S
C955 C957 1.415 . S
C956 C955 1.355 . S
C956 C958 1.419 . S
C957 C952 1.425 . S
C957 C954 1.409 . S
C957 C955 1.415 . S
C958 H948 0.930 . S
C958 C956 1.419 . S
C958 C959 1.362 . S
C959 H949 0.930 . S
C959 C952 1.409 . S
C959 C958 1.362 . S
H960 C966 0.930 . S
H961 C969 0.930 . S
H962 C970 0.930 . S
H963 C971 0.930 . S
H964 C974 0.930 . S
H965 C975 0.930 . S
C966 H960 0.930 . S
C966 C967 1.355 . S
C966 C968 1.415 . S
C967 C966 1.355 . S
C967 C969 1.419 1_545 S
C968 C966 1.415 . S
C968 C973 1.425 1_545 S
C968 C975 1.409 . S
C969 H961 0.930 . S
C969 C967 1.419 1_565 S
C969 C970 1.362 . S
C970 H962 0.930 . S
C970 C969 1.362 . S
C970 C973 1.409 . S
C971 H963 0.930 . S
C971 C972 1.355 . S
C971 C973 1.415 . S
C972 C971 1.355 . S
C972 C974 1.419 1_565 S
C973 C968 1.425 1_565 S
C973 C970 1.409 . S
C973 C971 1.415 . S
C974 H964 0.930 . S
C974 C972 1.419 1_545 S
C974 C975 1.362 . S
C975 H965 0.930 . S
C975 C968 1.409 . S
C975 C974 1.362 . S
H976 C982 0.930 1_655 S
H977 C985 0.930 . S
H978 C986 0.930 . S
H979 C987 0.930 1_455 S
H980 C990 0.930 . S
H981 C991 0.930 . S
C982 H976 0.930 1_455 S
C982 C983 1.355 . S
C982 C984 1.415 1_455 S
C983 C982 1.355 . S
C983 C985 1.419 . S
C984 C982 1.415 1_655 S
C984 C989 1.425 1_655 S
C984 C991 1.409 . S
C985 H977 0.930 . S
C985 C983 1.419 . S
C985 C986 1.362 . S
C986 H978 0.930 . S
C986 C985 1.362 . S
C986 C989 1.409 . S
C987 H979 0.930 1_655 S
C987 C988 1.355 . S
C987 C989 1.415 1_655 S
C988 C987 1.355 . S
C988 C990 1.419 . S
C989 C984 1.425 1_455 S
C989 C986 1.409 . S
C989 C987 1.415 1_455 S
C990 H980 0.930 . S
C990 C988 1.419 . S
C990 C991 1.362 . S
C991 H981 0.930 . S
C991 C984 1.409 . S
C991 C990 1.362 . S
H992 C998 0.930 . S
H993 C1001 0.930 . S
H994 C1002 0.930 . S
H995 C1003 0.930 . S
H996 C1006 0.930 . S
H997 C1007 0.930 . S
C998 H992 0.930 . S
C998 C999 1.355 . S
C998 C1000 1.415 . S
C999 C998 1.355 . S
C999 C1001 1.419 . S
C1000 C998 1.415 . S
C1000 C1005 1.425 . S
C1000 C1007 1.409 . S
C1001 H993 0.930 . S
C1001 C999 1.419 . S
C1001 C1002 1.362 . S
C1002 H994 0.930 . S
C1002 C1001 1.362 . S
C1002 C1005 1.409 . S
C1003 H995 0.930 . S
C1003 C1004 1.355 . S
C1003 C1005 1.415 . S
C1004 C1003 1.355 . S
C1004 C1006 1.419 . S
C1005 C1000 1.425 . S
C1005 C1002 1.409 . S
C1005 C1003 1.415 . S
C1006 H996 0.930 . S
C1006 C1004 1.419 . S
C1006 C1007 1.362 . S
C1007 H997 0.930 . S
C1007 C1000 1.409 . S
C1007 C1006 1.362 . S
H1008 C1014 0.930 . S
H1009 C1017 0.930 . S
H1010 C1018 0.930 . S
H1011 C1019 0.930 . S
H1012 C1022 0.930 . S
H1013 C1023 0.930 . S
C1014 H1008 0.930 . S
C1014 C1015 1.355 . S
C1014 C1016 1.415 1_565 S
C1015 C1014 1.355 . S
C1015 C1017 1.419 . S
C1016 C1014 1.415 1_545 S
C1016 C1021 1.425 1_545 S
C1016 C1023 1.409 . S
C1017 H1009 0.930 . S
C1017 C1015 1.419 . S
C1017 C1018 1.362 . S
C1018 H1010 0.930 . S
C1018 C1017 1.362 . S
C1018 C1021 1.409 . S
C1019 H1011 0.930 . S
C1019 C1020 1.355 . S
C1019 C1021 1.415 1_545 S
C1020 C1019 1.355 . S
C1020 C1022 1.419 . S
C1021 C1016 1.425 1_565 S
C1021 C1018 1.409 . S
C1021 C1019 1.415 1_565 S
C1022 H1012 0.930 . S
C1022 C1020 1.419 . S
C1022 C1023 1.362 . S
C1023 H1013 0.930 . S
C1023 C1016 1.409 . S
C1023 C1022 1.362 . S
H1024 C1030 0.930 1_565 S
H1025 C1033 0.930 . S
H1026 C1034 0.930 . S
H1027 C1035 0.930 1_545 S
H1028 C1038 0.930 . S
H1029 C1039 0.930 . S
C1030 H1024 0.930 1_545 S
C1030 C1031 1.355 . S
C1030 C1032 1.415 1_545 S
C1031 C1030 1.355 . S
C1031 C1033 1.419 . S
C1032 C1030 1.415 1_565 S
C1032 C1037 1.425 1_465 S
C1032 C1039 1.409 . S
C1033 H1025 0.930 . S
C1033 C1031 1.419 . S
C1033 C1034 1.362 1_455 S
C1034 H1026 0.930 . S
C1034 C1033 1.362 1_655 S
C1034 C1037 1.409 . S
C1035 H1027 0.930 1_565 S
C1035 C1036 1.355 . S
C1035 C1037 1.415 1_565 S
C1036 C1035 1.355 . S
C1036 C1038 1.419 . S
C1037 C1032 1.425 1_645 S
C1037 C1034 1.409 . S
C1037 C1035 1.415 1_545 S
C1038 H1028 0.930 . S
C1038 C1036 1.419 . S
C1038 C1039 1.362 1_655 S
C1039 H1029 0.930 . S
C1039 C1032 1.409 . S
C1039 C1038 1.362 1_455 S
H1040 C1046 0.930 . S
H1041 C1049 0.930 . S
H1042 C1050 0.930 . S
H1043 C1051 0.930 . S
H1044 C1054 0.930 . S
H1045 C1055 0.930 . S
C1046 H1040 0.930 . S
C1046 C1047 1.355 . S
C1046 C1048 1.415 . S
C1047 C1046 1.355 . S
C1047 C1049 1.419 . S
C1048 C1046 1.415 . S
C1048 C1053 1.425 . S
C1048 C1055 1.409 . S
C1049 H1041 0.930 . S
C1049 C1047 1.419 . S
C1049 C1050 1.362 . S
C1050 H1042 0.930 . S
C1050 C1049 1.362 . S
C1050 C1053 1.409 . S
C1051 H1043 0.930 . S
C1051 C1052 1.355 . S
C1051 C1053 1.415 . S
C1052 C1051 1.355 . S
C1052 C1054 1.419 . S
C1053 C1048 1.425 . S
C1053 C1050 1.409 . S
C1053 C1051 1.415 . S
C1054 H1044 0.930 . S
C1054 C1052 1.419 . S
C1054 C1055 1.362 . S
C1055 H1045 0.930 . S
C1055 C1048 1.409 . S
C1055 C1054 1.362 . S
H1056 C1062 0.930 . S
H1057 C1065 0.930 . S
H1058 C1066 0.930 . S
H1059 C1067 0.930 . S
H1060 C1070 0.930 . S
H1061 C1071 0.930 . S
C1062 H1056 0.930 . S
C1062 C1063 1.355 . S
C1062 C1064 1.415 . S
C1063 C1062 1.355 . S
C1063 C1065 1.419 . S
C1064 C1062 1.415 . S
C1064 C1069 1.425 . S
C1064 C1071 1.409 . S
C1065 H1057 0.930 . S
C1065 C1063 1.419 . S
C1065 C1066 1.362 . S
C1066 H1058 0.930 . S
C1066 C1065 1.362 . S
C1066 C1069 1.409 . S
C1067 H1059 0.930 . S
C1067 C1068 1.355 . S
C1067 C1069 1.415 . S
C1068 C1067 1.355 . S
C1068 C1070 1.419 . S
C1069 C1064 1.425 . S
C1069 C1066 1.409 . S
C1069 C1067 1.415 . S
C1070 H1060 0.930 . S
C1070 C1068 1.419 . S
C1070 C1071 1.362 . S
C1071 H1061 0.930 . S
C1071 C1064 1.409 . S
C1071 C1070 1.362 . S
H1072 C1078 0.930 . S
H1073 C1081 0.930 . S
H1074 C1082 0.930 . S
H1075 C1083 0.930 . S
H1076 C1086 0.930 . S
H1077 C1087 0.930 . S
C1078 H1072 0.930 . S
C1078 C1079 1.355 . S
C1078 C1080 1.415 . S
C1079 C1078 1.355 . S
C1079 C1081 1.419 . S
C1080 C1078 1.415 . S
C1080 C1085 1.425 . S
C1080 C1087 1.409 . S
C1081 H1073 0.930 . S
C1081 C1079 1.419 . S
C1081 C1082 1.362 . S
C1082 H1074 0.930 . S
C1082 C1081 1.362 . S
C1082 C1085 1.409 . S
C1083 H1075 0.930 . S
C1083 C1084 1.355 . S
C1083 C1085 1.415 . S
C1084 C1083 1.355 . S
C1084 C1086 1.419 . S
C1085 C1080 1.425 . S
C1085 C1082 1.409 . S
C1085 C1083 1.415 . S
C1086 H1076 0.930 . S
C1086 C1084 1.419 . S
C1086 C1087 1.362 . S
C1087 H1077 0.930 . S
C1087 C1080 1.409 . S
C1087 C1086 1.362 . S
H1088 C1094 0.930 . S
H1089 C1097 0.930 . S
H1090 C1098 0.930 . S
H1091 C1099 0.930 . S
H1092 C1102 0.930 . S
H1093 C1103 0.930 . S
C1094 H1088 0.930 . S
C1094 C1095 1.355 . S
C1094 C1096 1.415 . S
C1095 C1094 1.355 . S
C1095 C1097 1.419 . S
C1096 C1094 1.415 . S
C1096 C1101 1.425 . S
C1096 C1103 1.409 . S
C1097 H1089 0.930 . S
C1097 C1095 1.419 . S
C1097 C1098 1.362 . S
C1098 H1090 0.930 . S
C1098 C1097 1.362 . S
C1098 C1101 1.409 . S
C1099 H1091 0.930 . S
C1099 C1100 1.355 . S
C1099 C1101 1.415 . S
C1100 C1099 1.355 . S
C1100 C1102 1.419 . S
C1101 C1096 1.425 . S
C1101 C1098 1.409 . S
C1101 C1099 1.415 . S
C1102 H1092 0.930 . S
C1102 C1100 1.419 . S
C1102 C1103 1.362 . S
C1103 H1093 0.930 . S
C1103 C1096 1.409 . S
C1103 C1102 1.362 . S
H1104 C1110 0.930 . S
H1105 C1113 0.930 . S
H1106 C1114 0.930 . S
H1107 C1115 0.930 . S
H1108 C1118 0.930 . S
H1109 C1119 0.930 . S
C1110 H1104 0.930 . S
C1110 C1111 1.355 . S
C1110 C1112 1.415 . S
C1111 C1110 1.355 . S
C1111 C1113 1.419 . S
C1112 C1110 1.415 . S
C1112 C1117 1.425 . S
C1112 C1119 1.409 . S
C1113 H1105 0.930 . S
C1113 C1111 1.419 . S
C1113 C1114 1.362 . S
C1114 H1106 0.930 . S
C1114 C1113 1.362 . S
C1114 C1117 1.409 . S
C1115 H1107 0.930 . S
C1115 C1116 1.355 . S
C1115 C1117 1.415 . S
C1116 C1115 1.355 . S
C1116 C1118 1.419 . S
C1117 C1112 1.425 . S
C1117 C1114 1.409 . S
C1117 C1115 1.415 . S
C1118 H1108 0.930 . S
C1118 C1116 1.419 . S
C1118 C1119 1.362 . S
C1119 H1109 0.930 . S
C1119 C1112 1.409 . S
C1119 C1118 1.362 . S
H1120 C1126 0.930 . S
H1121 C1129 0.930 . S
H1122 C1130 0.930 . S
H1123 C1131 0.930 . S
H1124 C1134 0.930 . S
H1125 C1135 0.930 . S
C1126 H1120 0.930 . S
C1126 C1127 1.355 . S
C1126 C1128 1.415 . S
C1127 C1126 1.355 . S
C1127 C1129 1.419 . S
C1128 C1126 1.415 . S
C1128 C1133 1.425 . S
C1128 C1135 1.409 . S
C1129 H1121 0.930 . S
C1129 C1127 1.419 . S
C1129 C1130 1.362 . S
C1130 H1122 0.930 . S
C1130 C1129 1.362 . S
C1130 C1133 1.409 . S
C1131 H1123 0.930 . S
C1131 C1132 1.355 . S
C1131 C1133 1.415 . S
C1132 C1131 1.355 . S
C1132 C1134 1.419 . S
C1133 C1128 1.425 . S
C1133 C1130 1.409 . S
C1133 C1131 1.415 . S
C1134 H1124 0.930 . S
C1134 C1132 1.419 . S
C1134 C1135 1.362 . S
C1135 H1125 0.930 . S
C1135 C1128 1.409 . S
C1135 C1134 1.362 . S
H1136 C1142 0.930 . S
H1137 C1145 0.930 . S
H1138 C1146 0.930 . S
H1139 C1147 0.930 . S
H1140 C1150 0.930 . S
H1141 C1151 0.930 . S
C1142 H1136 0.930 . S
C1142 C1143 1.355 . S
C1142 C1144 1.415 . S
C1143 C1142 1.355 . S
C1143 C1145 1.419 . S
C1144 C1142 1.415 . S
C1144 C1149 1.425 . S
C1144 C1151 1.409 . S
C1145 H1137 0.930 . S
C1145 C1143 1.419 . S
C1145 C1146 1.362 . S
C1146 H1138 0.930 . S
C1146 C1145 1.362 . S
C1146 C1149 1.409 . S
C1147 H1139 0.930 . S
C1147 C1148 1.355 . S
C1147 C1149 1.415 . S
C1148 C1147 1.355 . S
C1148 C1150 1.419 . S
C1149 C1144 1.425 . S
C1149 C1146 1.409 . S
C1149 C1147 1.415 . S
C1150 H1140 0.930 . S
C1150 C1148 1.419 . S
C1150 C1151 1.362 . S
C1151 H1141 0.930 . S
C1151 C1144 1.409 . S
C1151 C1150 1.362 . S
H1152 C1158 0.930 . S
H1153 C1161 0.930 . S
H1154 C1162 0.930 . S
H1155 C1163 0.930 . S
H1156 C1166 0.930 . S
H1157 C1167 0.930 . S
C1158 H1152 0.930 . S
C1158 C1159 1.355 . S
C1158 C1160 1.415 . S
C1159 C1158 1.355 . S
C1159 C1161 1.419 . S
C1160 C1158 1.415 . S
C1160 C1165 1.425 . S
C1160 C1167 1.409 . S
C1161 H1153 0.930 . S
C1161 C1159 1.419 . S
C1161 C1162 1.362 . S
C1162 H1154 0.930 . S
C1162 C1161 1.362 . S
C1162 C1165 1.409 . S
C1163 H1155 0.930 . S
C1163 C1164 1.355 . S
C1163 C1165 1.415 . S
C1164 C1163 1.355 . S
C1164 C1166 1.419 . S
C1165 C1160 1.425 . S
C1165 C1162 1.409 . S
C1165 C1163 1.415 . S
C1166 H1156 0.930 . S
C1166 C1164 1.419 . S
C1166 C1167 1.362 . S
C1167 H1157 0.930 . S
C1167 C1160 1.409 . S
C1167 C1166 1.362 . S
C535 N14 0.667 . S
C540 N443 0.669 . S
C551 N476 0.508 . S
C556 N47 0.508 . S
C567 N509 0.679 . S
C572 N80 0.677 . S
C583 N410 0.655 . S
C588 N113 0.653 . S
C599 N377 0.580 . S
C604 N146 0.582 . S
C615 N278 0.530 . S
C620 N179 0.528 . S
C631 N212 0.730 . S
C636 N311 0.730 . S
C647 N344 0.584 . S
C652 N245 0.586 . S
C663 C305 2.186 . S
C668 N5 2.248 . S
C679 N38 2.232 . S
C684 C338 2.170 . S
C695 N71 2.256 . S
C700 C371 2.121 . S
C711 N104 2.257 1_556 S
C716 C272 2.172 . S
C727 N137 2.247 1_554 S
C732 C503 2.183 . S
C743 C404 2.157 . S
C748 N170 2.233 . S
C759 C437 2.152 . S
C764 N203 2.234 . S
C775 C470 2.187 . S
C780 N236 2.244 . S
C791 N269 2.271 . S
C796 C41 2.127 . S
C807 N302 2.226 1_556 S
C812 C74 2.165 . S
C823 N335 2.272 . S
C828 C107 2.133 . S
C839 C8 2.136 . S
C844 N368 2.273 . S
C855 N401 2.248 . S
C860 C239 2.127 . S
C871 C140 2.185 . S
C876 N434 2.237 . S
C887 N467 2.227 1_554 S
C892 C173 2.158 . S
C903 N500 2.246 . S
C908 C206 2.187 . S
C919 C17 1.494 . S
C924 C347 1.476 . S
C935 C380 1.494 . S
C940 C50 1.478 . S
C951 C83 1.494 . S
C956 C281 1.478 . S
C967 C314 1.493 . S
C972 C116 1.487 . S
C983 C149 1.461 . S
C988 C479 1.479 . S
C999 C512 1.494 . S
C1004 C182 1.476 . S
C1015 C413 1.490 . S
C1020 C215 1.491 . S
C1031 C446 1.460 . S
C1036 C248 1.470 . S
C1047 C226 0.766 . S
C1052 C28 0.772 . S
C1063 C61 0.560 . S
C1068 C259 0.620 . S
C1079 C160 0.572 . S
C1084 C94 0.558 . S
C1095 C127 0.594 . S
C1100 C193 0.554 . S
C1111 C292 0.736 . S
C1116 C490 0.775 . S
C1127 C325 0.565 . S
C1132 C523 0.631 . S
C1143 C358 0.775 . S
C1148 C424 0.759 . S
C1159 C457 0.622 . S
C1164 C391 0.561 . S
