# Generated by pormake.
# Topology wmt, (6)-cn, num edge types: 1
# Building blocks:
#     Node 0, Type 0, BuildingBlock: GEDQOX_clean_sbu_0, # of connection points: 6
#     Node 1, Type 0, BuildingBlock: GEDQOX_clean_sbu_0, # of connection points: 6
#     Node 2, Type 0, BuildingBlock: GEDQOX_clean_sbu_0, # of connection points: 6
#     Node 3, Type 0, BuildingBlock: GEDQOX_clean_sbu_0, # of connection points: 6
#     Node 4, Type 0, BuildingBlock: GEDQOX_clean_sbu_0, # of connection points: 6
#     Node 5, Type 0, BuildingBlock: GEDQOX_clean_sbu_0, # of connection points: 6
#     Node 6, Type 0, BuildingBlock: GEDQOX_clean_sbu_0, # of connection points: 6
#     Node 7, Type 0, BuildingBlock: GEDQOX_clean_sbu_0, # of connection points: 6
#     Node 8, Type 0, BuildingBlock: GEDQOX_clean_sbu_0, # of connection points: 6
#     Node 9, Type 0, BuildingBlock: GEDQOX_clean_sbu_0, # of connection points: 6
#     Node 10, Type 0, BuildingBlock: GEDQOX_clean_sbu_0, # of connection points: 6
#     Node 11, Type 0, BuildingBlock: GEDQOX_clean_sbu_0, # of connection points: 6
#     Node 12, Type 0, BuildingBlock: GEDQOX_clean_sbu_0, # of connection points: 6
#     Node 13, Type 0, BuildingBlock: GEDQOX_clean_sbu_0, # of connection points: 6
#     Node 14, Type 0, BuildingBlock: GEDQOX_clean_sbu_0, # of connection points: 6
#     Node 15, Type 0, BuildingBlock: GEDQOX_clean_sbu_0, # of connection points: 6
#     Node 16, Type 0, BuildingBlock: GEDQOX_clean_sbu_0, # of connection points: 6
#     Node 17, Type 0, BuildingBlock: GEDQOX_clean_sbu_0, # of connection points: 6
#     Node 18, Type 0, BuildingBlock: GEDQOX_clean_sbu_0, # of connection points: 6
#     Node 19, Type 0, BuildingBlock: GEDQOX_clean_sbu_0, # of connection points: 6
#     Node 20, Type 0, BuildingBlock: GEDQOX_clean_sbu_0, # of connection points: 6
#     Node 21, Type 0, BuildingBlock: GEDQOX_clean_sbu_0, # of connection points: 6
#     Node 22, Type 0, BuildingBlock: GEDQOX_clean_sbu_0, # of connection points: 6
#     Node 23, Type 0, BuildingBlock: GEDQOX_clean_sbu_0, # of connection points: 6
#     Node 24, Type 0, BuildingBlock: GEDQOX_clean_sbu_0, # of connection points: 6
#     Node 25, Type 0, BuildingBlock: GEDQOX_clean_sbu_0, # of connection points: 6
#     Node 26, Type 0, BuildingBlock: GEDQOX_clean_sbu_0, # of connection points: 6
#     Node 27, Type 0, BuildingBlock: GEDQOX_clean_sbu_0, # of connection points: 6
#     Node 28, Type 0, BuildingBlock: GEDQOX_clean_sbu_0, # of connection points: 6
#     Node 29, Type 0, BuildingBlock: GEDQOX_clean_sbu_0, # of connection points: 6
#     Node 30, Type 0, BuildingBlock: GEDQOX_clean_sbu_0, # of connection points: 6
#     Node 31, Type 0, BuildingBlock: GEDQOX_clean_sbu_0, # of connection points: 6
#     Node 32, Type 0, BuildingBlock: GEDQOX_clean_sbu_0, # of connection points: 6
#     Node 33, Type 0, BuildingBlock: GEDQOX_clean_sbu_0, # of connection points: 6
#     Node 34, Type 0, BuildingBlock: GEDQOX_clean_sbu_0, # of connection points: 6
#     Node 35, Type 0, BuildingBlock: GEDQOX_clean_sbu_0, # of connection points: 6
#     Edge 36, Type (0, 0), BuildingBlock: OJICUG_clean_linker_0, # of connection points: 2
#     Edge 37, Type (0, 0), BuildingBlock: OJICUG_clean_linker_0, # of connection points: 2
#     Edge 38, Type (0, 0), BuildingBlock: OJICUG_clean_linker_0, # of connection points: 2
#     Edge 39, Type (0, 0), BuildingBlock: OJICUG_clean_linker_0, # of connection points: 2
#     Edge 40, Type (0, 0), BuildingBlock: OJICUG_clean_linker_0, # of connection points: 2
#     Edge 41, Type (0, 0), BuildingBlock: OJICUG_clean_linker_0, # of connection points: 2
#     Edge 42, Type (0, 0), BuildingBlock: OJICUG_clean_linker_0, # of connection points: 2
#     Edge 43, Type (0, 0), BuildingBlock: OJICUG_clean_linker_0, # of connection points: 2
#     Edge 44, Type (0, 0), BuildingBlock: OJICUG_clean_linker_0, # of connection points: 2
#     Edge 45, Type (0, 0), BuildingBlock: OJICUG_clean_linker_0, # of connection points: 2
#     Edge 46, Type (0, 0), BuildingBlock: OJICUG_clean_linker_0, # of connection points: 2
#     Edge 47, Type (0, 0), BuildingBlock: OJICUG_clean_linker_0, # of connection points: 2
#     Edge 48, Type (0, 0), BuildingBlock: OJICUG_clean_linker_0, # of connection points: 2
#     Edge 49, Type (0, 0), BuildingBlock: OJICUG_clean_linker_0, # of connection points: 2
#     Edge 50, Type (0, 0), BuildingBlock: OJICUG_clean_linker_0, # of connection points: 2
#     Edge 51, Type (0, 0), BuildingBlock: OJICUG_clean_linker_0, # of connection points: 2
#     Edge 52, Type (0, 0), BuildingBlock: OJICUG_clean_linker_0, # of connection points: 2
#     Edge 53, Type (0, 0), BuildingBlock: OJICUG_clean_linker_0, # of connection points: 2
#     Edge 54, Type (0, 0), BuildingBlock: OJICUG_clean_linker_0, # of connection points: 2
#     Edge 55, Type (0, 0), BuildingBlock: OJICUG_clean_linker_0, # of connection points: 2
#     Edge 56, Type (0, 0), BuildingBlock: OJICUG_clean_linker_0, # of connection points: 2
#     Edge 57, Type (0, 0), BuildingBlock: OJICUG_clean_linker_0, # of connection points: 2
#     Edge 58, Type (0, 0), BuildingBlock: OJICUG_clean_linker_0, # of connection points: 2
#     Edge 59, Type (0, 0), BuildingBlock: OJICUG_clean_linker_0, # of connection points: 2
#     Edge 60, Type (0, 0), BuildingBlock: OJICUG_clean_linker_0, # of connection points: 2
#     Edge 61, Type (0, 0), BuildingBlock: OJICUG_clean_linker_0, # of connection points: 2
#     Edge 62, Type (0, 0), BuildingBlock: OJICUG_clean_linker_0, # of connection points: 2
#     Edge 63, Type (0, 0), BuildingBlock: OJICUG_clean_linker_0, # of connection points: 2
#     Edge 64, Type (0, 0), BuildingBlock: OJICUG_clean_linker_0, # of connection points: 2
#     Edge 65, Type (0, 0), BuildingBlock: OJICUG_clean_linker_0, # of connection points: 2
#     Edge 66, Type (0, 0), BuildingBlock: OJICUG_clean_linker_0, # of connection points: 2
#     Edge 67, Type (0, 0), BuildingBlock: OJICUG_clean_linker_0, # of connection points: 2
#     Edge 68, Type (0, 0), BuildingBlock: OJICUG_clean_linker_0, # of connection points: 2
#     Edge 69, Type (0, 0), BuildingBlock: OJICUG_clean_linker_0, # of connection points: 2
#     Edge 70, Type (0, 0), BuildingBlock: OJICUG_clean_linker_0, # of connection points: 2
#     Edge 71, Type (0, 0), BuildingBlock: OJICUG_clean_linker_0, # of connection points: 2
#     Edge 72, Type (0, 0), BuildingBlock: OJICUG_clean_linker_0, # of connection points: 2
#     Edge 73, Type (0, 0), BuildingBlock: OJICUG_clean_linker_0, # of connection points: 2
#     Edge 74, Type (0, 0), BuildingBlock: OJICUG_clean_linker_0, # of connection points: 2
#     Edge 75, Type (0, 0), BuildingBlock: OJICUG_clean_linker_0, # of connection points: 2
#     Edge 76, Type (0, 0), BuildingBlock: OJICUG_clean_linker_0, # of connection points: 2
#     Edge 77, Type (0, 0), BuildingBlock: OJICUG_clean_linker_0, # of connection points: 2
#     Edge 78, Type (0, 0), BuildingBlock: OJICUG_clean_linker_0, # of connection points: 2
#     Edge 79, Type (0, 0), BuildingBlock: OJICUG_clean_linker_0, # of connection points: 2
#     Edge 80, Type (0, 0), BuildingBlock: OJICUG_clean_linker_0, # of connection points: 2
#     Edge 81, Type (0, 0), BuildingBlock: OJICUG_clean_linker_0, # of connection points: 2
#     Edge 82, Type (0, 0), BuildingBlock: OJICUG_clean_linker_0, # of connection points: 2
#     Edge 83, Type (0, 0), BuildingBlock: OJICUG_clean_linker_0, # of connection points: 2
#     Edge 84, Type (0, 0), BuildingBlock: OJICUG_clean_linker_0, # of connection points: 2
#     Edge 85, Type (0, 0), BuildingBlock: OJICUG_clean_linker_0, # of connection points: 2
#     Edge 86, Type (0, 0), BuildingBlock: OJICUG_clean_linker_0, # of connection points: 2
#     Edge 87, Type (0, 0), BuildingBlock: OJICUG_clean_linker_0, # of connection points: 2
#     Edge 88, Type (0, 0), BuildingBlock: OJICUG_clean_linker_0, # of connection points: 2
#     Edge 89, Type (0, 0), BuildingBlock: OJICUG_clean_linker_0, # of connection points: 2
#     Edge 90, Type (0, 0), BuildingBlock: OJICUG_clean_linker_0, # of connection points: 2
#     Edge 91, Type (0, 0), BuildingBlock: OJICUG_clean_linker_0, # of connection points: 2
#     Edge 92, Type (0, 0), BuildingBlock: OJICUG_clean_linker_0, # of connection points: 2
#     Edge 93, Type (0, 0), BuildingBlock: OJICUG_clean_linker_0, # of connection points: 2
#     Edge 94, Type (0, 0), BuildingBlock: OJICUG_clean_linker_0, # of connection points: 2
#     Edge 95, Type (0, 0), BuildingBlock: OJICUG_clean_linker_0, # of connection points: 2
#     Edge 96, Type (0, 0), BuildingBlock: OJICUG_clean_linker_0, # of connection points: 2
#     Edge 97, Type (0, 0), BuildingBlock: OJICUG_clean_linker_0, # of connection points: 2
#     Edge 98, Type (0, 0), BuildingBlock: OJICUG_clean_linker_0, # of connection points: 2
#     Edge 99, Type (0, 0), BuildingBlock: OJICUG_clean_linker_0, # of connection points: 2
#     Edge 100, Type (0, 0), BuildingBlock: OJICUG_clean_linker_0, # of connection points: 2
#     Edge 101, Type (0, 0), BuildingBlock: OJICUG_clean_linker_0, # of connection points: 2
#     Edge 102, Type (0, 0), BuildingBlock: OJICUG_clean_linker_0, # of connection points: 2
#     Edge 103, Type (0, 0), BuildingBlock: OJICUG_clean_linker_0, # of connection points: 2
#     Edge 104, Type (0, 0), BuildingBlock: OJICUG_clean_linker_0, # of connection points: 2
#     Edge 105, Type (0, 0), BuildingBlock: OJICUG_clean_linker_0, # of connection points: 2
#     Edge 106, Type (0, 0), BuildingBlock: OJICUG_clean_linker_0, # of connection points: 2
#     Edge 107, Type (0, 0), BuildingBlock: OJICUG_clean_linker_0, # of connection points: 2
#     Edge 108, Type (0, 0), BuildingBlock: OJICUG_clean_linker_0, # of connection points: 2
#     Edge 109, Type (0, 0), BuildingBlock: OJICUG_clean_linker_0, # of connection points: 2
#     Edge 110, Type (0, 0), BuildingBlock: OJICUG_clean_linker_0, # of connection points: 2
#     Edge 111, Type (0, 0), BuildingBlock: OJICUG_clean_linker_0, # of connection points: 2
#     Edge 112, Type (0, 0), BuildingBlock: OJICUG_clean_linker_0, # of connection points: 2
#     Edge 113, Type (0, 0), BuildingBlock: OJICUG_clean_linker_0, # of connection points: 2
#     Edge 114, Type (0, 0), BuildingBlock: OJICUG_clean_linker_0, # of connection points: 2
#     Edge 115, Type (0, 0), BuildingBlock: OJICUG_clean_linker_0, # of connection points: 2
#     Edge 116, Type (0, 0), BuildingBlock: OJICUG_clean_linker_0, # of connection points: 2
#     Edge 117, Type (0, 0), BuildingBlock: OJICUG_clean_linker_0, # of connection points: 2
#     Edge 118, Type (0, 0), BuildingBlock: OJICUG_clean_linker_0, # of connection points: 2
#     Edge 119, Type (0, 0), BuildingBlock: OJICUG_clean_linker_0, # of connection points: 2
#     Edge 120, Type (0, 0), BuildingBlock: OJICUG_clean_linker_0, # of connection points: 2
#     Edge 121, Type (0, 0), BuildingBlock: OJICUG_clean_linker_0, # of connection points: 2
#     Edge 122, Type (0, 0), BuildingBlock: OJICUG_clean_linker_0, # of connection points: 2
#     Edge 123, Type (0, 0), BuildingBlock: OJICUG_clean_linker_0, # of connection points: 2
#     Edge 124, Type (0, 0), BuildingBlock: OJICUG_clean_linker_0, # of connection points: 2
#     Edge 125, Type (0, 0), BuildingBlock: OJICUG_clean_linker_0, # of connection points: 2
#     Edge 126, Type (0, 0), BuildingBlock: OJICUG_clean_linker_0, # of connection points: 2
#     Edge 127, Type (0, 0), BuildingBlock: OJICUG_clean_linker_0, # of connection points: 2
#     Edge 128, Type (0, 0), BuildingBlock: OJICUG_clean_linker_0, # of connection points: 2
#     Edge 129, Type (0, 0), BuildingBlock: OJICUG_clean_linker_0, # of connection points: 2
#     Edge 130, Type (0, 0), BuildingBlock: OJICUG_clean_linker_0, # of connection points: 2
#     Edge 131, Type (0, 0), BuildingBlock: OJICUG_clean_linker_0, # of connection points: 2
#     Edge 132, Type (0, 0), BuildingBlock: OJICUG_clean_linker_0, # of connection points: 2
#     Edge 133, Type (0, 0), BuildingBlock: OJICUG_clean_linker_0, # of connection points: 2
#     Edge 134, Type (0, 0), BuildingBlock: OJICUG_clean_linker_0, # of connection points: 2
#     Edge 135, Type (0, 0), BuildingBlock: OJICUG_clean_linker_0, # of connection points: 2
#     Edge 136, Type (0, 0), BuildingBlock: OJICUG_clean_linker_0, # of connection points: 2
#     Edge 137, Type (0, 0), BuildingBlock: OJICUG_clean_linker_0, # of connection points: 2
#     Edge 138, Type (0, 0), BuildingBlock: OJICUG_clean_linker_0, # of connection points: 2
#     Edge 139, Type (0, 0), BuildingBlock: OJICUG_clean_linker_0, # of connection points: 2
#     Edge 140, Type (0, 0), BuildingBlock: OJICUG_clean_linker_0, # of connection points: 2
#     Edge 141, Type (0, 0), BuildingBlock: OJICUG_clean_linker_0, # of connection points: 2
#     Edge 142, Type (0, 0), BuildingBlock: OJICUG_clean_linker_0, # of connection points: 2
#     Edge 143, Type (0, 0), BuildingBlock: OJICUG_clean_linker_0, # of connection points: 2
# Relax obj value: 0.187
# Max RMSD: 0.215
# Mean RMSD: 0.215
data_MOF--net-wmt--node1-GEDQOX_clean_sbu_0--edge1-OJICUG_clean_linker_0
_symmetry_space_group_name_H-M    P1
_symmetry_Int_Tables_number       1
_symmetry_cell_setting            triclinic
loop_
_symmetry_equiv_pos_as_xyz
'x, y, z'
_cell_length_a     62.826275
_cell_length_b     62.869009
_cell_length_c     29.151655
_cell_angle_alpha  90.126964
_cell_angle_beta   90.07496
_cell_angle_gamma 120.02404
loop_
_atom_site_label
_atom_site_type_symbol
_atom_site_fract_x
_atom_site_fract_y
_atom_site_fract_z
_atom_type_partial_charge
Nd0 Nd 0.02375 0.45433 0.0525 0.0
Nd1 Nd 0.06276 0.50122 1.00522 0.0
C2 C -0.00698 0.42211 0.11246 0.0
C3 C -0.00951 0.42223 0.16285 0.0
C4 C -0.00662 0.44311 0.18615 0.0
C5 C -0.00801 0.44331 0.23406 0.0
C6 C 0.98804 0.42273 0.25987 0.0
C7 C 0.98532 0.40192 0.23621 0.0
C8 C 0.98642 0.40166 0.1883 0.0
C9 C 0.06268 0.45182 1.01671 0.0
C10 C 0.06562 0.50064 0.11481 0.0
C11 C 0.09453 0.53138 0.94363 0.0
C12 C 0.09204 0.53603 0.89465 0.0
C13 C 0.11284 0.54872 0.86662 0.0
C14 C 0.11031 0.55358 0.82045 0.0
C15 C 0.08691 0.54592 0.80159 0.0
C16 C 0.06613 0.53263 0.82968 0.0
C17 C 0.06867 0.52778 0.87555 0.0
C18 C 0.0236 0.50336 0.04062 0.0
C19 C 0.01506 0.45648 0.94595 0.0
O20 O 0.98805 0.4368 0.08898 0.0
O21 O 0.01255 0.42198 0.09751 0.0
O22 O 0.03984 0.43474 1.01201 0.0
O23 O 0.06447 0.46988 0.03908 0.0
O24 O 0.04309 0.48176 0.11114 0.0
O25 O 0.07962 0.51056 0.07813 0.0
O26 O 0.09186 0.50984 0.95323 0.0
O27 O 0.08312 0.538 0.97291 0.0
O28 O 0.04582 0.5221 0.04082 0.0
O29 O 0.023 0.48574 1.01926 0.0
O30 O 0.03771 0.47572 0.94605 0.0
O31 O 0.00377 0.44573 0.9843 0.0
H32 H -0.00296 0.45942 0.16739 0.0
H33 H -0.00605 0.4596 0.25074 0.0
H34 H 0.98283 0.38592 0.25467 0.0
H35 H 0.98449 0.38549 0.17111 0.0
H36 H 0.13105 0.55515 0.88058 0.0
H37 H 0.12669 0.56391 0.79993 0.0
H38 H 0.04779 0.52601 0.8162 0.0
H39 H 0.05232 0.51777 0.8963 0.0
Nd40 Nd 0.52675 0.56738 0.05569 0.0
Nd41 Nd 0.47918 0.55851 1.00837 0.0
C42 C 0.5592 0.56971 0.11643 0.0
C43 C 0.55901 0.567 0.16686 0.0
C44 C 0.53836 0.54851 0.18975 0.0
C45 C 0.53814 0.54684 0.23769 0.0
C46 C 0.55845 0.56385 0.26395 0.0
C47 C 0.579 0.58244 0.24069 0.0
C48 C 0.5793 0.5839 0.19277 0.0
C49 C 0.52871 0.60796 1.01752 0.0
C50 C 0.4805 0.56299 0.11772 0.0
C51 C 0.4486 0.55925 0.94649 0.0
C52 C 0.44258 0.55079 0.898 0.0
C53 C 0.44377 0.56697 0.86353 0.0
C54 C 0.43948 0.55951 0.81729 0.0
C55 C 0.43394 0.53566 0.80447 0.0
C56 C 0.43208 0.51933 0.83939 0.0
C57 C 0.43648 0.5268 0.88534 0.0
C58 C 0.47766 0.51786 0.04524 0.0
C59 C 0.52345 0.55472 0.94925 0.0
O60 O 0.54499 0.54996 0.09248 0.0
O61 O 0.5588 0.5891 0.10153 0.0
O62 O 0.54612 0.60261 1.01422 0.0
O63 O 0.51085 0.59212 0.04072 0.0
O64 O 0.49942 0.55941 0.11419 0.0
O65 O 0.47037 0.56679 0.08097 0.0
O66 O 0.47057 0.57803 0.95416 0.0
O67 O 0.44185 0.54227 0.97801 0.0
O68 O 0.4587 0.52096 0.04488 0.0
O69 O 0.4951 0.53478 1.02357 0.0
O70 O 0.50387 0.5576 0.94923 0.0
O71 O 0.53491 0.55527 0.98759 0.0
H72 H 0.52226 0.5355 0.17066 0.0
H73 H 0.52205 0.53212 0.25402 0.0
H74 H 0.59479 0.59626 0.25945 0.0
H75 H 0.59529 0.59852 0.17593 0.0
H76 H 0.44848 0.58558 0.87228 0.0
H77 H 0.44126 0.57267 0.79149 0.0
H78 H 0.42736 0.50066 0.83124 0.0
H79 H 0.43541 0.5138 0.91086 0.0
Nd80 Nd 0.4178 0.95687 0.05621 0.0
Nd81 Nd 0.42346 0.91708 1.00688 0.0
C82 C 0.41979 0.9891 0.11707 0.0
C83 C 0.41933 0.9898 0.16788 0.0
C84 C 0.44067 0.00624 0.19218 0.0
C85 C 0.4409 0.00644 0.24018 0.0
C86 C 0.41968 0.99037 0.26495 0.0
C87 C 0.39829 0.97401 0.24062 0.0
C88 C 0.39812 0.97367 0.19264 0.0
C89 C 0.37447 0.91812 1.02459 0.0
C90 C 0.41976 0.91314 0.11654 0.0
C91 C 0.4208 0.88483 0.94514 0.0
C92 C 0.42687 0.8856 0.89556 0.0
C93 C 0.41463 0.89136 0.8615 0.0
C94 C 0.42161 0.89325 0.81528 0.0
C95 C 0.44113 0.88966 0.80209 0.0
C96 C 0.45294 0.88336 0.83604 0.0
C97 C 0.44582 0.88124 0.88209 0.0
C98 C 0.46588 0.95575 0.04096 0.0
C99 C 0.42691 0.9649 0.94908 0.0
O100 O 0.43928 0.99015 0.09893 0.0
O101 O 0.39952 0.97343 0.0959 0.0
O102 O 0.38079 0.94111 1.02051 0.0
O103 O 0.39143 0.91619 0.04396 0.0
O104 O 0.42323 0.93563 0.11467 0.0
O105 O 0.41623 0.89982 0.07899 0.0
O106 O 0.40203 0.88748 0.95616 0.0
O107 O 0.43943 0.89653 0.97321 0.0
O108 O 0.46149 0.93325 0.04176 0.0
O109 O 0.44889 0.95672 1.02029 0.0
O110 O 0.42225 0.94184 0.94846 0.0
O111 O 0.42896 0.97654 0.9879 0.0
H112 H 0.45726 0.0189 0.174 0.0
H113 H 0.45759 0.01942 0.2579 0.0
H114 H 0.38174 0.96121 0.25871 0.0
H115 H 0.38141 0.9606 0.17507 0.0
H116 H 0.39997 0.89489 0.87058 0.0
H117 H 0.41233 0.8984 0.79009 0.0
H118 H 0.46791 0.88028 0.82703 0.0
H119 H 0.45548 0.87662 0.9074 0.0
Nd120 Nd 0.45184 0.02735 0.6722 0.0
Nd121 Nd 0.49846 0.06674 0.72027 0.0
C122 C 0.42027 -0.00427 0.61201 0.0
C123 C 0.41942 -0.00569 0.56113 0.0
C124 C 0.4263 0.97901 0.53804 0.0
C125 C 0.42659 0.97836 0.49006 0.0
C126 C 0.41963 -0.00729 0.46406 0.0
C127 C 0.41243 0.00775 0.48714 0.0
C128 C 0.41236 0.00857 0.53507 0.0
C129 C 0.44828 0.06542 0.70928 0.0
C130 C 0.49736 0.07071 0.61076 0.0
C131 C 0.52908 0.09868 0.78146 0.0
C132 C 0.53429 0.09805 0.83112 0.0
C133 C 0.51606 0.09175 0.86485 0.0
C134 C 0.52114 0.08999 0.91117 0.0
C135 C 0.54445 0.09423 0.92475 0.0
C136 C 0.56275 0.10102 0.8911 0.0
C137 C 0.55776 0.10301 0.84496 0.0
C138 C 0.50118 0.02814 0.68338 0.0
C139 C 0.45438 0.01882 0.77869 0.0
O140 O 0.43725 -0.00717 0.63207 0.0
O141 O 0.41759 0.0131 0.63116 0.0
O142 O 0.43143 0.04245 0.71282 0.0
O143 O 0.46658 0.06785 0.68691 0.0
O144 O 0.47811 0.04835 0.61308 0.0
O145 O 0.50778 0.084 0.64811 0.0
O146 O 0.50808 0.097 0.77018 0.0
O147 O 0.53511 0.08606 0.75402 0.0
O148 O 0.51951 0.05056 0.68261 0.0
O149 O 0.4836 0.02716 0.70538 0.0
O150 O 0.47315 0.04173 0.77916 0.0
O151 O 0.44407 0.00738 0.74004 0.0
H152 H 0.43155 0.96758 0.55709 0.0
H153 H 0.43194 0.96635 0.47331 0.0
H154 H 0.4072 0.0192 0.46809 0.0
H155 H 0.40693 0.02057 0.55161 0.0
H156 H 0.49772 0.0877 0.85542 0.0
H157 H 0.50655 0.08443 0.93612 0.0
H158 H 0.58095 0.10458 0.90042 0.0
H159 H 0.57219 0.10801 0.81985 0.0
Nd160 Nd 0.95275 0.41789 0.66756 0.0
Nd161 Nd 0.91345 0.42546 0.71586 0.0
C162 C 0.98367 0.41734 0.60674 0.0
C163 C 0.98573 0.41979 0.55625 0.0
C164 C 0.9839 0.4385 0.53338 0.0
C165 C 0.98461 0.43974 0.4854 0.0
C166 C 0.98673 0.42205 0.45938 0.0
C167 C 0.98864 0.40342 0.48234 0.0
C168 C 0.98826 0.40238 0.53029 0.0
C169 C 0.91409 0.37654 0.70349 0.0
C170 C 0.91038 0.42196 0.60635 0.0
C171 C 0.88183 0.42355 0.77817 0.0
C172 C 0.88463 0.43077 0.82719 0.0
C173 C 0.86404 0.42245 0.85584 0.0
C174 C 0.86686 0.42981 0.90211 0.0
C175 C 0.89036 0.44571 0.92047 0.0
C176 C 0.91094 0.45346 0.8917 0.0
C177 C 0.90811 0.44611 0.84571 0.0
C178 C 0.95256 0.46689 0.68114 0.0
C179 C 0.96142 0.42866 0.77439 0.0
O180 O 0.98818 0.43691 0.63028 0.0
O181 O 0.96467 0.39736 0.62221 0.0
O182 O 0.93684 0.3818 0.70653 0.0
O183 O 0.91208 0.39268 0.6814 0.0
O184 O 0.93299 0.4258 0.60967 0.0
O185 O 0.89643 0.4178 0.64315 0.0
O186 O 0.88466 0.40479 0.76819 0.0
O187 O 0.8929 0.44155 0.74882 0.0
O188 O 0.93034 0.46342 0.68115 0.0
O189 O 0.95318 0.44975 0.70179 0.0
O190 O 0.93871 0.42509 0.7745 0.0
O191 O 0.97272 0.42928 0.73592 0.0
H192 H 0.98142 0.45188 0.55247 0.0
H193 H 0.98282 0.45414 0.46864 0.0
H194 H -0.00951 0.38965 0.46317 0.0
H195 H -0.01042 0.38773 0.54712 0.0
H196 H 0.84575 0.41049 0.84232 0.0
H197 H 0.85062 0.42358 0.92312 0.0
H198 H 0.92937 0.46532 0.90473 0.0
H199 H 0.92431 0.45264 0.82446 0.0
Nd200 Nd 0.5624 0.53096 0.67136 0.0
Nd201 Nd 0.55534 0.48417 0.71794 0.0
C202 C 0.56378 0.56309 0.61118 0.0
C203 C 0.56131 0.56299 0.56066 0.0
C204 C 0.54308 0.54227 0.53715 0.0
C205 C 0.54182 0.54202 0.48915 0.0
C206 C 0.55907 0.56233 0.46368 0.0
C207 C 0.57725 0.58303 0.48729 0.0
C208 C 0.57828 0.58339 0.53528 0.0
C209 C 0.60397 0.53448 0.70883 0.0
C210 C 0.55927 0.48542 0.60855 0.0
C211 C 0.5575 0.45411 0.77894 0.0
C212 C 0.54919 0.44784 0.82727 0.0
C213 C 0.56538 0.44851 0.86137 0.0
C214 C 0.55811 0.44419 0.90761 0.0
C215 C 0.53447 0.43916 0.92072 0.0
C216 C 0.51811 0.43776 0.88613 0.0
C217 C 0.52539 0.4422 0.8402 0.0
C218 C 0.51376 0.48116 0.68168 0.0
C219 C 0.55024 0.52754 0.77783 0.0
O220 O 0.54409 0.54828 0.63447 0.0
O221 O 0.58349 0.56342 0.62655 0.0
O222 O 0.59755 0.55106 0.71331 0.0
O223 O 0.58832 0.51635 0.68562 0.0
O224 O 0.55498 0.50387 0.61241 0.0
O225 O 0.56373 0.47573 0.64513 0.0
O226 O 0.57574 0.47639 0.77168 0.0
O227 O 0.54035 0.44691 0.74743 0.0
O228 O 0.51767 0.46271 0.68157 0.0
O229 O 0.53045 0.49885 0.70348 0.0
O230 O 0.5539 0.50845 0.77762 0.0
O231 O 0.5501 0.53864 0.73956 0.0
H232 H 0.53015 0.52605 0.55578 0.0
H233 H 0.5278 0.52569 0.47191 0.0
H234 H 0.59069 0.59901 0.46859 0.0
H235 H 0.59259 0.5995 0.55259 0.0
H236 H 0.58385 0.45288 0.85236 0.0
H237 H 0.57126 0.44558 0.9332 0.0
H238 H 0.49958 0.43344 0.89455 0.0
H239 H 0.51243 0.44156 0.81493 0.0
Nd240 Nd 0.91375 0.48348 0.21703 0.0
Nd241 Nd 0.95221 0.53058 0.16945 0.0
C242 C 0.88178 0.45325 0.2782 0.0
C243 C 0.88422 0.44859 0.32715 0.0
C244 C 0.86339 0.43569 0.355 0.0
C245 C 0.8659 0.4309 0.4012 0.0
C246 C 0.88933 0.43885 0.42022 0.0
C247 C 0.91013 0.45235 0.3923 0.0
C248 C 0.9076 0.45713 0.3464 0.0
C249 C 0.95361 0.48219 0.18332 0.0
C250 C 0.96066 0.52902 0.27647 0.0
C251 C 0.98292 0.56285 0.10948 0.0
C252 C 0.9854 0.5629 0.05904 0.0
C253 C 0.98327 0.54237 1.03551 0.0
C254 C 0.98473 0.54236 0.98759 0.0
C255 C 0.98806 0.56278 0.96199 0.0
C256 C -0.00997 0.58323 0.98585 0.0
C257 C -0.01117 0.5833 1.03377 0.0
C258 C 0.91175 0.53159 0.2025 0.0
C259 C 0.91132 0.48361 0.10726 0.0
O260 O 0.88452 0.47483 0.2687 0.0
O261 O 0.89324 0.44664 0.249 0.0
O262 O 0.93162 0.46307 0.18339 0.0
O263 O 0.95372 0.49981 0.20378 0.0
O264 O 0.93826 0.50937 0.27632 0.0
O265 O 0.97183 0.53994 0.23814 0.0
O266 O 0.98782 0.54802 0.13266 0.0
O267 O 0.96349 0.56309 0.12476 0.0
O268 O 0.93431 0.54931 0.20736 0.0
O269 O 0.91126 0.51387 0.1812 0.0
O270 O 0.93366 0.50281 0.11099 0.0
O271 O 0.89727 0.47363 0.14385 0.0
H272 H 0.84517 0.42906 0.34089 0.0
H273 H 0.84952 0.42041 0.42163 0.0
H274 H 0.92847 0.45918 0.40592 0.0
H275 H 0.92396 0.4673 0.32577 0.0
H276 H 0.98018 0.5262 0.05409 0.0
H277 H 0.98336 0.52636 0.97073 0.0
H278 H -0.00795 0.59909 0.96754 0.0
H279 H -0.0098 0.59921 0.05112 0.0
Nd280 Nd 0.49692 0.42617 0.21788 0.0
Nd281 Nd 0.4501 0.4179 0.16854 0.0
C282 C 0.52673 0.42426 0.28021 0.0
C283 C 0.53144 0.43155 0.32919 0.0
C284 C 0.54478 0.42412 0.3571 0.0
C285 C 0.54974 0.43169 0.40323 0.0
C286 C 0.54153 0.44694 0.4222 0.0
C287 C 0.52761 0.45376 0.39422 0.0
C288 C 0.52266 0.44618 0.34836 0.0
C289 C 0.49829 0.46773 0.18618 0.0
C290 C 0.45085 0.42711 0.27575 0.0
C291 C 0.41812 0.41644 0.10765 0.0
C292 C 0.4183 0.41912 0.05724 0.0
C293 C 0.43846 0.43835 1.03448 0.0
C294 C 0.43902 0.43956 0.9865 0.0
C295 C 0.41954 0.42139 0.96035 0.0
C296 C 0.39926 0.40239 0.98328 0.0
C297 C 0.39863 0.40132 1.0312 0.0
C298 C 0.44861 0.37674 0.20273 0.0
C299 C 0.49823 0.42582 0.10839 0.0
O300 O 0.50502 0.40557 0.27045 0.0
O301 O 0.53365 0.44222 0.2508 0.0
O302 O 0.51749 0.46501 0.18658 0.0
O303 O 0.48049 0.44977 0.2051 0.0
O304 O 0.47037 0.42415 0.27613 0.0
O305 O 0.44041 0.42796 0.23707 0.0
O306 O 0.43267 0.43607 0.13158 0.0
O307 O 0.41804 0.3968 0.12249 0.0
O308 O 0.43066 0.38128 0.20608 0.0
O309 O 0.46657 0.39346 0.18118 0.0
O310 O 0.479 0.42889 0.11199 0.0
O311 O 0.5072 0.42015 0.14464 0.0
H312 H 0.55163 0.41272 0.34308 0.0
H313 H 0.56055 0.42617 0.42364 0.0
H314 H 0.52056 0.46508 0.40776 0.0
H315 H 0.51217 0.452 0.32769 0.0
H316 H 0.454 0.45217 0.0537 0.0
H317 H 0.45499 0.45429 0.96985 0.0
H318 H 0.38384 0.3883 0.9641 0.0
H319 H 0.38293 0.38631 0.04795 0.0
Nd320 Nd 0.55345 0.06565 0.22038 0.0
Nd321 Nd 0.5625 0.02776 0.17159 0.0
C322 C 0.55401 0.09729 0.28133 0.0
C323 C 0.54798 0.09682 0.33083 0.0
C324 C 0.5602 0.09122 0.36519 0.0
C325 C 0.5534 0.08989 0.41144 0.0
C326 C 0.53411 0.0939 0.42435 0.0
C327 C 0.52227 0.09995 0.39003 0.0
C328 C 0.5292 0.10149 0.34395 0.0
C329 C 0.51266 0.02576 0.18492 0.0
C330 C 0.55254 0.01904 0.27854 0.0
C331 C 0.56295 -0.00339 0.11101 0.0
C332 C 0.56275 -0.00452 0.06014 0.0
C333 C 0.54093 0.97943 0.03662 0.0
C334 C 0.54021 0.97886 0.98864 0.0
C335 C 0.56139 -0.00587 0.96304 0.0
C336 C 0.58327 0.01002 0.98655 0.0
C337 C 0.58395 0.01073 1.03452 0.0
C338 C 0.60414 0.06833 0.20446 0.0
C339 C 0.55757 0.0697 0.11064 0.0
O340 O 0.57353 0.09586 0.27068 0.0
O341 O 0.53549 0.08443 0.25361 0.0
O342 O 0.5156 0.04775 0.18463 0.0
O343 O 0.53003 0.02574 0.20605 0.0
O344 O 0.55554 0.04151 0.27915 0.0
O345 O 0.55193 0.00793 0.2398 0.0
O346 O 0.54289 -0.00637 0.13033 0.0
O347 O 0.58286 0.01379 0.131 0.0
O348 O 0.5994 0.0458 0.20876 0.0
O349 O 0.58658 0.06869 0.18407 0.0
O350 O 0.55555 0.04779 0.11273 0.0
O351 O 0.56012 0.08276 0.14814 0.0
H352 H 0.57471 0.08742 0.35635 0.0
H353 H 0.56269 0.0849 0.4369 0.0
H354 H 0.50747 0.10332 0.39879 0.0
H355 H 0.51956 0.10598 0.31836 0.0
H356 H 0.52434 0.96733 0.05536 0.0
H357 H 0.52313 0.96621 0.97159 0.0
H358 H 0.59984 0.02219 0.96782 0.0
H359 H 0.60107 0.02338 0.05142 0.0
Nd360 Nd 0.47913 0.91789 0.50646 0.0
Nd361 Nd 0.5259 0.95632 0.55554 0.0
C362 C 0.44841 0.88566 0.4458 0.0
C363 C 0.44299 0.88588 0.39617 0.0
C364 C 0.46114 0.89213 0.36231 0.0
C365 C 0.45584 0.89344 0.31595 0.0
C366 C 0.43237 0.88878 0.30248 0.0
C367 C 0.41414 0.88202 0.33628 0.0
C368 C 0.41937 0.88049 0.38246 0.0
C369 C 0.47782 0.95779 0.54022 0.0
C370 C 0.52484 0.96452 0.44827 0.0
C371 C 0.55737 0.98793 0.61591 0.0
C372 C 0.55858 0.98919 0.66677 0.0
C373 C 0.55227 0.00477 0.69042 0.0
C374 C 0.55244 0.00547 0.7384 0.0
C375 C 0.55925 0.99083 0.76387 0.0
C376 C 0.56579 0.97543 0.74022 0.0
C377 C 0.56543 0.97458 0.69226 0.0
C378 C 0.52726 0.91587 0.5234 0.0
C379 C 0.47902 0.91442 0.61643 0.0
O380 O 0.46949 0.88749 0.45696 0.0
O381 O 0.44243 0.89844 0.47294 0.0
O382 O 0.45882 0.93575 0.54058 0.0
O383 O 0.4954 0.95784 0.51988 0.0
O384 O 0.50546 0.94196 0.44768 0.0
O385 O 0.53514 0.97583 0.48704 0.0
O386 O 0.53989 0.99038 0.59683 0.0
O387 O 0.56046 0.97101 0.59588 0.0
O388 O 0.54512 0.93839 0.51942 0.0
O389 O 0.5093 0.9154 0.54364 0.0
O390 O 0.49884 0.9364 0.61426 0.0
O391 O 0.46864 0.90117 0.57902 0.0
H392 H 0.47959 0.8965 0.37165 0.0
H393 H 0.47036 0.89899 0.29087 0.0
H394 H 0.39584 0.87816 0.32702 0.0
H395 H 0.405 0.87551 0.4077 0.0
H396 H 0.54711 0.0164 0.67178 0.0
H397 H 0.54758 0.01775 0.75555 0.0
H398 H 0.57087 0.96374 0.75884 0.0
H399 H 0.57036 0.96233 0.67526 0.0
Nd400 Nd 0.06278 0.55964 0.50596 0.0
Nd401 Nd 0.02402 0.56799 0.55417 0.0
C402 C 0.09418 0.56096 0.4437 0.0
C403 C 0.09152 0.55368 0.39471 0.0
C404 C 0.11223 0.56203 0.36633 0.0
C405 C 0.10961 0.55459 0.32013 0.0
C406 C 0.0862 0.53855 0.30155 0.0
C407 C 0.0655 0.53076 0.33004 0.0
C408 C 0.06813 0.53821 0.37596 0.0
C409 C 0.02368 0.51863 0.54173 0.0
C410 C 0.01475 0.55648 0.44764 0.0
C411 C -0.00647 0.5693 0.61508 0.0
C412 C -0.00865 0.56672 0.66555 0.0
C413 C -0.00682 0.54798 0.68832 0.0
C414 C -0.00765 0.54661 0.73629 0.0
C415 C -0.00992 0.56419 0.76244 0.0
C416 C 0.98817 0.58285 0.73955 0.0
C417 C 0.9887 0.58403 0.69161 0.0
C418 C 0.0627 0.60881 0.51662 0.0
C419 C 0.06614 0.56348 0.61548 0.0
O420 O 0.0916 0.57989 0.45342 0.0
O421 O 0.08288 0.54303 0.4731 0.0
O422 O 0.04583 0.52191 0.5415 0.0
O423 O 0.02304 0.53569 0.52078 0.0
O424 O 0.03735 0.55975 0.44734 0.0
O425 O 0.0037 0.5563 0.48617 0.0
O426 O 0.98853 0.54964 0.59135 0.0
O427 O 0.01286 0.58904 0.59981 0.0
O428 O 0.03998 0.60366 0.51366 0.0
O429 O 0.06463 0.59285 0.53952 0.0
O430 O 0.04366 0.56001 0.61222 0.0
O431 O 0.07995 0.56732 0.57859 0.0
H432 H 0.13045 0.57408 0.38002 0.0
H433 H 0.12593 0.56087 0.29935 0.0
H434 H 0.04714 0.51879 0.31683 0.0
H435 H 0.05184 0.53168 0.39699 0.0
H436 H -0.00427 0.53467 0.66913 0.0
H437 H -0.00585 0.5322 0.75295 0.0
H438 H 0.98619 0.59652 0.75877 0.0
H439 H 0.98738 0.59869 0.67486 0.0
Nd440 Nd 0.42187 0.49889 0.50655 0.0
Nd441 Nd 0.41435 0.45235 0.5539 0.0
C442 C 0.41966 0.52889 0.44531 0.0
C443 C 0.42717 0.53409 0.39661 0.0
C444 C 0.41864 0.54641 0.36855 0.0
C445 C 0.42622 0.55168 0.32258 0.0
C446 C 0.44259 0.54483 0.30392 0.0
C447 C 0.4506 0.53198 0.33208 0.0
C448 C 0.44299 0.52669 0.37777 0.0
C449 C 0.46378 0.50115 0.53921 0.0
C450 C 0.42419 0.45393 0.44708 0.0
C451 C 0.41272 0.41997 0.61365 0.0
C452 C 0.41579 0.42009 0.66394 0.0
C453 C 0.43479 0.4405 0.68674 0.0
C454 C 0.43652 0.44096 0.73466 0.0
C455 C 0.41915 0.42103 0.76089 0.0
C456 C 0.4002 0.40058 0.73776 0.0
C457 C 0.39861 0.40012 0.68987 0.0
C458 C 0.37269 0.44994 0.51909 0.0
C459 C 0.42105 0.49948 0.61607 0.0
O460 O 0.40115 0.50698 0.45409 0.0
O461 O 0.43752 0.53582 0.47518 0.0
O462 O 0.46042 0.51994 0.53943 0.0
O463 O 0.44626 0.48332 0.51915 0.0
O464 O 0.42087 0.47321 0.44722 0.0
O465 O 0.42503 0.44335 0.48547 0.0
O466 O 0.43227 0.4343 0.58956 0.0
O467 O 0.39315 0.42031 0.59948 0.0
O468 O 0.37837 0.43287 0.51393 0.0
O469 O 0.38906 0.46789 0.54158 0.0
O470 O 0.42468 0.48064 0.61175 0.0
O471 O 0.41523 0.50844 0.58003 0.0
H472 H 0.40631 0.55218 0.38232 0.0
H473 H 0.41976 0.56166 0.30202 0.0
H474 H 0.46283 0.52598 0.31878 0.0
H475 H 0.44966 0.51696 0.39855 0.0
H476 H 0.44813 0.45625 0.66756 0.0
H477 H 0.45151 0.45691 0.75105 0.0
H478 H 0.3862 0.3851 0.75666 0.0
H479 H 0.38363 0.3843 0.67307 0.0
Nd480 Nd 0.69135 0.78775 0.39455 0.0
Nd481 Nd 0.72942 0.83406 0.34537 0.0
C482 C 0.66219 0.75595 0.45691 0.0
C483 C 0.66167 0.75603 0.50785 0.0
C484 C 0.65892 0.77376 0.53248 0.0
C485 C 0.65964 0.77424 0.58052 0.0
C486 C 0.6633 0.75709 0.60526 0.0
C487 C 0.66594 0.7393 0.58041 0.0
C488 C 0.66504 0.73874 0.53239 0.0
C489 C 0.73203 0.78659 0.36354 0.0
C490 C 0.73104 0.83615 0.45501 0.0
C491 C 0.76134 0.86385 0.28357 0.0
C492 C 0.7588 0.86868 0.23475 0.0
C493 C 0.77957 0.88173 0.20682 0.0
C494 C 0.77698 0.88695 0.16092 0.0
C495 C 0.75354 0.87934 0.14233 0.0
C496 C 0.73279 0.86567 0.17026 0.0
C497 C 0.73539 0.8604 0.21583 0.0
C498 C 0.68939 0.83579 0.37738 0.0
C499 C 0.68283 0.78743 0.2872 0.0
O500 O 0.65697 0.77103 0.43546 0.0
O501 O 0.68059 0.75501 0.43823 0.0
O502 O 0.7095 0.76899 0.35809 0.0
O503 O 0.73251 0.80463 0.38365 0.0
O504 O 0.70892 0.81668 0.45125 0.0
O505 O 0.74566 0.8451 0.4188 0.0
O506 O 0.75815 0.84208 0.29289 0.0
O507 O 0.75033 0.87079 0.31314 0.0
O508 O 0.71132 0.85493 0.37599 0.0
O509 O 0.68932 0.81783 0.35823 0.0
O510 O 0.70527 0.80702 0.28689 0.0
O511 O 0.67145 0.77737 0.32596 0.0
H512 H 0.65642 0.78745 0.51473 0.0
H513 H 0.65714 0.788 0.59818 0.0
H514 H 0.66919 0.72603 0.59795 0.0
H515 H 0.66736 0.72496 0.51433 0.0
H516 H 0.79781 0.88818 0.22067 0.0
H517 H 0.79332 0.89755 0.14044 0.0
H518 H 0.71444 0.85911 0.15691 0.0
H519 H 0.71906 0.85011 0.23653 0.0
Nd520 Nd 0.19563 0.9021 0.38957 0.0
Nd521 Nd 0.14691 0.89063 0.34326 0.0
C522 C 0.22901 0.90606 0.44967 0.0
C523 C 0.22884 0.90305 0.5 0.0
C524 C 0.20816 0.88438 0.52243 0.0
C525 C 0.20778 0.88232 0.57027 0.0
C526 C 0.22796 0.89919 0.59696 0.0
C527 C 0.24857 0.918 0.57417 0.0
C528 C 0.24902 0.91981 0.52628 0.0
C529 C 0.19543 0.94128 0.3497 0.0
C530 C 0.14885 0.89639 0.45237 0.0
C531 C 0.1151 0.88928 0.28181 0.0
C532 C 0.1095 0.88134 0.2329 0.0
C533 C 0.11217 0.89822 0.19857 0.0
C534 C 0.10816 0.89118 0.1521 0.0
C535 C 0.10141 0.86706 0.13886 0.0
C536 C 0.09801 0.85004 0.17354 0.0
C537 C 0.10209 0.85708 0.21974 0.0
C538 C 0.14755 0.85163 0.38313 0.0
C539 C 0.19171 0.88838 0.28339 0.0
O540 O 0.21558 0.8862 0.42537 0.0
O541 O 0.22739 0.92488 0.43533 0.0
O542 O 0.2135 0.93689 0.34663 0.0
O543 O 0.17812 0.92529 0.3737 0.0
O544 O 0.16865 0.89425 0.44886 0.0
O545 O 0.13786 0.89892 0.41556 0.0
O546 O 0.13627 0.90906 0.29017 0.0
O547 O 0.10957 0.87212 0.31252 0.0
O548 O 0.12805 0.85387 0.38245 0.0
O549 O 0.16435 0.86835 0.35994 0.0
O550 O 0.17155 0.89022 0.28373 0.0
O551 O 0.20384 0.88996 0.32144 0.0
H552 H 0.19214 0.87154 0.50301 0.0
H553 H 0.19165 0.86744 0.58618 0.0
H554 H 0.26426 0.93171 0.59329 0.0
H555 H 0.26502 0.9346 0.50978 0.0
H556 H 0.1178 0.91704 0.20764 0.0
H557 H 0.11108 0.90482 0.12647 0.0
H558 H 0.09229 0.83117 0.16496 0.0
H559 H 0.09972 0.84348 0.24505 0.0
Nd560 Nd 0.08379 0.29088 0.39106 0.0
Nd561 Nd 0.0905 0.25144 0.34204 0.0
C562 C 0.08507 0.32315 0.45113 0.0
C563 C 0.08418 0.3239 0.50169 0.0
C564 C 0.10061 0.34541 0.52535 0.0
C565 C 0.10083 0.34603 0.57338 0.0
C566 C 0.08467 0.32505 0.59879 0.0
C567 C 0.06834 0.30347 0.5748 0.0
C568 C 0.06806 0.30292 0.52683 0.0
C569 C 0.04118 0.25154 0.35841 0.0
C570 C 0.08638 0.24753 0.45184 0.0
C571 C 0.08813 0.21919 0.28067 0.0
C572 C 0.09623 0.22087 0.2322 0.0
C573 C 0.07892 0.20877 0.197 0.0
C574 C 0.08627 0.21164 0.15085 0.0
C575 C 0.11113 0.22673 0.13893 0.0
C576 C 0.12849 0.23805 0.17445 0.0
C577 C 0.12117 0.23526 0.22034 0.0
C578 C 0.13249 0.29071 0.37589 0.0
C579 C 0.09366 0.29919 0.28375 0.0
O580 O 0.10475 0.32417 0.4341 0.0
O581 O 0.06499 0.30718 0.42982 0.0
O582 O 0.04677 0.27436 0.35496 0.0
O583 O 0.05821 0.25008 0.37853 0.0
O584 O 0.0894 0.26987 0.44993 0.0
O585 O 0.08311 0.23428 0.4143 0.0
O586 O 0.06993 0.22329 0.28821 0.0
O587 O 0.10535 0.22913 0.31204 0.0
O588 O 0.12881 0.26845 0.37617 0.0
O589 O 0.1152 0.29117 0.35541 0.0
O590 O 0.08982 0.27639 0.28317 0.0
O591 O 0.09493 0.31056 0.32257 0.0
H592 H 0.1134 0.36172 0.50663 0.0
H593 H 0.11351 0.36303 0.59054 0.0
H594 H 0.05598 0.28681 0.59306 0.0
H595 H 0.05544 0.28596 0.50942 0.0
H596 H 0.05958 0.1975 0.20513 0.0
H597 H 0.07239 0.20276 0.12448 0.0
H598 H 0.14787 0.24942 0.16677 0.0
H599 H 0.13509 0.2448 0.24639 0.0
Nd600 Nd 0.11694 0.36153 1.00623 0.0
Nd601 Nd 0.16393 0.40058 0.05299 0.0
C602 C 0.08413 0.33096 0.94636 0.0
C603 C 0.08383 0.3287 0.89576 0.0
C604 C 0.10293 0.32785 0.87232 0.0
C605 C 0.10308 0.32701 0.82437 0.0
C606 C 0.08421 0.32722 0.79861 0.0
C607 C 0.06511 0.32808 0.82228 0.0
C608 C 0.0649 0.32872 0.87027 0.0
C609 C 0.11546 0.40202 0.03781 0.0
C610 C 0.16372 0.40131 0.94331 0.0
C611 C 0.19427 0.43342 0.11327 0.0
C612 C 0.20119 0.43233 0.16182 0.0
C613 C 0.19276 0.44122 0.19774 0.0
C614 C 0.1978 0.43866 0.24375 0.0
C615 C 0.2114 0.42714 0.25489 0.0
C616 C 0.22068 0.41923 0.21878 0.0
C617 C 0.21563 0.42175 0.173 0.0
C618 C 0.16584 0.36079 1.02024 0.0
C619 C 0.11936 0.35339 0.11315 0.0
O620 O 0.09895 0.32587 0.96919 0.0
O621 O 0.0841 0.35039 0.96226 0.0
O622 O 0.09827 0.37941 0.04417 0.0
O623 O 0.13329 0.4026 1.01682 0.0
O624 O 0.14476 0.37894 0.94789 0.0
O625 O 0.17304 0.41622 0.97921 0.0
O626 O 0.17189 0.42918 0.10596 0.0
O627 O 0.20136 0.42326 0.08206 0.0
O628 O 0.1848 0.38287 1.02048 0.0
O629 O 0.14815 0.36061 0.04051 0.0
O630 O 0.13896 0.37585 0.11284 0.0
O631 O 0.10812 0.34214 0.0749 0.0
H632 H 0.11794 0.32817 0.89099 0.0
H633 H 0.11795 0.32607 0.80757 0.0
H634 H 0.0505 0.32874 0.80377 0.0
H635 H 0.05012 0.32966 0.88751 0.0
H636 H 0.18176 0.44966 0.1903 0.0
H637 H 0.19027 0.44488 0.27059 0.0
H638 H 0.23163 0.41071 0.22591 0.0
H639 H 0.22272 0.41492 0.14644 0.0
Nd640 Nd 0.62415 0.75379 1.00445 0.0
Nd641 Nd 0.58315 0.75712 0.0569 0.0
C642 C 0.66122 0.75976 0.95308 0.0
C643 C 0.66334 0.76007 0.9023 0.0
C644 C 0.65666 0.77449 0.87566 0.0
C645 C 0.65785 0.77436 0.82783 0.0
C646 C 0.66541 0.75953 0.80516 0.0
C647 C 0.67196 0.74495 0.83167 0.0
C648 C 0.67105 0.74532 0.8798 0.0
C649 C 0.57942 0.71103 1.00427 0.0
C650 C 0.58167 0.75722 0.94664 0.0
C651 C 0.5514 0.75423 0.12015 0.0
C652 C 0.55386 0.76282 0.16866 0.0
C653 C 0.54111 0.74614 0.20419 0.0
C654 C 0.54402 0.7541 0.25014 0.0
C655 C 0.55979 0.77897 0.26165 0.0
C656 C 0.57205 0.79566 0.22574 0.0
C657 C 0.56925 0.78772 0.1801 0.0
C658 C 0.62078 0.80059 1.02339 0.0
C659 C 0.62968 0.75894 0.11515 0.0
O660 O 0.65966 0.77802 0.97098 0.0
O661 O 0.64605 0.73864 0.97224 0.0
O662 O 0.59426 0.71929 0.96978 0.0
O663 O 0.58861 0.72504 0.03868 0.0
O664 O 0.6054 0.76492 0.9502 0.0
O665 O 0.56695 0.74901 0.98297 0.0
O666 O 0.55578 0.73631 0.11182 0.0
O667 O 0.56047 0.77115 0.08848 0.0
O668 O 0.59795 0.79523 1.02329 0.0
O669 O 0.62257 0.78369 0.04253 0.0
O670 O 0.61031 0.762 0.11482 0.0
O671 O 0.63817 0.75409 0.07741 0.0
H672 H 0.65011 0.78566 0.89169 0.0
H673 H 0.65225 0.78545 0.80851 0.0
H674 H 0.67793 0.73338 0.81518 0.0
H675 H 0.67614 0.73392 0.89941 0.0
H676 H 0.52911 0.72684 0.19648 0.0
H677 H 0.53441 0.74065 0.2767 0.0
H678 H 0.58397 0.81504 0.23281 0.0
H679 H 0.57936 0.80118 0.15382 0.0
Nd680 Nd 0.22939 0.86351 1.0049 0.0
Nd681 Nd 0.22269 0.81731 0.05316 0.0
C682 C 0.23056 0.89533 0.94414 0.0
C683 C 0.22868 0.8955 0.89355 0.0
C684 C 0.21075 0.87492 0.86925 0.0
C685 C 0.20995 0.8751 0.82123 0.0
C686 C 0.22733 0.89569 0.79656 0.0
C687 C 0.24523 0.91623 0.82097 0.0
C688 C 0.24581 0.91616 0.86895 0.0
C689 C 0.27126 0.86758 0.04215 0.0
C690 C 0.22606 0.81726 0.9437 0.0
C691 C 0.22482 0.78776 0.11561 0.0
C692 C 0.21798 0.78373 0.16475 0.0
C693 C 0.22488 0.77006 0.19287 0.0
C694 C 0.21756 0.76573 0.23913 0.0
C695 C 0.20317 0.77498 0.25798 0.0
C696 C 0.197 0.78929 0.22977 0.0
C697 C 0.20416 0.79346 0.1838 0.0
C698 C 0.18098 0.81362 1.01603 0.0
C699 C 0.2181 0.86131 0.11138 0.0
O700 O 0.21075 0.88006 0.96662 0.0
O701 O 0.25035 0.89614 0.96039 0.0
O702 O 0.26469 0.88406 0.04633 0.0
O703 O 0.2555 0.84917 1.01965 0.0
O704 O 0.22228 0.83608 0.94668 0.0
O705 O 0.23032 0.8077 0.98072 0.0
O706 O 0.24363 0.80919 0.10511 0.0
O707 O 0.20656 0.78086 0.0867 0.0
O708 O 0.18515 0.79535 1.01674 0.0
O709 O 0.19751 0.83159 0.03764 0.0
O710 O 0.22254 0.84276 0.11167 0.0
O711 O 0.21699 0.87157 0.07272 0.0
H712 H 0.19764 0.85853 0.88728 0.0
H713 H 0.19613 0.8589 0.80336 0.0
H714 H 0.25875 0.93242 0.80289 0.0
H715 H 0.25987 0.93218 0.88689 0.0
H716 H 0.23561 0.76243 0.17891 0.0
H717 H 0.22257 0.75457 0.25969 0.0
H718 H 0.18641 0.79721 0.24315 0.0
H719 H 0.19857 0.80404 0.16294 0.0
Nd720 Nd 0.58205 0.81796 0.55889 0.0
Nd721 Nd 0.61936 0.86537 0.51245 0.0
C722 C 0.55029 0.78698 0.61957 0.0
C723 C 0.55286 0.7824 0.66851 0.0
C724 C 0.53213 0.76808 0.69585 0.0
C725 C 0.5349 0.7633 0.74195 0.0
C726 C 0.55847 0.77269 0.76136 0.0
C727 C 0.5791 0.78762 0.73397 0.0
C728 C 0.57633 0.79233 0.68818 0.0
C729 C 0.62217 0.81735 0.52459 0.0
C730 C 0.62822 0.86395 0.61899 0.0
C731 C 0.6486 0.89925 0.45337 0.0
C732 C 0.65062 0.89972 0.40281 0.0
C733 C 0.6535 0.88187 0.379 0.0
C734 C 0.65353 0.88147 0.33107 0.0
C735 C 0.65036 0.89873 0.30571 0.0
C736 C 0.64769 0.91672 0.32975 0.0
C737 C 0.64794 0.91726 0.37772 0.0
C738 C 0.57847 0.86497 0.54652 0.0
C739 C 0.58086 0.81761 0.44906 0.0
O740 O 0.55239 0.8083 0.61014 0.0
O741 O 0.56226 0.78097 0.59048 0.0
O742 O 0.60038 0.79799 0.52577 0.0
O743 O 0.62221 0.83494 0.54528 0.0
O744 O 0.606 0.84406 0.61866 0.0
O745 O 0.63935 0.87487 0.58066 0.0
O746 O 0.65494 0.88524 0.47572 0.0
O747 O 0.62859 0.89794 0.46951 0.0
O748 O 0.60086 0.88262 0.55321 0.0
O749 O 0.57824 0.84777 0.52376 0.0
O750 O 0.60264 0.83753 0.45357 0.0
O751 O 0.56626 0.80769 0.48505 0.0
H752 H 0.51384 0.76033 0.68139 0.0
H753 H 0.51865 0.75169 0.76195 0.0
H754 H 0.59753 0.7956 0.74789 0.0
H755 H 0.5926 0.80352 0.66793 0.0
H756 H 0.65531 0.86793 0.39732 0.0
H757 H 0.65604 0.86757 0.31398 0.0
H758 H 0.64481 0.93007 0.3116 0.0
H759 H 0.64545 0.93106 0.39528 0.0
Nd760 Nd 0.16153 0.75733 0.55394 0.0
Nd761 Nd 0.11805 0.75452 0.49965 0.0
C762 C 0.19 0.75359 0.61731 0.0
C763 C 0.19421 0.7602 0.66669 0.0
C764 C 0.20704 0.75219 0.69465 0.0
C765 C 0.21247 0.76001 0.74062 0.0
C766 C 0.20528 0.77612 0.75934 0.0
C767 C 0.1917 0.78338 0.73145 0.0
C768 C 0.18632 0.77559 0.68578 0.0
C769 C 0.16712 0.80145 0.52512 0.0
C770 C 0.11512 0.75674 0.61039 0.0
C771 C 0.08681 0.76001 0.44761 0.0
C772 C 0.08478 0.76014 0.39684 0.0
C773 C 0.10542 0.77569 0.37002 0.0
C774 C 0.10395 0.77512 0.32217 0.0
C775 C 0.08189 0.75881 0.29971 0.0
C776 C 0.06121 0.74327 0.32644 0.0
C777 C 0.06263 0.74401 0.37453 0.0
C778 C 0.12024 0.71179 0.49869 0.0
C779 C 0.16512 0.76027 0.44383 0.0
O780 O 0.16839 0.73533 0.60579 0.0
O781 O 0.19753 0.77206 0.58908 0.0
O782 O 0.18483 0.79647 0.52446 0.0
O783 O 0.14817 0.78369 0.54177 0.0
O784 O 0.13734 0.75929 0.61142 0.0
O785 O 0.1029 0.75357 0.57165 0.0
O786 O 0.1066 0.77841 0.46538 0.0
O787 O 0.08102 0.73898 0.46696 0.0
O788 O 0.11481 0.72079 0.46373 0.0
O789 O 0.1243 0.72539 0.53339 0.0
O790 O 0.14922 0.76807 0.44771 0.0
O791 O 0.17092 0.75107 0.47967 0.0
H792 H 0.21333 0.74032 0.68067 0.0
H793 H 0.22301 0.75412 0.76098 0.0
H794 H 0.18541 0.79538 0.7448 0.0
H795 H 0.17642 0.78208 0.66505 0.0
H796 H 0.12295 0.78808 0.38588 0.0
H797 H 0.12032 0.78703 0.30271 0.0
H798 H 0.0439 0.7306 0.31015 0.0
H799 H 0.0465 0.73178 0.39428 0.0
Nd800 Nd 0.22052 0.40009 0.55221 0.0
Nd801 Nd 0.22718 0.36046 0.50499 0.0
C802 C 0.22296 0.43244 0.61345 0.0
C803 C 0.21459 0.43051 0.66182 0.0
C804 C 0.23147 0.44398 0.69687 0.0
C805 C 0.22401 0.44101 0.74299 0.0
C806 C 0.19947 0.42445 0.7551 0.0
C807 C 0.18249 0.41161 0.71967 0.0
C808 C 0.18994 0.41449 0.67381 0.0
C809 C 0.17825 0.3604 0.52041 0.0
C810 C 0.21794 0.35282 0.61176 0.0
C811 C 0.22641 0.32866 0.44455 0.0
C812 C 0.22647 0.32794 0.39373 0.0
C813 C 0.2057 0.31004 0.36994 0.0
C814 C 0.20516 0.30964 0.32192 0.0
C815 C 0.22548 0.32706 0.29664 0.0
C816 C 0.2462 0.34503 0.32052 0.0
C817 C 0.24669 0.34551 0.36847 0.0
C818 C 0.26992 0.40049 0.53572 0.0
C819 C 0.22271 0.40202 0.44246 0.0
O820 O 0.24108 0.4282 0.60615 0.0
O821 O 0.2059 0.42274 0.58174 0.0
O822 O 0.18188 0.38264 0.51959 0.0
O823 O 0.19573 0.36013 0.54058 0.0
O824 O 0.22162 0.37557 0.61163 0.0
O825 O 0.2166 0.34114 0.57338 0.0
O826 O 0.2066 0.32649 0.46347 0.0
O827 O 0.24652 0.34516 0.46504 0.0
O828 O 0.26435 0.37776 0.54091 0.0
O829 O 0.25271 0.40145 0.51528 0.0
O830 O 0.21917 0.3796 0.44646 0.0
O831 O 0.22755 0.41642 0.47893 0.0
H832 H 0.25059 0.45644 0.68866 0.0
H833 H 0.23763 0.45107 0.76924 0.0
H834 H 0.16333 0.39905 0.72737 0.0
H835 H 0.17637 0.4038 0.64786 0.0
H836 H 0.18981 0.29635 0.38854 0.0
H837 H 0.18898 0.29545 0.3046 0.0
H838 H 0.26199 0.35896 0.30212 0.0
H839 H 0.26287 0.35978 0.38562 0.0
Nd840 Nd 0.14674 0.25204 0.84143 0.0
Nd841 Nd 0.19378 0.29086 0.88884 0.0
C842 C 0.1162 0.21961 0.78079 0.0
C843 C 0.11064 0.22005 0.73122 0.0
C844 C 0.12868 0.22633 0.69711 0.0
C845 C 0.12328 0.22781 0.65086 0.0
C846 C 0.09981 0.22327 0.63766 0.0
C847 C 0.08169 0.21649 0.67172 0.0
C848 C 0.08702 0.2148 0.71781 0.0
C849 C 0.14492 0.29157 0.87555 0.0
C850 C 0.19171 0.29918 0.78235 0.0
C851 C 0.22617 0.32134 0.94938 0.0
C852 C 0.22657 0.32294 1.00027 0.0
C853 C 0.21608 0.33517 1.02324 0.0
C854 C 0.21553 0.33567 0.07121 0.0
C855 C 0.22576 0.32423 0.09739 0.0
C856 C 0.23656 0.31231 0.07443 0.0
C857 C 0.23698 0.31169 1.0265 0.0
C858 C 0.19508 0.25048 0.856 0.0
C859 C 0.14683 0.25062 0.9511 0.0
O860 O 0.13751 0.22187 0.79155 0.0
O861 O 0.10987 0.23188 0.80856 0.0
O862 O 0.126 0.26947 0.87535 0.0
O863 O 0.16262 0.29196 0.85485 0.0
O864 O 0.17239 0.27657 0.78227 0.0
O865 O 0.2025 0.31056 0.82075 0.0
O866 O 0.21068 0.32596 0.92776 0.0
O867 O 0.22717 0.30278 0.93145 0.0
O868 O 0.21246 0.27309 0.85048 0.0
O869 O 0.17736 0.24989 0.87741 0.0
O870 O 0.16613 0.27281 0.94703 0.0
O871 O 0.13712 0.23606 0.91486 0.0
H872 H 0.14713 0.23058 0.70616 0.0
H873 H 0.13774 0.23337 0.62564 0.0
H874 H 0.06338 0.21268 0.66275 0.0
H875 H 0.07272 0.2098 0.7432 0.0
H876 H 0.20826 0.34437 1.0042 0.0
H877 H 0.20741 0.34535 0.08779 0.0
H878 H 0.24442 0.30312 0.09354 0.0
H879 H 0.24531 0.30219 1.01001 0.0
Nd880 Nd 0.72916 0.89399 0.84704 0.0
Nd881 Nd 0.68698 0.90099 0.90165 0.0
C882 C 0.76116 0.89754 0.78426 0.0
C883 C 0.75907 0.8892 0.73576 0.0
C884 C 0.77297 0.90591 0.70102 0.0
C885 C 0.77017 0.89835 0.65487 0.0
C886 C 0.75334 0.87388 0.64245 0.0
C887 C 0.74002 0.8571 0.67762 0.0
C888 C 0.74271 0.86466 0.72346 0.0
C889 C 0.68929 0.85291 0.88052 0.0
C890 C 0.68163 0.89359 0.79074 0.0
C891 C 0.65132 0.89271 0.9593 0.0
C892 C 0.6503 0.89343 1.00998 0.0
C893 C 0.65829 0.88022 0.03704 0.0
C894 C 0.65739 0.88089 0.08479 0.0
C895 C 0.64886 0.89508 0.1067 0.0
C896 C 0.64115 0.90856 0.07982 0.0
C897 C 0.64171 0.9076 1.03182 0.0
C898 C 0.73007 0.94502 0.88928 0.0
C899 C 0.7314 0.89779 0.95825 0.0
O900 O 0.75627 0.91519 0.79233 0.0
O901 O 0.75224 0.8804 0.81579 0.0
O902 O 0.71088 0.8549 0.87688 0.0
O903 O 0.68942 0.87128 0.86322 0.0
O904 O 0.70251 0.89294 0.79037 0.0
O905 O 0.6715 0.89614 0.82875 0.0
O906 O 0.65478 0.87547 0.94219 0.0
O907 O 0.66406 0.91373 0.938 0.0
O908 O 0.71054 0.94347 0.9076 0.0
O909 O 0.72546 0.92394 0.87795 0.0
O910 O 0.70854 0.89361 0.95665 0.0
O911 O 0.7452 0.90213 0.92088 0.0
H912 H 0.78571 0.92494 0.7095 0.0
H913 H 0.78062 0.91182 0.62882 0.0
H914 H 0.72726 0.838 0.66972 0.0
H915 H 0.73169 0.85123 0.74917 0.0
H916 H 0.66546 0.86948 1.02142 0.0
H917 H 0.66383 0.87065 0.10465 0.0
H918 H 0.63444 0.91961 0.09594 0.0
H919 H 0.63554 0.918 1.01176 0.0
Nd920 Nd 0.08847 0.82938 0.84039 0.0
Nd921 Nd 0.08091 0.78338 0.8896 0.0
C922 C 0.08607 0.85911 0.77875 0.0
C923 C 0.09369 0.86446 0.73011 0.0
C924 C 0.08524 0.8769 0.70219 0.0
C925 C 0.09307 0.88251 0.6564 0.0
C926 C 0.10965 0.8759 0.6378 0.0
C927 C 0.11758 0.86292 0.66579 0.0
C928 C 0.10968 0.85726 0.7113 0.0
C929 C 0.13064 0.83136 0.87081 0.0
C930 C 0.08825 0.78283 0.78204 0.0
C931 C 0.07953 0.75208 0.95176 0.0
C932 C 0.08059 0.75245 1.00265 0.0
C933 C 0.10097 0.77086 1.02662 0.0
C934 C 0.10108 0.77173 0.07462 0.0
C935 C 0.08074 0.75429 0.09998 0.0
C936 C 0.06045 0.73578 0.07582 0.0
C937 C 0.06043 0.73484 1.02781 0.0
C938 C 0.03859 0.78178 0.85974 0.0
C939 C 0.08912 0.83147 0.95015 0.0
O940 O 0.0677 0.8371 0.78741 0.0
O941 O 0.10387 0.86623 0.80879 0.0
O942 O 0.1277 0.8504 0.86998 0.0
O943 O 0.11258 0.81331 0.85226 0.0
O944 O 0.08527 0.80232 0.78184 0.0
O945 O 0.08989 0.7729 0.82074 0.0
O946 O 0.09954 0.76743 0.92982 0.0
O947 O 0.05979 0.75055 0.93355 0.0
O948 O 0.04357 0.76422 0.85435 0.0
O949 O 0.0563 0.79992 0.87944 0.0
O950 O 0.09228 0.81234 0.94626 0.0
O951 O 0.08312 0.84018 0.91395 0.0
H952 H 0.07281 0.88253 0.71594 0.0
H953 H 0.08668 0.89258 0.63597 0.0
H954 H 0.12997 0.85712 0.65251 0.0
H955 H 0.11626 0.84742 0.73198 0.0
H956 H 0.11676 0.7848 1.00835 0.0
H957 H 0.11722 0.78606 0.09178 0.0
H958 H 0.04428 0.72224 0.09389 0.0
H959 H 0.04442 0.72054 1.01025 0.0
Nd960 Nd 0.35769 0.12033 0.72373 0.0
Nd961 Nd 0.39619 0.16558 0.6723 0.0
C962 C 0.32734 0.0897 0.78622 0.0
C963 C 0.32694 0.08941 0.83712 0.0
C964 C 0.327 0.1085 0.86255 0.0
C965 C 0.32709 0.10813 0.91056 0.0
C966 C 0.32742 0.08883 0.93429 0.0
C967 C 0.32755 0.06986 0.90885 0.0
C968 C 0.32717 0.07009 0.86081 0.0
C969 C 0.39744 0.11733 0.69313 0.0
C970 C 0.39977 0.16834 0.78233 0.0
C971 C 0.42793 0.19464 0.60944 0.0
C972 C 0.42534 0.19876 0.56026 0.0
C973 C 0.44602 0.21365 0.53324 0.0
C974 C 0.44323 0.21844 0.48716 0.0
C975 C 0.41966 0.2085 0.46745 0.0
C976 C 0.3991 0.19294 0.49445 0.0
C977 C 0.4019 0.18821 0.54024 0.0
C978 C 0.3568 0.16846 0.70437 0.0
C979 C 0.34903 0.11884 0.61602 0.0
O980 O 0.32394 0.10627 0.76577 0.0
O981 O 0.3445 0.0869 0.76672 0.0
O982 O 0.37468 0.10001 0.68902 0.0
O983 O 0.39865 0.13605 0.71183 0.0
O984 O 0.3775 0.14891 0.78057 0.0
O985 O 0.41326 0.17744 0.74481 0.0
O986 O 0.42493 0.17309 0.62012 0.0
O987 O 0.41673 0.20181 0.63808 0.0
O988 O 0.37895 0.18724 0.70312 0.0
O989 O 0.35629 0.15022 0.68565 0.0
O990 O 0.37178 0.13786 0.61499 0.0
O991 O 0.3376 0.10972 0.65519 0.0
H992 H 0.32717 0.12384 0.84544 0.0
H993 H 0.32729 0.12316 0.92916 0.0
H994 H 0.32761 0.05466 0.92612 0.0
H995 H 0.32718 0.05519 0.84209 0.0
H996 H 0.4643 0.22193 0.548 0.0
H997 H 0.45943 0.23055 0.46748 0.0
H998 H 0.3807 0.18457 0.48029 0.0
H999 H 0.38566 0.17662 0.56027 0.0
Nd1000 Nd 0.86165 0.23129 0.72362 0.0
Nd1001 Nd 0.81711 0.22677 0.66957 0.0
C1002 C 0.89321 0.22654 0.77607 0.0
C1003 C 0.89508 0.22669 0.82687 0.0
C1004 C 0.87395 0.21259 0.85362 0.0
C1005 C 0.87538 0.21286 0.90145 0.0
C1006 C 0.89789 0.22756 0.92395 0.0
C1007 C 0.91901 0.24194 0.89735 0.0
C1008 C 0.91763 0.24139 0.84922 0.0
C1009 C 0.85911 0.27367 0.72105 0.0
C1010 C 0.81501 0.2273 0.77985 0.0
C1011 C 0.78786 0.22845 0.60539 0.0
C1012 C 0.78438 0.22226 0.55573 0.0
C1013 C 0.77224 0.23081 0.52712 0.0
C1014 C 0.7674 0.22337 0.48087 0.0
C1015 C 0.77448 0.20711 0.46243 0.0
C1016 C 0.78738 0.19932 0.49099 0.0
C1017 C 0.79219 0.20673 0.53695 0.0
C1018 C 0.81212 0.18402 0.70499 0.0
C1019 C 0.86286 0.22625 0.61299 0.0
O1020 O 0.87355 0.2079 0.75849 0.0
O1021 O 0.89878 0.2474 0.75622 0.0
O1022 O 0.86545 0.26579 0.75649 0.0
O1023 O 0.85457 0.25931 0.6873 0.0
O1024 O 0.8317 0.2204 0.77778 0.0
O1025 O 0.8082 0.23471 0.74275 0.0
O1026 O 0.80861 0.24768 0.61787 0.0
O1027 O 0.78135 0.20991 0.63308 0.0
O1028 O 0.79443 0.18906 0.70499 0.0
O1029 O 0.83062 0.20092 0.68545 0.0
O1030 O 0.84055 0.22341 0.61251 0.0
O1031 O 0.87581 0.23066 0.65122 0.0
H1032 H 0.85615 0.20147 0.83766 0.0
H1033 H 0.85871 0.20192 0.9209 0.0
H1034 H 0.93663 0.25343 0.91378 0.0
H1035 H 0.93413 0.25256 0.8295 0.0
H1036 H 0.76602 0.24279 0.5408 0.0
H1037 H 0.75737 0.22967 0.46004 0.0
H1038 H 0.79356 0.18719 0.47794 0.0
H1039 H 0.80157 0.19984 0.55811 0.0
Nd1040 Nd 0.75059 0.62416 0.72654 0.0
Nd1041 Nd 0.75589 0.58446 0.6754 0.0
C1042 C 0.75368 0.65696 0.78738 0.0
C1043 C 0.7522 0.65717 0.8378 0.0
C1044 C 0.76552 0.67927 0.86208 0.0
C1045 C 0.76551 0.67938 0.91012 0.0
C1046 C 0.75236 0.65731 0.93485 0.0
C1047 C 0.73907 0.63517 0.91011 0.0
C1048 C 0.73891 0.63515 0.86214 0.0
C1049 C 0.70711 0.58555 0.69527 0.0
C1050 C 0.75224 0.57949 0.785 0.0
C1051 C 0.75292 0.55262 0.61234 0.0
C1052 C 0.75989 0.55524 0.56335 0.0
C1053 C 0.75158 0.53453 0.53484 0.0
C1054 C 0.75891 0.53717 0.48868 0.0
C1055 C 0.77479 0.56058 0.47034 0.0
C1056 C 0.78251 0.58128 0.49894 0.0
C1057 C 0.77517 0.57864 0.54482 0.0
C1058 C 0.79857 0.62347 0.70806 0.0
C1059 C 0.75887 0.63237 0.61894 0.0
O1060 O 0.77275 0.65641 0.77124 0.0
O1061 O 0.73341 0.64214 0.76526 0.0
O1062 O 0.71316 0.60853 0.6926 0.0
O1063 O 0.72419 0.58351 0.71379 0.0
O1064 O 0.75532 0.60188 0.78433 0.0
O1065 O 0.74899 0.56668 0.74688 0.0
O1066 O 0.73452 0.55597 0.62265 0.0
O1067 O 0.77115 0.5634 0.64153 0.0
O1068 O 0.79441 0.60104 0.70866 0.0
O1069 O 0.78118 0.62413 0.68852 0.0
O1070 O 0.75392 0.60923 0.6179 0.0
O1071 O 0.76152 0.64399 0.65808 0.0
H1072 H 0.77608 0.69644 0.84387 0.0
H1073 H 0.77568 0.69682 0.92782 0.0
H1074 H 0.72908 0.61775 0.92773 0.0
H1075 H 0.72863 0.61789 0.84395 0.0
H1076 H 0.7397 0.51631 0.54842 0.0
H1077 H 0.75271 0.52086 0.46774 0.0
H1078 H 0.79437 0.59963 0.48587 0.0
H1079 H 0.78168 0.59491 0.56601 0.0
Nd1080 Nd 0.78357 0.69465 0.34165 0.0
Nd1081 Nd 0.83091 0.73355 0.38875 0.0
C1082 C 0.75091 0.66375 0.28198 0.0
C1083 C 0.751 0.66091 0.23169 0.0
C1084 C 0.77219 0.66454 0.20868 0.0
C1085 C 0.77249 0.6632 0.16078 0.0
C1086 C 0.75166 0.65848 0.13475 0.0
C1087 C 0.73046 0.65481 0.15811 0.0
C1088 C 0.73014 0.65596 0.20603 0.0
C1089 C 0.78163 0.73373 0.3783 0.0
C1090 C 0.82983 0.73609 0.27919 0.0
C1091 C 0.86129 0.76556 0.45015 0.0
C1092 C 0.86623 0.76333 0.49909 0.0
C1093 C 0.87658 0.78396 0.52819 0.0
C1094 C 0.88156 0.78176 0.57444 0.0
C1095 C 0.87643 0.75889 0.59226 0.0
C1096 C 0.86549 0.73819 0.56312 0.0
C1097 C 0.8604 0.74038 0.5172 0.0
C1098 C 0.83251 0.69412 0.35315 0.0
C1099 C 0.78628 0.68615 0.44819 0.0
O1100 O 0.76547 0.65868 0.3058 0.0
O1101 O 0.75117 0.68357 0.29646 0.0
O1102 O 0.76434 0.71098 0.38258 0.0
O1103 O 0.79946 0.73537 0.3555 0.0
O1104 O 0.81078 0.71368 0.28283 0.0
O1105 O 0.84003 0.75013 0.31587 0.0
O1106 O 0.83965 0.76278 0.44077 0.0
O1107 O 0.86786 0.75415 0.42072 0.0
O1108 O 0.8514 0.71625 0.35297 0.0
O1109 O 0.81505 0.69375 0.37457 0.0
O1110 O 0.80584 0.7086 0.44811 0.0
O1111 O 0.7751 0.67494 0.40988 0.0
H1112 H 0.78868 0.6688 0.22765 0.0
H1113 H 0.78907 0.66586 0.14426 0.0
H1114 H 0.71422 0.65162 0.13938 0.0
H1115 H 0.71371 0.65341 0.22304 0.0
H1116 H 0.88103 0.80182 0.51503 0.0
H1117 H 0.89001 0.79804 0.5959 0.0
H1118 H 0.86085 0.72021 0.57585 0.0
H1119 H 0.85207 0.7241 0.49568 0.0
Nd1120 Nd 0.28992 0.08542 0.33364 0.0
Nd1121 Nd 0.25021 0.09094 0.3859 0.0
C1122 C 0.326 0.08885 0.28241 0.0
C1123 C 0.32791 0.08938 0.23158 0.0
C1124 C 0.32357 0.10579 0.20601 0.0
C1125 C 0.324 0.10565 0.15815 0.0
C1126 C 0.32835 0.08876 0.13416 0.0
C1127 C 0.33285 0.07238 0.15976 0.0
C1128 C 0.33268 0.07273 0.20795 0.0
C1129 C 0.24416 0.04389 0.33407 0.0
C1130 C 0.24939 0.09188 0.27532 0.0
C1131 C 0.21862 0.08912 0.44859 0.0
C1132 C 0.22105 0.09558 0.49807 0.0
C1133 C 0.20023 0.08684 0.5263 0.0
C1134 C 0.20257 0.09441 0.57242 0.0
C1135 C 0.2258 0.11102 0.59104 0.0
C1136 C 0.24663 0.11902 0.56287 0.0
C1137 C 0.24429 0.11145 0.51707 0.0
C1138 C 0.28893 0.13357 0.3523 0.0
C1139 C 0.2955 0.09032 0.44436 0.0
O1140 O 0.32616 0.10783 0.30117 0.0
O1141 O 0.30968 0.06804 0.30106 0.0
O1142 O 0.25871 0.05178 0.29914 0.0
O1143 O 0.25405 0.05784 0.36831 0.0
O1144 O 0.27279 0.09824 0.27916 0.0
O1145 O 0.23448 0.08417 0.31149 0.0
O1146 O 0.22053 0.07002 0.43705 0.0
O1147 O 0.23062 0.10754 0.42062 0.0
O1148 O 0.2664 0.12916 0.35232 0.0
O1149 O 0.28994 0.11623 0.37148 0.0
O1150 O 0.27655 0.09403 0.44404 0.0
O1151 O 0.30376 0.08525 0.40657 0.0
H1152 H 0.31941 0.11861 0.22289 0.0
H1153 H 0.3209 0.11888 0.14005 0.0
H1154 H 0.33596 0.05888 0.14266 0.0
H1155 H 0.33584 0.05971 0.22674 0.0
H1156 H 0.18211 0.07457 0.51243 0.0
H1157 H 0.18615 0.08794 0.593 0.0
H1158 H 0.26487 0.13145 0.57613 0.0
H1159 H 0.26067 0.11846 0.4962 0.0
Nd1160 Nd 0.89685 0.19865 0.33407 0.0
Nd1161 Nd 0.88904 0.15221 0.38265 0.0
C1162 C 0.89882 0.23031 0.27218 0.0
C1163 C 0.89817 0.23033 0.22125 0.0
C1164 C 0.87795 0.21219 0.19654 0.0
C1165 C 0.87813 0.21187 0.1485 0.0
C1166 C 0.89866 0.22954 0.12383 0.0
C1167 C 0.91885 0.24769 0.14878 0.0
C1168 C 0.91854 0.24813 0.19681 0.0
C1169 C 0.93831 0.20128 0.36998 0.0
C1170 C 0.89161 0.15166 0.27295 0.0
C1171 C 0.89097 0.12231 0.44454 0.0
C1172 C 0.88385 0.11739 0.49349 0.0
C1173 C 0.89365 0.10642 0.52209 0.0
C1174 C 0.88619 0.10108 0.56813 0.0
C1175 C 0.86863 0.10645 0.5862 0.0
C1176 C 0.85943 0.11808 0.55762 0.0
C1177 C 0.86699 0.12354 0.51194 0.0
C1178 C 0.84745 0.14975 0.34754 0.0
C1179 C 0.88724 0.1977 0.44109 0.0
O1180 O 0.8786 0.21489 0.29352 0.0
O1181 O 0.91839 0.23165 0.2908 0.0
O1182 O 0.93268 0.21843 0.37413 0.0
O1183 O 0.92202 0.18309 0.34779 0.0
O1184 O 0.88842 0.17081 0.27614 0.0
O1185 O 0.89581 0.14199 0.30989 0.0
O1186 O 0.9097 0.14397 0.4351 0.0
O1187 O 0.87291 0.11553 0.41518 0.0
O1188 O 0.8509 0.13102 0.34828 0.0
O1189 O 0.86465 0.16765 0.36824 0.0
O1190 O 0.89049 0.17838 0.4414 0.0
O1191 O 0.88601 0.20788 0.40237 0.0
H1192 H 0.86203 0.19805 0.21423 0.0
H1193 H 0.86205 0.1978 0.13081 0.0
H1194 H 0.93519 0.26137 0.13133 0.0
H1195 H 0.93445 0.26223 0.21494 0.0
H1196 H 0.90681 0.10169 0.50865 0.0
H1197 H 0.89359 0.09211 0.58915 0.0
H1198 H 0.84623 0.12288 0.57059 0.0
H1199 H 0.85941 0.13231 0.49081 0.0
Nd1200 Nd 0.24982 0.15308 0.88528 0.0
Nd1201 Nd 0.28776 0.19961 0.83546 0.0
C1202 C 0.21876 0.12312 0.94808 0.0
C1203 C 0.22149 0.11901 0.99724 0.0
C1204 C 0.20082 0.10453 1.02461 0.0
C1205 C 0.20366 0.09986 0.07075 0.0
C1206 C 0.22725 0.10953 0.09023 0.0
C1207 C 0.24782 0.12465 0.06283 0.0
C1208 C 0.24497 0.12926 1.01697 0.0
C1209 C 0.28901 0.15117 0.84955 0.0
C1210 C 0.2972 0.19939 0.94237 0.0
C1211 C 0.31696 0.23106 0.77275 0.0
C1212 C 0.31747 0.23096 0.72183 0.0
C1213 C 0.31783 0.2119 0.69712 0.0
C1214 C 0.31745 0.21172 0.64905 0.0
C1215 C 0.31645 0.23046 0.62436 0.0
C1216 C 0.31603 0.24946 0.64936 0.0
C1217 C 0.31664 0.24974 0.69741 0.0
C1218 C 0.2485 0.20141 0.87158 0.0
C1219 C 0.2458 0.1519 0.77566 0.0
O1220 O 0.22085 0.14433 0.93767 0.0
O1221 O 0.2305 0.1167 0.91926 0.0
O1222 O 0.26697 0.1322 0.85096 0.0
O1223 O 0.28965 0.16908 0.86995 0.0
O1224 O 0.27464 0.18002 0.94313 0.0
O1225 O 0.30835 0.20941 0.9034 0.0
O1226 O 0.32194 0.21577 0.79412 0.0
O1227 O 0.29874 0.23233 0.79151 0.0
O1228 O 0.27118 0.21898 0.87525 0.0
O1229 O 0.24702 0.18338 0.84964 0.0
O1230 O 0.26802 0.17137 0.77819 0.0
O1231 O 0.23231 0.14217 0.81295 0.0
H1232 H 0.18251 0.09649 1.01011 0.0
H1233 H 0.18744 0.08808 0.0907 0.0
H1234 H 0.26626 0.13281 0.07676 0.0
H1235 H 0.2612 0.14056 0.9967 0.0
H1236 H 0.31821 0.19699 0.71485 0.0
H1237 H 0.31815 0.19693 0.63134 0.0
H1238 H 0.31479 0.26399 0.63191 0.0
H1239 H 0.31613 0.26454 0.71557 0.0
Nd1240 Nd 0.82851 0.09181 0.88123 0.0
Nd1241 Nd 0.78052 0.08572 0.82387 0.0
C1242 C 0.85641 0.08838 0.94577 0.0
C1243 C 0.86062 0.09527 0.99502 0.0
C1244 C 0.87366 0.08758 1.02315 0.0
C1245 C 0.87879 0.09532 0.06919 0.0
C1246 C 0.87109 0.11104 0.08786 0.0
C1247 C 0.85738 0.11805 0.05972 0.0
C1248 C 0.85225 0.1103 1.01395 0.0
C1249 C 0.83008 0.13324 0.8483 0.0
C1250 C 0.78098 0.09214 0.93506 0.0
C1251 C 0.75451 0.09562 0.76547 0.0
C1252 C 0.74842 0.09028 0.71658 0.0
C1253 C 0.73981 0.10354 0.69186 0.0
C1254 C 0.73812 0.10181 0.64397 0.0
C1255 C 0.74533 0.08699 0.61989 0.0
C1256 C 0.7533 0.07317 0.64516 0.0
C1257 C 0.75476 0.07477 0.69304 0.0
C1258 C 0.77858 0.04125 0.83528 0.0
C1259 C 0.82863 0.08822 0.7701 0.0
O1260 O 0.83463 0.07013 0.9346 0.0
O1261 O 0.86437 0.10672 0.91687 0.0
O1262 O 0.84956 0.13102 0.85161 0.0
O1263 O 0.81177 0.11476 0.86493 0.0
O1264 O 0.8017 0.09127 0.93665 0.0
O1265 O 0.76969 0.09146 0.89611 0.0
O1266 O 0.77794 0.11016 0.77323 0.0
O1267 O 0.74435 0.0771 0.79423 0.0
O1268 O 0.76128 0.04341 0.81533 0.0
O1269 O 0.79507 0.06203 0.84839 0.0
O1270 O 0.80982 0.09222 0.77029 0.0
O1271 O 0.83783 0.08421 0.80823 0.0
H1272 H 0.88028 0.07595 1.0093 0.0
H1273 H 0.88945 0.08964 0.08968 0.0
H1274 H 0.85073 0.12977 0.07299 0.0
H1275 H 0.84206 0.11641 0.99308 0.0
H1276 H 0.73518 0.11588 0.70945 0.0
H1277 H 0.73153 0.1124 0.62581 0.0
H1278 H 0.75937 0.06187 0.62796 0.0
H1279 H 0.76183 0.06469 0.71161 0.0
Nd1280 Nd 0.88735 0.7325 0.88714 0.0
Nd1281 Nd 0.89392 0.6929 0.83804 0.0
C1282 C 0.88902 0.76382 0.95017 0.0
C1283 C 0.88202 0.76121 0.99925 0.0
C1284 C 0.89071 0.78192 1.0279 0.0
C1285 C 0.88346 0.77939 0.07413 0.0
C1286 C 0.86724 0.75606 0.09248 0.0
C1287 C 0.85911 0.73534 0.06374 0.0
C1288 C 0.8664 0.73788 1.01778 0.0
C1289 C 0.84564 0.69386 0.85093 0.0
C1290 C 0.88325 0.68421 0.9446 0.0
C1291 C 0.8927 0.66087 0.77743 0.0
C1292 C 0.89329 0.66022 0.72679 0.0
C1293 C 0.87739 0.63852 0.70309 0.0
C1294 C 0.87688 0.63805 0.65503 0.0
C1295 C 0.89209 0.6594 0.62958 0.0
C1296 C 0.90788 0.68116 0.65371 0.0
C1297 C 0.9086 0.68149 0.70167 0.0
C1298 C 0.93589 0.73072 0.8751 0.0
C1299 C 0.89278 0.73749 0.77798 0.0
O1300 O 0.90791 0.76126 0.93999 0.0
O1301 O 0.8709 0.75251 0.92091 0.0
O1302 O 0.84982 0.71631 0.85021 0.0
O1303 O 0.86241 0.6929 0.87237 0.0
O1304 O 0.88788 0.70726 0.94528 0.0
O1305 O 0.88156 0.6727 0.90576 0.0
O1306 O 0.87299 0.6595 0.79515 0.0
O1307 O 0.91284 0.67707 0.79831 0.0
O1308 O 0.9297 0.70771 0.87798 0.0
O1309 O 0.92002 0.7333 0.85298 0.0
O1310 O 0.88953 0.71504 0.77975 0.0
O1311 O 0.89564 0.75051 0.81567 0.0
H1312 H 0.90287 0.80009 1.01439 0.0
H1313 H 0.88999 0.79573 0.09511 0.0
H1314 H 0.847 0.71704 0.07676 0.0
H1315 H 0.8596 0.72159 0.99655 0.0
H1316 H 0.86528 0.62192 0.7218 0.0
H1317 H 0.86471 0.62085 0.63791 0.0
H1318 H 0.9195 0.69812 0.63565 0.0
H1319 H 0.92094 0.69852 0.71915 0.0
Nd1320 Nd 0.81155 0.58378 0.1747 0.0
Nd1321 Nd 0.85904 0.6222 0.22183 0.0
C1322 C 0.78028 0.55173 0.11435 0.0
C1323 C 0.77526 0.552 0.06457 0.0
C1324 C 0.79427 0.56118 1.03189 0.0
C1325 C 0.78924 0.56256 0.98539 0.0
C1326 C 0.76513 0.55495 0.97053 0.0
C1327 C 0.74612 0.54529 1.00323 0.0
C1328 C 0.75113 0.5438 0.0496 0.0
C1329 C 0.81037 0.62327 0.21101 0.0
C1330 C 0.8564 0.63066 0.11534 0.0
C1331 C 0.89183 0.65265 0.28181 0.0
C1332 C 0.8919 0.65507 0.33228 0.0
C1333 C 0.87141 0.65303 0.35566 0.0
C1334 C 0.87132 0.65423 0.40362 0.0
C1335 C 0.89161 0.65717 0.4294 0.0
C1336 C 0.91204 0.65908 0.40568 0.0
C1337 C 0.9122 0.65815 0.35772 0.0
C1338 C 0.86035 0.5827 0.18526 0.0
C1339 C 0.81257 0.58103 0.28418 0.0
O1340 O 0.80096 0.55283 0.12605 0.0
O1341 O 0.77488 0.5652 0.14082 0.0
O1342 O 0.79144 0.60117 0.21138 0.0
O1343 O 0.82778 0.62365 0.18932 0.0
O1344 O 0.83698 0.60813 0.11532 0.0
O1345 O 0.86741 0.64196 0.1537 0.0
O1346 O 0.87722 0.65791 0.25863 0.0
O1347 O 0.89164 0.63302 0.26634 0.0
O1348 O 0.87777 0.60537 0.18064 0.0
O1349 O 0.84273 0.58147 0.20815 0.0
O1350 O 0.83186 0.60329 0.28067 0.0
O1351 O 0.80215 0.56716 0.24744 0.0
H1352 H 0.8131 0.56775 0.04233 0.0
H1353 H 0.80438 0.5704 0.96133 0.0
H1354 H 0.72732 0.53905 0.99301 0.0
H1355 H 0.73614 0.53659 0.074 0.0
H1356 H 0.85531 0.65018 0.33694 0.0
H1357 H 0.85534 0.65295 0.42035 0.0
H1358 H 0.9278 0.66081 0.42411 0.0
H1359 H 0.92806 0.65943 0.34048 0.0
Nd1360 Nd 0.39576 0.22669 0.17263 0.0
Nd1361 Nd 0.35637 0.23276 0.22491 0.0
C1362 C 0.42744 0.22759 0.11119 0.0
C1363 C 0.42728 0.22225 0.06132 0.0
C1364 C 0.42053 0.23378 1.0275 0.0
C1365 C 0.41891 0.22691 0.98107 0.0
C1366 C 0.42374 0.2082 0.96756 0.0
C1367 C 0.43109 0.19723 1.00135 0.0
C1368 C 0.43292 0.20423 0.04748 0.0
C1369 C 0.35728 0.18449 0.20806 0.0
C1370 C 0.35061 0.22731 0.11405 0.0
C1371 C 0.32043 0.2297 0.27627 0.0
C1372 C 0.31822 0.22933 0.32707 0.0
C1373 C 0.32276 0.21325 0.35345 0.0
C1374 C 0.32145 0.21323 0.4013 0.0
C1375 C 0.31592 0.22953 0.42425 0.0
C1376 C 0.31153 0.24576 0.39801 0.0
C1377 C 0.31255 0.24556 0.34988 0.0
C1378 C 0.40214 0.27433 0.22207 0.0
C1379 C 0.39712 0.22668 0.28326 0.0
O1380 O 0.42666 0.24722 0.12366 0.0
O1381 O 0.4138 0.20869 0.13711 0.0
O1382 O 0.37984 0.18898 0.20809 0.0
O1383 O 0.35608 0.20156 0.18819 0.0
O1384 O 0.3697 0.22381 0.11417 0.0
O1385 O 0.34226 0.23224 0.15191 0.0
O1386 O 0.32026 0.21062 0.25798 0.0
O1387 O 0.33685 0.25041 0.25746 0.0
O1388 O 0.38805 0.26679 0.25769 0.0
O1389 O 0.39181 0.25991 0.18863 0.0
O1390 O 0.37375 0.22046 0.27978 0.0
O1391 O 0.41181 0.23401 0.2468 0.0
H1392 H 0.41597 0.24768 0.03699 0.0
H1393 H 0.41296 0.23555 0.95601 0.0
H1394 H 0.43511 0.18291 0.99216 0.0
H1395 H 0.43825 0.19509 0.07265 0.0
H1396 H 0.32773 0.20087 0.33721 0.0
H1397 H 0.32537 0.20082 0.4204 0.0
H1398 H 0.30715 0.25849 0.41471 0.0
H1399 H 0.30913 0.25823 0.33049 0.0
Nd1400 Nd 0.7567 0.16725 0.16692 0.0
Nd1401 Nd 0.74747 0.12011 0.21376 0.0
C1402 C 0.75599 0.19862 0.10716 0.0
C1403 C 0.7621 0.20436 0.05774 0.0
C1404 C 0.74909 0.18707 1.02287 0.0
C1405 C 0.75617 0.1925 0.97676 0.0
C1406 C 0.77653 0.21523 0.96452 0.0
C1407 C 0.78907 0.23269 0.99928 0.0
C1408 C 0.78186 0.22737 0.0452 0.0
C1409 C 0.79757 0.1685 0.20253 0.0
C1410 C 0.75729 0.12177 0.10665 0.0
C1411 C 0.74489 0.08694 0.27258 0.0
C1412 C 0.7466 0.08638 0.32307 0.0
C1413 C 0.7648 0.10662 0.34758 0.0
C1414 C 0.76512 0.10649 0.39556 0.0
C1415 C 0.74708 0.08621 0.42016 0.0
C1416 C 0.72904 0.06589 0.39535 0.0
C1417 C 0.72886 0.06598 0.34736 0.0
C1418 C 0.70638 0.11923 0.17935 0.0
C1419 C 0.75402 0.16705 0.27681 0.0
O1420 O 0.7365 0.17762 0.11748 0.0
O1421 O 0.77448 0.20419 0.13484 0.0
O1422 O 0.79455 0.18749 0.20214 0.0
O1423 O 0.78039 0.15091 0.1811 0.0
O1424 O 0.75475 0.14152 0.10689 0.0
O1425 O 0.75778 0.11098 0.145 0.0
O1426 O 0.76498 0.10199 0.25054 0.0
O1427 O 0.7255 0.08703 0.25657 0.0
O1428 O 0.71148 0.10178 0.17356 0.0
O1429 O 0.72324 0.13684 0.2017 0.0
O1430 O 0.75633 0.14736 0.27316 0.0
O1431 O 0.75045 0.17734 0.24012 0.0
H1432 H 0.73378 0.16913 1.03122 0.0
H1433 H 0.7463 0.17856 0.95088 0.0
H1434 H 0.80473 0.25042 0.99098 0.0
H1435 H 0.79212 0.24113 0.07116 0.0
H1436 H 0.77855 0.12275 0.32975 0.0
H1437 H 0.7795 0.12234 0.4133 0.0
H1438 H 0.71461 0.05011 0.41295 0.0
H1439 H 0.7145 0.05028 0.32918 0.0
C1440 C 0.10996 0.43717 0.06067 0.0
C1441 C 0.10777 0.41993 1.02775 0.0
H1442 H 0.09767 0.46193 0.08198 0.0
C1443 C 0.09428 0.41683 0.98746 0.0
H1444 H 0.12015 0.43955 0.09211 0.0
C1445 C 0.08125 0.42919 0.98195 0.0
C1446 C 0.08186 0.44507 1.01634 0.0
H1447 H 0.09235 0.40345 0.96184 0.0
H1448 H 0.06937 0.42508 0.9523 0.0
C1449 C 0.09724 0.44997 0.05474 0.0
C1450 C 0.55564 0.67032 0.96686 0.0
C1451 C 0.56052 0.68484 1.00652 0.0
H1452 H 0.54148 0.63403 0.93967 0.0
C1453 C 0.55006 0.67341 0.0484 0.0
H1454 H 0.56319 0.67864 0.93394 0.0
C1455 C 0.53697 0.64772 0.05123 0.0
C1456 C 0.53453 0.63343 1.01233 0.0
H1457 H 0.55346 0.68421 0.07938 0.0
H1458 H 0.53072 0.63913 0.08444 0.0
C1459 C 0.54309 0.64481 0.96991 0.0
C1460 C 0.33409 0.88147 1.00417 0.0
C1461 C 0.34865 0.9007 1.03442 0.0
H1462 H 0.29729 0.85494 0.98375 0.0
C1463 C 0.33772 0.90564 0.07175 0.0
H1464 H 0.34232 0.87753 0.97514 0.0
C1465 C 0.31229 0.89301 0.07656 0.0
C1466 C 0.29744 0.87513 0.0443 0.0
H1467 H 0.34878 0.9204 0.09553 0.0
H1468 H 0.30415 0.89835 0.10376 0.0
C1469 C 0.30847 0.86855 1.00928 0.0
C1470 C 0.42452 0.0823 0.74564 0.0
C1471 C 0.44126 0.08439 0.71182 0.0
H1472 H 0.39782 0.09198 0.76628 0.0
C1473 C 0.44685 0.10115 0.67569 0.0
H1474 H 0.41994 0.06942 0.77364 0.0
C1475 C 0.43386 0.11378 0.67105 0.0
C1476 C 0.41564 0.10996 0.70297 0.0
H1477 H 0.45954 0.10279 0.64893 0.0
H1478 H 0.43678 0.12505 0.64106 0.0
C1479 C 0.41189 0.09512 0.74138 0.0
C1480 C 0.88241 0.33664 0.67047 0.0
C1481 C 0.89415 0.35126 0.70912 0.0
H1482 H 0.86169 0.29989 0.64378 0.0
C1483 C 0.89048 0.34036 0.75226 0.0
H1484 H 0.88536 0.34487 0.63676 0.0
C1485 C 0.87671 0.31493 0.75643 0.0
C1486 C 0.86712 0.29998 0.71722 0.0
H1487 H 0.89953 0.35142 0.78233 0.0
H1488 H 0.87527 0.30693 0.78998 0.0
C1489 C 0.869 0.31101 0.67445 0.0
C1490 C 0.64448 0.55861 0.74579 0.0
C1491 C 0.63004 0.54177 0.71173 0.0
H1492 H 0.68074 0.58543 0.76724 0.0
C1493 C 0.64148 0.53626 0.67587 0.0
H1494 H 0.63599 0.56312 0.77363 0.0
C1495 C 0.66714 0.54934 0.67183 0.0
C1496 C 0.68132 0.56762 0.70399 0.0
H1497 H 0.63061 0.52349 0.64895 0.0
H1498 H 0.67571 0.54636 0.64216 0.0
C1499 C 0.66996 0.57137 0.74204 0.0
C1500 C 0.87935 0.56104 0.14812 0.0
C1501 C 0.86682 0.56336 0.18572 0.0
H1502 H 0.90299 0.54802 0.12409 0.0
C1503 C 0.86564 0.5513 0.22698 0.0
H1504 H 0.88069 0.5705 0.11629 0.0
C1505 C 0.87893 0.53902 0.23185 0.0
C1506 C 0.89282 0.53821 0.19508 0.0
H1507 H 0.85642 0.55331 0.25666 0.0
H1508 H 0.87964 0.53162 0.26497 0.0
C1509 C 0.89207 0.54828 0.15263 0.0
C1510 C 0.42878 0.31139 0.17426 0.0
C1511 C 0.42053 0.30058 0.21751 0.0
H1512 H 0.44509 0.34499 0.1358 0.0
C1513 C 0.42662 0.31574 0.25654 0.0
H1514 H 0.42438 0.30011 0.1437 0.0
C1515 C 0.438 0.34114 0.2519 0.0
C1516 C 0.44417 0.35177 0.2084 0.0
H1517 H 0.42076 0.3079 0.2904 0.0
H1518 H 0.44047 0.35233 0.28197 0.0
C1519 C 0.44067 0.33698 0.16976 0.0
C1520 C 0.63943 0.08692 0.15198 0.0
C1521 C 0.62959 0.08704 0.1951 0.0
H1522 H 0.67215 0.09752 0.11319 0.0
C1523 C 0.64517 0.10165 0.2305 0.0
H1524 H 0.62758 0.07546 0.12446 0.0
C1525 C 0.67062 0.1148 0.22365 0.0
C1526 C 0.68056 0.11278 0.18175 0.0
H1527 H 0.63782 0.10164 0.26412 0.0
H1528 H 0.68255 0.12461 0.25233 0.0
C1529 C 0.6648 0.09951 0.1455 0.0
C1530 C 0.55471 0.88242 0.58107 0.0
C1531 C 0.55888 0.87105 0.54355 0.0
H1532 H 0.54025 0.90506 0.60382 0.0
C1533 C 0.54861 0.87091 0.5006 0.0
H1534 H 0.56283 0.883 0.61421 0.0
C1535 C 0.53633 0.8841 0.49435 0.0
C1536 C 0.53367 0.89683 0.5313 0.0
H1537 H 0.5521 0.86263 0.47103 0.0
H1538 H 0.53039 0.88568 0.46025 0.0
C1539 C 0.54189 0.895 0.57509 0.0
C1540 C 0.0967 0.64826 0.54705 0.0
C1541 C 0.08279 0.63394 0.5096 0.0
H1542 H 0.11979 0.68482 0.57309 0.0
C1543 C 0.08478 0.64504 0.46713 0.0
H1544 H 0.09512 0.63991 0.58028 0.0
C1545 C 0.09916 0.67043 0.46274 0.0
C1546 C 0.11106 0.68518 0.50125 0.0
H1547 H 0.07408 0.63422 0.43797 0.0
H1548 H 0.09935 0.67859 0.42994 0.0
C1549 C 0.11068 0.67387 0.54299 0.0
C1550 C 0.33188 0.428 0.48243 0.0
C1551 C 0.34682 0.44346 0.51767 0.0
H1552 H 0.2952 0.40262 0.46052 0.0
C1553 C 0.33599 0.44812 0.55568 0.0
H1554 H 0.33993 0.4241 0.45302 0.0
C1555 C 0.31037 0.43543 0.56041 0.0
C1556 C 0.29562 0.41853 0.52667 0.0
H1557 H 0.34726 0.45976 0.58353 0.0
H1558 H 0.30224 0.43755 0.5916 0.0
C1559 C 0.30641 0.41575 0.48675 0.0
C1560 C 0.77978 0.76868 0.34256 0.0
C1561 C 0.77543 0.75327 0.38049 0.0
H1562 H 0.76882 0.79165 0.30711 0.0
C1563 C 0.76045 0.75297 0.41629 0.0
H1564 H 0.79105 0.76887 0.31428 0.0
C1565 C 0.74825 0.76625 0.41253 0.0
C1566 C 0.7506 0.77964 0.3726 0.0
H1567 H 0.75679 0.74107 0.44562 0.0
H1568 H 0.73536 0.7644 0.43908 0.0
C1569 C 0.76711 0.78163 0.33836 0.0
C1570 C 0.20307 0.98087 0.38297 0.0
C1571 C 0.20026 0.96641 0.34414 0.0
H1572 H 0.2195 0.01748 0.41038 0.0
C1573 C 0.20775 0.97752 0.30122 0.0
H1574 H 0.19763 0.97249 0.41654 0.0
C1575 C 0.2198 0.003 0.29756 0.0
C1576 C 0.22524 0.01774 0.33706 0.0
H1577 H 0.20584 0.9666 0.27102 0.0
H1578 H 0.22667 0.01116 0.26425 0.0
C1579 C 0.21565 0.00652 0.3795 0.0
C1580 C 0.97556 0.20387 0.33453 0.0
C1581 C 0.96412 0.20771 0.37252 0.0
H1582 H 0.00986 0.21538 0.29993 0.0
C1583 C 0.97848 0.22261 0.40885 0.0
H1584 H 0.96472 0.19271 0.30583 0.0
C1585 C 0.004 0.23514 0.40572 0.0
C1586 C 0.01541 0.23321 0.36591 0.0
H1587 H 0.96995 0.2259 0.43822 0.0
H1588 H 0.01477 0.24784 0.43285 0.0
C1589 C 0.00124 0.21684 0.33102 0.0
C1590 C 0.22834 0.22174 0.90924 0.0
C1591 C 0.22879 0.20738 0.8729 0.0
H1592 H 0.21624 0.24625 0.93237 0.0
C1593 C 0.2142 0.2037 0.83381 0.0
H1594 H 0.23968 0.22494 0.93941 0.0
C1595 C 0.20126 0.21636 0.82932 0.0
C1596 C 0.20241 0.23217 0.86438 0.0
H1597 H 0.21467 0.19297 0.80508 0.0
H1598 H 0.19182 0.21512 0.79743 0.0
C1599 C 0.21503 0.23389 0.90518 0.0
C1600 C 0.76669 -0.00133 0.81499 0.0
C1601 C 0.77571 0.0175 0.84799 0.0
H1602 H 0.74577 0.95984 0.80291 0.0
C1603 C 0.77511 0.01172 0.8945 0.0
H1604 H 0.76681 0.00289 0.77894 0.0
C1605 C 0.76244 0.98717 0.90819 0.0
C1606 C 0.75113 0.96837 0.87536 0.0
H1607 H 0.78164 0.02603 0.9204 0.0
H1608 H 0.75947 0.98297 0.94446 0.0
C1609 C 0.75476 0.97411 0.82863 0.0
C1610 C -0.00114 0.77859 0.83707 0.0
C1611 C 0.01312 0.77482 0.86944 0.0
H1612 H 0.96228 0.76776 0.81443 0.0
C1613 C 0.0019 0.76021 0.90803 0.0
H1614 H 0.00732 0.78966 0.8069 0.0
C1615 C 0.97642 0.74756 0.91207 0.0
C1616 C 0.9619 0.74962 0.87785 0.0
H1617 H 0.01273 0.75706 0.93322 0.0
H1618 H 0.968 0.7348 0.94019 0.0
C1619 C 0.97323 0.76617 0.84151 0.0
C1620 C 0.01401 0.45428 0.85999 0.0
C1621 C 0.00144 0.44806 0.90203 0.0
H1622 H 0.01122 0.45261 0.78671 0.0
C1623 C 0.97559 0.43456 0.90172 0.0
H1624 H 0.03391 0.46471 0.85909 0.0
C1625 C 0.96257 0.42797 0.86028 0.0
C1626 C 0.97513 0.43429 0.81824 0.0
H1627 H 0.96534 0.42967 0.93353 0.0
H1628 H 0.94266 0.41806 0.8612 0.0
C1629 C 0.00099 0.44725 0.81854 0.0
C1630 C 0.52497 0.55491 0.86325 0.0
C1631 C 0.53143 0.5489 0.90544 0.0
H1632 H 0.5262 0.55326 0.78997 0.0
C1633 C 0.54471 0.53634 0.90533 0.0
H1634 H 0.51471 0.56454 0.86216 0.0
C1635 C 0.55093 0.52948 0.86394 0.0
C1636 C 0.54447 0.5355 0.82175 0.0
H1637 H 0.54977 0.53123 0.93727 0.0
H1638 H 0.56078 0.51943 0.86501 0.0
C1639 C 0.53164 0.54852 0.82188 0.0
C1640 C 0.44528 0.00449 0.9057 0.0
C1641 C 0.4323 0.97864 0.90549 0.0
H1642 H 0.46264 0.03747 0.86585 0.0
C1643 C 0.42579 0.96617 0.86324 0.0
H1644 H 0.45073 0.01466 0.9377 0.0
C1645 C 0.43237 0.97928 0.82208 0.0
C1646 C 0.44595 0.00512 0.8223 0.0
H1647 H 0.41582 0.94628 0.86193 0.0
H1648 H 0.42737 0.9691 0.79008 0.0
C1649 C 0.45221 0.01759 0.86454 0.0
C1650 C 0.9619 0.53104 0.3625 0.0
C1651 C 0.97435 0.53748 0.32035 0.0
H1652 H 0.9649 0.53241 0.43579 0.0
C1653 C 0.00021 0.55102 0.32045 0.0
H1654 H 0.942 0.52053 0.36356 0.0
C1655 C 0.01334 0.55743 0.36178 0.0
C1656 C 0.0009 0.55091 0.40393 0.0
H1657 H 0.01037 0.55605 0.28856 0.0
H1658 H 0.03325 0.56737 0.36069 0.0
C1659 C 0.97503 0.53792 0.40387 0.0
C1660 C 0.4484 0.42574 0.36155 0.0
C1661 C 0.44227 0.43218 0.3195 0.0
H1662 H 0.4471 0.42717 0.43478 0.0
C1663 C 0.42917 0.44493 0.31971 0.0
H1664 H 0.45855 0.41599 0.36252 0.0
C1665 C 0.42298 0.45174 0.36113 0.0
C1666 C 0.42931 0.44548 0.40318 0.0
H1667 H 0.42439 0.45038 0.28786 0.0
H1668 H 0.41344 0.46209 0.36019 0.0
C1669 C 0.44176 0.4321 0.40295 0.0
C1670 C 0.55346 0.01746 0.36436 0.0
C1671 C 0.54728 0.00516 0.32196 0.0
H1672 H 0.55162 0.01425 0.43747 0.0
C1673 C 0.53467 0.97931 0.32141 0.0
H1674 H 0.56314 0.03735 0.36591 0.0
C1675 C 0.52769 0.96603 0.36241 0.0
C1676 C 0.53362 0.97833 0.40481 0.0
H1677 H 0.52945 0.96927 0.28926 0.0
H1678 H 0.51744 0.94614 0.36088 0.0
C1679 C 0.54692 0.00419 0.40535 0.0
C1680 C 0.64354 0.7654 0.24247 0.0
C1681 C 0.66939 0.77802 0.24316 0.0
H1682 H 0.61081 0.74967 0.20142 0.0
C1683 C 0.68206 0.78268 0.20129 0.0
H1684 H 0.63321 0.76167 0.27404 0.0
C1685 C 0.66913 0.77521 0.1596 0.0
C1686 C 0.64332 0.76353 0.15896 0.0
H1687 H 0.70197 0.79239 0.20069 0.0
H1688 H 0.67936 0.77958 0.12781 0.0
C1689 C 0.63069 0.75854 0.20085 0.0
C1690 C 0.21994 0.86422 0.19741 0.0
C1691 C 0.21264 0.86952 0.15535 0.0
H1692 H 0.21945 0.86642 0.27077 0.0
C1693 C 0.19912 0.88183 0.15578 0.0
H1694 H 0.23032 0.85472 0.19826 0.0
C1695 C 0.19253 0.88815 0.19733 0.0
C1696 C 0.19975 0.88279 0.23939 0.0
H1697 H 0.19303 0.886 0.12401 0.0
H1698 H 0.18167 0.89717 0.19649 0.0
C1699 C 0.21379 0.87102 0.23896 0.0
C1700 C 0.11184 0.33888 0.24041 0.0
C1701 C 0.09886 0.31302 0.24016 0.0
H1702 H 0.12873 0.37193 0.20056 0.0
C1703 C 0.09188 0.30063 0.19786 0.0
H1704 H 0.11767 0.349 0.27242 0.0
C1705 C 0.09787 0.3138 0.15672 0.0
C1706 C 0.1114 0.33965 0.15693 0.0
H1707 H 0.08191 0.28073 0.19649 0.0
H1708 H 0.09248 0.30366 0.12468 0.0
C1709 C 0.11826 0.35205 0.19923 0.0
C1710 C 0.629 0.86735 0.70505 0.0
C1711 C 0.64163 0.87313 0.66305 0.0
H1712 H 0.63178 0.86993 0.77846 0.0
C1713 C 0.66746 0.88707 0.66349 0.0
H1714 H 0.60911 0.85663 0.70585 0.0
C1715 C 0.68042 0.8943 0.70497 0.0
C1716 C 0.66784 0.8883 0.74698 0.0
H1717 H 0.67777 0.8917 0.63176 0.0
H1718 H 0.70033 0.90431 0.70418 0.0
C1719 C 0.64198 0.87512 0.7466 0.0
C1720 C 0.09101 0.77196 0.65439 0.0
C1721 C 0.10522 0.76038 0.65393 0.0
H1722 H 0.0748 0.78855 0.69536 0.0
C1723 C 0.11224 0.75476 0.69591 0.0
H1724 H 0.08561 0.77681 0.62255 0.0
C1725 C 0.1057 0.76104 0.73746 0.0
C1726 C 0.09249 0.77367 0.73802 0.0
H1727 H 0.1233 0.74595 0.69663 0.0
H1728 H 0.11194 0.75695 0.76913 0.0
C1729 C 0.08496 0.77882 0.69605 0.0
C1730 C 0.1937 0.30033 0.69658 0.0
C1731 C 0.19993 0.31285 0.73873 0.0
H1732 H 0.19488 0.30317 0.62345 0.0
C1733 C 0.21304 0.33871 0.73886 0.0
H1734 H 0.18359 0.28044 0.69538 0.0
C1735 C 0.21919 0.35178 0.69764 0.0
C1736 C 0.21278 0.33925 0.65549 0.0
H1737 H 0.21793 0.3489 0.77083 0.0
H1738 H 0.22879 0.37167 0.69882 0.0
C1739 C 0.20026 0.31339 0.65539 0.0
C1740 C 0.30955 0.0973 0.57168 0.0
C1741 C 0.33536 0.10915 0.57224 0.0
H1742 H 0.27678 0.08223 0.53079 0.0
C1743 C 0.34787 0.11293 0.53036 0.0
H1744 H 0.29934 0.09427 0.60323 0.0
C1745 C 0.33483 0.10544 0.48878 0.0
C1746 C 0.30909 0.09461 0.48821 0.0
H1747 H 0.36775 0.12205 0.52964 0.0
H1748 H 0.34498 0.10922 0.45698 0.0
C1749 C 0.2966 0.09042 0.53014 0.0
C1750 C 0.87025 0.2199 0.4858 0.0
C1751 C 0.88321 0.20704 0.48514 0.0
H1752 H 0.85366 0.23596 0.52678 0.0
C1753 C 0.89123 0.20232 0.52703 0.0
H1754 H 0.86369 0.22372 0.45423 0.0
C1755 C 0.88597 0.20993 0.56871 0.0
C1756 C 0.87209 0.22184 0.56931 0.0
H1757 H 0.90127 0.19247 0.52763 0.0
H1758 H 0.89175 0.20544 0.60051 0.0
C1759 C 0.86451 0.22694 0.52739 0.0
C1760 C 0.77802 0.67202 0.57548 0.0
C1761 C 0.76421 0.64619 0.5754 0.0
H1762 H 0.7961 0.70492 0.53538 0.0
C1763 C 0.75695 0.63372 0.53319 0.0
H1764 H 0.78412 0.68218 0.60742 0.0
C1765 C 0.76352 0.64678 0.49196 0.0
C1766 C 0.7779 0.67257 0.492 0.0
H1767 H 0.74639 0.61384 0.53196 0.0
H1768 H 0.7579 0.63657 0.46001 0.0
C1769 C 0.785 0.68506 0.5342 0.0
C1770 C 0.33665 0.22126 0.98675 0.0
C1771 C 0.31081 0.20877 0.98623 0.0
H1772 H 0.36944 0.23677 1.02765 0.0
C1773 C 0.29823 0.2042 1.02819 0.0
H1774 H 0.34691 0.22494 0.9551 0.0
C1775 C 0.31122 0.21156 0.0698 0.0
C1776 C 0.33701 0.22306 0.07029 0.0
H1777 H 0.27832 0.19461 1.02893 0.0
H1778 H 0.30103 0.2072 0.10164 0.0
C1779 C 0.34957 0.22803 1.02832 0.0
C1780 C 0.7784 0.09088 1.02073 0.0
C1781 C 0.7722 0.09724 0.97864 0.0
H1782 H 0.77825 0.09331 0.09391 0.0
C1783 C 0.75985 0.11074 0.97894 0.0
H1784 H 0.78801 0.0806 1.02167 0.0
C1785 C 0.7547 0.11852 1.02049 0.0
C1786 C 0.76132 0.11249 0.06255 0.0
H1787 H 0.75512 0.1162 0.94706 0.0
H1788 H 0.7458 0.12948 1.01964 0.0
C1789 C 0.77279 0.09818 0.06217 0.0
C1790 C 0.88441 0.68307 1.03038 0.0
C1791 C 0.87787 0.67051 0.98822 0.0
H1792 H 0.88309 0.68031 0.10357 0.0
C1793 C 0.86506 0.64467 0.98818 0.0
H1794 H 0.89425 0.70297 1.03156 0.0
C1795 C 0.85835 0.63167 1.02947 0.0
C1796 C 0.86469 0.64424 0.07161 0.0
H1797 H 0.8596 0.63444 0.95625 0.0
H1798 H 0.84807 0.61178 1.02835 0.0
C1799 C 0.87809 0.67007 0.07164 0.0
C1800 C 0.09245 0.55524 0.67111 0.0
C1801 C 0.07444 0.5618 0.66259 0.0
H1802 H 0.11049 0.54481 0.72185 0.0
C1803 C 0.06215 0.56475 0.7003 0.0
H1804 H 0.10216 0.55271 0.64289 0.0
C1805 C 0.06674 0.56016 0.74493 0.0
C1806 C 0.08384 0.55249 0.75366 0.0
H1807 H 0.04847 0.57021 0.69538 0.0
H1808 H 0.05662 0.56245 0.77274 0.0
C1809 C 0.09714 0.55066 0.71632 0.0
C1810 C 0.41935 0.53485 0.72224 0.0
C1811 C 0.4313 0.52792 0.75509 0.0
H1812 H 0.4066 0.53146 0.6523 0.0
C1813 C 0.4408 0.51302 0.74058 0.0
H1814 H 0.4118 0.54634 0.73212 0.0
C1815 C 0.43765 0.50448 0.69558 0.0
C1816 C 0.4251 0.51062 0.66287 0.0
H1817 H 0.4508 0.50786 0.76409 0.0
H1818 H 0.44516 0.49286 0.6866 0.0
C1819 C 0.41631 0.52631 0.67651 0.0
C1820 C 0.47575 0.90864 0.74572 0.0
C1821 C 0.4504 0.89419 0.75389 0.0
H1822 H 0.50442 0.92607 0.69631 0.0
C1823 C 0.43434 0.88501 0.7159 0.0
H1824 H 0.48863 0.91626 0.77403 0.0
C1825 C 0.4435 0.89042 0.67079 0.0
C1826 C 0.46883 0.9055 0.66296 0.0
H1827 H 0.4147 0.87376 0.72111 0.0
H1828 H 0.43074 0.88359 0.64223 0.0
C1829 C 0.48479 0.91433 0.70102 0.0
C1830 C 0.54187 0.09862 1.01087 0.0
C1831 C 0.54923 0.08983 0.97304 0.0
H1832 H 0.53931 0.09978 0.08449 0.0
C1833 C 0.56065 0.07589 0.98146 0.0
H1834 H 0.53308 0.10947 1.00547 0.0
C1835 C 0.56402 0.07028 1.02624 0.0
C1836 C 0.55639 0.07869 0.06412 0.0
H1837 H 0.56628 0.06858 0.95327 0.0
H1838 H 0.5723 0.0589 1.03115 0.0
C1839 C 0.54565 0.0933 0.05606 0.0
C1840 C 0.91091 0.47993 0.97772 0.0
C1841 C 0.89369 0.45521 0.96865 0.0
H1842 H 0.92927 0.50811 1.02768 0.0
C1843 C 0.88044 0.43999 1.00585 0.0
H1844 H 0.92098 0.49242 0.95007 0.0
C1845 C 0.8852 0.44914 0.05119 0.0
C1846 C 0.90325 0.47367 0.06002 0.0
H1847 H 0.86702 0.42083 1.00009 0.0
H1848 H 0.87544 0.43685 0.07926 0.0
C1849 C 0.91558 0.48897 1.02251 0.0
C1850 C 0.52491 0.42096 0.04808 0.0
C1851 C 0.50973 0.43028 0.06207 0.0
H1852 H 0.54445 0.41604 0.99213 0.0
C1853 C 0.50418 0.44353 1.02998 0.0
H1854 H 0.52956 0.41069 0.07185 0.0
C1855 C 0.51274 0.44677 0.98509 0.0
C1856 C 0.527 0.43664 0.97011 0.0
H1857 H 0.49292 0.4514 0.03931 0.0
H1858 H 0.50802 0.45725 0.96198 0.0
C1859 C 0.53344 0.42407 1.00242 0.0
C1860 C 0.90969 0.42492 0.47697 0.0
C1861 C 0.89243 0.43238 0.46815 0.0
H1862 H 0.92818 0.41524 0.52667 0.0
C1863 C 0.87905 0.43415 0.50539 0.0
H1864 H 0.91988 0.4227 0.44922 0.0
C1865 C 0.88382 0.42974 0.55064 0.0
C1866 C 0.902 0.42342 0.55926 0.0
H1867 H 0.86557 0.43982 0.49975 0.0
H1868 H 0.87404 0.43221 0.57881 0.0
C1869 C 0.91436 0.42052 0.52164 0.0
C1870 C 0.55968 0.49054 0.52375 0.0
C1871 C 0.55759 0.47556 0.5613 0.0
H1872 H 0.55665 0.49351 0.45141 0.0
C1873 C 0.55178 0.45122 0.55255 0.0
H1874 H 0.56455 0.50951 0.52886 0.0
C1875 C 0.54713 0.44189 0.50733 0.0
C1876 C 0.54812 0.45672 0.47015 0.0
H1877 H 0.54991 0.43917 0.58065 0.0
H1878 H 0.54189 0.42286 0.50167 0.0
C1879 C 0.55501 0.4813 0.47908 0.0
C1880 C 0.54142 0.09938 0.51036 0.0
C1881 C 0.52511 0.09008 0.47273 0.0
H1882 H 0.54549 0.10121 0.58395 0.0
C1883 C 0.49978 0.07612 0.48151 0.0
H1884 H 0.56105 0.11028 0.50472 0.0
C1885 C 0.491 0.0709 0.52643 0.0
C1886 C 0.50722 0.07973 0.56411 0.0
H1887 H 0.4867 0.06841 0.45351 0.0
H1888 H 0.47137 0.05939 0.53165 0.0
C1889 C 0.53253 0.09444 0.55568 0.0
C1890 C 0.43486 0.884 0.2165 0.0
C1891 C 0.42737 0.8928 0.25413 0.0
H1892 H 0.43769 0.88287 0.14293 0.0
C1893 C 0.41579 0.90656 0.24544 0.0
H1894 H 0.44377 0.87328 0.22214 0.0
C1895 C 0.4125 0.9121 0.20057 0.0
C1896 C 0.42036 0.90378 0.16293 0.0
H1897 H 0.41006 0.91387 0.27348 0.0
H1898 H 0.40423 0.92346 0.19539 0.0
C1899 C 0.43115 0.88924 0.17122 0.0
C1900 C 0.09174 0.53509 0.17092 0.0
C1901 C 0.07382 0.51052 0.16206 0.0
H1902 H 0.10965 0.56345 0.22203 0.0
C1903 C 0.06152 0.49518 0.19956 0.0
H1904 H 0.10145 0.54741 0.14287 0.0
C1905 C 0.06606 0.50424 0.24434 0.0
C1906 C 0.08309 0.52901 0.25343 0.0
H1907 H 0.04791 0.47602 0.19434 0.0
H1908 H 0.05597 0.49174 0.27198 0.0
C1909 C 0.09636 0.54425 0.21626 0.0
C1910 C 0.48611 0.56456 0.2025 0.0
C1911 C 0.47066 0.5613 0.16488 0.0
H1912 H 0.4896 0.56235 0.27492 0.0
C1913 C 0.44598 0.55424 0.17352 0.0
H1914 H 0.50534 0.57038 0.19744 0.0
C1915 C 0.43681 0.54947 0.21874 0.0
C1916 C 0.45215 0.55162 0.25601 0.0
H1917 H 0.43358 0.55144 0.14535 0.0
H1918 H 0.41753 0.54322 0.22431 0.0
C1919 C 0.47704 0.55981 0.24718 0.0
C1920 C 0.72867 0.89944 0.04326 0.0
C1921 C 0.74038 0.8963 1.0048 0.0
H1922 H 0.72379 0.89687 0.11587 0.0
C1923 C 0.75821 0.88936 1.01213 0.0
H1924 H 0.71513 0.90517 0.03924 0.0
C1925 C 0.76321 0.88451 0.0569 0.0
C1926 C 0.75038 0.88642 0.09494 0.0
H1927 H 0.76746 0.88665 0.9833 0.0
H1928 H 0.77636 0.87833 0.06154 0.0
C1929 C 0.73354 0.89456 0.08744 0.0
C1930 C 0.08515 0.85896 1.01026 0.0
C1931 C 0.09331 0.84272 0.9969 0.0
H1932 H 0.08098 0.87929 0.06578 0.0
C1933 C 0.10513 0.83588 1.03002 0.0
H1934 H 0.076 0.86463 0.98577 0.0
C1935 C 0.10805 0.84421 0.07516 0.0
C1936 C 0.09914 0.85965 0.08935 0.0
H1937 H 0.11212 0.82376 1.02134 0.0
H1938 H 0.11736 0.83842 0.09907 0.0
C1939 C 0.08804 0.86735 0.05611 0.0
C1940 C 0.14525 0.26171 1.0327 0.0
C1941 C 0.13626 0.24354 0.9981 0.0
H1942 H 0.14413 0.27084 0.10271 0.0
C1943 C 0.11799 0.21955 1.0098 0.0
H1944 H 0.15903 0.28055 1.02537 0.0
C1945 C 0.10946 0.21389 0.05536 0.0
C1946 C 0.11907 0.23212 0.08994 0.0
H1947 H 0.11061 0.20516 0.98408 0.0
H1948 H 0.09576 0.19518 0.06369 0.0
C1949 C 0.13677 0.25613 0.07759 0.0
C1950 C 0.21477 0.39282 0.35882 0.0
C1951 C 0.22025 0.40965 0.39516 0.0
H1952 H 0.2073 0.38488 0.28761 0.0
C1953 C 0.22264 0.43263 0.38511 0.0
H1954 H 0.21248 0.37478 0.36467 0.0
C1955 C 0.21972 0.43852 0.3397 0.0
C1956 C 0.2145 0.4216 0.30355 0.0
H1957 H 0.22673 0.44597 0.41215 0.0
H1958 H 0.22185 0.4564 0.3328 0.0
C1959 C 0.21192 0.39866 0.31405 0.0
C1960 C 0.54582 0.77846 0.34422 0.0
C1961 C 0.56452 0.78764 0.31064 0.0
H1962 H 0.53599 0.78057 0.41438 0.0
C1963 C 0.58829 0.80573 0.32403 0.0
H1964 H 0.52725 0.76453 0.33524 0.0
C1965 C 0.59313 0.81495 0.36868 0.0
C1966 C 0.57449 0.80635 0.40218 0.0
H1967 H 0.60342 0.81281 0.29997 0.0
H1968 H 0.6118 0.82895 0.37679 0.0
C1969 C 0.55076 0.7877 0.38957 0.0
C1970 C 0.19859 0.76514 0.38845 0.0
C1971 C 0.1749 0.76131 0.39694 0.0
H1972 H 0.22644 0.77287 0.33771 0.0
C1973 C 0.16031 0.7602 0.35933 0.0
H1974 H 0.21026 0.76613 0.41669 0.0
C1975 C 0.16935 0.7639 0.31473 0.0
C1976 C 0.19344 0.76904 0.30594 0.0
H1977 H 0.14176 0.75675 0.36436 0.0
H1978 H 0.15739 0.76294 0.28702 0.0
C1979 C 0.20781 0.76903 0.34324 0.0
C1980 C 0.55303 0.76216 0.89148 0.0
C1981 C 0.57271 0.75802 0.8998 0.0
H1982 H 0.5331 0.77035 0.84096 0.0
C1983 C 0.58604 0.75682 0.8621 0.0
H1984 H 0.54249 0.76327 0.9198 0.0
C1985 C 0.58079 0.76083 0.8176 0.0
C1986 C 0.56205 0.76629 0.80905 0.0
H1987 H 0.60102 0.75319 0.86701 0.0
H1988 H 0.59175 0.75995 0.78978 0.0
C1989 C 0.54773 0.76626 0.84638 0.0
C1990 C 0.22068 0.81145 0.8145 0.0
C1991 C 0.21276 0.78652 0.80675 0.0
H1992 H 0.23164 0.84054 0.8629 0.0
C1993 C 0.21159 0.77199 0.84458 0.0
H1994 H 0.22249 0.82343 0.78628 0.0
C1995 C 0.21702 0.78197 0.88931 0.0
C1996 C 0.2238 0.80668 0.89691 0.0
H1997 H 0.20559 0.7527 0.83984 0.0
H1998 H 0.21493 0.77015 0.91797 0.0
C1999 C 0.2261 0.82133 0.85868 0.0
C2000 C 0.17501 0.39508 0.81762 0.0
C2001 C 0.19158 0.41928 0.80425 0.0
H2002 H 0.15373 0.37071 0.87073 0.0
C2003 C 0.20012 0.43794 0.83802 0.0
H2004 H 0.16852 0.38005 0.79326 0.0
C2005 C 0.19162 0.43247 0.88366 0.0
C2006 C 0.17443 0.40824 0.8963 0.0
H2007 H 0.21293 0.45682 0.82898 0.0
H2008 H 0.19813 0.44718 0.90867 0.0
C2009 C 0.16657 0.3897 0.86259 0.0
C2010 C 0.09856 0.22413 0.50629 0.0
C2011 C 0.08726 0.23823 0.49821 0.0
H2012 H 0.11171 0.20851 0.55689 0.0
C2013 C 0.07909 0.2461 0.53603 0.0
H2014 H 0.10533 0.21807 0.47789 0.0
C2015 C 0.0826 0.24063 0.58084 0.0
C2016 C 0.09467 0.22731 0.58933 0.0
H2017 H 0.07033 0.257 0.53102 0.0
H2018 H 0.07661 0.24764 0.60897 0.0
C2019 C 0.10244 0.21891 0.5515 0.0
C2020 C 0.76732 0.87379 0.56018 0.0
C2021 C 0.74843 0.86583 0.59325 0.0
H2022 H 0.77694 0.8708 0.49027 0.0
C2023 C 0.72423 0.84949 0.5792 0.0
H2024 H 0.78621 0.88642 0.56976 0.0
C2025 C 0.71906 0.84057 0.53442 0.0
C2026 C 0.73783 0.84774 0.5015 0.0
H2027 H 0.70904 0.84345 0.60293 0.0
H2028 H 0.70006 0.82779 0.52586 0.0
C2029 C 0.76206 0.86483 0.51466 0.0
C2030 C 0.14452 0.89172 0.5818 0.0
C2031 C 0.11951 0.88313 0.59015 0.0
H2032 H 0.17324 0.90326 0.53268 0.0
C2033 C 0.10434 0.8811 0.55268 0.0
H2034 H 0.15693 0.89416 0.60975 0.0
C2035 C 0.11382 0.88643 0.50771 0.0
C2036 C 0.13867 0.894 0.49949 0.0
H2037 H 0.08497 0.87453 0.55788 0.0
H2038 H 0.10154 0.88372 0.47937 0.0
C2039 C 0.15391 0.89709 0.53736 0.0
C2040 C 0.39701 0.22036 0.41205 0.0
C2041 C 0.416 0.21521 0.42006 0.0
H2042 H 0.37682 0.22851 0.36354 0.0
C2043 C 0.43063 0.21608 0.38259 0.0
H2044 H 0.3858 0.22059 0.44005 0.0
C2045 C 0.42547 0.2208 0.33782 0.0
C2046 C 0.40564 0.22478 0.32997 0.0
H2047 H 0.44548 0.21226 0.38762 0.0
H2048 H 0.43634 0.22042 0.30936 0.0
C2049 C 0.39193 0.22504 0.36791 0.0
C2050 C 0.76915 0.21198 0.37699 0.0
C2051 C 0.76753 0.19712 0.41459 0.0
H2052 H 0.76616 0.21432 0.30363 0.0
C2053 C 0.75945 0.1722 0.40627 0.0
H2054 H 0.77529 0.23127 0.38213 0.0
C2055 C 0.75419 0.16261 0.36184 0.0
C2056 C 0.75678 0.17753 0.32389 0.0
H2057 H 0.75726 0.15997 0.43425 0.0
H2058 H 0.74835 0.14336 0.35727 0.0
C2059 C 0.76387 0.20229 0.33202 0.0
C2060 C 0.81813 0.58522 0.36895 0.0
C2061 C 0.80272 0.57299 0.33128 0.0
H2062 H 0.82162 0.5907 0.44144 0.0
C2063 C 0.77811 0.55514 0.33982 0.0
H2064 H 0.83732 0.59876 0.36396 0.0
C2065 C 0.76897 0.55052 0.38504 0.0
C2066 C 0.78429 0.56371 0.42237 0.0
H2067 H 0.76575 0.54548 0.31161 0.0
H2068 H 0.74975 0.53728 0.3906 0.0
C2069 C 0.80909 0.58068 0.41362 0.0
C2070 C 0.89844 0.73735 0.69359 0.0
C2071 C 0.89204 0.74683 0.73149 0.0
H2072 H 0.89888 0.73388 0.62077 0.0
C2073 C 0.88237 0.76239 0.72333 0.0
H2074 H 0.90633 0.7257 0.69851 0.0
C2075 C 0.87799 0.76716 0.67806 0.0
C2076 C 0.88314 0.75635 0.64035 0.0
H2077 H 0.87707 0.76985 0.75178 0.0
H2078 H 0.86959 0.77837 0.67265 0.0
C2079 C 0.89406 0.74198 0.64885 0.0
C2080 C 0.21577 0.10633 0.67648 0.0
C2081 C 0.22858 0.12119 0.6386 0.0
H2082 H 0.21097 0.1042 0.74999 0.0
C2083 C 0.24489 0.14629 0.64639 0.0
H2084 H 0.20302 0.08691 0.67169 0.0
C2085 C 0.24926 0.15607 0.69063 0.0
C2086 C 0.2375 0.14116 0.72892 0.0
H2087 H 0.25459 0.15849 0.61815 0.0
H2088 H 0.26239 0.17545 0.69482 0.0
C2089 C 0.22024 0.11622 0.72131 0.0
C2090 C 0.86464 0.09885 0.71696 0.0
C2091 C 0.83931 0.08922 0.72406 0.0
H2092 H 0.894 0.11209 0.6675 0.0
C2093 C 0.82386 0.08328 0.68545 0.0
H2094 H 0.87704 0.10379 0.74595 0.0
C2095 C 0.83343 0.08816 0.64115 0.0
C2096 C 0.85882 0.09911 0.63377 0.0
H2097 H 0.80422 0.07548 0.68947 0.0
H2098 H 0.82086 0.08377 0.61254 0.0
C2099 C 0.87432 0.10371 0.67208 0.0
C2100 C 0.24982 0.09786 0.14636 0.0
C2101 C 0.23088 0.10304 0.13789 0.0
H2102 H 0.26984 0.08978 0.19541 0.0
C2103 C 0.21623 0.10239 0.17518 0.0
H2104 H 0.26103 0.09744 0.11857 0.0
C2105 C 0.22127 0.09779 0.22014 0.0
C2106 C 0.24103 0.09376 0.22842 0.0
H2107 H 0.20143 0.10624 0.16985 0.0
H2108 H 0.21037 0.09829 0.2484 0.0
C2109 C 0.25479 0.09333 0.1907 0.0
C2110 C 0.8909 0.15574 0.18797 0.0
C2111 C 0.88904 0.14111 0.22599 0.0
H2112 H 0.88715 0.15801 0.11566 0.0
C2113 C 0.88267 0.11654 0.21799 0.0
H2114 H 0.89612 0.17486 0.19239 0.0
C2115 C 0.87733 0.10671 0.17311 0.0
C2116 C 0.87818 0.12125 0.13551 0.0
H2117 H 0.88093 0.10472 0.24642 0.0
H2118 H 0.87173 0.08754 0.16807 0.0
C2119 C 0.88558 0.14602 0.14366 0.0
C2120 C 0.83303 0.73635 0.14962 0.0
C2121 C 0.85787 0.75308 0.14062 0.0
H2122 H 0.80486 0.7186 0.19956 0.0
C2123 C 0.87332 0.76621 0.17787 0.0
H2124 H 0.82038 0.72641 0.12192 0.0
C2125 C 0.86427 0.76174 0.22319 0.0
C2126 C 0.83961 0.74412 0.23197 0.0
H2127 H 0.89258 0.77927 0.17217 0.0
H2128 H 0.87675 0.77134 0.25131 0.0
C2129 C 0.82408 0.73196 0.1944 0.0
C2130 C 0.77114 0.55359 0.88465 0.0
C2131 C 0.76003 0.55863 0.92193 0.0
H2132 H 0.77685 0.55558 0.8115 0.0
C2133 C 0.74464 0.56838 0.91265 0.0
H2134 H 0.78299 0.54594 0.89056 0.0
C2135 C 0.74119 0.5738 0.86775 0.0
C2136 C 0.7528 0.56947 0.83069 0.0
H2137 H 0.73598 0.57276 0.94032 0.0
H2138 H 0.72978 0.58193 0.86207 0.0
C2139 C 0.7674 0.55879 0.83937 0.0
C2140 C 0.42292 0.20474 0.83603 0.0
C2141 C 0.40868 0.17925 0.82865 0.0
H2142 H 0.43856 0.23408 0.8859 0.0
C2143 C 0.40029 0.16367 0.86706 0.0
H2144 H 0.42931 0.21722 0.80718 0.0
C2145 C 0.40564 0.17317 0.9116 0.0
C2146 C 0.41929 0.19863 0.91937 0.0
H2147 H 0.38913 0.14394 0.86271 0.0
H2148 H 0.3984 0.1605 0.94013 0.0
C2149 C 0.42796 0.21437 0.88104 0.0
C2150 C 0.77979 0.21844 0.83332 0.0
C2151 C 0.80485 0.22678 0.82601 0.0
H2152 H 0.75093 0.20781 0.88318 0.0
C2153 C 0.8204 0.23228 0.8643 0.0
H2154 H 0.76734 0.21374 0.80445 0.0
C2155 C 0.81121 0.22914 0.90883 0.0
C2156 C 0.78606 0.22003 0.91653 0.0
H2157 H 0.8398 0.23865 0.85984 0.0
H2158 H 0.82373 0.23305 0.93734 0.0
C2159 C 0.77041 0.21483 0.87828 0.0
C2160 C 0.00201 0.4446 0.33637 0.0
C2161 C 0.98708 0.42296 0.31114 0.0
H2162 H 0.01354 0.46129 0.40287 0.0
C2163 C 0.97152 0.40132 0.33544 0.0
H2164 H 0.0145 0.46157 0.31914 0.0
C2165 C 0.97138 0.40113 0.38339 0.0
C2166 C 0.98651 0.42263 0.40842 0.0
H2167 H 0.95928 0.38443 0.31748 0.0
H2168 H 0.95925 0.38413 0.40097 0.0
C2169 C 0.00158 0.44446 0.38444 0.0
C2170 C 0.58024 0.56916 0.38778 0.0
C2171 C 0.55854 0.56183 0.41263 0.0
H2172 H 0.59713 0.57468 0.32202 0.0
C2173 C 0.53655 0.55437 0.3884 0.0
H2174 H 0.59739 0.57459 0.4055 0.0
C2175 C 0.53642 0.55487 0.34031 0.0
C2176 C 0.55824 0.56251 0.31526 0.0
H2177 H 0.51955 0.54875 0.40667 0.0
H2178 H 0.51928 0.5498 0.32293 0.0
C2179 C 0.58007 0.56932 0.33981 0.0
C2180 C 0.3999 0.98996 0.33998 0.0
C2181 C 0.41971 0.99083 0.31598 0.0
H2182 H 0.38433 0.9898 0.40535 0.0
C2183 C 0.4395 0.9922 0.34108 0.0
H2184 H 0.38449 0.98912 0.32166 0.0
C2185 C 0.43942 -0.00739 0.3891 0.0
C2186 C 0.41966 0.99191 0.41306 0.0
H2187 H 0.45494 -0.0073 0.32358 0.0
H2188 H 0.45498 -0.00619 0.40749 0.0
C2189 C 0.39992 0.99058 0.38792 0.0
C2190 C 0.00446 0.58461 0.88673 0.0
C2191 C -0.01081 0.56277 0.91073 0.0
H2192 H 0.01671 0.60212 0.82147 0.0
C2193 C 0.97473 0.54112 0.8852 0.0
H2194 H 0.01633 0.60153 0.90495 0.0
C2195 C 0.97533 0.54143 0.83714 0.0
C2196 C -0.00988 0.56345 0.81343 0.0
H2197 H 0.96248 0.52399 0.90222 0.0
H2198 H 0.96371 0.52458 0.81849 0.0
C2199 C 0.00479 0.58497 0.83879 0.0
C2200 C 0.42753 0.44344 0.83675 0.0
C2201 C 0.42042 0.42157 0.81208 0.0
H2202 H 0.43276 0.46054 0.90282 0.0
C2203 C 0.41391 0.39998 0.83684 0.0
H2204 H 0.43239 0.46037 0.81899 0.0
C2205 C 0.41384 0.40006 0.88477 0.0
C2206 C 0.42049 0.42176 0.90934 0.0
H2207 H 0.40892 0.38293 0.8192 0.0
H2208 H 0.40869 0.38308 0.90267 0.0
C2209 C 0.42767 0.44354 0.88483 0.0
C2210 C 0.57997 -0.00665 0.88724 0.0
C2211 C 0.56077 -0.00667 0.912 0.0
H2212 H 0.59457 -0.00734 0.82128 0.0
C2213 C 0.54103 -0.00748 0.88765 0.0
H2214 H 0.59532 -0.00626 0.90496 0.0
C2215 C 0.54057 0.99184 0.83963 0.0
C2216 C 0.55973 0.99174 0.8149 0.0
H2217 H 0.52606 -0.00732 0.90571 0.0
H2218 H 0.52505 0.99108 0.82186 0.0
C2219 C 0.57942 -0.00752 0.8393 0.0
C2220 C 0.67559 0.78083 0.72864 0.0
C2221 C 0.6658 0.75895 0.75405 0.0
H2222 H 0.68311 0.79753 0.66232 0.0
C2223 C 0.65556 0.7365 0.73026 0.0
H2224 H 0.68387 0.79847 0.74594 0.0
C2225 C 0.65474 0.73589 0.68222 0.0
C2226 C 0.66439 0.75776 0.65662 0.0
H2227 H 0.64756 0.71931 0.74883 0.0
H2228 H 0.64602 0.71817 0.66525 0.0
C2229 C 0.67501 0.78026 0.6806 0.0
C2230 C 0.20531 0.88842 0.72093 0.0
C2231 C 0.22717 0.89574 0.74552 0.0
H2232 H 0.18843 0.88444 0.65528 0.0
C2233 C 0.24906 0.90349 0.72105 0.0
H2234 H 0.18818 0.88251 0.73891 0.0
C2235 C 0.2492 0.90416 0.67309 0.0
C2236 C 0.22749 0.89745 0.64822 0.0
H2237 H 0.26612 0.90886 0.73906 0.0
H2238 H 0.2664 0.90983 0.65558 0.0
C2239 C 0.20549 0.88943 0.67289 0.0
C2240 C 0.10667 0.33931 0.72291 0.0
C2241 C 0.08446 0.32665 0.74739 0.0
H2242 H 0.12427 0.34846 0.6573 0.0
C2243 C 0.06241 0.31349 0.72246 0.0
H2244 H 0.12401 0.34991 0.74078 0.0
C2245 C 0.06252 0.31308 0.67451 0.0
C2246 C 0.08469 0.32566 0.65 0.0
H2247 H 0.04497 0.30326 0.73997 0.0
H2248 H 0.0451 0.30306 0.65664 0.0
C2249 C 0.10679 0.33877 0.67488 0.0
C2250 C 0.63832 0.87426 0.18323 0.0
C2251 C 0.64845 0.89601 0.1575 0.0
H2252 H 0.63024 0.85795 0.24981 0.0
C2253 C 0.65889 0.91865 0.18061 0.0
H2254 H 0.62991 0.85653 0.16623 0.0
C2255 C 0.6596 0.91955 0.22856 0.0
C2256 C 0.64954 0.8978 0.25454 0.0
H2257 H 0.6671 0.9357 0.16156 0.0
H2258 H 0.66846 0.93736 0.24518 0.0
C2259 C 0.63869 0.87512 0.23116 0.0
C2260 C 0.09191 0.77931 0.22237 0.0
C2261 C 0.08082 0.75767 0.24861 0.0
H2262 H 0.10016 0.7953 0.15542 0.0
C2263 C 0.06944 0.73493 0.22564 0.0
H2264 H 0.10059 0.79715 0.23897 0.0
C2265 C 0.06943 0.73383 0.17765 0.0
C2266 C 0.08063 0.75547 0.15126 0.0
H2267 H 0.06106 0.71792 0.24482 0.0
H2268 H 0.06105 0.71596 0.16132 0.0
C2269 C 0.09175 0.77823 0.17438 0.0
C2270 C 0.24643 0.32937 0.17368 0.0
C2271 C 0.22553 0.32499 0.14844 0.0
H2272 H 0.26272 0.33325 0.2399 0.0
C2273 C 0.2045 0.32128 0.17235 0.0
H2274 H 0.26301 0.33254 0.15637 0.0
C2275 C 0.20439 0.32185 0.22039 0.0
C2276 C 0.22536 0.3263 0.24557 0.0
H2277 H 0.18802 0.31764 0.15394 0.0
H2278 H 0.18798 0.31908 0.23781 0.0
C2279 C 0.24636 0.33005 0.22159 0.0
C2280 C 0.3115 0.09325 0.05835 0.0
C2281 C 0.32785 0.08822 0.0828 0.0
H2282 H 0.29859 0.09742 0.99276 0.0
C2283 C 0.34386 0.08304 0.05764 0.0
H2284 H 0.29846 0.09676 0.07622 0.0
C2285 C 0.34359 0.08303 1.00955 0.0
C2286 C 0.32751 0.08846 0.98538 0.0
H2287 H 0.35696 0.07944 0.07501 0.0
H2288 H 0.35634 0.07927 0.99124 0.0
C2289 C 0.31146 0.09355 1.01037 0.0
C2290 C 0.88728 0.20612 1.00024 0.0
C2291 C 0.89901 0.22807 0.97501 0.0
H2292 H 0.87857 0.18923 0.06635 0.0
C2293 C 0.911 0.25049 0.99894 0.0
H2294 H 0.8781 0.18852 0.98276 0.0
C2295 C 0.91088 0.25098 0.04699 0.0
C2296 C 0.89903 0.22902 0.07245 0.0
H2297 H 0.91992 0.26772 0.98046 0.0
H2298 H 0.91965 0.26866 0.06408 0.0
C2299 C 0.88743 0.20657 0.04826 0.0
C2300 C 0.7311 0.64117 1.01062 0.0
C2301 C 0.7524 0.65735 0.9861 0.0
H2302 H 0.7143 0.62837 0.07611 0.0
C2303 C 0.77364 0.67361 1.011 0.0
H2304 H 0.7143 0.62855 0.99281 0.0
C2305 C 0.77347 0.67389 0.05902 0.0
C2306 C 0.7521 0.6578 0.08353 0.0
H2307 H 0.79052 0.68609 0.99345 0.0
H2308 H 0.79004 0.68703 0.07684 0.0
C2309 C 0.73099 0.64131 0.0586 0.0
C2310 C 0.30347 0.20773 0.50027 0.0
C2311 C 0.3153 0.22982 0.47539 0.0
H2312 H 0.29388 0.19054 0.56611 0.0
C2313 C 0.32722 0.25211 0.49978 0.0
H2314 H 0.29388 0.19024 0.4825 0.0
C2315 C 0.32764 0.25231 0.54785 0.0
C2316 C 0.31587 0.23023 0.57293 0.0
H2317 H 0.33681 0.26941 0.48166 0.0
H2318 H 0.33767 0.26985 0.56525 0.0
C2319 C 0.30361 0.20793 0.54833 0.0
C2320 C 0.73914 0.06493 0.5444 0.0
C2321 C 0.74548 0.08668 0.56869 0.0
H2322 H 0.73516 0.04778 0.47905 0.0
C2323 C 0.75252 0.1083 0.54364 0.0
H2324 H 0.73343 0.04787 0.56241 0.0
C2325 C 0.75307 0.10815 0.49568 0.0
C2326 C 0.74676 0.08641 0.47137 0.0
H2327 H 0.75794 0.12552 0.56104 0.0
H2328 H 0.7582 0.12509 0.47771 0.0
C2329 C 0.73984 0.06481 0.49644 0.0
C2330 C 0.91345 0.67335 0.55323 0.0
C2331 C 0.89174 0.65901 0.57825 0.0
H2332 H 0.93037 0.68464 0.4875 0.0
C2333 C 0.86982 0.64428 0.55372 0.0
H2334 H 0.9308 0.68469 0.57061 0.0
C2335 C 0.86971 0.64371 0.50566 0.0
C2336 C 0.89148 0.65803 0.4807 0.0
H2337 H 0.85262 0.63324 0.57155 0.0
H2338 H 0.85257 0.63171 0.48819 0.0
C2339 C 0.91329 0.67301 0.50527 0.0
C2340 C 0.01269 0.51245 0.11723 0.0
C2341 C 0.00544 0.49917 0.07596 0.0
H2342 H 0.0018 0.51661 0.18471 0.0
C2343 C 0.98127 0.47966 0.07082 0.0
H2344 H 0.03137 0.52732 0.12219 0.0
C2345 C 0.96458 0.47323 0.10674 0.0
C2346 C 0.97182 0.48649 0.14802 0.0
H2347 H 0.9754 0.46913 0.03922 0.0
H2348 H 0.9459 0.45835 0.10177 0.0
C2349 C -0.00403 0.50606 0.15313 0.0
C2350 C 0.46814 0.49697 0.12095 0.0
C2351 C 0.48206 0.50402 0.08056 0.0
H2352 H 0.46316 0.48056 0.18726 0.0
C2353 C 0.50216 0.50025 0.07616 0.0
H2354 H 0.45282 0.50011 0.12538 0.0
C2355 C 0.50845 0.48974 0.11184 0.0
C2356 C 0.49437 0.4824 0.15198 0.0
H2357 H 0.51317 0.50567 0.04523 0.0
H2358 H 0.52378 0.4866 0.10734 0.0
C2359 C 0.47432 0.48625 0.15651 0.0
C2360 C 0.49284 0.98305 0.15581 0.0
C2361 C 0.49946 0.00767 0.14884 0.0
H2362 H 0.47769 0.94717 0.12611 0.0
C2363 C 0.49657 0.01536 0.10534 0.0
H2364 H 0.49536 0.97692 0.18905 0.0
C2365 C 0.48718 -0.00141 0.06918 0.0
C2366 C 0.48017 0.97389 0.07633 0.0
H2367 H 0.50199 0.03439 0.09901 0.0
H2368 H 0.48461 0.00474 1.03599 0.0
C2369 C 0.48331 0.96624 0.1197 0.0
C2370 C 0.47147 0.96854 0.61891 0.0
C2371 C 0.48241 0.97605 0.57568 0.0
H2372 H 0.46994 0.97935 0.68794 0.0
C2373 C 0.50054 0.00063 0.56864 0.0
H2374 H 0.45775 0.94956 0.62527 0.0
C2375 C 0.50778 0.01753 0.60456 0.0
C2376 C 0.49681 0.01 0.64779 0.0
H2377 H 0.50941 0.00662 0.53557 0.0
H2378 H 0.52145 0.03653 0.59821 0.0
C2379 C 0.47878 0.9854 0.65486 0.0
C2380 C -0.00474 0.48655 0.65238 0.0
C2381 C 0.97101 0.48158 0.64679 0.0
H2382 H 0.03104 0.50171 0.62254 0.0
C2383 C 0.96403 0.48816 0.60595 0.0
H2384 H 0.00092 0.48147 0.68368 0.0
C2385 C 0.98108 0.49932 0.57086 0.0
C2386 C 0.00531 0.50419 0.57637 0.0
H2387 H 0.9453 0.48412 0.60065 0.0
H2388 H 0.97541 0.50438 0.53956 0.0
C2389 C 0.01231 0.49769 0.61728 0.0
C2390 C 0.49326 0.47149 0.60532 0.0
C2391 C 0.49967 0.48513 0.64618 0.0
H2392 H 0.47748 0.46666 0.53828 0.0
C2393 C 0.49521 0.50477 0.65082 0.0
H2394 H 0.49692 0.45652 0.60074 0.0
C2395 C 0.48478 0.51098 0.61483 0.0
C2396 C 0.4782 0.49725 0.57411 0.0
H2397 H 0.50012 0.51556 0.68212 0.0
H2398 H 0.48119 0.526 0.61945 0.0
C2399 C 0.4826 0.47756 0.56945 0.0
C2400 C 0.66336 0.84214 0.48931 0.0
C2401 C 0.63973 0.82145 0.4879 0.0
H2402 H 0.69758 0.86339 0.45447 0.0
C2403 C 0.63215 0.80625 0.44892 0.0
H2404 H 0.6695 0.85414 0.51904 0.0
C2405 C 0.64796 0.81178 0.41174 0.0
C2406 C 0.67168 0.83231 0.41335 0.0
H2407 H 0.61384 0.79038 0.44671 0.0
H2408 H 0.64183 0.79972 0.38209 0.0
C2409 C 0.67922 0.84761 0.4522 0.0
C2410 C 0.14052 0.83456 0.4621 0.0
C2411 C 0.15303 0.83943 0.42021 0.0
H2412 H 0.13624 0.81959 0.52959 0.0
C2413 C 0.17244 0.83462 0.41533 0.0
H2414 H 0.12591 0.83874 0.46702 0.0
C2415 C 0.17864 0.82414 0.45128 0.0
C2416 C 0.16523 0.81804 0.4923 0.0
H2417 H 0.18258 0.83867 0.38346 0.0
H2418 H 0.19292 0.81952 0.44599 0.0
C2419 C 0.14674 0.82411 0.49808 0.0
C2420 C 0.16175 0.35 0.44115 0.0
C2421 C 0.16453 0.34227 0.48469 0.0
H2422 H 0.15054 0.33957 0.37143 0.0
C2423 C 0.15793 0.31765 0.49163 0.0
H2424 H 0.1671 0.36901 0.43487 0.0
C2425 C 0.14888 0.30096 0.45528 0.0
C2426 C 0.14618 0.30873 0.41172 0.0
H2427 H 0.16034 0.31148 0.52491 0.0
H2428 H 0.14341 0.28193 0.46155 0.0
C2429 C 0.15287 0.33337 0.40474 0.0
C2430 C 0.16882 0.33365 0.90723 0.0
C2431 C 0.14913 0.30956 0.91142 0.0
H2432 H 0.19021 0.36873 0.93946 0.0
C2433 C 0.13562 0.30216 0.95229 0.0
H2434 H 0.17953 0.33965 0.87597 0.0
C2435 C 0.14196 0.31862 0.98876 0.0
C2436 C 0.16168 0.3427 0.98458 0.0
H2437 H 0.12056 0.28353 0.9565 0.0
H2438 H 0.13121 0.31266 1.01998 0.0
C2439 C 0.17517 0.3501 0.9437 0.0
C2440 C 0.67997 0.83505 0.95862 0.0
C2441 C 0.67161 0.83821 0.91596 0.0
H2442 H 0.67019 0.82151 1.02722 0.0
C2443 C 0.64659 0.83011 0.90951 0.0
H2444 H 0.6993 0.84149 0.96442 0.0
C2445 C 0.63013 0.81942 0.94573 0.0
C2446 C 0.63844 0.81602 0.98833 0.0
H2447 H 0.63992 0.83269 0.87687 0.0
H2448 H 0.61083 0.81306 0.93991 0.0
C2449 C 0.66349 0.82416 0.99469 0.0
C2450 C 0.15165 0.84218 0.9464 0.0
C2451 C 0.14512 0.82792 0.90629 0.0
H2452 H 0.16697 0.84774 1.01389 0.0
C2453 C 0.14969 0.8083 0.90296 0.0
H2454 H 0.14795 0.85717 0.95004 0.0
C2455 C 0.1605 0.80286 0.93952 0.0
C2456 C 0.16685 0.81704 0.97977 0.0
H2457 H 0.14458 0.79697 0.87234 0.0
H2458 H 0.1643 0.78793 0.93596 0.0
C2459 C 0.16216 0.83656 0.98309 0.0
C2460 C 0.29858 0.14068 0.77296 0.0
C2461 C 0.30656 0.15479 0.81326 0.0
H2462 H 0.30835 0.13478 0.7057 0.0
C2463 C 0.33083 0.17429 0.81657 0.0
H2464 H 0.27978 0.12582 0.76936 0.0
C2465 C 0.34698 0.17965 0.77999 0.0
C2466 C 0.33906 0.1654 0.73985 0.0
H2467 H 0.33724 0.18551 0.8473 0.0
H2468 H 0.3658 0.19446 0.78368 0.0
C2469 C 0.31472 0.14606 0.73637 0.0
C2470 C 0.80324 0.16556 0.78295 0.0
C2471 C 0.81481 0.16896 0.74026 0.0
H2472 H 0.80017 0.1525 0.85187 0.0
C2473 C 0.83209 0.16131 0.73395 0.0
H2474 H 0.78996 0.17149 0.78868 0.0
C2475 C 0.83834 0.15108 0.77025 0.0
C2476 C 0.82698 0.14792 0.81301 0.0
H2477 H 0.84133 0.16398 0.70132 0.0
H2478 H 0.85151 0.14501 0.7645 0.0
C2479 C 0.80947 0.15529 0.81927 0.0
C2480 C 0.83003 0.68347 0.77102 0.0
C2481 C 0.83195 0.67579 0.81517 0.0
H2482 H 0.81873 0.67258 0.70145 0.0
C2483 C 0.82434 0.65099 0.82311 0.0
H2484 H 0.83627 0.70262 0.76399 0.0
C2485 C 0.81501 0.63402 0.78726 0.0
C2486 C 0.81292 0.64166 0.7432 0.0
H2487 H 0.82612 0.64486 0.85688 0.0
H2488 H 0.80872 0.61487 0.79435 0.0
C2489 C 0.82064 0.66649 0.73517 0.0
C2490 C 0.83455 0.66575 0.24092 0.0
C2491 C 0.81494 0.64167 0.24626 0.0
H2492 H 0.85605 0.7013 0.2715 0.0
C2493 C 0.80187 0.63471 0.28761 0.0
H2494 H 0.84494 0.67138 0.20928 0.0
C2495 C 0.80849 0.65164 0.32334 0.0
C2496 C 0.82806 0.67573 0.31797 0.0
H2497 H 0.78696 0.6161 0.29276 0.0
H2498 H 0.7981 0.646 0.35499 0.0
C2499 C 0.84116 0.68268 0.27665 0.0
C2500 C 0.31487 0.16353 0.23883 0.0
C2501 C 0.33954 0.16981 0.24367 0.0
H2502 H 0.27962 0.14834 0.27071 0.0
C2503 C 0.34768 0.16513 0.28529 0.0
H2504 H 0.3083 0.16714 0.20704 0.0
C2505 C 0.33144 0.15482 0.32191 0.0
C2506 C 0.30676 0.14851 0.31702 0.0
H2507 H 0.36671 0.17007 0.29002 0.0
H2508 H 0.33798 0.15114 0.35365 0.0
C2509 C 0.29866 0.15329 0.27547 0.0
C2510 C 0.82842 0.17281 0.31558 0.0
C2511 C 0.8331 0.15328 0.31184 0.0
H2512 H 0.81403 0.19344 0.28306 0.0
C2513 C 0.82657 0.13916 0.27151 0.0
H2514 H 0.83345 0.18399 0.34638 0.0
C2515 C 0.81584 0.14478 0.2351 0.0
C2516 C 0.81131 0.16441 0.23874 0.0
H2517 H 0.83036 0.12423 0.26761 0.0
H2518 H 0.8109 0.13367 0.20421 0.0
C2519 C 0.81771 0.17843 0.27918 0.0
loop_
_geom_bond_atom_site_label_1
_geom_bond_atom_site_label_2
_geom_bond_distance
_geom_bond_site_symmetry_2
_ccdc_geom_bond_type
Nd0 C2 2.836 . S
Nd0 O20 2.500 . S
Nd0 O21 2.492 . S
Nd0 O22 2.487 . S
Nd0 O23 2.682 1_554 S
Nd0 O24 2.410 . S
Nd0 O29 2.414 . S
Nd0 O31 2.424 1_554 S
Nd1 C11 2.836 . S
Nd1 O23 2.414 . S
Nd1 O25 2.424 1_556 S
Nd1 O26 2.500 . S
Nd1 O27 2.492 . S
Nd1 O28 2.487 . S
Nd1 O29 2.682 1_556 S
Nd1 O30 2.410 . S
C2 Nd0 2.836 . S
C2 C3 1.498 . S
C2 O20 1.258 . S
C2 O21 1.239 . S
C3 C2 1.498 . S
C3 C4 1.366 . S
C3 C8 1.407 . S
C4 C3 1.366 . S
C4 C5 1.392 . S
C4 H32 0.930 . S
C5 C4 1.392 . S
C5 C6 1.398 . S
C5 H33 0.929 . S
C6 C5 1.398 . S
C6 C7 1.352 . S
C7 C6 1.352 . S
C7 C8 1.384 . S
C7 H34 0.930 . S
C8 C3 1.407 . S
C8 C7 1.384 . S
C8 H35 0.929 . S
C9 O22 1.241 1_556 S
C9 O23 1.273 . S
C10 O24 1.251 . S
C10 O25 1.268 . S
C11 Nd1 2.836 . S
C11 C12 1.498 . S
C11 O26 1.258 . S
C11 O27 1.239 . S
C12 C11 1.498 . S
C12 C13 1.366 . S
C12 C17 1.407 . S
C13 C12 1.366 . S
C13 C14 1.392 . S
C13 H36 0.930 . S
C14 C13 1.392 . S
C14 C15 1.398 . S
C14 H37 0.929 . S
C15 C14 1.398 . S
C15 C16 1.352 . S
C16 C15 1.352 . S
C16 C17 1.384 . S
C16 H38 0.930 . S
C17 C12 1.407 . S
C17 C16 1.384 . S
C17 H39 0.929 . S
C18 O28 1.241 1_554 S
C18 O29 1.273 . S
C19 O30 1.251 . S
C19 O31 1.268 . S
O20 Nd0 2.500 . S
O20 C2 1.258 . S
O21 Nd0 2.492 . S
O21 C2 1.239 . S
O22 Nd0 2.487 . S
O22 C9 1.241 1_554 S
O23 Nd0 2.682 1_556 S
O23 Nd1 2.414 . S
O23 C9 1.273 . S
O24 Nd0 2.410 . S
O24 C10 1.251 . S
O25 Nd1 2.424 1_554 S
O25 C10 1.268 . S
O26 Nd1 2.500 . S
O26 C11 1.258 . S
O27 Nd1 2.492 . S
O27 C11 1.239 . S
O28 Nd1 2.487 . S
O28 C18 1.241 1_556 S
O29 Nd0 2.414 . S
O29 Nd1 2.682 1_554 S
O29 C18 1.273 . S
O30 Nd1 2.410 . S
O30 C19 1.251 . S
O31 Nd0 2.424 1_556 S
O31 C19 1.268 . S
H32 C4 0.930 . S
H33 C5 0.929 . S
H34 C7 0.930 . S
H35 C8 0.929 . S
H36 C13 0.930 . S
H37 C14 0.929 . S
H38 C16 0.930 . S
H39 C17 0.929 . S
Nd40 C42 2.836 . S
Nd40 O60 2.500 . S
Nd40 O61 2.492 . S
Nd40 O62 2.487 . S
Nd40 O63 2.682 1_554 S
Nd40 O64 2.410 . S
Nd40 O69 2.414 . S
Nd40 O71 2.424 1_554 S
Nd41 C51 2.836 . S
Nd41 O63 2.414 . S
Nd41 O65 2.424 1_556 S
Nd41 O66 2.500 . S
Nd41 O67 2.492 . S
Nd41 O68 2.487 . S
Nd41 O69 2.682 1_556 S
Nd41 O70 2.410 . S
C42 Nd40 2.836 . S
C42 C43 1.498 . S
C42 O60 1.258 . S
C42 O61 1.239 . S
C43 C42 1.498 . S
C43 C44 1.366 . S
C43 C48 1.407 . S
C44 C43 1.366 . S
C44 C45 1.392 . S
C44 H72 0.930 . S
C45 C44 1.392 . S
C45 C46 1.398 . S
C45 H73 0.929 . S
C46 C45 1.398 . S
C46 C47 1.352 . S
C47 C46 1.352 . S
C47 C48 1.384 . S
C47 H74 0.930 . S
C48 C43 1.407 . S
C48 C47 1.384 . S
C48 H75 0.929 . S
C49 O62 1.241 1_556 S
C49 O63 1.273 . S
C50 O64 1.251 . S
C50 O65 1.268 . S
C51 Nd41 2.836 . S
C51 C52 1.498 . S
C51 O66 1.258 . S
C51 O67 1.239 . S
C52 C51 1.498 . S
C52 C53 1.366 . S
C52 C57 1.407 . S
C53 C52 1.366 . S
C53 C54 1.392 . S
C53 H76 0.930 . S
C54 C53 1.392 . S
C54 C55 1.398 . S
C54 H77 0.929 . S
C55 C54 1.398 . S
C55 C56 1.352 . S
C56 C55 1.352 . S
C56 C57 1.384 . S
C56 H78 0.930 . S
C57 C52 1.407 . S
C57 C56 1.384 . S
C57 H79 0.929 . S
C58 O68 1.241 1_554 S
C58 O69 1.273 . S
C59 O70 1.251 . S
C59 O71 1.268 . S
O60 Nd40 2.500 . S
O60 C42 1.258 . S
O61 Nd40 2.492 . S
O61 C42 1.239 . S
O62 Nd40 2.487 . S
O62 C49 1.241 1_554 S
O63 Nd40 2.682 1_556 S
O63 Nd41 2.414 . S
O63 C49 1.273 . S
O64 Nd40 2.410 . S
O64 C50 1.251 . S
O65 Nd41 2.424 1_554 S
O65 C50 1.268 . S
O66 Nd41 2.500 . S
O66 C51 1.258 . S
O67 Nd41 2.492 . S
O67 C51 1.239 . S
O68 Nd41 2.487 . S
O68 C58 1.241 1_556 S
O69 Nd40 2.414 . S
O69 Nd41 2.682 1_554 S
O69 C58 1.273 . S
O70 Nd41 2.410 . S
O70 C59 1.251 . S
O71 Nd40 2.424 1_556 S
O71 C59 1.268 . S
H72 C44 0.930 . S
H73 C45 0.929 . S
H74 C47 0.930 . S
H75 C48 0.929 . S
H76 C53 0.930 . S
H77 C54 0.929 . S
H78 C56 0.930 . S
H79 C57 0.929 . S
Nd80 C82 2.836 . S
Nd80 O100 2.500 . S
Nd80 O101 2.492 . S
Nd80 O102 2.487 . S
Nd80 O103 2.682 1_554 S
Nd80 O104 2.410 . S
Nd80 O109 2.414 . S
Nd80 O111 2.424 1_554 S
Nd81 C91 2.836 . S
Nd81 O103 2.414 . S
Nd81 O105 2.424 1_556 S
Nd81 O106 2.500 . S
Nd81 O107 2.492 . S
Nd81 O108 2.487 . S
Nd81 O109 2.682 1_556 S
Nd81 O110 2.410 . S
C82 Nd80 2.836 . S
C82 C83 1.498 . S
C82 O100 1.258 . S
C82 O101 1.239 . S
C83 C82 1.498 . S
C83 C84 1.366 . S
C83 C88 1.407 . S
C84 C83 1.366 . S
C84 C85 1.392 . S
C84 H112 0.930 . S
C85 C84 1.392 . S
C85 C86 1.398 . S
C85 H113 0.929 . S
C86 C85 1.398 . S
C86 C87 1.352 . S
C87 C86 1.352 . S
C87 C88 1.384 . S
C87 H114 0.930 . S
C88 C83 1.407 . S
C88 C87 1.384 . S
C88 H115 0.929 . S
C89 O102 1.241 1_556 S
C89 O103 1.273 . S
C90 O104 1.251 . S
C90 O105 1.268 . S
C91 Nd81 2.836 . S
C91 C92 1.498 . S
C91 O106 1.258 . S
C91 O107 1.239 . S
C92 C91 1.498 . S
C92 C93 1.366 . S
C92 C97 1.407 . S
C93 C92 1.366 . S
C93 C94 1.392 . S
C93 H116 0.930 . S
C94 C93 1.392 . S
C94 C95 1.398 . S
C94 H117 0.929 . S
C95 C94 1.398 . S
C95 C96 1.352 . S
C96 C95 1.352 . S
C96 C97 1.384 . S
C96 H118 0.930 . S
C97 C92 1.407 . S
C97 C96 1.384 . S
C97 H119 0.929 . S
C98 O108 1.241 1_554 S
C98 O109 1.273 . S
C99 O110 1.251 . S
C99 O111 1.268 . S
O100 Nd80 2.500 . S
O100 C82 1.258 . S
O101 Nd80 2.492 . S
O101 C82 1.239 . S
O102 Nd80 2.487 . S
O102 C89 1.241 1_554 S
O103 Nd80 2.682 1_556 S
O103 Nd81 2.414 . S
O103 C89 1.273 . S
O104 Nd80 2.410 . S
O104 C90 1.251 . S
O105 Nd81 2.424 1_554 S
O105 C90 1.268 . S
O106 Nd81 2.500 . S
O106 C91 1.258 . S
O107 Nd81 2.492 . S
O107 C91 1.239 . S
O108 Nd81 2.487 . S
O108 C98 1.241 1_556 S
O109 Nd80 2.414 . S
O109 Nd81 2.682 1_554 S
O109 C98 1.273 . S
O110 Nd81 2.410 . S
O110 C99 1.251 . S
O111 Nd80 2.424 1_556 S
O111 C99 1.268 . S
H112 C84 0.930 . S
H113 C85 0.929 . S
H114 C87 0.930 . S
H115 C88 0.929 . S
H116 C93 0.930 . S
H117 C94 0.929 . S
H118 C96 0.930 . S
H119 C97 0.929 . S
Nd120 C122 2.836 . S
Nd120 O140 2.500 . S
Nd120 O141 2.492 . S
Nd120 O142 2.487 . S
Nd120 O143 2.682 . S
Nd120 O144 2.410 . S
Nd120 O149 2.414 . S
Nd120 O151 2.424 . S
Nd121 C131 2.836 . S
Nd121 O143 2.414 . S
Nd121 O145 2.424 . S
Nd121 O146 2.500 . S
Nd121 O147 2.492 . S
Nd121 O148 2.487 . S
Nd121 O149 2.682 . S
Nd121 O150 2.410 . S
C122 Nd120 2.836 . S
C122 C123 1.498 . S
C122 O140 1.258 . S
C122 O141 1.239 . S
C123 C122 1.498 . S
C123 C124 1.366 . S
C123 C128 1.407 . S
C124 C123 1.366 . S
C124 C125 1.392 . S
C124 H152 0.930 . S
C125 C124 1.392 . S
C125 C126 1.398 . S
C125 H153 0.929 . S
C126 C125 1.398 . S
C126 C127 1.352 . S
C127 C126 1.352 . S
C127 C128 1.384 . S
C127 H154 0.930 . S
C128 C123 1.407 . S
C128 C127 1.384 . S
C128 H155 0.929 . S
C129 O142 1.241 . S
C129 O143 1.273 . S
C130 O144 1.251 . S
C130 O145 1.268 . S
C131 Nd121 2.836 . S
C131 C132 1.498 . S
C131 O146 1.258 . S
C131 O147 1.239 . S
C132 C131 1.498 . S
C132 C133 1.366 . S
C132 C137 1.407 . S
C133 C132 1.366 . S
C133 C134 1.392 . S
C133 H156 0.930 . S
C134 C133 1.392 . S
C134 C135 1.398 . S
C134 H157 0.929 . S
C135 C134 1.398 . S
C135 C136 1.352 . S
C136 C135 1.352 . S
C136 C137 1.384 . S
C136 H158 0.930 . S
C137 C132 1.407 . S
C137 C136 1.384 . S
C137 H159 0.929 . S
C138 O148 1.241 . S
C138 O149 1.273 . S
C139 O150 1.251 . S
C139 O151 1.268 . S
O140 Nd120 2.500 . S
O140 C122 1.258 . S
O141 Nd120 2.492 . S
O141 C122 1.239 . S
O142 Nd120 2.487 . S
O142 C129 1.241 . S
O143 Nd120 2.682 . S
O143 Nd121 2.414 . S
O143 C129 1.273 . S
O144 Nd120 2.410 . S
O144 C130 1.251 . S
O145 Nd121 2.424 . S
O145 C130 1.268 . S
O146 Nd121 2.500 . S
O146 C131 1.258 . S
O147 Nd121 2.492 . S
O147 C131 1.239 . S
O148 Nd121 2.487 . S
O148 C138 1.241 . S
O149 Nd120 2.414 . S
O149 Nd121 2.682 . S
O149 C138 1.273 . S
O150 Nd121 2.410 . S
O150 C139 1.251 . S
O151 Nd120 2.424 . S
O151 C139 1.268 . S
H152 C124 0.930 . S
H153 C125 0.929 . S
H154 C127 0.930 . S
H155 C128 0.929 . S
H156 C133 0.930 . S
H157 C134 0.929 . S
H158 C136 0.930 . S
H159 C137 0.929 . S
Nd160 C162 2.836 . S
Nd160 O180 2.500 . S
Nd160 O181 2.492 . S
Nd160 O182 2.487 . S
Nd160 O183 2.682 . S
Nd160 O184 2.410 . S
Nd160 O189 2.414 . S
Nd160 O191 2.424 . S
Nd161 C171 2.836 . S
Nd161 O183 2.414 . S
Nd161 O185 2.424 . S
Nd161 O186 2.500 . S
Nd161 O187 2.492 . S
Nd161 O188 2.487 . S
Nd161 O189 2.682 . S
Nd161 O190 2.410 . S
C162 Nd160 2.836 . S
C162 C163 1.498 . S
C162 O180 1.258 . S
C162 O181 1.239 . S
C163 C162 1.498 . S
C163 C164 1.366 . S
C163 C168 1.407 . S
C164 C163 1.366 . S
C164 C165 1.392 . S
C164 H192 0.930 . S
C165 C164 1.392 . S
C165 C166 1.398 . S
C165 H193 0.929 . S
C166 C165 1.398 . S
C166 C167 1.352 . S
C167 C166 1.352 . S
C167 C168 1.384 . S
C167 H194 0.930 . S
C168 C163 1.407 . S
C168 C167 1.384 . S
C168 H195 0.929 . S
C169 O182 1.241 . S
C169 O183 1.273 . S
C170 O184 1.251 . S
C170 O185 1.268 . S
C171 Nd161 2.836 . S
C171 C172 1.498 . S
C171 O186 1.258 . S
C171 O187 1.239 . S
C172 C171 1.498 . S
C172 C173 1.366 . S
C172 C177 1.407 . S
C173 C172 1.366 . S
C173 C174 1.392 . S
C173 H196 0.930 . S
C174 C173 1.392 . S
C174 C175 1.398 . S
C174 H197 0.929 . S
C175 C174 1.398 . S
C175 C176 1.352 . S
C176 C175 1.352 . S
C176 C177 1.384 . S
C176 H198 0.930 . S
C177 C172 1.407 . S
C177 C176 1.384 . S
C177 H199 0.929 . S
C178 O188 1.241 . S
C178 O189 1.273 . S
C179 O190 1.251 . S
C179 O191 1.268 . S
O180 Nd160 2.500 . S
O180 C162 1.258 . S
O181 Nd160 2.492 . S
O181 C162 1.239 . S
O182 Nd160 2.487 . S
O182 C169 1.241 . S
O183 Nd160 2.682 . S
O183 Nd161 2.414 . S
O183 C169 1.273 . S
O184 Nd160 2.410 . S
O184 C170 1.251 . S
O185 Nd161 2.424 . S
O185 C170 1.268 . S
O186 Nd161 2.500 . S
O186 C171 1.258 . S
O187 Nd161 2.492 . S
O187 C171 1.239 . S
O188 Nd161 2.487 . S
O188 C178 1.241 . S
O189 Nd160 2.414 . S
O189 Nd161 2.682 . S
O189 C178 1.273 . S
O190 Nd161 2.410 . S
O190 C179 1.251 . S
O191 Nd160 2.424 . S
O191 C179 1.268 . S
H192 C164 0.930 . S
H193 C165 0.929 . S
H194 C167 0.930 . S
H195 C168 0.929 . S
H196 C173 0.930 . S
H197 C174 0.929 . S
H198 C176 0.930 . S
H199 C177 0.929 . S
Nd200 C202 2.836 . S
Nd200 O220 2.500 . S
Nd200 O221 2.492 . S
Nd200 O222 2.487 . S
Nd200 O223 2.682 . S
Nd200 O224 2.410 . S
Nd200 O229 2.414 . S
Nd200 O231 2.424 . S
Nd201 C211 2.836 . S
Nd201 O223 2.414 . S
Nd201 O225 2.424 . S
Nd201 O226 2.500 . S
Nd201 O227 2.492 . S
Nd201 O228 2.487 . S
Nd201 O229 2.682 . S
Nd201 O230 2.410 . S
C202 Nd200 2.836 . S
C202 C203 1.498 . S
C202 O220 1.258 . S
C202 O221 1.239 . S
C203 C202 1.498 . S
C203 C204 1.366 . S
C203 C208 1.407 . S
C204 C203 1.366 . S
C204 C205 1.392 . S
C204 H232 0.930 . S
C205 C204 1.392 . S
C205 C206 1.398 . S
C205 H233 0.929 . S
C206 C205 1.398 . S
C206 C207 1.352 . S
C207 C206 1.352 . S
C207 C208 1.384 . S
C207 H234 0.930 . S
C208 C203 1.407 . S
C208 C207 1.384 . S
C208 H235 0.929 . S
C209 O222 1.241 . S
C209 O223 1.273 . S
C210 O224 1.251 . S
C210 O225 1.268 . S
C211 Nd201 2.836 . S
C211 C212 1.498 . S
C211 O226 1.258 . S
C211 O227 1.239 . S
C212 C211 1.498 . S
C212 C213 1.366 . S
C212 C217 1.407 . S
C213 C212 1.366 . S
C213 C214 1.392 . S
C213 H236 0.930 . S
C214 C213 1.392 . S
C214 C215 1.398 . S
C214 H237 0.929 . S
C215 C214 1.398 . S
C215 C216 1.352 . S
C216 C215 1.352 . S
C216 C217 1.384 . S
C216 H238 0.930 . S
C217 C212 1.407 . S
C217 C216 1.384 . S
C217 H239 0.929 . S
C218 O228 1.241 . S
C218 O229 1.273 . S
C219 O230 1.251 . S
C219 O231 1.268 . S
O220 Nd200 2.500 . S
O220 C202 1.258 . S
O221 Nd200 2.492 . S
O221 C202 1.239 . S
O222 Nd200 2.487 . S
O222 C209 1.241 . S
O223 Nd200 2.682 . S
O223 Nd201 2.414 . S
O223 C209 1.273 . S
O224 Nd200 2.410 . S
O224 C210 1.251 . S
O225 Nd201 2.424 . S
O225 C210 1.268 . S
O226 Nd201 2.500 . S
O226 C211 1.258 . S
O227 Nd201 2.492 . S
O227 C211 1.239 . S
O228 Nd201 2.487 . S
O228 C218 1.241 . S
O229 Nd200 2.414 . S
O229 Nd201 2.682 . S
O229 C218 1.273 . S
O230 Nd201 2.410 . S
O230 C219 1.251 . S
O231 Nd200 2.424 . S
O231 C219 1.268 . S
H232 C204 0.930 . S
H233 C205 0.929 . S
H234 C207 0.930 . S
H235 C208 0.929 . S
H236 C213 0.930 . S
H237 C214 0.929 . S
H238 C216 0.930 . S
H239 C217 0.929 . S
Nd240 C242 2.836 . S
Nd240 O260 2.500 . S
Nd240 O261 2.492 . S
Nd240 O262 2.487 . S
Nd240 O263 2.682 . S
Nd240 O264 2.410 . S
Nd240 O269 2.414 . S
Nd240 O271 2.424 . S
Nd241 C251 2.836 . S
Nd241 O263 2.414 . S
Nd241 O265 2.424 . S
Nd241 O266 2.500 . S
Nd241 O267 2.492 . S
Nd241 O268 2.487 . S
Nd241 O269 2.682 . S
Nd241 O270 2.410 . S
C242 Nd240 2.836 . S
C242 C243 1.498 . S
C242 O260 1.258 . S
C242 O261 1.239 . S
C243 C242 1.498 . S
C243 C244 1.366 . S
C243 C248 1.407 . S
C244 C243 1.366 . S
C244 C245 1.392 . S
C244 H272 0.930 . S
C245 C244 1.392 . S
C245 C246 1.398 . S
C245 H273 0.929 . S
C246 C245 1.398 . S
C246 C247 1.352 . S
C247 C246 1.352 . S
C247 C248 1.384 . S
C247 H274 0.930 . S
C248 C243 1.407 . S
C248 C247 1.384 . S
C248 H275 0.929 . S
C249 O262 1.241 . S
C249 O263 1.273 . S
C250 O264 1.251 . S
C250 O265 1.268 . S
C251 Nd241 2.836 . S
C251 C252 1.498 1_554 S
C251 O266 1.258 . S
C251 O267 1.239 . S
C252 C251 1.498 1_556 S
C252 C253 1.366 . S
C252 C257 1.407 . S
C253 C252 1.366 . S
C253 C254 1.392 . S
C253 H276 0.930 . S
C254 C253 1.392 . S
C254 C255 1.398 . S
C254 H277 0.929 . S
C255 C254 1.398 . S
C255 C256 1.352 . S
C256 C255 1.352 . S
C256 C257 1.384 . S
C256 H278 0.930 . S
C257 C252 1.407 . S
C257 C256 1.384 . S
C257 H279 0.929 . S
C258 O268 1.241 . S
C258 O269 1.273 . S
C259 O270 1.251 . S
C259 O271 1.268 . S
O260 Nd240 2.500 . S
O260 C242 1.258 . S
O261 Nd240 2.492 . S
O261 C242 1.239 . S
O262 Nd240 2.487 . S
O262 C249 1.241 . S
O263 Nd240 2.682 . S
O263 Nd241 2.414 . S
O263 C249 1.273 . S
O264 Nd240 2.410 . S
O264 C250 1.251 . S
O265 Nd241 2.424 . S
O265 C250 1.268 . S
O266 Nd241 2.500 . S
O266 C251 1.258 . S
O267 Nd241 2.492 . S
O267 C251 1.239 . S
O268 Nd241 2.487 . S
O268 C258 1.241 . S
O269 Nd240 2.414 . S
O269 Nd241 2.682 . S
O269 C258 1.273 . S
O270 Nd241 2.410 . S
O270 C259 1.251 . S
O271 Nd240 2.424 . S
O271 C259 1.268 . S
H272 C244 0.930 . S
H273 C245 0.929 . S
H274 C247 0.930 . S
H275 C248 0.929 . S
H276 C253 0.930 . S
H277 C254 0.929 . S
H278 C256 0.930 . S
H279 C257 0.929 . S
Nd280 C282 2.836 . S
Nd280 O300 2.500 . S
Nd280 O301 2.492 . S
Nd280 O302 2.487 . S
Nd280 O303 2.682 . S
Nd280 O304 2.410 . S
Nd280 O309 2.414 . S
Nd280 O311 2.424 . S
Nd281 C291 2.836 . S
Nd281 O303 2.414 . S
Nd281 O305 2.424 . S
Nd281 O306 2.500 . S
Nd281 O307 2.492 . S
Nd281 O308 2.487 . S
Nd281 O309 2.682 . S
Nd281 O310 2.410 . S
C282 Nd280 2.836 . S
C282 C283 1.498 . S
C282 O300 1.258 . S
C282 O301 1.239 . S
C283 C282 1.498 . S
C283 C284 1.366 . S
C283 C288 1.407 . S
C284 C283 1.366 . S
C284 C285 1.392 . S
C284 H312 0.930 . S
C285 C284 1.392 . S
C285 C286 1.398 . S
C285 H313 0.929 . S
C286 C285 1.398 . S
C286 C287 1.352 . S
C287 C286 1.352 . S
C287 C288 1.384 . S
C287 H314 0.930 . S
C288 C283 1.407 . S
C288 C287 1.384 . S
C288 H315 0.929 . S
C289 O302 1.241 . S
C289 O303 1.273 . S
C290 O304 1.251 . S
C290 O305 1.268 . S
C291 Nd281 2.836 . S
C291 C292 1.498 1_554 S
C291 O306 1.258 . S
C291 O307 1.239 . S
C292 C291 1.498 1_556 S
C292 C293 1.366 . S
C292 C297 1.407 . S
C293 C292 1.366 . S
C293 C294 1.392 . S
C293 H316 0.930 . S
C294 C293 1.392 . S
C294 C295 1.398 . S
C294 H317 0.929 . S
C295 C294 1.398 . S
C295 C296 1.352 . S
C296 C295 1.352 . S
C296 C297 1.384 . S
C296 H318 0.930 . S
C297 C292 1.407 . S
C297 C296 1.384 . S
C297 H319 0.929 . S
C298 O308 1.241 . S
C298 O309 1.273 . S
C299 O310 1.251 . S
C299 O311 1.268 . S
O300 Nd280 2.500 . S
O300 C282 1.258 . S
O301 Nd280 2.492 . S
O301 C282 1.239 . S
O302 Nd280 2.487 . S
O302 C289 1.241 . S
O303 Nd280 2.682 . S
O303 Nd281 2.414 . S
O303 C289 1.273 . S
O304 Nd280 2.410 . S
O304 C290 1.251 . S
O305 Nd281 2.424 . S
O305 C290 1.268 . S
O306 Nd281 2.500 . S
O306 C291 1.258 . S
O307 Nd281 2.492 . S
O307 C291 1.239 . S
O308 Nd281 2.487 . S
O308 C298 1.241 . S
O309 Nd280 2.414 . S
O309 Nd281 2.682 . S
O309 C298 1.273 . S
O310 Nd281 2.410 . S
O310 C299 1.251 . S
O311 Nd280 2.424 . S
O311 C299 1.268 . S
H312 C284 0.930 . S
H313 C285 0.929 . S
H314 C287 0.930 . S
H315 C288 0.929 . S
H316 C293 0.930 . S
H317 C294 0.929 . S
H318 C296 0.930 . S
H319 C297 0.929 . S
Nd320 C322 2.836 . S
Nd320 O340 2.500 . S
Nd320 O341 2.492 . S
Nd320 O342 2.487 . S
Nd320 O343 2.682 . S
Nd320 O344 2.410 . S
Nd320 O349 2.414 . S
Nd320 O351 2.424 . S
Nd321 C331 2.836 . S
Nd321 O343 2.414 . S
Nd321 O345 2.424 . S
Nd321 O346 2.500 . S
Nd321 O347 2.492 . S
Nd321 O348 2.487 . S
Nd321 O349 2.682 . S
Nd321 O350 2.410 . S
C322 Nd320 2.836 . S
C322 C323 1.498 . S
C322 O340 1.258 . S
C322 O341 1.239 . S
C323 C322 1.498 . S
C323 C324 1.366 . S
C323 C328 1.407 . S
C324 C323 1.366 . S
C324 C325 1.392 . S
C324 H352 0.930 . S
C325 C324 1.392 . S
C325 C326 1.398 . S
C325 H353 0.929 . S
C326 C325 1.398 . S
C326 C327 1.352 . S
C327 C326 1.352 . S
C327 C328 1.384 . S
C327 H354 0.930 . S
C328 C323 1.407 . S
C328 C327 1.384 . S
C328 H355 0.929 . S
C329 O342 1.241 . S
C329 O343 1.273 . S
C330 O344 1.251 . S
C330 O345 1.268 . S
C331 Nd321 2.836 . S
C331 C332 1.498 1_554 S
C331 O346 1.258 . S
C331 O347 1.239 . S
C332 C331 1.498 1_556 S
C332 C333 1.366 . S
C332 C337 1.407 . S
C333 C332 1.366 . S
C333 C334 1.392 . S
C333 H356 0.930 . S
C334 C333 1.392 . S
C334 C335 1.398 . S
C334 H357 0.929 . S
C335 C334 1.398 . S
C335 C336 1.352 . S
C336 C335 1.352 . S
C336 C337 1.384 . S
C336 H358 0.930 . S
C337 C332 1.407 . S
C337 C336 1.384 . S
C337 H359 0.929 . S
C338 O348 1.241 . S
C338 O349 1.273 . S
C339 O350 1.251 . S
C339 O351 1.268 . S
O340 Nd320 2.500 . S
O340 C322 1.258 . S
O341 Nd320 2.492 . S
O341 C322 1.239 . S
O342 Nd320 2.487 . S
O342 C329 1.241 . S
O343 Nd320 2.682 . S
O343 Nd321 2.414 . S
O343 C329 1.273 . S
O344 Nd320 2.410 . S
O344 C330 1.251 . S
O345 Nd321 2.424 . S
O345 C330 1.268 . S
O346 Nd321 2.500 . S
O346 C331 1.258 . S
O347 Nd321 2.492 . S
O347 C331 1.239 . S
O348 Nd321 2.487 . S
O348 C338 1.241 . S
O349 Nd320 2.414 . S
O349 Nd321 2.682 . S
O349 C338 1.273 . S
O350 Nd321 2.410 . S
O350 C339 1.251 . S
O351 Nd320 2.424 . S
O351 C339 1.268 . S
H352 C324 0.930 . S
H353 C325 0.929 . S
H354 C327 0.930 . S
H355 C328 0.929 . S
H356 C333 0.930 . S
H357 C334 0.929 . S
H358 C336 0.930 . S
H359 C337 0.929 . S
Nd360 C362 2.836 . S
Nd360 O380 2.500 . S
Nd360 O381 2.492 . S
Nd360 O382 2.487 . S
Nd360 O383 2.682 . S
Nd360 O384 2.410 . S
Nd360 O389 2.414 . S
Nd360 O391 2.424 . S
Nd361 C371 2.836 . S
Nd361 O383 2.414 . S
Nd361 O385 2.424 . S
Nd361 O386 2.500 . S
Nd361 O387 2.492 . S
Nd361 O388 2.487 . S
Nd361 O389 2.682 . S
Nd361 O390 2.410 . S
C362 Nd360 2.836 . S
C362 C363 1.498 . S
C362 O380 1.258 . S
C362 O381 1.239 . S
C363 C362 1.498 . S
C363 C364 1.366 . S
C363 C368 1.407 . S
C364 C363 1.366 . S
C364 C365 1.392 . S
C364 H392 0.930 . S
C365 C364 1.392 . S
C365 C366 1.398 . S
C365 H393 0.929 . S
C366 C365 1.398 . S
C366 C367 1.352 . S
C367 C366 1.352 . S
C367 C368 1.384 . S
C367 H394 0.930 . S
C368 C363 1.407 . S
C368 C367 1.384 . S
C368 H395 0.929 . S
C369 O382 1.241 . S
C369 O383 1.273 . S
C370 O384 1.251 . S
C370 O385 1.268 . S
C371 Nd361 2.836 . S
C371 C372 1.498 . S
C371 O386 1.258 . S
C371 O387 1.239 . S
C372 C371 1.498 . S
C372 C373 1.366 . S
C372 C377 1.407 . S
C373 C372 1.366 . S
C373 C374 1.392 . S
C373 H396 0.930 . S
C374 C373 1.392 . S
C374 C375 1.398 . S
C374 H397 0.929 . S
C375 C374 1.398 . S
C375 C376 1.352 . S
C376 C375 1.352 . S
C376 C377 1.384 . S
C376 H398 0.930 . S
C377 C372 1.407 . S
C377 C376 1.384 . S
C377 H399 0.929 . S
C378 O388 1.241 . S
C378 O389 1.273 . S
C379 O390 1.251 . S
C379 O391 1.268 . S
O380 Nd360 2.500 . S
O380 C362 1.258 . S
O381 Nd360 2.492 . S
O381 C362 1.239 . S
O382 Nd360 2.487 . S
O382 C369 1.241 . S
O383 Nd360 2.682 . S
O383 Nd361 2.414 . S
O383 C369 1.273 . S
O384 Nd360 2.410 . S
O384 C370 1.251 . S
O385 Nd361 2.424 . S
O385 C370 1.268 . S
O386 Nd361 2.500 . S
O386 C371 1.258 . S
O387 Nd361 2.492 . S
O387 C371 1.239 . S
O388 Nd361 2.487 . S
O388 C378 1.241 . S
O389 Nd360 2.414 . S
O389 Nd361 2.682 . S
O389 C378 1.273 . S
O390 Nd361 2.410 . S
O390 C379 1.251 . S
O391 Nd360 2.424 . S
O391 C379 1.268 . S
H392 C364 0.930 . S
H393 C365 0.929 . S
H394 C367 0.930 . S
H395 C368 0.929 . S
H396 C373 0.930 . S
H397 C374 0.929 . S
H398 C376 0.930 . S
H399 C377 0.929 . S
Nd400 C402 2.836 . S
Nd400 O420 2.500 . S
Nd400 O421 2.492 . S
Nd400 O422 2.487 . S
Nd400 O423 2.682 . S
Nd400 O424 2.410 . S
Nd400 O429 2.414 . S
Nd400 O431 2.424 . S
Nd401 C411 2.836 . S
Nd401 O423 2.414 . S
Nd401 O425 2.424 . S
Nd401 O426 2.500 . S
Nd401 O427 2.492 . S
Nd401 O428 2.487 . S
Nd401 O429 2.682 . S
Nd401 O430 2.410 . S
C402 Nd400 2.836 . S
C402 C403 1.498 . S
C402 O420 1.258 . S
C402 O421 1.239 . S
C403 C402 1.498 . S
C403 C404 1.366 . S
C403 C408 1.407 . S
C404 C403 1.366 . S
C404 C405 1.392 . S
C404 H432 0.930 . S
C405 C404 1.392 . S
C405 C406 1.398 . S
C405 H433 0.929 . S
C406 C405 1.398 . S
C406 C407 1.352 . S
C407 C406 1.352 . S
C407 C408 1.384 . S
C407 H434 0.930 . S
C408 C403 1.407 . S
C408 C407 1.384 . S
C408 H435 0.929 . S
C409 O422 1.241 . S
C409 O423 1.273 . S
C410 O424 1.251 . S
C410 O425 1.268 . S
C411 Nd401 2.836 . S
C411 C412 1.498 . S
C411 O426 1.258 . S
C411 O427 1.239 . S
C412 C411 1.498 . S
C412 C413 1.366 . S
C412 C417 1.407 . S
C413 C412 1.366 . S
C413 C414 1.392 . S
C413 H436 0.930 . S
C414 C413 1.392 . S
C414 C415 1.398 . S
C414 H437 0.929 . S
C415 C414 1.398 . S
C415 C416 1.352 . S
C416 C415 1.352 . S
C416 C417 1.384 . S
C416 H438 0.930 . S
C417 C412 1.407 . S
C417 C416 1.384 . S
C417 H439 0.929 . S
C418 O428 1.241 . S
C418 O429 1.273 . S
C419 O430 1.251 . S
C419 O431 1.268 . S
O420 Nd400 2.500 . S
O420 C402 1.258 . S
O421 Nd400 2.492 . S
O421 C402 1.239 . S
O422 Nd400 2.487 . S
O422 C409 1.241 . S
O423 Nd400 2.682 . S
O423 Nd401 2.414 . S
O423 C409 1.273 . S
O424 Nd400 2.410 . S
O424 C410 1.251 . S
O425 Nd401 2.424 . S
O425 C410 1.268 . S
O426 Nd401 2.500 . S
O426 C411 1.258 . S
O427 Nd401 2.492 . S
O427 C411 1.239 . S
O428 Nd401 2.487 . S
O428 C418 1.241 . S
O429 Nd400 2.414 . S
O429 Nd401 2.682 . S
O429 C418 1.273 . S
O430 Nd401 2.410 . S
O430 C419 1.251 . S
O431 Nd400 2.424 . S
O431 C419 1.268 . S
H432 C404 0.930 . S
H433 C405 0.929 . S
H434 C407 0.930 . S
H435 C408 0.929 . S
H436 C413 0.930 . S
H437 C414 0.929 . S
H438 C416 0.930 . S
H439 C417 0.929 . S
Nd440 C442 2.836 . S
Nd440 O460 2.500 . S
Nd440 O461 2.492 . S
Nd440 O462 2.487 . S
Nd440 O463 2.682 . S
Nd440 O464 2.410 . S
Nd440 O469 2.414 . S
Nd440 O471 2.424 . S
Nd441 C451 2.836 . S
Nd441 O463 2.414 . S
Nd441 O465 2.424 . S
Nd441 O466 2.500 . S
Nd441 O467 2.492 . S
Nd441 O468 2.487 . S
Nd441 O469 2.682 . S
Nd441 O470 2.410 . S
C442 Nd440 2.836 . S
C442 C443 1.498 . S
C442 O460 1.258 . S
C442 O461 1.239 . S
C443 C442 1.498 . S
C443 C444 1.366 . S
C443 C448 1.407 . S
C444 C443 1.366 . S
C444 C445 1.392 . S
C444 H472 0.930 . S
C445 C444 1.392 . S
C445 C446 1.398 . S
C445 H473 0.929 . S
C446 C445 1.398 . S
C446 C447 1.352 . S
C447 C446 1.352 . S
C447 C448 1.384 . S
C447 H474 0.930 . S
C448 C443 1.407 . S
C448 C447 1.384 . S
C448 H475 0.929 . S
C449 O462 1.241 . S
C449 O463 1.273 . S
C450 O464 1.251 . S
C450 O465 1.268 . S
C451 Nd441 2.836 . S
C451 C452 1.498 . S
C451 O466 1.258 . S
C451 O467 1.239 . S
C452 C451 1.498 . S
C452 C453 1.366 . S
C452 C457 1.407 . S
C453 C452 1.366 . S
C453 C454 1.392 . S
C453 H476 0.930 . S
C454 C453 1.392 . S
C454 C455 1.398 . S
C454 H477 0.929 . S
C455 C454 1.398 . S
C455 C456 1.352 . S
C456 C455 1.352 . S
C456 C457 1.384 . S
C456 H478 0.930 . S
C457 C452 1.407 . S
C457 C456 1.384 . S
C457 H479 0.929 . S
C458 O468 1.241 . S
C458 O469 1.273 . S
C459 O470 1.251 . S
C459 O471 1.268 . S
O460 Nd440 2.500 . S
O460 C442 1.258 . S
O461 Nd440 2.492 . S
O461 C442 1.239 . S
O462 Nd440 2.487 . S
O462 C449 1.241 . S
O463 Nd440 2.682 . S
O463 Nd441 2.414 . S
O463 C449 1.273 . S
O464 Nd440 2.410 . S
O464 C450 1.251 . S
O465 Nd441 2.424 . S
O465 C450 1.268 . S
O466 Nd441 2.500 . S
O466 C451 1.258 . S
O467 Nd441 2.492 . S
O467 C451 1.239 . S
O468 Nd441 2.487 . S
O468 C458 1.241 . S
O469 Nd440 2.414 . S
O469 Nd441 2.682 . S
O469 C458 1.273 . S
O470 Nd441 2.410 . S
O470 C459 1.251 . S
O471 Nd440 2.424 . S
O471 C459 1.268 . S
H472 C444 0.930 . S
H473 C445 0.929 . S
H474 C447 0.930 . S
H475 C448 0.929 . S
H476 C453 0.930 . S
H477 C454 0.929 . S
H478 C456 0.930 . S
H479 C457 0.929 . S
Nd480 C482 2.836 . S
Nd480 O500 2.500 . S
Nd480 O501 2.492 . S
Nd480 O502 2.487 . S
Nd480 O503 2.682 . S
Nd480 O504 2.410 . S
Nd480 O509 2.414 . S
Nd480 O511 2.424 . S
Nd481 C491 2.836 . S
Nd481 O503 2.414 . S
Nd481 O505 2.424 . S
Nd481 O506 2.500 . S
Nd481 O507 2.492 . S
Nd481 O508 2.487 . S
Nd481 O509 2.682 . S
Nd481 O510 2.410 . S
C482 Nd480 2.836 . S
C482 C483 1.498 . S
C482 O500 1.258 . S
C482 O501 1.239 . S
C483 C482 1.498 . S
C483 C484 1.366 . S
C483 C488 1.407 . S
C484 C483 1.366 . S
C484 C485 1.392 . S
C484 H512 0.930 . S
C485 C484 1.392 . S
C485 C486 1.398 . S
C485 H513 0.929 . S
C486 C485 1.398 . S
C486 C487 1.352 . S
C487 C486 1.352 . S
C487 C488 1.384 . S
C487 H514 0.930 . S
C488 C483 1.407 . S
C488 C487 1.384 . S
C488 H515 0.929 . S
C489 O502 1.241 . S
C489 O503 1.273 . S
C490 O504 1.251 . S
C490 O505 1.268 . S
C491 Nd481 2.836 . S
C491 C492 1.498 . S
C491 O506 1.258 . S
C491 O507 1.239 . S
C492 C491 1.498 . S
C492 C493 1.366 . S
C492 C497 1.407 . S
C493 C492 1.366 . S
C493 C494 1.392 . S
C493 H516 0.930 . S
C494 C493 1.392 . S
C494 C495 1.398 . S
C494 H517 0.929 . S
C495 C494 1.398 . S
C495 C496 1.352 . S
C496 C495 1.352 . S
C496 C497 1.384 . S
C496 H518 0.930 . S
C497 C492 1.407 . S
C497 C496 1.384 . S
C497 H519 0.929 . S
C498 O508 1.241 . S
C498 O509 1.273 . S
C499 O510 1.251 . S
C499 O511 1.268 . S
O500 Nd480 2.500 . S
O500 C482 1.258 . S
O501 Nd480 2.492 . S
O501 C482 1.239 . S
O502 Nd480 2.487 . S
O502 C489 1.241 . S
O503 Nd480 2.682 . S
O503 Nd481 2.414 . S
O503 C489 1.273 . S
O504 Nd480 2.410 . S
O504 C490 1.251 . S
O505 Nd481 2.424 . S
O505 C490 1.268 . S
O506 Nd481 2.500 . S
O506 C491 1.258 . S
O507 Nd481 2.492 . S
O507 C491 1.239 . S
O508 Nd481 2.487 . S
O508 C498 1.241 . S
O509 Nd480 2.414 . S
O509 Nd481 2.682 . S
O509 C498 1.273 . S
O510 Nd481 2.410 . S
O510 C499 1.251 . S
O511 Nd480 2.424 . S
O511 C499 1.268 . S
H512 C484 0.930 . S
H513 C485 0.929 . S
H514 C487 0.930 . S
H515 C488 0.929 . S
H516 C493 0.930 . S
H517 C494 0.929 . S
H518 C496 0.930 . S
H519 C497 0.929 . S
Nd520 C522 2.836 . S
Nd520 O540 2.500 . S
Nd520 O541 2.492 . S
Nd520 O542 2.487 . S
Nd520 O543 2.682 . S
Nd520 O544 2.410 . S
Nd520 O549 2.414 . S
Nd520 O551 2.424 . S
Nd521 C531 2.836 . S
Nd521 O543 2.414 . S
Nd521 O545 2.424 . S
Nd521 O546 2.500 . S
Nd521 O547 2.492 . S
Nd521 O548 2.487 . S
Nd521 O549 2.682 . S
Nd521 O550 2.410 . S
C522 Nd520 2.836 . S
C522 C523 1.498 . S
C522 O540 1.258 . S
C522 O541 1.239 . S
C523 C522 1.498 . S
C523 C524 1.366 . S
C523 C528 1.407 . S
C524 C523 1.366 . S
C524 C525 1.392 . S
C524 H552 0.930 . S
C525 C524 1.392 . S
C525 C526 1.398 . S
C525 H553 0.929 . S
C526 C525 1.398 . S
C526 C527 1.352 . S
C527 C526 1.352 . S
C527 C528 1.384 . S
C527 H554 0.930 . S
C528 C523 1.407 . S
C528 C527 1.384 . S
C528 H555 0.929 . S
C529 O542 1.241 . S
C529 O543 1.273 . S
C530 O544 1.251 . S
C530 O545 1.268 . S
C531 Nd521 2.836 . S
C531 C532 1.498 . S
C531 O546 1.258 . S
C531 O547 1.239 . S
C532 C531 1.498 . S
C532 C533 1.366 . S
C532 C537 1.407 . S
C533 C532 1.366 . S
C533 C534 1.392 . S
C533 H556 0.930 . S
C534 C533 1.392 . S
C534 C535 1.398 . S
C534 H557 0.929 . S
C535 C534 1.398 . S
C535 C536 1.352 . S
C536 C535 1.352 . S
C536 C537 1.384 . S
C536 H558 0.930 . S
C537 C532 1.407 . S
C537 C536 1.384 . S
C537 H559 0.929 . S
C538 O548 1.241 . S
C538 O549 1.273 . S
C539 O550 1.251 . S
C539 O551 1.268 . S
O540 Nd520 2.500 . S
O540 C522 1.258 . S
O541 Nd520 2.492 . S
O541 C522 1.239 . S
O542 Nd520 2.487 . S
O542 C529 1.241 . S
O543 Nd520 2.682 . S
O543 Nd521 2.414 . S
O543 C529 1.273 . S
O544 Nd520 2.410 . S
O544 C530 1.251 . S
O545 Nd521 2.424 . S
O545 C530 1.268 . S
O546 Nd521 2.500 . S
O546 C531 1.258 . S
O547 Nd521 2.492 . S
O547 C531 1.239 . S
O548 Nd521 2.487 . S
O548 C538 1.241 . S
O549 Nd520 2.414 . S
O549 Nd521 2.682 . S
O549 C538 1.273 . S
O550 Nd521 2.410 . S
O550 C539 1.251 . S
O551 Nd520 2.424 . S
O551 C539 1.268 . S
H552 C524 0.930 . S
H553 C525 0.929 . S
H554 C527 0.930 . S
H555 C528 0.929 . S
H556 C533 0.930 . S
H557 C534 0.929 . S
H558 C536 0.930 . S
H559 C537 0.929 . S
Nd560 C562 2.836 . S
Nd560 O580 2.500 . S
Nd560 O581 2.492 . S
Nd560 O582 2.487 . S
Nd560 O583 2.682 . S
Nd560 O584 2.410 . S
Nd560 O589 2.414 . S
Nd560 O591 2.424 . S
Nd561 C571 2.836 . S
Nd561 O583 2.414 . S
Nd561 O585 2.424 . S
Nd561 O586 2.500 . S
Nd561 O587 2.492 . S
Nd561 O588 2.487 . S
Nd561 O589 2.682 . S
Nd561 O590 2.410 . S
C562 Nd560 2.836 . S
C562 C563 1.498 . S
C562 O580 1.258 . S
C562 O581 1.239 . S
C563 C562 1.498 . S
C563 C564 1.366 . S
C563 C568 1.407 . S
C564 C563 1.366 . S
C564 C565 1.392 . S
C564 H592 0.930 . S
C565 C564 1.392 . S
C565 C566 1.398 . S
C565 H593 0.929 . S
C566 C565 1.398 . S
C566 C567 1.352 . S
C567 C566 1.352 . S
C567 C568 1.384 . S
C567 H594 0.930 . S
C568 C563 1.407 . S
C568 C567 1.384 . S
C568 H595 0.929 . S
C569 O582 1.241 . S
C569 O583 1.273 . S
C570 O584 1.251 . S
C570 O585 1.268 . S
C571 Nd561 2.836 . S
C571 C572 1.498 . S
C571 O586 1.258 . S
C571 O587 1.239 . S
C572 C571 1.498 . S
C572 C573 1.366 . S
C572 C577 1.407 . S
C573 C572 1.366 . S
C573 C574 1.392 . S
C573 H596 0.930 . S
C574 C573 1.392 . S
C574 C575 1.398 . S
C574 H597 0.929 . S
C575 C574 1.398 . S
C575 C576 1.352 . S
C576 C575 1.352 . S
C576 C577 1.384 . S
C576 H598 0.930 . S
C577 C572 1.407 . S
C577 C576 1.384 . S
C577 H599 0.929 . S
C578 O588 1.241 . S
C578 O589 1.273 . S
C579 O590 1.251 . S
C579 O591 1.268 . S
O580 Nd560 2.500 . S
O580 C562 1.258 . S
O581 Nd560 2.492 . S
O581 C562 1.239 . S
O582 Nd560 2.487 . S
O582 C569 1.241 . S
O583 Nd560 2.682 . S
O583 Nd561 2.414 . S
O583 C569 1.273 . S
O584 Nd560 2.410 . S
O584 C570 1.251 . S
O585 Nd561 2.424 . S
O585 C570 1.268 . S
O586 Nd561 2.500 . S
O586 C571 1.258 . S
O587 Nd561 2.492 . S
O587 C571 1.239 . S
O588 Nd561 2.487 . S
O588 C578 1.241 . S
O589 Nd560 2.414 . S
O589 Nd561 2.682 . S
O589 C578 1.273 . S
O590 Nd561 2.410 . S
O590 C579 1.251 . S
O591 Nd560 2.424 . S
O591 C579 1.268 . S
H592 C564 0.930 . S
H593 C565 0.929 . S
H594 C567 0.930 . S
H595 C568 0.929 . S
H596 C573 0.930 . S
H597 C574 0.929 . S
H598 C576 0.930 . S
H599 C577 0.929 . S
Nd600 C602 2.836 . S
Nd600 O620 2.500 . S
Nd600 O621 2.492 . S
Nd600 O622 2.487 . S
Nd600 O623 2.682 1_556 S
Nd600 O624 2.410 . S
Nd600 O629 2.414 . S
Nd600 O631 2.424 1_556 S
Nd601 C611 2.836 . S
Nd601 O623 2.414 . S
Nd601 O625 2.424 1_554 S
Nd601 O626 2.500 . S
Nd601 O627 2.492 . S
Nd601 O628 2.487 . S
Nd601 O629 2.682 1_554 S
Nd601 O630 2.410 . S
C602 Nd600 2.836 . S
C602 C603 1.498 . S
C602 O620 1.258 . S
C602 O621 1.239 . S
C603 C602 1.498 . S
C603 C604 1.366 . S
C603 C608 1.407 . S
C604 C603 1.366 . S
C604 C605 1.392 . S
C604 H632 0.930 . S
C605 C604 1.392 . S
C605 C606 1.398 . S
C605 H633 0.929 . S
C606 C605 1.398 . S
C606 C607 1.352 . S
C607 C606 1.352 . S
C607 C608 1.384 . S
C607 H634 0.930 . S
C608 C603 1.407 . S
C608 C607 1.384 . S
C608 H635 0.929 . S
C609 O622 1.241 . S
C609 O623 1.273 1_556 S
C610 O624 1.251 . S
C610 O625 1.268 . S
C611 Nd601 2.836 . S
C611 C612 1.498 . S
C611 O626 1.258 . S
C611 O627 1.239 . S
C612 C611 1.498 . S
C612 C613 1.366 . S
C612 C617 1.407 . S
C613 C612 1.366 . S
C613 C614 1.392 . S
C613 H636 0.930 . S
C614 C613 1.392 . S
C614 C615 1.398 . S
C614 H637 0.929 . S
C615 C614 1.398 . S
C615 C616 1.352 . S
C616 C615 1.352 . S
C616 C617 1.384 . S
C616 H638 0.930 . S
C617 C612 1.407 . S
C617 C616 1.384 . S
C617 H639 0.929 . S
C618 O628 1.241 1_556 S
C618 O629 1.273 . S
C619 O630 1.251 . S
C619 O631 1.268 . S
O620 Nd600 2.500 . S
O620 C602 1.258 . S
O621 Nd600 2.492 . S
O621 C602 1.239 . S
O622 Nd600 2.487 . S
O622 C609 1.241 . S
O623 Nd600 2.682 1_554 S
O623 Nd601 2.414 . S
O623 C609 1.273 1_554 S
O624 Nd600 2.410 . S
O624 C610 1.251 . S
O625 Nd601 2.424 1_556 S
O625 C610 1.268 . S
O626 Nd601 2.500 . S
O626 C611 1.258 . S
O627 Nd601 2.492 . S
O627 C611 1.239 . S
O628 Nd601 2.487 . S
O628 C618 1.241 1_554 S
O629 Nd600 2.414 . S
O629 Nd601 2.682 1_556 S
O629 C618 1.273 . S
O630 Nd601 2.410 . S
O630 C619 1.251 . S
O631 Nd600 2.424 1_554 S
O631 C619 1.268 . S
H632 C604 0.930 . S
H633 C605 0.929 . S
H634 C607 0.930 . S
H635 C608 0.929 . S
H636 C613 0.930 . S
H637 C614 0.929 . S
H638 C616 0.930 . S
H639 C617 0.929 . S
Nd640 C642 2.836 . S
Nd640 O660 2.500 . S
Nd640 O661 2.492 . S
Nd640 O662 2.487 . S
Nd640 O663 2.682 1_556 S
Nd640 O664 2.410 . S
Nd640 O669 2.414 . S
Nd640 O671 2.424 1_556 S
Nd641 C651 2.836 . S
Nd641 O663 2.414 . S
Nd641 O665 2.424 1_554 S
Nd641 O666 2.500 . S
Nd641 O667 2.492 . S
Nd641 O668 2.487 . S
Nd641 O669 2.682 1_554 S
Nd641 O670 2.410 . S
C642 Nd640 2.836 . S
C642 C643 1.498 . S
C642 O660 1.258 . S
C642 O661 1.239 . S
C643 C642 1.498 . S
C643 C644 1.366 . S
C643 C648 1.407 . S
C644 C643 1.366 . S
C644 C645 1.392 . S
C644 H672 0.930 . S
C645 C644 1.392 . S
C645 C646 1.398 . S
C645 H673 0.929 . S
C646 C645 1.398 . S
C646 C647 1.352 . S
C647 C646 1.352 . S
C647 C648 1.384 . S
C647 H674 0.930 . S
C648 C643 1.407 . S
C648 C647 1.384 . S
C648 H675 0.929 . S
C649 O662 1.241 . S
C649 O663 1.273 1_556 S
C650 O664 1.251 . S
C650 O665 1.268 . S
C651 Nd641 2.836 . S
C651 C652 1.498 . S
C651 O666 1.258 . S
C651 O667 1.239 . S
C652 C651 1.498 . S
C652 C653 1.366 . S
C652 C657 1.407 . S
C653 C652 1.366 . S
C653 C654 1.392 . S
C653 H676 0.930 . S
C654 C653 1.392 . S
C654 C655 1.398 . S
C654 H677 0.929 . S
C655 C654 1.398 . S
C655 C656 1.352 . S
C656 C655 1.352 . S
C656 C657 1.384 . S
C656 H678 0.930 . S
C657 C652 1.407 . S
C657 C656 1.384 . S
C657 H679 0.929 . S
C658 O668 1.241 1_556 S
C658 O669 1.273 . S
C659 O670 1.251 . S
C659 O671 1.268 . S
O660 Nd640 2.500 . S
O660 C642 1.258 . S
O661 Nd640 2.492 . S
O661 C642 1.239 . S
O662 Nd640 2.487 . S
O662 C649 1.241 . S
O663 Nd640 2.682 1_554 S
O663 Nd641 2.414 . S
O663 C649 1.273 1_554 S
O664 Nd640 2.410 . S
O664 C650 1.251 . S
O665 Nd641 2.424 1_556 S
O665 C650 1.268 . S
O666 Nd641 2.500 . S
O666 C651 1.258 . S
O667 Nd641 2.492 . S
O667 C651 1.239 . S
O668 Nd641 2.487 . S
O668 C658 1.241 1_554 S
O669 Nd640 2.414 . S
O669 Nd641 2.682 1_556 S
O669 C658 1.273 . S
O670 Nd641 2.410 . S
O670 C659 1.251 . S
O671 Nd640 2.424 1_554 S
O671 C659 1.268 . S
H672 C644 0.930 . S
H673 C645 0.929 . S
H674 C647 0.930 . S
H675 C648 0.929 . S
H676 C653 0.930 . S
H677 C654 0.929 . S
H678 C656 0.930 . S
H679 C657 0.929 . S
Nd680 C682 2.836 . S
Nd680 O700 2.500 . S
Nd680 O701 2.492 . S
Nd680 O702 2.487 . S
Nd680 O703 2.682 1_556 S
Nd680 O704 2.410 . S
Nd680 O709 2.414 . S
Nd680 O711 2.424 1_556 S
Nd681 C691 2.836 . S
Nd681 O703 2.414 . S
Nd681 O705 2.424 1_554 S
Nd681 O706 2.500 . S
Nd681 O707 2.492 . S
Nd681 O708 2.487 . S
Nd681 O709 2.682 1_554 S
Nd681 O710 2.410 . S
C682 Nd680 2.836 . S
C682 C683 1.498 . S
C682 O700 1.258 . S
C682 O701 1.239 . S
C683 C682 1.498 . S
C683 C684 1.366 . S
C683 C688 1.407 . S
C684 C683 1.366 . S
C684 C685 1.392 . S
C684 H712 0.930 . S
C685 C684 1.392 . S
C685 C686 1.398 . S
C685 H713 0.929 . S
C686 C685 1.398 . S
C686 C687 1.352 . S
C687 C686 1.352 . S
C687 C688 1.384 . S
C687 H714 0.930 . S
C688 C683 1.407 . S
C688 C687 1.384 . S
C688 H715 0.929 . S
C689 O702 1.241 . S
C689 O703 1.273 1_556 S
C690 O704 1.251 . S
C690 O705 1.268 . S
C691 Nd681 2.836 . S
C691 C692 1.498 . S
C691 O706 1.258 . S
C691 O707 1.239 . S
C692 C691 1.498 . S
C692 C693 1.366 . S
C692 C697 1.407 . S
C693 C692 1.366 . S
C693 C694 1.392 . S
C693 H716 0.930 . S
C694 C693 1.392 . S
C694 C695 1.398 . S
C694 H717 0.929 . S
C695 C694 1.398 . S
C695 C696 1.352 . S
C696 C695 1.352 . S
C696 C697 1.384 . S
C696 H718 0.930 . S
C697 C692 1.407 . S
C697 C696 1.384 . S
C697 H719 0.929 . S
C698 O708 1.241 1_556 S
C698 O709 1.273 . S
C699 O710 1.251 . S
C699 O711 1.268 . S
O700 Nd680 2.500 . S
O700 C682 1.258 . S
O701 Nd680 2.492 . S
O701 C682 1.239 . S
O702 Nd680 2.487 . S
O702 C689 1.241 . S
O703 Nd680 2.682 1_554 S
O703 Nd681 2.414 . S
O703 C689 1.273 1_554 S
O704 Nd680 2.410 . S
O704 C690 1.251 . S
O705 Nd681 2.424 1_556 S
O705 C690 1.268 . S
O706 Nd681 2.500 . S
O706 C691 1.258 . S
O707 Nd681 2.492 . S
O707 C691 1.239 . S
O708 Nd681 2.487 . S
O708 C698 1.241 1_554 S
O709 Nd680 2.414 . S
O709 Nd681 2.682 1_556 S
O709 C698 1.273 . S
O710 Nd681 2.410 . S
O710 C699 1.251 . S
O711 Nd680 2.424 1_554 S
O711 C699 1.268 . S
H712 C684 0.930 . S
H713 C685 0.929 . S
H714 C687 0.930 . S
H715 C688 0.929 . S
H716 C693 0.930 . S
H717 C694 0.929 . S
H718 C696 0.930 . S
H719 C697 0.929 . S
Nd720 C722 2.836 . S
Nd720 O740 2.500 . S
Nd720 O741 2.492 . S
Nd720 O742 2.487 . S
Nd720 O743 2.682 . S
Nd720 O744 2.410 . S
Nd720 O749 2.414 . S
Nd720 O751 2.424 . S
Nd721 C731 2.836 . S
Nd721 O743 2.414 . S
Nd721 O745 2.424 . S
Nd721 O746 2.500 . S
Nd721 O747 2.492 . S
Nd721 O748 2.487 . S
Nd721 O749 2.682 . S
Nd721 O750 2.410 . S
C722 Nd720 2.836 . S
C722 C723 1.498 . S
C722 O740 1.258 . S
C722 O741 1.239 . S
C723 C722 1.498 . S
C723 C724 1.366 . S
C723 C728 1.407 . S
C724 C723 1.366 . S
C724 C725 1.392 . S
C724 H752 0.930 . S
C725 C724 1.392 . S
C725 C726 1.398 . S
C725 H753 0.929 . S
C726 C725 1.398 . S
C726 C727 1.352 . S
C727 C726 1.352 . S
C727 C728 1.384 . S
C727 H754 0.930 . S
C728 C723 1.407 . S
C728 C727 1.384 . S
C728 H755 0.929 . S
C729 O742 1.241 . S
C729 O743 1.273 . S
C730 O744 1.251 . S
C730 O745 1.268 . S
C731 Nd721 2.836 . S
C731 C732 1.498 . S
C731 O746 1.258 . S
C731 O747 1.239 . S
C732 C731 1.498 . S
C732 C733 1.366 . S
C732 C737 1.407 . S
C733 C732 1.366 . S
C733 C734 1.392 . S
C733 H756 0.930 . S
C734 C733 1.392 . S
C734 C735 1.398 . S
C734 H757 0.929 . S
C735 C734 1.398 . S
C735 C736 1.352 . S
C736 C735 1.352 . S
C736 C737 1.384 . S
C736 H758 0.930 . S
C737 C732 1.407 . S
C737 C736 1.384 . S
C737 H759 0.929 . S
C738 O748 1.241 . S
C738 O749 1.273 . S
C739 O750 1.251 . S
C739 O751 1.268 . S
O740 Nd720 2.500 . S
O740 C722 1.258 . S
O741 Nd720 2.492 . S
O741 C722 1.239 . S
O742 Nd720 2.487 . S
O742 C729 1.241 . S
O743 Nd720 2.682 . S
O743 Nd721 2.414 . S
O743 C729 1.273 . S
O744 Nd720 2.410 . S
O744 C730 1.251 . S
O745 Nd721 2.424 . S
O745 C730 1.268 . S
O746 Nd721 2.500 . S
O746 C731 1.258 . S
O747 Nd721 2.492 . S
O747 C731 1.239 . S
O748 Nd721 2.487 . S
O748 C738 1.241 . S
O749 Nd720 2.414 . S
O749 Nd721 2.682 . S
O749 C738 1.273 . S
O750 Nd721 2.410 . S
O750 C739 1.251 . S
O751 Nd720 2.424 . S
O751 C739 1.268 . S
H752 C724 0.930 . S
H753 C725 0.929 . S
H754 C727 0.930 . S
H755 C728 0.929 . S
H756 C733 0.930 . S
H757 C734 0.929 . S
H758 C736 0.930 . S
H759 C737 0.929 . S
Nd760 C762 2.836 . S
Nd760 O780 2.500 . S
Nd760 O781 2.492 . S
Nd760 O782 2.487 . S
Nd760 O783 2.682 . S
Nd760 O784 2.410 . S
Nd760 O789 2.414 . S
Nd760 O791 2.424 . S
Nd761 C771 2.836 . S
Nd761 O783 2.414 . S
Nd761 O785 2.424 . S
Nd761 O786 2.500 . S
Nd761 O787 2.492 . S
Nd761 O788 2.487 . S
Nd761 O789 2.682 . S
Nd761 O790 2.410 . S
C762 Nd760 2.836 . S
C762 C763 1.498 . S
C762 O780 1.258 . S
C762 O781 1.239 . S
C763 C762 1.498 . S
C763 C764 1.366 . S
C763 C768 1.407 . S
C764 C763 1.366 . S
C764 C765 1.392 . S
C764 H792 0.930 . S
C765 C764 1.392 . S
C765 C766 1.398 . S
C765 H793 0.929 . S
C766 C765 1.398 . S
C766 C767 1.352 . S
C767 C766 1.352 . S
C767 C768 1.384 . S
C767 H794 0.930 . S
C768 C763 1.407 . S
C768 C767 1.384 . S
C768 H795 0.929 . S
C769 O782 1.241 . S
C769 O783 1.273 . S
C770 O784 1.251 . S
C770 O785 1.268 . S
C771 Nd761 2.836 . S
C771 C772 1.498 . S
C771 O786 1.258 . S
C771 O787 1.239 . S
C772 C771 1.498 . S
C772 C773 1.366 . S
C772 C777 1.407 . S
C773 C772 1.366 . S
C773 C774 1.392 . S
C773 H796 0.930 . S
C774 C773 1.392 . S
C774 C775 1.398 . S
C774 H797 0.929 . S
C775 C774 1.398 . S
C775 C776 1.352 . S
C776 C775 1.352 . S
C776 C777 1.384 . S
C776 H798 0.930 . S
C777 C772 1.407 . S
C777 C776 1.384 . S
C777 H799 0.929 . S
C778 O788 1.241 . S
C778 O789 1.273 . S
C779 O790 1.251 . S
C779 O791 1.268 . S
O780 Nd760 2.500 . S
O780 C762 1.258 . S
O781 Nd760 2.492 . S
O781 C762 1.239 . S
O782 Nd760 2.487 . S
O782 C769 1.241 . S
O783 Nd760 2.682 . S
O783 Nd761 2.414 . S
O783 C769 1.273 . S
O784 Nd760 2.410 . S
O784 C770 1.251 . S
O785 Nd761 2.424 . S
O785 C770 1.268 . S
O786 Nd761 2.500 . S
O786 C771 1.258 . S
O787 Nd761 2.492 . S
O787 C771 1.239 . S
O788 Nd761 2.487 . S
O788 C778 1.241 . S
O789 Nd760 2.414 . S
O789 Nd761 2.682 . S
O789 C778 1.273 . S
O790 Nd761 2.410 . S
O790 C779 1.251 . S
O791 Nd760 2.424 . S
O791 C779 1.268 . S
H792 C764 0.930 . S
H793 C765 0.929 . S
H794 C767 0.930 . S
H795 C768 0.929 . S
H796 C773 0.930 . S
H797 C774 0.929 . S
H798 C776 0.930 . S
H799 C777 0.929 . S
Nd800 C802 2.836 . S
Nd800 O820 2.500 . S
Nd800 O821 2.492 . S
Nd800 O822 2.487 . S
Nd800 O823 2.682 . S
Nd800 O824 2.410 . S
Nd800 O829 2.414 . S
Nd800 O831 2.424 . S
Nd801 C811 2.836 . S
Nd801 O823 2.414 . S
Nd801 O825 2.424 . S
Nd801 O826 2.500 . S
Nd801 O827 2.492 . S
Nd801 O828 2.487 . S
Nd801 O829 2.682 . S
Nd801 O830 2.410 . S
C802 Nd800 2.836 . S
C802 C803 1.498 . S
C802 O820 1.258 . S
C802 O821 1.239 . S
C803 C802 1.498 . S
C803 C804 1.366 . S
C803 C808 1.407 . S
C804 C803 1.366 . S
C804 C805 1.392 . S
C804 H832 0.930 . S
C805 C804 1.392 . S
C805 C806 1.398 . S
C805 H833 0.929 . S
C806 C805 1.398 . S
C806 C807 1.352 . S
C807 C806 1.352 . S
C807 C808 1.384 . S
C807 H834 0.930 . S
C808 C803 1.407 . S
C808 C807 1.384 . S
C808 H835 0.929 . S
C809 O822 1.241 . S
C809 O823 1.273 . S
C810 O824 1.251 . S
C810 O825 1.268 . S
C811 Nd801 2.836 . S
C811 C812 1.498 . S
C811 O826 1.258 . S
C811 O827 1.239 . S
C812 C811 1.498 . S
C812 C813 1.366 . S
C812 C817 1.407 . S
C813 C812 1.366 . S
C813 C814 1.392 . S
C813 H836 0.930 . S
C814 C813 1.392 . S
C814 C815 1.398 . S
C814 H837 0.929 . S
C815 C814 1.398 . S
C815 C816 1.352 . S
C816 C815 1.352 . S
C816 C817 1.384 . S
C816 H838 0.930 . S
C817 C812 1.407 . S
C817 C816 1.384 . S
C817 H839 0.929 . S
C818 O828 1.241 . S
C818 O829 1.273 . S
C819 O830 1.251 . S
C819 O831 1.268 . S
O820 Nd800 2.500 . S
O820 C802 1.258 . S
O821 Nd800 2.492 . S
O821 C802 1.239 . S
O822 Nd800 2.487 . S
O822 C809 1.241 . S
O823 Nd800 2.682 . S
O823 Nd801 2.414 . S
O823 C809 1.273 . S
O824 Nd800 2.410 . S
O824 C810 1.251 . S
O825 Nd801 2.424 . S
O825 C810 1.268 . S
O826 Nd801 2.500 . S
O826 C811 1.258 . S
O827 Nd801 2.492 . S
O827 C811 1.239 . S
O828 Nd801 2.487 . S
O828 C818 1.241 . S
O829 Nd800 2.414 . S
O829 Nd801 2.682 . S
O829 C818 1.273 . S
O830 Nd801 2.410 . S
O830 C819 1.251 . S
O831 Nd800 2.424 . S
O831 C819 1.268 . S
H832 C804 0.930 . S
H833 C805 0.929 . S
H834 C807 0.930 . S
H835 C808 0.929 . S
H836 C813 0.930 . S
H837 C814 0.929 . S
H838 C816 0.930 . S
H839 C817 0.929 . S
Nd840 C842 2.836 . S
Nd840 O860 2.500 . S
Nd840 O861 2.492 . S
Nd840 O862 2.487 . S
Nd840 O863 2.682 . S
Nd840 O864 2.410 . S
Nd840 O869 2.414 . S
Nd840 O871 2.424 . S
Nd841 C851 2.836 . S
Nd841 O863 2.414 . S
Nd841 O865 2.424 . S
Nd841 O866 2.500 . S
Nd841 O867 2.492 . S
Nd841 O868 2.487 . S
Nd841 O869 2.682 . S
Nd841 O870 2.410 . S
C842 Nd840 2.836 . S
C842 C843 1.498 . S
C842 O860 1.258 . S
C842 O861 1.239 . S
C843 C842 1.498 . S
C843 C844 1.366 . S
C843 C848 1.407 . S
C844 C843 1.366 . S
C844 C845 1.392 . S
C844 H872 0.930 . S
C845 C844 1.392 . S
C845 C846 1.398 . S
C845 H873 0.929 . S
C846 C845 1.398 . S
C846 C847 1.352 . S
C847 C846 1.352 . S
C847 C848 1.384 . S
C847 H874 0.930 . S
C848 C843 1.407 . S
C848 C847 1.384 . S
C848 H875 0.929 . S
C849 O862 1.241 . S
C849 O863 1.273 . S
C850 O864 1.251 . S
C850 O865 1.268 . S
C851 Nd841 2.836 . S
C851 C852 1.497 1_556 S
C851 O866 1.258 . S
C851 O867 1.239 . S
C852 C851 1.497 1_554 S
C852 C853 1.367 . S
C852 C857 1.407 . S
C853 C852 1.367 . S
C853 C854 1.392 . S
C853 H876 0.930 . S
C854 C853 1.392 . S
C854 C855 1.398 . S
C854 H877 0.929 . S
C855 C854 1.398 . S
C855 C856 1.352 . S
C856 C855 1.352 . S
C856 C857 1.384 . S
C856 H878 0.930 . S
C857 C852 1.407 . S
C857 C856 1.384 . S
C857 H879 0.929 1_554 S
C858 O868 1.241 . S
C858 O869 1.273 . S
C859 O870 1.251 . S
C859 O871 1.268 . S
O860 Nd840 2.500 . S
O860 C842 1.258 . S
O861 Nd840 2.492 . S
O861 C842 1.239 . S
O862 Nd840 2.487 . S
O862 C849 1.241 . S
O863 Nd840 2.682 . S
O863 Nd841 2.414 . S
O863 C849 1.273 . S
O864 Nd840 2.410 . S
O864 C850 1.251 . S
O865 Nd841 2.424 . S
O865 C850 1.268 . S
O866 Nd841 2.500 . S
O866 C851 1.258 . S
O867 Nd841 2.492 . S
O867 C851 1.239 . S
O868 Nd841 2.487 . S
O868 C858 1.241 . S
O869 Nd840 2.414 . S
O869 Nd841 2.682 . S
O869 C858 1.273 . S
O870 Nd841 2.410 . S
O870 C859 1.251 . S
O871 Nd840 2.424 . S
O871 C859 1.268 . S
H872 C844 0.930 . S
H873 C845 0.929 . S
H874 C847 0.930 . S
H875 C848 0.929 . S
H876 C853 0.930 . S
H877 C854 0.929 . S
H878 C856 0.930 . S
H879 C857 0.929 1_556 S
Nd880 C882 2.836 . S
Nd880 O900 2.500 . S
Nd880 O901 2.492 . S
Nd880 O902 2.487 . S
Nd880 O903 2.682 . S
Nd880 O904 2.410 . S
Nd880 O909 2.414 . S
Nd880 O911 2.424 . S
Nd881 C891 2.836 . S
Nd881 O903 2.414 . S
Nd881 O905 2.424 . S
Nd881 O906 2.500 . S
Nd881 O907 2.492 . S
Nd881 O908 2.487 . S
Nd881 O909 2.682 . S
Nd881 O910 2.410 . S
C882 Nd880 2.836 . S
C882 C883 1.498 . S
C882 O900 1.258 . S
C882 O901 1.239 . S
C883 C882 1.498 . S
C883 C884 1.366 . S
C883 C888 1.407 . S
C884 C883 1.366 . S
C884 C885 1.392 . S
C884 H912 0.930 . S
C885 C884 1.392 . S
C885 C886 1.398 . S
C885 H913 0.929 . S
C886 C885 1.398 . S
C886 C887 1.352 . S
C887 C886 1.352 . S
C887 C888 1.384 . S
C887 H914 0.930 . S
C888 C883 1.407 . S
C888 C887 1.384 . S
C888 H915 0.929 . S
C889 O902 1.241 . S
C889 O903 1.273 . S
C890 O904 1.251 . S
C890 O905 1.268 . S
C891 Nd881 2.836 . S
C891 C892 1.497 1_556 S
C891 O906 1.258 . S
C891 O907 1.239 . S
C892 C891 1.497 1_554 S
C892 C893 1.367 . S
C892 C897 1.408 . S
C893 C892 1.367 . S
C893 C894 1.392 . S
C893 H916 0.930 . S
C894 C893 1.392 . S
C894 C895 1.398 . S
C894 H917 0.929 . S
C895 C894 1.398 . S
C895 C896 1.352 . S
C896 C895 1.352 . S
C896 C897 1.384 . S
C896 H918 0.930 . S
C897 C892 1.408 . S
C897 C896 1.384 . S
C897 H919 0.929 1_554 S
C898 O908 1.241 . S
C898 O909 1.273 . S
C899 O910 1.251 . S
C899 O911 1.268 . S
O900 Nd880 2.500 . S
O900 C882 1.258 . S
O901 Nd880 2.492 . S
O901 C882 1.239 . S
O902 Nd880 2.487 . S
O902 C889 1.241 . S
O903 Nd880 2.682 . S
O903 Nd881 2.414 . S
O903 C889 1.273 . S
O904 Nd880 2.410 . S
O904 C890 1.251 . S
O905 Nd881 2.424 . S
O905 C890 1.268 . S
O906 Nd881 2.500 . S
O906 C891 1.258 . S
O907 Nd881 2.492 . S
O907 C891 1.239 . S
O908 Nd881 2.487 . S
O908 C898 1.241 . S
O909 Nd880 2.414 . S
O909 Nd881 2.682 . S
O909 C898 1.273 . S
O910 Nd881 2.410 . S
O910 C899 1.251 . S
O911 Nd880 2.424 . S
O911 C899 1.268 . S
H912 C884 0.930 . S
H913 C885 0.929 . S
H914 C887 0.930 . S
H915 C888 0.929 . S
H916 C893 0.930 . S
H917 C894 0.929 . S
H918 C896 0.930 . S
H919 C897 0.929 1_556 S
Nd920 C922 2.836 . S
Nd920 O940 2.500 . S
Nd920 O941 2.492 . S
Nd920 O942 2.487 . S
Nd920 O943 2.682 . S
Nd920 O944 2.410 . S
Nd920 O949 2.414 . S
Nd920 O951 2.424 . S
Nd921 C931 2.836 . S
Nd921 O943 2.414 . S
Nd921 O945 2.424 . S
Nd921 O946 2.500 . S
Nd921 O947 2.492 . S
Nd921 O948 2.487 . S
Nd921 O949 2.682 . S
Nd921 O950 2.410 . S
C922 Nd920 2.836 . S
C922 C923 1.498 . S
C922 O940 1.258 . S
C922 O941 1.239 . S
C923 C922 1.498 . S
C923 C924 1.366 . S
C923 C928 1.407 . S
C924 C923 1.366 . S
C924 C925 1.392 . S
C924 H952 0.930 . S
C925 C924 1.392 . S
C925 C926 1.398 . S
C925 H953 0.929 . S
C926 C925 1.398 . S
C926 C927 1.352 . S
C927 C926 1.352 . S
C927 C928 1.384 . S
C927 H954 0.930 . S
C928 C923 1.407 . S
C928 C927 1.384 . S
C928 H955 0.929 . S
C929 O942 1.241 . S
C929 O943 1.273 . S
C930 O944 1.251 . S
C930 O945 1.268 . S
C931 Nd921 2.836 . S
C931 C932 1.497 1_556 S
C931 O946 1.258 . S
C931 O947 1.239 . S
C932 C931 1.497 1_554 S
C932 C933 1.367 . S
C932 C937 1.407 . S
C933 C932 1.367 . S
C933 C934 1.392 . S
C933 H956 0.930 . S
C934 C933 1.392 . S
C934 C935 1.398 . S
C934 H957 0.929 . S
C935 C934 1.398 . S
C935 C936 1.352 . S
C936 C935 1.352 . S
C936 C937 1.384 . S
C936 H958 0.930 . S
C937 C932 1.407 . S
C937 C936 1.384 . S
C937 H959 0.929 1_554 S
C938 O948 1.241 . S
C938 O949 1.273 . S
C939 O950 1.251 . S
C939 O951 1.268 . S
O940 Nd920 2.500 . S
O940 C922 1.258 . S
O941 Nd920 2.492 . S
O941 C922 1.239 . S
O942 Nd920 2.487 . S
O942 C929 1.241 . S
O943 Nd920 2.682 . S
O943 Nd921 2.414 . S
O943 C929 1.273 . S
O944 Nd920 2.410 . S
O944 C930 1.251 . S
O945 Nd921 2.424 . S
O945 C930 1.268 . S
O946 Nd921 2.500 . S
O946 C931 1.258 . S
O947 Nd921 2.492 . S
O947 C931 1.239 . S
O948 Nd921 2.487 . S
O948 C938 1.241 . S
O949 Nd920 2.414 . S
O949 Nd921 2.682 . S
O949 C938 1.273 . S
O950 Nd921 2.410 . S
O950 C939 1.251 . S
O951 Nd920 2.424 . S
O951 C939 1.268 . S
H952 C924 0.930 . S
H953 C925 0.929 . S
H954 C927 0.930 . S
H955 C928 0.929 . S
H956 C933 0.930 . S
H957 C934 0.929 . S
H958 C936 0.930 . S
H959 C937 0.929 1_556 S
Nd960 C962 2.836 . S
Nd960 O980 2.500 . S
Nd960 O981 2.492 . S
Nd960 O982 2.487 . S
Nd960 O983 2.682 . S
Nd960 O984 2.410 . S
Nd960 O989 2.414 . S
Nd960 O991 2.424 . S
Nd961 C971 2.836 . S
Nd961 O983 2.414 . S
Nd961 O985 2.424 . S
Nd961 O986 2.500 . S
Nd961 O987 2.492 . S
Nd961 O988 2.487 . S
Nd961 O989 2.682 . S
Nd961 O990 2.410 . S
C962 Nd960 2.836 . S
C962 C963 1.498 . S
C962 O980 1.258 . S
C962 O981 1.239 . S
C963 C962 1.498 . S
C963 C964 1.366 . S
C963 C968 1.407 . S
C964 C963 1.366 . S
C964 C965 1.392 . S
C964 H992 0.930 . S
C965 C964 1.392 . S
C965 C966 1.398 . S
C965 H993 0.929 . S
C966 C965 1.398 . S
C966 C967 1.352 . S
C967 C966 1.352 . S
C967 C968 1.384 . S
C967 H994 0.930 . S
C968 C963 1.407 . S
C968 C967 1.384 . S
C968 H995 0.929 . S
C969 O982 1.241 . S
C969 O983 1.273 . S
C970 O984 1.251 . S
C970 O985 1.268 . S
C971 Nd961 2.836 . S
C971 C972 1.498 . S
C971 O986 1.258 . S
C971 O987 1.239 . S
C972 C971 1.498 . S
C972 C973 1.366 . S
C972 C977 1.407 . S
C973 C972 1.366 . S
C973 C974 1.392 . S
C973 H996 0.930 . S
C974 C973 1.392 . S
C974 C975 1.398 . S
C974 H997 0.929 . S
C975 C974 1.398 . S
C975 C976 1.352 . S
C976 C975 1.352 . S
C976 C977 1.384 . S
C976 H998 0.930 . S
C977 C972 1.407 . S
C977 C976 1.384 . S
C977 H999 0.929 . S
C978 O988 1.241 . S
C978 O989 1.273 . S
C979 O990 1.251 . S
C979 O991 1.268 . S
O980 Nd960 2.500 . S
O980 C962 1.258 . S
O981 Nd960 2.492 . S
O981 C962 1.239 . S
O982 Nd960 2.487 . S
O982 C969 1.241 . S
O983 Nd960 2.682 . S
O983 Nd961 2.414 . S
O983 C969 1.273 . S
O984 Nd960 2.410 . S
O984 C970 1.251 . S
O985 Nd961 2.424 . S
O985 C970 1.268 . S
O986 Nd961 2.500 . S
O986 C971 1.258 . S
O987 Nd961 2.492 . S
O987 C971 1.239 . S
O988 Nd961 2.487 . S
O988 C978 1.241 . S
O989 Nd960 2.414 . S
O989 Nd961 2.682 . S
O989 C978 1.273 . S
O990 Nd961 2.410 . S
O990 C979 1.251 . S
O991 Nd960 2.424 . S
O991 C979 1.268 . S
H992 C964 0.930 . S
H993 C965 0.929 . S
H994 C967 0.930 . S
H995 C968 0.929 . S
H996 C973 0.930 . S
H997 C974 0.929 . S
H998 C976 0.930 . S
H999 C977 0.929 . S
Nd1000 C1002 2.836 . S
Nd1000 O1020 2.500 . S
Nd1000 O1021 2.492 . S
Nd1000 O1022 2.487 . S
Nd1000 O1023 2.682 . S
Nd1000 O1024 2.410 . S
Nd1000 O1029 2.414 . S
Nd1000 O1031 2.424 . S
Nd1001 C1011 2.836 . S
Nd1001 O1023 2.414 . S
Nd1001 O1025 2.424 . S
Nd1001 O1026 2.500 . S
Nd1001 O1027 2.492 . S
Nd1001 O1028 2.487 . S
Nd1001 O1029 2.682 . S
Nd1001 O1030 2.410 . S
C1002 Nd1000 2.836 . S
C1002 C1003 1.498 . S
C1002 O1020 1.258 . S
C1002 O1021 1.239 . S
C1003 C1002 1.498 . S
C1003 C1004 1.366 . S
C1003 C1008 1.407 . S
C1004 C1003 1.366 . S
C1004 C1005 1.392 . S
C1004 H1032 0.930 . S
C1005 C1004 1.392 . S
C1005 C1006 1.398 . S
C1005 H1033 0.929 . S
C1006 C1005 1.398 . S
C1006 C1007 1.352 . S
C1007 C1006 1.352 . S
C1007 C1008 1.384 . S
C1007 H1034 0.930 . S
C1008 C1003 1.407 . S
C1008 C1007 1.384 . S
C1008 H1035 0.929 . S
C1009 O1022 1.241 . S
C1009 O1023 1.273 . S
C1010 O1024 1.251 . S
C1010 O1025 1.268 . S
C1011 Nd1001 2.836 . S
C1011 C1012 1.498 . S
C1011 O1026 1.258 . S
C1011 O1027 1.239 . S
C1012 C1011 1.498 . S
C1012 C1013 1.366 . S
C1012 C1017 1.407 . S
C1013 C1012 1.366 . S
C1013 C1014 1.392 . S
C1013 H1036 0.930 . S
C1014 C1013 1.392 . S
C1014 C1015 1.398 . S
C1014 H1037 0.929 . S
C1015 C1014 1.398 . S
C1015 C1016 1.352 . S
C1016 C1015 1.352 . S
C1016 C1017 1.384 . S
C1016 H1038 0.930 . S
C1017 C1012 1.407 . S
C1017 C1016 1.384 . S
C1017 H1039 0.929 . S
C1018 O1028 1.241 . S
C1018 O1029 1.273 . S
C1019 O1030 1.251 . S
C1019 O1031 1.268 . S
O1020 Nd1000 2.500 . S
O1020 C1002 1.258 . S
O1021 Nd1000 2.492 . S
O1021 C1002 1.239 . S
O1022 Nd1000 2.487 . S
O1022 C1009 1.241 . S
O1023 Nd1000 2.682 . S
O1023 Nd1001 2.414 . S
O1023 C1009 1.273 . S
O1024 Nd1000 2.410 . S
O1024 C1010 1.251 . S
O1025 Nd1001 2.424 . S
O1025 C1010 1.268 . S
O1026 Nd1001 2.500 . S
O1026 C1011 1.258 . S
O1027 Nd1001 2.492 . S
O1027 C1011 1.239 . S
O1028 Nd1001 2.487 . S
O1028 C1018 1.241 . S
O1029 Nd1000 2.414 . S
O1029 Nd1001 2.682 . S
O1029 C1018 1.273 . S
O1030 Nd1001 2.410 . S
O1030 C1019 1.251 . S
O1031 Nd1000 2.424 . S
O1031 C1019 1.268 . S
H1032 C1004 0.930 . S
H1033 C1005 0.929 . S
H1034 C1007 0.930 . S
H1035 C1008 0.929 . S
H1036 C1013 0.930 . S
H1037 C1014 0.929 . S
H1038 C1016 0.930 . S
H1039 C1017 0.929 . S
Nd1040 C1042 2.836 . S
Nd1040 O1060 2.500 . S
Nd1040 O1061 2.492 . S
Nd1040 O1062 2.487 . S
Nd1040 O1063 2.682 . S
Nd1040 O1064 2.410 . S
Nd1040 O1069 2.414 . S
Nd1040 O1071 2.424 . S
Nd1041 C1051 2.836 . S
Nd1041 O1063 2.414 . S
Nd1041 O1065 2.424 . S
Nd1041 O1066 2.500 . S
Nd1041 O1067 2.492 . S
Nd1041 O1068 2.487 . S
Nd1041 O1069 2.682 . S
Nd1041 O1070 2.410 . S
C1042 Nd1040 2.836 . S
C1042 C1043 1.498 . S
C1042 O1060 1.258 . S
C1042 O1061 1.239 . S
C1043 C1042 1.498 . S
C1043 C1044 1.366 . S
C1043 C1048 1.407 . S
C1044 C1043 1.366 . S
C1044 C1045 1.392 . S
C1044 H1072 0.930 . S
C1045 C1044 1.392 . S
C1045 C1046 1.398 . S
C1045 H1073 0.929 . S
C1046 C1045 1.398 . S
C1046 C1047 1.352 . S
C1047 C1046 1.352 . S
C1047 C1048 1.384 . S
C1047 H1074 0.930 . S
C1048 C1043 1.407 . S
C1048 C1047 1.384 . S
C1048 H1075 0.929 . S
C1049 O1062 1.241 . S
C1049 O1063 1.273 . S
C1050 O1064 1.251 . S
C1050 O1065 1.268 . S
C1051 Nd1041 2.836 . S
C1051 C1052 1.498 . S
C1051 O1066 1.258 . S
C1051 O1067 1.239 . S
C1052 C1051 1.498 . S
C1052 C1053 1.366 . S
C1052 C1057 1.407 . S
C1053 C1052 1.366 . S
C1053 C1054 1.392 . S
C1053 H1076 0.930 . S
C1054 C1053 1.392 . S
C1054 C1055 1.398 . S
C1054 H1077 0.929 . S
C1055 C1054 1.398 . S
C1055 C1056 1.352 . S
C1056 C1055 1.352 . S
C1056 C1057 1.384 . S
C1056 H1078 0.930 . S
C1057 C1052 1.407 . S
C1057 C1056 1.384 . S
C1057 H1079 0.929 . S
C1058 O1068 1.241 . S
C1058 O1069 1.273 . S
C1059 O1070 1.251 . S
C1059 O1071 1.268 . S
O1060 Nd1040 2.500 . S
O1060 C1042 1.258 . S
O1061 Nd1040 2.492 . S
O1061 C1042 1.239 . S
O1062 Nd1040 2.487 . S
O1062 C1049 1.241 . S
O1063 Nd1040 2.682 . S
O1063 Nd1041 2.414 . S
O1063 C1049 1.273 . S
O1064 Nd1040 2.410 . S
O1064 C1050 1.251 . S
O1065 Nd1041 2.424 . S
O1065 C1050 1.268 . S
O1066 Nd1041 2.500 . S
O1066 C1051 1.258 . S
O1067 Nd1041 2.492 . S
O1067 C1051 1.239 . S
O1068 Nd1041 2.487 . S
O1068 C1058 1.241 . S
O1069 Nd1040 2.414 . S
O1069 Nd1041 2.682 . S
O1069 C1058 1.273 . S
O1070 Nd1041 2.410 . S
O1070 C1059 1.251 . S
O1071 Nd1040 2.424 . S
O1071 C1059 1.268 . S
H1072 C1044 0.930 . S
H1073 C1045 0.929 . S
H1074 C1047 0.930 . S
H1075 C1048 0.929 . S
H1076 C1053 0.930 . S
H1077 C1054 0.929 . S
H1078 C1056 0.930 . S
H1079 C1057 0.929 . S
Nd1080 C1082 2.836 . S
Nd1080 O1100 2.500 . S
Nd1080 O1101 2.492 . S
Nd1080 O1102 2.487 . S
Nd1080 O1103 2.682 . S
Nd1080 O1104 2.410 . S
Nd1080 O1109 2.414 . S
Nd1080 O1111 2.424 . S
Nd1081 C1091 2.836 . S
Nd1081 O1103 2.414 . S
Nd1081 O1105 2.424 . S
Nd1081 O1106 2.500 . S
Nd1081 O1107 2.492 . S
Nd1081 O1108 2.487 . S
Nd1081 O1109 2.682 . S
Nd1081 O1110 2.410 . S
C1082 Nd1080 2.836 . S
C1082 C1083 1.498 . S
C1082 O1100 1.258 . S
C1082 O1101 1.239 . S
C1083 C1082 1.498 . S
C1083 C1084 1.366 . S
C1083 C1088 1.407 . S
C1084 C1083 1.366 . S
C1084 C1085 1.392 . S
C1084 H1112 0.930 . S
C1085 C1084 1.392 . S
C1085 C1086 1.398 . S
C1085 H1113 0.929 . S
C1086 C1085 1.398 . S
C1086 C1087 1.352 . S
C1087 C1086 1.352 . S
C1087 C1088 1.384 . S
C1087 H1114 0.930 . S
C1088 C1083 1.407 . S
C1088 C1087 1.384 . S
C1088 H1115 0.929 . S
C1089 O1102 1.241 . S
C1089 O1103 1.273 . S
C1090 O1104 1.251 . S
C1090 O1105 1.268 . S
C1091 Nd1081 2.836 . S
C1091 C1092 1.498 . S
C1091 O1106 1.258 . S
C1091 O1107 1.239 . S
C1092 C1091 1.498 . S
C1092 C1093 1.366 . S
C1092 C1097 1.407 . S
C1093 C1092 1.366 . S
C1093 C1094 1.392 . S
C1093 H1116 0.930 . S
C1094 C1093 1.392 . S
C1094 C1095 1.398 . S
C1094 H1117 0.929 . S
C1095 C1094 1.398 . S
C1095 C1096 1.352 . S
C1096 C1095 1.352 . S
C1096 C1097 1.384 . S
C1096 H1118 0.930 . S
C1097 C1092 1.407 . S
C1097 C1096 1.384 . S
C1097 H1119 0.929 . S
C1098 O1108 1.241 . S
C1098 O1109 1.273 . S
C1099 O1110 1.251 . S
C1099 O1111 1.268 . S
O1100 Nd1080 2.500 . S
O1100 C1082 1.258 . S
O1101 Nd1080 2.492 . S
O1101 C1082 1.239 . S
O1102 Nd1080 2.487 . S
O1102 C1089 1.241 . S
O1103 Nd1080 2.682 . S
O1103 Nd1081 2.414 . S
O1103 C1089 1.273 . S
O1104 Nd1080 2.410 . S
O1104 C1090 1.251 . S
O1105 Nd1081 2.424 . S
O1105 C1090 1.268 . S
O1106 Nd1081 2.500 . S
O1106 C1091 1.258 . S
O1107 Nd1081 2.492 . S
O1107 C1091 1.239 . S
O1108 Nd1081 2.487 . S
O1108 C1098 1.241 . S
O1109 Nd1080 2.414 . S
O1109 Nd1081 2.682 . S
O1109 C1098 1.273 . S
O1110 Nd1081 2.410 . S
O1110 C1099 1.251 . S
O1111 Nd1080 2.424 . S
O1111 C1099 1.268 . S
H1112 C1084 0.930 . S
H1113 C1085 0.929 . S
H1114 C1087 0.930 . S
H1115 C1088 0.929 . S
H1116 C1093 0.930 . S
H1117 C1094 0.929 . S
H1118 C1096 0.930 . S
H1119 C1097 0.929 . S
Nd1120 C1122 2.836 . S
Nd1120 O1140 2.500 . S
Nd1120 O1141 2.492 . S
Nd1120 O1142 2.487 . S
Nd1120 O1143 2.682 . S
Nd1120 O1144 2.410 . S
Nd1120 O1149 2.414 . S
Nd1120 O1151 2.424 . S
Nd1121 C1131 2.836 . S
Nd1121 O1143 2.414 . S
Nd1121 O1145 2.424 . S
Nd1121 O1146 2.500 . S
Nd1121 O1147 2.492 . S
Nd1121 O1148 2.487 . S
Nd1121 O1149 2.682 . S
Nd1121 O1150 2.410 . S
C1122 Nd1120 2.836 . S
C1122 C1123 1.498 . S
C1122 O1140 1.258 . S
C1122 O1141 1.239 . S
C1123 C1122 1.498 . S
C1123 C1124 1.366 . S
C1123 C1128 1.407 . S
C1124 C1123 1.366 . S
C1124 C1125 1.392 . S
C1124 H1152 0.930 . S
C1125 C1124 1.392 . S
C1125 C1126 1.398 . S
C1125 H1153 0.929 . S
C1126 C1125 1.398 . S
C1126 C1127 1.352 . S
C1127 C1126 1.352 . S
C1127 C1128 1.384 . S
C1127 H1154 0.930 . S
C1128 C1123 1.407 . S
C1128 C1127 1.384 . S
C1128 H1155 0.929 . S
C1129 O1142 1.241 . S
C1129 O1143 1.273 . S
C1130 O1144 1.251 . S
C1130 O1145 1.268 . S
C1131 Nd1121 2.836 . S
C1131 C1132 1.498 . S
C1131 O1146 1.258 . S
C1131 O1147 1.239 . S
C1132 C1131 1.498 . S
C1132 C1133 1.366 . S
C1132 C1137 1.407 . S
C1133 C1132 1.366 . S
C1133 C1134 1.392 . S
C1133 H1156 0.930 . S
C1134 C1133 1.392 . S
C1134 C1135 1.398 . S
C1134 H1157 0.929 . S
C1135 C1134 1.398 . S
C1135 C1136 1.352 . S
C1136 C1135 1.352 . S
C1136 C1137 1.384 . S
C1136 H1158 0.930 . S
C1137 C1132 1.407 . S
C1137 C1136 1.384 . S
C1137 H1159 0.929 . S
C1138 O1148 1.241 . S
C1138 O1149 1.273 . S
C1139 O1150 1.251 . S
C1139 O1151 1.268 . S
O1140 Nd1120 2.500 . S
O1140 C1122 1.258 . S
O1141 Nd1120 2.492 . S
O1141 C1122 1.239 . S
O1142 Nd1120 2.487 . S
O1142 C1129 1.241 . S
O1143 Nd1120 2.682 . S
O1143 Nd1121 2.414 . S
O1143 C1129 1.273 . S
O1144 Nd1120 2.410 . S
O1144 C1130 1.251 . S
O1145 Nd1121 2.424 . S
O1145 C1130 1.268 . S
O1146 Nd1121 2.500 . S
O1146 C1131 1.258 . S
O1147 Nd1121 2.492 . S
O1147 C1131 1.239 . S
O1148 Nd1121 2.487 . S
O1148 C1138 1.241 . S
O1149 Nd1120 2.414 . S
O1149 Nd1121 2.682 . S
O1149 C1138 1.273 . S
O1150 Nd1121 2.410 . S
O1150 C1139 1.251 . S
O1151 Nd1120 2.424 . S
O1151 C1139 1.268 . S
H1152 C1124 0.930 . S
H1153 C1125 0.929 . S
H1154 C1127 0.930 . S
H1155 C1128 0.929 . S
H1156 C1133 0.930 . S
H1157 C1134 0.929 . S
H1158 C1136 0.930 . S
H1159 C1137 0.929 . S
Nd1160 C1162 2.836 . S
Nd1160 O1180 2.500 . S
Nd1160 O1181 2.492 . S
Nd1160 O1182 2.487 . S
Nd1160 O1183 2.682 . S
Nd1160 O1184 2.410 . S
Nd1160 O1189 2.414 . S
Nd1160 O1191 2.424 . S
Nd1161 C1171 2.836 . S
Nd1161 O1183 2.414 . S
Nd1161 O1185 2.424 . S
Nd1161 O1186 2.500 . S
Nd1161 O1187 2.492 . S
Nd1161 O1188 2.487 . S
Nd1161 O1189 2.682 . S
Nd1161 O1190 2.410 . S
C1162 Nd1160 2.836 . S
C1162 C1163 1.498 . S
C1162 O1180 1.258 . S
C1162 O1181 1.239 . S
C1163 C1162 1.498 . S
C1163 C1164 1.366 . S
C1163 C1168 1.407 . S
C1164 C1163 1.366 . S
C1164 C1165 1.392 . S
C1164 H1192 0.930 . S
C1165 C1164 1.392 . S
C1165 C1166 1.398 . S
C1165 H1193 0.929 . S
C1166 C1165 1.398 . S
C1166 C1167 1.352 . S
C1167 C1166 1.352 . S
C1167 C1168 1.384 . S
C1167 H1194 0.930 . S
C1168 C1163 1.407 . S
C1168 C1167 1.384 . S
C1168 H1195 0.929 . S
C1169 O1182 1.241 . S
C1169 O1183 1.273 . S
C1170 O1184 1.251 . S
C1170 O1185 1.268 . S
C1171 Nd1161 2.836 . S
C1171 C1172 1.498 . S
C1171 O1186 1.258 . S
C1171 O1187 1.239 . S
C1172 C1171 1.498 . S
C1172 C1173 1.366 . S
C1172 C1177 1.407 . S
C1173 C1172 1.366 . S
C1173 C1174 1.392 . S
C1173 H1196 0.930 . S
C1174 C1173 1.392 . S
C1174 C1175 1.398 . S
C1174 H1197 0.929 . S
C1175 C1174 1.398 . S
C1175 C1176 1.352 . S
C1176 C1175 1.352 . S
C1176 C1177 1.384 . S
C1176 H1198 0.930 . S
C1177 C1172 1.407 . S
C1177 C1176 1.384 . S
C1177 H1199 0.929 . S
C1178 O1188 1.241 . S
C1178 O1189 1.273 . S
C1179 O1190 1.251 . S
C1179 O1191 1.268 . S
O1180 Nd1160 2.500 . S
O1180 C1162 1.258 . S
O1181 Nd1160 2.492 . S
O1181 C1162 1.239 . S
O1182 Nd1160 2.487 . S
O1182 C1169 1.241 . S
O1183 Nd1160 2.682 . S
O1183 Nd1161 2.414 . S
O1183 C1169 1.273 . S
O1184 Nd1160 2.410 . S
O1184 C1170 1.251 . S
O1185 Nd1161 2.424 . S
O1185 C1170 1.268 . S
O1186 Nd1161 2.500 . S
O1186 C1171 1.258 . S
O1187 Nd1161 2.492 . S
O1187 C1171 1.239 . S
O1188 Nd1161 2.487 . S
O1188 C1178 1.241 . S
O1189 Nd1160 2.414 . S
O1189 Nd1161 2.682 . S
O1189 C1178 1.273 . S
O1190 Nd1161 2.410 . S
O1190 C1179 1.251 . S
O1191 Nd1160 2.424 . S
O1191 C1179 1.268 . S
H1192 C1164 0.930 . S
H1193 C1165 0.929 . S
H1194 C1167 0.930 . S
H1195 C1168 0.929 . S
H1196 C1173 0.930 . S
H1197 C1174 0.929 . S
H1198 C1176 0.930 . S
H1199 C1177 0.929 . S
Nd1200 C1202 2.836 . S
Nd1200 O1220 2.500 . S
Nd1200 O1221 2.492 . S
Nd1200 O1222 2.487 . S
Nd1200 O1223 2.682 . S
Nd1200 O1224 2.410 . S
Nd1200 O1229 2.414 . S
Nd1200 O1231 2.424 . S
Nd1201 C1211 2.836 . S
Nd1201 O1223 2.414 . S
Nd1201 O1225 2.424 . S
Nd1201 O1226 2.500 . S
Nd1201 O1227 2.492 . S
Nd1201 O1228 2.487 . S
Nd1201 O1229 2.682 . S
Nd1201 O1230 2.410 . S
C1202 Nd1200 2.836 . S
C1202 C1203 1.498 . S
C1202 O1220 1.258 . S
C1202 O1221 1.239 . S
C1203 C1202 1.498 . S
C1203 C1204 1.366 1_556 S
C1203 C1208 1.409 . S
C1204 C1203 1.366 1_554 S
C1204 C1205 1.392 . S
C1204 H1232 0.930 . S
C1205 C1204 1.392 . S
C1205 C1206 1.398 . S
C1205 H1233 0.929 . S
C1206 C1205 1.398 . S
C1206 C1207 1.352 . S
C1207 C1206 1.352 . S
C1207 C1208 1.379 1_554 S
C1207 H1234 0.930 . S
C1208 C1203 1.409 . S
C1208 C1207 1.379 1_556 S
C1208 H1235 0.932 . S
C1209 O1222 1.241 . S
C1209 O1223 1.273 . S
C1210 O1224 1.251 . S
C1210 O1225 1.268 . S
C1211 Nd1201 2.836 . S
C1211 C1212 1.498 . S
C1211 O1226 1.258 . S
C1211 O1227 1.239 . S
C1212 C1211 1.498 . S
C1212 C1213 1.366 . S
C1212 C1217 1.407 . S
C1213 C1212 1.366 . S
C1213 C1214 1.392 . S
C1213 H1236 0.930 . S
C1214 C1213 1.392 . S
C1214 C1215 1.398 . S
C1214 H1237 0.929 . S
C1215 C1214 1.398 . S
C1215 C1216 1.352 . S
C1216 C1215 1.352 . S
C1216 C1217 1.384 . S
C1216 H1238 0.930 . S
C1217 C1212 1.407 . S
C1217 C1216 1.384 . S
C1217 H1239 0.929 . S
C1218 O1228 1.241 . S
C1218 O1229 1.273 . S
C1219 O1230 1.251 . S
C1219 O1231 1.268 . S
O1220 Nd1200 2.500 . S
O1220 C1202 1.258 . S
O1221 Nd1200 2.492 . S
O1221 C1202 1.239 . S
O1222 Nd1200 2.487 . S
O1222 C1209 1.241 . S
O1223 Nd1200 2.682 . S
O1223 Nd1201 2.414 . S
O1223 C1209 1.273 . S
O1224 Nd1200 2.410 . S
O1224 C1210 1.251 . S
O1225 Nd1201 2.424 . S
O1225 C1210 1.268 . S
O1226 Nd1201 2.500 . S
O1226 C1211 1.258 . S
O1227 Nd1201 2.492 . S
O1227 C1211 1.239 . S
O1228 Nd1201 2.487 . S
O1228 C1218 1.241 . S
O1229 Nd1200 2.414 . S
O1229 Nd1201 2.682 . S
O1229 C1218 1.273 . S
O1230 Nd1201 2.410 . S
O1230 C1219 1.251 . S
O1231 Nd1200 2.424 . S
O1231 C1219 1.268 . S
H1232 C1204 0.930 . S
H1233 C1205 0.929 . S
H1234 C1207 0.930 . S
H1235 C1208 0.932 . S
H1236 C1213 0.930 . S
H1237 C1214 0.929 . S
H1238 C1216 0.930 . S
H1239 C1217 0.929 . S
Nd1240 C1242 2.836 . S
Nd1240 O1260 2.500 . S
Nd1240 O1261 2.492 . S
Nd1240 O1262 2.487 . S
Nd1240 O1263 2.682 . S
Nd1240 O1264 2.410 . S
Nd1240 O1269 2.414 . S
Nd1240 O1271 2.424 . S
Nd1241 C1251 2.836 . S
Nd1241 O1263 2.414 . S
Nd1241 O1265 2.424 . S
Nd1241 O1266 2.500 . S
Nd1241 O1267 2.492 . S
Nd1241 O1268 2.487 . S
Nd1241 O1269 2.682 . S
Nd1241 O1270 2.410 . S
C1242 Nd1240 2.836 . S
C1242 C1243 1.498 . S
C1242 O1260 1.258 . S
C1242 O1261 1.239 . S
C1243 C1242 1.498 . S
C1243 C1244 1.366 1_556 S
C1243 C1248 1.409 . S
C1244 C1243 1.366 1_554 S
C1244 C1245 1.392 . S
C1244 H1272 0.930 . S
C1245 C1244 1.392 . S
C1245 C1246 1.398 . S
C1245 H1273 0.929 . S
C1246 C1245 1.398 . S
C1246 C1247 1.352 . S
C1247 C1246 1.352 . S
C1247 C1248 1.379 1_554 S
C1247 H1274 0.930 . S
C1248 C1243 1.409 . S
C1248 C1247 1.379 1_556 S
C1248 H1275 0.932 . S
C1249 O1262 1.241 . S
C1249 O1263 1.273 . S
C1250 O1264 1.251 . S
C1250 O1265 1.268 . S
C1251 Nd1241 2.836 . S
C1251 C1252 1.498 . S
C1251 O1266 1.258 . S
C1251 O1267 1.239 . S
C1252 C1251 1.498 . S
C1252 C1253 1.366 . S
C1252 C1257 1.407 . S
C1253 C1252 1.366 . S
C1253 C1254 1.392 . S
C1253 H1276 0.930 . S
C1254 C1253 1.392 . S
C1254 C1255 1.398 . S
C1254 H1277 0.929 . S
C1255 C1254 1.398 . S
C1255 C1256 1.352 . S
C1256 C1255 1.352 . S
C1256 C1257 1.384 . S
C1256 H1278 0.930 . S
C1257 C1252 1.407 . S
C1257 C1256 1.384 . S
C1257 H1279 0.929 . S
C1258 O1268 1.241 . S
C1258 O1269 1.273 . S
C1259 O1270 1.251 . S
C1259 O1271 1.268 . S
O1260 Nd1240 2.500 . S
O1260 C1242 1.258 . S
O1261 Nd1240 2.492 . S
O1261 C1242 1.239 . S
O1262 Nd1240 2.487 . S
O1262 C1249 1.241 . S
O1263 Nd1240 2.682 . S
O1263 Nd1241 2.414 . S
O1263 C1249 1.273 . S
O1264 Nd1240 2.410 . S
O1264 C1250 1.251 . S
O1265 Nd1241 2.424 . S
O1265 C1250 1.268 . S
O1266 Nd1241 2.500 . S
O1266 C1251 1.258 . S
O1267 Nd1241 2.492 . S
O1267 C1251 1.239 . S
O1268 Nd1241 2.487 . S
O1268 C1258 1.241 . S
O1269 Nd1240 2.414 . S
O1269 Nd1241 2.682 . S
O1269 C1258 1.273 . S
O1270 Nd1241 2.410 . S
O1270 C1259 1.251 . S
O1271 Nd1240 2.424 . S
O1271 C1259 1.268 . S
H1272 C1244 0.930 . S
H1273 C1245 0.929 . S
H1274 C1247 0.930 . S
H1275 C1248 0.932 . S
H1276 C1253 0.930 . S
H1277 C1254 0.929 . S
H1278 C1256 0.930 . S
H1279 C1257 0.929 . S
Nd1280 C1282 2.836 . S
Nd1280 O1300 2.500 . S
Nd1280 O1301 2.492 . S
Nd1280 O1302 2.487 . S
Nd1280 O1303 2.682 . S
Nd1280 O1304 2.410 . S
Nd1280 O1309 2.414 . S
Nd1280 O1311 2.424 . S
Nd1281 C1291 2.836 . S
Nd1281 O1303 2.414 . S
Nd1281 O1305 2.424 . S
Nd1281 O1306 2.500 . S
Nd1281 O1307 2.492 . S
Nd1281 O1308 2.487 . S
Nd1281 O1309 2.682 . S
Nd1281 O1310 2.410 . S
C1282 Nd1280 2.836 . S
C1282 C1283 1.498 . S
C1282 O1300 1.258 . S
C1282 O1301 1.239 . S
C1283 C1282 1.498 . S
C1283 C1284 1.366 1_556 S
C1283 C1288 1.409 . S
C1284 C1283 1.366 1_554 S
C1284 C1285 1.392 . S
C1284 H1312 0.930 . S
C1285 C1284 1.392 . S
C1285 C1286 1.398 . S
C1285 H1313 0.929 . S
C1286 C1285 1.398 . S
C1286 C1287 1.352 . S
C1287 C1286 1.352 . S
C1287 C1288 1.379 1_554 S
C1287 H1314 0.930 . S
C1288 C1283 1.409 . S
C1288 C1287 1.379 1_556 S
C1288 H1315 0.933 . S
C1289 O1302 1.241 . S
C1289 O1303 1.273 . S
C1290 O1304 1.251 . S
C1290 O1305 1.268 . S
C1291 Nd1281 2.836 . S
C1291 C1292 1.498 . S
C1291 O1306 1.258 . S
C1291 O1307 1.239 . S
C1292 C1291 1.498 . S
C1292 C1293 1.366 . S
C1292 C1297 1.407 . S
C1293 C1292 1.366 . S
C1293 C1294 1.392 . S
C1293 H1316 0.930 . S
C1294 C1293 1.392 . S
C1294 C1295 1.398 . S
C1294 H1317 0.929 . S
C1295 C1294 1.398 . S
C1295 C1296 1.352 . S
C1296 C1295 1.352 . S
C1296 C1297 1.384 . S
C1296 H1318 0.930 . S
C1297 C1292 1.407 . S
C1297 C1296 1.384 . S
C1297 H1319 0.929 . S
C1298 O1308 1.241 . S
C1298 O1309 1.273 . S
C1299 O1310 1.251 . S
C1299 O1311 1.268 . S
O1300 Nd1280 2.500 . S
O1300 C1282 1.258 . S
O1301 Nd1280 2.492 . S
O1301 C1282 1.239 . S
O1302 Nd1280 2.487 . S
O1302 C1289 1.241 . S
O1303 Nd1280 2.682 . S
O1303 Nd1281 2.414 . S
O1303 C1289 1.273 . S
O1304 Nd1280 2.410 . S
O1304 C1290 1.251 . S
O1305 Nd1281 2.424 . S
O1305 C1290 1.268 . S
O1306 Nd1281 2.500 . S
O1306 C1291 1.258 . S
O1307 Nd1281 2.492 . S
O1307 C1291 1.239 . S
O1308 Nd1281 2.487 . S
O1308 C1298 1.241 . S
O1309 Nd1280 2.414 . S
O1309 Nd1281 2.682 . S
O1309 C1298 1.273 . S
O1310 Nd1281 2.410 . S
O1310 C1299 1.251 . S
O1311 Nd1280 2.424 . S
O1311 C1299 1.268 . S
H1312 C1284 0.930 . S
H1313 C1285 0.929 . S
H1314 C1287 0.930 . S
H1315 C1288 0.933 . S
H1316 C1293 0.930 . S
H1317 C1294 0.929 . S
H1318 C1296 0.930 . S
H1319 C1297 0.929 . S
Nd1320 C1322 2.836 . S
Nd1320 O1340 2.500 . S
Nd1320 O1341 2.492 . S
Nd1320 O1342 2.487 . S
Nd1320 O1343 2.682 . S
Nd1320 O1344 2.410 . S
Nd1320 O1349 2.414 . S
Nd1320 O1351 2.424 . S
Nd1321 C1331 2.836 . S
Nd1321 O1343 2.414 . S
Nd1321 O1345 2.424 . S
Nd1321 O1346 2.500 . S
Nd1321 O1347 2.492 . S
Nd1321 O1348 2.487 . S
Nd1321 O1349 2.682 . S
Nd1321 O1350 2.410 . S
C1322 Nd1320 2.836 . S
C1322 C1323 1.498 . S
C1322 O1340 1.258 . S
C1322 O1341 1.239 . S
C1323 C1322 1.498 . S
C1323 C1324 1.366 1_554 S
C1323 C1328 1.407 1_554 S
C1324 C1323 1.366 1_556 S
C1324 C1325 1.392 . S
C1324 H1352 0.930 . S
C1325 C1324 1.392 . S
C1325 C1326 1.398 . S
C1325 H1353 0.929 . S
C1326 C1325 1.398 . S
C1326 C1327 1.352 . S
C1327 C1326 1.352 . S
C1327 C1328 1.384 . S
C1327 H1354 0.930 . S
C1328 C1323 1.407 1_556 S
C1328 C1327 1.384 . S
C1328 H1355 0.929 1_556 S
C1329 O1342 1.241 . S
C1329 O1343 1.273 . S
C1330 O1344 1.251 . S
C1330 O1345 1.268 . S
C1331 Nd1321 2.836 . S
C1331 C1332 1.498 . S
C1331 O1346 1.258 . S
C1331 O1347 1.239 . S
C1332 C1331 1.498 . S
C1332 C1333 1.366 . S
C1332 C1337 1.407 . S
C1333 C1332 1.366 . S
C1333 C1334 1.392 . S
C1333 H1356 0.930 . S
C1334 C1333 1.392 . S
C1334 C1335 1.398 . S
C1334 H1357 0.929 . S
C1335 C1334 1.398 . S
C1335 C1336 1.352 . S
C1336 C1335 1.352 . S
C1336 C1337 1.384 . S
C1336 H1358 0.930 . S
C1337 C1332 1.407 . S
C1337 C1336 1.384 . S
C1337 H1359 0.929 . S
C1338 O1348 1.241 . S
C1338 O1349 1.273 . S
C1339 O1350 1.251 . S
C1339 O1351 1.268 . S
O1340 Nd1320 2.500 . S
O1340 C1322 1.258 . S
O1341 Nd1320 2.492 . S
O1341 C1322 1.239 . S
O1342 Nd1320 2.487 . S
O1342 C1329 1.241 . S
O1343 Nd1320 2.682 . S
O1343 Nd1321 2.414 . S
O1343 C1329 1.273 . S
O1344 Nd1320 2.410 . S
O1344 C1330 1.251 . S
O1345 Nd1321 2.424 . S
O1345 C1330 1.268 . S
O1346 Nd1321 2.500 . S
O1346 C1331 1.258 . S
O1347 Nd1321 2.492 . S
O1347 C1331 1.239 . S
O1348 Nd1321 2.487 . S
O1348 C1338 1.241 . S
O1349 Nd1320 2.414 . S
O1349 Nd1321 2.682 . S
O1349 C1338 1.273 . S
O1350 Nd1321 2.410 . S
O1350 C1339 1.251 . S
O1351 Nd1320 2.424 . S
O1351 C1339 1.268 . S
H1352 C1324 0.930 . S
H1353 C1325 0.929 . S
H1354 C1327 0.930 . S
H1355 C1328 0.929 1_554 S
H1356 C1333 0.930 . S
H1357 C1334 0.929 . S
H1358 C1336 0.930 . S
H1359 C1337 0.929 . S
Nd1360 C1362 2.836 . S
Nd1360 O1380 2.500 . S
Nd1360 O1381 2.492 . S
Nd1360 O1382 2.487 . S
Nd1360 O1383 2.682 . S
Nd1360 O1384 2.410 . S
Nd1360 O1389 2.414 . S
Nd1360 O1391 2.424 . S
Nd1361 C1371 2.836 . S
Nd1361 O1383 2.414 . S
Nd1361 O1385 2.424 . S
Nd1361 O1386 2.500 . S
Nd1361 O1387 2.492 . S
Nd1361 O1388 2.487 . S
Nd1361 O1389 2.682 . S
Nd1361 O1390 2.410 . S
C1362 Nd1360 2.836 . S
C1362 C1363 1.498 . S
C1362 O1380 1.258 . S
C1362 O1381 1.239 . S
C1363 C1362 1.498 . S
C1363 C1364 1.366 1_554 S
C1363 C1368 1.407 1_554 S
C1364 C1363 1.366 1_556 S
C1364 C1365 1.392 . S
C1364 H1392 0.930 . S
C1365 C1364 1.392 . S
C1365 C1366 1.398 . S
C1365 H1393 0.929 . S
C1366 C1365 1.398 . S
C1366 C1367 1.352 . S
C1367 C1366 1.352 . S
C1367 C1368 1.384 . S
C1367 H1394 0.930 . S
C1368 C1363 1.407 1_556 S
C1368 C1367 1.384 . S
C1368 H1395 0.929 1_556 S
C1369 O1382 1.241 . S
C1369 O1383 1.273 . S
C1370 O1384 1.251 . S
C1370 O1385 1.268 . S
C1371 Nd1361 2.836 . S
C1371 C1372 1.498 . S
C1371 O1386 1.258 . S
C1371 O1387 1.239 . S
C1372 C1371 1.498 . S
C1372 C1373 1.366 . S
C1372 C1377 1.407 . S
C1373 C1372 1.366 . S
C1373 C1374 1.392 . S
C1373 H1396 0.930 . S
C1374 C1373 1.392 . S
C1374 C1375 1.398 . S
C1374 H1397 0.929 . S
C1375 C1374 1.398 . S
C1375 C1376 1.352 . S
C1376 C1375 1.352 . S
C1376 C1377 1.384 . S
C1376 H1398 0.930 . S
C1377 C1372 1.407 . S
C1377 C1376 1.384 . S
C1377 H1399 0.929 . S
C1378 O1388 1.241 . S
C1378 O1389 1.273 . S
C1379 O1390 1.251 . S
C1379 O1391 1.268 . S
O1380 Nd1360 2.500 . S
O1380 C1362 1.258 . S
O1381 Nd1360 2.492 . S
O1381 C1362 1.239 . S
O1382 Nd1360 2.487 . S
O1382 C1369 1.241 . S
O1383 Nd1360 2.682 . S
O1383 Nd1361 2.414 . S
O1383 C1369 1.273 . S
O1384 Nd1360 2.410 . S
O1384 C1370 1.251 . S
O1385 Nd1361 2.424 . S
O1385 C1370 1.268 . S
O1386 Nd1361 2.500 . S
O1386 C1371 1.258 . S
O1387 Nd1361 2.492 . S
O1387 C1371 1.239 . S
O1388 Nd1361 2.487 . S
O1388 C1378 1.241 . S
O1389 Nd1360 2.414 . S
O1389 Nd1361 2.682 . S
O1389 C1378 1.273 . S
O1390 Nd1361 2.410 . S
O1390 C1379 1.251 . S
O1391 Nd1360 2.424 . S
O1391 C1379 1.268 . S
H1392 C1364 0.930 . S
H1393 C1365 0.929 . S
H1394 C1367 0.930 . S
H1395 C1368 0.929 1_554 S
H1396 C1373 0.930 . S
H1397 C1374 0.929 . S
H1398 C1376 0.930 . S
H1399 C1377 0.929 . S
Nd1400 C1402 2.836 . S
Nd1400 O1420 2.500 . S
Nd1400 O1421 2.492 . S
Nd1400 O1422 2.487 . S
Nd1400 O1423 2.682 . S
Nd1400 O1424 2.410 . S
Nd1400 O1429 2.414 . S
Nd1400 O1431 2.424 . S
Nd1401 C1411 2.836 . S
Nd1401 O1423 2.414 . S
Nd1401 O1425 2.424 . S
Nd1401 O1426 2.500 . S
Nd1401 O1427 2.492 . S
Nd1401 O1428 2.487 . S
Nd1401 O1429 2.682 . S
Nd1401 O1430 2.410 . S
C1402 Nd1400 2.836 . S
C1402 C1403 1.498 . S
C1402 O1420 1.258 . S
C1402 O1421 1.239 . S
C1403 C1402 1.498 . S
C1403 C1404 1.366 1_554 S
C1403 C1408 1.407 1_554 S
C1404 C1403 1.366 1_556 S
C1404 C1405 1.392 . S
C1404 H1432 0.930 . S
C1405 C1404 1.392 . S
C1405 C1406 1.398 . S
C1405 H1433 0.929 . S
C1406 C1405 1.398 . S
C1406 C1407 1.352 . S
C1407 C1406 1.352 . S
C1407 C1408 1.384 . S
C1407 H1434 0.930 . S
C1408 C1403 1.407 1_556 S
C1408 C1407 1.384 . S
C1408 H1435 0.929 1_556 S
C1409 O1422 1.241 . S
C1409 O1423 1.273 . S
C1410 O1424 1.251 . S
C1410 O1425 1.268 . S
C1411 Nd1401 2.836 . S
C1411 C1412 1.498 . S
C1411 O1426 1.258 . S
C1411 O1427 1.239 . S
C1412 C1411 1.498 . S
C1412 C1413 1.366 . S
C1412 C1417 1.407 . S
C1413 C1412 1.366 . S
C1413 C1414 1.392 . S
C1413 H1436 0.930 . S
C1414 C1413 1.392 . S
C1414 C1415 1.398 . S
C1414 H1437 0.929 . S
C1415 C1414 1.398 . S
C1415 C1416 1.352 . S
C1416 C1415 1.352 . S
C1416 C1417 1.384 . S
C1416 H1438 0.930 . S
C1417 C1412 1.407 . S
C1417 C1416 1.384 . S
C1417 H1439 0.929 . S
C1418 O1428 1.241 . S
C1418 O1429 1.273 . S
C1419 O1430 1.251 . S
C1419 O1431 1.268 . S
O1420 Nd1400 2.500 . S
O1420 C1402 1.258 . S
O1421 Nd1400 2.492 . S
O1421 C1402 1.239 . S
O1422 Nd1400 2.487 . S
O1422 C1409 1.241 . S
O1423 Nd1400 2.682 . S
O1423 Nd1401 2.414 . S
O1423 C1409 1.273 . S
O1424 Nd1400 2.410 . S
O1424 C1410 1.251 . S
O1425 Nd1401 2.424 . S
O1425 C1410 1.268 . S
O1426 Nd1401 2.500 . S
O1426 C1411 1.258 . S
O1427 Nd1401 2.492 . S
O1427 C1411 1.239 . S
O1428 Nd1401 2.487 . S
O1428 C1418 1.241 . S
O1429 Nd1400 2.414 . S
O1429 Nd1401 2.682 . S
O1429 C1418 1.273 . S
O1430 Nd1401 2.410 . S
O1430 C1419 1.251 . S
O1431 Nd1400 2.424 . S
O1431 C1419 1.268 . S
H1432 C1404 0.930 . S
H1433 C1405 0.929 . S
H1434 C1407 0.930 . S
H1435 C1408 0.929 1_554 S
H1436 C1413 0.930 . S
H1437 C1414 0.929 . S
H1438 C1416 0.930 . S
H1439 C1417 0.929 . S
C1440 C1441 1.387 . S
C1440 H1444 0.950 . S
C1440 C1449 1.390 . S
C1441 C1440 1.387 . S
C1441 C1443 1.387 1_554 S
H1442 C1449 0.950 . S
C1443 C1441 1.387 1_556 S
C1443 C1445 1.390 . S
C1443 H1447 0.950 . S
H1444 C1440 0.950 . S
C1445 C1443 1.390 . S
C1445 C1446 1.387 . S
C1445 H1448 0.950 . S
C1446 C1445 1.387 . S
C1446 C1449 1.387 1_556 S
H1447 C1443 0.950 . S
H1448 C1445 0.950 . S
C1449 C1440 1.390 . S
C1449 H1442 0.950 . S
C1449 C1446 1.387 1_554 S
C1450 C1451 1.387 1_556 S
C1450 H1454 0.950 . S
C1450 C1459 1.390 . S
C1451 C1450 1.387 1_554 S
C1451 C1453 1.387 1_554 S
H1452 C1459 0.950 . S
C1453 C1451 1.387 1_556 S
C1453 C1455 1.392 . S
C1453 H1457 0.948 1_556 S
H1454 C1450 0.950 . S
C1455 C1453 1.392 . S
C1455 C1456 1.387 . S
C1455 H1458 0.950 . S
C1456 C1455 1.387 . S
C1456 C1459 1.387 . S
H1457 C1453 0.948 1_554 S
H1458 C1455 0.950 . S
C1459 C1450 1.390 . S
C1459 H1452 0.950 . S
C1459 C1456 1.387 . S
C1460 C1461 1.387 . S
C1460 H1464 0.950 . S
C1460 C1469 1.390 . S
C1461 C1460 1.387 . S
C1461 C1463 1.387 1_556 S
H1462 C1469 0.950 . S
C1463 C1461 1.387 1_554 S
C1463 C1465 1.390 . S
C1463 H1467 0.950 . S
H1464 C1460 0.950 . S
C1465 C1463 1.390 . S
C1465 C1466 1.387 . S
C1465 H1468 0.950 . S
C1466 C1465 1.387 . S
C1466 C1469 1.387 1_554 S
H1467 C1463 0.950 . S
H1468 C1465 0.950 . S
C1469 C1460 1.390 . S
C1469 H1462 0.950 . S
C1469 C1466 1.387 1_556 S
C1470 C1471 1.387 . S
C1470 H1474 0.950 . S
C1470 C1479 1.390 . S
C1471 C1470 1.387 . S
C1471 C1473 1.387 . S
H1472 C1479 0.950 . S
C1473 C1471 1.387 . S
C1473 C1475 1.390 . S
C1473 H1477 0.950 . S
H1474 C1470 0.950 . S
C1475 C1473 1.390 . S
C1475 C1476 1.387 . S
C1475 H1478 0.950 . S
C1476 C1475 1.387 . S
C1476 C1479 1.387 . S
H1477 C1473 0.950 . S
H1478 C1475 0.950 . S
C1479 C1470 1.390 . S
C1479 H1472 0.950 . S
C1479 C1476 1.387 . S
C1480 C1481 1.387 . S
C1480 H1484 0.950 . S
C1480 C1489 1.390 . S
C1481 C1480 1.387 . S
C1481 C1483 1.387 . S
H1482 C1489 0.950 . S
C1483 C1481 1.387 . S
C1483 C1485 1.390 . S
C1483 H1487 0.950 . S
H1484 C1480 0.950 . S
C1485 C1483 1.390 . S
C1485 C1486 1.387 . S
C1485 H1488 0.950 . S
C1486 C1485 1.387 . S
C1486 C1489 1.387 . S
H1487 C1483 0.950 . S
H1488 C1485 0.950 . S
C1489 C1480 1.390 . S
C1489 H1482 0.950 . S
C1489 C1486 1.387 . S
C1490 C1491 1.387 . S
C1490 H1494 0.950 . S
C1490 C1499 1.390 . S
C1491 C1490 1.387 . S
C1491 C1493 1.387 . S
H1492 C1499 0.950 . S
C1493 C1491 1.387 . S
C1493 C1495 1.390 . S
C1493 H1497 0.950 . S
H1494 C1490 0.950 . S
C1495 C1493 1.390 . S
C1495 C1496 1.387 . S
C1495 H1498 0.950 . S
C1496 C1495 1.387 . S
C1496 C1499 1.387 . S
H1497 C1493 0.950 . S
H1498 C1495 0.950 . S
C1499 C1490 1.390 . S
C1499 H1492 0.950 . S
C1499 C1496 1.387 . S
C1500 C1501 1.387 . S
C1500 H1504 0.950 . S
C1500 C1509 1.390 . S
C1501 C1500 1.387 . S
C1501 C1503 1.387 . S
H1502 C1509 0.950 . S
C1503 C1501 1.387 . S
C1503 C1505 1.390 . S
C1503 H1507 0.950 . S
H1504 C1500 0.950 . S
C1505 C1503 1.390 . S
C1505 C1506 1.387 . S
C1505 H1508 0.950 . S
C1506 C1505 1.387 . S
C1506 C1509 1.387 . S
H1507 C1503 0.950 . S
H1508 C1505 0.950 . S
C1509 C1500 1.390 . S
C1509 H1502 0.950 . S
C1509 C1506 1.387 . S
C1510 C1511 1.387 . S
C1510 H1514 0.950 . S
C1510 C1519 1.390 . S
C1511 C1510 1.387 . S
C1511 C1513 1.387 . S
H1512 C1519 0.950 . S
C1513 C1511 1.387 . S
C1513 C1515 1.390 . S
C1513 H1517 0.950 . S
H1514 C1510 0.950 . S
C1515 C1513 1.390 . S
C1515 C1516 1.387 . S
C1515 H1518 0.950 . S
C1516 C1515 1.387 . S
C1516 C1519 1.387 . S
H1517 C1513 0.950 . S
H1518 C1515 0.950 . S
C1519 C1510 1.390 . S
C1519 H1512 0.950 . S
C1519 C1516 1.387 . S
C1520 C1521 1.387 . S
C1520 H1524 0.950 . S
C1520 C1529 1.390 . S
C1521 C1520 1.387 . S
C1521 C1523 1.387 . S
H1522 C1529 0.950 . S
C1523 C1521 1.387 . S
C1523 C1525 1.390 . S
C1523 H1527 0.950 . S
H1524 C1520 0.950 . S
C1525 C1523 1.390 . S
C1525 C1526 1.387 . S
C1525 H1528 0.950 . S
C1526 C1525 1.387 . S
C1526 C1529 1.387 . S
H1527 C1523 0.950 . S
H1528 C1525 0.950 . S
C1529 C1520 1.390 . S
C1529 H1522 0.950 . S
C1529 C1526 1.387 . S
C1530 C1531 1.387 . S
C1530 H1534 0.950 . S
C1530 C1539 1.390 . S
C1531 C1530 1.387 . S
C1531 C1533 1.387 . S
H1532 C1539 0.950 . S
C1533 C1531 1.387 . S
C1533 C1535 1.390 . S
C1533 H1537 0.950 . S
H1534 C1530 0.950 . S
C1535 C1533 1.390 . S
C1535 C1536 1.387 . S
C1535 H1538 0.950 . S
C1536 C1535 1.387 . S
C1536 C1539 1.387 . S
H1537 C1533 0.950 . S
H1538 C1535 0.950 . S
C1539 C1530 1.390 . S
C1539 H1532 0.950 . S
C1539 C1536 1.387 . S
C1540 C1541 1.387 . S
C1540 H1544 0.950 . S
C1540 C1549 1.390 . S
C1541 C1540 1.387 . S
C1541 C1543 1.387 . S
H1542 C1549 0.950 . S
C1543 C1541 1.387 . S
C1543 C1545 1.390 . S
C1543 H1547 0.950 . S
H1544 C1540 0.950 . S
C1545 C1543 1.390 . S
C1545 C1546 1.387 . S
C1545 H1548 0.950 . S
C1546 C1545 1.387 . S
C1546 C1549 1.387 . S
H1547 C1543 0.950 . S
H1548 C1545 0.950 . S
C1549 C1540 1.390 . S
C1549 H1542 0.950 . S
C1549 C1546 1.387 . S
C1550 C1551 1.387 . S
C1550 H1554 0.950 . S
C1550 C1559 1.390 . S
C1551 C1550 1.387 . S
C1551 C1553 1.387 . S
H1552 C1559 0.950 . S
C1553 C1551 1.387 . S
C1553 C1555 1.390 . S
C1553 H1557 0.950 . S
H1554 C1550 0.950 . S
C1555 C1553 1.390 . S
C1555 C1556 1.387 . S
C1555 H1558 0.950 . S
C1556 C1555 1.387 . S
C1556 C1559 1.387 . S
H1557 C1553 0.950 . S
H1558 C1555 0.950 . S
C1559 C1550 1.390 . S
C1559 H1552 0.950 . S
C1559 C1556 1.387 . S
C1560 C1561 1.387 . S
C1560 H1564 0.950 . S
C1560 C1569 1.390 . S
C1561 C1560 1.387 . S
C1561 C1563 1.387 . S
H1562 C1569 0.950 . S
C1563 C1561 1.387 . S
C1563 C1565 1.390 . S
C1563 H1567 0.950 . S
H1564 C1560 0.950 . S
C1565 C1563 1.390 . S
C1565 C1566 1.387 . S
C1565 H1568 0.950 . S
C1566 C1565 1.387 . S
C1566 C1569 1.387 . S
H1567 C1563 0.950 . S
H1568 C1565 0.950 . S
C1569 C1560 1.390 . S
C1569 H1562 0.950 . S
C1569 C1566 1.387 . S
C1570 C1571 1.387 . S
C1570 H1574 0.950 . S
C1570 C1579 1.390 1_565 S
C1571 C1570 1.387 . S
C1571 C1573 1.387 . S
H1572 C1579 0.950 . S
C1573 C1571 1.387 . S
C1573 C1575 1.390 1_565 S
C1573 H1577 0.950 . S
H1574 C1570 0.950 . S
C1575 C1573 1.390 1_545 S
C1575 C1576 1.387 . S
C1575 H1578 0.950 . S
C1576 C1575 1.387 . S
C1576 C1579 1.387 . S
H1577 C1573 0.950 . S
H1578 C1575 0.950 . S
C1579 C1570 1.390 1_545 S
C1579 H1572 0.950 . S
C1579 C1576 1.387 . S
C1580 C1581 1.387 . S
C1580 H1584 0.950 . S
C1580 C1589 1.390 1_655 S
C1581 C1580 1.387 . S
C1581 C1583 1.387 . S
H1582 C1589 0.950 . S
C1583 C1581 1.387 . S
C1583 C1585 1.390 1_655 S
C1583 H1587 0.950 . S
H1584 C1580 0.950 . S
C1585 C1583 1.390 1_455 S
C1585 C1586 1.387 . S
C1585 H1588 0.950 . S
C1586 C1585 1.387 . S
C1586 C1589 1.387 . S
H1587 C1583 0.950 . S
H1588 C1585 0.950 . S
C1589 C1580 1.390 1_455 S
C1589 H1582 0.950 . S
C1589 C1586 1.387 . S
C1590 C1591 1.387 . S
C1590 H1594 0.950 . S
C1590 C1599 1.390 . S
C1591 C1590 1.387 . S
C1591 C1593 1.387 . S
H1592 C1599 0.950 . S
C1593 C1591 1.387 . S
C1593 C1595 1.390 . S
C1593 H1597 0.950 . S
H1594 C1590 0.950 . S
C1595 C1593 1.390 . S
C1595 C1596 1.387 . S
C1595 H1598 0.950 . S
C1596 C1595 1.387 . S
C1596 C1599 1.387 . S
H1597 C1593 0.950 . S
H1598 C1595 0.950 . S
C1599 C1590 1.390 . S
C1599 H1592 0.950 . S
C1599 C1596 1.387 . S
C1600 C1601 1.387 . S
C1600 H1604 0.950 . S
C1600 C1609 1.390 1_545 S
C1601 C1600 1.387 . S
C1601 C1603 1.387 . S
H1602 C1609 0.950 . S
C1603 C1601 1.387 . S
C1603 C1605 1.390 1_545 S
C1603 H1607 0.950 . S
H1604 C1600 0.950 . S
C1605 C1603 1.390 1_565 S
C1605 C1606 1.387 . S
C1605 H1608 0.950 . S
C1606 C1605 1.387 . S
C1606 C1609 1.387 . S
H1607 C1603 0.950 . S
H1608 C1605 0.950 . S
C1609 C1600 1.390 1_565 S
C1609 H1602 0.950 . S
C1609 C1606 1.387 . S
C1610 C1611 1.387 . S
C1610 H1614 0.950 . S
C1610 C1619 1.390 1_455 S
C1611 C1610 1.387 . S
C1611 C1613 1.387 . S
H1612 C1619 0.950 . S
C1613 C1611 1.387 . S
C1613 C1615 1.390 1_455 S
C1613 H1617 0.950 . S
H1614 C1610 0.950 . S
C1615 C1613 1.390 1_655 S
C1615 C1616 1.387 . S
C1615 H1618 0.950 . S
C1616 C1615 1.387 . S
C1616 C1619 1.387 . S
H1617 C1613 0.950 . S
H1618 C1615 0.950 . S
C1619 C1610 1.390 1_655 S
C1619 H1612 0.950 . S
C1619 C1616 1.387 . S
C1620 C1621 1.387 . S
C1620 H1624 0.950 . S
C1620 C1629 1.390 . S
C1621 C1620 1.387 . S
C1621 C1623 1.387 1_455 S
H1622 C1629 0.950 . S
C1623 C1621 1.387 1_655 S
C1623 C1625 1.390 . S
C1623 H1627 0.950 . S
H1624 C1620 0.950 . S
C1625 C1623 1.390 . S
C1625 C1626 1.387 . S
C1625 H1628 0.950 . S
C1626 C1625 1.387 . S
C1626 C1629 1.387 1_655 S
H1627 C1623 0.950 . S
H1628 C1625 0.950 . S
C1629 C1620 1.390 . S
C1629 H1622 0.950 . S
C1629 C1626 1.387 1_455 S
C1630 C1631 1.387 . S
C1630 H1634 0.950 . S
C1630 C1639 1.390 . S
C1631 C1630 1.387 . S
C1631 C1633 1.387 . S
H1632 C1639 0.950 . S
C1633 C1631 1.387 . S
C1633 C1635 1.390 . S
C1633 H1637 0.950 . S
H1634 C1630 0.950 . S
C1635 C1633 1.390 . S
C1635 C1636 1.387 . S
C1635 H1638 0.950 . S
C1636 C1635 1.387 . S
C1636 C1639 1.387 . S
H1637 C1633 0.950 . S
H1638 C1635 0.950 . S
C1639 C1630 1.390 . S
C1639 H1632 0.950 . S
C1639 C1636 1.387 . S
C1640 C1641 1.387 . S
C1640 H1644 0.950 . S
C1640 C1649 1.390 1_565 S
C1641 C1640 1.387 . S
C1641 C1643 1.387 . S
H1642 C1649 0.950 . S
C1643 C1641 1.387 . S
C1643 C1645 1.390 1_565 S
C1643 H1647 0.950 . S
H1644 C1640 0.950 . S
C1645 C1643 1.390 1_545 S
C1645 C1646 1.387 . S
C1645 H1648 0.950 . S
C1646 C1645 1.387 . S
C1646 C1649 1.387 . S
H1647 C1643 0.950 . S
H1648 C1645 0.950 . S
C1649 C1640 1.390 1_545 S
C1649 H1642 0.950 . S
C1649 C1646 1.387 . S
C1650 C1651 1.387 . S
C1650 H1654 0.950 . S
C1650 C1659 1.390 . S
C1651 C1650 1.387 . S
C1651 C1653 1.387 1_655 S
H1652 C1659 0.950 . S
C1653 C1651 1.387 1_455 S
C1653 C1655 1.390 . S
C1653 H1657 0.950 . S
H1654 C1650 0.950 . S
C1655 C1653 1.390 . S
C1655 C1656 1.387 . S
C1655 H1658 0.950 . S
C1656 C1655 1.387 . S
C1656 C1659 1.387 1_455 S
H1657 C1653 0.950 . S
H1658 C1655 0.950 . S
C1659 C1650 1.390 . S
C1659 H1652 0.950 . S
C1659 C1656 1.387 1_655 S
C1660 C1661 1.387 . S
C1660 H1664 0.950 . S
C1660 C1669 1.390 . S
C1661 C1660 1.387 . S
C1661 C1663 1.387 . S
H1662 C1669 0.950 . S
C1663 C1661 1.387 . S
C1663 C1665 1.390 . S
C1663 H1667 0.950 . S
H1664 C1660 0.950 . S
C1665 C1663 1.390 . S
C1665 C1666 1.387 . S
C1665 H1668 0.950 . S
C1666 C1665 1.387 . S
C1666 C1669 1.387 . S
H1667 C1663 0.950 . S
H1668 C1665 0.950 . S
C1669 C1660 1.390 . S
C1669 H1662 0.950 . S
C1669 C1666 1.387 . S
C1670 C1671 1.387 . S
C1670 H1674 0.950 . S
C1670 C1679 1.390 1_545 S
C1671 C1670 1.387 . S
C1671 C1673 1.387 . S
H1672 C1679 0.950 . S
C1673 C1671 1.387 . S
C1673 C1675 1.390 1_545 S
C1673 H1677 0.950 . S
H1674 C1670 0.950 . S
C1675 C1673 1.390 1_565 S
C1675 C1676 1.387 . S
C1675 H1678 0.950 . S
C1676 C1675 1.387 . S
C1676 C1679 1.387 . S
H1677 C1673 0.950 . S
H1678 C1675 0.950 . S
C1679 C1670 1.390 1_565 S
C1679 H1672 0.950 . S
C1679 C1676 1.387 . S
C1680 C1681 1.387 . S
C1680 H1684 0.950 . S
C1680 C1689 1.390 . S
C1681 C1680 1.387 . S
C1681 C1683 1.387 . S
H1682 C1689 0.950 . S
C1683 C1681 1.387 . S
C1683 C1685 1.390 . S
C1683 H1687 0.950 . S
H1684 C1680 0.950 . S
C1685 C1683 1.390 . S
C1685 C1686 1.387 . S
C1685 H1688 0.950 . S
C1686 C1685 1.387 . S
C1686 C1689 1.387 . S
H1687 C1683 0.950 . S
H1688 C1685 0.950 . S
C1689 C1680 1.390 . S
C1689 H1682 0.950 . S
C1689 C1686 1.387 . S
C1690 C1691 1.387 . S
C1690 H1694 0.950 . S
C1690 C1699 1.390 . S
C1691 C1690 1.387 . S
C1691 C1693 1.387 . S
H1692 C1699 0.950 . S
C1693 C1691 1.387 . S
C1693 C1695 1.390 . S
C1693 H1697 0.950 . S
H1694 C1690 0.950 . S
C1695 C1693 1.390 . S
C1695 C1696 1.387 . S
C1695 H1698 0.950 . S
C1696 C1695 1.387 . S
C1696 C1699 1.387 . S
H1697 C1693 0.950 . S
H1698 C1695 0.950 . S
C1699 C1690 1.390 . S
C1699 H1692 0.950 . S
C1699 C1696 1.387 . S
C1700 C1701 1.387 . S
C1700 H1704 0.950 . S
C1700 C1709 1.390 . S
C1701 C1700 1.387 . S
C1701 C1703 1.387 . S
H1702 C1709 0.950 . S
C1703 C1701 1.387 . S
C1703 C1705 1.390 . S
C1703 H1707 0.950 . S
H1704 C1700 0.950 . S
C1705 C1703 1.390 . S
C1705 C1706 1.387 . S
C1705 H1708 0.950 . S
C1706 C1705 1.387 . S
C1706 C1709 1.387 . S
H1707 C1703 0.950 . S
H1708 C1705 0.950 . S
C1709 C1700 1.390 . S
C1709 H1702 0.950 . S
C1709 C1706 1.387 . S
C1710 C1711 1.387 . S
C1710 H1714 0.950 . S
C1710 C1719 1.390 . S
C1711 C1710 1.387 . S
C1711 C1713 1.387 . S
H1712 C1719 0.950 . S
C1713 C1711 1.387 . S
C1713 C1715 1.390 . S
C1713 H1717 0.950 . S
H1714 C1710 0.950 . S
C1715 C1713 1.390 . S
C1715 C1716 1.387 . S
C1715 H1718 0.950 . S
C1716 C1715 1.387 . S
C1716 C1719 1.387 . S
H1717 C1713 0.950 . S
H1718 C1715 0.950 . S
C1719 C1710 1.390 . S
C1719 H1712 0.950 . S
C1719 C1716 1.387 . S
C1720 C1721 1.387 . S
C1720 H1724 0.950 . S
C1720 C1729 1.390 . S
C1721 C1720 1.387 . S
C1721 C1723 1.387 . S
H1722 C1729 0.950 . S
C1723 C1721 1.387 . S
C1723 C1725 1.390 . S
C1723 H1727 0.950 . S
H1724 C1720 0.950 . S
C1725 C1723 1.390 . S
C1725 C1726 1.387 . S
C1725 H1728 0.950 . S
C1726 C1725 1.387 . S
C1726 C1729 1.387 . S
H1727 C1723 0.950 . S
H1728 C1725 0.950 . S
C1729 C1720 1.390 . S
C1729 H1722 0.950 . S
C1729 C1726 1.387 . S
C1730 C1731 1.387 . S
C1730 H1734 0.950 . S
C1730 C1739 1.390 . S
C1731 C1730 1.387 . S
C1731 C1733 1.387 . S
H1732 C1739 0.950 . S
C1733 C1731 1.387 . S
C1733 C1735 1.390 . S
C1733 H1737 0.950 . S
H1734 C1730 0.950 . S
C1735 C1733 1.390 . S
C1735 C1736 1.387 . S
C1735 H1738 0.950 . S
C1736 C1735 1.387 . S
C1736 C1739 1.387 . S
H1737 C1733 0.950 . S
H1738 C1735 0.950 . S
C1739 C1730 1.390 . S
C1739 H1732 0.950 . S
C1739 C1736 1.387 . S
C1740 C1741 1.387 . S
C1740 H1744 0.950 . S
C1740 C1749 1.390 . S
C1741 C1740 1.387 . S
C1741 C1743 1.387 . S
H1742 C1749 0.950 . S
C1743 C1741 1.387 . S
C1743 C1745 1.390 . S
C1743 H1747 0.950 . S
H1744 C1740 0.950 . S
C1745 C1743 1.390 . S
C1745 C1746 1.387 . S
C1745 H1748 0.950 . S
C1746 C1745 1.387 . S
C1746 C1749 1.387 . S
H1747 C1743 0.950 . S
H1748 C1745 0.950 . S
C1749 C1740 1.390 . S
C1749 H1742 0.950 . S
C1749 C1746 1.387 . S
C1750 C1751 1.387 . S
C1750 H1754 0.950 . S
C1750 C1759 1.390 . S
C1751 C1750 1.387 . S
C1751 C1753 1.387 . S
H1752 C1759 0.950 . S
C1753 C1751 1.387 . S
C1753 C1755 1.390 . S
C1753 H1757 0.950 . S
H1754 C1750 0.950 . S
C1755 C1753 1.390 . S
C1755 C1756 1.387 . S
C1755 H1758 0.950 . S
C1756 C1755 1.387 . S
C1756 C1759 1.387 . S
H1757 C1753 0.950 . S
H1758 C1755 0.950 . S
C1759 C1750 1.390 . S
C1759 H1752 0.950 . S
C1759 C1756 1.387 . S
C1760 C1761 1.387 . S
C1760 H1764 0.950 . S
C1760 C1769 1.390 . S
C1761 C1760 1.387 . S
C1761 C1763 1.387 . S
H1762 C1769 0.950 . S
C1763 C1761 1.387 . S
C1763 C1765 1.390 . S
C1763 H1767 0.950 . S
H1764 C1760 0.950 . S
C1765 C1763 1.390 . S
C1765 C1766 1.387 . S
C1765 H1768 0.950 . S
C1766 C1765 1.387 . S
C1766 C1769 1.387 . S
H1767 C1763 0.950 . S
H1768 C1765 0.950 . S
C1769 C1760 1.390 . S
C1769 H1762 0.950 . S
C1769 C1766 1.387 . S
C1770 C1771 1.387 . S
C1770 H1774 0.950 . S
C1770 C1779 1.390 . S
C1771 C1770 1.387 . S
C1771 C1773 1.387 . S
H1772 C1779 0.950 . S
C1773 C1771 1.387 . S
C1773 C1775 1.390 1_556 S
C1773 H1777 0.950 . S
H1774 C1770 0.950 . S
C1775 C1773 1.390 1_554 S
C1775 C1776 1.387 . S
C1775 H1778 0.950 . S
C1776 C1775 1.387 . S
C1776 C1779 1.387 1_554 S
H1777 C1773 0.950 . S
H1778 C1775 0.950 . S
C1779 C1770 1.390 . S
C1779 H1772 0.950 . S
C1779 C1776 1.387 1_556 S
C1780 C1781 1.387 . S
C1780 H1784 0.950 . S
C1780 C1789 1.390 1_556 S
C1781 C1780 1.387 . S
C1781 C1783 1.387 . S
H1782 C1789 0.950 . S
C1783 C1781 1.387 . S
C1783 C1785 1.390 . S
C1783 H1787 0.950 . S
H1784 C1780 0.950 . S
C1785 C1783 1.390 . S
C1785 C1786 1.387 1_556 S
C1785 H1788 0.950 . S
C1786 C1785 1.387 1_554 S
C1786 C1789 1.387 . S
H1787 C1783 0.950 . S
H1788 C1785 0.950 . S
C1789 C1780 1.390 1_554 S
C1789 H1782 0.950 . S
C1789 C1786 1.387 . S
C1790 C1791 1.387 . S
C1790 H1794 0.950 . S
C1790 C1799 1.390 1_556 S
C1791 C1790 1.387 . S
C1791 C1793 1.387 . S
H1792 C1799 0.950 . S
C1793 C1791 1.387 . S
C1793 C1795 1.390 1_556 S
C1793 H1797 0.950 . S
H1794 C1790 0.950 . S
C1795 C1793 1.390 1_554 S
C1795 C1796 1.387 . S
C1795 H1798 0.950 . S
C1796 C1795 1.387 . S
C1796 C1799 1.387 . S
H1797 C1793 0.950 . S
H1798 C1795 0.950 . S
C1799 C1790 1.390 1_554 S
C1799 H1792 0.950 . S
C1799 C1796 1.387 . S
C1800 C1801 1.387 . S
C1800 H1804 0.950 . S
C1800 C1809 1.390 . S
C1801 C1800 1.387 . S
C1801 C1803 1.387 . S
H1802 C1809 0.950 . S
C1803 C1801 1.387 . S
C1803 C1805 1.390 . S
C1803 H1807 0.950 . S
H1804 C1800 0.950 . S
C1805 C1803 1.390 . S
C1805 C1806 1.387 . S
C1805 H1808 0.950 . S
C1806 C1805 1.387 . S
C1806 C1809 1.387 . S
H1807 C1803 0.950 . S
H1808 C1805 0.950 . S
C1809 C1800 1.390 . S
C1809 H1802 0.950 . S
C1809 C1806 1.387 . S
C1810 C1811 1.387 . S
C1810 H1814 0.950 . S
C1810 C1819 1.390 . S
C1811 C1810 1.387 . S
C1811 C1813 1.387 . S
H1812 C1819 0.950 . S
C1813 C1811 1.387 . S
C1813 C1815 1.390 . S
C1813 H1817 0.950 . S
H1814 C1810 0.950 . S
C1815 C1813 1.390 . S
C1815 C1816 1.387 . S
C1815 H1818 0.950 . S
C1816 C1815 1.387 . S
C1816 C1819 1.387 . S
H1817 C1813 0.950 . S
H1818 C1815 0.950 . S
C1819 C1810 1.390 . S
C1819 H1812 0.950 . S
C1819 C1816 1.387 . S
C1820 C1821 1.387 . S
C1820 H1824 0.950 . S
C1820 C1829 1.390 . S
C1821 C1820 1.387 . S
C1821 C1823 1.387 . S
H1822 C1829 0.950 . S
C1823 C1821 1.387 . S
C1823 C1825 1.390 . S
C1823 H1827 0.950 . S
H1824 C1820 0.950 . S
C1825 C1823 1.390 . S
C1825 C1826 1.387 . S
C1825 H1828 0.950 . S
C1826 C1825 1.387 . S
C1826 C1829 1.387 . S
H1827 C1823 0.950 . S
H1828 C1825 0.950 . S
C1829 C1820 1.390 . S
C1829 H1822 0.950 . S
C1829 C1826 1.387 . S
C1830 C1831 1.387 . S
C1830 H1834 0.950 . S
C1830 C1839 1.390 1_556 S
C1831 C1830 1.387 . S
C1831 C1833 1.387 . S
H1832 C1839 0.950 . S
C1833 C1831 1.387 . S
C1833 C1835 1.390 . S
C1833 H1837 0.950 . S
H1834 C1830 0.950 . S
C1835 C1833 1.390 . S
C1835 C1836 1.387 1_556 S
C1835 H1838 0.950 . S
C1836 C1835 1.387 1_554 S
C1836 C1839 1.387 . S
H1837 C1833 0.950 . S
H1838 C1835 0.950 . S
C1839 C1830 1.390 1_554 S
C1839 H1832 0.950 . S
C1839 C1836 1.387 . S
C1840 C1841 1.387 . S
C1840 H1844 0.950 . S
C1840 C1849 1.390 1_556 S
C1841 C1840 1.387 . S
C1841 C1843 1.387 . S
H1842 C1849 0.950 . S
C1843 C1841 1.387 . S
C1843 C1845 1.390 1_556 S
C1843 H1847 0.950 . S
H1844 C1840 0.950 . S
C1845 C1843 1.390 1_554 S
C1845 C1846 1.387 . S
C1845 H1848 0.950 . S
C1846 C1845 1.387 . S
C1846 C1849 1.387 . S
H1847 C1843 0.950 . S
H1848 C1845 0.950 . S
C1849 C1840 1.390 1_554 S
C1849 H1842 0.950 . S
C1849 C1846 1.387 . S
C1850 C1851 1.387 . S
C1850 H1854 0.950 . S
C1850 C1859 1.390 1_554 S
C1851 C1850 1.387 . S
C1851 C1853 1.387 1_554 S
H1852 C1859 0.950 . S
C1853 C1851 1.387 1_556 S
C1853 C1855 1.390 . S
C1853 H1857 0.950 1_556 S
H1854 C1850 0.950 . S
C1855 C1853 1.390 . S
C1855 C1856 1.387 . S
C1855 H1858 0.950 . S
C1856 C1855 1.387 . S
C1856 C1859 1.387 . S
H1857 C1853 0.950 1_554 S
H1858 C1855 0.950 . S
C1859 C1850 1.390 1_556 S
C1859 H1852 0.950 . S
C1859 C1856 1.387 . S
C1860 C1861 1.387 . S
C1860 H1864 0.950 . S
C1860 C1869 1.390 . S
C1861 C1860 1.387 . S
C1861 C1863 1.387 . S
H1862 C1869 0.950 . S
C1863 C1861 1.387 . S
C1863 C1865 1.390 . S
C1863 H1867 0.950 . S
H1864 C1860 0.950 . S
C1865 C1863 1.390 . S
C1865 C1866 1.387 . S
C1865 H1868 0.950 . S
C1866 C1865 1.387 . S
C1866 C1869 1.387 . S
H1867 C1863 0.950 . S
H1868 C1865 0.950 . S
C1869 C1860 1.390 . S
C1869 H1862 0.950 . S
C1869 C1866 1.387 . S
C1870 C1871 1.387 . S
C1870 H1874 0.950 . S
C1870 C1879 1.390 . S
C1871 C1870 1.387 . S
C1871 C1873 1.387 . S
H1872 C1879 0.950 . S
C1873 C1871 1.387 . S
C1873 C1875 1.390 . S
C1873 H1877 0.950 . S
H1874 C1870 0.950 . S
C1875 C1873 1.390 . S
C1875 C1876 1.387 . S
C1875 H1878 0.950 . S
C1876 C1875 1.387 . S
C1876 C1879 1.387 . S
H1877 C1873 0.950 . S
H1878 C1875 0.950 . S
C1879 C1870 1.390 . S
C1879 H1872 0.950 . S
C1879 C1876 1.387 . S
C1880 C1881 1.387 . S
C1880 H1884 0.950 . S
C1880 C1889 1.390 . S
C1881 C1880 1.387 . S
C1881 C1883 1.387 . S
H1882 C1889 0.950 . S
C1883 C1881 1.387 . S
C1883 C1885 1.390 . S
C1883 H1887 0.950 . S
H1884 C1880 0.950 . S
C1885 C1883 1.390 . S
C1885 C1886 1.387 . S
C1885 H1888 0.950 . S
C1886 C1885 1.387 . S
C1886 C1889 1.387 . S
H1887 C1883 0.950 . S
H1888 C1885 0.950 . S
C1889 C1880 1.390 . S
C1889 H1882 0.950 . S
C1889 C1886 1.387 . S
C1890 C1891 1.387 . S
C1890 H1894 0.950 . S
C1890 C1899 1.390 . S
C1891 C1890 1.387 . S
C1891 C1893 1.387 . S
H1892 C1899 0.950 . S
C1893 C1891 1.387 . S
C1893 C1895 1.390 . S
C1893 H1897 0.950 . S
H1894 C1890 0.950 . S
C1895 C1893 1.390 . S
C1895 C1896 1.387 . S
C1895 H1898 0.950 . S
C1896 C1895 1.387 . S
C1896 C1899 1.387 . S
H1897 C1893 0.950 . S
H1898 C1895 0.950 . S
C1899 C1890 1.390 . S
C1899 H1892 0.950 . S
C1899 C1896 1.387 . S
C1900 C1901 1.387 . S
C1900 H1904 0.950 . S
C1900 C1909 1.390 . S
C1901 C1900 1.387 . S
C1901 C1903 1.387 . S
H1902 C1909 0.950 . S
C1903 C1901 1.387 . S
C1903 C1905 1.390 . S
C1903 H1907 0.950 . S
H1904 C1900 0.950 . S
C1905 C1903 1.390 . S
C1905 C1906 1.387 . S
C1905 H1908 0.950 . S
C1906 C1905 1.387 . S
C1906 C1909 1.387 . S
H1907 C1903 0.950 . S
H1908 C1905 0.950 . S
C1909 C1900 1.390 . S
C1909 H1902 0.950 . S
C1909 C1906 1.387 . S
C1910 C1911 1.387 . S
C1910 H1914 0.950 . S
C1910 C1919 1.390 . S
C1911 C1910 1.387 . S
C1911 C1913 1.387 . S
H1912 C1919 0.950 . S
C1913 C1911 1.387 . S
C1913 C1915 1.390 . S
C1913 H1917 0.950 . S
H1914 C1910 0.950 . S
C1915 C1913 1.390 . S
C1915 C1916 1.387 . S
C1915 H1918 0.950 . S
C1916 C1915 1.387 . S
C1916 C1919 1.387 . S
H1917 C1913 0.950 . S
H1918 C1915 0.950 . S
C1919 C1910 1.390 . S
C1919 H1912 0.950 . S
C1919 C1916 1.387 . S
C1920 C1921 1.387 . S
C1920 H1924 0.950 . S
C1920 C1929 1.390 1_556 S
C1921 C1920 1.387 . S
C1921 C1923 1.387 . S
H1922 C1929 0.950 . S
C1923 C1921 1.387 . S
C1923 C1925 1.390 1_556 S
C1923 H1927 0.950 . S
H1924 C1920 0.950 . S
C1925 C1923 1.390 1_554 S
C1925 C1926 1.387 . S
C1925 H1928 0.950 . S
C1926 C1925 1.387 . S
C1926 C1929 1.387 . S
H1927 C1923 0.950 . S
H1928 C1925 0.950 . S
C1929 C1920 1.390 1_554 S
C1929 H1922 0.950 . S
C1929 C1926 1.387 . S
C1930 C1931 1.387 . S
C1930 H1934 0.950 . S
C1930 C1939 1.390 1_556 S
C1931 C1930 1.387 . S
C1931 C1933 1.387 . S
H1932 C1939 0.950 . S
C1933 C1931 1.387 . S
C1933 C1935 1.390 1_556 S
C1933 H1937 0.950 . S
H1934 C1930 0.950 . S
C1935 C1933 1.390 1_554 S
C1935 C1936 1.387 . S
C1935 H1938 0.950 . S
C1936 C1935 1.387 . S
C1936 C1939 1.387 . S
H1937 C1933 0.950 . S
H1938 C1935 0.950 . S
C1939 C1930 1.390 1_554 S
C1939 H1932 0.950 . S
C1939 C1936 1.387 . S
C1940 C1941 1.387 . S
C1940 H1944 0.950 . S
C1940 C1949 1.390 1_556 S
C1941 C1940 1.387 . S
C1941 C1943 1.387 . S
H1942 C1949 0.950 . S
C1943 C1941 1.387 . S
C1943 C1945 1.390 1_556 S
C1943 H1947 0.950 . S
H1944 C1940 0.950 . S
C1945 C1943 1.390 1_554 S
C1945 C1946 1.387 . S
C1945 H1948 0.950 . S
C1946 C1945 1.387 . S
C1946 C1949 1.387 . S
H1947 C1943 0.950 . S
H1948 C1945 0.950 . S
C1949 C1940 1.390 1_554 S
C1949 H1942 0.950 . S
C1949 C1946 1.387 . S
C1950 C1951 1.387 . S
C1950 H1954 0.950 . S
C1950 C1959 1.390 . S
C1951 C1950 1.387 . S
C1951 C1953 1.387 . S
H1952 C1959 0.950 . S
C1953 C1951 1.387 . S
C1953 C1955 1.390 . S
C1953 H1957 0.950 . S
H1954 C1950 0.950 . S
C1955 C1953 1.390 . S
C1955 C1956 1.387 . S
C1955 H1958 0.950 . S
C1956 C1955 1.387 . S
C1956 C1959 1.387 . S
H1957 C1953 0.950 . S
H1958 C1955 0.950 . S
C1959 C1950 1.390 . S
C1959 H1952 0.950 . S
C1959 C1956 1.387 . S
C1960 C1961 1.387 . S
C1960 H1964 0.950 . S
C1960 C1969 1.390 . S
C1961 C1960 1.387 . S
C1961 C1963 1.387 . S
H1962 C1969 0.950 . S
C1963 C1961 1.387 . S
C1963 C1965 1.390 . S
C1963 H1967 0.950 . S
H1964 C1960 0.950 . S
C1965 C1963 1.390 . S
C1965 C1966 1.387 . S
C1965 H1968 0.950 . S
C1966 C1965 1.387 . S
C1966 C1969 1.387 . S
H1967 C1963 0.950 . S
H1968 C1965 0.950 . S
C1969 C1960 1.390 . S
C1969 H1962 0.950 . S
C1969 C1966 1.387 . S
C1970 C1971 1.387 . S
C1970 H1974 0.950 . S
C1970 C1979 1.390 . S
C1971 C1970 1.387 . S
C1971 C1973 1.387 . S
H1972 C1979 0.950 . S
C1973 C1971 1.387 . S
C1973 C1975 1.390 . S
C1973 H1977 0.950 . S
H1974 C1970 0.950 . S
C1975 C1973 1.390 . S
C1975 C1976 1.387 . S
C1975 H1978 0.950 . S
C1976 C1975 1.387 . S
C1976 C1979 1.387 . S
H1977 C1973 0.950 . S
H1978 C1975 0.950 . S
C1979 C1970 1.390 . S
C1979 H1972 0.950 . S
C1979 C1976 1.387 . S
C1980 C1981 1.387 . S
C1980 H1984 0.950 . S
C1980 C1989 1.390 . S
C1981 C1980 1.387 . S
C1981 C1983 1.387 . S
H1982 C1989 0.950 . S
C1983 C1981 1.387 . S
C1983 C1985 1.390 . S
C1983 H1987 0.950 . S
H1984 C1980 0.950 . S
C1985 C1983 1.390 . S
C1985 C1986 1.387 . S
C1985 H1988 0.950 . S
C1986 C1985 1.387 . S
C1986 C1989 1.387 . S
H1987 C1983 0.950 . S
H1988 C1985 0.950 . S
C1989 C1980 1.390 . S
C1989 H1982 0.950 . S
C1989 C1986 1.387 . S
C1990 C1991 1.387 . S
C1990 H1994 0.950 . S
C1990 C1999 1.390 . S
C1991 C1990 1.387 . S
C1991 C1993 1.387 . S
H1992 C1999 0.950 . S
C1993 C1991 1.387 . S
C1993 C1995 1.390 . S
C1993 H1997 0.950 . S
H1994 C1990 0.950 . S
C1995 C1993 1.390 . S
C1995 C1996 1.387 . S
C1995 H1998 0.950 . S
C1996 C1995 1.387 . S
C1996 C1999 1.387 . S
H1997 C1993 0.950 . S
H1998 C1995 0.950 . S
C1999 C1990 1.390 . S
C1999 H1992 0.950 . S
C1999 C1996 1.387 . S
C2000 C2001 1.387 . S
C2000 H2004 0.950 . S
C2000 C2009 1.390 . S
C2001 C2000 1.387 . S
C2001 C2003 1.387 . S
H2002 C2009 0.950 . S
C2003 C2001 1.387 . S
C2003 C2005 1.390 . S
C2003 H2007 0.950 . S
H2004 C2000 0.950 . S
C2005 C2003 1.390 . S
C2005 C2006 1.387 . S
C2005 H2008 0.950 . S
C2006 C2005 1.387 . S
C2006 C2009 1.387 . S
H2007 C2003 0.950 . S
H2008 C2005 0.950 . S
C2009 C2000 1.390 . S
C2009 H2002 0.950 . S
C2009 C2006 1.387 . S
C2010 C2011 1.387 . S
C2010 H2014 0.950 . S
C2010 C2019 1.390 . S
C2011 C2010 1.387 . S
C2011 C2013 1.387 . S
H2012 C2019 0.950 . S
C2013 C2011 1.387 . S
C2013 C2015 1.390 . S
C2013 H2017 0.950 . S
H2014 C2010 0.950 . S
C2015 C2013 1.390 . S
C2015 C2016 1.387 . S
C2015 H2018 0.950 . S
C2016 C2015 1.387 . S
C2016 C2019 1.387 . S
H2017 C2013 0.950 . S
H2018 C2015 0.950 . S
C2019 C2010 1.390 . S
C2019 H2012 0.950 . S
C2019 C2016 1.387 . S
C2020 C2021 1.387 . S
C2020 H2024 0.950 . S
C2020 C2029 1.390 . S
C2021 C2020 1.387 . S
C2021 C2023 1.387 . S
H2022 C2029 0.950 . S
C2023 C2021 1.387 . S
C2023 C2025 1.390 . S
C2023 H2027 0.950 . S
H2024 C2020 0.950 . S
C2025 C2023 1.390 . S
C2025 C2026 1.387 . S
C2025 H2028 0.950 . S
C2026 C2025 1.387 . S
C2026 C2029 1.387 . S
H2027 C2023 0.950 . S
H2028 C2025 0.950 . S
C2029 C2020 1.390 . S
C2029 H2022 0.950 . S
C2029 C2026 1.387 . S
C2030 C2031 1.387 . S
C2030 H2034 0.950 . S
C2030 C2039 1.390 . S
C2031 C2030 1.387 . S
C2031 C2033 1.387 . S
H2032 C2039 0.950 . S
C2033 C2031 1.387 . S
C2033 C2035 1.390 . S
C2033 H2037 0.950 . S
H2034 C2030 0.950 . S
C2035 C2033 1.390 . S
C2035 C2036 1.387 . S
C2035 H2038 0.950 . S
C2036 C2035 1.387 . S
C2036 C2039 1.387 . S
H2037 C2033 0.950 . S
H2038 C2035 0.950 . S
C2039 C2030 1.390 . S
C2039 H2032 0.950 . S
C2039 C2036 1.387 . S
C2040 C2041 1.387 . S
C2040 H2044 0.950 . S
C2040 C2049 1.390 . S
C2041 C2040 1.387 . S
C2041 C2043 1.387 . S
H2042 C2049 0.950 . S
C2043 C2041 1.387 . S
C2043 C2045 1.390 . S
C2043 H2047 0.950 . S
H2044 C2040 0.950 . S
C2045 C2043 1.390 . S
C2045 C2046 1.387 . S
C2045 H2048 0.950 . S
C2046 C2045 1.387 . S
C2046 C2049 1.387 . S
H2047 C2043 0.950 . S
H2048 C2045 0.950 . S
C2049 C2040 1.390 . S
C2049 H2042 0.950 . S
C2049 C2046 1.387 . S
C2050 C2051 1.387 . S
C2050 H2054 0.950 . S
C2050 C2059 1.390 . S
C2051 C2050 1.387 . S
C2051 C2053 1.387 . S
H2052 C2059 0.950 . S
C2053 C2051 1.387 . S
C2053 C2055 1.390 . S
C2053 H2057 0.950 . S
H2054 C2050 0.950 . S
C2055 C2053 1.390 . S
C2055 C2056 1.387 . S
C2055 H2058 0.950 . S
C2056 C2055 1.387 . S
C2056 C2059 1.387 . S
H2057 C2053 0.950 . S
H2058 C2055 0.950 . S
C2059 C2050 1.390 . S
C2059 H2052 0.950 . S
C2059 C2056 1.387 . S
C2060 C2061 1.387 . S
C2060 H2064 0.950 . S
C2060 C2069 1.390 . S
C2061 C2060 1.387 . S
C2061 C2063 1.387 . S
H2062 C2069 0.950 . S
C2063 C2061 1.387 . S
C2063 C2065 1.390 . S
C2063 H2067 0.950 . S
H2064 C2060 0.950 . S
C2065 C2063 1.390 . S
C2065 C2066 1.387 . S
C2065 H2068 0.950 . S
C2066 C2065 1.387 . S
C2066 C2069 1.387 . S
H2067 C2063 0.950 . S
H2068 C2065 0.950 . S
C2069 C2060 1.390 . S
C2069 H2062 0.950 . S
C2069 C2066 1.387 . S
C2070 C2071 1.387 . S
C2070 H2074 0.950 . S
C2070 C2079 1.390 . S
C2071 C2070 1.387 . S
C2071 C2073 1.387 . S
H2072 C2079 0.950 . S
C2073 C2071 1.387 . S
C2073 C2075 1.390 . S
C2073 H2077 0.950 . S
H2074 C2070 0.950 . S
C2075 C2073 1.390 . S
C2075 C2076 1.387 . S
C2075 H2078 0.950 . S
C2076 C2075 1.387 . S
C2076 C2079 1.387 . S
H2077 C2073 0.950 . S
H2078 C2075 0.950 . S
C2079 C2070 1.390 . S
C2079 H2072 0.950 . S
C2079 C2076 1.387 . S
C2080 C2081 1.387 . S
C2080 H2084 0.950 . S
C2080 C2089 1.390 . S
C2081 C2080 1.387 . S
C2081 C2083 1.387 . S
H2082 C2089 0.950 . S
C2083 C2081 1.387 . S
C2083 C2085 1.390 . S
C2083 H2087 0.950 . S
H2084 C2080 0.950 . S
C2085 C2083 1.390 . S
C2085 C2086 1.387 . S
C2085 H2088 0.950 . S
C2086 C2085 1.387 . S
C2086 C2089 1.387 . S
H2087 C2083 0.950 . S
H2088 C2085 0.950 . S
C2089 C2080 1.390 . S
C2089 H2082 0.950 . S
C2089 C2086 1.387 . S
C2090 C2091 1.387 . S
C2090 H2094 0.950 . S
C2090 C2099 1.390 . S
C2091 C2090 1.387 . S
C2091 C2093 1.387 . S
H2092 C2099 0.950 . S
C2093 C2091 1.387 . S
C2093 C2095 1.390 . S
C2093 H2097 0.950 . S
H2094 C2090 0.950 . S
C2095 C2093 1.390 . S
C2095 C2096 1.387 . S
C2095 H2098 0.950 . S
C2096 C2095 1.387 . S
C2096 C2099 1.387 . S
H2097 C2093 0.950 . S
H2098 C2095 0.950 . S
C2099 C2090 1.390 . S
C2099 H2092 0.950 . S
C2099 C2096 1.387 . S
C2100 C2101 1.387 . S
C2100 H2104 0.950 . S
C2100 C2109 1.390 . S
C2101 C2100 1.387 . S
C2101 C2103 1.387 . S
H2102 C2109 0.950 . S
C2103 C2101 1.387 . S
C2103 C2105 1.390 . S
C2103 H2107 0.950 . S
H2104 C2100 0.950 . S
C2105 C2103 1.390 . S
C2105 C2106 1.387 . S
C2105 H2108 0.950 . S
C2106 C2105 1.387 . S
C2106 C2109 1.387 . S
H2107 C2103 0.950 . S
H2108 C2105 0.950 . S
C2109 C2100 1.390 . S
C2109 H2102 0.950 . S
C2109 C2106 1.387 . S
C2110 C2111 1.387 . S
C2110 H2114 0.950 . S
C2110 C2119 1.390 . S
C2111 C2110 1.387 . S
C2111 C2113 1.387 . S
H2112 C2119 0.950 . S
C2113 C2111 1.387 . S
C2113 C2115 1.390 . S
C2113 H2117 0.950 . S
H2114 C2110 0.950 . S
C2115 C2113 1.390 . S
C2115 C2116 1.387 . S
C2115 H2118 0.950 . S
C2116 C2115 1.387 . S
C2116 C2119 1.387 . S
H2117 C2113 0.950 . S
H2118 C2115 0.950 . S
C2119 C2110 1.390 . S
C2119 H2112 0.950 . S
C2119 C2116 1.387 . S
C2120 C2121 1.387 . S
C2120 H2124 0.950 . S
C2120 C2129 1.390 . S
C2121 C2120 1.387 . S
C2121 C2123 1.387 . S
H2122 C2129 0.950 . S
C2123 C2121 1.387 . S
C2123 C2125 1.390 . S
C2123 H2127 0.950 . S
H2124 C2120 0.950 . S
C2125 C2123 1.390 . S
C2125 C2126 1.387 . S
C2125 H2128 0.950 . S
C2126 C2125 1.387 . S
C2126 C2129 1.387 . S
H2127 C2123 0.950 . S
H2128 C2125 0.950 . S
C2129 C2120 1.390 . S
C2129 H2122 0.950 . S
C2129 C2126 1.387 . S
C2130 C2131 1.387 . S
C2130 H2134 0.950 . S
C2130 C2139 1.390 . S
C2131 C2130 1.387 . S
C2131 C2133 1.387 . S
H2132 C2139 0.950 . S
C2133 C2131 1.387 . S
C2133 C2135 1.390 . S
C2133 H2137 0.950 . S
H2134 C2130 0.950 . S
C2135 C2133 1.390 . S
C2135 C2136 1.387 . S
C2135 H2138 0.950 . S
C2136 C2135 1.387 . S
C2136 C2139 1.387 . S
H2137 C2133 0.950 . S
H2138 C2135 0.950 . S
C2139 C2130 1.390 . S
C2139 H2132 0.950 . S
C2139 C2136 1.387 . S
C2140 C2141 1.387 . S
C2140 H2144 0.950 . S
C2140 C2149 1.390 . S
C2141 C2140 1.387 . S
C2141 C2143 1.387 . S
H2142 C2149 0.950 . S
C2143 C2141 1.387 . S
C2143 C2145 1.390 . S
C2143 H2147 0.950 . S
H2144 C2140 0.950 . S
C2145 C2143 1.390 . S
C2145 C2146 1.387 . S
C2145 H2148 0.950 . S
C2146 C2145 1.387 . S
C2146 C2149 1.387 . S
H2147 C2143 0.950 . S
H2148 C2145 0.950 . S
C2149 C2140 1.390 . S
C2149 H2142 0.950 . S
C2149 C2146 1.387 . S
C2150 C2151 1.387 . S
C2150 H2154 0.950 . S
C2150 C2159 1.390 . S
C2151 C2150 1.387 . S
C2151 C2153 1.387 . S
H2152 C2159 0.950 . S
C2153 C2151 1.387 . S
C2153 C2155 1.390 . S
C2153 H2157 0.950 . S
H2154 C2150 0.950 . S
C2155 C2153 1.390 . S
C2155 C2156 1.387 . S
C2155 H2158 0.950 . S
C2156 C2155 1.387 . S
C2156 C2159 1.387 . S
H2157 C2153 0.950 . S
H2158 C2155 0.950 . S
C2159 C2150 1.390 . S
C2159 H2152 0.950 . S
C2159 C2156 1.387 . S
C2160 C2161 1.387 . S
C2160 H2164 0.950 . S
C2160 C2169 1.390 . S
C2161 C2160 1.387 . S
C2161 C2163 1.387 1_455 S
H2162 C2169 0.950 . S
C2163 C2161 1.387 1_655 S
C2163 C2165 1.390 . S
C2163 H2167 0.950 . S
H2164 C2160 0.950 . S
C2165 C2163 1.390 . S
C2165 C2166 1.387 . S
C2165 H2168 0.950 . S
C2166 C2165 1.387 . S
C2166 C2169 1.387 1_655 S
H2167 C2163 0.950 . S
H2168 C2165 0.950 . S
C2169 C2160 1.390 . S
C2169 H2162 0.950 . S
C2169 C2166 1.387 1_455 S
C2170 C2171 1.387 . S
C2170 H2174 0.950 . S
C2170 C2179 1.390 . S
C2171 C2170 1.387 . S
C2171 C2173 1.387 . S
H2172 C2179 0.950 . S
C2173 C2171 1.387 . S
C2173 C2175 1.390 . S
C2173 H2177 0.950 . S
H2174 C2170 0.950 . S
C2175 C2173 1.390 . S
C2175 C2176 1.387 . S
C2175 H2178 0.950 . S
C2176 C2175 1.387 . S
C2176 C2179 1.387 . S
H2177 C2173 0.950 . S
H2178 C2175 0.950 . S
C2179 C2170 1.390 . S
C2179 H2172 0.950 . S
C2179 C2176 1.387 . S
C2180 C2181 1.387 . S
C2180 H2184 0.950 . S
C2180 C2189 1.390 1_565 S
C2181 C2180 1.387 . S
C2181 C2183 1.387 . S
H2182 C2189 0.950 . S
C2183 C2181 1.387 . S
C2183 C2185 1.390 1_565 S
C2183 H2187 0.950 . S
H2184 C2180 0.950 . S
C2185 C2183 1.390 1_545 S
C2185 C2186 1.387 . S
C2185 H2188 0.950 . S
C2186 C2185 1.387 . S
C2186 C2189 1.387 . S
H2187 C2183 0.950 . S
H2188 C2185 0.950 . S
C2189 C2180 1.390 1_545 S
C2189 H2182 0.950 . S
C2189 C2186 1.387 . S
C2190 C2191 1.387 1_455 S
C2190 H2194 0.950 . S
C2190 C2199 1.390 . S
C2191 C2190 1.387 1_655 S
C2191 C2193 1.387 . S
H2192 C2199 0.950 . S
C2193 C2191 1.387 . S
C2193 C2195 1.390 . S
C2193 H2197 0.950 . S
H2194 C2190 0.950 . S
C2195 C2193 1.390 . S
C2195 C2196 1.387 1_655 S
C2195 H2198 0.950 . S
C2196 C2195 1.387 1_455 S
C2196 C2199 1.387 . S
H2197 C2193 0.950 . S
H2198 C2195 0.950 . S
C2199 C2190 1.390 . S
C2199 H2192 0.950 . S
C2199 C2196 1.387 . S
C2200 C2201 1.387 . S
C2200 H2204 0.950 . S
C2200 C2209 1.390 . S
C2201 C2200 1.387 . S
C2201 C2203 1.387 . S
H2202 C2209 0.950 . S
C2203 C2201 1.387 . S
C2203 C2205 1.390 . S
C2203 H2207 0.950 . S
H2204 C2200 0.950 . S
C2205 C2203 1.390 . S
C2205 C2206 1.387 . S
C2205 H2208 0.950 . S
C2206 C2205 1.387 . S
C2206 C2209 1.387 . S
H2207 C2203 0.950 . S
H2208 C2205 0.950 . S
C2209 C2200 1.390 . S
C2209 H2202 0.950 . S
C2209 C2206 1.387 . S
C2210 C2211 1.387 . S
C2210 H2214 0.950 . S
C2210 C2219 1.390 1_545 S
C2211 C2210 1.387 . S
C2211 C2213 1.387 . S
H2212 C2219 0.950 . S
C2213 C2211 1.387 . S
C2213 C2215 1.390 1_545 S
C2213 H2217 0.950 . S
H2214 C2210 0.950 . S
C2215 C2213 1.390 1_565 S
C2215 C2216 1.387 . S
C2215 H2218 0.950 . S
C2216 C2215 1.387 . S
C2216 C2219 1.387 . S
H2217 C2213 0.950 . S
H2218 C2215 0.950 . S
C2219 C2210 1.390 1_565 S
C2219 H2212 0.950 . S
C2219 C2216 1.387 . S
C2220 C2221 1.387 . S
C2220 H2224 0.950 . S
C2220 C2229 1.390 . S
C2221 C2220 1.387 . S
C2221 C2223 1.387 . S
H2222 C2229 0.950 . S
C2223 C2221 1.387 . S
C2223 C2225 1.390 . S
C2223 H2227 0.950 . S
H2224 C2220 0.950 . S
C2225 C2223 1.390 . S
C2225 C2226 1.387 . S
C2225 H2228 0.950 . S
C2226 C2225 1.387 . S
C2226 C2229 1.387 . S
H2227 C2223 0.950 . S
H2228 C2225 0.950 . S
C2229 C2220 1.390 . S
C2229 H2222 0.950 . S
C2229 C2226 1.387 . S
C2230 C2231 1.387 . S
C2230 H2234 0.950 . S
C2230 C2239 1.390 . S
C2231 C2230 1.387 . S
C2231 C2233 1.387 . S
H2232 C2239 0.950 . S
C2233 C2231 1.387 . S
C2233 C2235 1.390 . S
C2233 H2237 0.950 . S
H2234 C2230 0.950 . S
C2235 C2233 1.390 . S
C2235 C2236 1.387 . S
C2235 H2238 0.950 . S
C2236 C2235 1.387 . S
C2236 C2239 1.387 . S
H2237 C2233 0.950 . S
H2238 C2235 0.950 . S
C2239 C2230 1.390 . S
C2239 H2232 0.950 . S
C2239 C2236 1.387 . S
C2240 C2241 1.387 . S
C2240 H2244 0.950 . S
C2240 C2249 1.390 . S
C2241 C2240 1.387 . S
C2241 C2243 1.387 . S
H2242 C2249 0.950 . S
C2243 C2241 1.387 . S
C2243 C2245 1.390 . S
C2243 H2247 0.950 . S
H2244 C2240 0.950 . S
C2245 C2243 1.390 . S
C2245 C2246 1.387 . S
C2245 H2248 0.950 . S
C2246 C2245 1.387 . S
C2246 C2249 1.387 . S
H2247 C2243 0.950 . S
H2248 C2245 0.950 . S
C2249 C2240 1.390 . S
C2249 H2242 0.950 . S
C2249 C2246 1.387 . S
C2250 C2251 1.387 . S
C2250 H2254 0.950 . S
C2250 C2259 1.390 . S
C2251 C2250 1.387 . S
C2251 C2253 1.387 . S
H2252 C2259 0.950 . S
C2253 C2251 1.387 . S
C2253 C2255 1.390 . S
C2253 H2257 0.950 . S
H2254 C2250 0.950 . S
C2255 C2253 1.390 . S
C2255 C2256 1.387 . S
C2255 H2258 0.950 . S
C2256 C2255 1.387 . S
C2256 C2259 1.387 . S
H2257 C2253 0.950 . S
H2258 C2255 0.950 . S
C2259 C2250 1.390 . S
C2259 H2252 0.950 . S
C2259 C2256 1.387 . S
C2260 C2261 1.387 . S
C2260 H2264 0.950 . S
C2260 C2269 1.390 . S
C2261 C2260 1.387 . S
C2261 C2263 1.387 . S
H2262 C2269 0.950 . S
C2263 C2261 1.387 . S
C2263 C2265 1.390 . S
C2263 H2267 0.950 . S
H2264 C2260 0.950 . S
C2265 C2263 1.390 . S
C2265 C2266 1.387 . S
C2265 H2268 0.950 . S
C2266 C2265 1.387 . S
C2266 C2269 1.387 . S
H2267 C2263 0.950 . S
H2268 C2265 0.950 . S
C2269 C2260 1.390 . S
C2269 H2262 0.950 . S
C2269 C2266 1.387 . S
C2270 C2271 1.387 . S
C2270 H2274 0.950 . S
C2270 C2279 1.390 . S
C2271 C2270 1.387 . S
C2271 C2273 1.387 . S
H2272 C2279 0.950 . S
C2273 C2271 1.387 . S
C2273 C2275 1.390 . S
C2273 H2277 0.950 . S
H2274 C2270 0.950 . S
C2275 C2273 1.390 . S
C2275 C2276 1.387 . S
C2275 H2278 0.950 . S
C2276 C2275 1.387 . S
C2276 C2279 1.387 . S
H2277 C2273 0.950 . S
H2278 C2275 0.950 . S
C2279 C2270 1.390 . S
C2279 H2272 0.950 . S
C2279 C2276 1.387 . S
C2280 C2281 1.387 . S
C2280 H2284 0.950 . S
C2280 C2289 1.390 1_554 S
C2281 C2280 1.387 . S
C2281 C2283 1.387 . S
H2282 C2289 0.950 . S
C2283 C2281 1.387 . S
C2283 C2285 1.390 1_554 S
C2283 H2287 0.950 . S
H2284 C2280 0.950 . S
C2285 C2283 1.390 1_556 S
C2285 C2286 1.387 . S
C2285 H2288 0.950 . S
C2286 C2285 1.387 . S
C2286 C2289 1.387 . S
H2287 C2283 0.950 . S
H2288 C2285 0.950 . S
C2289 C2280 1.390 1_556 S
C2289 H2282 0.950 . S
C2289 C2286 1.387 . S
C2290 C2291 1.387 . S
C2290 H2294 0.950 . S
C2290 C2299 1.390 1_556 S
C2291 C2290 1.387 . S
C2291 C2293 1.387 . S
H2292 C2299 0.950 . S
C2293 C2291 1.387 . S
C2293 C2295 1.390 1_556 S
C2293 H2297 0.950 . S
H2294 C2290 0.950 . S
C2295 C2293 1.390 1_554 S
C2295 C2296 1.387 . S
C2295 H2298 0.950 . S
C2296 C2295 1.387 . S
C2296 C2299 1.387 . S
H2297 C2293 0.950 . S
H2298 C2295 0.950 . S
C2299 C2290 1.390 1_554 S
C2299 H2292 0.950 . S
C2299 C2296 1.387 . S
C2300 C2301 1.387 . S
C2300 H2304 0.950 . S
C2300 C2309 1.390 1_556 S
C2301 C2300 1.387 . S
C2301 C2303 1.387 . S
H2302 C2309 0.950 . S
C2303 C2301 1.387 . S
C2303 C2305 1.390 1_556 S
C2303 H2307 0.950 . S
H2304 C2300 0.950 . S
C2305 C2303 1.390 1_554 S
C2305 C2306 1.387 . S
C2305 H2308 0.950 . S
C2306 C2305 1.387 . S
C2306 C2309 1.387 . S
H2307 C2303 0.950 . S
H2308 C2305 0.950 . S
C2309 C2300 1.390 1_554 S
C2309 H2302 0.950 . S
C2309 C2306 1.387 . S
C2310 C2311 1.387 . S
C2310 H2314 0.950 . S
C2310 C2319 1.390 . S
C2311 C2310 1.387 . S
C2311 C2313 1.387 . S
H2312 C2319 0.950 . S
C2313 C2311 1.387 . S
C2313 C2315 1.390 . S
C2313 H2317 0.950 . S
H2314 C2310 0.950 . S
C2315 C2313 1.390 . S
C2315 C2316 1.387 . S
C2315 H2318 0.950 . S
C2316 C2315 1.387 . S
C2316 C2319 1.387 . S
H2317 C2313 0.950 . S
H2318 C2315 0.950 . S
C2319 C2310 1.390 . S
C2319 H2312 0.950 . S
C2319 C2316 1.387 . S
C2320 C2321 1.387 . S
C2320 H2324 0.950 . S
C2320 C2329 1.390 . S
C2321 C2320 1.387 . S
C2321 C2323 1.387 . S
H2322 C2329 0.950 . S
C2323 C2321 1.387 . S
C2323 C2325 1.390 . S
C2323 H2327 0.950 . S
H2324 C2320 0.950 . S
C2325 C2323 1.390 . S
C2325 C2326 1.387 . S
C2325 H2328 0.950 . S
C2326 C2325 1.387 . S
C2326 C2329 1.387 . S
H2327 C2323 0.950 . S
H2328 C2325 0.950 . S
C2329 C2320 1.390 . S
C2329 H2322 0.950 . S
C2329 C2326 1.387 . S
C2330 C2331 1.387 . S
C2330 H2334 0.950 . S
C2330 C2339 1.390 . S
C2331 C2330 1.387 . S
C2331 C2333 1.387 . S
H2332 C2339 0.950 . S
C2333 C2331 1.387 . S
C2333 C2335 1.390 . S
C2333 H2337 0.950 . S
H2334 C2330 0.950 . S
C2335 C2333 1.390 . S
C2335 C2336 1.387 . S
C2335 H2338 0.950 . S
C2336 C2335 1.387 . S
C2336 C2339 1.387 . S
H2337 C2333 0.950 . S
H2338 C2335 0.950 . S
C2339 C2330 1.390 . S
C2339 H2332 0.950 . S
C2339 C2336 1.387 . S
C2340 C2341 1.387 . S
C2340 H2344 0.950 . S
C2340 C2349 1.390 . S
C2341 C2340 1.387 . S
C2341 C2343 1.387 1_455 S
H2342 C2349 0.950 . S
C2343 C2341 1.387 1_655 S
C2343 C2345 1.390 . S
C2343 H2347 0.950 . S
H2344 C2340 0.950 . S
C2345 C2343 1.390 . S
C2345 C2346 1.387 . S
C2345 H2348 0.950 . S
C2346 C2345 1.387 . S
C2346 C2349 1.387 1_655 S
H2347 C2343 0.950 . S
H2348 C2345 0.950 . S
C2349 C2340 1.390 . S
C2349 H2342 0.950 . S
C2349 C2346 1.387 1_455 S
C2350 C2351 1.387 . S
C2350 H2354 0.950 . S
C2350 C2359 1.390 . S
C2351 C2350 1.387 . S
C2351 C2353 1.387 . S
H2352 C2359 0.950 . S
C2353 C2351 1.387 . S
C2353 C2355 1.390 . S
C2353 H2357 0.950 . S
H2354 C2350 0.950 . S
C2355 C2353 1.390 . S
C2355 C2356 1.387 . S
C2355 H2358 0.950 . S
C2356 C2355 1.387 . S
C2356 C2359 1.387 . S
H2357 C2353 0.950 . S
H2358 C2355 0.950 . S
C2359 C2350 1.390 . S
C2359 H2352 0.950 . S
C2359 C2356 1.387 . S
C2360 C2361 1.387 1_565 S
C2360 H2364 0.950 . S
C2360 C2369 1.390 . S
C2361 C2360 1.387 1_545 S
C2361 C2363 1.387 . S
H2362 C2369 0.950 . S
C2363 C2361 1.387 . S
C2363 C2365 1.390 . S
C2363 H2367 0.950 . S
H2364 C2360 0.950 . S
C2365 C2363 1.390 . S
C2365 C2366 1.387 1_545 S
C2365 H2368 0.950 . S
C2366 C2365 1.387 1_565 S
C2366 C2369 1.387 . S
H2367 C2363 0.950 . S
H2368 C2365 0.950 . S
C2369 C2360 1.390 . S
C2369 H2362 0.950 . S
C2369 C2366 1.387 . S
C2370 C2371 1.387 . S
C2370 H2374 0.950 . S
C2370 C2379 1.390 . S
C2371 C2370 1.387 . S
C2371 C2373 1.387 1_565 S
H2372 C2379 0.950 . S
C2373 C2371 1.387 1_545 S
C2373 C2375 1.390 . S
C2373 H2377 0.950 . S
H2374 C2370 0.950 . S
C2375 C2373 1.390 . S
C2375 C2376 1.387 . S
C2375 H2378 0.950 . S
C2376 C2375 1.387 . S
C2376 C2379 1.387 1_545 S
H2377 C2373 0.950 . S
H2378 C2375 0.950 . S
C2379 C2370 1.390 . S
C2379 H2372 0.950 . S
C2379 C2376 1.387 1_565 S
C2380 C2381 1.387 . S
C2380 H2384 0.950 . S
C2380 C2389 1.386 1_655 S
C2381 C2380 1.387 . S
C2381 C2383 1.387 . S
H2382 C2389 0.946 . S
C2383 C2381 1.387 . S
C2383 C2385 1.386 1_655 S
C2383 H2387 0.946 . S
H2384 C2380 0.950 . S
C2385 C2383 1.386 1_455 S
C2385 C2386 1.387 . S
C2385 H2388 0.950 . S
C2386 C2385 1.387 . S
C2386 C2389 1.387 . S
H2387 C2383 0.946 . S
H2388 C2385 0.950 . S
C2389 C2380 1.386 1_455 S
C2389 H2382 0.946 . S
C2389 C2386 1.387 . S
C2390 C2391 1.387 . S
C2390 H2394 0.950 . S
C2390 C2399 1.390 . S
C2391 C2390 1.387 . S
C2391 C2393 1.387 . S
H2392 C2399 0.950 . S
C2393 C2391 1.387 . S
C2393 C2395 1.390 . S
C2393 H2397 0.950 . S
H2394 C2390 0.950 . S
C2395 C2393 1.390 . S
C2395 C2396 1.387 . S
C2395 H2398 0.950 . S
C2396 C2395 1.387 . S
C2396 C2399 1.387 . S
H2397 C2393 0.950 . S
H2398 C2395 0.950 . S
C2399 C2390 1.390 . S
C2399 H2392 0.950 . S
C2399 C2396 1.387 . S
C2400 C2401 1.387 . S
C2400 H2404 0.950 . S
C2400 C2409 1.390 . S
C2401 C2400 1.387 . S
C2401 C2403 1.387 . S
H2402 C2409 0.950 . S
C2403 C2401 1.387 . S
C2403 C2405 1.390 . S
C2403 H2407 0.950 . S
H2404 C2400 0.950 . S
C2405 C2403 1.390 . S
C2405 C2406 1.387 . S
C2405 H2408 0.950 . S
C2406 C2405 1.387 . S
C2406 C2409 1.387 . S
H2407 C2403 0.950 . S
H2408 C2405 0.950 . S
C2409 C2400 1.390 . S
C2409 H2402 0.950 . S
C2409 C2406 1.387 . S
C2410 C2411 1.387 . S
C2410 H2414 0.950 . S
C2410 C2419 1.390 . S
C2411 C2410 1.387 . S
C2411 C2413 1.387 . S
H2412 C2419 0.950 . S
C2413 C2411 1.387 . S
C2413 C2415 1.390 . S
C2413 H2417 0.950 . S
H2414 C2410 0.950 . S
C2415 C2413 1.390 . S
C2415 C2416 1.387 . S
C2415 H2418 0.950 . S
C2416 C2415 1.387 . S
C2416 C2419 1.387 . S
H2417 C2413 0.950 . S
H2418 C2415 0.950 . S
C2419 C2410 1.390 . S
C2419 H2412 0.950 . S
C2419 C2416 1.387 . S
C2420 C2421 1.387 . S
C2420 H2424 0.950 . S
C2420 C2429 1.390 . S
C2421 C2420 1.387 . S
C2421 C2423 1.387 . S
H2422 C2429 0.950 . S
C2423 C2421 1.387 . S
C2423 C2425 1.390 . S
C2423 H2427 0.950 . S
H2424 C2420 0.950 . S
C2425 C2423 1.390 . S
C2425 C2426 1.387 . S
C2425 H2428 0.950 . S
C2426 C2425 1.387 . S
C2426 C2429 1.387 . S
H2427 C2423 0.950 . S
H2428 C2425 0.950 . S
C2429 C2420 1.390 . S
C2429 H2422 0.950 . S
C2429 C2426 1.387 . S
C2430 C2431 1.387 . S
C2430 H2434 0.950 . S
C2430 C2439 1.390 . S
C2431 C2430 1.387 . S
C2431 C2433 1.387 . S
H2432 C2439 0.950 . S
C2433 C2431 1.387 . S
C2433 C2435 1.390 . S
C2433 H2437 0.950 . S
H2434 C2430 0.950 . S
C2435 C2433 1.390 . S
C2435 C2436 1.387 . S
C2435 H2438 0.950 . S
C2436 C2435 1.387 . S
C2436 C2439 1.387 . S
H2437 C2433 0.950 . S
H2438 C2435 0.950 . S
C2439 C2430 1.390 . S
C2439 H2432 0.950 . S
C2439 C2436 1.387 . S
C2440 C2441 1.387 . S
C2440 H2444 0.950 . S
C2440 C2449 1.390 . S
C2441 C2440 1.387 . S
C2441 C2443 1.387 . S
H2442 C2449 0.950 . S
C2443 C2441 1.387 . S
C2443 C2445 1.390 . S
C2443 H2447 0.950 . S
H2444 C2440 0.950 . S
C2445 C2443 1.390 . S
C2445 C2446 1.387 . S
C2445 H2448 0.950 . S
C2446 C2445 1.387 . S
C2446 C2449 1.387 . S
H2447 C2443 0.950 . S
H2448 C2445 0.950 . S
C2449 C2440 1.390 . S
C2449 H2442 0.950 . S
C2449 C2446 1.387 . S
C2450 C2451 1.387 . S
C2450 H2454 0.950 . S
C2450 C2459 1.390 . S
C2451 C2450 1.387 . S
C2451 C2453 1.387 . S
H2452 C2459 0.950 . S
C2453 C2451 1.387 . S
C2453 C2455 1.390 . S
C2453 H2457 0.950 . S
H2454 C2450 0.950 . S
C2455 C2453 1.390 . S
C2455 C2456 1.387 . S
C2455 H2458 0.950 . S
C2456 C2455 1.387 . S
C2456 C2459 1.387 . S
H2457 C2453 0.950 . S
H2458 C2455 0.950 . S
C2459 C2450 1.390 . S
C2459 H2452 0.950 . S
C2459 C2456 1.387 . S
C2460 C2461 1.387 . S
C2460 H2464 0.950 . S
C2460 C2469 1.390 . S
C2461 C2460 1.387 . S
C2461 C2463 1.387 . S
H2462 C2469 0.950 . S
C2463 C2461 1.387 . S
C2463 C2465 1.390 . S
C2463 H2467 0.950 . S
H2464 C2460 0.950 . S
C2465 C2463 1.390 . S
C2465 C2466 1.387 . S
C2465 H2468 0.950 . S
C2466 C2465 1.387 . S
C2466 C2469 1.387 . S
H2467 C2463 0.950 . S
H2468 C2465 0.950 . S
C2469 C2460 1.390 . S
C2469 H2462 0.950 . S
C2469 C2466 1.387 . S
C2470 C2471 1.387 . S
C2470 H2474 0.950 . S
C2470 C2479 1.390 . S
C2471 C2470 1.387 . S
C2471 C2473 1.387 . S
H2472 C2479 0.950 . S
C2473 C2471 1.387 . S
C2473 C2475 1.390 . S
C2473 H2477 0.950 . S
H2474 C2470 0.950 . S
C2475 C2473 1.390 . S
C2475 C2476 1.387 . S
C2475 H2478 0.950 . S
C2476 C2475 1.387 . S
C2476 C2479 1.387 . S
H2477 C2473 0.950 . S
H2478 C2475 0.950 . S
C2479 C2470 1.390 . S
C2479 H2472 0.950 . S
C2479 C2476 1.387 . S
C2480 C2481 1.387 . S
C2480 H2484 0.950 . S
C2480 C2489 1.390 . S
C2481 C2480 1.387 . S
C2481 C2483 1.387 . S
H2482 C2489 0.950 . S
C2483 C2481 1.387 . S
C2483 C2485 1.390 . S
C2483 H2487 0.950 . S
H2484 C2480 0.950 . S
C2485 C2483 1.390 . S
C2485 C2486 1.387 . S
C2485 H2488 0.950 . S
C2486 C2485 1.387 . S
C2486 C2489 1.387 . S
H2487 C2483 0.950 . S
H2488 C2485 0.950 . S
C2489 C2480 1.390 . S
C2489 H2482 0.950 . S
C2489 C2486 1.387 . S
C2490 C2491 1.387 . S
C2490 H2494 0.950 . S
C2490 C2499 1.390 . S
C2491 C2490 1.387 . S
C2491 C2493 1.387 . S
H2492 C2499 0.950 . S
C2493 C2491 1.387 . S
C2493 C2495 1.390 . S
C2493 H2497 0.950 . S
H2494 C2490 0.950 . S
C2495 C2493 1.390 . S
C2495 C2496 1.387 . S
C2495 H2498 0.950 . S
C2496 C2495 1.387 . S
C2496 C2499 1.387 . S
H2497 C2493 0.950 . S
H2498 C2495 0.950 . S
C2499 C2490 1.390 . S
C2499 H2492 0.950 . S
C2499 C2496 1.387 . S
C2500 C2501 1.387 . S
C2500 H2504 0.950 . S
C2500 C2509 1.390 . S
C2501 C2500 1.387 . S
C2501 C2503 1.387 . S
H2502 C2509 0.950 . S
C2503 C2501 1.387 . S
C2503 C2505 1.390 . S
C2503 H2507 0.950 . S
H2504 C2500 0.950 . S
C2505 C2503 1.390 . S
C2505 C2506 1.387 . S
C2505 H2508 0.950 . S
C2506 C2505 1.387 . S
C2506 C2509 1.387 . S
H2507 C2503 0.950 . S
H2508 C2505 0.950 . S
C2509 C2500 1.390 . S
C2509 H2502 0.950 . S
C2509 C2506 1.387 . S
C2510 C2511 1.387 . S
C2510 H2514 0.950 . S
C2510 C2519 1.390 . S
C2511 C2510 1.387 . S
C2511 C2513 1.387 . S
H2512 C2519 0.950 . S
C2513 C2511 1.387 . S
C2513 C2515 1.390 . S
C2513 H2517 0.950 . S
H2514 C2510 0.950 . S
C2515 C2513 1.390 . S
C2515 C2516 1.387 . S
C2515 H2518 0.950 . S
C2516 C2515 1.387 . S
C2516 C2519 1.387 . S
H2517 C2513 0.950 . S
H2518 C2515 0.950 . S
C2519 C2510 1.390 . S
C2519 H2512 0.950 . S
C2519 C2516 1.387 . S
C1441 C609 1.121 1_554 S
C1446 C9 1.125 . S
C1451 C649 1.117 1_554 S
C1456 C49 1.117 . S
C1461 C89 1.119 . S
C1466 C689 1.122 1_554 S
C1471 C129 1.120 . S
C1476 C969 1.123 . S
C1481 C169 1.122 . S
C1486 C1009 1.122 . S
C1491 C209 1.117 . S
C1496 C1049 1.120 . S
C1501 C1338 1.125 . S
C1506 C258 1.121 . S
C1511 C1378 1.117 . S
C1516 C298 1.117 . S
C1521 C338 1.120 . S
C1526 C1418 1.123 . S
C1531 C738 1.126 . S
C1536 C378 1.122 . S
C1541 C418 1.116 . S
C1546 C778 1.117 . S
C1551 C458 1.122 . S
C1556 C818 1.118 . S
C1561 C1089 1.125 . S
C1566 C489 1.121 . S
C1571 C529 1.123 . S
C1576 C1129 1.122 . S
C1581 C1169 1.123 . S
C1586 C569 1.119 . S
C1591 C1218 1.126 . S
C1596 C858 1.122 . S
C1601 C1258 1.123 . S
C1606 C898 1.122 . S
C1611 C938 1.123 . S
C1616 C1298 1.118 . S
C1621 C19 2.190 . S
C1626 C179 2.191 . S
C1631 C59 2.192 . S
C1636 C219 2.192 . S
C1641 C99 2.192 . S
C1646 C139 2.192 . S
C1651 C250 2.192 . S
C1656 C410 2.191 . S
C1661 C290 2.191 . S
C1666 C450 2.190 . S
C1671 C330 2.191 . S
C1676 C370 2.190 . S
C1681 C499 2.192 . S
C1686 C659 2.192 . S
C1691 C699 2.190 . S
C1696 C539 2.191 . S
C1701 C579 2.192 . S
C1706 C619 2.192 . S
C1711 C730 2.192 . S
C1716 C890 2.192 . S
C1721 C770 2.192 . S
C1726 C930 2.192 . S
C1731 C850 2.190 . S
C1736 C810 2.191 . S
C1741 C979 2.192 . S
C1746 C1139 2.192 . S
C1751 C1179 2.192 . S
C1756 C1019 2.191 . S
C1761 C1059 2.192 . S
C1766 C1099 2.192 . S
C1771 C1210 2.190 . S
C1776 C1370 2.192 . S
C1781 C1250 2.191 . S
C1786 C1410 2.190 . S
C1791 C1290 2.191 . S
C1796 C1330 2.191 . S
C1801 C419 1.624 . S
C1806 C15 1.576 . S
C1811 C55 1.574 . S
C1816 C459 1.623 . S
C1821 C95 1.574 . S
C1826 C379 1.624 . S
C1831 C135 1.575 . S
C1836 C339 1.624 . S
C1841 C175 1.573 . S
C1846 C259 1.624 . S
C1851 C299 1.623 . S
C1856 C215 1.574 . S
C1861 C246 1.576 . S
C1866 C170 1.624 . S
C1871 C210 1.624 . S
C1876 C286 1.575 . S
C1881 C326 1.574 . S
C1886 C130 1.624 . S
C1891 C366 1.574 . S
C1896 C90 1.624 . S
C1901 C10 1.624 . S
C1906 C406 1.573 . S
C1911 C50 1.623 . S
C1916 C446 1.575 . S
C1921 C899 1.624 . S
C1926 C495 1.573 . S
C1931 C939 1.623 . S
C1936 C535 1.573 . S
C1941 C859 1.624 . S
C1946 C575 1.574 . S
C1951 C819 1.624 . S
C1956 C615 1.574 . S
C1961 C655 1.574 . S
C1966 C739 1.624 . S
C1971 C779 1.624 . S
C1976 C695 1.575 . S
C1981 C650 1.624 . S
C1986 C726 1.573 . S
C1991 C766 1.575 . S
C1996 C690 1.624 . S
C2001 C806 1.574 . S
C2006 C610 1.624 . S
C2011 C570 1.624 . S
C2016 C846 1.573 . S
C2021 C886 1.575 . S
C2026 C490 1.624 . S
C2031 C926 1.575 . S
C2036 C530 1.623 . S
C2041 C975 1.573 . S
C2046 C1379 1.624 . S
C2051 C1015 1.575 . S
C2056 C1419 1.624 . S
C2061 C1339 1.624 . S
C2066 C1055 1.574 . S
C2071 C1299 1.624 . S
C2076 C1095 1.574 . S
C2081 C1135 1.576 . S
C2086 C1219 1.624 . S
C2091 C1259 1.624 . S
C2096 C1175 1.575 . S
C2101 C1206 1.576 . S
C2106 C1130 1.624 . S
C2111 C1170 1.624 . S
C2116 C1246 1.575 . S
C2121 C1286 1.576 . S
C2126 C1090 1.624 . S
C2131 C1326 1.573 . S
C2136 C1050 1.624 . S
C2141 C970 1.624 . S
C2146 C1366 1.574 . S
C2151 C1010 1.624 . S
C2156 C1406 1.575 . S
C2161 C6 1.056 . S
C2166 C166 1.055 . S
C2171 C206 1.056 . S
C2176 C46 1.055 . S
C2181 C86 1.055 . S
C2186 C126 1.055 . S
C2191 C255 1.056 . S
C2196 C415 1.055 . S
C2201 C455 1.055 . S
C2206 C295 1.056 . S
C2211 C335 1.055 . S
C2216 C375 1.055 . S
C2221 C646 1.055 . S
C2226 C486 1.056 . S
C2231 C686 1.055 . S
C2236 C526 1.056 . S
C2241 C606 1.055 . S
C2246 C566 1.055 . S
C2251 C895 1.056 . S
C2256 C735 1.055 . S
C2261 C775 1.056 . S
C2266 C935 1.055 . S
C2271 C855 1.055 . S
C2276 C815 1.055 . S
C2281 C1126 1.056 . S
C2286 C966 1.055 . S
C2291 C1006 1.055 . S
C2296 C1166 1.056 . S
C2301 C1046 1.055 . S
C2306 C1086 1.055 . S
C2311 C1375 1.056 . S
C2316 C1215 1.055 . S
C2321 C1255 1.056 . S
C2326 C1415 1.056 . S
C2331 C1295 1.055 . S
C2336 C1335 1.055 . S
C2341 C18 1.295 . S
C2346 C249 1.295 . S
C2351 C58 1.297 . S
C2356 C289 1.297 . S
C2361 C329 1.298 . S
C2366 C98 1.298 . S
C2371 C369 1.298 . S
C2376 C138 1.298 . S
C2381 C178 1.299 . S
C2386 C409 1.299 . S
C2391 C218 1.295 . S
C2396 C449 1.295 . S
C2401 C729 1.296 . S
C2406 C498 1.296 . S
C2411 C538 1.297 . S
C2416 C769 1.297 . S
C2421 C809 1.298 . S
C2426 C578 1.298 . S
C2431 C849 1.297 . S
C2436 C618 1.297 . S
C2441 C889 1.300 . S
C2446 C658 1.300 . S
C2451 C929 1.299 . S
C2456 C698 1.299 . S
C2461 C1209 1.300 . S
C2466 C978 1.300 . S
C2471 C1018 1.297 . S
C2476 C1249 1.297 . S
C2481 C1289 1.298 . S
C2486 C1058 1.298 . S
C2491 C1329 1.296 . S
C2496 C1098 1.296 . S
C2501 C1369 1.296 . S
C2506 C1138 1.296 . S
C2511 C1178 1.299 . S
C2516 C1409 1.299 . S
