# Generated by pormake.
# Topology oof, (8)-cn, num edge types: 1
# Building blocks:
#     Node 0, Type 0, BuildingBlock: AJUNOK_clean_sbu_0, # of connection points: 8
#     Node 1, Type 0, BuildingBlock: AJUNOK_clean_sbu_0, # of connection points: 8
#     Node 2, Type 0, BuildingBlock: AJUNOK_clean_sbu_0, # of connection points: 8
#     Node 3, Type 0, BuildingBlock: AJUNOK_clean_sbu_0, # of connection points: 8
#     Edge 4, Type (0, 0), BuildingBlock: TEMPAE_clean_linker_10, # of connection points: 2
#     Edge 5, Type (0, 0), BuildingBlock: TEMPAE_clean_linker_10, # of connection points: 2
#     Edge 6, Type (0, 0), BuildingBlock: TEMPAE_clean_linker_10, # of connection points: 2
#     Edge 7, Type (0, 0), BuildingBlock: TEMPAE_clean_linker_10, # of connection points: 2
#     Edge 8, Type (0, 0), BuildingBlock: TEMPAE_clean_linker_10, # of connection points: 2
#     Edge 9, Type (0, 0), BuildingBlock: TEMPAE_clean_linker_10, # of connection points: 2
#     Edge 10, Type (0, 0), BuildingBlock: TEMPAE_clean_linker_10, # of connection points: 2
#     Edge 11, Type (0, 0), BuildingBlock: TEMPAE_clean_linker_10, # of connection points: 2
#     Edge 12, Type (0, 0), BuildingBlock: TEMPAE_clean_linker_10, # of connection points: 2
#     Edge 13, Type (0, 0), BuildingBlock: TEMPAE_clean_linker_10, # of connection points: 2
#     Edge 14, Type (0, 0), BuildingBlock: TEMPAE_clean_linker_10, # of connection points: 2
#     Edge 15, Type (0, 0), BuildingBlock: TEMPAE_clean_linker_10, # of connection points: 2
#     Edge 16, Type (0, 0), BuildingBlock: TEMPAE_clean_linker_10, # of connection points: 2
#     Edge 17, Type (0, 0), BuildingBlock: TEMPAE_clean_linker_10, # of connection points: 2
#     Edge 18, Type (0, 0), BuildingBlock: TEMPAE_clean_linker_10, # of connection points: 2
#     Edge 19, Type (0, 0), BuildingBlock: TEMPAE_clean_linker_10, # of connection points: 2
# Relax obj value: 0.066
# Max RMSD: 0.160
# Mean RMSD: 0.159
data_MOF--net-oof--node1-AJUNOK_clean_sbu_0--edge1-TEMPAE_clean_linker_10
_symmetry_space_group_name_H-M    P1
_symmetry_Int_Tables_number       1
_symmetry_cell_setting            triclinic
loop_
_symmetry_equiv_pos_as_xyz
'x, y, z'
_cell_length_a     13.869973
_cell_length_b     64.530735
_cell_length_c     21.25688
_cell_angle_alpha  103.86774
_cell_angle_beta   93.245489
_cell_angle_gamma 83.909205
loop_
_atom_site_label
_atom_site_type_symbol
_atom_site_fract_x
_atom_site_fract_y
_atom_site_fract_z
_atom_type_partial_charge
Cd0 Cd 0.85073 0.09835 0.19691 0.0
Cd1 Cd 0.91074 0.16765 0.33965 0.0
C2 C 0.93251 0.12344 0.1075 0.0
N3 N 0.84624 0.12386 0.13511 0.0
C4 C 0.76671 0.14377 0.06239 0.0
C5 C 0.8533 0.14165 0.02844 0.0
C6 C 0.93754 0.13192 0.05362 0.0
C7 C 0.7643 0.13431 0.11515 0.0
H8 H -0.00362 0.11482 0.12383 0.0
H9 H 0.69619 0.13417 0.13737 0.0
C10 C 0.7178 0.14315 0.31205 0.0
C11 C 0.82429 0.17542 0.48173 0.0
C12 C 0.81683 0.17314 0.54485 0.0
C13 C 0.87815 0.1574 0.56714 0.0
C14 C 0.94362 0.14382 0.52386 0.0
C15 C 0.94776 0.1465 0.46083 0.0
N16 N 0.8891 0.16219 0.44143 0.0
H17 H 0.77931 0.18791 0.46504 0.0
H18 H -0.00041 0.13645 0.42778 0.0
C19 C 0.7762 0.19968 0.27103 0.0
N20 N 0.85133 0.18416 0.25772 0.0
C21 C 0.87128 0.19207 0.15532 0.0
C22 C 0.79626 0.20883 0.16877 0.0
C23 C 0.74721 0.21225 0.22699 0.0
C24 C 0.89817 0.17994 0.20096 0.0
H25 H 0.74149 0.20288 0.31713 0.0
H26 H 0.95848 0.16764 0.19217 0.0
C27 C 0.03241 0.11758 0.27029 0.0
C28 C 0.8731 0.06995 0.07584 0.0
N29 N 0.81861 0.07428 0.25743 0.0
C30 C 0.88597 0.05704 0.24719 0.0
C31 C 0.88916 0.04208 0.28492 0.0
C32 C 0.82223 0.04482 0.33395 0.0
C33 C 0.75042 0.06228 0.3419 0.0
C34 C 0.75044 0.07709 0.3031 0.0
C35 C 0.04128 0.19867 0.39379 0.0
O36 O 0.77889 0.13067 0.27495 0.0
O37 O 0.74269 0.16105 0.34528 0.0
O38 O 0.96185 0.13191 0.27819 0.0
O39 O 0.01785 0.09912 0.23674 0.0
O40 O 0.78676 0.07548 0.09591 0.0
O41 O 0.94341 0.07646 0.11372 0.0
O42 O 0.07154 0.17895 0.37458 0.0
O43 O 0.95089 0.20378 0.38712 0.0
H44 H 0.93987 0.05535 0.21103 0.0
H45 H 0.69868 0.09111 0.31114 0.0
H46 H 0.70024 0.1517 0.0467 0.0
H47 H 0.00595 0.1293 0.02962 0.0
H48 H 0.76406 0.18373 0.57595 0.0
H49 H -0.00671 0.13169 0.53899 0.0
H50 H 0.9101 0.18865 0.11064 0.0
H51 H 0.68996 0.22514 0.23985 0.0
H52 H 0.94499 0.02873 0.2768 0.0
H53 H 0.69792 0.06499 0.37955 0.0
Cd54 Cd 0.06284 0.84504 0.68706 0.0
Cd55 Cd 0.13542 0.9117 0.81094 0.0
C56 C 0.16561 0.84544 0.55716 0.0
N57 N 0.09284 0.85647 0.59528 0.0
C58 C 0.04704 0.87796 0.51928 0.0
C59 C 0.12049 0.86652 0.47822 0.0
C60 C 0.18103 0.85028 0.49827 0.0
C61 C 0.03404 0.87253 0.57788 0.0
H62 H 0.21013 0.83249 0.57176 0.0
H63 H 0.97574 0.88077 0.60883 0.0
C64 C 0.94904 0.89027 0.79299 0.0
C65 C 0.08727 0.91487 0.95694 0.0
C66 C 0.08815 0.91062 0.01813 0.0
C67 C 0.15548 0.89462 0.03356 0.0
C68 C 0.22213 0.8835 0.98683 0.0
C69 C 0.21851 0.88828 0.92584 0.0
N70 N 0.15096 0.90358 0.91208 0.0
H71 H 0.0353 0.92718 0.94499 0.0
H72 H 0.26853 0.8796 0.88927 0.0
C73 C 0.96515 0.94001 0.74763 0.0
N74 N 0.04292 0.9253 0.73158 0.0
C75 C 0.03922 0.93136 0.62477 0.0
C76 C 0.95918 0.94682 0.63991 0.0
C77 C 0.92083 0.95064 0.70202 0.0
C78 C 0.07984 0.92073 0.67144 0.0
H79 H 0.93961 0.94415 0.79661 0.0
H80 H 0.144 0.90957 0.66078 0.0
C81 C 0.26551 0.86055 0.73464 0.0
C82 C 0.92226 0.81664 0.63008 0.0
N83 N 0.11491 0.82586 0.76333 0.0
C84 C 0.12018 0.80412 0.74536 0.0
C85 C 0.14466 0.79205 0.79119 0.0
C86 C 0.16461 0.80252 0.85576 0.0
C87 C 0.16031 0.82499 0.87276 0.0
C88 C 0.13395 0.83644 0.82548 0.0
C89 C 0.21921 0.95102 0.84326 0.0
O90 O 0.01611 0.87974 0.75753 0.0
O91 O 0.96604 0.90822 0.82919 0.0
O92 O 0.19977 0.87579 0.75142 0.0
O93 O 0.24032 0.84279 0.70065 0.0
O94 O 0.90482 0.83108 0.68146 0.0
O95 O 0.00431 0.81564 0.60528 0.0
O96 O 0.23733 0.93806 0.78909 0.0
O97 O 0.1754 0.94412 0.88361 0.0
H98 H 0.10386 0.79619 0.69562 0.0
H99 H 0.12716 0.85377 0.83833 0.0
H100 H -0.00188 0.89043 0.50526 0.0
H101 H 0.23894 0.84121 0.46829 0.0
H102 H 0.0368 0.91984 0.05316 0.0
H103 H 0.2749 0.87098 0.99684 0.0
H104 H 0.07344 0.92817 0.57846 0.0
H105 H 0.85884 0.96219 0.71618 0.0
H106 H 0.14786 0.77472 0.77641 0.0
H107 H 0.17438 0.83358 0.9223 0.0
Cd108 Cd 0.37628 0.58894 0.18014 0.0
Cd109 Cd 0.41812 0.66422 0.33755 0.0
C110 C 0.29435 0.57726 0.03206 0.0
N111 N 0.29618 0.59404 0.08471 0.0
C112 C 0.2493 0.61886 0.01868 0.0
C113 C 0.25528 0.60204 0.96242 0.0
C114 C 0.27464 0.58091 0.9702 0.0
C115 C 0.27242 0.61452 0.07931 0.0
H116 H 0.31541 0.56114 0.03727 0.0
H117 H 0.27813 0.62764 0.1214 0.0
C118 C 0.2552 0.63585 0.26594 0.0
C119 C 0.31012 0.66159 0.46352 0.0
C120 C 0.28687 0.6544 0.51718 0.0
C121 C 0.33019 0.63458 0.5267 0.0
C122 C 0.39603 0.62248 0.48064 0.0
C123 C 0.41869 0.63055 0.42839 0.0
N124 N 0.37534 0.64971 0.42081 0.0
H125 H 0.27802 0.67696 0.45669 0.0
H126 H 0.4722 0.62176 0.39444 0.0
C127 C 0.28107 0.69621 0.26581 0.0
N128 N 0.37027 0.68517 0.26469 0.0
C129 C 0.41615 0.69933 0.17808 0.0
C130 C 0.32438 0.71088 0.17759 0.0
C131 C 0.25618 0.7091 0.22207 0.0
C132 C 0.43751 0.68647 0.22215 0.0
H133 H 0.2294 0.69511 0.30083 0.0
H134 H 0.50833 0.67771 0.22317 0.0
C135 C 0.56076 0.62319 0.21683 0.0
C136 C 0.52154 0.55432 0.14288 0.0
N137 N 0.32099 0.57327 0.25676 0.0
C138 C 0.3679 0.57884 0.31515 0.0
C139 C 0.36807 0.56617 0.35976 0.0
C140 C 0.32047 0.54735 0.34365 0.0
C141 C 0.2666 0.54281 0.28457 0.0
C142 C 0.26841 0.55603 0.24122 0.0
C143 C 0.51773 0.69744 0.41764 0.0
O144 O 0.33345 0.62361 0.25513 0.0
O145 O 0.25768 0.65427 0.30376 0.0
O146 O 0.51129 0.63716 0.25808 0.0
O147 O 0.52419 0.60647 0.18479 0.0
O148 O 0.43253 0.55215 0.12717 0.0
O149 O 0.54181 0.57245 0.1768 0.0
O150 O 0.56263 0.67935 0.39233 0.0
O151 O 0.42665 0.69972 0.40652 0.0
H152 H 0.41278 0.59197 0.32435 0.0
H153 H 0.23444 0.55161 0.19344 0.0
H154 H 0.23222 0.63538 0.01591 0.0
H155 H 0.28153 0.56734 0.92888 0.0
H156 H 0.23776 0.66466 0.55179 0.0
H157 H 0.43066 0.60704 0.48509 0.0
H158 H 0.47163 0.70051 0.14559 0.0
H159 H 0.18422 0.7175 0.22295 0.0
H160 H 0.41238 0.5701 0.40379 0.0
H161 H 0.22846 0.52853 0.27039 0.0
Cd162 Cd 0.60493 0.3428 0.67244 0.0
Cd163 Cd 0.69991 0.40755 0.79599 0.0
C164 C 0.67262 0.36605 0.56269 0.0
N165 N 0.5965 0.35741 0.58099 0.0
C166 C 0.50779 0.36016 0.48303 0.0
C167 C 0.58688 0.36821 0.46163 0.0
C168 C 0.66909 0.37169 0.50309 0.0
C169 C 0.51424 0.35484 0.5431 0.0
H170 H 0.73739 0.36802 0.59311 0.0
H171 H 0.45456 0.34798 0.55858 0.0
C172 C 0.4978 0.39197 0.76995 0.0
C173 C 0.62445 0.4127 0.93749 0.0
C174 C 0.60884 0.40844 0.99716 0.0
C175 C 0.63913 0.3881 0.00822 0.0
C176 C 0.68476 0.37246 0.95808 0.0
C177 C 0.69903 0.37745 0.89894 0.0
N178 N 0.6683 0.39726 0.88984 0.0
H179 H 0.60303 0.42849 0.92939 0.0
H180 H 0.73581 0.36565 0.86064 0.0
C181 C 0.59575 0.41426 0.65974 0.0
N182 N 0.66361 0.42234 0.7052 0.0
C183 C 0.67042 0.45218 0.65759 0.0
C184 C 0.59533 0.445 0.6131 0.0
C185 C 0.56065 0.42532 0.61299 0.0
C186 C 0.70401 0.44047 0.70314 0.0
H187 H 0.56601 0.39962 0.66069 0.0
H188 H 0.75952 0.44644 0.73854 0.0
C189 C 0.8095 0.35762 0.70216 0.0
C190 C 0.47846 0.31128 0.61491 0.0
N191 N 0.64111 0.32756 0.7602 0.0
C192 C 0.70797 0.31026 0.75239 0.0
C193 C 0.72406 0.29888 0.80063 0.0
C194 C 0.67022 0.30528 0.85721 0.0
C195 C 0.60311 0.32352 0.86467 0.0
C196 C 0.58903 0.33441 0.81489 0.0
C197 C 0.81643 0.43906 0.86761 0.0
O198 O 0.56363 0.37814 0.74322 0.0
O199 O 0.52265 0.40974 0.80361 0.0
O200 O 0.74412 0.37154 0.7292 0.0
O201 O 0.7836 0.33987 0.66866 0.0
O202 O 0.44895 0.32744 0.65912 0.0
O203 O 0.56594 0.30994 0.59829 0.0
O204 O 0.85524 0.41991 0.84905 0.0
O205 O 0.72833 0.4429 0.85113 0.0
H206 H 0.74665 0.3049 0.70774 0.0
H207 H 0.53486 0.34799 0.8191 0.0
H208 H 0.44243 0.35753 0.453 0.0
H209 H 0.73194 0.37775 0.48837 0.0
H210 H 0.5757 0.42117 0.03482 0.0
H211 H 0.70935 0.35659 0.9645 0.0
H212 H 0.69961 0.46723 0.65949 0.0
H213 H 0.50487 0.41883 0.57833 0.0
H214 H 0.77687 0.28496 0.79326 0.0
H215 H 0.55963 0.32883 0.90735 0.0
C216 C 0.772 0.14575 0.92208 0.0
C217 C 0.8547 0.14718 0.96384 0.0
C218 C 0.77547 0.14835 0.85853 0.0
C219 C 0.86466 0.15151 0.83474 0.0
C220 C 0.94797 0.15335 0.87647 0.0
C221 C 0.94127 0.15183 0.94084 0.0
C222 C 0.68391 0.14729 0.81635 0.0
C223 C 0.04508 0.15622 0.85253 0.0
C224 C 0.88839 0.13569 0.65158 0.0
C225 C 0.87599 0.15573 0.6357 0.0
C226 C 0.8868 0.13408 0.71627 0.0
C227 C 0.87055 0.15293 0.76616 0.0
C228 C 0.85831 0.17315 0.75045 0.0
C229 C 0.86225 0.17433 0.68569 0.0
C230 C 0.90237 0.11221 0.7312 0.0
C231 C 0.83949 0.19355 0.80201 0.0
H232 H 0.70472 0.1419 0.93787 0.0
H233 H 0.00513 0.15382 0.97257 0.0
H234 H 0.6716 0.16163 0.79566 0.0
H235 H 0.69147 0.13302 0.77513 0.0
H236 H 0.61901 0.14637 0.84352 0.0
H237 H 0.10376 0.1566 0.89048 0.0
H238 H 0.06517 0.14288 0.81025 0.0
H239 H 0.04082 0.17132 0.83592 0.0
H240 H 0.89826 0.12119 0.61337 0.0
H241 H 0.85503 0.18993 0.67433 0.0
H242 H 0.83641 0.10882 0.75262 0.0
H243 H 0.96282 0.11185 0.76755 0.0
H244 H 0.91926 0.09924 0.68732 0.0
H245 H 0.77769 0.19214 0.8311 0.0
H246 H 0.82293 0.20784 0.7813 0.0
H247 H 0.90365 0.19612 0.83549 0.0
C248 C 0.12624 0.8917 0.40533 0.0
C249 C 0.13102 0.87067 0.41337 0.0
C250 C 0.13456 0.89567 0.34382 0.0
C251 C 0.14688 0.87817 0.28911 0.0
C252 C 0.15217 0.85692 0.29701 0.0
C253 C 0.14434 0.85344 0.35905 0.0
C254 C 0.12912 0.91855 0.33729 0.0
C255 C 0.16399 0.83785 0.23977 0.0
C256 C 0.06607 0.88794 0.12443 0.0
C257 C 0.15456 0.88961 0.09806 0.0
C258 C 0.0627 0.88419 0.18647 0.0
C259 C 0.15 0.88207 0.22315 0.0
C260 C 0.23979 0.88346 0.19656 0.0
C261 C 0.24104 0.88715 0.13411 0.0
C262 C 0.96562 0.88255 0.21282 0.0
C263 C 0.33428 0.88132 0.23439 0.0
H264 H 0.11662 0.90506 0.44726 0.0
H265 H 0.14644 0.83716 0.36485 0.0
H266 H 0.12502 0.93028 0.38501 0.0
H267 H 0.19357 0.92099 0.31225 0.0
H268 H 0.06419 0.92199 0.30716 0.0
H269 H 0.17081 0.82236 0.25457 0.0
H270 H 0.10051 0.83814 0.20569 0.0
H271 H 0.22924 0.83861 0.21285 0.0
H272 H -0.00083 0.8895 0.09627 0.0
H273 H 0.30948 0.88861 0.11408 0.0
H274 H 0.95293 0.89513 0.25811 0.0
H275 H 0.96512 0.86681 0.22518 0.0
H276 H 0.90459 0.88435 0.17777 0.0
H277 H 0.33303 0.89389 0.28034 0.0
H278 H 0.39788 0.88275 0.20675 0.0
H279 H 0.34378 0.86557 0.2475 0.0
C280 C 0.28991 0.62515 0.8879 0.0
C281 C 0.25262 0.60662 0.8965 0.0
C282 C 0.29561 0.629 0.8261 0.0
C283 C 0.26635 0.61363 0.77082 0.0
C284 C 0.22795 0.59498 0.77869 0.0
C285 C 0.22009 0.59186 0.84139 0.0
C286 C 0.33541 0.64932 0.81996 0.0
C287 C 0.19792 0.57801 0.72078 0.0
C288 C 0.21967 0.63258 0.61485 0.0
C289 C 0.31057 0.62729 0.58603 0.0
C290 C 0.20348 0.62783 0.67426 0.0
C291 C 0.27899 0.61694 0.70491 0.0
C292 C 0.36908 0.61049 0.67455 0.0
C293 C 0.38422 0.61598 0.61608 0.0
C294 C 0.10679 0.63524 0.70551 0.0
C295 C 0.45082 0.59841 0.70494 0.0
H296 H 0.31791 0.63648 0.92926 0.0
H297 H 0.1896 0.57766 0.84696 0.0
H298 H 0.4054 0.64528 0.79499 0.0
H299 H 0.28477 0.65781 0.7901 0.0
H300 H 0.34756 0.66043 0.86783 0.0
H301 H 0.16768 0.56461 0.73507 0.0
H302 H 0.1428 0.58514 0.69023 0.0
H303 H 0.2615 0.57139 0.6903 0.0
H304 H 0.16118 0.64079 0.59154 0.0
H305 H 0.45521 0.612 0.59525 0.0
H306 H 0.11725 0.6472 0.75191 0.0
H307 H 0.0751 0.62158 0.71712 0.0
H308 H 0.05406 0.64265 0.67406 0.0
H309 H 0.47764 0.60897 0.75031 0.0
H310 H 0.51264 0.59268 0.67215 0.0
H311 H 0.42455 0.58439 0.71802 0.0
C312 C 0.70019 0.37233 0.10182 0.0
C313 C 0.62593 0.38369 0.07261 0.0
C314 C 0.69123 0.36945 0.16458 0.0
C315 C 0.60605 0.37815 0.19898 0.0
C316 C 0.52984 0.38913 0.16917 0.0
C317 C 0.54062 0.39173 0.10635 0.0
C318 C 0.77408 0.35761 0.19475 0.0
C319 C 0.4375 0.39845 0.20403 0.0
C320 C 0.55299 0.35599 0.34224 0.0
C321 C 0.5866 0.37149 0.39479 0.0
C322 C 0.55785 0.35807 0.27832 0.0
C323 C 0.59739 0.37608 0.26661 0.0
C324 C 0.62986 0.39198 0.31949 0.0
C325 C 0.62413 0.38949 0.38297 0.0
C326 C 0.52247 0.34077 0.22325 0.0
C327 C 0.67171 0.41152 0.30898 0.0
H328 H 0.76673 0.36626 0.07645 0.0
H329 H 0.48217 0.40018 0.08367 0.0
H330 H 0.80559 0.36876 0.2371 0.0
H331 H 0.74751 0.34454 0.21275 0.0
H332 H 0.83245 0.35058 0.16005 0.0
H333 H 0.3838 0.4059 0.17324 0.0
H334 H 0.40386 0.38575 0.21975 0.0
H335 H 0.45422 0.4108 0.24834 0.0
H336 H 0.52526 0.34188 0.35095 0.0
H337 H 0.64919 0.40163 0.42345 0.0
H338 H 0.58372 0.33302 0.19191 0.0
H339 H 0.46744 0.34789 0.19259 0.0
H340 H 0.4901 0.32823 0.24067 0.0
H341 H 0.73677 0.40651 0.27894 0.0
H342 H 0.69256 0.42253 0.35531 0.0
H343 H 0.61811 0.42047 0.28214 0.0
C344 C 0.5726 0.14527 0.37698 0.0
C345 C 0.62131 0.1369 0.31899 0.0
C346 C 0.47742 0.14083 0.38279 0.0
C347 C 0.4301 0.1282 0.32878 0.0
C348 C 0.48106 0.11868 0.27147 0.0
C349 C 0.57672 0.12308 0.26741 0.0
C350 C 0.42605 0.15045 0.44537 0.0
C351 C 0.43259 0.10503 0.21291 0.0
C352 C 0.18634 0.1071 0.32435 0.0
C353 C 0.1286 0.1221 0.29742 0.0
C354 C 0.28415 0.10979 0.34067 0.0
C355 C 0.32414 0.12756 0.32775 0.0
C356 C 0.26399 0.14341 0.30433 0.0
C357 C 0.16663 0.14035 0.28898 0.0
C358 C 0.34542 0.09294 0.3675 0.0
C359 C 0.30386 0.16272 0.29056 0.0
H360 H 0.60842 0.15556 0.41747 0.0
H361 H 0.6152 0.11645 0.22294 0.0
H362 H 0.36782 0.16285 0.4377 0.0
H363 H 0.39096 0.13796 0.46118 0.0
H364 H 0.47624 0.15796 0.48487 0.0
H365 H 0.48447 0.09758 0.17407 0.0
H366 H 0.39807 0.09212 0.22682 0.0
H367 H 0.37445 0.11506 0.19292 0.0
H368 H 0.1558 0.09296 0.33065 0.0
H369 H 0.12163 0.15157 0.26653 0.0
H370 H 0.40013 0.10022 0.40392 0.0
H371 H 0.3849 0.08153 0.32754 0.0
H372 H 0.30017 0.08369 0.39021 0.0
H373 H 0.34558 0.17114 0.3334 0.0
H374 H 0.24564 0.17432 0.27757 0.0
H375 H 0.35426 0.15742 0.2498 0.0
C376 C 0.80679 0.87463 0.73388 0.0
C377 C 0.85562 0.88193 0.7929 0.0
C378 C 0.71283 0.86858 0.73229 0.0
C379 C 0.66783 0.86978 0.7914 0.0
C380 C 0.71987 0.87574 0.85112 0.0
C381 C 0.81314 0.88222 0.85126 0.0
C382 C 0.66015 0.86198 0.66752 0.0
C383 C 0.67611 0.87587 0.91463 0.0
C384 C 0.3986 0.88338 0.7767 0.0
C385 C 0.36639 0.86293 0.75751 0.0
C386 C 0.49655 0.88591 0.79236 0.0
C387 C 0.5629 0.8675 0.79005 0.0
C388 C 0.52908 0.84692 0.77644 0.0
C389 C 0.43105 0.84483 0.75919 0.0
C390 C 0.5299 0.90816 0.80644 0.0
C391 C 0.59653 0.82694 0.77599 0.0
H392 H 0.84073 0.87451 0.68902 0.0
H393 H 0.85257 0.88766 0.89678 0.0
H394 H 0.63595 0.84577 0.66153 0.0
H395 H 0.5945 0.87326 0.66526 0.0
H396 H 0.70634 0.86171 0.62624 0.0
H397 H 0.73152 0.87725 0.95491 0.0
H398 H 0.61991 0.88962 0.92719 0.0
H399 H 0.64017 0.86101 0.91053 0.0
H400 H 0.34811 0.89738 0.77631 0.0
H401 H 0.40548 0.829 0.74603 0.0
H402 H 0.5761 0.90943 0.76681 0.0
H403 H 0.57451 0.91129 0.85206 0.0
H404 H 0.46817 0.92083 0.81077 0.0
H405 H 0.62306 0.82028 0.7263 0.0
H406 H 0.55796 0.81445 0.78938 0.0
H407 H 0.66021 0.83025 0.80959 0.0
C408 C 0.70842 0.61394 0.15035 0.0
C409 C 0.66229 0.6258 0.20666 0.0
C410 C 0.80805 0.61429 0.14349 0.0
C411 C 0.86267 0.62624 0.19513 0.0
C412 C 0.8155 0.63895 0.25086 0.0
C413 C 0.71548 0.63878 0.2555 0.0
C414 C 0.85444 0.60118 0.08218 0.0
C415 C 0.87128 0.65195 0.30717 0.0
C416 C 0.1224 0.61199 0.2407 0.0
C417 C 0.16359 0.62995 0.23257 0.0
C418 C 0.02524 0.60919 0.22195 0.0
C419 C 0.96976 0.6247 0.19424 0.0
C420 C 0.01518 0.64134 0.17867 0.0
C421 C 0.11137 0.64409 0.19955 0.0
C422 C 0.97957 0.59094 0.23794 0.0
C423 C 0.96004 0.6573 0.14515 0.0
H424 H 0.66703 0.60405 0.11202 0.0
H425 H 0.67986 0.64796 0.29895 0.0
H426 H 0.91799 0.60845 0.07023 0.0
H427 H 0.87945 0.58489 0.08861 0.0
H428 H 0.80156 0.59938 0.0404 0.0
H429 H 0.82341 0.66086 0.34691 0.0
H430 H 0.92624 0.6412 0.32703 0.0
H431 H 0.91052 0.66367 0.2906 0.0
H432 H 0.16309 0.60126 0.26676 0.0
H433 H 0.14465 0.6578 0.19245 0.0
H434 H 0.93583 0.58272 0.19585 0.0
H435 H 0.92987 0.59737 0.27869 0.0
H436 H 0.03473 0.57894 0.25209 0.0
H437 H 0.91045 0.6492 0.10635 0.0
H438 H 0.00985 0.66592 0.12362 0.0
H439 H 0.91523 0.66932 0.18077 0.0
C440 C -0.01389 0.34629 0.7057 0.0
C441 C 0.91056 0.36253 0.70695 0.0
C442 C 0.08264 0.35121 0.71417 0.0
C443 C 0.10306 0.37274 0.72223 0.0
C444 C 0.02689 0.38904 0.72071 0.0
C445 C 0.93114 0.38375 0.71399 0.0
C446 C 0.16233 0.33353 0.71658 0.0
C447 C 0.04638 0.41203 0.72659 0.0
C448 C 0.33582 0.39032 0.81026 0.0
C449 C 0.39634 0.388 0.75828 0.0
C450 C 0.23983 0.38517 0.79913 0.0
C451 C 0.20391 0.37836 0.7345 0.0
C452 C 0.26452 0.37676 0.68187 0.0
C453 C 0.36102 0.38124 0.6946 0.0
C454 C 0.17768 0.38651 0.85633 0.0
C455 C 0.22806 0.3702 0.61232 0.0
H456 H 0.96952 0.32989 0.70027 0.0
H457 H 0.87222 0.39621 0.71376 0.0
H458 H 0.21668 0.33289 0.67973 0.0
H459 H 0.20059 0.33689 0.76471 0.0
H460 H 0.13424 0.31756 0.70793 0.0
H461 H 0.97936 0.42237 0.71923 0.0
H462 H 0.07831 0.4187 0.77534 0.0
H463 H 0.09979 0.41282 0.69047 0.0
H464 H 0.36459 0.39545 0.85944 0.0
H465 H 0.40872 0.37976 0.65481 0.0
H466 H 0.15145 0.37065 0.85362 0.0
H467 H 0.11285 0.39807 0.85514 0.0
H468 H 0.21764 0.39159 0.90341 0.0
H469 H 0.21739 0.35289 0.5999 0.0
H470 H 0.27975 0.37304 0.57788 0.0
H471 H 0.15696 0.37915 0.60536 0.0
C472 C 0.42812 0.28412 0.5179 0.0
C473 C 0.41384 0.29494 0.58265 0.0
C474 C 0.36776 0.26849 0.48596 0.0
C475 C 0.29309 0.26317 0.52026 0.0
C476 C 0.27906 0.27391 0.58601 0.0
C477 C 0.33892 0.28992 0.61621 0.0
C478 C 0.38327 0.25786 0.41536 0.0
C479 C 0.20151 0.26835 0.62457 0.0
C480 C 0.07996 0.23668 0.42662 0.0
C481 C 0.10741 0.21497 0.42415 0.0
C482 C 0.14037 0.25251 0.45698 0.0
C483 C 0.22915 0.2465 0.48704 0.0
C484 C 0.25712 0.22458 0.48487 0.0
C485 C 0.19647 0.20902 0.45252 0.0
C486 C 0.10934 0.27564 0.45665 0.0
C487 C 0.35037 0.2176 0.51746 0.0
H488 H 0.48565 0.28815 0.4918 0.0
H489 H 0.32875 0.29814 0.66654 0.0
H490 H 0.40108 0.24034 0.40928 0.0
H491 H 0.31556 0.26017 0.38642 0.0
H492 H 0.44268 0.26432 0.39522 0.0
H493 H 0.20525 0.27694 0.67648 0.0
H494 H 0.12879 0.27255 0.60405 0.0
H495 H 0.2086 0.25084 0.62135 0.0
H496 H 0.0114 0.2413 0.40426 0.0
H497 H 0.2176 0.19224 0.45089 0.0
H498 H 0.16631 0.2824 0.43522 0.0
H499 H 0.1002 0.28529 0.50703 0.0
H500 H 0.04005 0.27751 0.42877 0.0
H501 H 0.41329 0.22133 0.49361 0.0
H502 H 0.35789 0.20016 0.51561 0.0
H503 H 0.35371 0.22656 0.56897 0.0
C504 C 0.69075 0.30173 0.97246 0.0
C505 C 0.68077 0.29217 0.90614 0.0
C506 C 0.70496 0.28912 0.01836 0.0
C507 C 0.7085 0.26649 0.99724 0.0
C508 C 0.69487 0.25691 0.9306 0.0
C509 C 0.68166 0.26982 0.88588 0.0
C510 C 0.71831 0.29996 0.0891 0.0
C511 C 0.69626 0.23292 0.90634 0.0
C512 C 0.84811 0.23064 0.09582 0.0
C513 C 0.77317 0.22353 0.12452 0.0
C514 C 0.82808 0.24501 0.05558 0.0
C515 C 0.73072 0.25258 0.04386 0.0
C516 C 0.65472 0.24565 0.07304 0.0
C517 C 0.67682 0.23116 0.11285 0.0
C518 C 0.91112 0.25188 0.02485 0.0
C519 C 0.54999 0.2533 0.06146 0.0
H520 H 0.68992 0.31901 0.98825 0.0
H521 H 0.67186 0.26242 0.83476 0.0
H522 H 0.66766 0.29436 0.11864 0.0
H523 H 0.79308 0.29562 0.10622 0.0
H524 H 0.706 0.3177 0.09794 0.0
H525 H 0.68058 0.2281 0.85331 0.0
H526 H 0.76844 0.22523 0.91759 0.0
H527 H 0.6419 0.22669 0.9315 0.0
H528 H 0.92285 0.22518 0.10551 0.0
H529 H 0.61841 0.22561 0.1343 0.0
H530 H 0.90851 0.26963 0.03657 0.0
H531 H 0.9044 0.24633 0.97132 0.0
H532 H 0.98293 0.24533 0.04126 0.0
H533 H 0.54 0.27108 0.07375 0.0
H534 H 0.49983 0.24731 0.09048 0.0
H535 H 0.52932 0.2478 0.00939 0.0
C536 C 0.66396 0.71172 0.48037 0.0
C537 C 0.56955 0.71543 0.45575 0.0
C538 C 0.71578 0.72884 0.51335 0.0
C539 C 0.67289 0.75016 0.52044 0.0
C540 C 0.57683 0.75398 0.49683 0.0
C541 C 0.52592 0.73653 0.4653 0.0
C542 C 0.81725 0.72412 0.53938 0.0
C543 C 0.52934 0.77648 0.50231 0.0
C544 C 0.78964 0.79466 0.64133 0.0
C545 C 0.85255 0.801 0.60171 0.0
C546 C 0.72991 0.77819 0.61562 0.0
C547 C 0.73128 0.7684 0.54843 0.0
C548 C 0.79174 0.77547 0.50788 0.0
C549 C 0.85278 0.79147 0.53523 0.0
C550 C 0.66758 0.77086 0.66055 0.0
C551 C 0.79344 0.76583 0.43575 0.0
H552 H 0.69763 0.69542 0.47351 0.0
H553 H 0.45302 0.73948 0.44608 0.0
H554 H 0.87029 0.73014 0.51257 0.0
H555 H 0.82433 0.73258 0.5912 0.0
H556 H 0.83683 0.7067 0.53486 0.0
H557 H 0.45251 0.77669 0.4844 0.0
H558 H 0.53193 0.78578 0.55342 0.0
H559 H 0.56976 0.78483 0.47377 0.0
H560 H 0.79014 0.80197 0.69289 0.0
H561 H 0.901 0.79652 0.50456 0.0
H562 H 0.68068 0.75323 0.65437 0.0
H563 H 0.58985 0.77456 0.64837 0.0
H564 H 0.68178 0.77873 0.71227 0.0
H565 H 0.82267 0.74874 0.42657 0.0
H566 H 0.83873 0.7743 0.41043 0.0
H567 H 0.71869 0.76639 0.41426 0.0
C568 C 0.24633 0.74479 0.15103 0.0
C569 C 0.30061 0.72484 0.13139 0.0
C570 C 0.22357 0.75811 0.10788 0.0
C571 C 0.25697 0.75143 0.04383 0.0
C572 C 0.31246 0.73143 0.0238 0.0
C573 C 0.33298 0.71831 0.06766 0.0
C574 C 0.16343 0.77927 0.13071 0.0
C575 C 0.34981 0.72383 0.95591 0.0
C576 C 0.1268 0.77444 0.9106 0.0
C577 C 0.18718 0.78997 0.9053 0.0
C578 C 0.14774 0.76206 0.95642 0.0
C579 C 0.23193 0.76511 0.9971 0.0
C580 C 0.29293 0.78088 0.99219 0.0
C581 C 0.26926 0.79329 0.9466 0.0
C582 C 0.08001 0.74568 0.9611 0.0
C583 C 0.38404 0.78434 0.03416 0.0
H584 H 0.22238 0.75013 0.20045 0.0
H585 H 0.3736 0.70279 0.05172 0.0
H586 H 0.20499 0.79266 0.12688 0.0
H587 H 0.09708 0.77993 0.09926 0.0
H588 H 0.14146 0.78191 0.18169 0.0
H589 H 0.39489 0.7082 0.94876 0.0
H590 H 0.28804 0.7221 0.92015 0.0
H591 H 0.39391 0.73588 0.94525 0.0
H592 H 0.06261 0.7721 0.87912 0.0
H593 H 0.31611 0.80525 0.94212 0.0
H594 H 0.0544 0.74879 0.01132 0.0
H595 H 0.1191 0.72939 0.94979 0.0
H596 H 0.01584 0.74585 0.92741 0.0
H597 H 0.36593 0.78848 0.08612 0.0
H598 H 0.42337 0.79732 0.02446 0.0
H599 H 0.43339 0.76931 0.02553 0.0
C600 C 0.87916 0.03531 0.99436 0.0
C601 C 0.89575 0.05693 0.01106 0.0
C602 C 0.93572 0.02075 0.94753 0.0
C603 C 0.01019 0.02823 0.91795 0.0
C604 C 0.01656 0.05048 0.92802 0.0
C605 C 0.95924 0.06462 0.97492 0.0
C606 C 0.92407 0.99712 0.93601 0.0
C607 C 0.09217 0.05928 0.89609 0.0
C608 C 0.2242 0.98727 0.91235 0.0
C609 C 0.21031 0.97428 0.85035 0.0
C610 C 0.16639 0.00664 0.93271 0.0
C611 C 0.09263 0.0128 0.88997 0.0
C612 C 0.08942 1.00147 0.82428 0.0
C613 C 0.14989 0.98236 0.80481 0.0
C614 C 0.17548 0.01887 1.00255 0.0
C615 C 0.01375 0.00771 0.77674 0.0
H616 H 0.83006 0.02945 0.02258 0.0
H617 H 0.97118 0.08149 0.98791 0.0
H618 H 0.92796 0.98926 0.88362 0.0
H619 H -0.01597 0.98937 0.96175 0.0
H620 H 0.85414 0.99425 0.95395 0.0
H621 H 0.0689 0.07599 0.89256 0.0
H622 H 0.16062 0.05947 0.9258 0.0
H623 H 0.10765 0.04926 0.84688 0.0
H624 H 0.27118 0.981 0.9474 0.0
H625 H 0.13878 0.97228 0.75669 0.0
H626 H 0.11437 0.01596 0.02986 0.0
H627 H 0.17177 0.03636 0.00596 0.0
H628 H 0.24454 0.01386 0.02629 0.0
H629 H 0.9464 1.00033 0.78083 0.0
H630 H 0.03834 1.00185 0.72617 0.0
H631 H -0.00423 0.02533 0.78681 0.0
C632 C 0.7528 0.02072 0.39326 0.0
C633 C 0.83257 0.03017 0.37869 0.0
C634 C 0.76408 0.00626 0.4339 0.0
C635 C 0.85699 1.00144 0.46114 0.0
C636 C 0.93736 0.01118 0.4471 0.0
C637 C 0.92418 0.02535 0.40599 0.0
C638 C 0.6769 0.99608 0.44752 0.0
C639 C 0.03738 0.00674 0.47584 0.0
C640 C 0.889 0.98185 0.61623 0.0
C641 C 0.92175 0.9601 0.59335 0.0
C642 C 0.86354 0.99524 0.5736 0.0
C643 C 0.87075 0.98675 0.50604 0.0
C644 C 0.89943 0.96464 0.48215 0.0
C645 C 0.92428 0.95158 0.52602 0.0
C646 C 0.8336 0.01873 0.6012 0.0
C647 C 0.9078 0.95495 0.41038 0.0
H648 H 0.68205 0.02434 0.37191 0.0
H649 H -0.01423 0.03289 0.3956 0.0
H650 H 0.69044 0.97836 0.43252 0.0
H651 H 0.66435 1.00033 0.50035 0.0
H652 H 0.61003 1.00123 0.42178 0.0
H653 H 0.09229 0.01555 0.45977 0.0
H654 H 0.03583 0.01143 0.52954 0.0
H655 H 0.06087 0.98932 0.46182 0.0
H656 H 0.88674 0.98879 0.66776 0.0
H657 H 0.94709 0.93473 0.50739 0.0
H658 H 0.76478 0.02378 0.57746 0.0
H659 H 0.88976 0.02848 0.59138 0.0
H660 H 0.82387 0.02245 0.65439 0.0
H661 H 0.84088 0.95948 0.38372 0.0
H662 H 0.92086 0.93717 0.39931 0.0
H663 H 0.96886 0.96131 0.39181 0.0
C664 C 0.69706 0.54043 0.13231 0.0
C665 C 0.5988 0.53709 0.11881 0.0
C666 C 0.77092 0.52509 0.10326 0.0
C667 C 0.74551 0.50618 0.05897 0.0
C668 C 0.64633 0.50226 0.04817 0.0
C669 C 0.57447 0.51772 0.07846 0.0
C670 C 0.87509 0.52983 0.11807 0.0
C671 C 0.61516 0.48222 1.00175 0.0
C672 C 0.85212 0.47636 0.90406 0.0
C673 C 0.86153 0.45579 0.91567 0.0
C674 C 0.83081 0.49438 0.95469 0.0
C675 C 0.81868 0.49139 0.01749 0.0
C676 C 0.84988 0.47131 0.03132 0.0
C677 C 0.87111 0.45349 0.97965 0.0
C678 C 0.80376 0.51581 0.9385 0.0
C679 C 0.84482 0.46788 0.09868 0.0
H680 H 0.71655 0.55534 0.16401 0.0
H681 H 0.49878 0.51496 0.06844 0.0
H682 H 0.89464 0.54027 0.08716 0.0
H683 H 0.88478 0.5387 0.16936 0.0
H684 H 0.92608 0.51505 0.10902 0.0
H685 H 0.53535 0.48152 1.00003 0.0
H686 H 0.63809 0.48158 0.95209 0.0
H687 H 0.65021 0.46773 0.01619 0.0
H688 H 0.84636 0.47808 0.85441 0.0
H689 H 0.87966 0.43755 0.98873 0.0
H690 H 0.83086 0.52892 0.97706 0.0
H691 H 0.72352 0.51877 0.93506 0.0
H692 H 0.83339 0.51636 0.89151 0.0
H693 H 0.86216 0.48241 0.13587 0.0
H694 H 0.89552 0.45399 0.10543 0.0
H695 H 0.77016 0.4645 0.1065 0.0
C696 C 0.60465 0.47049 0.54149 0.0
C697 C 0.54882 0.45867 0.57048 0.0
C698 C 0.56061 0.48454 0.50481 0.0
C699 C 0.45825 0.48672 0.49657 0.0
C700 C 0.40156 0.47459 0.52477 0.0
C701 C 0.44746 0.46077 0.56154 0.0
C702 C 0.62361 0.49721 0.47541 0.0
C703 C 0.29234 0.47641 0.51683 0.0
C704 C 0.34881 0.53794 0.45167 0.0
C705 C 0.33986 0.53129 0.38388 0.0
C706 C 0.38448 0.52347 0.48928 0.0
C707 C 0.4109 0.50176 0.45839 0.0
C708 C 0.39697 0.49467 0.39045 0.0
C709 C 0.36193 0.50953 0.35399 0.0
C710 C 0.39809 0.53166 0.56169 0.0
C711 C 0.42356 0.4716 0.35584 0.0
H712 H 0.68298 0.46879 0.54756 0.0
H713 H 0.40354 0.452 0.58472 0.0
H714 H 0.61176 0.49351 0.42199 0.0
H715 H 0.60329 0.51463 0.49388 0.0
H716 H 0.70203 0.49372 0.48656 0.0
H717 H 0.25894 0.46543 0.54041 0.0
H718 H 0.26231 0.4931 0.53815 0.0
H719 H 0.27064 0.47272 0.46459 0.0
H720 H 0.33082 0.55466 0.47522 0.0
H721 H 0.35679 0.50424 0.30164 0.0
H722 H 0.47647 0.53016 0.5754 0.0
H723 H 0.36155 0.52184 0.58766 0.0
H724 H 0.36912 0.54871 0.57861 0.0
H725 H 0.50325 0.46773 0.35962 0.0
H726 H 0.40095 0.46828 0.30369 0.0
H727 H 0.38933 0.46065 0.37898 0.0
loop_
_geom_bond_atom_site_label_1
_geom_bond_atom_site_label_2
_geom_bond_distance
_geom_bond_site_symmetry_2
_ccdc_geom_bond_type
Cd0 N3 2.334 1_455 S
Cd0 N29 2.304 . S
Cd0 O36 2.268 1_455 S
Cd0 O39 2.273 . S
Cd0 O40 2.417 1_455 S
Cd0 O41 2.330 . S
Cd1 N16 2.304 1_655 S
Cd1 N20 2.334 . S
Cd1 O37 2.273 . S
Cd1 O38 2.268 1_655 S
Cd1 O42 2.417 1_655 S
Cd1 O43 2.330 . S
C2 N3 1.332 1_455 S
C2 C6 1.381 . S
C2 H8 0.931 . S
N3 Cd0 2.334 1_655 S
N3 C2 1.332 1_655 S
N3 C7 1.328 . S
C4 C5 1.396 . S
C4 C7 1.378 . S
C4 H46 0.931 . S
C5 C4 1.396 . S
C5 C6 1.382 1_655 S
C6 C2 1.381 . S
C6 C5 1.382 1_455 S
C6 H47 0.926 1_554 S
C7 N3 1.328 . S
C7 C4 1.378 . S
C7 H9 0.930 . S
H8 C2 0.931 . S
H9 C7 0.930 . S
C10 O36 1.238 . S
C10 O37 1.253 . S
C11 C12 1.379 . S
C11 N16 1.337 1_655 S
C11 H17 0.929 . S
C12 C11 1.379 . S
C12 C13 1.380 1_655 S
C12 H48 0.929 . S
C13 C12 1.380 1_455 S
C13 C14 1.399 . S
C14 C13 1.399 . S
C14 C15 1.376 . S
C14 H49 0.931 . S
C15 C14 1.376 . S
C15 N16 1.338 . S
C15 H18 0.930 . S
N16 Cd1 2.304 1_455 S
N16 C11 1.337 1_455 S
N16 C15 1.338 . S
H17 C11 0.929 . S
H18 C15 0.930 . S
C19 N20 1.332 . S
C19 C23 1.381 . S
C19 H25 0.931 . S
N20 Cd1 2.334 . S
N20 C19 1.332 . S
N20 C24 1.328 1_655 S
C21 C22 1.396 1_455 S
C21 C24 1.378 . S
C21 H50 0.931 . S
C22 C21 1.396 1_655 S
C22 C23 1.382 . S
C23 C19 1.381 . S
C23 C22 1.382 . S
C23 H51 0.930 . S
C24 N20 1.328 1_455 S
C24 C21 1.378 . S
C24 H26 0.930 . S
H25 C19 0.931 . S
H26 C24 0.930 . S
C27 O38 1.238 . S
C27 O39 1.253 . S
C28 O40 1.239 . S
C28 O41 1.230 1_655 S
N29 Cd0 2.304 . S
N29 C30 1.337 . S
N29 C34 1.338 1_455 S
C30 N29 1.337 . S
C30 C31 1.379 . S
C30 H44 0.929 . S
C31 C30 1.379 . S
C31 C32 1.380 . S
C31 H52 0.929 . S
C32 C31 1.380 . S
C32 C33 1.399 1_455 S
C33 C32 1.399 1_655 S
C33 C34 1.376 . S
C33 H53 0.931 . S
C34 N29 1.338 1_655 S
C34 C33 1.376 . S
C34 H45 0.930 . S
C35 O42 1.239 . S
C35 O43 1.230 1_455 S
O36 Cd0 2.268 1_655 S
O36 C10 1.238 . S
O37 Cd1 2.273 . S
O37 C10 1.253 . S
O38 Cd1 2.268 1_455 S
O38 C27 1.238 . S
O39 Cd0 2.273 . S
O39 C27 1.253 . S
O40 Cd0 2.417 1_655 S
O40 C28 1.239 . S
O41 Cd0 2.330 . S
O41 C28 1.230 1_455 S
O42 Cd1 2.417 1_455 S
O42 C35 1.239 . S
O43 Cd1 2.330 . S
O43 C35 1.230 1_655 S
H44 C30 0.929 . S
H45 C34 0.930 . S
H46 C4 0.931 . S
H47 C6 0.926 1_556 S
H48 C12 0.929 . S
H49 C14 0.931 . S
H50 C21 0.931 . S
H51 C23 0.930 . S
H52 C31 0.929 . S
H53 C33 0.931 . S
Cd54 N57 2.334 . S
Cd54 N83 2.304 . S
Cd54 O90 2.268 1_455 S
Cd54 O93 2.273 . S
Cd54 O94 2.417 1_455 S
Cd54 O95 2.330 . S
Cd55 N70 2.304 . S
Cd55 N74 2.334 . S
Cd55 O91 2.273 1_455 S
Cd55 O92 2.268 . S
Cd55 O96 2.417 . S
Cd55 O97 2.330 1_455 S
C56 N57 1.332 . S
C56 C60 1.381 . S
C56 H62 0.931 . S
N57 Cd54 2.334 . S
N57 C56 1.332 . S
N57 C61 1.328 1_455 S
C58 C59 1.396 1_655 S
C58 C61 1.378 . S
C58 H100 0.931 . S
C59 C58 1.396 1_455 S
C59 C60 1.382 . S
C60 C56 1.381 . S
C60 C59 1.382 . S
C60 H101 0.930 . S
C61 N57 1.328 1_655 S
C61 C58 1.378 . S
C61 H63 0.930 . S
H62 C56 0.931 . S
H63 C61 0.930 . S
C64 O90 1.238 . S
C64 O91 1.253 . S
C65 C66 1.379 . S
C65 N70 1.337 1_655 S
C65 H71 0.929 . S
C66 C65 1.379 . S
C66 C67 1.380 1_655 S
C66 H102 0.919 1_556 S
C67 C66 1.380 1_455 S
C67 C68 1.399 . S
C68 C67 1.399 . S
C68 C69 1.376 . S
C68 H103 0.931 . S
C69 C68 1.376 . S
C69 N70 1.338 . S
C69 H72 0.930 . S
N70 Cd55 2.304 . S
N70 C65 1.337 1_455 S
N70 C69 1.338 . S
H71 C65 0.929 . S
H72 C69 0.930 . S
C73 N74 1.323 1_655 S
C73 C77 1.381 . S
C73 H79 0.931 . S
N74 Cd55 2.334 . S
N74 C73 1.323 1_455 S
N74 C78 1.337 . S
C75 C76 1.396 1_455 S
C75 C78 1.378 . S
C75 H104 0.931 . S
C76 C75 1.396 1_655 S
C76 C77 1.382 . S
C77 C73 1.381 . S
C77 C76 1.382 . S
C77 H105 0.930 . S
C78 N74 1.337 . S
C78 C75 1.378 . S
C78 H80 0.930 . S
H79 C73 0.931 . S
H80 C78 0.930 . S
C81 O92 1.238 . S
C81 O93 1.253 . S
C82 O94 1.239 . S
C82 O95 1.230 1_655 S
N83 Cd54 2.304 . S
N83 C84 1.337 . S
N83 C88 1.338 1_455 S
C84 N83 1.337 . S
C84 C85 1.379 . S
C84 H98 0.929 . S
C85 C84 1.379 . S
C85 C86 1.380 . S
C85 H106 0.929 . S
C86 C85 1.380 . S
C86 C87 1.399 1_455 S
C87 C86 1.399 1_655 S
C87 C88 1.376 . S
C87 H107 0.931 . S
C88 N83 1.338 1_655 S
C88 C87 1.376 . S
C88 H99 0.930 . S
C89 O96 1.239 . S
C89 O97 1.230 1_455 S
O90 Cd54 2.268 1_655 S
O90 C64 1.238 . S
O91 Cd55 2.273 1_655 S
O91 C64 1.253 . S
O92 Cd55 2.268 . S
O92 C81 1.238 . S
O93 Cd54 2.273 . S
O93 C81 1.253 . S
O94 Cd54 2.417 1_655 S
O94 C82 1.239 . S
O95 Cd54 2.330 . S
O95 C82 1.230 1_455 S
O96 Cd55 2.417 . S
O96 C89 1.239 . S
O97 Cd55 2.330 1_655 S
O97 C89 1.230 1_655 S
H98 C84 0.929 . S
H99 C88 0.930 . S
H100 C58 0.931 . S
H101 C60 0.930 . S
H102 C66 0.919 1_554 S
H103 C68 0.931 . S
H104 C75 0.931 . S
H105 C77 0.930 . S
H106 C85 0.929 . S
H107 C87 0.931 . S
Cd108 N111 2.334 . S
Cd108 N137 2.304 . S
Cd108 O144 2.268 . S
Cd108 O147 2.273 . S
Cd108 O148 2.417 . S
Cd108 O149 2.330 . S
Cd109 N124 2.304 . S
Cd109 N128 2.334 . S
Cd109 O145 2.273 . S
Cd109 O146 2.268 . S
Cd109 O150 2.417 . S
Cd109 O151 2.330 . S
C110 N111 1.332 . S
C110 C114 1.381 . S
C110 H116 0.931 . S
N111 Cd108 2.334 . S
N111 C110 1.332 . S
N111 C115 1.328 . S
C112 C113 1.396 . S
C112 C115 1.378 . S
C112 H154 0.931 . S
C113 C112 1.396 . S
C113 C114 1.382 . S
C114 C110 1.381 . S
C114 C113 1.382 . S
C114 H155 0.926 1_554 S
C115 N111 1.328 . S
C115 C112 1.378 . S
C115 H117 0.930 . S
H116 C110 0.931 . S
H117 C115 0.930 . S
C118 O144 1.238 . S
C118 O145 1.253 . S
C119 C120 1.379 . S
C119 N124 1.337 . S
C119 H125 0.929 . S
C120 C119 1.379 . S
C120 C121 1.380 . S
C120 H156 0.929 . S
C121 C120 1.380 . S
C121 C122 1.399 . S
C122 C121 1.399 . S
C122 C123 1.376 . S
C122 H157 0.931 . S
C123 C122 1.376 . S
C123 N124 1.338 . S
C123 H126 0.930 . S
N124 Cd109 2.304 . S
N124 C119 1.337 . S
N124 C123 1.338 . S
H125 C119 0.929 . S
H126 C123 0.930 . S
C127 N128 1.332 . S
C127 C131 1.381 . S
C127 H133 0.931 . S
N128 Cd109 2.334 . S
N128 C127 1.332 . S
N128 C132 1.328 . S
C129 C130 1.396 . S
C129 C132 1.378 . S
C129 H158 0.931 . S
C130 C129 1.396 . S
C130 C131 1.382 . S
C131 C127 1.381 . S
C131 C130 1.382 . S
C131 H159 0.930 . S
C132 N128 1.328 . S
C132 C129 1.378 . S
C132 H134 0.930 . S
H133 C127 0.931 . S
H134 C132 0.930 . S
C135 O146 1.238 . S
C135 O147 1.253 . S
C136 O148 1.239 . S
C136 O149 1.230 . S
N137 Cd108 2.304 . S
N137 C138 1.337 . S
N137 C142 1.338 . S
C138 N137 1.337 . S
C138 C139 1.379 . S
C138 H152 0.929 . S
C139 C138 1.379 . S
C139 C140 1.380 . S
C139 H160 0.929 . S
C140 C139 1.380 . S
C140 C141 1.399 . S
C141 C140 1.399 . S
C141 C142 1.376 . S
C141 H161 0.931 . S
C142 N137 1.338 . S
C142 C141 1.376 . S
C142 H153 0.930 . S
C143 O150 1.239 . S
C143 O151 1.230 . S
O144 Cd108 2.268 . S
O144 C118 1.238 . S
O145 Cd109 2.273 . S
O145 C118 1.253 . S
O146 Cd109 2.268 . S
O146 C135 1.238 . S
O147 Cd108 2.273 . S
O147 C135 1.253 . S
O148 Cd108 2.417 . S
O148 C136 1.239 . S
O149 Cd108 2.330 . S
O149 C136 1.230 . S
O150 Cd109 2.417 . S
O150 C143 1.239 . S
O151 Cd109 2.330 . S
O151 C143 1.230 . S
H152 C138 0.929 . S
H153 C142 0.930 . S
H154 C112 0.931 . S
H155 C114 0.926 1_556 S
H156 C120 0.929 . S
H157 C122 0.931 . S
H158 C129 0.931 . S
H159 C131 0.930 . S
H160 C139 0.929 . S
H161 C141 0.931 . S
Cd162 N165 2.334 . S
Cd162 N191 2.304 . S
Cd162 O198 2.268 . S
Cd162 O201 2.273 . S
Cd162 O202 2.417 . S
Cd162 O203 2.330 . S
Cd163 N178 2.304 . S
Cd163 N182 2.334 . S
Cd163 O199 2.273 . S
Cd163 O200 2.268 . S
Cd163 O204 2.417 . S
Cd163 O205 2.330 . S
C164 N165 1.332 . S
C164 C168 1.381 . S
C164 H170 0.931 . S
N165 Cd162 2.334 . S
N165 C164 1.332 . S
N165 C169 1.328 . S
C166 C167 1.396 . S
C166 C169 1.378 . S
C166 H208 0.931 . S
C167 C166 1.396 . S
C167 C168 1.382 . S
C168 C164 1.381 . S
C168 C167 1.382 . S
C168 H209 0.930 . S
C169 N165 1.328 . S
C169 C166 1.378 . S
C169 H171 0.930 . S
H170 C164 0.931 . S
H171 C169 0.930 . S
C172 O198 1.238 . S
C172 O199 1.253 . S
C173 C174 1.379 . S
C173 N178 1.337 . S
C173 H179 0.929 . S
C174 C173 1.379 . S
C174 C175 1.380 . S
C174 H210 0.919 1_556 S
C175 C174 1.380 . S
C175 C176 1.399 . S
C176 C175 1.399 . S
C176 C177 1.376 . S
C176 H211 0.931 . S
C177 C176 1.376 . S
C177 N178 1.338 . S
C177 H180 0.930 . S
N178 Cd163 2.304 . S
N178 C173 1.337 . S
N178 C177 1.338 . S
H179 C173 0.929 . S
H180 C177 0.930 . S
C181 N182 1.332 . S
C181 C185 1.381 . S
C181 H187 0.931 . S
N182 Cd163 2.334 . S
N182 C181 1.332 . S
N182 C186 1.328 . S
C183 C184 1.396 . S
C183 C186 1.378 . S
C183 H212 0.931 . S
C184 C183 1.396 . S
C184 C185 1.382 . S
C185 C181 1.381 . S
C185 C184 1.382 . S
C185 H213 0.930 . S
C186 N182 1.328 . S
C186 C183 1.378 . S
C186 H188 0.930 . S
H187 C181 0.931 . S
H188 C186 0.930 . S
C189 O200 1.238 . S
C189 O201 1.253 . S
C190 O202 1.239 . S
C190 O203 1.230 . S
N191 Cd162 2.304 . S
N191 C192 1.337 . S
N191 C196 1.338 . S
C192 N191 1.337 . S
C192 C193 1.379 . S
C192 H206 0.929 . S
C193 C192 1.379 . S
C193 C194 1.380 . S
C193 H214 0.929 . S
C194 C193 1.380 . S
C194 C195 1.399 . S
C195 C194 1.399 . S
C195 C196 1.376 . S
C195 H215 0.931 . S
C196 N191 1.338 . S
C196 C195 1.376 . S
C196 H207 0.930 . S
C197 O204 1.239 . S
C197 O205 1.230 . S
O198 Cd162 2.268 . S
O198 C172 1.238 . S
O199 Cd163 2.273 . S
O199 C172 1.253 . S
O200 Cd163 2.268 . S
O200 C189 1.238 . S
O201 Cd162 2.273 . S
O201 C189 1.253 . S
O202 Cd162 2.417 . S
O202 C190 1.239 . S
O203 Cd162 2.330 . S
O203 C190 1.230 . S
O204 Cd163 2.417 . S
O204 C197 1.239 . S
O205 Cd163 2.330 . S
O205 C197 1.230 . S
H206 C192 0.929 . S
H207 C196 0.930 . S
H208 C166 0.931 . S
H209 C168 0.930 . S
H210 C174 0.919 1_554 S
H211 C176 0.931 . S
H212 C183 0.931 . S
H213 C185 0.930 . S
H214 C193 0.929 . S
H215 C195 0.931 . S
C216 C217 1.391 . S
C216 C218 1.394 . S
C216 H232 0.931 . S
C217 C216 1.391 . S
C217 C221 1.376 1_655 S
C218 C216 1.394 . S
C218 C219 1.369 1_655 S
C218 C222 1.531 . S
C219 C218 1.369 1_455 S
C219 C220 1.410 . S
C219 C227 1.503 . S
C220 C219 1.410 . S
C220 C221 1.392 . S
C220 C223 1.511 . S
C221 C217 1.376 1_455 S
C221 C220 1.392 . S
C221 H233 0.929 . S
C222 C218 1.531 . S
C222 H234 0.960 . S
C222 H235 0.962 . S
C222 H236 0.960 . S
C223 C220 1.511 . S
C223 H237 0.961 . S
C223 H238 0.961 . S
C223 H239 0.961 . S
C224 C225 1.370 1_655 S
C224 C226 1.363 . S
C224 H240 0.931 . S
C225 C224 1.370 1_455 S
C225 C229 1.408 . S
C226 C224 1.363 . S
C226 C227 1.370 1_655 S
C226 C230 1.524 . S
C227 C219 1.503 . S
C227 C226 1.370 1_455 S
C227 C228 1.403 . S
C228 C227 1.403 . S
C228 C229 1.404 . S
C228 C231 1.539 . S
C229 C225 1.408 . S
C229 C228 1.404 . S
C229 H241 0.930 . S
C230 C226 1.524 . S
C230 H242 0.956 . S
C230 H243 0.961 1_655 S
C230 H244 0.961 . S
C231 C228 1.539 . S
C231 H245 0.958 . S
C231 H246 0.961 . S
C231 H247 0.960 . S
H232 C216 0.931 . S
H233 C221 0.929 . S
H234 C222 0.960 . S
H235 C222 0.962 . S
H236 C222 0.960 . S
H237 C223 0.961 . S
H238 C223 0.961 . S
H239 C223 0.961 . S
H240 C224 0.931 . S
H241 C229 0.930 . S
H242 C230 0.956 . S
H243 C230 0.961 1_455 S
H244 C230 0.961 . S
H245 C231 0.958 . S
H246 C231 0.961 . S
H247 C231 0.960 . S
C248 C249 1.391 1_655 S
C248 C250 1.394 . S
C248 H264 0.931 . S
C249 C248 1.391 1_455 S
C249 C253 1.376 . S
C250 C248 1.394 . S
C250 C251 1.369 1_655 S
C250 C254 1.531 . S
C251 C250 1.369 1_455 S
C251 C252 1.410 . S
C251 C259 1.503 . S
C252 C251 1.410 . S
C252 C253 1.392 . S
C252 C255 1.511 . S
C253 C249 1.376 . S
C253 C252 1.392 . S
C253 H265 0.929 . S
C254 C250 1.531 . S
C254 H266 0.960 . S
C254 H267 0.962 . S
C254 H268 0.960 . S
C255 C252 1.511 . S
C255 H269 0.961 . S
C255 H270 0.961 . S
C255 H271 0.961 . S
C256 C257 1.370 1_655 S
C256 C258 1.363 . S
C256 H272 0.931 . S
C257 C256 1.370 1_455 S
C257 C261 1.408 . S
C258 C256 1.363 . S
C258 C259 1.370 1_655 S
C258 C262 1.524 . S
C259 C251 1.503 . S
C259 C258 1.370 1_455 S
C259 C260 1.403 . S
C260 C259 1.403 . S
C260 C261 1.404 . S
C260 C263 1.539 . S
C261 C257 1.408 . S
C261 C260 1.404 . S
C261 H273 0.930 . S
C262 C258 1.524 . S
C262 H274 0.956 . S
C262 H275 0.961 . S
C262 H276 0.961 . S
C263 C260 1.539 . S
C263 H277 0.958 . S
C263 H278 0.961 . S
C263 H279 0.960 . S
H264 C248 0.931 . S
H265 C253 0.929 . S
H266 C254 0.960 . S
H267 C254 0.962 . S
H268 C254 0.960 . S
H269 C255 0.961 . S
H270 C255 0.961 . S
H271 C255 0.961 . S
H272 C256 0.931 . S
H273 C261 0.930 . S
H274 C262 0.956 . S
H275 C262 0.961 . S
H276 C262 0.961 . S
H277 C263 0.958 . S
H278 C263 0.961 . S
H279 C263 0.960 . S
C280 C281 1.391 . S
C280 C282 1.394 . S
C280 H296 0.931 . S
C281 C280 1.391 . S
C281 C285 1.376 . S
C282 C280 1.394 . S
C282 C283 1.369 . S
C282 C286 1.531 . S
C283 C282 1.369 . S
C283 C284 1.410 . S
C283 C291 1.503 . S
C284 C283 1.410 . S
C284 C285 1.392 . S
C284 C287 1.511 . S
C285 C281 1.376 . S
C285 C284 1.392 . S
C285 H297 0.929 . S
C286 C282 1.531 . S
C286 H298 0.960 . S
C286 H299 0.962 . S
C286 H300 0.960 . S
C287 C284 1.511 . S
C287 H301 0.961 . S
C287 H302 0.961 . S
C287 H303 0.961 . S
C288 C289 1.370 . S
C288 C290 1.363 . S
C288 H304 0.931 . S
C289 C288 1.370 . S
C289 C293 1.408 . S
C290 C288 1.363 . S
C290 C291 1.370 . S
C290 C294 1.524 . S
C291 C283 1.503 . S
C291 C290 1.370 . S
C291 C292 1.403 . S
C292 C291 1.403 . S
C292 C293 1.404 . S
C292 C295 1.539 . S
C293 C289 1.408 . S
C293 C292 1.404 . S
C293 H305 0.930 . S
C294 C290 1.524 . S
C294 H306 0.956 . S
C294 H307 0.961 . S
C294 H308 0.961 . S
C295 C292 1.539 . S
C295 H309 0.958 . S
C295 H310 0.961 . S
C295 H311 0.960 . S
H296 C280 0.931 . S
H297 C285 0.929 . S
H298 C286 0.960 . S
H299 C286 0.962 . S
H300 C286 0.960 . S
H301 C287 0.961 . S
H302 C287 0.961 . S
H303 C287 0.961 . S
H304 C288 0.931 . S
H305 C293 0.930 . S
H306 C294 0.956 . S
H307 C294 0.961 . S
H308 C294 0.961 . S
H309 C295 0.958 . S
H310 C295 0.961 . S
H311 C295 0.960 . S
C312 C313 1.391 . S
C312 C314 1.394 . S
C312 H328 0.931 . S
C313 C312 1.391 . S
C313 C317 1.376 . S
C314 C312 1.394 . S
C314 C315 1.369 . S
C314 C318 1.531 . S
C315 C314 1.369 . S
C315 C316 1.410 . S
C315 C323 1.503 . S
C316 C315 1.410 . S
C316 C317 1.392 . S
C316 C319 1.511 . S
C317 C313 1.376 . S
C317 C316 1.392 . S
C317 H329 0.929 . S
C318 C314 1.531 . S
C318 H330 0.960 . S
C318 H331 0.962 . S
C318 H332 0.960 . S
C319 C316 1.511 . S
C319 H333 0.961 . S
C319 H334 0.961 . S
C319 H335 0.961 . S
C320 C321 1.370 . S
C320 C322 1.363 . S
C320 H336 0.931 . S
C321 C320 1.370 . S
C321 C325 1.408 . S
C322 C320 1.363 . S
C322 C323 1.370 . S
C322 C326 1.524 . S
C323 C315 1.503 . S
C323 C322 1.370 . S
C323 C324 1.403 . S
C324 C323 1.403 . S
C324 C325 1.404 . S
C324 C327 1.539 . S
C325 C321 1.408 . S
C325 C324 1.404 . S
C325 H337 0.930 . S
C326 C322 1.524 . S
C326 H338 0.956 . S
C326 H339 0.961 . S
C326 H340 0.961 . S
C327 C324 1.539 . S
C327 H341 0.958 . S
C327 H342 0.961 . S
C327 H343 0.960 . S
H328 C312 0.931 . S
H329 C317 0.929 . S
H330 C318 0.960 . S
H331 C318 0.962 . S
H332 C318 0.960 . S
H333 C319 0.961 . S
H334 C319 0.961 . S
H335 C319 0.961 . S
H336 C320 0.931 . S
H337 C325 0.930 . S
H338 C326 0.956 . S
H339 C326 0.961 . S
H340 C326 0.961 . S
H341 C327 0.958 . S
H342 C327 0.961 . S
H343 C327 0.960 . S
C344 C345 1.391 . S
C344 C346 1.394 . S
C344 H360 0.931 . S
C345 C344 1.391 . S
C345 C349 1.376 . S
C346 C344 1.394 . S
C346 C347 1.369 . S
C346 C350 1.531 . S
C347 C346 1.369 . S
C347 C348 1.410 . S
C347 C355 1.503 . S
C348 C347 1.410 . S
C348 C349 1.392 . S
C348 C351 1.511 . S
C349 C345 1.376 . S
C349 C348 1.392 . S
C349 H361 0.929 . S
C350 C346 1.531 . S
C350 H362 0.960 . S
C350 H363 0.962 . S
C350 H364 0.960 . S
C351 C348 1.511 . S
C351 H365 0.961 . S
C351 H366 0.961 . S
C351 H367 0.961 . S
C352 C353 1.370 . S
C352 C354 1.363 . S
C352 H368 0.931 . S
C353 C352 1.370 . S
C353 C357 1.408 . S
C354 C352 1.363 . S
C354 C355 1.370 . S
C354 C358 1.524 . S
C355 C347 1.503 . S
C355 C354 1.370 . S
C355 C356 1.403 . S
C356 C355 1.403 . S
C356 C357 1.404 . S
C356 C359 1.539 . S
C357 C353 1.408 . S
C357 C356 1.404 . S
C357 H369 0.930 . S
C358 C354 1.524 . S
C358 H370 0.956 . S
C358 H371 0.961 . S
C358 H372 0.961 . S
C359 C356 1.539 . S
C359 H373 0.958 . S
C359 H374 0.961 . S
C359 H375 0.960 . S
H360 C344 0.931 . S
H361 C349 0.929 . S
H362 C350 0.960 . S
H363 C350 0.962 . S
H364 C350 0.960 . S
H365 C351 0.961 . S
H366 C351 0.961 . S
H367 C351 0.961 . S
H368 C352 0.931 . S
H369 C357 0.930 . S
H370 C358 0.956 . S
H371 C358 0.961 . S
H372 C358 0.961 . S
H373 C359 0.958 . S
H374 C359 0.961 . S
H375 C359 0.960 . S
C376 C377 1.391 . S
C376 C378 1.394 . S
C376 H392 0.931 . S
C377 C376 1.391 . S
C377 C381 1.376 . S
C378 C376 1.394 . S
C378 C379 1.369 . S
C378 C382 1.531 . S
C379 C378 1.369 . S
C379 C380 1.410 . S
C379 C387 1.503 . S
C380 C379 1.410 . S
C380 C381 1.392 . S
C380 C383 1.511 . S
C381 C377 1.376 . S
C381 C380 1.392 . S
C381 H393 0.929 . S
C382 C378 1.531 . S
C382 H394 0.960 . S
C382 H395 0.962 . S
C382 H396 0.960 . S
C383 C380 1.511 . S
C383 H397 0.961 . S
C383 H398 0.961 . S
C383 H399 0.961 . S
C384 C385 1.370 . S
C384 C386 1.363 . S
C384 H400 0.931 . S
C385 C384 1.370 . S
C385 C389 1.408 . S
C386 C384 1.363 . S
C386 C387 1.370 . S
C386 C390 1.524 . S
C387 C379 1.503 . S
C387 C386 1.370 . S
C387 C388 1.403 . S
C388 C387 1.403 . S
C388 C389 1.404 . S
C388 C391 1.539 . S
C389 C385 1.408 . S
C389 C388 1.404 . S
C389 H401 0.930 . S
C390 C386 1.524 . S
C390 H402 0.956 . S
C390 H403 0.961 . S
C390 H404 0.961 . S
C391 C388 1.539 . S
C391 H405 0.958 . S
C391 H406 0.961 . S
C391 H407 0.960 . S
H392 C376 0.931 . S
H393 C381 0.929 . S
H394 C382 0.960 . S
H395 C382 0.962 . S
H396 C382 0.960 . S
H397 C383 0.961 . S
H398 C383 0.961 . S
H399 C383 0.961 . S
H400 C384 0.931 . S
H401 C389 0.930 . S
H402 C390 0.956 . S
H403 C390 0.961 . S
H404 C390 0.961 . S
H405 C391 0.958 . S
H406 C391 0.961 . S
H407 C391 0.960 . S
C408 C409 1.391 . S
C408 C410 1.394 . S
C408 H424 0.931 . S
C409 C408 1.391 . S
C409 C413 1.376 . S
C410 C408 1.394 . S
C410 C411 1.369 . S
C410 C414 1.531 . S
C411 C410 1.369 . S
C411 C412 1.410 . S
C411 C419 1.503 1_655 S
C412 C411 1.410 . S
C412 C413 1.392 . S
C412 C415 1.511 . S
C413 C409 1.376 . S
C413 C412 1.392 . S
C413 H425 0.929 . S
C414 C410 1.531 . S
C414 H426 0.960 1_655 S
C414 H427 0.962 . S
C414 H428 0.960 . S
C415 C412 1.511 . S
C415 H429 0.961 . S
C415 H430 0.961 1_655 S
C415 H431 0.961 . S
C416 C417 1.370 . S
C416 C418 1.363 . S
C416 H432 0.931 . S
C417 C416 1.370 . S
C417 C421 1.408 . S
C418 C416 1.363 . S
C418 C419 1.370 . S
C418 C422 1.524 . S
C419 C411 1.503 1_455 S
C419 C418 1.370 . S
C419 C420 1.403 . S
C420 C419 1.403 . S
C420 C421 1.404 . S
C420 C423 1.539 . S
C421 C417 1.408 . S
C421 C420 1.404 . S
C421 H433 0.930 . S
C422 C418 1.524 . S
C422 H434 0.956 . S
C422 H435 0.961 . S
C422 H436 0.961 . S
C423 C420 1.539 . S
C423 H437 0.958 . S
C423 H438 0.961 . S
C423 H439 0.960 1_455 S
H424 C408 0.931 . S
H425 C413 0.929 . S
H426 C414 0.960 1_455 S
H427 C414 0.962 . S
H428 C414 0.960 . S
H429 C415 0.961 . S
H430 C415 0.961 1_455 S
H431 C415 0.961 . S
H432 C416 0.931 . S
H433 C421 0.930 . S
H434 C422 0.956 . S
H435 C422 0.961 . S
H436 C422 0.961 . S
H437 C423 0.958 . S
H438 C423 0.961 . S
H439 C423 0.960 1_655 S
C440 C441 1.391 . S
C440 C442 1.394 . S
C440 H456 0.931 . S
C441 C440 1.391 . S
C441 C445 1.376 . S
C442 C440 1.394 . S
C442 C443 1.369 . S
C442 C446 1.531 . S
C443 C442 1.369 . S
C443 C444 1.410 . S
C443 C451 1.503 1_655 S
C444 C443 1.410 . S
C444 C445 1.392 . S
C444 C447 1.511 . S
C445 C441 1.376 . S
C445 C444 1.392 . S
C445 H457 0.929 . S
C446 C442 1.531 . S
C446 H458 0.960 1_655 S
C446 H459 0.962 1_655 S
C446 H460 0.960 . S
C447 C444 1.511 . S
C447 H461 0.961 . S
C447 H462 0.961 1_655 S
C447 H463 0.961 . S
C448 C449 1.370 . S
C448 C450 1.363 . S
C448 H464 0.931 . S
C449 C448 1.370 . S
C449 C453 1.408 . S
C450 C448 1.363 . S
C450 C451 1.370 . S
C450 C454 1.524 . S
C451 C443 1.503 1_455 S
C451 C450 1.370 . S
C451 C452 1.403 . S
C452 C451 1.403 . S
C452 C453 1.404 . S
C452 C455 1.539 . S
C453 C449 1.408 . S
C453 C452 1.404 . S
C453 H465 0.930 . S
C454 C450 1.524 . S
C454 H466 0.956 . S
C454 H467 0.961 . S
C454 H468 0.961 . S
C455 C452 1.539 . S
C455 H469 0.958 . S
C455 H470 0.961 . S
C455 H471 0.960 . S
H456 C440 0.931 . S
H457 C445 0.929 . S
H458 C446 0.960 1_455 S
H459 C446 0.962 1_455 S
H460 C446 0.960 . S
H461 C447 0.961 . S
H462 C447 0.961 1_455 S
H463 C447 0.961 . S
H464 C448 0.931 . S
H465 C453 0.930 . S
H466 C454 0.956 . S
H467 C454 0.961 . S
H468 C454 0.961 . S
H469 C455 0.958 . S
H470 C455 0.961 . S
H471 C455 0.960 . S
C472 C473 1.391 . S
C472 C474 1.394 . S
C472 H488 0.931 . S
C473 C472 1.391 . S
C473 C477 1.376 . S
C474 C472 1.394 . S
C474 C475 1.369 . S
C474 C478 1.531 . S
C475 C474 1.369 . S
C475 C476 1.410 . S
C475 C483 1.503 . S
C476 C475 1.410 . S
C476 C477 1.392 . S
C476 C479 1.511 . S
C477 C473 1.376 . S
C477 C476 1.392 . S
C477 H489 0.929 . S
C478 C474 1.531 . S
C478 H490 0.960 . S
C478 H491 0.962 . S
C478 H492 0.960 . S
C479 C476 1.511 . S
C479 H493 0.961 . S
C479 H494 0.961 . S
C479 H495 0.961 . S
C480 C481 1.370 . S
C480 C482 1.363 . S
C480 H496 0.931 . S
C481 C480 1.370 . S
C481 C485 1.408 . S
C482 C480 1.363 . S
C482 C483 1.370 . S
C482 C486 1.524 . S
C483 C475 1.503 . S
C483 C482 1.370 . S
C483 C484 1.403 . S
C484 C483 1.403 . S
C484 C485 1.404 . S
C484 C487 1.539 . S
C485 C481 1.408 . S
C485 C484 1.404 . S
C485 H497 0.930 . S
C486 C482 1.524 . S
C486 H498 0.956 . S
C486 H499 0.961 . S
C486 H500 0.961 . S
C487 C484 1.539 . S
C487 H501 0.958 . S
C487 H502 0.961 . S
C487 H503 0.960 . S
H488 C472 0.931 . S
H489 C477 0.929 . S
H490 C478 0.960 . S
H491 C478 0.962 . S
H492 C478 0.960 . S
H493 C479 0.961 . S
H494 C479 0.961 . S
H495 C479 0.961 . S
H496 C480 0.931 . S
H497 C485 0.930 . S
H498 C486 0.956 . S
H499 C486 0.961 . S
H500 C486 0.961 . S
H501 C487 0.958 . S
H502 C487 0.961 . S
H503 C487 0.960 . S
C504 C505 1.391 . S
C504 C506 1.394 1_556 S
C504 H520 0.931 1_556 S
C505 C504 1.391 . S
C505 C509 1.376 . S
C506 C504 1.394 1_554 S
C506 C507 1.369 1_554 S
C506 C510 1.531 . S
C507 C506 1.369 1_556 S
C507 C508 1.410 . S
C507 C515 1.503 1_556 S
C508 C507 1.410 . S
C508 C509 1.392 . S
C508 C511 1.511 . S
C509 C505 1.376 . S
C509 C508 1.392 . S
C509 H521 0.929 . S
C510 C506 1.531 . S
C510 H522 0.960 . S
C510 H523 0.962 . S
C510 H524 0.960 . S
C511 C508 1.511 . S
C511 H525 0.961 . S
C511 H526 0.961 . S
C511 H527 0.961 . S
C512 C513 1.370 . S
C512 C514 1.363 . S
C512 H528 0.931 . S
C513 C512 1.370 . S
C513 C517 1.408 . S
C514 C512 1.363 . S
C514 C515 1.370 . S
C514 C518 1.524 . S
C515 C507 1.503 1_554 S
C515 C514 1.370 . S
C515 C516 1.403 1_554 S
C516 C515 1.403 1_556 S
C516 C517 1.404 1_556 S
C516 C519 1.539 . S
C517 C513 1.408 . S
C517 C516 1.404 1_554 S
C517 H529 0.930 . S
C518 C514 1.524 . S
C518 H530 0.956 . S
C518 H531 0.961 . S
C518 H532 0.961 . S
C519 C516 1.539 . S
C519 H533 0.958 . S
C519 H534 0.961 . S
C519 H535 0.960 . S
H520 C504 0.931 1_554 S
H521 C509 0.929 . S
H522 C510 0.960 . S
H523 C510 0.962 . S
H524 C510 0.960 . S
H525 C511 0.961 . S
H526 C511 0.961 . S
H527 C511 0.961 . S
H528 C512 0.931 . S
H529 C517 0.930 . S
H530 C518 0.956 . S
H531 C518 0.961 . S
H532 C518 0.961 . S
H533 C519 0.958 . S
H534 C519 0.961 . S
H535 C519 0.960 . S
C536 C537 1.391 . S
C536 C538 1.394 . S
C536 H552 0.931 . S
C537 C536 1.391 . S
C537 C541 1.376 . S
C538 C536 1.394 . S
C538 C539 1.369 . S
C538 C542 1.531 . S
C539 C538 1.369 . S
C539 C540 1.410 . S
C539 C547 1.503 . S
C540 C539 1.410 . S
C540 C541 1.392 . S
C540 C543 1.511 . S
C541 C537 1.376 . S
C541 C540 1.392 . S
C541 H553 0.929 . S
C542 C538 1.531 . S
C542 H554 0.960 . S
C542 H555 0.962 . S
C542 H556 0.960 . S
C543 C540 1.511 . S
C543 H557 0.961 . S
C543 H558 0.961 . S
C543 H559 0.961 . S
C544 C545 1.370 . S
C544 C546 1.363 . S
C544 H560 0.931 . S
C545 C544 1.370 . S
C545 C549 1.408 . S
C546 C544 1.363 . S
C546 C547 1.370 . S
C546 C550 1.524 . S
C547 C539 1.503 . S
C547 C546 1.370 . S
C547 C548 1.403 . S
C548 C547 1.403 . S
C548 C549 1.404 . S
C548 C551 1.539 . S
C549 C545 1.408 . S
C549 C548 1.404 . S
C549 H561 0.930 . S
C550 C546 1.524 . S
C550 H562 0.956 . S
C550 H563 0.961 . S
C550 H564 0.961 . S
C551 C548 1.539 . S
C551 H565 0.958 . S
C551 H566 0.961 . S
C551 H567 0.960 . S
H552 C536 0.931 . S
H553 C541 0.929 . S
H554 C542 0.960 . S
H555 C542 0.962 . S
H556 C542 0.960 . S
H557 C543 0.961 . S
H558 C543 0.961 . S
H559 C543 0.961 . S
H560 C544 0.931 . S
H561 C549 0.930 . S
H562 C550 0.956 . S
H563 C550 0.961 . S
H564 C550 0.961 . S
H565 C551 0.958 . S
H566 C551 0.961 . S
H567 C551 0.960 . S
C568 C569 1.391 . S
C568 C570 1.394 . S
C568 H584 0.931 . S
C569 C568 1.391 . S
C569 C573 1.376 . S
C570 C568 1.394 . S
C570 C571 1.369 . S
C570 C574 1.531 . S
C571 C570 1.369 . S
C571 C572 1.410 1_554 S
C571 C579 1.503 1_554 S
C572 C571 1.410 1_556 S
C572 C573 1.392 1_556 S
C572 C575 1.511 . S
C573 C569 1.376 . S
C573 C572 1.392 1_554 S
C573 H585 0.929 1_554 S
C574 C570 1.531 . S
C574 H586 0.960 . S
C574 H587 0.962 . S
C574 H588 0.960 . S
C575 C572 1.511 . S
C575 H589 0.961 . S
C575 H590 0.961 . S
C575 H591 0.961 . S
C576 C577 1.370 . S
C576 C578 1.363 . S
C576 H592 0.931 . S
C577 C576 1.370 . S
C577 C581 1.408 . S
C578 C576 1.363 . S
C578 C579 1.370 . S
C578 C582 1.524 . S
C579 C571 1.503 1_556 S
C579 C578 1.370 . S
C579 C580 1.403 1_556 S
C580 C579 1.403 1_554 S
C580 C581 1.404 1_554 S
C580 C583 1.539 . S
C581 C577 1.408 . S
C581 C580 1.404 1_556 S
C581 H593 0.930 . S
C582 C578 1.524 . S
C582 H594 0.956 . S
C582 H595 0.961 . S
C582 H596 0.961 . S
C583 C580 1.539 . S
C583 H597 0.958 . S
C583 H598 0.961 . S
C583 H599 0.960 . S
H584 C568 0.931 . S
H585 C573 0.929 1_556 S
H586 C574 0.960 . S
H587 C574 0.962 . S
H588 C574 0.960 . S
H589 C575 0.961 . S
H590 C575 0.961 . S
H591 C575 0.961 . S
H592 C576 0.931 . S
H593 C581 0.930 . S
H594 C582 0.956 . S
H595 C582 0.961 . S
H596 C582 0.961 . S
H597 C583 0.958 . S
H598 C583 0.961 . S
H599 C583 0.960 . S
C600 C601 1.391 . S
C600 C602 1.394 . S
C600 H616 0.931 . S
C601 C600 1.391 . S
C601 C605 1.376 1_655 S
C602 C600 1.394 . S
C602 C603 1.369 . S
C602 C606 1.531 . S
C603 C602 1.369 . S
C603 C604 1.410 1_655 S
C603 C611 1.503 1_644 S
C604 C603 1.410 1_455 S
C604 C605 1.392 . S
C604 C607 1.511 1_554 S
C605 C601 1.376 1_455 S
C605 C604 1.392 . S
C605 H617 0.929 . S
C606 C602 1.531 . S
C606 H618 0.960 1_544 S
C606 H619 0.962 1_545 S
C606 H620 0.960 . S
C607 C604 1.511 1_556 S
C607 H621 0.961 1_556 S
C607 H622 0.961 . S
C607 H623 0.961 . S
C608 C609 1.370 . S
C608 C610 1.363 . S
C608 H624 0.931 . S
C609 C608 1.370 . S
C609 C613 1.408 . S
C610 C608 1.363 . S
C610 C611 1.370 . S
C610 C614 1.524 1_556 S
C611 C603 1.503 1_466 S
C611 C610 1.370 . S
C611 C612 1.403 1_455 S
C612 C611 1.403 1_655 S
C612 C613 1.404 1_655 S
C612 C615 1.539 1_565 S
C613 C609 1.408 . S
C613 C612 1.404 1_455 S
C613 H625 0.930 . S
C614 C610 1.524 1_554 S
C614 H626 0.956 . S
C614 H627 0.961 . S
C614 H628 0.961 . S
C615 C612 1.539 1_545 S
C615 H629 0.958 . S
C615 H630 0.961 1_545 S
C615 H631 0.960 . S
H616 C600 0.931 . S
H617 C605 0.929 . S
H618 C606 0.960 1_566 S
H619 C606 0.962 1_565 S
H620 C606 0.960 . S
H621 C607 0.961 1_554 S
H622 C607 0.961 . S
H623 C607 0.961 . S
H624 C608 0.931 . S
H625 C613 0.930 . S
H626 C614 0.956 . S
H627 C614 0.961 . S
H628 C614 0.961 . S
H629 C615 0.958 . S
H630 C615 0.961 1_565 S
H631 C615 0.960 . S
C632 C633 1.391 1_655 S
C632 C634 1.394 . S
C632 H648 0.931 . S
C633 C632 1.391 1_455 S
C633 C637 1.376 . S
C634 C632 1.394 . S
C634 C635 1.369 1_655 S
C634 C638 1.531 1_545 S
C635 C634 1.369 1_455 S
C635 C636 1.410 . S
C635 C643 1.503 1_545 S
C636 C635 1.410 . S
C636 C637 1.392 . S
C636 C639 1.511 . S
C637 C633 1.376 . S
C637 C636 1.392 . S
C637 H649 0.929 . S
C638 C634 1.531 1_565 S
C638 H650 0.960 . S
C638 H651 0.963 . S
C638 H652 0.960 . S
C639 C636 1.511 . S
C639 H653 0.961 . S
C639 H654 0.961 . S
C639 H655 0.961 . S
C640 C641 1.370 . S
C640 C642 1.363 . S
C640 H656 0.931 . S
C641 C640 1.370 . S
C641 C645 1.408 1_655 S
C642 C640 1.363 . S
C642 C643 1.370 1_655 S
C642 C646 1.524 1_565 S
C643 C635 1.503 1_565 S
C643 C642 1.370 1_455 S
C643 C644 1.403 . S
C644 C643 1.403 . S
C644 C645 1.404 . S
C644 C647 1.539 . S
C645 C641 1.408 1_455 S
C645 C644 1.404 . S
C645 H657 0.930 . S
C646 C642 1.524 1_545 S
C646 H658 0.956 . S
C646 H659 0.961 . S
C646 H660 0.961 . S
C647 C644 1.539 . S
C647 H661 0.958 . S
C647 H662 0.961 . S
C647 H663 0.960 . S
H648 C632 0.931 . S
H649 C637 0.929 . S
H650 C638 0.960 . S
H651 C638 0.963 . S
H652 C638 0.960 . S
H653 C639 0.961 . S
H654 C639 0.961 . S
H655 C639 0.961 . S
H656 C640 0.931 . S
H657 C645 0.930 . S
H658 C646 0.956 . S
H659 C646 0.961 . S
H660 C646 0.961 . S
H661 C647 0.958 . S
H662 C647 0.961 . S
H663 C647 0.960 . S
C664 C665 1.391 . S
C664 C666 1.394 . S
C664 H680 0.931 . S
C665 C664 1.391 . S
C665 C669 1.376 . S
C666 C664 1.394 . S
C666 C667 1.369 . S
C666 C670 1.531 . S
C667 C666 1.369 . S
C667 C668 1.410 . S
C667 C675 1.503 1_554 S
C668 C667 1.410 . S
C668 C669 1.392 . S
C668 C671 1.511 1_554 S
C669 C665 1.376 . S
C669 C668 1.392 . S
C669 H681 0.929 . S
C670 C666 1.531 . S
C670 H682 0.960 . S
C670 H683 0.962 . S
C670 H684 0.960 . S
C671 C668 1.511 1_556 S
C671 H685 0.961 . S
C671 H686 0.961 . S
C671 H687 0.961 1_556 S
C672 C673 1.370 . S
C672 C674 1.363 . S
C672 H688 0.931 . S
C673 C672 1.370 . S
C673 C677 1.408 . S
C674 C672 1.363 . S
C674 C675 1.370 . S
C674 C678 1.524 . S
C675 C667 1.503 1_556 S
C675 C674 1.370 . S
C675 C676 1.403 1_556 S
C676 C675 1.403 1_554 S
C676 C677 1.404 1_554 S
C676 C679 1.539 . S
C677 C673 1.408 . S
C677 C676 1.404 1_556 S
C677 H689 0.930 . S
C678 C674 1.524 . S
C678 H690 0.956 . S
C678 H691 0.961 . S
C678 H692 0.961 . S
C679 C676 1.539 . S
C679 H693 0.958 . S
C679 H694 0.961 . S
C679 H695 0.960 . S
H680 C664 0.931 . S
H681 C669 0.929 . S
H682 C670 0.960 . S
H683 C670 0.962 . S
H684 C670 0.960 . S
H685 C671 0.961 . S
H686 C671 0.961 . S
H687 C671 0.961 1_554 S
H688 C672 0.931 . S
H689 C677 0.930 . S
H690 C678 0.956 . S
H691 C678 0.961 . S
H692 C678 0.961 . S
H693 C679 0.958 . S
H694 C679 0.961 . S
H695 C679 0.960 . S
C696 C697 1.391 . S
C696 C698 1.394 . S
C696 H712 0.931 . S
C697 C696 1.391 . S
C697 C701 1.376 . S
C698 C696 1.394 . S
C698 C699 1.369 . S
C698 C702 1.531 . S
C699 C698 1.369 . S
C699 C700 1.410 . S
C699 C707 1.503 . S
C700 C699 1.410 . S
C700 C701 1.392 . S
C700 C703 1.511 . S
C701 C697 1.376 . S
C701 C700 1.392 . S
C701 H713 0.929 . S
C702 C698 1.531 . S
C702 H714 0.960 . S
C702 H715 0.962 . S
C702 H716 0.960 . S
C703 C700 1.511 . S
C703 H717 0.961 . S
C703 H718 0.961 . S
C703 H719 0.961 . S
C704 C705 1.370 . S
C704 C706 1.363 . S
C704 H720 0.931 . S
C705 C704 1.370 . S
C705 C709 1.408 . S
C706 C704 1.363 . S
C706 C707 1.370 . S
C706 C710 1.524 . S
C707 C699 1.503 . S
C707 C706 1.370 . S
C707 C708 1.403 . S
C708 C707 1.403 . S
C708 C709 1.404 . S
C708 C711 1.539 . S
C709 C705 1.408 . S
C709 C708 1.404 . S
C709 H721 0.930 . S
C710 C706 1.524 . S
C710 H722 0.956 . S
C710 H723 0.961 . S
C710 H724 0.961 . S
C711 C708 1.539 . S
C711 H725 0.958 . S
C711 H726 0.961 . S
C711 H727 0.960 . S
H712 C696 0.931 . S
H713 C701 0.929 . S
H714 C702 0.960 . S
H715 C702 0.962 . S
H716 C702 0.960 . S
H717 C703 0.961 . S
H718 C703 0.961 . S
H719 C703 0.961 . S
H720 C704 0.931 . S
H721 C709 0.930 . S
H722 C710 0.956 . S
H723 C710 0.961 . S
H724 C710 0.961 . S
H725 C711 0.958 . S
H726 C711 0.961 . S
H727 C711 0.960 . S
C217 C5 1.893 1_556 S
C225 C13 1.868 . S
C249 C59 1.881 . S
C257 C67 1.874 1_554 S
C281 C113 1.872 1_556 S
C289 C121 1.878 . S
C313 C175 1.848 1_554 S
C321 C167 1.885 . S
C345 C10 0.695 . S
C353 C27 0.716 . S
C377 C64 0.725 . S
C385 C81 0.706 . S
C409 C135 0.726 . S
C417 C118 0.704 . S
C441 C189 0.704 . S
C449 C172 0.712 . S
C473 C190 1.566 . S
C481 C35 1.533 . S
C505 C194 2.164 . S
C513 C22 2.169 . S
C537 C143 1.546 . S
C545 C82 1.537 . S
C569 C130 2.160 . S
C577 C86 2.171 . S
C601 C28 0.602 . S
C609 C89 0.583 . S
C633 C32 1.962 . S
C641 C76 1.986 . S
C665 C136 0.612 . S
C673 C197 0.576 . S
C697 C184 2.002 . S
C705 C140 1.969 . S
