# Generated by pormake.
# Topology vbv, (6)-cn, num edge types: 1
# Building blocks:
#     Node 0, Type 0, BuildingBlock: IZENUY_clean_sbu_0, # of connection points: 6
#     Node 1, Type 0, BuildingBlock: IZENUY_clean_sbu_0, # of connection points: 6
#     Node 2, Type 0, BuildingBlock: IZENUY_clean_sbu_0, # of connection points: 6
#     Node 3, Type 0, BuildingBlock: IZENUY_clean_sbu_0, # of connection points: 6
#     Node 4, Type 0, BuildingBlock: IZENUY_clean_sbu_0, # of connection points: 6
#     Node 5, Type 0, BuildingBlock: IZENUY_clean_sbu_0, # of connection points: 6
#     Node 6, Type 0, BuildingBlock: IZENUY_clean_sbu_0, # of connection points: 6
#     Node 7, Type 0, BuildingBlock: IZENUY_clean_sbu_0, # of connection points: 6
#     Node 8, Type 0, BuildingBlock: IZENUY_clean_sbu_0, # of connection points: 6
#     Node 9, Type 0, BuildingBlock: IZENUY_clean_sbu_0, # of connection points: 6
#     Node 10, Type 0, BuildingBlock: IZENUY_clean_sbu_0, # of connection points: 6
#     Node 11, Type 0, BuildingBlock: IZENUY_clean_sbu_0, # of connection points: 6
#     Node 12, Type 0, BuildingBlock: IZENUY_clean_sbu_0, # of connection points: 6
#     Node 13, Type 0, BuildingBlock: IZENUY_clean_sbu_0, # of connection points: 6
#     Node 14, Type 0, BuildingBlock: IZENUY_clean_sbu_0, # of connection points: 6
#     Node 15, Type 0, BuildingBlock: IZENUY_clean_sbu_0, # of connection points: 6
#     Edge 16, Type (0, 0), BuildingBlock: CIFDUS_clean_linker_0, # of connection points: 2
#     Edge 17, Type (0, 0), BuildingBlock: CIFDUS_clean_linker_0, # of connection points: 2
#     Edge 18, Type (0, 0), BuildingBlock: CIFDUS_clean_linker_0, # of connection points: 2
#     Edge 19, Type (0, 0), BuildingBlock: CIFDUS_clean_linker_0, # of connection points: 2
#     Edge 20, Type (0, 0), BuildingBlock: CIFDUS_clean_linker_0, # of connection points: 2
#     Edge 21, Type (0, 0), BuildingBlock: CIFDUS_clean_linker_0, # of connection points: 2
#     Edge 22, Type (0, 0), BuildingBlock: CIFDUS_clean_linker_0, # of connection points: 2
#     Edge 23, Type (0, 0), BuildingBlock: CIFDUS_clean_linker_0, # of connection points: 2
#     Edge 24, Type (0, 0), BuildingBlock: CIFDUS_clean_linker_0, # of connection points: 2
#     Edge 25, Type (0, 0), BuildingBlock: CIFDUS_clean_linker_0, # of connection points: 2
#     Edge 26, Type (0, 0), BuildingBlock: CIFDUS_clean_linker_0, # of connection points: 2
#     Edge 27, Type (0, 0), BuildingBlock: CIFDUS_clean_linker_0, # of connection points: 2
#     Edge 28, Type (0, 0), BuildingBlock: CIFDUS_clean_linker_0, # of connection points: 2
#     Edge 29, Type (0, 0), BuildingBlock: CIFDUS_clean_linker_0, # of connection points: 2
#     Edge 30, Type (0, 0), BuildingBlock: CIFDUS_clean_linker_0, # of connection points: 2
#     Edge 31, Type (0, 0), BuildingBlock: CIFDUS_clean_linker_0, # of connection points: 2
#     Edge 32, Type (0, 0), BuildingBlock: CIFDUS_clean_linker_0, # of connection points: 2
#     Edge 33, Type (0, 0), BuildingBlock: CIFDUS_clean_linker_0, # of connection points: 2
#     Edge 34, Type (0, 0), BuildingBlock: CIFDUS_clean_linker_0, # of connection points: 2
#     Edge 35, Type (0, 0), BuildingBlock: CIFDUS_clean_linker_0, # of connection points: 2
#     Edge 36, Type (0, 0), BuildingBlock: CIFDUS_clean_linker_0, # of connection points: 2
#     Edge 37, Type (0, 0), BuildingBlock: CIFDUS_clean_linker_0, # of connection points: 2
#     Edge 38, Type (0, 0), BuildingBlock: CIFDUS_clean_linker_0, # of connection points: 2
#     Edge 39, Type (0, 0), BuildingBlock: CIFDUS_clean_linker_0, # of connection points: 2
#     Edge 40, Type (0, 0), BuildingBlock: CIFDUS_clean_linker_0, # of connection points: 2
#     Edge 41, Type (0, 0), BuildingBlock: CIFDUS_clean_linker_0, # of connection points: 2
#     Edge 42, Type (0, 0), BuildingBlock: CIFDUS_clean_linker_0, # of connection points: 2
#     Edge 43, Type (0, 0), BuildingBlock: CIFDUS_clean_linker_0, # of connection points: 2
#     Edge 44, Type (0, 0), BuildingBlock: CIFDUS_clean_linker_0, # of connection points: 2
#     Edge 45, Type (0, 0), BuildingBlock: CIFDUS_clean_linker_0, # of connection points: 2
#     Edge 46, Type (0, 0), BuildingBlock: CIFDUS_clean_linker_0, # of connection points: 2
#     Edge 47, Type (0, 0), BuildingBlock: CIFDUS_clean_linker_0, # of connection points: 2
#     Edge 48, Type (0, 0), BuildingBlock: CIFDUS_clean_linker_0, # of connection points: 2
#     Edge 49, Type (0, 0), BuildingBlock: CIFDUS_clean_linker_0, # of connection points: 2
#     Edge 50, Type (0, 0), BuildingBlock: CIFDUS_clean_linker_0, # of connection points: 2
#     Edge 51, Type (0, 0), BuildingBlock: CIFDUS_clean_linker_0, # of connection points: 2
#     Edge 52, Type (0, 0), BuildingBlock: CIFDUS_clean_linker_0, # of connection points: 2
#     Edge 53, Type (0, 0), BuildingBlock: CIFDUS_clean_linker_0, # of connection points: 2
#     Edge 54, Type (0, 0), BuildingBlock: CIFDUS_clean_linker_0, # of connection points: 2
#     Edge 55, Type (0, 0), BuildingBlock: CIFDUS_clean_linker_0, # of connection points: 2
#     Edge 56, Type (0, 0), BuildingBlock: CIFDUS_clean_linker_0, # of connection points: 2
#     Edge 57, Type (0, 0), BuildingBlock: CIFDUS_clean_linker_0, # of connection points: 2
#     Edge 58, Type (0, 0), BuildingBlock: CIFDUS_clean_linker_0, # of connection points: 2
#     Edge 59, Type (0, 0), BuildingBlock: CIFDUS_clean_linker_0, # of connection points: 2
#     Edge 60, Type (0, 0), BuildingBlock: CIFDUS_clean_linker_0, # of connection points: 2
#     Edge 61, Type (0, 0), BuildingBlock: CIFDUS_clean_linker_0, # of connection points: 2
#     Edge 62, Type (0, 0), BuildingBlock: CIFDUS_clean_linker_0, # of connection points: 2
#     Edge 63, Type (0, 0), BuildingBlock: CIFDUS_clean_linker_0, # of connection points: 2
# Relax obj value: 0.262
# Max RMSD: 0.241
# Mean RMSD: 0.241
data_MOF--net-vbv--node1-IZENUY_clean_sbu_0--edge1-CIFDUS_clean_linker_0
_symmetry_space_group_name_H-M    P1
_symmetry_Int_Tables_number       1
_symmetry_cell_setting            triclinic
loop_
_symmetry_equiv_pos_as_xyz
'x, y, z'
_cell_length_a     46.695031
_cell_length_b     23.319056
_cell_length_c     41.028601
_cell_angle_alpha  89.94458
_cell_angle_beta   89.957934
_cell_angle_gamma 90.172056
loop_
_atom_site_label
_atom_site_type_symbol
_atom_site_fract_x
_atom_site_fract_y
_atom_site_fract_z
_atom_type_partial_charge
Fe0 Fe 0.13507 0.40976 0.12217 0.0
Fe1 Fe 0.17221 0.30192 0.12157 0.0
O2 O 0.14671 0.34618 0.10261 0.0
Fe3 Fe 0.13221 0.32695 0.06443 0.0
O4 O 0.14533 0.3927 0.04623 0.0
O5 O 0.12712 0.44873 0.0838 0.0
O6 O 0.17139 0.44013 0.12031 0.0
C7 C 0.19342 0.4147 0.13132 0.0
C8 C 0.08515 0.35884 0.10138 0.0
O9 O 0.19166 0.36259 0.14053 0.0
C10 C 0.13456 0.22091 0.09053 0.0
O11 O 0.141 0.38306 0.1639 0.0
O12 O 0.14928 0.29141 0.15679 0.0
O13 O 0.09692 0.35744 0.07354 0.0
O14 O 0.09873 0.38012 0.12521 0.0
C15 C 0.19065 0.29416 0.05942 0.0
O16 O 0.15807 0.2337 0.10438 0.0
O17 O 0.11845 0.25994 0.08023 0.0
C18 C 0.1413 0.33219 0.1748 0.0
O19 O 0.19642 0.30987 0.08795 0.0
O20 O 0.16502 0.29241 0.04931 0.0
C21 C 0.13818 0.44188 0.05579 0.0
Fe22 Fe 0.39438 0.698 0.06518 0.0
Fe23 Fe 0.3928 0.62681 0.12797 0.0
O24 O 0.38009 0.68515 0.10444 0.0
Fe25 Fe 0.35315 0.72966 0.12068 0.0
O26 O 0.32949 0.71261 0.08781 0.0
O27 O 0.36032 0.72236 0.04753 0.0
O28 O 0.3848 0.62674 0.05131 0.0
C29 C 0.39394 0.58148 0.06417 0.0
C30 C 0.38767 0.80867 0.08378 0.0
O31 O 0.40337 0.58221 0.09306 0.0
C32 C 0.38406 0.71226 0.17556 0.0
O33 O 0.43081 0.67675 0.07725 0.0
O34 O 0.42817 0.66045 0.13007 0.0
O35 O 0.3652 0.79603 0.0997 0.0
O36 O 0.40488 0.77021 0.07529 0.0
C37 C 0.33446 0.61763 0.13542 0.0
O38 O 0.38506 0.65988 0.16758 0.0
O39 O 0.37546 0.74913 0.15529 0.0
C40 C 0.44189 0.67911 0.10554 0.0
O41 O 0.35727 0.59244 0.12649 0.0
O42 O 0.33533 0.67056 0.14296 0.0
C43 C 0.33482 0.71887 0.05801 0.0
Fe44 Fe 0.63696 0.64216 0.40182 0.0
Fe45 Fe 0.67656 0.74528 0.41065 0.0
O46 O 0.65059 0.69804 0.42648 0.0
Fe47 Fe 0.63775 0.70635 0.46671 0.0
O48 O 0.64994 0.63555 0.47791 0.0
O49 O 0.62937 0.59326 0.43634 0.0
O50 O 0.67265 0.60905 0.39944 0.0
C51 C 0.6952 0.63575 0.39083 0.0
C52 C 0.58845 0.68681 0.43008 0.0
O53 O 0.69419 0.68957 0.38578 0.0
C54 C 0.64092 0.81818 0.44914 0.0
O55 O 0.64216 0.68014 0.36272 0.0
O56 O 0.65306 0.76729 0.37809 0.0
O57 O 0.60156 0.68069 0.45689 0.0
O58 O 0.60107 0.67474 0.40356 0.0
C59 C 0.69678 0.73468 0.47196 0.0
O60 O 0.66387 0.8084 0.43356 0.0
O61 O 0.62496 0.77769 0.45832 0.0
C62 C 0.64313 0.73356 0.35704 0.0
O63 O 0.70152 0.72681 0.44216 0.0
O64 O 0.6715 0.73454 0.48309 0.0
C65 C 0.6408 0.59068 0.46443 0.0
Fe66 Fe 0.89307 0.35185 0.46237 0.0
Fe67 Fe 0.89411 0.42383 0.39978 0.0
O68 O 0.88027 0.36552 0.42256 0.0
Fe69 Fe 0.85368 0.32142 0.40499 0.0
O70 O 0.82896 0.33957 0.43651 0.0
O71 O 0.85807 0.32729 0.47821 0.0
O72 O 0.88352 0.42315 0.47648 0.0
C73 C 0.8933 0.46864 0.46425 0.0
C74 C 0.88643 0.24161 0.44311 0.0
O75 O 0.90336 0.46832 0.43552 0.0
C76 C 0.88659 0.33804 0.35154 0.0
O77 O 0.93014 0.37277 0.45214 0.0
O78 O 0.92941 0.39006 0.39936 0.0
O79 O 0.86434 0.25464 0.42666 0.0
O80 O 0.90361 0.27998 0.45199 0.0
C81 C 0.83614 0.43348 0.38935 0.0
O82 O 0.88786 0.39055 0.35958 0.0
O83 O 0.87722 0.30141 0.37161 0.0
C84 C 0.94222 0.37083 0.42433 0.0
O85 O 0.85867 0.45845 0.39953 0.0
O86 O 0.8372 0.38064 0.38168 0.0
C87 C 0.83313 0.33337 0.46648 0.0
Fe88 Fe 0.8927 0.68137 0.96342 0.0
Fe89 Fe 0.8533 0.71004 0.90566 0.0
O90 O 0.88125 0.66914 0.92298 0.0
Fe91 Fe 0.89829 0.61518 0.89972 0.0
O92 O 0.90801 0.56984 0.93501 0.0
O93 O 0.88409 0.60843 0.97521 0.0
O94 O 0.85756 0.70228 0.97882 0.0
C95 C 0.83259 0.69713 0.96736 0.0
C96 C 0.94365 0.66969 0.92836 0.0
O97 O 0.82857 0.68967 0.93738 0.0
C98 C 0.88711 0.70007 0.85188 0.0
O99 O 0.90187 0.75502 0.95463 0.0
O100 O 0.86289 0.77735 0.92733 0.0
O101 O 0.93214 0.65527 0.90159 0.0
O102 O 0.93014 0.66351 0.9549 0.0
C103 C 0.84116 0.59487 0.88777 0.0
O104 O 0.87587 0.73411 0.87196 0.0
O105 O 0.89151 0.64846 0.85985 0.0
C106 C 0.88442 0.79209 0.94445 0.0
O107 O 0.83844 0.64851 0.88246 0.0
O108 O 0.86492 0.57464 0.89735 0.0
C109 C 0.89614 0.5655 0.96274 0.0
Fe110 Fe 0.63601 0.33756 0.96434 0.0
Fe111 Fe 0.67687 0.3117 0.90826 0.0
O112 O 0.64882 0.35276 0.92483 0.0
Fe113 Fe 0.63323 0.40904 0.902 0.0
O114 O 0.62491 0.4538 0.93822 0.0
O115 O 0.64638 0.40753 0.97796 0.0
O116 O 0.67039 0.31242 0.98022 0.0
C117 C 0.69569 0.32096 0.97035 0.0
C118 C 0.58612 0.35731 0.92871 0.0
O119 O 0.70068 0.33171 0.94084 0.0
C120 C 0.64228 0.3223 0.85528 0.0
O121 O 0.62548 0.2661 0.95265 0.0
O122 O 0.66637 0.24451 0.92934 0.0
O123 O 0.59846 0.37268 0.90274 0.0
O124 O 0.59919 0.35999 0.95565 0.0
C125 C 0.69069 0.42595 0.8902 0.0
O126 O 0.65454 0.28886 0.87483 0.0
O127 O 0.63925 0.37495 0.86207 0.0
C128 C 0.64343 0.22915 0.94365 0.0
O129 O 0.69278 0.37227 0.8851 0.0
O130 O 0.66728 0.44705 0.90002 0.0
C131 C 0.63752 0.45344 0.96567 0.0
Fe132 Fe 0.39805 0.41764 0.62755 0.0
Fe133 Fe 0.39352 0.3551 0.56154 0.0
O134 O 0.38149 0.36524 0.60228 0.0
Fe135 Fe 0.35271 0.32234 0.61689 0.0
O136 O 0.33093 0.38501 0.62469 0.0
O137 O 0.36404 0.44112 0.64641 0.0
O138 O 0.39216 0.47482 0.59798 0.0
C139 C 0.39911 0.47438 0.56833 0.0
C140 C 0.38764 0.33275 0.67325 0.0
O141 O 0.40612 0.42826 0.55467 0.0
C142 C 0.38165 0.24197 0.5815 0.0
O143 O 0.43451 0.40198 0.61213 0.0
O144 O 0.42804 0.33242 0.57615 0.0
O145 O 0.36455 0.32004 0.65907 0.0
O146 O 0.4055 0.36631 0.66017 0.0
C147 C 0.33597 0.35232 0.55353 0.0
O148 O 0.38377 0.27969 0.55958 0.0
O149 O 0.37236 0.25534 0.60949 0.0
C150 C 0.4437 0.35901 0.59612 0.0
O151 O 0.35903 0.37665 0.54511 0.0
O152 O 0.33525 0.31831 0.57751 0.0
C153 C 0.33801 0.43049 0.63932 0.0
Fe154 Fe 0.1385 0.64105 0.63015 0.0
Fe155 Fe 0.1436 0.70256 0.56396 0.0
O156 O 0.15545 0.69292 0.60478 0.0
Fe157 Fe 0.18433 0.73571 0.61913 0.0
O158 O 0.20565 0.67315 0.6284 0.0
O159 O 0.17222 0.6166 0.64917 0.0
O160 O 0.14413 0.58363 0.60085 0.0
C161 C 0.13669 0.58407 0.57142 0.0
C162 C 0.14818 0.72922 0.67424 0.0
O163 O 0.12974 0.63026 0.55785 0.0
C164 C 0.15642 0.81545 0.58239 0.0
O165 O 0.10221 0.65816 0.6145 0.0
O166 O 0.10949 0.7276 0.57846 0.0
O167 O 0.17167 0.74132 0.66078 0.0
O168 O 0.1313 0.69251 0.66241 0.0
C169 C 0.20119 0.70122 0.55653 0.0
O170 O 0.15453 0.77719 0.56086 0.0
O171 O 0.16534 0.80278 0.61053 0.0
C172 C 0.09352 0.70176 0.59854 0.0
O173 O 0.17779 0.67833 0.54805 0.0
O174 O 0.20224 0.73652 0.5799 0.0
C175 C 0.19834 0.6274 0.64261 0.0
Fe176 Fe 0.63578 0.90651 0.12596 0.0
Fe177 Fe 0.67349 0.8023 0.11347 0.0
O178 O 0.64784 0.85164 0.09971 0.0
Fe179 Fe 0.63392 0.84639 0.05986 0.0
O180 O 0.64704 0.917 0.04982 0.0
O181 O 0.62805 0.95803 0.09274 0.0
O182 O 0.672 0.93752 0.12778 0.0
C183 C 0.69424 0.90911 0.13524 0.0
C184 C 0.58599 0.86633 0.09856 0.0
O185 O 0.69247 0.85509 0.13914 0.0
C186 C 0.63555 0.73367 0.07503 0.0
O187 O 0.64135 0.86546 0.1639 0.0
O188 O 0.65053 0.77878 0.14637 0.0
O189 O 0.59848 0.87346 0.07144 0.0
O190 O 0.59944 0.87596 0.12484 0.0
C191 C 0.69251 0.81757 0.05178 0.0
O192 O 0.65937 0.74167 0.08929 0.0
O193 O 0.61998 0.77549 0.06752 0.0
C194 C 0.64173 0.81166 0.1685 0.0
O195 O 0.69781 0.82273 0.08164 0.0
O196 O 0.66692 0.81757 0.04153 0.0
C197 C 0.63865 0.96147 0.06425 0.0
Fe198 Fe 0.89492 0.18181 0.06181 0.0
Fe199 Fe 0.89569 0.11378 0.12557 0.0
O200 O 0.88208 0.17107 0.10195 0.0
Fe201 Fe 0.85592 0.21668 0.11884 0.0
O202 O 0.83097 0.20006 0.08679 0.0
O203 O 0.86091 0.20779 0.04562 0.0
O204 O 0.8838 0.11038 0.04944 0.0
C205 C 0.89344 0.06536 0.06223 0.0
C206 C 0.89043 0.2935 0.08077 0.0
O207 O 0.90438 0.06727 0.0905 0.0
C208 C 0.88827 0.20076 0.17299 0.0
O209 O 0.93136 0.1583 0.07172 0.0
O210 O 0.93137 0.14773 0.125 0.0
O211 O 0.86819 0.28164 0.09728 0.0
O212 O 0.90666 0.25421 0.07067 0.0
C213 C 0.83745 0.10553 0.13591 0.0
O214 O 0.88972 0.14826 0.16533 0.0
O215 O 0.87919 0.23673 0.15253 0.0
C216 C 0.94411 0.16232 0.09889 0.0
O217 O 0.85999 0.07961 0.12664 0.0
O218 O 0.83854 0.15883 0.14231 0.0
C219 C 0.83569 0.20622 0.05679 0.0
Fe220 Fe 0.17394 0.24245 0.41163 0.0
Fe221 Fe 0.13609 0.20871 0.47012 0.0
O222 O 0.14861 0.19635 0.43005 0.0
Fe223 Fe 0.13518 0.13706 0.408 0.0
O224 O 0.17107 0.10442 0.40724 0.0
O225 O 0.19211 0.18346 0.38973 0.0
O226 O 0.19941 0.23034 0.44363 0.0
C227 C 0.19496 0.24006 0.47331 0.0
C228 C 0.14118 0.22022 0.35846 0.0
O229 O 0.16993 0.23867 0.48513 0.0
C230 C 0.08664 0.18487 0.43436 0.0
O231 O 0.16081 0.30835 0.43188 0.0
O232 O 0.12315 0.27901 0.45951 0.0
O233 O 0.14055 0.16846 0.36753 0.0
O234 O 0.15017 0.25835 0.37768 0.0
C235 C 0.13874 0.09287 0.47207 0.0
O236 O 0.09978 0.18225 0.46137 0.0
O237 O 0.09925 0.16967 0.40831 0.0
C238 C 0.13874 0.31901 0.44894 0.0
O239 O 0.14834 0.13885 0.48391 0.0
O240 O 0.12724 0.09304 0.44412 0.0
C241 C 0.19344 0.13046 0.39726 0.0
Fe242 Fe 0.39403 0.92398 0.40466 0.0
Fe243 Fe 0.35582 0.81831 0.41115 0.0
O244 O 0.38234 0.86379 0.4275 0.0
Fe245 Fe 0.3976 0.84967 0.46616 0.0
O246 O 0.3868 0.9193 0.48173 0.0
O247 O 0.40435 0.96716 0.44038 0.0
O248 O 0.35811 0.95632 0.40708 0.0
C249 C 0.33542 0.93034 0.39818 0.0
C250 C 0.44407 0.87347 0.42546 0.0
O251 O 0.3365 0.87738 0.39063 0.0
C252 C 0.39266 0.73984 0.44515 0.0
O253 O 0.38614 0.89281 0.36451 0.0
O254 O 0.37756 0.80261 0.37559 0.0
O255 O 0.43333 0.87531 0.4539 0.0
O256 O 0.42983 0.89219 0.40137 0.0
C257 C 0.33889 0.81955 0.47419 0.0
O258 O 0.36961 0.75165 0.43021 0.0
O259 O 0.40936 0.77922 0.45401 0.0
C260 C 0.38529 0.84086 0.35568 0.0
O261 O 0.33268 0.83114 0.44515 0.0
O262 O 0.36461 0.82004 0.48401 0.0
C263 C 0.39523 0.96588 0.46948 0.0
Fe264 Fe 0.34598 0.23038 0.91745 0.0
Fe265 Fe 0.38813 0.13204 0.90052 0.0
O266 O 0.37447 0.18387 0.92827 0.0
Fe267 Fe 0.389 0.19007 0.96832 0.0
O268 O 0.3553 0.16758 0.98649 0.0
O269 O 0.33117 0.23142 0.95838 0.0
O270 O 0.32236 0.1711 0.90965 0.0
C271 C 0.32667 0.12501 0.89439 0.0
C272 C 0.37823 0.30521 0.9525 0.0
O273 O 0.35186 0.10927 0.88612 0.0
C274 C 0.43663 0.18988 0.92882 0.0
O275 O 0.35464 0.23584 0.87452 0.0
O276 O 0.39288 0.18317 0.86711 0.0
O277 O 0.38029 0.2656 0.9733 0.0
O278 O 0.36773 0.29457 0.92478 0.0
C279 C 0.39328 0.07201 0.95888 0.0
O280 O 0.42611 0.14917 0.91148 0.0
O281 O 0.42254 0.21258 0.95167 0.0
C282 C 0.37517 0.21964 0.857 0.0
O283 O 0.38469 0.07338 0.92987 0.0
O284 O 0.40162 0.11699 0.97256 0.0
C285 C 0.33215 0.19294 0.98007 0.0
Fe286 Fe 0.13425 0.90983 0.90464 0.0
Fe287 Fe 0.13083 0.84017 0.96811 0.0
O288 O 0.14544 0.85105 0.92888 0.0
Fe289 Fe 0.17102 0.80274 0.91348 0.0
O290 O 0.19026 0.8576 0.88916 0.0
O291 O 0.17049 0.93899 0.90389 0.0
O292 O 0.12706 0.9582 0.93967 0.0
C293 C 0.13688 0.95631 0.96854 0.0
C294 C 0.13869 0.81851 0.85951 0.0
O295 O 0.14314 0.90941 0.9817 0.0
C296 C 0.13366 0.729 0.94995 0.0
O297 O 0.09787 0.88218 0.90398 0.0
O298 O 0.09528 0.86728 0.95671 0.0
O299 O 0.14763 0.78305 0.88029 0.0
O300 O 0.1394 0.87201 0.86542 0.0
C301 C 0.18979 0.81387 0.9754 0.0
O302 O 0.11755 0.76993 0.95744 0.0
O303 O 0.15743 0.73905 0.93601 0.0
C304 C 0.08385 0.86607 0.92866 0.0
O305 O 0.16414 0.81082 0.98559 0.0
O306 O 0.19522 0.8203 0.94564 0.0
C307 C 0.19217 0.91128 0.89424 0.0
Fe308 Fe 0.89828 0.92111 0.62636 0.0
Fe309 Fe 0.89328 0.85764 0.56072 0.0
O310 O 0.88202 0.86695 0.6019 0.0
Fe311 Fe 0.85429 0.82202 0.61736 0.0
O312 O 0.83186 0.88336 0.62704 0.0
O313 O 0.86457 0.94368 0.6456 0.0
O314 O 0.8912 0.97719 0.59648 0.0
C315 C 0.8977 0.97677 0.56677 0.0
C316 C 0.8904 0.83567 0.67287 0.0
O317 O 0.90541 0.93096 0.55341 0.0
C318 C 0.88247 0.74344 0.57952 0.0
O319 O 0.93463 0.90593 0.61035 0.0
O320 O 0.92817 0.83586 0.57456 0.0
O321 O 0.86793 0.81816 0.65896 0.0
O322 O 0.90662 0.87227 0.65966 0.0
C323 C 0.83562 0.85316 0.55452 0.0
O324 O 0.88396 0.78217 0.55822 0.0
O325 O 0.8742 0.75572 0.60811 0.0
C326 C 0.94383 0.86276 0.59445 0.0
O327 O 0.85831 0.87827 0.54548 0.0
O328 O 0.83553 0.81931 0.57867 0.0
C329 C 0.8386 0.9305 0.64016 0.0
Fe330 Fe 0.6396 0.14221 0.62821 0.0
Fe331 Fe 0.644 0.20043 0.56111 0.0
O332 O 0.6563 0.19291 0.60186 0.0
Fe333 Fe 0.68524 0.23651 0.61516 0.0
O334 O 0.70664 0.17436 0.62545 0.0
O335 O 0.67334 0.11918 0.64755 0.0
O336 O 0.64535 0.08347 0.59991 0.0
C337 C 0.63748 0.08263 0.57066 0.0
C338 C 0.64924 0.23277 0.67052 0.0
O339 O 0.63003 0.12804 0.55666 0.0
C340 C 0.65717 0.31423 0.57694 0.0
O341 O 0.60321 0.15789 0.6125 0.0
O342 O 0.61002 0.22632 0.57579 0.0
O343 O 0.67266 0.24448 0.65675 0.0
O344 O 0.63242 0.19527 0.65946 0.0
C345 C 0.70145 0.19974 0.55249 0.0
O346 O 0.65493 0.27456 0.55638 0.0
O347 O 0.66621 0.30326 0.60531 0.0
C348 C 0.59427 0.20096 0.59631 0.0
O349 O 0.67809 0.17558 0.54498 0.0
O350 O 0.70292 0.23506 0.57582 0.0
C351 C 0.69937 0.12935 0.64046 0.0
H352 H 0.17507 0.16201 0.05789 0.0
H353 H 0.0858 0.15714 0.08445 0.0
H354 H 0.07809 0.07548 0.0478 0.0
H355 H 0.09657 1.00798 1.00603 0.0
H356 H 0.18508 1.01827 0.97703 0.0
H357 H 0.19323 0.09637 0.01594 0.0
C358 C 0.15411 0.14201 0.05633 0.0
C359 C 0.1312 0.16436 0.07462 0.0
C360 C 0.14957 0.09731 0.03389 0.0
C361 C 0.1039 0.13957 0.0713 0.0
C362 C 0.09942 0.09349 0.04999 0.0
C363 C 0.11745 0.02818 1.00798 0.0
C364 C 0.14009 1.00864 0.98833 0.0
C365 C 0.12197 0.07272 0.03065 0.0
C366 C 0.16728 0.03375 0.9915 0.0
C367 C 0.17199 0.07782 1.01398 0.0
H368 H 0.3851 0.05897 0.02389 0.0
H369 H 0.40186 0.96307 0.93611 0.0
H370 H 0.40343 0.874 0.96781 0.0
H371 H 0.39955 0.82356 0.02022 0.0
H372 H 0.37794 0.91729 0.10728 0.0
H373 H 0.37886 1.00753 0.07619 0.0
C374 C 0.38925 1.01855 1.01174 0.0
C375 C 0.39374 1.01764 0.9777 0.0
C376 C 0.38933 0.96742 0.03003 0.0
C377 C 0.39844 0.96489 0.9622 0.0
C378 C 0.39939 0.91406 0.98035 0.0
C379 C 0.39543 0.8639 0.0325 0.0
C380 C 0.38937 0.86412 0.06619 0.0
C381 C 0.39492 0.91488 1.01424 0.0
C382 C 0.38305 0.91628 0.08153 0.0
C383 C 0.3835 0.96768 0.06371 0.0
H384 H 0.64355 0.06877 0.50578 0.0
H385 H 0.62813 0.975 0.59484 0.0
H386 H 0.62498 0.88538 0.56397 0.0
H387 H 0.62813 0.8339 0.51213 0.0
H388 H 0.64857 0.92563 0.42381 0.0
H389 H 0.6479 1.01667 0.45389 0.0
C390 C 0.6393 0.02869 0.51837 0.0
C391 C 0.63581 0.0283 0.55246 0.0
C392 C 0.63827 0.97742 0.5006 0.0
C393 C 0.6309 0.97617 0.56862 0.0
C394 C 0.629 0.9251 0.55099 0.0
C395 C 0.63188 0.87401 0.49936 0.0
C396 C 0.63772 0.87364 0.46573 0.0
C397 C 0.63273 0.9253 0.51703 0.0
C398 C 0.6436 0.92537 0.44961 0.0
C399 C 0.64337 0.97712 0.46682 0.0
H400 H 0.88401 0.9901 0.50266 0.0
H401 H 0.91058 0.08447 0.58787 0.0
H402 H 0.911 0.17344 0.55625 0.0
H403 H 0.90333 0.22446 0.50497 0.0
H404 H 0.872 0.13375 0.42066 0.0
H405 H 0.87388 0.04299 0.45127 0.0
C406 C 0.89001 0.0302 0.51419 0.0
C407 C 0.89759 0.03067 0.54752 0.0
C408 C 0.88935 0.08159 0.49602 0.0
C409 C 0.90474 0.08299 0.56233 0.0
C410 C 0.90502 0.1338 0.54423 0.0
C411 C 0.89722 0.18473 0.49307 0.0
C412 C 0.88814 0.1856 0.46029 0.0
C413 C 0.89739 0.13357 0.51112 0.0
C414 C 0.87939 0.13407 0.44567 0.0
C415 C 0.88043 0.08231 0.46323 0.0
H416 H 0.86623 0.03967 1.00476 0.0
H417 H 0.92573 0.97086 0.0751 0.0
H418 H 0.93027 0.88362 0.04296 0.0
H419 H 0.91634 0.82531 0.99639 0.0
H420 H 0.85448 0.88929 0.92733 0.0
H421 H 0.85233 0.98031 0.95714 0.0
C422 C 0.88024 1.00563 1.01301 0.0
C423 C 0.89559 1.01204 0.04245 0.0
C424 C 0.88251 0.95483 0.99452 0.0
C425 C 0.91352 0.96723 0.05276 0.0
C426 C 0.91624 0.91728 0.03429 0.0
C427 C 0.90264 0.8593 0.9874 0.0
C428 C 0.88573 0.85031 0.95937 0.0
C429 C 0.90076 0.9105 1.00526 0.0
C430 C 0.86786 0.89495 0.94864 0.0
C431 C 0.8665 0.94691 0.96583 0.0
H432 H 0.61465 0.20071 0.99857 0.0
H433 H 0.67056 0.13044 0.925 0.0
H434 H 0.67396 0.04089 0.95608 0.0
H435 H 0.66293 0.98503 1.00543 0.0
H436 H 0.60941 0.05883 0.08027 0.0
H437 H 0.60369 0.14543 0.0475 0.0
C438 C 0.62718 0.1655 0.98891 0.0
C439 C 0.64208 0.17199 0.95925 0.0
C440 C 0.62993 0.11537 1.00746 0.0
C441 C 0.65869 0.12629 0.94759 0.0
C442 C 0.66081 0.07535 0.96547 0.0
C443 C 0.65001 1.02005 0.01461 0.0
C444 C 0.6366 1.01537 0.04531 0.0
C445 C 0.64692 0.06986 0.99571 0.0
C446 C 0.62009 0.06134 0.05687 0.0
C447 C 0.61665 0.11073 0.03804 0.0
H448 H 0.36941 0.98886 0.52848 0.0
H449 H 0.42762 0.06008 0.45709 0.0
H450 H 0.4317 0.14756 0.48882 0.0
H451 H 0.41634 0.20684 0.53389 0.0
H452 H 0.35547 0.14243 0.60406 0.0
H453 H 0.35562 0.04863 0.57651 0.0
C454 C 0.38311 0.02343 0.52004 0.0
C455 C 0.39797 1.01791 0.49017 0.0
C456 C 0.38506 0.07466 0.53831 0.0
C457 C 0.41565 0.06317 0.47965 0.0
C458 C 0.41814 0.11325 0.49788 0.0
C459 C 0.4033 0.1721 0.5435 0.0
C460 C 0.38572 0.18175 0.57081 0.0
C461 C 0.4026 0.1198 0.52684 0.0
C462 C 0.36931 0.13607 0.58319 0.0
C463 C 0.36915 0.08271 0.56716 0.0
H464 H 0.1217 0.84926 0.53468 0.0
H465 H 0.18189 0.91543 0.60489 0.0
H466 H 0.18061 1.00965 0.57777 0.0
H467 H 0.16573 0.06969 0.53032 0.0
H468 H 0.10761 0.99726 0.45934 0.0
H469 H 0.10514 0.90877 0.4903 0.0
C470 C 0.13437 0.88446 0.54433 0.0
C471 C 0.1521 0.87531 0.57149 0.0
C472 C 0.13427 0.93711 0.52806 0.0
C473 C 0.168 0.92149 0.58405 0.0
C474 C 0.16749 0.97509 0.5683 0.0
C475 C 0.15243 0.03461 0.52179 0.0
C476 C 0.13711 0.04015 0.49228 0.0
C477 C 0.15131 0.98289 0.53966 0.0
C478 C 0.11991 0.99425 0.48165 0.0
C479 C 0.11834 0.94354 0.49943 0.0
H480 H 0.59711 0.53222 0.98237 0.0
H481 H 0.68622 0.48884 0.99355 0.0
H482 H 0.69301 0.56863 0.03125 0.0
H483 H 0.67385 0.65073 0.06062 0.0
H484 H 0.58463 0.69506 0.05053 0.0
H485 H 0.57737 0.61392 1.01369 0.0
C486 C 0.618 0.54106 0.99279 0.0
C487 C 0.64126 0.5057 0.98503 0.0
C488 C 0.62157 0.58615 0.01519 0.0
C489 C 0.66815 0.51621 0.99913 0.0
C490 C 0.67198 0.5614 0.02082 0.0
C491 C 0.65266 0.642 0.05095 0.0
C492 C 0.62982 0.6787 0.0584 0.0
C493 C 0.64881 0.59634 0.02923 0.0
C494 C 0.60258 0.66722 0.04522 0.0
C495 C 0.59846 0.62119 0.02392 0.0
H496 H 0.92025 0.32367 0.02644 0.0
H497 H 0.86567 0.39339 0.10143 0.0
H498 H 0.86332 0.48449 0.07196 0.0
H499 H 0.87383 0.54175 0.0229 0.0
H500 H 0.92648 0.46944 0.94681 0.0
H501 H 0.93221 0.38184 0.97862 0.0
C502 C 0.90829 0.35909 0.03676 0.0
C503 C 0.89324 0.35162 0.06625 0.0
C504 C 0.90623 0.41064 0.01915 0.0
C505 C 0.87753 0.39793 0.07887 0.0
C506 C 0.87601 0.44993 0.0619 0.0
C507 C 0.88665 0.50694 1.01328 0.0
C508 C 0.89959 0.51231 0.98235 0.0
C509 C 0.88973 0.45631 0.03163 0.0
C510 C 0.91612 0.4666 0.97039 0.0
C511 C 0.91951 0.41644 0.98864 0.0
H512 H 0.14416 0.57036 0.5063 0.0
H513 H 0.12527 0.47673 0.59454 0.0
H514 H 0.12163 0.38765 0.56337 0.0
H515 H 0.12514 0.33632 0.5117 0.0
H516 H 0.149 0.42669 0.42402 0.0
H517 H 0.14913 0.51772 0.45425 0.0
C518 C 0.13908 0.53043 0.51863 0.0
C519 C 0.13474 0.53008 0.55265 0.0
C520 C 0.13779 0.47916 0.50064 0.0
C521 C 0.12871 0.47803 0.56843 0.0
C522 C 0.12654 0.4272 0.5506 0.0
C523 C 0.12985 0.37609 0.499 0.0
C524 C 0.13637 0.37514 0.46547 0.0
C525 C 0.13109 0.42731 0.51677 0.0
C526 C 0.14349 0.42662 0.44966 0.0
C527 C 0.14369 0.47844 0.46699 0.0
H528 H 0.38913 0.48824 0.50349 0.0
H529 H 0.41117 0.58203 0.59056 0.0
H530 H 0.41357 0.67112 0.5591 0.0
H531 H 0.40829 0.72257 0.50743 0.0
H532 H 0.38112 0.632 0.42125 0.0
H533 H 0.38205 0.54104 0.45164 0.0
C534 C 0.39462 0.52821 0.5155 0.0
C535 C 0.40025 0.52849 0.5493 0.0
C536 C 0.39515 0.57957 0.49737 0.0
C537 C 0.40676 0.58067 0.56465 0.0
C538 C 0.40822 0.63155 0.54664 0.0
C539 C 0.40305 0.68276 0.49509 0.0
C540 C 0.39534 0.6837 0.46187 0.0
C541 C 0.40242 0.63148 0.51305 0.0
C542 C 0.38756 0.63215 0.4466 0.0
C543 C 0.38797 0.58032 0.46405 0.0
H544 H 0.41035 0.33634 1.00357 0.0
H545 H 0.3562 0.40695 0.92855 0.0
H546 H 0.35767 0.50076 0.95578 0.0
H547 H 0.37065 0.55946 1.00409 0.0
H548 H 0.42249 0.48391 0.07997 0.0
H549 H 0.42518 0.39487 0.04937 0.0
C550 C 0.39901 0.37234 0.99291 0.0
C551 C 0.38289 0.36452 0.96429 0.0
C552 C 0.39916 0.42498 1.0092 0.0
C553 C 0.36879 0.41184 0.95054 0.0
C554 C 0.36941 0.46526 0.96631 0.0
C555 C 0.38268 0.52361 1.01381 0.0
C556 C 0.39615 0.52835 0.0445 0.0
C557 C 0.38388 0.47185 0.99618 0.0
C558 C 0.41167 0.48146 0.05667 0.0
C559 C 0.41333 0.43049 0.03911 0.0
H560 H 0.09967 0.52712 0.04489 0.0
H561 H 0.18213 0.46426 1.01445 0.0
H562 H 0.18731 0.54485 0.97658 0.0
H563 H 0.16938 0.63616 0.95423 0.0
H564 H 0.08541 0.69539 0.98249 0.0
H565 H 0.07959 0.61285 0.01823 0.0
C566 C 0.11875 0.53126 0.02995 0.0
C567 C 0.14069 0.49049 0.03276 0.0
C568 C 0.1212 0.57679 1.00753 0.0
C569 C 0.16504 0.49545 1.01279 0.0
C570 C 0.16798 0.54143 0.9911 0.0
C571 C 0.14957 0.63047 0.96767 0.0
C572 C 0.12807 0.67261 0.96582 0.0
C573 C 0.14628 0.58267 0.98841 0.0
C574 C 0.1025 0.66414 0.9835 0.0
C575 C 0.09916 0.61699 1.0042 0.0
H576 H 0.91401 0.71088 0.52834 0.0
H577 H 0.8583 0.64189 0.60255 0.0
H578 H 0.85767 0.54897 0.57401 0.0
H579 H 0.86967 0.49059 0.52475 0.0
H580 H 0.92305 0.56581 0.44987 0.0
H581 H 0.92734 0.6533 0.48162 0.0
C582 C 0.90189 0.6754 0.5386 0.0
C583 C 0.88606 0.6836 0.5675 0.0
C584 C 0.90078 0.62345 0.52149 0.0
C585 C 0.87083 0.63682 0.58053 0.0
C586 C 0.87022 0.58391 0.56394 0.0
C587 C 0.88233 0.52606 0.51546 0.0
C588 C 0.89585 0.52138 0.48466 0.0
C589 C 0.88452 0.57721 0.53387 0.0
C590 C 0.91218 0.56795 0.47317 0.0
C591 C 0.91478 0.61811 0.49142 0.0
H592 H 0.66482 0.56854 0.52414 0.0
H593 H 0.61459 0.49067 0.44746 0.0
H594 H 0.61266 0.40127 0.47798 0.0
H595 H 0.62666 0.3441 0.52454 0.0
H596 H 0.67912 0.41687 0.60057 0.0
H597 H 0.67792 0.51032 0.57265 0.0
C598 C 0.65339 0.53204 0.51414 0.0
C599 C 0.63996 0.53642 0.48335 0.0
C600 C 0.65253 0.4802 0.5318 0.0
C601 C 0.62526 0.48864 0.47086 0.0
C602 C 0.62404 0.43748 0.48838 0.0
C603 C 0.63779 0.3804 0.53525 0.0
C604 C 0.65323 0.37337 0.56446 0.0
C605 C 0.63778 0.43272 0.51862 0.0
C606 C 0.66703 0.42114 0.57819 0.0
C607 C 0.66656 0.47433 0.56203 0.0
H608 H 0.141 0.32547 0.32865 0.0
H609 H 0.13065 0.1445 0.30937 0.0
H610 H 0.12807 0.1635 0.25118 0.0
H611 H 0.13228 0.23024 0.20531 0.0
H612 H 0.14179 0.41139 0.22394 0.0
H613 H 0.14086 0.39351 0.28258 0.0
C614 C 0.13793 0.29026 0.31175 0.0
C615 C 0.13644 0.2336 0.3235 0.0
C616 C 0.13643 0.30138 0.27806 0.0
C617 C 0.13211 0.18858 0.30117 0.0
C618 C 0.13067 0.1993 0.26776 0.0
C619 C 0.13393 0.26587 0.22219 0.0
C620 C 0.13745 0.32192 0.2102 0.0
C621 C 0.13339 0.25535 0.25589 0.0
C622 C 0.13914 0.36771 0.23245 0.0
C623 C 0.13873 0.35753 0.26604 0.0
H624 H 0.38607 0.81954 0.2023 0.0
H625 H 0.39083 0.63978 0.22712 0.0
H626 H 0.393 0.66369 0.28477 0.0
H627 H 0.39067 0.73502 0.32851 0.0
H628 H 0.38683 0.91492 0.30407 0.0
H629 H 0.38743 0.89147 0.24615 0.0
C630 C 0.38776 0.78564 0.22031 0.0
C631 C 0.38793 0.72798 0.21029 0.0
C632 C 0.38908 0.7996 0.25361 0.0
C633 C 0.39049 0.6846 0.23401 0.0
C634 C 0.39168 0.69816 0.26709 0.0
C635 C 0.39013 0.76912 0.31053 0.0
C636 C 0.38838 0.82654 0.32069 0.0
C637 C 0.39053 0.75543 0.2772 0.0
C638 C 0.38809 0.87026 0.297 0.0
C639 C 0.38834 0.85693 0.26381 0.0
H640 H 0.63451 0.87045 0.22522 0.0
H641 H 0.63819 0.6988 0.18612 0.0
H642 H 0.6361 0.65906 0.24109 0.0
H643 H 0.63776 0.67321 0.30042 0.0
H644 H 0.63579 0.84513 0.3393 0.0
H645 H 0.6324 0.88432 0.28435 0.0
C646 C 0.63449 0.82433 0.22865 0.0
C647 C 0.63688 0.78779 0.20155 0.0
C648 C 0.63379 0.80169 0.26038 0.0
C649 C 0.6367 0.72806 0.20654 0.0
C650 C 0.63552 0.70521 0.238 0.0
C651 C 0.63618 0.71919 0.2969 0.0
C652 C 0.63739 0.75613 0.32394 0.0
C653 C 0.63476 0.74164 0.26514 0.0
C654 C 0.63527 0.81567 0.31891 0.0
C655 C 0.63333 0.8382 0.28747 0.0
H656 H 0.89123 0.30906 0.19842 0.0
H657 H 0.8934 0.13033 0.22585 0.0
H658 H 0.89443 0.1568 0.28327 0.0
H659 H 0.8916 0.23038 0.32604 0.0
H660 H 0.89062 0.40918 0.29876 0.0
H661 H 0.89246 0.38291 0.24128 0.0
C662 C 0.89216 0.2759 0.21694 0.0
C663 C 0.89192 0.21777 0.20767 0.0
C664 C 0.89283 0.29137 0.25011 0.0
C665 C 0.89346 0.17544 0.23211 0.0
C666 C 0.89396 0.1905 0.26506 0.0
C667 C 0.89199 0.26362 0.30754 0.0
C668 C 0.89065 0.32164 0.31684 0.0
C669 C 0.89316 0.24828 0.27439 0.0
C670 C 0.89155 0.36413 0.29245 0.0
C671 C 0.89251 0.34918 0.25947 0.0
H672 H 0.87928 0.73142 0.69931 0.0
H673 H 0.91286 0.89857 0.72298 0.0
H674 H 0.91496 0.8721 0.78077 0.0
H675 H 0.90427 0.80261 0.82526 0.0
H676 H 0.87415 0.63334 0.80008 0.0
H677 H 0.87365 0.65928 0.74249 0.0
C678 C 0.8874 0.76178 0.71709 0.0
C679 C 0.89576 0.81693 0.7069 0.0
C680 C 0.88892 0.74598 0.75015 0.0
C681 C 0.90647 0.85569 0.73017 0.0
C682 C 0.90746 0.84071 0.76327 0.0
C683 C 0.8978 0.77147 0.80706 0.0
C684 C 0.88905 0.71628 0.81696 0.0
C685 C 0.89825 0.78625 0.77366 0.0
C686 C 0.88105 0.67604 0.79312 0.0
C687 C 0.88067 0.69087 0.76015 0.0
H688 H 0.64812 0.37965 0.79832 0.0
H689 H 0.62291 0.21652 0.83887 0.0
H690 H 0.6186 0.17603 0.7841 0.0
H691 H 0.62751 0.18412 0.72516 0.0
H692 H 0.65803 0.34428 0.68553 0.0
H693 H 0.65446 0.38922 0.73919 0.0
C694 C 0.64112 0.33562 0.79503 0.0
C695 C 0.63587 0.30097 0.82236 0.0
C696 C 0.63989 0.31205 0.76362 0.0
C697 C 0.62721 0.24375 0.818 0.0
C698 C 0.62478 0.22062 0.78677 0.0
C699 C 0.63276 0.22913 0.72829 0.0
C700 C 0.64299 0.26102 0.7017 0.0
C701 C 0.63187 0.25389 0.75944 0.0
C702 C 0.65021 0.31904 0.70589 0.0
C703 C 0.64823 0.34466 0.7365 0.0
H704 H 0.34671 0.29296 0.71354 0.0
H705 H 0.43758 0.3258 0.70951 0.0
H706 H 0.44258 0.29073 0.76581 0.0
H707 H 0.42024 0.25183 0.81698 0.0
H708 H 0.32866 0.22621 0.81922 0.0
H709 H 0.32493 0.25682 0.76281 0.0
C710 C 0.36775 0.29223 0.72473 0.0
C711 C 0.39176 0.31167 0.70716 0.0
C712 C 0.37031 0.2732 0.75696 0.0
C713 C 0.41871 0.31111 0.72246 0.0
C714 C 0.42157 0.29096 0.75464 0.0
C715 C 0.3996 0.25278 0.8049 0.0
C716 C 0.37473 0.23692 0.82228 0.0
C717 C 0.39743 0.27199 0.77225 0.0
C718 C 0.34805 0.23872 0.8065 0.0
C719 C 0.34588 0.2561 0.77419 0.0
H720 H 0.14664 0.87527 0.80247 0.0
H721 H 0.11808 0.71368 0.84224 0.0
H722 H 0.11458 0.67342 0.78738 0.0
H723 H 0.1249 0.68097 0.72854 0.0
H724 H 0.15791 0.83997 0.68994 0.0
H725 H 0.15409 0.88465 0.74358 0.0
C726 C 0.13911 0.83163 0.79904 0.0
C727 C 0.13274 0.79741 0.82628 0.0
C728 C 0.13818 0.80815 0.76756 0.0
C729 C 0.12331 0.7407 0.82156 0.0
C730 C 0.12133 0.71764 0.79023 0.0
C731 C 0.13066 0.72568 0.73188 0.0
C732 C 0.14169 0.75722 0.70554 0.0
C733 C 0.12948 0.75044 0.7631 0.0
C734 C 0.1495 0.8149 0.71006 0.0
C735 C 0.14737 0.84042 0.74069 0.0
H736 H 0.20489 0.53112 0.13171 0.0
H737 H 0.24633 0.36623 0.13598 0.0
H738 H 0.29316 0.41279 0.13757 0.0
H739 H 0.32312 0.50086 0.13679 0.0
H740 H 0.28139 0.66566 0.13543 0.0
H741 H 0.23468 0.61905 0.13372 0.0
C742 C 0.22414 0.50535 0.13315 0.0
C743 C 0.22178 0.445 0.1338 0.0
C744 C 0.25132 0.53257 0.13458 0.0
C745 C 0.2472 0.41266 0.13574 0.0
C746 C 0.27416 0.43931 0.13652 0.0
C747 C 0.30382 0.52658 0.13635 0.0
C748 C 0.30611 0.58697 0.13639 0.0
C749 C 0.2766 0.49931 0.13587 0.0
C750 C 0.28061 0.61924 0.13578 0.0
C751 C 0.25369 0.59255 0.13464 0.0
H752 H 0.70655 0.51919 0.38887 0.0
H753 H 0.74835 0.68439 0.38659 0.0
H754 H 0.79507 0.63815 0.38589 0.0
H755 H 0.82493 0.55029 0.38757 0.0
H756 H 0.78301 0.3852 0.3873 0.0
H757 H 0.73632 0.43147 0.38733 0.0
C758 C 0.72584 0.54513 0.3879 0.0
C759 C 0.72353 0.60552 0.38765 0.0
C760 C 0.75303 0.51809 0.38716 0.0
C761 C 0.74908 0.63797 0.38649 0.0
C762 C 0.77602 0.61148 0.38625 0.0
C763 C 0.8056 0.52443 0.38726 0.0
C764 C 0.80785 0.46404 0.38729 0.0
C765 C 0.77839 0.5515 0.3868 0.0
C766 C 0.78229 0.43162 0.38692 0.0
C767 C 0.75537 0.45812 0.38709 0.0
H768 H 0.78445 0.62329 0.88256 0.0
H769 H 0.84101 0.47736 0.88456 0.0
H770 H 0.79981 0.41252 0.88313 0.0
H771 H 0.74743 0.39673 0.88465 0.0
H772 H 0.69106 0.54301 0.88532 0.0
H773 H 0.73222 0.60755 0.88221 0.0
C774 C 0.78784 0.57731 0.88216 0.0
C775 C 0.81602 0.55556 0.88346 0.0
C776 C 0.76392 0.54 0.88201 0.0
C777 C 0.81973 0.49564 0.88347 0.0
C778 C 0.7961 0.45837 0.88273 0.0
C779 C 0.74409 0.44269 0.8836 0.0
C780 C 0.71596 0.46465 0.88504 0.0
C781 C 0.76805 0.47997 0.88244 0.0
C782 C 0.71229 0.52456 0.88419 0.0
C783 C 0.73591 0.56169 0.88246 0.0
H784 H 0.25589 0.64474 0.64933 0.0
H785 H 0.1917 0.51128 0.64909 0.0
H786 H 0.22924 0.43835 0.65004 0.0
H787 H 0.28038 0.41246 0.64591 0.0
H788 H 0.3445 0.54602 0.64794 0.0
H789 H 0.30699 0.61865 0.65158 0.0
C790 C 0.25007 0.59969 0.65004 0.0
C791 C 0.2209 0.58368 0.64902 0.0
C792 C 0.27182 0.55788 0.65066 0.0
C793 C 0.21387 0.52502 0.65011 0.0
C794 C 0.23538 0.4832 0.65039 0.0
C795 C 0.28619 0.45742 0.64763 0.0
C796 C 0.31533 0.47362 0.64647 0.0
C797 C 0.26444 0.4991 0.64993 0.0
C798 C 0.32236 0.53214 0.64895 0.0
C799 C 0.30086 0.57381 0.65083 0.0
H800 H 0.82504 0.98885 0.13616 0.0
H801 H 0.78502 0.15525 0.14108 0.0
H802 H 0.73792 0.11069 0.14197 0.0
H803 H 0.70715 0.02453 0.13958 0.0
H804 H 0.74673 0.8577 0.13676 0.0
H805 H 0.79409 0.90199 0.13702 0.0
C806 C 0.80605 1.01534 0.13771 0.0
C807 C 0.80898 0.0756 0.13867 0.0
C808 C 0.77853 0.98926 0.13857 0.0
C809 C 0.78383 0.10886 0.14061 0.0
C810 C 0.75664 0.08338 0.14099 0.0
C811 C 0.7261 0.99778 0.13935 0.0
C812 C 0.72302 0.93762 0.13828 0.0
C813 C 0.75361 0.02362 0.13977 0.0
C814 C 0.74811 0.90403 0.13791 0.0
C815 C 0.7754 0.92939 0.13788 0.0
H816 H 0.20533 1.01393 0.39804 0.0
H817 H 0.24638 0.17959 0.39213 0.0
H818 H 0.29331 0.13416 0.39209 0.0
H819 H 0.32361 0.04695 0.39498 0.0
H820 H 0.28243 0.88119 0.39816 0.0
H821 H 0.23552 0.92665 0.39795 0.0
C822 C 0.2245 0.04013 0.39648 0.0
C823 C 0.22191 0.10043 0.39495 0.0
C824 C 0.25183 1.01352 0.39606 0.0
C825 C 0.24732 0.13321 0.393 0.0
C826 C 0.27439 0.10719 0.39314 0.0
C827 C 0.3044 1.02074 0.39545 0.0
C828 C 0.30694 0.9604 0.39649 0.0
C829 C 0.27705 0.04732 0.39483 0.0
C830 C 0.2815 0.92757 0.39705 0.0
C831 C 0.25445 0.95361 0.39706 0.0
H832 H 0.20136 0.02579 0.88522 0.0
H833 H 0.24604 0.86481 0.89234 0.0
H834 H 0.2921 0.91516 0.88981 0.0
H835 H 0.31997 1.00684 0.89012 0.0
H836 H 0.27389 0.16642 0.88217 0.0
H837 H 0.22867 0.11498 0.88003 0.0
C838 C 0.22114 1.00156 0.88585 0.0
C839 C 0.22007 0.94153 0.88908 0.0
C840 C 0.24759 0.03077 0.88425 0.0
C841 C 0.24608 0.91103 0.88968 0.0
C842 C 0.27252 0.93988 0.88837 0.0
C843 C 0.30009 0.03012 0.88709 0.0
C844 C 0.30053 0.09062 0.88651 0.0
C845 C 0.27363 1.0 0.88615 0.0
C846 C 0.27437 0.11997 0.88294 0.0
C847 C 0.24833 0.09059 0.88181 0.0
H848 H 0.78061 0.91298 0.64584 0.0
H849 H 0.84506 0.046 0.6481 0.0
H850 H 0.80784 0.11901 0.65064 0.0
H851 H 0.75695 0.14587 0.64751 0.0
H852 H 0.69225 1.01348 0.64735 0.0
H853 H 0.72945 0.93989 0.64911 0.0
C854 C 0.78654 0.95789 0.6474 0.0
C855 C 0.81574 0.9737 0.64663 0.0
C856 C 0.7649 1.00001 0.6491 0.0
C857 C 0.82288 0.03226 0.64881 0.0
C858 C 0.80155 0.07424 0.65008 0.0
C859 C 0.75095 0.10093 0.64841 0.0
C860 C 0.72175 0.08541 0.6472 0.0
C861 C 0.77249 0.05872 0.64957 0.0
C862 C 0.71446 0.02686 0.64852 0.0
C863 C 0.73578 0.98464 0.64927 0.0
H864 H 0.27815 0.19019 0.9605 0.0
H865 H 0.33098 0.18848 0.0466 0.0
H866 H 0.28973 0.21668 0.07988 0.0
H867 H 0.24171 0.25771 0.08208 0.0
H868 H 0.18978 0.2651 0.99501 0.0
H869 H 0.22812 0.21942 0.96396 0.0
C870 C 0.28029 0.19439 0.98675 0.0
C871 C 0.30727 0.18835 1.00131 0.0
C872 C 0.25711 0.21346 1.00508 0.0
C873 C 0.3102 0.19293 0.03516 0.0
C874 C 0.28681 0.20998 0.05395 0.0
C875 C 0.23874 0.24952 0.05628 0.0
C876 C 0.21337 0.26639 0.04051 0.0
C877 C 0.2607 0.22336 0.03877 0.0
C878 C 0.20943 0.25368 1.0074 0.0
C879 C 0.23119 0.22723 0.98977 0.0
H880 H 0.27871 0.70989 0.07275 0.0
H881 H 0.33683 0.76246 0.99616 0.0
H882 H 0.29661 0.80044 0.96493 0.0
H883 H 0.24583 0.82137 0.96058 0.0
H884 H 0.18759 0.76896 0.03705 0.0
H885 H 0.22776 0.73031 0.06821 0.0
C886 C 0.28265 0.72933 0.04912 0.0
C887 C 0.31069 0.7336 0.03678 0.0
C888 C 0.2597 0.75226 0.03183 0.0
C889 C 0.3154 0.75838 1.00605 0.0
C890 C 0.29251 0.78064 0.9884 0.0
C891 C 0.24183 0.80171 0.98414 0.0
C892 C 0.21379 0.7978 0.99651 0.0
C893 C 0.26472 0.7785 1.00135 0.0
C894 C 0.20902 0.77275 0.02715 0.0
C895 C 0.23189 0.75014 0.04475 0.0
H896 H 0.74781 0.77523 0.45066 0.0
H897 H 0.69701 0.75035 0.53772 0.0
H898 H 0.73409 0.7972 0.57014 0.0
H899 H 0.78182 0.83859 0.57405 0.0
H900 H 0.83385 0.85893 0.48786 0.0
H901 H 0.79433 0.82332 0.45413 0.0
C902 C 0.74489 0.77957 0.47678 0.0
C903 C 0.71998 0.75838 0.49195 0.0
C904 C 0.76603 0.80703 0.49509 0.0
C905 C 0.71623 0.76554 0.52564 0.0
C906 C 0.73723 0.79276 0.54409 0.0
C907 C 0.78424 0.83627 0.54775 0.0
C908 C 0.81058 0.85035 0.5333 0.0
C909 C 0.76224 0.81308 0.52906 0.0
C910 C 0.81361 0.84836 0.49934 0.0
C911 C 0.79126 0.82708 0.48023 0.0
H912 H 0.82359 0.23478 0.49862 0.0
H913 H 0.78562 0.39653 0.47211 0.0
H914 H 0.73862 0.36218 0.48975 0.0
H915 H 0.70884 0.28706 0.51305 0.0
H916 H 0.74631 0.12745 0.54357 0.0
H917 H 0.79301 0.15806 0.52189 0.0
C918 C 0.80509 0.26281 0.4978 0.0
C919 C 0.80782 0.31853 0.48527 0.0
C920 C 0.77808 0.24204 0.50695 0.0
C921 C 0.78379 0.35411 0.48277 0.0
C922 C 0.75697 0.33411 0.49213 0.0
C923 C 0.72708 0.25824 0.51368 0.0
C924 C 0.72437 0.20473 0.5288 0.0
C925 C 0.75387 0.27799 0.50377 0.0
C926 C 0.74802 0.16807 0.53086 0.0
C927 C 0.77473 0.18625 0.51935 0.0
H928 H 0.77788 0.71724 0.948 0.0
H929 H 0.83253 0.71333 0.033 0.0
H930 H 0.79424 0.75393 0.06589 0.0
H931 H 0.74657 0.79349 0.07007 0.0
H932 H 0.69086 0.79641 0.98602 0.0
H933 H 0.72895 0.75441 0.95276 0.0
C934 C 0.78131 0.72451 0.97382 0.0
C935 C 0.80806 0.71254 0.98802 0.0
C936 C 0.75939 0.74874 0.99249 0.0
C937 C 0.81216 0.72228 0.02147 0.0
C938 C 0.79038 0.74586 0.04025 0.0
C939 C 0.74265 0.78539 0.04442 0.0
C940 C 0.71595 0.79833 0.03048 0.0
C941 C 0.76417 0.76012 0.02585 0.0
C942 C 0.71132 0.78719 0.99726 0.0
C943 C 0.73297 0.76278 0.97834 0.0
H944 H 0.75021 0.29965 0.95194 0.0
H945 H 0.69448 0.30418 0.03603 0.0
H946 H 0.7327 0.26516 0.06991 0.0
H947 H 0.78122 0.22835 0.07519 0.0
H948 H 0.83687 0.22336 0.991 0.0
H949 H 0.79875 0.26283 0.95723 0.0
C950 C 0.74648 0.29278 0.97776 0.0
C951 C 0.71963 0.30479 0.99153 0.0
C952 C 0.76822 0.2693 0.99684 0.0
C953 C 0.71505 0.29526 0.02494 0.0
C954 C 0.73678 0.27264 0.04424 0.0
C955 C 0.78499 0.23535 0.04939 0.0
C956 C 0.81181 0.22301 0.03561 0.0
C957 C 0.76328 0.25889 0.03032 0.0
C958 C 0.81636 0.23247 1.00217 0.0
C959 C 0.79468 0.25538 0.98291 0.0
H960 H 0.28188 0.34555 0.57293 0.0
H961 H 0.33465 0.3537 0.48674 0.0
H962 H 0.29431 0.31981 0.4536 0.0
H963 H 0.24668 0.27576 0.45109 0.0
H964 H 0.19523 0.26253 0.53848 0.0
H965 H 0.23316 0.30896 0.56975 0.0
C966 C 0.28428 0.3411 0.54672 0.0
C967 C 0.31101 0.35121 0.53214 0.0
C968 C 0.26175 0.31881 0.52847 0.0
C969 C 0.31409 0.3463 0.49829 0.0
C970 C 0.29125 0.32598 0.47955 0.0
C971 C 0.24376 0.28268 0.47702 0.0
C972 C 0.21841 0.2647 0.49263 0.0
C973 C 0.26548 0.3097 0.49472 0.0
C974 C 0.21474 0.27514 0.52606 0.0
C975 C 0.23625 0.30212 0.54385 0.0
H976 H 0.28833 0.77774 0.45306 0.0
H977 H 0.34054 0.79614 0.53943 0.0
H978 H 0.30394 0.74638 0.57151 0.0
H979 H 0.25548 0.7077 0.57562 0.0
H980 H 0.20229 0.69526 0.48998 0.0
H981 H 0.24204 0.72965 0.45618 0.0
C982 C 0.29173 0.77127 0.47896 0.0
C983 C 0.31671 0.79203 0.49416 0.0
C984 C 0.27089 0.74245 0.49698 0.0
C985 C 0.32117 0.78165 0.52744 0.0
C986 C 0.30045 0.75277 0.54564 0.0
C987 C 0.25292 0.71118 0.54938 0.0
C988 C 0.22614 0.70026 0.53515 0.0
C989 C 0.27507 0.7341 0.53072 0.0
C990 C 0.22286 0.70357 0.50127 0.0
C991 C 0.24534 0.72421 0.48215 0.0
H992 H 0.0613 0.2786 0.06199 0.0
H993 H 0.04744 0.3664 0.15308 0.0
H994 H 1.00392 0.30925 0.1624 0.0
H995 H 0.96881 0.23539 0.14346 0.0
H996 H 0.98475 0.14769 0.05275 0.0
H997 H 0.02883 0.20225 0.04513 0.0
C998 C 0.04872 0.28581 0.08383 0.0
C999 C 0.05747 0.32776 0.10649 0.0
C1000 C 0.02428 0.25175 0.08943 0.0
C1001 C 0.04107 0.33513 0.13496 0.0
C1002 C 0.01626 0.30208 0.14041 0.0
C1003 C 0.98235 0.2273 0.1225 0.0
C1004 C 0.97353 0.18705 0.09882 0.0
C1005 C 1.00762 0.26009 0.1178 0.0
C1006 C 0.99104 0.17807 0.0714 0.0
C1007 C 0.01616 0.20968 0.06685 0.0
H1008 H 0.46746 0.75297 0.06357 0.0
H1009 H 0.47893 0.6743 0.15781 0.0
H1010 H 0.52339 0.72899 0.16558 0.0
H1011 H 0.5598 0.79831 0.14469 0.0
H1012 H 0.54645 0.87706 0.05071 0.0
H1013 H 0.50176 0.82429 0.04419 0.0
C1014 C 0.47977 0.74714 0.08573 0.0
C1015 C 0.47003 0.70859 0.10979 0.0
C1016 C 0.50485 0.77968 0.09034 0.0
C1017 C 0.48605 0.70301 0.13866 0.0
C1018 C 0.51141 0.73461 0.14321 0.0
C1019 C 0.54675 0.80482 0.12316 0.0
C1020 C 0.55648 0.84201 0.0983 0.0
C1021 C 0.52104 0.77329 0.11922 0.0
C1022 C 0.53953 0.84899 0.07026 0.0
C1023 C 0.51401 0.81845 0.06637 0.0
H1024 H 0.47091 0.80169 0.46752 0.0
H1025 H 0.47979 0.87582 0.37171 0.0
H1026 H 0.52402 0.82114 0.36317 0.0
H1027 H 0.56106 0.75297 0.3838 0.0
H1028 H 0.55013 0.67886 0.47945 0.0
H1029 H 0.50571 0.73166 0.48673 0.0
C1030 C 0.48258 0.80655 0.44482 0.0
C1031 C 0.47214 0.84389 0.42055 0.0
C1032 C 0.50755 0.77399 0.4398 0.0
C1033 C 0.48741 0.84815 0.39104 0.0
C1034 C 0.51266 0.81651 0.38606 0.0
C1035 C 0.5486 0.74748 0.40591 0.0
C1036 C 0.559 0.71151 0.43098 0.0
C1037 C 0.52297 0.77907 0.41028 0.0
C1038 C 0.54275 0.70593 0.45971 0.0
C1039 C 0.51737 0.7365 0.46403 0.0
H1040 H 0.06019 0.25005 0.38718 0.0
H1041 H 0.04732 0.1772 0.48277 0.0
H1042 H 1.00259 0.22981 0.48856 0.0
H1043 H 0.96793 0.29945 0.46788 0.0
H1044 H 0.9796 0.37311 0.37232 0.0
H1045 H 0.02389 0.31827 0.36538 0.0
C1046 C 0.04724 0.24476 0.40892 0.0
C1047 C 0.05709 0.20911 0.43438 0.0
C1048 C 0.02156 0.27645 0.41248 0.0
C1049 C 0.04028 0.20393 0.46271 0.0
C1050 C 1.01473 0.23441 0.46618 0.0
C1051 C 0.98027 0.30418 0.44563 0.0
C1052 C 0.97051 0.34138 0.42091 0.0
C1053 C 1.00542 0.27163 0.44153 0.0
C1054 C 0.98664 0.34553 0.39198 0.0
C1055 C 1.01194 0.31379 0.3879 0.0
H1056 H 0.96918 0.74217 0.88449 0.0
H1057 H 0.98204 0.65859 0.97717 0.0
H1058 H 0.02523 0.71508 0.98642 0.0
H1059 H 0.0582 0.79081 0.96966 0.0
H1060 H 0.04728 0.8736 0.87647 0.0
H1061 H 1.00415 0.8162 0.86637 0.0
C1062 C 0.98186 0.73551 0.9063 0.0
C1063 C 0.97252 0.69595 0.93 0.0
C1064 C 1.00654 0.76921 0.91186 0.0
C1065 C 0.98883 0.6886 0.9585 0.0
C1066 C 1.01341 0.72126 0.96397 0.0
C1067 C 0.04624 0.79693 0.94728 0.0
C1068 C 0.05576 0.83719 0.92411 0.0
C1069 C 0.02212 0.7625 0.94118 0.0
C1070 C 0.04023 0.84349 0.89494 0.0
C1071 C 0.01571 0.81027 0.88902 0.0
H1072 H 0.56091 0.27891 0.88811 0.0
H1073 H 0.5448 0.3882 0.97085 0.0
H1074 H 0.49753 0.34531 0.97781 0.0
H1075 H 0.46227 0.27472 0.96274 0.0
H1076 H 0.47665 0.16136 0.88122 0.0
H1077 H 0.52347 0.20727 0.87172 0.0
C1078 C 0.54668 0.29397 0.90715 0.0
C1079 C 0.55609 0.33722 0.92874 0.0
C1080 C 0.51966 0.26761 0.91167 0.0
C1081 C 0.53789 0.35542 0.95385 0.0
C1082 C 0.51097 0.33062 0.95796 0.0
C1083 C 0.47546 0.25941 0.94281 0.0
C1084 C 0.46584 0.21394 0.9229 0.0
C1085 C 0.50192 0.28609 0.93745 0.0
C1086 C 0.48351 0.1957 0.89717 0.0
C1087 C 0.51021 0.22227 0.89163 0.0
H1088 H 0.57638 0.31054 0.59827 0.0
H1089 H 0.54578 0.13607 0.60241 0.0
H1090 H 0.49615 0.1703 0.60336 0.0
H1091 H 0.4617 0.24989 0.60006 0.0
H1092 H 0.49222 0.42454 0.6003 0.0
H1093 H 0.54191 0.39041 0.60086 0.0
C1094 C 0.55877 0.28014 0.59957 0.0
C1095 C 0.56451 0.22092 0.59984 0.0
C1096 C 0.53048 0.30021 0.60085 0.0
C1097 C 0.54174 0.18179 0.60213 0.0
C1098 C 0.51345 0.20137 0.60256 0.0
C1099 C 0.47931 0.28039 0.60046 0.0
C1100 C 0.47353 0.33956 0.59973 0.0
C1101 C 0.50761 0.26042 0.60147 0.0
C1102 C 0.4963 0.37884 0.60082 0.0
C1103 C 0.52462 0.35931 0.60101 0.0
H1104 H 0.07615 0.81159 0.59996 0.0
H1105 H 0.04461 0.63779 0.60442 0.0
H1106 H 0.99515 0.67311 0.60407 0.0
H1107 H 0.9612 0.75339 0.59934 0.0
H1108 H 0.99265 0.92739 0.59903 0.0
H1109 H 0.04213 0.89219 0.60109 0.0
C1110 C 0.05838 0.78155 0.60109 0.0
C1111 C 0.06382 0.72221 0.60181 0.0
C1112 C 0.0302 0.80224 0.6015 0.0
C1113 C 0.04081 0.68359 0.60384 0.0
C1114 C 1.01262 0.70379 0.60349 0.0
C1115 C 0.97896 0.78352 0.5999 0.0
C1116 C 0.97352 0.84281 0.59856 0.0
C1117 C 1.00711 0.76295 0.60181 0.0
C1118 C 0.99647 0.88162 0.59995 0.0
C1119 C 0.02466 0.86147 0.60102 0.0
loop_
_geom_bond_atom_site_label_1
_geom_bond_atom_site_label_2
_geom_bond_distance
_geom_bond_site_symmetry_2
_ccdc_geom_bond_type
Fe0 O2 1.918 . S
Fe0 O5 1.997 . S
Fe0 O6 2.002 . S
Fe0 O11 1.976 . S
Fe0 O14 1.996 . S
Fe1 O2 1.918 . S
Fe1 O9 1.997 . S
Fe1 O12 1.996 . S
Fe1 O16 1.976 . S
Fe1 O19 2.002 . S
O2 Fe0 1.918 . S
O2 Fe1 1.918 . S
O2 Fe3 1.918 . S
Fe3 O2 1.918 . S
Fe3 O4 2.002 . S
Fe3 O13 1.976 . S
Fe3 O17 1.996 . S
Fe3 O20 1.997 . S
O4 Fe3 2.002 . S
O4 C21 1.295 . S
O5 Fe0 1.997 . S
O5 C21 1.235 . S
O6 Fe0 2.002 . S
O6 C7 1.295 . S
C7 O6 1.295 . S
C7 O9 1.235 . S
C8 O13 1.287 . S
C8 O14 1.255 . S
O9 Fe1 1.997 . S
O9 C7 1.235 . S
C10 O16 1.287 . S
C10 O17 1.255 . S
O11 Fe0 1.976 . S
O11 C18 1.287 . S
O12 Fe1 1.996 . S
O12 C18 1.255 . S
O13 Fe3 1.976 . S
O13 C8 1.287 . S
O14 Fe0 1.996 . S
O14 C8 1.255 . S
C15 O19 1.295 . S
C15 O20 1.235 . S
O16 Fe1 1.976 . S
O16 C10 1.287 . S
O17 Fe3 1.996 . S
O17 C10 1.255 . S
C18 O11 1.287 . S
C18 O12 1.255 . S
O19 Fe1 2.002 . S
O19 C15 1.295 . S
O20 Fe3 1.997 . S
O20 C15 1.235 . S
C21 O4 1.295 . S
C21 O5 1.235 . S
Fe22 O24 1.918 . S
Fe22 O27 1.997 . S
Fe22 O28 2.002 . S
Fe22 O33 1.976 . S
Fe22 O36 1.996 . S
Fe23 O24 1.918 . S
Fe23 O31 1.997 . S
Fe23 O34 1.996 . S
Fe23 O38 1.976 . S
Fe23 O41 2.002 . S
O24 Fe22 1.918 . S
O24 Fe23 1.918 . S
O24 Fe25 1.918 . S
Fe25 O24 1.918 . S
Fe25 O26 2.002 . S
Fe25 O35 1.976 . S
Fe25 O39 1.996 . S
Fe25 O42 1.997 . S
O26 Fe25 2.002 . S
O26 C43 1.295 . S
O27 Fe22 1.997 . S
O27 C43 1.235 . S
O28 Fe22 2.002 . S
O28 C29 1.295 . S
C29 O28 1.295 . S
C29 O31 1.235 . S
C30 O35 1.287 . S
C30 O36 1.255 . S
O31 Fe23 1.997 . S
O31 C29 1.235 . S
C32 O38 1.287 . S
C32 O39 1.255 . S
O33 Fe22 1.976 . S
O33 C40 1.287 . S
O34 Fe23 1.996 . S
O34 C40 1.255 . S
O35 Fe25 1.976 . S
O35 C30 1.287 . S
O36 Fe22 1.996 . S
O36 C30 1.255 . S
C37 O41 1.295 . S
C37 O42 1.235 . S
O38 Fe23 1.976 . S
O38 C32 1.287 . S
O39 Fe25 1.996 . S
O39 C32 1.255 . S
C40 O33 1.287 . S
C40 O34 1.255 . S
O41 Fe23 2.002 . S
O41 C37 1.295 . S
O42 Fe25 1.997 . S
O42 C37 1.235 . S
C43 O26 1.295 . S
C43 O27 1.235 . S
Fe44 O46 1.918 . S
Fe44 O49 1.997 . S
Fe44 O50 2.002 . S
Fe44 O55 1.976 . S
Fe44 O58 1.996 . S
Fe45 O46 1.918 . S
Fe45 O53 1.997 . S
Fe45 O56 1.996 . S
Fe45 O60 1.976 . S
Fe45 O63 2.002 . S
O46 Fe44 1.918 . S
O46 Fe45 1.918 . S
O46 Fe47 1.918 . S
Fe47 O46 1.918 . S
Fe47 O48 2.002 . S
Fe47 O57 1.976 . S
Fe47 O61 1.996 . S
Fe47 O64 1.997 . S
O48 Fe47 2.002 . S
O48 C65 1.295 . S
O49 Fe44 1.997 . S
O49 C65 1.235 . S
O50 Fe44 2.002 . S
O50 C51 1.295 . S
C51 O50 1.295 . S
C51 O53 1.235 . S
C52 O57 1.287 . S
C52 O58 1.255 . S
O53 Fe45 1.997 . S
O53 C51 1.235 . S
C54 O60 1.287 . S
C54 O61 1.255 . S
O55 Fe44 1.976 . S
O55 C62 1.287 . S
O56 Fe45 1.996 . S
O56 C62 1.255 . S
O57 Fe47 1.976 . S
O57 C52 1.287 . S
O58 Fe44 1.996 . S
O58 C52 1.255 . S
C59 O63 1.295 . S
C59 O64 1.235 . S
O60 Fe45 1.976 . S
O60 C54 1.287 . S
O61 Fe47 1.996 . S
O61 C54 1.255 . S
C62 O55 1.287 . S
C62 O56 1.255 . S
O63 Fe45 2.002 . S
O63 C59 1.295 . S
O64 Fe47 1.997 . S
O64 C59 1.235 . S
C65 O48 1.295 . S
C65 O49 1.235 . S
Fe66 O68 1.918 . S
Fe66 O71 1.997 . S
Fe66 O72 2.002 . S
Fe66 O77 1.976 . S
Fe66 O80 1.996 . S
Fe67 O68 1.918 . S
Fe67 O75 1.997 . S
Fe67 O78 1.996 . S
Fe67 O82 1.976 . S
Fe67 O85 2.002 . S
O68 Fe66 1.918 . S
O68 Fe67 1.918 . S
O68 Fe69 1.918 . S
Fe69 O68 1.918 . S
Fe69 O70 2.002 . S
Fe69 O79 1.976 . S
Fe69 O83 1.996 . S
Fe69 O86 1.997 . S
O70 Fe69 2.002 . S
O70 C87 1.295 . S
O71 Fe66 1.997 . S
O71 C87 1.235 . S
O72 Fe66 2.002 . S
O72 C73 1.295 . S
C73 O72 1.295 . S
C73 O75 1.235 . S
C74 O79 1.287 . S
C74 O80 1.255 . S
O75 Fe67 1.997 . S
O75 C73 1.235 . S
C76 O82 1.287 . S
C76 O83 1.255 . S
O77 Fe66 1.976 . S
O77 C84 1.287 . S
O78 Fe67 1.996 . S
O78 C84 1.255 . S
O79 Fe69 1.976 . S
O79 C74 1.287 . S
O80 Fe66 1.996 . S
O80 C74 1.255 . S
C81 O85 1.295 . S
C81 O86 1.235 . S
O82 Fe67 1.976 . S
O82 C76 1.287 . S
O83 Fe69 1.996 . S
O83 C76 1.255 . S
C84 O77 1.287 . S
C84 O78 1.255 . S
O85 Fe67 2.002 . S
O85 C81 1.295 . S
O86 Fe69 1.997 . S
O86 C81 1.235 . S
C87 O70 1.295 . S
C87 O71 1.235 . S
Fe88 O90 1.918 . S
Fe88 O93 1.997 . S
Fe88 O94 2.002 . S
Fe88 O99 1.976 . S
Fe88 O102 1.996 . S
Fe89 O90 1.918 . S
Fe89 O97 1.997 . S
Fe89 O100 1.996 . S
Fe89 O104 1.976 . S
Fe89 O107 2.002 . S
O90 Fe88 1.918 . S
O90 Fe89 1.918 . S
O90 Fe91 1.918 . S
Fe91 O90 1.918 . S
Fe91 O92 2.002 . S
Fe91 O101 1.976 . S
Fe91 O105 1.996 . S
Fe91 O108 1.997 . S
O92 Fe91 2.002 . S
O92 C109 1.295 . S
O93 Fe88 1.997 . S
O93 C109 1.235 . S
O94 Fe88 2.002 . S
O94 C95 1.295 . S
C95 O94 1.295 . S
C95 O97 1.235 . S
C96 O101 1.287 . S
C96 O102 1.255 . S
O97 Fe89 1.997 . S
O97 C95 1.235 . S
C98 O104 1.287 . S
C98 O105 1.255 . S
O99 Fe88 1.976 . S
O99 C106 1.287 . S
O100 Fe89 1.996 . S
O100 C106 1.255 . S
O101 Fe91 1.976 . S
O101 C96 1.287 . S
O102 Fe88 1.996 . S
O102 C96 1.255 . S
C103 O107 1.295 . S
C103 O108 1.235 . S
O104 Fe89 1.976 . S
O104 C98 1.287 . S
O105 Fe91 1.996 . S
O105 C98 1.255 . S
C106 O99 1.287 . S
C106 O100 1.255 . S
O107 Fe89 2.002 . S
O107 C103 1.295 . S
O108 Fe91 1.997 . S
O108 C103 1.235 . S
C109 O92 1.295 . S
C109 O93 1.235 . S
Fe110 O112 1.918 . S
Fe110 O115 1.997 . S
Fe110 O116 2.002 . S
Fe110 O121 1.976 . S
Fe110 O124 1.996 . S
Fe111 O112 1.918 . S
Fe111 O119 1.997 . S
Fe111 O122 1.996 . S
Fe111 O126 1.976 . S
Fe111 O129 2.002 . S
O112 Fe110 1.918 . S
O112 Fe111 1.918 . S
O112 Fe113 1.918 . S
Fe113 O112 1.918 . S
Fe113 O114 2.002 . S
Fe113 O123 1.976 . S
Fe113 O127 1.996 . S
Fe113 O130 1.997 . S
O114 Fe113 2.002 . S
O114 C131 1.295 . S
O115 Fe110 1.997 . S
O115 C131 1.235 . S
O116 Fe110 2.002 . S
O116 C117 1.295 . S
C117 O116 1.295 . S
C117 O119 1.235 . S
C118 O123 1.287 . S
C118 O124 1.255 . S
O119 Fe111 1.997 . S
O119 C117 1.235 . S
C120 O126 1.287 . S
C120 O127 1.255 . S
O121 Fe110 1.976 . S
O121 C128 1.287 . S
O122 Fe111 1.996 . S
O122 C128 1.255 . S
O123 Fe113 1.976 . S
O123 C118 1.287 . S
O124 Fe110 1.996 . S
O124 C118 1.255 . S
C125 O129 1.295 . S
C125 O130 1.235 . S
O126 Fe111 1.976 . S
O126 C120 1.287 . S
O127 Fe113 1.996 . S
O127 C120 1.255 . S
C128 O121 1.287 . S
C128 O122 1.255 . S
O129 Fe111 2.002 . S
O129 C125 1.295 . S
O130 Fe113 1.997 . S
O130 C125 1.235 . S
C131 O114 1.295 . S
C131 O115 1.235 . S
Fe132 O134 1.918 . S
Fe132 O137 1.997 . S
Fe132 O138 2.002 . S
Fe132 O143 1.976 . S
Fe132 O146 1.996 . S
Fe133 O134 1.918 . S
Fe133 O141 1.997 . S
Fe133 O144 1.996 . S
Fe133 O148 1.976 . S
Fe133 O151 2.002 . S
O134 Fe132 1.918 . S
O134 Fe133 1.918 . S
O134 Fe135 1.918 . S
Fe135 O134 1.918 . S
Fe135 O136 2.002 . S
Fe135 O145 1.976 . S
Fe135 O149 1.996 . S
Fe135 O152 1.997 . S
O136 Fe135 2.002 . S
O136 C153 1.295 . S
O137 Fe132 1.997 . S
O137 C153 1.235 . S
O138 Fe132 2.002 . S
O138 C139 1.295 . S
C139 O138 1.295 . S
C139 O141 1.235 . S
C140 O145 1.287 . S
C140 O146 1.255 . S
O141 Fe133 1.997 . S
O141 C139 1.235 . S
C142 O148 1.287 . S
C142 O149 1.255 . S
O143 Fe132 1.976 . S
O143 C150 1.287 . S
O144 Fe133 1.996 . S
O144 C150 1.255 . S
O145 Fe135 1.976 . S
O145 C140 1.287 . S
O146 Fe132 1.996 . S
O146 C140 1.255 . S
C147 O151 1.295 . S
C147 O152 1.235 . S
O148 Fe133 1.976 . S
O148 C142 1.287 . S
O149 Fe135 1.996 . S
O149 C142 1.255 . S
C150 O143 1.287 . S
C150 O144 1.255 . S
O151 Fe133 2.002 . S
O151 C147 1.295 . S
O152 Fe135 1.997 . S
O152 C147 1.235 . S
C153 O136 1.295 . S
C153 O137 1.235 . S
Fe154 O156 1.918 . S
Fe154 O159 1.997 . S
Fe154 O160 2.002 . S
Fe154 O165 1.976 . S
Fe154 O168 1.996 . S
Fe155 O156 1.918 . S
Fe155 O163 1.997 . S
Fe155 O166 1.996 . S
Fe155 O170 1.976 . S
Fe155 O173 2.002 . S
O156 Fe154 1.918 . S
O156 Fe155 1.918 . S
O156 Fe157 1.918 . S
Fe157 O156 1.918 . S
Fe157 O158 2.002 . S
Fe157 O167 1.976 . S
Fe157 O171 1.996 . S
Fe157 O174 1.997 . S
O158 Fe157 2.002 . S
O158 C175 1.295 . S
O159 Fe154 1.997 . S
O159 C175 1.235 . S
O160 Fe154 2.002 . S
O160 C161 1.295 . S
C161 O160 1.295 . S
C161 O163 1.235 . S
C162 O167 1.287 . S
C162 O168 1.255 . S
O163 Fe155 1.997 . S
O163 C161 1.235 . S
C164 O170 1.287 . S
C164 O171 1.255 . S
O165 Fe154 1.976 . S
O165 C172 1.287 . S
O166 Fe155 1.996 . S
O166 C172 1.255 . S
O167 Fe157 1.976 . S
O167 C162 1.287 . S
O168 Fe154 1.996 . S
O168 C162 1.255 . S
C169 O173 1.295 . S
C169 O174 1.235 . S
O170 Fe155 1.976 . S
O170 C164 1.287 . S
O171 Fe157 1.996 . S
O171 C164 1.255 . S
C172 O165 1.287 . S
C172 O166 1.255 . S
O173 Fe155 2.002 . S
O173 C169 1.295 . S
O174 Fe157 1.997 . S
O174 C169 1.235 . S
C175 O158 1.295 . S
C175 O159 1.235 . S
Fe176 O178 1.918 . S
Fe176 O181 1.997 . S
Fe176 O182 2.002 . S
Fe176 O187 1.976 . S
Fe176 O190 1.996 . S
Fe177 O178 1.918 . S
Fe177 O185 1.997 . S
Fe177 O188 1.996 . S
Fe177 O192 1.976 . S
Fe177 O195 2.002 . S
O178 Fe176 1.918 . S
O178 Fe177 1.918 . S
O178 Fe179 1.918 . S
Fe179 O178 1.918 . S
Fe179 O180 2.002 . S
Fe179 O189 1.976 . S
Fe179 O193 1.996 . S
Fe179 O196 1.997 . S
O180 Fe179 2.002 . S
O180 C197 1.295 . S
O181 Fe176 1.997 . S
O181 C197 1.235 . S
O182 Fe176 2.002 . S
O182 C183 1.295 . S
C183 O182 1.295 . S
C183 O185 1.235 . S
C184 O189 1.287 . S
C184 O190 1.255 . S
O185 Fe177 1.997 . S
O185 C183 1.235 . S
C186 O192 1.287 . S
C186 O193 1.255 . S
O187 Fe176 1.976 . S
O187 C194 1.287 . S
O188 Fe177 1.996 . S
O188 C194 1.255 . S
O189 Fe179 1.976 . S
O189 C184 1.287 . S
O190 Fe176 1.996 . S
O190 C184 1.255 . S
C191 O195 1.295 . S
C191 O196 1.235 . S
O192 Fe177 1.976 . S
O192 C186 1.287 . S
O193 Fe179 1.996 . S
O193 C186 1.255 . S
C194 O187 1.287 . S
C194 O188 1.255 . S
O195 Fe177 2.002 . S
O195 C191 1.295 . S
O196 Fe179 1.997 . S
O196 C191 1.235 . S
C197 O180 1.295 . S
C197 O181 1.235 . S
Fe198 O200 1.918 . S
Fe198 O203 1.997 . S
Fe198 O204 2.002 . S
Fe198 O209 1.976 . S
Fe198 O212 1.996 . S
Fe199 O200 1.918 . S
Fe199 O207 1.997 . S
Fe199 O210 1.996 . S
Fe199 O214 1.976 . S
Fe199 O217 2.002 . S
O200 Fe198 1.918 . S
O200 Fe199 1.918 . S
O200 Fe201 1.918 . S
Fe201 O200 1.918 . S
Fe201 O202 2.002 . S
Fe201 O211 1.976 . S
Fe201 O215 1.996 . S
Fe201 O218 1.997 . S
O202 Fe201 2.002 . S
O202 C219 1.295 . S
O203 Fe198 1.997 . S
O203 C219 1.235 . S
O204 Fe198 2.002 . S
O204 C205 1.295 . S
C205 O204 1.295 . S
C205 O207 1.235 . S
C206 O211 1.287 . S
C206 O212 1.255 . S
O207 Fe199 1.997 . S
O207 C205 1.235 . S
C208 O214 1.287 . S
C208 O215 1.255 . S
O209 Fe198 1.976 . S
O209 C216 1.287 . S
O210 Fe199 1.996 . S
O210 C216 1.255 . S
O211 Fe201 1.976 . S
O211 C206 1.287 . S
O212 Fe198 1.996 . S
O212 C206 1.255 . S
C213 O217 1.295 . S
C213 O218 1.235 . S
O214 Fe199 1.976 . S
O214 C208 1.287 . S
O215 Fe201 1.996 . S
O215 C208 1.255 . S
C216 O209 1.287 . S
C216 O210 1.255 . S
O217 Fe199 2.002 . S
O217 C213 1.295 . S
O218 Fe201 1.997 . S
O218 C213 1.235 . S
C219 O202 1.295 . S
C219 O203 1.235 . S
Fe220 O222 1.918 . S
Fe220 O225 1.997 . S
Fe220 O226 2.002 . S
Fe220 O231 1.976 . S
Fe220 O234 1.996 . S
Fe221 O222 1.918 . S
Fe221 O229 1.997 . S
Fe221 O232 1.996 . S
Fe221 O236 1.976 . S
Fe221 O239 2.002 . S
O222 Fe220 1.918 . S
O222 Fe221 1.918 . S
O222 Fe223 1.918 . S
Fe223 O222 1.918 . S
Fe223 O224 2.002 . S
Fe223 O233 1.976 . S
Fe223 O237 1.996 . S
Fe223 O240 1.997 . S
O224 Fe223 2.002 . S
O224 C241 1.295 . S
O225 Fe220 1.997 . S
O225 C241 1.235 . S
O226 Fe220 2.002 . S
O226 C227 1.295 . S
C227 O226 1.295 . S
C227 O229 1.235 . S
C228 O233 1.287 . S
C228 O234 1.255 . S
O229 Fe221 1.997 . S
O229 C227 1.235 . S
C230 O236 1.287 . S
C230 O237 1.255 . S
O231 Fe220 1.976 . S
O231 C238 1.287 . S
O232 Fe221 1.996 . S
O232 C238 1.255 . S
O233 Fe223 1.976 . S
O233 C228 1.287 . S
O234 Fe220 1.996 . S
O234 C228 1.255 . S
C235 O239 1.295 . S
C235 O240 1.235 . S
O236 Fe221 1.976 . S
O236 C230 1.287 . S
O237 Fe223 1.996 . S
O237 C230 1.255 . S
C238 O231 1.287 . S
C238 O232 1.255 . S
O239 Fe221 2.002 . S
O239 C235 1.295 . S
O240 Fe223 1.997 . S
O240 C235 1.235 . S
C241 O224 1.295 . S
C241 O225 1.235 . S
Fe242 O244 1.918 . S
Fe242 O247 1.997 . S
Fe242 O248 2.002 . S
Fe242 O253 1.976 . S
Fe242 O256 1.996 . S
Fe243 O244 1.918 . S
Fe243 O251 1.997 . S
Fe243 O254 1.996 . S
Fe243 O258 1.976 . S
Fe243 O261 2.002 . S
O244 Fe242 1.918 . S
O244 Fe243 1.918 . S
O244 Fe245 1.918 . S
Fe245 O244 1.918 . S
Fe245 O246 2.002 . S
Fe245 O255 1.976 . S
Fe245 O259 1.996 . S
Fe245 O262 1.997 . S
O246 Fe245 2.002 . S
O246 C263 1.295 . S
O247 Fe242 1.997 . S
O247 C263 1.235 . S
O248 Fe242 2.002 . S
O248 C249 1.295 . S
C249 O248 1.295 . S
C249 O251 1.235 . S
C250 O255 1.287 . S
C250 O256 1.255 . S
O251 Fe243 1.997 . S
O251 C249 1.235 . S
C252 O258 1.287 . S
C252 O259 1.255 . S
O253 Fe242 1.976 . S
O253 C260 1.287 . S
O254 Fe243 1.996 . S
O254 C260 1.255 . S
O255 Fe245 1.976 . S
O255 C250 1.287 . S
O256 Fe242 1.996 . S
O256 C250 1.255 . S
C257 O261 1.295 . S
C257 O262 1.235 . S
O258 Fe243 1.976 . S
O258 C252 1.287 . S
O259 Fe245 1.996 . S
O259 C252 1.255 . S
C260 O253 1.287 . S
C260 O254 1.255 . S
O261 Fe243 2.002 . S
O261 C257 1.295 . S
O262 Fe245 1.997 . S
O262 C257 1.235 . S
C263 O246 1.295 . S
C263 O247 1.235 . S
Fe264 O266 1.918 . S
Fe264 O269 1.997 . S
Fe264 O270 2.002 . S
Fe264 O275 1.976 . S
Fe264 O278 1.996 . S
Fe265 O266 1.918 . S
Fe265 O273 1.997 . S
Fe265 O276 1.996 . S
Fe265 O280 1.976 . S
Fe265 O283 2.002 . S
O266 Fe264 1.918 . S
O266 Fe265 1.918 . S
O266 Fe267 1.918 . S
Fe267 O266 1.918 . S
Fe267 O268 2.002 . S
Fe267 O277 1.976 . S
Fe267 O281 1.996 . S
Fe267 O284 1.997 . S
O268 Fe267 2.002 . S
O268 C285 1.295 . S
O269 Fe264 1.997 . S
O269 C285 1.235 . S
O270 Fe264 2.002 . S
O270 C271 1.295 . S
C271 O270 1.295 . S
C271 O273 1.235 . S
C272 O277 1.287 . S
C272 O278 1.255 . S
O273 Fe265 1.997 . S
O273 C271 1.235 . S
C274 O280 1.287 . S
C274 O281 1.255 . S
O275 Fe264 1.976 . S
O275 C282 1.287 . S
O276 Fe265 1.996 . S
O276 C282 1.255 . S
O277 Fe267 1.976 . S
O277 C272 1.287 . S
O278 Fe264 1.996 . S
O278 C272 1.255 . S
C279 O283 1.295 . S
C279 O284 1.235 . S
O280 Fe265 1.976 . S
O280 C274 1.287 . S
O281 Fe267 1.996 . S
O281 C274 1.255 . S
C282 O275 1.287 . S
C282 O276 1.255 . S
O283 Fe265 2.002 . S
O283 C279 1.295 . S
O284 Fe267 1.997 . S
O284 C279 1.235 . S
C285 O268 1.295 . S
C285 O269 1.235 . S
Fe286 O288 1.918 . S
Fe286 O291 1.997 . S
Fe286 O292 2.002 . S
Fe286 O297 1.976 . S
Fe286 O300 1.996 . S
Fe287 O288 1.918 . S
Fe287 O295 1.997 . S
Fe287 O298 1.996 . S
Fe287 O302 1.976 . S
Fe287 O305 2.002 . S
O288 Fe286 1.918 . S
O288 Fe287 1.918 . S
O288 Fe289 1.918 . S
Fe289 O288 1.918 . S
Fe289 O290 2.002 . S
Fe289 O299 1.976 . S
Fe289 O303 1.996 . S
Fe289 O306 1.997 . S
O290 Fe289 2.002 . S
O290 C307 1.295 . S
O291 Fe286 1.997 . S
O291 C307 1.235 . S
O292 Fe286 2.002 . S
O292 C293 1.295 . S
C293 O292 1.295 . S
C293 O295 1.235 . S
C294 O299 1.287 . S
C294 O300 1.255 . S
O295 Fe287 1.997 . S
O295 C293 1.235 . S
C296 O302 1.287 . S
C296 O303 1.255 . S
O297 Fe286 1.976 . S
O297 C304 1.287 . S
O298 Fe287 1.996 . S
O298 C304 1.255 . S
O299 Fe289 1.976 . S
O299 C294 1.287 . S
O300 Fe286 1.996 . S
O300 C294 1.255 . S
C301 O305 1.295 . S
C301 O306 1.235 . S
O302 Fe287 1.976 . S
O302 C296 1.287 . S
O303 Fe289 1.996 . S
O303 C296 1.255 . S
C304 O297 1.287 . S
C304 O298 1.255 . S
O305 Fe287 2.002 . S
O305 C301 1.295 . S
O306 Fe289 1.997 . S
O306 C301 1.235 . S
C307 O290 1.295 . S
C307 O291 1.235 . S
Fe308 O310 1.918 . S
Fe308 O313 1.997 . S
Fe308 O314 2.002 . S
Fe308 O319 1.976 . S
Fe308 O322 1.996 . S
Fe309 O310 1.918 . S
Fe309 O317 1.997 . S
Fe309 O320 1.996 . S
Fe309 O324 1.976 . S
Fe309 O327 2.002 . S
O310 Fe308 1.918 . S
O310 Fe309 1.918 . S
O310 Fe311 1.918 . S
Fe311 O310 1.918 . S
Fe311 O312 2.002 . S
Fe311 O321 1.976 . S
Fe311 O325 1.996 . S
Fe311 O328 1.997 . S
O312 Fe311 2.002 . S
O312 C329 1.295 . S
O313 Fe308 1.997 . S
O313 C329 1.235 . S
O314 Fe308 2.002 . S
O314 C315 1.295 . S
C315 O314 1.295 . S
C315 O317 1.235 . S
C316 O321 1.287 . S
C316 O322 1.255 . S
O317 Fe309 1.997 . S
O317 C315 1.235 . S
C318 O324 1.287 . S
C318 O325 1.255 . S
O319 Fe308 1.976 . S
O319 C326 1.287 . S
O320 Fe309 1.996 . S
O320 C326 1.255 . S
O321 Fe311 1.976 . S
O321 C316 1.287 . S
O322 Fe308 1.996 . S
O322 C316 1.255 . S
C323 O327 1.295 . S
C323 O328 1.235 . S
O324 Fe309 1.976 . S
O324 C318 1.287 . S
O325 Fe311 1.996 . S
O325 C318 1.255 . S
C326 O319 1.287 . S
C326 O320 1.255 . S
O327 Fe309 2.002 . S
O327 C323 1.295 . S
O328 Fe311 1.997 . S
O328 C323 1.235 . S
C329 O312 1.295 . S
C329 O313 1.235 . S
Fe330 O332 1.918 . S
Fe330 O335 1.997 . S
Fe330 O336 2.002 . S
Fe330 O341 1.976 . S
Fe330 O344 1.996 . S
Fe331 O332 1.918 . S
Fe331 O339 1.997 . S
Fe331 O342 1.996 . S
Fe331 O346 1.976 . S
Fe331 O349 2.002 . S
O332 Fe330 1.918 . S
O332 Fe331 1.918 . S
O332 Fe333 1.918 . S
Fe333 O332 1.918 . S
Fe333 O334 2.002 . S
Fe333 O343 1.976 . S
Fe333 O347 1.996 . S
Fe333 O350 1.997 . S
O334 Fe333 2.002 . S
O334 C351 1.295 . S
O335 Fe330 1.997 . S
O335 C351 1.235 . S
O336 Fe330 2.002 . S
O336 C337 1.295 . S
C337 O336 1.295 . S
C337 O339 1.235 . S
C338 O343 1.287 . S
C338 O344 1.255 . S
O339 Fe331 1.997 . S
O339 C337 1.235 . S
C340 O346 1.287 . S
C340 O347 1.255 . S
O341 Fe330 1.976 . S
O341 C348 1.287 . S
O342 Fe331 1.996 . S
O342 C348 1.255 . S
O343 Fe333 1.976 . S
O343 C338 1.287 . S
O344 Fe330 1.996 . S
O344 C338 1.255 . S
C345 O349 1.295 . S
C345 O350 1.235 . S
O346 Fe331 1.976 . S
O346 C340 1.287 . S
O347 Fe333 1.996 . S
O347 C340 1.255 . S
C348 O341 1.287 . S
C348 O342 1.255 . S
O349 Fe331 2.002 . S
O349 C345 1.295 . S
O350 Fe333 1.997 . S
O350 C345 1.235 . S
C351 O334 1.295 . S
C351 O335 1.235 . S
H352 C358 0.930 . S
H353 C361 0.930 . S
H354 C362 0.930 . S
H355 C363 0.930 . S
H356 C366 0.930 . S
H357 C367 0.930 . S
C358 H352 0.930 . S
C358 C359 1.355 . S
C358 C360 1.415 . S
C359 C358 1.355 . S
C359 C361 1.419 . S
C360 C358 1.415 . S
C360 C365 1.425 . S
C360 C367 1.409 1_545 S
C361 H353 0.930 . S
C361 C359 1.419 . S
C361 C362 1.362 1_554 S
C362 H354 0.930 . S
C362 C361 1.362 1_556 S
C362 C365 1.409 1_556 S
C363 H355 0.930 . S
C363 C364 1.355 1_545 S
C363 C365 1.415 1_556 S
C364 C363 1.355 1_565 S
C364 C366 1.419 1_556 S
C365 C360 1.425 . S
C365 C362 1.409 1_554 S
C365 C363 1.415 1_554 S
C366 H356 0.930 . S
C366 C364 1.419 1_554 S
C366 C367 1.362 . S
C367 H357 0.930 . S
C367 C360 1.409 1_565 S
C367 C366 1.362 . S
H368 C374 0.930 . S
H369 C377 0.930 . S
H370 C378 0.930 . S
H371 C379 0.930 . S
H372 C382 0.930 . S
H373 C383 0.930 . S
C374 H368 0.930 . S
C374 C375 1.355 1_554 S
C374 C376 1.415 1_545 S
C375 C374 1.355 1_556 S
C375 C377 1.419 . S
C376 C374 1.415 1_565 S
C376 C381 1.425 . S
C376 C383 1.409 . S
C377 H369 0.930 . S
C377 C375 1.419 . S
C377 C378 1.362 1_545 S
C378 H370 0.930 . S
C378 C377 1.362 1_565 S
C378 C381 1.409 1_556 S
C379 H371 0.930 . S
C379 C380 1.355 . S
C379 C381 1.415 . S
C380 C379 1.355 . S
C380 C382 1.419 . S
C381 C376 1.425 . S
C381 C378 1.409 1_554 S
C381 C379 1.415 . S
C382 H372 0.930 . S
C382 C380 1.419 . S
C382 C383 1.362 . S
C383 H373 0.930 . S
C383 C376 1.409 . S
C383 C382 1.362 . S
H384 C390 0.930 . S
H385 C393 0.929 1_545 S
H386 C394 0.930 . S
H387 C395 0.930 . S
H388 C398 0.930 . S
H389 C399 0.930 1_545 S
C390 H384 0.930 . S
C390 C391 1.355 . S
C390 C392 1.415 1_545 S
C391 C390 1.355 . S
C391 C393 1.419 1_545 S
C392 C390 1.415 1_565 S
C392 C397 1.425 . S
C392 C399 1.409 . S
C393 H385 0.929 1_565 S
C393 C391 1.419 1_565 S
C393 C394 1.362 . S
C394 H386 0.930 . S
C394 C393 1.362 . S
C394 C397 1.409 . S
C395 H387 0.930 . S
C395 C396 1.355 . S
C395 C397 1.415 . S
C396 C395 1.355 . S
C396 C398 1.419 . S
C397 C392 1.425 . S
C397 C394 1.409 . S
C397 C395 1.415 . S
C398 H388 0.930 . S
C398 C396 1.419 . S
C398 C399 1.362 . S
C399 H389 0.930 1_565 S
C399 C392 1.409 . S
C399 C398 1.362 . S
H400 C406 0.930 . S
H401 C409 0.930 . S
H402 C410 0.930 . S
H403 C411 0.930 . S
H404 C414 0.930 . S
H405 C415 0.930 . S
C406 H400 0.930 . S
C406 C407 1.355 . S
C406 C408 1.415 1_565 S
C407 C406 1.355 . S
C407 C409 1.419 . S
C408 C406 1.415 1_545 S
C408 C413 1.425 . S
C408 C415 1.409 . S
C409 H401 0.930 . S
C409 C407 1.419 . S
C409 C410 1.362 1_565 S
C410 H402 0.930 . S
C410 C409 1.362 1_545 S
C410 C413 1.409 . S
C411 H403 0.930 . S
C411 C412 1.355 . S
C411 C413 1.415 . S
C412 C411 1.355 . S
C412 C414 1.419 . S
C413 C408 1.425 . S
C413 C410 1.409 . S
C413 C411 1.415 . S
C414 H404 0.930 . S
C414 C412 1.419 . S
C414 C415 1.362 . S
C415 H405 0.930 . S
C415 C408 1.409 . S
C415 C414 1.362 . S
H416 C422 0.930 . S
H417 C425 0.930 . S
H418 C426 0.930 . S
H419 C427 0.930 . S
H420 C430 0.930 . S
H421 C431 0.930 . S
C422 H416 0.930 . S
C422 C423 1.355 . S
C422 C424 1.415 1_544 S
C423 C422 1.355 . S
C423 C425 1.419 . S
C424 C422 1.415 1_566 S
C424 C429 1.425 . S
C424 C431 1.409 . S
C425 H417 0.930 . S
C425 C423 1.419 . S
C425 C426 1.362 1_545 S
C426 H418 0.930 . S
C426 C425 1.362 1_565 S
C426 C429 1.409 1_554 S
C427 H419 0.930 . S
C427 C428 1.355 . S
C427 C429 1.415 . S
C428 C427 1.355 . S
C428 C430 1.419 . S
C429 C424 1.425 . S
C429 C426 1.409 1_556 S
C429 C427 1.415 . S
C430 H420 0.930 . S
C430 C428 1.419 . S
C430 C431 1.362 . S
C431 H421 0.930 . S
C431 C424 1.409 . S
C431 C430 1.362 . S
H432 C438 0.930 . S
H433 C441 0.930 . S
H434 C442 0.930 . S
H435 C443 0.930 . S
H436 C446 0.930 . S
H437 C447 0.930 . S
C438 H432 0.930 . S
C438 C439 1.355 . S
C438 C440 1.415 . S
C439 C438 1.355 . S
C439 C441 1.419 . S
C440 C438 1.415 . S
C440 C445 1.425 . S
C440 C447 1.409 1_545 S
C441 H433 0.930 . S
C441 C439 1.419 . S
C441 C442 1.362 . S
C442 H434 0.930 . S
C442 C441 1.362 . S
C442 C445 1.409 . S
C443 H435 0.930 . S
C443 C444 1.355 . S
C443 C445 1.415 1_564 S
C444 C443 1.355 . S
C444 C446 1.419 . S
C445 C440 1.425 . S
C445 C442 1.409 . S
C445 C443 1.415 1_546 S
C446 H436 0.930 . S
C446 C444 1.419 . S
C446 C447 1.362 1_554 S
C447 H437 0.930 . S
C447 C440 1.409 1_565 S
C447 C446 1.362 1_556 S
H448 C454 0.931 . S
H449 C457 0.930 . S
H450 C458 0.930 . S
H451 C459 0.930 . S
H452 C462 0.930 . S
H453 C463 0.930 . S
C454 H448 0.931 . S
C454 C455 1.355 . S
C454 C456 1.415 1_565 S
C455 C454 1.355 . S
C455 C457 1.419 . S
C456 C454 1.415 1_545 S
C456 C461 1.425 . S
C456 C463 1.409 . S
C457 H449 0.930 . S
C457 C455 1.419 . S
C457 C458 1.362 . S
C458 H450 0.930 . S
C458 C457 1.362 . S
C458 C461 1.409 1_565 S
C459 H451 0.930 . S
C459 C460 1.355 . S
C459 C461 1.415 . S
C460 C459 1.355 . S
C460 C462 1.419 . S
C461 C456 1.425 . S
C461 C458 1.409 1_545 S
C461 C459 1.415 . S
C462 H452 0.930 . S
C462 C460 1.419 . S
C462 C463 1.362 . S
C463 H453 0.930 . S
C463 C456 1.409 . S
C463 C462 1.362 . S
H464 C470 0.930 . S
H465 C473 0.930 . S
H466 C474 0.930 1_545 S
H467 C475 0.930 . S
H468 C478 0.930 1_545 S
H469 C479 0.930 . S
C470 H464 0.930 . S
C470 C471 1.355 . S
C470 C472 1.415 . S
C471 C470 1.355 . S
C471 C473 1.419 . S
C472 C470 1.415 . S
C472 C477 1.425 . S
C472 C479 1.409 . S
C473 H465 0.930 . S
C473 C471 1.419 . S
C473 C474 1.362 . S
C474 H466 0.930 1_565 S
C474 C473 1.362 . S
C474 C477 1.409 . S
C475 H467 0.930 . S
C475 C476 1.355 . S
C475 C477 1.415 1_545 S
C476 C475 1.355 . S
C476 C478 1.419 1_545 S
C477 C472 1.425 . S
C477 C474 1.409 . S
C477 C475 1.415 1_565 S
C478 H468 0.930 1_565 S
C478 C476 1.419 1_565 S
C478 C479 1.362 . S
C479 H469 0.930 . S
C479 C472 1.409 . S
C479 C478 1.362 . S
H480 C486 0.930 . S
H481 C489 0.930 . S
H482 C490 0.930 . S
H483 C491 0.930 . S
H484 C494 0.930 . S
H485 C495 0.930 . S
C486 H480 0.930 . S
C486 C487 1.355 . S
C486 C488 1.415 1_556 S
C487 C486 1.355 . S
C487 C489 1.419 . S
C488 C486 1.415 1_554 S
C488 C493 1.425 . S
C488 C495 1.409 . S
C489 H481 0.930 . S
C489 C487 1.419 . S
C489 C490 1.362 1_556 S
C490 H482 0.930 . S
C490 C489 1.362 1_554 S
C490 C493 1.409 . S
C491 H483 0.930 . S
C491 C492 1.355 . S
C491 C493 1.415 . S
C492 C491 1.355 . S
C492 C494 1.419 . S
C493 C488 1.425 . S
C493 C490 1.409 . S
C493 C491 1.415 . S
C494 H484 0.930 . S
C494 C492 1.419 . S
C494 C495 1.362 . S
C495 H485 0.930 . S
C495 C488 1.409 . S
C495 C494 1.362 . S
H496 C502 0.930 . S
H497 C505 0.930 . S
H498 C506 0.930 . S
H499 C507 0.930 . S
H500 C510 0.930 . S
H501 C511 0.930 . S
C502 H496 0.930 . S
C502 C503 1.355 . S
C502 C504 1.415 . S
C503 C502 1.355 . S
C503 C505 1.419 . S
C504 C502 1.415 . S
C504 C509 1.425 . S
C504 C511 1.409 . S
C505 H497 0.930 . S
C505 C503 1.419 . S
C505 C506 1.362 . S
C506 H498 0.930 . S
C506 C505 1.362 . S
C506 C509 1.409 . S
C507 H499 0.930 . S
C507 C508 1.355 . S
C507 C509 1.415 1_556 S
C508 C507 1.355 . S
C508 C510 1.419 . S
C509 C504 1.425 . S
C509 C506 1.409 . S
C509 C507 1.415 1_554 S
C510 H500 0.930 . S
C510 C508 1.419 . S
C510 C511 1.362 1_556 S
C511 H501 0.930 . S
C511 C504 1.409 . S
C511 C510 1.362 1_554 S
H512 C518 0.930 . S
H513 C521 0.930 . S
H514 C522 0.930 . S
H515 C523 0.930 . S
H516 C526 0.930 . S
H517 C527 0.930 . S
C518 H512 0.930 . S
C518 C519 1.355 . S
C518 C520 1.415 . S
C519 C518 1.355 . S
C519 C521 1.419 . S
C520 C518 1.415 . S
C520 C525 1.425 . S
C520 C527 1.409 . S
C521 H513 0.930 . S
C521 C519 1.419 . S
C521 C522 1.362 . S
C522 H514 0.930 . S
C522 C521 1.362 . S
C522 C525 1.409 . S
C523 H515 0.930 . S
C523 C524 1.355 . S
C523 C525 1.415 . S
C524 C523 1.355 . S
C524 C526 1.419 . S
C525 C520 1.425 . S
C525 C522 1.409 . S
C525 C523 1.415 . S
C526 H516 0.930 . S
C526 C524 1.419 . S
C526 C527 1.362 . S
C527 H517 0.930 . S
C527 C520 1.409 . S
C527 C526 1.362 . S
H528 C534 0.930 . S
H529 C537 0.930 . S
H530 C538 0.930 . S
H531 C539 0.930 . S
H532 C542 0.930 . S
H533 C543 0.930 . S
C534 H528 0.930 . S
C534 C535 1.355 . S
C534 C536 1.415 . S
C535 C534 1.355 . S
C535 C537 1.419 . S
C536 C534 1.415 . S
C536 C541 1.425 . S
C536 C543 1.409 . S
C537 H529 0.930 . S
C537 C535 1.419 . S
C537 C538 1.362 . S
C538 H530 0.930 . S
C538 C537 1.362 . S
C538 C541 1.409 . S
C539 H531 0.930 . S
C539 C540 1.355 . S
C539 C541 1.415 . S
C540 C539 1.355 . S
C540 C542 1.419 . S
C541 C536 1.425 . S
C541 C538 1.409 . S
C541 C539 1.415 . S
C542 H532 0.930 . S
C542 C540 1.419 . S
C542 C543 1.362 . S
C543 H533 0.930 . S
C543 C536 1.409 . S
C543 C542 1.362 . S
H544 C550 0.930 . S
H545 C553 0.930 . S
H546 C554 0.930 . S
H547 C555 0.930 . S
H548 C558 0.930 . S
H549 C559 0.930 . S
C550 H544 0.930 . S
C550 C551 1.355 . S
C550 C552 1.415 . S
C551 C550 1.355 . S
C551 C553 1.419 . S
C552 C550 1.415 . S
C552 C557 1.425 . S
C552 C559 1.409 . S
C553 H545 0.930 . S
C553 C551 1.419 . S
C553 C554 1.362 . S
C554 H546 0.930 . S
C554 C553 1.362 . S
C554 C557 1.409 . S
C555 H547 0.930 . S
C555 C556 1.355 . S
C555 C557 1.415 1_554 S
C556 C555 1.355 . S
C556 C558 1.419 . S
C557 C552 1.425 . S
C557 C554 1.409 . S
C557 C555 1.415 1_556 S
C558 H548 0.930 . S
C558 C556 1.419 . S
C558 C559 1.362 1_554 S
C559 H549 0.930 . S
C559 C552 1.409 . S
C559 C558 1.362 1_556 S
H560 C566 0.930 . S
H561 C569 0.930 . S
H562 C570 0.931 . S
H563 C571 0.930 . S
H564 C574 0.930 . S
H565 C575 0.930 . S
C566 H560 0.930 . S
C566 C567 1.355 . S
C566 C568 1.415 1_554 S
C567 C566 1.355 . S
C567 C569 1.419 . S
C568 C566 1.415 1_556 S
C568 C573 1.425 . S
C568 C575 1.409 . S
C569 H561 0.930 . S
C569 C567 1.419 . S
C569 C570 1.362 . S
C570 H562 0.931 . S
C570 C569 1.362 . S
C570 C573 1.409 1_554 S
C571 H563 0.930 . S
C571 C572 1.355 . S
C571 C573 1.415 . S
C572 C571 1.355 . S
C572 C574 1.419 . S
C573 C568 1.425 . S
C573 C570 1.409 1_556 S
C573 C571 1.415 . S
C574 H564 0.930 . S
C574 C572 1.419 . S
C574 C575 1.362 . S
C575 H565 0.930 . S
C575 C568 1.409 . S
C575 C574 1.362 . S
H576 C582 0.930 . S
H577 C585 0.930 . S
H578 C586 0.930 . S
H579 C587 0.930 . S
H580 C590 0.930 . S
H581 C591 0.930 . S
C582 H576 0.930 . S
C582 C583 1.355 . S
C582 C584 1.415 . S
C583 C582 1.355 . S
C583 C585 1.419 . S
C584 C582 1.415 . S
C584 C589 1.425 . S
C584 C591 1.409 . S
C585 H577 0.930 . S
C585 C583 1.419 . S
C585 C586 1.362 . S
C586 H578 0.930 . S
C586 C585 1.362 . S
C586 C589 1.409 . S
C587 H579 0.930 . S
C587 C588 1.355 . S
C587 C589 1.415 . S
C588 C587 1.355 . S
C588 C590 1.419 . S
C589 C584 1.425 . S
C589 C586 1.409 . S
C589 C587 1.415 . S
C590 H580 0.930 . S
C590 C588 1.419 . S
C590 C591 1.362 . S
C591 H581 0.930 . S
C591 C584 1.409 . S
C591 C590 1.362 . S
H592 C598 0.930 . S
H593 C601 0.930 . S
H594 C602 0.930 . S
H595 C603 0.930 . S
H596 C606 0.930 . S
H597 C607 0.930 . S
C598 H592 0.930 . S
C598 C599 1.355 . S
C598 C600 1.415 . S
C599 C598 1.355 . S
C599 C601 1.419 . S
C600 C598 1.415 . S
C600 C605 1.425 . S
C600 C607 1.409 . S
C601 H593 0.930 . S
C601 C599 1.419 . S
C601 C602 1.362 . S
C602 H594 0.930 . S
C602 C601 1.362 . S
C602 C605 1.409 . S
C603 H595 0.930 . S
C603 C604 1.355 . S
C603 C605 1.415 . S
C604 C603 1.355 . S
C604 C606 1.419 . S
C605 C600 1.425 . S
C605 C602 1.409 . S
C605 C603 1.415 . S
C606 H596 0.930 . S
C606 C604 1.419 . S
C606 C607 1.362 . S
C607 H597 0.930 . S
C607 C600 1.409 . S
C607 C606 1.362 . S
H608 C614 0.930 . S
H609 C617 0.930 . S
H610 C618 0.930 . S
H611 C619 0.930 . S
H612 C622 0.930 . S
H613 C623 0.930 . S
C614 H608 0.930 . S
C614 C615 1.355 . S
C614 C616 1.415 . S
C615 C614 1.355 . S
C615 C617 1.419 . S
C616 C614 1.415 . S
C616 C621 1.425 . S
C616 C623 1.409 . S
C617 H609 0.930 . S
C617 C615 1.419 . S
C617 C618 1.362 . S
C618 H610 0.930 . S
C618 C617 1.362 . S
C618 C621 1.409 . S
C619 H611 0.930 . S
C619 C620 1.355 . S
C619 C621 1.415 . S
C620 C619 1.355 . S
C620 C622 1.419 . S
C621 C616 1.425 . S
C621 C618 1.409 . S
C621 C619 1.415 . S
C622 H612 0.930 . S
C622 C620 1.419 . S
C622 C623 1.362 . S
C623 H613 0.930 . S
C623 C616 1.409 . S
C623 C622 1.362 . S
H624 C630 0.930 . S
H625 C633 0.930 . S
H626 C634 0.930 . S
H627 C635 0.930 . S
H628 C638 0.930 . S
H629 C639 0.930 . S
C630 H624 0.930 . S
C630 C631 1.355 . S
C630 C632 1.415 . S
C631 C630 1.355 . S
C631 C633 1.419 . S
C632 C630 1.415 . S
C632 C637 1.425 . S
C632 C639 1.409 . S
C633 H625 0.930 . S
C633 C631 1.419 . S
C633 C634 1.362 . S
C634 H626 0.930 . S
C634 C633 1.362 . S
C634 C637 1.409 . S
C635 H627 0.930 . S
C635 C636 1.355 . S
C635 C637 1.415 . S
C636 C635 1.355 . S
C636 C638 1.419 . S
C637 C632 1.425 . S
C637 C634 1.409 . S
C637 C635 1.415 . S
C638 H628 0.930 . S
C638 C636 1.419 . S
C638 C639 1.362 . S
C639 H629 0.930 . S
C639 C632 1.409 . S
C639 C638 1.362 . S
H640 C646 0.930 . S
H641 C649 0.930 . S
H642 C650 0.930 . S
H643 C651 0.930 . S
H644 C654 0.930 . S
H645 C655 0.930 . S
C646 H640 0.930 . S
C646 C647 1.355 . S
C646 C648 1.415 . S
C647 C646 1.355 . S
C647 C649 1.419 . S
C648 C646 1.415 . S
C648 C653 1.425 . S
C648 C655 1.409 . S
C649 H641 0.930 . S
C649 C647 1.419 . S
C649 C650 1.362 . S
C650 H642 0.930 . S
C650 C649 1.362 . S
C650 C653 1.409 . S
C651 H643 0.930 . S
C651 C652 1.355 . S
C651 C653 1.415 . S
C652 C651 1.355 . S
C652 C654 1.419 . S
C653 C648 1.425 . S
C653 C650 1.409 . S
C653 C651 1.415 . S
C654 H644 0.930 . S
C654 C652 1.419 . S
C654 C655 1.362 . S
C655 H645 0.930 . S
C655 C648 1.409 . S
C655 C654 1.362 . S
H656 C662 0.930 . S
H657 C665 0.930 . S
H658 C666 0.930 . S
H659 C667 0.930 . S
H660 C670 0.930 . S
H661 C671 0.930 . S
C662 H656 0.930 . S
C662 C663 1.355 . S
C662 C664 1.415 . S
C663 C662 1.355 . S
C663 C665 1.419 . S
C664 C662 1.415 . S
C664 C669 1.425 . S
C664 C671 1.409 . S
C665 H657 0.930 . S
C665 C663 1.419 . S
C665 C666 1.362 . S
C666 H658 0.930 . S
C666 C665 1.362 . S
C666 C669 1.409 . S
C667 H659 0.930 . S
C667 C668 1.355 . S
C667 C669 1.415 . S
C668 C667 1.355 . S
C668 C670 1.419 . S
C669 C664 1.425 . S
C669 C666 1.409 . S
C669 C667 1.415 . S
C670 H660 0.930 . S
C670 C668 1.419 . S
C670 C671 1.362 . S
C671 H661 0.930 . S
C671 C664 1.409 . S
C671 C670 1.362 . S
H672 C678 0.930 . S
H673 C681 0.930 . S
H674 C682 0.930 . S
H675 C683 0.930 . S
H676 C686 0.930 . S
H677 C687 0.930 . S
C678 H672 0.930 . S
C678 C679 1.355 . S
C678 C680 1.415 . S
C679 C678 1.355 . S
C679 C681 1.419 . S
C680 C678 1.415 . S
C680 C685 1.425 . S
C680 C687 1.409 . S
C681 H673 0.930 . S
C681 C679 1.419 . S
C681 C682 1.362 . S
C682 H674 0.930 . S
C682 C681 1.362 . S
C682 C685 1.409 . S
C683 H675 0.930 . S
C683 C684 1.355 . S
C683 C685 1.415 . S
C684 C683 1.355 . S
C684 C686 1.419 . S
C685 C680 1.425 . S
C685 C682 1.409 . S
C685 C683 1.415 . S
C686 H676 0.930 . S
C686 C684 1.419 . S
C686 C687 1.362 . S
C687 H677 0.930 . S
C687 C680 1.409 . S
C687 C686 1.362 . S
H688 C694 0.930 . S
H689 C697 0.930 . S
H690 C698 0.930 . S
H691 C699 0.930 . S
H692 C702 0.930 . S
H693 C703 0.930 . S
C694 H688 0.930 . S
C694 C695 1.355 . S
C694 C696 1.415 . S
C695 C694 1.355 . S
C695 C697 1.419 . S
C696 C694 1.415 . S
C696 C701 1.425 . S
C696 C703 1.409 . S
C697 H689 0.930 . S
C697 C695 1.419 . S
C697 C698 1.362 . S
C698 H690 0.930 . S
C698 C697 1.362 . S
C698 C701 1.409 . S
C699 H691 0.930 . S
C699 C700 1.355 . S
C699 C701 1.415 . S
C700 C699 1.355 . S
C700 C702 1.419 . S
C701 C696 1.425 . S
C701 C698 1.409 . S
C701 C699 1.415 . S
C702 H692 0.930 . S
C702 C700 1.419 . S
C702 C703 1.362 . S
C703 H693 0.930 . S
C703 C696 1.409 . S
C703 C702 1.362 . S
H704 C710 0.930 . S
H705 C713 0.930 . S
H706 C714 0.930 . S
H707 C715 0.930 . S
H708 C718 0.930 . S
H709 C719 0.930 . S
C710 H704 0.930 . S
C710 C711 1.355 . S
C710 C712 1.415 . S
C711 C710 1.355 . S
C711 C713 1.419 . S
C712 C710 1.415 . S
C712 C717 1.425 . S
C712 C719 1.409 . S
C713 H705 0.930 . S
C713 C711 1.419 . S
C713 C714 1.362 . S
C714 H706 0.930 . S
C714 C713 1.362 . S
C714 C717 1.409 . S
C715 H707 0.930 . S
C715 C716 1.355 . S
C715 C717 1.415 . S
C716 C715 1.355 . S
C716 C718 1.419 . S
C717 C712 1.425 . S
C717 C714 1.409 . S
C717 C715 1.415 . S
C718 H708 0.930 . S
C718 C716 1.419 . S
C718 C719 1.362 . S
C719 H709 0.930 . S
C719 C712 1.409 . S
C719 C718 1.362 . S
H720 C726 0.930 . S
H721 C729 0.930 . S
H722 C730 0.930 . S
H723 C731 0.930 . S
H724 C734 0.930 . S
H725 C735 0.930 . S
C726 H720 0.930 . S
C726 C727 1.355 . S
C726 C728 1.415 . S
C727 C726 1.355 . S
C727 C729 1.419 . S
C728 C726 1.415 . S
C728 C733 1.425 . S
C728 C735 1.409 . S
C729 H721 0.930 . S
C729 C727 1.419 . S
C729 C730 1.362 . S
C730 H722 0.930 . S
C730 C729 1.362 . S
C730 C733 1.409 . S
C731 H723 0.930 . S
C731 C732 1.355 . S
C731 C733 1.415 . S
C732 C731 1.355 . S
C732 C734 1.419 . S
C733 C728 1.425 . S
C733 C730 1.409 . S
C733 C731 1.415 . S
C734 H724 0.930 . S
C734 C732 1.419 . S
C734 C735 1.362 . S
C735 H725 0.930 . S
C735 C728 1.409 . S
C735 C734 1.362 . S
H736 C742 0.930 . S
H737 C745 0.930 . S
H738 C746 0.930 . S
H739 C747 0.930 . S
H740 C750 0.930 . S
H741 C751 0.930 . S
C742 H736 0.930 . S
C742 C743 1.355 . S
C742 C744 1.415 . S
C743 C742 1.355 . S
C743 C745 1.419 . S
C744 C742 1.415 . S
C744 C749 1.425 . S
C744 C751 1.409 . S
C745 H737 0.930 . S
C745 C743 1.419 . S
C745 C746 1.362 . S
C746 H738 0.930 . S
C746 C745 1.362 . S
C746 C749 1.409 . S
C747 H739 0.930 . S
C747 C748 1.355 . S
C747 C749 1.415 . S
C748 C747 1.355 . S
C748 C750 1.419 . S
C749 C744 1.425 . S
C749 C746 1.409 . S
C749 C747 1.415 . S
C750 H740 0.930 . S
C750 C748 1.419 . S
C750 C751 1.362 . S
C751 H741 0.930 . S
C751 C744 1.409 . S
C751 C750 1.362 . S
H752 C758 0.930 . S
H753 C761 0.930 . S
H754 C762 0.930 . S
H755 C763 0.930 . S
H756 C766 0.930 . S
H757 C767 0.930 . S
C758 H752 0.930 . S
C758 C759 1.355 . S
C758 C760 1.415 . S
C759 C758 1.355 . S
C759 C761 1.419 . S
C760 C758 1.415 . S
C760 C765 1.425 . S
C760 C767 1.409 . S
C761 H753 0.930 . S
C761 C759 1.419 . S
C761 C762 1.362 . S
C762 H754 0.930 . S
C762 C761 1.362 . S
C762 C765 1.409 . S
C763 H755 0.930 . S
C763 C764 1.355 . S
C763 C765 1.415 . S
C764 C763 1.355 . S
C764 C766 1.419 . S
C765 C760 1.425 . S
C765 C762 1.409 . S
C765 C763 1.415 . S
C766 H756 0.930 . S
C766 C764 1.419 . S
C766 C767 1.362 . S
C767 H757 0.930 . S
C767 C760 1.409 . S
C767 C766 1.362 . S
H768 C774 0.930 . S
H769 C777 0.930 . S
H770 C778 0.930 . S
H771 C779 0.930 . S
H772 C782 0.930 . S
H773 C783 0.930 . S
C774 H768 0.930 . S
C774 C775 1.355 . S
C774 C776 1.415 . S
C775 C774 1.355 . S
C775 C777 1.419 . S
C776 C774 1.415 . S
C776 C781 1.425 . S
C776 C783 1.409 . S
C777 H769 0.930 . S
C777 C775 1.419 . S
C777 C778 1.362 . S
C778 H770 0.930 . S
C778 C777 1.362 . S
C778 C781 1.409 . S
C779 H771 0.930 . S
C779 C780 1.355 . S
C779 C781 1.415 . S
C780 C779 1.355 . S
C780 C782 1.419 . S
C781 C776 1.425 . S
C781 C778 1.409 . S
C781 C779 1.415 . S
C782 H772 0.930 . S
C782 C780 1.419 . S
C782 C783 1.362 . S
C783 H773 0.930 . S
C783 C776 1.409 . S
C783 C782 1.362 . S
H784 C790 0.930 . S
H785 C793 0.930 . S
H786 C794 0.930 . S
H787 C795 0.930 . S
H788 C798 0.930 . S
H789 C799 0.930 . S
C790 H784 0.930 . S
C790 C791 1.355 . S
C790 C792 1.415 . S
C791 C790 1.355 . S
C791 C793 1.419 . S
C792 C790 1.415 . S
C792 C797 1.425 . S
C792 C799 1.409 . S
C793 H785 0.930 . S
C793 C791 1.419 . S
C793 C794 1.362 . S
C794 H786 0.930 . S
C794 C793 1.362 . S
C794 C797 1.409 . S
C795 H787 0.930 . S
C795 C796 1.355 . S
C795 C797 1.415 . S
C796 C795 1.355 . S
C796 C798 1.419 . S
C797 C792 1.425 . S
C797 C794 1.409 . S
C797 C795 1.415 . S
C798 H788 0.930 . S
C798 C796 1.419 . S
C798 C799 1.362 . S
C799 H789 0.930 . S
C799 C792 1.409 . S
C799 C798 1.362 . S
H800 C806 0.930 . S
H801 C809 0.930 . S
H802 C810 0.930 . S
H803 C811 0.930 . S
H804 C814 0.930 . S
H805 C815 0.930 . S
C806 H800 0.930 . S
C806 C807 1.355 . S
C806 C808 1.415 1_545 S
C807 C806 1.355 . S
C807 C809 1.419 . S
C808 C806 1.415 1_565 S
C808 C813 1.425 1_565 S
C808 C815 1.409 . S
C809 H801 0.930 . S
C809 C807 1.419 . S
C809 C810 1.362 . S
C810 H802 0.930 . S
C810 C809 1.362 . S
C810 C813 1.409 . S
C811 H803 0.930 . S
C811 C812 1.355 . S
C811 C813 1.415 1_565 S
C812 C811 1.355 . S
C812 C814 1.419 . S
C813 C808 1.425 1_545 S
C813 C810 1.409 . S
C813 C811 1.415 1_545 S
C814 H804 0.930 . S
C814 C812 1.419 . S
C814 C815 1.362 . S
C815 H805 0.930 . S
C815 C808 1.409 . S
C815 C814 1.362 . S
H816 C822 0.930 . S
H817 C825 0.930 . S
H818 C826 0.930 . S
H819 C827 0.930 . S
H820 C830 0.930 . S
H821 C831 0.930 . S
C822 H816 0.930 . S
C822 C823 1.355 . S
C822 C824 1.415 1_545 S
C823 C822 1.355 . S
C823 C825 1.419 . S
C824 C822 1.415 1_565 S
C824 C829 1.425 1_565 S
C824 C831 1.409 . S
C825 H817 0.930 . S
C825 C823 1.419 . S
C825 C826 1.362 . S
C826 H818 0.930 . S
C826 C825 1.362 . S
C826 C829 1.409 . S
C827 H819 0.930 . S
C827 C828 1.355 . S
C827 C829 1.415 1_565 S
C828 C827 1.355 . S
C828 C830 1.419 . S
C829 C824 1.425 1_545 S
C829 C826 1.409 . S
C829 C827 1.415 1_545 S
C830 H820 0.930 . S
C830 C828 1.419 . S
C830 C831 1.362 . S
C831 H821 0.930 . S
C831 C824 1.409 . S
C831 C830 1.362 . S
H832 C838 0.930 . S
H833 C841 0.930 . S
H834 C842 0.930 . S
H835 C843 0.930 . S
H836 C846 0.930 . S
H837 C847 0.930 . S
C838 H832 0.930 . S
C838 C839 1.355 . S
C838 C840 1.415 1_565 S
C839 C838 1.355 . S
C839 C841 1.419 . S
C840 C838 1.415 1_545 S
C840 C845 1.425 1_545 S
C840 C847 1.409 . S
C841 H833 0.930 . S
C841 C839 1.419 . S
C841 C842 1.362 . S
C842 H834 0.930 . S
C842 C841 1.362 . S
C842 C845 1.409 . S
C843 H835 0.930 . S
C843 C844 1.355 . S
C843 C845 1.415 1_545 S
C844 C843 1.355 . S
C844 C846 1.419 . S
C845 C840 1.425 1_565 S
C845 C842 1.409 . S
C845 C843 1.415 1_565 S
C846 H836 0.930 . S
C846 C844 1.419 . S
C846 C847 1.362 . S
C847 H837 0.930 . S
C847 C840 1.409 . S
C847 C846 1.362 . S
H848 C854 0.930 . S
H849 C857 0.930 . S
H850 C858 0.930 . S
H851 C859 0.930 . S
H852 C862 0.930 . S
H853 C863 0.930 . S
C854 H848 0.930 . S
C854 C855 1.355 . S
C854 C856 1.415 . S
C855 C854 1.355 . S
C855 C857 1.419 . S
C856 C854 1.415 . S
C856 C861 1.425 1_565 S
C856 C863 1.409 . S
C857 H849 0.930 . S
C857 C855 1.419 . S
C857 C858 1.362 1_565 S
C858 H850 0.930 . S
C858 C857 1.362 1_545 S
C858 C861 1.409 . S
C859 H851 0.930 . S
C859 C860 1.355 . S
C859 C861 1.415 . S
C860 C859 1.355 . S
C860 C862 1.419 . S
C861 C856 1.425 1_545 S
C861 C858 1.409 . S
C861 C859 1.415 . S
C862 H852 0.930 . S
C862 C860 1.419 . S
C862 C863 1.362 1_545 S
C863 H853 0.930 . S
C863 C856 1.409 . S
C863 C862 1.362 1_565 S
H864 C870 0.930 . S
H865 C873 0.930 . S
H866 C874 0.930 . S
H867 C875 0.930 . S
H868 C878 0.930 . S
H869 C879 0.930 . S
C870 H864 0.930 . S
C870 C871 1.355 . S
C870 C872 1.415 . S
C871 C870 1.355 . S
C871 C873 1.419 1_556 S
C872 C870 1.415 . S
C872 C877 1.425 1_556 S
C872 C879 1.409 . S
C873 H865 0.930 . S
C873 C871 1.419 1_554 S
C873 C874 1.362 . S
C874 H866 0.930 . S
C874 C873 1.362 . S
C874 C877 1.409 . S
C875 H867 0.930 . S
C875 C876 1.355 . S
C875 C877 1.415 . S
C876 C875 1.355 . S
C876 C878 1.419 1_554 S
C877 C872 1.425 1_554 S
C877 C874 1.409 . S
C877 C875 1.415 . S
C878 H868 0.930 . S
C878 C876 1.419 1_556 S
C878 C879 1.362 . S
C879 H869 0.930 . S
C879 C872 1.409 . S
C879 C878 1.362 . S
H880 C886 0.930 . S
H881 C889 0.930 . S
H882 C890 0.930 . S
H883 C891 0.930 . S
H884 C894 0.930 . S
H885 C895 0.930 . S
C886 H880 0.930 . S
C886 C887 1.355 . S
C886 C888 1.415 . S
C887 C886 1.355 . S
C887 C889 1.419 1_554 S
C888 C886 1.415 . S
C888 C893 1.425 1_554 S
C888 C895 1.409 . S
C889 H881 0.930 . S
C889 C887 1.419 1_556 S
C889 C890 1.362 . S
C890 H882 0.930 . S
C890 C889 1.362 . S
C890 C893 1.409 . S
C891 H883 0.930 . S
C891 C892 1.355 . S
C891 C893 1.415 . S
C892 C891 1.355 . S
C892 C894 1.419 1_556 S
C893 C888 1.425 1_556 S
C893 C890 1.409 . S
C893 C891 1.415 . S
C894 H884 0.930 . S
C894 C892 1.419 1_554 S
C894 C895 1.362 . S
C895 H885 0.930 . S
C895 C888 1.409 . S
C895 C894 1.362 . S
H896 C902 0.930 . S
H897 C905 0.930 . S
H898 C906 0.930 . S
H899 C907 0.930 . S
H900 C910 0.930 . S
H901 C911 0.930 . S
C902 H896 0.930 . S
C902 C903 1.355 . S
C902 C904 1.415 . S
C903 C902 1.355 . S
C903 C905 1.419 . S
C904 C902 1.415 . S
C904 C909 1.425 . S
C904 C911 1.409 . S
C905 H897 0.930 . S
C905 C903 1.419 . S
C905 C906 1.362 . S
C906 H898 0.930 . S
C906 C905 1.362 . S
C906 C909 1.409 . S
C907 H899 0.930 . S
C907 C908 1.355 . S
C907 C909 1.415 . S
C908 C907 1.355 . S
C908 C910 1.419 . S
C909 C904 1.425 . S
C909 C906 1.409 . S
C909 C907 1.415 . S
C910 H900 0.930 . S
C910 C908 1.419 . S
C910 C911 1.362 . S
C911 H901 0.930 . S
C911 C904 1.409 . S
C911 C910 1.362 . S
H912 C918 0.930 . S
H913 C921 0.930 . S
H914 C922 0.930 . S
H915 C923 0.930 . S
H916 C926 0.930 . S
H917 C927 0.930 . S
C918 H912 0.930 . S
C918 C919 1.355 . S
C918 C920 1.415 . S
C919 C918 1.355 . S
C919 C921 1.419 . S
C920 C918 1.415 . S
C920 C925 1.425 . S
C920 C927 1.409 . S
C921 H913 0.930 . S
C921 C919 1.419 . S
C921 C922 1.362 . S
C922 H914 0.930 . S
C922 C921 1.362 . S
C922 C925 1.409 . S
C923 H915 0.930 . S
C923 C924 1.355 . S
C923 C925 1.415 . S
C924 C923 1.355 . S
C924 C926 1.419 . S
C925 C920 1.425 . S
C925 C922 1.409 . S
C925 C923 1.415 . S
C926 H916 0.930 . S
C926 C924 1.419 . S
C926 C927 1.362 . S
C927 H917 0.930 . S
C927 C920 1.409 . S
C927 C926 1.362 . S
H928 C934 0.930 . S
H929 C937 0.930 . S
H930 C938 0.930 . S
H931 C939 0.930 . S
H932 C942 0.930 . S
H933 C943 0.930 . S
C934 H928 0.930 . S
C934 C935 1.355 . S
C934 C936 1.415 . S
C935 C934 1.355 . S
C935 C937 1.419 1_556 S
C936 C934 1.415 . S
C936 C941 1.425 1_556 S
C936 C943 1.409 . S
C937 H929 0.930 . S
C937 C935 1.419 1_554 S
C937 C938 1.362 . S
C938 H930 0.930 . S
C938 C937 1.362 . S
C938 C941 1.409 . S
C939 H931 0.930 . S
C939 C940 1.355 . S
C939 C941 1.415 . S
C940 C939 1.355 . S
C940 C942 1.419 1_554 S
C941 C936 1.425 1_554 S
C941 C938 1.409 . S
C941 C939 1.415 . S
C942 H932 0.930 . S
C942 C940 1.419 1_556 S
C942 C943 1.362 . S
C943 H933 0.930 . S
C943 C936 1.409 . S
C943 C942 1.362 . S
H944 C950 0.930 . S
H945 C953 0.930 . S
H946 C954 0.930 . S
H947 C955 0.930 . S
H948 C958 0.930 . S
H949 C959 0.930 . S
C950 H944 0.930 . S
C950 C951 1.355 . S
C950 C952 1.415 . S
C951 C950 1.355 . S
C951 C953 1.419 1_556 S
C952 C950 1.415 . S
C952 C957 1.425 1_556 S
C952 C959 1.409 . S
C953 H945 0.930 . S
C953 C951 1.419 1_554 S
C953 C954 1.362 . S
C954 H946 0.930 . S
C954 C953 1.362 . S
C954 C957 1.409 . S
C955 H947 0.930 . S
C955 C956 1.355 . S
C955 C957 1.415 . S
C956 C955 1.355 . S
C956 C958 1.419 1_554 S
C957 C952 1.425 1_554 S
C957 C954 1.409 . S
C957 C955 1.415 . S
C958 H948 0.930 . S
C958 C956 1.419 1_556 S
C958 C959 1.362 . S
C959 H949 0.930 . S
C959 C952 1.409 . S
C959 C958 1.362 . S
H960 C966 0.930 . S
H961 C969 0.930 . S
H962 C970 0.930 . S
H963 C971 0.930 . S
H964 C974 0.930 . S
H965 C975 0.930 . S
C966 H960 0.930 . S
C966 C967 1.355 . S
C966 C968 1.415 . S
C967 C966 1.355 . S
C967 C969 1.419 . S
C968 C966 1.415 . S
C968 C973 1.425 . S
C968 C975 1.409 . S
C969 H961 0.930 . S
C969 C967 1.419 . S
C969 C970 1.362 . S
C970 H962 0.930 . S
C970 C969 1.362 . S
C970 C973 1.409 . S
C971 H963 0.930 . S
C971 C972 1.355 . S
C971 C973 1.415 . S
C972 C971 1.355 . S
C972 C974 1.419 . S
C973 C968 1.425 . S
C973 C970 1.409 . S
C973 C971 1.415 . S
C974 H964 0.930 . S
C974 C972 1.419 . S
C974 C975 1.362 . S
C975 H965 0.930 . S
C975 C968 1.409 . S
C975 C974 1.362 . S
H976 C982 0.930 . S
H977 C985 0.930 . S
H978 C986 0.930 . S
H979 C987 0.930 . S
H980 C990 0.930 . S
H981 C991 0.930 . S
C982 H976 0.930 . S
C982 C983 1.355 . S
C982 C984 1.415 . S
C983 C982 1.355 . S
C983 C985 1.419 . S
C984 C982 1.415 . S
C984 C989 1.425 . S
C984 C991 1.409 . S
C985 H977 0.930 . S
C985 C983 1.419 . S
C985 C986 1.362 . S
C986 H978 0.930 . S
C986 C985 1.362 . S
C986 C989 1.409 . S
C987 H979 0.930 . S
C987 C988 1.355 . S
C987 C989 1.415 . S
C988 C987 1.355 . S
C988 C990 1.419 . S
C989 C984 1.425 . S
C989 C986 1.409 . S
C989 C987 1.415 . S
C990 H980 0.930 . S
C990 C988 1.419 . S
C990 C991 1.362 . S
C991 H981 0.930 . S
C991 C984 1.409 . S
C991 C990 1.362 . S
H992 C998 0.930 . S
H993 C1001 0.930 . S
H994 C1002 0.930 1_655 S
H995 C1003 0.930 . S
H996 C1006 0.930 . S
H997 C1007 0.930 1_455 S
C998 H992 0.930 . S
C998 C999 1.355 . S
C998 C1000 1.415 . S
C999 C998 1.355 . S
C999 C1001 1.419 . S
C1000 C998 1.415 . S
C1000 C1005 1.425 1_455 S
C1000 C1007 1.409 1_455 S
C1001 H993 0.930 . S
C1001 C999 1.419 . S
C1001 C1002 1.362 . S
C1002 H994 0.930 1_455 S
C1002 C1001 1.362 . S
C1002 C1005 1.409 1_455 S
C1003 H995 0.930 . S
C1003 C1004 1.355 . S
C1003 C1005 1.415 . S
C1004 C1003 1.355 . S
C1004 C1006 1.419 . S
C1005 C1000 1.425 1_655 S
C1005 C1002 1.409 1_655 S
C1005 C1003 1.415 . S
C1006 H996 0.930 . S
C1006 C1004 1.419 . S
C1006 C1007 1.362 . S
C1007 H997 0.930 1_655 S
C1007 C1000 1.409 1_655 S
C1007 C1006 1.362 . S
H1008 C1014 0.930 . S
H1009 C1017 0.930 . S
H1010 C1018 0.930 . S
H1011 C1019 0.930 . S
H1012 C1022 0.930 . S
H1013 C1023 0.930 . S
C1014 H1008 0.930 . S
C1014 C1015 1.355 . S
C1014 C1016 1.415 . S
C1015 C1014 1.355 . S
C1015 C1017 1.419 . S
C1016 C1014 1.415 . S
C1016 C1021 1.425 . S
C1016 C1023 1.409 . S
C1017 H1009 0.930 . S
C1017 C1015 1.419 . S
C1017 C1018 1.362 . S
C1018 H1010 0.930 . S
C1018 C1017 1.362 . S
C1018 C1021 1.409 . S
C1019 H1011 0.930 . S
C1019 C1020 1.355 . S
C1019 C1021 1.415 . S
C1020 C1019 1.355 . S
C1020 C1022 1.419 . S
C1021 C1016 1.425 . S
C1021 C1018 1.409 . S
C1021 C1019 1.415 . S
C1022 H1012 0.930 . S
C1022 C1020 1.419 . S
C1022 C1023 1.362 . S
C1023 H1013 0.930 . S
C1023 C1016 1.409 . S
C1023 C1022 1.362 . S
H1024 C1030 0.930 . S
H1025 C1033 0.930 . S
H1026 C1034 0.930 . S
H1027 C1035 0.930 . S
H1028 C1038 0.930 . S
H1029 C1039 0.930 . S
C1030 H1024 0.930 . S
C1030 C1031 1.355 . S
C1030 C1032 1.415 . S
C1031 C1030 1.355 . S
C1031 C1033 1.419 . S
C1032 C1030 1.415 . S
C1032 C1037 1.425 . S
C1032 C1039 1.409 . S
C1033 H1025 0.930 . S
C1033 C1031 1.419 . S
C1033 C1034 1.362 . S
C1034 H1026 0.930 . S
C1034 C1033 1.362 . S
C1034 C1037 1.409 . S
C1035 H1027 0.930 . S
C1035 C1036 1.355 . S
C1035 C1037 1.415 . S
C1036 C1035 1.355 . S
C1036 C1038 1.419 . S
C1037 C1032 1.425 . S
C1037 C1034 1.409 . S
C1037 C1035 1.415 . S
C1038 H1028 0.930 . S
C1038 C1036 1.419 . S
C1038 C1039 1.362 . S
C1039 H1029 0.930 . S
C1039 C1032 1.409 . S
C1039 C1038 1.362 . S
H1040 C1046 0.930 . S
H1041 C1049 0.930 . S
H1042 C1050 0.915 1_655 S
H1043 C1051 0.930 . S
H1044 C1054 0.930 . S
H1045 C1055 0.915 1_455 S
C1046 H1040 0.930 . S
C1046 C1047 1.355 . S
C1046 C1048 1.415 . S
C1047 C1046 1.355 . S
C1047 C1049 1.419 . S
C1048 C1046 1.415 . S
C1048 C1053 1.425 1_455 S
C1048 C1055 1.401 1_455 S
C1049 H1041 0.930 . S
C1049 C1047 1.419 . S
C1049 C1050 1.385 . S
C1050 H1042 0.915 1_455 S
C1050 C1049 1.385 . S
C1050 C1053 1.401 1_455 S
C1051 H1043 0.930 . S
C1051 C1052 1.355 . S
C1051 C1053 1.415 . S
C1052 C1051 1.355 . S
C1052 C1054 1.419 . S
C1053 C1048 1.425 1_655 S
C1053 C1050 1.401 1_655 S
C1053 C1051 1.415 . S
C1054 H1044 0.930 . S
C1054 C1052 1.419 . S
C1054 C1055 1.385 . S
C1055 H1045 0.915 1_655 S
C1055 C1048 1.401 1_655 S
C1055 C1054 1.385 . S
H1056 C1062 0.930 . S
H1057 C1065 0.930 . S
H1058 C1066 0.930 . S
H1059 C1067 0.930 . S
H1060 C1070 0.930 . S
H1061 C1071 0.930 . S
C1062 H1056 0.930 . S
C1062 C1063 1.355 . S
C1062 C1064 1.398 1_655 S
C1063 C1062 1.355 . S
C1063 C1065 1.419 . S
C1064 C1062 1.398 1_455 S
C1064 C1069 1.424 1_455 S
C1064 C1071 1.427 . S
C1065 H1057 0.930 . S
C1065 C1063 1.419 . S
C1065 C1066 1.362 . S
C1066 H1058 0.930 . S
C1066 C1065 1.362 . S
C1066 C1069 1.427 . S
C1067 H1059 0.930 . S
C1067 C1068 1.355 . S
C1067 C1069 1.398 1_455 S
C1068 C1067 1.355 . S
C1068 C1070 1.419 . S
C1069 C1064 1.424 1_655 S
C1069 C1066 1.427 . S
C1069 C1067 1.398 1_655 S
C1070 H1060 0.930 . S
C1070 C1068 1.419 . S
C1070 C1071 1.362 . S
C1071 H1061 0.930 . S
C1071 C1064 1.427 . S
C1071 C1070 1.362 . S
H1072 C1078 0.930 . S
H1073 C1081 0.930 . S
H1074 C1082 0.930 . S
H1075 C1083 0.930 . S
H1076 C1086 0.930 . S
H1077 C1087 0.930 . S
C1078 H1072 0.930 . S
C1078 C1079 1.355 . S
C1078 C1080 1.415 . S
C1079 C1078 1.355 . S
C1079 C1081 1.419 . S
C1080 C1078 1.415 . S
C1080 C1085 1.425 . S
C1080 C1087 1.409 . S
C1081 H1073 0.930 . S
C1081 C1079 1.419 . S
C1081 C1082 1.362 . S
C1082 H1074 0.930 . S
C1082 C1081 1.362 . S
C1082 C1085 1.409 . S
C1083 H1075 0.930 . S
C1083 C1084 1.355 . S
C1083 C1085 1.415 . S
C1084 C1083 1.355 . S
C1084 C1086 1.419 . S
C1085 C1080 1.425 . S
C1085 C1082 1.409 . S
C1085 C1083 1.415 . S
C1086 H1076 0.930 . S
C1086 C1084 1.419 . S
C1086 C1087 1.362 . S
C1087 H1077 0.930 . S
C1087 C1080 1.409 . S
C1087 C1086 1.362 . S
H1088 C1094 0.930 . S
H1089 C1097 0.930 . S
H1090 C1098 0.930 . S
H1091 C1099 0.930 . S
H1092 C1102 0.930 . S
H1093 C1103 0.930 . S
C1094 H1088 0.930 . S
C1094 C1095 1.355 . S
C1094 C1096 1.415 . S
C1095 C1094 1.355 . S
C1095 C1097 1.419 . S
C1096 C1094 1.415 . S
C1096 C1101 1.425 . S
C1096 C1103 1.409 . S
C1097 H1089 0.930 . S
C1097 C1095 1.419 . S
C1097 C1098 1.362 . S
C1098 H1090 0.930 . S
C1098 C1097 1.362 . S
C1098 C1101 1.409 . S
C1099 H1091 0.930 . S
C1099 C1100 1.355 . S
C1099 C1101 1.415 . S
C1100 C1099 1.355 . S
C1100 C1102 1.419 . S
C1101 C1096 1.425 . S
C1101 C1098 1.409 . S
C1101 C1099 1.415 . S
C1102 H1092 0.930 . S
C1102 C1100 1.419 . S
C1102 C1103 1.362 . S
C1103 H1093 0.930 . S
C1103 C1096 1.409 . S
C1103 C1102 1.362 . S
H1104 C1110 0.930 . S
H1105 C1113 0.930 . S
H1106 C1114 0.930 1_655 S
H1107 C1115 0.930 . S
H1108 C1118 0.930 . S
H1109 C1119 0.930 1_455 S
C1110 H1104 0.930 . S
C1110 C1111 1.355 . S
C1110 C1112 1.415 . S
C1111 C1110 1.355 . S
C1111 C1113 1.419 . S
C1112 C1110 1.415 . S
C1112 C1117 1.425 1_455 S
C1112 C1119 1.409 1_455 S
C1113 H1105 0.930 . S
C1113 C1111 1.419 . S
C1113 C1114 1.362 . S
C1114 H1106 0.930 1_455 S
C1114 C1113 1.362 . S
C1114 C1117 1.409 1_455 S
C1115 H1107 0.930 . S
C1115 C1116 1.355 . S
C1115 C1117 1.415 . S
C1116 C1115 1.355 . S
C1116 C1118 1.419 . S
C1117 C1112 1.425 1_655 S
C1117 C1114 1.409 1_655 S
C1117 C1115 1.415 . S
C1118 H1108 0.930 . S
C1118 C1116 1.419 . S
C1118 C1119 1.362 . S
C1119 H1109 0.930 1_655 S
C1119 C1112 1.409 1_655 S
C1119 C1118 1.362 . S
C359 C10 1.418 . S
C364 C293 1.517 . S
C375 C279 1.519 . S
C380 C30 1.491 . S
C391 C337 1.531 . S
C396 C54 1.480 . S
C407 C315 1.516 . S
C412 C74 1.484 . S
C423 C205 1.536 . S
C428 C106 1.495 . S
C439 C128 1.480 . S
C444 C197 1.515 . S
C455 C263 1.511 . S
C460 C142 1.447 . S
C471 C164 1.491 . S
C476 C235 1.536 . S
C487 C131 1.512 . S
C492 C186 1.469 . S
C503 C206 1.458 . S
C508 C109 1.530 . S
C519 C161 1.510 . S
C524 C238 1.433 . S
C535 C139 1.531 . S
C540 C252 1.478 . S
C551 C272 1.488 . S
C556 C29 1.517 . S
C567 C21 1.512 . S
C572 C296 1.469 . S
C583 C318 1.444 . S
C588 C73 1.524 . S
C599 C65 1.536 . S
C604 C340 1.491 . S
C615 C228 1.459 . S
C620 C18 1.443 . S
C631 C32 1.453 . S
C636 C260 1.443 . S
C647 C194 1.471 . S
C652 C62 1.458 . S
C663 C208 1.464 . S
C668 C76 1.445 . S
C679 C316 1.456 . S
C684 C98 1.444 . S
C695 C120 1.465 . S
C700 C338 1.451 . S
C711 C140 1.464 . S
C716 C282 1.451 . S
C727 C294 1.467 . S
C732 C162 1.456 . S
C743 C7 1.622 . S
C748 C37 1.632 . S
C759 C51 1.623 . S
C764 C81 1.631 . S
C775 C103 1.622 . S
C780 C125 1.626 . S
C791 C175 1.619 . S
C796 C153 1.630 . S
C807 C213 1.614 . S
C812 C183 1.634 . S
C823 C241 1.616 . S
C828 C249 1.634 . S
C839 C307 1.638 . S
C844 C271 1.623 . S
C855 C329 1.622 . S
C860 C351 1.627 . S
C871 C285 0.727 . S
C876 C15 0.735 . S
C887 C43 0.720 . S
C892 C301 0.713 . S
C903 C59 0.774 . S
C908 C323 0.766 . S
C919 C87 0.627 . S
C924 C345 0.632 . S
C935 C95 0.762 . S
C940 C191 0.770 . S
C951 C117 0.753 . S
C956 C219 0.762 . S
C967 C147 0.726 . S
C972 C227 0.735 . S
C983 C257 0.758 . S
C988 C169 0.749 . S
C999 C8 1.553 . S
C1004 C216 1.551 . S
C1015 C40 1.555 . S
C1020 C184 1.555 . S
C1031 C250 1.521 . S
C1036 C52 1.520 . S
C1047 C230 1.552 . S
C1052 C84 1.554 . S
C1063 C96 1.497 . S
C1068 C304 1.500 . S
C1079 C118 1.500 . S
C1084 C274 1.508 . S
C1095 C348 1.539 . S
C1100 C150 1.535 . S
C1111 C172 1.534 . S
C1116 C326 1.538 . S
