# Generated by pormake.
# Topology wjo, (5)-cn, num edge types: 1
# Building blocks:
#     Node 0, Type 0, BuildingBlock: BEQFEK_clean_sbu_0, # of connection points: 5
#     Node 1, Type 0, BuildingBlock: BEQFEK_clean_sbu_0, # of connection points: 5
#     Node 2, Type 0, BuildingBlock: BEQFEK_clean_sbu_0, # of connection points: 5
#     Node 3, Type 0, BuildingBlock: BEQFEK_clean_sbu_0, # of connection points: 5
#     Node 4, Type 0, BuildingBlock: BEQFEK_clean_sbu_0, # of connection points: 5
#     Node 5, Type 0, BuildingBlock: BEQFEK_clean_sbu_0, # of connection points: 5
#     Node 6, Type 0, BuildingBlock: BEQFEK_clean_sbu_0, # of connection points: 5
#     Node 7, Type 0, BuildingBlock: BEQFEK_clean_sbu_0, # of connection points: 5
#     Node 8, Type 0, BuildingBlock: BEQFEK_clean_sbu_0, # of connection points: 5
#     Node 9, Type 0, BuildingBlock: BEQFEK_clean_sbu_0, # of connection points: 5
#     Node 10, Type 0, BuildingBlock: BEQFEK_clean_sbu_0, # of connection points: 5
#     Node 11, Type 0, BuildingBlock: BEQFEK_clean_sbu_0, # of connection points: 5
#     Edge 12, Type (0, 0), BuildingBlock: EYOCIG_clean_linker_4, # of connection points: 2
#     Edge 13, Type (0, 0), BuildingBlock: EYOCIG_clean_linker_4, # of connection points: 2
#     Edge 14, Type (0, 0), BuildingBlock: EYOCIG_clean_linker_4, # of connection points: 2
#     Edge 15, Type (0, 0), BuildingBlock: EYOCIG_clean_linker_4, # of connection points: 2
#     Edge 16, Type (0, 0), BuildingBlock: EYOCIG_clean_linker_4, # of connection points: 2
#     Edge 17, Type (0, 0), BuildingBlock: EYOCIG_clean_linker_4, # of connection points: 2
#     Edge 18, Type (0, 0), BuildingBlock: EYOCIG_clean_linker_4, # of connection points: 2
#     Edge 19, Type (0, 0), BuildingBlock: EYOCIG_clean_linker_4, # of connection points: 2
#     Edge 20, Type (0, 0), BuildingBlock: EYOCIG_clean_linker_4, # of connection points: 2
#     Edge 21, Type (0, 0), BuildingBlock: EYOCIG_clean_linker_4, # of connection points: 2
#     Edge 22, Type (0, 0), BuildingBlock: EYOCIG_clean_linker_4, # of connection points: 2
#     Edge 23, Type (0, 0), BuildingBlock: EYOCIG_clean_linker_4, # of connection points: 2
#     Edge 24, Type (0, 0), BuildingBlock: EYOCIG_clean_linker_4, # of connection points: 2
#     Edge 25, Type (0, 0), BuildingBlock: EYOCIG_clean_linker_4, # of connection points: 2
#     Edge 26, Type (0, 0), BuildingBlock: EYOCIG_clean_linker_4, # of connection points: 2
#     Edge 27, Type (0, 0), BuildingBlock: EYOCIG_clean_linker_4, # of connection points: 2
#     Edge 28, Type (0, 0), BuildingBlock: EYOCIG_clean_linker_4, # of connection points: 2
#     Edge 29, Type (0, 0), BuildingBlock: EYOCIG_clean_linker_4, # of connection points: 2
#     Edge 30, Type (0, 0), BuildingBlock: EYOCIG_clean_linker_4, # of connection points: 2
#     Edge 31, Type (0, 0), BuildingBlock: EYOCIG_clean_linker_4, # of connection points: 2
#     Edge 32, Type (0, 0), BuildingBlock: EYOCIG_clean_linker_4, # of connection points: 2
#     Edge 33, Type (0, 0), BuildingBlock: EYOCIG_clean_linker_4, # of connection points: 2
#     Edge 34, Type (0, 0), BuildingBlock: EYOCIG_clean_linker_4, # of connection points: 2
#     Edge 35, Type (0, 0), BuildingBlock: EYOCIG_clean_linker_4, # of connection points: 2
#     Edge 36, Type (0, 0), BuildingBlock: EYOCIG_clean_linker_4, # of connection points: 2
#     Edge 37, Type (0, 0), BuildingBlock: EYOCIG_clean_linker_4, # of connection points: 2
#     Edge 38, Type (0, 0), BuildingBlock: EYOCIG_clean_linker_4, # of connection points: 2
#     Edge 39, Type (0, 0), BuildingBlock: EYOCIG_clean_linker_4, # of connection points: 2
#     Edge 40, Type (0, 0), BuildingBlock: EYOCIG_clean_linker_4, # of connection points: 2
#     Edge 41, Type (0, 0), BuildingBlock: EYOCIG_clean_linker_4, # of connection points: 2
# Relax obj value: 0.822
# Max RMSD: 0.258
# Mean RMSD: 0.247
data_MOF--net-wjo--node1-BEQFEK_clean_sbu_0--edge1-EYOCIG_clean_linker_4
_symmetry_space_group_name_H-M    P1
_symmetry_Int_Tables_number       1
_symmetry_cell_setting            triclinic
loop_
_symmetry_equiv_pos_as_xyz
'x, y, z'
_cell_length_a     37.177206
_cell_length_b     36.98609
_cell_length_c     22.97844
_cell_angle_alpha  90.145998
_cell_angle_beta   89.999384
_cell_angle_gamma 120.17071
loop_
_atom_site_label
_atom_site_type_symbol
_atom_site_fract_x
_atom_site_fract_y
_atom_site_fract_z
_atom_type_partial_charge
Co0 Co 0.31862 0.37361 0.91402 0.0
Co1 Co 0.31373 0.43847 -0.00143 0.0
C2 C 0.31995 0.36577 0.04311 0.0
O3 O 0.32083 0.35208 0.99251 0.0
O4 O 0.31753 0.3985 0.05115 0.0
C5 C 0.30677 0.29605 0.86504 0.0
O6 O 0.2943 0.28147 0.91766 0.0
C7 C 0.295 0.47489 0.0992 0.0
C8 C 0.31102 0.53742 0.0665 0.0
C9 C 0.29795 0.51225 0.11519 0.0
N10 N 0.30611 0.47758 0.04311 0.0
N11 N 0.31552 0.51499 0.02371 0.0
C12 C 0.28337 0.43782 0.13723 0.0
H13 H 0.31207 0.43789 0.15064 0.0
H14 H 0.26348 0.40853 0.11265 0.0
H15 H 0.26674 0.43867 0.17687 0.0
C16 C 0.23132 0.3536 0.89235 0.0
N17 N 0.27039 0.37999 0.91153 0.0
N18 N 0.26957 0.40842 0.94536 0.0
C19 C 0.23041 0.40149 0.94792 0.0
C20 C 0.20475 0.36611 0.91564 0.0
C21 C 0.2187 0.31312 0.8621 0.0
H22 H 0.23958 0.31874 0.82451 0.0
H23 H 0.22211 0.29181 0.8926 0.0
H24 H 0.18594 0.29799 0.84686 0.0
O25 O 0.37301 0.42731 0.90187 0.0
O26 O 0.36769 0.47163 0.96155 0.0
H27 H 0.23664 0.45784 0.98377 0.0
H28 H 0.18373 0.41498 0.98077 0.0
C29 C 0.21651 0.42357 0.98891 0.0
H30 H 0.21935 0.41521 0.0343 0.0
H31 H 0.32586 0.52552 0.98156 0.0
O32 O 0.31684 0.33355 0.85324 0.0
C33 C 0.38802 0.46339 0.925 0.0
Co34 Co 0.95584 0.31109 0.07723 0.0
Co35 Co 0.88605 0.30628 0.16072 0.0
C36 C 0.96501 0.31404 0.20653 0.0
O37 O 0.97953 0.31458 0.15614 0.0
O38 O 0.92978 0.31115 0.21414 0.0
C39 C 0.02189 0.29962 0.03077 0.0
O40 O 0.02339 0.28735 0.08377 0.0
C41 C 0.83045 0.28738 0.26048 0.0
C42 C 0.78433 0.30321 0.22676 0.0
C43 C 0.79603 0.29014 0.27578 0.0
N44 N 0.83924 0.29858 0.20448 0.0
N45 N 0.81149 0.30789 0.18447 0.0
C46 C 0.85549 0.27578 0.29904 0.0
H47 H 0.88397 0.30471 0.31322 0.0
H48 H 0.86519 0.25618 0.27462 0.0
H49 H 0.8376 0.25871 0.33822 0.0
C50 C 0.88828 0.22289 0.05618 0.0
N51 N 0.90123 0.26223 0.07501 0.0
N52 N 0.87199 0.26152 0.10831 0.0
C53 C 0.8395 0.22218 0.11077 0.0
C54 C 0.84901 0.19627 0.07905 0.0
C55 C 0.91594 0.21011 0.02644 0.0
H56 H 0.9315 0.23106 0.98893 0.0
H57 H 0.94046 0.21357 0.05728 0.0
H58 H 0.89809 0.17716 0.01122 0.0
O59 O 0.95644 0.3653 0.06346 0.0
O60 O 0.90692 0.36008 0.12267 0.0
H61 H 0.78949 0.22868 0.14505 0.0
H62 H 0.77881 0.17545 0.14264 0.0
C63 C 0.80322 0.20839 0.15095 0.0
H64 H 0.814 0.2113 0.1966 0.0
H65 H 0.8116 0.31825 0.14224 0.0
O66 O 0.99453 0.30925 0.01766 0.0
C67 C 0.9354 0.38031 0.08596 0.0
Co68 Co 0.6513 0.94779 0.24176 0.0
Co69 Co 0.5865 0.87737 0.32526 0.0
C70 C 0.65831 0.95689 0.37096 0.0
O71 O 0.67216 0.97157 0.32059 0.0
O72 O 0.62587 0.92143 0.3785 0.0
C73 C 0.7292 0.01353 0.1948 0.0
O74 O 0.74328 0.01445 0.24744 0.0
C75 C 0.55096 0.8215 0.42512 0.0
C76 C 0.48835 0.77508 0.39286 0.0
C77 C 0.51392 0.78688 0.44114 0.0
N78 N 0.54772 0.83031 0.36941 0.0
N79 N 0.51025 0.80237 0.35027 0.0
C80 C 0.5883 0.84671 0.46278 0.0
H81 H 0.58817 0.87515 0.47793 0.0
H82 H 0.61716 0.85673 0.43736 0.0
H83 H 0.5881 0.82862 0.50139 0.0
C84 C 0.6714 0.88016 0.21999 0.0
N85 N 0.64515 0.89294 0.23903 0.0
N86 N 0.61666 0.86341 0.27227 0.0
C87 C 0.62338 0.83089 0.27444 0.0
C88 C 0.65872 0.84072 0.2427 0.0
C89 C 0.71179 0.90814 0.19027 0.0
H90 H 0.70647 0.92402 0.15316 0.0
H91 H 0.73313 0.93255 0.22136 0.0
H92 H 0.72655 0.89028 0.17445 0.0
O93 O 0.59778 0.9484 0.22914 0.0
O94 O 0.55355 0.89828 0.28809 0.0
H95 H 0.56689 0.78064 0.30914 0.0
H96 H 0.60897 0.76974 0.30531 0.0
C97 C 0.60092 0.79431 0.31441 0.0
H98 H 0.60939 0.80496 0.36007 0.0
H99 H 0.49936 0.80244 0.30844 0.0
O100 O 0.69174 0.98672 0.18207 0.0
C101 C 0.56182 0.92713 0.25188 0.0
Co102 Co 0.71401 0.6462 0.40578 0.0
Co103 Co 0.72065 0.58145 0.48805 0.0
C104 C 0.71401 0.65353 0.53507 0.0
O105 O 0.71246 0.66732 0.48495 0.0
O106 O 0.71702 0.62105 0.54203 0.0
C107 C 0.72427 0.7236 0.35896 0.0
O108 O 0.73707 0.73795 0.41171 0.0
C109 C 0.74141 0.54538 0.58669 0.0
C110 C 0.72525 0.48292 0.55296 0.0
C111 C 0.73904 0.50817 0.60176 0.0
N112 N 0.72929 0.54253 0.53105 0.0
N113 N 0.7198 0.50517 0.51101 0.0
C114 C 0.75346 0.58244 0.62522 0.0
H115 H 0.72487 0.58203 0.64013 0.0
H116 H 0.77259 0.61174 0.60052 0.0
H117 H 0.77101 0.58187 0.66395 0.0
C118 C 0.80145 0.66723 0.38221 0.0
N119 N 0.76256 0.64036 0.40142 0.0
N120 N 0.76394 0.61179 0.43402 0.0
C121 C 0.80323 0.61901 0.43552 0.0
C122 C 0.82846 0.65483 0.40411 0.0
C123 C 0.81352 0.70799 0.35351 0.0
H124 H 0.79238 0.70262 0.3163 0.0
H125 H 0.81 0.72874 0.38511 0.0
H126 H 0.84621 0.7236 0.33803 0.0
O127 O 0.65942 0.59229 0.39467 0.0
O128 O 0.66609 0.54812 0.45262 0.0
H129 H 0.79754 0.56249 0.46937 0.0
H130 H 0.85038 0.60535 0.46559 0.0
C131 C 0.81774 0.59673 0.47496 0.0
H132 H 0.81569 0.60494 0.52078 0.0
H133 H 0.70877 0.49455 0.46904 0.0
O134 O 0.71463 0.6863 0.34618 0.0
C135 C 0.64493 0.55626 0.41751 0.0
Co136 Co 0.07735 0.71114 0.56904 0.0
Co137 Co 0.14815 0.71776 0.65232 0.0
C138 C 0.06918 0.71023 0.69817 0.0
O139 O 0.05413 0.70892 0.64789 0.0
O140 O 0.10454 0.7134 0.70547 0.0
C141 C 1.0108 0.72149 0.52132 0.0
O142 O 1.00917 0.73427 0.57404 0.0
C143 C 0.20393 0.73843 0.75232 0.0
C144 C 0.25009 0.72218 0.72002 0.0
C145 C 0.2383 0.73586 0.76843 0.0
N146 N 0.19522 0.72651 0.69645 0.0
N147 N 0.22304 0.717 0.67726 0.0
C148 C 0.17875 0.75038 0.79011 0.0
H149 H 0.15037 0.72158 0.80461 0.0
H150 H 0.16893 0.76955 0.76499 0.0
H151 H 0.19661 0.76805 0.82912 0.0
C152 C 0.1443 0.79935 0.54696 0.0
N153 N 0.13189 0.76018 0.56582 0.0
N154 N 0.16158 0.76148 0.59874 0.0
C155 C 0.19385 0.80096 0.60077 0.0
C156 C 0.18368 0.82643 0.5694 0.0
C157 C 0.11601 0.81158 0.51797 0.0
H158 H 0.10028 0.79046 0.48051 0.0
H159 H 0.09167 0.8079 0.54927 0.0
H160 H 0.13339 0.84449 0.50281 0.0
O161 O 0.07676 0.65657 0.55744 0.0
O162 O 0.12724 0.66334 0.61603 0.0
H163 H 0.24416 0.79501 0.63513 0.0
H164 H 0.25481 0.84818 0.63142 0.0
C165 C 0.23048 0.81539 0.64057 0.0
H166 H 0.22012 0.8133 0.68629 0.0
H167 H 0.22296 0.70604 0.63535 0.0
O168 O 0.03828 0.71184 0.50889 0.0
C169 C 0.0982 0.64216 0.58033 0.0
Co170 Co 0.37844 0.07248 0.7418 0.0
Co171 Co 0.44256 0.14238 0.82714 0.0
C172 C 0.36996 0.06273 0.87065 0.0
O173 O 0.35645 0.04821 0.81996 0.0
O174 O 0.40251 0.09802 0.87889 0.0
C175 C 0.30114 1.00726 0.69169 0.0
O176 O 0.28625 1.00552 0.74401 0.0
C177 C 0.47715 0.19698 0.92889 0.0
C178 C 0.54015 0.24362 0.89855 0.0
C179 C 0.51416 0.23119 0.94631 0.0
N180 N 0.48085 0.18898 0.87289 0.0
N181 N 0.51852 0.21707 0.85488 0.0
C182 C 0.43949 0.1713 0.96557 0.0
H183 H 0.4393 0.1425 0.97949 0.0
H184 H 0.41087 0.16191 0.93981 0.0
H185 H 0.43953 0.18877 0.00494 0.0
C186 C 0.3587 0.14033 0.72066 0.0
N187 N 0.38483 0.12744 0.73976 0.0
N188 N 0.41307 0.15676 0.77375 0.0
C189 C 0.40632 0.18924 0.77639 0.0
C190 C 0.37119 0.17959 0.74415 0.0
C191 C 0.31847 0.11249 0.69025 0.0
H192 H 0.32403 0.09697 0.65278 0.0
H193 H 0.29704 0.08781 0.72074 0.0
H194 H 0.30369 0.1304 0.67482 0.0
O195 O 0.43209 0.07186 0.7303 0.0
O196 O 0.47588 0.12178 0.79028 0.0
H197 H 0.46243 0.23919 0.81284 0.0
H198 H 0.42034 0.25006 0.80873 0.0
C199 C 0.42835 0.22543 0.81741 0.0
H200 H 0.41945 0.21432 0.86274 0.0
H201 H 0.5298 0.21753 0.81314 0.0
O202 O 0.33879 0.03423 0.68048 0.0
C203 C 0.46789 0.09308 0.75371 0.0
Co204 Co 0.65535 0.71007 0.91 0.0
Co205 Co 0.59035 0.71484 0.82649 0.0
C206 C 0.66158 0.70711 0.7807 0.0
O207 O 0.67556 0.70659 0.8311 0.0
O208 O 0.62924 0.70999 0.77309 0.0
C209 C 0.73286 0.72156 0.95651 0.0
O210 O 0.74664 0.73383 0.90351 0.0
C211 C 0.55367 0.73373 0.7267 0.0
C212 C 0.49171 0.71788 0.76036 0.0
C213 C 0.5165 0.73096 0.71137 0.0
N214 N 0.55124 0.72253 0.7827 0.0
N215 N 0.51417 0.7132 0.80267 0.0
C216 C 0.59034 0.74535 0.68816 0.0
H217 H 0.5899 0.71643 0.67398 0.0
H218 H 0.61962 0.76496 0.71261 0.0
H219 H 0.58952 0.76242 0.64899 0.0
C220 C 0.67596 0.79826 0.93104 0.0
N221 N 0.64957 0.75891 0.91221 0.0
N222 N 0.62104 0.75961 0.8789 0.0
C223 C 0.62787 0.79894 0.87644 0.0
C224 C 0.66329 0.82486 0.90815 0.0
C225 C 0.71639 0.81105 0.96078 0.0
H226 H 0.711 0.79011 -0.0017 0.0
H227 H 0.73745 0.80759 0.92995 0.0
H228 H 0.73148 0.844 0.97599 0.0
O229 O 0.60174 0.65584 0.92375 0.0
O230 O 0.55743 0.66105 0.86454 0.0
H231 H 0.57136 0.79242 0.84212 0.0
H232 H 0.61389 0.84566 0.84455 0.0
C233 C 0.60538 0.81272 0.83625 0.0
H234 H 0.61326 0.80982 0.7906 0.0
H235 H 0.50391 0.70284 0.8449 0.0
O236 O 0.69586 0.71192 0.9696 0.0
C237 C 0.56568 0.64082 0.90126 0.0
Co238 Co 0.95553 0.64752 0.0733 0.0
Co239 Co 0.88575 0.58267 0.98878 0.0
C240 C 0.96468 0.65535 0.94421 0.0
O241 O 0.97926 0.66904 -0.00521 0.0
O242 O 0.92952 0.62263 0.93618 0.0
C243 C 0.02126 0.72508 0.12227 0.0
O244 O 0.02333 0.73967 0.06965 0.0
C245 C 0.83059 0.54627 0.88817 0.0
C246 C 0.78406 0.48374 0.92088 0.0
C247 C 0.79616 0.50891 0.87219 0.0
N248 N 0.839 0.54357 0.94426 0.0
N249 N 0.811 0.50616 0.96366 0.0
C250 C 0.85602 0.58333 0.85014 0.0
H251 H 0.88465 0.58325 0.83671 0.0
H252 H 0.86544 0.61262 0.87472 0.0
H253 H 0.83854 0.58248 0.8105 0.0
C254 C 0.88827 0.66756 0.095 0.0
N255 N 0.90094 0.64117 0.07582 0.0
N256 N 0.87168 0.61274 0.042 0.0
C257 C 0.83946 0.61968 0.03946 0.0
C258 C 0.84919 0.65507 0.07173 0.0
C259 C 0.91614 0.70805 0.12524 0.0
H260 H 0.93142 0.70243 0.16281 0.0
H261 H 0.94085 0.72935 0.09472 0.0
H262 H 0.89853 0.72319 0.1405 0.0
O263 O 0.95621 0.59381 0.08543 0.0
O264 O 0.90655 0.5495 0.02578 0.0
H265 H 0.78931 0.56333 0.00363 0.0
H266 H 0.77928 0.60621 0.00664 0.0
C267 C 0.80345 0.5976 -0.00152 0.0
H268 H 0.81465 0.60596 0.95309 0.0
H269 H 0.81082 0.49563 0.00581 0.0
O270 O 0.99383 0.68758 0.13406 0.0
C271 C 0.93513 0.55773 0.06231 0.0
Co272 Co 0.31653 0.9486 0.24544 0.0
Co273 Co 0.31072 0.87867 0.16012 0.0
C274 C 0.31776 0.95832 0.11659 0.0
O275 O 0.31879 0.97285 0.16727 0.0
O276 O 0.31502 0.92303 0.10835 0.0
C277 C 0.30448 0.01384 0.29556 0.0
O278 O 0.29134 0.01559 0.24323 0.0
C279 C 0.2907 0.82406 0.05839 0.0
C280 C 0.30703 0.77741 0.08875 0.0
C281 C 0.29347 0.78983 0.04099 0.0
N282 N 0.30239 0.83207 0.11439 0.0
N283 N 0.31196 0.80396 0.13241 0.0
C284 C 0.27873 0.84974 0.0217 0.0
H285 H 0.30735 0.87854 0.00778 0.0
H286 H 0.2595 0.85914 0.04744 0.0
H287 H 0.2613 0.83227 0.98232 0.0
C288 C 0.22894 0.88077 0.26661 0.0
N289 N 0.26795 0.89365 0.2475 0.0
N290 N 0.26686 0.86432 0.21352 0.0
C291 C 0.22762 0.83184 0.21089 0.0
C292 C 0.20216 0.84151 0.24312 0.0
C293 C 0.21655 0.90862 0.29699 0.0
H294 H 0.23763 0.92414 0.33447 0.0
H295 H 0.21983 0.93331 0.2665 0.0
H296 H 0.18387 0.89074 0.31241 0.0
O297 O 0.3708 0.94922 0.25692 0.0
O298 O 0.36465 0.89928 0.19695 0.0
H299 H 0.23376 0.78187 0.17445 0.0
H300 H 0.18081 0.77103 0.17856 0.0
C301 C 0.21345 0.79565 0.16988 0.0
H302 H 0.21568 0.80676 0.12455 0.0
H303 H 0.32277 0.80351 0.17416 0.0
O304 O 0.31514 0.98685 0.30676 0.0
C305 C 0.38536 0.92799 0.2335 0.0
Co306 Co 0.37678 0.30994 0.41826 0.0
Co307 Co 0.44097 0.30333 0.33499 0.0
C308 C 0.36952 0.31085 0.28914 0.0
O309 O 0.35577 0.31215 0.33941 0.0
O310 O 0.40172 0.30769 0.28184 0.0
C311 C 0.29986 0.29956 0.46598 0.0
O312 O 0.28546 0.28676 0.41326 0.0
C313 C 0.47605 0.28263 0.23499 0.0
C314 C 0.53848 0.29892 0.26726 0.0
C315 C 0.513 0.28521 0.21887 0.0
N316 N 0.47929 0.29458 0.29085 0.0
N317 N 0.51663 0.30411 0.31002 0.0
C318 C 0.4389 0.27065 0.19723 0.0
H319 H 0.43932 0.29944 0.18269 0.0
H320 H 0.40994 0.2515 0.22238 0.0
H321 H 0.43909 0.25295 0.15824 0.0
C322 C 0.35552 0.22173 0.44034 0.0
N323 N 0.38228 0.2609 0.42149 0.0
N324 N 0.41068 0.25961 0.38858 0.0
C325 C 0.40348 0.22013 0.38656 0.0
C326 C 0.36784 0.19466 0.41791 0.0
C327 C 0.315 0.20949 0.46931 0.0
H328 H 0.32038 0.23061 0.50677 0.0
H329 H 0.29434 0.21316 0.438 0.0
H330 H 0.29947 0.17657 0.48448 0.0
O331 O 0.43075 0.36451 0.42986 0.0
O332 O 0.47447 0.35775 0.37129 0.0
H333 H 0.45975 0.2261 0.3522 0.0
H334 H 0.41726 0.17293 0.35594 0.0
C335 C 0.4257 0.2057 0.34677 0.0
H336 H 0.41741 0.20777 0.30105 0.0
H337 H 0.52753 0.31509 0.35192 0.0
O338 O 0.33699 0.30923 0.4784 0.0
C339 C 0.4666 0.37893 0.40697 0.0
Co340 Co 0.07837 0.3749 0.58143 0.0
Co341 Co 0.1498 0.43967 0.49921 0.0
C342 C 0.07108 0.36762 0.45214 0.0
O343 O 0.05573 0.35383 0.50225 0.0
O344 O 0.10658 0.40009 0.4452 0.0
C345 C 1.01122 0.29751 0.6282 0.0
O346 O 1.00966 0.28317 0.57544 0.0
C347 C 0.20668 0.47577 0.40063 0.0
C348 C 0.25297 0.5382 0.43441 0.0
C349 C 0.24152 0.51297 0.3856 0.0
N350 N 0.19738 0.4786 0.45626 0.0
N351 N 0.22525 0.51594 0.47633 0.0
C352 C 0.18167 0.43872 0.36207 0.0
H353 H 0.15349 0.43915 0.34714 0.0
H354 H 0.17147 0.40941 0.38675 0.0
H355 H 0.1998 0.43929 0.32335 0.0
C356 C 0.14476 0.35385 0.60501 0.0
N357 N 0.13276 0.38073 0.58582 0.0
N358 N 0.16272 0.4093 0.55324 0.0
C359 C 0.19478 0.40207 0.55174 0.0
C360 C 0.18418 0.36624 0.58314 0.0
C361 C 0.11606 0.31308 0.63369 0.0
H362 H 0.10029 0.31845 0.6709 0.0
H363 H 0.09179 0.29234 0.60208 0.0
H364 H 0.13313 0.29745 0.64917 0.0
O365 O 0.07771 0.42881 0.59257 0.0
O366 O 0.12856 0.473 0.53466 0.0
H367 H 0.24564 0.45859 0.51794 0.0
H368 H 0.2556 0.41573 0.52171 0.0
C369 C 0.23159 0.42436 0.51233 0.0
H370 H 0.22134 0.41616 0.4665 0.0
H371 H 0.22483 0.52655 0.51831 0.0
O372 O 0.03887 0.33479 0.641 0.0
C373 C 0.09926 0.46485 0.56975 0.0
Co374 Co 0.71402 0.0733 0.74535 0.0
Co375 Co 0.71963 0.14371 0.66184 0.0
C376 C 0.71195 0.0642 0.61615 0.0
O377 O 0.7111 0.04952 0.66652 0.0
O378 O 0.71495 0.09965 0.60861 0.0
C379 C 0.72619 1.00757 0.79233 0.0
O380 O 0.73935 1.00664 0.73968 0.0
C381 C 0.73994 0.19958 0.56199 0.0
C382 C 0.72375 0.246 0.59427 0.0
C383 C 0.73751 0.23419 0.54598 0.0
N384 N 0.7279 0.19077 0.6177 0.0
N385 N 0.71838 0.21871 0.63685 0.0
C386 C 0.75206 0.17437 0.52431 0.0
H387 H 0.72348 0.14592 0.50918 0.0
H388 H 0.7709 0.16435 0.54971 0.0
H389 H 0.76992 0.19245 0.48569 0.0
C390 C 0.80175 0.14094 0.76711 0.0
N391 N 0.76272 0.12815 0.74808 0.0
N392 N 0.76376 0.15768 0.71483 0.0
C393 C 0.80299 0.1902 0.71265 0.0
C394 C 0.82851 0.18037 0.74439 0.0
C395 C 0.81416 0.11296 0.79684 0.0
H396 H 0.79297 0.09709 0.83395 0.0
H397 H 0.8111 0.08856 0.76576 0.0
H398 H 0.84679 0.13083 0.81265 0.0
O399 O 0.65989 0.07268 0.75798 0.0
O400 O 0.66578 0.12279 0.69902 0.0
H401 H 0.79676 0.24045 0.67794 0.0
H402 H 0.84974 0.25134 0.68175 0.0
C403 C 0.81711 0.22678 0.67267 0.0
H404 H 0.81492 0.21611 0.62701 0.0
H405 H 0.70742 0.21864 0.67869 0.0
O406 O 0.71555 0.03438 0.80505 0.0
C407 C 0.6452 0.09395 0.73523 0.0
C408 C 0.27293 0.52868 0.28005 0.0
C409 C 0.2605 0.524 0.32929 0.0
C410 C 0.28377 0.52843 0.2215 0.0
C411 C 0.29081 0.52338 0.17201 0.0
C412 C 0.76497 0.27573 0.38156 0.0
C413 C 0.77741 0.28285 0.33228 0.0
C414 C 0.75353 0.26497 0.44002 0.0
C415 C 0.74563 0.2528 0.48938 0.0
C416 C 0.49919 0.75611 0.5471 0.0
C417 C 0.50345 0.76828 0.49774 0.0
C418 C 0.49987 0.74536 0.60556 0.0
C419 C 0.50517 0.73824 0.65485 0.0
C420 C 0.7547 0.49248 0.70733 0.0
C421 C 0.74696 0.49715 0.65808 0.0
C422 C 0.76579 0.49273 0.76588 0.0
C423 C 0.77788 0.49778 0.81537 0.0
C424 C 0.26834 0.75044 0.87493 0.0
C425 C 0.25639 0.74323 0.82537 0.0
C426 C 0.27896 0.7608 0.93379 0.0
C427 C 0.28614 0.7723 0.98359 0.0
C428 C 0.52867 0.26022 0.05351 0.0
C429 C 0.52435 0.24872 0.00371 0.0
C430 C 0.52842 0.2706 0.11236 0.0
C431 C 0.52371 0.27782 0.16193 0.0
C432 C 0.32109 0.24867 0.79308 0.0
C433 C 0.31512 0.27166 0.82397 0.0
C434 C 0.33276 0.22184 0.76532 0.0
C435 C 0.34682 0.19986 0.75145 0.0
C436 C 0.12385 0.32725 0.93515 0.0
C437 C 0.16004 0.34165 0.92227 0.0
C438 C 0.08487 0.31502 0.96139 0.0
C439 C 0.05534 0.30855 0.99101 0.0
C440 C 0.80555 0.11505 0.09866 0.0
C441 C 0.82808 0.15131 0.08563 0.0
C442 C 0.77794 0.07619 0.12513 0.0
C443 C 0.75431 0.04683 0.15489 0.0
C444 C 0.70889 0.77112 0.28913 0.0
C445 C 0.71532 0.74803 0.31893 0.0
C446 C 0.69697 0.79811 0.26262 0.0
C447 C 0.68291 0.82021 0.24954 0.0
C448 C 0.9482 0.70605 0.4509 0.0
C449 C 0.97759 0.7125 0.48093 0.0
C450 C 0.90935 0.694 0.42417 0.0
C451 C 0.87318 0.67964 0.41098 0.0
C452 C 0.25337 0.9459 0.61908 0.0
C453 C 0.27658 0.97469 0.65024 0.0
C454 C 0.22614 0.90746 0.59098 0.0
C455 C 0.20391 0.87132 0.57684 0.0
C456 C 0.80717 0.69395 0.0522 0.0
C457 C 0.82896 0.67954 0.0651 0.0
C458 C 0.78043 0.70618 0.02594 0.0
C459 C 0.75737 0.71264 -0.0037 0.0
C460 C 0.08297 0.77246 0.1942 0.0
C461 C 0.05401 0.74948 0.16331 0.0
C462 C 0.12148 0.79929 0.22195 0.0
C463 C 0.15752 0.82126 0.23582 0.0
C464 C 0.31807 0.07519 0.36819 0.0
C465 C 0.31249 0.04641 0.33701 0.0
C466 C 0.32927 0.11363 0.3963 0.0
C467 C 0.34318 0.14976 0.41045 0.0
C468 C 0.25268 0.315 0.53637 0.0
C469 C 0.27564 0.30856 0.50636 0.0
C470 C 0.22589 0.32706 0.56309 0.0
C471 C 0.20408 0.34142 0.57627 0.0
C472 C 0.94829 0.24998 0.69799 0.0
C473 C 0.97782 0.27307 0.66821 0.0
C474 C 0.90937 0.22299 0.72449 0.0
C475 C 0.87321 0.20089 0.73755 0.0
C476 C 0.71229 0.94493 0.86203 0.0
C477 C 0.71801 0.97428 0.83225 0.0
C478 C 0.70104 0.90608 0.88851 0.0
C479 C 0.68732 0.86983 0.90156 0.0
C480 C 0.32776 0.33124 0.13853 0.0
C481 C 0.32424 0.34539 0.09322 0.0
C482 C 0.33711 0.3206 0.19295 0.0
C483 C 0.35028 0.31621 0.23858 0.0
C484 C 1.00809 0.32393 0.30195 0.0
C485 C 0.98994 0.31947 0.25679 0.0
C486 C 0.02872 0.33432 0.356 0.0
C487 C 0.0466 0.34813 0.40139 0.0
C488 C 0.69177 1.00014 0.46653 0.0
C489 C 0.67798 0.98194 0.42129 0.0
C490 C 0.70216 0.02094 0.52058 0.0
C491 C 0.70657 0.03915 0.56582 0.0
C492 C 0.705 0.68686 0.63121 0.0
C493 C 0.70905 0.67305 0.58581 0.0
C494 C 0.69478 0.69725 0.68528 0.0
C495 C 0.68109 0.7017 0.73045 0.0
C496 C 0.02701 0.70048 0.79435 0.0
C497 C 0.04457 0.70486 0.74872 0.0
C498 C 1.00701 0.68985 0.84877 0.0
C499 C 0.98934 0.67571 0.89408 0.0
C500 C 0.32625 1.00069 0.02097 0.0
C501 C 0.32243 0.98321 0.06655 0.0
C502 C 0.33608 0.02036 0.96626 0.0
C503 C 0.34974 0.03784 0.92068 0.0
C504 C 0.503 0.56417 0.91451 0.0
C505 C 0.53377 0.59838 0.91227 0.0
C506 C 0.4647 0.52596 0.91291 0.0
C507 C 0.43044 0.49531 0.91475 0.0
C508 C 0.94935 0.45696 0.07273 0.0
C509 C 0.94591 0.42275 0.07496 0.0
C510 C 0.94924 0.49516 0.07435 0.0
C511 C 0.94564 0.52582 0.07252 0.0
C512 C 0.49973 0.94169 0.24112 0.0
C513 C 0.53022 0.93801 0.24222 0.0
C514 C 0.46181 0.94192 0.24409 0.0
C515 C 0.42777 0.93855 0.24315 0.0
C516 C 0.52936 0.45603 0.4152 0.0
C517 C 0.4985 0.4218 0.41549 0.0
C518 C 0.56767 0.49403 0.41034 0.0
C519 C 0.60204 0.5246 0.40979 0.0
C520 C 0.08389 0.56507 0.57209 0.0
C521 C 0.08725 0.5993 0.5718 0.0
C522 C 0.08421 0.52708 0.57693 0.0
C523 C 0.08803 0.49651 0.57747 0.0
C524 C 0.56855 0.07938 0.74602 0.0
C525 C 0.60272 0.08307 0.74491 0.0
C526 C 0.53039 0.07915 0.74308 0.0
C527 C 0.49972 0.08251 0.74404 0.0
loop_
_geom_bond_atom_site_label_1
_geom_bond_atom_site_label_2
_geom_bond_distance
_geom_bond_site_symmetry_2
_ccdc_geom_bond_type
Co0 O3 1.970 1_556 S
Co0 N17 1.989 . S
Co0 O25 1.967 . S
Co0 O32 1.920 . S
Co1 O4 1.966 . S
Co1 N10 2.022 . S
Co1 N18 1.993 1_554 S
Co1 O26 1.941 1_554 S
C2 O3 1.258 . S
C2 O4 1.263 . S
O3 Co0 1.970 1_554 S
O3 C2 1.258 . S
O4 Co1 1.966 . S
O4 C2 1.263 . S
C5 O6 1.235 . S
C5 O32 1.289 . S
O6 C5 1.235 . S
C7 C9 1.400 . S
C7 N10 1.351 . S
C7 C12 1.501 . S
C8 C9 1.387 . S
C8 N11 1.341 . S
C9 C7 1.400 . S
C9 C8 1.387 . S
N10 Co1 2.022 . S
N10 C7 1.351 . S
N10 N11 1.365 . S
N11 C8 1.341 . S
N11 N10 1.365 . S
N11 H31 0.862 . S
C12 C7 1.501 . S
C12 H13 0.961 . S
C12 H14 0.961 . S
C12 H15 0.960 . S
H13 C12 0.961 . S
H14 C12 0.961 . S
H15 C12 0.960 . S
C16 N17 1.342 . S
C16 C20 1.401 . S
C16 C21 1.499 . S
N17 Co0 1.989 . S
N17 C16 1.342 . S
N17 N18 1.388 . S
N18 Co1 1.993 1_556 S
N18 N17 1.388 . S
N18 C19 1.346 . S
C19 N18 1.346 . S
C19 C20 1.396 . S
C19 C29 1.510 1_556 S
C20 C16 1.401 . S
C20 C19 1.396 . S
C21 C16 1.499 . S
C21 H22 0.959 . S
C21 H23 0.960 . S
C21 H24 0.961 . S
H22 C21 0.959 . S
H23 C21 0.960 . S
H24 C21 0.961 . S
O25 Co0 1.967 . S
O25 C33 1.258 . S
O26 Co1 1.941 1_556 S
O26 C33 1.266 . S
H27 C29 0.959 . S
H28 C29 0.961 . S
C29 C19 1.510 1_554 S
C29 H27 0.959 . S
C29 H28 0.961 . S
C29 H30 0.960 . S
H30 C29 0.960 . S
H31 N11 0.862 . S
O32 Co0 1.920 . S
O32 C5 1.289 . S
C33 O25 1.258 . S
C33 O26 1.266 . S
Co34 O37 1.970 . S
Co34 N51 1.989 . S
Co34 O59 1.967 . S
Co34 O66 1.920 . S
Co35 O38 1.966 . S
Co35 N44 2.022 . S
Co35 N52 1.993 . S
Co35 O60 1.941 . S
C36 O37 1.258 . S
C36 O38 1.263 . S
O37 Co34 1.970 . S
O37 C36 1.258 . S
O38 Co35 1.966 . S
O38 C36 1.263 . S
C39 O40 1.235 . S
C39 O66 1.289 . S
O40 C39 1.235 . S
C41 C43 1.400 . S
C41 N44 1.351 . S
C41 C46 1.501 . S
C42 C43 1.387 . S
C42 N45 1.341 . S
C43 C41 1.400 . S
C43 C42 1.387 . S
N44 Co35 2.022 . S
N44 C41 1.351 . S
N44 N45 1.365 . S
N45 C42 1.341 . S
N45 N44 1.365 . S
N45 H65 0.862 . S
C46 C41 1.501 . S
C46 H47 0.961 . S
C46 H48 0.961 . S
C46 H49 0.960 . S
H47 C46 0.961 . S
H48 C46 0.961 . S
H49 C46 0.960 . S
C50 N51 1.342 . S
C50 C54 1.401 . S
C50 C55 1.499 1_554 S
N51 Co34 1.989 . S
N51 C50 1.342 . S
N51 N52 1.388 . S
N52 Co35 1.993 . S
N52 N51 1.388 . S
N52 C53 1.346 . S
C53 N52 1.346 . S
C53 C54 1.396 . S
C53 C63 1.510 . S
C54 C50 1.401 . S
C54 C53 1.396 . S
C55 C50 1.499 1_556 S
C55 H56 0.959 . S
C55 H57 0.960 . S
C55 H58 0.961 . S
H56 C55 0.959 . S
H57 C55 0.960 . S
H58 C55 0.961 . S
O59 Co34 1.967 . S
O59 C67 1.258 . S
O60 Co35 1.941 . S
O60 C67 1.266 . S
H61 C63 0.959 . S
H62 C63 0.961 . S
C63 C53 1.510 . S
C63 H61 0.959 . S
C63 H62 0.961 . S
C63 H64 0.960 . S
H64 C63 0.960 . S
H65 N45 0.862 . S
O66 Co34 1.920 . S
O66 C39 1.289 . S
C67 O59 1.258 . S
C67 O60 1.266 . S
Co68 O71 1.970 . S
Co68 N85 1.989 . S
Co68 O93 1.967 . S
Co68 O100 1.920 . S
Co69 O72 1.966 . S
Co69 N78 2.022 . S
Co69 N86 1.993 . S
Co69 O94 1.941 . S
C70 O71 1.258 . S
C70 O72 1.263 . S
O71 Co68 1.970 . S
O71 C70 1.258 . S
O72 Co69 1.966 . S
O72 C70 1.263 . S
C73 O74 1.235 . S
C73 O100 1.289 . S
O74 C73 1.235 . S
C75 C77 1.400 . S
C75 N78 1.351 . S
C75 C80 1.501 . S
C76 C77 1.387 . S
C76 N79 1.341 . S
C77 C75 1.400 . S
C77 C76 1.387 . S
N78 Co69 2.022 . S
N78 C75 1.351 . S
N78 N79 1.365 . S
N79 C76 1.341 . S
N79 N78 1.365 . S
N79 H99 0.862 . S
C80 C75 1.501 . S
C80 H81 0.961 . S
C80 H82 0.961 . S
C80 H83 0.960 . S
H81 C80 0.961 . S
H82 C80 0.961 . S
H83 C80 0.960 . S
C84 N85 1.342 . S
C84 C88 1.401 . S
C84 C89 1.499 . S
N85 Co68 1.989 . S
N85 C84 1.342 . S
N85 N86 1.388 . S
N86 Co69 1.993 . S
N86 N85 1.388 . S
N86 C87 1.346 . S
C87 N86 1.346 . S
C87 C88 1.396 . S
C87 C97 1.510 . S
C88 C84 1.401 . S
C88 C87 1.396 . S
C89 C84 1.499 . S
C89 H90 0.959 . S
C89 H91 0.960 . S
C89 H92 0.961 . S
H90 C89 0.959 . S
H91 C89 0.960 . S
H92 C89 0.961 . S
O93 Co68 1.967 . S
O93 C101 1.258 . S
O94 Co69 1.941 . S
O94 C101 1.266 . S
H95 C97 0.959 . S
H96 C97 0.961 . S
C97 C87 1.510 . S
C97 H95 0.959 . S
C97 H96 0.961 . S
C97 H98 0.960 . S
H98 C97 0.960 . S
H99 N79 0.862 . S
O100 Co68 1.920 . S
O100 C73 1.289 . S
C101 O93 1.258 . S
C101 O94 1.266 . S
Co102 O105 1.970 . S
Co102 N119 1.989 . S
Co102 O127 1.967 . S
Co102 O134 1.920 . S
Co103 O106 1.966 . S
Co103 N112 2.022 . S
Co103 N120 1.993 . S
Co103 O128 1.941 . S
C104 O105 1.258 . S
C104 O106 1.263 . S
O105 Co102 1.970 . S
O105 C104 1.258 . S
O106 Co103 1.966 . S
O106 C104 1.263 . S
C107 O108 1.235 . S
C107 O134 1.289 . S
O108 C107 1.235 . S
C109 C111 1.400 . S
C109 N112 1.351 . S
C109 C114 1.501 . S
C110 C111 1.387 . S
C110 N113 1.341 . S
C111 C109 1.400 . S
C111 C110 1.387 . S
N112 Co103 2.022 . S
N112 C109 1.351 . S
N112 N113 1.365 . S
N113 C110 1.341 . S
N113 N112 1.365 . S
N113 H133 0.862 . S
C114 C109 1.501 . S
C114 H115 0.961 . S
C114 H116 0.961 . S
C114 H117 0.960 . S
H115 C114 0.961 . S
H116 C114 0.961 . S
H117 C114 0.960 . S
C118 N119 1.342 . S
C118 C122 1.401 . S
C118 C123 1.499 . S
N119 Co102 1.989 . S
N119 C118 1.342 . S
N119 N120 1.388 . S
N120 Co103 1.993 . S
N120 N119 1.388 . S
N120 C121 1.346 . S
C121 N120 1.346 . S
C121 C122 1.396 . S
C121 C131 1.510 . S
C122 C118 1.401 . S
C122 C121 1.396 . S
C123 C118 1.499 . S
C123 H124 0.959 . S
C123 H125 0.960 . S
C123 H126 0.961 . S
H124 C123 0.959 . S
H125 C123 0.960 . S
H126 C123 0.961 . S
O127 Co102 1.967 . S
O127 C135 1.258 . S
O128 Co103 1.941 . S
O128 C135 1.266 . S
H129 C131 0.959 . S
H130 C131 0.961 . S
C131 C121 1.510 . S
C131 H129 0.959 . S
C131 H130 0.961 . S
C131 H132 0.960 . S
H132 C131 0.960 . S
H133 N113 0.862 . S
O134 Co102 1.920 . S
O134 C107 1.289 . S
C135 O127 1.258 . S
C135 O128 1.266 . S
Co136 O139 1.970 . S
Co136 N153 1.989 . S
Co136 O161 1.967 . S
Co136 O168 1.920 . S
Co137 O140 1.966 . S
Co137 N146 2.022 . S
Co137 N154 1.993 . S
Co137 O162 1.941 . S
C138 O139 1.258 . S
C138 O140 1.263 . S
O139 Co136 1.970 . S
O139 C138 1.258 . S
O140 Co137 1.966 . S
O140 C138 1.263 . S
C141 O142 1.235 . S
C141 O168 1.289 . S
O142 C141 1.235 . S
C143 C145 1.400 . S
C143 N146 1.351 . S
C143 C148 1.501 . S
C144 C145 1.387 . S
C144 N147 1.341 . S
C145 C143 1.400 . S
C145 C144 1.387 . S
N146 Co137 2.022 . S
N146 C143 1.351 . S
N146 N147 1.365 . S
N147 C144 1.341 . S
N147 N146 1.365 . S
N147 H167 0.862 . S
C148 C143 1.501 . S
C148 H149 0.961 . S
C148 H150 0.961 . S
C148 H151 0.960 . S
H149 C148 0.961 . S
H150 C148 0.961 . S
H151 C148 0.960 . S
C152 N153 1.342 . S
C152 C156 1.401 . S
C152 C157 1.499 . S
N153 Co136 1.989 . S
N153 C152 1.342 . S
N153 N154 1.388 . S
N154 Co137 1.993 . S
N154 N153 1.388 . S
N154 C155 1.346 . S
C155 N154 1.346 . S
C155 C156 1.396 . S
C155 C165 1.510 . S
C156 C152 1.401 . S
C156 C155 1.396 . S
C157 C152 1.499 . S
C157 H158 0.959 . S
C157 H159 0.960 . S
C157 H160 0.961 . S
H158 C157 0.959 . S
H159 C157 0.960 . S
H160 C157 0.961 . S
O161 Co136 1.967 . S
O161 C169 1.258 . S
O162 Co137 1.941 . S
O162 C169 1.266 . S
H163 C165 0.959 . S
H164 C165 0.961 . S
C165 C155 1.510 . S
C165 H163 0.959 . S
C165 H164 0.961 . S
C165 H166 0.960 . S
H166 C165 0.960 . S
H167 N147 0.862 . S
O168 Co136 1.920 . S
O168 C141 1.289 . S
C169 O161 1.258 . S
C169 O162 1.266 . S
Co170 O173 1.970 . S
Co170 N187 1.989 . S
Co170 O195 1.967 . S
Co170 O202 1.920 . S
Co171 O174 1.966 . S
Co171 N180 2.022 . S
Co171 N188 1.993 . S
Co171 O196 1.941 . S
C172 O173 1.258 . S
C172 O174 1.263 . S
O173 Co170 1.970 . S
O173 C172 1.258 . S
O174 Co171 1.966 . S
O174 C172 1.263 . S
C175 O176 1.235 . S
C175 O202 1.289 . S
O176 C175 1.235 . S
C177 C179 1.400 . S
C177 N180 1.351 . S
C177 C182 1.501 . S
C178 C179 1.387 . S
C178 N181 1.341 . S
C179 C177 1.400 . S
C179 C178 1.387 . S
N180 Co171 2.022 . S
N180 C177 1.351 . S
N180 N181 1.365 . S
N181 C178 1.341 . S
N181 N180 1.365 . S
N181 H201 0.862 . S
C182 C177 1.501 . S
C182 H183 0.961 . S
C182 H184 0.961 1_556 S
C182 H185 0.960 1_556 S
H183 C182 0.961 . S
H184 C182 0.961 1_554 S
H185 C182 0.960 1_554 S
C186 N187 1.342 . S
C186 C190 1.401 . S
C186 C191 1.499 . S
N187 Co170 1.989 . S
N187 C186 1.342 . S
N187 N188 1.388 . S
N188 Co171 1.993 . S
N188 N187 1.388 . S
N188 C189 1.346 . S
C189 N188 1.346 . S
C189 C190 1.396 . S
C189 C199 1.510 . S
C190 C186 1.401 . S
C190 C189 1.396 . S
C191 C186 1.499 . S
C191 H192 0.959 . S
C191 H193 0.960 . S
C191 H194 0.961 . S
H192 C191 0.959 . S
H193 C191 0.960 . S
H194 C191 0.961 . S
O195 Co170 1.967 . S
O195 C203 1.258 . S
O196 Co171 1.941 . S
O196 C203 1.266 . S
H197 C199 0.959 . S
H198 C199 0.961 . S
C199 C189 1.510 . S
C199 H197 0.959 . S
C199 H198 0.961 . S
C199 H200 0.960 . S
H200 C199 0.960 . S
H201 N181 0.862 . S
O202 Co170 1.920 . S
O202 C175 1.289 . S
C203 O195 1.258 . S
C203 O196 1.266 . S
Co204 O207 1.970 . S
Co204 N221 1.989 . S
Co204 O229 1.967 . S
Co204 O236 1.920 . S
Co205 O208 1.966 . S
Co205 N214 2.022 . S
Co205 N222 1.993 . S
Co205 O230 1.941 . S
C206 O207 1.258 . S
C206 O208 1.263 . S
O207 Co204 1.970 . S
O207 C206 1.258 . S
O208 Co205 1.966 . S
O208 C206 1.263 . S
C209 O210 1.235 . S
C209 O236 1.289 . S
O210 C209 1.235 . S
C211 C213 1.400 . S
C211 N214 1.351 . S
C211 C216 1.501 . S
C212 C213 1.387 . S
C212 N215 1.341 . S
C213 C211 1.400 . S
C213 C212 1.387 . S
N214 Co205 2.022 . S
N214 C211 1.351 . S
N214 N215 1.365 . S
N215 C212 1.341 . S
N215 N214 1.365 . S
N215 H235 0.862 . S
C216 C211 1.501 . S
C216 H217 0.961 . S
C216 H218 0.961 . S
C216 H219 0.960 . S
H217 C216 0.961 . S
H218 C216 0.961 . S
H219 C216 0.960 . S
C220 N221 1.342 . S
C220 C224 1.401 . S
C220 C225 1.499 1_556 S
N221 Co204 1.989 . S
N221 C220 1.342 . S
N221 N222 1.388 . S
N222 Co205 1.993 . S
N222 N221 1.388 . S
N222 C223 1.346 . S
C223 N222 1.346 . S
C223 C224 1.396 . S
C223 C233 1.510 . S
C224 C220 1.401 . S
C224 C223 1.396 . S
C225 C220 1.499 1_554 S
C225 H226 0.959 . S
C225 H227 0.960 . S
C225 H228 0.961 . S
H226 C225 0.959 . S
H227 C225 0.960 . S
H228 C225 0.961 . S
O229 Co204 1.967 . S
O229 C237 1.258 . S
O230 Co205 1.941 . S
O230 C237 1.266 . S
H231 C233 0.959 . S
H232 C233 0.961 . S
C233 C223 1.510 . S
C233 H231 0.959 . S
C233 H232 0.961 . S
C233 H234 0.960 . S
H234 C233 0.960 . S
H235 N215 0.862 . S
O236 Co204 1.920 . S
O236 C209 1.289 . S
C237 O229 1.258 . S
C237 O230 1.266 . S
Co238 O241 1.970 1_554 S
Co238 N255 1.989 . S
Co238 O263 1.967 . S
Co238 O270 1.920 . S
Co239 O242 1.966 . S
Co239 N248 2.022 . S
Co239 N256 1.993 1_556 S
Co239 O264 1.941 1_556 S
C240 O241 1.258 . S
C240 O242 1.263 . S
O241 Co238 1.970 1_556 S
O241 C240 1.258 . S
O242 Co239 1.966 . S
O242 C240 1.263 . S
C243 O244 1.235 . S
C243 O270 1.289 . S
O244 C243 1.235 . S
C245 C247 1.400 . S
C245 N248 1.351 . S
C245 C250 1.501 . S
C246 C247 1.387 . S
C246 N249 1.341 . S
C247 C245 1.400 . S
C247 C246 1.387 . S
N248 Co239 2.022 . S
N248 C245 1.351 . S
N248 N249 1.365 . S
N249 C246 1.341 . S
N249 N248 1.365 . S
N249 H269 0.862 . S
C250 C245 1.501 . S
C250 H251 0.961 . S
C250 H252 0.961 . S
C250 H253 0.960 . S
H251 C250 0.961 . S
H252 C250 0.961 . S
H253 C250 0.960 . S
C254 N255 1.342 . S
C254 C258 1.401 . S
C254 C259 1.499 . S
N255 Co238 1.989 . S
N255 C254 1.342 . S
N255 N256 1.388 . S
N256 Co239 1.993 1_554 S
N256 N255 1.388 . S
N256 C257 1.346 . S
C257 N256 1.346 . S
C257 C258 1.396 . S
C257 C267 1.510 1_554 S
C258 C254 1.401 . S
C258 C257 1.396 . S
C259 C254 1.499 . S
C259 H260 0.959 . S
C259 H261 0.960 . S
C259 H262 0.961 . S
H260 C259 0.959 . S
H261 C259 0.960 . S
H262 C259 0.961 . S
O263 Co238 1.967 . S
O263 C271 1.258 . S
O264 Co239 1.941 1_554 S
O264 C271 1.266 . S
H265 C267 0.959 . S
H266 C267 0.961 . S
C267 C257 1.510 1_556 S
C267 H265 0.959 . S
C267 H266 0.961 . S
C267 H268 0.960 . S
H268 C267 0.960 . S
H269 N249 0.862 . S
O270 Co238 1.920 . S
O270 C243 1.289 . S
C271 O263 1.258 . S
C271 O264 1.266 . S
Co272 O275 1.970 . S
Co272 N289 1.989 . S
Co272 O297 1.967 . S
Co272 O304 1.920 . S
Co273 O276 1.966 . S
Co273 N282 2.022 . S
Co273 N290 1.993 . S
Co273 O298 1.941 . S
C274 O275 1.258 . S
C274 O276 1.263 . S
O275 Co272 1.970 . S
O275 C274 1.258 . S
O276 Co273 1.966 . S
O276 C274 1.263 . S
C277 O278 1.235 . S
C277 O304 1.289 . S
O278 C277 1.235 . S
C279 C281 1.400 . S
C279 N282 1.351 . S
C279 C284 1.501 . S
C280 C281 1.387 . S
C280 N283 1.341 . S
C281 C279 1.400 . S
C281 C280 1.387 . S
N282 Co273 2.022 . S
N282 C279 1.351 . S
N282 N283 1.365 . S
N283 C280 1.341 . S
N283 N282 1.365 . S
N283 H303 0.862 . S
C284 C279 1.501 . S
C284 H285 0.961 . S
C284 H286 0.961 1_554 S
C284 H287 0.960 1_554 S
H285 C284 0.961 . S
H286 C284 0.961 1_556 S
H287 C284 0.960 1_556 S
C288 N289 1.342 . S
C288 C292 1.401 . S
C288 C293 1.499 . S
N289 Co272 1.989 . S
N289 C288 1.342 . S
N289 N290 1.388 . S
N290 Co273 1.993 . S
N290 N289 1.388 . S
N290 C291 1.346 . S
C291 N290 1.346 . S
C291 C292 1.396 . S
C291 C301 1.510 . S
C292 C288 1.401 . S
C292 C291 1.396 . S
C293 C288 1.499 . S
C293 H294 0.959 . S
C293 H295 0.960 . S
C293 H296 0.961 . S
H294 C293 0.959 . S
H295 C293 0.960 . S
H296 C293 0.961 . S
O297 Co272 1.967 . S
O297 C305 1.258 . S
O298 Co273 1.941 . S
O298 C305 1.266 . S
H299 C301 0.959 . S
H300 C301 0.961 . S
C301 C291 1.510 . S
C301 H299 0.959 . S
C301 H300 0.961 . S
C301 H302 0.960 . S
H302 C301 0.960 . S
H303 N283 0.862 . S
O304 Co272 1.920 . S
O304 C277 1.289 . S
C305 O297 1.258 . S
C305 O298 1.266 . S
Co306 O309 1.970 . S
Co306 N323 1.989 . S
Co306 O331 1.967 . S
Co306 O338 1.920 . S
Co307 O310 1.966 . S
Co307 N316 2.022 . S
Co307 N324 1.993 . S
Co307 O332 1.941 . S
C308 O309 1.258 . S
C308 O310 1.263 . S
O309 Co306 1.970 . S
O309 C308 1.258 . S
O310 Co307 1.966 . S
O310 C308 1.263 . S
C311 O312 1.235 . S
C311 O338 1.289 . S
O312 C311 1.235 . S
C313 C315 1.400 . S
C313 N316 1.351 . S
C313 C318 1.501 . S
C314 C315 1.387 . S
C314 N317 1.341 . S
C315 C313 1.400 . S
C315 C314 1.387 . S
N316 Co307 2.022 . S
N316 C313 1.351 . S
N316 N317 1.365 . S
N317 C314 1.341 . S
N317 N316 1.365 . S
N317 H337 0.862 . S
C318 C313 1.501 . S
C318 H319 0.961 . S
C318 H320 0.961 . S
C318 H321 0.960 . S
H319 C318 0.961 . S
H320 C318 0.961 . S
H321 C318 0.960 . S
C322 N323 1.342 . S
C322 C326 1.401 . S
C322 C327 1.499 . S
N323 Co306 1.989 . S
N323 C322 1.342 . S
N323 N324 1.388 . S
N324 Co307 1.993 . S
N324 N323 1.388 . S
N324 C325 1.346 . S
C325 N324 1.346 . S
C325 C326 1.396 . S
C325 C335 1.510 . S
C326 C322 1.401 . S
C326 C325 1.396 . S
C327 C322 1.499 . S
C327 H328 0.959 . S
C327 H329 0.960 . S
C327 H330 0.961 . S
H328 C327 0.959 . S
H329 C327 0.960 . S
H330 C327 0.961 . S
O331 Co306 1.967 . S
O331 C339 1.258 . S
O332 Co307 1.941 . S
O332 C339 1.266 . S
H333 C335 0.959 . S
H334 C335 0.961 . S
C335 C325 1.510 . S
C335 H333 0.959 . S
C335 H334 0.961 . S
C335 H336 0.960 . S
H336 C335 0.960 . S
H337 N317 0.862 . S
O338 Co306 1.920 . S
O338 C311 1.289 . S
C339 O331 1.258 . S
C339 O332 1.266 . S
Co340 O343 1.970 . S
Co340 N357 1.989 . S
Co340 O365 1.967 . S
Co340 O372 1.920 . S
Co341 O344 1.966 . S
Co341 N350 2.022 . S
Co341 N358 1.993 . S
Co341 O366 1.941 . S
C342 O343 1.258 . S
C342 O344 1.263 . S
O343 Co340 1.970 . S
O343 C342 1.258 . S
O344 Co341 1.966 . S
O344 C342 1.263 . S
C345 O346 1.235 . S
C345 O372 1.289 . S
O346 C345 1.235 . S
C347 C349 1.400 . S
C347 N350 1.351 . S
C347 C352 1.501 . S
C348 C349 1.387 . S
C348 N351 1.341 . S
C349 C347 1.400 . S
C349 C348 1.387 . S
N350 Co341 2.022 . S
N350 C347 1.351 . S
N350 N351 1.365 . S
N351 C348 1.341 . S
N351 N350 1.365 . S
N351 H371 0.862 . S
C352 C347 1.501 . S
C352 H353 0.961 . S
C352 H354 0.961 . S
C352 H355 0.960 . S
H353 C352 0.961 . S
H354 C352 0.961 . S
H355 C352 0.960 . S
C356 N357 1.342 . S
C356 C360 1.401 . S
C356 C361 1.499 . S
N357 Co340 1.989 . S
N357 C356 1.342 . S
N357 N358 1.388 . S
N358 Co341 1.993 . S
N358 N357 1.388 . S
N358 C359 1.346 . S
C359 N358 1.346 . S
C359 C360 1.396 . S
C359 C369 1.510 . S
C360 C356 1.401 . S
C360 C359 1.396 . S
C361 C356 1.499 . S
C361 H362 0.959 . S
C361 H363 0.960 . S
C361 H364 0.961 . S
H362 C361 0.959 . S
H363 C361 0.960 . S
H364 C361 0.961 . S
O365 Co340 1.967 . S
O365 C373 1.258 . S
O366 Co341 1.941 . S
O366 C373 1.266 . S
H367 C369 0.959 . S
H368 C369 0.961 . S
C369 C359 1.510 . S
C369 H367 0.959 . S
C369 H368 0.961 . S
C369 H370 0.960 . S
H370 C369 0.960 . S
H371 N351 0.862 . S
O372 Co340 1.920 . S
O372 C345 1.289 . S
C373 O365 1.258 . S
C373 O366 1.266 . S
Co374 O377 1.970 . S
Co374 N391 1.989 . S
Co374 O399 1.967 . S
Co374 O406 1.920 . S
Co375 O378 1.966 . S
Co375 N384 2.022 . S
Co375 N392 1.993 . S
Co375 O400 1.941 . S
C376 O377 1.258 . S
C376 O378 1.263 . S
O377 Co374 1.970 . S
O377 C376 1.258 . S
O378 Co375 1.966 . S
O378 C376 1.263 . S
C379 O380 1.235 . S
C379 O406 1.289 . S
O380 C379 1.235 . S
C381 C383 1.400 . S
C381 N384 1.351 . S
C381 C386 1.501 . S
C382 C383 1.387 . S
C382 N385 1.341 . S
C383 C381 1.400 . S
C383 C382 1.387 . S
N384 Co375 2.022 . S
N384 C381 1.351 . S
N384 N385 1.365 . S
N385 C382 1.341 . S
N385 N384 1.365 . S
N385 H405 0.862 . S
C386 C381 1.501 . S
C386 H387 0.961 . S
C386 H388 0.961 . S
C386 H389 0.960 . S
H387 C386 0.961 . S
H388 C386 0.961 . S
H389 C386 0.960 . S
C390 N391 1.342 . S
C390 C394 1.401 . S
C390 C395 1.499 . S
N391 Co374 1.989 . S
N391 C390 1.342 . S
N391 N392 1.388 . S
N392 Co375 1.993 . S
N392 N391 1.388 . S
N392 C393 1.346 . S
C393 N392 1.346 . S
C393 C394 1.396 . S
C393 C403 1.510 . S
C394 C390 1.401 . S
C394 C393 1.396 . S
C395 C390 1.499 . S
C395 H396 0.959 . S
C395 H397 0.960 . S
C395 H398 0.961 . S
H396 C395 0.959 . S
H397 C395 0.960 . S
H398 C395 0.961 . S
O399 Co374 1.967 . S
O399 C407 1.258 . S
O400 Co375 1.941 . S
O400 C407 1.266 . S
H401 C403 0.959 . S
H402 C403 0.961 . S
C403 C393 1.510 . S
C403 H401 0.959 . S
C403 H402 0.961 . S
C403 H404 0.960 . S
H404 C403 0.960 . S
H405 N385 0.862 . S
O406 Co374 1.920 . S
O406 C379 1.289 . S
C407 O399 1.258 . S
C407 O400 1.266 . S
C408 C409 1.170 . S
C408 C410 1.380 . S
C409 C408 1.170 . S
C410 C408 1.380 . S
C410 C411 1.170 . S
C411 C410 1.170 . S
C412 C413 1.170 . S
C412 C414 1.380 . S
C413 C412 1.170 . S
C414 C412 1.380 . S
C414 C415 1.170 . S
C415 C414 1.170 . S
C416 C417 1.170 . S
C416 C418 1.380 . S
C417 C416 1.170 . S
C418 C416 1.380 . S
C418 C419 1.170 . S
C419 C418 1.170 . S
C420 C421 1.170 . S
C420 C422 1.380 . S
C421 C420 1.170 . S
C422 C420 1.380 . S
C422 C423 1.170 . S
C423 C422 1.170 . S
C424 C425 1.170 . S
C424 C426 1.380 . S
C425 C424 1.170 . S
C426 C424 1.380 . S
C426 C427 1.170 . S
C427 C426 1.170 . S
C428 C429 1.170 . S
C428 C430 1.380 . S
C429 C428 1.170 . S
C430 C428 1.380 . S
C430 C431 1.170 . S
C431 C430 1.170 . S
C432 C433 1.170 . S
C432 C434 1.380 . S
C433 C432 1.170 . S
C434 C432 1.380 . S
C434 C435 1.170 . S
C435 C434 1.170 . S
C436 C437 1.170 . S
C436 C438 1.380 . S
C437 C436 1.170 . S
C438 C436 1.380 . S
C438 C439 1.170 . S
C439 C438 1.170 . S
C440 C441 1.170 . S
C440 C442 1.380 . S
C441 C440 1.170 . S
C442 C440 1.380 . S
C442 C443 1.170 . S
C443 C442 1.170 . S
C444 C445 1.170 . S
C444 C446 1.380 . S
C445 C444 1.170 . S
C446 C444 1.380 . S
C446 C447 1.170 . S
C447 C446 1.170 . S
C448 C449 1.170 . S
C448 C450 1.380 . S
C449 C448 1.170 . S
C450 C448 1.380 . S
C450 C451 1.170 . S
C451 C450 1.170 . S
C452 C453 1.170 . S
C452 C454 1.380 . S
C453 C452 1.170 . S
C454 C452 1.380 . S
C454 C455 1.170 . S
C455 C454 1.170 . S
C456 C457 1.170 . S
C456 C458 1.380 . S
C457 C456 1.170 . S
C458 C456 1.380 . S
C458 C459 1.170 . S
C459 C458 1.170 . S
C460 C461 1.170 . S
C460 C462 1.380 . S
C461 C460 1.170 . S
C462 C460 1.380 . S
C462 C463 1.170 . S
C463 C462 1.170 . S
C464 C465 1.170 . S
C464 C466 1.380 . S
C465 C464 1.170 . S
C466 C464 1.380 . S
C466 C467 1.170 . S
C467 C466 1.170 . S
C468 C469 1.170 . S
C468 C470 1.380 . S
C469 C468 1.170 . S
C470 C468 1.380 . S
C470 C471 1.170 . S
C471 C470 1.170 . S
C472 C473 1.170 . S
C472 C474 1.380 . S
C473 C472 1.170 . S
C474 C472 1.380 . S
C474 C475 1.170 . S
C475 C474 1.170 . S
C476 C477 1.170 . S
C476 C478 1.380 . S
C477 C476 1.170 . S
C478 C476 1.380 . S
C478 C479 1.170 . S
C479 C478 1.170 . S
C480 C481 1.170 . S
C480 C482 1.380 . S
C481 C480 1.170 . S
C482 C480 1.380 . S
C482 C483 1.170 . S
C483 C482 1.170 . S
C484 C485 1.170 . S
C484 C486 1.380 1_655 S
C485 C484 1.170 . S
C486 C484 1.380 1_455 S
C486 C487 1.170 . S
C487 C486 1.170 . S
C488 C489 1.170 . S
C488 C490 1.380 1_565 S
C489 C488 1.170 . S
C490 C488 1.380 1_545 S
C490 C491 1.170 . S
C491 C490 1.170 . S
C492 C493 1.170 . S
C492 C494 1.380 . S
C493 C492 1.170 . S
C494 C492 1.380 . S
C494 C495 1.170 . S
C495 C494 1.170 . S
C496 C497 1.170 . S
C496 C498 1.380 1_455 S
C497 C496 1.170 . S
C498 C496 1.380 1_655 S
C498 C499 1.170 . S
C499 C498 1.170 . S
C500 C501 1.170 . S
C500 C502 1.380 1_564 S
C501 C500 1.170 . S
C502 C500 1.380 1_546 S
C502 C503 1.170 . S
C503 C502 1.170 . S
C504 C505 1.170 . S
C504 C506 1.380 . S
C505 C504 1.170 . S
C506 C504 1.380 . S
C506 C507 1.170 . S
C507 C506 1.170 . S
C508 C509 1.170 . S
C508 C510 1.380 . S
C509 C508 1.170 . S
C510 C508 1.380 . S
C510 C511 1.170 . S
C511 C510 1.170 . S
C512 C513 1.170 . S
C512 C514 1.380 . S
C513 C512 1.170 . S
C514 C512 1.380 . S
C514 C515 1.170 . S
C515 C514 1.170 . S
C516 C517 1.170 . S
C516 C518 1.380 . S
C517 C516 1.170 . S
C518 C516 1.380 . S
C518 C519 1.170 . S
C519 C518 1.170 . S
C520 C521 1.170 . S
C520 C522 1.380 . S
C521 C520 1.170 . S
C522 C520 1.380 . S
C522 C523 1.170 . S
C523 C522 1.170 . S
C524 C525 1.170 . S
C524 C526 1.380 . S
C525 C524 1.170 . S
C526 C524 1.380 . S
C526 C527 1.170 . S
C527 C526 1.170 . S
C409 C349 0.469 . S
C411 C9 0.462 . S
C413 C43 0.709 . S
C415 C383 0.700 . S
C417 C77 0.723 . S
C419 C213 0.694 . S
C421 C111 0.488 . S
C423 C247 0.497 . S
C425 C145 0.675 . S
C427 C281 0.650 1_556 S
C429 C179 0.672 1_554 S
C431 C315 0.691 . S
C433 C5 1.876 . S
C435 C190 1.842 . S
C437 C20 1.871 . S
C439 C39 1.802 1_456 S
C441 C54 1.932 . S
C443 C73 1.908 1_545 S
C445 C107 1.866 . S
C447 C88 1.892 . S
C449 C141 2.022 1_655 S
C451 C122 2.049 . S
C453 C175 1.941 1_565 S
C455 C156 1.938 . S
C457 C258 1.900 . S
C459 C209 1.838 1_554 S
C461 C243 1.878 1_455 S
C463 C292 1.841 . S
C465 C277 1.916 1_545 S
C467 C326 1.906 . S
C469 C311 2.026 . S
C471 C360 2.044 . S
C473 C345 1.871 1_655 S
C475 C394 1.897 . S
C477 C379 1.882 1_565 S
C479 C224 1.910 . S
C481 C2 1.654 . S
C483 C308 1.621 . S
C485 C36 1.886 . S
C487 C342 1.910 . S
C489 C70 1.820 . S
C491 C376 1.824 . S
C493 C104 1.913 . S
C495 C206 1.881 . S
C497 C138 1.656 . S
C499 C240 1.618 . S
C501 C274 1.753 . S
C503 C172 1.766 . S
C505 C237 1.186 . S
C507 C33 1.199 . S
C509 C67 1.205 . S
C511 C271 1.180 . S
C513 C101 1.241 . S
C515 C305 1.285 . S
C517 C339 1.349 . S
C519 C135 1.399 . S
C521 C169 1.396 . S
C523 C373 1.369 . S
C525 C407 1.252 . S
C527 C203 1.277 . S
