# Generated by pormake.
# Topology fnr, (5)-cn, num edge types: 1
# Building blocks:
#     Node 0, Type 0, BuildingBlock: XOMCOT_clean_sbu_1, # of connection points: 5
#     Node 1, Type 0, BuildingBlock: XOMCOT_clean_sbu_1, # of connection points: 5
#     Node 2, Type 0, BuildingBlock: XOMCOT_clean_sbu_1, # of connection points: 5
#     Node 3, Type 0, BuildingBlock: XOMCOT_clean_sbu_1, # of connection points: 5
#     Node 4, Type 0, BuildingBlock: XOMCOT_clean_sbu_1, # of connection points: 5
#     Node 5, Type 0, BuildingBlock: XOMCOT_clean_sbu_1, # of connection points: 5
#     Node 6, Type 0, BuildingBlock: XOMCOT_clean_sbu_1, # of connection points: 5
#     Node 7, Type 0, BuildingBlock: XOMCOT_clean_sbu_1, # of connection points: 5
#     Node 8, Type 0, BuildingBlock: XOMCOT_clean_sbu_1, # of connection points: 5
#     Node 9, Type 0, BuildingBlock: XOMCOT_clean_sbu_1, # of connection points: 5
#     Node 10, Type 0, BuildingBlock: XOMCOT_clean_sbu_1, # of connection points: 5
#     Node 11, Type 0, BuildingBlock: XOMCOT_clean_sbu_1, # of connection points: 5
#     Edge 12, Type (0, 0), BuildingBlock: UVAHIK_clean_linker_0, # of connection points: 2
#     Edge 13, Type (0, 0), BuildingBlock: UVAHIK_clean_linker_0, # of connection points: 2
#     Edge 14, Type (0, 0), BuildingBlock: UVAHIK_clean_linker_0, # of connection points: 2
#     Edge 15, Type (0, 0), BuildingBlock: UVAHIK_clean_linker_0, # of connection points: 2
#     Edge 16, Type (0, 0), BuildingBlock: UVAHIK_clean_linker_0, # of connection points: 2
#     Edge 17, Type (0, 0), BuildingBlock: UVAHIK_clean_linker_0, # of connection points: 2
#     Edge 18, Type (0, 0), BuildingBlock: UVAHIK_clean_linker_0, # of connection points: 2
#     Edge 19, Type (0, 0), BuildingBlock: UVAHIK_clean_linker_0, # of connection points: 2
#     Edge 20, Type (0, 0), BuildingBlock: UVAHIK_clean_linker_0, # of connection points: 2
#     Edge 21, Type (0, 0), BuildingBlock: UVAHIK_clean_linker_0, # of connection points: 2
#     Edge 22, Type (0, 0), BuildingBlock: UVAHIK_clean_linker_0, # of connection points: 2
#     Edge 23, Type (0, 0), BuildingBlock: UVAHIK_clean_linker_0, # of connection points: 2
#     Edge 24, Type (0, 0), BuildingBlock: UVAHIK_clean_linker_0, # of connection points: 2
#     Edge 25, Type (0, 0), BuildingBlock: UVAHIK_clean_linker_0, # of connection points: 2
#     Edge 26, Type (0, 0), BuildingBlock: UVAHIK_clean_linker_0, # of connection points: 2
#     Edge 27, Type (0, 0), BuildingBlock: UVAHIK_clean_linker_0, # of connection points: 2
#     Edge 28, Type (0, 0), BuildingBlock: UVAHIK_clean_linker_0, # of connection points: 2
#     Edge 29, Type (0, 0), BuildingBlock: UVAHIK_clean_linker_0, # of connection points: 2
#     Edge 30, Type (0, 0), BuildingBlock: UVAHIK_clean_linker_0, # of connection points: 2
#     Edge 31, Type (0, 0), BuildingBlock: UVAHIK_clean_linker_0, # of connection points: 2
#     Edge 32, Type (0, 0), BuildingBlock: UVAHIK_clean_linker_0, # of connection points: 2
#     Edge 33, Type (0, 0), BuildingBlock: UVAHIK_clean_linker_0, # of connection points: 2
#     Edge 34, Type (0, 0), BuildingBlock: UVAHIK_clean_linker_0, # of connection points: 2
#     Edge 35, Type (0, 0), BuildingBlock: UVAHIK_clean_linker_0, # of connection points: 2
#     Edge 36, Type (0, 0), BuildingBlock: UVAHIK_clean_linker_0, # of connection points: 2
#     Edge 37, Type (0, 0), BuildingBlock: UVAHIK_clean_linker_0, # of connection points: 2
#     Edge 38, Type (0, 0), BuildingBlock: UVAHIK_clean_linker_0, # of connection points: 2
#     Edge 39, Type (0, 0), BuildingBlock: UVAHIK_clean_linker_0, # of connection points: 2
#     Edge 40, Type (0, 0), BuildingBlock: UVAHIK_clean_linker_0, # of connection points: 2
#     Edge 41, Type (0, 0), BuildingBlock: UVAHIK_clean_linker_0, # of connection points: 2
# Relax obj value: 0.267
# Max RMSD: 0.194
# Mean RMSD: 0.191
data_MOF--net-fnr--node1-XOMCOT_clean_sbu_1--edge1-UVAHIK_clean_linker_0
_symmetry_space_group_name_H-M    P1
_symmetry_Int_Tables_number       1
_symmetry_cell_setting            triclinic
loop_
_symmetry_equiv_pos_as_xyz
'x, y, z'
_cell_length_a     51.606563
_cell_length_b     51.583176
_cell_length_c     64.354709
_cell_angle_alpha  89.950135
_cell_angle_beta   89.995723
_cell_angle_gamma 119.99098
loop_
_atom_site_label
_atom_site_type_symbol
_atom_site_fract_x
_atom_site_fract_y
_atom_site_fract_z
_atom_type_partial_charge
C0 C 0.41003 0.22636 0.08607 0.0
C1 C 0.39185 0.23827 0.08261 0.0
N2 N 0.37572 0.22588 0.06523 0.0
N3 N 0.40535 0.20623 0.07111 0.0
C4 C 0.38445 0.20648 0.05857 0.0
H5 H 0.42655 0.2328 0.09826 0.0
Co6 Co 0.42882 0.18824 0.06754 0.0
C7 C 0.37882 0.12512 0.0597 0.0
O8 O 0.38188 0.11644 0.07823 0.0
N9 N 0.45358 0.17078 0.06339 0.0
C10 C 0.47453 0.14202 0.06479 0.0
C11 C 0.45074 0.14508 0.07108 0.0
C12 C 0.47943 0.18272 0.05239 0.0
N13 N 0.49272 0.16582 0.05298 0.0
O14 O 0.44126 0.20821 0.04119 0.0
H15 H 0.43351 0.13008 0.08161 0.0
H16 H 0.48863 0.20359 0.04414 0.0
O17 O 0.39523 0.15253 0.05412 0.0
C18 C 0.4619 0.23473 0.04556 0.0
O19 O 0.47088 0.24114 0.06494 0.0
N20 N 0.41905 0.17274 0.09494 0.0
C21 C 0.41231 0.16626 0.13807 0.0
C22 C 0.38755 0.15871 0.12526 0.0
C23 C 0.39143 0.16236 0.10373 0.0
C24 C 0.44332 0.1805 0.10733 0.0
C25 C 0.44034 0.17672 0.12881 0.0
H26 H 0.37249 0.15818 0.09416 0.0
H27 H 0.46554 0.19132 0.10069 0.0
H28 H 0.37667 0.19344 0.04446 0.0
H29 H 0.3918 0.2559 0.09167 0.0
H30 H 0.47861 0.12419 0.06937 0.0
H31 H 0.3656 0.15109 0.13188 0.0
H32 H 0.4602 0.18388 0.13819 0.0
C33 C 0.18824 0.35408 0.56726 0.0
C34 C 0.16036 0.33295 0.56023 0.0
N35 N 0.14522 0.34703 0.55521 0.0
N36 N 0.19058 0.38137 0.56682 0.0
C37 C 0.16393 0.37623 0.55937 0.0
H38 H 0.20563 0.34973 0.57243 0.0
Co39 Co 0.22311 0.41765 0.57575 0.0
C40 C 0.27701 0.41121 0.56671 0.0
O41 O 0.29262 0.4295 0.58182 0.0
N42 N 0.25539 0.4544 0.58445 0.0
C43 C 0.28384 0.49751 0.60086 0.0
C44 C 0.25906 0.46931 0.60244 0.0
C45 C 0.27792 0.47415 0.57215 0.0
N46 N 0.29567 0.50036 0.58178 0.0
O47 O 0.22222 0.43696 0.55045 0.0
H48 H 0.24423 0.46082 0.61566 0.0
H49 H 0.2808 0.46962 0.55614 0.0
O50 O 0.25017 0.40536 0.56332 0.0
C51 C 0.20672 0.44933 0.55456 0.0
O52 O 0.19402 0.44468 0.57293 0.0
N53 N 0.22154 0.39988 0.60158 0.0
C54 C 0.21012 0.37676 0.64192 0.0
C55 C 0.23027 0.37353 0.62901 0.0
C56 C 0.23541 0.38493 0.60871 0.0
C57 C 0.20133 0.40238 0.61375 0.0
C58 C 0.19541 0.39121 0.63394 0.0
H59 H 0.24996 0.381 0.59892 0.0
H60 H 0.18998 0.41364 0.60776 0.0
H61 H 0.15794 0.39335 0.55731 0.0
H62 H 0.15204 0.30918 0.55862 0.0
H63 H 0.29241 0.51461 0.61276 0.0
H64 H 0.24162 0.36193 0.63445 0.0
H65 H 0.17988 0.39449 0.64335 0.0
C66 C 0.79064 0.19057 0.08358 0.0
C67 C 0.7787 0.16045 0.08026 0.0
N68 N 0.79118 0.15657 0.06297 0.0
N69 N 0.81084 0.2059 0.06861 0.0
C70 C 0.81062 0.18464 0.0562 0.0
H71 H 0.78433 0.20077 0.09577 0.0
Co72 Co 0.82948 0.24749 0.06519 0.0
C73 C 0.89175 0.25799 0.05665 0.0
O74 O 0.90073 0.26796 0.07553 0.0
N75 N 0.84753 0.28957 0.06117 0.0
C76 C 0.87879 0.33889 0.06036 0.0
C77 C 0.87499 0.31177 0.06677 0.0
C78 C 0.83507 0.30409 0.05159 0.0
N79 N 0.85362 0.33403 0.05072 0.0
O80 O 0.80903 0.24073 0.03904 0.0
H81 H 0.8911 0.30893 0.0756 0.0
H82 H 0.8128 0.293 0.04522 0.0
O83 O 0.86462 0.24893 0.05116 0.0
C84 C 0.78238 0.23407 0.04379 0.0
O85 O 0.77592 0.23521 0.0634 0.0
N86 N 0.84559 0.25275 0.0924 0.0
C87 C 0.85275 0.25191 0.13545 0.0
C88 C 0.85865 0.23373 0.12238 0.0
C89 C 0.85459 0.23421 0.10095 0.0
C90 C 0.83976 0.27051 0.10502 0.0
C91 C 0.84382 0.27092 0.12646 0.0
H92 H 0.85748 0.21871 0.09125 0.0
H93 H 0.83007 0.28315 0.09867 0.0
H94 H 0.82385 0.18978 0.04218 0.0
H95 H 0.7611 0.14286 0.08941 0.0
H96 H 0.89832 0.36055 0.06314 0.0
H97 H 0.86527 0.21846 0.12874 0.0
H98 H 0.83798 0.28452 0.13603 0.0
C99 C 0.65421 0.80371 0.58636 0.0
C100 C 0.67487 0.79977 0.5757 0.0
N101 N 0.66846 0.7979 0.55533 0.0
N102 N 0.63452 0.80471 0.57295 0.0
C103 C 0.64401 0.80115 0.55403 0.0
H104 H 0.65334 0.80436 0.60306 0.0
Co105 Co 0.59921 0.80592 0.57998 0.0
C106 C 0.61257 0.86748 0.56989 0.0
O107 O 0.59715 0.86678 0.58635 0.0
N108 N 0.56353 0.80632 0.58661 0.0
C109 C 0.52325 0.80313 0.60184 0.0
C110 C 0.54871 0.80145 0.60483 0.0
C111 C 0.54602 0.81031 0.57273 0.0
N112 N 0.52155 0.80869 0.58163 0.0
O113 O 0.57957 0.78436 0.55521 0.0
H114 H 0.55521 0.79652 0.61954 0.0
H115 H 0.55135 0.81474 0.55638 0.0
O116 O 0.61549 0.84479 0.56561 0.0
C117 C 0.57168 0.75667 0.55607 0.0
O118 O 0.58268 0.74756 0.57094 0.0
N119 N 0.61664 0.82375 0.60558 0.0
C120 C 0.64158 0.83724 0.64525 0.0
C121 C 0.65176 0.85945 0.62985 0.0
C122 C 0.63945 0.85205 0.60982 0.0
C123 C 0.60685 0.80206 0.62046 0.0
C124 C 0.61879 0.80832 0.64037 0.0
H125 H 0.64938 0.86864 0.59773 0.0
H126 H 0.59021 0.77933 0.6165 0.0
H127 H 0.63258 0.79986 0.53964 0.0
H128 H 0.69216 0.79654 0.58264 0.0
H129 H 0.50682 0.79977 0.61358 0.0
H130 H 0.6699 0.88186 0.63302 0.0
H131 H 0.61052 0.79053 0.65182 0.0
C132 C 0.82423 0.59712 0.07854 0.0
C133 C 0.85435 0.6142 0.07458 0.0
N134 N 0.85833 0.63193 0.05803 0.0
N135 N 0.80907 0.60409 0.06472 0.0
C136 C 0.83035 0.62523 0.05237 0.0
H137 H 0.81388 0.57991 0.09029 0.0
Co138 Co 0.76741 0.58335 0.06177 0.0
C139 C 0.7617 0.63846 0.05494 0.0
O140 O 0.75407 0.63876 0.07432 0.0
N141 N 0.72513 0.5616 0.05803 0.0
C142 C 0.67648 0.5469 0.05757 0.0
C143 C 0.70452 0.56933 0.06326 0.0
C144 C 0.70878 0.53422 0.04928 0.0
N145 N 0.67919 0.52474 0.04871 0.0
O146 O 0.77278 0.56974 0.03523 0.0
H147 H 0.70912 0.58948 0.07129 0.0
H148 H 0.71828 0.52133 0.04328 0.0
O149 O 0.7679 0.61856 0.04865 0.0
C150 C 0.77581 0.54728 0.03968 0.0
O151 O 0.77243 0.53823 0.0591 0.0
N152 N 0.76336 0.59378 0.08947 0.0
C153 C 0.7649 0.59945 0.13279 0.0
C154 C 0.78476 0.62348 0.12026 0.0
C155 C 0.78383 0.62011 0.09867 0.0
C156 C 0.74397 0.57026 0.1016 0.0
C157 C 0.74388 0.57284 0.12316 0.0
H158 H 0.80044 0.63833 0.08937 0.0
H159 H 0.72967 0.54854 0.09479 0.0
H160 H 0.8252 0.63472 0.03911 0.0
H161 H 0.87176 0.61249 0.08273 0.0
H162 H 0.6557 0.54669 0.0603 0.0
H163 H 0.80161 0.64432 0.12713 0.0
H164 H 0.72888 0.55338 0.13229 0.0
C165 C 0.23289 0.84479 0.59217 0.0
C166 C 0.24188 0.87325 0.58548 0.0
N167 N 0.23231 0.87186 0.56582 0.0
N168 N 0.21725 0.82513 0.577 0.0
C169 C 0.2175 0.8423 0.56097 0.0
H170 H 0.23856 0.83892 0.60693 0.0
Co171 Co 0.20468 0.78438 0.57931 0.0
C172 C 0.14225 0.75084 0.56573 0.0
O173 O 0.13767 0.73514 0.58276 0.0
N174 N 0.19332 0.74265 0.58156 0.0
C175 C 0.17777 0.69565 0.59182 0.0
C176 C 0.18146 0.72293 0.59755 0.0
C177 C 0.19652 0.72621 0.56631 0.0
N178 N 0.18744 0.69782 0.5722 0.0
O179 O 0.22845 0.7879 0.55552 0.0
H180 H 0.17476 0.72714 0.61242 0.0
H181 H 0.20508 0.7346 0.55095 0.0
O182 O 0.1685 0.773 0.56196 0.0
C183 C 0.25421 0.79501 0.56265 0.0
O184 O 0.25869 0.79879 0.58278 0.0
N185 N 0.18491 0.78347 0.60416 0.0
C186 C 0.16897 0.79371 0.64338 0.0
C187 C 0.15532 0.79704 0.62555 0.0
C188 C 0.1638 0.792 0.60595 0.0
C189 C 0.19937 0.78178 0.62139 0.0
C190 C 0.1911 0.78584 0.64117 0.0
H191 H 0.15462 0.79658 0.59227 0.0
H192 H 0.21794 0.7778 0.61968 0.0
H193 H 0.20783 0.83338 0.54591 0.0
H194 H 0.25585 0.89355 0.59412 0.0
H195 H 0.16912 0.67587 0.60149 0.0
H196 H 0.13887 0.80416 0.62676 0.0
H197 H 0.20283 0.78416 0.65461 0.0
C198 C 0.87445 0.58758 0.4238 0.0
C199 C 0.87745 0.56263 0.42508 0.0
N200 N 0.84992 0.53813 0.42521 0.0
N201 N 0.84519 0.57906 0.42328 0.0
C202 C 0.83075 0.5488 0.42403 0.0
H203 H 0.8925 0.61055 0.42338 0.0
Co204 Co 0.83085 0.60567 0.42197 0.0
C205 C 0.76627 0.57118 0.43418 0.0
O206 O 0.76088 0.58874 0.42239 0.0
N207 N 0.81712 0.63373 0.4207 0.0
C208 C 0.80165 0.6647 0.40966 0.0
C209 C 0.81357 0.64727 0.40379 0.0
C210 C 0.80808 0.64431 0.43678 0.0
N211 N 0.79806 0.66272 0.43039 0.0
O212 O 0.84938 0.62172 0.44848 0.0
H213 H 0.81861 0.64452 0.38798 0.0
H214 H 0.80733 0.63738 0.45275 0.0
O215 O 0.79291 0.57532 0.43528 0.0
C216 C 0.87339 0.64678 0.44581 0.0
O217 O 0.8793 0.6585 0.42707 0.0
N218 N 0.81674 0.59188 0.39506 0.0
C219 C 0.80564 0.58213 0.35251 0.0
C220 C 0.78422 0.56322 0.36711 0.0
C221 C 0.7904 0.56817 0.38839 0.0
C222 C 0.83865 0.60874 0.38113 0.0
C223 C 0.83344 0.60468 0.35984 0.0
H224 H 0.77403 0.55273 0.39919 0.0
H225 H 0.85989 0.62661 0.3867 0.0
H226 H 0.8067 0.53491 0.42335 0.0
H227 H 0.89841 0.56272 0.42616 0.0
H228 H 0.79582 0.67768 0.39944 0.0
H229 H 0.76292 0.54473 0.36214 0.0
H230 H 0.85076 0.61989 0.34931 0.0
C231 C 0.15232 0.77483 0.9125 0.0
C232 C 0.12518 0.76833 0.92053 0.0
N233 N 0.12897 0.77675 0.9406 0.0
N234 N 0.17362 0.78788 0.92723 0.0
C235 C 0.15859 0.78842 0.94436 0.0
H236 H 0.15588 0.76912 0.89704 0.0
Co237 Co 0.21373 0.79765 0.92362 0.0
C238 C 0.24986 0.86141 0.93401 0.0
O239 O 0.2649 0.86417 0.91692 0.0
N240 N 0.25445 0.80674 0.9202 0.0
C241 C 0.3004 0.82043 0.90861 0.0
C242 C 0.27277 0.81619 0.90336 0.0
C243 C 0.272 0.80544 0.93545 0.0
N244 N 0.29979 0.8135 0.92876 0.0
O245 O 0.21121 0.77597 0.94854 0.0
H246 H 0.26743 0.82113 0.88823 0.0
H247 H 0.26506 0.79964 0.95142 0.0
O248 O 0.22789 0.83568 0.93903 0.0
C249 C 0.19734 0.74827 0.94374 0.0
O250 O 0.18649 0.74071 0.92484 0.0
N251 N 0.21376 0.81486 0.89778 0.0
C252 C 0.19954 0.82404 0.85758 0.0
C253 C 0.20134 0.84292 0.87391 0.0
C254 C 0.20788 0.83754 0.89409 0.0
C255 C 0.21188 0.79635 0.88204 0.0
C256 C 0.20553 0.80091 0.86184 0.0
H257 H 0.20628 0.85032 0.90681 0.0
H258 H 0.21439 0.77716 0.88542 0.0
H259 H 0.169 0.79638 0.95938 0.0
H260 H 0.10393 0.75671 0.9125 0.0
H261 H 0.31952 0.82802 0.89838 0.0
H262 H 0.19601 0.86049 0.87135 0.0
H263 H 0.20438 0.78577 0.84976 0.0
C264 C 0.43567 0.28878 0.41742 0.0
C265 C 0.46101 0.31636 0.4194 0.0
N266 N 0.48121 0.3131 0.43068 0.0
N267 N 0.43979 0.26812 0.42733 0.0
C268 C 0.46771 0.28361 0.43535 0.0
H269 H 0.41539 0.28403 0.40935 0.0
Co270 Co 0.41049 0.22798 0.42917 0.0
C271 C 0.44259 0.19471 0.43758 0.0
O272 O 0.42337 0.17298 0.42557 0.0
N273 N 0.37955 0.18711 0.43128 0.0
C274 C 0.34029 0.14214 0.42471 0.0
C275 C 0.35785 0.17068 0.41734 0.0
C276 C 0.37355 0.16806 0.44752 0.0
N277 N 0.35028 0.14035 0.44363 0.0
O278 O 0.40071 0.23537 0.45643 0.0
H279 H 0.35429 0.17844 0.40269 0.0
H280 H 0.38681 0.1741 0.46159 0.0
O281 O 0.44014 0.218 0.44032 0.0
C282 C 0.37755 0.23816 0.45512 0.0
O283 O 0.36393 0.23311 0.43708 0.0
N284 N 0.41884 0.22297 0.40139 0.0
C285 C 0.42451 0.21841 0.35852 0.0
C286 C 0.44608 0.21934 0.3723 0.0
C287 C 0.44323 0.22238 0.39368 0.0
C288 C 0.39938 0.22492 0.38807 0.0
C289 C 0.40122 0.22182 0.36672 0.0
H290 H 0.46109 0.22504 0.40374 0.0
H291 H 0.38183 0.22839 0.3942 0.0
H292 H 0.47769 0.27372 0.44488 0.0
H293 H 0.46438 0.33714 0.41283 0.0
H294 H 0.32139 0.12409 0.41678 0.0
H295 H 0.46534 0.21841 0.36659 0.0
H296 H 0.38419 0.2217 0.35684 0.0
C297 C 0.24736 0.38574 0.9172 0.0
C298 C 0.25282 0.36462 0.92569 0.0
N299 N 0.24209 0.35898 0.94524 0.0
N300 N 0.23277 0.3934 0.93111 0.0
C301 C 0.23012 0.37688 0.94821 0.0
H302 H 0.25489 0.39583 0.90208 0.0
Co303 Co 0.22392 0.42421 0.92664 0.0
C304 C 0.15987 0.39811 0.93568 0.0
O305 O 0.15835 0.41114 0.91857 0.0
N306 N 0.21583 0.45637 0.92231 0.0
C307 C 0.20404 0.48949 0.90953 0.0
C308 C 0.2084 0.46598 0.90486 0.0
C309 C 0.21588 0.47492 0.93733 0.0
N310 N 0.20892 0.49515 0.92992 0.0
O311 O 0.24434 0.44317 0.95191 0.0
H312 H 0.20498 0.45621 0.88963 0.0
H313 H 0.21999 0.47319 0.95359 0.0
O314 O 0.18504 0.4009 0.94119 0.0
C315 C 0.27228 0.45665 0.94786 0.0
O316 O 0.28081 0.45312 0.92934 0.0
N317 N 0.20786 0.40712 0.9006 0.0
C318 C 0.19854 0.38414 0.86031 0.0
C319 C 0.17886 0.36749 0.87644 0.0
C320 C 0.18435 0.37911 0.89668 0.0
C321 C 0.22744 0.42311 0.88514 0.0
C322 C 0.22291 0.41238 0.86489 0.0
H323 H 0.17065 0.365 0.90922 0.0
H324 H 0.24717 0.44426 0.88874 0.0
H325 H 0.22041 0.37861 0.96269 0.0
H326 H 0.26531 0.35539 0.91837 0.0
H327 H 0.19778 0.50154 0.89875 0.0
H328 H 0.1603 0.34518 0.87363 0.0
H329 H 0.23872 0.42599 0.85297 0.0
C330 C 0.72455 0.14565 0.41171 0.0
C331 C 0.69674 0.14285 0.41383 0.0
N332 N 0.6992 0.16477 0.4265 0.0
N333 N 0.7445 0.1693 0.4229 0.0
C334 C 0.72842 0.18044 0.43182 0.0
H335 H 0.7299 0.13125 0.40272 0.0
Co336 Co 0.78454 0.18071 0.42554 0.0
C337 C 0.817 0.24611 0.4332 0.0
O338 O 0.83919 0.24787 0.4221 0.0
N339 N 0.82543 0.19144 0.42865 0.0
C340 C 0.87261 0.20244 0.42369 0.0
C341 C 0.84489 0.19097 0.41474 0.0
C342 C 0.84189 0.20226 0.44624 0.0
N343 N 0.87068 0.20958 0.44345 0.0
O344 O 0.77629 0.16343 0.45286 0.0
H345 H 0.84007 0.18342 0.39891 0.0
H346 H 0.83332 0.20624 0.46051 0.0
O347 O 0.79355 0.22051 0.43615 0.0
C348 C 0.77388 0.13765 0.45126 0.0
O349 O 0.77917 0.12965 0.43307 0.0
N350 N 0.7904 0.19394 0.39774 0.0
C351 C 0.79683 0.20482 0.35499 0.0
C352 C 0.79369 0.22445 0.3685 0.0
C353 C 0.78973 0.2182 0.38981 0.0
C354 C 0.79047 0.17329 0.3846 0.0
C355 C 0.79451 0.17861 0.36331 0.0
H356 H 0.78544 0.23254 0.39965 0.0
H357 H 0.78827 0.15282 0.39088 0.0
H358 H 0.73772 0.19913 0.44248 0.0
H359 H 0.67635 0.12608 0.40645 0.0
H360 H 0.89278 0.20564 0.41619 0.0
H361 H 0.79371 0.24414 0.36264 0.0
H362 H 0.79636 0.1625 0.35358 0.0
C363 C 0.63436 0.86708 0.91679 0.0
C364 C 0.6557 0.8936 0.92517 0.0
N365 N 0.66062 0.88865 0.94494 0.0
N366 N 0.62585 0.84503 0.93099 0.0
C367 C 0.64209 0.85894 0.94814 0.0
H368 H 0.62469 0.8645 0.90153 0.0
Co369 Co 0.59449 0.80563 0.9268 0.0
C370 C 0.61843 0.76631 0.93772 0.0
O371 O 0.60493 0.75089 0.921 0.0
N372 N 0.5618 0.76576 0.92277 0.0
C373 C 0.5277 0.72101 0.91043 0.0
C374 C 0.55143 0.74861 0.90543 0.0
C375 C 0.54349 0.74767 0.93804 0.0
N376 N 0.52267 0.72059 0.93091 0.0
O377 O 0.57525 0.80829 0.95158 0.0
H378 H 0.56071 0.75473 0.89004 0.0
H379 H 0.5458 0.75374 0.95428 0.0
O380 O 0.61668 0.78961 0.94226 0.0
C381 C 0.56251 0.82335 0.94717 0.0
O382 O 0.56689 0.83553 0.92862 0.0
N383 N 0.61202 0.80543 0.90123 0.0
C384 C 0.63689 0.81856 0.86146 0.0
C385 C 0.65226 0.81458 0.87803 0.0
C386 C 0.63972 0.80874 0.89801 0.0
C387 C 0.59717 0.80967 0.88528 0.0
C388 C 0.60888 0.81572 0.86528 0.0
H389 H 0.65303 0.8086 0.9109 0.0
H390 H 0.57631 0.80918 0.88833 0.0
H391 H 0.63968 0.84768 0.96282 0.0
H392 H 0.66554 0.91523 0.91762 0.0
H393 H 0.51503 0.70265 0.89982 0.0
H394 H 0.67435 0.81747 0.87576 0.0
H395 H 0.59632 0.81874 0.85296 0.0
C396 C 0.7542 0.24856 0.02001 0.0
C397 C 0.7584 0.22591 0.02856 0.0
C398 C 0.72558 0.24237 0.01404 0.0
C399 C 0.64554 0.18201 0.00892 0.0
H400 H 0.63088 0.23816 0.03946 0.0
C401 C 0.52936 0.15054 0.04209 0.0
C402 C 0.52134 0.1728 0.04415 0.0
C403 C 0.55773 0.15766 0.03483 0.0
C404 C 0.63442 0.22251 0.03042 0.0
H405 H 0.73696 0.17877 0.03593 0.0
H406 H 0.68721 0.16771 0.02516 0.0
H407 H 0.68182 0.24943 0.03359 0.0
H408 H 0.53729 0.22014 0.03938 0.0
H409 H 0.58588 0.23216 0.02606 0.0
H410 H 0.59793 0.15469 0.00627 0.0
C411 C 0.70577 0.19018 0.02286 0.0
C412 C 0.6638 0.22904 0.027 0.0
C413 C 0.73434 0.19644 0.0289 0.0
C414 C 0.54223 0.2022 0.03798 0.0
C415 C 0.57046 0.20924 0.03053 0.0
C416 C 0.61605 0.17553 0.01221 0.0
C417 C 0.70075 0.21345 0.01662 0.0
C418 C 0.66976 0.20859 0.01664 0.0
C419 C 0.57886 0.18721 0.02923 0.0
C420 C 0.61008 0.19538 0.02347 0.0
H421 H 0.77229 0.27157 0.01996 0.0
H422 H 0.72251 0.26069 0.00898 0.0
H423 H 0.64938 0.16586 0.00077 0.0
H424 H 0.51389 0.12756 0.04631 0.0
H425 H 0.56338 0.14009 0.03427 0.0
C426 C 0.34102 0.52211 0.5599 0.0
C427 C 0.3217 0.52598 0.57329 0.0
C428 C 0.36703 0.54689 0.55235 0.0
C429 C 0.40361 0.62755 0.54218 0.0
H430 H 0.47716 0.62777 0.55461 0.0
C431 C 0.51822 0.73579 0.54642 0.0
C432 C 0.54435 0.73383 0.54559 0.0
C433 C 0.49016 0.71019 0.54377 0.0
C434 C 0.457 0.62803 0.55036 0.0
H435 H 0.31373 0.55872 0.58858 0.0
H436 H 0.3591 0.60221 0.57509 0.0
H437 H 0.42952 0.58342 0.5618 0.0
H438 H 0.56209 0.70463 0.53888 0.0
H439 H 0.51349 0.66049 0.53249 0.0
H440 H 0.43094 0.67206 0.53056 0.0
C441 C 0.35416 0.57997 0.57059 0.0
C442 C 0.4296 0.60251 0.55471 0.0
C443 C 0.32842 0.55514 0.57846 0.0
C444 C 0.54221 0.70668 0.53966 0.0
C445 C 0.51425 0.68126 0.5364 0.0
C446 C 0.43109 0.65297 0.53741 0.0
C447 C 0.37393 0.57606 0.5577 0.0
C448 C 0.40267 0.60222 0.55108 0.0
C449 C 0.48773 0.68218 0.53978 0.0
C450 C 0.45827 0.65386 0.54188 0.0
H451 H 0.33644 0.49987 0.55577 0.0
H452 H 0.38189 0.54328 0.54243 0.0
H453 H 0.38309 0.62775 0.53905 0.0
H454 H 0.51915 0.75631 0.55122 0.0
H455 H 0.47052 0.7121 0.54658 0.0
C456 C 0.87125 0.3843 0.03551 0.0
C457 C 0.84762 0.35624 0.0418 0.0
C458 C 0.86557 0.40631 0.02773 0.0
C459 C 0.80545 0.41905 0.00701 0.0
H460 H 0.85314 0.49777 0.03133 0.0
C461 C 0.76247 0.50001 0.0221 0.0
C462 C 0.78284 0.53066 0.02437 0.0
C463 C 0.77232 0.48042 0.01599 0.0
C464 C 0.84004 0.47624 0.02385 0.0
H465 H 0.7993 0.32936 0.0444 0.0
H466 H 0.78945 0.36767 0.03095 0.0
H467 H 0.86672 0.45969 0.03748 0.0
H468 H 0.8289 0.56545 0.02041 0.0
H469 H 0.84623 0.53135 0.00909 0.0
H470 H 0.77807 0.4354 0.99403 0.0
C471 C 0.81242 0.37252 0.03175 0.0
C472 C 0.84779 0.45426 0.02749 0.0
C473 C 0.81809 0.35051 0.03955 0.0
C474 C 0.81267 0.54194 0.01831 0.0
C475 C 0.82263 0.5223 0.01222 0.0
C476 C 0.79772 0.4411 0.0033 0.0
C477 C 0.8361 0.40084 0.026 0.0
C478 C 0.83009 0.42513 0.01965 0.0
C479 C 0.80288 0.49111 0.01225 0.0
C480 C 0.81439 0.46972 0.01222 0.0
H481 H 0.89423 0.38934 0.03658 0.0
H482 H 0.88432 0.42772 0.02317 0.0
H483 H 0.79166 0.397 0.00039 0.0
H484 H 0.73947 0.49075 0.02714 0.0
H485 H 0.75643 0.45663 0.01634 0.0
C486 C 0.48311 0.82365 0.58294 0.0
C487 C 0.49797 0.81152 0.57184 0.0
C488 C 0.45883 0.82458 0.57423 0.0
C489 C 0.39802 0.78513 0.53727 0.0
H490 H 0.38384 0.85064 0.54932 0.0
C491 C 0.29854 0.81926 0.53934 0.0
C492 C 0.27728 0.7938 0.55008 0.0
C493 C 0.32605 0.822 0.53367 0.0
C494 C 0.38754 0.83236 0.54531 0.0
H495 H 0.49943 0.79145 0.54263 0.0
H496 H 0.45653 0.79275 0.52736 0.0
H497 H 0.43296 0.85657 0.55578 0.0
H498 H 0.26717 0.7509 0.56263 0.0
H499 H 0.31445 0.75511 0.55243 0.0
H500 H 0.35221 0.76052 0.52753 0.0
C501 C 0.46384 0.80161 0.54285 0.0
C502 C 0.41566 0.83566 0.54929 0.0
C503 C 0.48847 0.80102 0.55152 0.0
C504 C 0.28286 0.77025 0.55369 0.0
C505 C 0.31011 0.77282 0.54793 0.0
C506 C 0.36982 0.78179 0.53333 0.0
C507 C 0.4486 0.81319 0.5542 0.0
C508 C 0.42087 0.81169 0.54609 0.0
C509 C 0.33265 0.79934 0.53878 0.0
C510 C 0.36391 0.80497 0.53807 0.0
H511 H 0.49011 0.8322 0.59852 0.0
H512 H 0.44739 0.83328 0.58352 0.0
H513 H 0.4013 0.76623 0.53464 0.0
H514 H 0.29491 0.83798 0.53686 0.0
H515 H 0.34283 0.84262 0.52649 0.0
C516 C 0.65975 0.47175 0.03865 0.0
C517 C 0.65549 0.49652 0.04081 0.0
C518 C 0.63658 0.44423 0.03163 0.0
C519 C 0.55492 0.39992 0.03024 0.0
H520 H 0.56952 0.34713 0.99552 0.0
C521 C 0.46573 0.27698 0.025 0.0
C522 C 0.47735 0.25832 0.03 0.0
C523 C 0.48484 0.30635 0.0182 0.0
C524 C 0.565 0.36161 0.00516 0.0
H525 H 0.62346 0.51167 0.03643 0.0
H526 H 0.58292 0.46348 0.02456 0.0
H527 H 0.609 0.39905 0.00037 0.0
H528 H 0.51724 0.25461 0.03043 0.0
H529 H 0.55041 0.30525 0.01846 0.0
H530 H 0.51165 0.36233 0.03605 0.0
C531 C 0.60425 0.46544 0.02845 0.0
C532 C 0.58765 0.39134 0.00797 0.0
C533 C 0.6275 0.49306 0.03537 0.0
C534 C 0.50764 0.26833 0.02617 0.0
C535 C 0.52671 0.29756 0.01938 0.0
C536 C 0.53235 0.37019 0.02754 0.0
C537 C 0.60845 0.44064 0.02666 0.0
C538 C 0.58316 0.41056 0.02107 0.0
C539 C 0.51587 0.31751 0.01651 0.0
C540 C 0.5374 0.35035 0.01551 0.0
H541 H 0.68069 0.47321 0.04294 0.0
H542 H 0.64042 0.42544 0.0308 0.0
H543 H 0.55078 0.41404 0.04057 0.0
H544 H 0.44254 0.26991 0.02831 0.0
H545 H 0.47565 0.32095 0.01579 0.0
C546 C 0.17867 0.47235 0.54033 0.0
C547 C 0.20547 0.47166 0.54099 0.0
C548 C 0.17852 0.49814 0.5341 0.0
C549 C 0.22979 0.57915 0.53622 0.0
H550 H 0.15801 0.57984 0.51928 0.0
C551 C 0.21421 0.68215 0.54788 0.0
C552 C 0.18939 0.67493 0.56065 0.0
C553 C 0.21781 0.6595 0.53874 0.0
C554 C 0.17835 0.58008 0.52382 0.0
H555 H 0.2528 0.49637 0.53402 0.0
H556 H 0.25263 0.54164 0.52254 0.0
H557 H 0.1624 0.53559 0.51267 0.0
H558 H 0.14798 0.63856 0.57276 0.0
H559 H 0.1538 0.59902 0.55639 0.0
H560 H 0.24535 0.62354 0.5477 0.0
C561 C 0.23169 0.52231 0.52715 0.0
C562 C 0.18086 0.55471 0.52014 0.0
C563 C 0.23176 0.49625 0.53338 0.0
C564 C 0.16744 0.64472 0.56316 0.0
C565 C 0.17067 0.62215 0.55366 0.0
C566 C 0.22746 0.60473 0.53957 0.0
C567 C 0.20529 0.52405 0.52843 0.0
C568 C 0.20598 0.55333 0.52722 0.0
C569 C 0.19621 0.62926 0.54175 0.0
C570 C 0.20119 0.60492 0.53421 0.0
H571 H 0.15815 0.45369 0.54629 0.0
H572 H 0.15777 0.49843 0.53556 0.0
H573 H 0.24936 0.579 0.54212 0.0
H574 H 0.23144 0.70522 0.54567 0.0
H575 H 0.23769 0.66556 0.52962 0.0
C576 C 0.81489 0.48455 0.43366 0.0
C577 C 0.84292 0.50726 0.42644 0.0
C578 C 0.80871 0.45485 0.43527 0.0
C579 C 0.83584 0.4045 0.41614 0.0
H580 H 0.79397 0.35527 0.46387 0.0
C581 C 0.84427 0.30166 0.43602 0.0
C582 C 0.81725 0.2744 0.43792 0.0
C583 C 0.84456 0.32882 0.43626 0.0
C584 C 0.80544 0.36872 0.45038 0.0
H585 H 0.88609 0.51602 0.4149 0.0
H586 H 0.87578 0.46506 0.4183 0.0
H587 H 0.79952 0.40519 0.46021 0.0
H588 H 0.76952 0.2545 0.44307 0.0
H589 H 0.77016 0.30246 0.44383 0.0
H590 H 0.84261 0.3686 0.40664 0.0
C591 C 0.8583 0.46991 0.42245 0.0
C592 C 0.80855 0.39724 0.44822 0.0
C593 C 0.86441 0.49941 0.42077 0.0
C594 C 0.79071 0.27508 0.4416 0.0
C595 C 0.79104 0.3025 0.44198 0.0
C596 C 0.83302 0.37631 0.41841 0.0
C597 C 0.83037 0.44716 0.42965 0.0
C598 C 0.82437 0.41574 0.43126 0.0
C599 C 0.81788 0.32953 0.43855 0.0
C600 C 0.81833 0.35834 0.43574 0.0
H601 H 0.79785 0.48972 0.43835 0.0
H602 H 0.78688 0.4379 0.44075 0.0
H603 H 0.84737 0.41764 0.40256 0.0
H604 H 0.8652 0.30204 0.43344 0.0
H605 H 0.86565 0.34934 0.434 0.0
C606 C 0.35329 0.83825 0.93755 0.0
C607 C 0.32402 0.81447 0.94044 0.0
C608 C 0.37734 0.83816 0.9474 0.0
C609 C 0.40194 0.78747 0.96401 0.0
H610 H 0.46846 0.85904 0.98747 0.0
C611 C 0.51727 0.79724 0.97005 0.0
C612 C 0.5392 0.82349 0.96034 0.0
C613 C 0.49015 0.79489 0.97644 0.0
C614 C 0.45007 0.83877 0.98105 0.0
H615 H 0.29673 0.77218 0.95608 0.0
H616 H 0.33917 0.77151 0.97297 0.0
H617 H 0.42099 0.85729 0.98103 0.0
H618 H 0.55154 0.86876 0.95167 0.0
H619 H 0.505 0.86499 0.96282 0.0
H620 H 0.43151 0.76975 0.9624 0.0
C621 C 0.34333 0.79043 0.96333 0.0
C622 C 0.42287 0.83778 0.97743 0.0
C623 C 0.31912 0.79086 0.95378 0.0
C624 C 0.53496 0.84827 0.95913 0.0
C625 C 0.50818 0.84606 0.96563 0.0
C626 C 0.42928 0.78858 0.96737 0.0
C627 C 0.37271 0.814 0.96006 0.0
C628 C 0.39894 0.81258 0.96811 0.0
C629 C 0.48479 0.81889 0.9734 0.0
C630 C 0.45411 0.81478 0.97507 0.0
H631 H 0.35755 0.85672 0.9274 0.0
H632 H 0.39975 0.85644 0.94438 0.0
H633 H 0.38388 0.76779 0.95672 0.0
H634 H 0.51994 0.77777 0.9711 0.0
H635 H 0.4728 0.77377 0.98266 0.0
C636 C 0.74122 0.51713 0.44552 0.0
C637 C 0.74019 0.54358 0.44236 0.0
C638 C 0.71483 0.48994 0.44935 0.0
C639 C 0.6344 0.45744 0.46377 0.0
H640 H 0.62169 0.39196 0.42768 0.0
C641 C 0.51712 0.36612 0.43865 0.0
C642 C 0.51088 0.33644 0.43643 0.0
C643 C 0.54604 0.3891 0.44322 0.0
C644 C 0.62499 0.40978 0.43816 0.0
H645 H 0.71105 0.56261 0.44226 0.0
H646 H 0.66549 0.51571 0.44907 0.0
H647 H 0.67126 0.43645 0.42986 0.0
H648 H 0.53026 0.30764 0.43758 0.0
H649 H 0.58098 0.34792 0.44562 0.0
H650 H 0.58795 0.43126 0.47154 0.0
C651 C 0.68645 0.51567 0.44855 0.0
C652 C 0.65346 0.43529 0.43945 0.0
C653 C 0.71263 0.54262 0.44451 0.0
C654 C 0.53427 0.33023 0.4393 0.0
C655 C 0.56337 0.35334 0.44374 0.0
C656 C 0.60599 0.432 0.46248 0.0
C657 C 0.68702 0.48882 0.45045 0.0
C658 C 0.6583 0.45981 0.45181 0.0
C659 C 0.56963 0.38311 0.44564 0.0
C660 C 0.6007 0.40821 0.4492 0.0
H661 H 0.76209 0.5171 0.444 0.0
H662 H 0.71608 0.46969 0.45097 0.0
H663 H 0.63746 0.47566 0.47375 0.0
H664 H 0.4996 0.37166 0.43681 0.0
H665 H 0.55006 0.41177 0.44432 0.0
C666 C 0.22232 0.72891 0.96757 0.0
C667 C 0.19661 0.72469 0.95713 0.0
C668 C 0.22436 0.70407 0.97429 0.0
C669 C 0.18019 0.62003 0.97864 0.0
H670 H 0.2526 0.62488 0.95698 0.0
C671 C 0.18359 0.52383 0.93712 0.0
C672 C 0.20709 0.51828 0.94115 0.0
C673 C 0.18302 0.54797 0.94644 0.0
C674 C 0.23249 0.62324 0.96352 0.0
H675 H 0.15187 0.69183 0.94745 0.0
H676 H 0.15509 0.64895 0.95916 0.0
H677 H 0.25029 0.67056 0.96171 0.0
H678 H 0.2482 0.53315 0.95828 0.0
H679 H 0.24777 0.5763 0.97424 0.0
H680 H 0.1617 0.57243 0.97881 0.0
C681 C 0.17384 0.67103 0.96229 0.0
C682 C 0.23116 0.64947 0.96634 0.0
C683 C 0.17196 0.69568 0.95548 0.0
C684 C 0.22973 0.53691 0.9551 0.0
C685 C 0.22954 0.56157 0.96411 0.0
C686 C 0.18141 0.59383 0.97555 0.0
C687 C 0.20056 0.67473 0.97086 0.0
C688 C 0.20453 0.6481 0.97307 0.0
C689 C 0.20628 0.56746 0.9597 0.0
C690 C 0.20717 0.59511 0.96721 0.0
H691 H 0.2417 0.75105 0.96897 0.0
H692 H 0.24511 0.70778 0.98111 0.0
H693 H 0.15957 0.61813 0.98433 0.0
H694 H 0.16588 0.50969 0.92646 0.0
H695 H 0.16501 0.55215 0.94254 0.0
C696 C 0.4697 0.16682 0.44414 0.0
C697 C 0.46965 0.19403 0.44444 0.0
C698 C 0.4961 0.16618 0.44746 0.0
C699 C 0.57692 0.21343 0.44063 0.0
H700 H 0.57862 0.14708 0.46766 0.0
C701 C 0.68143 0.19912 0.43792 0.0
C702 C 0.67548 0.1701 0.43294 0.0
C703 C 0.65808 0.20434 0.44317 0.0
C704 C 0.5785 0.16573 0.46001 0.0
H705 H 0.49716 0.2418 0.4495 0.0
H706 H 0.54342 0.24072 0.45531 0.0
H707 H 0.53434 0.1523 0.47088 0.0
H708 H 0.64045 0.12371 0.43036 0.0
H709 H 0.59986 0.13279 0.43917 0.0
H710 H 0.62071 0.22632 0.4292 0.0
C711 C 0.52295 0.21988 0.45234 0.0
C712 C 0.55315 0.16875 0.46188 0.0
C713 C 0.49638 0.22047 0.44917 0.0
C714 C 0.64579 0.14637 0.43383 0.0
C715 C 0.62253 0.15154 0.43916 0.0
C716 C 0.6023 0.2104 0.43874 0.0
C717 C 0.52321 0.19277 0.45107 0.0
C718 C 0.55174 0.19217 0.45176 0.0
C719 C 0.62831 0.18061 0.44371 0.0
C720 C 0.60307 0.18606 0.44795 0.0
H721 H 0.44946 0.14601 0.44062 0.0
H722 H 0.49548 0.14494 0.44616 0.0
H723 H 0.57647 0.23155 0.43244 0.0
H724 H 0.70402 0.21792 0.43725 0.0
H725 H 0.66332 0.22697 0.44671 0.0
C726 C 0.32422 0.48415 0.96071 0.0
C727 C 0.29512 0.4797 0.96149 0.0
C728 C 0.34851 0.51096 0.96746 0.0
C729 C 0.36909 0.58975 0.96932 0.0
H730 H 0.44637 0.59866 0.98281 0.0
C731 C 0.48139 0.70065 0.95645 0.0
C732 C 0.49964 0.69604 0.9425 0.0
C733 C 0.45689 0.6762 0.96594 0.0
C734 C 0.42489 0.5966 0.97929 0.0
H735 H 0.26813 0.49854 0.97185 0.0
H736 H 0.31073 0.54568 0.98394 0.0
H737 H 0.40091 0.55095 0.98926 0.0
H738 H 0.50772 0.66282 0.92824 0.0
H739 H 0.46556 0.62014 0.94523 0.0
H740 H 0.39338 0.6353 0.95883 0.0
C741 C 0.31482 0.52851 0.9778 0.0
C742 C 0.39883 0.56926 0.98289 0.0
C743 C 0.29035 0.50138 0.97112 0.0
C744 C 0.49387 0.66682 0.93891 0.0
C745 C 0.46992 0.64251 0.94873 0.0
C746 C 0.39517 0.61727 0.96603 0.0
C747 C 0.34433 0.53416 0.97511 0.0
C748 C 0.3707 0.56497 0.97692 0.0
C749 C 0.45083 0.64687 0.96203 0.0
C750 C 0.42336 0.62048 0.97008 0.0
H751 H 0.32848 0.46776 0.95333 0.0
H752 H 0.37072 0.51432 0.96491 0.0
H753 H 0.34796 0.58737 0.96435 0.0
H754 H 0.48533 0.72303 0.95927 0.0
H755 H 0.44243 0.68012 0.97606 0.0
C756 C 0.41719 0.22866 0.32141 0.0
C757 C 0.42607 0.21403 0.33576 0.0
C758 C 0.41628 0.22281 0.30017 0.0
C759 C 0.41323 0.16628 0.26299 0.0
H760 H 0.43054 0.229 0.22285 0.0
C761 C 0.42435 0.15567 0.17377 0.0
C762 C 0.40997 0.16677 0.16102 0.0
C763 C 0.42534 0.15961 0.19532 0.0
C764 C 0.4254 0.21121 0.2339 0.0
H765 H 0.44184 0.18232 0.3388 0.0
H766 H 0.4415 0.17307 0.30163 0.0
H767 H 0.43671 0.24085 0.25976 0.0
H768 H 0.38489 0.19019 0.16083 0.0
H769 H 0.38676 0.19722 0.19846 0.0
H770 H 0.40268 0.13689 0.23684 0.0
C771 C 0.43442 0.1885 0.30688 0.0
C772 C 0.42886 0.21795 0.25508 0.0
C773 C 0.43505 0.19415 0.32821 0.0
C774 C 0.39584 0.1811 0.17028 0.0
C775 C 0.39718 0.18541 0.19178 0.0
C776 C 0.41016 0.15964 0.24174 0.0
C777 C 0.42465 0.20247 0.2926 0.0
C778 C 0.4225 0.19552 0.26996 0.0
C779 C 0.41237 0.17515 0.20447 0.0
C780 C 0.4159 0.18199 0.22701 0.0
H781 H 0.41066 0.24456 0.32656 0.0
H782 H 0.40831 0.2338 0.28975 0.0
H783 H 0.40769 0.14831 0.27395 0.0
H784 H 0.43539 0.1445 0.16702 0.0
H785 H 0.43726 0.15156 0.20474 0.0
C786 C 0.22903 0.37176 0.6768 0.0
C787 C 0.2049 0.36615 0.66381 0.0
C788 C 0.22451 0.36546 0.69808 0.0
C789 C 0.17314 0.35974 0.73951 0.0
H790 H 0.2184 0.33359 0.77284 0.0
C791 C 0.16679 0.35872 0.82895 0.0
C792 C 0.19477 0.37216 0.83887 0.0
C793 C 0.16431 0.35081 0.80792 0.0
C794 C 0.20561 0.34096 0.76375 0.0
H795 H 0.15679 0.3474 0.66265 0.0
H796 H 0.14891 0.33639 0.69972 0.0
H797 H 0.22131 0.3329 0.73498 0.0
H798 H 0.24162 0.3858 0.835 0.0
H799 H 0.23748 0.37268 0.79844 0.0
H800 H 0.1583 0.3689 0.76814 0.0
C801 C 0.17142 0.34625 0.69357 0.0
C802 C 0.2073 0.34056 0.74207 0.0
C803 C 0.17594 0.35256 0.67234 0.0
C804 C 0.21983 0.37597 0.82768 0.0
C805 C 0.21737 0.36807 0.80676 0.0
C806 C 0.17152 0.36023 0.76116 0.0
C807 C 0.19574 0.35336 0.70679 0.0
C808 C 0.19154 0.35051 0.7297 0.0
C809 C 0.18973 0.35603 0.79646 0.0
C810 C 0.18825 0.35147 0.77356 0.0
H811 H 0.25163 0.38242 0.67074 0.0
H812 H 0.24378 0.37147 0.70785 0.0
H813 H 0.16103 0.36796 0.73047 0.0
H814 H 0.14708 0.35547 0.83719 0.0
H815 H 0.1426 0.34121 0.80052 0.0
C816 C 0.82203 0.24087 0.32545 0.0
C817 C 0.80265 0.21149 0.33241 0.0
C818 C 0.82919 0.24672 0.30436 0.0
C819 C 0.83365 0.21031 0.25669 0.0
H820 H 0.83174 0.27545 0.22802 0.0
C821 C 0.83829 0.22015 0.16749 0.0
C822 C 0.8525 0.24873 0.15838 0.0
C823 C 0.83487 0.21687 0.18902 0.0
C824 C 0.83294 0.25749 0.23585 0.0
H825 H 0.77444 0.1655 0.32236 0.0
H826 H 0.7874 0.17569 0.28573 0.0
H827 H 0.8199 0.26759 0.26501 0.0
H828 H 0.8754 0.29633 0.16473 0.0
H829 H 0.87012 0.29069 0.20243 0.0
H830 H 0.84691 0.20025 0.22773 0.0
C831 C 0.79737 0.19409 0.29666 0.0
C832 C 0.82601 0.25294 0.25703 0.0
C833 C 0.79001 0.18827 0.31767 0.0
C834 C 0.86413 0.27402 0.17132 0.0
C835 C 0.86093 0.27075 0.1929 0.0
C836 C 0.84085 0.21501 0.23559 0.0
C837 C 0.8173 0.22329 0.28982 0.0
C838 C 0.8259 0.22905 0.26759 0.0
C839 C 0.84579 0.24212 0.20201 0.0
C840 C 0.84021 0.23842 0.22481 0.0
H841 H 0.83244 0.25924 0.33637 0.0
H842 H 0.84472 0.26944 0.29951 0.0
H843 H 0.83425 0.19203 0.26454 0.0
H844 H 0.8286 0.20022 0.15791 0.0
H845 H 0.82265 0.19446 0.1954 0.0
C846 C 0.66197 0.81081 0.83054 0.0
C847 C 0.65005 0.82684 0.84035 0.0
C848 C 0.67062 0.81626 0.80964 0.0
C849 C 0.6856 0.86904 0.76562 0.0
H850 H 0.65052 0.79673 0.73244 0.0
C851 C 0.65438 0.86512 0.67897 0.0
C852 C 0.65483 0.84326 0.66628 0.0
C853 C 0.66187 0.8669 0.70004 0.0
C854 C 0.66111 0.81723 0.7414 0.0
H855 H 0.64002 0.86268 0.8366 0.0
H856 H 0.65469 0.87194 0.80023 0.0
H857 H 0.64994 0.793 0.77002 0.0
H858 H 0.66579 0.8079 0.66494 0.0
H859 H 0.67972 0.81151 0.70147 0.0
H860 H 0.69589 0.8932 0.73686 0.0
C861 C 0.65745 0.8552 0.80853 0.0
C862 C 0.66077 0.81506 0.76302 0.0
C863 C 0.6487 0.84965 0.82931 0.0
C864 C 0.66492 0.82469 0.67455 0.0
C865 C 0.67271 0.82666 0.69547 0.0
C866 C 0.68602 0.87123 0.74393 0.0
C867 C 0.66774 0.83803 0.79827 0.0
C868 C 0.67238 0.84087 0.7754 0.0
C869 C 0.67019 0.84699 0.70867 0.0
C870 C 0.67319 0.8453 0.73157 0.0
H871 H 0.6633 0.79315 0.83872 0.0
H872 H 0.67879 0.80289 0.80221 0.0
H873 H 0.69506 0.88937 0.77475 0.0
H874 H 0.64652 0.87957 0.67291 0.0
H875 H 0.65946 0.88268 0.70976 0.0
C876 C 0.74294 0.58888 0.16872 0.0
C877 C 0.76821 0.60057 0.15572 0.0
C878 C 0.74587 0.58678 0.19017 0.0
C879 C 0.79396 0.57851 0.22797 0.0
H880 H 0.75583 0.60373 0.26876 0.0
C881 C 0.82142 0.58516 0.3152 0.0
C882 C 0.79894 0.5794 0.32985 0.0
C883 C 0.81622 0.58594 0.29398 0.0
C884 C 0.7662 0.59605 0.2576 0.0
H885 H 0.81635 0.61962 0.15501 0.0
H886 H 0.82143 0.6159 0.19246 0.0
H887 H 0.74977 0.61003 0.23181 0.0
H888 H 0.75286 0.56884 0.33344 0.0
H889 H 0.74338 0.56893 0.29637 0.0
H890 H 0.80996 0.56397 0.25352 0.0
C891 C 0.7994 0.60839 0.18605 0.0
C892 C 0.76285 0.59986 0.23643 0.0
C893 C 0.79653 0.61084 0.16466 0.0
C894 C 0.77066 0.57315 0.32263 0.0
C895 C 0.76536 0.57367 0.30135 0.0
C896 C 0.79702 0.57437 0.24908 0.0
C897 C 0.77406 0.59592 0.19897 0.0
C898 C 0.77699 0.59143 0.22143 0.0
C899 C 0.78826 0.58063 0.28677 0.0
C900 C 0.78347 0.58339 0.26422 0.0
H901 H 0.72086 0.58086 0.16223 0.0
H902 H 0.72596 0.57701 0.19978 0.0
H903 H 0.80466 0.5713 0.21671 0.0
H904 H 0.84332 0.58957 0.32014 0.0
H905 H 0.83452 0.59165 0.28331 0.0
C906 C 0.16877 0.80058 0.82586 0.0
C907 C 0.18948 0.8266 0.83644 0.0
C908 C 0.16126 0.80195 0.80526 0.0
C909 C 0.19213 0.84809 0.7584 0.0
H910 H 0.11545 0.78887 0.73568 0.0
C911 C 0.17118 0.83006 0.6699 0.0
C912 C 0.16221 0.80046 0.66429 0.0
C913 C 0.16979 0.83728 0.69069 0.0
C914 C 0.13687 0.80571 0.74182 0.0
H915 H 0.21724 0.87477 0.83405 0.0
H916 H 0.20371 0.87733 0.79788 0.0
H917 H 0.12159 0.79558 0.77324 0.0
H918 H 0.14369 0.75505 0.67545 0.0
H919 H 0.14035 0.76739 0.71169 0.0
H920 H 0.20743 0.85773 0.72687 0.0
C921 C 0.19373 0.85574 0.80551 0.0
C922 C 0.14049 0.80948 0.76333 0.0
C923 C 0.20131 0.85434 0.82625 0.0
C924 C 0.15042 0.77795 0.67947 0.0
C925 C 0.14849 0.78504 0.70014 0.0
C926 C 0.18836 0.84457 0.73686 0.0
C927 C 0.17402 0.82944 0.79464 0.0
C928 C 0.16852 0.82983 0.77193 0.0
C929 C 0.1589 0.81488 0.70605 0.0
C930 C 0.16102 0.82258 0.72842 0.0
H931 H 0.1588 0.77891 0.8334 0.0
H932 H 0.14635 0.78115 0.79744 0.0
H933 H 0.21408 0.8638 0.7644 0.0
H934 H 0.1807 0.84778 0.65841 0.0
H935 H 0.17795 0.86043 0.69486 0.0
C936 C 0.27754 0.91699 0.93747 0.0
C937 C 0.25803 0.88885 0.94627 0.0
C938 C 0.28707 0.94325 0.94879 0.0
C939 C 0.27172 0.97561 0.99551 0.0
H940 H 0.35534 0.03597 0.98908 0.0
C941 C 0.33606 0.07403 0.05256 0.0
C942 C 0.35881 0.10163 0.04485 0.0
C943 C 0.32045 0.04955 0.03935 0.0
C944 C 0.33181 0.01965 0.99079 0.0
H945 H 0.23256 0.8664 0.97384 0.0
H946 H 0.24978 0.91259 0.99397 0.0
H947 H 0.33491 0.98978 0.96931 0.0
H948 H 0.38184 0.12567 0.01699 0.0
H949 H 0.35441 0.08277 0.99373 0.0
H950 H 0.26901 1.00544 0.01746 0.0
C951 C 0.25741 0.9142 0.9781 0.0
C952 C 0.32005 0.99302 0.97948 0.0
C953 C 0.24762 0.88771 0.96663 0.0
C954 C 0.3644 0.10473 0.02338 0.0
C955 C 0.34889 0.08006 0.01012 0.0
C956 C 0.28356 1.00229 0.00692 0.0
C957 C 0.27766 0.9423 0.96939 0.0
C958 C 0.28985 0.97059 0.98166 0.0
C959 C 0.3273 0.05195 0.01807 0.0
C960 C 0.31381 0.02461 0.00476 0.0
H961 H 0.2857 0.91888 0.92172 0.0
H962 H 0.30198 0.9644 0.94132 0.0
H963 H 0.24831 0.95904 0.99741 0.0
H964 H 0.33109 0.07094 0.06903 0.0
H965 H 0.30416 0.0283 0.04607 0.0
C966 C 0.27052 0.36974 0.54289 0.0
C967 C 0.28888 0.3938 0.55601 0.0
C968 C 0.2811 0.35192 0.53418 0.0
C969 C 0.35043 0.35058 0.52143 0.0
H970 H 0.29683 0.26474 0.51935 0.0
C971 C 0.38789 0.27084 0.48662 0.0
C972 C 0.36759 0.25036 0.47217 0.0
C973 C 0.37907 0.28668 0.49987 0.0
C974 C 0.31208 0.28867 0.51976 0.0
H975 H 0.33309 0.41838 0.56979 0.0
H976 H 0.35147 0.38734 0.5546 0.0
H977 H 0.28004 0.29665 0.53529 0.0
H978 H 0.32182 0.22901 0.46114 0.0
H979 H 0.3065 0.25616 0.48412 0.0
H980 H 0.38226 0.34261 0.50551 0.0
C981 C 0.32892 0.38228 0.55099 0.0
C982 C 0.30239 0.30699 0.52882 0.0
C983 C 0.31831 0.40003 0.55977 0.0
C984 C 0.33798 0.24468 0.47211 0.0
C985 C 0.32914 0.26019 0.48539 0.0
C986 C 0.36011 0.33223 0.51232 0.0
C987 C 0.31034 0.35778 0.53829 0.0
C988 C 0.32126 0.33823 0.52948 0.0
C989 C 0.34973 0.282 0.49905 0.0
C990 C 0.34087 0.30108 0.51105 0.0
H991 H 0.24775 0.36429 0.53964 0.0
H992 H 0.26634 0.33353 0.52418 0.0
H993 H 0.36548 0.37455 0.52154 0.0
H994 H 0.41092 0.27584 0.48688 0.0
H995 H 0.3954 0.30311 0.51037 0.0
C996 C 0.91282 0.26743 0.02036 0.0
C997 C 0.91493 0.26172 0.04145 0.0
C998 C 0.93773 0.27722 0.00723 0.0
C999 C 0.0143 0.28653 0.00321 0.0
H1000 H 0.03101 0.35624 0.97043 0.0
C1001 C 0.13147 0.36698 0.96697 0.0
C1002 C 0.1317 0.37891 0.94727 0.0
C1003 C 0.10436 0.34984 0.97771 0.0
C1004 C 0.02659 0.33654 0.97924 0.0
H1005 H 0.94395 0.25952 0.0649 0.0
H1006 H 0.98699 0.27635 0.04218 0.0
H1007 H 0.98386 0.32928 0.98903 0.0
H1008 H 0.10338 0.38109 0.92314 0.0
H1009 H 0.0568 0.35117 0.94149 0.0
H1010 H 0.05736 0.29416 0.99356 0.0
C1011 C 0.96635 0.27342 0.03565 0.0
C1012 C 0.99941 0.32098 0.98987 0.0
C1013 C 0.94165 0.2639 0.04874 0.0
C1014 C 0.10426 0.37268 0.9384 0.0
C1015 C 0.07738 0.35556 0.949 0.0
C1016 C 0.04155 0.3021 0.99251 0.0
C1017 C 0.96509 0.28119 0.01491 0.0
C1018 C 0.99293 0.29588 0.0021 0.0
C1019 C 0.077 0.34424 0.96891 0.0
C1020 C 0.0481 0.3274 0.98043 0.0
H1021 H 0.89259 0.26607 0.01431 0.0
H1022 H 0.93587 0.2826 0.99123 0.0
H1023 H 0.00997 0.26716 0.01238 0.0
H1024 H 0.1522 0.37131 0.97421 0.0
H1025 H 0.10493 0.3416 0.99308 0.0
C1026 C 0.6237 0.91959 0.56207 0.0
C1027 C 0.62914 0.8959 0.55807 0.0
C1028 C 0.64038 0.9472 0.55212 0.0
C1029 C 0.71246 0.99426 0.52551 0.0
H1030 H 0.67396 0.0373 0.50487 0.0
C1031 C 0.76896 0.09173 0.46753 0.0
C1032 C 0.7628 0.11535 0.46829 0.0
C1033 C 0.75475 0.06741 0.48103 0.0
C1034 C 0.68518 0.02589 0.5109 0.0
H1035 H 0.65615 0.88262 0.54015 0.0
H1036 H 0.68525 0.93093 0.52262 0.0
H1037 H 0.64412 0.98909 0.52209 0.0
H1038 H 0.7379 0.1327 0.48447 0.0
H1039 H 0.71297 0.08999 0.50839 0.0
H1040 H 0.75347 0.03089 0.51418 0.0
C1041 C 0.66821 0.92814 0.53367 0.0
C1042 C 0.66803 0.99813 0.52068 0.0
C1043 C 0.65137 0.90037 0.54357 0.0
C1044 C 0.7432 0.11488 0.48362 0.0
C1045 C 0.7287 0.09027 0.49713 0.0
C1046 C 0.72961 0.02203 0.51579 0.0
C1047 C 0.66305 0.95197 0.53795 0.0
C1048 C 0.68139 0.98179 0.52788 0.0
C1049 C 0.73384 0.06592 0.49565 0.0
C1050 C 0.71615 0.03804 0.50808 0.0
H1051 H 0.60673 0.91697 0.57312 0.0
H1052 H 0.63596 0.96508 0.55593 0.0
H1053 H 0.72358 0.9826 0.53126 0.0
H1054 H 0.78402 0.09147 0.45592 0.0
H1055 H 0.75909 0.04905 0.47923 0.0
C1056 C 0.76022 0.68507 0.0476 0.0
C1057 C 0.75787 0.65835 0.0402 0.0
C1058 C 0.75056 0.70113 0.03554 0.0
C1059 C 0.72518 0.70814 0.98265 0.0
H1060 H 0.67799 0.73462 0.01349 0.0
C1061 C 0.64019 0.73309 0.94298 0.0
C1062 C 0.63746 0.75757 0.94974 0.0
C1063 C 0.65822 0.72448 0.95363 0.0
C1064 C 0.69149 0.72785 0.00466 0.0
H1065 H 0.74505 0.62835 0.01386 0.0
H1066 H 0.72774 0.65623 0.99274 0.0
H1067 H 0.70433 0.71354 0.032 0.0
H1068 H 0.65172 0.79219 0.97317 0.0
H1069 H 0.68332 0.77692 0.99201 0.0
H1070 H 0.71159 0.7218 0.95525 0.0
C1071 C 0.73741 0.66501 0.00783 0.0
C1072 C 0.70667 0.71574 0.01527 0.0
C1073 C 0.74739 0.64902 0.01989 0.0
C1074 C 0.65326 0.77321 0.96758 0.0
C1075 C 0.6713 0.76442 0.97837 0.0
C1076 C 0.70992 0.72019 0.97203 0.0
C1077 C 0.73794 0.69074 0.01581 0.0
C1078 C 0.72347 0.70541 0.00441 0.0
C1079 C 0.67407 0.73998 0.97143 0.0
C1080 C 0.69253 0.7298 0.98288 0.0
H1081 H 0.76846 0.69297 0.06313 0.0
H1082 H 0.75212 0.72125 0.04199 0.0
H1083 H 0.73824 0.70088 0.97378 0.0
H1084 H 0.62835 0.72037 0.92936 0.0
H1085 H 0.6593 0.70523 0.94806 0.0
C1086 C 0.89986 0.64342 0.47775 0.0
C1087 C 0.89711 0.66056 0.46185 0.0
C1088 C 0.92578 0.65555 0.49008 0.0
C1089 C 1.00582 0.71435 0.48766 0.0
H1090 H 1.00583 0.6959 0.546 0.0
C1091 C 0.11495 0.76274 0.53784 0.0
C1092 C 0.11603 0.74267 0.55212 0.0
C1093 C 0.08841 0.75473 0.52682 0.0
C1094 C 1.00628 0.70111 0.52965 0.0
H1095 H 0.91839 0.7044 0.44736 0.0
H1096 H 0.96296 0.72556 0.46898 0.0
H1097 H 0.9584 0.67804 0.52793 0.0
H1098 H 0.09061 0.69791 0.56511 0.0
H1099 H 0.04528 0.68405 0.54591 0.0
H1100 H 0.05374 0.73705 0.48934 0.0
C1101 C 0.94565 0.70258 0.47165 0.0
C1102 C 0.97902 0.69082 0.5193 0.0
C1103 C 0.91992 0.6905 0.45937 0.0
C1104 C 0.09052 0.7142 0.55452 0.0
C1105 C 0.0643 0.70625 0.54358 0.0
C1106 C 0.03312 0.7246 0.49802 0.0
C1107 C 0.94939 0.68504 0.48674 0.0
C1108 C 0.97839 0.69705 0.49811 0.0
C1109 C 0.06258 0.72651 0.52989 0.0
C1110 C 0.03372 0.71776 0.51909 0.0
H1111 H 0.88283 0.62021 0.4799 0.0
H1112 H 0.92793 0.64132 0.50151 0.0
H1113 H 1.00626 0.71926 0.47126 0.0
H1114 H 0.13419 0.78484 0.53567 0.0
H1115 H 0.08787 0.77089 0.51635 0.0
C1116 C 0.7676 0.10127 0.0643 0.0
C1117 C 0.783 0.12828 0.05308 0.0
C1118 C 0.75741 0.07369 0.05448 0.0
C1119 C 0.76758 0.03717 0.00863 0.0
H1120 H 0.68398 0.97796 0.01674 0.0
C1121 C 0.70364 0.93853 0.95255 0.0
C1122 C 0.67912 0.91166 0.95965 0.0
C1123 C 0.71898 0.96286 0.96588 0.0
C1124 C 0.70753 0.99385 0.0146 0.0
H1125 H 0.80048 0.147 0.02261 0.0
H1126 H 0.78324 0.09887 0.00565 0.0
H1127 H 0.70597 0.0247 0.03613 0.0
H1128 H 0.65272 0.88873 0.98679 0.0
H1129 H 0.6802 0.93096 0.0104 0.0
H1130 H 0.76933 0.00641 0.9872 0.0
C1131 C 0.77903 0.09923 0.02211 0.0
C1132 C 0.72009 0.02078 0.02566 0.0
C1133 C 0.78896 0.12688 0.03188 0.0
C1134 C 0.6715 0.90908 0.98082 0.0
C1135 C 0.68704 0.93348 0.99427 0.0
C1136 C 0.75514 0.01008 0.99776 0.0
C1137 C 0.76269 0.07233 0.03323 0.0
C1138 C 0.7501 0.04294 0.02253 0.0
C1139 C 0.7105 0.96098 0.98683 0.0
C1140 C 0.72475 0.98827 0.00026 0.0
H1141 H 0.76316 0.10126 0.08072 0.0
H1142 H 0.7453 0.05335 0.06353 0.0
H1143 H 0.79089 0.05365 0.00613 0.0
H1144 H 0.71047 0.94112 0.93643 0.0
H1145 H 0.73665 0.98358 0.95942 0.0
C1146 C 0.75981 0.67761 0.43464 0.0
C1147 C 0.78418 0.6758 0.44264 0.0
C1148 C 0.74668 0.69102 0.44612 0.0
C1149 C 0.74318 0.71727 0.49963 0.0
H1150 H 0.71132 0.76119 0.47051 0.0
C1151 C 0.71209 0.79554 0.5421 0.0
C1152 C 0.68243 0.78925 0.53944 0.0
C1153 C 0.72428 0.78281 0.52907 0.0
C1154 C 0.71998 0.74884 0.47879 0.0
H1155 H 0.81398 0.68655 0.46885 0.0
H1156 H 0.79199 0.71113 0.48872 0.0
H1157 H 0.73345 0.73669 0.45076 0.0
H1158 H 0.64306 0.76616 0.51996 0.0
H1159 H 0.66492 0.74458 0.49662 0.0
H1160 H 0.73062 0.73053 0.52767 0.0
C1161 C 0.78229 0.70142 0.47382 0.0
C1162 C 0.73254 0.73461 0.46752 0.0
C1163 C 0.79506 0.68747 0.46244 0.0
C1164 C 0.66599 0.7716 0.5224 0.0
C1165 C 0.67841 0.75911 0.50911 0.0
C1166 C 0.73112 0.73194 0.51086 0.0
C1167 C 0.75791 0.70347 0.46579 0.0
C1168 C 0.74436 0.7186 0.47778 0.0
C1169 C 0.70734 0.76385 0.51279 0.0
C1170 C 0.71947 0.74791 0.50058 0.0
H1171 H 0.75067 0.6683 0.41954 0.0
H1172 H 0.72753 0.69134 0.43956 0.0
H1173 H 0.75131 0.70466 0.50815 0.0
H1174 H 0.72564 0.80961 0.55474 0.0
H1175 H 0.74683 0.78731 0.53198 0.0
C1176 C 0.88691 0.6609 0.02699 0.0
C1177 C 0.88638 0.65147 0.0476 0.0
C1178 C 0.91406 0.67816 0.01655 0.0
C1179 C 0.9969 0.72427 0.02449 0.0
H1180 H 0.99876 0.70581 0.96633 0.0
C1181 C 0.10574 0.76194 0.97557 0.0
C1182 C 0.10503 0.7705 0.95493 0.0
C1183 C 0.08016 0.75093 0.98818 0.0
C1184 C 0.99857 0.71149 0.98251 0.0
H1185 H 0.91468 0.6544 0.07353 0.0
H1186 H 0.96161 0.68323 0.05513 0.0
H1187 H 0.95202 0.67974 0.98547 0.0
H1188 H 0.07791 0.7767 0.93196 0.0
H1189 H 0.03354 0.75757 0.95378 0.0
H1190 H 0.04396 0.75549 0.02143 0.0
C1191 C 0.94104 0.67763 0.04708 0.0
C1192 C 0.97168 0.6966 0.99351 0.0
C1193 C 0.91391 0.6606 0.05759 0.0
C1194 C 0.07894 0.76967 0.94764 0.0
C1195 C 0.05351 0.75866 0.96013 0.0
C1196 C 0.02397 0.739 0.01348 0.0
C1197 C 0.94152 0.68633 0.02631 0.0
C1198 C 0.97036 0.70281 0.01464 0.0
C1199 C 0.05347 0.74828 0.98031 0.0
C1200 C 0.02504 0.73288 0.99233 0.0
H1201 H 0.8664 0.65444 0.01864 0.0
H1202 H 0.91346 0.68493 0.00071 0.0
H1203 H 0.99677 0.72995 0.04066 0.0
H1204 H 0.12545 0.76217 0.98158 0.0
H1205 H 0.0808 0.74308 0.00368 0.0
C1206 C 0.24633 0.92491 0.56165 0.0
C1207 C 0.23978 0.89741 0.55268 0.0
C1208 C 0.25719 0.95077 0.54958 0.0
C1209 C 0.26317 0.97912 0.49633 0.0
H1210 H 0.33246 0.05012 0.51795 0.0
C1211 C 0.32763 0.08555 0.44646 0.0
C1212 C 0.33917 0.11362 0.4561 0.0
C1213 C 0.31567 0.05931 0.45822 0.0
C1214 C 0.31286 0.0307 0.51179 0.0
H1215 H 0.23829 0.87546 0.52364 0.0
H1216 H 0.25682 0.92074 0.50237 0.0
H1217 H 0.31007 1.00386 0.53804 0.0
H1218 H 0.34754 0.13618 0.48573 0.0
H1219 H 0.32599 0.09022 0.50646 0.0
H1220 H 0.2655 1.00594 0.47027 0.0
C1221 C 0.25365 0.92214 0.51888 0.0
C1222 C 0.30008 1.00411 0.52329 0.0
C1223 C 0.24293 0.89617 0.53105 0.0
C1224 C 0.33896 0.11488 0.47789 0.0
C1225 C 0.32665 0.0885 0.48973 0.0
C1226 C 0.27577 1.0058 0.48491 0.0
C1227 C 0.26155 0.94986 0.52812 0.0
C1228 C 0.2751 0.978 0.5157 0.0
C1229 C 0.31461 0.0603 0.48002 0.0
C1230 C 0.30088 0.03197 0.49243 0.0
H1231 H 0.24348 0.92659 0.57816 0.0
H1232 H 0.26238 0.9716 0.55709 0.0
H1233 H 0.24373 0.95949 0.49018 0.0
H1234 H 0.32808 0.08388 0.42971 0.0
H1235 H 0.30745 0.03822 0.45015 0.0
C1236 C 0.24931 0.31615 0.95285 0.0
C1237 C 0.24634 0.34029 0.95998 0.0
C1238 C 0.25794 0.3006 0.96629 0.0
C1239 C 0.29829 0.31079 0.01586 0.0
H1240 H 0.27539 0.22772 0.00666 0.0
C1241 C 0.34412 0.24962 0.06612 0.0
C1242 C 0.35598 0.23433 0.05506 0.0
C1243 C 0.32712 0.2601 0.05605 0.0
C1244 C 0.28204 0.25095 0.00937 0.0
H1245 H 0.2484 0.36582 0.98725 0.0
H1246 H 0.26261 0.338 0.01104 0.0
H1247 H 0.25042 0.2497 0.98734 0.0
H1248 H 0.35811 0.21742 0.02459 0.0
H1249 H 0.32791 0.23516 0.0072 0.0
H1250 H 0.32983 0.31185 0.03798 0.0
C1251 C 0.259 0.33161 0.99482 0.0
C1252 C 0.26779 0.26364 0.99827 0.0
C1253 C 0.25046 0.34734 0.98125 0.0
C1254 C 0.34928 0.22881 0.03375 0.0
C1255 C 0.33196 0.23904 0.02373 0.0
C1256 C 0.31226 0.29798 0.02714 0.0
C1257 C 0.26359 0.30849 0.98739 0.0
C1258 C 0.27614 0.29393 0.00102 0.0
C1259 C 0.32113 0.25524 0.0347 0.0
C1260 C 0.30468 0.26808 0.02375 0.0
H1261 H 0.2458 0.30977 0.93663 0.0
H1262 H 0.26146 0.28322 0.95983 0.0
H1263 H 0.30575 0.33427 0.01822 0.0
H1264 H 0.34807 0.25374 0.0826 0.0
H1265 H 0.31868 0.27209 0.065 0.0
C1266 C 0.10879 0.34894 0.5314 0.0
C1267 C 0.11552 0.33381 0.54668 0.0
C1268 C 0.08026 0.33574 0.52255 0.0
C1269 C 0.01072 0.2616 0.51619 0.0
H1270 H 0.97978 0.31116 0.49489 0.0
C1271 C 0.89304 0.21472 0.47821 0.0
C1272 C 0.89522 0.22473 0.45766 0.0
C1273 C 0.91796 0.22825 0.4914 0.0
C1274 C 0.98812 0.29708 0.5009 0.0
H1275 H 0.09759 0.2935 0.56523 0.0
H1276 H 0.04735 0.27082 0.55054 0.0
H1277 H 0.02677 0.33427 0.51412 0.0
H1278 H 0.92426 0.25729 0.43497 0.0
H1279 H 0.96752 0.28161 0.45818 0.0
H1280 H 0.97148 0.22439 0.50316 0.0
C1281 C 0.06427 0.29244 0.54474 0.0
C1282 C 0.01521 0.3103 0.51174 0.0
C1283 C 0.09301 0.30545 0.55327 0.0
C1284 C 0.92222 0.24912 0.45073 0.0
C1285 C 0.94681 0.26308 0.46401 0.0
C1286 C 0.9833 0.24835 0.50572 0.0
C1287 C 0.05752 0.30726 0.52908 0.0
C1288 C 0.0273 0.29285 0.51914 0.0
C1289 C 0.94507 0.2525 0.48435 0.0
C1290 C 0.9721 0.26605 0.49762 0.0
H1291 H 0.12588 0.37068 0.52586 0.0
H1292 H 0.07636 0.34767 0.51023 0.0
H1293 H 0.01933 0.24735 0.52129 0.0
H1294 H 0.8724 0.19586 0.48378 0.0
H1295 H 0.91615 0.21975 0.50705 0.0
loop_
_geom_bond_atom_site_label_1
_geom_bond_atom_site_label_2
_geom_bond_distance
_geom_bond_site_symmetry_2
_ccdc_geom_bond_type
C0 C1 1.351 . S
C0 N3 1.368 . S
C0 H5 0.931 . S
C1 C0 1.351 . S
C1 N2 1.373 . S
C1 H29 0.930 . S
N2 C1 1.373 . S
N2 C4 1.340 . S
N3 C0 1.368 . S
N3 C4 1.321 . S
N3 Co6 2.135 . S
C4 N2 1.340 . S
C4 N3 1.321 . S
C4 H28 0.930 . S
H5 C0 0.931 . S
Co6 N3 2.135 . S
Co6 N9 2.121 . S
Co6 O14 2.055 . S
Co6 O17 2.039 . S
Co6 N20 2.140 . S
C7 O8 1.227 . S
C7 O17 1.265 . S
O8 C7 1.227 . S
N9 Co6 2.121 . S
N9 C11 1.375 . S
N9 C12 1.313 . S
C10 C11 1.338 . S
C10 N13 1.377 . S
C10 H30 0.930 . S
C11 N9 1.375 . S
C11 C10 1.338 . S
C11 H15 0.931 . S
C12 N9 1.313 . S
C12 N13 1.344 . S
C12 H16 0.930 . S
N13 C10 1.377 . S
N13 C12 1.344 . S
O14 Co6 2.055 . S
O14 C18 1.253 . S
H15 C11 0.931 . S
H16 C12 0.930 . S
O17 Co6 2.039 . S
O17 C7 1.265 . S
C18 O14 1.253 . S
C18 O19 1.227 . S
O19 C18 1.227 . S
N20 Co6 2.140 . S
N20 C23 1.346 . S
N20 C24 1.345 . S
C21 C22 1.387 . S
C21 C25 1.391 . S
C22 C21 1.387 . S
C22 C23 1.369 . S
C22 H31 0.929 . S
C23 N20 1.346 . S
C23 C22 1.369 . S
C23 H26 0.928 . S
C24 N20 1.345 . S
C24 C25 1.371 . S
C24 H27 0.931 . S
C25 C21 1.391 . S
C25 C24 1.371 . S
C25 H32 0.930 . S
H26 C23 0.928 . S
H27 C24 0.931 . S
H28 C4 0.930 . S
H29 C1 0.930 . S
H30 C10 0.930 . S
H31 C22 0.929 . S
H32 C25 0.930 . S
C33 C34 1.351 . S
C33 N36 1.368 . S
C33 H38 0.931 . S
C34 C33 1.351 . S
C34 N35 1.373 . S
C34 H62 0.930 . S
N35 C34 1.373 . S
N35 C37 1.340 . S
N36 C33 1.368 . S
N36 C37 1.321 . S
N36 Co39 2.135 . S
C37 N35 1.340 . S
C37 N36 1.321 . S
C37 H61 0.930 . S
H38 C33 0.931 . S
Co39 N36 2.135 . S
Co39 N42 2.121 . S
Co39 O47 2.055 . S
Co39 O50 2.039 . S
Co39 N53 2.140 . S
C40 O41 1.227 . S
C40 O50 1.265 . S
O41 C40 1.227 . S
N42 Co39 2.121 . S
N42 C44 1.375 . S
N42 C45 1.313 . S
C43 C44 1.338 . S
C43 N46 1.377 . S
C43 H63 0.930 . S
C44 N42 1.375 . S
C44 C43 1.338 . S
C44 H48 0.931 . S
C45 N42 1.313 . S
C45 N46 1.344 . S
C45 H49 0.930 . S
N46 C43 1.377 . S
N46 C45 1.344 . S
O47 Co39 2.055 . S
O47 C51 1.253 . S
H48 C44 0.931 . S
H49 C45 0.930 . S
O50 Co39 2.039 . S
O50 C40 1.265 . S
C51 O47 1.253 . S
C51 O52 1.227 . S
O52 C51 1.227 . S
N53 Co39 2.140 . S
N53 C56 1.346 . S
N53 C57 1.345 . S
C54 C55 1.387 . S
C54 C58 1.391 . S
C55 C54 1.387 . S
C55 C56 1.369 . S
C55 H64 0.929 . S
C56 N53 1.346 . S
C56 C55 1.369 . S
C56 H59 0.928 . S
C57 N53 1.345 . S
C57 C58 1.371 . S
C57 H60 0.931 . S
C58 C54 1.391 . S
C58 C57 1.371 . S
C58 H65 0.930 . S
H59 C56 0.928 . S
H60 C57 0.931 . S
H61 C37 0.930 . S
H62 C34 0.930 . S
H63 C43 0.930 . S
H64 C55 0.929 . S
H65 C58 0.930 . S
C66 C67 1.351 . S
C66 N69 1.368 . S
C66 H71 0.931 . S
C67 C66 1.351 . S
C67 N68 1.373 . S
C67 H95 0.930 . S
N68 C67 1.373 . S
N68 C70 1.340 . S
N69 C66 1.368 . S
N69 C70 1.321 . S
N69 Co72 2.135 . S
C70 N68 1.340 . S
C70 N69 1.321 . S
C70 H94 0.930 . S
H71 C66 0.931 . S
Co72 N69 2.135 . S
Co72 N75 2.121 . S
Co72 O80 2.055 . S
Co72 O83 2.039 . S
Co72 N86 2.140 . S
C73 O74 1.227 . S
C73 O83 1.265 . S
O74 C73 1.227 . S
N75 Co72 2.121 . S
N75 C77 1.375 . S
N75 C78 1.313 . S
C76 C77 1.338 . S
C76 N79 1.377 . S
C76 H96 0.930 . S
C77 N75 1.375 . S
C77 C76 1.338 . S
C77 H81 0.931 . S
C78 N75 1.313 . S
C78 N79 1.344 . S
C78 H82 0.930 . S
N79 C76 1.377 . S
N79 C78 1.344 . S
O80 Co72 2.055 . S
O80 C84 1.253 . S
H81 C77 0.931 . S
H82 C78 0.930 . S
O83 Co72 2.039 . S
O83 C73 1.265 . S
C84 O80 1.253 . S
C84 O85 1.227 . S
O85 C84 1.227 . S
N86 Co72 2.140 . S
N86 C89 1.346 . S
N86 C90 1.345 . S
C87 C88 1.387 . S
C87 C91 1.391 . S
C88 C87 1.387 . S
C88 C89 1.369 . S
C88 H97 0.929 . S
C89 N86 1.346 . S
C89 C88 1.369 . S
C89 H92 0.928 . S
C90 N86 1.345 . S
C90 C91 1.371 . S
C90 H93 0.931 . S
C91 C87 1.391 . S
C91 C90 1.371 . S
C91 H98 0.930 . S
H92 C89 0.928 . S
H93 C90 0.931 . S
H94 C70 0.930 . S
H95 C67 0.930 . S
H96 C76 0.930 . S
H97 C88 0.929 . S
H98 C91 0.930 . S
C99 C100 1.351 . S
C99 N102 1.368 . S
C99 H104 0.931 . S
C100 C99 1.351 . S
C100 N101 1.373 . S
C100 H128 0.930 . S
N101 C100 1.373 . S
N101 C103 1.340 . S
N102 C99 1.368 . S
N102 C103 1.321 . S
N102 Co105 2.135 . S
C103 N101 1.340 . S
C103 N102 1.321 . S
C103 H127 0.930 . S
H104 C99 0.931 . S
Co105 N102 2.135 . S
Co105 N108 2.121 . S
Co105 O113 2.055 . S
Co105 O116 2.039 . S
Co105 N119 2.140 . S
C106 O107 1.227 . S
C106 O116 1.265 . S
O107 C106 1.227 . S
N108 Co105 2.121 . S
N108 C110 1.375 . S
N108 C111 1.313 . S
C109 C110 1.338 . S
C109 N112 1.377 . S
C109 H129 0.930 . S
C110 N108 1.375 . S
C110 C109 1.338 . S
C110 H114 0.931 . S
C111 N108 1.313 . S
C111 N112 1.344 . S
C111 H115 0.930 . S
N112 C109 1.377 . S
N112 C111 1.344 . S
O113 Co105 2.055 . S
O113 C117 1.253 . S
H114 C110 0.931 . S
H115 C111 0.930 . S
O116 Co105 2.039 . S
O116 C106 1.265 . S
C117 O113 1.253 . S
C117 O118 1.227 . S
O118 C117 1.227 . S
N119 Co105 2.140 . S
N119 C122 1.346 . S
N119 C123 1.345 . S
C120 C121 1.387 . S
C120 C124 1.391 . S
C121 C120 1.387 . S
C121 C122 1.369 . S
C121 H130 0.929 . S
C122 N119 1.346 . S
C122 C121 1.369 . S
C122 H125 0.928 . S
C123 N119 1.345 . S
C123 C124 1.371 . S
C123 H126 0.931 . S
C124 C120 1.391 . S
C124 C123 1.371 . S
C124 H131 0.930 . S
H125 C122 0.928 . S
H126 C123 0.931 . S
H127 C103 0.930 . S
H128 C100 0.930 . S
H129 C109 0.930 . S
H130 C121 0.929 . S
H131 C124 0.930 . S
C132 C133 1.351 . S
C132 N135 1.368 . S
C132 H137 0.931 . S
C133 C132 1.351 . S
C133 N134 1.373 . S
C133 H161 0.930 . S
N134 C133 1.373 . S
N134 C136 1.340 . S
N135 C132 1.368 . S
N135 C136 1.321 . S
N135 Co138 2.135 . S
C136 N134 1.340 . S
C136 N135 1.321 . S
C136 H160 0.930 . S
H137 C132 0.931 . S
Co138 N135 2.135 . S
Co138 N141 2.121 . S
Co138 O146 2.055 . S
Co138 O149 2.039 . S
Co138 N152 2.140 . S
C139 O140 1.227 . S
C139 O149 1.265 . S
O140 C139 1.227 . S
N141 Co138 2.121 . S
N141 C143 1.375 . S
N141 C144 1.313 . S
C142 C143 1.338 . S
C142 N145 1.377 . S
C142 H162 0.930 . S
C143 N141 1.375 . S
C143 C142 1.338 . S
C143 H147 0.931 . S
C144 N141 1.313 . S
C144 N145 1.344 . S
C144 H148 0.930 . S
N145 C142 1.377 . S
N145 C144 1.344 . S
O146 Co138 2.055 . S
O146 C150 1.253 . S
H147 C143 0.931 . S
H148 C144 0.930 . S
O149 Co138 2.039 . S
O149 C139 1.265 . S
C150 O146 1.253 . S
C150 O151 1.227 . S
O151 C150 1.227 . S
N152 Co138 2.140 . S
N152 C155 1.346 . S
N152 C156 1.345 . S
C153 C154 1.387 . S
C153 C157 1.391 . S
C154 C153 1.387 . S
C154 C155 1.369 . S
C154 H163 0.929 . S
C155 N152 1.346 . S
C155 C154 1.369 . S
C155 H158 0.928 . S
C156 N152 1.345 . S
C156 C157 1.371 . S
C156 H159 0.931 . S
C157 C153 1.391 . S
C157 C156 1.371 . S
C157 H164 0.930 . S
H158 C155 0.928 . S
H159 C156 0.931 . S
H160 C136 0.930 . S
H161 C133 0.930 . S
H162 C142 0.930 . S
H163 C154 0.929 . S
H164 C157 0.930 . S
C165 C166 1.351 . S
C165 N168 1.368 . S
C165 H170 0.931 . S
C166 C165 1.351 . S
C166 N167 1.373 . S
C166 H194 0.930 . S
N167 C166 1.373 . S
N167 C169 1.340 . S
N168 C165 1.368 . S
N168 C169 1.321 . S
N168 Co171 2.135 . S
C169 N167 1.340 . S
C169 N168 1.321 . S
C169 H193 0.930 . S
H170 C165 0.931 . S
Co171 N168 2.135 . S
Co171 N174 2.121 . S
Co171 O179 2.055 . S
Co171 O182 2.039 . S
Co171 N185 2.140 . S
C172 O173 1.227 . S
C172 O182 1.265 . S
O173 C172 1.227 . S
N174 Co171 2.121 . S
N174 C176 1.375 . S
N174 C177 1.313 . S
C175 C176 1.338 . S
C175 N178 1.377 . S
C175 H195 0.930 . S
C176 N174 1.375 . S
C176 C175 1.338 . S
C176 H180 0.931 . S
C177 N174 1.313 . S
C177 N178 1.344 . S
C177 H181 0.930 . S
N178 C175 1.377 . S
N178 C177 1.344 . S
O179 Co171 2.055 . S
O179 C183 1.253 . S
H180 C176 0.931 . S
H181 C177 0.930 . S
O182 Co171 2.039 . S
O182 C172 1.265 . S
C183 O179 1.253 . S
C183 O184 1.227 . S
O184 C183 1.227 . S
N185 Co171 2.140 . S
N185 C188 1.346 . S
N185 C189 1.345 . S
C186 C187 1.387 . S
C186 C190 1.391 . S
C187 C186 1.387 . S
C187 C188 1.369 . S
C187 H196 0.929 . S
C188 N185 1.346 . S
C188 C187 1.369 . S
C188 H191 0.928 . S
C189 N185 1.345 . S
C189 C190 1.371 . S
C189 H192 0.931 . S
C190 C186 1.391 . S
C190 C189 1.371 . S
C190 H197 0.930 . S
H191 C188 0.928 . S
H192 C189 0.931 . S
H193 C169 0.930 . S
H194 C166 0.930 . S
H195 C175 0.930 . S
H196 C187 0.929 . S
H197 C190 0.930 . S
C198 C199 1.351 . S
C198 N201 1.368 . S
C198 H203 0.931 . S
C199 C198 1.351 . S
C199 N200 1.373 . S
C199 H227 0.930 . S
N200 C199 1.373 . S
N200 C202 1.340 . S
N201 C198 1.368 . S
N201 C202 1.321 . S
N201 Co204 2.135 . S
C202 N200 1.340 . S
C202 N201 1.321 . S
C202 H226 0.930 . S
H203 C198 0.931 . S
Co204 N201 2.135 . S
Co204 N207 2.121 . S
Co204 O212 2.055 . S
Co204 O215 2.039 . S
Co204 N218 2.140 . S
C205 O206 1.227 . S
C205 O215 1.265 . S
O206 C205 1.227 . S
N207 Co204 2.121 . S
N207 C209 1.375 . S
N207 C210 1.313 . S
C208 C209 1.338 . S
C208 N211 1.377 . S
C208 H228 0.930 . S
C209 N207 1.375 . S
C209 C208 1.338 . S
C209 H213 0.931 . S
C210 N207 1.313 . S
C210 N211 1.344 . S
C210 H214 0.930 . S
N211 C208 1.377 . S
N211 C210 1.344 . S
O212 Co204 2.055 . S
O212 C216 1.253 . S
H213 C209 0.931 . S
H214 C210 0.930 . S
O215 Co204 2.039 . S
O215 C205 1.265 . S
C216 O212 1.253 . S
C216 O217 1.227 . S
O217 C216 1.227 . S
N218 Co204 2.140 . S
N218 C221 1.346 . S
N218 C222 1.345 . S
C219 C220 1.387 . S
C219 C223 1.391 . S
C220 C219 1.387 . S
C220 C221 1.369 . S
C220 H229 0.929 . S
C221 N218 1.346 . S
C221 C220 1.369 . S
C221 H224 0.928 . S
C222 N218 1.345 . S
C222 C223 1.371 . S
C222 H225 0.931 . S
C223 C219 1.391 . S
C223 C222 1.371 . S
C223 H230 0.930 . S
H224 C221 0.928 . S
H225 C222 0.931 . S
H226 C202 0.930 . S
H227 C199 0.930 . S
H228 C208 0.930 . S
H229 C220 0.929 . S
H230 C223 0.930 . S
C231 C232 1.351 . S
C231 N234 1.368 . S
C231 H236 0.931 . S
C232 C231 1.351 . S
C232 N233 1.373 . S
C232 H260 0.930 . S
N233 C232 1.373 . S
N233 C235 1.340 . S
N234 C231 1.368 . S
N234 C235 1.321 . S
N234 Co237 2.135 . S
C235 N233 1.340 . S
C235 N234 1.321 . S
C235 H259 0.930 . S
H236 C231 0.931 . S
Co237 N234 2.135 . S
Co237 N240 2.121 . S
Co237 O245 2.055 . S
Co237 O248 2.039 . S
Co237 N251 2.140 . S
C238 O239 1.227 . S
C238 O248 1.265 . S
O239 C238 1.227 . S
N240 Co237 2.121 . S
N240 C242 1.375 . S
N240 C243 1.313 . S
C241 C242 1.338 . S
C241 N244 1.377 . S
C241 H261 0.930 . S
C242 N240 1.375 . S
C242 C241 1.338 . S
C242 H246 0.931 . S
C243 N240 1.313 . S
C243 N244 1.344 . S
C243 H247 0.930 . S
N244 C241 1.377 . S
N244 C243 1.344 . S
O245 Co237 2.055 . S
O245 C249 1.253 . S
H246 C242 0.931 . S
H247 C243 0.930 . S
O248 Co237 2.039 . S
O248 C238 1.265 . S
C249 O245 1.253 . S
C249 O250 1.227 . S
O250 C249 1.227 . S
N251 Co237 2.140 . S
N251 C254 1.346 . S
N251 C255 1.345 . S
C252 C253 1.387 . S
C252 C256 1.391 . S
C253 C252 1.387 . S
C253 C254 1.369 . S
C253 H262 0.929 . S
C254 N251 1.346 . S
C254 C253 1.369 . S
C254 H257 0.928 . S
C255 N251 1.345 . S
C255 C256 1.371 . S
C255 H258 0.931 . S
C256 C252 1.391 . S
C256 C255 1.371 . S
C256 H263 0.930 . S
H257 C254 0.928 . S
H258 C255 0.931 . S
H259 C235 0.930 . S
H260 C232 0.930 . S
H261 C241 0.930 . S
H262 C253 0.929 . S
H263 C256 0.930 . S
C264 C265 1.351 . S
C264 N267 1.368 . S
C264 H269 0.931 . S
C265 C264 1.351 . S
C265 N266 1.373 . S
C265 H293 0.930 . S
N266 C265 1.373 . S
N266 C268 1.340 . S
N267 C264 1.368 . S
N267 C268 1.321 . S
N267 Co270 2.135 . S
C268 N266 1.340 . S
C268 N267 1.321 . S
C268 H292 0.930 . S
H269 C264 0.931 . S
Co270 N267 2.135 . S
Co270 N273 2.121 . S
Co270 O278 2.055 . S
Co270 O281 2.039 . S
Co270 N284 2.140 . S
C271 O272 1.227 . S
C271 O281 1.265 . S
O272 C271 1.227 . S
N273 Co270 2.121 . S
N273 C275 1.375 . S
N273 C276 1.313 . S
C274 C275 1.338 . S
C274 N277 1.377 . S
C274 H294 0.930 . S
C275 N273 1.375 . S
C275 C274 1.338 . S
C275 H279 0.931 . S
C276 N273 1.313 . S
C276 N277 1.344 . S
C276 H280 0.930 . S
N277 C274 1.377 . S
N277 C276 1.344 . S
O278 Co270 2.055 . S
O278 C282 1.253 . S
H279 C275 0.931 . S
H280 C276 0.930 . S
O281 Co270 2.039 . S
O281 C271 1.265 . S
C282 O278 1.253 . S
C282 O283 1.227 . S
O283 C282 1.227 . S
N284 Co270 2.140 . S
N284 C287 1.346 . S
N284 C288 1.345 . S
C285 C286 1.387 . S
C285 C289 1.391 . S
C286 C285 1.387 . S
C286 C287 1.369 . S
C286 H295 0.929 . S
C287 N284 1.346 . S
C287 C286 1.369 . S
C287 H290 0.928 . S
C288 N284 1.345 . S
C288 C289 1.371 . S
C288 H291 0.931 . S
C289 C285 1.391 . S
C289 C288 1.371 . S
C289 H296 0.930 . S
H290 C287 0.928 . S
H291 C288 0.931 . S
H292 C268 0.930 . S
H293 C265 0.930 . S
H294 C274 0.930 . S
H295 C286 0.929 . S
H296 C289 0.930 . S
C297 C298 1.351 . S
C297 N300 1.368 . S
C297 H302 0.931 . S
C298 C297 1.351 . S
C298 N299 1.373 . S
C298 H326 0.930 . S
N299 C298 1.373 . S
N299 C301 1.340 . S
N300 C297 1.368 . S
N300 C301 1.321 . S
N300 Co303 2.135 . S
C301 N299 1.340 . S
C301 N300 1.321 . S
C301 H325 0.930 . S
H302 C297 0.931 . S
Co303 N300 2.135 . S
Co303 N306 2.121 . S
Co303 O311 2.055 . S
Co303 O314 2.039 . S
Co303 N317 2.140 . S
C304 O305 1.227 . S
C304 O314 1.265 . S
O305 C304 1.227 . S
N306 Co303 2.121 . S
N306 C308 1.375 . S
N306 C309 1.313 . S
C307 C308 1.338 . S
C307 N310 1.377 . S
C307 H327 0.930 . S
C308 N306 1.375 . S
C308 C307 1.338 . S
C308 H312 0.931 . S
C309 N306 1.313 . S
C309 N310 1.344 . S
C309 H313 0.930 . S
N310 C307 1.377 . S
N310 C309 1.344 . S
O311 Co303 2.055 . S
O311 C315 1.253 . S
H312 C308 0.931 . S
H313 C309 0.930 . S
O314 Co303 2.039 . S
O314 C304 1.265 . S
C315 O311 1.253 . S
C315 O316 1.227 . S
O316 C315 1.227 . S
N317 Co303 2.140 . S
N317 C320 1.346 . S
N317 C321 1.345 . S
C318 C319 1.387 . S
C318 C322 1.391 . S
C319 C318 1.387 . S
C319 C320 1.369 . S
C319 H328 0.929 . S
C320 N317 1.346 . S
C320 C319 1.369 . S
C320 H323 0.928 . S
C321 N317 1.345 . S
C321 C322 1.371 . S
C321 H324 0.931 . S
C322 C318 1.391 . S
C322 C321 1.371 . S
C322 H329 0.930 . S
H323 C320 0.928 . S
H324 C321 0.931 . S
H325 C301 0.930 . S
H326 C298 0.930 . S
H327 C307 0.930 . S
H328 C319 0.929 . S
H329 C322 0.930 . S
C330 C331 1.351 . S
C330 N333 1.368 . S
C330 H335 0.931 . S
C331 C330 1.351 . S
C331 N332 1.373 . S
C331 H359 0.930 . S
N332 C331 1.373 . S
N332 C334 1.340 . S
N333 C330 1.368 . S
N333 C334 1.321 . S
N333 Co336 2.135 . S
C334 N332 1.340 . S
C334 N333 1.321 . S
C334 H358 0.930 . S
H335 C330 0.931 . S
Co336 N333 2.135 . S
Co336 N339 2.121 . S
Co336 O344 2.055 . S
Co336 O347 2.039 . S
Co336 N350 2.140 . S
C337 O338 1.227 . S
C337 O347 1.265 . S
O338 C337 1.227 . S
N339 Co336 2.121 . S
N339 C341 1.375 . S
N339 C342 1.313 . S
C340 C341 1.338 . S
C340 N343 1.377 . S
C340 H360 0.930 . S
C341 N339 1.375 . S
C341 C340 1.338 . S
C341 H345 0.931 . S
C342 N339 1.313 . S
C342 N343 1.344 . S
C342 H346 0.930 . S
N343 C340 1.377 . S
N343 C342 1.344 . S
O344 Co336 2.055 . S
O344 C348 1.253 . S
H345 C341 0.931 . S
H346 C342 0.930 . S
O347 Co336 2.039 . S
O347 C337 1.265 . S
C348 O344 1.253 . S
C348 O349 1.227 . S
O349 C348 1.227 . S
N350 Co336 2.140 . S
N350 C353 1.346 . S
N350 C354 1.345 . S
C351 C352 1.387 . S
C351 C355 1.391 . S
C352 C351 1.387 . S
C352 C353 1.369 . S
C352 H361 0.929 . S
C353 N350 1.346 . S
C353 C352 1.369 . S
C353 H356 0.928 . S
C354 N350 1.345 . S
C354 C355 1.371 . S
C354 H357 0.931 . S
C355 C351 1.391 . S
C355 C354 1.371 . S
C355 H362 0.930 . S
H356 C353 0.928 . S
H357 C354 0.931 . S
H358 C334 0.930 . S
H359 C331 0.930 . S
H360 C340 0.930 . S
H361 C352 0.929 . S
H362 C355 0.930 . S
C363 C364 1.351 . S
C363 N366 1.368 . S
C363 H368 0.931 . S
C364 C363 1.351 . S
C364 N365 1.373 . S
C364 H392 0.930 . S
N365 C364 1.373 . S
N365 C367 1.340 . S
N366 C363 1.368 . S
N366 C367 1.321 . S
N366 Co369 2.135 . S
C367 N365 1.340 . S
C367 N366 1.321 . S
C367 H391 0.930 . S
H368 C363 0.931 . S
Co369 N366 2.135 . S
Co369 N372 2.121 . S
Co369 O377 2.055 . S
Co369 O380 2.039 . S
Co369 N383 2.140 . S
C370 O371 1.227 . S
C370 O380 1.265 . S
O371 C370 1.227 . S
N372 Co369 2.121 . S
N372 C374 1.375 . S
N372 C375 1.313 . S
C373 C374 1.338 . S
C373 N376 1.377 . S
C373 H393 0.930 . S
C374 N372 1.375 . S
C374 C373 1.338 . S
C374 H378 0.931 . S
C375 N372 1.313 . S
C375 N376 1.344 . S
C375 H379 0.930 . S
N376 C373 1.377 . S
N376 C375 1.344 . S
O377 Co369 2.055 . S
O377 C381 1.253 . S
H378 C374 0.931 . S
H379 C375 0.930 . S
O380 Co369 2.039 . S
O380 C370 1.265 . S
C381 O377 1.253 . S
C381 O382 1.227 . S
O382 C381 1.227 . S
N383 Co369 2.140 . S
N383 C386 1.346 . S
N383 C387 1.345 . S
C384 C385 1.387 . S
C384 C388 1.391 . S
C385 C384 1.387 . S
C385 C386 1.369 . S
C385 H394 0.929 . S
C386 N383 1.346 . S
C386 C385 1.369 . S
C386 H389 0.928 . S
C387 N383 1.345 . S
C387 C388 1.371 . S
C387 H390 0.931 . S
C388 C384 1.391 . S
C388 C387 1.371 . S
C388 H395 0.930 . S
H389 C386 0.928 . S
H390 C387 0.931 . S
H391 C367 0.930 . S
H392 C364 0.930 . S
H393 C373 0.930 . S
H394 C385 0.929 . S
H395 C388 0.930 . S
C396 C397 1.349 . S
C396 C398 1.327 . S
C396 H421 0.950 . S
C397 C396 1.349 . S
C397 C413 1.349 . S
C398 C396 1.327 . S
C398 C417 1.429 . S
C398 H422 0.950 . S
C399 C416 1.574 . S
C399 C418 1.368 . S
C399 H423 0.949 . S
H400 C404 0.949 . S
C401 C402 1.349 . S
C401 C403 1.327 . S
C401 H424 0.950 . S
C402 C401 1.349 . S
C402 C414 1.349 . S
C403 C401 1.327 . S
C403 C419 1.429 . S
C403 H425 0.950 . S
C404 H400 0.949 . S
C404 C412 1.574 . S
C404 C420 1.368 . S
H405 C413 0.950 . S
H406 C411 0.950 . S
H407 C412 0.949 . S
H408 C414 0.950 . S
H409 C415 0.950 . S
H410 C416 0.949 . S
C411 H406 0.950 . S
C411 C413 1.327 . S
C411 C417 1.429 . S
C412 C404 1.574 . S
C412 H407 0.949 . S
C412 C418 1.368 . S
C413 C397 1.349 . S
C413 H405 0.950 . S
C413 C411 1.327 . S
C414 C402 1.349 . S
C414 H408 0.950 . S
C414 C415 1.327 . S
C415 H409 0.950 . S
C415 C414 1.327 . S
C415 C419 1.429 . S
C416 C399 1.574 . S
C416 H410 0.949 . S
C416 C420 1.368 . S
C417 C398 1.429 . S
C417 C411 1.429 . S
C417 C418 1.523 . S
C418 C399 1.368 . S
C418 C412 1.368 . S
C418 C417 1.523 . S
C419 C403 1.429 . S
C419 C415 1.429 . S
C419 C420 1.523 . S
C420 C404 1.368 . S
C420 C416 1.368 . S
C420 C419 1.523 . S
H421 C396 0.950 . S
H422 C398 0.950 . S
H423 C399 0.949 . S
H424 C401 0.950 . S
H425 C403 0.950 . S
C426 C427 1.349 . S
C426 C428 1.327 . S
C426 H451 0.950 . S
C427 C426 1.349 . S
C427 C443 1.349 . S
C428 C426 1.327 . S
C428 C447 1.429 . S
C428 H452 0.950 . S
C429 C446 1.574 . S
C429 C448 1.368 . S
C429 H453 0.949 . S
H430 C434 0.949 . S
C431 C432 1.349 . S
C431 C433 1.327 . S
C431 H454 0.950 . S
C432 C431 1.349 . S
C432 C444 1.349 . S
C433 C431 1.327 . S
C433 C449 1.429 . S
C433 H455 0.950 . S
C434 H430 0.949 . S
C434 C442 1.574 . S
C434 C450 1.368 . S
H435 C443 0.950 . S
H436 C441 0.950 . S
H437 C442 0.949 . S
H438 C444 0.950 . S
H439 C445 0.950 . S
H440 C446 0.949 . S
C441 H436 0.950 . S
C441 C443 1.327 . S
C441 C447 1.429 . S
C442 C434 1.574 . S
C442 H437 0.949 . S
C442 C448 1.368 . S
C443 C427 1.349 . S
C443 H435 0.950 . S
C443 C441 1.327 . S
C444 C432 1.349 . S
C444 H438 0.950 . S
C444 C445 1.327 . S
C445 H439 0.950 . S
C445 C444 1.327 . S
C445 C449 1.429 . S
C446 C429 1.574 . S
C446 H440 0.949 . S
C446 C450 1.368 . S
C447 C428 1.429 . S
C447 C441 1.429 . S
C447 C448 1.523 . S
C448 C429 1.368 . S
C448 C442 1.368 . S
C448 C447 1.523 . S
C449 C433 1.429 . S
C449 C445 1.429 . S
C449 C450 1.523 . S
C450 C434 1.368 . S
C450 C446 1.368 . S
C450 C449 1.523 . S
H451 C426 0.950 . S
H452 C428 0.950 . S
H453 C429 0.949 . S
H454 C431 0.950 . S
H455 C433 0.950 . S
C456 C457 1.349 . S
C456 C458 1.327 . S
C456 H481 0.950 . S
C457 C456 1.349 . S
C457 C473 1.349 . S
C458 C456 1.327 . S
C458 C477 1.429 . S
C458 H482 0.950 . S
C459 C476 1.574 . S
C459 C478 1.368 . S
C459 H483 0.949 . S
H460 C464 0.949 . S
C461 C462 1.349 . S
C461 C463 1.327 . S
C461 H484 0.950 . S
C462 C461 1.349 . S
C462 C474 1.349 . S
C463 C461 1.327 . S
C463 C479 1.429 . S
C463 H485 0.950 . S
C464 H460 0.949 . S
C464 C472 1.574 . S
C464 C480 1.368 . S
H465 C473 0.950 . S
H466 C471 0.950 . S
H467 C472 0.949 . S
H468 C474 0.950 . S
H469 C475 0.950 . S
H470 C476 0.949 . S
C471 H466 0.950 . S
C471 C473 1.327 . S
C471 C477 1.429 . S
C472 C464 1.574 . S
C472 H467 0.949 . S
C472 C478 1.368 . S
C473 C457 1.349 . S
C473 H465 0.950 . S
C473 C471 1.327 . S
C474 C462 1.349 . S
C474 H468 0.950 . S
C474 C475 1.327 . S
C475 H469 0.950 . S
C475 C474 1.327 . S
C475 C479 1.429 . S
C476 C459 1.574 . S
C476 H470 0.949 . S
C476 C480 1.368 . S
C477 C458 1.429 . S
C477 C471 1.429 . S
C477 C478 1.523 . S
C478 C459 1.368 . S
C478 C472 1.368 . S
C478 C477 1.523 . S
C479 C463 1.429 . S
C479 C475 1.429 . S
C479 C480 1.523 . S
C480 C464 1.368 . S
C480 C476 1.368 . S
C480 C479 1.523 . S
H481 C456 0.950 . S
H482 C458 0.950 . S
H483 C459 0.949 . S
H484 C461 0.950 . S
H485 C463 0.950 . S
C486 C487 1.349 . S
C486 C488 1.327 . S
C486 H511 0.950 . S
C487 C486 1.349 . S
C487 C503 1.349 . S
C488 C486 1.327 . S
C488 C507 1.429 . S
C488 H512 0.950 . S
C489 C506 1.574 . S
C489 C508 1.368 . S
C489 H513 0.949 . S
H490 C494 0.949 . S
C491 C492 1.349 . S
C491 C493 1.327 . S
C491 H514 0.950 . S
C492 C491 1.349 . S
C492 C504 1.349 . S
C493 C491 1.327 . S
C493 C509 1.429 . S
C493 H515 0.950 . S
C494 H490 0.949 . S
C494 C502 1.574 . S
C494 C510 1.368 . S
H495 C503 0.950 . S
H496 C501 0.950 . S
H497 C502 0.949 . S
H498 C504 0.950 . S
H499 C505 0.950 . S
H500 C506 0.949 . S
C501 H496 0.950 . S
C501 C503 1.327 . S
C501 C507 1.429 . S
C502 C494 1.574 . S
C502 H497 0.949 . S
C502 C508 1.368 . S
C503 C487 1.349 . S
C503 H495 0.950 . S
C503 C501 1.327 . S
C504 C492 1.349 . S
C504 H498 0.950 . S
C504 C505 1.327 . S
C505 H499 0.950 . S
C505 C504 1.327 . S
C505 C509 1.429 . S
C506 C489 1.574 . S
C506 H500 0.949 . S
C506 C510 1.368 . S
C507 C488 1.429 . S
C507 C501 1.429 . S
C507 C508 1.523 . S
C508 C489 1.368 . S
C508 C502 1.368 . S
C508 C507 1.523 . S
C509 C493 1.429 . S
C509 C505 1.429 . S
C509 C510 1.523 . S
C510 C494 1.368 . S
C510 C506 1.368 . S
C510 C509 1.523 . S
H511 C486 0.950 . S
H512 C488 0.950 . S
H513 C489 0.949 . S
H514 C491 0.950 . S
H515 C493 0.950 . S
C516 C517 1.349 . S
C516 C518 1.327 . S
C516 H541 0.950 . S
C517 C516 1.349 . S
C517 C533 1.349 . S
C518 C516 1.327 . S
C518 C537 1.429 . S
C518 H542 0.950 . S
C519 C536 1.574 . S
C519 C538 1.368 . S
C519 H543 0.949 . S
H520 C524 0.949 . S
C521 C522 1.349 . S
C521 C523 1.327 . S
C521 H544 0.950 . S
C522 C521 1.349 . S
C522 C534 1.349 . S
C523 C521 1.327 . S
C523 C539 1.429 . S
C523 H545 0.950 . S
C524 H520 0.949 . S
C524 C532 1.574 . S
C524 C540 1.368 . S
H525 C533 0.950 . S
H526 C531 0.950 . S
H527 C532 0.949 . S
H528 C534 0.950 . S
H529 C535 0.950 . S
H530 C536 0.949 . S
C531 H526 0.950 . S
C531 C533 1.327 . S
C531 C537 1.429 . S
C532 C524 1.574 . S
C532 H527 0.949 . S
C532 C538 1.368 . S
C533 C517 1.349 . S
C533 H525 0.950 . S
C533 C531 1.327 . S
C534 C522 1.349 . S
C534 H528 0.950 . S
C534 C535 1.327 . S
C535 H529 0.950 . S
C535 C534 1.327 . S
C535 C539 1.429 . S
C536 C519 1.574 . S
C536 H530 0.949 . S
C536 C540 1.368 . S
C537 C518 1.429 . S
C537 C531 1.429 . S
C537 C538 1.523 . S
C538 C519 1.368 . S
C538 C532 1.368 . S
C538 C537 1.523 . S
C539 C523 1.429 . S
C539 C535 1.429 . S
C539 C540 1.523 . S
C540 C524 1.368 . S
C540 C536 1.368 . S
C540 C539 1.523 . S
H541 C516 0.950 . S
H542 C518 0.950 . S
H543 C519 0.949 . S
H544 C521 0.950 . S
H545 C523 0.950 . S
C546 C547 1.349 . S
C546 C548 1.327 . S
C546 H571 0.950 . S
C547 C546 1.349 . S
C547 C563 1.349 . S
C548 C546 1.327 . S
C548 C567 1.429 . S
C548 H572 0.950 . S
C549 C566 1.574 . S
C549 C568 1.368 . S
C549 H573 0.949 . S
H550 C554 0.949 . S
C551 C552 1.349 . S
C551 C553 1.327 . S
C551 H574 0.950 . S
C552 C551 1.349 . S
C552 C564 1.349 . S
C553 C551 1.327 . S
C553 C569 1.429 . S
C553 H575 0.950 . S
C554 H550 0.949 . S
C554 C562 1.574 . S
C554 C570 1.368 . S
H555 C563 0.950 . S
H556 C561 0.950 . S
H557 C562 0.949 . S
H558 C564 0.950 . S
H559 C565 0.950 . S
H560 C566 0.949 . S
C561 H556 0.950 . S
C561 C563 1.327 . S
C561 C567 1.429 . S
C562 C554 1.574 . S
C562 H557 0.949 . S
C562 C568 1.368 . S
C563 C547 1.349 . S
C563 H555 0.950 . S
C563 C561 1.327 . S
C564 C552 1.349 . S
C564 H558 0.950 . S
C564 C565 1.327 . S
C565 H559 0.950 . S
C565 C564 1.327 . S
C565 C569 1.429 . S
C566 C549 1.574 . S
C566 H560 0.949 . S
C566 C570 1.368 . S
C567 C548 1.429 . S
C567 C561 1.429 . S
C567 C568 1.523 . S
C568 C549 1.368 . S
C568 C562 1.368 . S
C568 C567 1.523 . S
C569 C553 1.429 . S
C569 C565 1.429 . S
C569 C570 1.523 . S
C570 C554 1.368 . S
C570 C566 1.368 . S
C570 C569 1.523 . S
H571 C546 0.950 . S
H572 C548 0.950 . S
H573 C549 0.949 . S
H574 C551 0.950 . S
H575 C553 0.950 . S
C576 C577 1.349 . S
C576 C578 1.327 . S
C576 H601 0.950 . S
C577 C576 1.349 . S
C577 C593 1.349 . S
C578 C576 1.327 . S
C578 C597 1.429 . S
C578 H602 0.950 . S
C579 C596 1.574 . S
C579 C598 1.368 . S
C579 H603 0.949 . S
H580 C584 0.949 . S
C581 C582 1.349 . S
C581 C583 1.327 . S
C581 H604 0.950 . S
C582 C581 1.349 . S
C582 C594 1.349 . S
C583 C581 1.327 . S
C583 C599 1.429 . S
C583 H605 0.950 . S
C584 H580 0.949 . S
C584 C592 1.574 . S
C584 C600 1.368 . S
H585 C593 0.950 . S
H586 C591 0.950 . S
H587 C592 0.949 . S
H588 C594 0.950 . S
H589 C595 0.950 . S
H590 C596 0.949 . S
C591 H586 0.950 . S
C591 C593 1.327 . S
C591 C597 1.429 . S
C592 C584 1.574 . S
C592 H587 0.949 . S
C592 C598 1.368 . S
C593 C577 1.349 . S
C593 H585 0.950 . S
C593 C591 1.327 . S
C594 C582 1.349 . S
C594 H588 0.950 . S
C594 C595 1.327 . S
C595 H589 0.950 . S
C595 C594 1.327 . S
C595 C599 1.429 . S
C596 C579 1.574 . S
C596 H590 0.949 . S
C596 C600 1.368 . S
C597 C578 1.429 . S
C597 C591 1.429 . S
C597 C598 1.523 . S
C598 C579 1.368 . S
C598 C592 1.368 . S
C598 C597 1.523 . S
C599 C583 1.429 . S
C599 C595 1.429 . S
C599 C600 1.523 . S
C600 C584 1.368 . S
C600 C596 1.368 . S
C600 C599 1.523 . S
H601 C576 0.950 . S
H602 C578 0.950 . S
H603 C579 0.949 . S
H604 C581 0.950 . S
H605 C583 0.950 . S
C606 C607 1.349 . S
C606 C608 1.327 . S
C606 H631 0.950 . S
C607 C606 1.349 . S
C607 C623 1.349 . S
C608 C606 1.327 . S
C608 C627 1.429 . S
C608 H632 0.950 . S
C609 C626 1.574 . S
C609 C628 1.368 . S
C609 H633 0.949 . S
H610 C614 0.949 . S
C611 C612 1.349 . S
C611 C613 1.327 . S
C611 H634 0.950 . S
C612 C611 1.349 . S
C612 C624 1.349 . S
C613 C611 1.327 . S
C613 C629 1.429 . S
C613 H635 0.950 . S
C614 H610 0.949 . S
C614 C622 1.574 . S
C614 C630 1.368 . S
H615 C623 0.950 . S
H616 C621 0.950 . S
H617 C622 0.949 . S
H618 C624 0.950 . S
H619 C625 0.950 . S
H620 C626 0.949 . S
C621 H616 0.950 . S
C621 C623 1.327 . S
C621 C627 1.429 . S
C622 C614 1.574 . S
C622 H617 0.949 . S
C622 C628 1.368 . S
C623 C607 1.349 . S
C623 H615 0.950 . S
C623 C621 1.327 . S
C624 C612 1.349 . S
C624 H618 0.950 . S
C624 C625 1.327 . S
C625 H619 0.950 . S
C625 C624 1.327 . S
C625 C629 1.429 . S
C626 C609 1.574 . S
C626 H620 0.949 . S
C626 C630 1.368 . S
C627 C608 1.429 . S
C627 C621 1.429 . S
C627 C628 1.523 . S
C628 C609 1.368 . S
C628 C622 1.368 . S
C628 C627 1.523 . S
C629 C613 1.429 . S
C629 C625 1.429 . S
C629 C630 1.523 . S
C630 C614 1.368 . S
C630 C626 1.368 . S
C630 C629 1.523 . S
H631 C606 0.950 . S
H632 C608 0.950 . S
H633 C609 0.949 . S
H634 C611 0.950 . S
H635 C613 0.950 . S
C636 C637 1.349 . S
C636 C638 1.327 . S
C636 H661 0.950 . S
C637 C636 1.349 . S
C637 C653 1.349 . S
C638 C636 1.327 . S
C638 C657 1.429 . S
C638 H662 0.950 . S
C639 C656 1.574 . S
C639 C658 1.368 . S
C639 H663 0.949 . S
H640 C644 0.949 . S
C641 C642 1.349 . S
C641 C643 1.327 . S
C641 H664 0.950 . S
C642 C641 1.349 . S
C642 C654 1.349 . S
C643 C641 1.327 . S
C643 C659 1.429 . S
C643 H665 0.950 . S
C644 H640 0.949 . S
C644 C652 1.574 . S
C644 C660 1.368 . S
H645 C653 0.950 . S
H646 C651 0.950 . S
H647 C652 0.949 . S
H648 C654 0.950 . S
H649 C655 0.950 . S
H650 C656 0.949 . S
C651 H646 0.950 . S
C651 C653 1.327 . S
C651 C657 1.429 . S
C652 C644 1.574 . S
C652 H647 0.949 . S
C652 C658 1.368 . S
C653 C637 1.349 . S
C653 H645 0.950 . S
C653 C651 1.327 . S
C654 C642 1.349 . S
C654 H648 0.950 . S
C654 C655 1.327 . S
C655 H649 0.950 . S
C655 C654 1.327 . S
C655 C659 1.429 . S
C656 C639 1.574 . S
C656 H650 0.949 . S
C656 C660 1.368 . S
C657 C638 1.429 . S
C657 C651 1.429 . S
C657 C658 1.523 . S
C658 C639 1.368 . S
C658 C652 1.368 . S
C658 C657 1.523 . S
C659 C643 1.429 . S
C659 C655 1.429 . S
C659 C660 1.523 . S
C660 C644 1.368 . S
C660 C656 1.368 . S
C660 C659 1.523 . S
H661 C636 0.950 . S
H662 C638 0.950 . S
H663 C639 0.949 . S
H664 C641 0.950 . S
H665 C643 0.950 . S
C666 C667 1.349 . S
C666 C668 1.327 . S
C666 H691 0.950 . S
C667 C666 1.349 . S
C667 C683 1.349 . S
C668 C666 1.327 . S
C668 C687 1.429 . S
C668 H692 0.950 . S
C669 C686 1.574 . S
C669 C688 1.368 . S
C669 H693 0.949 . S
H670 C674 0.949 . S
C671 C672 1.349 . S
C671 C673 1.327 . S
C671 H694 0.950 . S
C672 C671 1.349 . S
C672 C684 1.349 . S
C673 C671 1.327 . S
C673 C689 1.429 . S
C673 H695 0.950 . S
C674 H670 0.949 . S
C674 C682 1.574 . S
C674 C690 1.368 . S
H675 C683 0.950 . S
H676 C681 0.950 . S
H677 C682 0.949 . S
H678 C684 0.950 . S
H679 C685 0.950 . S
H680 C686 0.949 . S
C681 H676 0.950 . S
C681 C683 1.327 . S
C681 C687 1.429 . S
C682 C674 1.574 . S
C682 H677 0.949 . S
C682 C688 1.368 . S
C683 C667 1.349 . S
C683 H675 0.950 . S
C683 C681 1.327 . S
C684 C672 1.349 . S
C684 H678 0.950 . S
C684 C685 1.327 . S
C685 H679 0.950 . S
C685 C684 1.327 . S
C685 C689 1.429 . S
C686 C669 1.574 . S
C686 H680 0.949 . S
C686 C690 1.368 . S
C687 C668 1.429 . S
C687 C681 1.429 . S
C687 C688 1.523 . S
C688 C669 1.368 . S
C688 C682 1.368 . S
C688 C687 1.523 . S
C689 C673 1.429 . S
C689 C685 1.429 . S
C689 C690 1.523 . S
C690 C674 1.368 . S
C690 C686 1.368 . S
C690 C689 1.523 . S
H691 C666 0.950 . S
H692 C668 0.950 . S
H693 C669 0.949 . S
H694 C671 0.950 . S
H695 C673 0.950 . S
C696 C697 1.349 . S
C696 C698 1.327 . S
C696 H721 0.950 . S
C697 C696 1.349 . S
C697 C713 1.349 . S
C698 C696 1.327 . S
C698 C717 1.429 . S
C698 H722 0.950 . S
C699 C716 1.574 . S
C699 C718 1.368 . S
C699 H723 0.949 . S
H700 C704 0.949 . S
C701 C702 1.349 . S
C701 C703 1.327 . S
C701 H724 0.950 . S
C702 C701 1.349 . S
C702 C714 1.349 . S
C703 C701 1.327 . S
C703 C719 1.429 . S
C703 H725 0.950 . S
C704 H700 0.949 . S
C704 C712 1.574 . S
C704 C720 1.368 . S
H705 C713 0.950 . S
H706 C711 0.950 . S
H707 C712 0.949 . S
H708 C714 0.950 . S
H709 C715 0.950 . S
H710 C716 0.949 . S
C711 H706 0.950 . S
C711 C713 1.327 . S
C711 C717 1.429 . S
C712 C704 1.574 . S
C712 H707 0.949 . S
C712 C718 1.368 . S
C713 C697 1.349 . S
C713 H705 0.950 . S
C713 C711 1.327 . S
C714 C702 1.349 . S
C714 H708 0.950 . S
C714 C715 1.327 . S
C715 H709 0.950 . S
C715 C714 1.327 . S
C715 C719 1.429 . S
C716 C699 1.574 . S
C716 H710 0.949 . S
C716 C720 1.368 . S
C717 C698 1.429 . S
C717 C711 1.429 . S
C717 C718 1.523 . S
C718 C699 1.368 . S
C718 C712 1.368 . S
C718 C717 1.523 . S
C719 C703 1.429 . S
C719 C715 1.429 . S
C719 C720 1.523 . S
C720 C704 1.368 . S
C720 C716 1.368 . S
C720 C719 1.523 . S
H721 C696 0.950 . S
H722 C698 0.950 . S
H723 C699 0.949 . S
H724 C701 0.950 . S
H725 C703 0.950 . S
C726 C727 1.349 . S
C726 C728 1.327 . S
C726 H751 0.950 . S
C727 C726 1.349 . S
C727 C743 1.349 . S
C728 C726 1.327 . S
C728 C747 1.429 . S
C728 H752 0.950 . S
C729 C746 1.574 . S
C729 C748 1.368 . S
C729 H753 0.949 . S
H730 C734 0.949 . S
C731 C732 1.349 . S
C731 C733 1.327 . S
C731 H754 0.950 . S
C732 C731 1.349 . S
C732 C744 1.349 . S
C733 C731 1.327 . S
C733 C749 1.429 . S
C733 H755 0.950 . S
C734 H730 0.949 . S
C734 C742 1.574 . S
C734 C750 1.368 . S
H735 C743 0.950 . S
H736 C741 0.950 . S
H737 C742 0.949 . S
H738 C744 0.950 . S
H739 C745 0.950 . S
H740 C746 0.949 . S
C741 H736 0.950 . S
C741 C743 1.327 . S
C741 C747 1.429 . S
C742 C734 1.574 . S
C742 H737 0.949 . S
C742 C748 1.368 . S
C743 C727 1.349 . S
C743 H735 0.950 . S
C743 C741 1.327 . S
C744 C732 1.349 . S
C744 H738 0.950 . S
C744 C745 1.327 . S
C745 H739 0.950 . S
C745 C744 1.327 . S
C745 C749 1.429 . S
C746 C729 1.574 . S
C746 H740 0.949 . S
C746 C750 1.368 . S
C747 C728 1.429 . S
C747 C741 1.429 . S
C747 C748 1.523 . S
C748 C729 1.368 . S
C748 C742 1.368 . S
C748 C747 1.523 . S
C749 C733 1.429 . S
C749 C745 1.429 . S
C749 C750 1.523 . S
C750 C734 1.368 . S
C750 C746 1.368 . S
C750 C749 1.523 . S
H751 C726 0.950 . S
H752 C728 0.950 . S
H753 C729 0.949 . S
H754 C731 0.950 . S
H755 C733 0.950 . S
C756 C757 1.349 . S
C756 C758 1.327 . S
C756 H781 0.950 . S
C757 C756 1.349 . S
C757 C773 1.349 . S
C758 C756 1.327 . S
C758 C777 1.429 . S
C758 H782 0.950 . S
C759 C776 1.574 . S
C759 C778 1.368 . S
C759 H783 0.949 . S
H760 C764 0.949 . S
C761 C762 1.349 . S
C761 C763 1.327 . S
C761 H784 0.950 . S
C762 C761 1.349 . S
C762 C774 1.349 . S
C763 C761 1.327 . S
C763 C779 1.429 . S
C763 H785 0.950 . S
C764 H760 0.949 . S
C764 C772 1.574 . S
C764 C780 1.368 . S
H765 C773 0.950 . S
H766 C771 0.950 . S
H767 C772 0.949 . S
H768 C774 0.950 . S
H769 C775 0.950 . S
H770 C776 0.949 . S
C771 H766 0.950 . S
C771 C773 1.327 . S
C771 C777 1.429 . S
C772 C764 1.574 . S
C772 H767 0.949 . S
C772 C778 1.368 . S
C773 C757 1.349 . S
C773 H765 0.950 . S
C773 C771 1.327 . S
C774 C762 1.349 . S
C774 H768 0.950 . S
C774 C775 1.327 . S
C775 H769 0.950 . S
C775 C774 1.327 . S
C775 C779 1.429 . S
C776 C759 1.574 . S
C776 H770 0.949 . S
C776 C780 1.368 . S
C777 C758 1.429 . S
C777 C771 1.429 . S
C777 C778 1.523 . S
C778 C759 1.368 . S
C778 C772 1.368 . S
C778 C777 1.523 . S
C779 C763 1.429 . S
C779 C775 1.429 . S
C779 C780 1.523 . S
C780 C764 1.368 . S
C780 C776 1.368 . S
C780 C779 1.523 . S
H781 C756 0.950 . S
H782 C758 0.950 . S
H783 C759 0.949 . S
H784 C761 0.950 . S
H785 C763 0.950 . S
C786 C787 1.349 . S
C786 C788 1.327 . S
C786 H811 0.950 . S
C787 C786 1.349 . S
C787 C803 1.349 . S
C788 C786 1.327 . S
C788 C807 1.429 . S
C788 H812 0.950 . S
C789 C806 1.574 . S
C789 C808 1.368 . S
C789 H813 0.949 . S
H790 C794 0.949 . S
C791 C792 1.349 . S
C791 C793 1.327 . S
C791 H814 0.950 . S
C792 C791 1.349 . S
C792 C804 1.349 . S
C793 C791 1.327 . S
C793 C809 1.429 . S
C793 H815 0.950 . S
C794 H790 0.949 . S
C794 C802 1.574 . S
C794 C810 1.368 . S
H795 C803 0.950 . S
H796 C801 0.950 . S
H797 C802 0.949 . S
H798 C804 0.950 . S
H799 C805 0.950 . S
H800 C806 0.949 . S
C801 H796 0.950 . S
C801 C803 1.327 . S
C801 C807 1.429 . S
C802 C794 1.574 . S
C802 H797 0.949 . S
C802 C808 1.368 . S
C803 C787 1.349 . S
C803 H795 0.950 . S
C803 C801 1.327 . S
C804 C792 1.349 . S
C804 H798 0.950 . S
C804 C805 1.327 . S
C805 H799 0.950 . S
C805 C804 1.327 . S
C805 C809 1.429 . S
C806 C789 1.574 . S
C806 H800 0.949 . S
C806 C810 1.368 . S
C807 C788 1.429 . S
C807 C801 1.429 . S
C807 C808 1.523 . S
C808 C789 1.368 . S
C808 C802 1.368 . S
C808 C807 1.523 . S
C809 C793 1.429 . S
C809 C805 1.429 . S
C809 C810 1.523 . S
C810 C794 1.368 . S
C810 C806 1.368 . S
C810 C809 1.523 . S
H811 C786 0.950 . S
H812 C788 0.950 . S
H813 C789 0.949 . S
H814 C791 0.950 . S
H815 C793 0.950 . S
C816 C817 1.349 . S
C816 C818 1.327 . S
C816 H841 0.950 . S
C817 C816 1.349 . S
C817 C833 1.349 . S
C818 C816 1.327 . S
C818 C837 1.429 . S
C818 H842 0.950 . S
C819 C836 1.574 . S
C819 C838 1.368 . S
C819 H843 0.949 . S
H820 C824 0.949 . S
C821 C822 1.349 . S
C821 C823 1.327 . S
C821 H844 0.950 . S
C822 C821 1.349 . S
C822 C834 1.349 . S
C823 C821 1.327 . S
C823 C839 1.429 . S
C823 H845 0.950 . S
C824 H820 0.949 . S
C824 C832 1.574 . S
C824 C840 1.368 . S
H825 C833 0.950 . S
H826 C831 0.950 . S
H827 C832 0.949 . S
H828 C834 0.950 . S
H829 C835 0.950 . S
H830 C836 0.949 . S
C831 H826 0.950 . S
C831 C833 1.327 . S
C831 C837 1.429 . S
C832 C824 1.574 . S
C832 H827 0.949 . S
C832 C838 1.368 . S
C833 C817 1.349 . S
C833 H825 0.950 . S
C833 C831 1.327 . S
C834 C822 1.349 . S
C834 H828 0.950 . S
C834 C835 1.327 . S
C835 H829 0.950 . S
C835 C834 1.327 . S
C835 C839 1.429 . S
C836 C819 1.574 . S
C836 H830 0.949 . S
C836 C840 1.368 . S
C837 C818 1.429 . S
C837 C831 1.429 . S
C837 C838 1.523 . S
C838 C819 1.368 . S
C838 C832 1.368 . S
C838 C837 1.523 . S
C839 C823 1.429 . S
C839 C835 1.429 . S
C839 C840 1.523 . S
C840 C824 1.368 . S
C840 C836 1.368 . S
C840 C839 1.523 . S
H841 C816 0.950 . S
H842 C818 0.950 . S
H843 C819 0.949 . S
H844 C821 0.950 . S
H845 C823 0.950 . S
C846 C847 1.349 . S
C846 C848 1.327 . S
C846 H871 0.950 . S
C847 C846 1.349 . S
C847 C863 1.349 . S
C848 C846 1.327 . S
C848 C867 1.429 . S
C848 H872 0.950 . S
C849 C866 1.574 . S
C849 C868 1.368 . S
C849 H873 0.949 . S
H850 C854 0.949 . S
C851 C852 1.349 . S
C851 C853 1.327 . S
C851 H874 0.950 . S
C852 C851 1.349 . S
C852 C864 1.349 . S
C853 C851 1.327 . S
C853 C869 1.429 . S
C853 H875 0.950 . S
C854 H850 0.949 . S
C854 C862 1.574 . S
C854 C870 1.368 . S
H855 C863 0.950 . S
H856 C861 0.950 . S
H857 C862 0.949 . S
H858 C864 0.950 . S
H859 C865 0.950 . S
H860 C866 0.949 . S
C861 H856 0.950 . S
C861 C863 1.327 . S
C861 C867 1.429 . S
C862 C854 1.574 . S
C862 H857 0.949 . S
C862 C868 1.368 . S
C863 C847 1.349 . S
C863 H855 0.950 . S
C863 C861 1.327 . S
C864 C852 1.349 . S
C864 H858 0.950 . S
C864 C865 1.327 . S
C865 H859 0.950 . S
C865 C864 1.327 . S
C865 C869 1.429 . S
C866 C849 1.574 . S
C866 H860 0.949 . S
C866 C870 1.368 . S
C867 C848 1.429 . S
C867 C861 1.429 . S
C867 C868 1.523 . S
C868 C849 1.368 . S
C868 C862 1.368 . S
C868 C867 1.523 . S
C869 C853 1.429 . S
C869 C865 1.429 . S
C869 C870 1.523 . S
C870 C854 1.368 . S
C870 C866 1.368 . S
C870 C869 1.523 . S
H871 C846 0.950 . S
H872 C848 0.950 . S
H873 C849 0.949 . S
H874 C851 0.950 . S
H875 C853 0.950 . S
C876 C877 1.349 . S
C876 C878 1.327 . S
C876 H901 0.950 . S
C877 C876 1.349 . S
C877 C893 1.349 . S
C878 C876 1.327 . S
C878 C897 1.429 . S
C878 H902 0.950 . S
C879 C896 1.574 . S
C879 C898 1.368 . S
C879 H903 0.949 . S
H880 C884 0.949 . S
C881 C882 1.349 . S
C881 C883 1.327 . S
C881 H904 0.950 . S
C882 C881 1.349 . S
C882 C894 1.349 . S
C883 C881 1.327 . S
C883 C899 1.429 . S
C883 H905 0.950 . S
C884 H880 0.949 . S
C884 C892 1.574 . S
C884 C900 1.368 . S
H885 C893 0.950 . S
H886 C891 0.950 . S
H887 C892 0.949 . S
H888 C894 0.950 . S
H889 C895 0.950 . S
H890 C896 0.949 . S
C891 H886 0.950 . S
C891 C893 1.327 . S
C891 C897 1.429 . S
C892 C884 1.574 . S
C892 H887 0.949 . S
C892 C898 1.368 . S
C893 C877 1.349 . S
C893 H885 0.950 . S
C893 C891 1.327 . S
C894 C882 1.349 . S
C894 H888 0.950 . S
C894 C895 1.327 . S
C895 H889 0.950 . S
C895 C894 1.327 . S
C895 C899 1.429 . S
C896 C879 1.574 . S
C896 H890 0.949 . S
C896 C900 1.368 . S
C897 C878 1.429 . S
C897 C891 1.429 . S
C897 C898 1.523 . S
C898 C879 1.368 . S
C898 C892 1.368 . S
C898 C897 1.523 . S
C899 C883 1.429 . S
C899 C895 1.429 . S
C899 C900 1.523 . S
C900 C884 1.368 . S
C900 C896 1.368 . S
C900 C899 1.523 . S
H901 C876 0.950 . S
H902 C878 0.950 . S
H903 C879 0.949 . S
H904 C881 0.950 . S
H905 C883 0.950 . S
C906 C907 1.349 . S
C906 C908 1.327 . S
C906 H931 0.950 . S
C907 C906 1.349 . S
C907 C923 1.349 . S
C908 C906 1.327 . S
C908 C927 1.429 . S
C908 H932 0.950 . S
C909 C926 1.574 . S
C909 C928 1.368 . S
C909 H933 0.949 . S
H910 C914 0.949 . S
C911 C912 1.349 . S
C911 C913 1.327 . S
C911 H934 0.950 . S
C912 C911 1.349 . S
C912 C924 1.349 . S
C913 C911 1.327 . S
C913 C929 1.429 . S
C913 H935 0.950 . S
C914 H910 0.949 . S
C914 C922 1.574 . S
C914 C930 1.368 . S
H915 C923 0.950 . S
H916 C921 0.950 . S
H917 C922 0.949 . S
H918 C924 0.950 . S
H919 C925 0.950 . S
H920 C926 0.949 . S
C921 H916 0.950 . S
C921 C923 1.327 . S
C921 C927 1.429 . S
C922 C914 1.574 . S
C922 H917 0.949 . S
C922 C928 1.368 . S
C923 C907 1.349 . S
C923 H915 0.950 . S
C923 C921 1.327 . S
C924 C912 1.349 . S
C924 H918 0.950 . S
C924 C925 1.327 . S
C925 H919 0.950 . S
C925 C924 1.327 . S
C925 C929 1.429 . S
C926 C909 1.574 . S
C926 H920 0.949 . S
C926 C930 1.368 . S
C927 C908 1.429 . S
C927 C921 1.429 . S
C927 C928 1.523 . S
C928 C909 1.368 . S
C928 C922 1.368 . S
C928 C927 1.523 . S
C929 C913 1.429 . S
C929 C925 1.429 . S
C929 C930 1.523 . S
C930 C914 1.368 . S
C930 C926 1.368 . S
C930 C929 1.523 . S
H931 C906 0.950 . S
H932 C908 0.950 . S
H933 C909 0.949 . S
H934 C911 0.950 . S
H935 C913 0.950 . S
C936 C937 1.349 . S
C936 C938 1.327 . S
C936 H961 0.950 . S
C937 C936 1.349 . S
C937 C953 1.349 . S
C938 C936 1.327 . S
C938 C957 1.429 . S
C938 H962 0.950 . S
C939 C956 1.574 1_565 S
C939 C958 1.368 . S
C939 H963 0.949 . S
H940 C944 0.949 . S
C941 C942 1.349 . S
C941 C943 1.327 . S
C941 H964 0.950 . S
C942 C941 1.349 . S
C942 C954 1.349 . S
C943 C941 1.327 . S
C943 C959 1.429 . S
C943 H965 0.950 . S
C944 H940 0.949 . S
C944 C952 1.574 1_545 S
C944 C960 1.368 . S
H945 C953 0.950 . S
H946 C951 0.950 . S
H947 C952 0.949 . S
H948 C954 0.950 . S
H949 C955 0.950 . S
H950 C956 0.949 . S
C951 H946 0.950 . S
C951 C953 1.327 . S
C951 C957 1.429 . S
C952 C944 1.574 1_565 S
C952 H947 0.949 . S
C952 C958 1.368 1_554 S
C953 C937 1.349 . S
C953 H945 0.950 . S
C953 C951 1.327 . S
C954 C942 1.349 . S
C954 H948 0.950 . S
C954 C955 1.327 . S
C955 H949 0.950 . S
C955 C954 1.327 . S
C955 C959 1.429 . S
C956 C939 1.574 1_545 S
C956 H950 0.949 . S
C956 C960 1.368 1_556 S
C957 C938 1.429 . S
C957 C951 1.429 . S
C957 C958 1.523 . S
C958 C939 1.368 . S
C958 C952 1.368 1_556 S
C958 C957 1.523 . S
C959 C943 1.429 . S
C959 C955 1.429 . S
C959 C960 1.523 . S
C960 C944 1.368 . S
C960 C956 1.368 1_554 S
C960 C959 1.523 . S
H961 C936 0.950 . S
H962 C938 0.950 . S
H963 C939 0.949 . S
H964 C941 0.950 . S
H965 C943 0.950 . S
C966 C967 1.349 . S
C966 C968 1.327 . S
C966 H991 0.950 . S
C967 C966 1.349 . S
C967 C983 1.349 . S
C968 C966 1.327 . S
C968 C987 1.429 . S
C968 H992 0.950 . S
C969 C986 1.574 . S
C969 C988 1.368 . S
C969 H993 0.949 . S
H970 C974 0.949 . S
C971 C972 1.349 . S
C971 C973 1.327 . S
C971 H994 0.950 . S
C972 C971 1.349 . S
C972 C984 1.349 . S
C973 C971 1.327 . S
C973 C989 1.429 . S
C973 H995 0.950 . S
C974 H970 0.949 . S
C974 C982 1.574 . S
C974 C990 1.368 . S
H975 C983 0.950 . S
H976 C981 0.950 . S
H977 C982 0.949 . S
H978 C984 0.950 . S
H979 C985 0.950 . S
H980 C986 0.949 . S
C981 H976 0.950 . S
C981 C983 1.327 . S
C981 C987 1.429 . S
C982 C974 1.574 . S
C982 H977 0.949 . S
C982 C988 1.368 . S
C983 C967 1.349 . S
C983 H975 0.950 . S
C983 C981 1.327 . S
C984 C972 1.349 . S
C984 H978 0.950 . S
C984 C985 1.327 . S
C985 H979 0.950 . S
C985 C984 1.327 . S
C985 C989 1.429 . S
C986 C969 1.574 . S
C986 H980 0.949 . S
C986 C990 1.368 . S
C987 C968 1.429 . S
C987 C981 1.429 . S
C987 C988 1.523 . S
C988 C969 1.368 . S
C988 C982 1.368 . S
C988 C987 1.523 . S
C989 C973 1.429 . S
C989 C985 1.429 . S
C989 C990 1.523 . S
C990 C974 1.368 . S
C990 C986 1.368 . S
C990 C989 1.523 . S
H991 C966 0.950 . S
H992 C968 0.950 . S
H993 C969 0.949 . S
H994 C971 0.950 . S
H995 C973 0.950 . S
C996 C997 1.349 . S
C996 C998 1.327 . S
C996 H1021 0.950 . S
C997 C996 1.349 . S
C997 C1013 1.349 . S
C998 C996 1.327 . S
C998 C1017 1.429 . S
C998 H1022 0.988 . S
C999 C1016 1.574 1_655 S
C999 C1018 1.368 . S
C999 H1023 0.949 . S
H1000 C1004 0.949 . S
C1001 C1002 1.349 . S
C1001 C1003 1.327 . S
C1001 H1024 0.950 . S
C1002 C1001 1.349 . S
C1002 C1014 1.349 . S
C1003 C1001 1.327 . S
C1003 C1019 1.429 . S
C1003 H1025 0.950 . S
C1004 H1000 0.949 . S
C1004 C1012 1.574 1_455 S
C1004 C1020 1.368 . S
H1005 C1013 0.950 . S
H1006 C1011 0.950 . S
H1007 C1012 0.949 . S
H1008 C1014 0.950 . S
H1009 C1015 0.950 . S
H1010 C1016 0.949 . S
C1011 H1006 0.950 . S
C1011 C1013 1.327 . S
C1011 C1017 1.429 . S
C1012 C1004 1.574 1_655 S
C1012 H1007 0.949 . S
C1012 C1018 1.368 1_556 S
C1013 C997 1.349 . S
C1013 H1005 0.950 . S
C1013 C1011 1.327 . S
C1014 C1002 1.349 . S
C1014 H1008 0.950 . S
C1014 C1015 1.327 . S
C1015 H1009 0.950 . S
C1015 C1014 1.327 . S
C1015 C1019 1.429 . S
C1016 C999 1.574 1_455 S
C1016 H1010 0.949 . S
C1016 C1020 1.368 1_554 S
C1017 C998 1.429 . S
C1017 C1011 1.429 . S
C1017 C1018 1.523 . S
C1018 C999 1.368 . S
C1018 C1012 1.368 1_554 S
C1018 C1017 1.523 . S
C1019 C1003 1.429 . S
C1019 C1015 1.429 . S
C1019 C1020 1.523 . S
C1020 C1004 1.368 . S
C1020 C1016 1.368 1_556 S
C1020 C1019 1.523 . S
H1021 C996 0.950 . S
H1022 C998 0.988 . S
H1023 C999 0.949 . S
H1024 C1001 0.950 . S
H1025 C1003 0.950 . S
C1026 C1027 1.349 . S
C1026 C1028 1.327 . S
C1026 H1051 0.950 . S
C1027 C1026 1.349 . S
C1027 C1043 1.349 . S
C1028 C1026 1.327 . S
C1028 C1047 1.429 . S
C1028 H1052 0.950 . S
C1029 C1046 1.574 1_565 S
C1029 C1048 1.368 . S
C1029 H1053 0.949 . S
H1030 C1034 0.949 . S
C1031 C1032 1.349 . S
C1031 C1033 1.327 . S
C1031 H1054 0.950 . S
C1032 C1031 1.349 . S
C1032 C1044 1.349 . S
C1033 C1031 1.327 . S
C1033 C1049 1.429 . S
C1033 H1055 0.950 . S
C1034 H1030 0.949 . S
C1034 C1042 1.574 1_545 S
C1034 C1050 1.368 . S
H1035 C1043 0.950 . S
H1036 C1041 0.950 . S
H1037 C1042 0.949 . S
H1038 C1044 0.950 . S
H1039 C1045 0.950 . S
H1040 C1046 0.949 . S
C1041 H1036 0.950 . S
C1041 C1043 1.327 . S
C1041 C1047 1.429 . S
C1042 C1034 1.574 1_565 S
C1042 H1037 0.949 . S
C1042 C1048 1.368 . S
C1043 C1027 1.349 . S
C1043 H1035 0.950 . S
C1043 C1041 1.327 . S
C1044 C1032 1.349 . S
C1044 H1038 0.950 . S
C1044 C1045 1.327 . S
C1045 H1039 0.950 . S
C1045 C1044 1.327 . S
C1045 C1049 1.429 . S
C1046 C1029 1.574 1_545 S
C1046 H1040 0.949 . S
C1046 C1050 1.368 . S
C1047 C1028 1.429 . S
C1047 C1041 1.429 . S
C1047 C1048 1.523 . S
C1048 C1029 1.368 . S
C1048 C1042 1.368 . S
C1048 C1047 1.523 . S
C1049 C1033 1.429 . S
C1049 C1045 1.429 . S
C1049 C1050 1.523 . S
C1050 C1034 1.368 . S
C1050 C1046 1.368 . S
C1050 C1049 1.523 . S
H1051 C1026 0.950 . S
H1052 C1028 0.950 . S
H1053 C1029 0.949 . S
H1054 C1031 0.950 . S
H1055 C1033 0.950 . S
C1056 C1057 1.349 . S
C1056 C1058 1.327 . S
C1056 H1081 0.950 . S
C1057 C1056 1.349 . S
C1057 C1073 1.349 . S
C1058 C1056 1.327 . S
C1058 C1077 1.429 . S
C1058 H1082 0.950 . S
C1059 C1076 1.574 . S
C1059 C1078 1.368 1_556 S
C1059 H1083 0.949 . S
H1060 C1064 0.949 . S
C1061 C1062 1.349 . S
C1061 C1063 1.327 . S
C1061 H1084 0.950 . S
C1062 C1061 1.349 . S
C1062 C1074 1.349 . S
C1063 C1061 1.327 . S
C1063 C1079 1.429 . S
C1063 H1085 0.950 . S
C1064 H1060 0.949 . S
C1064 C1072 1.576 . S
C1064 C1080 1.366 1_554 S
H1065 C1073 0.950 . S
H1066 C1071 0.950 . S
H1067 C1072 0.949 . S
H1068 C1074 0.950 . S
H1069 C1075 0.950 . S
H1070 C1076 0.949 . S
C1071 H1066 0.950 . S
C1071 C1073 1.327 . S
C1071 C1077 1.429 . S
C1072 C1064 1.576 . S
C1072 H1067 0.949 . S
C1072 C1078 1.368 . S
C1073 C1057 1.349 . S
C1073 H1065 0.950 . S
C1073 C1071 1.327 . S
C1074 C1062 1.349 . S
C1074 H1068 0.950 . S
C1074 C1075 1.327 . S
C1075 H1069 0.950 . S
C1075 C1074 1.327 . S
C1075 C1079 1.429 . S
C1076 C1059 1.574 . S
C1076 H1070 0.949 . S
C1076 C1080 1.368 . S
C1077 C1058 1.429 . S
C1077 C1071 1.429 . S
C1077 C1078 1.523 . S
C1078 C1059 1.368 1_554 S
C1078 C1072 1.368 . S
C1078 C1077 1.523 . S
C1079 C1063 1.429 . S
C1079 C1075 1.429 . S
C1079 C1080 1.523 . S
C1080 C1064 1.366 1_556 S
C1080 C1076 1.368 . S
C1080 C1079 1.523 . S
H1081 C1056 0.950 . S
H1082 C1058 0.950 . S
H1083 C1059 0.949 . S
H1084 C1061 0.950 . S
H1085 C1063 0.950 . S
C1086 C1087 1.349 . S
C1086 C1088 1.327 . S
C1086 H1111 0.950 . S
C1087 C1086 1.349 . S
C1087 C1103 1.349 . S
C1088 C1086 1.327 . S
C1088 C1107 1.429 . S
C1088 H1112 0.950 . S
C1089 C1106 1.574 1_655 S
C1089 C1108 1.368 . S
C1089 H1113 0.949 . S
H1090 C1094 0.949 . S
C1091 C1092 1.349 . S
C1091 C1093 1.327 . S
C1091 H1114 0.950 . S
C1092 C1091 1.349 . S
C1092 C1104 1.349 . S
C1093 C1091 1.327 . S
C1093 C1109 1.429 . S
C1093 H1115 0.950 . S
C1094 H1090 0.949 . S
C1094 C1102 1.574 1_455 S
C1094 C1110 1.368 . S
H1095 C1103 0.950 . S
H1096 C1101 0.950 . S
H1097 C1102 0.949 . S
H1098 C1104 0.950 . S
H1099 C1105 0.950 . S
H1100 C1106 0.949 . S
C1101 H1096 0.950 . S
C1101 C1103 1.327 . S
C1101 C1107 1.429 . S
C1102 C1094 1.574 1_655 S
C1102 H1097 0.949 . S
C1102 C1108 1.368 . S
C1103 C1087 1.349 . S
C1103 H1095 0.950 . S
C1103 C1101 1.327 . S
C1104 C1092 1.349 . S
C1104 H1098 0.950 . S
C1104 C1105 1.327 . S
C1105 H1099 0.950 . S
C1105 C1104 1.327 . S
C1105 C1109 1.429 . S
C1106 C1089 1.574 1_455 S
C1106 H1100 0.949 . S
C1106 C1110 1.368 . S
C1107 C1088 1.429 . S
C1107 C1101 1.429 . S
C1107 C1108 1.523 . S
C1108 C1089 1.368 . S
C1108 C1102 1.368 . S
C1108 C1107 1.523 . S
C1109 C1093 1.429 . S
C1109 C1105 1.429 . S
C1109 C1110 1.523 . S
C1110 C1094 1.368 . S
C1110 C1106 1.368 . S
C1110 C1109 1.523 . S
H1111 C1086 0.950 . S
H1112 C1088 0.950 . S
H1113 C1089 0.949 . S
H1114 C1091 0.950 . S
H1115 C1093 0.950 . S
C1116 C1117 1.349 . S
C1116 C1118 1.327 . S
C1116 H1141 0.950 . S
C1117 C1116 1.349 . S
C1117 C1133 1.349 . S
C1118 C1116 1.327 . S
C1118 C1137 1.429 . S
C1118 H1142 0.950 . S
C1119 C1136 1.560 1_545 S
C1119 C1138 1.368 1_556 S
C1119 H1143 0.949 . S
H1120 C1124 0.949 . S
C1121 C1122 1.349 . S
C1121 C1123 1.327 . S
C1121 H1144 0.950 . S
C1122 C1121 1.349 . S
C1122 C1134 1.349 . S
C1123 C1121 1.327 . S
C1123 C1139 1.429 . S
C1123 H1145 0.950 . S
C1124 H1120 0.949 . S
C1124 C1132 1.574 1_565 S
C1124 C1140 1.368 1_554 S
H1125 C1133 0.950 . S
H1126 C1131 0.950 . S
H1127 C1132 0.949 . S
H1128 C1134 0.950 . S
H1129 C1135 0.950 . S
H1130 C1136 0.954 . S
C1131 H1126 0.950 . S
C1131 C1133 1.327 . S
C1131 C1137 1.429 . S
C1132 C1124 1.574 1_545 S
C1132 H1127 0.949 . S
C1132 C1138 1.368 . S
C1133 C1117 1.349 . S
C1133 H1125 0.950 . S
C1133 C1131 1.327 . S
C1134 C1122 1.349 . S
C1134 H1128 0.950 . S
C1134 C1135 1.327 . S
C1135 H1129 0.950 . S
C1135 C1134 1.327 . S
C1135 C1139 1.429 . S
C1136 C1119 1.560 1_565 S
C1136 H1130 0.954 . S
C1136 C1140 1.376 . S
C1137 C1118 1.429 . S
C1137 C1131 1.429 . S
C1137 C1138 1.523 . S
C1138 C1119 1.368 1_554 S
C1138 C1132 1.368 . S
C1138 C1137 1.523 . S
C1139 C1123 1.429 . S
C1139 C1135 1.429 . S
C1139 C1140 1.523 . S
C1140 C1124 1.368 1_556 S
C1140 C1136 1.376 . S
C1140 C1139 1.523 . S
H1141 C1116 0.950 . S
H1142 C1118 0.950 . S
H1143 C1119 0.949 . S
H1144 C1121 0.950 . S
H1145 C1123 0.950 . S
C1146 C1147 1.349 . S
C1146 C1148 1.327 . S
C1146 H1171 0.950 . S
C1147 C1146 1.349 . S
C1147 C1163 1.349 . S
C1148 C1146 1.327 . S
C1148 C1167 1.429 . S
C1148 H1172 0.950 . S
C1149 C1166 1.574 . S
C1149 C1168 1.368 . S
C1149 H1173 0.949 . S
H1150 C1154 0.949 . S
C1151 C1152 1.349 . S
C1151 C1153 1.327 . S
C1151 H1174 0.950 . S
C1152 C1151 1.349 . S
C1152 C1164 1.349 . S
C1153 C1151 1.327 . S
C1153 C1169 1.429 . S
C1153 H1175 0.950 . S
C1154 H1150 0.949 . S
C1154 C1162 1.574 . S
C1154 C1170 1.368 . S
H1155 C1163 0.950 . S
H1156 C1161 0.950 . S
H1157 C1162 0.949 . S
H1158 C1164 0.950 . S
H1159 C1165 0.950 . S
H1160 C1166 0.949 . S
C1161 H1156 0.950 . S
C1161 C1163 1.327 . S
C1161 C1167 1.429 . S
C1162 C1154 1.574 . S
C1162 H1157 0.949 . S
C1162 C1168 1.368 . S
C1163 C1147 1.349 . S
C1163 H1155 0.950 . S
C1163 C1161 1.327 . S
C1164 C1152 1.349 . S
C1164 H1158 0.950 . S
C1164 C1165 1.327 . S
C1165 H1159 0.950 . S
C1165 C1164 1.327 . S
C1165 C1169 1.429 . S
C1166 C1149 1.574 . S
C1166 H1160 0.949 . S
C1166 C1170 1.368 . S
C1167 C1148 1.429 . S
C1167 C1161 1.429 . S
C1167 C1168 1.523 . S
C1168 C1149 1.368 . S
C1168 C1162 1.368 . S
C1168 C1167 1.523 . S
C1169 C1153 1.429 . S
C1169 C1165 1.429 . S
C1169 C1170 1.523 . S
C1170 C1154 1.368 . S
C1170 C1166 1.368 . S
C1170 C1169 1.523 . S
H1171 C1146 0.950 . S
H1172 C1148 0.950 . S
H1173 C1149 0.949 . S
H1174 C1151 0.950 . S
H1175 C1153 0.950 . S
C1176 C1177 1.349 . S
C1176 C1178 1.327 . S
C1176 H1201 0.950 . S
C1177 C1176 1.349 . S
C1177 C1193 1.349 . S
C1178 C1176 1.327 . S
C1178 C1197 1.429 . S
C1178 H1202 0.950 . S
C1179 C1196 1.574 1_655 S
C1179 C1198 1.368 . S
C1179 H1203 0.949 . S
H1180 C1184 0.951 . S
C1181 C1182 1.349 . S
C1181 C1183 1.327 . S
C1181 H1204 0.950 . S
C1182 C1181 1.349 . S
C1182 C1194 1.349 . S
C1183 C1181 1.327 . S
C1183 C1199 1.429 . S
C1183 H1205 0.950 . S
C1184 H1180 0.951 . S
C1184 C1192 1.567 1_455 S
C1184 C1200 1.373 . S
H1185 C1193 0.950 . S
H1186 C1191 0.950 . S
H1187 C1192 0.949 . S
H1188 C1194 0.950 . S
H1189 C1195 0.950 . S
H1190 C1196 0.949 . S
C1191 H1186 0.950 . S
C1191 C1193 1.327 . S
C1191 C1197 1.429 . S
C1192 C1184 1.567 1_655 S
C1192 H1187 0.949 . S
C1192 C1198 1.368 1_556 S
C1193 C1177 1.349 . S
C1193 H1185 0.950 . S
C1193 C1191 1.327 . S
C1194 C1182 1.349 . S
C1194 H1188 0.950 . S
C1194 C1195 1.327 . S
C1195 H1189 0.950 . S
C1195 C1194 1.327 . S
C1195 C1199 1.429 . S
C1196 C1179 1.574 1_455 S
C1196 H1190 0.949 . S
C1196 C1200 1.368 1_554 S
C1197 C1178 1.429 . S
C1197 C1191 1.429 . S
C1197 C1198 1.523 . S
C1198 C1179 1.368 . S
C1198 C1192 1.368 1_554 S
C1198 C1197 1.523 . S
C1199 C1183 1.429 . S
C1199 C1195 1.429 . S
C1199 C1200 1.523 . S
C1200 C1184 1.373 . S
C1200 C1196 1.368 1_556 S
C1200 C1199 1.523 . S
H1201 C1176 0.950 . S
H1202 C1178 0.950 . S
H1203 C1179 0.949 . S
H1204 C1181 0.950 . S
H1205 C1183 0.950 . S
C1206 C1207 1.349 . S
C1206 C1208 1.327 . S
C1206 H1231 0.950 . S
C1207 C1206 1.349 . S
C1207 C1223 1.349 . S
C1208 C1206 1.327 . S
C1208 C1227 1.429 . S
C1208 H1232 0.950 . S
C1209 C1226 1.574 1_565 S
C1209 C1228 1.368 . S
C1209 H1233 0.949 . S
H1210 C1214 0.949 . S
C1211 C1212 1.349 . S
C1211 C1213 1.327 . S
C1211 H1234 0.950 . S
C1212 C1211 1.349 . S
C1212 C1224 1.349 . S
C1213 C1211 1.327 . S
C1213 C1229 1.429 . S
C1213 H1235 0.950 . S
C1214 H1210 0.949 . S
C1214 C1222 1.574 . S
C1214 C1230 1.368 . S
H1215 C1223 0.950 . S
H1216 C1221 0.950 . S
H1217 C1222 0.949 . S
H1218 C1224 0.950 . S
H1219 C1225 0.950 . S
H1220 C1226 0.949 . S
C1221 H1216 0.950 . S
C1221 C1223 1.327 . S
C1221 C1227 1.429 . S
C1222 C1214 1.574 . S
C1222 H1217 0.949 . S
C1222 C1228 1.368 1_545 S
C1223 C1207 1.349 . S
C1223 H1215 0.950 . S
C1223 C1221 1.327 . S
C1224 C1212 1.349 . S
C1224 H1218 0.950 . S
C1224 C1225 1.327 . S
C1225 H1219 0.950 . S
C1225 C1224 1.327 . S
C1225 C1229 1.429 . S
C1226 C1209 1.574 1_545 S
C1226 H1220 0.949 . S
C1226 C1230 1.368 . S
C1227 C1208 1.429 . S
C1227 C1221 1.429 . S
C1227 C1228 1.523 . S
C1228 C1209 1.368 . S
C1228 C1222 1.368 1_565 S
C1228 C1227 1.523 . S
C1229 C1213 1.429 . S
C1229 C1225 1.429 . S
C1229 C1230 1.523 . S
C1230 C1214 1.368 . S
C1230 C1226 1.368 . S
C1230 C1229 1.523 . S
H1231 C1206 0.950 . S
H1232 C1208 0.950 . S
H1233 C1209 0.949 . S
H1234 C1211 0.950 . S
H1235 C1213 0.950 . S
C1236 C1237 1.349 . S
C1236 C1238 1.327 . S
C1236 H1261 0.950 . S
C1237 C1236 1.349 . S
C1237 C1253 1.349 . S
C1238 C1236 1.327 . S
C1238 C1257 1.429 . S
C1238 H1262 0.950 . S
C1239 C1256 1.574 . S
C1239 C1258 1.368 1_554 S
C1239 H1263 0.949 . S
H1240 C1244 0.949 . S
C1241 C1242 1.349 . S
C1241 C1243 1.327 . S
C1241 H1264 0.950 . S
C1242 C1241 1.349 . S
C1242 C1254 1.349 . S
C1243 C1241 1.327 . S
C1243 C1259 1.429 . S
C1243 H1265 0.950 . S
C1244 H1240 0.949 . S
C1244 C1252 1.574 . S
C1244 C1260 1.368 1_556 S
H1245 C1253 0.950 . S
H1246 C1251 0.950 . S
H1247 C1252 0.949 . S
H1248 C1254 0.950 . S
H1249 C1255 0.950 . S
H1250 C1256 0.949 . S
C1251 H1246 0.950 . S
C1251 C1253 1.327 . S
C1251 C1257 1.429 . S
C1252 C1244 1.574 . S
C1252 H1247 0.949 . S
C1252 C1258 1.368 . S
C1253 C1237 1.349 . S
C1253 H1245 0.950 . S
C1253 C1251 1.327 . S
C1254 C1242 1.349 . S
C1254 H1248 0.950 . S
C1254 C1255 1.327 . S
C1255 H1249 0.950 . S
C1255 C1254 1.327 . S
C1255 C1259 1.429 . S
C1256 C1239 1.574 . S
C1256 H1250 0.949 . S
C1256 C1260 1.368 . S
C1257 C1238 1.429 . S
C1257 C1251 1.429 . S
C1257 C1258 1.523 . S
C1258 C1239 1.368 1_556 S
C1258 C1252 1.368 . S
C1258 C1257 1.523 . S
C1259 C1243 1.429 . S
C1259 C1255 1.429 . S
C1259 C1260 1.523 . S
C1260 C1244 1.368 1_554 S
C1260 C1256 1.368 . S
C1260 C1259 1.523 . S
H1261 C1236 0.950 . S
H1262 C1238 0.950 . S
H1263 C1239 0.949 . S
H1264 C1241 0.950 . S
H1265 C1243 0.950 . S
C1266 C1267 1.349 . S
C1266 C1268 1.327 . S
C1266 H1291 0.950 . S
C1267 C1266 1.349 . S
C1267 C1283 1.349 . S
C1268 C1266 1.327 . S
C1268 C1287 1.429 . S
C1268 H1292 0.950 . S
C1269 C1286 1.574 1_455 S
C1269 C1288 1.368 . S
C1269 H1293 0.949 . S
H1270 C1274 0.949 . S
C1271 C1272 1.349 . S
C1271 C1273 1.327 . S
C1271 H1294 0.950 . S
C1272 C1271 1.349 . S
C1272 C1284 1.349 . S
C1273 C1271 1.327 . S
C1273 C1289 1.429 . S
C1273 H1295 0.950 . S
C1274 H1270 0.949 . S
C1274 C1282 1.574 1_655 S
C1274 C1290 1.368 . S
H1275 C1283 0.950 . S
H1276 C1281 0.950 . S
H1277 C1282 0.949 . S
H1278 C1284 0.950 . S
H1279 C1285 0.950 . S
H1280 C1286 0.949 . S
C1281 H1276 0.950 . S
C1281 C1283 1.327 . S
C1281 C1287 1.429 . S
C1282 C1274 1.574 1_455 S
C1282 H1277 0.949 . S
C1282 C1288 1.368 . S
C1283 C1267 1.349 . S
C1283 H1275 0.950 . S
C1283 C1281 1.327 . S
C1284 C1272 1.349 . S
C1284 H1278 0.950 . S
C1284 C1285 1.327 . S
C1285 H1279 0.950 . S
C1285 C1284 1.327 . S
C1285 C1289 1.429 . S
C1286 C1269 1.574 1_655 S
C1286 H1280 0.949 . S
C1286 C1290 1.368 . S
C1287 C1268 1.429 . S
C1287 C1281 1.429 . S
C1287 C1288 1.523 . S
C1288 C1269 1.368 . S
C1288 C1282 1.368 . S
C1288 C1287 1.523 . S
C1289 C1273 1.429 . S
C1289 C1285 1.429 . S
C1289 C1290 1.523 . S
C1290 C1274 1.368 . S
C1290 C1286 1.368 . S
C1290 C1289 1.523 . S
H1291 C1266 0.950 . S
H1292 C1268 0.950 . S
H1293 C1269 0.949 . S
H1294 C1271 0.950 . S
H1295 C1273 0.950 . S
C397 C84 1.366 . S
C402 N13 1.378 . S
C427 N46 1.521 . S
C432 C117 1.512 . S
C457 N79 1.378 . S
C462 C150 1.367 . S
C487 N112 1.521 . S
C492 C183 1.512 . S
C517 N145 1.378 . S
C522 C18 1.367 . S
C547 C51 1.512 . S
C552 N178 1.521 . S
C577 N200 1.497 . S
C582 C337 1.497 . S
C607 N244 1.476 . S
C612 C381 1.464 . S
C637 C205 1.497 . S
C642 N266 1.497 . S
C667 C249 1.464 . S
C672 N310 1.476 . S
C697 C271 1.497 . S
C702 N332 1.497 . S
C727 C315 1.464 . S
C732 N376 1.476 . S
C757 C285 1.268 . S
C762 C21 1.260 . S
C787 C54 1.213 . S
C792 C318 1.216 . S
C817 C351 1.268 . S
C822 C87 1.260 . S
C847 C384 1.216 . S
C852 C120 1.213 . S
C877 C153 1.260 . S
C882 C219 1.268 . S
C907 C252 1.216 . S
C912 C186 1.213 . S
C937 C238 1.246 . S
C942 C7 1.246 . S
C967 C40 1.371 . S
C972 C282 1.369 . S
C997 C73 1.246 . S
C1002 C304 1.246 . S
C1027 C106 1.371 . S
C1032 C348 1.369 . S
C1057 C139 1.246 . S
C1062 C370 1.246 . S
C1087 C216 1.369 . S
C1092 C172 1.371 . S
C1117 N68 1.317 . S
C1122 N365 1.314 . S
C1147 N211 1.457 . S
C1152 N101 1.432 . S
C1177 N134 1.317 . S
C1182 N233 1.314 . S
C1207 N167 1.432 . S
C1212 N277 1.457 . S
C1237 N299 1.314 . S
C1242 N2 1.317 . S
C1267 N35 1.432 . S
C1272 N343 1.457 . S
