# Generated by pormake.
# Topology uoc, (4)-cn, num edge types: 1
# Building blocks:
#     Node 0, Type 0, BuildingBlock: QUQFOY_clean_sbu_3, # of connection points: 4
#     Node 1, Type 0, BuildingBlock: QUQFOY_clean_sbu_3, # of connection points: 4
#     Node 2, Type 0, BuildingBlock: QUQFOY_clean_sbu_3, # of connection points: 4
#     Node 3, Type 0, BuildingBlock: QUQFOY_clean_sbu_3, # of connection points: 4
#     Node 4, Type 0, BuildingBlock: QUQFOY_clean_sbu_3, # of connection points: 4
#     Node 5, Type 0, BuildingBlock: QUQFOY_clean_sbu_3, # of connection points: 4
#     Node 6, Type 0, BuildingBlock: QUQFOY_clean_sbu_3, # of connection points: 4
#     Node 7, Type 0, BuildingBlock: QUQFOY_clean_sbu_3, # of connection points: 4
#     Edge 8, Type (0, 0), BuildingBlock: ZUJKAS_clean_linker_0, # of connection points: 2
#     Edge 9, Type (0, 0), BuildingBlock: ZUJKAS_clean_linker_0, # of connection points: 2
#     Edge 10, Type (0, 0), BuildingBlock: ZUJKAS_clean_linker_0, # of connection points: 2
#     Edge 11, Type (0, 0), BuildingBlock: ZUJKAS_clean_linker_0, # of connection points: 2
#     Edge 12, Type (0, 0), BuildingBlock: ZUJKAS_clean_linker_0, # of connection points: 2
#     Edge 13, Type (0, 0), BuildingBlock: ZUJKAS_clean_linker_0, # of connection points: 2
#     Edge 14, Type (0, 0), BuildingBlock: ZUJKAS_clean_linker_0, # of connection points: 2
#     Edge 15, Type (0, 0), BuildingBlock: ZUJKAS_clean_linker_0, # of connection points: 2
#     Edge 16, Type (0, 0), BuildingBlock: ZUJKAS_clean_linker_0, # of connection points: 2
#     Edge 17, Type (0, 0), BuildingBlock: ZUJKAS_clean_linker_0, # of connection points: 2
#     Edge 18, Type (0, 0), BuildingBlock: ZUJKAS_clean_linker_0, # of connection points: 2
#     Edge 19, Type (0, 0), BuildingBlock: ZUJKAS_clean_linker_0, # of connection points: 2
#     Edge 20, Type (0, 0), BuildingBlock: ZUJKAS_clean_linker_0, # of connection points: 2
#     Edge 21, Type (0, 0), BuildingBlock: ZUJKAS_clean_linker_0, # of connection points: 2
#     Edge 22, Type (0, 0), BuildingBlock: ZUJKAS_clean_linker_0, # of connection points: 2
#     Edge 23, Type (0, 0), BuildingBlock: ZUJKAS_clean_linker_0, # of connection points: 2
# Relax obj value: 0.101
# Max RMSD: 0.113
# Mean RMSD: 0.113
data_MOF--net-uoc--node1-QUQFOY_clean_sbu_3--edge1-ZUJKAS_clean_linker_0
_symmetry_space_group_name_H-M    P1
_symmetry_Int_Tables_number       1
_symmetry_cell_setting            triclinic
loop_
_symmetry_equiv_pos_as_xyz
'x, y, z'
_cell_length_a     35.128704
_cell_length_b     35.107758
_cell_length_c     72.589382
_cell_angle_alpha  90.023318
_cell_angle_beta   89.964638
_cell_angle_gamma 95.32973
loop_
_atom_site_label
_atom_site_type_symbol
_atom_site_fract_x
_atom_site_fract_y
_atom_site_fract_z
_atom_type_partial_charge
C0 C 0.23379 0.2561 0.08003 0.0
O1 O 0.24909 0.23756 0.09259 0.0
Cd2 Cd 0.21609 0.22336 0.1211 0.0
O3 O 0.20077 0.26747 0.08237 0.0
Cd4 Cd 0.14987 0.26869 0.10544 0.0
C5 C 0.13295 0.17236 0.10674 0.0
O6 O 0.1932 0.28235 0.13122 0.0
O7 O 0.13352 0.26928 0.138 0.0
O8 O 0.14548 0.33334 0.09447 0.0
C9 C 0.16707 0.28045 0.14332 0.0
O10 O 0.16476 0.17278 0.11519 0.0
C11 C 0.10941 0.33054 0.09279 0.0
O12 O 0.12139 0.20323 0.10058 0.0
O13 O 0.09172 0.29828 0.09662 0.0
C14 C 0.75489 0.72718 0.39839 0.0
O15 O 0.73508 0.73845 0.38519 0.0
Cd16 Cd 0.71928 0.69813 0.35906 0.0
O17 O 0.76656 0.69391 0.39814 0.0
Cd18 Cd 0.76623 0.63643 0.37877 0.0
C19 C 0.67007 0.6198 0.37956 0.0
O20 O 0.77768 0.67259 0.35057 0.0
O21 O 0.76462 0.6117 0.34721 0.0
O22 O 0.831 0.63477 0.39019 0.0
C23 C 0.77484 0.64385 0.33995 0.0
O24 O 0.67001 0.64814 0.36861 0.0
C25 C 0.82865 0.59901 0.39309 0.0
O26 O 0.70114 0.61071 0.38665 0.0
O27 O 0.7966 0.58041 0.38982 0.0
C28 C 0.28009 0.23431 0.57475 0.0
O29 O 0.26372 0.25624 0.58549 0.0
Cd30 Cd 0.29368 0.2835 0.61258 0.0
O31 O 0.31337 0.22473 0.57838 0.0
Cd32 Cd 0.36235 0.23203 0.60283 0.0
C33 C 0.37839 0.32757 0.59546 0.0
O34 O 0.31651 0.22994 0.62779 0.0
O35 O 0.37559 0.24159 0.63577 0.0
O36 O 0.36786 0.16442 0.59779 0.0
C37 C 0.34083 0.23587 0.64055 0.0
O38 O 0.34545 0.33017 0.60244 0.0
C39 C 0.40406 0.16714 0.59679 0.0
O40 O 0.39119 0.29508 0.59329 0.0
O41 O 0.42123 0.2005 0.59824 0.0
C42 C 0.73253 0.78239 0.90189 0.0
O43 O 0.75635 0.76634 0.89206 0.0
Cd44 Cd 0.77834 0.79077 0.86256 0.0
O45 O 0.71952 0.81321 0.8966 0.0
Cd46 Cd 0.72403 0.85845 0.87083 0.0
C47 C 0.81984 0.87912 0.87576 0.0
O48 O 0.72311 0.80945 0.84715 0.0
O49 O 0.7325 0.868 0.8378 0.0
O50 O 0.6562 0.86236 0.87589 0.0
C51 C 0.72793 0.83271 0.83384 0.0
O52 O 0.82336 0.84647 0.86864 0.0
C53 C 0.65792 0.89861 0.8763 0.0
O54 O 0.78698 0.88976 0.8795 0.0
O55 O 0.69082 0.91656 0.8744 0.0
C56 C 0.72566 0.76755 0.57822 0.0
O57 O 0.74191 0.74165 0.58652 0.0
Cd58 Cd 0.71476 0.71118 0.61384 0.0
O59 O 0.69392 0.77768 0.58396 0.0
Cd60 Cd 0.64692 0.76468 0.60861 0.0
C61 C 0.62853 0.67042 0.59785 0.0
O62 O 0.69413 0.76123 0.633 0.0
O63 O 0.63476 0.74914 0.64076 0.0
O64 O 0.64056 0.83295 0.60732 0.0
C65 C 0.66956 0.75355 0.64559 0.0
O66 O 0.66168 0.66582 0.60407 0.0
C67 C 0.60456 0.82988 0.60523 0.0
O68 O 0.61686 0.70366 0.597 0.0
O69 O 0.58789 0.79618 0.60481 0.0
C70 C 0.25816 0.22441 0.8952 0.0
O71 O 0.23388 0.24078 0.88582 0.0
Cd72 Cd 0.2081 0.21347 0.85745 0.0
O73 O 0.2684 0.19213 0.8903 0.0
Cd74 Cd 0.25785 0.14344 0.86636 0.0
C75 C 0.16193 0.12946 0.87324 0.0
O76 O 0.26079 0.18988 0.8415 0.0
O77 O 0.24776 0.13065 0.8337 0.0
O78 O 0.32505 0.13592 0.87116 0.0
C79 C 0.2545 0.16528 0.82882 0.0
O80 O 0.15984 0.16159 0.86536 0.0
C81 C 0.32122 0.09978 0.87268 0.0
O82 O 0.19419 0.11722 0.87674 0.0
O83 O 0.28746 0.08351 0.8714 0.0
C84 C 0.78485 0.74063 0.08696 0.0
O85 O 0.77094 0.75888 0.10007 0.0
Cd86 Cd 0.80514 0.77148 0.12828 0.0
O87 O 0.81766 0.72827 0.08851 0.0
Cd88 Cd 0.8698 0.72536 0.11097 0.0
C89 C 0.88755 0.82185 0.1127 0.0
O90 O 0.82743 0.71141 0.13691 0.0
O91 O 0.88726 0.72312 0.14357 0.0
O92 O 0.87481 0.66063 0.09996 0.0
C93 C 0.85364 0.71227 0.14891 0.0
O94 O 0.85642 0.82176 0.12171 0.0
C95 C 0.91066 0.66461 0.09734 0.0
O96 O 0.89832 0.79083 0.10629 0.0
O97 O 0.92768 0.69742 0.10065 0.0
C98 C 0.23028 0.27231 0.39415 0.0
O99 O 0.253 0.2608 0.3822 0.0
Cd100 Cd 0.27284 0.29985 0.35608 0.0
O101 O 0.21898 0.30566 0.39316 0.0
Cd102 Cd 0.225 0.36374 0.37421 0.0
C103 C 0.32157 0.37714 0.37735 0.0
O104 O 0.21684 0.32789 0.34587 0.0
O105 O 0.23087 0.38873 0.34275 0.0
O106 O 0.159 0.36908 0.38309 0.0
C107 C 0.2218 0.35655 0.33526 0.0
O108 O 0.32221 0.34866 0.36651 0.0
C109 C 0.16364 0.40414 0.38754 0.0
O110 O 0.29005 0.38705 0.38358 0.0
O111 O 0.19723 0.42065 0.38599 0.0
H112 H 0.3009 0.23015 0.06809 0.0
H113 H 0.32895 0.23768 0.03725 0.0
H114 H 0.239 0.30651 0.02118 0.0
H115 H 0.21131 0.29977 0.05179 0.0
H116 H 0.28957 0.20953 0.00785 0.0
H117 H 0.32961 0.36303 -0.00412 0.0
H118 H 0.32252 0.34319 0.01874 0.0
H119 H 0.28235 0.35568 0.00532 0.0
C120 C 0.28763 0.2476 0.0581 0.0
C121 C 0.25361 0.26394 0.0623 0.0
C122 C 0.30381 0.25205 0.04054 0.0
C123 C 0.28642 0.27318 0.02703 0.0
C124 C 0.25354 0.291 0.03151 0.0
H125 H 0.22533 0.27481 0.91753 0.0
H126 H 0.24395 0.29165 0.9492 0.0
C127 C 0.23739 0.28658 0.04898 0.0
C128 C 0.29787 0.27104 0.0075 0.0
H129 H 0.30952 0.32527 0.96856 0.0
C130 C 0.29517 0.23476 -0.00071 0.0
C131 C 0.305 0.30404 -0.00359 0.0
C132 C 0.31043 0.34363 0.00462 0.0
C133 C 0.29591 0.2306 0.98014 0.0
C134 C 0.30043 0.26374 0.96895 0.0
C135 C 0.3059 0.29998 0.97719 0.0
C136 C 0.29471 0.26108 0.94884 0.0
C137 C 0.28878 0.1909 0.97206 0.0
C138 C 0.31816 0.23999 0.93796 0.0
C139 C 0.30721 0.22974 0.92005 0.0
C140 C 0.27306 0.24115 0.91266 0.0
C141 C 0.25164 0.26547 0.92294 0.0
C142 C 0.26233 0.2752 0.94098 0.0
H143 H 0.27906 0.16921 0.98261 0.0
H144 H 0.26685 0.19027 0.96102 0.0
H145 H 0.31564 0.18239 0.96591 0.0
H146 H 0.34367 0.22952 0.9437 0.0
H147 H 0.32464 0.21156 0.91226 0.0
H148 H 0.79909 0.70899 0.32143 0.0
H149 H 0.81029 0.7164 0.2884 0.0
H150 H 0.77674 0.59624 0.28025 0.0
H151 H 0.76604 0.58836 0.31345 0.0
H152 H 0.8434 0.6221 0.26168 0.0
H153 H 0.7283 0.71646 0.24857 0.0
H154 H 0.76031 0.73383 0.26659 0.0
H155 H 0.73109 0.6894 0.26959 0.0
C156 C 0.79396 0.68413 0.31262 0.0
C157 C 0.78147 0.64812 0.31999 0.0
C158 C 0.80018 0.68848 0.29375 0.0
C159 C 0.79365 0.65701 0.28191 0.0
C160 C 0.78165 0.6209 0.28921 0.0
H161 H 0.78538 0.68287 0.16307 0.0
H162 H 0.7707 0.66591 0.19508 0.0
C163 C 0.77553 0.61647 0.30813 0.0
C164 C 0.80024 0.66185 0.26194 0.0
H165 H 0.77472 0.71292 0.22474 0.0
C166 C 0.82819 0.64167 0.25352 0.0
C167 C 0.77989 0.68697 0.25135 0.0
C168 C 0.74795 0.70762 0.25943 0.0
C169 C 0.83724 0.64692 0.23483 0.0
C170 C 0.8183 0.67359 0.22449 0.0
C171 C 0.78951 0.69283 0.23279 0.0
C172 C 0.82794 0.68226 0.20505 0.0
C173 C 0.86676 0.62372 0.22632 0.0
C174 C 0.86495 0.6973 0.20012 0.0
C175 C 0.8735 0.70685 0.18181 0.0
C176 C 0.845 0.70193 0.16823 0.0
C177 C 0.80793 0.68702 0.17324 0.0
C178 C 0.79949 0.67728 0.1915 0.0
H179 H 0.87016 0.59733 0.23437 0.0
H180 H 0.85904 0.6155 0.21193 0.0
H181 H 0.89481 0.64108 0.22611 0.0
H182 H 0.88706 0.70221 0.21046 0.0
H183 H 0.90225 0.71847 0.17835 0.0
H184 H 0.31236 0.20205 0.54509 0.0
H185 H 0.28367 0.18978 0.51483 0.0
H186 H 0.17617 0.22317 0.53506 0.0
H187 H 0.20498 0.23673 0.56532 0.0
H188 H 0.21895 0.14695 0.49924 0.0
H189 H 0.20923 0.30456 0.49667 0.0
H190 H 0.2349 0.28249 0.51462 0.0
H191 H 0.18354 0.27918 0.51496 0.0
C192 C 0.28244 0.20624 0.54321 0.0
C193 C 0.26117 0.2213 0.55743 0.0
C194 C 0.26602 0.19891 0.52595 0.0
C195 C 0.22805 0.20622 0.52268 0.0
C196 C 0.20575 0.21802 0.53727 0.0
H197 H 0.16409 0.27177 0.41345 0.0
H198 H 0.15094 0.24348 0.44377 0.0
C199 C 0.22229 0.22587 0.5545 0.0
C200 C 0.21423 0.20708 0.50351 0.0
H201 H 0.19689 0.2703 0.46971 0.0
C202 C 0.21333 0.17372 0.49278 0.0
C203 C 0.20696 0.24209 0.49519 0.0
C204 C 0.20891 0.27922 0.50585 0.0
C205 C 0.20692 0.17482 0.4737 0.0
C206 C 0.20192 0.21028 0.46525 0.0
C207 C 0.20049 0.24305 0.47621 0.0
C208 C 0.20355 0.21601 0.44507 0.0
C209 C 0.20654 0.13829 0.46276 0.0
C210 C 0.23655 0.20826 0.43533 0.0
C211 C 0.24385 0.22399 0.41787 0.0
C212 C 0.21868 0.24838 0.41018 0.0
C213 C 0.1842 0.25346 0.41924 0.0
C214 C 0.17654 0.23711 0.43649 0.0
H215 H 0.19571 0.11324 0.47123 0.0
H216 H 0.18859 0.1392 0.45021 0.0
H217 H 0.23618 0.13397 0.45851 0.0
H218 H 0.25826 0.19285 0.4418 0.0
H219 H 0.27066 0.21972 0.41114 0.0
H220 H 0.73893 0.76091 0.82188 0.0
H221 H 0.74049 0.73853 0.78997 0.0
H222 H 0.7199 0.85126 0.77091 0.0
H223 H 0.72001 0.87409 0.80265 0.0
H224 H 0.68666 0.73311 0.76552 0.0
H225 H 0.80495 0.82987 0.73746 0.0
H226 H 0.79603 0.82554 0.76189 0.0
H227 H 0.77056 0.85748 0.74805 0.0
C228 C 0.73517 0.78097 0.81084 0.0
C229 C 0.72949 0.81926 0.81468 0.0
C230 C 0.73614 0.76818 0.79264 0.0
C231 C 0.73116 0.79341 0.77803 0.0
C232 C 0.72517 0.83159 0.78191 0.0
H233 H 0.62361 0.75701 0.67556 0.0
H234 H 0.64274 0.75983 0.7078 0.0
C235 C 0.72484 0.84454 0.80006 0.0
C236 C 0.72914 0.77939 0.7588 0.0
H237 H 0.75759 0.804 0.71519 0.0
C238 C 0.70276 0.74812 0.75454 0.0
C239 C 0.7509 0.79816 0.74451 0.0
C240 C 0.7825 0.82931 0.74827 0.0
C241 C 0.69557 0.73693 0.73625 0.0
C242 C 0.71424 0.75849 0.72187 0.0
C243 C 0.74265 0.78792 0.7262 0.0
C244 C 0.70249 0.7534 0.70239 0.0
C245 C 0.66765 0.70245 0.73259 0.0
C246 C 0.72985 0.7499 0.68853 0.0
C247 C 0.71909 0.74931 0.67001 0.0
C248 C 0.68075 0.75194 0.66508 0.0
C249 C 0.6533 0.75455 0.67897 0.0
C250 C 0.66416 0.75577 0.69743 0.0
H251 H 0.66805 0.68132 0.74397 0.0
H252 H 0.63828 0.71157 0.73184 0.0
H253 H 0.67409 0.68813 0.71946 0.0
H254 H 0.75964 0.74833 0.69204 0.0
H255 H 0.74081 0.74717 0.65955 0.0
H256 H 0.23742 0.4113 0.30881 0.0
H257 H 0.23252 0.40293 0.27534 0.0
H258 H 0.19423 0.28364 0.28298 0.0
H259 H 0.19972 0.2915 0.31629 0.0
H260 H 0.25061 0.2962 0.25636 0.0
H261 H 0.13272 0.38939 0.24585 0.0
H262 H 0.1744 0.41149 0.25732 0.0
H263 H 0.14575 0.373 0.26834 0.0
C264 C 0.2279 0.38333 0.30333 0.0
C265 C 0.21881 0.35207 0.31513 0.0
C266 C 0.22498 0.37866 0.28425 0.0
C267 C 0.21259 0.34279 0.27678 0.0
C268 C 0.20381 0.31155 0.28853 0.0
H269 H 0.11789 0.2737 0.17243 0.0
H270 H 0.13173 0.29075 0.20453 0.0
C271 C 0.20688 0.31612 0.30754 0.0
C272 C 0.20878 0.33731 0.2567 0.0
H273 H 0.15739 0.36152 0.21935 0.0
C274 C 0.23041 0.31061 0.2482 0.0
C275 C 0.18215 0.356 0.24624 0.0
C276 C 0.15714 0.38386 0.25487 0.0
C277 C 0.22562 0.3015 0.22951 0.0
C278 C 0.19901 0.32021 0.21904 0.0
C279 C 0.17787 0.34743 0.22746 0.0
C280 C 0.19108 0.3104 0.19958 0.0
C281 C 0.24798 0.27092 0.22131 0.0
C282 C 0.21987 0.31611 0.18622 0.0
C283 C 0.21215 0.3061 0.1679 0.0
C284 C 0.17539 0.29064 0.16267 0.0
C285 C 0.1465 0.28546 0.17606 0.0
C286 C 0.15431 0.29527 0.19437 0.0
H287 H 0.2604 0.25338 0.23211 0.0
H288 H 0.2296 0.25163 0.21219 0.0
H289 H 0.27185 0.28464 0.21292 0.0
H290 H 0.24824 0.32842 0.18994 0.0
H291 H 0.23488 0.31071 0.15783 0.0
H292 H 0.7102 0.8345 0.56207 0.0
H293 H 0.72744 0.85595 0.53085 0.0
H294 H 0.79338 0.75922 0.52397 0.0
H295 H 0.77733 0.73826 0.55534 0.0
H296 H 0.8245 0.82605 0.50519 0.0
H297 H 0.66866 0.79211 0.49144 0.0
H298 H 0.68187 0.82855 0.50821 0.0
H299 H 0.69005 0.77974 0.51291 0.0
C300 C 0.72907 0.81827 0.55403 0.0
C301 C 0.74175 0.78421 0.56094 0.0
C302 C 0.73889 0.83061 0.53624 0.0
C303 C 0.76087 0.80865 0.52502 0.0
C304 C 0.77625 0.77649 0.53244 0.0
H305 H 0.80149 0.71408 0.42718 0.0
H306 H 0.80854 0.74939 0.4559 0.0
C307 C 0.76692 0.76443 0.55032 0.0
C308 C 0.76313 0.81512 0.50493 0.0
H309 H 0.70914 0.79951 0.46623 0.0
C310 C 0.79924 0.82119 0.49661 0.0
C311 C 0.73003 0.80921 0.49379 0.0
C312 C 0.69043 0.80182 0.50194 0.0
C313 C 0.80334 0.8186 0.47744 0.0
C314 C 0.77055 0.80908 0.46649 0.0
C315 C 0.73425 0.80674 0.47467 0.0
C316 C 0.77313 0.79372 0.44762 0.0
C317 C 0.84285 0.82429 0.46919 0.0
C318 C 0.75087 0.80687 0.43331 0.0
C319 C 0.74622 0.78623 0.41686 0.0
C320 C 0.7635 0.75197 0.41458 0.0
C321 C 0.78751 0.74019 0.42853 0.0
C322 C 0.79213 0.76076 0.4449 0.0
H323 H 0.86123 0.84591 0.47714 0.0
H324 H 0.85632 0.79695 0.46986 0.0
H325 H 0.84204 0.83356 0.45459 0.0
H326 H 0.73559 0.832 0.43523 0.0
H327 H 0.72771 0.79617 0.40631 0.0
H328 H 0.27008 0.24543 0.65398 0.0
H329 H 0.24958 0.24308 0.68618 0.0
H330 H 0.36377 0.22232 0.70288 0.0
H331 H 0.38476 0.22643 0.67079 0.0
H332 H 0.24656 0.18564 0.70857 0.0
H333 H 0.34218 0.302 0.73939 0.0
H334 H 0.33722 0.29614 0.71479 0.0
H335 H 0.3696 0.26909 0.72753 0.0
C336 C 0.29089 0.24089 0.66457 0.0
C337 C 0.329 0.23617 0.65997 0.0
C338 C 0.27917 0.2396 0.68294 0.0
C339 C 0.30527 0.23319 0.69697 0.0
C340 C 0.3434 0.22854 0.69236 0.0
H341 H 0.26296 0.11928 0.79923 0.0
H342 H 0.27058 0.13856 0.76705 0.0
C343 C 0.35531 0.23054 0.67402 0.0
C344 C 0.29203 0.22822 0.71623 0.0
H345 H 0.31527 0.25327 0.76045 0.0
C346 C 0.26118 0.20092 0.7199 0.0
C347 C 0.31047 0.24874 0.73099 0.0
C348 C 0.34139 0.28092 0.72794 0.0
C349 C 0.24954 0.19216 0.73798 0.0
C350 C 0.27027 0.21019 0.75277 0.0
C351 C 0.29979 0.23894 0.7491 0.0
C352 C 0.26332 0.1983 0.77212 0.0
C353 C 0.21523 0.16364 0.74096 0.0
C354 C 0.25779 0.22563 0.78573 0.0
C355 C 0.25442 0.2148 0.8042 0.0
C356 C 0.25621 0.17642 0.8093 0.0
C357 C 0.26105 0.14899 0.79564 0.0
C358 C 0.26508 0.15993 0.77723 0.0
H359 H 0.19499 0.1637 0.7292 0.0
H360 H 0.22482 0.13447 0.74195 0.0
H361 H 0.19972 0.16975 0.75381 0.0
H362 H 0.25656 0.25541 0.7821 0.0
H363 H 0.2506 0.23649 0.81449 0.0
H364 H 0.71736 0.76848 0.07716 0.0
H365 H 0.68676 0.76442 0.04685 0.0
H366 H 0.77422 0.69622 0.027 0.0
H367 H 0.80458 0.6996 0.05712 0.0
H368 H 0.72438 0.79472 0.01691 0.0
H369 H 0.67941 0.6425 0.00334 0.0
H370 H 0.68907 0.66086 0.0263 0.0
H371 H 0.72763 0.64884 0.01166 0.0
C372 C 0.7296 0.75192 0.06645 0.0
C373 C 0.76365 0.73473 0.06948 0.0
C374 C 0.71196 0.74949 0.04919 0.0
C375 C 0.72789 0.72953 0.03478 0.0
C376 C 0.76086 0.71091 0.03804 0.0
H377 H 0.76875 0.73146 0.92241 0.0
H378 H 0.75682 0.71495 0.95474 0.0
C379 C 0.77849 0.71334 0.05524 0.0
C380 C 0.71439 0.73336 0.01567 0.0
H381 H 0.69493 0.68217 0.9763 0.0
C382 C 0.71683 0.77022 0.0081 0.0
C383 C 0.70471 0.70129 0.00426 0.0
C384 C 0.69967 0.66118 0.01188 0.0
C385 C 0.71302 0.77579 0.98913 0.0
C386 C 0.70564 0.74353 0.97753 0.0
C387 C 0.7007 0.70677 0.98525 0.0
C388 C 0.70764 0.74744 0.9573 0.0
C389 C 0.71981 0.81595 0.98157 0.0
C390 C 0.68291 0.76979 0.9479 0.0
C391 C 0.69003 0.77978 0.92953 0.0
C392 C 0.72162 0.767 0.92024 0.0
C393 C 0.74437 0.74194 0.92925 0.0
C394 C 0.73749 0.73236 0.94769 0.0
H395 H 0.73212 0.83661 -0.00795 0.0
H396 H 0.73949 0.8168 0.96957 0.0
H397 H 0.69224 0.82565 0.97689 0.0
H398 H 0.65925 0.78102 0.95501 0.0
H399 H 0.67158 0.7986 0.92283 0.0
H400 H 0.0616 0.16053 0.09124 0.0
H401 H 0.01958 0.10085 0.0905 0.0
H402 H 0.10673 0.0419 0.11715 0.0
H403 H 0.1488 0.10127 0.11813 0.0
H404 H 0.03028 0.0274 0.07517 0.0
H405 H 0.01259 0.02299 0.15121 0.0
H406 H 0.0319 0.06539 0.13912 0.0
H407 H 0.06139 0.02719 0.14347 0.0
C408 C 0.07195 0.13484 0.09685 0.0
C409 C 0.10847 0.13581 0.10491 0.0
C410 C 0.04791 0.10078 0.09639 0.0
C411 C 0.05987 0.06719 0.10404 0.0
C412 C 0.09674 0.06771 0.11148 0.0
H413 H 0.95707 0.8331 0.09534 0.0
H414 H 0.99793 0.89307 0.09223 0.0
C415 C 0.12079 0.10169 0.11196 0.0
C416 C 0.03346 0.03181 0.10472 0.0
H417 H 0.98705 0.96839 0.1346 0.0
C418 C 0.0207 0.01448 0.08814 0.0
C419 C 0.02067 0.0154 0.12168 0.0
C420 C 0.03201 0.03381 0.1399 0.0
C421 C 0.99596 0.98064 0.08808 0.0
C422 C 0.98413 0.96362 0.10505 0.0
C423 C 0.99641 0.98136 0.12161 0.0
C424 C 0.95869 0.92758 0.10605 0.0
C425 C 0.98226 0.96372 0.06989 0.0
C426 C 0.92333 0.927 0.11509 0.0
C427 C 0.90002 0.89277 0.117 0.0
C428 C 0.91172 0.85834 0.11 0.0
C429 C 0.94709 0.85908 0.10082 0.0
C430 C 0.9704 0.89338 0.09893 0.0
H431 H 0.98595 0.98501 0.05855 0.0
H432 H 0.99911 0.93951 0.06638 0.0
H433 H 0.95165 0.95262 0.07066 0.0
H434 H 0.91385 0.95307 0.12076 0.0
H435 H 0.873 0.89331 0.12415 0.0
H436 H 0.16391 0.48007 0.39616 0.0
H437 H 0.10853 0.51518 0.40309 0.0
H438 H 0.03433 0.41062 0.39847 0.0
H439 H 0.08938 0.37532 0.3918 0.0
H440 H 0.04867 0.52015 0.37904 0.0
H441 H 0.99472 0.45774 0.44522 0.0
H442 H 0.04229 0.45233 0.43676 0.0
H443 H 0.00199 0.42237 0.42803 0.0
C444 C 0.13587 0.46447 0.39693 0.0
C445 C 0.13098 0.42496 0.39338 0.0
C446 C 0.1043 0.48454 0.40091 0.0
C447 C 0.06741 0.46541 0.40155 0.0
C448 C 0.06262 0.42581 0.39848 0.0
H449 H 0.83574 0.52214 0.39491 0.0
H450 H 0.89477 0.49121 0.39932 0.0
C451 C 0.09411 0.40573 0.39451 0.0
C452 C 0.03355 0.48726 0.40342 0.0
H453 H 0.95133 0.49291 0.42802 0.0
C454 C 0.02767 0.51465 0.38991 0.0
C455 C 0.0061 0.47973 0.41754 0.0
C456 C 0.0117 0.45169 0.43282 0.0
C457 C 0.9944 0.53378 0.38973 0.0
C458 C 0.96661 0.52581 0.40366 0.0
C459 C 0.97275 0.49893 0.41739 0.0
C460 C 0.93036 0.54413 0.40361 0.0
C461 C 0.98858 0.56123 0.37419 0.0
C462 C 0.9307 0.58395 0.40527 0.0
C463 C 0.89716 0.60168 0.40265 0.0
C464 C 0.86264 0.57983 0.39849 0.0
C465 C 0.86192 0.53974 0.39802 0.0
C466 C 0.89557 0.52203 0.40056 0.0
H467 H 0.00837 0.55762 0.3625 0.0
H468 H 0.95876 0.55725 0.36898 0.0
H469 H 0.99402 0.59102 0.37931 0.0
H470 H 0.95718 0.60141 0.40796 0.0
H471 H 0.89857 0.63261 0.40329 0.0
H472 H 0.35668 0.40007 0.59285 0.0
H473 H 0.39759 0.45932 0.58806 0.0
H474 H 0.49599 0.39499 0.58347 0.0
H475 H 0.4551 0.33544 0.58777 0.0
H476 H 0.45367 0.48599 0.61077 0.0
H477 H 0.5144 0.46882 0.54115 0.0
H478 H 0.47364 0.43867 0.54954 0.0
H479 H 0.52131 0.42938 0.5561 0.0
C480 C 0.38694 0.39843 0.59053 0.0
C481 C 0.40265 0.36301 0.59075 0.0
C482 C 0.41028 0.43234 0.58776 0.0
C483 C 0.4498 0.43161 0.5852 0.0
C484 C 0.46546 0.39624 0.58496 0.0
H485 H 0.64524 0.59596 0.59579 0.0
H486 H 0.60067 0.53921 0.59073 0.0
C487 C 0.44206 0.36221 0.58756 0.0
C488 C 0.47491 0.46797 0.58464 0.0
H489 H 0.54566 0.51839 0.56002 0.0
C490 C 0.4734 0.49328 0.59955 0.0
C491 C 0.50078 0.47738 0.57002 0.0
C492 C 0.50243 0.45231 0.55321 0.0
C493 C 0.4977 0.52721 0.60049 0.0
C494 C 0.524 0.53625 0.58606 0.0
C495 C 0.52536 0.51127 0.57104 0.0
C496 C 0.55134 0.57085 0.58689 0.0
C497 C 0.49591 0.55262 0.61719 0.0
C498 C 0.53841 0.6074 0.58589 0.0
C499 C 0.56378 0.63996 0.58877 0.0
C500 C 0.6025 0.63643 0.59274 0.0
C501 C 0.61558 0.59973 0.5929 0.0
C502 C 0.59022 0.56725 0.58995 0.0
H503 H 0.47877 0.5383 0.62852 0.0
H504 H 0.52511 0.56143 0.62242 0.0
H505 H 0.48257 0.5789 0.6133 0.0
H506 H 0.50849 0.61067 0.58338 0.0
H507 H 0.55276 0.66775 0.58846 0.0
H508 H 0.58464 0.86672 0.88049 0.0
H509 H 0.52638 0.89958 0.88201 0.0
H510 H 0.59346 0.0085 0.87786 0.0
H511 H 0.65212 0.97585 0.87648 0.0
H512 H 0.53414 0.00454 0.90538 0.0
H513 H 0.48121 0.95165 0.83698 0.0
H514 H 0.49331 0.91525 0.85276 0.0
H515 H 0.53014 0.94967 0.84423 0.0
C516 C 0.58707 0.89768 0.87997 0.0
C517 C 0.62298 0.91871 0.87823 0.0
C518 C 0.55373 0.91637 0.88077 0.0
C519 C 0.55565 0.95637 0.87975 0.0
C520 C 0.59145 0.97755 0.87856 0.0
H521 H 0.39587 0.12811 0.87557 0.0
H522 H 0.45179 0.09224 0.87861 0.0
C523 C 0.62489 0.95887 0.87776 0.0
C524 C 0.52022 0.97607 0.87965 0.0
H525 H 0.43977 0.98661 0.85454 0.0
C526 C 0.51347 0.00069 0.89428 0.0
C527 C 0.49334 0.9708 0.86516 0.0
C528 C 0.49986 0.94567 0.8488 0.0
C529 C 0.48028 0.02005 0.89487 0.0
C530 C 0.4536 0.01511 0.88027 0.0
C531 C 0.46022 0.99019 0.86574 0.0
C532 C 0.41942 0.03673 0.87935 0.0
C533 C 0.47383 0.04522 0.91122 0.0
C534 C 0.38268 0.01735 0.8784 0.0
C535 C 0.35057 0.03779 0.87651 0.0
C536 C 0.35477 0.07793 0.87542 0.0
C537 C 0.39163 0.09721 0.87646 0.0
C538 C 0.42364 0.07678 0.87834 0.0
H539 H 0.49058 0.03734 0.92339 0.0
H540 H 0.48318 0.07538 0.90766 0.0
H541 H 0.44311 0.04342 0.91505 0.0
H542 H 0.37889 0.9864 0.87902 0.0
H543 H 0.32256 0.02214 0.8757 0.0
H544 H 0.88187 0.59037 0.09277 0.0
H545 H 0.9176 0.53494 0.08743 0.0
H546 H 0.02244 0.60895 0.08399 0.0
H547 H 0.98699 0.66463 0.08976 0.0
H548 H 0.96588 0.51379 0.05955 0.0
H549 H 0.04313 0.53665 0.12602 0.0
H550 H 0.00239 0.56184 0.12007 0.0
H551 H 0.04867 0.57667 0.11055 0.0
C552 C 0.91249 0.59494 0.09072 0.0
C553 C 0.93171 0.63183 0.09193 0.0
C554 C 0.93283 0.56322 0.08762 0.0
C555 C 0.9727 0.5678 0.08567 0.0
C556 C 0.99175 0.60477 0.08586 0.0
H557 H 0.14098 0.40216 0.08424 0.0
H558 H 0.10791 0.45965 0.0798 0.0
C559 C 0.97145 0.63654 0.08907 0.0
C560 C 0.99436 0.53367 0.0845 0.0
H561 H 0.0602 0.48597 0.10739 0.0
C562 C 0.98661 0.50771 0.06995 0.0
C563 C 0.02115 0.52573 0.0982 0.0
C564 C 0.02916 0.55145 0.11469 0.0
C565 C 0.00521 0.47407 0.06869 0.0
C566 C 0.03187 0.46619 0.08242 0.0
C567 C 0.03987 0.49231 0.09683 0.0
C568 C 0.0512 0.43052 0.08256 0.0
C569 C 0.99644 0.44735 0.05266 0.0
C570 C 0.03015 0.39501 0.08534 0.0
C571 C 0.04897 0.36202 0.08793 0.0
C572 C 0.08913 0.36415 0.08787 0.0
C573 C 0.11001 0.39956 0.0844 0.0
C574 C 0.0912 0.43245 0.08184 0.0
H575 H 0.9827 0.46174 0.04113 0.0
H576 H 0.02288 0.43591 0.04749 0.0
H577 H 0.97653 0.42281 0.05726 0.0
H578 H 0.99925 0.39307 0.08627 0.0
H579 H 0.03212 0.33518 0.09062 0.0
H580 H 0.3359 0.42804 0.40576 0.0
H581 H 0.3953 0.46838 0.41183 0.0
H582 H 0.4476 0.41985 0.36455 0.0
H583 H 0.38925 0.37841 0.35896 0.0
H584 H 0.49665 0.42768 0.39185 0.0
H585 H 0.42879 0.56347 0.38384 0.0
H586 H 0.40902 0.53342 0.40211 0.0
H587 H 0.40389 0.51756 0.37859 0.0
C588 C 0.36019 0.42586 0.39675 0.0
C589 C 0.3578 0.40022 0.38181 0.0
C590 C 0.39402 0.44912 0.40015 0.0
C591 C 0.42568 0.44781 0.3884 0.0
C592 C 0.42357 0.42148 0.3738 0.0
H593 H 0.60443 0.61651 0.35948 0.0
H594 H 0.54587 0.57484 0.36429 0.0
C595 C 0.39011 0.3978 0.37059 0.0
C596 C 0.46089 0.47421 0.39081 0.0
H597 H 0.4945 0.56865 0.39062 0.0
C598 C 0.49621 0.45853 0.39168 0.0
C599 C 0.46026 0.51448 0.39047 0.0
C600 C 0.42353 0.53331 0.38854 0.0
C601 C 0.53091 0.48183 0.39147 0.0
C602 C 0.53028 0.52209 0.3911 0.0
C603 C 0.49494 0.5378 0.39099 0.0
C604 C 0.56568 0.54837 0.38901 0.0
C605 C 0.56776 0.46291 0.39062 0.0
C606 C 0.59623 0.54792 0.40147 0.0
C607 C 0.63019 0.57129 0.39853 0.0
C608 C 0.63379 0.59621 0.38334 0.0
C609 C 0.60259 0.59768 0.37133 0.0
C610 C 0.56903 0.57388 0.37409 0.0
H611 H 0.5629 0.43248 0.38631 0.0
H612 H 0.58827 0.47805 0.38086 0.0
H613 H 0.58107 0.46365 0.40449 0.0
H614 H 0.59395 0.52931 0.41339 0.0
H615 H 0.65358 0.56987 0.40815 0.0
H616 H 0.48154 0.16314 0.59694 0.0
H617 H 0.51552 0.10533 0.59641 0.0
H618 H 0.40808 0.03576 0.59206 0.0
H619 H 0.37388 0.09323 0.5928 0.0
H620 H 0.45511 0.01285 0.61996 0.0
H621 H 0.53465 0.03236 0.554 0.0
H622 H 0.54091 0.0726 0.56935 0.0
H623 H 0.49459 0.05894 0.55964 0.0
C624 C 0.46519 0.13556 0.59563 0.0
C625 C 0.42504 0.13273 0.59493 0.0
C626 C 0.48466 0.10258 0.59524 0.0
C627 C 0.4643 0.06632 0.59399 0.0
C628 C 0.42429 0.0635 0.59296 0.0
H629 H 0.52757 0.83242 0.60037 0.0
H630 H 0.4928 0.88941 0.59729 0.0
C631 C 0.40482 0.09638 0.59337 0.0
C632 C 0.48444 0.03118 0.59499 0.0
H633 H 0.55165 0.98244 0.57362 0.0
C634 C 0.47603 0.00603 0.60977 0.0
C635 C 0.51178 0.02252 0.58169 0.0
C636 C 0.52086 0.04781 0.56517 0.0
C637 C 0.4948 0.97274 0.61183 0.0
C638 C 0.52221 0.96411 0.59857 0.0
C639 C 0.53056 0.98919 0.58375 0.0
C640 C 0.5431 0.92954 0.60005 0.0
C641 C 0.48586 0.94761 0.62843 0.0
C642 C 0.58293 0.93329 0.60219 0.0
C643 C 0.60285 0.90086 0.60387 0.0
C644 C 0.58328 0.86406 0.60335 0.0
C645 C 0.5434 0.86037 0.60095 0.0
C646 C 0.52349 0.89288 0.59926 0.0
H647 H 0.47123 0.9628 0.63941 0.0
H648 H 0.46666 0.9222 0.62424 0.0
H649 H 0.51234 0.93743 0.63424 0.0
H650 H 0.59856 0.96136 0.60276 0.0
H651 H 0.63358 0.90467 0.60564 0.0
H652 H 0.88745 0.88124 0.85753 0.0
H653 H 0.94476 0.9245 0.86257 0.0
H654 H 0.88901 0.97803 0.90742 0.0
H655 H 0.83049 0.93596 0.90165 0.0
H656 H 0.92546 0.0302 0.8884 0.0
H657 H 0.02572 0.92124 0.89979 0.0
H658 H 0.00304 0.9126 0.87793 0.0
H659 H 0.97477 0.90903 0.89876 0.0
C660 C 0.88747 0.90205 0.86856 0.0
C661 C 0.85461 0.90508 0.87928 0.0
C662 C 0.92044 0.92655 0.87156 0.0
C663 C 0.92179 0.95379 0.88577 0.0
C664 C 0.88887 0.957 0.89649 0.0
H665 H 0.15 0.07558 0.90042 0.0
H666 H 0.09065 0.03562 0.90716 0.0
C667 C 0.85545 0.93301 0.89318 0.0
C668 C 0.95688 0.98027 0.88856 0.0
H669 H 0.0542 0.98303 0.88899 0.0
C670 C 0.95358 0.01982 0.88889 0.0
C671 C 0.99366 0.967 0.88982 0.0
C672 C 0.9994 0.92512 0.89179 0.0
C673 C 0.98603 0.04635 0.88922 0.0
C674 C 0.02284 0.033 0.88832 0.0
C675 C 0.0261 0.99348 0.88923 0.0
C676 C 0.05806 0.05918 0.88528 0.0
C677 C 0.98027 0.08833 0.89056 0.0
C678 C 0.05973 0.08561 0.87071 0.0
C679 C 0.09322 0.10901 0.86716 0.0
C680 C 0.12625 0.1056 0.87769 0.0
C681 C 0.12493 0.07878 0.89208 0.0
C682 C 0.09103 0.05598 0.89594 0.0
H683 H 0.95395 0.0927 0.89848 0.0
H684 H 0.00489 0.10489 0.8973 0.0
H685 H 0.97661 0.09992 0.87652 0.0
H686 H 0.03537 0.08763 0.86176 0.0
H687 H 0.09357 0.12899 0.85577 0.0
loop_
_geom_bond_atom_site_label_1
_geom_bond_atom_site_label_2
_geom_bond_distance
_geom_bond_site_symmetry_2
_ccdc_geom_bond_type
C0 O1 1.306 . S
C0 O3 1.160 . S
O1 C0 1.306 . S
O1 Cd2 2.228 . S
Cd2 O1 2.228 . S
Cd2 O6 2.273 . S
Cd2 O10 2.277 . S
O3 C0 1.160 . S
O3 Cd4 2.203 . S
Cd4 O3 2.203 . S
Cd4 O6 2.411 . S
Cd4 O7 2.333 . S
Cd4 O8 2.352 . S
Cd4 O12 2.277 . S
Cd4 O13 2.356 . S
C5 O10 1.209 . S
C5 O12 1.226 . S
O6 Cd2 2.273 . S
O6 Cd4 2.411 . S
O6 C9 1.320 . S
O7 Cd4 2.333 . S
O7 C9 1.214 . S
O8 Cd4 2.352 . S
O8 C11 1.258 . S
C9 O6 1.320 . S
C9 O7 1.214 . S
O10 Cd2 2.277 . S
O10 C5 1.209 . S
C11 O8 1.258 . S
C11 O13 1.282 . S
O12 Cd4 2.277 . S
O12 C5 1.226 . S
O13 Cd4 2.356 . S
O13 C11 1.282 . S
C14 O15 1.306 . S
C14 O17 1.160 . S
O15 C14 1.306 . S
O15 Cd16 2.228 . S
Cd16 O15 2.228 . S
Cd16 O20 2.273 . S
Cd16 O24 2.277 . S
O17 C14 1.160 . S
O17 Cd18 2.203 . S
Cd18 O17 2.203 . S
Cd18 O20 2.411 . S
Cd18 O21 2.333 . S
Cd18 O22 2.352 . S
Cd18 O26 2.277 . S
Cd18 O27 2.356 . S
C19 O24 1.209 . S
C19 O26 1.226 . S
O20 Cd16 2.273 . S
O20 Cd18 2.411 . S
O20 C23 1.320 . S
O21 Cd18 2.333 . S
O21 C23 1.214 . S
O22 Cd18 2.352 . S
O22 C25 1.258 . S
C23 O20 1.320 . S
C23 O21 1.214 . S
O24 Cd16 2.277 . S
O24 C19 1.209 . S
C25 O22 1.258 . S
C25 O27 1.282 . S
O26 Cd18 2.277 . S
O26 C19 1.226 . S
O27 Cd18 2.356 . S
O27 C25 1.282 . S
C28 O29 1.306 . S
C28 O31 1.160 . S
O29 C28 1.306 . S
O29 Cd30 2.228 . S
Cd30 O29 2.228 . S
Cd30 O34 2.273 . S
Cd30 O38 2.277 . S
O31 C28 1.160 . S
O31 Cd32 2.203 . S
Cd32 O31 2.203 . S
Cd32 O34 2.411 . S
Cd32 O35 2.333 . S
Cd32 O36 2.352 . S
Cd32 O40 2.277 . S
Cd32 O41 2.356 . S
C33 O38 1.209 . S
C33 O40 1.226 . S
O34 Cd30 2.273 . S
O34 Cd32 2.411 . S
O34 C37 1.320 . S
O35 Cd32 2.333 . S
O35 C37 1.214 . S
O36 Cd32 2.352 . S
O36 C39 1.258 . S
C37 O34 1.320 . S
C37 O35 1.214 . S
O38 Cd30 2.277 . S
O38 C33 1.209 . S
C39 O36 1.258 . S
C39 O41 1.282 . S
O40 Cd32 2.277 . S
O40 C33 1.226 . S
O41 Cd32 2.356 . S
O41 C39 1.282 . S
C42 O43 1.306 . S
C42 O45 1.160 . S
O43 C42 1.306 . S
O43 Cd44 2.228 . S
Cd44 O43 2.228 . S
Cd44 O48 2.273 . S
Cd44 O52 2.277 . S
O45 C42 1.160 . S
O45 Cd46 2.203 . S
Cd46 O45 2.203 . S
Cd46 O48 2.411 . S
Cd46 O49 2.333 . S
Cd46 O50 2.352 . S
Cd46 O54 2.277 . S
Cd46 O55 2.356 . S
C47 O52 1.209 . S
C47 O54 1.226 . S
O48 Cd44 2.273 . S
O48 Cd46 2.411 . S
O48 C51 1.320 . S
O49 Cd46 2.333 . S
O49 C51 1.214 . S
O50 Cd46 2.352 . S
O50 C53 1.258 . S
C51 O48 1.320 . S
C51 O49 1.214 . S
O52 Cd44 2.277 . S
O52 C47 1.209 . S
C53 O50 1.258 . S
C53 O55 1.282 . S
O54 Cd46 2.277 . S
O54 C47 1.226 . S
O55 Cd46 2.356 . S
O55 C53 1.282 . S
C56 O57 1.306 . S
C56 O59 1.160 . S
O57 C56 1.306 . S
O57 Cd58 2.228 . S
Cd58 O57 2.228 . S
Cd58 O62 2.273 . S
Cd58 O66 2.277 . S
O59 C56 1.160 . S
O59 Cd60 2.203 . S
Cd60 O59 2.203 . S
Cd60 O62 2.411 . S
Cd60 O63 2.333 . S
Cd60 O64 2.352 . S
Cd60 O68 2.277 . S
Cd60 O69 2.356 . S
C61 O66 1.209 . S
C61 O68 1.226 . S
O62 Cd58 2.273 . S
O62 Cd60 2.411 . S
O62 C65 1.320 . S
O63 Cd60 2.333 . S
O63 C65 1.214 . S
O64 Cd60 2.352 . S
O64 C67 1.258 . S
C65 O62 1.320 . S
C65 O63 1.214 . S
O66 Cd58 2.277 . S
O66 C61 1.209 . S
C67 O64 1.258 . S
C67 O69 1.282 . S
O68 Cd60 2.277 . S
O68 C61 1.226 . S
O69 Cd60 2.356 . S
O69 C67 1.282 . S
C70 O71 1.306 . S
C70 O73 1.160 . S
O71 C70 1.306 . S
O71 Cd72 2.228 . S
Cd72 O71 2.228 . S
Cd72 O76 2.273 . S
Cd72 O80 2.277 . S
O73 C70 1.160 . S
O73 Cd74 2.203 . S
Cd74 O73 2.203 . S
Cd74 O76 2.411 . S
Cd74 O77 2.333 . S
Cd74 O78 2.352 . S
Cd74 O82 2.277 . S
Cd74 O83 2.356 . S
C75 O80 1.209 . S
C75 O82 1.226 . S
O76 Cd72 2.273 . S
O76 Cd74 2.411 . S
O76 C79 1.320 . S
O77 Cd74 2.333 . S
O77 C79 1.214 . S
O78 Cd74 2.352 . S
O78 C81 1.258 . S
C79 O76 1.320 . S
C79 O77 1.214 . S
O80 Cd72 2.277 . S
O80 C75 1.209 . S
C81 O78 1.258 . S
C81 O83 1.282 . S
O82 Cd74 2.277 . S
O82 C75 1.226 . S
O83 Cd74 2.356 . S
O83 C81 1.282 . S
C84 O85 1.306 . S
C84 O87 1.160 . S
O85 C84 1.306 . S
O85 Cd86 2.228 . S
Cd86 O85 2.228 . S
Cd86 O90 2.273 . S
Cd86 O94 2.277 . S
O87 C84 1.160 . S
O87 Cd88 2.203 . S
Cd88 O87 2.203 . S
Cd88 O90 2.411 . S
Cd88 O91 2.333 . S
Cd88 O92 2.352 . S
Cd88 O96 2.277 . S
Cd88 O97 2.356 . S
C89 O94 1.209 . S
C89 O96 1.226 . S
O90 Cd86 2.273 . S
O90 Cd88 2.411 . S
O90 C93 1.320 . S
O91 Cd88 2.333 . S
O91 C93 1.214 . S
O92 Cd88 2.352 . S
O92 C95 1.258 . S
C93 O90 1.320 . S
C93 O91 1.214 . S
O94 Cd86 2.277 . S
O94 C89 1.209 . S
C95 O92 1.258 . S
C95 O97 1.282 . S
O96 Cd88 2.277 . S
O96 C89 1.226 . S
O97 Cd88 2.356 . S
O97 C95 1.282 . S
C98 O99 1.306 . S
C98 O101 1.160 . S
O99 C98 1.306 . S
O99 Cd100 2.228 . S
Cd100 O99 2.228 . S
Cd100 O104 2.273 . S
Cd100 O108 2.277 . S
O101 C98 1.160 . S
O101 Cd102 2.203 . S
Cd102 O101 2.203 . S
Cd102 O104 2.411 . S
Cd102 O105 2.333 . S
Cd102 O106 2.352 . S
Cd102 O110 2.277 . S
Cd102 O111 2.356 . S
C103 O108 1.209 . S
C103 O110 1.226 . S
O104 Cd100 2.273 . S
O104 Cd102 2.411 . S
O104 C107 1.320 . S
O105 Cd102 2.333 . S
O105 C107 1.214 . S
O106 Cd102 2.352 . S
O106 C109 1.258 . S
C107 O104 1.320 . S
C107 O105 1.214 . S
O108 Cd100 2.277 . S
O108 C103 1.209 . S
C109 O106 1.258 . S
C109 O111 1.282 . S
O110 Cd102 2.277 . S
O110 C103 1.226 . S
O111 Cd102 2.356 . S
O111 C109 1.282 . S
H112 C120 0.929 . S
H113 C122 0.930 . S
H114 C124 0.930 . S
H115 C127 0.929 . S
H116 C130 0.930 . S
H117 C132 0.960 . S
H118 C132 0.960 . S
H119 C132 0.960 . S
C120 H112 0.929 . S
C120 C121 1.377 . S
C120 C122 1.384 . S
C121 C120 1.377 . S
C121 C127 1.390 . S
C122 H113 0.930 . S
C122 C120 1.384 . S
C122 C123 1.372 . S
C123 C122 1.372 . S
C123 C124 1.400 . S
C123 C128 1.490 . S
C124 H114 0.930 . S
C124 C123 1.400 . S
C124 C127 1.386 . S
H125 C141 0.930 . S
H126 C142 0.931 . S
C127 H115 0.929 . S
C127 C121 1.390 . S
C127 C124 1.386 . S
C128 C123 1.490 . S
C128 C130 1.395 . S
C128 C131 1.403 . S
H129 C135 0.930 . S
C130 H116 0.930 . S
C130 C128 1.395 . S
C130 C133 1.403 1_554 S
C131 C128 1.403 . S
C131 C132 1.524 . S
C131 C135 1.400 1_554 S
C132 H117 0.960 . S
C132 H118 0.960 . S
C132 H119 0.960 . S
C132 C131 1.524 . S
C133 C130 1.403 1_556 S
C133 C134 1.392 . S
C133 C137 1.495 . S
C134 C133 1.392 . S
C134 C135 1.385 . S
C134 C136 1.478 . S
C135 H129 0.930 . S
C135 C131 1.400 1_556 S
C135 C134 1.385 . S
C136 C134 1.478 . S
C136 C138 1.381 . S
C136 C142 1.383 . S
C137 C133 1.495 . S
C137 H143 0.959 . S
C137 H144 0.961 . S
C137 H145 0.960 . S
C138 C136 1.381 . S
C138 C139 1.394 . S
C138 H146 0.930 . S
C139 C138 1.394 . S
C139 C140 1.383 . S
C139 H147 0.929 . S
C140 C139 1.383 . S
C140 C141 1.377 . S
C141 H125 0.930 . S
C141 C140 1.377 . S
C141 C142 1.379 . S
C142 H126 0.931 . S
C142 C136 1.383 . S
C142 C141 1.379 . S
H143 C137 0.959 . S
H144 C137 0.961 . S
H145 C137 0.960 . S
H146 C138 0.930 . S
H147 C139 0.929 . S
H148 C156 0.929 . S
H149 C158 0.930 . S
H150 C160 0.930 . S
H151 C163 0.929 . S
H152 C166 0.930 . S
H153 C168 0.960 . S
H154 C168 0.960 . S
H155 C168 0.960 . S
C156 H148 0.929 . S
C156 C157 1.377 . S
C156 C158 1.384 . S
C157 C156 1.377 . S
C157 C163 1.390 . S
C158 H149 0.930 . S
C158 C156 1.384 . S
C158 C159 1.372 . S
C159 C158 1.372 . S
C159 C160 1.400 . S
C159 C164 1.490 . S
C160 H150 0.930 . S
C160 C159 1.400 . S
C160 C163 1.386 . S
H161 C177 0.930 . S
H162 C178 0.931 . S
C163 H151 0.929 . S
C163 C157 1.390 . S
C163 C160 1.386 . S
C164 C159 1.490 . S
C164 C166 1.395 . S
C164 C167 1.403 . S
H165 C171 0.930 . S
C166 H152 0.930 . S
C166 C164 1.395 . S
C166 C169 1.403 . S
C167 C164 1.403 . S
C167 C168 1.524 . S
C167 C171 1.400 . S
C168 H153 0.960 . S
C168 H154 0.960 . S
C168 H155 0.960 . S
C168 C167 1.524 . S
C169 C166 1.403 . S
C169 C170 1.392 . S
C169 C173 1.495 . S
C170 C169 1.392 . S
C170 C171 1.385 . S
C170 C172 1.478 . S
C171 H165 0.930 . S
C171 C167 1.400 . S
C171 C170 1.385 . S
C172 C170 1.478 . S
C172 C174 1.381 . S
C172 C178 1.383 . S
C173 C169 1.495 . S
C173 H179 0.959 . S
C173 H180 0.961 . S
C173 H181 0.960 . S
C174 C172 1.381 . S
C174 C175 1.394 . S
C174 H182 0.930 . S
C175 C174 1.394 . S
C175 C176 1.383 . S
C175 H183 0.929 . S
C176 C175 1.383 . S
C176 C177 1.377 . S
C177 H161 0.930 . S
C177 C176 1.377 . S
C177 C178 1.379 . S
C178 H162 0.931 . S
C178 C172 1.383 . S
C178 C177 1.379 . S
H179 C173 0.959 . S
H180 C173 0.961 . S
H181 C173 0.960 . S
H182 C174 0.930 . S
H183 C175 0.929 . S
H184 C192 0.929 . S
H185 C194 0.930 . S
H186 C196 0.930 . S
H187 C199 0.929 . S
H188 C202 0.930 . S
H189 C204 0.960 . S
H190 C204 0.960 . S
H191 C204 0.960 . S
C192 H184 0.929 . S
C192 C193 1.377 . S
C192 C194 1.384 . S
C193 C192 1.377 . S
C193 C199 1.390 . S
C194 H185 0.930 . S
C194 C192 1.384 . S
C194 C195 1.372 . S
C195 C194 1.372 . S
C195 C196 1.400 . S
C195 C200 1.490 . S
C196 H186 0.930 . S
C196 C195 1.400 . S
C196 C199 1.386 . S
H197 C213 0.930 . S
H198 C214 0.931 . S
C199 H187 0.929 . S
C199 C193 1.390 . S
C199 C196 1.386 . S
C200 C195 1.490 . S
C200 C202 1.395 . S
C200 C203 1.403 . S
H201 C207 0.930 . S
C202 H188 0.930 . S
C202 C200 1.395 . S
C202 C205 1.403 . S
C203 C200 1.403 . S
C203 C204 1.524 . S
C203 C207 1.400 . S
C204 H189 0.960 . S
C204 H190 0.960 . S
C204 H191 0.960 . S
C204 C203 1.524 . S
C205 C202 1.403 . S
C205 C206 1.392 . S
C205 C209 1.495 . S
C206 C205 1.392 . S
C206 C207 1.385 . S
C206 C208 1.478 . S
C207 H201 0.930 . S
C207 C203 1.400 . S
C207 C206 1.385 . S
C208 C206 1.478 . S
C208 C210 1.381 . S
C208 C214 1.383 . S
C209 C205 1.495 . S
C209 H215 0.959 . S
C209 H216 0.961 . S
C209 H217 0.960 . S
C210 C208 1.381 . S
C210 C211 1.394 . S
C210 H218 0.930 . S
C211 C210 1.394 . S
C211 C212 1.383 . S
C211 H219 0.929 . S
C212 C211 1.383 . S
C212 C213 1.377 . S
C213 H197 0.930 . S
C213 C212 1.377 . S
C213 C214 1.379 . S
C214 H198 0.931 . S
C214 C208 1.383 . S
C214 C213 1.379 . S
H215 C209 0.959 . S
H216 C209 0.961 . S
H217 C209 0.960 . S
H218 C210 0.930 . S
H219 C211 0.929 . S
H220 C228 0.929 . S
H221 C230 0.930 . S
H222 C232 0.930 . S
H223 C235 0.929 . S
H224 C238 0.930 . S
H225 C240 0.960 . S
H226 C240 0.960 . S
H227 C240 0.960 . S
C228 H220 0.929 . S
C228 C229 1.377 . S
C228 C230 1.384 . S
C229 C228 1.377 . S
C229 C235 1.390 . S
C230 H221 0.930 . S
C230 C228 1.384 . S
C230 C231 1.372 . S
C231 C230 1.372 . S
C231 C232 1.400 . S
C231 C236 1.490 . S
C232 H222 0.930 . S
C232 C231 1.400 . S
C232 C235 1.386 . S
H233 C249 0.930 . S
H234 C250 0.931 . S
C235 H223 0.929 . S
C235 C229 1.390 . S
C235 C232 1.386 . S
C236 C231 1.490 . S
C236 C238 1.395 . S
C236 C239 1.403 . S
H237 C243 0.930 . S
C238 H224 0.930 . S
C238 C236 1.395 . S
C238 C241 1.403 . S
C239 C236 1.403 . S
C239 C240 1.524 . S
C239 C243 1.400 . S
C240 H225 0.960 . S
C240 H226 0.960 . S
C240 H227 0.960 . S
C240 C239 1.524 . S
C241 C238 1.403 . S
C241 C242 1.392 . S
C241 C245 1.495 . S
C242 C241 1.392 . S
C242 C243 1.385 . S
C242 C244 1.478 . S
C243 H237 0.930 . S
C243 C239 1.400 . S
C243 C242 1.385 . S
C244 C242 1.478 . S
C244 C246 1.381 . S
C244 C250 1.383 . S
C245 C241 1.495 . S
C245 H251 0.959 . S
C245 H252 0.961 . S
C245 H253 0.960 . S
C246 C244 1.381 . S
C246 C247 1.394 . S
C246 H254 0.930 . S
C247 C246 1.394 . S
C247 C248 1.383 . S
C247 H255 0.929 . S
C248 C247 1.383 . S
C248 C249 1.377 . S
C249 H233 0.930 . S
C249 C248 1.377 . S
C249 C250 1.379 . S
C250 H234 0.931 . S
C250 C244 1.383 . S
C250 C249 1.379 . S
H251 C245 0.959 . S
H252 C245 0.961 . S
H253 C245 0.960 . S
H254 C246 0.930 . S
H255 C247 0.929 . S
H256 C264 0.929 . S
H257 C266 0.930 . S
H258 C268 0.930 . S
H259 C271 0.929 . S
H260 C274 0.930 . S
H261 C276 0.960 . S
H262 C276 0.960 . S
H263 C276 0.960 . S
C264 H256 0.929 . S
C264 C265 1.377 . S
C264 C266 1.384 . S
C265 C264 1.377 . S
C265 C271 1.390 . S
C266 H257 0.930 . S
C266 C264 1.384 . S
C266 C267 1.372 . S
C267 C266 1.372 . S
C267 C268 1.400 . S
C267 C272 1.490 . S
C268 H258 0.930 . S
C268 C267 1.400 . S
C268 C271 1.386 . S
H269 C285 0.930 . S
H270 C286 0.931 . S
C271 H259 0.929 . S
C271 C265 1.390 . S
C271 C268 1.386 . S
C272 C267 1.490 . S
C272 C274 1.395 . S
C272 C275 1.403 . S
H273 C279 0.930 . S
C274 H260 0.930 . S
C274 C272 1.395 . S
C274 C277 1.403 . S
C275 C272 1.403 . S
C275 C276 1.524 . S
C275 C279 1.400 . S
C276 H261 0.960 . S
C276 H262 0.960 . S
C276 H263 0.960 . S
C276 C275 1.524 . S
C277 C274 1.403 . S
C277 C278 1.392 . S
C277 C281 1.495 . S
C278 C277 1.392 . S
C278 C279 1.385 . S
C278 C280 1.478 . S
C279 H273 0.930 . S
C279 C275 1.400 . S
C279 C278 1.385 . S
C280 C278 1.478 . S
C280 C282 1.381 . S
C280 C286 1.383 . S
C281 C277 1.495 . S
C281 H287 0.959 . S
C281 H288 0.961 . S
C281 H289 0.960 . S
C282 C280 1.381 . S
C282 C283 1.394 . S
C282 H290 0.930 . S
C283 C282 1.394 . S
C283 C284 1.383 . S
C283 H291 0.929 . S
C284 C283 1.383 . S
C284 C285 1.377 . S
C285 H269 0.930 . S
C285 C284 1.377 . S
C285 C286 1.379 . S
C286 H270 0.931 . S
C286 C280 1.383 . S
C286 C285 1.379 . S
H287 C281 0.959 . S
H288 C281 0.961 . S
H289 C281 0.960 . S
H290 C282 0.930 . S
H291 C283 0.929 . S
H292 C300 0.929 . S
H293 C302 0.930 . S
H294 C304 0.930 . S
H295 C307 0.929 . S
H296 C310 0.930 . S
H297 C312 0.960 . S
H298 C312 0.960 . S
H299 C312 0.960 . S
C300 H292 0.929 . S
C300 C301 1.377 . S
C300 C302 1.384 . S
C301 C300 1.377 . S
C301 C307 1.390 . S
C302 H293 0.930 . S
C302 C300 1.384 . S
C302 C303 1.372 . S
C303 C302 1.372 . S
C303 C304 1.400 . S
C303 C308 1.490 . S
C304 H294 0.930 . S
C304 C303 1.400 . S
C304 C307 1.386 . S
H305 C321 0.930 . S
H306 C322 0.931 . S
C307 H295 0.929 . S
C307 C301 1.390 . S
C307 C304 1.386 . S
C308 C303 1.490 . S
C308 C310 1.395 . S
C308 C311 1.403 . S
H309 C315 0.930 . S
C310 H296 0.930 . S
C310 C308 1.395 . S
C310 C313 1.403 . S
C311 C308 1.403 . S
C311 C312 1.524 . S
C311 C315 1.400 . S
C312 H297 0.960 . S
C312 H298 0.960 . S
C312 H299 0.960 . S
C312 C311 1.524 . S
C313 C310 1.403 . S
C313 C314 1.392 . S
C313 C317 1.495 . S
C314 C313 1.392 . S
C314 C315 1.385 . S
C314 C316 1.478 . S
C315 H309 0.930 . S
C315 C311 1.400 . S
C315 C314 1.385 . S
C316 C314 1.478 . S
C316 C318 1.381 . S
C316 C322 1.383 . S
C317 C313 1.495 . S
C317 H323 0.959 . S
C317 H324 0.961 . S
C317 H325 0.960 . S
C318 C316 1.381 . S
C318 C319 1.394 . S
C318 H326 0.930 . S
C319 C318 1.394 . S
C319 C320 1.383 . S
C319 H327 0.929 . S
C320 C319 1.383 . S
C320 C321 1.377 . S
C321 H305 0.930 . S
C321 C320 1.377 . S
C321 C322 1.379 . S
C322 H306 0.931 . S
C322 C316 1.383 . S
C322 C321 1.379 . S
H323 C317 0.959 . S
H324 C317 0.961 . S
H325 C317 0.960 . S
H326 C318 0.930 . S
H327 C319 0.929 . S
H328 C336 0.929 . S
H329 C338 0.930 . S
H330 C340 0.930 . S
H331 C343 0.929 . S
H332 C346 0.930 . S
H333 C348 0.960 . S
H334 C348 0.960 . S
H335 C348 0.960 . S
C336 H328 0.929 . S
C336 C337 1.377 . S
C336 C338 1.384 . S
C337 C336 1.377 . S
C337 C343 1.390 . S
C338 H329 0.930 . S
C338 C336 1.384 . S
C338 C339 1.372 . S
C339 C338 1.372 . S
C339 C340 1.400 . S
C339 C344 1.490 . S
C340 H330 0.930 . S
C340 C339 1.400 . S
C340 C343 1.386 . S
H341 C357 0.930 . S
H342 C358 0.931 . S
C343 H331 0.929 . S
C343 C337 1.390 . S
C343 C340 1.386 . S
C344 C339 1.490 . S
C344 C346 1.395 . S
C344 C347 1.403 . S
H345 C351 0.930 . S
C346 H332 0.930 . S
C346 C344 1.395 . S
C346 C349 1.403 . S
C347 C344 1.403 . S
C347 C348 1.524 . S
C347 C351 1.400 . S
C348 H333 0.960 . S
C348 H334 0.960 . S
C348 H335 0.960 . S
C348 C347 1.524 . S
C349 C346 1.403 . S
C349 C350 1.392 . S
C349 C353 1.495 . S
C350 C349 1.392 . S
C350 C351 1.385 . S
C350 C352 1.478 . S
C351 H345 0.930 . S
C351 C347 1.400 . S
C351 C350 1.385 . S
C352 C350 1.478 . S
C352 C354 1.381 . S
C352 C358 1.383 . S
C353 C349 1.495 . S
C353 H359 0.959 . S
C353 H360 0.961 . S
C353 H361 0.960 . S
C354 C352 1.381 . S
C354 C355 1.394 . S
C354 H362 0.930 . S
C355 C354 1.394 . S
C355 C356 1.383 . S
C355 H363 0.929 . S
C356 C355 1.383 . S
C356 C357 1.377 . S
C357 H341 0.930 . S
C357 C356 1.377 . S
C357 C358 1.379 . S
C358 H342 0.931 . S
C358 C352 1.383 . S
C358 C357 1.379 . S
H359 C353 0.959 . S
H360 C353 0.961 . S
H361 C353 0.960 . S
H362 C354 0.930 . S
H363 C355 0.929 . S
H364 C372 0.929 . S
H365 C374 0.930 . S
H366 C376 0.930 . S
H367 C379 0.929 . S
H368 C382 0.930 . S
H369 C384 0.960 1_556 S
H370 C384 0.960 . S
H371 C384 0.960 . S
C372 H364 0.929 . S
C372 C373 1.377 . S
C372 C374 1.384 . S
C373 C372 1.377 . S
C373 C379 1.390 . S
C374 H365 0.930 . S
C374 C372 1.384 . S
C374 C375 1.372 . S
C375 C374 1.372 . S
C375 C376 1.400 . S
C375 C380 1.490 . S
C376 H366 0.930 . S
C376 C375 1.400 . S
C376 C379 1.386 . S
H377 C393 0.930 . S
H378 C394 0.931 . S
C379 H367 0.929 . S
C379 C373 1.390 . S
C379 C376 1.386 . S
C380 C375 1.490 . S
C380 C382 1.395 . S
C380 C383 1.403 . S
H381 C387 0.930 . S
C382 H368 0.930 . S
C382 C380 1.395 . S
C382 C385 1.403 1_554 S
C383 C380 1.403 . S
C383 C384 1.524 . S
C383 C387 1.400 1_554 S
C384 H369 0.960 1_554 S
C384 H370 0.960 . S
C384 H371 0.960 . S
C384 C383 1.524 . S
C385 C382 1.403 1_556 S
C385 C386 1.392 . S
C385 C389 1.495 . S
C386 C385 1.392 . S
C386 C387 1.385 . S
C386 C388 1.478 . S
C387 H381 0.930 . S
C387 C383 1.400 1_556 S
C387 C386 1.385 . S
C388 C386 1.478 . S
C388 C390 1.381 . S
C388 C394 1.383 . S
C389 C385 1.495 . S
C389 H395 0.959 1_556 S
C389 H396 0.961 . S
C389 H397 0.960 . S
C390 C388 1.381 . S
C390 C391 1.394 . S
C390 H398 0.930 . S
C391 C390 1.394 . S
C391 C392 1.383 . S
C391 H399 0.929 . S
C392 C391 1.383 . S
C392 C393 1.377 . S
C393 H377 0.930 . S
C393 C392 1.377 . S
C393 C394 1.379 . S
C394 H378 0.931 . S
C394 C388 1.383 . S
C394 C393 1.379 . S
H395 C389 0.959 1_554 S
H396 C389 0.961 . S
H397 C389 0.960 . S
H398 C390 0.930 . S
H399 C391 0.929 . S
H400 C408 0.929 . S
H401 C410 0.930 . S
H402 C412 0.930 . S
H403 C415 0.929 . S
H404 C418 0.930 . S
H405 C420 0.960 1_655 S
H406 C420 0.960 1_655 S
H407 C420 0.960 . S
C408 H400 0.929 . S
C408 C409 1.377 . S
C408 C410 1.384 . S
C409 C408 1.377 . S
C409 C415 1.390 . S
C410 H401 0.930 . S
C410 C408 1.384 . S
C410 C411 1.372 . S
C411 C410 1.372 . S
C411 C412 1.400 . S
C411 C416 1.490 . S
C412 H402 0.930 . S
C412 C411 1.400 . S
C412 C415 1.386 . S
H413 C429 0.930 . S
H414 C430 0.931 . S
C415 H403 0.929 . S
C415 C409 1.390 . S
C415 C412 1.386 . S
C416 C411 1.490 . S
C416 C418 1.395 . S
C416 C419 1.403 . S
H417 C423 0.930 . S
C418 H404 0.930 . S
C418 C416 1.395 . S
C418 C421 1.403 1_445 S
C419 C416 1.403 . S
C419 C420 1.524 . S
C419 C423 1.400 1_445 S
C420 H405 0.960 1_455 S
C420 H406 0.960 1_455 S
C420 H407 0.960 . S
C420 C419 1.524 . S
C421 C418 1.403 1_665 S
C421 C422 1.392 . S
C421 C425 1.495 . S
C422 C421 1.392 . S
C422 C423 1.385 . S
C422 C424 1.478 . S
C423 H417 0.930 . S
C423 C419 1.400 1_665 S
C423 C422 1.385 . S
C424 C422 1.478 . S
C424 C426 1.381 . S
C424 C430 1.383 . S
C425 C421 1.495 . S
C425 H431 0.968 . S
C425 H432 0.961 . S
C425 H433 0.960 . S
C426 C424 1.381 . S
C426 C427 1.394 . S
C426 H434 0.930 . S
C427 C426 1.394 . S
C427 C428 1.383 . S
C427 H435 0.929 . S
C428 C427 1.383 . S
C428 C429 1.377 . S
C429 H413 0.930 . S
C429 C428 1.377 . S
C429 C430 1.379 . S
C430 H414 0.931 . S
C430 C424 1.383 . S
C430 C429 1.379 . S
H431 C425 0.968 . S
H432 C425 0.961 . S
H433 C425 0.960 . S
H434 C426 0.930 . S
H435 C427 0.929 . S
H436 C444 0.929 . S
H437 C446 0.930 . S
H438 C448 0.930 . S
H439 C451 0.929 . S
H440 C454 0.930 . S
H441 C456 0.960 . S
H442 C456 0.960 . S
H443 C456 0.960 . S
C444 H436 0.929 . S
C444 C445 1.377 . S
C444 C446 1.384 . S
C445 C444 1.377 . S
C445 C451 1.390 . S
C446 H437 0.930 . S
C446 C444 1.384 . S
C446 C447 1.372 . S
C447 C446 1.372 . S
C447 C448 1.400 . S
C447 C452 1.490 . S
C448 H438 0.930 . S
C448 C447 1.400 . S
C448 C451 1.386 . S
H449 C465 0.930 . S
H450 C466 0.931 . S
C451 H439 0.929 . S
C451 C445 1.390 . S
C451 C448 1.386 . S
C452 C447 1.490 . S
C452 C454 1.395 . S
C452 C455 1.403 1_455 S
H453 C459 0.930 . S
C454 H440 0.930 . S
C454 C452 1.395 . S
C454 C457 1.403 . S
C455 C452 1.403 1_655 S
C455 C456 1.524 . S
C455 C459 1.400 . S
C456 H441 0.960 . S
C456 H442 0.960 . S
C456 H443 0.960 . S
C456 C455 1.524 . S
C457 C454 1.403 . S
C457 C458 1.392 1_455 S
C457 C461 1.495 . S
C458 C457 1.392 1_655 S
C458 C459 1.385 . S
C458 C460 1.478 . S
C459 H453 0.930 . S
C459 C455 1.400 . S
C459 C458 1.385 . S
C460 C458 1.478 . S
C460 C462 1.381 . S
C460 C466 1.383 . S
C461 C457 1.495 . S
C461 H467 0.959 . S
C461 H468 0.961 . S
C461 H469 0.960 . S
C462 C460 1.381 . S
C462 C463 1.394 . S
C462 H470 0.930 . S
C463 C462 1.394 . S
C463 C464 1.383 . S
C463 H471 0.929 . S
C464 C463 1.383 . S
C464 C465 1.377 . S
C465 H449 0.930 . S
C465 C464 1.377 . S
C465 C466 1.379 . S
C466 H450 0.931 . S
C466 C460 1.383 . S
C466 C465 1.379 . S
H467 C461 0.959 . S
H468 C461 0.961 . S
H469 C461 0.960 . S
H470 C462 0.930 . S
H471 C463 0.929 . S
H472 C480 0.929 . S
H473 C482 0.930 . S
H474 C484 0.930 . S
H475 C487 0.929 . S
H476 C490 0.930 . S
H477 C492 0.960 . S
H478 C492 0.960 . S
H479 C492 0.960 . S
C480 H472 0.929 . S
C480 C481 1.377 . S
C480 C482 1.384 . S
C481 C480 1.377 . S
C481 C487 1.390 . S
C482 H473 0.930 . S
C482 C480 1.384 . S
C482 C483 1.372 . S
C483 C482 1.372 . S
C483 C484 1.400 . S
C483 C488 1.490 . S
C484 H474 0.930 . S
C484 C483 1.400 . S
C484 C487 1.386 . S
H485 C501 0.930 . S
H486 C502 0.931 . S
C487 H475 0.929 . S
C487 C481 1.390 . S
C487 C484 1.386 . S
C488 C483 1.490 . S
C488 C490 1.395 . S
C488 C491 1.403 . S
H489 C495 0.930 . S
C490 H476 0.930 . S
C490 C488 1.395 . S
C490 C493 1.403 . S
C491 C488 1.403 . S
C491 C492 1.524 . S
C491 C495 1.400 . S
C492 H477 0.960 . S
C492 H478 0.960 . S
C492 H479 0.960 . S
C492 C491 1.524 . S
C493 C490 1.403 . S
C493 C494 1.392 . S
C493 C497 1.495 . S
C494 C493 1.392 . S
C494 C495 1.385 . S
C494 C496 1.478 . S
C495 H489 0.930 . S
C495 C491 1.400 . S
C495 C494 1.385 . S
C496 C494 1.478 . S
C496 C498 1.381 . S
C496 C502 1.383 . S
C497 C493 1.495 . S
C497 H503 0.959 . S
C497 H504 0.961 . S
C497 H505 0.960 . S
C498 C496 1.381 . S
C498 C499 1.394 . S
C498 H506 0.930 . S
C499 C498 1.394 . S
C499 C500 1.383 . S
C499 H507 0.929 . S
C500 C499 1.383 . S
C500 C501 1.377 . S
C501 H485 0.930 . S
C501 C500 1.377 . S
C501 C502 1.379 . S
C502 H486 0.931 . S
C502 C496 1.383 . S
C502 C501 1.379 . S
H503 C497 0.959 . S
H504 C497 0.961 . S
H505 C497 0.960 . S
H506 C498 0.930 . S
H507 C499 0.929 . S
H508 C516 0.929 . S
H509 C518 0.930 . S
H510 C520 0.930 . S
H511 C523 0.929 . S
H512 C526 0.930 . S
H513 C528 0.960 . S
H514 C528 0.960 . S
H515 C528 0.960 . S
C516 H508 0.929 . S
C516 C517 1.377 . S
C516 C518 1.384 . S
C517 C516 1.377 . S
C517 C523 1.390 . S
C518 H509 0.930 . S
C518 C516 1.384 . S
C518 C519 1.372 . S
C519 C518 1.372 . S
C519 C520 1.400 . S
C519 C524 1.490 . S
C520 H510 0.930 . S
C520 C519 1.400 . S
C520 C523 1.386 . S
H521 C537 0.930 . S
H522 C538 0.931 . S
C523 H511 0.929 . S
C523 C517 1.390 . S
C523 C520 1.386 . S
C524 C519 1.490 . S
C524 C526 1.395 1_565 S
C524 C527 1.403 . S
H525 C531 0.930 . S
C526 H512 0.930 . S
C526 C524 1.395 1_545 S
C526 C529 1.403 . S
C527 C524 1.403 . S
C527 C528 1.524 . S
C527 C531 1.400 . S
C528 H513 0.960 . S
C528 H514 0.960 . S
C528 H515 0.960 . S
C528 C527 1.524 . S
C529 C526 1.403 . S
C529 C530 1.392 . S
C529 C533 1.495 . S
C530 C529 1.392 . S
C530 C531 1.385 1_545 S
C530 C532 1.478 . S
C531 H525 0.930 . S
C531 C527 1.400 . S
C531 C530 1.385 1_565 S
C532 C530 1.478 . S
C532 C534 1.381 . S
C532 C538 1.383 . S
C533 C529 1.495 . S
C533 H539 0.959 . S
C533 H540 0.961 . S
C533 H541 0.960 . S
C534 C532 1.381 . S
C534 C535 1.394 . S
C534 H542 0.930 . S
C535 C534 1.394 . S
C535 C536 1.383 . S
C535 H543 0.929 . S
C536 C535 1.383 . S
C536 C537 1.377 . S
C537 H521 0.930 . S
C537 C536 1.377 . S
C537 C538 1.379 . S
C538 H522 0.931 . S
C538 C532 1.383 . S
C538 C537 1.379 . S
H539 C533 0.959 . S
H540 C533 0.961 . S
H541 C533 0.960 . S
H542 C534 0.930 . S
H543 C535 0.929 . S
H544 C552 0.929 . S
H545 C554 0.930 . S
H546 C556 0.930 . S
H547 C559 0.929 . S
H548 C562 0.930 . S
H549 C564 0.960 . S
H550 C564 0.960 . S
H551 C564 0.960 . S
C552 H544 0.929 . S
C552 C553 1.377 . S
C552 C554 1.384 . S
C553 C552 1.377 . S
C553 C559 1.390 . S
C554 H545 0.930 . S
C554 C552 1.384 . S
C554 C555 1.372 . S
C555 C554 1.372 . S
C555 C556 1.400 . S
C555 C560 1.490 . S
C556 H546 0.930 . S
C556 C555 1.400 . S
C556 C559 1.386 . S
H557 C573 0.930 . S
H558 C574 0.931 . S
C559 H547 0.929 . S
C559 C553 1.390 . S
C559 C556 1.386 . S
C560 C555 1.490 . S
C560 C562 1.395 . S
C560 C563 1.403 1_655 S
H561 C567 0.930 . S
C562 H548 0.930 . S
C562 C560 1.395 . S
C562 C565 1.403 . S
C563 C560 1.403 1_455 S
C563 C564 1.524 . S
C563 C567 1.400 . S
C564 H549 0.960 . S
C564 H550 0.960 . S
C564 H551 0.960 . S
C564 C563 1.524 . S
C565 C562 1.403 . S
C565 C566 1.392 1_655 S
C565 C569 1.495 . S
C566 C565 1.392 1_455 S
C566 C567 1.385 . S
C566 C568 1.478 . S
C567 H561 0.930 . S
C567 C563 1.400 . S
C567 C566 1.385 . S
C568 C566 1.478 . S
C568 C570 1.381 . S
C568 C574 1.383 . S
C569 C565 1.495 . S
C569 H575 0.959 . S
C569 H576 0.961 . S
C569 H577 0.960 . S
C570 C568 1.381 . S
C570 C571 1.394 . S
C570 H578 0.930 . S
C571 C570 1.394 . S
C571 C572 1.383 . S
C571 H579 0.929 . S
C572 C571 1.383 . S
C572 C573 1.377 . S
C573 H557 0.930 . S
C573 C572 1.377 . S
C573 C574 1.379 . S
C574 H558 0.931 . S
C574 C568 1.383 . S
C574 C573 1.379 . S
H575 C569 0.959 . S
H576 C569 0.961 . S
H577 C569 0.960 . S
H578 C570 0.930 . S
H579 C571 0.929 . S
H580 C588 0.929 . S
H581 C590 0.930 . S
H582 C592 0.930 . S
H583 C595 0.929 . S
H584 C598 0.930 . S
H585 C600 0.960 . S
H586 C600 0.960 . S
H587 C600 0.960 . S
C588 H580 0.929 . S
C588 C589 1.377 . S
C588 C590 1.384 . S
C589 C588 1.377 . S
C589 C595 1.390 . S
C590 H581 0.930 . S
C590 C588 1.384 . S
C590 C591 1.372 . S
C591 C590 1.372 . S
C591 C592 1.400 . S
C591 C596 1.490 . S
C592 H582 0.930 . S
C592 C591 1.400 . S
C592 C595 1.386 . S
H593 C609 0.930 . S
H594 C610 0.931 . S
C595 H583 0.929 . S
C595 C589 1.390 . S
C595 C592 1.386 . S
C596 C591 1.490 . S
C596 C598 1.395 . S
C596 C599 1.403 . S
H597 C603 0.930 . S
C598 H584 0.930 . S
C598 C596 1.395 . S
C598 C601 1.403 . S
C599 C596 1.403 . S
C599 C600 1.524 . S
C599 C603 1.400 . S
C600 H585 0.960 . S
C600 H586 0.960 . S
C600 H587 0.960 . S
C600 C599 1.524 . S
C601 C598 1.403 . S
C601 C602 1.392 . S
C601 C605 1.495 . S
C602 C601 1.392 . S
C602 C603 1.385 . S
C602 C604 1.478 . S
C603 H597 0.930 . S
C603 C599 1.400 . S
C603 C602 1.385 . S
C604 C602 1.478 . S
C604 C606 1.381 . S
C604 C610 1.383 . S
C605 C601 1.495 . S
C605 H611 0.959 . S
C605 H612 0.961 . S
C605 H613 0.960 . S
C606 C604 1.381 . S
C606 C607 1.394 . S
C606 H614 0.930 . S
C607 C606 1.394 . S
C607 C608 1.383 . S
C607 H615 0.929 . S
C608 C607 1.383 . S
C608 C609 1.377 . S
C609 H593 0.930 . S
C609 C608 1.377 . S
C609 C610 1.379 . S
C610 H594 0.931 . S
C610 C604 1.383 . S
C610 C609 1.379 . S
H611 C605 0.959 . S
H612 C605 0.961 . S
H613 C605 0.960 . S
H614 C606 0.930 . S
H615 C607 0.929 . S
H616 C624 0.929 . S
H617 C626 0.930 . S
H618 C628 0.930 . S
H619 C631 0.929 . S
H620 C634 0.930 . S
H621 C636 0.960 . S
H622 C636 0.960 . S
H623 C636 0.960 . S
C624 H616 0.929 . S
C624 C625 1.377 . S
C624 C626 1.384 . S
C625 C624 1.377 . S
C625 C631 1.390 . S
C626 H617 0.930 . S
C626 C624 1.384 . S
C626 C627 1.372 . S
C627 C626 1.372 . S
C627 C628 1.400 . S
C627 C632 1.490 . S
C628 H618 0.930 . S
C628 C627 1.400 . S
C628 C631 1.386 . S
H629 C645 0.930 . S
H630 C646 0.931 . S
C631 H619 0.929 . S
C631 C625 1.390 . S
C631 C628 1.386 . S
C632 C627 1.490 . S
C632 C634 1.395 . S
C632 C635 1.403 . S
H633 C639 0.930 . S
C634 H620 0.930 . S
C634 C632 1.395 . S
C634 C637 1.403 1_545 S
C635 C632 1.403 . S
C635 C636 1.524 . S
C635 C639 1.400 1_545 S
C636 H621 0.960 . S
C636 H622 0.960 . S
C636 H623 0.960 . S
C636 C635 1.524 . S
C637 C634 1.403 1_565 S
C637 C638 1.392 . S
C637 C641 1.495 . S
C638 C637 1.392 . S
C638 C639 1.385 . S
C638 C640 1.478 . S
C639 H633 0.930 . S
C639 C635 1.400 1_565 S
C639 C638 1.385 . S
C640 C638 1.478 . S
C640 C642 1.381 . S
C640 C646 1.383 . S
C641 C637 1.495 . S
C641 H647 0.959 . S
C641 H648 0.961 . S
C641 H649 0.960 . S
C642 C640 1.381 . S
C642 C643 1.394 . S
C642 H650 0.930 . S
C643 C642 1.394 . S
C643 C644 1.383 . S
C643 H651 0.929 . S
C644 C643 1.383 . S
C644 C645 1.377 . S
C645 H629 0.930 . S
C645 C644 1.377 . S
C645 C646 1.379 . S
C646 H630 0.931 . S
C646 C640 1.383 . S
C646 C645 1.379 . S
H647 C641 0.959 . S
H648 C641 0.961 . S
H649 C641 0.960 . S
H650 C642 0.930 . S
H651 C643 0.929 . S
H652 C660 0.929 . S
H653 C662 0.930 . S
H654 C664 0.930 . S
H655 C667 0.929 . S
H656 C670 0.930 . S
H657 C672 0.978 . S
H658 C672 0.956 1_655 S
H659 C672 0.950 1_655 S
C660 H652 0.929 . S
C660 C661 1.377 . S
C660 C662 1.384 . S
C661 C660 1.377 . S
C661 C667 1.390 . S
C662 H653 0.930 . S
C662 C660 1.384 . S
C662 C663 1.372 . S
C663 C662 1.372 . S
C663 C664 1.400 . S
C663 C668 1.490 . S
C664 H654 0.930 . S
C664 C663 1.400 . S
C664 C667 1.386 . S
H665 C681 0.930 . S
H666 C682 0.931 . S
C667 H655 0.929 . S
C667 C661 1.390 . S
C667 C664 1.386 . S
C668 C663 1.490 . S
C668 C670 1.395 1_565 S
C668 C671 1.403 . S
H669 C675 0.930 . S
C670 H656 0.930 . S
C670 C668 1.395 1_545 S
C670 C673 1.403 . S
C671 C668 1.403 . S
C671 C672 1.521 1_655 S
C671 C675 1.400 1_655 S
C672 H657 0.978 . S
C672 H658 0.956 1_455 S
C672 H659 0.950 1_455 S
C672 C671 1.521 1_455 S
C673 C670 1.403 . S
C673 C674 1.392 1_655 S
C673 C677 1.495 . S
C674 C673 1.392 1_455 S
C674 C675 1.385 1_545 S
C674 C676 1.478 . S
C675 H669 0.930 . S
C675 C671 1.400 1_455 S
C675 C674 1.385 1_565 S
C676 C674 1.478 . S
C676 C678 1.381 . S
C676 C682 1.383 . S
C677 C673 1.495 . S
C677 H683 0.959 . S
C677 H684 0.961 1_655 S
C677 H685 0.960 1_655 S
C678 C676 1.381 . S
C678 C679 1.394 . S
C678 H686 0.930 . S
C679 C678 1.394 . S
C679 C680 1.383 . S
C679 H687 0.929 . S
C680 C679 1.383 . S
C680 C681 1.377 . S
C681 H665 0.930 . S
C681 C680 1.377 . S
C681 C682 1.379 . S
C682 H666 0.931 . S
C682 C676 1.383 . S
C682 C681 1.379 . S
H683 C677 0.959 . S
H684 C677 0.961 1_455 S
H685 C677 0.960 1_455 S
H686 C678 0.930 . S
H687 C679 0.929 . S
C121 C0 1.103 . S
C140 C70 1.080 . S
C157 C23 1.102 . S
C176 C93 1.075 . S
C193 C28 1.096 . S
C212 C98 1.104 . S
C229 C51 1.100 . S
C248 C65 1.089 . S
C265 C107 1.096 . S
C284 C9 1.108 . S
C301 C56 1.102 . S
C320 C14 1.115 . S
C337 C37 1.096 . S
C356 C79 1.108 . S
C373 C84 1.105 . S
C392 C42 1.094 . S
C409 C5 1.581 . S
C428 C89 1.573 . S
C445 C109 1.588 . S
C464 C25 1.593 . S
C481 C33 1.580 . S
C500 C61 1.574 . S
C517 C53 1.588 . S
C536 C81 1.595 . S
C553 C95 1.583 . S
C572 C11 1.572 . S
C589 C103 1.580 . S
C608 C19 1.573 . S
C625 C39 1.583 . S
C644 C67 1.569 . S
C661 C47 1.583 . S
C680 C75 1.583 . S
