# Generated by pormake.
# Topology uky, (4)-cn, num edge types: 1
# Building blocks:
#     Node 0, Type 0, BuildingBlock: QUQFOY_clean_sbu_3, # of connection points: 4
#     Node 1, Type 0, BuildingBlock: QUQFOY_clean_sbu_3, # of connection points: 4
#     Node 2, Type 0, BuildingBlock: QUQFOY_clean_sbu_3, # of connection points: 4
#     Node 3, Type 0, BuildingBlock: QUQFOY_clean_sbu_3, # of connection points: 4
#     Node 4, Type 0, BuildingBlock: QUQFOY_clean_sbu_3, # of connection points: 4
#     Node 5, Type 0, BuildingBlock: QUQFOY_clean_sbu_3, # of connection points: 4
#     Node 6, Type 0, BuildingBlock: QUQFOY_clean_sbu_3, # of connection points: 4
#     Node 7, Type 0, BuildingBlock: QUQFOY_clean_sbu_3, # of connection points: 4
#     Node 8, Type 0, BuildingBlock: QUQFOY_clean_sbu_3, # of connection points: 4
#     Node 9, Type 0, BuildingBlock: QUQFOY_clean_sbu_3, # of connection points: 4
#     Node 10, Type 0, BuildingBlock: QUQFOY_clean_sbu_3, # of connection points: 4
#     Node 11, Type 0, BuildingBlock: QUQFOY_clean_sbu_3, # of connection points: 4
#     Node 12, Type 0, BuildingBlock: QUQFOY_clean_sbu_3, # of connection points: 4
#     Node 13, Type 0, BuildingBlock: QUQFOY_clean_sbu_3, # of connection points: 4
#     Node 14, Type 0, BuildingBlock: QUQFOY_clean_sbu_3, # of connection points: 4
#     Node 15, Type 0, BuildingBlock: QUQFOY_clean_sbu_3, # of connection points: 4
#     Node 16, Type 0, BuildingBlock: QUQFOY_clean_sbu_3, # of connection points: 4
#     Node 17, Type 0, BuildingBlock: QUQFOY_clean_sbu_3, # of connection points: 4
#     Node 18, Type 0, BuildingBlock: QUQFOY_clean_sbu_3, # of connection points: 4
#     Node 19, Type 0, BuildingBlock: QUQFOY_clean_sbu_3, # of connection points: 4
#     Node 20, Type 0, BuildingBlock: QUQFOY_clean_sbu_3, # of connection points: 4
#     Node 21, Type 0, BuildingBlock: QUQFOY_clean_sbu_3, # of connection points: 4
#     Node 22, Type 0, BuildingBlock: QUQFOY_clean_sbu_3, # of connection points: 4
#     Node 23, Type 0, BuildingBlock: QUQFOY_clean_sbu_3, # of connection points: 4
#     Node 24, Type 0, BuildingBlock: QUQFOY_clean_sbu_3, # of connection points: 4
#     Node 25, Type 0, BuildingBlock: QUQFOY_clean_sbu_3, # of connection points: 4
#     Node 26, Type 0, BuildingBlock: QUQFOY_clean_sbu_3, # of connection points: 4
#     Node 27, Type 0, BuildingBlock: QUQFOY_clean_sbu_3, # of connection points: 4
#     Node 28, Type 0, BuildingBlock: QUQFOY_clean_sbu_3, # of connection points: 4
#     Node 29, Type 0, BuildingBlock: QUQFOY_clean_sbu_3, # of connection points: 4
#     Node 30, Type 0, BuildingBlock: QUQFOY_clean_sbu_3, # of connection points: 4
#     Node 31, Type 0, BuildingBlock: QUQFOY_clean_sbu_3, # of connection points: 4
#     Node 32, Type 0, BuildingBlock: QUQFOY_clean_sbu_3, # of connection points: 4
#     Node 33, Type 0, BuildingBlock: QUQFOY_clean_sbu_3, # of connection points: 4
#     Node 34, Type 0, BuildingBlock: QUQFOY_clean_sbu_3, # of connection points: 4
#     Node 35, Type 0, BuildingBlock: QUQFOY_clean_sbu_3, # of connection points: 4
#     Node 36, Type 0, BuildingBlock: QUQFOY_clean_sbu_3, # of connection points: 4
#     Node 37, Type 0, BuildingBlock: QUQFOY_clean_sbu_3, # of connection points: 4
#     Node 38, Type 0, BuildingBlock: QUQFOY_clean_sbu_3, # of connection points: 4
#     Node 39, Type 0, BuildingBlock: QUQFOY_clean_sbu_3, # of connection points: 4
#     Node 40, Type 0, BuildingBlock: QUQFOY_clean_sbu_3, # of connection points: 4
#     Node 41, Type 0, BuildingBlock: QUQFOY_clean_sbu_3, # of connection points: 4
#     Node 42, Type 0, BuildingBlock: QUQFOY_clean_sbu_3, # of connection points: 4
#     Node 43, Type 0, BuildingBlock: QUQFOY_clean_sbu_3, # of connection points: 4
#     Node 44, Type 0, BuildingBlock: QUQFOY_clean_sbu_3, # of connection points: 4
#     Node 45, Type 0, BuildingBlock: QUQFOY_clean_sbu_3, # of connection points: 4
#     Node 46, Type 0, BuildingBlock: QUQFOY_clean_sbu_3, # of connection points: 4
#     Node 47, Type 0, BuildingBlock: QUQFOY_clean_sbu_3, # of connection points: 4
#     Edge 48, Type (0, 0), BuildingBlock: ZUJKAS_clean_linker_0, # of connection points: 2
#     Edge 49, Type (0, 0), BuildingBlock: ZUJKAS_clean_linker_0, # of connection points: 2
#     Edge 50, Type (0, 0), BuildingBlock: ZUJKAS_clean_linker_0, # of connection points: 2
#     Edge 51, Type (0, 0), BuildingBlock: ZUJKAS_clean_linker_0, # of connection points: 2
#     Edge 52, Type (0, 0), BuildingBlock: ZUJKAS_clean_linker_0, # of connection points: 2
#     Edge 53, Type (0, 0), BuildingBlock: ZUJKAS_clean_linker_0, # of connection points: 2
#     Edge 54, Type (0, 0), BuildingBlock: ZUJKAS_clean_linker_0, # of connection points: 2
#     Edge 55, Type (0, 0), BuildingBlock: ZUJKAS_clean_linker_0, # of connection points: 2
#     Edge 56, Type (0, 0), BuildingBlock: ZUJKAS_clean_linker_0, # of connection points: 2
#     Edge 57, Type (0, 0), BuildingBlock: ZUJKAS_clean_linker_0, # of connection points: 2
#     Edge 58, Type (0, 0), BuildingBlock: ZUJKAS_clean_linker_0, # of connection points: 2
#     Edge 59, Type (0, 0), BuildingBlock: ZUJKAS_clean_linker_0, # of connection points: 2
#     Edge 60, Type (0, 0), BuildingBlock: ZUJKAS_clean_linker_0, # of connection points: 2
#     Edge 61, Type (0, 0), BuildingBlock: ZUJKAS_clean_linker_0, # of connection points: 2
#     Edge 62, Type (0, 0), BuildingBlock: ZUJKAS_clean_linker_0, # of connection points: 2
#     Edge 63, Type (0, 0), BuildingBlock: ZUJKAS_clean_linker_0, # of connection points: 2
#     Edge 64, Type (0, 0), BuildingBlock: ZUJKAS_clean_linker_0, # of connection points: 2
#     Edge 65, Type (0, 0), BuildingBlock: ZUJKAS_clean_linker_0, # of connection points: 2
#     Edge 66, Type (0, 0), BuildingBlock: ZUJKAS_clean_linker_0, # of connection points: 2
#     Edge 67, Type (0, 0), BuildingBlock: ZUJKAS_clean_linker_0, # of connection points: 2
#     Edge 68, Type (0, 0), BuildingBlock: ZUJKAS_clean_linker_0, # of connection points: 2
#     Edge 69, Type (0, 0), BuildingBlock: ZUJKAS_clean_linker_0, # of connection points: 2
#     Edge 70, Type (0, 0), BuildingBlock: ZUJKAS_clean_linker_0, # of connection points: 2
#     Edge 71, Type (0, 0), BuildingBlock: ZUJKAS_clean_linker_0, # of connection points: 2
#     Edge 72, Type (0, 0), BuildingBlock: ZUJKAS_clean_linker_0, # of connection points: 2
#     Edge 73, Type (0, 0), BuildingBlock: ZUJKAS_clean_linker_0, # of connection points: 2
#     Edge 74, Type (0, 0), BuildingBlock: ZUJKAS_clean_linker_0, # of connection points: 2
#     Edge 75, Type (0, 0), BuildingBlock: ZUJKAS_clean_linker_0, # of connection points: 2
#     Edge 76, Type (0, 0), BuildingBlock: ZUJKAS_clean_linker_0, # of connection points: 2
#     Edge 77, Type (0, 0), BuildingBlock: ZUJKAS_clean_linker_0, # of connection points: 2
#     Edge 78, Type (0, 0), BuildingBlock: ZUJKAS_clean_linker_0, # of connection points: 2
#     Edge 79, Type (0, 0), BuildingBlock: ZUJKAS_clean_linker_0, # of connection points: 2
#     Edge 80, Type (0, 0), BuildingBlock: ZUJKAS_clean_linker_0, # of connection points: 2
#     Edge 81, Type (0, 0), BuildingBlock: ZUJKAS_clean_linker_0, # of connection points: 2
#     Edge 82, Type (0, 0), BuildingBlock: ZUJKAS_clean_linker_0, # of connection points: 2
#     Edge 83, Type (0, 0), BuildingBlock: ZUJKAS_clean_linker_0, # of connection points: 2
#     Edge 84, Type (0, 0), BuildingBlock: ZUJKAS_clean_linker_0, # of connection points: 2
#     Edge 85, Type (0, 0), BuildingBlock: ZUJKAS_clean_linker_0, # of connection points: 2
#     Edge 86, Type (0, 0), BuildingBlock: ZUJKAS_clean_linker_0, # of connection points: 2
#     Edge 87, Type (0, 0), BuildingBlock: ZUJKAS_clean_linker_0, # of connection points: 2
#     Edge 88, Type (0, 0), BuildingBlock: ZUJKAS_clean_linker_0, # of connection points: 2
#     Edge 89, Type (0, 0), BuildingBlock: ZUJKAS_clean_linker_0, # of connection points: 2
#     Edge 90, Type (0, 0), BuildingBlock: ZUJKAS_clean_linker_0, # of connection points: 2
#     Edge 91, Type (0, 0), BuildingBlock: ZUJKAS_clean_linker_0, # of connection points: 2
#     Edge 92, Type (0, 0), BuildingBlock: ZUJKAS_clean_linker_0, # of connection points: 2
#     Edge 93, Type (0, 0), BuildingBlock: ZUJKAS_clean_linker_0, # of connection points: 2
#     Edge 94, Type (0, 0), BuildingBlock: ZUJKAS_clean_linker_0, # of connection points: 2
#     Edge 95, Type (0, 0), BuildingBlock: ZUJKAS_clean_linker_0, # of connection points: 2
#     Edge 96, Type (0, 0), BuildingBlock: ZUJKAS_clean_linker_0, # of connection points: 2
#     Edge 97, Type (0, 0), BuildingBlock: ZUJKAS_clean_linker_0, # of connection points: 2
#     Edge 98, Type (0, 0), BuildingBlock: ZUJKAS_clean_linker_0, # of connection points: 2
#     Edge 99, Type (0, 0), BuildingBlock: ZUJKAS_clean_linker_0, # of connection points: 2
#     Edge 100, Type (0, 0), BuildingBlock: ZUJKAS_clean_linker_0, # of connection points: 2
#     Edge 101, Type (0, 0), BuildingBlock: ZUJKAS_clean_linker_0, # of connection points: 2
#     Edge 102, Type (0, 0), BuildingBlock: ZUJKAS_clean_linker_0, # of connection points: 2
#     Edge 103, Type (0, 0), BuildingBlock: ZUJKAS_clean_linker_0, # of connection points: 2
#     Edge 104, Type (0, 0), BuildingBlock: ZUJKAS_clean_linker_0, # of connection points: 2
#     Edge 105, Type (0, 0), BuildingBlock: ZUJKAS_clean_linker_0, # of connection points: 2
#     Edge 106, Type (0, 0), BuildingBlock: ZUJKAS_clean_linker_0, # of connection points: 2
#     Edge 107, Type (0, 0), BuildingBlock: ZUJKAS_clean_linker_0, # of connection points: 2
#     Edge 108, Type (0, 0), BuildingBlock: ZUJKAS_clean_linker_0, # of connection points: 2
#     Edge 109, Type (0, 0), BuildingBlock: ZUJKAS_clean_linker_0, # of connection points: 2
#     Edge 110, Type (0, 0), BuildingBlock: ZUJKAS_clean_linker_0, # of connection points: 2
#     Edge 111, Type (0, 0), BuildingBlock: ZUJKAS_clean_linker_0, # of connection points: 2
#     Edge 112, Type (0, 0), BuildingBlock: ZUJKAS_clean_linker_0, # of connection points: 2
#     Edge 113, Type (0, 0), BuildingBlock: ZUJKAS_clean_linker_0, # of connection points: 2
#     Edge 114, Type (0, 0), BuildingBlock: ZUJKAS_clean_linker_0, # of connection points: 2
#     Edge 115, Type (0, 0), BuildingBlock: ZUJKAS_clean_linker_0, # of connection points: 2
#     Edge 116, Type (0, 0), BuildingBlock: ZUJKAS_clean_linker_0, # of connection points: 2
#     Edge 117, Type (0, 0), BuildingBlock: ZUJKAS_clean_linker_0, # of connection points: 2
#     Edge 118, Type (0, 0), BuildingBlock: ZUJKAS_clean_linker_0, # of connection points: 2
#     Edge 119, Type (0, 0), BuildingBlock: ZUJKAS_clean_linker_0, # of connection points: 2
#     Edge 120, Type (0, 0), BuildingBlock: ZUJKAS_clean_linker_0, # of connection points: 2
#     Edge 121, Type (0, 0), BuildingBlock: ZUJKAS_clean_linker_0, # of connection points: 2
#     Edge 122, Type (0, 0), BuildingBlock: ZUJKAS_clean_linker_0, # of connection points: 2
#     Edge 123, Type (0, 0), BuildingBlock: ZUJKAS_clean_linker_0, # of connection points: 2
#     Edge 124, Type (0, 0), BuildingBlock: ZUJKAS_clean_linker_0, # of connection points: 2
#     Edge 125, Type (0, 0), BuildingBlock: ZUJKAS_clean_linker_0, # of connection points: 2
#     Edge 126, Type (0, 0), BuildingBlock: ZUJKAS_clean_linker_0, # of connection points: 2
#     Edge 127, Type (0, 0), BuildingBlock: ZUJKAS_clean_linker_0, # of connection points: 2
#     Edge 128, Type (0, 0), BuildingBlock: ZUJKAS_clean_linker_0, # of connection points: 2
#     Edge 129, Type (0, 0), BuildingBlock: ZUJKAS_clean_linker_0, # of connection points: 2
#     Edge 130, Type (0, 0), BuildingBlock: ZUJKAS_clean_linker_0, # of connection points: 2
#     Edge 131, Type (0, 0), BuildingBlock: ZUJKAS_clean_linker_0, # of connection points: 2
#     Edge 132, Type (0, 0), BuildingBlock: ZUJKAS_clean_linker_0, # of connection points: 2
#     Edge 133, Type (0, 0), BuildingBlock: ZUJKAS_clean_linker_0, # of connection points: 2
#     Edge 134, Type (0, 0), BuildingBlock: ZUJKAS_clean_linker_0, # of connection points: 2
#     Edge 135, Type (0, 0), BuildingBlock: ZUJKAS_clean_linker_0, # of connection points: 2
#     Edge 136, Type (0, 0), BuildingBlock: ZUJKAS_clean_linker_0, # of connection points: 2
#     Edge 137, Type (0, 0), BuildingBlock: ZUJKAS_clean_linker_0, # of connection points: 2
#     Edge 138, Type (0, 0), BuildingBlock: ZUJKAS_clean_linker_0, # of connection points: 2
#     Edge 139, Type (0, 0), BuildingBlock: ZUJKAS_clean_linker_0, # of connection points: 2
#     Edge 140, Type (0, 0), BuildingBlock: ZUJKAS_clean_linker_0, # of connection points: 2
#     Edge 141, Type (0, 0), BuildingBlock: ZUJKAS_clean_linker_0, # of connection points: 2
#     Edge 142, Type (0, 0), BuildingBlock: ZUJKAS_clean_linker_0, # of connection points: 2
#     Edge 143, Type (0, 0), BuildingBlock: ZUJKAS_clean_linker_0, # of connection points: 2
# Relax obj value: 0.323
# Max RMSD: 0.255
# Mean RMSD: 0.255
data_MOF--net-uky--node1-QUQFOY_clean_sbu_3--edge1-ZUJKAS_clean_linker_0
_symmetry_space_group_name_H-M    P1
_symmetry_Int_Tables_number       1
_symmetry_cell_setting            triclinic
loop_
_symmetry_equiv_pos_as_xyz
'x, y, z'
_cell_length_a     79.391518
_cell_length_b     79.369321
_cell_length_c     79.382646
_cell_angle_alpha  90.007817
_cell_angle_beta   90.011081
_cell_angle_gamma 89.991027
loop_
_atom_site_label
_atom_site_type_symbol
_atom_site_fract_x
_atom_site_fract_y
_atom_site_fract_z
_atom_type_partial_charge
C0 C 0.20897 0.23958 0.37489 0.0
O1 O 0.2197 0.24173 0.38656 0.0
Cd2 Cd 0.23267 0.21931 0.40197 0.0
O3 O 0.20413 0.2248 0.37084 0.0
Cd4 Cd 0.20923 0.19526 0.37957 0.0
C5 C 0.25043 0.19799 0.36897 0.0
O6 O 0.21018 0.20068 0.40951 0.0
O7 O 0.21794 0.17582 0.40205 0.0
O8 O 0.17983 0.18867 0.37436 0.0
C9 C 0.21491 0.1861 0.41387 0.0
O10 O 0.25279 0.20683 0.38215 0.0
C11 C 0.18276 0.1757 0.36544 0.0
O12 O 0.23574 0.19308 0.36489 0.0
O13 O 0.1981 0.17216 0.36265 0.0
C14 C -0.00388 0.95933 0.62599 0.0
O15 O 0.99484 0.96891 0.63875 0.0
Cd16 Cd 0.01823 0.98079 0.65373 0.0
O17 O 0.01054 0.95482 0.62055 0.0
Cd18 Cd 0.04063 0.9588 0.62786 0.0
C19 C 0.03761 0.00064 0.6205 0.0
O20 O 0.03769 0.95834 0.6583 0.0
O21 O 0.06167 0.96677 0.64882 0.0
O22 O 0.04651 0.92953 0.62137 0.0
C23 C 0.05259 0.96316 0.66142 0.0
O24 O 0.02989 0.00195 0.63452 0.0
C25 C 0.05899 0.93255 0.61182 0.0
O26 O 0.04192 0.9863 0.61477 0.0
O27 O 0.06247 0.94793 0.60912 0.0
C28 C 0.27663 0.75553 0.86885 0.0
O29 O 0.26704 0.7525 0.88131 0.0
Cd30 Cd 0.25491 0.77319 0.89956 0.0
O31 O 0.28074 0.77061 0.86507 0.0
Cd32 Cd 0.27588 0.79975 0.8754 0.0
C33 C 0.23353 0.79594 0.86963 0.0
O34 O 0.27838 0.79132 0.90436 0.0
O35 O 0.2726 0.81747 0.90077 0.0
O36 O 0.30336 0.80586 0.86318 0.0
C37 C 0.27546 0.80551 0.91093 0.0
O38 O 0.23273 0.7861 0.88228 0.0
C39 C 0.29943 0.82064 0.85846 0.0
O40 O 0.24758 0.80174 0.86457 0.0
O41 O 0.28445 0.82548 0.86124 0.0
C42 C 0.48855 0.03174 0.12532 0.0
O43 O 0.49103 0.02021 0.13615 0.0
Cd44 Cd 0.46927 0.00537 0.15087 0.0
O45 O 0.47365 0.03633 0.12148 0.0
Cd46 Cd 0.44422 0.02952 0.12923 0.0
C47 C 0.44836 0.98878 0.11694 0.0
O48 O 0.44977 0.0268 0.15891 0.0
O49 O 0.42475 0.01974 0.15133 0.0
O50 O 0.4368 0.05887 0.12558 0.0
C51 C 0.4353 0.0217 0.16314 0.0
O52 O 0.45727 0.98607 0.13001 0.0
C53 C 0.4243 0.05614 0.11596 0.0
O54 O 0.44304 0.0035 0.11351 0.0
O55 O 0.42127 0.04091 0.11214 0.0
C56 C 0.20585 0.74881 0.12011 0.0
O57 O 0.21719 0.74597 0.10919 0.0
Cd58 Cd 0.23183 0.76696 0.09327 0.0
O59 O 0.20126 0.76384 0.12347 0.0
Cd60 Cd 0.20826 0.79281 0.1141 0.0
C61 C 0.24926 0.78926 0.12575 0.0
O62 O 0.2102 0.78593 0.08451 0.0
O63 O 0.21764 0.81115 0.09096 0.0
O64 O 0.17912 0.80106 0.11839 0.0
C65 C 0.21522 0.80022 0.0796 0.0
O66 O 0.25174 0.77985 0.11299 0.0
C67 C 0.18256 0.81431 0.1267 0.0
O68 O 0.23458 0.79462 0.12928 0.0
O69 O 0.198 0.81719 0.12969 0.0
C70 C 0.48723 0.96223 0.37002 0.0
O71 O 0.48926 0.97202 0.35751 0.0
Cd72 Cd 0.46694 0.98332 0.34069 0.0
O73 O 0.47251 0.95761 0.37455 0.0
Cd74 Cd 0.44273 0.96169 0.36593 0.0
C75 C 0.44536 0.00409 0.37176 0.0
O76 O 0.44931 0.95924 0.33638 0.0
O77 O 0.42344 0.96488 0.3418 0.0
O78 O 0.43797 0.93382 0.37801 0.0
C79 C 0.43462 0.96189 0.33085 0.0
O80 O 0.45439 0.00522 0.35855 0.0
C81 C 0.42344 0.93735 0.38372 0.0
O82 O 0.44039 0.98984 0.37713 0.0
O83 O 0.41819 0.9523 0.38159 0.0
C84 C 0.27973 0.24776 0.61649 0.0
O85 O 0.26952 0.24896 0.60422 0.0
Cd86 Cd 0.25742 0.2255 0.5896 0.0
O87 O 0.28456 0.23336 0.62174 0.0
Cd88 Cd 0.28011 0.20332 0.61452 0.0
C89 C 0.23844 0.20561 0.62288 0.0
O90 O 0.28034 0.20679 0.58422 0.0
O91 O 0.27229 0.18246 0.59301 0.0
O92 O 0.30945 0.19735 0.62041 0.0
C93 C 0.27585 0.19192 0.58066 0.0
O94 O 0.23668 0.2133 0.6089 0.0
C95 C 0.30663 0.18472 0.62982 0.0
O96 O 0.25299 0.20162 0.62829 0.0
O97 O 0.29132 0.18121 0.63282 0.0
C98 C 0.00694 0.02975 0.86387 0.0
O99 O 0.00437 0.0206 0.85099 0.0
Cd100 Cd 0.02643 0.0072 0.83536 0.0
O101 O 0.02185 0.03244 0.8692 0.0
Cd102 Cd 0.05137 0.02546 0.86211 0.0
C103 C 0.04389 0.98382 0.86737 0.0
O104 O 0.04728 0.02867 0.83213 0.0
O105 O 0.07138 0.01874 0.83938 0.0
O106 O 0.05739 0.0533 0.873 0.0
C107 C 0.06169 0.02357 0.82767 0.0
O108 O 0.03589 0.98402 0.85345 0.0
C109 C 0.07115 0.04929 0.88012 0.0
O110 O 0.04986 -0.00268 0.87363 0.0
O111 O 0.07547 0.03391 0.87939 0.0
C112 C 0.37231 0.20861 0.24081 0.0
O113 O 0.384 0.21919 0.24358 0.0
Cd114 Cd 0.40035 0.23259 0.22206 0.0
O115 O 0.3686 0.20423 0.22581 0.0
Cd116 Cd 0.37817 0.21011 0.19673 0.0
C117 C 0.36873 0.25166 0.19988 0.0
O118 O 0.40794 0.21033 0.20318 0.0
O119 O 0.40146 0.21819 0.17807 0.0
O120 O 0.37263 0.18107 0.18919 0.0
C121 C 0.41286 0.215 0.18876 0.0
O122 O 0.3816 0.25355 0.20928 0.0
C123 C 0.36381 0.18447 0.17628 0.0
O124 O 0.36448 0.23714 0.1946 0.0
O125 O 0.36123 0.19993 0.17313 0.0
C126 C 0.031 0.12459 0.49444 0.0
O127 O 0.02064 0.13668 0.49611 0.0
Cd128 Cd 0.00783 0.15171 0.47339 0.0
O129 O 0.03583 0.11988 0.47986 0.0
Cd130 Cd 0.03132 0.12836 0.45008 0.0
C131 C 0.98981 0.11871 0.45221 0.0
O132 O 0.03068 0.1584 0.45498 0.0
O133 O 0.02314 0.15068 0.43016 0.0
O134 O 0.0606 0.12257 0.44332 0.0
C135 C 0.02612 0.16262 0.44032 0.0
O136 O 0.98749 0.13202 0.46088 0.0
C137 C 0.05737 0.11341 0.43059 0.0
O138 O 0.00453 0.11434 0.44766 0.0
O139 O 0.04195 0.11073 0.42733 0.0
C140 C 0.11511 0.78073 0.73922 0.0
O141 O 0.10354 0.76984 0.74102 0.0
Cd142 Cd 0.0883 0.75699 0.71843 0.0
O143 O 0.11945 0.78576 0.72459 0.0
Cd144 Cd 0.1113 0.78046 0.69488 0.0
C145 C 0.12125 0.73905 0.69718 0.0
O146 O 0.08121 0.77948 0.69971 0.0
O147 O 0.08929 0.77146 0.67513 0.0
O148 O 0.1162 0.80988 0.68803 0.0
C149 C 0.07721 0.77457 0.68508 0.0
O150 O 0.10786 0.73682 0.70573 0.0
C151 C 0.12521 0.80695 0.67513 0.0
O152 O 0.12579 0.75375 0.69269 0.0
O153 O 0.12834 0.79162 0.67183 0.0
C154 C 0.45814 0.86839 0.9866 0.0
O155 O 0.46859 0.85655 0.98933 0.0
Cd156 Cd 0.48153 0.83897 0.96852 0.0
O157 O 0.45344 0.87197 0.97165 0.0
Cd158 Cd 0.4587 0.86201 0.94252 0.0
C159 C 0.50077 0.87005 0.94562 0.0
O160 O 0.45862 0.83273 0.95015 0.0
O161 O 0.4645 0.83757 0.92421 0.0
O162 O 0.43011 0.86995 0.93487 0.0
C163 C 0.46233 0.82686 0.93583 0.0
O164 O 0.50251 0.85734 0.95527 0.0
C165 C 0.43434 0.87734 0.9213 0.0
O166 O 0.48632 0.87443 0.94027 0.0
O167 O 0.44997 0.8781 0.91802 0.0
C168 C 0.37296 0.78678 0.25207 0.0
O169 O 0.38526 0.777 0.2491 0.0
Cd170 Cd 0.4005 0.762 0.27028 0.0
O171 O 0.36826 0.78968 0.26716 0.0
Cd172 Cd 0.37687 0.78161 0.29612 0.0
C173 C 0.36723 0.74102 0.28815 0.0
O174 O 0.40707 0.7823 0.29161 0.0
O175 O 0.39886 0.77 0.31434 0.0
O176 O 0.37035 0.80992 0.30576 0.0
C177 C 0.41096 0.77539 0.30545 0.0
O178 O 0.38086 0.74001 0.27973 0.0
C179 C 0.36262 0.80523 0.31896 0.0
O180 O 0.36252 0.75496 0.2945 0.0
O181 O 0.36086 0.78949 0.32112 0.0
C182 C 0.46207 0.12232 0.50209 0.0
O183 O 0.47365 0.13321 0.50032 0.0
Cd184 Cd 0.48684 0.14802 0.52299 0.0
O185 O 0.45651 0.11857 0.5167 0.0
Cd186 Cd 0.4616 0.12704 0.5464 0.0
C187 C 0.50226 0.11436 0.54516 0.0
O188 O 0.46423 0.15684 0.54075 0.0
O189 O 0.47126 0.14913 0.56578 0.0
O190 O 0.43183 0.12422 0.55251 0.0
C191 C 0.46879 0.16103 0.55543 0.0
O192 O 0.5055 0.12744 0.53644 0.0
C193 C 0.43379 0.11518 0.56557 0.0
O194 O 0.48722 0.11089 0.54945 0.0
O195 O 0.44877 0.11103 0.56932 0.0
C196 C 0.11547 0.2099 0.74944 0.0
O197 O 0.10316 0.21992 0.74742 0.0
Cd198 Cd 0.0882 0.23332 0.76979 0.0
O199 O 0.12044 0.20588 0.76419 0.0
Cd200 Cd 0.11225 0.21151 0.79392 0.0
C201 C 0.12128 0.25291 0.78947 0.0
O202 O 0.08225 0.21064 0.78871 0.0
O203 O 0.08931 0.21907 0.81342 0.0
O204 O 0.12138 0.18288 0.79988 0.0
C205 C 0.07765 0.21529 0.80322 0.0
O206 O 0.10777 0.25458 0.78096 0.0
C207 C 0.12813 0.18644 0.81394 0.0
O208 O 0.12592 0.23852 0.79474 0.0
O209 O 0.12792 0.20177 0.81846 0.0
C210 C 0.02963 0.86162 0.99382 0.0
O211 O 0.01859 0.85005 0.99337 0.0
Cd212 Cd 0.00715 0.83617 0.01752 0.0
O213 O 0.03571 0.86662 0.00784 0.0
Cd214 Cd 0.03262 0.85977 0.0382 0.0
C215 C 0.99121 0.87021 0.03852 0.0
O216 O 0.0312 0.82963 0.03449 0.0
O217 O 0.02542 0.83828 0.05947 0.0
O218 O 0.06231 0.86529 0.04356 0.0
C219 C 0.02762 0.82596 0.04956 0.0
O220 O 0.98799 0.85663 0.0306 0.0
C221 C 0.05969 0.87541 0.05569 0.0
O222 O 0.0063 0.8744 0.04181 0.0
O223 O 0.04445 0.87863 0.05925 0.0
C224 C 0.23896 0.37165 0.20733 0.0
O225 O 0.24095 0.3837 0.21767 0.0
Cd226 Cd 0.21855 0.39898 0.23076 0.0
O227 O 0.22423 0.36689 0.20301 0.0
Cd228 Cd 0.19459 0.37477 0.20896 0.0
C229 C 0.19893 0.36604 0.25048 0.0
O230 O 0.19908 0.40496 0.20857 0.0
O231 O 0.17488 0.39687 0.21771 0.0
O232 O 0.18727 0.36764 0.1801 0.0
C233 C 0.18455 0.40894 0.21376 0.0
O234 O 0.20721 0.3797 0.25207 0.0
C235 C 0.17405 0.35948 0.18393 0.0
O236 O 0.19395 0.36107 0.23609 0.0
O237 O 0.17085 0.35779 0.1995 0.0
C238 C 0.73981 0.1155 0.77841 0.0
O239 O 0.74274 0.10292 0.76896 0.0
Cd240 Cd 0.72098 0.08674 0.75586 0.0
O241 O 0.72473 0.11984 0.7818 0.0
Cd242 Cd 0.69547 0.11066 0.77589 0.0
C243 C 0.70114 0.11878 0.73458 0.0
O244 O 0.70123 0.08074 0.77798 0.0
O245 O 0.6771 0.08738 0.76755 0.0
O246 O 0.68928 0.12056 0.80422 0.0
C247 C 0.687 0.07596 0.77261 0.0
O248 O 0.71005 0.10546 0.73368 0.0
C249 C 0.67487 0.12646 0.80055 0.0
O250 O 0.69518 0.12375 0.74859 0.0
O251 O 0.67018 0.12536 0.78531 0.0
C252 C 0.12269 0.48897 0.03171 0.0
O253 O 0.13547 0.49177 0.02248 0.0
Cd254 Cd 0.15243 0.47016 0.00994 0.0
O255 O 0.11816 0.47392 0.03508 0.0
Cd256 Cd 0.12721 0.44461 0.02912 0.0
C257 C 0.12181 0.45016 0.98707 0.0
O258 O 0.15709 0.45036 0.03224 0.0
O259 O 0.15068 0.42552 0.02352 0.0
O260 O 0.11558 0.43782 0.05668 0.0
C261 C 0.16202 0.43583 0.0279 0.0
O262 O 0.1351 0.45914 0.9868 0.0
C263 C 0.10965 0.42365 0.05216 0.0
O264 O 0.11609 0.44432 0.00085 0.0
O265 O 0.11141 0.41954 0.03682 0.0
C266 C 0.75266 0.87291 0.28028 0.0
O267 O 0.75095 0.88597 0.2712 0.0
Cd268 Cd 0.77392 0.90212 0.26025 0.0
O269 O 0.76725 0.86786 0.28472 0.0
Cd270 Cd 0.79712 0.87631 0.28148 0.0
C271 C 0.79451 0.87019 0.23941 0.0
O272 O 0.7929 0.90641 0.28312 0.0
O273 O 0.81725 0.89861 0.27421 0.0
O274 O 0.80255 0.86925 0.31068 0.0
C275 C 0.80752 0.91057 0.27834 0.0
O276 O 0.7863 0.88397 0.23859 0.0
C277 C 0.81551 0.86032 0.30779 0.0
O278 O 0.79904 0.86413 0.25356 0.0
O279 O 0.81954 0.8582 0.29245 0.0
C280 C 0.87333 0.00059 0.02669 0.0
O281 O 0.86221 -0.00262 0.01564 0.0
Cd282 Cd 0.84549 0.01786 0.00129 0.0
O283 O 0.87636 0.01573 0.03115 0.0
Cd284 Cd 0.86577 0.04439 0.02438 0.0
C285 C 0.87726 0.04095 0.98344 0.0
O286 O 0.83645 0.03624 0.02327 0.0
O287 O 0.84162 0.06161 0.01539 0.0
O288 O 0.87091 0.05188 0.0536 0.0
C289 C 0.8308 0.05029 0.01837 0.0
O290 O 0.86473 0.03118 0.98122 0.0
C291 C 0.87734 0.06617 0.05034 0.0
O292 O 0.8808 0.0466 -0.00199 0.0
O293 O 0.87908 0.06999 0.03491 0.0
C294 C 0.24583 0.61469 0.70558 0.0
O295 O 0.24332 0.60388 0.71711 0.0
Cd296 Cd 0.26514 0.58971 0.73244 0.0
O297 O 0.26076 0.61858 0.70111 0.0
Cd298 Cd 0.29007 0.61079 0.70834 0.0
C299 C 0.28519 0.62439 0.74848 0.0
O300 O 0.28512 0.58087 0.7117 0.0
O301 O 0.30952 0.58972 0.71964 0.0
O302 O 0.29846 0.61338 0.67911 0.0
C303 C 0.29965 0.57741 0.7173 0.0
O304 O 0.27651 0.61123 0.75147 0.0
C305 C 0.3108 0.62318 0.68195 0.0
O306 O 0.29065 0.62745 0.73374 0.0
O307 O 0.31314 0.62768 0.69712 0.0
C308 C 0.12434 0.49511 0.46144 0.0
O309 O 0.13564 0.49289 0.47256 0.0
Cd310 Cd 0.15013 0.51526 0.48674 0.0
O311 O 0.12021 0.50993 0.45682 0.0
Cd312 Cd 0.12812 0.53949 0.46286 0.0
C313 C 0.11609 0.53581 0.5036 0.0
O314 O 0.15816 0.53467 0.46511 0.0
O315 O 0.14956 0.55925 0.47278 0.0
O316 O 0.12417 0.5464 0.43335 0.0
C317 C 0.1618 0.54937 0.47015 0.0
O318 O 0.12934 0.52715 0.50628 0.0
C319 C 0.11494 0.55921 0.43602 0.0
O320 O 0.11243 0.54089 0.48886 0.0
O321 O 0.11137 0.56251 0.45125 0.0
C322 C 0.36205 0.49707 0.95266 0.0
O323 O 0.35064 0.49913 0.96369 0.0
Cd324 Cd 0.3365 0.47662 0.97803 0.0
O325 O 0.36669 0.48231 0.94833 0.0
Cd326 Cd 0.35991 0.45267 0.95504 0.0
C327 C 0.37081 0.45763 -0.00397 0.0
O328 O 0.32968 0.45616 0.95691 0.0
O329 O 0.33929 0.43229 0.96542 0.0
O330 O 0.36436 0.44452 0.92588 0.0
C331 C 0.32664 0.44155 0.96254 0.0
O332 O 0.35718 0.46581 -0.00174 0.0
C333 C 0.37454 0.4326 0.92918 0.0
O334 O 0.37503 0.45248 0.98145 0.0
O335 O 0.37832 0.43037 0.94455 0.0
C336 C 0.70833 0.73699 0.88078 0.0
O337 O 0.7177 0.73925 0.89354 0.0
Cd338 Cd 0.7327 0.71678 0.90654 0.0
O339 O 0.70561 0.72218 0.87514 0.0
Cd340 Cd 0.71229 0.6923 0.88196 0.0
C341 C 0.75243 0.70045 0.87141 0.0
O342 O 0.71215 0.69533 0.91214 0.0
O343 O 0.72383 0.67262 0.90285 0.0
O344 O 0.68322 0.6848 0.87699 0.0
C345 C 0.7187 0.68114 0.91534 0.0
O346 O 0.75349 0.70916 0.88485 0.0
C347 C 0.68629 0.6726 0.8671 0.0
O348 O 0.73876 0.69325 0.86721 0.0
O349 O 0.70165 0.66975 0.86369 0.0
C350 C 0.49597 0.45705 0.12263 0.0
O351 O 0.49405 0.46793 0.13422 0.0
Cd352 Cd 0.51667 0.48088 0.14939 0.0
O353 O 0.51063 0.45184 0.11865 0.0
Cd354 Cd 0.54019 0.45636 0.12746 0.0
C355 C 0.53822 0.49734 0.11585 0.0
O356 O 0.53513 0.45845 0.15744 0.0
O357 O 0.55992 0.4658 0.14932 0.0
O358 O 0.54689 0.42675 0.12338 0.0
C359 C 0.5498 0.46329 0.16139 0.0
O360 O 0.52956 0.50026 0.12904 0.0
C361 C 0.55952 0.42941 0.11392 0.0
O362 O 0.54273 0.48243 0.11211 0.0
O363 O 0.56281 0.44464 0.11036 0.0
C364 C 0.78605 0.24988 0.37743 0.0
O365 O 0.77529 0.24835 0.38917 0.0
Cd366 Cd 0.76237 0.27145 0.40365 0.0
O367 O 0.79088 0.26442 0.37258 0.0
Cd368 Cd 0.78555 0.29438 0.37952 0.0
C369 C 0.74403 0.29089 0.36987 0.0
O370 O 0.7849 0.29057 0.40969 0.0
O371 O 0.77739 0.31512 0.40105 0.0
O372 O 0.81473 0.30116 0.37335 0.0
C373 C 0.78033 0.3054 0.41335 0.0
O374 O 0.74184 0.28284 0.38357 0.0
C375 C 0.81137 0.31343 0.36363 0.0
O376 O 0.75867 0.29552 0.36532 0.0
O377 O 0.79592 0.31647 0.36088 0.0
C378 C 0.98702 0.53528 0.62579 0.0
O379 O 0.98908 0.52496 0.63784 0.0
Cd380 Cd 0.96654 0.51161 0.65273 0.0
O381 O 0.97226 0.53966 0.62121 0.0
Cd382 Cd 0.9426 0.53431 0.62941 0.0
C383 C 0.94673 0.49312 0.61911 0.0
O384 O 0.9471 0.53363 0.65954 0.0
O385 O 0.92275 0.52507 0.65129 0.0
O386 O 0.93569 0.56362 0.62408 0.0
C387 C 0.93253 0.52849 0.66343 0.0
O388 O 0.95521 0.49109 0.63258 0.0
C389 C 0.92305 0.56054 0.61475 0.0
O390 O 0.94151 0.50765 0.6148 0.0
O391 O 0.91979 0.54516 0.61182 0.0
C392 C 0.70993 0.24947 0.6141 0.0
O393 O 0.7208 0.24847 0.60241 0.0
Cd394 Cd 0.73259 0.27216 0.588 0.0
O395 O 0.70419 0.26374 0.61876 0.0
Cd396 Cd 0.70764 0.29389 0.61121 0.0
C397 C 0.74899 0.29331 0.62181 0.0
O398 O 0.70912 0.28977 0.58108 0.0
O399 O 0.71545 0.31469 0.58962 0.0
O400 O 0.67791 0.29935 0.6162 0.0
C401 C 0.71308 0.30475 0.57736 0.0
O402 O 0.75193 0.28508 0.60834 0.0
C403 C 0.68033 0.31186 0.62589 0.0
O404 O 0.73401 0.29714 0.62598 0.0
O405 O 0.69552 0.31558 0.62923 0.0
C406 C -0.0038 0.45832 0.86246 0.0
O407 O -0.00275 0.46935 0.8509 0.0
Cd408 Cd 0.97346 0.4819 0.83715 0.0
O409 O 0.98188 0.45294 0.86736 0.0
Cd410 Cd 0.95168 0.45725 0.86089 0.0
C411 C 0.95379 0.49856 0.87172 0.0
O412 O 0.95498 0.45893 0.83061 0.0
O413 O 0.9304 0.46541 0.84011 0.0
O414 O 0.94569 0.42766 0.86613 0.0
C415 C 0.93988 0.46303 0.8275 0.0
O416 O 0.96167 0.50144 0.85804 0.0
C417 C 0.93368 0.43042 0.87636 0.0
O418 O 0.94969 0.48363 0.87584 0.0
O419 O 0.93045 0.4457 0.87978 0.0
C420 C 0.78347 0.74344 0.11766 0.0
O421 O 0.77407 0.74471 0.10477 0.0
Cd422 Cd 0.7616 0.72125 0.09057 0.0
O423 O 0.78735 0.72901 0.12356 0.0
Cd424 Cd 0.78245 0.69888 0.11678 0.0
C425 C 0.74079 0.70302 0.12393 0.0
O426 O 0.78389 0.70145 0.08643 0.0
O427 O 0.77353 0.67816 0.09569 0.0
O428 O 0.81153 0.6926 0.12354 0.0
C429 C 0.77845 0.68681 0.08322 0.0
O430 O 0.73984 0.7105 0.10975 0.0
C431 C 0.80832 0.68003 0.1329 0.0
O432 O 0.75497 0.69848 0.12988 0.0
O433 O 0.79289 0.67666 0.13543 0.0
C434 C 0.4996 0.53311 0.3667 0.0
O435 O 0.49724 0.52287 0.35462 0.0
Cd436 Cd 0.51922 0.50989 0.3386 0.0
O437 O 0.51446 0.53748 0.37097 0.0
Cd438 Cd 0.54395 0.53219 0.36213 0.0
C439 C 0.54041 0.49045 0.37082 0.0
O440 O 0.53815 0.53244 0.33231 0.0
O441 O 0.56325 0.52479 0.339 0.0
O442 O 0.55089 0.56126 0.36823 0.0
C443 C 0.55269 0.52805 0.3275 0.0
O444 O 0.53135 0.48884 0.35766 0.0
C445 C 0.56381 0.55798 0.37708 0.0
O446 O 0.54574 0.50484 0.37543 0.0
O447 O 0.56716 0.54253 0.37956 0.0
C448 C 0.87039 0.71035 0.73604 0.0
O449 O 0.88485 0.71642 0.73913 0.0
Cd450 Cd 0.90205 0.72878 0.71776 0.0
O451 O 0.86516 0.70864 0.72094 0.0
Cd452 Cd 0.87584 0.71165 0.69164 0.0
C453 C 0.87276 0.75355 0.69708 0.0
O454 O 0.90556 0.70731 0.69704 0.0
O455 O 0.89934 0.71731 0.67262 0.0
O456 O 0.86643 0.6834 0.68512 0.0
C457 C 0.9106 0.71221 0.68272 0.0
O458 O 0.88512 0.75253 0.70728 0.0
C459 C 0.85852 0.68738 0.6718 0.0
O460 O 0.86674 0.74056 0.68989 0.0
O461 O 0.858 0.70294 0.66806 0.0
C462 C 0.53108 0.61813 0.98544 0.0
O463 O 0.52142 0.63057 0.98831 0.0
Cd464 Cd 0.5094 0.64875 0.96746 0.0
O465 O 0.53544 0.61439 0.97043 0.0
Cd466 Cd 0.53102 0.62485 0.94133 0.0
C467 C 0.48867 0.61881 0.94402 0.0
O468 O 0.53224 0.65415 0.94881 0.0
O469 O 0.52536 0.6493 0.9231 0.0
O470 O 0.55985 0.6177 0.93464 0.0
C471 C 0.52829 0.66003 0.93455 0.0
O472 O 0.48777 0.63151 0.95381 0.0
C473 C 0.55645 0.60968 0.92121 0.0
O474 O 0.50282 0.61354 0.9386 0.0
O475 O 0.54098 0.60812 0.91742 0.0
C476 C 0.62066 0.28168 0.24176 0.0
O477 O 0.6085 0.2716 0.24433 0.0
Cd478 Cd 0.59194 0.25868 0.22267 0.0
O479 O 0.62471 0.28599 0.22682 0.0
Cd480 Cd 0.61517 0.28057 0.19759 0.0
C481 C 0.62386 0.23896 0.20129 0.0
O482 O 0.58522 0.28083 0.20342 0.0
O483 O 0.59235 0.27203 0.17877 0.0
O484 O 0.62117 0.30957 0.19006 0.0
C485 C 0.58069 0.2758 0.18897 0.0
O486 O 0.61068 0.23745 0.21032 0.0
C487 C 0.62954 0.306 0.17688 0.0
O488 O 0.6286 0.25333 0.196 0.0
O489 O 0.63182 0.29048 0.17374 0.0
C490 C 0.95536 0.36868 0.4917 0.0
O491 O 0.96517 0.35631 0.49434 0.0
Cd492 Cd 0.97809 0.33969 0.47272 0.0
O493 O 0.95135 0.3729 0.47673 0.0
Cd494 Cd 0.95691 0.36347 0.44748 0.0
C495 C -0.00124 0.3711 0.4516 0.0
O496 O 0.95606 0.33351 0.45311 0.0
O497 O 0.96466 0.34045 0.42838 0.0
O498 O 0.92821 0.37035 0.4395 0.0
C499 C 0.96096 0.32884 0.43868 0.0
O500 O -9e-05 0.35797 0.46075 0.0
C501 C 0.93225 0.37902 0.42667 0.0
O502 O 0.98456 0.37608 0.4461 0.0
O503 O 0.94788 0.38097 0.42389 0.0
C504 C 0.87041 0.28678 0.74993 0.0
O505 O 0.88215 0.27632 0.74692 0.0
Cd506 Cd 0.89763 0.26139 0.76803 0.0
O507 O 0.86634 0.29038 0.76505 0.0
Cd508 Cd 0.8754 0.28296 0.79401 0.0
C509 C 0.86463 0.24214 0.78813 0.0
O510 O 0.90537 0.28224 0.78833 0.0
O511 O 0.8979 0.27267 0.81255 0.0
O512 O 0.87045 0.31187 0.80257 0.0
C513 C 0.90972 0.2764 0.80251 0.0
O514 O 0.8778 0.24049 0.77911 0.0
C515 C 0.86215 0.30817 0.81575 0.0
O516 O 0.86054 0.25641 0.79417 0.0
O517 O 0.85941 0.29265 0.81846 0.0
C518 C 0.95583 0.62062 0.00118 0.0
O519 O 0.96609 0.63264 -0.00127 0.0
Cd520 Cd 0.97952 0.6485 0.02054 0.0
O521 O 0.95147 0.61649 0.01609 0.0
Cd522 Cd 0.95703 0.62594 0.0454 0.0
C523 C -0.0017 0.61581 0.04158 0.0
O524 O 0.95758 0.65592 0.03976 0.0
O525 O 0.96621 0.64859 0.06437 0.0
O526 O 0.92782 0.62094 0.05295 0.0
C527 C 0.96273 0.66036 0.05417 0.0
O528 O 0.00018 0.62898 0.0326 0.0
C529 C 0.9311 0.61238 0.06607 0.0
O530 O 0.98382 0.61155 0.04697 0.0
O531 O 0.94652 0.60951 0.06917 0.0
C532 C 0.61496 0.70704 0.24791 0.0
O533 O 0.60232 0.71668 0.24613 0.0
Cd534 Cd 0.58845 0.73038 0.26903 0.0
O535 O 0.62044 0.70337 0.26256 0.0
Cd536 Cd 0.61284 0.70911 0.29239 0.0
C537 C 0.62272 0.74994 0.28679 0.0
O538 O 0.58257 0.70877 0.28922 0.0
O539 O 0.59171 0.72018 0.31209 0.0
O540 O 0.61797 0.68 0.29985 0.0
C541 C 0.57928 0.71498 0.30353 0.0
O542 O 0.6088 0.75156 0.27896 0.0
C543 C 0.62736 0.68317 0.31241 0.0
O544 O 0.6275 0.73562 0.29215 0.0
O545 O 0.6306 0.69856 0.31532 0.0
C546 C 0.5328 0.3664 0.49775 0.0
O547 O 0.52297 0.35396 0.49556 0.0
Cd548 Cd 0.51019 0.33815 0.51789 0.0
O549 O 0.53678 0.37119 0.51255 0.0
Cd550 Cd 0.53102 0.3631 0.54207 0.0
C551 C 0.4893 0.3705 0.53736 0.0
O552 O 0.5322 0.3329 0.53778 0.0
O553 O 0.52306 0.34092 0.56201 0.0
O554 O 0.55982 0.37018 0.54939 0.0
C555 C 0.52722 0.32889 0.55239 0.0
O556 O 0.48831 0.3567 0.52922 0.0
C557 C 0.55605 0.37881 0.56233 0.0
O558 O 0.50345 0.37607 0.54242 0.0
O559 O 0.54049 0.38081 0.56541 0.0
C560 C 0.74285 0.86851 0.71019 0.0
O561 O 0.74515 0.88152 0.71919 0.0
Cd562 Cd 0.72287 0.89519 0.73404 0.0
O563 O 0.72809 0.86272 0.70764 0.0
Cd564 Cd 0.69855 0.87086 0.71411 0.0
C565 C 0.70467 0.86175 0.75484 0.0
O566 O 0.7022 0.90113 0.71291 0.0
O567 O 0.67963 0.89262 0.72527 0.0
O568 O 0.69072 0.86405 0.68534 0.0
C569 C 0.68817 0.90479 0.7195 0.0
O570 O 0.71305 0.8754 0.75595 0.0
C571 C 0.67734 0.85619 0.68923 0.0
O572 O 0.69891 0.85678 0.74076 0.0
O573 O 0.67421 0.8545 0.70481 0.0
C574 C 0.23944 0.61634 0.2768 0.0
O575 O 0.24109 0.60455 0.26611 0.0
Cd576 Cd 0.21837 0.58794 0.25524 0.0
O577 O 0.22499 0.62001 0.28279 0.0
Cd578 Cd 0.19549 0.61025 0.28005 0.0
C579 C 0.19454 0.61958 0.23835 0.0
O580 O 0.20187 0.58043 0.27934 0.0
O581 O 0.17617 0.58697 0.2738 0.0
O582 O 0.19038 0.61601 0.30969 0.0
C583 C 0.18706 0.57554 0.27609 0.0
O584 O 0.20363 0.60665 0.23561 0.0
C585 C 0.17707 0.62457 0.30723 0.0
O586 O 0.19072 0.62391 0.2533 0.0
O587 O 0.17273 0.62698 0.29204 0.0
C588 C 0.62231 0.98533 0.53439 0.0
O589 O 0.63415 0.98864 0.52415 0.0
Cd590 Cd 0.65063 0.96782 0.50992 0.0
O591 O 0.61854 0.97011 0.53794 0.0
Cd592 Cd 0.62798 0.94119 0.53081 0.0
C593 C 0.61855 0.94724 0.4896 0.0
O594 O 0.65764 0.94825 0.53175 0.0
O595 O 0.65197 0.92317 0.52329 0.0
O596 O 0.61833 0.9343 0.5591 0.0
C597 C 0.66303 0.93406 0.52692 0.0
O598 O 0.63154 0.95658 0.48837 0.0
C599 C 0.61297 0.91973 0.55521 0.0
O600 O 0.61428 0.94093 0.50369 0.0
O601 O 0.61423 0.91532 0.53991 0.0
C602 C 0.25196 0.37421 0.78401 0.0
O603 O 0.25013 0.38729 0.77498 0.0
Cd604 Cd 0.27271 0.40361 0.76355 0.0
O605 O 0.26662 0.36894 0.78797 0.0
Cd606 Cd 0.29644 0.37706 0.78336 0.0
C607 C 0.29198 0.37198 0.74122 0.0
O608 O 0.29214 0.40701 0.78618 0.0
O609 O 0.31642 0.39981 0.77667 0.0
O610 O 0.30305 0.36843 0.81189 0.0
C611 C 0.30666 0.4115 0.78143 0.0
O612 O 0.28401 0.38591 0.74095 0.0
C613 C 0.31618 0.36014 0.80802 0.0
O614 O 0.29694 0.3656 0.75507 0.0
O615 O 0.31965 0.35897 0.79245 0.0
C616 C 0.36646 0.4977 0.53038 0.0
O617 O 0.35409 0.49645 0.5203 0.0
Cd618 Cd 0.33918 0.51977 0.5085 0.0
O619 O 0.37159 0.51211 0.53531 0.0
Cd620 Cd 0.36375 0.54217 0.53145 0.0
C621 C 0.37201 0.54042 0.48964 0.0
O622 O 0.33371 0.53768 0.5321 0.0
O623 O 0.34132 0.56261 0.52478 0.0
O624 O 0.37042 0.54784 0.56069 0.0
C625 C 0.32944 0.55253 0.52824 0.0
O626 O 0.35848 0.53201 0.48769 0.0
C627 C 0.37956 0.56064 0.55774 0.0
O628 O 0.37693 0.54481 0.50423 0.0
O629 O 0.38198 0.56442 0.54239 0.0
C630 C 0.75187 0.11702 0.21517 0.0
O631 O 0.74965 0.10501 0.22552 0.0
Cd632 Cd 0.77217 0.08885 0.23744 0.0
O633 O 0.76666 0.12116 0.21048 0.0
Cd634 Cd 0.79627 0.11255 0.21503 0.0
C635 C 0.79396 0.12061 0.2569 0.0
O636 O 0.79017 0.08264 0.21399 0.0
O637 O 0.81563 0.08914 0.22051 0.0
O638 O 0.80035 0.12253 0.18634 0.0
C639 C 0.80492 0.07773 0.21752 0.0
O640 O 0.785 0.1074 0.25855 0.0
C641 C 0.81489 0.12863 0.18902 0.0
O642 O 0.79878 0.12552 0.24243 0.0
O643 O 0.8206 0.12763 0.20391 0.0
C644 C 0.61666 0.00188 0.96328 0.0
O645 O 0.62815 -0.00073 0.97412 0.0
Cd646 Cd 0.64581 0.0203 0.98644 0.0
O647 O 0.61339 0.01676 0.95814 0.0
Cd648 Cd 0.62373 0.04585 0.96319 0.0
C649 C 0.61545 0.04447 0.0052 0.0
O650 O 0.65285 0.03736 0.96273 0.0
O651 O 0.6488 0.06345 0.96861 0.0
O652 O 0.61611 0.05229 0.93423 0.0
C653 C 0.65914 0.0516 0.96599 0.0
O654 O 0.62802 0.03469 0.0071 0.0
C655 C 0.60973 0.06659 0.93757 0.0
O656 O 0.61097 0.04939 0.99063 0.0
O657 O 0.60918 0.07084 0.95297 0.0
C658 C 0.86694 0.99131 0.45382 0.0
O659 O 0.85438 0.99385 0.46339 0.0
Cd660 Cd 0.83908 0.97211 0.47755 0.0
O661 O 0.87196 0.97637 0.4507 0.0
Cd662 Cd 0.86391 0.94703 0.45776 0.0
C663 C 0.87207 0.95399 0.49895 0.0
O664 O 0.83366 0.95094 0.45692 0.0
O665 O 0.84212 0.92772 0.46803 0.0
O666 O 0.87003 0.93867 0.42905 0.0
C667 C 0.8299 0.93682 0.46329 0.0
O668 O 0.85822 0.96209 0.49958 0.0
C669 C 0.87875 0.92582 0.43292 0.0
O670 O 0.87755 0.94813 0.48507 0.0
O671 O 0.88123 0.9232 0.44851 0.0
H672 H 0.27979 0.21083 0.55234 0.0
H673 H 0.26996 0.20418 0.52397 0.0
H674 H 0.25303 0.15545 0.54103 0.0
H675 H 0.26267 0.16207 0.56959 0.0
H676 H 0.27725 0.1771 0.50155 0.0
H677 H 0.21019 0.17857 0.52217 0.0
H678 H 0.22705 0.18669 0.53507 0.0
H679 H 0.22392 0.16436 0.53325 0.0
C680 C 0.27413 0.19862 0.55004 0.0
C681 C 0.27179 0.18705 0.56322 0.0
C682 C 0.26857 0.19484 0.53382 0.0
C683 C 0.26056 0.17944 0.53053 0.0
C684 C 0.25895 0.1675 0.54344 0.0
H685 H 0.23001 0.15766 0.42619 0.0
H686 H 0.24051 0.1531 0.45487 0.0
C687 C 0.26451 0.17128 0.5597 0.0
C688 C 0.25308 0.17651 0.51378 0.0
H689 H 0.21533 0.17484 0.49329 0.0
C690 C 0.26374 0.17633 0.4997 0.0
C691 C 0.23542 0.17572 0.51153 0.0
C692 C 0.22341 0.17645 0.52625 0.0
C693 C 0.25717 0.1759 0.48332 0.0
C694 C 0.23951 0.17542 0.48107 0.0
C695 C 0.22887 0.17506 0.49515 0.0
C696 C 0.23185 0.17718 0.46424 0.0
C697 C 0.26909 0.17686 0.46854 0.0
C698 C 0.22302 0.19196 0.4603 0.0
C699 C 0.217 0.19459 0.44402 0.0
C700 C 0.21967 0.18243 0.43144 0.0
C701 C 0.22786 0.16729 0.43562 0.0
C702 C 0.23392 0.16469 0.45194 0.0
H703 H 0.28219 0.17979 0.47251 0.0
H704 H 0.26919 0.16457 0.46187 0.0
H705 H 0.26487 0.18663 0.45947 0.0
H706 H 0.22128 0.20172 0.46969 0.0
H707 H 0.21066 0.20634 0.4412 0.0
H708 H 0.0819 0.97829 0.6712 0.0
H709 H 0.08922 0.98828 0.69945 0.0
H710 H 0.04248 0.96835 0.71867 0.0
H711 H 0.03509 0.95825 0.69055 0.0
H712 H 0.06975 0.01164 0.71764 0.0
H713 H 0.07769 0.95198 0.75301 0.0
H714 H 0.07834 0.95295 0.73028 0.0
H715 H 0.05846 0.9528 0.74114 0.0
C716 C 0.07331 0.97579 0.6815 0.0
C717 C 0.05789 0.96753 0.67868 0.0
C718 C 0.07751 0.98152 0.69759 0.0
C719 C 0.06646 0.9789 0.71111 0.0
C720 C 0.0513 0.97022 0.70843 0.0
H721 H 0.04206 0.03045 0.80039 0.0
H722 H 0.04648 0.0211 0.77145 0.0
C723 C 0.04706 0.96454 0.69235 0.0
C724 C 0.06999 0.98643 0.72773 0.0
H725 H 0.07275 0.97688 0.76948 0.0
C726 C 0.07071 0.00406 0.72897 0.0
C727 C 0.07144 0.97649 0.74241 0.0
C728 C 0.07161 0.95749 0.74167 0.0
C729 C 0.07189 0.01204 0.74468 0.0
C730 C 0.07217 0.0021 0.75944 0.0
C731 C 0.07242 0.98447 0.75812 0.0
C732 C 0.07072 0.00962 0.77639 0.0
C733 C 0.0725 0.03102 0.74534 0.0
C734 C 0.08291 0.00627 0.78873 0.0
C735 C 0.08037 0.01153 0.80533 0.0
C736 C 0.06551 0.02004 0.80984 0.0
C737 C 0.05364 0.02393 0.7973 0.0
C738 C 0.0562 0.01869 0.78073 0.0
H739 H 0.07754 0.03638 0.73344 0.0
H740 H 0.05954 0.03597 0.7471 0.0
H741 H 0.08038 0.03548 0.756 0.0
H742 H 0.09415 -0.00081 0.78561 0.0
H743 H 0.08975 0.00837 0.81473 0.0
H744 H 0.27424 0.78042 0.93426 0.0
H745 H 0.26523 0.78266 0.96356 0.0
H746 H 0.26032 0.83652 0.95812 0.0
H747 H 0.26895 0.83435 0.92858 0.0
H748 H 0.27747 0.80008 0.99092 0.0
H749 H 0.21339 0.82233 0.97329 0.0
H750 H 0.22799 0.81389 0.95806 0.0
H751 H 0.23038 0.83511 0.96559 0.0
C752 C 0.27139 0.79277 0.93933 0.0
C753 C 0.27208 0.80719 0.92909 0.0
C754 C 0.26626 0.79402 0.95607 0.0
C755 C 0.26178 0.8097 0.96286 0.0
C756 C 0.26334 0.82426 0.95295 0.0
H757 H 0.227 0.82938 0.0656 0.0
H758 H 0.23848 0.83311 0.03715 0.0
C759 C 0.26835 0.823 0.93614 0.0
C760 C 0.2549 0.81057 0.98011 0.0
H761 H 0.2192 0.81968 0.00232 0.0
C762 C 0.26479 0.80448 0.99344 0.0
C763 C 0.23827 0.81621 0.98328 0.0
C764 C 0.2268 0.82212 0.96931 0.0
C765 C 0.2584 0.80371 0.00986 0.0
C766 C 0.24178 0.80918 0.01294 0.0
C767 C 0.23199 0.81562 -0.00023 0.0
C768 C 0.23406 0.8073 0.02965 0.0
C769 C 0.26925 0.79675 0.02382 0.0
C770 C 0.22756 0.79165 0.03452 0.0
C771 C 0.22094 0.78949 0.05063 0.0
C772 C 0.22083 0.80297 0.06213 0.0
C773 C 0.22698 0.81878 0.05702 0.0
C774 C 0.23352 0.82093 0.04083 0.0
H775 H 0.28247 0.7947 0.01973 0.0
H776 H 0.26919 0.80547 0.03477 0.0
H777 H 0.26398 0.78453 0.02813 0.0
H778 H 0.22786 0.78105 0.02592 0.0
H779 H 0.21629 0.77717 0.05421 0.0
H780 H 0.45768 0.96181 0.30548 0.0
H781 H 0.45312 0.96987 0.27616 0.0
H782 H 0.4 0.97585 0.28585 0.0
H783 H 0.40449 0.96814 0.31539 0.0
H784 H 0.43281 0.95735 0.2504 0.0
H785 H 0.4144 0.02245 0.2691 0.0
H786 H 0.42381 0.0078 0.2837 0.0
H787 H 0.40201 0.00575 0.27802 0.0
C788 C 0.44499 0.96466 0.30135 0.0
C789 C 0.43147 0.9646 0.31276 0.0
C790 C 0.44241 0.96923 0.28459 0.0
C791 C 0.42629 0.97374 0.27897 0.0
C792 C 0.41259 0.97274 0.29008 0.0
H793 H 0.4061 0.00814 0.17546 0.0
H794 H 0.4016 -0.00407 0.20353 0.0
C795 C 0.41517 0.96827 0.3069 0.0
C796 C 0.42419 0.98044 0.26176 0.0
H797 H 0.41594 0.01668 0.24009 0.0
C798 C 0.42888 0.97023 0.24811 0.0
C799 C 0.41921 -0.00267 0.25889 0.0
C800 C 0.41469 0.00906 0.27317 0.0
C801 C 0.42911 0.97663 0.23166 0.0
C802 C 0.42452 0.99357 0.22891 0.0
C803 C 0.4193 0.00364 0.2424 0.0
C804 C 0.42676 0.00148 0.21233 0.0
C805 C 0.43489 0.96554 0.21736 0.0
C806 C 0.44228 0.0088 0.20832 0.0
C807 C 0.44489 0.01579 0.19244 0.0
C808 C 0.43198 0.01552 0.18032 0.0
C809 C 0.41627 0.0085 0.18455 0.0
C810 C 0.41367 0.00152 0.2005 0.0
H811 H 0.43687 0.95228 0.22139 0.0
H812 H 0.42547 0.96578 0.20702 0.0
H813 H 0.44692 0.97049 0.21221 0.0
H814 H 0.45246 0.00887 0.21742 0.0
H815 H 0.45712 0.0211 0.18956 0.0
H816 H 0.56823 0.25912 0.16159 0.0
H817 H 0.53934 0.24919 0.15738 0.0
H818 H 0.52446 0.27235 0.20422 0.0
H819 H 0.55326 0.28234 0.20856 0.0
H820 H 0.52266 0.22748 0.18121 0.0
H821 H 0.48769 0.28698 0.16973 0.0
H822 H 0.51021 0.28521 0.16693 0.0
H823 H 0.50148 0.28741 0.18769 0.0
C824 C 0.55875 0.26233 0.17086 0.0
C825 C 0.56299 0.27144 0.18545 0.0
C826 C 0.54229 0.25663 0.16844 0.0
C827 C 0.52984 0.26017 0.18043 0.0
C828 C 0.5339 0.26973 0.19471 0.0
H829 H 0.43928 0.21159 0.21039 0.0
H830 H 0.46814 0.22139 0.20628 0.0
C831 C 0.55035 0.27534 0.19721 0.0
C832 C 0.51293 0.2527 0.1788 0.0
H833 H 0.47126 0.26271 0.17641 0.0
C834 C 0.51141 0.23513 0.17994 0.0
C835 C 0.49837 0.26276 0.17702 0.0
C836 C 0.49945 0.28164 0.17512 0.0
C837 C 0.49557 0.22736 0.18001 0.0
C838 C 0.48097 0.23749 0.17905 0.0
C839 C 0.48252 0.25501 0.17722 0.0
C840 C 0.46394 0.23031 0.18087 0.0
C841 C 0.49458 0.20842 0.1813 0.0
C842 C 0.45205 0.23217 0.16794 0.0
C843 C 0.43552 0.22665 0.17026 0.0
C844 C 0.43063 0.21933 0.18562 0.0
C845 C 0.44269 0.21714 0.1984 0.0
C846 C 0.4592 0.22264 0.19605 0.0
H847 H 0.50649 0.20235 0.17716 0.0
H848 H 0.49234 0.20485 0.19462 0.0
H849 H 0.48404 0.2034 0.17359 0.0
H850 H 0.45551 0.23815 0.15617 0.0
H851 H 0.42649 0.2285 0.1602 0.0
H852 H 0.9572 0.30195 0.45969 0.0
H853 H 0.9679 0.27338 0.45548 0.0
H854 H 0.98553 0.28707 0.40596 0.0
H855 H 0.97499 0.31578 0.41009 0.0
H856 H 0.96181 0.24876 0.42965 0.0
H857 H 0.02824 0.27118 0.4318 0.0
H858 H 0.0108 0.28405 0.43865 0.0
H859 H 0.01475 0.28115 0.41657 0.0
C860 C 0.96318 0.29884 0.44782 0.0
C861 C 0.96545 0.31114 0.43529 0.0
C862 C 0.96925 0.28253 0.44544 0.0
C863 C 0.97771 0.27828 0.43053 0.0
C864 C 0.97925 0.29025 0.41765 0.0
H865 H 0.01096 0.17451 0.41175 0.0
H866 H -0.00021 0.20292 0.40706 0.0
C867 C 0.97317 0.30659 0.42001 0.0
C868 C 0.98568 0.26157 0.42898 0.0
H869 H 0.02396 0.24202 0.42869 0.0
C870 C 0.97538 0.24723 0.42923 0.0
C871 C 0.0034 0.25975 0.42866 0.0
C872 C 0.01501 0.27481 0.42903 0.0
C873 C 0.98237 0.23101 0.42946 0.0
C874 C 9e-05 0.2292 0.42924 0.0
C875 C 0.01038 0.24354 0.42868 0.0
C876 C 0.00815 0.21258 0.43113 0.0
C877 C 0.97081 0.21597 0.43068 0.0
C878 C 0.01705 0.20891 0.44593 0.0
C879 C 0.02346 0.19279 0.44863 0.0
C880 C 0.02111 0.18009 0.43652 0.0
C881 C 0.01287 0.18403 0.42134 0.0
C882 C 0.00643 0.20018 0.41867 0.0
H883 H 0.95763 0.21968 0.4336 0.0
H884 H 0.97082 0.20913 0.41848 0.0
H885 H 0.97528 0.20713 0.44056 0.0
H886 H 0.01854 0.21839 0.45565 0.0
H887 H 0.02983 0.19016 0.46041 0.0
H888 H 0.06615 0.75739 0.65739 0.0
H889 H 0.0378 0.74624 0.6525 0.0
H890 H 0.0209 0.7686 0.69904 0.0
H891 H 0.04913 0.77979 0.70405 0.0
H892 H 0.02098 0.7238 0.67568 0.0
H893 H 0.98485 0.78247 0.66365 0.0
H894 H 0.00749 0.78133 0.66158 0.0
H895 H -0.00198 0.7832 0.68205 0.0
C896 C 0.05633 0.76015 0.66645 0.0
C897 C 0.05984 0.76942 0.68113 0.0
C898 C 0.04019 0.75375 0.66365 0.0
C899 C 0.02733 0.75673 0.67536 0.0
C900 C 0.03066 0.76639 0.68976 0.0
H901 H 0.93714 0.707 0.70393 0.0
H902 H 0.96627 0.71601 0.69974 0.0
C903 C 0.04679 0.7727 0.69263 0.0
C904 C 0.01069 0.7488 0.67322 0.0
H905 H 0.96886 0.75785 0.67019 0.0
C906 C 0.00957 0.73119 0.67424 0.0
C907 C -0.00407 0.75851 0.67121 0.0
C908 C -0.00343 0.77743 0.6694 0.0
C909 C 0.99391 0.72304 0.67401 0.0
C910 C 0.9791 0.73284 0.67287 0.0
C911 C 0.98028 0.75039 0.67113 0.0
C912 C 0.96217 0.72533 0.67445 0.0
C913 C 0.99334 0.70408 0.67518 0.0
C914 C 0.95029 0.72753 0.66156 0.0
C915 C 0.93363 0.72248 0.66395 0.0
C916 C 0.92858 0.7153 0.67932 0.0
C917 C 0.94068 0.71247 0.69194 0.0
C918 C 0.95733 0.71752 0.68954 0.0
H919 H 0.00541 0.69831 0.67107 0.0
H920 H 0.99111 0.70038 0.68847 0.0
H921 H 0.98296 0.69886 0.66739 0.0
H922 H 0.95382 0.7336 0.64986 0.0
H923 H 0.9246 0.72478 0.65398 0.0
H924 H 0.46531 0.80304 0.96031 0.0
H925 H 0.47657 0.77459 0.95738 0.0
H926 H 0.48165 0.78194 0.90377 0.0
H927 H 0.47075 0.81067 0.90665 0.0
H928 H 0.466 0.74727 0.93907 0.0
H929 H 0.52921 0.76874 0.91785 0.0
H930 H 0.51379 0.78295 0.92661 0.0
H931 H 0.51197 0.776 0.90514 0.0
C932 C 0.46871 0.79858 0.94787 0.0
C933 C 0.46733 0.80912 0.93372 0.0
C934 C 0.47515 0.78233 0.94623 0.0
C935 C 0.48025 0.77634 0.93042 0.0
C936 C 0.47816 0.78653 0.91614 0.0
H937 H 0.51713 0.67574 0.90602 0.0
H938 H 0.50602 0.70449 0.90378 0.0
C939 C 0.47183 0.80286 0.91779 0.0
C940 C 0.48805 0.75951 0.92908 0.0
H941 H 0.52469 0.7393 0.91903 0.0
C942 C 0.47879 0.74551 0.93461 0.0
C943 C 0.50481 0.75733 0.92337 0.0
C944 C 0.51561 0.77205 0.91804 0.0
C945 C 0.48589 0.72937 0.93467 0.0
C946 C 0.50261 0.72725 0.92903 0.0
C947 C 0.51182 0.74112 0.92324 0.0
C948 C 0.51087 0.71072 0.92984 0.0
C949 C 0.47565 0.71465 0.94097 0.0
C950 C 0.51759 0.70507 0.94514 0.0
C951 C 0.52397 0.68877 0.94647 0.0
C952 C 0.52362 0.67787 0.93251 0.0
C953 C 0.51751 0.68385 0.91699 0.0
C954 C 0.51117 0.70021 0.91567 0.0
H955 H 0.46233 0.71815 0.94343 0.0
H956 H 0.47595 0.70424 0.93163 0.0
H957 H 0.48126 0.70984 0.95284 0.0
H958 H 0.51744 0.71313 0.95616 0.0
H959 H 0.52862 0.68453 0.95857 0.0
H960 H 0.56852 0.74062 0.3237 0.0
H961 H 0.5395 0.75012 0.32758 0.0
H962 H 0.52177 0.70807 0.29797 0.0
H963 H 0.55084 0.69907 0.29333 0.0
H964 H 0.50918 0.73567 0.28656 0.0
H965 H 0.50052 0.73599 0.35567 0.0
H966 H 0.51844 0.74826 0.34952 0.0
H967 H 0.51828 0.72588 0.34571 0.0
C968 C 0.55839 0.73323 0.31832 0.0
C969 C 0.56185 0.71918 0.30815 0.0
C970 C 0.54179 0.7386 0.32065 0.0
C971 C 0.52842 0.7297 0.31324 0.0
C972 C 0.53188 0.71514 0.30381 0.0
H973 H 0.42194 0.75039 0.3263 0.0
H974 H 0.45074 0.73983 0.32902 0.0
C975 C 0.54846 0.71 0.30117 0.0
C976 C 0.51107 0.73655 0.31364 0.0
H977 H 0.48038 0.75186 0.33958 0.0
C978 C 0.50284 0.73904 0.29819 0.0
C979 C 0.50273 0.74084 0.3288 0.0
C980 C 0.51039 0.73743 0.34586 0.0
C981 C 0.48658 0.74579 0.29743 0.0
C982 C 0.4786 0.75091 0.31251 0.0
C983 C 0.48668 0.74822 0.32801 0.0
C984 C 0.46159 0.75853 0.31239 0.0
C985 C 0.47804 0.74697 0.28046 0.0
C986 C 0.45828 0.77292 0.30267 0.0
C987 C 0.44181 0.77876 0.30083 0.0
C988 C 0.42848 0.77057 0.30906 0.0
C989 C 0.43198 0.75692 0.31977 0.0
C990 C 0.44842 0.75088 0.32135 0.0
H991 H 0.48364 0.73805 0.27124 0.0
H992 H 0.46435 0.74428 0.28146 0.0
H993 H 0.47965 0.75989 0.27538 0.0
H994 H 0.46836 0.77933 0.29608 0.0
H995 H 0.43946 0.78947 0.2927 0.0
H996 H 0.53164 0.30109 0.53275 0.0
H997 H 0.5225 0.27235 0.53882 0.0
H998 H 0.5055 0.28795 0.58802 0.0
H999 H 0.51442 0.31687 0.58198 0.0
H1000 H 0.53043 0.24947 0.56534 0.0
H1001 H 0.46295 0.26876 0.56479 0.0
H1002 H 0.4795 0.28219 0.5569 0.0
H1003 H 0.47652 0.2798 0.57919 0.0
C1004 C 0.52612 0.29839 0.54493 0.0
C1005 C 0.52353 0.31125 0.55681 0.0
C1006 C 0.52095 0.28197 0.54839 0.0
C1007 C 0.51312 0.27816 0.56375 0.0
C1008 C 0.51129 0.29077 0.57599 0.0
H1009 H 0.48411 0.17298 0.58395 0.0
H1010 H 0.4945 0.20167 0.58887 0.0
C1011 C 0.51643 0.30723 0.57253 0.0
C1012 C 0.50601 0.2612 0.56637 0.0
H1013 H 0.46871 0.23993 0.56802 0.0
C1014 C 0.51696 0.24734 0.56619 0.0
C1015 C 0.48842 0.25859 0.5673 0.0
C1016 C 0.47609 0.27307 0.56694 0.0
C1017 C 0.51072 0.23082 0.5664 0.0
C1018 C 0.49312 0.22822 0.56699 0.0
C1019 C 0.4822 0.24208 0.56772 0.0
C1020 C 0.48577 0.2113 0.56492 0.0
C1021 C 0.52292 0.21628 0.5651 0.0
C1022 C 0.47703 0.20749 0.55007 0.0
C1023 C 0.47109 0.19123 0.54723 0.0
C1024 C 0.47375 0.17851 0.55925 0.0
C1025 C 0.48195 0.18252 0.57443 0.0
C1026 C 0.48794 0.19884 0.57724 0.0
H1027 H 0.53595 0.22055 0.56232 0.0
H1028 H 0.52308 0.20928 0.57719 0.0
H1029 H 0.51887 0.2074 0.55507 0.0
H1030 H 0.47521 0.21701 0.54046 0.0
H1031 H 0.46474 0.18854 0.53546 0.0
H1032 H 0.93686 0.2804 0.78191 0.0
H1033 H 0.96538 0.26974 0.78633 0.0
H1034 H 0.9509 0.25062 0.83508 0.0
H1035 H 0.92221 0.2611 0.8307 0.0
H1036 H 0.98903 0.27602 0.81244 0.0
H1037 H 0.96891 0.20889 0.80946 0.0
H1038 H 0.95554 0.22596 0.80262 0.0
H1039 H 0.95827 0.22185 0.82469 0.0
C1040 C 0.93976 0.27404 0.79363 0.0
C1041 C 0.92727 0.27142 0.80589 0.0
C1042 C 0.95605 0.26799 0.79614 0.0
C1043 C 0.9601 0.2592 0.81091 0.0
C1044 C 0.94788 0.25714 0.82348 0.0
H1045 H 0.06464 0.22997 0.83155 0.0
H1046 H 0.03571 0.23984 0.83577 0.0
C1047 C 0.93155 0.26319 0.82098 0.0
C1048 C 0.97702 0.25173 0.81275 0.0
H1049 H -0.00216 0.21412 0.81335 0.0
C1050 C 0.991 0.2625 0.81284 0.0
C1051 C 0.97942 0.23407 0.81305 0.0
C1052 C 0.96479 0.22196 0.81232 0.0
C1053 C 0.00744 0.25607 0.8129 0.0
C1054 C 0.00985 0.23842 0.81314 0.0
C1055 C -0.00414 0.22764 0.81336 0.0
C1056 C 0.02679 0.23095 0.8116 0.0
C1057 C 0.02208 0.26816 0.81199 0.0
C1058 C 0.03107 0.22214 0.79691 0.0
C1059 C 0.0475 0.21645 0.79448 0.0
C1060 C 0.0599 0.21947 0.80675 0.0
C1061 C 0.05537 0.22757 0.82184 0.0
C1062 C 0.0389 0.23327 0.82424 0.0
H1063 H 0.01798 0.28118 0.80887 0.0
H1064 H 0.02859 0.26849 0.82436 0.0
H1065 H 0.03134 0.26396 0.80238 0.0
H1066 H 0.02182 0.22018 0.78705 0.0
H1067 H 0.05059 0.21016 0.78278 0.0
H1068 H 0.9595 0.6874 0.0333 0.0
H1069 H 0.9703 0.71585 0.03782 0.0
H1070 H 0.98743 0.70169 0.08741 0.0
H1071 H 0.97681 0.67305 0.08293 0.0
H1072 H 0.96391 0.74022 0.06344 0.0
H1073 H 0.03043 0.71788 0.06265 0.0
H1074 H 0.01315 0.70492 0.05555 0.0
H1075 H 0.01663 0.70803 0.07768 0.0
C1076 C 0.96541 0.69036 0.04524 0.0
C1077 C 0.9675 0.67796 0.05769 0.0
C1078 C 0.97154 0.70662 0.04781 0.0
C1079 C 0.97986 0.71073 0.06284 0.0
C1080 C 0.98126 0.69863 0.07562 0.0
H1081 H 0.01309 0.81525 0.07894 0.0
H1082 H 0.00215 0.787 0.08502 0.0
C1083 C 0.97515 0.68233 0.07306 0.0
C1084 C 0.98779 0.72744 0.06458 0.0
H1085 H 0.02603 0.74706 0.06496 0.0
C1086 C 0.97747 0.74177 0.06402 0.0
C1087 C 0.0055 0.7293 0.06516 0.0
C1088 C 0.01714 0.71426 0.06517 0.0
C1089 C 0.98444 0.75799 0.06356 0.0
C1090 C 0.00215 0.75982 0.06387 0.0
C1091 C 0.01245 0.74552 0.0649 0.0
C1092 C 0.01018 0.77636 0.06125 0.0
C1093 C 0.97287 0.77299 0.06189 0.0
C1094 C 0.0188 0.77944 0.04616 0.0
C1095 C 0.02504 0.79546 0.04266 0.0
C1096 C 0.02283 0.80865 0.05425 0.0
C1097 C 0.01491 0.80533 0.06975 0.0
C1098 C 0.0086 0.78926 0.07321 0.0
H1099 H 0.95965 0.76921 0.05931 0.0
H1100 H 0.97309 0.78036 0.07377 0.0
H1101 H 0.97722 0.78139 0.05157 0.0
H1102 H 0.02017 0.76957 0.03682 0.0
H1103 H 0.03118 0.79762 0.03067 0.0
H1104 H 0.1578 0.42018 0.23227 0.0
H1105 H 0.15334 0.44875 0.24303 0.0
H1106 H 0.19786 0.46565 0.21693 0.0
H1107 H 0.2025 0.43717 0.20617 0.0
H1108 H 0.17892 0.46571 0.26328 0.0
H1109 H 0.16073 0.50158 0.20602 0.0
H1110 H 0.15845 0.47897 0.20764 0.0
H1111 H 0.17875 0.48808 0.20353 0.0
C1112 C 0.16647 0.43005 0.22858 0.0
C1113 C 0.18055 0.42645 0.21845 0.0
C1114 C 0.16391 0.44632 0.23475 0.0
C1115 C 0.17521 0.45923 0.23066 0.0
C1116 C 0.18889 0.45584 0.22002 0.0
H1117 H 0.20886 0.54905 0.27726 0.0
H1118 H 0.2037 0.52022 0.26786 0.0
C1119 C 0.19155 0.43957 0.21396 0.0
C1120 C 0.1737 0.47589 0.23868 0.0
H1121 H 0.1695 0.51768 0.22986 0.0
C1122 C 0.1766 0.47708 0.25606 0.0
C1123 C 0.17057 0.49059 0.22918 0.0
C1124 C 0.1668 0.48981 0.21057 0.0
C1125 C 0.1772 0.49278 0.26412 0.0
C1126 C 0.17496 0.50755 0.25445 0.0
C1127 C 0.17128 0.50629 0.2372 0.0
C1128 C 0.17748 0.52448 0.26169 0.0
C1129 C 0.18048 0.49342 0.28283 0.0
C1130 C 0.16444 0.53638 0.26127 0.0
C1131 C 0.16737 0.5529 0.26656 0.0
C1132 C 0.18343 0.55776 0.27219 0.0
C1133 C 0.19634 0.54567 0.27302 0.0
C1134 C 0.19339 0.52917 0.26775 0.0
H1135 H 0.17702 0.48138 0.28906 0.0
H1136 H 0.19411 0.49562 0.28502 0.0
H1137 H 0.17335 0.50385 0.28885 0.0
H1138 H 0.1521 0.53296 0.25653 0.0
H1139 H 0.15718 0.56195 0.26579 0.0
H1140 H 0.70168 0.04872 0.78735 0.0
H1141 H 0.69856 0.01916 0.77916 0.0
H1142 H 0.66257 0.03349 0.741 0.0
H1143 H 0.665 0.06292 0.74973 0.0
H1144 H 0.65364 0.00464 0.75498 0.0
H1145 H 0.72121 0.00166 0.73777 0.0
H1146 H 0.71817 0.00668 0.75957 0.0
H1147 H 0.71101 0.0211 0.74356 0.0
C1148 C 0.69295 0.0455 0.77737 0.0
C1149 C 0.68373 0.05807 0.76902 0.0
C1150 C 0.69127 0.02866 0.77262 0.0
C1151 C 0.68074 0.02422 0.75912 0.0
C1152 C 0.67088 0.03667 0.75136 0.0
H1153 H 0.69786 0.93278 0.7025 0.0
H1154 H 0.69373 0.96211 0.71094 0.0
C1155 C 0.67228 0.05347 0.75635 0.0
C1156 C 0.68058 0.00678 0.75253 0.0
H1157 H 0.70621 0.97584 0.7374 0.0
C1158 C 0.66511 -0.00166 0.75105 0.0
C1159 C 0.69552 -0.00125 0.74703 0.0
C1160 C 0.71238 0.00758 0.74688 0.0
C1161 C 0.66419 0.98197 0.74443 0.0
C1162 C 0.67924 0.97365 0.73972 0.0
C1163 C 0.69467 0.98218 0.74108 0.0
C1164 C 0.67952 0.95608 0.73345 0.0
C1165 C 0.64709 0.97398 0.74219 0.0
C1166 C 0.67258 0.94296 0.74307 0.0
C1167 C 0.67457 0.92623 0.73802 0.0
C1168 C 0.68398 0.92236 0.72355 0.0
C1169 C 0.69059 0.93547 0.71373 0.0
C1170 C 0.68826 0.9522 0.71856 0.0
H1171 H 0.63708 0.98367 0.74085 0.0
H1172 H 0.64676 0.96564 0.73097 0.0
H1173 H 0.64408 0.96634 0.7535 0.0
H1174 H 0.66622 0.94557 0.75485 0.0
H1175 H 0.66952 0.9163 0.7459 0.0
H1176 H 0.17579 0.40676 0.01573 0.0
H1177 H 0.20493 0.40232 0.00675 0.0
H1178 H 0.21775 0.45242 0.02344 0.0
H1179 H 0.18874 0.45692 0.03259 0.0
H1180 H 0.21964 0.42206 0.98205 0.0
H1181 H 0.25723 0.42411 0.04081 0.0
H1182 H 0.23478 0.4204 0.04074 0.0
H1183 H 0.24288 0.44149 0.03892 0.0
C1184 C 0.18489 0.4167 0.01781 0.0
C1185 C 0.17997 0.43224 0.02475 0.0
C1186 C 0.20151 0.41413 0.01268 0.0
C1187 C 0.21347 0.42698 0.01457 0.0
C1188 C 0.20877 0.44223 0.02218 0.0
H1189 H 0.29745 0.45898 0.95798 0.0
H1190 H 0.26984 0.45257 0.96996 0.0
C1191 C 0.19216 0.44482 0.0273 0.0
C1192 C 0.23028 0.42531 0.00682 0.0
H1193 H 0.27224 0.42938 0.01498 0.0
C1194 C 0.23117 0.42336 0.98927 0.0
C1195 C 0.24526 0.42686 0.0163 0.0
C1196 C 0.24504 0.42817 0.03526 0.0
C1197 C 0.24665 0.42381 0.98084 0.0
C1198 C 0.26152 0.42645 0.99021 0.0
C1199 C 0.26074 0.42749 0.00784 0.0
C1200 C 0.27785 0.42941 0.9819 0.0
C1201 C 0.24694 0.42183 0.96194 0.0
C1202 C 0.29143 0.41848 0.98471 0.0
C1203 C 0.30722 0.42209 0.97786 0.0
C1204 C 0.30966 0.43682 0.96832 0.0
C1205 C 0.29593 0.44754 0.96526 0.0
C1206 C 0.28015 0.44387 0.97202 0.0
H1207 H 0.23545 0.41535 0.95726 0.0
H1208 H 0.24748 0.43447 0.95601 0.0
H1209 H 0.25819 0.4146 0.95783 0.0
H1210 H 0.28985 0.40731 0.99239 0.0
H1211 H 0.31759 0.41362 0.98046 0.0
H1212 H 0.83458 0.06416 0.22837 0.0
H1213 H 0.8396 0.0351 0.23736 0.0
H1214 H 0.78853 0.02211 0.22415 0.0
H1215 H 0.78342 0.05106 0.21501 0.0
H1216 H 0.82125 0.01962 0.26334 0.0
H1217 H 0.81641 0.98353 0.2037 0.0
H1218 H 0.81996 0.00601 0.20418 0.0
H1219 H 0.79911 -0.00231 0.20717 0.0
C1220 C 0.82451 0.05504 0.22711 0.0
C1221 C 0.80858 0.05987 0.22106 0.0
C1222 C 0.8274 0.03848 0.23225 0.0
C1223 C 0.81448 0.02649 0.23126 0.0
C1224 C 0.79874 0.03114 0.22471 0.0
H1225 H 0.78916 0.93854 0.28587 0.0
H1226 H 0.79363 0.96713 0.27536 0.0
C1227 C 0.79583 0.04769 0.21959 0.0
C1228 C 0.81688 0.00955 0.2385 0.0
H1229 H 0.81396 0.96771 0.2293 0.0
C1230 C 0.81991 0.00825 0.25587 0.0
C1231 C 0.81524 0.9948 0.22868 0.0
C1232 C 0.81265 -0.00448 0.20987 0.0
C1233 C 0.8206 0.99252 0.26383 0.0
C1234 C 0.81808 0.97782 0.25415 0.0
C1235 C 0.8158 0.97907 0.23667 0.0
C1236 C 0.81661 0.96107 0.26202 0.0
C1237 C 0.82372 0.99172 0.28256 0.0
C1238 C 0.82816 0.94832 0.25807 0.0
C1239 C 0.82568 0.93198 0.2641 0.0
C1240 C 0.81146 0.92816 0.27394 0.0
C1241 C 0.80023 0.94112 0.27832 0.0
C1242 C 0.80279 0.95746 0.27239 0.0
H1243 H 0.8296 0.00349 0.28733 0.0
H1244 H 0.81154 0.98997 0.28917 0.0
H1245 H 0.83199 0.9809 0.28578 0.0
H1246 H 0.83885 0.95093 0.25001 0.0
H1247 H 0.83453 0.92224 0.2605 0.0
H1248 H 0.68282 0.02684 0.96674 0.0
H1249 H 0.71233 0.02945 0.97492 0.0
H1250 H 0.70613 0.08314 0.98076 0.0
H1251 H 0.67638 0.08059 0.97297 0.0
H1252 H 0.73855 0.04751 0.9614 0.0
H1253 H 0.72419 0.06873 0.02662 0.0
H1254 H 0.70832 0.06016 0.0128 0.0
H1255 H 0.71527 0.08156 0.01026 0.0
C1256 C 0.68774 0.03923 0.96968 0.0
C1257 C 0.67727 0.0535 0.96941 0.0
C1258 C 0.7046 0.04069 0.97433 0.0
C1259 C 0.71128 0.05644 0.97874 0.0
C1260 C 0.70106 0.07083 0.97778 0.0
H1261 H 0.8151 0.07896 0.00756 0.0
H1262 H 0.78589 0.0817 -0.00218 0.0
C1263 C 0.68413 0.06937 0.97324 0.0
C1264 C 0.72885 0.05756 0.98467 0.0
H1265 H 0.75292 0.06699 0.01906 0.0
C1266 C 0.74171 0.05187 0.97396 0.0
C1267 C 0.73286 0.06313 0.00113 0.0
C1268 C 0.71945 0.06861 0.01345 0.0
C1269 C 0.7585 0.05147 0.97934 0.0
C1270 C 0.76243 0.05694 -0.00422 0.0
C1271 C 0.74971 0.06293 0.00641 0.0
C1272 C 0.77964 0.05559 0.00242 0.0
C1273 C 0.77195 0.04497 0.96761 0.0
C1274 C 0.78548 0.04008 0.00844 0.0
C1275 C 0.80203 0.03847 0.01406 0.0
C1276 C 0.81298 0.05238 0.01365 0.0
C1277 C 0.80694 0.06803 0.00796 0.0
C1278 C 0.79032 0.06963 0.00241 0.0
H1279 H 0.76711 0.04286 0.95465 0.0
H1280 H 0.78262 0.054 0.96706 0.0
H1281 H 0.77693 0.03285 0.97253 0.0
H1282 H 0.77728 0.02916 0.00854 0.0
H1283 H 0.80633 0.02626 0.01838 0.0
H1284 H 0.2869 0.4387 0.78817 0.0
H1285 H 0.29095 0.46753 0.77823 0.0
H1286 H 0.33874 0.45353 0.75653 0.0
H1287 H 0.33474 0.42453 0.76628 0.0
H1288 H 0.31727 0.49193 0.78245 0.0
H1289 H 0.3096 0.46993 0.71624 0.0
H1290 H 0.30423 0.45693 0.73409 0.0
H1291 H 0.3259 0.45994 0.72839 0.0
C1292 C 0.2984 0.44179 0.78149 0.0
C1293 C 0.31039 0.42932 0.77776 0.0
C1294 C 0.3007 0.45827 0.77588 0.0
C1295 C 0.315 0.46251 0.76644 0.0
C1296 C 0.32751 0.45037 0.76359 0.0
H1297 H 0.329 0.56677 0.73184 0.0
H1298 H 0.33506 0.53878 0.74338 0.0
C1299 C 0.32522 0.43385 0.76922 0.0
C1300 C 0.31599 0.47928 0.75851 0.0
H1301 H 0.31251 0.49905 0.72052 0.0
C1302 C 0.31647 0.49355 0.7689 0.0
C1303 C 0.3147 0.48121 0.74085 0.0
C1304 C 0.31345 0.46623 0.72918 0.0
C1305 C 0.3153 0.50981 0.76209 0.0
C1306 C 0.31383 0.51172 0.74444 0.0
C1307 C 0.31377 0.49746 0.73403 0.0
C1308 C 0.31081 0.52832 0.73666 0.0
C1309 C 0.31485 0.52475 0.77385 0.0
C1310 C 0.2954 0.53144 0.72862 0.0
C1311 C 0.29194 0.54731 0.72196 0.0
C1312 C 0.30387 0.56032 0.72321 0.0
C1313 C 0.31953 0.557 0.7308 0.0
C1314 C 0.32298 0.54109 0.73746 0.0
H1315 H 0.31307 0.5209 0.78719 0.0
H1316 H 0.32692 0.53173 0.77291 0.0
H1317 H 0.30453 0.5335 0.77029 0.0
H1318 H 0.28588 0.52168 0.72785 0.0
H1319 H 0.27979 0.54947 0.71613 0.0
H1320 H 0.30206 0.53255 0.53312 0.0
H1321 H 0.27318 0.53798 0.52414 0.0
H1322 H 0.28764 0.58736 0.50668 0.0
H1323 H 0.31676 0.58197 0.51548 0.0
H1324 H 0.24969 0.56406 0.53183 0.0
H1325 H 0.26902 0.56306 0.46434 0.0
H1326 H 0.28264 0.55567 0.48098 0.0
H1327 H 0.27962 0.57786 0.47783 0.0
C1328 C 0.29909 0.54465 0.52754 0.0
C1329 C 0.3117 0.55675 0.52478 0.0
C1330 C 0.28258 0.54774 0.52247 0.0
C1331 C 0.2784 0.56296 0.51455 0.0
C1332 C 0.29074 0.57545 0.51257 0.0
H1333 H 0.17262 0.57847 0.48507 0.0
H1334 H 0.20103 0.58468 0.49544 0.0
C1335 C 0.30731 0.57236 0.51764 0.0
C1336 C 0.26138 0.56503 0.5074 0.0
H1337 H 0.24009 0.56487 0.47006 0.0
C1338 C 0.24753 0.56454 0.51835 0.0
C1339 C 0.25874 0.56545 0.48979 0.0
C1340 C 0.27324 0.56542 0.47748 0.0
C1341 C 0.23103 0.56387 0.51211 0.0
C1342 C 0.22842 0.56389 0.49449 0.0
C1343 C 0.24224 0.56498 0.48356 0.0
C1344 C 0.21161 0.56096 0.48719 0.0
C1345 C 0.21657 0.56222 0.52433 0.0
C1346 C 0.20839 0.54579 0.47873 0.0
C1347 C 0.19226 0.54222 0.4728 0.0
C1348 C 0.1791 0.5538 0.47519 0.0
C1349 C 0.18251 0.56927 0.48314 0.0
C1350 C 0.19867 0.57282 0.48911 0.0
H1351 H 0.22095 0.55989 0.53742 0.0
H1352 H 0.20907 0.57402 0.52425 0.0
H1353 H 0.20811 0.55175 0.52051 0.0
H1354 H 0.21828 0.53652 0.47713 0.0
H1355 H 0.19004 0.53023 0.46666 0.0
H1356 H 0.79198 0.69935 0.05439 0.0
H1357 H 0.78245 0.69412 0.02556 0.0
H1358 H 0.74571 0.65859 0.04404 0.0
H1359 H 0.75568 0.66323 0.07284 0.0
H1360 H 0.75887 0.64847 0.01423 0.0
H1361 H 0.73885 0.71527 0.01047 0.0
H1362 H 0.76096 0.71309 0.01455 0.0
H1363 H 0.7459 0.70576 0.02985 0.0
C1364 C 0.78206 0.69023 0.05225 0.0
C1365 C 0.77438 0.68188 0.06582 0.0
C1366 C 0.77657 0.68732 0.03582 0.0
C1367 C 0.76305 0.67636 0.03276 0.0
C1368 C 0.75607 0.66721 0.04618 0.0
H1369 H 0.70194 0.68969 0.94378 0.0
H1370 H 0.71128 0.68566 0.97283 0.0
C1371 C 0.76177 0.66989 0.0626 0.0
C1372 C 0.75541 0.67535 0.01581 0.0
H1373 H 0.73772 0.69955 0.98512 0.0
C1374 C 0.75415 0.6596 0.00785 0.0
C1375 C 0.74888 0.68983 0.00774 0.0
C1376 C 0.74854 0.7069 0.01616 0.0
C1377 C 0.74683 0.65801 0.99183 0.0
C1378 C 0.7411 0.67265 0.98341 0.0
C1379 C 0.74217 0.68833 0.99153 0.0
C1380 C 0.73413 0.67232 0.96611 0.0
C1381 C 0.74503 0.64066 0.98428 0.0
C1382 C 0.74359 0.6657 0.95269 0.0
C1383 C 0.73802 0.66763 0.93611 0.0
C1384 C 0.72319 0.67664 0.93271 0.0
C1385 C 0.71346 0.68276 0.94612 0.0
C1386 C 0.7188 0.68047 0.96269 0.0
H1387 H 0.74455 0.63081 0.99421 0.0
H1388 H 0.7335 0.63966 0.97643 0.0
H1389 H 0.75614 0.63799 0.97622 0.0
H1390 H 0.75567 0.65979 0.95494 0.0
H1391 H 0.74583 0.66297 0.92593 0.0
H1392 H 0.53088 0.53031 0.30113 0.0
H1393 H 0.53523 0.52022 0.27242 0.0
H1394 H 0.58631 0.50643 0.28479 0.0
H1395 H 0.582 0.51629 0.31372 0.0
H1396 H 0.55912 0.52843 0.24724 0.0
H1397 H 0.56438 0.46194 0.26909 0.0
H1398 H 0.55669 0.4786 0.28251 0.0
H1399 H 0.57883 0.47673 0.27833 0.0
C1400 C 0.54311 0.52529 0.29772 0.0
C1401 C 0.55604 0.52386 0.30972 0.0
C1402 C 0.54557 0.51957 0.28131 0.0
C1403 C 0.56099 0.51235 0.27663 0.0
C1404 C 0.57423 0.51171 0.2883 0.0
H1405 H 0.57812 0.47952 0.17237 0.0
H1406 H 0.58318 0.49122 0.20049 0.0
C1407 C 0.57176 0.51739 0.30477 0.0
C1408 C 0.56268 0.50466 0.25979 0.0
H1409 H 0.56531 0.46664 0.23987 0.0
C1410 C 0.56071 0.51496 0.24557 0.0
C1411 C 0.56456 0.48705 0.25778 0.0
C1412 C 0.56611 0.47536 0.2727 0.0
C1413 C 0.5602 0.50804 0.22934 0.0
C1414 C 0.56185 0.49043 0.22737 0.0
C1415 C 0.56421 0.48016 0.24153 0.0
C1416 C 0.55961 0.48232 0.21084 0.0
C1417 C 0.55715 0.51946 0.21445 0.0
C1418 C 0.5449 0.47311 0.20763 0.0
C1419 C 0.54195 0.46646 0.19165 0.0
C1420 C 0.55373 0.46885 0.17866 0.0
C1421 C 0.56879 0.47752 0.18212 0.0
C1422 C 0.57169 0.48425 0.19812 0.0
H1423 H 0.55411 0.53256 0.21835 0.0
H1424 H 0.56859 0.51978 0.20643 0.0
H1425 H 0.54662 0.51454 0.20665 0.0
H1426 H 0.53548 0.47149 0.21737 0.0
H1427 H 0.53027 0.45978 0.18937 0.0
H1428 H 0.78354 0.28612 0.44152 0.0
H1429 H 0.77229 0.29202 0.46951 0.0
H1430 H 0.75489 0.34062 0.45254 0.0
H1431 H 0.76599 0.33476 0.42433 0.0
H1432 H 0.77786 0.31914 0.49268 0.0
H1433 H 0.71186 0.31572 0.46898 0.0
H1434 H 0.72954 0.30822 0.45681 0.0
H1435 H 0.72571 0.33042 0.45872 0.0
C1436 C 0.77749 0.29815 0.44377 0.0
C1437 C 0.77545 0.3099 0.43069 0.0
C1438 C 0.77111 0.3015 0.45977 0.0
C1439 C 0.76257 0.31663 0.46295 0.0
C1440 C 0.76125 0.32877 0.45019 0.0
H1441 H 0.72692 0.33437 0.56644 0.0
H1442 H 0.73807 0.34041 0.53829 0.0
C1443 C 0.76764 0.32542 0.43414 0.0
C1444 C 0.75425 0.31904 0.47938 0.0
H1445 H 0.71559 0.31876 0.49815 0.0
C1446 C 0.76425 0.31935 0.49393 0.0
C1447 C 0.73649 0.31912 0.48083 0.0
C1448 C 0.7252 0.31824 0.46556 0.0
C1449 C 0.75695 0.31916 0.51 0.0
C1450 C 0.7392 0.31886 0.51145 0.0
C1451 C 0.72919 0.31914 0.4969 0.0
C1452 C 0.7309 0.31627 0.52785 0.0
C1453 C 0.76824 0.31834 0.52528 0.0
C1454 C 0.72267 0.30098 0.53101 0.0
C1455 C 0.71628 0.29751 0.54698 0.0
C1456 C 0.718 0.30932 0.56005 0.0
C1457 C 0.72551 0.32499 0.55663 0.0
C1458 C 0.73194 0.32844 0.54061 0.0
H1459 H 0.78162 0.31609 0.52185 0.0
H1460 H 0.76748 0.33043 0.53225 0.0
H1461 H 0.76407 0.30815 0.5339 0.0
H1462 H 0.72173 0.29146 0.52126 0.0
H1463 H 0.71046 0.28537 0.54921 0.0
H1464 H 0.90453 0.51189 0.67469 0.0
H1465 H 0.89945 0.50117 0.70318 0.0
H1466 H 0.94631 0.52307 0.71983 0.0
H1467 H 0.95144 0.53388 0.69152 0.0
H1468 H 0.92109 0.47851 0.71946 0.0
H1469 H 0.91305 0.53679 0.75695 0.0
H1470 H 0.91087 0.53638 0.73429 0.0
H1471 H 0.93143 0.53732 0.74379 0.0
C1472 C 0.9136 0.51467 0.6845 0.0
C1473 C 0.92842 0.52366 0.68088 0.0
C1474 C 0.91068 0.50854 0.70073 0.0
C1475 C 0.92241 0.5115 0.71359 0.0
C1476 C 0.93694 0.52094 0.71013 0.0
H1477 H 0.95779 0.45953 0.79846 0.0
H1478 H 0.95021 0.46983 0.7705 0.0
C1479 C 0.93991 0.52701 0.69393 0.0
C1480 C 0.92045 0.50343 0.73022 0.0
H1481 H 0.92108 0.51187 0.77231 0.0
C1482 C 0.92075 0.48577 0.73103 0.0
C1483 C 0.91982 0.51295 0.74524 0.0
C1484 C 0.9186 0.53191 0.74506 0.0
C1485 C 0.92149 0.47739 0.74655 0.0
C1486 C 0.92211 0.48697 0.76154 0.0
C1487 C 0.92074 0.50458 0.76076 0.0
C1488 C 0.92571 0.47916 0.77801 0.0
C1489 C 0.92202 0.4584 0.74676 0.0
C1490 C 0.91445 0.48105 0.79148 0.0
C1491 C 0.91877 0.47521 0.80751 0.0
C1492 C 0.93451 0.4676 0.81031 0.0
C1493 C 0.94557 0.46534 0.79668 0.0
C1494 C 0.94121 0.47111 0.78068 0.0
H1495 H 0.91632 0.45299 0.73518 0.0
H1496 H 0.93534 0.45418 0.74736 0.0
H1497 H 0.91531 0.45328 0.75792 0.0
H1498 H 0.90248 0.48735 0.78965 0.0
H1499 H 0.91 0.47713 0.81778 0.0
H1500 H 0.81898 0.91059 0.48268 0.0
H1501 H 0.7905 0.9061 0.49357 0.0
H1502 H 0.7731 0.94983 0.46642 0.0
H1503 H 0.80149 0.95443 0.45545 0.0
H1504 H 0.77308 0.93069 0.51335 0.0
H1505 H 0.73769 0.91291 0.45571 0.0
H1506 H 0.76036 0.91143 0.45717 0.0
H1507 H 0.75047 0.93147 0.4535 0.0
C1508 C 0.80903 0.91909 0.47881 0.0
C1509 C 0.81245 0.93291 0.46827 0.0
C1510 C 0.79281 0.91651 0.48506 0.0
C1511 C 0.77975 0.92757 0.48068 0.0
C1512 C 0.783 0.94103 0.46972 0.0
H1513 H 0.6886 0.95688 0.52921 0.0
H1514 H 0.71753 0.95348 0.51936 0.0
C1515 C 0.79922 0.94368 0.46354 0.0
C1516 C 0.76305 0.92589 0.48859 0.0
H1517 H 0.72136 0.921 0.47963 0.0
C1518 C 0.76176 0.92836 0.50605 0.0
C1519 C 0.74841 0.92272 0.479 0.0
C1520 C 0.74925 0.91933 0.46032 0.0
C1521 C 0.74606 0.92836 0.51411 0.0
C1522 C 0.73135 0.926 0.50438 0.0
C1523 C 0.7327 0.92289 0.48702 0.0
C1524 C 0.71435 0.92748 0.51175 0.0
C1525 C 0.74536 0.931 0.53291 0.0
C1526 C 0.70299 0.91401 0.51064 0.0
C1527 C 0.68641 0.91594 0.51615 0.0
C1528 C 0.68093 0.93143 0.52275 0.0
C1529 C 0.69248 0.94477 0.52426 0.0
C1530 C 0.70903 0.94283 0.51872 0.0
H1531 H 0.75751 0.92769 0.53902 0.0
H1532 H 0.74277 0.94449 0.53556 0.0
H1533 H 0.73518 0.92337 0.53871 0.0
H1534 H 0.70688 0.9021 0.50522 0.0
H1535 H 0.67779 0.90544 0.51485 0.0
H1536 H 0.17836 0.33861 0.2523 0.0
H1537 H 0.17506 0.31923 0.27589 0.0
H1538 H 0.20886 0.34954 0.30574 0.0
H1539 H 0.21206 0.36923 0.28226 0.0
H1540 H 0.20215 0.30172 0.28852 0.0
H1541 H 0.17113 0.33854 0.33922 0.0
H1542 H 0.17088 0.34506 0.31742 0.0
H1543 H 0.18927 0.34858 0.33016 0.0
C1544 C 0.1849 0.34134 0.26396 0.0
C1545 C 0.1956 0.35538 0.26536 0.0
C1546 C 0.18293 0.33027 0.27744 0.0
C1547 C 0.19159 0.33305 0.29258 0.0
C1548 C 0.20179 0.34738 0.29427 0.0
H1549 H 0.22001 0.27216 0.37693 0.0
H1550 H 0.21342 0.29527 0.35771 0.0
C1551 C 0.20371 0.35853 0.28079 0.0
C1552 C 0.19158 0.31986 0.3057 0.0
H1553 H 0.18331 0.31216 0.34719 0.0
C1554 C 0.19783 0.30393 0.3013 0.0
C1555 C 0.18609 0.32289 0.32236 0.0
C1556 C 0.17882 0.33965 0.32759 0.0
C1557 C 0.19914 0.29101 0.3132 0.0
C1558 C 0.19371 0.29402 0.3299 0.0
C1559 C 0.18733 0.30991 0.33433 0.0
C1560 C 0.19549 0.28096 0.34302 0.0
C1561 C 0.20689 0.27445 0.30794 0.0
C1562 C 0.18707 0.26551 0.34147 0.0
C1563 C 0.19091 0.25221 0.35231 0.0
C1564 C 0.20312 0.25423 0.36499 0.0
C1565 C 0.21064 0.27013 0.36723 0.0
C1566 C 0.20686 0.28338 0.3563 0.0
H1567 H 0.21382 0.27552 0.29582 0.0
H1568 H 0.21573 0.26975 0.31771 0.0
H1569 H 0.19678 0.26494 0.30629 0.0
H1570 H 0.17802 0.26353 0.33144 0.0
H1571 H 0.18473 0.2402 0.35039 0.0
H1572 H 0.96345 0.96788 0.63299 0.0
H1573 H 0.93876 0.96327 0.61519 0.0
H1574 H 0.96937 0.93591 0.57961 0.0
H1575 H 0.99407 0.94025 0.59736 0.0
H1576 H 0.9371 0.97584 0.58299 0.0
H1577 H 0.92711 0.90681 0.58216 0.0
H1578 H 0.93961 0.9172 0.5981 0.0
H1579 H 0.94851 0.91262 0.57776 0.0
C1580 C 0.96488 0.96057 0.62156 0.0
C1581 C 0.98078 0.95454 0.61653 0.0
C1582 C 0.95074 0.95794 0.61142 0.0
C1583 C 0.95221 0.94912 0.59619 0.0
C1584 C 0.96789 0.94245 0.5915 0.0
H1585 H 0.90292 0.939 0.50201 0.0
H1586 H 0.92044 0.93715 0.52721 0.0
C1587 C 0.98204 0.94506 0.60161 0.0
C1588 C 0.93799 0.94875 0.58417 0.0
H1589 H 0.91459 0.92251 0.55943 0.0
C1590 C 0.93193 0.96419 0.57805 0.0
C1591 C 0.93136 0.93352 0.57773 0.0
C1592 C 0.93686 0.9166 0.58439 0.0
C1593 C 0.92003 0.96484 0.56504 0.0
C1594 C 0.91381 0.94961 0.5582 0.0
C1595 C 0.91942 0.93415 0.56471 0.0
C1596 C 0.90243 0.94954 0.54348 0.0
C1597 C 0.91485 0.9818 0.55814 0.0
C1598 C 0.88636 0.95681 0.54441 0.0
C1599 C 0.87633 0.958 0.53 0.0
C1600 C 0.88218 0.95183 0.51445 0.0
C1601 C 0.89805 0.94397 0.51375 0.0
C1602 C 0.90807 0.94283 0.52814 0.0
H1603 H 0.92332 0.99206 0.56249 0.0
H1604 H 0.91483 0.98166 0.54415 0.0
H1605 H 0.90189 0.98477 0.56245 0.0
H1606 H 0.8817 0.96181 0.55622 0.0
H1607 H 0.86411 0.96398 0.53102 0.0
H1608 H 0.26923 0.7221 0.87238 0.0
H1609 H 0.2761 0.69929 0.85301 0.0
H1610 H 0.30388 0.73396 0.82174 0.0
H1611 H 0.29684 0.75701 0.84093 0.0
H1612 H 0.27984 0.7163 0.80455 0.0
H1613 H 0.31848 0.67246 0.84267 0.0
H1614 H 0.29918 0.67829 0.85288 0.0
H1615 H 0.3149 0.6941 0.84876 0.0
C1616 C 0.27703 0.72487 0.86154 0.0
C1617 C 0.28238 0.74142 0.85813 0.0
C1618 C 0.28108 0.71175 0.85056 0.0
C1619 C 0.29069 0.7149 0.83609 0.0
C1620 C 0.29655 0.73128 0.83294 0.0
H1621 H 0.30523 0.6523 0.74706 0.0
H1622 H 0.30873 0.67397 0.76859 0.0
C1623 C 0.29248 0.74443 0.84389 0.0
C1624 C 0.29281 0.70156 0.82328 0.0
H1625 H 0.30594 0.661 0.81758 0.0
C1626 C 0.2858 0.70431 0.80729 0.0
C1627 C 0.30047 0.68591 0.82698 0.0
C1628 C 0.30883 0.68255 0.84371 0.0
C1629 C 0.28566 0.69159 0.79508 0.0
C1630 C 0.29298 0.67581 0.79891 0.0
C1631 C 0.30033 0.67314 0.81476 0.0
C1632 C 0.29248 0.66179 0.78673 0.0
C1633 C 0.27709 0.69491 0.77843 0.0
C1634 C 0.28268 0.64749 0.79013 0.0
C1635 C 0.28068 0.63502 0.77787 0.0
C1636 C 0.28846 0.6367 0.76205 0.0
C1637 C 0.29889 0.65071 0.75903 0.0
C1638 C 0.30091 0.66312 0.7713 0.0
H1639 H 0.26907 0.70637 0.77884 0.0
H1640 H 0.2868 0.69678 0.76854 0.0
H1641 H 0.26915 0.68402 0.77467 0.0
H1642 H 0.27612 0.64627 0.80203 0.0
H1643 H 0.27264 0.62434 0.78063 0.0
H1644 H 0.59064 0.06824 0.00649 0.0
H1645 H 0.57115 0.07359 0.02966 0.0
H1646 H 0.5972 0.03692 0.06016 0.0
H1647 H 0.61696 0.03171 0.03719 0.0
H1648 H 0.55083 0.04869 0.04077 0.0
H1649 H 0.58772 0.07382 0.09432 0.0
H1650 H 0.59553 0.07394 0.07294 0.0
H1651 H 0.59684 0.05511 0.08551 0.0
C1652 C 0.59245 0.06156 0.01825 0.0
C1653 C 0.60523 0.0494 0.01995 0.0
C1654 C 0.58135 0.06471 0.03149 0.0
C1655 C 0.58283 0.05578 0.04667 0.0
C1656 C 0.59607 0.04424 0.0487 0.0
H1657 H 0.52127 0.02109 0.12596 0.0
H1658 H 0.54423 0.03044 0.10779 0.0
C1659 C 0.60726 0.04116 0.03549 0.0
C1660 C 0.56911 0.05652 0.05922 0.0
H1661 H 0.56091 0.06121 0.10116 0.0
C1662 C 0.55294 0.05178 0.05392 0.0
C1663 C 0.57197 0.06042 0.07636 0.0
C1664 C 0.58893 0.06627 0.0826 0.0
C1665 C 0.53971 0.04996 0.06541 0.0
C1666 C 0.54267 0.05336 0.08266 0.0
C1667 C 0.5587 0.05868 0.08791 0.0
C1668 C 0.52964 0.04989 0.09547 0.0
C1669 C 0.52295 0.0435 0.05911 0.0
C1670 C 0.51404 0.05818 0.09497 0.0
C1671 C 0.5008 0.05271 0.10517 0.0
C1672 C 0.50305 0.03902 0.11619 0.0
C1673 C 0.51908 0.03158 0.11752 0.0
C1674 C 0.53224 0.03696 0.1072 0.0
H1675 H 0.52387 0.03822 0.04618 0.0
H1676 H 0.51794 0.03358 0.06759 0.0
H1677 H 0.51376 0.05403 0.05881 0.0
H1678 H 0.51191 0.06841 0.08619 0.0
H1679 H 0.48868 0.05887 0.10404 0.0
H1680 H 0.1803 0.74961 0.14332 0.0
H1681 H 0.17096 0.72654 0.16151 0.0
H1682 H 0.20601 0.69294 0.13715 0.0
H1683 H 0.21518 0.71572 0.1187 0.0
H1684 H 0.17475 0.6777 0.14511 0.0
H1685 H 0.20281 0.71206 0.19949 0.0
H1686 H 0.18689 0.72325 0.18796 0.0
H1687 H 0.20658 0.71826 0.17797 0.0
C1688 C 0.18587 0.73726 0.14168 0.0
C1689 C 0.1987 0.73457 0.12976 0.0
C1690 C 0.18051 0.72411 0.15209 0.0
C1691 C 0.18803 0.70817 0.15084 0.0
C1692 C 0.2001 0.70519 0.13831 0.0
H1693 H 0.20529 0.61839 0.20562 0.0
H1694 H 0.19975 0.63909 0.18355 0.0
C1695 C 0.20538 0.71827 0.12784 0.0
C1696 C 0.18465 0.69499 0.16354 0.0
H1697 H 0.19152 0.6854 0.20482 0.0
C1698 C 0.1782 0.6794 0.15822 0.0
C1699 C 0.18925 0.69729 0.1806 0.0
C1700 C 0.19689 0.71355 0.18689 0.0
C1701 C 0.17653 0.66589 0.16952 0.0
C1702 C 0.18165 0.66806 0.18643 0.0
C1703 C 0.18752 0.68383 0.19184 0.0
C1704 C 0.18247 0.65395 0.19855 0.0
C1705 C 0.16945 0.64942 0.16323 0.0
C1706 C 0.17452 0.65538 0.21425 0.0
C1707 C 0.17786 0.64372 0.22696 0.0
C1708 C 0.18924 0.63043 0.22419 0.0
C1709 C 0.19645 0.62848 0.20814 0.0
C1710 C 0.19318 0.64022 0.19545 0.0
H1711 H 0.16128 0.65133 0.15203 0.0
H1712 H 0.17999 0.64105 0.15946 0.0
H1713 H 0.16204 0.64296 0.17318 0.0
H1714 H 0.16629 0.66594 0.2169 0.0
H1715 H 0.17197 0.6455 0.23914 0.0
H1716 H 0.61992 0.96315 0.45899 0.0
H1717 H 0.59901 0.96163 0.43635 0.0
H1718 H 0.57147 0.92396 0.46413 0.0
H1719 H 0.59212 0.92546 0.48687 0.0
H1720 H 0.58464 0.93343 0.4164 0.0
H1721 H 0.5391 0.9652 0.45919 0.0
H1722 H 0.56146 0.96479 0.46328 0.0
H1723 H 0.54882 0.94649 0.46743 0.0
C1724 C 0.60957 0.95434 0.46016 0.0
C1725 C 0.60751 0.94464 0.47485 0.0
C1726 C 0.59768 0.95347 0.44721 0.0
C1727 C 0.58364 0.94288 0.44877 0.0
C1728 C 0.58215 0.93238 0.46287 0.0
H1729 H 0.48804 0.9401 0.39642 0.0
H1730 H 0.51215 0.9331 0.41422 0.0
C1731 C 0.59395 0.93328 0.47583 0.0
C1732 C 0.56975 0.94393 0.43648 0.0
H1733 H 0.52897 0.95679 0.43264 0.0
C1734 C 0.57244 0.93849 0.41989 0.0
C1735 C 0.55392 0.95061 0.44116 0.0
C1736 C 0.55061 0.95725 0.45868 0.0
C1737 C 0.55952 0.93938 0.40783 0.0
C1738 C 0.54371 0.94613 0.41252 0.0
C1739 C 0.54107 0.95149 0.42914 0.0
C1740 C 0.52983 0.94852 0.40035 0.0
C1741 C 0.56284 0.93291 0.39027 0.0
C1742 C 0.53185 0.95938 0.38657 0.0
C1743 C 0.51811 0.96339 0.37635 0.0
C1744 C 0.50206 0.95676 0.37987 0.0
C1745 C 0.5002 0.94548 0.3934 0.0
C1746 C 0.51397 0.94143 0.40356 0.0
H1747 H 0.57349 0.92382 0.39007 0.0
H1748 H 0.5515 0.92668 0.38496 0.0
H1749 H 0.5662 0.94366 0.38199 0.0
H1750 H 0.5439 0.96529 0.3841 0.0
H1751 H 0.51998 0.97214 0.36605 0.0
H1752 H 0.27206 0.28047 0.60875 0.0
H1753 H 0.27843 0.30558 0.62537 0.0
H1754 H 0.30566 0.27509 0.66117 0.0
H1755 H 0.2996 0.24996 0.64455 0.0
H1756 H 0.26724 0.30939 0.65755 0.0
H1757 H 0.33662 0.31558 0.65619 0.0
H1758 H 0.32517 0.30287 0.64117 0.0
H1759 H 0.32998 0.29471 0.66177 0.0
C1760 C 0.27969 0.27913 0.61999 0.0
C1761 C 0.28523 0.26318 0.62539 0.0
C1762 C 0.28334 0.29351 0.62944 0.0
C1763 C 0.29268 0.29223 0.64438 0.0
C1764 C 0.29877 0.27643 0.64946 0.0
H1765 H 0.30657 0.34104 0.73737 0.0
H1766 H 0.30797 0.32411 0.71177 0.0
C1767 C 0.29515 0.26204 0.64002 0.0
C1768 C 0.29419 0.30688 0.65578 0.0
H1769 H 0.32234 0.32933 0.67927 0.0
C1770 C 0.27929 0.31402 0.66204 0.0
C1771 C 0.30993 0.31283 0.66162 0.0
C1772 C 0.32633 0.30621 0.65471 0.0
C1773 C 0.27965 0.32627 0.67475 0.0
C1774 C 0.29538 0.33171 0.68111 0.0
C1775 C 0.31032 0.3251 0.67434 0.0
C1776 C 0.29642 0.34299 0.69586 0.0
C1777 C 0.26319 0.33255 0.68192 0.0
C1778 C 0.28991 0.3594 0.69524 0.0
C1779 C 0.28896 0.3691 0.7099 0.0
C1780 C 0.29462 0.36255 0.72537 0.0
C1781 C 0.30198 0.34644 0.7257 0.0
C1782 C 0.30287 0.33675 0.71107 0.0
H1783 H 0.25232 0.32477 0.67777 0.0
H1784 H 0.26358 0.33256 0.69591 0.0
H1785 H 0.261 0.34568 0.67766 0.0
H1786 H 0.28513 0.36451 0.68353 0.0
H1787 H 0.28338 0.38153 0.70917 0.0
H1788 H 0.8767 0.02758 0.95165 0.0
H1789 H 0.89765 0.03163 0.92943 0.0
H1790 H 0.92395 0.06756 0.96054 0.0
H1791 H 0.90324 0.06349 0.98292 0.0
H1792 H 0.91109 0.06121 0.91183 0.0
H1793 H 0.95771 0.02833 0.95267 0.0
H1794 H 0.93538 0.02787 0.95687 0.0
H1795 H 0.9475 0.04632 0.96186 0.0
C1796 C 0.8868 0.03653 0.95369 0.0
C1797 C 0.88848 0.04499 0.96917 0.0
C1798 C 0.8987 0.03886 0.94096 0.0
C1799 C 0.91241 0.0497 0.94351 0.0
C1800 C 0.91354 0.05897 0.95848 0.0
H1801 H 0.00759 0.05224 0.88994 0.0
H1802 H 0.98409 0.06059 0.90794 0.0
C1803 C 0.90171 0.0566 0.97124 0.0
C1804 C 0.92635 0.04998 0.93125 0.0
H1805 H 0.96712 0.03755 0.92625 0.0
C1806 C 0.9234 0.05616 0.91496 0.0
C1807 C 0.94233 0.04334 0.93544 0.0
C1808 C 0.94597 0.03596 0.9526 0.0
C1809 C 0.93611 0.05583 0.90266 0.0
C1810 C 0.95198 0.04886 0.90678 0.0
C1811 C 0.95497 0.043 0.92318 0.0
C1812 C 0.96541 0.04631 0.89414 0.0
C1813 C 0.93244 0.06294 0.88543 0.0
C1814 C 0.96261 0.03577 0.88024 0.0
C1815 C 0.976 0.031 0.86989 0.0
C1816 C 0.99246 0.03651 0.87343 0.0
C1817 C -0.00491 0.04766 0.88694 0.0
C1818 C 0.98167 0.05251 0.89721 0.0
H1819 H 0.92215 0.07241 0.8859 0.0
H1820 H 0.94381 0.0689 0.87988 0.0
H1821 H 0.92834 0.05259 0.87698 0.0
H1822 H 0.95024 0.03052 0.87788 0.0
H1823 H 0.97356 0.02238 0.8596 0.0
H1824 H 0.37513 0.21695 0.27411 0.0
H1825 H 0.35619 0.20906 0.29696 0.0
H1826 H 0.32776 0.17777 0.26283 0.0
H1827 H 0.34649 0.18579 0.23976 0.0
H1828 H 0.30857 0.20116 0.27915 0.0
H1829 H 0.34828 0.16706 0.32529 0.0
H1830 H 0.35721 0.18682 0.31887 0.0
H1831 H 0.35459 0.17022 0.30365 0.0
C1832 C 0.36505 0.20814 0.2715 0.0
C1833 C 0.36222 0.20213 0.25507 0.0
C1834 C 0.35433 0.20351 0.28464 0.0
C1835 C 0.34072 0.19267 0.28163 0.0
C1836 C 0.33828 0.18607 0.26541 0.0
H1837 H 0.25081 0.17609 0.34247 0.0
H1838 H 0.27327 0.17212 0.32183 0.0
C1839 C 0.34897 0.19072 0.25225 0.0
C1840 C 0.3278 0.19011 0.29478 0.0
H1841 H 0.32207 0.17819 0.3357 0.0
C1842 C 0.31143 0.19586 0.29142 0.0
C1843 C 0.33166 0.18333 0.31079 0.0
C1844 C 0.34886 0.17636 0.31484 0.0
C1845 C 0.29896 0.19566 0.30386 0.0
C1846 C 0.30289 0.18922 0.32 0.0
C1847 C 0.31914 0.1831 0.32328 0.0
C1848 C 0.29042 0.18961 0.33377 0.0
C1849 C 0.28187 0.20301 0.29984 0.0
C1850 C 0.29301 0.20015 0.3477 0.0
C1851 C 0.28024 0.20238 0.3596 0.0
C1852 C 0.2647 0.19412 0.35767 0.0
C1853 C 0.26255 0.18283 0.34418 0.0
C1854 C 0.27534 0.18054 0.33237 0.0
H1855 H 0.28208 0.21068 0.28813 0.0
H1856 H 0.27269 0.19263 0.29803 0.0
H1857 H 0.27732 0.21105 0.31035 0.0
H1858 H 0.30462 0.20721 0.34897 0.0
H1859 H 0.28232 0.21109 0.3699 0.0
H1860 H 0.05329 0.00248 0.58993 0.0
H1861 H 0.05659 0.02723 0.57207 0.0
H1862 H 0.0332 0.05812 0.61016 0.0
H1863 H 0.02959 0.03334 0.62811 0.0
H1864 H 0.01833 0.06081 0.57913 0.0
H1865 H 0.08737 0.06827 0.57293 0.0
H1866 H 0.08044 0.04718 0.56863 0.0
H1867 H 0.07782 0.05583 0.58942 0.0
C1868 C 0.04906 0.01457 0.59466 0.0
C1869 C 0.04107 0.01591 0.61041 0.0
C1870 C 0.05113 0.02874 0.58448 0.0
C1871 C 0.04538 0.04454 0.58991 0.0
C1872 C 0.03785 0.04604 0.60583 0.0
H1873 H 0.02653 0.13332 0.52745 0.0
H1874 H 0.03209 0.11594 0.55224 0.0
C1875 C 0.03576 0.03186 0.61603 0.0
C1876 C 0.04536 0.05893 0.57812 0.0
H1877 H 0.07041 0.08169 0.55162 0.0
C1878 C 0.02973 0.06563 0.57334 0.0
C1879 C 0.06027 0.06507 0.57055 0.0
C1880 C 0.07744 0.05883 0.57576 0.0
C1881 C 0.0285 0.07772 0.56056 0.0
C1882 C 0.04337 0.0835 0.55261 0.0
C1883 C 0.05906 0.07722 0.55777 0.0
C1884 C 0.04261 0.09514 0.53812 0.0
C1885 C 0.01123 0.08355 0.5551 0.0
C1886 C 0.04752 0.08952 0.52211 0.0
C1887 C 0.0445 0.09947 0.50792 0.0
C1888 C 0.03645 0.11516 0.50954 0.0
C1889 C 0.03252 0.12118 0.52574 0.0
C1890 C 0.03566 0.11128 0.53993 0.0
H1891 H 0.00108 0.07527 0.56004 0.0
H1892 H 0.00898 0.09647 0.55992 0.0
H1893 H 0.01028 0.0839 0.54115 0.0
H1894 H 0.05297 0.07711 0.52051 0.0
H1895 H 0.04778 0.09451 0.49564 0.0
H1896 H 0.13793 0.80653 0.74098 0.0
H1897 H 0.15526 0.81448 0.76519 0.0
H1898 H 0.13078 0.77652 0.79536 0.0
H1899 H 0.11311 0.76876 0.77143 0.0
H1900 H 0.13733 0.80625 0.81321 0.0
H1901 H 0.19378 0.78325 0.77869 0.0
H1902 H 0.18227 0.79955 0.76805 0.0
H1903 H 0.17263 0.77933 0.77142 0.0
C1904 C 0.13609 0.8 0.75282 0.0
C1905 C 0.12433 0.78684 0.75421 0.0
C1906 C 0.14602 0.80455 0.76662 0.0
C1907 C 0.14451 0.79584 0.78192 0.0
C1908 C 0.13216 0.78334 0.78362 0.0
H1909 H 0.20276 0.78039 0.87139 0.0
H1910 H 0.1795 0.78323 0.85139 0.0
C1911 C 0.12213 0.77889 0.76989 0.0
C1912 C 0.15667 0.79872 0.79572 0.0
H1913 H 0.19829 0.79485 0.80554 0.0
C1914 C 0.15068 0.80387 0.81156 0.0
C1915 C 0.17404 0.79542 0.79351 0.0
C1916 C 0.18109 0.78893 0.77706 0.0
C1917 C 0.16169 0.80588 0.82526 0.0
C1918 C 0.17902 0.80251 0.82301 0.0
C1919 C 0.18499 0.79757 0.80714 0.0
C1920 C 0.19128 0.80316 0.83698 0.0
C1921 C 0.15476 0.8116 0.842 0.0
C1922 C 0.20545 0.81359 0.83562 0.0
C1923 C 0.2188 0.81188 0.84688 0.0
C1924 C 0.21825 0.79964 0.85968 0.0
C1925 C 0.20356 0.78994 0.86168 0.0
C1926 C 0.19021 0.79162 0.85033 0.0
H1927 H 0.14231 0.81782 0.84058 0.0
H1928 H 0.15313 0.80048 0.85032 0.0
H1929 H 0.16357 0.82047 0.84829 0.0
H1930 H 0.2065 0.82252 0.82536 0.0
H1931 H 0.22986 0.81967 0.8451 0.0
H1932 H 0.43459 0.89361 0.98611 0.0
H1933 H 0.42721 0.91267 0.00918 0.0
H1934 H 0.46105 0.88597 0.04224 0.0
H1935 H 0.46827 0.86666 0.01945 0.0
H1936 H 0.43057 0.89589 0.05783 0.0
H1937 H 0.46161 0.94852 0.02341 0.0
H1938 H 0.44496 0.93808 0.0122 0.0
H1939 H 0.46396 0.92681 0.01713 0.0
C1940 C 0.44032 0.89166 -0.00166 0.0
C1941 C 0.45221 0.87877 0.00087 0.0
C1942 C 0.4361 0.90258 0.01148 0.0
C1943 C 0.44384 0.90088 0.02727 0.0
C1944 C 0.455 0.8875 0.0301 0.0
H1945 H 0.46061 0.95653 0.11775 0.0
H1946 H 0.45661 0.93455 0.09658 0.0
C1947 C 0.45915 0.87652 0.01702 0.0
C1948 C 0.44141 0.91373 0.04049 0.0
H1949 H 0.44998 0.95476 0.04984 0.0
C1950 C 0.43467 0.90881 0.05608 0.0
C1951 C 0.44686 0.93052 0.03813 0.0
C1952 C 0.45488 0.93633 0.02189 0.0
C1953 C 0.43335 0.92028 0.06947 0.0
C1954 C 0.43914 0.93696 0.06719 0.0
C1955 C 0.44548 0.94196 0.05148 0.0
C1956 C 0.43971 0.94931 0.08108 0.0
C1957 C 0.42583 0.91447 0.08591 0.0
C1958 C 0.43158 0.96489 0.07932 0.0
C1959 C 0.43399 0.97754 0.09127 0.0
C1960 C 0.44465 0.97484 0.10517 0.0
C1961 C 0.45231 0.959 0.10721 0.0
C1962 C 0.44992 0.94637 0.0952 0.0
H1963 H 0.41765 0.90324 0.08414 0.0
H1964 H 0.43613 0.91093 0.09468 0.0
H1965 H 0.41831 0.92464 0.09189 0.0
H1966 H 0.42373 0.96741 0.06844 0.0
H1967 H 0.42781 0.98956 0.08937 0.0
H1968 H 0.37699 0.78 0.21856 0.0
H1969 H 0.35757 0.78682 0.19581 0.0
H1970 H 0.32692 0.81548 0.23034 0.0
H1971 H 0.34611 0.8084 0.25334 0.0
H1972 H 0.30957 0.79084 0.21464 0.0
H1973 H 0.34541 0.82711 0.1671 0.0
H1974 H 0.35602 0.80814 0.17328 0.0
H1975 H 0.35264 0.82458 0.18853 0.0
C1976 C 0.36634 0.78809 0.22128 0.0
C1977 C 0.36298 0.79348 0.23783 0.0
C1978 C 0.35533 0.79212 0.20819 0.0
C1979 C 0.34089 0.80179 0.21135 0.0
C1980 C 0.33805 0.80805 0.22764 0.0
H1981 H 0.24906 0.81141 0.15205 0.0
H1982 H 0.27168 0.8168 0.17218 0.0
C1983 C 0.34901 0.80396 0.24077 0.0
C1984 C 0.32755 0.80306 0.1984 0.0
H1985 H 0.32008 0.81346 0.15734 0.0
C1986 C 0.31177 0.79608 0.20221 0.0
C1987 C 0.33054 0.80971 0.18214 0.0
C1988 C 0.34703 0.81795 0.17756 0.0
C1989 C 0.29907 0.79501 0.19004 0.0
C1990 C 0.30216 0.80134 0.17369 0.0
C1991 C 0.31781 0.80863 0.16991 0.0
C1992 C 0.28938 0.79984 0.16029 0.0
C1993 C 0.28268 0.78648 0.19458 0.0
C1994 C 0.29214 0.789 0.14662 0.0
C1995 C 0.27926 0.7859 0.13504 0.0
C1996 C 0.26343 0.79362 0.137 0.0
C1997 C 0.26103 0.80509 0.1503 0.0
C1998 C 0.27393 0.80822 0.1618 0.0
H1999 H 0.28367 0.7792 0.2065 0.0
H2000 H 0.27275 0.79618 0.19624 0.0
H2001 H 0.2786 0.77782 0.18438 0.0
H2002 H 0.30404 0.78245 0.14529 0.0
H2003 H 0.28155 0.77708 0.12489 0.0
H2004 H 0.42238 0.00716 0.39706 0.0
H2005 H 0.41956 0.03047 0.41688 0.0
H2006 H 0.45745 0.05836 0.38972 0.0
H2007 H 0.46018 0.03518 0.3696 0.0
H2008 H 0.4469 0.03926 0.43609 0.0
H2009 H 0.42299 0.09497 0.40132 0.0
H2010 H 0.4208 0.07371 0.39345 0.0
H2011 H 0.44051 0.08467 0.39137 0.0
C2012 C 0.42985 0.0184 0.39505 0.0
C2013 C 0.44166 0.01926 0.38188 0.0
C2014 C 0.42816 0.03173 0.40636 0.0
C2015 C 0.43822 0.04615 0.40471 0.0
C2016 C 0.44933 0.04747 0.39102 0.0
H2017 H 0.474 0.12396 0.46983 0.0
H2018 H 0.4658 0.10636 0.44597 0.0
C2019 C 0.45096 0.03416 0.37961 0.0
C2020 C 0.43896 0.05846 0.41865 0.0
H2021 H 0.43535 0.10019 0.42836 0.0
C2022 C 0.44412 0.05255 0.43448 0.0
C2023 C 0.43553 0.07578 0.4164 0.0
C2024 C 0.4295 0.08267 0.39975 0.0
C2025 C 0.44643 0.06355 0.44805 0.0
C2026 C 0.44312 0.08091 0.44581 0.0
C2027 C 0.43774 0.08684 0.43003 0.0
C2028 C 0.44623 0.0931 0.45952 0.0
C2029 C 0.45308 0.05656 0.46446 0.0
C2030 C 0.43754 0.09183 0.47485 0.0
C2031 C 0.44231 0.10172 0.48859 0.0
C2032 C 0.45573 0.11319 0.48714 0.0
C2033 C 0.46369 0.11516 0.47142 0.0
C2034 C 0.45899 0.10518 0.45774 0.0
H2035 H 0.45856 0.04378 0.46288 0.0
H2036 H 0.46287 0.06496 0.46986 0.0
H2037 H 0.4426 0.05563 0.47365 0.0
H2038 H 0.42745 0.08276 0.47634 0.0
H2039 H 0.43577 0.10006 0.50045 0.0
H2040 H 0.10654 0.21318 0.71638 0.0
H2041 H 0.12377 0.20689 0.6917 0.0
H2042 H 0.16288 0.18724 0.72391 0.0
H2043 H 0.14563 0.1932 0.74866 0.0
H2044 H 0.15377 0.22244 0.68721 0.0
H2045 H 0.16308 0.15335 0.68554 0.0
H2046 H 0.14648 0.16319 0.69761 0.0
H2047 H 0.16759 0.16225 0.70582 0.0
C2048 C 0.11866 0.20719 0.71821 0.0
C2049 C 0.1248 0.20386 0.7345 0.0
C2050 C 0.12845 0.20355 0.70408 0.0
C2051 C 0.14452 0.19647 0.70596 0.0
C2052 C 0.15035 0.19235 0.72214 0.0
H2053 H 0.23784 0.19274 0.65477 0.0
H2054 H 0.21336 0.18892 0.67294 0.0
C2055 C 0.14053 0.19591 0.7363 0.0
C2056 C 0.15611 0.19573 0.6914 0.0
H2057 H 0.18329 0.17005 0.67021 0.0
C2058 C 0.15999 0.21093 0.68325 0.0
C2059 C 0.16424 0.18071 0.68637 0.0
C2060 C 0.16002 0.16392 0.69419 0.0
C2061 C 0.17242 0.2117 0.67077 0.0
C2062 C 0.18096 0.19677 0.6661 0.0
C2063 C 0.17669 0.18145 0.67383 0.0
C2064 C 0.19531 0.19719 0.65427 0.0
C2065 C 0.17693 0.22864 0.66336 0.0
C2066 C 0.19317 0.20269 0.63762 0.0
C2067 C 0.20717 0.20508 0.62723 0.0
C2068 C 0.22349 0.20183 0.6333 0.0
C2069 C 0.22546 0.19548 0.64973 0.0
C2070 C 0.21148 0.19321 0.66011 0.0
H2071 H 0.17161 0.23923 0.67081 0.0
H2072 H 0.19081 0.23022 0.66267 0.0
H2073 H 0.17181 0.2295 0.65038 0.0
H2074 H 0.18073 0.20555 0.63281 0.0
H2075 H 0.20521 0.20978 0.61457 0.0
H2076 H 0.01952 0.85399 0.96177 0.0
H2077 H 0.02544 0.86978 0.93604 0.0
H2078 H 0.05666 0.90418 0.96424 0.0
H2079 H 0.05102 0.88837 0.98999 0.0
H2080 H 0.01622 0.90266 0.93225 0.0
H2081 H 0.08486 0.89623 0.92216 0.0
H2082 H 0.07312 0.88224 0.93574 0.0
H2083 H 0.07983 0.90255 0.94327 0.0
C2084 C 0.0279 0.86474 0.96247 0.0
C2085 C 0.03471 0.87 0.97797 0.0
C2086 C 0.0313 0.8737 0.94774 0.0
C2087 C 0.04164 0.88801 0.94821 0.0
C2088 C 0.04895 0.89294 0.96353 0.0
H2089 H 0.05939 0.97903 0.89768 0.0
H2090 H 0.05966 0.9535 0.91472 0.0
C2091 C 0.04559 0.88397 0.97827 0.0
C2092 C 0.04308 0.89901 0.93326 0.0
H2093 H 0.07146 0.92007 0.90882 0.0
C2094 C 0.02826 0.90621 0.92685 0.0
C2095 C 0.05881 0.90359 0.92631 0.0
C2096 C 0.07504 0.89561 0.93211 0.0
C2097 C 0.02881 0.91867 0.91437 0.0
C2098 C 0.04461 0.92381 0.90796 0.0
C2099 C 0.05938 0.91607 0.9138 0.0
C2100 C 0.04606 0.93842 0.89655 0.0
C2101 C 0.01257 0.92692 0.90889 0.0
C2102 C 0.03871 0.93822 0.88049 0.0
C2103 C 0.03841 0.95286 0.87072 0.0
C2104 C 0.04555 0.96788 0.87686 0.0
C2105 C 0.05365 0.96774 0.89261 0.0
C2106 C 0.0539 0.95313 0.90235 0.0
H2107 H 0.00185 0.92354 0.91723 0.0
H2108 H 0.0139 0.94085 0.90878 0.0
H2109 H 0.00943 0.92278 0.89591 0.0
H2110 H 0.03282 0.92688 0.87571 0.0
H2111 H 0.03221 0.95251 0.85856 0.0
H2112 H 0.24015 0.34753 0.18272 0.0
H2113 H 0.26403 0.32941 0.17559 0.0
H2114 H 0.29506 0.35599 0.2114 0.0
H2115 H 0.27145 0.37442 0.21832 0.0
H2116 H 0.31246 0.34664 0.18194 0.0
H2117 H 0.27677 0.29323 0.20997 0.0
H2118 H 0.26632 0.3037 0.19287 0.0
H2119 H 0.27012 0.31484 0.21222 0.0
C2120 C 0.25212 0.34968 0.1889 0.0
C2121 C 0.25383 0.36221 0.2013 0.0
C2122 C 0.26573 0.33931 0.18482 0.0
C2123 C 0.28115 0.34117 0.19324 0.0
C2124 C 0.28321 0.35434 0.20482 0.0
H2125 H 0.37012 0.28353 0.21309 0.0
H2126 H 0.34994 0.30637 0.2086 0.0
C2127 C 0.26967 0.36481 0.2088 0.0
C2128 C 0.2946 0.32847 0.19128 0.0
H2129 H 0.30355 0.28719 0.19905 0.0
C2130 C 0.31053 0.3336 0.18555 0.0
C2131 C 0.29202 0.31153 0.19618 0.0
C2132 C 0.27545 0.30547 0.2033 0.0
C2133 C 0.32398 0.32216 0.18456 0.0
C2134 C 0.32139 0.30529 0.1896 0.0
C2135 C 0.30541 0.30013 0.19507 0.0
C2136 C 0.33513 0.29276 0.19018 0.0
C2137 C 0.34081 0.32817 0.17813 0.0
C2138 C 0.3335 0.27762 0.18126 0.0
C2139 C 0.34485 0.2645 0.18394 0.0
C2140 C 0.35803 0.26628 0.19565 0.0
C2141 C 0.36012 0.28177 0.20398 0.0
C2142 C 0.34868 0.29489 0.20133 0.0
H2143 H 0.33956 0.33988 0.17056 0.0
H2144 H 0.34915 0.33094 0.18901 0.0
H2145 H 0.34699 0.31836 0.17031 0.0
H2146 H 0.32306 0.27573 0.17267 0.0
H2147 H 0.34297 0.25278 0.17721 0.0
H2148 H 0.77318 0.11251 0.77035 0.0
H2149 H 0.79575 0.13226 0.77701 0.0
H2150 H 0.76127 0.16191 0.80675 0.0
H2151 H 0.73849 0.14239 0.79991 0.0
H2152 H 0.77699 0.17998 0.78214 0.0
H2153 H 0.8242 0.14326 0.8182 0.0
H2154 H 0.81789 0.13327 0.79892 0.0
H2155 H 0.80272 0.13626 0.81548 0.0
C2156 C 0.77044 0.12303 0.77859 0.0
C2157 C 0.75398 0.12597 0.78446 0.0
C2158 C 0.78342 0.13424 0.7825 0.0
C2159 C 0.78021 0.14844 0.79251 0.0
C2160 C 0.764 0.15096 0.79906 0.0
H2161 H 0.83708 0.24056 0.80865 0.0
H2162 H 0.81721 0.21728 0.81155 0.0
C2163 C 0.75099 0.13981 0.7951 0.0
C2164 C 0.79309 0.16178 0.79423 0.0
H2165 H 0.8336 0.16947 0.80645 0.0
C2166 C 0.78928 0.17775 0.78768 0.0
C2167 C 0.80916 0.15875 0.80128 0.0
C2168 C 0.81371 0.142 0.80901 0.0
C2169 C 0.80125 0.19068 0.78759 0.0
C2170 C 0.81738 0.18762 0.7945 0.0
C2171 C 0.82119 0.17172 0.8012 0.0
C2172 C 0.83048 0.20079 0.79439 0.0
C2173 C 0.79673 0.20735 0.77961 0.0
C2174 C 0.84483 0.19891 0.78427 0.0
C2175 C 0.85627 0.21218 0.78261 0.0
C2176 C 0.8535 0.22751 0.79106 0.0
C2177 C 0.83949 0.22901 0.8018 0.0
C2178 C 0.82812 0.21573 0.80349 0.0
H2179 H 0.78526 0.20641 0.77164 0.0
H2180 H 0.79425 0.21675 0.78965 0.0
H2181 H 0.80726 0.21211 0.77173 0.0
H2182 H 0.84684 0.18742 0.77719 0.0
H2183 H 0.86698 0.21059 0.77431 0.0
H2184 H 0.03009 0.61792 0.02834 0.0
H2185 H 0.05296 0.59748 0.0315 0.0
H2186 H 0.02248 0.56843 0.06578 0.0
H2187 H -0.00052 0.5886 0.06259 0.0
H2188 H 0.0707 0.58363 0.0606 0.0
H2189 H 0.03241 0.53644 0.02566 0.0
H2190 H 0.02723 0.55857 0.02594 0.0
H2191 H 0.0224 0.54555 0.0438 0.0
C2192 C 0.02832 0.6073 0.03672 0.0
C2193 C 0.01287 0.60473 0.045 0.0
C2194 C 0.04141 0.59568 0.03854 0.0
C2195 C 0.03925 0.58137 0.04866 0.0
C2196 C 0.02424 0.57929 0.05771 0.0
H2197 H 0.09566 0.48798 0.05304 0.0
H2198 H 0.0766 0.51108 0.06008 0.0
C2199 C 0.01113 0.59083 0.05586 0.0
C2200 C 0.05209 0.56793 0.04865 0.0
H2201 H 0.05871 0.52749 0.03586 0.0
C2202 C 0.06812 0.57132 0.05527 0.0
C2203 C 0.04861 0.55194 0.04162 0.0
C2204 C 0.03179 0.54788 0.03371 0.0
C2205 C 0.08082 0.55899 0.05512 0.0
C2206 C 0.07737 0.54306 0.04793 0.0
C2207 C 0.06127 0.53967 0.04149 0.0
C2208 C 0.09039 0.52989 0.04598 0.0
C2209 C 0.09773 0.56308 0.06276 0.0
C2210 C 0.10461 0.53289 0.03594 0.0
C2211 C 0.11556 0.51972 0.0319 0.0
C2212 C 0.11235 0.50327 0.03768 0.0
C2213 C 0.09845 0.50047 0.0483 0.0
C2214 C 0.08757 0.51366 0.05238 0.0
H2215 H 0.09677 0.57349 0.07207 0.0
H2216 H 0.10328 0.55189 0.06905 0.0
H2217 H 0.10645 0.56718 0.05264 0.0
H2218 H 0.10682 0.54522 0.03055 0.0
H2219 H 0.12613 0.52232 0.02368 0.0
H2220 H 0.65241 0.75099 0.30401 0.0
H2221 H 0.67232 0.77429 0.30564 0.0
H2222 H 0.63878 0.80534 0.27629 0.0
H2223 H 0.61858 0.78206 0.27464 0.0
H2224 H 0.68638 0.78876 0.27587 0.0
H2225 H 0.65401 0.8363 0.31599 0.0
H2226 H 0.64832 0.81426 0.31612 0.0
H2227 H 0.64196 0.82748 0.29893 0.0
C2228 C 0.6491 0.76282 0.29807 0.0
C2229 C 0.63394 0.76463 0.28909 0.0
C2230 C 0.6605 0.77613 0.29907 0.0
C2231 C 0.65693 0.79152 0.2912 0.0
C2232 C 0.6416 0.79361 0.28267 0.0
H2233 H 0.71999 0.87821 0.27057 0.0
H2234 H 0.6961 0.85915 0.27438 0.0
C2235 C 0.63014 0.78027 0.28166 0.0
C2236 C 0.67005 0.80466 0.29056 0.0
H2237 H 0.67997 0.8444 0.30366 0.0
C2238 C 0.68502 0.80091 0.28198 0.0
C2239 C 0.66808 0.82051 0.29842 0.0
C2240 C 0.65229 0.82494 0.308 0.0
C2241 C 0.69815 0.81261 0.28104 0.0
C2242 C 0.69637 0.82834 0.2892 0.0
C2243 C 0.6813 0.83224 0.29757 0.0
C2244 C 0.71011 0.84087 0.28892 0.0
C2245 C 0.71373 0.80814 0.27108 0.0
C2246 C 0.72567 0.83712 0.29639 0.0
C2247 C 0.73937 0.84791 0.29418 0.0
C2248 C 0.73768 0.86268 0.28455 0.0
C2249 C 0.72175 0.86688 0.27797 0.0
C2250 C 0.70807 0.85604 0.28015 0.0
H2251 H 0.71143 0.79745 0.26233 0.0
H2252 H 0.71824 0.81911 0.26366 0.0
H2253 H 0.72391 0.80438 0.2799 0.0
H2254 H 0.72737 0.82556 0.30344 0.0
H2255 H 0.7514 0.84438 0.29957 0.0
H2256 H 0.89762 0.00215 0.05121 0.0
H2257 H 0.91626 0.97938 0.06046 0.0
H2258 H 0.89081 0.94486 0.02711 0.0
H2259 H 0.87195 0.96732 0.01805 0.0
H2260 H 0.89954 0.93056 0.05856 0.0
H2261 H 0.95332 0.96375 0.02806 0.0
H2262 H 0.94225 0.97539 0.04399 0.0
H2263 H 0.93175 0.96999 0.02468 0.0
C2264 C 0.89586 0.98967 0.046 0.0
C2265 C 0.88347 0.98662 0.03369 0.0
C2266 C 0.90653 0.9767 0.05128 0.0
C2267 C 0.90506 0.96056 0.04423 0.0
C2268 C 0.89215 0.95726 0.03266 0.0
H2269 H 0.9583 0.86945 0.02818 0.0
H2270 H 0.93676 0.89083 0.03335 0.0
C2271 C 0.88143 0.97016 0.02744 0.0
C2272 C 0.91778 0.94741 0.04763 0.0
H2273 H 0.9587 0.93722 0.03965 0.0
C2274 C 0.91254 0.93204 0.05463 0.0
C2275 C 0.93469 0.94943 0.04244 0.0
C2276 C 0.94089 0.96545 0.03425 0.0
C2277 C 0.92375 0.91846 0.05626 0.0
C2278 C 0.94048 0.92031 0.0505 0.0
C2279 C 0.94585 0.93588 0.0441 0.0
C2280 C 0.95243 0.90605 0.0497 0.0
C2281 C 0.91755 0.90225 0.06398 0.0
C2282 C 0.96834 0.90751 0.05719 0.0
C2283 C 0.98074 0.89548 0.05406 0.0
C2284 C 0.97744 0.88175 0.04334 0.0
C2285 C 0.96122 0.87986 0.03651 0.0
C2286 C 0.94884 0.89199 0.03957 0.0
H2287 H 0.90663 0.90448 0.07246 0.0
H2288 H 0.91336 0.89363 0.0538 0.0
H2289 H 0.92767 0.89588 0.07124 0.0
H2290 H 0.97137 0.91832 0.06497 0.0
H2291 H 0.99307 0.89722 0.05965 0.0
H2292 H 0.24602 0.63736 0.67959 0.0
H2293 H 0.22318 0.65635 0.6714 0.0
H2294 H 0.19035 0.63267 0.7076 0.0
H2295 H 0.21293 0.61342 0.71566 0.0
H2296 H 0.17395 0.64272 0.67699 0.0
H2297 H 0.21257 0.69368 0.70588 0.0
H2298 H 0.2225 0.68216 0.68913 0.0
H2299 H 0.21752 0.67167 0.70855 0.0
C2300 C 0.23385 0.63597 0.68559 0.0
C2301 C 0.23139 0.62411 0.69852 0.0
C2302 C 0.22084 0.64683 0.68089 0.0
C2303 C 0.20525 0.6461 0.68916 0.0
C2304 C 0.20234 0.63345 0.70113 0.0
H2305 H 0.11872 0.70666 0.70876 0.0
H2306 H 0.13828 0.68346 0.70366 0.0
C2307 C 0.2153 0.62251 0.70576 0.0
C2308 C 0.19269 0.65964 0.68692 0.0
H2309 H 0.18607 0.70121 0.6954 0.0
C2310 C 0.1766 0.65556 0.68084 0.0
C2311 C 0.19622 0.67633 0.69207 0.0
C2312 C 0.21307 0.68127 0.69941 0.0
C2313 C 0.16385 0.66779 0.67989 0.0
C2314 C 0.1673 0.68437 0.68542 0.0
C2315 C 0.18352 0.6885 0.69108 0.0
C2316 C 0.15417 0.69753 0.68654 0.0
C2317 C 0.14684 0.66287 0.67302 0.0
C2318 C 0.15668 0.71315 0.67869 0.0
C2319 C 0.1457 0.72651 0.68178 0.0
C2320 C 0.13199 0.72448 0.69282 0.0
C2321 C 0.12914 0.70862 0.70017 0.0
C2322 C 0.14021 0.69529 0.69714 0.0
H2323 H 0.14774 0.65169 0.66464 0.0
H2324 H 0.13839 0.65956 0.68366 0.0
H2325 H 0.141 0.6734 0.66589 0.0
H2326 H 0.16745 0.71515 0.67055 0.0
H2327 H 0.14819 0.73853 0.67582 0.0
H2328 H 0.02986 0.36886 0.46638 0.0
H2329 H 0.0536 0.3882 0.46271 0.0
H2330 H 0.02578 0.41536 0.42478 0.0
H2331 H 0.00191 0.39635 0.42852 0.0
H2332 H 0.07338 0.39933 0.43408 0.0
H2333 H 0.03433 0.45011 0.46254 0.0
H2334 H 0.02845 0.42818 0.46353 0.0
H2335 H 0.02521 0.43998 0.44448 0.0
C2336 C 0.02888 0.37881 0.4571 0.0
C2337 C 0.0139 0.38127 0.44796 0.0
C2338 C 0.04246 0.38979 0.45499 0.0
C2339 C 0.04127 0.40332 0.44368 0.0
C2340 C 0.02679 0.40514 0.43376 0.0
H2341 H 0.10018 0.4949 0.43688 0.0
H2342 H 0.08164 0.47156 0.42926 0.0
C2343 C 0.01317 0.39427 0.43594 0.0
C2344 C 0.05447 0.4164 0.4434 0.0
H2345 H 0.06141 0.4576 0.4533 0.0
C2346 C 0.0708 0.4121 0.43819 0.0
C2347 C 0.051 0.433 0.44885 0.0
C2348 C 0.03385 0.43813 0.45531 0.0
C2349 C 0.08382 0.42409 0.43823 0.0
C2350 C 0.08036 0.44064 0.44385 0.0
C2351 C 0.06397 0.44493 0.44883 0.0
C2352 C 0.09361 0.45356 0.44587 0.0
C2353 C 0.1011 0.41897 0.43223 0.0
C2354 C 0.10672 0.45103 0.45743 0.0
C2355 C 0.11736 0.46434 0.46182 0.0
C2356 C 0.11491 0.48046 0.45485 0.0
C2357 C 0.10233 0.48269 0.44258 0.0
C2358 C 0.09176 0.46935 0.43816 0.0
H2359 H 0.1005 0.40786 0.42373 0.0
H2360 H 0.10742 0.42948 0.42551 0.0
H2361 H 0.10894 0.4155 0.44327 0.0
H2362 H 0.10815 0.43905 0.4638 0.0
H2363 H 0.12693 0.46218 0.4713 0.0
H2364 H 0.48527 0.59391 0.92056 0.0
H2365 H 0.46074 0.57602 0.91576 0.0
H2366 H 0.43278 0.60419 0.95287 0.0
H2367 H 0.45716 0.62237 0.95757 0.0
H2368 H 0.44847 0.55668 0.94139 0.0
H2369 H 0.39766 0.59728 0.91591 0.0
H2370 H 0.41959 0.60336 0.91549 0.0
H2371 H 0.40749 0.60558 0.93451 0.0
C2372 C 0.47381 0.59653 0.92748 0.0
C2373 C 0.47322 0.60944 0.93959 0.0
C2374 C 0.45978 0.58634 0.92465 0.0
C2375 C 0.44492 0.58889 0.93384 0.0
C2376 C 0.44401 0.60225 0.94537 0.0
H2377 H 0.36106 0.52946 0.96435 0.0
H2378 H 0.38005 0.55244 0.95676 0.0
C2379 C 0.45802 0.61253 0.94815 0.0
C2380 C 0.4314 0.57611 0.93321 0.0
H2381 H 0.38921 0.57047 0.92709 0.0
C2382 C 0.43556 0.55963 0.93799 0.0
C2383 C 0.41457 0.58009 0.92897 0.0
C2384 C 0.40955 0.59751 0.92328 0.0
C2385 C 0.42326 0.54708 0.93919 0.0
C2386 C 0.40637 0.55105 0.93511 0.0
C2387 C 0.4022 0.56748 0.93007 0.0
C2388 C 0.39286 0.53844 0.9372 0.0
C2389 C 0.42836 0.52988 0.94557 0.0
C2390 C 0.39329 0.52326 0.92817 0.0
C2391 C 0.38263 0.51001 0.93262 0.0
C2392 C 0.3712 0.51185 0.94602 0.0
C2393 C 0.36981 0.52759 0.95405 0.0
C2394 C 0.38061 0.54077 0.9497 0.0
H2395 H 0.44095 0.53007 0.95169 0.0
H2396 H 0.41903 0.52501 0.95479 0.0
H2397 H 0.42894 0.52096 0.93483 0.0
H2398 H 0.40247 0.52138 0.91825 0.0
H2399 H 0.38382 0.49813 0.92601 0.0
H2400 H 0.71585 0.77017 0.8862 0.0
H2401 H 0.71032 0.79368 0.86723 0.0
H2402 H 0.68134 0.76098 0.83493 0.0
H2403 H 0.68709 0.73725 0.85366 0.0
H2404 H 0.70794 0.77591 0.81909 0.0
H2405 H 0.67126 0.82414 0.85391 0.0
H2406 H 0.68954 0.81678 0.86502 0.0
H2407 H 0.67254 0.80245 0.8607 0.0
C2408 C 0.70793 0.76804 0.8753 0.0
C2409 C 0.70212 0.75177 0.87129 0.0
C2410 C 0.70466 0.78156 0.86453 0.0
C2411 C 0.69535 0.77909 0.84974 0.0
C2412 C 0.68853 0.76313 0.84634 0.0
H2413 H 0.68347 0.83495 0.75758 0.0
H2414 H 0.68006 0.81608 0.78154 0.0
C2415 C 0.69186 0.74958 0.85703 0.0
C2416 C 0.6951 0.79224 0.83657 0.0
H2417 H 0.68457 0.83315 0.82837 0.0
C2418 C 0.70265 0.78836 0.82107 0.0
C2419 C 0.68845 0.80854 0.83931 0.0
C2420 C 0.67986 0.81322 0.85559 0.0
C2421 C 0.70389 0.80037 0.80826 0.0
C2422 C 0.69718 0.81663 0.81094 0.0
C2423 C 0.68968 0.82062 0.82643 0.0
C2424 C 0.69767 0.82941 0.79748 0.0
C2425 C 0.71264 0.79566 0.79204 0.0
C2426 C 0.7083 0.84345 0.79881 0.0
C2427 C 0.7103 0.85435 0.7851 0.0
C2428 C 0.70169 0.85126 0.76992 0.0
C2429 C 0.69048 0.83757 0.769 0.0
C2430 C 0.68845 0.82679 0.78268 0.0
H2431 H 0.72038 0.78408 0.79344 0.0
H2432 H 0.70305 0.79328 0.78215 0.0
H2433 H 0.72089 0.80606 0.78764 0.0
H2434 H 0.7155 0.84562 0.8102 0.0
H2435 H 0.71895 0.86484 0.78622 0.0
H2436 H 0.46328 0.46743 0.12591 0.0
H2437 H 0.44024 0.46256 0.10618 0.0
H2438 H 0.47215 0.42997 0.07668 0.0
H2439 H 0.4954 0.43491 0.09622 0.0
H2440 H 0.45888 0.45693 0.05896 0.0
H2441 H 0.40843 0.42377 0.09411 0.0
H2442 H 0.41659 0.44201 0.10473 0.0
H2443 H 0.43007 0.42416 0.10116 0.0
C2444 C 0.46531 0.4589 0.11546 0.0
C2445 C 0.48125 0.45172 0.11253 0.0
C2446 C 0.45206 0.45603 0.10426 0.0
C2447 C 0.45447 0.44582 0.09005 0.0
C2448 C 0.47005 0.43784 0.08763 0.0
H2449 H 0.39818 0.43687 -0.0033 0.0
H2450 H 0.41783 0.43246 0.01992 0.0
C2451 C 0.48332 0.44071 0.0988 0.0
C2452 C 0.44168 0.4455 0.07654 0.0
H2453 H 0.40049 0.43662 0.06801 0.0
C2454 C 0.44618 0.45228 0.06086 0.0
C2455 C 0.42508 0.43964 0.07918 0.0
C2456 C 0.41975 0.43184 0.09566 0.0
C2457 C 0.43441 0.45374 0.04782 0.0
C2458 C 0.41779 0.44792 0.05044 0.0
C2459 C 0.41327 0.44102 0.06608 0.0
C2460 C 0.40492 0.44924 0.03708 0.0
C2461 C 0.43975 0.46201 0.03154 0.0
C2462 C 0.39082 0.45964 0.03931 0.0
C2463 C 0.37946 0.46212 0.02609 0.0
C2464 C 0.38209 0.45424 0.01044 0.0
C2465 C 0.39591 0.44332 0.00851 0.0
C2466 C 0.40717 0.44078 0.02175 0.0
H2467 H 0.45151 0.46944 0.03307 0.0
H2468 H 0.44212 0.45215 0.02192 0.0
H2469 H 0.42972 0.47049 0.0267 0.0
H2470 H 0.38888 0.46623 0.0511 0.0
H2471 H 0.36889 0.47054 0.028 0.0
H2472 H 0.81129 0.24777 0.35408 0.0
H2473 H 0.81812 0.22363 0.33622 0.0
H2474 H 0.78082 0.19376 0.36203 0.0
H2475 H 0.77414 0.21768 0.38021 0.0
H2476 H 0.81043 0.17551 0.35305 0.0
H2477 H 0.78345 0.21194 0.2996 0.0
H2478 H 0.80054 0.22212 0.31038 0.0
H2479 H 0.78102 0.21843 0.32123 0.0
C2480 C 0.80472 0.236 0.35614 0.0
C2481 C 0.79195 0.23473 0.36835 0.0
C2482 C 0.80864 0.22223 0.34593 0.0
C2483 C 0.79972 0.20707 0.34762 0.0
C2484 C 0.78779 0.2054 0.36051 0.0
H2485 H 0.78061 0.11843 0.28864 0.0
H2486 H 0.78468 0.13824 0.31188 0.0
C2487 C 0.78395 0.21911 0.37084 0.0
C2488 C 0.80151 0.19361 0.3349 0.0
H2489 H 0.79428 0.18513 0.29344 0.0
C2490 C 0.80702 0.17758 0.33998 0.0
C2491 C 0.79686 0.19638 0.31793 0.0
C2492 C 0.78999 0.21309 0.31193 0.0
C2493 C 0.80812 0.16423 0.32841 0.0
C2494 C 0.80339 0.16703 0.31148 0.0
C2495 C 0.79804 0.18309 0.30642 0.0
C2496 C 0.80308 0.15347 0.29874 0.0
C2497 C 0.81439 0.14731 0.33436 0.0
C2498 C 0.81214 0.15543 0.28371 0.0
C2499 C 0.80967 0.14431 0.27035 0.0
C2500 C 0.79807 0.131 0.27178 0.0
C2501 C 0.78965 0.12854 0.28716 0.0
C2502 C 0.79206 0.13977 0.30051 0.0
H2503 H 0.82182 0.14843 0.34617 0.0
H2504 H 0.80344 0.13901 0.33693 0.0
H2505 H 0.8223 0.14117 0.32459 0.0
H2506 H 0.82065 0.16598 0.28209 0.0
H2507 H 0.81647 0.14647 0.25872 0.0
H2508 H 0.01997 0.52625 0.63017 0.0
H2509 H 0.0434 0.53175 0.61111 0.0
H2510 H 0.01113 0.56252 0.58005 0.0
H2511 H 0.98748 0.55688 0.59892 0.0
H2512 H 0.02605 0.53648 0.56299 0.0
H2513 H 0.0741 0.57129 0.59979 0.0
H2514 H 0.06653 0.55271 0.61022 0.0
H2515 H 0.05233 0.56993 0.60627 0.0
C2516 C 0.01791 0.5345 0.61951 0.0
C2517 C 0.00179 0.54096 0.61596 0.0
C2518 C 0.03138 0.53775 0.60869 0.0
C2519 C 0.02902 0.54765 0.59426 0.0
C2520 C 0.0132 0.5549 0.59119 0.0
H2521 H 0.08908 0.55706 0.50318 0.0
H2522 H 0.06858 0.56178 0.52559 0.0
C2523 C -0.0003 0.55163 0.60197 0.0
C2524 C 0.04228 0.54837 0.5812 0.0
H2525 H 0.08358 0.55813 0.57428 0.0
C2526 C 0.03855 0.54145 0.56537 0.0
C2527 C 0.05862 0.55466 0.58445 0.0
C2528 C 0.06312 0.56271 0.60106 0.0
C2529 C 0.05086 0.54021 0.55282 0.0
C2530 C 0.06725 0.54635 0.5561 0.0
C2531 C 0.07097 0.55346 0.57185 0.0
C2532 C 0.08071 0.54504 0.54334 0.0
C2533 C 0.04637 0.53178 0.53636 0.0
C2534 C 0.09465 0.53457 0.5462 0.0
C2535 C 0.10647 0.53189 0.53344 0.0
C2536 C 0.10448 0.53965 0.51763 0.0
C2537 C 0.09086 0.55071 0.51512 0.0
C2538 C 0.07913 0.55343 0.5279 0.0
H2539 H 0.03456 0.52433 0.53734 0.0
H2540 H 0.04448 0.54156 0.52654 0.0
H2541 H 0.05665 0.5233 0.53212 0.0
H2542 H 0.09606 0.52802 0.55809 0.0
H2543 H 0.11686 0.52337 0.5358 0.0
H2544 H 0.72134 0.2173 0.60916 0.0
H2545 H 0.716 0.19273 0.62685 0.0
H2546 H 0.68189 0.22196 0.65738 0.0
H2547 H 0.68729 0.24672 0.63992 0.0
H2548 H 0.70803 0.20701 0.67517 0.0
H2549 H 0.67644 0.16018 0.63387 0.0
H2550 H 0.69528 0.16926 0.62523 0.0
H2551 H 0.67721 0.18239 0.6289 0.0
C2552 C 0.71244 0.21845 0.61943 0.0
C2553 C 0.70486 0.23403 0.62323 0.0
C2554 C 0.7093 0.20433 0.62944 0.0
C2555 C 0.69844 0.20551 0.64331 0.0
C2556 C 0.69025 0.22081 0.64666 0.0
H2557 H 0.67903 0.14477 0.73099 0.0
H2558 H 0.67717 0.16461 0.70761 0.0
C2559 C 0.69339 0.23495 0.63669 0.0
C2560 C 0.69737 0.19157 0.65558 0.0
H2561 H 0.68656 0.15019 0.66035 0.0
C2562 C 0.70319 0.19463 0.67197 0.0
C2563 C 0.69128 0.17539 0.65125 0.0
C2564 C 0.68456 0.17158 0.63389 0.0
C2565 C 0.70323 0.18193 0.68416 0.0
C2566 C 0.69699 0.1658 0.67992 0.0
C2567 C 0.69127 0.16262 0.66351 0.0
C2568 C 0.69627 0.15227 0.69262 0.0
C2569 C 0.71023 0.18577 0.70143 0.0
C2570 C 0.70712 0.13837 0.69152 0.0
C2571 C 0.7082 0.12693 0.70487 0.0
C2572 C 0.69846 0.12931 0.71948 0.0
C2573 C 0.68689 0.14271 0.72003 0.0
C2574 C 0.68577 0.15405 0.70668 0.0
H2575 H 0.71801 0.19741 0.70145 0.0
H2576 H 0.69965 0.18764 0.71038 0.0
H2577 H 0.71805 0.17516 0.70612 0.0
H2578 H 0.71529 0.13683 0.6807 0.0
H2579 H 0.71718 0.11668 0.70404 0.0
H2580 H 0.12488 0.46651 0.95679 0.0
H2581 H 0.10605 0.46406 0.93242 0.0
H2582 H 0.07853 0.42455 0.95754 0.0
H2583 H 0.09702 0.42702 0.98196 0.0
H2584 H 0.09471 0.43556 0.91096 0.0
H2585 H 0.04452 0.46403 0.95068 0.0
H2586 H 0.0665 0.46467 0.95643 0.0
H2587 H 0.05448 0.44575 0.95957 0.0
C2588 C 0.11499 0.45711 0.957 0.0
C2589 C 0.11222 0.44717 0.97141 0.0
C2590 C 0.1043 0.4557 0.94307 0.0
C2591 C 0.09081 0.4443 0.94337 0.0
C2592 C 0.08876 0.43357 0.95723 0.0
H2593 H -0.00106 0.43414 0.8868 0.0
H2594 H 0.02337 0.42836 0.90457 0.0
C2595 C 0.09932 0.43504 0.97117 0.0
C2596 C 0.07783 0.44476 0.9301 0.0
H2597 H 0.03649 0.4544 0.92377 0.0
C2598 C 0.08197 0.43968 0.91368 0.0
C2599 C 0.0613 0.45027 0.93377 0.0
C2600 C 0.05641 0.45664 0.95102 0.0
C2601 C 0.06977 0.4396 0.90085 0.0
C2602 C 0.0532 0.44493 0.90461 0.0
C2603 C 0.04917 0.45012 0.921 0.0
C2604 C 0.03977 0.44595 0.89177 0.0
C2605 C 0.07461 0.43362 0.88348 0.0
C2606 C 0.04108 0.45744 0.87843 0.0
C2607 C 0.02714 0.46079 0.86823 0.0
C2608 C 0.01162 0.45281 0.87135 0.0
C2609 C 0.01066 0.4406 0.88413 0.0
C2610 C 0.02461 0.43723 0.89427 0.0
H2611 H 0.08631 0.42594 0.88372 0.0
H2612 H 0.06434 0.42604 0.87776 0.0
H2613 H 0.07688 0.44472 0.87528 0.0
H2614 H 0.05257 0.46454 0.87649 0.0
H2615 H 0.02831 0.47026 0.85847 0.0
H2616 H 0.81062 0.83991 0.23651 0.0
H2617 H 0.81326 0.82253 0.21136 0.0
H2618 H 0.789 0.86116 0.18184 0.0
H2619 H 0.78603 0.87862 0.20704 0.0
H2620 H 0.77379 0.83061 0.17912 0.0
H2621 H 0.84233 0.82314 0.16931 0.0
H2622 H 0.83627 0.81867 0.19062 0.0
H2623 H 0.83355 0.83962 0.18234 0.0
C2624 C 0.8061 0.84488 0.22463 0.0
C2625 C 0.79797 0.8606 0.22382 0.0
C2626 C 0.80779 0.83498 0.21022 0.0
C2627 C 0.80155 0.84066 0.1947 0.0
C2628 C 0.79402 0.85662 0.19369 0.0
H2629 H 0.77911 0.77619 0.10775 0.0
H2630 H 0.78538 0.8016 0.12399 0.0
C2631 C 0.7923 0.86655 0.20812 0.0
C2632 C 0.80084 0.82899 0.1802 0.0
H2633 H 0.82456 0.80159 0.15708 0.0
C2634 C 0.78491 0.82452 0.17401 0.0
C2635 C 0.81538 0.82106 0.17364 0.0
C2636 C 0.83286 0.826 0.17921 0.0
C2637 C 0.78301 0.81159 0.16216 0.0
C2638 C 0.7975 0.80314 0.15614 0.0
C2639 C 0.8135 0.8081 0.16177 0.0
C2640 C 0.79604 0.78818 0.14517 0.0
C2641 C 0.76546 0.80643 0.15694 0.0
C2642 C 0.8007 0.77232 0.15141 0.0
C2643 C 0.79724 0.75778 0.14215 0.0
C2644 C 0.78903 0.75888 0.12649 0.0
C2645 C 0.78525 0.77489 0.11987 0.0
C2646 C 0.78879 0.78942 0.12912 0.0
H2647 H 0.75564 0.81206 0.16517 0.0
H2648 H 0.76309 0.81071 0.14385 0.0
H2649 H 0.76409 0.79251 0.15726 0.0
H2650 H 0.80635 0.77114 0.16378 0.0
H2651 H 0.80042 0.74567 0.14757 0.0
H2652 H 0.36998 0.52741 0.45773 0.0
H2653 H 0.39026 0.53127 0.4348 0.0
H2654 H 0.41828 0.56638 0.46535 0.0
H2655 H 0.39831 0.56245 0.48839 0.0
H2656 H 0.40357 0.56049 0.41696 0.0
H2657 H 0.45127 0.52708 0.45597 0.0
H2658 H 0.42911 0.52692 0.46099 0.0
H2659 H 0.44172 0.54509 0.4658 0.0
C2660 C 0.38032 0.53614 0.45948 0.0
C2661 C 0.38273 0.54439 0.47497 0.0
C2662 C 0.39185 0.53836 0.44636 0.0
C2663 C 0.40586 0.54888 0.44856 0.0
C2664 C 0.40767 0.55799 0.46357 0.0
H2665 H 0.49967 0.55529 0.39309 0.0
H2666 H 0.47613 0.56219 0.41168 0.0
C2667 C 0.39625 0.55571 0.4767 0.0
C2668 C 0.41941 0.54914 0.43584 0.0
H2669 H 0.46028 0.53752 0.42978 0.0
C2670 C 0.41601 0.55554 0.41972 0.0
C2671 C 0.43555 0.54261 0.43955 0.0
C2672 C 0.43966 0.5349 0.45646 0.0
C2673 C 0.42848 0.55566 0.40717 0.0
C2674 C 0.44458 0.54899 0.41087 0.0
C2675 C 0.44796 0.54278 0.42705 0.0
C2676 C 0.45791 0.54723 0.398 0.0
C2677 C 0.42436 0.56299 0.39013 0.0
C2678 C 0.45536 0.53677 0.384 0.0
C2679 C 0.46877 0.5328 0.37334 0.0
C2680 C 0.48501 0.53908 0.37663 0.0
C2681 C 0.48734 0.55016 0.39025 0.0
C2682 C 0.47391 0.55416 0.40086 0.0
H2683 H 0.41363 0.57196 0.39086 0.0
H2684 H 0.43541 0.5696 0.38468 0.0
H2685 H 0.42072 0.55266 0.38145 0.0
H2686 H 0.4432 0.53098 0.38177 0.0
H2687 H 0.46653 0.52423 0.36297 0.0
H2688 H 0.7732 0.72592 0.86208 0.0
H2689 H 0.79451 0.72524 0.83982 0.0
H2690 H 0.7861 0.67186 0.83342 0.0
H2691 H 0.76384 0.67286 0.85474 0.0
H2692 H 0.82275 0.71121 0.83461 0.0
H2693 H 0.77883 0.68612 0.78659 0.0
H2694 H 0.77183 0.69243 0.80721 0.0
H2695 H 0.78111 0.67193 0.80398 0.0
C2696 C 0.77602 0.71405 0.85594 0.0
C2697 C 0.76684 0.69948 0.85988 0.0
C2698 C 0.78817 0.71365 0.84324 0.0
C2699 C 0.79158 0.69859 0.83455 0.0
C2700 C 0.78322 0.68377 0.83941 0.0
H2701 H 0.87869 0.69646 0.76631 0.0
H2702 H 0.86 0.6917 0.79039 0.0
C2703 C 0.77066 0.68429 0.8517 0.0
C2704 C 0.80354 0.6986 0.82018 0.0
H2705 H 0.80758 0.68756 0.77883 0.0
C2706 C 0.8194 0.7061 0.82238 0.0
C2707 C 0.79908 0.69219 0.80412 0.0
C2708 C 0.78173 0.6854 0.80027 0.0
C2709 C 0.83081 0.70763 0.80898 0.0
C2710 C 0.82663 0.70058 0.79312 0.0
C2711 C 0.81088 0.69281 0.79101 0.0
C2712 C 0.83785 0.70204 0.77822 0.0
C2713 C 0.84683 0.71748 0.81187 0.0
C2714 C 0.83142 0.70835 0.76297 0.0
C2715 C 0.8419 0.71033 0.74901 0.0
C2716 C 0.85908 0.70642 0.75016 0.0
C2717 C 0.86549 0.69974 0.76523 0.0
C2718 C 0.85487 0.69722 0.77904 0.0
H2719 H 0.84557 0.7263 0.82267 0.0
H2720 H 0.85721 0.70862 0.81487 0.0
H2721 H 0.85038 0.72489 0.80056 0.0
H2722 H 0.81834 0.71211 0.76195 0.0
H2723 H 0.8367 0.71559 0.73753 0.0
H2724 H 0.55809 0.49585 0.08784 0.0
H2725 H 0.56248 0.51783 0.06683 0.0
H2726 H 0.53198 0.55204 0.09602 0.0
H2727 H 0.52764 0.53018 0.11727 0.0
H2728 H 0.53579 0.53158 0.04923 0.0
H2729 H 0.572 0.58158 0.08195 0.0
H2730 H 0.57083 0.5602 0.08968 0.0
H2731 H 0.5537 0.57458 0.09327 0.0
C2732 C 0.55252 0.50813 0.08997 0.0
C2733 C 0.54239 0.51123 0.10417 0.0
C2734 C 0.55511 0.52068 0.07796 0.0
C2735 C 0.54769 0.53658 0.07997 0.0
C2736 C 0.5381 0.53995 0.09442 0.0
H2737 H 0.52179 0.62057 0.0185 0.0
H2738 H 0.52834 0.60095 0.04124 0.0
C2739 C 0.53552 0.5274 0.10648 0.0
C2740 C 0.54826 0.54886 0.06601 0.0
H2741 H 0.55869 0.58934 0.05601 0.0
C2742 C 0.54102 0.54414 0.0506 0.0
C2743 C 0.55501 0.56522 0.06795 0.0
C2744 C 0.56347 0.57069 0.08406 0.0
C2745 C 0.53975 0.55555 0.03723 0.0
C2746 C 0.54623 0.57202 0.03923 0.0
C2747 C 0.5538 0.57667 0.05453 0.0
C2748 C 0.54415 0.58487 0.02594 0.0
C2749 C 0.53081 0.55009 0.02134 0.0
C2750 C 0.55131 0.58256 0.00996 0.0
C2751 C 0.54748 0.59367 -0.00314 0.0
C2752 C 0.53654 0.60734 -0.00039 0.0
C2753 C 0.53016 0.6101 0.01591 0.0
C2754 C 0.53393 0.59895 0.02895 0.0
H2755 H 0.52342 0.53836 0.02324 0.0
H2756 H 0.52217 0.56011 0.0168 0.0
H2757 H 0.54026 0.54766 0.01134 0.0
H2758 H 0.55947 0.57191 0.0075 0.0
H2759 H 0.55276 0.59129 0.98451 0.0
H2760 H 0.6466 0.30441 0.24145 0.0
H2761 H 0.6659 0.31096 0.26455 0.0
H2762 H 0.63776 0.27826 0.29754 0.0
H2763 H 0.61821 0.27186 0.27468 0.0
H2764 H 0.64931 0.3083 0.31324 0.0
H2765 H 0.7 0.27459 0.27852 0.0
H2766 H 0.69037 0.29165 0.2672 0.0
H2767 H 0.67815 0.27333 0.27244 0.0
C2768 C 0.64437 0.29878 0.25367 0.0
C2769 C 0.63102 0.2874 0.25615 0.0
C2770 C 0.65542 0.30252 0.26683 0.0
C2771 C 0.6534 0.29482 0.28261 0.0
C2772 C 0.63954 0.28426 0.28541 0.0
H2773 H 0.71174 0.27896 0.37253 0.0
H2774 H 0.68893 0.28229 0.35209 0.0
C2775 C 0.62842 0.28058 0.2723 0.0
C2776 C 0.66644 0.2966 0.29576 0.0
H2777 H 0.70734 0.28683 0.30446 0.0
C2778 C 0.66204 0.30371 0.31134 0.0
C2779 C 0.68296 0.29045 0.29321 0.0
C2780 C 0.68818 0.28194 0.27701 0.0
C2781 C 0.67383 0.30491 0.32447 0.0
C2782 C 0.6903 0.29864 0.32193 0.0
C2783 C 0.69471 0.29172 0.30629 0.0
C2784 C 0.70314 0.2985 0.33539 0.0
C2785 C 0.66863 0.31296 0.34088 0.0
C2786 C 0.71865 0.30649 0.33274 0.0
C2787 C 0.73175 0.30445 0.34426 0.0
C2788 C 0.72959 0.29433 0.35864 0.0
C2789 C 0.7138 0.28686 0.3616 0.0
C2790 C 0.70071 0.28885 0.35001 0.0
H2791 H 0.65736 0.32111 0.33929 0.0
H2792 H 0.66544 0.30294 0.35009 0.0
H2793 H 0.67903 0.32063 0.34623 0.0
H2794 H 0.72078 0.31391 0.32149 0.0
H2795 H 0.74371 0.31048 0.34165 0.0
H2796 H 0.95975 0.46121 0.62133 0.0
H2797 H 0.95688 0.43843 0.60073 0.0
H2798 H 0.92369 0.46942 0.57091 0.0
H2799 H 0.92661 0.49231 0.59124 0.0
H2800 H 0.92783 0.42116 0.5865 0.0
H2801 H 0.96395 0.45857 0.53955 0.0
H2802 H 0.96346 0.46389 0.56164 0.0
H2803 H 0.94589 0.46902 0.54832 0.0
C2804 C 0.95169 0.46312 0.61049 0.0
C2805 C 0.94361 0.47866 0.60779 0.0
C2806 C 0.95004 0.45008 0.59877 0.0
C2807 C 0.94029 0.4524 0.58423 0.0
C2808 C 0.93149 0.46754 0.58196 0.0
H2809 H 0.93434 0.396 0.49095 0.0
H2810 H 0.92791 0.41521 0.51413 0.0
C2811 C 0.93318 0.48058 0.59359 0.0
C2812 C 0.94025 0.43949 0.57085 0.0
H2813 H 0.95298 0.43257 0.53043 0.0
C2814 C 0.93327 0.42361 0.57421 0.0
C2815 C 0.94743 0.4428 0.55489 0.0
C2816 C 0.95575 0.45943 0.55085 0.0
C2817 C 0.93315 0.41092 0.56188 0.0
C2818 C 0.94042 0.41421 0.54596 0.0
C2819 C 0.94727 0.43015 0.54261 0.0
C2820 C 0.942 0.40116 0.53276 0.0
C2821 C 0.92513 0.39418 0.56594 0.0
C2822 C 0.95181 0.38677 0.53566 0.0
C2823 C 0.95551 0.37575 0.52246 0.0
C2824 C 0.9496 0.37905 0.50607 0.0
C2825 C 0.93916 0.39312 0.50339 0.0
C2826 C 0.93544 0.4041 0.51662 0.0
H2827 H 0.91596 0.39529 0.57645 0.0
H2828 H 0.91858 0.38888 0.55477 0.0
H2829 H 0.93507 0.38516 0.56985 0.0
H2830 H 0.9573 0.38446 0.54794 0.0
H2831 H 0.96359 0.36504 0.52497 0.0
H2832 H 0.87426 0.28022 0.71636 0.0
H2833 H 0.85521 0.28803 0.6936 0.0
H2834 H 0.82505 0.31679 0.72847 0.0
H2835 H 0.8439 0.3088 0.75146 0.0
H2836 H 0.80724 0.29277 0.71171 0.0
H2837 H 0.84468 0.32985 0.66605 0.0
H2838 H 0.85481 0.31054 0.67199 0.0
H2839 H 0.85132 0.32663 0.68758 0.0
C2840 C 0.86379 0.28851 0.71916 0.0
C2841 C 0.86049 0.29372 0.73578 0.0
C2842 C 0.853 0.2931 0.70607 0.0
C2843 C 0.83882 0.30314 0.70931 0.0
C2844 C 0.83599 0.30911 0.72571 0.0
H2845 H 0.74797 0.31474 0.64866 0.0
H2846 H 0.77015 0.31988 0.66934 0.0
C2847 C 0.84676 0.30449 0.73883 0.0
C2848 C 0.82573 0.30517 0.69622 0.0
H2849 H 0.81926 0.31709 0.65541 0.0
C2850 C 0.80976 0.29838 0.6995 0.0
C2851 C 0.82915 0.31233 0.68027 0.0
C2852 C 0.84588 0.3204 0.6763 0.0
C2853 C 0.7973 0.2979 0.68705 0.0
C2854 C 0.80082 0.30472 0.67097 0.0
C2855 C 0.81665 0.31189 0.66777 0.0
C2856 C 0.78838 0.30368 0.6572 0.0
C2857 C 0.78073 0.28942 0.69098 0.0
C2858 C 0.79162 0.29348 0.64313 0.0
C2859 C 0.77901 0.29059 0.6312 0.0
C2860 C 0.76297 0.29782 0.63322 0.0
C2861 C 0.76011 0.30877 0.64687 0.0
C2862 C 0.77275 0.31174 0.6587 0.0
H2863 H 0.78144 0.28164 0.7026 0.0
H2864 H 0.7709 0.29917 0.69292 0.0
H2865 H 0.77668 0.28123 0.68038 0.0
H2866 H 0.80366 0.2872 0.64177 0.0
H2867 H 0.78163 0.28217 0.62078 0.0
H2868 H 0.96517 0.53115 0.8705 0.0
H2869 H 0.9607 0.55325 0.89158 0.0
H2870 H 0.92884 0.51977 0.9201 0.0
H2871 H 0.93339 0.49756 0.89933 0.0
H2872 H 0.93075 0.56864 0.90546 0.0
H2873 H 0.96738 0.53207 0.9527 0.0
H2874 H 0.96762 0.52707 0.93053 0.0
H2875 H 0.95002 0.52096 0.94338 0.0
C2876 C 0.95708 0.52855 0.88117 0.0
C2877 C 0.94985 0.51253 0.88338 0.0
C2878 C 0.95451 0.54119 0.89316 0.0
C2879 C 0.94467 0.53799 0.90748 0.0
C2880 C 0.93672 0.52234 0.90926 0.0
H2881 H 0.93523 0.59294 0.00157 0.0
H2882 H 0.9293 0.57384 0.97815 0.0
C2883 C 0.93934 0.50968 0.89737 0.0
C2884 C 0.94362 0.5506 0.92111 0.0
H2885 H 0.95502 0.55737 0.96196 0.0
C2886 C 0.93599 0.56621 0.91785 0.0
C2887 C 0.9505 0.54732 0.93721 0.0
C2888 C 0.95948 0.53102 0.9412 0.0
C2889 C 0.93501 0.57867 0.93037 0.0
C2890 C 0.94206 0.57544 0.94641 0.0
C2891 C 0.94948 0.55974 0.94969 0.0
C2892 C 0.94307 0.58843 0.95971 0.0
C2893 C 0.92639 0.59512 0.92636 0.0
C2894 C 0.9525 0.60311 0.957 0.0
C2895 C 0.95592 0.61405 0.97033 0.0
C2896 C 0.95009 0.61041 0.98667 0.0
C2897 C 0.93995 0.5961 0.98917 0.0
C2898 C 0.93653 0.58518 0.97581 0.0
H2899 H 0.91736 0.59372 0.91576 0.0
H2900 H 0.91954 0.60008 0.93751 0.0
H2901 H 0.936 0.60454 0.9226 0.0
H2902 H 0.95797 0.60568 0.94477 0.0
H2903 H 0.96375 0.62497 0.96795 0.0
H2904 H 0.6454 0.69093 0.24673 0.0
H2905 H 0.66289 0.68617 0.22186 0.0
H2906 H 0.62331 0.7055 0.19008 0.0
H2907 H 0.60579 0.71059 0.21488 0.0
H2908 H 0.65884 0.66856 0.1905 0.0
H2909 H 0.66296 0.7382 0.1827 0.0
H2910 H 0.65472 0.72856 0.20155 0.0
H2911 H 0.64211 0.72942 0.18278 0.0
C2912 C 0.64028 0.69391 0.23444 0.0
C2913 C 0.62433 0.70144 0.23281 0.0
C2914 C 0.65028 0.69114 0.22024 0.0
C2915 C 0.64448 0.6958 0.20422 0.0
C2916 C 0.6281 0.70212 0.2024 0.0
H2917 H 0.70828 0.71129 0.11572 0.0
H2918 H 0.68306 0.7074 0.13301 0.0
C2919 C 0.61811 0.70499 0.21659 0.0
C2920 C 0.65621 0.69555 0.18978 0.0
H2921 H 0.67867 0.72161 0.16405 0.0
C2922 C 0.66306 0.68012 0.18456 0.0
C2923 C 0.66165 0.71069 0.18209 0.0
C2924 C 0.65512 0.72769 0.18759 0.0
C2925 C 0.67552 0.67945 0.17204 0.0
C2926 C 0.68141 0.69465 0.16483 0.0
C2927 C 0.67408 0.70999 0.16959 0.0
C2928 C 0.6962 0.69519 0.15353 0.0
C2929 C 0.68236 0.66253 0.16676 0.0
C2930 C 0.71191 0.68963 0.15938 0.0
C2931 C 0.72632 0.69185 0.14959 0.0
C2932 C 0.72532 0.69983 0.1338 0.0
C2933 C 0.70949 0.70512 0.12783 0.0
C2934 C 0.69507 0.70287 0.13765 0.0
H2935 H 0.67306 0.65233 0.16908 0.0
H2936 H 0.68585 0.66246 0.15321 0.0
H2937 H 0.6938 0.65966 0.17426 0.0
H2938 H 0.71314 0.68408 0.17178 0.0
H2939 H 0.7383 0.68765 0.1546 0.0
H2940 H 0.52646 0.45894 0.36876 0.0
H2941 H 0.52989 0.43574 0.3888 0.0
H2942 H 0.566 0.46511 0.4168 0.0
H2943 H 0.56252 0.48843 0.39706 0.0
H2944 H 0.55883 0.41705 0.40146 0.0
H2945 H 0.52696 0.45607 0.45018 0.0
H2946 H 0.5266 0.46142 0.42809 0.0
H2947 H 0.54503 0.46566 0.44052 0.0
C2948 C 0.5353 0.46038 0.37905 0.0
C2949 C 0.544 0.47563 0.38149 0.0
C2950 C 0.53727 0.44711 0.39044 0.0
C2951 C 0.54798 0.44888 0.40437 0.0
C2952 C 0.55747 0.46365 0.40625 0.0
H2953 H 0.55526 0.39251 0.49741 0.0
H2954 H 0.56181 0.41114 0.47382 0.0
C2955 C 0.55545 0.47695 0.39495 0.0
C2956 C 0.54813 0.43595 0.41772 0.0
H2957 H 0.53706 0.42956 0.4587 0.0
C2958 C 0.55413 0.41974 0.41401 0.0
C2959 C 0.54192 0.43956 0.43402 0.0
C2960 C 0.53462 0.45656 0.43847 0.0
C2961 C 0.55422 0.40702 0.42631 0.0
C2962 C 0.54792 0.41064 0.44258 0.0
C2963 C 0.54204 0.42689 0.44626 0.0
C2964 C 0.54634 0.39768 0.45586 0.0
C2965 C 0.56117 0.38991 0.42185 0.0
C2966 C 0.53574 0.38375 0.45347 0.0
C2967 C 0.53199 0.37305 0.46691 0.0
C2968 C 0.53863 0.37623 0.48304 0.0
C2969 C 0.54986 0.38976 0.48519 0.0
C2970 C 0.55365 0.40039 0.47172 0.0
H2971 H 0.56991 0.3906 0.41094 0.0
H2972 H 0.56793 0.38422 0.43269 0.0
H2973 H 0.55061 0.38144 0.41835 0.0
H2974 H 0.52967 0.38163 0.44143 0.0
H2975 H 0.52328 0.36275 0.46482 0.0
H2976 H 0.77242 0.88209 0.69927 0.0
H2977 H 0.79754 0.86694 0.6897 0.0
H2978 H 0.77189 0.81965 0.69791 0.0
H2979 H 0.74651 0.83479 0.70621 0.0
H2980 H 0.81727 0.84847 0.70539 0.0
H2981 H 0.79268 0.80842 0.65484 0.0
H2982 H 0.78037 0.82542 0.6635 0.0
H2983 H 0.77989 0.80472 0.67299 0.0
C2984 C 0.7721 0.86846 0.69864 0.0
C2985 C 0.75755 0.85956 0.70333 0.0
C2986 C 0.78644 0.85981 0.6932 0.0
C2987 C 0.78657 0.84211 0.69271 0.0
C2988 C 0.77197 0.83328 0.69745 0.0
H2989 H 0.86324 0.77586 0.72098 0.0
H2990 H 0.84487 0.80017 0.71722 0.0
C2991 C 0.75749 0.84193 0.70238 0.0
C2992 C 0.80234 0.83276 0.68895 0.0
H2993 H 0.81621 0.79638 0.67101 0.0
C2994 C 0.81715 0.83731 0.69751 0.0
C2995 C 0.80257 0.81856 0.67817 0.0
C2996 C 0.78804 0.81419 0.66672 0.0
C2997 C 0.83165 0.82725 0.69673 0.0
C2998 C 0.83101 0.81175 0.68792 0.0
C2999 C 0.8167 0.80799 0.67819 0.0
C3000 C 0.8441 0.79851 0.68993 0.0
C3001 C 0.84736 0.83336 0.70551 0.0
C3002 C 0.8496 0.78912 0.67594 0.0
C3003 C 0.85945 0.77472 0.67821 0.0
C3004 C 0.86439 0.7698 0.69444 0.0
C3005 C 0.85978 0.77964 0.70833 0.0
C3006 C 0.84942 0.79367 0.70613 0.0
H3007 H 0.84839 0.84729 0.70462 0.0
H3008 H 0.84663 0.83014 0.71909 0.0
H3009 H 0.85893 0.82768 0.70007 0.0
H3010 H 0.8457 0.79253 0.66331 0.0
H3011 H 0.86291 0.76723 0.66734 0.0
H3012 H 0.24107 0.64152 0.30029 0.0
H3013 H 0.26464 0.66062 0.30554 0.0
H3014 H 0.29467 0.6339 0.26901 0.0
H3015 H 0.27131 0.61454 0.26383 0.0
H3016 H 0.3127 0.64408 0.29856 0.0
H3017 H 0.27606 0.69622 0.26948 0.0
H3018 H 0.26571 0.68585 0.28672 0.0
H3019 H 0.26988 0.67442 0.26762 0.0
C3020 C 0.25275 0.63956 0.29351 0.0
C3021 C 0.25423 0.62666 0.28146 0.0
C3022 C 0.26617 0.6505 0.29651 0.0
C3023 C 0.28123 0.64882 0.28742 0.0
C3024 C 0.2831 0.63542 0.27608 0.0
H3025 H 0.37015 0.71032 0.27256 0.0
H3026 H 0.35023 0.68681 0.27386 0.0
C3027 C 0.26971 0.62441 0.27312 0.0
C3028 C 0.29454 0.66172 0.28881 0.0
H3029 H 0.30241 0.70325 0.28121 0.0
C3030 C 0.3105 0.65703 0.2948 0.0
C3031 C 0.2916 0.67854 0.28372 0.0
C3032 C 0.27494 0.68409 0.27638 0.0
C3033 C 0.32357 0.66888 0.29614 0.0
C3034 C 0.32055 0.6857 0.29115 0.0
C3035 C 0.30461 0.69034 0.28513 0.0
C3036 C 0.33368 0.69885 0.29187 0.0
C3037 C 0.34038 0.6634 0.30311 0.0
C3038 C 0.33092 0.71336 0.30155 0.0
C3039 C 0.34213 0.72684 0.3007 0.0
C3040 C 0.35631 0.72608 0.29011 0.0
C3041 C 0.35937 0.71128 0.28086 0.0
C3042 C 0.34807 0.69779 0.28167 0.0
H3043 H 0.33941 0.65132 0.3101 0.0
H3044 H 0.34935 0.66158 0.29254 0.0
H3045 H 0.34565 0.67316 0.31164 0.0
H3046 H 0.31984 0.71442 0.30944 0.0
H3047 H 0.33945 0.738 0.30808 0.0
H3048 H 0.50024 0.08658 0.56536 0.0
H3049 H 0.5221 0.06558 0.57053 0.0
H3050 H 0.55692 0.09423 0.54022 0.0
H3051 H 0.53524 0.11545 0.53518 0.0
H3052 H 0.53598 0.04743 0.5449 0.0
H3053 H 0.58617 0.08063 0.58016 0.0
H3054 H 0.56494 0.08866 0.57857 0.0
H3055 H 0.57962 0.09173 0.56159 0.0
C3056 C 0.51263 0.08859 0.56002 0.0
C3057 C 0.51596 0.10263 0.54973 0.0
C3058 C 0.52512 0.0766 0.56305 0.0
C3059 C 0.54116 0.07846 0.55593 0.0
C3060 C 0.54473 0.09275 0.54616 0.0
H3061 H 0.62413 0.01877 0.52646 0.0
H3062 H 0.60473 0.04104 0.535 0.0
C3063 C 0.53227 0.1048 0.54316 0.0
C3064 C 0.5534 0.06447 0.5568 0.0
H3065 H 0.59426 0.05495 0.56615 0.0
C3066 C 0.54863 0.04894 0.54984 0.0
C3067 C 0.56988 0.06657 0.56318 0.0
C3068 C 0.57543 0.08276 0.57145 0.0
C3069 C 0.56015 0.03569 0.54829 0.0
C3070 C 0.57681 0.03795 0.5542 0.0
C3071 C 0.58145 0.05328 0.56169 0.0
C3072 C 0.58987 0.02502 0.55127 0.0
C3073 C 0.55463 0.01973 0.53951 0.0
C3074 C 0.58824 0.0088 0.55808 0.0
C3075 C 0.5992 -0.00403 0.55309 0.0
C3076 C 0.61205 -0.00076 0.54134 0.0
C3077 C 0.61429 0.01579 0.53543 0.0
C3078 C 0.60327 0.02856 0.54034 0.0
H3079 H 0.5425 0.02138 0.53273 0.0
H3080 H 0.56431 0.0155 0.53034 0.0
H3081 H 0.55292 0.0096 0.54899 0.0
H3082 H 0.57814 0.00593 0.56679 0.0
H3083 H 0.59728 0.9834 0.55805 0.0
H3084 H 0.25052 0.34709 0.80525 0.0
H3085 H 0.22643 0.32855 0.81014 0.0
H3086 H 0.1956 0.35991 0.77824 0.0
H3087 H 0.21946 0.37874 0.77355 0.0
H3088 H 0.17845 0.34749 0.80681 0.0
H3089 H 0.2121 0.29702 0.77184 0.0
H3090 H 0.22344 0.30513 0.78965 0.0
H3091 H 0.21918 0.31861 0.77194 0.0
C3092 C 0.23856 0.35018 0.79945 0.0
C3093 C 0.23698 0.36424 0.78879 0.0
C3094 C 0.22484 0.33956 0.80223 0.0
C3095 C 0.20939 0.3427 0.79424 0.0
C3096 C 0.20747 0.35724 0.78443 0.0
H3097 H 0.1187 0.28473 0.77619 0.0
H3098 H 0.13904 0.30776 0.77908 0.0
C3099 C 0.22114 0.36796 0.78174 0.0
C3100 C 0.19567 0.33016 0.795 0.0
H3101 H 0.18604 0.28974 0.7841 0.0
C3102 C 0.18006 0.33485 0.80188 0.0
C3103 C 0.19782 0.31377 0.78833 0.0
C3104 C 0.21397 0.30833 0.77987 0.0
C3105 C 0.16661 0.32338 0.80258 0.0
C3106 C 0.16888 0.30697 0.79611 0.0
C3107 C 0.18444 0.30234 0.78917 0.0
C3108 C 0.15536 0.29422 0.79621 0.0
C3109 C 0.15017 0.32878 0.81042 0.0
C3110 C 0.15782 0.27908 0.80495 0.0
C3111 C 0.14637 0.26591 0.80323 0.0
C3112 C 0.13225 0.2676 0.79265 0.0
C3113 C 0.12943 0.28305 0.78444 0.0
C3114 C 0.14097 0.29625 0.78616 0.0
H3115 H 0.1516 0.34046 0.81801 0.0
H3116 H 0.14085 0.33126 0.80031 0.0
H3117 H 0.14504 0.31866 0.81861 0.0
H3118 H 0.16891 0.27729 0.81271 0.0
H3119 H 0.14886 0.25423 0.80983 0.0
H3120 H 0.35813 0.465 0.52349 0.0
H3121 H 0.37494 0.43985 0.52912 0.0
H3122 H 0.41235 0.47033 0.5541 0.0
H3123 H 0.39554 0.49553 0.54878 0.0
H3124 H 0.40647 0.43601 0.51607 0.0
H3125 H 0.40885 0.42992 0.58549 0.0
H3126 H 0.39327 0.44265 0.57484 0.0
H3127 H 0.41417 0.4507 0.57837 0.0
C3128 C 0.36978 0.46634 0.53047 0.0
C3129 C 0.37557 0.4823 0.53557 0.0
C3130 C 0.37933 0.45194 0.53371 0.0
C3131 C 0.39478 0.45321 0.54218 0.0
C3132 C 0.40027 0.46902 0.54788 0.0
H3133 H 0.48719 0.4016 0.55191 0.0
H3134 H 0.46235 0.41951 0.55427 0.0
C3135 C 0.39071 0.48344 0.54469 0.0
C3136 C 0.40616 0.4385 0.54308 0.0
H3137 H 0.43058 0.4155 0.56995 0.0
C3138 C 0.4115 0.43128 0.52786 0.0
C3139 C 0.41271 0.43245 0.55849 0.0
C3140 C 0.40683 0.43922 0.57523 0.0
C3141 C 0.42393 0.41876 0.52755 0.0
C3142 C 0.43093 0.41311 0.54293 0.0
C3143 C 0.42514 0.41988 0.5582 0.0
C3144 C 0.44533 0.40133 0.54321 0.0
C3145 C 0.43009 0.41237 0.51073 0.0
C3146 C 0.44385 0.385 0.53662 0.0
C3147 C 0.45807 0.37475 0.5351 0.0
C3148 C 0.47396 0.38064 0.54029 0.0
C3149 C 0.47518 0.3967 0.54768 0.0
C3150 C 0.46099 0.40695 0.54911 0.0
H3151 H 0.42575 0.42041 0.50012 0.0
H3152 H 0.44407 0.41181 0.51045 0.0
H3153 H 0.42521 0.39944 0.50862 0.0
H3154 H 0.43178 0.38036 0.53226 0.0
H3155 H 0.45667 0.36237 0.52953 0.0
H3156 H 0.65044 0.23694 0.17961 0.0
H3157 H 0.67018 0.21359 0.17642 0.0
H3158 H 0.64136 0.18419 0.21187 0.0
H3159 H 0.62136 0.20738 0.21497 0.0
H3160 H 0.68847 0.20265 0.20364 0.0
H3161 H 0.65293 0.14947 0.17553 0.0
H3162 H 0.64567 0.17102 0.17445 0.0
H3163 H 0.64272 0.15893 0.19337 0.0
C3164 C 0.64809 0.22539 0.1865 0.0
C3165 C 0.63443 0.22407 0.19769 0.0
C3166 C 0.65935 0.21205 0.1846 0.0
C3167 C 0.65714 0.19714 0.1938 0.0
C3168 C 0.64309 0.19546 0.20438 0.0
H3169 H 0.71938 0.11556 0.22653 0.0
H3170 H 0.69613 0.13429 0.21898 0.0
C3171 C 0.63175 0.20879 0.20624 0.0
C3172 C 0.67074 0.18444 0.19417 0.0
H3173 H 0.67939 0.14272 0.18841 0.0
C3174 C 0.68656 0.18959 0.20007 0.0
C3175 C 0.66811 0.16742 0.18966 0.0
C3176 C 0.65148 0.16137 0.18275 0.0
C3177 C 0.69975 0.17808 0.20211 0.0
C3178 C 0.69711 0.16101 0.19777 0.0
C3179 C 0.68135 0.15585 0.19163 0.0
C3180 C 0.7104 0.14827 0.20045 0.0
C3181 C 0.71616 0.1842 0.20954 0.0
C3182 C 0.72591 0.14963 0.19211 0.0
C3183 C 0.73927 0.13909 0.19652 0.0
C3184 C 0.73727 0.1269 0.20921 0.0
C3185 C 0.72137 0.1249 0.21679 0.0
C3186 C 0.70805 0.13553 0.21245 0.0
H3187 H 0.71479 0.19669 0.21572 0.0
H3188 H 0.72109 0.1751 0.21895 0.0
H3189 H 0.72564 0.18547 0.19935 0.0
H3190 H 0.72783 0.15921 0.18259 0.0
H3191 H 0.75128 0.1408 0.19028 0.0
H3192 H 0.59402 0.0016 0.93724 0.0
H3193 H 0.57655 0.97797 0.92791 0.0
H3194 H 0.59927 0.94614 0.96564 0.0
H3195 H 0.61703 0.96948 0.97478 0.0
H3196 H 0.5945 0.92978 0.93481 0.0
H3197 H 0.53652 0.96287 0.95629 0.0
H3198 H 0.54888 0.97403 0.941 0.0
H3199 H 0.55734 0.97017 0.96164 0.0
C3200 C 0.59537 0.98955 0.94348 0.0
C3201 C 0.60675 0.98748 0.9569 0.0
C3202 C 0.58538 0.97608 0.93815 0.0
C3203 C 0.58646 0.96043 0.94629 0.0
C3204 C 0.59825 0.95815 0.95922 0.0
H3205 H 0.53202 0.86964 0.96019 0.0
H3206 H 0.55428 0.89059 0.95667 0.0
C3207 C 0.60833 0.97154 0.96448 0.0
C3208 C 0.57459 0.94669 0.94221 0.0
H3209 H 0.53314 0.93589 0.94483 0.0
C3210 C 0.58105 0.93112 0.93683 0.0
C3211 C 0.55709 0.94852 0.94493 0.0
C3212 C 0.5495 0.96473 0.95141 0.0
C3213 C 0.57044 0.91721 0.93433 0.0
C3214 C 0.55302 0.91896 0.93747 0.0
C3215 C 0.54652 0.93466 0.94233 0.0
C3216 C 0.54129 0.90452 0.93714 0.0
C3217 C 0.57794 0.90076 0.92847 0.0
C3218 C 0.52673 0.90531 0.92719 0.0
C3219 C 0.51391 0.89351 0.92933 0.0
C3220 C 0.51543 0.88073 0.94151 0.0
C3221 C 0.53049 0.87933 0.95071 0.0
C3222 C 0.54328 0.89122 0.94862 0.0
H3223 H 0.59008 0.90277 0.92179 0.0
H3224 H 0.58046 0.89266 0.93958 0.0
H3225 H 0.56917 0.89394 0.91997 0.0
H3226 H 0.52495 0.91553 0.91832 0.0
H3227 H 0.50253 0.89484 0.92192 0.0
H3228 H 0.95748 0.12021 0.46427 0.0
H3229 H 0.93479 0.09991 0.45917 0.0
H3230 H 0.96686 0.0724 0.42504 0.0
H3231 H 0.98963 0.09239 0.43016 0.0
H3232 H 0.91854 0.08718 0.42832 0.0
H3233 H 0.95518 0.03885 0.46349 0.0
H3234 H 0.96015 0.06101 0.46442 0.0
H3235 H 0.96612 0.04877 0.44635 0.0
C3236 C 0.95963 0.10995 0.45552 0.0
C3237 C 0.97544 0.10774 0.44784 0.0
C3238 C 0.94665 0.09842 0.45259 0.0
C3239 C 0.9493 0.08459 0.44193 0.0
C3240 C 0.9647 0.0829 0.4335 0.0
H3241 H 0.89414 0.99088 0.43264 0.0
H3242 H 0.91296 0.01435 0.42617 0.0
C3243 C 0.97769 0.09432 0.43648 0.0
C3244 C 0.93655 0.07113 0.44073 0.0
H3245 H 0.92956 0.03018 0.45149 0.0
C3246 C 0.92091 0.07468 0.4333 0.0
C3247 C 0.93977 0.05489 0.44727 0.0
C3248 C 0.95614 0.05061 0.45596 0.0
C3249 C 0.90834 0.06228 0.43221 0.0
C3250 C 0.9115 0.04609 0.43896 0.0
C3251 C 0.92724 0.04255 0.44617 0.0
C3252 C 0.89843 0.03286 0.43993 0.0
C3253 C 0.89186 0.06657 0.42378 0.0
C3254 C 0.88381 0.03561 0.44945 0.0
C3255 C 0.87301 0.02224 0.45315 0.0
C3256 C 0.87677 0.00584 0.44756 0.0
C3257 C 0.89093 0.00332 0.43724 0.0
C3258 C 0.90168 0.01672 0.43349 0.0
H3259 H 0.89334 0.07718 0.41478 0.0
H3260 H 0.88664 0.05554 0.41695 0.0
H3261 H 0.88262 0.07048 0.43351 0.0
H3262 H 0.88124 0.04787 0.45487 0.0
H3263 H 0.8622 0.02463 0.46112 0.0
H3264 H 0.0539 0.09759 0.40013 0.0
H3265 H 0.07554 0.0949 0.37833 0.0
H3266 H 0.11243 0.1152 0.41275 0.0
H3267 H 0.09113 0.11752 0.4345 0.0
H3268 H 0.08917 0.12145 0.36527 0.0
H3269 H 0.14167 0.08321 0.38792 0.0
H3270 H 0.12088 0.08142 0.39705 0.0
H3271 H 0.13583 0.09664 0.40504 0.0
C3272 C 0.06678 0.10089 0.40321 0.0
C3273 C 0.0708 0.108 0.41894 0.0
C3274 C 0.07912 0.09931 0.39074 0.0
C3275 C 0.09567 0.10468 0.39389 0.0
C3276 C 0.0999 0.11051 0.41007 0.0
H3277 H 0.14914 0.18025 0.36995 0.0
H3278 H 0.12743 0.15886 0.36822 0.0
C3279 C 0.08763 0.11205 0.4225 0.0
C3280 C 0.10761 0.10775 0.37987 0.0
H3281 H 0.14997 0.11099 0.37467 0.0
C3282 C 0.10243 0.11859 0.36687 0.0
C3283 C 0.12485 0.10356 0.38129 0.0
C3284 C 0.13102 0.09038 0.3935 0.0
C3285 C 0.11427 0.12751 0.35728 0.0
C3286 C 0.13155 0.1258 0.36117 0.0
C3287 C 0.13669 0.11282 0.37205 0.0
C3288 C 0.1437 0.13956 0.35773 0.0
C3289 C 0.10807 0.13967 0.34409 0.0
C3290 C 0.16012 0.13604 0.35219 0.0
C3291 C 0.17271 0.1483 0.35345 0.0
C3292 C 0.16906 0.16419 0.3604 0.0
C3293 C 0.15236 0.16811 0.36461 0.0
C3294 C 0.13984 0.15589 0.36339 0.0
H3295 H 0.09722 0.13419 0.33714 0.0
H3296 H 0.10353 0.15135 0.3503 0.0
H3297 H 0.11811 0.14299 0.33493 0.0
H3298 H 0.16342 0.12351 0.34789 0.0
H3299 H 0.18549 0.14494 0.35002 0.0
H3300 H 0.08929 0.93536 0.59554 0.0
H3301 H 0.11072 0.91333 0.59297 0.0
H3302 H 0.07583 0.87722 0.61382 0.0
H3303 H 0.05444 0.89888 0.61596 0.0
H3304 H 0.12373 0.90004 0.61951 0.0
H3305 H 0.10016 0.847 0.5826 0.0
H3306 H 0.0911 0.8678 0.58056 0.0
H3307 H 0.08326 0.85317 0.59615 0.0
C3308 C 0.08602 0.92256 0.59895 0.0
C3309 C 0.07027 0.91887 0.60619 0.0
C3310 C 0.09828 0.90999 0.59746 0.0
C3311 C 0.09492 0.89355 0.60307 0.0
C3312 C 0.07869 0.88964 0.60896 0.0
H3313 H 0.12051 0.8406 0.67944 0.0
H3314 H 0.12138 0.86208 0.65775 0.0
C3315 C 0.06646 0.90213 0.61039 0.0
C3316 C 0.10879 0.88147 0.60635 0.0
H3317 H 0.11372 0.8391 0.61034 0.0
C3318 C 0.12197 0.88673 0.61694 0.0
C3319 C 0.10715 0.86415 0.60255 0.0
C3320 C 0.09473 0.85781 0.58965 0.0
C3321 C 0.13161 0.87498 0.62592 0.0
C3322 C 0.12762 0.85769 0.62457 0.0
C3323 C 0.11645 0.8524 0.61189 0.0
C3324 C 0.13147 0.84569 0.63835 0.0
C3325 C 0.14506 0.88131 0.63775 0.0
C3326 C 0.13709 0.82928 0.63486 0.0
C3327 C 0.13637 0.81682 0.64731 0.0
C3328 C 0.12986 0.82058 0.66336 0.0
C3329 C 0.12554 0.83729 0.66719 0.0
C3330 C 0.12624 0.84968 0.65479 0.0
H3331 H 0.15187 0.89212 0.63203 0.0
H3332 H 0.13908 0.88593 0.64951 0.0
H3333 H 0.1543 0.8713 0.64095 0.0
H3334 H 0.14106 0.82588 0.62226 0.0
H3335 H 0.13983 0.80404 0.64401 0.0
H3336 H 0.40049 0.88065 0.92591 0.0
H3337 H 0.37919 0.88006 0.90374 0.0
H3338 H 0.41801 0.88374 0.86598 0.0
H3339 H 0.43946 0.88465 0.88809 0.0
H3340 H 0.37513 0.89893 0.8638 0.0
H3341 H 0.39434 0.832 0.87345 0.0
H3342 H 0.39512 0.84613 0.8912 0.0
H3343 H 0.40943 0.84897 0.87397 0.0
C3344 C 0.40446 0.88206 0.91293 0.0
C3345 C 0.42163 0.88228 0.9087 0.0
C3346 C 0.39228 0.88187 0.90029 0.0
C3347 C 0.39712 0.88175 0.8833 0.0
C3348 C 0.41409 0.88396 0.87906 0.0
H3349 H 0.32683 0.81397 0.83882 0.0
H3350 H 0.35162 0.83199 0.83561 0.0
C3351 C 0.42631 0.88435 0.89172 0.0
C3352 C 0.38526 0.87479 0.87089 0.0
H3353 H 0.36837 0.8369 0.86064 0.0
C3354 C 0.37379 0.88538 0.86265 0.0
C3355 C 0.38393 0.85716 0.86907 0.0
C3356 C 0.39636 0.84531 0.8773 0.0
C3357 C 0.36013 0.8786 0.85363 0.0
C3358 C 0.3576 0.86091 0.85361 0.0
C3359 C 0.37007 0.85045 0.86059 0.0
C3360 C 0.3411 0.85298 0.84961 0.0
C3361 C 0.34839 0.89052 0.84464 0.0
C3362 C 0.32643 0.85918 0.85734 0.0
C3363 C 0.31207 0.84914 0.85854 0.0
C3364 C 0.31237 0.8325 0.85263 0.0
C3365 C 0.32641 0.82675 0.8436 0.0
C3366 C 0.34055 0.83706 0.84178 0.0
H3367 H 0.35566 0.90088 0.83865 0.0
H3368 H 0.34086 0.88404 0.8348 0.0
H3369 H 0.33975 0.8964 0.85393 0.0
H3370 H 0.32648 0.8711 0.86395 0.0
H3371 H 0.3014 0.85381 0.86565 0.0
H3372 H 0.36938 0.15088 0.17932 0.0
H3373 H 0.36687 0.12979 0.15737 0.0
H3374 H 0.34351 0.16627 0.1245 0.0
H3375 H 0.34662 0.18784 0.14642 0.0
H3376 H 0.34296 0.11539 0.13724 0.0
H3377 H 0.38587 0.15565 0.09874 0.0
H3378 H 0.38126 0.1612 0.12025 0.0
H3379 H 0.36532 0.16331 0.10431 0.0
C3380 C 0.36341 0.1544 0.16756 0.0
C3381 C 0.3586 0.17111 0.16444 0.0
C3382 C 0.36186 0.14227 0.15501 0.0
C3383 C 0.35535 0.14654 0.13912 0.0
C3384 C 0.34895 0.16281 0.13651 0.0
H3385 H 0.39538 0.05414 0.09705 0.0
H3386 H 0.37407 0.07628 0.09358 0.0
C3387 C 0.35066 0.17508 0.14908 0.0
C3388 C 0.3579 0.13444 0.12515 0.0
H3389 H 0.38813 0.12664 0.09569 0.0
C3390 C 0.35236 0.11784 0.12763 0.0
C3391 C 0.36985 0.1378 0.11233 0.0
C3392 C 0.37599 0.15542 0.10865 0.0
C3393 C 0.36066 0.10425 0.11996 0.0
C3394 C 0.37444 0.10756 0.10914 0.0
C3395 C 0.37777 0.12422 0.10427 0.0
C3396 C 0.38823 0.09513 0.10727 0.0
C3397 C 0.35608 0.08658 0.1253 0.0
C3398 C 0.40369 0.09873 0.1151 0.0
C3399 C 0.41588 0.08628 0.11689 0.0
C3400 C 0.41284 0.06991 0.11099 0.0
C3401 C 0.39795 0.06663 0.10192 0.0
C3402 C 0.38574 0.07922 0.09999 0.0
H3403 H 0.34543 0.08635 0.13436 0.0
H3404 H 0.35242 0.07909 0.11409 0.0
H3405 H 0.36709 0.08035 0.13128 0.0
H3406 H 0.40593 0.11093 0.12082 0.0
H3407 H 0.42728 0.08928 0.12377 0.0
H3408 H 0.18677 0.84621 0.13915 0.0
H3409 H 0.16582 0.86884 0.13892 0.0
H3410 H 0.12811 0.83345 0.1221 0.0
H3411 H 0.14874 0.81093 0.12263 0.0
H3412 H 0.15303 0.8789 0.11052 0.0
H3413 H 0.09931 0.86295 0.15044 0.0
H3414 H 0.11978 0.8535 0.15372 0.0
H3415 H 0.10481 0.84411 0.13935 0.0
C3416 C 0.17385 0.84317 0.13602 0.0
C3417 C 0.16942 0.82686 0.13066 0.0
C3418 C 0.16189 0.85611 0.13592 0.0
C3419 C 0.14533 0.85287 0.13064 0.0
C3420 C 0.14065 0.83626 0.12667 0.0
H3421 H 0.09316 0.86912 0.05194 0.0
H3422 H 0.11486 0.87267 0.07313 0.0
C3423 C 0.15255 0.82337 0.12676 0.0
C3424 C 0.13393 0.86679 0.12567 0.0
H3425 H 0.09182 0.87297 0.12116 0.0
C3426 C 0.13969 0.87813 0.11335 0.0
C3427 C 0.11661 0.86648 0.12973 0.0
C3428 C 0.10988 0.85621 0.14421 0.0
C3429 C 0.12829 0.88691 0.10312 0.0
C3430 C 0.11086 0.88388 0.10505 0.0
C3431 C 0.10521 0.87489 0.11921 0.0
C3432 C 0.09895 0.88608 0.09084 0.0
C3433 C 0.13508 0.89823 0.08947 0.0
C3434 C 0.08276 0.89267 0.0935 0.0
C3435 C 0.07017 0.89038 0.0814 0.0
C3436 C 0.07358 0.88136 0.06652 0.0
C3437 C 0.09012 0.87607 0.06328 0.0
C3438 C 0.10264 0.8783 0.07537 0.0
H3439 H 0.14616 0.90538 0.09416 0.0
H3440 H 0.13942 0.89043 0.07871 0.0
H3441 H 0.12543 0.90729 0.08493 0.0
H3442 H 0.07959 0.89862 0.10537 0.0
H3443 H 0.05753 0.89469 0.0842 0.0
H3444 H 0.38982 0.93539 0.3791 0.0
H3445 H 0.37288 0.91009 0.38094 0.0
H3446 H 0.41423 0.88401 0.40491 0.0
H3447 H 0.43179 0.90912 0.40151 0.0
H3448 H 0.40744 0.86829 0.3797 0.0
H3449 H 0.34531 0.87953 0.40701 0.0
H3450 H 0.3485 0.89618 0.39222 0.0
H3451 H 0.36232 0.89428 0.41025 0.0
C3452 C 0.3951 0.92444 0.38531 0.0
C3453 C 0.41215 0.92404 0.38988 0.0
C3454 C 0.38527 0.90994 0.3866 0.0
C3455 C 0.39215 0.89497 0.39311 0.0
C3456 C 0.40862 0.89531 0.39969 0.0
H3457 H 0.35696 0.79858 0.35221 0.0
H3458 H 0.35962 0.81891 0.37525 0.0
C3459 C 0.41867 0.90963 0.39776 0.0
C3460 C 0.384 0.8786 0.38899 0.0
H3461 H 0.34537 0.8614 0.38076 0.0
C3462 C 0.39393 0.86652 0.38067 0.0
C3463 C 0.36636 0.87597 0.39016 0.0
C3464 C 0.35513 0.88716 0.40059 0.0
C3465 C 0.38663 0.85305 0.37204 0.0
C3466 C 0.36892 0.85175 0.37141 0.0
C3467 C 0.35896 0.86273 0.38099 0.0
C3468 C 0.36108 0.84059 0.35886 0.0
C3469 C 0.39786 0.84108 0.36239 0.0
C3470 C 0.36012 0.84626 0.34216 0.0
C3471 C 0.35893 0.83471 0.32898 0.0
C3472 C 0.35852 0.81737 0.3324 0.0
C3473 C 0.35732 0.81189 0.34922 0.0
C3474 C 0.35874 0.82347 0.36241 0.0
H3475 H 0.41136 0.84268 0.3657 0.0
H3476 H 0.39417 0.82784 0.36495 0.0
H3477 H 0.39638 0.84334 0.34866 0.0
H3478 H 0.36202 0.85946 0.33923 0.0
H3479 H 0.35972 0.83928 0.31614 0.0
H3480 H 0.40117 0.12462 0.56152 0.0
H3481 H 0.37942 0.12504 0.58299 0.0
H3482 H 0.41206 0.09802 0.61706 0.0
H3483 H 0.43431 0.09809 0.59564 0.0
H3484 H 0.36192 0.10316 0.60287 0.0
H3485 H 0.40573 0.14198 0.64185 0.0
H3486 H 0.41093 0.13643 0.62047 0.0
H3487 H 0.41157 0.12071 0.63674 0.0
C3488 C 0.40366 0.11845 0.57343 0.0
C3489 C 0.41958 0.11169 0.57703 0.0
C3490 C 0.39116 0.11863 0.58571 0.0
C3491 C 0.39426 0.11193 0.60179 0.0
C3492 C 0.40956 0.10364 0.60489 0.0
H3493 H 0.30441 0.15508 0.64754 0.0
H3494 H 0.3261 0.13314 0.64914 0.0
C3495 C 0.42221 0.1036 0.5926 0.0
C3496 C 0.38219 0.11595 0.61544 0.0
H3497 H 0.37704 0.14556 0.64616 0.0
C3498 C 0.36518 0.11201 0.61277 0.0
C3499 C 0.38658 0.12728 0.62852 0.0
C3500 C 0.40466 0.13195 0.63214 0.0
C3501 C 0.35235 0.12097 0.62098 0.0
C3502 C 0.35679 0.1338 0.63257 0.0
C3503 C 0.37374 0.13585 0.63712 0.0
C3504 C 0.34506 0.14786 0.63622 0.0
C3505 C 0.33434 0.118 0.6156 0.0
C3506 C 0.349 0.16385 0.62977 0.0
C3507 C 0.33682 0.17644 0.62911 0.0
C3508 C 0.32039 0.17323 0.63478 0.0
C3509 C 0.31692 0.15782 0.64284 0.0
C3510 C 0.32925 0.14523 0.64367 0.0
H3511 H 0.33331 0.10842 0.60545 0.0
H3512 H 0.32688 0.11353 0.62653 0.0
H3513 H 0.32863 0.12992 0.611 0.0
H3514 H 0.36116 0.16624 0.62403 0.0
H3515 H 0.33997 0.18824 0.62302 0.0
H3516 H 0.12797 0.1872 0.84816 0.0
H3517 H 0.12821 0.16269 0.86665 0.0
H3518 H 0.14121 0.13095 0.82445 0.0
H3519 H 0.13998 0.15534 0.80574 0.0
H3520 H 0.11186 0.12335 0.83631 0.0
H3521 H 0.15513 0.12739 0.89068 0.0
H3522 H 0.14311 0.14636 0.88828 0.0
H3523 H 0.15773 0.14022 0.87206 0.0
C3524 C 0.13152 0.17509 0.84295 0.0
C3525 C 0.1336 0.17303 0.8255 0.0
C3526 C 0.13184 0.16108 0.8536 0.0
C3527 C 0.13468 0.14494 0.84696 0.0
C3528 C 0.13892 0.14328 0.82984 0.0
H3529 H 0.10535 0.04736 0.88207 0.0
H3530 H 0.12423 0.07153 0.87965 0.0
C3531 C 0.13815 0.15719 0.81914 0.0
C3532 C 0.12893 0.12991 0.85641 0.0
H3533 H 0.13026 0.10974 0.89448 0.0
C3534 C 0.11623 0.12021 0.84887 0.0
C3535 C 0.13439 0.12592 0.87292 0.0
C3536 C 0.14846 0.13545 0.88138 0.0
C3537 C 0.10855 0.10695 0.85742 0.0
C3538 C 0.1134 0.10345 0.87419 0.0
C3539 C 0.12644 0.11271 0.88171 0.0
C3540 C 0.10465 0.09004 0.88355 0.0
C3541 C 0.09497 0.09699 0.84851 0.0
C3542 C 0.08773 0.09253 0.88795 0.0
C3543 C 0.07683 0.07879 0.88894 0.0
C3544 C 0.08289 0.06246 0.88585 0.0
C3545 C 0.10034 0.05985 0.88436 0.0
C3546 C 0.1112 0.07364 0.88308 0.0
H3547 H 0.09492 0.09933 0.83471 0.0
H3548 H 0.09663 0.08327 0.85067 0.0
H3549 H 0.08247 0.10068 0.85357 0.0
H3550 H 0.08251 0.10514 0.88836 0.0
H3551 H 0.06346 0.08109 0.89035 0.0
H3552 H 0.17899 0.35723 0.15006 0.0
H3553 H 0.15703 0.35929 0.12863 0.0
H3554 H 0.11889 0.3545 0.16694 0.0
H3555 H 0.14079 0.3521 0.18849 0.0
H3556 H 0.11505 0.34195 0.12457 0.0
H3557 H 0.12973 0.40749 0.14513 0.0
H3558 H 0.14697 0.3928 0.14381 0.0
H3559 H 0.13088 0.38983 0.15938 0.0
C3560 C 0.16596 0.35584 0.15385 0.0
C3561 C 0.16157 0.35493 0.17095 0.0
C3562 C 0.15343 0.35688 0.14158 0.0
C3563 C 0.13642 0.35718 0.1463 0.0
C3564 C 0.13198 0.35416 0.16311 0.0
H3565 H 0.09192 0.42989 0.08091 0.0
H3566 H 0.08946 0.4109 0.10505 0.0
C3567 C 0.14453 0.3529 0.1754 0.0
C3568 C 0.1243 0.36527 0.13484 0.0
H3569 H 0.11576 0.40422 0.11942 0.0
C3570 C 0.11479 0.35557 0.12357 0.0
C3571 C 0.12366 0.38302 0.13398 0.0
C3572 C 0.13325 0.39398 0.14625 0.0
C3573 C 0.10554 0.3633 0.11057 0.0
C3574 C 0.10647 0.38104 0.10855 0.0
C3575 C 0.11492 0.39065 0.12078 0.0
C3576 C 0.10166 0.3898 0.0927 0.0
C3577 C 0.09521 0.35233 0.09902 0.0
C3578 C 0.10803 0.3839 0.07726 0.0
C3579 C 0.10878 0.39454 0.0633 0.0
C3580 C 0.10379 0.41143 0.06475 0.0
C3581 C 0.09597 0.41692 0.0796 0.0
C3582 C 0.09458 0.40605 0.09336 0.0
H3583 H 0.0892 0.34196 0.10625 0.0
H3584 H 0.08524 0.3596 0.09243 0.0
H3585 H 0.1036 0.34642 0.08953 0.0
H3586 H 0.11401 0.37168 0.07636 0.0
H3587 H 0.11496 0.39006 0.05198 0.0
H3588 H 0.64111 0.1219 0.80152 0.0
H3589 H 0.62355 0.12287 0.82656 0.0
H3590 H 0.66459 0.14505 0.85458 0.0
H3591 H 0.68264 0.14273 0.82973 0.0
H3592 H 0.65687 0.11822 0.86832 0.0
H3593 H 0.59619 0.14957 0.85766 0.0
H3594 H 0.5995 0.13513 0.84068 0.0
H3595 H 0.61378 0.15263 0.84356 0.0
C3596 C 0.64618 0.12754 0.81287 0.0
C3597 C 0.66326 0.13197 0.81386 0.0
C3598 C 0.63603 0.1283 0.8272 0.0
C3599 C 0.64266 0.13407 0.84257 0.0
C3600 C 0.65919 0.14045 0.84292 0.0
H3601 H 0.60551 0.10059 0.94054 0.0
H3602 H 0.60908 0.12108 0.91781 0.0
C3603 C 0.66952 0.13911 0.82875 0.0
C3604 C 0.6341 0.12951 0.85858 0.0
H3605 H 0.59524 0.12444 0.87649 0.0
C3606 C 0.6435 0.12019 0.87032 0.0
C3607 C 0.61662 0.1319 0.86135 0.0
C3608 C 0.60605 0.14303 0.85017 0.0
C3609 C 0.63579 0.11219 0.88393 0.0
C3610 C 0.61813 0.11322 0.88572 0.0
C3611 C 0.60876 0.12345 0.87481 0.0
C3612 C 0.6096 0.10235 0.89806 0.0
C3613 C 0.64646 0.10177 0.89576 0.0
C3614 C 0.60774 0.0852 0.89425 0.0
C3615 C 0.606 0.07344 0.90719 0.0
C3616 C 0.60598 0.07876 0.92406 0.0
C3617 C 0.6056 0.09612 0.92765 0.0
C3618 C 0.60753 0.10788 0.91468 0.0
H3619 H 0.66014 0.10418 0.89404 0.0
H3620 H 0.6431 0.10448 0.90906 0.0
H3621 H 0.64407 0.08818 0.89344 0.0
H3622 H 0.6094 0.08076 0.88145 0.0
H3623 H 0.60613 0.06016 0.90405 0.0
H3624 H 0.84605 0.8443 0.30559 0.0
H3625 H 0.86696 0.84167 0.32811 0.0
H3626 H 0.83112 0.86228 0.36346 0.0
H3627 H 0.81024 0.86433 0.34136 0.0
H3628 H 0.88 0.86748 0.34173 0.0
H3629 H 0.85459 0.83163 0.39446 0.0
H3630 H 0.84582 0.82957 0.37355 0.0
H3631 H 0.83791 0.84532 0.38801 0.0
C3632 C 0.84246 0.84764 0.31832 0.0
C3633 C 0.82658 0.85475 0.32167 0.0
C3634 C 0.85443 0.84612 0.33119 0.0
C3635 C 0.85066 0.85164 0.34758 0.0
C3636 C 0.83431 0.85745 0.35111 0.0
H3637 H 0.87579 0.92897 0.39899 0.0
H3638 H 0.87713 0.90654 0.37835 0.0
C3639 C 0.82237 0.85885 0.33834 0.0
C3640 C 0.86424 0.8549 0.36003 0.0
H3641 H 0.86782 0.85969 0.40245 0.0
C3642 C 0.87774 0.86519 0.35501 0.0
C3643 C 0.86203 0.85143 0.37736 0.0
C3644 C 0.84938 0.83869 0.38355 0.0
C3645 C 0.88713 0.87427 0.3669 0.0
C3646 C 0.88249 0.87339 0.38407 0.0
C3647 C 0.87101 0.86094 0.38922 0.0
C3648 C 0.88598 0.88749 0.39584 0.0
C3649 C 0.90102 0.88568 0.3608 0.0
C3650 C 0.8907 0.88445 0.41262 0.0
C3651 C 0.88966 0.89736 0.42461 0.0
C3652 C 0.88376 0.91342 0.41999 0.0
C3653 C 0.88035 0.91674 0.40297 0.0
C3654 C 0.88133 0.90389 0.39106 0.0
H3655 H 0.90823 0.87947 0.35054 0.0
H3656 H 0.89544 0.89734 0.35547 0.0
H3657 H 0.90984 0.88913 0.3711 0.0
H3658 H 0.89421 0.87189 0.41664 0.0
H3659 H 0.89241 0.89443 0.43765 0.0
H3660 H 0.84869 0.1251 0.1863 0.0
H3661 H 0.86478 0.12576 0.16029 0.0
H3662 H 0.82158 0.14582 0.13397 0.0
H3663 H 0.80503 0.14382 0.15987 0.0
H3664 H 0.8293 0.11878 0.12062 0.0
H3665 H 0.88953 0.15206 0.12682 0.0
H3666 H 0.88763 0.1382 0.14448 0.0
H3667 H 0.87268 0.15516 0.14178 0.0
C3668 C 0.84282 0.13024 0.17509 0.0
C3669 C 0.82558 0.13413 0.17494 0.0
C3670 C 0.85212 0.13082 0.1602 0.0
C3671 C 0.84447 0.13587 0.14505 0.0
C3672 C 0.82776 0.14177 0.14544 0.0
H3673 H 0.88075 0.10023 0.04695 0.0
H3674 H 0.87639 0.1211 0.06925 0.0
C3675 C 0.81829 0.14062 0.16022 0.0
C3676 C 0.85225 0.13098 0.12874 0.0
H3677 H 0.89025 0.12612 0.10904 0.0
C3678 C 0.8425 0.12098 0.11786 0.0
C3679 C 0.86949 0.1337 0.12494 0.0
C3680 C 0.88032 0.14554 0.13509 0.0
C3681 C 0.84972 0.11261 0.1042 0.0
C3682 C 0.86724 0.11393 0.10151 0.0
C3683 C 0.87687 0.12488 0.11145 0.0
C3684 C 0.87547 0.10269 0.08928 0.0
C3685 C 0.83872 0.10154 0.0933 0.0
C3686 C 0.87724 0.0856 0.0934 0.0
C3687 C 0.87944 0.07365 0.08072 0.0
C3688 C 0.88005 0.07869 0.06378 0.0
C3689 C 0.88027 0.09599 0.05991 0.0
C3690 C 0.87786 0.10795 0.07261 0.0
H3691 H 0.82512 0.10433 0.09506 0.0
H3692 H 0.84192 0.10317 0.07978 0.0
H3693 H 0.8409 0.08814 0.09665 0.0
H3694 H 0.87534 0.08137 0.10624 0.0
H3695 H 0.8794 0.06042 0.08408 0.0
H3696 H 0.37371 0.55673 0.5912 0.0
H3697 H 0.37475 0.57864 0.61245 0.0
H3698 H 0.39873 0.61228 0.57709 0.0
H3699 H 0.39704 0.59041 0.55534 0.0
H3700 H 0.39607 0.60009 0.62825 0.0
H3701 H 0.35465 0.63599 0.58413 0.0
H3702 H 0.36078 0.61467 0.57937 0.0
H3703 H 0.37596 0.63143 0.57804 0.0
C3704 C 0.37959 0.56863 0.588 0.0
C3705 C 0.38481 0.57203 0.57147 0.0
C3706 C 0.38027 0.58117 0.60022 0.0
C3707 C 0.38634 0.59731 0.59621 0.0
C3708 C 0.39352 0.60009 0.5803 0.0
H3709 H 0.33947 0.64234 0.68449 0.0
H3710 H 0.362 0.64463 0.66346 0.0
C3711 C 0.39264 0.58754 0.56793 0.0
C3712 C 0.38222 0.6113 0.60787 0.0
H3713 H 0.35066 0.64003 0.61275 0.0
C3714 C 0.38658 0.60933 0.62489 0.0
C3715 C 0.37009 0.62361 0.60335 0.0
C3716 C 0.36501 0.62663 0.58526 0.0
C3717 C 0.37713 0.6171 0.63764 0.0
C3718 C 0.3634 0.62754 0.63309 0.0
C3719 C 0.36103 0.63178 0.61611 0.0
C3720 C 0.34894 0.62986 0.64464 0.0
C3721 C 0.38058 0.61236 0.65573 0.0
C3722 C 0.33373 0.62177 0.6406 0.0
C3723 C 0.32084 0.62064 0.6524 0.0
C3724 C 0.32293 0.62749 0.66855 0.0
C3725 C 0.33761 0.63676 0.67218 0.0
C3726 C 0.35052 0.63801 0.66023 0.0
H3727 H 0.39122 0.60335 0.65694 0.0
H3728 H 0.38373 0.62383 0.66307 0.0
H3729 H 0.36921 0.60655 0.66144 0.0
H3730 H 0.3322 0.61539 0.62862 0.0
H3731 H 0.30964 0.61355 0.64916 0.0
H3732 H 0.146 0.63946 0.30561 0.0
H3733 H 0.12526 0.64101 0.32835 0.0
H3734 H 0.16217 0.62134 0.36311 0.0
H3735 H 0.18289 0.62017 0.3407 0.0
H3736 H 0.11398 0.61365 0.34197 0.0
H3737 H 0.13765 0.65189 0.39412 0.0
H3738 H 0.14581 0.65425 0.37299 0.0
H3739 H 0.15482 0.639 0.3873 0.0
C3740 C 0.14985 0.63606 0.31825 0.0
C3741 C 0.166 0.62945 0.32135 0.0
C3742 C 0.13798 0.63699 0.33123 0.0
C3743 C 0.14213 0.63143 0.3475 0.0
C3744 C 0.1587 0.62615 0.35082 0.0
H3745 H 0.1203 0.5547 0.40251 0.0
H3746 H 0.11884 0.57604 0.38069 0.0
C3747 C 0.17055 0.62527 0.3379 0.0
C3748 C 0.12883 0.62761 0.36002 0.0
H3749 H 0.12511 0.62394 0.40253 0.0
C3750 C 0.11596 0.61644 0.3552 0.0
C3751 C 0.13081 0.63165 0.37724 0.0
C3752 C 0.14293 0.64504 0.38311 0.0
C3753 C 0.10697 0.60724 0.36728 0.0
C3754 C 0.11129 0.60901 0.38445 0.0
C3755 C 0.12214 0.62212 0.38932 0.0
C3756 C 0.10808 0.59535 0.39675 0.0
C3757 C 0.09389 0.59478 0.36142 0.0
C3758 C 0.10235 0.59894 0.41308 0.0
C3759 C 0.10339 0.58671 0.42573 0.0
C3760 C 0.11035 0.57079 0.42223 0.0
C3761 C 0.11492 0.56686 0.40562 0.0
C3762 C 0.11388 0.57904 0.39304 0.0
H3763 H 0.08674 0.59996 0.35056 0.0
H3764 H 0.10023 0.58312 0.35705 0.0
H3765 H 0.0849 0.59151 0.37163 0.0
H3766 H 0.09796 0.61147 0.41626 0.0
H3767 H 0.09973 0.59009 0.43843 0.0
H3768 H 0.39327 0.40385 0.93296 0.0
H3769 H 0.39736 0.38162 0.91194 0.0
H3770 H 0.37167 0.41216 0.87499 0.0
H3771 H 0.36798 0.43437 0.89563 0.0
H3772 H 0.37254 0.36471 0.89939 0.0
H3773 H 0.40574 0.39108 0.84527 0.0
H3774 H 0.40686 0.4009 0.86579 0.0
H3775 H 0.39029 0.40639 0.85116 0.0
C3776 C 0.38901 0.40601 0.92018 0.0
C3777 C 0.38014 0.42077 0.91597 0.0
C3778 C 0.39138 0.39331 0.90819 0.0
C3779 C 0.38503 0.39525 0.89179 0.0
C3780 C 0.37716 0.41048 0.88736 0.0
H3781 H 0.31183 0.36129 0.84194 0.0
H3782 H 0.33393 0.3611 0.8629 0.0
C3783 C 0.37485 0.42315 0.89928 0.0
C3784 C 0.38348 0.38065 0.88024 0.0
H3785 H 0.37977 0.37409 0.83811 0.0
C3786 C 0.37473 0.3664 0.88601 0.0
C3787 C 0.38696 0.38221 0.86285 0.0
C3788 C 0.39818 0.39592 0.85602 0.0
C3789 C 0.36691 0.35537 0.87464 0.0
C3790 C 0.36748 0.35907 0.85723 0.0
C3791 C 0.37871 0.37151 0.85149 0.0
C3792 C 0.35381 0.35374 0.84564 0.0
C3793 C 0.35701 0.34068 0.88148 0.0
C3794 C 0.35734 0.34916 0.82891 0.0
C3795 C 0.34461 0.34959 0.81672 0.0
C3796 C 0.32821 0.35468 0.82111 0.0
C3797 C 0.32436 0.35743 0.83813 0.0
C3798 C 0.33704 0.35709 0.85024 0.0
H3799 H 0.36403 0.33461 0.89195 0.0
H3800 H 0.34491 0.34529 0.88674 0.0
H3801 H 0.35438 0.3311 0.87162 0.0
H3802 H 0.37016 0.34656 0.82503 0.0
H3803 H 0.34793 0.34729 0.80369 0.0
H3804 H 0.59012 0.61341 0.92564 0.0
H3805 H 0.61166 0.61192 0.90408 0.0
H3806 H 0.57535 0.59233 0.86865 0.0
H3807 H 0.55332 0.59454 0.89021 0.0
H3808 H 0.62616 0.58997 0.88253 0.0
H3809 H 0.58719 0.63599 0.84632 0.0
H3810 H 0.58104 0.62976 0.86724 0.0
H3811 H 0.57921 0.61514 0.85002 0.0
C3812 C 0.58672 0.60846 0.91339 0.0
C3813 C 0.56994 0.60454 0.90949 0.0
C3814 C 0.5991 0.6075 0.90104 0.0
C3815 C 0.59504 0.60245 0.88457 0.0
C3816 C 0.57866 0.59673 0.88112 0.0
H3817 H 0.68875 0.64438 0.84714 0.0
H3818 H 0.66664 0.62333 0.84215 0.0
C3819 C 0.56613 0.5979 0.89349 0.0
C3820 C 0.6075 0.6059 0.87109 0.0
H3821 H 0.61621 0.6379 0.84382 0.0
C3822 C 0.624 0.60004 0.87355 0.0
C3823 C 0.60454 0.61873 0.85904 0.0
C3824 C 0.58708 0.62535 0.85542 0.0
C3825 C 0.63782 0.60872 0.86677 0.0
C3826 C 0.63488 0.6232 0.85678 0.0
C3827 C 0.61836 0.627 0.85179 0.0
C3828 C 0.64748 0.63696 0.85597 0.0
C3829 C 0.65532 0.60363 0.87221 0.0
C3830 C 0.64374 0.65208 0.86437 0.0
C3831 C 0.65616 0.66415 0.86697 0.0
C3832 C 0.67267 0.66131 0.86136 0.0
C3833 C 0.67616 0.64678 0.8518 0.0
C3834 C 0.66358 0.63471 0.84902 0.0
H3835 H 0.65524 0.5925 0.88069 0.0
H3836 H 0.66299 0.60045 0.86097 0.0
H3837 H 0.66157 0.61421 0.87889 0.0
H3838 H 0.63141 0.65414 0.86986 0.0
H3839 H 0.653 0.67527 0.87423 0.0
H3840 H 0.64246 0.30185 0.14517 0.0
H3841 H 0.64297 0.32306 0.1228 0.0
H3842 H 0.62665 0.36075 0.15846 0.0
H3843 H 0.62655 0.33988 0.18072 0.0
H3844 H 0.61512 0.33618 0.11257 0.0
H3845 H 0.655 0.38961 0.12937 0.0
H3846 H 0.65803 0.36913 0.13886 0.0
H3847 H 0.64366 0.38422 0.14807 0.0
C3848 C 0.63964 0.31482 0.14834 0.0
C3849 C 0.63419 0.31918 0.16463 0.0
C3850 C 0.63995 0.32693 0.13554 0.0
C3851 C 0.63496 0.34356 0.1389 0.0
C3852 C 0.631 0.34816 0.15554 0.0
H3853 H 0.55611 0.39605 0.12093 0.0
H3854 H 0.57762 0.3745 0.11848 0.0
C3855 C 0.63072 0.33612 0.16829 0.0
C3856 C 0.63015 0.35514 0.12506 0.0
H3857 H 0.62574 0.39734 0.11923 0.0
C3858 C 0.61796 0.34952 0.11352 0.0
C3859 C 0.63422 0.37246 0.12559 0.0
C3860 C 0.64862 0.37909 0.13604 0.0
C3861 C 0.60785 0.36101 0.10472 0.0
C3862 C 0.60977 0.37841 0.10793 0.0
C3863 C 0.6238 0.38397 0.11718 0.0
C3864 C 0.59565 0.39038 0.10547 0.0
C3865 C 0.59437 0.35433 0.09313 0.0
C3866 C 0.59845 0.40654 0.09886 0.0
C3867 C 0.58616 0.41906 0.10053 0.0
C3868 C 0.57094 0.4156 0.10893 0.0
C3869 C 0.5677 0.39912 0.11441 0.0
C3870 C 0.57997 0.38668 0.1128 0.0
H3871 H 0.59913 0.34326 0.08601 0.0
H3872 H 0.58346 0.35 0.10072 0.0
H3873 H 0.59003 0.36405 0.08405 0.0
H3874 H 0.61049 0.40973 0.09328 0.0
H3875 H 0.58898 0.43166 0.09611 0.0
H3876 H 0.80773 0.3429 0.34602 0.0
H3877 H 0.82917 0.36473 0.34225 0.0
H3878 H 0.8662 0.33191 0.36483 0.0
H3879 H 0.84513 0.31011 0.36815 0.0
H3880 H 0.84213 0.37964 0.36774 0.0
H3881 H 0.89592 0.35542 0.33265 0.0
H3882 H 0.87536 0.34579 0.33082 0.0
H3883 H 0.89008 0.33889 0.34679 0.0
C3884 C 0.82061 0.34015 0.34958 0.0
C3885 C 0.82472 0.32489 0.35762 0.0
C3886 C 0.83285 0.35264 0.34739 0.0
C3887 C 0.84938 0.34999 0.3531 0.0
C3888 C 0.85371 0.33419 0.35985 0.0
H3889 H 0.89826 0.37626 0.42948 0.0
H3890 H 0.87792 0.37817 0.40684 0.0
C3891 C 0.84155 0.32174 0.36198 0.0
C3892 C 0.8611 0.36431 0.35564 0.0
H3893 H 0.90329 0.36962 0.36046 0.0
C3894 C 0.85549 0.37788 0.36553 0.0
C3895 C 0.87849 0.36275 0.3522 0.0
C3896 C 0.8852 0.35 0.33983 0.0
C3897 C 0.86696 0.38787 0.37449 0.0
C3898 C 0.88428 0.38379 0.37385 0.0
C3899 C 0.88995 0.37238 0.36156 0.0
C3900 C 0.89566 0.38744 0.38822 0.0
C3901 C 0.86029 0.40169 0.38568 0.0
C3902 C 0.91245 0.3923 0.38554 0.0
C3903 C 0.92427 0.39091 0.39855 0.0
C3904 C 0.91945 0.38453 0.41437 0.0
C3905 C 0.90238 0.38114 0.41742 0.0
C3906 C 0.89064 0.38247 0.40446 0.0
H3907 H 0.84998 0.40859 0.37919 0.0
H3908 H 0.85485 0.39607 0.39727 0.0
H3909 H 0.87029 0.41079 0.38927 0.0
H3910 H 0.91664 0.39608 0.37311 0.0
H3911 H 0.93734 0.39371 0.39585 0.0
H3912 H 0.84582 0.69159 0.63994 0.0
H3913 H 0.84353 0.66975 0.61829 0.0
H3914 H 0.85663 0.63208 0.65529 0.0
H3915 H 0.8583 0.65355 0.67682 0.0
H3916 H 0.86967 0.65458 0.6082 0.0
H3917 H 0.82751 0.60388 0.62698 0.0
H3918 H 0.82562 0.62467 0.6361 0.0
H3919 H 0.83911 0.60894 0.6456 0.0
C3920 C 0.8475 0.67854 0.64356 0.0
C3921 C 0.85254 0.67429 0.66001 0.0
C3922 C 0.84618 0.66606 0.63116 0.0
C3923 C 0.84982 0.64919 0.63508 0.0
C3924 C 0.85328 0.64486 0.6519 0.0
H3925 H 0.92689 0.59417 0.61983 0.0
H3926 H 0.90575 0.61588 0.61617 0.0
C3927 C 0.85449 0.65725 0.66425 0.0
C3928 C 0.85397 0.63685 0.62164 0.0
H3929 H 0.85685 0.59427 0.61791 0.0
C3930 C 0.86632 0.64144 0.60982 0.0
C3931 C 0.84922 0.61973 0.62293 0.0
C3932 C 0.83446 0.61415 0.63349 0.0
C3933 C 0.876 0.62916 0.60162 0.0
C3934 C 0.87355 0.61202 0.60579 0.0
C3935 C 0.85927 0.60744 0.61519 0.0
C3936 C 0.88737 0.59955 0.60421 0.0
C3937 C 0.88965 0.63476 0.58966 0.0
C3938 C 0.88424 0.58304 0.59868 0.0
C3939 C 0.89634 0.57043 0.60107 0.0
C3940 C 0.91168 0.57416 0.60914 0.0
C3941 C 0.9152 0.59089 0.6136 0.0
C3942 C 0.90314 0.60341 0.61128 0.0
H3943 H 0.88513 0.64544 0.58183 0.0
H3944 H 0.90064 0.63935 0.59698 0.0
H3945 H 0.89377 0.62438 0.58124 0.0
H3946 H 0.87213 0.57973 0.59334 0.0
H3947 H 0.89329 0.55763 0.59746 0.0
H3948 H 0.55161 0.39219 0.59384 0.0
H3949 H 0.57274 0.39327 0.61626 0.0
H3950 H 0.61077 0.37713 0.5809 0.0
H3951 H 0.58998 0.37647 0.55857 0.0
H3952 H 0.58618 0.36574 0.62685 0.0
H3953 H 0.63915 0.4061 0.60978 0.0
H3954 H 0.61869 0.40873 0.60013 0.0
H3955 H 0.63401 0.39442 0.59121 0.0
C3956 C 0.56463 0.38954 0.59073 0.0
C3957 C 0.56912 0.38397 0.57452 0.0
C3958 C 0.57669 0.39018 0.60357 0.0
C3959 C 0.5934 0.38538 0.60032 0.0
C3960 C 0.59811 0.38133 0.58374 0.0
H3961 H 0.64698 0.30752 0.61941 0.0
H3962 H 0.62502 0.32861 0.62179 0.0
C3963 C 0.58612 0.38074 0.57095 0.0
C3964 C 0.60499 0.38086 0.61426 0.0
H3965 H 0.64721 0.37708 0.62036 0.0
C3966 C 0.59948 0.36874 0.62593 0.0
C3967 C 0.62226 0.38514 0.61375 0.0
C3968 C 0.62876 0.39949 0.60314 0.0
C3969 C 0.61106 0.35891 0.63493 0.0
C3970 C 0.62845 0.36101 0.63179 0.0
C3971 C 0.63386 0.37499 0.62236 0.0
C3972 C 0.64061 0.3471 0.63452 0.0
C3973 C 0.6045 0.34551 0.64668 0.0
C3974 C 0.65672 0.35026 0.64108 0.0
C3975 C 0.66947 0.3382 0.63947 0.0
C3976 C 0.66629 0.32286 0.63116 0.0
C3977 C 0.64984 0.31922 0.62584 0.0
C3978 C 0.63717 0.33126 0.6274 0.0
H3979 H 0.59335 0.35024 0.6537 0.0
H3980 H 0.60032 0.33444 0.63923 0.0
H3981 H 0.61423 0.34141 0.65586 0.0
H3982 H 0.6597 0.36242 0.64653 0.0
H3983 H 0.68204 0.34133 0.64375 0.0
H3984 H 0.85007 0.30355 0.84774 0.0
H3985 H 0.85023 0.32439 0.87049 0.0
H3986 H 0.86594 0.36257 0.83509 0.0
H3987 H 0.86541 0.34208 0.81249 0.0
H3988 H 0.87836 0.33739 0.88037 0.0
H3989 H 0.8381 0.39101 0.86516 0.0
H3990 H 0.83483 0.37062 0.85553 0.0
H3991 H 0.84896 0.38581 0.84613 0.0
C3992 C 0.85291 0.31655 0.84473 0.0
C3993 C 0.85799 0.32116 0.82839 0.0
C3994 C 0.85298 0.32844 0.85775 0.0
C3995 C 0.85796 0.34511 0.85455 0.0
C3996 C 0.8616 0.34995 0.83791 0.0
H3997 H 0.93702 0.39693 0.86994 0.0
H3998 H 0.91569 0.3754 0.87365 0.0
C3999 C 0.86152 0.33813 0.82495 0.0
C4000 C 0.86305 0.35649 0.86846 0.0
H4001 H 0.86765 0.39862 0.87457 0.0
C4002 C 0.87552 0.35073 0.87963 0.0
C4003 C 0.85897 0.37381 0.86823 0.0
C4004 C 0.8443 0.38056 0.85822 0.0
C4005 C 0.88588 0.36213 0.88826 0.0
C4006 C 0.88393 0.37957 0.88523 0.0
C4007 C 0.86962 0.38523 0.87646 0.0
C4008 C 0.8982 0.39146 0.88719 0.0
C4009 C 0.89965 0.35533 0.89942 0.0
C4010 C 0.89569 0.40769 0.89374 0.0
C4011 C 0.90788 0.42019 0.89135 0.0
C4012 C 0.92268 0.41664 0.88228 0.0
C4013 C 0.92573 0.40007 0.87695 0.0
C4014 C 0.91357 0.38765 0.87928 0.0
H4015 H 0.89502 0.34431 0.90668 0.0
H4016 H 0.91028 0.3509 0.89149 0.0
H4017 H 0.90436 0.36501 0.90837 0.0
H4018 H 0.8839 0.41096 0.89978 0.0
H4019 H 0.90521 0.43286 0.89568 0.0
H4020 H 0.80515 0.64953 0.14879 0.0
H4021 H 0.82689 0.62775 0.15086 0.0
H4022 H 0.86335 0.66253 0.1304 0.0
H4023 H 0.84202 0.68426 0.12884 0.0
H4024 H 0.83958 0.61493 0.12422 0.0
H4025 H 0.89368 0.63709 0.16033 0.0
H4026 H 0.87314 0.64659 0.16286 0.0
H4027 H 0.8877 0.65434 0.14714 0.0
C4028 C 0.81798 0.65269 0.14539 0.0
C4029 C 0.82185 0.66851 0.1384 0.0
C4030 C 0.83039 0.64022 0.14659 0.0
C4031 C 0.84683 0.64345 0.1409 0.0
C4032 C 0.85094 0.65974 0.13532 0.0
H4033 H 0.89742 0.61755 0.06274 0.0
H4034 H 0.87656 0.617 0.08502 0.0
C4035 C 0.83862 0.67218 0.13421 0.0
C4036 C 0.85864 0.62945 0.13716 0.0
H4037 H 0.90082 0.62403 0.13206 0.0
C4038 C 0.85296 0.61649 0.12651 0.0
C4039 C 0.87607 0.6308 0.14057 0.0
C4040 C 0.88289 0.64288 0.15354 0.0
C4041 C 0.86435 0.60682 0.11711 0.0
C4042 C 0.88173 0.61058 0.11808 0.0
C4043 C 0.88746 0.62151 0.13079 0.0
C4044 C 0.89335 0.60671 0.10398 0.0
C4045 C 0.85756 0.59359 0.1053 0.0
C4046 C 0.90978 0.60092 0.10702 0.0
C4047 C 0.9219 0.60149 0.09423 0.0
C4048 C 0.91776 0.60799 0.07827 0.0
C4049 C 0.90101 0.61251 0.0749 0.0
C4050 C 0.88897 0.61199 0.08765 0.0
H4051 H 0.84686 0.58681 0.11125 0.0
H4052 H 0.85265 0.59975 0.09375 0.0
H4053 H 0.86737 0.58429 0.10169 0.0
H4054 H 0.91348 0.5969 0.11953 0.0
H4055 H 0.93472 0.59787 0.09718 0.0
H4056 H 0.62019 0.64985 0.30994 0.0
H4057 H 0.62214 0.62897 0.33212 0.0
H4058 H 0.64809 0.66465 0.36392 0.0
H4059 H 0.64551 0.68607 0.34177 0.0
H4060 H 0.64553 0.61358 0.35156 0.0
H4061 H 0.60636 0.65643 0.39125 0.0
H4062 H 0.6106 0.66153 0.36956 0.0
H4063 H 0.6271 0.66296 0.385 0.0
C4064 C 0.62661 0.65322 0.3215 0.0
C4065 C 0.63231 0.66972 0.32426 0.0
C4066 C 0.62781 0.64121 0.3342 0.0
C4067 C 0.63489 0.64536 0.34988 0.0
C4068 C 0.64217 0.66132 0.35209 0.0
H4069 H 0.5935 0.55494 0.39463 0.0
H4070 H 0.61558 0.57642 0.39707 0.0
C4071 C 0.64078 0.67349 0.33939 0.0
C4072 C 0.63218 0.63352 0.36407 0.0
H4073 H 0.60325 0.62764 0.39525 0.0
C4074 C 0.63674 0.61662 0.36157 0.0
C4075 C 0.62105 0.63764 0.37739 0.0
C4076 C 0.61591 0.65559 0.38105 0.0
C4077 C 0.62821 0.60357 0.36987 0.0
C4078 C 0.61525 0.60769 0.38144 0.0
C4079 C 0.61296 0.62459 0.38613 0.0
C4080 C 0.60113 0.59587 0.38456 0.0
C4081 C 0.63163 0.58564 0.36451 0.0
C4082 C 0.58523 0.60009 0.37804 0.0
C4083 C 0.57256 0.58803 0.37694 0.0
C4084 C 0.57559 0.57144 0.38219 0.0
C4085 C 0.59092 0.56759 0.39023 0.0
C4086 C 0.60359 0.57981 0.39154 0.0
H4087 H 0.64148 0.58482 0.3546 0.0
H4088 H 0.63596 0.5782 0.37551 0.0
H4089 H 0.61995 0.57975 0.35957 0.0
H4090 H 0.58296 0.61242 0.37263 0.0
H4091 H 0.56083 0.59146 0.37087 0.0
H4092 H 0.61967 0.88637 0.55598 0.0
H4093 H 0.61916 0.86843 0.58074 0.0
H4094 H 0.59371 0.90762 0.60867 0.0
H4095 H 0.59566 0.92617 0.58414 0.0
H4096 H 0.61987 0.90124 0.62356 0.0
H4097 H 0.59378 0.83875 0.6103 0.0
H4098 H 0.6085 0.84325 0.59387 0.0
H4099 H 0.58999 0.85631 0.59634 0.0
C4100 C 0.61344 0.89093 0.56724 0.0
C4101 C 0.60794 0.90768 0.56832 0.0
C4102 C 0.61294 0.88054 0.5814 0.0
C4103 C 0.60633 0.88655 0.5967 0.0
C4104 C 0.59898 0.90269 0.59708 0.0
H4105 H 0.64381 0.85013 0.69378 0.0
H4106 H 0.62208 0.85277 0.67206 0.0
C4107 C 0.60009 0.9133 0.5831 0.0
C4108 C 0.61087 0.87794 0.6127 0.0
H4109 H 0.61899 0.83903 0.62935 0.0
C4110 C 0.619 0.88769 0.62505 0.0
C4111 C 0.60988 0.86023 0.61488 0.0
C4112 C 0.59987 0.84914 0.60317 0.0
C4113 C 0.62736 0.88019 0.63858 0.0
C4114 C 0.62793 0.86245 0.63967 0.0
C4115 C 0.61876 0.85264 0.62822 0.0
C4116 C 0.63979 0.85446 0.65146 0.0
C4117 C 0.63666 0.89126 0.65097 0.0
C4118 C 0.6568 0.85358 0.64683 0.0
C4119 C 0.66923 0.8524 0.65918 0.0
C4120 C 0.66474 0.85192 0.67628 0.0
C4121 C 0.64763 0.85056 0.68068 0.0
C4122 C 0.63518 0.85196 0.66831 0.0
H4123 H 0.63351 0.90481 0.64937 0.0
H4124 H 0.6336 0.8875 0.66408 0.0
H4125 H 0.65044 0.8897 0.6492 0.0
H4126 H 0.66054 0.85559 0.63386 0.0
H4127 H 0.68232 0.85329 0.65543 0.0
loop_
_geom_bond_atom_site_label_1
_geom_bond_atom_site_label_2
_geom_bond_distance
_geom_bond_site_symmetry_2
_ccdc_geom_bond_type
C0 O1 1.306 . S
C0 O3 1.160 . S
O1 C0 1.306 . S
O1 Cd2 2.228 . S
Cd2 O1 2.228 . S
Cd2 O6 2.273 . S
Cd2 O10 2.277 . S
O3 C0 1.160 . S
O3 Cd4 2.203 . S
Cd4 O3 2.203 . S
Cd4 O6 2.411 . S
Cd4 O7 2.333 . S
Cd4 O8 2.352 . S
Cd4 O12 2.277 . S
Cd4 O13 2.356 . S
C5 O10 1.209 . S
C5 O12 1.226 . S
O6 Cd2 2.273 . S
O6 Cd4 2.411 . S
O6 C9 1.320 . S
O7 Cd4 2.333 . S
O7 C9 1.214 . S
O8 Cd4 2.352 . S
O8 C11 1.258 . S
C9 O6 1.320 . S
C9 O7 1.214 . S
O10 Cd2 2.277 . S
O10 C5 1.209 . S
C11 O8 1.258 . S
C11 O13 1.282 . S
O12 Cd4 2.277 . S
O12 C5 1.226 . S
O13 Cd4 2.356 . S
O13 C11 1.282 . S
C14 O15 1.306 1_455 S
C14 O17 1.160 . S
O15 C14 1.306 1_655 S
O15 Cd16 2.228 1_665 S
Cd16 O15 2.228 1_445 S
Cd16 O20 2.273 1_545 S
Cd16 O24 2.277 . S
O17 C14 1.160 . S
O17 Cd18 2.203 . S
Cd18 O17 2.203 . S
Cd18 O20 2.411 . S
Cd18 O21 2.333 . S
Cd18 O22 2.352 . S
Cd18 O26 2.277 . S
Cd18 O27 2.356 . S
C19 O24 1.215 . S
C19 O26 1.186 1_545 S
O20 Cd16 2.273 1_565 S
O20 Cd18 2.411 . S
O20 C23 1.320 . S
O21 Cd18 2.333 . S
O21 C23 1.214 . S
O22 Cd18 2.352 . S
O22 C25 1.258 . S
C23 O20 1.320 . S
C23 O21 1.214 . S
O24 Cd16 2.277 . S
O24 C19 1.215 . S
C25 O22 1.258 . S
C25 O27 1.282 . S
O26 Cd18 2.277 . S
O26 C19 1.186 1_565 S
O27 Cd18 2.356 . S
O27 C25 1.282 . S
C28 O29 1.306 . S
C28 O31 1.160 . S
O29 C28 1.306 . S
O29 Cd30 2.228 . S
Cd30 O29 2.228 . S
Cd30 O34 2.273 . S
Cd30 O38 2.277 . S
O31 C28 1.160 . S
O31 Cd32 2.203 . S
Cd32 O31 2.203 . S
Cd32 O34 2.411 . S
Cd32 O35 2.333 . S
Cd32 O36 2.352 . S
Cd32 O40 2.277 . S
Cd32 O41 2.356 . S
C33 O38 1.209 . S
C33 O40 1.226 . S
O34 Cd30 2.273 . S
O34 Cd32 2.411 . S
O34 C37 1.320 . S
O35 Cd32 2.333 . S
O35 C37 1.214 . S
O36 Cd32 2.352 . S
O36 C39 1.258 . S
C37 O34 1.320 . S
C37 O35 1.214 . S
O38 Cd30 2.277 . S
O38 C33 1.209 . S
C39 O36 1.258 . S
C39 O41 1.282 . S
O40 Cd32 2.277 . S
O40 C33 1.226 . S
O41 Cd32 2.356 . S
O41 C39 1.282 . S
C42 O43 1.306 . S
C42 O45 1.160 . S
O43 C42 1.306 . S
O43 Cd44 2.228 1_545 S
Cd44 O43 2.228 1_565 S
Cd44 O48 2.273 1_565 S
Cd44 O52 2.277 . S
O45 C42 1.160 . S
O45 Cd46 2.203 . S
Cd46 O45 2.203 . S
Cd46 O48 2.411 . S
Cd46 O49 2.333 . S
Cd46 O50 2.352 . S
Cd46 O54 2.277 . S
Cd46 O55 2.356 . S
C47 O52 1.215 . S
C47 O54 1.186 1_565 S
O48 Cd44 2.273 1_545 S
O48 Cd46 2.411 . S
O48 C51 1.320 . S
O49 Cd46 2.333 . S
O49 C51 1.214 . S
O50 Cd46 2.352 . S
O50 C53 1.258 . S
C51 O48 1.320 . S
C51 O49 1.214 . S
O52 Cd44 2.277 . S
O52 C47 1.215 . S
C53 O50 1.258 . S
C53 O55 1.282 . S
O54 Cd46 2.277 . S
O54 C47 1.186 1_545 S
O55 Cd46 2.356 . S
O55 C53 1.282 . S
C56 O57 1.306 . S
C56 O59 1.160 . S
O57 C56 1.306 . S
O57 Cd58 2.228 . S
Cd58 O57 2.228 . S
Cd58 O62 2.273 . S
Cd58 O66 2.277 . S
O59 C56 1.160 . S
O59 Cd60 2.203 . S
Cd60 O59 2.203 . S
Cd60 O62 2.411 . S
Cd60 O63 2.333 . S
Cd60 O64 2.352 . S
Cd60 O68 2.277 . S
Cd60 O69 2.356 . S
C61 O66 1.209 . S
C61 O68 1.226 . S
O62 Cd58 2.273 . S
O62 Cd60 2.411 . S
O62 C65 1.320 . S
O63 Cd60 2.333 . S
O63 C65 1.214 . S
O64 Cd60 2.352 . S
O64 C67 1.258 . S
C65 O62 1.320 . S
C65 O63 1.214 . S
O66 Cd58 2.277 . S
O66 C61 1.209 . S
C67 O64 1.258 . S
C67 O69 1.282 . S
O68 Cd60 2.277 . S
O68 C61 1.226 . S
O69 Cd60 2.356 . S
O69 C67 1.282 . S
C70 O71 1.306 . S
C70 O73 1.160 . S
O71 C70 1.306 . S
O71 Cd72 2.228 1_565 S
Cd72 O71 2.228 1_545 S
Cd72 O76 2.273 1_545 S
Cd72 O80 2.277 . S
O73 C70 1.160 . S
O73 Cd74 2.203 . S
Cd74 O73 2.203 . S
Cd74 O76 2.411 . S
Cd74 O77 2.333 . S
Cd74 O78 2.352 . S
Cd74 O82 2.277 . S
Cd74 O83 2.356 . S
C75 O80 1.215 . S
C75 O82 1.186 1_545 S
O76 Cd72 2.273 1_565 S
O76 Cd74 2.411 . S
O76 C79 1.320 . S
O77 Cd74 2.333 . S
O77 C79 1.214 . S
O78 Cd74 2.352 . S
O78 C81 1.258 . S
C79 O76 1.320 . S
C79 O77 1.214 . S
O80 Cd72 2.277 . S
O80 C75 1.215 . S
C81 O78 1.258 . S
C81 O83 1.282 . S
O82 Cd74 2.277 . S
O82 C75 1.186 1_565 S
O83 Cd74 2.356 . S
O83 C81 1.282 . S
C84 O85 1.306 . S
C84 O87 1.160 . S
O85 C84 1.306 . S
O85 Cd86 2.228 . S
Cd86 O85 2.228 . S
Cd86 O90 2.273 . S
Cd86 O94 2.277 . S
O87 C84 1.160 . S
O87 Cd88 2.203 . S
Cd88 O87 2.203 . S
Cd88 O90 2.411 . S
Cd88 O91 2.333 . S
Cd88 O92 2.352 . S
Cd88 O96 2.277 . S
Cd88 O97 2.356 . S
C89 O94 1.209 . S
C89 O96 1.226 . S
O90 Cd86 2.273 . S
O90 Cd88 2.411 . S
O90 C93 1.320 . S
O91 Cd88 2.333 . S
O91 C93 1.214 . S
O92 Cd88 2.352 . S
O92 C95 1.258 . S
C93 O90 1.320 . S
C93 O91 1.214 . S
O94 Cd86 2.277 . S
O94 C89 1.209 . S
C95 O92 1.258 . S
C95 O97 1.282 . S
O96 Cd88 2.277 . S
O96 C89 1.226 . S
O97 Cd88 2.356 . S
O97 C95 1.282 . S
C98 O99 1.306 1_455 S
C98 O101 1.160 . S
O99 C98 1.306 1_655 S
O99 Cd100 2.228 1_645 S
Cd100 O99 2.228 1_465 S
Cd100 O104 2.273 1_565 S
Cd100 O108 2.277 . S
O101 C98 1.160 . S
O101 Cd102 2.203 . S
Cd102 O101 2.203 . S
Cd102 O104 2.411 . S
Cd102 O105 2.333 . S
Cd102 O106 2.352 . S
Cd102 O110 2.277 . S
Cd102 O111 2.356 . S
C103 O108 1.215 . S
C103 O110 1.186 1_565 S
O104 Cd100 2.273 1_545 S
O104 Cd102 2.411 . S
O104 C107 1.320 . S
O105 Cd102 2.333 . S
O105 C107 1.214 . S
O106 Cd102 2.352 . S
O106 C109 1.258 . S
C107 O104 1.320 . S
C107 O105 1.214 . S
O108 Cd100 2.277 . S
O108 C103 1.215 . S
C109 O106 1.258 . S
C109 O111 1.282 . S
O110 Cd102 2.277 . S
O110 C103 1.186 1_545 S
O111 Cd102 2.356 . S
O111 C109 1.282 . S
C112 O113 1.306 . S
C112 O115 1.160 . S
O113 C112 1.306 . S
O113 Cd114 2.228 . S
Cd114 O113 2.228 . S
Cd114 O118 2.273 . S
Cd114 O122 2.277 . S
O115 C112 1.160 . S
O115 Cd116 2.203 . S
Cd116 O115 2.203 . S
Cd116 O118 2.411 . S
Cd116 O119 2.333 . S
Cd116 O120 2.352 . S
Cd116 O124 2.277 . S
Cd116 O125 2.356 . S
C117 O122 1.209 . S
C117 O124 1.226 . S
O118 Cd114 2.273 . S
O118 Cd116 2.411 . S
O118 C121 1.320 . S
O119 Cd116 2.333 . S
O119 C121 1.214 . S
O120 Cd116 2.352 . S
O120 C123 1.258 . S
C121 O118 1.320 . S
C121 O119 1.214 . S
O122 Cd114 2.277 . S
O122 C117 1.209 . S
C123 O120 1.258 . S
C123 O125 1.282 . S
O124 Cd116 2.277 . S
O124 C117 1.226 . S
O125 Cd116 2.356 . S
O125 C123 1.282 . S
C126 O127 1.306 . S
C126 O129 1.160 . S
O127 C126 1.306 . S
O127 Cd128 2.228 1_455 S
Cd128 O127 2.228 1_655 S
Cd128 O132 2.273 1_655 S
Cd128 O136 2.277 . S
O129 C126 1.160 . S
O129 Cd130 2.203 . S
Cd130 O129 2.203 . S
Cd130 O132 2.411 . S
Cd130 O133 2.333 . S
Cd130 O134 2.352 . S
Cd130 O138 2.277 . S
Cd130 O139 2.356 . S
C131 O136 1.215 . S
C131 O138 1.186 1_655 S
O132 Cd128 2.273 1_455 S
O132 Cd130 2.411 . S
O132 C135 1.320 . S
O133 Cd130 2.333 . S
O133 C135 1.214 . S
O134 Cd130 2.352 . S
O134 C137 1.258 . S
C135 O132 1.320 . S
C135 O133 1.214 . S
O136 Cd128 2.277 . S
O136 C131 1.215 . S
C137 O134 1.258 . S
C137 O139 1.282 . S
O138 Cd130 2.277 . S
O138 C131 1.186 1_455 S
O139 Cd130 2.356 . S
O139 C137 1.282 . S
C140 O141 1.306 . S
C140 O143 1.160 . S
O141 C140 1.306 . S
O141 Cd142 2.228 . S
Cd142 O141 2.228 . S
Cd142 O146 2.273 . S
Cd142 O150 2.277 . S
O143 C140 1.160 . S
O143 Cd144 2.203 . S
Cd144 O143 2.203 . S
Cd144 O146 2.411 . S
Cd144 O147 2.333 . S
Cd144 O148 2.352 . S
Cd144 O152 2.277 . S
Cd144 O153 2.356 . S
C145 O150 1.209 . S
C145 O152 1.226 . S
O146 Cd142 2.273 . S
O146 Cd144 2.411 . S
O146 C149 1.320 . S
O147 Cd144 2.333 . S
O147 C149 1.214 . S
O148 Cd144 2.352 . S
O148 C151 1.258 . S
C149 O146 1.320 . S
C149 O147 1.214 . S
O150 Cd142 2.277 . S
O150 C145 1.209 . S
C151 O148 1.258 . S
C151 O153 1.282 . S
O152 Cd144 2.277 . S
O152 C145 1.226 . S
O153 Cd144 2.356 . S
O153 C151 1.282 . S
C154 O155 1.306 1_556 S
C154 O157 1.160 . S
O155 C154 1.306 1_554 S
O155 Cd156 2.228 1_554 S
Cd156 O155 2.228 1_556 S
Cd156 O160 2.273 . S
Cd156 O164 2.277 . S
O157 C154 1.160 . S
O157 Cd158 2.203 . S
Cd158 O157 2.203 . S
Cd158 O160 2.411 . S
Cd158 O161 2.333 . S
Cd158 O162 2.352 . S
Cd158 O166 2.277 . S
Cd158 O167 2.356 . S
C159 O164 1.209 . S
C159 O166 1.226 . S
O160 Cd156 2.273 . S
O160 Cd158 2.411 . S
O160 C163 1.320 . S
O161 Cd158 2.333 . S
O161 C163 1.214 . S
O162 Cd158 2.352 . S
O162 C165 1.258 . S
C163 O160 1.320 . S
C163 O161 1.214 . S
O164 Cd156 2.277 . S
O164 C159 1.209 . S
C165 O162 1.258 . S
C165 O167 1.282 . S
O166 Cd158 2.277 . S
O166 C159 1.226 . S
O167 Cd158 2.356 . S
O167 C165 1.282 . S
C168 O169 1.306 . S
C168 O171 1.160 . S
O169 C168 1.306 . S
O169 Cd170 2.228 . S
Cd170 O169 2.228 . S
Cd170 O174 2.273 . S
Cd170 O178 2.277 . S
O171 C168 1.160 . S
O171 Cd172 2.203 . S
Cd172 O171 2.203 . S
Cd172 O174 2.411 . S
Cd172 O175 2.333 . S
Cd172 O176 2.352 . S
Cd172 O180 2.277 . S
Cd172 O181 2.356 . S
C173 O178 1.209 . S
C173 O180 1.226 . S
O174 Cd170 2.273 . S
O174 Cd172 2.411 . S
O174 C177 1.320 . S
O175 Cd172 2.333 . S
O175 C177 1.214 . S
O176 Cd172 2.352 . S
O176 C179 1.258 . S
C177 O174 1.320 . S
C177 O175 1.214 . S
O178 Cd170 2.277 . S
O178 C173 1.209 . S
C179 O176 1.258 . S
C179 O181 1.282 . S
O180 Cd172 2.277 . S
O180 C173 1.226 . S
O181 Cd172 2.356 . S
O181 C179 1.282 . S
C182 O183 1.306 . S
C182 O185 1.160 . S
O183 C182 1.306 . S
O183 Cd184 2.228 . S
Cd184 O183 2.228 . S
Cd184 O188 2.273 . S
Cd184 O192 2.277 . S
O185 C182 1.160 . S
O185 Cd186 2.203 . S
Cd186 O185 2.203 . S
Cd186 O188 2.411 . S
Cd186 O189 2.333 . S
Cd186 O190 2.352 . S
Cd186 O194 2.277 . S
Cd186 O195 2.356 . S
C187 O192 1.209 . S
C187 O194 1.226 . S
O188 Cd184 2.273 . S
O188 Cd186 2.411 . S
O188 C191 1.320 . S
O189 Cd186 2.333 . S
O189 C191 1.214 . S
O190 Cd186 2.352 . S
O190 C193 1.258 . S
C191 O188 1.320 . S
C191 O189 1.214 . S
O192 Cd184 2.277 . S
O192 C187 1.209 . S
C193 O190 1.258 . S
C193 O195 1.282 . S
O194 Cd186 2.277 . S
O194 C187 1.226 . S
O195 Cd186 2.356 . S
O195 C193 1.282 . S
C196 O197 1.306 . S
C196 O199 1.160 . S
O197 C196 1.306 . S
O197 Cd198 2.228 . S
Cd198 O197 2.228 . S
Cd198 O202 2.273 . S
Cd198 O206 2.277 . S
O199 C196 1.160 . S
O199 Cd200 2.203 . S
Cd200 O199 2.203 . S
Cd200 O202 2.411 . S
Cd200 O203 2.333 . S
Cd200 O204 2.352 . S
Cd200 O208 2.277 . S
Cd200 O209 2.356 . S
C201 O206 1.209 . S
C201 O208 1.226 . S
O202 Cd198 2.273 . S
O202 Cd200 2.411 . S
O202 C205 1.320 . S
O203 Cd200 2.333 . S
O203 C205 1.214 . S
O204 Cd200 2.352 . S
O204 C207 1.258 . S
C205 O202 1.320 . S
C205 O203 1.214 . S
O206 Cd198 2.277 . S
O206 C201 1.209 . S
C207 O204 1.258 . S
C207 O209 1.282 . S
O208 Cd200 2.277 . S
O208 C201 1.226 . S
O209 Cd200 2.356 . S
O209 C207 1.282 . S
C210 O211 1.306 1_554 S
C210 O213 1.160 . S
O211 C210 1.306 1_556 S
O211 Cd212 2.228 1_456 S
Cd212 O211 2.228 1_654 S
Cd212 O216 2.273 1_655 S
Cd212 O220 2.277 . S
O213 C210 1.160 . S
O213 Cd214 2.203 . S
Cd214 O213 2.203 . S
Cd214 O216 2.411 . S
Cd214 O217 2.333 . S
Cd214 O218 2.352 . S
Cd214 O222 2.277 . S
Cd214 O223 2.356 . S
C215 O220 1.215 . S
C215 O222 1.186 1_655 S
O216 Cd212 2.273 1_455 S
O216 Cd214 2.411 . S
O216 C219 1.320 . S
O217 Cd214 2.333 . S
O217 C219 1.214 . S
O218 Cd214 2.352 . S
O218 C221 1.258 . S
C219 O216 1.320 . S
C219 O217 1.214 . S
O220 Cd212 2.277 . S
O220 C215 1.215 . S
C221 O218 1.258 . S
C221 O223 1.282 . S
O222 Cd214 2.277 . S
O222 C215 1.186 1_455 S
O223 Cd214 2.356 . S
O223 C221 1.282 . S
C224 O225 1.306 . S
C224 O227 1.160 . S
O225 C224 1.306 . S
O225 Cd226 2.228 . S
Cd226 O225 2.228 . S
Cd226 O230 2.273 . S
Cd226 O234 2.277 . S
O227 C224 1.160 . S
O227 Cd228 2.203 . S
Cd228 O227 2.203 . S
Cd228 O230 2.411 . S
Cd228 O231 2.333 . S
Cd228 O232 2.352 . S
Cd228 O236 2.277 . S
Cd228 O237 2.356 . S
C229 O234 1.209 . S
C229 O236 1.226 . S
O230 Cd226 2.273 . S
O230 Cd228 2.411 . S
O230 C233 1.320 . S
O231 Cd228 2.333 . S
O231 C233 1.214 . S
O232 Cd228 2.352 . S
O232 C235 1.258 . S
C233 O230 1.320 . S
C233 O231 1.214 . S
O234 Cd226 2.277 . S
O234 C229 1.209 . S
C235 O232 1.258 . S
C235 O237 1.282 . S
O236 Cd228 2.277 . S
O236 C229 1.226 . S
O237 Cd228 2.356 . S
O237 C235 1.282 . S
C238 O239 1.306 . S
C238 O241 1.160 . S
O239 C238 1.306 . S
O239 Cd240 2.228 . S
Cd240 O239 2.228 . S
Cd240 O244 2.273 . S
Cd240 O248 2.277 . S
O241 C238 1.160 . S
O241 Cd242 2.203 . S
Cd242 O241 2.203 . S
Cd242 O244 2.411 . S
Cd242 O245 2.333 . S
Cd242 O246 2.352 . S
Cd242 O250 2.277 . S
Cd242 O251 2.356 . S
C243 O248 1.209 . S
C243 O250 1.226 . S
O244 Cd240 2.273 . S
O244 Cd242 2.411 . S
O244 C247 1.320 . S
O245 Cd242 2.333 . S
O245 C247 1.214 . S
O246 Cd242 2.352 . S
O246 C249 1.258 . S
C247 O244 1.320 . S
C247 O245 1.214 . S
O248 Cd240 2.277 . S
O248 C243 1.209 . S
C249 O246 1.258 . S
C249 O251 1.282 . S
O250 Cd242 2.277 . S
O250 C243 1.226 . S
O251 Cd242 2.356 . S
O251 C249 1.282 . S
C252 O253 1.306 . S
C252 O255 1.160 . S
O253 C252 1.306 . S
O253 Cd254 2.228 1_554 S
Cd254 O253 2.228 1_556 S
Cd254 O258 2.273 1_556 S
Cd254 O262 2.277 . S
O255 C252 1.160 . S
O255 Cd256 2.203 . S
Cd256 O255 2.203 . S
Cd256 O258 2.411 . S
Cd256 O259 2.333 . S
Cd256 O260 2.352 . S
Cd256 O264 2.277 . S
Cd256 O265 2.356 . S
C257 O262 1.215 . S
C257 O264 1.186 1_556 S
O258 Cd254 2.273 1_554 S
O258 Cd256 2.411 . S
O258 C261 1.320 . S
O259 Cd256 2.333 . S
O259 C261 1.214 . S
O260 Cd256 2.352 . S
O260 C263 1.258 . S
C261 O258 1.320 . S
C261 O259 1.214 . S
O262 Cd254 2.277 . S
O262 C257 1.215 . S
C263 O260 1.258 . S
C263 O265 1.282 . S
O264 Cd256 2.277 . S
O264 C257 1.186 1_554 S
O265 Cd256 2.356 . S
O265 C263 1.282 . S
C266 O267 1.306 . S
C266 O269 1.160 . S
O267 C266 1.306 . S
O267 Cd268 2.228 . S
Cd268 O267 2.228 . S
Cd268 O272 2.273 . S
Cd268 O276 2.277 . S
O269 C266 1.160 . S
O269 Cd270 2.203 . S
Cd270 O269 2.203 . S
Cd270 O272 2.411 . S
Cd270 O273 2.333 . S
Cd270 O274 2.352 . S
Cd270 O278 2.277 . S
Cd270 O279 2.356 . S
C271 O276 1.209 . S
C271 O278 1.226 . S
O272 Cd268 2.273 . S
O272 Cd270 2.411 . S
O272 C275 1.320 . S
O273 Cd270 2.333 . S
O273 C275 1.214 . S
O274 Cd270 2.352 . S
O274 C277 1.258 . S
C275 O272 1.320 . S
C275 O273 1.214 . S
O276 Cd268 2.277 . S
O276 C271 1.209 . S
C277 O274 1.258 . S
C277 O279 1.282 . S
O278 Cd270 2.277 . S
O278 C271 1.226 . S
O279 Cd270 2.356 . S
O279 C277 1.282 . S
C280 O281 1.306 1_545 S
C280 O283 1.160 . S
O281 C280 1.306 1_565 S
O281 Cd282 2.228 1_564 S
Cd282 O281 2.228 1_546 S
Cd282 O286 2.273 1_556 S
Cd282 O290 2.277 . S
O283 C280 1.160 . S
O283 Cd284 2.203 . S
Cd284 O283 2.203 . S
Cd284 O286 2.411 . S
Cd284 O287 2.333 . S
Cd284 O288 2.352 . S
Cd284 O292 2.277 . S
Cd284 O293 2.356 . S
C285 O290 1.215 . S
C285 O292 1.186 1_556 S
O286 Cd282 2.273 1_554 S
O286 Cd284 2.411 . S
O286 C289 1.320 . S
O287 Cd284 2.333 . S
O287 C289 1.214 . S
O288 Cd284 2.352 . S
O288 C291 1.258 . S
C289 O286 1.320 . S
C289 O287 1.214 . S
O290 Cd282 2.277 . S
O290 C285 1.215 . S
C291 O288 1.258 . S
C291 O293 1.282 . S
O292 Cd284 2.277 . S
O292 C285 1.186 1_554 S
O293 Cd284 2.356 . S
O293 C291 1.282 . S
C294 O295 1.306 . S
C294 O297 1.160 . S
O295 C294 1.306 . S
O295 Cd296 2.228 . S
Cd296 O295 2.228 . S
Cd296 O300 2.273 . S
Cd296 O304 2.277 . S
O297 C294 1.160 . S
O297 Cd298 2.203 . S
Cd298 O297 2.203 . S
Cd298 O300 2.411 . S
Cd298 O301 2.333 . S
Cd298 O302 2.352 . S
Cd298 O306 2.277 . S
Cd298 O307 2.356 . S
C299 O304 1.209 . S
C299 O306 1.226 . S
O300 Cd296 2.273 . S
O300 Cd298 2.411 . S
O300 C303 1.320 . S
O301 Cd298 2.333 . S
O301 C303 1.214 . S
O302 Cd298 2.352 . S
O302 C305 1.258 . S
C303 O300 1.320 . S
C303 O301 1.214 . S
O304 Cd296 2.277 . S
O304 C299 1.209 . S
C305 O302 1.258 . S
C305 O307 1.282 . S
O306 Cd298 2.277 . S
O306 C299 1.226 . S
O307 Cd298 2.356 . S
O307 C305 1.282 . S
C308 O309 1.306 . S
C308 O311 1.160 . S
O309 C308 1.306 . S
O309 Cd310 2.228 . S
Cd310 O309 2.228 . S
Cd310 O314 2.273 . S
Cd310 O318 2.277 . S
O311 C308 1.160 . S
O311 Cd312 2.203 . S
Cd312 O311 2.203 . S
Cd312 O314 2.411 . S
Cd312 O315 2.333 . S
Cd312 O316 2.352 . S
Cd312 O320 2.277 . S
Cd312 O321 2.356 . S
C313 O318 1.209 . S
C313 O320 1.226 . S
O314 Cd310 2.273 . S
O314 Cd312 2.411 . S
O314 C317 1.320 . S
O315 Cd312 2.333 . S
O315 C317 1.214 . S
O316 Cd312 2.352 . S
O316 C319 1.258 . S
C317 O314 1.320 . S
C317 O315 1.214 . S
O318 Cd310 2.277 . S
O318 C313 1.209 . S
C319 O316 1.258 . S
C319 O321 1.282 . S
O320 Cd312 2.277 . S
O320 C313 1.226 . S
O321 Cd312 2.356 . S
O321 C319 1.282 . S
C322 O323 1.306 . S
C322 O325 1.160 . S
O323 C322 1.306 . S
O323 Cd324 2.228 1_556 S
Cd324 O323 2.228 1_554 S
Cd324 O328 2.273 1_554 S
Cd324 O332 2.277 . S
O325 C322 1.160 . S
O325 Cd326 2.203 . S
Cd326 O325 2.203 . S
Cd326 O328 2.411 . S
Cd326 O329 2.333 . S
Cd326 O330 2.352 . S
Cd326 O334 2.277 . S
Cd326 O335 2.356 . S
C327 O332 1.215 . S
C327 O334 1.186 1_554 S
O328 Cd324 2.273 1_556 S
O328 Cd326 2.411 . S
O328 C331 1.320 . S
O329 Cd326 2.333 . S
O329 C331 1.214 . S
O330 Cd326 2.352 . S
O330 C333 1.258 . S
C331 O328 1.320 . S
C331 O329 1.214 . S
O332 Cd324 2.277 . S
O332 C327 1.215 . S
C333 O330 1.258 . S
C333 O335 1.282 . S
O334 Cd326 2.277 . S
O334 C327 1.186 1_556 S
O335 Cd326 2.356 . S
O335 C333 1.282 . S
C336 O337 1.306 . S
C336 O339 1.160 . S
O337 C336 1.306 . S
O337 Cd338 2.228 . S
Cd338 O337 2.228 . S
Cd338 O342 2.273 . S
Cd338 O346 2.277 . S
O339 C336 1.160 . S
O339 Cd340 2.203 . S
Cd340 O339 2.203 . S
Cd340 O342 2.411 . S
Cd340 O343 2.333 . S
Cd340 O344 2.352 . S
Cd340 O348 2.277 . S
Cd340 O349 2.356 . S
C341 O346 1.209 . S
C341 O348 1.226 . S
O342 Cd338 2.273 . S
O342 Cd340 2.411 . S
O342 C345 1.320 . S
O343 Cd340 2.333 . S
O343 C345 1.214 . S
O344 Cd340 2.352 . S
O344 C347 1.258 . S
C345 O342 1.320 . S
C345 O343 1.214 . S
O346 Cd338 2.277 . S
O346 C341 1.209 . S
C347 O344 1.258 . S
C347 O349 1.282 . S
O348 Cd340 2.277 . S
O348 C341 1.226 . S
O349 Cd340 2.356 . S
O349 C347 1.282 . S
C350 O351 1.306 . S
C350 O353 1.160 . S
O351 C350 1.306 . S
O351 Cd352 2.228 . S
Cd352 O351 2.228 . S
Cd352 O356 2.273 . S
Cd352 O360 2.277 . S
O353 C350 1.160 . S
O353 Cd354 2.203 . S
Cd354 O353 2.203 . S
Cd354 O356 2.411 . S
Cd354 O357 2.333 . S
Cd354 O358 2.352 . S
Cd354 O362 2.277 . S
Cd354 O363 2.356 . S
C355 O360 1.209 . S
C355 O362 1.226 . S
O356 Cd352 2.273 . S
O356 Cd354 2.411 . S
O356 C359 1.320 . S
O357 Cd354 2.333 . S
O357 C359 1.214 . S
O358 Cd354 2.352 . S
O358 C361 1.258 . S
C359 O356 1.320 . S
C359 O357 1.214 . S
O360 Cd352 2.277 . S
O360 C355 1.209 . S
C361 O358 1.258 . S
C361 O363 1.282 . S
O362 Cd354 2.277 . S
O362 C355 1.226 . S
O363 Cd354 2.356 . S
O363 C361 1.282 . S
C364 O365 1.306 . S
C364 O367 1.160 . S
O365 C364 1.306 . S
O365 Cd366 2.228 . S
Cd366 O365 2.228 . S
Cd366 O370 2.273 . S
Cd366 O374 2.277 . S
O367 C364 1.160 . S
O367 Cd368 2.203 . S
Cd368 O367 2.203 . S
Cd368 O370 2.411 . S
Cd368 O371 2.333 . S
Cd368 O372 2.352 . S
Cd368 O376 2.277 . S
Cd368 O377 2.356 . S
C369 O374 1.209 . S
C369 O376 1.226 . S
O370 Cd366 2.273 . S
O370 Cd368 2.411 . S
O370 C373 1.320 . S
O371 Cd368 2.333 . S
O371 C373 1.214 . S
O372 Cd368 2.352 . S
O372 C375 1.258 . S
C373 O370 1.320 . S
C373 O371 1.214 . S
O374 Cd366 2.277 . S
O374 C369 1.209 . S
C375 O372 1.258 . S
C375 O377 1.282 . S
O376 Cd368 2.277 . S
O376 C369 1.226 . S
O377 Cd368 2.356 . S
O377 C375 1.282 . S
C378 O379 1.306 1_655 S
C378 O381 1.160 . S
O379 C378 1.306 1_455 S
O379 Cd380 2.228 1_455 S
Cd380 O379 2.228 1_655 S
Cd380 O384 2.273 . S
Cd380 O388 2.277 . S
O381 C378 1.160 . S
O381 Cd382 2.203 . S
Cd382 O381 2.203 . S
Cd382 O384 2.411 . S
Cd382 O385 2.333 . S
Cd382 O386 2.352 . S
Cd382 O390 2.277 . S
Cd382 O391 2.356 . S
C383 O388 1.209 . S
C383 O390 1.226 . S
O384 Cd380 2.273 . S
O384 Cd382 2.411 . S
O384 C387 1.320 . S
O385 Cd382 2.333 . S
O385 C387 1.214 . S
O386 Cd382 2.352 . S
O386 C389 1.258 . S
C387 O384 1.320 . S
C387 O385 1.214 . S
O388 Cd380 2.277 . S
O388 C383 1.209 . S
C389 O386 1.258 . S
C389 O391 1.282 . S
O390 Cd382 2.277 . S
O390 C383 1.226 . S
O391 Cd382 2.356 . S
O391 C389 1.282 . S
C392 O393 1.306 . S
C392 O395 1.160 . S
O393 C392 1.306 . S
O393 Cd394 2.228 . S
Cd394 O393 2.228 . S
Cd394 O398 2.273 . S
Cd394 O402 2.277 . S
O395 C392 1.160 . S
O395 Cd396 2.203 . S
Cd396 O395 2.203 . S
Cd396 O398 2.411 . S
Cd396 O399 2.333 . S
Cd396 O400 2.352 . S
Cd396 O404 2.277 . S
Cd396 O405 2.356 . S
C397 O402 1.209 . S
C397 O404 1.226 . S
O398 Cd394 2.273 . S
O398 Cd396 2.411 . S
O398 C401 1.320 . S
O399 Cd396 2.333 . S
O399 C401 1.214 . S
O400 Cd396 2.352 . S
O400 C403 1.258 . S
C401 O398 1.320 . S
C401 O399 1.214 . S
O402 Cd394 2.277 . S
O402 C397 1.209 . S
C403 O400 1.258 . S
C403 O405 1.282 . S
O404 Cd396 2.277 . S
O404 C397 1.226 . S
O405 Cd396 2.356 . S
O405 C403 1.282 . S
C406 O407 1.306 1_655 S
C406 O409 1.160 . S
O407 C406 1.306 1_455 S
O407 Cd408 2.228 1_455 S
Cd408 O407 2.228 1_655 S
Cd408 O412 2.273 . S
Cd408 O416 2.277 . S
O409 C406 1.160 . S
O409 Cd410 2.203 . S
Cd410 O409 2.203 . S
Cd410 O412 2.411 . S
Cd410 O413 2.333 . S
Cd410 O414 2.352 . S
Cd410 O418 2.277 . S
Cd410 O419 2.356 . S
C411 O416 1.209 . S
C411 O418 1.226 . S
O412 Cd408 2.273 . S
O412 Cd410 2.411 . S
O412 C415 1.320 . S
O413 Cd410 2.333 . S
O413 C415 1.214 . S
O414 Cd410 2.352 . S
O414 C417 1.258 . S
C415 O412 1.320 . S
C415 O413 1.214 . S
O416 Cd408 2.277 . S
O416 C411 1.209 . S
C417 O414 1.258 . S
C417 O419 1.282 . S
O418 Cd410 2.277 . S
O418 C411 1.226 . S
O419 Cd410 2.356 . S
O419 C417 1.282 . S
C420 O421 1.306 . S
C420 O423 1.160 . S
O421 C420 1.306 . S
O421 Cd422 2.228 . S
Cd422 O421 2.228 . S
Cd422 O426 2.273 . S
Cd422 O430 2.277 . S
O423 C420 1.160 . S
O423 Cd424 2.203 . S
Cd424 O423 2.203 . S
Cd424 O426 2.411 . S
Cd424 O427 2.333 . S
Cd424 O428 2.352 . S
Cd424 O432 2.277 . S
Cd424 O433 2.356 . S
C425 O430 1.209 . S
C425 O432 1.226 . S
O426 Cd422 2.273 . S
O426 Cd424 2.411 . S
O426 C429 1.320 . S
O427 Cd424 2.333 . S
O427 C429 1.214 . S
O428 Cd424 2.352 . S
O428 C431 1.258 . S
C429 O426 1.320 . S
C429 O427 1.214 . S
O430 Cd422 2.277 . S
O430 C425 1.209 . S
C431 O428 1.258 . S
C431 O433 1.282 . S
O432 Cd424 2.277 . S
O432 C425 1.226 . S
O433 Cd424 2.356 . S
O433 C431 1.282 . S
C434 O435 1.306 . S
C434 O437 1.160 . S
O435 C434 1.306 . S
O435 Cd436 2.228 . S
Cd436 O435 2.228 . S
Cd436 O440 2.273 . S
Cd436 O444 2.277 . S
O437 C434 1.160 . S
O437 Cd438 2.203 . S
Cd438 O437 2.203 . S
Cd438 O440 2.411 . S
Cd438 O441 2.333 . S
Cd438 O442 2.352 . S
Cd438 O446 2.277 . S
Cd438 O447 2.356 . S
C439 O444 1.209 . S
C439 O446 1.226 . S
O440 Cd436 2.273 . S
O440 Cd438 2.411 . S
O440 C443 1.320 . S
O441 Cd438 2.333 . S
O441 C443 1.214 . S
O442 Cd438 2.352 . S
O442 C445 1.258 . S
C443 O440 1.320 . S
C443 O441 1.214 . S
O444 Cd436 2.277 . S
O444 C439 1.209 . S
C445 O442 1.258 . S
C445 O447 1.282 . S
O446 Cd438 2.277 . S
O446 C439 1.226 . S
O447 Cd438 2.356 . S
O447 C445 1.282 . S
C448 O449 1.306 . S
C448 O451 1.160 . S
O449 C448 1.306 . S
O449 Cd450 2.228 . S
Cd450 O449 2.228 . S
Cd450 O454 2.273 . S
Cd450 O458 2.277 . S
O451 C448 1.160 . S
O451 Cd452 2.203 . S
Cd452 O451 2.203 . S
Cd452 O454 2.411 . S
Cd452 O455 2.333 . S
Cd452 O456 2.352 . S
Cd452 O460 2.277 . S
Cd452 O461 2.356 . S
C453 O458 1.209 . S
C453 O460 1.226 . S
O454 Cd450 2.273 . S
O454 Cd452 2.411 . S
O454 C457 1.320 . S
O455 Cd452 2.333 . S
O455 C457 1.214 . S
O456 Cd452 2.352 . S
O456 C459 1.258 . S
C457 O454 1.320 . S
C457 O455 1.214 . S
O458 Cd450 2.277 . S
O458 C453 1.209 . S
C459 O456 1.258 . S
C459 O461 1.282 . S
O460 Cd452 2.277 . S
O460 C453 1.226 . S
O461 Cd452 2.356 . S
O461 C459 1.282 . S
C462 O463 1.306 1_556 S
C462 O465 1.160 . S
O463 C462 1.306 1_554 S
O463 Cd464 2.228 1_554 S
Cd464 O463 2.228 1_556 S
Cd464 O468 2.273 . S
Cd464 O472 2.277 . S
O465 C462 1.160 . S
O465 Cd466 2.203 . S
Cd466 O465 2.203 . S
Cd466 O468 2.411 . S
Cd466 O469 2.333 . S
Cd466 O470 2.352 . S
Cd466 O474 2.277 . S
Cd466 O475 2.356 . S
C467 O472 1.209 . S
C467 O474 1.226 . S
O468 Cd464 2.273 . S
O468 Cd466 2.411 . S
O468 C471 1.320 . S
O469 Cd466 2.333 . S
O469 C471 1.214 . S
O470 Cd466 2.352 . S
O470 C473 1.258 . S
C471 O468 1.320 . S
C471 O469 1.214 . S
O472 Cd464 2.277 . S
O472 C467 1.209 . S
C473 O470 1.258 . S
C473 O475 1.282 . S
O474 Cd466 2.277 . S
O474 C467 1.226 . S
O475 Cd466 2.356 . S
O475 C473 1.282 . S
C476 O477 1.306 . S
C476 O479 1.160 . S
O477 C476 1.306 . S
O477 Cd478 2.228 . S
Cd478 O477 2.228 . S
Cd478 O482 2.273 . S
Cd478 O486 2.277 . S
O479 C476 1.160 . S
O479 Cd480 2.203 . S
Cd480 O479 2.203 . S
Cd480 O482 2.411 . S
Cd480 O483 2.333 . S
Cd480 O484 2.352 . S
Cd480 O488 2.277 . S
Cd480 O489 2.356 . S
C481 O486 1.209 . S
C481 O488 1.226 . S
O482 Cd478 2.273 . S
O482 Cd480 2.411 . S
O482 C485 1.320 . S
O483 Cd480 2.333 . S
O483 C485 1.214 . S
O484 Cd480 2.352 . S
O484 C487 1.258 . S
C485 O482 1.320 . S
C485 O483 1.214 . S
O486 Cd478 2.277 . S
O486 C481 1.209 . S
C487 O484 1.258 . S
C487 O489 1.282 . S
O488 Cd480 2.277 . S
O488 C481 1.226 . S
O489 Cd480 2.356 . S
O489 C487 1.282 . S
C490 O491 1.306 . S
C490 O493 1.160 . S
O491 C490 1.306 . S
O491 Cd492 2.228 1_655 S
Cd492 O491 2.228 1_455 S
Cd492 O496 2.273 1_455 S
Cd492 O500 2.277 . S
O493 C490 1.160 . S
O493 Cd494 2.203 . S
Cd494 O493 2.203 . S
Cd494 O496 2.411 . S
Cd494 O497 2.333 . S
Cd494 O498 2.352 . S
Cd494 O502 2.277 . S
Cd494 O503 2.356 . S
C495 O500 1.215 . S
C495 O502 1.186 1_455 S
O496 Cd492 2.273 1_655 S
O496 Cd494 2.411 . S
O496 C499 1.320 . S
O497 Cd494 2.333 . S
O497 C499 1.214 . S
O498 Cd494 2.352 . S
O498 C501 1.258 . S
C499 O496 1.320 . S
C499 O497 1.214 . S
O500 Cd492 2.277 . S
O500 C495 1.215 . S
C501 O498 1.258 . S
C501 O503 1.282 . S
O502 Cd494 2.277 . S
O502 C495 1.186 1_655 S
O503 Cd494 2.356 . S
O503 C501 1.282 . S
C504 O505 1.306 . S
C504 O507 1.160 . S
O505 C504 1.306 . S
O505 Cd506 2.228 . S
Cd506 O505 2.228 . S
Cd506 O510 2.273 . S
Cd506 O514 2.277 . S
O507 C504 1.160 . S
O507 Cd508 2.203 . S
Cd508 O507 2.203 . S
Cd508 O510 2.411 . S
Cd508 O511 2.333 . S
Cd508 O512 2.352 . S
Cd508 O516 2.277 . S
Cd508 O517 2.356 . S
C509 O514 1.209 . S
C509 O516 1.226 . S
O510 Cd506 2.273 . S
O510 Cd508 2.411 . S
O510 C513 1.320 . S
O511 Cd508 2.333 . S
O511 C513 1.214 . S
O512 Cd508 2.352 . S
O512 C515 1.258 . S
C513 O510 1.320 . S
C513 O511 1.214 . S
O514 Cd506 2.277 . S
O514 C509 1.209 . S
C515 O512 1.258 . S
C515 O517 1.282 . S
O516 Cd508 2.277 . S
O516 C509 1.226 . S
O517 Cd508 2.356 . S
O517 C515 1.282 . S
C518 O519 1.306 1_554 S
C518 O521 1.160 . S
O519 C518 1.306 1_556 S
O519 Cd520 2.228 1_656 S
Cd520 O519 2.228 1_454 S
Cd520 O524 2.273 1_455 S
Cd520 O528 2.277 . S
O521 C518 1.160 . S
O521 Cd522 2.203 . S
Cd522 O521 2.203 . S
Cd522 O524 2.411 . S
Cd522 O525 2.333 . S
Cd522 O526 2.352 . S
Cd522 O530 2.277 . S
Cd522 O531 2.356 . S
C523 O528 1.215 . S
C523 O530 1.186 1_455 S
O524 Cd520 2.273 1_655 S
O524 Cd522 2.411 . S
O524 C527 1.320 . S
O525 Cd522 2.333 . S
O525 C527 1.214 . S
O526 Cd522 2.352 . S
O526 C529 1.258 . S
C527 O524 1.320 . S
C527 O525 1.214 . S
O528 Cd520 2.277 . S
O528 C523 1.215 . S
C529 O526 1.258 . S
C529 O531 1.282 . S
O530 Cd522 2.277 . S
O530 C523 1.186 1_655 S
O531 Cd522 2.356 . S
O531 C529 1.282 . S
C532 O533 1.306 . S
C532 O535 1.160 . S
O533 C532 1.306 . S
O533 Cd534 2.228 . S
Cd534 O533 2.228 . S
Cd534 O538 2.273 . S
Cd534 O542 2.277 . S
O535 C532 1.160 . S
O535 Cd536 2.203 . S
Cd536 O535 2.203 . S
Cd536 O538 2.411 . S
Cd536 O539 2.333 . S
Cd536 O540 2.352 . S
Cd536 O544 2.277 . S
Cd536 O545 2.356 . S
C537 O542 1.209 . S
C537 O544 1.226 . S
O538 Cd534 2.273 . S
O538 Cd536 2.411 . S
O538 C541 1.320 . S
O539 Cd536 2.333 . S
O539 C541 1.214 . S
O540 Cd536 2.352 . S
O540 C543 1.258 . S
C541 O538 1.320 . S
C541 O539 1.214 . S
O542 Cd534 2.277 . S
O542 C537 1.209 . S
C543 O540 1.258 . S
C543 O545 1.282 . S
O544 Cd536 2.277 . S
O544 C537 1.226 . S
O545 Cd536 2.356 . S
O545 C543 1.282 . S
C546 O547 1.306 . S
C546 O549 1.160 . S
O547 C546 1.306 . S
O547 Cd548 2.228 . S
Cd548 O547 2.228 . S
Cd548 O552 2.273 . S
Cd548 O556 2.277 . S
O549 C546 1.160 . S
O549 Cd550 2.203 . S
Cd550 O549 2.203 . S
Cd550 O552 2.411 . S
Cd550 O553 2.333 . S
Cd550 O554 2.352 . S
Cd550 O558 2.277 . S
Cd550 O559 2.356 . S
C551 O556 1.209 . S
C551 O558 1.226 . S
O552 Cd548 2.273 . S
O552 Cd550 2.411 . S
O552 C555 1.320 . S
O553 Cd550 2.333 . S
O553 C555 1.214 . S
O554 Cd550 2.352 . S
O554 C557 1.258 . S
C555 O552 1.320 . S
C555 O553 1.214 . S
O556 Cd548 2.277 . S
O556 C551 1.209 . S
C557 O554 1.258 . S
C557 O559 1.282 . S
O558 Cd550 2.277 . S
O558 C551 1.226 . S
O559 Cd550 2.356 . S
O559 C557 1.282 . S
C560 O561 1.306 . S
C560 O563 1.160 . S
O561 C560 1.306 . S
O561 Cd562 2.228 . S
Cd562 O561 2.228 . S
Cd562 O566 2.273 . S
Cd562 O570 2.277 . S
O563 C560 1.160 . S
O563 Cd564 2.203 . S
Cd564 O563 2.203 . S
Cd564 O566 2.411 . S
Cd564 O567 2.333 . S
Cd564 O568 2.352 . S
Cd564 O572 2.277 . S
Cd564 O573 2.356 . S
C565 O570 1.209 . S
C565 O572 1.226 . S
O566 Cd562 2.273 . S
O566 Cd564 2.411 . S
O566 C569 1.320 . S
O567 Cd564 2.333 . S
O567 C569 1.214 . S
O568 Cd564 2.352 . S
O568 C571 1.258 . S
C569 O566 1.320 . S
C569 O567 1.214 . S
O570 Cd562 2.277 . S
O570 C565 1.209 . S
C571 O568 1.258 . S
C571 O573 1.282 . S
O572 Cd564 2.277 . S
O572 C565 1.226 . S
O573 Cd564 2.356 . S
O573 C571 1.282 . S
C574 O575 1.306 . S
C574 O577 1.160 . S
O575 C574 1.306 . S
O575 Cd576 2.228 . S
Cd576 O575 2.228 . S
Cd576 O580 2.273 . S
Cd576 O584 2.277 . S
O577 C574 1.160 . S
O577 Cd578 2.203 . S
Cd578 O577 2.203 . S
Cd578 O580 2.411 . S
Cd578 O581 2.333 . S
Cd578 O582 2.352 . S
Cd578 O586 2.277 . S
Cd578 O587 2.356 . S
C579 O584 1.209 . S
C579 O586 1.226 . S
O580 Cd576 2.273 . S
O580 Cd578 2.411 . S
O580 C583 1.320 . S
O581 Cd578 2.333 . S
O581 C583 1.214 . S
O582 Cd578 2.352 . S
O582 C585 1.258 . S
C583 O580 1.320 . S
C583 O581 1.214 . S
O584 Cd576 2.277 . S
O584 C579 1.209 . S
C585 O582 1.258 . S
C585 O587 1.282 . S
O586 Cd578 2.277 . S
O586 C579 1.226 . S
O587 Cd578 2.356 . S
O587 C585 1.282 . S
C588 O589 1.306 1_565 S
C588 O591 1.160 . S
O589 C588 1.306 1_545 S
O589 Cd590 2.228 1_545 S
Cd590 O589 2.228 1_565 S
Cd590 O594 2.273 . S
Cd590 O598 2.277 . S
O591 C588 1.160 . S
O591 Cd592 2.203 . S
Cd592 O591 2.203 . S
Cd592 O594 2.411 . S
Cd592 O595 2.333 . S
Cd592 O596 2.352 . S
Cd592 O600 2.277 . S
Cd592 O601 2.356 . S
C593 O598 1.209 . S
C593 O600 1.226 . S
O594 Cd590 2.273 . S
O594 Cd592 2.411 . S
O594 C597 1.320 . S
O595 Cd592 2.333 . S
O595 C597 1.214 . S
O596 Cd592 2.352 . S
O596 C599 1.258 . S
C597 O594 1.320 . S
C597 O595 1.214 . S
O598 Cd590 2.277 . S
O598 C593 1.209 . S
C599 O596 1.258 . S
C599 O601 1.282 . S
O600 Cd592 2.277 . S
O600 C593 1.226 . S
O601 Cd592 2.356 . S
O601 C599 1.282 . S
C602 O603 1.306 . S
C602 O605 1.160 . S
O603 C602 1.306 . S
O603 Cd604 2.228 . S
Cd604 O603 2.228 . S
Cd604 O608 2.273 . S
Cd604 O612 2.277 . S
O605 C602 1.160 . S
O605 Cd606 2.203 . S
Cd606 O605 2.203 . S
Cd606 O608 2.411 . S
Cd606 O609 2.333 . S
Cd606 O610 2.352 . S
Cd606 O614 2.277 . S
Cd606 O615 2.356 . S
C607 O612 1.209 . S
C607 O614 1.226 . S
O608 Cd604 2.273 . S
O608 Cd606 2.411 . S
O608 C611 1.320 . S
O609 Cd606 2.333 . S
O609 C611 1.214 . S
O610 Cd606 2.352 . S
O610 C613 1.258 . S
C611 O608 1.320 . S
C611 O609 1.214 . S
O612 Cd604 2.277 . S
O612 C607 1.209 . S
C613 O610 1.258 . S
C613 O615 1.282 . S
O614 Cd606 2.277 . S
O614 C607 1.226 . S
O615 Cd606 2.356 . S
O615 C613 1.282 . S
C616 O617 1.306 . S
C616 O619 1.160 . S
O617 C616 1.306 . S
O617 Cd618 2.228 . S
Cd618 O617 2.228 . S
Cd618 O622 2.273 . S
Cd618 O626 2.277 . S
O619 C616 1.160 . S
O619 Cd620 2.203 . S
Cd620 O619 2.203 . S
Cd620 O622 2.411 . S
Cd620 O623 2.333 . S
Cd620 O624 2.352 . S
Cd620 O628 2.277 . S
Cd620 O629 2.356 . S
C621 O626 1.209 . S
C621 O628 1.226 . S
O622 Cd618 2.273 . S
O622 Cd620 2.411 . S
O622 C625 1.320 . S
O623 Cd620 2.333 . S
O623 C625 1.214 . S
O624 Cd620 2.352 . S
O624 C627 1.258 . S
C625 O622 1.320 . S
C625 O623 1.214 . S
O626 Cd618 2.277 . S
O626 C621 1.209 . S
C627 O624 1.258 . S
C627 O629 1.282 . S
O628 Cd620 2.277 . S
O628 C621 1.226 . S
O629 Cd620 2.356 . S
O629 C627 1.282 . S
C630 O631 1.306 . S
C630 O633 1.160 . S
O631 C630 1.306 . S
O631 Cd632 2.228 . S
Cd632 O631 2.228 . S
Cd632 O636 2.273 . S
Cd632 O640 2.277 . S
O633 C630 1.160 . S
O633 Cd634 2.203 . S
Cd634 O633 2.203 . S
Cd634 O636 2.411 . S
Cd634 O637 2.333 . S
Cd634 O638 2.352 . S
Cd634 O642 2.277 . S
Cd634 O643 2.356 . S
C635 O640 1.209 . S
C635 O642 1.226 . S
O636 Cd632 2.273 . S
O636 Cd634 2.411 . S
O636 C639 1.320 . S
O637 Cd634 2.333 . S
O637 C639 1.214 . S
O638 Cd634 2.352 . S
O638 C641 1.258 . S
C639 O636 1.320 . S
C639 O637 1.214 . S
O640 Cd632 2.277 . S
O640 C635 1.209 . S
C641 O638 1.258 . S
C641 O643 1.282 . S
O642 Cd634 2.277 . S
O642 C635 1.226 . S
O643 Cd634 2.356 . S
O643 C641 1.282 . S
C644 O645 1.306 1_545 S
C644 O647 1.160 . S
O645 C644 1.306 1_565 S
O645 Cd646 2.228 1_566 S
Cd646 O645 2.228 1_544 S
Cd646 O650 2.273 1_554 S
Cd646 O654 2.277 . S
O647 C644 1.160 . S
O647 Cd648 2.203 . S
Cd648 O647 2.203 . S
Cd648 O650 2.411 . S
Cd648 O651 2.333 . S
Cd648 O652 2.352 . S
Cd648 O656 2.277 . S
Cd648 O657 2.356 . S
C649 O654 1.215 . S
C649 O656 1.186 1_554 S
O650 Cd646 2.273 1_556 S
O650 Cd648 2.411 . S
O650 C653 1.320 . S
O651 Cd648 2.333 . S
O651 C653 1.214 . S
O652 Cd648 2.352 . S
O652 C655 1.258 . S
C653 O650 1.320 . S
C653 O651 1.214 . S
O654 Cd646 2.277 . S
O654 C649 1.215 . S
C655 O652 1.258 . S
C655 O657 1.282 . S
O656 Cd648 2.277 . S
O656 C649 1.186 1_556 S
O657 Cd648 2.356 . S
O657 C655 1.282 . S
C658 O659 1.306 1_565 S
C658 O661 1.160 . S
O659 C658 1.306 1_545 S
O659 Cd660 2.228 1_545 S
Cd660 O659 2.228 1_565 S
Cd660 O664 2.273 . S
Cd660 O668 2.277 . S
O661 C658 1.160 . S
O661 Cd662 2.203 . S
Cd662 O661 2.203 . S
Cd662 O664 2.411 . S
Cd662 O665 2.333 . S
Cd662 O666 2.352 . S
Cd662 O670 2.277 . S
Cd662 O671 2.356 . S
C663 O668 1.209 . S
C663 O670 1.226 . S
O664 Cd660 2.273 . S
O664 Cd662 2.411 . S
O664 C667 1.320 . S
O665 Cd662 2.333 . S
O665 C667 1.214 . S
O666 Cd662 2.352 . S
O666 C669 1.258 . S
C667 O664 1.320 . S
C667 O665 1.214 . S
O668 Cd660 2.277 . S
O668 C663 1.209 . S
C669 O666 1.258 . S
C669 O671 1.282 . S
O670 Cd662 2.277 . S
O670 C663 1.226 . S
O671 Cd662 2.356 . S
O671 C669 1.282 . S
H672 C680 0.929 . S
H673 C682 0.930 . S
H674 C684 0.930 . S
H675 C687 0.929 . S
H676 C690 0.930 . S
H677 C692 0.960 . S
H678 C692 0.960 . S
H679 C692 0.960 . S
C680 H672 0.929 . S
C680 C681 1.377 . S
C680 C682 1.384 . S
C681 C680 1.377 . S
C681 C687 1.390 . S
C682 H673 0.930 . S
C682 C680 1.384 . S
C682 C683 1.372 . S
C683 C682 1.372 . S
C683 C684 1.400 . S
C683 C688 1.490 . S
C684 H674 0.930 . S
C684 C683 1.400 . S
C684 C687 1.386 . S
H685 C701 0.930 . S
H686 C702 0.931 . S
C687 H675 0.929 . S
C687 C681 1.390 . S
C687 C684 1.386 . S
C688 C683 1.490 . S
C688 C690 1.395 . S
C688 C691 1.403 . S
H689 C695 0.930 . S
C690 H676 0.930 . S
C690 C688 1.395 . S
C690 C693 1.403 . S
C691 C688 1.403 . S
C691 C692 1.524 . S
C691 C695 1.400 . S
C692 H677 0.960 . S
C692 H678 0.960 . S
C692 H679 0.960 . S
C692 C691 1.524 . S
C693 C690 1.403 . S
C693 C694 1.392 . S
C693 C697 1.495 . S
C694 C693 1.392 . S
C694 C695 1.385 . S
C694 C696 1.478 . S
C695 H689 0.930 . S
C695 C691 1.400 . S
C695 C694 1.385 . S
C696 C694 1.478 . S
C696 C698 1.381 . S
C696 C702 1.383 . S
C697 C693 1.495 . S
C697 H703 0.959 . S
C697 H704 0.961 . S
C697 H705 0.960 . S
C698 C696 1.381 . S
C698 C699 1.394 . S
C698 H706 0.930 . S
C699 C698 1.394 . S
C699 C700 1.383 . S
C699 H707 0.929 . S
C700 C699 1.383 . S
C700 C701 1.377 . S
C701 H685 0.930 . S
C701 C700 1.377 . S
C701 C702 1.379 . S
C702 H686 0.931 . S
C702 C696 1.383 . S
C702 C701 1.379 . S
H703 C697 0.959 . S
H704 C697 0.961 . S
H705 C697 0.960 . S
H706 C698 0.930 . S
H707 C699 0.929 . S
H708 C716 0.915 1_545 S
H709 C718 0.930 . S
H710 C720 0.930 . S
H711 C723 0.929 . S
H712 C726 0.930 . S
H713 C728 0.960 . S
H714 C728 0.960 . S
H715 C728 0.960 . S
C716 H708 0.915 1_565 S
C716 C717 1.398 . S
C716 C718 1.378 1_565 S
C717 C716 1.398 . S
C717 C723 1.390 . S
C718 H709 0.930 . S
C718 C716 1.378 1_545 S
C718 C719 1.372 1_545 S
C719 C718 1.372 1_565 S
C719 C720 1.400 . S
C719 C724 1.490 . S
C720 H710 0.930 . S
C720 C719 1.400 . S
C720 C723 1.386 . S
H721 C737 0.919 1_565 S
H722 C738 0.931 1_565 S
C723 H711 0.929 . S
C723 C717 1.390 . S
C723 C720 1.386 . S
C724 C719 1.490 . S
C724 C726 1.395 1_565 S
C724 C727 1.403 . S
H725 C731 0.930 . S
C726 H712 0.930 . S
C726 C724 1.395 1_545 S
C726 C729 1.403 . S
C727 C724 1.403 . S
C727 C728 1.524 . S
C727 C731 1.400 . S
C728 H713 0.960 . S
C728 H714 0.960 . S
C728 H715 0.960 . S
C728 C727 1.524 . S
C729 C726 1.403 . S
C729 C730 1.392 . S
C729 C733 1.495 . S
C730 C729 1.392 . S
C730 C731 1.385 1_545 S
C730 C732 1.478 . S
C731 H725 0.930 . S
C731 C727 1.400 . S
C731 C730 1.385 1_565 S
C732 C730 1.478 . S
C732 C734 1.381 . S
C732 C738 1.383 . S
C733 C729 1.495 . S
C733 H739 0.959 . S
C733 H740 0.961 . S
C733 H741 0.960 . S
C734 C732 1.381 . S
C734 C735 1.394 . S
C734 H742 0.930 . S
C735 C734 1.394 . S
C735 C736 1.383 . S
C735 H743 0.929 . S
C736 C735 1.383 . S
C736 C737 1.377 . S
C737 H721 0.919 1_545 S
C737 C736 1.377 . S
C737 C738 1.379 . S
C738 H722 0.931 1_545 S
C738 C732 1.383 . S
C738 C737 1.379 . S
H739 C733 0.959 . S
H740 C733 0.961 . S
H741 C733 0.960 . S
H742 C734 0.930 . S
H743 C735 0.929 . S
H744 C752 0.929 . S
H745 C754 0.930 . S
H746 C756 0.930 . S
H747 C759 0.929 . S
H748 C762 0.930 . S
H749 C764 0.960 . S
H750 C764 0.960 . S
H751 C764 0.960 . S
C752 H744 0.929 . S
C752 C753 1.377 . S
C752 C754 1.384 . S
C753 C752 1.377 . S
C753 C759 1.390 . S
C754 H745 0.930 . S
C754 C752 1.384 . S
C754 C755 1.372 . S
C755 C754 1.372 . S
C755 C756 1.400 . S
C755 C760 1.490 . S
C756 H746 0.930 . S
C756 C755 1.400 . S
C756 C759 1.386 . S
H757 C773 0.930 . S
H758 C774 0.931 . S
C759 H747 0.929 . S
C759 C753 1.390 . S
C759 C756 1.386 . S
C760 C755 1.490 . S
C760 C762 1.395 . S
C760 C763 1.403 . S
H761 C767 0.930 . S
C762 H748 0.930 . S
C762 C760 1.395 . S
C762 C765 1.403 1_556 S
C763 C760 1.403 . S
C763 C764 1.524 . S
C763 C767 1.400 1_556 S
C764 H749 0.960 . S
C764 H750 0.960 . S
C764 H751 0.960 . S
C764 C763 1.524 . S
C765 C762 1.403 1_554 S
C765 C766 1.392 . S
C765 C769 1.495 . S
C766 C765 1.392 . S
C766 C767 1.385 . S
C766 C768 1.478 . S
C767 H761 0.930 . S
C767 C763 1.400 1_554 S
C767 C766 1.385 . S
C768 C766 1.478 . S
C768 C770 1.381 . S
C768 C774 1.383 . S
C769 C765 1.495 . S
C769 H775 0.959 . S
C769 H776 0.961 . S
C769 H777 0.960 . S
C770 C768 1.381 . S
C770 C771 1.394 . S
C770 H778 0.930 . S
C771 C770 1.394 . S
C771 C772 1.383 . S
C771 H779 0.929 . S
C772 C771 1.383 . S
C772 C773 1.377 . S
C773 H757 0.930 . S
C773 C772 1.377 . S
C773 C774 1.379 . S
C774 H758 0.931 . S
C774 C768 1.383 . S
C774 C773 1.379 . S
H775 C769 0.959 . S
H776 C769 0.961 . S
H777 C769 0.960 . S
H778 C770 0.930 . S
H779 C771 0.929 . S
H780 C788 0.929 . S
H781 C790 0.930 . S
H782 C792 0.930 . S
H783 C795 0.907 1_545 S
H784 C798 0.930 . S
H785 C800 0.960 . S
H786 C800 0.960 . S
H787 C800 0.960 . S
C788 H780 0.929 . S
C788 C789 1.377 . S
C788 C790 1.384 . S
C789 C788 1.377 . S
C789 C795 1.424 . S
C790 H781 0.930 . S
C790 C788 1.384 . S
C790 C791 1.372 . S
C791 C790 1.372 . S
C791 C792 1.400 1_565 S
C791 C796 1.490 . S
C792 H782 0.930 . S
C792 C791 1.400 1_545 S
C792 C795 1.379 1_545 S
H793 C809 0.930 . S
H794 C810 0.931 . S
C795 H783 0.907 1_565 S
C795 C789 1.424 . S
C795 C792 1.379 1_565 S
C796 C791 1.490 . S
C796 C798 1.395 . S
C796 C799 1.403 1_565 S
H797 C803 0.930 . S
C798 H784 0.930 . S
C798 C796 1.395 . S
C798 C801 1.403 . S
C799 C796 1.403 1_545 S
C799 C800 1.524 . S
C799 C803 1.400 . S
C800 H785 0.960 . S
C800 H786 0.960 . S
C800 H787 0.960 . S
C800 C799 1.524 . S
C801 C798 1.403 . S
C801 C802 1.456 . S
C801 C805 1.495 . S
C802 C801 1.456 . S
C802 C803 1.328 1_565 S
C802 C804 1.470 1_565 S
C803 H797 0.930 . S
C803 C799 1.400 . S
C803 C802 1.328 1_545 S
C804 C802 1.470 1_545 S
C804 C806 1.381 1_545 S
C804 C810 1.383 . S
C805 C801 1.495 . S
C805 H811 0.959 . S
C805 H812 0.961 . S
C805 H813 0.960 . S
C806 C804 1.381 1_565 S
C806 C807 1.383 1_565 S
C806 H814 0.930 . S
C807 C806 1.383 1_545 S
C807 C808 1.412 . S
C807 H815 0.917 1_545 S
C808 C807 1.412 . S
C808 C809 1.377 . S
C809 H793 0.930 . S
C809 C808 1.377 . S
C809 C810 1.379 . S
C810 H794 0.931 . S
C810 C804 1.383 . S
C810 C809 1.379 . S
H811 C805 0.959 . S
H812 C805 0.961 . S
H813 C805 0.960 . S
H814 C806 0.930 . S
H815 C807 0.917 1_565 S
H816 C824 0.929 . S
H817 C826 0.930 . S
H818 C828 0.930 . S
H819 C831 0.929 . S
H820 C834 0.930 . S
H821 C836 0.960 . S
H822 C836 0.960 . S
H823 C836 0.960 . S
C824 H816 0.929 . S
C824 C825 1.377 . S
C824 C826 1.384 . S
C825 C824 1.377 . S
C825 C831 1.390 . S
C826 H817 0.930 . S
C826 C824 1.384 . S
C826 C827 1.372 . S
C827 C826 1.372 . S
C827 C828 1.400 . S
C827 C832 1.490 . S
C828 H818 0.930 . S
C828 C827 1.400 . S
C828 C831 1.386 . S
H829 C845 0.930 . S
H830 C846 0.931 . S
C831 H819 0.929 . S
C831 C825 1.390 . S
C831 C828 1.386 . S
C832 C827 1.490 . S
C832 C834 1.395 . S
C832 C835 1.403 . S
H833 C839 0.930 . S
C834 H820 0.930 . S
C834 C832 1.395 . S
C834 C837 1.403 . S
C835 C832 1.403 . S
C835 C836 1.524 . S
C835 C839 1.400 . S
C836 H821 0.960 . S
C836 H822 0.960 . S
C836 H823 0.960 . S
C836 C835 1.524 . S
C837 C834 1.403 . S
C837 C838 1.392 . S
C837 C841 1.495 . S
C838 C837 1.392 . S
C838 C839 1.385 . S
C838 C840 1.478 . S
C839 H833 0.930 . S
C839 C835 1.400 . S
C839 C838 1.385 . S
C840 C838 1.478 . S
C840 C842 1.381 . S
C840 C846 1.383 . S
C841 C837 1.495 . S
C841 H847 0.959 . S
C841 H848 0.961 . S
C841 H849 0.960 . S
C842 C840 1.381 . S
C842 C843 1.394 . S
C842 H850 0.930 . S
C843 C842 1.394 . S
C843 C844 1.383 . S
C843 H851 0.929 . S
C844 C843 1.383 . S
C844 C845 1.377 . S
C845 H829 0.930 . S
C845 C844 1.377 . S
C845 C846 1.379 . S
C846 H830 0.931 . S
C846 C840 1.383 . S
C846 C845 1.379 . S
H847 C841 0.959 . S
H848 C841 0.961 . S
H849 C841 0.960 . S
H850 C842 0.930 . S
H851 C843 0.929 . S
H852 C860 0.929 . S
H853 C862 0.930 . S
H854 C864 0.930 . S
H855 C867 0.941 . S
H856 C870 0.930 . S
H857 C872 0.960 . S
H858 C872 0.960 . S
H859 C872 0.960 . S
C860 H852 0.929 . S
C860 C861 1.377 . S
C860 C862 1.384 . S
C861 C860 1.377 . S
C861 C867 1.375 1_655 S
C862 H853 0.930 . S
C862 C860 1.384 . S
C862 C863 1.372 . S
C863 C862 1.372 . S
C863 C864 1.400 1_655 S
C863 C868 1.490 . S
C864 H854 0.930 . S
C864 C863 1.400 1_455 S
C864 C867 1.389 . S
H865 C881 0.930 . S
H866 C882 0.931 . S
C867 H855 0.941 . S
C867 C861 1.375 1_455 S
C867 C864 1.389 . S
C868 C863 1.490 . S
C868 C870 1.395 . S
C868 C871 1.403 1_655 S
H869 C875 0.930 . S
C870 H856 0.930 . S
C870 C868 1.395 . S
C870 C873 1.403 . S
C871 C868 1.403 1_455 S
C871 C872 1.524 . S
C871 C875 1.400 . S
C872 H857 0.960 . S
C872 H858 0.960 . S
C872 H859 0.960 . S
C872 C871 1.524 . S
C873 C870 1.403 . S
C873 C874 1.392 . S
C873 C877 1.495 . S
C874 C873 1.392 . S
C874 C875 1.385 1_655 S
C874 C876 1.478 1_655 S
C875 H869 0.930 . S
C875 C871 1.400 . S
C875 C874 1.385 1_455 S
C876 C874 1.478 1_455 S
C876 C878 1.381 1_455 S
C876 C882 1.383 . S
C877 C873 1.495 . S
C877 H883 0.959 . S
C877 H884 0.961 . S
C877 H885 0.960 . S
C878 C876 1.381 1_655 S
C878 C879 1.402 . S
C878 H886 0.930 . S
C879 C878 1.402 . S
C879 C880 1.364 1_655 S
C879 H887 0.942 . S
C880 C879 1.364 1_455 S
C880 C881 1.377 . S
C881 H865 0.930 . S
C881 C880 1.377 . S
C881 C882 1.379 . S
C882 H866 0.931 . S
C882 C876 1.383 . S
C882 C881 1.379 . S
H883 C877 0.959 . S
H884 C877 0.961 . S
H885 C877 0.960 . S
H886 C878 0.930 . S
H887 C879 0.942 . S
H888 C896 0.929 . S
H889 C898 0.930 . S
H890 C900 0.930 . S
H891 C903 0.929 . S
H892 C906 0.930 . S
H893 C908 0.960 . S
H894 C908 0.960 . S
H895 C908 0.960 . S
C896 H888 0.929 . S
C896 C897 1.377 . S
C896 C898 1.384 . S
C897 C896 1.377 . S
C897 C903 1.390 . S
C898 H889 0.930 . S
C898 C896 1.384 . S
C898 C899 1.372 . S
C899 C898 1.372 . S
C899 C900 1.400 . S
C899 C904 1.490 . S
C900 H890 0.930 . S
C900 C899 1.400 . S
C900 C903 1.386 . S
H901 C917 0.930 . S
H902 C918 0.931 . S
C903 H891 0.929 . S
C903 C897 1.390 . S
C903 C900 1.386 . S
C904 C899 1.490 . S
C904 C906 1.395 . S
C904 C907 1.403 . S
H905 C911 0.930 . S
C906 H892 0.930 . S
C906 C904 1.395 . S
C906 C909 1.403 1_455 S
C907 C904 1.403 . S
C907 C908 1.524 . S
C907 C911 1.400 1_455 S
C908 H893 0.960 . S
C908 H894 0.960 . S
C908 H895 0.960 . S
C908 C907 1.524 . S
C909 C906 1.403 1_655 S
C909 C910 1.392 . S
C909 C913 1.495 . S
C910 C909 1.392 . S
C910 C911 1.385 . S
C910 C912 1.478 . S
C911 H905 0.930 . S
C911 C907 1.400 1_655 S
C911 C910 1.385 . S
C912 C910 1.478 . S
C912 C914 1.381 . S
C912 C918 1.383 . S
C913 C909 1.495 . S
C913 H919 0.959 . S
C913 H920 0.961 . S
C913 H921 0.960 . S
C914 C912 1.381 . S
C914 C915 1.394 . S
C914 H922 0.930 . S
C915 C914 1.394 . S
C915 C916 1.383 . S
C915 H923 0.929 . S
C916 C915 1.383 . S
C916 C917 1.377 . S
C917 H901 0.930 . S
C917 C916 1.377 . S
C917 C918 1.379 . S
C918 H902 0.931 . S
C918 C912 1.383 . S
C918 C917 1.379 . S
H919 C913 0.959 . S
H920 C913 0.961 . S
H921 C913 0.960 . S
H922 C914 0.930 . S
H923 C915 0.929 . S
H924 C932 0.929 . S
H925 C934 0.930 . S
H926 C936 0.930 . S
H927 C939 0.929 . S
H928 C942 0.930 . S
H929 C944 0.960 . S
H930 C944 0.960 . S
H931 C944 0.960 . S
C932 H924 0.929 . S
C932 C933 1.377 . S
C932 C934 1.384 . S
C933 C932 1.377 . S
C933 C939 1.390 . S
C934 H925 0.930 . S
C934 C932 1.384 . S
C934 C935 1.372 . S
C935 C934 1.372 . S
C935 C936 1.400 . S
C935 C940 1.490 . S
C936 H926 0.930 . S
C936 C935 1.400 . S
C936 C939 1.386 . S
H937 C953 0.930 . S
H938 C954 0.931 . S
C939 H927 0.929 . S
C939 C933 1.390 . S
C939 C936 1.386 . S
C940 C935 1.490 . S
C940 C942 1.395 . S
C940 C943 1.403 . S
H941 C947 0.930 . S
C942 H928 0.930 . S
C942 C940 1.395 . S
C942 C945 1.403 . S
C943 C940 1.403 . S
C943 C944 1.524 . S
C943 C947 1.400 . S
C944 H929 0.960 . S
C944 H930 0.960 . S
C944 H931 0.960 . S
C944 C943 1.524 . S
C945 C942 1.403 . S
C945 C946 1.392 . S
C945 C949 1.495 1_556 S
C946 C945 1.392 . S
C946 C947 1.385 . S
C946 C948 1.478 . S
C947 H941 0.930 . S
C947 C943 1.400 . S
C947 C946 1.385 . S
C948 C946 1.478 . S
C948 C950 1.381 . S
C948 C954 1.383 . S
C949 C945 1.495 1_554 S
C949 H955 0.959 . S
C949 H956 0.961 . S
C949 H957 0.960 . S
C950 C948 1.381 . S
C950 C951 1.394 . S
C950 H958 0.930 . S
C951 C950 1.394 . S
C951 C952 1.383 . S
C951 H959 0.929 . S
C952 C951 1.383 . S
C952 C953 1.377 . S
C953 H937 0.930 . S
C953 C952 1.377 . S
C953 C954 1.379 . S
C954 H938 0.931 . S
C954 C948 1.383 . S
C954 C953 1.379 . S
H955 C949 0.959 . S
H956 C949 0.961 . S
H957 C949 0.960 . S
H958 C950 0.930 . S
H959 C951 0.929 . S
H960 C968 0.929 . S
H961 C970 0.930 . S
H962 C972 0.930 . S
H963 C975 0.929 . S
H964 C978 0.930 . S
H965 C980 0.960 . S
H966 C980 0.960 . S
H967 C980 0.960 . S
C968 H960 0.929 . S
C968 C969 1.377 . S
C968 C970 1.384 . S
C969 C968 1.377 . S
C969 C975 1.390 . S
C970 H961 0.930 . S
C970 C968 1.384 . S
C970 C971 1.372 . S
C971 C970 1.372 . S
C971 C972 1.400 . S
C971 C976 1.490 . S
C972 H962 0.930 . S
C972 C971 1.400 . S
C972 C975 1.386 . S
H973 C989 0.930 . S
H974 C990 0.931 . S
C975 H963 0.929 . S
C975 C969 1.390 . S
C975 C972 1.386 . S
C976 C971 1.490 . S
C976 C978 1.395 . S
C976 C979 1.403 . S
H977 C983 0.930 . S
C978 H964 0.930 . S
C978 C976 1.395 . S
C978 C981 1.403 . S
C979 C976 1.403 . S
C979 C980 1.524 . S
C979 C983 1.400 . S
C980 H965 0.960 . S
C980 H966 0.960 . S
C980 H967 0.960 . S
C980 C979 1.524 . S
C981 C978 1.403 . S
C981 C982 1.392 . S
C981 C985 1.495 . S
C982 C981 1.392 . S
C982 C983 1.385 . S
C982 C984 1.478 . S
C983 H977 0.930 . S
C983 C979 1.400 . S
C983 C982 1.385 . S
C984 C982 1.478 . S
C984 C986 1.381 . S
C984 C990 1.383 . S
C985 C981 1.495 . S
C985 H991 0.959 . S
C985 H992 0.961 . S
C985 H993 0.960 . S
C986 C984 1.381 . S
C986 C987 1.394 . S
C986 H994 0.930 . S
C987 C986 1.394 . S
C987 C988 1.383 . S
C987 H995 0.929 . S
C988 C987 1.383 . S
C988 C989 1.377 . S
C989 H973 0.930 . S
C989 C988 1.377 . S
C989 C990 1.379 . S
C990 H974 0.931 . S
C990 C984 1.383 . S
C990 C989 1.379 . S
H991 C985 0.959 . S
H992 C985 0.961 . S
H993 C985 0.960 . S
H994 C986 0.930 . S
H995 C987 0.929 . S
H996 C1004 0.929 . S
H997 C1006 0.930 . S
H998 C1008 0.930 . S
H999 C1011 0.929 . S
H1000 C1014 0.930 . S
H1001 C1016 0.960 . S
H1002 C1016 0.960 . S
H1003 C1016 0.960 . S
C1004 H996 0.929 . S
C1004 C1005 1.377 . S
C1004 C1006 1.384 . S
C1005 C1004 1.377 . S
C1005 C1011 1.390 . S
C1006 H997 0.930 . S
C1006 C1004 1.384 . S
C1006 C1007 1.372 . S
C1007 C1006 1.372 . S
C1007 C1008 1.400 . S
C1007 C1012 1.490 . S
C1008 H998 0.930 . S
C1008 C1007 1.400 . S
C1008 C1011 1.386 . S
H1009 C1025 0.930 . S
H1010 C1026 0.931 . S
C1011 H999 0.929 . S
C1011 C1005 1.390 . S
C1011 C1008 1.386 . S
C1012 C1007 1.490 . S
C1012 C1014 1.395 . S
C1012 C1015 1.403 . S
H1013 C1019 0.930 . S
C1014 H1000 0.930 . S
C1014 C1012 1.395 . S
C1014 C1017 1.403 . S
C1015 C1012 1.403 . S
C1015 C1016 1.524 . S
C1015 C1019 1.400 . S
C1016 H1001 0.960 . S
C1016 H1002 0.960 . S
C1016 H1003 0.960 . S
C1016 C1015 1.524 . S
C1017 C1014 1.403 . S
C1017 C1018 1.392 . S
C1017 C1021 1.495 . S
C1018 C1017 1.392 . S
C1018 C1019 1.385 . S
C1018 C1020 1.478 . S
C1019 H1013 0.930 . S
C1019 C1015 1.400 . S
C1019 C1018 1.385 . S
C1020 C1018 1.478 . S
C1020 C1022 1.381 . S
C1020 C1026 1.383 . S
C1021 C1017 1.495 . S
C1021 H1027 0.959 . S
C1021 H1028 0.961 . S
C1021 H1029 0.960 . S
C1022 C1020 1.381 . S
C1022 C1023 1.394 . S
C1022 H1030 0.930 . S
C1023 C1022 1.394 . S
C1023 C1024 1.383 . S
C1023 H1031 0.929 . S
C1024 C1023 1.383 . S
C1024 C1025 1.377 . S
C1025 H1009 0.930 . S
C1025 C1024 1.377 . S
C1025 C1026 1.379 . S
C1026 H1010 0.931 . S
C1026 C1020 1.383 . S
C1026 C1025 1.379 . S
H1027 C1021 0.959 . S
H1028 C1021 0.961 . S
H1029 C1021 0.960 . S
H1030 C1022 0.930 . S
H1031 C1023 0.929 . S
H1032 C1040 0.929 . S
H1033 C1042 0.930 . S
H1034 C1044 0.930 . S
H1035 C1047 0.929 . S
H1036 C1050 0.930 . S
H1037 C1052 0.960 . S
H1038 C1052 0.960 . S
H1039 C1052 0.960 . S
C1040 H1032 0.929 . S
C1040 C1041 1.377 . S
C1040 C1042 1.384 . S
C1041 C1040 1.377 . S
C1041 C1047 1.390 . S
C1042 H1033 0.930 . S
C1042 C1040 1.384 . S
C1042 C1043 1.372 . S
C1043 C1042 1.372 . S
C1043 C1044 1.400 . S
C1043 C1048 1.490 . S
C1044 H1034 0.930 . S
C1044 C1043 1.400 . S
C1044 C1047 1.386 . S
H1045 C1061 0.930 . S
H1046 C1062 0.931 . S
C1047 H1035 0.929 . S
C1047 C1041 1.390 . S
C1047 C1044 1.386 . S
C1048 C1043 1.490 . S
C1048 C1050 1.395 . S
C1048 C1051 1.403 . S
H1049 C1055 0.930 . S
C1050 H1036 0.930 . S
C1050 C1048 1.395 . S
C1050 C1053 1.403 1_655 S
C1051 C1048 1.403 . S
C1051 C1052 1.524 . S
C1051 C1055 1.400 1_655 S
C1052 H1037 0.960 . S
C1052 H1038 0.960 . S
C1052 H1039 0.960 . S
C1052 C1051 1.524 . S
C1053 C1050 1.403 1_455 S
C1053 C1054 1.392 . S
C1053 C1057 1.495 . S
C1054 C1053 1.392 . S
C1054 C1055 1.385 . S
C1054 C1056 1.478 . S
C1055 H1049 0.930 . S
C1055 C1051 1.400 1_455 S
C1055 C1054 1.385 . S
C1056 C1054 1.478 . S
C1056 C1058 1.381 . S
C1056 C1062 1.383 . S
C1057 C1053 1.495 . S
C1057 H1063 0.959 . S
C1057 H1064 0.961 . S
C1057 H1065 0.960 . S
C1058 C1056 1.381 . S
C1058 C1059 1.394 . S
C1058 H1066 0.930 . S
C1059 C1058 1.394 . S
C1059 C1060 1.383 . S
C1059 H1067 0.929 . S
C1060 C1059 1.383 . S
C1060 C1061 1.377 . S
C1061 H1045 0.930 . S
C1061 C1060 1.377 . S
C1061 C1062 1.379 . S
C1062 H1046 0.931 . S
C1062 C1056 1.383 . S
C1062 C1061 1.379 . S
H1063 C1057 0.959 . S
H1064 C1057 0.961 . S
H1065 C1057 0.960 . S
H1066 C1058 0.930 . S
H1067 C1059 0.929 . S
H1068 C1076 0.929 . S
H1069 C1078 0.930 . S
H1070 C1080 0.930 . S
H1071 C1083 0.929 . S
H1072 C1086 0.930 . S
H1073 C1088 0.960 . S
H1074 C1088 0.960 . S
H1075 C1088 0.960 . S
C1076 H1068 0.929 . S
C1076 C1077 1.377 . S
C1076 C1078 1.384 . S
C1077 C1076 1.377 . S
C1077 C1083 1.390 . S
C1078 H1069 0.930 . S
C1078 C1076 1.384 . S
C1078 C1079 1.372 . S
C1079 C1078 1.372 . S
C1079 C1080 1.400 . S
C1079 C1084 1.490 . S
C1080 H1070 0.930 . S
C1080 C1079 1.400 . S
C1080 C1083 1.386 . S
H1081 C1097 0.930 . S
H1082 C1098 0.931 1_655 S
C1083 H1071 0.929 . S
C1083 C1077 1.390 . S
C1083 C1080 1.386 . S
C1084 C1079 1.490 . S
C1084 C1086 1.395 . S
C1084 C1087 1.403 1_655 S
H1085 C1091 0.930 . S
C1086 H1072 0.930 . S
C1086 C1084 1.395 . S
C1086 C1089 1.403 . S
C1087 C1084 1.403 1_455 S
C1087 C1088 1.524 . S
C1087 C1091 1.400 . S
C1088 H1073 0.960 . S
C1088 H1074 0.960 . S
C1088 H1075 0.960 . S
C1088 C1087 1.524 . S
C1089 C1086 1.403 . S
C1089 C1090 1.401 . S
C1089 C1093 1.495 . S
C1090 C1089 1.401 . S
C1090 C1091 1.378 1_655 S
C1090 C1092 1.476 1_655 S
C1091 H1085 0.930 . S
C1091 C1087 1.400 . S
C1091 C1090 1.378 1_455 S
C1092 C1090 1.476 1_455 S
C1092 C1094 1.381 . S
C1092 C1098 1.383 . S
C1093 C1089 1.495 . S
C1093 H1099 0.959 . S
C1093 H1100 0.961 . S
C1093 H1101 0.960 . S
C1094 C1092 1.381 . S
C1094 C1095 1.394 . S
C1094 H1102 0.930 . S
C1095 C1094 1.394 . S
C1095 C1096 1.383 . S
C1095 H1103 0.929 . S
C1096 C1095 1.383 . S
C1096 C1097 1.377 . S
C1097 H1081 0.930 . S
C1097 C1096 1.377 . S
C1097 C1098 1.379 . S
C1098 H1082 0.931 1_455 S
C1098 C1092 1.383 . S
C1098 C1097 1.379 . S
H1099 C1093 0.959 . S
H1100 C1093 0.961 . S
H1101 C1093 0.960 . S
H1102 C1094 0.930 . S
H1103 C1095 0.929 . S
H1104 C1112 0.929 . S
H1105 C1114 0.930 . S
H1106 C1116 0.930 . S
H1107 C1119 0.929 . S
H1108 C1122 0.930 . S
H1109 C1124 0.960 . S
H1110 C1124 0.960 . S
H1111 C1124 0.960 . S
C1112 H1104 0.929 . S
C1112 C1113 1.377 . S
C1112 C1114 1.384 . S
C1113 C1112 1.377 . S
C1113 C1119 1.390 . S
C1114 H1105 0.930 . S
C1114 C1112 1.384 . S
C1114 C1115 1.372 . S
C1115 C1114 1.372 . S
C1115 C1116 1.400 . S
C1115 C1120 1.490 . S
C1116 H1106 0.930 . S
C1116 C1115 1.400 . S
C1116 C1119 1.386 . S
H1117 C1133 0.930 . S
H1118 C1134 0.931 . S
C1119 H1107 0.929 . S
C1119 C1113 1.390 . S
C1119 C1116 1.386 . S
C1120 C1115 1.490 . S
C1120 C1122 1.395 . S
C1120 C1123 1.403 . S
H1121 C1127 0.930 . S
C1122 H1108 0.930 . S
C1122 C1120 1.395 . S
C1122 C1125 1.403 . S
C1123 C1120 1.403 . S
C1123 C1124 1.524 . S
C1123 C1127 1.400 . S
C1124 H1109 0.960 . S
C1124 H1110 0.960 . S
C1124 H1111 0.960 . S
C1124 C1123 1.524 . S
C1125 C1122 1.403 . S
C1125 C1126 1.392 . S
C1125 C1129 1.495 . S
C1126 C1125 1.392 . S
C1126 C1127 1.385 . S
C1126 C1128 1.478 . S
C1127 H1121 0.930 . S
C1127 C1123 1.400 . S
C1127 C1126 1.385 . S
C1128 C1126 1.478 . S
C1128 C1130 1.381 . S
C1128 C1134 1.383 . S
C1129 C1125 1.495 . S
C1129 H1135 0.959 . S
C1129 H1136 0.961 . S
C1129 H1137 0.960 . S
C1130 C1128 1.381 . S
C1130 C1131 1.394 . S
C1130 H1138 0.930 . S
C1131 C1130 1.394 . S
C1131 C1132 1.383 . S
C1131 H1139 0.929 . S
C1132 C1131 1.383 . S
C1132 C1133 1.377 . S
C1133 H1117 0.930 . S
C1133 C1132 1.377 . S
C1133 C1134 1.379 . S
C1134 H1118 0.931 . S
C1134 C1128 1.383 . S
C1134 C1133 1.379 . S
H1135 C1129 0.959 . S
H1136 C1129 0.961 . S
H1137 C1129 0.960 . S
H1138 C1130 0.930 . S
H1139 C1131 0.929 . S
H1140 C1148 0.929 . S
H1141 C1150 0.930 . S
H1142 C1152 0.930 . S
H1143 C1155 0.929 . S
H1144 C1158 0.930 . S
H1145 C1160 0.960 . S
H1146 C1160 0.960 . S
H1147 C1160 0.960 . S
C1148 H1140 0.929 . S
C1148 C1149 1.377 . S
C1148 C1150 1.384 . S
C1149 C1148 1.377 . S
C1149 C1155 1.390 . S
C1150 H1141 0.930 . S
C1150 C1148 1.384 . S
C1150 C1151 1.372 . S
C1151 C1150 1.372 . S
C1151 C1152 1.400 . S
C1151 C1156 1.490 . S
C1152 H1142 0.930 . S
C1152 C1151 1.400 . S
C1152 C1155 1.386 . S
H1153 C1169 0.930 . S
H1154 C1170 0.931 . S
C1155 H1143 0.929 . S
C1155 C1149 1.390 . S
C1155 C1152 1.386 . S
C1156 C1151 1.490 . S
C1156 C1158 1.395 . S
C1156 C1159 1.403 . S
H1157 C1163 0.930 . S
C1158 H1144 0.930 . S
C1158 C1156 1.395 . S
C1158 C1161 1.403 1_545 S
C1159 C1156 1.403 . S
C1159 C1160 1.524 . S
C1159 C1163 1.400 1_545 S
C1160 H1145 0.960 . S
C1160 H1146 0.960 . S
C1160 H1147 0.960 . S
C1160 C1159 1.524 . S
C1161 C1158 1.403 1_565 S
C1161 C1162 1.392 . S
C1161 C1165 1.495 . S
C1162 C1161 1.392 . S
C1162 C1163 1.385 . S
C1162 C1164 1.478 . S
C1163 H1157 0.930 . S
C1163 C1159 1.400 1_565 S
C1163 C1162 1.385 . S
C1164 C1162 1.478 . S
C1164 C1166 1.381 . S
C1164 C1170 1.383 . S
C1165 C1161 1.495 . S
C1165 H1171 0.959 . S
C1165 H1172 0.961 . S
C1165 H1173 0.960 . S
C1166 C1164 1.381 . S
C1166 C1167 1.394 . S
C1166 H1174 0.930 . S
C1167 C1166 1.394 . S
C1167 C1168 1.383 . S
C1167 H1175 0.929 . S
C1168 C1167 1.383 . S
C1168 C1169 1.377 . S
C1169 H1153 0.930 . S
C1169 C1168 1.377 . S
C1169 C1170 1.379 . S
C1170 H1154 0.931 . S
C1170 C1164 1.383 . S
C1170 C1169 1.379 . S
H1171 C1165 0.959 . S
H1172 C1165 0.961 . S
H1173 C1165 0.960 . S
H1174 C1166 0.930 . S
H1175 C1167 0.929 . S
H1176 C1184 0.929 . S
H1177 C1186 0.930 . S
H1178 C1188 0.930 . S
H1179 C1191 0.929 . S
H1180 C1194 0.930 . S
H1181 C1196 0.960 . S
H1182 C1196 0.960 . S
H1183 C1196 0.960 . S
C1184 H1176 0.929 . S
C1184 C1185 1.377 . S
C1184 C1186 1.384 . S
C1185 C1184 1.377 . S
C1185 C1191 1.390 . S
C1186 H1177 0.930 . S
C1186 C1184 1.384 . S
C1186 C1187 1.372 . S
C1187 C1186 1.372 . S
C1187 C1188 1.400 . S
C1187 C1192 1.490 . S
C1188 H1178 0.930 . S
C1188 C1187 1.400 . S
C1188 C1191 1.386 . S
H1189 C1205 0.930 . S
H1190 C1206 0.931 . S
C1191 H1179 0.929 . S
C1191 C1185 1.390 . S
C1191 C1188 1.386 . S
C1192 C1187 1.490 . S
C1192 C1194 1.395 1_554 S
C1192 C1195 1.403 . S
H1193 C1199 0.930 . S
C1194 H1180 0.930 . S
C1194 C1192 1.395 1_556 S
C1194 C1197 1.403 . S
C1195 C1192 1.403 . S
C1195 C1196 1.524 . S
C1195 C1199 1.400 . S
C1196 H1181 0.960 . S
C1196 H1182 0.960 . S
C1196 H1183 0.960 . S
C1196 C1195 1.524 . S
C1197 C1194 1.403 . S
C1197 C1198 1.392 . S
C1197 C1201 1.495 . S
C1198 C1197 1.392 . S
C1198 C1199 1.385 1_556 S
C1198 C1200 1.478 . S
C1199 H1193 0.930 . S
C1199 C1195 1.400 . S
C1199 C1198 1.385 1_554 S
C1200 C1198 1.478 . S
C1200 C1202 1.381 . S
C1200 C1206 1.383 . S
C1201 C1197 1.495 . S
C1201 H1207 0.959 . S
C1201 H1208 0.961 . S
C1201 H1209 0.960 . S
C1202 C1200 1.381 . S
C1202 C1203 1.394 . S
C1202 H1210 0.930 . S
C1203 C1202 1.394 . S
C1203 C1204 1.383 . S
C1203 H1211 0.929 . S
C1204 C1203 1.383 . S
C1204 C1205 1.377 . S
C1205 H1189 0.930 . S
C1205 C1204 1.377 . S
C1205 C1206 1.379 . S
C1206 H1190 0.931 . S
C1206 C1200 1.383 . S
C1206 C1205 1.379 . S
H1207 C1201 0.959 . S
H1208 C1201 0.961 . S
H1209 C1201 0.960 . S
H1210 C1202 0.930 . S
H1211 C1203 0.929 . S
H1212 C1220 0.929 . S
H1213 C1222 0.930 . S
H1214 C1224 0.930 . S
H1215 C1227 0.929 . S
H1216 C1230 0.930 . S
H1217 C1232 0.960 . S
H1218 C1232 0.960 . S
H1219 C1232 0.960 . S
C1220 H1212 0.929 . S
C1220 C1221 1.377 . S
C1220 C1222 1.384 . S
C1221 C1220 1.377 . S
C1221 C1227 1.390 . S
C1222 H1213 0.930 . S
C1222 C1220 1.384 . S
C1222 C1223 1.372 . S
C1223 C1222 1.372 . S
C1223 C1224 1.400 . S
C1223 C1228 1.490 . S
C1224 H1214 0.930 . S
C1224 C1223 1.400 . S
C1224 C1227 1.386 . S
H1225 C1241 0.930 . S
H1226 C1242 0.931 . S
C1227 H1215 0.929 . S
C1227 C1221 1.390 . S
C1227 C1224 1.386 . S
C1228 C1223 1.490 . S
C1228 C1230 1.395 . S
C1228 C1231 1.403 . S
H1229 C1235 0.930 . S
C1230 H1216 0.930 . S
C1230 C1228 1.395 . S
C1230 C1233 1.403 1_545 S
C1231 C1228 1.403 . S
C1231 C1232 1.524 . S
C1231 C1235 1.400 1_545 S
C1232 H1217 0.960 . S
C1232 H1218 0.960 . S
C1232 H1219 0.960 . S
C1232 C1231 1.524 . S
C1233 C1230 1.403 1_565 S
C1233 C1234 1.392 . S
C1233 C1237 1.495 . S
C1234 C1233 1.392 . S
C1234 C1235 1.385 . S
C1234 C1236 1.478 . S
C1235 H1229 0.930 . S
C1235 C1231 1.400 1_565 S
C1235 C1234 1.385 . S
C1236 C1234 1.478 . S
C1236 C1238 1.381 . S
C1236 C1242 1.383 . S
C1237 C1233 1.495 . S
C1237 H1243 0.959 . S
C1237 H1244 0.961 . S
C1237 H1245 0.960 . S
C1238 C1236 1.381 . S
C1238 C1239 1.394 . S
C1238 H1246 0.930 . S
C1239 C1238 1.394 . S
C1239 C1240 1.383 . S
C1239 H1247 0.929 . S
C1240 C1239 1.383 . S
C1240 C1241 1.377 . S
C1241 H1225 0.930 . S
C1241 C1240 1.377 . S
C1241 C1242 1.379 . S
C1242 H1226 0.931 . S
C1242 C1236 1.383 . S
C1242 C1241 1.379 . S
H1243 C1237 0.959 . S
H1244 C1237 0.961 . S
H1245 C1237 0.960 . S
H1246 C1238 0.930 . S
H1247 C1239 0.929 . S
H1248 C1256 0.929 . S
H1249 C1258 0.930 . S
H1250 C1260 0.915 1_554 S
H1251 C1263 0.929 . S
H1252 C1266 0.930 . S
H1253 C1268 0.960 . S
H1254 C1268 0.960 . S
H1255 C1268 0.960 . S
C1256 H1248 0.929 . S
C1256 C1257 1.377 . S
C1256 C1258 1.384 . S
C1257 C1256 1.377 . S
C1257 C1263 1.390 . S
C1258 H1249 0.930 . S
C1258 C1256 1.384 . S
C1258 C1259 1.372 . S
C1259 C1258 1.372 . S
C1259 C1260 1.400 . S
C1259 C1264 1.490 . S
C1260 H1250 0.915 1_556 S
C1260 C1259 1.400 . S
C1260 C1263 1.386 . S
H1261 C1277 0.930 . S
H1262 C1278 0.931 . S
C1263 H1251 0.929 . S
C1263 C1257 1.390 . S
C1263 C1260 1.386 . S
C1264 C1259 1.490 . S
C1264 C1266 1.395 . S
C1264 C1267 1.403 1_556 S
H1265 C1271 0.930 . S
C1266 H1252 0.930 . S
C1266 C1264 1.395 . S
C1266 C1269 1.403 . S
C1267 C1264 1.403 1_554 S
C1267 C1268 1.524 . S
C1267 C1271 1.400 . S
C1268 H1253 0.960 . S
C1268 H1254 0.960 . S
C1268 H1255 0.960 . S
C1268 C1267 1.524 . S
C1269 C1266 1.403 . S
C1269 C1270 1.435 . S
C1269 C1273 1.495 . S
C1270 C1269 1.435 . S
C1270 C1271 1.347 1_556 S
C1270 C1272 1.472 1_556 S
C1271 H1265 0.930 . S
C1271 C1267 1.400 . S
C1271 C1270 1.347 1_554 S
C1272 C1270 1.472 1_554 S
C1272 C1274 1.381 . S
C1272 C1278 1.383 . S
C1273 C1269 1.495 . S
C1273 H1279 0.959 . S
C1273 H1280 0.961 . S
C1273 H1281 0.960 . S
C1274 C1272 1.381 . S
C1274 C1275 1.394 . S
C1274 H1282 0.921 1_554 S
C1275 C1274 1.394 . S
C1275 C1276 1.383 . S
C1275 H1283 0.929 . S
C1276 C1275 1.383 . S
C1276 C1277 1.377 . S
C1277 H1261 0.930 . S
C1277 C1276 1.377 . S
C1277 C1278 1.379 . S
C1278 H1262 0.931 . S
C1278 C1272 1.383 . S
C1278 C1277 1.379 . S
H1279 C1273 0.959 . S
H1280 C1273 0.961 . S
H1281 C1273 0.960 . S
H1282 C1274 0.921 1_556 S
H1283 C1275 0.929 . S
H1284 C1292 0.929 . S
H1285 C1294 0.930 . S
H1286 C1296 0.930 . S
H1287 C1299 0.929 . S
H1288 C1302 0.930 . S
H1289 C1304 0.960 . S
H1290 C1304 0.960 . S
H1291 C1304 0.960 . S
C1292 H1284 0.929 . S
C1292 C1293 1.377 . S
C1292 C1294 1.384 . S
C1293 C1292 1.377 . S
C1293 C1299 1.390 . S
C1294 H1285 0.930 . S
C1294 C1292 1.384 . S
C1294 C1295 1.372 . S
C1295 C1294 1.372 . S
C1295 C1296 1.400 . S
C1295 C1300 1.490 . S
C1296 H1286 0.930 . S
C1296 C1295 1.400 . S
C1296 C1299 1.386 . S
H1297 C1313 0.930 . S
H1298 C1314 0.931 . S
C1299 H1287 0.929 . S
C1299 C1293 1.390 . S
C1299 C1296 1.386 . S
C1300 C1295 1.490 . S
C1300 C1302 1.395 . S
C1300 C1303 1.403 . S
H1301 C1307 0.930 . S
C1302 H1288 0.930 . S
C1302 C1300 1.395 . S
C1302 C1305 1.403 . S
C1303 C1300 1.403 . S
C1303 C1304 1.524 . S
C1303 C1307 1.400 . S
C1304 H1289 0.960 . S
C1304 H1290 0.960 . S
C1304 H1291 0.960 . S
C1304 C1303 1.524 . S
C1305 C1302 1.403 . S
C1305 C1306 1.392 . S
C1305 C1309 1.495 . S
C1306 C1305 1.392 . S
C1306 C1307 1.385 . S
C1306 C1308 1.478 . S
C1307 H1301 0.930 . S
C1307 C1303 1.400 . S
C1307 C1306 1.385 . S
C1308 C1306 1.478 . S
C1308 C1310 1.381 . S
C1308 C1314 1.383 . S
C1309 C1305 1.495 . S
C1309 H1315 0.959 . S
C1309 H1316 0.961 . S
C1309 H1317 0.960 . S
C1310 C1308 1.381 . S
C1310 C1311 1.394 . S
C1310 H1318 0.930 . S
C1311 C1310 1.394 . S
C1311 C1312 1.383 . S
C1311 H1319 0.929 . S
C1312 C1311 1.383 . S
C1312 C1313 1.377 . S
C1313 H1297 0.930 . S
C1313 C1312 1.377 . S
C1313 C1314 1.379 . S
C1314 H1298 0.931 . S
C1314 C1308 1.383 . S
C1314 C1313 1.379 . S
H1315 C1309 0.959 . S
H1316 C1309 0.961 . S
H1317 C1309 0.960 . S
H1318 C1310 0.930 . S
H1319 C1311 0.929 . S
H1320 C1328 0.929 . S
H1321 C1330 0.930 . S
H1322 C1332 0.930 . S
H1323 C1335 0.929 . S
H1324 C1338 0.930 . S
H1325 C1340 0.960 . S
H1326 C1340 0.960 . S
H1327 C1340 0.960 . S
C1328 H1320 0.929 . S
C1328 C1329 1.377 . S
C1328 C1330 1.384 . S
C1329 C1328 1.377 . S
C1329 C1335 1.390 . S
C1330 H1321 0.930 . S
C1330 C1328 1.384 . S
C1330 C1331 1.372 . S
C1331 C1330 1.372 . S
C1331 C1332 1.400 . S
C1331 C1336 1.490 . S
C1332 H1322 0.930 . S
C1332 C1331 1.400 . S
C1332 C1335 1.386 . S
H1333 C1349 0.930 . S
H1334 C1350 0.931 . S
C1335 H1323 0.929 . S
C1335 C1329 1.390 . S
C1335 C1332 1.386 . S
C1336 C1331 1.490 . S
C1336 C1338 1.395 . S
C1336 C1339 1.403 . S
H1337 C1343 0.930 . S
C1338 H1324 0.930 . S
C1338 C1336 1.395 . S
C1338 C1341 1.403 . S
C1339 C1336 1.403 . S
C1339 C1340 1.524 . S
C1339 C1343 1.400 . S
C1340 H1325 0.960 . S
C1340 H1326 0.960 . S
C1340 H1327 0.960 . S
C1340 C1339 1.524 . S
C1341 C1338 1.403 . S
C1341 C1342 1.392 . S
C1341 C1345 1.495 . S
C1342 C1341 1.392 . S
C1342 C1343 1.385 . S
C1342 C1344 1.478 . S
C1343 H1337 0.930 . S
C1343 C1339 1.400 . S
C1343 C1342 1.385 . S
C1344 C1342 1.478 . S
C1344 C1346 1.381 . S
C1344 C1350 1.383 . S
C1345 C1341 1.495 . S
C1345 H1351 0.959 . S
C1345 H1352 0.961 . S
C1345 H1353 0.960 . S
C1346 C1344 1.381 . S
C1346 C1347 1.394 . S
C1346 H1354 0.930 . S
C1347 C1346 1.394 . S
C1347 C1348 1.383 . S
C1347 H1355 0.929 . S
C1348 C1347 1.383 . S
C1348 C1349 1.377 . S
C1349 H1333 0.930 . S
C1349 C1348 1.377 . S
C1349 C1350 1.379 . S
C1350 H1334 0.931 . S
C1350 C1344 1.383 . S
C1350 C1349 1.379 . S
H1351 C1345 0.959 . S
H1352 C1345 0.961 . S
H1353 C1345 0.960 . S
H1354 C1346 0.930 . S
H1355 C1347 0.929 . S
H1356 C1364 0.929 . S
H1357 C1366 0.930 . S
H1358 C1368 0.930 . S
H1359 C1371 0.929 . S
H1360 C1374 0.930 . S
H1361 C1376 0.960 . S
H1362 C1376 0.960 . S
H1363 C1376 0.960 . S
C1364 H1356 0.929 . S
C1364 C1365 1.377 . S
C1364 C1366 1.384 . S
C1365 C1364 1.377 . S
C1365 C1371 1.390 . S
C1366 H1357 0.930 . S
C1366 C1364 1.384 . S
C1366 C1367 1.372 . S
C1367 C1366 1.372 . S
C1367 C1368 1.400 . S
C1367 C1372 1.490 . S
C1368 H1358 0.930 . S
C1368 C1367 1.400 . S
C1368 C1371 1.386 . S
H1369 C1385 0.930 . S
H1370 C1386 0.931 . S
C1371 H1359 0.929 . S
C1371 C1365 1.390 . S
C1371 C1368 1.386 . S
C1372 C1367 1.490 . S
C1372 C1374 1.395 . S
C1372 C1375 1.403 . S
H1373 C1379 0.930 . S
C1374 H1360 0.930 . S
C1374 C1372 1.395 . S
C1374 C1377 1.403 1_554 S
C1375 C1372 1.403 . S
C1375 C1376 1.524 . S
C1375 C1379 1.400 1_554 S
C1376 H1361 0.960 . S
C1376 H1362 0.960 . S
C1376 H1363 0.960 . S
C1376 C1375 1.524 . S
C1377 C1374 1.403 1_556 S
C1377 C1378 1.392 . S
C1377 C1381 1.495 . S
C1378 C1377 1.392 . S
C1378 C1379 1.385 . S
C1378 C1380 1.478 . S
C1379 H1373 0.930 . S
C1379 C1375 1.400 1_556 S
C1379 C1378 1.385 . S
C1380 C1378 1.478 . S
C1380 C1382 1.381 . S
C1380 C1386 1.383 . S
C1381 C1377 1.495 . S
C1381 H1387 0.959 . S
C1381 H1388 0.961 . S
C1381 H1389 0.960 . S
C1382 C1380 1.381 . S
C1382 C1383 1.394 . S
C1382 H1390 0.930 . S
C1383 C1382 1.394 . S
C1383 C1384 1.383 . S
C1383 H1391 0.929 . S
C1384 C1383 1.383 . S
C1384 C1385 1.377 . S
C1385 H1369 0.930 . S
C1385 C1384 1.377 . S
C1385 C1386 1.379 . S
C1386 H1370 0.931 . S
C1386 C1380 1.383 . S
C1386 C1385 1.379 . S
H1387 C1381 0.959 . S
H1388 C1381 0.961 . S
H1389 C1381 0.960 . S
H1390 C1382 0.930 . S
H1391 C1383 0.929 . S
H1392 C1400 0.929 . S
H1393 C1402 0.930 . S
H1394 C1404 0.930 . S
H1395 C1407 0.929 . S
H1396 C1410 0.930 . S
H1397 C1412 0.960 . S
H1398 C1412 0.960 . S
H1399 C1412 0.960 . S
C1400 H1392 0.929 . S
C1400 C1401 1.377 . S
C1400 C1402 1.384 . S
C1401 C1400 1.377 . S
C1401 C1407 1.390 . S
C1402 H1393 0.930 . S
C1402 C1400 1.384 . S
C1402 C1403 1.372 . S
C1403 C1402 1.372 . S
C1403 C1404 1.400 . S
C1403 C1408 1.490 . S
C1404 H1394 0.930 . S
C1404 C1403 1.400 . S
C1404 C1407 1.386 . S
H1405 C1421 0.930 . S
H1406 C1422 0.931 . S
C1407 H1395 0.929 . S
C1407 C1401 1.390 . S
C1407 C1404 1.386 . S
C1408 C1403 1.490 . S
C1408 C1410 1.395 . S
C1408 C1411 1.403 . S
H1409 C1415 0.930 . S
C1410 H1396 0.930 . S
C1410 C1408 1.395 . S
C1410 C1413 1.403 . S
C1411 C1408 1.403 . S
C1411 C1412 1.524 . S
C1411 C1415 1.400 . S
C1412 H1397 0.960 . S
C1412 H1398 0.960 . S
C1412 H1399 0.960 . S
C1412 C1411 1.524 . S
C1413 C1410 1.403 . S
C1413 C1414 1.392 . S
C1413 C1417 1.495 . S
C1414 C1413 1.392 . S
C1414 C1415 1.385 . S
C1414 C1416 1.478 . S
C1415 H1409 0.930 . S
C1415 C1411 1.400 . S
C1415 C1414 1.385 . S
C1416 C1414 1.478 . S
C1416 C1418 1.381 . S
C1416 C1422 1.383 . S
C1417 C1413 1.495 . S
C1417 H1423 0.959 . S
C1417 H1424 0.961 . S
C1417 H1425 0.960 . S
C1418 C1416 1.381 . S
C1418 C1419 1.394 . S
C1418 H1426 0.930 . S
C1419 C1418 1.394 . S
C1419 C1420 1.383 . S
C1419 H1427 0.929 . S
C1420 C1419 1.383 . S
C1420 C1421 1.377 . S
C1421 H1405 0.930 . S
C1421 C1420 1.377 . S
C1421 C1422 1.379 . S
C1422 H1406 0.931 . S
C1422 C1416 1.383 . S
C1422 C1421 1.379 . S
H1423 C1417 0.959 . S
H1424 C1417 0.961 . S
H1425 C1417 0.960 . S
H1426 C1418 0.930 . S
H1427 C1419 0.929 . S
H1428 C1436 0.929 . S
H1429 C1438 0.930 . S
H1430 C1440 0.930 . S
H1431 C1443 0.929 . S
H1432 C1446 0.930 . S
H1433 C1448 0.960 . S
H1434 C1448 0.960 . S
H1435 C1448 0.960 . S
C1436 H1428 0.929 . S
C1436 C1437 1.377 . S
C1436 C1438 1.384 . S
C1437 C1436 1.377 . S
C1437 C1443 1.390 . S
C1438 H1429 0.930 . S
C1438 C1436 1.384 . S
C1438 C1439 1.372 . S
C1439 C1438 1.372 . S
C1439 C1440 1.400 . S
C1439 C1444 1.490 . S
C1440 H1430 0.930 . S
C1440 C1439 1.400 . S
C1440 C1443 1.386 . S
H1441 C1457 0.930 . S
H1442 C1458 0.931 . S
C1443 H1431 0.929 . S
C1443 C1437 1.390 . S
C1443 C1440 1.386 . S
C1444 C1439 1.490 . S
C1444 C1446 1.395 . S
C1444 C1447 1.403 . S
H1445 C1451 0.930 . S
C1446 H1432 0.930 . S
C1446 C1444 1.395 . S
C1446 C1449 1.403 . S
C1447 C1444 1.403 . S
C1447 C1448 1.524 . S
C1447 C1451 1.400 . S
C1448 H1433 0.960 . S
C1448 H1434 0.960 . S
C1448 H1435 0.960 . S
C1448 C1447 1.524 . S
C1449 C1446 1.403 . S
C1449 C1450 1.392 . S
C1449 C1453 1.495 . S
C1450 C1449 1.392 . S
C1450 C1451 1.385 . S
C1450 C1452 1.478 . S
C1451 H1445 0.930 . S
C1451 C1447 1.400 . S
C1451 C1450 1.385 . S
C1452 C1450 1.478 . S
C1452 C1454 1.381 . S
C1452 C1458 1.383 . S
C1453 C1449 1.495 . S
C1453 H1459 0.959 . S
C1453 H1460 0.961 . S
C1453 H1461 0.960 . S
C1454 C1452 1.381 . S
C1454 C1455 1.394 . S
C1454 H1462 0.930 . S
C1455 C1454 1.394 . S
C1455 C1456 1.383 . S
C1455 H1463 0.929 . S
C1456 C1455 1.383 . S
C1456 C1457 1.377 . S
C1457 H1441 0.930 . S
C1457 C1456 1.377 . S
C1457 C1458 1.379 . S
C1458 H1442 0.931 . S
C1458 C1452 1.383 . S
C1458 C1457 1.379 . S
H1459 C1453 0.959 . S
H1460 C1453 0.961 . S
H1461 C1453 0.960 . S
H1462 C1454 0.930 . S
H1463 C1455 0.929 . S
H1464 C1472 0.929 . S
H1465 C1474 0.930 . S
H1466 C1476 0.930 . S
H1467 C1479 0.929 . S
H1468 C1482 0.930 . S
H1469 C1484 0.960 . S
H1470 C1484 0.960 . S
H1471 C1484 0.960 . S
C1472 H1464 0.929 . S
C1472 C1473 1.377 . S
C1472 C1474 1.384 . S
C1473 C1472 1.377 . S
C1473 C1479 1.390 . S
C1474 H1465 0.930 . S
C1474 C1472 1.384 . S
C1474 C1475 1.372 . S
C1475 C1474 1.372 . S
C1475 C1476 1.400 . S
C1475 C1480 1.490 . S
C1476 H1466 0.930 . S
C1476 C1475 1.400 . S
C1476 C1479 1.386 . S
H1477 C1493 0.930 . S
H1478 C1494 0.931 . S
C1479 H1467 0.929 . S
C1479 C1473 1.390 . S
C1479 C1476 1.386 . S
C1480 C1475 1.490 . S
C1480 C1482 1.395 . S
C1480 C1483 1.403 . S
H1481 C1487 0.930 . S
C1482 H1468 0.930 . S
C1482 C1480 1.395 . S
C1482 C1485 1.403 . S
C1483 C1480 1.403 . S
C1483 C1484 1.524 . S
C1483 C1487 1.400 . S
C1484 H1469 0.960 . S
C1484 H1470 0.960 . S
C1484 H1471 0.960 . S
C1484 C1483 1.524 . S
C1485 C1482 1.403 . S
C1485 C1486 1.392 . S
C1485 C1489 1.495 . S
C1486 C1485 1.392 . S
C1486 C1487 1.385 . S
C1486 C1488 1.478 . S
C1487 H1481 0.930 . S
C1487 C1483 1.400 . S
C1487 C1486 1.385 . S
C1488 C1486 1.478 . S
C1488 C1490 1.381 . S
C1488 C1494 1.383 . S
C1489 C1485 1.495 . S
C1489 H1495 0.959 . S
C1489 H1496 0.961 . S
C1489 H1497 0.960 . S
C1490 C1488 1.381 . S
C1490 C1491 1.394 . S
C1490 H1498 0.930 . S
C1491 C1490 1.394 . S
C1491 C1492 1.383 . S
C1491 H1499 0.929 . S
C1492 C1491 1.383 . S
C1492 C1493 1.377 . S
C1493 H1477 0.930 . S
C1493 C1492 1.377 . S
C1493 C1494 1.379 . S
C1494 H1478 0.931 . S
C1494 C1488 1.383 . S
C1494 C1493 1.379 . S
H1495 C1489 0.959 . S
H1496 C1489 0.961 . S
H1497 C1489 0.960 . S
H1498 C1490 0.930 . S
H1499 C1491 0.929 . S
H1500 C1508 0.929 . S
H1501 C1510 0.930 . S
H1502 C1512 0.930 . S
H1503 C1515 0.929 . S
H1504 C1518 0.930 . S
H1505 C1520 0.960 . S
H1506 C1520 0.960 . S
H1507 C1520 0.960 . S
C1508 H1500 0.929 . S
C1508 C1509 1.377 . S
C1508 C1510 1.384 . S
C1509 C1508 1.377 . S
C1509 C1515 1.390 . S
C1510 H1501 0.930 . S
C1510 C1508 1.384 . S
C1510 C1511 1.372 . S
C1511 C1510 1.372 . S
C1511 C1512 1.400 . S
C1511 C1516 1.490 . S
C1512 H1502 0.930 . S
C1512 C1511 1.400 . S
C1512 C1515 1.386 . S
H1513 C1529 0.930 . S
H1514 C1530 0.931 . S
C1515 H1503 0.929 . S
C1515 C1509 1.390 . S
C1515 C1512 1.386 . S
C1516 C1511 1.490 . S
C1516 C1518 1.395 . S
C1516 C1519 1.403 . S
H1517 C1523 0.930 . S
C1518 H1504 0.930 . S
C1518 C1516 1.395 . S
C1518 C1521 1.403 . S
C1519 C1516 1.403 . S
C1519 C1520 1.524 . S
C1519 C1523 1.400 . S
C1520 H1505 0.960 . S
C1520 H1506 0.960 . S
C1520 H1507 0.960 . S
C1520 C1519 1.524 . S
C1521 C1518 1.403 . S
C1521 C1522 1.392 . S
C1521 C1525 1.495 . S
C1522 C1521 1.392 . S
C1522 C1523 1.385 . S
C1522 C1524 1.478 . S
C1523 H1517 0.930 . S
C1523 C1519 1.400 . S
C1523 C1522 1.385 . S
C1524 C1522 1.478 . S
C1524 C1526 1.381 . S
C1524 C1530 1.383 . S
C1525 C1521 1.495 . S
C1525 H1531 0.959 1_565 S
C1525 H1532 0.961 1_565 S
C1525 H1533 0.960 . S
C1526 C1524 1.381 . S
C1526 C1527 1.394 . S
C1526 H1534 0.930 . S
C1527 C1526 1.394 . S
C1527 C1528 1.383 . S
C1527 H1535 0.929 . S
C1528 C1527 1.383 . S
C1528 C1529 1.377 . S
C1529 H1513 0.930 . S
C1529 C1528 1.377 . S
C1529 C1530 1.379 . S
C1530 H1514 0.931 . S
C1530 C1524 1.383 . S
C1530 C1529 1.379 . S
H1531 C1525 0.959 1_545 S
H1532 C1525 0.961 1_545 S
H1533 C1525 0.960 . S
H1534 C1526 0.930 . S
H1535 C1527 0.929 . S
H1536 C1544 0.929 . S
H1537 C1546 0.930 . S
H1538 C1548 0.930 . S
H1539 C1551 0.929 . S
H1540 C1554 0.930 . S
H1541 C1556 0.960 . S
H1542 C1556 0.960 . S
H1543 C1556 0.960 . S
C1544 H1536 0.929 . S
C1544 C1545 1.377 . S
C1544 C1546 1.384 . S
C1545 C1544 1.377 . S
C1545 C1551 1.390 . S
C1546 H1537 0.930 . S
C1546 C1544 1.384 . S
C1546 C1547 1.372 . S
C1547 C1546 1.372 . S
C1547 C1548 1.400 . S
C1547 C1552 1.490 . S
C1548 H1538 0.930 . S
C1548 C1547 1.400 . S
C1548 C1551 1.386 . S
H1549 C1565 0.930 . S
H1550 C1566 0.931 . S
C1551 H1539 0.929 . S
C1551 C1545 1.390 . S
C1551 C1548 1.386 . S
C1552 C1547 1.490 . S
C1552 C1554 1.395 . S
C1552 C1555 1.403 . S
H1553 C1559 0.930 . S
C1554 H1540 0.930 . S
C1554 C1552 1.395 . S
C1554 C1557 1.403 . S
C1555 C1552 1.403 . S
C1555 C1556 1.524 . S
C1555 C1559 1.400 . S
C1556 H1541 0.960 . S
C1556 H1542 0.960 . S
C1556 H1543 0.960 . S
C1556 C1555 1.524 . S
C1557 C1554 1.403 . S
C1557 C1558 1.392 . S
C1557 C1561 1.495 . S
C1558 C1557 1.392 . S
C1558 C1559 1.385 . S
C1558 C1560 1.478 . S
C1559 H1553 0.930 . S
C1559 C1555 1.400 . S
C1559 C1558 1.385 . S
C1560 C1558 1.478 . S
C1560 C1562 1.381 . S
C1560 C1566 1.383 . S
C1561 C1557 1.495 . S
C1561 H1567 0.959 . S
C1561 H1568 0.961 . S
C1561 H1569 0.960 . S
C1562 C1560 1.381 . S
C1562 C1563 1.394 . S
C1562 H1570 0.930 . S
C1563 C1562 1.394 . S
C1563 C1564 1.383 . S
C1563 H1571 0.929 . S
C1564 C1563 1.383 . S
C1564 C1565 1.377 . S
C1565 H1549 0.930 . S
C1565 C1564 1.377 . S
C1565 C1566 1.379 . S
C1566 H1550 0.931 . S
C1566 C1560 1.383 . S
C1566 C1565 1.379 . S
H1567 C1561 0.959 . S
H1568 C1561 0.961 . S
H1569 C1561 0.960 . S
H1570 C1562 0.930 . S
H1571 C1563 0.929 . S
H1572 C1580 0.929 . S
H1573 C1582 0.930 . S
H1574 C1584 0.930 . S
H1575 C1587 0.929 1_455 S
H1576 C1590 0.930 . S
H1577 C1592 0.960 . S
H1578 C1592 0.960 . S
H1579 C1592 0.960 . S
C1580 H1572 0.929 . S
C1580 C1581 1.377 . S
C1580 C1582 1.384 . S
C1581 C1580 1.377 . S
C1581 C1587 1.390 . S
C1582 H1573 0.930 . S
C1582 C1580 1.384 . S
C1582 C1583 1.372 . S
C1583 C1582 1.372 . S
C1583 C1584 1.400 . S
C1583 C1588 1.490 . S
C1584 H1574 0.930 . S
C1584 C1583 1.400 . S
C1584 C1587 1.386 . S
H1585 C1601 0.930 . S
H1586 C1602 0.931 . S
C1587 H1575 0.929 1_655 S
C1587 C1581 1.390 . S
C1587 C1584 1.386 . S
C1588 C1583 1.490 . S
C1588 C1590 1.395 . S
C1588 C1591 1.403 . S
H1589 C1595 0.930 . S
C1590 H1576 0.930 . S
C1590 C1588 1.395 . S
C1590 C1593 1.403 . S
C1591 C1588 1.403 . S
C1591 C1592 1.524 . S
C1591 C1595 1.400 . S
C1592 H1577 0.960 . S
C1592 H1578 0.960 . S
C1592 H1579 0.960 . S
C1592 C1591 1.524 . S
C1593 C1590 1.403 . S
C1593 C1594 1.392 . S
C1593 C1597 1.495 . S
C1594 C1593 1.392 . S
C1594 C1595 1.385 . S
C1594 C1596 1.478 . S
C1595 H1589 0.930 . S
C1595 C1591 1.400 . S
C1595 C1594 1.385 . S
C1596 C1594 1.478 . S
C1596 C1598 1.381 . S
C1596 C1602 1.383 . S
C1597 C1593 1.495 . S
C1597 H1603 0.959 1_565 S
C1597 H1604 0.961 . S
C1597 H1605 0.960 . S
C1598 C1596 1.381 . S
C1598 C1599 1.394 . S
C1598 H1606 0.930 . S
C1599 C1598 1.394 . S
C1599 C1600 1.383 . S
C1599 H1607 0.929 . S
C1600 C1599 1.383 . S
C1600 C1601 1.377 . S
C1601 H1585 0.930 . S
C1601 C1600 1.377 . S
C1601 C1602 1.379 . S
C1602 H1586 0.931 . S
C1602 C1596 1.383 . S
C1602 C1601 1.379 . S
H1603 C1597 0.959 1_545 S
H1604 C1597 0.961 . S
H1605 C1597 0.960 . S
H1606 C1598 0.930 . S
H1607 C1599 0.929 . S
H1608 C1616 0.929 . S
H1609 C1618 0.930 . S
H1610 C1620 0.930 . S
H1611 C1623 0.929 . S
H1612 C1626 0.930 . S
H1613 C1628 0.960 . S
H1614 C1628 0.960 . S
H1615 C1628 0.960 . S
C1616 H1608 0.929 . S
C1616 C1617 1.377 . S
C1616 C1618 1.384 . S
C1617 C1616 1.377 . S
C1617 C1623 1.390 . S
C1618 H1609 0.930 . S
C1618 C1616 1.384 . S
C1618 C1619 1.372 . S
C1619 C1618 1.372 . S
C1619 C1620 1.400 . S
C1619 C1624 1.490 . S
C1620 H1610 0.930 . S
C1620 C1619 1.400 . S
C1620 C1623 1.386 . S
H1621 C1637 0.930 . S
H1622 C1638 0.931 . S
C1623 H1611 0.929 . S
C1623 C1617 1.390 . S
C1623 C1620 1.386 . S
C1624 C1619 1.490 . S
C1624 C1626 1.395 . S
C1624 C1627 1.403 . S
H1625 C1631 0.930 . S
C1626 H1612 0.930 . S
C1626 C1624 1.395 . S
C1626 C1629 1.403 . S
C1627 C1624 1.403 . S
C1627 C1628 1.524 . S
C1627 C1631 1.400 . S
C1628 H1613 0.960 . S
C1628 H1614 0.960 . S
C1628 H1615 0.960 . S
C1628 C1627 1.524 . S
C1629 C1626 1.403 . S
C1629 C1630 1.392 . S
C1629 C1633 1.495 . S
C1630 C1629 1.392 . S
C1630 C1631 1.385 . S
C1630 C1632 1.478 . S
C1631 H1625 0.930 . S
C1631 C1627 1.400 . S
C1631 C1630 1.385 . S
C1632 C1630 1.478 . S
C1632 C1634 1.381 . S
C1632 C1638 1.383 . S
C1633 C1629 1.495 . S
C1633 H1639 0.959 . S
C1633 H1640 0.961 . S
C1633 H1641 0.960 . S
C1634 C1632 1.381 . S
C1634 C1635 1.394 . S
C1634 H1642 0.930 . S
C1635 C1634 1.394 . S
C1635 C1636 1.383 . S
C1635 H1643 0.929 . S
C1636 C1635 1.383 . S
C1636 C1637 1.377 . S
C1637 H1621 0.930 . S
C1637 C1636 1.377 . S
C1637 C1638 1.379 . S
C1638 H1622 0.931 . S
C1638 C1632 1.383 . S
C1638 C1637 1.379 . S
H1639 C1633 0.959 . S
H1640 C1633 0.961 . S
H1641 C1633 0.960 . S
H1642 C1634 0.930 . S
H1643 C1635 0.929 . S
H1644 C1652 0.929 . S
H1645 C1654 0.930 . S
H1646 C1656 0.930 . S
H1647 C1659 0.929 . S
H1648 C1662 0.930 . S
H1649 C1664 0.960 . S
H1650 C1664 0.960 . S
H1651 C1664 0.960 . S
C1652 H1644 0.929 . S
C1652 C1653 1.377 . S
C1652 C1654 1.384 . S
C1653 C1652 1.377 . S
C1653 C1659 1.390 . S
C1654 H1645 0.930 . S
C1654 C1652 1.384 . S
C1654 C1655 1.372 . S
C1655 C1654 1.372 . S
C1655 C1656 1.400 . S
C1655 C1660 1.490 . S
C1656 H1646 0.930 . S
C1656 C1655 1.400 . S
C1656 C1659 1.386 . S
H1657 C1673 0.930 . S
H1658 C1674 0.931 . S
C1659 H1647 0.929 . S
C1659 C1653 1.390 . S
C1659 C1656 1.386 . S
C1660 C1655 1.490 . S
C1660 C1662 1.395 . S
C1660 C1663 1.403 . S
H1661 C1667 0.930 . S
C1662 H1648 0.930 . S
C1662 C1660 1.395 . S
C1662 C1665 1.403 . S
C1663 C1660 1.403 . S
C1663 C1664 1.524 . S
C1663 C1667 1.400 . S
C1664 H1649 0.960 . S
C1664 H1650 0.960 . S
C1664 H1651 0.960 . S
C1664 C1663 1.524 . S
C1665 C1662 1.403 . S
C1665 C1666 1.392 . S
C1665 C1669 1.495 . S
C1666 C1665 1.392 . S
C1666 C1667 1.385 . S
C1666 C1668 1.478 . S
C1667 H1661 0.930 . S
C1667 C1663 1.400 . S
C1667 C1666 1.385 . S
C1668 C1666 1.478 . S
C1668 C1670 1.381 . S
C1668 C1674 1.383 . S
C1669 C1665 1.495 . S
C1669 H1675 0.959 . S
C1669 H1676 0.961 . S
C1669 H1677 0.960 . S
C1670 C1668 1.381 . S
C1670 C1671 1.394 . S
C1670 H1678 0.930 . S
C1671 C1670 1.394 . S
C1671 C1672 1.383 . S
C1671 H1679 0.929 . S
C1672 C1671 1.383 . S
C1672 C1673 1.377 . S
C1673 H1657 0.930 . S
C1673 C1672 1.377 . S
C1673 C1674 1.379 . S
C1674 H1658 0.931 . S
C1674 C1668 1.383 . S
C1674 C1673 1.379 . S
H1675 C1669 0.959 . S
H1676 C1669 0.961 . S
H1677 C1669 0.960 . S
H1678 C1670 0.930 . S
H1679 C1671 0.929 . S
H1680 C1688 0.929 . S
H1681 C1690 0.930 . S
H1682 C1692 0.930 . S
H1683 C1695 0.929 . S
H1684 C1698 0.930 . S
H1685 C1700 0.960 . S
H1686 C1700 0.960 . S
H1687 C1700 0.960 . S
C1688 H1680 0.929 . S
C1688 C1689 1.377 . S
C1688 C1690 1.384 . S
C1689 C1688 1.377 . S
C1689 C1695 1.390 . S
C1690 H1681 0.930 . S
C1690 C1688 1.384 . S
C1690 C1691 1.372 . S
C1691 C1690 1.372 . S
C1691 C1692 1.400 . S
C1691 C1696 1.490 . S
C1692 H1682 0.930 . S
C1692 C1691 1.400 . S
C1692 C1695 1.386 . S
H1693 C1709 0.930 . S
H1694 C1710 0.931 . S
C1695 H1683 0.929 . S
C1695 C1689 1.390 . S
C1695 C1692 1.386 . S
C1696 C1691 1.490 . S
C1696 C1698 1.395 . S
C1696 C1699 1.403 . S
H1697 C1703 0.930 . S
C1698 H1684 0.930 . S
C1698 C1696 1.395 . S
C1698 C1701 1.403 . S
C1699 C1696 1.403 . S
C1699 C1700 1.524 . S
C1699 C1703 1.400 . S
C1700 H1685 0.960 . S
C1700 H1686 0.960 . S
C1700 H1687 0.960 . S
C1700 C1699 1.524 . S
C1701 C1698 1.403 . S
C1701 C1702 1.392 . S
C1701 C1705 1.495 . S
C1702 C1701 1.392 . S
C1702 C1703 1.385 . S
C1702 C1704 1.478 . S
C1703 H1697 0.930 . S
C1703 C1699 1.400 . S
C1703 C1702 1.385 . S
C1704 C1702 1.478 . S
C1704 C1706 1.381 . S
C1704 C1710 1.383 . S
C1705 C1701 1.495 . S
C1705 H1711 0.959 . S
C1705 H1712 0.961 . S
C1705 H1713 0.960 . S
C1706 C1704 1.381 . S
C1706 C1707 1.394 . S
C1706 H1714 0.930 . S
C1707 C1706 1.394 . S
C1707 C1708 1.383 . S
C1707 H1715 0.929 . S
C1708 C1707 1.383 . S
C1708 C1709 1.377 . S
C1709 H1693 0.930 . S
C1709 C1708 1.377 . S
C1709 C1710 1.379 . S
C1710 H1694 0.931 . S
C1710 C1704 1.383 . S
C1710 C1709 1.379 . S
H1711 C1705 0.959 . S
H1712 C1705 0.961 . S
H1713 C1705 0.960 . S
H1714 C1706 0.930 . S
H1715 C1707 0.929 . S
H1716 C1724 0.929 . S
H1717 C1726 0.930 . S
H1718 C1728 0.930 . S
H1719 C1731 0.929 . S
H1720 C1734 0.930 . S
H1721 C1736 0.960 . S
H1722 C1736 0.960 . S
H1723 C1736 0.960 . S
C1724 H1716 0.929 . S
C1724 C1725 1.377 . S
C1724 C1726 1.384 . S
C1725 C1724 1.377 . S
C1725 C1731 1.390 . S
C1726 H1717 0.930 . S
C1726 C1724 1.384 . S
C1726 C1727 1.372 . S
C1727 C1726 1.372 . S
C1727 C1728 1.400 . S
C1727 C1732 1.490 . S
C1728 H1718 0.930 . S
C1728 C1727 1.400 . S
C1728 C1731 1.386 . S
H1729 C1745 0.930 . S
H1730 C1746 0.931 . S
C1731 H1719 0.929 . S
C1731 C1725 1.390 . S
C1731 C1728 1.386 . S
C1732 C1727 1.490 . S
C1732 C1734 1.395 . S
C1732 C1735 1.403 . S
H1733 C1739 0.930 . S
C1734 H1720 0.930 . S
C1734 C1732 1.395 . S
C1734 C1737 1.403 . S
C1735 C1732 1.403 . S
C1735 C1736 1.524 . S
C1735 C1739 1.400 . S
C1736 H1721 0.960 . S
C1736 H1722 0.960 . S
C1736 H1723 0.960 . S
C1736 C1735 1.524 . S
C1737 C1734 1.403 . S
C1737 C1738 1.392 . S
C1737 C1741 1.495 . S
C1738 C1737 1.392 . S
C1738 C1739 1.385 . S
C1738 C1740 1.478 . S
C1739 H1733 0.930 . S
C1739 C1735 1.400 . S
C1739 C1738 1.385 . S
C1740 C1738 1.478 . S
C1740 C1742 1.381 . S
C1740 C1746 1.383 . S
C1741 C1737 1.495 . S
C1741 H1747 0.959 . S
C1741 H1748 0.961 . S
C1741 H1749 0.960 . S
C1742 C1740 1.381 . S
C1742 C1743 1.394 . S
C1742 H1750 0.930 . S
C1743 C1742 1.394 . S
C1743 C1744 1.383 . S
C1743 H1751 0.929 . S
C1744 C1743 1.383 . S
C1744 C1745 1.377 . S
C1745 H1729 0.930 . S
C1745 C1744 1.377 . S
C1745 C1746 1.379 . S
C1746 H1730 0.931 . S
C1746 C1740 1.383 . S
C1746 C1745 1.379 . S
H1747 C1741 0.959 . S
H1748 C1741 0.961 . S
H1749 C1741 0.960 . S
H1750 C1742 0.930 . S
H1751 C1743 0.929 . S
H1752 C1760 0.929 . S
H1753 C1762 0.930 . S
H1754 C1764 0.930 . S
H1755 C1767 0.929 . S
H1756 C1770 0.930 . S
H1757 C1772 0.960 . S
H1758 C1772 0.960 . S
H1759 C1772 0.960 . S
C1760 H1752 0.929 . S
C1760 C1761 1.377 . S
C1760 C1762 1.384 . S
C1761 C1760 1.377 . S
C1761 C1767 1.390 . S
C1762 H1753 0.930 . S
C1762 C1760 1.384 . S
C1762 C1763 1.372 . S
C1763 C1762 1.372 . S
C1763 C1764 1.400 . S
C1763 C1768 1.490 . S
C1764 H1754 0.930 . S
C1764 C1763 1.400 . S
C1764 C1767 1.386 . S
H1765 C1781 0.930 . S
H1766 C1782 0.931 . S
C1767 H1755 0.929 . S
C1767 C1761 1.390 . S
C1767 C1764 1.386 . S
C1768 C1763 1.490 . S
C1768 C1770 1.395 . S
C1768 C1771 1.403 . S
H1769 C1775 0.930 . S
C1770 H1756 0.930 . S
C1770 C1768 1.395 . S
C1770 C1773 1.403 . S
C1771 C1768 1.403 . S
C1771 C1772 1.524 . S
C1771 C1775 1.400 . S
C1772 H1757 0.960 . S
C1772 H1758 0.960 . S
C1772 H1759 0.960 . S
C1772 C1771 1.524 . S
C1773 C1770 1.403 . S
C1773 C1774 1.392 . S
C1773 C1777 1.495 . S
C1774 C1773 1.392 . S
C1774 C1775 1.385 . S
C1774 C1776 1.478 . S
C1775 H1769 0.930 . S
C1775 C1771 1.400 . S
C1775 C1774 1.385 . S
C1776 C1774 1.478 . S
C1776 C1778 1.381 . S
C1776 C1782 1.383 . S
C1777 C1773 1.495 . S
C1777 H1783 0.959 . S
C1777 H1784 0.961 . S
C1777 H1785 0.960 . S
C1778 C1776 1.381 . S
C1778 C1779 1.394 . S
C1778 H1786 0.930 . S
C1779 C1778 1.394 . S
C1779 C1780 1.383 . S
C1779 H1787 0.929 . S
C1780 C1779 1.383 . S
C1780 C1781 1.377 . S
C1781 H1765 0.930 . S
C1781 C1780 1.377 . S
C1781 C1782 1.379 . S
C1782 H1766 0.931 . S
C1782 C1776 1.383 . S
C1782 C1781 1.379 . S
H1783 C1777 0.959 . S
H1784 C1777 0.961 . S
H1785 C1777 0.960 . S
H1786 C1778 0.930 . S
H1787 C1779 0.929 . S
H1788 C1796 0.929 . S
H1789 C1798 0.930 . S
H1790 C1800 0.930 . S
H1791 C1803 0.929 1_554 S
H1792 C1806 0.930 . S
H1793 C1808 0.960 . S
H1794 C1808 0.960 . S
H1795 C1808 0.960 . S
C1796 H1788 0.929 . S
C1796 C1797 1.377 . S
C1796 C1798 1.384 . S
C1797 C1796 1.377 . S
C1797 C1803 1.390 . S
C1798 H1789 0.930 . S
C1798 C1796 1.384 . S
C1798 C1799 1.372 . S
C1799 C1798 1.372 . S
C1799 C1800 1.400 . S
C1799 C1804 1.490 . S
C1800 H1790 0.930 . S
C1800 C1799 1.400 . S
C1800 C1803 1.386 . S
H1801 C1817 0.930 1_455 S
H1802 C1818 0.931 . S
C1803 H1791 0.929 1_556 S
C1803 C1797 1.390 . S
C1803 C1800 1.386 . S
C1804 C1799 1.490 . S
C1804 C1806 1.395 . S
C1804 C1807 1.403 . S
H1805 C1811 0.930 . S
C1806 H1792 0.930 . S
C1806 C1804 1.395 . S
C1806 C1809 1.403 . S
C1807 C1804 1.403 . S
C1807 C1808 1.524 . S
C1807 C1811 1.400 . S
C1808 H1793 0.960 . S
C1808 H1794 0.960 . S
C1808 H1795 0.960 . S
C1808 C1807 1.524 . S
C1809 C1806 1.403 . S
C1809 C1810 1.392 . S
C1809 C1813 1.495 . S
C1810 C1809 1.392 . S
C1810 C1811 1.385 . S
C1810 C1812 1.478 . S
C1811 H1805 0.930 . S
C1811 C1807 1.400 . S
C1811 C1810 1.385 . S
C1812 C1810 1.478 . S
C1812 C1814 1.381 . S
C1812 C1818 1.383 . S
C1813 C1809 1.495 . S
C1813 H1819 0.959 . S
C1813 H1820 0.961 . S
C1813 H1821 0.960 . S
C1814 C1812 1.381 . S
C1814 C1815 1.394 . S
C1814 H1822 0.930 . S
C1815 C1814 1.394 . S
C1815 C1816 1.383 . S
C1815 H1823 0.929 . S
C1816 C1815 1.383 . S
C1816 C1817 1.377 . S
C1817 H1801 0.930 1_655 S
C1817 C1816 1.377 . S
C1817 C1818 1.379 . S
C1818 H1802 0.931 . S
C1818 C1812 1.383 . S
C1818 C1817 1.379 . S
H1819 C1813 0.959 . S
H1820 C1813 0.961 . S
H1821 C1813 0.960 . S
H1822 C1814 0.930 . S
H1823 C1815 0.929 . S
H1824 C1832 0.929 . S
H1825 C1834 0.930 . S
H1826 C1836 0.930 . S
H1827 C1839 0.929 . S
H1828 C1842 0.930 . S
H1829 C1844 0.960 . S
H1830 C1844 0.960 . S
H1831 C1844 0.960 . S
C1832 H1824 0.929 . S
C1832 C1833 1.377 . S
C1832 C1834 1.384 . S
C1833 C1832 1.377 . S
C1833 C1839 1.390 . S
C1834 H1825 0.930 . S
C1834 C1832 1.384 . S
C1834 C1835 1.372 . S
C1835 C1834 1.372 . S
C1835 C1836 1.400 . S
C1835 C1840 1.490 . S
C1836 H1826 0.930 . S
C1836 C1835 1.400 . S
C1836 C1839 1.386 . S
H1837 C1853 0.930 . S
H1838 C1854 0.931 . S
C1839 H1827 0.929 . S
C1839 C1833 1.390 . S
C1839 C1836 1.386 . S
C1840 C1835 1.490 . S
C1840 C1842 1.395 . S
C1840 C1843 1.403 . S
H1841 C1847 0.930 . S
C1842 H1828 0.930 . S
C1842 C1840 1.395 . S
C1842 C1845 1.403 . S
C1843 C1840 1.403 . S
C1843 C1844 1.524 . S
C1843 C1847 1.400 . S
C1844 H1829 0.960 . S
C1844 H1830 0.960 . S
C1844 H1831 0.960 . S
C1844 C1843 1.524 . S
C1845 C1842 1.403 . S
C1845 C1846 1.392 . S
C1845 C1849 1.495 . S
C1846 C1845 1.392 . S
C1846 C1847 1.385 . S
C1846 C1848 1.478 . S
C1847 H1841 0.930 . S
C1847 C1843 1.400 . S
C1847 C1846 1.385 . S
C1848 C1846 1.478 . S
C1848 C1850 1.381 . S
C1848 C1854 1.383 . S
C1849 C1845 1.495 . S
C1849 H1855 0.959 . S
C1849 H1856 0.961 . S
C1849 H1857 0.960 . S
C1850 C1848 1.381 . S
C1850 C1851 1.394 . S
C1850 H1858 0.930 . S
C1851 C1850 1.394 . S
C1851 C1852 1.383 . S
C1851 H1859 0.929 . S
C1852 C1851 1.383 . S
C1852 C1853 1.377 . S
C1853 H1837 0.930 . S
C1853 C1852 1.377 . S
C1853 C1854 1.379 . S
C1854 H1838 0.931 . S
C1854 C1848 1.383 . S
C1854 C1853 1.379 . S
H1855 C1849 0.959 . S
H1856 C1849 0.961 . S
H1857 C1849 0.960 . S
H1858 C1850 0.930 . S
H1859 C1851 0.929 . S
H1860 C1868 0.929 1_565 S
H1861 C1870 0.930 . S
H1862 C1872 0.930 . S
H1863 C1875 0.929 . S
H1864 C1878 0.930 . S
H1865 C1880 0.960 . S
H1866 C1880 0.960 . S
H1867 C1880 0.960 . S
C1868 H1860 0.929 1_545 S
C1868 C1869 1.377 . S
C1868 C1870 1.384 . S
C1869 C1868 1.377 . S
C1869 C1875 1.390 . S
C1870 H1861 0.930 . S
C1870 C1868 1.384 . S
C1870 C1871 1.372 . S
C1871 C1870 1.372 . S
C1871 C1872 1.400 . S
C1871 C1876 1.490 . S
C1872 H1862 0.930 . S
C1872 C1871 1.400 . S
C1872 C1875 1.386 . S
H1873 C1889 0.930 . S
H1874 C1890 0.931 . S
C1875 H1863 0.929 . S
C1875 C1869 1.390 . S
C1875 C1872 1.386 . S
C1876 C1871 1.490 . S
C1876 C1878 1.395 . S
C1876 C1879 1.403 . S
H1877 C1883 0.930 . S
C1878 H1864 0.930 . S
C1878 C1876 1.395 . S
C1878 C1881 1.403 . S
C1879 C1876 1.403 . S
C1879 C1880 1.524 . S
C1879 C1883 1.400 . S
C1880 H1865 0.960 . S
C1880 H1866 0.960 . S
C1880 H1867 0.960 . S
C1880 C1879 1.524 . S
C1881 C1878 1.403 . S
C1881 C1882 1.392 . S
C1881 C1885 1.495 . S
C1882 C1881 1.392 . S
C1882 C1883 1.385 . S
C1882 C1884 1.478 . S
C1883 H1877 0.930 . S
C1883 C1879 1.400 . S
C1883 C1882 1.385 . S
C1884 C1882 1.478 . S
C1884 C1886 1.381 . S
C1884 C1890 1.383 . S
C1885 C1881 1.495 . S
C1885 H1891 0.959 1_455 S
C1885 H1892 0.961 . S
C1885 H1893 0.960 . S
C1886 C1884 1.381 . S
C1886 C1887 1.394 . S
C1886 H1894 0.930 . S
C1887 C1886 1.394 . S
C1887 C1888 1.383 . S
C1887 H1895 0.929 . S
C1888 C1887 1.383 . S
C1888 C1889 1.377 . S
C1889 H1873 0.930 . S
C1889 C1888 1.377 . S
C1889 C1890 1.379 . S
C1890 H1874 0.931 . S
C1890 C1884 1.383 . S
C1890 C1889 1.379 . S
H1891 C1885 0.959 1_655 S
H1892 C1885 0.961 . S
H1893 C1885 0.960 . S
H1894 C1886 0.930 . S
H1895 C1887 0.929 . S
H1896 C1904 0.929 . S
H1897 C1906 0.930 . S
H1898 C1908 0.930 . S
H1899 C1911 0.929 . S
H1900 C1914 0.930 . S
H1901 C1916 0.960 . S
H1902 C1916 0.960 . S
H1903 C1916 0.960 . S
C1904 H1896 0.929 . S
C1904 C1905 1.377 . S
C1904 C1906 1.384 . S
C1905 C1904 1.377 . S
C1905 C1911 1.390 . S
C1906 H1897 0.930 . S
C1906 C1904 1.384 . S
C1906 C1907 1.372 . S
C1907 C1906 1.372 . S
C1907 C1908 1.400 . S
C1907 C1912 1.490 . S
C1908 H1898 0.930 . S
C1908 C1907 1.400 . S
C1908 C1911 1.386 . S
H1909 C1925 0.930 . S
H1910 C1926 0.931 . S
C1911 H1899 0.929 . S
C1911 C1905 1.390 . S
C1911 C1908 1.386 . S
C1912 C1907 1.490 . S
C1912 C1914 1.395 . S
C1912 C1915 1.403 . S
H1913 C1919 0.930 . S
C1914 H1900 0.930 . S
C1914 C1912 1.395 . S
C1914 C1917 1.403 . S
C1915 C1912 1.403 . S
C1915 C1916 1.524 . S
C1915 C1919 1.400 . S
C1916 H1901 0.960 . S
C1916 H1902 0.960 . S
C1916 H1903 0.960 . S
C1916 C1915 1.524 . S
C1917 C1914 1.403 . S
C1917 C1918 1.392 . S
C1917 C1921 1.495 . S
C1918 C1917 1.392 . S
C1918 C1919 1.385 . S
C1918 C1920 1.478 . S
C1919 H1913 0.930 . S
C1919 C1915 1.400 . S
C1919 C1918 1.385 . S
C1920 C1918 1.478 . S
C1920 C1922 1.381 . S
C1920 C1926 1.383 . S
C1921 C1917 1.495 . S
C1921 H1927 0.959 . S
C1921 H1928 0.961 . S
C1921 H1929 0.960 . S
C1922 C1920 1.381 . S
C1922 C1923 1.394 . S
C1922 H1930 0.930 . S
C1923 C1922 1.394 . S
C1923 C1924 1.383 . S
C1923 H1931 0.929 . S
C1924 C1923 1.383 . S
C1924 C1925 1.377 . S
C1925 H1909 0.930 . S
C1925 C1924 1.377 . S
C1925 C1926 1.379 . S
C1926 H1910 0.931 . S
C1926 C1920 1.383 . S
C1926 C1925 1.379 . S
H1927 C1921 0.959 . S
H1928 C1921 0.961 . S
H1929 C1921 0.960 . S
H1930 C1922 0.930 . S
H1931 C1923 0.929 . S
H1932 C1940 0.929 . S
H1933 C1942 0.930 . S
H1934 C1944 0.930 . S
H1935 C1947 0.929 . S
H1936 C1950 0.930 . S
H1937 C1952 0.960 . S
H1938 C1952 0.960 . S
H1939 C1952 0.960 . S
C1940 H1932 0.929 . S
C1940 C1941 1.377 . S
C1940 C1942 1.384 . S
C1941 C1940 1.377 . S
C1941 C1947 1.390 . S
C1942 H1933 0.930 . S
C1942 C1940 1.384 . S
C1942 C1943 1.372 . S
C1943 C1942 1.372 . S
C1943 C1944 1.400 . S
C1943 C1948 1.490 . S
C1944 H1934 0.930 . S
C1944 C1943 1.400 . S
C1944 C1947 1.386 . S
H1945 C1961 0.930 . S
H1946 C1962 0.931 . S
C1947 H1935 0.929 . S
C1947 C1941 1.390 . S
C1947 C1944 1.386 . S
C1948 C1943 1.490 . S
C1948 C1950 1.395 . S
C1948 C1951 1.403 . S
H1949 C1955 0.930 . S
C1950 H1936 0.930 . S
C1950 C1948 1.395 . S
C1950 C1953 1.403 . S
C1951 C1948 1.403 . S
C1951 C1952 1.524 . S
C1951 C1955 1.400 . S
C1952 H1937 0.960 . S
C1952 H1938 0.960 . S
C1952 H1939 0.960 . S
C1952 C1951 1.524 . S
C1953 C1950 1.403 . S
C1953 C1954 1.392 . S
C1953 C1957 1.495 . S
C1954 C1953 1.392 . S
C1954 C1955 1.385 . S
C1954 C1956 1.478 . S
C1955 H1949 0.930 . S
C1955 C1951 1.400 . S
C1955 C1954 1.385 . S
C1956 C1954 1.478 . S
C1956 C1958 1.381 . S
C1956 C1962 1.383 . S
C1957 C1953 1.495 . S
C1957 H1963 0.959 . S
C1957 H1964 0.961 . S
C1957 H1965 0.960 . S
C1958 C1956 1.381 . S
C1958 C1959 1.394 . S
C1958 H1966 0.930 . S
C1959 C1958 1.394 . S
C1959 C1960 1.383 . S
C1959 H1967 0.929 . S
C1960 C1959 1.383 . S
C1960 C1961 1.377 . S
C1961 H1945 0.930 . S
C1961 C1960 1.377 . S
C1961 C1962 1.379 . S
C1962 H1946 0.931 . S
C1962 C1956 1.383 . S
C1962 C1961 1.379 . S
H1963 C1957 0.959 . S
H1964 C1957 0.961 . S
H1965 C1957 0.960 . S
H1966 C1958 0.930 . S
H1967 C1959 0.929 . S
H1968 C1976 0.929 . S
H1969 C1978 0.930 . S
H1970 C1980 0.930 . S
H1971 C1983 0.929 . S
H1972 C1986 0.930 . S
H1973 C1988 0.960 . S
H1974 C1988 0.960 . S
H1975 C1988 0.960 . S
C1976 H1968 0.929 . S
C1976 C1977 1.377 . S
C1976 C1978 1.384 . S
C1977 C1976 1.377 . S
C1977 C1983 1.390 . S
C1978 H1969 0.930 . S
C1978 C1976 1.384 . S
C1978 C1979 1.372 . S
C1979 C1978 1.372 . S
C1979 C1980 1.400 . S
C1979 C1984 1.490 . S
C1980 H1970 0.930 . S
C1980 C1979 1.400 . S
C1980 C1983 1.386 . S
H1981 C1997 0.930 . S
H1982 C1998 0.931 . S
C1983 H1971 0.929 . S
C1983 C1977 1.390 . S
C1983 C1980 1.386 . S
C1984 C1979 1.490 . S
C1984 C1986 1.395 . S
C1984 C1987 1.403 . S
H1985 C1991 0.930 . S
C1986 H1972 0.930 . S
C1986 C1984 1.395 . S
C1986 C1989 1.403 . S
C1987 C1984 1.403 . S
C1987 C1988 1.524 . S
C1987 C1991 1.400 . S
C1988 H1973 0.960 . S
C1988 H1974 0.960 . S
C1988 H1975 0.960 . S
C1988 C1987 1.524 . S
C1989 C1986 1.403 . S
C1989 C1990 1.392 . S
C1989 C1993 1.495 . S
C1990 C1989 1.392 . S
C1990 C1991 1.385 . S
C1990 C1992 1.478 . S
C1991 H1985 0.930 . S
C1991 C1987 1.400 . S
C1991 C1990 1.385 . S
C1992 C1990 1.478 . S
C1992 C1994 1.381 . S
C1992 C1998 1.383 . S
C1993 C1989 1.495 . S
C1993 H1999 0.959 . S
C1993 H2000 0.961 . S
C1993 H2001 0.960 . S
C1994 C1992 1.381 . S
C1994 C1995 1.394 . S
C1994 H2002 0.930 . S
C1995 C1994 1.394 . S
C1995 C1996 1.383 . S
C1995 H2003 0.929 . S
C1996 C1995 1.383 . S
C1996 C1997 1.377 . S
C1997 H1981 0.930 . S
C1997 C1996 1.377 . S
C1997 C1998 1.379 . S
C1998 H1982 0.931 . S
C1998 C1992 1.383 . S
C1998 C1997 1.379 . S
H1999 C1993 0.959 . S
H2000 C1993 0.961 . S
H2001 C1993 0.960 . S
H2002 C1994 0.930 . S
H2003 C1995 0.929 . S
H2004 C2012 0.882 1_565 S
H2005 C2014 0.930 . S
H2006 C2016 0.930 . S
H2007 C2019 0.929 . S
H2008 C2022 0.930 . S
H2009 C2024 0.960 . S
H2010 C2024 0.960 . S
H2011 C2024 0.960 . S
C2012 H2004 0.882 1_545 S
C2012 C2013 1.377 . S
C2012 C2014 1.384 . S
C2013 C2012 1.377 . S
C2013 C2019 1.390 . S
C2014 H2005 0.930 . S
C2014 C2012 1.384 . S
C2014 C2015 1.372 . S
C2015 C2014 1.372 . S
C2015 C2016 1.400 . S
C2015 C2020 1.490 . S
C2016 H2006 0.930 . S
C2016 C2015 1.400 . S
C2016 C2019 1.386 . S
H2017 C2033 0.930 . S
H2018 C2034 0.931 . S
C2019 H2007 0.929 . S
C2019 C2013 1.390 . S
C2019 C2016 1.386 . S
C2020 C2015 1.490 . S
C2020 C2022 1.395 . S
C2020 C2023 1.403 . S
H2021 C2027 0.930 . S
C2022 H2008 0.930 . S
C2022 C2020 1.395 . S
C2022 C2025 1.403 . S
C2023 C2020 1.403 . S
C2023 C2024 1.524 . S
C2023 C2027 1.400 . S
C2024 H2009 0.960 . S
C2024 H2010 0.960 . S
C2024 H2011 0.960 . S
C2024 C2023 1.524 . S
C2025 C2022 1.403 . S
C2025 C2026 1.392 . S
C2025 C2029 1.495 . S
C2026 C2025 1.392 . S
C2026 C2027 1.385 . S
C2026 C2028 1.478 . S
C2027 H2021 0.930 . S
C2027 C2023 1.400 . S
C2027 C2026 1.385 . S
C2028 C2026 1.478 . S
C2028 C2030 1.381 . S
C2028 C2034 1.383 . S
C2029 C2025 1.495 . S
C2029 H2035 0.959 . S
C2029 H2036 0.961 . S
C2029 H2037 0.960 . S
C2030 C2028 1.381 . S
C2030 C2031 1.394 . S
C2030 H2038 0.930 . S
C2031 C2030 1.394 . S
C2031 C2032 1.383 . S
C2031 H2039 0.929 . S
C2032 C2031 1.383 . S
C2032 C2033 1.377 . S
C2033 H2017 0.930 . S
C2033 C2032 1.377 . S
C2033 C2034 1.379 . S
C2034 H2018 0.931 . S
C2034 C2028 1.383 . S
C2034 C2033 1.379 . S
H2035 C2029 0.959 . S
H2036 C2029 0.961 . S
H2037 C2029 0.960 . S
H2038 C2030 0.930 . S
H2039 C2031 0.929 . S
H2040 C2048 0.929 . S
H2041 C2050 0.930 . S
H2042 C2052 0.930 . S
H2043 C2055 0.929 . S
H2044 C2058 0.930 . S
H2045 C2060 0.960 . S
H2046 C2060 0.960 . S
H2047 C2060 0.960 . S
C2048 H2040 0.929 . S
C2048 C2049 1.377 . S
C2048 C2050 1.384 . S
C2049 C2048 1.377 . S
C2049 C2055 1.390 . S
C2050 H2041 0.930 . S
C2050 C2048 1.384 . S
C2050 C2051 1.372 . S
C2051 C2050 1.372 . S
C2051 C2052 1.400 . S
C2051 C2056 1.490 . S
C2052 H2042 0.930 . S
C2052 C2051 1.400 . S
C2052 C2055 1.386 . S
H2053 C2069 0.930 . S
H2054 C2070 0.931 . S
C2055 H2043 0.929 . S
C2055 C2049 1.390 . S
C2055 C2052 1.386 . S
C2056 C2051 1.490 . S
C2056 C2058 1.395 . S
C2056 C2059 1.403 . S
H2057 C2063 0.930 . S
C2058 H2044 0.930 . S
C2058 C2056 1.395 . S
C2058 C2061 1.403 . S
C2059 C2056 1.403 . S
C2059 C2060 1.524 . S
C2059 C2063 1.400 . S
C2060 H2045 0.960 . S
C2060 H2046 0.960 . S
C2060 H2047 0.960 . S
C2060 C2059 1.524 . S
C2061 C2058 1.403 . S
C2061 C2062 1.392 . S
C2061 C2065 1.495 . S
C2062 C2061 1.392 . S
C2062 C2063 1.385 . S
C2062 C2064 1.478 . S
C2063 H2057 0.930 . S
C2063 C2059 1.400 . S
C2063 C2062 1.385 . S
C2064 C2062 1.478 . S
C2064 C2066 1.381 . S
C2064 C2070 1.383 . S
C2065 C2061 1.495 . S
C2065 H2071 0.959 . S
C2065 H2072 0.961 . S
C2065 H2073 0.960 . S
C2066 C2064 1.381 . S
C2066 C2067 1.394 . S
C2066 H2074 0.930 . S
C2067 C2066 1.394 . S
C2067 C2068 1.383 . S
C2067 H2075 0.929 . S
C2068 C2067 1.383 . S
C2068 C2069 1.377 . S
C2069 H2053 0.930 . S
C2069 C2068 1.377 . S
C2069 C2070 1.379 . S
C2070 H2054 0.931 . S
C2070 C2064 1.383 . S
C2070 C2069 1.379 . S
H2071 C2065 0.959 . S
H2072 C2065 0.961 . S
H2073 C2065 0.960 . S
H2074 C2066 0.930 . S
H2075 C2067 0.929 . S
H2076 C2084 0.929 . S
H2077 C2086 0.930 . S
H2078 C2088 0.930 . S
H2079 C2091 0.929 1_554 S
H2080 C2094 0.930 . S
H2081 C2096 0.960 . S
H2082 C2096 0.960 . S
H2083 C2096 0.960 . S
C2084 H2076 0.929 . S
C2084 C2085 1.377 . S
C2084 C2086 1.384 . S
C2085 C2084 1.377 . S
C2085 C2091 1.390 . S
C2086 H2077 0.930 . S
C2086 C2084 1.384 . S
C2086 C2087 1.372 . S
C2087 C2086 1.372 . S
C2087 C2088 1.400 . S
C2087 C2092 1.490 . S
C2088 H2078 0.930 . S
C2088 C2087 1.400 . S
C2088 C2091 1.386 . S
H2089 C2105 0.930 1_545 S
H2090 C2106 0.931 . S
C2091 H2079 0.929 1_556 S
C2091 C2085 1.390 . S
C2091 C2088 1.386 . S
C2092 C2087 1.490 . S
C2092 C2094 1.395 . S
C2092 C2095 1.403 . S
H2093 C2099 0.930 . S
C2094 H2080 0.930 . S
C2094 C2092 1.395 . S
C2094 C2097 1.403 . S
C2095 C2092 1.403 . S
C2095 C2096 1.524 . S
C2095 C2099 1.400 . S
C2096 H2081 0.960 . S
C2096 H2082 0.960 . S
C2096 H2083 0.960 . S
C2096 C2095 1.524 . S
C2097 C2094 1.403 . S
C2097 C2098 1.392 . S
C2097 C2101 1.495 . S
C2098 C2097 1.392 . S
C2098 C2099 1.385 . S
C2098 C2100 1.478 . S
C2099 H2093 0.930 . S
C2099 C2095 1.400 . S
C2099 C2098 1.385 . S
C2100 C2098 1.478 . S
C2100 C2102 1.381 . S
C2100 C2106 1.383 . S
C2101 C2097 1.495 . S
C2101 H2107 0.959 . S
C2101 H2108 0.961 . S
C2101 H2109 0.960 . S
C2102 C2100 1.381 . S
C2102 C2103 1.394 . S
C2102 H2110 0.930 . S
C2103 C2102 1.394 . S
C2103 C2104 1.383 . S
C2103 H2111 0.929 . S
C2104 C2103 1.383 . S
C2104 C2105 1.377 . S
C2105 H2089 0.930 1_565 S
C2105 C2104 1.377 . S
C2105 C2106 1.379 . S
C2106 H2090 0.931 . S
C2106 C2100 1.383 . S
C2106 C2105 1.379 . S
H2107 C2101 0.959 . S
H2108 C2101 0.961 . S
H2109 C2101 0.960 . S
H2110 C2102 0.930 . S
H2111 C2103 0.929 . S
H2112 C2120 0.929 . S
H2113 C2122 0.930 . S
H2114 C2124 0.930 . S
H2115 C2127 0.929 . S
H2116 C2130 0.930 . S
H2117 C2132 0.960 . S
H2118 C2132 0.960 . S
H2119 C2132 0.960 . S
C2120 H2112 0.929 . S
C2120 C2121 1.377 . S
C2120 C2122 1.384 . S
C2121 C2120 1.377 . S
C2121 C2127 1.390 . S
C2122 H2113 0.930 . S
C2122 C2120 1.384 . S
C2122 C2123 1.372 . S
C2123 C2122 1.372 . S
C2123 C2124 1.400 . S
C2123 C2128 1.490 . S
C2124 H2114 0.930 . S
C2124 C2123 1.400 . S
C2124 C2127 1.386 . S
H2125 C2141 0.930 . S
H2126 C2142 0.931 . S
C2127 H2115 0.929 . S
C2127 C2121 1.390 . S
C2127 C2124 1.386 . S
C2128 C2123 1.490 . S
C2128 C2130 1.395 . S
C2128 C2131 1.403 . S
H2129 C2135 0.930 . S
C2130 H2116 0.930 . S
C2130 C2128 1.395 . S
C2130 C2133 1.403 . S
C2131 C2128 1.403 . S
C2131 C2132 1.524 . S
C2131 C2135 1.400 . S
C2132 H2117 0.960 . S
C2132 H2118 0.960 . S
C2132 H2119 0.960 . S
C2132 C2131 1.524 . S
C2133 C2130 1.403 . S
C2133 C2134 1.392 . S
C2133 C2137 1.495 . S
C2134 C2133 1.392 . S
C2134 C2135 1.385 . S
C2134 C2136 1.478 . S
C2135 H2129 0.930 . S
C2135 C2131 1.400 . S
C2135 C2134 1.385 . S
C2136 C2134 1.478 . S
C2136 C2138 1.381 . S
C2136 C2142 1.383 . S
C2137 C2133 1.495 . S
C2137 H2143 0.959 . S
C2137 H2144 0.961 . S
C2137 H2145 0.960 . S
C2138 C2136 1.381 . S
C2138 C2139 1.394 . S
C2138 H2146 0.930 . S
C2139 C2138 1.394 . S
C2139 C2140 1.383 . S
C2139 H2147 0.929 . S
C2140 C2139 1.383 . S
C2140 C2141 1.377 . S
C2141 H2125 0.930 . S
C2141 C2140 1.377 . S
C2141 C2142 1.379 . S
C2142 H2126 0.931 . S
C2142 C2136 1.383 . S
C2142 C2141 1.379 . S
H2143 C2137 0.959 . S
H2144 C2137 0.961 . S
H2145 C2137 0.960 . S
H2146 C2138 0.930 . S
H2147 C2139 0.929 . S
H2148 C2156 0.929 . S
H2149 C2158 0.930 . S
H2150 C2160 0.930 . S
H2151 C2163 0.929 . S
H2152 C2166 0.930 . S
H2153 C2168 0.960 . S
H2154 C2168 0.960 . S
H2155 C2168 0.960 . S
C2156 H2148 0.929 . S
C2156 C2157 1.377 . S
C2156 C2158 1.384 . S
C2157 C2156 1.377 . S
C2157 C2163 1.390 . S
C2158 H2149 0.930 . S
C2158 C2156 1.384 . S
C2158 C2159 1.372 . S
C2159 C2158 1.372 . S
C2159 C2160 1.400 . S
C2159 C2164 1.490 . S
C2160 H2150 0.930 . S
C2160 C2159 1.400 . S
C2160 C2163 1.386 . S
H2161 C2177 0.930 . S
H2162 C2178 0.931 . S
C2163 H2151 0.929 . S
C2163 C2157 1.390 . S
C2163 C2160 1.386 . S
C2164 C2159 1.490 . S
C2164 C2166 1.395 . S
C2164 C2167 1.403 . S
H2165 C2171 0.930 . S
C2166 H2152 0.930 . S
C2166 C2164 1.395 . S
C2166 C2169 1.403 . S
C2167 C2164 1.403 . S
C2167 C2168 1.524 . S
C2167 C2171 1.400 . S
C2168 H2153 0.960 . S
C2168 H2154 0.960 . S
C2168 H2155 0.960 . S
C2168 C2167 1.524 . S
C2169 C2166 1.403 . S
C2169 C2170 1.392 . S
C2169 C2173 1.495 . S
C2170 C2169 1.392 . S
C2170 C2171 1.385 . S
C2170 C2172 1.478 . S
C2171 H2165 0.930 . S
C2171 C2167 1.400 . S
C2171 C2170 1.385 . S
C2172 C2170 1.478 . S
C2172 C2174 1.381 . S
C2172 C2178 1.383 . S
C2173 C2169 1.495 . S
C2173 H2179 0.959 . S
C2173 H2180 0.961 . S
C2173 H2181 0.960 . S
C2174 C2172 1.381 . S
C2174 C2175 1.394 . S
C2174 H2182 0.930 . S
C2175 C2174 1.394 . S
C2175 C2176 1.383 . S
C2175 H2183 0.929 . S
C2176 C2175 1.383 . S
C2176 C2177 1.377 . S
C2177 H2161 0.930 . S
C2177 C2176 1.377 . S
C2177 C2178 1.379 . S
C2178 H2162 0.931 . S
C2178 C2172 1.383 . S
C2178 C2177 1.379 . S
H2179 C2173 0.959 . S
H2180 C2173 0.961 . S
H2181 C2173 0.960 . S
H2182 C2174 0.930 . S
H2183 C2175 0.929 . S
H2184 C2192 0.929 . S
H2185 C2194 0.930 . S
H2186 C2196 0.930 . S
H2187 C2199 0.929 . S
H2188 C2202 0.930 . S
H2189 C2204 0.960 . S
H2190 C2204 0.960 . S
H2191 C2204 0.960 . S
C2192 H2184 0.929 . S
C2192 C2193 1.377 . S
C2192 C2194 1.384 . S
C2193 C2192 1.377 . S
C2193 C2199 1.390 . S
C2194 H2185 0.930 . S
C2194 C2192 1.384 . S
C2194 C2195 1.372 . S
C2195 C2194 1.372 . S
C2195 C2196 1.400 . S
C2195 C2200 1.490 . S
C2196 H2186 0.930 . S
C2196 C2195 1.400 . S
C2196 C2199 1.386 . S
H2197 C2213 0.930 . S
H2198 C2214 0.931 . S
C2199 H2187 0.929 . S
C2199 C2193 1.390 . S
C2199 C2196 1.386 . S
C2200 C2195 1.490 . S
C2200 C2202 1.395 . S
C2200 C2203 1.403 . S
H2201 C2207 0.930 . S
C2202 H2188 0.930 . S
C2202 C2200 1.395 . S
C2202 C2205 1.403 . S
C2203 C2200 1.403 . S
C2203 C2204 1.524 . S
C2203 C2207 1.400 . S
C2204 H2189 0.960 . S
C2204 H2190 0.960 . S
C2204 H2191 0.960 . S
C2204 C2203 1.524 . S
C2205 C2202 1.403 . S
C2205 C2206 1.392 . S
C2205 C2209 1.495 . S
C2206 C2205 1.392 . S
C2206 C2207 1.385 . S
C2206 C2208 1.478 . S
C2207 H2201 0.930 . S
C2207 C2203 1.400 . S
C2207 C2206 1.385 . S
C2208 C2206 1.478 . S
C2208 C2210 1.381 . S
C2208 C2214 1.383 . S
C2209 C2205 1.495 . S
C2209 H2215 0.959 . S
C2209 H2216 0.961 . S
C2209 H2217 0.960 . S
C2210 C2208 1.381 . S
C2210 C2211 1.394 . S
C2210 H2218 0.930 . S
C2211 C2210 1.394 . S
C2211 C2212 1.383 . S
C2211 H2219 0.929 . S
C2212 C2211 1.383 . S
C2212 C2213 1.377 . S
C2213 H2197 0.930 . S
C2213 C2212 1.377 . S
C2213 C2214 1.379 . S
C2214 H2198 0.931 . S
C2214 C2208 1.383 . S
C2214 C2213 1.379 . S
H2215 C2209 0.959 . S
H2216 C2209 0.961 . S
H2217 C2209 0.960 . S
H2218 C2210 0.930 . S
H2219 C2211 0.929 . S
H2220 C2228 0.929 . S
H2221 C2230 0.930 . S
H2222 C2232 0.930 . S
H2223 C2235 0.929 . S
H2224 C2238 0.930 . S
H2225 C2240 0.960 . S
H2226 C2240 0.960 . S
H2227 C2240 0.960 . S
C2228 H2220 0.929 . S
C2228 C2229 1.377 . S
C2228 C2230 1.384 . S
C2229 C2228 1.377 . S
C2229 C2235 1.390 . S
C2230 H2221 0.930 . S
C2230 C2228 1.384 . S
C2230 C2231 1.372 . S
C2231 C2230 1.372 . S
C2231 C2232 1.400 . S
C2231 C2236 1.490 . S
C2232 H2222 0.930 . S
C2232 C2231 1.400 . S
C2232 C2235 1.386 . S
H2233 C2249 0.930 . S
H2234 C2250 0.931 . S
C2235 H2223 0.929 . S
C2235 C2229 1.390 . S
C2235 C2232 1.386 . S
C2236 C2231 1.490 . S
C2236 C2238 1.395 . S
C2236 C2239 1.403 . S
H2237 C2243 0.930 . S
C2238 H2224 0.930 . S
C2238 C2236 1.395 . S
C2238 C2241 1.403 . S
C2239 C2236 1.403 . S
C2239 C2240 1.524 . S
C2239 C2243 1.400 . S
C2240 H2225 0.960 . S
C2240 H2226 0.960 . S
C2240 H2227 0.960 . S
C2240 C2239 1.524 . S
C2241 C2238 1.403 . S
C2241 C2242 1.392 . S
C2241 C2245 1.495 . S
C2242 C2241 1.392 . S
C2242 C2243 1.385 . S
C2242 C2244 1.478 . S
C2243 H2237 0.930 . S
C2243 C2239 1.400 . S
C2243 C2242 1.385 . S
C2244 C2242 1.478 . S
C2244 C2246 1.381 . S
C2244 C2250 1.383 . S
C2245 C2241 1.495 . S
C2245 H2251 0.959 . S
C2245 H2252 0.961 . S
C2245 H2253 0.960 . S
C2246 C2244 1.381 . S
C2246 C2247 1.394 . S
C2246 H2254 0.930 . S
C2247 C2246 1.394 . S
C2247 C2248 1.383 . S
C2247 H2255 0.929 . S
C2248 C2247 1.383 . S
C2248 C2249 1.377 . S
C2249 H2233 0.930 . S
C2249 C2248 1.377 . S
C2249 C2250 1.379 . S
C2250 H2234 0.931 . S
C2250 C2244 1.383 . S
C2250 C2249 1.379 . S
H2251 C2245 0.959 . S
H2252 C2245 0.961 . S
H2253 C2245 0.960 . S
H2254 C2246 0.930 . S
H2255 C2247 0.929 . S
H2256 C2264 0.929 . S
H2257 C2266 0.930 . S
H2258 C2268 0.930 . S
H2259 C2271 0.929 . S
H2260 C2274 0.930 . S
H2261 C2276 0.960 . S
H2262 C2276 0.960 . S
H2263 C2276 0.960 . S
C2264 H2256 0.929 . S
C2264 C2265 1.377 . S
C2264 C2266 1.384 . S
C2265 C2264 1.377 . S
C2265 C2271 1.390 . S
C2266 H2257 0.930 . S
C2266 C2264 1.384 . S
C2266 C2267 1.372 . S
C2267 C2266 1.372 . S
C2267 C2268 1.400 . S
C2267 C2272 1.490 . S
C2268 H2258 0.930 . S
C2268 C2267 1.400 . S
C2268 C2271 1.386 . S
H2269 C2285 0.930 . S
H2270 C2286 0.931 . S
C2271 H2259 0.929 . S
C2271 C2265 1.390 . S
C2271 C2268 1.386 . S
C2272 C2267 1.490 . S
C2272 C2274 1.395 . S
C2272 C2275 1.403 . S
H2273 C2279 0.930 . S
C2274 H2260 0.930 . S
C2274 C2272 1.395 . S
C2274 C2277 1.403 . S
C2275 C2272 1.403 . S
C2275 C2276 1.524 . S
C2275 C2279 1.400 . S
C2276 H2261 0.960 . S
C2276 H2262 0.960 . S
C2276 H2263 0.960 . S
C2276 C2275 1.524 . S
C2277 C2274 1.403 . S
C2277 C2278 1.392 . S
C2277 C2281 1.495 . S
C2278 C2277 1.392 . S
C2278 C2279 1.385 . S
C2278 C2280 1.478 . S
C2279 H2273 0.930 . S
C2279 C2275 1.400 . S
C2279 C2278 1.385 . S
C2280 C2278 1.478 . S
C2280 C2282 1.381 . S
C2280 C2286 1.383 . S
C2281 C2277 1.495 . S
C2281 H2287 0.959 . S
C2281 H2288 0.961 . S
C2281 H2289 0.960 . S
C2282 C2280 1.381 . S
C2282 C2283 1.394 . S
C2282 H2290 0.930 . S
C2283 C2282 1.394 . S
C2283 C2284 1.383 . S
C2283 H2291 0.929 . S
C2284 C2283 1.383 . S
C2284 C2285 1.377 . S
C2285 H2269 0.930 . S
C2285 C2284 1.377 . S
C2285 C2286 1.379 . S
C2286 H2270 0.931 . S
C2286 C2280 1.383 . S
C2286 C2285 1.379 . S
H2287 C2281 0.959 . S
H2288 C2281 0.961 . S
H2289 C2281 0.960 . S
H2290 C2282 0.930 . S
H2291 C2283 0.929 . S
H2292 C2300 0.929 . S
H2293 C2302 0.930 . S
H2294 C2304 0.930 . S
H2295 C2307 0.929 . S
H2296 C2310 0.930 . S
H2297 C2312 0.960 . S
H2298 C2312 0.960 . S
H2299 C2312 0.960 . S
C2300 H2292 0.929 . S
C2300 C2301 1.377 . S
C2300 C2302 1.384 . S
C2301 C2300 1.377 . S
C2301 C2307 1.390 . S
C2302 H2293 0.930 . S
C2302 C2300 1.384 . S
C2302 C2303 1.372 . S
C2303 C2302 1.372 . S
C2303 C2304 1.400 . S
C2303 C2308 1.490 . S
C2304 H2294 0.930 . S
C2304 C2303 1.400 . S
C2304 C2307 1.386 . S
H2305 C2321 0.930 . S
H2306 C2322 0.931 . S
C2307 H2295 0.929 . S
C2307 C2301 1.390 . S
C2307 C2304 1.386 . S
C2308 C2303 1.490 . S
C2308 C2310 1.395 . S
C2308 C2311 1.403 . S
H2309 C2315 0.930 . S
C2310 H2296 0.930 . S
C2310 C2308 1.395 . S
C2310 C2313 1.403 . S
C2311 C2308 1.403 . S
C2311 C2312 1.524 . S
C2311 C2315 1.400 . S
C2312 H2297 0.960 . S
C2312 H2298 0.960 . S
C2312 H2299 0.960 . S
C2312 C2311 1.524 . S
C2313 C2310 1.403 . S
C2313 C2314 1.392 . S
C2313 C2317 1.495 . S
C2314 C2313 1.392 . S
C2314 C2315 1.385 . S
C2314 C2316 1.478 . S
C2315 H2309 0.930 . S
C2315 C2311 1.400 . S
C2315 C2314 1.385 . S
C2316 C2314 1.478 . S
C2316 C2318 1.381 . S
C2316 C2322 1.383 . S
C2317 C2313 1.495 . S
C2317 H2323 0.959 . S
C2317 H2324 0.961 . S
C2317 H2325 0.960 . S
C2318 C2316 1.381 . S
C2318 C2319 1.394 . S
C2318 H2326 0.930 . S
C2319 C2318 1.394 . S
C2319 C2320 1.383 . S
C2319 H2327 0.929 . S
C2320 C2319 1.383 . S
C2320 C2321 1.377 . S
C2321 H2305 0.930 . S
C2321 C2320 1.377 . S
C2321 C2322 1.379 . S
C2322 H2306 0.931 . S
C2322 C2316 1.383 . S
C2322 C2321 1.379 . S
H2323 C2317 0.959 . S
H2324 C2317 0.961 . S
H2325 C2317 0.960 . S
H2326 C2318 0.930 . S
H2327 C2319 0.929 . S
H2328 C2336 0.929 . S
H2329 C2338 0.930 . S
H2330 C2340 0.930 . S
H2331 C2343 0.929 . S
H2332 C2346 0.930 . S
H2333 C2348 0.960 . S
H2334 C2348 0.960 . S
H2335 C2348 0.960 . S
C2336 H2328 0.929 . S
C2336 C2337 1.377 . S
C2336 C2338 1.384 . S
C2337 C2336 1.377 . S
C2337 C2343 1.390 . S
C2338 H2329 0.930 . S
C2338 C2336 1.384 . S
C2338 C2339 1.372 . S
C2339 C2338 1.372 . S
C2339 C2340 1.400 . S
C2339 C2344 1.490 . S
C2340 H2330 0.930 . S
C2340 C2339 1.400 . S
C2340 C2343 1.386 . S
H2341 C2357 0.930 . S
H2342 C2358 0.931 . S
C2343 H2331 0.929 . S
C2343 C2337 1.390 . S
C2343 C2340 1.386 . S
C2344 C2339 1.490 . S
C2344 C2346 1.395 . S
C2344 C2347 1.403 . S
H2345 C2351 0.930 . S
C2346 H2332 0.930 . S
C2346 C2344 1.395 . S
C2346 C2349 1.403 . S
C2347 C2344 1.403 . S
C2347 C2348 1.524 . S
C2347 C2351 1.400 . S
C2348 H2333 0.960 . S
C2348 H2334 0.960 . S
C2348 H2335 0.960 . S
C2348 C2347 1.524 . S
C2349 C2346 1.403 . S
C2349 C2350 1.392 . S
C2349 C2353 1.495 . S
C2350 C2349 1.392 . S
C2350 C2351 1.385 . S
C2350 C2352 1.478 . S
C2351 H2345 0.930 . S
C2351 C2347 1.400 . S
C2351 C2350 1.385 . S
C2352 C2350 1.478 . S
C2352 C2354 1.381 . S
C2352 C2358 1.383 . S
C2353 C2349 1.495 . S
C2353 H2359 0.959 . S
C2353 H2360 0.961 . S
C2353 H2361 0.960 . S
C2354 C2352 1.381 . S
C2354 C2355 1.394 . S
C2354 H2362 0.930 . S
C2355 C2354 1.394 . S
C2355 C2356 1.383 . S
C2355 H2363 0.929 . S
C2356 C2355 1.383 . S
C2356 C2357 1.377 . S
C2357 H2341 0.930 . S
C2357 C2356 1.377 . S
C2357 C2358 1.379 . S
C2358 H2342 0.931 . S
C2358 C2352 1.383 . S
C2358 C2357 1.379 . S
H2359 C2353 0.959 . S
H2360 C2353 0.961 . S
H2361 C2353 0.960 . S
H2362 C2354 0.930 . S
H2363 C2355 0.929 . S
H2364 C2372 0.929 . S
H2365 C2374 0.930 . S
H2366 C2376 0.930 . S
H2367 C2379 0.929 . S
H2368 C2382 0.930 . S
H2369 C2384 0.960 . S
H2370 C2384 0.960 . S
H2371 C2384 0.960 . S
C2372 H2364 0.929 . S
C2372 C2373 1.377 . S
C2372 C2374 1.384 . S
C2373 C2372 1.377 . S
C2373 C2379 1.390 . S
C2374 H2365 0.930 . S
C2374 C2372 1.384 . S
C2374 C2375 1.372 . S
C2375 C2374 1.372 . S
C2375 C2376 1.400 . S
C2375 C2380 1.490 . S
C2376 H2366 0.930 . S
C2376 C2375 1.400 . S
C2376 C2379 1.386 . S
H2377 C2393 0.930 . S
H2378 C2394 0.931 . S
C2379 H2367 0.929 . S
C2379 C2373 1.390 . S
C2379 C2376 1.386 . S
C2380 C2375 1.490 . S
C2380 C2382 1.395 . S
C2380 C2383 1.403 . S
H2381 C2387 0.930 . S
C2382 H2368 0.930 . S
C2382 C2380 1.395 . S
C2382 C2385 1.403 . S
C2383 C2380 1.403 . S
C2383 C2384 1.524 . S
C2383 C2387 1.400 . S
C2384 H2369 0.960 . S
C2384 H2370 0.960 . S
C2384 H2371 0.960 . S
C2384 C2383 1.524 . S
C2385 C2382 1.403 . S
C2385 C2386 1.392 . S
C2385 C2389 1.495 . S
C2386 C2385 1.392 . S
C2386 C2387 1.385 . S
C2386 C2388 1.478 . S
C2387 H2381 0.930 . S
C2387 C2383 1.400 . S
C2387 C2386 1.385 . S
C2388 C2386 1.478 . S
C2388 C2390 1.381 . S
C2388 C2394 1.383 . S
C2389 C2385 1.495 . S
C2389 H2395 0.959 . S
C2389 H2396 0.961 . S
C2389 H2397 0.960 . S
C2390 C2388 1.381 . S
C2390 C2391 1.394 . S
C2390 H2398 0.930 . S
C2391 C2390 1.394 . S
C2391 C2392 1.383 . S
C2391 H2399 0.929 . S
C2392 C2391 1.383 . S
C2392 C2393 1.377 . S
C2393 H2377 0.930 . S
C2393 C2392 1.377 . S
C2393 C2394 1.379 . S
C2394 H2378 0.931 . S
C2394 C2388 1.383 . S
C2394 C2393 1.379 . S
H2395 C2389 0.959 . S
H2396 C2389 0.961 . S
H2397 C2389 0.960 . S
H2398 C2390 0.930 . S
H2399 C2391 0.929 . S
H2400 C2408 0.929 . S
H2401 C2410 0.930 . S
H2402 C2412 0.930 . S
H2403 C2415 0.929 . S
H2404 C2418 0.930 . S
H2405 C2420 0.960 . S
H2406 C2420 0.960 . S
H2407 C2420 0.960 . S
C2408 H2400 0.929 . S
C2408 C2409 1.377 . S
C2408 C2410 1.384 . S
C2409 C2408 1.377 . S
C2409 C2415 1.390 . S
C2410 H2401 0.930 . S
C2410 C2408 1.384 . S
C2410 C2411 1.372 . S
C2411 C2410 1.372 . S
C2411 C2412 1.400 . S
C2411 C2416 1.490 . S
C2412 H2402 0.930 . S
C2412 C2411 1.400 . S
C2412 C2415 1.386 . S
H2413 C2429 0.930 . S
H2414 C2430 0.931 . S
C2415 H2403 0.929 . S
C2415 C2409 1.390 . S
C2415 C2412 1.386 . S
C2416 C2411 1.490 . S
C2416 C2418 1.395 . S
C2416 C2419 1.403 . S
H2417 C2423 0.930 . S
C2418 H2404 0.930 . S
C2418 C2416 1.395 . S
C2418 C2421 1.403 . S
C2419 C2416 1.403 . S
C2419 C2420 1.524 . S
C2419 C2423 1.400 . S
C2420 H2405 0.960 . S
C2420 H2406 0.960 . S
C2420 H2407 0.960 . S
C2420 C2419 1.524 . S
C2421 C2418 1.403 . S
C2421 C2422 1.392 . S
C2421 C2425 1.495 . S
C2422 C2421 1.392 . S
C2422 C2423 1.385 . S
C2422 C2424 1.478 . S
C2423 H2417 0.930 . S
C2423 C2419 1.400 . S
C2423 C2422 1.385 . S
C2424 C2422 1.478 . S
C2424 C2426 1.381 . S
C2424 C2430 1.383 . S
C2425 C2421 1.495 . S
C2425 H2431 0.959 . S
C2425 H2432 0.961 . S
C2425 H2433 0.960 . S
C2426 C2424 1.381 . S
C2426 C2427 1.394 . S
C2426 H2434 0.930 . S
C2427 C2426 1.394 . S
C2427 C2428 1.383 . S
C2427 H2435 0.929 . S
C2428 C2427 1.383 . S
C2428 C2429 1.377 . S
C2429 H2413 0.930 . S
C2429 C2428 1.377 . S
C2429 C2430 1.379 . S
C2430 H2414 0.931 . S
C2430 C2424 1.383 . S
C2430 C2429 1.379 . S
H2431 C2425 0.959 . S
H2432 C2425 0.961 . S
H2433 C2425 0.960 . S
H2434 C2426 0.930 . S
H2435 C2427 0.929 . S
H2436 C2444 0.929 . S
H2437 C2446 0.930 . S
H2438 C2448 0.930 . S
H2439 C2451 0.929 . S
H2440 C2454 0.930 . S
H2441 C2456 0.960 . S
H2442 C2456 0.960 . S
H2443 C2456 0.960 . S
C2444 H2436 0.929 . S
C2444 C2445 1.377 . S
C2444 C2446 1.384 . S
C2445 C2444 1.377 . S
C2445 C2451 1.390 . S
C2446 H2437 0.930 . S
C2446 C2444 1.384 . S
C2446 C2447 1.372 . S
C2447 C2446 1.372 . S
C2447 C2448 1.400 . S
C2447 C2452 1.490 . S
C2448 H2438 0.930 . S
C2448 C2447 1.400 . S
C2448 C2451 1.386 . S
H2449 C2465 0.930 . S
H2450 C2466 0.931 . S
C2451 H2439 0.929 . S
C2451 C2445 1.390 . S
C2451 C2448 1.386 . S
C2452 C2447 1.490 . S
C2452 C2454 1.395 . S
C2452 C2455 1.403 . S
H2453 C2459 0.930 . S
C2454 H2440 0.930 . S
C2454 C2452 1.395 . S
C2454 C2457 1.403 . S
C2455 C2452 1.403 . S
C2455 C2456 1.524 . S
C2455 C2459 1.400 . S
C2456 H2441 0.960 . S
C2456 H2442 0.960 . S
C2456 H2443 0.960 . S
C2456 C2455 1.524 . S
C2457 C2454 1.403 . S
C2457 C2458 1.392 . S
C2457 C2461 1.495 . S
C2458 C2457 1.392 . S
C2458 C2459 1.385 . S
C2458 C2460 1.478 . S
C2459 H2453 0.930 . S
C2459 C2455 1.400 . S
C2459 C2458 1.385 . S
C2460 C2458 1.478 . S
C2460 C2462 1.381 . S
C2460 C2466 1.383 . S
C2461 C2457 1.495 . S
C2461 H2467 0.959 . S
C2461 H2468 0.961 . S
C2461 H2469 0.960 . S
C2462 C2460 1.381 . S
C2462 C2463 1.394 . S
C2462 H2470 0.930 . S
C2463 C2462 1.394 . S
C2463 C2464 1.383 . S
C2463 H2471 0.929 . S
C2464 C2463 1.383 . S
C2464 C2465 1.377 . S
C2465 H2449 0.930 . S
C2465 C2464 1.377 . S
C2465 C2466 1.379 . S
C2466 H2450 0.931 . S
C2466 C2460 1.383 . S
C2466 C2465 1.379 . S
H2467 C2461 0.959 . S
H2468 C2461 0.961 . S
H2469 C2461 0.960 . S
H2470 C2462 0.930 . S
H2471 C2463 0.929 . S
H2472 C2480 0.929 . S
H2473 C2482 0.930 . S
H2474 C2484 0.930 . S
H2475 C2487 0.929 . S
H2476 C2490 0.930 . S
H2477 C2492 0.960 . S
H2478 C2492 0.960 . S
H2479 C2492 0.960 . S
C2480 H2472 0.929 . S
C2480 C2481 1.377 . S
C2480 C2482 1.384 . S
C2481 C2480 1.377 . S
C2481 C2487 1.390 . S
C2482 H2473 0.930 . S
C2482 C2480 1.384 . S
C2482 C2483 1.372 . S
C2483 C2482 1.372 . S
C2483 C2484 1.400 . S
C2483 C2488 1.490 . S
C2484 H2474 0.930 . S
C2484 C2483 1.400 . S
C2484 C2487 1.386 . S
H2485 C2501 0.930 . S
H2486 C2502 0.931 . S
C2487 H2475 0.929 . S
C2487 C2481 1.390 . S
C2487 C2484 1.386 . S
C2488 C2483 1.490 . S
C2488 C2490 1.395 . S
C2488 C2491 1.403 . S
H2489 C2495 0.930 . S
C2490 H2476 0.930 . S
C2490 C2488 1.395 . S
C2490 C2493 1.403 . S
C2491 C2488 1.403 . S
C2491 C2492 1.524 . S
C2491 C2495 1.400 . S
C2492 H2477 0.960 . S
C2492 H2478 0.960 . S
C2492 H2479 0.960 . S
C2492 C2491 1.524 . S
C2493 C2490 1.403 . S
C2493 C2494 1.392 . S
C2493 C2497 1.495 . S
C2494 C2493 1.392 . S
C2494 C2495 1.385 . S
C2494 C2496 1.478 . S
C2495 H2489 0.930 . S
C2495 C2491 1.400 . S
C2495 C2494 1.385 . S
C2496 C2494 1.478 . S
C2496 C2498 1.381 . S
C2496 C2502 1.383 . S
C2497 C2493 1.495 . S
C2497 H2503 0.959 . S
C2497 H2504 0.961 . S
C2497 H2505 0.960 . S
C2498 C2496 1.381 . S
C2498 C2499 1.394 . S
C2498 H2506 0.930 . S
C2499 C2498 1.394 . S
C2499 C2500 1.383 . S
C2499 H2507 0.929 . S
C2500 C2499 1.383 . S
C2500 C2501 1.377 . S
C2501 H2485 0.930 . S
C2501 C2500 1.377 . S
C2501 C2502 1.379 . S
C2502 H2486 0.931 . S
C2502 C2496 1.383 . S
C2502 C2501 1.379 . S
H2503 C2497 0.959 . S
H2504 C2497 0.961 . S
H2505 C2497 0.960 . S
H2506 C2498 0.930 . S
H2507 C2499 0.929 . S
H2508 C2516 0.893 1_655 S
H2509 C2518 0.930 . S
H2510 C2520 0.930 . S
H2511 C2523 0.929 . S
H2512 C2526 0.930 . S
H2513 C2528 0.960 . S
H2514 C2528 0.960 . S
H2515 C2528 0.960 . S
C2516 H2508 0.893 1_455 S
C2516 C2517 1.377 . S
C2516 C2518 1.384 . S
C2517 C2516 1.377 . S
C2517 C2523 1.390 . S
C2518 H2509 0.930 . S
C2518 C2516 1.384 . S
C2518 C2519 1.372 . S
C2519 C2518 1.372 . S
C2519 C2520 1.400 . S
C2519 C2524 1.490 . S
C2520 H2510 0.930 . S
C2520 C2519 1.400 . S
C2520 C2523 1.386 . S
H2521 C2537 0.930 . S
H2522 C2538 0.931 . S
C2523 H2511 0.929 . S
C2523 C2517 1.390 . S
C2523 C2520 1.386 . S
C2524 C2519 1.490 . S
C2524 C2526 1.395 . S
C2524 C2527 1.403 . S
H2525 C2531 0.930 . S
C2526 H2512 0.930 . S
C2526 C2524 1.395 . S
C2526 C2529 1.403 . S
C2527 C2524 1.403 . S
C2527 C2528 1.524 . S
C2527 C2531 1.400 . S
C2528 H2513 0.960 . S
C2528 H2514 0.960 . S
C2528 H2515 0.960 . S
C2528 C2527 1.524 . S
C2529 C2526 1.403 . S
C2529 C2530 1.392 . S
C2529 C2533 1.495 . S
C2530 C2529 1.392 . S
C2530 C2531 1.385 . S
C2530 C2532 1.478 . S
C2531 H2525 0.930 . S
C2531 C2527 1.400 . S
C2531 C2530 1.385 . S
C2532 C2530 1.478 . S
C2532 C2534 1.381 . S
C2532 C2538 1.383 . S
C2533 C2529 1.495 . S
C2533 H2539 0.959 . S
C2533 H2540 0.961 . S
C2533 H2541 0.960 . S
C2534 C2532 1.381 . S
C2534 C2535 1.394 . S
C2534 H2542 0.930 . S
C2535 C2534 1.394 . S
C2535 C2536 1.383 . S
C2535 H2543 0.929 . S
C2536 C2535 1.383 . S
C2536 C2537 1.377 . S
C2537 H2521 0.930 . S
C2537 C2536 1.377 . S
C2537 C2538 1.379 . S
C2538 H2522 0.931 . S
C2538 C2532 1.383 . S
C2538 C2537 1.379 . S
H2539 C2533 0.959 . S
H2540 C2533 0.961 . S
H2541 C2533 0.960 . S
H2542 C2534 0.930 . S
H2543 C2535 0.929 . S
H2544 C2552 0.929 . S
H2545 C2554 0.930 . S
H2546 C2556 0.930 . S
H2547 C2559 0.929 . S
H2548 C2562 0.930 . S
H2549 C2564 0.960 . S
H2550 C2564 0.960 . S
H2551 C2564 0.960 . S
C2552 H2544 0.929 . S
C2552 C2553 1.377 . S
C2552 C2554 1.384 . S
C2553 C2552 1.377 . S
C2553 C2559 1.390 . S
C2554 H2545 0.930 . S
C2554 C2552 1.384 . S
C2554 C2555 1.372 . S
C2555 C2554 1.372 . S
C2555 C2556 1.400 . S
C2555 C2560 1.490 . S
C2556 H2546 0.930 . S
C2556 C2555 1.400 . S
C2556 C2559 1.386 . S
H2557 C2573 0.930 . S
H2558 C2574 0.931 . S
C2559 H2547 0.929 . S
C2559 C2553 1.390 . S
C2559 C2556 1.386 . S
C2560 C2555 1.490 . S
C2560 C2562 1.395 . S
C2560 C2563 1.403 . S
H2561 C2567 0.930 . S
C2562 H2548 0.930 . S
C2562 C2560 1.395 . S
C2562 C2565 1.403 . S
C2563 C2560 1.403 . S
C2563 C2564 1.524 . S
C2563 C2567 1.400 . S
C2564 H2549 0.960 . S
C2564 H2550 0.960 . S
C2564 H2551 0.960 . S
C2564 C2563 1.524 . S
C2565 C2562 1.403 . S
C2565 C2566 1.392 . S
C2565 C2569 1.495 . S
C2566 C2565 1.392 . S
C2566 C2567 1.385 . S
C2566 C2568 1.478 . S
C2567 H2561 0.930 . S
C2567 C2563 1.400 . S
C2567 C2566 1.385 . S
C2568 C2566 1.478 . S
C2568 C2570 1.381 . S
C2568 C2574 1.383 . S
C2569 C2565 1.495 . S
C2569 H2575 0.959 . S
C2569 H2576 0.961 . S
C2569 H2577 0.960 . S
C2570 C2568 1.381 . S
C2570 C2571 1.394 . S
C2570 H2578 0.930 . S
C2571 C2570 1.394 . S
C2571 C2572 1.383 . S
C2571 H2579 0.929 . S
C2572 C2571 1.383 . S
C2572 C2573 1.377 . S
C2573 H2557 0.930 . S
C2573 C2572 1.377 . S
C2573 C2574 1.379 . S
C2574 H2558 0.931 . S
C2574 C2568 1.383 . S
C2574 C2573 1.379 . S
H2575 C2569 0.959 . S
H2576 C2569 0.961 . S
H2577 C2569 0.960 . S
H2578 C2570 0.930 . S
H2579 C2571 0.929 . S
H2580 C2588 0.929 . S
H2581 C2590 0.930 . S
H2582 C2592 0.930 . S
H2583 C2595 0.929 . S
H2584 C2598 0.930 . S
H2585 C2600 0.960 . S
H2586 C2600 0.960 . S
H2587 C2600 0.960 . S
C2588 H2580 0.929 . S
C2588 C2589 1.377 . S
C2588 C2590 1.384 . S
C2589 C2588 1.377 . S
C2589 C2595 1.390 . S
C2590 H2581 0.930 . S
C2590 C2588 1.384 . S
C2590 C2591 1.372 . S
C2591 C2590 1.372 . S
C2591 C2592 1.400 . S
C2591 C2596 1.490 . S
C2592 H2582 0.930 . S
C2592 C2591 1.400 . S
C2592 C2595 1.386 . S
H2593 C2609 0.930 . S
H2594 C2610 0.931 . S
C2595 H2583 0.929 . S
C2595 C2589 1.390 . S
C2595 C2592 1.386 . S
C2596 C2591 1.490 . S
C2596 C2598 1.395 . S
C2596 C2599 1.403 . S
H2597 C2603 0.930 . S
C2598 H2584 0.930 . S
C2598 C2596 1.395 . S
C2598 C2601 1.403 . S
C2599 C2596 1.403 . S
C2599 C2600 1.524 . S
C2599 C2603 1.400 . S
C2600 H2585 0.960 . S
C2600 H2586 0.960 . S
C2600 H2587 0.960 . S
C2600 C2599 1.524 . S
C2601 C2598 1.403 . S
C2601 C2602 1.392 . S
C2601 C2605 1.495 . S
C2602 C2601 1.392 . S
C2602 C2603 1.385 . S
C2602 C2604 1.478 . S
C2603 H2597 0.930 . S
C2603 C2599 1.400 . S
C2603 C2602 1.385 . S
C2604 C2602 1.478 . S
C2604 C2606 1.381 . S
C2604 C2610 1.383 . S
C2605 C2601 1.495 . S
C2605 H2611 0.959 . S
C2605 H2612 0.961 . S
C2605 H2613 0.960 . S
C2606 C2604 1.381 . S
C2606 C2607 1.394 . S
C2606 H2614 0.930 . S
C2607 C2606 1.394 . S
C2607 C2608 1.383 . S
C2607 H2615 0.929 . S
C2608 C2607 1.383 . S
C2608 C2609 1.377 . S
C2609 H2593 0.930 . S
C2609 C2608 1.377 . S
C2609 C2610 1.379 . S
C2610 H2594 0.931 . S
C2610 C2604 1.383 . S
C2610 C2609 1.379 . S
H2611 C2605 0.959 . S
H2612 C2605 0.961 . S
H2613 C2605 0.960 . S
H2614 C2606 0.930 . S
H2615 C2607 0.929 . S
H2616 C2624 0.929 . S
H2617 C2626 0.930 . S
H2618 C2628 0.930 . S
H2619 C2631 0.929 . S
H2620 C2634 0.930 . S
H2621 C2636 0.960 . S
H2622 C2636 0.960 . S
H2623 C2636 0.960 . S
C2624 H2616 0.929 . S
C2624 C2625 1.377 . S
C2624 C2626 1.384 . S
C2625 C2624 1.377 . S
C2625 C2631 1.390 . S
C2626 H2617 0.930 . S
C2626 C2624 1.384 . S
C2626 C2627 1.372 . S
C2627 C2626 1.372 . S
C2627 C2628 1.400 . S
C2627 C2632 1.490 . S
C2628 H2618 0.930 . S
C2628 C2627 1.400 . S
C2628 C2631 1.386 . S
H2629 C2645 0.930 . S
H2630 C2646 0.931 . S
C2631 H2619 0.929 . S
C2631 C2625 1.390 . S
C2631 C2628 1.386 . S
C2632 C2627 1.490 . S
C2632 C2634 1.395 . S
C2632 C2635 1.403 . S
H2633 C2639 0.930 . S
C2634 H2620 0.930 . S
C2634 C2632 1.395 . S
C2634 C2637 1.403 . S
C2635 C2632 1.403 . S
C2635 C2636 1.524 . S
C2635 C2639 1.400 . S
C2636 H2621 0.960 . S
C2636 H2622 0.960 . S
C2636 H2623 0.960 . S
C2636 C2635 1.524 . S
C2637 C2634 1.403 . S
C2637 C2638 1.392 . S
C2637 C2641 1.495 . S
C2638 C2637 1.392 . S
C2638 C2639 1.385 . S
C2638 C2640 1.478 . S
C2639 H2633 0.930 . S
C2639 C2635 1.400 . S
C2639 C2638 1.385 . S
C2640 C2638 1.478 . S
C2640 C2642 1.381 . S
C2640 C2646 1.383 . S
C2641 C2637 1.495 . S
C2641 H2647 0.959 . S
C2641 H2648 0.961 . S
C2641 H2649 0.960 . S
C2642 C2640 1.381 . S
C2642 C2643 1.394 . S
C2642 H2650 0.930 . S
C2643 C2642 1.394 . S
C2643 C2644 1.383 . S
C2643 H2651 0.929 . S
C2644 C2643 1.383 . S
C2644 C2645 1.377 . S
C2645 H2629 0.930 . S
C2645 C2644 1.377 . S
C2645 C2646 1.379 . S
C2646 H2630 0.931 . S
C2646 C2640 1.383 . S
C2646 C2645 1.379 . S
H2647 C2641 0.959 . S
H2648 C2641 0.961 . S
H2649 C2641 0.960 . S
H2650 C2642 0.930 . S
H2651 C2643 0.929 . S
H2652 C2660 0.929 . S
H2653 C2662 0.930 . S
H2654 C2664 0.930 . S
H2655 C2667 0.929 . S
H2656 C2670 0.930 . S
H2657 C2672 0.960 . S
H2658 C2672 0.960 . S
H2659 C2672 0.960 . S
C2660 H2652 0.929 . S
C2660 C2661 1.377 . S
C2660 C2662 1.384 . S
C2661 C2660 1.377 . S
C2661 C2667 1.390 . S
C2662 H2653 0.930 . S
C2662 C2660 1.384 . S
C2662 C2663 1.372 . S
C2663 C2662 1.372 . S
C2663 C2664 1.400 . S
C2663 C2668 1.490 . S
C2664 H2654 0.930 . S
C2664 C2663 1.400 . S
C2664 C2667 1.386 . S
H2665 C2681 0.930 . S
H2666 C2682 0.931 . S
C2667 H2655 0.929 . S
C2667 C2661 1.390 . S
C2667 C2664 1.386 . S
C2668 C2663 1.490 . S
C2668 C2670 1.395 . S
C2668 C2671 1.403 . S
H2669 C2675 0.930 . S
C2670 H2656 0.930 . S
C2670 C2668 1.395 . S
C2670 C2673 1.403 . S
C2671 C2668 1.403 . S
C2671 C2672 1.524 . S
C2671 C2675 1.400 . S
C2672 H2657 0.960 . S
C2672 H2658 0.960 . S
C2672 H2659 0.960 . S
C2672 C2671 1.524 . S
C2673 C2670 1.403 . S
C2673 C2674 1.392 . S
C2673 C2677 1.495 . S
C2674 C2673 1.392 . S
C2674 C2675 1.385 . S
C2674 C2676 1.478 . S
C2675 H2669 0.930 . S
C2675 C2671 1.400 . S
C2675 C2674 1.385 . S
C2676 C2674 1.478 . S
C2676 C2678 1.381 . S
C2676 C2682 1.383 . S
C2677 C2673 1.495 . S
C2677 H2683 0.959 . S
C2677 H2684 0.961 . S
C2677 H2685 0.960 . S
C2678 C2676 1.381 . S
C2678 C2679 1.394 . S
C2678 H2686 0.930 . S
C2679 C2678 1.394 . S
C2679 C2680 1.383 . S
C2679 H2687 0.929 . S
C2680 C2679 1.383 . S
C2680 C2681 1.377 . S
C2681 H2665 0.930 . S
C2681 C2680 1.377 . S
C2681 C2682 1.379 . S
C2682 H2666 0.931 . S
C2682 C2676 1.383 . S
C2682 C2681 1.379 . S
H2683 C2677 0.959 . S
H2684 C2677 0.961 . S
H2685 C2677 0.960 . S
H2686 C2678 0.930 . S
H2687 C2679 0.929 . S
H2688 C2696 0.929 . S
H2689 C2698 0.930 . S
H2690 C2700 0.930 . S
H2691 C2703 0.929 . S
H2692 C2706 0.930 . S
H2693 C2708 0.960 . S
H2694 C2708 0.960 . S
H2695 C2708 0.960 . S
C2696 H2688 0.929 . S
C2696 C2697 1.377 . S
C2696 C2698 1.384 . S
C2697 C2696 1.377 . S
C2697 C2703 1.390 . S
C2698 H2689 0.930 . S
C2698 C2696 1.384 . S
C2698 C2699 1.372 . S
C2699 C2698 1.372 . S
C2699 C2700 1.400 . S
C2699 C2704 1.490 . S
C2700 H2690 0.930 . S
C2700 C2699 1.400 . S
C2700 C2703 1.386 . S
H2701 C2717 0.930 . S
H2702 C2718 0.931 . S
C2703 H2691 0.929 . S
C2703 C2697 1.390 . S
C2703 C2700 1.386 . S
C2704 C2699 1.490 . S
C2704 C2706 1.395 . S
C2704 C2707 1.403 . S
H2705 C2711 0.930 . S
C2706 H2692 0.930 . S
C2706 C2704 1.395 . S
C2706 C2709 1.403 . S
C2707 C2704 1.403 . S
C2707 C2708 1.524 . S
C2707 C2711 1.400 . S
C2708 H2693 0.960 . S
C2708 H2694 0.960 . S
C2708 H2695 0.960 . S
C2708 C2707 1.524 . S
C2709 C2706 1.403 . S
C2709 C2710 1.392 . S
C2709 C2713 1.495 . S
C2710 C2709 1.392 . S
C2710 C2711 1.385 . S
C2710 C2712 1.478 . S
C2711 H2705 0.930 . S
C2711 C2707 1.400 . S
C2711 C2710 1.385 . S
C2712 C2710 1.478 . S
C2712 C2714 1.381 . S
C2712 C2718 1.383 . S
C2713 C2709 1.495 . S
C2713 H2719 0.959 . S
C2713 H2720 0.961 . S
C2713 H2721 0.960 . S
C2714 C2712 1.381 . S
C2714 C2715 1.394 . S
C2714 H2722 0.930 . S
C2715 C2714 1.394 . S
C2715 C2716 1.383 . S
C2715 H2723 0.929 . S
C2716 C2715 1.383 . S
C2716 C2717 1.377 . S
C2717 H2701 0.930 . S
C2717 C2716 1.377 . S
C2717 C2718 1.379 . S
C2718 H2702 0.931 . S
C2718 C2712 1.383 . S
C2718 C2717 1.379 . S
H2719 C2713 0.959 . S
H2720 C2713 0.961 . S
H2721 C2713 0.960 . S
H2722 C2714 0.930 . S
H2723 C2715 0.929 . S
H2724 C2732 0.929 . S
H2725 C2734 0.930 . S
H2726 C2736 0.930 . S
H2727 C2739 0.929 . S
H2728 C2742 0.930 . S
H2729 C2744 0.960 . S
H2730 C2744 0.960 . S
H2731 C2744 0.960 . S
C2732 H2724 0.929 . S
C2732 C2733 1.377 . S
C2732 C2734 1.384 . S
C2733 C2732 1.377 . S
C2733 C2739 1.390 . S
C2734 H2725 0.930 . S
C2734 C2732 1.384 . S
C2734 C2735 1.372 . S
C2735 C2734 1.372 . S
C2735 C2736 1.400 . S
C2735 C2740 1.490 . S
C2736 H2726 0.930 . S
C2736 C2735 1.400 . S
C2736 C2739 1.386 . S
H2737 C2753 0.930 . S
H2738 C2754 0.931 . S
C2739 H2727 0.929 . S
C2739 C2733 1.390 . S
C2739 C2736 1.386 . S
C2740 C2735 1.490 . S
C2740 C2742 1.395 . S
C2740 C2743 1.403 . S
H2741 C2747 0.930 . S
C2742 H2728 0.930 . S
C2742 C2740 1.395 . S
C2742 C2745 1.403 . S
C2743 C2740 1.403 . S
C2743 C2744 1.524 . S
C2743 C2747 1.400 . S
C2744 H2729 0.960 . S
C2744 H2730 0.960 . S
C2744 H2731 0.960 . S
C2744 C2743 1.524 . S
C2745 C2742 1.403 . S
C2745 C2746 1.392 . S
C2745 C2749 1.495 . S
C2746 C2745 1.392 . S
C2746 C2747 1.385 . S
C2746 C2748 1.478 . S
C2747 H2741 0.930 . S
C2747 C2743 1.400 . S
C2747 C2746 1.385 . S
C2748 C2746 1.478 . S
C2748 C2750 1.381 . S
C2748 C2754 1.383 . S
C2749 C2745 1.495 . S
C2749 H2755 0.959 . S
C2749 H2756 0.961 . S
C2749 H2757 0.960 . S
C2750 C2748 1.381 . S
C2750 C2751 1.394 . S
C2750 H2758 0.930 . S
C2751 C2750 1.394 . S
C2751 C2752 1.383 . S
C2751 H2759 0.929 1_554 S
C2752 C2751 1.383 . S
C2752 C2753 1.377 . S
C2753 H2737 0.930 . S
C2753 C2752 1.377 . S
C2753 C2754 1.379 . S
C2754 H2738 0.931 . S
C2754 C2748 1.383 . S
C2754 C2753 1.379 . S
H2755 C2749 0.959 . S
H2756 C2749 0.961 . S
H2757 C2749 0.960 . S
H2758 C2750 0.930 . S
H2759 C2751 0.929 1_556 S
H2760 C2768 0.929 . S
H2761 C2770 0.930 . S
H2762 C2772 0.930 . S
H2763 C2775 0.929 . S
H2764 C2778 0.930 . S
H2765 C2780 0.960 . S
H2766 C2780 0.960 . S
H2767 C2780 0.960 . S
C2768 H2760 0.929 . S
C2768 C2769 1.377 . S
C2768 C2770 1.384 . S
C2769 C2768 1.377 . S
C2769 C2775 1.390 . S
C2770 H2761 0.930 . S
C2770 C2768 1.384 . S
C2770 C2771 1.372 . S
C2771 C2770 1.372 . S
C2771 C2772 1.400 . S
C2771 C2776 1.490 . S
C2772 H2762 0.930 . S
C2772 C2771 1.400 . S
C2772 C2775 1.386 . S
H2773 C2789 0.930 . S
H2774 C2790 0.931 . S
C2775 H2763 0.929 . S
C2775 C2769 1.390 . S
C2775 C2772 1.386 . S
C2776 C2771 1.490 . S
C2776 C2778 1.395 . S
C2776 C2779 1.403 . S
H2777 C2783 0.930 . S
C2778 H2764 0.930 . S
C2778 C2776 1.395 . S
C2778 C2781 1.403 . S
C2779 C2776 1.403 . S
C2779 C2780 1.524 . S
C2779 C2783 1.400 . S
C2780 H2765 0.960 . S
C2780 H2766 0.960 . S
C2780 H2767 0.960 . S
C2780 C2779 1.524 . S
C2781 C2778 1.403 . S
C2781 C2782 1.392 . S
C2781 C2785 1.495 . S
C2782 C2781 1.392 . S
C2782 C2783 1.385 . S
C2782 C2784 1.478 . S
C2783 H2777 0.930 . S
C2783 C2779 1.400 . S
C2783 C2782 1.385 . S
C2784 C2782 1.478 . S
C2784 C2786 1.381 . S
C2784 C2790 1.383 . S
C2785 C2781 1.495 . S
C2785 H2791 0.959 . S
C2785 H2792 0.961 . S
C2785 H2793 0.960 . S
C2786 C2784 1.381 . S
C2786 C2787 1.394 . S
C2786 H2794 0.930 . S
C2787 C2786 1.394 . S
C2787 C2788 1.383 . S
C2787 H2795 0.929 . S
C2788 C2787 1.383 . S
C2788 C2789 1.377 . S
C2789 H2773 0.930 . S
C2789 C2788 1.377 . S
C2789 C2790 1.379 . S
C2790 H2774 0.931 . S
C2790 C2784 1.383 . S
C2790 C2789 1.379 . S
H2791 C2785 0.959 . S
H2792 C2785 0.961 . S
H2793 C2785 0.960 . S
H2794 C2786 0.930 . S
H2795 C2787 0.929 . S
H2796 C2804 0.929 . S
H2797 C2806 0.930 . S
H2798 C2808 0.930 . S
H2799 C2811 0.929 . S
H2800 C2814 0.930 . S
H2801 C2816 0.960 . S
H2802 C2816 0.960 . S
H2803 C2816 0.960 . S
C2804 H2796 0.929 . S
C2804 C2805 1.377 . S
C2804 C2806 1.384 . S
C2805 C2804 1.377 . S
C2805 C2811 1.390 . S
C2806 H2797 0.930 . S
C2806 C2804 1.384 . S
C2806 C2807 1.372 . S
C2807 C2806 1.372 . S
C2807 C2808 1.400 . S
C2807 C2812 1.490 . S
C2808 H2798 0.930 . S
C2808 C2807 1.400 . S
C2808 C2811 1.386 . S
H2809 C2825 0.930 . S
H2810 C2826 0.931 . S
C2811 H2799 0.929 . S
C2811 C2805 1.390 . S
C2811 C2808 1.386 . S
C2812 C2807 1.490 . S
C2812 C2814 1.395 . S
C2812 C2815 1.403 . S
H2813 C2819 0.930 . S
C2814 H2800 0.930 . S
C2814 C2812 1.395 . S
C2814 C2817 1.403 . S
C2815 C2812 1.403 . S
C2815 C2816 1.524 . S
C2815 C2819 1.400 . S
C2816 H2801 0.960 . S
C2816 H2802 0.960 . S
C2816 H2803 0.960 . S
C2816 C2815 1.524 . S
C2817 C2814 1.403 . S
C2817 C2818 1.392 . S
C2817 C2821 1.495 . S
C2818 C2817 1.392 . S
C2818 C2819 1.385 . S
C2818 C2820 1.478 . S
C2819 H2813 0.930 . S
C2819 C2815 1.400 . S
C2819 C2818 1.385 . S
C2820 C2818 1.478 . S
C2820 C2822 1.381 . S
C2820 C2826 1.383 . S
C2821 C2817 1.495 . S
C2821 H2827 0.959 . S
C2821 H2828 0.961 . S
C2821 H2829 0.960 . S
C2822 C2820 1.381 . S
C2822 C2823 1.394 . S
C2822 H2830 0.930 . S
C2823 C2822 1.394 . S
C2823 C2824 1.383 . S
C2823 H2831 0.929 . S
C2824 C2823 1.383 . S
C2824 C2825 1.377 . S
C2825 H2809 0.930 . S
C2825 C2824 1.377 . S
C2825 C2826 1.379 . S
C2826 H2810 0.931 . S
C2826 C2820 1.383 . S
C2826 C2825 1.379 . S
H2827 C2821 0.959 . S
H2828 C2821 0.961 . S
H2829 C2821 0.960 . S
H2830 C2822 0.930 . S
H2831 C2823 0.929 . S
H2832 C2840 0.929 . S
H2833 C2842 0.930 . S
H2834 C2844 0.930 . S
H2835 C2847 0.929 . S
H2836 C2850 0.930 . S
H2837 C2852 0.960 . S
H2838 C2852 0.960 . S
H2839 C2852 0.960 . S
C2840 H2832 0.929 . S
C2840 C2841 1.377 . S
C2840 C2842 1.384 . S
C2841 C2840 1.377 . S
C2841 C2847 1.390 . S
C2842 H2833 0.930 . S
C2842 C2840 1.384 . S
C2842 C2843 1.372 . S
C2843 C2842 1.372 . S
C2843 C2844 1.400 . S
C2843 C2848 1.490 . S
C2844 H2834 0.930 . S
C2844 C2843 1.400 . S
C2844 C2847 1.386 . S
H2845 C2861 0.930 . S
H2846 C2862 0.931 . S
C2847 H2835 0.929 . S
C2847 C2841 1.390 . S
C2847 C2844 1.386 . S
C2848 C2843 1.490 . S
C2848 C2850 1.395 . S
C2848 C2851 1.403 . S
H2849 C2855 0.930 . S
C2850 H2836 0.930 . S
C2850 C2848 1.395 . S
C2850 C2853 1.403 . S
C2851 C2848 1.403 . S
C2851 C2852 1.524 . S
C2851 C2855 1.400 . S
C2852 H2837 0.960 . S
C2852 H2838 0.960 . S
C2852 H2839 0.960 . S
C2852 C2851 1.524 . S
C2853 C2850 1.403 . S
C2853 C2854 1.392 . S
C2853 C2857 1.495 . S
C2854 C2853 1.392 . S
C2854 C2855 1.385 . S
C2854 C2856 1.478 . S
C2855 H2849 0.930 . S
C2855 C2851 1.400 . S
C2855 C2854 1.385 . S
C2856 C2854 1.478 . S
C2856 C2858 1.381 . S
C2856 C2862 1.383 . S
C2857 C2853 1.495 . S
C2857 H2863 0.959 . S
C2857 H2864 0.961 . S
C2857 H2865 0.960 . S
C2858 C2856 1.381 . S
C2858 C2859 1.394 . S
C2858 H2866 0.930 . S
C2859 C2858 1.394 . S
C2859 C2860 1.383 . S
C2859 H2867 0.929 . S
C2860 C2859 1.383 . S
C2860 C2861 1.377 . S
C2861 H2845 0.930 . S
C2861 C2860 1.377 . S
C2861 C2862 1.379 . S
C2862 H2846 0.931 . S
C2862 C2856 1.383 . S
C2862 C2861 1.379 . S
H2863 C2857 0.959 . S
H2864 C2857 0.961 . S
H2865 C2857 0.960 . S
H2866 C2858 0.930 . S
H2867 C2859 0.929 . S
H2868 C2876 0.929 . S
H2869 C2878 0.930 . S
H2870 C2880 0.930 . S
H2871 C2883 0.929 . S
H2872 C2886 0.930 . S
H2873 C2888 0.960 . S
H2874 C2888 0.960 . S
H2875 C2888 0.960 . S
C2876 H2868 0.929 . S
C2876 C2877 1.377 . S
C2876 C2878 1.384 . S
C2877 C2876 1.377 . S
C2877 C2883 1.390 . S
C2878 H2869 0.930 . S
C2878 C2876 1.384 . S
C2878 C2879 1.372 . S
C2879 C2878 1.372 . S
C2879 C2880 1.400 . S
C2879 C2884 1.490 . S
C2880 H2870 0.930 . S
C2880 C2879 1.400 . S
C2880 C2883 1.386 . S
H2881 C2897 0.930 . S
H2882 C2898 0.931 . S
C2883 H2871 0.929 . S
C2883 C2877 1.390 . S
C2883 C2880 1.386 . S
C2884 C2879 1.490 . S
C2884 C2886 1.395 . S
C2884 C2887 1.403 . S
H2885 C2891 0.930 . S
C2886 H2872 0.930 . S
C2886 C2884 1.395 . S
C2886 C2889 1.403 . S
C2887 C2884 1.403 . S
C2887 C2888 1.524 . S
C2887 C2891 1.400 . S
C2888 H2873 0.960 . S
C2888 H2874 0.960 . S
C2888 H2875 0.960 . S
C2888 C2887 1.524 . S
C2889 C2886 1.403 . S
C2889 C2890 1.392 . S
C2889 C2893 1.495 . S
C2890 C2889 1.392 . S
C2890 C2891 1.385 . S
C2890 C2892 1.478 . S
C2891 H2885 0.930 . S
C2891 C2887 1.400 . S
C2891 C2890 1.385 . S
C2892 C2890 1.478 . S
C2892 C2894 1.381 . S
C2892 C2898 1.383 . S
C2893 C2889 1.495 . S
C2893 H2899 0.959 . S
C2893 H2900 0.961 . S
C2893 H2901 0.960 . S
C2894 C2892 1.381 . S
C2894 C2895 1.394 . S
C2894 H2902 0.930 . S
C2895 C2894 1.394 . S
C2895 C2896 1.383 . S
C2895 H2903 0.929 . S
C2896 C2895 1.383 . S
C2896 C2897 1.377 . S
C2897 H2881 0.930 . S
C2897 C2896 1.377 . S
C2897 C2898 1.379 . S
C2898 H2882 0.931 . S
C2898 C2892 1.383 . S
C2898 C2897 1.379 . S
H2899 C2893 0.959 . S
H2900 C2893 0.961 . S
H2901 C2893 0.960 . S
H2902 C2894 0.930 . S
H2903 C2895 0.929 . S
H2904 C2912 0.929 . S
H2905 C2914 0.930 . S
H2906 C2916 0.930 . S
H2907 C2919 0.929 . S
H2908 C2922 0.930 . S
H2909 C2924 0.960 . S
H2910 C2924 0.960 . S
H2911 C2924 0.960 . S
C2912 H2904 0.929 . S
C2912 C2913 1.377 . S
C2912 C2914 1.384 . S
C2913 C2912 1.377 . S
C2913 C2919 1.390 . S
C2914 H2905 0.930 . S
C2914 C2912 1.384 . S
C2914 C2915 1.372 . S
C2915 C2914 1.372 . S
C2915 C2916 1.400 . S
C2915 C2920 1.490 . S
C2916 H2906 0.930 . S
C2916 C2915 1.400 . S
C2916 C2919 1.386 . S
H2917 C2933 0.930 . S
H2918 C2934 0.931 . S
C2919 H2907 0.929 . S
C2919 C2913 1.390 . S
C2919 C2916 1.386 . S
C2920 C2915 1.490 . S
C2920 C2922 1.395 . S
C2920 C2923 1.403 . S
H2921 C2927 0.930 . S
C2922 H2908 0.930 . S
C2922 C2920 1.395 . S
C2922 C2925 1.403 . S
C2923 C2920 1.403 . S
C2923 C2924 1.524 . S
C2923 C2927 1.400 . S
C2924 H2909 0.960 . S
C2924 H2910 0.960 . S
C2924 H2911 0.960 . S
C2924 C2923 1.524 . S
C2925 C2922 1.403 . S
C2925 C2926 1.392 . S
C2925 C2929 1.495 . S
C2926 C2925 1.392 . S
C2926 C2927 1.385 . S
C2926 C2928 1.478 . S
C2927 H2921 0.930 . S
C2927 C2923 1.400 . S
C2927 C2926 1.385 . S
C2928 C2926 1.478 . S
C2928 C2930 1.381 . S
C2928 C2934 1.383 . S
C2929 C2925 1.495 . S
C2929 H2935 0.959 . S
C2929 H2936 0.961 . S
C2929 H2937 0.960 . S
C2930 C2928 1.381 . S
C2930 C2931 1.394 . S
C2930 H2938 0.930 . S
C2931 C2930 1.394 . S
C2931 C2932 1.383 . S
C2931 H2939 0.929 . S
C2932 C2931 1.383 . S
C2932 C2933 1.377 . S
C2933 H2917 0.930 . S
C2933 C2932 1.377 . S
C2933 C2934 1.379 . S
C2934 H2918 0.931 . S
C2934 C2928 1.383 . S
C2934 C2933 1.379 . S
H2935 C2929 0.959 . S
H2936 C2929 0.961 . S
H2937 C2929 0.960 . S
H2938 C2930 0.930 . S
H2939 C2931 0.929 . S
H2940 C2948 0.929 . S
H2941 C2950 0.930 . S
H2942 C2952 0.930 . S
H2943 C2955 0.929 . S
H2944 C2958 0.930 . S
H2945 C2960 0.960 . S
H2946 C2960 0.960 . S
H2947 C2960 0.960 . S
C2948 H2940 0.929 . S
C2948 C2949 1.377 . S
C2948 C2950 1.384 . S
C2949 C2948 1.377 . S
C2949 C2955 1.390 . S
C2950 H2941 0.930 . S
C2950 C2948 1.384 . S
C2950 C2951 1.372 . S
C2951 C2950 1.372 . S
C2951 C2952 1.400 . S
C2951 C2956 1.490 . S
C2952 H2942 0.930 . S
C2952 C2951 1.400 . S
C2952 C2955 1.386 . S
H2953 C2969 0.930 . S
H2954 C2970 0.931 . S
C2955 H2943 0.929 . S
C2955 C2949 1.390 . S
C2955 C2952 1.386 . S
C2956 C2951 1.490 . S
C2956 C2958 1.395 . S
C2956 C2959 1.403 . S
H2957 C2963 0.930 . S
C2958 H2944 0.930 . S
C2958 C2956 1.395 . S
C2958 C2961 1.403 . S
C2959 C2956 1.403 . S
C2959 C2960 1.524 . S
C2959 C2963 1.400 . S
C2960 H2945 0.960 . S
C2960 H2946 0.960 . S
C2960 H2947 0.960 . S
C2960 C2959 1.524 . S
C2961 C2958 1.403 . S
C2961 C2962 1.392 . S
C2961 C2965 1.495 . S
C2962 C2961 1.392 . S
C2962 C2963 1.385 . S
C2962 C2964 1.478 . S
C2963 H2957 0.930 . S
C2963 C2959 1.400 . S
C2963 C2962 1.385 . S
C2964 C2962 1.478 . S
C2964 C2966 1.381 . S
C2964 C2970 1.383 . S
C2965 C2961 1.495 . S
C2965 H2971 0.959 . S
C2965 H2972 0.961 . S
C2965 H2973 0.960 . S
C2966 C2964 1.381 . S
C2966 C2967 1.394 . S
C2966 H2974 0.930 . S
C2967 C2966 1.394 . S
C2967 C2968 1.383 . S
C2967 H2975 0.929 . S
C2968 C2967 1.383 . S
C2968 C2969 1.377 . S
C2969 H2953 0.930 . S
C2969 C2968 1.377 . S
C2969 C2970 1.379 . S
C2970 H2954 0.931 . S
C2970 C2964 1.383 . S
C2970 C2969 1.379 . S
H2971 C2965 0.959 . S
H2972 C2965 0.961 . S
H2973 C2965 0.960 . S
H2974 C2966 0.930 . S
H2975 C2967 0.929 . S
H2976 C2984 0.929 . S
H2977 C2986 0.930 . S
H2978 C2988 0.930 . S
H2979 C2991 0.929 . S
H2980 C2994 0.930 . S
H2981 C2996 0.960 . S
H2982 C2996 0.960 . S
H2983 C2996 0.960 . S
C2984 H2976 0.929 . S
C2984 C2985 1.377 . S
C2984 C2986 1.384 . S
C2985 C2984 1.377 . S
C2985 C2991 1.390 . S
C2986 H2977 0.930 . S
C2986 C2984 1.384 . S
C2986 C2987 1.372 . S
C2987 C2986 1.372 . S
C2987 C2988 1.400 . S
C2987 C2992 1.490 . S
C2988 H2978 0.930 . S
C2988 C2987 1.400 . S
C2988 C2991 1.386 . S
H2989 C3005 0.930 . S
H2990 C3006 0.931 . S
C2991 H2979 0.929 . S
C2991 C2985 1.390 . S
C2991 C2988 1.386 . S
C2992 C2987 1.490 . S
C2992 C2994 1.395 . S
C2992 C2995 1.403 . S
H2993 C2999 0.930 . S
C2994 H2980 0.930 . S
C2994 C2992 1.395 . S
C2994 C2997 1.403 . S
C2995 C2992 1.403 . S
C2995 C2996 1.524 . S
C2995 C2999 1.400 . S
C2996 H2981 0.960 . S
C2996 H2982 0.960 . S
C2996 H2983 0.960 . S
C2996 C2995 1.524 . S
C2997 C2994 1.403 . S
C2997 C2998 1.392 . S
C2997 C3001 1.495 . S
C2998 C2997 1.392 . S
C2998 C2999 1.385 . S
C2998 C3000 1.478 . S
C2999 H2993 0.930 . S
C2999 C2995 1.400 . S
C2999 C2998 1.385 . S
C3000 C2998 1.478 . S
C3000 C3002 1.381 . S
C3000 C3006 1.383 . S
C3001 C2997 1.495 . S
C3001 H3007 0.959 . S
C3001 H3008 0.961 . S
C3001 H3009 0.960 . S
C3002 C3000 1.381 . S
C3002 C3003 1.394 . S
C3002 H3010 0.930 . S
C3003 C3002 1.394 . S
C3003 C3004 1.383 . S
C3003 H3011 0.929 . S
C3004 C3003 1.383 . S
C3004 C3005 1.377 . S
C3005 H2989 0.930 . S
C3005 C3004 1.377 . S
C3005 C3006 1.379 . S
C3006 H2990 0.931 . S
C3006 C3000 1.383 . S
C3006 C3005 1.379 . S
H3007 C3001 0.959 . S
H3008 C3001 0.961 . S
H3009 C3001 0.960 . S
H3010 C3002 0.930 . S
H3011 C3003 0.929 . S
H3012 C3020 0.929 . S
H3013 C3022 0.930 . S
H3014 C3024 0.930 . S
H3015 C3027 0.929 . S
H3016 C3030 0.930 . S
H3017 C3032 0.960 . S
H3018 C3032 0.960 . S
H3019 C3032 0.960 . S
C3020 H3012 0.929 . S
C3020 C3021 1.377 . S
C3020 C3022 1.384 . S
C3021 C3020 1.377 . S
C3021 C3027 1.390 . S
C3022 H3013 0.930 . S
C3022 C3020 1.384 . S
C3022 C3023 1.372 . S
C3023 C3022 1.372 . S
C3023 C3024 1.400 . S
C3023 C3028 1.490 . S
C3024 H3014 0.930 . S
C3024 C3023 1.400 . S
C3024 C3027 1.386 . S
H3025 C3041 0.930 . S
H3026 C3042 0.931 . S
C3027 H3015 0.929 . S
C3027 C3021 1.390 . S
C3027 C3024 1.386 . S
C3028 C3023 1.490 . S
C3028 C3030 1.395 . S
C3028 C3031 1.403 . S
H3029 C3035 0.930 . S
C3030 H3016 0.930 . S
C3030 C3028 1.395 . S
C3030 C3033 1.403 . S
C3031 C3028 1.403 . S
C3031 C3032 1.524 . S
C3031 C3035 1.400 . S
C3032 H3017 0.960 . S
C3032 H3018 0.960 . S
C3032 H3019 0.960 . S
C3032 C3031 1.524 . S
C3033 C3030 1.403 . S
C3033 C3034 1.392 . S
C3033 C3037 1.495 . S
C3034 C3033 1.392 . S
C3034 C3035 1.385 . S
C3034 C3036 1.478 . S
C3035 H3029 0.930 . S
C3035 C3031 1.400 . S
C3035 C3034 1.385 . S
C3036 C3034 1.478 . S
C3036 C3038 1.381 . S
C3036 C3042 1.383 . S
C3037 C3033 1.495 . S
C3037 H3043 0.959 . S
C3037 H3044 0.961 . S
C3037 H3045 0.960 . S
C3038 C3036 1.381 . S
C3038 C3039 1.394 . S
C3038 H3046 0.930 . S
C3039 C3038 1.394 . S
C3039 C3040 1.383 . S
C3039 H3047 0.929 . S
C3040 C3039 1.383 . S
C3040 C3041 1.377 . S
C3041 H3025 0.930 . S
C3041 C3040 1.377 . S
C3041 C3042 1.379 . S
C3042 H3026 0.931 . S
C3042 C3036 1.383 . S
C3042 C3041 1.379 . S
H3043 C3037 0.959 . S
H3044 C3037 0.961 . S
H3045 C3037 0.960 . S
H3046 C3038 0.930 . S
H3047 C3039 0.929 . S
H3048 C3056 0.929 . S
H3049 C3058 0.930 . S
H3050 C3060 0.930 . S
H3051 C3063 0.929 . S
H3052 C3066 0.930 . S
H3053 C3068 0.960 . S
H3054 C3068 0.960 . S
H3055 C3068 0.960 . S
C3056 H3048 0.929 . S
C3056 C3057 1.377 . S
C3056 C3058 1.384 . S
C3057 C3056 1.377 . S
C3057 C3063 1.390 . S
C3058 H3049 0.930 . S
C3058 C3056 1.384 . S
C3058 C3059 1.372 . S
C3059 C3058 1.372 . S
C3059 C3060 1.400 . S
C3059 C3064 1.490 . S
C3060 H3050 0.930 . S
C3060 C3059 1.400 . S
C3060 C3063 1.386 . S
H3061 C3077 0.930 . S
H3062 C3078 0.931 . S
C3063 H3051 0.929 . S
C3063 C3057 1.390 . S
C3063 C3060 1.386 . S
C3064 C3059 1.490 . S
C3064 C3066 1.395 . S
C3064 C3067 1.403 . S
H3065 C3071 0.930 . S
C3066 H3052 0.930 . S
C3066 C3064 1.395 . S
C3066 C3069 1.403 . S
C3067 C3064 1.403 . S
C3067 C3068 1.524 . S
C3067 C3071 1.400 . S
C3068 H3053 0.960 . S
C3068 H3054 0.960 . S
C3068 H3055 0.960 . S
C3068 C3067 1.524 . S
C3069 C3066 1.403 . S
C3069 C3070 1.392 . S
C3069 C3073 1.495 . S
C3070 C3069 1.392 . S
C3070 C3071 1.385 . S
C3070 C3072 1.478 . S
C3071 H3065 0.930 . S
C3071 C3067 1.400 . S
C3071 C3070 1.385 . S
C3072 C3070 1.478 . S
C3072 C3074 1.381 . S
C3072 C3078 1.383 . S
C3073 C3069 1.495 . S
C3073 H3079 0.959 . S
C3073 H3080 0.961 . S
C3073 H3081 0.960 . S
C3074 C3072 1.381 . S
C3074 C3075 1.394 . S
C3074 H3082 0.930 . S
C3075 C3074 1.394 . S
C3075 C3076 1.383 . S
C3075 H3083 0.929 1_545 S
C3076 C3075 1.383 . S
C3076 C3077 1.377 . S
C3077 H3061 0.930 . S
C3077 C3076 1.377 . S
C3077 C3078 1.379 . S
C3078 H3062 0.931 . S
C3078 C3072 1.383 . S
C3078 C3077 1.379 . S
H3079 C3073 0.959 . S
H3080 C3073 0.961 . S
H3081 C3073 0.960 . S
H3082 C3074 0.930 . S
H3083 C3075 0.929 1_565 S
H3084 C3092 0.929 . S
H3085 C3094 0.930 . S
H3086 C3096 0.930 . S
H3087 C3099 0.929 . S
H3088 C3102 0.930 . S
H3089 C3104 0.960 . S
H3090 C3104 0.960 . S
H3091 C3104 0.960 . S
C3092 H3084 0.929 . S
C3092 C3093 1.377 . S
C3092 C3094 1.384 . S
C3093 C3092 1.377 . S
C3093 C3099 1.390 . S
C3094 H3085 0.930 . S
C3094 C3092 1.384 . S
C3094 C3095 1.372 . S
C3095 C3094 1.372 . S
C3095 C3096 1.400 . S
C3095 C3100 1.490 . S
C3096 H3086 0.930 . S
C3096 C3095 1.400 . S
C3096 C3099 1.386 . S
H3097 C3113 0.930 . S
H3098 C3114 0.931 . S
C3099 H3087 0.929 . S
C3099 C3093 1.390 . S
C3099 C3096 1.386 . S
C3100 C3095 1.490 . S
C3100 C3102 1.395 . S
C3100 C3103 1.403 . S
H3101 C3107 0.930 . S
C3102 H3088 0.930 . S
C3102 C3100 1.395 . S
C3102 C3105 1.403 . S
C3103 C3100 1.403 . S
C3103 C3104 1.524 . S
C3103 C3107 1.400 . S
C3104 H3089 0.960 . S
C3104 H3090 0.960 . S
C3104 H3091 0.960 . S
C3104 C3103 1.524 . S
C3105 C3102 1.403 . S
C3105 C3106 1.392 . S
C3105 C3109 1.495 . S
C3106 C3105 1.392 . S
C3106 C3107 1.385 . S
C3106 C3108 1.478 . S
C3107 H3101 0.930 . S
C3107 C3103 1.400 . S
C3107 C3106 1.385 . S
C3108 C3106 1.478 . S
C3108 C3110 1.381 . S
C3108 C3114 1.383 . S
C3109 C3105 1.495 . S
C3109 H3115 0.959 . S
C3109 H3116 0.961 . S
C3109 H3117 0.960 . S
C3110 C3108 1.381 . S
C3110 C3111 1.394 . S
C3110 H3118 0.930 . S
C3111 C3110 1.394 . S
C3111 C3112 1.383 . S
C3111 H3119 0.929 . S
C3112 C3111 1.383 . S
C3112 C3113 1.377 . S
C3113 H3097 0.930 . S
C3113 C3112 1.377 . S
C3113 C3114 1.379 . S
C3114 H3098 0.931 . S
C3114 C3108 1.383 . S
C3114 C3113 1.379 . S
H3115 C3109 0.959 . S
H3116 C3109 0.961 . S
H3117 C3109 0.960 . S
H3118 C3110 0.930 . S
H3119 C3111 0.929 . S
H3120 C3128 0.929 . S
H3121 C3130 0.930 . S
H3122 C3132 0.930 . S
H3123 C3135 0.929 . S
H3124 C3138 0.930 . S
H3125 C3140 0.960 . S
H3126 C3140 0.960 . S
H3127 C3140 0.960 . S
C3128 H3120 0.929 . S
C3128 C3129 1.377 . S
C3128 C3130 1.384 . S
C3129 C3128 1.377 . S
C3129 C3135 1.390 . S
C3130 H3121 0.930 . S
C3130 C3128 1.384 . S
C3130 C3131 1.372 . S
C3131 C3130 1.372 . S
C3131 C3132 1.400 . S
C3131 C3136 1.490 . S
C3132 H3122 0.930 . S
C3132 C3131 1.400 . S
C3132 C3135 1.386 . S
H3133 C3149 0.930 . S
H3134 C3150 0.931 . S
C3135 H3123 0.929 . S
C3135 C3129 1.390 . S
C3135 C3132 1.386 . S
C3136 C3131 1.490 . S
C3136 C3138 1.395 . S
C3136 C3139 1.403 . S
H3137 C3143 0.930 . S
C3138 H3124 0.930 . S
C3138 C3136 1.395 . S
C3138 C3141 1.403 . S
C3139 C3136 1.403 . S
C3139 C3140 1.524 . S
C3139 C3143 1.400 . S
C3140 H3125 0.960 . S
C3140 H3126 0.960 . S
C3140 H3127 0.960 . S
C3140 C3139 1.524 . S
C3141 C3138 1.403 . S
C3141 C3142 1.392 . S
C3141 C3145 1.495 . S
C3142 C3141 1.392 . S
C3142 C3143 1.385 . S
C3142 C3144 1.478 . S
C3143 H3137 0.930 . S
C3143 C3139 1.400 . S
C3143 C3142 1.385 . S
C3144 C3142 1.478 . S
C3144 C3146 1.381 . S
C3144 C3150 1.383 . S
C3145 C3141 1.495 . S
C3145 H3151 0.959 . S
C3145 H3152 0.961 . S
C3145 H3153 0.960 . S
C3146 C3144 1.381 . S
C3146 C3147 1.394 . S
C3146 H3154 0.930 . S
C3147 C3146 1.394 . S
C3147 C3148 1.383 . S
C3147 H3155 0.929 . S
C3148 C3147 1.383 . S
C3148 C3149 1.377 . S
C3149 H3133 0.930 . S
C3149 C3148 1.377 . S
C3149 C3150 1.379 . S
C3150 H3134 0.931 . S
C3150 C3144 1.383 . S
C3150 C3149 1.379 . S
H3151 C3145 0.959 . S
H3152 C3145 0.961 . S
H3153 C3145 0.960 . S
H3154 C3146 0.930 . S
H3155 C3147 0.929 . S
H3156 C3164 0.929 . S
H3157 C3166 0.930 . S
H3158 C3168 0.930 . S
H3159 C3171 0.929 . S
H3160 C3174 0.930 . S
H3161 C3176 0.960 . S
H3162 C3176 0.960 . S
H3163 C3176 0.960 . S
C3164 H3156 0.929 . S
C3164 C3165 1.377 . S
C3164 C3166 1.384 . S
C3165 C3164 1.377 . S
C3165 C3171 1.390 . S
C3166 H3157 0.930 . S
C3166 C3164 1.384 . S
C3166 C3167 1.372 . S
C3167 C3166 1.372 . S
C3167 C3168 1.400 . S
C3167 C3172 1.490 . S
C3168 H3158 0.930 . S
C3168 C3167 1.400 . S
C3168 C3171 1.386 . S
H3169 C3185 0.930 . S
H3170 C3186 0.931 . S
C3171 H3159 0.929 . S
C3171 C3165 1.390 . S
C3171 C3168 1.386 . S
C3172 C3167 1.490 . S
C3172 C3174 1.395 . S
C3172 C3175 1.403 . S
H3173 C3179 0.930 . S
C3174 H3160 0.930 . S
C3174 C3172 1.395 . S
C3174 C3177 1.403 . S
C3175 C3172 1.403 . S
C3175 C3176 1.524 . S
C3175 C3179 1.400 . S
C3176 H3161 0.960 . S
C3176 H3162 0.960 . S
C3176 H3163 0.960 . S
C3176 C3175 1.524 . S
C3177 C3174 1.403 . S
C3177 C3178 1.392 . S
C3177 C3181 1.495 . S
C3178 C3177 1.392 . S
C3178 C3179 1.385 . S
C3178 C3180 1.478 . S
C3179 H3173 0.930 . S
C3179 C3175 1.400 . S
C3179 C3178 1.385 . S
C3180 C3178 1.478 . S
C3180 C3182 1.381 . S
C3180 C3186 1.383 . S
C3181 C3177 1.495 . S
C3181 H3187 0.959 . S
C3181 H3188 0.961 . S
C3181 H3189 0.960 . S
C3182 C3180 1.381 . S
C3182 C3183 1.394 . S
C3182 H3190 0.930 . S
C3183 C3182 1.394 . S
C3183 C3184 1.383 . S
C3183 H3191 0.929 . S
C3184 C3183 1.383 . S
C3184 C3185 1.377 . S
C3185 H3169 0.930 . S
C3185 C3184 1.377 . S
C3185 C3186 1.379 . S
C3186 H3170 0.931 . S
C3186 C3180 1.383 . S
C3186 C3185 1.379 . S
H3187 C3181 0.959 . S
H3188 C3181 0.961 . S
H3189 C3181 0.960 . S
H3190 C3182 0.930 . S
H3191 C3183 0.929 . S
H3192 C3200 0.929 . S
H3193 C3202 0.930 . S
H3194 C3204 0.930 . S
H3195 C3207 0.929 . S
H3196 C3210 0.930 . S
H3197 C3212 0.960 . S
H3198 C3212 0.960 . S
H3199 C3212 0.960 . S
C3200 H3192 0.929 . S
C3200 C3201 1.377 . S
C3200 C3202 1.384 . S
C3201 C3200 1.377 . S
C3201 C3207 1.390 . S
C3202 H3193 0.930 . S
C3202 C3200 1.384 . S
C3202 C3203 1.372 . S
C3203 C3202 1.372 . S
C3203 C3204 1.400 . S
C3203 C3208 1.490 . S
C3204 H3194 0.930 . S
C3204 C3203 1.400 . S
C3204 C3207 1.386 . S
H3205 C3221 0.930 . S
H3206 C3222 0.931 . S
C3207 H3195 0.929 . S
C3207 C3201 1.390 . S
C3207 C3204 1.386 . S
C3208 C3203 1.490 . S
C3208 C3210 1.395 . S
C3208 C3211 1.403 . S
H3209 C3215 0.930 . S
C3210 H3196 0.930 . S
C3210 C3208 1.395 . S
C3210 C3213 1.403 . S
C3211 C3208 1.403 . S
C3211 C3212 1.524 . S
C3211 C3215 1.400 . S
C3212 H3197 0.960 . S
C3212 H3198 0.960 . S
C3212 H3199 0.960 . S
C3212 C3211 1.524 . S
C3213 C3210 1.403 . S
C3213 C3214 1.392 . S
C3213 C3217 1.495 . S
C3214 C3213 1.392 . S
C3214 C3215 1.385 . S
C3214 C3216 1.478 . S
C3215 H3209 0.930 . S
C3215 C3211 1.400 . S
C3215 C3214 1.385 . S
C3216 C3214 1.478 . S
C3216 C3218 1.381 . S
C3216 C3222 1.383 . S
C3217 C3213 1.495 . S
C3217 H3223 0.959 . S
C3217 H3224 0.961 . S
C3217 H3225 0.960 . S
C3218 C3216 1.381 . S
C3218 C3219 1.394 . S
C3218 H3226 0.930 . S
C3219 C3218 1.394 . S
C3219 C3220 1.383 . S
C3219 H3227 0.929 . S
C3220 C3219 1.383 . S
C3220 C3221 1.377 . S
C3221 H3205 0.930 . S
C3221 C3220 1.377 . S
C3221 C3222 1.379 . S
C3222 H3206 0.931 . S
C3222 C3216 1.383 . S
C3222 C3221 1.379 . S
H3223 C3217 0.959 . S
H3224 C3217 0.961 . S
H3225 C3217 0.960 . S
H3226 C3218 0.930 . S
H3227 C3219 0.929 . S
H3228 C3236 0.929 . S
H3229 C3238 0.930 . S
H3230 C3240 0.930 . S
H3231 C3243 0.976 . S
H3232 C3246 0.930 . S
H3233 C3248 0.960 . S
H3234 C3248 0.960 . S
H3235 C3248 0.960 . S
C3236 H3228 0.929 . S
C3236 C3237 1.377 . S
C3236 C3238 1.384 . S
C3237 C3236 1.377 . S
C3237 C3243 1.390 . S
C3238 H3229 0.930 . S
C3238 C3236 1.384 . S
C3238 C3239 1.372 . S
C3239 C3238 1.372 . S
C3239 C3240 1.400 . S
C3239 C3244 1.490 . S
C3240 H3230 0.930 . S
C3240 C3239 1.400 . S
C3240 C3243 1.386 . S
H3241 C3257 0.930 1_565 S
H3242 C3258 0.931 . S
C3243 H3231 0.976 . S
C3243 C3237 1.390 . S
C3243 C3240 1.386 . S
C3244 C3239 1.490 . S
C3244 C3246 1.395 . S
C3244 C3247 1.403 . S
H3245 C3251 0.930 . S
C3246 H3232 0.930 . S
C3246 C3244 1.395 . S
C3246 C3249 1.403 . S
C3247 C3244 1.403 . S
C3247 C3248 1.524 . S
C3247 C3251 1.400 . S
C3248 H3233 0.960 . S
C3248 H3234 0.960 . S
C3248 H3235 0.960 . S
C3248 C3247 1.524 . S
C3249 C3246 1.403 . S
C3249 C3250 1.392 . S
C3249 C3253 1.495 . S
C3250 C3249 1.392 . S
C3250 C3251 1.385 . S
C3250 C3252 1.478 . S
C3251 H3245 0.930 . S
C3251 C3247 1.400 . S
C3251 C3250 1.385 . S
C3252 C3250 1.478 . S
C3252 C3254 1.381 . S
C3252 C3258 1.383 . S
C3253 C3249 1.495 . S
C3253 H3259 0.959 . S
C3253 H3260 0.961 . S
C3253 H3261 0.960 . S
C3254 C3252 1.381 . S
C3254 C3255 1.394 . S
C3254 H3262 0.930 . S
C3255 C3254 1.394 . S
C3255 C3256 1.383 . S
C3255 H3263 0.929 . S
C3256 C3255 1.383 . S
C3256 C3257 1.377 . S
C3257 H3241 0.930 1_545 S
C3257 C3256 1.377 . S
C3257 C3258 1.379 . S
C3258 H3242 0.931 . S
C3258 C3252 1.383 . S
C3258 C3257 1.379 . S
H3259 C3253 0.959 . S
H3260 C3253 0.961 . S
H3261 C3253 0.960 . S
H3262 C3254 0.930 . S
H3263 C3255 0.929 . S
H3264 C3272 0.929 . S
H3265 C3274 0.930 . S
H3266 C3276 0.930 . S
H3267 C3279 0.929 . S
H3268 C3282 0.930 . S
H3269 C3284 0.960 . S
H3270 C3284 0.960 . S
H3271 C3284 0.960 . S
C3272 H3264 0.929 . S
C3272 C3273 1.377 . S
C3272 C3274 1.384 . S
C3273 C3272 1.377 . S
C3273 C3279 1.390 . S
C3274 H3265 0.930 . S
C3274 C3272 1.384 . S
C3274 C3275 1.372 . S
C3275 C3274 1.372 . S
C3275 C3276 1.400 . S
C3275 C3280 1.490 . S
C3276 H3266 0.930 . S
C3276 C3275 1.400 . S
C3276 C3279 1.386 . S
H3277 C3293 0.930 . S
H3278 C3294 0.931 . S
C3279 H3267 0.929 . S
C3279 C3273 1.390 . S
C3279 C3276 1.386 . S
C3280 C3275 1.490 . S
C3280 C3282 1.395 . S
C3280 C3283 1.403 . S
H3281 C3287 0.930 . S
C3282 H3268 0.930 . S
C3282 C3280 1.395 . S
C3282 C3285 1.403 . S
C3283 C3280 1.403 . S
C3283 C3284 1.524 . S
C3283 C3287 1.400 . S
C3284 H3269 0.960 . S
C3284 H3270 0.960 . S
C3284 H3271 0.960 . S
C3284 C3283 1.524 . S
C3285 C3282 1.403 . S
C3285 C3286 1.392 . S
C3285 C3289 1.495 . S
C3286 C3285 1.392 . S
C3286 C3287 1.385 . S
C3286 C3288 1.478 . S
C3287 H3281 0.930 . S
C3287 C3283 1.400 . S
C3287 C3286 1.385 . S
C3288 C3286 1.478 . S
C3288 C3290 1.381 . S
C3288 C3294 1.383 . S
C3289 C3285 1.495 . S
C3289 H3295 0.959 . S
C3289 H3296 0.961 . S
C3289 H3297 0.960 . S
C3290 C3288 1.381 . S
C3290 C3291 1.394 . S
C3290 H3298 0.930 . S
C3291 C3290 1.394 . S
C3291 C3292 1.383 . S
C3291 H3299 0.929 . S
C3292 C3291 1.383 . S
C3292 C3293 1.377 . S
C3293 H3277 0.930 . S
C3293 C3292 1.377 . S
C3293 C3294 1.379 . S
C3294 H3278 0.931 . S
C3294 C3288 1.383 . S
C3294 C3293 1.379 . S
H3295 C3289 0.959 . S
H3296 C3289 0.961 . S
H3297 C3289 0.960 . S
H3298 C3290 0.930 . S
H3299 C3291 0.929 . S
H3300 C3308 0.929 . S
H3301 C3310 0.930 . S
H3302 C3312 0.930 . S
H3303 C3315 0.929 . S
H3304 C3318 0.930 . S
H3305 C3320 0.960 . S
H3306 C3320 0.960 . S
H3307 C3320 0.960 . S
C3308 H3300 0.929 . S
C3308 C3309 1.377 . S
C3308 C3310 1.384 . S
C3309 C3308 1.377 . S
C3309 C3315 1.390 . S
C3310 H3301 0.930 . S
C3310 C3308 1.384 . S
C3310 C3311 1.372 . S
C3311 C3310 1.372 . S
C3311 C3312 1.400 . S
C3311 C3316 1.490 . S
C3312 H3302 0.930 . S
C3312 C3311 1.400 . S
C3312 C3315 1.386 . S
H3313 C3329 0.930 . S
H3314 C3330 0.931 . S
C3315 H3303 0.929 . S
C3315 C3309 1.390 . S
C3315 C3312 1.386 . S
C3316 C3311 1.490 . S
C3316 C3318 1.395 . S
C3316 C3319 1.403 . S
H3317 C3323 0.930 . S
C3318 H3304 0.930 . S
C3318 C3316 1.395 . S
C3318 C3321 1.403 . S
C3319 C3316 1.403 . S
C3319 C3320 1.524 . S
C3319 C3323 1.400 . S
C3320 H3305 0.960 . S
C3320 H3306 0.960 . S
C3320 H3307 0.960 . S
C3320 C3319 1.524 . S
C3321 C3318 1.403 . S
C3321 C3322 1.392 . S
C3321 C3325 1.495 . S
C3322 C3321 1.392 . S
C3322 C3323 1.385 . S
C3322 C3324 1.478 . S
C3323 H3317 0.930 . S
C3323 C3319 1.400 . S
C3323 C3322 1.385 . S
C3324 C3322 1.478 . S
C3324 C3326 1.381 . S
C3324 C3330 1.383 . S
C3325 C3321 1.495 . S
C3325 H3331 0.959 . S
C3325 H3332 0.961 . S
C3325 H3333 0.960 . S
C3326 C3324 1.381 . S
C3326 C3327 1.394 . S
C3326 H3334 0.930 . S
C3327 C3326 1.394 . S
C3327 C3328 1.383 . S
C3327 H3335 0.929 . S
C3328 C3327 1.383 . S
C3328 C3329 1.377 . S
C3329 H3313 0.930 . S
C3329 C3328 1.377 . S
C3329 C3330 1.379 . S
C3330 H3314 0.931 . S
C3330 C3324 1.383 . S
C3330 C3329 1.379 . S
H3331 C3325 0.959 . S
H3332 C3325 0.961 . S
H3333 C3325 0.960 . S
H3334 C3326 0.930 . S
H3335 C3327 0.929 . S
H3336 C3344 0.929 . S
H3337 C3346 0.930 . S
H3338 C3348 0.930 . S
H3339 C3351 0.929 . S
H3340 C3354 0.930 . S
H3341 C3356 0.960 . S
H3342 C3356 0.960 . S
H3343 C3356 0.960 . S
C3344 H3336 0.929 . S
C3344 C3345 1.377 . S
C3344 C3346 1.384 . S
C3345 C3344 1.377 . S
C3345 C3351 1.390 . S
C3346 H3337 0.930 . S
C3346 C3344 1.384 . S
C3346 C3347 1.372 . S
C3347 C3346 1.372 . S
C3347 C3348 1.400 . S
C3347 C3352 1.490 . S
C3348 H3338 0.930 . S
C3348 C3347 1.400 . S
C3348 C3351 1.386 . S
H3349 C3365 0.930 . S
H3350 C3366 0.931 . S
C3351 H3339 0.929 . S
C3351 C3345 1.390 . S
C3351 C3348 1.386 . S
C3352 C3347 1.490 . S
C3352 C3354 1.395 . S
C3352 C3355 1.403 . S
H3353 C3359 0.930 . S
C3354 H3340 0.930 . S
C3354 C3352 1.395 . S
C3354 C3357 1.403 . S
C3355 C3352 1.403 . S
C3355 C3356 1.524 . S
C3355 C3359 1.400 . S
C3356 H3341 0.960 . S
C3356 H3342 0.960 . S
C3356 H3343 0.960 . S
C3356 C3355 1.524 . S
C3357 C3354 1.403 . S
C3357 C3358 1.392 . S
C3357 C3361 1.495 . S
C3358 C3357 1.392 . S
C3358 C3359 1.385 . S
C3358 C3360 1.478 . S
C3359 H3353 0.930 . S
C3359 C3355 1.400 . S
C3359 C3358 1.385 . S
C3360 C3358 1.478 . S
C3360 C3362 1.381 . S
C3360 C3366 1.383 . S
C3361 C3357 1.495 . S
C3361 H3367 0.959 . S
C3361 H3368 0.961 . S
C3361 H3369 0.960 . S
C3362 C3360 1.381 . S
C3362 C3363 1.394 . S
C3362 H3370 0.930 . S
C3363 C3362 1.394 . S
C3363 C3364 1.383 . S
C3363 H3371 0.929 . S
C3364 C3363 1.383 . S
C3364 C3365 1.377 . S
C3365 H3349 0.930 . S
C3365 C3364 1.377 . S
C3365 C3366 1.379 . S
C3366 H3350 0.931 . S
C3366 C3360 1.383 . S
C3366 C3365 1.379 . S
H3367 C3361 0.959 . S
H3368 C3361 0.961 . S
H3369 C3361 0.960 . S
H3370 C3362 0.930 . S
H3371 C3363 0.929 . S
H3372 C3380 0.929 . S
H3373 C3382 0.930 . S
H3374 C3384 0.930 . S
H3375 C3387 0.929 . S
H3376 C3390 0.930 . S
H3377 C3392 0.960 . S
H3378 C3392 0.960 . S
H3379 C3392 0.960 . S
C3380 H3372 0.929 . S
C3380 C3381 1.377 . S
C3380 C3382 1.384 . S
C3381 C3380 1.377 . S
C3381 C3387 1.390 . S
C3382 H3373 0.930 . S
C3382 C3380 1.384 . S
C3382 C3383 1.372 . S
C3383 C3382 1.372 . S
C3383 C3384 1.400 . S
C3383 C3388 1.490 . S
C3384 H3374 0.930 . S
C3384 C3383 1.400 . S
C3384 C3387 1.386 . S
H3385 C3401 0.930 . S
H3386 C3402 0.931 . S
C3387 H3375 0.929 . S
C3387 C3381 1.390 . S
C3387 C3384 1.386 . S
C3388 C3383 1.490 . S
C3388 C3390 1.395 . S
C3388 C3391 1.403 . S
H3389 C3395 0.930 . S
C3390 H3376 0.930 . S
C3390 C3388 1.395 . S
C3390 C3393 1.403 . S
C3391 C3388 1.403 . S
C3391 C3392 1.524 . S
C3391 C3395 1.400 . S
C3392 H3377 0.960 . S
C3392 H3378 0.960 . S
C3392 H3379 0.960 . S
C3392 C3391 1.524 . S
C3393 C3390 1.403 . S
C3393 C3394 1.392 . S
C3393 C3397 1.495 . S
C3394 C3393 1.392 . S
C3394 C3395 1.385 . S
C3394 C3396 1.478 . S
C3395 H3389 0.930 . S
C3395 C3391 1.400 . S
C3395 C3394 1.385 . S
C3396 C3394 1.478 . S
C3396 C3398 1.381 . S
C3396 C3402 1.383 . S
C3397 C3393 1.495 . S
C3397 H3403 0.959 . S
C3397 H3404 0.961 . S
C3397 H3405 0.960 . S
C3398 C3396 1.381 . S
C3398 C3399 1.394 . S
C3398 H3406 0.930 . S
C3399 C3398 1.394 . S
C3399 C3400 1.383 . S
C3399 H3407 0.929 . S
C3400 C3399 1.383 . S
C3400 C3401 1.377 . S
C3401 H3385 0.930 . S
C3401 C3400 1.377 . S
C3401 C3402 1.379 . S
C3402 H3386 0.931 . S
C3402 C3396 1.383 . S
C3402 C3401 1.379 . S
H3403 C3397 0.959 . S
H3404 C3397 0.961 . S
H3405 C3397 0.960 . S
H3406 C3398 0.930 . S
H3407 C3399 0.929 . S
H3408 C3416 0.929 . S
H3409 C3418 0.930 . S
H3410 C3420 0.930 . S
H3411 C3423 0.929 . S
H3412 C3426 0.930 . S
H3413 C3428 0.960 . S
H3414 C3428 0.960 . S
H3415 C3428 0.960 . S
C3416 H3408 0.929 . S
C3416 C3417 1.377 . S
C3416 C3418 1.384 . S
C3417 C3416 1.377 . S
C3417 C3423 1.390 . S
C3418 H3409 0.930 . S
C3418 C3416 1.384 . S
C3418 C3419 1.372 . S
C3419 C3418 1.372 . S
C3419 C3420 1.400 . S
C3419 C3424 1.490 . S
C3420 H3410 0.930 . S
C3420 C3419 1.400 . S
C3420 C3423 1.386 . S
H3421 C3437 0.930 . S
H3422 C3438 0.931 . S
C3423 H3411 0.929 . S
C3423 C3417 1.390 . S
C3423 C3420 1.386 . S
C3424 C3419 1.490 . S
C3424 C3426 1.395 . S
C3424 C3427 1.403 . S
H3425 C3431 0.930 . S
C3426 H3412 0.930 . S
C3426 C3424 1.395 . S
C3426 C3429 1.403 . S
C3427 C3424 1.403 . S
C3427 C3428 1.524 . S
C3427 C3431 1.400 . S
C3428 H3413 0.960 . S
C3428 H3414 0.960 . S
C3428 H3415 0.960 . S
C3428 C3427 1.524 . S
C3429 C3426 1.403 . S
C3429 C3430 1.392 . S
C3429 C3433 1.495 . S
C3430 C3429 1.392 . S
C3430 C3431 1.385 . S
C3430 C3432 1.478 . S
C3431 H3425 0.930 . S
C3431 C3427 1.400 . S
C3431 C3430 1.385 . S
C3432 C3430 1.478 . S
C3432 C3434 1.381 . S
C3432 C3438 1.383 . S
C3433 C3429 1.495 . S
C3433 H3439 0.959 . S
C3433 H3440 0.961 . S
C3433 H3441 0.960 . S
C3434 C3432 1.381 . S
C3434 C3435 1.394 . S
C3434 H3442 0.930 . S
C3435 C3434 1.394 . S
C3435 C3436 1.383 . S
C3435 H3443 0.929 . S
C3436 C3435 1.383 . S
C3436 C3437 1.377 . S
C3437 H3421 0.930 . S
C3437 C3436 1.377 . S
C3437 C3438 1.379 . S
C3438 H3422 0.931 . S
C3438 C3432 1.383 . S
C3438 C3437 1.379 . S
H3439 C3433 0.959 . S
H3440 C3433 0.961 . S
H3441 C3433 0.960 . S
H3442 C3434 0.930 . S
H3443 C3435 0.929 . S
H3444 C3452 0.929 . S
H3445 C3454 0.930 . S
H3446 C3456 0.930 . S
H3447 C3459 0.929 . S
H3448 C3462 0.930 . S
H3449 C3464 0.960 . S
H3450 C3464 0.960 . S
H3451 C3464 0.960 . S
C3452 H3444 0.929 . S
C3452 C3453 1.377 . S
C3452 C3454 1.384 . S
C3453 C3452 1.377 . S
C3453 C3459 1.390 . S
C3454 H3445 0.930 . S
C3454 C3452 1.384 . S
C3454 C3455 1.372 . S
C3455 C3454 1.372 . S
C3455 C3456 1.400 . S
C3455 C3460 1.490 . S
C3456 H3446 0.930 . S
C3456 C3455 1.400 . S
C3456 C3459 1.386 . S
H3457 C3473 0.930 . S
H3458 C3474 0.931 . S
C3459 H3447 0.929 . S
C3459 C3453 1.390 . S
C3459 C3456 1.386 . S
C3460 C3455 1.490 . S
C3460 C3462 1.395 . S
C3460 C3463 1.403 . S
H3461 C3467 0.930 . S
C3462 H3448 0.930 . S
C3462 C3460 1.395 . S
C3462 C3465 1.403 . S
C3463 C3460 1.403 . S
C3463 C3464 1.524 . S
C3463 C3467 1.400 . S
C3464 H3449 0.960 . S
C3464 H3450 0.960 . S
C3464 H3451 0.960 . S
C3464 C3463 1.524 . S
C3465 C3462 1.403 . S
C3465 C3466 1.392 . S
C3465 C3469 1.495 . S
C3466 C3465 1.392 . S
C3466 C3467 1.385 . S
C3466 C3468 1.478 . S
C3467 H3461 0.930 . S
C3467 C3463 1.400 . S
C3467 C3466 1.385 . S
C3468 C3466 1.478 . S
C3468 C3470 1.381 . S
C3468 C3474 1.383 . S
C3469 C3465 1.495 . S
C3469 H3475 0.959 . S
C3469 H3476 0.961 . S
C3469 H3477 0.960 . S
C3470 C3468 1.381 . S
C3470 C3471 1.394 . S
C3470 H3478 0.930 . S
C3471 C3470 1.394 . S
C3471 C3472 1.383 . S
C3471 H3479 0.929 . S
C3472 C3471 1.383 . S
C3472 C3473 1.377 . S
C3473 H3457 0.930 . S
C3473 C3472 1.377 . S
C3473 C3474 1.379 . S
C3474 H3458 0.931 . S
C3474 C3468 1.383 . S
C3474 C3473 1.379 . S
H3475 C3469 0.959 . S
H3476 C3469 0.961 . S
H3477 C3469 0.960 . S
H3478 C3470 0.930 . S
H3479 C3471 0.929 . S
H3480 C3488 0.929 . S
H3481 C3490 0.930 . S
H3482 C3492 0.930 . S
H3483 C3495 0.929 . S
H3484 C3498 0.930 . S
H3485 C3500 0.960 . S
H3486 C3500 0.960 . S
H3487 C3500 0.960 . S
C3488 H3480 0.929 . S
C3488 C3489 1.377 . S
C3488 C3490 1.384 . S
C3489 C3488 1.377 . S
C3489 C3495 1.390 . S
C3490 H3481 0.930 . S
C3490 C3488 1.384 . S
C3490 C3491 1.372 . S
C3491 C3490 1.372 . S
C3491 C3492 1.400 . S
C3491 C3496 1.490 . S
C3492 H3482 0.930 . S
C3492 C3491 1.400 . S
C3492 C3495 1.386 . S
H3493 C3509 0.930 . S
H3494 C3510 0.931 . S
C3495 H3483 0.929 . S
C3495 C3489 1.390 . S
C3495 C3492 1.386 . S
C3496 C3491 1.490 . S
C3496 C3498 1.395 . S
C3496 C3499 1.403 . S
H3497 C3503 0.930 . S
C3498 H3484 0.930 . S
C3498 C3496 1.395 . S
C3498 C3501 1.403 . S
C3499 C3496 1.403 . S
C3499 C3500 1.524 . S
C3499 C3503 1.400 . S
C3500 H3485 0.960 . S
C3500 H3486 0.960 . S
C3500 H3487 0.960 . S
C3500 C3499 1.524 . S
C3501 C3498 1.403 . S
C3501 C3502 1.392 . S
C3501 C3505 1.495 . S
C3502 C3501 1.392 . S
C3502 C3503 1.385 . S
C3502 C3504 1.478 . S
C3503 H3497 0.930 . S
C3503 C3499 1.400 . S
C3503 C3502 1.385 . S
C3504 C3502 1.478 . S
C3504 C3506 1.381 . S
C3504 C3510 1.383 . S
C3505 C3501 1.495 . S
C3505 H3511 0.959 . S
C3505 H3512 0.961 . S
C3505 H3513 0.960 . S
C3506 C3504 1.381 . S
C3506 C3507 1.394 . S
C3506 H3514 0.930 . S
C3507 C3506 1.394 . S
C3507 C3508 1.383 . S
C3507 H3515 0.929 . S
C3508 C3507 1.383 . S
C3508 C3509 1.377 . S
C3509 H3493 0.930 . S
C3509 C3508 1.377 . S
C3509 C3510 1.379 . S
C3510 H3494 0.931 . S
C3510 C3504 1.383 . S
C3510 C3509 1.379 . S
H3511 C3505 0.959 . S
H3512 C3505 0.961 . S
H3513 C3505 0.960 . S
H3514 C3506 0.930 . S
H3515 C3507 0.929 . S
H3516 C3524 0.929 . S
H3517 C3526 0.930 . S
H3518 C3528 0.930 . S
H3519 C3531 0.929 . S
H3520 C3534 0.930 . S
H3521 C3536 0.960 . S
H3522 C3536 0.960 . S
H3523 C3536 0.960 . S
C3524 H3516 0.929 . S
C3524 C3525 1.377 . S
C3524 C3526 1.384 . S
C3525 C3524 1.377 . S
C3525 C3531 1.390 . S
C3526 H3517 0.930 . S
C3526 C3524 1.384 . S
C3526 C3527 1.372 . S
C3527 C3526 1.372 . S
C3527 C3528 1.400 . S
C3527 C3532 1.490 . S
C3528 H3518 0.930 . S
C3528 C3527 1.400 . S
C3528 C3531 1.386 . S
H3529 C3545 0.930 . S
H3530 C3546 0.931 . S
C3531 H3519 0.929 . S
C3531 C3525 1.390 . S
C3531 C3528 1.386 . S
C3532 C3527 1.490 . S
C3532 C3534 1.395 . S
C3532 C3535 1.403 . S
H3533 C3539 0.930 . S
C3534 H3520 0.930 . S
C3534 C3532 1.395 . S
C3534 C3537 1.403 . S
C3535 C3532 1.403 . S
C3535 C3536 1.524 . S
C3535 C3539 1.400 . S
C3536 H3521 0.960 . S
C3536 H3522 0.960 . S
C3536 H3523 0.960 . S
C3536 C3535 1.524 . S
C3537 C3534 1.403 . S
C3537 C3538 1.392 . S
C3537 C3541 1.495 . S
C3538 C3537 1.392 . S
C3538 C3539 1.385 . S
C3538 C3540 1.478 . S
C3539 H3533 0.930 . S
C3539 C3535 1.400 . S
C3539 C3538 1.385 . S
C3540 C3538 1.478 . S
C3540 C3542 1.381 . S
C3540 C3546 1.383 . S
C3541 C3537 1.495 . S
C3541 H3547 0.959 . S
C3541 H3548 0.961 . S
C3541 H3549 0.960 . S
C3542 C3540 1.381 . S
C3542 C3543 1.394 . S
C3542 H3550 0.930 . S
C3543 C3542 1.394 . S
C3543 C3544 1.383 . S
C3543 H3551 0.929 . S
C3544 C3543 1.383 . S
C3544 C3545 1.377 . S
C3545 H3529 0.930 . S
C3545 C3544 1.377 . S
C3545 C3546 1.379 . S
C3546 H3530 0.931 . S
C3546 C3540 1.383 . S
C3546 C3545 1.379 . S
H3547 C3541 0.959 . S
H3548 C3541 0.961 . S
H3549 C3541 0.960 . S
H3550 C3542 0.930 . S
H3551 C3543 0.929 . S
H3552 C3560 0.929 . S
H3553 C3562 0.930 . S
H3554 C3564 0.930 . S
H3555 C3567 0.929 . S
H3556 C3570 0.930 . S
H3557 C3572 0.960 . S
H3558 C3572 0.960 . S
H3559 C3572 0.960 . S
C3560 H3552 0.929 . S
C3560 C3561 1.377 . S
C3560 C3562 1.384 . S
C3561 C3560 1.377 . S
C3561 C3567 1.390 . S
C3562 H3553 0.930 . S
C3562 C3560 1.384 . S
C3562 C3563 1.372 . S
C3563 C3562 1.372 . S
C3563 C3564 1.400 . S
C3563 C3568 1.490 . S
C3564 H3554 0.930 . S
C3564 C3563 1.400 . S
C3564 C3567 1.386 . S
H3565 C3581 0.930 . S
H3566 C3582 0.931 . S
C3567 H3555 0.929 . S
C3567 C3561 1.390 . S
C3567 C3564 1.386 . S
C3568 C3563 1.490 . S
C3568 C3570 1.395 . S
C3568 C3571 1.403 . S
H3569 C3575 0.930 . S
C3570 H3556 0.930 . S
C3570 C3568 1.395 . S
C3570 C3573 1.403 . S
C3571 C3568 1.403 . S
C3571 C3572 1.524 . S
C3571 C3575 1.400 . S
C3572 H3557 0.960 . S
C3572 H3558 0.960 . S
C3572 H3559 0.960 . S
C3572 C3571 1.524 . S
C3573 C3570 1.403 . S
C3573 C3574 1.392 . S
C3573 C3577 1.495 . S
C3574 C3573 1.392 . S
C3574 C3575 1.385 . S
C3574 C3576 1.478 . S
C3575 H3569 0.930 . S
C3575 C3571 1.400 . S
C3575 C3574 1.385 . S
C3576 C3574 1.478 . S
C3576 C3578 1.381 . S
C3576 C3582 1.383 . S
C3577 C3573 1.495 . S
C3577 H3583 0.959 . S
C3577 H3584 0.961 . S
C3577 H3585 0.960 . S
C3578 C3576 1.381 . S
C3578 C3579 1.394 . S
C3578 H3586 0.930 . S
C3579 C3578 1.394 . S
C3579 C3580 1.383 . S
C3579 H3587 0.929 . S
C3580 C3579 1.383 . S
C3580 C3581 1.377 . S
C3581 H3565 0.930 . S
C3581 C3580 1.377 . S
C3581 C3582 1.379 . S
C3582 H3566 0.931 . S
C3582 C3576 1.383 . S
C3582 C3581 1.379 . S
H3583 C3577 0.959 . S
H3584 C3577 0.961 . S
H3585 C3577 0.960 . S
H3586 C3578 0.930 . S
H3587 C3579 0.929 . S
H3588 C3596 0.929 . S
H3589 C3598 0.930 . S
H3590 C3600 0.930 . S
H3591 C3603 0.929 . S
H3592 C3606 0.930 . S
H3593 C3608 0.960 . S
H3594 C3608 0.960 . S
H3595 C3608 0.960 . S
C3596 H3588 0.929 . S
C3596 C3597 1.377 . S
C3596 C3598 1.384 . S
C3597 C3596 1.377 . S
C3597 C3603 1.390 . S
C3598 H3589 0.930 . S
C3598 C3596 1.384 . S
C3598 C3599 1.372 . S
C3599 C3598 1.372 . S
C3599 C3600 1.400 . S
C3599 C3604 1.490 . S
C3600 H3590 0.930 . S
C3600 C3599 1.400 . S
C3600 C3603 1.386 . S
H3601 C3617 0.930 . S
H3602 C3618 0.931 . S
C3603 H3591 0.929 . S
C3603 C3597 1.390 . S
C3603 C3600 1.386 . S
C3604 C3599 1.490 . S
C3604 C3606 1.395 . S
C3604 C3607 1.403 . S
H3605 C3611 0.930 . S
C3606 H3592 0.930 . S
C3606 C3604 1.395 . S
C3606 C3609 1.403 . S
C3607 C3604 1.403 . S
C3607 C3608 1.524 . S
C3607 C3611 1.400 . S
C3608 H3593 0.960 . S
C3608 H3594 0.960 . S
C3608 H3595 0.960 . S
C3608 C3607 1.524 . S
C3609 C3606 1.403 . S
C3609 C3610 1.392 . S
C3609 C3613 1.495 . S
C3610 C3609 1.392 . S
C3610 C3611 1.385 . S
C3610 C3612 1.478 . S
C3611 H3605 0.930 . S
C3611 C3607 1.400 . S
C3611 C3610 1.385 . S
C3612 C3610 1.478 . S
C3612 C3614 1.381 . S
C3612 C3618 1.383 . S
C3613 C3609 1.495 . S
C3613 H3619 0.959 . S
C3613 H3620 0.961 . S
C3613 H3621 0.960 . S
C3614 C3612 1.381 . S
C3614 C3615 1.394 . S
C3614 H3622 0.930 . S
C3615 C3614 1.394 . S
C3615 C3616 1.383 . S
C3615 H3623 0.929 . S
C3616 C3615 1.383 . S
C3616 C3617 1.377 . S
C3617 H3601 0.930 . S
C3617 C3616 1.377 . S
C3617 C3618 1.379 . S
C3618 H3602 0.931 . S
C3618 C3612 1.383 . S
C3618 C3617 1.379 . S
H3619 C3613 0.959 . S
H3620 C3613 0.961 . S
H3621 C3613 0.960 . S
H3622 C3614 0.930 . S
H3623 C3615 0.929 . S
H3624 C3632 0.929 . S
H3625 C3634 0.930 . S
H3626 C3636 0.930 . S
H3627 C3639 0.929 . S
H3628 C3642 0.930 . S
H3629 C3644 0.960 . S
H3630 C3644 0.960 . S
H3631 C3644 0.960 . S
C3632 H3624 0.929 . S
C3632 C3633 1.377 . S
C3632 C3634 1.384 . S
C3633 C3632 1.377 . S
C3633 C3639 1.390 . S
C3634 H3625 0.930 . S
C3634 C3632 1.384 . S
C3634 C3635 1.372 . S
C3635 C3634 1.372 . S
C3635 C3636 1.400 . S
C3635 C3640 1.490 . S
C3636 H3626 0.930 . S
C3636 C3635 1.400 . S
C3636 C3639 1.386 . S
H3637 C3653 0.930 . S
H3638 C3654 0.931 . S
C3639 H3627 0.929 . S
C3639 C3633 1.390 . S
C3639 C3636 1.386 . S
C3640 C3635 1.490 . S
C3640 C3642 1.395 . S
C3640 C3643 1.403 . S
H3641 C3647 0.930 . S
C3642 H3628 0.930 . S
C3642 C3640 1.395 . S
C3642 C3645 1.403 . S
C3643 C3640 1.403 . S
C3643 C3644 1.524 . S
C3643 C3647 1.400 . S
C3644 H3629 0.960 . S
C3644 H3630 0.960 . S
C3644 H3631 0.960 . S
C3644 C3643 1.524 . S
C3645 C3642 1.403 . S
C3645 C3646 1.392 . S
C3645 C3649 1.495 . S
C3646 C3645 1.392 . S
C3646 C3647 1.385 . S
C3646 C3648 1.478 . S
C3647 H3641 0.930 . S
C3647 C3643 1.400 . S
C3647 C3646 1.385 . S
C3648 C3646 1.478 . S
C3648 C3650 1.381 . S
C3648 C3654 1.383 . S
C3649 C3645 1.495 . S
C3649 H3655 0.959 . S
C3649 H3656 0.961 . S
C3649 H3657 0.960 . S
C3650 C3648 1.381 . S
C3650 C3651 1.394 . S
C3650 H3658 0.930 . S
C3651 C3650 1.394 . S
C3651 C3652 1.383 . S
C3651 H3659 0.929 . S
C3652 C3651 1.383 . S
C3652 C3653 1.377 . S
C3653 H3637 0.930 . S
C3653 C3652 1.377 . S
C3653 C3654 1.379 . S
C3654 H3638 0.931 . S
C3654 C3648 1.383 . S
C3654 C3653 1.379 . S
H3655 C3649 0.959 . S
H3656 C3649 0.961 . S
H3657 C3649 0.960 . S
H3658 C3650 0.930 . S
H3659 C3651 0.929 . S
H3660 C3668 0.929 . S
H3661 C3670 0.930 . S
H3662 C3672 0.930 . S
H3663 C3675 0.929 . S
H3664 C3678 0.930 . S
H3665 C3680 0.960 . S
H3666 C3680 0.960 . S
H3667 C3680 0.960 . S
C3668 H3660 0.929 . S
C3668 C3669 1.377 . S
C3668 C3670 1.384 . S
C3669 C3668 1.377 . S
C3669 C3675 1.390 . S
C3670 H3661 0.930 . S
C3670 C3668 1.384 . S
C3670 C3671 1.372 . S
C3671 C3670 1.372 . S
C3671 C3672 1.400 . S
C3671 C3676 1.490 . S
C3672 H3662 0.930 . S
C3672 C3671 1.400 . S
C3672 C3675 1.386 . S
H3673 C3689 0.930 . S
H3674 C3690 0.931 . S
C3675 H3663 0.929 . S
C3675 C3669 1.390 . S
C3675 C3672 1.386 . S
C3676 C3671 1.490 . S
C3676 C3678 1.395 . S
C3676 C3679 1.403 . S
H3677 C3683 0.930 . S
C3678 H3664 0.930 . S
C3678 C3676 1.395 . S
C3678 C3681 1.403 . S
C3679 C3676 1.403 . S
C3679 C3680 1.524 . S
C3679 C3683 1.400 . S
C3680 H3665 0.960 . S
C3680 H3666 0.960 . S
C3680 H3667 0.960 . S
C3680 C3679 1.524 . S
C3681 C3678 1.403 . S
C3681 C3682 1.392 . S
C3681 C3685 1.495 . S
C3682 C3681 1.392 . S
C3682 C3683 1.385 . S
C3682 C3684 1.478 . S
C3683 H3677 0.930 . S
C3683 C3679 1.400 . S
C3683 C3682 1.385 . S
C3684 C3682 1.478 . S
C3684 C3686 1.381 . S
C3684 C3690 1.383 . S
C3685 C3681 1.495 . S
C3685 H3691 0.959 . S
C3685 H3692 0.961 . S
C3685 H3693 0.960 . S
C3686 C3684 1.381 . S
C3686 C3687 1.394 . S
C3686 H3694 0.930 . S
C3687 C3686 1.394 . S
C3687 C3688 1.383 . S
C3687 H3695 0.929 . S
C3688 C3687 1.383 . S
C3688 C3689 1.377 . S
C3689 H3673 0.930 . S
C3689 C3688 1.377 . S
C3689 C3690 1.379 . S
C3690 H3674 0.931 . S
C3690 C3684 1.383 . S
C3690 C3689 1.379 . S
H3691 C3685 0.959 . S
H3692 C3685 0.961 . S
H3693 C3685 0.960 . S
H3694 C3686 0.930 . S
H3695 C3687 0.929 . S
H3696 C3704 0.929 . S
H3697 C3706 0.930 . S
H3698 C3708 0.930 . S
H3699 C3711 0.929 . S
H3700 C3714 0.930 . S
H3701 C3716 0.960 . S
H3702 C3716 0.960 . S
H3703 C3716 0.960 . S
C3704 H3696 0.929 . S
C3704 C3705 1.377 . S
C3704 C3706 1.384 . S
C3705 C3704 1.377 . S
C3705 C3711 1.390 . S
C3706 H3697 0.930 . S
C3706 C3704 1.384 . S
C3706 C3707 1.372 . S
C3707 C3706 1.372 . S
C3707 C3708 1.400 . S
C3707 C3712 1.490 . S
C3708 H3698 0.930 . S
C3708 C3707 1.400 . S
C3708 C3711 1.386 . S
H3709 C3725 0.930 . S
H3710 C3726 0.931 . S
C3711 H3699 0.929 . S
C3711 C3705 1.390 . S
C3711 C3708 1.386 . S
C3712 C3707 1.490 . S
C3712 C3714 1.395 . S
C3712 C3715 1.403 . S
H3713 C3719 0.930 . S
C3714 H3700 0.930 . S
C3714 C3712 1.395 . S
C3714 C3717 1.403 . S
C3715 C3712 1.403 . S
C3715 C3716 1.524 . S
C3715 C3719 1.400 . S
C3716 H3701 0.960 . S
C3716 H3702 0.960 . S
C3716 H3703 0.960 . S
C3716 C3715 1.524 . S
C3717 C3714 1.403 . S
C3717 C3718 1.392 . S
C3717 C3721 1.495 . S
C3718 C3717 1.392 . S
C3718 C3719 1.385 . S
C3718 C3720 1.478 . S
C3719 H3713 0.930 . S
C3719 C3715 1.400 . S
C3719 C3718 1.385 . S
C3720 C3718 1.478 . S
C3720 C3722 1.381 . S
C3720 C3726 1.383 . S
C3721 C3717 1.495 . S
C3721 H3727 0.959 . S
C3721 H3728 0.961 . S
C3721 H3729 0.960 . S
C3722 C3720 1.381 . S
C3722 C3723 1.394 . S
C3722 H3730 0.930 . S
C3723 C3722 1.394 . S
C3723 C3724 1.383 . S
C3723 H3731 0.929 . S
C3724 C3723 1.383 . S
C3724 C3725 1.377 . S
C3725 H3709 0.930 . S
C3725 C3724 1.377 . S
C3725 C3726 1.379 . S
C3726 H3710 0.931 . S
C3726 C3720 1.383 . S
C3726 C3725 1.379 . S
H3727 C3721 0.959 . S
H3728 C3721 0.961 . S
H3729 C3721 0.960 . S
H3730 C3722 0.930 . S
H3731 C3723 0.929 . S
H3732 C3740 0.929 . S
H3733 C3742 0.930 . S
H3734 C3744 0.930 . S
H3735 C3747 0.929 . S
H3736 C3750 0.930 . S
H3737 C3752 0.960 . S
H3738 C3752 0.960 . S
H3739 C3752 0.960 . S
C3740 H3732 0.929 . S
C3740 C3741 1.377 . S
C3740 C3742 1.384 . S
C3741 C3740 1.377 . S
C3741 C3747 1.390 . S
C3742 H3733 0.930 . S
C3742 C3740 1.384 . S
C3742 C3743 1.372 . S
C3743 C3742 1.372 . S
C3743 C3744 1.400 . S
C3743 C3748 1.490 . S
C3744 H3734 0.930 . S
C3744 C3743 1.400 . S
C3744 C3747 1.386 . S
H3745 C3761 0.930 . S
H3746 C3762 0.931 . S
C3747 H3735 0.929 . S
C3747 C3741 1.390 . S
C3747 C3744 1.386 . S
C3748 C3743 1.490 . S
C3748 C3750 1.395 . S
C3748 C3751 1.403 . S
H3749 C3755 0.930 . S
C3750 H3736 0.930 . S
C3750 C3748 1.395 . S
C3750 C3753 1.403 . S
C3751 C3748 1.403 . S
C3751 C3752 1.524 . S
C3751 C3755 1.400 . S
C3752 H3737 0.960 . S
C3752 H3738 0.960 . S
C3752 H3739 0.960 . S
C3752 C3751 1.524 . S
C3753 C3750 1.403 . S
C3753 C3754 1.392 . S
C3753 C3757 1.495 . S
C3754 C3753 1.392 . S
C3754 C3755 1.385 . S
C3754 C3756 1.478 . S
C3755 H3749 0.930 . S
C3755 C3751 1.400 . S
C3755 C3754 1.385 . S
C3756 C3754 1.478 . S
C3756 C3758 1.381 . S
C3756 C3762 1.383 . S
C3757 C3753 1.495 . S
C3757 H3763 0.959 . S
C3757 H3764 0.961 . S
C3757 H3765 0.960 . S
C3758 C3756 1.381 . S
C3758 C3759 1.394 . S
C3758 H3766 0.930 . S
C3759 C3758 1.394 . S
C3759 C3760 1.383 . S
C3759 H3767 0.929 . S
C3760 C3759 1.383 . S
C3760 C3761 1.377 . S
C3761 H3745 0.930 . S
C3761 C3760 1.377 . S
C3761 C3762 1.379 . S
C3762 H3746 0.931 . S
C3762 C3756 1.383 . S
C3762 C3761 1.379 . S
H3763 C3757 0.959 . S
H3764 C3757 0.961 . S
H3765 C3757 0.960 . S
H3766 C3758 0.930 . S
H3767 C3759 0.929 . S
H3768 C3776 0.929 . S
H3769 C3778 0.930 . S
H3770 C3780 0.930 . S
H3771 C3783 0.929 . S
H3772 C3786 0.930 . S
H3773 C3788 0.960 . S
H3774 C3788 0.960 . S
H3775 C3788 0.960 . S
C3776 H3768 0.929 . S
C3776 C3777 1.377 . S
C3776 C3778 1.384 . S
C3777 C3776 1.377 . S
C3777 C3783 1.390 . S
C3778 H3769 0.930 . S
C3778 C3776 1.384 . S
C3778 C3779 1.372 . S
C3779 C3778 1.372 . S
C3779 C3780 1.400 . S
C3779 C3784 1.490 . S
C3780 H3770 0.930 . S
C3780 C3779 1.400 . S
C3780 C3783 1.386 . S
H3781 C3797 0.930 . S
H3782 C3798 0.931 . S
C3783 H3771 0.929 . S
C3783 C3777 1.390 . S
C3783 C3780 1.386 . S
C3784 C3779 1.490 . S
C3784 C3786 1.395 . S
C3784 C3787 1.403 . S
H3785 C3791 0.930 . S
C3786 H3772 0.930 . S
C3786 C3784 1.395 . S
C3786 C3789 1.403 . S
C3787 C3784 1.403 . S
C3787 C3788 1.524 . S
C3787 C3791 1.400 . S
C3788 H3773 0.960 . S
C3788 H3774 0.960 . S
C3788 H3775 0.960 . S
C3788 C3787 1.524 . S
C3789 C3786 1.403 . S
C3789 C3790 1.392 . S
C3789 C3793 1.495 . S
C3790 C3789 1.392 . S
C3790 C3791 1.385 . S
C3790 C3792 1.478 . S
C3791 H3785 0.930 . S
C3791 C3787 1.400 . S
C3791 C3790 1.385 . S
C3792 C3790 1.478 . S
C3792 C3794 1.381 . S
C3792 C3798 1.383 . S
C3793 C3789 1.495 . S
C3793 H3799 0.959 . S
C3793 H3800 0.961 . S
C3793 H3801 0.960 . S
C3794 C3792 1.381 . S
C3794 C3795 1.394 . S
C3794 H3802 0.930 . S
C3795 C3794 1.394 . S
C3795 C3796 1.383 . S
C3795 H3803 0.929 . S
C3796 C3795 1.383 . S
C3796 C3797 1.377 . S
C3797 H3781 0.930 . S
C3797 C3796 1.377 . S
C3797 C3798 1.379 . S
C3798 H3782 0.931 . S
C3798 C3792 1.383 . S
C3798 C3797 1.379 . S
H3799 C3793 0.959 . S
H3800 C3793 0.961 . S
H3801 C3793 0.960 . S
H3802 C3794 0.930 . S
H3803 C3795 0.929 . S
H3804 C3812 0.929 . S
H3805 C3814 0.930 . S
H3806 C3816 0.930 . S
H3807 C3819 0.929 . S
H3808 C3822 0.930 . S
H3809 C3824 0.960 . S
H3810 C3824 0.960 . S
H3811 C3824 0.960 . S
C3812 H3804 0.929 . S
C3812 C3813 1.377 . S
C3812 C3814 1.384 . S
C3813 C3812 1.377 . S
C3813 C3819 1.390 . S
C3814 H3805 0.930 . S
C3814 C3812 1.384 . S
C3814 C3815 1.372 . S
C3815 C3814 1.372 . S
C3815 C3816 1.400 . S
C3815 C3820 1.490 . S
C3816 H3806 0.930 . S
C3816 C3815 1.400 . S
C3816 C3819 1.386 . S
H3817 C3833 0.930 . S
H3818 C3834 0.931 . S
C3819 H3807 0.929 . S
C3819 C3813 1.390 . S
C3819 C3816 1.386 . S
C3820 C3815 1.490 . S
C3820 C3822 1.395 . S
C3820 C3823 1.403 . S
H3821 C3827 0.930 . S
C3822 H3808 0.930 . S
C3822 C3820 1.395 . S
C3822 C3825 1.403 . S
C3823 C3820 1.403 . S
C3823 C3824 1.524 . S
C3823 C3827 1.400 . S
C3824 H3809 0.960 . S
C3824 H3810 0.960 . S
C3824 H3811 0.960 . S
C3824 C3823 1.524 . S
C3825 C3822 1.403 . S
C3825 C3826 1.392 . S
C3825 C3829 1.495 . S
C3826 C3825 1.392 . S
C3826 C3827 1.385 . S
C3826 C3828 1.478 . S
C3827 H3821 0.930 . S
C3827 C3823 1.400 . S
C3827 C3826 1.385 . S
C3828 C3826 1.478 . S
C3828 C3830 1.381 . S
C3828 C3834 1.383 . S
C3829 C3825 1.495 . S
C3829 H3835 0.959 . S
C3829 H3836 0.961 . S
C3829 H3837 0.960 . S
C3830 C3828 1.381 . S
C3830 C3831 1.394 . S
C3830 H3838 0.930 . S
C3831 C3830 1.394 . S
C3831 C3832 1.383 . S
C3831 H3839 0.929 . S
C3832 C3831 1.383 . S
C3832 C3833 1.377 . S
C3833 H3817 0.930 . S
C3833 C3832 1.377 . S
C3833 C3834 1.379 . S
C3834 H3818 0.931 . S
C3834 C3828 1.383 . S
C3834 C3833 1.379 . S
H3835 C3829 0.959 . S
H3836 C3829 0.961 . S
H3837 C3829 0.960 . S
H3838 C3830 0.930 . S
H3839 C3831 0.929 . S
H3840 C3848 0.929 . S
H3841 C3850 0.930 . S
H3842 C3852 0.930 . S
H3843 C3855 0.929 . S
H3844 C3858 0.930 . S
H3845 C3860 0.960 . S
H3846 C3860 0.960 . S
H3847 C3860 0.960 . S
C3848 H3840 0.929 . S
C3848 C3849 1.377 . S
C3848 C3850 1.384 . S
C3849 C3848 1.377 . S
C3849 C3855 1.390 . S
C3850 H3841 0.930 . S
C3850 C3848 1.384 . S
C3850 C3851 1.372 . S
C3851 C3850 1.372 . S
C3851 C3852 1.400 . S
C3851 C3856 1.490 . S
C3852 H3842 0.930 . S
C3852 C3851 1.400 . S
C3852 C3855 1.386 . S
H3853 C3869 0.930 . S
H3854 C3870 0.931 . S
C3855 H3843 0.929 . S
C3855 C3849 1.390 . S
C3855 C3852 1.386 . S
C3856 C3851 1.490 . S
C3856 C3858 1.395 . S
C3856 C3859 1.403 . S
H3857 C3863 0.930 . S
C3858 H3844 0.930 . S
C3858 C3856 1.395 . S
C3858 C3861 1.403 . S
C3859 C3856 1.403 . S
C3859 C3860 1.524 . S
C3859 C3863 1.400 . S
C3860 H3845 0.960 . S
C3860 H3846 0.960 . S
C3860 H3847 0.960 . S
C3860 C3859 1.524 . S
C3861 C3858 1.403 . S
C3861 C3862 1.392 . S
C3861 C3865 1.495 . S
C3862 C3861 1.392 . S
C3862 C3863 1.385 . S
C3862 C3864 1.478 . S
C3863 H3857 0.930 . S
C3863 C3859 1.400 . S
C3863 C3862 1.385 . S
C3864 C3862 1.478 . S
C3864 C3866 1.381 . S
C3864 C3870 1.383 . S
C3865 C3861 1.495 . S
C3865 H3871 0.959 . S
C3865 H3872 0.961 . S
C3865 H3873 0.960 . S
C3866 C3864 1.381 . S
C3866 C3867 1.394 . S
C3866 H3874 0.930 . S
C3867 C3866 1.394 . S
C3867 C3868 1.383 . S
C3867 H3875 0.929 . S
C3868 C3867 1.383 . S
C3868 C3869 1.377 . S
C3869 H3853 0.930 . S
C3869 C3868 1.377 . S
C3869 C3870 1.379 . S
C3870 H3854 0.931 . S
C3870 C3864 1.383 . S
C3870 C3869 1.379 . S
H3871 C3865 0.959 . S
H3872 C3865 0.961 . S
H3873 C3865 0.960 . S
H3874 C3866 0.930 . S
H3875 C3867 0.929 . S
H3876 C3884 0.929 . S
H3877 C3886 0.930 . S
H3878 C3888 0.930 . S
H3879 C3891 0.929 . S
H3880 C3894 0.930 . S
H3881 C3896 0.960 . S
H3882 C3896 0.960 . S
H3883 C3896 0.960 . S
C3884 H3876 0.929 . S
C3884 C3885 1.377 . S
C3884 C3886 1.384 . S
C3885 C3884 1.377 . S
C3885 C3891 1.390 . S
C3886 H3877 0.930 . S
C3886 C3884 1.384 . S
C3886 C3887 1.372 . S
C3887 C3886 1.372 . S
C3887 C3888 1.400 . S
C3887 C3892 1.490 . S
C3888 H3878 0.930 . S
C3888 C3887 1.400 . S
C3888 C3891 1.386 . S
H3889 C3905 0.930 . S
H3890 C3906 0.931 . S
C3891 H3879 0.929 . S
C3891 C3885 1.390 . S
C3891 C3888 1.386 . S
C3892 C3887 1.490 . S
C3892 C3894 1.395 . S
C3892 C3895 1.403 . S
H3893 C3899 0.930 . S
C3894 H3880 0.930 . S
C3894 C3892 1.395 . S
C3894 C3897 1.403 . S
C3895 C3892 1.403 . S
C3895 C3896 1.524 . S
C3895 C3899 1.400 . S
C3896 H3881 0.960 . S
C3896 H3882 0.960 . S
C3896 H3883 0.960 . S
C3896 C3895 1.524 . S
C3897 C3894 1.403 . S
C3897 C3898 1.392 . S
C3897 C3901 1.495 . S
C3898 C3897 1.392 . S
C3898 C3899 1.385 . S
C3898 C3900 1.478 . S
C3899 H3893 0.930 . S
C3899 C3895 1.400 . S
C3899 C3898 1.385 . S
C3900 C3898 1.478 . S
C3900 C3902 1.381 . S
C3900 C3906 1.383 . S
C3901 C3897 1.495 . S
C3901 H3907 0.959 . S
C3901 H3908 0.961 . S
C3901 H3909 0.960 . S
C3902 C3900 1.381 . S
C3902 C3903 1.394 . S
C3902 H3910 0.930 . S
C3903 C3902 1.394 . S
C3903 C3904 1.383 . S
C3903 H3911 0.929 . S
C3904 C3903 1.383 . S
C3904 C3905 1.377 . S
C3905 H3889 0.930 . S
C3905 C3904 1.377 . S
C3905 C3906 1.379 . S
C3906 H3890 0.931 . S
C3906 C3900 1.383 . S
C3906 C3905 1.379 . S
H3907 C3901 0.959 . S
H3908 C3901 0.961 . S
H3909 C3901 0.960 . S
H3910 C3902 0.930 . S
H3911 C3903 0.929 . S
H3912 C3920 0.929 . S
H3913 C3922 0.930 . S
H3914 C3924 0.930 . S
H3915 C3927 0.929 . S
H3916 C3930 0.930 . S
H3917 C3932 0.960 . S
H3918 C3932 0.960 . S
H3919 C3932 0.960 . S
C3920 H3912 0.929 . S
C3920 C3921 1.377 . S
C3920 C3922 1.384 . S
C3921 C3920 1.377 . S
C3921 C3927 1.390 . S
C3922 H3913 0.930 . S
C3922 C3920 1.384 . S
C3922 C3923 1.372 . S
C3923 C3922 1.372 . S
C3923 C3924 1.400 . S
C3923 C3928 1.490 . S
C3924 H3914 0.930 . S
C3924 C3923 1.400 . S
C3924 C3927 1.386 . S
H3925 C3941 0.930 . S
H3926 C3942 0.931 . S
C3927 H3915 0.929 . S
C3927 C3921 1.390 . S
C3927 C3924 1.386 . S
C3928 C3923 1.490 . S
C3928 C3930 1.395 . S
C3928 C3931 1.403 . S
H3929 C3935 0.930 . S
C3930 H3916 0.930 . S
C3930 C3928 1.395 . S
C3930 C3933 1.403 . S
C3931 C3928 1.403 . S
C3931 C3932 1.524 . S
C3931 C3935 1.400 . S
C3932 H3917 0.960 . S
C3932 H3918 0.960 . S
C3932 H3919 0.960 . S
C3932 C3931 1.524 . S
C3933 C3930 1.403 . S
C3933 C3934 1.392 . S
C3933 C3937 1.495 . S
C3934 C3933 1.392 . S
C3934 C3935 1.385 . S
C3934 C3936 1.478 . S
C3935 H3929 0.930 . S
C3935 C3931 1.400 . S
C3935 C3934 1.385 . S
C3936 C3934 1.478 . S
C3936 C3938 1.381 . S
C3936 C3942 1.383 . S
C3937 C3933 1.495 . S
C3937 H3943 0.959 . S
C3937 H3944 0.961 . S
C3937 H3945 0.960 . S
C3938 C3936 1.381 . S
C3938 C3939 1.394 . S
C3938 H3946 0.930 . S
C3939 C3938 1.394 . S
C3939 C3940 1.383 . S
C3939 H3947 0.929 . S
C3940 C3939 1.383 . S
C3940 C3941 1.377 . S
C3941 H3925 0.930 . S
C3941 C3940 1.377 . S
C3941 C3942 1.379 . S
C3942 H3926 0.931 . S
C3942 C3936 1.383 . S
C3942 C3941 1.379 . S
H3943 C3937 0.959 . S
H3944 C3937 0.961 . S
H3945 C3937 0.960 . S
H3946 C3938 0.930 . S
H3947 C3939 0.929 . S
H3948 C3956 0.929 . S
H3949 C3958 0.930 . S
H3950 C3960 0.930 . S
H3951 C3963 0.929 . S
H3952 C3966 0.930 . S
H3953 C3968 0.960 . S
H3954 C3968 0.960 . S
H3955 C3968 0.960 . S
C3956 H3948 0.929 . S
C3956 C3957 1.377 . S
C3956 C3958 1.384 . S
C3957 C3956 1.377 . S
C3957 C3963 1.390 . S
C3958 H3949 0.930 . S
C3958 C3956 1.384 . S
C3958 C3959 1.372 . S
C3959 C3958 1.372 . S
C3959 C3960 1.400 . S
C3959 C3964 1.490 . S
C3960 H3950 0.930 . S
C3960 C3959 1.400 . S
C3960 C3963 1.386 . S
H3961 C3977 0.930 . S
H3962 C3978 0.931 . S
C3963 H3951 0.929 . S
C3963 C3957 1.390 . S
C3963 C3960 1.386 . S
C3964 C3959 1.490 . S
C3964 C3966 1.395 . S
C3964 C3967 1.403 . S
H3965 C3971 0.930 . S
C3966 H3952 0.930 . S
C3966 C3964 1.395 . S
C3966 C3969 1.403 . S
C3967 C3964 1.403 . S
C3967 C3968 1.524 . S
C3967 C3971 1.400 . S
C3968 H3953 0.960 . S
C3968 H3954 0.960 . S
C3968 H3955 0.960 . S
C3968 C3967 1.524 . S
C3969 C3966 1.403 . S
C3969 C3970 1.392 . S
C3969 C3973 1.495 . S
C3970 C3969 1.392 . S
C3970 C3971 1.385 . S
C3970 C3972 1.478 . S
C3971 H3965 0.930 . S
C3971 C3967 1.400 . S
C3971 C3970 1.385 . S
C3972 C3970 1.478 . S
C3972 C3974 1.381 . S
C3972 C3978 1.383 . S
C3973 C3969 1.495 . S
C3973 H3979 0.959 . S
C3973 H3980 0.961 . S
C3973 H3981 0.960 . S
C3974 C3972 1.381 . S
C3974 C3975 1.394 . S
C3974 H3982 0.930 . S
C3975 C3974 1.394 . S
C3975 C3976 1.383 . S
C3975 H3983 0.929 . S
C3976 C3975 1.383 . S
C3976 C3977 1.377 . S
C3977 H3961 0.930 . S
C3977 C3976 1.377 . S
C3977 C3978 1.379 . S
C3978 H3962 0.931 . S
C3978 C3972 1.383 . S
C3978 C3977 1.379 . S
H3979 C3973 0.959 . S
H3980 C3973 0.961 . S
H3981 C3973 0.960 . S
H3982 C3974 0.930 . S
H3983 C3975 0.929 . S
H3984 C3992 0.929 . S
H3985 C3994 0.930 . S
H3986 C3996 0.930 . S
H3987 C3999 0.929 . S
H3988 C4002 0.930 . S
H3989 C4004 0.960 . S
H3990 C4004 0.960 . S
H3991 C4004 0.960 . S
C3992 H3984 0.929 . S
C3992 C3993 1.377 . S
C3992 C3994 1.384 . S
C3993 C3992 1.377 . S
C3993 C3999 1.390 . S
C3994 H3985 0.930 . S
C3994 C3992 1.384 . S
C3994 C3995 1.372 . S
C3995 C3994 1.372 . S
C3995 C3996 1.400 . S
C3995 C4000 1.490 . S
C3996 H3986 0.930 . S
C3996 C3995 1.400 . S
C3996 C3999 1.386 . S
H3997 C4013 0.930 . S
H3998 C4014 0.931 . S
C3999 H3987 0.929 . S
C3999 C3993 1.390 . S
C3999 C3996 1.386 . S
C4000 C3995 1.490 . S
C4000 C4002 1.395 . S
C4000 C4003 1.403 . S
H4001 C4007 0.930 . S
C4002 H3988 0.930 . S
C4002 C4000 1.395 . S
C4002 C4005 1.403 . S
C4003 C4000 1.403 . S
C4003 C4004 1.524 . S
C4003 C4007 1.400 . S
C4004 H3989 0.960 . S
C4004 H3990 0.960 . S
C4004 H3991 0.960 . S
C4004 C4003 1.524 . S
C4005 C4002 1.403 . S
C4005 C4006 1.392 . S
C4005 C4009 1.495 . S
C4006 C4005 1.392 . S
C4006 C4007 1.385 . S
C4006 C4008 1.478 . S
C4007 H4001 0.930 . S
C4007 C4003 1.400 . S
C4007 C4006 1.385 . S
C4008 C4006 1.478 . S
C4008 C4010 1.381 . S
C4008 C4014 1.383 . S
C4009 C4005 1.495 . S
C4009 H4015 0.959 . S
C4009 H4016 0.961 . S
C4009 H4017 0.960 . S
C4010 C4008 1.381 . S
C4010 C4011 1.394 . S
C4010 H4018 0.930 . S
C4011 C4010 1.394 . S
C4011 C4012 1.383 . S
C4011 H4019 0.929 . S
C4012 C4011 1.383 . S
C4012 C4013 1.377 . S
C4013 H3997 0.930 . S
C4013 C4012 1.377 . S
C4013 C4014 1.379 . S
C4014 H3998 0.931 . S
C4014 C4008 1.383 . S
C4014 C4013 1.379 . S
H4015 C4009 0.959 . S
H4016 C4009 0.961 . S
H4017 C4009 0.960 . S
H4018 C4010 0.930 . S
H4019 C4011 0.929 . S
H4020 C4028 0.929 . S
H4021 C4030 0.930 . S
H4022 C4032 0.930 . S
H4023 C4035 0.929 . S
H4024 C4038 0.930 . S
H4025 C4040 0.960 . S
H4026 C4040 0.960 . S
H4027 C4040 0.960 . S
C4028 H4020 0.929 . S
C4028 C4029 1.377 . S
C4028 C4030 1.384 . S
C4029 C4028 1.377 . S
C4029 C4035 1.390 . S
C4030 H4021 0.930 . S
C4030 C4028 1.384 . S
C4030 C4031 1.372 . S
C4031 C4030 1.372 . S
C4031 C4032 1.400 . S
C4031 C4036 1.490 . S
C4032 H4022 0.930 . S
C4032 C4031 1.400 . S
C4032 C4035 1.386 . S
H4033 C4049 0.930 . S
H4034 C4050 0.931 . S
C4035 H4023 0.929 . S
C4035 C4029 1.390 . S
C4035 C4032 1.386 . S
C4036 C4031 1.490 . S
C4036 C4038 1.395 . S
C4036 C4039 1.403 . S
H4037 C4043 0.930 . S
C4038 H4024 0.930 . S
C4038 C4036 1.395 . S
C4038 C4041 1.403 . S
C4039 C4036 1.403 . S
C4039 C4040 1.524 . S
C4039 C4043 1.400 . S
C4040 H4025 0.960 . S
C4040 H4026 0.960 . S
C4040 H4027 0.960 . S
C4040 C4039 1.524 . S
C4041 C4038 1.403 . S
C4041 C4042 1.392 . S
C4041 C4045 1.495 . S
C4042 C4041 1.392 . S
C4042 C4043 1.385 . S
C4042 C4044 1.478 . S
C4043 H4037 0.930 . S
C4043 C4039 1.400 . S
C4043 C4042 1.385 . S
C4044 C4042 1.478 . S
C4044 C4046 1.381 . S
C4044 C4050 1.383 . S
C4045 C4041 1.495 . S
C4045 H4051 0.959 . S
C4045 H4052 0.961 . S
C4045 H4053 0.960 . S
C4046 C4044 1.381 . S
C4046 C4047 1.394 . S
C4046 H4054 0.930 . S
C4047 C4046 1.394 . S
C4047 C4048 1.383 . S
C4047 H4055 0.929 . S
C4048 C4047 1.383 . S
C4048 C4049 1.377 . S
C4049 H4033 0.930 . S
C4049 C4048 1.377 . S
C4049 C4050 1.379 . S
C4050 H4034 0.931 . S
C4050 C4044 1.383 . S
C4050 C4049 1.379 . S
H4051 C4045 0.959 . S
H4052 C4045 0.961 . S
H4053 C4045 0.960 . S
H4054 C4046 0.930 . S
H4055 C4047 0.929 . S
H4056 C4064 0.929 . S
H4057 C4066 0.930 . S
H4058 C4068 0.930 . S
H4059 C4071 0.929 . S
H4060 C4074 0.930 . S
H4061 C4076 0.960 . S
H4062 C4076 0.960 . S
H4063 C4076 0.960 . S
C4064 H4056 0.929 . S
C4064 C4065 1.377 . S
C4064 C4066 1.384 . S
C4065 C4064 1.377 . S
C4065 C4071 1.390 . S
C4066 H4057 0.930 . S
C4066 C4064 1.384 . S
C4066 C4067 1.372 . S
C4067 C4066 1.372 . S
C4067 C4068 1.400 . S
C4067 C4072 1.490 . S
C4068 H4058 0.930 . S
C4068 C4067 1.400 . S
C4068 C4071 1.386 . S
H4069 C4085 0.930 . S
H4070 C4086 0.931 . S
C4071 H4059 0.929 . S
C4071 C4065 1.390 . S
C4071 C4068 1.386 . S
C4072 C4067 1.490 . S
C4072 C4074 1.395 . S
C4072 C4075 1.403 . S
H4073 C4079 0.930 . S
C4074 H4060 0.930 . S
C4074 C4072 1.395 . S
C4074 C4077 1.403 . S
C4075 C4072 1.403 . S
C4075 C4076 1.524 . S
C4075 C4079 1.400 . S
C4076 H4061 0.960 . S
C4076 H4062 0.960 . S
C4076 H4063 0.960 . S
C4076 C4075 1.524 . S
C4077 C4074 1.403 . S
C4077 C4078 1.392 . S
C4077 C4081 1.495 . S
C4078 C4077 1.392 . S
C4078 C4079 1.385 . S
C4078 C4080 1.478 . S
C4079 H4073 0.930 . S
C4079 C4075 1.400 . S
C4079 C4078 1.385 . S
C4080 C4078 1.478 . S
C4080 C4082 1.381 . S
C4080 C4086 1.383 . S
C4081 C4077 1.495 . S
C4081 H4087 0.959 . S
C4081 H4088 0.961 . S
C4081 H4089 0.960 . S
C4082 C4080 1.381 . S
C4082 C4083 1.394 . S
C4082 H4090 0.930 . S
C4083 C4082 1.394 . S
C4083 C4084 1.383 . S
C4083 H4091 0.929 . S
C4084 C4083 1.383 . S
C4084 C4085 1.377 . S
C4085 H4069 0.930 . S
C4085 C4084 1.377 . S
C4085 C4086 1.379 . S
C4086 H4070 0.931 . S
C4086 C4080 1.383 . S
C4086 C4085 1.379 . S
H4087 C4081 0.959 . S
H4088 C4081 0.961 . S
H4089 C4081 0.960 . S
H4090 C4082 0.930 . S
H4091 C4083 0.929 . S
H4092 C4100 0.929 . S
H4093 C4102 0.930 . S
H4094 C4104 0.930 . S
H4095 C4107 0.929 . S
H4096 C4110 0.930 . S
H4097 C4112 0.960 . S
H4098 C4112 0.960 . S
H4099 C4112 0.960 . S
C4100 H4092 0.929 . S
C4100 C4101 1.377 . S
C4100 C4102 1.384 . S
C4101 C4100 1.377 . S
C4101 C4107 1.390 . S
C4102 H4093 0.930 . S
C4102 C4100 1.384 . S
C4102 C4103 1.372 . S
C4103 C4102 1.372 . S
C4103 C4104 1.400 . S
C4103 C4108 1.490 . S
C4104 H4094 0.930 . S
C4104 C4103 1.400 . S
C4104 C4107 1.386 . S
H4105 C4121 0.930 . S
H4106 C4122 0.931 . S
C4107 H4095 0.929 . S
C4107 C4101 1.390 . S
C4107 C4104 1.386 . S
C4108 C4103 1.490 . S
C4108 C4110 1.395 . S
C4108 C4111 1.403 . S
H4109 C4115 0.930 . S
C4110 H4096 0.930 . S
C4110 C4108 1.395 . S
C4110 C4113 1.403 . S
C4111 C4108 1.403 . S
C4111 C4112 1.524 . S
C4111 C4115 1.400 . S
C4112 H4097 0.960 . S
C4112 H4098 0.960 . S
C4112 H4099 0.960 . S
C4112 C4111 1.524 . S
C4113 C4110 1.403 . S
C4113 C4114 1.392 . S
C4113 C4117 1.495 . S
C4114 C4113 1.392 . S
C4114 C4115 1.385 . S
C4114 C4116 1.478 . S
C4115 H4109 0.930 . S
C4115 C4111 1.400 . S
C4115 C4114 1.385 . S
C4116 C4114 1.478 . S
C4116 C4118 1.381 . S
C4116 C4122 1.383 . S
C4117 C4113 1.495 . S
C4117 H4123 0.959 . S
C4117 H4124 0.961 . S
C4117 H4125 0.960 . S
C4118 C4116 1.381 . S
C4118 C4119 1.394 . S
C4118 H4126 0.930 . S
C4119 C4118 1.394 . S
C4119 C4120 1.383 . S
C4119 H4127 0.929 . S
C4120 C4119 1.383 . S
C4120 C4121 1.377 . S
C4121 H4105 0.930 . S
C4121 C4120 1.377 . S
C4121 C4122 1.379 . S
C4122 H4106 0.931 . S
C4122 C4116 1.383 . S
C4122 C4121 1.379 . S
H4123 C4117 0.959 . S
H4124 C4117 0.961 . S
H4125 C4117 0.960 . S
H4126 C4118 0.930 . S
H4127 C4119 0.929 . S
C681 C93 0.981 . S
C700 C9 1.002 . S
C717 C23 0.971 . S
C736 C107 0.948 . S
C753 C37 0.981 . S
C772 C65 0.999 . S
C789 C79 0.979 . S
C808 C51 1.000 . S
C825 C485 0.972 . S
C844 C121 0.952 . S
C861 C499 0.979 . S
C880 C135 0.998 . S
C897 C149 0.972 . S
C916 C457 0.951 . S
C933 C163 0.980 . S
C952 C471 0.991 . S
C969 C541 0.978 . S
C988 C177 0.980 . S
C1005 C555 0.980 . S
C1024 C191 0.992 . S
C1041 C513 0.979 . S
C1060 C205 0.999 . S
C1077 C527 0.981 . S
C1096 C219 1.003 . S
C1113 C233 0.978 . S
C1132 C583 0.980 . S
C1149 C247 0.975 . S
C1168 C569 0.981 . S
C1185 C261 0.970 . S
C1204 C331 0.944 . S
C1221 C639 0.969 . S
C1240 C275 0.944 . S
C1257 C653 0.980 . S
C1276 C289 1.002 . S
C1293 C611 0.977 . S
C1312 C303 0.992 . S
C1329 C625 0.981 . S
C1348 C317 1.002 . S
C1365 C429 0.978 . S
C1384 C345 0.994 . S
C1401 C443 0.979 . S
C1420 C359 0.999 . S
C1437 C373 0.980 . S
C1456 C401 1.002 . S
C1473 C387 0.971 . S
C1492 C415 0.947 . S
C1509 C667 0.976 . S
C1528 C597 0.968 . S
C1545 C229 1.007 . S
C1564 C0 0.995 . S
C1581 C14 1.008 1_655 S
C1600 C663 0.969 . S
C1617 C28 1.003 . S
C1636 C299 0.970 . S
C1653 C649 1.044 . S
C1672 C42 1.015 . S
C1689 C56 1.004 . S
C1708 C579 1.030 . S
C1725 C593 0.995 . S
C1744 C70 1.024 . S
C1761 C84 1.010 . S
C1780 C607 0.993 . S
C1797 C285 1.039 . S
C1816 C98 1.031 1_655 S
C1833 C112 1.000 . S
C1852 C5 0.986 . S
C1869 C19 1.036 . S
C1888 C126 0.977 . S
C1905 C140 1.005 . S
C1924 C33 1.030 . S
C1941 C154 1.007 1_554 S
C1960 C47 1.064 . S
C1977 C168 1.004 . S
C1996 C61 0.967 . S
C2013 C75 1.044 . S
C2032 C182 0.987 . S
C2049 C196 1.010 . S
C2068 C89 1.001 . S
C2085 C210 1.010 1_556 S
C2104 C103 1.035 . S
C2121 C224 1.010 . S
C2140 C117 1.008 . S
C2157 C238 1.001 . S
C2176 C509 0.977 . S
C2193 C523 1.032 . S
C2212 C252 1.012 . S
C2229 C537 1.001 . S
C2248 C266 0.974 . S
C2265 C280 1.008 1_565 S
C2284 C215 1.062 . S
C2301 C294 1.009 . S
C2320 C145 1.016 . S
C2337 C495 1.032 . S
C2356 C308 0.995 . S
C2373 C467 1.006 . S
C2392 C322 1.014 . S
C2409 C336 1.000 . S
C2428 C565 0.981 . S
C2445 C350 0.999 . S
C2464 C327 1.025 . S
C2481 C364 1.010 . S
C2500 C635 1.003 . S
C2517 C378 0.999 1_455 S
C2536 C313 0.989 . S
C2553 C392 1.006 . S
C2572 C243 0.966 . S
C2589 C257 1.032 . S
C2608 C406 0.999 1_455 S
C2625 C271 0.997 . S
C2644 C420 0.980 . S
C2661 C621 0.993 . S
C2680 C434 1.011 . S
C2697 C341 0.995 . S
C2716 C448 0.990 . S
C2733 C355 1.001 . S
C2752 C462 0.974 1_554 S
C2769 C476 1.008 . S
C2788 C369 1.021 . S
C2805 C383 0.994 . S
C2824 C490 1.005 . S
C2841 C504 1.000 . S
C2860 C397 0.979 . S
C2877 C411 0.994 . S
C2896 C518 0.999 1_556 S
C2913 C532 0.999 . S
C2932 C425 0.996 . S
C2949 C439 0.993 . S
C2968 C546 1.010 . S
C2985 C560 1.010 . S
C3004 C453 1.007 . S
C3021 C574 1.010 . S
C3040 C173 1.007 . S
C3057 C187 1.007 . S
C3076 C588 0.989 1_545 S
C3093 C602 1.006 . S
C3112 C201 1.026 . S
C3129 C616 1.010 . S
C3148 C551 0.990 . S
C3165 C481 1.007 . S
C3184 C630 0.995 . S
C3201 C644 1.008 1_565 S
C3220 C159 1.018 . S
C3237 C131 1.032 . S
C3256 C658 1.017 1_545 S
C3273 C137 0.392 . S
C3292 C11 0.422 . S
C3309 C25 0.397 . S
C3328 C151 0.437 . S
C3345 C165 0.390 . S
C3364 C39 0.395 . S
C3381 C123 0.385 . S
C3400 C53 0.374 . S
C3417 C67 0.388 . S
C3436 C221 0.404 . S
C3453 C81 0.386 . S
C3472 C179 0.396 . S
C3489 C193 0.379 . S
C3508 C95 0.357 . S
C3525 C207 0.381 . S
C3544 C109 0.370 . S
C3561 C235 0.391 . S
C3580 C263 0.402 . S
C3597 C249 0.385 . S
C3616 C655 0.389 . S
C3633 C277 0.397 . S
C3652 C669 0.431 . S
C3669 C641 0.384 . S
C3688 C291 0.385 . S
C3705 C627 0.382 . S
C3724 C305 0.357 . S
C3741 C585 0.385 . S
C3760 C319 0.388 . S
C3777 C333 0.396 . S
C3796 C613 0.428 . S
C3813 C473 0.381 . S
C3832 C347 0.354 . S
C3849 C487 0.390 . S
C3868 C361 0.413 . S
C3885 C375 0.397 . S
C3904 C501 0.437 . S
C3921 C459 0.392 . S
C3940 C389 0.421 . S
C3957 C557 0.393 . S
C3976 C403 0.422 . S
C3993 C515 0.397 . S
C4012 C417 0.436 . S
C4029 C431 0.394 . S
C4048 C529 0.416 . S
C4065 C543 0.382 . S
C4084 C445 0.373 . S
C4101 C599 0.383 . S
C4120 C571 0.378 . S
