# Generated by pormake.
# Topology gsi, (4)-cn, num edge types: 1
# Building blocks:
#     Node 0, Type 0, BuildingBlock: UXUYUI_clean_sbu_0, # of connection points: 4
#     Node 1, Type 0, BuildingBlock: UXUYUI_clean_sbu_0, # of connection points: 4
#     Node 2, Type 0, BuildingBlock: UXUYUI_clean_sbu_0, # of connection points: 4
#     Node 3, Type 0, BuildingBlock: UXUYUI_clean_sbu_0, # of connection points: 4
#     Node 4, Type 0, BuildingBlock: UXUYUI_clean_sbu_0, # of connection points: 4
#     Node 5, Type 0, BuildingBlock: UXUYUI_clean_sbu_0, # of connection points: 4
#     Node 6, Type 0, BuildingBlock: UXUYUI_clean_sbu_0, # of connection points: 4
#     Node 7, Type 0, BuildingBlock: UXUYUI_clean_sbu_0, # of connection points: 4
#     Node 8, Type 0, BuildingBlock: UXUYUI_clean_sbu_0, # of connection points: 4
#     Node 9, Type 0, BuildingBlock: UXUYUI_clean_sbu_0, # of connection points: 4
#     Node 10, Type 0, BuildingBlock: UXUYUI_clean_sbu_0, # of connection points: 4
#     Node 11, Type 0, BuildingBlock: UXUYUI_clean_sbu_0, # of connection points: 4
#     Node 12, Type 0, BuildingBlock: UXUYUI_clean_sbu_0, # of connection points: 4
#     Node 13, Type 0, BuildingBlock: UXUYUI_clean_sbu_0, # of connection points: 4
#     Node 14, Type 0, BuildingBlock: UXUYUI_clean_sbu_0, # of connection points: 4
#     Node 15, Type 0, BuildingBlock: UXUYUI_clean_sbu_0, # of connection points: 4
#     Edge 16, Type (0, 0), BuildingBlock: XIVTED_clean_linker_0, # of connection points: 2
#     Edge 17, Type (0, 0), BuildingBlock: XIVTED_clean_linker_0, # of connection points: 2
#     Edge 18, Type (0, 0), BuildingBlock: XIVTED_clean_linker_0, # of connection points: 2
#     Edge 19, Type (0, 0), BuildingBlock: XIVTED_clean_linker_0, # of connection points: 2
#     Edge 20, Type (0, 0), BuildingBlock: XIVTED_clean_linker_0, # of connection points: 2
#     Edge 21, Type (0, 0), BuildingBlock: XIVTED_clean_linker_0, # of connection points: 2
#     Edge 22, Type (0, 0), BuildingBlock: XIVTED_clean_linker_0, # of connection points: 2
#     Edge 23, Type (0, 0), BuildingBlock: XIVTED_clean_linker_0, # of connection points: 2
#     Edge 24, Type (0, 0), BuildingBlock: XIVTED_clean_linker_0, # of connection points: 2
#     Edge 25, Type (0, 0), BuildingBlock: XIVTED_clean_linker_0, # of connection points: 2
#     Edge 26, Type (0, 0), BuildingBlock: XIVTED_clean_linker_0, # of connection points: 2
#     Edge 27, Type (0, 0), BuildingBlock: XIVTED_clean_linker_0, # of connection points: 2
#     Edge 28, Type (0, 0), BuildingBlock: XIVTED_clean_linker_0, # of connection points: 2
#     Edge 29, Type (0, 0), BuildingBlock: XIVTED_clean_linker_0, # of connection points: 2
#     Edge 30, Type (0, 0), BuildingBlock: XIVTED_clean_linker_0, # of connection points: 2
#     Edge 31, Type (0, 0), BuildingBlock: XIVTED_clean_linker_0, # of connection points: 2
#     Edge 32, Type (0, 0), BuildingBlock: XIVTED_clean_linker_0, # of connection points: 2
#     Edge 33, Type (0, 0), BuildingBlock: XIVTED_clean_linker_0, # of connection points: 2
#     Edge 34, Type (0, 0), BuildingBlock: XIVTED_clean_linker_0, # of connection points: 2
#     Edge 35, Type (0, 0), BuildingBlock: XIVTED_clean_linker_0, # of connection points: 2
#     Edge 36, Type (0, 0), BuildingBlock: XIVTED_clean_linker_0, # of connection points: 2
#     Edge 37, Type (0, 0), BuildingBlock: XIVTED_clean_linker_0, # of connection points: 2
#     Edge 38, Type (0, 0), BuildingBlock: XIVTED_clean_linker_0, # of connection points: 2
#     Edge 39, Type (0, 0), BuildingBlock: XIVTED_clean_linker_0, # of connection points: 2
#     Edge 40, Type (0, 0), BuildingBlock: XIVTED_clean_linker_0, # of connection points: 2
#     Edge 41, Type (0, 0), BuildingBlock: XIVTED_clean_linker_0, # of connection points: 2
#     Edge 42, Type (0, 0), BuildingBlock: XIVTED_clean_linker_0, # of connection points: 2
#     Edge 43, Type (0, 0), BuildingBlock: XIVTED_clean_linker_0, # of connection points: 2
#     Edge 44, Type (0, 0), BuildingBlock: XIVTED_clean_linker_0, # of connection points: 2
#     Edge 45, Type (0, 0), BuildingBlock: XIVTED_clean_linker_0, # of connection points: 2
#     Edge 46, Type (0, 0), BuildingBlock: XIVTED_clean_linker_0, # of connection points: 2
#     Edge 47, Type (0, 0), BuildingBlock: XIVTED_clean_linker_0, # of connection points: 2
# Relax obj value: 0.073
# Max RMSD: 0.058
# Mean RMSD: 0.058
data_MOF--net-gsi--node1-UXUYUI_clean_sbu_0--edge1-XIVTED_clean_linker_0
_symmetry_space_group_name_H-M    P1
_symmetry_Int_Tables_number       1
_symmetry_cell_setting            triclinic
loop_
_symmetry_equiv_pos_as_xyz
'x, y, z'
_cell_length_a     62.369724
_cell_length_b     62.286659
_cell_length_c     62.288882
_cell_angle_alpha  90.001699
_cell_angle_beta   89.998209
_cell_angle_gamma 90.074682
loop_
_atom_site_label
_atom_site_type_symbol
_atom_site_fract_x
_atom_site_fract_y
_atom_site_fract_z
_atom_type_partial_charge
Li0 Li 0.13382 0.1662 0.14977 0.0
Li1 Li 0.1676 0.16611 0.16759 0.0
Li2 Li 0.16606 0.15047 0.13302 0.0
Li3 Li 0.15015 0.13187 0.16547 0.0
C4 C 0.15585 0.19186 0.12195 0.0
N5 N 0.14647 0.21385 0.08455 0.0
C6 C 0.16336 0.21281 0.11895 0.0
C7 C 0.14353 0.18213 0.1059 0.0
C8 C 0.15845 0.22365 0.09995 0.0
C9 C 0.13898 0.1935 0.08712 0.0
C10 C 0.13729 0.16809 0.19911 0.0
C11 C 0.13486 0.16703 0.23773 0.0
N12 N 0.13331 0.18881 0.23811 0.0
C13 C 0.13554 0.19044 0.19986 0.0
C14 C 0.13686 0.15624 0.21817 0.0
C15 C 0.1336 0.20062 0.21974 0.0
C16 C 0.08874 0.17233 0.14284 0.0
N17 N 0.10799 0.18219 0.14571 0.0
C18 C 0.09132 0.21674 0.14486 0.0
C19 C 0.10956 0.20394 0.14669 0.0
C20 C 0.07113 0.20711 0.14215 0.0
C21 C 0.06998 0.18456 0.14106 0.0
H22 H 0.08793 0.15499 0.14221 0.0
H23 H 0.125 0.2114 0.14927 0.0
C24 C 0.1958 0.20006 0.17624 0.0
N25 N 0.18558 0.18325 0.18567 0.0
C26 C 0.20921 0.21335 0.18828 0.0
C27 C 0.20166 0.19157 0.2195 0.0
C28 C 0.18836 0.17874 0.20686 0.0
C29 C 0.21222 0.2092 0.21023 0.0
H30 H 0.19366 0.20303 0.1593 0.0
H31 H 0.18039 0.16509 0.21396 0.0
C32 C 0.13266 0.1197 0.12354 0.0
N33 N 0.12446 0.08437 0.09801 0.0
C34 C 0.14477 0.10099 0.12597 0.0
C35 C 0.11636 0.12044 0.10817 0.0
C36 C 0.14037 0.08329 0.11291 0.0
C37 C 0.11249 0.10242 0.09539 0.0
C38 C 0.1994 0.13899 0.16955 0.0
C39 C 0.21763 0.14787 0.15998 0.0
C40 C 0.20059 0.13125 0.19059 0.0
C41 C 0.23672 0.14902 0.17166 0.0
C42 C 0.21999 0.13264 0.20173 0.0
N43 N 0.23749 0.14144 0.19213 0.0
C44 C 0.19759 0.16278 0.10408 0.0
C45 C 0.17923 0.13182 0.09189 0.0
C46 C 0.21115 0.16228 0.08627 0.0
N47 N 0.18215 0.14757 0.10675 0.0
C48 C 0.1925 0.13069 0.07379 0.0
C49 C 0.20889 0.14594 0.0709 0.0
H50 H 0.1995 0.17529 0.11597 0.0
H51 H 0.16682 0.11999 0.09402 0.0
C52 C 0.12572 0.10186 0.19014 0.0
N53 N 0.14483 0.1054 0.18022 0.0
C54 C 0.12291 0.0838 0.20326 0.0
C55 C 0.15931 0.07323 0.19529 0.0
C56 C 0.1613 0.09125 0.18212 0.0
C57 C 0.14006 0.06954 0.20636 0.0
H58 H 0.11293 0.11346 0.18848 0.0
H59 H 0.17628 0.09431 0.17393 0.0
O60 O 0.16056 0.18115 0.14058 0.0
O61 O 0.13933 0.1578 0.17984 0.0
O62 O 0.13643 0.13711 0.13635 0.0
O63 O 0.18046 0.13805 0.15847 0.0
H64 H 0.17281 0.22067 0.13122 0.0
H65 H 0.13753 0.16599 0.10781 0.0
H66 H 0.16415 0.23987 0.09745 0.0
H67 H 0.12949 0.18614 0.07458 0.0
H68 H 0.1346 0.15809 0.25262 0.0
H69 H 0.13604 0.19983 0.18528 0.0
H70 H 0.13823 0.13893 0.21785 0.0
H71 H 0.13239 0.21793 0.22058 0.0
H72 H 0.09297 0.234 0.14617 0.0
H73 H 0.05477 0.17647 0.13883 0.0
H74 H 0.21734 0.22657 0.18043 0.0
H75 H 0.20343 0.18787 0.23639 0.0
H76 H 0.15768 0.1003 0.13751 0.0
H77 H 0.10681 0.13481 0.10616 0.0
H78 H 0.14968 0.06874 0.11455 0.0
H79 H 0.09994 0.10277 0.0834 0.0
H80 H 0.21706 0.15391 0.14375 0.0
H81 H 0.18657 0.12473 0.19846 0.0
H82 H 0.25091 0.15595 0.16447 0.0
H83 H 0.22107 0.12687 0.21808 0.0
H84 H 0.22323 0.17467 0.08455 0.0
H85 H 0.1902 0.11772 0.06243 0.0
H86 H 0.10785 0.08153 0.21162 0.0
H87 H 0.17282 0.06246 0.19707 0.0
Li88 Li 0.84507 0.34703 0.16659 0.0
Li89 Li 0.87951 0.34585 0.14993 0.0
Li90 Li 0.86316 0.38088 0.16497 0.0
Li91 Li 0.84789 0.3621 0.13203 0.0
C92 C 0.87318 0.34348 0.19885 0.0
N93 N 0.87287 0.32082 0.23699 0.0
C94 C 0.87448 0.32108 0.19868 0.0
C95 C 0.87181 0.35437 0.21843 0.0
C96 C 0.87425 0.30991 0.21813 0.0
C97 C 0.87167 0.34261 0.23754 0.0
C98 C 0.85783 0.31996 0.12193 0.0
C99 C 0.87455 0.31764 0.08707 0.0
N100 N 0.8682 0.29681 0.08551 0.0
C101 C 0.85147 0.29852 0.11996 0.0
C102 C 0.86948 0.32958 0.10535 0.0
C103 C 0.85687 0.28709 0.10144 0.0
C104 C 0.81777 0.31248 0.17608 0.0
N105 N 0.82614 0.33079 0.18448 0.0
C106 C 0.80774 0.32485 0.2176 0.0
C107 C 0.82121 0.33727 0.20473 0.0
C108 C 0.79918 0.30562 0.20949 0.0
C109 C 0.80421 0.29958 0.18835 0.0
H110 H 0.82159 0.30793 0.15981 0.0
H111 H 0.82781 0.35206 0.21095 0.0
C112 C 0.92484 0.33899 0.14443 0.0
N113 N 0.90531 0.32949 0.14658 0.0
C114 C 0.94341 0.32641 0.14301 0.0
C115 C 0.92134 0.29464 0.14577 0.0
C116 C 0.90332 0.30776 0.14723 0.0
C117 C 0.94181 0.30387 0.14386 0.0
H118 H 0.92603 0.35631 0.14415 0.0
H119 H 0.8877 0.30053 0.14915 0.0
C120 C 0.8134 0.37467 0.16614 0.0
N121 N 0.77355 0.373 0.18545 0.0
C122 C 0.79679 0.36292 0.15669 0.0
C123 C 0.80971 0.38571 0.18533 0.0
C124 C 0.77677 0.36222 0.16674 0.0
C125 C 0.78945 0.38465 0.19485 0.0
C126 C 0.88457 0.38954 0.1216 0.0
C127 C 0.87647 0.41044 0.12165 0.0
C128 C 0.90038 0.38384 0.10676 0.0
C129 C 0.88406 0.42523 0.10659 0.0
C130 C 0.90756 0.39909 0.09194 0.0
N131 N 0.8993 0.41929 0.09216 0.0
C132 C 0.88391 0.40882 0.19454 0.0
C133 C 0.85409 0.4238 0.17642 0.0
C134 C 0.88549 0.42695 0.20773 0.0
N135 N 0.8681 0.40741 0.17959 0.0
C136 C 0.85528 0.44232 0.189 0.0
C137 C 0.87077 0.44391 0.20537 0.0
H138 H 0.89475 0.39548 0.19684 0.0
H139 H 0.84152 0.42218 0.16457 0.0
C140 C 0.81925 0.34896 0.10012 0.0
N141 N 0.83224 0.36567 0.10552 0.0
C142 C 0.80663 0.34979 0.08167 0.0
C143 C 0.82009 0.38551 0.07488 0.0
C144 C 0.83276 0.38385 0.09339 0.0
C145 C 0.80692 0.36824 0.06877 0.0
H146 H 0.81837 0.33499 0.11037 0.0
H147 H 0.84268 0.3972 0.09816 0.0
O148 O 0.87318 0.35467 0.17995 0.0
O149 O 0.85273 0.33128 0.14012 0.0
O150 O 0.83321 0.3752 0.15676 0.0
O151 O 0.87762 0.37492 0.13646 0.0
H152 H 0.87525 0.3124 0.1837 0.0
H153 H 0.87059 0.37167 0.21889 0.0
H154 H 0.87509 0.29257 0.21821 0.0
H155 H 0.87052 0.35082 0.2528 0.0
H156 H 0.88352 0.32495 0.07412 0.0
H157 H 0.84257 0.2907 0.13265 0.0
H158 H 0.87439 0.34613 0.10645 0.0
H159 H 0.85208 0.27048 0.09974 0.0
H160 H 0.8044 0.33005 0.23385 0.0
H161 H 0.79763 0.28511 0.18131 0.0
H162 H 0.95886 0.33427 0.14178 0.0
H163 H 0.91918 0.27739 0.14611 0.0
H164 H 0.7994 0.35421 0.14191 0.0
H165 H 0.82243 0.39471 0.19298 0.0
H166 H 0.76382 0.35306 0.15968 0.0
H167 H 0.7864 0.39298 0.20977 0.0
H168 H 0.86422 0.4151 0.13297 0.0
H169 H 0.9071 0.36783 0.1067 0.0
H170 H 0.87779 0.44141 0.10635 0.0
H171 H 0.91973 0.39487 0.08032 0.0
H172 H 0.89756 0.42719 0.22021 0.0
H173 H 0.84386 0.45507 0.18615 0.0
H174 H 0.79635 0.3363 0.07781 0.0
H175 H 0.8207 0.40006 0.06537 0.0
Li176 Li 0.14913 0.88205 0.34921 0.0
Li177 Li 0.16506 0.8634 0.3817 0.0
Li178 Li 0.1661 0.84764 0.34717 0.0
Li179 Li 0.13239 0.84783 0.36509 0.0
C180 C 0.19859 0.87384 0.34569 0.0
N181 N 0.23713 0.86948 0.32424 0.0
C182 C 0.21591 0.86371 0.35565 0.0
C183 C 0.20091 0.88187 0.32485 0.0
C184 C 0.23525 0.86161 0.34452 0.0
C185 C 0.22052 0.8795 0.31428 0.0
C186 C 0.13102 0.89367 0.39177 0.0
C187 C 0.11051 0.90883 0.42085 0.0
N188 N 0.12119 0.92772 0.4184 0.0
C189 C 0.14173 0.91325 0.38946 0.0
C190 C 0.1152 0.89144 0.4075 0.0
C191 C 0.13656 0.93027 0.40311 0.0
C192 C 0.12517 0.91239 0.32452 0.0
N193 N 0.14415 0.90854 0.33451 0.0
C194 C 0.15883 0.94121 0.32069 0.0
C195 C 0.16072 0.92265 0.33308 0.0
C196 C 0.13956 0.94559 0.30979 0.0
C197 C 0.12247 0.93095 0.3121 0.0
H198 H 0.11226 0.90085 0.32586 0.0
H199 H 0.17566 0.91922 0.34119 0.0
C200 C 0.19493 0.84995 0.41216 0.0
N201 N 0.18132 0.86648 0.40793 0.0
C202 C 0.20783 0.85016 0.43044 0.0
C203 C 0.19312 0.88478 0.43966 0.0
C204 C 0.18024 0.88376 0.42127 0.0
C205 C 0.20708 0.86776 0.44447 0.0
H206 H 0.19598 0.83659 0.40114 0.0
H207 H 0.16956 0.89684 0.41769 0.0
C208 C 0.13455 0.84451 0.31672 0.0
N209 N 0.12797 0.821 0.27972 0.0
C210 C 0.13293 0.82216 0.31772 0.0
C211 C 0.13272 0.85494 0.29695 0.0
C212 C 0.12965 0.81055 0.29882 0.0
C213 C 0.12941 0.84276 0.27841 0.0
C214 C 0.15452 0.822 0.39294 0.0
C215 C 0.16226 0.80117 0.39605 0.0
C216 C 0.14219 0.83169 0.40898 0.0
C217 C 0.15754 0.7904 0.41514 0.0
C218 C 0.13782 0.82039 0.42785 0.0
N219 N 0.14552 0.80015 0.43052 0.0
C220 C 0.19416 0.81377 0.33778 0.0
C221 C 0.18563 0.83521 0.30754 0.0
C222 C 0.20731 0.8007 0.32525 0.0
N223 N 0.18358 0.83054 0.32876 0.0
C224 C 0.19854 0.82254 0.29439 0.0
C225 C 0.20956 0.80499 0.30322 0.0
H226 H 0.19246 0.81061 0.35475 0.0
H227 H 0.17745 0.84894 0.30084 0.0
C228 C 0.08682 0.84237 0.36832 0.0
N229 N 0.10612 0.83221 0.3689 0.0
C230 C 0.06776 0.83049 0.36962 0.0
C231 C 0.08882 0.7981 0.37262 0.0
C232 C 0.10736 0.81049 0.37082 0.0
C233 C 0.06869 0.80805 0.37186 0.0
H234 H 0.08625 0.85963 0.36647 0.0
H235 H 0.12276 0.80262 0.37044 0.0
O236 O 0.17938 0.87562 0.35617 0.0
O237 O 0.1355 0.87692 0.37832 0.0
O238 O 0.13801 0.85616 0.33499 0.0
O239 O 0.15914 0.83269 0.37426 0.0
H240 H 0.21441 0.85735 0.37171 0.0
H241 H 0.18758 0.88942 0.31672 0.0
H242 H 0.24875 0.8537 0.352 0.0
H243 H 0.22248 0.88548 0.29809 0.0
H244 H 0.09833 0.90733 0.43314 0.0
H245 H 0.15418 0.91516 0.37755 0.0
H246 H 0.1066 0.87643 0.40933 0.0
H247 H 0.14482 0.94548 0.4016 0.0
H248 H 0.17264 0.95165 0.3192 0.0
H249 H 0.1072 0.9337 0.30434 0.0
H250 H 0.21863 0.83686 0.43334 0.0
H251 H 0.19202 0.89863 0.45012 0.0
H252 H 0.13456 0.81385 0.33288 0.0
H253 H 0.13398 0.87225 0.29594 0.0
H254 H 0.1285 0.79322 0.29932 0.0
H255 H 0.12803 0.85059 0.26297 0.0
H256 H 0.17179 0.79337 0.3838 0.0
H257 H 0.13607 0.84775 0.40697 0.0
H258 H 0.16342 0.77428 0.41774 0.0
H259 H 0.12831 0.82773 0.44038 0.0
H260 H 0.2154 0.78724 0.33267 0.0
H261 H 0.20014 0.82665 0.27758 0.0
H262 H 0.05248 0.8387 0.36889 0.0
H263 H 0.0902 0.78081 0.37389 0.0
Li264 Li 0.84983 0.65058 0.38156 0.0
Li265 Li 0.86278 0.63176 0.34914 0.0
Li266 Li 0.88012 0.66511 0.36212 0.0
Li267 Li 0.84448 0.66579 0.34566 0.0
C268 C 0.88027 0.62497 0.39493 0.0
N269 N 0.88198 0.60133 0.43239 0.0
C270 C 0.87558 0.60303 0.39461 0.0
C271 C 0.88598 0.63488 0.41423 0.0
C272 C 0.87652 0.59135 0.41374 0.0
C273 C 0.88669 0.62265 0.43302 0.0
C274 C 0.81228 0.64004 0.35084 0.0
C275 C 0.78559 0.63812 0.32287 0.0
N276 N 0.77059 0.6455 0.33688 0.0
C277 C 0.79659 0.64756 0.36498 0.0
C278 C 0.80675 0.6352 0.32963 0.0
C279 C 0.7756 0.65021 0.35761 0.0
C280 C 0.8312 0.66546 0.42007 0.0
N281 N 0.83567 0.64739 0.4087 0.0
C282 C 0.81579 0.62603 0.43374 0.0
C283 C 0.82824 0.62787 0.41513 0.0
C284 C 0.81068 0.6445 0.4457 0.0
C285 C 0.81876 0.66438 0.43867 0.0
H286 H 0.83661 0.68087 0.41428 0.0
H287 H 0.8315 0.61382 0.40549 0.0
C288 C 0.88604 0.59818 0.32768 0.0
N289 N 0.86659 0.60448 0.33526 0.0
C290 C 0.88778 0.57991 0.3147 0.0
C291 C 0.84979 0.5739 0.31924 0.0
C292 C 0.84875 0.59242 0.33182 0.0
C293 C 0.86937 0.56772 0.30987 0.0
H294 H 0.90008 0.60785 0.33091 0.0
H295 H 0.83356 0.59744 0.33844 0.0
C296 C 0.86174 0.69989 0.378 0.0
N297 N 0.87914 0.7392 0.389 0.0
C298 C 0.85885 0.71766 0.3646 0.0
C299 C 0.87338 0.70215 0.39704 0.0
C300 C 0.86778 0.7374 0.37044 0.0
C301 C 0.88209 0.72214 0.4023 0.0
C302 C 0.88225 0.64952 0.31495 0.0
C303 C 0.90459 0.65086 0.31374 0.0
C304 C 0.87084 0.63942 0.29846 0.0
C305 C 0.91516 0.64206 0.29603 0.0
C306 C 0.882 0.63079 0.28104 0.0
N307 N 0.90374 0.63228 0.2802 0.0
C308 C 0.92188 0.67735 0.37799 0.0
C309 C 0.90719 0.69866 0.35016 0.0
C310 C 0.93991 0.69075 0.37911 0.0
N311 N 0.90595 0.68163 0.36373 0.0
C312 C 0.92465 0.71263 0.35098 0.0
C313 C 0.94143 0.70884 0.36559 0.0
H314 H 0.92053 0.66364 0.38855 0.0
H315 H 0.8943 0.70161 0.33893 0.0
C316 C 0.81046 0.69457 0.33883 0.0
N317 N 0.82554 0.68252 0.32871 0.0
C318 C 0.7964 0.70728 0.32692 0.0
C319 C 0.81353 0.6947 0.29445 0.0
C320 C 0.8274 0.68244 0.30699 0.0
C321 C 0.79786 0.70739 0.30443 0.0
H322 H 0.80946 0.69437 0.35617 0.0
H323 H 0.83972 0.67299 0.29939 0.0
O324 O 0.87909 0.63674 0.37646 0.0
O325 O 0.83305 0.63794 0.35756 0.0
O326 O 0.85351 0.68032 0.37234 0.0
O327 O 0.87162 0.65802 0.33219 0.0
H328 H 0.87111 0.59514 0.37979 0.0
H329 H 0.88965 0.65185 0.41472 0.0
H330 H 0.87284 0.57438 0.41377 0.0
H331 H 0.89096 0.63012 0.44811 0.0
H332 H 0.78112 0.63459 0.30647 0.0
H333 H 0.80061 0.65154 0.38139 0.0
H334 H 0.81874 0.62957 0.31841 0.0
H335 H 0.76332 0.65611 0.36835 0.0
H336 H 0.81006 0.61034 0.43855 0.0
H337 H 0.81488 0.67914 0.44698 0.0
H338 H 0.90323 0.57595 0.30787 0.0
H339 H 0.83527 0.56471 0.31667 0.0
H340 H 0.85006 0.71618 0.3497 0.0
H341 H 0.87588 0.68853 0.40752 0.0
H342 H 0.86576 0.75125 0.36018 0.0
H343 H 0.89126 0.72408 0.41691 0.0
H344 H 0.91372 0.65847 0.32638 0.0
H345 H 0.85359 0.63786 0.2993 0.0
H346 H 0.93244 0.64294 0.29491 0.0
H347 H 0.87338 0.62279 0.26826 0.0
H348 H 0.95252 0.68684 0.39037 0.0
H349 H 0.9247 0.72648 0.3405 0.0
H350 H 0.78443 0.71679 0.33518 0.0
H351 H 0.81534 0.69461 0.27715 0.0
Li352 Li 0.34809 0.84383 0.66598 0.0
Li353 Li 0.38356 0.84807 0.64647 0.0
Li354 Li 0.36448 0.88027 0.66399 0.0
Li355 Li 0.35036 0.86262 0.63263 0.0
C356 C 0.38525 0.84581 0.69562 0.0
N357 N 0.40398 0.82962 0.73245 0.0
C358 C 0.39658 0.82647 0.69496 0.0
C359 C 0.38364 0.85702 0.71501 0.0
C360 C 0.40588 0.81852 0.71374 0.0
C361 C 0.39315 0.84853 0.73345 0.0
C362 C 0.34774 0.82247 0.62106 0.0
C363 C 0.34723 0.81345 0.58341 0.0
N364 N 0.3272 0.80512 0.58579 0.0
C365 C 0.3272 0.81373 0.62316 0.0
C366 C 0.3579 0.82228 0.60105 0.0
C367 C 0.31707 0.80506 0.60512 0.0
C368 C 0.30973 0.82668 0.68296 0.0
N369 N 0.33144 0.82473 0.68327 0.0
C370 C 0.32907 0.79577 0.70834 0.0
C371 C 0.34119 0.80937 0.69529 0.0
C372 C 0.30665 0.79787 0.70887 0.0
C373 C 0.29698 0.81348 0.6958 0.0
H374 H 0.30226 0.83854 0.67276 0.0
H375 H 0.35833 0.8075 0.69465 0.0
C376 C 0.42851 0.84152 0.6515 0.0
N377 N 0.41036 0.83392 0.64206 0.0
C378 C 0.44742 0.82943 0.65093 0.0
C379 C 0.42879 0.80239 0.63026 0.0
C380 C 0.41022 0.81483 0.63146 0.0
C381 C 0.44763 0.80946 0.64039 0.0
H382 H 0.42806 0.85655 0.66018 0.0
H383 H 0.39546 0.80881 0.62468 0.0
C384 C 0.321 0.87876 0.67434 0.0
N385 N 0.29439 0.89346 0.7066 0.0
C386 C 0.30193 0.88936 0.66923 0.0
C387 C 0.32649 0.87559 0.69585 0.0
C388 C 0.2887 0.89669 0.68577 0.0
C389 C 0.31285 0.88314 0.71193 0.0
C390 C 0.37961 0.89316 0.61991 0.0
C391 C 0.365 0.91014 0.62027 0.0
C392 C 0.39504 0.89207 0.60369 0.0
C393 C 0.36598 0.92575 0.6042 0.0
C394 C 0.3955 0.90802 0.58792 0.0
N395 N 0.38107 0.92437 0.58849 0.0
C396 C 0.38735 0.90942 0.69087 0.0
C397 C 0.35269 0.92114 0.68066 0.0
C398 C 0.3898 0.92724 0.70436 0.0
N399 N 0.36881 0.90647 0.67972 0.0
C400 C 0.35425 0.93887 0.69428 0.0
C401 C 0.37286 0.9419 0.70655 0.0
H402 H 0.39999 0.89759 0.68976 0.0
H403 H 0.33834 0.91886 0.67124 0.0
C404 C 0.31211 0.86458 0.60984 0.0
N405 N 0.3336 0.867 0.60702 0.0
C406 C 0.29817 0.8656 0.59235 0.0
C407 C 0.32859 0.87217 0.56925 0.0
C408 C 0.34202 0.87072 0.5872 0.0
C409 C 0.30637 0.86934 0.5717 0.0
H410 H 0.30584 0.86126 0.62568 0.0
H411 H 0.35916 0.8719 0.58515 0.0
O412 O 0.37641 0.85409 0.67727 0.0
O413 O 0.35766 0.83157 0.63841 0.0
O414 O 0.3341 0.87158 0.65825 0.0
O415 O 0.37881 0.87761 0.63535 0.0
H416 H 0.3979 0.81747 0.68017 0.0
H417 H 0.37521 0.87215 0.71586 0.0
H418 H 0.41457 0.8035 0.71346 0.0
H419 H 0.39198 0.85702 0.74856 0.0
H420 H 0.35482 0.81336 0.56779 0.0
H421 H 0.31909 0.81381 0.63851 0.0
H422 H 0.37367 0.82927 0.59908 0.0
H423 H 0.30112 0.79834 0.60648 0.0
H424 H 0.33717 0.7836 0.71771 0.0
H425 H 0.27977 0.81573 0.69571 0.0
H426 H 0.46162 0.83549 0.65891 0.0
H427 H 0.42812 0.78694 0.62231 0.0
H428 H 0.29745 0.89197 0.65265 0.0
H429 H 0.34102 0.86722 0.70006 0.0
H430 H 0.27392 0.90495 0.68205 0.0
H431 H 0.31691 0.88076 0.72864 0.0
H432 H 0.3529 0.91109 0.63268 0.0
H433 H 0.40644 0.87899 0.60324 0.0
H434 H 0.35471 0.93894 0.60418 0.0
H435 H 0.4073 0.90737 0.5752 0.0
H436 H 0.40439 0.92911 0.71361 0.0
H437 H 0.34099 0.95003 0.69537 0.0
H438 H 0.28114 0.86343 0.59496 0.0
H439 H 0.33558 0.87475 0.55354 0.0
Li440 Li 0.84921 0.86319 0.88341 0.0
Li441 Li 0.86376 0.88108 0.85266 0.0
Li442 Li 0.84724 0.84618 0.84872 0.0
Li443 Li 0.8836 0.84981 0.8658 0.0
C444 C 0.81597 0.88239 0.8665 0.0
N445 N 0.7806 0.90106 0.88559 0.0
C446 C 0.81519 0.90462 0.8695 0.0
C447 C 0.79872 0.86967 0.87316 0.0
C448 C 0.79716 0.91375 0.87916 0.0
C449 C 0.78101 0.8794 0.88282 0.0
C450 C 0.88988 0.89547 0.88428 0.0
C451 C 0.92414 0.91341 0.88561 0.0
N452 N 0.91406 0.93211 0.89058 0.0
C453 C 0.87986 0.91483 0.88951 0.0
C454 C 0.9122 0.89469 0.88237 0.0
C455 C 0.89237 0.9332 0.89258 0.0
C456 C 0.82804 0.84732 0.92017 0.0
N457 N 0.83433 0.86575 0.91033 0.0
C458 C 0.8158 0.88675 0.93664 0.0
C459 C 0.82897 0.88528 0.91852 0.0
C460 C 0.80827 0.86792 0.94658 0.0
C461 C 0.81498 0.84802 0.93835 0.0
H462 H 0.83283 0.832 0.91369 0.0
H463 H 0.83427 0.89974 0.91057 0.0
C464 C 0.84897 0.91176 0.824 0.0
N465 N 0.86621 0.90758 0.83668 0.0
C466 C 0.84896 0.92937 0.81019 0.0
C467 C 0.88457 0.93827 0.82249 0.0
C468 C 0.88398 0.92028 0.83594 0.0
C469 C 0.86688 0.94304 0.8093 0.0
H470 H 0.83535 0.90102 0.8242 0.0
H471 H 0.89795 0.91622 0.84528 0.0
C472 C 0.85151 0.81238 0.87397 0.0
N473 N 0.83847 0.77031 0.86847 0.0
C474 C 0.86659 0.79637 0.86962 0.0
C475 C 0.82981 0.80696 0.87566 0.0
C476 C 0.85967 0.77521 0.86688 0.0
C477 C 0.82353 0.78561 0.87277 0.0
C478 C 0.88049 0.86504 0.81723 0.0
C479 C 0.86594 0.8659 0.80019 0.0
C480 C 0.90073 0.87446 0.81505 0.0
C481 C 0.87186 0.87633 0.78123 0.0
C482 C 0.90603 0.88474 0.79583 0.0
N483 N 0.8916 0.88547 0.77947 0.0
C484 C 0.81052 0.83434 0.82507 0.0
C485 C 0.84001 0.8106 0.82159 0.0
C486 C 0.79818 0.82156 0.81144 0.0
N487 N 0.83091 0.82852 0.83005 0.0
C488 C 0.82816 0.79721 0.8081 0.0
C489 C 0.80695 0.80264 0.80291 0.0
H490 H 0.80386 0.84894 0.83161 0.0
H491 H 0.85646 0.8067 0.8254 0.0
C492 C 0.917 0.82925 0.88921 0.0
N493 N 0.91027 0.83543 0.86939 0.0
C494 C 0.93562 0.81692 0.89147 0.0
C495 C 0.94013 0.81794 0.85294 0.0
C496 C 0.92138 0.83003 0.85142 0.0
C497 C 0.94741 0.81106 0.87314 0.0
H498 H 0.90766 0.83352 0.9032 0.0
H499 H 0.91537 0.83463 0.83582 0.0
O500 O 0.83358 0.8731 0.85728 0.0
O501 O 0.878 0.87725 0.88148 0.0
O502 O 0.85793 0.83327 0.87638 0.0
O503 O 0.87475 0.85547 0.83613 0.0
H504 H 0.82848 0.91471 0.86471 0.0
H505 H 0.79909 0.85243 0.87111 0.0
H506 H 0.79638 0.93092 0.88166 0.0
H507 H 0.76762 0.86973 0.88817 0.0
H508 H 0.94142 0.91307 0.88414 0.0
H509 H 0.86261 0.91573 0.8909 0.0
H510 H 0.92019 0.8798 0.87839 0.0
H511 H 0.88482 0.94833 0.8965 0.0
H512 H 0.81099 0.90245 0.94231 0.0
H513 H 0.81006 0.83309 0.94577 0.0
H514 H 0.83518 0.93187 0.79992 0.0
H515 H 0.89878 0.94828 0.82243 0.0
H516 H 0.88343 0.80024 0.86822 0.0
H517 H 0.81791 0.81914 0.8789 0.0
H518 H 0.87115 0.76267 0.86343 0.0
H519 H 0.80678 0.78123 0.87389 0.0
H520 H 0.85016 0.85882 0.80168 0.0
H521 H 0.91207 0.87417 0.82821 0.0
H522 H 0.86072 0.87724 0.76795 0.0
H523 H 0.92157 0.89225 0.79397 0.0
H524 H 0.78185 0.82627 0.80784 0.0
H525 H 0.83559 0.78292 0.80156 0.0
H526 H 0.94071 0.812 0.90734 0.0
H527 H 0.94849 0.81346 0.83837 0.0
Li528 Li 0.13376 0.66608 0.86399 0.0
Li529 Li 0.16865 0.66669 0.84868 0.0
Li530 Li 0.14962 0.63332 0.8499 0.0
Li531 Li 0.16407 0.64984 0.88318 0.0
C532 C 0.12386 0.65515 0.82196 0.0
N533 N 0.08775 0.64631 0.7978 0.0
C534 C 0.12253 0.66214 0.80069 0.0
C535 C 0.10683 0.6436 0.83094 0.0
C536 C 0.10414 0.65753 0.78874 0.0
C537 C 0.08872 0.63931 0.81846 0.0
C538 C 0.15799 0.70221 0.87438 0.0
C539 C 0.16076 0.73736 0.89038 0.0
N540 N 0.15473 0.74635 0.87143 0.0
C541 C 0.15191 0.7118 0.85503 0.0
C542 C 0.16252 0.71508 0.89219 0.0
C543 C 0.15031 0.73414 0.85387 0.0
C544 C 0.09762 0.68361 0.88632 0.0
N545 N 0.10819 0.68293 0.86723 0.0
C546 C 0.08424 0.70887 0.85225 0.0
C547 C 0.10176 0.69515 0.85033 0.0
C548 C 0.0732 0.71032 0.87185 0.0
C549 C 0.07995 0.69724 0.88899 0.0
H550 H 0.10319 0.67391 0.89959 0.0
H551 H 0.11049 0.69464 0.83538 0.0
C552 C 0.1875 0.6788 0.80986 0.0
N553 N 0.18786 0.68273 0.83129 0.0
C554 C 0.20076 0.69041 0.79605 0.0
C555 C 0.21469 0.70972 0.82673 0.0
C556 C 0.2012 0.69767 0.83995 0.0
C557 C 0.21446 0.70627 0.80443 0.0
H558 H 0.17686 0.66663 0.80351 0.0
H559 H 0.20123 0.70036 0.8571 0.0
C560 C 0.13259 0.61852 0.88943 0.0
N561 N 0.12882 0.58052 0.91201 0.0
C562 C 0.14921 0.60348 0.88903 0.0
C563 C 0.11408 0.61424 0.90132 0.0
C564 C 0.14699 0.58436 0.90055 0.0
C565 C 0.11247 0.59493 0.91261 0.0
C566 C 0.20104 0.64062 0.85327 0.0
C567 C 0.20942 0.63113 0.83476 0.0
C568 C 0.21433 0.65307 0.86639 0.0
C569 C 0.23099 0.63436 0.82961 0.0
C570 C 0.23582 0.65589 0.86069 0.0
N571 N 0.24363 0.64658 0.84256 0.0
C572 C 0.15516 0.60914 0.81362 0.0
C573 C 0.13351 0.59048 0.83869 0.0
C574 C 0.15416 0.59198 0.79931 0.0
N575 N 0.1453 0.60799 0.83303 0.0
C576 C 0.13218 0.57279 0.82485 0.0
C577 C 0.14284 0.57329 0.80493 0.0
H578 H 0.16382 0.62355 0.80925 0.0
H579 H 0.12519 0.59012 0.85388 0.0
C580 C 0.17375 0.65927 0.92643 0.0
N581 N 0.17762 0.64518 0.91024 0.0
C582 C 0.18564 0.65824 0.94543 0.0
C583 C 0.20463 0.62764 0.93107 0.0
C584 C 0.19249 0.62936 0.9123 0.0
C585 C 0.20159 0.64249 0.94777 0.0
H586 H 0.16187 0.67173 0.92431 0.0
H587 H 0.19556 0.61861 0.89903 0.0
O588 O 0.14189 0.65949 0.83371 0.0
O589 O 0.15988 0.68037 0.87591 0.0
O590 O 0.13438 0.63748 0.87851 0.0
O591 O 0.17981 0.63819 0.85828 0.0
H592 H 0.13559 0.67107 0.7935 0.0
H593 H 0.10752 0.63799 0.84733 0.0
H594 H 0.10289 0.66288 0.77227 0.0
H595 H 0.07542 0.6304 0.82521 0.0
H596 H 0.16423 0.74751 0.90405 0.0
H597 H 0.1486 0.70214 0.841 0.0
H598 H 0.16741 0.70793 0.90724 0.0
H599 H 0.14561 0.74176 0.839 0.0
H600 H 0.07946 0.71831 0.83847 0.0
H601 H 0.07205 0.69794 0.90445 0.0
H602 H 0.20033 0.68694 0.77902 0.0
H603 H 0.22483 0.7219 0.83387 0.0
H604 H 0.16353 0.60636 0.87972 0.0
H605 H 0.1011 0.62576 0.90181 0.0
H606 H 0.1597 0.57256 0.90034 0.0
H607 H 0.09822 0.5914 0.92187 0.0
H608 H 0.19941 0.62141 0.82445 0.0
H609 H 0.20804 0.66082 0.88059 0.0
H610 H 0.23768 0.62717 0.81529 0.0
H611 H 0.24625 0.66561 0.87061 0.0
H612 H 0.1621 0.59343 0.78392 0.0
H613 H 0.12322 0.55876 0.82988 0.0
H614 H 0.18262 0.66986 0.958 0.0
H615 H 0.21694 0.61543 0.93208 0.0
Li616 Li 0.8474 0.16806 0.66808 0.0
Li617 Li 0.86272 0.13072 0.66537 0.0
Li618 Li 0.88163 0.16409 0.65013 0.0
Li619 Li 0.84966 0.15004 0.63387 0.0
C620 C 0.87467 0.16506 0.70076 0.0
N621 N 0.87347 0.18241 0.74158 0.0
C622 C 0.87008 0.15202 0.71843 0.0
C623 C 0.87897 0.18687 0.7039 0.0
C624 C 0.86948 0.1611 0.73893 0.0
C625 C 0.87819 0.19536 0.72464 0.0
C626 C 0.81515 0.13266 0.65155 0.0
C627 C 0.79522 0.10314 0.63642 0.0
N628 N 0.7784 0.11655 0.63279 0.0
C629 C 0.79764 0.14613 0.64784 0.0
C630 C 0.81395 0.11098 0.64592 0.0
C631 C 0.77921 0.13768 0.63827 0.0
C632 C 0.82548 0.20594 0.68008 0.0
N633 N 0.83006 0.18545 0.68597 0.0
C634 C 0.80945 0.1892 0.71806 0.0
C635 C 0.82208 0.17682 0.70434 0.0
C636 C 0.8048 0.21059 0.71263 0.0
C637 C 0.8129 0.21889 0.69328 0.0
H638 H 0.83141 0.21217 0.66503 0.0
H639 H 0.82561 0.16031 0.70836 0.0
C640 C 0.88202 0.09115 0.67925 0.0
N641 N 0.86485 0.10448 0.68078 0.0
C642 C 0.88308 0.07261 0.69193 0.0
C643 C 0.84888 0.08208 0.70749 0.0
C644 C 0.84839 0.10022 0.6944 0.0
C645 C 0.8664 0.06791 0.70645 0.0
H646 H 0.89496 0.09501 0.66834 0.0
H647 H 0.83507 0.11128 0.69546 0.0
C648 C 0.86397 0.19832 0.63065 0.0
N649 N 0.88047 0.23459 0.61103 0.0
C650 C 0.8653 0.19946 0.60825 0.0
C651 C 0.871 0.21569 0.64302 0.0
C652 C 0.87366 0.21793 0.59865 0.0
C653 C 0.87932 0.23385 0.63282 0.0
C654 C 0.88076 0.1247 0.61807 0.0
C655 C 0.88516 0.13673 0.59966 0.0
C656 C 0.87945 0.10234 0.61673 0.0
C657 C 0.88794 0.12617 0.58008 0.0
C658 C 0.88238 0.09237 0.59686 0.0
N659 N 0.8865 0.1044 0.57909 0.0
C660 C 0.92138 0.17975 0.66488 0.0
C661 C 0.91526 0.18698 0.62813 0.0
C662 C 0.93994 0.19232 0.66465 0.0
N663 N 0.90908 0.17787 0.64698 0.0
C664 C 0.93339 0.20017 0.62728 0.0
C665 C 0.94583 0.20344 0.64587 0.0
H666 H 0.91652 0.1719 0.67957 0.0
H667 H 0.90569 0.18477 0.61389 0.0
C668 C 0.82171 0.16429 0.60192 0.0
N669 N 0.83298 0.14663 0.60798 0.0
C670 C 0.80828 0.16364 0.58404 0.0
C671 C 0.81735 0.12626 0.57934 0.0
C672 C 0.83074 0.12768 0.59731 0.0
C673 C 0.80602 0.14448 0.57241 0.0
H674 H 0.82288 0.17888 0.61124 0.0
H675 H 0.83893 0.11353 0.60295 0.0
O676 O 0.87487 0.15656 0.68049 0.0
O677 O 0.83355 0.14077 0.66027 0.0
O678 O 0.85577 0.18036 0.64038 0.0
O679 O 0.87802 0.13472 0.63739 0.0
H680 H 0.8669 0.13509 0.71635 0.0
H681 H 0.88279 0.19713 0.69045 0.0
H682 H 0.86581 0.15121 0.75273 0.0
H683 H 0.88133 0.21224 0.72726 0.0
H684 H 0.7941 0.08643 0.63183 0.0
H685 H 0.79841 0.16297 0.65207 0.0
H686 H 0.82746 0.10041 0.64859 0.0
H687 H 0.76558 0.14793 0.63514 0.0
H688 H 0.80361 0.18217 0.73285 0.0
H689 H 0.80929 0.23512 0.68822 0.0
H690 H 0.89679 0.06209 0.69032 0.0
H691 H 0.83585 0.07953 0.7187 0.0
H692 H 0.86031 0.18611 0.59835 0.0
H693 H 0.87013 0.21515 0.66033 0.0
H694 H 0.87488 0.21897 0.58136 0.0
H695 H 0.88489 0.24735 0.64222 0.0
H696 H 0.8862 0.15404 0.60045 0.0
H697 H 0.87603 0.09281 0.63085 0.0
H698 H 0.89122 0.13528 0.56566 0.0
H699 H 0.88132 0.07509 0.59554 0.0
H700 H 0.94932 0.1935 0.67921 0.0
H701 H 0.937 0.2083 0.61237 0.0
H702 H 0.79939 0.17791 0.57966 0.0
H703 H 0.81594 0.11111 0.57094 0.0
Li704 Li 0.15032 0.3835 0.66408 0.0
Li705 Li 0.16573 0.34613 0.66701 0.0
Li706 Li 0.1629 0.3639 0.63267 0.0
Li707 Li 0.1313 0.35005 0.64951 0.0
C708 C 0.19866 0.37916 0.64978 0.0
N709 N 0.23691 0.39058 0.63057 0.0
C710 C 0.21451 0.36371 0.64631 0.0
C711 C 0.20229 0.40044 0.64365 0.0
C712 C 0.23373 0.3698 0.63652 0.0
C713 C 0.22174 0.40588 0.63393 0.0
C714 C 0.13919 0.35086 0.70054 0.0
C715 C 0.13615 0.3225 0.72675 0.0
N716 N 0.1412 0.33671 0.74255 0.0
C717 C 0.14416 0.36522 0.71706 0.0
C718 C 0.13497 0.32936 0.70543 0.0
C719 C 0.14515 0.35774 0.73818 0.0
C720 C 0.12914 0.42078 0.68044 0.0
N721 N 0.14803 0.41001 0.679 0.0
C722 C 0.16518 0.43549 0.70198 0.0
C723 C 0.16588 0.417 0.68937 0.0
C724 C 0.14589 0.44696 0.704 0.0
C725 C 0.12771 0.43943 0.69292 0.0
H726 H 0.11515 0.41473 0.67214 0.0
H727 H 0.18058 0.40787 0.68827 0.0
C728 C 0.18877 0.30867 0.67742 0.0
N729 N 0.18338 0.32857 0.68449 0.0
C730 C 0.20168 0.29537 0.68994 0.0
C731 C 0.20384 0.32358 0.71652 0.0
C732 C 0.19095 0.33636 0.70342 0.0
C733 C 0.20927 0.30272 0.70987 0.0
H734 H 0.18326 0.30318 0.66193 0.0
H735 H 0.18696 0.3525 0.70834 0.0
C736 C 0.13226 0.38962 0.61726 0.0
N737 N 0.12736 0.41074 0.57861 0.0
C738 C 0.12818 0.37798 0.59853 0.0
C739 C 0.13367 0.412 0.61642 0.0
C740 C 0.12583 0.38896 0.57911 0.0
C741 C 0.13117 0.42238 0.59669 0.0
C742 C 0.14816 0.31521 0.63134 0.0
C743 C 0.14582 0.31264 0.60915 0.0
C744 C 0.14144 0.29882 0.64513 0.0
C745 C 0.13674 0.29374 0.60116 0.0
C746 C 0.13239 0.28019 0.63652 0.0
N747 N 0.13025 0.27805 0.6149 0.0
C748 C 0.18921 0.34908 0.59953 0.0
C749 C 0.18205 0.38626 0.59633 0.0
C750 C 0.20235 0.34965 0.58143 0.0
N751 N 0.17905 0.3671 0.60643 0.0
C752 C 0.19522 0.38761 0.57819 0.0
C753 C 0.20548 0.36908 0.57046 0.0
H754 H 0.18752 0.33427 0.60841 0.0
H755 H 0.17469 0.40062 0.60261 0.0
C756 C 0.09214 0.33326 0.66476 0.0
N757 N 0.10389 0.33621 0.64663 0.0
C758 C 0.07365 0.3206 0.66438 0.0
C759 C 0.0792 0.31477 0.62648 0.0
C760 C 0.09727 0.32802 0.62751 0.0
C761 C 0.06728 0.31047 0.64519 0.0
H762 H 0.09737 0.34036 0.67969 0.0
H763 H 0.10649 0.33101 0.61316 0.0
O764 O 0.17951 0.37338 0.65873 0.0
O765 O 0.13843 0.35782 0.67971 0.0
O766 O 0.1346 0.37922 0.63642 0.0
O767 O 0.15694 0.33366 0.6395 0.0
H768 H 0.21187 0.34715 0.65089 0.0
H769 H 0.19008 0.41254 0.64609 0.0
H770 H 0.2461 0.35799 0.63359 0.0
H771 H 0.22472 0.42225 0.62895 0.0
H772 H 0.13305 0.30588 0.73073 0.0
H773 H 0.14734 0.38192 0.71363 0.0
H774 H 0.13087 0.31808 0.69291 0.0
H775 H 0.1491 0.36865 0.75111 0.0
H776 H 0.17949 0.44039 0.71052 0.0
H777 H 0.11256 0.44784 0.69385 0.0
H778 H 0.20593 0.27964 0.6839 0.0
H779 H 0.20928 0.32989 0.73177 0.0
H780 H 0.12713 0.36066 0.59893 0.0
H781 H 0.13678 0.42122 0.63082 0.0
H782 H 0.12283 0.38016 0.56444 0.0
H783 H 0.1323 0.43969 0.59576 0.0
H784 H 0.15057 0.32524 0.59819 0.0
H785 H 0.14313 0.30048 0.6623 0.0
H786 H 0.13474 0.2916 0.58405 0.0
H787 H 0.12705 0.26744 0.64704 0.0
H788 H 0.21042 0.3351 0.57641 0.0
H789 H 0.19732 0.40295 0.57029 0.0
H790 H 0.06468 0.31859 0.67911 0.0
H791 H 0.07521 0.3074 0.61127 0.0
Li792 Li 0.63042 0.16417 0.36497 0.0
Li793 Li 0.66704 0.16793 0.34853 0.0
Li794 Li 0.65039 0.13304 0.35186 0.0
Li795 Li 0.66458 0.15061 0.38295 0.0
C796 C 0.63393 0.14966 0.3164 0.0
N797 N 0.62258 0.13008 0.27827 0.0
C798 C 0.64862 0.14856 0.2995 0.0
C799 C 0.61342 0.14094 0.31389 0.0
C800 C 0.64259 0.13856 0.28035 0.0
C801 C 0.60801 0.13107 0.29448 0.0
C802 C 0.66232 0.2015 0.37363 0.0
C803 C 0.69018 0.22841 0.37309 0.0
N804 N 0.67536 0.24354 0.36791 0.0
C805 C 0.64735 0.21735 0.3684 0.0
C806 C 0.6839 0.20708 0.37611 0.0
C807 C 0.65426 0.2385 0.36555 0.0
C808 C 0.59555 0.18298 0.38781 0.0
N809 N 0.60371 0.17847 0.36808 0.0
C810 C 0.57548 0.19795 0.35104 0.0
C811 C 0.59409 0.18563 0.34987 0.0
C812 C 0.56675 0.20318 0.37116 0.0
C813 C 0.57697 0.19543 0.38974 0.0
H814 H 0.60373 0.17731 0.40203 0.0
H815 H 0.60124 0.18229 0.33443 0.0
C816 C 0.7045 0.18132 0.32689 0.0
N817 N 0.6835 0.18591 0.33033 0.0
C818 C 0.71689 0.19446 0.31367 0.0
C819 C 0.68567 0.21659 0.30742 0.0
C820 C 0.67387 0.20296 0.32073 0.0
C821 C 0.7075 0.2124 0.30377 0.0
H822 H 0.71163 0.16742 0.33435 0.0
H823 H 0.65701 0.20594 0.32344 0.0
C824 C 0.62482 0.11791 0.38357 0.0
N825 N 0.6025 0.08017 0.39022 0.0
C826 C 0.63587 0.09891 0.38794 0.0
C827 C 0.60243 0.11779 0.38269 0.0
C828 C 0.62429 0.07997 0.3912 0.0
C829 C 0.59143 0.09852 0.38609 0.0
C830 C 0.69814 0.13154 0.36625 0.0
C831 C 0.69937 0.10922 0.36824 0.0
C832 C 0.71491 0.14432 0.37396 0.0
C833 C 0.71737 0.10006 0.37793 0.0
C834 C 0.7326 0.13455 0.38361 0.0
N835 N 0.73346 0.11281 0.38537 0.0
C836 C 0.66481 0.10235 0.32287 0.0
C837 C 0.62954 0.09461 0.33458 0.0
C838 C 0.66438 0.08495 0.30879 0.0
N839 N 0.64764 0.1068 0.33555 0.0
C840 C 0.6285 0.07683 0.32088 0.0
C841 C 0.64608 0.0718 0.30765 0.0
H842 H 0.6787 0.11274 0.32326 0.0
H843 H 0.61565 0.09892 0.34394 0.0
C844 C 0.68426 0.16647 0.42041 0.0
N845 N 0.67903 0.14797 0.41008 0.0
C846 C 0.69716 0.166 0.43871 0.0
C847 C 0.69833 0.12734 0.4361 0.0
C848 C 0.68525 0.12856 0.4179 0.0
C849 C 0.70485 0.14629 0.44652 0.0
H850 H 0.67878 0.18168 0.4142 0.0
H851 H 0.68079 0.11404 0.40957 0.0
O852 O 0.63975 0.15882 0.33547 0.0
O853 O 0.65592 0.18062 0.37609 0.0
O854 O 0.63579 0.13666 0.38051 0.0
O855 O 0.68058 0.14084 0.35691 0.0
H856 H 0.6646 0.15513 0.30126 0.0
H857 H 0.60195 0.14148 0.32692 0.0
H858 H 0.65383 0.13747 0.26718 0.0
H859 H 0.59226 0.1241 0.29236 0.0
H860 H 0.70685 0.23291 0.3748 0.0
H861 H 0.63059 0.21336 0.36641 0.0
H862 H 0.69572 0.19503 0.38007 0.0
H863 H 0.64286 0.2509 0.36142 0.0
H864 H 0.5684 0.20392 0.33633 0.0
H865 H 0.57072 0.199 0.40556 0.0
H866 H 0.73369 0.19072 0.3114 0.0
H867 H 0.67772 0.23004 0.29983 0.0
H868 H 0.65318 0.09872 0.38851 0.0
H869 H 0.59365 0.1324 0.37938 0.0
H870 H 0.63263 0.06511 0.39446 0.0
H871 H 0.5741 0.09815 0.38542 0.0
H872 H 0.68648 0.09906 0.36263 0.0
H873 H 0.71415 0.16162 0.37278 0.0
H874 H 0.7185 0.08281 0.37964 0.0
H875 H 0.74561 0.14426 0.38977 0.0
H876 H 0.6781 0.08223 0.29851 0.0
H877 H 0.61403 0.06723 0.32064 0.0
H878 H 0.70125 0.18099 0.4465 0.0
H879 H 0.70391 0.11177 0.44142 0.0
Li880 Li 0.63416 0.66431 0.65073 0.0
Li881 Li 0.6693 0.66682 0.66787 0.0
Li882 Li 0.66538 0.65082 0.63205 0.0
Li883 Li 0.65266 0.63206 0.6644 0.0
C884 C 0.65121 0.69971 0.63524 0.0
N885 N 0.63188 0.73814 0.62455 0.0
C886 C 0.65211 0.7171 0.64939 0.0
C887 C 0.64059 0.7019 0.6156 0.0
C888 C 0.64223 0.7364 0.64369 0.0
C889 C 0.63087 0.72144 0.61052 0.0
C890 C 0.63124 0.64788 0.6971 0.0
C891 C 0.63081 0.62849 0.73063 0.0
N892 N 0.60912 0.62677 0.72925 0.0
C893 C 0.60894 0.64589 0.696 0.0
C894 C 0.64228 0.63914 0.71457 0.0
C895 C 0.59805 0.63519 0.71244 0.0
C896 C 0.59335 0.67696 0.6325 0.0
N897 N 0.60784 0.67997 0.64852 0.0
C898 C 0.58738 0.70918 0.66262 0.0
C899 C 0.60505 0.69551 0.66357 0.0
C900 C 0.57216 0.70674 0.64615 0.0
C901 C 0.57527 0.69021 0.63103 0.0
H902 H 0.59597 0.66449 0.62072 0.0
H903 H 0.61692 0.69762 0.67606 0.0
C904 C 0.70228 0.6968 0.67492 0.0
N905 N 0.68701 0.68482 0.6849 0.0
C906 C 0.71595 0.70989 0.6869 0.0
C907 C 0.69785 0.69809 0.71917 0.0
C908 C 0.68441 0.68539 0.70655 0.0
C909 C 0.71388 0.71052 0.70934 0.0
H910 H 0.70388 0.69604 0.65764 0.0
H911 H 0.67195 0.67596 0.71401 0.0
C912 C 0.63586 0.62404 0.61835 0.0
N913 N 0.63487 0.60017 0.581 0.0
C914 C 0.64052 0.60211 0.61889 0.0
C915 C 0.63054 0.63382 0.59888 0.0
C916 C 0.63995 0.59032 0.59981 0.0
C917 C 0.63019 0.62148 0.58015 0.0
C918 C 0.70308 0.64307 0.66298 0.0
C919 C 0.71851 0.64952 0.64802 0.0
C920 C 0.70882 0.64087 0.68458 0.0
C921 C 0.73942 0.6537 0.65493 0.0
C922 C 0.72988 0.64526 0.69085 0.0
N923 N 0.74462 0.65152 0.67602 0.0
C924 C 0.68486 0.66592 0.59401 0.0
C925 C 0.68757 0.62829 0.59882 0.0
C926 C 0.69801 0.66496 0.57589 0.0
N927 N 0.68003 0.64778 0.60515 0.0
C928 C 0.70066 0.62656 0.58066 0.0
C929 C 0.70637 0.64513 0.56916 0.0
H930 H 0.67918 0.68129 0.59964 0.0
H931 H 0.68409 0.6142 0.60834 0.0
C932 C 0.62971 0.5958 0.6814 0.0
N933 N 0.64937 0.60492 0.67869 0.0
C934 C 0.62731 0.57769 0.69452 0.0
C935 C 0.66549 0.57824 0.70103 0.0
C936 C 0.66717 0.59614 0.68768 0.0
C937 C 0.64531 0.56904 0.70496 0.0
H938 H 0.61579 0.60308 0.67404 0.0
H939 H 0.68265 0.60337 0.68495 0.0
O940 O 0.66029 0.68051 0.64076 0.0
O941 O 0.64225 0.65795 0.68096 0.0
O942 O 0.63658 0.6359 0.6368 0.0
O943 O 0.68237 0.63939 0.65662 0.0
H944 H 0.66009 0.71565 0.66474 0.0
H945 H 0.6396 0.68854 0.60453 0.0
H946 H 0.6427 0.74995 0.65454 0.0
H947 H 0.62246 0.72331 0.59545 0.0
H948 H 0.63918 0.62148 0.74413 0.0
H949 H 0.60013 0.65232 0.68251 0.0
H950 H 0.65957 0.64011 0.71548 0.0
H951 H 0.5808 0.63349 0.71176 0.0
H952 H 0.58603 0.72187 0.67442 0.0
H953 H 0.56387 0.68748 0.61822 0.0
H954 H 0.7282 0.71914 0.67875 0.0
H955 H 0.69555 0.69841 0.73641 0.0
H956 H 0.6447 0.59432 0.63384 0.0
H957 H 0.62695 0.65079 0.59821 0.0
H958 H 0.64361 0.57335 0.59995 0.0
H959 H 0.62624 0.62886 0.56494 0.0
H960 H 0.71441 0.65146 0.63129 0.0
H961 H 0.69703 0.63635 0.69649 0.0
H962 H 0.75149 0.65876 0.64353 0.0
H963 H 0.73447 0.64382 0.70754 0.0
H964 H 0.70187 0.67965 0.56743 0.0
H965 H 0.70701 0.611 0.57624 0.0
H966 H 0.61146 0.57108 0.69717 0.0
H967 H 0.67983 0.57181 0.70842 0.0
Li968 Li 0.64894 0.38231 0.84943 0.0
Li969 Li 0.66347 0.36498 0.88084 0.0
Li970 Li 0.66665 0.34681 0.84724 0.0
Li971 Li 0.63097 0.34913 0.86668 0.0
C972 C 0.69269 0.38375 0.84037 0.0
N973 N 0.71932 0.4021 0.81001 0.0
C974 C 0.70962 0.39702 0.84676 0.0
C975 C 0.68935 0.37979 0.81856 0.0
C976 C 0.72289 0.40616 0.83117 0.0
C977 C 0.70297 0.3892 0.80345 0.0
C978 C 0.63303 0.39269 0.89491 0.0
C979 C 0.6167 0.40342 0.92829 0.0
N980 N 0.63028 0.4205 0.9293 0.0
C981 C 0.64673 0.41041 0.89618 0.0
C982 C 0.61782 0.38917 0.911 0.0
C983 C 0.64513 0.42426 0.91374 0.0
C984 C 0.62705 0.40977 0.82022 0.0
N985 N 0.64403 0.40837 0.83383 0.0
C986 C 0.65674 0.4428 0.82253 0.0
C987 C 0.65846 0.42465 0.83555 0.0
C988 C 0.63978 0.44448 0.80772 0.0
C989 C 0.6246 0.42775 0.80697 0.0
H990 H 0.61565 0.3967 0.81931 0.0
H991 H 0.67168 0.42333 0.84667 0.0
C992 C 0.70159 0.36919 0.90358 0.0
N993 N 0.68 0.36946 0.90664 0.0
C994 C 0.71556 0.37028 0.92103 0.0
C995 C 0.68493 0.37245 0.94466 0.0
C996 C 0.6715 0.37101 0.92671 0.0
C997 C 0.70728 0.37182 0.94192 0.0
H998 H 0.70798 0.36742 0.88755 0.0
H999 H 0.65435 0.3704 0.92892 0.0
C1000 C 0.63079 0.34718 0.81688 0.0
N1001 N 0.61576 0.33024 0.77869 0.0
C1002 C 0.61899 0.32808 0.81684 0.0
C1003 C 0.63466 0.35781 0.79748 0.0
C1004 C 0.61161 0.31973 0.79738 0.0
C1005 C 0.62701 0.34895 0.77836 0.0
C1006 C 0.66653 0.32481 0.89239 0.0
C1007 C 0.68786 0.31798 0.89187 0.0
C1008 C 0.65466 0.32276 0.9113 0.0
C1009 C 0.69705 0.30938 0.91042 0.0
C1010 C 0.66442 0.31404 0.92951 0.0
N1011 N 0.68524 0.30761 0.9287 0.0
C1012 C 0.70589 0.33096 0.83153 0.0
C1013 C 0.67537 0.3128 0.81798 0.0
C1014 C 0.71946 0.31794 0.81941 0.0
N1015 N 0.68427 0.32843 0.83033 0.0
C1016 C 0.68832 0.29941 0.80558 0.0
C1017 C 0.71069 0.30198 0.8061 0.0
H1018 H 0.71263 0.34304 0.84202 0.0
H1019 H 0.65825 0.31056 0.81783 0.0
C1020 C 0.58554 0.34251 0.86691 0.0
N1021 N 0.60496 0.33363 0.87122 0.0
C1022 C 0.56689 0.33001 0.86815 0.0
C1023 C 0.58862 0.29966 0.87859 0.0
C1024 C 0.60678 0.31269 0.87708 0.0
C1025 C 0.56831 0.30819 0.87387 0.0
H1026 H 0.58459 0.35915 0.86201 0.0
H1027 H 0.62246 0.30587 0.87989 0.0
O1028 O 0.67943 0.3749 0.85549 0.0
O1029 O 0.63439 0.37891 0.87792 0.0
O1030 O 0.63788 0.35575 0.83587 0.0
O1031 O 0.65746 0.33386 0.87459 0.0
H1032 H 0.71237 0.40035 0.86359 0.0
H1033 H 0.67652 0.36938 0.81339 0.0
H1034 H 0.73601 0.41651 0.83589 0.0
H1035 H 0.70057 0.38622 0.78651 0.0
H1036 H 0.60506 0.40088 0.94092 0.0
H1037 H 0.65862 0.41326 0.88386 0.0
H1038 H 0.60708 0.37552 0.91017 0.0
H1039 H 0.65571 0.43797 0.91502 0.0
H1040 H 0.66901 0.45506 0.82362 0.0
H1041 H 0.61102 0.42844 0.79617 0.0
H1042 H 0.73269 0.3698 0.91821 0.0
H1043 H 0.67792 0.37326 0.96054 0.0
H1044 H 0.61582 0.31958 0.83162 0.0
H1045 H 0.64335 0.37284 0.79713 0.0
H1046 H 0.60261 0.30487 0.79712 0.0
H1047 H 0.62996 0.35699 0.76324 0.0
H1048 H 0.69728 0.31955 0.87736 0.0
H1049 H 0.63818 0.32817 0.91201 0.0
H1050 H 0.71358 0.30417 0.91031 0.0
H1051 H 0.65548 0.31249 0.94431 0.0
H1052 H 0.73664 0.32016 0.82067 0.0
H1053 H 0.68085 0.28735 0.79552 0.0
H1054 H 0.55157 0.33731 0.86452 0.0
H1055 H 0.59059 0.28288 0.88265 0.0
Li1056 Li 0.34884 0.14849 0.88006 0.0
Li1057 Li 0.36373 0.1301 0.84874 0.0
Li1058 Li 0.3806 0.16398 0.86246 0.0
Li1059 Li 0.34608 0.16473 0.84394 0.0
C1060 C 0.37987 0.11658 0.88867 0.0
N1061 N 0.38314 0.07868 0.91147 0.0
C1062 C 0.36244 0.10254 0.88979 0.0
C1063 C 0.39897 0.11139 0.89916 0.0
C1064 C 0.3644 0.08344 0.90138 0.0
C1065 C 0.40031 0.09215 0.91061 0.0
C1066 C 0.31795 0.12436 0.84705 0.0
C1067 C 0.2984 0.10856 0.81759 0.0
N1068 N 0.28691 0.09657 0.83176 0.0
C1069 C 0.30582 0.112 0.86134 0.0
C1070 C 0.31411 0.12274 0.825 0.0
C1071 C 0.29025 0.098 0.85329 0.0
C1072 C 0.31199 0.15189 0.9044 0.0
N1073 N 0.33286 0.14592 0.90604 0.0
C1074 C 0.32831 0.13805 0.94336 0.0
C1075 C 0.34128 0.13924 0.92504 0.0
C1076 C 0.30655 0.14388 0.94208 0.0
C1077 C 0.29849 0.15095 0.92223 0.0
H1078 H 0.30584 0.15744 0.88914 0.0
H1079 H 0.35803 0.13488 0.92601 0.0
C1080 C 0.38625 0.10159 0.82144 0.0
N1081 N 0.36889 0.10309 0.83456 0.0
C1082 C 0.38939 0.08331 0.80876 0.0
C1083 C 0.35701 0.0682 0.82366 0.0
C1084 C 0.35474 0.08656 0.83631 0.0
C1085 C 0.37437 0.0664 0.80933 0.0
H1086 H 0.39742 0.11486 0.82043 0.0
H1087 H 0.34129 0.08775 0.8471 0.0
C1088 C 0.35735 0.19114 0.88921 0.0
N1089 N 0.36417 0.21581 0.92543 0.0
C1090 C 0.34717 0.21098 0.89139 0.0
C1091 C 0.371 0.18382 0.90543 0.0
C1092 C 0.35083 0.22323 0.90983 0.0
C1093 C 0.37423 0.19654 0.92362 0.0
C1094 C 0.37616 0.16038 0.8114 0.0
C1095 C 0.38828 0.17817 0.80505 0.0
C1096 C 0.36619 0.14764 0.79585 0.0
C1097 C 0.38975 0.18326 0.78325 0.0
C1098 C 0.36806 0.15323 0.77421 0.0
N1099 N 0.37967 0.1708 0.76842 0.0
C1100 C 0.42502 0.17304 0.87207 0.0
C1101 C 0.40345 0.20213 0.86057 0.0
C1102 C 0.44297 0.18654 0.87347 0.0
N1103 N 0.40581 0.18104 0.86561 0.0
C1104 C 0.42086 0.21614 0.86174 0.0
C1105 C 0.44105 0.20842 0.86811 0.0
H1106 H 0.42646 0.15617 0.87592 0.0
H1107 H 0.38796 0.20804 0.85547 0.0
C1108 C 0.30733 0.17796 0.8244 0.0
N1109 N 0.32864 0.18216 0.82611 0.0
C1110 C 0.29427 0.19099 0.81174 0.0
C1111 C 0.3252 0.21287 0.80341 0.0
C1112 C 0.33764 0.19944 0.81628 0.0
C1113 C 0.30319 0.20869 0.80096 0.0
H1114 H 0.30035 0.16472 0.83316 0.0
H1115 H 0.35443 0.20296 0.81866 0.0
O1116 O 0.37832 0.13542 0.87752 0.0
O1117 O 0.33339 0.13801 0.85469 0.0
O1118 O 0.35388 0.179 0.87124 0.0
O1119 O 0.37447 0.15524 0.83269 0.0
H1120 H 0.34751 0.10641 0.88195 0.0
H1121 H 0.4126 0.12215 0.8985 0.0
H1122 H 0.351 0.07244 0.90239 0.0
H1123 H 0.41499 0.08792 0.91882 0.0
H1124 H 0.2953 0.10714 0.80056 0.0
H1125 H 0.30848 0.11307 0.87847 0.0
H1126 H 0.32301 0.13247 0.81375 0.0
H1127 H 0.28084 0.08827 0.86417 0.0
H1128 H 0.33521 0.13241 0.95828 0.0
H1129 H 0.28199 0.15603 0.92053 0.0
H1130 H 0.40335 0.08262 0.79847 0.0
H1131 H 0.34477 0.05592 0.82469 0.0
H1132 H 0.33657 0.21685 0.87895 0.0
H1133 H 0.37904 0.16852 0.90402 0.0
H1134 H 0.34307 0.23863 0.91174 0.0
H1135 H 0.38475 0.19108 0.9363 0.0
H1136 H 0.39632 0.18806 0.81684 0.0
H1137 H 0.35727 0.13349 0.8004 0.0
H1138 H 0.39891 0.19709 0.77813 0.0
H1139 H 0.36034 0.14356 0.76203 0.0
H1140 H 0.45824 0.17983 0.87827 0.0
H1141 H 0.41847 0.2329 0.85781 0.0
H1142 H 0.27728 0.18749 0.81079 0.0
H1143 H 0.33278 0.22633 0.79541 0.0
Li1144 Li 0.36298 0.38141 0.35146 0.0
Li1145 Li 0.34855 0.36389 0.38241 0.0
Li1146 Li 0.3824 0.34982 0.36433 0.0
Li1147 Li 0.34571 0.34691 0.34784 0.0
C1148 C 0.38964 0.39552 0.38263 0.0
N1149 N 0.41411 0.43205 0.38839 0.0
C1150 C 0.37979 0.415 0.38772 0.0
C1151 C 0.41193 0.39456 0.38058 0.0
C1152 C 0.39244 0.43332 0.39052 0.0
C1153 C 0.42403 0.41322 0.38355 0.0
C1154 C 0.31549 0.38387 0.36611 0.0
C1155 C 0.28094 0.38181 0.38341 0.0
N1156 N 0.28102 0.4035 0.38587 0.0
C1157 C 0.31524 0.40615 0.36882 0.0
C1158 C 0.29819 0.37159 0.37342 0.0
C1159 C 0.29765 0.41577 0.37882 0.0
C1160 C 0.34852 0.41237 0.32295 0.0
N1161 N 0.36589 0.40772 0.33527 0.0
C1162 C 0.3849 0.43772 0.32046 0.0
C1163 C 0.38405 0.41981 0.33402 0.0
C1164 C 0.36706 0.443 0.3077 0.0
C1165 C 0.34874 0.42991 0.30906 0.0
H1166 H 0.33458 0.40205 0.3235 0.0
H1167 H 0.39808 0.41535 0.34307 0.0
C1168 C 0.32781 0.34821 0.41939 0.0
N1169 N 0.33414 0.36663 0.40955 0.0
C1170 C 0.31482 0.34895 0.43761 0.0
C1171 C 0.31584 0.38768 0.43597 0.0
C1172 C 0.32897 0.38617 0.41782 0.0
C1173 C 0.30819 0.36887 0.44586 0.0
H1174 H 0.33248 0.33287 0.41286 0.0
H1175 H 0.33431 0.40061 0.40987 0.0
C1176 C 0.37966 0.36487 0.31611 0.0
N1177 N 0.39235 0.38474 0.27857 0.0
C1178 C 0.36534 0.3667 0.29896 0.0
C1179 C 0.40046 0.37299 0.31416 0.0
C1180 C 0.37206 0.37684 0.28011 0.0
C1181 C 0.40656 0.38302 0.29505 0.0
C1182 C 0.34963 0.31307 0.3727 0.0
C1183 C 0.36426 0.29681 0.36778 0.0
C1184 C 0.32785 0.3081 0.37472 0.0
C1185 C 0.35681 0.27586 0.36476 0.0
C1186 C 0.32104 0.28696 0.37153 0.0
N1187 N 0.33553 0.27142 0.36664 0.0
C1188 C 0.4169 0.33018 0.38703 0.0
C1189 C 0.41756 0.32663 0.34915 0.0
C1190 C 0.43467 0.31661 0.38896 0.0
N1191 N 0.40865 0.33469 0.36734 0.0
C1192 C 0.4353 0.31308 0.35032 0.0
C1193 C 0.44387 0.30753 0.37044 0.0
H1194 H 0.40923 0.33654 0.40124 0.0
H1195 H 0.41045 0.33017 0.33373 0.0
C1196 C 0.30812 0.33432 0.32582 0.0
N1197 N 0.32901 0.32939 0.32942 0.0
C1198 C 0.29561 0.32133 0.31255 0.0
C1199 C 0.32651 0.29867 0.30662 0.0
C1200 C 0.33844 0.31218 0.31991 0.0
C1201 C 0.30476 0.30316 0.30285 0.0
H1202 H 0.30115 0.34834 0.33323 0.0
H1203 H 0.35523 0.30892 0.32277 0.0
O1204 O 0.37761 0.37736 0.38008 0.0
O1205 O 0.33266 0.37411 0.35652 0.0
O1206 O 0.37318 0.35558 0.3349 0.0
O1207 O 0.35656 0.33378 0.37531 0.0
H1208 H 0.36255 0.41603 0.38925 0.0
H1209 H 0.41979 0.37957 0.3767 0.0
H1210 H 0.38503 0.44854 0.39433 0.0
H1211 H 0.44129 0.41275 0.38197 0.0
H1212 H 0.26752 0.37248 0.38927 0.0
H1213 H 0.32858 0.41591 0.36356 0.0
H1214 H 0.29819 0.35432 0.37168 0.0
H1215 H 0.29728 0.43298 0.3811 0.0
H1216 H 0.39941 0.44726 0.32 0.0
H1217 H 0.33481 0.43283 0.29911 0.0
H1218 H 0.30984 0.33403 0.44501 0.0
H1219 H 0.31111 0.40339 0.44167 0.0
H1220 H 0.34914 0.36058 0.30029 0.0
H1221 H 0.41165 0.37186 0.3274 0.0
H1222 H 0.36112 0.37851 0.26674 0.0
H1223 H 0.42256 0.38953 0.29335 0.0
H1224 H 0.38116 0.30031 0.36618 0.0
H1225 H 0.31629 0.32048 0.37842 0.0
H1226 H 0.36794 0.26314 0.36085 0.0
H1227 H 0.30422 0.28294 0.37287 0.0
H1228 H 0.44059 0.31261 0.4048 0.0
H1229 H 0.44203 0.30675 0.3356 0.0
H1230 H 0.27888 0.3253 0.31015 0.0
H1231 H 0.33427 0.28503 0.29917 0.0
Li1232 Li 0.34642 0.66818 0.16819 0.0
Li1233 Li 0.36253 0.63098 0.16444 0.0
Li1234 Li 0.38075 0.66473 0.14896 0.0
Li1235 Li 0.34817 0.65029 0.13383 0.0
C1236 C 0.37968 0.66443 0.19926 0.0
N1237 N 0.39036 0.67931 0.2397 0.0
C1238 C 0.37717 0.65118 0.21721 0.0
C1239 C 0.38798 0.68513 0.20187 0.0
C1240 C 0.38255 0.65903 0.23752 0.0
C1241 C 0.39319 0.69239 0.22244 0.0
C1242 C 0.31462 0.63215 0.1518 0.0
C1243 C 0.29554 0.60242 0.136 0.0
N1244 N 0.27823 0.61533 0.13296 0.0
C1245 C 0.29662 0.64511 0.14867 0.0
C1246 C 0.3141 0.61062 0.14553 0.0
C1247 C 0.27838 0.63631 0.13906 0.0
C1248 C 0.31777 0.70171 0.17713 0.0
N1249 N 0.32925 0.68559 0.18628 0.0
C1250 C 0.31511 0.69413 0.22087 0.0
C1251 C 0.32785 0.68136 0.20764 0.0
C1252 C 0.30345 0.71123 0.21195 0.0
C1253 C 0.30482 0.71489 0.18974 0.0
H1254 H 0.31865 0.70432 0.16 0.0
H1255 H 0.33638 0.66789 0.21437 0.0
C1256 C 0.3817 0.59067 0.17691 0.0
N1257 N 0.36532 0.60476 0.17972 0.0
C1258 C 0.38286 0.57206 0.1895 0.0
C1259 C 0.35034 0.58302 0.20752 0.0
C1260 C 0.34973 0.60121 0.19453 0.0
C1261 C 0.36704 0.56805 0.20516 0.0
H1262 H 0.39391 0.59393 0.165 0.0
H1263 H 0.33701 0.61283 0.19652 0.0
C1264 C 0.35848 0.70156 0.13573 0.0
N1265 N 0.36681 0.74416 0.12647 0.0
C1266 C 0.35762 0.70889 0.11453 0.0
C1267 C 0.36337 0.71596 0.15222 0.0
C1268 C 0.36195 0.73046 0.11017 0.0
C1269 C 0.36759 0.73741 0.14722 0.0
C1270 C 0.38071 0.6284 0.11566 0.0
C1271 C 0.3836 0.64319 0.09904 0.0
C1272 C 0.38179 0.60642 0.11135 0.0
C1273 C 0.38735 0.63569 0.07824 0.0
C1274 C 0.3856 0.59956 0.09034 0.0
N1275 N 0.38826 0.61422 0.07436 0.0
C1276 C 0.42315 0.67638 0.16001 0.0
C1277 C 0.41066 0.69261 0.12803 0.0
C1278 C 0.44185 0.68877 0.15941 0.0
N1279 N 0.40774 0.67895 0.14481 0.0
C1280 C 0.42895 0.70552 0.12693 0.0
C1281 C 0.44471 0.70408 0.14303 0.0
H1282 H 0.42065 0.66514 0.173 0.0
H1283 H 0.39853 0.69401 0.1158 0.0
C1284 C 0.31919 0.66468 0.10309 0.0
N1285 N 0.33125 0.64725 0.10815 0.0
C1286 C 0.30534 0.66421 0.08552 0.0
C1287 C 0.31627 0.62767 0.07865 0.0
C1288 C 0.32985 0.62881 0.09651 0.0
C1289 C 0.30378 0.64556 0.0729 0.0
H1290 H 0.31992 0.67885 0.11307 0.0
H1291 H 0.33892 0.61486 0.10126 0.0
O1292 O 0.37448 0.65696 0.17925 0.0
O1293 O 0.33285 0.64062 0.16053 0.0
O1294 O 0.35438 0.68044 0.14023 0.0
O1295 O 0.37689 0.63542 0.13607 0.0
H1296 H 0.37101 0.63505 0.21551 0.0
H1297 H 0.39064 0.69541 0.18817 0.0
H1298 H 0.38053 0.64899 0.25155 0.0
H1299 H 0.39958 0.70839 0.22467 0.0
H1300 H 0.29493 0.58582 0.13094 0.0
H1301 H 0.29686 0.66184 0.15338 0.0
H1302 H 0.32798 0.60044 0.14776 0.0
H1303 H 0.26437 0.64617 0.13638 0.0
H1304 H 0.31409 0.69042 0.23783 0.0
H1305 H 0.29615 0.72791 0.18219 0.0
H1306 H 0.3959 0.56091 0.18691 0.0
H1307 H 0.33804 0.58099 0.21962 0.0
H1308 H 0.35396 0.69795 0.10153 0.0
H1309 H 0.36367 0.7107 0.16873 0.0
H1310 H 0.36148 0.73631 0.09383 0.0
H1311 H 0.37141 0.74871 0.15985 0.0
H1312 H 0.38266 0.66025 0.10214 0.0
H1313 H 0.37956 0.59479 0.12408 0.0
H1314 H 0.38948 0.64694 0.06518 0.0
H1315 H 0.38641 0.5826 0.08672 0.0
H1316 H 0.45375 0.68656 0.17186 0.0
H1317 H 0.43024 0.71707 0.11401 0.0
H1318 H 0.29562 0.6782 0.08219 0.0
H1319 H 0.31566 0.61294 0.06945 0.0
Li1320 Li 0.6494 0.8838 0.16431 0.0
Li1321 Li 0.66458 0.84626 0.1681 0.0
Li1322 Li 0.66272 0.86387 0.13348 0.0
Li1323 Li 0.63048 0.85024 0.14934 0.0
C1324 C 0.69762 0.88024 0.15138 0.0
N1325 N 0.73555 0.89392 0.13305 0.0
C1326 C 0.71405 0.86555 0.14735 0.0
C1327 C 0.7005 0.9019 0.14628 0.0
C1328 C 0.7331 0.87279 0.13801 0.0
C1329 C 0.71981 0.90849 0.13699 0.0
C1330 C 0.63478 0.85102 0.20026 0.0
C1331 C 0.62843 0.82231 0.22549 0.0
N1332 N 0.63066 0.83644 0.24198 0.0
C1333 C 0.63677 0.86531 0.21747 0.0
C1334 C 0.63036 0.82939 0.2043 0.0
C1335 C 0.63471 0.85761 0.23844 0.0
C1336 C 0.63079 0.92408 0.17749 0.0
N1337 N 0.6475 0.91022 0.17941 0.0
C1338 C 0.66379 0.93234 0.20617 0.0
C1339 C 0.66387 0.91406 0.19327 0.0
C1340 C 0.64678 0.94707 0.2047 0.0
C1341 C 0.63015 0.94277 0.19001 0.0
H1342 H 0.61791 0.92055 0.1664 0.0
H1343 H 0.67679 0.90258 0.19464 0.0
C1344 C 0.69027 0.81057 0.17819 0.0
N1345 N 0.68155 0.82881 0.18633 0.0
C1346 C 0.70283 0.79734 0.19114 0.0
C1347 C 0.69763 0.82219 0.22048 0.0
C1348 C 0.68538 0.83505 0.20688 0.0
C1349 C 0.70649 0.80297 0.21269 0.0
H1350 H 0.68763 0.80639 0.16155 0.0
H1351 H 0.67893 0.85003 0.21273 0.0
C1352 C 0.63263 0.88901 0.11655 0.0
N1353 N 0.62906 0.9084 0.07685 0.0
C1354 C 0.62907 0.87657 0.09823 0.0
C1355 C 0.6342 0.91132 0.11475 0.0
C1356 C 0.62739 0.88667 0.07828 0.0
C1357 C 0.63238 0.92082 0.09451 0.0
C1358 C 0.64893 0.81445 0.13299 0.0
C1359 C 0.64638 0.81103 0.11095 0.0
C1360 C 0.64394 0.79797 0.14738 0.0
C1361 C 0.63863 0.79126 0.10371 0.0
C1362 C 0.6362 0.77844 0.13952 0.0
N1363 N 0.63372 0.77552 0.11802 0.0
C1364 C 0.68912 0.84857 0.10047 0.0
C1365 C 0.68312 0.886 0.09777 0.0
C1366 C 0.70238 0.84901 0.08245 0.0
N1367 N 0.67948 0.8668 0.10757 0.0
C1368 C 0.6964 0.8872 0.0797 0.0
C1369 C 0.70613 0.86849 0.07174 0.0
H1370 H 0.68692 0.8337 0.10911 0.0
H1371 H 0.6761 0.90047 0.10419 0.0
C1372 C 0.59056 0.83408 0.16347 0.0
N1373 N 0.60319 0.83624 0.14581 0.0
C1374 C 0.57219 0.82126 0.16279 0.0
C1375 C 0.57943 0.81394 0.12544 0.0
C1376 C 0.5975 0.82718 0.12678 0.0
C1377 C 0.56672 0.81039 0.14376 0.0
H1378 H 0.59498 0.84193 0.17827 0.0
H1379 H 0.60736 0.82957 0.11276 0.0
O1380 O 0.67864 0.87338 0.15992 0.0
O1381 O 0.63696 0.85825 0.17961 0.0
O1382 O 0.63434 0.87944 0.13621 0.0
O1383 O 0.65643 0.83376 0.14041 0.0
H1384 H 0.71198 0.84872 0.15116 0.0
H1385 H 0.68786 0.91342 0.14922 0.0
H1386 H 0.74591 0.86159 0.13463 0.0
H1387 H 0.72223 0.92518 0.13282 0.0
H1388 H 0.62513 0.80559 0.22882 0.0
H1389 H 0.63991 0.88214 0.21469 0.0
H1390 H 0.62838 0.81819 0.19121 0.0
H1391 H 0.63634 0.86847 0.25189 0.0
H1392 H 0.67672 0.93458 0.21754 0.0
H1393 H 0.61682 0.95372 0.18812 0.0
H1394 H 0.70981 0.78302 0.18422 0.0
H1395 H 0.69992 0.82719 0.23697 0.0
H1396 H 0.62792 0.85929 0.09937 0.0
H1397 H 0.63698 0.92116 0.12879 0.0
H1398 H 0.62479 0.87723 0.06393 0.0
H1399 H 0.63366 0.93806 0.09283 0.0
H1400 H 0.64997 0.82362 0.09954 0.0
H1401 H 0.64609 0.80018 0.16444 0.0
H1402 H 0.63643 0.78847 0.08671 0.0
H1403 H 0.63222 0.76559 0.1505 0.0
H1404 H 0.71003 0.83429 0.07726 0.0
H1405 H 0.69895 0.90259 0.07202 0.0
H1406 H 0.56256 0.81969 0.17717 0.0
H1407 H 0.57601 0.80598 0.11038 0.0
H1408 H 0.21497 0.25306 0.20949 0.0
H1409 H 0.30442 0.25919 0.30151 0.0
H1410 H 0.24131 0.1973 0.24099 0.0
H1411 H 0.27533 0.31489 0.27242 0.0
H1412 H 0.28242 0.23618 0.27856 0.0
H1413 H 0.23796 0.27593 0.23151 0.0
C1414 C 0.22569 0.24562 0.22095 0.0
C1415 C 0.22621 0.22324 0.22341 0.0
C1416 C 0.28086 0.25344 0.27719 0.0
C1417 C 0.25246 0.24933 0.24882 0.0
C1418 C 0.2935 0.26658 0.2902 0.0
C1419 C 0.29169 0.289 0.28889 0.0
C1420 C 0.26634 0.26277 0.26271 0.0
C1421 C 0.27705 0.29769 0.27415 0.0
C1422 C 0.23873 0.25869 0.23361 0.0
C1423 C 0.2402 0.21449 0.23875 0.0
N1424 N 0.26496 0.28456 0.26164 0.0
N1425 N 0.25278 0.22756 0.25086 0.0
H1426 H 0.7994 0.26178 0.21235 0.0
H1427 H 0.70693 0.25637 0.30132 0.0
H1428 H 0.76755 0.31785 0.2376 0.0
H1429 H 0.73746 0.20058 0.27391 0.0
H1430 H 0.72875 0.27926 0.27805 0.0
H1431 H 0.77664 0.23917 0.23476 0.0
C1432 C 0.7875 0.26934 0.2225 0.0
C1433 C 0.78535 0.29176 0.22304 0.0
C1434 C 0.73065 0.26201 0.27712 0.0
C1435 C 0.75938 0.26593 0.24902 0.0
C1436 C 0.71812 0.24893 0.29032 0.0
C1437 C 0.72041 0.22653 0.2896 0.0
C1438 C 0.74556 0.25261 0.26308 0.0
C1439 C 0.73538 0.21778 0.27524 0.0
C1440 C 0.77459 0.25641 0.2354 0.0
C1441 C 0.76993 0.30066 0.23684 0.0
N1442 N 0.74738 0.23084 0.26257 0.0
N1443 N 0.75752 0.28772 0.24927 0.0
H1444 H 0.31229 0.72679 0.25216 0.0
H1445 H 0.20128 0.79034 0.26261 0.0
H1446 H 0.26345 0.72714 0.20305 0.0
H1447 H 0.24909 0.7883 0.31267 0.0
H1448 H 0.22416 0.76769 0.24029 0.0
H1449 H 0.28949 0.74949 0.27451 0.0
C1450 C 0.29672 0.73154 0.24612 0.0
C1451 C 0.28978 0.72504 0.22569 0.0
C1452 C 0.22965 0.77219 0.25616 0.0
C1453 C 0.26368 0.75123 0.2511 0.0
C1454 C 0.21665 0.78522 0.26886 0.0
C1455 C 0.22329 0.79123 0.28953 0.0
C1456 C 0.24948 0.76512 0.26415 0.0
C1457 C 0.24322 0.78384 0.29693 0.0
C1458 C 0.28376 0.7446 0.25884 0.0
C1459 C 0.26959 0.73199 0.21856 0.0
N1460 N 0.25562 0.7712 0.28424 0.0
N1461 N 0.25725 0.74468 0.23126 0.0
H1462 H 0.7758 0.69625 0.26819 0.0
H1463 H 0.73491 0.81503 0.24424 0.0
H1464 H 0.78733 0.74947 0.31099 0.0
H1465 H 0.70811 0.75889 0.21352 0.0
H1466 H 0.75623 0.79167 0.26728 0.0
H1467 H 0.75307 0.71943 0.24611 0.0
C1468 C 0.77353 0.71283 0.27291 0.0
C1469 C 0.78344 0.721 0.2914 0.0
C1470 C 0.74563 0.7845 0.25553 0.0
C1471 C 0.75757 0.74756 0.26627 0.0
C1472 C 0.73334 0.79782 0.24242 0.0
C1473 C 0.71962 0.78897 0.22686 0.0
C1474 C 0.74438 0.76215 0.25297 0.0
C1475 C 0.7187 0.7665 0.225 0.0
C1476 C 0.76049 0.726 0.26039 0.0
C1477 C 0.77982 0.74252 0.29695 0.0
N1478 N 0.73096 0.75388 0.23784 0.0
N1479 N 0.76728 0.75512 0.28434 0.0
H1480 H 0.31562 0.78446 0.74984 0.0
H1481 H 0.20419 0.72266 0.7649 0.0
H1482 H 0.26756 0.77949 0.70019 0.0
H1483 H 0.25587 0.71988 0.81095 0.0
H1484 H 0.22677 0.74438 0.74142 0.0
H1485 H 0.29358 0.7617 0.77291 0.0
C1486 C 0.30051 0.77846 0.74371 0.0
C1487 C 0.29346 0.78391 0.72301 0.0
C1488 C 0.2332 0.73898 0.75664 0.0
C1489 C 0.26798 0.75807 0.74949 0.0
C1490 C 0.22035 0.72646 0.77002 0.0
C1491 C 0.22814 0.71936 0.78994 0.0
C1492 C 0.254 0.74456 0.76321 0.0
C1493 C 0.24908 0.7252 0.79587 0.0
C1494 C 0.28787 0.76556 0.75695 0.0
C1495 C 0.27353 0.77598 0.71612 0.0
N1496 N 0.26127 0.73747 0.78258 0.0
N1497 N 0.26149 0.76348 0.72933 0.0
H1498 H 0.72586 0.75214 0.70197 0.0
H1499 H 0.80302 0.75894 0.80432 0.0
H1500 H 0.7346 0.69983 0.74651 0.0
H1501 H 0.78144 0.8146 0.76926 0.0
H1502 H 0.78102 0.73619 0.78102 0.0
H1503 H 0.74926 0.77451 0.72424 0.0
C1504 C 0.73282 0.74534 0.71638 0.0
C1505 C 0.72827 0.72414 0.72246 0.0
C1506 C 0.78111 0.75338 0.77843 0.0
C1507 C 0.75496 0.74959 0.74799 0.0
C1508 C 0.79375 0.76634 0.79162 0.0
C1509 C 0.794 0.78867 0.78871 0.0
C1510 C 0.76881 0.76282 0.76208 0.0
C1511 C 0.78151 0.79747 0.77218 0.0
C1512 C 0.74605 0.75814 0.72913 0.0
C1513 C 0.73752 0.71618 0.74139 0.0
N1514 N 0.76946 0.78451 0.75944 0.0
N1515 N 0.75048 0.7289 0.75346 0.0
H1516 H 0.70683 0.25876 0.79849 0.0
H1517 H 0.81048 0.25299 0.72291 0.0
H1518 H 0.74665 0.31351 0.78355 0.0
H1519 H 0.76864 0.19904 0.7349 0.0
H1520 H 0.78784 0.27518 0.7459 0.0
H1521 H 0.72984 0.23638 0.77606 0.0
C1522 C 0.72036 0.2661 0.79042 0.0
C1523 C 0.72477 0.28807 0.79287 0.0
C1524 C 0.78361 0.25848 0.74352 0.0
C1525 C 0.75134 0.26247 0.76734 0.0
C1526 C 0.79647 0.24583 0.7303 0.0
C1527 C 0.79142 0.22412 0.72691 0.0
C1528 C 0.76554 0.2494 0.75345 0.0
C1529 C 0.77329 0.21562 0.73724 0.0
C1530 C 0.73356 0.25328 0.7777 0.0
C1531 C 0.74276 0.29661 0.78233 0.0
N1532 N 0.76098 0.22829 0.75 0.0
N1533 N 0.75535 0.2838 0.77 0.0
H1534 H 0.20516 0.25946 0.71688 0.0
H1535 H 0.30469 0.25261 0.79757 0.0
H1536 H 0.24439 0.31402 0.73396 0.0
H1537 H 0.27051 0.19713 0.77386 0.0
H1538 H 0.28198 0.27558 0.77543 0.0
H1539 H 0.22808 0.23658 0.73884 0.0
C1540 C 0.21866 0.26663 0.72515 0.0
C1541 C 0.22288 0.28872 0.7235 0.0
C1542 C 0.27947 0.25837 0.77506 0.0
C1543 C 0.24905 0.2626 0.74893 0.0
C1544 C 0.29252 0.24522 0.7876 0.0
C1545 C 0.28955 0.22287 0.78756 0.0
C1546 C 0.26326 0.24914 0.76241 0.0
C1547 C 0.27321 0.21428 0.77462 0.0
C1548 C 0.23169 0.25356 0.73778 0.0
C1549 C 0.24036 0.29715 0.73495 0.0
N1550 N 0.2607 0.22743 0.76258 0.0
N1551 N 0.25281 0.28408 0.74716 0.0
H1552 H 0.15795 0.98548 0.31521 0.0
H1553 H 0.10834 0.03907 0.20998 0.0
H1554 H 0.11697 0.95005 0.27187 0.0
H1555 H 0.16811 0.05938 0.2383 0.0
H1556 H 0.10673 0.00925 0.23588 0.0
H1557 H 0.15725 0.01575 0.29044 0.0
C1558 C 0.14884 0.98395 0.30051 0.0
C1559 C 0.13774 0.96489 0.29563 0.0
C1560 C 0.12016 0.02027 0.23637 0.0
C1561 C 0.13646 0.99997 0.26736 0.0
C1562 C 0.12105 0.03728 0.2217 0.0
C1563 C 0.13846 0.05157 0.22194 0.0
C1564 C 0.13658 0.01787 0.25164 0.0
C1565 C 0.15454 0.04855 0.23741 0.0
C1566 C 0.14837 1.00135 0.28641 0.0
C1567 C 0.12565 0.96436 0.27653 0.0
N1568 N 0.15316 0.03212 0.25169 0.0
N1569 N 0.12535 0.98161 0.26311 0.0
H1570 H 0.83619 0.4666 0.22069 0.0
H1571 H 0.90216 0.5385 0.30348 0.0
H1572 H 0.90527 0.46372 0.22516 0.0
H1573 H 0.83875 0.55481 0.28085 0.0
H1574 H 0.90309 0.50883 0.27771 0.0
H1575 H 0.83628 0.49669 0.24557 0.0
C1576 C 0.85145 0.47238 0.22664 0.0
C1577 C 0.87079 0.46256 0.2205 0.0
C1578 C 0.889 0.51895 0.27845 0.0
C1579 C 0.87085 0.49687 0.24974 0.0
C1580 C 0.88846 0.53597 0.29311 0.0
C1581 C 0.87028 0.54926 0.29456 0.0
C1582 C 0.87117 0.51499 0.26526 0.0
C1583 C 0.85293 0.54483 0.28081 0.0
C1584 C 0.85143 0.48953 0.24104 0.0
C1585 C 0.88992 0.47052 0.2295 0.0
N1586 N 0.85378 0.52808 0.26687 0.0
N1587 N 0.88946 0.48715 0.2437 0.0
H1588 H 0.26446 0.13099 0.94401 0.0
H1589 H 0.25217 0.15405 0.06993 0.0
H1590 H 0.316 0.15445 0.98392 0.0
H1591 H 0.19952 0.13513 0.02907 0.0
H1592 H 0.27608 0.15291 0.03893 0.0
H1593 H 0.24085 0.13093 0.97526 0.0
C1594 C 0.27083 0.13621 0.95932 0.0
C1595 C 0.29228 0.14286 0.96124 0.0
C1596 C 0.2593 0.14898 0.03673 0.0
C1597 C 0.26527 0.14259 0.99726 0.0
C1598 C 0.24558 0.14976 0.05442 0.0
C1599 C 0.2237 0.1448 0.05215 0.0
C1600 C 0.25119 0.14317 0.01653 0.0
C1601 C 0.21627 0.13889 0.03169 0.0
C1602 C 0.25733 0.13606 0.9772 0.0
C1603 C 0.29967 0.149 0.98165 0.0
N1604 N 0.22995 0.13829 0.0147 0.0
N1605 N 0.28619 0.14878 0.99882 0.0
H1606 H 0.80191 0.33784 0.03756 0.0
H1607 H 0.70629 0.39815 0.97727 0.0
H1608 H 0.78048 0.40103 0.05593 0.0
H1609 H 0.74161 0.34563 0.94931 0.0
H1610 H 0.73106 0.39797 0.00792 0.0
H1611 H 0.7778 0.33898 0.00662 0.0
C1612 C 0.79212 0.35197 0.03504 0.0
C1613 C 0.79318 0.36936 0.04932 0.0
C1614 C 0.73341 0.38655 0.99503 0.0
C1615 C 0.76542 0.37074 0.01401 0.0
C1616 C 0.71922 0.38656 0.97763 0.0
C1617 C 0.72197 0.37194 0.9607 0.0
C1618 C 0.75025 0.3716 0.99564 0.0
C1619 C 0.73906 0.35735 0.96189 0.0
C1620 C 0.77842 0.35266 0.01734 0.0
C1621 C 0.78027 0.38736 0.0452 0.0
N1622 N 0.75247 0.35748 0.97909 0.0
N1623 N 0.76679 0.38752 0.028 0.0
H1624 H 0.30549 0.89812 0.53834 0.0
H1625 H 0.21415 0.83556 0.47344 0.0
H1626 H 0.27418 0.84109 0.56211 0.0
H1627 H 0.23183 0.90104 0.45941 0.0
H1628 H 0.23826 0.83608 0.5044 0.0
H1629 H 0.28095 0.89821 0.50753 0.0
C1630 C 0.2935 0.88559 0.53702 0.0
C1631 C 0.29181 0.86962 0.55283 0.0
C1632 C 0.23682 0.85037 0.49461 0.0
C1633 C 0.26376 0.86959 0.51769 0.0
C1634 C 0.22313 0.85005 0.47689 0.0
C1635 C 0.221 0.86828 0.46382 0.0
C1636 C 0.24871 0.86897 0.49921 0.0
C1637 C 0.23287 0.8867 0.46917 0.0
C1638 C 0.27943 0.88573 0.51953 0.0
C1639 C 0.27588 0.85385 0.55042 0.0
N1640 N 0.24633 0.88653 0.48636 0.0
N1641 N 0.26256 0.85418 0.53316 0.0
H1642 H 0.70827 0.61556 0.53639 0.0
H1643 H 0.81324 0.66757 0.48325 0.0
H1644 H 0.73997 0.67215 0.56075 0.0
H1645 H 0.77512 0.6189 0.45186 0.0
H1646 H 0.78818 0.66723 0.51331 0.0
H1647 H 0.73426 0.61428 0.50686 0.0
C1648 C 0.72072 0.62768 0.53556 0.0
C1649 C 0.72184 0.64407 0.551 0.0
C1650 C 0.78531 0.65658 0.49987 0.0
C1651 C 0.75166 0.64268 0.51731 0.0
C1652 C 0.7996 0.65682 0.48262 0.0
C1653 C 0.7963 0.64334 0.46482 0.0
C1654 C 0.76755 0.6427 0.4995 0.0
C1655 C 0.77852 0.62942 0.46526 0.0
C1656 C 0.73549 0.62699 0.51866 0.0
C1657 C 0.73825 0.65942 0.54904 0.0
N1658 N 0.76481 0.6295 0.48227 0.0
N1659 N 0.7525 0.65832 0.53257 0.0
H1660 H 0.97862 0.30905 0.11986 0.0
H1661 H 0.03226 0.19972 0.16143 0.0
H1662 H 0.94943 0.26679 0.16642 0.0
H1663 H 0.06522 0.24541 0.12109 0.0
H1664 H 1.00081 0.22306 0.16141 0.0
H1665 H 0.00988 0.28536 0.11874 0.0
C1666 C 0.97879 0.29489 0.12994 0.0
C1667 C 0.96123 0.28992 0.14318 0.0
C1668 C 0.0149 0.22798 0.15252 0.0
C1669 C 0.99691 0.26253 0.14174 0.0
C1670 C 0.03282 0.21455 0.15238 0.0
C1671 C 0.05146 0.2206 0.14128 0.0
C1672 C 0.01552 0.24762 0.14141 0.0
C1673 C 0.05131 0.24021 0.1301 0.0
C1674 C 0.99661 0.28128 0.12918 0.0
C1675 C 0.96233 0.27113 0.15565 0.0
N1676 N 0.03365 0.253 0.13046 0.0
N1677 N 0.9798 0.25816 0.15459 0.0
H1678 H 0.9603 0.73184 0.33275 0.0
H1679 H 0.05813 0.77671 0.40072 0.0
H1680 H 0.96575 0.72018 0.40094 0.0
H1681 H 0.03473 0.80883 0.34408 0.0
H1682 H 0.02676 0.7529 0.39976 0.0
H1683 H 0.99 0.75716 0.33515 0.0
C1684 C 0.96753 0.73464 0.34829 0.0
C1685 C 0.96019 0.7238 0.36671 0.0
C1686 C 0.02842 0.76527 0.38766 0.0
C1687 C 0.99483 0.75252 0.36934 0.0
C1688 C 0.04629 0.7788 0.38817 0.0
C1689 C 0.04895 0.79477 0.37248 0.0
C1690 C 0.01333 0.76742 0.37107 0.0
C1691 C 0.03316 0.79685 0.35657 0.0
C1692 C 0.98461 0.74908 0.34958 0.0
C1693 C 0.97089 0.7278 0.38621 0.0
N1694 N 0.01613 0.78318 0.35613 0.0
N1695 N 0.9877 0.74174 0.38698 0.0
H1696 H 0.55265 0.72298 0.60989 0.0
H1697 H 0.47354 0.80053 0.67473 0.0
H1698 H 0.5489 0.72474 0.67911 0.0
H1699 H 0.46535 0.78608 0.60749 0.0
H1700 H 0.50387 0.77569 0.67596 0.0
H1701 H 0.52273 0.74826 0.60812 0.0
C1702 C 0.54548 0.72849 0.62473 0.0
C1703 C 0.55346 0.72164 0.64469 0.0
C1704 C 0.49547 0.77798 0.66092 0.0
C1705 C 0.51943 0.75105 0.64272 0.0
C1706 C 0.47828 0.79231 0.66016 0.0
C1707 C 0.4669 0.79541 0.64097 0.0
C1708 C 0.50151 0.76676 0.6423 0.0
C1709 C 0.47356 0.78405 0.62267 0.0
C1710 C 0.52847 0.74306 0.62368 0.0
C1711 C 0.54366 0.72978 0.66334 0.0
N1712 N 0.49044 0.77027 0.62377 0.0
N1713 N 0.52727 0.74407 0.66188 0.0
H1714 H 0.90174 0.04961 0.72583 0.0
H1715 H 0.8333 0.96927 0.79803 0.0
H1716 H 0.8331 0.04227 0.72002 0.0
H1717 H 0.90095 0.95988 0.78647 0.0
H1718 H 0.8335 0.99881 0.77242 0.0
H1719 H 0.90235 0.01911 0.75057 0.0
C1720 C 0.88682 0.04154 0.72953 0.0
C1721 C 0.86731 0.04873 0.7208 0.0
C1722 C 0.84829 0.99026 0.77547 0.0
C1723 C 0.86791 0.01408 0.74958 0.0
C1724 C 0.8482 0.97327 0.79005 0.0
C1725 C 0.86711 0.96181 0.7944 0.0
C1726 C 0.86747 0.99614 0.76525 0.0
C1727 C 0.88602 0.96832 0.78391 0.0
C1728 C 0.88719 0.02419 0.74379 0.0
C1729 C 0.84848 0.03773 0.72662 0.0
N1730 N 0.88572 0.98506 0.76985 0.0
N1731 N 0.84925 0.0211 0.74071 0.0
H1732 H 0.10947 0.54547 0.79623 0.0
H1733 H 0.1761 0.47862 0.70894 0.0
H1734 H 0.17558 0.55805 0.77985 0.0
H1735 H 0.11328 0.45957 0.73102 0.0
H1736 H 0.17507 0.50913 0.7334 0.0
H1737 H 0.1096 0.515 0.77137 0.0
C1738 C 0.12404 0.5418 0.78753 0.0
C1739 C 0.14252 0.55449 0.79013 0.0
C1740 C 0.16148 0.49831 0.73291 0.0
C1741 C 0.14266 0.51978 0.7614 0.0
C1742 C 0.16209 0.48079 0.71898 0.0
C1743 C 0.14482 0.46635 0.71797 0.0
C1744 C 0.14344 0.50156 0.746 0.0
C1745 C 0.1269 0.47036 0.73107 0.0
C1746 C 0.12406 0.52447 0.77323 0.0
C1747 C 0.16082 0.54906 0.77814 0.0
N1748 N 0.1267 0.48754 0.74458 0.0
N1749 N 0.1604 0.53219 0.76433 0.0
H1750 H 0.70782 0.83999 0.03836 0.0
H1751 H 0.8077 0.89651 0.98038 0.0
H1752 H 0.737 0.89839 0.06158 0.0
H1753 H 0.77385 0.84172 0.9547 0.0
H1754 H 0.78229 0.89758 0.01031 0.0
H1755 H 0.73234 0.84029 0.00784 0.0
C1756 C 0.71943 0.85287 0.03705 0.0
C1757 C 0.7204 0.86914 0.05262 0.0
C1758 C 0.78044 0.88534 0.99811 0.0
C1759 C 0.74855 0.86966 0.01755 0.0
C1760 C 0.79489 0.88476 0.98095 0.0
C1761 C 0.79305 0.86892 0.96499 0.0
C1762 C 0.76399 0.86995 0.99937 0.0
C1763 C 0.77623 0.85398 0.96678 0.0
C1764 C 0.73337 0.8531 0.01955 0.0
C1765 C 0.73556 0.88562 0.04988 0.0
N1766 N 0.76243 0.85485 0.98363 0.0
N1767 N 0.74911 0.88541 0.03275 0.0
H1768 H 0.21561 0.60784 0.97125 0.0
H1769 H 0.29464 0.67784 0.04431 0.0
H1770 H 0.22049 0.67685 0.96757 0.0
H1771 H 0.27907 0.61175 0.05845 0.0
H1772 H 0.26934 0.67699 0.01452 0.0
H1773 H 0.24062 0.60817 1.00162 0.0
C1774 C 0.22191 0.62305 0.97685 0.0
C1775 C 0.21588 0.64235 0.96689 0.0
C1776 C 0.27143 0.66267 0.02415 0.0
C1777 C 0.24456 0.64283 1.00153 0.0
C1778 C 0.28584 0.66315 0.04127 0.0
C1779 C 0.28897 0.64488 0.05411 0.0
C1780 C 0.2601 0.64372 0.01959 0.0
C1781 C 0.27742 0.62617 0.04891 0.0
C1782 C 0.23612 0.62323 0.99422 0.0
C1783 C 0.22444 0.66161 0.97491 0.0
N1784 N 0.26351 0.62608 0.03207 0.0
N1785 N 0.23841 0.66134 0.99166 0.0
H1786 H 0.73775 0.17416 0.45528 0.0
H1787 H 0.77754 0.11272 0.56098 0.0
H1788 H 0.70718 0.11684 0.47953 0.0
H1789 H 0.80175 0.17433 0.54047 0.0
H1790 H 0.75325 0.11247 0.53006 0.0
H1791 H 0.76256 0.17325 0.48545 0.0
C1792 C 0.7361 0.16146 0.46704 0.0
C1793 C 0.72014 0.14567 0.46489 0.0
C1794 C 0.7639 0.12602 0.53233 0.0
C1795 C 0.74895 0.1443 0.49943 0.0
C1796 C 0.77787 0.12611 0.54989 0.0
C1797 C 0.79167 0.14361 0.55337 0.0
C1798 C 0.76381 0.1435 0.51806 0.0
C1799 C 0.7912 0.16064 0.53861 0.0
C1800 C 0.75041 0.16087 0.48422 0.0
C1801 C 0.71927 0.12928 0.48039 0.0
N1802 N 0.77753 0.16015 0.52164 0.0
N1803 N 0.73345 0.12904 0.49701 0.0
H1804 H 0.2077 0.34038 0.53731 0.0
H1805 H 0.30743 0.39743 0.4797 0.0
H1806 H 0.23576 0.39949 0.56011 0.0
H1807 H 0.27365 0.34276 0.45367 0.0
H1808 H 0.28179 0.3985 0.50944 0.0
H1809 H 0.23233 0.34084 0.50688 0.0
C1810 C 0.21908 0.35347 0.53592 0.0
C1811 C 0.21971 0.36988 0.55134 0.0
C1812 C 0.28001 0.38628 0.4972 0.0
C1813 C 0.248 0.37057 0.5164 0.0
C1814 C 0.2946 0.38571 0.48015 0.0
C1815 C 0.29284 0.36989 0.46416 0.0
C1816 C 0.26355 0.37091 0.49832 0.0
C1817 C 0.27598 0.35499 0.46579 0.0
C1818 C 0.23308 0.35378 0.51847 0.0
C1819 C 0.23458 0.38661 0.54851 0.0
N1820 N 0.26207 0.35584 0.48254 0.0
N1821 N 0.24822 0.38647 0.53145 0.0
H1822 H 0.0351 0.70485 0.89368 0.0
H1823 H 0.98563 0.81583 0.85212 0.0
H1824 H 0.07001 0.75109 0.85562 0.0
H1825 H 0.95338 0.77498 0.89782 0.0
H1826 H 0.01662 0.79197 0.85324 0.0
H1827 H 1.00506 0.73009 0.8958 0.0
C1828 C 0.03655 0.72034 0.88591 0.0
C1829 C 0.05508 0.72571 0.87426 0.0
C1830 C 1.00284 0.78825 0.86314 0.0
C1831 C 0.02065 0.75458 0.87643 0.0
C1832 C 0.98509 0.80183 0.86242 0.0
C1833 C 0.96685 0.79736 0.87483 0.0
C1834 C 1.00236 0.76988 0.87623 0.0
C1835 C 0.96717 0.77913 0.88812 0.0
C1836 C 0.01934 0.73471 0.88705 0.0
C1837 C 0.05591 0.74598 0.86437 0.0
N1838 N 0.98458 0.76597 0.88835 0.0
N1839 N 0.03894 0.75957 0.8656 0.0
H1840 H 0.03922 0.30107 0.61196 0.0
H1841 H 0.96079 0.22818 0.67946 0.0
H1842 H 0.05321 0.28393 0.67778 0.0
H1843 H 0.9729 0.21479 0.6124 0.0
H1844 H 0.9904 0.25368 0.67921 0.0
H1845 H 0.0104 0.27446 0.6118 0.0
C1846 C 0.03643 0.29178 0.62637 0.0
C1847 C 0.04892 0.29497 0.64493 0.0
C1848 C 0.98653 0.24507 0.6646 0.0
C1849 C 0.01534 0.26493 0.6449 0.0
C1850 C 0.96971 0.23028 0.66471 0.0
C1851 C 0.9642 0.21894 0.64595 0.0
C1852 C 0.99769 0.24905 0.64551 0.0
C1853 C 0.97613 0.22325 0.62722 0.0
C1854 C 0.01985 0.27665 0.62623 0.0
C1855 C 0.04389 0.28261 0.66321 0.0
N1856 N 0.99218 0.23806 0.62744 0.0
N1857 N 0.02744 0.2683 0.66276 0.0
H1858 H 0.53054 0.20197 0.34634 0.0
H1859 H 0.4788 0.30796 0.39755 0.0
H1860 H 0.5593 0.23657 0.39902 0.0
H1861 H 0.4494 0.27075 0.347 0.0
H1862 H 0.50797 0.2817 0.3992 0.0
H1863 H 0.5003 0.22676 0.34708 0.0
C1864 C 0.53048 0.21479 0.35809 0.0
C1865 C 0.54755 0.21724 0.37257 0.0
C1866 C 0.49511 0.27929 0.38778 0.0
C1867 C 0.51285 0.24576 0.37356 0.0
C1868 C 0.4784 0.29424 0.38688 0.0
C1869 C 0.46167 0.2917 0.37198 0.0
C1870 C 0.49508 0.26165 0.37371 0.0
C1871 C 0.46214 0.27367 0.35844 0.0
C1872 C 0.51315 0.22891 0.35857 0.0
C1873 C 0.54641 0.23396 0.38767 0.0
N1874 N 0.47855 0.25941 0.3596 0.0
N1875 N 0.52943 0.24766 0.38769 0.0
H1876 H 0.66318 0.56595 0.74482 0.0
H1877 H 0.62621 0.44512 0.76559 0.0
H1878 H 0.62249 0.53145 0.70069 0.0
H1879 H 0.65046 0.4867 0.81553 0.0
H1880 H 0.62594 0.47567 0.74097 0.0
H1881 H 0.66048 0.5361 0.77012 0.0
C1882 C 0.65372 0.55203 0.74044 0.0
C1883 C 0.64316 0.55111 0.72056 0.0
C1884 C 0.6312 0.47809 0.75736 0.0
C1885 C 0.63994 0.51683 0.74951 0.0
C1886 C 0.63125 0.46067 0.77152 0.0
C1887 C 0.63845 0.46319 0.79278 0.0
C1888 C 0.63861 0.4982 0.76437 0.0
C1889 C 0.64517 0.48375 0.79925 0.0
C1890 C 0.65206 0.53505 0.75495 0.0
C1891 C 0.63083 0.53282 0.71587 0.0
N1892 N 0.64521 0.50037 0.7851 0.0
N1893 N 0.62969 0.51631 0.73017 0.0
H1894 H 0.39156 0.06475 0.76841 0.0
H1895 H 0.34529 0.95038 0.73929 0.0
H1896 H 0.36129 0.0245 0.81621 0.0
H1897 H 0.40305 0.97382 0.70935 0.0
H1898 H 0.347 0.98016 0.76503 0.0
H1899 H 0.39275 0.03402 0.7441 0.0
C1900 C 0.38539 0.04951 0.77402 0.0
C1901 C 0.37623 0.04748 0.79459 0.0
C1902 C 0.35934 0.97874 0.75287 0.0
C1903 C 0.37692 0.01237 0.76629 0.0
C1904 C 0.3583 0.96187 0.73816 0.0
C1905 C 0.37405 0.95973 0.72224 0.0
C1906 C 0.37596 0.99387 0.75134 0.0
C1907 C 0.39067 0.97493 0.72147 0.0
C1908 C 0.38596 0.03199 0.75998 0.0
C1909 C 0.36804 0.02722 0.80045 0.0
N1910 N 0.39108 0.99154 0.7357 0.0
N1911 N 0.36837 0.01058 0.78632 0.0
H1912 H 0.45157 0.24059 0.83989 0.0
H1913 H 0.55796 0.27631 0.90262 0.0
H1914 H 0.47359 0.20995 0.89799 0.0
H1915 H 0.53467 0.30766 0.84541 0.0
H1916 H 0.52722 0.25196 0.90135 0.0
H1917 H 0.48184 0.26532 0.84184 0.0
C1918 C 0.46269 0.23911 0.85315 0.0
C1919 C 0.45988 0.22317 0.86887 0.0
C1920 C 0.52879 0.26421 0.88911 0.0
C1921 C 0.4949 0.25144 0.87106 0.0
C1922 C 0.5464 0.27809 0.88977 0.0
C1923 C 0.54899 0.29409 0.87407 0.0
C1924 C 0.5136 0.26624 0.87259 0.0
C1925 C 0.53326 0.29578 0.85801 0.0
C1926 C 0.48008 0.25321 0.85419 0.0
C1927 C 0.47517 0.22182 0.8854 0.0
N1928 N 0.51632 0.282 0.85765 0.0
N1929 N 0.49197 0.23578 0.88607 0.0
H1930 H 0.40257 0.54804 0.22239 0.0
H1931 H 0.33409 0.47038 0.29758 0.0
H1932 H 0.33347 0.54374 0.22023 0.0
H1933 H 0.40093 0.45865 0.28376 0.0
H1934 H 0.33442 0.49988 0.27196 0.0
H1935 H 0.40313 0.51742 0.24706 0.0
C1936 C 0.38753 0.5406 0.22689 0.0
C1937 C 0.36792 0.5487 0.21925 0.0
C1938 C 0.34902 0.49083 0.2745 0.0
C1939 C 0.3685 0.51394 0.24789 0.0
C1940 C 0.34884 0.47387 0.28909 0.0
C1941 C 0.36747 0.46175 0.2928 0.0
C1942 C 0.36802 0.49603 0.2636 0.0
C1943 C 0.38622 0.4676 0.28167 0.0
C1944 C 0.38788 0.5232 0.24109 0.0
C1945 C 0.34896 0.53849 0.226 0.0
N1946 N 0.38603 0.48433 0.2676 0.0
N1947 N 0.34973 0.52179 0.23999 0.0
H1948 H 0.61156 0.05633 0.28454 0.0
H1949 H 0.68078 0.97188 0.21793 0.0
H1950 H 0.67894 0.04487 0.29583 0.0
H1951 H 0.61194 0.96671 0.22369 0.0
H1952 H 0.68024 1.00193 0.24294 0.0
H1953 H 0.61122 0.02637 0.25914 0.0
C1954 C 0.62625 0.04748 0.28188 0.0
C1955 C 0.64534 0.05329 0.29244 0.0
C1956 C 0.66525 0.99422 0.23873 0.0
C1957 C 0.64508 0.01929 0.26289 0.0
C1958 C 0.66553 0.97695 0.22448 0.0
C1959 C 0.64639 0.96645 0.21879 0.0
C1960 C 0.64569 1.00134 0.24723 0.0
C1961 C 0.62709 0.97433 0.2274 0.0
C1962 C 0.62604 0.03045 0.26724 0.0
C1963 C 0.66392 0.04138 0.28786 0.0
N1964 N 0.62723 0.99128 0.2412 0.0
N1965 N 0.66334 0.02507 0.2734 0.0
H1966 H 0.53886 0.80143 0.11043 0.0
H1967 H 0.46522 0.72171 0.17798 0.0
H1968 H 0.55282 0.78355 0.17599 0.0
H1969 H 0.4669 0.72116 0.10862 0.0
H1970 H 0.49496 0.74711 0.17805 0.0
H1971 H 0.50989 0.77499 0.10996 0.0
C1972 C 0.53597 0.79196 0.12471 0.0
C1973 C 0.54844 0.79489 0.1433 0.0
C1974 C 0.48885 0.74135 0.16282 0.0
C1975 C 0.5149 0.76481 0.14291 0.0
C1976 C 0.47193 0.72666 0.16274 0.0
C1977 C 0.46342 0.71907 0.14325 0.0
C1978 C 0.49724 0.74882 0.14331 0.0
C1979 C 0.47258 0.72672 0.12406 0.0
C1980 C 0.51933 0.77691 0.12442 0.0
C1981 C 0.54348 0.78231 0.1614 0.0
N1982 N 0.4889 0.74123 0.12458 0.0
N1983 N 0.52709 0.76792 0.16077 0.0
loop_
_geom_bond_atom_site_label_1
_geom_bond_atom_site_label_2
_geom_bond_distance
_geom_bond_site_symmetry_2
_ccdc_geom_bond_type
Li0 N17 1.990 . S
Li0 O60 1.956 . S
Li0 O61 1.970 . S
Li0 O62 1.961 . S
Li1 N25 1.990 . S
Li1 O60 1.970 . S
Li1 O61 1.956 . S
Li1 O63 1.961 . S
Li2 N47 1.990 . S
Li2 O60 1.961 . S
Li2 O62 1.956 . S
Li2 O63 1.970 . S
Li3 N53 1.990 . S
Li3 O61 1.961 . S
Li3 O62 1.970 . S
Li3 O63 1.956 . S
C4 C6 1.348 . S
C4 C7 1.356 . S
C4 O60 1.325 . S
N5 C8 1.314 . S
N5 C9 1.279 . S
C6 C4 1.348 . S
C6 C8 1.353 . S
C6 H64 0.929 . S
C7 C4 1.356 . S
C7 C9 1.358 . S
C7 H65 0.930 . S
C8 N5 1.314 . S
C8 C6 1.353 . S
C8 H66 0.930 . S
C9 N5 1.279 . S
C9 C7 1.358 . S
C9 H67 0.930 . S
C10 C13 1.348 . S
C10 C14 1.356 . S
C10 O61 1.325 . S
C11 N12 1.279 . S
C11 C14 1.358 . S
C11 H68 0.930 . S
N12 C11 1.279 . S
N12 C15 1.314 . S
C13 C10 1.348 . S
C13 C15 1.353 . S
C13 H69 0.929 . S
C14 C10 1.356 . S
C14 C11 1.358 . S
C14 H70 0.930 . S
C15 N12 1.314 . S
C15 C13 1.353 . S
C15 H71 0.930 . S
C16 N17 1.314 . S
C16 C21 1.353 . S
C16 H22 0.930 . S
N17 Li0 1.990 . S
N17 C16 1.314 . S
N17 C19 1.279 . S
C18 C19 1.358 . S
C18 C20 1.356 . S
C18 H72 0.930 . S
C19 N17 1.279 . S
C19 C18 1.358 . S
C19 H23 0.930 . S
C20 C18 1.356 . S
C20 C21 1.348 . S
C21 C16 1.353 . S
C21 C20 1.348 . S
C21 H73 0.929 . S
H22 C16 0.930 . S
H23 C19 0.930 . S
C24 N25 1.314 . S
C24 C26 1.353 . S
C24 H30 0.930 . S
N25 Li1 1.990 . S
N25 C24 1.314 . S
N25 C28 1.279 . S
C26 C24 1.353 . S
C26 C29 1.348 . S
C26 H74 0.929 . S
C27 C28 1.358 . S
C27 C29 1.356 . S
C27 H75 0.930 . S
C28 N25 1.279 . S
C28 C27 1.358 . S
C28 H31 0.930 . S
C29 C26 1.348 . S
C29 C27 1.356 . S
H30 C24 0.930 . S
H31 C28 0.930 . S
C32 C34 1.348 . S
C32 C35 1.356 . S
C32 O62 1.325 . S
N33 C36 1.314 . S
N33 C37 1.279 . S
C34 C32 1.348 . S
C34 C36 1.353 . S
C34 H76 0.929 . S
C35 C32 1.356 . S
C35 C37 1.358 . S
C35 H77 0.930 . S
C36 N33 1.314 . S
C36 C34 1.353 . S
C36 H78 0.930 . S
C37 N33 1.279 . S
C37 C35 1.358 . S
C37 H79 0.930 . S
C38 C39 1.348 . S
C38 C40 1.356 . S
C38 O63 1.325 . S
C39 C38 1.348 . S
C39 C41 1.353 . S
C39 H80 0.929 . S
C40 C38 1.356 . S
C40 C42 1.358 . S
C40 H81 0.930 . S
C41 C39 1.353 . S
C41 N43 1.314 . S
C41 H82 0.930 . S
C42 C40 1.358 . S
C42 N43 1.279 . S
C42 H83 0.930 . S
N43 C41 1.314 . S
N43 C42 1.279 . S
C44 C46 1.353 . S
C44 N47 1.314 . S
C44 H50 0.930 . S
C45 N47 1.279 . S
C45 C48 1.358 . S
C45 H51 0.930 . S
C46 C44 1.353 . S
C46 C49 1.348 . S
C46 H84 0.929 . S
N47 Li2 1.990 . S
N47 C44 1.314 . S
N47 C45 1.279 . S
C48 C45 1.358 . S
C48 C49 1.356 . S
C48 H85 0.930 . S
C49 C46 1.348 . S
C49 C48 1.356 . S
H50 C44 0.930 . S
H51 C45 0.930 . S
C52 N53 1.314 . S
C52 C54 1.353 . S
C52 H58 0.930 . S
N53 Li3 1.990 . S
N53 C52 1.314 . S
N53 C56 1.279 . S
C54 C52 1.353 . S
C54 C57 1.348 . S
C54 H86 0.929 . S
C55 C56 1.358 . S
C55 C57 1.356 . S
C55 H87 0.930 . S
C56 N53 1.279 . S
C56 C55 1.358 . S
C56 H59 0.930 . S
C57 C54 1.348 . S
C57 C55 1.356 . S
H58 C52 0.930 . S
H59 C56 0.930 . S
O60 Li0 1.956 . S
O60 Li1 1.970 . S
O60 Li2 1.961 . S
O60 C4 1.325 . S
O61 Li0 1.970 . S
O61 Li1 1.956 . S
O61 Li3 1.961 . S
O61 C10 1.325 . S
O62 Li0 1.961 . S
O62 Li2 1.956 . S
O62 Li3 1.970 . S
O62 C32 1.325 . S
O63 Li1 1.961 . S
O63 Li2 1.970 . S
O63 Li3 1.956 . S
O63 C38 1.325 . S
H64 C6 0.929 . S
H65 C7 0.930 . S
H66 C8 0.930 . S
H67 C9 0.930 . S
H68 C11 0.930 . S
H69 C13 0.929 . S
H70 C14 0.930 . S
H71 C15 0.930 . S
H72 C18 0.930 . S
H73 C21 0.929 . S
H74 C26 0.929 . S
H75 C27 0.930 . S
H76 C34 0.929 . S
H77 C35 0.930 . S
H78 C36 0.930 . S
H79 C37 0.930 . S
H80 C39 0.929 . S
H81 C40 0.930 . S
H82 C41 0.930 . S
H83 C42 0.930 . S
H84 C46 0.929 . S
H85 C48 0.930 . S
H86 C54 0.929 . S
H87 C55 0.930 . S
Li88 N105 1.990 . S
Li88 O148 1.956 . S
Li88 O149 1.970 . S
Li88 O150 1.961 . S
Li89 N113 1.990 . S
Li89 O148 1.970 . S
Li89 O149 1.956 . S
Li89 O151 1.961 . S
Li90 N135 1.990 . S
Li90 O148 1.961 . S
Li90 O150 1.956 . S
Li90 O151 1.970 . S
Li91 N141 1.990 . S
Li91 O149 1.961 . S
Li91 O150 1.970 . S
Li91 O151 1.956 . S
C92 C94 1.348 . S
C92 C95 1.356 . S
C92 O148 1.325 . S
N93 C96 1.314 . S
N93 C97 1.279 . S
C94 C92 1.348 . S
C94 C96 1.353 . S
C94 H152 0.929 . S
C95 C92 1.356 . S
C95 C97 1.358 . S
C95 H153 0.930 . S
C96 N93 1.314 . S
C96 C94 1.353 . S
C96 H154 0.930 . S
C97 N93 1.279 . S
C97 C95 1.358 . S
C97 H155 0.930 . S
C98 C101 1.348 . S
C98 C102 1.356 . S
C98 O149 1.325 . S
C99 N100 1.279 . S
C99 C102 1.358 . S
C99 H156 0.930 . S
N100 C99 1.279 . S
N100 C103 1.314 . S
C101 C98 1.348 . S
C101 C103 1.353 . S
C101 H157 0.929 . S
C102 C98 1.356 . S
C102 C99 1.358 . S
C102 H158 0.930 . S
C103 N100 1.314 . S
C103 C101 1.353 . S
C103 H159 0.930 . S
C104 N105 1.314 . S
C104 C109 1.353 . S
C104 H110 0.930 . S
N105 Li88 1.990 . S
N105 C104 1.314 . S
N105 C107 1.279 . S
C106 C107 1.358 . S
C106 C108 1.356 . S
C106 H160 0.930 . S
C107 N105 1.279 . S
C107 C106 1.358 . S
C107 H111 0.930 . S
C108 C106 1.356 . S
C108 C109 1.348 . S
C109 C104 1.353 . S
C109 C108 1.348 . S
C109 H161 0.929 . S
H110 C104 0.930 . S
H111 C107 0.930 . S
C112 N113 1.314 . S
C112 C114 1.353 . S
C112 H118 0.930 . S
N113 Li89 1.990 . S
N113 C112 1.314 . S
N113 C116 1.279 . S
C114 C112 1.353 . S
C114 C117 1.348 . S
C114 H162 0.929 . S
C115 C116 1.358 . S
C115 C117 1.356 . S
C115 H163 0.930 . S
C116 N113 1.279 . S
C116 C115 1.358 . S
C116 H119 0.930 . S
C117 C114 1.348 . S
C117 C115 1.356 . S
H118 C112 0.930 . S
H119 C116 0.930 . S
C120 C122 1.348 . S
C120 C123 1.356 . S
C120 O150 1.325 . S
N121 C124 1.314 . S
N121 C125 1.279 . S
C122 C120 1.348 . S
C122 C124 1.353 . S
C122 H164 0.929 . S
C123 C120 1.356 . S
C123 C125 1.358 . S
C123 H165 0.930 . S
C124 N121 1.314 . S
C124 C122 1.353 . S
C124 H166 0.930 . S
C125 N121 1.279 . S
C125 C123 1.358 . S
C125 H167 0.930 . S
C126 C127 1.348 . S
C126 C128 1.356 . S
C126 O151 1.325 . S
C127 C126 1.348 . S
C127 C129 1.353 . S
C127 H168 0.929 . S
C128 C126 1.356 . S
C128 C130 1.358 . S
C128 H169 0.930 . S
C129 C127 1.353 . S
C129 N131 1.314 . S
C129 H170 0.930 . S
C130 C128 1.358 . S
C130 N131 1.279 . S
C130 H171 0.930 . S
N131 C129 1.314 . S
N131 C130 1.279 . S
C132 C134 1.353 . S
C132 N135 1.314 . S
C132 H138 0.930 . S
C133 N135 1.279 . S
C133 C136 1.358 . S
C133 H139 0.930 . S
C134 C132 1.353 . S
C134 C137 1.348 . S
C134 H172 0.929 . S
N135 Li90 1.990 . S
N135 C132 1.314 . S
N135 C133 1.279 . S
C136 C133 1.358 . S
C136 C137 1.356 . S
C136 H173 0.930 . S
C137 C134 1.348 . S
C137 C136 1.356 . S
H138 C132 0.930 . S
H139 C133 0.930 . S
C140 N141 1.314 . S
C140 C142 1.353 . S
C140 H146 0.930 . S
N141 Li91 1.990 . S
N141 C140 1.314 . S
N141 C144 1.279 . S
C142 C140 1.353 . S
C142 C145 1.348 . S
C142 H174 0.929 . S
C143 C144 1.358 . S
C143 C145 1.356 . S
C143 H175 0.930 . S
C144 N141 1.279 . S
C144 C143 1.358 . S
C144 H147 0.930 . S
C145 C142 1.348 . S
C145 C143 1.356 . S
H146 C140 0.930 . S
H147 C144 0.930 . S
O148 Li88 1.956 . S
O148 Li89 1.970 . S
O148 Li90 1.961 . S
O148 C92 1.325 . S
O149 Li88 1.970 . S
O149 Li89 1.956 . S
O149 Li91 1.961 . S
O149 C98 1.325 . S
O150 Li88 1.961 . S
O150 Li90 1.956 . S
O150 Li91 1.970 . S
O150 C120 1.325 . S
O151 Li89 1.961 . S
O151 Li90 1.970 . S
O151 Li91 1.956 . S
O151 C126 1.325 . S
H152 C94 0.929 . S
H153 C95 0.930 . S
H154 C96 0.930 . S
H155 C97 0.930 . S
H156 C99 0.930 . S
H157 C101 0.929 . S
H158 C102 0.930 . S
H159 C103 0.930 . S
H160 C106 0.930 . S
H161 C109 0.929 . S
H162 C114 0.929 . S
H163 C115 0.930 . S
H164 C122 0.929 . S
H165 C123 0.930 . S
H166 C124 0.930 . S
H167 C125 0.930 . S
H168 C127 0.929 . S
H169 C128 0.930 . S
H170 C129 0.930 . S
H171 C130 0.930 . S
H172 C134 0.929 . S
H173 C136 0.930 . S
H174 C142 0.929 . S
H175 C143 0.930 . S
Li176 N193 1.990 . S
Li176 O236 1.956 . S
Li176 O237 1.970 . S
Li176 O238 1.961 . S
Li177 N201 1.990 . S
Li177 O236 1.970 . S
Li177 O237 1.956 . S
Li177 O239 1.961 . S
Li178 N223 1.990 . S
Li178 O236 1.961 . S
Li178 O238 1.956 . S
Li178 O239 1.970 . S
Li179 N229 1.990 . S
Li179 O237 1.961 . S
Li179 O238 1.970 . S
Li179 O239 1.956 . S
C180 C182 1.348 . S
C180 C183 1.356 . S
C180 O236 1.325 . S
N181 C184 1.314 . S
N181 C185 1.279 . S
C182 C180 1.348 . S
C182 C184 1.353 . S
C182 H240 0.929 . S
C183 C180 1.356 . S
C183 C185 1.358 . S
C183 H241 0.930 . S
C184 N181 1.314 . S
C184 C182 1.353 . S
C184 H242 0.930 . S
C185 N181 1.279 . S
C185 C183 1.358 . S
C185 H243 0.930 . S
C186 C189 1.348 . S
C186 C190 1.356 . S
C186 O237 1.325 . S
C187 N188 1.279 . S
C187 C190 1.358 . S
C187 H244 0.930 . S
N188 C187 1.279 . S
N188 C191 1.314 . S
C189 C186 1.348 . S
C189 C191 1.353 . S
C189 H245 0.929 . S
C190 C186 1.356 . S
C190 C187 1.358 . S
C190 H246 0.930 . S
C191 N188 1.314 . S
C191 C189 1.353 . S
C191 H247 0.930 . S
C192 N193 1.314 . S
C192 C197 1.353 . S
C192 H198 0.930 . S
N193 Li176 1.990 . S
N193 C192 1.314 . S
N193 C195 1.279 . S
C194 C195 1.358 . S
C194 C196 1.356 . S
C194 H248 0.930 . S
C195 N193 1.279 . S
C195 C194 1.358 . S
C195 H199 0.930 . S
C196 C194 1.356 . S
C196 C197 1.348 . S
C197 C192 1.353 . S
C197 C196 1.348 . S
C197 H249 0.929 . S
H198 C192 0.930 . S
H199 C195 0.930 . S
C200 N201 1.314 . S
C200 C202 1.353 . S
C200 H206 0.930 . S
N201 Li177 1.990 . S
N201 C200 1.314 . S
N201 C204 1.279 . S
C202 C200 1.353 . S
C202 C205 1.348 . S
C202 H250 0.929 . S
C203 C204 1.358 . S
C203 C205 1.356 . S
C203 H251 0.930 . S
C204 N201 1.279 . S
C204 C203 1.358 . S
C204 H207 0.930 . S
C205 C202 1.348 . S
C205 C203 1.356 . S
H206 C200 0.930 . S
H207 C204 0.930 . S
C208 C210 1.348 . S
C208 C211 1.356 . S
C208 O238 1.325 . S
N209 C212 1.314 . S
N209 C213 1.279 . S
C210 C208 1.348 . S
C210 C212 1.353 . S
C210 H252 0.929 . S
C211 C208 1.356 . S
C211 C213 1.358 . S
C211 H253 0.930 . S
C212 N209 1.314 . S
C212 C210 1.353 . S
C212 H254 0.930 . S
C213 N209 1.279 . S
C213 C211 1.358 . S
C213 H255 0.930 . S
C214 C215 1.348 . S
C214 C216 1.356 . S
C214 O239 1.325 . S
C215 C214 1.348 . S
C215 C217 1.353 . S
C215 H256 0.929 . S
C216 C214 1.356 . S
C216 C218 1.358 . S
C216 H257 0.930 . S
C217 C215 1.353 . S
C217 N219 1.314 . S
C217 H258 0.930 . S
C218 C216 1.358 . S
C218 N219 1.279 . S
C218 H259 0.930 . S
N219 C217 1.314 . S
N219 C218 1.279 . S
C220 C222 1.353 . S
C220 N223 1.314 . S
C220 H226 0.930 . S
C221 N223 1.279 . S
C221 C224 1.358 . S
C221 H227 0.930 . S
C222 C220 1.353 . S
C222 C225 1.348 . S
C222 H260 0.929 . S
N223 Li178 1.990 . S
N223 C220 1.314 . S
N223 C221 1.279 . S
C224 C221 1.358 . S
C224 C225 1.356 . S
C224 H261 0.930 . S
C225 C222 1.348 . S
C225 C224 1.356 . S
H226 C220 0.930 . S
H227 C221 0.930 . S
C228 N229 1.314 . S
C228 C230 1.353 . S
C228 H234 0.930 . S
N229 Li179 1.990 . S
N229 C228 1.314 . S
N229 C232 1.279 . S
C230 C228 1.353 . S
C230 C233 1.348 . S
C230 H262 0.929 . S
C231 C232 1.358 . S
C231 C233 1.356 . S
C231 H263 0.930 . S
C232 N229 1.279 . S
C232 C231 1.358 . S
C232 H235 0.930 . S
C233 C230 1.348 . S
C233 C231 1.356 . S
H234 C228 0.930 . S
H235 C232 0.930 . S
O236 Li176 1.956 . S
O236 Li177 1.970 . S
O236 Li178 1.961 . S
O236 C180 1.325 . S
O237 Li176 1.970 . S
O237 Li177 1.956 . S
O237 Li179 1.961 . S
O237 C186 1.325 . S
O238 Li176 1.961 . S
O238 Li178 1.956 . S
O238 Li179 1.970 . S
O238 C208 1.325 . S
O239 Li177 1.961 . S
O239 Li178 1.970 . S
O239 Li179 1.956 . S
O239 C214 1.325 . S
H240 C182 0.929 . S
H241 C183 0.930 . S
H242 C184 0.930 . S
H243 C185 0.930 . S
H244 C187 0.930 . S
H245 C189 0.929 . S
H246 C190 0.930 . S
H247 C191 0.930 . S
H248 C194 0.930 . S
H249 C197 0.929 . S
H250 C202 0.929 . S
H251 C203 0.930 . S
H252 C210 0.929 . S
H253 C211 0.930 . S
H254 C212 0.930 . S
H255 C213 0.930 . S
H256 C215 0.929 . S
H257 C216 0.930 . S
H258 C217 0.930 . S
H259 C218 0.930 . S
H260 C222 0.929 . S
H261 C224 0.930 . S
H262 C230 0.929 . S
H263 C231 0.930 . S
Li264 N281 1.990 . S
Li264 O324 1.956 . S
Li264 O325 1.970 . S
Li264 O326 1.961 . S
Li265 N289 1.990 . S
Li265 O324 1.970 . S
Li265 O325 1.956 . S
Li265 O327 1.961 . S
Li266 N311 1.990 . S
Li266 O324 1.961 . S
Li266 O326 1.956 . S
Li266 O327 1.970 . S
Li267 N317 1.990 . S
Li267 O325 1.961 . S
Li267 O326 1.970 . S
Li267 O327 1.956 . S
C268 C270 1.348 . S
C268 C271 1.356 . S
C268 O324 1.325 . S
N269 C272 1.314 . S
N269 C273 1.279 . S
C270 C268 1.348 . S
C270 C272 1.353 . S
C270 H328 0.929 . S
C271 C268 1.356 . S
C271 C273 1.358 . S
C271 H329 0.930 . S
C272 N269 1.314 . S
C272 C270 1.353 . S
C272 H330 0.930 . S
C273 N269 1.279 . S
C273 C271 1.358 . S
C273 H331 0.930 . S
C274 C277 1.348 . S
C274 C278 1.356 . S
C274 O325 1.325 . S
C275 N276 1.279 . S
C275 C278 1.358 . S
C275 H332 0.930 . S
N276 C275 1.279 . S
N276 C279 1.314 . S
C277 C274 1.348 . S
C277 C279 1.353 . S
C277 H333 0.929 . S
C278 C274 1.356 . S
C278 C275 1.358 . S
C278 H334 0.930 . S
C279 N276 1.314 . S
C279 C277 1.353 . S
C279 H335 0.930 . S
C280 N281 1.314 . S
C280 C285 1.353 . S
C280 H286 0.930 . S
N281 Li264 1.990 . S
N281 C280 1.314 . S
N281 C283 1.279 . S
C282 C283 1.358 . S
C282 C284 1.356 . S
C282 H336 0.930 . S
C283 N281 1.279 . S
C283 C282 1.358 . S
C283 H287 0.930 . S
C284 C282 1.356 . S
C284 C285 1.348 . S
C285 C280 1.353 . S
C285 C284 1.348 . S
C285 H337 0.929 . S
H286 C280 0.930 . S
H287 C283 0.930 . S
C288 N289 1.314 . S
C288 C290 1.353 . S
C288 H294 0.930 . S
N289 Li265 1.990 . S
N289 C288 1.314 . S
N289 C292 1.279 . S
C290 C288 1.353 . S
C290 C293 1.348 . S
C290 H338 0.929 . S
C291 C292 1.358 . S
C291 C293 1.356 . S
C291 H339 0.930 . S
C292 N289 1.279 . S
C292 C291 1.358 . S
C292 H295 0.930 . S
C293 C290 1.348 . S
C293 C291 1.356 . S
H294 C288 0.930 . S
H295 C292 0.930 . S
C296 C298 1.348 . S
C296 C299 1.356 . S
C296 O326 1.325 . S
N297 C300 1.314 . S
N297 C301 1.279 . S
C298 C296 1.348 . S
C298 C300 1.353 . S
C298 H340 0.929 . S
C299 C296 1.356 . S
C299 C301 1.358 . S
C299 H341 0.930 . S
C300 N297 1.314 . S
C300 C298 1.353 . S
C300 H342 0.930 . S
C301 N297 1.279 . S
C301 C299 1.358 . S
C301 H343 0.930 . S
C302 C303 1.348 . S
C302 C304 1.356 . S
C302 O327 1.325 . S
C303 C302 1.348 . S
C303 C305 1.353 . S
C303 H344 0.929 . S
C304 C302 1.356 . S
C304 C306 1.358 . S
C304 H345 0.930 . S
C305 C303 1.353 . S
C305 N307 1.314 . S
C305 H346 0.930 . S
C306 C304 1.358 . S
C306 N307 1.279 . S
C306 H347 0.930 . S
N307 C305 1.314 . S
N307 C306 1.279 . S
C308 C310 1.353 . S
C308 N311 1.314 . S
C308 H314 0.930 . S
C309 N311 1.279 . S
C309 C312 1.358 . S
C309 H315 0.930 . S
C310 C308 1.353 . S
C310 C313 1.348 . S
C310 H348 0.929 . S
N311 Li266 1.990 . S
N311 C308 1.314 . S
N311 C309 1.279 . S
C312 C309 1.358 . S
C312 C313 1.356 . S
C312 H349 0.930 . S
C313 C310 1.348 . S
C313 C312 1.356 . S
H314 C308 0.930 . S
H315 C309 0.930 . S
C316 N317 1.314 . S
C316 C318 1.353 . S
C316 H322 0.930 . S
N317 Li267 1.990 . S
N317 C316 1.314 . S
N317 C320 1.279 . S
C318 C316 1.353 . S
C318 C321 1.348 . S
C318 H350 0.929 . S
C319 C320 1.358 . S
C319 C321 1.356 . S
C319 H351 0.930 . S
C320 N317 1.279 . S
C320 C319 1.358 . S
C320 H323 0.930 . S
C321 C318 1.348 . S
C321 C319 1.356 . S
H322 C316 0.930 . S
H323 C320 0.930 . S
O324 Li264 1.956 . S
O324 Li265 1.970 . S
O324 Li266 1.961 . S
O324 C268 1.325 . S
O325 Li264 1.970 . S
O325 Li265 1.956 . S
O325 Li267 1.961 . S
O325 C274 1.325 . S
O326 Li264 1.961 . S
O326 Li266 1.956 . S
O326 Li267 1.970 . S
O326 C296 1.325 . S
O327 Li265 1.961 . S
O327 Li266 1.970 . S
O327 Li267 1.956 . S
O327 C302 1.325 . S
H328 C270 0.929 . S
H329 C271 0.930 . S
H330 C272 0.930 . S
H331 C273 0.930 . S
H332 C275 0.930 . S
H333 C277 0.929 . S
H334 C278 0.930 . S
H335 C279 0.930 . S
H336 C282 0.930 . S
H337 C285 0.929 . S
H338 C290 0.929 . S
H339 C291 0.930 . S
H340 C298 0.929 . S
H341 C299 0.930 . S
H342 C300 0.930 . S
H343 C301 0.930 . S
H344 C303 0.929 . S
H345 C304 0.930 . S
H346 C305 0.930 . S
H347 C306 0.930 . S
H348 C310 0.929 . S
H349 C312 0.930 . S
H350 C318 0.929 . S
H351 C319 0.930 . S
Li352 N369 1.990 . S
Li352 O412 1.956 . S
Li352 O413 1.970 . S
Li352 O414 1.961 . S
Li353 N377 1.990 . S
Li353 O412 1.970 . S
Li353 O413 1.956 . S
Li353 O415 1.961 . S
Li354 N399 1.990 . S
Li354 O412 1.961 . S
Li354 O414 1.956 . S
Li354 O415 1.970 . S
Li355 N405 1.990 . S
Li355 O413 1.961 . S
Li355 O414 1.970 . S
Li355 O415 1.956 . S
C356 C358 1.348 . S
C356 C359 1.356 . S
C356 O412 1.325 . S
N357 C360 1.314 . S
N357 C361 1.279 . S
C358 C356 1.348 . S
C358 C360 1.353 . S
C358 H416 0.929 . S
C359 C356 1.356 . S
C359 C361 1.358 . S
C359 H417 0.930 . S
C360 N357 1.314 . S
C360 C358 1.353 . S
C360 H418 0.930 . S
C361 N357 1.279 . S
C361 C359 1.358 . S
C361 H419 0.930 . S
C362 C365 1.348 . S
C362 C366 1.356 . S
C362 O413 1.325 . S
C363 N364 1.279 . S
C363 C366 1.358 . S
C363 H420 0.930 . S
N364 C363 1.279 . S
N364 C367 1.314 . S
C365 C362 1.348 . S
C365 C367 1.353 . S
C365 H421 0.929 . S
C366 C362 1.356 . S
C366 C363 1.358 . S
C366 H422 0.930 . S
C367 N364 1.314 . S
C367 C365 1.353 . S
C367 H423 0.930 . S
C368 N369 1.314 . S
C368 C373 1.353 . S
C368 H374 0.930 . S
N369 Li352 1.990 . S
N369 C368 1.314 . S
N369 C371 1.279 . S
C370 C371 1.358 . S
C370 C372 1.356 . S
C370 H424 0.930 . S
C371 N369 1.279 . S
C371 C370 1.358 . S
C371 H375 0.930 . S
C372 C370 1.356 . S
C372 C373 1.348 . S
C373 C368 1.353 . S
C373 C372 1.348 . S
C373 H425 0.929 . S
H374 C368 0.930 . S
H375 C371 0.930 . S
C376 N377 1.314 . S
C376 C378 1.353 . S
C376 H382 0.930 . S
N377 Li353 1.990 . S
N377 C376 1.314 . S
N377 C380 1.279 . S
C378 C376 1.353 . S
C378 C381 1.348 . S
C378 H426 0.929 . S
C379 C380 1.358 . S
C379 C381 1.356 . S
C379 H427 0.930 . S
C380 N377 1.279 . S
C380 C379 1.358 . S
C380 H383 0.930 . S
C381 C378 1.348 . S
C381 C379 1.356 . S
H382 C376 0.930 . S
H383 C380 0.930 . S
C384 C386 1.348 . S
C384 C387 1.356 . S
C384 O414 1.325 . S
N385 C388 1.314 . S
N385 C389 1.279 . S
C386 C384 1.348 . S
C386 C388 1.353 . S
C386 H428 0.929 . S
C387 C384 1.356 . S
C387 C389 1.358 . S
C387 H429 0.930 . S
C388 N385 1.314 . S
C388 C386 1.353 . S
C388 H430 0.930 . S
C389 N385 1.279 . S
C389 C387 1.358 . S
C389 H431 0.930 . S
C390 C391 1.348 . S
C390 C392 1.356 . S
C390 O415 1.325 . S
C391 C390 1.348 . S
C391 C393 1.353 . S
C391 H432 0.929 . S
C392 C390 1.356 . S
C392 C394 1.358 . S
C392 H433 0.930 . S
C393 C391 1.353 . S
C393 N395 1.314 . S
C393 H434 0.930 . S
C394 C392 1.358 . S
C394 N395 1.279 . S
C394 H435 0.930 . S
N395 C393 1.314 . S
N395 C394 1.279 . S
C396 C398 1.353 . S
C396 N399 1.314 . S
C396 H402 0.930 . S
C397 N399 1.279 . S
C397 C400 1.358 . S
C397 H403 0.930 . S
C398 C396 1.353 . S
C398 C401 1.348 . S
C398 H436 0.929 . S
N399 Li354 1.990 . S
N399 C396 1.314 . S
N399 C397 1.279 . S
C400 C397 1.358 . S
C400 C401 1.356 . S
C400 H437 0.930 . S
C401 C398 1.348 . S
C401 C400 1.356 . S
H402 C396 0.930 . S
H403 C397 0.930 . S
C404 N405 1.314 . S
C404 C406 1.353 . S
C404 H410 0.930 . S
N405 Li355 1.990 . S
N405 C404 1.314 . S
N405 C408 1.279 . S
C406 C404 1.353 . S
C406 C409 1.348 . S
C406 H438 0.929 . S
C407 C408 1.358 . S
C407 C409 1.356 . S
C407 H439 0.930 . S
C408 N405 1.279 . S
C408 C407 1.358 . S
C408 H411 0.930 . S
C409 C406 1.348 . S
C409 C407 1.356 . S
H410 C404 0.930 . S
H411 C408 0.930 . S
O412 Li352 1.956 . S
O412 Li353 1.970 . S
O412 Li354 1.961 . S
O412 C356 1.325 . S
O413 Li352 1.970 . S
O413 Li353 1.956 . S
O413 Li355 1.961 . S
O413 C362 1.325 . S
O414 Li352 1.961 . S
O414 Li354 1.956 . S
O414 Li355 1.970 . S
O414 C384 1.325 . S
O415 Li353 1.961 . S
O415 Li354 1.970 . S
O415 Li355 1.956 . S
O415 C390 1.325 . S
H416 C358 0.929 . S
H417 C359 0.930 . S
H418 C360 0.930 . S
H419 C361 0.930 . S
H420 C363 0.930 . S
H421 C365 0.929 . S
H422 C366 0.930 . S
H423 C367 0.930 . S
H424 C370 0.930 . S
H425 C373 0.929 . S
H426 C378 0.929 . S
H427 C379 0.930 . S
H428 C386 0.929 . S
H429 C387 0.930 . S
H430 C388 0.930 . S
H431 C389 0.930 . S
H432 C391 0.929 . S
H433 C392 0.930 . S
H434 C393 0.930 . S
H435 C394 0.930 . S
H436 C398 0.929 . S
H437 C400 0.930 . S
H438 C406 0.929 . S
H439 C407 0.930 . S
Li440 N457 1.990 . S
Li440 O500 1.956 . S
Li440 O501 1.970 . S
Li440 O502 1.961 . S
Li441 N465 1.990 . S
Li441 O500 1.970 . S
Li441 O501 1.956 . S
Li441 O503 1.961 . S
Li442 N487 1.990 . S
Li442 O500 1.961 . S
Li442 O502 1.956 . S
Li442 O503 1.970 . S
Li443 N493 1.990 . S
Li443 O501 1.961 . S
Li443 O502 1.970 . S
Li443 O503 1.956 . S
C444 C446 1.348 . S
C444 C447 1.356 . S
C444 O500 1.325 . S
N445 C448 1.314 . S
N445 C449 1.279 . S
C446 C444 1.348 . S
C446 C448 1.353 . S
C446 H504 0.929 . S
C447 C444 1.356 . S
C447 C449 1.358 . S
C447 H505 0.930 . S
C448 N445 1.314 . S
C448 C446 1.353 . S
C448 H506 0.930 . S
C449 N445 1.279 . S
C449 C447 1.358 . S
C449 H507 0.930 . S
C450 C453 1.348 . S
C450 C454 1.356 . S
C450 O501 1.325 . S
C451 N452 1.279 . S
C451 C454 1.358 . S
C451 H508 0.930 . S
N452 C451 1.279 . S
N452 C455 1.314 . S
C453 C450 1.348 . S
C453 C455 1.353 . S
C453 H509 0.929 . S
C454 C450 1.356 . S
C454 C451 1.358 . S
C454 H510 0.930 . S
C455 N452 1.314 . S
C455 C453 1.353 . S
C455 H511 0.930 . S
C456 N457 1.314 . S
C456 C461 1.353 . S
C456 H462 0.930 . S
N457 Li440 1.990 . S
N457 C456 1.314 . S
N457 C459 1.279 . S
C458 C459 1.358 . S
C458 C460 1.356 . S
C458 H512 0.930 . S
C459 N457 1.279 . S
C459 C458 1.358 . S
C459 H463 0.930 . S
C460 C458 1.356 . S
C460 C461 1.348 . S
C461 C456 1.353 . S
C461 C460 1.348 . S
C461 H513 0.929 . S
H462 C456 0.930 . S
H463 C459 0.930 . S
C464 N465 1.314 . S
C464 C466 1.353 . S
C464 H470 0.930 . S
N465 Li441 1.990 . S
N465 C464 1.314 . S
N465 C468 1.279 . S
C466 C464 1.353 . S
C466 C469 1.348 . S
C466 H514 0.929 . S
C467 C468 1.358 . S
C467 C469 1.356 . S
C467 H515 0.930 . S
C468 N465 1.279 . S
C468 C467 1.358 . S
C468 H471 0.930 . S
C469 C466 1.348 . S
C469 C467 1.356 . S
H470 C464 0.930 . S
H471 C468 0.930 . S
C472 C474 1.348 . S
C472 C475 1.356 . S
C472 O502 1.325 . S
N473 C476 1.314 . S
N473 C477 1.279 . S
C474 C472 1.348 . S
C474 C476 1.353 . S
C474 H516 0.929 . S
C475 C472 1.356 . S
C475 C477 1.358 . S
C475 H517 0.930 . S
C476 N473 1.314 . S
C476 C474 1.353 . S
C476 H518 0.930 . S
C477 N473 1.279 . S
C477 C475 1.358 . S
C477 H519 0.930 . S
C478 C479 1.348 . S
C478 C480 1.356 . S
C478 O503 1.325 . S
C479 C478 1.348 . S
C479 C481 1.353 . S
C479 H520 0.929 . S
C480 C478 1.356 . S
C480 C482 1.358 . S
C480 H521 0.930 . S
C481 C479 1.353 . S
C481 N483 1.314 . S
C481 H522 0.930 . S
C482 C480 1.358 . S
C482 N483 1.279 . S
C482 H523 0.930 . S
N483 C481 1.314 . S
N483 C482 1.279 . S
C484 C486 1.353 . S
C484 N487 1.314 . S
C484 H490 0.930 . S
C485 N487 1.279 . S
C485 C488 1.358 . S
C485 H491 0.930 . S
C486 C484 1.353 . S
C486 C489 1.348 . S
C486 H524 0.929 . S
N487 Li442 1.990 . S
N487 C484 1.314 . S
N487 C485 1.279 . S
C488 C485 1.358 . S
C488 C489 1.356 . S
C488 H525 0.930 . S
C489 C486 1.348 . S
C489 C488 1.356 . S
H490 C484 0.930 . S
H491 C485 0.930 . S
C492 N493 1.314 . S
C492 C494 1.353 . S
C492 H498 0.930 . S
N493 Li443 1.990 . S
N493 C492 1.314 . S
N493 C496 1.279 . S
C494 C492 1.353 . S
C494 C497 1.348 . S
C494 H526 0.929 . S
C495 C496 1.358 . S
C495 C497 1.356 . S
C495 H527 0.930 . S
C496 N493 1.279 . S
C496 C495 1.358 . S
C496 H499 0.930 . S
C497 C494 1.348 . S
C497 C495 1.356 . S
H498 C492 0.930 . S
H499 C496 0.930 . S
O500 Li440 1.956 . S
O500 Li441 1.970 . S
O500 Li442 1.961 . S
O500 C444 1.325 . S
O501 Li440 1.970 . S
O501 Li441 1.956 . S
O501 Li443 1.961 . S
O501 C450 1.325 . S
O502 Li440 1.961 . S
O502 Li442 1.956 . S
O502 Li443 1.970 . S
O502 C472 1.325 . S
O503 Li441 1.961 . S
O503 Li442 1.970 . S
O503 Li443 1.956 . S
O503 C478 1.325 . S
H504 C446 0.929 . S
H505 C447 0.930 . S
H506 C448 0.930 . S
H507 C449 0.930 . S
H508 C451 0.930 . S
H509 C453 0.929 . S
H510 C454 0.930 . S
H511 C455 0.930 . S
H512 C458 0.930 . S
H513 C461 0.929 . S
H514 C466 0.929 . S
H515 C467 0.930 . S
H516 C474 0.929 . S
H517 C475 0.930 . S
H518 C476 0.930 . S
H519 C477 0.930 . S
H520 C479 0.929 . S
H521 C480 0.930 . S
H522 C481 0.930 . S
H523 C482 0.930 . S
H524 C486 0.929 . S
H525 C488 0.930 . S
H526 C494 0.929 . S
H527 C495 0.930 . S
Li528 N545 1.990 . S
Li528 O588 1.956 . S
Li528 O589 1.970 . S
Li528 O590 1.961 . S
Li529 N553 1.990 . S
Li529 O588 1.970 . S
Li529 O589 1.956 . S
Li529 O591 1.961 . S
Li530 N575 1.990 . S
Li530 O588 1.961 . S
Li530 O590 1.956 . S
Li530 O591 1.970 . S
Li531 N581 1.990 . S
Li531 O589 1.961 . S
Li531 O590 1.970 . S
Li531 O591 1.956 . S
C532 C534 1.348 . S
C532 C535 1.356 . S
C532 O588 1.325 . S
N533 C536 1.314 . S
N533 C537 1.279 . S
C534 C532 1.348 . S
C534 C536 1.353 . S
C534 H592 0.929 . S
C535 C532 1.356 . S
C535 C537 1.358 . S
C535 H593 0.930 . S
C536 N533 1.314 . S
C536 C534 1.353 . S
C536 H594 0.930 . S
C537 N533 1.279 . S
C537 C535 1.358 . S
C537 H595 0.930 . S
C538 C541 1.348 . S
C538 C542 1.356 . S
C538 O589 1.325 . S
C539 N540 1.279 . S
C539 C542 1.358 . S
C539 H596 0.930 . S
N540 C539 1.279 . S
N540 C543 1.314 . S
C541 C538 1.348 . S
C541 C543 1.353 . S
C541 H597 0.929 . S
C542 C538 1.356 . S
C542 C539 1.358 . S
C542 H598 0.930 . S
C543 N540 1.314 . S
C543 C541 1.353 . S
C543 H599 0.930 . S
C544 N545 1.314 . S
C544 C549 1.353 . S
C544 H550 0.930 . S
N545 Li528 1.990 . S
N545 C544 1.314 . S
N545 C547 1.279 . S
C546 C547 1.358 . S
C546 C548 1.356 . S
C546 H600 0.930 . S
C547 N545 1.279 . S
C547 C546 1.358 . S
C547 H551 0.930 . S
C548 C546 1.356 . S
C548 C549 1.348 . S
C549 C544 1.353 . S
C549 C548 1.348 . S
C549 H601 0.929 . S
H550 C544 0.930 . S
H551 C547 0.930 . S
C552 N553 1.314 . S
C552 C554 1.353 . S
C552 H558 0.930 . S
N553 Li529 1.990 . S
N553 C552 1.314 . S
N553 C556 1.279 . S
C554 C552 1.353 . S
C554 C557 1.348 . S
C554 H602 0.929 . S
C555 C556 1.358 . S
C555 C557 1.356 . S
C555 H603 0.930 . S
C556 N553 1.279 . S
C556 C555 1.358 . S
C556 H559 0.930 . S
C557 C554 1.348 . S
C557 C555 1.356 . S
H558 C552 0.930 . S
H559 C556 0.930 . S
C560 C562 1.348 . S
C560 C563 1.356 . S
C560 O590 1.325 . S
N561 C564 1.314 . S
N561 C565 1.279 . S
C562 C560 1.348 . S
C562 C564 1.353 . S
C562 H604 0.929 . S
C563 C560 1.356 . S
C563 C565 1.358 . S
C563 H605 0.930 . S
C564 N561 1.314 . S
C564 C562 1.353 . S
C564 H606 0.930 . S
C565 N561 1.279 . S
C565 C563 1.358 . S
C565 H607 0.930 . S
C566 C567 1.348 . S
C566 C568 1.356 . S
C566 O591 1.325 . S
C567 C566 1.348 . S
C567 C569 1.353 . S
C567 H608 0.929 . S
C568 C566 1.356 . S
C568 C570 1.358 . S
C568 H609 0.930 . S
C569 C567 1.353 . S
C569 N571 1.314 . S
C569 H610 0.930 . S
C570 C568 1.358 . S
C570 N571 1.279 . S
C570 H611 0.930 . S
N571 C569 1.314 . S
N571 C570 1.279 . S
C572 C574 1.353 . S
C572 N575 1.314 . S
C572 H578 0.930 . S
C573 N575 1.279 . S
C573 C576 1.358 . S
C573 H579 0.930 . S
C574 C572 1.353 . S
C574 C577 1.348 . S
C574 H612 0.929 . S
N575 Li530 1.990 . S
N575 C572 1.314 . S
N575 C573 1.279 . S
C576 C573 1.358 . S
C576 C577 1.356 . S
C576 H613 0.930 . S
C577 C574 1.348 . S
C577 C576 1.356 . S
H578 C572 0.930 . S
H579 C573 0.930 . S
C580 N581 1.314 . S
C580 C582 1.353 . S
C580 H586 0.930 . S
N581 Li531 1.990 . S
N581 C580 1.314 . S
N581 C584 1.279 . S
C582 C580 1.353 . S
C582 C585 1.348 . S
C582 H614 0.929 . S
C583 C584 1.358 . S
C583 C585 1.356 . S
C583 H615 0.930 . S
C584 N581 1.279 . S
C584 C583 1.358 . S
C584 H587 0.930 . S
C585 C582 1.348 . S
C585 C583 1.356 . S
H586 C580 0.930 . S
H587 C584 0.930 . S
O588 Li528 1.956 . S
O588 Li529 1.970 . S
O588 Li530 1.961 . S
O588 C532 1.325 . S
O589 Li528 1.970 . S
O589 Li529 1.956 . S
O589 Li531 1.961 . S
O589 C538 1.325 . S
O590 Li528 1.961 . S
O590 Li530 1.956 . S
O590 Li531 1.970 . S
O590 C560 1.325 . S
O591 Li529 1.961 . S
O591 Li530 1.970 . S
O591 Li531 1.956 . S
O591 C566 1.325 . S
H592 C534 0.929 . S
H593 C535 0.930 . S
H594 C536 0.930 . S
H595 C537 0.930 . S
H596 C539 0.930 . S
H597 C541 0.929 . S
H598 C542 0.930 . S
H599 C543 0.930 . S
H600 C546 0.930 . S
H601 C549 0.929 . S
H602 C554 0.929 . S
H603 C555 0.930 . S
H604 C562 0.929 . S
H605 C563 0.930 . S
H606 C564 0.930 . S
H607 C565 0.930 . S
H608 C567 0.929 . S
H609 C568 0.930 . S
H610 C569 0.930 . S
H611 C570 0.930 . S
H612 C574 0.929 . S
H613 C576 0.930 . S
H614 C582 0.929 . S
H615 C583 0.930 . S
Li616 N633 1.990 . S
Li616 O676 1.956 . S
Li616 O677 1.970 . S
Li616 O678 1.961 . S
Li617 N641 1.990 . S
Li617 O676 1.970 . S
Li617 O677 1.956 . S
Li617 O679 1.961 . S
Li618 N663 1.990 . S
Li618 O676 1.961 . S
Li618 O678 1.956 . S
Li618 O679 1.970 . S
Li619 N669 1.990 . S
Li619 O677 1.961 . S
Li619 O678 1.970 . S
Li619 O679 1.956 . S
C620 C622 1.348 . S
C620 C623 1.356 . S
C620 O676 1.325 . S
N621 C624 1.314 . S
N621 C625 1.279 . S
C622 C620 1.348 . S
C622 C624 1.353 . S
C622 H680 0.929 . S
C623 C620 1.356 . S
C623 C625 1.358 . S
C623 H681 0.930 . S
C624 N621 1.314 . S
C624 C622 1.353 . S
C624 H682 0.930 . S
C625 N621 1.279 . S
C625 C623 1.358 . S
C625 H683 0.930 . S
C626 C629 1.348 . S
C626 C630 1.356 . S
C626 O677 1.325 . S
C627 N628 1.279 . S
C627 C630 1.358 . S
C627 H684 0.930 . S
N628 C627 1.279 . S
N628 C631 1.314 . S
C629 C626 1.348 . S
C629 C631 1.353 . S
C629 H685 0.929 . S
C630 C626 1.356 . S
C630 C627 1.358 . S
C630 H686 0.930 . S
C631 N628 1.314 . S
C631 C629 1.353 . S
C631 H687 0.930 . S
C632 N633 1.314 . S
C632 C637 1.353 . S
C632 H638 0.930 . S
N633 Li616 1.990 . S
N633 C632 1.314 . S
N633 C635 1.279 . S
C634 C635 1.358 . S
C634 C636 1.356 . S
C634 H688 0.930 . S
C635 N633 1.279 . S
C635 C634 1.358 . S
C635 H639 0.930 . S
C636 C634 1.356 . S
C636 C637 1.348 . S
C637 C632 1.353 . S
C637 C636 1.348 . S
C637 H689 0.929 . S
H638 C632 0.930 . S
H639 C635 0.930 . S
C640 N641 1.314 . S
C640 C642 1.353 . S
C640 H646 0.930 . S
N641 Li617 1.990 . S
N641 C640 1.314 . S
N641 C644 1.279 . S
C642 C640 1.353 . S
C642 C645 1.348 . S
C642 H690 0.929 . S
C643 C644 1.358 . S
C643 C645 1.356 . S
C643 H691 0.930 . S
C644 N641 1.279 . S
C644 C643 1.358 . S
C644 H647 0.930 . S
C645 C642 1.348 . S
C645 C643 1.356 . S
H646 C640 0.930 . S
H647 C644 0.930 . S
C648 C650 1.348 . S
C648 C651 1.356 . S
C648 O678 1.325 . S
N649 C652 1.314 . S
N649 C653 1.279 . S
C650 C648 1.348 . S
C650 C652 1.353 . S
C650 H692 0.929 . S
C651 C648 1.356 . S
C651 C653 1.358 . S
C651 H693 0.930 . S
C652 N649 1.314 . S
C652 C650 1.353 . S
C652 H694 0.930 . S
C653 N649 1.279 . S
C653 C651 1.358 . S
C653 H695 0.930 . S
C654 C655 1.348 . S
C654 C656 1.356 . S
C654 O679 1.325 . S
C655 C654 1.348 . S
C655 C657 1.353 . S
C655 H696 0.929 . S
C656 C654 1.356 . S
C656 C658 1.358 . S
C656 H697 0.930 . S
C657 C655 1.353 . S
C657 N659 1.314 . S
C657 H698 0.930 . S
C658 C656 1.358 . S
C658 N659 1.279 . S
C658 H699 0.930 . S
N659 C657 1.314 . S
N659 C658 1.279 . S
C660 C662 1.353 . S
C660 N663 1.314 . S
C660 H666 0.930 . S
C661 N663 1.279 . S
C661 C664 1.358 . S
C661 H667 0.930 . S
C662 C660 1.353 . S
C662 C665 1.348 . S
C662 H700 0.929 . S
N663 Li618 1.990 . S
N663 C660 1.314 . S
N663 C661 1.279 . S
C664 C661 1.358 . S
C664 C665 1.356 . S
C664 H701 0.930 . S
C665 C662 1.348 . S
C665 C664 1.356 . S
H666 C660 0.930 . S
H667 C661 0.930 . S
C668 N669 1.314 . S
C668 C670 1.353 . S
C668 H674 0.930 . S
N669 Li619 1.990 . S
N669 C668 1.314 . S
N669 C672 1.279 . S
C670 C668 1.353 . S
C670 C673 1.348 . S
C670 H702 0.929 . S
C671 C672 1.358 . S
C671 C673 1.356 . S
C671 H703 0.930 . S
C672 N669 1.279 . S
C672 C671 1.358 . S
C672 H675 0.930 . S
C673 C670 1.348 . S
C673 C671 1.356 . S
H674 C668 0.930 . S
H675 C672 0.930 . S
O676 Li616 1.956 . S
O676 Li617 1.970 . S
O676 Li618 1.961 . S
O676 C620 1.325 . S
O677 Li616 1.970 . S
O677 Li617 1.956 . S
O677 Li619 1.961 . S
O677 C626 1.325 . S
O678 Li616 1.961 . S
O678 Li618 1.956 . S
O678 Li619 1.970 . S
O678 C648 1.325 . S
O679 Li617 1.961 . S
O679 Li618 1.970 . S
O679 Li619 1.956 . S
O679 C654 1.325 . S
H680 C622 0.929 . S
H681 C623 0.930 . S
H682 C624 0.930 . S
H683 C625 0.930 . S
H684 C627 0.930 . S
H685 C629 0.929 . S
H686 C630 0.930 . S
H687 C631 0.930 . S
H688 C634 0.930 . S
H689 C637 0.929 . S
H690 C642 0.929 . S
H691 C643 0.930 . S
H692 C650 0.929 . S
H693 C651 0.930 . S
H694 C652 0.930 . S
H695 C653 0.930 . S
H696 C655 0.929 . S
H697 C656 0.930 . S
H698 C657 0.930 . S
H699 C658 0.930 . S
H700 C662 0.929 . S
H701 C664 0.930 . S
H702 C670 0.929 . S
H703 C671 0.930 . S
Li704 N721 1.990 . S
Li704 O764 1.956 . S
Li704 O765 1.970 . S
Li704 O766 1.961 . S
Li705 N729 1.990 . S
Li705 O764 1.970 . S
Li705 O765 1.956 . S
Li705 O767 1.961 . S
Li706 N751 1.990 . S
Li706 O764 1.961 . S
Li706 O766 1.956 . S
Li706 O767 1.970 . S
Li707 N757 1.990 . S
Li707 O765 1.961 . S
Li707 O766 1.970 . S
Li707 O767 1.956 . S
C708 C710 1.348 . S
C708 C711 1.356 . S
C708 O764 1.325 . S
N709 C712 1.314 . S
N709 C713 1.279 . S
C710 C708 1.348 . S
C710 C712 1.353 . S
C710 H768 0.929 . S
C711 C708 1.356 . S
C711 C713 1.358 . S
C711 H769 0.930 . S
C712 N709 1.314 . S
C712 C710 1.353 . S
C712 H770 0.930 . S
C713 N709 1.279 . S
C713 C711 1.358 . S
C713 H771 0.930 . S
C714 C717 1.348 . S
C714 C718 1.356 . S
C714 O765 1.325 . S
C715 N716 1.279 . S
C715 C718 1.358 . S
C715 H772 0.930 . S
N716 C715 1.279 . S
N716 C719 1.314 . S
C717 C714 1.348 . S
C717 C719 1.353 . S
C717 H773 0.929 . S
C718 C714 1.356 . S
C718 C715 1.358 . S
C718 H774 0.930 . S
C719 N716 1.314 . S
C719 C717 1.353 . S
C719 H775 0.930 . S
C720 N721 1.314 . S
C720 C725 1.353 . S
C720 H726 0.930 . S
N721 Li704 1.990 . S
N721 C720 1.314 . S
N721 C723 1.279 . S
C722 C723 1.358 . S
C722 C724 1.356 . S
C722 H776 0.930 . S
C723 N721 1.279 . S
C723 C722 1.358 . S
C723 H727 0.930 . S
C724 C722 1.356 . S
C724 C725 1.348 . S
C725 C720 1.353 . S
C725 C724 1.348 . S
C725 H777 0.929 . S
H726 C720 0.930 . S
H727 C723 0.930 . S
C728 N729 1.314 . S
C728 C730 1.353 . S
C728 H734 0.930 . S
N729 Li705 1.990 . S
N729 C728 1.314 . S
N729 C732 1.279 . S
C730 C728 1.353 . S
C730 C733 1.348 . S
C730 H778 0.929 . S
C731 C732 1.358 . S
C731 C733 1.356 . S
C731 H779 0.930 . S
C732 N729 1.279 . S
C732 C731 1.358 . S
C732 H735 0.930 . S
C733 C730 1.348 . S
C733 C731 1.356 . S
H734 C728 0.930 . S
H735 C732 0.930 . S
C736 C738 1.348 . S
C736 C739 1.356 . S
C736 O766 1.325 . S
N737 C740 1.314 . S
N737 C741 1.279 . S
C738 C736 1.348 . S
C738 C740 1.353 . S
C738 H780 0.929 . S
C739 C736 1.356 . S
C739 C741 1.358 . S
C739 H781 0.930 . S
C740 N737 1.314 . S
C740 C738 1.353 . S
C740 H782 0.930 . S
C741 N737 1.279 . S
C741 C739 1.358 . S
C741 H783 0.930 . S
C742 C743 1.348 . S
C742 C744 1.356 . S
C742 O767 1.325 . S
C743 C742 1.348 . S
C743 C745 1.353 . S
C743 H784 0.929 . S
C744 C742 1.356 . S
C744 C746 1.358 . S
C744 H785 0.930 . S
C745 C743 1.353 . S
C745 N747 1.314 . S
C745 H786 0.930 . S
C746 C744 1.358 . S
C746 N747 1.279 . S
C746 H787 0.930 . S
N747 C745 1.314 . S
N747 C746 1.279 . S
C748 C750 1.353 . S
C748 N751 1.314 . S
C748 H754 0.930 . S
C749 N751 1.279 . S
C749 C752 1.358 . S
C749 H755 0.930 . S
C750 C748 1.353 . S
C750 C753 1.348 . S
C750 H788 0.929 . S
N751 Li706 1.990 . S
N751 C748 1.314 . S
N751 C749 1.279 . S
C752 C749 1.358 . S
C752 C753 1.356 . S
C752 H789 0.930 . S
C753 C750 1.348 . S
C753 C752 1.356 . S
H754 C748 0.930 . S
H755 C749 0.930 . S
C756 N757 1.314 . S
C756 C758 1.353 . S
C756 H762 0.930 . S
N757 Li707 1.990 . S
N757 C756 1.314 . S
N757 C760 1.279 . S
C758 C756 1.353 . S
C758 C761 1.348 . S
C758 H790 0.929 . S
C759 C760 1.358 . S
C759 C761 1.356 . S
C759 H791 0.930 . S
C760 N757 1.279 . S
C760 C759 1.358 . S
C760 H763 0.930 . S
C761 C758 1.348 . S
C761 C759 1.356 . S
H762 C756 0.930 . S
H763 C760 0.930 . S
O764 Li704 1.956 . S
O764 Li705 1.970 . S
O764 Li706 1.961 . S
O764 C708 1.325 . S
O765 Li704 1.970 . S
O765 Li705 1.956 . S
O765 Li707 1.961 . S
O765 C714 1.325 . S
O766 Li704 1.961 . S
O766 Li706 1.956 . S
O766 Li707 1.970 . S
O766 C736 1.325 . S
O767 Li705 1.961 . S
O767 Li706 1.970 . S
O767 Li707 1.956 . S
O767 C742 1.325 . S
H768 C710 0.929 . S
H769 C711 0.930 . S
H770 C712 0.930 . S
H771 C713 0.930 . S
H772 C715 0.930 . S
H773 C717 0.929 . S
H774 C718 0.930 . S
H775 C719 0.930 . S
H776 C722 0.930 . S
H777 C725 0.929 . S
H778 C730 0.929 . S
H779 C731 0.930 . S
H780 C738 0.929 . S
H781 C739 0.930 . S
H782 C740 0.930 . S
H783 C741 0.930 . S
H784 C743 0.929 . S
H785 C744 0.930 . S
H786 C745 0.930 . S
H787 C746 0.930 . S
H788 C750 0.929 . S
H789 C752 0.930 . S
H790 C758 0.929 . S
H791 C759 0.930 . S
Li792 N809 1.990 . S
Li792 O852 1.956 . S
Li792 O853 1.970 . S
Li792 O854 1.961 . S
Li793 N817 1.990 . S
Li793 O852 1.970 . S
Li793 O853 1.956 . S
Li793 O855 1.961 . S
Li794 N839 1.990 . S
Li794 O852 1.961 . S
Li794 O854 1.956 . S
Li794 O855 1.970 . S
Li795 N845 1.990 . S
Li795 O853 1.961 . S
Li795 O854 1.970 . S
Li795 O855 1.956 . S
C796 C798 1.348 . S
C796 C799 1.356 . S
C796 O852 1.325 . S
N797 C800 1.314 . S
N797 C801 1.279 . S
C798 C796 1.348 . S
C798 C800 1.353 . S
C798 H856 0.929 . S
C799 C796 1.356 . S
C799 C801 1.358 . S
C799 H857 0.930 . S
C800 N797 1.314 . S
C800 C798 1.353 . S
C800 H858 0.930 . S
C801 N797 1.279 . S
C801 C799 1.358 . S
C801 H859 0.930 . S
C802 C805 1.348 . S
C802 C806 1.356 . S
C802 O853 1.325 . S
C803 N804 1.279 . S
C803 C806 1.358 . S
C803 H860 0.930 . S
N804 C803 1.279 . S
N804 C807 1.314 . S
C805 C802 1.348 . S
C805 C807 1.353 . S
C805 H861 0.929 . S
C806 C802 1.356 . S
C806 C803 1.358 . S
C806 H862 0.930 . S
C807 N804 1.314 . S
C807 C805 1.353 . S
C807 H863 0.930 . S
C808 N809 1.314 . S
C808 C813 1.353 . S
C808 H814 0.930 . S
N809 Li792 1.990 . S
N809 C808 1.314 . S
N809 C811 1.279 . S
C810 C811 1.358 . S
C810 C812 1.356 . S
C810 H864 0.930 . S
C811 N809 1.279 . S
C811 C810 1.358 . S
C811 H815 0.930 . S
C812 C810 1.356 . S
C812 C813 1.348 . S
C813 C808 1.353 . S
C813 C812 1.348 . S
C813 H865 0.929 . S
H814 C808 0.930 . S
H815 C811 0.930 . S
C816 N817 1.314 . S
C816 C818 1.353 . S
C816 H822 0.930 . S
N817 Li793 1.990 . S
N817 C816 1.314 . S
N817 C820 1.279 . S
C818 C816 1.353 . S
C818 C821 1.348 . S
C818 H866 0.929 . S
C819 C820 1.358 . S
C819 C821 1.356 . S
C819 H867 0.930 . S
C820 N817 1.279 . S
C820 C819 1.358 . S
C820 H823 0.930 . S
C821 C818 1.348 . S
C821 C819 1.356 . S
H822 C816 0.930 . S
H823 C820 0.930 . S
C824 C826 1.348 . S
C824 C827 1.356 . S
C824 O854 1.325 . S
N825 C828 1.314 . S
N825 C829 1.279 . S
C826 C824 1.348 . S
C826 C828 1.353 . S
C826 H868 0.929 . S
C827 C824 1.356 . S
C827 C829 1.358 . S
C827 H869 0.930 . S
C828 N825 1.314 . S
C828 C826 1.353 . S
C828 H870 0.930 . S
C829 N825 1.279 . S
C829 C827 1.358 . S
C829 H871 0.930 . S
C830 C831 1.348 . S
C830 C832 1.356 . S
C830 O855 1.325 . S
C831 C830 1.348 . S
C831 C833 1.353 . S
C831 H872 0.929 . S
C832 C830 1.356 . S
C832 C834 1.358 . S
C832 H873 0.930 . S
C833 C831 1.353 . S
C833 N835 1.314 . S
C833 H874 0.930 . S
C834 C832 1.358 . S
C834 N835 1.279 . S
C834 H875 0.930 . S
N835 C833 1.314 . S
N835 C834 1.279 . S
C836 C838 1.353 . S
C836 N839 1.314 . S
C836 H842 0.930 . S
C837 N839 1.279 . S
C837 C840 1.358 . S
C837 H843 0.930 . S
C838 C836 1.353 . S
C838 C841 1.348 . S
C838 H876 0.929 . S
N839 Li794 1.990 . S
N839 C836 1.314 . S
N839 C837 1.279 . S
C840 C837 1.358 . S
C840 C841 1.356 . S
C840 H877 0.930 . S
C841 C838 1.348 . S
C841 C840 1.356 . S
H842 C836 0.930 . S
H843 C837 0.930 . S
C844 N845 1.314 . S
C844 C846 1.353 . S
C844 H850 0.930 . S
N845 Li795 1.990 . S
N845 C844 1.314 . S
N845 C848 1.279 . S
C846 C844 1.353 . S
C846 C849 1.348 . S
C846 H878 0.929 . S
C847 C848 1.358 . S
C847 C849 1.356 . S
C847 H879 0.930 . S
C848 N845 1.279 . S
C848 C847 1.358 . S
C848 H851 0.930 . S
C849 C846 1.348 . S
C849 C847 1.356 . S
H850 C844 0.930 . S
H851 C848 0.930 . S
O852 Li792 1.956 . S
O852 Li793 1.970 . S
O852 Li794 1.961 . S
O852 C796 1.325 . S
O853 Li792 1.970 . S
O853 Li793 1.956 . S
O853 Li795 1.961 . S
O853 C802 1.325 . S
O854 Li792 1.961 . S
O854 Li794 1.956 . S
O854 Li795 1.970 . S
O854 C824 1.325 . S
O855 Li793 1.961 . S
O855 Li794 1.970 . S
O855 Li795 1.956 . S
O855 C830 1.325 . S
H856 C798 0.929 . S
H857 C799 0.930 . S
H858 C800 0.930 . S
H859 C801 0.930 . S
H860 C803 0.930 . S
H861 C805 0.929 . S
H862 C806 0.930 . S
H863 C807 0.930 . S
H864 C810 0.930 . S
H865 C813 0.929 . S
H866 C818 0.929 . S
H867 C819 0.930 . S
H868 C826 0.929 . S
H869 C827 0.930 . S
H870 C828 0.930 . S
H871 C829 0.930 . S
H872 C831 0.929 . S
H873 C832 0.930 . S
H874 C833 0.930 . S
H875 C834 0.930 . S
H876 C838 0.929 . S
H877 C840 0.930 . S
H878 C846 0.929 . S
H879 C847 0.930 . S
Li880 N897 1.990 . S
Li880 O940 1.956 . S
Li880 O941 1.970 . S
Li880 O942 1.961 . S
Li881 N905 1.990 . S
Li881 O940 1.970 . S
Li881 O941 1.956 . S
Li881 O943 1.961 . S
Li882 N927 1.990 . S
Li882 O940 1.961 . S
Li882 O942 1.956 . S
Li882 O943 1.970 . S
Li883 N933 1.990 . S
Li883 O941 1.961 . S
Li883 O942 1.970 . S
Li883 O943 1.956 . S
C884 C886 1.348 . S
C884 C887 1.356 . S
C884 O940 1.325 . S
N885 C888 1.314 . S
N885 C889 1.279 . S
C886 C884 1.348 . S
C886 C888 1.353 . S
C886 H944 0.929 . S
C887 C884 1.356 . S
C887 C889 1.358 . S
C887 H945 0.930 . S
C888 N885 1.314 . S
C888 C886 1.353 . S
C888 H946 0.930 . S
C889 N885 1.279 . S
C889 C887 1.358 . S
C889 H947 0.930 . S
C890 C893 1.348 . S
C890 C894 1.356 . S
C890 O941 1.325 . S
C891 N892 1.279 . S
C891 C894 1.358 . S
C891 H948 0.930 . S
N892 C891 1.279 . S
N892 C895 1.314 . S
C893 C890 1.348 . S
C893 C895 1.353 . S
C893 H949 0.929 . S
C894 C890 1.356 . S
C894 C891 1.358 . S
C894 H950 0.930 . S
C895 N892 1.314 . S
C895 C893 1.353 . S
C895 H951 0.930 . S
C896 N897 1.314 . S
C896 C901 1.353 . S
C896 H902 0.930 . S
N897 Li880 1.990 . S
N897 C896 1.314 . S
N897 C899 1.279 . S
C898 C899 1.358 . S
C898 C900 1.356 . S
C898 H952 0.930 . S
C899 N897 1.279 . S
C899 C898 1.358 . S
C899 H903 0.930 . S
C900 C898 1.356 . S
C900 C901 1.348 . S
C901 C896 1.353 . S
C901 C900 1.348 . S
C901 H953 0.929 . S
H902 C896 0.930 . S
H903 C899 0.930 . S
C904 N905 1.314 . S
C904 C906 1.353 . S
C904 H910 0.930 . S
N905 Li881 1.990 . S
N905 C904 1.314 . S
N905 C908 1.279 . S
C906 C904 1.353 . S
C906 C909 1.348 . S
C906 H954 0.929 . S
C907 C908 1.358 . S
C907 C909 1.356 . S
C907 H955 0.930 . S
C908 N905 1.279 . S
C908 C907 1.358 . S
C908 H911 0.930 . S
C909 C906 1.348 . S
C909 C907 1.356 . S
H910 C904 0.930 . S
H911 C908 0.930 . S
C912 C914 1.348 . S
C912 C915 1.356 . S
C912 O942 1.325 . S
N913 C916 1.314 . S
N913 C917 1.279 . S
C914 C912 1.348 . S
C914 C916 1.353 . S
C914 H956 0.929 . S
C915 C912 1.356 . S
C915 C917 1.358 . S
C915 H957 0.930 . S
C916 N913 1.314 . S
C916 C914 1.353 . S
C916 H958 0.930 . S
C917 N913 1.279 . S
C917 C915 1.358 . S
C917 H959 0.930 . S
C918 C919 1.348 . S
C918 C920 1.356 . S
C918 O943 1.325 . S
C919 C918 1.348 . S
C919 C921 1.353 . S
C919 H960 0.929 . S
C920 C918 1.356 . S
C920 C922 1.358 . S
C920 H961 0.930 . S
C921 C919 1.353 . S
C921 N923 1.314 . S
C921 H962 0.930 . S
C922 C920 1.358 . S
C922 N923 1.279 . S
C922 H963 0.930 . S
N923 C921 1.314 . S
N923 C922 1.279 . S
C924 C926 1.353 . S
C924 N927 1.314 . S
C924 H930 0.930 . S
C925 N927 1.279 . S
C925 C928 1.358 . S
C925 H931 0.930 . S
C926 C924 1.353 . S
C926 C929 1.348 . S
C926 H964 0.929 . S
N927 Li882 1.990 . S
N927 C924 1.314 . S
N927 C925 1.279 . S
C928 C925 1.358 . S
C928 C929 1.356 . S
C928 H965 0.930 . S
C929 C926 1.348 . S
C929 C928 1.356 . S
H930 C924 0.930 . S
H931 C925 0.930 . S
C932 N933 1.314 . S
C932 C934 1.353 . S
C932 H938 0.930 . S
N933 Li883 1.990 . S
N933 C932 1.314 . S
N933 C936 1.279 . S
C934 C932 1.353 . S
C934 C937 1.348 . S
C934 H966 0.929 . S
C935 C936 1.358 . S
C935 C937 1.356 . S
C935 H967 0.930 . S
C936 N933 1.279 . S
C936 C935 1.358 . S
C936 H939 0.930 . S
C937 C934 1.348 . S
C937 C935 1.356 . S
H938 C932 0.930 . S
H939 C936 0.930 . S
O940 Li880 1.956 . S
O940 Li881 1.970 . S
O940 Li882 1.961 . S
O940 C884 1.325 . S
O941 Li880 1.970 . S
O941 Li881 1.956 . S
O941 Li883 1.961 . S
O941 C890 1.325 . S
O942 Li880 1.961 . S
O942 Li882 1.956 . S
O942 Li883 1.970 . S
O942 C912 1.325 . S
O943 Li881 1.961 . S
O943 Li882 1.970 . S
O943 Li883 1.956 . S
O943 C918 1.325 . S
H944 C886 0.929 . S
H945 C887 0.930 . S
H946 C888 0.930 . S
H947 C889 0.930 . S
H948 C891 0.930 . S
H949 C893 0.929 . S
H950 C894 0.930 . S
H951 C895 0.930 . S
H952 C898 0.930 . S
H953 C901 0.929 . S
H954 C906 0.929 . S
H955 C907 0.930 . S
H956 C914 0.929 . S
H957 C915 0.930 . S
H958 C916 0.930 . S
H959 C917 0.930 . S
H960 C919 0.929 . S
H961 C920 0.930 . S
H962 C921 0.930 . S
H963 C922 0.930 . S
H964 C926 0.929 . S
H965 C928 0.930 . S
H966 C934 0.929 . S
H967 C935 0.930 . S
Li968 N985 1.990 . S
Li968 O1028 1.956 . S
Li968 O1029 1.970 . S
Li968 O1030 1.961 . S
Li969 N993 1.990 . S
Li969 O1028 1.970 . S
Li969 O1029 1.956 . S
Li969 O1031 1.961 . S
Li970 N1015 1.990 . S
Li970 O1028 1.961 . S
Li970 O1030 1.956 . S
Li970 O1031 1.970 . S
Li971 N1021 1.990 . S
Li971 O1029 1.961 . S
Li971 O1030 1.970 . S
Li971 O1031 1.956 . S
C972 C974 1.348 . S
C972 C975 1.356 . S
C972 O1028 1.325 . S
N973 C976 1.314 . S
N973 C977 1.279 . S
C974 C972 1.348 . S
C974 C976 1.353 . S
C974 H1032 0.929 . S
C975 C972 1.356 . S
C975 C977 1.358 . S
C975 H1033 0.930 . S
C976 N973 1.314 . S
C976 C974 1.353 . S
C976 H1034 0.930 . S
C977 N973 1.279 . S
C977 C975 1.358 . S
C977 H1035 0.930 . S
C978 C981 1.348 . S
C978 C982 1.356 . S
C978 O1029 1.325 . S
C979 N980 1.279 . S
C979 C982 1.358 . S
C979 H1036 0.930 . S
N980 C979 1.279 . S
N980 C983 1.314 . S
C981 C978 1.348 . S
C981 C983 1.353 . S
C981 H1037 0.929 . S
C982 C978 1.356 . S
C982 C979 1.358 . S
C982 H1038 0.930 . S
C983 N980 1.314 . S
C983 C981 1.353 . S
C983 H1039 0.930 . S
C984 N985 1.314 . S
C984 C989 1.353 . S
C984 H990 0.930 . S
N985 Li968 1.990 . S
N985 C984 1.314 . S
N985 C987 1.279 . S
C986 C987 1.358 . S
C986 C988 1.356 . S
C986 H1040 0.930 . S
C987 N985 1.279 . S
C987 C986 1.358 . S
C987 H991 0.930 . S
C988 C986 1.356 . S
C988 C989 1.348 . S
C989 C984 1.353 . S
C989 C988 1.348 . S
C989 H1041 0.929 . S
H990 C984 0.930 . S
H991 C987 0.930 . S
C992 N993 1.314 . S
C992 C994 1.353 . S
C992 H998 0.930 . S
N993 Li969 1.990 . S
N993 C992 1.314 . S
N993 C996 1.279 . S
C994 C992 1.353 . S
C994 C997 1.348 . S
C994 H1042 0.929 . S
C995 C996 1.358 . S
C995 C997 1.356 . S
C995 H1043 0.930 . S
C996 N993 1.279 . S
C996 C995 1.358 . S
C996 H999 0.930 . S
C997 C994 1.348 . S
C997 C995 1.356 . S
H998 C992 0.930 . S
H999 C996 0.930 . S
C1000 C1002 1.348 . S
C1000 C1003 1.356 . S
C1000 O1030 1.325 . S
N1001 C1004 1.314 . S
N1001 C1005 1.279 . S
C1002 C1000 1.348 . S
C1002 C1004 1.353 . S
C1002 H1044 0.929 . S
C1003 C1000 1.356 . S
C1003 C1005 1.358 . S
C1003 H1045 0.930 . S
C1004 N1001 1.314 . S
C1004 C1002 1.353 . S
C1004 H1046 0.930 . S
C1005 N1001 1.279 . S
C1005 C1003 1.358 . S
C1005 H1047 0.930 . S
C1006 C1007 1.348 . S
C1006 C1008 1.356 . S
C1006 O1031 1.325 . S
C1007 C1006 1.348 . S
C1007 C1009 1.353 . S
C1007 H1048 0.929 . S
C1008 C1006 1.356 . S
C1008 C1010 1.358 . S
C1008 H1049 0.930 . S
C1009 C1007 1.353 . S
C1009 N1011 1.314 . S
C1009 H1050 0.930 . S
C1010 C1008 1.358 . S
C1010 N1011 1.279 . S
C1010 H1051 0.930 . S
N1011 C1009 1.314 . S
N1011 C1010 1.279 . S
C1012 C1014 1.353 . S
C1012 N1015 1.314 . S
C1012 H1018 0.930 . S
C1013 N1015 1.279 . S
C1013 C1016 1.358 . S
C1013 H1019 0.930 . S
C1014 C1012 1.353 . S
C1014 C1017 1.348 . S
C1014 H1052 0.929 . S
N1015 Li970 1.990 . S
N1015 C1012 1.314 . S
N1015 C1013 1.279 . S
C1016 C1013 1.358 . S
C1016 C1017 1.356 . S
C1016 H1053 0.930 . S
C1017 C1014 1.348 . S
C1017 C1016 1.356 . S
H1018 C1012 0.930 . S
H1019 C1013 0.930 . S
C1020 N1021 1.314 . S
C1020 C1022 1.353 . S
C1020 H1026 0.930 . S
N1021 Li971 1.990 . S
N1021 C1020 1.314 . S
N1021 C1024 1.279 . S
C1022 C1020 1.353 . S
C1022 C1025 1.348 . S
C1022 H1054 0.929 . S
C1023 C1024 1.358 . S
C1023 C1025 1.356 . S
C1023 H1055 0.930 . S
C1024 N1021 1.279 . S
C1024 C1023 1.358 . S
C1024 H1027 0.930 . S
C1025 C1022 1.348 . S
C1025 C1023 1.356 . S
H1026 C1020 0.930 . S
H1027 C1024 0.930 . S
O1028 Li968 1.956 . S
O1028 Li969 1.970 . S
O1028 Li970 1.961 . S
O1028 C972 1.325 . S
O1029 Li968 1.970 . S
O1029 Li969 1.956 . S
O1029 Li971 1.961 . S
O1029 C978 1.325 . S
O1030 Li968 1.961 . S
O1030 Li970 1.956 . S
O1030 Li971 1.970 . S
O1030 C1000 1.325 . S
O1031 Li969 1.961 . S
O1031 Li970 1.970 . S
O1031 Li971 1.956 . S
O1031 C1006 1.325 . S
H1032 C974 0.929 . S
H1033 C975 0.930 . S
H1034 C976 0.930 . S
H1035 C977 0.930 . S
H1036 C979 0.930 . S
H1037 C981 0.929 . S
H1038 C982 0.930 . S
H1039 C983 0.930 . S
H1040 C986 0.930 . S
H1041 C989 0.929 . S
H1042 C994 0.929 . S
H1043 C995 0.930 . S
H1044 C1002 0.929 . S
H1045 C1003 0.930 . S
H1046 C1004 0.930 . S
H1047 C1005 0.930 . S
H1048 C1007 0.929 . S
H1049 C1008 0.930 . S
H1050 C1009 0.930 . S
H1051 C1010 0.930 . S
H1052 C1014 0.929 . S
H1053 C1016 0.930 . S
H1054 C1022 0.929 . S
H1055 C1023 0.930 . S
Li1056 N1073 1.990 . S
Li1056 O1116 1.956 . S
Li1056 O1117 1.970 . S
Li1056 O1118 1.961 . S
Li1057 N1081 1.990 . S
Li1057 O1116 1.970 . S
Li1057 O1117 1.956 . S
Li1057 O1119 1.961 . S
Li1058 N1103 1.990 . S
Li1058 O1116 1.961 . S
Li1058 O1118 1.956 . S
Li1058 O1119 1.970 . S
Li1059 N1109 1.990 . S
Li1059 O1117 1.961 . S
Li1059 O1118 1.970 . S
Li1059 O1119 1.956 . S
C1060 C1062 1.348 . S
C1060 C1063 1.356 . S
C1060 O1116 1.325 . S
N1061 C1064 1.314 . S
N1061 C1065 1.279 . S
C1062 C1060 1.348 . S
C1062 C1064 1.353 . S
C1062 H1120 0.929 . S
C1063 C1060 1.356 . S
C1063 C1065 1.358 . S
C1063 H1121 0.930 . S
C1064 N1061 1.314 . S
C1064 C1062 1.353 . S
C1064 H1122 0.930 . S
C1065 N1061 1.279 . S
C1065 C1063 1.358 . S
C1065 H1123 0.930 . S
C1066 C1069 1.348 . S
C1066 C1070 1.356 . S
C1066 O1117 1.325 . S
C1067 N1068 1.279 . S
C1067 C1070 1.358 . S
C1067 H1124 0.930 . S
N1068 C1067 1.279 . S
N1068 C1071 1.314 . S
C1069 C1066 1.348 . S
C1069 C1071 1.353 . S
C1069 H1125 0.929 . S
C1070 C1066 1.356 . S
C1070 C1067 1.358 . S
C1070 H1126 0.930 . S
C1071 N1068 1.314 . S
C1071 C1069 1.353 . S
C1071 H1127 0.930 . S
C1072 N1073 1.314 . S
C1072 C1077 1.353 . S
C1072 H1078 0.930 . S
N1073 Li1056 1.990 . S
N1073 C1072 1.314 . S
N1073 C1075 1.279 . S
C1074 C1075 1.358 . S
C1074 C1076 1.356 . S
C1074 H1128 0.930 . S
C1075 N1073 1.279 . S
C1075 C1074 1.358 . S
C1075 H1079 0.930 . S
C1076 C1074 1.356 . S
C1076 C1077 1.348 . S
C1077 C1072 1.353 . S
C1077 C1076 1.348 . S
C1077 H1129 0.929 . S
H1078 C1072 0.930 . S
H1079 C1075 0.930 . S
C1080 N1081 1.314 . S
C1080 C1082 1.353 . S
C1080 H1086 0.930 . S
N1081 Li1057 1.990 . S
N1081 C1080 1.314 . S
N1081 C1084 1.279 . S
C1082 C1080 1.353 . S
C1082 C1085 1.348 . S
C1082 H1130 0.929 . S
C1083 C1084 1.358 . S
C1083 C1085 1.356 . S
C1083 H1131 0.930 . S
C1084 N1081 1.279 . S
C1084 C1083 1.358 . S
C1084 H1087 0.930 . S
C1085 C1082 1.348 . S
C1085 C1083 1.356 . S
H1086 C1080 0.930 . S
H1087 C1084 0.930 . S
C1088 C1090 1.348 . S
C1088 C1091 1.356 . S
C1088 O1118 1.325 . S
N1089 C1092 1.314 . S
N1089 C1093 1.279 . S
C1090 C1088 1.348 . S
C1090 C1092 1.353 . S
C1090 H1132 0.929 . S
C1091 C1088 1.356 . S
C1091 C1093 1.358 . S
C1091 H1133 0.930 . S
C1092 N1089 1.314 . S
C1092 C1090 1.353 . S
C1092 H1134 0.930 . S
C1093 N1089 1.279 . S
C1093 C1091 1.358 . S
C1093 H1135 0.930 . S
C1094 C1095 1.348 . S
C1094 C1096 1.356 . S
C1094 O1119 1.325 . S
C1095 C1094 1.348 . S
C1095 C1097 1.353 . S
C1095 H1136 0.929 . S
C1096 C1094 1.356 . S
C1096 C1098 1.358 . S
C1096 H1137 0.930 . S
C1097 C1095 1.353 . S
C1097 N1099 1.314 . S
C1097 H1138 0.930 . S
C1098 C1096 1.358 . S
C1098 N1099 1.279 . S
C1098 H1139 0.930 . S
N1099 C1097 1.314 . S
N1099 C1098 1.279 . S
C1100 C1102 1.353 . S
C1100 N1103 1.314 . S
C1100 H1106 0.930 . S
C1101 N1103 1.279 . S
C1101 C1104 1.358 . S
C1101 H1107 0.930 . S
C1102 C1100 1.353 . S
C1102 C1105 1.348 . S
C1102 H1140 0.929 . S
N1103 Li1058 1.990 . S
N1103 C1100 1.314 . S
N1103 C1101 1.279 . S
C1104 C1101 1.358 . S
C1104 C1105 1.356 . S
C1104 H1141 0.930 . S
C1105 C1102 1.348 . S
C1105 C1104 1.356 . S
H1106 C1100 0.930 . S
H1107 C1101 0.930 . S
C1108 N1109 1.314 . S
C1108 C1110 1.353 . S
C1108 H1114 0.930 . S
N1109 Li1059 1.990 . S
N1109 C1108 1.314 . S
N1109 C1112 1.279 . S
C1110 C1108 1.353 . S
C1110 C1113 1.348 . S
C1110 H1142 0.929 . S
C1111 C1112 1.358 . S
C1111 C1113 1.356 . S
C1111 H1143 0.930 . S
C1112 N1109 1.279 . S
C1112 C1111 1.358 . S
C1112 H1115 0.930 . S
C1113 C1110 1.348 . S
C1113 C1111 1.356 . S
H1114 C1108 0.930 . S
H1115 C1112 0.930 . S
O1116 Li1056 1.956 . S
O1116 Li1057 1.970 . S
O1116 Li1058 1.961 . S
O1116 C1060 1.325 . S
O1117 Li1056 1.970 . S
O1117 Li1057 1.956 . S
O1117 Li1059 1.961 . S
O1117 C1066 1.325 . S
O1118 Li1056 1.961 . S
O1118 Li1058 1.956 . S
O1118 Li1059 1.970 . S
O1118 C1088 1.325 . S
O1119 Li1057 1.961 . S
O1119 Li1058 1.970 . S
O1119 Li1059 1.956 . S
O1119 C1094 1.325 . S
H1120 C1062 0.929 . S
H1121 C1063 0.930 . S
H1122 C1064 0.930 . S
H1123 C1065 0.930 . S
H1124 C1067 0.930 . S
H1125 C1069 0.929 . S
H1126 C1070 0.930 . S
H1127 C1071 0.930 . S
H1128 C1074 0.930 . S
H1129 C1077 0.929 . S
H1130 C1082 0.929 . S
H1131 C1083 0.930 . S
H1132 C1090 0.929 . S
H1133 C1091 0.930 . S
H1134 C1092 0.930 . S
H1135 C1093 0.930 . S
H1136 C1095 0.929 . S
H1137 C1096 0.930 . S
H1138 C1097 0.930 . S
H1139 C1098 0.930 . S
H1140 C1102 0.929 . S
H1141 C1104 0.930 . S
H1142 C1110 0.929 . S
H1143 C1111 0.930 . S
Li1144 N1161 1.990 . S
Li1144 O1204 1.956 . S
Li1144 O1205 1.970 . S
Li1144 O1206 1.961 . S
Li1145 N1169 1.990 . S
Li1145 O1204 1.970 . S
Li1145 O1205 1.956 . S
Li1145 O1207 1.961 . S
Li1146 N1191 1.990 . S
Li1146 O1204 1.961 . S
Li1146 O1206 1.956 . S
Li1146 O1207 1.970 . S
Li1147 N1197 1.990 . S
Li1147 O1205 1.961 . S
Li1147 O1206 1.970 . S
Li1147 O1207 1.956 . S
C1148 C1150 1.348 . S
C1148 C1151 1.356 . S
C1148 O1204 1.325 . S
N1149 C1152 1.314 . S
N1149 C1153 1.279 . S
C1150 C1148 1.348 . S
C1150 C1152 1.353 . S
C1150 H1208 0.929 . S
C1151 C1148 1.356 . S
C1151 C1153 1.358 . S
C1151 H1209 0.930 . S
C1152 N1149 1.314 . S
C1152 C1150 1.353 . S
C1152 H1210 0.930 . S
C1153 N1149 1.279 . S
C1153 C1151 1.358 . S
C1153 H1211 0.930 . S
C1154 C1157 1.348 . S
C1154 C1158 1.356 . S
C1154 O1205 1.325 . S
C1155 N1156 1.279 . S
C1155 C1158 1.358 . S
C1155 H1212 0.930 . S
N1156 C1155 1.279 . S
N1156 C1159 1.314 . S
C1157 C1154 1.348 . S
C1157 C1159 1.353 . S
C1157 H1213 0.929 . S
C1158 C1154 1.356 . S
C1158 C1155 1.358 . S
C1158 H1214 0.930 . S
C1159 N1156 1.314 . S
C1159 C1157 1.353 . S
C1159 H1215 0.930 . S
C1160 N1161 1.314 . S
C1160 C1165 1.353 . S
C1160 H1166 0.930 . S
N1161 Li1144 1.990 . S
N1161 C1160 1.314 . S
N1161 C1163 1.279 . S
C1162 C1163 1.358 . S
C1162 C1164 1.356 . S
C1162 H1216 0.930 . S
C1163 N1161 1.279 . S
C1163 C1162 1.358 . S
C1163 H1167 0.930 . S
C1164 C1162 1.356 . S
C1164 C1165 1.348 . S
C1165 C1160 1.353 . S
C1165 C1164 1.348 . S
C1165 H1217 0.929 . S
H1166 C1160 0.930 . S
H1167 C1163 0.930 . S
C1168 N1169 1.314 . S
C1168 C1170 1.353 . S
C1168 H1174 0.930 . S
N1169 Li1145 1.990 . S
N1169 C1168 1.314 . S
N1169 C1172 1.279 . S
C1170 C1168 1.353 . S
C1170 C1173 1.348 . S
C1170 H1218 0.929 . S
C1171 C1172 1.358 . S
C1171 C1173 1.356 . S
C1171 H1219 0.930 . S
C1172 N1169 1.279 . S
C1172 C1171 1.358 . S
C1172 H1175 0.930 . S
C1173 C1170 1.348 . S
C1173 C1171 1.356 . S
H1174 C1168 0.930 . S
H1175 C1172 0.930 . S
C1176 C1178 1.348 . S
C1176 C1179 1.356 . S
C1176 O1206 1.325 . S
N1177 C1180 1.314 . S
N1177 C1181 1.279 . S
C1178 C1176 1.348 . S
C1178 C1180 1.353 . S
C1178 H1220 0.929 . S
C1179 C1176 1.356 . S
C1179 C1181 1.358 . S
C1179 H1221 0.930 . S
C1180 N1177 1.314 . S
C1180 C1178 1.353 . S
C1180 H1222 0.930 . S
C1181 N1177 1.279 . S
C1181 C1179 1.358 . S
C1181 H1223 0.930 . S
C1182 C1183 1.348 . S
C1182 C1184 1.356 . S
C1182 O1207 1.325 . S
C1183 C1182 1.348 . S
C1183 C1185 1.353 . S
C1183 H1224 0.929 . S
C1184 C1182 1.356 . S
C1184 C1186 1.358 . S
C1184 H1225 0.930 . S
C1185 C1183 1.353 . S
C1185 N1187 1.314 . S
C1185 H1226 0.930 . S
C1186 C1184 1.358 . S
C1186 N1187 1.279 . S
C1186 H1227 0.930 . S
N1187 C1185 1.314 . S
N1187 C1186 1.279 . S
C1188 C1190 1.353 . S
C1188 N1191 1.314 . S
C1188 H1194 0.930 . S
C1189 N1191 1.279 . S
C1189 C1192 1.358 . S
C1189 H1195 0.930 . S
C1190 C1188 1.353 . S
C1190 C1193 1.348 . S
C1190 H1228 0.929 . S
N1191 Li1146 1.990 . S
N1191 C1188 1.314 . S
N1191 C1189 1.279 . S
C1192 C1189 1.358 . S
C1192 C1193 1.356 . S
C1192 H1229 0.930 . S
C1193 C1190 1.348 . S
C1193 C1192 1.356 . S
H1194 C1188 0.930 . S
H1195 C1189 0.930 . S
C1196 N1197 1.314 . S
C1196 C1198 1.353 . S
C1196 H1202 0.930 . S
N1197 Li1147 1.990 . S
N1197 C1196 1.314 . S
N1197 C1200 1.279 . S
C1198 C1196 1.353 . S
C1198 C1201 1.348 . S
C1198 H1230 0.929 . S
C1199 C1200 1.358 . S
C1199 C1201 1.356 . S
C1199 H1231 0.930 . S
C1200 N1197 1.279 . S
C1200 C1199 1.358 . S
C1200 H1203 0.930 . S
C1201 C1198 1.348 . S
C1201 C1199 1.356 . S
H1202 C1196 0.930 . S
H1203 C1200 0.930 . S
O1204 Li1144 1.956 . S
O1204 Li1145 1.970 . S
O1204 Li1146 1.961 . S
O1204 C1148 1.325 . S
O1205 Li1144 1.970 . S
O1205 Li1145 1.956 . S
O1205 Li1147 1.961 . S
O1205 C1154 1.325 . S
O1206 Li1144 1.961 . S
O1206 Li1146 1.956 . S
O1206 Li1147 1.970 . S
O1206 C1176 1.325 . S
O1207 Li1145 1.961 . S
O1207 Li1146 1.970 . S
O1207 Li1147 1.956 . S
O1207 C1182 1.325 . S
H1208 C1150 0.929 . S
H1209 C1151 0.930 . S
H1210 C1152 0.930 . S
H1211 C1153 0.930 . S
H1212 C1155 0.930 . S
H1213 C1157 0.929 . S
H1214 C1158 0.930 . S
H1215 C1159 0.930 . S
H1216 C1162 0.930 . S
H1217 C1165 0.929 . S
H1218 C1170 0.929 . S
H1219 C1171 0.930 . S
H1220 C1178 0.929 . S
H1221 C1179 0.930 . S
H1222 C1180 0.930 . S
H1223 C1181 0.930 . S
H1224 C1183 0.929 . S
H1225 C1184 0.930 . S
H1226 C1185 0.930 . S
H1227 C1186 0.930 . S
H1228 C1190 0.929 . S
H1229 C1192 0.930 . S
H1230 C1198 0.929 . S
H1231 C1199 0.930 . S
Li1232 N1249 1.990 . S
Li1232 O1292 1.956 . S
Li1232 O1293 1.970 . S
Li1232 O1294 1.961 . S
Li1233 N1257 1.990 . S
Li1233 O1292 1.970 . S
Li1233 O1293 1.956 . S
Li1233 O1295 1.961 . S
Li1234 N1279 1.990 . S
Li1234 O1292 1.961 . S
Li1234 O1294 1.956 . S
Li1234 O1295 1.970 . S
Li1235 N1285 1.990 . S
Li1235 O1293 1.961 . S
Li1235 O1294 1.970 . S
Li1235 O1295 1.956 . S
C1236 C1238 1.348 . S
C1236 C1239 1.356 . S
C1236 O1292 1.325 . S
N1237 C1240 1.314 . S
N1237 C1241 1.279 . S
C1238 C1236 1.348 . S
C1238 C1240 1.353 . S
C1238 H1296 0.929 . S
C1239 C1236 1.356 . S
C1239 C1241 1.358 . S
C1239 H1297 0.930 . S
C1240 N1237 1.314 . S
C1240 C1238 1.353 . S
C1240 H1298 0.930 . S
C1241 N1237 1.279 . S
C1241 C1239 1.358 . S
C1241 H1299 0.930 . S
C1242 C1245 1.348 . S
C1242 C1246 1.356 . S
C1242 O1293 1.325 . S
C1243 N1244 1.279 . S
C1243 C1246 1.358 . S
C1243 H1300 0.930 . S
N1244 C1243 1.279 . S
N1244 C1247 1.314 . S
C1245 C1242 1.348 . S
C1245 C1247 1.353 . S
C1245 H1301 0.929 . S
C1246 C1242 1.356 . S
C1246 C1243 1.358 . S
C1246 H1302 0.930 . S
C1247 N1244 1.314 . S
C1247 C1245 1.353 . S
C1247 H1303 0.930 . S
C1248 N1249 1.314 . S
C1248 C1253 1.353 . S
C1248 H1254 0.930 . S
N1249 Li1232 1.990 . S
N1249 C1248 1.314 . S
N1249 C1251 1.279 . S
C1250 C1251 1.358 . S
C1250 C1252 1.356 . S
C1250 H1304 0.930 . S
C1251 N1249 1.279 . S
C1251 C1250 1.358 . S
C1251 H1255 0.930 . S
C1252 C1250 1.356 . S
C1252 C1253 1.348 . S
C1253 C1248 1.353 . S
C1253 C1252 1.348 . S
C1253 H1305 0.929 . S
H1254 C1248 0.930 . S
H1255 C1251 0.930 . S
C1256 N1257 1.314 . S
C1256 C1258 1.353 . S
C1256 H1262 0.930 . S
N1257 Li1233 1.990 . S
N1257 C1256 1.314 . S
N1257 C1260 1.279 . S
C1258 C1256 1.353 . S
C1258 C1261 1.348 . S
C1258 H1306 0.929 . S
C1259 C1260 1.358 . S
C1259 C1261 1.356 . S
C1259 H1307 0.930 . S
C1260 N1257 1.279 . S
C1260 C1259 1.358 . S
C1260 H1263 0.930 . S
C1261 C1258 1.348 . S
C1261 C1259 1.356 . S
H1262 C1256 0.930 . S
H1263 C1260 0.930 . S
C1264 C1266 1.348 . S
C1264 C1267 1.356 . S
C1264 O1294 1.325 . S
N1265 C1268 1.314 . S
N1265 C1269 1.279 . S
C1266 C1264 1.348 . S
C1266 C1268 1.353 . S
C1266 H1308 0.929 . S
C1267 C1264 1.356 . S
C1267 C1269 1.358 . S
C1267 H1309 0.930 . S
C1268 N1265 1.314 . S
C1268 C1266 1.353 . S
C1268 H1310 0.930 . S
C1269 N1265 1.279 . S
C1269 C1267 1.358 . S
C1269 H1311 0.930 . S
C1270 C1271 1.348 . S
C1270 C1272 1.356 . S
C1270 O1295 1.325 . S
C1271 C1270 1.348 . S
C1271 C1273 1.353 . S
C1271 H1312 0.929 . S
C1272 C1270 1.356 . S
C1272 C1274 1.358 . S
C1272 H1313 0.930 . S
C1273 C1271 1.353 . S
C1273 N1275 1.314 . S
C1273 H1314 0.930 . S
C1274 C1272 1.358 . S
C1274 N1275 1.279 . S
C1274 H1315 0.930 . S
N1275 C1273 1.314 . S
N1275 C1274 1.279 . S
C1276 C1278 1.353 . S
C1276 N1279 1.314 . S
C1276 H1282 0.930 . S
C1277 N1279 1.279 . S
C1277 C1280 1.358 . S
C1277 H1283 0.930 . S
C1278 C1276 1.353 . S
C1278 C1281 1.348 . S
C1278 H1316 0.929 . S
N1279 Li1234 1.990 . S
N1279 C1276 1.314 . S
N1279 C1277 1.279 . S
C1280 C1277 1.358 . S
C1280 C1281 1.356 . S
C1280 H1317 0.930 . S
C1281 C1278 1.348 . S
C1281 C1280 1.356 . S
H1282 C1276 0.930 . S
H1283 C1277 0.930 . S
C1284 N1285 1.314 . S
C1284 C1286 1.353 . S
C1284 H1290 0.930 . S
N1285 Li1235 1.990 . S
N1285 C1284 1.314 . S
N1285 C1288 1.279 . S
C1286 C1284 1.353 . S
C1286 C1289 1.348 . S
C1286 H1318 0.929 . S
C1287 C1288 1.358 . S
C1287 C1289 1.356 . S
C1287 H1319 0.930 . S
C1288 N1285 1.279 . S
C1288 C1287 1.358 . S
C1288 H1291 0.930 . S
C1289 C1286 1.348 . S
C1289 C1287 1.356 . S
H1290 C1284 0.930 . S
H1291 C1288 0.930 . S
O1292 Li1232 1.956 . S
O1292 Li1233 1.970 . S
O1292 Li1234 1.961 . S
O1292 C1236 1.325 . S
O1293 Li1232 1.970 . S
O1293 Li1233 1.956 . S
O1293 Li1235 1.961 . S
O1293 C1242 1.325 . S
O1294 Li1232 1.961 . S
O1294 Li1234 1.956 . S
O1294 Li1235 1.970 . S
O1294 C1264 1.325 . S
O1295 Li1233 1.961 . S
O1295 Li1234 1.970 . S
O1295 Li1235 1.956 . S
O1295 C1270 1.325 . S
H1296 C1238 0.929 . S
H1297 C1239 0.930 . S
H1298 C1240 0.930 . S
H1299 C1241 0.930 . S
H1300 C1243 0.930 . S
H1301 C1245 0.929 . S
H1302 C1246 0.930 . S
H1303 C1247 0.930 . S
H1304 C1250 0.930 . S
H1305 C1253 0.929 . S
H1306 C1258 0.929 . S
H1307 C1259 0.930 . S
H1308 C1266 0.929 . S
H1309 C1267 0.930 . S
H1310 C1268 0.930 . S
H1311 C1269 0.930 . S
H1312 C1271 0.929 . S
H1313 C1272 0.930 . S
H1314 C1273 0.930 . S
H1315 C1274 0.930 . S
H1316 C1278 0.929 . S
H1317 C1280 0.930 . S
H1318 C1286 0.929 . S
H1319 C1287 0.930 . S
Li1320 N1337 1.990 . S
Li1320 O1380 1.956 . S
Li1320 O1381 1.970 . S
Li1320 O1382 1.961 . S
Li1321 N1345 1.990 . S
Li1321 O1380 1.970 . S
Li1321 O1381 1.956 . S
Li1321 O1383 1.961 . S
Li1322 N1367 1.990 . S
Li1322 O1380 1.961 . S
Li1322 O1382 1.956 . S
Li1322 O1383 1.970 . S
Li1323 N1373 1.990 . S
Li1323 O1381 1.961 . S
Li1323 O1382 1.970 . S
Li1323 O1383 1.956 . S
C1324 C1326 1.348 . S
C1324 C1327 1.356 . S
C1324 O1380 1.325 . S
N1325 C1328 1.314 . S
N1325 C1329 1.279 . S
C1326 C1324 1.348 . S
C1326 C1328 1.353 . S
C1326 H1384 0.929 . S
C1327 C1324 1.356 . S
C1327 C1329 1.358 . S
C1327 H1385 0.930 . S
C1328 N1325 1.314 . S
C1328 C1326 1.353 . S
C1328 H1386 0.930 . S
C1329 N1325 1.279 . S
C1329 C1327 1.358 . S
C1329 H1387 0.930 . S
C1330 C1333 1.348 . S
C1330 C1334 1.356 . S
C1330 O1381 1.325 . S
C1331 N1332 1.279 . S
C1331 C1334 1.358 . S
C1331 H1388 0.930 . S
N1332 C1331 1.279 . S
N1332 C1335 1.314 . S
C1333 C1330 1.348 . S
C1333 C1335 1.353 . S
C1333 H1389 0.929 . S
C1334 C1330 1.356 . S
C1334 C1331 1.358 . S
C1334 H1390 0.930 . S
C1335 N1332 1.314 . S
C1335 C1333 1.353 . S
C1335 H1391 0.930 . S
C1336 N1337 1.314 . S
C1336 C1341 1.353 . S
C1336 H1342 0.930 . S
N1337 Li1320 1.990 . S
N1337 C1336 1.314 . S
N1337 C1339 1.279 . S
C1338 C1339 1.358 . S
C1338 C1340 1.356 . S
C1338 H1392 0.930 . S
C1339 N1337 1.279 . S
C1339 C1338 1.358 . S
C1339 H1343 0.930 . S
C1340 C1338 1.356 . S
C1340 C1341 1.348 . S
C1341 C1336 1.353 . S
C1341 C1340 1.348 . S
C1341 H1393 0.929 . S
H1342 C1336 0.930 . S
H1343 C1339 0.930 . S
C1344 N1345 1.314 . S
C1344 C1346 1.353 . S
C1344 H1350 0.930 . S
N1345 Li1321 1.990 . S
N1345 C1344 1.314 . S
N1345 C1348 1.279 . S
C1346 C1344 1.353 . S
C1346 C1349 1.348 . S
C1346 H1394 0.929 . S
C1347 C1348 1.358 . S
C1347 C1349 1.356 . S
C1347 H1395 0.930 . S
C1348 N1345 1.279 . S
C1348 C1347 1.358 . S
C1348 H1351 0.930 . S
C1349 C1346 1.348 . S
C1349 C1347 1.356 . S
H1350 C1344 0.930 . S
H1351 C1348 0.930 . S
C1352 C1354 1.348 . S
C1352 C1355 1.356 . S
C1352 O1382 1.325 . S
N1353 C1356 1.314 . S
N1353 C1357 1.279 . S
C1354 C1352 1.348 . S
C1354 C1356 1.353 . S
C1354 H1396 0.929 . S
C1355 C1352 1.356 . S
C1355 C1357 1.358 . S
C1355 H1397 0.930 . S
C1356 N1353 1.314 . S
C1356 C1354 1.353 . S
C1356 H1398 0.930 . S
C1357 N1353 1.279 . S
C1357 C1355 1.358 . S
C1357 H1399 0.930 . S
C1358 C1359 1.348 . S
C1358 C1360 1.356 . S
C1358 O1383 1.325 . S
C1359 C1358 1.348 . S
C1359 C1361 1.353 . S
C1359 H1400 0.929 . S
C1360 C1358 1.356 . S
C1360 C1362 1.358 . S
C1360 H1401 0.930 . S
C1361 C1359 1.353 . S
C1361 N1363 1.314 . S
C1361 H1402 0.930 . S
C1362 C1360 1.358 . S
C1362 N1363 1.279 . S
C1362 H1403 0.930 . S
N1363 C1361 1.314 . S
N1363 C1362 1.279 . S
C1364 C1366 1.353 . S
C1364 N1367 1.314 . S
C1364 H1370 0.930 . S
C1365 N1367 1.279 . S
C1365 C1368 1.358 . S
C1365 H1371 0.930 . S
C1366 C1364 1.353 . S
C1366 C1369 1.348 . S
C1366 H1404 0.929 . S
N1367 Li1322 1.990 . S
N1367 C1364 1.314 . S
N1367 C1365 1.279 . S
C1368 C1365 1.358 . S
C1368 C1369 1.356 . S
C1368 H1405 0.930 . S
C1369 C1366 1.348 . S
C1369 C1368 1.356 . S
H1370 C1364 0.930 . S
H1371 C1365 0.930 . S
C1372 N1373 1.314 . S
C1372 C1374 1.353 . S
C1372 H1378 0.930 . S
N1373 Li1323 1.990 . S
N1373 C1372 1.314 . S
N1373 C1376 1.279 . S
C1374 C1372 1.353 . S
C1374 C1377 1.348 . S
C1374 H1406 0.929 . S
C1375 C1376 1.358 . S
C1375 C1377 1.356 . S
C1375 H1407 0.930 . S
C1376 N1373 1.279 . S
C1376 C1375 1.358 . S
C1376 H1379 0.930 . S
C1377 C1374 1.348 . S
C1377 C1375 1.356 . S
H1378 C1372 0.930 . S
H1379 C1376 0.930 . S
O1380 Li1320 1.956 . S
O1380 Li1321 1.970 . S
O1380 Li1322 1.961 . S
O1380 C1324 1.325 . S
O1381 Li1320 1.970 . S
O1381 Li1321 1.956 . S
O1381 Li1323 1.961 . S
O1381 C1330 1.325 . S
O1382 Li1320 1.961 . S
O1382 Li1322 1.956 . S
O1382 Li1323 1.970 . S
O1382 C1352 1.325 . S
O1383 Li1321 1.961 . S
O1383 Li1322 1.970 . S
O1383 Li1323 1.956 . S
O1383 C1358 1.325 . S
H1384 C1326 0.929 . S
H1385 C1327 0.930 . S
H1386 C1328 0.930 . S
H1387 C1329 0.930 . S
H1388 C1331 0.930 . S
H1389 C1333 0.929 . S
H1390 C1334 0.930 . S
H1391 C1335 0.930 . S
H1392 C1338 0.930 . S
H1393 C1341 0.929 . S
H1394 C1346 0.929 . S
H1395 C1347 0.930 . S
H1396 C1354 0.929 . S
H1397 C1355 0.930 . S
H1398 C1356 0.930 . S
H1399 C1357 0.930 . S
H1400 C1359 0.929 . S
H1401 C1360 0.930 . S
H1402 C1361 0.930 . S
H1403 C1362 0.930 . S
H1404 C1366 0.929 . S
H1405 C1368 0.930 . S
H1406 C1374 0.929 . S
H1407 C1375 0.930 . S
H1408 C1414 0.930 . S
H1409 C1418 0.930 . S
H1410 C1423 0.929 . S
H1411 C1421 0.929 . S
H1412 C1416 0.929 . S
H1413 C1422 0.929 . S
C1414 H1408 0.930 . S
C1414 C1415 1.367 . S
C1414 C1422 1.378 . S
C1415 C1414 1.367 . S
C1415 C1423 1.433 . S
C1416 H1412 0.929 . S
C1416 C1418 1.378 . S
C1416 C1420 1.350 . S
C1417 C1420 1.463 . S
C1417 C1422 1.350 . S
C1417 N1425 1.427 . S
C1418 H1409 0.930 . S
C1418 C1416 1.378 . S
C1418 C1419 1.367 . S
C1419 C1418 1.367 . S
C1419 C1421 1.433 . S
C1420 C1416 1.350 . S
C1420 C1417 1.463 . S
C1420 N1424 1.427 . S
C1421 H1411 0.929 . S
C1421 C1419 1.433 . S
C1421 N1424 1.384 . S
C1422 H1413 0.929 . S
C1422 C1414 1.378 . S
C1422 C1417 1.350 . S
C1423 H1410 0.929 . S
C1423 C1415 1.433 . S
C1423 N1425 1.384 . S
N1424 C1420 1.427 . S
N1424 C1421 1.384 . S
N1425 C1417 1.427 . S
N1425 C1423 1.384 . S
H1426 C1432 0.930 . S
H1427 C1436 0.930 . S
H1428 C1441 0.929 . S
H1429 C1439 0.929 . S
H1430 C1434 0.929 . S
H1431 C1440 0.929 . S
C1432 H1426 0.930 . S
C1432 C1433 1.367 . S
C1432 C1440 1.378 . S
C1433 C1432 1.367 . S
C1433 C1441 1.433 . S
C1434 H1430 0.929 . S
C1434 C1436 1.378 . S
C1434 C1438 1.350 . S
C1435 C1438 1.463 . S
C1435 C1440 1.350 . S
C1435 N1443 1.427 . S
C1436 H1427 0.930 . S
C1436 C1434 1.378 . S
C1436 C1437 1.367 . S
C1437 C1436 1.367 . S
C1437 C1439 1.433 . S
C1438 C1434 1.350 . S
C1438 C1435 1.463 . S
C1438 N1442 1.427 . S
C1439 H1429 0.929 . S
C1439 C1437 1.433 . S
C1439 N1442 1.384 . S
C1440 H1431 0.929 . S
C1440 C1432 1.378 . S
C1440 C1435 1.350 . S
C1441 H1428 0.929 . S
C1441 C1433 1.433 . S
C1441 N1443 1.384 . S
N1442 C1438 1.427 . S
N1442 C1439 1.384 . S
N1443 C1435 1.427 . S
N1443 C1441 1.384 . S
H1444 C1450 0.930 . S
H1445 C1454 0.930 . S
H1446 C1459 0.929 . S
H1447 C1457 0.929 . S
H1448 C1452 0.929 . S
H1449 C1458 0.929 . S
C1450 H1444 0.930 . S
C1450 C1451 1.367 . S
C1450 C1458 1.378 . S
C1451 C1450 1.367 . S
C1451 C1459 1.433 . S
C1452 H1448 0.929 . S
C1452 C1454 1.378 . S
C1452 C1456 1.350 . S
C1453 C1456 1.463 . S
C1453 C1458 1.350 . S
C1453 N1461 1.427 . S
C1454 H1445 0.930 . S
C1454 C1452 1.378 . S
C1454 C1455 1.367 . S
C1455 C1454 1.367 . S
C1455 C1457 1.433 . S
C1456 C1452 1.350 . S
C1456 C1453 1.463 . S
C1456 N1460 1.427 . S
C1457 H1447 0.929 . S
C1457 C1455 1.433 . S
C1457 N1460 1.384 . S
C1458 H1449 0.929 . S
C1458 C1450 1.378 . S
C1458 C1453 1.350 . S
C1459 H1446 0.929 . S
C1459 C1451 1.433 . S
C1459 N1461 1.384 . S
N1460 C1456 1.427 . S
N1460 C1457 1.384 . S
N1461 C1453 1.427 . S
N1461 C1459 1.384 . S
H1462 C1468 0.930 . S
H1463 C1472 0.930 . S
H1464 C1477 0.929 . S
H1465 C1475 0.929 . S
H1466 C1470 0.929 . S
H1467 C1476 0.929 . S
C1468 H1462 0.930 . S
C1468 C1469 1.367 . S
C1468 C1476 1.378 . S
C1469 C1468 1.367 . S
C1469 C1477 1.433 . S
C1470 H1466 0.929 . S
C1470 C1472 1.378 . S
C1470 C1474 1.350 . S
C1471 C1474 1.463 . S
C1471 C1476 1.350 . S
C1471 N1479 1.427 . S
C1472 H1463 0.930 . S
C1472 C1470 1.378 . S
C1472 C1473 1.367 . S
C1473 C1472 1.367 . S
C1473 C1475 1.433 . S
C1474 C1470 1.350 . S
C1474 C1471 1.463 . S
C1474 N1478 1.427 . S
C1475 H1465 0.929 . S
C1475 C1473 1.433 . S
C1475 N1478 1.384 . S
C1476 H1467 0.929 . S
C1476 C1468 1.378 . S
C1476 C1471 1.350 . S
C1477 H1464 0.929 . S
C1477 C1469 1.433 . S
C1477 N1479 1.384 . S
N1478 C1474 1.427 . S
N1478 C1475 1.384 . S
N1479 C1471 1.427 . S
N1479 C1477 1.384 . S
H1480 C1486 0.930 . S
H1481 C1490 0.930 . S
H1482 C1495 0.929 . S
H1483 C1493 0.929 . S
H1484 C1488 0.929 . S
H1485 C1494 0.929 . S
C1486 H1480 0.930 . S
C1486 C1487 1.367 . S
C1486 C1494 1.378 . S
C1487 C1486 1.367 . S
C1487 C1495 1.433 . S
C1488 H1484 0.929 . S
C1488 C1490 1.378 . S
C1488 C1492 1.350 . S
C1489 C1492 1.463 . S
C1489 C1494 1.350 . S
C1489 N1497 1.427 . S
C1490 H1481 0.930 . S
C1490 C1488 1.378 . S
C1490 C1491 1.367 . S
C1491 C1490 1.367 . S
C1491 C1493 1.433 . S
C1492 C1488 1.350 . S
C1492 C1489 1.463 . S
C1492 N1496 1.427 . S
C1493 H1483 0.929 . S
C1493 C1491 1.433 . S
C1493 N1496 1.384 . S
C1494 H1485 0.929 . S
C1494 C1486 1.378 . S
C1494 C1489 1.350 . S
C1495 H1482 0.929 . S
C1495 C1487 1.433 . S
C1495 N1497 1.384 . S
N1496 C1492 1.427 . S
N1496 C1493 1.384 . S
N1497 C1489 1.427 . S
N1497 C1495 1.384 . S
H1498 C1504 0.930 . S
H1499 C1508 0.930 . S
H1500 C1513 0.929 . S
H1501 C1511 0.929 . S
H1502 C1506 0.929 . S
H1503 C1512 0.929 . S
C1504 H1498 0.930 . S
C1504 C1505 1.367 . S
C1504 C1512 1.378 . S
C1505 C1504 1.367 . S
C1505 C1513 1.433 . S
C1506 H1502 0.929 . S
C1506 C1508 1.378 . S
C1506 C1510 1.350 . S
C1507 C1510 1.463 . S
C1507 C1512 1.350 . S
C1507 N1515 1.427 . S
C1508 H1499 0.930 . S
C1508 C1506 1.378 . S
C1508 C1509 1.367 . S
C1509 C1508 1.367 . S
C1509 C1511 1.433 . S
C1510 C1506 1.350 . S
C1510 C1507 1.463 . S
C1510 N1514 1.427 . S
C1511 H1501 0.929 . S
C1511 C1509 1.433 . S
C1511 N1514 1.384 . S
C1512 H1503 0.929 . S
C1512 C1504 1.378 . S
C1512 C1507 1.350 . S
C1513 H1500 0.929 . S
C1513 C1505 1.433 . S
C1513 N1515 1.384 . S
N1514 C1510 1.427 . S
N1514 C1511 1.384 . S
N1515 C1507 1.427 . S
N1515 C1513 1.384 . S
H1516 C1522 0.930 . S
H1517 C1526 0.930 . S
H1518 C1531 0.929 . S
H1519 C1529 0.929 . S
H1520 C1524 0.929 . S
H1521 C1530 0.929 . S
C1522 H1516 0.930 . S
C1522 C1523 1.367 . S
C1522 C1530 1.378 . S
C1523 C1522 1.367 . S
C1523 C1531 1.433 . S
C1524 H1520 0.929 . S
C1524 C1526 1.378 . S
C1524 C1528 1.350 . S
C1525 C1528 1.463 . S
C1525 C1530 1.350 . S
C1525 N1533 1.427 . S
C1526 H1517 0.930 . S
C1526 C1524 1.378 . S
C1526 C1527 1.367 . S
C1527 C1526 1.367 . S
C1527 C1529 1.433 . S
C1528 C1524 1.350 . S
C1528 C1525 1.463 . S
C1528 N1532 1.427 . S
C1529 H1519 0.929 . S
C1529 C1527 1.433 . S
C1529 N1532 1.384 . S
C1530 H1521 0.929 . S
C1530 C1522 1.378 . S
C1530 C1525 1.350 . S
C1531 H1518 0.929 . S
C1531 C1523 1.433 . S
C1531 N1533 1.384 . S
N1532 C1528 1.427 . S
N1532 C1529 1.384 . S
N1533 C1525 1.427 . S
N1533 C1531 1.384 . S
H1534 C1540 0.930 . S
H1535 C1544 0.930 . S
H1536 C1549 0.929 . S
H1537 C1547 0.929 . S
H1538 C1542 0.929 . S
H1539 C1548 0.929 . S
C1540 H1534 0.930 . S
C1540 C1541 1.367 . S
C1540 C1548 1.378 . S
C1541 C1540 1.367 . S
C1541 C1549 1.433 . S
C1542 H1538 0.929 . S
C1542 C1544 1.378 . S
C1542 C1546 1.350 . S
C1543 C1546 1.463 . S
C1543 C1548 1.350 . S
C1543 N1551 1.427 . S
C1544 H1535 0.930 . S
C1544 C1542 1.378 . S
C1544 C1545 1.367 . S
C1545 C1544 1.367 . S
C1545 C1547 1.433 . S
C1546 C1542 1.350 . S
C1546 C1543 1.463 . S
C1546 N1550 1.427 . S
C1547 H1537 0.929 . S
C1547 C1545 1.433 . S
C1547 N1550 1.384 . S
C1548 H1539 0.929 . S
C1548 C1540 1.378 . S
C1548 C1543 1.350 . S
C1549 H1536 0.929 . S
C1549 C1541 1.433 . S
C1549 N1551 1.384 . S
N1550 C1546 1.427 . S
N1550 C1547 1.384 . S
N1551 C1543 1.427 . S
N1551 C1549 1.384 . S
H1552 C1558 0.930 . S
H1553 C1562 0.930 . S
H1554 C1567 0.929 . S
H1555 C1565 0.929 . S
H1556 C1560 0.929 1_565 S
H1557 C1566 0.929 1_545 S
C1558 H1552 0.930 . S
C1558 C1559 1.367 . S
C1558 C1566 1.378 . S
C1559 C1558 1.367 . S
C1559 C1567 1.433 . S
C1560 H1556 0.929 1_545 S
C1560 C1562 1.378 . S
C1560 C1564 1.350 . S
C1561 C1564 1.463 1_565 S
C1561 C1566 1.350 . S
C1561 N1569 1.427 . S
C1562 H1553 0.930 . S
C1562 C1560 1.378 . S
C1562 C1563 1.367 . S
C1563 C1562 1.367 . S
C1563 C1565 1.433 . S
C1564 C1560 1.350 . S
C1564 C1561 1.463 1_545 S
C1564 N1568 1.427 . S
C1565 H1555 0.929 . S
C1565 C1563 1.433 . S
C1565 N1568 1.384 . S
C1566 H1557 0.929 1_565 S
C1566 C1558 1.378 . S
C1566 C1561 1.350 . S
C1567 H1554 0.929 . S
C1567 C1559 1.433 . S
C1567 N1569 1.384 . S
N1568 C1564 1.427 . S
N1568 C1565 1.384 . S
N1569 C1561 1.427 . S
N1569 C1567 1.384 . S
H1570 C1576 0.930 . S
H1571 C1580 0.930 . S
H1572 C1585 0.929 . S
H1573 C1583 0.929 . S
H1574 C1578 0.929 . S
H1575 C1584 0.929 . S
C1576 H1570 0.930 . S
C1576 C1577 1.367 . S
C1576 C1584 1.378 . S
C1577 C1576 1.367 . S
C1577 C1585 1.433 . S
C1578 H1574 0.929 . S
C1578 C1580 1.378 . S
C1578 C1582 1.350 . S
C1579 C1582 1.463 . S
C1579 C1584 1.350 . S
C1579 N1587 1.427 . S
C1580 H1571 0.930 . S
C1580 C1578 1.378 . S
C1580 C1581 1.367 . S
C1581 C1580 1.367 . S
C1581 C1583 1.433 . S
C1582 C1578 1.350 . S
C1582 C1579 1.463 . S
C1582 N1586 1.427 . S
C1583 H1573 0.929 . S
C1583 C1581 1.433 . S
C1583 N1586 1.384 . S
C1584 H1575 0.929 . S
C1584 C1576 1.378 . S
C1584 C1579 1.350 . S
C1585 H1572 0.929 . S
C1585 C1577 1.433 . S
C1585 N1587 1.384 . S
N1586 C1582 1.427 . S
N1586 C1583 1.384 . S
N1587 C1579 1.427 . S
N1587 C1585 1.384 . S
H1588 C1594 0.930 . S
H1589 C1598 0.930 . S
H1590 C1603 0.929 . S
H1591 C1601 0.929 . S
H1592 C1596 0.929 . S
H1593 C1602 0.929 . S
C1594 H1588 0.930 . S
C1594 C1595 1.367 . S
C1594 C1602 1.378 . S
C1595 C1594 1.367 . S
C1595 C1603 1.433 . S
C1596 H1592 0.929 . S
C1596 C1598 1.378 . S
C1596 C1600 1.350 . S
C1597 C1600 1.463 1_556 S
C1597 C1602 1.350 . S
C1597 N1605 1.427 . S
C1598 H1589 0.930 . S
C1598 C1596 1.378 . S
C1598 C1599 1.367 . S
C1599 C1598 1.367 . S
C1599 C1601 1.433 . S
C1600 C1596 1.350 . S
C1600 C1597 1.463 1_554 S
C1600 N1604 1.427 . S
C1601 H1591 0.929 . S
C1601 C1599 1.433 . S
C1601 N1604 1.384 . S
C1602 H1593 0.929 . S
C1602 C1594 1.378 . S
C1602 C1597 1.350 . S
C1603 H1590 0.929 . S
C1603 C1595 1.433 . S
C1603 N1605 1.384 . S
N1604 C1600 1.427 . S
N1604 C1601 1.384 . S
N1605 C1597 1.427 . S
N1605 C1603 1.384 . S
H1606 C1612 0.930 . S
H1607 C1616 0.930 . S
H1608 C1621 0.929 . S
H1609 C1619 0.929 . S
H1610 C1614 0.929 . S
H1611 C1620 0.929 . S
C1612 H1606 0.930 . S
C1612 C1613 1.367 . S
C1612 C1620 1.378 . S
C1613 C1612 1.367 . S
C1613 C1621 1.433 . S
C1614 H1610 0.929 . S
C1614 C1616 1.378 . S
C1614 C1618 1.350 . S
C1615 C1618 1.463 1_554 S
C1615 C1620 1.350 . S
C1615 N1623 1.427 . S
C1616 H1607 0.930 . S
C1616 C1614 1.378 . S
C1616 C1617 1.367 . S
C1617 C1616 1.367 . S
C1617 C1619 1.433 . S
C1618 C1614 1.350 . S
C1618 C1615 1.463 1_556 S
C1618 N1622 1.427 . S
C1619 H1609 0.929 . S
C1619 C1617 1.433 . S
C1619 N1622 1.384 . S
C1620 H1611 0.929 . S
C1620 C1612 1.378 . S
C1620 C1615 1.350 . S
C1621 H1608 0.929 . S
C1621 C1613 1.433 . S
C1621 N1623 1.384 . S
N1622 C1618 1.427 . S
N1622 C1619 1.384 . S
N1623 C1615 1.427 . S
N1623 C1621 1.384 . S
H1624 C1630 0.930 . S
H1625 C1634 0.930 . S
H1626 C1639 0.929 . S
H1627 C1637 0.929 . S
H1628 C1632 0.929 . S
H1629 C1638 0.929 . S
C1630 H1624 0.930 . S
C1630 C1631 1.367 . S
C1630 C1638 1.378 . S
C1631 C1630 1.367 . S
C1631 C1639 1.433 . S
C1632 H1628 0.929 . S
C1632 C1634 1.378 . S
C1632 C1636 1.350 . S
C1633 C1636 1.463 . S
C1633 C1638 1.350 . S
C1633 N1641 1.427 . S
C1634 H1625 0.930 . S
C1634 C1632 1.378 . S
C1634 C1635 1.367 . S
C1635 C1634 1.367 . S
C1635 C1637 1.433 . S
C1636 C1632 1.350 . S
C1636 C1633 1.463 . S
C1636 N1640 1.427 . S
C1637 H1627 0.929 . S
C1637 C1635 1.433 . S
C1637 N1640 1.384 . S
C1638 H1629 0.929 . S
C1638 C1630 1.378 . S
C1638 C1633 1.350 . S
C1639 H1626 0.929 . S
C1639 C1631 1.433 . S
C1639 N1641 1.384 . S
N1640 C1636 1.427 . S
N1640 C1637 1.384 . S
N1641 C1633 1.427 . S
N1641 C1639 1.384 . S
H1642 C1648 0.930 . S
H1643 C1652 0.930 . S
H1644 C1657 0.929 . S
H1645 C1655 0.929 . S
H1646 C1650 0.929 . S
H1647 C1656 0.929 . S
C1648 H1642 0.930 . S
C1648 C1649 1.367 . S
C1648 C1656 1.378 . S
C1649 C1648 1.367 . S
C1649 C1657 1.433 . S
C1650 H1646 0.929 . S
C1650 C1652 1.378 . S
C1650 C1654 1.350 . S
C1651 C1654 1.463 . S
C1651 C1656 1.350 . S
C1651 N1659 1.427 . S
C1652 H1643 0.930 . S
C1652 C1650 1.378 . S
C1652 C1653 1.367 . S
C1653 C1652 1.367 . S
C1653 C1655 1.433 . S
C1654 C1650 1.350 . S
C1654 C1651 1.463 . S
C1654 N1658 1.427 . S
C1655 H1645 0.929 . S
C1655 C1653 1.433 . S
C1655 N1658 1.384 . S
C1656 H1647 0.929 . S
C1656 C1648 1.378 . S
C1656 C1651 1.350 . S
C1657 H1644 0.929 . S
C1657 C1649 1.433 . S
C1657 N1659 1.384 . S
N1658 C1654 1.427 . S
N1658 C1655 1.384 . S
N1659 C1651 1.427 . S
N1659 C1657 1.384 . S
H1660 C1666 0.930 . S
H1661 C1670 0.930 . S
H1662 C1675 0.929 . S
H1663 C1673 0.929 . S
H1664 C1668 0.929 1_655 S
H1665 C1674 0.929 1_455 S
C1666 H1660 0.930 . S
C1666 C1667 1.367 . S
C1666 C1674 1.378 . S
C1667 C1666 1.367 . S
C1667 C1675 1.433 . S
C1668 H1664 0.929 1_455 S
C1668 C1670 1.378 . S
C1668 C1672 1.350 . S
C1669 C1672 1.463 1_655 S
C1669 C1674 1.350 . S
C1669 N1677 1.427 . S
C1670 H1661 0.930 . S
C1670 C1668 1.378 . S
C1670 C1671 1.367 . S
C1671 C1670 1.367 . S
C1671 C1673 1.433 . S
C1672 C1668 1.350 . S
C1672 C1669 1.463 1_455 S
C1672 N1676 1.427 . S
C1673 H1663 0.929 . S
C1673 C1671 1.433 . S
C1673 N1676 1.384 . S
C1674 H1665 0.929 1_655 S
C1674 C1666 1.378 . S
C1674 C1669 1.350 . S
C1675 H1662 0.929 . S
C1675 C1667 1.433 . S
C1675 N1677 1.384 . S
N1676 C1672 1.427 . S
N1676 C1673 1.384 . S
N1677 C1669 1.427 . S
N1677 C1675 1.384 . S
H1678 C1684 0.930 . S
H1679 C1688 0.930 . S
H1680 C1693 0.929 . S
H1681 C1691 0.929 . S
H1682 C1686 0.929 . S
H1683 C1692 0.929 . S
C1684 H1678 0.930 . S
C1684 C1685 1.367 . S
C1684 C1692 1.378 . S
C1685 C1684 1.367 . S
C1685 C1693 1.433 . S
C1686 H1682 0.929 . S
C1686 C1688 1.378 . S
C1686 C1690 1.350 . S
C1687 C1690 1.463 1_655 S
C1687 C1692 1.350 . S
C1687 N1695 1.427 . S
C1688 H1679 0.930 . S
C1688 C1686 1.378 . S
C1688 C1689 1.367 . S
C1689 C1688 1.367 . S
C1689 C1691 1.433 . S
C1690 C1686 1.350 . S
C1690 C1687 1.463 1_455 S
C1690 N1694 1.427 . S
C1691 H1681 0.929 . S
C1691 C1689 1.433 . S
C1691 N1694 1.384 . S
C1692 H1683 0.929 . S
C1692 C1684 1.378 . S
C1692 C1687 1.350 . S
C1693 H1680 0.929 . S
C1693 C1685 1.433 . S
C1693 N1695 1.384 . S
N1694 C1690 1.427 . S
N1694 C1691 1.384 . S
N1695 C1687 1.427 . S
N1695 C1693 1.384 . S
H1696 C1702 0.930 . S
H1697 C1706 0.930 . S
H1698 C1711 0.929 . S
H1699 C1709 0.929 . S
H1700 C1704 0.929 . S
H1701 C1710 0.929 . S
C1702 H1696 0.930 . S
C1702 C1703 1.367 . S
C1702 C1710 1.378 . S
C1703 C1702 1.367 . S
C1703 C1711 1.433 . S
C1704 H1700 0.929 . S
C1704 C1706 1.378 . S
C1704 C1708 1.350 . S
C1705 C1708 1.463 . S
C1705 C1710 1.350 . S
C1705 N1713 1.427 . S
C1706 H1697 0.930 . S
C1706 C1704 1.378 . S
C1706 C1707 1.367 . S
C1707 C1706 1.367 . S
C1707 C1709 1.433 . S
C1708 C1704 1.350 . S
C1708 C1705 1.463 . S
C1708 N1712 1.427 . S
C1709 H1699 0.929 . S
C1709 C1707 1.433 . S
C1709 N1712 1.384 . S
C1710 H1701 0.929 . S
C1710 C1702 1.378 . S
C1710 C1705 1.350 . S
C1711 H1698 0.929 . S
C1711 C1703 1.433 . S
C1711 N1713 1.384 . S
N1712 C1708 1.427 . S
N1712 C1709 1.384 . S
N1713 C1705 1.427 . S
N1713 C1711 1.384 . S
H1714 C1720 0.930 . S
H1715 C1724 0.930 . S
H1716 C1729 0.929 . S
H1717 C1727 0.929 . S
H1718 C1722 0.929 . S
H1719 C1728 0.929 . S
C1720 H1714 0.930 . S
C1720 C1721 1.367 . S
C1720 C1728 1.378 . S
C1721 C1720 1.367 . S
C1721 C1729 1.433 . S
C1722 H1718 0.929 . S
C1722 C1724 1.378 . S
C1722 C1726 1.350 . S
C1723 C1726 1.463 1_545 S
C1723 C1728 1.350 . S
C1723 N1731 1.427 . S
C1724 H1715 0.930 . S
C1724 C1722 1.378 . S
C1724 C1725 1.367 . S
C1725 C1724 1.367 . S
C1725 C1727 1.433 . S
C1726 C1722 1.350 . S
C1726 C1723 1.463 1_565 S
C1726 N1730 1.427 . S
C1727 H1717 0.929 . S
C1727 C1725 1.433 . S
C1727 N1730 1.384 . S
C1728 H1719 0.929 . S
C1728 C1720 1.378 . S
C1728 C1723 1.350 . S
C1729 H1716 0.929 . S
C1729 C1721 1.433 . S
C1729 N1731 1.384 . S
N1730 C1726 1.427 . S
N1730 C1727 1.384 . S
N1731 C1723 1.427 . S
N1731 C1729 1.384 . S
H1732 C1738 0.930 . S
H1733 C1742 0.930 . S
H1734 C1747 0.929 . S
H1735 C1745 0.929 . S
H1736 C1740 0.929 . S
H1737 C1746 0.929 . S
C1738 H1732 0.930 . S
C1738 C1739 1.367 . S
C1738 C1746 1.378 . S
C1739 C1738 1.367 . S
C1739 C1747 1.433 . S
C1740 H1736 0.929 . S
C1740 C1742 1.378 . S
C1740 C1744 1.350 . S
C1741 C1744 1.463 . S
C1741 C1746 1.350 . S
C1741 N1749 1.427 . S
C1742 H1733 0.930 . S
C1742 C1740 1.378 . S
C1742 C1743 1.367 . S
C1743 C1742 1.367 . S
C1743 C1745 1.433 . S
C1744 C1740 1.350 . S
C1744 C1741 1.463 . S
C1744 N1748 1.427 . S
C1745 H1735 0.929 . S
C1745 C1743 1.433 . S
C1745 N1748 1.384 . S
C1746 H1737 0.929 . S
C1746 C1738 1.378 . S
C1746 C1741 1.350 . S
C1747 H1734 0.929 . S
C1747 C1739 1.433 . S
C1747 N1749 1.384 . S
N1748 C1744 1.427 . S
N1748 C1745 1.384 . S
N1749 C1741 1.427 . S
N1749 C1747 1.384 . S
H1750 C1756 0.930 . S
H1751 C1760 0.930 . S
H1752 C1765 0.929 . S
H1753 C1763 0.929 . S
H1754 C1758 0.929 . S
H1755 C1764 0.929 . S
C1756 H1750 0.930 . S
C1756 C1757 1.367 . S
C1756 C1764 1.378 . S
C1757 C1756 1.367 . S
C1757 C1765 1.433 . S
C1758 H1754 0.929 . S
C1758 C1760 1.378 . S
C1758 C1762 1.350 . S
C1759 C1762 1.463 1_554 S
C1759 C1764 1.350 . S
C1759 N1767 1.427 . S
C1760 H1751 0.930 . S
C1760 C1758 1.378 . S
C1760 C1761 1.367 . S
C1761 C1760 1.367 . S
C1761 C1763 1.433 . S
C1762 C1758 1.350 . S
C1762 C1759 1.463 1_556 S
C1762 N1766 1.427 . S
C1763 H1753 0.929 . S
C1763 C1761 1.433 . S
C1763 N1766 1.384 . S
C1764 H1755 0.929 . S
C1764 C1756 1.378 . S
C1764 C1759 1.350 . S
C1765 H1752 0.929 . S
C1765 C1757 1.433 . S
C1765 N1767 1.384 . S
N1766 C1762 1.427 . S
N1766 C1763 1.384 . S
N1767 C1759 1.427 . S
N1767 C1765 1.384 . S
H1768 C1774 0.930 . S
H1769 C1778 0.930 . S
H1770 C1783 0.929 . S
H1771 C1781 0.929 . S
H1772 C1776 0.929 . S
H1773 C1782 0.929 . S
C1774 H1768 0.930 . S
C1774 C1775 1.367 . S
C1774 C1782 1.378 . S
C1775 C1774 1.367 . S
C1775 C1783 1.433 . S
C1776 H1772 0.929 . S
C1776 C1778 1.378 . S
C1776 C1780 1.350 . S
C1777 C1780 1.463 1_556 S
C1777 C1782 1.350 . S
C1777 N1785 1.427 . S
C1778 H1769 0.930 . S
C1778 C1776 1.378 . S
C1778 C1779 1.367 . S
C1779 C1778 1.367 . S
C1779 C1781 1.433 . S
C1780 C1776 1.350 . S
C1780 C1777 1.463 1_554 S
C1780 N1784 1.427 . S
C1781 H1771 0.929 . S
C1781 C1779 1.433 . S
C1781 N1784 1.384 . S
C1782 H1773 0.929 . S
C1782 C1774 1.378 . S
C1782 C1777 1.350 . S
C1783 H1770 0.929 . S
C1783 C1775 1.433 . S
C1783 N1785 1.384 . S
N1784 C1780 1.427 . S
N1784 C1781 1.384 . S
N1785 C1777 1.427 . S
N1785 C1783 1.384 . S
H1786 C1792 0.930 . S
H1787 C1796 0.930 . S
H1788 C1801 0.929 . S
H1789 C1799 0.929 . S
H1790 C1794 0.929 . S
H1791 C1800 0.929 . S
C1792 H1786 0.930 . S
C1792 C1793 1.367 . S
C1792 C1800 1.378 . S
C1793 C1792 1.367 . S
C1793 C1801 1.433 . S
C1794 H1790 0.929 . S
C1794 C1796 1.378 . S
C1794 C1798 1.350 . S
C1795 C1798 1.463 . S
C1795 C1800 1.350 . S
C1795 N1803 1.427 . S
C1796 H1787 0.930 . S
C1796 C1794 1.378 . S
C1796 C1797 1.367 . S
C1797 C1796 1.367 . S
C1797 C1799 1.433 . S
C1798 C1794 1.350 . S
C1798 C1795 1.463 . S
C1798 N1802 1.427 . S
C1799 H1789 0.929 . S
C1799 C1797 1.433 . S
C1799 N1802 1.384 . S
C1800 H1791 0.929 . S
C1800 C1792 1.378 . S
C1800 C1795 1.350 . S
C1801 H1788 0.929 . S
C1801 C1793 1.433 . S
C1801 N1803 1.384 . S
N1802 C1798 1.427 . S
N1802 C1799 1.384 . S
N1803 C1795 1.427 . S
N1803 C1801 1.384 . S
H1804 C1810 0.930 . S
H1805 C1814 0.930 . S
H1806 C1819 0.929 . S
H1807 C1817 0.929 . S
H1808 C1812 0.929 . S
H1809 C1818 0.929 . S
C1810 H1804 0.930 . S
C1810 C1811 1.367 . S
C1810 C1818 1.378 . S
C1811 C1810 1.367 . S
C1811 C1819 1.433 . S
C1812 H1808 0.929 . S
C1812 C1814 1.378 . S
C1812 C1816 1.350 . S
C1813 C1816 1.463 . S
C1813 C1818 1.350 . S
C1813 N1821 1.427 . S
C1814 H1805 0.930 . S
C1814 C1812 1.378 . S
C1814 C1815 1.367 . S
C1815 C1814 1.367 . S
C1815 C1817 1.433 . S
C1816 C1812 1.350 . S
C1816 C1813 1.463 . S
C1816 N1820 1.427 . S
C1817 H1807 0.929 . S
C1817 C1815 1.433 . S
C1817 N1820 1.384 . S
C1818 H1809 0.929 . S
C1818 C1810 1.378 . S
C1818 C1813 1.350 . S
C1819 H1806 0.929 . S
C1819 C1811 1.433 . S
C1819 N1821 1.384 . S
N1820 C1816 1.427 . S
N1820 C1817 1.384 . S
N1821 C1813 1.427 . S
N1821 C1819 1.384 . S
H1822 C1828 0.930 . S
H1823 C1832 0.930 . S
H1824 C1837 0.929 . S
H1825 C1835 0.929 . S
H1826 C1830 0.929 1_455 S
H1827 C1836 0.929 1_655 S
C1828 H1822 0.930 . S
C1828 C1829 1.367 . S
C1828 C1836 1.378 . S
C1829 C1828 1.367 . S
C1829 C1837 1.433 . S
C1830 H1826 0.929 1_655 S
C1830 C1832 1.378 . S
C1830 C1834 1.350 . S
C1831 C1834 1.463 1_455 S
C1831 C1836 1.350 . S
C1831 N1839 1.427 . S
C1832 H1823 0.930 . S
C1832 C1830 1.378 . S
C1832 C1833 1.367 . S
C1833 C1832 1.367 . S
C1833 C1835 1.433 . S
C1834 C1830 1.350 . S
C1834 C1831 1.463 1_655 S
C1834 N1838 1.427 . S
C1835 H1825 0.929 . S
C1835 C1833 1.433 . S
C1835 N1838 1.384 . S
C1836 H1827 0.929 1_455 S
C1836 C1828 1.378 . S
C1836 C1831 1.350 . S
C1837 H1824 0.929 . S
C1837 C1829 1.433 . S
C1837 N1839 1.384 . S
N1838 C1834 1.427 . S
N1838 C1835 1.384 . S
N1839 C1831 1.427 . S
N1839 C1837 1.384 . S
H1840 C1846 0.930 . S
H1841 C1850 0.930 . S
H1842 C1855 0.929 . S
H1843 C1853 0.929 . S
H1844 C1848 0.929 . S
H1845 C1854 0.929 . S
C1846 H1840 0.930 . S
C1846 C1847 1.367 . S
C1846 C1854 1.378 . S
C1847 C1846 1.367 . S
C1847 C1855 1.433 . S
C1848 H1844 0.929 . S
C1848 C1850 1.378 . S
C1848 C1852 1.350 . S
C1849 C1852 1.463 1_455 S
C1849 C1854 1.350 . S
C1849 N1857 1.427 . S
C1850 H1841 0.930 . S
C1850 C1848 1.378 . S
C1850 C1851 1.367 . S
C1851 C1850 1.367 . S
C1851 C1853 1.433 . S
C1852 C1848 1.350 . S
C1852 C1849 1.463 1_655 S
C1852 N1856 1.427 . S
C1853 H1843 0.929 . S
C1853 C1851 1.433 . S
C1853 N1856 1.384 . S
C1854 H1845 0.929 . S
C1854 C1846 1.378 . S
C1854 C1849 1.350 . S
C1855 H1842 0.929 . S
C1855 C1847 1.433 . S
C1855 N1857 1.384 . S
N1856 C1852 1.427 . S
N1856 C1853 1.384 . S
N1857 C1849 1.427 . S
N1857 C1855 1.384 . S
H1858 C1864 0.930 . S
H1859 C1868 0.930 . S
H1860 C1873 0.929 . S
H1861 C1871 0.929 . S
H1862 C1866 0.929 . S
H1863 C1872 0.929 . S
C1864 H1858 0.930 . S
C1864 C1865 1.367 . S
C1864 C1872 1.378 . S
C1865 C1864 1.367 . S
C1865 C1873 1.433 . S
C1866 H1862 0.929 . S
C1866 C1868 1.378 . S
C1866 C1870 1.350 . S
C1867 C1870 1.463 . S
C1867 C1872 1.350 . S
C1867 N1875 1.427 . S
C1868 H1859 0.930 . S
C1868 C1866 1.378 . S
C1868 C1869 1.367 . S
C1869 C1868 1.367 . S
C1869 C1871 1.433 . S
C1870 C1866 1.350 . S
C1870 C1867 1.463 . S
C1870 N1874 1.427 . S
C1871 H1861 0.929 . S
C1871 C1869 1.433 . S
C1871 N1874 1.384 . S
C1872 H1863 0.929 . S
C1872 C1864 1.378 . S
C1872 C1867 1.350 . S
C1873 H1860 0.929 . S
C1873 C1865 1.433 . S
C1873 N1875 1.384 . S
N1874 C1870 1.427 . S
N1874 C1871 1.384 . S
N1875 C1867 1.427 . S
N1875 C1873 1.384 . S
H1876 C1882 0.930 . S
H1877 C1886 0.930 . S
H1878 C1891 0.929 . S
H1879 C1889 0.929 . S
H1880 C1884 0.929 . S
H1881 C1890 0.929 . S
C1882 H1876 0.930 . S
C1882 C1883 1.367 . S
C1882 C1890 1.378 . S
C1883 C1882 1.367 . S
C1883 C1891 1.433 . S
C1884 H1880 0.929 . S
C1884 C1886 1.378 . S
C1884 C1888 1.350 . S
C1885 C1888 1.463 . S
C1885 C1890 1.350 . S
C1885 N1893 1.427 . S
C1886 H1877 0.930 . S
C1886 C1884 1.378 . S
C1886 C1887 1.367 . S
C1887 C1886 1.367 . S
C1887 C1889 1.433 . S
C1888 C1884 1.350 . S
C1888 C1885 1.463 . S
C1888 N1892 1.427 . S
C1889 H1879 0.929 . S
C1889 C1887 1.433 . S
C1889 N1892 1.384 . S
C1890 H1881 0.929 . S
C1890 C1882 1.378 . S
C1890 C1885 1.350 . S
C1891 H1878 0.929 . S
C1891 C1883 1.433 . S
C1891 N1893 1.384 . S
N1892 C1888 1.427 . S
N1892 C1889 1.384 . S
N1893 C1885 1.427 . S
N1893 C1891 1.384 . S
H1894 C1900 0.930 . S
H1895 C1904 0.930 . S
H1896 C1909 0.929 . S
H1897 C1907 0.929 . S
H1898 C1902 0.929 . S
H1899 C1908 0.929 . S
C1900 H1894 0.930 . S
C1900 C1901 1.367 . S
C1900 C1908 1.378 . S
C1901 C1900 1.367 . S
C1901 C1909 1.433 . S
C1902 H1898 0.929 . S
C1902 C1904 1.378 . S
C1902 C1906 1.350 . S
C1903 C1906 1.463 1_545 S
C1903 C1908 1.350 . S
C1903 N1911 1.427 . S
C1904 H1895 0.930 . S
C1904 C1902 1.378 . S
C1904 C1905 1.367 . S
C1905 C1904 1.367 . S
C1905 C1907 1.433 . S
C1906 C1902 1.350 . S
C1906 C1903 1.463 1_565 S
C1906 N1910 1.427 . S
C1907 H1897 0.929 . S
C1907 C1905 1.433 . S
C1907 N1910 1.384 . S
C1908 H1899 0.929 . S
C1908 C1900 1.378 . S
C1908 C1903 1.350 . S
C1909 H1896 0.929 . S
C1909 C1901 1.433 . S
C1909 N1911 1.384 . S
N1910 C1906 1.427 . S
N1910 C1907 1.384 . S
N1911 C1903 1.427 . S
N1911 C1909 1.384 . S
H1912 C1918 0.930 . S
H1913 C1922 0.930 . S
H1914 C1927 0.929 . S
H1915 C1925 0.929 . S
H1916 C1920 0.929 . S
H1917 C1926 0.929 . S
C1918 H1912 0.930 . S
C1918 C1919 1.367 . S
C1918 C1926 1.378 . S
C1919 C1918 1.367 . S
C1919 C1927 1.433 . S
C1920 H1916 0.929 . S
C1920 C1922 1.378 . S
C1920 C1924 1.350 . S
C1921 C1924 1.463 . S
C1921 C1926 1.350 . S
C1921 N1929 1.427 . S
C1922 H1913 0.930 . S
C1922 C1920 1.378 . S
C1922 C1923 1.367 . S
C1923 C1922 1.367 . S
C1923 C1925 1.433 . S
C1924 C1920 1.350 . S
C1924 C1921 1.463 . S
C1924 N1928 1.427 . S
C1925 H1915 0.929 . S
C1925 C1923 1.433 . S
C1925 N1928 1.384 . S
C1926 H1917 0.929 . S
C1926 C1918 1.378 . S
C1926 C1921 1.350 . S
C1927 H1914 0.929 . S
C1927 C1919 1.433 . S
C1927 N1929 1.384 . S
N1928 C1924 1.427 . S
N1928 C1925 1.384 . S
N1929 C1921 1.427 . S
N1929 C1927 1.384 . S
H1930 C1936 0.930 . S
H1931 C1940 0.930 . S
H1932 C1945 0.929 . S
H1933 C1943 0.929 . S
H1934 C1938 0.929 . S
H1935 C1944 0.929 . S
C1936 H1930 0.930 . S
C1936 C1937 1.367 . S
C1936 C1944 1.378 . S
C1937 C1936 1.367 . S
C1937 C1945 1.433 . S
C1938 H1934 0.929 . S
C1938 C1940 1.378 . S
C1938 C1942 1.350 . S
C1939 C1942 1.463 . S
C1939 C1944 1.350 . S
C1939 N1947 1.427 . S
C1940 H1931 0.930 . S
C1940 C1938 1.378 . S
C1940 C1941 1.367 . S
C1941 C1940 1.367 . S
C1941 C1943 1.433 . S
C1942 C1938 1.350 . S
C1942 C1939 1.463 . S
C1942 N1946 1.427 . S
C1943 H1933 0.929 . S
C1943 C1941 1.433 . S
C1943 N1946 1.384 . S
C1944 H1935 0.929 . S
C1944 C1936 1.378 . S
C1944 C1939 1.350 . S
C1945 H1932 0.929 . S
C1945 C1937 1.433 . S
C1945 N1947 1.384 . S
N1946 C1942 1.427 . S
N1946 C1943 1.384 . S
N1947 C1939 1.427 . S
N1947 C1945 1.384 . S
H1948 C1954 0.930 . S
H1949 C1958 0.930 . S
H1950 C1963 0.929 . S
H1951 C1961 0.929 . S
H1952 C1956 0.929 1_545 S
H1953 C1962 0.929 1_565 S
C1954 H1948 0.930 . S
C1954 C1955 1.367 . S
C1954 C1962 1.378 . S
C1955 C1954 1.367 . S
C1955 C1963 1.433 . S
C1956 H1952 0.929 1_565 S
C1956 C1958 1.378 . S
C1956 C1960 1.350 . S
C1957 C1960 1.463 1_545 S
C1957 C1962 1.350 . S
C1957 N1965 1.427 . S
C1958 H1949 0.930 . S
C1958 C1956 1.378 . S
C1958 C1959 1.367 . S
C1959 C1958 1.367 . S
C1959 C1961 1.433 . S
C1960 C1956 1.350 . S
C1960 C1957 1.463 1_565 S
C1960 N1964 1.427 . S
C1961 H1951 0.929 . S
C1961 C1959 1.433 . S
C1961 N1964 1.384 . S
C1962 H1953 0.929 1_545 S
C1962 C1954 1.378 . S
C1962 C1957 1.350 . S
C1963 H1950 0.929 . S
C1963 C1955 1.433 . S
C1963 N1965 1.384 . S
N1964 C1960 1.427 . S
N1964 C1961 1.384 . S
N1965 C1957 1.427 . S
N1965 C1963 1.384 . S
H1966 C1972 0.930 . S
H1967 C1976 0.930 . S
H1968 C1981 0.929 . S
H1969 C1979 0.929 . S
H1970 C1974 0.929 . S
H1971 C1980 0.929 . S
C1972 H1966 0.930 . S
C1972 C1973 1.367 . S
C1972 C1980 1.378 . S
C1973 C1972 1.367 . S
C1973 C1981 1.433 . S
C1974 H1970 0.929 . S
C1974 C1976 1.378 . S
C1974 C1978 1.350 . S
C1975 C1978 1.463 . S
C1975 C1980 1.350 . S
C1975 N1983 1.427 . S
C1976 H1967 0.930 . S
C1976 C1974 1.378 . S
C1976 C1977 1.367 . S
C1977 C1976 1.367 . S
C1977 C1979 1.433 . S
C1978 C1974 1.350 . S
C1978 C1975 1.463 . S
C1978 N1982 1.427 . S
C1979 H1969 0.929 . S
C1979 C1977 1.433 . S
C1979 N1982 1.384 . S
C1980 H1971 0.929 . S
C1980 C1972 1.378 . S
C1980 C1975 1.350 . S
C1981 H1968 0.929 . S
C1981 C1973 1.433 . S
C1981 N1983 1.384 . S
N1982 C1978 1.427 . S
N1982 C1979 1.384 . S
N1983 C1975 1.427 . S
N1983 C1981 1.384 . S
C1415 C29 0.661 . S
C1419 C1201 0.659 . S
C1433 C108 0.661 . S
C1437 C821 0.659 . S
C1451 C1252 0.644 . S
C1455 C225 0.646 . S
C1469 C321 0.645 . S
C1473 C1349 0.646 . S
C1487 C372 0.659 . S
C1491 C557 0.661 . S
C1505 C909 0.661 . S
C1509 C489 0.659 . S
C1523 C1017 0.646 . S
C1527 C636 0.645 . S
C1541 C733 0.645 . S
C1545 C1113 0.647 . S
C1559 C196 1.732 . S
C1563 C57 1.733 . S
C1577 C137 1.729 . S
C1581 C293 1.732 . S
C1595 C1076 1.733 . S
C1599 C49 1.734 . S
C1613 C145 1.735 . S
C1617 C997 1.737 . S
C1631 C409 1.740 . S
C1635 C205 1.737 . S
C1649 C929 1.740 . S
C1653 C284 1.738 . S
C1667 C117 1.738 . S
C1671 C20 1.737 . S
C1685 C313 1.693 . S
C1689 C233 1.694 . S
C1703 C900 1.735 . S
C1707 C381 1.734 . S
C1721 C645 1.719 . S
C1725 C469 1.717 . S
C1739 C577 1.724 . S
C1743 C724 1.723 . S
C1757 C1369 1.728 . S
C1761 C460 1.721 . S
C1775 C585 1.717 . S
C1779 C1289 1.725 . S
C1793 C849 1.721 . S
C1797 C673 1.731 . S
C1811 C753 1.727 . S
C1815 C1173 1.720 . S
C1829 C548 1.741 . S
C1833 C497 1.740 . S
C1847 C761 1.738 . S
C1851 C665 1.736 . S
C1865 C812 1.737 . S
C1869 C1193 1.740 . S
C1883 C937 1.724 . S
C1887 C988 1.726 . S
C1901 C1085 1.726 . S
C1905 C401 1.724 . S
C1919 C1105 1.695 . S
C1923 C1025 1.696 . S
C1937 C1261 1.722 . S
C1941 C1164 1.719 . S
C1955 C841 1.724 . S
C1959 C1340 1.723 . S
C1973 C1377 1.740 . S
C1977 C1281 1.738 . S
