# Generated by pormake.
# Topology sqp, (5)-cn, num edge types: 1
# Building blocks:
#     Node 0, Type 0, BuildingBlock: BEQFEK_clean_sbu_0, # of connection points: 5
#     Node 1, Type 0, BuildingBlock: BEQFEK_clean_sbu_0, # of connection points: 5
#     Node 2, Type 0, BuildingBlock: BEQFEK_clean_sbu_0, # of connection points: 5
#     Node 3, Type 0, BuildingBlock: BEQFEK_clean_sbu_0, # of connection points: 5
#     Edge 4, Type (0, 0), BuildingBlock: ZUJKAS_clean_linker_0, # of connection points: 2
#     Edge 5, Type (0, 0), BuildingBlock: ZUJKAS_clean_linker_0, # of connection points: 2
#     Edge 6, Type (0, 0), BuildingBlock: ZUJKAS_clean_linker_0, # of connection points: 2
#     Edge 7, Type (0, 0), BuildingBlock: ZUJKAS_clean_linker_0, # of connection points: 2
#     Edge 8, Type (0, 0), BuildingBlock: ZUJKAS_clean_linker_0, # of connection points: 2
#     Edge 9, Type (0, 0), BuildingBlock: ZUJKAS_clean_linker_0, # of connection points: 2
#     Edge 10, Type (0, 0), BuildingBlock: ZUJKAS_clean_linker_0, # of connection points: 2
#     Edge 11, Type (0, 0), BuildingBlock: ZUJKAS_clean_linker_0, # of connection points: 2
#     Edge 12, Type (0, 0), BuildingBlock: ZUJKAS_clean_linker_0, # of connection points: 2
#     Edge 13, Type (0, 0), BuildingBlock: ZUJKAS_clean_linker_0, # of connection points: 2
# Relax obj value: 0.030
# Max RMSD: 0.085
# Mean RMSD: 0.085
data_MOF--net-sqp--node1-BEQFEK_clean_sbu_0--edge1-ZUJKAS_clean_linker_0
_symmetry_space_group_name_H-M    P1
_symmetry_Int_Tables_number       1
_symmetry_cell_setting            triclinic
loop_
_symmetry_equiv_pos_as_xyz
'x, y, z'
_cell_length_a     30.791051
_cell_length_b     30.789865
_cell_length_c     49.336374
_cell_angle_alpha  98.069023
_cell_angle_beta   98.031376
_cell_angle_gamma 99.578212
loop_
_atom_site_label
_atom_site_type_symbol
_atom_site_fract_x
_atom_site_fract_y
_atom_site_fract_z
_atom_type_partial_charge
Co0 Co 0.0413 0.9623 0.29642 0.0
Co1 Co 0.97905 0.03316 0.30251 0.0
C2 C 0.94261 0.93954 0.27392 0.0
O3 O 0.98105 0.92917 0.27826 0.0
O4 O 0.93699 0.9792 0.28158 0.0
C5 C 0.08199 0.89932 0.26553 0.0
O6 O 0.0496 0.90112 0.24558 0.0
C7 C 0.9201 0.09467 0.28629 0.0
C8 C 0.92827 0.14199 0.32551 0.0
C9 C 0.90667 0.13296 0.29816 0.0
N10 N 0.94823 0.08204 0.30576 0.0
N11 N 0.95269 0.11028 0.32919 0.0
C12 C 0.9094 0.07203 0.25663 0.0
H13 H 0.93548 0.0527 0.25166 0.0
H14 H 0.90668 0.09689 0.24252 0.0
H15 H 0.87699 0.0484 0.25331 0.0
C16 C 0.09428 0.03556 0.27504 0.0
N17 N 0.05686 0.01734 0.28371 0.0
N18 N 0.03088 0.04711 0.2861 0.0
C19 C 0.05103 0.08526 0.27902 0.0
C20 C 0.09186 0.07918 0.27175 0.0
C21 C 0.13223 0.01196 0.27099 0.0
H22 H 0.14416 0.00023 0.29046 0.0
H23 H 0.1202 0.98228 0.25451 0.0
H24 H 0.16032 0.03359 0.26471 0.0
O25 O 0.04187 0.97324 0.337 0.0
O26 O 0.99678 0.02228 0.3407 0.0
H27 H 0.02654 0.1354 0.30396 0.0
H28 H 0.059 0.15681 0.2794 0.0
C29 C 0.03427 0.12831 0.2827 0.0
H30 H 0.00309 0.12513 0.2677 0.0
H31 H 0.97291 0.10823 0.34762 0.0
O32 O 0.08507 0.92324 0.28916 0.0
C33 C 0.02165 0.99806 0.35165 0.0
Co34 Co 0.04837 0.96973 0.69521 0.0
Co35 Co 0.97863 0.03357 0.68943 0.0
C36 C 0.07376 0.06897 0.71559 0.0
O37 O 0.08331 0.0301 0.71198 0.0
O38 O 0.03419 0.07501 0.70828 0.0
C39 C 0.1149 0.93083 0.72464 0.0
O40 O 0.1188 0.96687 0.74323 0.0
C41 C 0.91923 0.09642 0.70499 0.0
C42 C 0.87122 0.08616 0.66589 0.0
C43 C 0.8816 0.1102 0.69262 0.0
N44 N 0.93017 0.06532 0.68644 0.0
N45 N 0.90129 0.05946 0.66314 0.0
C46 C 0.94543 0.11376 0.73348 0.0
H47 H 0.97979 0.10703 0.73488 0.0
H48 H 0.92902 0.09668 0.74877 0.0
H49 H 0.94653 0.15019 0.73906 0.0
C50 C 0.97566 0.9195 0.7183 0.0
N51 N 0.99418 0.95637 0.70917 0.0
N52 N 0.9652 0.98321 0.70717 0.0
C53 C 0.92733 0.96433 0.71511 0.0
C54 C 0.93258 0.92324 0.72234 0.0
C55 C 0.9968 0.87922 0.71936 0.0
H56 H 0.01023 0.87119 0.69992 0.0
H57 H 0.02519 0.88684 0.7369 0.0
H58 H 0.97283 0.84965 0.72205 0.0
O59 O 0.03557 0.96746 0.65457 0.0
O60 O 0.9871 0.01316 0.65095 0.0
H61 H 0.8723 0.98588 0.69287 0.0
H62 H 0.8605 0.96524 0.72421 0.0
C63 C 0.88627 0.98445 0.71464 0.0
H64 H 0.89525 0.01897 0.72631 0.0
H65 H 0.90225 0.03732 0.64526 0.0
O66 O 0.08647 0.92511 0.70252 0.0
C67 C 0.01039 0.98729 0.6399 0.0
Co68 Co 0.54103 0.46262 0.79642 0.0
Co69 Co 0.47867 0.53364 0.80275 0.0
C70 C 0.44218 0.43907 0.77529 0.0
O71 O 0.48072 0.42885 0.77911 0.0
O72 O 0.43664 0.47877 0.78291 0.0
C73 C 0.5785 0.39365 0.76808 0.0
O74 O 0.54109 0.38748 0.75037 0.0
C75 C 0.41918 0.59532 0.78646 0.0
C76 C 0.42287 0.63857 0.82675 0.0
C77 C 0.40303 0.63126 0.7991 0.0
N78 N 0.44734 0.58234 0.8058 0.0
N79 N 0.44943 0.60846 0.82978 0.0
C80 C 0.40625 0.57194 0.75699 0.0
H81 H 0.41467 0.53816 0.75476 0.0
H82 H 0.42497 0.59132 0.74356 0.0
H83 H 0.37 0.56955 0.74978 0.0
C84 C 0.59231 0.5347 0.77354 0.0
N85 N 0.55543 0.51704 0.78292 0.0
N86 N 0.52981 0.54707 0.78567 0.0
C87 C 0.54988 0.58503 0.77832 0.0
C88 C 0.59014 0.5784 0.77034 0.0
C89 C 0.62968 0.51055 0.76886 0.0
H90 H 0.64523 0.50304 0.78892 0.0
H91 H 0.61607 0.47837 0.75474 0.0
H92 H 0.65543 0.53029 0.75953 0.0
O93 O 0.54249 0.47458 0.83708 0.0
O94 O 0.49762 0.52381 0.84104 0.0
H95 H 0.52534 0.63466 0.80371 0.0
H96 H 0.55927 0.65691 0.78004 0.0
C97 C 0.53383 0.62841 0.78258 0.0
H98 H 0.50319 0.62631 0.76733 0.0
H99 H 0.46863 0.60539 0.84835 0.0
O100 O 0.58549 0.42423 0.78924 0.0
C101 C 0.52275 0.49971 0.85188 0.0
Co102 Co 0.54928 0.46964 0.19511 0.0
Co103 Co 0.47917 0.53335 0.18975 0.0
C104 C 0.57451 0.56917 0.21513 0.0
O105 O 0.58411 0.5303 0.21148 0.0
O106 O 0.5348 0.57513 0.20817 0.0
C107 C 0.61781 0.43173 0.22358 0.0
O108 O 0.62412 0.46916 0.2413 0.0
C109 C 0.41944 0.59697 0.20408 0.0
C110 C 0.36814 0.58025 0.16625 0.0
C111 C 0.38004 0.60796 0.19183 0.0
N112 N 0.42981 0.564 0.18657 0.0
N113 N 0.39896 0.55432 0.16403 0.0
C114 C 0.44758 0.6183 0.23146 0.0
H115 H 0.4824 0.61326 0.23207 0.0
H116 H 0.43396 0.60264 0.24819 0.0
H117 H 0.44716 0.65459 0.23556 0.0
C118 C 0.47742 0.41968 0.21897 0.0
N119 N 0.49551 0.45636 0.20949 0.0
N120 N 0.46657 0.48327 0.20784 0.0
C121 C 0.42924 0.46472 0.2165 0.0
C122 C 0.4347 0.42368 0.2237 0.0
C123 C 0.49856 0.37936 0.21982 0.0
H124 H 0.51116 0.37104 0.2001 0.0
H125 H 0.52755 0.3871 0.23697 0.0
H126 H 0.47484 0.34993 0.22295 0.0
O127 O 0.53591 0.46709 0.15449 0.0
O128 O 0.48737 0.51277 0.15122 0.0
H129 H 0.37238 0.4848 0.19533 0.0
H130 H 0.3642 0.46725 0.22805 0.0
C131 C 0.38852 0.48525 0.21695 0.0
H132 H 0.39838 0.52044 0.2275 0.0
H133 H 0.399 0.52997 0.14704 0.0
O134 O 0.5874 0.42496 0.20236 0.0
C135 C 0.51053 0.48695 0.13998 0.0
H136 H 0.98141 0.04477 0.38886 0.0
H137 H 0.98378 0.04055 0.43798 0.0
H138 H 0.07224 0.94601 0.43222 0.0
H139 H 0.06962 0.94939 0.38275 0.0
H140 H 1.00052 0.91969 0.45887 0.0
H141 H 0.08504 0.09388 0.50251 0.0
H142 H 0.03691 0.09046 0.47662 0.0
H143 H 0.08453 0.069 0.46705 0.0
C144 C 1.00175 0.02334 0.398 0.0
C145 C 0.02542 0.99748 0.38183 0.0
C146 C 0.00322 0.02117 0.42615 0.0
C147 C 0.0287 0.99349 0.43879 0.0
C148 C 0.05259 0.96778 0.42283 0.0
H149 H 0.0584 0.93847 0.60883 0.0
H150 H 0.06313 0.93688 0.55962 0.0
C151 C 0.05111 0.96985 0.3946 0.0
C152 C 0.02862 0.99005 0.46838 0.0
H153 H 0.04909 0.05233 0.53327 0.0
C154 C 0.01161 0.94852 0.47522 0.0
C155 C 0.04317 0.02777 0.48959 0.0
C156 C 0.06385 0.0727 0.48365 0.0
C157 C 0.0072 0.94409 0.50269 0.0
C158 C 0.02061 0.98209 0.52373 0.0
C159 C 0.03854 0.02336 0.51698 0.0
C160 C 0.01551 0.98021 0.5529 0.0
C161 C 0.9869 0.89923 0.50888 0.0
C162 C 0.98716 0.00509 0.56531 0.0
C163 C 0.9844 0.00618 0.59337 0.0
C164 C 0.01027 0.98263 0.60962 0.0
C165 C 0.03794 0.95688 0.59692 0.0
C166 C 0.0406 0.95579 0.56878 0.0
H167 H 0.97022 0.87564 0.48969 0.0
H168 H 0.01361 0.88433 0.51945 0.0
H169 H 0.96215 0.90295 0.52299 0.0
H170 H 0.96761 0.0242 0.55333 0.0
H171 H 0.96273 0.02633 0.60243 0.0
H172 H 0.5584 0.43853 0.10853 0.0
H173 H 0.56369 0.43844 0.05946 0.0
H174 H 0.46817 0.52585 0.05394 0.0
H175 H 0.46266 0.52642 0.10285 0.0
H176 H 0.49413 0.41557 0.01053 0.0
H177 H 0.5809 0.59293 0.029 0.0
H178 H 0.57671 0.56045 0.05662 0.0
H179 H 0.52985 0.58319 0.04286 0.0
C180 C 0.5382 0.45744 0.09684 0.0
C181 C 0.51043 0.48284 0.10972 0.0
C182 C 0.54132 0.45735 0.06883 0.0
C183 C 0.51695 0.4828 0.05335 0.0
C184 C 0.48786 0.50667 0.06577 0.0
H185 H 0.48287 0.54637 0.88936 0.0
H186 H 0.48451 0.54085 0.9383 0.0
C187 C 0.48462 0.50675 0.0937 0.0
C188 C 0.52244 0.48526 0.02431 0.0
H189 H 0.5562 0.55827 0.982 0.0
C190 C 0.50804 0.44659 0.00424 0.0
C191 C 0.54073 0.52584 0.01635 0.0
C192 C 0.55833 0.56794 0.03733 0.0
C193 C 0.50991 0.44783 0.97608 0.0
C194 C 0.52749 0.48865 0.96805 0.0
C195 C 0.54273 0.52707 0.98826 0.0
C196 C 0.52836 0.49278 0.93862 0.0
C197 C 0.49155 0.40591 0.95508 0.0
C198 C 0.55336 0.46832 0.92276 0.0
C199 C 0.55246 0.47128 0.89468 0.0
C200 C 0.52673 0.49901 0.88206 0.0
C201 C 0.50293 0.52456 0.89833 0.0
C202 C 0.50379 0.52148 0.92633 0.0
H203 H 0.47028 0.38039 0.96382 0.0
H204 H 0.47153 0.41349 0.9364 0.0
H205 H 0.51969 0.39124 0.94843 0.0
H206 H 0.57331 0.44671 0.93206 0.0
H207 H 0.57139 0.45135 0.8828 0.0
H208 H 0.17574 0.10631 0.3013 0.0
H209 H 0.23458 0.16553 0.29384 0.0
H210 H 0.14713 0.18912 0.22333 0.0
H211 H 0.0881 0.13009 0.23099 0.0
H212 H 0.2761 0.17324 0.24792 0.0
H213 H 0.18705 0.31347 0.26998 0.0
H214 H 0.16902 0.25896 0.27854 0.0
H215 H 0.15601 0.26878 0.2435 0.0
C216 C 0.16934 0.12404 0.28413 0.0
C217 C 0.12769 0.11378 0.26661 0.0
C218 C 0.2028 0.15786 0.27994 0.0
C219 C 0.195 0.18214 0.25829 0.0
C220 C 0.15353 0.17143 0.24051 0.0
H221 H 0.35186 0.39093 0.1937 0.0
H222 H 0.2945 0.33216 0.20302 0.0
C223 C 0.12001 0.13764 0.24476 0.0
C224 C 0.23051 0.21828 0.25415 0.0
H225 H 0.25408 0.32983 0.25153 0.0
C226 C 0.27143 0.20754 0.24887 0.0
C227 C 0.22431 0.263 0.25549 0.0
C228 C 0.1819 0.27695 0.26244 0.0
C229 C 0.30599 0.24017 0.24422 0.0
C230 C 0.29958 0.28475 0.24527 0.0
C231 C 0.2588 0.29556 0.25072 0.0
C232 C 0.33439 0.32054 0.24007 0.0
C233 C 0.34865 0.22651 0.23754 0.0
C234 C 0.37558 0.33378 0.25803 0.0
C235 C 0.40824 0.36757 0.25284 0.0
C236 C 0.40003 0.38866 0.22971 0.0
C237 C 0.35871 0.37554 0.21189 0.0
C238 C 0.32608 0.34192 0.21711 0.0
H239 H 0.34457 0.18972 0.23155 0.0
H240 H 0.36015 0.24271 0.22039 0.0
H241 H 0.37514 0.23739 0.25611 0.0
H242 H 0.38235 0.31815 0.27612 0.0
H243 H 0.43984 0.37735 0.2669 0.0
H244 H 0.83204 0.10636 0.25727 0.0
H245 H 0.78278 0.15354 0.23846 0.0
H246 H 0.86293 0.26894 0.29351 0.0
H247 H 0.91316 0.22247 0.31159 0.0
H248 H 0.73259 0.20365 0.26675 0.0
H249 H 0.85115 0.31397 0.22003 0.0
H250 H 0.86275 0.26232 0.23004 0.0
H251 H 0.87217 0.31228 0.25557 0.0
C252 C 0.84005 0.14194 0.26474 0.0
C253 C 0.87724 0.16081 0.28546 0.0
C254 C 0.81152 0.16881 0.25418 0.0
C255 C 0.81971 0.21494 0.26414 0.0
C256 C 0.85661 0.23368 0.28495 0.0
H257 H 0.69162 0.44009 0.26309 0.0
H258 H 0.73855 0.38469 0.27053 0.0
C259 C 0.88508 0.20695 0.29545 0.0
C260 C 0.78841 0.24333 0.25423 0.0
H261 H 0.78458 0.34063 0.22897 0.0
C262 C 0.74372 0.2332 0.25806 0.0
C263 C 0.80299 0.28181 0.24282 0.0
C264 C 0.84978 0.29301 0.2366 0.0
C265 C 0.71381 0.26174 0.25205 0.0
C266 C 0.72899 0.30114 0.24177 0.0
C267 C 0.77321 0.31052 0.23707 0.0
C268 C 0.7001 0.33417 0.23699 0.0
C269 C 0.66672 0.25058 0.25776 0.0
C270 C 0.66311 0.32409 0.21554 0.0
C271 C 0.63626 0.35575 0.21115 0.0
C272 C 0.64596 0.398 0.22819 0.0
C273 C 0.68311 0.40787 0.24965 0.0
C274 C 0.71004 0.37632 0.2539 0.0
H275 H 0.66229 0.22262 0.26973 0.0
H276 H 0.65751 0.28025 0.26949 0.0
H277 H 0.64323 0.24076 0.23777 0.0
H278 H 0.65521 0.29187 0.20209 0.0
H279 H 0.60789 0.3471 0.19444 0.0
H280 H 0.56774 0.65755 0.22401 0.0
H281 H 0.62876 0.72243 0.23317 0.0
H282 H 0.72484 0.63543 0.23667 0.0
H283 H 0.66426 0.5703 0.22741 0.0
H284 H 0.70435 0.75092 0.27776 0.0
H285 H 0.75418 0.70888 0.17471 0.0
H286 H 0.70096 0.68433 0.18267 0.0
H287 H 0.75061 0.66457 0.19492 0.0
C288 C 0.60183 0.65214 0.22705 0.0
C289 C 0.61105 0.60861 0.22467 0.0
C290 C 0.63663 0.68929 0.23224 0.0
C291 C 0.68118 0.68357 0.23498 0.0
C292 C 0.69059 0.64042 0.23404 0.0
H293 H 0.94105 0.85016 0.25933 0.0
H294 H 0.87572 0.78992 0.24837 0.0
C295 C 0.65588 0.60325 0.22893 0.0
C296 C 0.71783 0.72262 0.23811 0.0
H297 H 0.8019 0.76837 0.20644 0.0
C298 C 0.72555 0.755 0.26213 0.0
C299 C 0.74524 0.72774 0.21759 0.0
C300 C 0.73725 0.69479 0.19088 0.0
C301 C 0.76099 0.79177 0.26662 0.0
C302 C 0.78871 0.79668 0.2462 0.0
C303 C 0.78054 0.76457 0.22201 0.0
C304 C 0.82772 0.83374 0.25024 0.0
C305 C 0.76937 0.82414 0.2936 0.0
C306 C 0.82233 0.87845 0.25383 0.0
C307 C 0.85968 0.91311 0.26017 0.0
C308 C 0.90309 0.90361 0.26286 0.0
C309 C 0.90818 0.85877 0.25758 0.0
C310 C 0.87085 0.82421 0.25134 0.0
H311 H 0.75197 0.80996 0.30957 0.0
H312 H 0.80566 0.83372 0.30197 0.0
H313 H 0.75676 0.85488 0.2899 0.0
H314 H 0.78925 0.88652 0.25236 0.0
H315 H 0.85449 0.94724 0.26387 0.0
H316 H 0.09156 0.85313 0.21591 0.0
H317 H 0.14705 0.80673 0.2072 0.0
H318 H 0.20342 0.83491 0.29423 0.0
H319 H 0.14825 0.88175 0.30323 0.0
H320 H 0.25027 0.83882 0.22619 0.0
H321 H 0.17015 0.69132 0.26731 0.0
H322 H 0.13828 0.73041 0.25418 0.0
H323 H 0.17496 0.7464 0.28693 0.0
C324 C 0.11568 0.84947 0.23324 0.0
C325 C 0.11541 0.87106 0.26028 0.0
C326 C 0.14738 0.82303 0.22819 0.0
C327 C 0.17903 0.81735 0.2501 0.0
C328 C 0.17901 0.83879 0.27711 0.0
H329 H 0.36837 0.63501 0.24572 0.0
H330 H 0.32448 0.68969 0.26175 0.0
C331 C 0.14752 0.86555 0.28217 0.0
C332 C 0.2122 0.78908 0.24454 0.0
H333 H 0.23571 0.68559 0.24883 0.0
C334 C 0.24734 0.80539 0.23123 0.0
C335 C 0.20837 0.74581 0.25147 0.0
C336 C 0.1709 0.72705 0.26569 0.0
C337 C 0.27868 0.7792 0.22435 0.0
C338 C 0.27388 0.73511 0.23025 0.0
C339 C 0.2393 0.71931 0.24424 0.0
C340 C 0.30289 0.70406 0.22085 0.0
C341 C 0.3168 0.7992 0.21103 0.0
C342 C 0.30509 0.69364 0.19252 0.0
C343 C 0.33083 0.66304 0.18338 0.0
C344 C 0.35479 0.64196 0.20233 0.0
C345 C 0.35201 0.65192 0.23067 0.0
C346 C 0.32637 0.68277 0.23984 0.0
H347 H 0.32414 0.83625 0.21632 0.0
H348 H 0.34765 0.7865 0.21758 0.0
H349 H 0.30751 0.79017 0.18812 0.0
H350 H 0.28619 0.70856 0.17736 0.0
H351 H 0.33177 0.6557 0.16137 0.0
H352 H 0.34048 0.66538 0.82437 0.0
H353 H 0.28917 0.71126 0.80657 0.0
H354 H 0.3409 0.70172 0.72956 0.0
H355 H 0.39328 0.65674 0.74755 0.0
H356 H 0.33658 0.78882 0.75256 0.0
H357 H 0.17546 0.67452 0.748 0.0
H358 H 0.21135 0.68296 0.78101 0.0
H359 H 0.22821 0.65576 0.75057 0.0
C360 C 0.34065 0.67266 0.80353 0.0
C361 C 0.37032 0.65659 0.78716 0.0
C362 C 0.31105 0.69858 0.79331 0.0
C363 C 0.31056 0.70909 0.76653 0.0
C364 C 0.34028 0.69335 0.75013 0.0
H365 H 0.11133 0.84986 0.69238 0.0
H366 H 0.15936 0.79533 0.7001 0.0
C367 C 0.36987 0.66721 0.76033 0.0
C368 C 0.28095 0.7389 0.75654 0.0
H369 H 0.17199 0.75124 0.74621 0.0
C370 C 0.30055 0.78042 0.75084 0.0
C371 C 0.23394 0.72766 0.75401 0.0
C372 C 0.2109 0.68261 0.75845 0.0
C373 C 0.27449 0.81178 0.7438 0.0
C374 C 0.22772 0.8015 0.74281 0.0
C375 C 0.20793 0.75925 0.74733 0.0
C376 C 0.19894 0.83467 0.73796 0.0
C377 C 0.29726 0.85574 0.73762 0.0
C378 C 0.2049 0.87452 0.75692 0.0
C379 C 0.17751 0.90567 0.75263 0.0
C380 C 0.14352 0.8975 0.7293 0.0
C381 C 0.13734 0.85729 0.71048 0.0
C382 C 0.1647 0.82607 0.71486 0.0
H383 H 0.33052 0.85362 0.7318 0.0
H384 H 0.27654 0.86671 0.72053 0.0
H385 H 0.30228 0.88163 0.75642 0.0
H386 H 0.23057 0.88138 0.77518 0.0
H387 H 0.18306 0.93617 0.76759 0.0
H388 H 0.06701 0.15733 0.72449 0.0
H389 H 0.12812 0.22217 0.73417 0.0
H390 H 0.22401 0.13504 0.73852 0.0
H391 H 0.16335 0.06995 0.72872 0.0
H392 H 0.20316 0.25057 0.77924 0.0
H393 H 0.2545 0.20838 0.67667 0.0
H394 H 0.20102 0.18395 0.68432 0.0
H395 H 0.25045 0.16408 0.69687 0.0
C396 C 0.10107 0.15189 0.72783 0.0
C397 C 0.11024 0.10834 0.72551 0.0
C398 C 0.13592 0.18901 0.73333 0.0
C399 C 0.18045 0.18324 0.73645 0.0
C400 C 0.18978 0.14006 0.73561 0.0
H401 H 0.44054 0.34956 0.76139 0.0
H402 H 0.37519 0.28936 0.75065 0.0
C403 C 0.15502 0.10292 0.73018 0.0
C404 C 0.2172 0.22223 0.73977 0.0
H405 H 0.30188 0.26787 0.70855 0.0
C406 C 0.22463 0.25462 0.76376 0.0
C407 C 0.24493 0.2273 0.71942 0.0
C408 C 0.23725 0.19433 0.69273 0.0
C409 C 0.26011 0.29136 0.7684 0.0
C410 C 0.28818 0.29621 0.74816 0.0
C411 C 0.28027 0.26409 0.72398 0.0
C412 C 0.32722 0.33324 0.75233 0.0
C413 C 0.26817 0.32377 0.79535 0.0
C414 C 0.32185 0.37795 0.7558 0.0
C415 C 0.3592 0.41259 0.76203 0.0
C416 C 0.4026 0.40306 0.7647 0.0
C417 C 0.40768 0.35819 0.75964 0.0
C418 C 0.37034 0.32366 0.75352 0.0
H419 H 0.25055 0.30959 0.81123 0.0
H420 H 0.3044 0.3334 0.80388 0.0
H421 H 0.25558 0.35448 0.79154 0.0
H422 H 0.28878 0.38605 0.75426 0.0
H423 H 0.35405 0.44674 0.76556 0.0
H424 H 0.84304 0.16864 0.66571 0.0
H425 H 0.79694 0.22005 0.68331 0.0
H426 H 0.81578 0.17707 0.76292 0.0
H427 H 0.86107 0.12477 0.74524 0.0
H428 H 0.72634 0.17632 0.74121 0.0
H429 H 0.83387 0.33851 0.73843 0.0
H430 H 0.82452 0.29973 0.70646 0.0
H431 H 0.85477 0.28694 0.73731 0.0
C432 C 0.83779 0.17053 0.68707 0.0
C433 C 0.85652 0.14336 0.70427 0.0
C434 C 0.81173 0.20013 0.69715 0.0
C435 C 0.80371 0.203 0.72458 0.0
C436 C 0.8222 0.17583 0.74181 0.0
H437 H 0.66175 0.40121 0.79852 0.0
H438 H 0.71732 0.35459 0.79029 0.0
C439 C 0.8485 0.14631 0.73177 0.0
C440 C 0.77349 0.23217 0.73451 0.0
H441 H 0.75766 0.34008 0.74263 0.0
C442 C 0.73337 0.21219 0.74182 0.0
C443 C 0.783 0.27898 0.73558 0.0
C444 C 0.82658 0.30245 0.72929 0.0
C445 C 0.70166 0.2376 0.74915 0.0
C446 C 0.71014 0.28408 0.74879 0.0
C447 C 0.75104 0.30434 0.74258 0.0
C448 C 0.67638 0.31198 0.75397 0.0
C449 C 0.65929 0.21446 0.75711 0.0
C450 C 0.63523 0.30379 0.73605 0.0
C451 C 0.60346 0.33032 0.74065 0.0
C452 C 0.61231 0.36569 0.76323 0.0
C453 C 0.65378 0.37408 0.78102 0.0
C454 C 0.6856 0.34755 0.77634 0.0
H455 H 0.66321 0.18208 0.76369 0.0
H456 H 0.64898 0.23581 0.77421 0.0
H457 H 0.63208 0.20759 0.73889 0.0
H458 H 0.62782 0.27705 0.71834 0.0
H459 H 0.57199 0.32307 0.72648 0.0
H460 H 0.5853 0.63104 0.73051 0.0
H461 H 0.64482 0.68894 0.7221 0.0
H462 H 0.73429 0.66142 0.79032 0.0
H463 H 0.67512 0.60328 0.79841 0.0
H464 H 0.68976 0.76499 0.75718 0.0
H465 H 0.80884 0.65642 0.72883 0.0
H466 H 0.75135 0.63429 0.73045 0.0
H467 H 0.79202 0.6507 0.76174 0.0
C468 C 0.61786 0.63728 0.74348 0.0
C469 C 0.62605 0.61255 0.76482 0.0
C470 C 0.65173 0.67024 0.73872 0.0
C471 C 0.69424 0.6789 0.75525 0.0
C472 C 0.70217 0.65448 0.77682 0.0
H473 H 0.9364 0.87682 0.76551 0.0
H474 H 0.87826 0.81767 0.7742 0.0
C475 C 0.6684 0.62142 0.78148 0.0
C476 C 0.72979 0.71459 0.75061 0.0
H477 H 0.83618 0.73486 0.73659 0.0
C478 C 0.72168 0.75837 0.75252 0.0
C479 C 0.77146 0.70587 0.74463 0.0
C480 C 0.78139 0.65922 0.74102 0.0
C481 C 0.75434 0.79378 0.74896 0.0
C482 C 0.79599 0.78505 0.74308 0.0
C483 C 0.80423 0.74137 0.74126 0.0
C484 C 0.83099 0.82069 0.73799 0.0
C485 C 0.74434 0.84039 0.75191 0.0
C486 C 0.82376 0.84131 0.71459 0.0
C487 C 0.85684 0.87469 0.70957 0.0
C488 C 0.89763 0.88806 0.72792 0.0
C489 C 0.90508 0.86708 0.75117 0.0
C490 C 0.87201 0.83347 0.75613 0.0
H491 H 0.71527 0.84314 0.76265 0.0
H492 H 0.77374 0.86512 0.76361 0.0
H493 H 0.73647 0.84925 0.73097 0.0
H494 H 0.79266 0.83126 0.70007 0.0
H495 H 0.85073 0.88974 0.69118 0.0
loop_
_geom_bond_atom_site_label_1
_geom_bond_atom_site_label_2
_geom_bond_distance
_geom_bond_site_symmetry_2
_ccdc_geom_bond_type
Co0 O3 1.970 1_455 S
Co0 N17 1.989 1_565 S
Co0 O25 1.967 . S
Co0 O32 1.920 . S
Co1 O4 1.966 1_545 S
Co1 N10 2.022 . S
Co1 N18 1.993 1_655 S
Co1 O26 1.941 . S
C2 O3 1.258 . S
C2 O4 1.263 . S
O3 Co0 1.970 1_655 S
O3 C2 1.258 . S
O4 Co1 1.966 1_565 S
O4 C2 1.263 . S
C5 O6 1.235 . S
C5 O32 1.289 . S
O6 C5 1.235 . S
C7 C9 1.400 . S
C7 N10 1.351 . S
C7 C12 1.501 . S
C8 C9 1.387 . S
C8 N11 1.341 . S
C9 C7 1.400 . S
C9 C8 1.387 . S
N10 Co1 2.022 . S
N10 C7 1.351 . S
N10 N11 1.365 . S
N11 C8 1.341 . S
N11 N10 1.365 . S
N11 H31 0.862 . S
C12 C7 1.501 . S
C12 H13 0.961 . S
C12 H14 0.961 . S
C12 H15 0.960 . S
H13 C12 0.961 . S
H14 C12 0.961 . S
H15 C12 0.960 . S
C16 N17 1.342 . S
C16 C20 1.401 . S
C16 C21 1.499 . S
N17 Co0 1.989 1_545 S
N17 C16 1.342 . S
N17 N18 1.388 . S
N18 Co1 1.993 1_455 S
N18 N17 1.388 . S
N18 C19 1.346 . S
C19 N18 1.346 . S
C19 C20 1.396 . S
C19 C29 1.510 . S
C20 C16 1.401 . S
C20 C19 1.396 . S
C21 C16 1.499 . S
C21 H22 0.959 1_545 S
C21 H23 0.960 . S
C21 H24 0.961 . S
H22 C21 0.959 1_565 S
H23 C21 0.960 . S
H24 C21 0.961 . S
O25 Co0 1.967 . S
O25 C33 1.258 1_565 S
O26 Co1 1.941 . S
O26 C33 1.266 1_655 S
H27 C29 0.959 . S
H28 C29 0.961 . S
C29 C19 1.510 . S
C29 H27 0.959 . S
C29 H28 0.961 . S
C29 H30 0.960 1_455 S
H30 C29 0.960 1_655 S
H31 N11 0.862 . S
O32 Co0 1.920 . S
O32 C5 1.289 . S
C33 O25 1.258 1_545 S
C33 O26 1.266 1_455 S
Co34 O37 1.970 1_565 S
Co34 N51 1.989 1_455 S
Co34 O59 1.967 . S
Co34 O66 1.920 . S
Co35 O38 1.966 1_655 S
Co35 N44 2.022 . S
Co35 N52 1.993 1_545 S
Co35 O60 1.941 . S
C36 O37 1.258 . S
C36 O38 1.263 . S
O37 Co34 1.970 1_545 S
O37 C36 1.258 . S
O38 Co35 1.966 1_455 S
O38 C36 1.263 . S
C39 O40 1.235 . S
C39 O66 1.289 . S
O40 C39 1.235 . S
C41 C43 1.400 . S
C41 N44 1.351 . S
C41 C46 1.501 . S
C42 C43 1.387 . S
C42 N45 1.341 . S
C43 C41 1.400 . S
C43 C42 1.387 . S
N44 Co35 2.022 . S
N44 C41 1.351 . S
N44 N45 1.365 . S
N45 C42 1.341 . S
N45 N44 1.365 . S
N45 H65 0.862 . S
C46 C41 1.501 . S
C46 H47 0.961 . S
C46 H48 0.961 . S
C46 H49 0.960 . S
H47 C46 0.961 . S
H48 C46 0.961 . S
H49 C46 0.960 . S
C50 N51 1.342 . S
C50 C54 1.401 . S
C50 C55 1.499 . S
N51 Co34 1.989 1_655 S
N51 C50 1.342 . S
N51 N52 1.388 . S
N52 Co35 1.993 1_565 S
N52 N51 1.388 . S
N52 C53 1.346 . S
C53 N52 1.346 . S
C53 C54 1.396 . S
C53 C63 1.510 . S
C54 C50 1.401 . S
C54 C53 1.396 . S
C55 C50 1.499 . S
C55 H56 0.959 1_655 S
C55 H57 0.960 . S
C55 H58 0.961 . S
H56 C55 0.959 1_455 S
H57 C55 0.960 . S
H58 C55 0.961 . S
O59 Co34 1.967 . S
O59 C67 1.258 . S
O60 Co35 1.941 . S
O60 C67 1.266 1_645 S
H61 C63 0.959 . S
H62 C63 0.961 . S
C63 C53 1.510 . S
C63 H61 0.959 . S
C63 H62 0.961 . S
C63 H64 0.960 1_565 S
H64 C63 0.960 1_545 S
H65 N45 0.862 . S
O66 Co34 1.920 . S
O66 C39 1.289 . S
C67 O59 1.258 . S
C67 O60 1.266 1_465 S
Co68 O71 1.970 . S
Co68 N85 1.989 . S
Co68 O93 1.967 . S
Co68 O100 1.920 . S
Co69 O72 1.966 . S
Co69 N78 2.022 . S
Co69 N86 1.993 . S
Co69 O94 1.941 . S
C70 O71 1.258 . S
C70 O72 1.263 . S
O71 Co68 1.970 . S
O71 C70 1.258 . S
O72 Co69 1.966 . S
O72 C70 1.263 . S
C73 O74 1.235 . S
C73 O100 1.289 . S
O74 C73 1.235 . S
C75 C77 1.400 . S
C75 N78 1.351 . S
C75 C80 1.501 . S
C76 C77 1.387 . S
C76 N79 1.341 . S
C77 C75 1.400 . S
C77 C76 1.387 . S
N78 Co69 2.022 . S
N78 C75 1.351 . S
N78 N79 1.365 . S
N79 C76 1.341 . S
N79 N78 1.365 . S
N79 H99 0.862 . S
C80 C75 1.501 . S
C80 H81 0.961 . S
C80 H82 0.961 . S
C80 H83 0.960 . S
H81 C80 0.961 . S
H82 C80 0.961 . S
H83 C80 0.960 . S
C84 N85 1.342 . S
C84 C88 1.401 . S
C84 C89 1.499 . S
N85 Co68 1.989 . S
N85 C84 1.342 . S
N85 N86 1.388 . S
N86 Co69 1.993 . S
N86 N85 1.388 . S
N86 C87 1.346 . S
C87 N86 1.346 . S
C87 C88 1.396 . S
C87 C97 1.510 . S
C88 C84 1.401 . S
C88 C87 1.396 . S
C89 C84 1.499 . S
C89 H90 0.959 . S
C89 H91 0.960 . S
C89 H92 0.961 . S
H90 C89 0.959 . S
H91 C89 0.960 . S
H92 C89 0.961 . S
O93 Co68 1.967 . S
O93 C101 1.258 . S
O94 Co69 1.941 . S
O94 C101 1.266 . S
H95 C97 0.959 . S
H96 C97 0.961 . S
C97 C87 1.510 . S
C97 H95 0.959 . S
C97 H96 0.961 . S
C97 H98 0.960 . S
H98 C97 0.960 . S
H99 N79 0.862 . S
O100 Co68 1.920 . S
O100 C73 1.289 . S
C101 O93 1.258 . S
C101 O94 1.266 . S
Co102 O105 1.970 . S
Co102 N119 1.989 . S
Co102 O127 1.967 . S
Co102 O134 1.920 . S
Co103 O106 1.966 . S
Co103 N112 2.022 . S
Co103 N120 1.993 . S
Co103 O128 1.941 . S
C104 O105 1.258 . S
C104 O106 1.263 . S
O105 Co102 1.970 . S
O105 C104 1.258 . S
O106 Co103 1.966 . S
O106 C104 1.263 . S
C107 O108 1.235 . S
C107 O134 1.289 . S
O108 C107 1.235 . S
C109 C111 1.400 . S
C109 N112 1.351 . S
C109 C114 1.501 . S
C110 C111 1.387 . S
C110 N113 1.341 . S
C111 C109 1.400 . S
C111 C110 1.387 . S
N112 Co103 2.022 . S
N112 C109 1.351 . S
N112 N113 1.365 . S
N113 C110 1.341 . S
N113 N112 1.365 . S
N113 H133 0.862 . S
C114 C109 1.501 . S
C114 H115 0.961 . S
C114 H116 0.961 . S
C114 H117 0.960 . S
H115 C114 0.961 . S
H116 C114 0.961 . S
H117 C114 0.960 . S
C118 N119 1.342 . S
C118 C122 1.401 . S
C118 C123 1.499 . S
N119 Co102 1.989 . S
N119 C118 1.342 . S
N119 N120 1.388 . S
N120 Co103 1.993 . S
N120 N119 1.388 . S
N120 C121 1.346 . S
C121 N120 1.346 . S
C121 C122 1.396 . S
C121 C131 1.510 . S
C122 C118 1.401 . S
C122 C121 1.396 . S
C123 C118 1.499 . S
C123 H124 0.959 . S
C123 H125 0.960 . S
C123 H126 0.961 . S
H124 C123 0.959 . S
H125 C123 0.960 . S
H126 C123 0.961 . S
O127 Co102 1.967 . S
O127 C135 1.258 . S
O128 Co103 1.941 . S
O128 C135 1.266 . S
H129 C131 0.959 . S
H130 C131 0.961 . S
C131 C121 1.510 . S
C131 H129 0.959 . S
C131 H130 0.961 . S
C131 H132 0.960 . S
H132 C131 0.960 . S
H133 N113 0.862 . S
O134 Co102 1.920 . S
O134 C107 1.289 . S
C135 O127 1.258 . S
C135 O128 1.266 . S
H136 C144 0.929 . S
H137 C146 0.930 . S
H138 C148 0.930 . S
H139 C151 0.929 . S
H140 C154 0.930 . S
H141 C156 0.960 . S
H142 C156 0.960 . S
H143 C156 0.960 . S
C144 H136 0.929 . S
C144 C145 1.377 1_665 S
C144 C146 1.384 . S
C145 C144 1.377 1_445 S
C145 C151 1.390 . S
C146 H137 0.930 . S
C146 C144 1.384 . S
C146 C147 1.373 1_655 S
C147 C146 1.373 1_455 S
C147 C148 1.395 1_565 S
C147 C152 1.494 . S
C148 H138 0.930 . S
C148 C147 1.395 1_545 S
C148 C151 1.386 . S
H149 C165 0.930 . S
H150 C166 0.930 1_545 S
C151 H139 0.929 . S
C151 C145 1.390 . S
C151 C148 1.386 . S
C152 C147 1.494 . S
C152 C154 1.395 1_455 S
C152 C155 1.403 1_565 S
H153 C159 0.930 . S
C154 H140 0.930 . S
C154 C152 1.395 1_655 S
C154 C157 1.403 . S
C155 C152 1.403 1_545 S
C155 C156 1.524 . S
C155 C159 1.400 . S
C156 H141 0.960 . S
C156 H142 0.960 . S
C156 H143 0.960 . S
C156 C155 1.524 . S
C157 C154 1.403 . S
C157 C158 1.392 1_655 S
C157 C161 1.495 . S
C158 C157 1.392 1_455 S
C158 C159 1.385 1_565 S
C158 C160 1.478 . S
C159 H153 0.930 . S
C159 C155 1.400 . S
C159 C158 1.385 1_545 S
C160 C158 1.478 . S
C160 C162 1.381 1_455 S
C160 C166 1.383 . S
C161 C157 1.495 . S
C161 H167 0.959 . S
C161 H168 0.961 1_655 S
C161 H169 0.960 . S
C162 C160 1.381 1_655 S
C162 C163 1.394 . S
C162 H170 0.930 . S
C163 C162 1.394 . S
C163 C164 1.383 1_655 S
C163 H171 0.929 . S
C164 C163 1.383 1_455 S
C164 C165 1.377 1_565 S
C165 H149 0.930 . S
C165 C164 1.377 1_545 S
C165 C166 1.380 1_545 S
C166 H150 0.930 1_565 S
C166 C160 1.383 . S
C166 C165 1.380 1_565 S
H167 C161 0.959 . S
H168 C161 0.961 1_455 S
H169 C161 0.960 . S
H170 C162 0.930 . S
H171 C163 0.929 . S
H172 C180 0.929 . S
H173 C182 0.930 . S
H174 C184 0.930 . S
H175 C187 0.929 . S
H176 C190 0.930 . S
H177 C192 0.960 . S
H178 C192 0.960 . S
H179 C192 0.960 . S
C180 H172 0.929 . S
C180 C181 1.377 . S
C180 C182 1.384 . S
C181 C180 1.377 . S
C181 C187 1.390 . S
C182 H173 0.930 . S
C182 C180 1.384 . S
C182 C183 1.372 . S
C183 C182 1.372 . S
C183 C184 1.400 . S
C183 C188 1.490 . S
C184 H174 0.930 . S
C184 C183 1.400 . S
C184 C187 1.386 . S
H185 C201 0.930 . S
H186 C202 0.931 . S
C187 H175 0.929 . S
C187 C181 1.390 . S
C187 C184 1.386 . S
C188 C183 1.490 . S
C188 C190 1.395 . S
C188 C191 1.403 . S
H189 C195 0.930 . S
C190 H176 0.930 . S
C190 C188 1.395 . S
C190 C193 1.403 1_554 S
C191 C188 1.403 . S
C191 C192 1.524 . S
C191 C195 1.400 1_554 S
C192 H177 0.960 . S
C192 H178 0.960 . S
C192 H179 0.960 . S
C192 C191 1.524 . S
C193 C190 1.403 1_556 S
C193 C194 1.392 . S
C193 C197 1.495 . S
C194 C193 1.392 . S
C194 C195 1.385 . S
C194 C196 1.478 . S
C195 H189 0.930 . S
C195 C191 1.400 1_556 S
C195 C194 1.385 . S
C196 C194 1.478 . S
C196 C198 1.381 . S
C196 C202 1.383 . S
C197 C193 1.495 . S
C197 H203 0.959 . S
C197 H204 0.961 . S
C197 H205 0.960 . S
C198 C196 1.381 . S
C198 C199 1.394 . S
C198 H206 0.930 . S
C199 C198 1.394 . S
C199 C200 1.383 . S
C199 H207 0.929 . S
C200 C199 1.383 . S
C200 C201 1.377 . S
C201 H185 0.930 . S
C201 C200 1.377 . S
C201 C202 1.379 . S
C202 H186 0.931 . S
C202 C196 1.383 . S
C202 C201 1.379 . S
H203 C197 0.959 . S
H204 C197 0.961 . S
H205 C197 0.960 . S
H206 C198 0.930 . S
H207 C199 0.929 . S
H208 C216 0.929 . S
H209 C218 0.930 . S
H210 C220 0.930 . S
H211 C223 0.929 . S
H212 C226 0.930 . S
H213 C228 0.960 . S
H214 C228 0.960 . S
H215 C228 0.960 . S
C216 H208 0.929 . S
C216 C217 1.377 . S
C216 C218 1.384 . S
C217 C216 1.377 . S
C217 C223 1.390 . S
C218 H209 0.930 . S
C218 C216 1.384 . S
C218 C219 1.372 . S
C219 C218 1.372 . S
C219 C220 1.400 . S
C219 C224 1.490 . S
C220 H210 0.930 . S
C220 C219 1.400 . S
C220 C223 1.386 . S
H221 C237 0.930 . S
H222 C238 0.931 . S
C223 H211 0.929 . S
C223 C217 1.390 . S
C223 C220 1.386 . S
C224 C219 1.490 . S
C224 C226 1.395 . S
C224 C227 1.403 . S
H225 C231 0.930 . S
C226 H212 0.930 . S
C226 C224 1.395 . S
C226 C229 1.403 . S
C227 C224 1.403 . S
C227 C228 1.524 . S
C227 C231 1.400 . S
C228 H213 0.960 . S
C228 H214 0.960 . S
C228 H215 0.960 . S
C228 C227 1.524 . S
C229 C226 1.403 . S
C229 C230 1.392 . S
C229 C233 1.495 . S
C230 C229 1.392 . S
C230 C231 1.385 . S
C230 C232 1.478 . S
C231 H225 0.930 . S
C231 C227 1.400 . S
C231 C230 1.385 . S
C232 C230 1.478 . S
C232 C234 1.381 . S
C232 C238 1.383 . S
C233 C229 1.495 . S
C233 H239 0.959 . S
C233 H240 0.961 . S
C233 H241 0.960 . S
C234 C232 1.381 . S
C234 C235 1.394 . S
C234 H242 0.930 . S
C235 C234 1.394 . S
C235 C236 1.383 . S
C235 H243 0.929 . S
C236 C235 1.383 . S
C236 C237 1.377 . S
C237 H221 0.930 . S
C237 C236 1.377 . S
C237 C238 1.379 . S
C238 H222 0.931 . S
C238 C232 1.383 . S
C238 C237 1.379 . S
H239 C233 0.959 . S
H240 C233 0.961 . S
H241 C233 0.960 . S
H242 C234 0.930 . S
H243 C235 0.929 . S
H244 C252 0.929 . S
H245 C254 0.930 . S
H246 C256 0.930 . S
H247 C259 0.929 . S
H248 C262 0.930 . S
H249 C264 0.960 . S
H250 C264 0.960 . S
H251 C264 0.960 . S
C252 H244 0.929 . S
C252 C253 1.377 . S
C252 C254 1.384 . S
C253 C252 1.377 . S
C253 C259 1.390 . S
C254 H245 0.930 . S
C254 C252 1.384 . S
C254 C255 1.372 . S
C255 C254 1.372 . S
C255 C256 1.400 . S
C255 C260 1.490 . S
C256 H246 0.930 . S
C256 C255 1.400 . S
C256 C259 1.386 . S
H257 C273 0.930 . S
H258 C274 0.931 . S
C259 H247 0.929 . S
C259 C253 1.390 . S
C259 C256 1.386 . S
C260 C255 1.490 . S
C260 C262 1.395 . S
C260 C263 1.403 . S
H261 C267 0.930 . S
C262 H248 0.930 . S
C262 C260 1.395 . S
C262 C265 1.403 . S
C263 C260 1.403 . S
C263 C264 1.524 . S
C263 C267 1.400 . S
C264 H249 0.960 . S
C264 H250 0.960 . S
C264 H251 0.960 . S
C264 C263 1.524 . S
C265 C262 1.403 . S
C265 C266 1.392 . S
C265 C269 1.495 . S
C266 C265 1.392 . S
C266 C267 1.385 . S
C266 C268 1.478 . S
C267 H261 0.930 . S
C267 C263 1.400 . S
C267 C266 1.385 . S
C268 C266 1.478 . S
C268 C270 1.381 . S
C268 C274 1.383 . S
C269 C265 1.495 . S
C269 H275 0.959 . S
C269 H276 0.961 . S
C269 H277 0.960 . S
C270 C268 1.381 . S
C270 C271 1.394 . S
C270 H278 0.930 . S
C271 C270 1.394 . S
C271 C272 1.383 . S
C271 H279 0.929 . S
C272 C271 1.383 . S
C272 C273 1.377 . S
C273 H257 0.930 . S
C273 C272 1.377 . S
C273 C274 1.379 . S
C274 H258 0.931 . S
C274 C268 1.383 . S
C274 C273 1.379 . S
H275 C269 0.959 . S
H276 C269 0.961 . S
H277 C269 0.960 . S
H278 C270 0.930 . S
H279 C271 0.929 . S
H280 C288 0.929 . S
H281 C290 0.930 . S
H282 C292 0.930 . S
H283 C295 0.929 . S
H284 C298 0.930 . S
H285 C300 0.960 . S
H286 C300 0.960 . S
H287 C300 0.960 . S
C288 H280 0.929 . S
C288 C289 1.377 . S
C288 C290 1.384 . S
C289 C288 1.377 . S
C289 C295 1.390 . S
C290 H281 0.930 . S
C290 C288 1.384 . S
C290 C291 1.372 . S
C291 C290 1.372 . S
C291 C292 1.400 . S
C291 C296 1.490 . S
C292 H282 0.930 . S
C292 C291 1.400 . S
C292 C295 1.386 . S
H293 C309 0.930 . S
H294 C310 0.931 . S
C295 H283 0.929 . S
C295 C289 1.390 . S
C295 C292 1.386 . S
C296 C291 1.490 . S
C296 C298 1.395 . S
C296 C299 1.403 . S
H297 C303 0.930 . S
C298 H284 0.930 . S
C298 C296 1.395 . S
C298 C301 1.403 . S
C299 C296 1.403 . S
C299 C300 1.524 . S
C299 C303 1.400 . S
C300 H285 0.960 . S
C300 H286 0.960 . S
C300 H287 0.960 . S
C300 C299 1.524 . S
C301 C298 1.403 . S
C301 C302 1.392 . S
C301 C305 1.495 . S
C302 C301 1.392 . S
C302 C303 1.385 . S
C302 C304 1.478 . S
C303 H297 0.930 . S
C303 C299 1.400 . S
C303 C302 1.385 . S
C304 C302 1.478 . S
C304 C306 1.381 . S
C304 C310 1.383 . S
C305 C301 1.495 . S
C305 H311 0.959 . S
C305 H312 0.961 . S
C305 H313 0.960 . S
C306 C304 1.381 . S
C306 C307 1.394 . S
C306 H314 0.930 . S
C307 C306 1.394 . S
C307 C308 1.383 . S
C307 H315 0.929 . S
C308 C307 1.383 . S
C308 C309 1.377 . S
C309 H293 0.930 . S
C309 C308 1.377 . S
C309 C310 1.379 . S
C310 H294 0.931 . S
C310 C304 1.383 . S
C310 C309 1.379 . S
H311 C305 0.959 . S
H312 C305 0.961 . S
H313 C305 0.960 . S
H314 C306 0.930 . S
H315 C307 0.929 . S
H316 C324 0.929 . S
H317 C326 0.930 . S
H318 C328 0.930 . S
H319 C331 0.929 . S
H320 C334 0.930 . S
H321 C336 0.960 . S
H322 C336 0.960 . S
H323 C336 0.960 . S
C324 H316 0.929 . S
C324 C325 1.377 . S
C324 C326 1.384 . S
C325 C324 1.377 . S
C325 C331 1.390 . S
C326 H317 0.930 . S
C326 C324 1.384 . S
C326 C327 1.372 . S
C327 C326 1.372 . S
C327 C328 1.400 . S
C327 C332 1.490 . S
C328 H318 0.930 . S
C328 C327 1.400 . S
C328 C331 1.386 . S
H329 C345 0.930 . S
H330 C346 0.931 . S
C331 H319 0.929 . S
C331 C325 1.390 . S
C331 C328 1.386 . S
C332 C327 1.490 . S
C332 C334 1.395 . S
C332 C335 1.403 . S
H333 C339 0.930 . S
C334 H320 0.930 . S
C334 C332 1.395 . S
C334 C337 1.403 . S
C335 C332 1.403 . S
C335 C336 1.524 . S
C335 C339 1.400 . S
C336 H321 0.960 . S
C336 H322 0.960 . S
C336 H323 0.960 . S
C336 C335 1.524 . S
C337 C334 1.403 . S
C337 C338 1.392 . S
C337 C341 1.495 . S
C338 C337 1.392 . S
C338 C339 1.385 . S
C338 C340 1.478 . S
C339 H333 0.930 . S
C339 C335 1.400 . S
C339 C338 1.385 . S
C340 C338 1.478 . S
C340 C342 1.381 . S
C340 C346 1.383 . S
C341 C337 1.495 . S
C341 H347 0.959 . S
C341 H348 0.961 . S
C341 H349 0.960 . S
C342 C340 1.381 . S
C342 C343 1.394 . S
C342 H350 0.930 . S
C343 C342 1.394 . S
C343 C344 1.383 . S
C343 H351 0.929 . S
C344 C343 1.383 . S
C344 C345 1.377 . S
C345 H329 0.930 . S
C345 C344 1.377 . S
C345 C346 1.379 . S
C346 H330 0.931 . S
C346 C340 1.383 . S
C346 C345 1.379 . S
H347 C341 0.959 . S
H348 C341 0.961 . S
H349 C341 0.960 . S
H350 C342 0.930 . S
H351 C343 0.929 . S
H352 C360 0.929 . S
H353 C362 0.930 . S
H354 C364 0.930 . S
H355 C367 0.929 . S
H356 C370 0.930 . S
H357 C372 0.960 . S
H358 C372 0.960 . S
H359 C372 0.960 . S
C360 H352 0.929 . S
C360 C361 1.377 . S
C360 C362 1.384 . S
C361 C360 1.377 . S
C361 C367 1.390 . S
C362 H353 0.930 . S
C362 C360 1.384 . S
C362 C363 1.372 . S
C363 C362 1.372 . S
C363 C364 1.400 . S
C363 C368 1.490 . S
C364 H354 0.930 . S
C364 C363 1.400 . S
C364 C367 1.386 . S
H365 C381 0.930 . S
H366 C382 0.931 . S
C367 H355 0.929 . S
C367 C361 1.390 . S
C367 C364 1.386 . S
C368 C363 1.490 . S
C368 C370 1.395 . S
C368 C371 1.403 . S
H369 C375 0.930 . S
C370 H356 0.930 . S
C370 C368 1.395 . S
C370 C373 1.403 . S
C371 C368 1.403 . S
C371 C372 1.524 . S
C371 C375 1.400 . S
C372 H357 0.960 . S
C372 H358 0.960 . S
C372 H359 0.960 . S
C372 C371 1.524 . S
C373 C370 1.403 . S
C373 C374 1.392 . S
C373 C377 1.495 . S
C374 C373 1.392 . S
C374 C375 1.385 . S
C374 C376 1.478 . S
C375 H369 0.930 . S
C375 C371 1.400 . S
C375 C374 1.385 . S
C376 C374 1.478 . S
C376 C378 1.381 . S
C376 C382 1.383 . S
C377 C373 1.495 . S
C377 H383 0.959 . S
C377 H384 0.961 . S
C377 H385 0.960 . S
C378 C376 1.381 . S
C378 C379 1.394 . S
C378 H386 0.930 . S
C379 C378 1.394 . S
C379 C380 1.383 . S
C379 H387 0.929 . S
C380 C379 1.383 . S
C380 C381 1.377 . S
C381 H365 0.930 . S
C381 C380 1.377 . S
C381 C382 1.379 . S
C382 H366 0.931 . S
C382 C376 1.383 . S
C382 C381 1.379 . S
H383 C377 0.959 . S
H384 C377 0.961 . S
H385 C377 0.960 . S
H386 C378 0.930 . S
H387 C379 0.929 . S
H388 C396 0.929 . S
H389 C398 0.930 . S
H390 C400 0.930 . S
H391 C403 0.929 . S
H392 C406 0.930 . S
H393 C408 0.960 . S
H394 C408 0.960 . S
H395 C408 0.960 . S
C396 H388 0.929 . S
C396 C397 1.377 . S
C396 C398 1.384 . S
C397 C396 1.377 . S
C397 C403 1.390 . S
C398 H389 0.930 . S
C398 C396 1.384 . S
C398 C399 1.372 . S
C399 C398 1.372 . S
C399 C400 1.400 . S
C399 C404 1.490 . S
C400 H390 0.930 . S
C400 C399 1.400 . S
C400 C403 1.386 . S
H401 C417 0.930 . S
H402 C418 0.931 . S
C403 H391 0.929 . S
C403 C397 1.390 . S
C403 C400 1.386 . S
C404 C399 1.490 . S
C404 C406 1.395 . S
C404 C407 1.403 . S
H405 C411 0.930 . S
C406 H392 0.930 . S
C406 C404 1.395 . S
C406 C409 1.403 . S
C407 C404 1.403 . S
C407 C408 1.524 . S
C407 C411 1.400 . S
C408 H393 0.960 . S
C408 H394 0.960 . S
C408 H395 0.960 . S
C408 C407 1.524 . S
C409 C406 1.403 . S
C409 C410 1.392 . S
C409 C413 1.495 . S
C410 C409 1.392 . S
C410 C411 1.385 . S
C410 C412 1.478 . S
C411 H405 0.930 . S
C411 C407 1.400 . S
C411 C410 1.385 . S
C412 C410 1.478 . S
C412 C414 1.381 . S
C412 C418 1.383 . S
C413 C409 1.495 . S
C413 H419 0.959 . S
C413 H420 0.961 . S
C413 H421 0.960 . S
C414 C412 1.381 . S
C414 C415 1.394 . S
C414 H422 0.930 . S
C415 C414 1.394 . S
C415 C416 1.383 . S
C415 H423 0.929 . S
C416 C415 1.383 . S
C416 C417 1.377 . S
C417 H401 0.930 . S
C417 C416 1.377 . S
C417 C418 1.379 . S
C418 H402 0.931 . S
C418 C412 1.383 . S
C418 C417 1.379 . S
H419 C413 0.959 . S
H420 C413 0.961 . S
H421 C413 0.960 . S
H422 C414 0.930 . S
H423 C415 0.929 . S
H424 C432 0.929 . S
H425 C434 0.930 . S
H426 C436 0.930 . S
H427 C439 0.929 . S
H428 C442 0.930 . S
H429 C444 0.960 . S
H430 C444 0.960 . S
H431 C444 0.960 . S
C432 H424 0.929 . S
C432 C433 1.377 . S
C432 C434 1.384 . S
C433 C432 1.377 . S
C433 C439 1.390 . S
C434 H425 0.930 . S
C434 C432 1.384 . S
C434 C435 1.372 . S
C435 C434 1.372 . S
C435 C436 1.400 . S
C435 C440 1.490 . S
C436 H426 0.930 . S
C436 C435 1.400 . S
C436 C439 1.386 . S
H437 C453 0.930 . S
H438 C454 0.931 . S
C439 H427 0.929 . S
C439 C433 1.390 . S
C439 C436 1.386 . S
C440 C435 1.490 . S
C440 C442 1.395 . S
C440 C443 1.403 . S
H441 C447 0.930 . S
C442 H428 0.930 . S
C442 C440 1.395 . S
C442 C445 1.403 . S
C443 C440 1.403 . S
C443 C444 1.524 . S
C443 C447 1.400 . S
C444 H429 0.960 . S
C444 H430 0.960 . S
C444 H431 0.960 . S
C444 C443 1.524 . S
C445 C442 1.403 . S
C445 C446 1.392 . S
C445 C449 1.495 . S
C446 C445 1.392 . S
C446 C447 1.385 . S
C446 C448 1.478 . S
C447 H441 0.930 . S
C447 C443 1.400 . S
C447 C446 1.385 . S
C448 C446 1.478 . S
C448 C450 1.381 . S
C448 C454 1.383 . S
C449 C445 1.495 . S
C449 H455 0.959 . S
C449 H456 0.961 . S
C449 H457 0.960 . S
C450 C448 1.381 . S
C450 C451 1.394 . S
C450 H458 0.930 . S
C451 C450 1.394 . S
C451 C452 1.383 . S
C451 H459 0.929 . S
C452 C451 1.383 . S
C452 C453 1.377 . S
C453 H437 0.930 . S
C453 C452 1.377 . S
C453 C454 1.379 . S
C454 H438 0.931 . S
C454 C448 1.383 . S
C454 C453 1.379 . S
H455 C449 0.959 . S
H456 C449 0.961 . S
H457 C449 0.960 . S
H458 C450 0.930 . S
H459 C451 0.929 . S
H460 C468 0.929 . S
H461 C470 0.930 . S
H462 C472 0.930 . S
H463 C475 0.929 . S
H464 C478 0.930 . S
H465 C480 0.960 . S
H466 C480 0.960 . S
H467 C480 0.960 . S
C468 H460 0.929 . S
C468 C469 1.377 . S
C468 C470 1.384 . S
C469 C468 1.377 . S
C469 C475 1.390 . S
C470 H461 0.930 . S
C470 C468 1.384 . S
C470 C471 1.372 . S
C471 C470 1.372 . S
C471 C472 1.400 . S
C471 C476 1.490 . S
C472 H462 0.930 . S
C472 C471 1.400 . S
C472 C475 1.386 . S
H473 C489 0.930 . S
H474 C490 0.931 . S
C475 H463 0.929 . S
C475 C469 1.390 . S
C475 C472 1.386 . S
C476 C471 1.490 . S
C476 C478 1.395 . S
C476 C479 1.403 . S
H477 C483 0.930 . S
C478 H464 0.930 . S
C478 C476 1.395 . S
C478 C481 1.403 . S
C479 C476 1.403 . S
C479 C480 1.524 . S
C479 C483 1.400 . S
C480 H465 0.960 . S
C480 H466 0.960 . S
C480 H467 0.960 . S
C480 C479 1.524 . S
C481 C478 1.403 . S
C481 C482 1.392 . S
C481 C485 1.495 . S
C482 C481 1.392 . S
C482 C483 1.385 . S
C482 C484 1.478 . S
C483 H477 0.930 . S
C483 C479 1.400 . S
C483 C482 1.385 . S
C484 C482 1.478 . S
C484 C486 1.381 . S
C484 C490 1.383 . S
C485 C481 1.495 . S
C485 H491 0.959 . S
C485 H492 0.961 . S
C485 H493 0.960 . S
C486 C484 1.381 . S
C486 C487 1.394 . S
C486 H494 0.930 . S
C487 C486 1.394 . S
C487 C488 1.383 . S
C487 H495 0.929 . S
C488 C487 1.383 . S
C488 C489 1.377 . S
C489 H473 0.930 . S
C489 C488 1.377 . S
C489 C490 1.379 . S
C490 H474 0.931 . S
C490 C484 1.383 . S
C490 C489 1.379 . S
H491 C485 0.959 . S
H492 C485 0.961 . S
H493 C485 0.960 . S
H494 C486 0.930 . S
H495 C487 0.929 . S
C145 C33 1.508 . S
C164 C67 1.513 . S
C181 C135 1.510 . S
C200 C101 1.507 . S
C217 C20 1.249 . S
C236 C122 1.244 . S
C253 C9 1.537 . S
C272 C107 1.543 . S
C289 C104 1.548 . S
C308 C2 1.549 . S
C325 C5 1.550 . S
C344 C111 1.533 . S
C361 C77 1.528 . S
C380 C39 1.553 . S
C397 C36 1.548 . S
C416 C70 1.551 . S
C433 C43 1.529 . S
C452 C73 1.549 . S
C469 C88 1.249 . S
C488 C54 1.249 . S
