# Generated by pormake.
# Topology sth, (5)-cn, num edge types: 1
# Building blocks:
#     Node 0, Type 0, BuildingBlock: XOMCOT_clean_sbu_0, # of connection points: 5
#     Node 1, Type 0, BuildingBlock: XOMCOT_clean_sbu_0, # of connection points: 5
#     Node 2, Type 0, BuildingBlock: XOMCOT_clean_sbu_0, # of connection points: 5
#     Node 3, Type 0, BuildingBlock: XOMCOT_clean_sbu_0, # of connection points: 5
#     Node 4, Type 0, BuildingBlock: XOMCOT_clean_sbu_0, # of connection points: 5
#     Node 5, Type 0, BuildingBlock: XOMCOT_clean_sbu_0, # of connection points: 5
#     Node 6, Type 0, BuildingBlock: XOMCOT_clean_sbu_0, # of connection points: 5
#     Node 7, Type 0, BuildingBlock: XOMCOT_clean_sbu_0, # of connection points: 5
#     Node 8, Type 0, BuildingBlock: XOMCOT_clean_sbu_0, # of connection points: 5
#     Node 9, Type 0, BuildingBlock: XOMCOT_clean_sbu_0, # of connection points: 5
#     Node 10, Type 0, BuildingBlock: XOMCOT_clean_sbu_0, # of connection points: 5
#     Node 11, Type 0, BuildingBlock: XOMCOT_clean_sbu_0, # of connection points: 5
#     Node 12, Type 0, BuildingBlock: XOMCOT_clean_sbu_0, # of connection points: 5
#     Node 13, Type 0, BuildingBlock: XOMCOT_clean_sbu_0, # of connection points: 5
#     Node 14, Type 0, BuildingBlock: XOMCOT_clean_sbu_0, # of connection points: 5
#     Node 15, Type 0, BuildingBlock: XOMCOT_clean_sbu_0, # of connection points: 5
#     Node 16, Type 0, BuildingBlock: XOMCOT_clean_sbu_0, # of connection points: 5
#     Node 17, Type 0, BuildingBlock: XOMCOT_clean_sbu_0, # of connection points: 5
#     Edge 18, Type (0, 0), BuildingBlock: EZIPEK_clean_linker_0, # of connection points: 2
#     Edge 19, Type (0, 0), BuildingBlock: EZIPEK_clean_linker_0, # of connection points: 2
#     Edge 20, Type (0, 0), BuildingBlock: EZIPEK_clean_linker_0, # of connection points: 2
#     Edge 21, Type (0, 0), BuildingBlock: EZIPEK_clean_linker_0, # of connection points: 2
#     Edge 22, Type (0, 0), BuildingBlock: EZIPEK_clean_linker_0, # of connection points: 2
#     Edge 23, Type (0, 0), BuildingBlock: EZIPEK_clean_linker_0, # of connection points: 2
#     Edge 24, Type (0, 0), BuildingBlock: EZIPEK_clean_linker_0, # of connection points: 2
#     Edge 25, Type (0, 0), BuildingBlock: EZIPEK_clean_linker_0, # of connection points: 2
#     Edge 26, Type (0, 0), BuildingBlock: EZIPEK_clean_linker_0, # of connection points: 2
#     Edge 27, Type (0, 0), BuildingBlock: EZIPEK_clean_linker_0, # of connection points: 2
#     Edge 28, Type (0, 0), BuildingBlock: EZIPEK_clean_linker_0, # of connection points: 2
#     Edge 29, Type (0, 0), BuildingBlock: EZIPEK_clean_linker_0, # of connection points: 2
#     Edge 30, Type (0, 0), BuildingBlock: EZIPEK_clean_linker_0, # of connection points: 2
#     Edge 31, Type (0, 0), BuildingBlock: EZIPEK_clean_linker_0, # of connection points: 2
#     Edge 32, Type (0, 0), BuildingBlock: EZIPEK_clean_linker_0, # of connection points: 2
#     Edge 33, Type (0, 0), BuildingBlock: EZIPEK_clean_linker_0, # of connection points: 2
#     Edge 34, Type (0, 0), BuildingBlock: EZIPEK_clean_linker_0, # of connection points: 2
#     Edge 35, Type (0, 0), BuildingBlock: EZIPEK_clean_linker_0, # of connection points: 2
#     Edge 36, Type (0, 0), BuildingBlock: EZIPEK_clean_linker_0, # of connection points: 2
#     Edge 37, Type (0, 0), BuildingBlock: EZIPEK_clean_linker_0, # of connection points: 2
#     Edge 38, Type (0, 0), BuildingBlock: EZIPEK_clean_linker_0, # of connection points: 2
#     Edge 39, Type (0, 0), BuildingBlock: EZIPEK_clean_linker_0, # of connection points: 2
#     Edge 40, Type (0, 0), BuildingBlock: EZIPEK_clean_linker_0, # of connection points: 2
#     Edge 41, Type (0, 0), BuildingBlock: EZIPEK_clean_linker_0, # of connection points: 2
#     Edge 42, Type (0, 0), BuildingBlock: EZIPEK_clean_linker_0, # of connection points: 2
#     Edge 43, Type (0, 0), BuildingBlock: EZIPEK_clean_linker_0, # of connection points: 2
#     Edge 44, Type (0, 0), BuildingBlock: EZIPEK_clean_linker_0, # of connection points: 2
#     Edge 45, Type (0, 0), BuildingBlock: EZIPEK_clean_linker_0, # of connection points: 2
#     Edge 46, Type (0, 0), BuildingBlock: EZIPEK_clean_linker_0, # of connection points: 2
#     Edge 47, Type (0, 0), BuildingBlock: EZIPEK_clean_linker_0, # of connection points: 2
#     Edge 48, Type (0, 0), BuildingBlock: EZIPEK_clean_linker_0, # of connection points: 2
#     Edge 49, Type (0, 0), BuildingBlock: EZIPEK_clean_linker_0, # of connection points: 2
#     Edge 50, Type (0, 0), BuildingBlock: EZIPEK_clean_linker_0, # of connection points: 2
#     Edge 51, Type (0, 0), BuildingBlock: EZIPEK_clean_linker_0, # of connection points: 2
#     Edge 52, Type (0, 0), BuildingBlock: EZIPEK_clean_linker_0, # of connection points: 2
#     Edge 53, Type (0, 0), BuildingBlock: EZIPEK_clean_linker_0, # of connection points: 2
#     Edge 54, Type (0, 0), BuildingBlock: EZIPEK_clean_linker_0, # of connection points: 2
#     Edge 55, Type (0, 0), BuildingBlock: EZIPEK_clean_linker_0, # of connection points: 2
#     Edge 56, Type (0, 0), BuildingBlock: EZIPEK_clean_linker_0, # of connection points: 2
#     Edge 57, Type (0, 0), BuildingBlock: EZIPEK_clean_linker_0, # of connection points: 2
#     Edge 58, Type (0, 0), BuildingBlock: EZIPEK_clean_linker_0, # of connection points: 2
#     Edge 59, Type (0, 0), BuildingBlock: EZIPEK_clean_linker_0, # of connection points: 2
#     Edge 60, Type (0, 0), BuildingBlock: EZIPEK_clean_linker_0, # of connection points: 2
#     Edge 61, Type (0, 0), BuildingBlock: EZIPEK_clean_linker_0, # of connection points: 2
#     Edge 62, Type (0, 0), BuildingBlock: EZIPEK_clean_linker_0, # of connection points: 2
# Relax obj value: 0.196
# Max RMSD: 0.215
# Mean RMSD: 0.215
data_MOF--net-sth--node1-XOMCOT_clean_sbu_0--edge1-EZIPEK_clean_linker_0
_symmetry_space_group_name_H-M    P1
_symmetry_Int_Tables_number       1
_symmetry_cell_setting            triclinic
loop_
_symmetry_equiv_pos_as_xyz
'x, y, z'
_cell_length_a     30.62185
_cell_length_b     30.635871
_cell_length_c     59.986722
_cell_angle_alpha  89.776596
_cell_angle_beta   90.173121
_cell_angle_gamma 120.46807
loop_
_atom_site_label
_atom_site_type_symbol
_atom_site_fract_x
_atom_site_fract_y
_atom_site_fract_z
_atom_type_partial_charge
Co0 Co 0.13322 0.29982 0.22796 0.0
C1 C 0.22281 0.36379 0.19868 0.0
C2 C 0.24436 0.37602 0.23308 0.0
C3 C 0.28692 0.40359 0.22036 0.0
N4 N 0.2035 0.35044 0.21965 0.0
N5 N 0.27373 0.39591 0.19873 0.0
H6 H 0.20036 0.34969 0.18365 0.0
H7 H 0.24518 0.37287 0.25092 0.0
C8 C 0.18563 0.23978 0.22928 0.0
O9 O 0.22137 0.27643 0.24111 0.0
N10 N 0.0639 0.24926 0.23531 0.0
C11 C 0.03392 0.25278 0.25076 0.0
C12 C 0.98802 0.20787 0.25114 0.0
C13 C 0.03578 0.20264 0.22633 0.0
N14 N 0.98943 0.17665 0.23576 0.0
C15 C 0.16374 0.34821 0.27053 0.0
C16 C 0.14813 0.2645 0.29473 0.0
C17 C 0.16506 0.31048 0.30573 0.0
C18 C 0.1725 0.35259 0.29347 0.0
C19 C 0.1399 0.26185 0.27171 0.0
N20 N 0.15002 0.30393 0.25965 0.0
H21 H 0.16913 0.38098 0.26136 0.0
H22 H 0.12388 0.22559 0.2638 0.0
H23 H 0.04507 0.2853 0.26133 0.0
H24 H 0.04919 0.18756 0.21351 0.0
O25 O 0.11497 0.35155 0.22788 0.0
O26 O 0.10988 0.30583 0.1984 0.0
O27 O 0.1479 0.24309 0.22227 0.0
C28 C 0.10272 0.34069 0.20713 0.0
H29 H 0.32528 0.42648 0.22654 0.0
H30 H 0.95663 0.19819 0.26227 0.0
H31 H 0.14001 0.23072 0.30394 0.0
H32 H 0.1842 0.38834 0.30165 0.0
Co33 Co 0.77264 0.85508 0.22952 0.0
C34 C 0.68338 0.86972 0.21648 0.0
C35 C 0.74491 0.89682 0.19327 0.0
C36 C 0.71063 0.90882 0.18516 0.0
N37 N 0.72898 0.87325 0.2131 0.0
N38 N 0.6718 0.89209 0.1996 0.0
H39 H 0.65939 0.8518 0.23075 0.0
H40 H 0.78041 0.90615 0.18547 0.0
C41 C 0.82977 0.96909 0.22894 0.0
O42 O 0.78694 0.96658 0.23421 0.0
N43 N 0.81988 0.83923 0.24374 0.0
C44 C 0.81388 0.80832 0.26099 0.0
C45 C 0.85929 0.80934 0.2644 0.0
C46 C 0.86807 0.85792 0.23681 0.0
N47 N 0.89296 0.8404 0.24903 0.0
C48 C 0.70545 0.83383 0.2666 0.0
C49 C 0.77491 0.90551 0.2955 0.0
C50 C 0.72765 0.86885 0.30396 0.0
C51 C 0.6924 0.83319 0.28904 0.0
C52 C 0.78722 0.9032 0.27323 0.0
N53 N 0.75272 0.86804 0.25883 0.0
H54 H 0.67808 0.80464 0.25579 0.0
H55 H 0.82544 0.92802 0.26815 0.0
H56 H 0.77937 0.78713 0.27052 0.0
H57 H 0.88499 0.88449 0.22316 0.0
O58 O 0.72187 0.78391 0.22781 0.0
O59 O 0.78001 0.82481 0.20201 0.0
O60 O 0.83089 0.92818 0.22608 0.0
C61 C 0.74115 0.78239 0.20888 0.0
H62 H 0.71425 0.92921 0.16984 0.0
H63 H 0.86733 0.78987 0.27743 0.0
H64 H 0.80346 0.93357 0.30645 0.0
H65 H 0.65553 0.80391 0.29484 0.0
Co66 Co 0.21123 0.93743 0.23241 0.0
C67 C 0.16308 0.83716 0.21034 0.0
C68 C 0.22295 0.84845 0.23268 0.0
C69 C 0.20359 0.8017 0.22293 0.0
N70 N 0.19764 0.87062 0.22476 0.0
N71 N 0.1661 0.79477 0.20895 0.0
H72 H 0.13684 0.8438 0.20088 0.0
H73 H 0.25373 0.86538 0.24458 0.0
C74 C 0.10889 0.92206 0.24315 0.0
O75 O 0.13128 0.95073 0.26059 0.0
N76 N 0.22582 1.00564 0.23963 0.0
C77 C 0.26352 0.04089 0.25249 0.0
C78 C 0.26376 0.08583 0.2509 0.0
C79 C 0.2047 0.03051 0.22989 0.0
N80 N 0.22687 0.0791 0.2367 0.0
C81 C 0.24768 0.93762 0.27613 0.0
C82 C 0.15783 0.86362 0.29464 0.0
C83 C 0.20183 0.88642 0.30768 0.0
C84 C 0.24731 0.92267 0.29798 0.0
C85 C 0.1605 0.87812 0.27232 0.0
N86 N 0.20429 0.91746 0.26373 0.0
H87 H 0.28386 0.96408 0.26909 0.0
H88 H 0.12754 0.85698 0.26201 0.0
H89 H 0.29086 0.03597 0.26173 0.0
H90 H 0.17424 1.01368 0.21783 0.0
O91 O 0.28272 0.96216 0.22999 0.0
O92 O 0.23518 0.96101 0.20195 0.0
O93 O 0.13548 0.91334 0.2293 0.0
C94 C 0.27985 0.97208 0.20933 0.0
H95 H 0.21599 0.77475 0.2258 0.0
H96 H 0.28912 0.12086 0.2594 0.0
H97 H 0.12223 0.83415 0.30148 0.0
H98 H 0.28245 0.93969 0.30734 0.0
Co99 Co 0.30021 0.12725 0.80895 0.0
C100 C 0.38916 0.22987 0.82369 0.0
C101 C 0.32211 0.19912 0.84374 0.0
C102 C 0.35665 0.24508 0.85226 0.0
N103 N 0.3411 0.18994 0.82531 0.0
N104 N 0.39913 0.26483 0.83988 0.0
H105 H 0.41643 0.23291 0.81149 0.0
H106 H 0.2849 0.17381 0.85052 0.0
C107 C 0.23725 0.1768 0.80904 0.0
O108 O 0.27825 0.21857 0.80272 0.0
N109 N 0.25637 0.06349 0.79446 0.0
C110 C 0.2636 0.04304 0.77597 0.0
C111 C 0.21867 0.99893 0.77102 0.0
C112 C 0.20811 0.03167 0.80065 0.0
N113 N 0.18411 0.99248 0.78657 0.0
C114 C 0.36458 0.17779 0.77129 0.0
C115 C 0.28977 0.17158 0.74332 0.0
C116 C 0.33719 0.18575 0.73416 0.0
C117 C 0.37518 0.18969 0.7486 0.0
C118 C 0.27987 0.15686 0.76567 0.0
N119 N 0.31711 0.16077 0.77966 0.0
H120 H 0.39374 0.17861 0.7817 0.0
H121 H 0.24118 0.13904 0.77109 0.0
H122 H 0.2982 0.05989 0.76633 0.0
H123 H 0.19008 0.03814 0.81473 0.0
O124 O 0.35393 0.11156 0.81061 0.0
O125 O 0.29481 0.09024 0.83638 0.0
O126 O 0.23918 0.13655 0.81263 0.0
C127 C 0.33488 0.08964 0.82953 0.0
H128 H 0.35108 0.26276 0.86672 0.0
H129 H 0.21122 0.9749 0.75665 0.0
H130 H 0.25913 0.16746 0.73277 0.0
H131 H 0.41221 0.19983 0.74221 0.0
Co132 Co 0.93234 0.20034 0.79786 0.0
C133 C 0.82936 0.14971 0.8174 0.0
C134 C 0.84179 0.21056 0.79544 0.0
C135 C 0.79471 0.1911 0.8051 0.0
N136 N 0.86352 0.18475 0.80324 0.0
N137 N 0.78703 0.153 0.81891 0.0
H138 H 0.83601 0.12367 0.82702 0.0
H139 H 0.85962 0.24232 0.78405 0.0
C140 C 0.92065 0.10134 0.78554 0.0
O141 O 0.95397 0.12713 0.76991 0.0
N142 N 1.00277 0.21659 0.79399 0.0
C143 C 0.04299 0.26077 0.78691 0.0
C144 C 0.08683 0.2594 0.78997 0.0
C145 C 1.02392 0.19058 0.80267 0.0
N146 N 0.07461 0.21519 0.79976 0.0
C147 C 0.95061 0.23181 0.75169 0.0
C148 C 0.86213 0.15148 0.73509 0.0
C149 C 0.89631 0.18855 0.72035 0.0
C150 C 0.94123 0.22878 0.72887 0.0
C151 C 0.87422 0.15477 0.75776 0.0
N152 N 0.91861 0.19417 0.76583 0.0
H153 H 0.98259 0.2656 0.75787 0.0
H154 H 0.84747 0.12577 0.76891 0.0
H155 H 0.04198 0.294 0.78173 0.0
H156 H 1.00313 0.15497 0.81149 0.0
O157 O 0.95542 0.27139 0.8007 0.0
O158 O 0.9491 0.22147 0.8289 0.0
O159 O 0.90828 0.12496 0.79948 0.0
C160 C 0.96124 0.26665 0.82179 0.0
H161 H 0.76849 0.20457 0.8026 0.0
H162 H 0.12497 0.28925 0.78608 0.0
H163 H 0.82645 0.1204 0.72914 0.0
H164 H 0.96778 0.25899 0.71805 0.0
Co165 Co 0.86835 0.77038 0.80451 0.0
C166 C 0.89126 0.68794 0.81485 0.0
C167 C 0.90928 0.74145 0.84137 0.0
C168 C 0.92561 0.70889 0.84741 0.0
N169 N 0.88786 0.72861 0.821 0.0
N170 N 0.91444 0.67553 0.83078 0.0
H171 H 0.87949 0.66931 0.79886 0.0
H172 H 0.91519 0.77416 0.85069 0.0
C173 C 0.96797 0.85654 0.78927 0.0
O174 O 0.94576 0.85243 0.76996 0.0
N175 N 0.85055 0.81547 0.78934 0.0
C176 C 0.81596 0.80708 0.77338 0.0
C177 C 0.81475 0.85103 0.76998 0.0
C178 C 0.86935 0.86421 0.79544 0.0
N179 N 0.84881 0.88694 0.78373 0.0
C180 C 0.83501 0.71441 0.76409 0.0
C181 C 0.92849 0.73929 0.74699 0.0
C182 C 0.8855 0.7149 0.73338 0.0
C183 C 0.8381 0.69982 0.74257 0.0
C184 C 0.92326 0.75167 0.7689 0.0
N185 N 0.87762 0.74404 0.77632 0.0
H186 H 0.79797 0.70318 0.77048 0.0
H187 H 0.95626 0.76897 0.77944 0.0
H188 H 0.79196 0.77168 0.76506 0.0
H189 H 0.89778 0.8829 0.80827 0.0
O190 O 0.79785 0.72048 0.80877 0.0
O191 O 0.84205 0.78341 0.83195 0.0
O192 O 0.94203 0.82761 0.80547 0.0
C193 C 0.79847 0.74384 0.82677 0.0
H194 H 0.94642 0.71095 0.86238 0.0
H195 H 0.79124 0.85652 0.75811 0.0
H196 H 0.96561 0.74988 0.74059 0.0
H197 H 0.80388 0.67932 0.7327 0.0
Co198 Co 0.78185 0.60614 0.56848 0.0
C199 C 0.8919 0.66091 0.55783 0.0
C200 C 0.8538 0.69309 0.54016 0.0
C201 C 0.90373 0.71821 0.53384 0.0
N202 N 0.84596 0.65669 0.55511 0.0
N203 N 0.92756 0.69789 0.54483 0.0
H204 H 0.89905 0.63723 0.56891 0.0
H205 H 0.82568 0.70137 0.53398 0.0
C206 C 0.79415 0.51395 0.5762 0.0
O207 O 0.75509 0.49274 0.5896 0.0
N208 N 0.71683 0.55431 0.58007 0.0
C209 C 0.68882 0.55594 0.59703 0.0
C210 C 0.64276 0.51096 0.59732 0.0
C211 C 0.68649 0.51003 0.56962 0.0
N212 N 0.64195 0.48228 0.58013 0.0
C213 C 0.84357 0.67848 0.60172 0.0
C214 C 0.81734 0.61241 0.63723 0.0
C215 C 0.85137 0.66389 0.64068 0.0
C216 C 0.86553 0.69701 0.62252 0.0
C217 C 0.79801 0.59515 0.61594 0.0
N218 N 0.81132 0.62779 0.59829 0.0
H219 H 0.85183 0.70551 0.58848 0.0
H220 H 0.77037 0.55591 0.61431 0.0
H221 H 0.7008 0.58757 0.60825 0.0
H222 H 0.69742 0.49774 0.55483 0.0
O223 O 0.75509 0.65077 0.56573 0.0
O224 O 0.74781 0.59648 0.53982 0.0
O225 O 0.80752 0.55627 0.56642 0.0
C226 C 0.73712 0.63067 0.5464 0.0
H227 H 0.92136 0.74902 0.52193 0.0
H228 H 0.6124 0.50001 0.6092 0.0
H229 H 0.80472 0.58586 0.65103 0.0
H230 H 0.8911 0.7373 0.6247 0.0
Co231 Co 0.41763 0.16605 0.56581 0.0
C232 C 0.33813 0.19411 0.55241 0.0
C233 C 0.38505 0.19405 0.5259 0.0
C234 C 0.35439 0.21029 0.51736 0.0
N235 N 0.37582 0.18431 0.54793 0.0
N236 N 0.32532 0.21093 0.53389 0.0
H237 H 0.32187 0.19101 0.56873 0.0
H238 H 0.41456 0.19259 0.51671 0.0
C239 C 0.48132 0.28124 0.55894 0.0
O240 O 0.44238 0.28303 0.55106 0.0
N241 N 0.46271 0.14844 0.58145 0.0
C242 C 0.45184 0.10214 0.58878 0.0
C243 C 0.49592 0.10045 0.59002 0.0
C244 C 0.51365 0.17408 0.57861 0.0
N245 N 0.53443 0.14548 0.58323 0.0
C246 C 0.37788 0.14092 0.60949 0.0
C247 C 0.38766 0.23157 0.62258 0.0
C248 C 0.37341 0.19291 0.63853 0.0
C249 C 0.36819 0.14708 0.63152 0.0
C250 C 0.39935 0.22449 0.60066 0.0
N251 N 0.39582 0.1798 0.59446 0.0
H252 H 0.3717 0.10448 0.6047 0.0
H253 H 0.41084 0.25496 0.58898 0.0
H254 H 0.41426 0.06952 0.59044 0.0
H255 H 0.53492 0.21076 0.57074 0.0
O256 O 0.365 0.09569 0.56372 0.0
O257 O 0.42681 0.13385 0.53925 0.0
O258 O 0.47753 0.23873 0.56397 0.0
C259 C 0.38617 0.09238 0.54571 0.0
H260 H 0.35464 0.22267 0.5004 0.0
H261 H 0.49883 0.06735 0.59358 0.0
H262 H 0.39062 0.26715 0.62713 0.0
H263 H 0.35619 0.11571 0.64304 0.0
Co264 Co 0.8441 0.24085 0.55255 0.0
C265 C 0.83787 0.14367 0.53555 0.0
C266 C 0.78563 0.16216 0.52064 0.0
C267 C 0.77781 0.11809 0.5114 0.0
N268 N 0.8217 0.17757 0.5365 0.0
N269 N 0.81041 0.10605 0.52068 0.0
H270 H 0.86942 0.14667 0.54489 0.0
H271 H 0.76637 0.18211 0.51592 0.0
C272 C 0.73298 0.17964 0.56165 0.0
O273 O 0.7395 0.14072 0.5643 0.0
N274 N 0.8653 0.30486 0.56686 0.0
C275 C 0.90779 0.33366 0.57878 0.0
C276 C 0.91164 0.37987 0.58274 0.0
C277 C 0.84368 0.33335 0.56392 0.0
N278 N 0.87116 0.37928 0.57342 0.0
C279 C 0.87559 0.19679 0.58697 0.0
C280 C 0.81988 0.20745 0.62047 0.0
C281 C 0.8553 0.19337 0.62616 0.0
C282 C 0.88308 0.18746 0.60913 0.0
C283 C 0.81533 0.21857 0.59841 0.0
N284 N 0.84172 0.21182 0.58176 0.0
H285 H 0.9001 0.19596 0.57436 0.0
H286 H 0.79257 0.23555 0.59504 0.0
H287 H 0.93494 0.32258 0.58349 0.0
H288 H 0.8094 0.32144 0.55439 0.0
O289 O 0.91337 0.26283 0.54569 0.0
O290 O 0.86248 0.27623 0.52393 0.0
O291 O 0.77044 0.22283 0.55573 0.0
C292 C 0.90738 0.28256 0.52766 0.0
H293 H 0.75046 0.09656 0.49852 0.0
H294 H 0.94185 0.41158 0.5916 0.0
H295 H 0.7987 0.21367 0.63326 0.0
H296 H 0.91196 0.17814 0.61303 0.0
Co297 Co 0.97953 0.4707 0.13537 0.0
C298 C 1.03103 0.57296 0.15576 0.0
C299 C 0.08162 0.55977 0.13594 0.0
C300 C 0.10889 0.60705 0.14532 0.0
N301 N 0.03297 0.53843 0.14256 0.0
N302 N 0.0771 0.61513 0.15774 0.0
H303 H 0.99712 0.5671 0.16406 0.0
H304 H 0.09629 0.54181 0.12526 0.0
C305 C 0.89602 0.48752 0.12038 0.0
O306 O 0.89214 0.46023 0.10281 0.0
N307 N 0.92587 0.40098 0.12893 0.0
C308 C 0.93235 0.3616 0.12374 0.0
C309 C 0.88611 0.31772 0.12284 0.0
C310 C 0.87533 0.37918 0.13234 0.0
N311 N 0.85049 0.32912 0.1281 0.0
C312 C 1.00166 0.53319 0.09609 0.0
C313 C 1.01613 0.47 0.06827 0.0
C314 C 1.02436 0.51627 0.06003 0.0
C315 C 1.01758 0.54849 0.0742 0.0
C316 C 1.0022 0.45714 0.0904 0.0
N317 N 0.99353 0.48762 0.10392 0.0
H318 H 0.99702 0.55861 0.10696 0.0
H319 H 1.00071 0.4237 0.09672 0.0
H320 H 0.96832 0.36351 0.12174 0.0
H321 H 0.8566 0.39858 0.13833 0.0
O322 O 1.02644 0.44737 0.14022 0.0
O323 O 0.97722 0.4509 0.16642 0.0
O324 O 0.92858 0.49491 0.13561 0.0
C325 C 1.01144 0.43953 0.16078 0.0
H326 H 0.14908 0.63342 0.14339 0.0
H327 H 0.87904 0.28026 0.11882 0.0
H328 H 1.02241 0.44485 0.05787 0.0
H329 H 1.0247 0.58506 0.06841 0.0
Co330 Co 0.60461 0.5243 0.13674 0.0
C331 C 0.49628 0.50106 0.14521 0.0
C332 C 0.52825 0.47507 0.17022 0.0
C333 C 0.4795 0.45964 0.1762 0.0
N334 N 0.53928 0.50099 0.15086 0.0
N335 N 0.45923 0.47564 0.16059 0.0
H336 H 0.49157 0.51769 0.13012 0.0
H337 H 0.55381 0.46654 0.17912 0.0
C338 C 0.58967 0.42452 0.12067 0.0
O339 O 0.61265 0.44748 0.1021 0.0
N340 N 0.67228 0.54626 0.12467 0.0
C341 C 0.70793 0.59351 0.11811 0.0
C342 C 0.75394 0.59608 0.11595 0.0
C343 C 0.69858 0.52188 0.12744 0.0
N344 N 0.74778 0.5509 0.12173 0.0
C345 C 0.60019 0.55822 0.0929 0.0
C346 C 0.51428 0.47266 0.07791 0.0
C347 C 0.54199 0.51277 0.06293 0.0
C348 C 0.58517 0.55598 0.07085 0.0
C349 C 0.53218 0.47566 0.09984 0.0
N350 N 0.57582 0.51764 0.10686 0.0
H351 H 0.63136 0.59326 0.09871 0.0
H352 H 0.5111 0.44417 0.11109 0.0
H353 H 0.70264 0.62568 0.11676 0.0
H354 H 0.68327 0.48474 0.13477 0.0
O355 O 0.62347 0.5939 0.14178 0.0
O356 O 0.63725 0.54753 0.16596 0.0
O357 O 0.58626 0.45035 0.13664 0.0
C358 C 0.64196 0.59123 0.16084 0.0
H359 H 0.45961 0.43686 0.19062 0.0
H360 H 0.78963 0.6291 0.11135 0.0
H361 H 0.47975 0.43914 0.07262 0.0
H362 H 0.60677 0.58851 0.06011 0.0
Co363 Co 0.54192 0.09592 0.14276 0.0
C364 C 0.55377 1.00794 0.1591 0.0
C365 C 0.61365 0.08172 0.1687 0.0
C366 C 0.62366 0.04671 0.17759 0.0
N367 N 0.5704 0.05814 0.15671 0.0
N368 N 0.58619 1.00022 0.17184 0.0
H369 H 0.5185 0.97802 0.15226 0.0
H370 H 0.63603 0.12195 0.1717 0.0
C371 C 0.636 0.18598 0.12473 0.0
O372 O 0.61041 0.18229 0.1065 0.0
N373 N 0.51575 0.13807 0.13068 0.0
C374 C 0.46913 0.12479 0.12282 0.0
C375 C 0.46592 0.16792 0.11985 0.0
C376 C 0.53847 0.18886 0.13358 0.0
N377 N 0.51007 0.20816 0.12641 0.0
C378 C 0.5078 0.05263 0.09964 0.0
C379 C 0.59773 0.06286 0.08462 0.0
C380 C 0.55653 0.04549 0.06995 0.0
C381 C 0.51083 0.039 0.07786 0.0
C382 C 0.59306 0.0764 0.10644 0.0
N383 N 0.54925 0.07396 0.11325 0.0
H384 H 0.47177 0.04566 0.10554 0.0
H385 H 0.62506 0.09015 0.11764 0.0
H386 H 0.43812 0.0865 0.12065 0.0
H387 H 0.57451 0.21174 0.14165 0.0
O388 O 0.4742 0.04152 0.14815 0.0
O389 O 0.51868 0.10369 0.172 0.0
O390 O 0.61352 0.15642 0.14124 0.0
C391 C 0.4758 0.06289 0.16692 0.0
H392 H 0.65546 0.05467 0.18826 0.0
H393 H 0.4335 0.16957 0.11374 0.0
H394 H 0.63328 0.06699 0.07911 0.0
H395 H 0.47776 0.02394 0.06717 0.0
Co396 Co 0.47099 0.96701 0.90106 0.0
C397 C 0.56985 1.01844 0.87707 0.0
C398 C 0.56296 0.06712 0.90072 0.0
C399 C 0.60877 0.09443 0.89001 0.0
N400 N 0.53843 1.01966 0.89253 0.0
N401 N 0.6131 0.0639 0.87518 0.0
H402 H 0.5611 0.98546 0.86721 0.0
H403 H 0.54812 0.08114 0.91337 0.0
C404 C 0.48077 0.87648 0.91051 0.0
O405 O 0.45267 0.86969 0.92815 0.0
N406 N 0.40225 0.91407 0.90907 0.0
C407 C 0.37008 0.91559 0.92404 0.0
C408 C 0.32407 0.87124 0.92293 0.0
C409 C 0.37421 0.86925 0.89848 0.0
N410 N 0.32689 0.84229 0.90691 0.0
C411 C 0.47537 1.00215 0.94602 0.0
C412 C 0.54896 0.9831 0.96178 0.0
C413 C 0.52714 1.00196 0.97643 0.0
C414 C 0.49078 1.01262 0.96826 0.0
C415 C 0.53233 0.9732 0.93964 0.0
N416 N 0.49337 0.97933 0.9323 0.0
H417 H 0.45009 1.01409 0.93974 0.0
H418 H 0.55182 0.96174 0.92839 0.0
H419 H 0.37784 0.9468 0.93471 0.0
H420 H 0.38792 0.85701 0.88465 0.0
O421 O 0.44741 1.01475 0.89865 0.0
O422 O 0.44668 0.96709 0.87094 0.0
O423 O 0.49186 0.91375 0.89731 0.0
C424 C 0.43596 1.00079 0.87803 0.0
H425 H 0.63683 0.13383 0.89279 0.0
H426 H 0.29093 0.86103 0.93299 0.0
H427 H 0.57897 0.97673 0.96733 0.0
H428 H 0.47496 0.02961 0.97891 0.0
Co429 Co 0.09794 0.52749 0.88978 0.0
C430 C 0.03523 0.55682 0.86237 0.0
C431 C 1.02284 0.56106 0.89724 0.0
C432 C 0.99447 0.57632 0.88552 0.0
N433 N 0.04896 0.5489 0.88284 0.0
N434 N 1.00229 0.57386 0.86367 0.0
H435 H 0.0494 0.55097 0.84685 0.0
H436 H 1.02577 0.56219 0.91513 0.0
C437 C 0.16023 0.64118 0.89423 0.0
O438 O 0.12234 0.6391 0.90527 0.0
N439 N 0.14612 0.50616 0.89632 0.0
C440 C 0.13714 0.46528 0.90841 0.0
C441 C 0.18073 0.46276 0.90907 0.0
C442 C 0.19489 0.52794 0.88975 0.0
N443 N 0.21705 0.50242 0.89753 0.0
C444 C 0.04688 0.49914 0.93162 0.0
C445 C 0.12496 0.57102 0.95747 0.0
C446 C 0.07854 0.53751 0.96748 0.0
C447 C 0.0396 0.50049 0.95442 0.0
C448 C 0.13117 0.56706 0.93469 0.0
N449 N 0.09138 0.53385 0.92174 0.0
H450 H 1.01568 0.4713 0.92177 0.0
H451 H 0.16803 0.59052 0.92766 0.0
H452 H 0.10149 0.43936 0.91633 0.0
H453 H 0.21386 0.56153 0.87945 0.0
O454 O 0.04508 0.45756 0.88717 0.0
O455 O 0.09365 0.5037 0.85918 0.0
O456 O 0.15659 0.60048 0.8865 0.0
C457 C 0.05756 0.45991 0.86646 0.0
H458 H 0.97073 0.58959 0.89252 0.0
H459 H 0.18598 0.43489 0.91794 0.0
H460 H 0.15636 0.59913 0.96728 0.0
H461 H 1.00351 0.47338 0.96176 0.0
Co462 Co 0.5345 0.59996 0.89488 0.0
C463 C 0.52467 0.49939 0.87966 0.0
C464 C 0.49193 0.5315 0.85836 0.0
C465 C 0.48091 0.48601 0.84969 0.0
N466 N 0.51763 0.53961 0.8776 0.0
N467 N 0.50128 0.46533 0.86291 0.0
H468 H 0.54617 0.4949 0.89282 0.0
H469 H 0.48128 0.55713 0.85121 0.0
C470 C 0.42099 0.53916 0.8945 0.0
O471 O 0.42508 0.49917 0.89842 0.0
N472 N 0.54956 0.66164 0.90986 0.0
C473 C 0.57526 0.68308 0.9288 0.0
C474 C 0.57363 0.72686 0.93257 0.0
C475 C 0.53359 0.69256 0.90223 0.0
N476 N 0.54744 0.73239 0.91575 0.0
C477 C 0.55241 0.54952 0.93136 0.0
C478 C 0.48285 0.5511 0.96012 0.0
C479 C 0.51607 0.53616 0.96844 0.0
C480 C 0.5509 0.53499 0.95367 0.0
C481 C 0.48742 0.56772 0.93808 0.0
N482 N 0.52066 0.56536 0.92367 0.0
H483 H 0.58164 0.55138 0.92071 0.0
H484 H 0.46603 0.58527 0.93304 0.0
H485 H 0.59298 0.66763 0.93929 0.0
H486 H 0.51099 0.68534 0.88731 0.0
O487 O 0.60571 0.62233 0.89318 0.0
O488 O 0.56411 0.64018 0.86803 0.0
O489 O 0.46093 0.58288 0.89201 0.0
C490 C 0.60701 0.64514 0.87473 0.0
H491 H 0.45912 0.46906 0.83469 0.0
H492 H 0.5894 0.75202 0.94671 0.0
H493 H 0.4561 0.55357 0.97106 0.0
H494 H 0.5781 0.52487 0.95954 0.0
Co495 Co 0.62155 0.7689 0.47176 0.0
C496 C 0.71404 0.872 0.48304 0.0
C497 C 0.64742 0.84775 0.50298 0.0
C498 C 0.68336 0.89471 0.50995 0.0
N499 N 0.66575 0.83334 0.48596 0.0
N500 N 0.72533 0.91043 0.49757 0.0
H501 H 0.7398 0.87217 0.47068 0.0
H502 H 0.6097 0.82539 0.50981 0.0
C503 C 0.53452 0.78017 0.4569 0.0
O504 O 0.53195 0.75454 0.43896 0.0
N505 N 0.57145 0.70205 0.46014 0.0
C506 C 0.56349 0.67834 0.44026 0.0
C507 C 0.51684 0.63405 0.4407 0.0
C508 C 0.52962 0.671 0.47224 0.0
N509 N 0.49565 0.62982 0.46083 0.0
C510 C 0.66649 0.77827 0.42908 0.0
C511 C 0.66015 0.85947 0.41307 0.0
C512 C 0.67705 0.83498 0.39865 0.0
C513 C 0.68087 0.79443 0.40717 0.0
C514 C 0.64411 0.84057 0.4348 0.0
N515 N 0.64482 0.79855 0.44209 0.0
H516 H 0.67078 0.74751 0.43528 0.0
H517 H 0.63104 0.85963 0.44567 0.0
H518 H 0.58722 0.69244 0.42574 0.0
H519 H 0.5223 0.68017 0.48869 0.0
O520 O 0.67011 0.74746 0.47637 0.0
O521 O 0.61169 0.73608 0.50086 0.0
O522 O 0.5673 0.78813 0.47198 0.0
C523 C 0.64872 0.72878 0.49537 0.0
H524 H 0.67898 0.91623 0.52315 0.0
H525 H 0.49878 0.60824 0.42694 0.0
H526 H 0.65849 0.89224 0.40745 0.0
H527 H 0.69504 0.77527 0.39691 0.0
Co528 Co 0.2555 0.83362 0.47605 0.0
C529 C 0.165 0.79762 0.50577 0.0
C530 C 0.14326 0.79154 0.47147 0.0
C531 C 0.10045 0.77237 0.48421 0.0
N532 N 0.18457 0.80844 0.48479 0.0
N533 N 0.11395 0.7762 0.50569 0.0
H534 H 0.18711 0.80368 0.52074 0.0
H535 H 0.14241 0.78974 0.45356 0.0
C536 C 0.2067 0.72428 0.46222 0.0
O537 O 0.17724 0.73228 0.44906 0.0
N538 N 0.32527 0.85692 0.46835 0.0
C539 C 0.35825 0.89994 0.45764 0.0
C540 C 0.40337 0.90063 0.45502 0.0
C541 C 0.35079 0.83253 0.47241 0.0
N542 N 0.39814 0.85782 0.46405 0.0
C543 C 0.22047 0.86467 0.43881 0.0
C544 C 0.25153 0.82363 0.40593 0.0
C545 C 0.22599 0.8491 0.39996 0.0
C546 C 0.21014 0.8695 0.41671 0.0
C547 C 0.2587 0.81737 0.42846 0.0
N548 N 0.24094 0.83568 0.44464 0.0
H549 H 0.21002 0.88265 0.45149 0.0
H550 H 0.27906 0.79845 0.43287 0.0
H551 H 0.3497 0.92816 0.45168 0.0
H552 H 0.33495 0.7966 0.48103 0.0
O553 O 0.2732 0.90227 0.48187 0.0
O554 O 0.27795 0.85207 0.50711 0.0
O555 O 0.2397 0.76012 0.4746 0.0
C556 C 0.28584 0.89702 0.50179 0.0
H557 H 0.06186 0.75495 0.47814 0.0
H558 H 0.43672 0.9292 0.44636 0.0
H559 H 0.26587 0.80896 0.3933 0.0
H560 H 0.19138 0.89048 0.41266 0.0
Co561 Co 0.18055 0.39975 0.47114 0.0
C562 C 0.21891 0.33278 0.48868 0.0
C563 C 0.1547 0.32318 0.50698 0.0
C564 C 0.17115 0.2938 0.51683 0.0
N565 N 0.18386 0.34746 0.48899 0.0
N566 N 0.21144 0.29992 0.50548 0.0
H567 H 0.24986 0.34675 0.47693 0.0
H568 H 0.12439 0.32737 0.5136 0.0
C569 C 0.28712 0.49229 0.47087 0.0
O570 O 0.27331 0.51276 0.45529 0.0
N571 N 0.17542 0.45216 0.45497 0.0
C572 C 0.16045 0.45245 0.43381 0.0
C573 C 0.15943 0.49663 0.43033 0.0
C574 C 0.1806 0.49467 0.46432 0.0
N575 N 0.17265 0.52306 0.44953 0.0
C576 C 0.16639 0.3272 0.43864 0.0
C577 C 0.2336 0.3925 0.40719 0.0
C578 C 0.19656 0.34374 0.40072 0.0
C579 C 0.16461 0.30987 0.41697 0.0
C580 C 0.23438 0.40815 0.42911 0.0
N581 N 0.19874 0.37671 0.44419 0.0
H582 H 0.1387 0.30167 0.45055 0.0
H583 H 0.26113 0.44657 0.43291 0.0
H584 H 0.15073 0.42275 0.42178 0.0
H585 H 0.19226 0.50575 0.48142 0.0
O586 O 0.10874 0.3575 0.46714 0.0
O587 O 0.14389 0.40905 0.49567 0.0
O588 O 0.25532 0.44883 0.47933 0.0
C589 C 0.10241 0.37542 0.48549 0.0
H590 H 0.15608 0.27123 0.53182 0.0
H591 H 0.15048 0.50882 0.41489 0.0
H592 H 0.25936 0.4194 0.39502 0.0
H593 H 0.13587 0.27162 0.41254 0.0
C594 C 0.36994 0.41033 0.15622 0.0
C595 C 0.4065 0.46142 0.16066 0.0
C596 C 0.34206 0.47139 0.18027 0.0
C597 C 0.30983 0.41804 0.18058 0.0
N598 N 0.28937 0.33654 0.16618 0.0
N599 N 0.4275 0.54267 0.17479 0.0
C600 C 0.32198 0.38751 0.16718 0.0
C601 C 0.39203 0.49298 0.1715 0.0
N602 N 0.38263 0.38364 0.14215 0.0
N603 N 0.32473 0.50072 0.18912 0.0
H604 H 0.46381 0.55886 0.168 0.0
H605 H 0.42168 0.56714 0.18465 0.0
H606 H 0.288 0.48478 0.19546 0.0
H607 H 0.34459 0.54011 0.18847 0.0
H608 H 0.35749 0.34697 0.13679 0.0
H609 H 0.41802 0.40041 0.13439 0.0
H610 H 0.29825 0.3111 0.15905 0.0
H611 H 0.2531 0.31924 0.17287 0.0
C612 C 0.60691 0.88992 0.17467 0.0
C613 C 0.62951 0.90027 0.19616 0.0
C614 C 0.59099 0.95199 0.20345 0.0
C615 C 0.58349 0.9545 0.18027 0.0
N616 N 0.58157 0.92267 0.14345 0.0
N617 N 0.64178 0.94206 0.2317 0.0
C618 C 0.58908 0.92129 0.1658 0.0
C619 C 0.61982 0.93022 0.2111 0.0
N620 N 0.60503 0.85148 0.16253 0.0
N621 N 0.57293 0.97344 0.21783 0.0
H622 H 0.66381 0.9279 0.23797 0.0
H623 H 0.64066 0.96865 0.24208 0.0
H624 H 0.55231 0.98994 0.21212 0.0
H625 H 0.57396 0.97023 0.2351 0.0
H626 H 0.5863 0.8396 0.14728 0.0
H627 H 0.61815 0.82851 0.16903 0.0
H628 H 0.59091 0.90363 0.13179 0.0
H629 H 0.56823 0.94489 0.13649 0.0
C630 C 0.0891 0.65753 0.19423 0.0
C631 C 0.09126 0.65997 0.17064 0.0
C632 C 0.1396 0.75266 0.17214 0.0
C633 C 0.13587 0.75021 0.1957 0.0
N634 N 0.09605 0.70179 0.2287 0.0
N635 N 0.10654 0.70862 0.1371 0.0
C636 C 0.10679 0.70293 0.20657 0.0
C637 C 0.11256 0.70732 0.1596 0.0
N638 N 0.07334 0.6125 0.20487 0.0
N639 N 0.17138 0.79764 0.16186 0.0
H640 H 0.08595 0.67569 0.12771 0.0
H641 H 0.11744 0.74191 0.12825 0.0
H642 H 0.19285 0.83133 0.17057 0.0
H643 H 0.17964 0.80074 0.14489 0.0
H644 H 0.07595 0.60943 0.22207 0.0
H645 H 0.06179 0.57874 0.19639 0.0
H646 H 0.07143 0.66861 0.23724 0.0
H647 H 0.10786 0.7348 0.23789 0.0
C648 C 0.49833 0.40343 0.83609 0.0
C649 C 0.49545 0.41601 0.85858 0.0
C650 C 0.45704 0.32601 0.86745 0.0
C651 C 0.4437 0.31355 0.84473 0.0
N652 N 0.45271 0.34398 0.80667 0.0
N653 N 0.46835 0.38534 0.89631 0.0
C654 C 0.4658 0.35299 0.82863 0.0
C655 C 0.47519 0.37647 0.8747 0.0
N656 N 0.53026 0.44054 0.82176 0.0
N657 N 0.44929 0.28874 0.88215 0.0
H658 H 0.47799 0.42075 0.90242 0.0
H659 H 0.44878 0.35621 0.90782 0.0
H660 H 0.43604 0.25164 0.87686 0.0
H661 H 0.46105 0.296 0.89874 0.0
H662 H 0.53625 0.43316 0.80545 0.0
H663 H 0.55444 0.47757 0.82721 0.0
H664 H 0.46409 0.37301 0.79497 0.0
H665 H 0.42754 0.3084 0.80032 0.0
C666 C 0.74859 0.12629 0.85663 0.0
C667 C 0.74331 0.12433 0.83309 0.0
C668 C 0.6507 0.0793 0.83717 0.0
C669 C 0.65604 0.07868 0.86064 0.0
N670 N 0.70917 0.08946 0.89214 0.0
N671 N 0.68975 0.08801 0.80102 0.0
C672 C 0.70485 0.09823 0.87015 0.0
C673 C 0.69435 0.0972 0.8234 0.0
N674 N 0.7947 0.15748 0.86615 0.0
N675 N 0.60464 0.06576 0.82808 0.0
H676 H 0.72118 0.09957 0.79073 0.0
H677 H 0.65515 0.06468 0.7932 0.0
H678 H 0.57224 0.05413 0.83766 0.0
H679 H 0.59958 0.07042 0.81124 0.0
H680 H 0.7997 0.16412 0.88324 0.0
H681 H 0.8271 0.18067 0.85686 0.0
H682 H 0.74358 0.09898 0.89966 0.0
H683 H 0.67755 0.06781 0.90219 0.0
C684 C 0.92584 0.56392 0.84586 0.0
C685 C 0.97938 0.58853 0.84637 0.0
C686 C 0.98419 0.65937 0.82522 0.0
C687 C 0.93238 0.64035 0.82979 0.0
N688 N 0.8517 0.57294 0.84188 0.0
N689 N 0.06018 0.6567 0.83402 0.0
C690 C 0.90219 0.59132 0.83877 0.0
C691 C 1.00876 0.63476 0.83466 0.0
N692 N 0.89841 0.51501 0.8531 0.0
N693 N 1.00963 0.70191 0.81242 0.0
H694 H 0.0788 0.63832 0.83967 0.0
H695 H 0.08452 0.69331 0.82828 0.0
H696 H 0.99137 0.71969 0.80548 0.0
H697 H 0.04687 0.71683 0.80713 0.0
H698 H 0.85909 0.49321 0.85224 0.0
H699 H 0.91607 0.49515 0.85833 0.0
H700 H 0.82782 0.53954 0.85041 0.0
H701 H 0.83409 0.59254 0.83628 0.0
C702 C 0.70376 0.70515 0.8277 0.0
C703 C 0.75036 0.72589 0.83964 0.0
C704 C 0.70168 0.70569 0.87437 0.0
C705 C 0.65571 0.6756 0.86239 0.0
N706 N 0.61611 0.63882 0.827 0.0
N707 N 0.79177 0.73749 0.8754 0.0
C708 C 0.65745 0.67323 0.83886 0.0
C709 C 0.749 0.72424 0.86331 0.0
N710 N 0.70325 0.71718 0.80583 0.0
N711 N 0.70046 0.71818 0.89609 0.0
H712 H 0.82688 0.74907 0.86822 0.0
H713 H 0.79111 0.73186 0.89258 0.0
H714 H 0.66685 0.70841 0.90438 0.0
H715 H 0.73293 0.7435 0.90489 0.0
H716 H 0.66985 0.70605 0.797 0.0
H717 H 0.73576 0.7438 0.79755 0.0
H718 H 0.61766 0.633 0.80998 0.0
H719 H 0.58218 0.61208 0.83438 0.0
C720 C 0.36576 0.99111 0.85188 0.0
C721 C 0.4114 0.02273 0.86383 0.0
C722 C 0.40217 0.09641 0.8556 0.0
C723 C 0.35875 0.06563 0.84247 0.0
N724 N 0.30326 0.98531 0.82511 0.0
N725 N 0.47966 0.10738 0.87162 0.0
C726 C 0.34183 1.01344 0.83968 0.0
C727 C 0.4314 0.07595 0.86418 0.0
N728 N 0.34379 0.93966 0.85297 0.0
N729 N 0.41505 0.14511 0.86028 0.0
H730 H 0.50342 0.09407 0.87662 0.0
H731 H 0.49816 0.14668 0.87031 0.0
H732 H 0.39425 0.16116 0.85445 0.0
H733 H 0.44319 0.1678 0.87167 0.0
H734 H 0.30806 0.91468 0.84652 0.0
H735 H 0.35929 0.92142 0.86176 0.0
H736 H 0.29325 0.9489 0.82009 0.0
H737 H 0.28329 0.99968 0.81681 0.0
C738 C 0.06229 0.38808 0.84914 0.0
C739 C 0.03426 0.41266 0.85307 0.0
C740 C 0.95596 0.33606 0.84116 0.0
C741 C 0.98441 0.31257 0.83612 0.0
N742 N 0.06358 0.31429 0.8356 0.0
N743 N 0.95598 0.41305 0.85097 0.0
C744 C 0.03725 0.33802 0.84037 0.0
C745 C 0.9814 0.38733 0.8486 0.0
N746 N 0.11257 0.41198 0.8546 0.0
N747 N 0.90433 0.30841 0.83949 0.0
H748 H 0.97375 0.45063 0.8562 0.0
H749 H 0.9185 0.39893 0.8462 0.0
H750 H 0.88506 0.27036 0.83488 0.0
H751 H 0.88028 0.32122 0.84448 0.0
H752 H 0.13401 0.39438 0.85521 0.0
H753 H 0.13313 0.44992 0.85915 0.0
H754 H 0.10288 0.3324 0.83472 0.0
H755 H 0.04529 0.27573 0.83219 0.0
C756 C 0.66607 0.71191 0.18926 0.0
C757 C 0.71761 0.73426 0.19584 0.0
C758 C 0.71977 0.66082 0.18053 0.0
C759 C 0.66719 0.63706 0.17541 0.0
N760 N 0.58809 0.63528 0.17943 0.0
N761 N 0.79145 0.72652 0.20108 0.0
C762 C 0.63977 0.66133 0.18113 0.0
C763 C 0.74396 0.70777 0.19238 0.0
N764 N 0.64266 0.73983 0.18993 0.0
N765 N 0.74714 0.63967 0.17333 0.0
H766 H 0.8106 0.761 0.20947 0.0
H767 H 0.81039 0.70631 0.20142 0.0
H768 H 0.73066 0.60481 0.16532 0.0
H769 H 0.78652 0.65806 0.17402 0.0
H770 H 0.60696 0.72765 0.18315 0.0
H771 H 0.66098 0.77735 0.19522 0.0
H772 H 0.56538 0.64891 0.18543 0.0
H773 H 0.56746 0.59772 0.17413 0.0
C774 C 0.34798 0.96566 0.18984 0.0
C775 C 0.32687 0.99573 0.19576 0.0
C776 C 0.40559 0.07222 0.18418 0.0
C777 C 0.42829 0.0424 0.18019 0.0
N778 N 0.42448 0.96232 0.1842 0.0
N779 N 0.33797 0.07825 0.20193 0.0
C780 C 0.40031 0.98948 0.18445 0.0
C781 C 0.35638 0.04922 0.19384 0.0
N782 N 0.31764 0.91419 0.18907 0.0
N783 N 0.42975 0.12193 0.17787 0.0
H784 H 0.30117 0.06241 0.20793 0.0
H785 H 0.35997 0.11737 0.20387 0.0
H786 H 0.46627 0.14086 0.17144 0.0
H787 H 0.41229 0.14358 0.17768 0.0
H788 H 0.32962 0.89021 0.18296 0.0
H789 H 0.27887 0.89601 0.19233 0.0
H790 H 0.40737 0.92447 0.18901 0.0
H791 H 0.46341 0.97939 0.18165 0.0
C792 C 0.1082 0.41807 0.18999 0.0
C793 C 0.07888 0.36552 0.19486 0.0
C794 C 1.00219 0.3638 0.18114 0.0
C795 C 1.03166 0.41621 0.17626 0.0
N796 N 0.10902 0.4957 0.1805 0.0
N797 N 0.99714 0.28966 0.19822 0.0
C798 C 0.08369 0.44406 0.182 0.0
C799 C 1.02563 0.33872 0.19125 0.0
N800 N 0.15969 0.44276 0.19241 0.0
N801 N 0.952 0.33772 0.17551 0.0
H802 H 1.0131 0.269 0.20421 0.0
H803 H 0.95778 0.27018 0.19914 0.0
H804 H 0.93254 0.3557 0.17034 0.0
H805 H 0.92984 0.2984 0.17535 0.0
H806 H 0.18399 0.47964 0.18697 0.0
H807 H 0.17877 0.42502 0.19843 0.0
H808 H 0.14591 0.51918 0.18611 0.0
H809 H 0.09103 0.51542 0.17567 0.0
C810 C 0.06425 0.7878 0.53486 0.0
C811 C 0.078 0.756 0.52373 0.0
C812 C 0.99567 0.68181 0.53249 0.0
C813 C 0.98053 0.71412 0.54233 0.0
N814 N 1.00468 0.79376 0.55953 0.0
N815 N 0.06579 0.67321 0.51904 0.0
C816 C 1.01673 0.76584 0.54592 0.0
C817 C 0.04667 0.70291 0.52528 0.0
N818 N 0.0951 0.839 0.53345 0.0
N819 N 0.96079 0.63231 0.5283 0.0
H820 H 0.10364 0.68921 0.5143 0.0
H821 H 0.04636 0.63399 0.52093 0.0
H822 H 0.92285 0.61566 0.53279 0.0
H823 H 0.96875 0.60854 0.519 0.0
H824 H 0.08493 0.86479 0.539 0.0
H825 H 0.13035 0.85536 0.52571 0.0
H826 H 1.03039 0.83094 0.56411 0.0
H827 H 0.97001 0.77763 0.56787 0.0
C828 C 0.22591 0.22799 0.50622 0.0
C829 C 0.2417 0.27844 0.51229 0.0
C830 C 0.30685 0.28048 0.53697 0.0
C831 C 0.29116 0.22994 0.53084 0.0
N832 N 0.23183 0.15263 0.51283 0.0
N833 N 0.29141 0.3509 0.53543 0.0
C834 C 0.24913 0.20279 0.51647 0.0
C835 C 0.28064 0.30419 0.52826 0.0
N836 N 0.18909 0.20485 0.49037 0.0
N837 N 0.34802 0.30626 0.5505 0.0
H838 H 0.27412 0.36978 0.52863 0.0
H839 H 0.31541 0.36998 0.54872 0.0
H840 H 0.36493 0.28857 0.55864 0.0
H841 H 0.36603 0.34505 0.55337 0.0
H842 H 0.17756 0.16926 0.48379 0.0
H843 H 0.17187 0.22298 0.48274 0.0
H844 H 0.19963 0.12887 0.50359 0.0
H845 H 0.2482 0.13382 0.52061 0.0
C846 C 0.78442 0.99835 0.4846 0.0
C847 C 0.77014 0.95967 0.50077 0.0
C848 C 0.80281 0.02299 0.5306 0.0
C849 C 0.81237 0.06122 0.51465 0.0
N850 N 0.83273 0.08861 0.47667 0.0
N851 N 0.78546 0.93714 0.53692 0.0
C852 C 0.8108 0.04981 0.49165 0.0
C853 C 0.7876 0.97335 0.52294 0.0
N854 N 0.76914 0.98619 0.46301 0.0
N855 N 0.80314 0.03215 0.55286 0.0
H856 H 0.77289 0.90038 0.53131 0.0
H857 H 0.80047 0.94486 0.553 0.0
H858 H 0.81298 0.06735 0.55934 0.0
H859 H 0.79051 1.00376 0.56492 0.0
H860 H 0.77298 1.01279 0.45112 0.0
H861 H 0.75073 0.94913 0.45719 0.0
H862 H 0.83604 0.0833 0.45975 0.0
H863 H 0.852 0.12632 0.48185 0.0
C864 C 0.31106 1.0204 0.52702 0.0
C865 C 0.36272 0.04316 0.53346 0.0
C866 C 0.36305 0.96637 0.52141 0.0
C867 C 0.31048 0.9426 0.51642 0.0
N868 N 0.23258 0.94364 0.51791 0.0
N869 N 0.43664 0.03578 0.53925 0.0
C870 C 0.28405 0.96874 0.52034 0.0
C871 C 0.38843 1.01561 0.53129 0.0
N872 N 0.28836 0.04902 0.52627 0.0
N873 N 0.38936 0.94298 0.51574 0.0
H874 H 0.45723 0.07245 0.54542 0.0
H875 H 0.45522 1.01537 0.54091 0.0
H876 H 0.3719 0.90619 0.50957 0.0
H877 H 0.42873 0.96085 0.51604 0.0
H878 H 0.25261 0.03643 0.51947 0.0
H879 H 0.3072 0.08731 0.53041 0.0
H880 H 0.21002 0.95834 0.52279 0.0
H881 H 0.21191 0.90597 0.51284 0.0
C882 C 1.01486 0.30047 0.49261 0.0
C883 C 0.05036 0.35349 0.49501 0.0
C884 C 0.98626 0.36215 0.5159 0.0
C885 C 0.95094 0.31008 0.51242 0.0
N886 N 0.92658 0.23403 0.49204 0.0
N887 N 0.06462 0.43641 0.50452 0.0
C888 C 0.96363 0.28095 0.49879 0.0
C889 C 0.03458 0.38492 0.50538 0.0
N890 N 1.03024 0.26759 0.48613 0.0
N891 N 0.97401 0.38954 0.52971 0.0
H892 H 0.09962 0.45479 0.49659 0.0
H893 H 0.05277 0.46108 0.50983 0.0
H894 H 0.93773 0.37466 0.53621 0.0
H895 H 1.00007 0.42569 0.53541 0.0
H896 H 1.00654 0.22839 0.48652 0.0
H897 H 0.0676 0.27804 0.48294 0.0
H898 H 0.93262 0.21278 0.48023 0.0
H899 H 0.88862 0.21915 0.49636 0.0
C900 C 0.6796 0.66716 0.54403 0.0
C901 C 0.70782 0.64848 0.53282 0.0
C902 C 0.68081 0.66775 0.49751 0.0
C903 C 0.66438 0.69769 0.50879 0.0
N904 N 0.65699 0.73202 0.54396 0.0
N905 N 0.74244 0.64111 0.49752 0.0
C906 C 0.66592 0.69901 0.53241 0.0
C907 C 0.71029 0.65119 0.50915 0.0
N908 N 0.66407 0.65317 0.56552 0.0
N909 N 0.66698 0.65346 0.47589 0.0
H910 H 0.76792 0.63257 0.50493 0.0
H911 H 0.74793 0.64728 0.48039 0.0
H912 H 0.64166 0.66076 0.46732 0.0
H913 H 0.67516 0.62853 0.46765 0.0
H914 H 0.64041 0.66315 0.5737 0.0
H915 H 0.66889 0.62611 0.57395 0.0
H916 H 0.66226 0.73684 0.56115 0.0
H917 H 0.65001 0.75845 0.53631 0.0
C918 C 0.21555 0.31865 0.34032 0.0
C919 C 0.1713 0.31402 0.33032 0.0
C920 C 0.14402 0.32904 0.36634 0.0
C921 C 0.18677 0.33086 0.37666 0.0
N922 N 0.25849 0.31885 0.37448 0.0
N923 N 0.08817 0.30344 0.3343 0.0
C924 C 0.22116 0.32304 0.36393 0.0
C925 C 0.13387 0.31563 0.34352 0.0
N926 N 0.25293 0.32066 0.32718 0.0
N927 N 0.11443 0.34258 0.37803 0.0
H928 H 0.07936 0.29348 0.31758 0.0
H929 H 0.05737 0.29857 0.34363 0.0
H930 H 0.12038 0.35296 0.39477 0.0
H931 H 0.08659 0.34782 0.37065 0.0
H932 H 0.28845 0.32964 0.33318 0.0
H933 H 0.24971 0.31674 0.30989 0.0
H934 H 0.28169 0.30814 0.36646 0.0
H935 H 0.26356 0.32203 0.39173 0.0
C936 C 0.6723 0.86435 0.33646 0.0
C937 C 0.71648 0.86522 0.32854 0.0
C938 C 0.74042 0.86192 0.36736 0.0
C939 C 0.69204 0.85125 0.37486 0.0
N940 N 0.60793 0.83385 0.36514 0.0
N941 N 0.78658 0.85242 0.3371 0.0
C942 C 0.65687 0.85048 0.35906 0.0
C943 C 0.74915 0.86091 0.34417 0.0
N944 N 0.6456 0.87782 0.32261 0.0
N945 N 0.77836 0.87353 0.38238 0.0
H946 H 0.7921 0.84723 0.3204 0.0
H947 H 0.8082 0.84451 0.34804 0.0
H948 H 0.77388 0.87651 0.39944 0.0
H949 H 0.81551 0.8857 0.37759 0.0
H950 H 0.61579 0.88218 0.32812 0.0
H951 H 0.65672 0.88991 0.30624 0.0
H952 H 0.57977 0.8278 0.35367 0.0
H953 H 0.59417 0.82132 0.38117 0.0
C954 C 0.22097 0.91435 0.34717 0.0
C955 C 0.20176 0.87415 0.33159 0.0
C956 C 0.19069 0.81545 0.36173 0.0
C957 C 0.21813 0.85724 0.37626 0.0
N958 N 0.27078 0.94807 0.38052 0.0
N959 N 0.17716 0.78731 0.32343 0.0
C960 C 0.23652 0.90726 0.36836 0.0
C961 C 0.18879 0.82472 0.33865 0.0
N962 N 0.22389 0.95915 0.34182 0.0
N963 N 0.16521 0.76716 0.36995 0.0
H964 H 0.17708 0.79284 0.30628 0.0
H965 H 0.17241 0.75219 0.32778 0.0
H966 H 0.16409 0.75886 0.38689 0.0
H967 H 0.14097 0.73599 0.36022 0.0
H968 H 0.23389 0.98805 0.35338 0.0
H969 H 0.21089 0.96506 0.32665 0.0
H970 H 0.28834 0.98503 0.37438 0.0
H971 H 0.28604 0.9446 0.39553 0.0
C972 C 0.39902 0.2348 0.67688 0.0
C973 C 0.36186 0.19779 0.66241 0.0
C974 C 0.31089 0.15168 0.69493 0.0
C975 C 0.34514 0.19112 0.70933 0.0
N976 N 0.41494 0.27711 0.71257 0.0
N977 N 0.27495 0.13097 0.65792 0.0
C978 C 0.3871 0.23495 0.69986 0.0
C979 C 0.31522 0.15971 0.67156 0.0
N980 N 0.44655 0.26799 0.66919 0.0
N981 N 0.27646 0.10512 0.70324 0.0
H982 H 0.27629 0.13709 0.64074 0.0
H983 H 0.23898 0.10529 0.66402 0.0
H984 H 0.27494 0.09544 0.72001 0.0
H985 H 0.25378 0.07427 0.69303 0.0
H986 H 0.47622 0.29209 0.67967 0.0
H987 H 0.45773 0.26826 0.65278 0.0
H988 H 0.44311 0.31141 0.70594 0.0
H989 H 0.40617 0.27933 0.72917 0.0
C990 C 0.87605 0.14705 0.68232 0.0
C991 C 0.88405 0.18789 0.69627 0.0
C992 C 0.88251 0.23477 0.66357 0.0
C993 C 0.86723 0.19139 0.65008 0.0
N994 N 0.84008 0.10248 0.64773 0.0
N995 N 0.88072 0.26461 0.70048 0.0
C996 C 0.86129 0.14632 0.65975 0.0
C997 C 0.88301 0.22999 0.68699 0.0
N998 N 0.88449 0.11013 0.69027 0.0
N999 N 0.89841 0.28104 0.65405 0.0
H1000 H 0.87825 0.2611 0.7178 0.0
H1001 H 0.87543 0.29347 0.69431 0.0
H1002 H 0.90156 0.28696 0.63684 0.0
H1003 H 0.91398 0.3144 0.66328 0.0
H1004 H 0.88381 0.08222 0.68015 0.0
H1005 H 0.89717 0.11033 0.70643 0.0
H1006 H 0.83039 0.06755 0.65475 0.0
H1007 H 0.82776 0.10015 0.63132 0.0
C1008 C 0.87263 0.736 0.69491 0.0
C1009 C 0.8888 0.7097 0.70899 0.0
C1010 C 0.89452 0.66463 0.67659 0.0
C1011 C 0.86835 0.68316 0.66365 0.0
N1012 N 0.82407 0.73002 0.66224 0.0
N1013 N 0.91239 0.64614 0.71372 0.0
C1014 C 0.85562 0.71766 0.67314 0.0
C1015 C 0.89967 0.67358 0.69996 0.0
N1016 N 0.87287 0.77812 0.70251 0.0
N1017 N 0.91486 0.63908 0.66651 0.0
H1018 H 0.91683 0.65196 0.73089 0.0
H1019 H 0.91511 0.61534 0.70829 0.0
H1020 H 0.91263 0.63289 0.64935 0.0
H1021 H 0.93806 0.62855 0.6748 0.0
H1022 H 0.86548 0.80118 0.69226 0.0
H1023 H 0.8858 0.79288 0.71841 0.0
H1024 H 0.80987 0.75104 0.6696 0.0
H1025 H 0.80747 0.71487 0.64687 0.0
C1026 C 0.08873 0.53394 0.03061 0.0
C1027 C 0.04278 0.53119 0.03688 0.0
C1028 C 1.03011 0.54834 0.99834 0.0
C1029 C 0.06993 0.54042 0.99158 0.0
N1030 N 0.13281 0.51796 1.00141 0.0
N1031 N 0.96586 0.52971 0.02607 0.0
C1032 C 0.09857 0.53165 1.00774 0.0
C1033 C 1.01253 0.5373 0.02063 0.0
N1034 N 0.12298 0.53895 0.04652 0.0
N1035 N 1.00948 0.56686 0.98352 0.0
H1036 H 0.95073 0.52021 0.04208 0.0
H1037 H 0.94028 0.52842 1.01422 0.0
H1038 H 1.02242 0.57657 0.96716 0.0
H1039 H 0.98343 0.57752 0.98813 0.0
H1040 H 0.15899 0.54549 0.04269 0.0
H1041 H 0.11739 0.54205 0.06347 0.0
H1042 H 0.15063 0.50614 1.01272 0.0
H1043 H 0.13979 0.51353 0.98482 0.0
C1044 C 0.5203 0.55298 0.03167 0.0
C1045 C 0.52616 0.51233 0.03923 0.0
C1046 C 0.51341 0.4809 1.00073 0.0
C1047 C 0.51773 0.52682 0.99291 0.0
N1048 N 0.53812 0.61228 1.00172 0.0
N1049 N 0.53572 0.44086 0.02992 0.0
C1050 C 0.52439 0.56442 1.00859 0.0
C1051 C 0.52434 0.47679 0.02352 0.0
N1052 N 0.51089 0.58082 0.04656 0.0
N1053 N 0.49784 0.44084 0.9866 0.0
H1054 H 0.54537 0.43726 0.04621 0.0
H1055 H 0.54004 0.41761 0.0186 0.0
H1056 H 0.48793 0.44189 0.97004 0.0
H1057 H 0.48974 0.4051 0.99197 0.0
H1058 H 0.50233 0.60833 0.04163 0.0
H1059 H 0.50606 0.57239 0.06357 0.0
H1060 H 0.54765 0.64188 1.01283 0.0
H1061 H 0.54602 0.62408 0.98516 0.0
C1062 C 0.58008 0.07481 0.03031 0.0
C1063 C 0.56 0.03464 0.04609 0.0
C1064 C 0.52364 0.97232 1.01594 0.0
C1065 C 0.54328 1.0125 1.00017 0.0
N1066 N 0.60039 0.10043 0.99159 0.0
N1067 N 0.52399 0.94602 0.05419 0.0
C1068 C 0.57497 0.06332 1.00715 0.0
C1069 C 0.5356 0.98358 0.03892 0.0
N1070 N 0.60159 0.1238 0.03743 0.0
N1071 N 0.49151 0.92373 1.0091 0.0
H1072 H 0.53246 0.95344 0.07111 0.0
H1073 H 0.51036 0.90837 0.04992 0.0
H1074 H 0.48247 0.91388 0.99239 0.0
H1075 H 0.47122 0.89356 0.02 0.0
H1076 H 0.61124 0.1543 0.0268 0.0
H1077 H 0.60712 0.13384 0.05423 0.0
H1078 H 0.62788 0.13742 0.99559 0.0
H1079 H 0.59726 0.09311 0.9745 0.0
C1080 C 0.23885 0.15447 0.21605 0.0
C1081 C 0.21168 0.11553 0.23183 0.0
C1082 C 0.15574 0.14899 0.23862 0.0
C1083 C 0.18836 0.19308 0.22615 0.0
N1084 N 0.26332 0.23924 0.20359 0.0
N1085 N 0.15135 0.08217 0.26174 0.0
C1086 C 0.23055 0.19612 0.21488 0.0
C1087 C 0.1719 0.11441 0.24407 0.0
N1088 N 0.27235 0.15137 0.20221 0.0
N1089 N 0.10902 0.13933 0.24493 0.0
H1090 H 0.16288 0.05667 0.26634 0.0
H1091 H 0.12584 0.08366 0.27275 0.0
H1092 H 0.09425 0.16153 0.23962 0.0
H1093 H 0.08281 0.1056 0.25268 0.0
H1094 H 0.2905 0.1763 0.18903 0.0
H1095 H 0.27806 0.12071 0.20276 0.0
H1096 H 0.29773 0.24602 0.1971 0.0
H1097 H 0.25715 0.26954 0.20181 0.0
C1098 C 0.87711 0.05734 0.21308 0.0
C1099 C 0.87677 1.02036 0.22757 0.0
C1100 C 0.95405 0.08689 0.246 0.0
C1101 C 0.95208 0.12386 0.23257 0.0
N1102 N 0.91216 0.1466 0.20416 0.0
N1103 N 0.91769 0.99878 0.25628 0.0
C1104 C 0.91389 0.1096 0.21618 0.0
C1105 C 0.91652 0.03481 0.24338 0.0
N1106 N 0.84297 0.04196 0.19594 0.0
N1107 N 0.99253 0.10204 0.26113 0.0
H1108 H 0.89852 0.96082 0.25184 0.0
H1109 H 0.93787 1.00628 0.2711 0.0
H1110 H 1.01926 0.14005 0.26391 0.0
H1111 H 0.99948 0.07763 0.27053 0.0
H1112 H 0.84277 0.0659 0.18366 0.0
H1113 H 0.81688 1.0039 0.19293 0.0
H1114 H 0.88299 0.14033 0.19331 0.0
H1115 H 0.93929 0.18473 0.20602 0.0
C1116 C 0.98151 0.90832 0.25388 0.0
C1117 C 0.9466 0.85817 0.24765 0.0
C1118 C 1.01794 0.84714 0.23673 0.0
C1119 C 0.05249 0.89968 0.24089 0.0
N1120 N 0.06172 0.9821 0.2453 0.0
N1121 N 0.9303 0.78146 0.22975 0.0
C1122 C 0.03253 0.93077 0.24703 0.0
C1123 C 0.96445 0.828 0.23798 0.0
N1124 N 0.96634 0.93405 0.26717 0.0
N1125 N 0.03549 0.81497 0.23261 0.0
H1126 H 0.89127 0.7666 0.23096 0.0
H1127 H 0.94065 0.75955 0.2204 0.0
H1128 H 0.0737 0.82681 0.23125 0.0
H1129 H 1.01204 0.77577 0.23201 0.0
H1130 H 0.99182 0.96939 0.27389 0.0
H1131 H 0.92955 0.91723 0.27347 0.0
H1132 H 0.04753 1.00619 0.24808 0.0
H1133 H 0.09765 0.99941 0.23813 0.0
C1134 C 0.14504 0.22191 0.82257 0.0
C1135 C 0.10932 0.19803 0.80526 0.0
C1136 C 0.14714 0.14633 0.79665 0.0
C1137 C 0.18884 0.17726 0.81083 0.0
N1138 N 0.22659 0.24384 0.83828 0.0
N1139 N 0.0786 0.14081 0.77422 0.0
C1140 C 0.18735 0.21474 0.82419 0.0
C1141 C 0.11051 0.16058 0.79207 0.0
N1142 N 0.13749 0.25042 0.83774 0.0
N1143 N 0.14185 0.1032 0.78759 0.0
H1144 H 0.05185 0.15102 0.7702 0.0
H1145 H 0.08165 0.1178 0.76233 0.0
H1146 H 0.16705 0.09063 0.79046 0.0
H1147 H 0.10896 0.07685 0.77941 0.0
H1148 H 0.15957 0.26587 0.85196 0.0
H1149 H 0.10545 0.25391 0.83718 0.0
H1150 H 0.23103 0.27598 0.84624 0.0
H1151 H 0.25594 0.23681 0.84141 0.0
C1152 C 0.88687 1.0167 0.80597 0.0
C1153 C 0.89694 0.04487 0.78578 0.0
C1154 C 0.87996 0.96928 0.76479 0.0
C1155 C 0.86384 0.93987 0.78447 0.0
N1156 N 0.84064 0.93353 0.82315 0.0
N1157 N 0.88521 0.04074 0.74564 0.0
C1158 C 0.86376 0.96296 0.8049 0.0
C1159 C 0.88806 1.019 0.76507 0.0
N1160 N 0.90176 0.04074 0.82606 0.0
N1161 N 0.89004 0.95089 0.74603 0.0
H1162 H 0.88642 0.07526 0.74511 0.0
H1163 H 0.87491 1.02137 0.73051 0.0
H1164 H 0.88818 0.91597 0.7456 0.0
H1165 H 0.90617 0.973 0.73182 0.0
H1166 H 0.89934 1.02173 0.84086 0.0
H1167 H 0.92147 0.07993 0.82778 0.0
H1168 H 0.83553 0.94805 0.83796 0.0
H1169 H 0.82187 0.89408 0.82261 0.0
C1170 C 0.11077 0.91385 0.80092 0.0
C1171 C 0.13048 0.95656 0.78672 0.0
C1172 C 0.04469 0.93949 0.77931 0.0
C1173 C 1.02394 0.89262 0.791 0.0
N1174 N 0.03952 0.83214 0.8107 0.0
N1175 N 0.11647 1.00507 0.7591 0.0
C1176 C 0.05749 0.87897 0.8014 0.0
C1177 C 0.09743 0.96764 0.77482 0.0
N1178 N 0.14324 0.90689 0.81406 0.0
N1179 N 1.01445 0.95869 0.77359 0.0
H1180 H 0.15517 0.02765 0.75596 0.0
H1181 H 0.09356 1.01113 0.74815 0.0
H1182 H 0.97646 0.94149 0.77825 0.0
H1183 H 1.02843 0.9946 0.76667 0.0
H1184 H 0.13122 0.88008 0.82682 0.0
H1185 H 0.18249 0.93048 0.81315 0.0
H1186 H 0.06298 0.81859 0.81588 0.0
H1187 H 1.00145 0.80485 0.81187 0.0
C1188 C 0.84098 0.47671 0.59427 0.0
C1189 C 0.82474 0.48905 0.57429 0.0
C1190 C 0.85199 0.43861 0.55331 0.0
C1191 C 0.8589 0.41897 0.57367 0.0
N1192 N 0.85176 0.41367 0.61372 0.0
N1193 N 0.81181 0.47935 0.5345 0.0
C1194 C 0.85175 0.4369 0.59425 0.0
C1195 C 0.83005 0.46995 0.55362 0.0
N1196 N 0.84654 0.50349 0.61326 0.0
N1197 N 0.86724 0.42796 0.53377 0.0
H1198 H 0.796 0.50249 0.534 0.0
H1199 H 0.80929 0.46148 0.51942 0.0
H1200 H 0.88402 0.40575 0.53312 0.0
H1201 H 0.86773 0.44497 0.51863 0.0
H1202 H 0.86235 0.49897 0.62787 0.0
H1203 H 0.84085 0.53427 0.61352 0.0
H1204 H 0.84172 0.42212 0.629 0.0
H1205 H 0.85647 0.3823 0.61434 0.0
C1206 C 0.57825 0.42079 0.55391 0.0
C1207 C 0.60351 0.4311 0.57467 0.0
C1208 C 0.55207 0.34144 0.58508 0.0
C1209 C 0.52844 0.33047 0.56367 0.0
N1210 N 0.5302 0.35795 0.52575 0.0
N1211 N 0.62459 0.39982 0.60731 0.0
C1212 C 0.54507 0.36972 0.54747 0.0
C1213 C 0.59347 0.39094 0.58944 0.0
N1214 N 0.58458 0.45998 0.5407 0.0
N1215 N 0.53374 0.30607 0.60174 0.0
H1216 H 0.65574 0.43543 0.61072 0.0
H1217 H 0.62253 0.37103 0.61737 0.0
H1218 H 0.50411 0.26913 0.59975 0.0
H1219 H 0.54564 0.31465 0.61826 0.0
H1220 H 0.56334 0.45497 0.52634 0.0
H1221 H 0.60769 0.4978 0.54527 0.0
H1222 H 0.54458 0.38447 0.51287 0.0
H1223 H 0.50779 0.3207 0.52026 0.0
C1224 C 0.65427 0.18188 0.55095 0.0
C1225 C 0.68289 0.17381 0.56744 0.0
C1226 C 0.61615 0.15547 0.59493 0.0
C1227 C 0.58513 0.15692 0.57787 0.0
N1228 N 0.57076 0.16158 0.53859 0.0
N1229 N 0.68602 0.14403 0.60473 0.0
C1230 C 0.60319 0.16781 0.55559 0.0
C1231 C 0.66238 0.15793 0.58931 0.0
N1232 N 0.67524 0.20223 0.53072 0.0
N1233 N 0.60197 0.15325 0.61666 0.0
H1234 H 0.71999 0.14522 0.60189 0.0
H1235 H 0.66949 0.12685 0.61985 0.0
H1236 H 0.56865 0.15233 0.62122 0.0
H1237 H 0.62549 0.15759 0.63009 0.0
H1238 H 0.65809 0.21436 0.51919 0.0
H1239 H 0.71141 0.21078 0.52604 0.0
H1240 H 0.58025 0.16341 0.52182 0.0
H1241 H 0.53268 0.14944 0.54108 0.0
C1242 C 0.85255 0.52979 0.1026 0.0
C1243 C 0.86149 0.50864 0.12205 0.0
C1244 C 0.80024 0.52324 0.14229 0.0
C1245 C 0.78632 0.53692 0.12204 0.0
N1246 N 0.7924 0.54355 0.0821 0.0
N1247 N 0.83706 0.47834 0.15999 0.0
C1248 C 0.81066 0.53756 0.10197 0.0
C1249 C 0.83379 0.50376 0.14189 0.0
N1250 N 0.88517 0.54441 0.08496 0.0
N1251 N 0.7825 0.53021 0.162 0.0
H1252 H 0.86041 0.46288 0.16071 0.0
H1253 H 0.81312 0.46871 0.17372 0.0
H1254 H 0.75849 0.54496 0.16282 0.0
H1255 H 0.79544 0.52602 0.1775 0.0
H1256 H 0.88286 0.56421 0.07128 0.0
H1257 H 0.91797 0.54218 0.08513 0.0
H1258 H 0.80548 0.53919 0.06673 0.0
H1259 H 0.7606 0.54754 0.08098 0.0
C1260 C 0.54385 0.29173 0.14482 0.0
C1261 C 0.52588 0.26144 0.12538 0.0
C1262 C 0.54117 0.33628 0.10406 0.0
C1263 C 0.56658 0.36813 0.12267 0.0
N1264 N 0.6011 0.37481 0.15976 0.0
N1265 N 0.51907 0.25796 0.08534 0.0
C1266 C 0.57021 0.34552 0.14287 0.0
C1267 C 0.5277 0.28454 0.10467 0.0
N1268 N 0.53488 0.26904 0.16523 0.0
N1269 N 0.52771 0.35437 0.08608 0.0
H1270 H 0.5115 0.22076 0.08496 0.0
H1271 H 0.52498 0.27471 0.06964 0.0
H1272 H 0.53367 0.39087 0.08524 0.0
H1273 H 0.50511 0.33119 0.07316 0.0
H1274 H 0.54294 0.28903 0.18015 0.0
H1275 H 0.51438 0.22982 0.16716 0.0
H1276 H 0.60853 0.35963 0.17385 0.0
H1277 H 0.62391 0.41401 0.1587 0.0
C1278 C 0.72247 0.23248 0.10677 0.0
C1279 C 0.69138 0.2239 0.12584 0.0
C1280 C 0.76747 0.28286 0.1471 0.0
C1281 C 0.79657 0.29519 0.1274 0.0
N1282 N 0.79942 0.29167 0.08748 0.0
N1283 N 0.68436 0.2511 0.16297 0.0
C1284 C 0.77325 0.27309 0.10692 0.0
C1285 C 0.71383 0.25186 0.14575 0.0
N1286 N 0.70505 0.20026 0.08899 0.0
N1287 N 0.79122 0.29957 0.16717 0.0
H1288 H 0.64499 0.23125 0.16254 0.0
H1289 H 0.69904 0.27472 0.17679 0.0
H1290 H 0.83052 0.32186 0.16863 0.0
H1291 H 0.7724 0.28745 0.18238 0.0
H1292 H 0.72818 0.20264 0.07578 0.0
H1293 H 0.66963 0.16759 0.08854 0.0
H1294 H 0.7826 0.28013 0.07183 0.0
H1295 H 0.83638 0.32245 0.08702 0.0
C1296 C 0.55194 0.85665 0.9057 0.0
C1297 C 0.49931 0.84023 0.90692 0.0
C1298 C 0.48 0.75366 0.91491 0.0
C1299 C 0.53198 0.7695 0.91344 0.0
N1300 N 0.61635 0.83264 0.90283 0.0
N1301 N 0.41388 0.77025 0.90409 0.0
C1302 C 0.56773 0.82012 0.9075 0.0
C1303 C 0.46356 0.78779 0.90896 0.0
N1304 N 0.58693 0.90685 0.90331 0.0
N1305 N 0.44642 0.70633 0.92274 0.0
H1306 H 0.40143 0.79413 0.89826 0.0
H1307 H 0.38677 0.73185 0.90315 0.0
H1308 H 0.45755 0.68086 0.92791 0.0
H1309 H 0.40863 0.69436 0.92616 0.0
H1310 H 0.62567 0.92182 0.90559 0.0
H1311 H 0.57734 0.93402 0.89944 0.0
H1312 H 0.64334 0.86739 0.89615 0.0
H1313 H 0.62859 0.80654 0.90405 0.0
C1314 C 0.28849 0.75004 0.9113 0.0
C1315 C 0.28794 0.7915 0.90129 0.0
C1316 C 0.20649 0.73331 0.88347 0.0
C1317 C 0.20821 0.69139 0.89279 0.0
N1318 N 0.25902 0.66075 0.91023 0.0
N1319 N 0.24986 0.82418 0.87652 0.0
C1320 C 0.25186 0.69998 0.90493 0.0
C1321 C 0.24803 0.78347 0.88679 0.0
N1322 N 0.32235 0.75855 0.92797 0.0
N1323 N 0.16442 0.72503 0.87193 0.0
H1324 H 0.2783 0.86118 0.87997 0.0
H1325 H 0.22505 0.82151 0.864 0.0
H1326 H 0.13495 0.68876 0.8681 0.0
H1327 H 0.15773 0.75358 0.86676 0.0
H1328 H 0.32089 0.72976 0.93783 0.0
H1329 H 0.34957 0.79489 0.93307 0.0
H1330 H 0.29231 0.66566 0.91734 0.0
H1331 H 0.23446 0.62397 0.90512 0.0
C1332 C 0.3467 0.53813 0.87531 0.0
C1333 C 0.36972 0.53366 0.89514 0.0
C1334 C 0.2964 0.52197 0.9164 0.0
C1335 C 0.26991 0.51724 0.89641 0.0
N1336 N 0.26742 0.51326 0.85631 0.0
N1337 N 0.35906 0.50844 0.93407 0.0
C1338 C 0.29449 0.52371 0.87564 0.0
C1339 C 0.34253 0.5219 0.91558 0.0
N1340 N 0.37418 0.55545 0.85613 0.0
N1341 N 0.27798 0.52768 0.93618 0.0
H1342 H 0.39027 0.50368 0.934 0.0
H1343 H 0.33797 0.49576 0.94873 0.0
H1344 H 0.24558 0.53069 0.93712 0.0
H1345 H 0.29815 0.53556 0.95109 0.0
H1346 H 0.36054 0.56388 0.8418 0.0
H1347 H 0.4121 0.56565 0.85517 0.0
H1348 H 0.28212 0.51236 0.84079 0.0
H1349 H 0.22881 0.50071 0.85602 0.0
C1350 C 0.4892 0.82212 0.44012 0.0
C1351 C 0.50025 0.80138 0.45912 0.0
C1352 C 0.44936 0.82548 0.48197 0.0
C1353 C 0.43298 0.83926 0.46248 0.0
N1354 N 0.42671 0.83658 0.42241 0.0
N1355 N 0.47995 0.77301 0.49749 0.0
C1356 C 0.4498 0.83348 0.44135 0.0
C1357 C 0.47744 0.80026 0.47995 0.0
N1358 N 0.51765 0.83348 0.42118 0.0
N1359 N 0.43919 0.83761 0.50241 0.0
H1360 H 0.49699 0.75106 0.49649 0.0
H1361 H 0.4599 0.76745 0.51225 0.0
H1362 H 0.42003 0.85741 0.50434 0.0
H1363 H 0.45428 0.83266 0.51715 0.0
H1364 H 0.51329 0.85257 0.40771 0.0
H1365 H 0.54952 0.8298 0.41991 0.0
H1366 H 0.43479 0.82815 0.40667 0.0
H1367 H 0.39546 0.84155 0.42269 0.0
C1368 C 0.14363 0.57997 0.46329 0.0
C1369 C 0.18162 0.57348 0.45322 0.0
C1370 C 0.23979 0.66563 0.45299 0.0
C1371 C 0.20065 0.67267 0.4618 0.0
N1372 N 0.1145 0.63697 0.47462 0.0
N1373 N 0.26349 0.6084 0.43628 0.0
C1374 C 0.15237 0.6298 0.46687 0.0
C1375 C 0.22922 0.61589 0.44764 0.0
N1376 N 0.09911 0.538 0.46937 0.0
N1377 N 0.28688 0.7065 0.44937 0.0
H1378 H 0.25646 0.57251 0.43197 0.0
H1379 H 0.29717 0.63729 0.42961 0.0
H1380 H 0.29496 0.74348 0.45113 0.0
H1381 H 0.31881 0.70408 0.44577 0.0
H1382 H 0.07133 0.53881 0.47898 0.0
H1383 H 0.09075 0.50143 0.46539 0.0
H1384 H 0.07697 0.60827 0.47645 0.0
H1385 H 0.12019 0.67257 0.47858 0.0
C1386 C 0.41038 0.6093 0.47416 0.0
C1387 C 0.44445 0.59311 0.46763 0.0
C1388 C 0.37511 0.50457 0.47004 0.0
C1389 C 0.3417 0.52135 0.47688 0.0
N1390 N 0.33164 0.5876 0.49264 0.0
N1391 N 0.4625 0.5255 0.46537 0.0
C1392 C 0.36131 0.57309 0.48176 0.0
C1393 C 0.42782 0.54064 0.46759 0.0
N1394 N 0.42285 0.6584 0.47106 0.0
N1395 N 0.35628 0.45501 0.46455 0.0
H1396 H 0.50125 0.55132 0.46397 0.0
H1397 H 0.45339 0.48795 0.46706 0.0
H1398 H 0.31833 0.42759 0.46673 0.0
H1399 H 0.37777 0.44176 0.45686 0.0
H1400 H 0.39761 0.67124 0.47366 0.0
H1401 H 0.45611 0.68477 0.46322 0.0
H1402 H 0.34506 0.62453 0.4981 0.0
H1403 H 0.2952 0.56126 0.49812 0.0
loop_
_geom_bond_atom_site_label_1
_geom_bond_atom_site_label_2
_geom_bond_distance
_geom_bond_site_symmetry_2
_ccdc_geom_bond_type
Co0 N4 2.148 . S
Co0 N10 2.128 . S
Co0 N20 2.194 . S
Co0 O25 2.351 . S
Co0 O26 2.155 . S
Co0 O27 2.096 . S
C1 N4 1.301 . S
C1 N5 1.328 . S
C1 H6 0.930 . S
C2 C3 1.333 . S
C2 N4 1.317 . S
C2 H7 0.930 . S
C3 C2 1.333 . S
C3 N5 1.350 . S
C3 H29 0.931 . S
N4 Co0 2.148 . S
N4 C1 1.301 . S
N4 C2 1.317 . S
N5 C1 1.328 . S
N5 C3 1.350 . S
H6 C1 0.930 . S
H7 C2 0.930 . S
C8 O9 1.224 . S
C8 O27 1.247 . S
O9 C8 1.224 . S
N10 Co0 2.128 . S
N10 C11 1.355 . S
N10 C13 1.311 . S
C11 N10 1.355 . S
C11 C12 1.363 1_455 S
C11 H23 0.929 . S
C12 C11 1.363 1_655 S
C12 N14 1.375 . S
C12 H30 0.931 . S
C13 N10 1.311 . S
C13 N14 1.347 1_455 S
C13 H24 0.929 . S
N14 C12 1.375 . S
N14 C13 1.347 1_655 S
C15 C18 1.365 . S
C15 N20 1.328 . S
C15 H21 0.929 . S
C16 C17 1.362 . S
C16 C19 1.378 . S
C16 H31 0.929 . S
C17 C16 1.362 . S
C17 C18 1.366 . S
C18 C15 1.365 . S
C18 C17 1.366 . S
C18 H32 0.930 . S
C19 C16 1.378 . S
C19 N20 1.315 . S
C19 H22 0.930 . S
N20 Co0 2.194 . S
N20 C15 1.328 . S
N20 C19 1.315 . S
H21 C15 0.929 . S
H22 C19 0.930 . S
H23 C11 0.929 . S
H24 C13 0.929 . S
O25 Co0 2.351 . S
O25 C28 1.244 . S
O26 Co0 2.155 . S
O26 C28 1.240 . S
O27 Co0 2.096 . S
O27 C8 1.247 . S
C28 O25 1.244 . S
C28 O26 1.240 . S
H29 C3 0.931 . S
H30 C12 0.931 . S
H31 C16 0.929 . S
H32 C18 0.930 . S
Co33 N37 2.148 . S
Co33 N43 2.128 . S
Co33 N53 2.194 . S
Co33 O58 2.351 . S
Co33 O59 2.155 . S
Co33 O60 2.096 . S
C34 N37 1.301 . S
C34 N38 1.328 . S
C34 H39 0.930 . S
C35 C36 1.333 . S
C35 N37 1.317 . S
C35 H40 0.930 . S
C36 C35 1.333 . S
C36 N38 1.350 . S
C36 H62 0.931 . S
N37 Co33 2.148 . S
N37 C34 1.301 . S
N37 C35 1.317 . S
N38 C34 1.328 . S
N38 C36 1.350 . S
H39 C34 0.930 . S
H40 C35 0.930 . S
C41 O42 1.224 . S
C41 O60 1.247 . S
O42 C41 1.224 . S
N43 Co33 2.128 . S
N43 C44 1.355 . S
N43 C46 1.311 . S
C44 N43 1.355 . S
C44 C45 1.363 . S
C44 H56 0.929 . S
C45 C44 1.363 . S
C45 N47 1.375 . S
C45 H63 0.931 . S
C46 N43 1.311 . S
C46 N47 1.347 . S
C46 H57 0.929 . S
N47 C45 1.375 . S
N47 C46 1.347 . S
C48 C51 1.365 . S
C48 N53 1.328 . S
C48 H54 0.929 . S
C49 C50 1.362 . S
C49 C52 1.378 . S
C49 H64 0.929 . S
C50 C49 1.362 . S
C50 C51 1.366 . S
C51 C48 1.365 . S
C51 C50 1.366 . S
C51 H65 0.930 . S
C52 C49 1.378 . S
C52 N53 1.315 . S
C52 H55 0.930 . S
N53 Co33 2.194 . S
N53 C48 1.328 . S
N53 C52 1.315 . S
H54 C48 0.929 . S
H55 C52 0.930 . S
H56 C44 0.929 . S
H57 C46 0.929 . S
O58 Co33 2.351 . S
O58 C61 1.244 . S
O59 Co33 2.155 . S
O59 C61 1.240 . S
O60 Co33 2.096 . S
O60 C41 1.247 . S
C61 O58 1.244 . S
C61 O59 1.240 . S
H62 C36 0.931 . S
H63 C45 0.931 . S
H64 C49 0.929 . S
H65 C51 0.930 . S
Co66 N70 2.148 . S
Co66 N76 2.128 . S
Co66 N86 2.194 . S
Co66 O91 2.351 . S
Co66 O92 2.155 . S
Co66 O93 2.096 . S
C67 N70 1.301 . S
C67 N71 1.328 . S
C67 H72 0.930 . S
C68 C69 1.333 . S
C68 N70 1.317 . S
C68 H73 0.930 . S
C69 C68 1.333 . S
C69 N71 1.350 . S
C69 H95 0.931 . S
N70 Co66 2.148 . S
N70 C67 1.301 . S
N70 C68 1.317 . S
N71 C67 1.328 . S
N71 C69 1.350 . S
H72 C67 0.930 . S
H73 C68 0.930 . S
C74 O75 1.224 . S
C74 O93 1.247 . S
O75 C74 1.224 . S
N76 Co66 2.128 . S
N76 C77 1.355 . S
N76 C79 1.311 . S
C77 N76 1.355 . S
C77 C78 1.363 1_565 S
C77 H89 0.929 . S
C78 C77 1.363 1_545 S
C78 N80 1.375 . S
C78 H96 0.931 . S
C79 N76 1.311 . S
C79 N80 1.347 1_565 S
C79 H90 0.929 . S
N80 C78 1.375 . S
N80 C79 1.347 1_545 S
C81 C84 1.365 . S
C81 N86 1.328 . S
C81 H87 0.929 . S
C82 C83 1.362 . S
C82 C85 1.378 . S
C82 H97 0.929 . S
C83 C82 1.362 . S
C83 C84 1.366 . S
C84 C81 1.365 . S
C84 C83 1.366 . S
C84 H98 0.930 . S
C85 C82 1.378 . S
C85 N86 1.315 . S
C85 H88 0.930 . S
N86 Co66 2.194 . S
N86 C81 1.328 . S
N86 C85 1.315 . S
H87 C81 0.929 . S
H88 C85 0.930 . S
H89 C77 0.929 . S
H90 C79 0.929 . S
O91 Co66 2.351 . S
O91 C94 1.244 . S
O92 Co66 2.155 . S
O92 C94 1.240 . S
O93 Co66 2.096 . S
O93 C74 1.247 . S
C94 O91 1.244 . S
C94 O92 1.240 . S
H95 C69 0.931 . S
H96 C78 0.931 . S
H97 C82 0.929 . S
H98 C84 0.930 . S
Co99 N103 2.148 . S
Co99 N109 2.128 . S
Co99 N119 2.194 . S
Co99 O124 2.351 . S
Co99 O125 2.155 . S
Co99 O126 2.096 . S
C100 N103 1.301 . S
C100 N104 1.328 . S
C100 H105 0.930 . S
C101 C102 1.333 . S
C101 N103 1.317 . S
C101 H106 0.930 . S
C102 C101 1.333 . S
C102 N104 1.350 . S
C102 H128 0.931 . S
N103 Co99 2.148 . S
N103 C100 1.301 . S
N103 C101 1.317 . S
N104 C100 1.328 . S
N104 C102 1.350 . S
H105 C100 0.930 . S
H106 C101 0.930 . S
C107 O108 1.224 . S
C107 O126 1.247 . S
O108 C107 1.224 . S
N109 Co99 2.128 . S
N109 C110 1.355 . S
N109 C112 1.311 . S
C110 N109 1.355 . S
C110 C111 1.363 1_545 S
C110 H122 0.929 . S
C111 C110 1.363 1_565 S
C111 N113 1.375 . S
C111 H129 0.931 . S
C112 N109 1.311 . S
C112 N113 1.347 1_545 S
C112 H123 0.929 . S
N113 C111 1.375 . S
N113 C112 1.347 1_565 S
C114 C117 1.365 . S
C114 N119 1.328 . S
C114 H120 0.929 . S
C115 C116 1.362 . S
C115 C118 1.378 . S
C115 H130 0.929 . S
C116 C115 1.362 . S
C116 C117 1.366 . S
C117 C114 1.365 . S
C117 C116 1.366 . S
C117 H131 0.930 . S
C118 C115 1.378 . S
C118 N119 1.315 . S
C118 H121 0.930 . S
N119 Co99 2.194 . S
N119 C114 1.328 . S
N119 C118 1.315 . S
H120 C114 0.929 . S
H121 C118 0.930 . S
H122 C110 0.929 . S
H123 C112 0.929 . S
O124 Co99 2.351 . S
O124 C127 1.244 . S
O125 Co99 2.155 . S
O125 C127 1.240 . S
O126 Co99 2.096 . S
O126 C107 1.247 . S
C127 O124 1.244 . S
C127 O125 1.240 . S
H128 C102 0.931 . S
H129 C111 0.931 . S
H130 C115 0.929 . S
H131 C117 0.930 . S
Co132 N136 2.148 . S
Co132 N142 2.128 . S
Co132 N152 2.194 . S
Co132 O157 2.351 . S
Co132 O158 2.155 . S
Co132 O159 2.096 . S
C133 N136 1.301 . S
C133 N137 1.328 . S
C133 H138 0.930 . S
C134 C135 1.333 . S
C134 N136 1.317 . S
C134 H139 0.930 . S
C135 C134 1.333 . S
C135 N137 1.350 . S
C135 H161 0.931 . S
N136 Co132 2.148 . S
N136 C133 1.301 . S
N136 C134 1.317 . S
N137 C133 1.328 . S
N137 C135 1.350 . S
H138 C133 0.930 . S
H139 C134 0.930 . S
C140 O141 1.224 . S
C140 O159 1.247 . S
O141 C140 1.224 . S
N142 Co132 2.128 . S
N142 C143 1.355 . S
N142 C145 1.311 . S
C143 N142 1.355 . S
C143 C144 1.363 1_655 S
C143 H155 0.929 . S
C144 C143 1.363 1_455 S
C144 N146 1.375 . S
C144 H162 0.931 . S
C145 N142 1.311 . S
C145 N146 1.347 1_655 S
C145 H156 0.929 . S
N146 C144 1.375 . S
N146 C145 1.347 1_455 S
C147 C150 1.365 . S
C147 N152 1.328 . S
C147 H153 0.929 . S
C148 C149 1.362 . S
C148 C151 1.378 . S
C148 H163 0.929 . S
C149 C148 1.362 . S
C149 C150 1.366 . S
C150 C147 1.365 . S
C150 C149 1.366 . S
C150 H164 0.930 . S
C151 C148 1.378 . S
C151 N152 1.315 . S
C151 H154 0.930 . S
N152 Co132 2.194 . S
N152 C147 1.328 . S
N152 C151 1.315 . S
H153 C147 0.929 . S
H154 C151 0.930 . S
H155 C143 0.929 . S
H156 C145 0.929 . S
O157 Co132 2.351 . S
O157 C160 1.244 . S
O158 Co132 2.155 . S
O158 C160 1.240 . S
O159 Co132 2.096 . S
O159 C140 1.247 . S
C160 O157 1.244 . S
C160 O158 1.240 . S
H161 C135 0.931 . S
H162 C144 0.931 . S
H163 C148 0.929 . S
H164 C150 0.930 . S
Co165 N169 2.148 . S
Co165 N175 2.128 . S
Co165 N185 2.194 . S
Co165 O190 2.351 . S
Co165 O191 2.155 . S
Co165 O192 2.096 . S
C166 N169 1.301 . S
C166 N170 1.328 . S
C166 H171 0.930 . S
C167 C168 1.333 . S
C167 N169 1.317 . S
C167 H172 0.930 . S
C168 C167 1.333 . S
C168 N170 1.350 . S
C168 H194 0.931 . S
N169 Co165 2.148 . S
N169 C166 1.301 . S
N169 C167 1.317 . S
N170 C166 1.328 . S
N170 C168 1.350 . S
H171 C166 0.930 . S
H172 C167 0.930 . S
C173 O174 1.224 . S
C173 O192 1.247 . S
O174 C173 1.224 . S
N175 Co165 2.128 . S
N175 C176 1.355 . S
N175 C178 1.311 . S
C176 N175 1.355 . S
C176 C177 1.363 . S
C176 H188 0.929 . S
C177 C176 1.363 . S
C177 N179 1.375 . S
C177 H195 0.931 . S
C178 N175 1.311 . S
C178 N179 1.347 . S
C178 H189 0.929 . S
N179 C177 1.375 . S
N179 C178 1.347 . S
C180 C183 1.365 . S
C180 N185 1.328 . S
C180 H186 0.929 . S
C181 C182 1.362 . S
C181 C184 1.378 . S
C181 H196 0.929 . S
C182 C181 1.362 . S
C182 C183 1.366 . S
C183 C180 1.365 . S
C183 C182 1.366 . S
C183 H197 0.930 . S
C184 C181 1.378 . S
C184 N185 1.315 . S
C184 H187 0.930 . S
N185 Co165 2.194 . S
N185 C180 1.328 . S
N185 C184 1.315 . S
H186 C180 0.929 . S
H187 C184 0.930 . S
H188 C176 0.929 . S
H189 C178 0.929 . S
O190 Co165 2.351 . S
O190 C193 1.244 . S
O191 Co165 2.155 . S
O191 C193 1.240 . S
O192 Co165 2.096 . S
O192 C173 1.247 . S
C193 O190 1.244 . S
C193 O191 1.240 . S
H194 C168 0.931 . S
H195 C177 0.931 . S
H196 C181 0.929 . S
H197 C183 0.930 . S
Co198 N202 2.148 . S
Co198 N208 2.128 . S
Co198 N218 2.194 . S
Co198 O223 2.351 . S
Co198 O224 2.155 . S
Co198 O225 2.096 . S
C199 N202 1.301 . S
C199 N203 1.328 . S
C199 H204 0.930 . S
C200 C201 1.333 . S
C200 N202 1.317 . S
C200 H205 0.930 . S
C201 C200 1.333 . S
C201 N203 1.350 . S
C201 H227 0.931 . S
N202 Co198 2.148 . S
N202 C199 1.301 . S
N202 C200 1.317 . S
N203 C199 1.328 . S
N203 C201 1.350 . S
H204 C199 0.930 . S
H205 C200 0.930 . S
C206 O207 1.224 . S
C206 O225 1.247 . S
O207 C206 1.224 . S
N208 Co198 2.128 . S
N208 C209 1.355 . S
N208 C211 1.311 . S
C209 N208 1.355 . S
C209 C210 1.363 . S
C209 H221 0.929 . S
C210 C209 1.363 . S
C210 N212 1.375 . S
C210 H228 0.931 . S
C211 N208 1.311 . S
C211 N212 1.347 . S
C211 H222 0.929 . S
N212 C210 1.375 . S
N212 C211 1.347 . S
C213 C216 1.365 . S
C213 N218 1.328 . S
C213 H219 0.929 . S
C214 C215 1.362 . S
C214 C217 1.378 . S
C214 H229 0.929 . S
C215 C214 1.362 . S
C215 C216 1.366 . S
C216 C213 1.365 . S
C216 C215 1.366 . S
C216 H230 0.930 . S
C217 C214 1.378 . S
C217 N218 1.315 . S
C217 H220 0.930 . S
N218 Co198 2.194 . S
N218 C213 1.328 . S
N218 C217 1.315 . S
H219 C213 0.929 . S
H220 C217 0.930 . S
H221 C209 0.929 . S
H222 C211 0.929 . S
O223 Co198 2.351 . S
O223 C226 1.244 . S
O224 Co198 2.155 . S
O224 C226 1.240 . S
O225 Co198 2.096 . S
O225 C206 1.247 . S
C226 O223 1.244 . S
C226 O224 1.240 . S
H227 C201 0.931 . S
H228 C210 0.931 . S
H229 C214 0.929 . S
H230 C216 0.930 . S
Co231 N235 2.148 . S
Co231 N241 2.128 . S
Co231 N251 2.194 . S
Co231 O256 2.351 . S
Co231 O257 2.155 . S
Co231 O258 2.096 . S
C232 N235 1.301 . S
C232 N236 1.328 . S
C232 H237 0.930 . S
C233 C234 1.333 . S
C233 N235 1.317 . S
C233 H238 0.930 . S
C234 C233 1.333 . S
C234 N236 1.350 . S
C234 H260 0.931 . S
N235 Co231 2.148 . S
N235 C232 1.301 . S
N235 C233 1.317 . S
N236 C232 1.328 . S
N236 C234 1.350 . S
H237 C232 0.930 . S
H238 C233 0.930 . S
C239 O240 1.224 . S
C239 O258 1.247 . S
O240 C239 1.224 . S
N241 Co231 2.128 . S
N241 C242 1.355 . S
N241 C244 1.311 . S
C242 N241 1.355 . S
C242 C243 1.363 . S
C242 H254 0.929 . S
C243 C242 1.363 . S
C243 N245 1.375 . S
C243 H261 0.931 . S
C244 N241 1.311 . S
C244 N245 1.347 . S
C244 H255 0.929 . S
N245 C243 1.375 . S
N245 C244 1.347 . S
C246 C249 1.365 . S
C246 N251 1.328 . S
C246 H252 0.929 . S
C247 C248 1.362 . S
C247 C250 1.378 . S
C247 H262 0.929 . S
C248 C247 1.362 . S
C248 C249 1.366 . S
C249 C246 1.365 . S
C249 C248 1.366 . S
C249 H263 0.930 . S
C250 C247 1.378 . S
C250 N251 1.315 . S
C250 H253 0.930 . S
N251 Co231 2.194 . S
N251 C246 1.328 . S
N251 C250 1.315 . S
H252 C246 0.929 . S
H253 C250 0.930 . S
H254 C242 0.929 . S
H255 C244 0.929 . S
O256 Co231 2.351 . S
O256 C259 1.244 . S
O257 Co231 2.155 . S
O257 C259 1.240 . S
O258 Co231 2.096 . S
O258 C239 1.247 . S
C259 O256 1.244 . S
C259 O257 1.240 . S
H260 C234 0.931 . S
H261 C243 0.931 . S
H262 C247 0.929 . S
H263 C249 0.930 . S
Co264 N268 2.148 . S
Co264 N274 2.128 . S
Co264 N284 2.194 . S
Co264 O289 2.351 . S
Co264 O290 2.155 . S
Co264 O291 2.096 . S
C265 N268 1.301 . S
C265 N269 1.328 . S
C265 H270 0.930 . S
C266 C267 1.333 . S
C266 N268 1.317 . S
C266 H271 0.930 . S
C267 C266 1.333 . S
C267 N269 1.350 . S
C267 H293 0.931 . S
N268 Co264 2.148 . S
N268 C265 1.301 . S
N268 C266 1.317 . S
N269 C265 1.328 . S
N269 C267 1.350 . S
H270 C265 0.930 . S
H271 C266 0.930 . S
C272 O273 1.224 . S
C272 O291 1.247 . S
O273 C272 1.224 . S
N274 Co264 2.128 . S
N274 C275 1.355 . S
N274 C277 1.311 . S
C275 N274 1.355 . S
C275 C276 1.363 . S
C275 H287 0.929 . S
C276 C275 1.363 . S
C276 N278 1.375 . S
C276 H294 0.931 . S
C277 N274 1.311 . S
C277 N278 1.347 . S
C277 H288 0.929 . S
N278 C276 1.375 . S
N278 C277 1.347 . S
C279 C282 1.365 . S
C279 N284 1.328 . S
C279 H285 0.929 . S
C280 C281 1.362 . S
C280 C283 1.378 . S
C280 H295 0.929 . S
C281 C280 1.362 . S
C281 C282 1.366 . S
C282 C279 1.365 . S
C282 C281 1.366 . S
C282 H296 0.930 . S
C283 C280 1.378 . S
C283 N284 1.315 . S
C283 H286 0.930 . S
N284 Co264 2.194 . S
N284 C279 1.328 . S
N284 C283 1.315 . S
H285 C279 0.929 . S
H286 C283 0.930 . S
H287 C275 0.929 . S
H288 C277 0.929 . S
O289 Co264 2.351 . S
O289 C292 1.244 . S
O290 Co264 2.155 . S
O290 C292 1.240 . S
O291 Co264 2.096 . S
O291 C272 1.247 . S
C292 O289 1.244 . S
C292 O290 1.240 . S
H293 C267 0.931 . S
H294 C276 0.931 . S
H295 C280 0.929 . S
H296 C282 0.930 . S
Co297 N301 2.148 . S
Co297 N307 2.128 . S
Co297 N317 2.194 . S
Co297 O322 2.351 . S
Co297 O323 2.155 . S
Co297 O324 2.096 . S
C298 N301 1.301 1_455 S
C298 N302 1.328 . S
C298 H303 0.930 . S
C299 C300 1.333 . S
C299 N301 1.317 . S
C299 H304 0.930 . S
C300 C299 1.333 . S
C300 N302 1.350 1_655 S
C300 H326 0.931 . S
N301 Co297 2.148 . S
N301 C298 1.301 1_655 S
N301 C299 1.317 . S
N302 C298 1.328 . S
N302 C300 1.350 1_455 S
H303 C298 0.930 . S
H304 C299 0.930 . S
C305 O306 1.224 . S
C305 O324 1.247 . S
O306 C305 1.224 . S
N307 Co297 2.128 . S
N307 C308 1.355 . S
N307 C310 1.311 . S
C308 N307 1.355 . S
C308 C309 1.363 . S
C308 H320 0.929 . S
C309 C308 1.363 . S
C309 N311 1.375 . S
C309 H327 0.931 . S
C310 N307 1.311 . S
C310 N311 1.347 . S
C310 H321 0.929 . S
N311 C309 1.375 . S
N311 C310 1.347 . S
C312 C315 1.365 1_655 S
C312 N317 1.328 . S
C312 H318 0.929 1_655 S
C313 C314 1.362 . S
C313 C316 1.378 . S
C313 H328 0.929 . S
C314 C313 1.362 . S
C314 C315 1.366 1_655 S
C315 C312 1.365 1_455 S
C315 C314 1.366 1_455 S
C315 H329 0.930 . S
C316 C313 1.378 . S
C316 N317 1.315 . S
C316 H319 0.930 . S
N317 Co297 2.194 . S
N317 C312 1.328 . S
N317 C316 1.315 . S
H318 C312 0.929 1_455 S
H319 C316 0.930 . S
H320 C308 0.929 . S
H321 C310 0.929 . S
O322 Co297 2.351 . S
O322 C325 1.244 . S
O323 Co297 2.155 . S
O323 C325 1.240 . S
O324 Co297 2.096 . S
O324 C305 1.247 . S
C325 O322 1.244 . S
C325 O323 1.240 . S
H326 C300 0.931 . S
H327 C309 0.931 . S
H328 C313 0.929 . S
H329 C315 0.930 . S
Co330 N334 2.148 . S
Co330 N340 2.128 . S
Co330 N350 2.194 . S
Co330 O355 2.351 . S
Co330 O356 2.155 . S
Co330 O357 2.096 . S
C331 N334 1.301 . S
C331 N335 1.328 . S
C331 H336 0.930 . S
C332 C333 1.333 . S
C332 N334 1.317 . S
C332 H337 0.930 . S
C333 C332 1.333 . S
C333 N335 1.350 . S
C333 H359 0.931 . S
N334 Co330 2.148 . S
N334 C331 1.301 . S
N334 C332 1.317 . S
N335 C331 1.328 . S
N335 C333 1.350 . S
H336 C331 0.930 . S
H337 C332 0.930 . S
C338 O339 1.224 . S
C338 O357 1.247 . S
O339 C338 1.224 . S
N340 Co330 2.128 . S
N340 C341 1.355 . S
N340 C343 1.311 . S
C341 N340 1.355 . S
C341 C342 1.363 . S
C341 H353 0.929 . S
C342 C341 1.363 . S
C342 N344 1.375 . S
C342 H360 0.931 . S
C343 N340 1.311 . S
C343 N344 1.347 . S
C343 H354 0.929 . S
N344 C342 1.375 . S
N344 C343 1.347 . S
C345 C348 1.365 . S
C345 N350 1.328 . S
C345 H351 0.929 . S
C346 C347 1.362 . S
C346 C349 1.378 . S
C346 H361 0.929 . S
C347 C346 1.362 . S
C347 C348 1.366 . S
C348 C345 1.365 . S
C348 C347 1.366 . S
C348 H362 0.930 . S
C349 C346 1.378 . S
C349 N350 1.315 . S
C349 H352 0.930 . S
N350 Co330 2.194 . S
N350 C345 1.328 . S
N350 C349 1.315 . S
H351 C345 0.929 . S
H352 C349 0.930 . S
H353 C341 0.929 . S
H354 C343 0.929 . S
O355 Co330 2.351 . S
O355 C358 1.244 . S
O356 Co330 2.155 . S
O356 C358 1.240 . S
O357 Co330 2.096 . S
O357 C338 1.247 . S
C358 O355 1.244 . S
C358 O356 1.240 . S
H359 C333 0.931 . S
H360 C342 0.931 . S
H361 C346 0.929 . S
H362 C348 0.930 . S
Co363 N367 2.148 . S
Co363 N373 2.128 . S
Co363 N383 2.194 . S
Co363 O388 2.351 . S
Co363 O389 2.155 . S
Co363 O390 2.096 . S
C364 N367 1.301 1_565 S
C364 N368 1.328 . S
C364 H369 0.930 . S
C365 C366 1.333 . S
C365 N367 1.317 . S
C365 H370 0.930 . S
C366 C365 1.333 . S
C366 N368 1.350 1_545 S
C366 H392 0.931 . S
N367 Co363 2.148 . S
N367 C364 1.301 1_545 S
N367 C365 1.317 . S
N368 C364 1.328 . S
N368 C366 1.350 1_565 S
H369 C364 0.930 . S
H370 C365 0.930 . S
C371 O372 1.224 . S
C371 O390 1.247 . S
O372 C371 1.224 . S
N373 Co363 2.128 . S
N373 C374 1.355 . S
N373 C376 1.311 . S
C374 N373 1.355 . S
C374 C375 1.363 . S
C374 H386 0.929 . S
C375 C374 1.363 . S
C375 N377 1.375 . S
C375 H393 0.931 . S
C376 N373 1.311 . S
C376 N377 1.347 . S
C376 H387 0.929 . S
N377 C375 1.375 . S
N377 C376 1.347 . S
C378 C381 1.365 1_545 S
C378 N383 1.328 . S
C378 H384 0.929 1_545 S
C379 C380 1.362 . S
C379 C382 1.378 . S
C379 H394 0.929 . S
C380 C379 1.362 . S
C380 C381 1.366 1_545 S
C381 C378 1.365 1_565 S
C381 C380 1.366 1_565 S
C381 H395 0.930 . S
C382 C379 1.378 . S
C382 N383 1.315 . S
C382 H385 0.930 . S
N383 Co363 2.194 . S
N383 C378 1.328 . S
N383 C382 1.315 . S
H384 C378 0.929 1_565 S
H385 C382 0.930 . S
H386 C374 0.929 . S
H387 C376 0.929 . S
O388 Co363 2.351 . S
O388 C391 1.244 . S
O389 Co363 2.155 . S
O389 C391 1.240 . S
O390 Co363 2.096 . S
O390 C371 1.247 . S
C391 O388 1.244 . S
C391 O389 1.240 . S
H392 C366 0.931 . S
H393 C375 0.931 . S
H394 C379 0.929 . S
H395 C381 0.930 . S
Co396 N400 2.148 . S
Co396 N406 2.128 . S
Co396 N416 2.194 . S
Co396 O421 2.351 . S
Co396 O422 2.155 . S
Co396 O423 2.096 . S
C397 N400 1.301 1_545 S
C397 N401 1.328 . S
C397 H402 0.930 . S
C398 C399 1.333 . S
C398 N400 1.317 . S
C398 H403 0.930 . S
C399 C398 1.333 . S
C399 N401 1.350 1_565 S
C399 H425 0.931 . S
N400 Co396 2.148 . S
N400 C397 1.301 1_565 S
N400 C398 1.317 . S
N401 C397 1.328 . S
N401 C399 1.350 1_545 S
H402 C397 0.930 . S
H403 C398 0.930 . S
C404 O405 1.224 . S
C404 O423 1.247 . S
O405 C404 1.224 . S
N406 Co396 2.128 . S
N406 C407 1.355 . S
N406 C409 1.311 . S
C407 N406 1.355 . S
C407 C408 1.363 . S
C407 H419 0.929 . S
C408 C407 1.363 . S
C408 N410 1.375 . S
C408 H426 0.931 . S
C409 N406 1.311 . S
C409 N410 1.347 . S
C409 H420 0.929 . S
N410 C408 1.375 . S
N410 C409 1.347 . S
C411 C414 1.365 1_565 S
C411 N416 1.328 . S
C411 H417 0.929 1_565 S
C412 C413 1.362 . S
C412 C415 1.378 . S
C412 H427 0.929 . S
C413 C412 1.362 . S
C413 C414 1.366 1_565 S
C414 C411 1.365 1_545 S
C414 C413 1.366 1_545 S
C414 H428 0.930 . S
C415 C412 1.378 . S
C415 N416 1.315 . S
C415 H418 0.930 . S
N416 Co396 2.194 . S
N416 C411 1.328 . S
N416 C415 1.315 . S
H417 C411 0.929 1_545 S
H418 C415 0.930 . S
H419 C407 0.929 . S
H420 C409 0.929 . S
O421 Co396 2.351 . S
O421 C424 1.244 . S
O422 Co396 2.155 . S
O422 C424 1.240 . S
O423 Co396 2.096 . S
O423 C404 1.247 . S
C424 O421 1.244 . S
C424 O422 1.240 . S
H425 C399 0.931 . S
H426 C408 0.931 . S
H427 C412 0.929 . S
H428 C414 0.930 . S
Co429 N433 2.148 . S
Co429 N439 2.128 . S
Co429 N449 2.194 . S
Co429 O454 2.351 . S
Co429 O455 2.155 . S
Co429 O456 2.096 . S
C430 N433 1.301 1_655 S
C430 N434 1.328 . S
C430 H435 0.930 . S
C431 C432 1.333 . S
C431 N433 1.317 . S
C431 H436 0.930 . S
C432 C431 1.333 . S
C432 N434 1.350 1_455 S
C432 H458 0.931 . S
N433 Co429 2.148 . S
N433 C430 1.301 1_455 S
N433 C431 1.317 . S
N434 C430 1.328 . S
N434 C432 1.350 1_655 S
H435 C430 0.930 . S
H436 C431 0.930 . S
C437 O438 1.224 . S
C437 O456 1.247 . S
O438 C437 1.224 . S
N439 Co429 2.128 . S
N439 C440 1.355 . S
N439 C442 1.311 . S
C440 N439 1.355 . S
C440 C441 1.363 . S
C440 H452 0.929 . S
C441 C440 1.363 . S
C441 N443 1.375 . S
C441 H459 0.931 . S
C442 N439 1.311 . S
C442 N443 1.347 . S
C442 H453 0.929 . S
N443 C441 1.375 . S
N443 C442 1.347 . S
C444 C447 1.365 1_455 S
C444 N449 1.328 . S
C444 H450 0.929 1_455 S
C445 C446 1.362 . S
C445 C448 1.378 . S
C445 H460 0.929 . S
C446 C445 1.362 . S
C446 C447 1.366 1_455 S
C447 C444 1.365 1_655 S
C447 C446 1.366 1_655 S
C447 H461 0.930 . S
C448 C445 1.378 . S
C448 N449 1.315 . S
C448 H451 0.930 . S
N449 Co429 2.194 . S
N449 C444 1.328 . S
N449 C448 1.315 . S
H450 C444 0.929 1_655 S
H451 C448 0.930 . S
H452 C440 0.929 . S
H453 C442 0.929 . S
O454 Co429 2.351 . S
O454 C457 1.244 . S
O455 Co429 2.155 . S
O455 C457 1.240 . S
O456 Co429 2.096 . S
O456 C437 1.247 . S
C457 O454 1.244 . S
C457 O455 1.240 . S
H458 C432 0.931 . S
H459 C441 0.931 . S
H460 C445 0.929 . S
H461 C447 0.930 . S
Co462 N466 2.148 . S
Co462 N472 2.128 . S
Co462 N482 2.194 . S
Co462 O487 2.351 . S
Co462 O488 2.155 . S
Co462 O489 2.096 . S
C463 N466 1.301 . S
C463 N467 1.328 . S
C463 H468 0.930 . S
C464 C465 1.333 . S
C464 N466 1.317 . S
C464 H469 0.930 . S
C465 C464 1.333 . S
C465 N467 1.350 . S
C465 H491 0.931 . S
N466 Co462 2.148 . S
N466 C463 1.301 . S
N466 C464 1.317 . S
N467 C463 1.328 . S
N467 C465 1.350 . S
H468 C463 0.930 . S
H469 C464 0.930 . S
C470 O471 1.224 . S
C470 O489 1.247 . S
O471 C470 1.224 . S
N472 Co462 2.128 . S
N472 C473 1.355 . S
N472 C475 1.311 . S
C473 N472 1.355 . S
C473 C474 1.363 . S
C473 H485 0.929 . S
C474 C473 1.363 . S
C474 N476 1.375 . S
C474 H492 0.931 . S
C475 N472 1.311 . S
C475 N476 1.347 . S
C475 H486 0.929 . S
N476 C474 1.375 . S
N476 C475 1.347 . S
C477 C480 1.365 . S
C477 N482 1.328 . S
C477 H483 0.929 . S
C478 C479 1.362 . S
C478 C481 1.378 . S
C478 H493 0.929 . S
C479 C478 1.362 . S
C479 C480 1.366 . S
C480 C477 1.365 . S
C480 C479 1.366 . S
C480 H494 0.930 . S
C481 C478 1.378 . S
C481 N482 1.315 . S
C481 H484 0.930 . S
N482 Co462 2.194 . S
N482 C477 1.328 . S
N482 C481 1.315 . S
H483 C477 0.929 . S
H484 C481 0.930 . S
H485 C473 0.929 . S
H486 C475 0.929 . S
O487 Co462 2.351 . S
O487 C490 1.244 . S
O488 Co462 2.155 . S
O488 C490 1.240 . S
O489 Co462 2.096 . S
O489 C470 1.247 . S
C490 O487 1.244 . S
C490 O488 1.240 . S
H491 C465 0.931 . S
H492 C474 0.931 . S
H493 C478 0.929 . S
H494 C480 0.930 . S
Co495 N499 2.148 . S
Co495 N505 2.128 . S
Co495 N515 2.194 . S
Co495 O520 2.351 . S
Co495 O521 2.155 . S
Co495 O522 2.096 . S
C496 N499 1.301 . S
C496 N500 1.328 . S
C496 H501 0.930 . S
C497 C498 1.333 . S
C497 N499 1.317 . S
C497 H502 0.930 . S
C498 C497 1.333 . S
C498 N500 1.350 . S
C498 H524 0.931 . S
N499 Co495 2.148 . S
N499 C496 1.301 . S
N499 C497 1.317 . S
N500 C496 1.328 . S
N500 C498 1.350 . S
H501 C496 0.930 . S
H502 C497 0.930 . S
C503 O504 1.224 . S
C503 O522 1.247 . S
O504 C503 1.224 . S
N505 Co495 2.128 . S
N505 C506 1.355 . S
N505 C508 1.311 . S
C506 N505 1.355 . S
C506 C507 1.363 . S
C506 H518 0.929 . S
C507 C506 1.363 . S
C507 N509 1.375 . S
C507 H525 0.931 . S
C508 N505 1.311 . S
C508 N509 1.347 . S
C508 H519 0.929 . S
N509 C507 1.375 . S
N509 C508 1.347 . S
C510 C513 1.365 . S
C510 N515 1.328 . S
C510 H516 0.929 . S
C511 C512 1.362 . S
C511 C514 1.378 . S
C511 H526 0.929 . S
C512 C511 1.362 . S
C512 C513 1.366 . S
C513 C510 1.365 . S
C513 C512 1.366 . S
C513 H527 0.930 . S
C514 C511 1.378 . S
C514 N515 1.315 . S
C514 H517 0.930 . S
N515 Co495 2.194 . S
N515 C510 1.328 . S
N515 C514 1.315 . S
H516 C510 0.929 . S
H517 C514 0.930 . S
H518 C506 0.929 . S
H519 C508 0.929 . S
O520 Co495 2.351 . S
O520 C523 1.244 . S
O521 Co495 2.155 . S
O521 C523 1.240 . S
O522 Co495 2.096 . S
O522 C503 1.247 . S
C523 O520 1.244 . S
C523 O521 1.240 . S
H524 C498 0.931 . S
H525 C507 0.931 . S
H526 C511 0.929 . S
H527 C513 0.930 . S
Co528 N532 2.148 . S
Co528 N538 2.128 . S
Co528 N548 2.194 . S
Co528 O553 2.351 . S
Co528 O554 2.155 . S
Co528 O555 2.096 . S
C529 N532 1.301 . S
C529 N533 1.328 . S
C529 H534 0.930 . S
C530 C531 1.333 . S
C530 N532 1.317 . S
C530 H535 0.930 . S
C531 C530 1.333 . S
C531 N533 1.350 . S
C531 H557 0.931 . S
N532 Co528 2.148 . S
N532 C529 1.301 . S
N532 C530 1.317 . S
N533 C529 1.328 . S
N533 C531 1.350 . S
H534 C529 0.930 . S
H535 C530 0.930 . S
C536 O537 1.224 . S
C536 O555 1.247 . S
O537 C536 1.224 . S
N538 Co528 2.128 . S
N538 C539 1.355 . S
N538 C541 1.311 . S
C539 N538 1.355 . S
C539 C540 1.363 . S
C539 H551 0.929 . S
C540 C539 1.363 . S
C540 N542 1.375 . S
C540 H558 0.931 . S
C541 N538 1.311 . S
C541 N542 1.347 . S
C541 H552 0.929 . S
N542 C540 1.375 . S
N542 C541 1.347 . S
C543 C546 1.365 . S
C543 N548 1.328 . S
C543 H549 0.929 . S
C544 C545 1.362 . S
C544 C547 1.378 . S
C544 H559 0.929 . S
C545 C544 1.362 . S
C545 C546 1.366 . S
C546 C543 1.365 . S
C546 C545 1.366 . S
C546 H560 0.930 . S
C547 C544 1.378 . S
C547 N548 1.315 . S
C547 H550 0.930 . S
N548 Co528 2.194 . S
N548 C543 1.328 . S
N548 C547 1.315 . S
H549 C543 0.929 . S
H550 C547 0.930 . S
H551 C539 0.929 . S
H552 C541 0.929 . S
O553 Co528 2.351 . S
O553 C556 1.244 . S
O554 Co528 2.155 . S
O554 C556 1.240 . S
O555 Co528 2.096 . S
O555 C536 1.247 . S
C556 O553 1.244 . S
C556 O554 1.240 . S
H557 C531 0.931 . S
H558 C540 0.931 . S
H559 C544 0.929 . S
H560 C546 0.930 . S
Co561 N565 2.148 . S
Co561 N571 2.128 . S
Co561 N581 2.194 . S
Co561 O586 2.351 . S
Co561 O587 2.155 . S
Co561 O588 2.096 . S
C562 N565 1.301 . S
C562 N566 1.328 . S
C562 H567 0.930 . S
C563 C564 1.333 . S
C563 N565 1.317 . S
C563 H568 0.930 . S
C564 C563 1.333 . S
C564 N566 1.350 . S
C564 H590 0.931 . S
N565 Co561 2.148 . S
N565 C562 1.301 . S
N565 C563 1.317 . S
N566 C562 1.328 . S
N566 C564 1.350 . S
H567 C562 0.930 . S
H568 C563 0.930 . S
C569 O570 1.224 . S
C569 O588 1.247 . S
O570 C569 1.224 . S
N571 Co561 2.128 . S
N571 C572 1.355 . S
N571 C574 1.311 . S
C572 N571 1.355 . S
C572 C573 1.363 . S
C572 H584 0.929 . S
C573 C572 1.363 . S
C573 N575 1.375 . S
C573 H591 0.931 . S
C574 N571 1.311 . S
C574 N575 1.347 . S
C574 H585 0.929 . S
N575 C573 1.375 . S
N575 C574 1.347 . S
C576 C579 1.365 . S
C576 N581 1.328 . S
C576 H582 0.929 . S
C577 C578 1.362 . S
C577 C580 1.378 . S
C577 H592 0.929 . S
C578 C577 1.362 . S
C578 C579 1.366 . S
C579 C576 1.365 . S
C579 C578 1.366 . S
C579 H593 0.930 . S
C580 C577 1.378 . S
C580 N581 1.315 . S
C580 H583 0.930 . S
N581 Co561 2.194 . S
N581 C576 1.328 . S
N581 C580 1.315 . S
H582 C576 0.929 . S
H583 C580 0.930 . S
H584 C572 0.929 . S
H585 C574 0.929 . S
O586 Co561 2.351 . S
O586 C589 1.244 . S
O587 Co561 2.155 . S
O587 C589 1.240 . S
O588 Co561 2.096 . S
O588 C569 1.247 . S
C589 O586 1.244 . S
C589 O587 1.240 . S
H590 C564 0.931 . S
H591 C573 0.931 . S
H592 C577 0.929 . S
H593 C579 0.930 . S
C594 C595 1.363 . S
C594 C600 1.379 . S
C594 N602 1.356 . S
C595 C594 1.363 . S
C595 C601 1.363 . S
C596 C597 1.363 . S
C596 C601 1.379 . S
C596 N603 1.356 . S
C597 C596 1.363 . S
C597 C600 1.363 . S
N598 C600 1.356 . S
N598 H610 0.984 . S
N598 H611 0.985 . S
N599 C601 1.356 . S
N599 H604 0.984 . S
N599 H605 0.985 . S
C600 C594 1.379 . S
C600 C597 1.363 . S
C600 N598 1.356 . S
C601 C595 1.363 . S
C601 C596 1.379 . S
C601 N599 1.356 . S
N602 C594 1.356 . S
N602 H608 0.984 . S
N602 H609 0.984 . S
N603 C596 1.356 . S
N603 H606 0.984 . S
N603 H607 0.985 . S
H604 N599 0.984 . S
H605 N599 0.985 . S
H606 N603 0.984 . S
H607 N603 0.985 . S
H608 N602 0.984 . S
H609 N602 0.984 . S
H610 N598 0.984 . S
H611 N598 0.985 . S
C612 C613 1.363 . S
C612 C618 1.379 . S
C612 N620 1.356 . S
C613 C612 1.363 . S
C613 C619 1.363 . S
C614 C615 1.363 . S
C614 C619 1.379 . S
C614 N621 1.356 . S
C615 C614 1.363 . S
C615 C618 1.363 . S
N616 C618 1.356 . S
N616 H628 0.984 . S
N616 H629 0.985 . S
N617 C619 1.356 . S
N617 H622 0.984 . S
N617 H623 0.985 . S
C618 C612 1.379 . S
C618 C615 1.363 . S
C618 N616 1.356 . S
C619 C613 1.363 . S
C619 C614 1.379 . S
C619 N617 1.356 . S
N620 C612 1.356 . S
N620 H626 0.984 . S
N620 H627 0.984 . S
N621 C614 1.356 . S
N621 H624 0.984 . S
N621 H625 0.985 . S
H622 N617 0.984 . S
H623 N617 0.985 . S
H624 N621 0.984 . S
H625 N621 0.985 . S
H626 N620 0.984 . S
H627 N620 0.984 . S
H628 N616 0.984 . S
H629 N616 0.985 . S
C630 C631 1.363 . S
C630 C636 1.379 . S
C630 N638 1.356 . S
C631 C630 1.363 . S
C631 C637 1.363 . S
C632 C633 1.363 . S
C632 C637 1.379 . S
C632 N639 1.356 . S
C633 C632 1.363 . S
C633 C636 1.363 . S
N634 C636 1.356 . S
N634 H646 0.984 . S
N634 H647 0.985 . S
N635 C637 1.356 . S
N635 H640 0.984 . S
N635 H641 0.985 . S
C636 C630 1.379 . S
C636 C633 1.363 . S
C636 N634 1.356 . S
C637 C631 1.363 . S
C637 C632 1.379 . S
C637 N635 1.356 . S
N638 C630 1.356 . S
N638 H644 0.984 . S
N638 H645 0.984 . S
N639 C632 1.356 . S
N639 H642 0.984 . S
N639 H643 0.985 . S
H640 N635 0.984 . S
H641 N635 0.985 . S
H642 N639 0.984 . S
H643 N639 0.985 . S
H644 N638 0.984 . S
H645 N638 0.984 . S
H646 N634 0.984 . S
H647 N634 0.985 . S
C648 C649 1.363 . S
C648 C654 1.379 . S
C648 N656 1.356 . S
C649 C648 1.363 . S
C649 C655 1.363 . S
C650 C651 1.363 . S
C650 C655 1.379 . S
C650 N657 1.356 . S
C651 C650 1.363 . S
C651 C654 1.363 . S
N652 C654 1.356 . S
N652 H664 0.984 . S
N652 H665 0.985 . S
N653 C655 1.356 . S
N653 H658 0.984 . S
N653 H659 0.985 . S
C654 C648 1.379 . S
C654 C651 1.363 . S
C654 N652 1.356 . S
C655 C649 1.363 . S
C655 C650 1.379 . S
C655 N653 1.356 . S
N656 C648 1.356 . S
N656 H662 0.984 . S
N656 H663 0.984 . S
N657 C650 1.356 . S
N657 H660 0.984 . S
N657 H661 0.985 . S
H658 N653 0.984 . S
H659 N653 0.985 . S
H660 N657 0.984 . S
H661 N657 0.985 . S
H662 N656 0.984 . S
H663 N656 0.984 . S
H664 N652 0.984 . S
H665 N652 0.985 . S
C666 C667 1.363 . S
C666 C672 1.379 . S
C666 N674 1.356 . S
C667 C666 1.363 . S
C667 C673 1.363 . S
C668 C669 1.363 . S
C668 C673 1.379 . S
C668 N675 1.356 . S
C669 C668 1.363 . S
C669 C672 1.363 . S
N670 C672 1.356 . S
N670 H682 0.984 1_545 S
N670 H683 0.985 . S
N671 C673 1.356 . S
N671 H676 0.984 . S
N671 H677 0.985 . S
C672 C666 1.379 . S
C672 C669 1.363 . S
C672 N670 1.356 . S
C673 C667 1.363 . S
C673 C668 1.379 . S
C673 N671 1.356 . S
N674 C666 1.356 . S
N674 H680 0.984 . S
N674 H681 0.984 . S
N675 C668 1.356 . S
N675 H678 0.984 . S
N675 H679 0.985 . S
H676 N671 0.984 . S
H677 N671 0.985 . S
H678 N675 0.984 . S
H679 N675 0.985 . S
H680 N674 0.984 . S
H681 N674 0.984 . S
H682 N670 0.984 1_565 S
H683 N670 0.985 . S
C684 C685 1.363 . S
C684 C690 1.379 . S
C684 N692 1.356 . S
C685 C684 1.363 . S
C685 C691 1.363 . S
C686 C687 1.363 . S
C686 C691 1.379 . S
C686 N693 1.356 . S
C687 C686 1.363 . S
C687 C690 1.363 . S
N688 C690 1.356 . S
N688 H700 0.984 . S
N688 H701 0.985 . S
N689 C691 1.356 . S
N689 H694 0.984 . S
N689 H695 0.985 1_655 S
C690 C684 1.379 . S
C690 C687 1.363 . S
C690 N688 1.356 . S
C691 C685 1.363 . S
C691 C686 1.379 . S
C691 N689 1.356 . S
N692 C684 1.356 . S
N692 H698 0.984 . S
N692 H699 0.984 . S
N693 C686 1.356 . S
N693 H696 0.984 . S
N693 H697 0.985 . S
H694 N689 0.984 . S
H695 N689 0.985 1_455 S
H696 N693 0.984 . S
H697 N693 0.985 . S
H698 N692 0.984 . S
H699 N692 0.984 . S
H700 N688 0.984 . S
H701 N688 0.985 . S
C702 C703 1.363 . S
C702 C708 1.379 . S
C702 N710 1.356 . S
C703 C702 1.363 . S
C703 C709 1.363 . S
C704 C705 1.363 . S
C704 C709 1.379 . S
C704 N711 1.356 . S
C705 C704 1.363 . S
C705 C708 1.363 . S
N706 C708 1.356 . S
N706 H718 0.984 . S
N706 H719 0.985 . S
N707 C709 1.356 . S
N707 H712 0.984 . S
N707 H713 0.985 . S
C708 C702 1.379 . S
C708 C705 1.363 . S
C708 N706 1.356 . S
C709 C703 1.363 . S
C709 C704 1.379 . S
C709 N707 1.356 . S
N710 C702 1.356 . S
N710 H716 0.984 . S
N710 H717 0.984 . S
N711 C704 1.356 . S
N711 H714 0.984 . S
N711 H715 0.985 . S
H712 N707 0.984 . S
H713 N707 0.985 . S
H714 N711 0.984 . S
H715 N711 0.985 . S
H716 N710 0.984 . S
H717 N710 0.984 . S
H718 N706 0.984 . S
H719 N706 0.985 . S
C720 C721 1.363 . S
C720 C726 1.379 1_565 S
C720 N728 1.356 . S
C721 C720 1.363 . S
C721 C727 1.363 1_565 S
C722 C723 1.363 . S
C722 C727 1.379 . S
C722 N729 1.356 . S
C723 C722 1.363 . S
C723 C726 1.363 . S
N724 C726 1.356 . S
N724 H736 0.984 1_545 S
N724 H737 0.985 . S
N725 C727 1.356 . S
N725 H730 0.984 . S
N725 H731 0.985 . S
C726 C720 1.379 1_545 S
C726 C723 1.363 . S
C726 N724 1.356 . S
C727 C721 1.363 1_545 S
C727 C722 1.379 . S
C727 N725 1.356 . S
N728 C720 1.356 . S
N728 H734 0.984 . S
N728 H735 0.984 . S
N729 C722 1.356 . S
N729 H732 0.984 . S
N729 H733 0.985 . S
H730 N725 0.984 . S
H731 N725 0.985 . S
H732 N729 0.984 . S
H733 N729 0.985 . S
H734 N728 0.984 . S
H735 N728 0.984 . S
H736 N724 0.984 1_565 S
H737 N724 0.985 . S
C738 C739 1.358 1_455 S
C738 C744 1.379 1_455 S
C738 N746 1.356 . S
C739 C738 1.358 1_655 S
C739 C745 1.368 . S
C740 C741 1.363 . S
C740 C745 1.379 . S
C740 N747 1.356 . S
C741 C740 1.363 . S
C741 C744 1.363 . S
N742 C744 1.356 . S
N742 H754 0.967 1_655 S
N742 H755 0.985 . S
N743 C745 1.356 . S
N743 H748 0.984 . S
N743 H749 0.985 . S
C744 C738 1.379 1_655 S
C744 C741 1.363 . S
C744 N742 1.356 . S
C745 C739 1.368 . S
C745 C740 1.379 . S
C745 N743 1.356 . S
N746 C738 1.356 . S
N746 H752 0.984 . S
N746 H753 0.984 . S
N747 C740 1.356 . S
N747 H750 0.984 . S
N747 H751 0.985 . S
H748 N743 0.984 . S
H749 N743 0.985 . S
H750 N747 0.984 . S
H751 N747 0.985 . S
H752 N746 0.984 . S
H753 N746 0.984 . S
H754 N742 0.967 1_455 S
H755 N742 0.985 . S
C756 C757 1.363 . S
C756 C762 1.379 . S
C756 N764 1.356 . S
C757 C756 1.363 . S
C757 C763 1.363 . S
C758 C759 1.363 . S
C758 C763 1.379 . S
C758 N765 1.356 . S
C759 C758 1.363 . S
C759 C762 1.363 . S
N760 C762 1.356 . S
N760 H772 0.984 . S
N760 H773 0.985 . S
N761 C763 1.356 . S
N761 H766 0.984 . S
N761 H767 0.985 . S
C762 C756 1.379 . S
C762 C759 1.363 . S
C762 N760 1.356 . S
C763 C757 1.363 . S
C763 C758 1.379 . S
C763 N761 1.356 . S
N764 C756 1.356 . S
N764 H770 0.984 . S
N764 H771 0.984 . S
N765 C758 1.356 . S
N765 H768 0.984 . S
N765 H769 0.985 . S
H766 N761 0.984 . S
H767 N761 0.985 . S
H768 N765 0.984 . S
H769 N765 0.985 . S
H770 N764 0.984 . S
H771 N764 0.984 . S
H772 N760 0.984 . S
H773 N760 0.985 . S
C774 C775 1.363 . S
C774 C780 1.379 . S
C774 N782 1.356 . S
C775 C774 1.363 . S
C775 C781 1.369 . S
C776 C777 1.356 1_545 S
C776 C781 1.379 1_545 S
C776 N783 1.356 . S
C777 C776 1.356 1_565 S
C777 C780 1.370 . S
N778 C780 1.356 . S
N778 H790 0.984 . S
N778 H791 0.985 . S
N779 C781 1.352 1_545 S
N779 H784 0.984 1_545 S
N779 H785 0.985 . S
C780 C774 1.379 . S
C780 C777 1.370 . S
C780 N778 1.356 . S
C781 C775 1.369 . S
C781 C776 1.379 1_565 S
C781 N779 1.352 1_565 S
N782 C774 1.356 . S
N782 H788 0.984 . S
N782 H789 0.984 . S
N783 C776 1.356 . S
N783 H786 0.984 . S
N783 H787 0.985 . S
H784 N779 0.984 1_565 S
H785 N779 0.985 . S
H786 N783 0.984 . S
H787 N783 0.985 . S
H788 N782 0.984 . S
H789 N782 0.984 . S
H790 N778 0.984 . S
H791 N778 0.985 . S
C792 C793 1.363 . S
C792 C798 1.379 . S
C792 N800 1.356 . S
C793 C792 1.363 . S
C793 C799 1.363 . S
C794 C795 1.363 . S
C794 C799 1.379 1_655 S
C794 N801 1.356 . S
C795 C794 1.363 . S
C795 C798 1.363 1_655 S
N796 C798 1.356 . S
N796 H808 0.984 . S
N796 H809 0.985 . S
N797 C799 1.356 1_655 S
N797 H802 0.984 1_655 S
N797 H803 0.985 . S
C798 C792 1.379 . S
C798 C795 1.363 1_455 S
C798 N796 1.356 . S
C799 C793 1.363 . S
C799 C794 1.379 1_455 S
C799 N797 1.356 1_455 S
N800 C792 1.356 . S
N800 H806 0.984 . S
N800 H807 0.984 . S
N801 C794 1.356 . S
N801 H804 0.984 . S
N801 H805 0.985 . S
H802 N797 0.984 1_455 S
H803 N797 0.985 . S
H804 N801 0.984 . S
H805 N801 0.985 . S
H806 N800 0.984 . S
H807 N800 0.984 . S
H808 N796 0.984 . S
H809 N796 0.985 . S
C810 C811 1.363 1_655 S
C810 C816 1.379 . S
C810 N818 1.356 1_655 S
C811 C810 1.363 1_455 S
C811 C817 1.363 . S
C812 C813 1.363 1_455 S
C812 C817 1.379 . S
C812 N819 1.356 1_455 S
C813 C812 1.363 1_655 S
C813 C816 1.363 . S
N814 C816 1.356 . S
N814 H826 0.984 . S
N814 H827 0.985 . S
N815 C817 1.356 . S
N815 H820 0.984 . S
N815 H821 0.985 . S
C816 C810 1.379 . S
C816 C813 1.363 . S
C816 N814 1.356 . S
C817 C811 1.363 . S
C817 C812 1.379 . S
C817 N815 1.356 . S
N818 C810 1.356 1_455 S
N818 H824 0.984 1_455 S
N818 H825 0.984 . S
N819 C812 1.356 1_655 S
N819 H822 0.984 . S
N819 H823 0.985 1_655 S
H820 N815 0.984 . S
H821 N815 0.985 . S
H822 N819 0.984 . S
H823 N819 0.985 1_455 S
H824 N818 0.984 1_655 S
H825 N818 0.984 . S
H826 N814 0.984 . S
H827 N814 0.985 . S
C828 C829 1.363 . S
C828 C834 1.379 . S
C828 N836 1.356 . S
C829 C828 1.363 . S
C829 C835 1.363 . S
C830 C831 1.363 . S
C830 C835 1.379 . S
C830 N837 1.356 . S
C831 C830 1.363 . S
C831 C834 1.363 . S
N832 C834 1.356 . S
N832 H844 0.984 . S
N832 H845 0.985 . S
N833 C835 1.356 . S
N833 H838 0.984 . S
N833 H839 0.985 . S
C834 C828 1.379 . S
C834 C831 1.363 . S
C834 N832 1.356 . S
C835 C829 1.363 . S
C835 C830 1.379 . S
C835 N833 1.356 . S
N836 C828 1.356 . S
N836 H842 0.984 . S
N836 H843 0.984 . S
N837 C830 1.356 . S
N837 H840 0.984 . S
N837 H841 0.985 . S
H838 N833 0.984 . S
H839 N833 0.985 . S
H840 N837 0.984 . S
H841 N837 0.985 . S
H842 N836 0.984 . S
H843 N836 0.984 . S
H844 N832 0.984 . S
H845 N832 0.985 . S
C846 C847 1.363 1_545 S
C846 C852 1.379 . S
C846 N854 1.356 1_545 S
C847 C846 1.363 1_565 S
C847 C853 1.363 . S
C848 C849 1.363 1_565 S
C848 C853 1.379 . S
C848 N855 1.356 1_565 S
C849 C848 1.363 1_545 S
C849 C852 1.363 . S
N850 C852 1.356 . S
N850 H862 0.984 . S
N850 H863 0.985 . S
N851 C853 1.356 . S
N851 H856 0.984 . S
N851 H857 0.985 . S
C852 C846 1.379 . S
C852 C849 1.363 . S
C852 N850 1.356 . S
C853 C847 1.363 . S
C853 C848 1.379 . S
C853 N851 1.356 . S
N854 C846 1.356 1_565 S
N854 H860 0.984 1_565 S
N854 H861 0.984 . S
N855 C848 1.356 1_545 S
N855 H858 0.984 . S
N855 H859 0.985 1_545 S
H856 N851 0.984 . S
H857 N851 0.985 . S
H858 N855 0.984 . S
H859 N855 0.985 1_565 S
H860 N854 0.984 1_545 S
H861 N854 0.984 . S
H862 N850 0.984 . S
H863 N850 0.985 . S
C864 C865 1.363 . S
C864 C870 1.379 1_545 S
C864 N872 1.356 . S
C865 C864 1.363 . S
C865 C871 1.363 . S
C866 C867 1.363 . S
C866 C871 1.379 1_565 S
C866 N873 1.356 . S
C867 C866 1.363 . S
C867 C870 1.363 . S
N868 C870 1.356 . S
N868 H880 0.984 . S
N868 H881 0.985 . S
N869 C871 1.356 . S
N869 H874 0.984 . S
N869 H875 0.985 . S
C870 C864 1.379 1_565 S
C870 C867 1.363 . S
C870 N868 1.356 . S
C871 C865 1.363 . S
C871 C866 1.379 1_545 S
C871 N869 1.356 . S
N872 C864 1.356 . S
N872 H878 0.984 . S
N872 H879 0.984 . S
N873 C866 1.356 . S
N873 H876 0.984 . S
N873 H877 0.985 . S
H874 N869 0.984 . S
H875 N869 0.985 . S
H876 N873 0.984 . S
H877 N873 0.985 . S
H878 N872 0.984 . S
H879 N872 0.984 . S
H880 N868 0.984 . S
H881 N868 0.985 . S
C882 C883 1.363 . S
C882 C888 1.379 1_455 S
C882 N890 1.356 . S
C883 C882 1.363 . S
C883 C889 1.363 . S
C884 C885 1.363 . S
C884 C889 1.379 1_655 S
C884 N891 1.356 . S
C885 C884 1.363 . S
C885 C888 1.363 . S
N886 C888 1.356 . S
N886 H898 0.984 . S
N886 H899 0.985 . S
N887 C889 1.356 . S
N887 H892 0.984 . S
N887 H893 0.985 . S
C888 C882 1.379 1_655 S
C888 C885 1.363 . S
C888 N886 1.356 . S
C889 C883 1.363 . S
C889 C884 1.379 1_455 S
C889 N887 1.356 . S
N890 C882 1.356 . S
N890 H896 0.984 . S
N890 H897 0.984 . S
N891 C884 1.356 . S
N891 H894 0.984 . S
N891 H895 0.985 . S
H892 N887 0.984 . S
H893 N887 0.985 . S
H894 N891 0.984 . S
H895 N891 0.985 . S
H896 N890 0.984 . S
H897 N890 0.984 . S
H898 N886 0.984 . S
H899 N886 0.985 . S
C900 C901 1.363 . S
C900 C906 1.379 . S
C900 N908 1.356 . S
C901 C900 1.363 . S
C901 C907 1.363 . S
C902 C903 1.363 . S
C902 C907 1.379 . S
C902 N909 1.356 . S
C903 C902 1.363 . S
C903 C906 1.363 . S
N904 C906 1.356 . S
N904 H916 0.984 . S
N904 H917 0.985 . S
N905 C907 1.356 . S
N905 H910 0.984 . S
N905 H911 0.985 . S
C906 C900 1.379 . S
C906 C903 1.363 . S
C906 N904 1.356 . S
C907 C901 1.363 . S
C907 C902 1.379 . S
C907 N905 1.356 . S
N908 C900 1.356 . S
N908 H914 0.984 . S
N908 H915 0.984 . S
N909 C902 1.356 . S
N909 H912 0.984 . S
N909 H913 0.985 . S
H910 N905 0.984 . S
H911 N905 0.985 . S
H912 N909 0.984 . S
H913 N909 0.985 . S
H914 N908 0.984 . S
H915 N908 0.984 . S
H916 N904 0.984 . S
H917 N904 0.985 . S
C918 C919 1.363 . S
C918 C924 1.379 . S
C918 N926 1.356 . S
C919 C918 1.363 . S
C919 C925 1.363 . S
C920 C921 1.363 . S
C920 C925 1.379 . S
C920 N927 1.356 . S
C921 C920 1.363 . S
C921 C924 1.363 . S
N922 C924 1.356 . S
N922 H934 0.984 . S
N922 H935 0.985 . S
N923 C925 1.356 . S
N923 H928 0.984 . S
N923 H929 0.985 . S
C924 C918 1.379 . S
C924 C921 1.363 . S
C924 N922 1.356 . S
C925 C919 1.363 . S
C925 C920 1.379 . S
C925 N923 1.356 . S
N926 C918 1.356 . S
N926 H932 0.984 . S
N926 H933 0.984 . S
N927 C920 1.356 . S
N927 H930 0.984 . S
N927 H931 0.985 . S
H928 N923 0.984 . S
H929 N923 0.985 . S
H930 N927 0.984 . S
H931 N927 0.985 . S
H932 N926 0.984 . S
H933 N926 0.984 . S
H934 N922 0.984 . S
H935 N922 0.985 . S
C936 C937 1.363 . S
C936 C942 1.379 . S
C936 N944 1.356 . S
C937 C936 1.363 . S
C937 C943 1.363 . S
C938 C939 1.363 . S
C938 C943 1.379 . S
C938 N945 1.356 . S
C939 C938 1.363 . S
C939 C942 1.363 . S
N940 C942 1.356 . S
N940 H952 0.984 . S
N940 H953 0.985 . S
N941 C943 1.356 . S
N941 H946 0.984 . S
N941 H947 0.985 . S
C942 C936 1.379 . S
C942 C939 1.363 . S
C942 N940 1.356 . S
C943 C937 1.363 . S
C943 C938 1.379 . S
C943 N941 1.356 . S
N944 C936 1.356 . S
N944 H950 0.984 . S
N944 H951 0.984 . S
N945 C938 1.356 . S
N945 H948 0.984 . S
N945 H949 0.985 . S
H946 N941 0.984 . S
H947 N941 0.985 . S
H948 N945 0.984 . S
H949 N945 0.985 . S
H950 N944 0.984 . S
H951 N944 0.984 . S
H952 N940 0.984 . S
H953 N940 0.985 . S
C954 C955 1.363 . S
C954 C960 1.379 . S
C954 N962 1.356 . S
C955 C954 1.363 . S
C955 C961 1.363 . S
C956 C957 1.363 . S
C956 C961 1.379 . S
C956 N963 1.356 . S
C957 C956 1.363 . S
C957 C960 1.363 . S
N958 C960 1.356 . S
N958 H970 0.984 . S
N958 H971 0.985 . S
N959 C961 1.356 . S
N959 H964 0.984 . S
N959 H965 0.985 . S
C960 C954 1.379 . S
C960 C957 1.363 . S
C960 N958 1.356 . S
C961 C955 1.363 . S
C961 C956 1.379 . S
C961 N959 1.356 . S
N962 C954 1.356 . S
N962 H968 0.984 . S
N962 H969 0.984 . S
N963 C956 1.356 . S
N963 H966 0.984 . S
N963 H967 0.985 . S
H964 N959 0.984 . S
H965 N959 0.985 . S
H966 N963 0.984 . S
H967 N963 0.985 . S
H968 N962 0.984 . S
H969 N962 0.984 . S
H970 N958 0.984 . S
H971 N958 0.985 . S
C972 C973 1.363 . S
C972 C978 1.379 . S
C972 N980 1.356 . S
C973 C972 1.363 . S
C973 C979 1.363 . S
C974 C975 1.363 . S
C974 C979 1.379 . S
C974 N981 1.356 . S
C975 C974 1.363 . S
C975 C978 1.363 . S
N976 C978 1.356 . S
N976 H988 0.984 . S
N976 H989 0.985 . S
N977 C979 1.356 . S
N977 H982 0.984 . S
N977 H983 0.985 . S
C978 C972 1.379 . S
C978 C975 1.363 . S
C978 N976 1.356 . S
C979 C973 1.363 . S
C979 C974 1.379 . S
C979 N977 1.356 . S
N980 C972 1.356 . S
N980 H986 0.984 . S
N980 H987 0.984 . S
N981 C974 1.356 . S
N981 H984 0.984 . S
N981 H985 0.985 . S
H982 N977 0.984 . S
H983 N977 0.985 . S
H984 N981 0.984 . S
H985 N981 0.985 . S
H986 N980 0.984 . S
H987 N980 0.984 . S
H988 N976 0.984 . S
H989 N976 0.985 . S
C990 C991 1.363 . S
C990 C996 1.379 . S
C990 N998 1.356 . S
C991 C990 1.363 . S
C991 C997 1.363 . S
C992 C993 1.363 . S
C992 C997 1.379 . S
C992 N999 1.356 . S
C993 C992 1.363 . S
C993 C996 1.363 . S
N994 C996 1.356 . S
N994 H1006 0.984 . S
N994 H1007 0.985 . S
N995 C997 1.356 . S
N995 H1000 0.984 . S
N995 H1001 0.985 . S
C996 C990 1.379 . S
C996 C993 1.363 . S
C996 N994 1.356 . S
C997 C991 1.363 . S
C997 C992 1.379 . S
C997 N995 1.356 . S
N998 C990 1.356 . S
N998 H1004 0.984 . S
N998 H1005 0.984 . S
N999 C992 1.356 . S
N999 H1002 0.984 . S
N999 H1003 0.985 . S
H1000 N995 0.984 . S
H1001 N995 0.985 . S
H1002 N999 0.984 . S
H1003 N999 0.985 . S
H1004 N998 0.984 . S
H1005 N998 0.984 . S
H1006 N994 0.984 . S
H1007 N994 0.985 . S
C1008 C1009 1.363 . S
C1008 C1014 1.379 . S
C1008 N1016 1.356 . S
C1009 C1008 1.363 . S
C1009 C1015 1.363 . S
C1010 C1011 1.363 . S
C1010 C1015 1.379 . S
C1010 N1017 1.356 . S
C1011 C1010 1.363 . S
C1011 C1014 1.363 . S
N1012 C1014 1.356 . S
N1012 H1024 0.984 . S
N1012 H1025 0.985 . S
N1013 C1015 1.356 . S
N1013 H1018 0.984 . S
N1013 H1019 0.985 . S
C1014 C1008 1.379 . S
C1014 C1011 1.363 . S
C1014 N1012 1.356 . S
C1015 C1009 1.363 . S
C1015 C1010 1.379 . S
C1015 N1013 1.356 . S
N1016 C1008 1.356 . S
N1016 H1022 0.984 . S
N1016 H1023 0.984 . S
N1017 C1010 1.356 . S
N1017 H1020 0.984 . S
N1017 H1021 0.985 . S
H1018 N1013 0.984 . S
H1019 N1013 0.985 . S
H1020 N1017 0.984 . S
H1021 N1017 0.985 . S
H1022 N1016 0.984 . S
H1023 N1016 0.984 . S
H1024 N1012 0.984 . S
H1025 N1012 0.985 . S
C1026 C1027 1.363 1_455 S
C1026 C1032 1.379 1_554 S
C1026 N1034 1.356 . S
C1027 C1026 1.363 1_655 S
C1027 C1033 1.363 . S
C1028 C1029 1.363 . S
C1028 C1033 1.379 1_556 S
C1028 N1035 1.356 . S
C1029 C1028 1.363 . S
C1029 C1032 1.363 1_655 S
N1030 C1032 1.356 . S
N1030 H1042 0.984 . S
N1030 H1043 0.985 . S
N1031 C1033 1.356 . S
N1031 H1036 0.984 . S
N1031 H1037 0.985 . S
C1032 C1026 1.379 1_556 S
C1032 C1029 1.363 1_455 S
C1032 N1030 1.356 . S
C1033 C1027 1.363 . S
C1033 C1028 1.379 1_554 S
C1033 N1031 1.356 . S
N1034 C1026 1.356 . S
N1034 H1040 0.984 . S
N1034 H1041 0.984 . S
N1035 C1028 1.356 . S
N1035 H1038 0.984 . S
N1035 H1039 0.985 . S
H1036 N1031 0.984 . S
H1037 N1031 0.985 . S
H1038 N1035 0.984 . S
H1039 N1035 0.985 . S
H1040 N1034 0.984 . S
H1041 N1034 0.984 . S
H1042 N1030 0.984 . S
H1043 N1030 0.985 . S
C1044 C1045 1.363 . S
C1044 C1050 1.379 1_554 S
C1044 N1052 1.356 . S
C1045 C1044 1.363 . S
C1045 C1051 1.363 . S
C1046 C1047 1.363 . S
C1046 C1051 1.379 1_556 S
C1046 N1053 1.356 . S
C1047 C1046 1.363 . S
C1047 C1050 1.363 . S
N1048 C1050 1.356 . S
N1048 H1060 0.984 . S
N1048 H1061 0.985 . S
N1049 C1051 1.356 . S
N1049 H1054 0.984 . S
N1049 H1055 0.985 . S
C1050 C1044 1.379 1_556 S
C1050 C1047 1.363 . S
C1050 N1048 1.356 . S
C1051 C1045 1.363 . S
C1051 C1046 1.379 1_554 S
C1051 N1049 1.356 . S
N1052 C1044 1.356 . S
N1052 H1058 0.984 . S
N1052 H1059 0.984 . S
N1053 C1046 1.356 . S
N1053 H1056 0.984 . S
N1053 H1057 0.985 . S
H1054 N1049 0.984 . S
H1055 N1049 0.985 . S
H1056 N1053 0.984 . S
H1057 N1053 0.985 . S
H1058 N1052 0.984 . S
H1059 N1052 0.984 . S
H1060 N1048 0.984 . S
H1061 N1048 0.985 . S
C1062 C1063 1.363 1_545 S
C1062 C1068 1.379 1_554 S
C1062 N1070 1.356 . S
C1063 C1062 1.363 1_565 S
C1063 C1069 1.363 . S
C1064 C1065 1.363 . S
C1064 C1069 1.379 1_556 S
C1064 N1071 1.356 . S
C1065 C1064 1.363 . S
C1065 C1068 1.363 1_565 S
N1066 C1068 1.356 . S
N1066 H1078 0.984 . S
N1066 H1079 0.985 . S
N1067 C1069 1.356 . S
N1067 H1072 0.984 . S
N1067 H1073 0.985 . S
C1068 C1062 1.379 1_556 S
C1068 C1065 1.363 1_545 S
C1068 N1066 1.356 . S
C1069 C1063 1.363 . S
C1069 C1064 1.379 1_554 S
C1069 N1067 1.356 . S
N1070 C1062 1.356 . S
N1070 H1076 0.984 . S
N1070 H1077 0.984 . S
N1071 C1064 1.356 . S
N1071 H1074 0.984 . S
N1071 H1075 0.985 . S
H1072 N1067 0.984 . S
H1073 N1067 0.985 . S
H1074 N1071 0.984 . S
H1075 N1071 0.985 . S
H1076 N1070 0.984 . S
H1077 N1070 0.984 . S
H1078 N1066 0.984 . S
H1079 N1066 0.985 . S
C1080 C1081 1.363 . S
C1080 C1086 1.379 . S
C1080 N1088 1.356 . S
C1081 C1080 1.363 . S
C1081 C1087 1.363 . S
C1082 C1083 1.363 . S
C1082 C1087 1.379 . S
C1082 N1089 1.356 . S
C1083 C1082 1.363 . S
C1083 C1086 1.363 . S
N1084 C1086 1.356 . S
N1084 H1096 0.984 . S
N1084 H1097 0.985 . S
N1085 C1087 1.356 . S
N1085 H1090 0.984 . S
N1085 H1091 0.985 . S
C1086 C1080 1.379 . S
C1086 C1083 1.363 . S
C1086 N1084 1.356 . S
C1087 C1081 1.363 . S
C1087 C1082 1.379 . S
C1087 N1085 1.356 . S
N1088 C1080 1.356 . S
N1088 H1094 0.984 . S
N1088 H1095 0.984 . S
N1089 C1082 1.356 . S
N1089 H1092 0.984 . S
N1089 H1093 0.985 . S
H1090 N1085 0.984 . S
H1091 N1085 0.985 . S
H1092 N1089 0.984 . S
H1093 N1089 0.985 . S
H1094 N1088 0.984 . S
H1095 N1088 0.984 . S
H1096 N1084 0.984 . S
H1097 N1084 0.985 . S
C1098 C1099 1.363 1_545 S
C1098 C1104 1.379 . S
C1098 N1106 1.356 . S
C1099 C1098 1.363 1_565 S
C1099 C1105 1.363 1_565 S
C1100 C1101 1.363 . S
C1100 C1105 1.379 . S
C1100 N1107 1.356 . S
C1101 C1100 1.363 . S
C1101 C1104 1.363 . S
N1102 C1104 1.356 . S
N1102 H1114 0.984 . S
N1102 H1115 0.985 . S
N1103 C1105 1.356 1_565 S
N1103 H1108 0.984 . S
N1103 H1109 0.985 . S
C1104 C1098 1.379 . S
C1104 C1101 1.363 . S
C1104 N1102 1.356 . S
C1105 C1099 1.363 1_545 S
C1105 C1100 1.379 . S
C1105 N1103 1.356 1_545 S
N1106 C1098 1.356 . S
N1106 H1112 0.984 . S
N1106 H1113 0.984 1_545 S
N1107 C1100 1.356 . S
N1107 H1110 0.984 . S
N1107 H1111 0.985 . S
H1108 N1103 0.984 . S
H1109 N1103 0.985 . S
H1110 N1107 0.984 . S
H1111 N1107 0.985 . S
H1112 N1106 0.984 . S
H1113 N1106 0.984 1_565 S
H1114 N1102 0.984 . S
H1115 N1102 0.985 . S
C1116 C1117 1.363 . S
C1116 C1122 1.379 . S
C1116 N1124 1.356 . S
C1117 C1116 1.363 . S
C1117 C1123 1.363 . S
C1118 C1119 1.363 1_655 S
C1118 C1123 1.379 . S
C1118 N1125 1.356 . S
C1119 C1118 1.363 1_455 S
C1119 C1122 1.363 1_455 S
N1120 C1122 1.356 1_455 S
N1120 H1132 0.984 . S
N1120 H1133 0.985 . S
N1121 C1123 1.356 . S
N1121 H1126 0.984 . S
N1121 H1127 0.985 . S
C1122 C1116 1.379 . S
C1122 C1119 1.363 1_655 S
C1122 N1120 1.356 1_655 S
C1123 C1117 1.363 . S
C1123 C1118 1.379 . S
C1123 N1121 1.356 . S
N1124 C1116 1.356 . S
N1124 H1130 0.984 . S
N1124 H1131 0.984 . S
N1125 C1118 1.356 . S
N1125 H1128 0.984 1_655 S
N1125 H1129 0.985 . S
H1126 N1121 0.984 . S
H1127 N1121 0.985 . S
H1128 N1125 0.984 1_455 S
H1129 N1125 0.985 . S
H1130 N1124 0.984 . S
H1131 N1124 0.984 . S
H1132 N1120 0.984 . S
H1133 N1120 0.985 . S
C1134 C1135 1.363 . S
C1134 C1140 1.379 . S
C1134 N1142 1.356 . S
C1135 C1134 1.363 . S
C1135 C1141 1.363 . S
C1136 C1137 1.363 . S
C1136 C1141 1.379 . S
C1136 N1143 1.356 . S
C1137 C1136 1.363 . S
C1137 C1140 1.363 . S
N1138 C1140 1.356 . S
N1138 H1150 0.984 . S
N1138 H1151 0.985 . S
N1139 C1141 1.356 . S
N1139 H1144 0.984 . S
N1139 H1145 0.985 . S
C1140 C1134 1.379 . S
C1140 C1137 1.363 . S
C1140 N1138 1.356 . S
C1141 C1135 1.363 . S
C1141 C1136 1.379 . S
C1141 N1139 1.356 . S
N1142 C1134 1.356 . S
N1142 H1148 0.984 . S
N1142 H1149 0.984 . S
N1143 C1136 1.356 . S
N1143 H1146 0.984 . S
N1143 H1147 0.985 . S
H1144 N1139 0.984 . S
H1145 N1139 0.985 . S
H1146 N1143 0.984 . S
H1147 N1143 0.985 . S
H1148 N1142 0.984 . S
H1149 N1142 0.984 . S
H1150 N1138 0.984 . S
H1151 N1138 0.985 . S
C1152 C1153 1.363 1_565 S
C1152 C1158 1.379 . S
C1152 N1160 1.356 . S
C1153 C1152 1.363 1_545 S
C1153 C1159 1.363 1_545 S
C1154 C1155 1.363 . S
C1154 C1159 1.379 . S
C1154 N1161 1.356 . S
C1155 C1154 1.363 . S
C1155 C1158 1.363 . S
N1156 C1158 1.356 . S
N1156 H1168 0.984 . S
N1156 H1169 0.985 . S
N1157 C1159 1.356 1_545 S
N1157 H1162 0.984 . S
N1157 H1163 0.985 . S
C1158 C1152 1.379 . S
C1158 C1155 1.363 . S
C1158 N1156 1.356 . S
C1159 C1153 1.363 1_565 S
C1159 C1154 1.379 . S
C1159 N1157 1.356 1_565 S
N1160 C1152 1.356 . S
N1160 H1166 0.984 . S
N1160 H1167 0.984 1_565 S
N1161 C1154 1.356 . S
N1161 H1164 0.984 . S
N1161 H1165 0.985 . S
H1162 N1157 0.984 . S
H1163 N1157 0.985 . S
H1164 N1161 0.984 . S
H1165 N1161 0.985 . S
H1166 N1160 0.984 . S
H1167 N1160 0.984 1_545 S
H1168 N1156 0.984 . S
H1169 N1156 0.985 . S
C1170 C1171 1.363 . S
C1170 C1176 1.379 . S
C1170 N1178 1.356 . S
C1171 C1170 1.363 . S
C1171 C1177 1.363 . S
C1172 C1173 1.363 1_455 S
C1172 C1177 1.379 . S
C1172 N1179 1.356 1_455 S
C1173 C1172 1.363 1_655 S
C1173 C1176 1.363 1_655 S
N1174 C1176 1.356 1_655 S
N1174 H1186 0.967 1_655 S
N1174 H1187 0.985 . S
N1175 C1177 1.356 . S
N1175 H1180 0.984 1_565 S
N1175 H1181 0.985 1_565 S
C1176 C1170 1.379 . S
C1176 C1173 1.363 1_455 S
C1176 N1174 1.356 1_455 S
C1177 C1171 1.363 . S
C1177 C1172 1.379 . S
C1177 N1175 1.356 . S
N1178 C1170 1.356 . S
N1178 H1184 0.984 . S
N1178 H1185 0.984 . S
N1179 C1172 1.356 1_655 S
N1179 H1182 0.984 . S
N1179 H1183 0.985 . S
H1180 N1175 0.984 1_545 S
H1181 N1175 0.985 1_545 S
H1182 N1179 0.984 . S
H1183 N1179 0.985 . S
H1184 N1178 0.984 . S
H1185 N1178 0.984 . S
H1186 N1174 0.967 1_455 S
H1187 N1174 0.985 . S
C1188 C1189 1.363 . S
C1188 C1194 1.379 . S
C1188 N1196 1.356 . S
C1189 C1188 1.363 . S
C1189 C1195 1.363 . S
C1190 C1191 1.363 . S
C1190 C1195 1.379 . S
C1190 N1197 1.356 . S
C1191 C1190 1.363 . S
C1191 C1194 1.363 . S
N1192 C1194 1.356 . S
N1192 H1204 0.984 . S
N1192 H1205 0.985 . S
N1193 C1195 1.356 . S
N1193 H1198 0.984 . S
N1193 H1199 0.985 . S
C1194 C1188 1.379 . S
C1194 C1191 1.363 . S
C1194 N1192 1.356 . S
C1195 C1189 1.363 . S
C1195 C1190 1.379 . S
C1195 N1193 1.356 . S
N1196 C1188 1.356 . S
N1196 H1202 0.984 . S
N1196 H1203 0.984 . S
N1197 C1190 1.356 . S
N1197 H1200 0.984 . S
N1197 H1201 0.985 . S
H1198 N1193 0.984 . S
H1199 N1193 0.985 . S
H1200 N1197 0.984 . S
H1201 N1197 0.985 . S
H1202 N1196 0.984 . S
H1203 N1196 0.984 . S
H1204 N1192 0.984 . S
H1205 N1192 0.985 . S
C1206 C1207 1.363 . S
C1206 C1212 1.379 . S
C1206 N1214 1.356 . S
C1207 C1206 1.363 . S
C1207 C1213 1.363 . S
C1208 C1209 1.363 . S
C1208 C1213 1.379 . S
C1208 N1215 1.356 . S
C1209 C1208 1.363 . S
C1209 C1212 1.363 . S
N1210 C1212 1.356 . S
N1210 H1222 0.984 . S
N1210 H1223 0.985 . S
N1211 C1213 1.356 . S
N1211 H1216 0.984 . S
N1211 H1217 0.985 . S
C1212 C1206 1.379 . S
C1212 C1209 1.363 . S
C1212 N1210 1.356 . S
C1213 C1207 1.363 . S
C1213 C1208 1.379 . S
C1213 N1211 1.356 . S
N1214 C1206 1.356 . S
N1214 H1220 0.984 . S
N1214 H1221 0.984 . S
N1215 C1208 1.356 . S
N1215 H1218 0.984 . S
N1215 H1219 0.985 . S
H1216 N1211 0.984 . S
H1217 N1211 0.985 . S
H1218 N1215 0.984 . S
H1219 N1215 0.985 . S
H1220 N1214 0.984 . S
H1221 N1214 0.984 . S
H1222 N1210 0.984 . S
H1223 N1210 0.985 . S
C1224 C1225 1.363 . S
C1224 C1230 1.379 . S
C1224 N1232 1.356 . S
C1225 C1224 1.363 . S
C1225 C1231 1.363 . S
C1226 C1227 1.363 . S
C1226 C1231 1.379 . S
C1226 N1233 1.356 . S
C1227 C1226 1.363 . S
C1227 C1230 1.363 . S
N1228 C1230 1.356 . S
N1228 H1240 0.984 . S
N1228 H1241 0.985 . S
N1229 C1231 1.356 . S
N1229 H1234 0.984 . S
N1229 H1235 0.985 . S
C1230 C1224 1.379 . S
C1230 C1227 1.363 . S
C1230 N1228 1.356 . S
C1231 C1225 1.363 . S
C1231 C1226 1.379 . S
C1231 N1229 1.356 . S
N1232 C1224 1.356 . S
N1232 H1238 0.984 . S
N1232 H1239 0.984 . S
N1233 C1226 1.356 . S
N1233 H1236 0.984 . S
N1233 H1237 0.985 . S
H1234 N1229 0.984 . S
H1235 N1229 0.985 . S
H1236 N1233 0.984 . S
H1237 N1233 0.985 . S
H1238 N1232 0.984 . S
H1239 N1232 0.984 . S
H1240 N1228 0.984 . S
H1241 N1228 0.985 . S
C1242 C1243 1.363 . S
C1242 C1248 1.379 . S
C1242 N1250 1.356 . S
C1243 C1242 1.363 . S
C1243 C1249 1.363 . S
C1244 C1245 1.363 . S
C1244 C1249 1.379 . S
C1244 N1251 1.356 . S
C1245 C1244 1.363 . S
C1245 C1248 1.363 . S
N1246 C1248 1.356 . S
N1246 H1258 0.984 . S
N1246 H1259 0.985 . S
N1247 C1249 1.356 . S
N1247 H1252 0.984 . S
N1247 H1253 0.985 . S
C1248 C1242 1.379 . S
C1248 C1245 1.363 . S
C1248 N1246 1.356 . S
C1249 C1243 1.363 . S
C1249 C1244 1.379 . S
C1249 N1247 1.356 . S
N1250 C1242 1.356 . S
N1250 H1256 0.984 . S
N1250 H1257 0.984 . S
N1251 C1244 1.356 . S
N1251 H1254 0.984 . S
N1251 H1255 0.985 . S
H1252 N1247 0.984 . S
H1253 N1247 0.985 . S
H1254 N1251 0.984 . S
H1255 N1251 0.985 . S
H1256 N1250 0.984 . S
H1257 N1250 0.984 . S
H1258 N1246 0.984 . S
H1259 N1246 0.985 . S
C1260 C1261 1.363 . S
C1260 C1266 1.379 . S
C1260 N1268 1.356 . S
C1261 C1260 1.363 . S
C1261 C1267 1.363 . S
C1262 C1263 1.363 . S
C1262 C1267 1.379 . S
C1262 N1269 1.356 . S
C1263 C1262 1.363 . S
C1263 C1266 1.363 . S
N1264 C1266 1.356 . S
N1264 H1276 0.984 . S
N1264 H1277 0.985 . S
N1265 C1267 1.356 . S
N1265 H1270 0.984 . S
N1265 H1271 0.985 . S
C1266 C1260 1.379 . S
C1266 C1263 1.363 . S
C1266 N1264 1.356 . S
C1267 C1261 1.363 . S
C1267 C1262 1.379 . S
C1267 N1265 1.356 . S
N1268 C1260 1.356 . S
N1268 H1274 0.984 . S
N1268 H1275 0.984 . S
N1269 C1262 1.356 . S
N1269 H1272 0.984 . S
N1269 H1273 0.985 . S
H1270 N1265 0.984 . S
H1271 N1265 0.985 . S
H1272 N1269 0.984 . S
H1273 N1269 0.985 . S
H1274 N1268 0.984 . S
H1275 N1268 0.984 . S
H1276 N1264 0.984 . S
H1277 N1264 0.985 . S
C1278 C1279 1.363 . S
C1278 C1284 1.379 . S
C1278 N1286 1.356 . S
C1279 C1278 1.363 . S
C1279 C1285 1.363 . S
C1280 C1281 1.363 . S
C1280 C1285 1.379 . S
C1280 N1287 1.356 . S
C1281 C1280 1.363 . S
C1281 C1284 1.363 . S
N1282 C1284 1.356 . S
N1282 H1294 0.984 . S
N1282 H1295 0.985 . S
N1283 C1285 1.356 . S
N1283 H1288 0.984 . S
N1283 H1289 0.985 . S
C1284 C1278 1.379 . S
C1284 C1281 1.363 . S
C1284 N1282 1.356 . S
C1285 C1279 1.363 . S
C1285 C1280 1.379 . S
C1285 N1283 1.356 . S
N1286 C1278 1.356 . S
N1286 H1292 0.984 . S
N1286 H1293 0.984 . S
N1287 C1280 1.356 . S
N1287 H1290 0.984 . S
N1287 H1291 0.985 . S
H1288 N1283 0.984 . S
H1289 N1283 0.985 . S
H1290 N1287 0.984 . S
H1291 N1287 0.985 . S
H1292 N1286 0.984 . S
H1293 N1286 0.984 . S
H1294 N1282 0.984 . S
H1295 N1282 0.985 . S
C1296 C1297 1.363 . S
C1296 C1302 1.379 . S
C1296 N1304 1.356 . S
C1297 C1296 1.363 . S
C1297 C1303 1.363 . S
C1298 C1299 1.363 . S
C1298 C1303 1.379 . S
C1298 N1305 1.356 . S
C1299 C1298 1.363 . S
C1299 C1302 1.363 . S
N1300 C1302 1.356 . S
N1300 H1312 0.984 . S
N1300 H1313 0.985 . S
N1301 C1303 1.356 . S
N1301 H1306 0.984 . S
N1301 H1307 0.985 . S
C1302 C1296 1.379 . S
C1302 C1299 1.363 . S
C1302 N1300 1.356 . S
C1303 C1297 1.363 . S
C1303 C1298 1.379 . S
C1303 N1301 1.356 . S
N1304 C1296 1.356 . S
N1304 H1310 0.984 . S
N1304 H1311 0.984 . S
N1305 C1298 1.356 . S
N1305 H1308 0.984 . S
N1305 H1309 0.985 . S
H1306 N1301 0.984 . S
H1307 N1301 0.985 . S
H1308 N1305 0.984 . S
H1309 N1305 0.985 . S
H1310 N1304 0.984 . S
H1311 N1304 0.984 . S
H1312 N1300 0.984 . S
H1313 N1300 0.985 . S
C1314 C1315 1.363 . S
C1314 C1320 1.379 . S
C1314 N1322 1.356 . S
C1315 C1314 1.363 . S
C1315 C1321 1.363 . S
C1316 C1317 1.363 . S
C1316 C1321 1.379 . S
C1316 N1323 1.356 . S
C1317 C1316 1.363 . S
C1317 C1320 1.363 . S
N1318 C1320 1.356 . S
N1318 H1330 0.984 . S
N1318 H1331 0.985 . S
N1319 C1321 1.356 . S
N1319 H1324 0.984 . S
N1319 H1325 0.985 . S
C1320 C1314 1.379 . S
C1320 C1317 1.363 . S
C1320 N1318 1.356 . S
C1321 C1315 1.363 . S
C1321 C1316 1.379 . S
C1321 N1319 1.356 . S
N1322 C1314 1.356 . S
N1322 H1328 0.984 . S
N1322 H1329 0.984 . S
N1323 C1316 1.356 . S
N1323 H1326 0.984 . S
N1323 H1327 0.985 . S
H1324 N1319 0.984 . S
H1325 N1319 0.985 . S
H1326 N1323 0.984 . S
H1327 N1323 0.985 . S
H1328 N1322 0.984 . S
H1329 N1322 0.984 . S
H1330 N1318 0.984 . S
H1331 N1318 0.985 . S
C1332 C1333 1.363 . S
C1332 C1338 1.379 . S
C1332 N1340 1.356 . S
C1333 C1332 1.363 . S
C1333 C1339 1.363 . S
C1334 C1335 1.363 . S
C1334 C1339 1.379 . S
C1334 N1341 1.356 . S
C1335 C1334 1.363 . S
C1335 C1338 1.363 . S
N1336 C1338 1.356 . S
N1336 H1348 0.984 . S
N1336 H1349 0.985 . S
N1337 C1339 1.356 . S
N1337 H1342 0.984 . S
N1337 H1343 0.985 . S
C1338 C1332 1.379 . S
C1338 C1335 1.363 . S
C1338 N1336 1.356 . S
C1339 C1333 1.363 . S
C1339 C1334 1.379 . S
C1339 N1337 1.356 . S
N1340 C1332 1.356 . S
N1340 H1346 0.984 . S
N1340 H1347 0.984 . S
N1341 C1334 1.356 . S
N1341 H1344 0.984 . S
N1341 H1345 0.985 . S
H1342 N1337 0.984 . S
H1343 N1337 0.985 . S
H1344 N1341 0.984 . S
H1345 N1341 0.985 . S
H1346 N1340 0.984 . S
H1347 N1340 0.984 . S
H1348 N1336 0.984 . S
H1349 N1336 0.985 . S
C1350 C1351 1.363 . S
C1350 C1356 1.379 . S
C1350 N1358 1.356 . S
C1351 C1350 1.363 . S
C1351 C1357 1.363 . S
C1352 C1353 1.363 . S
C1352 C1357 1.379 . S
C1352 N1359 1.356 . S
C1353 C1352 1.363 . S
C1353 C1356 1.363 . S
N1354 C1356 1.356 . S
N1354 H1366 0.984 . S
N1354 H1367 0.985 . S
N1355 C1357 1.356 . S
N1355 H1360 0.984 . S
N1355 H1361 0.985 . S
C1356 C1350 1.379 . S
C1356 C1353 1.363 . S
C1356 N1354 1.356 . S
C1357 C1351 1.363 . S
C1357 C1352 1.379 . S
C1357 N1355 1.356 . S
N1358 C1350 1.356 . S
N1358 H1364 0.984 . S
N1358 H1365 0.984 . S
N1359 C1352 1.356 . S
N1359 H1362 0.984 . S
N1359 H1363 0.985 . S
H1360 N1355 0.984 . S
H1361 N1355 0.985 . S
H1362 N1359 0.984 . S
H1363 N1359 0.985 . S
H1364 N1358 0.984 . S
H1365 N1358 0.984 . S
H1366 N1354 0.984 . S
H1367 N1354 0.985 . S
C1368 C1369 1.363 . S
C1368 C1374 1.379 . S
C1368 N1376 1.356 . S
C1369 C1368 1.363 . S
C1369 C1375 1.363 . S
C1370 C1371 1.363 . S
C1370 C1375 1.379 . S
C1370 N1377 1.356 . S
C1371 C1370 1.363 . S
C1371 C1374 1.363 . S
N1372 C1374 1.356 . S
N1372 H1384 0.984 . S
N1372 H1385 0.985 . S
N1373 C1375 1.356 . S
N1373 H1378 0.984 . S
N1373 H1379 0.985 . S
C1374 C1368 1.379 . S
C1374 C1371 1.363 . S
C1374 N1372 1.356 . S
C1375 C1369 1.363 . S
C1375 C1370 1.379 . S
C1375 N1373 1.356 . S
N1376 C1368 1.356 . S
N1376 H1382 0.984 . S
N1376 H1383 0.984 . S
N1377 C1370 1.356 . S
N1377 H1380 0.984 . S
N1377 H1381 0.985 . S
H1378 N1373 0.984 . S
H1379 N1373 0.985 . S
H1380 N1377 0.984 . S
H1381 N1377 0.985 . S
H1382 N1376 0.984 . S
H1383 N1376 0.984 . S
H1384 N1372 0.984 . S
H1385 N1372 0.985 . S
C1386 C1387 1.363 . S
C1386 C1392 1.379 . S
C1386 N1394 1.356 . S
C1387 C1386 1.363 . S
C1387 C1393 1.363 . S
C1388 C1389 1.363 . S
C1388 C1393 1.379 . S
C1388 N1395 1.356 . S
C1389 C1388 1.363 . S
C1389 C1392 1.363 . S
N1390 C1392 1.356 . S
N1390 H1402 0.984 . S
N1390 H1403 0.985 . S
N1391 C1393 1.356 . S
N1391 H1396 0.984 . S
N1391 H1397 0.985 . S
C1392 C1386 1.379 . S
C1392 C1389 1.363 . S
C1392 N1390 1.356 . S
C1393 C1387 1.363 . S
C1393 C1388 1.379 . S
C1393 N1391 1.356 . S
N1394 C1386 1.356 . S
N1394 H1400 0.984 . S
N1394 H1401 0.984 . S
N1395 C1388 1.356 . S
N1395 H1398 0.984 . S
N1395 H1399 0.985 . S
H1396 N1391 0.984 . S
H1397 N1391 0.985 . S
H1398 N1395 0.984 . S
H1399 N1395 0.985 . S
H1400 N1394 0.984 . S
H1401 N1394 0.984 . S
H1402 N1390 0.984 . S
H1403 N1390 0.985 . S
C595 N335 1.722 . S
C597 N5 1.722 . S
C613 N38 1.722 . S
C615 N368 1.722 . S
C631 N302 1.722 . S
C633 N71 1.722 . S
C649 N467 1.722 . S
C651 N104 1.722 . S
C667 N137 1.722 . S
C669 N401 1.722 . S
C685 N434 1.722 . S
C687 N170 1.722 . S
C703 C193 1.816 . S
C705 C490 1.816 . S
C721 C424 1.816 . S
C723 C127 1.816 . S
C739 C457 1.815 1_655 S
C741 C160 1.816 . S
C757 C61 1.816 . S
C759 C358 1.816 . S
C775 C94 1.816 . S
C777 C391 1.815 1_565 S
C793 C28 1.816 . S
C795 C325 1.816 . S
C811 N533 1.722 . S
C813 N203 1.722 . S
C829 N566 1.722 . S
C831 N236 1.722 . S
C847 N500 1.722 . S
C849 N269 1.722 . S
C865 C259 1.816 . S
C867 C556 1.816 . S
C883 C589 1.816 . S
C885 C292 1.816 . S
C901 C226 1.816 . S
C903 C523 1.816 . S
C919 C17 1.411 . S
C921 C578 1.411 . S
C937 C50 1.411 . S
C939 C512 1.411 . S
C955 C83 1.411 . S
C957 C545 1.411 . S
C973 C248 1.411 . S
C975 C116 1.411 . S
C991 C149 1.411 . S
C993 C281 1.411 . S
C1009 C182 1.411 . S
C1011 C215 1.411 . S
C1027 C314 1.411 . S
C1029 C446 1.411 1_655 S
C1045 C347 1.411 . S
C1047 C479 1.411 . S
C1063 C380 1.411 1_565 S
C1065 C413 1.411 . S
C1081 N80 1.638 . S
C1083 C8 1.605 . S
C1099 C41 1.605 . S
C1101 N14 1.638 . S
C1117 N47 1.638 . S
C1119 C74 1.605 . S
C1135 N146 1.638 . S
C1137 C107 1.605 . S
C1153 C140 1.605 . S
C1155 N179 1.638 . S
C1171 N113 1.638 . S
C1173 C173 1.605 . S
C1189 C206 1.605 . S
C1191 N278 1.638 . S
C1207 N212 1.638 . S
C1209 C239 1.605 . S
C1225 C272 1.605 . S
C1227 N245 1.638 . S
C1243 C305 1.605 . S
C1245 N344 1.638 . S
C1261 N377 1.638 . S
C1263 C338 1.605 . S
C1279 C371 1.605 . S
C1281 N311 1.638 . S
C1297 C404 1.605 . S
C1299 N476 1.638 . S
C1315 N410 1.638 . S
C1317 C437 1.605 . S
C1333 C470 1.605 . S
C1335 N443 1.638 . S
C1351 C503 1.605 . S
C1353 N542 1.638 . S
C1369 N575 1.638 . S
C1371 C536 1.605 . S
C1387 N509 1.638 . S
C1389 C569 1.605 . S
