# Generated by pormake.
# Topology sod, (4)-cn, num edge types: 1
# Building blocks:
#     Node 0, Type 0, BuildingBlock: TATPOV_clean_sbu_0, # of connection points: 4
#     Node 1, Type 0, BuildingBlock: TATPOV_clean_sbu_0, # of connection points: 4
#     Node 2, Type 0, BuildingBlock: TATPOV_clean_sbu_0, # of connection points: 4
#     Node 3, Type 0, BuildingBlock: TATPOV_clean_sbu_0, # of connection points: 4
#     Node 4, Type 0, BuildingBlock: TATPOV_clean_sbu_0, # of connection points: 4
#     Node 5, Type 0, BuildingBlock: TATPOV_clean_sbu_0, # of connection points: 4
#     Node 6, Type 0, BuildingBlock: TATPOV_clean_sbu_0, # of connection points: 4
#     Node 7, Type 0, BuildingBlock: TATPOV_clean_sbu_0, # of connection points: 4
#     Node 8, Type 0, BuildingBlock: TATPOV_clean_sbu_0, # of connection points: 4
#     Node 9, Type 0, BuildingBlock: TATPOV_clean_sbu_0, # of connection points: 4
#     Node 10, Type 0, BuildingBlock: TATPOV_clean_sbu_0, # of connection points: 4
#     Node 11, Type 0, BuildingBlock: TATPOV_clean_sbu_0, # of connection points: 4
#     Edge 12, Type (0, 0), BuildingBlock: XIVTED_clean_linker_0, # of connection points: 2
#     Edge 13, Type (0, 0), BuildingBlock: XIVTED_clean_linker_0, # of connection points: 2
#     Edge 14, Type (0, 0), BuildingBlock: XIVTED_clean_linker_0, # of connection points: 2
#     Edge 15, Type (0, 0), BuildingBlock: XIVTED_clean_linker_0, # of connection points: 2
#     Edge 16, Type (0, 0), BuildingBlock: XIVTED_clean_linker_0, # of connection points: 2
#     Edge 17, Type (0, 0), BuildingBlock: XIVTED_clean_linker_0, # of connection points: 2
#     Edge 18, Type (0, 0), BuildingBlock: XIVTED_clean_linker_0, # of connection points: 2
#     Edge 19, Type (0, 0), BuildingBlock: XIVTED_clean_linker_0, # of connection points: 2
#     Edge 20, Type (0, 0), BuildingBlock: XIVTED_clean_linker_0, # of connection points: 2
#     Edge 21, Type (0, 0), BuildingBlock: XIVTED_clean_linker_0, # of connection points: 2
#     Edge 22, Type (0, 0), BuildingBlock: XIVTED_clean_linker_0, # of connection points: 2
#     Edge 23, Type (0, 0), BuildingBlock: XIVTED_clean_linker_0, # of connection points: 2
#     Edge 24, Type (0, 0), BuildingBlock: XIVTED_clean_linker_0, # of connection points: 2
#     Edge 25, Type (0, 0), BuildingBlock: XIVTED_clean_linker_0, # of connection points: 2
#     Edge 26, Type (0, 0), BuildingBlock: XIVTED_clean_linker_0, # of connection points: 2
#     Edge 27, Type (0, 0), BuildingBlock: XIVTED_clean_linker_0, # of connection points: 2
#     Edge 28, Type (0, 0), BuildingBlock: XIVTED_clean_linker_0, # of connection points: 2
#     Edge 29, Type (0, 0), BuildingBlock: XIVTED_clean_linker_0, # of connection points: 2
#     Edge 30, Type (0, 0), BuildingBlock: XIVTED_clean_linker_0, # of connection points: 2
#     Edge 31, Type (0, 0), BuildingBlock: XIVTED_clean_linker_0, # of connection points: 2
#     Edge 32, Type (0, 0), BuildingBlock: XIVTED_clean_linker_0, # of connection points: 2
#     Edge 33, Type (0, 0), BuildingBlock: XIVTED_clean_linker_0, # of connection points: 2
#     Edge 34, Type (0, 0), BuildingBlock: XIVTED_clean_linker_0, # of connection points: 2
#     Edge 35, Type (0, 0), BuildingBlock: XIVTED_clean_linker_0, # of connection points: 2
# Relax obj value: 0.090
# Max RMSD: 0.145
# Mean RMSD: 0.126
data_MOF--net-sod--node1-TATPOV_clean_sbu_0--edge1-XIVTED_clean_linker_0
_symmetry_space_group_name_H-M    P1
_symmetry_Int_Tables_number       1
_symmetry_cell_setting            triclinic
loop_
_symmetry_equiv_pos_as_xyz
'x, y, z'
_cell_length_a     41.550343
_cell_length_b     42.039354
_cell_length_c     43.095245
_cell_angle_alpha  90.276552
_cell_angle_beta   90.602921
_cell_angle_gamma 92.26753
loop_
_atom_site_label
_atom_site_type_symbol
_atom_site_fract_x
_atom_site_fract_y
_atom_site_fract_z
_atom_type_partial_charge
Zn0 Zn 0.00653 0.21667 0.43989 0.0
Zn1 Zn -0.00128 0.2436 0.49628 0.0
O2 O 0.03567 0.213 0.50396 0.0
O3 O 0.04043 0.1897 0.45837 0.0
O4 O 0.99117 0.26498 0.5377 0.0
O5 O 0.01993 0.25909 0.42249 0.0
O6 O 0.0095 0.28147 0.46748 0.0
C7 C 0.04913 0.19296 0.48648 0.0
C8 C 0.94304 0.20552 0.46369 0.0
O9 O 0.95518 0.22049 0.48708 0.0
O10 O 0.9598 0.20146 0.43972 0.0
C11 C 0.01322 0.27811 0.55464 0.0
O12 O 0.04332 0.27733 0.5457 0.0
C13 C 0.01824 0.28369 0.43929 0.0
Zn14 Zn 0.79929 0.97776 0.53397 0.0
Zn15 Zn 0.77426 0.96369 0.4811 0.0
O16 O 0.81501 0.93668 0.4802 0.0
O17 O 0.84011 0.9589 0.52064 0.0
O18 O 0.7496 0.95664 0.44057 0.0
O19 O 0.76713 0.9512 0.55737 0.0
O20 O 0.74028 0.94896 0.5132 0.0
C21 C 0.84003 0.94029 0.49751 0.0
C22 C 0.79111 0.03324 0.5014 0.0
O23 O 0.78524 0.01223 0.48043 0.0
O24 O 0.79465 0.02474 0.52928 0.0
C25 C 0.75603 0.97308 0.41655 0.0
O26 O 0.78162 0.99247 0.41694 0.0
C27 C 0.7418 0.94343 0.54222 0.0
Zn28 Zn 0.09091 0.78785 0.49034 0.0
Zn29 Zn 0.06828 0.75219 0.53379 0.0
O30 O 0.03569 0.78769 0.5296 0.0
O31 O 0.06104 0.82279 0.49996 0.0
O32 O 0.05037 0.72499 0.56866 0.0
O33 O 0.07638 0.75616 0.4587 0.0
O34 O 0.06382 0.72229 0.49582 0.0
C35 C 0.03683 0.81461 0.51606 0.0
C36 C 0.13881 0.77873 0.53428 0.0
O37 O 0.1146 0.76655 0.54859 0.0
O38 O 0.13562 0.78793 0.50661 0.0
C39 C 0.06757 0.70743 0.58551 0.0
O40 O 0.09873 0.70707 0.58075 0.0
C41 C 0.06607 0.7289 0.46708 0.0
Zn42 Zn 0.25424 0.01888 0.61554 0.0
Zn43 Zn 0.28321 0.01933 0.55863 0.0
O44 O 0.24217 0.04431 0.55147 0.0
O45 O 0.21858 0.04393 0.59707 0.0
O46 O 0.30638 0.02149 0.51714 0.0
O47 O 0.29277 0.04236 0.63391 0.0
O48 O 0.31578 0.04216 0.58808 0.0
C49 C 0.21914 0.05225 0.56888 0.0
C50 C 0.26328 0.95624 0.59076 0.0
O51 O 0.2752 0.97164 0.56788 0.0
O52 O 0.25267 0.971 0.61396 0.0
C53 C 0.30914 -0.00096 0.49748 0.0
O54 O 0.29559 0.97092 0.50309 0.0
C55 C 0.3164 0.04976 0.61675 0.0
Zn56 Zn 0.51349 0.06867 0.2917 0.0
Zn57 Zn 0.49765 0.01567 0.26052 0.0
O58 O 0.4629 0.01433 0.29533 0.0
O59 O 0.47724 0.05815 0.32103 0.0
O60 O 0.487 0.97815 0.23145 0.0
O61 O 0.50597 0.09722 0.25563 0.0
O62 O 0.49485 0.0533 0.22909 0.0
C63 C 0.45876 0.03363 0.31785 0.0
C64 C 0.56432 0.02472 0.29252 0.0
O65 O 0.54344 0.0071 0.27792 0.0
O66 O 0.55786 0.05287 0.30009 0.0
C67 C 0.49884 0.95075 0.23342 0.0
O68 O 0.5179 0.94461 0.25697 0.0
C69 C 0.49825 0.08362 0.23026 0.0
Zn70 Zn 0.00873 0.57071 0.22893 0.0
Zn71 Zn 0.00392 0.51794 0.26269 0.0
O72 O 0.0441 0.51223 0.23654 0.0
O73 O 0.0534 0.55977 0.21645 0.0
O74 O 0.00314 0.48082 0.29143 0.0
O75 O 0.00233 0.59802 0.26637 0.0
O76 O 0.00562 0.55442 0.29396 0.0
C77 C 0.0617 0.53151 0.22085 0.0
C78 C 0.95441 0.52829 0.21307 0.0
O79 O 0.96265 0.51297 0.23706 0.0
O80 O 0.9709 0.55251 0.20427 0.0
C81 C 0.02916 0.47423 0.30528 0.0
O82 O 0.05579 0.49077 0.29908 0.0
C83 C 0.00354 0.58445 0.29246 0.0
Zn84 Zn 0.59625 0.08401 0.71093 0.0
Zn85 Zn 0.56905 0.03646 0.74691 0.0
O86 O 0.5906 0.00971 0.71433 0.0
O87 O 0.60978 0.04769 0.68359 0.0
O88 O 0.54907 0.00527 0.77667 0.0
O89 O 0.62216 0.10053 0.74846 0.0
O90 O 0.59774 0.063 0.77577 0.0
C91 C 0.60474 0.01843 0.6896 0.0
C92 C 0.5274 0.08438 0.71282 0.0
O93 O 0.53108 0.05984 0.72949 0.0
O94 O 0.55165 0.10003 0.70252 0.0
C95 C 0.52286 0.98955 0.77137 0.0
O96 O 0.50806 0.99255 0.74451 0.0
C97 C 0.61713 0.08705 0.77429 0.0
Zn98 Zn 0.91878 0.48943 0.72965 0.0
Zn99 Zn 0.96954 0.48527 0.76757 0.0
O100 O 0.98058 0.52614 0.74279 0.0
O101 O 0.93814 0.5304 0.7123 0.0
O102 O 0.00714 0.48285 0.79787 0.0
O103 O 0.88817 0.49048 0.76525 0.0
O104 O 0.92984 0.4877 0.7969 0.0
C105 C 0.96557 0.54089 0.72166 0.0
C106 C 0.95436 0.43335 0.71808 0.0
O107 O 0.9724 0.44477 0.73993 0.0
O108 O 0.92938 0.44761 0.70991 0.0
C109 C 0.03603 0.48171 0.78854 0.0
O110 O 0.04149 0.48154 0.75856 0.0
C111 C 0.8995 0.48962 0.79258 0.0
Zn112 Zn 0.29477 0.47092 0.0494 0.0
Zn113 Zn 0.25035 0.47752 0.00423 0.0
O114 O 0.26853 0.43356 0.99442 0.0
O115 O 0.30192 0.42679 0.0337 0.0
O116 O 0.21506 0.48204 0.97178 0.0
O117 O 0.26209 0.47684 0.0821 0.0
O118 O 0.22511 0.47856 0.04511 0.0
C119 C 0.28789 0.4163 0.00931 0.0
C120 C 0.30719 0.52652 0.01257 0.0
O121 O 0.28118 0.51719 0.99866 0.0
O122 O 0.31883 0.5099 0.03404 0.0
C123 C 0.21959 0.47816 0.94288 0.0
O124 O 0.24854 0.47174 0.93325 0.0
C125 C 0.23299 0.47886 0.07379 0.0
Zn126 Zn 0.48223 0.26795 0.92251 0.0
Zn127 Zn 0.48673 0.23769 0.97555 0.0
O128 O 0.43827 0.24395 0.96713 0.0
O129 O 0.43417 0.26302 0.91995 0.0
O130 O 0.48715 0.21034 0.01405 0.0
O131 O 0.51169 0.23889 0.90146 0.0
O132 O 0.51448 0.21251 0.94535 0.0
C133 C 0.42092 0.25361 0.94472 0.0
C134 C 0.51392 0.30517 0.97144 0.0
O135 O 0.51007 0.2799 0.98743 0.0
O136 O 0.50304 0.3062 0.9439 0.0
C137 C 0.48092 0.22094 0.04091 0.0
O138 O 0.47398 0.25099 0.04413 0.0
C139 C 0.52312 0.2167 0.91733 0.0
Zn140 Zn 0.6872 0.53428 0.08327 0.0
Zn141 Zn 0.7207 0.529 0.02847 0.0
O142 O 0.70426 0.57424 0.02603 0.0
O143 O 0.67911 0.57963 0.07045 0.0
O144 O 0.7496 0.52416 0.99121 0.0
O145 O 0.72654 0.52396 0.10817 0.0
O146 O 0.75205 0.52069 0.06382 0.0
C147 C 0.68831 0.59101 0.04469 0.0
C148 C 0.6619 0.48513 0.04133 0.0
O149 O 0.68474 0.49473 0.02375 0.0
O150 O 0.65802 0.498 0.0676 0.0
C151 C 0.74002 0.51542 0.96427 0.0
O152 O 0.70909 0.50976 0.95915 0.0
C153 C 0.75191 0.51887 0.09328 0.0
Zn154 Zn 0.48613 0.75212 0.93092 0.0
Zn155 Zn 0.47898 0.7834 0.98471 0.0
O156 O 0.52371 0.76454 0.98957 0.0
O157 O 0.53079 0.74074 0.94467 0.0
O158 O 0.47412 0.80951 0.02434 0.0
O159 O 0.47934 0.791 0.90616 0.0
O160 O 0.47612 0.81763 0.95011 0.0
C161 C 0.54107 0.74847 0.97154 0.0
C162 C 0.43342 0.72638 0.96608 0.0
O163 O 0.44236 0.7481 0.98554 0.0
O164 O 0.44812 0.72349 0.94073 0.0
C165 C 0.48481 0.80071 0.05062 0.0
O166 O 0.49839 0.7731 0.05272 0.0
C167 C 0.47605 0.81694 0.92048 0.0
H168 H 0.06276 0.29862 0.39559 0.0
H169 H 0.97862 0.4508 0.33928 0.0
H170 H 0.98808 0.33917 0.4502 0.0
H171 H 0.08019 0.44011 0.32435 0.0
H172 H 0.97929 0.40756 0.37716 0.0
H173 H 0.06828 0.34837 0.36654 0.0
C174 C 0.04784 0.31822 0.40168 0.0
C175 C 0.02485 0.31493 0.42513 0.0
C176 C 0.00145 0.41495 0.36578 0.0
C177 C 0.03047 0.37129 0.39166 0.0
C178 C 0.00104 0.43934 0.344 0.0
C179 C 0.02935 0.44876 0.32856 0.0
C180 C 0.03018 0.39947 0.3715 0.0
C181 C 0.05784 0.43345 0.33574 0.0
C182 C 0.05106 0.34654 0.38521 0.0
C183 C 0.00614 0.34094 0.43229 0.0
N184 N 0.05745 0.40916 0.35641 0.0
N185 N 0.00889 0.36795 0.41513 0.0
H186 H 0.75606 0.01481 0.36804 0.0
H187 H 0.5783 0.96342 0.30819 0.0
H188 H 0.70072 0.93594 0.40707 0.0
H189 H 0.62111 0.05818 0.30067 0.0
H190 H 0.62831 0.94611 0.33296 0.0
H191 H 0.71206 0.02339 0.33141 0.0
C192 C 0.73491 -0.00108 0.3686 0.0
C193 C 0.73194 0.97488 0.39102 0.0
C194 C 0.62681 0.97055 0.32541 0.0
C195 C 0.68141 0.98468 0.34903 0.0
C196 C 0.59843 0.98037 0.31114 0.0
C197 C 0.59553 0.01233 0.30266 0.0
C198 C 0.65251 0.99276 0.33061 0.0
C199 C 0.62224 0.03339 0.30716 0.0
C200 C 0.70974 0.00394 0.34773 0.0
C201 C 0.70393 0.95498 0.39043 0.0
N202 N 0.64952 0.02328 0.3209 0.0
N203 N 0.6796 0.96049 0.36996 0.0
H204 H 0.01642 0.56502 0.35187 0.0
H205 H 0.05221 0.74257 0.40731 0.0
H206 H 0.99496 0.64806 0.29794 0.0
H207 H 0.05138 0.66449 0.47216 0.0
H208 H 0.03092 0.70691 0.3674 0.0
H209 H 0.02748 0.59949 0.39704 0.0
C210 C 0.01356 0.59041 0.34965 0.0
C211 C 0.00538 0.60383 0.32098 0.0
C212 C 0.03523 0.69742 0.39033 0.0
C213 C 0.01813 0.64308 0.37224 0.0
C214 C 0.04773 0.71776 0.41315 0.0
C215 C 0.05395 0.70638 0.44305 0.0
C216 C 0.0292 0.66519 0.39714 0.0
C217 C 0.04711 0.67411 0.44929 0.0
C218 C 0.01989 0.61 0.37541 0.0
C219 C 0.00177 0.63676 0.31942 0.0
N220 N 0.03532 0.65443 0.42634 0.0
N221 N 0.00853 0.65526 0.3446 0.0
H222 H 0.33924 0.05447 0.47833 0.0
H223 H 0.42141 0.97874 0.32866 0.0
H224 H 0.32341 0.95592 0.45174 0.0
H225 H 0.43796 0.07546 0.36088 0.0
H226 H 0.38257 0.97001 0.37085 0.0
H227 H 0.37271 0.06271 0.43283 0.0
C228 C 0.34271 0.03453 0.46288 0.0
C229 C 0.32854 0.00441 0.46906 0.0
C230 C 0.39464 0.99315 0.36848 0.0
C231 C 0.36719 0.01369 0.41656 0.0
C232 C 0.41671 -0.00183 0.34435 0.0
C233 C 0.43321 0.0278 0.34128 0.0
C234 C 0.38898 0.018 0.38951 0.0
C235 C 0.42615 0.0521 0.36237 0.0
C236 C 0.36189 0.03925 0.4368 0.0
C237 C 0.33391 0.97954 0.44798 0.0
N238 N 0.40477 0.04662 0.38549 0.0
N239 N 0.35291 0.98469 0.42275 0.0
H240 H 0.02876 0.5629 0.72492 0.0
H241 H 0.00334 0.69864 0.598 0.0
H242 H 0.93696 0.58296 0.68305 0.0
H243 H 0.09699 0.66797 0.62668 0.0
H244 H 0.97846 0.66131 0.63465 0.0
H245 H 0.05386 0.60636 0.6948 0.0
C246 C 0.01382 0.57665 0.70971 0.0
C247 C 0.98074 0.5691 0.70634 0.0
C248 C 0.00446 0.66283 0.63304 0.0
C249 C 0.0093 0.61872 0.67179 0.0
C250 C 0.01871 0.6842 0.61212 0.0
C251 C 0.05233 0.68629 0.60904 0.0
C252 C 0.0239 0.64339 0.65114 0.0
C253 C 0.07097 0.66702 0.6281 0.0
C254 C 0.02819 0.60135 0.69241 0.0
C255 C 0.96259 0.58771 0.68622 0.0
N256 N 0.05651 0.64628 0.64825 0.0
N257 N 0.97711 0.61152 0.66966 0.0
H258 H 0.51038 0.12192 0.66398 0.0
H259 H 0.37065 0.07263 0.58729 0.0
H260 H 0.4701 0.0634 0.73712 0.0
H261 H 0.32835 0.06269 0.67803 0.0
H262 H 0.42086 0.09215 0.61173 0.0
H263 H 0.45675 0.12418 0.64034 0.0
C264 C 0.49018 0.10999 0.67534 0.0
C265 C 0.49476 0.09178 0.70213 0.0
C266 C 0.40032 0.08666 0.62627 0.0
C267 C 0.4338 0.09364 0.6749 0.0
C268 C 0.37173 0.07513 0.61231 0.0
C269 C 0.34544 0.06557 0.63066 0.0
C270 C 0.40259 0.0884 0.6588 0.0
C271 C 0.34812 0.06947 0.66297 0.0
C272 C 0.45968 0.11098 0.66162 0.0
C273 C 0.46773 0.07714 0.71609 0.0
N274 N 0.37642 0.08 0.67603 0.0
N275 N 0.43842 0.07811 0.7021 0.0
H276 H 0.95319 0.28649 0.57819 0.0
H277 H 0.01412 0.4078 0.71252 0.0
H278 H 0.05368 0.31091 0.59558 0.0
H279 H 0.91525 0.39476 0.68187 0.0
H280 H 0.02906 0.36584 0.67611 0.0
H281 H 0.93908 0.31961 0.62222 0.0
C282 C 0.97235 0.29864 0.59138 0.0
C283 C 0.00468 0.29613 0.5829 0.0
C284 C 0.00406 0.37197 0.67766 0.0
C285 C 0.9886 0.33431 0.63353 0.0
C286 C -0.00451 0.39575 0.69857 0.0
C287 C 0.96343 0.405 0.70005 0.0
C288 C 0.98033 0.35721 0.65835 0.0
C289 C 0.94032 0.38867 0.6813 0.0
C290 C 0.96426 0.31761 0.61656 0.0
C291 C 0.02842 0.31232 0.6011 0.0
N292 N 0.94924 0.36577 0.66119 0.0
N293 N 0.01991 0.33089 0.62543 0.0
H294 H 0.5974 0.02213 0.62751 0.0
H295 H 0.73831 0.91656 0.59965 0.0
H296 H 0.63228 0.96109 0.69946 0.0
H297 H 0.67898 0.95021 0.5249 0.0
H298 H 0.69324 0.92101 0.63488 0.0
H299 H 0.61945 0.98731 0.58853 0.0
C300 C 0.60949 0.00107 0.63499 0.0
C301 C 0.61394 0.99479 0.66657 0.0
C302 C 0.68964 0.92642 0.61058 0.0
C303 C 0.63972 0.95506 0.62224 0.0
C304 C 0.71541 0.92388 0.59043 0.0
C305 C 0.71265 0.93425 0.55966 0.0
C306 C 0.66138 0.94015 0.5999 0.0
C307 C 0.68234 0.94276 0.54869 0.0
C308 C 0.6218 0.98098 0.61276 0.0
C309 C 0.62896 0.9669 0.67522 0.0
N310 N 0.6581 0.94656 0.56907 0.0
N311 N 0.6422 0.94843 0.65312 0.0
H312 H 0.37784 0.27853 0.90367 0.0
H313 H 0.30408 0.36629 0.04488 0.0
H314 H 0.38718 0.24866 0.99893 0.0
H315 H 0.28647 0.39244 0.94974 0.0
H316 H 0.32295 0.31527 0.02736 0.0
H317 H 0.33257 0.3104 0.91819 0.0
C318 C 0.36975 0.27782 0.92748 0.0
C319 C 0.38717 0.26187 0.95037 0.0
C320 C 0.31453 0.33184 0.01021 0.0
C321 C 0.33573 0.29878 0.96718 0.0
C322 C 0.30393 0.36109 0.02023 0.0
C323 C 0.29452 0.38387 0.99864 0.0
C324 C 0.31656 0.32554 0.97829 0.0
C325 C 0.294 0.37565 0.96707 0.0
C326 C 0.34393 0.29621 0.93578 0.0
C327 C 0.37508 0.26127 0.98064 0.0
N328 N 0.30565 0.34737 0.95775 0.0
N329 N 0.35066 0.28023 0.98834 0.0
H330 H 0.35026 0.56026 0.04903 0.0
H331 H 0.39492 0.69214 0.92557 0.0
H332 H 0.29938 0.5648 0.96139 0.0
H333 H 0.4148 0.70488 0.02339 0.0
H334 H 0.36017 0.64556 0.93728 0.0
H335 H 0.37558 0.61233 0.03902 0.0
C336 C 0.34448 0.57214 0.02755 0.0
C337 C 0.32285 0.55795 0.00584 0.0
C338 C 0.37169 0.65883 0.95622 0.0
C339 C 0.35185 0.61789 0.99435 0.0
C340 C 0.39153 0.68541 0.94959 0.0
C341 C 0.40792 0.70225 0.97357 0.0
C342 C 0.36875 0.6486 0.987 0.0
C343 C 0.40257 0.6926 0.00424 0.0
C344 C 0.35875 0.60207 0.02203 0.0
C345 C 0.31602 0.57479 0.97867 0.0
N346 N 0.38386 0.66605 0.01005 0.0
N347 N 0.33077 0.60378 0.97351 0.0
H348 H 0.53561 0.31643 0.0312 0.0
H349 H 0.65196 0.46197 0.98252 0.0
H350 H 0.53686 0.35645 0.93905 0.0
H351 H 0.62142 0.44844 0.07719 0.0
H352 H 0.61448 0.41864 0.9663 0.0
H353 H 0.57129 0.36093 0.04903 0.0
C354 C 0.5432 0.33461 0.01481 0.0
C355 C 0.53331 0.33271 0.9836 0.0
C356 C 0.61596 0.42525 0.99061 0.0
C357 C 0.57425 0.38305 0.00364 0.0
C358 C 0.63743 0.44983 0.99988 0.0
C359 C 0.6397 0.45883 0.0312 0.0
C360 C 0.59702 0.40926 0.01288 0.0
C361 C 0.62025 0.44234 0.05275 0.0
C362 C 0.56348 0.35994 0.02498 0.0
C363 C 0.54382 0.35693 0.96333 0.0
N364 N 0.5998 0.41818 0.04321 0.0
N365 N 0.56394 0.38091 0.97364 0.0
H366 H 0.69259 0.61881 0.98731 0.0
H367 H 0.56444 0.74725 0.03132 0.0
H368 H 0.65846 0.635 0.08014 0.0
H369 H 0.58718 0.71997 0.9376 0.0
H370 H 0.60938 0.7166 0.05027 0.0
H371 H 0.66495 0.66589 0.96995 0.0
C372 C 0.6798 0.63257 0.00417 0.0
C373 C 0.67723 0.62252 0.03508 0.0
C374 C 0.60484 0.71777 0.02552 0.0
C375 C 0.6454 0.67627 0.01532 0.0
C376 C 0.57925 0.73536 0.01467 0.0
C377 C 0.57161 0.73559 0.98288 0.0
C378 C 0.62287 0.70037 0.0044 0.0
C379 C 0.5918 0.71993 0.96237 0.0
C380 C 0.66395 0.65941 0.99422 0.0
C381 C 0.66057 0.64149 0.05594 0.0
N382 N 0.61621 0.70259 0.97351 0.0
N383 N 0.6449 0.66718 0.04559 0.0
H384 H 0.49547 0.87777 0.93753 0.0
H385 H 0.47442 0.9438 0.7648 0.0
H386 H 0.45363 0.82268 0.86146 0.0
H387 H 0.54129 0.98558 0.83224 0.0
H388 H 0.45596 0.90533 0.80383 0.0
H389 H 0.50125 0.92383 0.90289 0.0
C390 C 0.48688 0.8756 0.91376 0.0
C391 C 0.47446 0.84636 0.90216 0.0
C392 C 0.47449 0.92311 0.81011 0.0
C393 C 0.481 0.89857 0.86264 0.0
C394 C 0.48502 0.94506 0.78787 0.0
C395 C 0.50976 0.96759 0.79516 0.0
C396 C 0.48861 0.92391 0.83989 0.0
C397 C 0.52249 0.96828 0.82549 0.0
C398 C 0.49038 0.90175 0.89399 0.0
C399 C 0.46377 0.84472 0.87118 0.0
N400 N 0.51189 0.94662 0.84672 0.0
N401 N 0.46749 0.87038 0.85243 0.0
H402 H 0.1559 0.48761 0.95504 0.0
H403 H 0.10029 0.4771 0.77637 0.0
H404 H 0.22097 0.47213 0.8795 0.0
H405 H 0.03402 0.48528 0.8522 0.0
H406 H 0.14491 0.47685 0.81373 0.0
H407 H 0.11122 0.48869 0.9177 0.0
C408 C 0.16085 0.48452 0.9306 0.0
C409 C 0.19232 0.47973 0.92045 0.0
C410 C 0.12062 0.47868 0.82223 0.0
C411 C 0.14112 0.48091 0.87749 0.0
C412 C 0.09507 0.47882 0.80088 0.0
C413 C 0.06327 0.48119 0.8111 0.0
C414 C 0.11445 0.48101 0.85414 0.0
C415 C 0.0581 0.48337 0.8432 0.0
C416 C 0.13528 0.48508 0.90929 0.0
C417 C 0.19716 0.47585 0.88846 0.0
N418 N 0.08339 0.48326 0.86354 0.0
N419 N 0.17189 0.47651 0.86818 0.0
H420 H 0.6442 0.14722 0.78172 0.0
H421 H 0.54316 0.15777 0.9351 0.0
H422 H 0.60985 0.06546 0.83376 0.0
H423 H 0.56221 0.23351 0.86973 0.0
H424 H 0.58384 0.12634 0.90928 0.0
H425 H 0.63441 0.18089 0.82651 0.0
C426 C 0.63575 0.13612 0.80292 0.0
C427 C 0.62616 0.10377 0.80349 0.0
C428 C 0.57942 0.15008 0.90101 0.0
C429 C 0.61406 0.14219 0.85432 0.0
C430 C 0.55608 0.16785 0.91553 0.0
C431 C 0.5486 0.19776 0.90382 0.0
C432 C 0.59548 0.16261 0.87494 0.0
C433 C 0.56646 0.21008 0.87887 0.0
C434 C 0.62986 0.15543 0.82844 0.0
C435 C 0.61623 0.0906 0.83191 0.0
N436 N 0.5888 0.19234 0.8651 0.0
N437 N 0.60929 0.11005 0.85593 0.0
H438 H 0.91376 0.49707 0.85503 0.0
H439 H 0.7278 0.49951 0.90345 0.0
H440 H 0.83378 0.48689 0.79051 0.0
H441 H 0.80613 0.52085 0.96777 0.0
H442 H 0.76688 0.49185 0.86249 0.0
H443 H 0.87532 0.50263 0.89745 0.0
C444 C 0.8882 0.49584 0.84978 0.0
C445 C 0.87706 0.49162 0.81909 0.0
C446 C 0.77558 0.49822 0.88555 0.0
C447 C 0.83299 0.49798 0.86745 0.0
C448 C 0.75322 0.50262 0.90899 0.0
C449 C 0.76362 0.51095 0.93913 0.0
C450 C 0.80871 0.50206 0.89218 0.0
C451 C 0.79696 0.51455 0.94486 0.0
C452 C 0.86627 0.49912 0.87398 0.0
C453 C 0.8436 0.49027 0.81371 0.0
N454 N 0.8183 0.51007 0.92163 0.0
N455 N 0.82287 0.49344 0.83756 0.0
H456 H 0.49446 0.14819 0.22735 0.0
H457 H 0.48929 0.15646 0.04211 0.0
H458 H 0.49167 0.0642 0.16919 0.0
H459 H 0.47481 0.23702 0.10215 0.0
H460 H 0.49181 0.12226 0.08784 0.0
H461 H 0.48884 0.18095 0.18136 0.0
C462 C 0.49261 0.13657 0.20488 0.0
C463 C 0.49364 0.10331 0.20219 0.0
C464 C 0.48797 0.1474 0.09097 0.0
C465 C 0.48729 0.14097 0.14913 0.0
C466 C 0.4866 0.16698 0.06489 0.0
C467 C 0.48191 0.19973 0.06827 0.0
C468 C 0.48487 0.16068 0.1207 0.0
C469 C 0.47848 0.21195 0.09837 0.0
C470 C 0.48933 0.15536 0.17857 0.0
C471 C 0.49097 0.08972 0.17239 0.0
N472 N 0.48017 0.19247 0.12336 0.0
N473 N 0.4881 0.10862 0.14698 0.0
H474 H 0.89951 0.49721 0.23362 0.0
H475 H 0.81167 0.51215 0.06903 0.0
H476 H 0.94415 0.53661 0.1516 0.0
H477 H 0.7602 0.50904 0.15565 0.0
H478 H 0.86187 0.50566 0.09762 0.0
H479 H 0.84967 0.48657 0.2034 0.0
C480 C 0.89892 0.50315 0.2092 0.0
C481 C 0.92559 0.51828 0.19509 0.0
C482 C 0.83951 0.50611 0.1103 0.0
C483 C 0.86944 0.50592 0.16069 0.0
C484 C 0.81086 0.50983 0.09404 0.0
C485 C 0.78181 0.51182 0.11007 0.0
C486 C 0.8391 0.50428 0.14278 0.0
C487 C 0.78217 0.5082 0.14244 0.0
C488 C 0.87059 0.49717 0.19208 0.0
C489 C 0.92383 0.52545 0.16343 0.0
N490 N 0.81051 0.5049 0.15784 0.0
N491 N 0.89615 0.51932 0.1473 0.0
H492 H 0.45903 0.85985 0.05495 0.0
H493 H 0.51997 0.88982 0.23027 0.0
H494 H 0.50829 0.79039 0.10925 0.0
H495 H 0.46608 0.95762 0.17822 0.0
H496 H 0.51435 0.85252 0.18672 0.0
H497 H 0.45991 0.89538 0.10015 0.0
C498 C 0.4699 0.85197 0.07639 0.0
C499 C 0.48368 0.82204 0.07819 0.0
C500 C 0.50359 0.87549 0.18485 0.0
C501 C 0.48487 0.86277 0.13013 0.0
C502 C 0.50676 0.89684 0.20978 0.0
C503 C 0.49356 0.92702 0.20797 0.0
C504 C 0.4872 0.88432 0.15772 0.0
C505 C 0.47669 0.93466 0.18073 0.0
C506 C 0.47039 0.87231 0.10222 0.0
C507 C 0.4974 0.8132 0.10667 0.0
N508 N 0.47415 0.91356 0.15666 0.0
N509 N 0.49776 0.83348 0.13139 0.0
H510 H 0.16896 0.46103 0.0712 0.0
H511 H 0.11806 0.56453 0.21057 0.0
H512 H 0.24174 0.50631 0.13053 0.0
H513 H 0.06886 0.47368 0.19383 0.0
H514 H 0.1619 0.5482 0.17711 0.0
H515 H 0.12873 0.47002 0.11143 0.0
C516 C 0.17641 0.47277 0.09268 0.0
C517 C 0.20855 0.48302 0.09767 0.0
C518 C 0.14169 0.53173 0.1812 0.0
C519 C 0.16307 0.49361 0.14305 0.0
C520 C 0.1168 0.541 0.20016 0.0
C521 C 0.09007 0.52032 0.20484 0.0
C522 C 0.13914 0.50209 0.16615 0.0
C523 C 0.08931 0.49012 0.19086 0.0
C524 C 0.15362 0.47763 0.11559 0.0
C525 C 0.21716 0.49797 0.1259 0.0
N526 N 0.11329 0.48206 0.17153 0.0
N527 N 0.1944 0.50328 0.14742 0.0
H528 H 0.84348 0.87673 0.48432 0.0
H529 H 0.03489 0.87797 0.50339 0.0
H530 H 0.9018 0.96216 0.50188 0.0
H531 H 0.97385 0.79566 0.52465 0.0
H532 H 0.98688 0.90851 0.49424 0.0
H533 H 0.89222 0.84545 0.48852 0.0
C534 C 0.86666 0.88889 0.48818 0.0
C535 C 0.86887 0.92191 0.49274 0.0
C536 C 0.98402 0.88381 0.5011 0.0
C537 C 0.92407 0.88669 0.49796 0.0
C538 C 0.01137 0.86645 0.50649 0.0
C539 C 0.00831 0.83434 0.51502 0.0
C540 C 0.9534 0.86881 0.50371 0.0
C541 C 0.97725 0.82049 0.51849 0.0
C542 C 0.89428 0.8711 0.49102 0.0
C543 C 0.89925 0.93666 0.49826 0.0
N544 N 0.95092 0.83776 0.51255 0.0
N545 N 0.92568 0.91895 0.50079 0.0
H546 H 0.90871 0.1741 0.41755 0.0
H547 H 0.79827 0.08488 0.54001 0.0
H548 H 0.90347 0.20093 0.51415 0.0
H549 H 0.80363 0.05745 0.44361 0.0
H550 H 0.82574 0.13553 0.52788 0.0
H551 H 0.86048 0.13985 0.42366 0.0
C552 C 0.89713 0.1732 0.43995 0.0
C553 C 0.91064 0.1898 0.46559 0.0
C554 C 0.82037 0.11873 0.50923 0.0
C555 C 0.85551 0.15039 0.47278 0.0
C556 C 0.80461 0.08979 0.51614 0.0
C557 C 0.79944 0.06655 0.49293 0.0
C558 C 0.83142 0.12429 0.47899 0.0
C559 C 0.80762 0.07445 0.46234 0.0
C560 C 0.86953 0.15364 0.4434 0.0
C561 C 0.89425 0.18814 0.49387 0.0
N562 N 0.82388 0.1024 0.45637 0.0
N563 N 0.86788 0.16828 0.49685 0.0
H564 H 0.14771 0.7921 0.59616 0.0
H565 H 0.28105 0.91568 0.54439 0.0
H566 H 0.19836 0.78772 0.50951 0.0
H567 H 0.23517 0.91674 0.63381 0.0
H568 H 0.26314 0.86007 0.53788 0.0
H569 H 0.19134 0.8267 0.61727 0.0
C570 C 0.16859 0.79742 0.58198 0.0
C571 C 0.16898 0.78808 0.55073 0.0
C572 C 0.25751 0.87225 0.55923 0.0
C573 C 0.21837 0.8282 0.57427 0.0
C574 C 0.26768 0.90409 0.56289 0.0
C575 C 0.25864 0.92121 0.58919 0.0
C576 C 0.23773 0.85765 0.58178 0.0
C577 C 0.24193 0.90473 0.61273 0.0
C578 C 0.19342 0.81742 0.59392 0.0
C579 C 0.19673 0.79534 0.53346 0.0
N580 N 0.23137 0.87409 0.60815 0.0
N581 N 0.21993 0.81571 0.54517 0.0
H582 H 0.08913 0.1562 0.45323 0.0
H583 H 0.17176 0.08013 0.60167 0.0
H584 H 0.06773 0.18403 0.54715 0.0
H585 H 0.20829 0.07067 0.50875 0.0
H586 H 0.13077 0.11495 0.58193 0.0
H587 H 0.13038 0.12188 0.4731 0.0
C588 C 0.09311 0.15513 0.47808 0.0
C589 C 0.07486 0.17299 0.4986 0.0
C590 C 0.14777 0.10528 0.56587 0.0
C591 C 0.12209 0.13352 0.52146 0.0
C592 C 0.17111 0.08525 0.57707 0.0
C593 C 0.19355 0.07243 0.55681 0.0
C594 C 0.14661 0.11238 0.53414 0.0
C595 C 0.19153 0.08003 0.52521 0.0
C596 C 0.11675 0.13555 0.48938 0.0
C597 C 0.08125 0.17072 0.53052 0.0
N598 N 0.16842 0.09947 0.51483 0.0
N599 N 0.10426 0.15118 0.541 0.0
loop_
_geom_bond_atom_site_label_1
_geom_bond_atom_site_label_2
_geom_bond_distance
_geom_bond_site_symmetry_2
_ccdc_geom_bond_type
Zn0 O3 2.031 . S
Zn0 O5 2.049 . S
Zn0 O10 2.067 1_455 S
Zn1 O2 1.962 . S
Zn1 O4 1.986 . S
Zn1 O6 1.996 . S
Zn1 O9 1.943 1_455 S
O2 Zn1 1.962 . S
O2 C7 1.254 . S
O3 Zn0 2.031 . S
O3 C7 1.269 . S
O4 Zn1 1.986 . S
O4 C11 1.262 . S
O5 Zn0 2.049 . S
O5 C13 1.260 . S
O6 Zn1 1.996 . S
O6 C13 1.257 . S
C7 O2 1.254 . S
C7 O3 1.269 . S
C8 O9 1.249 . S
C8 O10 1.270 . S
O9 Zn1 1.943 1_655 S
O9 C8 1.249 . S
O10 Zn0 2.067 1_655 S
O10 C8 1.270 . S
C11 O4 1.262 . S
C11 O12 1.232 . S
O12 C11 1.232 . S
C13 O5 1.260 . S
C13 O6 1.257 . S
Zn14 O17 2.031 1_545 S
Zn14 O19 2.049 . S
Zn14 O24 2.067 . S
Zn15 O16 1.962 1_545 S
Zn15 O18 1.986 . S
Zn15 O20 1.996 . S
Zn15 O23 1.943 . S
O16 Zn15 1.962 1_565 S
O16 C21 1.254 . S
O17 Zn14 2.031 1_565 S
O17 C21 1.269 . S
O18 Zn15 1.986 . S
O18 C25 1.262 . S
O19 Zn14 2.049 . S
O19 C27 1.260 . S
O20 Zn15 1.996 . S
O20 C27 1.257 . S
C21 O16 1.254 . S
C21 O17 1.269 . S
C22 O23 1.249 . S
C22 O24 1.270 . S
O23 Zn15 1.943 . S
O23 C22 1.249 . S
O24 Zn14 2.067 . S
O24 C22 1.270 . S
C25 O18 1.262 . S
C25 O26 1.232 . S
O26 C25 1.232 . S
C27 O19 1.260 . S
C27 O20 1.257 . S
Zn28 O31 2.031 1_455 S
Zn28 O33 2.049 . S
Zn28 O38 2.067 . S
Zn29 O30 1.962 1_455 S
Zn29 O32 1.986 . S
Zn29 O34 1.996 . S
Zn29 O37 1.943 . S
O30 Zn29 1.962 1_655 S
O30 C35 1.254 . S
O31 Zn28 2.031 1_655 S
O31 C35 1.269 . S
O32 Zn29 1.986 . S
O32 C39 1.262 . S
O33 Zn28 2.049 . S
O33 C41 1.260 . S
O34 Zn29 1.996 . S
O34 C41 1.257 . S
C35 O30 1.254 . S
C35 O31 1.269 . S
C36 O37 1.249 . S
C36 O38 1.270 . S
O37 Zn29 1.943 . S
O37 C36 1.249 . S
O38 Zn28 2.067 . S
O38 C36 1.270 . S
C39 O32 1.262 . S
C39 O40 1.232 . S
O40 C39 1.232 . S
C41 O33 1.260 . S
C41 O34 1.257 . S
Zn42 O45 2.031 . S
Zn42 O47 2.049 . S
Zn42 O52 2.067 1_545 S
Zn43 O44 1.962 . S
Zn43 O46 1.986 . S
Zn43 O48 1.996 . S
Zn43 O51 1.943 1_545 S
O44 Zn43 1.962 . S
O44 C49 1.254 . S
O45 Zn42 2.031 . S
O45 C49 1.269 . S
O46 Zn43 1.986 . S
O46 C53 1.262 . S
O47 Zn42 2.049 . S
O47 C55 1.260 . S
O48 Zn43 1.996 . S
O48 C55 1.257 . S
C49 O44 1.254 . S
C49 O45 1.269 . S
C50 O51 1.249 . S
C50 O52 1.270 . S
O51 Zn43 1.943 1_565 S
O51 C50 1.249 . S
O52 Zn42 2.067 1_565 S
O52 C50 1.270 . S
C53 O46 1.262 . S
C53 O54 1.232 . S
O54 C53 1.232 . S
C55 O47 1.260 . S
C55 O48 1.257 . S
Zn56 O59 2.031 . S
Zn56 O61 2.049 . S
Zn56 O66 2.067 . S
Zn57 O58 1.962 1_545 S
Zn57 O60 1.986 1_545 S
Zn57 O62 1.996 . S
Zn57 O65 1.943 . S
O58 Zn57 1.962 1_565 S
O58 C63 1.254 1_565 S
O59 Zn56 2.031 . S
O59 C63 1.269 . S
O60 Zn57 1.986 1_565 S
O60 C67 1.262 . S
O61 Zn56 2.049 . S
O61 C69 1.260 . S
O62 Zn57 1.996 . S
O62 C69 1.257 . S
C63 O58 1.254 1_545 S
C63 O59 1.269 . S
C64 O65 1.249 . S
C64 O66 1.270 . S
O65 Zn57 1.943 . S
O65 C64 1.249 . S
O66 Zn56 2.067 . S
O66 C64 1.270 . S
C67 O60 1.262 . S
C67 O68 1.232 . S
O68 C67 1.232 . S
C69 O61 1.260 . S
C69 O62 1.257 . S
Zn70 O73 2.031 . S
Zn70 O75 2.049 . S
Zn70 O80 2.067 1_455 S
Zn71 O72 1.962 . S
Zn71 O74 1.986 . S
Zn71 O76 1.996 . S
Zn71 O79 1.943 1_455 S
O72 Zn71 1.962 . S
O72 C77 1.254 . S
O73 Zn70 2.031 . S
O73 C77 1.269 . S
O74 Zn71 1.986 . S
O74 C81 1.262 . S
O75 Zn70 2.049 . S
O75 C83 1.260 . S
O76 Zn71 1.996 . S
O76 C83 1.257 . S
C77 O72 1.254 . S
C77 O73 1.269 . S
C78 O79 1.249 . S
C78 O80 1.270 . S
O79 Zn71 1.943 1_655 S
O79 C78 1.249 . S
O80 Zn70 2.067 1_655 S
O80 C78 1.270 . S
C81 O74 1.262 . S
C81 O82 1.232 . S
O82 C81 1.232 . S
C83 O75 1.260 . S
C83 O76 1.257 . S
Zn84 O87 2.031 . S
Zn84 O89 2.049 . S
Zn84 O94 2.067 . S
Zn85 O86 1.963 . S
Zn85 O88 2.000 . S
Zn85 O90 1.967 1_565 S
Zn85 O93 1.943 . S
O86 Zn85 1.963 . S
O86 C91 1.254 1_565 S
O87 Zn84 2.031 . S
O87 C91 1.269 . S
O88 Zn85 2.000 . S
O88 C95 1.262 . S
O89 Zn84 2.049 . S
O89 C97 1.260 . S
O90 Zn85 1.967 1_545 S
O90 C97 1.257 . S
C91 O86 1.254 1_545 S
C91 O87 1.269 . S
C92 O93 1.249 1_545 S
C92 O94 1.270 . S
O93 Zn85 1.943 . S
O93 C92 1.249 1_565 S
O94 Zn84 2.067 . S
O94 C92 1.270 . S
C95 O88 1.262 . S
C95 O96 1.232 . S
O96 C95 1.232 . S
C97 O89 1.260 . S
C97 O90 1.257 . S
Zn98 O101 2.031 . S
Zn98 O103 2.049 . S
Zn98 O108 2.067 . S
Zn99 O100 1.962 . S
Zn99 O102 1.986 . S
Zn99 O104 1.996 1_455 S
Zn99 O107 1.943 . S
O100 Zn99 1.962 . S
O100 C105 1.254 . S
O101 Zn98 2.031 . S
O101 C105 1.269 1_655 S
O102 Zn99 1.986 . S
O102 C109 1.262 . S
O103 Zn98 2.049 . S
O103 C111 1.260 . S
O104 Zn99 1.996 1_655 S
O104 C111 1.257 . S
C105 O100 1.254 . S
C105 O101 1.269 1_455 S
C106 O107 1.249 . S
C106 O108 1.270 1_455 S
O107 Zn99 1.943 . S
O107 C106 1.249 . S
O108 Zn98 2.067 . S
O108 C106 1.270 1_655 S
C109 O102 1.262 . S
C109 O110 1.232 . S
O110 C109 1.232 . S
C111 O103 1.260 . S
C111 O104 1.257 . S
Zn112 O115 2.031 . S
Zn112 O117 2.049 . S
Zn112 O122 2.067 . S
Zn113 O114 1.962 . S
Zn113 O116 1.986 . S
Zn113 O118 1.996 1_556 S
Zn113 O121 1.943 . S
O114 Zn113 1.962 . S
O114 C119 1.254 1_556 S
O115 Zn112 2.031 . S
O115 C119 1.269 . S
O116 Zn113 1.986 . S
O116 C123 1.262 . S
O117 Zn112 2.049 . S
O117 C125 1.260 . S
O118 Zn113 1.996 1_554 S
O118 C125 1.257 . S
C119 O114 1.254 1_554 S
C119 O115 1.269 . S
C120 O121 1.249 1_554 S
C120 O122 1.270 . S
O121 Zn113 1.943 . S
O121 C120 1.249 1_556 S
O122 Zn112 2.067 . S
O122 C120 1.270 . S
C123 O116 1.262 . S
C123 O124 1.232 . S
O124 C123 1.232 . S
C125 O117 1.260 . S
C125 O118 1.257 . S
Zn126 O129 2.031 . S
Zn126 O131 2.049 . S
Zn126 O136 2.067 . S
Zn127 O128 1.962 . S
Zn127 O130 1.986 . S
Zn127 O132 1.996 1_554 S
Zn127 O135 1.943 . S
O128 Zn127 1.962 . S
O128 C133 1.254 . S
O129 Zn126 2.031 . S
O129 C133 1.269 1_556 S
O130 Zn127 1.986 . S
O130 C137 1.262 . S
O131 Zn126 2.049 . S
O131 C139 1.260 . S
O132 Zn127 1.996 1_556 S
O132 C139 1.257 . S
C133 O128 1.254 . S
C133 O129 1.269 1_554 S
C134 O135 1.249 1_556 S
C134 O136 1.270 . S
O135 Zn127 1.943 . S
O135 C134 1.249 1_554 S
O136 Zn126 2.067 . S
O136 C134 1.270 . S
C137 O130 1.262 . S
C137 O138 1.232 . S
O138 C137 1.232 . S
C139 O131 1.260 . S
C139 O132 1.257 . S
Zn140 O143 2.031 . S
Zn140 O145 2.049 . S
Zn140 O150 2.067 . S
Zn141 O142 1.962 . S
Zn141 O144 1.986 . S
Zn141 O146 1.996 1_556 S
Zn141 O149 1.943 . S
O142 Zn141 1.962 . S
O142 C147 1.254 1_556 S
O143 Zn140 2.031 . S
O143 C147 1.269 . S
O144 Zn141 1.986 . S
O144 C151 1.262 . S
O145 Zn140 2.049 . S
O145 C153 1.260 . S
O146 Zn141 1.996 1_554 S
O146 C153 1.257 . S
C147 O142 1.254 1_554 S
C147 O143 1.269 . S
C148 O149 1.249 1_554 S
C148 O150 1.270 . S
O149 Zn141 1.943 . S
O149 C148 1.249 1_556 S
O150 Zn140 2.067 . S
O150 C148 1.270 . S
C151 O144 1.262 . S
C151 O152 1.232 . S
O152 C151 1.232 . S
C153 O145 1.260 . S
C153 O146 1.257 . S
Zn154 O157 2.031 . S
Zn154 O159 2.049 . S
Zn154 O164 2.067 . S
Zn155 O156 1.962 . S
Zn155 O158 1.986 . S
Zn155 O160 1.996 1_554 S
Zn155 O163 1.943 . S
O156 Zn155 1.962 . S
O156 C161 1.254 . S
O157 Zn154 2.031 . S
O157 C161 1.269 1_556 S
O158 Zn155 1.986 . S
O158 C165 1.262 . S
O159 Zn154 2.049 . S
O159 C167 1.260 . S
O160 Zn155 1.996 1_556 S
O160 C167 1.257 . S
C161 O156 1.254 . S
C161 O157 1.269 1_554 S
C162 O163 1.249 1_556 S
C162 O164 1.270 . S
O163 Zn155 1.943 . S
O163 C162 1.249 1_554 S
O164 Zn154 2.067 . S
O164 C162 1.270 . S
C165 O158 1.262 . S
C165 O166 1.232 . S
O166 C165 1.232 . S
C167 O159 1.260 . S
C167 O160 1.257 . S
H168 C174 0.930 . S
H169 C178 0.930 . S
H170 C183 0.929 1_655 S
H171 C181 0.929 . S
H172 C176 0.929 . S
H173 C182 0.929 . S
C174 H168 0.930 . S
C174 C175 1.367 . S
C174 C182 1.378 . S
C175 C174 1.367 . S
C175 C183 1.433 . S
C176 H172 0.929 . S
C176 C178 1.378 . S
C176 C180 1.350 . S
C177 C180 1.463 . S
C177 C182 1.350 . S
C177 N185 1.427 . S
C178 H169 0.930 . S
C178 C176 1.378 . S
C178 C179 1.367 . S
C179 C178 1.367 . S
C179 C181 1.433 . S
C180 C176 1.350 . S
C180 C177 1.463 . S
C180 N184 1.427 . S
C181 H171 0.929 . S
C181 C179 1.433 . S
C181 N184 1.384 . S
C182 H173 0.929 . S
C182 C174 1.378 . S
C182 C177 1.350 . S
C183 H170 0.929 1_455 S
C183 C175 1.433 . S
C183 N185 1.384 . S
N184 C180 1.427 . S
N184 C181 1.384 . S
N185 C177 1.427 . S
N185 C183 1.384 . S
H186 C192 0.930 . S
H187 C196 0.930 . S
H188 C201 0.929 . S
H189 C199 0.929 . S
H190 C194 0.929 . S
H191 C200 0.929 . S
C192 H186 0.930 . S
C192 C193 1.367 . S
C192 C200 1.378 . S
C193 C192 1.367 . S
C193 C201 1.433 1_545 S
C194 H190 0.929 . S
C194 C196 1.378 . S
C194 C198 1.350 1_565 S
C195 C198 1.463 . S
C195 C200 1.350 . S
C195 N203 1.427 1_545 S
C196 H187 0.930 . S
C196 C194 1.378 . S
C196 C197 1.367 1_565 S
C197 C196 1.367 1_545 S
C197 C199 1.433 . S
C198 C194 1.350 1_545 S
C198 C195 1.463 . S
C198 N202 1.427 . S
C199 H189 0.929 . S
C199 C197 1.433 . S
C199 N202 1.384 . S
C200 H191 0.929 . S
C200 C192 1.378 . S
C200 C195 1.350 . S
C201 H188 0.929 . S
C201 C193 1.433 1_565 S
C201 N203 1.384 . S
N202 C198 1.427 . S
N202 C199 1.384 . S
N203 C195 1.427 1_565 S
N203 C201 1.384 . S
H204 C210 0.930 . S
H205 C214 0.930 . S
H206 C219 0.929 . S
H207 C217 0.929 . S
H208 C212 0.929 . S
H209 C218 0.929 . S
C210 H204 0.930 . S
C210 C211 1.367 . S
C210 C218 1.378 . S
C211 C210 1.367 . S
C211 C219 1.433 . S
C212 H208 0.929 . S
C212 C214 1.378 . S
C212 C216 1.350 . S
C213 C216 1.463 . S
C213 C218 1.350 . S
C213 N221 1.427 . S
C214 H205 0.930 . S
C214 C212 1.378 . S
C214 C215 1.367 . S
C215 C214 1.367 . S
C215 C217 1.433 . S
C216 C212 1.350 . S
C216 C213 1.463 . S
C216 N220 1.427 . S
C217 H207 0.929 . S
C217 C215 1.433 . S
C217 N220 1.384 . S
C218 H209 0.929 . S
C218 C210 1.378 . S
C218 C213 1.350 . S
C219 H206 0.929 . S
C219 C211 1.433 . S
C219 N221 1.384 . S
N220 C216 1.427 . S
N220 C217 1.384 . S
N221 C213 1.427 . S
N221 C219 1.384 . S
H222 C228 0.930 . S
H223 C232 0.930 . S
H224 C237 0.929 . S
H225 C235 0.929 . S
H226 C230 0.929 . S
H227 C236 0.929 . S
C228 H222 0.930 . S
C228 C229 1.367 . S
C228 C236 1.378 . S
C229 C228 1.367 . S
C229 C237 1.433 1_545 S
C230 H226 0.929 . S
C230 C232 1.378 . S
C230 C234 1.350 1_565 S
C231 C234 1.463 . S
C231 C236 1.350 . S
C231 N239 1.427 1_545 S
C232 H223 0.930 . S
C232 C230 1.378 . S
C232 C233 1.367 1_565 S
C233 C232 1.367 1_545 S
C233 C235 1.433 . S
C234 C230 1.350 1_545 S
C234 C231 1.463 . S
C234 N238 1.427 . S
C235 H225 0.929 . S
C235 C233 1.433 . S
C235 N238 1.384 . S
C236 H227 0.929 . S
C236 C228 1.378 . S
C236 C231 1.350 . S
C237 H224 0.929 . S
C237 C229 1.433 1_565 S
C237 N239 1.384 . S
N238 C234 1.427 . S
N238 C235 1.384 . S
N239 C231 1.427 1_565 S
N239 C237 1.384 . S
H240 C246 0.930 . S
H241 C250 0.930 . S
H242 C255 0.929 . S
H243 C253 0.929 . S
H244 C248 0.929 . S
H245 C254 0.929 . S
C246 H240 0.930 . S
C246 C247 1.367 . S
C246 C254 1.378 . S
C247 C246 1.367 . S
C247 C255 1.433 1_455 S
C248 H244 0.929 . S
C248 C250 1.378 . S
C248 C252 1.350 1_655 S
C249 C252 1.463 . S
C249 C254 1.350 . S
C249 N257 1.427 1_455 S
C250 H241 0.930 . S
C250 C248 1.378 . S
C250 C251 1.367 1_655 S
C251 C250 1.367 1_455 S
C251 C253 1.433 . S
C252 C248 1.350 1_455 S
C252 C249 1.463 . S
C252 N256 1.427 . S
C253 H243 0.929 . S
C253 C251 1.433 . S
C253 N256 1.384 . S
C254 H245 0.929 . S
C254 C246 1.378 . S
C254 C249 1.350 . S
C255 H242 0.929 . S
C255 C247 1.433 1_655 S
C255 N257 1.384 . S
N256 C252 1.427 . S
N256 C253 1.384 . S
N257 C249 1.427 1_655 S
N257 C255 1.384 . S
H258 C264 0.930 . S
H259 C268 0.930 . S
H260 C273 0.929 . S
H261 C271 0.929 . S
H262 C266 0.929 . S
H263 C272 0.929 . S
C264 H258 0.930 . S
C264 C265 1.367 . S
C264 C272 1.378 . S
C265 C264 1.367 . S
C265 C273 1.433 1_545 S
C266 H262 0.929 . S
C266 C268 1.378 . S
C266 C270 1.350 1_565 S
C267 C270 1.463 . S
C267 C272 1.350 . S
C267 N275 1.427 1_545 S
C268 H259 0.930 . S
C268 C266 1.378 . S
C268 C269 1.367 1_565 S
C269 C268 1.367 1_545 S
C269 C271 1.433 . S
C270 C266 1.350 1_545 S
C270 C267 1.463 . S
C270 N274 1.427 . S
C271 H261 0.929 . S
C271 C269 1.433 . S
C271 N274 1.384 . S
C272 H263 0.929 . S
C272 C264 1.378 . S
C272 C267 1.350 . S
C273 H260 0.929 . S
C273 C265 1.433 1_565 S
C273 N275 1.384 . S
N274 C270 1.427 . S
N274 C271 1.384 . S
N275 C267 1.427 1_565 S
N275 C273 1.384 . S
H276 C282 0.930 . S
H277 C286 0.930 . S
H278 C291 0.929 . S
H279 C289 0.929 . S
H280 C284 0.929 . S
H281 C290 0.929 . S
C282 H276 0.930 . S
C282 C283 1.367 1_655 S
C282 C290 1.378 . S
C283 C282 1.367 1_455 S
C283 C291 1.433 . S
C284 H280 0.929 . S
C284 C286 1.378 . S
C284 C288 1.350 . S
C285 C288 1.463 . S
C285 C290 1.350 1_455 S
C285 N293 1.427 . S
C286 H277 0.930 . S
C286 C284 1.378 . S
C286 C287 1.367 . S
C287 C286 1.367 . S
C287 C289 1.433 1_455 S
C288 C284 1.350 . S
C288 C285 1.463 . S
C288 N292 1.427 1_455 S
C289 H279 0.929 . S
C289 C287 1.433 1_655 S
C289 N292 1.384 . S
C290 H281 0.929 . S
C290 C282 1.378 . S
C290 C285 1.350 1_655 S
C291 H278 0.929 . S
C291 C283 1.433 . S
C291 N293 1.384 . S
N292 C288 1.427 1_655 S
N292 C289 1.384 . S
N293 C285 1.427 . S
N293 C291 1.384 . S
H294 C300 0.930 . S
H295 C304 0.930 . S
H296 C309 0.929 . S
H297 C307 0.929 . S
H298 C302 0.929 . S
H299 C308 0.929 . S
C300 H294 0.930 . S
C300 C301 1.367 . S
C300 C308 1.378 . S
C301 C300 1.367 . S
C301 C309 1.433 1_545 S
C302 H298 0.929 . S
C302 C304 1.378 . S
C302 C306 1.350 1_565 S
C303 C306 1.463 . S
C303 C308 1.350 . S
C303 N311 1.427 1_545 S
C304 H295 0.930 . S
C304 C302 1.378 . S
C304 C305 1.367 1_565 S
C305 C304 1.367 1_545 S
C305 C307 1.433 . S
C306 C302 1.350 1_545 S
C306 C303 1.463 . S
C306 N310 1.427 . S
C307 H297 0.929 . S
C307 C305 1.433 . S
C307 N310 1.384 . S
C308 H299 0.929 . S
C308 C300 1.378 . S
C308 C303 1.350 . S
C309 H296 0.929 . S
C309 C301 1.433 1_565 S
C309 N311 1.384 . S
N310 C306 1.427 . S
N310 C307 1.384 . S
N311 C303 1.427 1_565 S
N311 C309 1.384 . S
H312 C318 0.930 . S
H313 C322 0.930 . S
H314 C327 0.929 . S
H315 C325 0.929 . S
H316 C320 0.929 . S
H317 C326 0.929 . S
C318 H312 0.930 . S
C318 C319 1.367 1_556 S
C318 C326 1.378 . S
C319 C318 1.367 1_554 S
C319 C327 1.433 . S
C320 H316 0.929 . S
C320 C322 1.378 . S
C320 C324 1.350 . S
C321 C324 1.463 . S
C321 C326 1.350 1_554 S
C321 N329 1.427 . S
C322 H313 0.930 . S
C322 C320 1.378 . S
C322 C323 1.367 . S
C323 C322 1.367 . S
C323 C325 1.433 1_554 S
C324 C320 1.350 . S
C324 C321 1.463 . S
C324 N328 1.427 1_554 S
C325 H315 0.929 . S
C325 C323 1.433 1_556 S
C325 N328 1.384 . S
C326 H317 0.929 . S
C326 C318 1.378 . S
C326 C321 1.350 1_556 S
C327 H314 0.929 . S
C327 C319 1.433 . S
C327 N329 1.384 . S
N328 C324 1.427 1_556 S
N328 C325 1.384 . S
N329 C321 1.427 . S
N329 C327 1.384 . S
H330 C336 0.930 . S
H331 C340 0.930 . S
H332 C345 0.929 . S
H333 C343 0.929 . S
H334 C338 0.929 . S
H335 C344 0.929 . S
C336 H330 0.930 . S
C336 C337 1.367 . S
C336 C344 1.378 . S
C337 C336 1.367 . S
C337 C345 1.433 1_554 S
C338 H334 0.929 . S
C338 C340 1.378 . S
C338 C342 1.350 1_556 S
C339 C342 1.463 . S
C339 C344 1.350 . S
C339 N347 1.427 1_554 S
C340 H331 0.930 . S
C340 C338 1.378 . S
C340 C341 1.367 1_556 S
C341 C340 1.367 1_554 S
C341 C343 1.433 . S
C342 C338 1.350 1_554 S
C342 C339 1.463 . S
C342 N346 1.427 . S
C343 H333 0.929 . S
C343 C341 1.433 . S
C343 N346 1.384 . S
C344 H335 0.929 . S
C344 C336 1.378 . S
C344 C339 1.350 . S
C345 H332 0.929 . S
C345 C337 1.433 1_556 S
C345 N347 1.384 . S
N346 C342 1.427 . S
N346 C343 1.384 . S
N347 C339 1.427 1_556 S
N347 C345 1.384 . S
H348 C354 0.930 . S
H349 C358 0.930 . S
H350 C363 0.929 . S
H351 C361 0.929 . S
H352 C356 0.929 . S
H353 C362 0.929 . S
C354 H348 0.930 . S
C354 C355 1.367 . S
C354 C362 1.378 . S
C355 C354 1.367 . S
C355 C363 1.433 1_554 S
C356 H352 0.929 . S
C356 C358 1.378 . S
C356 C360 1.350 1_556 S
C357 C360 1.463 . S
C357 C362 1.350 . S
C357 N365 1.427 1_554 S
C358 H349 0.930 . S
C358 C356 1.378 . S
C358 C359 1.367 1_556 S
C359 C358 1.367 1_554 S
C359 C361 1.433 . S
C360 C356 1.350 1_554 S
C360 C357 1.463 . S
C360 N364 1.427 . S
C361 H351 0.929 . S
C361 C359 1.433 . S
C361 N364 1.384 . S
C362 H353 0.929 . S
C362 C354 1.378 . S
C362 C357 1.350 . S
C363 H350 0.929 . S
C363 C355 1.433 1_556 S
C363 N365 1.384 . S
N364 C360 1.427 . S
N364 C361 1.384 . S
N365 C357 1.427 1_556 S
N365 C363 1.384 . S
H366 C372 0.930 . S
H367 C376 0.930 . S
H368 C381 0.929 . S
H369 C379 0.929 . S
H370 C374 0.929 . S
H371 C380 0.929 . S
C372 H366 0.930 . S
C372 C373 1.367 1_556 S
C372 C380 1.378 . S
C373 C372 1.367 1_554 S
C373 C381 1.433 . S
C374 H370 0.929 . S
C374 C376 1.378 . S
C374 C378 1.350 . S
C375 C378 1.463 . S
C375 C380 1.350 1_554 S
C375 N383 1.427 . S
C376 H367 0.930 . S
C376 C374 1.378 . S
C376 C377 1.367 . S
C377 C376 1.367 . S
C377 C379 1.433 1_554 S
C378 C374 1.350 . S
C378 C375 1.463 . S
C378 N382 1.427 1_554 S
C379 H369 0.929 . S
C379 C377 1.433 1_556 S
C379 N382 1.384 . S
C380 H371 0.929 . S
C380 C372 1.378 . S
C380 C375 1.350 1_556 S
C381 H368 0.929 . S
C381 C373 1.433 . S
C381 N383 1.384 . S
N382 C378 1.427 1_556 S
N382 C379 1.384 . S
N383 C375 1.427 . S
N383 C381 1.384 . S
H384 C390 0.930 . S
H385 C394 0.930 . S
H386 C399 0.929 . S
H387 C397 0.929 . S
H388 C392 0.929 . S
H389 C398 0.929 . S
C390 H384 0.930 . S
C390 C391 1.367 . S
C390 C398 1.378 . S
C391 C390 1.367 . S
C391 C399 1.433 . S
C392 H388 0.929 . S
C392 C394 1.378 . S
C392 C396 1.350 . S
C393 C396 1.463 . S
C393 C398 1.350 . S
C393 N401 1.427 . S
C394 H385 0.930 . S
C394 C392 1.378 . S
C394 C395 1.367 . S
C395 C394 1.367 . S
C395 C397 1.433 . S
C396 C392 1.350 . S
C396 C393 1.463 . S
C396 N400 1.427 . S
C397 H387 0.929 . S
C397 C395 1.433 . S
C397 N400 1.384 . S
C398 H389 0.929 . S
C398 C390 1.378 . S
C398 C393 1.350 . S
C399 H386 0.929 . S
C399 C391 1.433 . S
C399 N401 1.384 . S
N400 C396 1.427 . S
N400 C397 1.384 . S
N401 C393 1.427 . S
N401 C399 1.384 . S
H402 C408 0.930 . S
H403 C412 0.930 . S
H404 C417 0.929 . S
H405 C415 0.929 . S
H406 C410 0.929 . S
H407 C416 0.929 . S
C408 H402 0.930 . S
C408 C409 1.367 . S
C408 C416 1.378 . S
C409 C408 1.367 . S
C409 C417 1.433 . S
C410 H406 0.929 . S
C410 C412 1.378 . S
C410 C414 1.350 . S
C411 C414 1.463 . S
C411 C416 1.350 . S
C411 N419 1.427 . S
C412 H403 0.930 . S
C412 C410 1.378 . S
C412 C413 1.367 . S
C413 C412 1.367 . S
C413 C415 1.433 . S
C414 C410 1.350 . S
C414 C411 1.463 . S
C414 N418 1.427 . S
C415 H405 0.929 . S
C415 C413 1.433 . S
C415 N418 1.384 . S
C416 H407 0.929 . S
C416 C408 1.378 . S
C416 C411 1.350 . S
C417 H404 0.929 . S
C417 C409 1.433 . S
C417 N419 1.384 . S
N418 C414 1.427 . S
N418 C415 1.384 . S
N419 C411 1.427 . S
N419 C417 1.384 . S
H420 C426 0.930 . S
H421 C430 0.930 . S
H422 C435 0.929 . S
H423 C433 0.929 . S
H424 C428 0.929 . S
H425 C434 0.929 . S
C426 H420 0.930 . S
C426 C427 1.367 . S
C426 C434 1.378 . S
C427 C426 1.367 . S
C427 C435 1.433 . S
C428 H424 0.929 . S
C428 C430 1.378 . S
C428 C432 1.350 . S
C429 C432 1.463 . S
C429 C434 1.350 . S
C429 N437 1.427 . S
C430 H421 0.930 . S
C430 C428 1.378 . S
C430 C431 1.367 . S
C431 C430 1.367 . S
C431 C433 1.433 . S
C432 C428 1.350 . S
C432 C429 1.463 . S
C432 N436 1.427 . S
C433 H423 0.929 . S
C433 C431 1.433 . S
C433 N436 1.384 . S
C434 H425 0.929 . S
C434 C426 1.378 . S
C434 C429 1.350 . S
C435 H422 0.929 . S
C435 C427 1.433 . S
C435 N437 1.384 . S
N436 C432 1.427 . S
N436 C433 1.384 . S
N437 C429 1.427 . S
N437 C435 1.384 . S
H438 C444 0.930 . S
H439 C448 0.930 . S
H440 C453 0.929 . S
H441 C451 0.929 . S
H442 C446 0.929 . S
H443 C452 0.929 . S
C444 H438 0.930 . S
C444 C445 1.367 . S
C444 C452 1.378 . S
C445 C444 1.367 . S
C445 C453 1.433 . S
C446 H442 0.929 . S
C446 C448 1.378 . S
C446 C450 1.350 . S
C447 C450 1.463 . S
C447 C452 1.350 . S
C447 N455 1.427 . S
C448 H439 0.930 . S
C448 C446 1.378 . S
C448 C449 1.367 . S
C449 C448 1.367 . S
C449 C451 1.433 . S
C450 C446 1.350 . S
C450 C447 1.463 . S
C450 N454 1.427 . S
C451 H441 0.929 . S
C451 C449 1.433 . S
C451 N454 1.384 . S
C452 H443 0.929 . S
C452 C444 1.378 . S
C452 C447 1.350 . S
C453 H440 0.929 . S
C453 C445 1.433 . S
C453 N455 1.384 . S
N454 C450 1.427 . S
N454 C451 1.384 . S
N455 C447 1.427 . S
N455 C453 1.384 . S
H456 C462 0.930 . S
H457 C466 0.930 . S
H458 C471 0.929 . S
H459 C469 0.929 . S
H460 C464 0.929 . S
H461 C470 0.929 . S
C462 H456 0.930 . S
C462 C463 1.367 . S
C462 C470 1.378 . S
C463 C462 1.367 . S
C463 C471 1.433 . S
C464 H460 0.929 . S
C464 C466 1.378 . S
C464 C468 1.350 . S
C465 C468 1.463 . S
C465 C470 1.350 . S
C465 N473 1.427 . S
C466 H457 0.930 . S
C466 C464 1.378 . S
C466 C467 1.367 . S
C467 C466 1.367 . S
C467 C469 1.433 . S
C468 C464 1.350 . S
C468 C465 1.463 . S
C468 N472 1.427 . S
C469 H459 0.929 . S
C469 C467 1.433 . S
C469 N472 1.384 . S
C470 H461 0.929 . S
C470 C462 1.378 . S
C470 C465 1.350 . S
C471 H458 0.929 . S
C471 C463 1.433 . S
C471 N473 1.384 . S
N472 C468 1.427 . S
N472 C469 1.384 . S
N473 C465 1.427 . S
N473 C471 1.384 . S
H474 C480 0.930 . S
H475 C484 0.930 . S
H476 C489 0.929 . S
H477 C487 0.929 . S
H478 C482 0.929 . S
H479 C488 0.929 . S
C480 H474 0.930 . S
C480 C481 1.367 . S
C480 C488 1.378 . S
C481 C480 1.367 . S
C481 C489 1.433 . S
C482 H478 0.929 . S
C482 C484 1.378 . S
C482 C486 1.350 . S
C483 C486 1.463 . S
C483 C488 1.350 . S
C483 N491 1.427 . S
C484 H475 0.930 . S
C484 C482 1.378 . S
C484 C485 1.367 . S
C485 C484 1.367 . S
C485 C487 1.433 . S
C486 C482 1.350 . S
C486 C483 1.463 . S
C486 N490 1.427 . S
C487 H477 0.929 . S
C487 C485 1.433 . S
C487 N490 1.384 . S
C488 H479 0.929 . S
C488 C480 1.378 . S
C488 C483 1.350 . S
C489 H476 0.929 . S
C489 C481 1.433 . S
C489 N491 1.384 . S
N490 C486 1.427 . S
N490 C487 1.384 . S
N491 C483 1.427 . S
N491 C489 1.384 . S
H492 C498 0.930 . S
H493 C502 0.930 . S
H494 C507 0.929 . S
H495 C505 0.929 . S
H496 C500 0.929 . S
H497 C506 0.929 . S
C498 H492 0.930 . S
C498 C499 1.367 . S
C498 C506 1.378 . S
C499 C498 1.367 . S
C499 C507 1.433 . S
C500 H496 0.929 . S
C500 C502 1.378 . S
C500 C504 1.350 . S
C501 C504 1.463 . S
C501 C506 1.350 . S
C501 N509 1.427 . S
C502 H493 0.930 . S
C502 C500 1.378 . S
C502 C503 1.367 . S
C503 C502 1.367 . S
C503 C505 1.433 . S
C504 C500 1.350 . S
C504 C501 1.463 . S
C504 N508 1.427 . S
C505 H495 0.929 . S
C505 C503 1.433 . S
C505 N508 1.384 . S
C506 H497 0.929 . S
C506 C498 1.378 . S
C506 C501 1.350 . S
C507 H494 0.929 . S
C507 C499 1.433 . S
C507 N509 1.384 . S
N508 C504 1.427 . S
N508 C505 1.384 . S
N509 C501 1.427 . S
N509 C507 1.384 . S
H510 C516 0.930 . S
H511 C520 0.930 . S
H512 C525 0.929 . S
H513 C523 0.929 . S
H514 C518 0.929 . S
H515 C524 0.929 . S
C516 H510 0.930 . S
C516 C517 1.367 . S
C516 C524 1.378 . S
C517 C516 1.367 . S
C517 C525 1.433 . S
C518 H514 0.929 . S
C518 C520 1.378 . S
C518 C522 1.350 . S
C519 C522 1.463 . S
C519 C524 1.350 . S
C519 N527 1.427 . S
C520 H511 0.930 . S
C520 C518 1.378 . S
C520 C521 1.367 . S
C521 C520 1.367 . S
C521 C523 1.433 . S
C522 C518 1.350 . S
C522 C519 1.463 . S
C522 N526 1.427 . S
C523 H513 0.929 . S
C523 C521 1.433 . S
C523 N526 1.384 . S
C524 H515 0.929 . S
C524 C516 1.378 . S
C524 C519 1.350 . S
C525 H512 0.929 . S
C525 C517 1.433 . S
C525 N527 1.384 . S
N526 C522 1.427 . S
N526 C523 1.384 . S
N527 C519 1.427 . S
N527 C525 1.384 . S
H528 C534 0.930 . S
H529 C538 0.930 . S
H530 C543 0.929 . S
H531 C541 0.929 . S
H532 C536 0.929 . S
H533 C542 0.929 . S
C534 H528 0.930 . S
C534 C535 1.367 . S
C534 C542 1.378 . S
C535 C534 1.367 . S
C535 C543 1.433 . S
C536 H532 0.929 . S
C536 C538 1.378 . S
C536 C540 1.350 . S
C537 C540 1.463 . S
C537 C542 1.350 . S
C537 N545 1.427 . S
C538 H529 0.930 . S
C538 C536 1.378 . S
C538 C539 1.367 . S
C539 C538 1.367 . S
C539 C541 1.433 . S
C540 C536 1.350 . S
C540 C537 1.463 . S
C540 N544 1.427 . S
C541 H531 0.929 . S
C541 C539 1.433 . S
C541 N544 1.384 . S
C542 H533 0.929 . S
C542 C534 1.378 . S
C542 C537 1.350 . S
C543 H530 0.929 . S
C543 C535 1.433 . S
C543 N545 1.384 . S
N544 C540 1.427 . S
N544 C541 1.384 . S
N545 C537 1.427 . S
N545 C543 1.384 . S
H546 C552 0.930 . S
H547 C556 0.930 . S
H548 C561 0.929 . S
H549 C559 0.929 . S
H550 C554 0.929 . S
H551 C560 0.929 . S
C552 H546 0.930 . S
C552 C553 1.367 . S
C552 C560 1.378 . S
C553 C552 1.367 . S
C553 C561 1.433 . S
C554 H550 0.929 . S
C554 C556 1.378 . S
C554 C558 1.350 . S
C555 C558 1.463 . S
C555 C560 1.350 . S
C555 N563 1.427 . S
C556 H547 0.930 . S
C556 C554 1.378 . S
C556 C557 1.367 . S
C557 C556 1.367 . S
C557 C559 1.433 . S
C558 C554 1.350 . S
C558 C555 1.463 . S
C558 N562 1.427 . S
C559 H549 0.929 . S
C559 C557 1.433 . S
C559 N562 1.384 . S
C560 H551 0.929 . S
C560 C552 1.378 . S
C560 C555 1.350 . S
C561 H548 0.929 . S
C561 C553 1.433 . S
C561 N563 1.384 . S
N562 C558 1.427 . S
N562 C559 1.384 . S
N563 C555 1.427 . S
N563 C561 1.384 . S
H564 C570 0.930 . S
H565 C574 0.930 . S
H566 C579 0.929 . S
H567 C577 0.929 . S
H568 C572 0.929 . S
H569 C578 0.929 . S
C570 H564 0.930 . S
C570 C571 1.367 . S
C570 C578 1.378 . S
C571 C570 1.367 . S
C571 C579 1.433 . S
C572 H568 0.929 . S
C572 C574 1.378 . S
C572 C576 1.350 . S
C573 C576 1.463 . S
C573 C578 1.350 . S
C573 N581 1.427 . S
C574 H565 0.930 . S
C574 C572 1.378 . S
C574 C575 1.367 . S
C575 C574 1.367 . S
C575 C577 1.433 . S
C576 C572 1.350 . S
C576 C573 1.463 . S
C576 N580 1.427 . S
C577 H567 0.929 . S
C577 C575 1.433 . S
C577 N580 1.384 . S
C578 H569 0.929 . S
C578 C570 1.378 . S
C578 C573 1.350 . S
C579 H566 0.929 . S
C579 C571 1.433 . S
C579 N581 1.384 . S
N580 C576 1.427 . S
N580 C577 1.384 . S
N581 C573 1.427 . S
N581 C579 1.384 . S
H582 C588 0.930 . S
H583 C592 0.930 . S
H584 C597 0.929 . S
H585 C595 0.929 . S
H586 C590 0.929 . S
H587 C596 0.929 . S
C588 H582 0.930 . S
C588 C589 1.367 . S
C588 C596 1.378 . S
C589 C588 1.367 . S
C589 C597 1.433 . S
C590 H586 0.929 . S
C590 C592 1.378 . S
C590 C594 1.350 . S
C591 C594 1.463 . S
C591 C596 1.350 . S
C591 N599 1.427 . S
C592 H583 0.930 . S
C592 C590 1.378 . S
C592 C593 1.367 . S
C593 C592 1.367 . S
C593 C595 1.433 . S
C594 C590 1.350 . S
C594 C591 1.463 . S
C594 N598 1.427 . S
C595 H585 0.929 . S
C595 C593 1.433 . S
C595 N598 1.384 . S
C596 H587 0.929 . S
C596 C588 1.378 . S
C596 C591 1.350 . S
C597 H584 0.929 . S
C597 C589 1.433 . S
C597 N599 1.384 . S
N598 C594 1.427 . S
N598 C595 1.384 . S
N599 C591 1.427 . S
N599 C597 1.384 . S
C175 C13 1.302 . S
C179 C81 1.373 . S
C193 C25 1.281 . S
C197 C64 1.267 . S
C211 C83 1.324 . S
C215 C41 1.306 . S
C229 C53 1.318 . S
C233 C63 1.311 . S
C247 C105 1.388 . S
C251 C39 1.394 . S
C265 C92 1.420 . S
C269 C55 1.396 . S
C283 C11 1.375 . S
C287 C106 1.361 . S
C301 C91 1.424 . S
C305 C27 1.370 . S
C319 C133 1.301 . S
C323 C119 1.297 . S
C337 C120 1.195 . S
C341 C162 1.195 1_554 S
C355 C134 1.260 1_554 S
C359 C148 1.260 . S
C373 C147 1.312 . S
C377 C161 1.311 . S
C391 C167 1.341 . S
C395 C95 1.388 . S
C409 C123 1.141 . S
C413 C109 1.141 . S
C427 C97 1.375 . S
C431 C139 1.390 . S
C445 C111 1.189 . S
C449 C151 1.233 . S
C463 C69 1.252 . S
C467 C137 1.304 . S
C481 C78 1.498 . S
C485 C153 1.463 . S
C499 C165 1.231 . S
C503 C67 1.232 . S
C517 C125 1.393 . S
C521 C77 1.439 . S
C535 C21 1.414 . S
C539 C35 1.413 . S
C553 C8 1.312 . S
C557 C22 1.311 . S
C571 C36 1.391 . S
C575 C50 1.391 . S
C589 C7 1.414 . S
C593 C49 1.416 . S
