# Generated by pormake.
# Topology upc, (4)-cn, num edge types: 1
# Building blocks:
#     Node 0, Type 0, BuildingBlock: NAWXER_clean_sbu_0, # of connection points: 4
#     Node 1, Type 0, BuildingBlock: NAWXER_clean_sbu_0, # of connection points: 4
#     Node 2, Type 0, BuildingBlock: NAWXER_clean_sbu_0, # of connection points: 4
#     Node 3, Type 0, BuildingBlock: NAWXER_clean_sbu_0, # of connection points: 4
#     Node 4, Type 0, BuildingBlock: NAWXER_clean_sbu_0, # of connection points: 4
#     Node 5, Type 0, BuildingBlock: NAWXER_clean_sbu_0, # of connection points: 4
#     Node 6, Type 0, BuildingBlock: NAWXER_clean_sbu_0, # of connection points: 4
#     Node 7, Type 0, BuildingBlock: NAWXER_clean_sbu_0, # of connection points: 4
#     Node 8, Type 0, BuildingBlock: NAWXER_clean_sbu_0, # of connection points: 4
#     Node 9, Type 0, BuildingBlock: NAWXER_clean_sbu_0, # of connection points: 4
#     Node 10, Type 0, BuildingBlock: NAWXER_clean_sbu_0, # of connection points: 4
#     Node 11, Type 0, BuildingBlock: NAWXER_clean_sbu_0, # of connection points: 4
#     Node 12, Type 0, BuildingBlock: NAWXER_clean_sbu_0, # of connection points: 4
#     Node 13, Type 0, BuildingBlock: NAWXER_clean_sbu_0, # of connection points: 4
#     Node 14, Type 0, BuildingBlock: NAWXER_clean_sbu_0, # of connection points: 4
#     Node 15, Type 0, BuildingBlock: NAWXER_clean_sbu_0, # of connection points: 4
#     Edge 16, Type (0, 0), BuildingBlock: OJICUG_clean_linker_0, # of connection points: 2
#     Edge 17, Type (0, 0), BuildingBlock: OJICUG_clean_linker_0, # of connection points: 2
#     Edge 18, Type (0, 0), BuildingBlock: OJICUG_clean_linker_0, # of connection points: 2
#     Edge 19, Type (0, 0), BuildingBlock: OJICUG_clean_linker_0, # of connection points: 2
#     Edge 20, Type (0, 0), BuildingBlock: OJICUG_clean_linker_0, # of connection points: 2
#     Edge 21, Type (0, 0), BuildingBlock: OJICUG_clean_linker_0, # of connection points: 2
#     Edge 22, Type (0, 0), BuildingBlock: OJICUG_clean_linker_0, # of connection points: 2
#     Edge 23, Type (0, 0), BuildingBlock: OJICUG_clean_linker_0, # of connection points: 2
#     Edge 24, Type (0, 0), BuildingBlock: OJICUG_clean_linker_0, # of connection points: 2
#     Edge 25, Type (0, 0), BuildingBlock: OJICUG_clean_linker_0, # of connection points: 2
#     Edge 26, Type (0, 0), BuildingBlock: OJICUG_clean_linker_0, # of connection points: 2
#     Edge 27, Type (0, 0), BuildingBlock: OJICUG_clean_linker_0, # of connection points: 2
#     Edge 28, Type (0, 0), BuildingBlock: OJICUG_clean_linker_0, # of connection points: 2
#     Edge 29, Type (0, 0), BuildingBlock: OJICUG_clean_linker_0, # of connection points: 2
#     Edge 30, Type (0, 0), BuildingBlock: OJICUG_clean_linker_0, # of connection points: 2
#     Edge 31, Type (0, 0), BuildingBlock: OJICUG_clean_linker_0, # of connection points: 2
#     Edge 32, Type (0, 0), BuildingBlock: OJICUG_clean_linker_0, # of connection points: 2
#     Edge 33, Type (0, 0), BuildingBlock: OJICUG_clean_linker_0, # of connection points: 2
#     Edge 34, Type (0, 0), BuildingBlock: OJICUG_clean_linker_0, # of connection points: 2
#     Edge 35, Type (0, 0), BuildingBlock: OJICUG_clean_linker_0, # of connection points: 2
#     Edge 36, Type (0, 0), BuildingBlock: OJICUG_clean_linker_0, # of connection points: 2
#     Edge 37, Type (0, 0), BuildingBlock: OJICUG_clean_linker_0, # of connection points: 2
#     Edge 38, Type (0, 0), BuildingBlock: OJICUG_clean_linker_0, # of connection points: 2
#     Edge 39, Type (0, 0), BuildingBlock: OJICUG_clean_linker_0, # of connection points: 2
#     Edge 40, Type (0, 0), BuildingBlock: OJICUG_clean_linker_0, # of connection points: 2
#     Edge 41, Type (0, 0), BuildingBlock: OJICUG_clean_linker_0, # of connection points: 2
#     Edge 42, Type (0, 0), BuildingBlock: OJICUG_clean_linker_0, # of connection points: 2
#     Edge 43, Type (0, 0), BuildingBlock: OJICUG_clean_linker_0, # of connection points: 2
#     Edge 44, Type (0, 0), BuildingBlock: OJICUG_clean_linker_0, # of connection points: 2
#     Edge 45, Type (0, 0), BuildingBlock: OJICUG_clean_linker_0, # of connection points: 2
#     Edge 46, Type (0, 0), BuildingBlock: OJICUG_clean_linker_0, # of connection points: 2
#     Edge 47, Type (0, 0), BuildingBlock: OJICUG_clean_linker_0, # of connection points: 2
# Relax obj value: 0.229
# Max RMSD: 0.220
# Mean RMSD: 0.220
data_MOF--net-upc--node1-NAWXER_clean_sbu_0--edge1-OJICUG_clean_linker_0
_symmetry_space_group_name_H-M    P1
_symmetry_Int_Tables_number       1
_symmetry_cell_setting            triclinic
loop_
_symmetry_equiv_pos_as_xyz
'x, y, z'
_cell_length_a     25.347525
_cell_length_b     25.345488
_cell_length_c     32.409184
_cell_angle_alpha  90.009798
_cell_angle_beta   90.018236
_cell_angle_gamma 90.020313
loop_
_atom_site_label
_atom_site_type_symbol
_atom_site_fract_x
_atom_site_fract_y
_atom_site_fract_z
_atom_type_partial_charge
C0 C 0.09515 0.55442 0.13943 0.0
C1 C 0.19697 0.68689 0.06098 0.0
O2 O 0.067 0.5888 0.12044 0.0
Zn3 Zn 0.07676 0.65403 0.07818 0.0
O4 O 0.14448 0.55205 0.132 0.0
Zn5 Zn 0.14624 0.6122 0.09327 0.0
O6 O 0.12069 0.67305 0.13543 0.0
O7 O 0.04548 0.70668 0.11198 0.0
O8 O 0.21347 0.6426 0.07426 0.0
O9 O 0.14714 0.69529 0.0599 0.0
O10 O 0.03816 0.63545 0.03002 0.0
O11 O 0.10489 0.58149 0.0405 0.0
C12 C 0.08181 0.70514 0.13904 0.0
C13 C 0.06358 0.59447 0.01994 0.0
C14 C 0.95251 0.06618 0.01822 0.0
C15 C 0.83932 0.08344 0.13587 0.0
O16 O 0.96537 0.10719 0.03921 0.0
Zn17 Zn 0.93368 0.14799 0.09189 0.0
O18 O 0.91117 0.04093 0.02763 0.0
Zn19 Zn 0.89176 0.07901 0.07577 0.0
O20 O 0.85129 0.14991 0.05755 0.0
O21 O 0.90418 0.21568 0.07308 0.0
O22 O 0.83817 0.04747 0.10851 0.0
O23 O 0.87166 0.12224 0.13305 0.0
O24 O 0.9929 0.14546 0.13145 0.0
O25 O 0.95579 0.06833 0.11906 0.0
C26 C 0.86002 0.19967 0.05917 0.0
C27 C 0.98988 0.09612 0.13869 0.0
C28 C 0.45957 0.84039 0.13742 0.0
C29 C 0.47715 0.95491 0.02059 0.0
O30 O 0.42106 0.87307 0.13493 0.0
Zn31 Zn 0.3956 0.93582 0.09441 0.0
O32 O 0.49552 0.83939 0.11005 0.0
Zn33 Zn 0.46428 0.89362 0.07776 0.0
O34 O 0.47567 0.957 0.12136 0.0
O35 O 0.399 0.99454 0.13449 0.0
O36 O 0.50221 0.91335 0.02971 0.0
O37 O 0.43631 0.96779 0.04175 0.0
O38 O 0.32758 0.90674 0.07565 0.0
O39 O 0.39308 0.85392 0.05938 0.0
C40 C 0.44839 0.99106 0.14141 0.0
C41 C 0.34337 0.86274 0.06127 0.0
C42 C 0.59337 0.48136 0.02169 0.0
C43 C 0.70644 0.46038 0.13924 0.0
O44 O 0.58048 0.4399 0.04209 0.0
Zn45 Zn 0.61156 0.39778 0.09428 0.0
O46 O 0.63467 0.50646 0.03153 0.0
Zn47 Zn 0.65394 0.46703 0.07916 0.0
O48 O 0.69375 0.39633 0.05973 0.0
O49 O 0.64072 0.33036 0.07447 0.0
O50 O 0.70783 0.49711 0.1125 0.0
O51 O 0.67374 0.42199 0.13578 0.0
O52 O 0.55209 0.40002 0.13369 0.0
O53 O 0.58994 0.47706 0.12241 0.0
C54 C 0.68485 0.34657 0.06063 0.0
C55 C 0.55549 0.44919 0.14153 0.0
C56 C 0.09483 0.99105 0.27564 0.0
C57 C 0.19789 0.86165 0.356 0.0
O58 O 0.06691 0.95717 0.29536 0.0
Zn59 Zn 0.07734 0.89359 0.33905 0.0
O60 O 0.14415 0.99402 0.28298 0.0
Zn61 Zn 0.14644 0.9352 0.3229 0.0
O62 O 0.12078 0.87264 0.28213 0.0
O63 O 0.04578 0.83967 0.30667 0.0
O64 O 0.21404 0.90569 0.34196 0.0
O65 O 0.14811 0.85308 0.35761 0.0
O66 O 0.03918 0.91348 0.38698 0.0
O67 O 0.10556 0.96749 0.37536 0.0
C68 C 0.08197 0.84028 0.27949 0.0
C69 C 0.06446 0.95485 0.39629 0.0
C70 C 0.59683 0.06071 0.3972 0.0
C71 C 0.70766 0.08084 0.2783 0.0
O72 O 0.58394 0.10226 0.37692 0.0
Zn73 Zn 0.61446 0.14426 0.32455 0.0
O74 O 0.63777 0.03531 0.38698 0.0
Zn75 Zn 0.6565 0.07462 0.33911 0.0
O76 O 0.69746 0.14497 0.35802 0.0
O77 O 0.64457 0.21132 0.34411 0.0
O78 O 0.70936 0.04406 0.30499 0.0
O79 O 0.67542 0.11951 0.28227 0.0
O80 O 0.55431 0.14276 0.28579 0.0
O81 O 0.59146 0.06529 0.2966 0.0
C82 C 0.68889 0.19479 0.35731 0.0
C83 C 0.55699 0.09358 0.27786 0.0
C84 C 0.4782 0.59458 0.39694 0.0
C85 C 0.46003 0.70613 0.27833 0.0
O86 O 0.4372 0.58142 0.37605 0.0
Zn87 Zn 0.39615 0.61209 0.32315 0.0
O88 O 0.50342 0.63584 0.38723 0.0
Zn89 Zn 0.46515 0.65455 0.33896 0.0
O90 O 0.3942 0.69478 0.35714 0.0
O91 O 0.32841 0.64178 0.34189 0.0
O92 O 0.49615 0.70788 0.30557 0.0
O93 O 0.42148 0.67359 0.28157 0.0
O94 O 0.39916 0.55231 0.28401 0.0
O95 O 0.47603 0.58988 0.29645 0.0
C96 C 0.34446 0.68601 0.35567 0.0
C97 C 0.44856 0.55535 0.27702 0.0
C98 C 0.95634 0.47566 0.3964 0.0
C99 C 0.84154 0.4574 0.27977 0.0
O100 O 0.9692 0.43467 0.3754 0.0
Zn101 Zn 0.93708 0.39359 0.32291 0.0
O102 O 0.91477 0.50063 0.38719 0.0
Zn103 Zn 0.89496 0.46228 0.33935 0.0
O104 O 0.85538 0.39119 0.3581 0.0
O105 O 0.90824 0.32567 0.34201 0.0
O106 O 0.84063 0.49332 0.30717 0.0
O107 O 0.87417 0.41882 0.28225 0.0
O108 O 0.99579 0.39663 0.28286 0.0
O109 O 0.95813 0.4734 0.29551 0.0
C110 C 0.8643 0.34148 0.35644 0.0
C111 C 0.99218 0.44593 0.27562 0.0
C112 C 0.9585 0.34042 0.77949 0.0
C113 C 0.97753 0.45469 0.8964 0.0
O114 O 0.99462 0.33924 0.80673 0.0
Zn115 Zn 0.96388 0.39349 0.83926 0.0
O116 O 0.92004 0.37314 0.78225 0.0
Zn117 Zn 0.89512 0.43584 0.82308 0.0
O118 O 0.89817 0.4947 0.78313 0.0
O119 O 0.97489 0.45685 0.79559 0.0
O120 O 0.93648 0.46763 0.87551 0.0
O121 O 1.00246 0.41313 0.88708 0.0
O122 O 0.89281 0.35398 0.8581 0.0
O123 O 0.82727 0.40697 0.84227 0.0
C124 C 0.94744 0.49102 0.7758 0.0
C125 C 0.84311 0.36295 0.85657 0.0
C126 C 0.05459 0.95004 0.77482 0.0
C127 C 0.18449 0.84673 0.85486 0.0
O128 O 0.05143 0.90072 0.78215 0.0
Zn129 Zn 0.11092 0.89808 0.82159 0.0
O130 O 0.089 0.9777 0.79421 0.0
Zn131 Zn 0.15321 0.96728 0.83718 0.0
O132 O 0.20694 0.99785 0.80394 0.0
O133 O 0.1729 0.92289 0.78026 0.0
O134 O 0.19322 0.8965 0.85609 0.0
O135 O 0.14039 0.83052 0.84091 0.0
O136 O 0.07984 0.93959 0.8741 0.0
O137 O 0.13401 1.00607 0.88509 0.0
C138 C 0.20554 0.96137 0.77699 0.0
C139 C 0.09275 0.98083 0.89478 0.0
C140 C 0.58192 0.20651 0.77859 0.0
C141 C 0.56268 0.09513 0.8972 0.0
O142 O 0.54536 0.20792 0.80545 0.0
Zn143 Zn 0.57627 0.15499 0.8392 0.0
O144 O 0.62073 0.17435 0.78226 0.0
Zn145 Zn 0.64582 0.11316 0.82433 0.0
O146 O 0.64428 0.05315 0.78547 0.0
O147 O 0.56678 0.09009 0.79657 0.0
O148 O 0.60414 0.0823 0.87679 0.0
O149 O 0.53725 0.13611 0.88712 0.0
O150 O 0.64664 0.19601 0.858 0.0
O151 O 0.71295 0.14324 0.84377 0.0
C152 C 0.59505 0.05572 0.77769 0.0
C153 C 0.69645 0.1875 0.85713 0.0
C154 C 0.33982 0.58346 0.78074 0.0
C155 C 0.45312 0.56721 0.8984 0.0
O156 O 0.33886 0.54761 0.8082 0.0
Zn157 Zn 0.39236 0.57959 0.84078 0.0
O158 O 0.37207 0.62235 0.78339 0.0
Zn159 Zn 0.43411 0.64853 0.82443 0.0
O160 O 0.49324 0.6459 0.78482 0.0
O161 O 0.45643 0.56875 0.79758 0.0
O162 O 0.466 0.60809 0.87728 0.0
O163 O 0.41176 0.54193 0.88906 0.0
O164 O 0.35161 0.65049 0.85862 0.0
O165 O 0.40435 0.7163 0.84292 0.0
C166 C 0.49041 0.59649 0.77781 0.0
C167 C 0.36018 0.70025 0.85679 0.0
C168 C 0.97887 0.09536 0.51948 0.0
C169 C 0.95948 0.20743 0.63776 0.0
O170 O 1.00407 0.13662 0.52926 0.0
Zn171 Zn 0.96526 0.15557 0.57727 0.0
O172 O 0.93767 0.08234 0.54014 0.0
Zn173 Zn 0.89614 0.11313 0.5927 0.0
O174 O 0.82857 0.14258 0.57349 0.0
O175 O 0.89442 0.19567 0.55858 0.0
O176 O 0.92099 0.17484 0.63435 0.0
O177 O 0.99586 0.20909 0.61075 0.0
O178 O 0.97572 0.09116 0.6201 0.0
O179 O 0.89876 0.05341 0.63187 0.0
C180 C 0.84467 0.18681 0.55977 0.0
C181 C 0.94804 0.05664 0.63933 0.0
C182 C 0.49229 0.94684 0.6415 0.0
C183 C 0.364 0.84175 0.56141 0.0
O184 O 0.49567 0.89742 0.63472 0.0
Zn185 Zn 0.43704 0.89402 0.59457 0.0
O186 O 0.45835 0.97414 0.62133 0.0
Zn187 Zn 0.39508 0.96265 0.57762 0.0
O188 O 0.34086 0.99425 0.6096 0.0
O189 O 0.3742 0.91989 0.63494 0.0
O190 O 0.35525 0.89146 0.55939 0.0
O191 O 0.40792 0.82596 0.57593 0.0
O192 O 0.46935 0.93443 0.54183 0.0
O193 O 0.41498 1.00029 0.52952 0.0
C194 C 0.34165 0.95855 0.63717 0.0
C195 C 0.45655 0.97519 0.52054 0.0
C196 C 0.58263 0.34046 0.63742 0.0
C197 C 0.56383 0.45459 0.52045 0.0
O198 O 0.54632 0.33958 0.61033 0.0
Zn199 Zn 0.57735 0.39352 0.5777 0.0
O200 O 0.62134 0.3729 0.63453 0.0
Zn201 Zn 0.64649 0.43537 0.59349 0.0
O202 O 0.64436 0.49437 0.63326 0.0
O203 O 0.56714 0.45717 0.62138 0.0
O204 O 0.60509 0.46732 0.54118 0.0
O205 O 0.53865 0.41324 0.52994 0.0
O206 O 0.64807 0.3533 0.55874 0.0
O207 O 0.714 0.4061 0.57409 0.0
C208 C 0.59513 0.49121 0.64089 0.0
C209 C 0.69784 0.36205 0.56005 0.0
C210 C 0.20643 0.58095 0.63927 0.0
C211 C 0.09603 0.56164 0.52005 0.0
O212 O 0.20814 0.54433 0.61245 0.0
Zn213 Zn 0.15545 0.57519 0.57835 0.0
O214 O 0.17424 0.61968 0.63539 0.0
Zn215 Zn 0.11343 0.64476 0.5931 0.0
O216 O 0.05321 0.64306 0.63178 0.0
O217 O 0.09019 0.56561 0.62056 0.0
O218 O 0.08301 0.60307 0.54044 0.0
O219 O 0.13696 0.53624 0.53029 0.0
O220 O 0.19658 0.64557 0.55984 0.0
O221 O 0.14378 0.71193 0.57389 0.0
C222 C 0.05572 0.59378 0.6394 0.0
C223 C 0.18812 0.6954 0.56074 0.0
C224 C 0.21562 0.78404 0.05296 0.0
C225 C 0.23424 0.73157 0.05331 0.0
H226 H 0.23501 0.86651 0.05524 0.0
C227 C 0.28899 0.72324 0.05128 0.0
H228 H 0.17373 0.79218 0.05468 0.0
C229 C 0.32414 0.76609 0.05096 0.0
C230 C 0.30561 0.8185 0.0534 0.0
H231 H 0.30483 0.68356 0.0515 0.0
H232 H 0.36607 0.75787 0.05109 0.0
C233 C 0.2508 0.82688 0.05335 0.0
C234 C 0.76316 0.21893 0.05018 0.0
C235 C 0.81568 0.23734 0.05154 0.0
H236 H 0.68074 0.23853 0.05202 0.0
C237 C 0.82426 0.29211 0.05072 0.0
H238 H 0.75481 0.17702 0.05092 0.0
C239 C 0.78157 0.32743 0.05072 0.0
C240 C 0.72906 0.309 0.05226 0.0
H241 H 0.86399 0.3078 0.05172 0.0
H242 H 0.78994 0.36931 0.05186 0.0
C243 C 0.72046 0.25424 0.05089 0.0
C244 C 0.29019 0.82564 0.36484 0.0
C245 C 0.23541 0.8172 0.36373 0.0
H246 H 0.3673 0.79112 0.36423 0.0
C247 C 0.21686 0.76471 0.36492 0.0
H248 H 0.30598 0.86534 0.36393 0.0
C249 C 0.25207 0.72192 0.36445 0.0
C250 C 0.30685 0.73037 0.36349 0.0
H251 H 0.17495 0.75647 0.36392 0.0
H252 H 0.23628 0.68223 0.36325 0.0
C253 C 0.32539 0.78285 0.36508 0.0
C254 C 0.82875 0.24888 0.36479 0.0
C255 C 0.82023 0.30368 0.36467 0.0
H256 H 0.79422 0.17173 0.3636 0.0
C257 C 0.76781 0.3221 0.36734 0.0
H258 H 0.8684 0.23318 0.36277 0.0
C259 C 0.72505 0.28685 0.3672 0.0
C260 C 0.73349 0.23212 0.36511 0.0
H261 H 0.7595 0.36401 0.36721 0.0
H262 H 0.68534 0.3026 0.36709 0.0
C263 C 0.78599 0.2136 0.36535 0.0
C264 C 0.82375 0.2664 0.86724 0.0
C265 C 0.80531 0.31884 0.86472 0.0
H266 H 0.80427 0.18392 0.8668 0.0
C267 C 0.75052 0.32734 0.86489 0.0
H268 H 0.86566 0.2581 0.86706 0.0
C269 C 0.71525 0.28458 0.86536 0.0
C270 C 0.73378 0.23208 0.86498 0.0
H271 H 0.73481 0.367 0.86298 0.0
H272 H 0.67338 0.2928 0.86367 0.0
C273 C 0.78851 0.22364 0.86702 0.0
C274 C 0.26318 0.71926 0.8652 0.0
C275 C 0.31566 0.73783 0.8641 0.0
H276 H 0.18071 0.73861 0.86309 0.0
C277 C 0.32407 0.79263 0.86492 0.0
H278 H 0.25497 0.67733 0.86441 0.0
C279 C 0.28126 0.82781 0.86478 0.0
C280 C 0.22881 0.80922 0.8631 0.0
H281 H 0.36376 0.80843 0.86407 0.0
H282 H 0.28951 0.86972 0.86372 0.0
C283 C 0.22038 0.75444 0.86435 0.0
C284 C 0.79019 0.32634 0.55088 0.0
C285 C 0.73542 0.31777 0.55197 0.0
H286 H 0.86737 0.29198 0.55142 0.0
C287 C 0.71698 0.26525 0.55045 0.0
H288 H 0.8059 0.36606 0.55201 0.0
C289 C 0.75228 0.22254 0.55074 0.0
C290 C 0.80704 0.23111 0.55185 0.0
H291 H 0.67509 0.25691 0.55138 0.0
H292 H 0.73657 0.18281 0.55175 0.0
C293 C 0.82548 0.28363 0.55048 0.0
C294 C 0.28529 0.71402 0.55293 0.0
C295 C 0.23283 0.73266 0.55313 0.0
H296 H 0.36775 0.73339 0.55544 0.0
C297 C 0.22453 0.78741 0.55105 0.0
H298 H 0.29341 0.67213 0.55469 0.0
C299 C 0.26738 0.82255 0.55086 0.0
C300 C 0.31977 0.804 0.55345 0.0
H301 H 0.18485 0.80327 0.55116 0.0
H302 H 0.25918 0.86449 0.55095 0.0
C303 C 0.32814 0.74919 0.55344 0.0
C304 C 0.06841 0.45224 0.22438 0.0
C305 C 1.02075 0.47164 0.24085 0.0
H306 H 0.1304 0.46353 0.17952 0.0
C307 C 0.99811 0.51667 0.22283 0.0
H308 H 0.0867 0.41745 0.23746 0.0
C309 C 1.02199 0.54182 0.18957 0.0
C310 C 0.07004 0.52357 0.17332 0.0
H311 H 0.96111 0.53248 0.23412 0.0
H312 H 1.00287 0.57656 0.1771 0.0
C313 C 0.0933 0.4785 0.1912 0.0
C314 C 0.99869 0.02423 0.1904 0.0
C315 C 1.01937 0.07071 0.17316 0.0
H316 H 1.00539 0.96408 0.23584 0.0
C317 C 0.06574 0.09212 0.19041 0.0
H318 H 0.96278 1.00673 0.17847 0.0
C319 C 0.09111 0.06672 0.22376 0.0
C320 C 0.06956 1.02046 0.24106 0.0
H321 H 0.08255 0.12803 0.17795 0.0
H322 H 0.12708 0.08343 0.23619 0.0
C323 C 0.023 0.99989 0.22386 0.0
C324 C 0.54651 0.02256 0.22563 0.0
C325 C 0.52655 0.06892 0.24355 0.0
H326 H 0.53843 0.96307 0.17982 0.0
C327 C 0.47996 0.09086 0.22711 0.0
H328 H 0.58254 1.00464 0.23692 0.0
C329 C 0.45369 0.06608 0.19386 0.0
C330 C 0.47453 1.01992 0.17589 0.0
H331 H 0.46369 0.12669 0.2401 0.0
H332 H 0.41758 0.08318 0.18205 0.0
C333 C 0.5213 0.99883 0.19231 0.0
C334 C 0.47816 0.45416 0.19187 0.0
C335 C 0.52588 0.47431 0.17604 0.0
H336 H 0.41519 0.46428 0.23607 0.0
C337 C 0.54753 0.51958 0.19447 0.0
H338 H 0.4606 0.41919 0.17846 0.0
C339 C 0.52267 0.5442 0.22754 0.0
C340 C 0.47459 0.52514 0.24319 0.0
H341 H 0.58451 0.53602 0.18368 0.0
H342 H 0.54107 0.57915 0.24035 0.0
C343 C 0.45229 0.47986 0.22486 0.0
C344 C 0.97973 0.59191 0.69112 0.0
C345 C 0.02496 0.56878 0.67339 0.0
H346 H 0.9186 0.58526 0.7373 0.0
C347 C 0.04344 0.52094 0.68987 0.0
H348 H 0.96458 0.62886 0.67926 0.0
C349 C 1.01834 0.49712 0.72318 0.0
C350 C 0.97314 0.51962 0.74104 0.0
H351 H 0.07831 0.50193 0.67753 0.0
H352 H 0.03434 0.46028 0.73461 0.0
C353 C 0.95353 0.56709 0.72436 0.0
C354 C 0.04449 0.02298 0.72418 0.0
C355 C 0.02462 0.97572 0.74071 0.0
H356 H 0.03678 0.08415 0.67971 0.0
C357 C 0.97857 0.95401 0.72316 0.0
H358 H 0.08008 0.04083 0.73637 0.0
C359 C 0.95277 0.97981 0.69017 0.0
C360 C 0.97357 0.02683 0.67357 0.0
H361 H 0.96236 0.91753 0.73506 0.0
H362 H 0.9171 0.9628 0.67745 0.0
C363 C 1.01976 0.04774 0.69112 0.0
C364 C 0.52372 0.04496 0.72575 0.0
C365 C 0.57029 0.02521 0.74347 0.0
H366 H 0.464 0.03662 0.68013 0.0
C367 C 0.59235 0.97873 0.72693 0.0
H368 H 0.5057 0.08088 0.73713 0.0
C369 C 0.5675 0.95237 0.69376 0.0
C370 C 0.52115 0.97303 0.67596 0.0
H371 H 0.62834 0.96262 0.73978 0.0
H372 H 0.58471 0.91636 0.68186 0.0
C373 C 0.49992 1.01967 0.69249 0.0
C374 C 0.59085 0.56762 0.69208 0.0
C375 C 0.57013 0.52048 0.67563 0.0
H376 H 0.5816 0.62972 0.73716 0.0
C377 C 0.52459 0.499 0.69375 0.0
H378 H 0.62604 0.58504 0.67892 0.0
C379 C 0.50035 0.52341 0.72721 0.0
C380 C 0.52007 0.57087 0.74352 0.0
H381 H 0.50771 0.46246 0.68245 0.0
H382 H 0.4652 0.5052 0.73982 0.0
C383 C 0.56553 0.59307 0.72543 0.0
C384 C 0.12831 0.75445 0.19336 0.0
C385 C 0.08054 0.74 0.17474 0.0
H386 H 0.16576 0.79776 0.24149 0.0
C387 C 0.03255 0.75756 0.19135 0.0
H388 H 0.1658 0.74136 0.18097 0.0
C389 C 0.03252 0.78915 0.2266 0.0
C390 C 0.08053 0.80415 0.24465 0.0
H391 H 0.99531 0.74632 0.17748 0.0
H392 H 0.99532 0.8028 0.23911 0.0
C393 C 0.12831 0.78665 0.22785 0.0
C394 C 0.78821 0.12894 0.18956 0.0
C395 C 0.80427 0.08145 0.17139 0.0
H396 H 0.74492 0.16556 0.23801 0.0
C397 C 0.78903 0.03311 0.18876 0.0
H398 H 0.79956 0.16666 0.17653 0.0
C399 C 0.75848 0.03247 0.22455 0.0
C400 C 0.7422 0.08017 0.24242 0.0
H401 H 0.80161 0.99611 0.17523 0.0
H402 H 0.74687 0.99497 0.23778 0.0
C403 C 0.75706 0.1283 0.22462 0.0
C404 C 0.50922 0.75808 0.2257 0.0
C405 C 0.46125 0.74111 0.24272 0.0
H406 H 0.54633 0.80249 0.1774 0.0
C407 C 0.41341 0.75589 0.22441 0.0
H408 H 0.5465 0.74655 0.23934 0.0
C409 C 0.41332 0.78774 0.18973 0.0
C410 C 0.46108 0.80455 0.17245 0.0
H411 H 0.37595 0.74322 0.23714 0.0
H412 H 0.37582 0.79908 0.17631 0.0
C413 C 0.50914 0.78932 0.19026 0.0
C414 C 0.75843 0.50848 0.19242 0.0
C415 C 0.74194 0.46085 0.17456 0.0
H416 H 0.80255 0.54469 0.24128 0.0
C417 C 0.75757 0.41264 0.19182 0.0
H418 H 0.74624 0.54602 0.1796 0.0
C419 C 0.7897 0.4119 0.22638 0.0
C420 C 0.80587 0.45933 0.2446 0.0
H421 H 0.74527 0.37544 0.17839 0.0
H422 H 0.80163 0.37414 0.23903 0.0
C423 C 0.7899 0.50772 0.22772 0.0
C424 C 0.91257 0.25752 0.69135 0.0
C425 C 0.9605 0.24235 0.67342 0.0
H426 H 0.87476 0.30065 0.73939 0.0
C427 C 1.00839 0.25862 0.69099 0.0
H428 H 0.87517 0.24538 0.67818 0.0
C429 C 1.00815 0.28948 0.72663 0.0
C430 C 0.96001 0.30504 0.74414 0.0
H431 H 0.04574 0.24675 0.67766 0.0
H432 H 0.04531 0.30205 0.73993 0.0
C433 C 0.91232 0.28902 0.72625 0.0
C434 C 0.28982 1.00894 0.68908 0.0
C435 C 0.30567 0.96057 0.67211 0.0
H436 H 0.24599 0.04715 0.73716 0.0
C437 C 0.28904 0.91311 0.69 0.0
H438 H 0.30282 0.04592 0.67575 0.0
C439 C 0.25664 0.9138 0.72437 0.0
C440 C 0.24116 0.96197 0.74178 0.0
H441 H 0.30084 0.87537 0.67725 0.0
H442 H 0.24406 0.87657 0.73756 0.0
C443 C 0.25806 1.00964 0.72422 0.0
C444 C 0.53293 0.25798 0.72559 0.0
C445 C 0.58085 0.24142 0.74292 0.0
H446 H 0.49591 0.30198 0.67704 0.0
C447 C 0.62874 0.25663 0.72492 0.0
H448 H 0.4956 0.24612 0.73898 0.0
C449 C 0.62891 0.28848 0.69022 0.0
C450 C 0.58119 0.30485 0.67261 0.0
H451 H 0.66618 0.2443 0.73791 0.0
H452 H 0.66645 0.30013 0.67704 0.0
C453 C 0.53309 0.2892 0.69015 0.0
C454 C 0.28917 0.53311 0.72805 0.0
C455 C 0.30433 0.58144 0.7455 0.0
H456 H 0.24661 0.49503 0.67918 0.0
C457 C 0.2876 0.62894 0.72774 0.0
H458 H 0.30225 0.49611 0.74129 0.0
C459 C 0.25591 0.62833 0.69297 0.0
C460 C 0.24119 0.58023 0.67503 0.0
H461 H 0.29885 0.66664 0.74087 0.0
H462 H 0.24333 0.66562 0.67987 0.0
C463 C 0.25808 0.53251 0.69252 0.0
C464 C 0.06667 0.51074 -0.02081 0.0
C465 C 0.04276 0.55961 -0.01276 0.0
H466 H 0.06434 0.43895 0.94471 0.0
C467 C 0.99658 0.57334 -0.03432 0.0
H468 H 0.102 0.49879 -0.00451 0.0
C469 C 0.97469 0.53886 0.93676 0.0
C470 C 0.99855 0.48993 0.92878 0.0
H471 H 0.977 0.61064 -0.02868 0.0
H472 H 0.93933 0.55075 0.92046 0.0
C473 C 0.04478 0.47626 0.9503 0.0
C474 C 1.00871 0.97768 0.93513 0.0
C475 C 0.05761 1.00166 0.92728 0.0
H476 H 0.93683 0.97973 -0.03052 0.0
C477 C 0.07121 0.04781 0.94895 0.0
H478 H 0.99685 0.94237 0.91873 0.0
C479 C 0.03662 0.06952 -0.02215 0.0
C480 C 0.98772 0.04552 -0.0143 0.0
H481 H 0.10851 0.06745 0.94345 0.0
H482 H 0.04845 0.10482 -0.00573 0.0
C483 C 0.97412 0.99939 -0.036 0.0
C484 C 0.4739 0.03913 -0.01972 0.0
C485 C 0.49788 0.99023 -0.01183 0.0
H486 H 0.47601 0.111 0.94581 0.0
C487 C 0.54405 0.97668 -0.03344 0.0
H488 H 0.43856 0.05092 -0.00335 0.0
C489 C 0.56581 1.01126 0.93772 0.0
C490 C 0.54183 0.06012 0.92978 0.0
H491 H 0.56371 0.9394 -0.02794 0.0
H492 H 0.60115 0.99941 0.92137 0.0
C493 C 0.49564 0.07372 0.95137 0.0
C494 C 0.5373 0.57046 0.93881 0.0
C495 C 0.48832 0.54659 0.93097 0.0
H496 H 0.60927 0.56813 -0.02683 0.0
C497 C 0.47463 0.50051 0.95266 0.0
H498 H 0.5492 0.60573 0.92238 0.0
C499 C 0.50921 0.47867 -0.01852 0.0
C500 C 0.55821 0.50247 -0.0107 0.0
H501 H 0.43727 0.48095 0.94722 0.0
H502 H 0.49728 0.44338 -0.00215 0.0
C503 C 0.57189 0.54863 -0.03231 0.0
C504 C 0.99755 0.9767 0.4503 0.0
C505 C 0.04372 0.99024 0.42867 0.0
H506 H 0.94046 0.9995 0.49546 0.0
C507 C 0.06768 0.03918 0.43648 0.0
H508 H 0.97791 0.93938 0.44486 0.0
C509 C 0.04591 0.07384 0.46533 0.0
C510 C 0.99974 0.06026 0.48696 0.0
H511 H 0.10301 0.05097 0.4201 0.0
H512 H 0.06553 0.11116 0.47083 0.0
C513 C 0.97578 1.01134 0.4791 0.0
C514 C 0.57544 0.99357 0.45136 0.0
C515 C 0.56186 0.03977 0.42976 0.0
H516 H 0.5526 0.93649 0.49665 0.0
C517 C 0.513 0.06376 0.43769 0.0
H518 H 0.61272 0.97395 0.4458 0.0
C519 C 0.47841 0.042 0.4665 0.0
C520 C 0.49194 0.99583 0.48813 0.0
H521 H 0.50114 0.0991 0.42135 0.0
H522 H 0.44114 0.06168 0.47197 0.0
C523 C 0.54083 0.97183 0.48027 0.0
C524 C 0.56681 0.53881 0.4802 0.0
C525 C 0.54292 0.48986 0.48807 0.0
H526 H 0.56463 0.61065 0.44573 0.0
C527 C 0.49675 0.4762 0.46644 0.0
H528 H 0.60213 0.5507 0.49658 0.0
C529 C 0.47498 0.51072 0.43754 0.0
C530 C 0.49891 0.55963 0.42961 0.0
H531 H 0.47717 0.43887 0.47194 0.0
H532 H 0.43969 0.49879 0.42115 0.0
C533 C 0.54503 0.57334 0.45128 0.0
C534 C 0.04048 0.47266 0.43685 0.0
C535 C 0.99161 0.49658 0.4288 0.0
H536 H 0.11219 0.4749 0.47154 0.0
C537 C 0.97797 0.54285 0.45028 0.0
H538 H 0.05234 0.43726 0.42059 0.0
C539 C 1.01242 0.56471 0.47919 0.0
C540 C 0.06124 0.54075 0.48733 0.0
H541 H 0.94071 0.56247 0.44465 0.0
H542 H 1.00048 0.60009 0.49545 0.0
C543 C 0.07494 0.49451 0.46583 0.0
loop_
_geom_bond_atom_site_label_1
_geom_bond_atom_site_label_2
_geom_bond_distance
_geom_bond_site_symmetry_2
_ccdc_geom_bond_type
C0 O2 1.246 1_455 S
C0 O4 1.259 . S
C1 O8 1.247 . S
C1 O9 1.258 . S
O2 C0 1.246 1_655 S
O2 Zn3 2.028 1_655 S
Zn3 O2 2.028 1_455 S
Zn3 O7 2.035 . S
Zn3 O9 2.035 . S
Zn3 O10 2.028 . S
O4 C0 1.259 . S
O4 Zn5 2.035 . S
Zn5 O4 2.035 . S
Zn5 O6 2.028 . S
Zn5 O8 2.028 . S
Zn5 O11 2.035 . S
O6 Zn5 2.028 . S
O6 C12 1.247 . S
O7 Zn3 2.035 . S
O7 C12 1.258 . S
O8 C1 1.247 . S
O8 Zn5 2.028 . S
O9 C1 1.258 . S
O9 Zn3 2.035 . S
O10 Zn3 2.028 . S
O10 C13 1.247 . S
O11 Zn5 2.035 . S
O11 C13 1.258 . S
C12 O6 1.247 . S
C12 O7 1.258 . S
C13 O10 1.247 . S
C13 O11 1.258 . S
C14 O16 1.247 . S
C14 O18 1.258 . S
C15 O22 1.247 . S
C15 O23 1.258 . S
O16 C14 1.247 . S
O16 Zn17 2.028 . S
Zn17 O16 2.028 . S
Zn17 O21 2.035 . S
Zn17 O23 2.035 . S
Zn17 O24 2.028 . S
O18 C14 1.258 . S
O18 Zn19 2.035 . S
Zn19 O18 2.035 . S
Zn19 O20 2.028 . S
Zn19 O22 2.028 . S
Zn19 O25 2.035 1_545 S
O20 Zn19 2.028 . S
O20 C26 1.247 . S
O21 Zn17 2.035 . S
O21 C26 1.258 . S
O22 C15 1.247 . S
O22 Zn19 2.028 . S
O23 C15 1.258 . S
O23 Zn17 2.035 . S
O24 Zn17 2.028 . S
O24 C27 1.254 . S
O25 Zn19 2.035 1_565 S
O25 C27 1.256 1_565 S
C26 O20 1.247 . S
C26 O21 1.258 . S
C27 O24 1.254 . S
C27 O25 1.256 1_545 S
C28 O30 1.247 . S
C28 O32 1.258 . S
C29 O36 1.247 . S
C29 O37 1.258 . S
O30 C28 1.247 . S
O30 Zn31 2.028 . S
Zn31 O30 2.028 . S
Zn31 O35 2.035 . S
Zn31 O37 2.035 . S
Zn31 O38 2.028 . S
O32 C28 1.258 . S
O32 Zn33 2.035 . S
Zn33 O32 2.035 . S
Zn33 O34 2.028 . S
Zn33 O36 2.028 . S
Zn33 O39 2.035 . S
O34 Zn33 2.028 . S
O34 C40 1.247 . S
O35 Zn31 2.035 . S
O35 C40 1.258 . S
O36 C29 1.247 . S
O36 Zn33 2.028 . S
O37 C29 1.258 . S
O37 Zn31 2.035 . S
O38 Zn31 2.028 . S
O38 C41 1.247 . S
O39 Zn33 2.035 . S
O39 C41 1.258 . S
C40 O34 1.247 . S
C40 O35 1.258 . S
C41 O38 1.247 . S
C41 O39 1.258 . S
C42 O44 1.247 . S
C42 O46 1.258 . S
C43 O50 1.247 . S
C43 O51 1.258 . S
O44 C42 1.247 . S
O44 Zn45 2.028 . S
Zn45 O44 2.028 . S
Zn45 O49 2.035 . S
Zn45 O51 2.035 . S
Zn45 O52 2.028 . S
O46 C42 1.258 . S
O46 Zn47 2.035 . S
Zn47 O46 2.035 . S
Zn47 O48 2.028 . S
Zn47 O50 2.028 . S
Zn47 O53 2.035 . S
O48 Zn47 2.028 . S
O48 C54 1.247 . S
O49 Zn45 2.035 . S
O49 C54 1.258 . S
O50 C43 1.247 . S
O50 Zn47 2.028 . S
O51 C43 1.258 . S
O51 Zn45 2.035 . S
O52 Zn45 2.028 . S
O52 C55 1.247 . S
O53 Zn47 2.035 . S
O53 C55 1.258 . S
C54 O48 1.247 . S
C54 O49 1.258 . S
C55 O52 1.247 . S
C55 O53 1.258 . S
C56 O58 1.246 1_455 S
C56 O60 1.259 . S
C57 O64 1.247 . S
C57 O65 1.258 . S
O58 C56 1.246 1_655 S
O58 Zn59 2.028 1_655 S
Zn59 O58 2.028 1_455 S
Zn59 O63 2.035 . S
Zn59 O65 2.035 . S
Zn59 O66 2.028 . S
O60 C56 1.259 . S
O60 Zn61 2.035 . S
Zn61 O60 2.035 . S
Zn61 O62 2.028 . S
Zn61 O64 2.028 . S
Zn61 O67 2.035 . S
O62 Zn61 2.028 . S
O62 C68 1.247 . S
O63 Zn59 2.035 . S
O63 C68 1.258 . S
O64 C57 1.247 . S
O64 Zn61 2.028 . S
O65 C57 1.258 . S
O65 Zn59 2.035 . S
O66 Zn59 2.028 . S
O66 C69 1.247 . S
O67 Zn61 2.035 . S
O67 C69 1.258 . S
C68 O62 1.247 . S
C68 O63 1.258 . S
C69 O66 1.247 . S
C69 O67 1.258 . S
C70 O72 1.247 . S
C70 O74 1.258 . S
C71 O78 1.247 . S
C71 O79 1.258 . S
O72 C70 1.247 . S
O72 Zn73 2.028 . S
Zn73 O72 2.028 . S
Zn73 O77 2.035 . S
Zn73 O79 2.035 . S
Zn73 O80 2.028 . S
O74 C70 1.258 . S
O74 Zn75 2.035 . S
Zn75 O74 2.035 . S
Zn75 O76 2.028 . S
Zn75 O78 2.028 . S
Zn75 O81 2.035 1_545 S
O76 Zn75 2.028 . S
O76 C82 1.247 . S
O77 Zn73 2.035 . S
O77 C82 1.258 . S
O78 C71 1.247 . S
O78 Zn75 2.028 . S
O79 C71 1.258 . S
O79 Zn73 2.035 . S
O80 Zn73 2.028 . S
O80 C83 1.253 . S
O81 Zn75 2.035 1_565 S
O81 C83 1.256 1_565 S
C82 O76 1.247 . S
C82 O77 1.258 . S
C83 O80 1.253 . S
C83 O81 1.256 1_545 S
C84 O86 1.247 . S
C84 O88 1.258 . S
C85 O92 1.247 . S
C85 O93 1.258 . S
O86 C84 1.247 . S
O86 Zn87 2.028 . S
Zn87 O86 2.028 . S
Zn87 O91 2.035 . S
Zn87 O93 2.035 . S
Zn87 O94 2.028 . S
O88 C84 1.258 . S
O88 Zn89 2.035 . S
Zn89 O88 2.035 . S
Zn89 O90 2.028 . S
Zn89 O92 2.028 . S
Zn89 O95 2.035 . S
O90 Zn89 2.028 . S
O90 C96 1.247 . S
O91 Zn87 2.035 . S
O91 C96 1.258 . S
O92 C85 1.247 . S
O92 Zn89 2.028 . S
O93 C85 1.258 . S
O93 Zn87 2.035 . S
O94 Zn87 2.028 . S
O94 C97 1.247 . S
O95 Zn89 2.035 . S
O95 C97 1.258 . S
C96 O90 1.247 . S
C96 O91 1.258 . S
C97 O94 1.247 . S
C97 O95 1.258 . S
C98 O100 1.247 . S
C98 O102 1.258 . S
C99 O106 1.247 . S
C99 O107 1.258 . S
O100 C98 1.247 . S
O100 Zn101 2.028 . S
Zn101 O100 2.028 . S
Zn101 O105 2.035 . S
Zn101 O107 2.035 . S
Zn101 O108 2.028 . S
O102 C98 1.258 . S
O102 Zn103 2.035 . S
Zn103 O102 2.035 . S
Zn103 O104 2.028 . S
Zn103 O106 2.028 . S
Zn103 O109 2.035 . S
O104 Zn103 2.028 . S
O104 C110 1.247 . S
O105 Zn101 2.035 . S
O105 C110 1.258 . S
O106 C99 1.247 . S
O106 Zn103 2.028 . S
O107 C99 1.258 . S
O107 Zn101 2.035 . S
O108 Zn101 2.028 . S
O108 C111 1.247 . S
O109 Zn103 2.035 . S
O109 C111 1.258 . S
C110 O104 1.247 . S
C110 O105 1.258 . S
C111 O108 1.247 . S
C111 O109 1.258 . S
C112 O114 1.247 . S
C112 O116 1.258 . S
C113 O120 1.247 . S
C113 O121 1.258 . S
O114 C112 1.247 . S
O114 Zn115 2.028 . S
Zn115 O114 2.028 . S
Zn115 O119 2.035 1_655 S
Zn115 O121 2.035 . S
Zn115 O122 2.028 . S
O116 C112 1.258 . S
O116 Zn117 2.035 . S
Zn117 O116 2.035 . S
Zn117 O118 2.028 . S
Zn117 O120 2.028 . S
Zn117 O123 2.035 . S
O118 Zn117 2.028 . S
O118 C124 1.254 . S
O119 Zn115 2.035 1_455 S
O119 C124 1.256 1_455 S
O120 C113 1.247 . S
O120 Zn117 2.028 . S
O121 C113 1.258 . S
O121 Zn115 2.035 . S
O122 Zn115 2.028 . S
O122 C125 1.247 . S
O123 Zn117 2.035 . S
O123 C125 1.258 . S
C124 O118 1.254 . S
C124 O119 1.256 1_655 S
C125 O122 1.247 . S
C125 O123 1.258 . S
C126 O128 1.254 . S
C126 O130 1.256 1_565 S
C127 O134 1.247 . S
C127 O135 1.258 . S
O128 C126 1.254 . S
O128 Zn129 2.028 . S
Zn129 O128 2.028 . S
Zn129 O133 2.035 . S
Zn129 O135 2.035 . S
Zn129 O136 2.028 . S
O130 C126 1.256 1_545 S
O130 Zn131 2.035 1_545 S
Zn131 O130 2.035 1_565 S
Zn131 O132 2.028 . S
Zn131 O134 2.028 . S
Zn131 O137 2.035 . S
O132 Zn131 2.028 . S
O132 C138 1.247 . S
O133 Zn129 2.035 . S
O133 C138 1.258 . S
O134 C127 1.247 . S
O134 Zn131 2.028 . S
O135 C127 1.258 . S
O135 Zn129 2.035 . S
O136 Zn129 2.028 . S
O136 C139 1.247 . S
O137 Zn131 2.035 . S
O137 C139 1.258 . S
C138 O132 1.247 . S
C138 O133 1.258 . S
C139 O136 1.247 . S
C139 O137 1.258 . S
C140 O142 1.247 . S
C140 O144 1.258 . S
C141 O148 1.247 . S
C141 O149 1.258 . S
O142 C140 1.247 . S
O142 Zn143 2.028 . S
Zn143 O142 2.028 . S
Zn143 O147 2.035 . S
Zn143 O149 2.035 . S
Zn143 O150 2.028 . S
O144 C140 1.258 . S
O144 Zn145 2.035 . S
Zn145 O144 2.035 . S
Zn145 O146 2.028 . S
Zn145 O148 2.028 . S
Zn145 O151 2.035 . S
O146 Zn145 2.028 . S
O146 C152 1.247 . S
O147 Zn143 2.035 . S
O147 C152 1.258 . S
O148 C141 1.247 . S
O148 Zn145 2.028 . S
O149 C141 1.258 . S
O149 Zn143 2.035 . S
O150 Zn143 2.028 . S
O150 C153 1.247 . S
O151 Zn145 2.035 . S
O151 C153 1.258 . S
C152 O146 1.247 . S
C152 O147 1.258 . S
C153 O150 1.247 . S
C153 O151 1.258 . S
C154 O156 1.247 . S
C154 O158 1.258 . S
C155 O162 1.247 . S
C155 O163 1.258 . S
O156 C154 1.247 . S
O156 Zn157 2.028 . S
Zn157 O156 2.028 . S
Zn157 O161 2.035 . S
Zn157 O163 2.035 . S
Zn157 O164 2.028 . S
O158 C154 1.258 . S
O158 Zn159 2.035 . S
Zn159 O158 2.035 . S
Zn159 O160 2.028 . S
Zn159 O162 2.028 . S
Zn159 O165 2.035 . S
O160 Zn159 2.028 . S
O160 C166 1.247 . S
O161 Zn157 2.035 . S
O161 C166 1.258 . S
O162 C155 1.247 . S
O162 Zn159 2.028 . S
O163 C155 1.258 . S
O163 Zn157 2.035 . S
O164 Zn157 2.028 . S
O164 C167 1.247 . S
O165 Zn159 2.035 . S
O165 C167 1.258 . S
C166 O160 1.247 . S
C166 O161 1.258 . S
C167 O164 1.247 . S
C167 O165 1.258 . S
C168 O170 1.247 . S
C168 O172 1.258 . S
C169 O176 1.247 . S
C169 O177 1.258 . S
O170 C168 1.247 . S
O170 Zn171 2.028 . S
Zn171 O170 2.028 . S
Zn171 O175 2.035 . S
Zn171 O177 2.035 . S
Zn171 O178 2.028 1_655 S
O172 C168 1.258 . S
O172 Zn173 2.035 . S
Zn173 O172 2.035 . S
Zn173 O174 2.028 . S
Zn173 O176 2.028 . S
Zn173 O179 2.035 . S
O174 Zn173 2.028 . S
O174 C180 1.247 . S
O175 Zn171 2.035 . S
O175 C180 1.258 . S
O176 C169 1.247 . S
O176 Zn173 2.028 . S
O177 C169 1.258 . S
O177 Zn171 2.035 . S
O178 Zn171 2.028 1_455 S
O178 C181 1.246 1_455 S
O179 Zn173 2.035 . S
O179 C181 1.259 . S
C180 O174 1.247 . S
C180 O175 1.258 . S
C181 O178 1.246 1_655 S
C181 O179 1.259 . S
C182 O184 1.253 . S
C182 O186 1.256 1_565 S
C183 O190 1.247 . S
C183 O191 1.258 . S
O184 C182 1.253 . S
O184 Zn185 2.028 . S
Zn185 O184 2.028 . S
Zn185 O189 2.035 . S
Zn185 O191 2.035 . S
Zn185 O192 2.028 . S
O186 C182 1.256 1_545 S
O186 Zn187 2.035 1_545 S
Zn187 O186 2.035 1_565 S
Zn187 O188 2.028 . S
Zn187 O190 2.028 . S
Zn187 O193 2.035 . S
O188 Zn187 2.028 . S
O188 C194 1.247 . S
O189 Zn185 2.035 . S
O189 C194 1.258 . S
O190 C183 1.247 . S
O190 Zn187 2.028 . S
O191 C183 1.258 . S
O191 Zn185 2.035 . S
O192 Zn185 2.028 . S
O192 C195 1.247 . S
O193 Zn187 2.035 . S
O193 C195 1.258 . S
C194 O188 1.247 . S
C194 O189 1.258 . S
C195 O192 1.247 . S
C195 O193 1.258 . S
C196 O198 1.247 . S
C196 O200 1.258 . S
C197 O204 1.247 . S
C197 O205 1.258 . S
O198 C196 1.247 . S
O198 Zn199 2.028 . S
Zn199 O198 2.028 . S
Zn199 O203 2.035 . S
Zn199 O205 2.035 . S
Zn199 O206 2.028 . S
O200 C196 1.258 . S
O200 Zn201 2.035 . S
Zn201 O200 2.035 . S
Zn201 O202 2.028 . S
Zn201 O204 2.028 . S
Zn201 O207 2.035 . S
O202 Zn201 2.028 . S
O202 C208 1.247 . S
O203 Zn199 2.035 . S
O203 C208 1.258 . S
O204 C197 1.247 . S
O204 Zn201 2.028 . S
O205 C197 1.258 . S
O205 Zn199 2.035 . S
O206 Zn199 2.028 . S
O206 C209 1.247 . S
O207 Zn201 2.035 . S
O207 C209 1.258 . S
C208 O202 1.247 . S
C208 O203 1.258 . S
C209 O206 1.247 . S
C209 O207 1.258 . S
C210 O212 1.247 . S
C210 O214 1.258 . S
C211 O218 1.247 . S
C211 O219 1.258 . S
O212 C210 1.247 . S
O212 Zn213 2.028 . S
Zn213 O212 2.028 . S
Zn213 O217 2.035 . S
Zn213 O219 2.035 . S
Zn213 O220 2.028 . S
O214 C210 1.258 . S
O214 Zn215 2.035 . S
Zn215 O214 2.035 . S
Zn215 O216 2.028 . S
Zn215 O218 2.028 . S
Zn215 O221 2.035 . S
O216 Zn215 2.028 . S
O216 C222 1.247 . S
O217 Zn213 2.035 . S
O217 C222 1.258 . S
O218 C211 1.247 . S
O218 Zn215 2.028 . S
O219 C211 1.258 . S
O219 Zn213 2.035 . S
O220 Zn213 2.028 . S
O220 C223 1.247 . S
O221 Zn215 2.035 . S
O221 C223 1.258 . S
C222 O216 1.247 . S
C222 O217 1.258 . S
C223 O220 1.247 . S
C223 O221 1.258 . S
C224 C225 1.387 . S
C224 H228 0.950 . S
C224 C233 1.390 . S
C225 C224 1.387 . S
C225 C227 1.387 . S
H226 C233 0.950 . S
C227 C225 1.387 . S
C227 C229 1.390 . S
C227 H231 0.950 . S
H228 C224 0.950 . S
C229 C227 1.390 . S
C229 C230 1.387 . S
C229 H232 0.950 . S
C230 C229 1.387 . S
C230 C233 1.387 . S
H231 C227 0.950 . S
H232 C229 0.950 . S
C233 C224 1.390 . S
C233 H226 0.950 . S
C233 C230 1.387 . S
C234 C235 1.387 . S
C234 H238 0.950 . S
C234 C243 1.390 . S
C235 C234 1.387 . S
C235 C237 1.387 . S
H236 C243 0.950 . S
C237 C235 1.387 . S
C237 C239 1.390 . S
C237 H241 0.950 . S
H238 C234 0.950 . S
C239 C237 1.390 . S
C239 C240 1.387 . S
C239 H242 0.950 . S
C240 C239 1.387 . S
C240 C243 1.387 . S
H241 C237 0.950 . S
H242 C239 0.950 . S
C243 C234 1.390 . S
C243 H236 0.950 . S
C243 C240 1.387 . S
C244 C245 1.387 . S
C244 H248 0.950 . S
C244 C253 1.390 . S
C245 C244 1.387 . S
C245 C247 1.387 . S
H246 C253 0.950 . S
C247 C245 1.387 . S
C247 C249 1.390 . S
C247 H251 0.950 . S
H248 C244 0.950 . S
C249 C247 1.390 . S
C249 C250 1.387 . S
C249 H252 0.950 . S
C250 C249 1.387 . S
C250 C253 1.387 . S
H251 C247 0.950 . S
H252 C249 0.950 . S
C253 C244 1.390 . S
C253 H246 0.950 . S
C253 C250 1.387 . S
C254 C255 1.387 . S
C254 H258 0.950 . S
C254 C263 1.390 . S
C255 C254 1.387 . S
C255 C257 1.387 . S
H256 C263 0.950 . S
C257 C255 1.387 . S
C257 C259 1.390 . S
C257 H261 0.950 . S
H258 C254 0.950 . S
C259 C257 1.390 . S
C259 C260 1.387 . S
C259 H262 0.950 . S
C260 C259 1.387 . S
C260 C263 1.387 . S
H261 C257 0.950 . S
H262 C259 0.950 . S
C263 C254 1.390 . S
C263 H256 0.950 . S
C263 C260 1.387 . S
C264 C265 1.387 . S
C264 H268 0.950 . S
C264 C273 1.390 . S
C265 C264 1.387 . S
C265 C267 1.387 . S
H266 C273 0.950 . S
C267 C265 1.387 . S
C267 C269 1.390 . S
C267 H271 0.950 . S
H268 C264 0.950 . S
C269 C267 1.390 . S
C269 C270 1.387 . S
C269 H272 0.950 . S
C270 C269 1.387 . S
C270 C273 1.387 . S
H271 C267 0.950 . S
H272 C269 0.950 . S
C273 C264 1.390 . S
C273 H266 0.950 . S
C273 C270 1.387 . S
C274 C275 1.387 . S
C274 H278 0.950 . S
C274 C283 1.390 . S
C275 C274 1.387 . S
C275 C277 1.387 . S
H276 C283 0.950 . S
C277 C275 1.387 . S
C277 C279 1.390 . S
C277 H281 0.950 . S
H278 C274 0.950 . S
C279 C277 1.390 . S
C279 C280 1.387 . S
C279 H282 0.950 . S
C280 C279 1.387 . S
C280 C283 1.387 . S
H281 C277 0.950 . S
H282 C279 0.950 . S
C283 C274 1.390 . S
C283 H276 0.950 . S
C283 C280 1.387 . S
C284 C285 1.387 . S
C284 H288 0.950 . S
C284 C293 1.390 . S
C285 C284 1.387 . S
C285 C287 1.387 . S
H286 C293 0.950 . S
C287 C285 1.387 . S
C287 C289 1.390 . S
C287 H291 0.950 . S
H288 C284 0.950 . S
C289 C287 1.390 . S
C289 C290 1.387 . S
C289 H292 0.950 . S
C290 C289 1.387 . S
C290 C293 1.387 . S
H291 C287 0.950 . S
H292 C289 0.950 . S
C293 C284 1.390 . S
C293 H286 0.950 . S
C293 C290 1.387 . S
C294 C295 1.387 . S
C294 H298 0.950 . S
C294 C303 1.390 . S
C295 C294 1.387 . S
C295 C297 1.387 . S
H296 C303 0.950 . S
C297 C295 1.387 . S
C297 C299 1.390 . S
C297 H301 0.950 . S
H298 C294 0.950 . S
C299 C297 1.390 . S
C299 C300 1.387 . S
C299 H302 0.950 . S
C300 C299 1.387 . S
C300 C303 1.387 . S
H301 C297 0.950 . S
H302 C299 0.950 . S
C303 C294 1.390 . S
C303 H296 0.950 . S
C303 C300 1.387 . S
C304 C305 1.387 . S
C304 H308 0.950 . S
C304 C313 1.390 . S
C305 C304 1.387 . S
C305 C307 1.387 . S
H306 C313 0.950 1_455 S
C307 C305 1.387 . S
C307 C309 1.390 . S
C307 H311 0.950 . S
H308 C304 0.950 . S
C309 C307 1.390 . S
C309 C310 1.387 . S
C309 H312 0.950 . S
C310 C309 1.387 . S
C310 C313 1.387 . S
H311 C307 0.950 . S
H312 C309 0.950 . S
C313 C304 1.390 . S
C313 H306 0.950 1_655 S
C313 C310 1.387 . S
C314 C315 1.387 . S
C314 H318 0.950 . S
C314 C323 1.390 . S
C315 C314 1.387 . S
C315 C317 1.387 . S
H316 C323 0.950 1_455 S
C317 C315 1.387 . S
C317 C319 1.390 . S
C317 H321 0.950 1_565 S
H318 C314 0.950 . S
C319 C317 1.390 . S
C319 C320 1.387 . S
C319 H322 0.950 1_565 S
C320 C319 1.387 . S
C320 C323 1.387 . S
H321 C317 0.950 1_545 S
H322 C319 0.950 1_545 S
C323 C314 1.390 . S
C323 H316 0.950 1_655 S
C323 C320 1.387 . S
C324 C325 1.387 . S
C324 H328 0.950 . S
C324 C333 1.390 . S
C325 C324 1.387 . S
C325 C327 1.387 1_565 S
H326 C333 0.950 . S
C327 C325 1.387 1_545 S
C327 C329 1.390 1_545 S
C327 H331 0.950 . S
H328 C324 0.950 . S
C329 C327 1.390 1_565 S
C329 C330 1.387 . S
C329 H332 0.950 1_565 S
C330 C329 1.387 . S
C330 C333 1.387 . S
H331 C327 0.950 . S
H332 C329 0.950 1_545 S
C333 C324 1.390 . S
C333 H326 0.950 . S
C333 C330 1.387 . S
C334 C335 1.387 . S
C334 H338 0.950 . S
C334 C343 1.390 . S
C335 C334 1.387 . S
C335 C337 1.387 . S
H336 C343 0.950 . S
C337 C335 1.387 . S
C337 C339 1.390 . S
C337 H341 0.950 . S
H338 C334 0.950 . S
C339 C337 1.390 . S
C339 C340 1.387 . S
C339 H342 0.950 . S
C340 C339 1.387 . S
C340 C343 1.387 . S
H341 C337 0.950 . S
H342 C339 0.950 . S
C343 C334 1.390 . S
C343 H336 0.950 . S
C343 C340 1.387 . S
C344 C345 1.387 . S
C344 H348 0.950 . S
C344 C353 1.390 . S
C345 C344 1.387 . S
C345 C347 1.387 . S
H346 C353 0.950 . S
C347 C345 1.387 . S
C347 C349 1.390 . S
C347 H351 0.950 . S
H348 C344 0.950 . S
C349 C347 1.390 . S
C349 C350 1.387 . S
C349 H352 0.950 . S
C350 C349 1.387 . S
C350 C353 1.387 . S
H351 C347 0.950 . S
H352 C349 0.950 . S
C353 C344 1.390 . S
C353 H346 0.950 . S
C353 C350 1.387 . S
C354 C355 1.387 . S
C354 H358 0.950 . S
C354 C363 1.390 . S
C355 C354 1.387 . S
C355 C357 1.387 1_545 S
H356 C363 0.950 . S
C357 C355 1.387 1_565 S
C357 C359 1.390 1_565 S
C357 H361 0.950 . S
H358 C354 0.950 . S
C359 C357 1.390 1_545 S
C359 C360 1.387 . S
C359 H362 0.950 1_545 S
C360 C359 1.387 . S
C360 C363 1.387 . S
H361 C357 0.950 . S
H362 C359 0.950 1_565 S
C363 C354 1.390 . S
C363 H356 0.950 . S
C363 C360 1.387 . S
C364 C365 1.387 . S
C364 H368 0.950 . S
C364 C373 1.390 . S
C365 C364 1.387 . S
C365 C367 1.387 . S
H366 C373 0.950 . S
C367 C365 1.387 . S
C367 C369 1.390 . S
C367 H371 0.950 . S
H368 C364 0.950 . S
C369 C367 1.390 . S
C369 C370 1.387 . S
C369 H372 0.950 . S
C370 C369 1.387 . S
C370 C373 1.387 . S
H371 C367 0.950 . S
H372 C369 0.950 . S
C373 C364 1.390 . S
C373 H366 0.950 . S
C373 C370 1.387 . S
C374 C375 1.387 . S
C374 H378 0.950 . S
C374 C383 1.390 . S
C375 C374 1.387 . S
C375 C377 1.387 . S
H376 C383 0.950 . S
C377 C375 1.387 . S
C377 C379 1.390 . S
C377 H381 0.950 . S
H378 C374 0.950 . S
C379 C377 1.390 . S
C379 C380 1.387 . S
C379 H382 0.950 . S
C380 C379 1.387 . S
C380 C383 1.387 . S
H381 C377 0.950 . S
H382 C379 0.950 . S
C383 C374 1.390 . S
C383 H376 0.950 . S
C383 C380 1.387 . S
C384 C385 1.387 . S
C384 H388 0.950 . S
C384 C393 1.390 . S
C385 C384 1.387 . S
C385 C387 1.387 . S
H386 C393 0.950 . S
C387 C385 1.387 . S
C387 C389 1.390 . S
C387 H391 0.950 . S
H388 C384 0.950 . S
C389 C387 1.390 . S
C389 C390 1.387 . S
C389 H392 0.950 . S
C390 C389 1.387 . S
C390 C393 1.387 . S
H391 C387 0.950 . S
H392 C389 0.950 . S
C393 C384 1.390 . S
C393 H386 0.950 . S
C393 C390 1.387 . S
C394 C395 1.387 . S
C394 H398 0.950 . S
C394 C403 1.390 . S
C395 C394 1.387 . S
C395 C397 1.387 . S
H396 C403 0.950 . S
C397 C395 1.387 . S
C397 C399 1.390 . S
C397 H401 0.950 . S
H398 C394 0.950 . S
C399 C397 1.390 . S
C399 C400 1.387 . S
C399 H402 0.950 . S
C400 C399 1.387 . S
C400 C403 1.387 . S
H401 C397 0.950 . S
H402 C399 0.950 . S
C403 C394 1.390 . S
C403 H396 0.950 . S
C403 C400 1.387 . S
C404 C405 1.387 . S
C404 H408 0.950 . S
C404 C413 1.390 . S
C405 C404 1.387 . S
C405 C407 1.387 . S
H406 C413 0.950 . S
C407 C405 1.387 . S
C407 C409 1.390 . S
C407 H411 0.950 . S
H408 C404 0.950 . S
C409 C407 1.390 . S
C409 C410 1.387 . S
C409 H412 0.950 . S
C410 C409 1.387 . S
C410 C413 1.387 . S
H411 C407 0.950 . S
H412 C409 0.950 . S
C413 C404 1.390 . S
C413 H406 0.950 . S
C413 C410 1.387 . S
C414 C415 1.387 . S
C414 H418 0.950 . S
C414 C423 1.390 . S
C415 C414 1.387 . S
C415 C417 1.387 . S
H416 C423 0.950 . S
C417 C415 1.387 . S
C417 C419 1.390 . S
C417 H421 0.950 . S
H418 C414 0.950 . S
C419 C417 1.390 . S
C419 C420 1.387 . S
C419 H422 0.950 . S
C420 C419 1.387 . S
C420 C423 1.387 . S
H421 C417 0.950 . S
H422 C419 0.950 . S
C423 C414 1.390 . S
C423 H416 0.950 . S
C423 C420 1.387 . S
C424 C425 1.387 . S
C424 H428 0.950 . S
C424 C433 1.390 . S
C425 C424 1.387 . S
C425 C427 1.387 . S
H426 C433 0.950 . S
C427 C425 1.387 . S
C427 C429 1.390 . S
C427 H431 0.950 . S
H428 C424 0.950 . S
C429 C427 1.390 . S
C429 C430 1.387 . S
C429 H432 0.950 . S
C430 C429 1.387 . S
C430 C433 1.387 . S
H431 C427 0.950 . S
H432 C429 0.950 . S
C433 C424 1.390 . S
C433 H426 0.950 . S
C433 C430 1.387 . S
C434 C435 1.387 . S
C434 H438 0.950 . S
C434 C443 1.390 . S
C435 C434 1.387 . S
C435 C437 1.387 . S
H436 C443 0.950 . S
C437 C435 1.387 . S
C437 C439 1.390 . S
C437 H441 0.950 . S
H438 C434 0.950 . S
C439 C437 1.390 . S
C439 C440 1.387 . S
C439 H442 0.950 . S
C440 C439 1.387 . S
C440 C443 1.387 . S
H441 C437 0.950 . S
H442 C439 0.950 . S
C443 C434 1.390 . S
C443 H436 0.950 . S
C443 C440 1.387 . S
C444 C445 1.387 . S
C444 H448 0.950 . S
C444 C453 1.390 . S
C445 C444 1.387 . S
C445 C447 1.387 . S
H446 C453 0.950 . S
C447 C445 1.387 . S
C447 C449 1.390 . S
C447 H451 0.950 . S
H448 C444 0.950 . S
C449 C447 1.390 . S
C449 C450 1.387 . S
C449 H452 0.950 . S
C450 C449 1.387 . S
C450 C453 1.387 . S
H451 C447 0.950 . S
H452 C449 0.950 . S
C453 C444 1.390 . S
C453 H446 0.950 . S
C453 C450 1.387 . S
C454 C455 1.387 . S
C454 H458 0.950 . S
C454 C463 1.390 . S
C455 C454 1.387 . S
C455 C457 1.387 . S
H456 C463 0.950 . S
C457 C455 1.387 . S
C457 C459 1.390 . S
C457 H461 0.950 . S
H458 C454 0.950 . S
C459 C457 1.390 . S
C459 C460 1.387 . S
C459 H462 0.950 . S
C460 C459 1.387 . S
C460 C463 1.387 . S
H461 C457 0.950 . S
H462 C459 0.950 . S
C463 C454 1.390 . S
C463 H456 0.950 . S
C463 C460 1.387 . S
C464 C465 1.387 1_655 S
C464 H468 0.950 . S
C464 C473 1.390 . S
C465 C464 1.387 1_455 S
C465 C467 1.387 1_554 S
H466 C473 0.950 . S
C467 C465 1.387 1_556 S
C467 C469 1.390 . S
C467 H471 0.950 . S
H468 C464 0.950 . S
C469 C467 1.390 . S
C469 C470 1.387 1_455 S
C469 H472 0.950 . S
C470 C469 1.387 1_655 S
C470 C473 1.387 1_556 S
H471 C467 0.950 . S
H472 C469 0.950 . S
C473 C464 1.390 . S
C473 H466 0.950 . S
C473 C470 1.387 1_554 S
C474 C475 1.387 1_545 S
C474 H478 0.950 . S
C474 C483 1.390 1_455 S
C475 C474 1.387 1_565 S
C475 C477 1.387 1_556 S
H476 C483 0.950 . S
C477 C475 1.387 1_554 S
C477 C479 1.390 1_455 S
C477 H481 0.950 . S
H478 C474 0.950 . S
C479 C477 1.390 1_655 S
C479 C480 1.387 1_565 S
C479 H482 0.950 . S
C480 C479 1.387 1_545 S
C480 C483 1.387 1_554 S
H481 C477 0.950 . S
H482 C479 0.950 . S
C483 C474 1.390 1_655 S
C483 H476 0.950 . S
C483 C480 1.387 1_556 S
C484 C485 1.387 . S
C484 H488 0.950 . S
C484 C493 1.390 1_565 S
C485 C484 1.387 . S
C485 C487 1.387 1_554 S
H486 C493 0.950 . S
C487 C485 1.387 1_556 S
C487 C489 1.390 1_565 S
C487 H491 0.950 . S
H488 C484 0.950 . S
C489 C487 1.390 1_545 S
C489 C490 1.387 . S
C489 H492 0.950 . S
C490 C489 1.387 . S
C490 C493 1.387 1_556 S
H491 C487 0.950 . S
H492 C489 0.950 . S
C493 C484 1.390 1_545 S
C493 H486 0.950 . S
C493 C490 1.387 1_554 S
C494 C495 1.387 1_554 S
C494 H498 0.950 . S
C494 C503 1.390 . S
C495 C494 1.387 1_556 S
C495 C497 1.387 . S
H496 C503 0.950 . S
C497 C495 1.387 . S
C497 C499 1.390 . S
C497 H501 0.950 . S
H498 C494 0.950 . S
C499 C497 1.390 . S
C499 C500 1.387 1_556 S
C499 H502 0.950 . S
C500 C499 1.387 1_554 S
C500 C503 1.387 . S
H501 C497 0.950 . S
H502 C499 0.950 . S
C503 C494 1.390 . S
C503 H496 0.950 . S
C503 C500 1.387 . S
C504 C505 1.387 1_655 S
C504 H508 0.950 . S
C504 C513 1.390 1_565 S
C505 C504 1.387 1_455 S
C505 C507 1.387 . S
H506 C513 0.950 . S
C507 C505 1.387 . S
C507 C509 1.390 1_565 S
C507 H511 0.950 . S
H508 C504 0.950 . S
C509 C507 1.390 1_545 S
C509 C510 1.387 1_455 S
C509 H512 0.950 . S
C510 C509 1.387 1_655 S
C510 C513 1.387 . S
H511 C507 0.950 . S
H512 C509 0.950 . S
C513 C504 1.390 1_545 S
C513 H506 0.950 . S
C513 C510 1.387 . S
C514 C515 1.387 1_565 S
C514 H518 0.950 . S
C514 C523 1.390 . S
C515 C514 1.387 1_545 S
C515 C517 1.387 . S
H516 C523 0.950 . S
C517 C515 1.387 . S
C517 C519 1.390 . S
C517 H521 0.950 . S
H518 C514 0.950 . S
C519 C517 1.390 . S
C519 C520 1.387 1_545 S
C519 H522 0.950 . S
C520 C519 1.387 1_565 S
C520 C523 1.387 . S
H521 C517 0.950 . S
H522 C519 0.950 . S
C523 C514 1.390 . S
C523 H516 0.950 . S
C523 C520 1.387 . S
C524 C525 1.387 . S
C524 H528 0.950 . S
C524 C533 1.390 . S
C525 C524 1.387 . S
C525 C527 1.387 . S
H526 C533 0.950 . S
C527 C525 1.387 . S
C527 C529 1.390 . S
C527 H531 0.950 . S
H528 C524 0.950 . S
C529 C527 1.390 . S
C529 C530 1.387 . S
C529 H532 0.950 . S
C530 C529 1.387 . S
C530 C533 1.387 . S
H531 C527 0.950 . S
H532 C529 0.950 . S
C533 C524 1.390 . S
C533 H526 0.950 . S
C533 C530 1.387 . S
C534 C535 1.387 . S
C534 H538 0.950 . S
C534 C543 1.390 1_655 S
C535 C534 1.387 . S
C535 C537 1.387 . S
H536 C543 0.950 . S
C537 C535 1.387 . S
C537 C539 1.390 1_655 S
C537 H541 0.950 . S
H538 C534 0.950 . S
C539 C537 1.390 1_455 S
C539 C540 1.387 . S
C539 H542 0.950 . S
C540 C539 1.387 . S
C540 C543 1.387 . S
H541 C537 0.950 . S
H542 C539 0.950 . S
C543 C534 1.390 1_455 S
C543 H536 0.950 . S
C543 C540 1.387 . S
C225 C1 1.908 . S
C230 C41 1.908 . S
C235 C26 1.909 . S
C240 C54 1.909 . S
C245 C57 1.908 . S
C250 C96 1.910 . S
C255 C110 1.910 . S
C260 C82 1.910 . S
C265 C125 1.910 . S
C270 C153 1.910 . S
C275 C167 1.910 . S
C280 C127 1.910 . S
C285 C209 1.909 . S
C290 C180 1.907 . S
C295 C223 1.909 . S
C300 C183 1.909 . S
C305 C111 1.717 . S
C310 C0 1.719 1_655 S
C315 C27 1.711 1_565 S
C320 C56 1.716 1_655 S
C325 C83 1.710 1_565 S
C330 C40 1.716 . S
C335 C55 1.717 . S
C340 C97 1.717 . S
C345 C222 1.714 . S
C350 C124 1.710 1_455 S
C355 C126 1.713 1_545 S
C360 C181 1.719 1_455 S
C365 C152 1.716 . S
C370 C182 1.713 1_545 S
C375 C208 1.713 . S
C380 C166 1.714 . S
C385 C12 0.799 . S
C390 C68 0.799 . S
C395 C15 0.799 . S
C400 C71 0.799 . S
C405 C85 0.801 . S
C410 C28 0.801 . S
C415 C43 0.801 . S
C420 C99 0.801 . S
C425 C169 0.801 . S
C430 C112 0.801 . S
C435 C194 0.799 . S
C440 C138 0.799 . S
C445 C140 0.799 . S
C450 C196 0.799 . S
C455 C154 0.799 . S
C460 C210 0.799 . S
C465 C13 1.781 . S
C470 C113 1.783 . S
C475 C139 1.781 . S
C480 C14 1.781 . S
C485 C29 1.781 . S
C490 C141 1.783 . S
C495 C155 1.782 . S
C500 C42 1.782 . S
C505 C69 1.781 . S
C510 C168 1.781 . S
C515 C70 1.782 . S
C520 C195 1.782 . S
C525 C197 1.781 . S
C530 C84 1.781 . S
C535 C98 1.782 . S
C540 C211 1.782 . S
