# Generated by pormake.
# Topology umd, (4)-cn, num edge types: 1
# Building blocks:
#     Node 0, Type 0, BuildingBlock: GALJAG_clean_sbu_0, # of connection points: 4
#     Node 1, Type 0, BuildingBlock: GALJAG_clean_sbu_0, # of connection points: 4
#     Node 2, Type 0, BuildingBlock: GALJAG_clean_sbu_0, # of connection points: 4
#     Node 3, Type 0, BuildingBlock: GALJAG_clean_sbu_0, # of connection points: 4
#     Node 4, Type 0, BuildingBlock: GALJAG_clean_sbu_0, # of connection points: 4
#     Node 5, Type 0, BuildingBlock: GALJAG_clean_sbu_0, # of connection points: 4
#     Node 6, Type 0, BuildingBlock: GALJAG_clean_sbu_0, # of connection points: 4
#     Node 7, Type 0, BuildingBlock: GALJAG_clean_sbu_0, # of connection points: 4
#     Node 8, Type 0, BuildingBlock: GALJAG_clean_sbu_0, # of connection points: 4
#     Node 9, Type 0, BuildingBlock: GALJAG_clean_sbu_0, # of connection points: 4
#     Node 10, Type 0, BuildingBlock: GALJAG_clean_sbu_0, # of connection points: 4
#     Node 11, Type 0, BuildingBlock: GALJAG_clean_sbu_0, # of connection points: 4
#     Node 12, Type 0, BuildingBlock: GALJAG_clean_sbu_0, # of connection points: 4
#     Node 13, Type 0, BuildingBlock: GALJAG_clean_sbu_0, # of connection points: 4
#     Node 14, Type 0, BuildingBlock: GALJAG_clean_sbu_0, # of connection points: 4
#     Node 15, Type 0, BuildingBlock: GALJAG_clean_sbu_0, # of connection points: 4
#     Edge 16, Type (0, 0), BuildingBlock: KIFKEQ_clean_linker_1, # of connection points: 2
#     Edge 17, Type (0, 0), BuildingBlock: KIFKEQ_clean_linker_1, # of connection points: 2
#     Edge 18, Type (0, 0), BuildingBlock: KIFKEQ_clean_linker_1, # of connection points: 2
#     Edge 19, Type (0, 0), BuildingBlock: KIFKEQ_clean_linker_1, # of connection points: 2
#     Edge 20, Type (0, 0), BuildingBlock: KIFKEQ_clean_linker_1, # of connection points: 2
#     Edge 21, Type (0, 0), BuildingBlock: KIFKEQ_clean_linker_1, # of connection points: 2
#     Edge 22, Type (0, 0), BuildingBlock: KIFKEQ_clean_linker_1, # of connection points: 2
#     Edge 23, Type (0, 0), BuildingBlock: KIFKEQ_clean_linker_1, # of connection points: 2
#     Edge 24, Type (0, 0), BuildingBlock: KIFKEQ_clean_linker_1, # of connection points: 2
#     Edge 25, Type (0, 0), BuildingBlock: KIFKEQ_clean_linker_1, # of connection points: 2
#     Edge 26, Type (0, 0), BuildingBlock: KIFKEQ_clean_linker_1, # of connection points: 2
#     Edge 27, Type (0, 0), BuildingBlock: KIFKEQ_clean_linker_1, # of connection points: 2
#     Edge 28, Type (0, 0), BuildingBlock: KIFKEQ_clean_linker_1, # of connection points: 2
#     Edge 29, Type (0, 0), BuildingBlock: KIFKEQ_clean_linker_1, # of connection points: 2
#     Edge 30, Type (0, 0), BuildingBlock: KIFKEQ_clean_linker_1, # of connection points: 2
#     Edge 31, Type (0, 0), BuildingBlock: KIFKEQ_clean_linker_1, # of connection points: 2
#     Edge 32, Type (0, 0), BuildingBlock: KIFKEQ_clean_linker_1, # of connection points: 2
#     Edge 33, Type (0, 0), BuildingBlock: KIFKEQ_clean_linker_1, # of connection points: 2
#     Edge 34, Type (0, 0), BuildingBlock: KIFKEQ_clean_linker_1, # of connection points: 2
#     Edge 35, Type (0, 0), BuildingBlock: KIFKEQ_clean_linker_1, # of connection points: 2
#     Edge 36, Type (0, 0), BuildingBlock: KIFKEQ_clean_linker_1, # of connection points: 2
#     Edge 37, Type (0, 0), BuildingBlock: KIFKEQ_clean_linker_1, # of connection points: 2
#     Edge 38, Type (0, 0), BuildingBlock: KIFKEQ_clean_linker_1, # of connection points: 2
#     Edge 39, Type (0, 0), BuildingBlock: KIFKEQ_clean_linker_1, # of connection points: 2
#     Edge 40, Type (0, 0), BuildingBlock: KIFKEQ_clean_linker_1, # of connection points: 2
#     Edge 41, Type (0, 0), BuildingBlock: KIFKEQ_clean_linker_1, # of connection points: 2
#     Edge 42, Type (0, 0), BuildingBlock: KIFKEQ_clean_linker_1, # of connection points: 2
#     Edge 43, Type (0, 0), BuildingBlock: KIFKEQ_clean_linker_1, # of connection points: 2
#     Edge 44, Type (0, 0), BuildingBlock: KIFKEQ_clean_linker_1, # of connection points: 2
#     Edge 45, Type (0, 0), BuildingBlock: KIFKEQ_clean_linker_1, # of connection points: 2
#     Edge 46, Type (0, 0), BuildingBlock: KIFKEQ_clean_linker_1, # of connection points: 2
#     Edge 47, Type (0, 0), BuildingBlock: KIFKEQ_clean_linker_1, # of connection points: 2
# Relax obj value: 0.079
# Max RMSD: 0.208
# Mean RMSD: 0.208
data_MOF--net-umd--node1-GALJAG_clean_sbu_0--edge1-KIFKEQ_clean_linker_1
_symmetry_space_group_name_H-M    P1
_symmetry_Int_Tables_number       1
_symmetry_cell_setting            triclinic
loop_
_symmetry_equiv_pos_as_xyz
'x, y, z'
_cell_length_a     40.619979
_cell_length_b     40.605811
_cell_length_c     57.725782
_cell_angle_alpha  89.989892
_cell_angle_beta   89.977376
_cell_angle_gamma 89.948517
loop_
_atom_site_label
_atom_site_type_symbol
_atom_site_fract_x
_atom_site_fract_y
_atom_site_fract_z
_atom_type_partial_charge
In0 In 0.17714 0.43452 0.11695 0.0
O1 O 0.20428 0.39122 0.10071 0.0
O2 O 0.16766 0.38011 0.1257 0.0
C3 C 0.11535 0.4578 0.12266 0.0
C4 C 0.19674 0.46162 0.07661 0.0
C5 C 0.20741 0.45037 0.15703 0.0
O6 O 0.14033 0.47112 0.13155 0.0
O7 O 0.12128 0.43212 0.11098 0.0
O8 O 0.19224 0.42371 0.15392 0.0
O9 O 0.20838 0.46903 0.13951 0.0
C10 C 0.18985 0.36936 0.11237 0.0
O11 O 0.16701 0.4557 0.08133 0.0
O12 O 0.21691 0.45455 0.09253 0.0
In13 In 0.5666 0.17763 0.62903 0.0
O14 O 0.53242 0.19947 0.60137 0.0
O15 O 0.56574 0.16076 0.59214 0.0
C16 C 0.55371 0.20539 0.67025 0.0
C17 C 0.62412 0.20734 0.62008 0.0
C18 C 0.54472 0.11625 0.63693 0.0
O19 O 0.53588 0.21112 0.65269 0.0
O20 O 0.57761 0.18619 0.6667 0.0
O21 O 0.57509 0.12232 0.63412 0.0
O22 O 0.52609 0.14113 0.63628 0.0
C23 C 0.5435 0.18054 0.58569 0.0
O24 O 0.62319 0.1792 0.62957 0.0
O25 O 0.59648 0.21982 0.61533 0.0
In26 In 0.82378 0.56896 0.13041 0.0
O27 O 0.78591 0.55282 0.10323 0.0
O28 O 0.83234 0.52868 0.10377 0.0
C29 C 0.79326 0.55103 0.17026 0.0
C30 C 0.80703 0.63262 0.12199 0.0
C31 C 0.88955 0.55854 0.13282 0.0
O32 O 0.79216 0.53343 0.15226 0.0
O33 O 0.80877 0.57759 0.16781 0.0
O34 O 0.87679 0.57697 0.11767 0.0
O35 O 0.86941 0.54663 0.14712 0.0
C36 C 0.80487 0.532 0.09386 0.0
O37 O 0.82205 0.62391 0.14008 0.0
O38 O 0.80187 0.60961 0.10785 0.0
In39 In 0.43285 0.82277 0.63034 0.0
O40 O 0.37663 0.81778 0.63293 0.0
O41 O 0.40666 0.77445 0.63227 0.0
C42 C 0.45269 0.8857 0.63284 0.0
C43 C 0.4409 0.81354 0.58478 0.0
C44 C 0.45893 0.80258 0.67042 0.0
O45 O 0.4233 0.87754 0.6376 0.0
O46 O 0.47125 0.86229 0.62681 0.0
O47 O 0.47143 0.79427 0.65113 0.0
O48 O 0.43386 0.82093 0.66915 0.0
C49 C 0.37802 0.78654 0.63326 0.0
O50 O 0.46143 0.80206 0.59925 0.0
O51 O 0.41713 0.82936 0.59347 0.0
In52 In 0.17218 0.55614 0.35826 0.0
O53 O 0.17818 0.61217 0.35473 0.0
O54 O 0.22098 0.58175 0.35793 0.0
C55 C 0.10855 0.53853 0.35548 0.0
C56 C 0.18071 0.54596 0.40378 0.0
C57 C 0.1926 0.53266 0.31742 0.0
O58 O 0.11731 0.5685 0.35519 0.0
O59 O 0.13182 0.518 0.35695 0.0
O60 O 0.20089 0.51896 0.33632 0.0
O61 O 0.17389 0.55739 0.31945 0.0
C62 C 0.20936 0.61046 0.35569 0.0
O63 O 0.19154 0.52547 0.38903 0.0
O64 O 0.16593 0.57053 0.39536 0.0
In65 In 0.46283 0.1777 0.87296 0.0
O66 O 0.48923 0.20127 0.90402 0.0
O67 O 0.45698 0.16042 0.90955 0.0
C68 C 0.48265 0.20402 0.83272 0.0
C69 C 0.40502 0.20932 0.87574 0.0
C70 C 0.48417 0.11601 0.86571 0.0
O71 O 0.49917 0.20808 0.85115 0.0
O72 O 0.45692 0.18696 0.83495 0.0
O73 O 0.45382 0.12334 0.86511 0.0
O74 O 0.50334 0.1398 0.86982 0.0
C75 C 0.47586 0.18171 0.91835 0.0
O76 O 0.40638 0.17912 0.87017 0.0
O77 O 0.43245 0.22264 0.87991 0.0
In78 In 0.80917 0.44578 0.37219 0.0
O79 O 0.80393 0.38941 0.37123 0.0
O80 O 0.76168 0.41892 0.37855 0.0
C81 C 0.87249 0.46198 0.36496 0.0
C82 C 0.80549 0.46472 0.41678 0.0
C83 C 0.78652 0.46574 0.33081 0.0
O84 O 0.86372 0.43239 0.36827 0.0
O85 O 0.8494 0.48282 0.36524 0.0
O86 O 0.78111 0.4822 0.3491 0.0
O87 O 0.80269 0.43949 0.33373 0.0
C88 C 0.77343 0.39037 0.3759 0.0
O89 O 0.78847 0.47883 0.40126 0.0
O90 O 0.82386 0.44183 0.40956 0.0
In91 In 0.58182 0.81774 0.86758 0.0
O92 O 0.55012 0.80005 0.89804 0.0
O93 O 0.59218 0.83033 0.90456 0.0
C94 C 0.55861 0.79629 0.82697 0.0
C95 C 0.63471 0.77856 0.87018 0.0
C96 C 0.56455 0.88107 0.86245 0.0
O97 O 0.54378 0.7903 0.84585 0.0
O98 O 0.58489 0.8127 0.82888 0.0
O99 O 0.59435 0.87197 0.86051 0.0
O100 O 0.54429 0.85827 0.86662 0.0
C101 C 0.56797 0.81474 0.91282 0.0
O102 O 0.63776 0.80929 0.86673 0.0
O103 O 0.60542 0.7684 0.87192 0.0
In104 In 0.82403 0.53811 0.88088 0.0
O105 O 0.82708 0.59436 0.87704 0.0
O106 O 0.7855 0.57332 0.89407 0.0
C107 C 0.88669 0.51896 0.87346 0.0
C108 C 0.81533 0.51671 0.92463 0.0
C109 C 0.79438 0.52102 0.84076 0.0
O110 O 0.87893 0.54896 0.87587 0.0
O111 O 0.86286 0.49912 0.87432 0.0
O112 O 0.79694 0.501 0.85745 0.0
O113 O 0.80625 0.54911 0.84454 0.0
C114 C 0.79973 0.59907 0.88705 0.0
O115 O 0.79448 0.51065 0.90888 0.0
O116 O 0.84017 0.53289 0.91809 0.0
In117 In 0.43628 0.82265 0.36559 0.0
O118 O 0.46393 0.80211 0.39706 0.0
O119 O 0.42695 0.83895 0.40211 0.0
C120 C 0.4616 0.79767 0.32644 0.0
C121 C 0.38073 0.787 0.36693 0.0
C122 C 0.45428 0.88563 0.35931 0.0
O123 O 0.47607 0.79409 0.34573 0.0
O124 O 0.43487 0.81347 0.32726 0.0
O125 O 0.42449 0.87666 0.35747 0.0
O126 O 0.47439 0.86286 0.36402 0.0
C127 C 0.44811 0.8201 0.41117 0.0
O128 O 0.38037 0.8169 0.36056 0.0
O129 O 0.40867 0.77592 0.37251 0.0
In130 In 0.18824 0.42985 0.86661 0.0
O131 O 0.2105 0.46755 0.89174 0.0
O132 O 0.19747 0.41997 0.90449 0.0
C133 C 0.19995 0.45209 0.82362 0.0
C134 C 0.22446 0.37486 0.86317 0.0
C135 C 0.12355 0.44357 0.87018 0.0
O136 O 0.21281 0.46552 0.84123 0.0
O137 O 0.18105 0.42822 0.82794 0.0
O138 O 0.13367 0.41484 0.86545 0.0
O139 O 0.14592 0.46458 0.87333 0.0
C140 C 0.20916 0.44807 0.90885 0.0
O141 O 0.19422 0.37361 0.86861 0.0
O142 O 0.23561 0.40342 0.85955 0.0
In143 In 0.54533 0.18483 0.37164 0.0
O144 O 0.60186 0.1865 0.36824 0.0
O145 O 0.57734 0.22474 0.3867 0.0
C146 C 0.52833 0.1224 0.36161 0.0
C147 C 0.52235 0.18623 0.4152 0.0
C148 C 0.52492 0.21505 0.33267 0.0
O149 O 0.55812 0.13074 0.36447 0.0
O150 O 0.50776 0.14556 0.36343 0.0
O151 O 0.50768 0.21502 0.35093 0.0
O152 O 0.55232 0.20074 0.33449 0.0
C153 C 0.60424 0.21314 0.37948 0.0
O154 O 0.51652 0.20947 0.40114 0.0
O155 O 0.5394 0.16286 0.4072 0.0
In156 In 0.80774 0.45287 0.63202 0.0
O157 O 0.80878 0.39642 0.62993 0.0
O158 O 0.76427 0.42191 0.62182 0.0
C159 C 0.87047 0.46972 0.64041 0.0
C160 C 0.80314 0.47651 0.58857 0.0
C161 C 0.78201 0.46917 0.67348 0.0
O162 O 0.8618 0.43986 0.63848 0.0
O163 O 0.84744 0.49045 0.63862 0.0
O164 O 0.78232 0.4893 0.65673 0.0
O165 O 0.79389 0.44121 0.66903 0.0
C166 C 0.77889 0.39459 0.62379 0.0
O167 O 0.78102 0.48249 0.60349 0.0
O168 O 0.82677 0.45913 0.59572 0.0
In169 In 0.57316 0.82975 0.12914 0.0
O170 O 0.62995 0.83 0.13019 0.0
O171 O 0.60475 0.7868 0.11891 0.0
C172 C 0.54885 0.89043 0.13657 0.0
C173 C 0.55389 0.82627 0.08489 0.0
C174 C 0.55563 0.8022 0.16954 0.0
O175 O 0.57963 0.88514 0.13563 0.0
O176 O 0.53105 0.86515 0.13426 0.0
O177 O 0.53997 0.7965 0.15099 0.0
O178 O 0.57992 0.82132 0.16741 0.0
C179 C 0.63198 0.80063 0.12283 0.0
O180 O 0.54403 0.80546 0.09973 0.0
O181 O 0.57301 0.84823 0.09255 0.0
In182 In 0.17003 0.55765 0.62203 0.0
O183 O 0.19141 0.52812 0.59161 0.0
O184 O 0.15269 0.56263 0.58529 0.0
C185 C 0.19582 0.53525 0.66183 0.0
C186 C 0.204 0.61409 0.61871 0.0
C187 C 0.10728 0.54076 0.63032 0.0
O188 O 0.19813 0.51887 0.64321 0.0
O189 O 0.18107 0.56245 0.65999 0.0
O190 O 0.11655 0.57056 0.63062 0.0
O191 O 0.12961 0.52005 0.6259 0.0
C192 C 0.17241 0.54164 0.577 0.0
O193 O 0.17412 0.61392 0.62505 0.0
O194 O 0.21592 0.58617 0.61393 0.0
In195 In 0.42075 0.17843 0.13231 0.0
O196 O 0.45274 0.2047 0.10498 0.0
O197 O 0.41191 0.17576 0.09399 0.0
C198 C 0.44031 0.20154 0.17357 0.0
C199 C 0.35922 0.20291 0.13266 0.0
C200 C 0.44601 0.11703 0.13526 0.0
O201 O 0.45199 0.21279 0.15481 0.0
O202 O 0.4194 0.17878 0.17125 0.0
O203 O 0.41588 0.12284 0.13913 0.0
O204 O 0.46283 0.14196 0.1299 0.0
C205 C 0.43593 0.19362 0.08824 0.0
O206 O 0.36478 0.17293 0.12804 0.0
O207 O 0.3844 0.21996 0.13708 0.0
H208 H 0.06157 0.44721 0.09522 0.0
H209 H 0.09468 0.50187 0.155 0.0
H210 H 0.00775 0.4744 0.09783 0.0
H211 H 0.04078 0.52847 0.15783 0.0
H212 H 0.92515 0.53156 0.16795 0.0
H213 H 0.98043 0.50777 0.16576 0.0
H214 H 0.98702 0.53625 0.09388 0.0
H215 H 0.93192 0.5607 0.09616 0.0
C216 C 0.05722 0.46478 0.10901 0.0
C217 C 0.08221 0.47242 0.12492 0.0
C218 C 0.02661 0.4805 0.11038 0.0
C219 C 0.02028 0.50361 0.12796 0.0
C220 C 0.04505 0.51071 0.14414 0.0
C221 C 0.07583 0.49551 0.1425 0.0
C222 C 0.93864 0.53321 0.1518 0.0
C223 C 0.92435 0.54805 0.13225 0.0
C224 C 0.9702 0.5196 0.15056 0.0
C225 C 0.98777 0.51997 0.12961 0.0
C226 C 0.97379 0.53542 0.11017 0.0
C227 C 0.94247 0.54965 0.11154 0.0
H228 H 0.42382 0.93907 0.65379 0.0
H229 H 0.51013 0.90908 0.61553 0.0
H230 H 0.44649 0.9946 0.65744 0.0
H231 H 0.53213 0.96448 0.61824 0.0
H232 H 0.57859 0.05847 0.64274 0.0
H233 H 0.55596 0.00281 0.64382 0.0
H234 H 0.45784 0.04264 0.63579 0.0
H235 H 0.48038 0.09803 0.63576 0.0
C236 C 0.44746 0.94446 0.64599 0.0
C237 C 0.46521 0.91977 0.63441 0.0
C238 C 0.46047 0.97628 0.648 0.0
C239 C 0.49132 0.9841 0.63825 0.0
C240 C 0.50874 0.95931 0.62646 0.0
C241 C 0.49595 0.92755 0.6247 0.0
C242 C 0.55219 0.05525 0.64147 0.0
C243 C 0.5313 0.08257 0.63911 0.0
C244 C 0.53917 0.02335 0.6419 0.0
C245 C 0.50501 0.01809 0.63968 0.0
C246 C 0.48417 0.04562 0.63786 0.0
C247 C 0.49714 0.07744 0.63769 0.0
H248 H 0.08539 0.47715 0.34626 0.0
H249 H 0.05342 0.57551 0.36357 0.0
H250 H 0.02858 0.45828 0.34674 0.0
H251 H 0.99654 0.55645 0.36522 0.0
H252 H 0.89467 0.52011 0.3477 0.0
H253 H 0.95136 0.53842 0.34358 0.0
H254 H 0.98519 0.44576 0.37193 0.0
H255 H 0.9283 0.42697 0.37491 0.0
C256 C 0.06613 0.49473 0.35025 0.0
C257 C 0.07381 0.52781 0.35487 0.0
C258 C 0.03353 0.48385 0.35073 0.0
C259 C 0.00777 0.50569 0.35618 0.0
C260 C 0.01555 0.53895 0.36059 0.0
C261 C 0.04818 0.54992 0.35977 0.0
C262 C 0.91428 0.50358 0.35289 0.0
C263 C 0.9071 0.47211 0.36164 0.0
C264 C 0.94683 0.51418 0.35072 0.0
C265 C 0.97307 0.49377 0.35758 0.0
C266 C 0.96577 0.46206 0.36612 0.0
C267 C 0.93315 0.45127 0.36796 0.0
H268 H 0.60019 0.93527 0.84885 0.0
H269 H 0.50399 0.90509 0.87256 0.0
H270 H 0.58105 0.9924 0.84691 0.0
H271 H 0.48532 0.96174 0.87158 0.0
H272 H 0.45018 0.06199 0.85075 0.0
H273 H 0.47045 0.00565 0.84718 0.0
H274 H 0.56617 0.03703 0.87135 0.0
H275 H 0.5462 0.09343 0.8739 0.0
C276 C 0.57503 0.94086 0.85368 0.0
C277 C 0.5536 0.91572 0.86081 0.0
C278 C 0.56406 0.97358 0.8527 0.0
C279 C 0.53154 0.98178 0.85903 0.0
C280 C 0.51026 0.95643 0.86608 0.0
C281 C 0.52108 0.92386 0.86683 0.0
C282 C 0.4756 0.05681 0.85512 0.0
C283 C 0.49654 0.08205 0.8627 0.0
C284 C 0.48722 0.0245 0.85321 0.0
C285 C 0.51995 0.01662 0.85915 0.0
C286 C 0.541 0.04213 0.86631 0.0
C287 C 0.52947 0.07448 0.86795 0.0
H288 H 0.9091 0.45593 0.87636 0.0
H289 H 0.94189 0.55594 0.86589 0.0
H290 H 0.96589 0.43688 0.87568 0.0
H291 H 0.99878 0.53682 0.86414 0.0
H292 H 0.09751 0.49919 0.88865 0.0
H293 H 0.04035 0.51675 0.88873 0.0
H294 H 0.01306 0.42751 0.85266 0.0
H295 H 0.07045 0.40934 0.85355 0.0
C296 C 0.92848 0.4738 0.87357 0.0
C297 C 0.92109 0.50746 0.87129 0.0
C298 C 0.96109 0.46284 0.87304 0.0
C299 C 0.98709 0.48526 0.86998 0.0
C300 C 0.97951 0.51888 0.86705 0.0
C301 C 0.94688 0.52988 0.86785 0.0
C302 C 0.07926 0.48322 0.88085 0.0
C303 C 0.08841 0.45288 0.87109 0.0
C304 C 0.04647 0.49345 0.88068 0.0
C305 C 0.02197 0.4738 0.87045 0.0
C306 C 0.03114 0.44317 0.86091 0.0
C307 C 0.06402 0.43274 0.86135 0.0
H308 H 0.46614 0.09828 0.36457 0.0
H309 H 0.56642 0.06881 0.35088 0.0
H310 H 0.44847 0.04132 0.36209 0.0
H311 H 0.54857 0.01165 0.34715 0.0
H312 H 0.51328 0.91108 0.37206 0.0
H313 H 0.53115 0.96801 0.37044 0.0
H314 H 0.43848 0.99526 0.33886 0.0
H315 H 0.42002 0.93814 0.34166 0.0
C316 C 0.48436 0.07961 0.36061 0.0
C317 C 0.51772 0.08796 0.35806 0.0
C318 C 0.47417 0.04687 0.359 0.0
C319 C 0.49702 0.02164 0.35448 0.0
C320 C 0.53031 0.03025 0.35114 0.0
C321 C 0.54058 0.06303 0.3531 0.0
C322 C 0.49675 0.92922 0.36469 0.0
C323 C 0.46517 0.9202 0.35708 0.0
C324 C 0.50713 0.96192 0.36356 0.0
C325 C 0.48638 0.98647 0.35446 0.0
C326 C 0.45498 0.97722 0.34635 0.0
C327 C 0.44439 0.94447 0.34782 0.0
H328 H 0.92432 0.43167 0.65043 0.0
H329 H 0.89481 0.53143 0.63489 0.0
H330 H 0.98186 0.449 0.65121 0.0
H331 H 0.95201 0.54848 0.63442 0.0
H332 H 0.05694 0.57679 0.64909 0.0
H333 H 0.00011 0.55923 0.6552 0.0
H334 H 0.02335 0.46431 0.62531 0.0
H335 H 0.08017 0.48137 0.62043 0.0
C336 C 0.93017 0.45729 0.64722 0.0
C337 C 0.90514 0.48016 0.64256 0.0
C338 C 0.96315 0.46724 0.64747 0.0
C339 C 0.97178 0.50017 0.64268 0.0
C340 C 0.94648 0.52308 0.63856 0.0
C341 C 0.91358 0.51324 0.63867 0.0
C342 C 0.0498 0.55214 0.64399 0.0
C343 C 0.0729 0.53048 0.63426 0.0
C344 C 0.01721 0.54207 0.64737 0.0
C345 C 0.00694 0.51029 0.64072 0.0
C346 C 0.03032 0.48868 0.63111 0.0
C347 C 0.06292 0.49857 0.62809 0.0
H348 H 0.41901 0.06088 0.15343 0.0
H349 H 0.50691 0.0984 0.12074 0.0
H350 H 0.44447 0.00652 0.1563 0.0
H351 H 0.53186 0.04404 0.12263 0.0
H352 H 0.58008 0.94904 0.14538 0.0
H353 H 0.55526 0.00386 0.14717 0.0
H354 H 0.45975 0.96133 0.1332 0.0
H355 H 0.4843 0.90685 0.13243 0.0
C356 C 0.44368 0.05742 0.14672 0.0
C357 C 0.46092 0.08385 0.13684 0.0
C358 C 0.45828 0.02624 0.14826 0.0
C359 C 0.49033 0.02072 0.13969 0.0
C360 C 0.50747 0.04734 0.12983 0.0
C361 C 0.49302 0.07852 0.12854 0.0
C362 C 0.55375 0.9515 0.14292 0.0
C363 C 0.53418 0.92366 0.13877 0.0
C364 C 0.53951 0.98292 0.14377 0.0
C365 C 0.50541 0.98719 0.14024 0.0
C366 C 0.48592 0.95913 0.13641 0.0
C367 C 0.50008 0.9278 0.1358 0.0
H368 H 0.18105 0.56193 0.27605 0.0
H369 H 0.22862 0.47735 0.30677 0.0
H370 H 0.19471 0.54181 0.23773 0.0
H371 H 0.24299 0.45724 0.26801 0.0
H372 H 0.20648 0.41399 0.19657 0.0
H373 H 0.21141 0.43425 0.23602 0.0
H374 H 0.23772 0.53044 0.2099 0.0
H375 H 0.23188 0.51025 0.17025 0.0
C376 C 0.19484 0.53918 0.27461 0.0
C377 C 0.20344 0.52101 0.29441 0.0
C378 C 0.20305 0.52782 0.25259 0.0
C379 C 0.22008 0.49797 0.24976 0.0
C380 C 0.22967 0.48025 0.26962 0.0
C381 C 0.22149 0.49173 0.29178 0.0
C382 C 0.21407 0.43928 0.19923 0.0
C383 C 0.21818 0.46073 0.18034 0.0
C384 C 0.21711 0.45085 0.22189 0.0
C385 C 0.2244 0.48412 0.22612 0.0
C386 C 0.2314 0.50483 0.20719 0.0
C387 C 0.22828 0.49324 0.18448 0.0
H388 H 0.49974 0.24054 0.68466 0.0
H389 H 0.59033 0.19694 0.7091 0.0
H390 H 0.48352 0.25177 0.72471 0.0
H391 H 0.57388 0.20712 0.74883 0.0
H392 H 0.54196 0.23123 0.82009 0.0
H393 H 0.56064 0.24311 0.78058 0.0
H394 H 0.46518 0.21469 0.75426 0.0
H395 H 0.44656 0.20381 0.79334 0.0
C396 C 0.5164 0.23388 0.69854 0.0
C397 C 0.546 0.21736 0.69379 0.0
C398 C 0.50709 0.24017 0.72147 0.0
C399 C 0.52719 0.22994 0.74003 0.0
C400 C 0.55788 0.21562 0.73506 0.0
C401 C 0.56718 0.20946 0.71222 0.0
C402 C 0.52487 0.22828 0.80584 0.0
C403 C 0.49302 0.21611 0.80973 0.0
C404 C 0.53555 0.23493 0.78323 0.0
C405 C 0.5145 0.22958 0.7642 0.0
C406 C 0.48198 0.2195 0.76841 0.0
C407 C 0.47139 0.21287 0.79088 0.0
H408 H 0.76422 0.49227 0.18157 0.0
H409 H 0.79555 0.58499 0.21078 0.0
H410 H 0.75289 0.47146 0.22051 0.0
H411 H 0.78533 0.56406 0.2495 0.0
H412 H 0.75696 0.52396 0.31839 0.0
H413 H 0.74865 0.54494 0.27907 0.0
H414 H 0.78839 0.45441 0.25124 0.0
H415 H 0.79568 0.43334 0.29019 0.0
C416 C 0.76818 0.50836 0.19627 0.0
C417 C 0.78115 0.54009 0.19315 0.0
C418 C 0.76189 0.49641 0.21859 0.0
C419 C 0.7686 0.51591 0.23821 0.0
C420 C 0.77955 0.5484 0.23488 0.0
C421 C 0.78568 0.56035 0.21262 0.0
C422 C 0.76328 0.50839 0.30381 0.0
C423 C 0.77729 0.47717 0.30737 0.0
C424 C 0.75869 0.52044 0.28129 0.0
C425 C 0.76808 0.50149 0.26193 0.0
C426 C 0.78045 0.46958 0.26563 0.0
C427 C 0.78494 0.45758 0.28804 0.0
H428 H 0.58852 0.80374 0.78522 0.0
H429 H 0.49877 0.76878 0.81694 0.0
H430 H 0.56418 0.797 0.74707 0.0
H431 H 0.47445 0.7614 0.77853 0.0
H432 H 0.43156 0.81234 0.71268 0.0
H433 H 0.456 0.8022 0.75035 0.0
H434 H 0.54184 0.76028 0.71732 0.0
H435 H 0.51734 0.771 0.67927 0.0
C436 C 0.56377 0.79397 0.784 0.0
C437 C 0.54534 0.78725 0.80405 0.0
C438 C 0.54992 0.78982 0.7621 0.0
C439 C 0.5173 0.77891 0.75977 0.0
C440 C 0.49952 0.77028 0.77981 0.0
C441 C 0.51345 0.77438 0.80178 0.0
C442 C 0.45549 0.80059 0.71341 0.0
C443 C 0.47275 0.79283 0.69303 0.0
C444 C 0.46936 0.79445 0.73505 0.0
C445 C 0.50088 0.78046 0.73684 0.0
C446 C 0.51761 0.77136 0.71645 0.0
C447 C 0.5036 0.77741 0.69471 0.0
H448 H 0.76561 0.56145 0.8093 0.0
H449 H 0.79554 0.4607 0.82009 0.0
H450 H 0.7527 0.54923 0.76902 0.0
H451 H 0.78498 0.44868 0.77948 0.0
H452 H 0.7582 0.42859 0.70688 0.0
H453 H 0.75148 0.44078 0.74791 0.0
H454 H 0.78099 0.54155 0.73501 0.0
H455 H 0.78533 0.52956 0.69386 0.0
C456 C 0.76914 0.53655 0.80301 0.0
C457 C 0.78168 0.51202 0.81769 0.0
C458 C 0.7621 0.52958 0.77984 0.0
C459 C 0.76833 0.49808 0.77062 0.0
C460 C 0.77936 0.47313 0.78579 0.0
C461 C 0.78561 0.47997 0.80914 0.0
C462 C 0.76239 0.45353 0.71285 0.0
C463 C 0.77238 0.47813 0.69729 0.0
C464 C 0.75893 0.46049 0.73643 0.0
C465 C 0.7663 0.49202 0.74511 0.0
C466 C 0.77463 0.51705 0.72918 0.0
C467 C 0.77728 0.51023 0.70549 0.0
H468 H 0.52336 0.77314 0.31765 0.0
H469 H 0.43116 0.79797 0.28472 0.0
H470 H 0.54803 0.7634 0.27954 0.0
H471 H 0.4557 0.78914 0.24697 0.0
H472 H 0.50126 0.76519 0.18001 0.0
H473 H 0.47973 0.75306 0.21864 0.0
H474 H 0.56407 0.80114 0.24924 0.0
H475 H 0.58584 0.81232 0.21089 0.0
C476 C 0.50825 0.77596 0.30232 0.0
C477 C 0.47552 0.78676 0.30411 0.0
C478 C 0.52237 0.77054 0.28051 0.0
C479 C 0.50392 0.77575 0.26018 0.0
C480 C 0.47057 0.78448 0.26219 0.0
C481 C 0.45656 0.7899 0.28388 0.0
C482 C 0.51548 0.77248 0.19503 0.0
C483 C 0.54493 0.79015 0.19246 0.0
C484 C 0.50312 0.76566 0.21714 0.0
C485 C 0.51997 0.77648 0.23704 0.0
C486 C 0.55057 0.79214 0.23436 0.0
C487 C 0.56292 0.79885 0.21232 0.0
H488 H 0.23699 0.50454 0.80901 0.0
H489 H 0.17742 0.42391 0.78407 0.0
H490 H 0.24479 0.52347 0.76911 0.0
H491 H 0.18472 0.44296 0.74452 0.0
H492 H 0.21504 0.47267 0.67348 0.0
H493 H 0.22368 0.45121 0.71267 0.0
H494 H 0.20815 0.5487 0.74065 0.0
H495 H 0.20016 0.57004 0.70176 0.0
C496 C 0.22575 0.49079 0.79501 0.0
C497 C 0.20632 0.46298 0.79964 0.0
C498 C 0.2302 0.5016 0.7722 0.0
C499 C 0.2154 0.48468 0.75365 0.0
C500 C 0.1969 0.45625 0.75834 0.0
C501 C 0.1924 0.44555 0.78106 0.0
C502 C 0.21425 0.48954 0.688 0.0
C503 C 0.20654 0.52289 0.68464 0.0
C504 C 0.21898 0.47727 0.71042 0.0
C505 C 0.21625 0.49821 0.72977 0.0
C506 C 0.2107 0.53195 0.72616 0.0
C507 C 0.20585 0.54413 0.70385 0.0
H508 H 0.46252 0.23504 0.32154 0.0
H509 H 0.55941 0.22006 0.29252 0.0
H510 H 0.44016 0.24192 0.28251 0.0
H511 H 0.53711 0.22619 0.25371 0.0
H512 H 0.49057 0.24386 0.18461 0.0
H513 H 0.50979 0.25844 0.22353 0.0
H514 H 0.432 0.19948 0.2533 0.0
H515 H 0.41274 0.18547 0.21479 0.0
C516 C 0.47915 0.23402 0.30688 0.0
C517 C 0.51257 0.22646 0.31001 0.0
C518 C 0.46634 0.23776 0.28454 0.0
C519 C 0.48677 0.23405 0.265 0.0
C520 C 0.5207 0.22937 0.26834 0.0
C521 C 0.53346 0.2256 0.29061 0.0
C522 C 0.47737 0.2345 0.19953 0.0
C523 C 0.45044 0.21321 0.1967 0.0
C524 C 0.48836 0.24279 0.22177 0.0
C525 C 0.47243 0.23011 0.24151 0.0
C526 C 0.44455 0.21012 0.23853 0.0
C527 C 0.43373 0.20175 0.21641 0.0
H528 H 0.20535 0.50898 0.9289 0.0
H529 H 0.23233 0.40797 0.94246 0.0
H530 H 0.21019 0.52137 0.97044 0.0
H531 H 0.2379 0.42041 0.98358 0.0
H532 H 0.25635 0.45166 0.05591 0.0
H533 H 0.2683 0.45592 0.01441 0.0
H534 H 0.1718 0.49735 0.00281 0.0
H535 H 0.15967 0.49259 0.04408 0.0
C536 C 0.21331 0.48976 0.94066 0.0
C537 C 0.21822 0.45749 0.93264 0.0
C538 C 0.216 0.49681 0.96435 0.0
C539 C 0.22446 0.47185 0.98016 0.0
C540 C 0.23173 0.44021 0.97177 0.0
C541 C 0.22831 0.43303 0.94827 0.0
C542 C 0.23813 0.46262 0.04458 0.0
C543 C 0.20695 0.47145 0.05309 0.0
C544 C 0.24494 0.46498 0.02087 0.0
C545 C 0.2209 0.47682 0.00545 0.0
C546 C 0.19087 0.48841 0.01433 0.0
C547 C 0.18385 0.48549 0.03792 0.0
H548 H 0.51692 0.23983 0.44363 0.0
H549 H 0.50736 0.13405 0.44214 0.0
H550 H 0.51455 0.23879 0.48605 0.0
H551 H 0.50336 0.13297 0.4842 0.0
H552 H 0.56109 0.13844 0.55166 0.0
H553 H 0.54731 0.14082 0.51102 0.0
H554 H 0.48696 0.22682 0.52328 0.0
H555 H 0.5016 0.22476 0.56457 0.0
C556 C 0.51311 0.21654 0.45238 0.0
C557 C 0.51289 0.18696 0.4398 0.0
C558 C 0.51167 0.21591 0.47664 0.0
C559 C 0.50956 0.1857 0.48852 0.0
C560 C 0.50597 0.15655 0.47562 0.0
C561 C 0.50806 0.15714 0.45154 0.0
C562 C 0.54464 0.15775 0.54584 0.0
C563 C 0.53251 0.18147 0.56132 0.0
C564 C 0.53643 0.15893 0.52248 0.0
C565 C 0.5157 0.18381 0.51387 0.0
C566 C 0.50304 0.20738 0.52939 0.0
C567 C 0.51128 0.20614 0.55299 0.0
H568 H 0.84033 0.48435 0.07197 0.0
H569 H 0.75574 0.54767 0.06335 0.0
H570 H 0.83881 0.47088 0.03085 0.0
H571 H 0.75461 0.53469 0.02206 0.0
H572 H 0.75775 0.5011 0.94707 0.0
H573 H 0.74987 0.49507 0.98906 0.0
H574 H 0.85443 0.50795 -0.00067 0.0
H575 H 0.86213 0.51382 0.95786 0.0
C576 C 0.82088 0.49474 0.06141 0.0
C577 C 0.79847 0.51747 0.0708 0.0
C578 C 0.82011 0.48715 0.03782 0.0
C579 C 0.79703 0.50226 0.0231 0.0
C580 C 0.77266 0.52257 0.03292 0.0
C581 C 0.77336 0.53008 0.05659 0.0
C582 C 0.77903 0.5019 0.95835 0.0
C583 C 0.81053 0.5081 0.94926 0.0
C584 C 0.77452 0.49863 0.98235 0.0
C585 C 0.80152 0.50098 0.99754 0.0
C586 C 0.83314 0.50549 0.98817 0.0
C587 C 0.83756 0.50913 0.96437 0.0
H588 H 0.39336 0.82374 0.55295 0.0
H589 H 0.4954 0.79517 0.55943 0.0
H590 H 0.39837 0.8234 0.51112 0.0
H591 H 0.5007 0.79555 0.51697 0.0
H592 H 0.48021 0.77315 0.43715 0.0
H593 H 0.48083 0.76879 0.47963 0.0
H594 H 0.42672 0.86018 0.48435 0.0
H595 H 0.42549 0.8641 0.44245 0.0
C596 C 0.41693 0.81734 0.54539 0.0
C597 C 0.44412 0.80994 0.55944 0.0
C598 C 0.41984 0.81729 0.5214 0.0
C599 C 0.45013 0.81018 0.51076 0.0
C600 C 0.47708 0.80121 0.52472 0.0
C601 C 0.47408 0.80106 0.54895 0.0
C602 C 0.4688 0.79239 0.44738 0.0
C603 C 0.45239 0.81871 0.43654 0.0
C604 C 0.46921 0.78994 0.47163 0.0
C605 C 0.45324 0.8138 0.48528 0.0
C606 C 0.43847 0.84093 0.47431 0.0
C607 C 0.43791 0.84327 0.45028 0.0
H608 H 0.1988 0.49083 0.42884 0.0
H609 H 0.17001 0.59279 0.43597 0.0
H610 H 0.19792 0.48495 0.47135 0.0
H611 H 0.16953 0.58706 0.47771 0.0
H612 H 0.12679 0.55887 0.54521 0.0
H613 H 0.13106 0.55579 0.50334 0.0
H614 H 0.22549 0.50767 0.50946 0.0
H615 H 0.22098 0.51032 0.55195 0.0
C616 C 0.19271 0.51197 0.43945 0.0
C617 C 0.18395 0.5421 0.42912 0.0
C618 C 0.19225 0.50863 0.46368 0.0
C619 C 0.18297 0.53538 0.47775 0.0
C620 C 0.17594 0.56578 0.46731 0.0
C621 C 0.17633 0.56908 0.44335 0.0
C622 C 0.14834 0.54726 0.53772 0.0
C623 C 0.17379 0.5353 0.55183 0.0
C624 C 0.15081 0.54558 0.51372 0.0
C625 C 0.17891 0.53211 0.50317 0.0
C626 C 0.2036 0.51824 0.51719 0.0
C627 C 0.20105 0.51983 0.54143 0.0
H628 H 0.46137 0.13506 0.95001 0.0
H629 H 0.49648 0.23509 0.94398 0.0
H630 H 0.45545 0.14199 0.99158 0.0
H631 H 0.49027 0.24209 0.98615 0.0
H632 H 0.49366 0.21734 0.06938 0.0
H633 H 0.50907 0.21679 0.02808 0.0
H634 H 0.4124 0.18025 0.01079 0.0
H635 H 0.39716 0.18067 0.05143 0.0
C636 C 0.46836 0.15841 0.95765 0.0
C637 C 0.47892 0.1847 0.94374 0.0
C638 C 0.46488 0.16238 0.98144 0.0
C639 C 0.47175 0.19277 0.99193 0.0
C640 C 0.48472 0.21845 0.97839 0.0
C641 C 0.48828 0.21443 0.95435 0.0
C642 C 0.47563 0.20978 0.05663 0.0
C643 C 0.44439 0.19858 0.06361 0.0
C644 C 0.48444 0.20946 0.03309 0.0
C645 C 0.46211 0.19782 0.01641 0.0
C646 C 0.43032 0.18865 0.02337 0.0
C647 C 0.42158 0.189 0.04666 0.0
H648 H 0.76268 0.50661 0.43952 0.0
H649 H 0.84546 0.44157 0.4504 0.0
H650 H 0.7607 0.51778 0.48143 0.0
H651 H 0.84326 0.45219 0.49156 0.0
H652 H 0.85428 0.49132 0.56077 0.0
H653 H 0.85393 0.49623 0.51878 0.0
H654 H 0.74797 0.48719 0.51862 0.0
H655 H 0.74836 0.4835 0.56111 0.0
C656 C 0.78052 0.49494 0.45079 0.0
C657 C 0.80427 0.47328 0.44168 0.0
C658 C 0.7793 0.5012 0.47473 0.0
C659 C 0.80207 0.48619 0.4898 0.0
C660 C 0.82582 0.46479 0.48047 0.0
C661 C 0.82691 0.45846 0.4568 0.0
C662 C 0.83084 0.49123 0.55181 0.0
C663 C 0.80139 0.48662 0.56407 0.0
C664 C 0.83062 0.49387 0.52775 0.0
C665 C 0.801 0.49123 0.51532 0.0
C666 C 0.77119 0.4893 0.52771 0.0
C667 C 0.77138 0.48715 0.55199 0.0
H668 H 0.55488 0.87645 0.05429 0.0
H669 H 0.5357 0.77214 0.05944 0.0
H670 H 0.55233 0.87296 0.0123 0.0
H671 H 0.53398 0.76841 0.01696 0.0
H672 H 0.5174 0.78454 0.93664 0.0
H673 H 0.50703 0.78699 0.97864 0.0
H674 H 0.59397 0.84697 0.98714 0.0
H675 H 0.60402 0.84486 0.94588 0.0
C676 C 0.54965 0.85282 0.04639 0.0
C677 C 0.54603 0.82446 0.06002 0.0
C678 C 0.54829 0.8508 0.02236 0.0
C679 C 0.54374 0.82028 0.01137 0.0
C680 C 0.53756 0.79224 0.025 0.0
C681 C 0.5386 0.79434 0.04925 0.0
C682 C 0.53417 0.7982 0.9476 0.0
C683 C 0.56136 0.81471 0.93798 0.0
C684 C 0.52829 0.79954 0.97155 0.0
C685 C 0.54938 0.81764 0.98607 0.0
C686 C 0.5768 0.8335 0.97636 0.0
C687 C 0.58268 0.83209 0.95267 0.0
H688 H 0.1853 0.32631 0.14844 0.0
H689 H 0.22491 0.3367 0.07942 0.0
H690 H 0.21951 0.27735 0.15443 0.0
H691 H 0.25838 0.28732 0.08522 0.0
H692 H 0.30914 0.18957 0.10247 0.0
H693 H 0.2588 0.22241 0.09686 0.0
H694 H 0.28541 0.28301 0.15534 0.0
H695 H 0.3359 0.25115 0.16037 0.0
C696 C 0.20025 0.31735 0.13423 0.0
C697 C 0.20271 0.33539 0.11353 0.0
C698 C 0.21987 0.28944 0.1377 0.0
C699 C 0.2416 0.27873 0.12031 0.0
C700 C 0.24162 0.29492 0.09882 0.0
C701 C 0.22257 0.32322 0.09553 0.0
C702 C 0.30368 0.20941 0.11441 0.0
C703 C 0.32628 0.21802 0.13178 0.0
C704 C 0.27503 0.22816 0.11118 0.0
C705 C 0.26823 0.25506 0.12576 0.0
C706 C 0.28985 0.26214 0.14406 0.0
C707 C 0.31879 0.24407 0.14686 0.0
H708 H 0.80092 0.33134 0.63151 0.0
H709 H 0.71695 0.38712 0.60758 0.0
H710 H 0.76929 0.28018 0.62701 0.0
H711 H 0.68558 0.33691 0.6036 0.0
H712 H 0.63725 0.247 0.58385 0.0
H713 H 0.68085 0.28788 0.58109 0.0
H714 H 0.72178 0.25289 0.64569 0.0
H715 H 0.67871 0.2107 0.64773 0.0
C716 C 0.77588 0.33263 0.62512 0.0
C717 C 0.76138 0.3632 0.61991 0.0
C718 C 0.75777 0.30342 0.62264 0.0
C719 C 0.725 0.30438 0.61474 0.0
C720 C 0.71095 0.33504 0.6092 0.0
C721 C 0.72889 0.36398 0.6117 0.0
C722 C 0.65617 0.24746 0.59709 0.0
C723 C 0.65455 0.2261 0.61612 0.0
C724 C 0.681 0.27099 0.59562 0.0
C725 C 0.70424 0.27428 0.61351 0.0
C726 C 0.70426 0.25102 0.63161 0.0
C727 C 0.67963 0.2269 0.63283 0.0
H728 H 0.7977 0.6799 0.15509 0.0
H729 H 0.78081 0.65887 0.08276 0.0
H730 H 0.76046 0.72704 0.15263 0.0
H731 H 0.74446 0.70649 0.08007 0.0
H732 H 0.64072 0.74462 0.09843 0.0
H733 H 0.68958 0.71072 0.09579 0.0
H734 H 0.74347 0.78137 0.13693 0.0
H735 H 0.69364 0.81561 0.13978 0.0
C736 C 0.78692 0.68603 0.13848 0.0
C737 C 0.79166 0.66539 0.11921 0.0
C738 C 0.76564 0.71313 0.13704 0.0
C739 C 0.74894 0.72012 0.11627 0.0
C740 C 0.75633 0.70129 0.09648 0.0
C741 C 0.77729 0.6741 0.09797 0.0
C742 C 0.66305 0.75324 0.1067 0.0
C743 C 0.66329 0.78267 0.11945 0.0
C744 C 0.69126 0.73391 0.10498 0.0
C745 C 0.72058 0.74336 0.11604 0.0
C746 C 0.72121 0.77338 0.12828 0.0
C747 C 0.69281 0.79302 0.12983 0.0
H748 H 0.26344 0.62057 0.59828 0.0
H749 H 0.19186 0.67452 0.63863 0.0
H750 H 0.30223 0.66562 0.60231 0.0
H751 H 0.23139 0.72001 0.64293 0.0
H752 H 0.3132 0.80253 0.62444 0.0
H753 H 0.26706 0.76369 0.62004 0.0
H754 H 0.33165 0.68337 0.63852 0.0
H755 H 0.37716 0.72149 0.64263 0.0
C756 C 0.25586 0.64227 0.60783 0.0
C757 C 0.22482 0.64385 0.61844 0.0
C758 C 0.27814 0.66803 0.6102 0.0
C759 C 0.27005 0.69596 0.62335 0.0
C760 C 0.23823 0.69866 0.63276 0.0
C761 C 0.2157 0.67269 0.63032 0.0
C762 C 0.31724 0.77661 0.62785 0.0
C763 C 0.34883 0.76492 0.63352 0.0
C764 C 0.29093 0.75447 0.62534 0.0
C765 C 0.29604 0.7205 0.62845 0.0
C766 C 0.3272 0.70932 0.63543 0.0
C767 C 0.35325 0.73121 0.63788 0.0
H768 H 0.37496 0.72823 0.38832 0.0
H769 H 0.32077 0.79673 0.34559 0.0
H770 H 0.33066 0.68855 0.38499 0.0
H771 H 0.27603 0.75621 0.34189 0.0
H772 H 0.19354 0.67604 0.36136 0.0
H773 H 0.23238 0.72235 0.36447 0.0
H774 H 0.31314 0.65574 0.35114 0.0
H775 H 0.27498 0.61005 0.34846 0.0
C776 C 0.35341 0.7349 0.3783 0.0
C777 C 0.35152 0.76539 0.36694 0.0
C778 C 0.32807 0.71208 0.37631 0.0
C779 C 0.30022 0.71899 0.36275 0.0
C780 C 0.2973 0.75023 0.35239 0.0
C781 C 0.32284 0.77334 0.35449 0.0
C782 C 0.21959 0.67154 0.35888 0.0
C783 C 0.23132 0.63941 0.35504 0.0
C784 C 0.24174 0.69797 0.36061 0.0
C785 C 0.27582 0.69249 0.35853 0.0
C786 C 0.28712 0.66061 0.35345 0.0
C787 C 0.2652 0.63443 0.35182 0.0
H788 H 0.3432 0.19185 0.86022 0.0
H789 H 0.39783 0.27134 0.89179 0.0
H790 H 0.29515 0.22854 0.85631 0.0
H791 H 0.35047 0.30733 0.88787 0.0
H792 H 0.28579 0.37245 0.84527 0.0
H793 H 0.32586 0.32836 0.84872 0.0
H794 H 0.25376 0.26741 0.883 0.0
H795 H 0.21295 0.31208 0.87951 0.0
C796 C 0.34476 0.21686 0.86664 0.0
C797 C 0.37438 0.22891 0.87599 0.0
C798 C 0.31735 0.23774 0.86443 0.0
C799 C 0.31945 0.27081 0.87145 0.0
C800 C 0.34845 0.28208 0.88196 0.0
C801 C 0.37554 0.26141 0.88422 0.0
C802 C 0.27821 0.34957 0.85331 0.0
C803 C 0.2464 0.34588 0.86246 0.0
C804 C 0.30119 0.32434 0.85529 0.0
C805 C 0.29299 0.2948 0.86647 0.0
C806 C 0.26059 0.29006 0.87434 0.0
C807 C 0.23737 0.31555 0.87237 0.0
H808 H 0.61887 0.25557 0.41396 0.0
H809 H 0.65895 0.21278 0.35159 0.0
H810 H 0.66436 0.29442 0.41541 0.0
H811 H 0.70425 0.25272 0.35251 0.0
H812 H 0.79003 0.32524 0.36885 0.0
H813 H 0.75355 0.27717 0.37228 0.0
H814 H 0.67306 0.34166 0.39077 0.0
H815 H 0.70907 0.38887 0.38774 0.0
C816 C 0.63777 0.25421 0.40073 0.0
C817 C 0.63522 0.23154 0.38249 0.0
C818 C 0.66372 0.27657 0.40148 0.0
C819 C 0.68745 0.27722 0.38375 0.0
C820 C 0.68635 0.25285 0.36642 0.0
C821 C 0.66044 0.23003 0.36586 0.0
C822 C 0.76457 0.32893 0.37378 0.0
C823 C 0.75243 0.3608 0.37809 0.0
C824 C 0.74371 0.30149 0.37567 0.0
C825 C 0.71052 0.30554 0.38209 0.0
C826 C 0.69865 0.33749 0.38634 0.0
C827 C 0.71929 0.36467 0.3844 0.0
H828 H 0.75268 0.61737 0.91752 0.0
H829 H 0.80892 0.65311 0.85924 0.0
H830 H 0.71671 0.66516 0.91499 0.0
H831 H 0.77211 0.70096 0.85631 0.0
H832 H 0.70134 0.79205 0.86888 0.0
H833 H 0.74666 0.75278 0.8754 0.0
H834 H 0.67576 0.6745 0.88394 0.0
H835 H 0.63123 0.71303 0.87769 0.0
C836 C 0.75769 0.63583 0.90442 0.0
C837 C 0.78322 0.63136 0.88836 0.0
C838 C 0.73703 0.66311 0.90291 0.0
C839 C 0.74114 0.68634 0.8851 0.0
C840 C 0.76837 0.68339 0.87018 0.0
C841 C 0.78938 0.65605 0.87185 0.0
C842 C 0.69564 0.76641 0.87213 0.0
C843 C 0.66274 0.75566 0.87293 0.0
C844 C 0.7215 0.74401 0.87583 0.0
C845 C 0.71469 0.71073 0.88062 0.0
C846 C 0.68181 0.70013 0.8809 0.0
C847 C 0.65624 0.72224 0.87712 0.0
loop_
_geom_bond_atom_site_label_1
_geom_bond_atom_site_label_2
_geom_bond_distance
_geom_bond_site_symmetry_2
_ccdc_geom_bond_type
In0 O1 2.294 . S
In0 O2 2.326 . S
In0 O6 2.266 . S
In0 O7 2.326 . S
In0 O8 2.266 . S
In0 O9 2.326 . S
In0 O11 2.294 . S
In0 O12 2.326 . S
O1 In0 2.294 . S
O1 C10 1.240 . S
O2 In0 2.326 . S
O2 C10 1.252 . S
C3 O6 1.252 . S
C3 O7 1.260 . S
C4 O11 1.240 . S
C4 O12 1.252 . S
C5 O8 1.252 . S
C5 O9 1.260 . S
O6 In0 2.266 . S
O6 C3 1.252 . S
O7 In0 2.326 . S
O7 C3 1.260 . S
O8 In0 2.266 . S
O8 C5 1.252 . S
O9 In0 2.326 . S
O9 C5 1.260 . S
C10 O1 1.240 . S
C10 O2 1.252 . S
O11 In0 2.294 . S
O11 C4 1.240 . S
O12 In0 2.326 . S
O12 C4 1.252 . S
In13 O14 2.294 . S
In13 O15 2.326 . S
In13 O19 2.266 . S
In13 O20 2.326 . S
In13 O21 2.266 . S
In13 O22 2.326 . S
In13 O24 2.294 . S
In13 O25 2.326 . S
O14 In13 2.294 . S
O14 C23 1.240 . S
O15 In13 2.326 . S
O15 C23 1.252 . S
C16 O19 1.252 . S
C16 O20 1.260 . S
C17 O24 1.240 . S
C17 O25 1.252 . S
C18 O21 1.252 . S
C18 O22 1.260 . S
O19 In13 2.266 . S
O19 C16 1.252 . S
O20 In13 2.326 . S
O20 C16 1.260 . S
O21 In13 2.266 . S
O21 C18 1.252 . S
O22 In13 2.326 . S
O22 C18 1.260 . S
C23 O14 1.240 . S
C23 O15 1.252 . S
O24 In13 2.294 . S
O24 C17 1.240 . S
O25 In13 2.326 . S
O25 C17 1.252 . S
In26 O27 2.294 . S
In26 O28 2.326 . S
In26 O32 2.266 . S
In26 O33 2.326 . S
In26 O34 2.266 . S
In26 O35 2.326 . S
In26 O37 2.294 . S
In26 O38 2.326 . S
O27 In26 2.294 . S
O27 C36 1.240 . S
O28 In26 2.326 . S
O28 C36 1.252 . S
C29 O32 1.252 . S
C29 O33 1.260 . S
C30 O37 1.240 . S
C30 O38 1.252 . S
C31 O34 1.252 . S
C31 O35 1.260 . S
O32 In26 2.266 . S
O32 C29 1.252 . S
O33 In26 2.326 . S
O33 C29 1.260 . S
O34 In26 2.266 . S
O34 C31 1.252 . S
O35 In26 2.326 . S
O35 C31 1.260 . S
C36 O27 1.240 . S
C36 O28 1.252 . S
O37 In26 2.294 . S
O37 C30 1.240 . S
O38 In26 2.326 . S
O38 C30 1.252 . S
In39 O40 2.294 . S
In39 O41 2.326 . S
In39 O45 2.266 . S
In39 O46 2.326 . S
In39 O47 2.266 . S
In39 O48 2.326 . S
In39 O50 2.294 . S
In39 O51 2.326 . S
O40 In39 2.294 . S
O40 C49 1.240 . S
O41 In39 2.326 . S
O41 C49 1.252 . S
C42 O45 1.252 . S
C42 O46 1.260 . S
C43 O50 1.240 . S
C43 O51 1.252 . S
C44 O47 1.252 . S
C44 O48 1.260 . S
O45 In39 2.266 . S
O45 C42 1.252 . S
O46 In39 2.326 . S
O46 C42 1.260 . S
O47 In39 2.266 . S
O47 C44 1.252 . S
O48 In39 2.326 . S
O48 C44 1.260 . S
C49 O40 1.240 . S
C49 O41 1.252 . S
O50 In39 2.294 . S
O50 C43 1.240 . S
O51 In39 2.326 . S
O51 C43 1.252 . S
In52 O53 2.294 . S
In52 O54 2.326 . S
In52 O58 2.266 . S
In52 O59 2.326 . S
In52 O60 2.266 . S
In52 O61 2.326 . S
In52 O63 2.294 . S
In52 O64 2.326 . S
O53 In52 2.294 . S
O53 C62 1.240 . S
O54 In52 2.326 . S
O54 C62 1.252 . S
C55 O58 1.252 . S
C55 O59 1.260 . S
C56 O63 1.240 . S
C56 O64 1.252 . S
C57 O60 1.252 . S
C57 O61 1.260 . S
O58 In52 2.266 . S
O58 C55 1.252 . S
O59 In52 2.326 . S
O59 C55 1.260 . S
O60 In52 2.266 . S
O60 C57 1.252 . S
O61 In52 2.326 . S
O61 C57 1.260 . S
C62 O53 1.240 . S
C62 O54 1.252 . S
O63 In52 2.294 . S
O63 C56 1.240 . S
O64 In52 2.326 . S
O64 C56 1.252 . S
In65 O66 2.294 . S
In65 O67 2.326 . S
In65 O71 2.266 . S
In65 O72 2.326 . S
In65 O73 2.266 . S
In65 O74 2.326 . S
In65 O76 2.294 . S
In65 O77 2.326 . S
O66 In65 2.294 . S
O66 C75 1.240 . S
O67 In65 2.326 . S
O67 C75 1.252 . S
C68 O71 1.252 . S
C68 O72 1.260 . S
C69 O76 1.240 . S
C69 O77 1.252 . S
C70 O73 1.252 . S
C70 O74 1.260 . S
O71 In65 2.266 . S
O71 C68 1.252 . S
O72 In65 2.326 . S
O72 C68 1.260 . S
O73 In65 2.266 . S
O73 C70 1.252 . S
O74 In65 2.326 . S
O74 C70 1.260 . S
C75 O66 1.240 . S
C75 O67 1.252 . S
O76 In65 2.294 . S
O76 C69 1.240 . S
O77 In65 2.326 . S
O77 C69 1.252 . S
In78 O79 2.294 . S
In78 O80 2.326 . S
In78 O84 2.266 . S
In78 O85 2.326 . S
In78 O86 2.266 . S
In78 O87 2.326 . S
In78 O89 2.294 . S
In78 O90 2.326 . S
O79 In78 2.294 . S
O79 C88 1.240 . S
O80 In78 2.326 . S
O80 C88 1.252 . S
C81 O84 1.252 . S
C81 O85 1.260 . S
C82 O89 1.240 . S
C82 O90 1.252 . S
C83 O86 1.252 . S
C83 O87 1.260 . S
O84 In78 2.266 . S
O84 C81 1.252 . S
O85 In78 2.326 . S
O85 C81 1.260 . S
O86 In78 2.266 . S
O86 C83 1.252 . S
O87 In78 2.326 . S
O87 C83 1.260 . S
C88 O79 1.240 . S
C88 O80 1.252 . S
O89 In78 2.294 . S
O89 C82 1.240 . S
O90 In78 2.326 . S
O90 C82 1.252 . S
In91 O92 2.294 . S
In91 O93 2.326 . S
In91 O97 2.266 . S
In91 O98 2.326 . S
In91 O99 2.266 . S
In91 O100 2.326 . S
In91 O102 2.294 . S
In91 O103 2.326 . S
O92 In91 2.294 . S
O92 C101 1.240 . S
O93 In91 2.326 . S
O93 C101 1.252 . S
C94 O97 1.252 . S
C94 O98 1.260 . S
C95 O102 1.240 . S
C95 O103 1.252 . S
C96 O99 1.252 . S
C96 O100 1.260 . S
O97 In91 2.266 . S
O97 C94 1.252 . S
O98 In91 2.326 . S
O98 C94 1.260 . S
O99 In91 2.266 . S
O99 C96 1.252 . S
O100 In91 2.326 . S
O100 C96 1.260 . S
C101 O92 1.240 . S
C101 O93 1.252 . S
O102 In91 2.294 . S
O102 C95 1.240 . S
O103 In91 2.326 . S
O103 C95 1.252 . S
In104 O105 2.294 . S
In104 O106 2.326 . S
In104 O110 2.266 . S
In104 O111 2.326 . S
In104 O112 2.266 . S
In104 O113 2.326 . S
In104 O115 2.294 . S
In104 O116 2.326 . S
O105 In104 2.294 . S
O105 C114 1.240 . S
O106 In104 2.326 . S
O106 C114 1.252 . S
C107 O110 1.252 . S
C107 O111 1.260 . S
C108 O115 1.240 . S
C108 O116 1.252 . S
C109 O112 1.252 . S
C109 O113 1.260 . S
O110 In104 2.266 . S
O110 C107 1.252 . S
O111 In104 2.326 . S
O111 C107 1.260 . S
O112 In104 2.266 . S
O112 C109 1.252 . S
O113 In104 2.326 . S
O113 C109 1.260 . S
C114 O105 1.240 . S
C114 O106 1.252 . S
O115 In104 2.294 . S
O115 C108 1.240 . S
O116 In104 2.326 . S
O116 C108 1.252 . S
In117 O118 2.294 . S
In117 O119 2.326 . S
In117 O123 2.266 . S
In117 O124 2.326 . S
In117 O125 2.266 . S
In117 O126 2.326 . S
In117 O128 2.294 . S
In117 O129 2.326 . S
O118 In117 2.294 . S
O118 C127 1.240 . S
O119 In117 2.326 . S
O119 C127 1.252 . S
C120 O123 1.252 . S
C120 O124 1.260 . S
C121 O128 1.240 . S
C121 O129 1.252 . S
C122 O125 1.252 . S
C122 O126 1.260 . S
O123 In117 2.266 . S
O123 C120 1.252 . S
O124 In117 2.326 . S
O124 C120 1.260 . S
O125 In117 2.266 . S
O125 C122 1.252 . S
O126 In117 2.326 . S
O126 C122 1.260 . S
C127 O118 1.240 . S
C127 O119 1.252 . S
O128 In117 2.294 . S
O128 C121 1.240 . S
O129 In117 2.326 . S
O129 C121 1.252 . S
In130 O131 2.294 . S
In130 O132 2.326 . S
In130 O136 2.266 . S
In130 O137 2.326 . S
In130 O138 2.266 . S
In130 O139 2.326 . S
In130 O141 2.294 . S
In130 O142 2.326 . S
O131 In130 2.294 . S
O131 C140 1.240 . S
O132 In130 2.326 . S
O132 C140 1.252 . S
C133 O136 1.252 . S
C133 O137 1.260 . S
C134 O141 1.240 . S
C134 O142 1.252 . S
C135 O138 1.252 . S
C135 O139 1.260 . S
O136 In130 2.266 . S
O136 C133 1.252 . S
O137 In130 2.326 . S
O137 C133 1.260 . S
O138 In130 2.266 . S
O138 C135 1.252 . S
O139 In130 2.326 . S
O139 C135 1.260 . S
C140 O131 1.240 . S
C140 O132 1.252 . S
O141 In130 2.294 . S
O141 C134 1.240 . S
O142 In130 2.326 . S
O142 C134 1.252 . S
In143 O144 2.294 . S
In143 O145 2.326 . S
In143 O149 2.266 . S
In143 O150 2.326 . S
In143 O151 2.266 . S
In143 O152 2.326 . S
In143 O154 2.294 . S
In143 O155 2.326 . S
O144 In143 2.294 . S
O144 C153 1.240 . S
O145 In143 2.326 . S
O145 C153 1.252 . S
C146 O149 1.252 . S
C146 O150 1.260 . S
C147 O154 1.240 . S
C147 O155 1.252 . S
C148 O151 1.252 . S
C148 O152 1.260 . S
O149 In143 2.266 . S
O149 C146 1.252 . S
O150 In143 2.326 . S
O150 C146 1.260 . S
O151 In143 2.266 . S
O151 C148 1.252 . S
O152 In143 2.326 . S
O152 C148 1.260 . S
C153 O144 1.240 . S
C153 O145 1.252 . S
O154 In143 2.294 . S
O154 C147 1.240 . S
O155 In143 2.326 . S
O155 C147 1.252 . S
In156 O157 2.294 . S
In156 O158 2.326 . S
In156 O162 2.266 . S
In156 O163 2.326 . S
In156 O164 2.266 . S
In156 O165 2.326 . S
In156 O167 2.294 . S
In156 O168 2.326 . S
O157 In156 2.294 . S
O157 C166 1.240 . S
O158 In156 2.326 . S
O158 C166 1.252 . S
C159 O162 1.252 . S
C159 O163 1.260 . S
C160 O167 1.240 . S
C160 O168 1.252 . S
C161 O164 1.252 . S
C161 O165 1.260 . S
O162 In156 2.266 . S
O162 C159 1.252 . S
O163 In156 2.326 . S
O163 C159 1.260 . S
O164 In156 2.266 . S
O164 C161 1.252 . S
O165 In156 2.326 . S
O165 C161 1.260 . S
C166 O157 1.240 . S
C166 O158 1.252 . S
O167 In156 2.294 . S
O167 C160 1.240 . S
O168 In156 2.326 . S
O168 C160 1.252 . S
In169 O170 2.294 . S
In169 O171 2.326 . S
In169 O175 2.266 . S
In169 O176 2.326 . S
In169 O177 2.266 . S
In169 O178 2.326 . S
In169 O180 2.294 . S
In169 O181 2.326 . S
O170 In169 2.294 . S
O170 C179 1.240 . S
O171 In169 2.326 . S
O171 C179 1.252 . S
C172 O175 1.252 . S
C172 O176 1.260 . S
C173 O180 1.240 . S
C173 O181 1.252 . S
C174 O177 1.252 . S
C174 O178 1.260 . S
O175 In169 2.266 . S
O175 C172 1.252 . S
O176 In169 2.326 . S
O176 C172 1.260 . S
O177 In169 2.266 . S
O177 C174 1.252 . S
O178 In169 2.326 . S
O178 C174 1.260 . S
C179 O170 1.240 . S
C179 O171 1.252 . S
O180 In169 2.294 . S
O180 C173 1.240 . S
O181 In169 2.326 . S
O181 C173 1.252 . S
In182 O183 2.294 . S
In182 O184 2.326 . S
In182 O188 2.266 . S
In182 O189 2.326 . S
In182 O190 2.266 . S
In182 O191 2.326 . S
In182 O193 2.294 . S
In182 O194 2.326 . S
O183 In182 2.294 . S
O183 C192 1.240 . S
O184 In182 2.326 . S
O184 C192 1.252 . S
C185 O188 1.252 . S
C185 O189 1.260 . S
C186 O193 1.240 . S
C186 O194 1.252 . S
C187 O190 1.252 . S
C187 O191 1.260 . S
O188 In182 2.266 . S
O188 C185 1.252 . S
O189 In182 2.326 . S
O189 C185 1.260 . S
O190 In182 2.266 . S
O190 C187 1.252 . S
O191 In182 2.326 . S
O191 C187 1.260 . S
C192 O183 1.240 . S
C192 O184 1.252 . S
O193 In182 2.294 . S
O193 C186 1.240 . S
O194 In182 2.326 . S
O194 C186 1.252 . S
In195 O196 2.294 . S
In195 O197 2.326 . S
In195 O201 2.266 . S
In195 O202 2.326 . S
In195 O203 2.266 . S
In195 O204 2.326 . S
In195 O206 2.294 . S
In195 O207 2.326 . S
O196 In195 2.294 . S
O196 C205 1.240 . S
O197 In195 2.326 . S
O197 C205 1.252 . S
C198 O201 1.252 . S
C198 O202 1.260 . S
C199 O206 1.240 . S
C199 O207 1.252 . S
C200 O203 1.252 . S
C200 O204 1.260 . S
O201 In195 2.266 . S
O201 C198 1.252 . S
O202 In195 2.326 . S
O202 C198 1.260 . S
O203 In195 2.266 . S
O203 C200 1.252 . S
O204 In195 2.326 . S
O204 C200 1.260 . S
C205 O196 1.240 . S
C205 O197 1.252 . S
O206 In195 2.294 . S
O206 C199 1.240 . S
O207 In195 2.326 . S
O207 C199 1.252 . S
H208 C216 0.950 . S
H209 C221 0.950 . S
H210 C218 0.950 . S
H211 C220 0.950 . S
H212 C222 0.950 . S
H213 C224 0.950 . S
H214 C226 0.950 . S
H215 C227 0.950 . S
C216 H208 0.950 . S
C216 C217 1.386 . S
C216 C218 1.391 . S
C217 C216 1.386 . S
C217 C221 1.393 . S
C218 H210 0.950 . S
C218 C216 1.391 . S
C218 C219 1.400 . S
C219 C218 1.400 . S
C219 C220 1.398 . S
C219 C225 1.491 1_455 S
C220 H211 0.950 . S
C220 C219 1.398 . S
C220 C221 1.391 . S
C221 H209 0.950 . S
C221 C217 1.393 . S
C221 C220 1.391 . S
C222 H212 0.950 . S
C222 C223 1.386 . S
C222 C224 1.391 . S
C223 C222 1.386 . S
C223 C227 1.393 . S
C224 H213 0.950 . S
C224 C222 1.391 . S
C224 C225 1.400 . S
C225 C219 1.491 1_655 S
C225 C224 1.400 . S
C225 C226 1.398 . S
C226 H214 0.950 . S
C226 C225 1.398 . S
C226 C227 1.391 . S
C227 H215 0.950 . S
C227 C223 1.393 . S
C227 C226 1.391 . S
H228 C236 0.950 . S
H229 C241 0.950 . S
H230 C238 0.950 . S
H231 C240 0.950 . S
H232 C242 0.950 . S
H233 C244 0.950 . S
H234 C246 0.950 . S
H235 C247 0.950 . S
C236 H228 0.950 . S
C236 C237 1.386 . S
C236 C238 1.391 . S
C237 C236 1.386 . S
C237 C241 1.393 . S
C238 H230 0.950 . S
C238 C236 1.391 . S
C238 C239 1.400 . S
C239 C238 1.400 . S
C239 C240 1.398 . S
C239 C245 1.491 1_565 S
C240 H231 0.950 . S
C240 C239 1.398 . S
C240 C241 1.391 . S
C241 H229 0.950 . S
C241 C237 1.393 . S
C241 C240 1.391 . S
C242 H232 0.950 . S
C242 C243 1.386 . S
C242 C244 1.391 . S
C243 C242 1.386 . S
C243 C247 1.393 . S
C244 H233 0.950 . S
C244 C242 1.391 . S
C244 C245 1.400 . S
C245 C239 1.491 1_545 S
C245 C244 1.400 . S
C245 C246 1.398 . S
C246 H234 0.950 . S
C246 C245 1.398 . S
C246 C247 1.391 . S
C247 H235 0.950 . S
C247 C243 1.393 . S
C247 C246 1.391 . S
H248 C256 0.950 . S
H249 C261 0.950 . S
H250 C258 0.950 . S
H251 C260 0.950 1_655 S
H252 C262 0.950 . S
H253 C264 0.950 . S
H254 C266 0.950 1_455 S
H255 C267 0.950 . S
C256 H248 0.950 . S
C256 C257 1.386 . S
C256 C258 1.391 . S
C257 C256 1.386 . S
C257 C261 1.393 . S
C258 H250 0.950 . S
C258 C256 1.391 . S
C258 C259 1.400 . S
C259 C258 1.400 . S
C259 C260 1.398 . S
C259 C265 1.491 1_455 S
C260 H251 0.950 1_455 S
C260 C259 1.398 . S
C260 C261 1.391 . S
C261 H249 0.950 . S
C261 C257 1.393 . S
C261 C260 1.391 . S
C262 H252 0.950 . S
C262 C263 1.386 . S
C262 C264 1.391 . S
C263 C262 1.386 . S
C263 C267 1.393 . S
C264 H253 0.950 . S
C264 C262 1.391 . S
C264 C265 1.400 . S
C265 C259 1.491 1_655 S
C265 C264 1.400 . S
C265 C266 1.398 . S
C266 H254 0.950 1_655 S
C266 C265 1.398 . S
C266 C267 1.391 . S
C267 H255 0.950 . S
C267 C263 1.393 . S
C267 C266 1.391 . S
H268 C276 0.950 . S
H269 C281 0.950 . S
H270 C278 0.950 . S
H271 C280 0.950 . S
H272 C282 0.950 . S
H273 C284 0.950 . S
H274 C286 0.950 . S
H275 C287 0.950 . S
C276 H268 0.950 . S
C276 C277 1.386 . S
C276 C278 1.391 . S
C277 C276 1.386 . S
C277 C281 1.393 . S
C278 H270 0.950 . S
C278 C276 1.391 . S
C278 C279 1.400 . S
C279 C278 1.400 . S
C279 C280 1.398 . S
C279 C285 1.491 1_565 S
C280 H271 0.950 . S
C280 C279 1.398 . S
C280 C281 1.391 . S
C281 H269 0.950 . S
C281 C277 1.393 . S
C281 C280 1.391 . S
C282 H272 0.950 . S
C282 C283 1.386 . S
C282 C284 1.391 . S
C283 C282 1.386 . S
C283 C287 1.393 . S
C284 H273 0.950 . S
C284 C282 1.391 . S
C284 C285 1.400 . S
C285 C279 1.491 1_545 S
C285 C284 1.400 . S
C285 C286 1.398 . S
C286 H274 0.950 . S
C286 C285 1.398 . S
C286 C287 1.391 . S
C287 H275 0.950 . S
C287 C283 1.393 . S
C287 C286 1.391 . S
H288 C296 0.950 . S
H289 C301 0.950 . S
H290 C298 0.950 . S
H291 C300 0.975 . S
H292 C302 0.950 . S
H293 C304 0.950 . S
H294 C306 0.975 . S
H295 C307 0.950 . S
C296 H288 0.950 . S
C296 C297 1.386 . S
C296 C298 1.391 . S
C297 C296 1.386 . S
C297 C301 1.393 . S
C298 H290 0.950 . S
C298 C296 1.391 . S
C298 C299 1.400 . S
C299 C298 1.400 . S
C299 C300 1.398 . S
C299 C305 1.491 1_655 S
C300 H291 0.975 . S
C300 C299 1.398 . S
C300 C301 1.391 . S
C301 H289 0.950 . S
C301 C297 1.393 . S
C301 C300 1.391 . S
C302 H292 0.950 . S
C302 C303 1.386 . S
C302 C304 1.391 . S
C303 C302 1.386 . S
C303 C307 1.393 . S
C304 H293 0.950 . S
C304 C302 1.391 . S
C304 C305 1.400 . S
C305 C299 1.491 1_455 S
C305 C304 1.400 . S
C305 C306 1.398 . S
C306 H294 0.975 . S
C306 C305 1.398 . S
C306 C307 1.391 . S
C307 H295 0.950 . S
C307 C303 1.393 . S
C307 C306 1.391 . S
H308 C316 0.950 . S
H309 C321 0.950 . S
H310 C318 0.950 . S
H311 C320 0.950 . S
H312 C322 0.950 . S
H313 C324 0.950 . S
H314 C326 0.950 . S
H315 C327 0.950 . S
C316 H308 0.950 . S
C316 C317 1.386 . S
C316 C318 1.391 . S
C317 C316 1.386 . S
C317 C321 1.393 . S
C318 H310 0.950 . S
C318 C316 1.391 . S
C318 C319 1.400 . S
C319 C318 1.400 . S
C319 C320 1.398 . S
C319 C325 1.491 1_545 S
C320 H311 0.950 . S
C320 C319 1.398 . S
C320 C321 1.391 . S
C321 H309 0.950 . S
C321 C317 1.393 . S
C321 C320 1.391 . S
C322 H312 0.950 . S
C322 C323 1.386 . S
C322 C324 1.391 . S
C323 C322 1.386 . S
C323 C327 1.393 . S
C324 H313 0.950 . S
C324 C322 1.391 . S
C324 C325 1.400 . S
C325 C319 1.491 1_565 S
C325 C324 1.400 . S
C325 C326 1.398 . S
C326 H314 0.950 . S
C326 C325 1.398 . S
C326 C327 1.391 . S
C327 H315 0.950 . S
C327 C323 1.393 . S
C327 C326 1.391 . S
H328 C336 0.950 . S
H329 C341 0.950 . S
H330 C338 0.950 . S
H331 C340 0.950 . S
H332 C342 0.950 . S
H333 C344 0.950 . S
H334 C346 0.950 . S
H335 C347 0.950 . S
C336 H328 0.950 . S
C336 C337 1.386 . S
C336 C338 1.391 . S
C337 C336 1.386 . S
C337 C341 1.393 . S
C338 H330 0.950 . S
C338 C336 1.391 . S
C338 C339 1.400 . S
C339 C338 1.400 . S
C339 C340 1.398 . S
C339 C345 1.491 1_655 S
C340 H331 0.950 . S
C340 C339 1.398 . S
C340 C341 1.391 . S
C341 H329 0.950 . S
C341 C337 1.393 . S
C341 C340 1.391 . S
C342 H332 0.950 . S
C342 C343 1.386 . S
C342 C344 1.391 . S
C343 C342 1.386 . S
C343 C347 1.393 . S
C344 H333 0.950 . S
C344 C342 1.391 . S
C344 C345 1.400 . S
C345 C339 1.491 1_455 S
C345 C344 1.400 . S
C345 C346 1.398 . S
C346 H334 0.950 . S
C346 C345 1.398 . S
C346 C347 1.391 . S
C347 H335 0.950 . S
C347 C343 1.393 . S
C347 C346 1.391 . S
H348 C356 0.950 . S
H349 C361 0.950 . S
H350 C358 0.950 . S
H351 C360 0.950 . S
H352 C362 0.950 . S
H353 C364 0.950 . S
H354 C366 0.950 . S
H355 C367 0.950 . S
C356 H348 0.950 . S
C356 C357 1.386 . S
C356 C358 1.391 . S
C357 C356 1.386 . S
C357 C361 1.393 . S
C358 H350 0.950 . S
C358 C356 1.391 . S
C358 C359 1.400 . S
C359 C358 1.400 . S
C359 C360 1.398 . S
C359 C365 1.491 1_545 S
C360 H351 0.950 . S
C360 C359 1.398 . S
C360 C361 1.391 . S
C361 H349 0.950 . S
C361 C357 1.393 . S
C361 C360 1.391 . S
C362 H352 0.950 . S
C362 C363 1.386 . S
C362 C364 1.391 . S
C363 C362 1.386 . S
C363 C367 1.393 . S
C364 H353 0.950 . S
C364 C362 1.391 . S
C364 C365 1.400 . S
C365 C359 1.491 1_565 S
C365 C364 1.400 . S
C365 C366 1.398 . S
C366 H354 0.950 . S
C366 C365 1.398 . S
C366 C367 1.391 . S
C367 H355 0.950 . S
C367 C363 1.393 . S
C367 C366 1.391 . S
H368 C376 0.950 . S
H369 C381 0.950 . S
H370 C378 0.950 . S
H371 C380 0.950 . S
H372 C382 0.950 . S
H373 C384 0.950 . S
H374 C386 0.950 . S
H375 C387 0.950 . S
C376 H368 0.950 . S
C376 C377 1.386 . S
C376 C378 1.391 . S
C377 C376 1.386 . S
C377 C381 1.393 . S
C378 H370 0.950 . S
C378 C376 1.391 . S
C378 C379 1.400 . S
C379 C378 1.400 . S
C379 C380 1.398 . S
C379 C385 1.491 . S
C380 H371 0.950 . S
C380 C379 1.398 . S
C380 C381 1.391 . S
C381 H369 0.950 . S
C381 C377 1.393 . S
C381 C380 1.391 . S
C382 H372 0.950 . S
C382 C383 1.386 . S
C382 C384 1.391 . S
C383 C382 1.386 . S
C383 C387 1.393 . S
C384 H373 0.950 . S
C384 C382 1.391 . S
C384 C385 1.400 . S
C385 C379 1.491 . S
C385 C384 1.400 . S
C385 C386 1.398 . S
C386 H374 0.950 . S
C386 C385 1.398 . S
C386 C387 1.391 . S
C387 H375 0.950 . S
C387 C383 1.393 . S
C387 C386 1.391 . S
H388 C396 0.950 . S
H389 C401 0.950 . S
H390 C398 0.950 . S
H391 C400 0.950 . S
H392 C402 0.950 . S
H393 C404 0.950 . S
H394 C406 0.950 . S
H395 C407 0.950 . S
C396 H388 0.950 . S
C396 C397 1.386 . S
C396 C398 1.391 . S
C397 C396 1.386 . S
C397 C401 1.393 . S
C398 H390 0.950 . S
C398 C396 1.391 . S
C398 C399 1.400 . S
C399 C398 1.400 . S
C399 C400 1.398 . S
C399 C405 1.491 . S
C400 H391 0.950 . S
C400 C399 1.398 . S
C400 C401 1.391 . S
C401 H389 0.950 . S
C401 C397 1.393 . S
C401 C400 1.391 . S
C402 H392 0.950 . S
C402 C403 1.386 . S
C402 C404 1.391 . S
C403 C402 1.386 . S
C403 C407 1.393 . S
C404 H393 0.950 . S
C404 C402 1.391 . S
C404 C405 1.400 . S
C405 C399 1.491 . S
C405 C404 1.400 . S
C405 C406 1.398 . S
C406 H394 0.950 . S
C406 C405 1.398 . S
C406 C407 1.391 . S
C407 H395 0.950 . S
C407 C403 1.393 . S
C407 C406 1.391 . S
H408 C416 0.950 . S
H409 C421 0.950 . S
H410 C418 0.950 . S
H411 C420 0.950 . S
H412 C422 0.950 . S
H413 C424 0.950 . S
H414 C426 0.950 . S
H415 C427 0.950 . S
C416 H408 0.950 . S
C416 C417 1.386 . S
C416 C418 1.391 . S
C417 C416 1.386 . S
C417 C421 1.393 . S
C418 H410 0.950 . S
C418 C416 1.391 . S
C418 C419 1.400 . S
C419 C418 1.400 . S
C419 C420 1.398 . S
C419 C425 1.491 . S
C420 H411 0.950 . S
C420 C419 1.398 . S
C420 C421 1.391 . S
C421 H409 0.950 . S
C421 C417 1.393 . S
C421 C420 1.391 . S
C422 H412 0.950 . S
C422 C423 1.386 . S
C422 C424 1.391 . S
C423 C422 1.386 . S
C423 C427 1.393 . S
C424 H413 0.950 . S
C424 C422 1.391 . S
C424 C425 1.400 . S
C425 C419 1.491 . S
C425 C424 1.400 . S
C425 C426 1.398 . S
C426 H414 0.950 . S
C426 C425 1.398 . S
C426 C427 1.391 . S
C427 H415 0.950 . S
C427 C423 1.393 . S
C427 C426 1.391 . S
H428 C436 0.950 . S
H429 C441 0.950 . S
H430 C438 0.950 . S
H431 C440 0.950 . S
H432 C442 0.950 . S
H433 C444 0.950 . S
H434 C446 0.950 . S
H435 C447 0.950 . S
C436 H428 0.950 . S
C436 C437 1.386 . S
C436 C438 1.391 . S
C437 C436 1.386 . S
C437 C441 1.393 . S
C438 H430 0.950 . S
C438 C436 1.391 . S
C438 C439 1.400 . S
C439 C438 1.400 . S
C439 C440 1.398 . S
C439 C445 1.491 . S
C440 H431 0.950 . S
C440 C439 1.398 . S
C440 C441 1.391 . S
C441 H429 0.950 . S
C441 C437 1.393 . S
C441 C440 1.391 . S
C442 H432 0.950 . S
C442 C443 1.386 . S
C442 C444 1.391 . S
C443 C442 1.386 . S
C443 C447 1.393 . S
C444 H433 0.950 . S
C444 C442 1.391 . S
C444 C445 1.400 . S
C445 C439 1.491 . S
C445 C444 1.400 . S
C445 C446 1.398 . S
C446 H434 0.950 . S
C446 C445 1.398 . S
C446 C447 1.391 . S
C447 H435 0.950 . S
C447 C443 1.393 . S
C447 C446 1.391 . S
H448 C456 0.950 . S
H449 C461 0.950 . S
H450 C458 0.950 . S
H451 C460 0.950 . S
H452 C462 0.950 . S
H453 C464 0.950 . S
H454 C466 0.950 . S
H455 C467 0.950 . S
C456 H448 0.950 . S
C456 C457 1.386 . S
C456 C458 1.391 . S
C457 C456 1.386 . S
C457 C461 1.393 . S
C458 H450 0.950 . S
C458 C456 1.391 . S
C458 C459 1.400 . S
C459 C458 1.400 . S
C459 C460 1.398 . S
C459 C465 1.491 . S
C460 H451 0.950 . S
C460 C459 1.398 . S
C460 C461 1.391 . S
C461 H449 0.950 . S
C461 C457 1.393 . S
C461 C460 1.391 . S
C462 H452 0.950 . S
C462 C463 1.386 . S
C462 C464 1.391 . S
C463 C462 1.386 . S
C463 C467 1.393 . S
C464 H453 0.950 . S
C464 C462 1.391 . S
C464 C465 1.400 . S
C465 C459 1.491 . S
C465 C464 1.400 . S
C465 C466 1.398 . S
C466 H454 0.950 . S
C466 C465 1.398 . S
C466 C467 1.391 . S
C467 H455 0.950 . S
C467 C463 1.393 . S
C467 C466 1.391 . S
H468 C476 0.950 . S
H469 C481 0.950 . S
H470 C478 0.950 . S
H471 C480 0.950 . S
H472 C482 0.950 . S
H473 C484 0.950 . S
H474 C486 0.950 . S
H475 C487 0.950 . S
C476 H468 0.950 . S
C476 C477 1.386 . S
C476 C478 1.391 . S
C477 C476 1.386 . S
C477 C481 1.393 . S
C478 H470 0.950 . S
C478 C476 1.391 . S
C478 C479 1.400 . S
C479 C478 1.400 . S
C479 C480 1.398 . S
C479 C485 1.491 . S
C480 H471 0.950 . S
C480 C479 1.398 . S
C480 C481 1.391 . S
C481 H469 0.950 . S
C481 C477 1.393 . S
C481 C480 1.391 . S
C482 H472 0.950 . S
C482 C483 1.386 . S
C482 C484 1.391 . S
C483 C482 1.386 . S
C483 C487 1.393 . S
C484 H473 0.950 . S
C484 C482 1.391 . S
C484 C485 1.400 . S
C485 C479 1.491 . S
C485 C484 1.400 . S
C485 C486 1.398 . S
C486 H474 0.950 . S
C486 C485 1.398 . S
C486 C487 1.391 . S
C487 H475 0.950 . S
C487 C483 1.393 . S
C487 C486 1.391 . S
H488 C496 0.950 . S
H489 C501 0.950 . S
H490 C498 0.950 . S
H491 C500 0.950 . S
H492 C502 0.950 . S
H493 C504 0.950 . S
H494 C506 0.950 . S
H495 C507 0.950 . S
C496 H488 0.950 . S
C496 C497 1.386 . S
C496 C498 1.391 . S
C497 C496 1.386 . S
C497 C501 1.393 . S
C498 H490 0.950 . S
C498 C496 1.391 . S
C498 C499 1.400 . S
C499 C498 1.400 . S
C499 C500 1.398 . S
C499 C505 1.491 . S
C500 H491 0.950 . S
C500 C499 1.398 . S
C500 C501 1.391 . S
C501 H489 0.950 . S
C501 C497 1.393 . S
C501 C500 1.391 . S
C502 H492 0.950 . S
C502 C503 1.386 . S
C502 C504 1.391 . S
C503 C502 1.386 . S
C503 C507 1.393 . S
C504 H493 0.950 . S
C504 C502 1.391 . S
C504 C505 1.400 . S
C505 C499 1.491 . S
C505 C504 1.400 . S
C505 C506 1.398 . S
C506 H494 0.950 . S
C506 C505 1.398 . S
C506 C507 1.391 . S
C507 H495 0.950 . S
C507 C503 1.393 . S
C507 C506 1.391 . S
H508 C516 0.950 . S
H509 C521 0.950 . S
H510 C518 0.950 . S
H511 C520 0.950 . S
H512 C522 0.950 . S
H513 C524 0.950 . S
H514 C526 0.950 . S
H515 C527 0.950 . S
C516 H508 0.950 . S
C516 C517 1.386 . S
C516 C518 1.391 . S
C517 C516 1.386 . S
C517 C521 1.393 . S
C518 H510 0.950 . S
C518 C516 1.391 . S
C518 C519 1.400 . S
C519 C518 1.400 . S
C519 C520 1.398 . S
C519 C525 1.491 . S
C520 H511 0.950 . S
C520 C519 1.398 . S
C520 C521 1.391 . S
C521 H509 0.950 . S
C521 C517 1.393 . S
C521 C520 1.391 . S
C522 H512 0.950 . S
C522 C523 1.386 . S
C522 C524 1.391 . S
C523 C522 1.386 . S
C523 C527 1.393 . S
C524 H513 0.950 . S
C524 C522 1.391 . S
C524 C525 1.400 . S
C525 C519 1.491 . S
C525 C524 1.400 . S
C525 C526 1.398 . S
C526 H514 0.950 . S
C526 C525 1.398 . S
C526 C527 1.391 . S
C527 H515 0.950 . S
C527 C523 1.393 . S
C527 C526 1.391 . S
H528 C536 0.950 . S
H529 C541 0.950 . S
H530 C538 0.950 . S
H531 C540 0.950 . S
H532 C542 0.950 . S
H533 C544 0.950 . S
H534 C546 0.950 . S
H535 C547 0.950 . S
C536 H528 0.950 . S
C536 C537 1.386 . S
C536 C538 1.391 . S
C537 C536 1.386 . S
C537 C541 1.393 . S
C538 H530 0.950 . S
C538 C536 1.391 . S
C538 C539 1.400 . S
C539 C538 1.400 . S
C539 C540 1.398 . S
C539 C545 1.491 1_556 S
C540 H531 0.950 . S
C540 C539 1.398 . S
C540 C541 1.391 . S
C541 H529 0.950 . S
C541 C537 1.393 . S
C541 C540 1.391 . S
C542 H532 0.950 . S
C542 C543 1.386 . S
C542 C544 1.391 . S
C543 C542 1.386 . S
C543 C547 1.393 . S
C544 H533 0.950 . S
C544 C542 1.391 . S
C544 C545 1.400 . S
C545 C539 1.491 1_554 S
C545 C544 1.400 . S
C545 C546 1.398 . S
C546 H534 0.950 . S
C546 C545 1.398 . S
C546 C547 1.391 . S
C547 H535 0.950 . S
C547 C543 1.393 . S
C547 C546 1.391 . S
H548 C556 0.950 . S
H549 C561 0.950 . S
H550 C558 0.950 . S
H551 C560 0.950 . S
H552 C562 0.950 . S
H553 C564 0.950 . S
H554 C566 0.950 . S
H555 C567 0.950 . S
C556 H548 0.950 . S
C556 C557 1.386 . S
C556 C558 1.391 . S
C557 C556 1.386 . S
C557 C561 1.393 . S
C558 H550 0.950 . S
C558 C556 1.391 . S
C558 C559 1.400 . S
C559 C558 1.400 . S
C559 C560 1.398 . S
C559 C565 1.491 . S
C560 H551 0.950 . S
C560 C559 1.398 . S
C560 C561 1.391 . S
C561 H549 0.950 . S
C561 C557 1.393 . S
C561 C560 1.391 . S
C562 H552 0.950 . S
C562 C563 1.386 . S
C562 C564 1.391 . S
C563 C562 1.386 . S
C563 C567 1.393 . S
C564 H553 0.950 . S
C564 C562 1.391 . S
C564 C565 1.400 . S
C565 C559 1.491 . S
C565 C564 1.400 . S
C565 C566 1.398 . S
C566 H554 0.950 . S
C566 C565 1.398 . S
C566 C567 1.391 . S
C567 H555 0.950 . S
C567 C563 1.393 . S
C567 C566 1.391 . S
H568 C576 0.950 . S
H569 C581 0.950 . S
H570 C578 0.950 . S
H571 C580 0.950 . S
H572 C582 0.950 . S
H573 C584 0.950 . S
H574 C586 0.950 . S
H575 C587 0.950 . S
C576 H568 0.950 . S
C576 C577 1.386 . S
C576 C578 1.391 . S
C577 C576 1.386 . S
C577 C581 1.393 . S
C578 H570 0.950 . S
C578 C576 1.391 . S
C578 C579 1.400 . S
C579 C578 1.400 . S
C579 C580 1.398 . S
C579 C585 1.491 1_554 S
C580 H571 0.950 . S
C580 C579 1.398 . S
C580 C581 1.391 . S
C581 H569 0.950 . S
C581 C577 1.393 . S
C581 C580 1.391 . S
C582 H572 0.950 . S
C582 C583 1.386 . S
C582 C584 1.391 . S
C583 C582 1.386 . S
C583 C587 1.393 . S
C584 H573 0.950 . S
C584 C582 1.391 . S
C584 C585 1.400 . S
C585 C579 1.491 1_556 S
C585 C584 1.400 . S
C585 C586 1.398 . S
C586 H574 0.950 . S
C586 C585 1.398 . S
C586 C587 1.391 . S
C587 H575 0.950 . S
C587 C583 1.393 . S
C587 C586 1.391 . S
H588 C596 0.950 . S
H589 C601 0.950 . S
H590 C598 0.950 . S
H591 C600 0.950 . S
H592 C602 0.950 . S
H593 C604 0.950 . S
H594 C606 0.950 . S
H595 C607 0.950 . S
C596 H588 0.950 . S
C596 C597 1.386 . S
C596 C598 1.391 . S
C597 C596 1.386 . S
C597 C601 1.393 . S
C598 H590 0.950 . S
C598 C596 1.391 . S
C598 C599 1.400 . S
C599 C598 1.400 . S
C599 C600 1.398 . S
C599 C605 1.491 . S
C600 H591 0.950 . S
C600 C599 1.398 . S
C600 C601 1.391 . S
C601 H589 0.950 . S
C601 C597 1.393 . S
C601 C600 1.391 . S
C602 H592 0.950 . S
C602 C603 1.386 . S
C602 C604 1.391 . S
C603 C602 1.386 . S
C603 C607 1.393 . S
C604 H593 0.950 . S
C604 C602 1.391 . S
C604 C605 1.400 . S
C605 C599 1.491 . S
C605 C604 1.400 . S
C605 C606 1.398 . S
C606 H594 0.950 . S
C606 C605 1.398 . S
C606 C607 1.391 . S
C607 H595 0.950 . S
C607 C603 1.393 . S
C607 C606 1.391 . S
H608 C616 0.950 . S
H609 C621 0.950 . S
H610 C618 0.950 . S
H611 C620 0.950 . S
H612 C622 0.950 . S
H613 C624 0.950 . S
H614 C626 0.950 . S
H615 C627 0.950 . S
C616 H608 0.950 . S
C616 C617 1.386 . S
C616 C618 1.391 . S
C617 C616 1.386 . S
C617 C621 1.393 . S
C618 H610 0.950 . S
C618 C616 1.391 . S
C618 C619 1.400 . S
C619 C618 1.400 . S
C619 C620 1.398 . S
C619 C625 1.491 . S
C620 H611 0.950 . S
C620 C619 1.398 . S
C620 C621 1.391 . S
C621 H609 0.950 . S
C621 C617 1.393 . S
C621 C620 1.391 . S
C622 H612 0.950 . S
C622 C623 1.386 . S
C622 C624 1.391 . S
C623 C622 1.386 . S
C623 C627 1.393 . S
C624 H613 0.950 . S
C624 C622 1.391 . S
C624 C625 1.400 . S
C625 C619 1.491 . S
C625 C624 1.400 . S
C625 C626 1.398 . S
C626 H614 0.950 . S
C626 C625 1.398 . S
C626 C627 1.391 . S
C627 H615 0.950 . S
C627 C623 1.393 . S
C627 C626 1.391 . S
H628 C636 0.950 . S
H629 C641 0.950 . S
H630 C638 0.950 . S
H631 C640 0.950 . S
H632 C642 0.950 . S
H633 C644 0.950 . S
H634 C646 0.950 . S
H635 C647 0.950 . S
C636 H628 0.950 . S
C636 C637 1.386 . S
C636 C638 1.391 . S
C637 C636 1.386 . S
C637 C641 1.393 . S
C638 H630 0.950 . S
C638 C636 1.391 . S
C638 C639 1.400 . S
C639 C638 1.400 . S
C639 C640 1.398 . S
C639 C645 1.491 1_556 S
C640 H631 0.950 . S
C640 C639 1.398 . S
C640 C641 1.391 . S
C641 H629 0.950 . S
C641 C637 1.393 . S
C641 C640 1.391 . S
C642 H632 0.950 . S
C642 C643 1.386 . S
C642 C644 1.391 . S
C643 C642 1.386 . S
C643 C647 1.393 . S
C644 H633 0.950 . S
C644 C642 1.391 . S
C644 C645 1.400 . S
C645 C639 1.491 1_554 S
C645 C644 1.400 . S
C645 C646 1.398 . S
C646 H634 0.950 . S
C646 C645 1.398 . S
C646 C647 1.391 . S
C647 H635 0.950 . S
C647 C643 1.393 . S
C647 C646 1.391 . S
H648 C656 0.950 . S
H649 C661 0.950 . S
H650 C658 0.950 . S
H651 C660 0.950 . S
H652 C662 0.950 . S
H653 C664 0.950 . S
H654 C666 0.950 . S
H655 C667 0.950 . S
C656 H648 0.950 . S
C656 C657 1.386 . S
C656 C658 1.391 . S
C657 C656 1.386 . S
C657 C661 1.393 . S
C658 H650 0.950 . S
C658 C656 1.391 . S
C658 C659 1.400 . S
C659 C658 1.400 . S
C659 C660 1.398 . S
C659 C665 1.491 . S
C660 H651 0.950 . S
C660 C659 1.398 . S
C660 C661 1.391 . S
C661 H649 0.950 . S
C661 C657 1.393 . S
C661 C660 1.391 . S
C662 H652 0.950 . S
C662 C663 1.386 . S
C662 C664 1.391 . S
C663 C662 1.386 . S
C663 C667 1.393 . S
C664 H653 0.950 . S
C664 C662 1.391 . S
C664 C665 1.400 . S
C665 C659 1.491 . S
C665 C664 1.400 . S
C665 C666 1.398 . S
C666 H654 0.950 . S
C666 C665 1.398 . S
C666 C667 1.391 . S
C667 H655 0.950 . S
C667 C663 1.393 . S
C667 C666 1.391 . S
H668 C676 0.950 . S
H669 C681 0.950 . S
H670 C678 0.950 . S
H671 C680 0.950 . S
H672 C682 0.950 . S
H673 C684 0.950 . S
H674 C686 0.950 . S
H675 C687 0.950 . S
C676 H668 0.950 . S
C676 C677 1.386 . S
C676 C678 1.391 . S
C677 C676 1.386 . S
C677 C681 1.393 . S
C678 H670 0.950 . S
C678 C676 1.391 . S
C678 C679 1.400 . S
C679 C678 1.400 . S
C679 C680 1.398 . S
C679 C685 1.491 1_554 S
C680 H671 0.950 . S
C680 C679 1.398 . S
C680 C681 1.391 . S
C681 H669 0.950 . S
C681 C677 1.393 . S
C681 C680 1.391 . S
C682 H672 0.950 . S
C682 C683 1.386 . S
C682 C684 1.391 . S
C683 C682 1.386 . S
C683 C687 1.393 . S
C684 H673 0.950 . S
C684 C682 1.391 . S
C684 C685 1.400 . S
C685 C679 1.491 1_556 S
C685 C684 1.400 . S
C685 C686 1.398 . S
C686 H674 0.950 . S
C686 C685 1.398 . S
C686 C687 1.391 . S
C687 H675 0.950 . S
C687 C683 1.393 . S
C687 C686 1.391 . S
H688 C696 0.950 . S
H689 C701 0.950 . S
H690 C698 0.950 . S
H691 C700 0.950 . S
H692 C702 0.950 . S
H693 C704 0.950 . S
H694 C706 0.950 . S
H695 C707 0.950 . S
C696 H688 0.950 . S
C696 C697 1.386 . S
C696 C698 1.391 . S
C697 C696 1.386 . S
C697 C701 1.393 . S
C698 H690 0.950 . S
C698 C696 1.391 . S
C698 C699 1.400 . S
C699 C698 1.400 . S
C699 C700 1.398 . S
C699 C705 1.491 . S
C700 H691 0.950 . S
C700 C699 1.398 . S
C700 C701 1.391 . S
C701 H689 0.950 . S
C701 C697 1.393 . S
C701 C700 1.391 . S
C702 H692 0.950 . S
C702 C703 1.386 . S
C702 C704 1.391 . S
C703 C702 1.386 . S
C703 C707 1.393 . S
C704 H693 0.950 . S
C704 C702 1.391 . S
C704 C705 1.400 . S
C705 C699 1.491 . S
C705 C704 1.400 . S
C705 C706 1.398 . S
C706 H694 0.950 . S
C706 C705 1.398 . S
C706 C707 1.391 . S
C707 H695 0.950 . S
C707 C703 1.393 . S
C707 C706 1.391 . S
H708 C716 0.950 . S
H709 C721 0.950 . S
H710 C718 0.950 . S
H711 C720 0.950 . S
H712 C722 0.950 . S
H713 C724 0.950 . S
H714 C726 0.950 . S
H715 C727 0.950 . S
C716 H708 0.950 . S
C716 C717 1.386 . S
C716 C718 1.391 . S
C717 C716 1.386 . S
C717 C721 1.393 . S
C718 H710 0.950 . S
C718 C716 1.391 . S
C718 C719 1.400 . S
C719 C718 1.400 . S
C719 C720 1.398 . S
C719 C725 1.491 . S
C720 H711 0.950 . S
C720 C719 1.398 . S
C720 C721 1.391 . S
C721 H709 0.950 . S
C721 C717 1.393 . S
C721 C720 1.391 . S
C722 H712 0.950 . S
C722 C723 1.386 . S
C722 C724 1.391 . S
C723 C722 1.386 . S
C723 C727 1.393 . S
C724 H713 0.950 . S
C724 C722 1.391 . S
C724 C725 1.400 . S
C725 C719 1.491 . S
C725 C724 1.400 . S
C725 C726 1.398 . S
C726 H714 0.950 . S
C726 C725 1.398 . S
C726 C727 1.391 . S
C727 H715 0.950 . S
C727 C723 1.393 . S
C727 C726 1.391 . S
H728 C736 0.950 . S
H729 C741 0.950 . S
H730 C738 0.950 . S
H731 C740 0.950 . S
H732 C742 0.950 . S
H733 C744 0.950 . S
H734 C746 0.950 . S
H735 C747 0.950 . S
C736 H728 0.950 . S
C736 C737 1.386 . S
C736 C738 1.391 . S
C737 C736 1.386 . S
C737 C741 1.393 . S
C738 H730 0.950 . S
C738 C736 1.391 . S
C738 C739 1.400 . S
C739 C738 1.400 . S
C739 C740 1.398 . S
C739 C745 1.491 . S
C740 H731 0.950 . S
C740 C739 1.398 . S
C740 C741 1.391 . S
C741 H729 0.950 . S
C741 C737 1.393 . S
C741 C740 1.391 . S
C742 H732 0.950 . S
C742 C743 1.386 . S
C742 C744 1.391 . S
C743 C742 1.386 . S
C743 C747 1.393 . S
C744 H733 0.950 . S
C744 C742 1.391 . S
C744 C745 1.400 . S
C745 C739 1.491 . S
C745 C744 1.400 . S
C745 C746 1.398 . S
C746 H734 0.950 . S
C746 C745 1.398 . S
C746 C747 1.391 . S
C747 H735 0.950 . S
C747 C743 1.393 . S
C747 C746 1.391 . S
H748 C756 0.950 . S
H749 C761 0.950 . S
H750 C758 0.950 . S
H751 C760 0.950 . S
H752 C762 0.950 . S
H753 C764 0.950 . S
H754 C766 0.950 . S
H755 C767 0.950 . S
C756 H748 0.950 . S
C756 C757 1.386 . S
C756 C758 1.391 . S
C757 C756 1.386 . S
C757 C761 1.393 . S
C758 H750 0.950 . S
C758 C756 1.391 . S
C758 C759 1.400 . S
C759 C758 1.400 . S
C759 C760 1.398 . S
C759 C765 1.491 . S
C760 H751 0.950 . S
C760 C759 1.398 . S
C760 C761 1.391 . S
C761 H749 0.950 . S
C761 C757 1.393 . S
C761 C760 1.391 . S
C762 H752 0.950 . S
C762 C763 1.386 . S
C762 C764 1.391 . S
C763 C762 1.386 . S
C763 C767 1.393 . S
C764 H753 0.950 . S
C764 C762 1.391 . S
C764 C765 1.400 . S
C765 C759 1.491 . S
C765 C764 1.400 . S
C765 C766 1.398 . S
C766 H754 0.950 . S
C766 C765 1.398 . S
C766 C767 1.391 . S
C767 H755 0.950 . S
C767 C763 1.393 . S
C767 C766 1.391 . S
H768 C776 0.950 . S
H769 C781 0.950 . S
H770 C778 0.950 . S
H771 C780 0.950 . S
H772 C782 0.950 . S
H773 C784 0.950 . S
H774 C786 0.950 . S
H775 C787 0.950 . S
C776 H768 0.950 . S
C776 C777 1.386 . S
C776 C778 1.391 . S
C777 C776 1.386 . S
C777 C781 1.393 . S
C778 H770 0.950 . S
C778 C776 1.391 . S
C778 C779 1.400 . S
C779 C778 1.400 . S
C779 C780 1.398 . S
C779 C785 1.491 . S
C780 H771 0.950 . S
C780 C779 1.398 . S
C780 C781 1.391 . S
C781 H769 0.950 . S
C781 C777 1.393 . S
C781 C780 1.391 . S
C782 H772 0.950 . S
C782 C783 1.386 . S
C782 C784 1.391 . S
C783 C782 1.386 . S
C783 C787 1.393 . S
C784 H773 0.950 . S
C784 C782 1.391 . S
C784 C785 1.400 . S
C785 C779 1.491 . S
C785 C784 1.400 . S
C785 C786 1.398 . S
C786 H774 0.950 . S
C786 C785 1.398 . S
C786 C787 1.391 . S
C787 H775 0.950 . S
C787 C783 1.393 . S
C787 C786 1.391 . S
H788 C796 0.950 . S
H789 C801 0.950 . S
H790 C798 0.950 . S
H791 C800 0.950 . S
H792 C802 0.950 . S
H793 C804 0.950 . S
H794 C806 0.950 . S
H795 C807 0.950 . S
C796 H788 0.950 . S
C796 C797 1.386 . S
C796 C798 1.391 . S
C797 C796 1.386 . S
C797 C801 1.393 . S
C798 H790 0.950 . S
C798 C796 1.391 . S
C798 C799 1.400 . S
C799 C798 1.400 . S
C799 C800 1.398 . S
C799 C805 1.491 . S
C800 H791 0.950 . S
C800 C799 1.398 . S
C800 C801 1.391 . S
C801 H789 0.950 . S
C801 C797 1.393 . S
C801 C800 1.391 . S
C802 H792 0.950 . S
C802 C803 1.386 . S
C802 C804 1.391 . S
C803 C802 1.386 . S
C803 C807 1.393 . S
C804 H793 0.950 . S
C804 C802 1.391 . S
C804 C805 1.400 . S
C805 C799 1.491 . S
C805 C804 1.400 . S
C805 C806 1.398 . S
C806 H794 0.950 . S
C806 C805 1.398 . S
C806 C807 1.391 . S
C807 H795 0.950 . S
C807 C803 1.393 . S
C807 C806 1.391 . S
H808 C816 0.950 . S
H809 C821 0.950 . S
H810 C818 0.950 . S
H811 C820 0.950 . S
H812 C822 0.950 . S
H813 C824 0.950 . S
H814 C826 0.950 . S
H815 C827 0.950 . S
C816 H808 0.950 . S
C816 C817 1.386 . S
C816 C818 1.391 . S
C817 C816 1.386 . S
C817 C821 1.393 . S
C818 H810 0.950 . S
C818 C816 1.391 . S
C818 C819 1.400 . S
C819 C818 1.400 . S
C819 C820 1.398 . S
C819 C825 1.491 . S
C820 H811 0.950 . S
C820 C819 1.398 . S
C820 C821 1.391 . S
C821 H809 0.950 . S
C821 C817 1.393 . S
C821 C820 1.391 . S
C822 H812 0.950 . S
C822 C823 1.386 . S
C822 C824 1.391 . S
C823 C822 1.386 . S
C823 C827 1.393 . S
C824 H813 0.950 . S
C824 C822 1.391 . S
C824 C825 1.400 . S
C825 C819 1.491 . S
C825 C824 1.400 . S
C825 C826 1.398 . S
C826 H814 0.950 . S
C826 C825 1.398 . S
C826 C827 1.391 . S
C827 H815 0.950 . S
C827 C823 1.393 . S
C827 C826 1.391 . S
H828 C836 0.950 . S
H829 C841 0.950 . S
H830 C838 0.950 . S
H831 C840 0.950 . S
H832 C842 0.950 . S
H833 C844 0.950 . S
H834 C846 0.950 . S
H835 C847 0.950 . S
C836 H828 0.950 . S
C836 C837 1.386 . S
C836 C838 1.391 . S
C837 C836 1.386 . S
C837 C841 1.393 . S
C838 H830 0.950 . S
C838 C836 1.391 . S
C838 C839 1.400 . S
C839 C838 1.400 . S
C839 C840 1.398 . S
C839 C845 1.491 . S
C840 H831 0.950 . S
C840 C839 1.398 . S
C840 C841 1.391 . S
C841 H829 0.950 . S
C841 C837 1.393 . S
C841 C840 1.391 . S
C842 H832 0.950 . S
C842 C843 1.386 . S
C842 C844 1.391 . S
C843 C842 1.386 . S
C843 C847 1.393 . S
C844 H833 0.950 . S
C844 C842 1.391 . S
C844 C845 1.400 . S
C845 C839 1.491 . S
C845 C844 1.400 . S
C845 C846 1.398 . S
C846 H834 0.950 . S
C846 C845 1.398 . S
C846 C847 1.391 . S
C847 H835 0.950 . S
C847 C843 1.393 . S
C847 C846 1.391 . S
C217 C3 1.397 . S
C223 C31 1.396 . S
C237 C42 1.383 . S
C243 C18 1.379 . S
C257 C55 1.383 . S
C263 C81 1.389 . S
C277 C96 1.379 . S
C283 C70 1.377 . S
C297 C107 1.395 . S
C303 C135 1.391 . S
C317 C146 1.396 . S
C323 C122 1.397 . S
C337 C159 1.377 . S
C343 C187 1.379 . S
C357 C200 1.391 . S
C363 C172 1.395 . S
C377 C57 1.286 . S
C383 C5 1.281 . S
C397 C16 1.283 . S
C403 C68 1.291 . S
C417 C29 1.284 . S
C423 C83 1.282 . S
C437 C94 1.290 . S
C443 C44 1.282 . S
C457 C109 1.289 . S
C463 C161 1.299 . S
C477 C120 1.284 . S
C483 C174 1.282 . S
C497 C133 1.303 . S
C503 C185 1.297 . S
C517 C148 1.289 . S
C523 C198 1.282 . S
C537 C140 1.340 . S
C543 C4 1.354 . S
C557 C147 1.343 . S
C563 C23 1.351 . S
C577 C36 1.345 . S
C583 C108 1.348 . S
C597 C43 1.340 . S
C603 C127 1.354 . S
C617 C56 1.346 . S
C623 C192 1.348 . S
C637 C75 1.342 . S
C643 C205 1.352 . S
C657 C82 1.351 . S
C663 C160 1.343 . S
C677 C173 1.354 . S
C683 C101 1.340 . S
C697 C10 1.327 . S
C703 C199 1.318 . S
C717 C166 1.322 . S
C723 C17 1.324 . S
C737 C30 1.321 . S
C743 C179 1.325 . S
C757 C186 1.322 . S
C763 C49 1.324 . S
C777 C121 1.318 . S
C783 C62 1.328 . S
C797 C69 1.318 . S
C803 C134 1.327 . S
C817 C153 1.323 . S
C823 C88 1.322 . S
C837 C114 1.327 . S
C843 C95 1.319 . S
