# Generated by pormake.
# Topology ukf, (4)-cn, num edge types: 1
# Building blocks:
#     Node 0, Type 0, BuildingBlock: QUQFOY_clean_sbu_3, # of connection points: 4
#     Node 1, Type 0, BuildingBlock: QUQFOY_clean_sbu_3, # of connection points: 4
#     Node 2, Type 0, BuildingBlock: QUQFOY_clean_sbu_3, # of connection points: 4
#     Node 3, Type 0, BuildingBlock: QUQFOY_clean_sbu_3, # of connection points: 4
#     Node 4, Type 0, BuildingBlock: QUQFOY_clean_sbu_3, # of connection points: 4
#     Node 5, Type 0, BuildingBlock: QUQFOY_clean_sbu_3, # of connection points: 4
#     Node 6, Type 0, BuildingBlock: QUQFOY_clean_sbu_3, # of connection points: 4
#     Node 7, Type 0, BuildingBlock: QUQFOY_clean_sbu_3, # of connection points: 4
#     Node 8, Type 0, BuildingBlock: QUQFOY_clean_sbu_3, # of connection points: 4
#     Node 9, Type 0, BuildingBlock: QUQFOY_clean_sbu_3, # of connection points: 4
#     Node 10, Type 0, BuildingBlock: QUQFOY_clean_sbu_3, # of connection points: 4
#     Node 11, Type 0, BuildingBlock: QUQFOY_clean_sbu_3, # of connection points: 4
#     Edge 12, Type (0, 0), BuildingBlock: CIFDUS_clean_linker_0, # of connection points: 2
#     Edge 13, Type (0, 0), BuildingBlock: CIFDUS_clean_linker_0, # of connection points: 2
#     Edge 14, Type (0, 0), BuildingBlock: CIFDUS_clean_linker_0, # of connection points: 2
#     Edge 15, Type (0, 0), BuildingBlock: CIFDUS_clean_linker_0, # of connection points: 2
#     Edge 16, Type (0, 0), BuildingBlock: CIFDUS_clean_linker_0, # of connection points: 2
#     Edge 17, Type (0, 0), BuildingBlock: CIFDUS_clean_linker_0, # of connection points: 2
#     Edge 18, Type (0, 0), BuildingBlock: CIFDUS_clean_linker_0, # of connection points: 2
#     Edge 19, Type (0, 0), BuildingBlock: CIFDUS_clean_linker_0, # of connection points: 2
#     Edge 20, Type (0, 0), BuildingBlock: CIFDUS_clean_linker_0, # of connection points: 2
#     Edge 21, Type (0, 0), BuildingBlock: CIFDUS_clean_linker_0, # of connection points: 2
#     Edge 22, Type (0, 0), BuildingBlock: CIFDUS_clean_linker_0, # of connection points: 2
#     Edge 23, Type (0, 0), BuildingBlock: CIFDUS_clean_linker_0, # of connection points: 2
#     Edge 24, Type (0, 0), BuildingBlock: CIFDUS_clean_linker_0, # of connection points: 2
#     Edge 25, Type (0, 0), BuildingBlock: CIFDUS_clean_linker_0, # of connection points: 2
#     Edge 26, Type (0, 0), BuildingBlock: CIFDUS_clean_linker_0, # of connection points: 2
#     Edge 27, Type (0, 0), BuildingBlock: CIFDUS_clean_linker_0, # of connection points: 2
#     Edge 28, Type (0, 0), BuildingBlock: CIFDUS_clean_linker_0, # of connection points: 2
#     Edge 29, Type (0, 0), BuildingBlock: CIFDUS_clean_linker_0, # of connection points: 2
#     Edge 30, Type (0, 0), BuildingBlock: CIFDUS_clean_linker_0, # of connection points: 2
#     Edge 31, Type (0, 0), BuildingBlock: CIFDUS_clean_linker_0, # of connection points: 2
#     Edge 32, Type (0, 0), BuildingBlock: CIFDUS_clean_linker_0, # of connection points: 2
#     Edge 33, Type (0, 0), BuildingBlock: CIFDUS_clean_linker_0, # of connection points: 2
#     Edge 34, Type (0, 0), BuildingBlock: CIFDUS_clean_linker_0, # of connection points: 2
#     Edge 35, Type (0, 0), BuildingBlock: CIFDUS_clean_linker_0, # of connection points: 2
# Relax obj value: 0.130
# Max RMSD: 0.097
# Mean RMSD: 0.097
data_MOF--net-ukf--node1-QUQFOY_clean_sbu_3--edge1-CIFDUS_clean_linker_0
_symmetry_space_group_name_H-M    P1
_symmetry_Int_Tables_number       1
_symmetry_cell_setting            triclinic
loop_
_symmetry_equiv_pos_as_xyz
'x, y, z'
_cell_length_a     28.209219
_cell_length_b     28.401877
_cell_length_c     60.174798
_cell_angle_alpha  90.248982
_cell_angle_beta   89.662935
_cell_angle_gamma 119.58732
loop_
_atom_site_label
_atom_site_type_symbol
_atom_site_fract_x
_atom_site_fract_y
_atom_site_fract_z
_atom_type_partial_charge
C0 C 0.27638 0.13161 0.01509 0.0
O1 O 0.29242 0.17279 0.0027 0.0
Cd2 Cd 0.37001 0.25847 0.01011 0.0
O3 O 0.30041 0.13472 0.03339 0.0
Cd4 Cd 0.37791 0.20531 0.055 0.0
C5 C 0.46536 0.21706 0.01395 0.0
O6 O 0.36517 0.28265 0.04791 0.0
O7 O 0.44478 0.30007 0.05905 0.0
O8 O 0.33247 0.17739 0.09149 0.0
C9 C 0.41201 0.31718 0.05485 0.0
O10 O 0.44688 0.24296 0.00314 0.0
C11 C 0.37204 0.17565 0.10066 0.0
O12 O 0.44566 0.1965 0.03286 0.0
O13 O 0.41191 0.18395 0.08823 0.0
C14 C 0.12236 0.28537 0.35172 0.0
O15 O 0.10248 0.30715 0.33926 0.0
Cd16 Cd 0.10051 0.38868 0.34742 0.0
O17 O 0.14229 0.30602 0.3706 0.0
Cd18 Cd 0.15649 0.38689 0.392 0.0
C19 C 0.23835 0.47065 0.35249 0.0
O20 O 0.07224 0.38888 0.38474 0.0
O21 O 0.14182 0.46418 0.39474 0.0
O22 O 0.13437 0.34206 0.42862 0.0
C23 C 0.09122 0.43777 0.39076 0.0
O24 O 0.19449 0.46164 0.3429 0.0
C25 C 0.17713 0.37888 0.43787 0.0
O26 O 0.23733 0.44416 0.36967 0.0
O27 O 0.21111 0.41667 0.42546 0.0
C28 C 0.82505 0.11794 0.68378 0.0
O29 O 0.78448 0.09455 0.67088 0.0
Cd30 Cd 0.70244 0.09818 0.67604 0.0
O31 O 0.82178 0.1409 0.70153 0.0
Cd32 Cd 0.75232 0.15471 0.72161 0.0
C33 C 0.75941 0.23659 0.68014 0.0
O34 O 0.66712 0.07235 0.71297 0.0
O35 O 0.66123 0.14268 0.72253 0.0
O36 O 0.77136 0.13031 0.75839 0.0
C37 C 0.63721 0.09248 0.71827 0.0
O38 O 0.73101 0.19337 0.66903 0.0
C39 C 0.77775 0.17319 0.7678 0.0
O40 O 0.77569 0.23489 0.69965 0.0
O41 O 0.77522 0.20805 0.75548 0.0
C42 C 0.69327 0.82514 0.01453 0.0
O43 O 0.67771 0.78433 0.00188 0.0
Cd44 Cd 0.60008 0.6983 0.00907 0.0
O45 O 0.66869 0.82137 0.03286 0.0
Cd46 Cd 0.59083 0.74991 0.05399 0.0
C47 C 0.50382 0.73825 0.01338 0.0
O48 O 0.60399 0.67262 0.04667 0.0
O49 O 0.52408 0.65523 0.05777 0.0
O50 O 0.63455 0.77786 0.09063 0.0
C51 C 0.55698 0.63813 0.0536 0.0
O52 O 0.5226 0.71271 0.00231 0.0
C53 C 0.59441 0.77943 0.09955 0.0
O54 O 0.52338 0.75872 0.03227 0.0
O55 O 0.55503 0.77076 0.08694 0.0
C56 C 0.84481 0.6988 0.34483 0.0
O57 O 0.86913 0.68246 0.33177 0.0
Cd58 Cd 0.86537 0.59747 0.33778 0.0
O59 O 0.82227 0.67255 0.36249 0.0
Cd60 Cd 0.81183 0.59215 0.38257 0.0
C61 C 0.72679 0.5151 0.3427 0.0
O62 O 0.89618 0.59013 0.37422 0.0
O63 O 0.82544 0.51481 0.38383 0.0
O64 O 0.83718 0.64379 0.41739 0.0
C65 C 0.87624 0.541 0.3801 0.0
O66 O 0.76985 0.52953 0.3312 0.0
C67 C 0.79829 0.60705 0.42856 0.0
O68 O 0.72933 0.53425 0.36209 0.0
O69 O 0.76481 0.56465 0.41816 0.0
C70 C 0.12544 0.84887 0.68564 0.0
O71 O 0.16322 0.8706 0.67128 0.0
Cd72 Cd 0.24606 0.86755 0.67517 0.0
O73 O 0.13258 0.82861 0.70328 0.0
Cd74 Cd 0.20501 0.81852 0.72172 0.0
C75 C 0.19254 0.73023 0.68201 0.0
O76 O 0.28893 0.90057 0.71068 0.0
O77 O 0.29599 0.83156 0.72119 0.0
O78 O 0.18287 0.84892 0.75648 0.0
C79 C 0.31938 0.8812 0.71605 0.0
O80 O 0.21858 0.77197 0.66983 0.0
C81 C 0.18293 0.81203 0.76829 0.0
O82 O 0.17875 0.73438 0.70181 0.0
O83 O 0.19133 0.7773 0.75833 0.0
C84 C 0.83154 0.69413 0.63903 0.0
O85 O 0.79492 0.68051 0.65384 0.0
Cd86 Cd 0.71224 0.59537 0.6529 0.0
O87 O 0.82362 0.6639 0.62218 0.0
Cd88 Cd 0.74996 0.57793 0.60692 0.0
C89 C 0.76516 0.50972 0.64895 0.0
O90 O 0.66669 0.5793 0.6177 0.0
O91 O 0.65912 0.5015 0.60991 0.0
O92 O 0.76454 0.61722 0.56965 0.0
C93 C 0.63597 0.52907 0.61401 0.0
O94 O 0.73954 0.52753 0.66062 0.0
C95 C 0.76738 0.57865 0.56018 0.0
O96 O 0.77792 0.52443 0.62883 0.0
O97 O 0.76411 0.54107 0.57255 0.0
C98 C 0.12406 0.82268 0.98595 0.0
O99 O 0.09912 0.78113 0.99816 0.0
Cd100 Cd 0.09125 0.69562 0.98975 0.0
O101 O 0.14512 0.82015 0.96747 0.0
Cd102 Cd 0.15302 0.75053 0.94519 0.0
C103 C 0.22757 0.73659 0.98558 0.0
O104 O 0.06285 0.67327 0.95183 0.0
O105 O 0.12493 0.65576 0.94012 0.0
O106 O 0.13833 0.78164 0.90909 0.0
C107 C 0.07512 0.63883 0.9444 0.0
O108 O 0.18316 0.71018 0.9964 0.0
C109 C 0.17999 0.78349 0.9 0.0
O110 O 0.22868 0.75815 0.96695 0.0
O111 O 0.21022 0.77338 0.91231 0.0
C112 C 0.27047 0.12419 0.32006 0.0
O113 O 0.28922 0.10092 0.33224 0.0
Cd114 Cd 0.37454 0.10623 0.32414 0.0
O115 O 0.29394 0.14594 0.30176 0.0
Cd116 Cd 0.37204 0.15606 0.27881 0.0
C117 C 0.45288 0.24451 0.31683 0.0
O118 O 0.37861 0.07534 0.28741 0.0
O119 O 0.45229 0.14638 0.27654 0.0
O120 O 0.31551 0.12471 0.24516 0.0
C121 C 0.42786 0.0963 0.28095 0.0
O122 O 0.44025 0.20264 0.32854 0.0
C123 C 0.35076 0.16182 0.23285 0.0
O124 O 0.43185 0.24054 0.29776 0.0
O125 O 0.39406 0.19744 0.24214 0.0
C126 C 0.13559 0.27684 0.65691 0.0
O127 O 0.17721 0.29618 0.66933 0.0
Cd128 Cd 0.2573 0.37989 0.66136 0.0
O129 O 0.13681 0.29967 0.63854 0.0
Cd130 Cd 0.20278 0.37796 0.61581 0.0
C131 C 0.1973 0.45954 0.65494 0.0
O132 O 0.28892 0.38087 0.62423 0.0
O133 O 0.29369 0.45458 0.61215 0.0
O134 O 0.17444 0.32165 0.58198 0.0
C135 C 0.31818 0.42894 0.61719 0.0
O136 O 0.22705 0.44651 0.66629 0.0
C137 C 0.17275 0.35752 0.57003 0.0
O138 O 0.17953 0.43861 0.6359 0.0
O139 O 0.18207 0.40114 0.57961 0.0
C140 C 0.84617 0.13483 0.98689 0.0
O141 O 0.87104 0.17638 0.99914 0.0
Cd142 Cd 0.87836 0.26121 0.9902 0.0
O143 O 0.82607 0.13758 0.96832 0.0
Cd144 Cd 0.82022 0.20647 0.94505 0.0
C145 C 0.74135 0.21817 0.9844 0.0
O146 O 0.90996 0.28354 0.95259 0.0
O147 O 0.84928 0.30117 0.93962 0.0
O148 O 0.83824 0.16867 0.91121 0.0
C149 C 0.89857 0.31803 0.94467 0.0
O150 O 0.7851 0.24428 0.99553 0.0
C151 C 0.80251 0.17217 0.89971 0.0
O152 O 0.74141 0.19734 0.96562 0.0
O153 O 0.77339 0.18839 0.90964 0.0
C154 C 0.68466 0.85065 0.31886 0.0
O155 O 0.66358 0.87209 0.33105 0.0
Cd156 Cd 0.58592 0.88072 0.32043 0.0
O157 O 0.66522 0.83221 0.29973 0.0
Cd158 Cd 0.59014 0.82322 0.27627 0.0
C159 C 0.49427 0.74601 0.31301 0.0
O160 O 0.58975 0.90857 0.28282 0.0
O161 O 0.51638 0.84059 0.26997 0.0
O162 O 0.64786 0.84691 0.24291 0.0
C163 C 0.54193 0.89026 0.27513 0.0
O164 O 0.50638 0.79067 0.32253 0.0
C165 C 0.61245 0.80795 0.2314 0.0
O166 O 0.52287 0.74374 0.29699 0.0
O167 O 0.56845 0.77481 0.24113 0.0
H168 H 0.15245 0.91443 0.96257 0.0
H169 H 0.12235 0.85021 0.02922 0.0
H170 H 0.16085 0.94137 0.04447 0.0
H171 H 0.21594 0.03955 0.03881 0.0
H172 H 0.24478 0.10369 0.97214 0.0
H173 H 0.19306 0.01243 0.95703 0.0
C174 C 0.15336 0.92038 0.98041 0.0
C175 C 0.13571 0.87587 0.99473 0.0
C176 C 0.17578 0.97291 0.9891 0.0
C177 C 0.13608 0.88391 0.01782 0.0
C178 C 0.1584 0.93607 0.02659 0.0
C179 C 0.20994 0.03356 0.02101 0.0
C180 C 0.23512 0.07813 0.00662 0.0
C181 C 0.18039 0.98094 0.01239 0.0
C182 C 0.22618 0.06998 0.9836 0.0
C183 C 0.19687 0.01776 0.97491 0.0
H184 H 0.1476 0.21806 0.37448 0.0
H185 H 0.11685 0.2548 0.30837 0.0
H186 H 0.15281 0.19983 0.29241 0.0
H187 H 0.20769 0.15523 0.29716 0.0
H188 H 0.23791 0.11785 0.36323 0.0
H189 H 0.18649 0.15806 0.37917 0.0
C190 C 0.14763 0.21303 0.3566 0.0
C191 C 0.13084 0.24157 0.34266 0.0
C192 C 0.16882 0.18167 0.34747 0.0
C193 C 0.13008 0.23377 0.31953 0.0
C194 C 0.15096 0.20255 0.31033 0.0
C195 C 0.2019 0.15473 0.31502 0.0
C196 C 0.22767 0.13477 0.32898 0.0
C197 C 0.17274 0.17844 0.32412 0.0
C198 C 0.21894 0.13341 0.35207 0.0
C199 C 0.18983 0.15677 0.36125 0.0
H200 H 0.91635 0.14944 0.7085 0.0
H201 H 0.85507 0.10899 0.64152 0.0
H202 H 0.94776 0.14831 0.62715 0.0
H203 H 0.04575 0.20874 0.63315 0.0
H204 H 0.10715 0.24823 0.70013 0.0
H205 H 0.01511 0.19397 0.7149 0.0
C206 C 0.92325 0.14802 0.69082 0.0
C207 C 0.87898 0.12755 0.67609 0.0
C208 C 0.97675 0.17119 0.6826 0.0
C209 C 0.88843 0.12499 0.65325 0.0
C210 C 0.94152 0.14785 0.64496 0.0
C211 C 0.03908 0.20438 0.65098 0.0
C212 C 0.08295 0.23342 0.66549 0.0
C213 C -0.01403 0.17337 0.65939 0.0
C214 C 0.07398 0.22662 0.68856 0.0
C215 C 0.02126 0.19587 0.69705 0.0
H216 H 0.75142 0.91682 0.0388 0.0
H217 H 0.72762 0.85422 0.97183 0.0
H218 H 0.77981 0.94588 0.95726 0.0
H219 H 0.81961 0.04367 0.96324 0.0
H220 H 0.84445 0.10643 0.03017 0.0
H221 H 0.80527 0.01492 0.04502 0.0
C222 C 0.75859 0.92323 0.02105 0.0
C223 C 0.73473 0.87895 0.00642 0.0
C224 C 0.78836 0.97608 0.01274 0.0
C225 C 0.74519 0.88768 0.98348 0.0
C226 C 0.77477 0.94013 0.97509 0.0
C227 C 0.81738 0.03733 0.98107 0.0
C228 C 0.83381 0.08149 0.99557 0.0
C229 C 0.79458 -0.01537 0.98951 0.0
C230 C 0.83171 0.07297 0.01864 0.0
C231 C 0.80901 0.02063 0.02717 0.0
H232 H 0.75692 0.83256 0.29576 0.0
H233 H 0.70632 0.84365 0.36247 0.0
H234 H 0.75989 0.80468 0.37712 0.0
H235 H 0.8077 0.75344 0.37018 0.0
H236 H 0.85782 0.74213 0.30335 0.0
H237 H 0.81889 0.79627 0.28965 0.0
C238 C 0.75858 0.8275 0.31354 0.0
C239 C 0.72683 0.83982 0.32796 0.0
C240 C 0.78897 0.80458 0.32183 0.0
C241 C 0.73013 0.83411 0.351 0.0
C242 C 0.76047 0.81149 0.35939 0.0
C243 C 0.81119 0.76386 0.35269 0.0
C244 C 0.83445 0.74269 0.33775 0.0
C245 C 0.78804 0.7944 0.34485 0.0
C246 C 0.83965 0.75742 0.31521 0.0
C247 C 0.81705 0.78811 0.30731 0.0
H248 H 0.87359 0.74309 0.67844 0.0
H249 H 0.91374 0.7473 0.60889 0.0
H250 H 0.01007 0.80694 0.61717 0.0
H251 H 0.08321 0.84275 0.64476 0.0
H252 H 0.04305 0.82944 0.71458 0.0
H253 H 0.94642 0.78949 0.70562 0.0
C254 C 0.90319 0.75823 0.665 0.0
C255 C 0.88669 0.74015 0.64313 0.0
C256 C 0.95867 0.79038 0.67001 0.0
C257 C 0.92556 0.76013 0.62591 0.0
C258 C 0.98066 0.79407 0.63064 0.0
C259 C 0.05346 0.8326 0.65799 0.0
C260 C 0.07006 0.83837 0.6803 0.0
C261 C -0.00214 0.80723 0.65274 0.0
C262 C 0.0311 0.82482 0.69728 0.0
C263 C 0.97586 0.80177 0.69217 0.0
H264 H 0.6567 0.21233 0.96102 0.0
H265 H 0.71226 0.21398 0.02779 0.0
H266 H 0.62956 0.20975 0.04283 0.0
H267 H 0.54341 0.20953 0.03702 0.0
H268 H 0.49166 0.21615 0.97036 0.0
H269 H 0.57075 0.21305 0.95521 0.0
C270 C 0.65035 0.21125 0.97885 0.0
C271 C 0.69025 0.21322 0.99329 0.0
C272 C 0.60354 0.21053 0.98737 0.0
C273 C 0.68208 0.21265 0.01636 0.0
C274 C 0.63484 0.21019 0.02497 0.0
C275 C 0.54923 0.20976 0.01918 0.0
C276 C 0.51175 0.21278 0.00481 0.0
C277 C 0.59558 0.20966 0.01063 0.0
C278 C 0.52013 0.21394 0.98174 0.0
C279 C 0.56527 0.21213 0.97307 0.0
H280 H 0.25634 0.56714 0.33794 0.0
H281 H 0.3371 0.47464 0.34996 0.0
H282 H 0.42401 0.551 0.33733 0.0
H283 H 0.47721 0.64561 0.32364 0.0
H284 H 0.39639 0.73967 0.31598 0.0
H285 H 0.30916 0.66132 0.32605 0.0
C286 C 0.29296 0.56365 0.3376 0.0
C287 C 0.29058 0.51549 0.34456 0.0
C288 C 0.34266 0.60809 0.33118 0.0
C289 C 0.33828 0.51155 0.34458 0.0
C290 C 0.3878 0.55509 0.33737 0.0
C291 C 0.44029 0.64851 0.32414 0.0
C292 C 0.44269 0.69783 0.31904 0.0
C293 C 0.39054 0.60374 0.33074 0.0
C294 C 0.39512 0.70188 0.31995 0.0
C295 C 0.34536 0.65719 0.32565 0.0
H296 H 0.77597 0.32608 0.70278 0.0
H297 H 0.76579 0.26362 0.63644 0.0
H298 H 0.77376 0.34653 0.62083 0.0
H299 H 0.77482 0.43259 0.62616 0.0
H300 H 0.77623 0.49122 0.69255 0.0
H301 H 0.78111 0.41428 0.70806 0.0
C302 C 0.77639 0.33105 0.6849 0.0
C303 C 0.77021 0.28888 0.67076 0.0
C304 C 0.77908 0.37797 0.67609 0.0
C305 C 0.77017 0.29548 0.64764 0.0
C306 C 0.77472 0.34282 0.63872 0.0
C307 C 0.77719 0.42903 0.64401 0.0
C308 C 0.77517 0.46742 0.65821 0.0
C309 C 0.77792 0.38375 0.6528 0.0
C310 C 0.77752 0.46197 0.68131 0.0
C311 C 0.78022 0.41799 0.69017 0.0
H312 H 0.31293 0.74426 0.96191 0.0
H313 H 0.25471 0.73684 0.02896 0.0
H314 H 0.33726 0.74052 0.04354 0.0
H315 H 0.42431 0.74249 0.03713 0.0
H316 H 0.47849 0.7416 0.97003 0.0
H317 H 0.39925 0.74471 0.95549 0.0
C318 C 0.31862 0.74391 0.97972 0.0
C319 C 0.27811 0.74059 0.99437 0.0
C320 C 0.36529 0.74437 0.98792 0.0
C321 C 0.2854 0.73928 0.01738 0.0
C322 C 0.33255 0.74144 0.02571 0.0
C323 C 0.41894 0.74347 0.01933 0.0
C324 C 0.45718 0.74216 0.00464 0.0
C325 C 0.37252 0.74354 0.01113 0.0
C326 C 0.44942 0.74251 0.98162 0.0
C327 C 0.40422 0.74432 0.97332 0.0
H328 H 0.52748 0.3282 0.29223 0.0
H329 H 0.47455 0.27869 0.3597 0.0
H330 H 0.55195 0.36209 0.37362 0.0
H331 H 0.63902 0.44449 0.36669 0.0
H332 H 0.69687 0.48951 0.29938 0.0
H333 H 0.6131 0.41274 0.28524 0.0
C334 C 0.53247 0.33625 0.30995 0.0
C335 C 0.49553 0.29762 0.32495 0.0
C336 C 0.57818 0.38321 0.31783 0.0
C337 C 0.50272 0.30793 0.34788 0.0
C338 C 0.54694 0.35549 0.35583 0.0
C339 C 0.63286 0.43798 0.34892 0.0
C340 C 0.67395 0.47248 0.33409 0.0
C341 C 0.5856 0.39277 0.34097 0.0
C342 C 0.66583 0.46324 0.31111 0.0
C343 C 0.61801 0.41939 0.30303 0.0
H344 H 0.18051 0.53073 0.63107 0.0
H345 H 0.19121 0.48423 0.69819 0.0
H346 H 0.18375 0.56084 0.71266 0.0
H347 H 0.18303 0.64565 0.70609 0.0
H348 H 0.18108 0.69684 0.63888 0.0
H349 H 0.17572 0.61366 0.62456 0.0
C350 C 0.18026 0.53693 0.64886 0.0
C351 C 0.18645 0.50204 0.66356 0.0
C352 C 0.17792 0.58213 0.65702 0.0
C353 C 0.18679 0.51082 0.68657 0.0
C354 C 0.18256 0.55458 0.69484 0.0
C355 C 0.18045 0.6381 0.68833 0.0
C356 C 0.18246 0.67722 0.67356 0.0
C357 C 0.1794 0.5912 0.68021 0.0
C358 C 0.17984 0.66734 0.65057 0.0
C359 C 0.17684 0.61986 0.64237 0.0
H360 H 0.28926 0.14246 0.13108 0.0
H361 H 0.46164 0.19875 0.12496 0.0
H362 H 0.47026 0.20164 0.16524 0.0
H363 H 0.42994 0.19121 0.20223 0.0
H364 H 0.25688 0.12811 0.20918 0.0
H365 H 0.24732 0.12526 0.16858 0.0
C366 C 0.32854 0.15482 0.1386 0.0
C367 C 0.37476 0.17058 0.12502 0.0
C368 C 0.3332 0.15585 0.1619 0.0
C369 C 0.42536 0.18621 0.13499 0.0
C370 C 0.43046 0.18825 0.15805 0.0
C371 C 0.3902 0.1772 0.19482 0.0
C372 C 0.34432 0.16088 0.20853 0.0
C373 C 0.38487 0.17389 0.17164 0.0
C374 C 0.2928 0.14136 0.19884 0.0
C375 C 0.28736 0.1396 0.17569 0.0
H376 H 0.12525 0.29733 0.46819 0.0
H377 H 0.24524 0.46667 0.46228 0.0
H378 H 0.25198 0.47522 0.50256 0.0
H379 H 0.22267 0.43565 0.53951 0.0
H380 H 0.10922 0.26512 0.54627 0.0
H381 H 0.10056 0.25587 0.50567 0.0
C382 C 0.15315 0.33591 0.47577 0.0
C383 C 0.18456 0.38131 0.46224 0.0
C384 C 0.15752 0.34045 0.49907 0.0
C385 C 0.22081 0.431 0.47227 0.0
C386 C 0.22447 0.43608 0.49533 0.0
C387 C 0.19573 0.39655 0.53206 0.0
C388 C 0.16583 0.35132 0.54573 0.0
C389 C 0.19266 0.39129 0.50887 0.0
C390 C 0.13221 0.30056 0.53597 0.0
C391 C 0.12742 0.2953 0.51281 0.0
H392 H 0.77432 0.2234 0.86961 0.0
H393 H 0.82441 0.10314 0.87554 0.0
H394 H 0.82142 0.09253 0.83497 0.0
H395 H 0.80461 0.11821 0.79777 0.0
H396 H 0.76181 0.2442 0.79256 0.0
H397 H 0.76258 0.25233 0.83287 0.0
C398 C 0.78407 0.19448 0.86202 0.0
C399 C 0.79865 0.16341 0.87545 0.0
C400 C 0.78417 0.19014 0.83881 0.0
C401 C 0.81261 0.12713 0.86545 0.0
C402 C 0.81106 0.12122 0.8423 0.0
C403 C 0.79578 0.14761 0.8055 0.0
C404 C 0.78305 0.18045 0.79218 0.0
C405 C 0.79705 0.15269 0.8288 0.0
C406 C 0.77201 0.21862 0.8024 0.0
C407 C 0.77211 0.22311 0.82547 0.0
H408 H 0.67633 0.8154 0.13014 0.0
H409 H 0.50353 0.75556 0.12343 0.0
H410 H 0.49382 0.75604 0.16363 0.0
H411 H 0.53358 0.77192 0.20071 0.0
H412 H 0.70694 0.83883 0.20814 0.0
H413 H 0.71736 0.83664 0.16767 0.0
C414 C 0.6367 0.80288 0.13751 0.0
C415 C 0.59073 0.78537 0.12381 0.0
C416 C 0.63141 0.8039 0.16075 0.0
C417 C 0.53964 0.76951 0.13357 0.0
C418 C 0.53392 0.76941 0.15658 0.0
C419 C 0.57357 0.78552 0.19345 0.0
C420 C 0.61931 0.80458 0.20727 0.0
C421 C 0.57937 0.78603 0.17031 0.0
C422 C 0.67112 0.82351 0.19773 0.0
C423 C 0.67706 0.82242 0.17465 0.0
H424 H 0.80424 0.66175 0.53064 0.0
H425 H 0.7382 0.48888 0.53512 0.0
H426 H 0.73896 0.48227 0.49469 0.0
H427 H 0.75827 0.52537 0.45809 0.0
H428 H 0.8315 0.69884 0.45326 0.0
H429 H 0.82776 0.70564 0.4938 0.0
C430 C 0.79017 0.62273 0.52271 0.0
C431 C 0.77106 0.57587 0.53579 0.0
C432 C 0.79169 0.61934 0.49944 0.0
C433 C 0.75338 0.52557 0.52539 0.0
C434 C 0.75353 0.5217 0.50228 0.0
C435 C 0.77296 0.56459 0.46594 0.0
C436 C 0.79443 0.61148 0.45282 0.0
C437 C 0.77241 0.56825 0.48916 0.0
C438 C 0.81453 0.66221 0.46311 0.0
C439 C 0.81248 0.66608 0.48624 0.0
H440 H 0.13418 0.82156 0.87029 0.0
H441 H 0.2476 0.76151 0.87534 0.0
H442 H 0.25696 0.76347 0.83505 0.0
H443 H 0.23063 0.77894 0.79827 0.0
H444 H 0.12279 0.84516 0.79268 0.0
H445 H 0.11317 0.84381 0.83325 0.0
C446 C 0.1613 0.80942 0.86255 0.0
C447 C 0.18991 0.79117 0.87579 0.0
C448 C 0.16701 0.81116 0.83928 0.0
C449 C 0.22521 0.77589 0.86555 0.0
C450 C 0.23038 0.77666 0.84248 0.0
C451 C 0.20484 0.79282 0.80597 0.0
C452 C 0.17673 0.81126 0.79263 0.0
C453 C 0.20093 0.79349 0.82919 0.0
C454 C 0.14448 0.83043 0.80272 0.0
C455 C 0.13907 0.82973 0.82587 0.0
H456 H 0.45323 0.55575 0.05488 0.0
H457 H 0.62047 0.59056 0.05345 0.0
H458 H 0.58999 0.49364 0.05442 0.0
H459 H 0.51588 0.39956 0.05532 0.0
H460 H 0.34866 0.36479 0.05476 0.0
H461 H 0.37917 0.46173 0.05495 0.0
C462 C 0.48301 0.54212 0.05486 0.0
C463 C 0.53895 0.57999 0.05418 0.0
C464 C 0.46522 0.48662 0.05504 0.0
C465 C 0.57715 0.56194 0.05392 0.0
C466 C 0.55978 0.50667 0.05451 0.0
C467 C 0.48613 0.41323 0.05533 0.0
C468 C 0.43017 0.37535 0.05512 0.0
C469 C 0.50393 0.46874 0.05503 0.0
C470 C 0.39199 0.39341 0.05489 0.0
C471 C 0.40938 0.44869 0.05502 0.0
H472 H -0.0137 0.58838 0.38352 0.0
H473 H 0.83975 0.43286 0.37974 0.0
H474 H 0.89331 0.3871 0.38262 0.0
H475 H -0.01835 0.3911 0.38645 0.0
H476 H 0.12804 0.54636 0.39187 0.0
H477 H 0.07473 0.59231 0.38824 0.0
C478 C 0.96625 0.54451 0.38322 0.0
C479 C 0.90933 0.51406 0.38133 0.0
C480 C -0.00282 0.51838 0.38529 0.0
C481 C 0.88363 0.45721 0.38121 0.0
C482 C 0.91417 0.43097 0.38286 0.0
C483 C 0.00182 0.43498 0.38685 0.0
C484 C 0.05859 0.46524 0.38935 0.0
C485 C 0.97093 0.46113 0.38497 0.0
C486 C 0.08426 0.52209 0.39 0.0
C487 C 0.05387 0.54844 0.38787 0.0
H488 H 0.57456 0.98342 0.71563 0.0
H489 H 0.56565 0.13069 0.71876 0.0
H490 H 0.46634 0.07847 0.7173 0.0
H491 H 0.3818 -0.0093 0.71588 0.0
H492 H 0.39099 0.84348 0.71457 0.0
H493 H 0.49029 0.89589 0.71446 0.0
C494 C 0.55084 0.00402 0.71592 0.0
C495 C 0.57729 0.06069 0.71728 0.0
C496 C 0.49379 0.97378 0.71539 0.0
C497 C 0.54614 0.08697 0.71779 0.0
C498 C 0.48937 0.05719 0.71691 0.0
C499 C 0.40564 0.97023 0.71543 0.0
C500 C 0.37926 0.91347 0.7152 0.0
C501 C 0.46275 0.00056 0.7158 0.0
C502 C 0.41047 0.88726 0.71483 0.0
C503 C 0.46723 0.91714 0.71475 0.0
H504 H 0.57349 0.57715 0.6131 0.0
H505 H 0.56468 0.42161 0.61884 0.0
H506 H 0.46547 0.3769 0.62103 0.0
H507 H 0.38107 0.38172 0.62058 0.0
H508 H 0.38957 0.53675 0.61302 0.0
H509 H 0.48893 0.58187 0.61227 0.0
C510 C 0.54978 0.53353 0.61495 0.0
C511 C 0.57621 0.50275 0.61585 0.0
C512 C 0.49271 0.50795 0.6158 0.0
C513 C 0.54514 0.44619 0.61804 0.0
C514 C 0.48844 0.42055 0.61931 0.0
C515 C 0.40473 0.42538 0.61885 0.0
C516 C 0.37814 0.45584 0.61691 0.0
C517 C 0.46179 0.45099 0.61809 0.0
C518 C 0.40918 0.51236 0.61449 0.0
C519 C 0.46598 0.53824 0.61409 0.0
H520 H 0.09618 0.55587 0.94412 0.0
H521 H 0.96456 0.59212 0.94346 0.0
H522 H 0.89805 0.49535 0.94269 0.0
H523 H 0.87775 0.40101 0.94275 0.0
H524 H 0.0092 0.36471 0.94568 0.0
H525 H 0.07581 0.46147 0.94503 0.0
C526 C 0.05293 0.54255 0.94371 0.0
C527 C 0.03509 0.58078 0.94374 0.0
C528 C 0.01515 0.48712 0.94373 0.0
C529 C 0.97905 0.5632 0.94347 0.0
C530 C 0.94113 0.50802 0.94301 0.0
C531 C 0.921 0.4143 0.94315 0.0
C532 C 0.93875 0.37606 0.94416 0.0
C533 C 0.95878 0.46971 0.94321 0.0
C534 C -0.00524 0.39364 0.94494 0.0
C535 C 0.03275 0.44881 0.94453 0.0
H536 H 0.58635 -0.0006 0.27871 0.0
H537 H 0.43266 0.85095 0.27323 0.0
H538 H 0.38368 0.90138 0.27533 0.0
H539 H 0.38419 -0.01239 0.27861 0.0
H540 H 0.5376 0.13669 0.28205 0.0
H541 H 0.58691 0.0862 0.28092 0.0
C542 C 0.54218 0.97824 0.27798 0.0
C543 C 0.51323 0.92169 0.27586 0.0
C544 C 0.51415 0.00754 0.27887 0.0
C545 C 0.45597 0.89462 0.27476 0.0
C546 C 0.42783 0.92335 0.27603 0.0
C547 C 0.42838 0.00891 0.2792 0.0
C548 C 0.45722 0.06555 0.28051 0.0
C549 C 0.45647 0.97978 0.27809 0.0
C550 C 0.51452 0.09292 0.281 0.0
C551 C 0.54275 0.06414 0.28038 0.0
loop_
_geom_bond_atom_site_label_1
_geom_bond_atom_site_label_2
_geom_bond_distance
_geom_bond_site_symmetry_2
_ccdc_geom_bond_type
C0 O1 1.306 . S
C0 O3 1.160 . S
O1 C0 1.306 . S
O1 Cd2 2.228 . S
Cd2 O1 2.228 . S
Cd2 O6 2.273 . S
Cd2 O10 2.277 . S
O3 C0 1.160 . S
O3 Cd4 2.203 . S
Cd4 O3 2.203 . S
Cd4 O6 2.411 . S
Cd4 O7 2.333 . S
Cd4 O8 2.352 . S
Cd4 O12 2.277 . S
Cd4 O13 2.356 . S
C5 O10 1.209 . S
C5 O12 1.226 . S
O6 Cd2 2.273 . S
O6 Cd4 2.411 . S
O6 C9 1.320 . S
O7 Cd4 2.333 . S
O7 C9 1.214 . S
O8 Cd4 2.352 . S
O8 C11 1.258 . S
C9 O6 1.320 . S
C9 O7 1.214 . S
O10 Cd2 2.277 . S
O10 C5 1.209 . S
C11 O8 1.258 . S
C11 O13 1.282 . S
O12 Cd4 2.277 . S
O12 C5 1.226 . S
O13 Cd4 2.356 . S
O13 C11 1.282 . S
C14 O15 1.306 . S
C14 O17 1.160 . S
O15 C14 1.306 . S
O15 Cd16 2.228 . S
Cd16 O15 2.228 . S
Cd16 O20 2.273 . S
Cd16 O24 2.277 . S
O17 C14 1.160 . S
O17 Cd18 2.203 . S
Cd18 O17 2.203 . S
Cd18 O20 2.411 . S
Cd18 O21 2.333 . S
Cd18 O22 2.352 . S
Cd18 O26 2.277 . S
Cd18 O27 2.356 . S
C19 O24 1.209 . S
C19 O26 1.226 . S
O20 Cd16 2.273 . S
O20 Cd18 2.411 . S
O20 C23 1.320 . S
O21 Cd18 2.333 . S
O21 C23 1.214 . S
O22 Cd18 2.352 . S
O22 C25 1.258 . S
C23 O20 1.320 . S
C23 O21 1.214 . S
O24 Cd16 2.277 . S
O24 C19 1.209 . S
C25 O22 1.258 . S
C25 O27 1.282 . S
O26 Cd18 2.277 . S
O26 C19 1.226 . S
O27 Cd18 2.356 . S
O27 C25 1.282 . S
C28 O29 1.306 . S
C28 O31 1.160 . S
O29 C28 1.306 . S
O29 Cd30 2.228 . S
Cd30 O29 2.228 . S
Cd30 O34 2.273 . S
Cd30 O38 2.277 . S
O31 C28 1.160 . S
O31 Cd32 2.203 . S
Cd32 O31 2.203 . S
Cd32 O34 2.411 . S
Cd32 O35 2.333 . S
Cd32 O36 2.352 . S
Cd32 O40 2.277 . S
Cd32 O41 2.356 . S
C33 O38 1.209 . S
C33 O40 1.226 . S
O34 Cd30 2.273 . S
O34 Cd32 2.411 . S
O34 C37 1.320 . S
O35 Cd32 2.333 . S
O35 C37 1.214 . S
O36 Cd32 2.352 . S
O36 C39 1.258 . S
C37 O34 1.320 . S
C37 O35 1.214 . S
O38 Cd30 2.277 . S
O38 C33 1.209 . S
C39 O36 1.258 . S
C39 O41 1.282 . S
O40 Cd32 2.277 . S
O40 C33 1.226 . S
O41 Cd32 2.356 . S
O41 C39 1.282 . S
C42 O43 1.306 . S
C42 O45 1.160 . S
O43 C42 1.306 . S
O43 Cd44 2.228 . S
Cd44 O43 2.228 . S
Cd44 O48 2.273 . S
Cd44 O52 2.277 . S
O45 C42 1.160 . S
O45 Cd46 2.203 . S
Cd46 O45 2.203 . S
Cd46 O48 2.411 . S
Cd46 O49 2.333 . S
Cd46 O50 2.352 . S
Cd46 O54 2.277 . S
Cd46 O55 2.356 . S
C47 O52 1.209 . S
C47 O54 1.226 . S
O48 Cd44 2.273 . S
O48 Cd46 2.411 . S
O48 C51 1.320 . S
O49 Cd46 2.333 . S
O49 C51 1.214 . S
O50 Cd46 2.352 . S
O50 C53 1.258 . S
C51 O48 1.320 . S
C51 O49 1.214 . S
O52 Cd44 2.277 . S
O52 C47 1.209 . S
C53 O50 1.258 . S
C53 O55 1.282 . S
O54 Cd46 2.277 . S
O54 C47 1.226 . S
O55 Cd46 2.356 . S
O55 C53 1.282 . S
C56 O57 1.306 . S
C56 O59 1.160 . S
O57 C56 1.306 . S
O57 Cd58 2.228 . S
Cd58 O57 2.228 . S
Cd58 O62 2.273 . S
Cd58 O66 2.277 . S
O59 C56 1.160 . S
O59 Cd60 2.203 . S
Cd60 O59 2.203 . S
Cd60 O62 2.411 . S
Cd60 O63 2.333 . S
Cd60 O64 2.352 . S
Cd60 O68 2.277 . S
Cd60 O69 2.356 . S
C61 O66 1.209 . S
C61 O68 1.226 . S
O62 Cd58 2.273 . S
O62 Cd60 2.411 . S
O62 C65 1.320 . S
O63 Cd60 2.333 . S
O63 C65 1.214 . S
O64 Cd60 2.352 . S
O64 C67 1.258 . S
C65 O62 1.320 . S
C65 O63 1.214 . S
O66 Cd58 2.277 . S
O66 C61 1.209 . S
C67 O64 1.258 . S
C67 O69 1.282 . S
O68 Cd60 2.277 . S
O68 C61 1.226 . S
O69 Cd60 2.356 . S
O69 C67 1.282 . S
C70 O71 1.306 . S
C70 O73 1.160 . S
O71 C70 1.306 . S
O71 Cd72 2.228 . S
Cd72 O71 2.228 . S
Cd72 O76 2.273 . S
Cd72 O80 2.277 . S
O73 C70 1.160 . S
O73 Cd74 2.203 . S
Cd74 O73 2.203 . S
Cd74 O76 2.411 . S
Cd74 O77 2.333 . S
Cd74 O78 2.352 . S
Cd74 O82 2.277 . S
Cd74 O83 2.356 . S
C75 O80 1.209 . S
C75 O82 1.226 . S
O76 Cd72 2.273 . S
O76 Cd74 2.411 . S
O76 C79 1.320 . S
O77 Cd74 2.333 . S
O77 C79 1.214 . S
O78 Cd74 2.352 . S
O78 C81 1.258 . S
C79 O76 1.320 . S
C79 O77 1.214 . S
O80 Cd72 2.277 . S
O80 C75 1.209 . S
C81 O78 1.258 . S
C81 O83 1.282 . S
O82 Cd74 2.277 . S
O82 C75 1.226 . S
O83 Cd74 2.356 . S
O83 C81 1.282 . S
C84 O85 1.306 . S
C84 O87 1.160 . S
O85 C84 1.306 . S
O85 Cd86 2.228 . S
Cd86 O85 2.228 . S
Cd86 O90 2.273 . S
Cd86 O94 2.277 . S
O87 C84 1.160 . S
O87 Cd88 2.203 . S
Cd88 O87 2.203 . S
Cd88 O90 2.411 . S
Cd88 O91 2.333 . S
Cd88 O92 2.352 . S
Cd88 O96 2.277 . S
Cd88 O97 2.356 . S
C89 O94 1.209 . S
C89 O96 1.226 . S
O90 Cd86 2.273 . S
O90 Cd88 2.411 . S
O90 C93 1.320 . S
O91 Cd88 2.333 . S
O91 C93 1.214 . S
O92 Cd88 2.352 . S
O92 C95 1.258 . S
C93 O90 1.320 . S
C93 O91 1.214 . S
O94 Cd86 2.277 . S
O94 C89 1.209 . S
C95 O92 1.258 . S
C95 O97 1.282 . S
O96 Cd88 2.277 . S
O96 C89 1.226 . S
O97 Cd88 2.356 . S
O97 C95 1.282 . S
C98 O99 1.306 . S
C98 O101 1.160 . S
O99 C98 1.306 . S
O99 Cd100 2.228 . S
Cd100 O99 2.228 . S
Cd100 O104 2.273 . S
Cd100 O108 2.277 . S
O101 C98 1.160 . S
O101 Cd102 2.203 . S
Cd102 O101 2.203 . S
Cd102 O104 2.411 . S
Cd102 O105 2.333 . S
Cd102 O106 2.352 . S
Cd102 O110 2.277 . S
Cd102 O111 2.356 . S
C103 O108 1.209 . S
C103 O110 1.226 . S
O104 Cd100 2.273 . S
O104 Cd102 2.411 . S
O104 C107 1.320 . S
O105 Cd102 2.333 . S
O105 C107 1.214 . S
O106 Cd102 2.352 . S
O106 C109 1.258 . S
C107 O104 1.320 . S
C107 O105 1.214 . S
O108 Cd100 2.277 . S
O108 C103 1.209 . S
C109 O106 1.258 . S
C109 O111 1.282 . S
O110 Cd102 2.277 . S
O110 C103 1.226 . S
O111 Cd102 2.356 . S
O111 C109 1.282 . S
C112 O113 1.306 . S
C112 O115 1.160 . S
O113 C112 1.306 . S
O113 Cd114 2.228 . S
Cd114 O113 2.228 . S
Cd114 O118 2.273 . S
Cd114 O122 2.277 . S
O115 C112 1.160 . S
O115 Cd116 2.203 . S
Cd116 O115 2.203 . S
Cd116 O118 2.411 . S
Cd116 O119 2.333 . S
Cd116 O120 2.352 . S
Cd116 O124 2.277 . S
Cd116 O125 2.356 . S
C117 O122 1.209 . S
C117 O124 1.226 . S
O118 Cd114 2.273 . S
O118 Cd116 2.411 . S
O118 C121 1.320 . S
O119 Cd116 2.333 . S
O119 C121 1.214 . S
O120 Cd116 2.352 . S
O120 C123 1.258 . S
C121 O118 1.320 . S
C121 O119 1.214 . S
O122 Cd114 2.277 . S
O122 C117 1.209 . S
C123 O120 1.258 . S
C123 O125 1.282 . S
O124 Cd116 2.277 . S
O124 C117 1.226 . S
O125 Cd116 2.356 . S
O125 C123 1.282 . S
C126 O127 1.306 . S
C126 O129 1.160 . S
O127 C126 1.306 . S
O127 Cd128 2.228 . S
Cd128 O127 2.228 . S
Cd128 O132 2.273 . S
Cd128 O136 2.277 . S
O129 C126 1.160 . S
O129 Cd130 2.203 . S
Cd130 O129 2.203 . S
Cd130 O132 2.411 . S
Cd130 O133 2.333 . S
Cd130 O134 2.352 . S
Cd130 O138 2.277 . S
Cd130 O139 2.356 . S
C131 O136 1.209 . S
C131 O138 1.226 . S
O132 Cd128 2.273 . S
O132 Cd130 2.411 . S
O132 C135 1.320 . S
O133 Cd130 2.333 . S
O133 C135 1.214 . S
O134 Cd130 2.352 . S
O134 C137 1.258 . S
C135 O132 1.320 . S
C135 O133 1.214 . S
O136 Cd128 2.277 . S
O136 C131 1.209 . S
C137 O134 1.258 . S
C137 O139 1.282 . S
O138 Cd130 2.277 . S
O138 C131 1.226 . S
O139 Cd130 2.356 . S
O139 C137 1.282 . S
C140 O141 1.306 . S
C140 O143 1.160 . S
O141 C140 1.306 . S
O141 Cd142 2.228 . S
Cd142 O141 2.228 . S
Cd142 O146 2.273 . S
Cd142 O150 2.277 . S
O143 C140 1.160 . S
O143 Cd144 2.203 . S
Cd144 O143 2.203 . S
Cd144 O146 2.411 . S
Cd144 O147 2.333 . S
Cd144 O148 2.352 . S
Cd144 O152 2.277 . S
Cd144 O153 2.356 . S
C145 O150 1.209 . S
C145 O152 1.226 . S
O146 Cd142 2.273 . S
O146 Cd144 2.411 . S
O146 C149 1.320 . S
O147 Cd144 2.333 . S
O147 C149 1.214 . S
O148 Cd144 2.352 . S
O148 C151 1.258 . S
C149 O146 1.320 . S
C149 O147 1.214 . S
O150 Cd142 2.277 . S
O150 C145 1.209 . S
C151 O148 1.258 . S
C151 O153 1.282 . S
O152 Cd144 2.277 . S
O152 C145 1.226 . S
O153 Cd144 2.356 . S
O153 C151 1.282 . S
C154 O155 1.306 . S
C154 O157 1.160 . S
O155 C154 1.306 . S
O155 Cd156 2.228 . S
Cd156 O155 2.228 . S
Cd156 O160 2.273 . S
Cd156 O164 2.277 . S
O157 C154 1.160 . S
O157 Cd158 2.203 . S
Cd158 O157 2.203 . S
Cd158 O160 2.411 . S
Cd158 O161 2.333 . S
Cd158 O162 2.352 . S
Cd158 O166 2.277 . S
Cd158 O167 2.356 . S
C159 O164 1.209 . S
C159 O166 1.226 . S
O160 Cd156 2.273 . S
O160 Cd158 2.411 . S
O160 C163 1.320 . S
O161 Cd158 2.333 . S
O161 C163 1.214 . S
O162 Cd158 2.352 . S
O162 C165 1.258 . S
C163 O160 1.320 . S
C163 O161 1.214 . S
O164 Cd156 2.277 . S
O164 C159 1.209 . S
C165 O162 1.258 . S
C165 O167 1.282 . S
O166 Cd158 2.277 . S
O166 C159 1.226 . S
O167 Cd158 2.356 . S
O167 C165 1.282 . S
H168 C174 0.930 . S
H169 C177 0.930 . S
H170 C178 0.930 . S
H171 C179 0.930 . S
H172 C182 0.930 . S
H173 C183 0.930 . S
C174 H168 0.930 . S
C174 C175 1.355 . S
C174 C176 1.415 1_565 S
C175 C174 1.355 . S
C175 C177 1.419 1_556 S
C176 C174 1.415 1_545 S
C176 C181 1.425 1_546 S
C176 C183 1.409 . S
C177 H169 0.930 . S
C177 C175 1.419 1_554 S
C177 C178 1.362 . S
C178 H170 0.930 . S
C178 C177 1.362 . S
C178 C181 1.409 . S
C179 H171 0.930 . S
C179 C180 1.355 . S
C179 C181 1.415 1_545 S
C180 C179 1.355 . S
C180 C182 1.419 1_554 S
C181 C176 1.425 1_564 S
C181 C178 1.409 . S
C181 C179 1.415 1_565 S
C182 H172 0.930 . S
C182 C180 1.419 1_556 S
C182 C183 1.362 . S
C183 H173 0.930 . S
C183 C176 1.409 . S
C183 C182 1.362 . S
H184 C190 0.930 . S
H185 C193 0.930 . S
H186 C194 0.930 . S
H187 C195 0.930 . S
H188 C198 0.930 . S
H189 C199 0.930 . S
C190 H184 0.930 . S
C190 C191 1.355 . S
C190 C192 1.415 . S
C191 C190 1.355 . S
C191 C193 1.419 . S
C192 C190 1.415 . S
C192 C197 1.425 . S
C192 C199 1.409 . S
C193 H185 0.930 . S
C193 C191 1.419 . S
C193 C194 1.362 . S
C194 H186 0.930 . S
C194 C193 1.362 . S
C194 C197 1.409 . S
C195 H187 0.930 . S
C195 C196 1.355 . S
C195 C197 1.415 . S
C196 C195 1.355 . S
C196 C198 1.419 . S
C197 C192 1.425 . S
C197 C194 1.409 . S
C197 C195 1.415 . S
C198 H188 0.930 . S
C198 C196 1.419 . S
C198 C199 1.362 . S
C199 H189 0.930 . S
C199 C192 1.409 . S
C199 C198 1.362 . S
H200 C206 0.930 . S
H201 C209 0.930 . S
H202 C210 0.930 . S
H203 C211 0.930 . S
H204 C214 0.930 . S
H205 C215 0.930 . S
C206 H200 0.930 . S
C206 C207 1.355 . S
C206 C208 1.415 1_655 S
C207 C206 1.355 . S
C207 C209 1.419 . S
C208 C206 1.415 1_455 S
C208 C213 1.425 1_455 S
C208 C215 1.409 . S
C209 H201 0.930 . S
C209 C207 1.419 . S
C209 C210 1.362 . S
C210 H202 0.930 . S
C210 C209 1.362 . S
C210 C213 1.409 . S
C211 H203 0.930 . S
C211 C212 1.355 . S
C211 C213 1.415 1_455 S
C212 C211 1.355 . S
C212 C214 1.419 . S
C213 C208 1.425 1_655 S
C213 C210 1.409 . S
C213 C211 1.415 1_655 S
C214 H204 0.930 . S
C214 C212 1.419 . S
C214 C215 1.362 . S
C215 H205 0.930 . S
C215 C208 1.409 . S
C215 C214 1.362 . S
H216 C222 0.930 . S
H217 C225 0.929 . S
H218 C226 0.930 . S
H219 C227 0.930 . S
H220 C230 0.929 . S
H221 C231 0.930 . S
C222 H216 0.930 . S
C222 C223 1.355 . S
C222 C224 1.415 1_565 S
C223 C222 1.355 . S
C223 C225 1.424 1_554 S
C224 C222 1.415 1_545 S
C224 C229 1.425 1_544 S
C224 C231 1.409 . S
C225 H217 0.929 . S
C225 C223 1.424 1_556 S
C225 C226 1.359 . S
C226 H218 0.930 . S
C226 C225 1.359 . S
C226 C229 1.409 . S
C227 H219 0.930 . S
C227 C228 1.355 . S
C227 C229 1.415 1_545 S
C228 C227 1.355 . S
C228 C230 1.424 1_556 S
C229 C224 1.425 1_566 S
C229 C226 1.409 . S
C229 C227 1.415 1_565 S
C230 H220 0.929 . S
C230 C228 1.424 1_554 S
C230 C231 1.359 . S
C231 H221 0.930 . S
C231 C224 1.409 . S
C231 C230 1.359 . S
H232 C238 0.930 . S
H233 C241 0.930 . S
H234 C242 0.930 . S
H235 C243 0.930 . S
H236 C246 0.930 . S
H237 C247 0.930 . S
C238 H232 0.930 . S
C238 C239 1.355 . S
C238 C240 1.415 . S
C239 C238 1.355 . S
C239 C241 1.419 . S
C240 C238 1.415 . S
C240 C245 1.425 . S
C240 C247 1.409 . S
C241 H233 0.930 . S
C241 C239 1.419 . S
C241 C242 1.362 . S
C242 H234 0.930 . S
C242 C241 1.362 . S
C242 C245 1.409 . S
C243 H235 0.930 . S
C243 C244 1.355 . S
C243 C245 1.415 . S
C244 C243 1.355 . S
C244 C246 1.419 . S
C245 C240 1.425 . S
C245 C242 1.409 . S
C245 C243 1.415 . S
C246 H236 0.930 . S
C246 C244 1.419 . S
C246 C247 1.362 . S
C247 H237 0.930 . S
C247 C240 1.409 . S
C247 C246 1.362 . S
H248 C254 0.930 . S
H249 C257 0.930 . S
H250 C258 0.930 . S
H251 C259 0.930 . S
H252 C262 0.930 . S
H253 C263 0.930 . S
C254 H248 0.930 . S
C254 C255 1.355 . S
C254 C256 1.415 . S
C255 C254 1.355 . S
C255 C257 1.419 . S
C256 C254 1.415 . S
C256 C261 1.425 1_655 S
C256 C263 1.409 1_655 S
C257 H249 0.930 . S
C257 C255 1.419 . S
C257 C258 1.362 . S
C258 H250 0.930 . S
C258 C257 1.362 . S
C258 C261 1.409 1_655 S
C259 H251 0.930 . S
C259 C260 1.355 . S
C259 C261 1.415 . S
C260 C259 1.355 . S
C260 C262 1.419 . S
C261 C256 1.425 1_455 S
C261 C258 1.409 1_455 S
C261 C259 1.415 . S
C262 H252 0.930 . S
C262 C260 1.419 . S
C262 C263 1.362 . S
C263 H253 0.930 . S
C263 C256 1.409 1_455 S
C263 C262 1.362 . S
H264 C270 0.930 . S
H265 C273 0.930 . S
H266 C274 0.930 . S
H267 C275 0.930 . S
H268 C278 0.930 . S
H269 C279 0.930 . S
C270 H264 0.930 . S
C270 C271 1.355 . S
C270 C272 1.415 . S
C271 C270 1.355 . S
C271 C273 1.419 1_556 S
C272 C270 1.415 . S
C272 C277 1.425 1_556 S
C272 C279 1.409 . S
C273 H265 0.930 . S
C273 C271 1.419 1_554 S
C273 C274 1.362 . S
C274 H266 0.930 . S
C274 C273 1.362 . S
C274 C277 1.409 . S
C275 H267 0.930 . S
C275 C276 1.355 . S
C275 C277 1.415 . S
C276 C275 1.355 . S
C276 C278 1.419 1_554 S
C277 C272 1.425 1_554 S
C277 C274 1.409 . S
C277 C275 1.415 . S
C278 H268 0.930 . S
C278 C276 1.419 1_556 S
C278 C279 1.362 . S
C279 H269 0.930 . S
C279 C272 1.409 . S
C279 C278 1.362 . S
H280 C286 0.930 . S
H281 C289 0.930 . S
H282 C290 0.930 . S
H283 C291 0.930 . S
H284 C294 0.930 . S
H285 C295 0.930 . S
C286 H280 0.930 . S
C286 C287 1.355 . S
C286 C288 1.415 . S
C287 C286 1.355 . S
C287 C289 1.419 . S
C288 C286 1.415 . S
C288 C293 1.425 . S
C288 C295 1.409 . S
C289 H281 0.930 . S
C289 C287 1.419 . S
C289 C290 1.362 . S
C290 H282 0.930 . S
C290 C289 1.362 . S
C290 C293 1.409 . S
C291 H283 0.930 . S
C291 C292 1.355 . S
C291 C293 1.415 . S
C292 C291 1.355 . S
C292 C294 1.419 . S
C293 C288 1.425 . S
C293 C290 1.409 . S
C293 C291 1.415 . S
C294 H284 0.930 . S
C294 C292 1.419 . S
C294 C295 1.362 . S
C295 H285 0.930 . S
C295 C288 1.409 . S
C295 C294 1.362 . S
H296 C302 0.930 . S
H297 C305 0.930 . S
H298 C306 0.930 . S
H299 C307 0.930 . S
H300 C310 0.930 . S
H301 C311 0.930 . S
C302 H296 0.930 . S
C302 C303 1.355 . S
C302 C304 1.415 . S
C303 C302 1.355 . S
C303 C305 1.419 . S
C304 C302 1.415 . S
C304 C309 1.425 . S
C304 C311 1.409 . S
C305 H297 0.930 . S
C305 C303 1.419 . S
C305 C306 1.362 . S
C306 H298 0.930 . S
C306 C305 1.362 . S
C306 C309 1.409 . S
C307 H299 0.930 . S
C307 C308 1.355 . S
C307 C309 1.415 . S
C308 C307 1.355 . S
C308 C310 1.419 . S
C309 C304 1.425 . S
C309 C306 1.409 . S
C309 C307 1.415 . S
C310 H300 0.930 . S
C310 C308 1.419 . S
C310 C311 1.362 . S
C311 H301 0.930 . S
C311 C304 1.409 . S
C311 C310 1.362 . S
H312 C318 0.930 . S
H313 C321 0.930 . S
H314 C322 0.930 . S
H315 C323 0.930 . S
H316 C326 0.930 . S
H317 C327 0.930 . S
C318 H312 0.930 . S
C318 C319 1.355 . S
C318 C320 1.415 . S
C319 C318 1.355 . S
C319 C321 1.419 1_556 S
C320 C318 1.415 . S
C320 C325 1.425 1_556 S
C320 C327 1.409 . S
C321 H313 0.930 . S
C321 C319 1.419 1_554 S
C321 C322 1.362 . S
C322 H314 0.930 . S
C322 C321 1.362 . S
C322 C325 1.409 . S
C323 H315 0.930 . S
C323 C324 1.355 . S
C323 C325 1.415 . S
C324 C323 1.355 . S
C324 C326 1.419 1_554 S
C325 C320 1.425 1_554 S
C325 C322 1.409 . S
C325 C323 1.415 . S
C326 H316 0.930 . S
C326 C324 1.419 1_556 S
C326 C327 1.362 . S
C327 H317 0.930 . S
C327 C320 1.409 . S
C327 C326 1.362 . S
H328 C334 0.930 . S
H329 C337 0.930 . S
H330 C338 0.930 . S
H331 C339 0.930 . S
H332 C342 0.930 . S
H333 C343 0.930 . S
C334 H328 0.930 . S
C334 C335 1.355 . S
C334 C336 1.415 . S
C335 C334 1.355 . S
C335 C337 1.419 . S
C336 C334 1.415 . S
C336 C341 1.425 . S
C336 C343 1.409 . S
C337 H329 0.930 . S
C337 C335 1.419 . S
C337 C338 1.362 . S
C338 H330 0.930 . S
C338 C337 1.362 . S
C338 C341 1.409 . S
C339 H331 0.930 . S
C339 C340 1.355 . S
C339 C341 1.415 . S
C340 C339 1.355 . S
C340 C342 1.419 . S
C341 C336 1.425 . S
C341 C338 1.409 . S
C341 C339 1.415 . S
C342 H332 0.930 . S
C342 C340 1.419 . S
C342 C343 1.362 . S
C343 H333 0.930 . S
C343 C336 1.409 . S
C343 C342 1.362 . S
H344 C350 0.930 . S
H345 C353 0.930 . S
H346 C354 0.930 . S
H347 C355 0.930 . S
H348 C358 0.930 . S
H349 C359 0.930 . S
C350 H344 0.930 . S
C350 C351 1.355 . S
C350 C352 1.415 . S
C351 C350 1.355 . S
C351 C353 1.419 . S
C352 C350 1.415 . S
C352 C357 1.425 . S
C352 C359 1.409 . S
C353 H345 0.930 . S
C353 C351 1.419 . S
C353 C354 1.362 . S
C354 H346 0.930 . S
C354 C353 1.362 . S
C354 C357 1.409 . S
C355 H347 0.930 . S
C355 C356 1.355 . S
C355 C357 1.415 . S
C356 C355 1.355 . S
C356 C358 1.419 . S
C357 C352 1.425 . S
C357 C354 1.409 . S
C357 C355 1.415 . S
C358 H348 0.930 . S
C358 C356 1.419 . S
C358 C359 1.362 . S
C359 H349 0.930 . S
C359 C352 1.409 . S
C359 C358 1.362 . S
H360 C366 0.930 . S
H361 C369 0.930 . S
H362 C370 0.930 . S
H363 C371 0.930 . S
H364 C374 0.930 . S
H365 C375 0.930 . S
C366 H360 0.930 . S
C366 C367 1.355 . S
C366 C368 1.415 . S
C367 C366 1.355 . S
C367 C369 1.419 . S
C368 C366 1.415 . S
C368 C373 1.425 . S
C368 C375 1.409 . S
C369 H361 0.930 . S
C369 C367 1.419 . S
C369 C370 1.362 . S
C370 H362 0.930 . S
C370 C369 1.362 . S
C370 C373 1.409 . S
C371 H363 0.930 . S
C371 C372 1.355 . S
C371 C373 1.415 . S
C372 C371 1.355 . S
C372 C374 1.419 . S
C373 C368 1.425 . S
C373 C370 1.409 . S
C373 C371 1.415 . S
C374 H364 0.930 . S
C374 C372 1.419 . S
C374 C375 1.362 . S
C375 H365 0.930 . S
C375 C368 1.409 . S
C375 C374 1.362 . S
H376 C382 0.930 . S
H377 C385 0.930 . S
H378 C386 0.930 . S
H379 C387 0.930 . S
H380 C390 0.930 . S
H381 C391 0.930 . S
C382 H376 0.930 . S
C382 C383 1.355 . S
C382 C384 1.415 . S
C383 C382 1.355 . S
C383 C385 1.419 . S
C384 C382 1.415 . S
C384 C389 1.425 . S
C384 C391 1.409 . S
C385 H377 0.930 . S
C385 C383 1.419 . S
C385 C386 1.362 . S
C386 H378 0.930 . S
C386 C385 1.362 . S
C386 C389 1.409 . S
C387 H379 0.930 . S
C387 C388 1.355 . S
C387 C389 1.415 . S
C388 C387 1.355 . S
C388 C390 1.419 . S
C389 C384 1.425 . S
C389 C386 1.409 . S
C389 C387 1.415 . S
C390 H380 0.930 . S
C390 C388 1.419 . S
C390 C391 1.362 . S
C391 H381 0.930 . S
C391 C384 1.409 . S
C391 C390 1.362 . S
H392 C398 0.930 . S
H393 C401 0.930 . S
H394 C402 0.930 . S
H395 C403 0.930 . S
H396 C406 0.930 . S
H397 C407 0.930 . S
C398 H392 0.930 . S
C398 C399 1.355 . S
C398 C400 1.415 . S
C399 C398 1.355 . S
C399 C401 1.419 . S
C400 C398 1.415 . S
C400 C405 1.425 . S
C400 C407 1.409 . S
C401 H393 0.930 . S
C401 C399 1.419 . S
C401 C402 1.362 . S
C402 H394 0.930 . S
C402 C401 1.362 . S
C402 C405 1.409 . S
C403 H395 0.930 . S
C403 C404 1.355 . S
C403 C405 1.415 . S
C404 C403 1.355 . S
C404 C406 1.419 . S
C405 C400 1.425 . S
C405 C402 1.409 . S
C405 C403 1.415 . S
C406 H396 0.930 . S
C406 C404 1.419 . S
C406 C407 1.362 . S
C407 H397 0.930 . S
C407 C400 1.409 . S
C407 C406 1.362 . S
H408 C414 0.930 . S
H409 C417 0.930 . S
H410 C418 0.930 . S
H411 C419 0.930 . S
H412 C422 0.930 . S
H413 C423 0.930 . S
C414 H408 0.930 . S
C414 C415 1.355 . S
C414 C416 1.415 . S
C415 C414 1.355 . S
C415 C417 1.419 . S
C416 C414 1.415 . S
C416 C421 1.425 . S
C416 C423 1.409 . S
C417 H409 0.930 . S
C417 C415 1.419 . S
C417 C418 1.362 . S
C418 H410 0.930 . S
C418 C417 1.362 . S
C418 C421 1.409 . S
C419 H411 0.930 . S
C419 C420 1.355 . S
C419 C421 1.415 . S
C420 C419 1.355 . S
C420 C422 1.419 . S
C421 C416 1.425 . S
C421 C418 1.409 . S
C421 C419 1.415 . S
C422 H412 0.930 . S
C422 C420 1.419 . S
C422 C423 1.362 . S
C423 H413 0.930 . S
C423 C416 1.409 . S
C423 C422 1.362 . S
H424 C430 0.930 . S
H425 C433 0.930 . S
H426 C434 0.930 . S
H427 C435 0.930 . S
H428 C438 0.930 . S
H429 C439 0.930 . S
C430 H424 0.930 . S
C430 C431 1.355 . S
C430 C432 1.415 . S
C431 C430 1.355 . S
C431 C433 1.419 . S
C432 C430 1.415 . S
C432 C437 1.425 . S
C432 C439 1.409 . S
C433 H425 0.930 . S
C433 C431 1.419 . S
C433 C434 1.362 . S
C434 H426 0.930 . S
C434 C433 1.362 . S
C434 C437 1.409 . S
C435 H427 0.930 . S
C435 C436 1.355 . S
C435 C437 1.415 . S
C436 C435 1.355 . S
C436 C438 1.419 . S
C437 C432 1.425 . S
C437 C434 1.409 . S
C437 C435 1.415 . S
C438 H428 0.930 . S
C438 C436 1.419 . S
C438 C439 1.362 . S
C439 H429 0.930 . S
C439 C432 1.409 . S
C439 C438 1.362 . S
H440 C446 0.930 . S
H441 C449 0.930 . S
H442 C450 0.930 . S
H443 C451 0.930 . S
H444 C454 0.930 . S
H445 C455 0.930 . S
C446 H440 0.930 . S
C446 C447 1.355 . S
C446 C448 1.415 . S
C447 C446 1.355 . S
C447 C449 1.419 . S
C448 C446 1.415 . S
C448 C453 1.425 . S
C448 C455 1.409 . S
C449 H441 0.930 . S
C449 C447 1.419 . S
C449 C450 1.362 . S
C450 H442 0.930 . S
C450 C449 1.362 . S
C450 C453 1.409 . S
C451 H443 0.930 . S
C451 C452 1.355 . S
C451 C453 1.415 . S
C452 C451 1.355 . S
C452 C454 1.419 . S
C453 C448 1.425 . S
C453 C450 1.409 . S
C453 C451 1.415 . S
C454 H444 0.930 . S
C454 C452 1.419 . S
C454 C455 1.362 . S
C455 H445 0.930 . S
C455 C448 1.409 . S
C455 C454 1.362 . S
H456 C462 0.930 . S
H457 C465 0.930 . S
H458 C466 0.930 . S
H459 C467 0.930 . S
H460 C470 0.930 . S
H461 C471 0.930 . S
C462 H456 0.930 . S
C462 C463 1.355 . S
C462 C464 1.415 . S
C463 C462 1.355 . S
C463 C465 1.419 . S
C464 C462 1.415 . S
C464 C469 1.425 . S
C464 C471 1.409 . S
C465 H457 0.930 . S
C465 C463 1.419 . S
C465 C466 1.362 . S
C466 H458 0.930 . S
C466 C465 1.362 . S
C466 C469 1.409 . S
C467 H459 0.930 . S
C467 C468 1.355 . S
C467 C469 1.415 . S
C468 C467 1.355 . S
C468 C470 1.419 . S
C469 C464 1.425 . S
C469 C466 1.409 . S
C469 C467 1.415 . S
C470 H460 0.930 . S
C470 C468 1.419 . S
C470 C471 1.362 . S
C471 H461 0.930 . S
C471 C464 1.409 . S
C471 C470 1.362 . S
H472 C478 0.934 . S
H473 C481 0.930 . S
H474 C482 0.930 . S
H475 C483 0.934 . S
H476 C486 0.930 . S
H477 C487 0.930 . S
C478 H472 0.934 . S
C478 C479 1.335 1_455 S
C478 C480 1.430 . S
C479 C478 1.335 1_655 S
C479 C481 1.419 . S
C480 C478 1.430 . S
C480 C485 1.425 1_455 S
C480 C487 1.409 . S
C481 H473 0.930 . S
C481 C479 1.419 . S
C481 C482 1.362 . S
C482 H474 0.930 . S
C482 C481 1.362 . S
C482 C485 1.409 . S
C483 H475 0.934 . S
C483 C484 1.335 1_655 S
C483 C485 1.430 . S
C484 C483 1.335 1_455 S
C484 C486 1.419 . S
C485 C480 1.425 1_655 S
C485 C482 1.409 . S
C485 C483 1.430 . S
C486 H476 0.930 . S
C486 C484 1.419 . S
C486 C487 1.362 . S
C487 H477 0.930 . S
C487 C480 1.409 . S
C487 C486 1.362 . S
H488 C494 0.930 . S
H489 C497 0.930 . S
H490 C498 0.930 . S
H491 C499 0.930 . S
H492 C502 0.930 . S
H493 C503 0.930 . S
C494 H488 0.930 . S
C494 C495 1.355 1_565 S
C494 C496 1.415 . S
C495 C494 1.355 1_545 S
C495 C497 1.419 . S
C496 C494 1.415 . S
C496 C501 1.425 1_565 S
C496 C503 1.409 . S
C497 H489 0.930 . S
C497 C495 1.419 . S
C497 C498 1.362 . S
C498 H490 0.930 . S
C498 C497 1.362 . S
C498 C501 1.409 . S
C499 H491 0.930 . S
C499 C500 1.355 1_545 S
C499 C501 1.415 . S
C500 C499 1.355 1_565 S
C500 C502 1.419 . S
C501 C496 1.425 1_545 S
C501 C498 1.409 . S
C501 C499 1.415 . S
C502 H492 0.930 . S
C502 C500 1.419 . S
C502 C503 1.362 . S
C503 H493 0.930 . S
C503 C496 1.409 . S
C503 C502 1.362 . S
H504 C510 0.930 . S
H505 C513 0.930 . S
H506 C514 0.930 . S
H507 C515 0.930 . S
H508 C518 0.930 . S
H509 C519 0.930 . S
C510 H504 0.930 . S
C510 C511 1.355 . S
C510 C512 1.415 . S
C511 C510 1.355 . S
C511 C513 1.419 . S
C512 C510 1.415 . S
C512 C517 1.425 . S
C512 C519 1.409 . S
C513 H505 0.930 . S
C513 C511 1.419 . S
C513 C514 1.362 . S
C514 H506 0.930 . S
C514 C513 1.362 . S
C514 C517 1.409 . S
C515 H507 0.930 . S
C515 C516 1.355 . S
C515 C517 1.415 . S
C516 C515 1.355 . S
C516 C518 1.419 . S
C517 C512 1.425 . S
C517 C514 1.409 . S
C517 C515 1.415 . S
C518 H508 0.930 . S
C518 C516 1.419 . S
C518 C519 1.362 . S
C519 H509 0.930 . S
C519 C512 1.409 . S
C519 C518 1.362 . S
H520 C526 0.930 . S
H521 C529 0.930 . S
H522 C530 0.930 . S
H523 C531 0.930 . S
H524 C534 0.930 . S
H525 C535 0.930 . S
C526 H520 0.930 . S
C526 C527 1.355 . S
C526 C528 1.415 . S
C527 C526 1.355 . S
C527 C529 1.419 . S
C528 C526 1.415 . S
C528 C533 1.425 1_455 S
C528 C535 1.409 1_455 S
C529 H521 0.930 . S
C529 C527 1.419 . S
C529 C530 1.362 . S
C530 H522 0.930 . S
C530 C529 1.362 . S
C530 C533 1.409 1_455 S
C531 H523 0.930 . S
C531 C532 1.355 . S
C531 C533 1.415 . S
C532 C531 1.355 . S
C532 C534 1.419 . S
C533 C528 1.425 1_655 S
C533 C530 1.409 1_655 S
C533 C531 1.415 . S
C534 H524 0.930 . S
C534 C532 1.419 . S
C534 C535 1.362 . S
C535 H525 0.930 . S
C535 C528 1.409 1_655 S
C535 C534 1.362 . S
H536 C542 0.930 1_545 S
H537 C545 0.930 . S
H538 C546 0.930 . S
H539 C547 0.930 1_565 S
H540 C550 0.930 . S
H541 C551 0.930 . S
C542 H536 0.930 1_565 S
C542 C543 1.355 . S
C542 C544 1.415 1_565 S
C543 C542 1.355 . S
C543 C545 1.419 . S
C544 C542 1.415 1_545 S
C544 C549 1.425 1_545 S
C544 C551 1.409 . S
C545 H537 0.930 . S
C545 C543 1.419 . S
C545 C546 1.362 . S
C546 H538 0.930 . S
C546 C545 1.362 . S
C546 C549 1.409 . S
C547 H539 0.930 1_545 S
C547 C548 1.355 . S
C547 C549 1.415 1_545 S
C548 C547 1.355 . S
C548 C550 1.419 . S
C549 C544 1.425 1_565 S
C549 C546 1.409 . S
C549 C547 1.415 1_565 S
C550 H540 0.930 . S
C550 C548 1.419 . S
C550 C551 1.362 . S
C551 H541 0.930 . S
C551 C544 1.409 . S
C551 C550 1.362 . S
C175 C98 1.359 . S
C180 C0 1.374 . S
C191 C14 1.354 . S
C196 C112 1.383 . S
C207 C28 1.352 . S
C212 C126 1.388 . S
C223 C42 1.377 . S
C228 C140 1.357 . S
C239 C154 1.352 . S
C244 C56 1.399 . S
C255 C84 1.361 . S
C260 C70 1.410 . S
C271 C145 1.447 . S
C276 C5 1.439 . S
C287 C19 1.437 . S
C292 C159 1.446 . S
C303 C33 1.447 . S
C308 C89 1.441 . S
C319 C103 1.447 . S
C324 C47 1.444 . S
C335 C117 1.446 . S
C340 C61 1.436 . S
C351 C131 1.440 . S
C356 C75 1.427 . S
C367 C11 1.668 . S
C372 C123 1.701 . S
C383 C25 1.682 . S
C388 C137 1.707 . S
C399 C151 1.696 . S
C404 C39 1.670 . S
C415 C53 1.679 . S
C420 C165 1.708 . S
C431 C95 1.687 . S
C436 C67 1.704 . S
C447 C109 1.693 . S
C452 C81 1.700 . S
C463 C51 1.430 . S
C468 C9 1.423 . S
C479 C65 1.356 . S
C484 C23 1.359 . S
C495 C37 1.367 . S
C500 C79 1.354 . S
C511 C93 1.375 . S
C516 C135 1.354 . S
C527 C107 1.364 . S
C532 C149 1.396 . S
C543 C163 1.354 . S
C548 C121 1.369 . S
