# Generated by pormake.
# Topology uku, (4)-cn, num edge types: 1
# Building blocks:
#     Node 0, Type 0, BuildingBlock: ICAMEG_clean_sbu_1, # of connection points: 4
#     Node 1, Type 0, BuildingBlock: ICAMEG_clean_sbu_1, # of connection points: 4
#     Node 2, Type 0, BuildingBlock: ICAMEG_clean_sbu_1, # of connection points: 4
#     Node 3, Type 0, BuildingBlock: ICAMEG_clean_sbu_1, # of connection points: 4
#     Node 4, Type 0, BuildingBlock: ICAMEG_clean_sbu_1, # of connection points: 4
#     Node 5, Type 0, BuildingBlock: ICAMEG_clean_sbu_1, # of connection points: 4
#     Node 6, Type 0, BuildingBlock: ICAMEG_clean_sbu_1, # of connection points: 4
#     Node 7, Type 0, BuildingBlock: ICAMEG_clean_sbu_1, # of connection points: 4
#     Node 8, Type 0, BuildingBlock: ICAMEG_clean_sbu_1, # of connection points: 4
#     Node 9, Type 0, BuildingBlock: ICAMEG_clean_sbu_1, # of connection points: 4
#     Node 10, Type 0, BuildingBlock: ICAMEG_clean_sbu_1, # of connection points: 4
#     Node 11, Type 0, BuildingBlock: ICAMEG_clean_sbu_1, # of connection points: 4
#     Edge 12, Type (0, 0), None
#     Edge 13, Type (0, 0), None
#     Edge 14, Type (0, 0), None
#     Edge 15, Type (0, 0), None
#     Edge 16, Type (0, 0), None
#     Edge 17, Type (0, 0), None
#     Edge 18, Type (0, 0), None
#     Edge 19, Type (0, 0), None
#     Edge 20, Type (0, 0), None
#     Edge 21, Type (0, 0), None
#     Edge 22, Type (0, 0), None
#     Edge 23, Type (0, 0), None
#     Edge 24, Type (0, 0), None
#     Edge 25, Type (0, 0), None
#     Edge 26, Type (0, 0), None
#     Edge 27, Type (0, 0), None
#     Edge 28, Type (0, 0), None
#     Edge 29, Type (0, 0), None
#     Edge 30, Type (0, 0), None
#     Edge 31, Type (0, 0), None
#     Edge 32, Type (0, 0), None
#     Edge 33, Type (0, 0), None
#     Edge 34, Type (0, 0), None
#     Edge 35, Type (0, 0), None
# Relax obj value: 0.356
# Max RMSD: 0.222
# Mean RMSD: 0.222
data_MOF--net-uku--node1-ICAMEG_clean_sbu_1--edge1-none
_symmetry_space_group_name_H-M    P1
_symmetry_Int_Tables_number       1
_symmetry_cell_setting            triclinic
loop_
_symmetry_equiv_pos_as_xyz
'x, y, z'
_cell_length_a     20.756224
_cell_length_b     20.843099
_cell_length_c     20.607593
_cell_angle_alpha  90.003134
_cell_angle_beta   90.000188
_cell_angle_gamma 90.002482
loop_
_atom_site_label
_atom_site_type_symbol
_atom_site_fract_x
_atom_site_fract_y
_atom_site_fract_z
_atom_type_partial_charge
Co0 Co 0.06296 0.15233 0.71475 0.0
Co1 Co 0.14662 0.23884 0.5966 0.0
O2 O 0.07469 0.18238 0.627 0.0
C3 C 0.0173 0.03161 0.63413 0.0
O4 O 0.03453 0.05721 0.57881 0.0
C5 C 0.01876 0.28482 0.53644 0.0
O6 O 0.98667 0.27379 0.59009 0.0
O7 O 0.13703 0.30254 0.67529 0.0
O8 O 0.09797 0.234 0.74768 0.0
H9 H 0.368 0.3361 0.57903 0.0
H10 H 0.93594 0.15484 0.63225 0.0
O11 O 0.02608 0.06306 0.68684 0.0
H12 H 0.89503 0.24657 0.84283 0.0
H13 H 0.96658 0.03296 0.90799 0.0
H14 H 0.1065 0.20176 0.84969 0.0
H15 H 0.99384 0.24467 0.80263 0.0
H16 H 0.03363 0.10235 0.78876 0.0
O17 O 0.08041 0.28183 0.53659 0.0
H18 H 0.27542 0.29195 0.64015 0.0
H19 H 0.16458 0.29868 0.46652 0.0
H20 H 0.0281 0.21907 0.9397 0.0
H21 H 0.82597 0.19103 0.65169 0.0
H22 H 0.96428 0.12309 0.96976 0.0
H23 H 0.71007 0.24178 0.77287 0.0
O24 O 0.15914 0.11962 0.7081 0.0
H25 H 0.09111 0.05983 0.44232 0.0
H26 H 0.26628 0.1841 0.54 0.0
H27 H 0.29209 0.09505 0.46719 0.0
H28 H 0.20372 0.03056 0.41893 0.0
H29 H 0.06604 0.15528 0.50874 0.0
H30 H 0.25118 0.35389 0.41035 0.0
H31 H 0.35546 0.3712 0.46619 0.0
O32 O 0.21437 0.19375 0.65085 0.0
C33 C 0.12417 0.28696 0.73527 0.0
C34 C 0.32191 0.33136 0.55628 0.0
C35 C 0.25677 0.34095 0.46092 0.0
N36 N 0.21292 0.29378 0.55845 0.0
C37 C 0.2694 0.3057 0.59006 0.0
C38 C 0.20663 0.3112 0.49439 0.0
C39 C 0.31516 0.3504 0.49206 0.0
C40 C 0.92434 0.17689 0.67779 0.0
N41 N 0.97313 0.18832 0.7202 0.0
C42 C 0.85952 0.19689 0.6915 0.0
C43 C 0.83602 0.2162 0.75614 0.0
C44 C 0.89348 0.22933 0.79436 0.0
C45 C 0.95714 0.22317 0.77318 0.0
C46 C 0.99064 0.07257 0.8875 0.0
C47 C 0.06781 0.1706 0.85628 0.0
C48 C 0.01253 0.07301 0.82351 0.0
N49 N 0.05039 0.12621 0.80655 0.0
C50 C 0.02891 0.17649 0.91014 0.0
C51 C 0.99184 0.12508 0.92619 0.0
C52 C 0.2138 0.14415 0.68708 0.0
C53 C 0.12939 0.08826 0.4622 0.0
C54 C 0.22707 0.1591 0.51677 0.0
C55 C 0.24232 0.10771 0.47618 0.0
C56 C 0.19291 0.07155 0.44931 0.0
N57 N 0.16426 0.1758 0.52888 0.0
C58 C 0.11567 0.14213 0.50033 0.0
Co59 Co 0.9393 0.84581 0.71489 0.0
Co60 Co 0.85566 0.75922 0.59676 0.0
O61 O 0.92756 0.81567 0.62717 0.0
C62 C 0.98494 0.96649 0.63412 0.0
O63 O 0.96762 0.94093 0.57881 0.0
C64 C 0.98355 0.71322 0.53663 0.0
O65 O 0.01563 0.72425 0.59029 0.0
O66 O 0.86528 0.69562 0.6755 0.0
O67 O 0.90419 0.76423 0.74797 0.0
H68 H 0.63426 0.66205 0.57915 0.0
H69 H 0.06627 0.84319 0.63237 0.0
O70 O 0.97623 0.93501 0.68682 0.0
H71 H 0.10717 0.75146 0.84292 0.0
H72 H 0.03581 0.96633 0.90712 0.0
H73 H 0.89652 0.79626 0.85019 0.0
H74 H 0.00836 0.75364 0.8029 0.0
H75 H 0.96855 0.89593 0.78877 0.0
O76 O 0.9219 0.71621 0.53678 0.0
H77 H 0.72685 0.70616 0.64029 0.0
H78 H 0.83776 0.69927 0.46672 0.0
H79 H 0.9742 0.7806 0.94088 0.0
H80 H 0.17623 0.80699 0.65181 0.0
H81 H 0.03801 0.87692 0.97 0.0
H82 H 0.29213 0.75626 0.77303 0.0
O83 O 0.84312 0.87853 0.70817 0.0
H84 H 0.91112 0.93818 0.44242 0.0
H85 H 0.73599 0.81389 0.54012 0.0
H86 H 0.71016 0.90289 0.46727 0.0
H87 H 0.79851 0.9674 0.419 0.0
H88 H 0.93623 0.84277 0.50887 0.0
H89 H 0.75116 0.64407 0.41053 0.0
H90 H 0.64684 0.62686 0.46633 0.0
O91 O 0.78792 0.80433 0.65097 0.0
C92 C 0.87802 0.71125 0.7355 0.0
C93 C 0.68037 0.66673 0.55642 0.0
C94 C 0.74555 0.65705 0.4611 0.0
N95 N 0.78938 0.70425 0.55863 0.0
C96 C 0.73288 0.69237 0.59021 0.0
C97 C 0.79569 0.68678 0.49457 0.0
C98 C 0.68714 0.64765 0.49221 0.0
C99 C 0.07788 0.82118 0.67792 0.0
N100 N 0.02909 0.8098 0.72035 0.0
C101 C 0.14269 0.80118 0.69163 0.0
C102 C 0.16619 0.78188 0.75627 0.0
C103 C 0.10873 0.76876 0.79449 0.0
C104 C 0.04507 0.77501 0.77338 0.0
C105 C 0.01155 0.9266 0.88719 0.0
C106 C 0.93478 0.82793 0.85669 0.0
C107 C 0.98979 0.9255 0.8232 0.0
N108 N 0.95201 0.87211 0.80665 0.0
C109 C 0.97337 0.82285 0.91086 0.0
C110 C 0.0103 0.87453 0.92649 0.0
C111 C 0.78847 0.85397 0.68714 0.0
C112 C 0.87286 0.90974 0.46231 0.0
C113 C 0.7752 0.83889 0.51688 0.0
C114 C 0.75994 0.89025 0.47627 0.0
C115 C 0.80933 0.92642 0.4494 0.0
N116 N 0.83802 0.82221 0.52901 0.0
C117 C 0.88659 0.85589 0.50045 0.0
Co118 Co 0.06298 0.84572 0.2947 0.0
Co119 Co 0.14662 0.75918 0.41283 0.0
O120 O 0.0747 0.81564 0.38244 0.0
C121 C 0.0173 0.96642 0.37536 0.0
O122 O 0.03451 0.9408 0.43068 0.0
C123 C 0.01873 0.71319 0.47296 0.0
O124 O 0.98665 0.72423 0.4193 0.0
O125 O 0.13702 0.6955 0.33411 0.0
O126 O 0.098 0.76408 0.26174 0.0
H127 H 0.368 0.66195 0.43041 0.0
H128 H 0.93596 0.84316 0.37719 0.0
O129 O 0.02609 0.93498 0.32265 0.0
H130 H 0.89508 0.75145 0.16661 0.0
H131 H 0.9665 0.96514 0.10158 0.0
H132 H 0.10654 0.79636 0.15974 0.0
H133 H 0.99388 0.75344 0.20678 0.0
H134 H 0.03367 0.89572 0.22072 0.0
O135 O 0.08038 0.71617 0.47281 0.0
H136 H 0.27543 0.70611 0.36929 0.0
H137 H 0.16453 0.69924 0.54287 0.0
H138 H 0.0282 0.77913 0.06967 0.0
H139 H 0.826 0.80692 0.35775 0.0
H140 H 0.96429 0.87507 0.03971 0.0
H141 H 0.71011 0.75616 0.23656 0.0
O142 O 0.15916 0.87844 0.30139 0.0
H143 H 0.09109 0.93819 0.56707 0.0
H144 H 0.26627 0.81388 0.46948 0.0
H145 H 0.29207 0.90295 0.54228 0.0
H146 H 0.20369 0.96747 0.59049 0.0
H147 H 0.06603 0.84272 0.50069 0.0
H148 H 0.25111 0.644 0.59904 0.0
H149 H 0.35542 0.62675 0.54322 0.0
O150 O 0.21438 0.80428 0.3586 0.0
C151 C 0.12418 0.71111 0.27414 0.0
C152 C 0.3219 0.66665 0.45315 0.0
C153 C 0.25673 0.65698 0.54848 0.0
N154 N 0.2129 0.70422 0.45097 0.0
C155 C 0.2694 0.69233 0.41937 0.0
C156 C 0.2066 0.68675 0.51501 0.0
C157 C 0.31513 0.64757 0.51736 0.0
C158 C 0.92436 0.82113 0.33165 0.0
N159 N 0.97316 0.80974 0.28923 0.0
C160 C 0.85955 0.8011 0.31793 0.0
C161 C 0.83605 0.78179 0.25329 0.0
C162 C 0.89352 0.7687 0.21507 0.0
C163 C 0.95717 0.7749 0.23623 0.0
C164 C 0.99059 0.92552 0.12203 0.0
C165 C 0.06785 0.82753 0.15315 0.0
C166 C 0.01252 0.92506 0.18601 0.0
N167 N 0.05042 0.87188 0.20292 0.0
C168 C 0.02898 0.82167 0.09928 0.0
C169 C 0.99185 0.87306 0.08327 0.0
C170 C 0.21382 0.8539 0.3224 0.0
C171 C 0.12937 0.90975 0.54722 0.0
C172 C 0.22706 0.83889 0.4927 0.0
C173 C 0.2423 0.89029 0.53328 0.0
C174 C 0.19289 0.92646 0.56012 0.0
N175 N 0.16424 0.82219 0.48057 0.0
C176 C 0.11565 0.85586 0.50911 0.0
Co177 Co 0.93928 0.15219 0.29457 0.0
Co178 Co 0.85567 0.23882 0.41266 0.0
O179 O 0.92756 0.18236 0.38228 0.0
C180 C 0.98494 0.03153 0.37537 0.0
O181 O 0.96764 0.0571 0.43068 0.0
C182 C 0.98357 0.28483 0.47276 0.0
O183 O 0.01565 0.27379 0.41911 0.0
O184 O 0.86529 0.3024 0.3339 0.0
O185 O 0.90418 0.23375 0.26145 0.0
H186 H 0.63426 0.33596 0.43029 0.0
H187 H 0.06626 0.15486 0.37708 0.0
O188 O 0.97621 0.063 0.32267 0.0
H189 H 0.10712 0.24657 0.16652 0.0
H190 H 0.0359 0.03164 0.10245 0.0
H191 H 0.89648 0.20168 0.15924 0.0
H192 H 0.00832 0.24432 0.2065 0.0
H193 H 0.96852 0.10206 0.22071 0.0
O194 O 0.92192 0.28185 0.47262 0.0
H195 H 0.72683 0.29183 0.36914 0.0
H196 H 0.8378 0.29887 0.54268 0.0
H197 H 0.97409 0.21727 0.06849 0.0
H198 H 0.17621 0.19112 0.35763 0.0
H199 H 0.03799 0.12099 0.03946 0.0
H200 H 0.29209 0.24186 0.2364 0.0
O201 O 0.84311 0.11946 0.30131 0.0
H202 H 0.91115 0.05985 0.56696 0.0
H203 H 0.73601 0.18419 0.46936 0.0
H204 H 0.71018 0.09516 0.54219 0.0
H205 H 0.79854 0.03063 0.5904 0.0
H206 H 0.93624 0.1553 0.50055 0.0
H207 H 0.75122 0.35409 0.59885 0.0
H208 H 0.64687 0.37123 0.54308 0.0
O209 O 0.78792 0.19369 0.35848 0.0
C210 C 0.87801 0.28674 0.2739 0.0
C211 C 0.68038 0.3313 0.453 0.0
C212 C 0.74559 0.34108 0.54829 0.0
N213 N 0.7894 0.29382 0.45079 0.0
C214 C 0.73289 0.30565 0.41921 0.0
C215 C 0.79573 0.31133 0.51482 0.0
C216 C 0.68717 0.35043 0.5172 0.0
C217 C 0.07786 0.17686 0.33152 0.0
N218 N 0.02907 0.18821 0.28908 0.0
C219 C 0.14267 0.19689 0.3178 0.0
C220 C 0.16616 0.21618 0.25317 0.0
C221 C 0.1087 0.22927 0.21494 0.0
C222 C 0.04504 0.22298 0.23604 0.0
C223 C 0.0116 0.07137 0.12234 0.0
C224 C 0.93474 0.17 0.15274 0.0
C225 C 0.9898 0.07249 0.18631 0.0
N226 N 0.95198 0.12586 0.20281 0.0
C227 C 0.9733 0.17505 0.09856 0.0
C228 C 0.01028 0.12339 0.08297 0.0
C229 C 0.78846 0.14404 0.32234 0.0
C230 C 0.87288 0.0883 0.5471 0.0
C231 C 0.77521 0.15918 0.49259 0.0
C232 C 0.75996 0.1078 0.53318 0.0
C233 C 0.80936 0.07162 0.56002 0.0
N234 N 0.83803 0.17585 0.48044 0.0
C235 C 0.88661 0.14217 0.50898 0.0
Co236 Co 0.69774 0.06583 0.15448 0.0
Co237 Co 0.58613 0.14887 0.24664 0.0
O238 O 0.61301 0.07756 0.18791 0.0
C239 C 0.61347 0.01488 0.03755 0.0
O240 O 0.55904 0.02545 0.06732 0.0
C241 C 0.5314 0.01887 0.29185 0.0
O242 O 0.58691 0.99052 0.28146 0.0
O243 O 0.66574 0.13696 0.30932 0.0
O244 O 0.7327 0.09919 0.23565 0.0
H245 H 0.56931 0.36886 0.34662 0.0
H246 H 0.6319 0.93133 0.13601 0.0
O247 O 0.66632 0.03011 0.06525 0.0
H248 H 0.80244 0.89548 0.29061 0.0
H249 H 0.87171 0.94214 0.05525 0.0
H250 H 0.83192 0.11486 0.19469 0.0
H251 H 0.76573 0.99676 0.26997 0.0
H252 H 0.7666 0.03819 0.09931 0.0
O253 O 0.52752 0.08042 0.28871 0.0
H254 H 0.63019 0.2771 0.30116 0.0
H255 H 0.45949 0.16444 0.31171 0.0
H256 H 0.88605 0.01745 0.24422 0.0
H257 H 0.64778 0.82519 0.18176 0.0
H258 H 0.88595 0.9205 0.17938 0.0
H259 H 0.77083 0.71853 0.26168 0.0
O260 O 0.69254 0.16264 0.12372 0.0
H261 H 0.44231 0.10157 0.05673 0.0
H262 H 0.52924 0.27038 0.19676 0.0
H263 H 0.46437 0.29992 0.10259 0.0
H264 H 0.42281 0.21488 0.02948 0.0
H265 H 0.49751 0.07256 0.15933 0.0
H266 H 0.40342 0.25048 0.36769 0.0
H267 H 0.45774 0.35517 0.38348 0.0
O268 O 0.64036 0.21777 0.2013 0.0
C269 C 0.72415 0.1233 0.29038 0.0
C270 C 0.54707 0.3226 0.34224 0.0
C271 C 0.45336 0.25657 0.35379 0.0
N272 N 0.54984 0.21381 0.30459 0.0
C273 C 0.58081 0.27048 0.31601 0.0
C274 C 0.48675 0.20679 0.32358 0.0
C275 C 0.48365 0.31521 0.36239 0.0
C276 C 0.67252 0.92253 0.16648 0.0
N277 N 0.70512 0.97412 0.19014 0.0
C278 C 0.68752 0.85791 0.18628 0.0
C279 C 0.74732 0.8379 0.21822 0.0
C280 C 0.76951 0.89605 0.25089 0.0
C281 C 0.74639 0.95946 0.23959 0.0
C282 C 0.84832 0.96909 0.09296 0.0
C283 C 0.83295 0.06965 0.17114 0.0
C284 C 0.80238 0.01321 0.07499 0.0
N285 N 0.78607 0.05635 0.12387 0.0
C286 C 0.86449 0.01723 0.1965 0.0
C287 C 0.86467 0.9628 0.15889 0.0
C288 C 0.67477 0.21736 0.14978 0.0
C289 C 0.45937 0.13838 0.08895 0.0
C290 C 0.5075 0.23239 0.16888 0.0
C291 C 0.47183 0.24983 0.11426 0.0
C292 C 0.44876 0.2023 0.07325 0.0
N293 N 0.51825 0.16915 0.1841 0.0
C294 C 0.49153 0.12242 0.14653 0.0
Co295 Co 0.3045 0.93212 0.15447 0.0
Co296 Co 0.41612 0.84911 0.24662 0.0
O297 O 0.38924 0.92043 0.18789 0.0
C298 C 0.38875 0.98312 0.03753 0.0
O299 O 0.44317 0.97259 0.06732 0.0
C300 C 0.47086 0.97909 0.29185 0.0
O301 O 0.41536 0.00746 0.28146 0.0
O302 O 0.33654 0.86103 0.30934 0.0
O303 O 0.26958 0.89876 0.23567 0.0
H304 H 0.43286 0.62916 0.34667 0.0
H305 H 0.37015 0.06667 0.1357 0.0
O306 O 0.33589 0.96782 0.06521 0.0
H307 H 0.20011 0.10259 0.29083 0.0
H308 H 0.13052 0.05566 0.0553 0.0
H309 H 0.17037 0.88315 0.19478 0.0
H310 H 0.23671 0.00125 0.27009 0.0
H311 H 0.23565 0.95964 0.09926 0.0
O312 O 0.47476 0.91754 0.28868 0.0
H313 H 0.37203 0.72091 0.30117 0.0
H314 H 0.54279 0.83349 0.31161 0.0
H315 H 0.1162 0.98057 0.24423 0.0
H316 H 0.35436 0.1728 0.18148 0.0
H317 H 0.11651 0.07753 0.17944 0.0
H318 H 0.23135 0.27949 0.26152 0.0
O319 O 0.30971 0.83534 0.12366 0.0
H320 H 0.55998 0.8964 0.05673 0.0
H321 H 0.47295 0.72759 0.1967 0.0
H322 H 0.53784 0.69805 0.10253 0.0
H323 H 0.57946 0.78309 0.02946 0.0
H324 H 0.50472 0.92541 0.1593 0.0
H325 H 0.59882 0.74746 0.36762 0.0
H326 H 0.54445 0.64281 0.3835 0.0
O327 O 0.36184 0.78023 0.20129 0.0
C328 C 0.27812 0.87465 0.29041 0.0
C329 C 0.45512 0.6754 0.34226 0.0
C330 C 0.54888 0.74139 0.35374 0.0
N331 N 0.45241 0.78417 0.30454 0.0
C332 C 0.42141 0.72752 0.31601 0.0
C333 C 0.51551 0.79116 0.32351 0.0
C334 C 0.51856 0.68277 0.36239 0.0
C335 C 0.3296 0.07546 0.16627 0.0
N336 N 0.29712 0.02386 0.19009 0.0
C337 C 0.31464 0.14007 0.18608 0.0
C338 C 0.25491 0.16008 0.21814 0.0
C339 C 0.23288 0.10196 0.25097 0.0
C340 C 0.25598 0.03854 0.23965 0.0
C341 C 0.15405 0.02885 0.09301 0.0
C342 C 0.16933 0.92833 0.1712 0.0
C343 C 0.19987 0.98465 0.07498 0.0
N344 N 0.21618 0.94155 0.12388 0.0
C345 C 0.13784 0.98079 0.19655 0.0
C346 C 0.13783 0.03524 0.15898 0.0
C347 C 0.32743 0.78063 0.14977 0.0
C348 C 0.54288 0.85959 0.08892 0.0
C349 C 0.49471 0.76558 0.16882 0.0
C350 C 0.53038 0.74813 0.11421 0.0
C351 C 0.55349 0.79566 0.07322 0.0
N352 N 0.48397 0.82882 0.18405 0.0
C353 C 0.51069 0.87555 0.14649 0.0
Co354 Co 0.69776 0.93213 0.85502 0.0
Co355 Co 0.58614 0.84913 0.76284 0.0
O356 O 0.61303 0.92042 0.8216 0.0
C357 C 0.61348 0.98317 0.97188 0.0
O358 O 0.55908 0.97272 0.94202 0.0
C359 C 0.5314 0.97915 0.71769 0.0
O360 O 0.5869 0.00751 0.72809 0.0
O361 O 0.66575 0.86107 0.70016 0.0
O362 O 0.73272 0.89878 0.77385 0.0
H363 H 0.56929 0.62918 0.66278 0.0
H364 H 0.63177 0.06661 0.87329 0.0
O365 O 0.66634 0.96783 0.94425 0.0
H366 H 0.80263 0.10244 0.71902 0.0
H367 H 0.87174 0.05582 0.95432 0.0
H368 H 0.83194 0.88311 0.8148 0.0
H369 H 0.76586 0.00118 0.73961 0.0
H370 H 0.76663 0.95977 0.9102 0.0
O371 O 0.52752 0.9176 0.7208 0.0
H372 H 0.63018 0.72092 0.70828 0.0
H373 H 0.45949 0.83358 0.69779 0.0
H374 H 0.88609 0.98053 0.76532 0.0
H375 H 0.64771 0.17275 0.82754 0.0
H376 H 0.88601 0.07743 0.83019 0.0
H377 H 0.77077 0.27943 0.74773 0.0
O378 O 0.69255 0.83531 0.88577 0.0
H379 H 0.44224 0.89637 0.95271 0.0
H380 H 0.52927 0.7276 0.8127 0.0
H381 H 0.46437 0.69804 0.90685 0.0
H382 H 0.42275 0.78306 0.97995 0.0
H383 H 0.49752 0.92541 0.85016 0.0
H384 H 0.40341 0.74757 0.64178 0.0
H385 H 0.45772 0.64288 0.62594 0.0
O386 O 0.64038 0.78022 0.80816 0.0
C387 C 0.72416 0.87469 0.71911 0.0
C388 C 0.54706 0.67544 0.66718 0.0
C389 C 0.45335 0.74147 0.65567 0.0
N390 N 0.54984 0.78421 0.70488 0.0
C391 C 0.5808 0.72755 0.69343 0.0
C392 C 0.48675 0.79124 0.6859 0.0
C393 C 0.48363 0.68283 0.64705 0.0
C394 C 0.67247 0.07542 0.84291 0.0
N395 N 0.70515 0.02384 0.81935 0.0
C396 C 0.68746 0.14003 0.82309 0.0
C397 C 0.74731 0.16005 0.79123 0.0
C398 C 0.7696 0.10189 0.75866 0.0
C399 C 0.74648 0.03849 0.76995 0.0
C400 C 0.84838 0.02884 0.91661 0.0
C401 C 0.83298 0.92831 0.83838 0.0
C402 C 0.8024 0.98473 0.93454 0.0
N403 N 0.7861 0.94161 0.88564 0.0
C404 C 0.86454 0.98073 0.81305 0.0
C405 C 0.86475 0.03513 0.85068 0.0
C406 C 0.67478 0.78061 0.85968 0.0
C407 C 0.45934 0.85958 0.9205 0.0
C408 C 0.50752 0.76558 0.84059 0.0
C409 C 0.47183 0.74813 0.89519 0.0
C410 C 0.44872 0.79565 0.93619 0.0
N411 N 0.51827 0.82883 0.82538 0.0
C412 C 0.49154 0.87555 0.86295 0.0
Co413 Co 0.30448 0.06597 0.85504 0.0
Co414 Co 0.4161 0.14895 0.76287 0.0
O415 O 0.38921 0.07765 0.82162 0.0
C416 C 0.38873 0.01488 0.97189 0.0
O417 O 0.44313 0.02527 0.942 0.0
C418 C 0.47086 0.01893 0.71769 0.0
O419 O 0.41536 0.99057 0.72808 0.0
O420 O 0.33652 0.13701 0.70015 0.0
O421 O 0.26955 0.09933 0.77384 0.0
H422 H 0.43288 0.36886 0.66275 0.0
H423 H 0.37027 0.93145 0.8736 0.0
O424 O 0.33587 0.0303 0.9443 0.0
H425 H 0.19991 0.89555 0.71881 0.0
H426 H 0.13049 0.94244 0.95427 0.0
H427 H 0.17035 0.11494 0.81472 0.0
H428 H 0.23657 0.99687 0.7395 0.0
H429 H 0.23562 0.03846 0.91025 0.0
O430 O 0.47475 0.08049 0.72084 0.0
H431 H 0.37203 0.27712 0.70827 0.0
H432 H 0.54278 0.16454 0.69789 0.0
H433 H 0.11615 0.01753 0.76531 0.0
H434 H 0.35443 0.82532 0.82782 0.0
H435 H 0.11644 0.92059 0.83013 0.0
H436 H 0.23141 0.71861 0.7479 0.0
O437 O 0.3097 0.16277 0.88583 0.0
H438 H 0.56004 0.1017 0.95272 0.0
H439 H 0.47292 0.27048 0.81278 0.0
H440 H 0.53784 0.30004 0.90692 0.0
H441 H 0.57951 0.21502 0.97998 0.0
H442 H 0.50471 0.07267 0.85019 0.0
H443 H 0.59883 0.25055 0.64185 0.0
H444 H 0.54447 0.35519 0.62593 0.0
O445 O 0.36182 0.21784 0.80817 0.0
C446 C 0.2781 0.12342 0.71909 0.0
C447 C 0.45514 0.32262 0.66717 0.0
C448 C 0.54888 0.25662 0.65572 0.0
N449 N 0.4524 0.21387 0.70493 0.0
C450 C 0.42142 0.27051 0.69344 0.0
C451 C 0.51551 0.20686 0.68597 0.0
C452 C 0.51857 0.31524 0.64706 0.0
C453 C 0.32965 0.92265 0.84312 0.0
N454 N 0.29709 0.97424 0.8194 0.0
C455 C 0.3147 0.85804 0.82329 0.0
C456 C 0.25492 0.83802 0.79131 0.0
C457 C 0.23278 0.89615 0.75858 0.0
C458 C 0.25588 0.95957 0.7699 0.0
C459 C 0.15399 0.96928 0.91656 0.0
C460 C 0.16929 0.06977 0.83833 0.0
C461 C 0.19984 0.01347 0.93455 0.0
N462 N 0.21615 0.05655 0.88564 0.0
C463 C 0.13778 0.01732 0.813 0.0
C464 C 0.13775 0.96289 0.85059 0.0
C465 C 0.32742 0.21746 0.85969 0.0
C466 C 0.54291 0.1385 0.92054 0.0
C467 C 0.49468 0.2325 0.84066 0.0
C468 C 0.53038 0.24995 0.89525 0.0
C469 C 0.55352 0.20243 0.93623 0.0
N470 N 0.48395 0.16925 0.82544 0.0
C471 C 0.51069 0.12253 0.863 0.0
Co472 Co 0.1628 0.69145 0.05901 0.0
Co473 Co 0.24485 0.5812 0.15388 0.0
O474 O 0.18873 0.60654 0.07993 0.0
C475 C 0.03497 0.6149 0.01944 0.0
O476 O 0.05982 0.55993 0.03685 0.0
C477 C 0.29698 0.52811 0.02611 0.0
O478 O 0.29164 0.58494 0.99956 0.0
O479 O 0.30972 0.65871 0.14421 0.0
O480 O 0.24397 0.72563 0.0954 0.0
H481 H 0.34465 0.5701 0.37713 0.0
H482 H 0.12922 0.63714 0.92233 0.0
O483 O 0.07006 0.66565 0.02399 0.0
H484 H 0.3233 0.75666 0.88758 0.0
H485 H 0.13405 0.83888 0.88653 0.0
H486 H 0.19852 0.82432 0.10967 0.0
H487 H 0.29442 0.72854 0.99334 0.0
H488 H 0.1222 0.76021 0.01462 0.0
O489 O 0.28867 0.52168 0.08755 0.0
H490 H 0.29672 0.62778 0.2832 0.0
H491 H 0.30533 0.45433 0.17486 0.0
H492 H 0.26953 0.87958 0.02817 0.0
H493 H 0.16729 0.65773 0.81161 0.0
H494 H 0.2394 0.87844 0.91763 0.0
H495 H 0.24999 0.78452 0.71706 0.0
O496 O 0.12761 0.6944 0.15504 0.0
H497 H 0.05318 0.44277 0.10455 0.0
H498 H 0.19243 0.52693 0.27606 0.0
H499 H 0.09776 0.46391 0.30545 0.0
H500 H 0.02502 0.42371 0.219 0.0
H501 H 0.15659 0.49439 0.07569 0.0
H502 H 0.36212 0.40094 0.26283 0.0
H503 H 0.38054 0.45866 0.36631 0.0
O504 O 0.19692 0.63787 0.21837 0.0
C505 C 0.29496 0.7168 0.12659 0.0
C506 C 0.339 0.54658 0.33127 0.0
C507 C 0.34859 0.4509 0.26759 0.0
N508 N 0.29962 0.5458 0.22205 0.0
C509 C 0.31157 0.57842 0.27813 0.0
C510 C 0.31783 0.48262 0.21676 0.0
C511 C 0.35867 0.48311 0.32553 0.0
C512 C 0.17209 0.66452 0.91555 0.0
N513 N 0.20357 0.68718 0.96886 0.0
C514 C 0.19194 0.68158 0.85116 0.0
C515 C 0.23022 0.73904 0.83785 0.0
C516 C 0.2748 0.74102 0.89208 0.0
C517 C 0.26027 0.71806 0.95549 0.0
C518 C 0.15263 0.82547 0.93215 0.0
C519 C 0.18544 0.82611 0.05966 0.0
C520 C 0.11574 0.78803 0.97365 0.0
N521 N 0.14159 0.77974 0.03591 0.0
C522 C 0.22626 0.85486 0.01514 0.0
C523 C 0.21077 0.85192 0.95109 0.0
C524 C 0.14869 0.67598 0.21253 0.0
C525 C 0.08527 0.45896 0.14202 0.0
C526 C 0.16498 0.50519 0.23751 0.0
C527 C 0.10997 0.47077 0.25486 0.0
C528 C 0.06916 0.44851 0.20656 0.0
N529 N 0.18114 0.51492 0.17362 0.0
C530 C 0.14353 0.48905 0.12615 0.0
Co531 Co 0.16276 0.30665 0.95039 0.0
Co532 Co 0.24485 0.41688 0.85552 0.0
O533 O 0.18871 0.39157 0.92947 0.0
C534 C 0.03486 0.38315 0.98985 0.0
O535 O 0.05962 0.43811 0.9723 0.0
C536 C 0.29697 0.46999 0.98329 0.0
O537 O 0.29164 0.41317 0.00985 0.0
O538 O 0.30972 0.33939 0.86523 0.0
O539 O 0.24393 0.27247 0.91402 0.0
H540 H 0.3447 0.42794 0.63229 0.0
H541 H 0.1291 0.36085 0.0871 0.0
O542 O 0.07002 0.33245 0.9854 0.0
H543 H 0.3233 0.2416 0.12189 0.0
H544 H 0.13384 0.15919 0.12282 0.0
H545 H 0.19852 0.17379 0.89976 0.0
H546 H 0.2944 0.26965 0.0161 0.0
H547 H 0.12211 0.2379 0.99475 0.0
O548 O 0.28865 0.47642 0.92185 0.0
H549 H 0.29674 0.37029 0.72622 0.0
H550 H 0.30537 0.54374 0.83454 0.0
H551 H 0.2695 0.11858 0.98134 0.0
H552 H 0.16719 0.34032 0.19781 0.0
H553 H 0.23928 0.11977 0.09185 0.0
H554 H 0.24996 0.21361 0.29238 0.0
O555 O 0.12758 0.30371 0.85436 0.0
H556 H 0.05317 0.55538 0.90466 0.0
H557 H 0.19252 0.47113 0.73329 0.0
H558 H 0.09791 0.53417 0.70381 0.0
H559 H 0.02511 0.57442 0.79019 0.0
H560 H 0.15651 0.50369 0.93362 0.0
H561 H 0.36221 0.59711 0.74658 0.0
H562 H 0.38063 0.53938 0.64311 0.0
O563 O 0.19694 0.3602 0.79103 0.0
C564 C 0.29495 0.28129 0.88285 0.0
C565 C 0.33905 0.45146 0.67815 0.0
C566 C 0.34866 0.54716 0.74182 0.0
N567 N 0.29965 0.45227 0.78736 0.0
C568 C 0.31161 0.41964 0.73128 0.0
C569 C 0.31788 0.51545 0.79265 0.0
C570 C 0.35875 0.51494 0.68388 0.0
C571 C 0.172 0.33352 0.09387 0.0
N572 N 0.20351 0.31091 0.04056 0.0
C573 C 0.19186 0.31648 0.15826 0.0
C574 C 0.23017 0.25904 0.17158 0.0
C575 C 0.27477 0.25713 0.11736 0.0
C576 C 0.26023 0.28008 0.05393 0.0
C577 C 0.15248 0.17266 0.07724 0.0
C578 C 0.1854 0.17201 0.94976 0.0
C579 C 0.11561 0.21005 0.03569 0.0
N580 N 0.14153 0.21837 0.97347 0.0
C581 C 0.2262 0.1433 0.99433 0.0
C582 C 0.21067 0.14626 0.05836 0.0
C583 C 0.14868 0.32211 0.79686 0.0
C584 C 0.08528 0.53916 0.86722 0.0
C585 C 0.16505 0.49288 0.77182 0.0
C586 C 0.11007 0.52732 0.75441 0.0
C587 C 0.06923 0.54961 0.80267 0.0
N588 N 0.18115 0.48316 0.83572 0.0
C589 C 0.1435 0.50904 0.88315 0.0
Co590 Co 0.83929 0.69137 0.95055 0.0
Co591 Co 0.75732 0.58117 0.85553 0.0
O592 O 0.81343 0.60646 0.92951 0.0
C593 C 0.96721 0.6149 0.98993 0.0
O594 O 0.94244 0.55995 0.97235 0.0
C595 C 0.70516 0.52803 0.98329 0.0
O596 O 0.71045 0.58486 0.00984 0.0
O597 O 0.69246 0.65868 0.86522 0.0
O598 O 0.75811 0.72558 0.91422 0.0
H599 H 0.65748 0.57011 0.63229 0.0
H600 H 0.873 0.63706 0.0872 0.0
O601 O 0.93207 0.66562 0.98551 0.0
H602 H 0.67886 0.75642 0.12209 0.0
H603 H 0.86709 0.83868 0.12328 0.0
H604 H 0.80388 0.82418 0.8997 0.0
H605 H 0.70765 0.72827 0.0163 0.0
H606 H 0.87978 0.76011 0.99507 0.0
O607 O 0.71351 0.52161 0.92184 0.0
H608 H 0.70546 0.62777 0.72622 0.0
H609 H 0.69683 0.45431 0.83451 0.0
H610 H 0.73264 0.87967 0.98091 0.0
H611 H 0.83504 0.65767 0.19795 0.0
H612 H 0.7622 0.87862 0.09148 0.0
H613 H 0.75226 0.78445 0.2925 0.0
O614 O 0.87445 0.6945 0.85455 0.0
H615 H 0.94904 0.44272 0.90463 0.0
H616 H 0.80967 0.52696 0.73329 0.0
H617 H 0.90429 0.46395 0.70379 0.0
H618 H 0.97711 0.42371 0.79015 0.0
H619 H 0.84567 0.49435 0.93361 0.0
H620 H 0.64 0.40094 0.74655 0.0
H621 H 0.62156 0.45868 0.64309 0.0
O622 O 0.80527 0.63789 0.7911 0.0
C623 C 0.70718 0.71676 0.88292 0.0
C624 C 0.66314 0.5466 0.67814 0.0
C625 C 0.65354 0.4509 0.74179 0.0
N626 N 0.70254 0.5458 0.78735 0.0
C627 C 0.69059 0.57843 0.73128 0.0
C628 C 0.68432 0.48261 0.79262 0.0
C629 C 0.64345 0.48312 0.68386 0.0
C630 C 0.83009 0.66435 0.09401 0.0
N631 N 0.79853 0.68694 0.04071 0.0
C632 C 0.81032 0.68147 0.15841 0.0
C633 C 0.772 0.7389 0.17173 0.0
C634 C 0.72737 0.74082 0.11754 0.0
C635 C 0.74184 0.71782 0.05412 0.0
C636 C 0.84886 0.82537 0.07748 0.0
C637 C 0.81677 0.82603 0.94977 0.0
C638 C 0.88587 0.78778 0.03621 0.0
N639 N 0.86046 0.77962 0.97375 0.0
C640 C 0.77579 0.85487 0.9941 0.0
C641 C 0.79092 0.85197 0.05821 0.0
C642 C 0.85345 0.67607 0.79703 0.0
C643 C 0.91693 0.45895 0.8672 0.0
C644 C 0.83714 0.50521 0.77181 0.0
C645 C 0.89213 0.47079 0.75439 0.0
C646 C 0.93298 0.44851 0.80264 0.0
N647 N 0.82103 0.5149 0.83572 0.0
C648 C 0.85869 0.48903 0.88314 0.0
Co649 Co 0.83924 0.30658 0.05885 0.0
Co650 Co 0.75733 0.4168 0.15387 0.0
O651 O 0.81341 0.39149 0.07989 0.0
C652 C 0.9671 0.3831 0.01936 0.0
O653 O 0.94224 0.43806 0.0368 0.0
C654 C 0.70514 0.46991 0.02611 0.0
O655 O 0.71042 0.41308 0.99955 0.0
O656 O 0.69245 0.33929 0.14422 0.0
O657 O 0.75808 0.27237 0.0952 0.0
H658 H 0.65754 0.4279 0.37713 0.0
H659 H 0.87287 0.36101 0.92222 0.0
O660 O 0.93202 0.33235 0.02388 0.0
H661 H 0.67886 0.24139 0.88737 0.0
H662 H 0.86688 0.15931 0.88606 0.0
H663 H 0.80388 0.17377 0.10973 0.0
H664 H 0.70763 0.2696 0.99313 0.0
H665 H 0.8797 0.23784 0.0143 0.0
O666 O 0.71349 0.47634 0.08756 0.0
H667 H 0.70549 0.37022 0.2832 0.0
H668 H 0.69688 0.54367 0.17488 0.0
H669 H 0.7326 0.11822 0.02859 0.0
H670 H 0.83494 0.34034 0.81147 0.0
H671 H 0.76208 0.11923 0.918 0.0
H672 H 0.75222 0.21349 0.71693 0.0
O673 O 0.87442 0.30345 0.15485 0.0
H674 H 0.94903 0.55519 0.10458 0.0
H675 H 0.80976 0.47104 0.27606 0.0
H676 H 0.90444 0.53402 0.30547 0.0
H677 H 0.9772 0.57421 0.21904 0.0
H678 H 0.8456 0.50362 0.07571 0.0
H679 H 0.64009 0.59706 0.26286 0.0
H680 H 0.62165 0.53934 0.36632 0.0
O681 O 0.80529 0.3601 0.21829 0.0
C682 C 0.70716 0.2812 0.12652 0.0
C683 C 0.6632 0.45141 0.33128 0.0
C684 C 0.65361 0.5471 0.26762 0.0
N685 N 0.70258 0.45219 0.22206 0.0
C686 C 0.69064 0.41957 0.27814 0.0
C687 C 0.68437 0.51538 0.21678 0.0
C688 C 0.64352 0.51489 0.32555 0.0
C689 C 0.82999 0.33366 0.91541 0.0
N690 N 0.79846 0.31103 0.9687 0.0
C691 C 0.81024 0.31652 0.851 0.0
C692 C 0.77195 0.25907 0.83769 0.0
C693 C 0.72733 0.2571 0.89189 0.0
C694 C 0.74179 0.28011 0.9553 0.0
C695 C 0.84871 0.17256 0.9319 0.0
C696 C 0.81674 0.17191 0.05965 0.0
C697 C 0.88573 0.21019 0.97313 0.0
N698 N 0.8604 0.21833 0.03563 0.0
C699 C 0.77574 0.14303 0.01536 0.0
C700 C 0.79082 0.14591 0.95123 0.0
C701 C 0.85345 0.3219 0.21236 0.0
C702 C 0.91694 0.53899 0.14205 0.0
C703 C 0.83721 0.49277 0.23751 0.0
C704 C 0.89223 0.52718 0.25488 0.0
C705 C 0.93305 0.54943 0.20659 0.0
N706 N 0.82105 0.48307 0.17363 0.0
C707 C 0.85867 0.50894 0.12617 0.0
loop_
_geom_bond_atom_site_label_1
_geom_bond_atom_site_label_2
_geom_bond_distance
_geom_bond_site_symmetry_2
_ccdc_geom_bond_type
Co0 O2 2.143 . S
Co0 O8 2.074 . S
Co0 O11 2.093 . S
Co0 O24 2.097 . S
Co0 N41 2.151 1_455 S
Co0 N49 2.214 . S
Co1 O2 2.160 . S
Co1 O7 2.058 . S
Co1 O17 2.057 . S
Co1 O32 2.037 . S
Co1 N36 2.145 . S
Co1 N57 2.257 . S
O2 Co0 2.143 . S
O2 Co1 2.160 . S
C3 O4 1.278 . S
C3 O11 1.224 . S
O4 C3 1.278 . S
C5 O6 1.245 1_455 S
C5 O17 1.232 . S
O6 C5 1.245 1_655 S
O7 Co1 2.058 . S
O7 C33 1.269 . S
O8 Co0 2.074 . S
O8 C33 1.257 . S
H9 C34 0.930 . S
H10 C40 0.930 . S
O11 Co0 2.093 . S
O11 C3 1.224 . S
H12 C44 0.929 . S
H13 C46 0.930 . S
H14 C47 0.930 . S
H15 C45 0.929 . S
H16 C48 0.928 1_655 S
O17 Co1 2.057 . S
O17 C5 1.232 . S
H18 C37 0.929 . S
H19 C38 0.929 . S
H20 C50 0.931 . S
H21 C42 0.929 . S
H22 C51 0.930 1_554 S
H23 C43 0.931 . S
O24 Co0 2.097 . S
O24 C52 1.214 . S
H25 C53 0.929 . S
H26 C54 0.929 . S
H27 C55 0.930 . S
H28 C56 0.929 1_565 S
H29 C58 0.930 . S
H30 C35 0.930 . S
H31 C39 0.930 . S
O32 Co1 2.037 . S
O32 C52 1.234 . S
C33 O7 1.269 . S
C33 O8 1.257 . S
C34 H9 0.930 . S
C34 C37 1.388 . S
C34 C39 1.418 . S
C35 H30 0.930 . S
C35 C38 1.404 . S
C35 C39 1.353 . S
N36 Co1 2.145 . S
N36 C37 1.397 . S
N36 C38 1.334 . S
C37 H18 0.929 . S
C37 C34 1.388 . S
C37 N36 1.397 . S
C38 H19 0.929 . S
C38 C35 1.404 . S
C38 N36 1.334 . S
C39 H31 0.930 . S
C39 C34 1.418 . S
C39 C35 1.353 . S
C40 H10 0.930 . S
C40 N41 1.330 . S
C40 C42 1.446 . S
N41 Co0 2.151 1_655 S
N41 C40 1.330 . S
N41 C45 1.418 . S
C42 H21 0.929 . S
C42 C40 1.446 . S
C42 C43 1.332 . S
C43 H23 0.931 . S
C43 C42 1.332 . S
C43 C44 1.267 . S
C44 H12 0.929 . S
C44 C43 1.267 . S
C44 C45 1.251 . S
C45 H15 0.929 . S
C45 N41 1.418 . S
C45 C44 1.251 . S
C46 H13 0.930 . S
C46 C48 1.406 . S
C46 C51 1.261 . S
C47 H14 0.930 . S
C47 N49 1.325 . S
C47 C50 1.357 . S
C48 H16 0.928 1_455 S
C48 C46 1.406 . S
C48 N49 1.261 . S
N49 Co0 2.214 . S
N49 C47 1.325 . S
N49 C48 1.261 . S
C50 H20 0.931 . S
C50 C47 1.357 . S
C50 C51 1.312 . S
C51 H22 0.930 1_556 S
C51 C46 1.261 . S
C51 C50 1.312 . S
C52 O24 1.214 . S
C52 O32 1.234 . S
C53 H25 0.929 . S
C53 C56 1.391 . S
C53 C58 1.391 . S
C54 H26 0.929 . S
C54 C55 1.390 . S
C54 N57 1.391 . S
C55 H27 0.930 . S
C55 C54 1.390 . S
C55 C56 1.392 . S
C56 H28 0.929 1_545 S
C56 C53 1.391 . S
C56 C55 1.392 . S
N57 Co1 2.257 . S
N57 C54 1.391 . S
N57 C58 1.388 . S
C58 H29 0.930 . S
C58 C53 1.391 . S
C58 N57 1.388 . S
Co59 O61 2.143 . S
Co59 O67 2.074 . S
Co59 O70 2.093 . S
Co59 O83 2.097 . S
Co59 N100 2.151 1_655 S
Co59 N108 2.214 . S
Co60 O61 2.160 . S
Co60 O66 2.058 . S
Co60 O76 2.057 . S
Co60 O91 2.037 . S
Co60 N95 2.145 . S
Co60 N116 2.257 . S
O61 Co59 2.143 . S
O61 Co60 2.160 . S
C62 O63 1.278 . S
C62 O70 1.224 . S
O63 C62 1.278 . S
C64 O65 1.245 1_655 S
C64 O76 1.232 . S
O65 C64 1.245 1_455 S
O66 Co60 2.058 . S
O66 C92 1.269 . S
O67 Co59 2.074 . S
O67 C92 1.257 . S
H68 C93 0.930 . S
H69 C99 0.930 . S
O70 Co59 2.093 . S
O70 C62 1.224 . S
H71 C103 0.929 . S
H72 C105 0.930 . S
H73 C106 0.930 . S
H74 C104 0.929 . S
H75 C107 0.928 1_455 S
O76 Co60 2.057 . S
O76 C64 1.232 . S
H77 C96 0.929 . S
H78 C97 0.929 . S
H79 C109 0.931 . S
H80 C101 0.929 . S
H81 C110 0.930 1_554 S
H82 C102 0.931 . S
O83 Co59 2.097 . S
O83 C111 1.214 . S
H84 C112 0.929 . S
H85 C113 0.929 . S
H86 C114 0.930 . S
H87 C115 0.929 1_545 S
H88 C117 0.930 . S
H89 C94 0.930 . S
H90 C98 0.930 . S
O91 Co60 2.037 . S
O91 C111 1.234 . S
C92 O66 1.269 . S
C92 O67 1.257 . S
C93 H68 0.930 . S
C93 C96 1.388 . S
C93 C98 1.418 . S
C94 H89 0.930 . S
C94 C97 1.404 . S
C94 C98 1.353 . S
N95 Co60 2.145 . S
N95 C96 1.397 . S
N95 C97 1.334 . S
C96 H77 0.929 . S
C96 C93 1.388 . S
C96 N95 1.397 . S
C97 H78 0.929 . S
C97 C94 1.404 . S
C97 N95 1.334 . S
C98 H90 0.930 . S
C98 C93 1.418 . S
C98 C94 1.353 . S
C99 H69 0.930 . S
C99 N100 1.330 . S
C99 C101 1.446 . S
N100 Co59 2.151 1_455 S
N100 C99 1.330 . S
N100 C104 1.418 . S
C101 H80 0.929 . S
C101 C99 1.446 . S
C101 C102 1.332 . S
C102 H82 0.931 . S
C102 C101 1.332 . S
C102 C103 1.267 . S
C103 H71 0.929 . S
C103 C102 1.267 . S
C103 C104 1.251 . S
C104 H74 0.929 . S
C104 N100 1.418 . S
C104 C103 1.251 . S
C105 H72 0.930 . S
C105 C107 1.406 . S
C105 C110 1.261 . S
C106 H73 0.930 . S
C106 N108 1.325 . S
C106 C109 1.357 . S
C107 H75 0.928 1_655 S
C107 C105 1.406 . S
C107 N108 1.261 . S
N108 Co59 2.214 . S
N108 C106 1.325 . S
N108 C107 1.261 . S
C109 H79 0.931 . S
C109 C106 1.357 . S
C109 C110 1.312 . S
C110 H81 0.930 1_556 S
C110 C105 1.261 . S
C110 C109 1.312 . S
C111 O83 1.214 . S
C111 O91 1.234 . S
C112 H84 0.929 . S
C112 C115 1.391 . S
C112 C117 1.391 . S
C113 H85 0.929 . S
C113 C114 1.390 . S
C113 N116 1.391 . S
C114 H86 0.930 . S
C114 C113 1.390 . S
C114 C115 1.392 . S
C115 H87 0.929 1_565 S
C115 C112 1.391 . S
C115 C114 1.392 . S
N116 Co60 2.257 . S
N116 C113 1.391 . S
N116 C117 1.388 . S
C117 H88 0.930 . S
C117 C112 1.391 . S
C117 N116 1.388 . S
Co118 O120 2.143 . S
Co118 O126 2.074 . S
Co118 O129 2.093 . S
Co118 O142 2.097 . S
Co118 N159 2.151 1_455 S
Co118 N167 2.214 . S
Co119 O120 2.160 . S
Co119 O125 2.058 . S
Co119 O135 2.057 . S
Co119 O150 2.037 . S
Co119 N154 2.145 . S
Co119 N175 2.257 . S
O120 Co118 2.143 . S
O120 Co119 2.160 . S
C121 O122 1.278 . S
C121 O129 1.224 . S
O122 C121 1.278 . S
C123 O124 1.245 1_455 S
C123 O135 1.232 . S
O124 C123 1.245 1_655 S
O125 Co119 2.058 . S
O125 C151 1.269 . S
O126 Co118 2.074 . S
O126 C151 1.257 . S
H127 C152 0.930 . S
H128 C158 0.930 . S
O129 Co118 2.093 . S
O129 C121 1.224 . S
H130 C162 0.929 . S
H131 C164 0.930 . S
H132 C165 0.930 . S
H133 C163 0.929 . S
H134 C166 0.928 1_655 S
O135 Co119 2.057 . S
O135 C123 1.232 . S
H136 C155 0.929 . S
H137 C156 0.929 . S
H138 C168 0.931 . S
H139 C160 0.929 . S
H140 C169 0.930 1_556 S
H141 C161 0.931 . S
O142 Co118 2.097 . S
O142 C170 1.214 . S
H143 C171 0.929 . S
H144 C172 0.929 . S
H145 C173 0.930 . S
H146 C174 0.929 1_545 S
H147 C176 0.930 . S
H148 C153 0.930 . S
H149 C157 0.930 . S
O150 Co119 2.037 . S
O150 C170 1.234 . S
C151 O125 1.269 . S
C151 O126 1.257 . S
C152 H127 0.930 . S
C152 C155 1.388 . S
C152 C157 1.418 . S
C153 H148 0.930 . S
C153 C156 1.404 . S
C153 C157 1.353 . S
N154 Co119 2.145 . S
N154 C155 1.397 . S
N154 C156 1.334 . S
C155 H136 0.929 . S
C155 C152 1.388 . S
C155 N154 1.397 . S
C156 H137 0.929 . S
C156 C153 1.404 . S
C156 N154 1.334 . S
C157 H149 0.930 . S
C157 C152 1.418 . S
C157 C153 1.353 . S
C158 H128 0.930 . S
C158 N159 1.330 . S
C158 C160 1.446 . S
N159 Co118 2.151 1_655 S
N159 C158 1.330 . S
N159 C163 1.418 . S
C160 H139 0.929 . S
C160 C158 1.446 . S
C160 C161 1.332 . S
C161 H141 0.931 . S
C161 C160 1.332 . S
C161 C162 1.267 . S
C162 H130 0.929 . S
C162 C161 1.267 . S
C162 C163 1.251 . S
C163 H133 0.929 . S
C163 N159 1.418 . S
C163 C162 1.251 . S
C164 H131 0.930 . S
C164 C166 1.406 . S
C164 C169 1.261 . S
C165 H132 0.930 . S
C165 N167 1.325 . S
C165 C168 1.357 . S
C166 H134 0.928 1_455 S
C166 C164 1.406 . S
C166 N167 1.261 . S
N167 Co118 2.214 . S
N167 C165 1.325 . S
N167 C166 1.261 . S
C168 H138 0.931 . S
C168 C165 1.357 . S
C168 C169 1.312 . S
C169 H140 0.930 1_554 S
C169 C164 1.261 . S
C169 C168 1.312 . S
C170 O142 1.214 . S
C170 O150 1.234 . S
C171 H143 0.929 . S
C171 C174 1.391 . S
C171 C176 1.391 . S
C172 H144 0.929 . S
C172 C173 1.390 . S
C172 N175 1.391 . S
C173 H145 0.930 . S
C173 C172 1.390 . S
C173 C174 1.392 . S
C174 H146 0.929 1_565 S
C174 C171 1.391 . S
C174 C173 1.392 . S
N175 Co119 2.257 . S
N175 C172 1.391 . S
N175 C176 1.388 . S
C176 H147 0.930 . S
C176 C171 1.391 . S
C176 N175 1.388 . S
Co177 O179 2.143 . S
Co177 O185 2.074 . S
Co177 O188 2.093 . S
Co177 O201 2.097 . S
Co177 N218 2.151 1_655 S
Co177 N226 2.214 . S
Co178 O179 2.160 . S
Co178 O184 2.058 . S
Co178 O194 2.057 . S
Co178 O209 2.037 . S
Co178 N213 2.145 . S
Co178 N234 2.257 . S
O179 Co177 2.143 . S
O179 Co178 2.160 . S
C180 O181 1.278 . S
C180 O188 1.224 . S
O181 C180 1.278 . S
C182 O183 1.245 1_655 S
C182 O194 1.232 . S
O183 C182 1.245 1_455 S
O184 Co178 2.058 . S
O184 C210 1.269 . S
O185 Co177 2.074 . S
O185 C210 1.257 . S
H186 C211 0.930 . S
H187 C217 0.930 . S
O188 Co177 2.093 . S
O188 C180 1.224 . S
H189 C221 0.929 . S
H190 C223 0.930 . S
H191 C224 0.930 . S
H192 C222 0.929 . S
H193 C225 0.928 1_455 S
O194 Co178 2.057 . S
O194 C182 1.232 . S
H195 C214 0.929 . S
H196 C215 0.929 . S
H197 C227 0.931 . S
H198 C219 0.929 . S
H199 C228 0.930 1_556 S
H200 C220 0.931 . S
O201 Co177 2.097 . S
O201 C229 1.214 . S
H202 C230 0.929 . S
H203 C231 0.929 . S
H204 C232 0.930 . S
H205 C233 0.929 1_565 S
H206 C235 0.930 . S
H207 C212 0.930 . S
H208 C216 0.930 . S
O209 Co178 2.037 . S
O209 C229 1.234 . S
C210 O184 1.269 . S
C210 O185 1.257 . S
C211 H186 0.930 . S
C211 C214 1.388 . S
C211 C216 1.418 . S
C212 H207 0.930 . S
C212 C215 1.404 . S
C212 C216 1.353 . S
N213 Co178 2.145 . S
N213 C214 1.397 . S
N213 C215 1.334 . S
C214 H195 0.929 . S
C214 C211 1.388 . S
C214 N213 1.397 . S
C215 H196 0.929 . S
C215 C212 1.404 . S
C215 N213 1.334 . S
C216 H208 0.930 . S
C216 C211 1.418 . S
C216 C212 1.353 . S
C217 H187 0.930 . S
C217 N218 1.330 . S
C217 C219 1.446 . S
N218 Co177 2.151 1_455 S
N218 C217 1.330 . S
N218 C222 1.418 . S
C219 H198 0.929 . S
C219 C217 1.446 . S
C219 C220 1.332 . S
C220 H200 0.931 . S
C220 C219 1.332 . S
C220 C221 1.267 . S
C221 H189 0.929 . S
C221 C220 1.267 . S
C221 C222 1.251 . S
C222 H192 0.929 . S
C222 N218 1.418 . S
C222 C221 1.251 . S
C223 H190 0.930 . S
C223 C225 1.406 . S
C223 C228 1.261 . S
C224 H191 0.930 . S
C224 N226 1.325 . S
C224 C227 1.357 . S
C225 H193 0.928 1_655 S
C225 C223 1.406 . S
C225 N226 1.261 . S
N226 Co177 2.214 . S
N226 C224 1.325 . S
N226 C225 1.261 . S
C227 H197 0.931 . S
C227 C224 1.357 . S
C227 C228 1.312 . S
C228 H199 0.930 1_554 S
C228 C223 1.261 . S
C228 C227 1.312 . S
C229 O201 1.214 . S
C229 O209 1.234 . S
C230 H202 0.929 . S
C230 C233 1.391 . S
C230 C235 1.391 . S
C231 H203 0.929 . S
C231 C232 1.390 . S
C231 N234 1.391 . S
C232 H204 0.930 . S
C232 C231 1.390 . S
C232 C233 1.392 . S
C233 H205 0.929 1_545 S
C233 C230 1.391 . S
C233 C232 1.392 . S
N234 Co178 2.257 . S
N234 C231 1.391 . S
N234 C235 1.388 . S
C235 H206 0.930 . S
C235 C230 1.391 . S
C235 N234 1.388 . S
Co236 O238 2.143 . S
Co236 O244 2.074 . S
Co236 O247 2.093 . S
Co236 O260 2.097 . S
Co236 N277 2.151 1_545 S
Co236 N285 2.214 . S
Co237 O238 2.160 . S
Co237 O243 2.058 . S
Co237 O253 2.057 . S
Co237 O268 2.037 . S
Co237 N272 2.145 . S
Co237 N293 2.257 . S
O238 Co236 2.143 . S
O238 Co237 2.160 . S
C239 O240 1.278 . S
C239 O247 1.224 . S
O240 C239 1.278 . S
C241 O242 1.245 1_545 S
C241 O253 1.232 . S
O242 C241 1.245 1_565 S
O243 Co237 2.058 . S
O243 C269 1.269 . S
O244 Co236 2.074 . S
O244 C269 1.257 . S
H245 C270 0.930 . S
H246 C276 0.930 . S
O247 Co236 2.093 . S
O247 C239 1.224 . S
H248 C280 0.929 . S
H249 C282 0.930 . S
H250 C283 0.930 . S
H251 C281 0.929 . S
H252 C284 0.928 1_565 S
O253 Co237 2.057 . S
O253 C241 1.232 . S
H254 C273 0.929 . S
H255 C274 0.929 . S
H256 C286 0.931 . S
H257 C278 0.929 . S
H258 C287 0.930 1_455 S
H259 C279 0.931 . S
O260 Co236 2.097 . S
O260 C288 1.214 . S
H261 C289 0.929 . S
H262 C290 0.929 . S
H263 C291 0.930 . S
H264 C292 0.929 1_556 S
H265 C294 0.930 . S
H266 C271 0.930 . S
H267 C275 0.930 . S
O268 Co237 2.037 . S
O268 C288 1.234 . S
C269 O243 1.269 . S
C269 O244 1.257 . S
C270 H245 0.930 . S
C270 C273 1.388 . S
C270 C275 1.418 . S
C271 H266 0.930 . S
C271 C274 1.404 . S
C271 C275 1.353 . S
N272 Co237 2.145 . S
N272 C273 1.397 . S
N272 C274 1.334 . S
C273 H254 0.929 . S
C273 C270 1.388 . S
C273 N272 1.397 . S
C274 H255 0.929 . S
C274 C271 1.404 . S
C274 N272 1.334 . S
C275 H267 0.930 . S
C275 C270 1.418 . S
C275 C271 1.353 . S
C276 H246 0.930 . S
C276 N277 1.330 . S
C276 C278 1.446 . S
N277 Co236 2.151 1_565 S
N277 C276 1.330 . S
N277 C281 1.418 . S
C278 H257 0.929 . S
C278 C276 1.446 . S
C278 C279 1.332 . S
C279 H259 0.931 . S
C279 C278 1.332 . S
C279 C280 1.267 . S
C280 H248 0.929 . S
C280 C279 1.267 . S
C280 C281 1.251 . S
C281 H251 0.929 . S
C281 N277 1.418 . S
C281 C280 1.251 . S
C282 H249 0.930 . S
C282 C284 1.406 . S
C282 C287 1.261 . S
C283 H250 0.930 . S
C283 N285 1.325 . S
C283 C286 1.357 . S
C284 H252 0.928 1_545 S
C284 C282 1.406 . S
C284 N285 1.261 . S
N285 Co236 2.214 . S
N285 C283 1.325 . S
N285 C284 1.261 . S
C286 H256 0.931 . S
C286 C283 1.357 . S
C286 C287 1.312 . S
C287 H258 0.930 1_655 S
C287 C282 1.261 . S
C287 C286 1.312 . S
C288 O260 1.214 . S
C288 O268 1.234 . S
C289 H261 0.929 . S
C289 C292 1.391 . S
C289 C294 1.391 . S
C290 H262 0.929 . S
C290 C291 1.390 . S
C290 N293 1.391 . S
C291 H263 0.930 . S
C291 C290 1.390 . S
C291 C292 1.392 . S
C292 H264 0.929 1_554 S
C292 C289 1.391 . S
C292 C291 1.392 . S
N293 Co237 2.257 . S
N293 C290 1.391 . S
N293 C294 1.388 . S
C294 H265 0.930 . S
C294 C289 1.391 . S
C294 N293 1.388 . S
Co295 O297 2.143 . S
Co295 O303 2.074 . S
Co295 O306 2.093 . S
Co295 O319 2.097 . S
Co295 N336 2.151 1_565 S
Co295 N344 2.214 . S
Co296 O297 2.160 . S
Co296 O302 2.058 . S
Co296 O312 2.057 . S
Co296 O327 2.037 . S
Co296 N331 2.145 . S
Co296 N352 2.257 . S
O297 Co295 2.143 . S
O297 Co296 2.160 . S
C298 O299 1.278 . S
C298 O306 1.224 . S
O299 C298 1.278 . S
C300 O301 1.245 1_565 S
C300 O312 1.232 . S
O301 C300 1.245 1_545 S
O302 Co296 2.058 . S
O302 C328 1.269 . S
O303 Co295 2.074 . S
O303 C328 1.257 . S
H304 C329 0.930 . S
H305 C335 0.930 . S
O306 Co295 2.093 . S
O306 C298 1.224 . S
H307 C339 0.929 . S
H308 C341 0.930 . S
H309 C342 0.930 . S
H310 C340 0.929 . S
H311 C343 0.928 1_545 S
O312 Co296 2.057 . S
O312 C300 1.232 . S
H313 C332 0.929 . S
H314 C333 0.929 . S
H315 C345 0.931 . S
H316 C337 0.929 . S
H317 C346 0.930 1_655 S
H318 C338 0.931 . S
O319 Co295 2.097 . S
O319 C347 1.214 . S
H320 C348 0.929 . S
H321 C349 0.929 . S
H322 C350 0.930 . S
H323 C351 0.929 1_556 S
H324 C353 0.930 . S
H325 C330 0.930 . S
H326 C334 0.930 . S
O327 Co296 2.037 . S
O327 C347 1.234 . S
C328 O302 1.269 . S
C328 O303 1.257 . S
C329 H304 0.930 . S
C329 C332 1.388 . S
C329 C334 1.418 . S
C330 H325 0.930 . S
C330 C333 1.404 . S
C330 C334 1.353 . S
N331 Co296 2.145 . S
N331 C332 1.397 . S
N331 C333 1.334 . S
C332 H313 0.929 . S
C332 C329 1.388 . S
C332 N331 1.397 . S
C333 H314 0.929 . S
C333 C330 1.404 . S
C333 N331 1.334 . S
C334 H326 0.930 . S
C334 C329 1.418 . S
C334 C330 1.353 . S
C335 H305 0.930 . S
C335 N336 1.330 . S
C335 C337 1.446 . S
N336 Co295 2.151 1_545 S
N336 C335 1.330 . S
N336 C340 1.418 . S
C337 H316 0.929 . S
C337 C335 1.446 . S
C337 C338 1.332 . S
C338 H318 0.931 . S
C338 C337 1.332 . S
C338 C339 1.267 . S
C339 H307 0.929 . S
C339 C338 1.267 . S
C339 C340 1.251 . S
C340 H310 0.929 . S
C340 N336 1.418 . S
C340 C339 1.251 . S
C341 H308 0.930 . S
C341 C343 1.406 . S
C341 C346 1.261 . S
C342 H309 0.930 . S
C342 N344 1.325 . S
C342 C345 1.357 . S
C343 H311 0.928 1_565 S
C343 C341 1.406 . S
C343 N344 1.261 . S
N344 Co295 2.214 . S
N344 C342 1.325 . S
N344 C343 1.261 . S
C345 H315 0.931 . S
C345 C342 1.357 . S
C345 C346 1.312 . S
C346 H317 0.930 1_455 S
C346 C341 1.261 . S
C346 C345 1.312 . S
C347 O319 1.214 . S
C347 O327 1.234 . S
C348 H320 0.929 . S
C348 C351 1.391 . S
C348 C353 1.391 . S
C349 H321 0.929 . S
C349 C350 1.390 . S
C349 N352 1.391 . S
C350 H322 0.930 . S
C350 C349 1.390 . S
C350 C351 1.392 . S
C351 H323 0.929 1_554 S
C351 C348 1.391 . S
C351 C350 1.392 . S
N352 Co296 2.257 . S
N352 C349 1.391 . S
N352 C353 1.388 . S
C353 H324 0.930 . S
C353 C348 1.391 . S
C353 N352 1.388 . S
Co354 O356 2.143 . S
Co354 O362 2.074 . S
Co354 O365 2.093 . S
Co354 O378 2.097 . S
Co354 N395 2.151 1_565 S
Co354 N403 2.214 . S
Co355 O356 2.160 . S
Co355 O361 2.058 . S
Co355 O371 2.057 . S
Co355 O386 2.037 . S
Co355 N390 2.145 . S
Co355 N411 2.257 . S
O356 Co354 2.143 . S
O356 Co355 2.160 . S
C357 O358 1.278 . S
C357 O365 1.224 . S
O358 C357 1.278 . S
C359 O360 1.245 1_565 S
C359 O371 1.232 . S
O360 C359 1.245 1_545 S
O361 Co355 2.058 . S
O361 C387 1.269 . S
O362 Co354 2.074 . S
O362 C387 1.257 . S
H363 C388 0.930 . S
H364 C394 0.930 . S
O365 Co354 2.093 . S
O365 C357 1.224 . S
H366 C398 0.929 . S
H367 C400 0.930 . S
H368 C401 0.930 . S
H369 C399 0.929 . S
H370 C402 0.928 1_545 S
O371 Co355 2.057 . S
O371 C359 1.232 . S
H372 C391 0.929 . S
H373 C392 0.929 . S
H374 C404 0.931 . S
H375 C396 0.929 . S
H376 C405 0.930 1_455 S
H377 C397 0.931 . S
O378 Co354 2.097 . S
O378 C406 1.214 . S
H379 C407 0.929 . S
H380 C408 0.929 . S
H381 C409 0.930 . S
H382 C410 0.929 1_554 S
H383 C412 0.930 . S
H384 C389 0.930 . S
H385 C393 0.930 . S
O386 Co355 2.037 . S
O386 C406 1.234 . S
C387 O361 1.269 . S
C387 O362 1.257 . S
C388 H363 0.930 . S
C388 C391 1.388 . S
C388 C393 1.418 . S
C389 H384 0.930 . S
C389 C392 1.404 . S
C389 C393 1.353 . S
N390 Co355 2.145 . S
N390 C391 1.397 . S
N390 C392 1.334 . S
C391 H372 0.929 . S
C391 C388 1.388 . S
C391 N390 1.397 . S
C392 H373 0.929 . S
C392 C389 1.404 . S
C392 N390 1.334 . S
C393 H385 0.930 . S
C393 C388 1.418 . S
C393 C389 1.353 . S
C394 H364 0.930 . S
C394 N395 1.330 . S
C394 C396 1.446 . S
N395 Co354 2.151 1_545 S
N395 C394 1.330 . S
N395 C399 1.418 . S
C396 H375 0.929 . S
C396 C394 1.446 . S
C396 C397 1.332 . S
C397 H377 0.931 . S
C397 C396 1.332 . S
C397 C398 1.267 . S
C398 H366 0.929 . S
C398 C397 1.267 . S
C398 C399 1.251 . S
C399 H369 0.929 . S
C399 N395 1.418 . S
C399 C398 1.251 . S
C400 H367 0.930 . S
C400 C402 1.406 . S
C400 C405 1.261 . S
C401 H368 0.930 . S
C401 N403 1.325 . S
C401 C404 1.357 . S
C402 H370 0.928 1_565 S
C402 C400 1.406 . S
C402 N403 1.261 . S
N403 Co354 2.214 . S
N403 C401 1.325 . S
N403 C402 1.261 . S
C404 H374 0.931 . S
C404 C401 1.357 . S
C404 C405 1.312 . S
C405 H376 0.930 1_655 S
C405 C400 1.261 . S
C405 C404 1.312 . S
C406 O378 1.214 . S
C406 O386 1.234 . S
C407 H379 0.929 . S
C407 C410 1.391 . S
C407 C412 1.391 . S
C408 H380 0.929 . S
C408 C409 1.390 . S
C408 N411 1.391 . S
C409 H381 0.930 . S
C409 C408 1.390 . S
C409 C410 1.392 . S
C410 H382 0.929 1_556 S
C410 C407 1.391 . S
C410 C409 1.392 . S
N411 Co355 2.257 . S
N411 C408 1.391 . S
N411 C412 1.388 . S
C412 H383 0.930 . S
C412 C407 1.391 . S
C412 N411 1.388 . S
Co413 O415 2.143 . S
Co413 O421 2.074 . S
Co413 O424 2.093 . S
Co413 O437 2.097 . S
Co413 N454 2.151 1_545 S
Co413 N462 2.214 . S
Co414 O415 2.160 . S
Co414 O420 2.058 . S
Co414 O430 2.057 . S
Co414 O445 2.037 . S
Co414 N449 2.145 . S
Co414 N470 2.257 . S
O415 Co413 2.143 . S
O415 Co414 2.160 . S
C416 O417 1.278 . S
C416 O424 1.224 . S
O417 C416 1.278 . S
C418 O419 1.245 1_545 S
C418 O430 1.232 . S
O419 C418 1.245 1_565 S
O420 Co414 2.058 . S
O420 C446 1.269 . S
O421 Co413 2.074 . S
O421 C446 1.257 . S
H422 C447 0.930 . S
H423 C453 0.930 . S
O424 Co413 2.093 . S
O424 C416 1.224 . S
H425 C457 0.929 . S
H426 C459 0.930 . S
H427 C460 0.930 . S
H428 C458 0.929 . S
H429 C461 0.928 1_565 S
O430 Co414 2.057 . S
O430 C418 1.232 . S
H431 C450 0.929 . S
H432 C451 0.929 . S
H433 C463 0.931 . S
H434 C455 0.929 . S
H435 C464 0.930 1_655 S
H436 C456 0.931 . S
O437 Co413 2.097 . S
O437 C465 1.214 . S
H438 C466 0.929 . S
H439 C467 0.929 . S
H440 C468 0.930 . S
H441 C469 0.929 1_554 S
H442 C471 0.930 . S
H443 C448 0.930 . S
H444 C452 0.930 . S
O445 Co414 2.037 . S
O445 C465 1.234 . S
C446 O420 1.269 . S
C446 O421 1.257 . S
C447 H422 0.930 . S
C447 C450 1.388 . S
C447 C452 1.418 . S
C448 H443 0.930 . S
C448 C451 1.404 . S
C448 C452 1.353 . S
N449 Co414 2.145 . S
N449 C450 1.397 . S
N449 C451 1.334 . S
C450 H431 0.929 . S
C450 C447 1.388 . S
C450 N449 1.397 . S
C451 H432 0.929 . S
C451 C448 1.404 . S
C451 N449 1.334 . S
C452 H444 0.930 . S
C452 C447 1.418 . S
C452 C448 1.353 . S
C453 H423 0.930 . S
C453 N454 1.330 . S
C453 C455 1.446 . S
N454 Co413 2.151 1_565 S
N454 C453 1.330 . S
N454 C458 1.418 . S
C455 H434 0.929 . S
C455 C453 1.446 . S
C455 C456 1.332 . S
C456 H436 0.931 . S
C456 C455 1.332 . S
C456 C457 1.267 . S
C457 H425 0.929 . S
C457 C456 1.267 . S
C457 C458 1.251 . S
C458 H428 0.929 . S
C458 N454 1.418 . S
C458 C457 1.251 . S
C459 H426 0.930 . S
C459 C461 1.406 . S
C459 C464 1.261 . S
C460 H427 0.930 . S
C460 N462 1.325 . S
C460 C463 1.357 . S
C461 H429 0.928 1_545 S
C461 C459 1.406 . S
C461 N462 1.261 . S
N462 Co413 2.214 . S
N462 C460 1.325 . S
N462 C461 1.261 . S
C463 H433 0.931 . S
C463 C460 1.357 . S
C463 C464 1.312 . S
C464 H435 0.930 1_455 S
C464 C459 1.261 . S
C464 C463 1.312 . S
C465 O437 1.214 . S
C465 O445 1.234 . S
C466 H438 0.929 . S
C466 C469 1.391 . S
C466 C471 1.391 . S
C467 H439 0.929 . S
C467 C468 1.390 . S
C467 N470 1.391 . S
C468 H440 0.930 . S
C468 C467 1.390 . S
C468 C469 1.392 . S
C469 H441 0.929 1_556 S
C469 C466 1.391 . S
C469 C468 1.392 . S
N470 Co414 2.257 . S
N470 C467 1.391 . S
N470 C471 1.388 . S
C471 H442 0.930 . S
C471 C466 1.391 . S
C471 N470 1.388 . S
Co472 O474 2.143 . S
Co472 O480 2.074 . S
Co472 O483 2.093 . S
Co472 O496 2.097 . S
Co472 N513 2.151 1_554 S
Co472 N521 2.214 . S
Co473 O474 2.160 . S
Co473 O479 2.058 . S
Co473 O489 2.057 . S
Co473 O504 2.037 . S
Co473 N508 2.145 . S
Co473 N529 2.257 . S
O474 Co472 2.143 . S
O474 Co473 2.160 . S
C475 O476 1.278 . S
C475 O483 1.224 . S
O476 C475 1.278 . S
C477 O478 1.245 1_554 S
C477 O489 1.232 . S
O478 C477 1.245 1_556 S
O479 Co473 2.058 . S
O479 C505 1.269 . S
O480 Co472 2.074 . S
O480 C505 1.257 . S
H481 C506 0.930 . S
H482 C512 0.930 . S
O483 Co472 2.093 . S
O483 C475 1.224 . S
H484 C516 0.929 . S
H485 C518 0.930 . S
H486 C519 0.930 . S
H487 C517 0.929 . S
H488 C520 0.928 1_556 S
O489 Co473 2.057 . S
O489 C477 1.232 . S
H490 C509 0.929 . S
H491 C510 0.929 . S
H492 C522 0.931 . S
H493 C514 0.929 . S
H494 C523 0.930 1_545 S
H495 C515 0.931 . S
O496 Co472 2.097 . S
O496 C524 1.214 . S
H497 C525 0.929 . S
H498 C526 0.929 . S
H499 C527 0.930 . S
H500 C528 0.929 1_655 S
H501 C530 0.930 . S
H502 C507 0.930 . S
H503 C511 0.930 . S
O504 Co473 2.037 . S
O504 C524 1.234 . S
C505 O479 1.269 . S
C505 O480 1.257 . S
C506 H481 0.930 . S
C506 C509 1.388 . S
C506 C511 1.418 . S
C507 H502 0.930 . S
C507 C510 1.404 . S
C507 C511 1.353 . S
N508 Co473 2.145 . S
N508 C509 1.397 . S
N508 C510 1.334 . S
C509 H490 0.929 . S
C509 C506 1.388 . S
C509 N508 1.397 . S
C510 H491 0.929 . S
C510 C507 1.404 . S
C510 N508 1.334 . S
C511 H503 0.930 . S
C511 C506 1.418 . S
C511 C507 1.353 . S
C512 H482 0.930 . S
C512 N513 1.330 . S
C512 C514 1.446 . S
N513 Co472 2.151 1_556 S
N513 C512 1.330 . S
N513 C517 1.418 . S
C514 H493 0.929 . S
C514 C512 1.446 . S
C514 C515 1.332 . S
C515 H495 0.931 . S
C515 C514 1.332 . S
C515 C516 1.267 . S
C516 H484 0.929 . S
C516 C515 1.267 . S
C516 C517 1.251 . S
C517 H487 0.929 . S
C517 N513 1.418 . S
C517 C516 1.251 . S
C518 H485 0.930 . S
C518 C520 1.406 . S
C518 C523 1.261 . S
C519 H486 0.930 . S
C519 N521 1.325 . S
C519 C522 1.357 . S
C520 H488 0.928 1_554 S
C520 C518 1.406 . S
C520 N521 1.261 . S
N521 Co472 2.214 . S
N521 C519 1.325 . S
N521 C520 1.261 . S
C522 H492 0.931 . S
C522 C519 1.357 . S
C522 C523 1.312 . S
C523 H494 0.930 1_565 S
C523 C518 1.261 . S
C523 C522 1.312 . S
C524 O496 1.214 . S
C524 O504 1.234 . S
C525 H497 0.929 . S
C525 C528 1.391 . S
C525 C530 1.391 . S
C526 H498 0.929 . S
C526 C527 1.390 . S
C526 N529 1.391 . S
C527 H499 0.930 . S
C527 C526 1.390 . S
C527 C528 1.392 . S
C528 H500 0.929 1_455 S
C528 C525 1.391 . S
C528 C527 1.392 . S
N529 Co473 2.257 . S
N529 C526 1.391 . S
N529 C530 1.388 . S
C530 H501 0.930 . S
C530 C525 1.391 . S
C530 N529 1.388 . S
Co531 O533 2.143 . S
Co531 O539 2.074 . S
Co531 O542 2.093 . S
Co531 O555 2.097 . S
Co531 N572 2.151 1_556 S
Co531 N580 2.214 . S
Co532 O533 2.160 . S
Co532 O538 2.058 . S
Co532 O548 2.057 . S
Co532 O563 2.037 . S
Co532 N567 2.145 . S
Co532 N588 2.257 . S
O533 Co531 2.143 . S
O533 Co532 2.160 . S
C534 O535 1.278 . S
C534 O542 1.224 . S
O535 C534 1.278 . S
C536 O537 1.245 1_556 S
C536 O548 1.232 . S
O537 C536 1.245 1_554 S
O538 Co532 2.058 . S
O538 C564 1.269 . S
O539 Co531 2.074 . S
O539 C564 1.257 . S
H540 C565 0.930 . S
H541 C571 0.930 . S
O542 Co531 2.093 . S
O542 C534 1.224 . S
H543 C575 0.929 . S
H544 C577 0.930 . S
H545 C578 0.930 . S
H546 C576 0.929 . S
H547 C579 0.928 1_554 S
O548 Co532 2.057 . S
O548 C536 1.232 . S
H549 C568 0.929 . S
H550 C569 0.929 . S
H551 C581 0.931 . S
H552 C573 0.929 . S
H553 C582 0.930 1_565 S
H554 C574 0.931 . S
O555 Co531 2.097 . S
O555 C583 1.214 . S
H556 C584 0.929 . S
H557 C585 0.929 . S
H558 C586 0.930 . S
H559 C587 0.929 1_655 S
H560 C589 0.930 . S
H561 C566 0.930 . S
H562 C570 0.930 . S
O563 Co532 2.037 . S
O563 C583 1.234 . S
C564 O538 1.269 . S
C564 O539 1.257 . S
C565 H540 0.930 . S
C565 C568 1.388 . S
C565 C570 1.418 . S
C566 H561 0.930 . S
C566 C569 1.404 . S
C566 C570 1.353 . S
N567 Co532 2.145 . S
N567 C568 1.397 . S
N567 C569 1.334 . S
C568 H549 0.929 . S
C568 C565 1.388 . S
C568 N567 1.397 . S
C569 H550 0.929 . S
C569 C566 1.404 . S
C569 N567 1.334 . S
C570 H562 0.930 . S
C570 C565 1.418 . S
C570 C566 1.353 . S
C571 H541 0.930 . S
C571 N572 1.330 . S
C571 C573 1.446 . S
N572 Co531 2.151 1_554 S
N572 C571 1.330 . S
N572 C576 1.418 . S
C573 H552 0.929 . S
C573 C571 1.446 . S
C573 C574 1.332 . S
C574 H554 0.931 . S
C574 C573 1.332 . S
C574 C575 1.267 . S
C575 H543 0.929 . S
C575 C574 1.267 . S
C575 C576 1.251 . S
C576 H546 0.929 . S
C576 N572 1.418 . S
C576 C575 1.251 . S
C577 H544 0.930 . S
C577 C579 1.406 . S
C577 C582 1.261 . S
C578 H545 0.930 . S
C578 N580 1.325 . S
C578 C581 1.357 . S
C579 H547 0.928 1_556 S
C579 C577 1.406 . S
C579 N580 1.261 . S
N580 Co531 2.214 . S
N580 C578 1.325 . S
N580 C579 1.261 . S
C581 H551 0.931 . S
C581 C578 1.357 . S
C581 C582 1.312 . S
C582 H553 0.930 1_545 S
C582 C577 1.261 . S
C582 C581 1.312 . S
C583 O555 1.214 . S
C583 O563 1.234 . S
C584 H556 0.929 . S
C584 C587 1.391 . S
C584 C589 1.391 . S
C585 H557 0.929 . S
C585 C586 1.390 . S
C585 N588 1.391 . S
C586 H558 0.930 . S
C586 C585 1.390 . S
C586 C587 1.392 . S
C587 H559 0.929 1_455 S
C587 C584 1.391 . S
C587 C586 1.392 . S
N588 Co532 2.257 . S
N588 C585 1.391 . S
N588 C589 1.388 . S
C589 H560 0.930 . S
C589 C584 1.391 . S
C589 N588 1.388 . S
Co590 O592 2.143 . S
Co590 O598 2.074 . S
Co590 O601 2.093 . S
Co590 O614 2.097 . S
Co590 N631 2.151 1_556 S
Co590 N639 2.214 . S
Co591 O592 2.160 . S
Co591 O597 2.058 . S
Co591 O607 2.057 . S
Co591 O622 2.037 . S
Co591 N626 2.145 . S
Co591 N647 2.257 . S
O592 Co590 2.143 . S
O592 Co591 2.160 . S
C593 O594 1.278 . S
C593 O601 1.224 . S
O594 C593 1.278 . S
C595 O596 1.245 1_556 S
C595 O607 1.232 . S
O596 C595 1.245 1_554 S
O597 Co591 2.058 . S
O597 C623 1.269 . S
O598 Co590 2.074 . S
O598 C623 1.257 . S
H599 C624 0.930 . S
H600 C630 0.930 . S
O601 Co590 2.093 . S
O601 C593 1.224 . S
H602 C634 0.929 . S
H603 C636 0.930 . S
H604 C637 0.930 . S
H605 C635 0.929 . S
H606 C638 0.928 1_554 S
O607 Co591 2.057 . S
O607 C595 1.232 . S
H608 C627 0.929 . S
H609 C628 0.929 . S
H610 C640 0.931 . S
H611 C632 0.929 . S
H612 C641 0.930 1_545 S
H613 C633 0.931 . S
O614 Co590 2.097 . S
O614 C642 1.214 . S
H615 C643 0.929 . S
H616 C644 0.929 . S
H617 C645 0.930 . S
H618 C646 0.929 1_455 S
H619 C648 0.930 . S
H620 C625 0.930 . S
H621 C629 0.930 . S
O622 Co591 2.037 . S
O622 C642 1.234 . S
C623 O597 1.269 . S
C623 O598 1.257 . S
C624 H599 0.930 . S
C624 C627 1.388 . S
C624 C629 1.418 . S
C625 H620 0.930 . S
C625 C628 1.404 . S
C625 C629 1.353 . S
N626 Co591 2.145 . S
N626 C627 1.397 . S
N626 C628 1.334 . S
C627 H608 0.929 . S
C627 C624 1.388 . S
C627 N626 1.397 . S
C628 H609 0.929 . S
C628 C625 1.404 . S
C628 N626 1.334 . S
C629 H621 0.930 . S
C629 C624 1.418 . S
C629 C625 1.353 . S
C630 H600 0.930 . S
C630 N631 1.330 . S
C630 C632 1.446 . S
N631 Co590 2.151 1_554 S
N631 C630 1.330 . S
N631 C635 1.418 . S
C632 H611 0.929 . S
C632 C630 1.446 . S
C632 C633 1.332 . S
C633 H613 0.931 . S
C633 C632 1.332 . S
C633 C634 1.267 . S
C634 H602 0.929 . S
C634 C633 1.267 . S
C634 C635 1.251 . S
C635 H605 0.929 . S
C635 N631 1.418 . S
C635 C634 1.251 . S
C636 H603 0.930 . S
C636 C638 1.406 . S
C636 C641 1.261 . S
C637 H604 0.930 . S
C637 N639 1.325 . S
C637 C640 1.357 . S
C638 H606 0.928 1_556 S
C638 C636 1.406 . S
C638 N639 1.261 . S
N639 Co590 2.214 . S
N639 C637 1.325 . S
N639 C638 1.261 . S
C640 H610 0.931 . S
C640 C637 1.357 . S
C640 C641 1.312 . S
C641 H612 0.930 1_565 S
C641 C636 1.261 . S
C641 C640 1.312 . S
C642 O614 1.214 . S
C642 O622 1.234 . S
C643 H615 0.929 . S
C643 C646 1.391 . S
C643 C648 1.391 . S
C644 H616 0.929 . S
C644 C645 1.390 . S
C644 N647 1.391 . S
C645 H617 0.930 . S
C645 C644 1.390 . S
C645 C646 1.392 . S
C646 H618 0.929 1_655 S
C646 C643 1.391 . S
C646 C645 1.392 . S
N647 Co591 2.257 . S
N647 C644 1.391 . S
N647 C648 1.388 . S
C648 H619 0.930 . S
C648 C643 1.391 . S
C648 N647 1.388 . S
Co649 O651 2.143 . S
Co649 O657 2.074 . S
Co649 O660 2.093 . S
Co649 O673 2.097 . S
Co649 N690 2.151 1_554 S
Co649 N698 2.214 . S
Co650 O651 2.160 . S
Co650 O656 2.058 . S
Co650 O666 2.057 . S
Co650 O681 2.037 . S
Co650 N685 2.145 . S
Co650 N706 2.257 . S
O651 Co649 2.143 . S
O651 Co650 2.160 . S
C652 O653 1.278 . S
C652 O660 1.224 . S
O653 C652 1.278 . S
C654 O655 1.245 1_554 S
C654 O666 1.232 . S
O655 C654 1.245 1_556 S
O656 Co650 2.058 . S
O656 C682 1.269 . S
O657 Co649 2.074 . S
O657 C682 1.257 . S
H658 C683 0.930 . S
H659 C689 0.930 . S
O660 Co649 2.093 . S
O660 C652 1.224 . S
H661 C693 0.929 . S
H662 C695 0.930 . S
H663 C696 0.930 . S
H664 C694 0.929 . S
H665 C697 0.928 1_556 S
O666 Co650 2.057 . S
O666 C654 1.232 . S
H667 C686 0.929 . S
H668 C687 0.929 . S
H669 C699 0.931 . S
H670 C691 0.929 . S
H671 C700 0.930 1_565 S
H672 C692 0.931 . S
O673 Co649 2.097 . S
O673 C701 1.214 . S
H674 C702 0.929 . S
H675 C703 0.929 . S
H676 C704 0.930 . S
H677 C705 0.929 1_455 S
H678 C707 0.930 . S
H679 C684 0.930 . S
H680 C688 0.930 . S
O681 Co650 2.037 . S
O681 C701 1.234 . S
C682 O656 1.269 . S
C682 O657 1.257 . S
C683 H658 0.930 . S
C683 C686 1.388 . S
C683 C688 1.418 . S
C684 H679 0.930 . S
C684 C687 1.404 . S
C684 C688 1.353 . S
N685 Co650 2.145 . S
N685 C686 1.397 . S
N685 C687 1.334 . S
C686 H667 0.929 . S
C686 C683 1.388 . S
C686 N685 1.397 . S
C687 H668 0.929 . S
C687 C684 1.404 . S
C687 N685 1.334 . S
C688 H680 0.930 . S
C688 C683 1.418 . S
C688 C684 1.353 . S
C689 H659 0.930 . S
C689 N690 1.330 . S
C689 C691 1.446 . S
N690 Co649 2.151 1_556 S
N690 C689 1.330 . S
N690 C694 1.418 . S
C691 H670 0.929 . S
C691 C689 1.446 . S
C691 C692 1.332 . S
C692 H672 0.931 . S
C692 C691 1.332 . S
C692 C693 1.267 . S
C693 H661 0.929 . S
C693 C692 1.267 . S
C693 C694 1.251 . S
C694 H664 0.929 . S
C694 N690 1.418 . S
C694 C693 1.251 . S
C695 H662 0.930 . S
C695 C697 1.406 . S
C695 C700 1.261 . S
C696 H663 0.930 . S
C696 N698 1.325 . S
C696 C699 1.357 . S
C697 H665 0.928 1_554 S
C697 C695 1.406 . S
C697 N698 1.261 . S
N698 Co649 2.214 . S
N698 C696 1.325 . S
N698 C697 1.261 . S
C699 H669 0.931 . S
C699 C696 1.357 . S
C699 C700 1.312 . S
C700 H671 0.930 1_545 S
C700 C695 1.261 . S
C700 C699 1.312 . S
C701 O673 1.214 . S
C701 O681 1.234 . S
C702 H674 0.929 . S
C702 C705 1.391 . S
C702 C707 1.391 . S
C703 H675 0.929 . S
C703 C704 1.390 . S
C703 N706 1.391 . S
C704 H676 0.930 . S
C704 C703 1.390 . S
C704 C705 1.392 . S
C705 H677 0.929 1_655 S
C705 C702 1.391 . S
C705 C704 1.392 . S
N706 Co650 2.257 . S
N706 C703 1.391 . S
N706 C707 1.388 . S
C707 H678 0.930 . S
C707 C702 1.391 . S
C707 N706 1.388 . S
C182 C5 1.455 1_655 S
C123 C64 1.455 1_455 S
C300 C241 1.455 1_565 S
C359 C418 1.455 1_565 S
C536 C477 1.455 1_556 S
C595 C654 1.455 1_556 S
C52 C446 1.549 . S
C387 C111 1.549 . S
C328 C170 1.549 . S
C269 C229 1.549 . S
C288 C682 1.549 . S
C505 C347 1.549 . S
C623 C406 1.549 . S
C465 C564 1.549 . S
C151 C524 1.549 . S
C33 C583 1.549 . S
C642 C92 1.549 . S
C210 C701 1.549 . S
C3 C62 1.297 1_445 S
C180 C121 1.297 1_645 S
C357 C239 1.297 1_566 S
C298 C416 1.297 1_564 S
C593 C475 1.297 1_656 S
C534 C652 1.297 1_456 S
