# Generated by pormake.
# Topology whz, (6)-cn, num edge types: 1
# Building blocks:
#     Node 0, Type 0, BuildingBlock: CUKXOW_clean_sbu_0, # of connection points: 6
#     Node 1, Type 0, BuildingBlock: CUKXOW_clean_sbu_0, # of connection points: 6
#     Node 2, Type 0, BuildingBlock: CUKXOW_clean_sbu_0, # of connection points: 6
#     Node 3, Type 0, BuildingBlock: CUKXOW_clean_sbu_0, # of connection points: 6
#     Node 4, Type 0, BuildingBlock: CUKXOW_clean_sbu_0, # of connection points: 6
#     Node 5, Type 0, BuildingBlock: CUKXOW_clean_sbu_0, # of connection points: 6
#     Node 6, Type 0, BuildingBlock: CUKXOW_clean_sbu_0, # of connection points: 6
#     Node 7, Type 0, BuildingBlock: CUKXOW_clean_sbu_0, # of connection points: 6
#     Node 8, Type 0, BuildingBlock: CUKXOW_clean_sbu_0, # of connection points: 6
#     Node 9, Type 0, BuildingBlock: CUKXOW_clean_sbu_0, # of connection points: 6
#     Node 10, Type 0, BuildingBlock: CUKXOW_clean_sbu_0, # of connection points: 6
#     Node 11, Type 0, BuildingBlock: CUKXOW_clean_sbu_0, # of connection points: 6
#     Node 12, Type 0, BuildingBlock: CUKXOW_clean_sbu_0, # of connection points: 6
#     Node 13, Type 0, BuildingBlock: CUKXOW_clean_sbu_0, # of connection points: 6
#     Node 14, Type 0, BuildingBlock: CUKXOW_clean_sbu_0, # of connection points: 6
#     Node 15, Type 0, BuildingBlock: CUKXOW_clean_sbu_0, # of connection points: 6
#     Edge 16, Type (0, 0), BuildingBlock: ZUJKAS_clean_linker_0, # of connection points: 2
#     Edge 17, Type (0, 0), BuildingBlock: ZUJKAS_clean_linker_0, # of connection points: 2
#     Edge 18, Type (0, 0), BuildingBlock: ZUJKAS_clean_linker_0, # of connection points: 2
#     Edge 19, Type (0, 0), BuildingBlock: ZUJKAS_clean_linker_0, # of connection points: 2
#     Edge 20, Type (0, 0), BuildingBlock: ZUJKAS_clean_linker_0, # of connection points: 2
#     Edge 21, Type (0, 0), BuildingBlock: ZUJKAS_clean_linker_0, # of connection points: 2
#     Edge 22, Type (0, 0), BuildingBlock: ZUJKAS_clean_linker_0, # of connection points: 2
#     Edge 23, Type (0, 0), BuildingBlock: ZUJKAS_clean_linker_0, # of connection points: 2
#     Edge 24, Type (0, 0), BuildingBlock: ZUJKAS_clean_linker_0, # of connection points: 2
#     Edge 25, Type (0, 0), BuildingBlock: ZUJKAS_clean_linker_0, # of connection points: 2
#     Edge 26, Type (0, 0), BuildingBlock: ZUJKAS_clean_linker_0, # of connection points: 2
#     Edge 27, Type (0, 0), BuildingBlock: ZUJKAS_clean_linker_0, # of connection points: 2
#     Edge 28, Type (0, 0), BuildingBlock: ZUJKAS_clean_linker_0, # of connection points: 2
#     Edge 29, Type (0, 0), BuildingBlock: ZUJKAS_clean_linker_0, # of connection points: 2
#     Edge 30, Type (0, 0), BuildingBlock: ZUJKAS_clean_linker_0, # of connection points: 2
#     Edge 31, Type (0, 0), BuildingBlock: ZUJKAS_clean_linker_0, # of connection points: 2
#     Edge 32, Type (0, 0), BuildingBlock: ZUJKAS_clean_linker_0, # of connection points: 2
#     Edge 33, Type (0, 0), BuildingBlock: ZUJKAS_clean_linker_0, # of connection points: 2
#     Edge 34, Type (0, 0), BuildingBlock: ZUJKAS_clean_linker_0, # of connection points: 2
#     Edge 35, Type (0, 0), BuildingBlock: ZUJKAS_clean_linker_0, # of connection points: 2
#     Edge 36, Type (0, 0), BuildingBlock: ZUJKAS_clean_linker_0, # of connection points: 2
#     Edge 37, Type (0, 0), BuildingBlock: ZUJKAS_clean_linker_0, # of connection points: 2
#     Edge 38, Type (0, 0), BuildingBlock: ZUJKAS_clean_linker_0, # of connection points: 2
#     Edge 39, Type (0, 0), BuildingBlock: ZUJKAS_clean_linker_0, # of connection points: 2
#     Edge 40, Type (0, 0), BuildingBlock: ZUJKAS_clean_linker_0, # of connection points: 2
#     Edge 41, Type (0, 0), BuildingBlock: ZUJKAS_clean_linker_0, # of connection points: 2
#     Edge 42, Type (0, 0), BuildingBlock: ZUJKAS_clean_linker_0, # of connection points: 2
#     Edge 43, Type (0, 0), BuildingBlock: ZUJKAS_clean_linker_0, # of connection points: 2
#     Edge 44, Type (0, 0), BuildingBlock: ZUJKAS_clean_linker_0, # of connection points: 2
#     Edge 45, Type (0, 0), BuildingBlock: ZUJKAS_clean_linker_0, # of connection points: 2
#     Edge 46, Type (0, 0), BuildingBlock: ZUJKAS_clean_linker_0, # of connection points: 2
#     Edge 47, Type (0, 0), BuildingBlock: ZUJKAS_clean_linker_0, # of connection points: 2
#     Edge 48, Type (0, 0), BuildingBlock: ZUJKAS_clean_linker_0, # of connection points: 2
#     Edge 49, Type (0, 0), BuildingBlock: ZUJKAS_clean_linker_0, # of connection points: 2
#     Edge 50, Type (0, 0), BuildingBlock: ZUJKAS_clean_linker_0, # of connection points: 2
#     Edge 51, Type (0, 0), BuildingBlock: ZUJKAS_clean_linker_0, # of connection points: 2
#     Edge 52, Type (0, 0), BuildingBlock: ZUJKAS_clean_linker_0, # of connection points: 2
#     Edge 53, Type (0, 0), BuildingBlock: ZUJKAS_clean_linker_0, # of connection points: 2
#     Edge 54, Type (0, 0), BuildingBlock: ZUJKAS_clean_linker_0, # of connection points: 2
#     Edge 55, Type (0, 0), BuildingBlock: ZUJKAS_clean_linker_0, # of connection points: 2
#     Edge 56, Type (0, 0), BuildingBlock: ZUJKAS_clean_linker_0, # of connection points: 2
#     Edge 57, Type (0, 0), BuildingBlock: ZUJKAS_clean_linker_0, # of connection points: 2
#     Edge 58, Type (0, 0), BuildingBlock: ZUJKAS_clean_linker_0, # of connection points: 2
#     Edge 59, Type (0, 0), BuildingBlock: ZUJKAS_clean_linker_0, # of connection points: 2
#     Edge 60, Type (0, 0), BuildingBlock: ZUJKAS_clean_linker_0, # of connection points: 2
#     Edge 61, Type (0, 0), BuildingBlock: ZUJKAS_clean_linker_0, # of connection points: 2
#     Edge 62, Type (0, 0), BuildingBlock: ZUJKAS_clean_linker_0, # of connection points: 2
#     Edge 63, Type (0, 0), BuildingBlock: ZUJKAS_clean_linker_0, # of connection points: 2
# Relax obj value: 0.237
# Max RMSD: 0.250
# Mean RMSD: 0.250
data_MOF--net-whz--node1-CUKXOW_clean_sbu_0--edge1-ZUJKAS_clean_linker_0
_symmetry_space_group_name_H-M    P1
_symmetry_Int_Tables_number       1
_symmetry_cell_setting            triclinic
loop_
_symmetry_equiv_pos_as_xyz
'x, y, z'
_cell_length_a     47.191567
_cell_length_b     47.165484
_cell_length_c     66.005627
_cell_angle_alpha  90.004372
_cell_angle_beta   89.942593
_cell_angle_gamma 89.9345
loop_
_atom_site_label
_atom_site_type_symbol
_atom_site_fract_x
_atom_site_fract_y
_atom_site_fract_z
_atom_type_partial_charge
Tb0 Tb 0.32726 0.1526 0.16035 0.0
C1 C 0.27749 0.18712 0.14111 0.0
Tb2 Tb 0.26801 0.12674 0.16025 0.0
O3 O 0.3289 0.14954 0.12729 0.0
O4 O 0.30565 0.12006 0.14362 0.0
O5 O 0.30196 0.18854 0.15088 0.0
C6 C 0.2207 0.09609 0.1565 0.0
O7 O 0.26273 0.16314 0.13978 0.0
C8 C 0.2742 0.16884 0.18548 0.0
C9 C 0.31603 0.09784 0.18729 0.0
O10 O 0.2353 0.10642 0.14149 0.0
O11 O 0.23308 0.10262 0.17338 0.0
O12 O 0.25039 0.16219 0.17698 0.0
O13 O 0.29273 0.15048 0.18116 0.0
O14 O 0.29028 0.09551 0.1792 0.0
O15 O 0.33391 0.11842 0.18217 0.0
C16 C 0.37717 0.17788 0.16724 0.0
O17 O 0.37371 0.15379 0.15795 0.0
O18 O 0.35256 0.18739 0.17293 0.0
C19 C 0.31148 0.12846 0.12595 0.0
Tb20 Tb 0.61405 0.57965 0.41158 0.0
C21 C 0.57606 0.53087 0.39453 0.0
Tb22 Tb 0.63734 0.51953 0.41283 0.0
O23 O 0.61606 0.57985 0.37858 0.0
O24 O 0.64527 0.55595 0.39502 0.0
O25 O 0.57634 0.55648 0.40284 0.0
C26 C 0.65629 0.46689 0.40613 0.0
O27 O 0.59899 0.5144 0.39418 0.0
C28 C 0.61145 0.53593 0.44609 0.0
C29 C 0.67028 0.56633 0.43692 0.0
O30 O 0.63301 0.47357 0.41537 0.0
O31 O 0.66899 0.48997 0.40037 0.0
O32 O 0.632 0.51766 0.4456 0.0
O33 O 0.60502 0.54222 0.42813 0.0
O34 O 0.67222 0.54108 0.42806 0.0
O35 O 0.6491 0.58421 0.43314 0.0
C36 C 0.59055 0.63078 0.41803 0.0
O37 O 0.61104 0.62542 0.40544 0.0
O38 O 0.58378 0.60747 0.42726 0.0
C39 C 0.63632 0.56135 0.37737 0.0
Tb40 Tb 0.18777 0.86199 0.65971 0.0
C41 C 0.2369 0.82808 0.63868 0.0
Tb42 Tb 0.24757 0.88665 0.6599 0.0
O43 O 0.18461 0.86785 0.62693 0.0
O44 O 0.2098 0.89499 0.64378 0.0
O45 O 0.21253 0.82646 0.64862 0.0
C46 C 0.29576 0.91624 0.65826 0.0
O47 O 0.25199 0.85191 0.63794 0.0
C48 C 0.24061 0.84297 0.68361 0.0
C49 C 0.20052 0.91456 0.68843 0.0
O50 O 0.28411 0.90607 0.67447 0.0
O51 O 0.2799 0.91028 0.64271 0.0
O52 O 0.26435 0.84931 0.67486 0.0
O53 O 0.22258 0.86216 0.68022 0.0
O54 O 0.22604 0.91714 0.67997 0.0
O55 O 0.18239 0.89432 0.68309 0.0
C56 C 0.13822 0.83615 0.66668 0.0
O57 O 0.14117 0.86223 0.66055 0.0
O58 O 0.16314 0.82495 0.66915 0.0
C59 C 0.20307 0.88805 0.62595 0.0
Tb60 Tb 0.90227 0.43874 0.90944 0.0
C61 C 0.93607 0.4879 0.8884 0.0
Tb62 Tb 0.87825 0.49888 0.91051 0.0
O63 O 0.89601 0.4365 0.87665 0.0
O64 O 0.86929 0.46155 0.89404 0.0
O65 O 0.93769 0.46331 0.89806 0.0
C66 C 0.84915 0.54749 0.91014 0.0
O67 O 0.91242 0.50333 0.88814 0.0
C68 C 0.92233 0.49088 0.93364 0.0
C69 C 0.85007 0.45146 0.93854 0.0
O70 O 0.85995 0.53536 0.92595 0.0
O71 O 0.85422 0.5319 0.89426 0.0
O72 O 0.91615 0.51481 0.9251 0.0
O73 O 0.90282 0.47318 0.93034 0.0
O74 O 0.84786 0.4773 0.93054 0.0
O75 O 0.86984 0.43304 0.93274 0.0
C76 C 0.92829 0.38904 0.91592 0.0
O77 O 0.90271 0.39208 0.90884 0.0
O78 O 0.93885 0.41393 0.91961 0.0
C79 C 0.87592 0.45519 0.87606 0.0
Tb80 Tb 0.74593 0.88665 0.88163 0.0
C81 C 0.6993 0.91581 0.85329 0.0
Tb82 Tb 0.68565 0.86299 0.88149 0.0
O83 O 0.76226 0.84924 0.86658 0.0
O84 O 0.7207 0.86274 0.86108 0.0
O85 O 0.72505 0.91749 0.86148 0.0
C86 C 0.63587 0.83763 0.87431 0.0
O87 O 0.68055 0.89622 0.85876 0.0
C88 C 0.70145 0.88844 0.91539 0.0
C89 C 0.73392 0.82818 0.90267 0.0
O90 O 0.63904 0.86272 0.88224 0.0
O91 O 0.6607 0.82721 0.87013 0.0
O92 O 0.6829 0.86831 0.91438 0.0
O93 O 0.70813 0.89543 0.89756 0.0
O94 O 0.70967 0.82705 0.89259 0.0
O95 O 0.74957 0.85165 0.90344 0.0
C96 C 0.79444 0.91572 0.88358 0.0
O97 O 0.78292 0.90567 0.8673 0.0
O98 O 0.7783 0.9099 0.89903 0.0
C99 C 0.73855 0.84334 0.85767 0.0
Tb100 Tb 0.37638 0.49686 0.62941 0.0
C101 C 0.34553 0.44907 0.60489 0.0
Tb102 Tb 0.40116 0.43719 0.63111 0.0
O103 O 0.38226 0.49898 0.59672 0.0
O104 O 0.40936 0.4747 0.61434 0.0
O105 O 0.34231 0.47403 0.614 0.0
C106 C 0.42628 0.38673 0.62498 0.0
O107 O 0.36747 0.43215 0.60862 0.0
C108 C 0.37803 0.45534 0.66516 0.0
C109 C 0.43761 0.48692 0.64835 0.0
O110 O 0.40286 0.39079 0.63497 0.0
O111 O 0.43509 0.41098 0.61819 0.0
O112 O 0.39838 0.43692 0.66415 0.0
O113 O 0.36937 0.46042 0.6474 0.0
O114 O 0.43801 0.46125 0.64019 0.0
O115 O 0.41436 0.50297 0.64838 0.0
C116 C 0.35632 0.54927 0.6356 0.0
O117 O 0.38045 0.5429 0.62743 0.0
O118 O 0.34336 0.52599 0.64062 0.0
C119 C 0.40306 0.48098 0.59635 0.0
Tb120 Tb 0.7681 0.12647 0.37791 0.0
C121 C 0.81628 0.096 0.35355 0.0
Tb122 Tb 0.82722 0.15193 0.37974 0.0
O123 O 0.76611 0.13196 0.34518 0.0
O124 O 0.78985 0.15956 0.36276 0.0
O125 O 0.79135 0.0925 0.36264 0.0
C126 C 0.87784 0.17653 0.37387 0.0
O127 O 0.8328 0.11821 0.35727 0.0
C128 C 0.80918 0.12897 0.4138 0.0
C129 C 0.77685 0.18826 0.39632 0.0
O130 O 0.87352 0.15311 0.38377 0.0
O131 O 0.85375 0.18571 0.36705 0.0
O132 O 0.82714 0.14968 0.41277 0.0
O133 O 0.80444 0.11994 0.39609 0.0
O134 O 0.80267 0.18881 0.38838 0.0
O135 O 0.76121 0.16477 0.39648 0.0
C136 C 0.71599 0.10603 0.38427 0.0
O137 O 0.72209 0.12984 0.37556 0.0
O138 O 0.73938 0.09357 0.38969 0.0
C139 C 0.78378 0.153 0.34479 0.0
Tb140 Tb 0.13899 0.51847 0.13042 0.0
C141 C 0.17035 0.56552 0.10544 0.0
Tb142 Tb 0.1144 0.57805 0.13119 0.0
O143 O 0.13391 0.51558 0.09776 0.0
O144 O 0.10625 0.5402 0.11476 0.0
O145 O 0.17328 0.5408 0.11492 0.0
C146 C 0.08956 0.62845 0.12431 0.0
O147 O 0.14844 0.58263 0.10883 0.0
C148 C 0.13712 0.56126 0.16568 0.0
C149 C 0.07783 0.52875 0.14911 0.0
O150 O 0.11306 0.62457 0.1342 0.0
O151 O 0.08048 0.60404 0.11803 0.0
O152 O 0.11702 0.57987 0.16418 0.0
O153 O 0.14596 0.55529 0.14808 0.0
O154 O 0.07741 0.55417 0.14054 0.0
O155 O 0.10118 0.51291 0.14958 0.0
C156 C 0.15851 0.46591 0.13669 0.0
O157 O 0.13382 0.47245 0.12955 0.0
O158 O 0.17232 0.48908 0.14063 0.0
C159 C 0.11314 0.53352 0.09694 0.0
Tb160 Tb 0.82719 0.65269 0.65953 0.0
C161 C 0.77915 0.68691 0.63733 0.0
Tb162 Tb 0.76697 0.62951 0.65936 0.0
O163 O 0.83101 0.64628 0.62684 0.0
O164 O 0.80481 0.61995 0.64363 0.0
O165 O 0.80325 0.68838 0.64761 0.0
C166 C 0.71815 0.60099 0.65837 0.0
O167 O 0.76374 0.66332 0.63672 0.0
C168 C 0.77452 0.67348 0.68279 0.0
C169 C 0.81294 0.60044 0.68818 0.0
O170 O 0.73003 0.61154 0.67434 0.0
O171 O 0.73409 0.606 0.64266 0.0
O172 O 0.75095 0.6677 0.67366 0.0
O173 O 0.79206 0.65369 0.67978 0.0
O174 O 0.78736 0.59884 0.67974 0.0
O175 O 0.83185 0.61994 0.68276 0.0
C176 C 0.87668 0.67839 0.66695 0.0
O177 O 0.87379 0.65239 0.66061 0.0
O178 O 0.85173 0.68955 0.66938 0.0
C179 C 0.81211 0.62648 0.62582 0.0
Tb180 Tb 0.11484 0.0786 0.91107 0.0
C181 C 0.07637 0.02962 0.8946 0.0
Tb182 Tb 0.13748 0.01808 0.91315 0.0
O183 O 0.11757 0.07883 0.87807 0.0
O184 O 0.14566 0.05396 0.89473 0.0
O185 O 0.07708 0.05552 0.9024 0.0
C186 C 0.15639 0.96509 0.90764 0.0
O187 O 0.09907 0.0128 0.8945 0.0
C188 C 0.11178 0.03566 0.94617 0.0
C189 C 0.1703 0.06529 0.93714 0.0
O190 O 0.132 0.97212 0.91512 0.0
O191 O 0.17019 0.98799 0.90296 0.0
O192 O 0.13181 0.01682 0.94591 0.0
O193 O 0.10559 0.04167 0.92813 0.0
O194 O 0.17227 0.03994 0.9284 0.0
O195 O 0.14918 0.08314 0.93316 0.0
C196 C 0.09093 0.12965 0.91714 0.0
O197 O 0.11366 0.12489 0.90652 0.0
O198 O 0.08216 0.10578 0.92459 0.0
C199 C 0.13707 0.05951 0.877 0.0
Tb200 Tb 0.68648 0.36657 0.16134 0.0
C201 C 0.7359 0.32876 0.14465 0.0
Tb202 Tb 0.74662 0.38969 0.16364 0.0
O203 O 0.68663 0.36938 0.12838 0.0
O204 O 0.71076 0.3979 0.14524 0.0
O205 O 0.71011 0.32895 0.15269 0.0
C206 C 0.7993 0.40923 0.15814 0.0
O207 O 0.75223 0.35178 0.14453 0.0
C208 C 0.72924 0.36321 0.19638 0.0
C209 C 0.69902 0.42227 0.18746 0.0
O210 O 0.79266 0.38468 0.16554 0.0
O211 O 0.77622 0.42279 0.15357 0.0
O212 O 0.74778 0.38348 0.19635 0.0
O213 O 0.72343 0.35723 0.17828 0.0
O214 O 0.72456 0.4242 0.17907 0.0
O215 O 0.68115 0.40136 0.18306 0.0
C216 C 0.63526 0.34293 0.16703 0.0
O217 O 0.65815 0.3367 0.17695 0.0
O218 O 0.64109 0.36291 0.15415 0.0
C219 C 0.70546 0.38931 0.12745 0.0
Tb220 Tb 0.39965 0.93832 0.41115 0.0
C221 C 0.43725 0.9873 0.39386 0.0
Tb222 Tb 0.37634 0.99837 0.4128 0.0
O223 O 0.3971 0.93754 0.3782 0.0
O224 O 0.3684 0.96219 0.39463 0.0
O225 O 0.43716 0.96169 0.40216 0.0
C226 C 0.3573 0.05127 0.40725 0.0
O227 O 0.4142 1.00363 0.39361 0.0
C228 C 0.40247 0.98167 0.44587 0.0
C229 C 0.34365 0.95118 0.43682 0.0
O230 O 0.38182 0.04434 0.41451 0.0
O231 O 0.34344 0.02833 0.4028 0.0
O232 O 0.38197 0.99998 0.44553 0.0
O233 O 0.40877 0.97558 0.42786 0.0
O234 O 0.34163 0.9765 0.42808 0.0
O235 O 0.36483 0.9334 0.43286 0.0
C236 C 0.42355 0.88737 0.41759 0.0
O237 O 0.43044 0.91083 0.42656 0.0
O238 O 0.40275 0.89247 0.40524 0.0
C239 C 0.37722 0.95643 0.37696 0.0
Tb240 Tb 0.24544 0.39041 0.3805 0.0
C241 C 0.1975 0.41973 0.35523 0.0
Tb242 Tb 0.18665 0.36441 0.38194 0.0
O243 O 0.24828 0.38405 0.3479 0.0
O244 O 0.2246 0.3565 0.36555 0.0
O245 O 0.22204 0.42378 0.36468 0.0
C246 C 0.13671 0.33872 0.37554 0.0
O247 O 0.18126 0.39732 0.35889 0.0
C248 C 0.20295 0.38842 0.41607 0.0
C249 C 0.23689 0.32955 0.4002 0.0
O250 O 0.14018 0.3628 0.38477 0.0
O251 O 0.16128 0.32946 0.36969 0.0
O252 O 0.18474 0.36796 0.41486 0.0
O253 O 0.20866 0.39696 0.39834 0.0
O254 O 0.2114 0.32829 0.39182 0.0
O255 O 0.2522 0.35325 0.40016 0.0
C256 C 0.29736 0.4116 0.38631 0.0
O257 O 0.29155 0.38647 0.37964 0.0
O258 O 0.27382 0.42493 0.39001 0.0
C259 C 0.23106 0.36268 0.34758 0.0
Tb260 Tb 0.87624 0.99722 0.12836 0.0
C261 C 0.84479 0.94987 0.10373 0.0
Tb262 Tb 0.90047 0.93728 0.12975 0.0
O263 O 0.88205 0.99954 0.09566 0.0
O264 O 0.90887 0.97482 0.11315 0.0
O265 O 0.84204 0.97483 0.1129 0.0
C266 C 0.92533 0.88681 0.12323 0.0
O267 O 0.86648 0.93258 0.10737 0.0
C268 C 0.87775 0.95486 0.16405 0.0
C269 C 0.93738 0.98684 0.14714 0.0
O270 O 0.90182 0.89081 0.13312 0.0
O271 O 0.93438 0.91112 0.11674 0.0
O272 O 0.89753 0.93587 0.16271 0.0
O273 O 0.86906 0.9607 0.14638 0.0
O274 O 0.93752 0.96101 0.13919 0.0
O275 O 0.91435 1.00317 0.14711 0.0
C276 C 0.85606 0.04963 0.13443 0.0
O277 O 0.88068 0.04334 0.12699 0.0
O278 O 0.84274 0.02631 0.13874 0.0
C279 C 0.90258 0.98126 0.0952 0.0
Tb280 Tb 0.26707 0.62527 0.88047 0.0
C281 C 0.31446 0.59501 0.85505 0.0
Tb282 Tb 0.32623 0.65082 0.88123 0.0
O283 O 0.26391 0.63055 0.84783 0.0
O284 O 0.28823 0.65842 0.86488 0.0
O285 O 0.28986 0.59152 0.8646 0.0
C286 C 0.37645 0.67602 0.87457 0.0
O287 O 0.33117 0.61717 0.85854 0.0
C288 C 0.30946 0.62756 0.91557 0.0
C289 C 0.27638 0.68676 0.89907 0.0
O290 O 0.37278 0.65196 0.88382 0.0
O291 O 0.35193 0.68548 0.86882 0.0
O292 O 0.32746 0.6482 0.91427 0.0
O293 O 0.30405 0.61874 0.89791 0.0
O294 O 0.30181 0.68754 0.89052 0.0
O295 O 0.2609 0.66319 0.89949 0.0
C296 C 0.21501 0.60501 0.88726 0.0
O297 O 0.22104 0.62941 0.87941 0.0
O298 O 0.23845 0.59186 0.89164 0.0
C299 C 0.28156 0.65156 0.84706 0.0
Tb300 Tb 0.6388 0.01746 0.628 0.0
C301 C 0.67078 0.06473 0.60345 0.0
Tb302 Tb 0.61577 0.07779 0.63 0.0
O303 O 0.63268 0.01564 0.59534 0.0
O304 O 0.60649 0.04068 0.61307 0.0
O305 O 0.67316 0.03957 0.61239 0.0
C306 C 0.59115 0.12853 0.62402 0.0
O307 O 0.64953 0.08239 0.60745 0.0
C308 C 0.63839 0.0591 0.66406 0.0
C309 C 0.57796 0.02866 0.64704 0.0
O310 O 0.61468 0.12425 0.63381 0.0
O311 O 0.58199 0.10437 0.61734 0.0
O312 O 0.61897 0.07849 0.663 0.0
O313 O 0.64683 0.05348 0.64629 0.0
O314 O 0.57838 0.05447 0.6391 0.0
O315 O 0.60076 0.01197 0.64704 0.0
C316 C 0.65865 0.96477 0.63328 0.0
O317 O 0.6336 0.97139 0.62682 0.0
O318 O 0.67254 0.9879 0.63713 0.0
C319 C 0.61254 0.03434 0.59504 0.0
H320 H 0.30942 0.17011 0.21853 0.0
H321 H 0.30451 0.20187 0.24798 0.0
H322 H 0.23828 0.24777 0.21706 0.0
H323 H 0.24267 0.21599 0.18805 0.0
H324 H 0.3062 0.26181 0.25353 0.0
H325 H 0.19947 0.21792 0.26868 0.0
H326 H 0.22433 0.2012 0.25164 0.0
H327 H 0.20324 0.23074 0.24322 0.0
C328 C 0.29426 0.18736 0.21798 0.0
C329 C 0.27608 0.1905 0.20132 0.0
C330 C 0.29138 0.20533 0.23476 0.0
C331 C 0.27044 0.22654 0.23484 0.0
C332 C 0.25398 0.231 0.21748 0.0
H333 H 0.2436 0.37311 0.30833 0.0
H334 H 0.25321 0.33814 0.28183 0.0
C335 C 0.25662 0.21298 0.20091 0.0
C336 C 0.26453 0.24334 0.25323 0.0
H337 H 0.21078 0.26161 0.28531 0.0
C338 C 0.28548 0.26158 0.26066 0.0
C339 C 0.23765 0.24246 0.26275 0.0
C340 C 0.21498 0.2218 0.25631 0.0
C341 C 0.27975 0.28012 0.27677 0.0
C342 C 0.25217 0.28076 0.28526 0.0
C343 C 0.23172 0.26144 0.27852 0.0
C344 C 0.24394 0.30183 0.30077 0.0
C345 C 0.30327 0.29886 0.28451 0.0
C346 C 0.23371 0.29301 0.31973 0.0
C347 C 0.22763 0.313 0.33476 0.0
C348 C 0.23184 0.34199 0.33096 0.0
C349 C 0.24046 0.35082 0.31162 0.0
C350 C 0.24627 0.33089 0.29659 0.0
H351 H 0.32445 0.28977 0.281 0.0
H352 H 0.30186 0.31988 0.27702 0.0
H353 H 0.30161 0.30205 0.30114 0.0
H354 H 0.2314 0.27066 0.32313 0.0
H355 H 0.22104 0.30568 0.34959 0.0
H356 H 0.39381 0.49775 0.55769 0.0
H357 H 0.42959 0.50588 0.53149 0.0
H358 H 0.4941 0.47231 0.5711 0.0
H359 H 0.45832 0.46377 0.59727 0.0
H360 H 0.47488 0.54269 0.5379 0.0
H361 H 0.51281 0.43524 0.5166 0.0
H362 H 0.47971 0.44108 0.52972 0.0
H363 H 0.51263 0.44207 0.54338 0.0
C364 C 0.41552 0.49145 0.56059 0.0
C365 C 0.4234 0.48031 0.57948 0.0
C366 C 0.43591 0.49618 0.54567 0.0
C367 C 0.46443 0.48969 0.54938 0.0
C368 C 0.47212 0.47709 0.56784 0.0
H369 H 0.62089 0.51927 0.48476 0.0
H370 H 0.58519 0.51114 0.51104 0.0
C371 C 0.45168 0.47225 0.58278 0.0
C372 C 0.48638 0.49868 0.53475 0.0
H373 H 0.53989 0.47428 0.50471 0.0
C374 C 0.48902 0.52775 0.53053 0.0
C375 C 0.50483 0.47912 0.52533 0.0
C376 C 0.50228 0.4476 0.52881 0.0
C377 C 0.50993 0.53785 0.51729 0.0
C378 C 0.52838 0.51829 0.50786 0.0
C379 C 0.52575 0.48922 0.51208 0.0
C380 C 0.55028 0.52728 0.4932 0.0
C381 C 0.51247 0.56936 0.5138 0.0
C382 C 0.54252 0.53986 0.47474 0.0
C383 C 0.5629 0.54471 0.45977 0.0
C384 C 0.5912 0.53668 0.46302 0.0
C385 C 0.59916 0.52556 0.4819 0.0
C386 C 0.57883 0.52082 0.49687 0.0
H387 H 0.50197 0.58173 0.52602 0.0
H388 H 0.53504 0.57589 0.51286 0.0
H389 H 0.50209 0.5749 0.49925 0.0
H390 H 0.52052 0.5446 0.47151 0.0
H391 H 0.5562 0.55317 0.44529 0.0
H392 H 0.20683 0.84182 0.71733 0.0
H393 H 0.21212 0.80922 0.74621 0.0
H394 H 0.27511 0.76182 0.71294 0.0
H395 H 0.27039 0.79452 0.68445 0.0
H396 H 0.20878 0.74976 0.75156 0.0
H397 H 0.31786 0.7899 0.7633 0.0
H398 H 0.29266 0.80741 0.74697 0.0
H399 H 0.31202 0.77695 0.73808 0.0
C400 C 0.2213 0.82405 0.71613 0.0
C401 C 0.23858 0.82075 0.69898 0.0
C402 C 0.2244 0.80559 0.73258 0.0
C403 C 0.24463 0.78374 0.73183 0.0
C404 C 0.26 0.77908 0.71397 0.0
H405 H 0.26921 0.63905 0.80816 0.0
H406 H 0.26091 0.67264 0.78057 0.0
C407 C 0.25717 0.79761 0.69772 0.0
C408 C 0.25105 0.76667 0.74997 0.0
H409 H 0.30549 0.74761 0.78112 0.0
C410 C 0.22982 0.74941 0.75816 0.0
C411 C 0.27838 0.76685 0.75878 0.0
C412 C 0.30147 0.78649 0.75148 0.0
C413 C 0.23557 0.73128 0.77448 0.0
C414 C 0.26343 0.73006 0.78239 0.0
C415 C 0.28431 0.74826 0.77476 0.0
C416 C 0.27137 0.70971 0.79839 0.0
C417 C 0.21176 0.71369 0.78312 0.0
C418 C 0.28184 0.71937 0.81705 0.0
C419 C 0.28711 0.70016 0.83271 0.0
C420 C 0.28183 0.67115 0.82983 0.0
C421 C 0.27312 0.66139 0.81075 0.0
C422 C 0.26811 0.68053 0.79509 0.0
H423 H 0.19072 0.72308 0.7796 0.0
H424 H 0.21246 0.69218 0.77633 0.0
H425 H 0.21375 0.71152 0.79981 0.0
H426 H 0.28486 0.74182 0.81974 0.0
H427 H 0.29384 0.70815 0.84732 0.0
H428 H 0.9226 0.45826 0.96795 0.0
H429 H 0.95512 0.46398 0.99681 0.0
H430 H 1.00423 0.52421 0.96232 0.0
H431 H 0.9716 0.51909 0.93385 0.0
H432 H 0.01451 0.45953 1.00257 0.0
H433 H 0.97649 0.57007 1.01148 0.0
H434 H 0.95865 0.54448 0.99567 0.0
H435 H 0.98961 0.56266 0.9865 0.0
C436 C 0.94075 0.47216 0.96647 0.0
C437 C 0.94456 0.48859 0.94897 0.0
C438 C 0.95916 0.47552 0.98291 0.0
C439 C 0.98147 0.49516 0.98181 0.0
C440 C 0.98663 0.50958 0.96362 0.0
H441 H 0.1257 0.52061 0.05812 0.0
H442 H 0.09218 0.51214 0.03056 0.0
C443 C 0.96816 0.50649 0.94737 0.0
C444 C 0.99845 0.50208 0.99989 0.0
H445 H 0.01815 0.55753 0.02996 0.0
C446 C 0.01518 0.48086 1.00869 0.0
C447 C 0.99871 0.52982 1.00808 0.0
C448 C 0.97968 0.55301 1.00009 0.0
C449 C 0.03321 0.48699 0.02498 0.0
C450 C 0.03484 0.51517 0.03228 0.0
C451 C 0.01717 0.53608 0.02407 0.0
C452 C 0.05515 0.52337 0.04821 0.0
C453 C 0.05029 0.46324 0.03424 0.0
C454 C 0.04551 0.5343 0.06677 0.0
C455 C 0.06468 0.53959 0.08244 0.0
C456 C 0.09364 0.53391 0.07965 0.0
C457 C 0.1034 0.52483 0.06065 0.0
C458 C 0.0843 0.51974 0.04499 0.0
H459 H 0.04075 0.4422 0.03099 0.0
H460 H 0.07197 0.46342 0.0277 0.0
H461 H 0.05208 0.46583 0.05091 0.0
H462 H 0.02308 0.5376 0.06939 0.0
H463 H 0.05669 0.54661 0.09699 0.0
H464 H 0.70315 0.84281 0.82487 0.0
H465 H 0.70838 0.81262 0.79476 0.0
H466 H 0.77563 0.76635 0.82429 0.0
H467 H 0.7708 0.79662 0.85412 0.0
H468 H 0.79099 0.78993 0.78709 0.0
H469 H 0.69033 0.72937 0.78152 0.0
H470 H 0.68618 0.767 0.78465 0.0
H471 H 0.70167 0.74636 0.80466 0.0
C472 C 0.71844 0.82566 0.82506 0.0
C473 C 0.73679 0.82207 0.84157 0.0
C474 C 0.72142 0.80846 0.80793 0.0
C475 C 0.74245 0.78736 0.80737 0.0
C476 C 0.7594 0.78262 0.82444 0.0
H477 H 0.80957 0.67393 0.71576 0.0
H478 H 0.80411 0.70407 0.74587 0.0
C479 C 0.75659 0.79986 0.84143 0.0
C480 C 0.74894 0.7722 0.78838 0.0
H481 H 0.72155 0.72682 0.75339 0.0
C482 C 0.77588 0.77602 0.77973 0.0
C483 C 0.72911 0.75423 0.77889 0.0
C484 C 0.70027 0.74873 0.78795 0.0
C485 C 0.78343 0.76253 0.7616 0.0
C486 C 0.7636 0.74455 0.75211 0.0
C487 C 0.73666 0.74074 0.76075 0.0
C488 C 0.77014 0.72935 0.73315 0.0
C489 C 0.81229 0.76801 0.75255 0.0
C490 C 0.7533 0.7341 0.71602 0.0
C491 C 0.75626 0.7169 0.69902 0.0
C492 C 0.77607 0.6947 0.69894 0.0
C493 C 0.79427 0.69107 0.71552 0.0
C494 C 0.79116 0.70824 0.73266 0.0
H495 H 0.82222 0.78737 0.75898 0.0
H496 H 0.82637 0.74974 0.75588 0.0
H497 H 0.81091 0.77035 0.73584 0.0
H498 H 0.73708 0.75038 0.71612 0.0
H499 H 0.74216 0.72016 0.68628 0.0
H500 H 0.71014 0.30862 0.19495 0.0
H501 H 0.71719 0.27217 0.22092 0.0
H502 H 0.75315 0.33488 0.26091 0.0
H503 H 0.74583 0.37137 0.23519 0.0
H504 H 0.77127 0.25876 0.23468 0.0
H505 H 0.702 0.29 0.29885 0.0
H506 H 0.69702 0.30346 0.27349 0.0
H507 H 0.72382 0.31835 0.28964 0.0
C508 C 0.71874 0.31474 0.20952 0.0
C509 C 0.72764 0.3427 0.21309 0.0
C510 C 0.72287 0.29392 0.22427 0.0
C511 C 0.7356 0.30089 0.24283 0.0
C512 C 0.74289 0.32915 0.24683 0.0
H513 H 0.80179 0.20796 0.34543 0.0
H514 H 0.79322 0.24386 0.31931 0.0
C515 C 0.73881 0.34994 0.2321 0.0
C516 C 0.74428 0.27832 0.25704 0.0
H517 H 0.73827 0.25622 0.30602 0.0
C518 C 0.76387 0.258 0.25024 0.0
C519 C 0.7348 0.27767 0.27734 0.0
C520 C 0.71305 0.29838 0.28525 0.0
C521 C 0.77466 0.23727 0.26334 0.0
C522 C 0.76528 0.23669 0.28366 0.0
C523 C 0.74561 0.25694 0.29045 0.0
C524 C 0.77447 0.21449 0.298 0.0
C525 C 0.79643 0.21656 0.25545 0.0
C526 C 0.76746 0.18606 0.29437 0.0
C527 C 0.77241 0.16558 0.30919 0.0
C528 C 0.78421 0.1733 0.32791 0.0
C529 C 0.79272 0.20147 0.3311 0.0
C530 C 0.78772 0.22197 0.31626 0.0
H531 H 0.80711 0.22466 0.2416 0.0
H532 H 0.81277 0.21195 0.2671 0.0
H533 H 0.78577 0.19636 0.25148 0.0
H534 H 0.75683 0.17994 0.28051 0.0
H535 H 0.76566 0.14398 0.3064 0.0
H536 H 0.89331 0.99791 0.05653 0.0
H537 H 0.92917 1.00619 0.0304 0.0
H538 H 0.99361 0.97269 0.07012 0.0
H539 H 0.95776 0.96397 0.09618 0.0
H540 H 0.97417 0.04319 0.03717 0.0
H541 H 0.01285 0.93612 1.01558 0.0
H542 H 0.97963 0.94168 0.02861 0.0
H543 H 0.01245 0.94266 0.04239 0.0
C544 C 0.91502 0.99164 0.05945 0.0
C545 C 0.92288 0.98049 0.07834 0.0
C546 C 0.93544 0.99645 0.04458 0.0
C547 C 0.96397 0.99004 0.04836 0.0
C548 C 0.97162 0.97739 0.06681 0.0
H549 H 0.12096 0.0202 0.98508 0.0
H550 H 0.08499 0.01263 1.01123 0.0
C551 C 0.95115 0.97245 0.08168 0.0
C552 C 0.98596 0.99926 0.03388 0.0
H553 H 0.04001 0.97539 1.00416 0.0
C554 C 0.98849 0.02839 0.02983 0.0
C555 C 1.00462 0.97987 0.02451 0.0
C556 C 1.00218 0.94831 0.02782 0.0
C557 C 0.00955 0.03871 1.0168 0.0
C558 C 0.02824 0.01932 1.00746 0.0
C559 C 0.02569 0.9902 1.0115 0.0
C560 C 0.05032 0.02851 0.99304 0.0
C561 C 0.01198 0.07026 1.01344 0.0
C562 C 0.04277 0.04087 0.97447 0.0
C563 C 0.0633 0.0454 0.95957 0.0
C564 C 0.09151 0.03724 0.96303 0.0
C565 C 0.09929 0.02654 0.98207 0.0
C566 C 0.07881 0.02213 0.99696 0.0
H567 H 1.0011 0.08249 0.02556 0.0
H568 H 0.03453 0.07691 1.01281 0.0
H569 H 1.00194 0.07582 0.99877 0.0
H570 H 0.02081 0.04555 0.97107 0.0
H571 H 0.05677 0.05354 0.94495 0.0
H572 H 0.39318 0.99807 0.48462 0.0
H573 H 0.42908 1.00664 0.51063 0.0
H574 H 0.49361 0.97326 0.47089 0.0
H575 H 0.45772 0.96435 0.44483 0.0
H576 H 0.49877 0.95745 0.51306 0.0
H577 H 0.48499 0.07347 0.50175 0.0
H578 H 0.45307 0.05433 0.50748 0.0
H579 H 0.47146 0.04755 0.48413 0.0
C580 C 0.41494 0.99203 0.4816 0.0
C581 C 0.42283 0.98094 0.46268 0.0
C582 C 0.43539 0.9971 0.49639 0.0
C583 C 0.46398 0.99126 0.4924 0.0
C584 C 0.47162 0.97816 0.4741 0.0
H585 H 0.62156 0.01845 0.55618 0.0
H586 H 0.58545 0.01012 0.53027 0.0
C587 C 0.45113 0.97299 0.45929 0.0
C588 C 0.48603 1.00037 0.5068 0.0
H589 H 0.5158 0.05918 0.52815 0.0
C590 C 0.5026 0.97965 0.51634 0.0
C591 C 0.49088 0.02941 0.51094 0.0
C592 C 0.47436 0.05255 0.50044 0.0
C593 C 0.52367 0.98722 0.53028 0.0
C594 C 0.52854 0.01626 0.53439 0.0
C595 C 0.51195 0.03697 0.52487 0.0
C596 C 0.5507 0.02535 0.54872 0.0
C597 C 0.5402 0.96409 0.54078 0.0
C598 C 0.5432 0.0383 0.5671 0.0
C599 C 0.56381 0.04332 0.58184 0.0
C600 C 0.59208 0.03537 0.57831 0.0
C601 C 0.59982 0.02447 0.5593 0.0
C602 C 0.57926 0.01955 0.54457 0.0
H603 H 0.52957 0.94316 0.53947 0.0
H604 H 0.56148 0.96231 0.53373 0.0
H605 H 0.54311 0.96909 0.55708 0.0
H606 H 0.52124 0.04315 0.57042 0.0
H607 H 0.55734 0.0518 0.59638 0.0
H608 H 0.17208 0.11414 0.95969 0.0
H609 H 0.1979 0.12248 0.99117 0.0
H610 H 0.23684 0.04008 0.98622 0.0
H611 H 0.21128 0.03157 0.95457 0.0
H612 H 0.19332 0.0911 0.02656 0.0
H613 H 0.3045 0.09095 0.99904 0.0
H614 H 0.27462 0.09445 0.98216 0.0
H615 H 0.28429 0.06025 0.99198 0.0
C616 C 0.18655 0.09793 0.965 0.0
C617 C 0.18959 0.07218 0.95439 0.0
C618 C 0.2012 0.1027 0.98315 0.0
C619 C 0.21945 0.08199 0.99113 0.0
C620 C 0.22325 0.05661 0.98028 0.0
H621 H 0.27667 0.08247 0.11894 0.0
H622 H 0.25395 0.06915 0.08675 0.0
C623 C 0.20857 0.05178 0.96211 0.0
C624 C 0.23334 0.08655 1.01122 0.0
H625 H 0.29776 0.09235 0.03456 0.0
C626 C 0.21616 0.09132 0.02832 0.0
C627 C 0.26315 0.08699 1.01355 0.0
C628 C 0.28279 0.08314 0.99571 0.0
C629 C 0.22792 0.09663 0.04757 0.0
C630 C 0.25775 0.09683 0.04993 0.0
C631 C 0.27491 0.09194 0.03285 0.0
C632 C 0.27162 0.10411 0.06962 0.0
C633 C 0.20828 0.10288 0.06507 0.0
C634 C 0.28963 0.12772 0.07071 0.0
C635 C 0.30256 0.13525 0.08899 0.0
C636 C 0.2979 0.11936 0.10671 0.0
C637 C 0.28027 0.0954 0.10563 0.0
C638 C 0.26726 0.08782 0.08724 0.0
H639 H 0.18654 0.10819 0.05986 0.0
H640 H 0.20688 0.08391 0.07496 0.0
H641 H 0.21642 0.12077 0.07432 0.0
H642 H 0.29344 0.14062 0.0574 0.0
H643 H 0.31606 0.15381 0.08926 0.0
H644 H 0.68136 0.52511 0.37026 0.0
H645 H 0.69468 0.50293 0.33781 0.0
H646 H 0.6245 0.54484 0.30862 0.0
H647 H 0.61126 0.56682 0.3407 0.0
H648 H 0.66422 0.46696 0.31242 0.0
H649 H 0.69013 0.56623 0.27179 0.0
H650 H 0.68608 0.56478 0.29897 0.0
H651 H 0.6554 0.56694 0.28286 0.0
C652 C 0.66877 0.52945 0.35692 0.0
C653 C 0.64526 0.5477 0.35808 0.0
C654 C 0.67645 0.51688 0.33836 0.0
C655 C 0.66091 0.52259 0.32061 0.0
C656 C 0.63728 0.54059 0.3219 0.0
H657 H 0.64985 0.42404 0.20975 0.0
H658 H 0.64157 0.44889 0.24169 0.0
C659 C 0.62964 0.55306 0.34034 0.0
C660 C 0.66867 0.50934 0.30078 0.0
H661 H 0.68351 0.52496 0.25123 0.0
C662 C 0.66867 0.47965 0.29909 0.0
C663 C 0.67488 0.5258 0.28336 0.0
C664 C 0.67693 0.55769 0.28433 0.0
C665 C 0.6737 0.46608 0.2804 0.0
C666 C 0.67842 0.4826 0.26277 0.0
C667 C 0.67944 0.51225 0.26461 0.0
C668 C 0.68251 0.46945 0.24236 0.0
C669 C 0.67419 0.4341 0.27978 0.0
C670 C 0.70767 0.47389 0.2314 0.0
C671 C 0.71239 0.45991 0.21291 0.0
C672 C 0.69197 0.44125 0.20489 0.0
C673 C 0.66616 0.43811 0.21539 0.0
C674 C 0.66148 0.45209 0.23385 0.0
H675 H 0.67814 0.42489 0.29501 0.0
H676 H 0.65332 0.42628 0.27444 0.0
H677 H 0.69074 0.42625 0.2692 0.0
H678 H 0.72413 0.48739 0.2375 0.0
H679 H 0.73256 0.46287 0.20537 0.0
H680 H 0.19714 0.86406 0.58897 0.0
H681 H 0.2198 0.87731 0.55715 0.0
H682 H 0.26223 0.94647 0.58719 0.0
H683 H 0.23947 0.93302 0.61938 0.0
H684 H 0.21679 0.92581 0.53502 0.0
H685 H 0.32789 0.90635 0.55911 0.0
H686 H 0.29788 0.89448 0.57379 0.0
H687 H 0.30855 0.93102 0.5746 0.0
C688 C 0.2113 0.88212 0.58887 0.0
C689 C 0.21678 0.89729 0.60678 0.0
C690 C 0.22426 0.88969 0.5706 0.0
C691 C 0.24309 0.91266 0.5697 0.0
C692 C 0.24829 0.92826 0.58752 0.0
H693 H 0.3032 0.98519 0.45457 0.0
H694 H 0.27787 0.97677 0.48634 0.0
C695 C 0.23527 0.92061 0.60592 0.0
C696 C 0.25689 0.91997 0.54998 0.0
H697 H 0.32109 0.92422 0.52605 0.0
C698 C 0.23962 0.9256 0.53309 0.0
C699 C 0.28667 0.91935 0.54733 0.0
C700 C 0.3064 0.91225 0.56459 0.0
C701 C 0.2512 0.93043 0.51372 0.0
C702 C 0.28098 0.93006 0.51111 0.0
C703 C 0.29827 0.9246 0.52801 0.0
C704 C 0.29469 0.93456 0.49093 0.0
C705 C 0.23137 0.93499 0.4961 0.0
C706 C 0.31256 0.91365 0.48273 0.0
C707 C 0.32711 0.91839 0.46453 0.0
C708 C 0.32432 0.94428 0.45406 0.0
C709 C 0.30568 0.96486 0.46198 0.0
C710 C 0.29113 0.96008 0.48023 0.0
H711 H 0.20959 0.92747 0.49954 0.0
H712 H 0.23018 0.95798 0.49265 0.0
H713 H 0.23914 0.92384 0.48235 0.0
H714 H 0.31566 0.89376 0.49064 0.0
H715 H 0.34133 0.90206 0.45905 0.0
H716 H 0.86162 0.59887 0.71098 0.0
H717 H 0.86992 0.57314 0.74257 0.0
H718 H 0.7868 0.53584 0.73844 0.0
H719 H 0.77839 0.56119 0.70669 0.0
H720 H 0.84024 0.57745 0.77847 0.0
H721 H 0.83605 0.46689 0.74993 0.0
H722 H 0.83945 0.49703 0.73326 0.0
H723 H 0.80548 0.48784 0.7437 0.0
C724 C 0.84522 0.58484 0.71654 0.0
C725 C 0.81936 0.58207 0.70606 0.0
C726 C 0.84996 0.57024 0.73474 0.0
C727 C 0.82911 0.55233 0.74292 0.0
C728 C 0.80347 0.5491 0.73234 0.0
H729 H 0.83141 0.4925 0.8703 0.0
H730 H 0.81817 0.51671 0.83862 0.0
C731 C 0.79868 0.5637 0.71412 0.0
C732 C 0.83389 0.53791 0.76283 0.0
H733 H 0.83805 0.47282 0.78552 0.0
C734 C 0.83972 0.55456 0.78001 0.0
C735 C 0.83341 0.50803 0.7649 0.0
C736 C 0.82852 0.48883 0.74696 0.0
C737 C 0.84514 0.54222 0.79908 0.0
C738 C 0.84433 0.51234 0.8012 0.0
C739 C 0.8384 0.49572 0.78402 0.0
C740 C 0.85163 0.49774 0.82065 0.0
C741 C 0.85258 0.56128 0.81665 0.0
C742 C 0.87434 0.47851 0.82111 0.0
C743 C 0.88181 0.46473 0.8391 0.0
C744 C 0.86679 0.46975 0.85716 0.0
C745 C 0.84373 0.48864 0.85673 0.0
C746 C 0.83619 0.50249 0.83862 0.0
H747 H 0.85864 0.58288 0.81153 0.0
H748 H 0.83392 0.56332 0.82679 0.0
H749 H 0.87032 0.55223 0.82561 0.0
H750 H 0.88659 0.47436 0.80754 0.0
H751 H 0.89967 0.45028 0.83886 0.0
H752 H 0.80343 0.98332 0.08659 0.0
H753 H 0.77785 0.97496 0.05495 0.0
H754 H 0.81771 0.89307 0.04933 0.0
H755 H 0.84367 0.90134 0.08078 0.0
H756 H 0.82143 0.92396 1.01417 0.0
H757 H 0.71056 0.92445 0.04218 0.0
H758 H 0.7305 0.95541 0.04898 0.0
H759 H 0.74058 0.92139 0.05896 0.0
C760 C 0.80635 0.96324 0.0789 0.0
C761 C 0.82562 0.94297 0.08642 0.0
C762 C 0.79165 0.9585 0.06074 0.0
C763 C 0.79565 0.93329 0.04972 0.0
C764 C 0.81424 0.91271 0.05749 0.0
H765 H 0.69657 0.86345 0.95214 0.0
H766 H 0.71989 0.87612 0.98383 0.0
C767 C 0.82896 0.91743 0.07561 0.0
C768 C 0.78157 0.92881 0.02969 0.0
H769 H 0.71693 0.92383 1.00658 0.0
C770 C 0.79857 0.92395 1.01251 0.0
C771 C 0.75173 0.92865 0.02747 0.0
C772 C 0.73222 0.93249 0.04538 0.0
C773 C 0.78662 0.91882 0.99329 0.0
C774 C 0.75678 0.91897 0.99103 0.0
C775 C 0.7398 0.92397 1.0082 0.0
C776 C 0.74264 0.91193 0.9714 0.0
C777 C 0.80608 0.91236 0.97573 0.0
C778 C 0.74731 0.92798 0.9537 0.0
C779 C 0.73392 0.92066 0.93539 0.0
C780 C 0.71557 0.89724 0.9345 0.0
C781 C 0.71061 0.8816 0.95228 0.0
C782 C 0.72395 0.88884 0.97047 0.0
H783 H 0.82773 0.90655 0.98089 0.0
H784 H 0.79758 0.89474 0.96639 0.0
H785 H 0.80786 0.93141 0.96595 0.0
H786 H 0.76111 0.9463 0.95407 0.0
H787 H 0.73772 0.93342 0.92204 0.0
H788 H 0.2814 0.55369 0.83746 0.0
H789 H 0.28992 0.5289 0.80546 0.0
H790 H 0.37124 0.56974 0.80011 0.0
H791 H 0.3628 0.59487 0.8319 0.0
H792 H 0.34048 0.57383 0.76503 0.0
H793 H 0.34103 0.46232 0.79174 0.0
H794 H 0.30986 0.48189 0.79873 0.0
H795 H 0.34372 0.492 0.80888 0.0
C796 C 0.30139 0.55698 0.82975 0.0
C797 C 0.32145 0.57627 0.83747 0.0
C798 C 0.30623 0.54274 0.81137 0.0
C799 C 0.33133 0.54724 0.80032 0.0
C800 C 0.35169 0.56587 0.80827 0.0
H801 H 0.40295 0.45058 0.70191 0.0
H802 H 0.38982 0.4734 0.73372 0.0
C803 C 0.34687 0.58013 0.82659 0.0
C804 C 0.33597 0.5336 0.78009 0.0
H805 H 0.34192 0.46946 0.75624 0.0
C806 C 0.34076 0.551 0.76312 0.0
C807 C 0.3365 0.5038 0.77752 0.0
C808 C 0.33277 0.48386 0.79519 0.0
C809 C 0.34619 0.53949 0.74378 0.0
C810 C 0.34643 0.50968 0.74116 0.0
C811 C 0.34148 0.4923 0.75812 0.0
C812 C 0.35385 0.49599 0.72138 0.0
C813 C 0.35256 0.55939 0.72646 0.0
C814 C 0.33793 0.5008 0.70365 0.0
C815 C 0.34553 0.48771 0.68525 0.0
C816 C 0.36908 0.46947 0.68428 0.0
C817 C 0.38468 0.4645 0.70208 0.0
C818 C 0.37717 0.47755 0.72035 0.0
H819 H 0.358 0.581 0.73189 0.0
H820 H 0.37038 0.55127 0.71712 0.0
H821 H 0.3336 0.56113 0.71661 0.0
H822 H 0.31948 0.51444 0.70406 0.0
H823 H 0.33283 0.49159 0.67189 0.0
H824 H 0.81411 0.1535 0.45067 0.0
H825 H 0.79234 0.13937 0.48262 0.0
H826 H 0.75186 0.06892 0.45278 0.0
H827 H 0.77385 0.08314 0.42046 0.0
H828 H 0.71526 0.09875 0.47836 0.0
H829 H 0.81464 0.07335 0.51893 0.0
H830 H 0.815 0.10821 0.50806 0.0
H831 H 0.81322 0.07766 0.49177 0.0
C832 C 0.80071 0.13487 0.45086 0.0
C833 C 0.79569 0.11944 0.43299 0.0
C834 C 0.78837 0.12672 0.46922 0.0
C835 C 0.77083 0.10277 0.47029 0.0
C836 C 0.76546 0.0874 0.4524 0.0
H837 H 0.7112 0.03075 0.58557 0.0
H838 H 0.73569 0.03884 0.55336 0.0
C839 C 0.77792 0.09557 0.43392 0.0
C840 C 0.75763 0.09456 0.49002 0.0
H841 H 0.77327 0.0796 0.53953 0.0
C842 C 0.72796 0.09431 0.49168 0.0
C843 C 0.7741 0.08837 0.50742 0.0
C844 C 0.806 0.0866 0.50646 0.0
C845 C 0.7144 0.08909 0.51034 0.0
C846 C 0.73092 0.08445 0.52797 0.0
C847 C 0.76056 0.08361 0.52615 0.0
C848 C 0.71777 0.08048 0.54838 0.0
C849 C 0.68245 0.08843 0.51096 0.0
C850 C 0.70043 0.10165 0.55682 0.0
C851 C 0.68648 0.09717 0.5753 0.0
C852 C 0.68963 0.07144 0.58591 0.0
C853 C 0.70825 0.05087 0.57794 0.0
C854 C 0.7222 0.05539 0.55942 0.0
H855 H 0.67331 0.08435 0.49572 0.0
H856 H 0.67471 0.07186 0.52156 0.0
H857 H 0.67445 0.10928 0.51626 0.0
H858 H 0.69724 0.12151 0.54891 0.0
H859 H 0.67247 0.1136 0.58091 0.0
H860 H 0.22121 0.47078 0.34371 0.0
H861 H 0.2116 0.49786 0.31271 0.0
H862 H 0.14912 0.43596 0.29509 0.0
H863 H 0.15759 0.40974 0.32617 0.0
H864 H 0.21871 0.48516 0.27444 0.0
H865 H 0.10451 0.50542 0.28507 0.0
H866 H 0.12639 0.49155 0.30512 0.0
H867 H 0.11175 0.46818 0.2862 0.0
C868 C 0.20496 0.46331 0.33345 0.0
C869 C 0.1899 0.43825 0.33771 0.0
C870 C 0.1996 0.47872 0.31562 0.0
C871 C 0.1792 0.46936 0.30157 0.0
C872 C 0.16426 0.44432 0.30585 0.0
H873 H 0.17358 0.51644 0.17273 0.0
H874 H 0.1847 0.49434 0.2054 0.0
C875 C 0.16925 0.42921 0.32374 0.0
C876 C 0.17432 0.48487 0.28207 0.0
H877 H 0.12214 0.51063 0.25123 0.0
C878 C 0.1976 0.49102 0.26948 0.0
C879 C 0.14687 0.493 0.27554 0.0
C880 C 0.12104 0.48947 0.28881 0.0
C881 C 0.19416 0.50441 0.25053 0.0
C882 C 0.16653 0.51104 0.24352 0.0
C883 C 0.14335 0.50533 0.2563 0.0
C884 C 0.16092 0.52465 0.22336 0.0
C885 C 0.22033 0.51185 0.23851 0.0
C886 C 0.14327 0.54862 0.22222 0.0
C887 C 0.13613 0.56052 0.20349 0.0
C888 C 0.14668 0.54906 0.18531 0.0
C889 C 0.16495 0.52558 0.18638 0.0
C890 C 0.17164 0.51321 0.20517 0.0
H891 H 0.23915 0.51406 0.24849 0.0
H892 H 0.22486 0.4946 0.22754 0.0
H893 H 0.21746 0.53195 0.23 0.0
H894 H 0.13468 0.55805 0.23588 0.0
H895 H 0.12207 0.57869 0.20327 0.0
H896 H 0.7742 0.5828 0.6193 0.0
H897 H 0.75167 0.56955 0.58699 0.0
H898 H 0.79705 0.63669 0.5568 0.0
H899 H 0.81944 0.64977 0.58871 0.0
H900 H 0.71728 0.60046 0.56144 0.0
H901 H 0.81496 0.56991 0.52053 0.0
H902 H 0.81407 0.57482 0.54765 0.0
H903 H 0.81726 0.60491 0.53102 0.0
C904 C 0.77927 0.59468 0.60575 0.0
C905 C 0.79856 0.61733 0.60658 0.0
C906 C 0.76649 0.58706 0.58728 0.0
C907 C 0.77303 0.60177 0.5693 0.0
C908 C 0.79216 0.62449 0.57025 0.0
H909 H 0.67338 0.61543 0.4592 0.0
H910 H 0.69882 0.62306 0.49094 0.0
C911 C 0.80486 0.63205 0.5886 0.0
C912 C 0.75934 0.59426 0.5496 0.0
H913 H 0.77394 0.57846 0.50004 0.0
C914 C 0.72968 0.5954 0.54807 0.0
C915 C 0.77539 0.58725 0.53212 0.0
C916 C 0.80716 0.58384 0.53292 0.0
C917 C 0.71576 0.59073 0.52949 0.0
C918 C 0.73192 0.5853 0.51178 0.0
C919 C 0.76151 0.58312 0.51347 0.0
C920 C 0.71845 0.58158 0.49146 0.0
C921 C 0.68379 0.59138 0.52909 0.0
C922 C 0.72222 0.55635 0.48045 0.0
C923 C 0.70795 0.55203 0.46206 0.0
C924 C 0.68961 0.5729 0.4542 0.0
C925 C 0.68715 0.59877 0.46474 0.0
C926 C 0.70147 0.60308 0.48308 0.0
H927 H 0.67465 0.58764 0.54437 0.0
H928 H 0.6766 0.61257 0.52389 0.0
H929 H 0.67525 0.57519 0.51852 0.0
H930 H 0.73542 0.53954 0.48645 0.0
H931 H 0.71038 0.5318 0.45449 0.0
H932 H 0.12115 0.07434 0.83899 0.0
H933 H 0.13356 0.0518 0.80696 0.0
H934 H 0.18529 0.99102 0.83886 0.0
H935 H 0.17446 0.01512 0.87092 0.0
H936 H 0.21045 1.00423 0.80522 0.0
H937 H 0.09908 0.982 0.78536 0.0
H938 H 0.10456 0.01928 0.78858 0.0
H939 H 0.10903 0.99563 0.80982 0.0
C940 C 0.13526 0.05621 0.83923 0.0
C941 C 0.14626 0.04606 0.85766 0.0
C942 C 0.14211 0.0431 0.82084 0.0
C943 C 0.15952 0.0189 0.82036 0.0
C944 C 0.17141 0.00933 0.83871 0.0
H945 H 0.16096 0.90354 0.71755 0.0
H946 H 0.15256 0.92886 0.7491 0.0
C947 C 0.16501 0.02292 0.85714 0.0
C948 C 0.16527 1.00385 0.80076 0.0
H949 H 0.13282 0.97659 0.75873 0.0
C950 C 0.19344 0.99801 0.79513 0.0
C951 C 0.14317 0.99513 0.78759 0.0
C952 C 0.11229 0.99805 0.79326 0.0
C953 C 0.20009 0.98416 0.77677 0.0
C954 C 0.17804 0.97684 0.76312 0.0
C955 C 0.14989 0.98247 0.76888 0.0
C956 C 0.18331 0.96195 0.74335 0.0
C957 C 0.23066 0.97672 0.77263 0.0
C958 C 0.20307 0.97215 0.72909 0.0
C959 C 0.20834 0.95726 0.711 0.0
C960 C 0.19336 0.93228 0.70646 0.0
C961 C 0.17278 0.92282 0.72035 0.0
C962 C 0.16797 0.93731 0.73855 0.0
H963 H 0.24316 0.97557 0.78687 0.0
H964 H 0.23254 0.95608 0.76467 0.0
H965 H 0.24026 0.99343 0.763 0.0
H966 H 0.21455 0.9916 0.73193 0.0
H967 H 0.22425 0.96525 0.70064 0.0
H968 H 0.69094 0.37334 0.08943 0.0
H969 H 0.7137 0.38553 0.05747 0.0
H970 H 0.77411 0.43743 0.08945 0.0
H971 H 0.74972 0.42688 0.12145 0.0
H972 H 0.76147 0.46229 0.05567 0.0
H973 H 0.78353 0.35064 0.03624 0.0
H974 H 0.74624 0.35619 0.03931 0.0
H975 H 0.76971 0.36082 0.06062 0.0
C976 C 0.70903 0.38745 0.08971 0.0
C977 C 0.719 0.39855 0.10816 0.0
C978 C 0.72228 0.39417 0.07136 0.0
C979 C 0.74647 0.41151 0.07093 0.0
C980 C 0.75584 0.42357 0.08928 0.0
H981 H 0.86118 0.41161 0.96745 0.0
H982 H 0.83625 0.4034 0.9992 0.0
C983 C 0.74208 0.41732 0.10767 0.0
C984 C 0.76168 0.41704 0.05135 0.0
H985 H 0.78876 0.3841 1.00938 0.0
C986 C 0.76762 0.44515 0.04563 0.0
C987 C 0.77036 0.39478 0.03826 0.0
C988 C 0.76742 0.36395 0.04403 0.0
C989 C 0.78146 0.45158 0.02724 0.0
C990 C 0.78863 0.42938 1.01362 0.0
C991 C 0.78297 0.40129 1.01949 0.0
C992 C 0.80328 0.43445 0.99373 0.0
C993 C 0.78903 0.48209 0.02302 0.0
C994 C 0.79299 0.45426 0.97954 0.0
C995 C 0.80766 0.45942 0.96136 0.0
C996 C 0.83249 0.44424 0.95662 0.0
C997 C 0.842 0.42355 0.97041 0.0
C998 C 0.82774 0.41888 0.98872 0.0
H999 H 0.79046 0.49463 0.03724 0.0
H1000 H 0.80956 0.48379 1.01489 0.0
H1001 H 0.77225 0.49182 1.01352 0.0
H1002 H 0.77365 0.4659 0.98252 0.0
H1003 H 0.79964 0.47541 0.95107 0.0
H1004 H 0.3579 0.1065 0.21516 0.0
H1005 H 0.36658 0.08063 0.2464 0.0
H1006 H 0.30029 0.02153 0.23113 0.0
H1007 H 0.29048 0.04835 0.20007 0.0
H1008 H 0.29545 0.03495 0.26911 0.0
H1009 H 0.4083 0.00972 0.2567 0.0
H1010 H 0.40265 0.04722 0.25539 0.0
H1011 H 0.38637 0.02425 0.23692 0.0
C1012 C 0.34544 0.08769 0.21815 0.0
C1013 C 0.32367 0.07939 0.20484 0.0
C1014 C 0.35055 0.07276 0.23612 0.0
C1015 C 0.33459 0.0486 0.24111 0.0
C1016 C 0.31307 0.03997 0.22769 0.0
H1017 H 0.39069 0.93834 0.33922 0.0
H1018 H 0.37796 0.95923 0.30672 0.0
C1019 C 0.30759 0.05523 0.20982 0.0
C1020 C 0.33955 0.03331 0.26071 0.0
H1021 H 0.39164 1.0058 0.29086 0.0
C1022 C 0.31647 0.02829 0.27375 0.0
C1023 C 0.36685 0.02413 0.26684 0.0
C1024 C 0.39235 0.02633 0.25311 0.0
C1025 C 0.31997 0.01497 0.29272 0.0
C1026 C 0.34753 1.00727 0.29932 0.0
C1027 C 0.3705 0.01191 0.28612 0.0
C1028 C 0.35323 0.9936 0.31946 0.0
C1029 C 0.2939 0.00868 0.30517 0.0
C1030 C 0.34338 1.00548 0.33776 0.0
C1031 C 0.35009 0.99295 0.3565 0.0
C1032 C 0.36755 0.96886 0.35741 0.0
C1033 C 0.37726 0.95698 0.33913 0.0
C1034 C 0.37006 0.96903 0.32046 0.0
H1035 H 0.27471 1.0071 0.2955 0.0
H1036 H 0.29623 0.98858 0.31377 0.0
H1037 H 0.29036 0.02622 0.31609 0.0
H1038 H 0.331 0.0248 0.33766 0.0
H1039 H 0.34214 1.00248 0.37022 0.0
H1040 H 0.29534 0.4744 0.59316 0.0
H1041 H 0.26789 0.46503 0.56233 0.0
H1042 H 0.32724 0.39952 0.54553 0.0
H1043 H 0.35381 0.40779 0.57646 0.0
H1044 H 0.28094 0.47061 0.52397 0.0
H1045 H 0.2561 0.3576 0.53603 0.0
H1046 H 0.2708 0.37942 0.55581 0.0
H1047 H 0.29358 0.36329 0.5371 0.0
C1048 C 0.30216 0.45755 0.58313 0.0
C1049 C 0.32662 0.4416 0.58757 0.0
C1050 C 0.28653 0.45232 0.56539 0.0
C1051 C 0.29508 0.43117 0.55162 0.0
C1052 C 0.31949 0.4153 0.55609 0.0
H1053 H 0.24883 0.4236 0.42279 0.0
H1054 H 0.27083 0.43509 0.45538 0.0
C1055 C 0.33481 0.42018 0.57389 0.0
C1056 C 0.27942 0.42643 0.53217 0.0
H1057 H 0.25173 0.37454 0.50196 0.0
C1058 C 0.27426 0.44963 0.51927 0.0
C1059 C 0.27023 0.39917 0.52598 0.0
C1060 C 0.27269 0.37355 0.53958 0.0
C1061 C 0.26083 0.44625 0.50034 0.0
C1062 C 0.25313 0.41873 0.49367 0.0
C1063 C 0.25784 0.39566 0.50677 0.0
C1064 C 0.23945 0.41314 0.47355 0.0
C1065 C 0.25451 0.47239 0.48796 0.0
C1066 C 0.21484 0.39645 0.47255 0.0
C1067 C 0.20293 0.38913 0.45387 0.0
C1068 C 0.21502 0.39855 0.4356 0.0
C1069 C 0.23911 0.41594 0.43651 0.0
C1070 C 0.25148 0.42281 0.45526 0.0
H1071 H 0.25301 0.49157 0.49769 0.0
H1072 H 0.27198 0.47589 0.47699 0.0
H1073 H 0.23438 0.47014 0.47943 0.0
H1074 H 0.20495 0.38869 0.48629 0.0
H1075 H 0.18429 0.37574 0.45377 0.0
H1076 H 0.8916 0.93669 0.20164 0.0
H1077 H 0.87869 0.95712 0.23426 0.0
H1078 H 0.83051 0.02215 0.20376 0.0
H1079 H 0.84188 1.00025 0.17107 0.0
H1080 H 0.89191 1.00398 0.25001 0.0
H1081 H 0.77491 1.0032 0.2463 0.0
H1082 H 0.79654 0.98508 0.22785 0.0
H1083 H 0.79 0.02262 0.22561 0.0
C1084 C 0.87787 0.9551 0.20185 0.0
C1085 C 0.86792 0.96699 0.18365 0.0
C1086 C 0.87056 0.96689 0.22059 0.0
C1087 C 0.85336 0.99118 0.22174 0.0
C1088 C 0.84321 1.00304 0.20353 0.0
H1089 H 0.85732 0.10497 0.32508 0.0
H1090 H 0.8659 0.07869 0.29404 0.0
C1091 C 0.85005 0.99077 0.18472 0.0
C1092 C 0.84767 1.00467 0.24193 0.0
H1093 H 0.7955 0.03138 0.27258 0.0
C1094 C 0.87073 0.0097 0.25494 0.0
C1095 C 0.82006 0.01184 0.24875 0.0
C1096 C 0.79396 1.00512 0.23648 0.0
C1097 C 0.86711 0.02187 0.27423 0.0
C1098 C 0.83974 0.03055 0.28057 0.0
C1099 C 0.81656 0.02509 0.26776 0.0
C1100 C 0.83485 0.04601 0.30011 0.0
C1101 C 0.89276 0.02463 0.28774 0.0
C1102 C 0.81391 0.03708 0.31391 0.0
C1103 C 0.8085 0.05255 0.33172 0.0
C1104 C 0.82403 0.07723 0.33619 0.0
C1105 C 0.84526 0.0858 0.32248 0.0
C1106 C 0.85032 0.07064 0.30462 0.0
H1107 H 0.90895 0.00829 0.28406 0.0
H1108 H 0.90265 0.04569 0.28529 0.0
H1109 H 0.88704 0.02256 0.30399 0.0
H1110 H 0.80151 0.01826 0.31081 0.0
H1111 H 0.79179 0.04545 0.34176 0.0
H1112 H 0.17196 0.61414 0.08264 0.0
H1113 H 0.19695 0.62187 0.05071 0.0
H1114 H 0.23583 0.53945 0.05577 0.0
H1115 H 0.21114 0.5316 0.08794 0.0
H1116 H 0.27326 0.57976 0.04172 0.0
H1117 H 0.17354 0.58449 0.99768 0.0
H1118 H 0.17461 0.60972 1.01802 0.0
H1119 H 0.17473 0.57238 0.0236 0.0
C1120 C 0.18611 0.59774 0.07718 0.0
C1121 C 0.18933 0.57215 0.08795 0.0
C1122 C 0.20019 0.6021 0.05874 0.0
C1123 C 0.21771 0.58094 0.05048 0.0
C1124 C 0.2222 0.556 0.06169 0.0
H1125 H 0.27335 0.58247 0.92252 0.0
H1126 H 0.2514 0.5688 0.95496 0.0
C1127 C 0.20815 0.55161 0.08019 0.0
C1128 C 0.23097 0.58475 0.03007 0.0
H1129 H 0.21559 0.59877 0.98038 0.0
C1130 C 0.26062 0.58375 0.02831 0.0
C1131 C 0.21455 0.58934 1.01239 0.0
C1132 C 0.18259 0.58876 1.01291 0.0
C1133 C 0.27426 0.58828 1.00959 0.0
C1134 C 0.25789 0.59445 0.99212 0.0
C1135 C 0.22821 0.59437 0.99374 0.0
C1136 C 0.2712 0.60229 0.97234 0.0
C1137 C 0.30614 0.58623 1.0087 0.0
C1138 C 0.28924 0.62588 0.97114 0.0
C1139 C 0.30161 0.63369 0.95271 0.0
C1140 C 0.2961 0.61832 0.93488 0.0
C1141 C 0.27784 0.59484 0.93595 0.0
C1142 C 0.26539 0.58698 0.9545 0.0
H1143 H 0.3146 0.57289 0.02119 0.0
H1144 H 0.31337 0.57723 0.99403 0.0
H1145 H 0.31533 0.60775 1.01034 0.0
H1146 H 0.29355 0.63852 0.98449 0.0
H1147 H 0.31538 0.65205 0.95242 0.0
H1148 H 0.62638 0.07739 0.70202 0.0
H1149 H 0.6393 0.05596 0.73432 0.0
H1150 H 0.68346 0.98915 0.70264 0.0
H1151 H 0.67207 0.0119 0.67028 0.0
H1152 H 0.62471 0.00966 0.75029 0.0
H1153 H 0.74141 1.00502 0.74404 0.0
H1154 H 0.71995 0.02428 0.72613 0.0
H1155 H 0.72466 0.9865 0.72361 0.0
C1156 C 0.63924 0.05835 0.7019 0.0
C1157 C 0.64813 0.04628 0.68347 0.0
C1158 C 0.64655 0.04599 0.72046 0.0
C1159 C 0.66268 0.02093 0.7212 0.0
C1160 C 0.67168 0.00884 0.70274 0.0
H1161 H 0.65725 0.90783 0.82545 0.0
H1162 H 0.6489 0.93375 0.79417 0.0
C1163 C 0.66484 0.02165 0.68412 0.0
C1164 C 0.66852 1.00698 0.74122 0.0
H1165 H 0.7206 0.97763 0.77065 0.0
C1166 C 0.64579 1.00291 0.75473 0.0
C1167 C 0.69603 0.99845 0.74743 0.0
C1168 C 0.72193 1.00406 0.73463 0.0
C1169 C 0.6496 0.99043 0.77391 0.0
C1170 C 0.67679 0.98044 0.77964 0.0
C1171 C 0.69965 0.9849 0.76631 0.0
C1172 C 0.68182 0.96491 0.79915 0.0
C1173 C 0.62441 0.98884 0.78797 0.0
C1174 C 0.70381 0.97296 0.81237 0.0
C1175 C 0.70909 0.95765 0.83027 0.0
C1176 C 0.69235 0.93405 0.83546 0.0
C1177 C 0.67023 0.92624 0.82229 0.0
C1178 C 0.66531 0.94119 0.8043 0.0
H1179 H 0.6088 1.00586 0.78462 0.0
H1180 H 0.61352 0.96822 0.78579 0.0
H1181 H 0.63086 0.99071 0.80408 0.0
H1182 H 0.71704 0.99103 0.8088 0.0
H1183 H 0.72647 0.96414 0.8399 0.0
H1184 H 0.38861 0.22328 0.1915 0.0
H1185 H 0.43241 0.25099 0.19308 0.0
H1186 H 0.47002 0.19669 0.1478 0.0
H1187 H 0.42673 0.16807 0.14702 0.0
H1188 H 0.5079 0.20844 0.17466 0.0
H1189 H 0.45656 0.30982 0.15399 0.0
H1190 H 0.44187 0.29532 0.17678 0.0
H1191 H 0.43793 0.27652 0.15316 0.0
C1192 C 0.40632 0.21718 0.18199 0.0
C1193 C 0.40423 0.1936 0.16907 0.0
C1194 C 0.43128 0.23324 0.18272 0.0
C1195 C 0.45441 0.22657 0.17012 0.0
C1196 C 0.45251 0.20251 0.15759 0.0
H1197 H 0.59084 0.3443 0.1406 0.0
H1198 H 0.54756 0.31571 0.1416 0.0
C1199 C 0.42775 0.18612 0.15715 0.0
C1200 C 0.4806 0.24446 0.17002 0.0
H1201 H 0.5043 0.31269 0.16537 0.0
C1202 C 0.50707 0.23123 0.17253 0.0
C1203 C 0.47979 0.27421 0.16687 0.0
C1204 C 0.45254 0.28975 0.16232 0.0
C1205 C 0.53253 0.24675 0.17215 0.0
C1206 C 0.53161 0.27666 0.17 0.0
C1207 C 0.50516 0.28987 0.16732 0.0
C1208 C 0.55779 0.29457 0.16981 0.0
C1209 C 0.56015 0.23066 0.17338 0.0
C1210 C 0.57786 0.29286 0.18551 0.0
C1211 C 0.60287 0.30885 0.18475 0.0
C1212 C 0.608 0.32749 0.16856 0.0
C1213 C 0.58744 0.33013 0.15329 0.0
C1214 C 0.56268 0.31376 0.15386 0.0
H1215 H 0.55758 0.20829 0.16842 0.0
H1216 H 0.57677 0.24069 0.16388 0.0
H1217 H 0.56753 0.23035 0.18933 0.0
H1218 H 0.57429 0.27906 0.19836 0.0
H1219 H 0.61825 0.30656 0.19682 0.0
H1220 H 0.59502 0.67748 0.39379 0.0
H1221 H 0.5667 0.72097 0.39525 0.0
H1222 H 0.52326 0.68932 0.44815 0.0
H1223 H 0.55078 0.64532 0.44619 0.0
H1224 H 0.48639 0.71086 0.423 0.0
H1225 H 0.57327 0.78857 0.431 0.0
H1226 H 0.57747 0.76728 0.4087 0.0
H1227 H 0.57906 0.75092 0.43335 0.0
C1228 C 0.57966 0.67998 0.40587 0.0
C1229 C 0.57522 0.65809 0.41995 0.0
C1230 C 0.56357 0.70495 0.40678 0.0
C1231 C 0.54311 0.70883 0.42205 0.0
C1232 C 0.53893 0.687 0.43626 0.0
H1233 H 0.4638 0.87337 0.44547 0.0
H1234 H 0.49135 0.82941 0.44758 0.0
C1235 C 0.55476 0.66189 0.43519 0.0
C1236 C 0.52515 0.73495 0.42268 0.0
H1237 H 0.52783 0.80739 0.42232 0.0
C1238 C 0.4955 0.73196 0.42301 0.0
C1239 C 0.53686 0.7626 0.42301 0.0
C1240 C 0.5684 0.76757 0.42422 0.0
C1241 C 0.47736 0.75567 0.4233 0.0
C1242 C 0.48907 0.78331 0.42258 0.0
C1243 C 0.51872 0.7863 0.42263 0.0
C1244 C 0.47111 0.80942 0.42186 0.0
C1245 C 0.44584 0.75072 0.42482 0.0
C1246 C 0.45041 0.81302 0.40674 0.0
C1247 C 0.4343 0.83797 0.40574 0.0
C1248 C 0.43896 0.86011 0.41958 0.0
C1249 C 0.45967 0.85661 0.43466 0.0
C1250 C 0.4755 0.83151 0.43582 0.0
H1251 H 0.44106 0.72985 0.43184 0.0
H1252 H 0.43531 0.76755 0.43387 0.0
H1253 H 0.43656 0.75072 0.40938 0.0
H1254 H 0.44709 0.79678 0.3954 0.0
H1255 H 0.41875 0.84024 0.39379 0.0
H1256 H 0.93065 0.65738 0.66377 0.0
H1257 H 0.97529 0.68411 0.66559 0.0
H1258 H 0.92842 0.76113 0.6764 0.0
H1259 H 0.88385 0.73456 0.67484 0.0
H1260 H 0.97277 0.75996 0.64232 0.0
H1261 H 0.01126 0.72486 0.71799 0.0
H1262 H 0.99751 0.69834 0.701 0.0
H1263 H 0.97411 0.72458 0.71133 0.0
C1264 C 0.92992 0.67995 0.66675 0.0
C1265 C 0.9038 0.69388 0.66921 0.0
C1266 C 0.9554 0.69518 0.66781 0.0
C1267 C 0.95514 0.72458 0.67122 0.0
C1268 C 0.92908 0.73845 0.67382 0.0
H1269 H 0.08437 0.85754 0.66435 0.0
H1270 H 0.03966 0.83117 0.66615 0.0
C1271 C 0.90366 0.72323 0.67296 0.0
C1272 C 0.98193 0.74112 0.67124 0.0
H1273 H 0.04142 0.7546 0.69906 0.0
C1274 C 0.9878 0.75889 0.65473 0.0
C1275 C 1.00152 0.73948 0.68737 0.0
C1276 C 0.99592 0.72094 0.70555 0.0
C1277 C 0.01298 0.77477 0.65374 0.0
C1278 C 0.03248 0.77357 0.67006 0.0
C1279 C 0.02651 0.75571 0.68659 0.0
C1280 C 0.05947 0.79007 0.67004 0.0
C1281 C 0.01879 0.79193 0.63489 0.0
C1282 C 0.08554 0.77608 0.67257 0.0
C1283 C 0.11104 0.79122 0.67195 0.0
C1284 C 0.11105 0.82067 0.66872 0.0
C1285 C 0.085 0.83482 0.66669 0.0
C1286 C 0.05945 0.8197 0.66754 0.0
H1287 H 1.00642 0.78401 0.62174 0.0
H1288 H 0.01248 0.81428 0.63758 0.0
H1289 H 0.04163 0.79147 0.63086 0.0
H1290 H 0.08621 0.75331 0.67465 0.0
H1291 H 0.1308 0.77973 0.67359 0.0
H1292 H 0.91049 0.33569 0.90564 0.0
H1293 H 0.93778 0.29136 0.90738 0.0
H1294 H 0.00899 0.33708 0.93191 0.0
H1295 H 0.98179 0.38126 0.93036 0.0
H1296 H 0.98881 0.27856 0.88806 0.0
H1297 H 1.00092 0.27076 0.97142 0.0
H1298 H 0.97542 0.29404 0.95961 0.0
H1299 H 0.01209 0.30414 0.96108 0.0
C1300 C 0.93186 0.33619 0.91161 0.0
C1301 C 0.94396 0.36191 0.91796 0.0
C1302 C 0.94746 0.31088 0.91255 0.0
C1303 C 0.97536 0.31077 0.92002 0.0
C1304 C 0.98736 0.33646 0.92647 0.0
H1305 H 0.10424 0.18036 0.89929 0.0
H1306 H 0.07664 0.22452 0.90019 0.0
C1307 C 0.97182 0.36175 0.92549 0.0
C1308 C 0.9923 0.28405 0.92033 0.0
H1309 H 0.02897 0.2393 0.95158 0.0
C1310 C 0.99751 0.26993 0.90196 0.0
C1311 C 1.00346 0.2726 0.93848 0.0
C1312 C 0.99751 0.28598 0.95881 0.0
C1313 C 0.01392 0.24501 0.9012 0.0
C1314 C 0.02583 0.23405 0.91927 0.0
C1315 C 0.02018 0.24788 0.93769 0.0
C1316 C 0.04345 0.20777 0.91942 0.0
C1317 C 0.01795 0.23035 0.88108 0.0
C1318 C 0.03456 0.18394 0.93048 0.0
C1319 C 0.05038 0.15879 0.93008 0.0
C1320 C 0.07555 0.157 0.91872 0.0
C1321 C 0.0849 0.18109 0.90813 0.0
C1322 C 0.06903 0.20626 0.90851 0.0
H1323 H 1.00194 0.23729 0.86977 0.0
H1324 H 0.03925 0.23557 0.87501 0.0
H1325 H 0.01657 0.20697 0.88279 0.0
H1326 H 0.01501 0.1846 0.93909 0.0
H1327 H 0.04263 0.14058 0.9384 0.0
H1328 H 0.58334 0.85361 0.88775 0.0
H1329 H 0.5393 0.82592 0.88649 0.0
H1330 H 0.58317 0.75877 0.85512 0.0
H1331 H 0.62725 0.78623 0.85645 0.0
H1332 H 0.5269 0.77556 0.83861 0.0
H1333 H 0.52658 0.75141 0.92109 0.0
H1334 H 0.53167 0.78796 0.91414 0.0
H1335 H 0.55818 0.76219 0.9077 0.0
C1336 C 0.58352 0.83303 0.88047 0.0
C1337 C 0.60874 0.82205 0.87224 0.0
C1338 C 0.5584 0.81718 0.87984 0.0
C1339 C 0.55801 0.79015 0.87089 0.0
C1340 C 0.58299 0.77953 0.86215 0.0
H1341 H 0.42938 0.65881 0.88632 0.0
H1342 H 0.47375 0.68583 0.88436 0.0
C1343 C 0.60815 0.79525 0.86292 0.0
C1344 C 0.53173 0.77272 0.87095 0.0
H1345 H 0.4868 0.73648 0.90225 0.0
C1346 C 0.51809 0.767 0.85251 0.0
C1347 C 0.52052 0.76122 0.88905 0.0
C1348 C 0.535 0.76573 0.90915 0.0
C1349 C 0.49327 0.75048 0.85173 0.0
C1350 C 0.48159 0.73958 0.86992 0.0
C1351 C 0.49557 0.74493 0.88831 0.0
C1352 C 0.45483 0.72272 0.87027 0.0
C1353 C 0.48006 0.7445 0.83137 0.0
C1354 C 0.42935 0.73439 0.86307 0.0
C1355 C 0.40406 0.71892 0.86407 0.0
C1356 C 0.40363 0.69153 0.87249 0.0
C1357 C 0.42909 0.67981 0.87967 0.0
C1358 C 0.45443 0.69528 0.87861 0.0
H1359 H 0.49557 0.74723 0.81884 0.0
H1360 H 0.47142 0.72263 0.8307 0.0
H1361 H 0.46238 0.7596 0.82878 0.0
H1362 H 0.42887 0.75573 0.85703 0.0
H1363 H 0.38472 0.72863 0.8586 0.0
H1364 H 0.4767 0.37759 0.60595 0.0
H1365 H 0.50442 0.33373 0.60473 0.0
H1366 H 0.43945 0.29071 0.63887 0.0
H1367 H 0.41179 0.33481 0.6404 0.0
H1368 H 0.49271 0.28007 0.65375 0.0
H1369 H 0.49174 0.26324 0.57067 0.0
H1370 H 0.50454 0.29759 0.57791 0.0
H1371 H 0.46835 0.28807 0.5831 0.0
C1372 C 0.46818 0.35871 0.61302 0.0
C1373 C 0.44199 0.35959 0.62318 0.0
C1374 C 0.484 0.33358 0.61223 0.0
C1375 C 0.47389 0.30871 0.62144 0.0
C1376 C 0.44765 0.30955 0.63155 0.0
H1377 H 0.54052 0.13797 0.60547 0.0
H1378 H 0.51266 0.18178 0.60498 0.0
C1379 C 0.43181 0.33472 0.63236 0.0
C1380 C 0.49119 0.28219 0.6212 0.0
H1381 H 0.52362 0.23456 0.58968 0.0
C1382 C 0.49938 0.27007 0.63974 0.0
C1383 C 0.49971 0.26891 0.60293 0.0
C1384 C 0.49042 0.27993 0.58252 0.0
C1385 C 0.51612 0.24536 0.64051 0.0
C1386 C 0.52541 0.23261 0.62224 0.0
C1387 C 0.51685 0.24449 0.6037 0.0
C1388 C 0.54312 0.20636 0.62202 0.0
C1389 C 0.52317 0.23281 0.66092 0.0
C1390 C 0.56988 0.20563 0.63138 0.0
C1391 C 0.58587 0.18052 0.63169 0.0
C1392 C 0.57548 0.15573 0.62252 0.0
C1393 C 0.5491 0.15672 0.61268 0.0
C1394 C 0.53313 0.18177 0.61239 0.0
H1395 H 0.50858 0.24058 0.67293 0.0
H1396 H 0.52214 0.2093 0.6605 0.0
H1397 H 0.54503 0.23903 0.6652 0.0
H1398 H 0.57838 0.22445 0.63852 0.0
H1399 H 0.60617 0.18041 0.63934 0.0
H1400 H 0.0842 0.35441 0.38915 0.0
H1401 H 0.04025 0.32671 0.38771 0.0
H1402 H 0.08454 0.25951 0.35663 0.0
H1403 H 0.12837 0.28726 0.3578 0.0
H1404 H 0.03208 0.27092 0.33971 0.0
H1405 H 0.02302 0.25763 0.42299 0.0
H1406 H 0.02537 0.29389 0.41487 0.0
H1407 H 0.0549 0.27039 0.41095 0.0
C1408 C 0.08449 0.33379 0.38192 0.0
C1409 C 0.10972 0.32294 0.37366 0.0
C1410 C 0.05942 0.31789 0.38123 0.0
C1411 C 0.05917 0.29077 0.37238 0.0
C1412 C 0.08422 0.28028 0.36364 0.0
H1413 H 0.92925 0.16121 0.38956 0.0
H1414 H 0.97371 0.18814 0.38828 0.0
C1415 C 0.10925 0.29616 0.36432 0.0
C1416 C 0.03292 0.27324 0.37228 0.0
H1417 H 0.98415 0.24173 0.40328 0.0
C1418 C 0.02161 0.26451 0.35361 0.0
C1419 C 0.0195 0.26445 0.39042 0.0
C1420 C 0.03141 0.27181 0.41096 0.0
C1421 C 0.99703 0.24771 0.35258 0.0
C1422 C 0.9831 0.2397 0.37071 0.0
C1423 C 0.99468 0.24802 0.38938 0.0
C1424 C 0.95643 0.2228 0.37068 0.0
C1425 C 0.98649 0.23828 0.33209 0.0
C1426 C 0.93188 0.23329 0.36127 0.0
C1427 C 0.90653 0.21791 0.36194 0.0
C1428 C 0.90516 0.19179 0.37215 0.0
C1429 C 0.92973 0.1812 0.38149 0.0
C1430 C 0.95511 0.19661 0.38081 0.0
H1431 H 1.00346 0.23935 0.32044 0.0
H1432 H 0.97824 0.21625 0.33269 0.0
H1433 H 0.969 0.25245 0.32722 0.0
H1434 H 0.93215 0.25368 0.35373 0.0
H1435 H 0.88787 0.22671 0.35475 0.0
H1436 H 0.03903 0.63749 0.10544 0.0
H1437 H 0.01159 0.68152 0.10392 0.0
H1438 H 0.07724 0.72484 0.13711 0.0
H1439 H 0.10462 0.68061 0.13892 0.0
H1440 H 0.02413 0.7357 0.15243 0.0
H1441 H 0.02415 0.75161 0.06924 0.0
H1442 H 0.01143 0.71736 0.07682 0.0
H1443 H 0.04769 0.72693 0.08164 0.0
C1444 C 0.04776 0.65648 0.11222 0.0
C1445 C 0.07405 0.65565 0.12221 0.0
C1446 C 0.0321 0.68169 0.11126 0.0
C1447 C 0.04247 0.70668 0.12015 0.0
C1448 C 0.06884 0.7059 0.13005 0.0
H1449 H 0.97592 0.87763 0.10441 0.0
H1450 H 1.00386 0.83384 0.10367 0.0
C1451 C 0.08452 0.68065 0.13102 0.0
C1452 C 0.02528 0.73325 0.11987 0.0
H1453 H 0.99268 0.78069 0.08835 0.0
C1454 C 0.01734 0.74558 0.13841 0.0
C1455 C 0.01662 0.74637 0.10159 0.0
C1456 C 0.02561 0.73508 0.08119 0.0
C1457 C 1.00069 0.77033 0.13918 0.0
C1458 C 0.99124 0.78293 0.12091 0.0
C1459 C 0.99957 0.77087 0.10236 0.0
C1460 C 0.97348 0.80912 0.12072 0.0
C1461 C 0.99385 0.78308 0.15958 0.0
C1462 C 0.94675 0.80974 0.13015 0.0
C1463 C 0.93072 0.8348 0.1306 0.0
C1464 C 0.94105 0.85967 0.1215 0.0
C1465 C 0.9674 0.85881 0.11156 0.0
C1466 C 0.98341 0.83378 0.11113 0.0
H1467 H 0.00852 0.77537 0.17153 0.0
H1468 H 0.99496 0.80659 0.15904 0.0
H1469 H 0.97201 0.77698 0.164 0.0
H1470 H 0.93832 0.79086 0.13727 0.0
H1471 H 0.91045 0.83481 0.13831 0.0
H1472 H 0.22165 0.19811 0.13218 0.0
H1473 H 0.19954 0.24503 0.12913 0.0
H1474 H 0.28163 0.28447 0.13368 0.0
H1475 H 0.30387 0.23799 0.13661 0.0
H1476 H 0.23879 0.3016 0.16363 0.0
H1477 H 0.20121 0.30834 0.08383 0.0
H1478 H 0.19378 0.27622 0.09759 0.0
H1479 H 0.22971 0.28503 0.09141 0.0
C1480 C 0.23507 0.21672 0.1319 0.0
C1481 C 0.26451 0.21429 0.13475 0.0
C1482 C 0.22239 0.24351 0.13022 0.0
C1483 C 0.23899 0.26816 0.13124 0.0
C1484 C 0.26847 0.26569 0.1329 0.0
H1485 H 0.21246 0.4492 0.14591 0.0
H1486 H 0.23149 0.40079 0.14518 0.0
C1487 C 0.28112 0.23906 0.13454 0.0
C1488 C 0.22572 0.29656 0.13261 0.0
H1489 H 0.1898 0.34653 0.10545 0.0
C1490 C 0.22806 0.31148 0.15093 0.0
C1491 C 0.21158 0.30917 0.11606 0.0
C1492 C 0.20894 0.29406 0.09602 0.0
C1493 C 0.21657 0.33876 0.15318 0.0
C1494 C 0.20299 0.35175 0.13648 0.0
C1495 C 0.20033 0.33662 0.11822 0.0
C1496 C 0.19147 0.38102 0.13759 0.0
C1497 C 0.21865 0.35314 0.17355 0.0
C1498 C 0.1628 0.38608 0.13326 0.0
C1499 C 0.15202 0.41368 0.13348 0.0
C1500 C 0.16972 0.43676 0.13801 0.0
C1501 C 0.19833 0.43174 0.14257 0.0
C1502 C 0.20916 0.40409 0.14223 0.0
H1503 H 0.22189 0.33755 0.18596 0.0
H1504 H 0.23706 0.36775 0.17351 0.0
H1505 H 0.19927 0.36569 0.1769 0.0
H1506 H 0.14878 0.36865 0.1296 0.0
H1507 H 0.12988 0.41698 0.12984 0.0
H1508 H 0.31257 0.46591 0.39583 0.0
H1509 H 0.36048 0.48618 0.39513 0.0
H1510 H 0.39472 0.40443 0.37891 0.0
H1511 H 0.34701 0.38427 0.37924 0.0
H1512 H 0.40851 0.47189 0.41697 0.0
H1513 H 0.42689 0.45536 0.33476 0.0
H1514 H 0.39225 0.45234 0.34618 0.0
H1515 H 0.41726 0.42367 0.34814 0.0
C1516 C 0.33037 0.45231 0.39218 0.0
C1517 C 0.32614 0.42361 0.38747 0.0
C1518 C 0.35767 0.46389 0.39175 0.0
C1519 C 0.38108 0.44694 0.38652 0.0
C1520 C 0.37691 0.41806 0.38245 0.0
H1521 H 0.56315 0.47577 0.3846 0.0
H1522 H 0.51564 0.45528 0.38124 0.0
C1523 C 0.34967 0.40653 0.38281 0.0
C1524 C 0.40994 0.45932 0.38563 0.0
H1525 H 0.46667 0.46995 0.35427 0.0
C1526 C 0.42115 0.47161 0.40324 0.0
C1527 C 0.42643 0.45886 0.36769 0.0
C1528 C 0.41504 0.44709 0.34806 0.0
C1529 C 0.44857 0.48308 0.40347 0.0
C1530 C 0.46504 0.48256 0.38556 0.0
C1531 C 0.45394 0.47022 0.36796 0.0
C1532 C 0.4937 0.49524 0.38491 0.0
C1533 C 0.45992 0.49533 0.42297 0.0
C1534 C 0.49698 0.52457 0.38718 0.0
C1535 C 0.52396 0.53635 0.389 0.0
C1536 C 0.54824 0.51898 0.38859 0.0
C1537 C 0.54493 0.48976 0.385 0.0
C1538 C 0.51782 0.47799 0.38314 0.0
H1539 H 0.44715 0.48868 0.4363 0.0
H1540 H 0.48227 0.48876 0.4254 0.0
H1541 H 0.45937 0.51882 0.42209 0.0
H1542 H 0.47858 0.53826 0.38823 0.0
H1543 H 0.52567 0.55896 0.39157 0.0
H1544 H 0.21038 0.77734 0.63354 0.0
H1545 H 0.23255 0.73081 0.63101 0.0
H1546 H 0.31478 0.7701 0.62664 0.0
H1547 H 0.29275 0.81702 0.62969 0.0
H1548 H 0.26694 0.70353 0.60383 0.0
H1549 H 0.32275 0.72044 0.67693 0.0
H1550 H 0.29525 0.74389 0.668 0.0
H1551 H 0.3305 0.7464 0.65781 0.0
C1552 C 0.23317 0.77621 0.63168 0.0
C1553 C 0.24982 0.80095 0.63207 0.0
C1554 C 0.24581 0.74952 0.63026 0.0
C1555 C 0.27536 0.74693 0.62919 0.0
C1556 C 0.29195 0.77161 0.62797 0.0
H1557 H 0.38421 0.59844 0.62816 0.0
H1558 H 0.3645 0.64646 0.62701 0.0
C1559 C 0.27929 0.79843 0.62944 0.0
C1560 C 0.28856 0.71837 0.6305 0.0
H1561 H 0.33178 0.67721 0.65992 0.0
C1562 C 0.28115 0.6978 0.61607 0.0
C1563 C 0.30681 0.7108 0.64667 0.0
C1564 C 0.31414 0.73141 0.66336 0.0
C1565 C 0.29174 0.66999 0.61723 0.0
C1566 C 0.31009 0.66254 0.63328 0.0
C1567 C 0.31768 0.68308 0.64764 0.0
C1568 C 0.32204 0.6336 0.63515 0.0
C1569 C 0.28351 0.64876 0.60119 0.0
C1570 C 0.30477 0.61057 0.64058 0.0
C1571 C 0.31605 0.58309 0.64145 0.0
C1572 C 0.3447 0.57831 0.63676 0.0
C1573 C 0.36204 0.60152 0.63182 0.0
C1574 C 0.35084 0.62894 0.63114 0.0
H1575 H 0.27275 0.65895 0.58812 0.0
H1576 H 0.30251 0.63723 0.59562 0.0
H1577 H 0.26886 0.63291 0.60787 0.0
H1578 H 0.28253 0.61383 0.64391 0.0
H1579 H 0.30224 0.56555 0.64527 0.0
H1580 H 0.98616 0.46076 0.88172 0.0
H1581 H 0.03297 0.48232 0.87957 0.0
H1582 H 0.99482 0.56541 0.87815 0.0
H1583 H 0.94768 0.54397 0.8808 0.0
H1584 H 0.0606 0.51853 0.85347 0.0
H1585 H 0.04448 0.56852 0.92887 0.0
H1586 H 0.02087 0.54192 0.9189 0.0
H1587 H 0.01846 0.57796 0.9102 0.0
C1588 C 0.98761 0.48362 0.88055 0.0
C1589 C 0.96316 0.50066 0.8817 0.0
C1590 C 0.01445 0.49591 0.87935 0.0
C1591 C 0.01742 0.52547 0.87927 0.0
C1592 C 0.993 0.54253 0.87871 0.0
H1593 H 0.16569 0.63339 0.8816 0.0
H1594 H 0.11775 0.61373 0.88022 0.0
C1595 C 0.96604 0.53023 0.87994 0.0
C1596 C 0.04609 0.53813 0.88106 0.0
H1597 H 0.08765 0.57856 0.91209 0.0
C1598 C 0.06651 0.53168 0.86627 0.0
C1599 C 0.05387 0.55495 0.89795 0.0
C1600 C 0.03341 0.56108 0.91501 0.0
C1601 C 0.09437 0.54194 0.86776 0.0
C1602 C 0.102 0.55893 0.88452 0.0
C1603 C 0.08163 0.56549 0.89928 0.0
C1604 C 0.13089 0.57074 0.88665 0.0
C1605 C 0.11544 0.53485 0.85132 0.0
C1606 C 0.15404 0.55312 0.89123 0.0
C1607 C 0.18148 0.56436 0.89224 0.0
C1608 C 0.18607 0.59332 0.88852 0.0
C1609 C 0.16274 0.61097 0.8845 0.0
C1610 C 0.13537 0.59981 0.88368 0.0
H1611 H 0.10514 0.52505 0.83791 0.0
H1612 H 0.12687 0.55424 0.8464 0.0
H1613 H 0.13137 0.51973 0.85734 0.0
H1614 H 0.1509 0.53065 0.89375 0.0
H1615 H 0.19913 0.55031 0.89533 0.0
H1616 H 0.78901 0.8157 0.91316 0.0
H1617 H 0.80939 0.76821 0.91749 0.0
H1618 H 0.72629 0.73134 0.91106 0.0
H1619 H 0.70576 0.77836 0.90749 0.0
H1620 H 0.7561 0.70349 0.93875 0.0
H1621 H 0.82066 0.71682 0.86905 0.0
H1622 H 0.8281 0.74247 0.88842 0.0
H1623 H 0.79381 0.74196 0.87654 0.0
C1624 C 0.77501 0.79752 0.91321 0.0
C1625 C 0.7458 0.80083 0.90974 0.0
C1626 C 0.78674 0.77036 0.91538 0.0
C1627 C 0.76947 0.74616 0.91395 0.0
C1628 C 0.7401 0.74963 0.91198 0.0
H1629 H 0.82276 0.57567 0.87901 0.0
H1630 H 0.80228 0.62365 0.88009 0.0
C1631 C 0.72839 0.77662 0.90994 0.0
C1632 C 0.7817 0.71711 0.91355 0.0
H1633 H 0.82651 0.67384 0.88705 0.0
C1634 C 0.77157 0.69703 0.92748 0.0
C1635 C 0.80129 0.70847 0.89848 0.0
C1636 C 0.81142 0.72844 0.88214 0.0
C1637 C 0.78056 0.66866 0.92686 0.0
C1638 C 0.80102 0.66027 0.91231 0.0
C1639 C 0.81101 0.6803 0.89829 0.0
C1640 C 0.81267 0.63098 0.91163 0.0
C1641 C 0.76737 0.64785 0.94145 0.0
C1642 C 0.82549 0.61927 0.92887 0.0
C1643 C 0.83668 0.5919 0.92834 0.0
C1644 C 0.83587 0.57583 0.91043 0.0
C1645 C 0.82345 0.58758 0.89303 0.0
C1646 C 0.81188 0.61497 0.89364 0.0
H1647 H 0.74615 0.65513 0.9466 0.0
H1648 H 0.76509 0.62654 0.9345 0.0
H1649 H 0.78104 0.64592 0.95505 0.0
H1650 H 0.82719 0.63144 0.94273 0.0
H1651 H 0.84648 0.58353 0.94192 0.0
H1652 H 0.68968 0.57647 0.62662 0.0
H1653 H 0.64115 0.55756 0.62709 0.0
H1654 H 0.63375 0.57943 0.69037 0.0
H1655 H 0.6822 0.59723 0.69013 0.0
H1656 H 0.61281 0.52865 0.68396 0.0
H1657 H 0.56869 0.60253 0.6268 0.0
H1658 H 0.59798 0.58217 0.61734 0.0
H1659 H 0.60348 0.6071 0.6376 0.0
C1660 C 0.67765 0.57705 0.6406 0.0
C1661 C 0.6896 0.58832 0.65832 0.0
C1662 C 0.64987 0.56654 0.64083 0.0
C1663 C 0.63356 0.56762 0.65868 0.0
C1664 C 0.64581 0.57846 0.6764 0.0
H1665 H 0.44963 0.54198 0.65918 0.0
H1666 H 0.49675 0.56262 0.66444 0.0
C1667 C 0.67353 0.58863 0.67624 0.0
C1668 C 0.60391 0.55708 0.65921 0.0
H1669 H 0.53901 0.5642 0.63692 0.0
C1670 C 0.59665 0.53656 0.67374 0.0
C1671 C 0.58262 0.56785 0.6462 0.0
C1672 C 0.58846 0.59134 0.63125 0.0
C1673 C 0.56894 0.52603 0.6753 0.0
C1674 C 0.54804 0.53566 0.66156 0.0
C1675 C 0.55508 0.5567 0.64737 0.0
C1676 C 0.5193 0.52295 0.66078 0.0
C1677 C 0.56234 0.50489 0.6918 0.0
C1678 C 0.5163 0.49379 0.65731 0.0
C1679 C 0.48954 0.48195 0.65454 0.0
C1680 C 0.46509 0.49906 0.65483 0.0
C1681 C 0.46798 0.52816 0.65898 0.0
C1682 C 0.4949 0.54002 0.66186 0.0
H1683 H 0.57696 0.50735 0.70487 0.0
H1684 H 0.54022 0.50718 0.69731 0.0
H1685 H 0.56512 0.4831 0.68577 0.0
H1686 H 0.53477 0.48027 0.65593 0.0
H1687 H 0.48821 0.45946 0.65133 0.0
H1688 H 0.72118 0.19955 0.40585 0.0
H1689 H 0.69911 0.2465 0.40909 0.0
H1690 H 0.78082 0.28604 0.40224 0.0
H1691 H 0.8031 0.23959 0.39917 0.0
H1692 H 0.71691 0.29808 0.43708 0.0
H1693 H 0.72552 0.31369 0.35368 0.0
H1694 H 0.72504 0.27892 0.36518 0.0
H1695 H 0.75633 0.30036 0.36665 0.0
C1696 C 0.73454 0.21819 0.40549 0.0
C1697 C 0.76389 0.21576 0.40207 0.0
C1698 C 0.72187 0.24498 0.40726 0.0
C1699 C 0.73835 0.26961 0.40558 0.0
C1700 C 0.76776 0.26722 0.40335 0.0
H1701 H 0.70818 0.44996 0.39206 0.0
H1702 H 0.72756 0.4016 0.39205 0.0
C1703 C 0.78043 0.24059 0.40165 0.0
C1704 C 0.72491 0.29794 0.40501 0.0
H1705 H 0.70987 0.35281 0.37303 0.0
C1706 C 0.71513 0.31004 0.4231 0.0
C1707 C 0.72293 0.31343 0.38673 0.0
C1708 C 0.73282 0.30101 0.36687 0.0
C1709 C 0.70388 0.33764 0.42347 0.0
C1710 C 0.7018 0.35319 0.40514 0.0
C1711 C 0.71147 0.3409 0.38704 0.0
C1712 C 0.68973 0.38226 0.40446 0.0
C1713 C 0.69516 0.35018 0.44356 0.0
C1714 C 0.66184 0.3873 0.41089 0.0
C1715 C 0.65085 0.41481 0.41099 0.0
C1716 C 0.66743 0.43775 0.4044 0.0
C1717 C 0.69499 0.43263 0.39724 0.0
C1718 C 0.70605 0.40506 0.39726 0.0
H1719 H 0.70531 0.33896 0.45646 0.0
H1720 H 0.70075 0.37301 0.44443 0.0
H1721 H 0.67186 0.34819 0.44534 0.0
H1722 H 0.64859 0.36996 0.41598 0.0
H1723 H 0.62945 0.41815 0.41644 0.0
H1724 H 0.8156 0.46268 0.14748 0.0
H1725 H 0.86376 0.48207 0.14756 0.0
H1726 H 0.89662 0.40065 0.16595 0.0
H1727 H 0.84844 0.38141 0.16637 0.0
H1728 H 0.9189 0.44354 0.18832 0.0
H1729 H 0.9263 0.46983 0.10666 0.0
H1730 H 0.89619 0.48577 0.11876 0.0
H1731 H 0.89849 0.44777 0.11681 0.0
C1732 C 0.83315 0.4489 0.15135 0.0
C1733 C 0.82837 0.42055 0.15683 0.0
C1734 C 0.86067 0.45993 0.15131 0.0
C1735 C 0.88388 0.4427 0.15648 0.0
C1736 C 0.87907 0.41431 0.16185 0.0
H1737 H 0.06641 0.47367 0.16011 0.0
H1738 H 0.01952 0.45201 0.164 0.0
C1739 C 0.85157 0.40333 0.16201 0.0
C1740 C 0.91306 0.45446 0.1569 0.0
H1741 H 0.96234 0.4887 0.12799 0.0
C1742 C 0.92849 0.45323 0.17509 0.0
C1743 C 0.92563 0.46696 0.1396 0.0
C1744 C 0.91093 0.46744 0.1193 0.0
C1745 C 0.95583 0.46487 0.17658 0.0
C1746 C 0.96802 0.47791 0.15941 0.0
C1747 C 0.95279 0.47883 0.14117 0.0
C1748 C 0.99642 0.49125 0.15995 0.0
C1749 C 0.97123 0.46378 0.19657 0.0
C1750 C 0.99893 0.52052 0.15681 0.0
C1751 C 0.02558 0.53295 0.15464 0.0
C1752 C 0.05034 0.5163 0.15538 0.0
C1753 C 0.04783 0.48715 0.15956 0.0
C1754 C 0.02104 0.47472 0.16178 0.0
H1755 H 0.95704 0.45741 0.20921 0.0
H1756 H 0.98877 0.44815 0.19555 0.0
H1757 H 0.98066 0.48475 0.20014 0.0
H1758 H 0.98017 0.53363 0.15537 0.0
H1759 H 0.02664 0.55547 0.15152 0.0
H1760 H 0.80562 0.738 0.63348 0.0
H1761 H 0.7832 0.7843 0.62989 0.0
H1762 H 0.70201 0.74407 0.62175 0.0
H1763 H 0.72421 0.69744 0.62577 0.0
H1764 H 0.75 0.81111 0.60089 0.0
H1765 H 0.69003 0.79316 0.67228 0.0
H1766 H 0.71866 0.77037 0.6643 0.0
H1767 H 0.68426 0.76707 0.6529 0.0
C1768 C 0.78306 0.73887 0.63056 0.0
C1769 C 0.76666 0.71396 0.63019 0.0
C1770 C 0.77027 0.76542 0.62851 0.0
C1771 C 0.74085 0.76766 0.62608 0.0
C1772 C 0.72468 0.74282 0.6241 0.0
H1773 H 0.63024 0.91558 0.62652 0.0
H1774 H 0.64995 0.86756 0.62457 0.0
C1775 C 0.73747 0.71615 0.62616 0.0
C1776 C 0.72716 0.79598 0.62698 0.0
H1777 H 0.68193 0.83648 0.65533 0.0
C1778 C 0.73505 0.81664 0.61274 0.0
C1779 C 0.70788 0.80323 0.64261 0.0
C1780 C 0.69984 0.78243 0.65903 0.0
C1781 C 0.72399 0.84429 0.61362 0.0
C1782 C 0.7048 0.85151 0.62927 0.0
C1783 C 0.69666 0.83082 0.64337 0.0
C1784 C 0.6929 0.88048 0.63122 0.0
C1785 C 0.73272 0.86555 0.59773 0.0
C1786 C 0.71044 0.90353 0.63611 0.0
C1787 C 0.69918 0.93095 0.6374 0.0
C1788 C 0.67025 0.9357 0.63377 0.0
C1789 C 0.65263 0.9125 0.62937 0.0
C1790 C 0.66385 0.8851 0.62822 0.0
H1791 H 0.74286 0.85519 0.58445 0.0
H1792 H 0.71413 0.87796 0.59244 0.0
H1793 H 0.74817 0.8806 0.60441 0.0
H1794 H 0.73285 0.90031 0.63878 0.0
H1795 H 0.71321 0.94848 0.64082 0.0
H1796 H 0.82199 0.93916 0.91616 0.0
H1797 H 0.86994 0.95959 0.91652 0.0
H1798 H 0.87884 0.94095 0.85283 0.0
H1799 H 0.831 0.92157 0.85227 0.0
H1800 H 0.92048 0.93551 0.90842 0.0
H1801 H 0.90233 0.02251 0.85372 0.0
H1802 H 0.87364 1.00246 0.86469 0.0
H1803 H 0.89308 0.98863 0.84336 0.0
C1804 C 0.83413 0.93982 0.90223 0.0
C1805 C 0.82272 0.92909 0.88415 0.0
C1806 C 0.86151 0.95137 0.90244 0.0
C1807 C 0.87784 0.95232 0.8846 0.0
C1808 C 0.86644 0.94126 0.86664 0.0
H1809 H 0.06258 0.97509 0.88323 0.0
H1810 H 0.01482 0.95539 0.87927 0.0
C1811 C 0.83911 0.93002 0.86638 0.0
C1812 C 0.90713 0.96395 0.88476 0.0
H1813 H 0.95056 0.01166 0.86128 0.0
C1814 C 0.92703 0.95227 0.8982 0.0
C1815 C 0.91564 0.98601 0.87154 0.0
C1816 C 0.89497 1.00083 0.85767 0.0
C1817 C 0.95523 0.96184 0.89865 0.0
C1818 C 0.96399 0.98315 0.88487 0.0
C1819 C 0.94401 0.99498 0.87157 0.0
C1820 C 0.99316 0.99508 0.88509 0.0
C1821 C 0.9751 0.9496 0.91428 0.0
C1822 C 0.99694 0.02418 0.88846 0.0
C1823 C 0.02408 0.03555 0.89032 0.0
C1824 C 0.04821 0.01807 0.88894 0.0
C1825 C 0.0445 0.98914 0.88447 0.0
C1826 C 0.01719 0.97778 0.88246 0.0
H1827 H 0.9634 0.93909 0.92681 0.0
H1828 H 0.98886 0.93345 0.90699 0.0
H1829 H 0.98887 0.96631 0.92084 0.0
H1830 H 0.97879 0.03803 0.89037 0.0
H1831 H 0.02601 0.05795 0.89363 0.0
H1832 H 0.80265 0.06562 0.14576 0.0
H1833 H 0.78279 0.11377 0.14564 0.0
H1834 H 0.8636 0.147 0.12644 0.0
H1835 H 0.88331 0.099 0.12615 0.0
H1836 H 0.7985 0.16171 0.16674 0.0
H1837 H 0.81038 0.1797 0.08409 0.0
H1838 H 0.81401 0.14508 0.09544 0.0
H1839 H 0.84277 0.17003 0.09653 0.0
C1840 C 0.81613 0.08325 0.14157 0.0
C1841 C 0.84443 0.07863 0.13584 0.0
C1842 C 0.80479 0.1107 0.14147 0.0
C1843 C 0.82155 0.13392 0.1356 0.0
C1844 C 0.85007 0.12936 0.1305 0.0
H1845 H 0.79095 0.31641 0.13404 0.0
H1846 H 0.81214 0.26912 0.13064 0.0
C1847 C 0.86136 0.10195 0.13051 0.0
C1848 C 0.80931 0.16294 0.13506 0.0
H1849 H 0.79671 0.21953 0.10392 0.0
C1850 C 0.798 0.17429 0.15299 0.0
C1851 C 0.80874 0.17937 0.11709 0.0
C1852 C 0.81938 0.16788 0.09714 0.0
C1853 C 0.78643 0.20171 0.15349 0.0
C1854 C 0.78585 0.21808 0.13554 0.0
C1855 C 0.79729 0.20689 0.11764 0.0
C1856 C 0.77273 0.24662 0.13513 0.0
C1857 C 0.77515 0.21315 0.17329 0.0
C1858 C 0.74344 0.24953 0.13792 0.0
C1859 C 0.73126 0.27639 0.13974 0.0
C1860 C 0.74816 0.30095 0.13883 0.0
C1861 C 0.77731 0.29799 0.13482 0.0
C1862 C 0.78949 0.271 0.13294 0.0
H1863 H 0.78252 0.20046 0.18645 0.0
H1864 H 0.78174 0.23554 0.17548 0.0
H1865 H 0.75164 0.21256 0.17303 0.0
H1866 H 0.73011 0.23094 0.13933 0.0
H1867 H 0.70871 0.27779 0.14266 0.0
H1868 H 0.44948 0.04205 0.38253 0.0
H1869 H 0.4966 0.06287 0.37798 0.0
H1870 H 0.53481 0.98095 0.38788 0.0
H1871 H 0.48813 0.95992 0.39195 0.0
H1872 H 0.53738 0.06431 0.40711 0.0
H1873 H 0.57939 0.00847 0.3397 0.0
H1874 H 0.54224 0.0082 0.34625 0.0
H1875 H 0.56655 0.9844 0.35861 0.0
C1876 C 0.46787 0.02832 0.3832 0.0
C1877 C 0.46496 0.9993 0.38763 0.0
C1878 C 0.4948 0.04029 0.3807 0.0
C1879 C 0.51926 0.02344 0.38241 0.0
C1880 C 0.51631 0.9943 0.38605 0.0
H1881 H 0.70011 0.05281 0.39635 0.0
H1882 H 0.65188 0.03305 0.39647 0.0
C1883 C 0.48949 0.98233 0.3885 0.0
C1884 C 0.54788 0.03652 0.3823 0.0
H1885 H 0.61355 0.03196 0.36066 0.0
C1886 C 0.55393 0.05747 0.39679 0.0
C1887 C 0.56954 0.02745 0.36892 0.0
C1888 C 0.56405 1.0061 0.35237 0.0
C1889 C 0.5812 0.0691 0.39857 0.0
C1890 C 0.60291 0.05966 0.38544 0.0
C1891 C 0.59687 0.03892 0.37084 0.0
C1892 C 0.63184 0.07175 0.38621 0.0
C1893 C 0.58679 0.09096 0.41476 0.0
C1894 C 0.63642 0.09997 0.38043 0.0
C1895 C 0.66379 0.11118 0.38027 0.0
C1896 C 0.68708 0.09438 0.38593 0.0
C1897 C 0.68248 0.06623 0.39202 0.0
C1898 C 0.65503 0.05493 0.39203 0.0
H1899 H 0.5696 0.0916 0.42627 0.0
H1900 H 0.6072 0.0866 0.42252 0.0
H1901 H 0.58828 0.11222 0.40765 0.0
H1902 H 0.61885 0.11318 0.37566 0.0
H1903 H 0.66676 0.13292 0.37543 0.0
H1904 H 0.29294 0.31876 0.40864 0.0
H1905 H 0.31518 0.27193 0.4121 0.0
H1906 H 0.2331 0.23227 0.4089 0.0
H1907 H 0.21067 0.27864 0.40557 0.0
H1908 H 0.30106 0.22111 0.44083 0.0
H1909 H 0.2832 0.20373 0.35843 0.0
H1910 H 0.28394 0.23868 0.36962 0.0
H1911 H 0.25345 0.21646 0.3729 0.0
C1912 C 0.27955 0.30014 0.4092 0.0
C1913 C 0.25004 0.30245 0.40661 0.0
C1914 C 0.29232 0.27342 0.41109 0.0
C1915 C 0.27575 0.24875 0.41041 0.0
C1916 C 0.24622 0.25111 0.40921 0.0
H1917 H 0.30395 0.06842 0.39685 0.0
H1918 H 0.2849 0.11685 0.39793 0.0
C1919 C 0.23347 0.27768 0.40736 0.0
C1920 C 0.28917 0.22043 0.4094 0.0
H1921 H 0.30059 0.16485 0.37725 0.0
C1922 C 0.30119 0.20881 0.42694 0.0
C1923 C 0.2891 0.20452 0.39124 0.0
C1924 C 0.27693 0.21643 0.37188 0.0
C1925 C 0.31258 0.18126 0.42692 0.0
C1926 C 0.31246 0.16526 0.40874 0.0
C1927 C 0.30064 0.1771 0.39116 0.0
C1928 C 0.32425 0.1361 0.40764 0.0
C1929 C 0.32381 0.16922 0.44652 0.0
C1930 C 0.35283 0.13096 0.41223 0.0
C1931 C 0.36366 0.10338 0.41168 0.0
C1932 C 0.34619 0.08049 0.4063 0.0
C1933 C 0.31784 0.08571 0.40106 0.0
C1934 C 0.30696 0.11332 0.40171 0.0
H1935 H 0.31541 0.18084 0.45989 0.0
H1936 H 0.31827 0.14645 0.44807 0.0
H1937 H 0.34724 0.17112 0.44669 0.0
H1938 H 0.36675 0.14828 0.41631 0.0
H1939 H 0.38566 0.09995 0.41567 0.0
H1940 H 0.95233 0.04291 0.1487 0.0
H1941 H 1.00048 0.06202 0.15099 0.0
H1942 H 0.03318 0.97771 0.16076 0.0
H1943 H 0.98534 0.95841 0.15794 0.0
H1944 H 0.04273 0.0619 0.17872 0.0
H1945 H 0.07651 1.00174 0.11081 0.0
H1946 H 0.03992 1.00438 0.11848 0.0
H1947 H 0.06315 0.97917 0.13048 0.0
C1948 C 0.96971 0.02851 0.15174 0.0
C1949 C 0.96507 0.99911 0.15293 0.0
C1950 C 0.99725 0.03944 0.15293 0.0
C1951 C 0.02053 0.02118 0.15541 0.0
C1952 C 0.01565 0.99209 0.15817 0.0
H1953 H 0.19185 0.07001 0.18673 0.0
H1954 H 0.14339 0.05184 0.18586 0.0
C1955 C 0.98824 0.98113 0.15676 0.0
C1956 C 0.04996 0.03233 0.15443 0.0
H1957 H 0.11316 0.02415 0.12975 0.0
C1958 C 0.0581 0.05374 0.16797 0.0
C1959 C 0.06984 0.02218 0.14003 0.0
C1960 C 0.06187 1.00083 0.12398 0.0
C1961 C 0.08579 0.06467 0.16793 0.0
C1962 C 0.10612 0.05333 0.15433 0.0
C1963 C 0.09773 0.03252 0.14039 0.0
C1964 C 0.13621 0.0627 0.15441 0.0
C1965 C 0.09277 0.08863 0.18223 0.0
C1966 C 0.14893 0.07337 0.13671 0.0
C1967 C 0.17693 0.08324 0.13707 0.0
C1968 C 0.19255 0.08263 0.15516 0.0
C1969 C 0.18018 0.07094 0.17262 0.0
C1970 C 0.15238 0.06083 0.1722 0.0
H1971 H 0.07346 0.10058 0.18671 0.0
H1972 H 0.10236 0.07979 0.19622 0.0
H1973 H 0.10808 0.10366 0.17532 0.0
H1974 H 0.13697 0.07473 0.12274 0.0
H1975 H 0.186 0.09217 0.1234 0.0
H1976 H 0.2098 0.94784 0.89735 0.0
H1977 H 0.22861 0.89925 0.8981 0.0
H1978 H 0.14678 0.86808 0.91677 0.0
H1979 H 0.12793 0.91647 0.91608 0.0
H1980 H 0.2276 0.86147 0.93372 0.0
H1981 H 0.16986 0.81767 0.86729 0.0
H1982 H 0.17492 0.85527 0.871 0.0
H1983 H 0.14885 0.83658 0.8856 0.0
C1984 C 0.1958 0.93055 0.9014 0.0
C1985 C 0.16742 0.93584 0.9066 0.0
C1986 C 0.20656 0.90288 0.9019 0.0
C1987 C 0.18902 0.88009 0.90736 0.0
C1988 C 0.16057 0.88533 0.91228 0.0
H1989 H 0.22121 0.69744 0.91019 0.0
H1990 H 0.19913 0.74398 0.9152 0.0
C1991 C 0.14986 0.91296 0.91192 0.0
C1992 C 0.20065 0.85094 0.90854 0.0
H1993 H 0.19715 0.78557 0.88651 0.0
C1994 C 0.22099 0.84484 0.92342 0.0
C1995 C 0.19168 0.82927 0.89524 0.0
C1996 C 0.17027 0.83491 0.87876 0.0
C1997 C 0.23267 0.81756 0.92532 0.0
C1998 C 0.22424 0.796 0.91168 0.0
C1999 C 0.20352 0.80204 0.89703 0.0
C2000 C 0.23802 0.76766 0.91132 0.0
C2001 C 0.25368 0.81204 0.94208 0.0
C2002 C 0.26726 0.76547 0.90783 0.0
C2003 C 0.27993 0.73899 0.9051 0.0
C2004 C 0.2636 0.71405 0.90556 0.0
C2005 C 0.23446 0.71617 0.90985 0.0
C2006 C 0.22177 0.74277 0.91261 0.0
H2007 H 0.25067 0.82704 0.95488 0.0
H2008 H 0.25186 0.79004 0.94793 0.0
H2009 H 0.27547 0.81507 0.93614 0.0
H2010 H 0.28015 0.78433 0.90633 0.0
H2011 H 0.3024 0.73823 0.90178 0.0
H2012 H 0.33209 0.92162 0.68968 0.0
H2013 H 0.38008 0.94062 0.68928 0.0
H2014 H 0.37161 0.96012 0.6257 0.0
H2015 H 0.32353 0.94001 0.62588 0.0
H2016 H 0.42175 0.93559 0.63354 0.0
H2017 H 0.40449 0.02176 0.68906 0.0
H2018 H 0.39496 0.98783 0.69919 0.0
H2019 H 0.37559 1.00215 0.67802 0.0
C2020 C 0.34032 0.9302 0.67563 0.0
C2021 C 0.32403 0.92958 0.65783 0.0
C2022 C 0.36774 0.94122 0.67546 0.0
C2023 C 0.37931 0.95238 0.65758 0.0
C2024 C 0.36305 0.9518 0.63972 0.0
H2025 H 0.52779 0.05714 0.64904 0.0
H2026 H 0.48059 0.03728 0.65254 0.0
C2027 C 0.3356 0.94045 0.63984 0.0
C2028 C 0.4087 0.9637 0.6575 0.0
H2029 H 0.45261 0.0105 0.68138 0.0
C2030 C 0.42847 0.95208 0.64392 0.0
C2031 C 0.41744 0.98541 0.67094 0.0
C2032 C 0.39693 1.00021 0.68497 0.0
C2033 C 0.45675 0.96141 0.64348 0.0
C2034 C 0.46573 0.98236 0.65745 0.0
C2035 C 0.44589 0.99408 0.67094 0.0
C2036 C 0.49493 0.99418 0.65718 0.0
C2037 C 0.47645 0.94933 0.62764 0.0
C2038 C 0.51893 0.97676 0.6594 0.0
C2039 C 0.54624 0.98808 0.65722 0.0
C2040 C 0.54995 0.01708 0.65301 0.0
C2041 C 0.52585 0.03467 0.65212 0.0
C2042 C 0.49872 0.02334 0.65412 0.0
H2043 H 0.46461 0.93913 0.61506 0.0
H2044 H 0.49028 0.96609 0.62118 0.0
H2045 H 0.49015 0.93297 0.63471 0.0
H2046 H 0.51655 0.95431 0.66235 0.0
H2047 H 0.56431 0.97395 0.65809 0.0
loop_
_geom_bond_atom_site_label_1
_geom_bond_atom_site_label_2
_geom_bond_distance
_geom_bond_site_symmetry_2
_ccdc_geom_bond_type
Tb0 O3 2.453 . S
Tb0 O4 2.596 . S
Tb0 O5 2.374 . S
Tb0 O13 2.343 . S
Tb0 O15 2.353 . S
Tb0 O17 2.427 . S
Tb0 O18 2.513 . S
C1 O5 1.251 . S
C1 O7 1.263 . S
Tb2 O4 2.343 . S
Tb2 O7 2.353 . S
Tb2 O10 2.427 . S
Tb2 O11 2.513 . S
Tb2 O12 2.453 . S
Tb2 O13 2.596 . S
Tb2 O14 2.374 . S
O3 Tb0 2.453 . S
O3 C19 1.245 . S
O4 Tb0 2.596 . S
O4 Tb2 2.343 . S
O4 C19 1.259 . S
O5 Tb0 2.374 . S
O5 C1 1.251 . S
C6 O10 1.275 . S
C6 O11 1.246 . S
O7 C1 1.263 . S
O7 Tb2 2.353 . S
C8 O12 1.245 . S
C8 O13 1.259 . S
C9 O14 1.250 . S
C9 O15 1.263 . S
O10 Tb2 2.427 . S
O10 C6 1.275 . S
O11 Tb2 2.513 . S
O11 C6 1.246 . S
O12 Tb2 2.453 . S
O12 C8 1.245 . S
O13 Tb0 2.343 . S
O13 Tb2 2.596 . S
O13 C8 1.259 . S
O14 Tb2 2.374 . S
O14 C9 1.250 . S
O15 Tb0 2.353 . S
O15 C9 1.263 . S
C16 O17 1.275 . S
C16 O18 1.246 . S
O17 Tb0 2.427 . S
O17 C16 1.275 . S
O18 Tb0 2.513 . S
O18 C16 1.246 . S
C19 O3 1.245 . S
C19 O4 1.259 . S
Tb20 O23 2.453 . S
Tb20 O24 2.596 . S
Tb20 O25 2.374 . S
Tb20 O33 2.343 . S
Tb20 O35 2.353 . S
Tb20 O37 2.427 . S
Tb20 O38 2.513 . S
C21 O25 1.251 . S
C21 O27 1.263 . S
Tb22 O24 2.343 . S
Tb22 O27 2.353 . S
Tb22 O30 2.427 . S
Tb22 O31 2.513 . S
Tb22 O32 2.453 . S
Tb22 O33 2.596 . S
Tb22 O34 2.374 . S
O23 Tb20 2.453 . S
O23 C39 1.245 . S
O24 Tb20 2.596 . S
O24 Tb22 2.343 . S
O24 C39 1.259 . S
O25 Tb20 2.374 . S
O25 C21 1.251 . S
C26 O30 1.275 . S
C26 O31 1.246 . S
O27 C21 1.263 . S
O27 Tb22 2.353 . S
C28 O32 1.245 . S
C28 O33 1.259 . S
C29 O34 1.250 . S
C29 O35 1.263 . S
O30 Tb22 2.427 . S
O30 C26 1.275 . S
O31 Tb22 2.513 . S
O31 C26 1.246 . S
O32 Tb22 2.453 . S
O32 C28 1.245 . S
O33 Tb20 2.343 . S
O33 Tb22 2.596 . S
O33 C28 1.259 . S
O34 Tb22 2.374 . S
O34 C29 1.250 . S
O35 Tb20 2.353 . S
O35 C29 1.263 . S
C36 O37 1.275 . S
C36 O38 1.246 . S
O37 Tb20 2.427 . S
O37 C36 1.275 . S
O38 Tb20 2.513 . S
O38 C36 1.246 . S
C39 O23 1.245 . S
C39 O24 1.259 . S
Tb40 O43 2.453 . S
Tb40 O44 2.596 . S
Tb40 O45 2.374 . S
Tb40 O53 2.343 . S
Tb40 O55 2.353 . S
Tb40 O57 2.427 . S
Tb40 O58 2.513 . S
C41 O45 1.251 . S
C41 O47 1.263 . S
Tb42 O44 2.343 . S
Tb42 O47 2.353 . S
Tb42 O50 2.427 . S
Tb42 O51 2.513 . S
Tb42 O52 2.453 . S
Tb42 O53 2.596 . S
Tb42 O54 2.374 . S
O43 Tb40 2.453 . S
O43 C59 1.245 . S
O44 Tb40 2.596 . S
O44 Tb42 2.343 . S
O44 C59 1.259 . S
O45 Tb40 2.374 . S
O45 C41 1.251 . S
C46 O50 1.275 . S
C46 O51 1.246 . S
O47 C41 1.263 . S
O47 Tb42 2.353 . S
C48 O52 1.245 . S
C48 O53 1.259 . S
C49 O54 1.250 . S
C49 O55 1.263 . S
O50 Tb42 2.427 . S
O50 C46 1.275 . S
O51 Tb42 2.513 . S
O51 C46 1.246 . S
O52 Tb42 2.453 . S
O52 C48 1.245 . S
O53 Tb40 2.343 . S
O53 Tb42 2.596 . S
O53 C48 1.259 . S
O54 Tb42 2.374 . S
O54 C49 1.250 . S
O55 Tb40 2.353 . S
O55 C49 1.263 . S
C56 O57 1.275 . S
C56 O58 1.246 . S
O57 Tb40 2.427 . S
O57 C56 1.275 . S
O58 Tb40 2.513 . S
O58 C56 1.246 . S
C59 O43 1.245 . S
C59 O44 1.259 . S
Tb60 O63 2.453 . S
Tb60 O64 2.596 . S
Tb60 O65 2.374 . S
Tb60 O73 2.343 . S
Tb60 O75 2.353 . S
Tb60 O77 2.427 . S
Tb60 O78 2.513 . S
C61 O65 1.251 . S
C61 O67 1.263 . S
Tb62 O64 2.343 . S
Tb62 O67 2.353 . S
Tb62 O70 2.427 . S
Tb62 O71 2.513 . S
Tb62 O72 2.453 . S
Tb62 O73 2.596 . S
Tb62 O74 2.374 . S
O63 Tb60 2.453 . S
O63 C79 1.245 . S
O64 Tb60 2.596 . S
O64 Tb62 2.343 . S
O64 C79 1.259 . S
O65 Tb60 2.374 . S
O65 C61 1.251 . S
C66 O70 1.275 . S
C66 O71 1.246 . S
O67 C61 1.263 . S
O67 Tb62 2.353 . S
C68 O72 1.245 . S
C68 O73 1.259 . S
C69 O74 1.250 . S
C69 O75 1.263 . S
O70 Tb62 2.427 . S
O70 C66 1.275 . S
O71 Tb62 2.513 . S
O71 C66 1.246 . S
O72 Tb62 2.453 . S
O72 C68 1.245 . S
O73 Tb60 2.343 . S
O73 Tb62 2.596 . S
O73 C68 1.259 . S
O74 Tb62 2.374 . S
O74 C69 1.250 . S
O75 Tb60 2.353 . S
O75 C69 1.263 . S
C76 O77 1.275 . S
C76 O78 1.246 . S
O77 Tb60 2.427 . S
O77 C76 1.275 . S
O78 Tb60 2.513 . S
O78 C76 1.246 . S
C79 O63 1.245 . S
C79 O64 1.259 . S
Tb80 O83 2.453 . S
Tb80 O84 2.596 . S
Tb80 O85 2.374 . S
Tb80 O93 2.343 . S
Tb80 O95 2.353 . S
Tb80 O97 2.427 . S
Tb80 O98 2.513 . S
C81 O85 1.251 . S
C81 O87 1.263 . S
Tb82 O84 2.343 . S
Tb82 O87 2.353 . S
Tb82 O90 2.427 . S
Tb82 O91 2.513 . S
Tb82 O92 2.453 . S
Tb82 O93 2.596 . S
Tb82 O94 2.374 . S
O83 Tb80 2.453 . S
O83 C99 1.245 . S
O84 Tb80 2.596 . S
O84 Tb82 2.343 . S
O84 C99 1.259 . S
O85 Tb80 2.374 . S
O85 C81 1.251 . S
C86 O90 1.275 . S
C86 O91 1.246 . S
O87 C81 1.263 . S
O87 Tb82 2.353 . S
C88 O92 1.245 . S
C88 O93 1.259 . S
C89 O94 1.250 . S
C89 O95 1.263 . S
O90 Tb82 2.427 . S
O90 C86 1.275 . S
O91 Tb82 2.513 . S
O91 C86 1.246 . S
O92 Tb82 2.453 . S
O92 C88 1.245 . S
O93 Tb80 2.343 . S
O93 Tb82 2.596 . S
O93 C88 1.259 . S
O94 Tb82 2.374 . S
O94 C89 1.250 . S
O95 Tb80 2.353 . S
O95 C89 1.263 . S
C96 O97 1.275 . S
C96 O98 1.246 . S
O97 Tb80 2.427 . S
O97 C96 1.275 . S
O98 Tb80 2.513 . S
O98 C96 1.246 . S
C99 O83 1.245 . S
C99 O84 1.259 . S
Tb100 O103 2.453 . S
Tb100 O104 2.596 . S
Tb100 O105 2.374 . S
Tb100 O113 2.343 . S
Tb100 O115 2.353 . S
Tb100 O117 2.427 . S
Tb100 O118 2.513 . S
C101 O105 1.251 . S
C101 O107 1.263 . S
Tb102 O104 2.343 . S
Tb102 O107 2.353 . S
Tb102 O110 2.427 . S
Tb102 O111 2.513 . S
Tb102 O112 2.453 . S
Tb102 O113 2.596 . S
Tb102 O114 2.374 . S
O103 Tb100 2.453 . S
O103 C119 1.245 . S
O104 Tb100 2.596 . S
O104 Tb102 2.343 . S
O104 C119 1.259 . S
O105 Tb100 2.374 . S
O105 C101 1.251 . S
C106 O110 1.275 . S
C106 O111 1.246 . S
O107 C101 1.263 . S
O107 Tb102 2.353 . S
C108 O112 1.245 . S
C108 O113 1.259 . S
C109 O114 1.250 . S
C109 O115 1.263 . S
O110 Tb102 2.427 . S
O110 C106 1.275 . S
O111 Tb102 2.513 . S
O111 C106 1.246 . S
O112 Tb102 2.453 . S
O112 C108 1.245 . S
O113 Tb100 2.343 . S
O113 Tb102 2.596 . S
O113 C108 1.259 . S
O114 Tb102 2.374 . S
O114 C109 1.250 . S
O115 Tb100 2.353 . S
O115 C109 1.263 . S
C116 O117 1.275 . S
C116 O118 1.246 . S
O117 Tb100 2.427 . S
O117 C116 1.275 . S
O118 Tb100 2.513 . S
O118 C116 1.246 . S
C119 O103 1.245 . S
C119 O104 1.259 . S
Tb120 O123 2.453 . S
Tb120 O124 2.596 . S
Tb120 O125 2.374 . S
Tb120 O133 2.343 . S
Tb120 O135 2.353 . S
Tb120 O137 2.427 . S
Tb120 O138 2.513 . S
C121 O125 1.251 . S
C121 O127 1.263 . S
Tb122 O124 2.343 . S
Tb122 O127 2.353 . S
Tb122 O130 2.427 . S
Tb122 O131 2.513 . S
Tb122 O132 2.453 . S
Tb122 O133 2.596 . S
Tb122 O134 2.374 . S
O123 Tb120 2.453 . S
O123 C139 1.245 . S
O124 Tb120 2.596 . S
O124 Tb122 2.343 . S
O124 C139 1.259 . S
O125 Tb120 2.374 . S
O125 C121 1.251 . S
C126 O130 1.275 . S
C126 O131 1.246 . S
O127 C121 1.263 . S
O127 Tb122 2.353 . S
C128 O132 1.245 . S
C128 O133 1.259 . S
C129 O134 1.250 . S
C129 O135 1.263 . S
O130 Tb122 2.427 . S
O130 C126 1.275 . S
O131 Tb122 2.513 . S
O131 C126 1.246 . S
O132 Tb122 2.453 . S
O132 C128 1.245 . S
O133 Tb120 2.343 . S
O133 Tb122 2.596 . S
O133 C128 1.259 . S
O134 Tb122 2.374 . S
O134 C129 1.250 . S
O135 Tb120 2.353 . S
O135 C129 1.263 . S
C136 O137 1.275 . S
C136 O138 1.246 . S
O137 Tb120 2.427 . S
O137 C136 1.275 . S
O138 Tb120 2.513 . S
O138 C136 1.246 . S
C139 O123 1.245 . S
C139 O124 1.259 . S
Tb140 O143 2.453 . S
Tb140 O144 2.596 . S
Tb140 O145 2.374 . S
Tb140 O153 2.343 . S
Tb140 O155 2.353 . S
Tb140 O157 2.427 . S
Tb140 O158 2.513 . S
C141 O145 1.251 . S
C141 O147 1.263 . S
Tb142 O144 2.343 . S
Tb142 O147 2.353 . S
Tb142 O150 2.427 . S
Tb142 O151 2.513 . S
Tb142 O152 2.453 . S
Tb142 O153 2.596 . S
Tb142 O154 2.374 . S
O143 Tb140 2.453 . S
O143 C159 1.245 . S
O144 Tb140 2.596 . S
O144 Tb142 2.343 . S
O144 C159 1.259 . S
O145 Tb140 2.374 . S
O145 C141 1.251 . S
C146 O150 1.275 . S
C146 O151 1.246 . S
O147 C141 1.263 . S
O147 Tb142 2.353 . S
C148 O152 1.245 . S
C148 O153 1.259 . S
C149 O154 1.250 . S
C149 O155 1.263 . S
O150 Tb142 2.427 . S
O150 C146 1.275 . S
O151 Tb142 2.513 . S
O151 C146 1.246 . S
O152 Tb142 2.453 . S
O152 C148 1.245 . S
O153 Tb140 2.343 . S
O153 Tb142 2.596 . S
O153 C148 1.259 . S
O154 Tb142 2.374 . S
O154 C149 1.250 . S
O155 Tb140 2.353 . S
O155 C149 1.263 . S
C156 O157 1.275 . S
C156 O158 1.246 . S
O157 Tb140 2.427 . S
O157 C156 1.275 . S
O158 Tb140 2.513 . S
O158 C156 1.246 . S
C159 O143 1.245 . S
C159 O144 1.259 . S
Tb160 O163 2.453 . S
Tb160 O164 2.596 . S
Tb160 O165 2.374 . S
Tb160 O173 2.343 . S
Tb160 O175 2.353 . S
Tb160 O177 2.427 . S
Tb160 O178 2.513 . S
C161 O165 1.251 . S
C161 O167 1.263 . S
Tb162 O164 2.343 . S
Tb162 O167 2.353 . S
Tb162 O170 2.427 . S
Tb162 O171 2.513 . S
Tb162 O172 2.453 . S
Tb162 O173 2.596 . S
Tb162 O174 2.374 . S
O163 Tb160 2.453 . S
O163 C179 1.245 . S
O164 Tb160 2.596 . S
O164 Tb162 2.343 . S
O164 C179 1.259 . S
O165 Tb160 2.374 . S
O165 C161 1.251 . S
C166 O170 1.275 . S
C166 O171 1.246 . S
O167 C161 1.263 . S
O167 Tb162 2.353 . S
C168 O172 1.245 . S
C168 O173 1.259 . S
C169 O174 1.250 . S
C169 O175 1.263 . S
O170 Tb162 2.427 . S
O170 C166 1.275 . S
O171 Tb162 2.513 . S
O171 C166 1.246 . S
O172 Tb162 2.453 . S
O172 C168 1.245 . S
O173 Tb160 2.343 . S
O173 Tb162 2.596 . S
O173 C168 1.259 . S
O174 Tb162 2.374 . S
O174 C169 1.250 . S
O175 Tb160 2.353 . S
O175 C169 1.263 . S
C176 O177 1.275 . S
C176 O178 1.246 . S
O177 Tb160 2.427 . S
O177 C176 1.275 . S
O178 Tb160 2.513 . S
O178 C176 1.246 . S
C179 O163 1.245 . S
C179 O164 1.259 . S
Tb180 O183 2.453 . S
Tb180 O184 2.596 . S
Tb180 O185 2.374 . S
Tb180 O193 2.343 . S
Tb180 O195 2.353 . S
Tb180 O197 2.427 . S
Tb180 O198 2.513 . S
C181 O185 1.251 1_565 S
C181 O187 1.263 . S
Tb182 O184 2.343 1_565 S
Tb182 O187 2.353 . S
Tb182 O190 2.427 . S
Tb182 O191 2.513 . S
Tb182 O192 2.453 . S
Tb182 O193 2.596 1_565 S
Tb182 O194 2.374 1_565 S
O183 Tb180 2.453 . S
O183 C199 1.245 . S
O184 Tb180 2.596 . S
O184 Tb182 2.343 1_545 S
O184 C199 1.259 . S
O185 Tb180 2.374 . S
O185 C181 1.251 1_545 S
C186 O190 1.275 . S
C186 O191 1.246 . S
O187 C181 1.263 . S
O187 Tb182 2.353 . S
C188 O192 1.245 1_545 S
C188 O193 1.259 . S
C189 O194 1.250 . S
C189 O195 1.263 . S
O190 Tb182 2.427 . S
O190 C186 1.275 . S
O191 Tb182 2.513 . S
O191 C186 1.246 . S
O192 Tb182 2.453 . S
O192 C188 1.245 1_565 S
O193 Tb180 2.343 . S
O193 Tb182 2.596 1_545 S
O193 C188 1.259 . S
O194 Tb182 2.374 1_545 S
O194 C189 1.250 . S
O195 Tb180 2.353 . S
O195 C189 1.263 . S
C196 O197 1.275 . S
C196 O198 1.246 . S
O197 Tb180 2.427 . S
O197 C196 1.275 . S
O198 Tb180 2.513 . S
O198 C196 1.246 . S
C199 O183 1.245 . S
C199 O184 1.259 . S
Tb200 O203 2.453 . S
Tb200 O204 2.596 . S
Tb200 O205 2.374 . S
Tb200 O213 2.343 . S
Tb200 O215 2.353 . S
Tb200 O217 2.427 . S
Tb200 O218 2.513 . S
C201 O205 1.251 . S
C201 O207 1.263 . S
Tb202 O204 2.343 . S
Tb202 O207 2.353 . S
Tb202 O210 2.427 . S
Tb202 O211 2.513 . S
Tb202 O212 2.453 . S
Tb202 O213 2.596 . S
Tb202 O214 2.374 . S
O203 Tb200 2.453 . S
O203 C219 1.245 . S
O204 Tb200 2.596 . S
O204 Tb202 2.343 . S
O204 C219 1.259 . S
O205 Tb200 2.374 . S
O205 C201 1.251 . S
C206 O210 1.275 . S
C206 O211 1.246 . S
O207 C201 1.263 . S
O207 Tb202 2.353 . S
C208 O212 1.245 . S
C208 O213 1.259 . S
C209 O214 1.250 . S
C209 O215 1.263 . S
O210 Tb202 2.427 . S
O210 C206 1.275 . S
O211 Tb202 2.513 . S
O211 C206 1.246 . S
O212 Tb202 2.453 . S
O212 C208 1.245 . S
O213 Tb200 2.343 . S
O213 Tb202 2.596 . S
O213 C208 1.259 . S
O214 Tb202 2.374 . S
O214 C209 1.250 . S
O215 Tb200 2.353 . S
O215 C209 1.263 . S
C216 O217 1.275 . S
C216 O218 1.246 . S
O217 Tb200 2.427 . S
O217 C216 1.275 . S
O218 Tb200 2.513 . S
O218 C216 1.246 . S
C219 O203 1.245 . S
C219 O204 1.259 . S
Tb220 O223 2.453 . S
Tb220 O224 2.596 . S
Tb220 O225 2.374 . S
Tb220 O233 2.343 . S
Tb220 O235 2.353 . S
Tb220 O237 2.427 . S
Tb220 O238 2.513 . S
C221 O225 1.251 1_545 S
C221 O227 1.263 . S
Tb222 O224 2.343 1_545 S
Tb222 O227 2.353 . S
Tb222 O230 2.427 . S
Tb222 O231 2.513 . S
Tb222 O232 2.453 . S
Tb222 O233 2.596 1_545 S
Tb222 O234 2.374 1_545 S
O223 Tb220 2.453 . S
O223 C239 1.245 . S
O224 Tb220 2.596 . S
O224 Tb222 2.343 1_565 S
O224 C239 1.259 . S
O225 Tb220 2.374 . S
O225 C221 1.251 1_565 S
C226 O230 1.275 . S
C226 O231 1.246 . S
O227 C221 1.263 . S
O227 Tb222 2.353 . S
C228 O232 1.245 1_565 S
C228 O233 1.259 . S
C229 O234 1.250 . S
C229 O235 1.263 . S
O230 Tb222 2.427 . S
O230 C226 1.275 . S
O231 Tb222 2.513 . S
O231 C226 1.246 . S
O232 Tb222 2.453 . S
O232 C228 1.245 1_545 S
O233 Tb220 2.343 . S
O233 Tb222 2.596 1_565 S
O233 C228 1.259 . S
O234 Tb222 2.374 1_565 S
O234 C229 1.250 . S
O235 Tb220 2.353 . S
O235 C229 1.263 . S
C236 O237 1.275 . S
C236 O238 1.246 . S
O237 Tb220 2.427 . S
O237 C236 1.275 . S
O238 Tb220 2.513 . S
O238 C236 1.246 . S
C239 O223 1.245 . S
C239 O224 1.259 . S
Tb240 O243 2.453 . S
Tb240 O244 2.596 . S
Tb240 O245 2.374 . S
Tb240 O253 2.343 . S
Tb240 O255 2.353 . S
Tb240 O257 2.427 . S
Tb240 O258 2.513 . S
C241 O245 1.251 . S
C241 O247 1.263 . S
Tb242 O244 2.343 . S
Tb242 O247 2.353 . S
Tb242 O250 2.427 . S
Tb242 O251 2.513 . S
Tb242 O252 2.453 . S
Tb242 O253 2.596 . S
Tb242 O254 2.374 . S
O243 Tb240 2.453 . S
O243 C259 1.245 . S
O244 Tb240 2.596 . S
O244 Tb242 2.343 . S
O244 C259 1.259 . S
O245 Tb240 2.374 . S
O245 C241 1.251 . S
C246 O250 1.275 . S
C246 O251 1.246 . S
O247 C241 1.263 . S
O247 Tb242 2.353 . S
C248 O252 1.245 . S
C248 O253 1.259 . S
C249 O254 1.250 . S
C249 O255 1.263 . S
O250 Tb242 2.427 . S
O250 C246 1.275 . S
O251 Tb242 2.513 . S
O251 C246 1.246 . S
O252 Tb242 2.453 . S
O252 C248 1.245 . S
O253 Tb240 2.343 . S
O253 Tb242 2.596 . S
O253 C248 1.259 . S
O254 Tb242 2.374 . S
O254 C249 1.250 . S
O255 Tb240 2.353 . S
O255 C249 1.263 . S
C256 O257 1.275 . S
C256 O258 1.246 . S
O257 Tb240 2.427 . S
O257 C256 1.275 . S
O258 Tb240 2.513 . S
O258 C256 1.246 . S
C259 O243 1.245 . S
C259 O244 1.259 . S
Tb260 O263 2.453 . S
Tb260 O264 2.596 1_545 S
Tb260 O265 2.374 1_545 S
Tb260 O273 2.343 1_545 S
Tb260 O275 2.353 . S
Tb260 O277 2.427 . S
Tb260 O278 2.513 . S
C261 O265 1.251 . S
C261 O267 1.263 . S
Tb262 O264 2.343 . S
Tb262 O267 2.353 . S
Tb262 O270 2.427 . S
Tb262 O271 2.513 . S
Tb262 O272 2.453 . S
Tb262 O273 2.596 . S
Tb262 O274 2.374 . S
O263 Tb260 2.453 . S
O263 C279 1.245 1_545 S
O264 Tb260 2.596 1_565 S
O264 Tb262 2.343 . S
O264 C279 1.259 . S
O265 Tb260 2.374 1_565 S
O265 C261 1.251 . S
C266 O270 1.275 . S
C266 O271 1.246 . S
O267 C261 1.263 . S
O267 Tb262 2.353 . S
C268 O272 1.245 . S
C268 O273 1.259 . S
C269 O274 1.250 1_545 S
C269 O275 1.263 . S
O270 Tb262 2.427 . S
O270 C266 1.275 . S
O271 Tb262 2.513 . S
O271 C266 1.246 . S
O272 Tb262 2.453 . S
O272 C268 1.245 . S
O273 Tb260 2.343 1_565 S
O273 Tb262 2.596 . S
O273 C268 1.259 . S
O274 Tb262 2.374 . S
O274 C269 1.250 1_565 S
O275 Tb260 2.353 . S
O275 C269 1.263 . S
C276 O277 1.275 . S
C276 O278 1.246 . S
O277 Tb260 2.427 . S
O277 C276 1.275 . S
O278 Tb260 2.513 . S
O278 C276 1.246 . S
C279 O263 1.245 1_565 S
C279 O264 1.259 . S
Tb280 O283 2.453 . S
Tb280 O284 2.596 . S
Tb280 O285 2.374 . S
Tb280 O293 2.343 . S
Tb280 O295 2.353 . S
Tb280 O297 2.427 . S
Tb280 O298 2.513 . S
C281 O285 1.251 . S
C281 O287 1.263 . S
Tb282 O284 2.343 . S
Tb282 O287 2.353 . S
Tb282 O290 2.427 . S
Tb282 O291 2.513 . S
Tb282 O292 2.453 . S
Tb282 O293 2.596 . S
Tb282 O294 2.374 . S
O283 Tb280 2.453 . S
O283 C299 1.245 . S
O284 Tb280 2.596 . S
O284 Tb282 2.343 . S
O284 C299 1.259 . S
O285 Tb280 2.374 . S
O285 C281 1.251 . S
C286 O290 1.275 . S
C286 O291 1.246 . S
O287 C281 1.263 . S
O287 Tb282 2.353 . S
C288 O292 1.245 . S
C288 O293 1.259 . S
C289 O294 1.250 . S
C289 O295 1.263 . S
O290 Tb282 2.427 . S
O290 C286 1.275 . S
O291 Tb282 2.513 . S
O291 C286 1.246 . S
O292 Tb282 2.453 . S
O292 C288 1.245 . S
O293 Tb280 2.343 . S
O293 Tb282 2.596 . S
O293 C288 1.259 . S
O294 Tb282 2.374 . S
O294 C289 1.250 . S
O295 Tb280 2.353 . S
O295 C289 1.263 . S
C296 O297 1.275 . S
C296 O298 1.246 . S
O297 Tb280 2.427 . S
O297 C296 1.275 . S
O298 Tb280 2.513 . S
O298 C296 1.246 . S
C299 O283 1.245 . S
C299 O284 1.259 . S
Tb300 O303 2.453 . S
Tb300 O304 2.596 1_565 S
Tb300 O305 2.374 1_565 S
Tb300 O313 2.343 1_565 S
Tb300 O315 2.353 . S
Tb300 O317 2.427 . S
Tb300 O318 2.513 . S
C301 O305 1.251 . S
C301 O307 1.263 . S
Tb302 O304 2.343 . S
Tb302 O307 2.353 . S
Tb302 O310 2.427 . S
Tb302 O311 2.513 . S
Tb302 O312 2.453 . S
Tb302 O313 2.596 . S
Tb302 O314 2.374 . S
O303 Tb300 2.453 . S
O303 C319 1.245 1_565 S
O304 Tb300 2.596 1_545 S
O304 Tb302 2.343 . S
O304 C319 1.259 . S
O305 Tb300 2.374 1_545 S
O305 C301 1.251 . S
C306 O310 1.275 . S
C306 O311 1.246 . S
O307 C301 1.263 . S
O307 Tb302 2.353 . S
C308 O312 1.245 . S
C308 O313 1.259 . S
C309 O314 1.250 1_565 S
C309 O315 1.263 . S
O310 Tb302 2.427 . S
O310 C306 1.275 . S
O311 Tb302 2.513 . S
O311 C306 1.246 . S
O312 Tb302 2.453 . S
O312 C308 1.245 . S
O313 Tb300 2.343 1_545 S
O313 Tb302 2.596 . S
O313 C308 1.259 . S
O314 Tb302 2.374 . S
O314 C309 1.250 1_545 S
O315 Tb300 2.353 . S
O315 C309 1.263 . S
C316 O317 1.275 . S
C316 O318 1.246 . S
O317 Tb300 2.427 . S
O317 C316 1.275 . S
O318 Tb300 2.513 . S
O318 C316 1.246 . S
C319 O303 1.245 1_545 S
C319 O304 1.259 . S
H320 C328 0.929 . S
H321 C330 0.930 . S
H322 C332 0.930 . S
H323 C335 0.929 . S
H324 C338 0.930 . S
H325 C340 0.960 . S
H326 C340 0.960 . S
H327 C340 0.960 . S
C328 H320 0.929 . S
C328 C329 1.377 . S
C328 C330 1.384 . S
C329 C328 1.377 . S
C329 C335 1.390 . S
C330 H321 0.930 . S
C330 C328 1.384 . S
C330 C331 1.372 . S
C331 C330 1.372 . S
C331 C332 1.400 . S
C331 C336 1.490 . S
C332 H322 0.930 . S
C332 C331 1.400 . S
C332 C335 1.386 . S
H333 C349 0.930 . S
H334 C350 0.931 . S
C335 H323 0.929 . S
C335 C329 1.390 . S
C335 C332 1.386 . S
C336 C331 1.490 . S
C336 C338 1.395 . S
C336 C339 1.403 . S
H337 C343 0.930 . S
C338 H324 0.930 . S
C338 C336 1.395 . S
C338 C341 1.403 . S
C339 C336 1.403 . S
C339 C340 1.524 . S
C339 C343 1.400 . S
C340 H325 0.960 . S
C340 H326 0.960 . S
C340 H327 0.960 . S
C340 C339 1.524 . S
C341 C338 1.403 . S
C341 C342 1.392 . S
C341 C345 1.495 . S
C342 C341 1.392 . S
C342 C343 1.385 . S
C342 C344 1.478 . S
C343 H337 0.930 . S
C343 C339 1.400 . S
C343 C342 1.385 . S
C344 C342 1.478 . S
C344 C346 1.381 . S
C344 C350 1.383 . S
C345 C341 1.495 . S
C345 H351 0.959 . S
C345 H352 0.961 . S
C345 H353 0.960 . S
C346 C344 1.381 . S
C346 C347 1.394 . S
C346 H354 0.930 . S
C347 C346 1.394 . S
C347 C348 1.383 . S
C347 H355 0.929 . S
C348 C347 1.383 . S
C348 C349 1.377 . S
C349 H333 0.930 . S
C349 C348 1.377 . S
C349 C350 1.379 . S
C350 H334 0.931 . S
C350 C344 1.383 . S
C350 C349 1.379 . S
H351 C345 0.959 . S
H352 C345 0.961 . S
H353 C345 0.960 . S
H354 C346 0.930 . S
H355 C347 0.929 . S
H356 C364 0.929 . S
H357 C366 0.930 . S
H358 C368 0.930 . S
H359 C371 0.929 . S
H360 C374 0.930 . S
H361 C376 0.960 . S
H362 C376 0.960 . S
H363 C376 0.960 . S
C364 H356 0.929 . S
C364 C365 1.377 . S
C364 C366 1.384 . S
C365 C364 1.377 . S
C365 C371 1.390 . S
C366 H357 0.930 . S
C366 C364 1.384 . S
C366 C367 1.372 . S
C367 C366 1.372 . S
C367 C368 1.400 . S
C367 C372 1.490 . S
C368 H358 0.930 . S
C368 C367 1.400 . S
C368 C371 1.386 . S
H369 C385 0.930 . S
H370 C386 0.931 . S
C371 H359 0.929 . S
C371 C365 1.390 . S
C371 C368 1.386 . S
C372 C367 1.490 . S
C372 C374 1.395 . S
C372 C375 1.403 . S
H373 C379 0.930 . S
C374 H360 0.930 . S
C374 C372 1.395 . S
C374 C377 1.403 . S
C375 C372 1.403 . S
C375 C376 1.524 . S
C375 C379 1.400 . S
C376 H361 0.960 . S
C376 H362 0.960 . S
C376 H363 0.960 . S
C376 C375 1.524 . S
C377 C374 1.403 . S
C377 C378 1.392 . S
C377 C381 1.495 . S
C378 C377 1.392 . S
C378 C379 1.385 . S
C378 C380 1.478 . S
C379 H373 0.930 . S
C379 C375 1.400 . S
C379 C378 1.385 . S
C380 C378 1.478 . S
C380 C382 1.381 . S
C380 C386 1.383 . S
C381 C377 1.495 . S
C381 H387 0.959 . S
C381 H388 0.961 . S
C381 H389 0.960 . S
C382 C380 1.381 . S
C382 C383 1.394 . S
C382 H390 0.930 . S
C383 C382 1.394 . S
C383 C384 1.383 . S
C383 H391 0.929 . S
C384 C383 1.383 . S
C384 C385 1.377 . S
C385 H369 0.930 . S
C385 C384 1.377 . S
C385 C386 1.379 . S
C386 H370 0.931 . S
C386 C380 1.383 . S
C386 C385 1.379 . S
H387 C381 0.959 . S
H388 C381 0.961 . S
H389 C381 0.960 . S
H390 C382 0.930 . S
H391 C383 0.929 . S
H392 C400 0.929 . S
H393 C402 0.930 . S
H394 C404 0.930 . S
H395 C407 0.929 . S
H396 C410 0.930 . S
H397 C412 0.960 . S
H398 C412 0.960 . S
H399 C412 0.960 . S
C400 H392 0.929 . S
C400 C401 1.377 . S
C400 C402 1.384 . S
C401 C400 1.377 . S
C401 C407 1.390 . S
C402 H393 0.930 . S
C402 C400 1.384 . S
C402 C403 1.372 . S
C403 C402 1.372 . S
C403 C404 1.400 . S
C403 C408 1.490 . S
C404 H394 0.930 . S
C404 C403 1.400 . S
C404 C407 1.386 . S
H405 C421 0.930 . S
H406 C422 0.931 . S
C407 H395 0.929 . S
C407 C401 1.390 . S
C407 C404 1.386 . S
C408 C403 1.490 . S
C408 C410 1.395 . S
C408 C411 1.403 . S
H409 C415 0.930 . S
C410 H396 0.930 . S
C410 C408 1.395 . S
C410 C413 1.403 . S
C411 C408 1.403 . S
C411 C412 1.524 . S
C411 C415 1.400 . S
C412 H397 0.960 . S
C412 H398 0.960 . S
C412 H399 0.960 . S
C412 C411 1.524 . S
C413 C410 1.403 . S
C413 C414 1.392 . S
C413 C417 1.495 . S
C414 C413 1.392 . S
C414 C415 1.385 . S
C414 C416 1.478 . S
C415 H409 0.930 . S
C415 C411 1.400 . S
C415 C414 1.385 . S
C416 C414 1.478 . S
C416 C418 1.381 . S
C416 C422 1.383 . S
C417 C413 1.495 . S
C417 H423 0.959 . S
C417 H424 0.961 . S
C417 H425 0.960 . S
C418 C416 1.381 . S
C418 C419 1.394 . S
C418 H426 0.930 . S
C419 C418 1.394 . S
C419 C420 1.383 . S
C419 H427 0.929 . S
C420 C419 1.383 . S
C420 C421 1.377 . S
C421 H405 0.930 . S
C421 C420 1.377 . S
C421 C422 1.379 . S
C422 H406 0.931 . S
C422 C416 1.383 . S
C422 C421 1.379 . S
H423 C417 0.959 . S
H424 C417 0.961 . S
H425 C417 0.960 . S
H426 C418 0.930 . S
H427 C419 0.929 . S
H428 C436 0.929 . S
H429 C438 0.930 . S
H430 C440 0.930 . S
H431 C443 0.929 . S
H432 C446 0.930 . S
H433 C448 0.960 . S
H434 C448 0.960 . S
H435 C448 0.960 . S
C436 H428 0.929 . S
C436 C437 1.377 . S
C436 C438 1.384 . S
C437 C436 1.377 . S
C437 C443 1.390 . S
C438 H429 0.930 . S
C438 C436 1.384 . S
C438 C439 1.372 . S
C439 C438 1.372 . S
C439 C440 1.400 . S
C439 C444 1.490 . S
C440 H430 0.930 . S
C440 C439 1.400 . S
C440 C443 1.386 . S
H441 C457 0.930 . S
H442 C458 0.931 . S
C443 H431 0.929 . S
C443 C437 1.390 . S
C443 C440 1.386 . S
C444 C439 1.490 . S
C444 C446 1.395 1_556 S
C444 C447 1.403 1_655 S
H445 C451 0.930 . S
C446 H432 0.930 . S
C446 C444 1.395 1_554 S
C446 C449 1.403 . S
C447 C444 1.403 1_455 S
C447 C448 1.524 . S
C447 C451 1.400 . S
C448 H433 0.960 . S
C448 H434 0.960 . S
C448 H435 0.960 . S
C448 C447 1.524 . S
C449 C446 1.403 . S
C449 C450 1.392 1_655 S
C449 C453 1.495 . S
C450 C449 1.392 1_455 S
C450 C451 1.385 1_554 S
C450 C452 1.478 . S
C451 H445 0.930 . S
C451 C447 1.400 . S
C451 C450 1.385 1_556 S
C452 C450 1.478 . S
C452 C454 1.381 . S
C452 C458 1.383 . S
C453 C449 1.495 . S
C453 H459 0.959 . S
C453 H460 0.961 . S
C453 H461 0.960 . S
C454 C452 1.381 . S
C454 C455 1.394 . S
C454 H462 0.930 . S
C455 C454 1.394 . S
C455 C456 1.383 . S
C455 H463 0.929 . S
C456 C455 1.383 . S
C456 C457 1.377 . S
C457 H441 0.930 . S
C457 C456 1.377 . S
C457 C458 1.379 . S
C458 H442 0.931 . S
C458 C452 1.383 . S
C458 C457 1.379 . S
H459 C453 0.959 . S
H460 C453 0.961 . S
H461 C453 0.960 . S
H462 C454 0.930 . S
H463 C455 0.929 . S
H464 C472 0.929 . S
H465 C474 0.930 . S
H466 C476 0.930 . S
H467 C479 0.929 . S
H468 C482 0.930 . S
H469 C484 0.960 . S
H470 C484 0.960 . S
H471 C484 0.960 . S
C472 H464 0.929 . S
C472 C473 1.377 . S
C472 C474 1.384 . S
C473 C472 1.377 . S
C473 C479 1.390 . S
C474 H465 0.930 . S
C474 C472 1.384 . S
C474 C475 1.372 . S
C475 C474 1.372 . S
C475 C476 1.400 . S
C475 C480 1.490 . S
C476 H466 0.930 . S
C476 C475 1.400 . S
C476 C479 1.386 . S
H477 C493 0.930 . S
H478 C494 0.931 . S
C479 H467 0.929 . S
C479 C473 1.390 . S
C479 C476 1.386 . S
C480 C475 1.490 . S
C480 C482 1.395 . S
C480 C483 1.403 . S
H481 C487 0.930 . S
C482 H468 0.930 . S
C482 C480 1.395 . S
C482 C485 1.403 . S
C483 C480 1.403 . S
C483 C484 1.524 . S
C483 C487 1.400 . S
C484 H469 0.960 . S
C484 H470 0.960 . S
C484 H471 0.960 . S
C484 C483 1.524 . S
C485 C482 1.403 . S
C485 C486 1.392 . S
C485 C489 1.495 . S
C486 C485 1.392 . S
C486 C487 1.385 . S
C486 C488 1.478 . S
C487 H481 0.930 . S
C487 C483 1.400 . S
C487 C486 1.385 . S
C488 C486 1.478 . S
C488 C490 1.381 . S
C488 C494 1.383 . S
C489 C485 1.495 . S
C489 H495 0.959 . S
C489 H496 0.961 . S
C489 H497 0.960 . S
C490 C488 1.381 . S
C490 C491 1.394 . S
C490 H498 0.930 . S
C491 C490 1.394 . S
C491 C492 1.383 . S
C491 H499 0.929 . S
C492 C491 1.383 . S
C492 C493 1.377 . S
C493 H477 0.930 . S
C493 C492 1.377 . S
C493 C494 1.379 . S
C494 H478 0.931 . S
C494 C488 1.383 . S
C494 C493 1.379 . S
H495 C489 0.959 . S
H496 C489 0.961 . S
H497 C489 0.960 . S
H498 C490 0.930 . S
H499 C491 0.929 . S
H500 C508 0.929 . S
H501 C510 0.930 . S
H502 C512 0.930 . S
H503 C515 0.929 . S
H504 C518 0.930 . S
H505 C520 0.960 . S
H506 C520 0.960 . S
H507 C520 0.960 . S
C508 H500 0.929 . S
C508 C509 1.377 . S
C508 C510 1.384 . S
C509 C508 1.377 . S
C509 C515 1.390 . S
C510 H501 0.930 . S
C510 C508 1.384 . S
C510 C511 1.372 . S
C511 C510 1.372 . S
C511 C512 1.400 . S
C511 C516 1.490 . S
C512 H502 0.930 . S
C512 C511 1.400 . S
C512 C515 1.386 . S
H513 C529 0.930 . S
H514 C530 0.931 . S
C515 H503 0.929 . S
C515 C509 1.390 . S
C515 C512 1.386 . S
C516 C511 1.490 . S
C516 C518 1.395 . S
C516 C519 1.403 . S
H517 C523 0.930 . S
C518 H504 0.930 . S
C518 C516 1.395 . S
C518 C521 1.403 . S
C519 C516 1.403 . S
C519 C520 1.524 . S
C519 C523 1.400 . S
C520 H505 0.960 . S
C520 H506 0.960 . S
C520 H507 0.960 . S
C520 C519 1.524 . S
C521 C518 1.403 . S
C521 C522 1.392 . S
C521 C525 1.495 . S
C522 C521 1.392 . S
C522 C523 1.385 . S
C522 C524 1.478 . S
C523 H517 0.930 . S
C523 C519 1.400 . S
C523 C522 1.385 . S
C524 C522 1.478 . S
C524 C526 1.381 . S
C524 C530 1.383 . S
C525 C521 1.495 . S
C525 H531 0.959 . S
C525 H532 0.961 . S
C525 H533 0.960 . S
C526 C524 1.381 . S
C526 C527 1.394 . S
C526 H534 0.930 . S
C527 C526 1.394 . S
C527 C528 1.383 . S
C527 H535 0.929 . S
C528 C527 1.383 . S
C528 C529 1.377 . S
C529 H513 0.930 . S
C529 C528 1.377 . S
C529 C530 1.379 . S
C530 H514 0.931 . S
C530 C524 1.383 . S
C530 C529 1.379 . S
H531 C525 0.959 . S
H532 C525 0.961 . S
H533 C525 0.960 . S
H534 C526 0.930 . S
H535 C527 0.929 . S
H536 C544 0.929 . S
H537 C546 0.930 . S
H538 C548 0.930 . S
H539 C551 0.929 . S
H540 C554 0.930 . S
H541 C556 0.960 . S
H542 C556 0.960 . S
H543 C556 0.960 . S
C544 H536 0.929 . S
C544 C545 1.377 . S
C544 C546 1.384 . S
C545 C544 1.377 . S
C545 C551 1.390 . S
C546 H537 0.930 . S
C546 C544 1.384 . S
C546 C547 1.372 . S
C547 C546 1.372 . S
C547 C548 1.400 . S
C547 C552 1.490 . S
C548 H538 0.930 . S
C548 C547 1.400 . S
C548 C551 1.386 . S
H549 C565 0.930 . S
H550 C566 0.931 . S
C551 H539 0.929 . S
C551 C545 1.390 . S
C551 C548 1.386 . S
C552 C547 1.490 . S
C552 C554 1.395 1_564 S
C552 C555 1.403 1_655 S
H553 C559 0.930 . S
C554 H540 0.930 . S
C554 C552 1.395 1_546 S
C554 C557 1.403 . S
C555 C552 1.403 1_455 S
C555 C556 1.524 . S
C555 C559 1.400 1_554 S
C556 H541 0.960 . S
C556 H542 0.960 . S
C556 H543 0.960 . S
C556 C555 1.524 . S
C557 C554 1.403 . S
C557 C558 1.392 1_655 S
C557 C561 1.495 . S
C558 C557 1.392 1_455 S
C558 C559 1.385 1_545 S
C558 C560 1.478 . S
C559 H553 0.930 . S
C559 C555 1.400 1_556 S
C559 C558 1.385 1_565 S
C560 C558 1.478 . S
C560 C562 1.381 . S
C560 C566 1.383 . S
C561 C557 1.495 . S
C561 H567 0.959 . S
C561 H568 0.961 . S
C561 H569 0.960 . S
C562 C560 1.381 . S
C562 C563 1.394 . S
C562 H570 0.930 . S
C563 C562 1.394 . S
C563 C564 1.383 . S
C563 H571 0.929 . S
C564 C563 1.383 . S
C564 C565 1.377 . S
C565 H549 0.930 . S
C565 C564 1.377 . S
C565 C566 1.379 . S
C566 H550 0.931 . S
C566 C560 1.383 . S
C566 C565 1.379 . S
H567 C561 0.959 . S
H568 C561 0.961 . S
H569 C561 0.960 . S
H570 C562 0.930 . S
H571 C563 0.929 . S
H572 C580 0.929 . S
H573 C582 0.930 . S
H574 C584 0.930 . S
H575 C587 0.929 . S
H576 C590 0.930 . S
H577 C592 0.960 . S
H578 C592 0.960 . S
H579 C592 0.960 . S
C580 H572 0.929 . S
C580 C581 1.377 . S
C580 C582 1.384 . S
C581 C580 1.377 . S
C581 C587 1.390 . S
C582 H573 0.930 . S
C582 C580 1.384 . S
C582 C583 1.372 . S
C583 C582 1.372 . S
C583 C584 1.400 . S
C583 C588 1.490 . S
C584 H574 0.930 . S
C584 C583 1.400 . S
C584 C587 1.386 . S
H585 C601 0.930 . S
H586 C602 0.931 . S
C587 H575 0.929 . S
C587 C581 1.390 . S
C587 C584 1.386 . S
C588 C583 1.490 . S
C588 C590 1.395 . S
C588 C591 1.403 1_565 S
H589 C595 0.930 . S
C590 H576 0.930 . S
C590 C588 1.395 . S
C590 C593 1.403 . S
C591 C588 1.403 1_545 S
C591 C592 1.524 . S
C591 C595 1.400 . S
C592 H577 0.960 . S
C592 H578 0.960 . S
C592 H579 0.960 . S
C592 C591 1.524 . S
C593 C590 1.403 . S
C593 C594 1.392 1_565 S
C593 C597 1.495 . S
C594 C593 1.392 1_545 S
C594 C595 1.385 . S
C594 C596 1.478 . S
C595 H589 0.930 . S
C595 C591 1.400 . S
C595 C594 1.385 . S
C596 C594 1.478 . S
C596 C598 1.381 . S
C596 C602 1.383 . S
C597 C593 1.495 . S
C597 H603 0.959 . S
C597 H604 0.961 . S
C597 H605 0.960 . S
C598 C596 1.381 . S
C598 C599 1.394 . S
C598 H606 0.950 . S
C599 C598 1.394 . S
C599 C600 1.383 . S
C599 H607 0.929 . S
C600 C599 1.383 . S
C600 C601 1.377 . S
C601 H585 0.930 . S
C601 C600 1.377 . S
C601 C602 1.379 . S
C602 H586 0.931 . S
C602 C596 1.383 . S
C602 C601 1.379 . S
H603 C597 0.959 . S
H604 C597 0.961 . S
H605 C597 0.960 . S
H606 C598 0.950 . S
H607 C599 0.929 . S
H608 C616 0.929 . S
H609 C618 0.930 . S
H610 C620 0.930 . S
H611 C623 0.929 . S
H612 C626 0.930 . S
H613 C628 0.960 . S
H614 C628 0.960 1_556 S
H615 C628 0.960 1_556 S
C616 H608 0.929 . S
C616 C617 1.377 . S
C616 C618 1.384 . S
C617 C616 1.377 . S
C617 C623 1.390 . S
C618 H609 0.930 . S
C618 C616 1.384 . S
C618 C619 1.372 . S
C619 C618 1.372 . S
C619 C620 1.400 . S
C619 C624 1.490 1_556 S
C620 H610 0.930 . S
C620 C619 1.400 . S
C620 C623 1.386 . S
H621 C637 0.930 . S
H622 C638 0.931 . S
C623 H611 0.929 . S
C623 C617 1.390 . S
C623 C620 1.386 . S
C624 C619 1.490 1_554 S
C624 C626 1.395 . S
C624 C627 1.403 . S
H625 C631 0.930 . S
C626 H612 0.930 . S
C626 C624 1.395 . S
C626 C629 1.403 . S
C627 C624 1.403 . S
C627 C628 1.524 . S
C627 C631 1.400 . S
C628 H613 0.960 . S
C628 H614 0.960 1_554 S
C628 H615 0.960 1_554 S
C628 C627 1.524 . S
C629 C626 1.403 . S
C629 C630 1.392 . S
C629 C633 1.495 . S
C630 C629 1.392 . S
C630 C631 1.385 . S
C630 C632 1.478 . S
C631 H625 0.930 . S
C631 C627 1.400 . S
C631 C630 1.385 . S
C632 C630 1.478 . S
C632 C634 1.381 . S
C632 C638 1.383 . S
C633 C629 1.495 . S
C633 H639 0.959 . S
C633 H640 0.961 . S
C633 H641 0.960 . S
C634 C632 1.381 . S
C634 C635 1.394 . S
C634 H642 0.930 . S
C635 C634 1.394 . S
C635 C636 1.383 . S
C635 H643 0.929 . S
C636 C635 1.383 . S
C636 C637 1.377 . S
C637 H621 0.930 . S
C637 C636 1.377 . S
C637 C638 1.379 . S
C638 H622 0.931 . S
C638 C632 1.383 . S
C638 C637 1.379 . S
H639 C633 0.959 . S
H640 C633 0.961 . S
H641 C633 0.960 . S
H642 C634 0.930 . S
H643 C635 0.929 . S
H644 C652 0.929 . S
H645 C654 0.930 . S
H646 C656 0.930 . S
H647 C659 0.929 . S
H648 C662 0.930 . S
H649 C664 0.960 . S
H650 C664 0.960 . S
H651 C664 0.960 . S
C652 H644 0.929 . S
C652 C653 1.377 . S
C652 C654 1.384 . S
C653 C652 1.377 . S
C653 C659 1.390 . S
C654 H645 0.930 . S
C654 C652 1.384 . S
C654 C655 1.372 . S
C655 C654 1.372 . S
C655 C656 1.400 . S
C655 C660 1.490 . S
C656 H646 0.930 . S
C656 C655 1.400 . S
C656 C659 1.386 . S
H657 C673 0.930 . S
H658 C674 0.931 . S
C659 H647 0.929 . S
C659 C653 1.390 . S
C659 C656 1.386 . S
C660 C655 1.490 . S
C660 C662 1.395 . S
C660 C663 1.403 . S
H661 C667 0.930 . S
C662 H648 0.930 . S
C662 C660 1.395 . S
C662 C665 1.403 . S
C663 C660 1.403 . S
C663 C664 1.524 . S
C663 C667 1.400 . S
C664 H649 0.960 . S
C664 H650 0.960 . S
C664 H651 0.960 . S
C664 C663 1.524 . S
C665 C662 1.403 . S
C665 C666 1.392 . S
C665 C669 1.495 . S
C666 C665 1.392 . S
C666 C667 1.385 . S
C666 C668 1.478 . S
C667 H661 0.930 . S
C667 C663 1.400 . S
C667 C666 1.385 . S
C668 C666 1.478 . S
C668 C670 1.381 . S
C668 C674 1.383 . S
C669 C665 1.495 . S
C669 H675 0.959 . S
C669 H676 0.961 . S
C669 H677 0.960 . S
C670 C668 1.381 . S
C670 C671 1.394 . S
C670 H678 0.930 . S
C671 C670 1.394 . S
C671 C672 1.383 . S
C671 H679 0.929 . S
C672 C671 1.383 . S
C672 C673 1.377 . S
C673 H657 0.930 . S
C673 C672 1.377 . S
C673 C674 1.379 . S
C674 H658 0.931 . S
C674 C668 1.383 . S
C674 C673 1.379 . S
H675 C669 0.959 . S
H676 C669 0.961 . S
H677 C669 0.960 . S
H678 C670 0.930 . S
H679 C671 0.929 . S
H680 C688 0.929 . S
H681 C690 0.930 . S
H682 C692 0.930 . S
H683 C695 0.929 . S
H684 C698 0.930 . S
H685 C700 0.960 . S
H686 C700 0.960 . S
H687 C700 0.960 . S
C688 H680 0.929 . S
C688 C689 1.377 . S
C688 C690 1.384 . S
C689 C688 1.377 . S
C689 C695 1.390 . S
C690 H681 0.930 . S
C690 C688 1.384 . S
C690 C691 1.372 . S
C691 C690 1.372 . S
C691 C692 1.400 . S
C691 C696 1.490 . S
C692 H682 0.930 . S
C692 C691 1.400 . S
C692 C695 1.386 . S
H693 C709 0.930 . S
H694 C710 0.931 . S
C695 H683 0.929 . S
C695 C689 1.390 . S
C695 C692 1.386 . S
C696 C691 1.490 . S
C696 C698 1.395 . S
C696 C699 1.403 . S
H697 C703 0.930 . S
C698 H684 0.930 . S
C698 C696 1.395 . S
C698 C701 1.403 . S
C699 C696 1.403 . S
C699 C700 1.524 . S
C699 C703 1.400 . S
C700 H685 0.960 . S
C700 H686 0.960 . S
C700 H687 0.960 . S
C700 C699 1.524 . S
C701 C698 1.403 . S
C701 C702 1.392 . S
C701 C705 1.495 . S
C702 C701 1.392 . S
C702 C703 1.385 . S
C702 C704 1.478 . S
C703 H697 0.930 . S
C703 C699 1.400 . S
C703 C702 1.385 . S
C704 C702 1.478 . S
C704 C706 1.381 . S
C704 C710 1.383 . S
C705 C701 1.495 . S
C705 H711 0.959 . S
C705 H712 0.961 . S
C705 H713 0.960 . S
C706 C704 1.381 . S
C706 C707 1.394 . S
C706 H714 0.930 . S
C707 C706 1.394 . S
C707 C708 1.383 . S
C707 H715 0.929 . S
C708 C707 1.383 . S
C708 C709 1.377 . S
C709 H693 0.930 . S
C709 C708 1.377 . S
C709 C710 1.379 . S
C710 H694 0.931 . S
C710 C704 1.383 . S
C710 C709 1.379 . S
H711 C705 0.959 . S
H712 C705 0.961 . S
H713 C705 0.960 . S
H714 C706 0.930 . S
H715 C707 0.929 . S
H716 C724 0.929 . S
H717 C726 0.930 . S
H718 C728 0.930 . S
H719 C731 0.929 . S
H720 C734 0.930 . S
H721 C736 0.960 . S
H722 C736 0.960 . S
H723 C736 0.960 . S
C724 H716 0.929 . S
C724 C725 1.377 . S
C724 C726 1.384 . S
C725 C724 1.377 . S
C725 C731 1.390 . S
C726 H717 0.930 . S
C726 C724 1.384 . S
C726 C727 1.372 . S
C727 C726 1.372 . S
C727 C728 1.400 . S
C727 C732 1.490 . S
C728 H718 0.930 . S
C728 C727 1.400 . S
C728 C731 1.386 . S
H729 C745 0.930 . S
H730 C746 0.931 . S
C731 H719 0.929 . S
C731 C725 1.390 . S
C731 C728 1.386 . S
C732 C727 1.490 . S
C732 C734 1.395 . S
C732 C735 1.403 . S
H733 C739 0.930 . S
C734 H720 0.930 . S
C734 C732 1.395 . S
C734 C737 1.403 . S
C735 C732 1.403 . S
C735 C736 1.524 . S
C735 C739 1.400 . S
C736 H721 0.960 . S
C736 H722 0.960 . S
C736 H723 0.960 . S
C736 C735 1.524 . S
C737 C734 1.403 . S
C737 C738 1.392 . S
C737 C741 1.495 . S
C738 C737 1.392 . S
C738 C739 1.385 . S
C738 C740 1.478 . S
C739 H733 0.930 . S
C739 C735 1.400 . S
C739 C738 1.385 . S
C740 C738 1.478 . S
C740 C742 1.381 . S
C740 C746 1.383 . S
C741 C737 1.495 . S
C741 H747 0.959 . S
C741 H748 0.961 . S
C741 H749 0.960 . S
C742 C740 1.381 . S
C742 C743 1.394 . S
C742 H750 0.930 . S
C743 C742 1.394 . S
C743 C744 1.383 . S
C743 H751 0.929 . S
C744 C743 1.383 . S
C744 C745 1.377 . S
C745 H729 0.930 . S
C745 C744 1.377 . S
C745 C746 1.379 . S
C746 H730 0.931 . S
C746 C740 1.383 . S
C746 C745 1.379 . S
H747 C741 0.959 . S
H748 C741 0.961 . S
H749 C741 0.960 . S
H750 C742 0.930 . S
H751 C743 0.929 . S
H752 C760 0.929 . S
H753 C762 0.930 . S
H754 C764 0.930 . S
H755 C767 0.929 . S
H756 C770 0.930 . S
H757 C772 0.964 . S
H758 C772 0.954 1_554 S
H759 C772 0.955 1_554 S
C760 H752 0.929 . S
C760 C761 1.377 . S
C760 C762 1.384 . S
C761 C760 1.377 . S
C761 C767 1.390 . S
C762 H753 0.930 . S
C762 C760 1.384 . S
C762 C763 1.372 . S
C763 C762 1.372 . S
C763 C764 1.400 . S
C763 C768 1.490 1_554 S
C764 H754 0.930 . S
C764 C763 1.400 . S
C764 C767 1.386 . S
H765 C781 0.930 . S
H766 C782 0.931 . S
C767 H755 0.929 . S
C767 C761 1.390 . S
C767 C764 1.386 . S
C768 C763 1.490 1_556 S
C768 C770 1.395 . S
C768 C771 1.403 . S
H769 C775 0.930 . S
C770 H756 0.930 . S
C770 C768 1.395 . S
C770 C773 1.403 . S
C771 C768 1.403 . S
C771 C772 1.531 . S
C771 C775 1.400 . S
C772 H757 0.964 . S
C772 H758 0.954 1_556 S
C772 H759 0.955 1_556 S
C772 C771 1.531 . S
C773 C770 1.403 . S
C773 C774 1.392 . S
C773 C777 1.495 . S
C774 C773 1.392 . S
C774 C775 1.385 . S
C774 C776 1.478 . S
C775 H769 0.930 . S
C775 C771 1.400 . S
C775 C774 1.385 . S
C776 C774 1.478 . S
C776 C778 1.381 . S
C776 C782 1.383 . S
C777 C773 1.495 . S
C777 H783 0.959 . S
C777 H784 0.961 . S
C777 H785 0.960 . S
C778 C776 1.381 . S
C778 C779 1.394 . S
C778 H786 0.930 . S
C779 C778 1.394 . S
C779 C780 1.383 . S
C779 H787 0.929 . S
C780 C779 1.383 . S
C780 C781 1.377 . S
C781 H765 0.930 . S
C781 C780 1.377 . S
C781 C782 1.379 . S
C782 H766 0.931 . S
C782 C776 1.383 . S
C782 C781 1.379 . S
H783 C777 0.959 . S
H784 C777 0.961 . S
H785 C777 0.960 . S
H786 C778 0.930 . S
H787 C779 0.929 . S
H788 C796 0.929 . S
H789 C798 0.930 . S
H790 C800 0.930 . S
H791 C803 0.929 . S
H792 C806 0.930 . S
H793 C808 0.960 . S
H794 C808 0.960 . S
H795 C808 0.960 . S
C796 H788 0.929 . S
C796 C797 1.377 . S
C796 C798 1.384 . S
C797 C796 1.377 . S
C797 C803 1.390 . S
C798 H789 0.930 . S
C798 C796 1.384 . S
C798 C799 1.372 . S
C799 C798 1.372 . S
C799 C800 1.400 . S
C799 C804 1.490 . S
C800 H790 0.930 . S
C800 C799 1.400 . S
C800 C803 1.386 . S
H801 C817 0.930 . S
H802 C818 0.931 . S
C803 H791 0.929 . S
C803 C797 1.390 . S
C803 C800 1.386 . S
C804 C799 1.490 . S
C804 C806 1.395 . S
C804 C807 1.403 . S
H805 C811 0.930 . S
C806 H792 0.930 . S
C806 C804 1.395 . S
C806 C809 1.403 . S
C807 C804 1.403 . S
C807 C808 1.524 . S
C807 C811 1.400 . S
C808 H793 0.960 . S
C808 H794 0.960 . S
C808 H795 0.960 . S
C808 C807 1.524 . S
C809 C806 1.403 . S
C809 C810 1.392 . S
C809 C813 1.495 . S
C810 C809 1.392 . S
C810 C811 1.385 . S
C810 C812 1.478 . S
C811 H805 0.930 . S
C811 C807 1.400 . S
C811 C810 1.385 . S
C812 C810 1.478 . S
C812 C814 1.381 . S
C812 C818 1.383 . S
C813 C809 1.495 . S
C813 H819 0.959 . S
C813 H820 0.961 . S
C813 H821 0.960 . S
C814 C812 1.381 . S
C814 C815 1.394 . S
C814 H822 0.930 . S
C815 C814 1.394 . S
C815 C816 1.383 . S
C815 H823 0.929 . S
C816 C815 1.383 . S
C816 C817 1.377 . S
C817 H801 0.930 . S
C817 C816 1.377 . S
C817 C818 1.379 . S
C818 H802 0.931 . S
C818 C812 1.383 . S
C818 C817 1.379 . S
H819 C813 0.959 . S
H820 C813 0.961 . S
H821 C813 0.960 . S
H822 C814 0.930 . S
H823 C815 0.929 . S
H824 C832 0.929 . S
H825 C834 0.930 . S
H826 C836 0.930 . S
H827 C839 0.929 . S
H828 C842 0.930 . S
H829 C844 0.960 . S
H830 C844 0.960 . S
H831 C844 0.960 . S
C832 H824 0.929 . S
C832 C833 1.377 . S
C832 C834 1.384 . S
C833 C832 1.377 . S
C833 C839 1.390 . S
C834 H825 0.930 . S
C834 C832 1.384 . S
C834 C835 1.372 . S
C835 C834 1.372 . S
C835 C836 1.400 . S
C835 C840 1.490 . S
C836 H826 0.930 . S
C836 C835 1.400 . S
C836 C839 1.386 . S
H837 C853 0.930 . S
H838 C854 0.931 . S
C839 H827 0.929 . S
C839 C833 1.390 . S
C839 C836 1.386 . S
C840 C835 1.490 . S
C840 C842 1.395 . S
C840 C843 1.403 . S
H841 C847 0.930 . S
C842 H828 0.930 . S
C842 C840 1.395 . S
C842 C845 1.403 . S
C843 C840 1.403 . S
C843 C844 1.524 . S
C843 C847 1.400 . S
C844 H829 0.960 . S
C844 H830 0.960 . S
C844 H831 0.960 . S
C844 C843 1.524 . S
C845 C842 1.403 . S
C845 C846 1.392 . S
C845 C849 1.495 . S
C846 C845 1.392 . S
C846 C847 1.385 . S
C846 C848 1.478 . S
C847 H841 0.930 . S
C847 C843 1.400 . S
C847 C846 1.385 . S
C848 C846 1.478 . S
C848 C850 1.381 . S
C848 C854 1.383 . S
C849 C845 1.495 . S
C849 H855 0.959 . S
C849 H856 0.961 . S
C849 H857 0.960 . S
C850 C848 1.381 . S
C850 C851 1.394 . S
C850 H858 0.930 . S
C851 C850 1.394 . S
C851 C852 1.383 . S
C851 H859 0.929 . S
C852 C851 1.383 . S
C852 C853 1.377 . S
C853 H837 0.930 . S
C853 C852 1.377 . S
C853 C854 1.379 . S
C854 H838 0.931 . S
C854 C848 1.383 . S
C854 C853 1.379 . S
H855 C849 0.959 . S
H856 C849 0.961 . S
H857 C849 0.960 . S
H858 C850 0.930 . S
H859 C851 0.929 . S
H860 C868 0.929 . S
H861 C870 0.930 . S
H862 C872 0.930 . S
H863 C875 0.929 . S
H864 C878 0.930 . S
H865 C880 0.960 . S
H866 C880 0.960 . S
H867 C880 0.960 . S
C868 H860 0.929 . S
C868 C869 1.377 . S
C868 C870 1.384 . S
C869 C868 1.377 . S
C869 C875 1.390 . S
C870 H861 0.930 . S
C870 C868 1.384 . S
C870 C871 1.372 . S
C871 C870 1.372 . S
C871 C872 1.400 . S
C871 C876 1.490 . S
C872 H862 0.930 . S
C872 C871 1.400 . S
C872 C875 1.386 . S
H873 C889 0.930 . S
H874 C890 0.931 . S
C875 H863 0.929 . S
C875 C869 1.390 . S
C875 C872 1.386 . S
C876 C871 1.490 . S
C876 C878 1.395 . S
C876 C879 1.403 . S
H877 C883 0.930 . S
C878 H864 0.930 . S
C878 C876 1.395 . S
C878 C881 1.403 . S
C879 C876 1.403 . S
C879 C880 1.524 . S
C879 C883 1.400 . S
C880 H865 0.960 . S
C880 H866 0.960 . S
C880 H867 0.960 . S
C880 C879 1.524 . S
C881 C878 1.403 . S
C881 C882 1.392 . S
C881 C885 1.495 . S
C882 C881 1.392 . S
C882 C883 1.385 . S
C882 C884 1.478 . S
C883 H877 0.930 . S
C883 C879 1.400 . S
C883 C882 1.385 . S
C884 C882 1.478 . S
C884 C886 1.381 . S
C884 C890 1.383 . S
C885 C881 1.495 . S
C885 H891 0.959 . S
C885 H892 0.961 . S
C885 H893 0.960 . S
C886 C884 1.381 . S
C886 C887 1.394 . S
C886 H894 0.930 . S
C887 C886 1.394 . S
C887 C888 1.383 . S
C887 H895 0.929 . S
C888 C887 1.383 . S
C888 C889 1.377 . S
C889 H873 0.930 . S
C889 C888 1.377 . S
C889 C890 1.379 . S
C890 H874 0.931 . S
C890 C884 1.383 . S
C890 C889 1.379 . S
H891 C885 0.959 . S
H892 C885 0.961 . S
H893 C885 0.960 . S
H894 C886 0.930 . S
H895 C887 0.929 . S
H896 C904 0.929 . S
H897 C906 0.930 . S
H898 C908 0.930 . S
H899 C911 0.929 . S
H900 C914 0.930 . S
H901 C916 0.960 . S
H902 C916 0.960 . S
H903 C916 0.960 . S
C904 H896 0.929 . S
C904 C905 1.377 . S
C904 C906 1.384 . S
C905 C904 1.377 . S
C905 C911 1.390 . S
C906 H897 0.930 . S
C906 C904 1.384 . S
C906 C907 1.372 . S
C907 C906 1.372 . S
C907 C908 1.400 . S
C907 C912 1.490 . S
C908 H898 0.930 . S
C908 C907 1.400 . S
C908 C911 1.386 . S
H909 C925 0.930 . S
H910 C926 0.931 . S
C911 H899 0.929 . S
C911 C905 1.390 . S
C911 C908 1.386 . S
C912 C907 1.490 . S
C912 C914 1.395 . S
C912 C915 1.403 . S
H913 C919 0.930 . S
C914 H900 0.930 . S
C914 C912 1.395 . S
C914 C917 1.403 . S
C915 C912 1.403 . S
C915 C916 1.524 . S
C915 C919 1.400 . S
C916 H901 0.960 . S
C916 H902 0.960 . S
C916 H903 0.960 . S
C916 C915 1.524 . S
C917 C914 1.403 . S
C917 C918 1.392 . S
C917 C921 1.495 . S
C918 C917 1.392 . S
C918 C919 1.385 . S
C918 C920 1.478 . S
C919 H913 0.930 . S
C919 C915 1.400 . S
C919 C918 1.385 . S
C920 C918 1.478 . S
C920 C922 1.381 . S
C920 C926 1.383 . S
C921 C917 1.495 . S
C921 H927 0.959 . S
C921 H928 0.961 . S
C921 H929 0.960 . S
C922 C920 1.381 . S
C922 C923 1.394 . S
C922 H930 0.930 . S
C923 C922 1.394 . S
C923 C924 1.383 . S
C923 H931 0.929 . S
C924 C923 1.383 . S
C924 C925 1.377 . S
C925 H909 0.930 . S
C925 C924 1.377 . S
C925 C926 1.379 . S
C926 H910 0.931 . S
C926 C920 1.383 . S
C926 C925 1.379 . S
H927 C921 0.959 . S
H928 C921 0.961 . S
H929 C921 0.960 . S
H930 C922 0.930 . S
H931 C923 0.929 . S
H932 C940 0.929 . S
H933 C942 0.930 1_545 S
H934 C944 0.930 . S
H935 C947 0.929 . S
H936 C950 0.930 . S
H937 C952 0.960 . S
H938 C952 0.960 . S
H939 C952 0.960 . S
C940 H932 0.929 . S
C940 C941 1.377 1_545 S
C940 C942 1.384 1_545 S
C941 C940 1.377 1_565 S
C941 C947 1.390 . S
C942 H933 0.930 1_565 S
C942 C940 1.384 1_565 S
C942 C943 1.372 . S
C943 C942 1.372 . S
C943 C944 1.400 . S
C943 C948 1.490 . S
C944 H934 0.930 . S
C944 C943 1.400 . S
C944 C947 1.386 . S
H945 C961 0.930 . S
H946 C962 0.931 . S
C947 H935 0.929 . S
C947 C941 1.390 . S
C947 C944 1.386 . S
C948 C943 1.490 . S
C948 C950 1.395 . S
C948 C951 1.403 . S
H949 C955 0.930 . S
C950 H936 0.930 . S
C950 C948 1.395 . S
C950 C953 1.403 . S
C951 C948 1.403 . S
C951 C952 1.524 . S
C951 C955 1.400 . S
C952 H937 0.960 . S
C952 H938 0.960 . S
C952 H939 0.960 . S
C952 C951 1.524 . S
C953 C950 1.403 . S
C953 C954 1.392 . S
C953 C957 1.495 . S
C954 C953 1.392 . S
C954 C955 1.385 . S
C954 C956 1.478 . S
C955 H949 0.930 . S
C955 C951 1.400 . S
C955 C954 1.385 . S
C956 C954 1.478 . S
C956 C958 1.381 . S
C956 C962 1.383 . S
C957 C953 1.495 . S
C957 H963 0.959 . S
C957 H964 0.961 . S
C957 H965 0.960 . S
C958 C956 1.381 . S
C958 C959 1.394 . S
C958 H966 0.930 . S
C959 C958 1.394 . S
C959 C960 1.383 . S
C959 H967 0.929 . S
C960 C959 1.383 . S
C960 C961 1.377 . S
C961 H945 0.930 . S
C961 C960 1.377 . S
C961 C962 1.379 . S
C962 H946 0.931 . S
C962 C956 1.383 . S
C962 C961 1.379 . S
H963 C957 0.959 . S
H964 C957 0.961 . S
H965 C957 0.960 . S
H966 C958 0.930 . S
H967 C959 0.929 . S
H968 C976 0.929 . S
H969 C978 0.930 . S
H970 C980 0.930 . S
H971 C983 0.929 . S
H972 C986 0.930 . S
H973 C988 0.960 . S
H974 C988 0.960 . S
H975 C988 0.960 . S
C976 H968 0.929 . S
C976 C977 1.377 . S
C976 C978 1.384 . S
C977 C976 1.377 . S
C977 C983 1.390 . S
C978 H969 0.930 . S
C978 C976 1.384 . S
C978 C979 1.372 . S
C979 C978 1.372 . S
C979 C980 1.400 . S
C979 C984 1.490 . S
C980 H970 0.930 . S
C980 C979 1.400 . S
C980 C983 1.386 . S
H981 C997 0.930 . S
H982 C998 0.931 1_554 S
C983 H971 0.929 . S
C983 C977 1.390 . S
C983 C980 1.386 . S
C984 C979 1.490 . S
C984 C986 1.395 . S
C984 C987 1.403 . S
H985 C991 0.930 . S
C986 H972 0.930 . S
C986 C984 1.395 . S
C986 C989 1.403 . S
C987 C984 1.403 . S
C987 C988 1.524 . S
C987 C991 1.400 . S
C988 H973 0.960 . S
C988 H974 0.960 . S
C988 H975 0.960 . S
C988 C987 1.524 . S
C989 C986 1.403 . S
C989 C990 1.392 . S
C989 C993 1.495 . S
C990 C989 1.392 . S
C990 C991 1.385 . S
C990 C992 1.478 1_554 S
C991 H985 0.930 . S
C991 C987 1.400 . S
C991 C990 1.385 . S
C992 C990 1.478 1_556 S
C992 C994 1.381 . S
C992 C998 1.383 . S
C993 C989 1.495 . S
C993 H999 0.959 . S
C993 H1000 0.961 . S
C993 H1001 1.012 . S
C994 C992 1.381 . S
C994 C995 1.394 . S
C994 H1002 0.930 . S
C995 C994 1.394 . S
C995 C996 1.383 . S
C995 H1003 0.929 . S
C996 C995 1.383 . S
C996 C997 1.377 . S
C997 H981 0.930 . S
C997 C996 1.377 . S
C997 C998 1.379 . S
C998 H982 0.931 1_556 S
C998 C992 1.383 . S
C998 C997 1.379 . S
H999 C993 0.959 . S
H1000 C993 0.961 . S
H1001 C993 1.012 . S
H1002 C994 0.930 . S
H1003 C995 0.929 . S
H1004 C1012 0.929 . S
H1005 C1014 0.930 . S
H1006 C1016 0.930 . S
H1007 C1019 0.929 . S
H1008 C1022 0.930 . S
H1009 C1024 0.960 . S
H1010 C1024 0.960 . S
H1011 C1024 0.960 . S
C1012 H1004 0.929 . S
C1012 C1013 1.377 . S
C1012 C1014 1.384 . S
C1013 C1012 1.377 . S
C1013 C1019 1.390 . S
C1014 H1005 0.930 . S
C1014 C1012 1.384 . S
C1014 C1015 1.372 . S
C1015 C1014 1.372 . S
C1015 C1016 1.400 . S
C1015 C1020 1.490 . S
C1016 H1006 0.930 . S
C1016 C1015 1.400 . S
C1016 C1019 1.386 . S
H1017 C1033 0.930 . S
H1018 C1034 0.931 1_565 S
C1019 H1007 0.929 . S
C1019 C1013 1.390 . S
C1019 C1016 1.386 . S
C1020 C1015 1.490 . S
C1020 C1022 1.395 . S
C1020 C1023 1.403 . S
H1021 C1027 0.930 . S
C1022 H1008 0.930 . S
C1022 C1020 1.395 . S
C1022 C1025 1.403 . S
C1023 C1020 1.403 . S
C1023 C1024 1.524 . S
C1023 C1027 1.400 . S
C1024 H1009 0.960 . S
C1024 H1010 0.960 . S
C1024 H1011 0.960 . S
C1024 C1023 1.524 . S
C1025 C1022 1.403 . S
C1025 C1026 1.392 . S
C1025 C1029 1.495 . S
C1026 C1025 1.392 . S
C1026 C1027 1.385 . S
C1026 C1028 1.478 . S
C1027 H1021 0.930 . S
C1027 C1023 1.400 . S
C1027 C1026 1.385 . S
C1028 C1026 1.478 . S
C1028 C1030 1.381 . S
C1028 C1034 1.383 . S
C1029 C1025 1.495 . S
C1029 H1035 0.959 . S
C1029 H1036 0.961 . S
C1029 H1037 0.960 . S
C1030 C1028 1.381 . S
C1030 C1031 1.394 . S
C1030 H1038 0.930 . S
C1031 C1030 1.394 . S
C1031 C1032 1.383 . S
C1031 H1039 0.929 . S
C1032 C1031 1.383 . S
C1032 C1033 1.377 1_545 S
C1033 H1017 0.930 . S
C1033 C1032 1.377 1_565 S
C1033 C1034 1.379 1_565 S
C1034 H1018 0.931 1_545 S
C1034 C1028 1.383 . S
C1034 C1033 1.379 1_545 S
H1035 C1029 0.959 . S
H1036 C1029 0.961 . S
H1037 C1029 0.960 . S
H1038 C1030 0.930 . S
H1039 C1031 0.929 . S
H1040 C1048 0.929 . S
H1041 C1050 0.930 . S
H1042 C1052 0.930 . S
H1043 C1055 0.929 . S
H1044 C1058 0.930 . S
H1045 C1060 0.960 . S
H1046 C1060 0.960 . S
H1047 C1060 0.960 . S
C1048 H1040 0.929 . S
C1048 C1049 1.377 . S
C1048 C1050 1.384 . S
C1049 C1048 1.377 . S
C1049 C1055 1.390 . S
C1050 H1041 0.930 . S
C1050 C1048 1.384 . S
C1050 C1051 1.372 . S
C1051 C1050 1.372 . S
C1051 C1052 1.400 . S
C1051 C1056 1.490 . S
C1052 H1042 0.930 . S
C1052 C1051 1.400 . S
C1052 C1055 1.386 . S
H1053 C1069 0.930 . S
H1054 C1070 0.931 . S
C1055 H1043 0.929 . S
C1055 C1049 1.390 . S
C1055 C1052 1.386 . S
C1056 C1051 1.490 . S
C1056 C1058 1.395 . S
C1056 C1059 1.403 . S
H1057 C1063 0.930 . S
C1058 H1044 0.930 . S
C1058 C1056 1.395 . S
C1058 C1061 1.403 . S
C1059 C1056 1.403 . S
C1059 C1060 1.524 . S
C1059 C1063 1.400 . S
C1060 H1045 0.960 . S
C1060 H1046 0.960 . S
C1060 H1047 0.960 . S
C1060 C1059 1.524 . S
C1061 C1058 1.403 . S
C1061 C1062 1.392 . S
C1061 C1065 1.495 . S
C1062 C1061 1.392 . S
C1062 C1063 1.385 . S
C1062 C1064 1.478 . S
C1063 H1057 0.930 . S
C1063 C1059 1.400 . S
C1063 C1062 1.385 . S
C1064 C1062 1.478 . S
C1064 C1066 1.381 . S
C1064 C1070 1.383 . S
C1065 C1061 1.495 . S
C1065 H1071 0.959 . S
C1065 H1072 0.961 . S
C1065 H1073 0.960 . S
C1066 C1064 1.381 . S
C1066 C1067 1.394 . S
C1066 H1074 0.930 . S
C1067 C1066 1.394 . S
C1067 C1068 1.383 . S
C1067 H1075 0.929 . S
C1068 C1067 1.383 . S
C1068 C1069 1.377 . S
C1069 H1053 0.930 . S
C1069 C1068 1.377 . S
C1069 C1070 1.379 . S
C1070 H1054 0.931 . S
C1070 C1064 1.383 . S
C1070 C1069 1.379 . S
H1071 C1065 0.959 . S
H1072 C1065 0.961 . S
H1073 C1065 0.960 . S
H1074 C1066 0.930 . S
H1075 C1067 0.929 . S
H1076 C1084 0.929 . S
H1077 C1086 0.930 1_565 S
H1078 C1088 0.930 . S
H1079 C1091 0.929 . S
H1080 C1094 0.930 . S
H1081 C1096 0.960 . S
H1082 C1096 0.960 . S
H1083 C1096 0.960 . S
C1084 H1076 0.929 . S
C1084 C1085 1.377 1_565 S
C1084 C1086 1.384 1_565 S
C1085 C1084 1.377 1_545 S
C1085 C1091 1.390 . S
C1086 H1077 0.930 1_545 S
C1086 C1084 1.384 1_545 S
C1086 C1087 1.372 . S
C1087 C1086 1.372 . S
C1087 C1088 1.400 . S
C1087 C1092 1.490 . S
C1088 H1078 0.930 . S
C1088 C1087 1.400 . S
C1088 C1091 1.386 . S
H1089 C1105 0.930 . S
H1090 C1106 0.931 . S
C1091 H1079 0.929 . S
C1091 C1085 1.390 . S
C1091 C1088 1.386 . S
C1092 C1087 1.490 . S
C1092 C1094 1.395 . S
C1092 C1095 1.403 . S
H1093 C1099 0.930 . S
C1094 H1080 0.930 . S
C1094 C1092 1.395 . S
C1094 C1097 1.403 . S
C1095 C1092 1.403 . S
C1095 C1096 1.524 . S
C1095 C1099 1.400 . S
C1096 H1081 0.960 . S
C1096 H1082 0.960 . S
C1096 H1083 0.960 . S
C1096 C1095 1.524 . S
C1097 C1094 1.403 . S
C1097 C1098 1.392 . S
C1097 C1101 1.495 . S
C1098 C1097 1.392 . S
C1098 C1099 1.385 . S
C1098 C1100 1.478 . S
C1099 H1093 0.930 . S
C1099 C1095 1.400 . S
C1099 C1098 1.385 . S
C1100 C1098 1.478 . S
C1100 C1102 1.381 . S
C1100 C1106 1.383 . S
C1101 C1097 1.495 . S
C1101 H1107 0.959 1_545 S
C1101 H1108 0.961 . S
C1101 H1109 0.960 . S
C1102 C1100 1.381 . S
C1102 C1103 1.394 . S
C1102 H1110 0.930 . S
C1103 C1102 1.394 . S
C1103 C1104 1.383 . S
C1103 H1111 0.929 . S
C1104 C1103 1.383 . S
C1104 C1105 1.377 . S
C1105 H1089 0.930 . S
C1105 C1104 1.377 . S
C1105 C1106 1.379 . S
C1106 H1090 0.931 . S
C1106 C1100 1.383 . S
C1106 C1105 1.379 . S
H1107 C1101 0.959 1_565 S
H1108 C1101 0.961 . S
H1109 C1101 0.960 . S
H1110 C1102 0.930 . S
H1111 C1103 0.929 . S
H1112 C1120 0.929 . S
H1113 C1122 0.930 . S
H1114 C1124 0.930 . S
H1115 C1127 0.929 . S
H1116 C1130 0.930 . S
H1117 C1132 0.960 . S
H1118 C1132 0.960 . S
H1119 C1132 0.960 . S
C1120 H1112 0.929 . S
C1120 C1121 1.377 . S
C1120 C1122 1.384 . S
C1121 C1120 1.377 . S
C1121 C1127 1.390 . S
C1122 H1113 0.930 . S
C1122 C1120 1.384 . S
C1122 C1123 1.372 . S
C1123 C1122 1.372 . S
C1123 C1124 1.400 . S
C1123 C1128 1.490 1_554 S
C1124 H1114 0.930 . S
C1124 C1123 1.400 . S
C1124 C1127 1.386 . S
H1125 C1141 0.930 . S
H1126 C1142 0.931 . S
C1127 H1115 0.929 . S
C1127 C1121 1.390 . S
C1127 C1124 1.386 . S
C1128 C1123 1.490 1_556 S
C1128 C1130 1.395 . S
C1128 C1131 1.403 . S
H1129 C1135 0.930 . S
C1130 H1116 0.930 . S
C1130 C1128 1.395 . S
C1130 C1133 1.403 . S
C1131 C1128 1.403 . S
C1131 C1132 1.524 . S
C1131 C1135 1.400 . S
C1132 H1117 0.960 . S
C1132 H1118 0.960 . S
C1132 H1119 0.960 . S
C1132 C1131 1.524 . S
C1133 C1130 1.403 . S
C1133 C1134 1.392 . S
C1133 C1137 1.495 . S
C1134 C1133 1.392 . S
C1134 C1135 1.385 . S
C1134 C1136 1.478 . S
C1135 H1129 0.930 . S
C1135 C1131 1.400 . S
C1135 C1134 1.385 . S
C1136 C1134 1.478 . S
C1136 C1138 1.381 . S
C1136 C1142 1.383 . S
C1137 C1133 1.495 . S
C1137 H1143 0.959 . S
C1137 H1144 0.961 . S
C1137 H1145 0.960 . S
C1138 C1136 1.381 . S
C1138 C1139 1.394 . S
C1138 H1146 0.930 . S
C1139 C1138 1.394 . S
C1139 C1140 1.383 . S
C1139 H1147 0.929 . S
C1140 C1139 1.383 . S
C1140 C1141 1.377 . S
C1141 H1125 0.930 . S
C1141 C1140 1.377 . S
C1141 C1142 1.379 . S
C1142 H1126 0.931 . S
C1142 C1136 1.383 . S
C1142 C1141 1.379 . S
H1143 C1137 0.959 . S
H1144 C1137 0.961 . S
H1145 C1137 0.960 . S
H1146 C1138 0.930 . S
H1147 C1139 0.929 . S
H1148 C1156 0.929 . S
H1149 C1158 0.938 . S
H1150 C1160 0.930 . S
H1151 C1163 0.929 . S
H1152 C1166 0.930 . S
H1153 C1168 0.960 . S
H1154 C1168 0.960 . S
H1155 C1168 0.960 . S
C1156 H1148 0.929 . S
C1156 C1157 1.377 1_545 S
C1156 C1158 1.388 . S
C1157 C1156 1.377 1_565 S
C1157 C1163 1.390 . S
C1158 H1149 0.938 . S
C1158 C1156 1.388 . S
C1158 C1159 1.360 1_545 S
C1159 C1158 1.360 1_565 S
C1159 C1160 1.400 . S
C1159 C1164 1.490 . S
C1160 H1150 0.930 . S
C1160 C1159 1.400 . S
C1160 C1163 1.386 . S
H1161 C1177 0.930 . S
H1162 C1178 0.931 . S
C1163 H1151 0.929 . S
C1163 C1157 1.390 . S
C1163 C1160 1.386 . S
C1164 C1159 1.490 . S
C1164 C1166 1.395 . S
C1164 C1167 1.403 . S
H1165 C1171 0.930 . S
C1166 H1152 0.930 . S
C1166 C1164 1.395 . S
C1166 C1169 1.403 . S
C1167 C1164 1.403 . S
C1167 C1168 1.524 . S
C1167 C1171 1.400 . S
C1168 H1153 0.960 . S
C1168 H1154 0.960 . S
C1168 H1155 0.960 . S
C1168 C1167 1.524 . S
C1169 C1166 1.403 . S
C1169 C1170 1.392 . S
C1169 C1173 1.495 . S
C1170 C1169 1.392 . S
C1170 C1171 1.385 . S
C1170 C1172 1.478 . S
C1171 H1165 0.930 . S
C1171 C1167 1.400 . S
C1171 C1170 1.385 . S
C1172 C1170 1.478 . S
C1172 C1174 1.381 . S
C1172 C1178 1.383 . S
C1173 C1169 1.495 . S
C1173 H1179 0.959 . S
C1173 H1180 0.961 . S
C1173 H1181 0.960 . S
C1174 C1172 1.381 . S
C1174 C1175 1.394 . S
C1174 H1182 0.930 . S
C1175 C1174 1.394 . S
C1175 C1176 1.383 . S
C1175 H1183 0.929 . S
C1176 C1175 1.383 . S
C1176 C1177 1.377 . S
C1177 H1161 0.930 . S
C1177 C1176 1.377 . S
C1177 C1178 1.379 . S
C1178 H1162 0.931 . S
C1178 C1172 1.383 . S
C1178 C1177 1.379 . S
H1179 C1173 0.959 . S
H1180 C1173 0.961 . S
H1181 C1173 0.960 . S
H1182 C1174 0.930 . S
H1183 C1175 0.929 . S
H1184 C1192 0.929 . S
H1185 C1194 0.930 . S
H1186 C1196 0.930 . S
H1187 C1199 0.929 . S
H1188 C1202 0.930 . S
H1189 C1204 0.960 . S
H1190 C1204 0.960 . S
H1191 C1204 0.960 . S
C1192 H1184 0.929 . S
C1192 C1193 1.377 . S
C1192 C1194 1.384 . S
C1193 C1192 1.377 . S
C1193 C1199 1.390 . S
C1194 H1185 0.930 . S
C1194 C1192 1.384 . S
C1194 C1195 1.372 . S
C1195 C1194 1.372 . S
C1195 C1196 1.400 . S
C1195 C1200 1.490 . S
C1196 H1186 0.930 . S
C1196 C1195 1.400 . S
C1196 C1199 1.386 . S
H1197 C1213 0.930 . S
H1198 C1214 0.931 . S
C1199 H1187 0.929 . S
C1199 C1193 1.390 . S
C1199 C1196 1.386 . S
C1200 C1195 1.490 . S
C1200 C1202 1.395 . S
C1200 C1203 1.403 . S
H1201 C1207 0.930 . S
C1202 H1188 0.930 . S
C1202 C1200 1.395 . S
C1202 C1205 1.403 . S
C1203 C1200 1.403 . S
C1203 C1204 1.524 . S
C1203 C1207 1.400 . S
C1204 H1189 0.960 . S
C1204 H1190 0.960 . S
C1204 H1191 0.960 . S
C1204 C1203 1.524 . S
C1205 C1202 1.403 . S
C1205 C1206 1.392 . S
C1205 C1209 1.495 . S
C1206 C1205 1.392 . S
C1206 C1207 1.385 . S
C1206 C1208 1.478 . S
C1207 H1201 0.930 . S
C1207 C1203 1.400 . S
C1207 C1206 1.385 . S
C1208 C1206 1.478 . S
C1208 C1210 1.381 . S
C1208 C1214 1.383 . S
C1209 C1205 1.495 . S
C1209 H1215 0.959 . S
C1209 H1216 0.961 . S
C1209 H1217 0.960 . S
C1210 C1208 1.381 . S
C1210 C1211 1.394 . S
C1210 H1218 0.930 . S
C1211 C1210 1.394 . S
C1211 C1212 1.383 . S
C1211 H1219 0.929 . S
C1212 C1211 1.383 . S
C1212 C1213 1.377 . S
C1213 H1197 0.930 . S
C1213 C1212 1.377 . S
C1213 C1214 1.379 . S
C1214 H1198 0.931 . S
C1214 C1208 1.383 . S
C1214 C1213 1.379 . S
H1215 C1209 0.959 . S
H1216 C1209 0.961 . S
H1217 C1209 0.960 . S
H1218 C1210 0.930 . S
H1219 C1211 0.929 . S
H1220 C1228 0.929 . S
H1221 C1230 0.930 . S
H1222 C1232 0.930 . S
H1223 C1235 0.929 . S
H1224 C1238 0.930 . S
H1225 C1240 0.960 . S
H1226 C1240 0.960 . S
H1227 C1240 0.960 . S
C1228 H1220 0.929 . S
C1228 C1229 1.377 . S
C1228 C1230 1.384 . S
C1229 C1228 1.377 . S
C1229 C1235 1.390 . S
C1230 H1221 0.930 . S
C1230 C1228 1.384 . S
C1230 C1231 1.372 . S
C1231 C1230 1.372 . S
C1231 C1232 1.400 . S
C1231 C1236 1.490 . S
C1232 H1222 0.930 . S
C1232 C1231 1.400 . S
C1232 C1235 1.386 . S
H1233 C1249 0.930 . S
H1234 C1250 0.931 . S
C1235 H1223 0.929 . S
C1235 C1229 1.390 . S
C1235 C1232 1.386 . S
C1236 C1231 1.490 . S
C1236 C1238 1.395 . S
C1236 C1239 1.403 . S
H1237 C1243 0.930 . S
C1238 H1224 0.930 . S
C1238 C1236 1.395 . S
C1238 C1241 1.403 . S
C1239 C1236 1.403 . S
C1239 C1240 1.524 . S
C1239 C1243 1.400 . S
C1240 H1225 0.960 . S
C1240 H1226 0.960 . S
C1240 H1227 0.960 . S
C1240 C1239 1.524 . S
C1241 C1238 1.403 . S
C1241 C1242 1.392 . S
C1241 C1245 1.495 . S
C1242 C1241 1.392 . S
C1242 C1243 1.385 . S
C1242 C1244 1.478 . S
C1243 H1237 0.930 . S
C1243 C1239 1.400 . S
C1243 C1242 1.385 . S
C1244 C1242 1.478 . S
C1244 C1246 1.381 . S
C1244 C1250 1.383 . S
C1245 C1241 1.495 . S
C1245 H1251 0.959 . S
C1245 H1252 0.961 . S
C1245 H1253 0.960 . S
C1246 C1244 1.381 . S
C1246 C1247 1.394 . S
C1246 H1254 0.930 . S
C1247 C1246 1.394 . S
C1247 C1248 1.383 . S
C1247 H1255 0.929 . S
C1248 C1247 1.383 . S
C1248 C1249 1.377 . S
C1249 H1233 0.930 . S
C1249 C1248 1.377 . S
C1249 C1250 1.379 . S
C1250 H1234 0.931 . S
C1250 C1244 1.383 . S
C1250 C1249 1.379 . S
H1251 C1245 0.959 . S
H1252 C1245 0.961 . S
H1253 C1245 0.960 . S
H1254 C1246 0.930 . S
H1255 C1247 0.929 . S
H1256 C1264 0.929 . S
H1257 C1266 0.930 . S
H1258 C1268 0.930 . S
H1259 C1271 0.929 . S
H1260 C1274 0.930 . S
H1261 C1276 0.960 1_455 S
H1262 C1276 0.960 . S
H1263 C1276 0.960 . S
C1264 H1256 0.929 . S
C1264 C1265 1.377 . S
C1264 C1266 1.384 . S
C1265 C1264 1.377 . S
C1265 C1271 1.390 . S
C1266 H1257 0.930 . S
C1266 C1264 1.384 . S
C1266 C1267 1.372 . S
C1267 C1266 1.372 . S
C1267 C1268 1.400 . S
C1267 C1272 1.490 . S
C1268 H1258 0.930 . S
C1268 C1267 1.400 . S
C1268 C1271 1.386 . S
H1269 C1285 0.930 . S
H1270 C1286 0.931 . S
C1271 H1259 0.929 . S
C1271 C1265 1.390 . S
C1271 C1268 1.386 . S
C1272 C1267 1.490 . S
C1272 C1274 1.395 . S
C1272 C1275 1.403 . S
H1273 C1279 0.930 . S
C1274 H1260 0.930 . S
C1274 C1272 1.395 . S
C1274 C1277 1.403 1_655 S
C1275 C1272 1.403 . S
C1275 C1276 1.524 . S
C1275 C1279 1.400 1_655 S
C1276 H1261 0.960 1_655 S
C1276 H1262 0.960 . S
C1276 H1263 0.960 . S
C1276 C1275 1.524 . S
C1277 C1274 1.403 1_455 S
C1277 C1278 1.392 . S
C1277 C1281 1.495 . S
C1278 C1277 1.392 . S
C1278 C1279 1.385 . S
C1278 C1280 1.478 . S
C1279 H1273 0.930 . S
C1279 C1275 1.400 1_455 S
C1279 C1278 1.385 . S
C1280 C1278 1.478 . S
C1280 C1282 1.381 . S
C1280 C1286 1.383 . S
C1281 C1277 1.495 . S
C1281 H1287 0.959 1_455 S
C1281 H1288 0.961 . S
C1281 H1289 0.960 . S
C1282 C1280 1.381 . S
C1282 C1283 1.394 . S
C1282 H1290 0.930 . S
C1283 C1282 1.394 . S
C1283 C1284 1.383 . S
C1283 H1291 0.929 . S
C1284 C1283 1.383 . S
C1284 C1285 1.377 . S
C1285 H1269 0.930 . S
C1285 C1284 1.377 . S
C1285 C1286 1.379 . S
C1286 H1270 0.931 . S
C1286 C1280 1.383 . S
C1286 C1285 1.379 . S
H1287 C1281 0.959 1_655 S
H1288 C1281 0.961 . S
H1289 C1281 0.960 . S
H1290 C1282 0.930 . S
H1291 C1283 0.929 . S
H1292 C1300 0.929 . S
H1293 C1302 0.930 . S
H1294 C1304 0.930 1_455 S
H1295 C1307 0.929 . S
H1296 C1310 0.930 . S
H1297 C1312 0.960 . S
H1298 C1312 0.960 . S
H1299 C1312 0.960 . S
C1300 H1292 0.929 . S
C1300 C1301 1.377 . S
C1300 C1302 1.384 . S
C1301 C1300 1.377 . S
C1301 C1307 1.390 . S
C1302 H1293 0.930 . S
C1302 C1300 1.384 . S
C1302 C1303 1.372 . S
C1303 C1302 1.372 . S
C1303 C1304 1.400 . S
C1303 C1308 1.490 . S
C1304 H1294 0.930 1_655 S
C1304 C1303 1.400 . S
C1304 C1307 1.386 . S
H1305 C1321 0.930 . S
H1306 C1322 0.931 . S
C1307 H1295 0.929 . S
C1307 C1301 1.390 . S
C1307 C1304 1.386 . S
C1308 C1303 1.490 . S
C1308 C1310 1.395 . S
C1308 C1311 1.403 . S
H1309 C1315 0.930 . S
C1310 H1296 0.930 . S
C1310 C1308 1.395 . S
C1310 C1313 1.403 1_655 S
C1311 C1308 1.403 . S
C1311 C1312 1.524 . S
C1311 C1315 1.400 1_655 S
C1312 H1297 0.960 . S
C1312 H1298 0.960 . S
C1312 H1299 0.960 . S
C1312 C1311 1.524 . S
C1313 C1310 1.403 1_455 S
C1313 C1314 1.392 . S
C1313 C1317 1.495 . S
C1314 C1313 1.392 . S
C1314 C1315 1.385 . S
C1314 C1316 1.478 . S
C1315 H1309 0.930 . S
C1315 C1311 1.400 1_455 S
C1315 C1314 1.385 . S
C1316 C1314 1.478 . S
C1316 C1318 1.381 . S
C1316 C1322 1.383 . S
C1317 C1313 1.495 . S
C1317 H1323 0.959 . S
C1317 H1324 0.961 . S
C1317 H1325 0.960 . S
C1318 C1316 1.381 . S
C1318 C1319 1.394 . S
C1318 H1326 0.930 1_455 S
C1319 C1318 1.394 . S
C1319 C1320 1.383 . S
C1319 H1327 0.929 . S
C1320 C1319 1.383 . S
C1320 C1321 1.377 . S
C1321 H1305 0.930 . S
C1321 C1320 1.377 . S
C1321 C1322 1.379 . S
C1322 H1306 0.931 . S
C1322 C1316 1.383 . S
C1322 C1321 1.379 . S
H1323 C1317 0.959 . S
H1324 C1317 0.961 . S
H1325 C1317 0.960 . S
H1326 C1318 0.930 1_655 S
H1327 C1319 0.929 . S
H1328 C1336 0.929 . S
H1329 C1338 0.930 . S
H1330 C1340 0.930 . S
H1331 C1343 0.929 . S
H1332 C1346 0.930 . S
H1333 C1348 0.960 . S
H1334 C1348 0.960 . S
H1335 C1348 0.960 . S
C1336 H1328 0.929 . S
C1336 C1337 1.377 . S
C1336 C1338 1.384 . S
C1337 C1336 1.377 . S
C1337 C1343 1.390 . S
C1338 H1329 0.930 . S
C1338 C1336 1.384 . S
C1338 C1339 1.372 . S
C1339 C1338 1.372 . S
C1339 C1340 1.400 . S
C1339 C1344 1.490 . S
C1340 H1330 0.930 . S
C1340 C1339 1.400 . S
C1340 C1343 1.386 . S
H1341 C1357 0.930 . S
H1342 C1358 0.931 . S
C1343 H1331 0.929 . S
C1343 C1337 1.390 . S
C1343 C1340 1.386 . S
C1344 C1339 1.490 . S
C1344 C1346 1.395 . S
C1344 C1347 1.403 . S
H1345 C1351 0.930 . S
C1346 H1332 0.930 . S
C1346 C1344 1.395 . S
C1346 C1349 1.403 . S
C1347 C1344 1.403 . S
C1347 C1348 1.524 . S
C1347 C1351 1.400 . S
C1348 H1333 0.960 . S
C1348 H1334 0.960 . S
C1348 H1335 0.960 . S
C1348 C1347 1.524 . S
C1349 C1346 1.403 . S
C1349 C1350 1.392 . S
C1349 C1353 1.495 . S
C1350 C1349 1.392 . S
C1350 C1351 1.385 . S
C1350 C1352 1.478 . S
C1351 H1345 0.930 . S
C1351 C1347 1.400 . S
C1351 C1350 1.385 . S
C1352 C1350 1.478 . S
C1352 C1354 1.381 . S
C1352 C1358 1.383 . S
C1353 C1349 1.495 . S
C1353 H1359 0.959 . S
C1353 H1360 0.961 . S
C1353 H1361 0.960 . S
C1354 C1352 1.381 . S
C1354 C1355 1.394 . S
C1354 H1362 0.930 . S
C1355 C1354 1.394 . S
C1355 C1356 1.383 . S
C1355 H1363 0.929 . S
C1356 C1355 1.383 . S
C1356 C1357 1.377 . S
C1357 H1341 0.930 . S
C1357 C1356 1.377 . S
C1357 C1358 1.379 . S
C1358 H1342 0.931 . S
C1358 C1352 1.383 . S
C1358 C1357 1.379 . S
H1359 C1353 0.959 . S
H1360 C1353 0.961 . S
H1361 C1353 0.960 . S
H1362 C1354 0.930 . S
H1363 C1355 0.929 . S
H1364 C1372 0.929 . S
H1365 C1374 0.930 . S
H1366 C1376 0.930 . S
H1367 C1379 0.929 . S
H1368 C1382 0.930 . S
H1369 C1384 0.960 . S
H1370 C1384 0.960 . S
H1371 C1384 0.960 . S
C1372 H1364 0.929 . S
C1372 C1373 1.377 . S
C1372 C1374 1.384 . S
C1373 C1372 1.377 . S
C1373 C1379 1.390 . S
C1374 H1365 0.930 . S
C1374 C1372 1.384 . S
C1374 C1375 1.372 . S
C1375 C1374 1.372 . S
C1375 C1376 1.400 . S
C1375 C1380 1.490 . S
C1376 H1366 0.930 . S
C1376 C1375 1.400 . S
C1376 C1379 1.386 . S
H1377 C1393 0.930 . S
H1378 C1394 0.931 . S
C1379 H1367 0.929 . S
C1379 C1373 1.390 . S
C1379 C1376 1.386 . S
C1380 C1375 1.490 . S
C1380 C1382 1.395 . S
C1380 C1383 1.403 . S
H1381 C1387 0.930 . S
C1382 H1368 0.930 . S
C1382 C1380 1.395 . S
C1382 C1385 1.403 . S
C1383 C1380 1.403 . S
C1383 C1384 1.524 . S
C1383 C1387 1.400 . S
C1384 H1369 0.960 . S
C1384 H1370 0.960 . S
C1384 H1371 0.960 . S
C1384 C1383 1.524 . S
C1385 C1382 1.403 . S
C1385 C1386 1.392 . S
C1385 C1389 1.495 . S
C1386 C1385 1.392 . S
C1386 C1387 1.385 . S
C1386 C1388 1.478 . S
C1387 H1381 0.930 . S
C1387 C1383 1.400 . S
C1387 C1386 1.385 . S
C1388 C1386 1.478 . S
C1388 C1390 1.381 . S
C1388 C1394 1.383 . S
C1389 C1385 1.495 . S
C1389 H1395 0.959 . S
C1389 H1396 0.961 . S
C1389 H1397 0.960 . S
C1390 C1388 1.381 . S
C1390 C1391 1.394 . S
C1390 H1398 0.930 . S
C1391 C1390 1.394 . S
C1391 C1392 1.383 . S
C1391 H1399 0.929 . S
C1392 C1391 1.383 . S
C1392 C1393 1.377 . S
C1393 H1377 0.930 . S
C1393 C1392 1.377 . S
C1393 C1394 1.379 . S
C1394 H1378 0.931 . S
C1394 C1388 1.383 . S
C1394 C1393 1.379 . S
H1395 C1389 0.959 . S
H1396 C1389 0.961 . S
H1397 C1389 0.960 . S
H1398 C1390 0.930 . S
H1399 C1391 0.929 . S
H1400 C1408 0.929 . S
H1401 C1410 0.930 . S
H1402 C1412 0.930 . S
H1403 C1415 0.929 . S
H1404 C1418 0.930 . S
H1405 C1420 0.960 1_655 S
H1406 C1420 0.960 . S
H1407 C1420 0.960 . S
C1408 H1400 0.929 . S
C1408 C1409 1.377 . S
C1408 C1410 1.384 . S
C1409 C1408 1.377 . S
C1409 C1415 1.390 . S
C1410 H1401 0.930 . S
C1410 C1408 1.384 . S
C1410 C1411 1.372 . S
C1411 C1410 1.372 . S
C1411 C1412 1.400 . S
C1411 C1416 1.490 . S
C1412 H1402 0.930 . S
C1412 C1411 1.400 . S
C1412 C1415 1.386 . S
H1413 C1429 0.930 . S
H1414 C1430 0.931 . S
C1415 H1403 0.929 . S
C1415 C1409 1.390 . S
C1415 C1412 1.386 . S
C1416 C1411 1.490 . S
C1416 C1418 1.395 . S
C1416 C1419 1.403 . S
H1417 C1423 0.930 . S
C1418 H1404 0.930 . S
C1418 C1416 1.395 . S
C1418 C1421 1.403 1_455 S
C1419 C1416 1.403 . S
C1419 C1420 1.524 . S
C1419 C1423 1.400 1_455 S
C1420 H1405 0.960 1_455 S
C1420 H1406 0.960 . S
C1420 H1407 0.960 . S
C1420 C1419 1.524 . S
C1421 C1418 1.403 1_655 S
C1421 C1422 1.392 . S
C1421 C1425 1.495 . S
C1422 C1421 1.392 . S
C1422 C1423 1.385 . S
C1422 C1424 1.478 . S
C1423 H1417 0.930 . S
C1423 C1419 1.400 1_655 S
C1423 C1422 1.385 . S
C1424 C1422 1.478 . S
C1424 C1426 1.381 . S
C1424 C1430 1.383 . S
C1425 C1421 1.495 . S
C1425 H1431 0.959 1_655 S
C1425 H1432 0.961 . S
C1425 H1433 0.960 . S
C1426 C1424 1.381 . S
C1426 C1427 1.394 . S
C1426 H1434 0.930 . S
C1427 C1426 1.394 . S
C1427 C1428 1.383 . S
C1427 H1435 0.929 . S
C1428 C1427 1.383 . S
C1428 C1429 1.377 . S
C1429 H1413 0.930 . S
C1429 C1428 1.377 . S
C1429 C1430 1.379 . S
C1430 H1414 0.931 . S
C1430 C1424 1.383 . S
C1430 C1429 1.379 . S
H1431 C1425 0.959 1_455 S
H1432 C1425 0.961 . S
H1433 C1425 0.960 . S
H1434 C1426 0.930 . S
H1435 C1427 0.929 . S
H1436 C1444 0.929 . S
H1437 C1446 0.930 . S
H1438 C1448 0.930 . S
H1439 C1451 0.929 . S
H1440 C1454 0.930 . S
H1441 C1456 0.960 . S
H1442 C1456 0.960 . S
H1443 C1456 0.960 . S
C1444 H1436 0.929 . S
C1444 C1445 1.377 . S
C1444 C1446 1.384 . S
C1445 C1444 1.377 . S
C1445 C1451 1.390 . S
C1446 H1437 0.930 . S
C1446 C1444 1.384 . S
C1446 C1447 1.372 . S
C1447 C1446 1.372 . S
C1447 C1448 1.400 . S
C1447 C1452 1.490 . S
C1448 H1438 0.930 . S
C1448 C1447 1.400 . S
C1448 C1451 1.386 . S
H1449 C1465 0.930 . S
H1450 C1466 0.931 . S
C1451 H1439 0.929 . S
C1451 C1445 1.390 . S
C1451 C1448 1.386 . S
C1452 C1447 1.490 . S
C1452 C1454 1.395 . S
C1452 C1455 1.403 1_455 S
H1453 C1459 0.930 . S
C1454 H1440 0.930 . S
C1454 C1452 1.395 . S
C1454 C1457 1.403 . S
C1455 C1452 1.403 1_655 S
C1455 C1456 1.524 . S
C1455 C1459 1.400 . S
C1456 H1441 0.960 . S
C1456 H1442 0.960 . S
C1456 H1443 0.960 . S
C1456 C1455 1.524 . S
C1457 C1454 1.403 . S
C1457 C1458 1.392 1_455 S
C1457 C1461 1.495 . S
C1458 C1457 1.392 1_655 S
C1458 C1459 1.385 . S
C1458 C1460 1.478 . S
C1459 H1453 0.930 . S
C1459 C1455 1.400 . S
C1459 C1458 1.385 . S
C1460 C1458 1.478 . S
C1460 C1462 1.381 . S
C1460 C1466 1.383 . S
C1461 C1457 1.495 . S
C1461 H1467 0.959 . S
C1461 H1468 0.961 . S
C1461 H1469 0.960 . S
C1462 C1460 1.381 . S
C1462 C1463 1.394 . S
C1462 H1470 0.930 . S
C1463 C1462 1.394 . S
C1463 C1464 1.383 . S
C1463 H1471 0.929 . S
C1464 C1463 1.383 . S
C1464 C1465 1.377 . S
C1465 H1449 0.930 . S
C1465 C1464 1.377 . S
C1465 C1466 1.379 . S
C1466 H1450 0.931 . S
C1466 C1460 1.383 . S
C1466 C1465 1.379 . S
H1467 C1461 0.959 . S
H1468 C1461 0.961 . S
H1469 C1461 0.960 . S
H1470 C1462 0.930 . S
H1471 C1463 0.929 . S
H1472 C1480 0.929 . S
H1473 C1482 0.930 . S
H1474 C1484 0.930 . S
H1475 C1487 0.929 . S
H1476 C1490 0.930 . S
H1477 C1492 0.960 . S
H1478 C1492 0.960 . S
H1479 C1492 0.960 . S
C1480 H1472 0.929 . S
C1480 C1481 1.377 . S
C1480 C1482 1.384 . S
C1481 C1480 1.377 . S
C1481 C1487 1.390 . S
C1482 H1473 0.930 . S
C1482 C1480 1.384 . S
C1482 C1483 1.372 . S
C1483 C1482 1.372 . S
C1483 C1484 1.400 . S
C1483 C1488 1.490 . S
C1484 H1474 0.930 . S
C1484 C1483 1.400 . S
C1484 C1487 1.386 . S
H1485 C1501 0.930 . S
H1486 C1502 0.931 . S
C1487 H1475 0.929 . S
C1487 C1481 1.390 . S
C1487 C1484 1.386 . S
C1488 C1483 1.490 . S
C1488 C1490 1.395 . S
C1488 C1491 1.403 . S
H1489 C1495 0.930 . S
C1490 H1476 0.930 . S
C1490 C1488 1.395 . S
C1490 C1493 1.403 . S
C1491 C1488 1.403 . S
C1491 C1492 1.524 . S
C1491 C1495 1.400 . S
C1492 H1477 0.960 . S
C1492 H1478 0.960 . S
C1492 H1479 0.960 . S
C1492 C1491 1.524 . S
C1493 C1490 1.403 . S
C1493 C1494 1.392 . S
C1493 C1497 1.495 . S
C1494 C1493 1.392 . S
C1494 C1495 1.385 . S
C1494 C1496 1.478 . S
C1495 H1489 0.930 . S
C1495 C1491 1.400 . S
C1495 C1494 1.385 . S
C1496 C1494 1.478 . S
C1496 C1498 1.381 . S
C1496 C1502 1.383 . S
C1497 C1493 1.495 . S
C1497 H1503 0.959 . S
C1497 H1504 0.961 . S
C1497 H1505 0.960 . S
C1498 C1496 1.381 . S
C1498 C1499 1.394 . S
C1498 H1506 0.930 . S
C1499 C1498 1.394 . S
C1499 C1500 1.383 . S
C1499 H1507 0.929 . S
C1500 C1499 1.383 . S
C1500 C1501 1.377 . S
C1501 H1485 0.930 . S
C1501 C1500 1.377 . S
C1501 C1502 1.379 . S
C1502 H1486 0.931 . S
C1502 C1496 1.383 . S
C1502 C1501 1.379 . S
H1503 C1497 0.959 . S
H1504 C1497 0.961 . S
H1505 C1497 0.960 . S
H1506 C1498 0.930 . S
H1507 C1499 0.929 . S
H1508 C1516 0.929 . S
H1509 C1518 0.930 . S
H1510 C1520 0.930 . S
H1511 C1523 0.929 . S
H1512 C1526 0.930 . S
H1513 C1528 0.960 . S
H1514 C1528 0.960 . S
H1515 C1528 0.960 . S
C1516 H1508 0.929 . S
C1516 C1517 1.377 . S
C1516 C1518 1.384 . S
C1517 C1516 1.377 . S
C1517 C1523 1.390 . S
C1518 H1509 0.930 . S
C1518 C1516 1.384 . S
C1518 C1519 1.372 . S
C1519 C1518 1.372 . S
C1519 C1520 1.400 . S
C1519 C1524 1.490 . S
C1520 H1510 0.930 . S
C1520 C1519 1.400 . S
C1520 C1523 1.386 . S
H1521 C1537 0.930 . S
H1522 C1538 0.931 . S
C1523 H1511 0.929 . S
C1523 C1517 1.390 . S
C1523 C1520 1.386 . S
C1524 C1519 1.490 . S
C1524 C1526 1.395 . S
C1524 C1527 1.403 . S
H1525 C1531 0.930 . S
C1526 H1512 0.930 . S
C1526 C1524 1.395 . S
C1526 C1529 1.403 . S
C1527 C1524 1.403 . S
C1527 C1528 1.524 . S
C1527 C1531 1.400 . S
C1528 H1513 0.960 . S
C1528 H1514 0.960 . S
C1528 H1515 0.960 . S
C1528 C1527 1.524 . S
C1529 C1526 1.403 . S
C1529 C1530 1.392 . S
C1529 C1533 1.495 . S
C1530 C1529 1.392 . S
C1530 C1531 1.385 . S
C1530 C1532 1.478 . S
C1531 H1525 0.930 . S
C1531 C1527 1.400 . S
C1531 C1530 1.385 . S
C1532 C1530 1.478 . S
C1532 C1534 1.381 . S
C1532 C1538 1.383 . S
C1533 C1529 1.495 . S
C1533 H1539 0.959 . S
C1533 H1540 0.961 . S
C1533 H1541 0.960 . S
C1534 C1532 1.381 . S
C1534 C1535 1.394 . S
C1534 H1542 0.930 . S
C1535 C1534 1.394 . S
C1535 C1536 1.383 . S
C1535 H1543 0.929 . S
C1536 C1535 1.383 . S
C1536 C1537 1.377 . S
C1537 H1521 0.930 . S
C1537 C1536 1.377 . S
C1537 C1538 1.379 . S
C1538 H1522 0.931 . S
C1538 C1532 1.383 . S
C1538 C1537 1.379 . S
H1539 C1533 0.959 . S
H1540 C1533 0.961 . S
H1541 C1533 0.960 . S
H1542 C1534 0.930 . S
H1543 C1535 0.929 . S
H1544 C1552 0.929 . S
H1545 C1554 0.930 . S
H1546 C1556 0.930 . S
H1547 C1559 0.929 . S
H1548 C1562 0.930 . S
H1549 C1564 0.960 . S
H1550 C1564 0.960 . S
H1551 C1564 0.960 . S
C1552 H1544 0.929 . S
C1552 C1553 1.377 . S
C1552 C1554 1.384 . S
C1553 C1552 1.377 . S
C1553 C1559 1.390 . S
C1554 H1545 0.930 . S
C1554 C1552 1.384 . S
C1554 C1555 1.372 . S
C1555 C1554 1.372 . S
C1555 C1556 1.400 . S
C1555 C1560 1.490 . S
C1556 H1546 0.930 . S
C1556 C1555 1.400 . S
C1556 C1559 1.386 . S
H1557 C1573 0.930 . S
H1558 C1574 0.931 . S
C1559 H1547 0.929 . S
C1559 C1553 1.390 . S
C1559 C1556 1.386 . S
C1560 C1555 1.490 . S
C1560 C1562 1.395 . S
C1560 C1563 1.403 . S
H1561 C1567 0.930 . S
C1562 H1548 0.930 . S
C1562 C1560 1.395 . S
C1562 C1565 1.403 . S
C1563 C1560 1.403 . S
C1563 C1564 1.524 . S
C1563 C1567 1.400 . S
C1564 H1549 0.960 . S
C1564 H1550 0.960 . S
C1564 H1551 0.960 . S
C1564 C1563 1.524 . S
C1565 C1562 1.403 . S
C1565 C1566 1.392 . S
C1565 C1569 1.495 . S
C1566 C1565 1.392 . S
C1566 C1567 1.385 . S
C1566 C1568 1.478 . S
C1567 H1561 0.930 . S
C1567 C1563 1.400 . S
C1567 C1566 1.385 . S
C1568 C1566 1.478 . S
C1568 C1570 1.381 . S
C1568 C1574 1.383 . S
C1569 C1565 1.495 . S
C1569 H1575 0.959 . S
C1569 H1576 0.961 . S
C1569 H1577 0.960 . S
C1570 C1568 1.381 . S
C1570 C1571 1.394 . S
C1570 H1578 0.930 . S
C1571 C1570 1.394 . S
C1571 C1572 1.383 . S
C1571 H1579 0.929 . S
C1572 C1571 1.383 . S
C1572 C1573 1.377 . S
C1573 H1557 0.930 . S
C1573 C1572 1.377 . S
C1573 C1574 1.379 . S
C1574 H1558 0.931 . S
C1574 C1568 1.383 . S
C1574 C1573 1.379 . S
H1575 C1569 0.959 . S
H1576 C1569 0.961 . S
H1577 C1569 0.960 . S
H1578 C1570 0.930 . S
H1579 C1571 0.929 . S
H1580 C1588 0.929 . S
H1581 C1590 0.916 1_455 S
H1582 C1592 0.930 1_455 S
H1583 C1595 0.929 . S
H1584 C1598 0.930 . S
H1585 C1600 0.960 . S
H1586 C1600 0.960 . S
H1587 C1600 0.960 . S
C1588 H1580 0.929 . S
C1588 C1589 1.377 . S
C1588 C1590 1.409 . S
C1589 C1588 1.377 . S
C1589 C1595 1.390 . S
C1590 H1581 0.916 1_655 S
C1590 C1588 1.409 . S
C1590 C1591 1.361 1_655 S
C1591 C1590 1.361 1_455 S
C1591 C1592 1.400 1_455 S
C1591 C1596 1.490 . S
C1592 H1582 0.930 1_655 S
C1592 C1591 1.400 1_655 S
C1592 C1595 1.386 . S
H1593 C1609 0.930 . S
H1594 C1610 0.931 . S
C1595 H1583 0.929 . S
C1595 C1589 1.390 . S
C1595 C1592 1.386 . S
C1596 C1591 1.490 . S
C1596 C1598 1.395 . S
C1596 C1599 1.403 . S
H1597 C1603 0.930 . S
C1598 H1584 0.930 . S
C1598 C1596 1.395 . S
C1598 C1601 1.403 . S
C1599 C1596 1.403 . S
C1599 C1600 1.524 . S
C1599 C1603 1.400 . S
C1600 H1585 0.960 . S
C1600 H1586 0.960 . S
C1600 H1587 0.960 . S
C1600 C1599 1.524 . S
C1601 C1598 1.403 . S
C1601 C1602 1.392 . S
C1601 C1605 1.495 . S
C1602 C1601 1.392 . S
C1602 C1603 1.385 . S
C1602 C1604 1.478 . S
C1603 H1597 0.930 . S
C1603 C1599 1.400 . S
C1603 C1602 1.385 . S
C1604 C1602 1.478 . S
C1604 C1606 1.381 . S
C1604 C1610 1.383 . S
C1605 C1601 1.495 . S
C1605 H1611 0.959 . S
C1605 H1612 0.961 . S
C1605 H1613 0.960 . S
C1606 C1604 1.381 . S
C1606 C1607 1.394 . S
C1606 H1614 0.930 . S
C1607 C1606 1.394 . S
C1607 C1608 1.383 . S
C1607 H1615 0.929 . S
C1608 C1607 1.383 . S
C1608 C1609 1.377 . S
C1609 H1593 0.930 . S
C1609 C1608 1.377 . S
C1609 C1610 1.379 . S
C1610 H1594 0.931 . S
C1610 C1604 1.383 . S
C1610 C1609 1.379 . S
H1611 C1605 0.959 . S
H1612 C1605 0.961 . S
H1613 C1605 0.960 . S
H1614 C1606 0.930 . S
H1615 C1607 0.929 . S
H1616 C1624 0.929 . S
H1617 C1626 0.930 . S
H1618 C1628 0.930 . S
H1619 C1631 0.929 . S
H1620 C1634 0.930 . S
H1621 C1636 0.960 . S
H1622 C1636 0.960 . S
H1623 C1636 0.960 . S
C1624 H1616 0.929 . S
C1624 C1625 1.377 . S
C1624 C1626 1.384 . S
C1625 C1624 1.377 . S
C1625 C1631 1.390 . S
C1626 H1617 0.930 . S
C1626 C1624 1.384 . S
C1626 C1627 1.372 . S
C1627 C1626 1.372 . S
C1627 C1628 1.400 . S
C1627 C1632 1.490 . S
C1628 H1618 0.930 . S
C1628 C1627 1.400 . S
C1628 C1631 1.386 . S
H1629 C1645 0.930 . S
H1630 C1646 0.931 . S
C1631 H1619 0.929 . S
C1631 C1625 1.390 . S
C1631 C1628 1.386 . S
C1632 C1627 1.490 . S
C1632 C1634 1.395 . S
C1632 C1635 1.403 . S
H1633 C1639 0.930 . S
C1634 H1620 0.930 . S
C1634 C1632 1.395 . S
C1634 C1637 1.403 . S
C1635 C1632 1.403 . S
C1635 C1636 1.524 . S
C1635 C1639 1.400 . S
C1636 H1621 0.960 . S
C1636 H1622 0.960 . S
C1636 H1623 0.960 . S
C1636 C1635 1.524 . S
C1637 C1634 1.403 . S
C1637 C1638 1.392 . S
C1637 C1641 1.495 . S
C1638 C1637 1.392 . S
C1638 C1639 1.385 . S
C1638 C1640 1.478 . S
C1639 H1633 0.930 . S
C1639 C1635 1.400 . S
C1639 C1638 1.385 . S
C1640 C1638 1.478 . S
C1640 C1642 1.381 . S
C1640 C1646 1.383 . S
C1641 C1637 1.495 . S
C1641 H1647 0.959 . S
C1641 H1648 0.961 . S
C1641 H1649 0.960 . S
C1642 C1640 1.381 . S
C1642 C1643 1.394 . S
C1642 H1650 0.930 . S
C1643 C1642 1.394 . S
C1643 C1644 1.383 . S
C1643 H1651 0.929 . S
C1644 C1643 1.383 . S
C1644 C1645 1.377 . S
C1645 H1629 0.930 . S
C1645 C1644 1.377 . S
C1645 C1646 1.379 . S
C1646 H1630 0.931 . S
C1646 C1640 1.383 . S
C1646 C1645 1.379 . S
H1647 C1641 0.959 . S
H1648 C1641 0.961 . S
H1649 C1641 0.960 . S
H1650 C1642 0.930 . S
H1651 C1643 0.929 . S
H1652 C1660 0.929 . S
H1653 C1662 0.930 . S
H1654 C1664 0.930 . S
H1655 C1667 0.929 . S
H1656 C1670 0.930 . S
H1657 C1672 0.960 . S
H1658 C1672 0.960 . S
H1659 C1672 0.960 . S
C1660 H1652 0.929 . S
C1660 C1661 1.377 . S
C1660 C1662 1.384 . S
C1661 C1660 1.377 . S
C1661 C1667 1.390 . S
C1662 H1653 0.930 . S
C1662 C1660 1.384 . S
C1662 C1663 1.372 . S
C1663 C1662 1.372 . S
C1663 C1664 1.400 . S
C1663 C1668 1.490 . S
C1664 H1654 0.930 . S
C1664 C1663 1.400 . S
C1664 C1667 1.386 . S
H1665 C1681 0.930 . S
H1666 C1682 0.931 . S
C1667 H1655 0.929 . S
C1667 C1661 1.390 . S
C1667 C1664 1.386 . S
C1668 C1663 1.490 . S
C1668 C1670 1.395 . S
C1668 C1671 1.403 . S
H1669 C1675 0.930 . S
C1670 H1656 0.930 . S
C1670 C1668 1.395 . S
C1670 C1673 1.403 . S
C1671 C1668 1.403 . S
C1671 C1672 1.524 . S
C1671 C1675 1.400 . S
C1672 H1657 0.960 . S
C1672 H1658 0.960 . S
C1672 H1659 0.960 . S
C1672 C1671 1.524 . S
C1673 C1670 1.403 . S
C1673 C1674 1.392 . S
C1673 C1677 1.495 . S
C1674 C1673 1.392 . S
C1674 C1675 1.385 . S
C1674 C1676 1.478 . S
C1675 H1669 0.930 . S
C1675 C1671 1.400 . S
C1675 C1674 1.385 . S
C1676 C1674 1.478 . S
C1676 C1678 1.381 . S
C1676 C1682 1.383 . S
C1677 C1673 1.495 . S
C1677 H1683 0.959 . S
C1677 H1684 0.961 . S
C1677 H1685 0.960 . S
C1678 C1676 1.381 . S
C1678 C1679 1.394 . S
C1678 H1686 0.930 . S
C1679 C1678 1.394 . S
C1679 C1680 1.383 . S
C1679 H1687 0.929 . S
C1680 C1679 1.383 . S
C1680 C1681 1.377 . S
C1681 H1665 0.930 . S
C1681 C1680 1.377 . S
C1681 C1682 1.379 . S
C1682 H1666 0.931 . S
C1682 C1676 1.383 . S
C1682 C1681 1.379 . S
H1683 C1677 0.959 . S
H1684 C1677 0.961 . S
H1685 C1677 0.960 . S
H1686 C1678 0.930 . S
H1687 C1679 0.929 . S
H1688 C1696 0.929 . S
H1689 C1698 0.930 . S
H1690 C1700 0.930 . S
H1691 C1703 0.929 . S
H1692 C1706 0.930 . S
H1693 C1708 0.960 . S
H1694 C1708 0.960 . S
H1695 C1708 0.960 . S
C1696 H1688 0.929 . S
C1696 C1697 1.377 . S
C1696 C1698 1.384 . S
C1697 C1696 1.377 . S
C1697 C1703 1.390 . S
C1698 H1689 0.930 . S
C1698 C1696 1.384 . S
C1698 C1699 1.372 . S
C1699 C1698 1.372 . S
C1699 C1700 1.400 . S
C1699 C1704 1.490 . S
C1700 H1690 0.930 . S
C1700 C1699 1.400 . S
C1700 C1703 1.386 . S
H1701 C1717 0.930 . S
H1702 C1718 0.931 . S
C1703 H1691 0.929 . S
C1703 C1697 1.390 . S
C1703 C1700 1.386 . S
C1704 C1699 1.490 . S
C1704 C1706 1.395 . S
C1704 C1707 1.403 . S
H1705 C1711 0.930 . S
C1706 H1692 0.930 . S
C1706 C1704 1.395 . S
C1706 C1709 1.403 . S
C1707 C1704 1.403 . S
C1707 C1708 1.524 . S
C1707 C1711 1.400 . S
C1708 H1693 0.960 . S
C1708 H1694 0.960 . S
C1708 H1695 0.960 . S
C1708 C1707 1.524 . S
C1709 C1706 1.403 . S
C1709 C1710 1.392 . S
C1709 C1713 1.495 . S
C1710 C1709 1.392 . S
C1710 C1711 1.385 . S
C1710 C1712 1.478 . S
C1711 H1705 0.930 . S
C1711 C1707 1.400 . S
C1711 C1710 1.385 . S
C1712 C1710 1.478 . S
C1712 C1714 1.381 . S
C1712 C1718 1.383 . S
C1713 C1709 1.495 . S
C1713 H1719 0.959 . S
C1713 H1720 0.961 . S
C1713 H1721 0.960 . S
C1714 C1712 1.381 . S
C1714 C1715 1.394 . S
C1714 H1722 0.930 . S
C1715 C1714 1.394 . S
C1715 C1716 1.383 . S
C1715 H1723 0.929 . S
C1716 C1715 1.383 . S
C1716 C1717 1.377 . S
C1717 H1701 0.930 . S
C1717 C1716 1.377 . S
C1717 C1718 1.379 . S
C1718 H1702 0.931 . S
C1718 C1712 1.383 . S
C1718 C1717 1.379 . S
H1719 C1713 0.959 . S
H1720 C1713 0.961 . S
H1721 C1713 0.960 . S
H1722 C1714 0.930 . S
H1723 C1715 0.929 . S
H1724 C1732 0.929 . S
H1725 C1734 0.930 . S
H1726 C1736 0.930 . S
H1727 C1739 0.929 . S
H1728 C1742 0.930 . S
H1729 C1744 0.960 . S
H1730 C1744 0.960 . S
H1731 C1744 0.960 . S
C1732 H1724 0.929 . S
C1732 C1733 1.377 . S
C1732 C1734 1.384 . S
C1733 C1732 1.377 . S
C1733 C1739 1.390 . S
C1734 H1725 0.930 . S
C1734 C1732 1.384 . S
C1734 C1735 1.372 . S
C1735 C1734 1.372 . S
C1735 C1736 1.400 . S
C1735 C1740 1.490 . S
C1736 H1726 0.930 . S
C1736 C1735 1.400 . S
C1736 C1739 1.386 . S
H1737 C1753 0.930 . S
H1738 C1754 0.931 . S
C1739 H1727 0.929 . S
C1739 C1733 1.390 . S
C1739 C1736 1.386 . S
C1740 C1735 1.490 . S
C1740 C1742 1.395 . S
C1740 C1743 1.403 . S
H1741 C1747 0.930 . S
C1742 H1728 0.930 . S
C1742 C1740 1.395 . S
C1742 C1745 1.403 . S
C1743 C1740 1.403 . S
C1743 C1744 1.524 . S
C1743 C1747 1.400 . S
C1744 H1729 0.960 . S
C1744 H1730 0.960 . S
C1744 H1731 0.960 . S
C1744 C1743 1.524 . S
C1745 C1742 1.403 . S
C1745 C1746 1.392 . S
C1745 C1749 1.495 . S
C1746 C1745 1.392 . S
C1746 C1747 1.385 . S
C1746 C1748 1.478 . S
C1747 H1741 0.930 . S
C1747 C1743 1.400 . S
C1747 C1746 1.385 . S
C1748 C1746 1.478 . S
C1748 C1750 1.381 . S
C1748 C1754 1.383 1_655 S
C1749 C1745 1.495 . S
C1749 H1755 0.959 . S
C1749 H1756 0.961 . S
C1749 H1757 0.960 . S
C1750 C1748 1.381 . S
C1750 C1751 1.394 1_655 S
C1750 H1758 0.930 . S
C1751 C1750 1.394 1_455 S
C1751 C1752 1.383 . S
C1751 H1759 0.929 . S
C1752 C1751 1.383 . S
C1752 C1753 1.377 . S
C1753 H1737 0.930 . S
C1753 C1752 1.377 . S
C1753 C1754 1.379 . S
C1754 H1738 0.931 . S
C1754 C1748 1.383 1_455 S
C1754 C1753 1.379 . S
H1755 C1749 0.959 . S
H1756 C1749 0.961 . S
H1757 C1749 0.960 . S
H1758 C1750 0.930 . S
H1759 C1751 0.929 . S
H1760 C1768 0.929 . S
H1761 C1770 0.930 . S
H1762 C1772 0.930 . S
H1763 C1775 0.929 . S
H1764 C1778 0.930 . S
H1765 C1780 0.960 . S
H1766 C1780 0.960 . S
H1767 C1780 0.960 . S
C1768 H1760 0.929 . S
C1768 C1769 1.377 . S
C1768 C1770 1.384 . S
C1769 C1768 1.377 . S
C1769 C1775 1.390 . S
C1770 H1761 0.930 . S
C1770 C1768 1.384 . S
C1770 C1771 1.372 . S
C1771 C1770 1.372 . S
C1771 C1772 1.400 . S
C1771 C1776 1.490 . S
C1772 H1762 0.930 . S
C1772 C1771 1.400 . S
C1772 C1775 1.386 . S
H1773 C1789 0.930 . S
H1774 C1790 0.931 . S
C1775 H1763 0.929 . S
C1775 C1769 1.390 . S
C1775 C1772 1.386 . S
C1776 C1771 1.490 . S
C1776 C1778 1.395 . S
C1776 C1779 1.403 . S
H1777 C1783 0.930 . S
C1778 H1764 0.930 . S
C1778 C1776 1.395 . S
C1778 C1781 1.403 . S
C1779 C1776 1.403 . S
C1779 C1780 1.524 . S
C1779 C1783 1.400 . S
C1780 H1765 0.960 . S
C1780 H1766 0.960 . S
C1780 H1767 0.960 . S
C1780 C1779 1.524 . S
C1781 C1778 1.403 . S
C1781 C1782 1.392 . S
C1781 C1785 1.495 . S
C1782 C1781 1.392 . S
C1782 C1783 1.385 . S
C1782 C1784 1.478 . S
C1783 H1777 0.930 . S
C1783 C1779 1.400 . S
C1783 C1782 1.385 . S
C1784 C1782 1.478 . S
C1784 C1786 1.381 . S
C1784 C1790 1.383 . S
C1785 C1781 1.495 . S
C1785 H1791 0.959 . S
C1785 H1792 0.961 . S
C1785 H1793 0.960 . S
C1786 C1784 1.381 . S
C1786 C1787 1.394 . S
C1786 H1794 0.930 . S
C1787 C1786 1.394 . S
C1787 C1788 1.383 . S
C1787 H1795 0.929 . S
C1788 C1787 1.383 . S
C1788 C1789 1.377 . S
C1789 H1773 0.930 . S
C1789 C1788 1.377 . S
C1789 C1790 1.379 . S
C1790 H1774 0.931 . S
C1790 C1784 1.383 . S
C1790 C1789 1.379 . S
H1791 C1785 0.959 . S
H1792 C1785 0.961 . S
H1793 C1785 0.960 . S
H1794 C1786 0.930 . S
H1795 C1787 0.929 . S
H1796 C1804 0.929 . S
H1797 C1806 0.930 . S
H1798 C1808 0.930 . S
H1799 C1811 0.929 . S
H1800 C1814 0.930 . S
H1801 C1816 0.960 . S
H1802 C1816 0.960 . S
H1803 C1816 0.960 . S
C1804 H1796 0.929 . S
C1804 C1805 1.377 . S
C1804 C1806 1.384 . S
C1805 C1804 1.377 . S
C1805 C1811 1.390 . S
C1806 H1797 0.930 . S
C1806 C1804 1.384 . S
C1806 C1807 1.372 . S
C1807 C1806 1.372 . S
C1807 C1808 1.400 . S
C1807 C1812 1.490 . S
C1808 H1798 0.930 . S
C1808 C1807 1.400 . S
C1808 C1811 1.386 . S
H1809 C1825 0.930 . S
H1810 C1826 0.931 . S
C1811 H1799 0.929 . S
C1811 C1805 1.390 . S
C1811 C1808 1.386 . S
C1812 C1807 1.490 . S
C1812 C1814 1.395 . S
C1812 C1815 1.403 . S
H1813 C1819 0.930 . S
C1814 H1800 0.930 . S
C1814 C1812 1.395 . S
C1814 C1817 1.403 . S
C1815 C1812 1.403 . S
C1815 C1816 1.524 . S
C1815 C1819 1.400 . S
C1816 H1801 0.960 . S
C1816 H1802 0.960 . S
C1816 H1803 0.960 . S
C1816 C1815 1.524 . S
C1817 C1814 1.403 . S
C1817 C1818 1.392 . S
C1817 C1821 1.495 . S
C1818 C1817 1.392 . S
C1818 C1819 1.385 . S
C1818 C1820 1.478 . S
C1819 H1813 0.930 . S
C1819 C1815 1.400 . S
C1819 C1818 1.385 . S
C1820 C1818 1.478 . S
C1820 C1822 1.381 . S
C1820 C1826 1.383 1_655 S
C1821 C1817 1.495 . S
C1821 H1827 0.959 . S
C1821 H1828 0.961 . S
C1821 H1829 0.960 . S
C1822 C1820 1.381 . S
C1822 C1823 1.394 1_665 S
C1822 H1830 0.930 1_565 S
C1823 C1822 1.394 1_445 S
C1823 C1824 1.383 1_545 S
C1823 H1831 0.929 . S
C1824 C1823 1.383 1_565 S
C1824 C1825 1.377 . S
C1825 H1809 0.930 . S
C1825 C1824 1.377 . S
C1825 C1826 1.379 . S
C1826 H1810 0.931 . S
C1826 C1820 1.383 1_455 S
C1826 C1825 1.379 . S
H1827 C1821 0.959 . S
H1828 C1821 0.961 . S
H1829 C1821 0.960 . S
H1830 C1822 0.930 1_545 S
H1831 C1823 0.929 . S
H1832 C1840 0.929 . S
H1833 C1842 0.930 . S
H1834 C1844 0.930 . S
H1835 C1847 0.929 . S
H1836 C1850 0.930 . S
H1837 C1852 0.960 . S
H1838 C1852 0.960 . S
H1839 C1852 0.960 . S
C1840 H1832 0.929 . S
C1840 C1841 1.377 . S
C1840 C1842 1.384 . S
C1841 C1840 1.377 . S
C1841 C1847 1.390 . S
C1842 H1833 0.930 . S
C1842 C1840 1.384 . S
C1842 C1843 1.372 . S
C1843 C1842 1.372 . S
C1843 C1844 1.400 . S
C1843 C1848 1.490 . S
C1844 H1834 0.930 . S
C1844 C1843 1.400 . S
C1844 C1847 1.386 . S
H1845 C1861 0.930 . S
H1846 C1862 0.931 . S
C1847 H1835 0.929 . S
C1847 C1841 1.390 . S
C1847 C1844 1.386 . S
C1848 C1843 1.490 . S
C1848 C1850 1.395 . S
C1848 C1851 1.403 . S
H1849 C1855 0.930 . S
C1850 H1836 0.930 . S
C1850 C1848 1.395 . S
C1850 C1853 1.403 . S
C1851 C1848 1.403 . S
C1851 C1852 1.524 . S
C1851 C1855 1.400 . S
C1852 H1837 0.960 . S
C1852 H1838 0.960 . S
C1852 H1839 0.960 . S
C1852 C1851 1.524 . S
C1853 C1850 1.403 . S
C1853 C1854 1.392 . S
C1853 C1857 1.495 . S
C1854 C1853 1.392 . S
C1854 C1855 1.385 . S
C1854 C1856 1.478 . S
C1855 H1849 0.930 . S
C1855 C1851 1.400 . S
C1855 C1854 1.385 . S
C1856 C1854 1.478 . S
C1856 C1858 1.381 . S
C1856 C1862 1.383 . S
C1857 C1853 1.495 . S
C1857 H1863 0.959 . S
C1857 H1864 0.961 . S
C1857 H1865 0.960 . S
C1858 C1856 1.381 . S
C1858 C1859 1.394 . S
C1858 H1866 0.930 . S
C1859 C1858 1.394 . S
C1859 C1860 1.383 . S
C1859 H1867 0.929 . S
C1860 C1859 1.383 . S
C1860 C1861 1.377 . S
C1861 H1845 0.930 . S
C1861 C1860 1.377 . S
C1861 C1862 1.379 . S
C1862 H1846 0.931 . S
C1862 C1856 1.383 . S
C1862 C1861 1.379 . S
H1863 C1857 0.959 . S
H1864 C1857 0.961 . S
H1865 C1857 0.960 . S
H1866 C1858 0.930 . S
H1867 C1859 0.929 . S
H1868 C1876 0.929 . S
H1869 C1878 0.930 . S
H1870 C1880 0.930 . S
H1871 C1883 0.929 . S
H1872 C1886 0.930 . S
H1873 C1888 0.960 1_565 S
H1874 C1888 0.960 1_565 S
H1875 C1888 0.960 . S
C1876 H1868 0.929 . S
C1876 C1877 1.377 . S
C1876 C1878 1.384 . S
C1877 C1876 1.377 . S
C1877 C1883 1.390 . S
C1878 H1869 0.930 . S
C1878 C1876 1.384 . S
C1878 C1879 1.372 . S
C1879 C1878 1.372 . S
C1879 C1880 1.400 . S
C1879 C1884 1.490 . S
C1880 H1870 0.930 . S
C1880 C1879 1.400 . S
C1880 C1883 1.386 . S
H1881 C1897 0.930 . S
H1882 C1898 0.931 . S
C1883 H1871 0.929 . S
C1883 C1877 1.390 . S
C1883 C1880 1.386 . S
C1884 C1879 1.490 . S
C1884 C1886 1.395 . S
C1884 C1887 1.403 . S
H1885 C1891 0.930 . S
C1886 H1872 0.930 . S
C1886 C1884 1.395 . S
C1886 C1889 1.403 . S
C1887 C1884 1.403 . S
C1887 C1888 1.524 . S
C1887 C1891 1.400 . S
C1888 H1873 0.960 1_545 S
C1888 H1874 0.960 1_545 S
C1888 H1875 0.960 . S
C1888 C1887 1.524 . S
C1889 C1886 1.403 . S
C1889 C1890 1.392 . S
C1889 C1893 1.495 . S
C1890 C1889 1.392 . S
C1890 C1891 1.385 . S
C1890 C1892 1.478 . S
C1891 H1885 0.930 . S
C1891 C1887 1.400 . S
C1891 C1890 1.385 . S
C1892 C1890 1.478 . S
C1892 C1894 1.381 . S
C1892 C1898 1.383 . S
C1893 C1889 1.495 . S
C1893 H1899 0.959 . S
C1893 H1900 0.961 . S
C1893 H1901 0.960 . S
C1894 C1892 1.381 . S
C1894 C1895 1.394 . S
C1894 H1902 0.930 . S
C1895 C1894 1.394 . S
C1895 C1896 1.383 . S
C1895 H1903 0.929 . S
C1896 C1895 1.383 . S
C1896 C1897 1.377 . S
C1897 H1881 0.930 . S
C1897 C1896 1.377 . S
C1897 C1898 1.379 . S
C1898 H1882 0.931 . S
C1898 C1892 1.383 . S
C1898 C1897 1.379 . S
H1899 C1893 0.959 . S
H1900 C1893 0.961 . S
H1901 C1893 0.960 . S
H1902 C1894 0.930 . S
H1903 C1895 0.929 . S
H1904 C1912 0.929 . S
H1905 C1914 0.930 . S
H1906 C1916 0.930 . S
H1907 C1919 0.929 . S
H1908 C1922 0.930 . S
H1909 C1924 0.960 . S
H1910 C1924 0.960 . S
H1911 C1924 0.960 . S
C1912 H1904 0.929 . S
C1912 C1913 1.377 . S
C1912 C1914 1.384 . S
C1913 C1912 1.377 . S
C1913 C1919 1.390 . S
C1914 H1905 0.930 . S
C1914 C1912 1.384 . S
C1914 C1915 1.372 . S
C1915 C1914 1.372 . S
C1915 C1916 1.400 . S
C1915 C1920 1.490 . S
C1916 H1906 0.930 . S
C1916 C1915 1.400 . S
C1916 C1919 1.386 . S
H1917 C1933 0.930 . S
H1918 C1934 0.931 . S
C1919 H1907 0.929 . S
C1919 C1913 1.390 . S
C1919 C1916 1.386 . S
C1920 C1915 1.490 . S
C1920 C1922 1.395 . S
C1920 C1923 1.403 . S
H1921 C1927 0.930 . S
C1922 H1908 0.930 . S
C1922 C1920 1.395 . S
C1922 C1925 1.403 . S
C1923 C1920 1.403 . S
C1923 C1924 1.524 . S
C1923 C1927 1.400 . S
C1924 H1909 0.960 . S
C1924 H1910 0.960 . S
C1924 H1911 0.960 . S
C1924 C1923 1.524 . S
C1925 C1922 1.403 . S
C1925 C1926 1.392 . S
C1925 C1929 1.495 . S
C1926 C1925 1.392 . S
C1926 C1927 1.385 . S
C1926 C1928 1.478 . S
C1927 H1921 0.930 . S
C1927 C1923 1.400 . S
C1927 C1926 1.385 . S
C1928 C1926 1.478 . S
C1928 C1930 1.381 . S
C1928 C1934 1.383 . S
C1929 C1925 1.495 . S
C1929 H1935 0.959 . S
C1929 H1936 0.961 . S
C1929 H1937 0.960 . S
C1930 C1928 1.381 . S
C1930 C1931 1.394 . S
C1930 H1938 0.930 . S
C1931 C1930 1.394 . S
C1931 C1932 1.383 . S
C1931 H1939 0.929 . S
C1932 C1931 1.383 . S
C1932 C1933 1.377 . S
C1933 H1917 0.930 . S
C1933 C1932 1.377 . S
C1933 C1934 1.379 . S
C1934 H1918 0.931 . S
C1934 C1928 1.383 . S
C1934 C1933 1.379 . S
H1935 C1929 0.959 . S
H1936 C1929 0.961 . S
H1937 C1929 0.960 . S
H1938 C1930 0.930 . S
H1939 C1931 0.929 . S
H1940 C1948 0.929 . S
H1941 C1950 0.930 . S
H1942 C1952 0.930 . S
H1943 C1955 0.929 1_565 S
H1944 C1958 0.930 . S
H1945 C1960 0.960 1_565 S
H1946 C1960 0.960 . S
H1947 C1960 0.960 1_565 S
C1948 H1940 0.929 . S
C1948 C1949 1.377 . S
C1948 C1950 1.384 . S
C1949 C1948 1.377 . S
C1949 C1955 1.390 . S
C1950 H1941 0.930 . S
C1950 C1948 1.384 . S
C1950 C1951 1.372 1_655 S
C1951 C1950 1.372 1_455 S
C1951 C1952 1.400 . S
C1951 C1956 1.490 . S
C1952 H1942 0.930 . S
C1952 C1951 1.400 . S
C1952 C1955 1.386 1_455 S
H1953 C1969 0.930 . S
H1954 C1970 0.931 . S
C1955 H1943 0.929 1_545 S
C1955 C1949 1.390 . S
C1955 C1952 1.386 1_655 S
C1956 C1951 1.490 . S
C1956 C1958 1.395 . S
C1956 C1959 1.403 . S
H1957 C1963 0.930 . S
C1958 H1944 0.930 . S
C1958 C1956 1.395 . S
C1958 C1961 1.403 . S
C1959 C1956 1.403 . S
C1959 C1960 1.524 . S
C1959 C1963 1.400 . S
C1960 H1945 0.960 1_545 S
C1960 H1946 0.960 . S
C1960 H1947 0.960 1_545 S
C1960 C1959 1.524 . S
C1961 C1958 1.403 . S
C1961 C1962 1.392 . S
C1961 C1965 1.495 . S
C1962 C1961 1.392 . S
C1962 C1963 1.385 . S
C1962 C1964 1.478 . S
C1963 H1957 0.930 . S
C1963 C1959 1.400 . S
C1963 C1962 1.385 . S
C1964 C1962 1.478 . S
C1964 C1966 1.381 . S
C1964 C1970 1.383 . S
C1965 C1961 1.495 . S
C1965 H1971 0.959 . S
C1965 H1972 0.961 . S
C1965 H1973 0.960 . S
C1966 C1964 1.381 . S
C1966 C1967 1.394 . S
C1966 H1974 0.930 . S
C1967 C1966 1.394 . S
C1967 C1968 1.383 . S
C1967 H1975 0.929 . S
C1968 C1967 1.383 . S
C1968 C1969 1.377 . S
C1969 H1953 0.930 . S
C1969 C1968 1.377 . S
C1969 C1970 1.379 . S
C1970 H1954 0.931 . S
C1970 C1964 1.383 . S
C1970 C1969 1.379 . S
H1971 C1965 0.959 . S
H1972 C1965 0.961 . S
H1973 C1965 0.960 . S
H1974 C1966 0.930 . S
H1975 C1967 0.929 . S
H1976 C1984 0.929 . S
H1977 C1986 0.930 . S
H1978 C1988 0.930 . S
H1979 C1991 0.929 . S
H1980 C1994 0.930 . S
H1981 C1996 0.960 . S
H1982 C1996 0.960 . S
H1983 C1996 0.960 . S
C1984 H1976 0.929 . S
C1984 C1985 1.377 . S
C1984 C1986 1.384 . S
C1985 C1984 1.377 . S
C1985 C1991 1.390 . S
C1986 H1977 0.930 . S
C1986 C1984 1.384 . S
C1986 C1987 1.372 . S
C1987 C1986 1.372 . S
C1987 C1988 1.400 . S
C1987 C1992 1.490 . S
C1988 H1978 0.930 . S
C1988 C1987 1.400 . S
C1988 C1991 1.386 . S
H1989 C2005 0.930 . S
H1990 C2006 0.931 . S
C1991 H1979 0.929 . S
C1991 C1985 1.390 . S
C1991 C1988 1.386 . S
C1992 C1987 1.490 . S
C1992 C1994 1.395 . S
C1992 C1995 1.403 . S
H1993 C1999 0.930 . S
C1994 H1980 0.930 . S
C1994 C1992 1.395 . S
C1994 C1997 1.403 . S
C1995 C1992 1.403 . S
C1995 C1996 1.524 . S
C1995 C1999 1.400 . S
C1996 H1981 0.960 . S
C1996 H1982 0.960 . S
C1996 H1983 0.960 . S
C1996 C1995 1.524 . S
C1997 C1994 1.403 . S
C1997 C1998 1.392 . S
C1997 C2001 1.495 . S
C1998 C1997 1.392 . S
C1998 C1999 1.385 . S
C1998 C2000 1.478 . S
C1999 H1993 0.930 . S
C1999 C1995 1.400 . S
C1999 C1998 1.385 . S
C2000 C1998 1.478 . S
C2000 C2002 1.381 . S
C2000 C2006 1.383 . S
C2001 C1997 1.495 . S
C2001 H2007 0.959 . S
C2001 H2008 0.961 . S
C2001 H2009 0.960 . S
C2002 C2000 1.381 . S
C2002 C2003 1.394 . S
C2002 H2010 0.930 . S
C2003 C2002 1.394 . S
C2003 C2004 1.383 . S
C2003 H2011 0.929 . S
C2004 C2003 1.383 . S
C2004 C2005 1.377 . S
C2005 H1989 0.930 . S
C2005 C2004 1.377 . S
C2005 C2006 1.379 . S
C2006 H1990 0.931 . S
C2006 C2000 1.383 . S
C2006 C2005 1.379 . S
H2007 C2001 0.959 . S
H2008 C2001 0.961 . S
H2009 C2001 0.960 . S
H2010 C2002 0.930 . S
H2011 C2003 0.929 . S
H2012 C2020 0.929 . S
H2013 C2022 0.930 . S
H2014 C2024 0.930 . S
H2015 C2027 0.929 . S
H2016 C2030 0.930 . S
H2017 C2032 0.960 . S
H2018 C2032 0.960 . S
H2019 C2032 0.960 . S
C2020 H2012 0.929 . S
C2020 C2021 1.377 . S
C2020 C2022 1.384 . S
C2021 C2020 1.377 . S
C2021 C2027 1.390 . S
C2022 H2013 0.930 . S
C2022 C2020 1.384 . S
C2022 C2023 1.372 . S
C2023 C2022 1.372 . S
C2023 C2024 1.400 . S
C2023 C2028 1.490 . S
C2024 H2014 0.930 . S
C2024 C2023 1.400 . S
C2024 C2027 1.386 . S
H2025 C2041 0.930 . S
H2026 C2042 0.931 1_545 S
C2027 H2015 0.929 . S
C2027 C2021 1.390 . S
C2027 C2024 1.386 . S
C2028 C2023 1.490 . S
C2028 C2030 1.395 . S
C2028 C2031 1.403 . S
H2029 C2035 0.930 . S
C2030 H2016 0.930 . S
C2030 C2028 1.395 . S
C2030 C2033 1.403 . S
C2031 C2028 1.403 . S
C2031 C2032 1.524 . S
C2031 C2035 1.400 . S
C2032 H2017 0.960 . S
C2032 H2018 0.960 . S
C2032 H2019 0.960 . S
C2032 C2031 1.524 . S
C2033 C2030 1.403 . S
C2033 C2034 1.392 . S
C2033 C2037 1.495 . S
C2034 C2033 1.392 . S
C2034 C2035 1.385 . S
C2034 C2036 1.478 . S
C2035 H2029 0.930 . S
C2035 C2031 1.400 . S
C2035 C2034 1.385 . S
C2036 C2034 1.478 . S
C2036 C2038 1.381 . S
C2036 C2042 1.383 . S
C2037 C2033 1.495 . S
C2037 H2043 0.959 . S
C2037 H2044 0.961 . S
C2037 H2045 0.960 . S
C2038 C2036 1.381 . S
C2038 C2039 1.394 . S
C2038 H2046 0.930 . S
C2039 C2038 1.394 . S
C2039 C2040 1.383 . S
C2039 H2047 0.929 . S
C2040 C2039 1.383 . S
C2040 C2041 1.377 1_565 S
C2041 H2025 0.930 . S
C2041 C2040 1.377 1_545 S
C2041 C2042 1.379 1_545 S
C2042 H2026 0.931 1_565 S
C2042 C2036 1.383 . S
C2042 C2041 1.379 1_565 S
H2043 C2037 0.959 . S
H2044 C2037 0.961 . S
H2045 C2037 0.960 . S
H2046 C2038 0.930 . S
H2047 C2039 0.929 . S
C329 C8 0.822 . S
C348 C259 0.761 . S
C365 C119 0.829 . S
C384 C28 0.788 . S
C401 C48 0.824 . S
C420 C299 0.766 . S
C437 C68 0.802 . S
C456 C159 0.797 . S
C473 C99 0.813 . S
C492 C168 0.881 . S
C509 C208 0.831 . S
C528 C139 0.906 . S
C545 C279 0.837 . S
C564 C188 0.865 . S
C581 C228 0.816 . S
C600 C319 0.746 . S
C617 C189 1.965 . S
C636 C19 1.948 . S
C653 C39 1.932 . S
C672 C209 1.950 . S
C689 C59 1.938 . S
C708 C229 1.970 . S
C725 C169 1.966 . S
C744 C79 1.941 . S
C761 C261 1.965 . S
C780 C88 1.946 . S
C797 C281 1.964 . S
C816 C108 1.948 . S
C833 C128 1.932 . S
C852 C301 1.963 . S
C869 C241 1.966 . S
C888 C148 1.940 . S
C905 C179 1.933 . S
C924 C29 1.951 . S
C941 C199 1.932 1_565 S
C960 C49 1.952 . S
C977 C219 1.933 . S
C996 C69 1.959 . S
C1013 C9 1.964 . S
C1032 C239 1.940 1_545 S
C1049 C101 1.966 . S
C1068 C248 1.934 . S
C1085 C268 1.935 1_545 S
C1104 C121 1.970 . S
C1121 C141 1.963 . S
C1140 C288 1.915 . S
C1157 C308 1.934 1_565 S
C1176 C81 1.970 . S
C1193 C16 2.353 . S
C1212 C216 2.359 . S
C1229 C36 2.346 . S
C1248 C236 2.332 . S
C1265 C176 2.347 . S
C1284 C56 2.329 . S
C1301 C76 2.349 . S
C1320 C196 2.328 . S
C1337 C86 2.346 . S
C1356 C286 2.359 . S
C1373 C106 2.350 . S
C1392 C306 2.339 . S
C1409 C246 2.349 . S
C1428 C126 2.348 . S
C1445 C146 2.350 . S
C1464 C266 2.342 . S
C1481 C1 0.986 . S
C1500 C156 1.047 . S
C1517 C256 1.015 . S
C1536 C21 0.960 . S
C1553 C41 0.974 . S
C1572 C116 1.011 . S
C1589 C61 0.983 . S
C1608 C296 1.045 . S
C1625 C89 0.988 . S
C1644 C66 1.005 . S
C1661 C166 1.026 . S
C1680 C109 1.020 . S
C1697 C129 0.974 . S
C1716 C26 0.999 . S
C1733 C206 1.025 . S
C1752 C149 1.032 . S
C1769 C161 0.975 . S
C1788 C316 1.026 . S
C1805 C96 1.020 . S
C1824 C181 0.933 . S
C1841 C276 1.021 . S
C1860 C201 0.935 . S
C1877 C221 0.990 . S
C1896 C136 0.998 . S
C1913 C249 0.977 . S
C1932 C226 0.990 . S
C1949 C269 0.974 . S
C1968 C6 0.996 . S
C1985 C186 1.024 . S
C2004 C289 0.978 . S
C2021 C46 1.016 . S
C2040 C309 0.933 . S
