# Generated by pormake.
# Topology bcs, (6)-cn, num edge types: 1
# Building blocks:
#     Node 0, Type 0, BuildingBlock: CIFDUS_clean_sbu_1, # of connection points: 6
#     Node 1, Type 0, BuildingBlock: CIFDUS_clean_sbu_1, # of connection points: 6
#     Node 2, Type 0, BuildingBlock: CIFDUS_clean_sbu_1, # of connection points: 6
#     Node 3, Type 0, BuildingBlock: CIFDUS_clean_sbu_1, # of connection points: 6
#     Node 4, Type 0, BuildingBlock: CIFDUS_clean_sbu_1, # of connection points: 6
#     Node 5, Type 0, BuildingBlock: CIFDUS_clean_sbu_1, # of connection points: 6
#     Node 6, Type 0, BuildingBlock: CIFDUS_clean_sbu_1, # of connection points: 6
#     Node 7, Type 0, BuildingBlock: CIFDUS_clean_sbu_1, # of connection points: 6
#     Node 8, Type 0, BuildingBlock: CIFDUS_clean_sbu_1, # of connection points: 6
#     Node 9, Type 0, BuildingBlock: CIFDUS_clean_sbu_1, # of connection points: 6
#     Node 10, Type 0, BuildingBlock: CIFDUS_clean_sbu_1, # of connection points: 6
#     Node 11, Type 0, BuildingBlock: CIFDUS_clean_sbu_1, # of connection points: 6
#     Node 12, Type 0, BuildingBlock: CIFDUS_clean_sbu_1, # of connection points: 6
#     Node 13, Type 0, BuildingBlock: CIFDUS_clean_sbu_1, # of connection points: 6
#     Node 14, Type 0, BuildingBlock: CIFDUS_clean_sbu_1, # of connection points: 6
#     Node 15, Type 0, BuildingBlock: CIFDUS_clean_sbu_1, # of connection points: 6
#     Edge 16, Type (0, 0), BuildingBlock: XIVTED_clean_linker_0, # of connection points: 2
#     Edge 17, Type (0, 0), BuildingBlock: XIVTED_clean_linker_0, # of connection points: 2
#     Edge 18, Type (0, 0), BuildingBlock: XIVTED_clean_linker_0, # of connection points: 2
#     Edge 19, Type (0, 0), BuildingBlock: XIVTED_clean_linker_0, # of connection points: 2
#     Edge 20, Type (0, 0), BuildingBlock: XIVTED_clean_linker_0, # of connection points: 2
#     Edge 21, Type (0, 0), BuildingBlock: XIVTED_clean_linker_0, # of connection points: 2
#     Edge 22, Type (0, 0), BuildingBlock: XIVTED_clean_linker_0, # of connection points: 2
#     Edge 23, Type (0, 0), BuildingBlock: XIVTED_clean_linker_0, # of connection points: 2
#     Edge 24, Type (0, 0), BuildingBlock: XIVTED_clean_linker_0, # of connection points: 2
#     Edge 25, Type (0, 0), BuildingBlock: XIVTED_clean_linker_0, # of connection points: 2
#     Edge 26, Type (0, 0), BuildingBlock: XIVTED_clean_linker_0, # of connection points: 2
#     Edge 27, Type (0, 0), BuildingBlock: XIVTED_clean_linker_0, # of connection points: 2
#     Edge 28, Type (0, 0), BuildingBlock: XIVTED_clean_linker_0, # of connection points: 2
#     Edge 29, Type (0, 0), BuildingBlock: XIVTED_clean_linker_0, # of connection points: 2
#     Edge 30, Type (0, 0), BuildingBlock: XIVTED_clean_linker_0, # of connection points: 2
#     Edge 31, Type (0, 0), BuildingBlock: XIVTED_clean_linker_0, # of connection points: 2
#     Edge 32, Type (0, 0), BuildingBlock: XIVTED_clean_linker_0, # of connection points: 2
#     Edge 33, Type (0, 0), BuildingBlock: XIVTED_clean_linker_0, # of connection points: 2
#     Edge 34, Type (0, 0), BuildingBlock: XIVTED_clean_linker_0, # of connection points: 2
#     Edge 35, Type (0, 0), BuildingBlock: XIVTED_clean_linker_0, # of connection points: 2
#     Edge 36, Type (0, 0), BuildingBlock: XIVTED_clean_linker_0, # of connection points: 2
#     Edge 37, Type (0, 0), BuildingBlock: XIVTED_clean_linker_0, # of connection points: 2
#     Edge 38, Type (0, 0), BuildingBlock: XIVTED_clean_linker_0, # of connection points: 2
#     Edge 39, Type (0, 0), BuildingBlock: XIVTED_clean_linker_0, # of connection points: 2
#     Edge 40, Type (0, 0), BuildingBlock: XIVTED_clean_linker_0, # of connection points: 2
#     Edge 41, Type (0, 0), BuildingBlock: XIVTED_clean_linker_0, # of connection points: 2
#     Edge 42, Type (0, 0), BuildingBlock: XIVTED_clean_linker_0, # of connection points: 2
#     Edge 43, Type (0, 0), BuildingBlock: XIVTED_clean_linker_0, # of connection points: 2
#     Edge 44, Type (0, 0), BuildingBlock: XIVTED_clean_linker_0, # of connection points: 2
#     Edge 45, Type (0, 0), BuildingBlock: XIVTED_clean_linker_0, # of connection points: 2
#     Edge 46, Type (0, 0), BuildingBlock: XIVTED_clean_linker_0, # of connection points: 2
#     Edge 47, Type (0, 0), BuildingBlock: XIVTED_clean_linker_0, # of connection points: 2
#     Edge 48, Type (0, 0), BuildingBlock: XIVTED_clean_linker_0, # of connection points: 2
#     Edge 49, Type (0, 0), BuildingBlock: XIVTED_clean_linker_0, # of connection points: 2
#     Edge 50, Type (0, 0), BuildingBlock: XIVTED_clean_linker_0, # of connection points: 2
#     Edge 51, Type (0, 0), BuildingBlock: XIVTED_clean_linker_0, # of connection points: 2
#     Edge 52, Type (0, 0), BuildingBlock: XIVTED_clean_linker_0, # of connection points: 2
#     Edge 53, Type (0, 0), BuildingBlock: XIVTED_clean_linker_0, # of connection points: 2
#     Edge 54, Type (0, 0), BuildingBlock: XIVTED_clean_linker_0, # of connection points: 2
#     Edge 55, Type (0, 0), BuildingBlock: XIVTED_clean_linker_0, # of connection points: 2
#     Edge 56, Type (0, 0), BuildingBlock: XIVTED_clean_linker_0, # of connection points: 2
#     Edge 57, Type (0, 0), BuildingBlock: XIVTED_clean_linker_0, # of connection points: 2
#     Edge 58, Type (0, 0), BuildingBlock: XIVTED_clean_linker_0, # of connection points: 2
#     Edge 59, Type (0, 0), BuildingBlock: XIVTED_clean_linker_0, # of connection points: 2
#     Edge 60, Type (0, 0), BuildingBlock: XIVTED_clean_linker_0, # of connection points: 2
#     Edge 61, Type (0, 0), BuildingBlock: XIVTED_clean_linker_0, # of connection points: 2
#     Edge 62, Type (0, 0), BuildingBlock: XIVTED_clean_linker_0, # of connection points: 2
#     Edge 63, Type (0, 0), BuildingBlock: XIVTED_clean_linker_0, # of connection points: 2
# Relax obj value: 0.278
# Max RMSD: 0.276
# Mean RMSD: 0.250
data_MOF--net-bcs--node1-CIFDUS_clean_sbu_1--edge1-XIVTED_clean_linker_0
_symmetry_space_group_name_H-M    P1
_symmetry_Int_Tables_number       1
_symmetry_cell_setting            triclinic
loop_
_symmetry_equiv_pos_as_xyz
'x, y, z'
_cell_length_a     33.618515
_cell_length_b     33.863062
_cell_length_c     36.413224
_cell_angle_alpha  88.407092
_cell_angle_beta   91.384478
_cell_angle_gamma 95.753305
loop_
_atom_site_label
_atom_site_type_symbol
_atom_site_fract_x
_atom_site_fract_y
_atom_site_fract_z
_atom_type_partial_charge
O0 O 0.97727 0.03088 0.96747 0.0
Mn1 Mn 0.01295 0.00557 0.00738 0.0
O2 O 0.98236 0.09565 0.98264 0.0
Mn3 Mn 0.0231 0.09668 0.01865 0.0
O4 O 0.04862 0.97976 0.04744 0.0
O5 O 0.97662 0.95518 0.0057 0.0
Mn6 Mn 1.00233 0.91413 -0.00293 0.0
O7 O 0.0505 0.98489 0.96806 0.0
O8 O 0.03936 0.91403 0.03597 0.0
O9 O 0.97565 0.02659 0.04726 0.0
O10 O 1.00456 0.08545 0.06527 0.0
O11 O 0.94953 0.89468 0.00417 0.0
O12 O 0.02509 0.92411 0.9518 0.0
C13 C 0.07933 0.0807 1e-05 0.0
C14 C 0.96664 0.0663 0.96392 0.0
C15 C 0.05633 0.94354 0.05368 0.0
C16 C 0.94507 0.93119 0.01124 0.0
C17 C 0.05018 0.95444 0.94763 0.0
C18 C 0.97806 0.05623 0.06902 0.0
O19 O 0.04896 0.05618 0.00836 0.0
O20 O 0.07478 0.11705 0.00755 0.0
O21 O 0.311 0.78411 0.29055 0.0
Mn22 Mn 0.26262 0.76046 0.26024 0.0
O23 O 0.35877 0.74271 0.28185 0.0
Mn24 Mn 0.33414 0.712 0.24371 0.0
O25 O 0.21389 0.73642 0.23025 0.0
O26 O 0.22603 0.7796 0.29631 0.0
Mn27 Mn 0.19151 0.80954 0.27638 0.0
O28 O 0.25909 0.81289 0.22768 0.0
O29 O 0.16559 0.77699 0.24011 0.0
O30 O 0.26647 0.70769 0.29264 0.0
O31 O 0.3012 0.66865 0.26013 0.0
O32 O 0.17743 0.79999 0.32511 0.0
O33 O 0.22383 0.85272 0.25866 0.0
C34 C 0.32016 0.74627 0.19501 0.0
C35 C 0.34509 0.77145 0.29818 0.0
C36 C 0.17886 0.74766 0.22434 0.0
C37 C 0.20528 0.7763 0.32546 0.0
C38 C 0.24526 0.84671 0.2315 0.0
C39 C 0.28022 0.67395 0.28781 0.0
O40 O 0.29952 0.7421 0.22419 0.0
O41 O 0.3488 0.72354 0.19524 0.0
O42 O 0.51988 0.95883 0.53579 0.0
Mn43 Mn 0.51536 0.00897 0.50125 0.0
O44 O 0.58281 0.96468 0.55935 0.0
Mn45 Mn 0.6026 0.00597 0.52867 0.0
O46 O 0.51129 0.05954 0.46705 0.0
O47 O 0.46586 0.98055 0.47946 0.0
Mn48 Mn 0.43065 0.01395 0.46852 0.0
O49 O 0.48108 0.03426 0.54024 0.0
O50 O 0.45457 0.0485 0.43369 0.0
O51 O 0.54929 0.98408 0.46122 0.0
O52 O 0.6131 0.99207 0.48181 0.0
O53 O 0.40647 0.9647 0.45645 0.0
O54 O 0.42059 0.03687 0.51231 0.0
C55 C 0.58883 0.06468 0.53812 0.0
C56 C 0.54761 0.94696 0.55706 0.0
C57 C 0.48775 0.06869 0.44054 0.0
C58 C 0.44012 0.95275 0.46781 0.0
C59 C 0.44495 0.04399 0.53928 0.0
C60 C 0.58694 0.9812 0.45733 0.0
O61 O 0.56445 0.03733 0.52378 0.0
O62 O 0.62385 0.05395 0.54657 0.0
O63 O 0.23403 0.20865 0.78545 0.0
Mn64 Mn 0.25218 0.25479 0.74786 0.0
O65 O 0.16977 0.18855 0.77111 0.0
Mn66 Mn 0.16128 0.23077 0.73932 0.0
O67 O 0.2705 0.30073 0.7104 0.0
O68 O 0.2995 0.27003 0.78129 0.0
Mn69 Mn 0.34311 0.27388 0.75516 0.0
O70 O 0.2836 0.21498 0.71911 0.0
O71 O 0.33671 0.31467 0.72099 0.0
O72 O 0.21961 0.29445 0.77606 0.0
O73 O 0.1548 0.27797 0.76097 0.0
O74 O 0.36028 0.28587 0.80195 0.0
O75 O 0.34796 0.22442 0.73728 0.0
C76 C 0.18488 0.22898 0.68556 0.0
C77 C 0.202 0.18484 0.78955 0.0
C78 C 0.30405 0.32138 0.70444 0.0
C79 C 0.32249 0.2812 0.80884 0.0
C80 C 0.31955 0.205 0.72 0.0
C81 C 0.18221 0.30007 0.77726 0.0
O82 O 0.20539 0.23957 0.71458 0.0
O83 O 0.14693 0.22158 0.69091 0.0
O84 O 0.06083 0.0352 0.52232 0.0
Mn85 Mn 0.01327 -0.00118 0.5017 0.0
O86 O 0.1161 0.0132 0.49904 0.0
Mn87 Mn 0.09062 0.97517 0.46753 0.0
O88 O 0.9651 0.96294 0.48104 0.0
O89 O 0.9818 0.00358 0.54749 0.0
Mn90 Mn 0.93778 0.02541 0.53575 0.0
O91 O 0.99122 0.04833 0.47557 0.0
O92 O 0.91138 0.98949 0.5029 0.0
O93 O 0.03573 0.94934 0.52756 0.0
O94 O 0.07777 0.92559 0.48901 0.0
O95 O 0.9353 0.01218 0.58532 0.0
O96 O 0.95322 0.07501 0.51559 0.0
C97 C 0.05906 0.00434 0.42415 0.0
C98 C 0.09886 0.03695 0.5187 0.0
C99 C 0.92719 0.96434 0.48363 0.0
C100 C 0.96714 0.99495 0.57964 0.0
C101 C 0.97143 0.07669 0.48532 0.0
C102 C 0.05809 0.92264 0.51856 0.0
O103 O 0.04485 0.99391 0.45611 0.0
O104 O 0.09154 0.98844 0.41781 0.0
O105 O 0.30778 0.7372 0.79603 0.0
Mn106 Mn 0.26691 0.75863 0.75955 0.0
O107 O 0.36381 0.74257 0.76207 0.0
Mn108 Mn 0.34829 0.77563 0.72307 0.0
O109 O 0.22626 0.77989 0.7227 0.0
O110 O 0.22308 0.71748 0.77619 0.0
Mn111 Mn 0.1848 0.74144 0.79486 0.0
O112 O 0.25157 0.80092 0.79755 0.0
O113 O 0.16918 0.77346 0.75505 0.0
O114 O 0.2822 0.71624 0.72171 0.0
O115 O 0.3244 0.74947 0.68334 0.0
O116 O 0.16676 0.68817 0.79448 0.0
O117 O 0.20765 0.76791 0.8347 0.0
C118 C 0.33598 0.83139 0.74399 0.0
C119 C 0.34448 0.73133 0.7912 0.0
C120 C 0.18914 0.78479 0.72631 0.0
C121 C 0.19835 0.68558 0.77543 0.0
C122 C 0.23118 0.7985 0.82718 0.0
C123 C 0.30187 0.71842 0.69169 0.0
O124 O 0.31086 0.79976 0.74305 0.0
O125 O 0.3671 0.82875 0.72432 0.0
O126 O 0.47291 0.97072 0.0389 0.0
Mn127 Mn 0.51156 0.01025 0.01007 0.0
O128 O 0.41419 0.99701 0.02969 0.0
Mn129 Mn 0.43 0.03285 0.99156 0.0
O130 O 0.55004 0.0505 0.98173 0.0
O131 O 0.55461 0.00929 0.05141 0.0
Mn132 Mn 0.59374 0.98964 0.02877 0.0
O133 O 0.53131 0.96292 0.97932 0.0
O134 O 0.6101 0.02781 0.99295 0.0
O135 O 0.49188 0.05747 0.04066 0.0
O136 O 0.44725 0.08357 0.00473 0.0
O137 O 0.6132 0.99585 0.07503 0.0
O138 O 0.57834 0.93921 0.01433 0.0
C139 C 0.44273 0.00881 0.94122 0.0
C140 C 0.43559 0.9717 0.04496 0.0
C141 C 0.58805 0.05263 0.9779 0.0
C142 C 0.5799 0.01113 0.07944 0.0
C143 C 0.55477 0.93584 0.98696 0.0
C144 C 0.46979 0.08564 0.0329 0.0
O145 O 0.46814 0.01109 0.96913 0.0
O146 O 0.40984 0.02484 0.94552 0.0
O147 O 0.22213 0.27152 0.22879 0.0
Mn148 Mn 0.26597 0.25892 0.26733 0.0
O149 O 0.21916 0.33759 0.23481 0.0
Mn150 Mn 0.26193 0.34858 0.26736 0.0
O151 O 0.31069 0.24847 0.30596 0.0
O152 O 0.23639 0.20439 0.27719 0.0
Mn153 Mn 0.27197 0.16962 0.27846 0.0
O154 O 0.30138 0.23755 0.22596 0.0
O155 O 0.30647 0.18264 0.31748 0.0
O156 O 0.2301 0.27892 0.30889 0.0
O157 O 0.2485 0.34336 0.31605 0.0
O158 O 0.2245 0.14006 0.28653 0.0
O159 O 0.29603 0.17106 0.23362 0.0
C160 C 0.32034 0.34342 0.24818 0.0
C161 C 0.20661 0.30406 0.22122 0.0
C162 C 0.32163 0.21789 0.32344 0.0
C163 C 0.21048 0.17434 0.28499 0.0
C164 C 0.30967 0.20276 0.21677 0.0
C165 C 0.22914 0.31119 0.32656 0.0
O166 O 0.29524 0.31341 0.25765 0.0
O167 O 0.30786 0.37787 0.25273 0.0
O168 O 0.56207 0.53311 0.02628 0.0
Mn169 Mn 0.51453 0.49883 0.00266 0.0
O170 O 0.61727 0.51023 0.0036 0.0
Mn171 Mn 0.59211 0.47514 0.96933 0.0
O172 O 0.46687 0.46475 0.97884 0.0
O173 O 0.48131 0.50121 0.04786 0.0
Mn174 Mn 0.43773 0.52364 0.0355 0.0
O175 O 0.49419 0.55004 0.97832 0.0
O176 O 0.41221 0.48931 0.00081 0.0
O177 O 0.53507 0.44757 0.02672 0.0
O178 O 0.57691 0.42459 0.98763 0.0
O179 O 0.43324 0.50873 0.08451 0.0
O180 O 0.45381 0.57417 0.01785 0.0
C181 C 0.56299 0.50738 0.92633 0.0
C182 C 0.6002 0.53354 0.02388 0.0
C183 C 0.42881 0.46554 0.98063 0.0
C184 C 0.4655 0.49194 0.07947 0.0
C185 C 0.47368 0.57765 0.9885 0.0
C186 C 0.55653 0.42058 0.01674 0.0
O187 O 0.54764 0.49625 0.95767 0.0
O188 O 0.59539 0.4912 0.92033 0.0
O189 O 0.80501 0.23768 0.29344 0.0
Mn190 Mn 0.76364 0.2577 0.25669 0.0
O191 O 0.86167 0.24463 0.26046 0.0
Mn192 Mn 0.84548 0.27637 0.22071 0.0
O193 O 0.72225 0.27742 0.21982 0.0
O194 O 0.72072 0.21594 0.27404 0.0
Mn195 Mn 0.68209 0.23941 0.29272 0.0
O196 O 0.74744 0.30025 0.29418 0.0
O197 O 0.66541 0.27026 0.25253 0.0
O198 O 0.78001 0.21538 0.21909 0.0
O199 O 0.82303 0.24872 0.18122 0.0
O200 O 0.66503 0.18593 0.29311 0.0
O201 O 0.70439 0.26721 0.33208 0.0
C202 C 0.83059 0.33159 0.24088 0.0
C203 C 0.84211 0.23299 0.28934 0.0
C204 C 0.68496 0.28148 0.22353 0.0
C205 C 0.69637 0.18373 0.2736 0.0
C206 C 0.72712 0.29816 0.32387 0.0
C207 C 0.80038 0.21765 0.1894 0.0
O208 O 0.80646 0.29935 0.2393 0.0
O209 O 0.86236 0.33 0.22183 0.0
O210 O 0.97609 0.47107 0.54472 0.0
Mn211 Mn 0.00943 0.50969 0.51032 0.0
O212 O 0.91569 0.49397 0.53767 0.0
Mn213 Mn 0.92665 0.52493 0.4953 0.0
O214 O 0.04228 0.54872 0.47598 0.0
O215 O 0.05534 0.51657 0.54965 0.0
Mn216 Mn 0.09248 0.49588 0.52469 0.0
O217 O 0.03047 0.46089 0.48238 0.0
O218 O 0.10354 0.52805 0.48318 0.0
O219 O 0.9886 0.55857 0.53805 0.0
O220 O 0.94127 0.57772 0.50124 0.0
O221 O 0.1183 0.50821 0.56693 0.0
O222 O 0.07963 0.44307 0.51777 0.0
C223 C 0.9347 0.49803 0.44608 0.0
C224 C 0.93944 0.47136 0.55351 0.0
C225 C 0.07911 0.55001 0.46755 0.0
C226 C 0.08441 0.52089 0.57452 0.0
C227 C 0.05545 0.4357 0.49146 0.0
C228 C 0.9649 0.58463 0.52805 0.0
O229 O 0.96345 0.50277 0.47118 0.0
O230 O 0.90105 0.51155 0.45299 0.0
O231 O 0.73826 0.70939 0.28497 0.0
Mn232 Mn 0.75717 0.75598 0.24831 0.0
O233 O 0.67327 0.69203 0.2708 0.0
Mn234 Mn 0.66626 0.73334 0.23738 0.0
O235 O 0.77523 0.80281 0.21136 0.0
O236 O 0.80344 0.77129 0.28299 0.0
Mn237 Mn 0.84711 0.7813 0.25743 0.0
O238 O 0.79067 0.71725 0.2205 0.0
O239 O 0.83846 0.82464 0.22734 0.0
O240 O 0.72336 0.79473 0.27585 0.0
O241 O 0.65934 0.78164 0.25688 0.0
O242 O 0.86325 0.78909 0.30516 0.0
O243 O 0.85544 0.73585 0.23391 0.0
C244 C 0.69181 0.72915 0.18465 0.0
C245 C 0.70533 0.68696 0.28913 0.0
C246 C 0.80651 0.8278 0.20843 0.0
C247 C 0.82545 0.78177 0.3114 0.0
C248 C 0.82818 0.71316 0.21827 0.0
C249 C 0.68651 0.80244 0.27465 0.0
O250 O 0.71144 0.74042 0.21393 0.0
O251 O 0.65362 0.72254 0.18895 0.0
O252 O 0.80276 0.28248 0.79049 0.0
Mn253 Mn 0.75481 0.25557 0.76134 0.0
O254 O 0.85243 0.24341 0.78098 0.0
Mn255 Mn 0.82896 0.21194 0.74284 0.0
O256 O 0.70808 0.2285 0.73063 0.0
O257 O 0.71593 0.26982 0.80037 0.0
Mn258 Mn 0.68176 0.29732 0.77556 0.0
O259 O 0.74885 0.30819 0.72905 0.0
O260 O 0.65662 0.2647 0.7395 0.0
O261 O 0.76256 0.20213 0.79183 0.0
O262 O 0.79904 0.16627 0.75794 0.0
O263 O 0.66403 0.29587 0.82208 0.0
O264 O 0.70895 0.34353 0.75904 0.0
C265 C 0.81336 0.24701 0.69538 0.0
C266 C 0.83832 0.27252 0.7964 0.0
C267 C 0.6725 0.23737 0.7233 0.0
C268 C 0.69385 0.27505 0.82858 0.0
C269 C 0.73299 0.34075 0.73339 0.0
C270 C 0.77852 0.16966 0.78622 0.0
O271 O 0.79259 0.24066 0.72434 0.0
O272 O 0.84294 0.22547 0.6947 0.0
O273 O 0.71484 0.77476 0.71703 0.0
Mn274 Mn 0.75855 0.76127 0.75537 0.0
O275 O 0.71305 0.84115 0.7205 0.0
Mn276 Mn 0.75393 0.85145 0.75518 0.0
O277 O 0.80195 0.74745 0.79389 0.0
O278 O 0.72934 0.7063 0.76284 0.0
Mn279 Mn 0.76338 0.67153 0.754 0.0
O280 O 0.79493 0.7431 0.71338 0.0
O281 O 0.8044 0.6813 0.78859 0.0
O282 O 0.72234 0.77992 0.79737 0.0
O283 O 0.73752 0.84542 0.80302 0.0
O284 O 0.71698 0.64171 0.76636 0.0
O285 O 0.779 0.67813 0.706 0.0
C286 C 0.81371 0.84583 0.73968 0.0
C287 C 0.70023 0.80731 0.70782 0.0
C288 C 0.81665 0.71474 0.80237 0.0
C289 C 0.70407 0.67594 0.77104 0.0
C290 C 0.79727 0.71099 0.69576 0.0
C291 C 0.71965 0.81262 0.81405 0.0
O292 O 0.78773 0.8161 0.74783 0.0
O293 O 0.80109 0.88039 0.74316 0.0
O294 O 0.47448 0.53348 0.46887 0.0
Mn295 Mn 0.51306 0.50924 0.50736 0.0
O296 O 0.47975 0.59839 0.48417 0.0
Mn297 Mn 0.522 0.60039 0.51857 0.0
O298 O 0.55151 0.48668 0.54654 0.0
O299 O 0.4785 0.45741 0.50818 0.0
Mn300 Mn 0.50664 0.41708 0.50251 0.0
O301 O 0.54954 0.48862 0.46675 0.0
O302 O 0.54358 0.41987 0.54171 0.0
O303 O 0.47701 0.52949 0.54841 0.0
O304 O 0.50581 0.58852 0.5659 0.0
O305 O 0.45458 0.39564 0.5094 0.0
O306 O 0.52915 0.42455 0.45692 0.0
C307 C 0.57772 0.58536 0.49793 0.0
C308 C 0.46327 0.56888 0.46605 0.0
C309 C 0.56 0.45163 0.55614 0.0
C310 C 0.44788 0.43214 0.51394 0.0
C311 C 0.5511 0.45629 0.44912 0.0
C312 C 0.47997 0.55887 0.57041 0.0
O313 O 0.54777 0.56054 0.50655 0.0
O314 O 0.57301 0.62157 0.50581 0.0
O315 O 0.03957 0.46518 0.04033 0.0
Mn316 Mn 0.0195 0.51027 0.00709 0.0
O317 O 0.10695 0.47515 0.03796 0.0
Mn318 Mn 0.11153 0.52208 0.00971 0.0
O319 O 0.99884 0.5551 0.97395 0.0
O320 O 0.96992 0.47489 -0.00498 0.0
Mn321 Mn 0.92788 0.49766 0.00748 0.0
O322 O 0.99315 0.53409 0.05266 0.0
O323 O 0.9318 0.54579 0.98075 0.0
O324 O 0.04623 0.48674 0.96137 0.0
O325 O 0.10937 0.51483 0.95997 0.0
O326 O 0.90833 0.45059 0.98647 0.0
O327 O 0.9322 0.50199 0.05747 0.0
C328 C 0.09263 0.5746 0.03213 0.0
C329 C 0.07465 0.4551 0.04819 0.0
C330 C 0.96342 0.5655 0.9684 0.0
C331 C 0.94572 0.44664 0.98182 0.0
C332 C 0.96058 0.52536 0.07034 0.0
C333 C 0.08032 0.49337 0.94558 0.0
O334 O 0.069 0.54561 0.01944 0.0
O335 O 0.13021 0.57029 0.02921 0.0
H336 H 0.15935 0.11228 0.78847 0.0
H337 H 0.15864 0.10284 0.00512 0.0
H338 H 0.23939 0.18669 0.85761 0.0
H339 H 0.06711 0.04772 0.93332 0.0
H340 H 0.20292 0.11441 0.95262 0.0
H341 H 0.1416 0.06916 0.84157 0.0
C342 C 0.17387 0.11903 0.81476 0.0
C343 C 0.20011 0.15364 0.81889 0.0
C344 C 0.17385 0.09801 0.94868 0.0
C345 C 0.17919 0.10491 0.88 0.0
C346 C 0.14878 0.09106 0.97869 0.0
C347 C 0.10976 0.07301 0.97373 0.0
C348 C 0.15935 0.08735 0.91346 0.0
C349 C 0.09766 0.05962 0.9388 0.0
C350 C 0.1637 0.09441 0.84508 0.0
C351 C 0.21864 0.16055 0.85336 0.0
N352 N 0.12218 0.06756 0.90989 0.0
N353 N 0.20703 0.13696 0.88288 0.0
H354 H 0.075 0.87064 0.07744 0.0
H355 H 0.23379 0.92592 0.22807 0.0
H356 H 0.1125 0.99551 0.08981 0.0
H357 H 0.23827 0.82432 0.15996 0.0
H358 H 0.19215 0.95573 0.1807 0.0
H359 H 0.13266 0.85455 0.11378 0.0
C360 C 0.09526 0.89487 0.08785 0.0
C361 C 0.08881 0.93464 0.08013 0.0
C362 C 0.20344 0.92756 0.17568 0.0
C363 C 0.15566 0.91594 0.12204 0.0
C364 C 0.22754 0.91065 0.2025 0.0
C365 C 0.2388 0.87208 0.19843 0.0
C366 C 0.19018 0.90536 0.14505 0.0
C367 C 0.22998 0.85382 0.16466 0.0
C368 C 0.12854 0.88551 0.10834 0.0
C369 C 0.11618 0.96446 0.09509 0.0
N370 N 0.20507 0.87 0.13985 0.0
N371 N 0.14843 0.95451 0.1156 0.0
H372 H 0.49555 0.92559 0.42565 0.0
H373 H 0.31388 0.78821 0.36276 0.0
H374 H 0.39782 0.88734 0.49595 0.0
H375 H 0.42611 0.78973 0.30761 0.0
H376 H 0.34916 0.81627 0.41654 0.0
H377 H 0.47996 0.86633 0.38917 0.0
C378 C 0.47254 0.90329 0.43478 0.0
C379 C 0.4475 0.91146 0.46306 0.0
C380 C 0.36637 0.81014 0.39295 0.0
C381 C 0.42804 0.84484 0.42113 0.0
C382 C 0.3461 0.7947 0.36204 0.0
C383 C 0.36716 0.7878 0.33052 0.0
C384 C 0.40795 0.81992 0.39205 0.0
C385 C 0.40891 0.79541 0.33132 0.0
C386 C 0.46303 0.86974 0.41362 0.0
C387 C 0.41743 0.88216 0.47379 0.0
N388 N 0.42798 0.81204 0.36137 0.0
N389 N 0.40761 0.85064 0.45206 0.0
H390 H 0.36765 0.1475 0.73848 0.0
H391 H 0.40382 0.10699 0.52843 0.0
H392 H 0.30049 0.19392 0.6477 0.0
H393 H 0.4522 0.03573 0.61535 0.0
H394 H 0.36959 0.14181 0.57347 0.0
H395 H 0.3999 0.10648 0.69582 0.0
C396 C 0.35886 0.14807 0.70966 0.0
C397 C 0.33086 0.17345 0.69657 0.0
C398 C 0.38756 0.11858 0.58295 0.0
C399 C 0.36852 0.12799 0.64764 0.0
C400 C 0.40735 0.09884 0.55724 0.0
C401 C 0.43041 0.06814 0.56821 0.0
C402 C 0.39077 0.10781 0.62024 0.0
C403 C 0.43465 0.05926 0.60586 0.0
C404 C 0.37747 0.12495 0.68536 0.0
C405 C 0.32094 0.17382 0.65904 0.0
N406 N 0.41469 0.07894 0.6307 0.0
N407 N 0.34011 0.15179 0.63583 0.0
H408 H 0.10835 0.8643 0.51189 0.0
H409 H 0.1203 0.82068 0.7287 0.0
H410 H 0.03442 0.91418 0.59017 0.0
H411 H 0.20871 0.78964 0.65341 0.0
H412 H 0.08304 0.84765 0.67713 0.0
H413 H 0.13846 0.82745 0.56207 0.0
C414 C 0.09766 0.86687 0.53946 0.0
C415 C 0.06886 0.89282 0.54675 0.0
C416 C 0.11053 0.83486 0.67182 0.0
C417 C 0.10359 0.85087 0.6044 0.0
C418 C 0.13185 0.8195 0.70127 0.0
C419 C 0.16766 0.80293 0.69536 0.0
C420 C 0.12489 0.83339 0.63605 0.0
C421 C 0.18137 0.80243 0.65925 0.0
C422 C 0.11516 0.84601 0.56815 0.0
C423 C 0.05623 0.89461 0.58308 0.0
N424 N 0.15988 0.81736 0.63092 0.0
N425 N 0.07393 0.87429 0.61056 0.0
H426 H 0.33065 0.81519 0.81813 0.0
H427 H 0.44535 0.02676 0.86845 0.0
H428 H 0.35862 0.91009 0.73893 0.0
H429 H 0.4324 0.92822 0.94582 0.0
H430 H 0.41458 0.98389 0.82052 0.0
H431 H 0.36343 0.85696 0.86637 0.0
C432 C 0.34197 0.84545 0.81116 0.0
C433 C 0.34082 0.85958 0.77453 0.0
C434 C 0.4193 0.97119 0.84771 0.0
C435 C 0.38056 0.90679 0.82923 0.0
C436 C 0.43782 0.99551 0.87487 0.0
C437 C 0.44269 0.98077 0.91089 0.0
C438 C 0.40452 0.93187 0.85671 0.0
C439 C 0.43048 0.94043 0.9181 0.0
C440 C 0.36168 0.86895 0.83857 0.0
C441 C 0.35794 0.89838 0.76691 0.0
N442 N 0.41141 0.91754 0.89145 0.0
N443 N 0.37723 0.92042 0.79383 0.0
H444 H 0.48259 0.08167 0.10807 0.0
H445 H 0.32057 0.23409 0.14547 0.0
H446 H 0.43201 0.15299 0.02231 0.0
H447 H 0.37068 0.15854 0.22791 0.0
H448 H 0.36828 0.21313 0.10098 0.0
H449 H 0.44984 0.11835 0.15367 0.0
C450 C 0.4656 0.10575 0.09881 0.0
C451 C 0.45997 0.11398 0.06117 0.0
C452 C 0.36908 0.20163 0.129 0.0
C453 C 0.42132 0.15558 0.11332 0.0
C454 C 0.34202 0.21379 0.15434 0.0
C455 C 0.34137 0.19759 0.19021 0.0
C456 C 0.39561 0.17346 0.13992 0.0
C457 C 0.36976 0.17128 0.20032 0.0
C458 C 0.44644 0.12647 0.12488 0.0
C459 C 0.43703 0.14536 0.051 0.0
N460 N 0.39531 0.15984 0.17537 0.0
N461 N 0.41812 0.16454 0.07678 0.0
H462 H 0.07249 0.07895 0.45072 0.0
H463 H 0.14147 0.14622 0.25152 0.0
H464 H 0.0394 0.01572 0.35192 0.0
H465 H 0.18894 0.20126 0.35044 0.0
H466 H 0.08451 0.11508 0.28566 0.0
H467 H 0.09496 0.13785 0.41331 0.0
C468 C 0.06799 0.07806 0.4212 0.0
C469 C 0.05371 0.04233 0.40444 0.0
C470 C 0.10646 0.13517 0.29978 0.0
C471 C 0.08093 0.10931 0.36125 0.0
C472 C 0.13862 0.15365 0.28004 0.0
C473 C 0.1698 0.17649 0.29813 0.0
C474 C 0.10591 0.13893 0.33813 0.0
C475 C 0.16524 0.1842 0.33538 0.0
C476 C 0.08137 0.11162 0.39977 0.0
C477 C 0.04974 0.0427 0.36599 0.0
N478 N 0.13457 0.16451 0.35443 0.0
N479 N 0.06391 0.0753 0.34573 0.0
H480 H 0.79936 0.20136 0.11627 0.0
H481 H 0.89923 0.04785 0.04858 0.0
H482 H 0.82946 0.1538 0.22314 0.0
H483 H 0.979 0.08543 0.13816 0.0
H484 H 0.84554 0.07927 0.07768 0.0
H485 H 0.83561 0.15095 0.08794 0.0
C486 C 0.81214 0.17922 0.13367 0.0
C487 C 0.81039 0.181 0.17204 0.0
C488 C 0.87454 0.07967 0.09135 0.0
C489 C 0.85345 0.12458 0.14001 0.0
C490 C 0.90497 0.06122 0.07513 0.0
C491 C 0.94346 0.06355 0.09133 0.0
C492 C 0.88255 0.09989 0.1243 0.0
C493 C 0.94962 0.08249 0.12509 0.0
C494 C 0.83299 0.15063 0.11754 0.0
C495 C 0.82903 0.15265 0.19344 0.0
N496 N 0.91951 0.09994 0.14047 0.0
N497 N 0.85069 0.12631 0.17718 0.0
H498 H 0.06513 0.62728 0.4669 0.0
H499 H 0.19389 0.70181 0.30097 0.0
H500 H 0.13176 0.54385 0.41318 0.0
H501 H 0.19698 0.77015 0.39919 0.0
H502 H 0.16588 0.64345 0.33556 0.0
H503 H 0.1036 0.68184 0.43373 0.0
C504 C 0.08726 0.62054 0.44746 0.0
C505 C 0.09568 0.58141 0.44257 0.0
C506 C 0.17408 0.67084 0.34981 0.0
C507 C 0.13949 0.6429 0.40541 0.0
C508 C 0.19124 0.7038 0.3304 0.0
C509 C 0.20015 0.74001 0.34794 0.0
C510 C 0.16371 0.67499 0.38634 0.0
C511 C 0.19173 0.74224 0.3852 0.0
C512 C 0.10952 0.65151 0.42917 0.0
C513 C 0.12481 0.57388 0.41757 0.0
N514 N 0.17321 0.71018 0.40319 0.0
N515 N 0.14574 0.60452 0.39961 0.0
H516 H 0.55811 0.87543 0.53054 0.0
H517 H 0.62789 0.81842 0.73204 0.0
H518 H 0.52952 0.93328 0.6289 0.0
H519 H 0.68969 0.79541 0.63389 0.0
H520 H 0.57055 0.83538 0.69447 0.0
H521 H 0.58299 0.82176 0.56834 0.0
C522 C 0.55489 0.87557 0.56008 0.0
C523 C 0.54186 0.90863 0.5768 0.0
C524 C 0.59606 0.8254 0.68113 0.0
C525 C 0.57104 0.84832 0.61997 0.0
C526 C 0.62867 0.8157 0.70251 0.0
C527 C 0.66327 0.80593 0.68578 0.0
C528 C 0.59848 0.82586 0.64272 0.0
C529 C 0.6633 0.80288 0.64758 0.0
C530 C 0.56959 0.84526 0.5816 0.0
C531 C 0.53915 0.90809 0.61509 0.0
N532 N 0.63153 0.81362 0.62713 0.0
N533 N 0.55442 0.87877 0.63549 0.0
H534 H 0.35643 0.47488 0.94751 0.0
H535 H 0.33441 0.25281 0.87774 0.0
H536 H 0.44154 0.38914 0.96788 0.0
H537 H 0.28793 0.34849 0.81577 0.0
H538 H 0.35166 0.29774 0.92838 0.0
H539 H 0.31328 0.42461 0.91368 0.0
C540 C 0.36581 0.4454 0.94505 0.0
C541 C 0.40269 0.43612 0.95999 0.0
C542 C 0.33599 0.30847 0.90435 0.0
C543 C 0.35315 0.37858 0.92291 0.0
C544 C 0.32534 0.28264 0.87583 0.0
C545 C 0.30931 0.29706 0.84284 0.0
C546 C 0.3306 0.34885 0.89953 0.0
C547 C 0.29911 0.33617 0.84125 0.0
C548 C 0.34117 0.41683 0.92602 0.0
C549 C 0.41359 0.3976 0.95622 0.0
N550 N 0.31097 0.36122 0.86883 0.0
N551 N 0.38887 0.37019 0.93809 0.0
H552 H 0.83183 0.7522 0.38104 0.0
H553 H 0.86088 0.97696 0.44258 0.0
H554 H 0.79361 0.85009 0.31618 0.0
H555 H 0.93208 0.88484 0.48178 0.0
H556 H 0.81716 0.92718 0.409 0.0
H557 H 0.84609 0.7965 0.4328 0.0
C558 C 0.82381 0.78238 0.37859 0.0
C559 C 0.81069 0.79749 0.34472 0.0
C560 C 0.84194 0.91781 0.42547 0.0
C561 C 0.82884 0.84854 0.40262 0.0
C562 C 0.8669 0.94612 0.44437 0.0
C563 C 0.90024 0.93479 0.46427 0.0
C564 C 0.8501 0.87792 0.4272 0.0
C565 C 0.907 0.89465 0.466 0.0
C566 C 0.83275 0.80784 0.40779 0.0
C567 C 0.80233 0.83713 0.34233 0.0
N568 N 0.88215 0.86758 0.44756 0.0
N569 N 0.81236 0.86162 0.37062 0.0
H570 H 0.48197 0.58018 0.64219 0.0
H571 H 0.30101 0.70078 0.61882 0.0
H572 H 0.40193 0.55752 0.54931 0.0
H573 H 0.33124 0.65538 0.72651 0.0
H574 H 0.33802 0.65029 0.59147 0.0
H575 H 0.4287 0.60943 0.6738 0.0
C576 C 0.4527 0.58008 0.62907 0.0
C577 C 0.44595 0.56555 0.59356 0.0
C578 C 0.33545 0.65061 0.62105 0.0
C579 C 0.38579 0.60088 0.62852 0.0
C580 C 0.31411 0.67918 0.63661 0.0
C581 C 0.31226 0.68163 0.67491 0.0
C582 C 0.35641 0.62546 0.64401 0.0
C583 C 0.33104 0.65381 0.69683 0.0
C584 C 0.42244 0.59698 0.64695 0.0
C585 C 0.40792 0.56744 0.57711 0.0
N586 N 0.35317 0.62753 0.68112 0.0
N587 N 0.37953 0.5857 0.59435 0.0
H588 H 0.56245 0.12623 0.97247 0.0
H589 H 0.73866 0.21514 0.84818 0.0
H590 H 0.66017 0.06004 0.94426 0.0
H591 H 0.65049 0.28368 0.88961 0.0
H592 H 0.71966 0.16191 0.89287 0.0
H593 H 0.5995 0.18668 0.94876 0.0
C594 C 0.59151 0.12437 0.96074 0.0
C595 C 0.60812 0.08809 0.95973 0.0
C596 C 0.70492 0.18892 0.89277 0.0
C597 C 0.65097 0.15721 0.93315 0.0
C598 C 0.7161 0.2191 0.86721 0.0
C599 C 0.69484 0.25219 0.86356 0.0
C600 C 0.67182 0.19244 0.91472 0.0
C601 C 0.66659 0.25754 0.89026 0.0
C602 C 0.61296 0.15899 0.94782 0.0
C603 C 0.64628 0.08748 0.94522 0.0
N604 N 0.65496 0.22735 0.91406 0.0
N605 N 0.66631 0.12154 0.93211 0.0
H606 H 0.11991 0.39738 0.03065 0.0
H607 H 0.13542 0.32917 0.23534 0.0
H608 H 0.03926 0.42874 0.11274 0.0
H609 H 0.20144 0.28224 0.14949 0.0
H610 H 0.08818 0.35176 0.18943 0.0
H611 H 0.13828 0.34264 0.07035 0.0
C612 C 0.10562 0.39217 0.05695 0.0
C613 C 0.07886 0.41792 0.06899 0.0
C614 C 0.11215 0.33542 0.18051 0.0
C615 C 0.10024 0.35599 0.11496 0.0
C616 C 0.13896 0.32238 0.20675 0.0
C617 C 0.17229 0.30432 0.19586 0.0
C618 C 0.11953 0.33127 0.14309 0.0
C619 C 0.17598 0.29617 0.15875 0.0
C620 C 0.11595 0.36084 0.07957 0.0
C621 C 0.06045 0.40969 0.1028 0.0
N622 N 0.15041 0.31065 0.13347 0.0
N623 N 0.07227 0.37993 0.12512 0.0
H624 H 0.58114 0.58192 0.95166 0.0
H625 H 0.63038 0.64938 0.74638 0.0
H626 H 0.53903 0.51861 0.85515 0.0
H627 H 0.69377 0.69911 0.84101 0.0
H628 H 0.57777 0.61901 0.78622 0.0
H629 H 0.60287 0.63997 0.9126 0.0
C630 C 0.5745 0.58094 0.92241 0.0
C631 C 0.55783 0.54542 0.90666 0.0
C632 C 0.60237 0.63774 0.79832 0.0
C633 C 0.58389 0.61134 0.8616 0.0
C634 C 0.63207 0.65572 0.77542 0.0
C635 C 0.66626 0.677 0.79039 0.0
C636 C 0.60726 0.64038 0.83665 0.0
C637 C 0.66757 0.68335 0.82834 0.0
C638 C 0.58747 0.61395 0.90004 0.0
C639 C 0.55121 0.54548 0.86848 0.0
N640 N 0.63905 0.66423 0.85033 0.0
N641 N 0.56475 0.57759 0.84728 0.0
H642 H 0.61285 0.31177 0.22477 0.0
H643 H 0.60728 0.36285 0.0092 0.0
H644 H 0.70636 0.28917 0.15119 0.0
H645 H 0.52894 0.4076 0.08673 0.0
H646 H 0.63585 0.32418 0.05893 0.0
H647 H 0.57529 0.33747 0.17278 0.0
C648 C 0.62546 0.31215 0.19765 0.0
C649 C 0.66285 0.29844 0.19236 0.0
C650 C 0.61188 0.34198 0.06491 0.0
C651 C 0.61977 0.32745 0.1326 0.0
C652 C 0.59527 0.36387 0.03646 0.0
C653 C 0.56588 0.38914 0.04381 0.0
C654 C 0.59879 0.34509 0.10092 0.0
C655 C 0.55145 0.3888 0.07968 0.0
C656 C 0.60395 0.32676 0.16797 0.0
C657 C 0.67779 0.29978 0.1566 0.0
N658 N 0.56835 0.36758 0.10697 0.0
N659 N 0.65617 0.31402 0.12806 0.0
H660 H 0.93036 0.41748 0.44626 0.0
H661 H 0.84836 0.41115 0.23756 0.0
H662 H 0.93142 0.52067 0.3745 0.0
H663 H 0.82761 0.31282 0.3145 0.0
H664 H 0.88041 0.45137 0.28678 0.0
H665 H 0.8991 0.37672 0.39654 0.0
C666 C 0.92599 0.43117 0.4194 0.0
C667 C 0.9347 0.47232 0.4141 0.0
C668 C 0.86808 0.42127 0.29321 0.0
C669 C 0.89682 0.42644 0.35774 0.0
C670 C 0.849 0.39857 0.26523 0.0
C671 C 0.83424 0.35889 0.27205 0.0
C672 C 0.87331 0.404 0.32832 0.0
C673 C 0.83741 0.34358 0.30817 0.0
C674 C 0.90712 0.40812 0.39133 0.0
C675 C 0.92637 0.48888 0.37936 0.0
N676 N 0.85704 0.36596 0.33483 0.0
N677 N 0.9077 0.46604 0.35267 0.0
H678 H 0.657 0.6077 0.50379 0.0
H679 H 0.66024 0.61573 0.28765 0.0
H680 H 0.5665 0.55144 0.43163 0.0
H681 H 0.74264 0.68719 0.35715 0.0
H682 H 0.641 0.57291 0.34053 0.0
H683 H 0.70228 0.61787 0.45192 0.0
C684 C 0.64753 0.59552 0.47742 0.0
C685 C 0.60853 0.57759 0.47211 0.0
C686 C 0.66393 0.59742 0.34419 0.0
C687 C 0.65921 0.59036 0.41253 0.0
C688 C 0.67494 0.62187 0.31398 0.0
C689 C 0.70231 0.65562 0.31829 0.0
C690 C 0.67969 0.6073 0.37917 0.0
C691 C 0.72103 0.66175 0.35278 0.0
C692 C 0.67318 0.60161 0.44777 0.0
C693 C 0.59698 0.56346 0.43732 0.0
N694 N 0.70858 0.63841 0.38219 0.0
N695 N 0.622 0.5707 0.40871 0.0
H696 H 0.84696 0.35269 0.80024 0.0
H697 H 0.94222 0.367 0.99211 0.0
H698 H 0.88931 0.24693 0.84937 0.0
H699 H 0.96678 0.4614 0.91177 0.0
H700 H 0.92596 0.32046 0.94233 0.0
H701 H 0.89019 0.39287 0.84289 0.0
C702 C 0.86553 0.33805 0.82002 0.0
C703 C 0.86474 0.29665 0.82154 0.0
C704 C 0.93667 0.35097 0.93556 0.0
C705 C 0.91383 0.34211 0.87033 0.0
C706 C 0.94644 0.37735 0.96391 0.0
C707 C 0.95637 0.41775 0.95578 0.0
C708 C 0.93561 0.36571 0.8992 0.0
C709 C 0.9598 0.43026 0.91895 0.0
C710 C 0.89048 0.3609 0.84399 0.0
C711 C 0.88941 0.2789 0.84743 0.0
N712 N 0.94834 0.40452 0.8919 0.0
N713 N 0.91253 0.30175 0.87142 0.0
H714 H 0.84415 0.90229 0.21302 0.0
H715 H 0.86632 0.91046 -0.00156 0.0
H716 H 0.77388 0.82529 0.13853 0.0
H717 H 0.95008 0.96464 0.07779 0.0
H718 H 0.81609 0.90022 0.04635 0.0
H719 H 0.86451 0.94654 0.1614 0.0
C720 C 0.83216 0.89528 0.18583 0.0
C721 C 0.80818 0.85962 0.1798 0.0
C722 C 0.84479 0.91628 0.05278 0.0
C723 C 0.83224 0.90951 0.12049 0.0
C724 C 0.87327 0.92243 0.0254 0.0
C725 C 0.91184 0.93979 0.03391 0.0
C726 C 0.85542 0.9271 0.08894 0.0
C727 C 0.92009 0.95348 0.06945 0.0
C728 C 0.84382 0.92053 0.15635 0.0
C729 C 0.79287 0.85227 0.14421 0.0
N730 N 0.89229 0.94633 0.09579 0.0
N731 N 0.8061 0.87646 0.11562 0.0
H732 H 0.79285 0.09126 0.78603 0.0
H733 H 0.91226 0.11682 0.97742 0.0
H734 H 0.79476 0.19112 0.8571 0.0
H735 H 0.93951 0.03128 0.89849 0.0
H736 H 0.85554 0.13261 0.93946 0.0
H737 H 0.83314 0.05796 0.83243 0.0
C738 C 0.79968 0.10532 0.8121 0.0
C739 C 0.78868 0.1437 0.81797 0.0
C740 C 0.87376 0.11036 0.93022 0.0
C741 C 0.83528 0.10605 0.87079 0.0
C742 C 0.90644 0.10152 0.9518 0.0
C743 C 0.93138 0.07357 0.94055 0.0
C744 C 0.86585 0.09158 0.89661 0.0
C745 C 0.92136 0.05354 0.9078 0.0
C746 C 0.82308 0.08646 0.83834 0.0
C747 C 0.79959 0.16086 0.85185 0.0
N748 N 0.88962 0.06343 0.88654 0.0
N749 N 0.82235 0.1421 0.87664 0.0
H750 H 0.59151 0.22006 0.7128 0.0
H751 H 0.62589 0.13498 0.51625 0.0
H752 H 0.70484 0.21395 0.66112 0.0
H753 H 0.53314 0.0817 0.58655 0.0
H754 H 0.63853 0.1897 0.55852 0.0
H755 H 0.55735 0.1904 0.65794 0.0
C756 C 0.60908 0.21256 0.68991 0.0
C757 C 0.65098 0.21852 0.69168 0.0
C758 C 0.61421 0.16693 0.56391 0.0
C759 C 0.61236 0.18693 0.62887 0.0
C760 C 0.60651 0.13611 0.5395 0.0
C761 C 0.57889 0.10376 0.54843 0.0
C762 C 0.59421 0.16492 0.59736 0.0
C763 C 0.55478 0.10623 0.57894 0.0
C764 C 0.58963 0.1961 0.6587 0.0
C765 C 0.6725 0.20892 0.66123 0.0
N766 N 0.56389 0.13576 0.60322 0.0
N767 N 0.65293 0.19365 0.63107 0.0
H768 H 0.66302 0.96426 0.44718 0.0
H769 H 0.6153 0.83505 0.26924 0.0
H770 H 0.54654 0.95368 0.39352 0.0
H771 H 0.72626 0.84189 0.3313 0.0
H772 H 0.59079 0.88279 0.31005 0.0
H773 H 0.68792 0.92585 0.39986 0.0
C774 C 0.64234 0.95386 0.42545 0.0
C775 C 0.60192 0.96132 0.42531 0.0
C776 C 0.62081 0.87435 0.31435 0.0
C777 C 0.63093 0.91635 0.37038 0.0
C778 C 0.63494 0.84709 0.29108 0.0
C779 C 0.67343 0.83476 0.29659 0.0
C780 C 0.6454 0.88956 0.3433 0.0
C781 C 0.6972 0.8513 0.32536 0.0
C782 C 0.65681 0.93165 0.39831 0.0
C783 C 0.57731 0.94728 0.39578 0.0
N784 N 0.68281 0.87769 0.34769 0.0
N785 N 0.59212 0.92503 0.36961 0.0
H786 H 0.82147 0.22256 0.36177 0.0
H787 H 0.98673 0.07969 0.4117 0.0
H788 H 0.91194 0.199 0.28532 0.0
H789 H 0.93025 0.14145 0.49501 0.0
H790 H 0.95972 0.12249 0.36487 0.0
H791 H 0.85862 0.19024 0.4108 0.0
C792 C 0.84911 0.21062 0.35529 0.0
C793 C 0.86368 0.21348 0.3194 0.0
C794 C 0.95389 0.12723 0.39346 0.0
C795 C 0.90614 0.17669 0.37524 0.0
C796 C 0.97 0.10317 0.4204 0.0
C797 C 0.96155 0.10724 0.45758 0.0
C798 C 0.92804 0.15486 0.4036 0.0
C799 C 0.93767 0.13716 0.46673 0.0
C800 C 0.87043 0.19253 0.38333 0.0
C801 C 0.89972 0.19765 0.31262 0.0
N802 N 0.92117 0.15938 0.43987 0.0
N803 N 0.91955 0.17966 0.34021 0.0
H804 H 0.69939 0.20086 0.19965 0.0
H805 H 0.57879 0.99172 0.15182 0.0
H806 H 0.67605 0.10464 0.27844 0.0
H807 H 0.58813 0.09164 0.07584 0.0
H808 H 0.61296 0.03334 0.19893 0.0
H809 H 0.6631 0.1603 0.15251 0.0
C810 C 0.68835 0.17054 0.20665 0.0
C811 C 0.69153 0.15582 0.24295 0.0
C812 C 0.60668 0.04663 0.17231 0.0
C813 C 0.64796 0.10995 0.18963 0.0
C814 C 0.58613 0.02307 0.14569 0.0
C815 C 0.5796 0.03845 0.11015 0.0
C816 C 0.62158 0.08587 0.16321 0.0
C817 C 0.5915 0.0789 0.10322 0.0
C818 C 0.66665 0.14773 0.17993 0.0
C819 C 0.67504 0.11684 0.25066 0.0
N820 N 0.61257 0.10104 0.12925 0.0
N821 N 0.65373 0.09548 0.22444 0.0
H822 H 0.64242 0.821 0.79751 0.0
H823 H 0.58663 0.86678 0.00219 0.0
H824 H 0.72533 0.81667 0.8891 0.0
H825 H 0.54694 0.9376 0.91067 0.0
H826 H 0.62236 0.82912 0.95999 0.0
H827 H 0.59332 0.84531 0.8382 0.0
C828 C 0.6496 0.82368 0.82653 0.0
C829 C 0.68746 0.81577 0.84028 0.0
C830 C 0.60508 0.85227 0.94904 0.0
C831 C 0.63188 0.84391 0.88668 0.0
C832 C 0.5843 0.87364 0.97302 0.0
C833 C 0.56387 0.90575 0.96012 0.0
C834 C 0.60488 0.86221 0.91151 0.0
C835 C 0.56202 0.91304 0.92192 0.0
C836 C 0.62186 0.83807 0.84951 0.0
C837 C 0.69606 0.8213 0.87771 0.0
N838 N 0.58268 0.89165 0.89891 0.0
N839 N 0.66841 0.8349 0.89966 0.0
H840 H 0.99551 0.98836 0.64996 0.0
H841 H 0.82816 0.81192 0.6746 0.0
H842 H 0.94414 0.91912 0.56017 0.0
H843 H 0.88545 0.87949 0.76293 0.0
H844 H 0.88384 0.83584 0.63475 0.0
H845 H 0.97151 0.93501 0.69288 0.0
C846 C 0.98093 0.96102 0.63911 0.0
C847 C 0.97207 0.95817 0.6014 0.0
C848 C 0.88509 0.84426 0.66325 0.0
C849 C 0.94181 0.89779 0.65065 0.0
C850 C 0.85356 0.82999 0.6862 0.0
C851 C 0.85245 0.84357 0.72216 0.0
C852 C 0.91527 0.87265 0.67638 0.0
C853 C 0.88541 0.86813 0.73541 0.0
C854 C 0.96654 0.93069 0.66371 0.0
C855 C 0.95196 0.92241 0.58902 0.0
N856 N 0.91497 0.88251 0.7124 0.0
N857 N 0.9365 0.89414 0.61359 0.0
H858 H 0.22986 0.81017 0.90068 0.0
H859 H 0.06434 0.95735 0.87351 0.0
H860 H 0.2078 0.86648 0.79566 0.0
H861 H 0.11722 0.93171 0.97928 0.0
H862 H 0.11972 0.92895 0.84391 0.0
H863 H 0.19304 0.85882 0.93026 0.0
C864 C 0.21865 0.83386 0.88407 0.0
C865 C 0.22256 0.83478 0.84582 0.0
C866 C 0.11975 0.93046 0.87357 0.0
C867 C 0.17841 0.88936 0.87912 0.0
C868 C 0.08832 0.94687 0.89034 0.0
C869 C 0.08689 0.94751 0.9287 0.0
C870 C 0.14899 0.91347 0.89548 0.0
C871 C 0.11791 0.93252 0.94952 0.0
C872 C 0.1972 0.86139 0.90086 0.0
C873 C 0.20629 0.86533 0.82535 0.0
N874 N 0.1473 0.91552 0.9327 0.0
N875 N 0.18415 0.89088 0.84215 0.0
H876 H 0.95383 0.39416 0.55895 0.0
H877 H 0.82269 0.32126 0.72149 0.0
H878 H 0.8845 0.48024 0.60547 0.0
H879 H 0.81694 0.2554 0.62163 0.0
H880 H 0.85003 0.38051 0.68738 0.0
H881 H 0.9137 0.34131 0.59268 0.0
C882 C 0.93076 0.40191 0.57694 0.0
C883 C 0.922 0.44124 0.57945 0.0
C884 C 0.8413 0.35347 0.67276 0.0
C885 C 0.87628 0.38158 0.61728 0.0
C886 C 0.82471 0.31996 0.69194 0.0
C887 C 0.81574 0.28403 0.67383 0.0
C888 C 0.85087 0.35006 0.63591 0.0
C889 C 0.82252 0.28294 0.63617 0.0
C890 C 0.90757 0.37187 0.59555 0.0
C891 C 0.89167 0.44998 0.60281 0.0
N892 N 0.84061 0.31538 0.61848 0.0
N893 N 0.86975 0.42021 0.62112 0.0
H894 H 0.49419 0.08961 0.36806 0.0
H895 H 0.33059 0.20798 0.39744 0.0
H896 H 0.48556 0.13737 0.47563 0.0
H897 H 0.39586 0.23168 0.29762 0.0
H898 H 0.39189 0.19019 0.42854 0.0
H899 H 0.46728 0.14847 0.34104 0.0
C900 C 0.48872 0.11359 0.38577 0.0
C901 C 0.492 0.10882 0.42401 0.0
C902 C 0.39331 0.20099 0.40027 0.0
C903 C 0.45903 0.17475 0.39372 0.0
C904 C 0.35836 0.21119 0.38266 0.0
C905 C 0.3587 0.22162 0.34527 0.0
C906 C 0.42795 0.19938 0.3797 0.0
C907 C 0.39494 0.22423 0.32674 0.0
C908 C 0.47306 0.14707 0.37043 0.0
C909 C 0.4836 0.14022 0.44595 0.0
N910 N 0.42799 0.21184 0.34382 0.0
N911 N 0.46588 0.17123 0.43062 0.0
H912 H 0.67406 0.52943 0.05648 0.0
H913 H 0.68155 0.75459 0.11457 0.0
H914 H 0.58433 0.60952 0.0324 0.0
H915 H 0.7358 0.66676 0.18115 0.0
H916 H 0.67014 0.70692 0.06543 0.0
H917 H 0.71565 0.58377 0.08676 0.0
C918 C 0.66332 0.55849 0.05743 0.0
C919 C 0.62554 0.56502 0.04266 0.0
C920 C 0.68606 0.69858 0.09022 0.0
C921 C 0.67328 0.62707 0.07537 0.0
C922 C 0.69337 0.72605 0.11793 0.0
C923 C 0.70911 0.71427 0.15198 0.0
C924 C 0.69439 0.65923 0.09699 0.0
C925 C 0.72354 0.67686 0.15518 0.0
C926 C 0.68708 0.58936 0.07436 0.0
C927 C 0.61294 0.60311 0.04419 0.0
N928 N 0.7145 0.64993 0.12847 0.0
N929 N 0.63678 0.63271 0.06024 0.0
H930 H 0.2292 0.16756 0.67965 0.0
H931 H 0.07992 0.11223 0.52421 0.0
H932 H 0.172 0.25572 0.61612 0.0
H933 H 0.17368 0.03738 0.55055 0.0
H934 H 0.1191 0.16728 0.55387 0.0
H935 H 0.22011 0.12296 0.62802 0.0
C936 C 0.21721 0.17857 0.65389 0.0
C937 C 0.20131 0.21526 0.65198 0.0
C938 C 0.13153 0.13905 0.55278 0.0
C939 C 0.18847 0.16372 0.59385 0.0
C940 C 0.10888 0.10749 0.53633 0.0
C941 C 0.1234 0.07018 0.53567 0.0
C942 C 0.16852 0.13303 0.56967 0.0
C943 C 0.16142 0.06574 0.55094 0.0
C944 C 0.21126 0.15275 0.62459 0.0
C945 C 0.18466 0.22755 0.6185 0.0
N946 N 0.18242 0.09664 0.56813 0.0
N947 N 0.17746 0.20133 0.59106 0.0
H948 H 0.70446 0.36579 0.29085 0.0
H949 H 0.62287 0.44335 0.47763 0.0
H950 H 0.72366 0.31121 0.39724 0.0
H951 H 0.55871 0.45066 0.37438 0.0
H952 H 0.67573 0.41292 0.4469 0.0
H953 H 0.66721 0.41498 0.32002 0.0
C954 C 0.70247 0.36529 0.32052 0.0
C955 C 0.71775 0.33475 0.34178 0.0
C956 C 0.65078 0.4224 0.4307 0.0
C957 C 0.6748 0.39045 0.3751 0.0
C958 C 0.62094 0.44029 0.44811 0.0
C959 C 0.58703 0.45053 0.42828 0.0
C960 C 0.64697 0.41509 0.39298 0.0
C961 C 0.5849 0.44409 0.39039 0.0
C962 C 0.68066 0.39294 0.33702 0.0
C963 C 0.71293 0.33461 0.37996 0.0
N964 N 0.61449 0.4267 0.3739 0.0
N965 N 0.69178 0.36187 0.39538 0.0
H966 H 0.38115 0.98014 0.09749 0.0
H967 H 0.32034 0.74879 0.12072 0.0
H968 H 0.4439 0.89302 0.04472 0.0
H969 H 0.33197 0.82253 0.21564 0.0
H970 H 0.34476 0.80666 0.08239 0.0
H971 H 0.34372 0.92628 0.13302 0.0
C972 C 0.38693 0.94966 0.09351 0.0
C973 C 0.41548 0.94063 0.06847 0.0
C974 C 0.34037 0.81028 0.11144 0.0
C975 C 0.37219 0.87977 0.10728 0.0
C976 C 0.32611 0.7776 0.13309 0.0
C977 C 0.32238 0.78157 0.17094 0.0
C978 C 0.35085 0.84686 0.12798 0.0
C979 C 0.33193 0.81897 0.1862 0.0
C980 C 0.36562 0.91921 0.11352 0.0
C981 C 0.42225 0.90095 0.06408 0.0
N982 N 0.3458 0.85038 0.16462 0.0
N983 N 0.40035 0.87177 0.08307 0.0
H984 H 0.99426 0.58954 0.90143 0.0
H985 H 0.89355 0.70983 0.78596 0.0
H986 H 0.91903 0.62372 0.98673 0.0
H987 H 0.8151 0.71618 0.8768 0.0
H988 H 0.9446 0.68735 0.82798 0.0
H989 H 0.97099 0.64162 0.86121 0.0
C990 C 0.97375 0.60898 0.91196 0.0
C991 C 0.9578 0.60204 0.94698 0.0
C992 C 0.91663 0.69396 0.83918 0.0
C993 C 0.93083 0.66195 0.90143 0.0
C994 C 0.88777 0.70754 0.81514 0.0
C995 C 0.85044 0.71466 0.82822 0.0
C996 C 0.90731 0.68646 0.87636 0.0
C997 C 0.84379 0.71109 0.8659 0.0
C998 C 0.96028 0.6389 0.88897 0.0
C999 C 0.93128 0.62776 0.95949 0.0
N1000 N 0.87175 0.69655 0.88861 0.0
N1001 N 0.9182 0.65616 0.93658 0.0
H1002 H 0.49738 0.48545 0.14865 0.0
H1003 H 0.33073 0.30927 0.1823 0.0
H1004 H 0.43923 0.41649 0.06163 0.0
H1005 H 0.39319 0.37786 0.26741 0.0
H1006 H 0.38358 0.33333 0.13939 0.0
H1007 H 0.47516 0.43262 0.19283 0.0
C1008 C 0.48165 0.45826 0.13859 0.0
C1009 C 0.47053 0.45527 0.10135 0.0
C1010 C 0.38659 0.34198 0.1678 0.0
C1011 C 0.44237 0.39554 0.15217 0.0
C1012 C 0.35669 0.32765 0.19246 0.0
C1013 C 0.35783 0.34148 0.22846 0.0
C1014 C 0.41743 0.37059 0.17929 0.0
C1015 C 0.39143 0.36634 0.2399 0.0
C1016 C 0.46829 0.42824 0.16394 0.0
C1017 C 0.44888 0.4198 0.09007 0.0
N1018 N 0.41939 0.38069 0.2153 0.0
N1019 N 0.43461 0.39182 0.11542 0.0
H1020 H 0.43225 0.64192 -0.00054 0.0
H1021 H 0.40965 0.69088 0.78441 0.0
H1022 H 0.49127 0.58362 0.91543 0.0
H1023 H 0.32874 0.72599 0.86494 0.0
H1024 H 0.4473 0.65974 0.83333 0.0
H1025 H 0.4029 0.68285 0.95172 0.0
C1026 C 0.44 0.6384 0.97111 0.0
C1027 C 0.46441 0.60913 0.96153 0.0
C1028 C 0.42141 0.67437 0.84037 0.0
C1029 C 0.43066 0.65569 0.90683 0.0
C1030 C 0.39991 0.69215 0.81246 0.0
C1031 C 0.36613 0.71112 0.82067 0.0
C1032 C 0.40929 0.67581 0.87688 0.0
C1033 C 0.35454 0.71148 0.85743 0.0
C1034 C 0.42295 0.66159 0.94387 0.0
C1035 C 0.47335 0.60607 0.92432 0.0
N1036 N 0.37621 0.69416 0.88427 0.0
N1037 N 0.45621 0.62876 0.89833 0.0
H1038 H 0.08573 0.60109 0.57594 0.0
H1039 H 0.18011 0.60614 0.78014 0.0
H1040 H 0.09049 0.4968 0.64554 0.0
H1041 H 0.19953 0.70333 0.70179 0.0
H1042 H 0.14458 0.56611 0.7325 0.0
H1043 H 0.11947 0.64132 0.62483 0.0
C1044 C 0.09193 0.58701 0.60227 0.0
C1045 C 0.08449 0.5457 0.60705 0.0
C1046 C 0.15737 0.59588 0.72539 0.0
C1047 C 0.12504 0.59098 0.66229 0.0
C1048 C 0.17847 0.61843 0.7524 0.0
C1049 C 0.19374 0.65779 0.74475 0.0
C1050 C 0.15066 0.61306 0.69051 0.0
C1051 C 0.18927 0.6728 0.70868 0.0
C1052 C 0.11222 0.60977 0.62978 0.0
C1053 C 0.0948 0.52869 0.6411 0.0
N1054 N 0.16763 0.65065 0.68304 0.0
N1055 N 0.11486 0.55126 0.66723 0.0
H1056 H 0.34194 0.39532 0.71073 0.0
H1057 H 0.37081 0.40713 0.49775 0.0
H1058 H 0.27329 0.32 0.63389 0.0
H1059 H 0.44683 0.46898 0.57866 0.0
H1060 H 0.31884 0.39418 0.54371 0.0
H1061 H 0.36256 0.44121 0.66034 0.0
C1062 C 0.33042 0.38902 0.68323 0.0
C1063 C 0.3066 0.35356 0.67621 0.0
C1064 C 0.34609 0.4124 0.5509 0.0
C1065 C 0.33118 0.40513 0.61819 0.0
C1066 C 0.37554 0.42016 0.52455 0.0
C1067 C 0.41264 0.44022 0.53417 0.0
C1068 C 0.35434 0.42428 0.58718 0.0
C1069 C 0.41801 0.45539 0.56947 0.0
C1070 C 0.34223 0.41518 0.65444 0.0
C1071 C 0.29203 0.34693 0.64028 0.0
N1072 N 0.38947 0.44647 0.59489 0.0
N1073 N 0.30548 0.37196 0.61234 0.0
H1074 H 0.10821 0.70062 0.23065 0.0
H1075 H 0.10702 0.65284 0.01728 0.0
H1076 H 0.19423 0.75062 0.15211 0.0
H1077 H 0.05671 0.56857 0.09839 0.0
H1078 H 0.11712 0.70305 0.0644 0.0
H1079 H 0.07081 0.66445 0.18062 0.0
C1080 C 0.11873 0.70431 0.20276 0.0
C1081 C 0.15425 0.72805 0.19515 0.0
C1082 C 0.10253 0.674 0.07168 0.0
C1083 C 0.1117 0.6882 0.13837 0.0
C1084 C 0.09617 0.6456 0.04469 0.0
C1085 C 0.08072 0.60683 0.05406 0.0
C1086 C 0.09395 0.66322 0.10835 0.0
C1087 C 0.06816 0.59843 0.09011 0.0
C1088 C 0.0975 0.68389 0.17439 0.0
C1089 C 0.16704 0.73218 0.15887 0.0
N1090 N 0.07583 0.62624 0.1163 0.0
N1091 N 0.14579 0.71239 0.13179 0.0
H1092 H 0.73956 0.33058 0.65891 0.0
H1093 H 0.63838 0.46293 0.54012 0.0
H1094 H 0.71669 0.4174 0.73828 0.0
H1095 H 0.55834 0.42916 0.62871 0.0
H1096 H 0.6949 0.44454 0.57926 0.0
H1097 H 0.70485 0.3685 0.61177 0.0
C1098 C 0.72908 0.35851 0.66612 0.0
C1099 C 0.73038 0.37039 0.70285 0.0
C1100 C 0.66504 0.44193 0.59017 0.0
C1101 C 0.6896 0.41263 0.64959 0.0
C1102 C 0.63298 0.45244 0.56808 0.0
C1103 C 0.59399 0.44752 0.58148 0.0
C1104 C 0.65783 0.42746 0.62604 0.0
C1105 C 0.58812 0.43361 0.61766 0.0
C1106 C 0.70888 0.37985 0.63927 0.0
C1107 C 0.71571 0.40674 0.71048 0.0
N1108 N 0.61985 0.42419 0.63885 0.0
N1109 N 0.69441 0.42565 0.6845 0.0
H1110 H 0.80633 0.63243 0.21588 0.0
H1111 H 0.98483 0.60384 0.07995 0.0
H1112 H 0.88409 0.72782 0.16747 0.0
H1113 H 0.90804 0.50565 0.12518 0.0
H1114 H 0.95104 0.64914 0.11632 0.0
H1115 H 0.84285 0.58452 0.1837 0.0
C1116 C 0.83043 0.64318 0.19784 0.0
C1117 C 0.84242 0.68386 0.19416 0.0
C1118 C 0.94199 0.61759 0.11885 0.0
C1119 C 0.88463 0.62999 0.15844 0.0
C1120 C 0.96201 0.59161 0.09869 0.0
C1121 C 0.94964 0.55084 0.09992 0.0
C1122 C 0.90915 0.60272 0.14012 0.0
C1123 C 0.91862 0.53691 0.12362 0.0
C1124 C 0.85159 0.616 0.17994 0.0
C1125 C 0.87415 0.69654 0.17102 0.0
N1126 N 0.89909 0.56284 0.14247 0.0
N1127 N 0.89427 0.66975 0.15423 0.0
H1128 H 0.92747 0.64964 0.50885 0.0
H1129 H 0.87525 0.70593 0.7123 0.0
H1130 H 0.97542 0.59005 0.6038 0.0
H1131 H 0.79135 0.70488 0.62104 0.0
H1132 H 0.92493 0.6819 0.67198 0.0
H1133 H 0.89142 0.68907 0.54925 0.0
C1134 C 0.93145 0.64564 0.53829 0.0
C1135 C 0.95442 0.61613 0.55282 0.0
C1136 C 0.89603 0.68797 0.66062 0.0
C1137 C 0.91294 0.66163 0.59937 0.0
C1138 C 0.86794 0.70219 0.68337 0.0
C1139 C 0.82961 0.70834 0.66961 0.0
C1140 C 0.88583 0.68051 0.6237 0.0
C1141 C 0.82092 0.70149 0.6324 0.0
C1142 C 0.91052 0.66801 0.56128 0.0
C1143 C 0.95832 0.6125 0.59129 0.0
N1144 N 0.84884 0.68803 0.6107 0.0
N1145 N 0.93739 0.63472 0.6133 0.0
H1146 H 0.41342 0.625 0.47738 0.0
H1147 H 0.29473 0.59582 0.28747 0.0
H1148 H 0.43008 0.52991 0.40455 0.0
H1149 H 0.28268 0.69122 0.36118 0.0
H1150 H 0.33233 0.56259 0.33539 0.0
H1151 H 0.35648 0.64166 0.44015 0.0
C1152 C 0.40518 0.6076 0.45334 0.0
C1153 C 0.42733 0.57658 0.44357 0.0
C1154 C 0.32061 0.59028 0.34142 0.0
C1155 C 0.36122 0.59558 0.40056 0.0
C1156 C 0.29867 0.60911 0.3142 0.0
C1157 C 0.28619 0.64689 0.31991 0.0
C1158 C 0.33014 0.60934 0.37466 0.0
C1159 C 0.2919 0.66239 0.35523 0.0
C1160 C 0.37228 0.617 0.43222 0.0
C1161 C 0.41423 0.55439 0.4128 0.0
N1162 N 0.31427 0.64403 0.38091 0.0
N1163 N 0.38234 0.56472 0.39202 0.0
H1164 H 0.22484 0.36761 0.80567 0.0
H1165 H 0.0399 0.42479 0.91955 0.0
H1166 H 0.10687 0.30425 0.80053 0.0
H1167 H 0.14535 0.50606 0.90172 0.0
H1168 H 0.06451 0.37973 0.87621 0.0
H1169 H 0.19817 0.41748 0.84359 0.0
C1170 C 0.19362 0.36398 0.81263 0.0
C1171 C 0.16831 0.33148 0.8 0.0
C1172 C 0.08198 0.40774 0.88137 0.0
C1173 C 0.13744 0.38848 0.84258 0.0
C1174 C 0.06749 0.43382 0.90567 0.0
C1175 C 0.09012 0.4696 0.91401 0.0
C1176 C 0.11977 0.41715 0.8658 0.0
C1177 C 0.12674 0.47882 0.89615 0.0
C1178 C 0.17827 0.39263 0.83388 0.0
C1179 C 0.12772 0.32879 0.80933 0.0
N1180 N 0.14066 0.45257 0.87331 0.0
N1181 N 0.11369 0.35671 0.83003 0.0
H1182 H 0.23619 0.31988 0.40086 0.0
H1183 H 0.04468 0.43137 0.41569 0.0
H1184 H 0.15076 0.31613 0.31071 0.0
H1185 H 0.09444 0.3714 0.50954 0.0
H1186 H 0.08236 0.39205 0.37524 0.0
H1187 H 0.18549 0.34226 0.44079 0.0
C1188 C 0.20633 0.32255 0.38987 0.0
C1189 C 0.19714 0.31502 0.35288 0.0
C1190 C 0.08413 0.38696 0.40471 0.0
C1191 C 0.13973 0.34265 0.39763 0.0
C1192 C 0.06228 0.40907 0.42778 0.0
C1193 C 0.06638 0.40483 0.46618 0.0
C1194 C 0.11065 0.36114 0.42024 0.0
C1195 C 0.09044 0.37592 0.48017 0.0
C1196 C 0.1775 0.33562 0.41248 0.0
C1197 C 0.15849 0.32059 0.33945 0.0
N1198 N 0.11224 0.35597 0.45738 0.0
N1199 N 0.13133 0.33471 0.36163 0.0
loop_
_geom_bond_atom_site_label_1
_geom_bond_atom_site_label_2
_geom_bond_distance
_geom_bond_site_symmetry_2
_ccdc_geom_bond_type
O0 Mn1 2.163 1_656 S
O0 C14 1.244 . S
Mn1 O0 2.163 1_454 S
Mn1 O4 2.160 1_545 S
Mn1 O5 2.221 1_445 S
Mn1 O7 2.163 1_544 S
Mn1 O9 2.160 1_455 S
Mn1 O19 2.221 1_554 S
O2 Mn3 2.087 1_655 S
O2 C14 1.256 . S
Mn3 O2 2.087 1_455 S
Mn3 O10 2.089 1_456 S
Mn3 O19 2.290 . S
Mn3 O20 2.251 . S
O4 Mn1 2.160 1_565 S
O4 C15 1.239 . S
O5 Mn1 2.221 1_665 S
O5 Mn6 2.290 1_655 S
O5 C16 1.278 . S
Mn6 O5 2.290 1_455 S
Mn6 O8 2.089 . S
Mn6 O11 2.251 1_455 S
Mn6 O12 2.087 1_554 S
O7 Mn1 2.163 1_566 S
O7 C17 1.244 . S
O8 Mn6 2.089 . S
O8 C15 1.256 . S
O9 Mn1 2.160 1_655 S
O9 C18 1.239 . S
O10 Mn3 2.089 1_654 S
O10 C18 1.256 . S
O11 Mn6 2.251 1_655 S
O11 C16 1.241 . S
O12 Mn6 2.087 1_556 S
O12 C17 1.256 . S
C13 O19 1.278 . S
C13 O20 1.241 . S
C14 O0 1.244 . S
C14 O2 1.256 . S
C15 O4 1.239 . S
C15 O8 1.256 . S
C16 O5 1.278 . S
C16 O11 1.241 . S
C17 O7 1.244 . S
C17 O12 1.256 . S
C18 O9 1.239 . S
C18 O10 1.256 . S
O19 Mn1 2.221 1_556 S
O19 Mn3 2.290 . S
O19 C13 1.278 . S
O20 Mn3 2.251 . S
O20 C13 1.241 . S
O21 Mn22 2.163 . S
O21 C35 1.244 . S
Mn22 O21 2.163 . S
Mn22 O25 2.160 . S
Mn22 O26 2.221 . S
Mn22 O28 2.163 . S
Mn22 O30 2.160 . S
Mn22 O40 2.221 . S
O23 Mn24 2.087 . S
O23 C35 1.256 . S
Mn24 O23 2.087 . S
Mn24 O31 2.089 . S
Mn24 O40 2.290 . S
Mn24 O41 2.251 . S
O25 Mn22 2.160 . S
O25 C36 1.239 . S
O26 Mn22 2.221 . S
O26 Mn27 2.290 . S
O26 C37 1.278 . S
Mn27 O26 2.290 . S
Mn27 O29 2.089 . S
Mn27 O32 2.251 . S
Mn27 O33 2.087 . S
O28 Mn22 2.163 . S
O28 C38 1.244 . S
O29 Mn27 2.089 . S
O29 C36 1.256 . S
O30 Mn22 2.160 . S
O30 C39 1.239 . S
O31 Mn24 2.089 . S
O31 C39 1.256 . S
O32 Mn27 2.251 . S
O32 C37 1.241 . S
O33 Mn27 2.087 . S
O33 C38 1.256 . S
C34 O40 1.278 . S
C34 O41 1.241 . S
C35 O21 1.244 . S
C35 O23 1.256 . S
C36 O25 1.239 . S
C36 O29 1.256 . S
C37 O26 1.278 . S
C37 O32 1.241 . S
C38 O28 1.244 . S
C38 O33 1.256 . S
C39 O30 1.239 . S
C39 O31 1.256 . S
O40 Mn22 2.221 . S
O40 Mn24 2.290 . S
O40 C34 1.278 . S
O41 Mn24 2.251 . S
O41 C34 1.241 . S
O42 Mn43 2.163 1_565 S
O42 C56 1.244 . S
Mn43 O42 2.163 1_545 S
Mn43 O46 2.160 . S
Mn43 O47 2.221 1_545 S
Mn43 O49 2.163 . S
Mn43 O51 2.160 1_545 S
Mn43 O61 2.221 . S
O44 Mn45 2.087 1_565 S
O44 C56 1.256 . S
Mn45 O44 2.087 1_545 S
Mn45 O52 2.089 1_545 S
Mn45 O61 2.290 . S
Mn45 O62 2.251 . S
O46 Mn43 2.160 . S
O46 C57 1.239 . S
O47 Mn43 2.221 1_565 S
O47 Mn48 2.290 1_565 S
O47 C58 1.278 . S
Mn48 O47 2.290 1_545 S
Mn48 O50 2.089 . S
Mn48 O53 2.251 1_545 S
Mn48 O54 2.087 . S
O49 Mn43 2.163 . S
O49 C59 1.244 . S
O50 Mn48 2.089 . S
O50 C57 1.256 . S
O51 Mn43 2.160 1_565 S
O51 C60 1.239 . S
O52 Mn45 2.089 1_565 S
O52 C60 1.256 . S
O53 Mn48 2.251 1_565 S
O53 C58 1.241 . S
O54 Mn48 2.087 . S
O54 C59 1.256 . S
C55 O61 1.278 . S
C55 O62 1.241 . S
C56 O42 1.244 . S
C56 O44 1.256 . S
C57 O46 1.239 . S
C57 O50 1.256 . S
C58 O47 1.278 . S
C58 O53 1.241 . S
C59 O49 1.244 . S
C59 O54 1.256 . S
C60 O51 1.239 . S
C60 O52 1.256 . S
O61 Mn43 2.221 . S
O61 Mn45 2.290 . S
O61 C55 1.278 . S
O62 Mn45 2.251 . S
O62 C55 1.241 . S
O63 Mn64 2.163 . S
O63 C77 1.244 . S
Mn64 O63 2.163 . S
Mn64 O67 2.160 . S
Mn64 O68 2.221 . S
Mn64 O70 2.163 . S
Mn64 O72 2.160 . S
Mn64 O82 2.221 . S
O65 Mn66 2.087 . S
O65 C77 1.256 . S
Mn66 O65 2.087 . S
Mn66 O73 2.089 . S
Mn66 O82 2.290 . S
Mn66 O83 2.251 . S
O67 Mn64 2.160 . S
O67 C78 1.239 . S
O68 Mn64 2.221 . S
O68 Mn69 2.290 . S
O68 C79 1.278 . S
Mn69 O68 2.290 . S
Mn69 O71 2.089 . S
Mn69 O74 2.251 . S
Mn69 O75 2.087 . S
O70 Mn64 2.163 . S
O70 C80 1.244 . S
O71 Mn69 2.089 . S
O71 C78 1.256 . S
O72 Mn64 2.160 . S
O72 C81 1.239 . S
O73 Mn66 2.089 . S
O73 C81 1.256 . S
O74 Mn69 2.251 . S
O74 C79 1.241 . S
O75 Mn69 2.087 . S
O75 C80 1.256 . S
C76 O82 1.278 . S
C76 O83 1.241 . S
C77 O63 1.244 . S
C77 O65 1.256 . S
C78 O67 1.239 . S
C78 O71 1.256 . S
C79 O68 1.278 . S
C79 O74 1.241 . S
C80 O70 1.244 . S
C80 O75 1.256 . S
C81 O72 1.239 . S
C81 O73 1.256 . S
O82 Mn64 2.221 . S
O82 Mn66 2.290 . S
O82 C76 1.278 . S
O83 Mn66 2.251 . S
O83 C76 1.241 . S
O84 Mn85 2.163 1_545 S
O84 C98 1.244 . S
Mn85 O84 2.163 1_565 S
Mn85 O88 2.160 1_455 S
Mn85 O89 2.221 1_455 S
Mn85 O91 2.163 1_465 S
Mn85 O93 2.160 . S
Mn85 O103 2.221 1_565 S
O86 Mn87 2.087 . S
O86 C98 1.256 . S
Mn87 O86 2.087 . S
Mn87 O94 2.089 1_545 S
Mn87 O103 2.290 . S
Mn87 O104 2.251 . S
O88 Mn85 2.160 1_655 S
O88 C99 1.239 . S
O89 Mn85 2.221 1_655 S
O89 Mn90 2.290 . S
O89 C100 1.278 . S
Mn90 O89 2.290 . S
Mn90 O92 2.089 . S
Mn90 O95 2.251 . S
Mn90 O96 2.087 1_565 S
O91 Mn85 2.163 1_645 S
O91 C101 1.244 . S
O92 Mn90 2.089 . S
O92 C99 1.256 . S
O93 Mn85 2.160 . S
O93 C102 1.239 . S
O94 Mn87 2.089 1_565 S
O94 C102 1.256 . S
O95 Mn90 2.251 . S
O95 C100 1.241 . S
O96 Mn90 2.087 1_545 S
O96 C101 1.256 . S
C97 O103 1.278 . S
C97 O104 1.241 . S
C98 O84 1.244 . S
C98 O86 1.256 . S
C99 O88 1.239 . S
C99 O92 1.256 . S
C100 O89 1.278 . S
C100 O95 1.241 . S
C101 O91 1.244 . S
C101 O96 1.256 . S
C102 O93 1.239 . S
C102 O94 1.256 . S
O103 Mn85 2.221 1_545 S
O103 Mn87 2.290 . S
O103 C97 1.278 . S
O104 Mn87 2.251 . S
O104 C97 1.241 . S
O105 Mn106 2.163 . S
O105 C119 1.244 . S
Mn106 O105 2.163 . S
Mn106 O109 2.160 . S
Mn106 O110 2.221 . S
Mn106 O112 2.163 . S
Mn106 O114 2.160 . S
Mn106 O124 2.221 . S
O107 Mn108 2.087 . S
O107 C119 1.256 . S
Mn108 O107 2.087 . S
Mn108 O115 2.089 . S
Mn108 O124 2.290 . S
Mn108 O125 2.251 . S
O109 Mn106 2.160 . S
O109 C120 1.239 . S
O110 Mn106 2.221 . S
O110 Mn111 2.290 . S
O110 C121 1.278 . S
Mn111 O110 2.290 . S
Mn111 O113 2.089 . S
Mn111 O116 2.251 . S
Mn111 O117 2.087 . S
O112 Mn106 2.163 . S
O112 C122 1.244 . S
O113 Mn111 2.089 . S
O113 C120 1.256 . S
O114 Mn106 2.160 . S
O114 C123 1.239 . S
O115 Mn108 2.089 . S
O115 C123 1.256 . S
O116 Mn111 2.251 . S
O116 C121 1.241 . S
O117 Mn111 2.087 . S
O117 C122 1.256 . S
C118 O124 1.278 . S
C118 O125 1.241 . S
C119 O105 1.244 . S
C119 O107 1.256 . S
C120 O109 1.239 . S
C120 O113 1.256 . S
C121 O110 1.278 . S
C121 O116 1.241 . S
C122 O112 1.244 . S
C122 O117 1.256 . S
C123 O114 1.239 . S
C123 O115 1.256 . S
O124 Mn106 2.221 . S
O124 Mn108 2.290 . S
O124 C118 1.278 . S
O125 Mn108 2.251 . S
O125 C118 1.241 . S
O126 Mn127 2.163 1_565 S
O126 C140 1.244 . S
Mn127 O126 2.163 1_545 S
Mn127 O130 2.160 1_554 S
Mn127 O131 2.221 . S
Mn127 O133 2.163 1_544 S
Mn127 O135 2.160 . S
Mn127 O145 2.218 1_544 S
O128 Mn129 2.087 . S
O128 C140 1.256 . S
Mn129 O128 2.087 . S
Mn129 O136 2.089 1_565 S
Mn129 O145 2.291 1_554 S
Mn129 O146 2.251 1_554 S
O130 Mn127 2.160 1_556 S
O130 C141 1.239 . S
O131 Mn127 2.221 . S
O131 Mn132 2.290 . S
O131 C142 1.278 . S
Mn132 O131 2.290 . S
Mn132 O134 2.089 1_554 S
Mn132 O137 2.251 . S
Mn132 O138 2.087 1_545 S
O133 Mn127 2.163 1_566 S
O133 C143 1.244 . S
O134 Mn132 2.089 1_556 S
O134 C141 1.256 . S
O135 Mn127 2.160 . S
O135 C144 1.239 . S
O136 Mn129 2.089 1_545 S
O136 C144 1.256 . S
O137 Mn132 2.251 . S
O137 C142 1.241 . S
O138 Mn132 2.087 1_565 S
O138 C143 1.256 1_554 S
C139 O145 1.286 . S
C139 O146 1.241 . S
C140 O126 1.244 . S
C140 O128 1.256 . S
C141 O130 1.239 . S
C141 O134 1.256 . S
C142 O131 1.278 . S
C142 O137 1.241 . S
C143 O133 1.244 . S
C143 O138 1.256 1_556 S
C144 O135 1.239 . S
C144 O136 1.256 . S
O145 Mn127 2.218 1_566 S
O145 Mn129 2.291 1_556 S
O145 C139 1.286 . S
O146 Mn129 2.251 1_556 S
O146 C139 1.241 . S
O147 Mn148 2.163 . S
O147 C161 1.244 . S
Mn148 O147 2.163 . S
Mn148 O151 2.160 . S
Mn148 O152 2.221 . S
Mn148 O154 2.163 . S
Mn148 O156 2.160 . S
Mn148 O166 2.221 . S
O149 Mn150 2.087 . S
O149 C161 1.256 . S
Mn150 O149 2.087 . S
Mn150 O157 2.089 . S
Mn150 O166 2.290 . S
Mn150 O167 2.251 . S
O151 Mn148 2.160 . S
O151 C162 1.239 . S
O152 Mn148 2.221 . S
O152 Mn153 2.290 . S
O152 C163 1.278 . S
Mn153 O152 2.290 . S
Mn153 O155 2.089 . S
Mn153 O158 2.251 . S
Mn153 O159 2.087 . S
O154 Mn148 2.163 . S
O154 C164 1.244 . S
O155 Mn153 2.089 . S
O155 C162 1.256 . S
O156 Mn148 2.160 . S
O156 C165 1.239 . S
O157 Mn150 2.089 . S
O157 C165 1.256 . S
O158 Mn153 2.251 . S
O158 C163 1.241 . S
O159 Mn153 2.087 . S
O159 C164 1.256 . S
C160 O166 1.278 . S
C160 O167 1.241 . S
C161 O147 1.244 . S
C161 O149 1.256 . S
C162 O151 1.239 . S
C162 O155 1.256 . S
C163 O152 1.278 . S
C163 O158 1.241 . S
C164 O154 1.244 . S
C164 O159 1.256 . S
C165 O156 1.239 . S
C165 O157 1.256 . S
O166 Mn148 2.221 . S
O166 Mn150 2.290 . S
O166 C160 1.278 . S
O167 Mn150 2.251 . S
O167 C160 1.241 . S
O168 Mn169 2.142 1_554 S
O168 C182 1.244 . S
Mn169 O168 2.142 1_556 S
Mn169 O172 2.179 . S
Mn169 O173 2.208 1_556 S
Mn169 O175 2.174 . S
Mn169 O177 2.151 1_556 S
Mn169 O187 2.235 . S
O170 Mn171 2.087 . S
O170 C182 1.256 . S
Mn171 O170 2.087 . S
Mn171 O178 2.089 . S
Mn171 O187 2.290 1_554 S
Mn171 O188 2.251 1_554 S
O172 Mn169 2.179 . S
O172 C183 1.239 . S
O173 Mn169 2.208 1_554 S
O173 Mn174 2.290 1_554 S
O173 C184 1.278 . S
Mn174 O173 2.290 1_556 S
Mn174 O176 2.089 . S
Mn174 O179 2.251 1_556 S
Mn174 O180 2.087 . S
O175 Mn169 2.174 . S
O175 C185 1.244 . S
O176 Mn174 2.089 . S
O176 C183 1.256 . S
O177 Mn169 2.151 1_554 S
O177 C186 1.239 . S
O178 Mn171 2.089 . S
O178 C186 1.256 . S
O179 Mn174 2.251 1_554 S
O179 C184 1.241 . S
O180 Mn174 2.087 . S
O180 C185 1.256 . S
C181 O187 1.278 . S
C181 O188 1.241 . S
C182 O168 1.244 . S
C182 O170 1.256 . S
C183 O172 1.239 . S
C183 O176 1.256 . S
C184 O173 1.278 . S
C184 O179 1.241 . S
C185 O175 1.244 . S
C185 O180 1.256 . S
C186 O177 1.239 . S
C186 O178 1.256 . S
O187 Mn169 2.235 . S
O187 Mn171 2.290 1_556 S
O187 C181 1.278 . S
O188 Mn171 2.251 1_556 S
O188 C181 1.241 . S
O189 Mn190 2.163 . S
O189 C203 1.244 . S
Mn190 O189 2.163 . S
Mn190 O193 2.160 . S
Mn190 O194 2.221 . S
Mn190 O196 2.163 . S
Mn190 O198 2.160 . S
Mn190 O208 2.221 . S
O191 Mn192 2.087 . S
O191 C203 1.256 . S
Mn192 O191 2.087 . S
Mn192 O199 2.089 . S
Mn192 O208 2.290 . S
Mn192 O209 2.251 . S
O193 Mn190 2.160 . S
O193 C204 1.239 . S
O194 Mn190 2.221 . S
O194 Mn195 2.290 . S
O194 C205 1.278 . S
Mn195 O194 2.290 . S
Mn195 O197 2.089 . S
Mn195 O200 2.251 . S
Mn195 O201 2.087 . S
O196 Mn190 2.163 . S
O196 C206 1.244 . S
O197 Mn195 2.089 . S
O197 C204 1.256 . S
O198 Mn190 2.160 . S
O198 C207 1.239 . S
O199 Mn192 2.089 . S
O199 C207 1.256 . S
O200 Mn195 2.251 . S
O200 C205 1.241 . S
O201 Mn195 2.087 . S
O201 C206 1.256 . S
C202 O208 1.278 . S
C202 O209 1.241 . S
C203 O189 1.244 . S
C203 O191 1.256 . S
C204 O193 1.239 . S
C204 O197 1.256 . S
C205 O194 1.278 . S
C205 O200 1.241 . S
C206 O196 1.244 . S
C206 O201 1.256 . S
C207 O198 1.239 . S
C207 O199 1.256 . S
O208 Mn190 2.221 . S
O208 Mn192 2.290 . S
O208 C202 1.278 . S
O209 Mn192 2.251 . S
O209 C202 1.241 . S
O210 Mn211 2.163 1_655 S
O210 C224 1.244 . S
Mn211 O210 2.163 1_455 S
Mn211 O214 2.160 . S
Mn211 O215 2.221 . S
Mn211 O217 2.163 . S
Mn211 O219 2.160 1_455 S
Mn211 O229 2.221 1_455 S
O212 Mn213 2.087 . S
O212 C224 1.256 . S
Mn213 O212 2.087 . S
Mn213 O220 2.089 . S
Mn213 O229 2.290 . S
Mn213 O230 2.251 . S
O214 Mn211 2.160 . S
O214 C225 1.239 . S
O215 Mn211 2.221 . S
O215 Mn216 2.290 . S
O215 C226 1.278 . S
Mn216 O215 2.290 . S
Mn216 O218 2.089 . S
Mn216 O221 2.251 . S
Mn216 O222 2.087 . S
O217 Mn211 2.163 . S
O217 C227 1.244 . S
O218 Mn216 2.089 . S
O218 C225 1.256 . S
O219 Mn211 2.160 1_655 S
O219 C228 1.239 . S
O220 Mn213 2.089 . S
O220 C228 1.256 . S
O221 Mn216 2.251 . S
O221 C226 1.241 . S
O222 Mn216 2.087 . S
O222 C227 1.256 . S
C223 O229 1.278 . S
C223 O230 1.241 . S
C224 O210 1.244 . S
C224 O212 1.256 . S
C225 O214 1.239 . S
C225 O218 1.256 . S
C226 O215 1.278 . S
C226 O221 1.241 . S
C227 O217 1.244 . S
C227 O222 1.256 . S
C228 O219 1.239 . S
C228 O220 1.256 . S
O229 Mn211 2.221 1_655 S
O229 Mn213 2.290 . S
O229 C223 1.278 . S
O230 Mn213 2.251 . S
O230 C223 1.241 . S
O231 Mn232 2.163 . S
O231 C245 1.244 . S
Mn232 O231 2.163 . S
Mn232 O235 2.160 . S
Mn232 O236 2.221 . S
Mn232 O238 2.163 . S
Mn232 O240 2.160 . S
Mn232 O250 2.221 . S
O233 Mn234 2.087 . S
O233 C245 1.256 . S
Mn234 O233 2.087 . S
Mn234 O241 2.089 . S
Mn234 O250 2.290 . S
Mn234 O251 2.251 . S
O235 Mn232 2.160 . S
O235 C246 1.239 . S
O236 Mn232 2.221 . S
O236 Mn237 2.290 . S
O236 C247 1.278 . S
Mn237 O236 2.290 . S
Mn237 O239 2.089 . S
Mn237 O242 2.251 . S
Mn237 O243 2.087 . S
O238 Mn232 2.163 . S
O238 C248 1.244 . S
O239 Mn237 2.089 . S
O239 C246 1.256 . S
O240 Mn232 2.160 . S
O240 C249 1.239 . S
O241 Mn234 2.089 . S
O241 C249 1.256 . S
O242 Mn237 2.251 . S
O242 C247 1.241 . S
O243 Mn237 2.087 . S
O243 C248 1.256 . S
C244 O250 1.278 . S
C244 O251 1.241 . S
C245 O231 1.244 . S
C245 O233 1.256 . S
C246 O235 1.239 . S
C246 O239 1.256 . S
C247 O236 1.278 . S
C247 O242 1.241 . S
C248 O238 1.244 . S
C248 O243 1.256 . S
C249 O240 1.239 . S
C249 O241 1.256 . S
O250 Mn232 2.221 . S
O250 Mn234 2.290 . S
O250 C244 1.278 . S
O251 Mn234 2.251 . S
O251 C244 1.241 . S
O252 Mn253 2.163 . S
O252 C266 1.244 . S
Mn253 O252 2.163 . S
Mn253 O256 2.160 . S
Mn253 O257 2.221 . S
Mn253 O259 2.163 . S
Mn253 O261 2.160 . S
Mn253 O271 2.221 . S
O254 Mn255 2.087 . S
O254 C266 1.256 . S
Mn255 O254 2.087 . S
Mn255 O262 2.089 . S
Mn255 O271 2.290 . S
Mn255 O272 2.251 . S
O256 Mn253 2.160 . S
O256 C267 1.239 . S
O257 Mn253 2.221 . S
O257 Mn258 2.290 . S
O257 C268 1.278 . S
Mn258 O257 2.290 . S
Mn258 O260 2.089 . S
Mn258 O263 2.251 . S
Mn258 O264 2.087 . S
O259 Mn253 2.163 . S
O259 C269 1.244 . S
O260 Mn258 2.089 . S
O260 C267 1.256 . S
O261 Mn253 2.160 . S
O261 C270 1.239 . S
O262 Mn255 2.089 . S
O262 C270 1.256 . S
O263 Mn258 2.251 . S
O263 C268 1.241 . S
O264 Mn258 2.087 . S
O264 C269 1.256 . S
C265 O271 1.278 . S
C265 O272 1.241 . S
C266 O252 1.244 . S
C266 O254 1.256 . S
C267 O256 1.239 . S
C267 O260 1.256 . S
C268 O257 1.278 . S
C268 O263 1.241 . S
C269 O259 1.244 . S
C269 O264 1.256 . S
C270 O261 1.239 . S
C270 O262 1.256 . S
O271 Mn253 2.221 . S
O271 Mn255 2.290 . S
O271 C265 1.278 . S
O272 Mn255 2.251 . S
O272 C265 1.241 . S
O273 Mn274 2.163 . S
O273 C287 1.244 . S
Mn274 O273 2.163 . S
Mn274 O277 2.160 . S
Mn274 O278 2.221 . S
Mn274 O280 2.163 . S
Mn274 O282 2.160 . S
Mn274 O292 2.221 . S
O275 Mn276 2.087 . S
O275 C287 1.256 . S
Mn276 O275 2.087 . S
Mn276 O283 2.089 . S
Mn276 O292 2.290 . S
Mn276 O293 2.251 . S
O277 Mn274 2.160 . S
O277 C288 1.239 . S
O278 Mn274 2.221 . S
O278 Mn279 2.290 . S
O278 C289 1.278 . S
Mn279 O278 2.290 . S
Mn279 O281 2.089 . S
Mn279 O284 2.251 . S
Mn279 O285 2.087 . S
O280 Mn274 2.163 . S
O280 C290 1.244 . S
O281 Mn279 2.089 . S
O281 C288 1.256 . S
O282 Mn274 2.160 . S
O282 C291 1.239 . S
O283 Mn276 2.089 . S
O283 C291 1.256 . S
O284 Mn279 2.251 . S
O284 C289 1.241 . S
O285 Mn279 2.087 . S
O285 C290 1.256 . S
C286 O292 1.278 . S
C286 O293 1.241 . S
C287 O273 1.244 . S
C287 O275 1.256 . S
C288 O277 1.239 . S
C288 O281 1.256 . S
C289 O278 1.278 . S
C289 O284 1.241 . S
C290 O280 1.244 . S
C290 O285 1.256 . S
C291 O282 1.239 . S
C291 O283 1.256 . S
O292 Mn274 2.221 . S
O292 Mn276 2.290 . S
O292 C286 1.278 . S
O293 Mn276 2.251 . S
O293 C286 1.241 . S
O294 Mn295 2.163 . S
O294 C308 1.244 . S
Mn295 O294 2.163 . S
Mn295 O298 2.160 . S
Mn295 O299 2.221 . S
Mn295 O301 2.163 . S
Mn295 O303 2.160 . S
Mn295 O313 2.221 . S
O296 Mn297 2.087 . S
O296 C308 1.256 . S
Mn297 O296 2.087 . S
Mn297 O304 2.089 . S
Mn297 O313 2.290 . S
Mn297 O314 2.251 . S
O298 Mn295 2.160 . S
O298 C309 1.239 . S
O299 Mn295 2.221 . S
O299 Mn300 2.290 . S
O299 C310 1.278 . S
Mn300 O299 2.290 . S
Mn300 O302 2.089 . S
Mn300 O305 2.251 . S
Mn300 O306 2.087 . S
O301 Mn295 2.163 . S
O301 C311 1.244 . S
O302 Mn300 2.089 . S
O302 C309 1.256 . S
O303 Mn295 2.160 . S
O303 C312 1.239 . S
O304 Mn297 2.089 . S
O304 C312 1.256 . S
O305 Mn300 2.251 . S
O305 C310 1.241 . S
O306 Mn300 2.087 . S
O306 C311 1.256 . S
C307 O313 1.278 . S
C307 O314 1.241 . S
C308 O294 1.244 . S
C308 O296 1.256 . S
C309 O298 1.239 . S
C309 O302 1.256 . S
C310 O299 1.278 . S
C310 O305 1.241 . S
C311 O301 1.244 . S
C311 O306 1.256 . S
C312 O303 1.239 . S
C312 O304 1.256 . S
O313 Mn295 2.221 . S
O313 Mn297 2.290 . S
O313 C307 1.278 . S
O314 Mn297 2.251 . S
O314 C307 1.241 . S
O315 Mn316 2.163 . S
O315 C329 1.244 . S
Mn316 O315 2.163 . S
Mn316 O319 2.160 1_454 S
Mn316 O320 2.221 1_454 S
Mn316 O322 2.163 1_455 S
Mn316 O324 2.160 1_554 S
Mn316 O334 2.221 . S
O317 Mn318 2.087 . S
O317 C329 1.256 . S
Mn318 O317 2.087 . S
Mn318 O325 2.089 1_554 S
Mn318 O334 2.290 . S
Mn318 O335 2.251 . S
O319 Mn316 2.160 1_656 S
O319 C330 1.239 . S
O320 Mn316 2.221 1_656 S
O320 Mn321 2.290 . S
O320 C331 1.278 . S
Mn321 O320 2.290 . S
Mn321 O323 2.089 . S
Mn321 O326 2.251 . S
Mn321 O327 2.087 1_556 S
O322 Mn316 2.163 1_655 S
O322 C332 1.244 . S
O323 Mn321 2.089 . S
O323 C330 1.256 . S
O324 Mn316 2.160 1_556 S
O324 C333 1.239 . S
O325 Mn318 2.089 1_556 S
O325 C333 1.256 . S
O326 Mn321 2.251 . S
O326 C331 1.241 . S
O327 Mn321 2.087 1_554 S
O327 C332 1.256 . S
C328 O334 1.278 . S
C328 O335 1.241 . S
C329 O315 1.244 . S
C329 O317 1.256 . S
C330 O319 1.239 . S
C330 O323 1.256 . S
C331 O320 1.278 . S
C331 O326 1.241 . S
C332 O322 1.244 . S
C332 O327 1.256 . S
C333 O324 1.239 . S
C333 O325 1.256 . S
O334 Mn316 2.221 . S
O334 Mn318 2.290 . S
O334 C328 1.278 . S
O335 Mn318 2.251 . S
O335 C328 1.241 . S
H336 C342 0.930 . S
H337 C346 0.930 . S
H338 C351 0.929 . S
H339 C349 0.929 . S
H340 C344 0.929 . S
H341 C350 0.929 . S
C342 H336 0.930 . S
C342 C343 1.367 . S
C342 C350 1.378 . S
C343 C342 1.367 . S
C343 C351 1.433 . S
C344 H340 0.929 . S
C344 C346 1.378 . S
C344 C348 1.350 . S
C345 C348 1.463 . S
C345 C350 1.350 . S
C345 N353 1.427 . S
C346 H337 0.930 . S
C346 C344 1.378 . S
C346 C347 1.367 . S
C347 C346 1.367 . S
C347 C349 1.433 . S
C348 C344 1.350 . S
C348 C345 1.463 . S
C348 N352 1.427 . S
C349 H339 0.929 . S
C349 C347 1.433 . S
C349 N352 1.384 . S
C350 H341 0.929 . S
C350 C342 1.378 . S
C350 C345 1.350 . S
C351 H338 0.929 . S
C351 C343 1.433 . S
C351 N353 1.384 . S
N352 C348 1.427 . S
N352 C349 1.384 . S
N353 C345 1.427 . S
N353 C351 1.384 . S
H354 C360 0.930 . S
H355 C364 0.930 . S
H356 C369 0.929 1_545 S
H357 C367 0.929 . S
H358 C362 0.929 . S
H359 C368 0.929 . S
C360 H354 0.930 . S
C360 C361 1.367 . S
C360 C368 1.378 . S
C361 C360 1.367 . S
C361 C369 1.433 . S
C362 H358 0.929 . S
C362 C364 1.378 . S
C362 C366 1.350 . S
C363 C366 1.463 . S
C363 C368 1.350 . S
C363 N371 1.427 . S
C364 H355 0.930 . S
C364 C362 1.378 . S
C364 C365 1.367 . S
C365 C364 1.367 . S
C365 C367 1.433 . S
C366 C362 1.350 . S
C366 C363 1.463 . S
C366 N370 1.427 . S
C367 H357 0.929 . S
C367 C365 1.433 . S
C367 N370 1.384 . S
C368 H359 0.929 . S
C368 C360 1.378 . S
C368 C363 1.350 . S
C369 H356 0.929 1_565 S
C369 C361 1.433 . S
C369 N371 1.384 . S
N370 C366 1.427 . S
N370 C367 1.384 . S
N371 C363 1.427 . S
N371 C369 1.384 . S
H372 C378 0.930 . S
H373 C382 0.930 . S
H374 C387 0.929 . S
H375 C385 0.929 . S
H376 C380 0.929 . S
H377 C386 0.929 . S
C378 H372 0.930 . S
C378 C379 1.367 . S
C378 C386 1.378 . S
C379 C378 1.367 . S
C379 C387 1.433 . S
C380 H376 0.929 . S
C380 C382 1.378 . S
C380 C384 1.350 . S
C381 C384 1.463 . S
C381 C386 1.350 . S
C381 N389 1.427 . S
C382 H373 0.930 . S
C382 C380 1.378 . S
C382 C383 1.367 . S
C383 C382 1.367 . S
C383 C385 1.433 . S
C384 C380 1.350 . S
C384 C381 1.463 . S
C384 N388 1.427 . S
C385 H375 0.929 . S
C385 C383 1.433 . S
C385 N388 1.384 . S
C386 H377 0.929 . S
C386 C378 1.378 . S
C386 C381 1.350 . S
C387 H374 0.929 . S
C387 C379 1.433 . S
C387 N389 1.384 . S
N388 C384 1.427 . S
N388 C385 1.384 . S
N389 C381 1.427 . S
N389 C387 1.384 . S
H390 C396 0.930 . S
H391 C400 0.930 . S
H392 C405 0.929 . S
H393 C403 0.929 . S
H394 C398 0.929 . S
H395 C404 0.929 . S
C396 H390 0.930 . S
C396 C397 1.367 . S
C396 C404 1.378 . S
C397 C396 1.367 . S
C397 C405 1.433 . S
C398 H394 0.929 . S
C398 C400 1.378 . S
C398 C402 1.350 . S
C399 C402 1.463 . S
C399 C404 1.350 . S
C399 N407 1.427 . S
C400 H391 0.930 . S
C400 C398 1.378 . S
C400 C401 1.367 . S
C401 C400 1.367 . S
C401 C403 1.433 . S
C402 C398 1.350 . S
C402 C399 1.463 . S
C402 N406 1.427 . S
C403 H393 0.929 . S
C403 C401 1.433 . S
C403 N406 1.384 . S
C404 H395 0.929 . S
C404 C396 1.378 . S
C404 C399 1.350 . S
C405 H392 0.929 . S
C405 C397 1.433 . S
C405 N407 1.384 . S
N406 C402 1.427 . S
N406 C403 1.384 . S
N407 C399 1.427 . S
N407 C405 1.384 . S
H408 C414 0.930 . S
H409 C418 0.930 . S
H410 C423 0.929 . S
H411 C421 0.929 . S
H412 C416 0.929 . S
H413 C422 0.929 . S
C414 H408 0.930 . S
C414 C415 1.367 . S
C414 C422 1.378 . S
C415 C414 1.367 . S
C415 C423 1.433 . S
C416 H412 0.929 . S
C416 C418 1.378 . S
C416 C420 1.350 . S
C417 C420 1.463 . S
C417 C422 1.350 . S
C417 N425 1.427 . S
C418 H409 0.930 . S
C418 C416 1.378 . S
C418 C419 1.367 . S
C419 C418 1.367 . S
C419 C421 1.433 . S
C420 C416 1.350 . S
C420 C417 1.463 . S
C420 N424 1.427 . S
C421 H411 0.929 . S
C421 C419 1.433 . S
C421 N424 1.384 . S
C422 H413 0.929 . S
C422 C414 1.378 . S
C422 C417 1.350 . S
C423 H410 0.929 . S
C423 C415 1.433 . S
C423 N425 1.384 . S
N424 C420 1.427 . S
N424 C421 1.384 . S
N425 C417 1.427 . S
N425 C423 1.384 . S
H426 C432 0.930 . S
H427 C436 0.930 . S
H428 C441 0.929 . S
H429 C439 0.929 . S
H430 C434 0.929 . S
H431 C440 0.929 . S
C432 H426 0.930 . S
C432 C433 1.367 . S
C432 C440 1.378 . S
C433 C432 1.367 . S
C433 C441 1.433 . S
C434 H430 0.929 . S
C434 C436 1.378 . S
C434 C438 1.350 . S
C435 C438 1.463 . S
C435 C440 1.350 . S
C435 N443 1.427 . S
C436 H427 0.930 . S
C436 C434 1.378 . S
C436 C437 1.367 . S
C437 C436 1.367 . S
C437 C439 1.433 . S
C438 C434 1.350 . S
C438 C435 1.463 . S
C438 N442 1.427 . S
C439 H429 0.929 . S
C439 C437 1.433 . S
C439 N442 1.384 . S
C440 H431 0.929 . S
C440 C432 1.378 . S
C440 C435 1.350 . S
C441 H428 0.929 . S
C441 C433 1.433 . S
C441 N443 1.384 . S
N442 C438 1.427 . S
N442 C439 1.384 . S
N443 C435 1.427 . S
N443 C441 1.384 . S
H444 C450 0.930 . S
H445 C454 0.930 . S
H446 C459 0.929 . S
H447 C457 0.929 . S
H448 C452 0.929 . S
H449 C458 0.929 . S
C450 H444 0.930 . S
C450 C451 1.367 . S
C450 C458 1.378 . S
C451 C450 1.367 . S
C451 C459 1.433 . S
C452 H448 0.929 . S
C452 C454 1.378 . S
C452 C456 1.350 . S
C453 C456 1.463 . S
C453 C458 1.350 . S
C453 N461 1.427 . S
C454 H445 0.930 . S
C454 C452 1.378 . S
C454 C455 1.367 . S
C455 C454 1.367 . S
C455 C457 1.433 . S
C456 C452 1.350 . S
C456 C453 1.463 . S
C456 N460 1.427 . S
C457 H447 0.929 . S
C457 C455 1.433 . S
C457 N460 1.384 . S
C458 H449 0.929 . S
C458 C450 1.378 . S
C458 C453 1.350 . S
C459 H446 0.929 . S
C459 C451 1.433 . S
C459 N461 1.384 . S
N460 C456 1.427 . S
N460 C457 1.384 . S
N461 C453 1.427 . S
N461 C459 1.384 . S
H462 C468 0.930 . S
H463 C472 0.930 . S
H464 C477 0.929 . S
H465 C475 0.929 . S
H466 C470 0.929 . S
H467 C476 0.929 . S
C468 H462 0.930 . S
C468 C469 1.367 . S
C468 C476 1.378 . S
C469 C468 1.367 . S
C469 C477 1.433 . S
C470 H466 0.929 . S
C470 C472 1.378 . S
C470 C474 1.350 . S
C471 C474 1.463 . S
C471 C476 1.350 . S
C471 N479 1.427 . S
C472 H463 0.930 . S
C472 C470 1.378 . S
C472 C473 1.367 . S
C473 C472 1.367 . S
C473 C475 1.433 . S
C474 C470 1.350 . S
C474 C471 1.463 . S
C474 N478 1.427 . S
C475 H465 0.929 . S
C475 C473 1.433 . S
C475 N478 1.384 . S
C476 H467 0.929 . S
C476 C468 1.378 . S
C476 C471 1.350 . S
C477 H464 0.929 . S
C477 C469 1.433 . S
C477 N479 1.384 . S
N478 C474 1.427 . S
N478 C475 1.384 . S
N479 C471 1.427 . S
N479 C477 1.384 . S
H480 C486 0.930 . S
H481 C490 0.930 . S
H482 C495 0.929 . S
H483 C493 0.929 . S
H484 C488 0.929 . S
H485 C494 0.929 . S
C486 H480 0.930 . S
C486 C487 1.367 . S
C486 C494 1.378 . S
C487 C486 1.367 . S
C487 C495 1.433 . S
C488 H484 0.929 . S
C488 C490 1.378 . S
C488 C492 1.350 . S
C489 C492 1.463 . S
C489 C494 1.350 . S
C489 N497 1.427 . S
C490 H481 0.930 . S
C490 C488 1.378 . S
C490 C491 1.367 . S
C491 C490 1.367 . S
C491 C493 1.433 . S
C492 C488 1.350 . S
C492 C489 1.463 . S
C492 N496 1.427 . S
C493 H483 0.929 . S
C493 C491 1.433 . S
C493 N496 1.384 . S
C494 H485 0.929 . S
C494 C486 1.378 . S
C494 C489 1.350 . S
C495 H482 0.929 . S
C495 C487 1.433 . S
C495 N497 1.384 . S
N496 C492 1.427 . S
N496 C493 1.384 . S
N497 C489 1.427 . S
N497 C495 1.384 . S
H498 C504 0.930 . S
H499 C508 0.930 . S
H500 C513 0.929 . S
H501 C511 0.929 . S
H502 C506 0.929 . S
H503 C512 0.929 . S
C504 H498 0.930 . S
C504 C505 1.367 . S
C504 C512 1.378 . S
C505 C504 1.367 . S
C505 C513 1.433 . S
C506 H502 0.929 . S
C506 C508 1.378 . S
C506 C510 1.350 . S
C507 C510 1.463 . S
C507 C512 1.350 . S
C507 N515 1.427 . S
C508 H499 0.930 . S
C508 C506 1.378 . S
C508 C509 1.367 . S
C509 C508 1.367 . S
C509 C511 1.433 . S
C510 C506 1.350 . S
C510 C507 1.463 . S
C510 N514 1.427 . S
C511 H501 0.929 . S
C511 C509 1.433 . S
C511 N514 1.384 . S
C512 H503 0.929 . S
C512 C504 1.378 . S
C512 C507 1.350 . S
C513 H500 0.929 . S
C513 C505 1.433 . S
C513 N515 1.384 . S
N514 C510 1.427 . S
N514 C511 1.384 . S
N515 C507 1.427 . S
N515 C513 1.384 . S
H516 C522 0.930 . S
H517 C526 0.930 . S
H518 C531 0.929 . S
H519 C529 0.929 . S
H520 C524 0.929 . S
H521 C530 0.929 . S
C522 H516 0.930 . S
C522 C523 1.367 . S
C522 C530 1.378 . S
C523 C522 1.367 . S
C523 C531 1.433 . S
C524 H520 0.929 . S
C524 C526 1.378 . S
C524 C528 1.350 . S
C525 C528 1.463 . S
C525 C530 1.350 . S
C525 N533 1.427 . S
C526 H517 0.930 . S
C526 C524 1.378 . S
C526 C527 1.367 . S
C527 C526 1.367 . S
C527 C529 1.433 . S
C528 C524 1.350 . S
C528 C525 1.463 . S
C528 N532 1.427 . S
C529 H519 0.929 . S
C529 C527 1.433 . S
C529 N532 1.384 . S
C530 H521 0.929 . S
C530 C522 1.378 . S
C530 C525 1.350 . S
C531 H518 0.929 . S
C531 C523 1.433 . S
C531 N533 1.384 . S
N532 C528 1.427 . S
N532 C529 1.384 . S
N533 C525 1.427 . S
N533 C531 1.384 . S
H534 C540 0.930 . S
H535 C544 0.930 . S
H536 C549 0.929 . S
H537 C547 0.929 . S
H538 C542 0.929 . S
H539 C548 0.929 . S
C540 H534 0.930 . S
C540 C541 1.367 . S
C540 C548 1.378 . S
C541 C540 1.367 . S
C541 C549 1.433 . S
C542 H538 0.929 . S
C542 C544 1.378 . S
C542 C546 1.350 . S
C543 C546 1.463 . S
C543 C548 1.350 . S
C543 N551 1.427 . S
C544 H535 0.930 . S
C544 C542 1.378 . S
C544 C545 1.367 . S
C545 C544 1.367 . S
C545 C547 1.433 . S
C546 C542 1.350 . S
C546 C543 1.463 . S
C546 N550 1.427 . S
C547 H537 0.929 . S
C547 C545 1.433 . S
C547 N550 1.384 . S
C548 H539 0.929 . S
C548 C540 1.378 . S
C548 C543 1.350 . S
C549 H536 0.929 . S
C549 C541 1.433 . S
C549 N551 1.384 . S
N550 C546 1.427 . S
N550 C547 1.384 . S
N551 C543 1.427 . S
N551 C549 1.384 . S
H552 C558 0.930 . S
H553 C562 0.930 . S
H554 C567 0.929 . S
H555 C565 0.929 . S
H556 C560 0.929 . S
H557 C566 0.929 . S
C558 H552 0.930 . S
C558 C559 1.367 . S
C558 C566 1.378 . S
C559 C558 1.367 . S
C559 C567 1.433 . S
C560 H556 0.929 . S
C560 C562 1.378 . S
C560 C564 1.350 . S
C561 C564 1.463 . S
C561 C566 1.350 . S
C561 N569 1.427 . S
C562 H553 0.930 . S
C562 C560 1.378 . S
C562 C563 1.367 . S
C563 C562 1.367 . S
C563 C565 1.433 . S
C564 C560 1.350 . S
C564 C561 1.463 . S
C564 N568 1.427 . S
C565 H555 0.929 . S
C565 C563 1.433 . S
C565 N568 1.384 . S
C566 H557 0.929 . S
C566 C558 1.378 . S
C566 C561 1.350 . S
C567 H554 0.929 . S
C567 C559 1.433 . S
C567 N569 1.384 . S
N568 C564 1.427 . S
N568 C565 1.384 . S
N569 C561 1.427 . S
N569 C567 1.384 . S
H570 C576 0.930 . S
H571 C580 0.930 . S
H572 C585 0.929 . S
H573 C583 0.929 . S
H574 C578 0.929 . S
H575 C584 0.929 . S
C576 H570 0.930 . S
C576 C577 1.367 . S
C576 C584 1.378 . S
C577 C576 1.367 . S
C577 C585 1.433 . S
C578 H574 0.929 . S
C578 C580 1.378 . S
C578 C582 1.350 . S
C579 C582 1.463 . S
C579 C584 1.350 . S
C579 N587 1.427 . S
C580 H571 0.930 . S
C580 C578 1.378 . S
C580 C581 1.367 . S
C581 C580 1.367 . S
C581 C583 1.433 . S
C582 C578 1.350 . S
C582 C579 1.463 . S
C582 N586 1.427 . S
C583 H573 0.929 . S
C583 C581 1.433 . S
C583 N586 1.384 . S
C584 H575 0.929 . S
C584 C576 1.378 . S
C584 C579 1.350 . S
C585 H572 0.929 . S
C585 C577 1.433 . S
C585 N587 1.384 . S
N586 C582 1.427 . S
N586 C583 1.384 . S
N587 C579 1.427 . S
N587 C585 1.384 . S
H588 C594 0.930 . S
H589 C598 0.930 . S
H590 C603 0.929 . S
H591 C601 0.929 . S
H592 C596 0.929 . S
H593 C602 0.929 . S
C594 H588 0.930 . S
C594 C595 1.367 . S
C594 C602 1.378 . S
C595 C594 1.367 . S
C595 C603 1.433 . S
C596 H592 0.929 . S
C596 C598 1.378 . S
C596 C600 1.350 . S
C597 C600 1.463 . S
C597 C602 1.350 . S
C597 N605 1.427 . S
C598 H589 0.930 . S
C598 C596 1.378 . S
C598 C599 1.367 . S
C599 C598 1.367 . S
C599 C601 1.433 . S
C600 C596 1.350 . S
C600 C597 1.463 . S
C600 N604 1.427 . S
C601 H591 0.929 . S
C601 C599 1.433 . S
C601 N604 1.384 . S
C602 H593 0.929 . S
C602 C594 1.378 . S
C602 C597 1.350 . S
C603 H590 0.929 . S
C603 C595 1.433 . S
C603 N605 1.384 . S
N604 C600 1.427 . S
N604 C601 1.384 . S
N605 C597 1.427 . S
N605 C603 1.384 . S
H606 C612 0.930 . S
H607 C616 0.930 . S
H608 C621 0.929 . S
H609 C619 0.929 . S
H610 C614 0.929 . S
H611 C620 0.929 . S
C612 H606 0.930 . S
C612 C613 1.367 . S
C612 C620 1.378 . S
C613 C612 1.367 . S
C613 C621 1.433 . S
C614 H610 0.929 . S
C614 C616 1.378 . S
C614 C618 1.350 . S
C615 C618 1.463 . S
C615 C620 1.350 . S
C615 N623 1.427 . S
C616 H607 0.930 . S
C616 C614 1.378 . S
C616 C617 1.367 . S
C617 C616 1.367 . S
C617 C619 1.433 . S
C618 C614 1.350 . S
C618 C615 1.463 . S
C618 N622 1.427 . S
C619 H609 0.929 . S
C619 C617 1.433 . S
C619 N622 1.384 . S
C620 H611 0.929 . S
C620 C612 1.378 . S
C620 C615 1.350 . S
C621 H608 0.929 . S
C621 C613 1.433 . S
C621 N623 1.384 . S
N622 C618 1.427 . S
N622 C619 1.384 . S
N623 C615 1.427 . S
N623 C621 1.384 . S
H624 C630 0.930 . S
H625 C634 0.930 . S
H626 C639 0.929 . S
H627 C637 0.929 . S
H628 C632 0.929 . S
H629 C638 0.929 . S
C630 H624 0.930 . S
C630 C631 1.367 . S
C630 C638 1.378 . S
C631 C630 1.367 . S
C631 C639 1.433 . S
C632 H628 0.929 . S
C632 C634 1.378 . S
C632 C636 1.350 . S
C633 C636 1.463 . S
C633 C638 1.350 . S
C633 N641 1.427 . S
C634 H625 0.930 . S
C634 C632 1.378 . S
C634 C635 1.367 . S
C635 C634 1.367 . S
C635 C637 1.433 . S
C636 C632 1.350 . S
C636 C633 1.463 . S
C636 N640 1.427 . S
C637 H627 0.929 . S
C637 C635 1.433 . S
C637 N640 1.384 . S
C638 H629 0.929 . S
C638 C630 1.378 . S
C638 C633 1.350 . S
C639 H626 0.929 . S
C639 C631 1.433 . S
C639 N641 1.384 . S
N640 C636 1.427 . S
N640 C637 1.384 . S
N641 C633 1.427 . S
N641 C639 1.384 . S
H642 C648 0.930 . S
H643 C652 0.930 . S
H644 C657 0.929 . S
H645 C655 0.929 . S
H646 C650 0.929 . S
H647 C656 0.929 . S
C648 H642 0.930 . S
C648 C649 1.367 . S
C648 C656 1.378 . S
C649 C648 1.367 . S
C649 C657 1.433 . S
C650 H646 0.929 . S
C650 C652 1.378 . S
C650 C654 1.350 . S
C651 C654 1.463 . S
C651 C656 1.350 . S
C651 N659 1.427 . S
C652 H643 0.930 . S
C652 C650 1.378 . S
C652 C653 1.367 . S
C653 C652 1.367 . S
C653 C655 1.433 . S
C654 C650 1.350 . S
C654 C651 1.463 . S
C654 N658 1.427 . S
C655 H645 0.929 . S
C655 C653 1.433 . S
C655 N658 1.384 . S
C656 H647 0.929 . S
C656 C648 1.378 . S
C656 C651 1.350 . S
C657 H644 0.929 . S
C657 C649 1.433 . S
C657 N659 1.384 . S
N658 C654 1.427 . S
N658 C655 1.384 . S
N659 C651 1.427 . S
N659 C657 1.384 . S
H660 C666 0.930 . S
H661 C670 0.930 . S
H662 C675 0.929 . S
H663 C673 0.929 . S
H664 C668 0.929 . S
H665 C674 0.929 . S
C666 H660 0.930 . S
C666 C667 1.367 . S
C666 C674 1.378 . S
C667 C666 1.367 . S
C667 C675 1.433 . S
C668 H664 0.929 . S
C668 C670 1.378 . S
C668 C672 1.350 . S
C669 C672 1.463 . S
C669 C674 1.350 . S
C669 N677 1.427 . S
C670 H661 0.930 . S
C670 C668 1.378 . S
C670 C671 1.367 . S
C671 C670 1.367 . S
C671 C673 1.433 . S
C672 C668 1.350 . S
C672 C669 1.463 . S
C672 N676 1.427 . S
C673 H663 0.929 . S
C673 C671 1.433 . S
C673 N676 1.384 . S
C674 H665 0.929 . S
C674 C666 1.378 . S
C674 C669 1.350 . S
C675 H662 0.929 . S
C675 C667 1.433 . S
C675 N677 1.384 . S
N676 C672 1.427 . S
N676 C673 1.384 . S
N677 C669 1.427 . S
N677 C675 1.384 . S
H678 C684 0.930 . S
H679 C688 0.930 . S
H680 C693 0.929 . S
H681 C691 0.929 . S
H682 C686 0.929 . S
H683 C692 0.929 . S
C684 H678 0.930 . S
C684 C685 1.367 . S
C684 C692 1.378 . S
C685 C684 1.367 . S
C685 C693 1.433 . S
C686 H682 0.929 . S
C686 C688 1.378 . S
C686 C690 1.350 . S
C687 C690 1.463 . S
C687 C692 1.350 . S
C687 N695 1.427 . S
C688 H679 0.930 . S
C688 C686 1.378 . S
C688 C689 1.367 . S
C689 C688 1.367 . S
C689 C691 1.433 . S
C690 C686 1.350 . S
C690 C687 1.463 . S
C690 N694 1.427 . S
C691 H681 0.929 . S
C691 C689 1.433 . S
C691 N694 1.384 . S
C692 H683 0.929 . S
C692 C684 1.378 . S
C692 C687 1.350 . S
C693 H680 0.929 . S
C693 C685 1.433 . S
C693 N695 1.384 . S
N694 C690 1.427 . S
N694 C691 1.384 . S
N695 C687 1.427 . S
N695 C693 1.384 . S
H696 C702 0.930 . S
H697 C706 0.930 . S
H698 C711 0.929 . S
H699 C709 0.929 . S
H700 C704 0.929 . S
H701 C710 0.929 . S
C702 H696 0.930 . S
C702 C703 1.367 . S
C702 C710 1.378 . S
C703 C702 1.367 . S
C703 C711 1.433 . S
C704 H700 0.929 . S
C704 C706 1.378 . S
C704 C708 1.350 . S
C705 C708 1.463 . S
C705 C710 1.350 . S
C705 N713 1.427 . S
C706 H697 0.930 . S
C706 C704 1.378 . S
C706 C707 1.367 . S
C707 C706 1.367 . S
C707 C709 1.433 . S
C708 C704 1.350 . S
C708 C705 1.463 . S
C708 N712 1.427 . S
C709 H699 0.929 . S
C709 C707 1.433 . S
C709 N712 1.384 . S
C710 H701 0.929 . S
C710 C702 1.378 . S
C710 C705 1.350 . S
C711 H698 0.929 . S
C711 C703 1.433 . S
C711 N713 1.384 . S
N712 C708 1.427 . S
N712 C709 1.384 . S
N713 C705 1.427 . S
N713 C711 1.384 . S
H714 C720 0.930 . S
H715 C724 0.930 . S
H716 C729 0.929 . S
H717 C727 0.929 . S
H718 C722 0.929 . S
H719 C728 0.929 . S
C720 H714 0.930 . S
C720 C721 1.367 . S
C720 C728 1.378 . S
C721 C720 1.367 . S
C721 C729 1.433 . S
C722 H718 0.929 . S
C722 C724 1.378 . S
C722 C726 1.350 . S
C723 C726 1.463 . S
C723 C728 1.350 . S
C723 N731 1.427 . S
C724 H715 0.930 . S
C724 C722 1.378 . S
C724 C725 1.367 . S
C725 C724 1.367 . S
C725 C727 1.433 . S
C726 C722 1.350 . S
C726 C723 1.463 . S
C726 N730 1.427 . S
C727 H717 0.929 . S
C727 C725 1.433 . S
C727 N730 1.384 . S
C728 H719 0.929 . S
C728 C720 1.378 . S
C728 C723 1.350 . S
C729 H716 0.929 . S
C729 C721 1.433 . S
C729 N731 1.384 . S
N730 C726 1.427 . S
N730 C727 1.384 . S
N731 C723 1.427 . S
N731 C729 1.384 . S
H732 C738 0.930 . S
H733 C742 0.930 . S
H734 C747 0.929 . S
H735 C745 0.929 . S
H736 C740 0.929 . S
H737 C746 0.929 . S
C738 H732 0.930 . S
C738 C739 1.367 . S
C738 C746 1.378 . S
C739 C738 1.367 . S
C739 C747 1.433 . S
C740 H736 0.929 . S
C740 C742 1.378 . S
C740 C744 1.350 . S
C741 C744 1.463 . S
C741 C746 1.350 . S
C741 N749 1.427 . S
C742 H733 0.930 . S
C742 C740 1.378 . S
C742 C743 1.367 . S
C743 C742 1.367 . S
C743 C745 1.433 . S
C744 C740 1.350 . S
C744 C741 1.463 . S
C744 N748 1.427 . S
C745 H735 0.929 . S
C745 C743 1.433 . S
C745 N748 1.384 . S
C746 H737 0.929 . S
C746 C738 1.378 . S
C746 C741 1.350 . S
C747 H734 0.929 . S
C747 C739 1.433 . S
C747 N749 1.384 . S
N748 C744 1.427 . S
N748 C745 1.384 . S
N749 C741 1.427 . S
N749 C747 1.384 . S
H750 C756 0.930 . S
H751 C760 0.930 . S
H752 C765 0.929 . S
H753 C763 0.929 . S
H754 C758 0.929 . S
H755 C764 0.929 . S
C756 H750 0.930 . S
C756 C757 1.367 . S
C756 C764 1.378 . S
C757 C756 1.367 . S
C757 C765 1.433 . S
C758 H754 0.929 . S
C758 C760 1.378 . S
C758 C762 1.350 . S
C759 C762 1.463 . S
C759 C764 1.350 . S
C759 N767 1.427 . S
C760 H751 0.930 . S
C760 C758 1.378 . S
C760 C761 1.367 . S
C761 C760 1.367 . S
C761 C763 1.433 . S
C762 C758 1.350 . S
C762 C759 1.463 . S
C762 N766 1.427 . S
C763 H753 0.929 . S
C763 C761 1.433 . S
C763 N766 1.384 . S
C764 H755 0.929 . S
C764 C756 1.378 . S
C764 C759 1.350 . S
C765 H752 0.929 . S
C765 C757 1.433 . S
C765 N767 1.384 . S
N766 C762 1.427 . S
N766 C763 1.384 . S
N767 C759 1.427 . S
N767 C765 1.384 . S
H768 C774 0.930 . S
H769 C778 0.930 . S
H770 C783 0.929 . S
H771 C781 0.929 . S
H772 C776 0.929 . S
H773 C782 0.929 . S
C774 H768 0.930 . S
C774 C775 1.367 . S
C774 C782 1.378 . S
C775 C774 1.367 . S
C775 C783 1.433 . S
C776 H772 0.929 . S
C776 C778 1.378 . S
C776 C780 1.350 . S
C777 C780 1.463 . S
C777 C782 1.350 . S
C777 N785 1.427 . S
C778 H769 0.930 . S
C778 C776 1.378 . S
C778 C779 1.367 . S
C779 C778 1.367 . S
C779 C781 1.433 . S
C780 C776 1.350 . S
C780 C777 1.463 . S
C780 N784 1.427 . S
C781 H771 0.929 . S
C781 C779 1.433 . S
C781 N784 1.384 . S
C782 H773 0.929 . S
C782 C774 1.378 . S
C782 C777 1.350 . S
C783 H770 0.929 . S
C783 C775 1.433 . S
C783 N785 1.384 . S
N784 C780 1.427 . S
N784 C781 1.384 . S
N785 C777 1.427 . S
N785 C783 1.384 . S
H786 C792 0.930 . S
H787 C796 0.930 . S
H788 C801 0.929 . S
H789 C799 0.929 . S
H790 C794 0.929 . S
H791 C800 0.929 . S
C792 H786 0.930 . S
C792 C793 1.367 . S
C792 C800 1.378 . S
C793 C792 1.367 . S
C793 C801 1.433 . S
C794 H790 0.929 . S
C794 C796 1.378 . S
C794 C798 1.350 . S
C795 C798 1.463 . S
C795 C800 1.350 . S
C795 N803 1.427 . S
C796 H787 0.930 . S
C796 C794 1.378 . S
C796 C797 1.367 . S
C797 C796 1.367 . S
C797 C799 1.433 . S
C798 C794 1.350 . S
C798 C795 1.463 . S
C798 N802 1.427 . S
C799 H789 0.929 . S
C799 C797 1.433 . S
C799 N802 1.384 . S
C800 H791 0.929 . S
C800 C792 1.378 . S
C800 C795 1.350 . S
C801 H788 0.929 . S
C801 C793 1.433 . S
C801 N803 1.384 . S
N802 C798 1.427 . S
N802 C799 1.384 . S
N803 C795 1.427 . S
N803 C801 1.384 . S
H804 C810 0.930 . S
H805 C814 0.930 . S
H806 C819 0.929 . S
H807 C817 0.929 . S
H808 C812 0.929 . S
H809 C818 0.929 . S
C810 H804 0.930 . S
C810 C811 1.367 . S
C810 C818 1.378 . S
C811 C810 1.367 . S
C811 C819 1.433 . S
C812 H808 0.929 . S
C812 C814 1.378 . S
C812 C816 1.350 . S
C813 C816 1.463 . S
C813 C818 1.350 . S
C813 N821 1.427 . S
C814 H805 0.930 . S
C814 C812 1.378 . S
C814 C815 1.367 . S
C815 C814 1.367 . S
C815 C817 1.433 . S
C816 C812 1.350 . S
C816 C813 1.463 . S
C816 N820 1.427 . S
C817 H807 0.929 . S
C817 C815 1.433 . S
C817 N820 1.384 . S
C818 H809 0.929 . S
C818 C810 1.378 . S
C818 C813 1.350 . S
C819 H806 0.929 . S
C819 C811 1.433 . S
C819 N821 1.384 . S
N820 C816 1.427 . S
N820 C817 1.384 . S
N821 C813 1.427 . S
N821 C819 1.384 . S
H822 C828 0.930 . S
H823 C832 0.930 . S
H824 C837 0.929 . S
H825 C835 0.929 . S
H826 C830 0.929 . S
H827 C836 0.929 . S
C828 H822 0.930 . S
C828 C829 1.367 . S
C828 C836 1.378 . S
C829 C828 1.367 . S
C829 C837 1.433 . S
C830 H826 0.929 . S
C830 C832 1.378 . S
C830 C834 1.350 . S
C831 C834 1.463 . S
C831 C836 1.350 . S
C831 N839 1.427 . S
C832 H823 0.930 . S
C832 C830 1.378 . S
C832 C833 1.367 . S
C833 C832 1.367 . S
C833 C835 1.433 . S
C834 C830 1.350 . S
C834 C831 1.463 . S
C834 N838 1.427 . S
C835 H825 0.929 . S
C835 C833 1.433 . S
C835 N838 1.384 . S
C836 H827 0.929 . S
C836 C828 1.378 . S
C836 C831 1.350 . S
C837 H824 0.929 . S
C837 C829 1.433 . S
C837 N839 1.384 . S
N838 C834 1.427 . S
N838 C835 1.384 . S
N839 C831 1.427 . S
N839 C837 1.384 . S
H840 C846 0.930 . S
H841 C850 0.930 . S
H842 C855 0.929 . S
H843 C853 0.929 . S
H844 C848 0.929 . S
H845 C854 0.929 . S
C846 H840 0.930 . S
C846 C847 1.367 . S
C846 C854 1.378 . S
C847 C846 1.367 . S
C847 C855 1.433 . S
C848 H844 0.929 . S
C848 C850 1.378 . S
C848 C852 1.350 . S
C849 C852 1.463 . S
C849 C854 1.350 . S
C849 N857 1.427 . S
C850 H841 0.930 . S
C850 C848 1.378 . S
C850 C851 1.367 . S
C851 C850 1.367 . S
C851 C853 1.433 . S
C852 C848 1.350 . S
C852 C849 1.463 . S
C852 N856 1.427 . S
C853 H843 0.929 . S
C853 C851 1.433 . S
C853 N856 1.384 . S
C854 H845 0.929 . S
C854 C846 1.378 . S
C854 C849 1.350 . S
C855 H842 0.929 . S
C855 C847 1.433 . S
C855 N857 1.384 . S
N856 C852 1.427 . S
N856 C853 1.384 . S
N857 C849 1.427 . S
N857 C855 1.384 . S
H858 C864 0.930 . S
H859 C868 0.930 . S
H860 C873 0.929 . S
H861 C871 0.929 . S
H862 C866 0.929 . S
H863 C872 0.929 . S
C864 H858 0.930 . S
C864 C865 1.367 . S
C864 C872 1.378 . S
C865 C864 1.367 . S
C865 C873 1.433 . S
C866 H862 0.929 . S
C866 C868 1.378 . S
C866 C870 1.350 . S
C867 C870 1.463 . S
C867 C872 1.350 . S
C867 N875 1.427 . S
C868 H859 0.930 . S
C868 C866 1.378 . S
C868 C869 1.367 . S
C869 C868 1.367 . S
C869 C871 1.433 . S
C870 C866 1.350 . S
C870 C867 1.463 . S
C870 N874 1.427 . S
C871 H861 0.929 . S
C871 C869 1.433 . S
C871 N874 1.384 . S
C872 H863 0.929 . S
C872 C864 1.378 . S
C872 C867 1.350 . S
C873 H860 0.929 . S
C873 C865 1.433 . S
C873 N875 1.384 . S
N874 C870 1.427 . S
N874 C871 1.384 . S
N875 C867 1.427 . S
N875 C873 1.384 . S
H876 C882 0.930 . S
H877 C886 0.930 . S
H878 C891 0.929 . S
H879 C889 0.929 . S
H880 C884 0.929 . S
H881 C890 0.929 . S
C882 H876 0.930 . S
C882 C883 1.367 . S
C882 C890 1.378 . S
C883 C882 1.367 . S
C883 C891 1.433 . S
C884 H880 0.929 . S
C884 C886 1.378 . S
C884 C888 1.350 . S
C885 C888 1.463 . S
C885 C890 1.350 . S
C885 N893 1.427 . S
C886 H877 0.930 . S
C886 C884 1.378 . S
C886 C887 1.367 . S
C887 C886 1.367 . S
C887 C889 1.433 . S
C888 C884 1.350 . S
C888 C885 1.463 . S
C888 N892 1.427 . S
C889 H879 0.929 . S
C889 C887 1.433 . S
C889 N892 1.384 . S
C890 H881 0.929 . S
C890 C882 1.378 . S
C890 C885 1.350 . S
C891 H878 0.929 . S
C891 C883 1.433 . S
C891 N893 1.384 . S
N892 C888 1.427 . S
N892 C889 1.384 . S
N893 C885 1.427 . S
N893 C891 1.384 . S
H894 C900 0.930 . S
H895 C904 0.930 . S
H896 C909 0.929 . S
H897 C907 0.929 . S
H898 C902 0.929 . S
H899 C908 0.929 . S
C900 H894 0.930 . S
C900 C901 1.367 . S
C900 C908 1.378 . S
C901 C900 1.367 . S
C901 C909 1.433 . S
C902 H898 0.929 . S
C902 C904 1.378 . S
C902 C906 1.350 . S
C903 C906 1.463 . S
C903 C908 1.350 . S
C903 N911 1.427 . S
C904 H895 0.930 . S
C904 C902 1.378 . S
C904 C905 1.367 . S
C905 C904 1.367 . S
C905 C907 1.433 . S
C906 C902 1.350 . S
C906 C903 1.463 . S
C906 N910 1.427 . S
C907 H897 0.929 . S
C907 C905 1.433 . S
C907 N910 1.384 . S
C908 H899 0.929 . S
C908 C900 1.378 . S
C908 C903 1.350 . S
C909 H896 0.929 . S
C909 C901 1.433 . S
C909 N911 1.384 . S
N910 C906 1.427 . S
N910 C907 1.384 . S
N911 C903 1.427 . S
N911 C909 1.384 . S
H912 C918 0.930 . S
H913 C922 0.930 . S
H914 C927 0.929 . S
H915 C925 0.929 . S
H916 C920 0.929 . S
H917 C926 0.929 . S
C918 H912 0.930 . S
C918 C919 1.367 . S
C918 C926 1.378 . S
C919 C918 1.367 . S
C919 C927 1.433 . S
C920 H916 0.929 . S
C920 C922 1.378 . S
C920 C924 1.350 . S
C921 C924 1.463 . S
C921 C926 1.350 . S
C921 N929 1.427 . S
C922 H913 0.930 . S
C922 C920 1.378 . S
C922 C923 1.367 . S
C923 C922 1.367 . S
C923 C925 1.433 . S
C924 C920 1.350 . S
C924 C921 1.463 . S
C924 N928 1.427 . S
C925 H915 0.929 . S
C925 C923 1.433 . S
C925 N928 1.384 . S
C926 H917 0.929 . S
C926 C918 1.378 . S
C926 C921 1.350 . S
C927 H914 0.929 . S
C927 C919 1.433 . S
C927 N929 1.384 . S
N928 C924 1.427 . S
N928 C925 1.384 . S
N929 C921 1.427 . S
N929 C927 1.384 . S
H930 C936 0.930 . S
H931 C940 0.930 . S
H932 C945 0.929 . S
H933 C943 0.929 . S
H934 C938 0.929 . S
H935 C944 0.929 . S
C936 H930 0.930 . S
C936 C937 1.367 . S
C936 C944 1.378 . S
C937 C936 1.367 . S
C937 C945 1.433 . S
C938 H934 0.929 . S
C938 C940 1.378 . S
C938 C942 1.350 . S
C939 C942 1.463 . S
C939 C944 1.350 . S
C939 N947 1.427 . S
C940 H931 0.930 . S
C940 C938 1.378 . S
C940 C941 1.367 . S
C941 C940 1.367 . S
C941 C943 1.433 . S
C942 C938 1.350 . S
C942 C939 1.463 . S
C942 N946 1.427 . S
C943 H933 0.929 . S
C943 C941 1.433 . S
C943 N946 1.384 . S
C944 H935 0.929 . S
C944 C936 1.378 . S
C944 C939 1.350 . S
C945 H932 0.929 . S
C945 C937 1.433 . S
C945 N947 1.384 . S
N946 C942 1.427 . S
N946 C943 1.384 . S
N947 C939 1.427 . S
N947 C945 1.384 . S
H948 C954 0.930 . S
H949 C958 0.930 . S
H950 C963 0.929 . S
H951 C961 0.929 . S
H952 C956 0.929 . S
H953 C962 0.929 . S
C954 H948 0.930 . S
C954 C955 1.367 . S
C954 C962 1.378 . S
C955 C954 1.367 . S
C955 C963 1.433 . S
C956 H952 0.929 . S
C956 C958 1.378 . S
C956 C960 1.350 . S
C957 C960 1.463 . S
C957 C962 1.350 . S
C957 N965 1.427 . S
C958 H949 0.930 . S
C958 C956 1.378 . S
C958 C959 1.367 . S
C959 C958 1.367 . S
C959 C961 1.433 . S
C960 C956 1.350 . S
C960 C957 1.463 . S
C960 N964 1.427 . S
C961 H951 0.929 . S
C961 C959 1.433 . S
C961 N964 1.384 . S
C962 H953 0.929 . S
C962 C954 1.378 . S
C962 C957 1.350 . S
C963 H950 0.929 . S
C963 C955 1.433 . S
C963 N965 1.384 . S
N964 C960 1.427 . S
N964 C961 1.384 . S
N965 C957 1.427 . S
N965 C963 1.384 . S
H966 C972 0.930 . S
H967 C976 0.930 . S
H968 C981 0.929 . S
H969 C979 0.929 . S
H970 C974 0.929 . S
H971 C980 0.929 . S
C972 H966 0.930 . S
C972 C973 1.367 . S
C972 C980 1.378 . S
C973 C972 1.367 . S
C973 C981 1.433 . S
C974 H970 0.929 . S
C974 C976 1.378 . S
C974 C978 1.350 . S
C975 C978 1.463 . S
C975 C980 1.350 . S
C975 N983 1.427 . S
C976 H967 0.930 . S
C976 C974 1.378 . S
C976 C977 1.367 . S
C977 C976 1.367 . S
C977 C979 1.433 . S
C978 C974 1.350 . S
C978 C975 1.463 . S
C978 N982 1.427 . S
C979 H969 0.929 . S
C979 C977 1.433 . S
C979 N982 1.384 . S
C980 H971 0.929 . S
C980 C972 1.378 . S
C980 C975 1.350 . S
C981 H968 0.929 . S
C981 C973 1.433 . S
C981 N983 1.384 . S
N982 C978 1.427 . S
N982 C979 1.384 . S
N983 C975 1.427 . S
N983 C981 1.384 . S
H984 C990 0.930 . S
H985 C994 0.930 . S
H986 C999 0.929 1_455 S
H987 C997 0.929 . S
H988 C992 0.929 . S
H989 C998 0.929 . S
C990 H984 0.930 . S
C990 C991 1.367 . S
C990 C998 1.378 . S
C991 C990 1.367 . S
C991 C999 1.433 . S
C992 H988 0.929 . S
C992 C994 1.378 . S
C992 C996 1.350 . S
C993 C996 1.463 . S
C993 C998 1.350 . S
C993 N1001 1.427 . S
C994 H985 0.930 . S
C994 C992 1.378 . S
C994 C995 1.367 . S
C995 C994 1.367 . S
C995 C997 1.433 . S
C996 C992 1.350 . S
C996 C993 1.463 . S
C996 N1000 1.427 . S
C997 H987 0.929 . S
C997 C995 1.433 . S
C997 N1000 1.384 . S
C998 H989 0.929 . S
C998 C990 1.378 . S
C998 C993 1.350 . S
C999 H986 0.929 1_655 S
C999 C991 1.433 . S
C999 N1001 1.384 . S
N1000 C996 1.427 . S
N1000 C997 1.384 . S
N1001 C993 1.427 . S
N1001 C999 1.384 . S
H1002 C1008 0.930 . S
H1003 C1012 0.930 . S
H1004 C1017 0.929 . S
H1005 C1015 0.929 . S
H1006 C1010 0.929 . S
H1007 C1016 0.929 . S
C1008 H1002 0.930 . S
C1008 C1009 1.367 . S
C1008 C1016 1.378 . S
C1009 C1008 1.367 . S
C1009 C1017 1.433 . S
C1010 H1006 0.929 . S
C1010 C1012 1.378 . S
C1010 C1014 1.350 . S
C1011 C1014 1.463 . S
C1011 C1016 1.350 . S
C1011 N1019 1.427 . S
C1012 H1003 0.930 . S
C1012 C1010 1.378 . S
C1012 C1013 1.367 . S
C1013 C1012 1.367 . S
C1013 C1015 1.433 . S
C1014 C1010 1.350 . S
C1014 C1011 1.463 . S
C1014 N1018 1.427 . S
C1015 H1005 0.929 . S
C1015 C1013 1.433 . S
C1015 N1018 1.384 . S
C1016 H1007 0.929 . S
C1016 C1008 1.378 . S
C1016 C1011 1.350 . S
C1017 H1004 0.929 . S
C1017 C1009 1.433 . S
C1017 N1019 1.384 . S
N1018 C1014 1.427 . S
N1018 C1015 1.384 . S
N1019 C1011 1.427 . S
N1019 C1017 1.384 . S
H1020 C1026 0.930 . S
H1021 C1030 0.930 . S
H1022 C1035 0.929 . S
H1023 C1033 0.929 . S
H1024 C1028 0.929 . S
H1025 C1034 0.929 . S
C1026 H1020 0.930 . S
C1026 C1027 1.367 . S
C1026 C1034 1.378 . S
C1027 C1026 1.367 . S
C1027 C1035 1.433 . S
C1028 H1024 0.929 . S
C1028 C1030 1.378 . S
C1028 C1032 1.350 . S
C1029 C1032 1.463 . S
C1029 C1034 1.350 . S
C1029 N1037 1.427 . S
C1030 H1021 0.930 . S
C1030 C1028 1.378 . S
C1030 C1031 1.367 . S
C1031 C1030 1.367 . S
C1031 C1033 1.433 . S
C1032 C1028 1.350 . S
C1032 C1029 1.463 . S
C1032 N1036 1.427 . S
C1033 H1023 0.929 . S
C1033 C1031 1.433 . S
C1033 N1036 1.384 . S
C1034 H1025 0.929 . S
C1034 C1026 1.378 . S
C1034 C1029 1.350 . S
C1035 H1022 0.929 . S
C1035 C1027 1.433 . S
C1035 N1037 1.384 . S
N1036 C1032 1.427 . S
N1036 C1033 1.384 . S
N1037 C1029 1.427 . S
N1037 C1035 1.384 . S
H1038 C1044 0.930 . S
H1039 C1048 0.930 . S
H1040 C1053 0.929 . S
H1041 C1051 0.929 . S
H1042 C1046 0.929 . S
H1043 C1052 0.929 . S
C1044 H1038 0.930 . S
C1044 C1045 1.367 . S
C1044 C1052 1.378 . S
C1045 C1044 1.367 . S
C1045 C1053 1.433 . S
C1046 H1042 0.929 . S
C1046 C1048 1.378 . S
C1046 C1050 1.350 . S
C1047 C1050 1.463 . S
C1047 C1052 1.350 . S
C1047 N1055 1.427 . S
C1048 H1039 0.930 . S
C1048 C1046 1.378 . S
C1048 C1049 1.367 . S
C1049 C1048 1.367 . S
C1049 C1051 1.433 . S
C1050 C1046 1.350 . S
C1050 C1047 1.463 . S
C1050 N1054 1.427 . S
C1051 H1041 0.929 . S
C1051 C1049 1.433 . S
C1051 N1054 1.384 . S
C1052 H1043 0.929 . S
C1052 C1044 1.378 . S
C1052 C1047 1.350 . S
C1053 H1040 0.929 . S
C1053 C1045 1.433 . S
C1053 N1055 1.384 . S
N1054 C1050 1.427 . S
N1054 C1051 1.384 . S
N1055 C1047 1.427 . S
N1055 C1053 1.384 . S
H1056 C1062 0.930 . S
H1057 C1066 0.930 . S
H1058 C1071 0.929 . S
H1059 C1069 0.929 . S
H1060 C1064 0.929 . S
H1061 C1070 0.929 . S
C1062 H1056 0.930 . S
C1062 C1063 1.367 . S
C1062 C1070 1.378 . S
C1063 C1062 1.367 . S
C1063 C1071 1.433 . S
C1064 H1060 0.929 . S
C1064 C1066 1.378 . S
C1064 C1068 1.350 . S
C1065 C1068 1.463 . S
C1065 C1070 1.350 . S
C1065 N1073 1.427 . S
C1066 H1057 0.930 . S
C1066 C1064 1.378 . S
C1066 C1067 1.367 . S
C1067 C1066 1.367 . S
C1067 C1069 1.433 . S
C1068 C1064 1.350 . S
C1068 C1065 1.463 . S
C1068 N1072 1.427 . S
C1069 H1059 0.929 . S
C1069 C1067 1.433 . S
C1069 N1072 1.384 . S
C1070 H1061 0.929 . S
C1070 C1062 1.378 . S
C1070 C1065 1.350 . S
C1071 H1058 0.929 . S
C1071 C1063 1.433 . S
C1071 N1073 1.384 . S
N1072 C1068 1.427 . S
N1072 C1069 1.384 . S
N1073 C1065 1.427 . S
N1073 C1071 1.384 . S
H1074 C1080 0.930 . S
H1075 C1084 0.930 . S
H1076 C1089 0.929 . S
H1077 C1087 0.929 . S
H1078 C1082 0.929 . S
H1079 C1088 0.929 . S
C1080 H1074 0.930 . S
C1080 C1081 1.367 . S
C1080 C1088 1.378 . S
C1081 C1080 1.367 . S
C1081 C1089 1.433 . S
C1082 H1078 0.929 . S
C1082 C1084 1.378 . S
C1082 C1086 1.350 . S
C1083 C1086 1.463 . S
C1083 C1088 1.350 . S
C1083 N1091 1.427 . S
C1084 H1075 0.930 . S
C1084 C1082 1.378 . S
C1084 C1085 1.367 . S
C1085 C1084 1.367 . S
C1085 C1087 1.433 . S
C1086 C1082 1.350 . S
C1086 C1083 1.463 . S
C1086 N1090 1.427 . S
C1087 H1077 0.929 . S
C1087 C1085 1.433 . S
C1087 N1090 1.384 . S
C1088 H1079 0.929 . S
C1088 C1080 1.378 . S
C1088 C1083 1.350 . S
C1089 H1076 0.929 . S
C1089 C1081 1.433 . S
C1089 N1091 1.384 . S
N1090 C1086 1.427 . S
N1090 C1087 1.384 . S
N1091 C1083 1.427 . S
N1091 C1089 1.384 . S
H1092 C1098 0.930 . S
H1093 C1102 0.930 . S
H1094 C1107 0.929 . S
H1095 C1105 0.929 . S
H1096 C1100 0.929 . S
H1097 C1106 0.929 . S
C1098 H1092 0.930 . S
C1098 C1099 1.367 . S
C1098 C1106 1.378 . S
C1099 C1098 1.367 . S
C1099 C1107 1.433 . S
C1100 H1096 0.929 . S
C1100 C1102 1.378 . S
C1100 C1104 1.350 . S
C1101 C1104 1.463 . S
C1101 C1106 1.350 . S
C1101 N1109 1.427 . S
C1102 H1093 0.930 . S
C1102 C1100 1.378 . S
C1102 C1103 1.367 . S
C1103 C1102 1.367 . S
C1103 C1105 1.433 . S
C1104 C1100 1.350 . S
C1104 C1101 1.463 . S
C1104 N1108 1.427 . S
C1105 H1095 0.929 . S
C1105 C1103 1.433 . S
C1105 N1108 1.384 . S
C1106 H1097 0.929 . S
C1106 C1098 1.378 . S
C1106 C1101 1.350 . S
C1107 H1094 0.929 . S
C1107 C1099 1.433 . S
C1107 N1109 1.384 . S
N1108 C1104 1.427 . S
N1108 C1105 1.384 . S
N1109 C1101 1.427 . S
N1109 C1107 1.384 . S
H1110 C1116 0.930 . S
H1111 C1120 0.930 . S
H1112 C1125 0.929 . S
H1113 C1123 0.929 . S
H1114 C1118 0.929 . S
H1115 C1124 0.929 . S
C1116 H1110 0.930 . S
C1116 C1117 1.367 . S
C1116 C1124 1.378 . S
C1117 C1116 1.367 . S
C1117 C1125 1.433 . S
C1118 H1114 0.929 . S
C1118 C1120 1.378 . S
C1118 C1122 1.350 . S
C1119 C1122 1.463 . S
C1119 C1124 1.350 . S
C1119 N1127 1.427 . S
C1120 H1111 0.930 . S
C1120 C1118 1.378 . S
C1120 C1121 1.367 . S
C1121 C1120 1.367 . S
C1121 C1123 1.433 . S
C1122 C1118 1.350 . S
C1122 C1119 1.463 . S
C1122 N1126 1.427 . S
C1123 H1113 0.929 . S
C1123 C1121 1.433 . S
C1123 N1126 1.384 . S
C1124 H1115 0.929 . S
C1124 C1116 1.378 . S
C1124 C1119 1.350 . S
C1125 H1112 0.929 . S
C1125 C1117 1.433 . S
C1125 N1127 1.384 . S
N1126 C1122 1.427 . S
N1126 C1123 1.384 . S
N1127 C1119 1.427 . S
N1127 C1125 1.384 . S
H1128 C1134 0.930 . S
H1129 C1138 0.930 . S
H1130 C1143 0.929 . S
H1131 C1141 0.929 . S
H1132 C1136 0.929 . S
H1133 C1142 0.929 . S
C1134 H1128 0.930 . S
C1134 C1135 1.367 . S
C1134 C1142 1.378 . S
C1135 C1134 1.367 . S
C1135 C1143 1.433 . S
C1136 H1132 0.929 . S
C1136 C1138 1.378 . S
C1136 C1140 1.350 . S
C1137 C1140 1.463 . S
C1137 C1142 1.350 . S
C1137 N1145 1.427 . S
C1138 H1129 0.930 . S
C1138 C1136 1.378 . S
C1138 C1139 1.367 . S
C1139 C1138 1.367 . S
C1139 C1141 1.433 . S
C1140 C1136 1.350 . S
C1140 C1137 1.463 . S
C1140 N1144 1.427 . S
C1141 H1131 0.929 . S
C1141 C1139 1.433 . S
C1141 N1144 1.384 . S
C1142 H1133 0.929 . S
C1142 C1134 1.378 . S
C1142 C1137 1.350 . S
C1143 H1130 0.929 . S
C1143 C1135 1.433 . S
C1143 N1145 1.384 . S
N1144 C1140 1.427 . S
N1144 C1141 1.384 . S
N1145 C1137 1.427 . S
N1145 C1143 1.384 . S
H1146 C1152 0.930 . S
H1147 C1156 0.930 . S
H1148 C1161 0.929 . S
H1149 C1159 0.929 . S
H1150 C1154 0.929 . S
H1151 C1160 0.929 . S
C1152 H1146 0.930 . S
C1152 C1153 1.367 . S
C1152 C1160 1.378 . S
C1153 C1152 1.367 . S
C1153 C1161 1.433 . S
C1154 H1150 0.929 . S
C1154 C1156 1.378 . S
C1154 C1158 1.350 . S
C1155 C1158 1.463 . S
C1155 C1160 1.350 . S
C1155 N1163 1.427 . S
C1156 H1147 0.930 . S
C1156 C1154 1.378 . S
C1156 C1157 1.367 . S
C1157 C1156 1.367 . S
C1157 C1159 1.433 . S
C1158 C1154 1.350 . S
C1158 C1155 1.463 . S
C1158 N1162 1.427 . S
C1159 H1149 0.929 . S
C1159 C1157 1.433 . S
C1159 N1162 1.384 . S
C1160 H1151 0.929 . S
C1160 C1152 1.378 . S
C1160 C1155 1.350 . S
C1161 H1148 0.929 . S
C1161 C1153 1.433 . S
C1161 N1163 1.384 . S
N1162 C1158 1.427 . S
N1162 C1159 1.384 . S
N1163 C1155 1.427 . S
N1163 C1161 1.384 . S
H1164 C1170 0.930 . S
H1165 C1174 0.930 . S
H1166 C1179 0.929 . S
H1167 C1177 0.929 . S
H1168 C1172 0.929 . S
H1169 C1178 0.929 . S
C1170 H1164 0.930 . S
C1170 C1171 1.367 . S
C1170 C1178 1.378 . S
C1171 C1170 1.367 . S
C1171 C1179 1.433 . S
C1172 H1168 0.929 . S
C1172 C1174 1.378 . S
C1172 C1176 1.350 . S
C1173 C1176 1.463 . S
C1173 C1178 1.350 . S
C1173 N1181 1.427 . S
C1174 H1165 0.930 . S
C1174 C1172 1.378 . S
C1174 C1175 1.367 . S
C1175 C1174 1.367 . S
C1175 C1177 1.433 . S
C1176 C1172 1.350 . S
C1176 C1173 1.463 . S
C1176 N1180 1.427 . S
C1177 H1167 0.929 . S
C1177 C1175 1.433 . S
C1177 N1180 1.384 . S
C1178 H1169 0.929 . S
C1178 C1170 1.378 . S
C1178 C1173 1.350 . S
C1179 H1166 0.929 . S
C1179 C1171 1.433 . S
C1179 N1181 1.384 . S
N1180 C1176 1.427 . S
N1180 C1177 1.384 . S
N1181 C1173 1.427 . S
N1181 C1179 1.384 . S
H1182 C1188 0.930 . S
H1183 C1192 0.930 . S
H1184 C1197 0.929 . S
H1185 C1195 0.929 . S
H1186 C1190 0.929 . S
H1187 C1196 0.929 . S
C1188 H1182 0.930 . S
C1188 C1189 1.367 . S
C1188 C1196 1.378 . S
C1189 C1188 1.367 . S
C1189 C1197 1.433 . S
C1190 H1186 0.929 . S
C1190 C1192 1.378 . S
C1190 C1194 1.350 . S
C1191 C1194 1.463 . S
C1191 C1196 1.350 . S
C1191 N1199 1.427 . S
C1192 H1183 0.930 . S
C1192 C1190 1.378 . S
C1192 C1193 1.367 . S
C1193 C1192 1.367 . S
C1193 C1195 1.433 . S
C1194 C1190 1.350 . S
C1194 C1191 1.463 . S
C1194 N1198 1.427 . S
C1195 H1185 0.929 . S
C1195 C1193 1.433 . S
C1195 N1198 1.384 . S
C1196 H1187 0.929 . S
C1196 C1188 1.378 . S
C1196 C1191 1.350 . S
C1197 H1184 0.929 . S
C1197 C1189 1.433 . S
C1197 N1199 1.384 . S
N1198 C1194 1.427 . S
N1198 C1195 1.384 . S
N1199 C1191 1.427 . S
N1199 C1197 1.384 . S
C343 C77 0.940 . S
C347 C13 0.864 . S
C361 C15 1.115 . S
C365 C38 1.246 . S
C379 C58 0.838 . S
C383 C35 0.923 . S
C397 C80 1.518 . S
C401 C59 1.514 . S
C415 C102 1.200 . S
C419 C120 1.144 . S
C433 C118 0.978 . S
C437 C139 1.016 . S
C451 C144 1.457 . S
C455 C164 1.509 . S
C469 C97 0.974 . S
C473 C163 0.922 . S
C487 C207 1.425 . S
C491 C18 1.432 . S
C505 C225 0.867 . S
C509 C37 0.799 . S
C523 C56 1.163 . S
C527 C287 1.196 . S
C541 C183 0.903 . S
C545 C79 0.848 . S
C559 C247 0.847 . S
C563 C99 0.903 . S
C577 C312 1.435 . S
C581 C123 1.433 . S
C595 C141 0.873 . S
C599 C268 0.806 . S
C613 C329 1.169 . S
C617 C161 1.191 . S
C631 C181 0.973 . S
C635 C289 0.927 . S
C649 C204 1.142 . S
C653 C186 1.200 . S
C667 C223 0.987 . S
C671 C202 0.991 . S
C685 C307 0.867 . S
C689 C245 0.938 . S
C703 C266 0.913 . S
C707 C331 0.853 . S
C721 C246 0.882 . S
C725 C16 0.863 . S
C739 C270 1.197 . S
C743 C14 1.111 . S
C757 C267 0.947 . S
C761 C55 0.846 . S
C775 C60 1.600 . S
C779 C249 1.587 . S
C793 C203 1.122 . S
C797 C101 1.198 . S
C811 C205 0.865 . S
C815 C142 0.909 . S
C829 C291 1.608 . S
C833 C143 1.583 . S
C847 C100 0.967 . S
C851 C286 0.899 . S
C865 C122 1.616 . S
C869 C17 1.619 . S
C883 C224 0.944 . S
C887 C265 0.862 . S
C901 C57 1.126 . S
C905 C162 1.122 . S
C919 C182 0.964 . S
C923 C244 0.893 . S
C937 C76 0.868 . S
C941 C98 0.946 . S
C955 C206 1.613 . S
C959 C311 1.608 . S
C973 C140 0.964 . S
C977 C34 0.891 . S
C991 C330 1.112 . S
C995 C288 1.130 . S
C1009 C184 0.967 . S
C1013 C160 0.896 . S
C1027 C185 1.193 . S
C1031 C119 1.119 . S
C1045 C226 0.901 . S
C1049 C121 0.903 . S
C1063 C78 0.886 . S
C1067 C310 0.856 . S
C1081 C36 0.951 . S
C1085 C328 0.870 . S
C1099 C269 1.237 . S
C1103 C309 1.143 . S
C1117 C248 1.521 . S
C1121 C332 1.518 . S
C1135 C228 1.456 . S
C1139 C290 1.505 . S
C1153 C308 1.084 . S
C1157 C39 1.208 . S
C1171 C81 1.594 . S
C1175 C333 1.605 . S
C1189 C165 1.615 . S
C1193 C227 1.591 . S
