# Generated by pormake.
# Topology kag, (6)-cn, num edge types: 1
# Building blocks:
#     Node 0, Type 0, BuildingBlock: KUMBOL_clean_sbu_0, # of connection points: 6
#     Node 1, Type 0, BuildingBlock: KUMBOL_clean_sbu_0, # of connection points: 6
#     Node 2, Type 0, BuildingBlock: KUMBOL_clean_sbu_0, # of connection points: 6
#     Edge 3, Type (0, 0), BuildingBlock: FUNLAD_clean_linker_0, # of connection points: 2
#     Edge 4, Type (0, 0), BuildingBlock: FUNLAD_clean_linker_0, # of connection points: 2
#     Edge 5, Type (0, 0), BuildingBlock: FUNLAD_clean_linker_0, # of connection points: 2
#     Edge 6, Type (0, 0), BuildingBlock: FUNLAD_clean_linker_0, # of connection points: 2
#     Edge 7, Type (0, 0), BuildingBlock: FUNLAD_clean_linker_0, # of connection points: 2
#     Edge 8, Type (0, 0), BuildingBlock: FUNLAD_clean_linker_0, # of connection points: 2
#     Edge 9, Type (0, 0), BuildingBlock: FUNLAD_clean_linker_0, # of connection points: 2
#     Edge 10, Type (0, 0), BuildingBlock: FUNLAD_clean_linker_0, # of connection points: 2
#     Edge 11, Type (0, 0), BuildingBlock: FUNLAD_clean_linker_0, # of connection points: 2
# Relax obj value: 0.061
# Max RMSD: 0.178
# Mean RMSD: 0.134
data_MOF--net-kag--node1-KUMBOL_clean_sbu_0--edge1-FUNLAD_clean_linker_0
_symmetry_space_group_name_H-M    P1
_symmetry_Int_Tables_number       1
_symmetry_cell_setting            triclinic
loop_
_symmetry_equiv_pos_as_xyz
'x, y, z'
_cell_length_a     44.921281
_cell_length_b     34.660238
_cell_length_c     17.914384
_cell_angle_alpha  95.165764
_cell_angle_beta   115.28455
_cell_angle_gamma 98.519295
loop_
_atom_site_label
_atom_site_type_symbol
_atom_site_fract_x
_atom_site_fract_y
_atom_site_fract_z
_atom_type_partial_charge
Gd0 Gd 0.01864 0.59198 0.01296 0.0
Gd1 Gd 0.997 0.48377 0.96977 0.0
C2 C 0.073 0.41265 0.95724 0.0
C3 C 0.04514 0.37991 0.81171 0.0
C4 C 0.01795 0.42309 0.86477 0.0
C5 C 0.04536 0.43076 0.94292 0.0
C6 C 0.0172 0.39696 0.79867 0.0
C7 C 0.07301 0.3878 0.89084 0.0
C8 C 0.09945 0.4194 0.03828 0.0
C9 C 0.0974 0.44265 0.10303 0.0
N10 N 0.04439 0.45468 0.00578 0.0
C11 C 0.06933 0.45971 0.08582 0.0
H12 H 0.06821 0.4777 0.13651 0.0
C13 C 0.96231 0.43 0.78112 0.0
N14 N 0.9914 0.44 0.85434 0.0
C15 C 0.96037 0.40433 0.71359 0.0
C16 C 0.98808 0.38808 0.72206 0.0
H17 H 0.9409 0.44268 0.77424 0.0
H18 H 0.09414 0.37388 0.90047 0.0
H19 H 0.94958 0.60207 0.84523 0.0
H20 H 0.1212 0.40616 0.05182 0.0
H21 H 0.11747 0.44752 0.16622 0.0
H22 H 0.04517 0.36002 0.76151 0.0
H23 H 0.07383 0.63092 0.21075 0.0
H24 H 0.8948 0.67005 0.93129 0.0
H25 H 0.90037 0.63249 0.81544 0.0
H26 H 0.96801 0.71021 0.22497 0.0
H27 H 0.93754 0.39714 0.65509 0.0
H28 H 0.9865 0.36813 0.66971 0.0
H29 H 0.92006 0.69854 0.08456 0.0
H30 H 0.07603 0.67402 0.33174 0.0
N31 N 0.97149 0.62138 0.9771 0.0
C32 C 0.91651 0.65676 0.94483 0.0
C33 C 0.91963 0.6357 0.87924 0.0
C34 C 0.94203 0.66155 0.02674 0.0
C35 C 0.96969 0.64351 0.04095 0.0
C36 C 0.94764 0.61851 0.89646 0.0
N37 N 0.02348 0.63385 0.13002 0.0
C38 C 0.99662 0.65013 0.11986 0.0
C39 C 0.0535 0.66741 0.27259 0.0
C40 C 0.02547 0.68294 0.2643 0.0
C41 C 0.05224 0.64318 0.20407 0.0
C42 C 0.99672 0.67485 0.18692 0.0
H43 H 0.02653 0.70178 0.31741 0.0
O44 O 0.06468 0.63467 0.04514 0.0
O45 O 0.03615 0.53704 -0.00672 0.0
O46 O 0.02017 0.50787 0.11024 0.0
O47 O 0.01064 0.57184 0.12035 0.0
O48 O 0.07079 0.58016 0.08924 0.0
O49 O 0.0205 0.6321 0.92801 0.0
O50 O 0.95015 0.44367 0.94179 0.0
O51 O 0.97929 0.53883 0.9881 0.0
O52 O 0.99613 0.56817 0.87227 0.0
O53 O 1.00308 0.5029 0.85948 0.0
O54 O 0.94531 0.49572 0.89051 0.0
O55 O 0.99537 0.44305 0.05393 0.0
C56 C 0.06671 0.54599 0.0471 0.0
C57 C 0.96857 0.69144 0.17404 0.0
C58 C 0.94125 0.68476 0.0941 0.0
C59 C 0.05137 0.65042 0.97811 0.0
C60 C 0.05828 0.69394 0.99058 0.0
C61 C 0.03998 0.71535 0.0193 0.0
C62 C 0.08348 0.71432 0.97332 0.0
C63 C 0.0902 0.756 0.98378 0.0
C64 C 0.04671 0.75663 0.03062 0.0
C65 C 0.07156 0.77687 0.0129 0.0
C66 C 0.01655 0.53913 0.15174 0.0
C67 C 0.94918 0.53005 0.93167 0.0
C68 C 0.96382 0.42646 0.00631 0.0
C69 C 0.95498 0.38292 0.9901 0.0
C70 C 0.97468 0.36044 0.9692 0.0
C71 C 0.92591 0.36363 -0.00629 0.0
C72 C 0.91639 0.32196 0.97649 0.0
C73 C 0.96546 0.31919 0.95208 0.0
C74 C 0.93658 0.30002 0.95565 0.0
C75 C 0.99825 0.53616 0.82939 0.0
H76 H 0.02047 0.70023 0.03266 0.0
H77 H 0.09736 0.69768 0.95024 0.0
H78 H 0.03255 0.773 0.05303 0.0
H79 H 0.07638 0.80893 0.02258 0.0
H80 H 0.99714 0.37471 0.96617 0.0
H81 H 0.91049 0.38115 0.00872 0.0
H82 H 0.98082 0.30199 0.93619 0.0
H83 H 0.93033 0.26796 0.94323 0.0
Gd84 Gd 0.4628 1.03347 0.93937 0.0
Gd85 Gd 0.55338 0.04568 0.04954 0.0
C86 C 0.6022 0.94197 0.14459 0.0
C87 C 0.62592 0.96147 0.29563 0.0
C88 C 0.59621 1.00449 0.20276 0.0
C89 C 0.58971 0.97713 0.13382 0.0
C90 C 0.61504 0.99742 0.2845 0.0
C91 C 0.61951 0.93379 0.22576 0.0
C92 C 0.59809 0.91688 0.07368 0.0
C93 C 0.58311 0.92794 -0.00494 0.0
N94 N 0.57347 0.98638 0.05645 0.0
C95 C 0.57134 0.96326 0.9877 0.0
H96 H 0.55971 0.97127 0.92645 0.0
C97 C 0.59523 0.06911 0.25548 0.0
N98 N 0.5858 0.03914 0.18965 0.0
C99 C 0.61367 0.06339 0.33776 0.0
C100 C 0.62326 1.0272 0.35243 0.0
H101 H 0.5877 0.09706 0.24462 0.0
H102 H 0.62895 0.90671 0.23523 0.0
H103 H 0.45827 0.10866 0.06448 0.0
H104 H 0.60725 0.88955 0.07922 0.0
H105 H 0.58048 0.9092 0.93999 0.0
H106 H 0.64014 0.9553 0.35793 0.0
H107 H 0.42793 0.98255 0.74374 0.0
H108 H 0.40957 0.19009 0.913 0.0
H109 H 0.43773 0.17081 0.05213 0.0
H110 H 0.37472 0.12423 0.63322 0.0
H111 H 0.62041 0.08686 0.38977 0.0
H112 H 0.63767 1.02291 0.41621 0.0
H113 H 0.38659 0.17274 0.75667 0.0
H114 H 0.39468 0.99295 0.59915 0.0
N115 N 0.44292 0.09294 0.93371 0.0
C116 C 0.41861 0.16268 0.91798 0.0
C117 C 0.43439 0.15184 -0.00344 0.0
C118 C 0.41372 0.13738 0.84651 0.0
C119 C 0.4261 0.10212 0.85654 0.0
C120 C 0.44603 0.11643 0.00321 0.0
N121 N 0.42987 0.04028 0.7997 0.0
C122 C 0.41932 0.07488 0.78722 0.0
C123 C 0.40154 1.0163 0.65146 0.0
C124 C 0.39176 0.05244 0.63744 0.0
C125 C 0.4203 1.01047 0.73348 0.0
C126 C 0.40016 0.08207 0.70577 0.0
H127 H 0.37711 0.05682 0.57386 0.0
O128 O 0.42134 0.9826 0.89624 0.0
O129 O 0.50485 1.00116 0.00041 0.0
O130 O 0.53366 1.0286 0.90815 0.0
O131 O 0.48333 0.05015 0.84924 0.0
O132 O 0.4662 0.97292 0.88749 0.0
O133 O 0.42862 1.02835 -0.00359 0.0
O134 O 0.59489 0.09652 0.09306 0.0
O135 O 0.51137 0.07753 0.98765 0.0
O136 O 0.48265 0.05065 0.08065 0.0
O137 O 0.53273 1.02872 0.13925 0.0
O138 O 0.54971 0.10681 0.0994 0.0
O139 O 0.58804 0.0505 -0.00616 0.0
C140 C 0.49388 0.96901 0.94757 0.0
C141 C 0.3892 0.11799 0.69531 0.0
C142 C 0.39597 0.14561 0.76559 0.0
C143 C 0.40948 0.99565 0.94622 0.0
C144 C 0.37293 0.99366 0.9083 0.0
C145 C 0.35881 1.02102 0.85777 0.0
C146 C 0.35183 0.96384 0.92199 0.0
C147 C 0.3167 0.96124 0.88509 0.0
C148 C 0.32414 1.01869 0.82108 0.0
C149 C 0.30319 0.9891 0.83452 0.0
C150 C 0.50957 0.03944 0.84442 0.0
C151 C 0.522 0.11021 0.03862 0.0
C152 C 0.60709 0.08324 0.04403 0.0
C153 C 0.64364 0.08514 0.08328 0.0
C154 C 0.65733 0.05729 0.13291 0.0
C155 C 0.66519 0.11552 0.07232 0.0
C156 C 0.70033 0.11826 0.11147 0.0
C157 C 0.69202 0.05973 0.17161 0.0
C158 C 0.71342 0.08996 0.16118 0.0
C159 C 0.50656 0.03951 0.14416 0.0
H160 H 0.37452 0.0442 0.84678 0.0
H161 H 0.36276 0.94247 0.96047 0.0
H162 H 0.31346 0.04002 0.78233 0.0
H163 H 0.27642 0.98844 0.80632 0.0
H164 H 0.64128 1.03369 0.14179 0.0
H165 H 0.65464 0.13726 0.03449 0.0
H166 H 0.70236 1.03805 0.20974 0.0
H167 H 0.74022 0.09086 0.19116 0.0
Gd168 Gd 0.55773 0.55991 0.04939 0.0
Gd169 Gd 0.46533 0.52148 0.95411 0.0
C170 C 0.41982 0.39053 0.84198 0.0
C171 C 0.39394 0.39195 0.6925 0.0
C172 C 0.42296 0.45306 0.79281 0.0
C173 C 0.43135 0.43195 0.85811 0.0
C174 C 0.40342 0.43347 0.70933 0.0
C175 C 0.40208 0.37051 0.75878 0.0
C176 C 0.42493 0.37079 0.90986 0.0
C177 C 0.43985 0.39258 0.99089 0.0
N178 N 0.4478 0.45241 0.9376 0.0
C179 C 0.45075 0.43365 0.00354 0.0
H180 H 0.46233 0.45007 0.06652 0.0
C181 C 0.41977 0.51561 0.75043 0.0
N182 N 0.43171 0.49317 0.8117 0.0
C183 C 0.40067 0.49753 0.66654 0.0
C184 C 0.39285 0.45627 0.64573 0.0
H185 H 0.42589 0.54752 0.76601 0.0
H186 H 0.39344 0.33863 0.74513 0.0
H187 H 0.55783 0.63059 0.93343 0.0
H188 H 0.41645 0.339 0.90021 0.0
H189 H 0.44314 0.37777 0.0437 0.0
H190 H 0.37923 0.37629 0.62871 0.0
H191 H 0.59858 0.53519 0.23776 0.0
H192 H 0.60433 0.74241 0.09664 0.0
H193 H 0.57622 0.70289 0.95375 0.0
H194 H 0.64492 0.70693 0.37009 0.0
H195 H 0.39203 0.51543 0.61802 0.0
H196 H 0.37785 0.44234 0.58077 0.0
H197 H 0.62914 0.74374 0.25225 0.0
H198 H 0.63342 0.56821 0.38498 0.0
N199 N 0.5741 0.62897 0.06326 0.0
C200 C 0.59617 0.71062 0.0881 0.0
C201 C 0.58043 0.6884 0.00739 0.0
C202 C 0.6024 0.69132 0.15699 0.0
C203 C 0.59123 0.64987 0.14231 0.0
C204 C 0.56996 0.64732 -0.00385 0.0
N205 N 0.59209 0.58913 0.19072 0.0
C206 C 0.6006 0.62923 0.20834 0.0
C207 C 0.62426 0.58573 0.33594 0.0
C208 C 0.63193 0.62704 0.35554 0.0
C209 C 0.60465 0.56714 0.25257 0.0
C210 C 0.62064 0.64935 0.29124 0.0
H211 H 0.64734 0.64137 0.42009 0.0
O212 O 0.60434 0.53807 0.08322 0.0
O213 O 0.51601 0.50535 -0.00375 0.0
O214 O 0.49089 0.52009 0.0941 0.0
O215 O 0.53994 0.56892 0.14945 0.0
O216 O 0.56108 0.49904 0.0874 0.0
O217 O 0.58536 0.56584 0.97452 0.0
O218 O 0.42067 0.54697 0.92402 0.0
O219 O 0.50709 0.57626 0.0108 0.0
O220 O 0.53187 0.56065 0.90929 0.0
O221 O 0.48364 0.51085 0.8555 0.0
O222 O 0.46318 0.58208 0.91423 0.0
O223 O 0.43544 0.51288 0.02323 0.0
C224 C 0.53102 0.48007 0.03746 0.0
C225 C 0.62981 0.69088 0.30676 0.0
C226 C 0.62077 0.71184 0.23968 0.0
C227 C 0.61023 0.55097 0.02366 0.0
C228 C 0.64496 0.57379 0.04809 0.0
C229 C 0.6554 0.61165 0.0967 0.0
C230 C 0.66769 0.5589 0.02245 0.0
C231 C 0.69989 0.58258 0.0438 0.0
C232 C 0.68688 0.6348 0.11795 0.0
C233 C 0.70881 0.6206 0.09143 0.0
C234 C 0.51582 0.54537 0.15769 0.0
C235 C 0.4928 0.60123 0.96702 0.0
C236 C 0.41243 0.53108 0.97761 0.0
C237 C 0.37661 0.50997 0.94517 0.0
C238 C 0.36469 0.47599 0.88376 0.0
C239 C 0.35397 0.52324 0.97335 0.0
C240 C 0.31976 0.50262 0.9387 0.0
C241 C 0.33155 0.45533 0.85087 0.0
C242 C 0.30936 0.46838 0.87786 0.0
C243 C 0.50747 0.53452 0.84651 0.0
H244 H 0.63915 0.62352 0.1183 0.0
H245 H 0.66023 0.5296 0.98532 0.0
H246 H 0.69435 0.66403 0.1553 0.0
H247 H 0.7332 0.63929 0.10937 0.0
H248 H 0.38102 0.46533 0.86081 0.0
H249 H 0.3627 0.54963 0.02038 0.0
H250 H 0.32296 0.42899 0.80383 0.0
H251 H 0.28386 0.45124 0.85122 0.0
C252 C 1.006 0.50803 0.70604 0.0
C253 C 0.99767 0.53849 0.7462 0.0
C254 C 0.00807 0.51126 0.63095 0.0
C255 C 1.00175 0.54516 0.5935 0.0
C256 C 0.99302 0.57533 0.63332 0.0
C257 C 0.991 0.57209 0.70852 0.0
C258 C 1.00483 0.55114 0.51496 0.0
C259 C 0.00953 0.52327 0.46531 0.0
C260 C 0.01258 0.52944 0.38686 0.0
C261 C 0.02337 0.50057 0.34957 0.0
C262 C 0.02544 0.50403 0.27448 0.0
C263 C 0.01674 0.53654 0.23443 0.0
H264 H 0.99482 0.58478 0.37112 0.0
C265 C 1.00619 0.56562 0.27188 0.0
C266 C 1.00404 0.56215 0.34679 0.0
H267 H 0.99863 0.59072 0.24221 0.0
H268 H 0.01185 0.48193 0.73364 0.0
H269 H 0.01538 0.48735 0.60435 0.0
H270 H 0.98802 0.60185 0.60656 0.0
H271 H 0.98464 0.59625 0.7376 0.0
H272 H 1.00331 0.58033 0.4984 0.0
H273 H 0.01139 0.49417 0.48205 0.0
H274 H 0.03002 0.47493 0.37833 0.0
H275 H 0.03351 0.48093 0.24743 0.0
C276 C 0.52602 1.0229 0.28928 0.0
C277 C 0.5042 0.03995 0.22453 0.0
C278 C 0.52386 1.02336 0.36506 0.0
C279 C 0.49974 0.04098 0.3781 0.0
C280 C 0.47765 0.05745 0.31278 0.0
C281 C 0.47987 0.05706 0.23713 0.0
C282 C 0.4959 0.04176 0.45711 0.0
C283 C 0.51998 1.03684 0.53111 0.0
C284 C 0.51616 1.03767 0.61017 0.0
C285 C 0.5384 1.02143 0.67569 0.0
C286 C 0.53625 1.02191 0.75144 0.0
C287 C 0.51183 0.03887 0.76393 0.0
H288 H 0.47496 0.06919 0.57591 0.0
C289 C 0.48984 0.05565 0.69895 0.0
C290 C 0.49194 0.05512 0.62308 0.0
H291 H 0.47121 0.06978 0.70695 0.0
H292 H 0.54455 1.00862 0.28115 0.0
H293 H 0.5407 1.00908 0.41208 0.0
H294 H 0.45861 0.07092 0.32039 0.0
H295 H 0.46249 0.0703 0.18865 0.0
H296 H 0.47213 0.04702 0.45336 0.0
H297 H 0.54374 1.0316 0.53483 0.0
H298 H 0.55752 1.00809 0.66818 0.0
H299 H 0.55375 1.00886 0.80008 0.0
C300 C 0.52623 0.56308 0.74535 0.0
C301 C 0.50625 0.53297 0.76171 0.0
C302 C 0.52488 0.56209 0.6655 0.0
C303 C 0.50364 0.53067 0.59958 0.0
C304 C 0.4837 0.50063 0.61619 0.0
C305 C 0.4851 0.50162 0.69607 0.0
C306 C 0.50062 0.52843 0.51244 0.0
C307 C 0.52286 0.54993 0.49173 0.0
C308 C 0.51986 0.54792 0.40463 0.0
C309 C 0.54028 0.57773 0.38885 0.0
C310 C 0.53886 0.5771 0.30902 0.0
C311 C 0.51716 0.54637 0.24252 0.0
H312 H 0.48242 0.49289 0.34665 0.0
C313 C 0.49672 0.51645 0.25803 0.0
C314 C 0.4981 0.51708 0.33789 0.0
H315 H 0.47982 0.49213 0.20863 0.0
H316 H 0.54272 0.58787 0.79405 0.0
H317 H 0.54012 0.5865 0.65601 0.0
H318 H 0.46699 0.47605 0.56712 0.0
H319 H 0.46971 0.47759 0.70637 0.0
H320 H 0.47897 0.5078 0.4638 0.0
H321 H 0.54455 0.57046 0.54052 0.0
H322 H 0.55738 0.60187 0.43854 0.0
H323 H 0.55463 0.60097 0.29944 0.0
C324 C 0.12872 0.54702 0.09774 0.0
C325 C 0.09545 0.53513 0.03363 0.0
C326 C 0.15644 0.54142 0.08334 0.0
C327 C 0.15171 0.5238 0.00384 0.0
C328 C 0.11832 0.51116 0.94054 0.0
C329 C 0.09075 0.51703 0.95485 0.0
C330 C 0.18018 0.51833 0.98249 0.0
C331 C 0.21367 0.53234 0.03258 0.0
C332 C 0.24113 0.52706 0.00714 0.0
C333 C 0.27462 0.53123 0.06912 0.0
C334 C 0.30065 0.52534 0.04767 0.0
C335 C 0.29397 0.51525 0.96336 0.0
H336 H 0.21016 0.51708 0.87232 0.0
C337 C 0.26084 0.51311 0.90142 0.0
C338 C 0.23494 0.51892 0.92271 0.0
H339 H 0.25471 0.50629 0.83565 0.0
H340 H 0.13339 0.5614 0.15907 0.0
H341 H 0.18136 0.55135 0.13468 0.0
H342 H 0.11343 0.4974 0.87857 0.0
H343 H 0.06582 0.50822 0.90321 0.0
H344 H 0.17263 0.50173 0.92076 0.0
H345 H 0.22179 0.54782 0.09553 0.0
H346 H 0.28058 0.53812 0.13477 0.0
H347 H 0.32568 0.52715 0.09722 0.0
C348 C 0.71645 0.16025 0.02134 0.0
C349 C 0.72359 0.15013 0.10064 0.0
C350 C 0.73978 0.18799 0.01062 0.0
C351 C 0.77081 0.20621 0.07918 0.0
C352 C 0.77716 0.19732 0.15886 0.0
C353 C 0.75398 0.16953 0.16946 0.0
C354 C 0.79742 0.23419 0.07081 0.0
C355 C 0.80036 0.23453 -0.00105 0.0
C356 C 0.82934 0.25898 0.99308 0.0
C357 C 0.83671 0.24702 0.92692 0.0
C358 C 0.86456 0.26774 0.9209 0.0
C359 C 0.88572 0.30124 0.98066 0.0
H360 H 0.84455 0.30443 0.10187 0.0
C361 C 0.87772 0.31412 0.0453 0.0
C362 C 0.84984 0.29333 0.05141 0.0
H363 H 0.89344 0.33981 0.0924 0.0
H364 H 0.69322 0.14591 0.96709 0.0
H365 H 0.73335 0.1949 0.94859 0.0
H366 H 0.80056 0.21123 0.21307 0.0
H367 H 0.75998 0.16301 0.2317 0.0
H368 H 0.81691 0.25266 0.12809 0.0
H369 H 0.7824 0.21366 0.94331 0.0
H370 H 0.82119 0.22105 0.88037 0.0
H371 H 0.86952 0.25744 0.86926 0.0
C372 C 0.51132 0.91242 0.03372 0.0
C373 C 0.50143 0.92783 0.95799 0.0
C374 C 0.51316 0.87159 0.03546 0.0
C375 C 0.50514 0.8449 0.96139 0.0
C376 C 0.49605 0.86108 0.88707 0.0
C377 C 0.49396 0.90115 0.88528 0.0
C378 C 0.50485 0.80029 0.9547 0.0
C379 C 0.51039 0.7771 0.0156 0.0
C380 C 0.5078 0.7319 0.00229 0.0
C381 C 0.51765 0.71171 0.07183 0.0
C382 C 0.51437 0.66984 0.06209 0.0
C383 C 0.50124 0.6463 0.98216 0.0
H384 H 0.48585 0.72082 0.86606 0.0
C385 C 0.49115 0.66629 0.91281 0.0
C386 C 0.49456 0.70796 0.92239 0.0
H387 H 0.48009 0.64938 0.85 0.0
H388 H 0.51672 0.93159 0.09109 0.0
H389 H 0.52044 0.86108 0.09456 0.0
H390 H 0.48973 0.84226 0.82852 0.0
H391 H 0.48594 0.9113 0.82556 0.0
H392 H 0.49905 0.78556 0.89272 0.0
H393 H 0.51693 0.79154 0.07846 0.0
H394 H 0.52771 0.7284 0.13452 0.0
H395 H 0.52142 0.65583 0.11712 0.0
C396 C 0.91956 0.55242 0.0162 0.0
C397 C 0.91958 0.54199 0.93831 0.0
C398 C 0.88976 0.55805 0.02042 0.0
C399 C 0.85942 0.55397 0.94674 0.0
C400 C 0.85994 0.54482 0.86927 0.0
C401 C 0.88931 0.5381 0.86516 0.0
C402 C 0.82715 0.56054 0.94752 0.0
C403 C 0.81664 0.54938 0.00449 0.0
C404 C 0.78383 0.55509 0.00382 0.0
C405 C 0.76922 0.53081 0.04367 0.0
C406 C 0.74026 0.53754 0.05082 0.0
C407 C 0.72537 0.56923 0.01951 0.0
H408 H 0.7785 0.60575 0.93969 0.0
C409 C 0.73937 0.59282 0.97762 0.0
C410 C 0.76798 0.58579 0.96942 0.0
H411 H 0.72889 0.61791 0.954 0.0
H412 H 0.94226 0.55506 0.07389 0.0
H413 H 0.89056 0.56586 0.08123 0.0
H414 H 0.83722 0.54186 0.81137 0.0
H415 H 0.88836 0.52973 0.80431 0.0
H416 H 0.81037 0.57254 0.89521 0.0
H417 H 0.83216 0.53404 0.05216 0.0
H418 H 0.78075 0.50702 0.07126 0.0
H419 H 0.73065 0.51934 0.08497 0.0
C420 C 0.14776 0.76777 0.98817 0.0
C421 C 0.11607 0.77785 0.96315 0.0
C422 C 0.17223 0.78926 0.97029 0.0
C423 C 0.16541 0.82122 0.92662 0.0
C424 C 0.13349 0.83058 0.90013 0.0
C425 C 0.10921 0.80938 0.91854 0.0
C426 C 0.19033 0.84505 0.90552 0.0
C427 C 0.224 0.84924 0.94869 0.0
C428 C 0.24822 0.87587 0.92974 0.0
C429 C 0.28032 0.8932 -0.00551 0.0
C430 C 0.30291 0.92018 0.97985 0.0
C431 C 0.29398 0.93018 0.89976 0.0
H432 H 0.21599 0.87058 0.79638 0.0
C433 C 0.26244 0.9114 0.83413 0.0
C434 C 0.23988 0.88452 0.84878 0.0
H435 H 0.2551 0.91755 0.77115 0.0
H436 H 0.15381 0.74361 0.02265 0.0
H437 H 0.1962 0.78041 0.9899 0.0
H438 H 0.12734 0.85471 0.8656 0.0
H439 H 0.08488 0.81749 0.89711 0.0
H440 H 0.18036 0.86209 0.85563 0.0
H441 H 0.23433 0.8353 0.00361 0.0
H442 H 0.2876 0.88676 0.05726 0.0
H443 H 0.32693 0.93414 0.03191 0.0
C444 C 0.5103 0.40791 0.95688 0.0
C445 C 0.52101 0.43561 0.0311 0.0
C446 C 0.50766 0.36636 0.95815 0.0
C447 C 0.51586 0.35117 0.03394 0.0
C448 C 0.52605 0.37921 0.10703 0.0
C449 C 0.52898 0.42019 0.10583 0.0
C450 C 0.51532 0.30744 0.04336 0.0
C451 C 0.5084 0.27535 0.98339 0.0
C452 C 0.51007 0.23242 -0.00154 0.0
C453 C 0.50021 0.20138 0.92999 0.0
C454 C 0.50281 0.16167 0.94127 0.0
C455 C 0.51518 0.15116 0.02174 0.0
H456 H 0.53056 0.24332 0.13442 0.0
C457 C 0.52483 0.18197 0.08996 0.0
C458 C 0.52223 0.2215 0.07885 0.0
H459 H 0.53494 0.17553 0.15313 0.0
H460 H 0.50497 0.41843 0.89828 0.0
H461 H 0.49969 0.34647 0.89995 0.0
H462 H 0.53271 0.36947 0.16686 0.0
H463 H 0.53815 0.44022 0.16465 0.0
H464 H 0.52175 0.30188 0.10638 0.0
H465 H 0.50146 0.28045 0.91976 0.0
H466 H 0.4908 0.20792 0.86694 0.0
H467 H 0.49579 0.13938 0.88699 0.0
loop_
_geom_bond_atom_site_label_1
_geom_bond_atom_site_label_2
_geom_bond_distance
_geom_bond_site_symmetry_2
_ccdc_geom_bond_type
Gd0 N31 2.661 1_454 S
Gd0 N37 2.601 . S
Gd0 O44 2.545 . S
Gd0 O45 2.606 . S
Gd0 O47 2.429 . S
Gd0 O48 2.545 . S
Gd0 O49 2.412 1_554 S
Gd0 O51 2.362 1_454 S
Gd0 O52 2.324 1_554 S
Gd0 C59 2.828 . S
Gd1 N10 2.661 1_656 S
Gd1 N14 2.601 . S
Gd1 O45 2.362 1_656 S
Gd1 O46 2.324 1_556 S
Gd1 O50 2.545 . S
Gd1 O51 2.606 . S
Gd1 O53 2.429 . S
Gd1 O54 2.545 . S
Gd1 O55 2.412 1_556 S
Gd1 C68 2.828 . S
C2 C5 1.417 1_554 S
C2 C7 1.431 1_554 S
C2 C8 1.412 . S
C3 C6 1.437 . S
C3 C7 1.317 . S
C3 H22 0.929 . S
C4 C5 1.426 . S
C4 C6 1.413 . S
C4 N14 1.359 1_455 S
C5 C2 1.417 1_556 S
C5 C4 1.426 . S
C5 N10 1.350 1_556 S
C6 C3 1.437 . S
C6 C4 1.413 . S
C6 C16 1.391 1_455 S
C7 C2 1.431 1_556 S
C7 C3 1.317 . S
C7 H18 0.930 1_556 S
C8 C2 1.412 . S
C8 C9 1.355 . S
C8 H20 0.930 . S
C9 C8 1.355 . S
C9 C11 1.402 . S
C9 H21 0.930 . S
N10 Gd1 2.661 1_454 S
N10 C5 1.350 1_554 S
N10 C11 1.307 . S
C11 C9 1.402 . S
C11 N10 1.307 . S
C11 H12 0.930 . S
H12 C11 0.930 . S
C13 N14 1.334 . S
C13 C15 1.394 . S
C13 H17 0.930 . S
N14 Gd1 2.601 . S
N14 C4 1.359 1_655 S
N14 C13 1.334 . S
C15 C13 1.394 . S
C15 C16 1.359 . S
C15 H27 0.930 . S
C16 C6 1.391 1_655 S
C16 C15 1.359 . S
C16 H28 0.929 . S
H17 C13 0.930 . S
H18 C7 0.930 1_554 S
H19 C36 0.930 . S
H20 C8 0.930 . S
H21 C9 0.930 . S
H22 C3 0.929 . S
H23 C41 0.930 . S
H24 C32 0.930 . S
H25 C33 0.930 . S
H26 C57 0.929 . S
H27 C15 0.930 . S
H28 C16 0.929 . S
H29 C58 0.930 1_556 S
H30 C39 0.930 . S
N31 Gd0 2.661 1_656 S
N31 C35 1.350 1_556 S
N31 C36 1.307 . S
C32 H24 0.930 . S
C32 C33 1.355 . S
C32 C34 1.412 . S
C33 H25 0.930 . S
C33 C32 1.355 . S
C33 C36 1.402 . S
C34 C32 1.412 . S
C34 C35 1.417 1_556 S
C34 C58 1.431 1_556 S
C35 N31 1.350 1_554 S
C35 C34 1.417 1_554 S
C35 C38 1.426 . S
C36 H19 0.930 . S
C36 N31 1.307 . S
C36 C33 1.402 . S
N37 Gd0 2.601 . S
N37 C38 1.359 1_455 S
N37 C41 1.334 . S
C38 C35 1.426 . S
C38 N37 1.359 1_655 S
C38 C42 1.413 . S
C39 H30 0.930 . S
C39 C40 1.359 . S
C39 C41 1.394 . S
C40 C39 1.359 . S
C40 C42 1.391 1_455 S
C40 H43 0.929 . S
C41 H23 0.930 . S
C41 N37 1.334 . S
C41 C39 1.394 . S
C42 C38 1.413 . S
C42 C40 1.391 1_655 S
C42 C57 1.437 . S
H43 C40 0.929 . S
O44 Gd0 2.545 . S
O44 C59 1.258 . S
O45 Gd0 2.606 . S
O45 Gd1 2.362 1_454 S
O45 C56 1.284 . S
O46 Gd1 2.324 1_554 S
O46 C66 1.254 1_655 S
O47 Gd0 2.429 . S
O47 C66 1.268 . S
O48 Gd0 2.545 . S
O48 C56 1.250 . S
O49 Gd0 2.412 1_556 S
O49 C59 1.252 1_556 S
O50 Gd1 2.545 . S
O50 C68 1.258 . S
O51 Gd0 2.362 1_656 S
O51 Gd1 2.606 . S
O51 C67 1.284 . S
O52 Gd0 2.324 1_556 S
O52 C75 1.254 1_455 S
O53 Gd1 2.429 . S
O53 C75 1.268 . S
O54 Gd1 2.545 . S
O54 C67 1.250 . S
O55 Gd1 2.412 1_554 S
O55 C68 1.252 1_554 S
C56 O45 1.284 . S
C56 O48 1.250 . S
C57 H26 0.929 . S
C57 C42 1.437 . S
C57 C58 1.317 . S
C58 H29 0.930 1_554 S
C58 C34 1.431 1_554 S
C58 C57 1.317 . S
C59 Gd0 2.828 . S
C59 O44 1.258 . S
C59 O49 1.252 1_554 S
C59 C60 1.497 . S
C60 C59 1.497 . S
C60 C61 1.395 . S
C60 C62 1.380 . S
C61 C60 1.395 . S
C61 C64 1.398 . S
C61 H76 0.930 . S
C62 C60 1.380 . S
C62 C63 1.391 . S
C62 H77 0.930 1_554 S
C63 C62 1.391 . S
C63 C65 1.387 . S
C64 C61 1.398 . S
C64 C65 1.380 . S
C64 H78 0.930 . S
C65 C63 1.387 . S
C65 C64 1.380 . S
C65 H79 0.930 . S
C66 O46 1.254 1_455 S
C66 O47 1.268 . S
C67 O51 1.284 . S
C67 O54 1.250 . S
C68 Gd1 2.828 . S
C68 O50 1.258 . S
C68 O55 1.252 1_556 S
C68 C69 1.497 . S
C69 C68 1.497 . S
C69 C70 1.395 . S
C69 C71 1.380 . S
C70 C69 1.395 . S
C70 C73 1.398 . S
C70 H80 0.930 . S
C71 C69 1.380 . S
C71 C72 1.391 . S
C71 H81 0.930 1_556 S
C72 C71 1.391 . S
C72 C74 1.387 . S
C73 C70 1.398 . S
C73 C74 1.380 . S
C73 H82 0.930 . S
C74 C72 1.387 . S
C74 C73 1.380 . S
C74 H83 0.930 . S
C75 O52 1.254 1_655 S
C75 O53 1.268 . S
H76 C61 0.930 . S
H77 C62 0.930 1_556 S
H78 C64 0.930 . S
H79 C65 0.930 . S
H80 C70 0.930 . S
H81 C71 0.930 1_554 S
H82 C73 0.930 . S
H83 C74 0.930 . S
Gd84 N115 2.661 1_565 S
Gd84 N121 2.601 1_565 S
Gd84 O128 2.545 . S
Gd84 O129 2.606 1_556 S
Gd84 O131 2.429 . S
Gd84 O132 2.545 . S
Gd84 O133 2.412 . S
Gd84 O135 2.362 1_565 S
Gd84 O136 2.324 1_556 S
Gd84 C143 2.828 . S
Gd85 N94 2.661 1_545 S
Gd85 N98 2.601 1_545 S
Gd85 O129 2.362 1_545 S
Gd85 O130 2.324 1_554 S
Gd85 O134 2.545 . S
Gd85 O135 2.606 1_554 S
Gd85 O137 2.429 . S
Gd85 O138 2.545 . S
Gd85 O139 2.412 . S
Gd85 C152 2.828 . S
C86 C89 1.417 . S
C86 C91 1.431 . S
C86 C92 1.412 1_554 S
C87 C90 1.437 . S
C87 C91 1.317 . S
C87 H106 0.929 . S
C88 C89 1.426 . S
C88 C90 1.413 . S
C88 N98 1.359 . S
C89 C86 1.417 . S
C89 C88 1.426 . S
C89 N94 1.350 . S
C90 C87 1.437 . S
C90 C88 1.413 . S
C90 C100 1.391 . S
C91 C86 1.431 . S
C91 C87 1.317 . S
C91 H102 0.930 . S
C92 C86 1.412 1_556 S
C92 C93 1.355 . S
C92 H104 0.930 . S
C93 C92 1.355 . S
C93 C95 1.402 . S
C93 H105 0.930 . S
N94 Gd85 2.661 1_565 S
N94 C89 1.350 . S
N94 C95 1.307 1_554 S
C95 C93 1.402 . S
C95 N94 1.307 1_556 S
C95 H96 0.930 . S
H96 C95 0.930 . S
C97 N98 1.334 1_545 S
C97 C99 1.394 . S
C97 H101 0.930 . S
N98 Gd85 2.601 1_565 S
N98 C88 1.359 . S
N98 C97 1.334 1_565 S
C99 C97 1.394 . S
C99 C100 1.359 1_545 S
C99 H111 0.930 . S
C100 C90 1.391 . S
C100 C99 1.359 1_565 S
C100 H112 0.929 . S
H101 C97 0.930 . S
H102 C91 0.930 . S
H103 C120 0.930 . S
H104 C92 0.930 . S
H105 C93 0.930 . S
H106 C87 0.929 . S
H107 C125 0.930 . S
H108 C116 0.930 . S
H109 C117 0.930 . S
H110 C141 0.929 . S
H111 C99 0.930 . S
H112 C100 0.929 . S
H113 C142 0.930 . S
H114 C123 0.930 . S
N115 Gd84 2.661 1_545 S
N115 C119 1.350 . S
N115 C120 1.307 1_556 S
C116 H108 0.930 . S
C116 C117 1.355 . S
C116 C118 1.412 1_554 S
C117 H109 0.930 . S
C117 C116 1.355 . S
C117 C120 1.402 . S
C118 C116 1.412 1_556 S
C118 C119 1.417 . S
C118 C142 1.431 . S
C119 N115 1.350 . S
C119 C118 1.417 . S
C119 C122 1.426 . S
C120 H103 0.930 . S
C120 N115 1.307 1_554 S
C120 C117 1.402 . S
N121 Gd84 2.601 1_545 S
N121 C122 1.359 . S
N121 C125 1.334 1_545 S
C122 C119 1.426 . S
C122 N121 1.359 . S
C122 C126 1.413 . S
C123 H114 0.930 . S
C123 C124 1.359 1_565 S
C123 C125 1.394 . S
C124 C123 1.359 1_545 S
C124 C126 1.391 . S
C124 H127 0.929 . S
C125 H107 0.930 . S
C125 N121 1.334 1_565 S
C125 C123 1.394 . S
C126 C122 1.413 . S
C126 C124 1.391 . S
C126 C141 1.437 . S
H127 C124 0.929 . S
O128 Gd84 2.545 . S
O128 C143 1.258 . S
O129 Gd84 2.606 1_554 S
O129 Gd85 2.362 1_565 S
O129 C140 1.284 . S
O130 Gd85 2.324 1_556 S
O130 C150 1.253 . S
O131 Gd84 2.429 . S
O131 C150 1.264 1_565 S
O132 Gd84 2.545 . S
O132 C140 1.250 1_556 S
O133 Gd84 2.412 . S
O133 C143 1.252 . S
O134 Gd85 2.545 . S
O134 C152 1.258 . S
O135 Gd84 2.362 1_545 S
O135 Gd85 2.606 1_556 S
O135 C151 1.284 . S
O136 Gd84 2.324 1_554 S
O136 C159 1.253 . S
O137 Gd85 2.429 . S
O137 C159 1.267 1_545 S
O138 Gd85 2.545 . S
O138 C151 1.250 1_554 S
O139 Gd85 2.412 . S
O139 C152 1.252 . S
C140 O129 1.284 . S
C140 O132 1.250 1_554 S
C141 H110 0.929 . S
C141 C126 1.437 . S
C141 C142 1.317 . S
C142 H113 0.930 . S
C142 C118 1.431 . S
C142 C141 1.317 . S
C143 Gd84 2.828 . S
C143 O128 1.258 . S
C143 O133 1.252 . S
C143 C144 1.497 . S
C144 C143 1.497 . S
C144 C145 1.395 . S
C144 C146 1.380 . S
C145 C144 1.395 . S
C145 C148 1.398 . S
C145 H160 0.930 . S
C146 C144 1.380 . S
C146 C147 1.391 . S
C146 H161 0.930 1_556 S
C147 C146 1.391 . S
C147 C149 1.387 . S
C148 C145 1.398 . S
C148 C149 1.380 . S
C148 H162 0.930 . S
C149 C147 1.387 . S
C149 C148 1.380 . S
C149 H163 0.930 . S
C150 O130 1.253 . S
C150 O131 1.264 1_545 S
C151 O135 1.284 . S
C151 O138 1.250 1_556 S
C152 Gd85 2.828 . S
C152 O134 1.258 . S
C152 O139 1.252 . S
C152 C153 1.497 . S
C153 C152 1.497 . S
C153 C154 1.395 . S
C153 C155 1.380 . S
C154 C153 1.395 . S
C154 C157 1.398 . S
C154 H164 0.930 . S
C155 C153 1.380 . S
C155 C156 1.391 . S
C155 H165 0.930 1_554 S
C156 C155 1.391 . S
C156 C158 1.387 . S
C157 C154 1.398 . S
C157 C158 1.380 . S
C157 H166 0.930 . S
C158 C156 1.387 . S
C158 C157 1.380 . S
C158 H167 0.930 . S
C159 O136 1.253 . S
C159 O137 1.267 1_565 S
H160 C145 0.930 . S
H161 C146 0.930 1_554 S
H162 C148 0.930 . S
H163 C149 0.930 . S
H164 C154 0.930 . S
H165 C155 0.930 1_556 S
H166 C157 0.930 . S
H167 C158 0.930 . S
Gd168 N199 2.661 . S
Gd168 N205 2.601 . S
Gd168 O212 2.545 . S
Gd168 O213 2.606 1_554 S
Gd168 O215 2.429 . S
Gd168 O216 2.545 . S
Gd168 O217 2.412 . S
Gd168 O219 2.362 . S
Gd168 O220 2.324 1_554 S
Gd168 C227 2.828 . S
Gd169 N178 2.661 . S
Gd169 N182 2.601 . S
Gd169 O213 2.362 . S
Gd169 O214 2.324 1_556 S
Gd169 O218 2.545 . S
Gd169 O219 2.606 1_556 S
Gd169 O221 2.429 . S
Gd169 O222 2.545 . S
Gd169 O223 2.412 . S
Gd169 C236 2.828 . S
C170 C173 1.417 . S
C170 C175 1.431 . S
C170 C176 1.412 1_556 S
C171 C174 1.437 . S
C171 C175 1.317 . S
C171 H190 0.929 . S
C172 C173 1.426 . S
C172 C174 1.413 . S
C172 N182 1.359 . S
C173 C170 1.417 . S
C173 C172 1.426 . S
C173 N178 1.350 . S
C174 C171 1.437 . S
C174 C172 1.413 . S
C174 C184 1.391 . S
C175 C170 1.431 . S
C175 C171 1.317 . S
C175 H186 0.930 . S
C176 C170 1.412 1_554 S
C176 C177 1.355 . S
C176 H188 0.930 . S
C177 C176 1.355 . S
C177 C179 1.402 . S
C177 H189 0.930 . S
N178 Gd169 2.661 . S
N178 C173 1.350 . S
N178 C179 1.307 1_556 S
C179 C177 1.402 . S
C179 N178 1.307 1_554 S
C179 H180 0.930 . S
H180 C179 0.930 . S
C181 N182 1.334 . S
C181 C183 1.394 . S
C181 H185 0.930 . S
N182 Gd169 2.601 . S
N182 C172 1.359 . S
N182 C181 1.334 . S
C183 C181 1.394 . S
C183 C184 1.359 . S
C183 H195 0.930 . S
C184 C174 1.391 . S
C184 C183 1.359 . S
C184 H196 0.929 . S
H185 C181 0.930 . S
H186 C175 0.930 . S
H187 C204 0.930 . S
H188 C176 0.930 . S
H189 C177 0.930 . S
H190 C171 0.929 . S
H191 C209 0.930 . S
H192 C200 0.930 . S
H193 C201 0.930 . S
H194 C225 0.929 . S
H195 C183 0.930 . S
H196 C184 0.929 . S
H197 C226 0.930 . S
H198 C207 0.930 . S
N199 Gd168 2.661 . S
N199 C203 1.350 . S
N199 C204 1.307 1_554 S
C200 H192 0.930 . S
C200 C201 1.355 . S
C200 C202 1.412 1_556 S
C201 H193 0.930 . S
C201 C200 1.355 . S
C201 C204 1.402 . S
C202 C200 1.412 1_554 S
C202 C203 1.417 . S
C202 C226 1.431 . S
C203 N199 1.350 . S
C203 C202 1.417 . S
C203 C206 1.426 . S
C204 H187 0.930 . S
C204 N199 1.307 1_556 S
C204 C201 1.402 . S
N205 Gd168 2.601 . S
N205 C206 1.359 . S
N205 C209 1.334 . S
C206 C203 1.426 . S
C206 N205 1.359 . S
C206 C210 1.413 . S
C207 H198 0.930 . S
C207 C208 1.359 . S
C207 C209 1.394 . S
C208 C207 1.359 . S
C208 C210 1.391 . S
C208 H211 0.929 . S
C209 H191 0.930 . S
C209 N205 1.334 . S
C209 C207 1.394 . S
C210 C206 1.413 . S
C210 C208 1.391 . S
C210 C225 1.437 . S
H211 C208 0.929 . S
O212 Gd168 2.545 . S
O212 C227 1.258 . S
O213 Gd168 2.606 1_556 S
O213 Gd169 2.362 . S
O213 C224 1.284 . S
O214 Gd169 2.324 1_554 S
O214 C234 1.254 . S
O215 Gd168 2.429 . S
O215 C234 1.268 . S
O216 Gd168 2.545 . S
O216 C224 1.250 1_554 S
O217 Gd168 2.412 . S
O217 C227 1.252 . S
O218 Gd169 2.545 . S
O218 C236 1.258 . S
O219 Gd168 2.362 . S
O219 Gd169 2.606 1_554 S
O219 C235 1.284 . S
O220 Gd168 2.324 1_556 S
O220 C243 1.254 . S
O221 Gd169 2.429 . S
O221 C243 1.268 . S
O222 Gd169 2.545 . S
O222 C235 1.250 1_556 S
O223 Gd169 2.412 . S
O223 C236 1.252 . S
C224 O213 1.284 . S
C224 O216 1.250 1_556 S
C225 H194 0.929 . S
C225 C210 1.437 . S
C225 C226 1.317 . S
C226 H197 0.930 . S
C226 C202 1.431 . S
C226 C225 1.317 . S
C227 Gd168 2.828 . S
C227 O212 1.258 . S
C227 O217 1.252 . S
C227 C228 1.497 . S
C228 C227 1.497 . S
C228 C229 1.395 . S
C228 C230 1.380 . S
C229 C228 1.395 . S
C229 C232 1.398 . S
C229 H244 0.930 . S
C230 C228 1.380 . S
C230 C231 1.391 . S
C230 H245 0.930 1_554 S
C231 C230 1.391 . S
C231 C233 1.387 . S
C232 C229 1.398 . S
C232 C233 1.380 . S
C232 H246 0.930 . S
C233 C231 1.387 . S
C233 C232 1.380 . S
C233 H247 0.930 . S
C234 O214 1.254 . S
C234 O215 1.268 . S
C235 O219 1.284 . S
C235 O222 1.250 1_554 S
C236 Gd169 2.828 . S
C236 O218 1.258 . S
C236 O223 1.252 . S
C236 C237 1.497 . S
C237 C236 1.497 . S
C237 C238 1.395 . S
C237 C239 1.380 . S
C238 C237 1.395 . S
C238 C241 1.398 . S
C238 H248 0.930 . S
C239 C237 1.380 . S
C239 C240 1.391 . S
C239 H249 0.930 1_556 S
C240 C239 1.391 . S
C240 C242 1.387 . S
C241 C238 1.398 . S
C241 C242 1.380 . S
C241 H250 0.930 . S
C242 C240 1.387 . S
C242 C241 1.380 . S
C242 H251 0.930 . S
C243 O220 1.254 . S
C243 O221 1.268 . S
H244 C229 0.930 . S
H245 C230 0.930 1_556 S
H246 C232 0.930 . S
H247 C233 0.930 . S
H248 C238 0.930 . S
H249 C239 0.930 1_554 S
H250 C241 0.930 . S
H251 C242 0.930 . S
C252 C253 1.373 1_655 S
C252 C254 1.383 . S
C252 H268 0.951 . S
C253 C252 1.373 1_455 S
C253 C257 1.412 . S
C254 C252 1.383 . S
C254 C255 1.402 1_655 S
C254 H269 0.951 . S
C255 C254 1.402 1_455 S
C255 C256 1.375 . S
C255 C258 1.481 . S
C256 C255 1.375 . S
C256 C257 1.367 . S
C256 H270 0.951 . S
C257 C253 1.412 . S
C257 C256 1.367 . S
C257 H271 0.950 . S
C258 C255 1.481 . S
C258 C259 1.297 1_455 S
C258 H272 0.950 . S
C259 C258 1.297 1_655 S
C259 C260 1.479 1_655 S
C259 H273 0.950 . S
C260 C259 1.479 1_455 S
C260 C261 1.375 1_455 S
C260 C266 1.404 . S
C261 C260 1.375 1_655 S
C261 C262 1.369 . S
C261 H274 0.950 . S
C262 C261 1.369 . S
C262 C263 1.392 1_655 S
C262 H275 0.951 . S
C263 C262 1.392 1_455 S
C263 C265 1.384 . S
H264 C266 0.949 . S
C265 C263 1.384 . S
C265 C266 1.385 . S
C265 H267 0.950 . S
C266 C260 1.404 . S
C266 H264 0.949 . S
C266 C265 1.385 . S
H267 C265 0.950 . S
H268 C252 0.951 . S
H269 C254 0.951 . S
H270 C256 0.951 . S
H271 C257 0.950 . S
H272 C258 0.950 . S
H273 C259 0.950 . S
H274 C261 0.950 . S
H275 C262 0.951 . S
C276 C277 1.386 . S
C276 C278 1.383 . S
C276 H292 0.951 . S
C277 C276 1.386 . S
C277 C281 1.383 1_565 S
C278 C276 1.383 . S
C278 C279 1.402 1_565 S
C278 H293 0.951 . S
C279 C278 1.402 1_545 S
C279 C280 1.375 . S
C279 C282 1.481 . S
C280 C279 1.375 . S
C280 C281 1.367 . S
C280 H294 0.951 . S
C281 C277 1.383 1_545 S
C281 C280 1.367 . S
C281 H295 0.950 . S
C282 C279 1.481 . S
C282 C283 1.297 . S
C282 H296 0.950 . S
C283 C282 1.297 . S
C283 C284 1.479 . S
C283 H297 0.950 . S
C284 C283 1.479 . S
C284 C285 1.375 . S
C284 C290 1.404 . S
C285 C284 1.375 . S
C285 C286 1.369 . S
C285 H298 0.950 1_545 S
C286 C285 1.369 . S
C286 C287 1.392 . S
C286 H299 0.951 1_545 S
C287 C286 1.392 . S
C287 C289 1.384 . S
H288 C290 0.949 . S
C289 C287 1.384 . S
C289 C290 1.385 . S
C289 H291 0.950 . S
C290 C284 1.404 . S
C290 H288 0.949 . S
C290 C289 1.385 . S
H291 C289 0.950 . S
H292 C276 0.951 . S
H293 C278 0.951 . S
H294 C280 0.951 . S
H295 C281 0.950 . S
H296 C282 0.950 . S
H297 C283 0.950 . S
H298 C285 0.950 1_565 S
H299 C286 0.951 1_565 S
C300 C301 1.386 . S
C300 C302 1.383 . S
C300 H316 0.951 . S
C301 C300 1.386 . S
C301 C305 1.383 . S
C302 C300 1.383 . S
C302 C303 1.402 . S
C302 H317 0.951 . S
C303 C302 1.402 . S
C303 C304 1.375 . S
C303 C306 1.481 . S
C304 C303 1.375 . S
C304 C305 1.367 . S
C304 H318 0.951 . S
C305 C301 1.383 . S
C305 C304 1.367 . S
C305 H319 0.950 . S
C306 C303 1.481 . S
C306 C307 1.297 . S
C306 H320 0.950 . S
C307 C306 1.297 . S
C307 C308 1.479 . S
C307 H321 0.950 . S
C308 C307 1.479 . S
C308 C309 1.375 . S
C308 C314 1.404 . S
C309 C308 1.375 . S
C309 C310 1.369 . S
C309 H322 0.950 . S
C310 C309 1.369 . S
C310 C311 1.392 . S
C310 H323 0.951 . S
C311 C310 1.392 . S
C311 C313 1.384 . S
H312 C314 0.949 . S
C313 C311 1.384 . S
C313 C314 1.385 . S
C313 H315 0.950 . S
C314 C308 1.404 . S
C314 H312 0.949 . S
C314 C313 1.385 . S
H315 C313 0.950 . S
H316 C300 0.951 . S
H317 C302 0.951 . S
H318 C304 0.951 . S
H319 C305 0.950 . S
H320 C306 0.950 . S
H321 C307 0.950 . S
H322 C309 0.950 . S
H323 C310 0.951 . S
C324 C325 1.386 . S
C324 C326 1.383 . S
C324 H340 0.951 . S
C325 C324 1.386 . S
C325 C329 1.383 1_554 S
C326 C324 1.383 . S
C326 C327 1.402 1_554 S
C326 H341 0.951 . S
C327 C326 1.402 1_556 S
C327 C328 1.375 . S
C327 C330 1.481 . S
C328 C327 1.375 . S
C328 C329 1.367 . S
C328 H342 0.951 . S
C329 C325 1.383 1_556 S
C329 C328 1.367 . S
C329 H343 0.950 . S
C330 C327 1.481 . S
C330 C331 1.297 1_556 S
C330 H344 0.950 . S
C331 C330 1.297 1_554 S
C331 C332 1.479 . S
C331 H345 0.950 . S
C332 C331 1.479 . S
C332 C333 1.375 . S
C332 C338 1.404 1_554 S
C333 C332 1.375 . S
C333 C334 1.369 . S
C333 H346 0.950 . S
C334 C333 1.369 . S
C334 C335 1.392 1_554 S
C334 H347 0.951 . S
C335 C334 1.392 1_556 S
C335 C337 1.384 . S
H336 C338 0.949 . S
C337 C335 1.384 . S
C337 C338 1.385 . S
C337 H339 0.950 . S
C338 C332 1.404 1_556 S
C338 H336 0.949 . S
C338 C337 1.385 . S
H339 C337 0.950 . S
H340 C324 0.951 . S
H341 C326 0.951 . S
H342 C328 0.951 . S
H343 C329 0.950 . S
H344 C330 0.950 . S
H345 C331 0.950 . S
H346 C333 0.950 . S
H347 C334 0.951 . S
C348 C349 1.386 1_556 S
C348 C350 1.383 . S
C348 H364 0.951 . S
C349 C348 1.386 1_554 S
C349 C353 1.383 . S
C350 C348 1.383 . S
C350 C351 1.402 1_556 S
C350 H365 0.951 . S
C351 C350 1.402 1_554 S
C351 C352 1.375 . S
C351 C354 1.481 . S
C352 C351 1.375 . S
C352 C353 1.367 . S
C352 H366 0.951 . S
C353 C349 1.383 . S
C353 C352 1.367 . S
C353 H367 0.950 . S
C354 C351 1.481 . S
C354 C355 1.297 1_554 S
C354 H368 0.950 . S
C355 C354 1.297 1_556 S
C355 C356 1.479 1_556 S
C355 H369 0.950 . S
C356 C355 1.479 1_554 S
C356 C357 1.375 1_554 S
C356 C362 1.404 . S
C357 C356 1.375 1_556 S
C357 C358 1.369 . S
C357 H370 0.950 . S
C358 C357 1.369 . S
C358 C359 1.392 1_556 S
C358 H371 0.951 . S
C359 C358 1.392 1_554 S
C359 C361 1.384 . S
H360 C362 0.949 . S
C361 C359 1.384 . S
C361 C362 1.385 . S
C361 H363 0.950 . S
C362 C356 1.404 . S
C362 H360 0.949 . S
C362 C361 1.385 . S
H363 C361 0.950 . S
H364 C348 0.951 . S
H365 C350 0.951 . S
H366 C352 0.951 . S
H367 C353 0.950 . S
H368 C354 0.950 . S
H369 C355 0.950 . S
H370 C357 0.950 . S
H371 C358 0.951 . S
C372 C373 1.386 . S
C372 C374 1.383 . S
C372 H388 0.951 . S
C373 C372 1.386 . S
C373 C377 1.383 1_554 S
C374 C372 1.383 . S
C374 C375 1.402 . S
C374 H389 0.951 . S
C375 C374 1.402 . S
C375 C376 1.375 1_554 S
C375 C378 1.481 . S
C376 C375 1.375 1_556 S
C376 C377 1.367 . S
C376 H390 0.951 . S
C377 C373 1.383 1_556 S
C377 C376 1.367 . S
C377 H391 0.950 . S
C378 C375 1.481 . S
C378 C379 1.297 . S
C378 H392 0.950 . S
C379 C378 1.297 . S
C379 C380 1.479 . S
C379 H393 0.950 . S
C380 C379 1.479 . S
C380 C381 1.375 . S
C380 C386 1.404 . S
C381 C380 1.375 . S
C381 C382 1.369 . S
C381 H394 0.950 . S
C382 C381 1.369 . S
C382 C383 1.392 . S
C382 H395 0.951 . S
C383 C382 1.392 . S
C383 C385 1.384 . S
H384 C386 0.949 . S
C385 C383 1.384 . S
C385 C386 1.385 . S
C385 H387 0.950 1_554 S
C386 C380 1.404 . S
C386 H384 0.949 . S
C386 C385 1.385 . S
H387 C385 0.950 1_556 S
H388 C372 0.951 . S
H389 C374 0.951 . S
H390 C376 0.951 . S
H391 C377 0.950 . S
H392 C378 0.950 . S
H393 C379 0.950 . S
H394 C381 0.950 . S
H395 C382 0.951 . S
C396 C397 1.386 1_554 S
C396 C398 1.383 . S
C396 H412 0.951 . S
C397 C396 1.386 1_556 S
C397 C401 1.383 . S
C398 C396 1.383 . S
C398 C399 1.402 1_554 S
C398 H413 0.951 . S
C399 C398 1.402 1_556 S
C399 C400 1.375 . S
C399 C402 1.481 . S
C400 C399 1.375 . S
C400 C401 1.367 . S
C400 H414 0.951 . S
C401 C397 1.383 . S
C401 C400 1.367 . S
C401 H415 0.950 . S
C402 C399 1.481 . S
C402 C403 1.297 1_556 S
C402 H416 0.950 . S
C403 C402 1.297 1_554 S
C403 C404 1.479 . S
C403 H417 0.950 . S
C404 C403 1.479 . S
C404 C405 1.375 . S
C404 C410 1.404 1_554 S
C405 C404 1.375 . S
C405 C406 1.369 . S
C405 H418 0.950 . S
C406 C405 1.369 . S
C406 C407 1.392 . S
C406 H419 0.951 . S
C407 C406 1.392 . S
C407 C409 1.384 1_554 S
H408 C410 0.949 . S
C409 C407 1.384 1_556 S
C409 C410 1.385 . S
C409 H411 0.950 . S
C410 C404 1.404 1_556 S
C410 H408 0.949 . S
C410 C409 1.385 . S
H411 C409 0.950 . S
H412 C396 0.951 . S
H413 C398 0.951 . S
H414 C400 0.951 . S
H415 C401 0.950 . S
H416 C402 0.950 . S
H417 C403 0.950 . S
H418 C405 0.950 . S
H419 C406 0.951 . S
C420 C421 1.386 1_554 S
C420 C422 1.383 . S
C420 H436 0.951 . S
C421 C420 1.386 1_556 S
C421 C425 1.383 . S
C422 C420 1.383 . S
C422 C423 1.402 1_554 S
C422 H437 0.951 . S
C423 C422 1.402 1_556 S
C423 C424 1.375 . S
C423 C426 1.481 . S
C424 C423 1.375 . S
C424 C425 1.367 . S
C424 H438 0.951 . S
C425 C421 1.383 . S
C425 C424 1.367 . S
C425 H439 0.950 . S
C426 C423 1.481 . S
C426 C427 1.297 . S
C426 H440 0.950 . S
C427 C426 1.297 . S
C427 C428 1.479 . S
C427 H441 0.950 1_556 S
C428 C427 1.479 . S
C428 C429 1.375 1_556 S
C428 C434 1.404 . S
C429 C428 1.375 1_554 S
C429 C430 1.369 . S
C429 H442 0.950 . S
C430 C429 1.369 . S
C430 C431 1.392 1_554 S
C430 H443 0.951 . S
C431 C430 1.392 1_556 S
C431 C433 1.384 . S
H432 C434 0.949 . S
C433 C431 1.384 . S
C433 C434 1.385 . S
C433 H435 0.950 . S
C434 C428 1.404 . S
C434 H432 0.949 . S
C434 C433 1.385 . S
H435 C433 0.950 . S
H436 C420 0.951 . S
H437 C422 0.951 . S
H438 C424 0.951 . S
H439 C425 0.950 . S
H440 C426 0.950 . S
H441 C427 0.950 1_554 S
H442 C429 0.950 . S
H443 C430 0.951 . S
C444 C445 1.386 . S
C444 C446 1.383 . S
C444 H460 0.951 . S
C445 C444 1.386 . S
C445 C449 1.383 1_556 S
C446 C444 1.383 . S
C446 C447 1.402 . S
C446 H461 0.951 . S
C447 C446 1.402 . S
C447 C448 1.375 1_556 S
C447 C450 1.481 1_556 S
C448 C447 1.375 1_554 S
C448 C449 1.367 . S
C448 H462 0.951 . S
C449 C445 1.383 1_554 S
C449 C448 1.367 . S
C449 H463 0.950 . S
C450 C447 1.481 1_554 S
C450 C451 1.297 1_554 S
C450 H464 0.950 . S
C451 C450 1.297 1_556 S
C451 C452 1.479 . S
C451 H465 0.950 . S
C452 C451 1.479 . S
C452 C453 1.375 . S
C452 C458 1.404 1_556 S
C453 C452 1.375 . S
C453 C454 1.369 . S
C453 H466 0.950 . S
C454 C453 1.369 . S
C454 C455 1.392 . S
C454 H467 0.951 . S
C455 C454 1.392 . S
C455 C457 1.384 1_556 S
H456 C458 0.949 . S
C457 C455 1.384 1_554 S
C457 C458 1.385 . S
C457 H459 0.950 . S
C458 C452 1.404 1_554 S
C458 H456 0.949 . S
C458 C457 1.385 . S
H459 C457 0.950 . S
H460 C444 0.951 . S
H461 C446 0.951 . S
H462 C448 0.951 . S
H463 C449 0.950 . S
H464 C450 0.950 . S
H465 C451 0.950 . S
H466 C453 0.950 . S
H467 C454 0.951 . S
C253 C75 1.481 1_455 S
C263 C66 1.469 . S
C277 C159 1.443 . S
C287 C150 1.509 . S
C301 C243 1.516 . S
C311 C234 1.461 . S
C325 C56 1.557 . S
C335 C240 1.384 . S
C349 C156 0.744 . S
C359 C72 0.823 1_554 S
C373 C140 2.276 . S
C383 C235 2.351 . S
C397 C67 1.557 . S
C407 C231 1.389 . S
C421 C63 0.860 1_556 S
C431 C147 0.801 . S
C445 C224 2.322 . S
C455 C151 2.259 . S
