# Generated by pormake.
# Topology bcu-i, (5)-cn, num edge types: 1
# Building blocks:
#     Node 0, Type 0, BuildingBlock: XOMCOT_clean_sbu_1, # of connection points: 5
#     Node 1, Type 0, BuildingBlock: XOMCOT_clean_sbu_1, # of connection points: 5
#     Node 2, Type 0, BuildingBlock: XOMCOT_clean_sbu_1, # of connection points: 5
#     Node 3, Type 0, BuildingBlock: XOMCOT_clean_sbu_1, # of connection points: 5
#     Node 4, Type 0, BuildingBlock: XOMCOT_clean_sbu_1, # of connection points: 5
#     Node 5, Type 0, BuildingBlock: XOMCOT_clean_sbu_1, # of connection points: 5
#     Node 6, Type 0, BuildingBlock: XOMCOT_clean_sbu_1, # of connection points: 5
#     Node 7, Type 0, BuildingBlock: XOMCOT_clean_sbu_1, # of connection points: 5
#     Node 8, Type 0, BuildingBlock: XOMCOT_clean_sbu_1, # of connection points: 5
#     Node 9, Type 0, BuildingBlock: XOMCOT_clean_sbu_1, # of connection points: 5
#     Node 10, Type 0, BuildingBlock: XOMCOT_clean_sbu_1, # of connection points: 5
#     Node 11, Type 0, BuildingBlock: XOMCOT_clean_sbu_1, # of connection points: 5
#     Node 12, Type 0, BuildingBlock: XOMCOT_clean_sbu_1, # of connection points: 5
#     Node 13, Type 0, BuildingBlock: XOMCOT_clean_sbu_1, # of connection points: 5
#     Node 14, Type 0, BuildingBlock: XOMCOT_clean_sbu_1, # of connection points: 5
#     Node 15, Type 0, BuildingBlock: XOMCOT_clean_sbu_1, # of connection points: 5
#     Edge 16, Type (0, 0), BuildingBlock: KIFKEQ_clean_linker_1, # of connection points: 2
#     Edge 17, Type (0, 0), BuildingBlock: KIFKEQ_clean_linker_1, # of connection points: 2
#     Edge 18, Type (0, 0), BuildingBlock: KIFKEQ_clean_linker_1, # of connection points: 2
#     Edge 19, Type (0, 0), BuildingBlock: KIFKEQ_clean_linker_1, # of connection points: 2
#     Edge 20, Type (0, 0), BuildingBlock: KIFKEQ_clean_linker_1, # of connection points: 2
#     Edge 21, Type (0, 0), BuildingBlock: KIFKEQ_clean_linker_1, # of connection points: 2
#     Edge 22, Type (0, 0), BuildingBlock: KIFKEQ_clean_linker_1, # of connection points: 2
#     Edge 23, Type (0, 0), BuildingBlock: KIFKEQ_clean_linker_1, # of connection points: 2
#     Edge 24, Type (0, 0), BuildingBlock: KIFKEQ_clean_linker_1, # of connection points: 2
#     Edge 25, Type (0, 0), BuildingBlock: KIFKEQ_clean_linker_1, # of connection points: 2
#     Edge 26, Type (0, 0), BuildingBlock: KIFKEQ_clean_linker_1, # of connection points: 2
#     Edge 27, Type (0, 0), BuildingBlock: KIFKEQ_clean_linker_1, # of connection points: 2
#     Edge 28, Type (0, 0), BuildingBlock: KIFKEQ_clean_linker_1, # of connection points: 2
#     Edge 29, Type (0, 0), BuildingBlock: KIFKEQ_clean_linker_1, # of connection points: 2
#     Edge 30, Type (0, 0), BuildingBlock: KIFKEQ_clean_linker_1, # of connection points: 2
#     Edge 31, Type (0, 0), BuildingBlock: KIFKEQ_clean_linker_1, # of connection points: 2
#     Edge 32, Type (0, 0), BuildingBlock: KIFKEQ_clean_linker_1, # of connection points: 2
#     Edge 33, Type (0, 0), BuildingBlock: KIFKEQ_clean_linker_1, # of connection points: 2
#     Edge 34, Type (0, 0), BuildingBlock: KIFKEQ_clean_linker_1, # of connection points: 2
#     Edge 35, Type (0, 0), BuildingBlock: KIFKEQ_clean_linker_1, # of connection points: 2
#     Edge 36, Type (0, 0), BuildingBlock: KIFKEQ_clean_linker_1, # of connection points: 2
#     Edge 37, Type (0, 0), BuildingBlock: KIFKEQ_clean_linker_1, # of connection points: 2
#     Edge 38, Type (0, 0), BuildingBlock: KIFKEQ_clean_linker_1, # of connection points: 2
#     Edge 39, Type (0, 0), BuildingBlock: KIFKEQ_clean_linker_1, # of connection points: 2
#     Edge 40, Type (0, 0), BuildingBlock: KIFKEQ_clean_linker_1, # of connection points: 2
#     Edge 41, Type (0, 0), BuildingBlock: KIFKEQ_clean_linker_1, # of connection points: 2
#     Edge 42, Type (0, 0), BuildingBlock: KIFKEQ_clean_linker_1, # of connection points: 2
#     Edge 43, Type (0, 0), BuildingBlock: KIFKEQ_clean_linker_1, # of connection points: 2
#     Edge 44, Type (0, 0), BuildingBlock: KIFKEQ_clean_linker_1, # of connection points: 2
#     Edge 45, Type (0, 0), BuildingBlock: KIFKEQ_clean_linker_1, # of connection points: 2
#     Edge 46, Type (0, 0), BuildingBlock: KIFKEQ_clean_linker_1, # of connection points: 2
#     Edge 47, Type (0, 0), BuildingBlock: KIFKEQ_clean_linker_1, # of connection points: 2
#     Edge 48, Type (0, 0), BuildingBlock: KIFKEQ_clean_linker_1, # of connection points: 2
#     Edge 49, Type (0, 0), BuildingBlock: KIFKEQ_clean_linker_1, # of connection points: 2
#     Edge 50, Type (0, 0), BuildingBlock: KIFKEQ_clean_linker_1, # of connection points: 2
#     Edge 51, Type (0, 0), BuildingBlock: KIFKEQ_clean_linker_1, # of connection points: 2
#     Edge 52, Type (0, 0), BuildingBlock: KIFKEQ_clean_linker_1, # of connection points: 2
#     Edge 53, Type (0, 0), BuildingBlock: KIFKEQ_clean_linker_1, # of connection points: 2
#     Edge 54, Type (0, 0), BuildingBlock: KIFKEQ_clean_linker_1, # of connection points: 2
#     Edge 55, Type (0, 0), BuildingBlock: KIFKEQ_clean_linker_1, # of connection points: 2
# Relax obj value: 0.546
# Max RMSD: 0.209
# Mean RMSD: 0.209
data_MOF--net-bcu-i--node1-XOMCOT_clean_sbu_1--edge1-KIFKEQ_clean_linker_1
_symmetry_space_group_name_H-M    P1
_symmetry_Int_Tables_number       1
_symmetry_cell_setting            triclinic
loop_
_symmetry_equiv_pos_as_xyz
'x, y, z'
_cell_length_a     51.374822
_cell_length_b     51.357262
_cell_length_c     43.055702
_cell_angle_alpha  89.954452
_cell_angle_beta   90.074806
_cell_angle_gamma 89.856848
loop_
_atom_site_label
_atom_site_type_symbol
_atom_site_fract_x
_atom_site_fract_y
_atom_site_fract_z
_atom_type_partial_charge
C0 C 0.1699 0.0723 0.3131 0.0
C1 C 0.14524 0.08161 0.30705 0.0
N2 N 0.13752 0.09607 0.33152 0.0
N3 N 0.17765 0.08091 0.34114 0.0
C4 C 0.15754 0.09529 0.35178 0.0
H5 H 0.18149 0.06 0.2981 0.0
Co6 Co 0.20933 0.07342 0.35944 0.0
C7 C 0.20751 0.10129 0.42002 0.0
O8 O 0.23211 0.10799 0.41759 0.0
N9 N 0.24163 0.06474 0.3776 0.0
C10 C 0.28257 0.05171 0.38562 0.0
C11 C 0.26563 0.06304 0.36478 0.0
C12 C 0.24454 0.05386 0.40597 0.0
N13 N 0.26919 0.04622 0.41155 0.0
O14 O 0.19619 0.04052 0.37118 0.0
H15 H 0.2706 0.06808 0.34125 0.0
H16 H 0.22852 0.05022 0.42168 0.0
O17 O 0.19692 0.08763 0.39871 0.0
C18 C 0.2034 0.02057 0.356 0.0
O19 O 0.2211 0.02317 0.33422 0.0
N20 N 0.22166 0.10574 0.34585 0.0
C21 C 0.24124 0.15085 0.31942 0.0
C22 C 0.22301 0.15242 0.34334 0.0
C23 C 0.21311 0.12951 0.35603 0.0
C24 C 0.23729 0.10417 0.32043 0.0
C25 C 0.24804 0.12648 0.30742 0.0
H26 H 0.19815 0.1312 0.3734 0.0
H27 H 0.24116 0.08545 0.30994 0.0
H28 H 0.15772 0.10557 0.37365 0.0
H29 H 0.13385 0.07781 0.2864 0.0
H30 H 0.30285 0.04704 0.38166 0.0
H31 H 0.21661 0.17111 0.3522 0.0
H32 H 0.26121 0.12477 0.28789 0.0
C33 C 0.92105 0.15628 0.32089 0.0
C34 C 0.91001 0.1319 0.31945 0.0
N35 N 0.89178 0.1303 0.34182 0.0
N36 N 0.90996 0.16973 0.34427 0.0
C37 C 0.89207 0.15348 0.3564 0.0
H38 H 0.93633 0.16364 0.30606 0.0
Co39 Co 0.91866 0.20287 0.35706 0.0
C40 C 0.89627 0.20805 0.42085 0.0
O41 O 0.89315 0.23328 0.41745 0.0
N42 N 0.92804 0.23673 0.36981 0.0
C43 C 0.93066 0.27944 0.37899 0.0
C44 C 0.91844 0.2604 0.36176 0.0
C45 C 0.94636 0.24208 0.3914 0.0
N46 N 0.94836 0.26771 0.39725 0.0
O47 O 0.95233 0.19022 0.36782 0.0
H48 H 0.90297 0.26384 0.34527 0.0
H49 H 0.95715 0.22736 0.40403 0.0
O50 O 0.90616 0.19458 0.39887 0.0
C51 C 0.96975 0.19537 0.34777 0.0
O52 O 0.9635 0.2101 0.32391 0.0
N53 N 0.88612 0.2144 0.34344 0.0
C54 C 0.84156 0.23058 0.31234 0.0
C55 C 0.84002 0.22174 0.34302 0.0
C56 C 0.86253 0.21305 0.35799 0.0
C57 C 0.88769 0.22211 0.31323 0.0
C58 C 0.86563 0.23037 0.29721 0.0
H59 H 0.86048 0.20469 0.38072 0.0
H60 H 0.90638 0.222 0.30168 0.0
H61 H 0.8798 0.15829 0.37598 0.0
H62 H 0.91488 0.11664 0.30312 0.0
H63 H 0.9266 0.30013 0.37857 0.0
H64 H 0.82152 0.22113 0.35505 0.0
H65 H 0.86746 0.23704 0.27344 0.0
C66 C 0.82142 0.91965 0.31617 0.0
C67 C 0.8467 0.91161 0.3117 0.0
N68 N 0.8559 0.90195 0.33877 0.0
N69 N 0.81466 0.91497 0.34581 0.0
C70 C 0.83611 0.90463 0.35912 0.0
H71 H 0.80836 0.92726 0.29864 0.0
Co72 Co 0.78148 0.91888 0.36149 0.0
C73 C 0.7801 0.88435 0.41639 0.0
O74 O 0.75687 0.8761 0.40821 0.0
N75 N 0.74757 0.92377 0.37725 0.0
C76 C 0.70571 0.93432 0.38303 0.0
C77 C 0.72417 0.92483 0.36279 0.0
C78 C 0.74265 0.93271 0.40615 0.0
N79 N 0.71747 0.9391 0.4103 0.0
O80 O 0.79162 0.95121 0.37862 0.0
H81 H 0.72064 0.92096 0.33859 0.0
H82 H 0.75772 0.93647 0.42317 0.0
O83 O 0.79172 0.90143 0.39994 0.0
C84 C 0.78418 0.97139 0.36399 0.0
O85 O 0.76797 0.9687 0.34057 0.0
N86 N 0.77257 0.88752 0.34215 0.0
C87 C 0.7629 0.84481 0.304 0.0
C88 C 0.77884 0.84227 0.33025 0.0
C89 C 0.78391 0.86399 0.34864 0.0
C90 C 0.75874 0.89068 0.31546 0.0
C91 C 0.75297 0.86952 0.29655 0.0
H92 H 0.79797 0.86195 0.36709 0.0
H93 H 0.75301 0.90997 0.3081 0.0
H94 H 0.8369 0.89842 0.38306 0.0
H95 H 0.85687 0.91165 0.28973 0.0
H96 H 0.68559 0.93874 0.37763 0.0
H97 H 0.78799 0.82386 0.33601 0.0
H98 H 0.74093 0.87263 0.27623 0.0
C99 C 0.0674 0.83214 0.32366 0.0
C100 C 0.07808 0.8565 0.3202 0.0
N101 N 0.09594 0.8598 0.34276 0.0
N102 N 0.07829 0.82038 0.34849 0.0
C103 C 0.09576 0.83764 0.3595 0.0
H104 H 0.05266 0.82355 0.30898 0.0
Co105 Co 0.0701 0.7876 0.36303 0.0
C106 C 0.09433 0.78377 0.42585 0.0
O107 O 0.09792 0.7586 0.42251 0.0
N108 N 0.06114 0.75402 0.3773 0.0
C109 C 0.05845 0.71145 0.38746 0.0
C110 C 0.07068 0.73021 0.36982 0.0
C111 C 0.0429 0.74903 0.39906 0.0
N112 N 0.04084 0.72348 0.40546 0.0
O113 O 0.03678 0.80043 0.37445 0.0
H114 H 0.08601 0.72645 0.3533 0.0
H115 H 0.03199 0.76393 0.41117 0.0
O116 O 0.08358 0.79694 0.40412 0.0
C117 C 0.01936 0.79613 0.3541 0.0
O118 O 0.02536 0.78161 0.33 0.0
N119 N 0.1023 0.77594 0.34879 0.0
C120 C 0.14638 0.76079 0.31629 0.0
C121 C 0.14862 0.77063 0.34644 0.0
C122 C 0.1263 0.77882 0.36209 0.0
C123 C 0.09999 0.7671 0.31911 0.0
C124 C 0.12181 0.75931 0.30241 0.0
H125 H 0.12879 0.78821 0.38417 0.0
H126 H 0.08094 0.76613 0.30845 0.0
H127 H 0.10796 0.83422 0.3796 0.0
H128 H 0.07339 0.87053 0.30225 0.0
H129 H 0.0623 0.69072 0.38729 0.0
H130 H 0.1675 0.77257 0.35743 0.0
H131 H 0.11947 0.75184 0.27905 0.0
C132 C 0.15666 0.92533 0.67475 0.0
C133 C 0.13151 0.91649 0.67835 0.0
N134 N 0.12821 0.89593 0.65936 0.0
N135 N 0.16884 0.91048 0.65343 0.0
C136 C 0.15103 0.89276 0.64457 0.0
H137 H 0.16542 0.94167 0.68661 0.0
Co138 Co 0.20225 0.91478 0.63877 0.0
C139 C 0.20395 0.88167 0.58174 0.0
O140 O 0.2277 0.87368 0.58801 0.0
N141 N 0.23619 0.91993 0.62405 0.0
C142 C 0.27811 0.93055 0.62027 0.0
C143 C 0.259 0.92113 0.6397 0.0
C144 C 0.24198 0.92873 0.59536 0.0
N145 N 0.26725 0.93501 0.59236 0.0
O146 O 0.19188 0.94714 0.62133 0.0
H147 H 0.26149 0.91725 0.66415 0.0
H148 H 0.22749 0.93233 0.57756 0.0
O149 O 0.19242 0.89748 0.60003 0.0
C150 C 0.19936 0.96735 0.63582 0.0
O151 O 0.21567 0.96466 0.65915 0.0
N152 N 0.21179 0.88377 0.65863 0.0
C153 C 0.22488 0.84275 0.69798 0.0
C154 C 0.21285 0.83792 0.66937 0.0
C155 C 0.20585 0.85878 0.65032 0.0
C156 C 0.22215 0.88876 0.68712 0.0
C157 C 0.22917 0.86856 0.70703 0.0
H158 H 0.1949 0.85453 0.62966 0.0
H159 H 0.22474 0.90871 0.69451 0.0
H160 H 0.15443 0.87809 0.62704 0.0
H161 H 0.11691 0.92442 0.69381 0.0
H162 H 0.29803 0.93498 0.62651 0.0
H163 H 0.2084 0.81823 0.66212 0.0
H164 H 0.2382 0.87313 0.72911 0.0
C165 C 0.06881 0.16008 0.6707 0.0
C166 C 0.07855 0.13519 0.67404 0.0
N167 N 0.09669 0.13138 0.65193 0.0
N168 N 0.08064 0.17166 0.64644 0.0
C169 C 0.09758 0.15373 0.63563 0.0
H170 H 0.05392 0.16908 0.68483 0.0
Co171 Co 0.07379 0.2046 0.63101 0.0
C172 C 0.09689 0.20513 0.56737 0.0
O173 O 0.10087 0.23036 0.56825 0.0
N174 N 0.06625 0.2383 0.6155 0.0
C175 C 0.0661 0.28046 0.60263 0.0
C176 C 0.07734 0.26172 0.62133 0.0
C177 C 0.04809 0.24358 0.59363 0.0
N178 N 0.04757 0.26888 0.58559 0.0
O179 O 0.04008 0.1931 0.62011 0.0
H180 H 0.09325 0.26517 0.63716 0.0
H181 H 0.03636 0.22891 0.5823 0.0
O182 O 0.08641 0.19366 0.5905 0.0
C183 C 0.02177 0.19953 0.63839 0.0
O184 O 0.02678 0.21557 0.66138 0.0
N185 N 0.10654 0.21492 0.64445 0.0
C186 C 0.15183 0.2269 0.67684 0.0
C187 C 0.15314 0.21527 0.64743 0.0
C188 C 0.1302 0.2092 0.63165 0.0
C189 C 0.10493 0.22555 0.67328 0.0
C190 C 0.12727 0.23217 0.68964 0.0
H191 H 0.1318 0.19894 0.60996 0.0
H192 H 0.08601 0.22895 0.68353 0.0
H193 H 0.11007 0.15674 0.61578 0.0
H194 H 0.07289 0.12112 0.69149 0.0
H195 H 0.07144 0.3008 0.6012 0.0
H196 H 0.17167 0.21028 0.63703 0.0
H197 H 0.12519 0.24152 0.71203 0.0
C198 C 0.82939 0.06623 0.6681 0.0
C199 C 0.85438 0.07506 0.67292 0.0
N200 N 0.85818 0.09583 0.65437 0.0
N201 N 0.81779 0.08129 0.64645 0.0
C202 C 0.8358 0.09913 0.6386 0.0
H203 H 0.82027 0.04984 0.67947 0.0
Co204 Co 0.7846 0.07735 0.63095 0.0
C205 C 0.78395 0.11004 0.57359 0.0
O206 O 0.76004 0.11797 0.57901 0.0
N207 N 0.75081 0.07252 0.61553 0.0
C208 C 0.70881 0.06225 0.61166 0.0
C209 C 0.72786 0.0721 0.63088 0.0
C210 C 0.74514 0.06292 0.58716 0.0
N211 N 0.71983 0.05671 0.58416 0.0
O212 O 0.79493 0.04493 0.61384 0.0
H213 H 0.72522 0.07673 0.6551 0.0
H214 H 0.75974 0.05861 0.56978 0.0
O215 O 0.7952 0.09447 0.59245 0.0
C216 C 0.78722 0.02468 0.62809 0.0
O217 O 0.77047 0.02729 0.65093 0.0
N218 N 0.77516 0.10847 0.65046 0.0
C219 C 0.76315 0.14952 0.69011 0.0
C220 C 0.77479 0.1543 0.6613 0.0
C221 C 0.78123 0.13342 0.64206 0.0
C222 C 0.76497 0.10353 0.67902 0.0
C223 C 0.75847 0.12374 0.69907 0.0
H224 H 0.79201 0.1376 0.62129 0.0
H225 H 0.76218 0.08359 0.68639 0.0
H226 H 0.83282 0.11405 0.62122 0.0
H227 H 0.86852 0.06703 0.68897 0.0
H228 H 0.68883 0.05816 0.61789 0.0
H229 H 0.77949 0.17394 0.65408 0.0
H230 H 0.74965 0.11919 0.72125 0.0
C231 C 0.91725 0.83311 0.67135 0.0
C232 C 0.90786 0.85822 0.67326 0.0
N233 N 0.8911 0.86199 0.64958 0.0
N234 N 0.90655 0.82132 0.64649 0.0
C235 C 0.89076 0.83942 0.63372 0.0
H236 H 0.93098 0.82398 0.68703 0.0
Co237 Co 0.91312 0.78771 0.63329 0.0
C238 C 0.88531 0.78283 0.57336 0.0
O239 O 0.87895 0.75872 0.58005 0.0
N240 N 0.92048 0.75329 0.61977 0.0
C241 C 0.92159 0.71059 0.6096 0.0
C242 C 0.9105 0.72977 0.62772 0.0
C243 C 0.93771 0.74763 0.59706 0.0
N244 N 0.93888 0.72204 0.59075 0.0
O245 O 0.94641 0.79888 0.62025 0.0
H246 H 0.89547 0.72644 0.64471 0.0
H247 H 0.94852 0.7621 0.58418 0.0
O248 O 0.89897 0.79607 0.59244 0.0
C249 C 0.96475 0.79301 0.63885 0.0
O250 O 0.95963 0.7779 0.66271 0.0
N251 N 0.88093 0.77795 0.64919 0.0
C252 C 0.83709 0.76651 0.68449 0.0
C253 C 0.83461 0.77929 0.65586 0.0
C254 C 0.85685 0.7852 0.63871 0.0
C255 C 0.88374 0.76681 0.67766 0.0
C256 C 0.86213 0.76032 0.69536 0.0
H257 H 0.8545 0.79649 0.61781 0.0
H258 H 0.90306 0.76269 0.68645 0.0
H259 H 0.87931 0.83634 0.61296 0.0
H260 H 0.9126 0.87241 0.69095 0.0
H261 H 0.91713 0.69 0.60995 0.0
H262 H 0.81574 0.78523 0.6471 0.0
H263 H 0.86511 0.75028 0.71719 0.0
C264 C 0.67054 0.5672 0.8221 0.0
C265 C 0.64553 0.57562 0.81609 0.0
N266 N 0.63894 0.593 0.83813 0.0
N267 N 0.67941 0.57915 0.84787 0.0
C268 C 0.65964 0.59458 0.8572 0.0
H269 H 0.68172 0.55357 0.80836 0.0
Co270 Co 0.71226 0.57517 0.86475 0.0
C271 C 0.71183 0.6079 0.92118 0.0
O272 O 0.7354 0.61613 0.91459 0.0
N273 N 0.74574 0.57011 0.88168 0.0
C274 C 0.78762 0.56021 0.889 0.0
C275 C 0.76949 0.56954 0.86811 0.0
C276 C 0.75005 0.56089 0.91062 0.0
N277 N 0.77523 0.55507 0.91575 0.0
O278 O 0.70202 0.54224 0.88025 0.0
H279 H 0.7735 0.57389 0.84411 0.0
H280 H 0.73465 0.55686 0.92707 0.0
O281 O 0.70062 0.5915 0.90336 0.0
C282 C 0.70975 0.52306 0.86404 0.0
O283 O 0.72601 0.52742 0.84108 0.0
N284 N 0.72159 0.60705 0.84679 0.0
C285 C 0.73218 0.65016 0.80946 0.0
C286 C 0.71669 0.6527 0.83603 0.0
C287 C 0.71131 0.63087 0.85412 0.0
C288 C 0.73535 0.60401 0.82006 0.0
C289 C 0.74154 0.62533 0.80155 0.0
H290 H 0.6978 0.63325 0.87296 0.0
H291 H 0.74082 0.58471 0.81248 0.0
H292 H 0.6603 0.60693 0.8775 0.0
H293 H 0.63348 0.57004 0.79657 0.0
H294 H 0.808 0.55642 0.88451 0.0
H295 H 0.70804 0.67121 0.8423 0.0
H296 H 0.75342 0.62223 0.78114 0.0
C297 C 0.42685 0.65457 0.81367 0.0
C298 C 0.41629 0.63018 0.80959 0.0
N299 N 0.39543 0.62809 0.82833 0.0
N300 N 0.41281 0.66752 0.83513 0.0
C301 C 0.39365 0.65102 0.84332 0.0
H302 H 0.44401 0.66213 0.80232 0.0
Co303 Co 0.42004 0.69987 0.85184 0.0
C304 C 0.41668 0.67683 0.91565 0.0
O305 O 0.44179 0.67228 0.91779 0.0
N306 N 0.42769 0.73242 0.86866 0.0
C307 C 0.43123 0.77501 0.8776 0.0
C308 C 0.4203 0.7563 0.85868 0.0
C309 C 0.44338 0.73709 0.89312 0.0
N310 N 0.4459 0.76269 0.8989 0.0
O311 O 0.45414 0.68797 0.86098 0.0
H312 H 0.408 0.75994 0.83873 0.0
H313 H 0.4531 0.72204 0.90638 0.0
O314 O 0.40727 0.68778 0.89155 0.0
C315 C 0.47346 0.69579 0.84517 0.0
O316 O 0.46995 0.71395 0.82405 0.0
N317 N 0.38683 0.71126 0.8412 0.0
C318 C 0.33886 0.72881 0.81994 0.0
C319 C 0.34448 0.7287 0.85181 0.0
C320 C 0.36869 0.71976 0.86205 0.0
C321 C 0.38174 0.7114 0.81018 0.0
C322 C 0.35774 0.71984 0.79904 0.0
H323 H 0.37308 0.72043 0.88658 0.0
H324 H 0.39657 0.70513 0.794 0.0
H325 H 0.37916 0.65541 0.86076 0.0
H326 H 0.42352 0.61512 0.79426 0.0
H327 H 0.42919 0.79592 0.87542 0.0
H328 H 0.33044 0.7358 0.86856 0.0
H329 H 0.35436 0.72027 0.7742 0.0
C330 C 0.31759 0.40932 0.80523 0.0
C331 C 0.34207 0.39976 0.79906 0.0
N332 N 0.35335 0.39333 0.82626 0.0
N333 N 0.31343 0.40849 0.8361 0.0
C334 C 0.33573 0.39903 0.84838 0.0
H335 H 0.30323 0.41531 0.78827 0.0
Co336 Co 0.28168 0.4153 0.85451 0.0
C337 C 0.28166 0.38421 0.91193 0.0
O338 O 0.25766 0.37705 0.90594 0.0
N339 N 0.24881 0.42298 0.87317 0.0
C340 C 0.20749 0.42397 0.88983 0.0
C341 C 0.22504 0.41161 0.87061 0.0
C342 C 0.24485 0.44222 0.89409 0.0
N343 N 0.22012 0.44336 0.90408 0.0
O344 O 0.29502 0.44791 0.86722 0.0
H345 H 0.22052 0.39469 0.85685 0.0
H346 H 0.25991 0.45487 0.90293 0.0
O347 O 0.29349 0.39958 0.89341 0.0
C348 C 0.28946 0.46654 0.84889 0.0
O349 O 0.27358 0.46209 0.82553 0.0
N350 N 0.26986 0.3837 0.83874 0.0
C351 C 0.25839 0.34093 0.80151 0.0
C352 C 0.27549 0.33843 0.82672 0.0
C353 C 0.2813 0.36017 0.8448 0.0
C354 C 0.25394 0.38665 0.8137 0.0
C355 C 0.24733 0.36542 0.79533 0.0
H356 H 0.29627 0.35829 0.86225 0.0
H357 H 0.24666 0.4058 0.80773 0.0
H358 H 0.33853 0.39483 0.87279 0.0
H359 H 0.35064 0.39697 0.77634 0.0
H360 H 0.18723 0.41903 0.89329 0.0
H361 H 0.28523 0.32016 0.83164 0.0
H362 H 0.23391 0.36834 0.77623 0.0
C363 C 0.57885 0.33309 0.81374 0.0
C364 C 0.58984 0.35732 0.81028 0.0
N365 N 0.60143 0.36382 0.83728 0.0
N366 N 0.58349 0.32442 0.84275 0.0
C367 C 0.59716 0.3436 0.85658 0.0
H368 H 0.56873 0.32218 0.796 0.0
Co369 Co 0.57448 0.2918 0.85735 0.0
C370 C 0.60133 0.28791 0.91819 0.0
O371 O 0.60773 0.26367 0.91199 0.0
N372 N 0.5644 0.25861 0.8716 0.0
C373 C 0.55067 0.21752 0.8751 0.0
C374 C 0.56245 0.23568 0.85628 0.0
C375 C 0.55308 0.25391 0.89934 0.0
N376 N 0.54507 0.22908 0.90224 0.0
O377 O 0.54097 0.3048 0.8678 0.0
H378 H 0.56783 0.23229 0.83246 0.0
H379 H 0.54965 0.26878 0.91667 0.0
O380 O 0.5876 0.30089 0.89878 0.0
C381 C 0.52536 0.30149 0.84521 0.0
O382 O 0.53365 0.28863 0.82074 0.0
N383 N 0.60708 0.27959 0.84422 0.0
C384 C 0.65245 0.26121 0.81714 0.0
C385 C 0.65379 0.27755 0.84294 0.0
C386 C 0.63075 0.28715 0.85574 0.0
C387 C 0.60587 0.26586 0.81723 0.0
C388 C 0.62831 0.25579 0.80371 0.0
H389 H 0.63223 0.30111 0.8743 0.0
H390 H 0.58736 0.26316 0.80577 0.0
H391 H 0.60498 0.34233 0.87985 0.0
H392 H 0.58962 0.36901 0.78936 0.0
H393 H 0.54596 0.19762 0.86906 0.0
H394 H 0.67238 0.28294 0.85292 0.0
H395 H 0.62688 0.24409 0.78285 0.0
C396 C 0.65478 0.42325 0.16971 0.0
C397 C 0.62996 0.41316 0.17088 0.0
N398 N 0.62803 0.39451 0.14901 0.0
N399 N 0.66819 0.41109 0.14706 0.0
C400 C 0.65141 0.39366 0.13501 0.0
H401 H 0.66252 0.43857 0.18423 0.0
Co402 Co 0.7019 0.41792 0.13481 0.0
C403 C 0.707 0.38915 0.07475 0.0
O404 O 0.73106 0.38219 0.08114 0.0
N405 N 0.73609 0.42557 0.12257 0.0
C406 C 0.77788 0.43717 0.12171 0.0
C407 C 0.75834 0.42629 0.13938 0.0
C408 C 0.74258 0.43631 0.09505 0.0
N409 N 0.76782 0.4431 0.09377 0.0
O410 O 0.69087 0.45117 0.12048 0.0
H411 H 0.76016 0.42071 0.16345 0.0
H412 H 0.72867 0.44042 0.07677 0.0
O413 O 0.69422 0.40311 0.09397 0.0
C414 C 0.69675 0.46943 0.13915 0.0
O415 O 0.71101 0.46382 0.16363 0.0
N416 N 0.71214 0.38597 0.15184 0.0
C417 C 0.7269 0.34303 0.18707 0.0
C418 C 0.71617 0.33965 0.15748 0.0
C419 C 0.70813 0.36141 0.14054 0.0
C420 C 0.72113 0.38935 0.18131 0.0
C421 C 0.72886 0.36817 0.1993 0.0
H422 H 0.69809 0.35812 0.119 0.0
H423 H 0.72221 0.40877 0.19093 0.0
H424 H 0.656 0.38083 0.11588 0.0
H425 H 0.61466 0.41892 0.18672 0.0
H426 H 0.79762 0.44118 0.12908 0.0
H427 H 0.71359 0.32035 0.14782 0.0
H428 H 0.73676 0.37147 0.2223 0.0
C429 C 0.57474 0.66868 0.17777 0.0
C430 C 0.58382 0.64377 0.18263 0.0
N431 N 0.59722 0.6363 0.15722 0.0
N432 N 0.58245 0.67683 0.14952 0.0
C433 C 0.596 0.65668 0.13752 0.0
H434 H 0.56345 0.68026 0.19385 0.0
Co435 Co 0.57565 0.70934 0.13304 0.0
C436 C 0.60337 0.71081 0.07314 0.0
O437 O 0.60953 0.73523 0.07826 0.0
N438 N 0.56792 0.74273 0.11633 0.0
C439 C 0.56603 0.78466 0.10237 0.0
C440 C 0.57755 0.76684 0.12208 0.0
C441 C 0.55047 0.7467 0.09329 0.0
N442 N 0.54882 0.7718 0.08471 0.0
O443 O 0.5423 0.6972 0.12149 0.0
H444 H 0.59258 0.7715 0.13863 0.0
H445 H 0.53978 0.7313 0.08188 0.0
O446 O 0.58961 0.69842 0.09291 0.0
C447 C 0.52421 0.70395 0.13994 0.0
O448 O 0.5296 0.72032 0.1625 0.0
N449 N 0.608 0.72016 0.14759 0.0
C450 C 0.65244 0.73249 0.18146 0.0
C451 C 0.65429 0.71751 0.15437 0.0
C452 C 0.63174 0.7111 0.13805 0.0
C453 C 0.60579 0.73366 0.17461 0.0
C454 C 0.62776 0.7406 0.19152 0.0
H455 H 0.63348 0.69782 0.11882 0.0
H456 H 0.58669 0.73907 0.18303 0.0
H457 H 0.60559 0.65718 0.1152 0.0
H458 H 0.58081 0.63212 0.20326 0.0
H459 H 0.5701 0.8053 0.10089 0.0
H460 H 0.67287 0.71007 0.14645 0.0
H461 H 0.62534 0.75226 0.21227 0.0
C462 C 0.33354 0.57039 0.18019 0.0
C463 C 0.35792 0.58059 0.18561 0.0
N464 N 0.36119 0.60111 0.1665 0.0
N465 N 0.32184 0.5843 0.15755 0.0
C466 C 0.33906 0.60296 0.14992 0.0
H467 H 0.32515 0.55356 0.19142 0.0
Co468 Co 0.29017 0.57756 0.13906 0.0
C469 C 0.29369 0.60477 0.07722 0.0
O470 O 0.26889 0.61112 0.07687 0.0
N471 N 0.25811 0.57012 0.12051 0.0
C472 C 0.21635 0.56304 0.10939 0.0
C473 C 0.23349 0.57291 0.13109 0.0
C474 C 0.25541 0.55815 0.09286 0.0
N475 N 0.23034 0.55404 0.08528 0.0
O476 O 0.30315 0.54472 0.12637 0.0
H477 H 0.22817 0.58119 0.15324 0.0
H478 H 0.27173 0.55226 0.07859 0.0
O479 O 0.30321 0.59235 0.10032 0.0
C480 C 0.29569 0.52494 0.14167 0.0
O481 O 0.27795 0.52797 0.16334 0.0
N482 N 0.27783 0.60927 0.15408 0.0
C483 C 0.26086 0.65196 0.18799 0.0
C484 C 0.27217 0.65546 0.15877 0.0
C485 C 0.2812 0.63381 0.14242 0.0
C486 C 0.26738 0.60574 0.1828 0.0
C487 C 0.25869 0.62683 0.20019 0.0
H488 H 0.29163 0.63723 0.12122 0.0
H489 H 0.266 0.58627 0.19228 0.0
H490 H 0.33591 0.61712 0.13167 0.0
H491 H 0.37219 0.57337 0.20203 0.0
H492 H 0.19534 0.56263 0.11113 0.0
H493 H 0.27461 0.67478 0.1491 0.0
H494 H 0.25007 0.62351 0.22281 0.0
C495 C 0.42767 0.33045 0.16604 0.0
C496 C 0.41938 0.35574 0.17027 0.0
N497 N 0.39937 0.36019 0.1507 0.0
N498 N 0.41301 0.31924 0.14381 0.0
C499 C 0.39601 0.33784 0.13491 0.0
H500 H 0.44333 0.3208 0.17834 0.0
Co501 Co 0.41649 0.28563 0.12927 0.0
C502 C 0.38121 0.28328 0.07468 0.0
O503 O 0.37322 0.25995 0.08277 0.0
N504 N 0.42089 0.25145 0.11457 0.0
C505 C 0.43132 0.20944 0.11003 0.0
C506 C 0.42247 0.22851 0.12997 0.0
C507 C 0.42883 0.24571 0.08551 0.0
N508 N 0.43498 0.22042 0.08205 0.0
O509 O 0.44826 0.29541 0.11041 0.0
H510 H 0.41934 0.22588 0.15453 0.0
H511 H 0.43202 0.26028 0.06773 0.0
O512 O 0.398 0.29519 0.09129 0.0
C513 C 0.46863 0.28782 0.1246 0.0
O514 O 0.46615 0.27167 0.14809 0.0
N515 N 0.38614 0.27682 0.15053 0.0
C516 C 0.34665 0.26624 0.19281 0.0
C517 C 0.34102 0.27878 0.16469 0.0
C518 C 0.36118 0.28444 0.1441 0.0
C519 C 0.39202 0.2659 0.17846 0.0
C520 C 0.37258 0.25998 0.19971 0.0
H521 H 0.35656 0.29585 0.12385 0.0
H522 H 0.41214 0.26224 0.18451 0.0
H523 H 0.38153 0.33524 0.11695 0.0
H524 H 0.42714 0.36959 0.18678 0.0
H525 H 0.43602 0.18949 0.11598 0.0
H526 H 0.32133 0.28474 0.15902 0.0
H527 H 0.37787 0.25041 0.22125 0.0
H528 H 0.21791 0.97292 0.334 0.0
H529 H 0.1576 0.01201 0.38627 0.0
H530 H 0.19227 0.93293 0.33449 0.0
H531 H 0.13199 0.97203 0.38653 0.0
H532 H 0.08243 0.90993 0.33334 0.0
H533 H 0.10977 0.94824 0.34114 0.0
H534 H 0.17284 0.89881 0.37197 0.0
H535 H 0.14542 0.86043 0.36407 0.0
C536 C 0.19937 0.97286 0.34595 0.0
C537 C 0.18966 0.99562 0.35987 0.0
C538 C 0.18478 0.94997 0.34634 0.0
C539 C 0.16012 0.94956 0.36033 0.0
C540 C 0.15087 0.97199 0.37534 0.0
C541 C 0.16559 0.99478 0.37531 0.0
C542 C 0.10212 0.9073 0.34175 0.0
C543 C 0.11188 0.8823 0.348 0.0
C544 C 0.11765 0.92917 0.34653 0.0
C545 C 0.14333 0.9264 0.35727 0.0
C546 C 0.1531 0.90141 0.36365 0.0
C547 C 0.13741 0.87954 0.35928 0.0
H548 H 0.10613 0.11434 0.28578 0.0
H549 H 0.11405 0.10982 0.38558 0.0
H550 H 0.06595 0.13896 0.29187 0.0
H551 H 0.07439 0.1354 0.39164 0.0
H552 H 0.98628 0.15638 0.38665 0.0
H553 H 0.02728 0.13228 0.38377 0.0
H554 H 0.05255 0.18206 0.30874 0.0
H555 H 0.01156 0.20572 0.31119 0.0
C556 C 0.0993 0.11851 0.30901 0.0
C557 C 0.11341 0.11015 0.33514 0.0
C558 C 0.07643 0.13293 0.31252 0.0
C559 C 0.06712 0.13935 0.34225 0.0
C560 C 0.081 0.13069 0.36843 0.0
C561 C 0.10389 0.11626 0.36491 0.0
C562 C 0.00074 0.16234 0.36982 0.0
C563 C 0.99561 0.18278 0.34896 0.0
C564 C 0.02423 0.14857 0.36819 0.0
C565 C 0.043 0.15504 0.34573 0.0
C566 C 0.03824 0.17621 0.32582 0.0
C567 C 0.01481 0.18989 0.32739 0.0
H568 H 0.82939 0.98044 0.39556 0.0
H569 H 0.76879 0.01902 0.343 0.0
H570 H 0.85508 0.02039 0.39487 0.0
H571 H 0.79449 0.0589 0.34242 0.0
H572 H 0.84262 0.13147 0.36405 0.0
H573 H 0.81505 0.09404 0.37616 0.0
H574 H 0.87708 0.04213 0.34854 0.0
H575 H 0.90465 0.07951 0.33672 0.0
C576 C 0.82128 -0.00239 0.38452 0.0
C577 C 0.79722 -0.00343 0.36902 0.0
C578 C 0.83607 0.02038 0.38395 0.0
C579 C 0.82686 0.04256 0.36828 0.0
C580 C 0.80199 0.04208 0.35474 0.0
C581 C 0.78735 0.01924 0.35498 0.0
C582 C 0.8504 0.11205 0.3609 0.0
C583 C 0.87571 0.10833 0.3493 0.0
C584 C 0.83463 0.09069 0.36771 0.0
C585 C 0.84402 0.06526 0.36343 0.0
C586 C 0.86949 0.06155 0.35242 0.0
C587 C 0.88513 0.08289 0.34526 0.0
H588 H 0.86871 0.86947 0.38685 0.0
H589 H 0.89903 0.90338 0.30221 0.0
H590 H 0.90845 0.8443 0.39276 0.0
H591 H 0.93832 0.8773 0.30788 0.0
H592 H 0.98409 0.80014 0.3073 0.0
H593 H 0.94511 0.8271 0.30565 0.0
H594 H 0.95892 0.85153 0.40013 0.0
H595 H -0.00157 0.82463 0.40184 0.0
C596 C 0.88379 0.87196 0.36965 0.0
C597 C 0.88029 0.88848 0.34377 0.0
C598 C 0.90659 0.85737 0.37311 0.0
C599 C 0.92622 0.85871 0.35062 0.0
C600 C 0.92321 0.87568 0.32531 0.0
C601 C 0.9006 0.89054 0.32203 0.0
C602 C 0.97878 0.81104 0.32787 0.0
C603 C 0.99439 0.81035 0.35469 0.0
C604 C 0.95657 0.82663 0.32679 0.0
C605 C 0.94929 0.84157 0.35261 0.0
C606 C 0.96424 0.84018 0.3799 0.0
C607 C 0.98677 0.82482 0.38086 0.0
H608 H 0.14566 0.12901 0.62925 0.0
H609 H 0.08194 0.08153 0.66154 0.0
H610 H 0.17144 0.08985 0.61946 0.0
H611 H 0.10785 0.04234 0.6521 0.0
H612 H 0.15289 0.97657 0.60687 0.0
H613 H 0.12806 0.01726 0.60708 0.0
H614 H 0.19142 0.0556 0.65442 0.0
H615 H 0.2162 0.01504 0.65428 0.0
C616 C 0.13711 0.11019 0.63403 0.0
C617 C 0.11182 0.10829 0.64625 0.0
C618 C 0.1519 0.08782 0.62857 0.0
C619 C 0.14158 0.06311 0.6349 0.0
C620 C 0.11616 0.06116 0.64667 0.0
C621 C 0.10147 0.08356 0.65245 0.0
C622 C 0.16173 0.99384 0.61668 0.0
C623 C 0.18641 0.99264 0.63074 0.0
C624 C 0.14744 0.01702 0.61704 0.0
C625 C 0.15774 0.03945 0.63105 0.0
C626 C 0.18305 0.03863 0.64336 0.0
C627 C 0.1972 0.0154 0.64336 0.0
H628 H 0.908 0.0794 0.6593 0.0
H629 H 0.86037 0.14733 0.64241 0.0
H630 H 0.94722 0.10579 0.65262 0.0
H631 H 0.89946 0.17362 0.63541 0.0
H632 H 0.9769 0.21331 0.66772 0.0
H633 H 0.93653 0.18844 0.67026 0.0
H634 H 0.96917 0.13084 0.60844 0.0
H635 H 0.00959 0.15568 0.60579 0.0
C636 C 0.90597 0.09997 0.65431 0.0
C637 C 0.88124 0.11135 0.65134 0.0
C638 C 0.92832 0.11497 0.65014 0.0
C639 C 0.92627 0.14166 0.64333 0.0
C640 C 0.90154 0.15309 0.6407 0.0
C641 C 0.87922 0.13804 0.64452 0.0
C642 C 0.97533 0.19552 0.65435 0.0
C643 C -0.00361 0.18637 0.63667 0.0
C644 C 0.95223 0.18135 0.65575 0.0
C645 C 0.94991 0.15766 0.63976 0.0
C646 C 0.97065 0.14892 0.62127 0.0
C647 C 0.99365 0.16324 0.61956 0.0
H648 H 0.90514 0.91199 0.65944 0.0
H649 H 0.84303 0.86381 0.62419 0.0
H650 H 0.87912 0.95092 0.64855 0.0
H651 H 0.81717 0.90266 0.613 0.0
H652 H 0.77052 0.97682 0.64614 0.0
H653 H 0.79584 0.93658 0.64741 0.0
H654 H 0.85981 0.97569 0.60232 0.0
H655 H 0.83445 0.01602 0.60092 0.0
C656 C 0.88597 0.90977 0.64934 0.0
C657 C 0.87608 0.88493 0.64273 0.0
C658 C 0.87122 0.932 0.64276 0.0
C659 C 0.84621 0.92974 0.6298 0.0
C660 C 0.83639 0.90491 0.62301 0.0
C661 C 0.85124 0.88273 0.62926 0.0
C662 C 0.78978 0.97669 0.63593 0.0
C663 C 0.80057 -0.00045 0.62358 0.0
C664 C 0.80423 0.95366 0.63659 0.0
C665 C 0.82984 0.95316 0.62524 0.0
C666 C 0.84019 0.97568 0.61151 0.0
C667 C 0.82559 -0.00134 0.61047 0.0
H668 H 0.97698 0.83684 0.6061 0.0
H669 H 0.00973 0.77866 0.66742 0.0
H670 H 0.01751 0.86161 0.609 0.0
H671 H 0.05012 0.80338 0.67025 0.0
H672 H 0.12621 0.84471 0.64584 0.0
H673 H 0.0873 0.81867 0.6366 0.0
H674 H 0.03921 0.88625 0.65366 0.0
H675 H 0.07828 0.91243 0.6625 0.0
C676 C 0.99299 0.82912 0.61971 0.0
C677 C 0.99023 0.8059 0.63666 0.0
C678 C 0.01604 0.84339 0.62158 0.0
C679 C 0.03677 0.83448 0.64007 0.0
C680 C 0.03444 0.81062 0.65574 0.0
C681 C 0.01133 0.79653 0.65417 0.0
C682 C 0.10733 0.85403 0.64739 0.0
C683 C 0.10519 0.88058 0.65488 0.0
C684 C 0.08511 0.83911 0.64226 0.0
C685 C 0.06033 0.85051 0.64428 0.0
C686 C 0.05815 0.87709 0.65162 0.0
C687 C 0.08041 0.89197 0.65706 0.0
H688 H 0.66673 0.51032 0.89828 0.0
H689 H 0.72353 0.47812 0.83498 0.0
H690 H 0.64109 0.47051 0.89413 0.0
H691 H 0.69816 0.43829 0.83127 0.0
H692 H 0.62848 0.3923 0.79548 0.0
H693 H 0.6563 0.42945 0.80601 0.0
H694 H 0.63931 0.423 0.90396 0.0
H695 H 0.61062 0.38624 0.89326 0.0
C696 C 0.67406 0.49452 0.88409 0.0
C697 C 0.69695 0.49747 0.86661 0.0
C698 C 0.65938 0.47172 0.88173 0.0
C699 C 0.6674 0.45151 0.86191 0.0
C700 C 0.6912 0.45381 0.84615 0.0
C701 C 0.70581 0.47655 0.84845 0.0
C702 C 0.63038 0.39894 0.8192 0.0
C703 C 0.61729 0.38629 0.8435 0.0
C704 C 0.64666 0.42 0.82532 0.0
C705 C 0.65023 0.42893 0.85587 0.0
C706 C 0.63692 0.41655 0.88018 0.0
C707 C 0.62065 0.39539 0.87406 0.0
H708 H 0.48303 0.64879 0.87234 0.0
H709 H 0.52055 0.71161 0.8229 0.0
H710 H 0.52362 0.62401 0.8716 0.0
H711 H 0.56123 0.68678 0.82243 0.0
H712 H 0.63456 0.64271 0.85763 0.0
H713 H 0.59464 0.66846 0.86163 0.0
H714 H 0.55032 0.60329 0.82701 0.0
H715 H 0.59036 0.57747 0.82309 0.0
C716 C 0.50003 0.65745 0.8617 0.0
C717 C 0.49864 0.68211 0.84759 0.0
C718 C 0.52316 0.64317 0.86107 0.0
C719 C 0.5454 0.65345 0.84676 0.0
C720 C 0.54432 0.67849 0.83368 0.0
C721 C 0.52107 0.69264 0.8339 0.0
C722 C 0.61625 0.63386 0.8511 0.0
C723 C 0.61544 0.60809 0.84016 0.0
C724 C 0.5935 0.64863 0.85316 0.0
C725 C 0.56949 0.63778 0.84473 0.0
C726 C 0.56862 0.61199 0.83392 0.0
C727 C 0.59146 0.59732 0.83142 0.0
H728 H 0.27566 0.51209 0.82108 0.0
H729 H 0.33357 0.4779 0.88164 0.0
H730 H 0.30083 0.55226 0.81895 0.0
H731 H 0.35878 0.51818 0.8794 0.0
H732 H 0.41046 0.5777 0.82541 0.0
H733 H 0.38342 0.53942 0.83469 0.0
H734 H 0.31731 0.58925 0.85266 0.0
H735 H 0.34433 0.62756 0.84306 0.0
C736 C 0.29358 0.51331 0.8343 0.0
C737 C 0.30276 0.49184 0.85134 0.0
C738 C 0.30791 0.53632 0.83317 0.0
C739 C 0.33182 0.53818 0.84879 0.0
C740 C 0.34051 0.51709 0.86688 0.0
C741 C 0.32601 0.49415 0.86833 0.0
C742 C 0.39013 0.58044 0.83114 0.0
C743 C 0.37944 0.60556 0.83335 0.0
C744 C 0.37476 0.55859 0.83686 0.0
C745 C 0.34835 0.56144 0.84455 0.0
C746 C 0.33762 0.58655 0.84672 0.0
C747 C 0.35308 0.60841 0.84135 0.0
H748 H 0.37104 0.35342 0.79199 0.0
H749 H 0.38944 0.40182 0.87065 0.0
H750 H 0.41155 0.32955 0.79902 0.0
H751 H 0.43104 0.37905 0.87693 0.0
H752 H 0.49588 0.31936 0.89404 0.0
H753 H 0.45316 0.34053 0.89114 0.0
H754 H 0.45553 0.33488 0.79091 0.0
H755 H 0.49694 0.31267 0.79408 0.0
C756 C 0.3841 0.35916 0.8105 0.0
C757 C 0.37745 0.37961 0.8305 0.0
C758 C 0.40738 0.34559 0.81455 0.0
C759 C 0.42493 0.35258 0.83827 0.0
C760 C 0.41798 0.37289 0.85862 0.0
C761 C 0.39432 0.3861 0.85493 0.0
C762 C 0.48702 0.32253 0.8715 0.0
C763 C 0.49957 0.31414 0.84433 0.0
C764 C 0.46265 0.33481 0.86976 0.0
C765 C 0.45066 0.33929 0.84077 0.0
C766 C 0.46362 0.33115 0.81371 0.0
C767 C 0.48756 0.31851 0.8155 0.0
H768 H 0.61806 0.60532 0.20167 0.0
H769 H 0.60865 0.61296 0.10234 0.0
H770 H 0.64319 0.56566 0.19402 0.0
H771 H 0.63463 0.57362 0.09464 0.0
H772 H 0.65642 0.48473 0.10144 0.0
H773 H 0.63245 0.5259 0.10395 0.0
H774 H 0.68611 0.5539 0.17358 0.0
H775 H 0.70973 0.51287 0.17144 0.0
C776 C 0.62123 0.59849 0.17821 0.0
C777 C 0.61138 0.61236 0.15265 0.0
C778 C 0.63594 0.57594 0.17379 0.0
C779 C 0.64114 0.5667 0.1437 0.0
C780 C 0.63092 0.58026 0.1181 0.0
C781 C 0.61624 0.60291 0.12253 0.0
C782 C 0.66332 0.49987 0.11686 0.0
C783 C 0.68475 0.49547 0.13652 0.0
C784 C 0.64961 0.52343 0.1183 0.0
C785 C 0.65714 0.54291 0.13939 0.0
C786 C 0.67947 0.539 0.15766 0.0
C787 C 0.69309 0.51554 0.15626 0.0
H788 H 0.47967 0.71939 0.16862 0.0
H789 H 0.51147 0.65885 0.1101 0.0
H790 H 0.43933 0.69481 0.17366 0.0
H791 H 0.47102 0.63425 0.11524 0.0
H792 H 0.41121 0.58531 0.17164 0.0
H793 H 0.45009 0.61146 0.16183 0.0
H794 H 0.4016 0.67811 0.14129 0.0
H795 H 0.36279 0.65203 0.15141 0.0
C796 C 0.47788 0.70102 0.15648 0.0
C797 C 0.49872 0.69095 0.13911 0.0
C798 C 0.45479 0.68701 0.15931 0.0
C799 C 0.45224 0.66256 0.14509 0.0
C800 C 0.47269 0.65293 0.12673 0.0
C801 C 0.4957 0.6671 0.12358 0.0
C802 C 0.40894 0.6056 0.16534 0.0
C803 C 0.38407 0.6167 0.16234 0.0
C804 C 0.4311 0.62044 0.15933 0.0
C805 C 0.42875 0.64671 0.15058 0.0
C806 C 0.4039 0.6579 0.14802 0.0
C807 C 0.38176 0.64299 0.15368 0.0
H808 H 0.28119 0.47804 0.16549 0.0
H809 H 0.34119 0.51519 0.111 0.0
H810 H 0.30627 0.43767 0.16557 0.0
H811 H 0.36622 0.47469 0.11105 0.0
H812 H 0.41587 0.40971 0.15857 0.0
H813 H 0.38982 0.4494 0.15308 0.0
H814 H 0.32261 0.40308 0.12941 0.0
H815 H 0.34847 0.36351 0.13544 0.0
C816 C 0.29957 0.47748 0.1532 0.0
C817 C 0.30928 0.49979 0.13836 0.0
C818 C 0.31387 0.45436 0.15316 0.0
C819 C 0.33825 0.45316 0.13851 0.0
C820 C 0.34761 0.47522 0.12283 0.0
C821 C 0.33318 0.4983 0.1226 0.0
C822 C 0.39552 0.40808 0.15234 0.0
C823 C 0.38419 0.38357 0.14744 0.0
C824 C 0.3807 0.43074 0.14885 0.0
C825 C 0.35425 0.42926 0.14071 0.0
C826 C 0.34294 0.40476 0.13581 0.0
C827 C 0.35779 0.38215 0.13903 0.0
H828 H 0.47723 0.33402 0.09487 0.0
H829 H 0.51638 0.27184 0.14407 0.0
H830 H 0.51711 0.35982 0.09639 0.0
H831 H 0.55609 0.29764 0.14567 0.0
H832 H 0.62845 0.34535 0.12664 0.0
H833 H 0.59082 0.31857 0.11374 0.0
H834 H 0.53961 0.38101 0.142 0.0
H835 H 0.57732 0.40803 0.15429 0.0
C836 C 0.49451 0.32561 0.1053 0.0
C837 C 0.49369 0.30102 0.1196 0.0
C838 C 0.51722 0.34047 0.10642 0.0
C839 C 0.53953 0.33083 0.1215 0.0
C840 C 0.5392 0.30551 0.13381 0.0
C841 C 0.51645 0.29078 0.13298 0.0
C842 C 0.60917 0.35347 0.12973 0.0
C843 C 0.60579 0.37877 0.14155 0.0
C844 C 0.58766 0.33809 0.12249 0.0
C845 C 0.56235 0.34776 0.12674 0.0
C846 C 0.55894 0.37319 0.13811 0.0
C847 C 0.58047 0.38852 0.14556 0.0
H848 H 0.22115 0.13938 0.46105 0.0
H849 H 0.15601 0.09208 0.43202 0.0
H850 H 0.19257 0.1638 0.49551 0.0
H851 H 0.12739 0.11678 0.46645 0.0
H852 H 0.09379 0.15239 0.5586 0.0
H853 H 0.12011 0.12579 0.52359 0.0
H854 H 0.15578 0.1953 0.4868 0.0
H855 H 0.12975 0.22191 0.52182 0.0
C856 C 0.20081 0.134 0.46222 0.0
C857 C 0.19084 0.11389 0.44362 0.0
C858 C 0.1844 0.14816 0.48176 0.0
C859 C 0.15771 0.14241 0.4833 0.0
C860 C 0.14789 0.12161 0.46571 0.0
C861 C 0.16429 0.10752 0.44598 0.0
C862 C 0.10703 0.16203 0.5428 0.0
C863 C 0.10985 0.18927 0.54322 0.0
C864 C 0.12205 0.14678 0.52273 0.0
C865 C 0.14024 0.15848 0.50285 0.0
C866 C 0.14225 0.18575 0.50234 0.0
C867 C 0.12715 0.20099 0.52221 0.0
H868 H 0.90869 0.1626 0.45064 0.0
H869 H 0.84977 0.22236 0.44486 0.0
H870 H 0.88236 0.13909 0.48853 0.0
H871 H 0.8224 0.19816 0.4801 0.0
H872 H 0.78461 0.16186 0.56272 0.0
H873 H 0.81344 0.18585 0.52869 0.0
H874 H 0.84745 0.11319 0.49735 0.0
H875 H 0.82 0.08964 0.53402 0.0
C876 C 0.89007 0.17065 0.45757 0.0
C877 C 0.88146 0.19448 0.44532 0.0
C878 C 0.87471 0.15703 0.47896 0.0
C879 C 0.84997 0.16651 0.48773 0.0
C880 C 0.8415 0.19037 0.47502 0.0
C881 C 0.8572 0.20433 0.45455 0.0
C882 C 0.79818 0.1511 0.54834 0.0
C883 C 0.79993 0.12395 0.55061 0.0
C884 C 0.81472 0.16483 0.52857 0.0
C885 C 0.83289 0.15167 0.50966 0.0
C886 C 0.83424 0.12427 0.51179 0.0
C887 C 0.81826 0.11063 0.53247 0.0
H888 H 0.90154 0.82482 0.53961 0.0
H889 H 0.83684 0.77246 0.55201 0.0
H890 H 0.87668 0.84912 0.50083 0.0
H891 H 0.81122 0.7976 0.5155 0.0
H892 H 0.77667 0.83297 0.42984 0.0
H893 H 0.80354 0.80788 0.46524 0.0
H894 H 0.84354 0.87836 0.49272 0.0
H895 H 0.81779 0.90296 0.45508 0.0
C896 C 0.88197 0.81856 0.53396 0.0
C897 C 0.87124 0.79658 0.54839 0.0
C898 C 0.86753 0.83266 0.51205 0.0
C899 C 0.84174 0.82551 0.50481 0.0
C900 C 0.83115 0.80347 0.51956 0.0
C901 C 0.84583 0.789 0.5407 0.0
C902 C 0.79109 0.84308 0.44367 0.0
C903 C 0.795 0.86991 0.44005 0.0
C904 C 0.80652 0.82871 0.46416 0.0
C905 C 0.82577 0.84095 0.4823 0.0
C906 C 0.82935 0.86801 0.47886 0.0
C907 C 0.81438 0.88225 0.4576 0.0
H908 H 0.08082 0.82838 0.45663 0.0
H909 H 0.14179 0.77096 0.44842 0.0
H910 H 0.10667 0.85197 0.49499 0.0
H911 H 0.16862 0.79532 0.48418 0.0
H912 H 0.16743 0.90209 0.5426 0.0
H913 H 0.14084 0.87879 0.50478 0.0
H914 H 0.17703 0.80634 0.53345 0.0
H915 H 0.20492 0.83017 0.56877 0.0
C916 C 0.09982 0.8209 0.46307 0.0
C917 C 0.10913 0.79765 0.45007 0.0
C918 C 0.11488 0.83457 0.48475 0.0
C919 C 0.13998 0.82573 0.49309 0.0
C920 C 0.14922 0.80254 0.47946 0.0
C921 C 0.13384 0.78852 0.45869 0.0
C922 C 0.16983 0.88122 0.54024 0.0
C923 C 0.18848 0.86794 0.55807 0.0
C924 C 0.15435 0.86771 0.51887 0.0
C925 C 0.15658 0.84045 0.51566 0.0
C926 C 0.17508 0.82731 0.53419 0.0
C927 C 0.19109 0.84094 0.55469 0.0
H928 H 0.67347 0.58892 0.95874 0.0
H929 H 0.71428 0.65925 0.93418 0.0
H930 H 0.64687 0.61341 0.99564 0.0
H931 H 0.68662 0.68416 0.96863 0.0
H932 H 0.65238 0.72019 0.05351 0.0
H933 H 0.67863 0.69436 0.01862 0.0
H934 H 0.61345 0.64255 0.00347 0.0
H935 H 0.58787 0.66762 0.04086 0.0
C936 C 0.67662 0.60967 0.96126 0.0
C937 C 0.69619 0.62216 0.9442 0.0
C938 C 0.66118 0.62383 0.98208 0.0
C939 C 0.66452 0.65093 0.9855 0.0
C940 C 0.68386 0.6633 0.96767 0.0
C941 C 0.69974 0.64903 0.94771 0.0
C942 C 0.64357 0.70342 0.04247 0.0
C943 C 0.61799 0.69608 0.04952 0.0
C944 C 0.65862 0.68856 0.02223 0.0
C945 C 0.64825 0.66635 0.00764 0.0
C946 C 0.62239 0.65922 0.01449 0.0
C947 C 0.60754 0.67373 0.03559 0.0
H948 H 0.3639 0.6721 0.91199 0.0
H949 H 0.42878 0.66005 0.97436 0.0
H950 H 0.3345 0.65416 0.95036 0.0
H951 H 0.39906 0.64333 0.0137 0.0
H952 H 0.34363 0.58959 0.06518 0.0
H953 H 0.37325 0.60723 0.02645 0.0
H954 H 0.31387 0.662 -0.00246 0.0
H955 H 0.28395 0.64343 0.03518 0.0
C956 C 0.37188 0.66592 0.9341 0.0
C957 C 0.39875 0.6674 0.94004 0.0
C958 C 0.35492 0.65576 0.95629 0.0
C959 C 0.36428 0.64723 0.98529 0.0
C960 C 0.39115 0.6492 0.99144 0.0
C961 C 0.4082 0.659 0.96899 0.0
C962 C 0.33688 0.60529 0.05037 0.0
C963 C 0.3114 0.61501 0.0531 0.0
C964 C 0.35396 0.6156 0.02833 0.0
C965 C 0.34608 0.63616 0.00879 0.0
C966 C 0.32055 0.64588 0.0117 0.0
C967 C 0.30336 0.6353 0.03341 0.0
H968 H 0.27435 0.33454 0.93074 0.0
H969 H 0.3227 0.40181 0.94656 0.0
H970 H 0.29948 0.30989 0.9682 0.0
H971 H 0.34694 0.3778 0.98624 0.0
H972 H 0.40047 0.32133 0.03698 0.0
H973 H 0.37712 0.34574 -0.003 0.0
H974 H 0.3068 0.30347 0.01959 0.0
H975 H 0.33075 0.27801 0.05751 0.0
C976 C 0.29009 0.34423 0.94285 0.0
C977 C 0.29643 0.37015 0.93605 0.0
C978 C 0.30449 0.33012 0.96457 0.0
C979 C 0.3252 0.34179 0.98081 0.0
C980 C 0.33145 0.36791 0.974 0.0
C981 C 0.31742 0.38183 0.95151 0.0
C982 C 0.38008 0.31717 0.03295 0.0
C983 C 0.36747 0.29759 0.04993 0.0
C984 C 0.36656 0.33133 0.01029 0.0
C985 C 0.33993 0.32668 0.00475 0.0
C986 C 0.32739 0.30724 0.0223 0.0
C987 C 0.34108 0.29264 0.04426 0.0
H988 H 0.58469 0.32883 0.95372 0.0
H989 H 0.65111 0.27957 0.93598 0.0
H990 H 0.61001 0.35337 0.99174 0.0
H991 H 0.67712 0.3051 0.97146 0.0
H992 H 0.71352 0.33911 0.05667 0.0
H993 H 0.6869 0.31431 0.02101 0.0
H994 H 0.64163 0.38355 0.0007 0.0
H995 H 0.66719 0.40763 0.03885 0.0
C996 C 0.60474 0.32333 0.95803 0.0
C997 C 0.61581 0.30204 0.94246 0.0
C998 C 0.61946 0.33759 0.97948 0.0
C999 C 0.64585 0.33139 0.98504 0.0
C1000 C 0.65679 0.31018 0.96888 0.0
C1001 C 0.64187 0.29549 0.9483 0.0
C1002 C 0.69804 0.34905 0.04429 0.0
C1003 C 0.69258 0.37533 0.05018 0.0
C1004 C 0.68272 0.33484 0.02362 0.0
C1005 C 0.66198 0.34675 0.00744 0.0
C1006 C 0.65696 0.37337 0.01299 0.0
C1007 C 0.67184 0.38737 0.03451 0.0
H1008 H 0.2921 0.16311 0.32062 0.0
H1009 H 0.21723 0.19086 0.28921 0.0
H1010 H 0.31337 0.1992 0.29405 0.0
H1011 H 0.23859 0.22709 0.26195 0.0
H1012 H 0.3466 0.27042 0.25606 0.0
H1013 H 0.31678 0.24894 0.2919 0.0
H1014 H 0.26959 0.22388 0.2145 0.0
H1015 H 0.29956 0.24492 0.17859 0.0
C1016 C 0.28026 0.17732 0.30841 0.0
C1017 C 0.25323 0.17439 0.30663 0.0
C1018 C 0.29232 0.19804 0.29348 0.0
C1019 C 0.27754 0.21593 0.27613 0.0
C1020 C 0.25031 0.21354 0.27531 0.0
C1021 C 0.23817 0.19297 0.29079 0.0
C1022 C 0.3296 0.2607 0.24676 0.0
C1023 C 0.32572 0.25873 0.21453 0.0
C1024 C 0.3125 0.24861 0.26726 0.0
C1025 C 0.29116 0.23455 0.25584 0.0
C1026 C 0.28583 0.23478 0.22386 0.0
C1027 C 0.30303 0.24676 0.20331 0.0
H1028 H 0.71506 0.32896 0.24639 0.0
H1029 H 0.76213 0.30741 0.16757 0.0
H1030 H 0.73683 0.29585 0.2779 0.0
H1031 H 0.78496 0.27541 0.1991 0.0
H1032 H 0.82124 0.21505 0.25704 0.0
H1033 H 0.78702 0.23672 0.22717 0.0
H1034 H 0.7776 0.29279 0.30138 0.0
H1035 H 0.81062 0.27008 0.33158 0.0
C1036 C 0.72994 0.31689 0.23583 0.0
C1037 C 0.73715 0.3207 0.20476 0.0
C1038 C 0.74253 0.29807 0.25384 0.0
C1039 C 0.76296 0.28315 0.24125 0.0
C1040 C 0.76911 0.28616 0.20958 0.0
C1041 C 0.75616 0.30462 0.19147 0.0
C1042 C 0.81131 0.23168 0.26705 0.0
C1043 C 0.8185 0.24112 0.29636 0.0
C1044 C 0.79188 0.24421 0.24995 0.0
C1045 C 0.77977 0.2668 0.26157 0.0
C1046 C 0.78614 0.27529 0.29174 0.0
C1047 C 0.80518 0.26242 0.30905 0.0
H1048 H 0.75811 0.84267 0.24075 0.0
H1049 H 0.7531 0.79496 0.32329 0.0
H1050 H 0.7382 0.80832 0.21064 0.0
H1051 H 0.73513 0.7596 0.29256 0.0
H1052 H 0.6584 0.73405 0.24438 0.0
H1053 H 0.69291 0.75509 0.27307 0.0
H1054 H 0.73549 0.76709 0.18762 0.0
H1055 H 0.69976 0.74765 0.15859 0.0
C1056 C 0.75322 0.82462 0.25236 0.0
C1057 C 0.75629 0.82193 0.28462 0.0
C1058 C 0.74227 0.80462 0.23492 0.0
C1059 C 0.73454 0.78129 0.24928 0.0
C1060 C 0.74023 0.77758 0.28093 0.0
C1061 C 0.75079 0.79779 0.29851 0.0
C1062 C 0.67518 0.74108 0.23172 0.0
C1063 C 0.67595 0.74003 0.19915 0.0
C1064 C 0.6953 0.75273 0.24825 0.0
C1065 C 0.71687 0.76325 0.23262 0.0
C1066 C 0.71886 0.75975 0.2003 0.0
C1067 C 0.69849 0.74839 0.18368 0.0
H1068 H 0.17964 0.72294 0.33469 0.0
H1069 H 0.16411 0.77682 0.26005 0.0
H1070 H 0.21263 0.70148 0.30332 0.0
H1071 H 0.19829 0.7565 0.22894 0.0
H1072 H 0.22388 0.68608 0.16927 0.0
H1073 H 0.201 0.71767 0.20128 0.0
H1074 H 0.25263 0.70001 0.27807 0.0
H1075 H 0.27436 0.66721 0.24619 0.0
C1076 C 0.184 0.73065 0.31185 0.0
C1077 C 0.16934 0.7512 0.29948 0.0
C1078 C 0.20303 0.71852 0.29387 0.0
C1079 C 0.20801 0.72706 0.26335 0.0
C1080 C 0.19454 0.74899 0.252 0.0
C1081 C 0.17513 0.76075 0.26979 0.0
C1082 C 0.23054 0.68942 0.19282 0.0
C1083 C 0.25053 0.6742 0.20555 0.0
C1084 C 0.2176 0.70764 0.21119 0.0
C1085 C 0.22475 0.71126 0.24248 0.0
C1086 C 0.24617 0.69728 0.25435 0.0
C1087 C 0.25873 0.67867 0.23614 0.0
H1088 H 0.31754 0.77522 0.83638 0.0
H1089 H 0.30601 0.70915 0.77602 0.0
H1090 H 0.28322 0.79873 0.8094 0.0
H1091 H 0.271 0.73241 0.74931 0.0
H1092 H 0.25195 0.79982 0.68018 0.0
H1093 H 0.27299 0.76792 0.71354 0.0
H1094 H 0.23888 0.80468 0.7942 0.0
H1095 H 0.21832 0.83709 0.76057 0.0
C1096 C 0.30699 0.7654 0.81801 0.0
C1097 C 0.31459 0.74055 0.80796 0.0
C1098 C 0.28723 0.77884 0.80255 0.0
C1099 C 0.27457 0.76757 0.7769 0.0
C1100 C 0.28077 0.74183 0.76856 0.0
C1101 C 0.30071 0.72849 0.78385 0.0
C1102 C 0.24846 0.80069 0.70497 0.0
C1103 C 0.23387 0.82109 0.71788 0.0
C1104 C 0.2604 0.78232 0.72414 0.0
C1105 C 0.2578 0.78387 0.75661 0.0
C1106 C 0.24166 0.80325 0.76933 0.0
C1107 C 0.2299 0.82178 0.75013 0.0
H1108 H 0.25188 0.2899 0.81875 0.0
H1109 H 0.2515 0.34064 0.73859 0.0
H1110 H 0.23582 0.2544 0.78675 0.0
H1111 H 0.23323 0.30618 0.70745 0.0
H1112 H 0.19722 0.2466 0.65306 0.0
H1113 H 0.23256 0.26659 0.68197 0.0
H1114 H 0.19451 0.24591 0.76811 0.0
H1115 H 0.16074 0.22393 0.73932 0.0
C1116 C 0.24869 0.29343 0.79424 0.0
C1117 C 0.25218 0.31835 0.78144 0.0
C1118 C 0.23921 0.27312 0.77593 0.0
C1119 C 0.23254 0.27749 0.74464 0.0
C1120 C 0.23814 0.30186 0.73136 0.0
C1121 C 0.24808 0.32194 0.74947 0.0
C1122 C 0.19693 0.24547 0.67817 0.0
C1123 C 0.1757 0.23446 0.69392 0.0
C1124 C 0.21706 0.25723 0.69478 0.0
C1125 C 0.21604 0.25869 0.7274 0.0
C1126 C 0.19611 0.24534 0.74306 0.0
C1127 C 0.17634 0.23313 0.72649 0.0
H1128 H 0.67082 0.21317 0.82862 0.0
H1129 H 0.6857 0.2827 0.77548 0.0
H1130 H 0.70488 0.19024 0.80023 0.0
H1131 H 0.72033 0.25997 0.747 0.0
H1132 H 0.73727 0.19368 0.67356 0.0
H1133 H 0.71709 0.2253 0.70812 0.0
H1134 H 0.75083 0.18589 0.78732 0.0
H1135 H 0.77076 0.15402 0.75261 0.0
C1136 C 0.68205 0.22365 0.8114 0.0
C1137 C 0.67594 0.24947 0.804 0.0
C1138 C 0.70162 0.21067 0.79527 0.0
C1139 C 0.71527 0.22332 0.77133 0.0
C1140 C 0.71001 0.24972 0.76518 0.0
C1141 C 0.6904 0.26273 0.78146 0.0
C1142 C 0.74094 0.19222 0.69828 0.0
C1143 C 0.75512 0.17118 0.71051 0.0
C1144 C 0.72949 0.21039 0.7181 0.0
C1145 C 0.73214 0.20787 0.75046 0.0
C1146 C 0.74809 0.18801 0.76249 0.0
C1147 C 0.75942 0.16978 0.74268 0.0
H1148 H 0.73692 0.65244 0.74618 0.0
H1149 H 0.74155 0.70019 0.82867 0.0
H1150 H 0.75532 0.68736 0.71583 0.0
H1151 H 0.75761 0.73621 0.79764 0.0
H1152 H 0.83113 0.7669 0.74758 0.0
H1153 H 0.79831 0.74423 0.77711 0.0
H1154 H 0.75601 0.72792 0.69237 0.0
H1155 H 0.79035 0.74858 0.66251 0.0
C1156 C 0.74147 0.67056 0.75779 0.0
C1157 C 0.73864 0.67313 0.79008 0.0
C1158 C 0.75149 0.69093 0.74017 0.0
C1159 C 0.75843 0.71461 0.75432 0.0
C1160 C 0.75316 0.71803 0.7861 0.0
C1161 C 0.74364 0.69742 0.80387 0.0
C1162 C 0.81481 0.75851 0.73522 0.0
C1163 C 0.81391 0.75863 0.70262 0.0
C1164 C 0.79559 0.74591 0.75226 0.0
C1165 C 0.77471 0.73361 0.73711 0.0
C1166 C 0.77225 0.73645 0.70473 0.0
C1167 C 0.7918 0.74861 0.6876 0.0
H1168 H 0.25764 0.05663 0.47096 0.0
H1169 H 0.29993 0.00353 0.41205 0.0
H1170 H 0.2667 0.02888 0.5159 0.0
H1171 H 0.3087 0.97535 0.45699 0.0
H1172 H 0.2627 0.92198 0.53242 0.0
H1173 H 0.27226 0.94999 0.48791 0.0
H1174 H 0.30417 0.00788 0.54976 0.0
H1175 H 0.29499 0.97942 0.59426 0.0
C1176 C 0.26933 0.03925 0.46789 0.0
C1177 C 0.27799 0.03203 0.43826 0.0
C1178 C 0.27471 0.02352 0.49352 0.0
C1179 C 0.28844 6e-05 0.4898 0.0
C1180 C 0.29818 0.99343 0.46037 0.0
C1181 C 0.29323 0.00949 0.4348 0.0
C1182 C 0.27259 0.94031 0.53623 0.0
C1183 C 0.27813 0.94869 0.56649 0.0
C1184 C 0.27816 0.95625 0.51089 0.0
C1185 C 0.28888 0.98106 0.51554 0.0
C1186 C 0.29595 0.98878 0.54568 0.0
C1187 C 0.29084 0.97254 0.57101 0.0
H1188 H 0.93209 0.29952 0.443 0.0
H1189 H -0.00068 0.26 0.40614 0.0
H1190 H 0.95654 0.3099 0.49052 0.0
H1191 H 0.024 0.27075 0.453 0.0
H1192 H 0.06516 0.29807 0.53806 0.0
H1193 H 0.04118 0.3079 0.49 0.0
H1194 H 0.97217 0.27321 0.52931 0.0
H1195 H -0.00365 0.263 0.57675 0.0
C1196 C 0.95241 0.29402 0.44467 0.0
C1197 C 0.96398 0.27897 0.42126 0.0
C1198 C 0.96632 0.29984 0.47173 0.0
C1199 C 0.99211 0.29114 0.4753 0.0
C1200 C 0.00426 0.27799 0.45066 0.0
C1201 C 0.9902 0.27171 0.42401 0.0
C1202 C 0.04465 0.29342 0.53662 0.0
C1203 C 0.03246 0.27974 0.56076 0.0
C1204 C 0.031 0.29894 0.50925 0.0
C1205 C 0.00487 0.29134 0.50607 0.0
C1206 C 0.99219 0.27959 0.53131 0.0
C1207 C 0.00598 0.2736 0.55831 0.0
H1208 H 0.72619 0.92931 0.47063 0.0
H1209 H 0.6871 0.98198 0.40793 0.0
H1210 H 0.7171 0.95872 0.51396 0.0
H1211 H 0.67827 0.01173 0.45119 0.0
H1212 H 0.72562 0.0664 0.52343 0.0
H1213 H 0.71537 0.03665 0.48083 0.0
H1214 H 0.68091 0.98301 0.54611 0.0
H1215 H 0.69083 0.0132 0.58866 0.0
C1216 C 0.71501 0.94687 0.46641 0.0
C1217 C 0.7074 0.95352 0.43614 0.0
C1218 C 0.70966 0.96359 0.49112 0.0
C1219 C 0.69703 0.98747 0.4858 0.0
C1220 C 0.68799 0.99338 0.45581 0.0
C1221 C 0.69292 0.97638 0.43117 0.0
C1222 C 0.71509 0.04863 0.52837 0.0
C1223 C 0.709 0.04195 0.55908 0.0
C1224 C 0.7091 0.0317 0.50411 0.0
C1225 C 0.69738 0.00757 0.51029 0.0
C1226 C 0.68989 0.00156 0.54083 0.0
C1227 C 0.69544 0.01879 0.56505 0.0
H1228 H 0.92111 0.69389 0.54256 0.0
H1229 H 0.99038 0.72578 0.58393 0.0
H1230 H 0.9456 0.684 0.49492 0.0
H1231 H 0.01509 0.71544 0.537 0.0
H1232 H 0.0556 0.69028 0.4507 0.0
H1233 H 0.03019 0.67937 0.49727 0.0
H1234 H 0.96445 0.7215 0.45972 0.0
H1235 H 0.99005 0.73273 0.41384 0.0
C1236 C 0.94182 0.69772 0.54179 0.0
C1237 C 0.95406 0.71054 0.56653 0.0
C1238 C 0.95576 0.69218 0.51469 0.0
C1239 C 0.9822 0.69893 0.51241 0.0
C1240 C 0.99484 0.7097 0.5383 0.0
C1241 C 0.98078 0.71573 0.56502 0.0
C1242 C 0.03545 0.69639 0.45215 0.0
C1243 C 0.02466 0.71241 0.42906 0.0
C1244 C 0.02099 0.69023 0.47866 0.0
C1245 C 0.9954 0.69957 0.48196 0.0
C1246 C 0.984 0.71377 0.45758 0.0
C1247 C -0.00138 0.72036 0.4315 0.0
H1248 H 0.76541 0.56679 0.97521 0.0
H1249 H 0.8062 0.51258 0.9163 0.0
H1250 H 0.77382 0.53892 0.02017 0.0
H1251 H 0.81438 0.48428 0.96125 0.0
H1252 H 0.76484 0.4316 0.03327 0.0
H1253 H 0.77696 0.46002 0.99013 0.0
H1254 H 0.80846 0.51569 0.05514 0.0
H1255 H 0.79663 0.48677 0.09834 0.0
C1256 C 0.77685 0.54923 0.9722 0.0
C1257 C 0.78507 0.54165 0.94252 0.0
C1258 C 0.78183 0.53339 -0.00215 0.0
C1259 C 0.79471 0.50945 0.99409 0.0
C1260 C 0.80446 0.50269 0.96469 0.0
C1261 C 0.79989 0.51884 0.93909 0.0
C1262 C 0.77512 0.44954 0.03812 0.0
C1263 C 0.77976 0.45719 0.06887 0.0
C1264 C 0.78221 0.4657 0.01354 0.0
C1265 C 0.79362 0.49003 0.01939 0.0
C1266 C 0.79974 0.49698 0.05011 0.0
C1267 C 0.79309 0.48049 0.07471 0.0
H1268 H 0.49642 0.75304 0.90851 0.0
H1269 H 0.43087 0.79673 0.94292 0.0
H1270 H 0.52197 0.76566 0.95403 0.0
H1271 H 0.45618 0.80894 0.98927 0.0
H1272 H 0.49745 0.76587 0.07823 0.0
H1273 H 0.47217 0.77368 0.03091 0.0
H1274 H 0.54038 0.80571 0.98673 0.0
H1275 H 0.56544 0.79843 0.03471 0.0
C1276 C 0.48782 0.7659 0.92561 0.0
C1277 C 0.46185 0.77392 0.9226 0.0
C1278 C 0.50239 0.77328 0.95144 0.0
C1279 C 0.491 0.78832 0.97502 0.0
C1280 C 0.46538 0.79747 0.97124 0.0
C1281 C 0.45097 0.79056 0.9449 0.0
C1282 C 0.50664 0.77546 0.05871 0.0
C1283 C 0.53319 0.7816 0.05978 0.0
C1284 C 0.49225 0.78005 0.03178 0.0
C1285 C 0.50439 0.7903 0.00528 0.0
C1286 C 0.53061 0.79792 0.00699 0.0
C1287 C 0.54487 0.79386 0.03427 0.0
H1288 H 0.25187 0.55858 0.0288 0.0
H1289 H 0.18832 0.52267 0.0781 0.0
H1290 H 0.24119 0.53382 0.98277 0.0
H1291 H 0.17669 0.4982 0.03117 0.0
H1292 H 0.20148 0.43135 0.96053 0.0
H1293 H 0.1964 0.46186 0.00381 0.0
H1294 H 0.21196 0.52601 0.94142 0.0
H1295 H 0.21839 0.49511 0.89896 0.0
C1296 C 0.23531 0.54559 0.02956 0.0
C1297 C 0.22122 0.54215 0.05712 0.0
C1298 C 0.22887 0.53166 0.00299 0.0
C1299 C 0.20802 0.51397 0.00319 0.0
C1300 C 0.19299 0.51152 0.03034 0.0
C1301 C 0.19948 0.52562 0.0571 0.0
C1302 C 0.20295 0.45206 0.95617 0.0
C1303 C 0.21047 0.46113 0.92685 0.0
C1304 C 0.19999 0.46957 0.9808 0.0
C1305 C 0.20429 0.49637 0.97619 0.0
C1306 C 0.20917 0.50546 0.94592 0.0
C1307 C 0.21263 0.48793 0.92159 0.0
H1308 H 0.55522 0.23716 0.96259 0.0
H1309 H 0.50323 0.19739 0.89997 0.0
H1310 H 0.5279 0.22468 0.00651 0.0
H1311 H 0.47552 0.18504 0.94398 0.0
H1312 H 0.42086 0.2253 0.02249 0.0
H1313 H 0.44881 0.21784 0.97746 0.0
H1314 H 0.50824 0.18599 0.03761 0.0
H1315 H 0.47988 0.1932 0.08262 0.0
C1316 C 0.53816 0.22531 0.95843 0.0
C1317 C 0.5311 0.2184 0.92807 0.0
C1318 C 0.5227 0.21793 0.98349 0.0
C1319 C 0.49966 0.20386 0.97856 0.0
C1320 C 0.49326 0.19581 0.94832 0.0
C1321 C 0.50905 0.20282 0.92326 0.0
C1322 C 0.4395 0.21578 0.02577 0.0
C1323 C 0.44837 0.20986 0.05576 0.0
C1324 C 0.45544 0.21141 0.00011 0.0
C1325 C 0.4807 0.20148 0.00417 0.0
C1326 C 0.48882 0.19368 0.03396 0.0
C1327 C 0.47262 0.19764 0.05959 0.0
loop_
_geom_bond_atom_site_label_1
_geom_bond_atom_site_label_2
_geom_bond_distance
_geom_bond_site_symmetry_2
_ccdc_geom_bond_type
C0 C1 1.351 . S
C0 N3 1.368 . S
C0 H5 0.931 . S
C1 C0 1.351 . S
C1 N2 1.373 . S
C1 H29 0.930 . S
N2 C1 1.373 . S
N2 C4 1.340 . S
N3 C0 1.368 . S
N3 C4 1.321 . S
N3 Co6 2.135 . S
C4 N2 1.340 . S
C4 N3 1.321 . S
C4 H28 0.930 . S
H5 C0 0.931 . S
Co6 N3 2.135 . S
Co6 N9 2.121 . S
Co6 O14 2.055 . S
Co6 O17 2.039 . S
Co6 N20 2.140 . S
C7 O8 1.227 . S
C7 O17 1.265 . S
O8 C7 1.227 . S
N9 Co6 2.121 . S
N9 C11 1.375 . S
N9 C12 1.313 . S
C10 C11 1.338 . S
C10 N13 1.377 . S
C10 H30 0.930 . S
C11 N9 1.375 . S
C11 C10 1.338 . S
C11 H15 0.931 . S
C12 N9 1.313 . S
C12 N13 1.344 . S
C12 H16 0.930 . S
N13 C10 1.377 . S
N13 C12 1.344 . S
O14 Co6 2.055 . S
O14 C18 1.253 . S
H15 C11 0.931 . S
H16 C12 0.930 . S
O17 Co6 2.039 . S
O17 C7 1.265 . S
C18 O14 1.253 . S
C18 O19 1.227 . S
O19 C18 1.227 . S
N20 Co6 2.140 . S
N20 C23 1.346 . S
N20 C24 1.345 . S
C21 C22 1.387 . S
C21 C25 1.391 . S
C22 C21 1.387 . S
C22 C23 1.369 . S
C22 H31 0.929 . S
C23 N20 1.346 . S
C23 C22 1.369 . S
C23 H26 0.928 . S
C24 N20 1.345 . S
C24 C25 1.371 . S
C24 H27 0.931 . S
C25 C21 1.391 . S
C25 C24 1.371 . S
C25 H32 0.930 . S
H26 C23 0.928 . S
H27 C24 0.931 . S
H28 C4 0.930 . S
H29 C1 0.930 . S
H30 C10 0.930 . S
H31 C22 0.929 . S
H32 C25 0.930 . S
C33 C34 1.351 . S
C33 N36 1.368 . S
C33 H38 0.931 . S
C34 C33 1.351 . S
C34 N35 1.373 . S
C34 H62 0.930 . S
N35 C34 1.373 . S
N35 C37 1.340 . S
N36 C33 1.368 . S
N36 C37 1.321 . S
N36 Co39 2.135 . S
C37 N35 1.340 . S
C37 N36 1.321 . S
C37 H61 0.930 . S
H38 C33 0.931 . S
Co39 N36 2.135 . S
Co39 N42 2.121 . S
Co39 O47 2.055 . S
Co39 O50 2.039 . S
Co39 N53 2.140 . S
C40 O41 1.227 . S
C40 O50 1.265 . S
O41 C40 1.227 . S
N42 Co39 2.121 . S
N42 C44 1.375 . S
N42 C45 1.313 . S
C43 C44 1.338 . S
C43 N46 1.377 . S
C43 H63 0.930 . S
C44 N42 1.375 . S
C44 C43 1.338 . S
C44 H48 0.931 . S
C45 N42 1.313 . S
C45 N46 1.344 . S
C45 H49 0.930 . S
N46 C43 1.377 . S
N46 C45 1.344 . S
O47 Co39 2.055 . S
O47 C51 1.253 . S
H48 C44 0.931 . S
H49 C45 0.930 . S
O50 Co39 2.039 . S
O50 C40 1.265 . S
C51 O47 1.253 . S
C51 O52 1.227 . S
O52 C51 1.227 . S
N53 Co39 2.140 . S
N53 C56 1.346 . S
N53 C57 1.345 . S
C54 C55 1.387 . S
C54 C58 1.391 . S
C55 C54 1.387 . S
C55 C56 1.369 . S
C55 H64 0.929 . S
C56 N53 1.346 . S
C56 C55 1.369 . S
C56 H59 0.928 . S
C57 N53 1.345 . S
C57 C58 1.371 . S
C57 H60 0.931 . S
C58 C54 1.391 . S
C58 C57 1.371 . S
C58 H65 0.930 . S
H59 C56 0.928 . S
H60 C57 0.931 . S
H61 C37 0.930 . S
H62 C34 0.930 . S
H63 C43 0.930 . S
H64 C55 0.929 . S
H65 C58 0.930 . S
C66 C67 1.351 . S
C66 N69 1.368 . S
C66 H71 0.931 . S
C67 C66 1.351 . S
C67 N68 1.373 . S
C67 H95 0.930 . S
N68 C67 1.373 . S
N68 C70 1.340 . S
N69 C66 1.368 . S
N69 C70 1.321 . S
N69 Co72 2.135 . S
C70 N68 1.340 . S
C70 N69 1.321 . S
C70 H94 0.930 . S
H71 C66 0.931 . S
Co72 N69 2.135 . S
Co72 N75 2.121 . S
Co72 O80 2.055 . S
Co72 O83 2.039 . S
Co72 N86 2.140 . S
C73 O74 1.227 . S
C73 O83 1.265 . S
O74 C73 1.227 . S
N75 Co72 2.121 . S
N75 C77 1.375 . S
N75 C78 1.313 . S
C76 C77 1.338 . S
C76 N79 1.377 . S
C76 H96 0.930 . S
C77 N75 1.375 . S
C77 C76 1.338 . S
C77 H81 0.931 . S
C78 N75 1.313 . S
C78 N79 1.344 . S
C78 H82 0.930 . S
N79 C76 1.377 . S
N79 C78 1.344 . S
O80 Co72 2.055 . S
O80 C84 1.253 . S
H81 C77 0.931 . S
H82 C78 0.930 . S
O83 Co72 2.039 . S
O83 C73 1.265 . S
C84 O80 1.253 . S
C84 O85 1.227 . S
O85 C84 1.227 . S
N86 Co72 2.140 . S
N86 C89 1.346 . S
N86 C90 1.345 . S
C87 C88 1.387 . S
C87 C91 1.391 . S
C88 C87 1.387 . S
C88 C89 1.369 . S
C88 H97 0.929 . S
C89 N86 1.346 . S
C89 C88 1.369 . S
C89 H92 0.928 . S
C90 N86 1.345 . S
C90 C91 1.371 . S
C90 H93 0.931 . S
C91 C87 1.391 . S
C91 C90 1.371 . S
C91 H98 0.930 . S
H92 C89 0.928 . S
H93 C90 0.931 . S
H94 C70 0.930 . S
H95 C67 0.930 . S
H96 C76 0.930 . S
H97 C88 0.929 . S
H98 C91 0.930 . S
C99 C100 1.351 . S
C99 N102 1.368 . S
C99 H104 0.931 . S
C100 C99 1.351 . S
C100 N101 1.373 . S
C100 H128 0.930 . S
N101 C100 1.373 . S
N101 C103 1.340 . S
N102 C99 1.368 . S
N102 C103 1.321 . S
N102 Co105 2.135 . S
C103 N101 1.340 . S
C103 N102 1.321 . S
C103 H127 0.930 . S
H104 C99 0.931 . S
Co105 N102 2.135 . S
Co105 N108 2.121 . S
Co105 O113 2.055 . S
Co105 O116 2.039 . S
Co105 N119 2.140 . S
C106 O107 1.227 . S
C106 O116 1.265 . S
O107 C106 1.227 . S
N108 Co105 2.121 . S
N108 C110 1.375 . S
N108 C111 1.313 . S
C109 C110 1.338 . S
C109 N112 1.377 . S
C109 H129 0.930 . S
C110 N108 1.375 . S
C110 C109 1.338 . S
C110 H114 0.931 . S
C111 N108 1.313 . S
C111 N112 1.344 . S
C111 H115 0.930 . S
N112 C109 1.377 . S
N112 C111 1.344 . S
O113 Co105 2.055 . S
O113 C117 1.253 . S
H114 C110 0.931 . S
H115 C111 0.930 . S
O116 Co105 2.039 . S
O116 C106 1.265 . S
C117 O113 1.253 . S
C117 O118 1.227 . S
O118 C117 1.227 . S
N119 Co105 2.140 . S
N119 C122 1.346 . S
N119 C123 1.345 . S
C120 C121 1.387 . S
C120 C124 1.391 . S
C121 C120 1.387 . S
C121 C122 1.369 . S
C121 H130 0.929 . S
C122 N119 1.346 . S
C122 C121 1.369 . S
C122 H125 0.928 . S
C123 N119 1.345 . S
C123 C124 1.371 . S
C123 H126 0.931 . S
C124 C120 1.391 . S
C124 C123 1.371 . S
C124 H131 0.930 . S
H125 C122 0.928 . S
H126 C123 0.931 . S
H127 C103 0.930 . S
H128 C100 0.930 . S
H129 C109 0.930 . S
H130 C121 0.929 . S
H131 C124 0.930 . S
C132 C133 1.351 . S
C132 N135 1.368 . S
C132 H137 0.931 . S
C133 C132 1.351 . S
C133 N134 1.373 . S
C133 H161 0.930 . S
N134 C133 1.373 . S
N134 C136 1.340 . S
N135 C132 1.368 . S
N135 C136 1.321 . S
N135 Co138 2.135 . S
C136 N134 1.340 . S
C136 N135 1.321 . S
C136 H160 0.930 . S
H137 C132 0.931 . S
Co138 N135 2.135 . S
Co138 N141 2.121 . S
Co138 O146 2.055 . S
Co138 O149 2.039 . S
Co138 N152 2.140 . S
C139 O140 1.227 . S
C139 O149 1.265 . S
O140 C139 1.227 . S
N141 Co138 2.121 . S
N141 C143 1.375 . S
N141 C144 1.313 . S
C142 C143 1.338 . S
C142 N145 1.377 . S
C142 H162 0.930 . S
C143 N141 1.375 . S
C143 C142 1.338 . S
C143 H147 0.931 . S
C144 N141 1.313 . S
C144 N145 1.344 . S
C144 H148 0.930 . S
N145 C142 1.377 . S
N145 C144 1.344 . S
O146 Co138 2.055 . S
O146 C150 1.253 . S
H147 C143 0.931 . S
H148 C144 0.930 . S
O149 Co138 2.039 . S
O149 C139 1.265 . S
C150 O146 1.253 . S
C150 O151 1.227 . S
O151 C150 1.227 . S
N152 Co138 2.140 . S
N152 C155 1.346 . S
N152 C156 1.345 . S
C153 C154 1.387 . S
C153 C157 1.391 . S
C154 C153 1.387 . S
C154 C155 1.369 . S
C154 H163 0.929 . S
C155 N152 1.346 . S
C155 C154 1.369 . S
C155 H158 0.928 . S
C156 N152 1.345 . S
C156 C157 1.371 . S
C156 H159 0.931 . S
C157 C153 1.391 . S
C157 C156 1.371 . S
C157 H164 0.930 . S
H158 C155 0.928 . S
H159 C156 0.931 . S
H160 C136 0.930 . S
H161 C133 0.930 . S
H162 C142 0.930 . S
H163 C154 0.929 . S
H164 C157 0.930 . S
C165 C166 1.351 . S
C165 N168 1.368 . S
C165 H170 0.931 . S
C166 C165 1.351 . S
C166 N167 1.373 . S
C166 H194 0.930 . S
N167 C166 1.373 . S
N167 C169 1.340 . S
N168 C165 1.368 . S
N168 C169 1.321 . S
N168 Co171 2.135 . S
C169 N167 1.340 . S
C169 N168 1.321 . S
C169 H193 0.930 . S
H170 C165 0.931 . S
Co171 N168 2.135 . S
Co171 N174 2.121 . S
Co171 O179 2.055 . S
Co171 O182 2.039 . S
Co171 N185 2.140 . S
C172 O173 1.227 . S
C172 O182 1.265 . S
O173 C172 1.227 . S
N174 Co171 2.121 . S
N174 C176 1.375 . S
N174 C177 1.313 . S
C175 C176 1.338 . S
C175 N178 1.377 . S
C175 H195 0.930 . S
C176 N174 1.375 . S
C176 C175 1.338 . S
C176 H180 0.931 . S
C177 N174 1.313 . S
C177 N178 1.344 . S
C177 H181 0.930 . S
N178 C175 1.377 . S
N178 C177 1.344 . S
O179 Co171 2.055 . S
O179 C183 1.253 . S
H180 C176 0.931 . S
H181 C177 0.930 . S
O182 Co171 2.039 . S
O182 C172 1.265 . S
C183 O179 1.253 . S
C183 O184 1.227 . S
O184 C183 1.227 . S
N185 Co171 2.140 . S
N185 C188 1.346 . S
N185 C189 1.345 . S
C186 C187 1.387 . S
C186 C190 1.391 . S
C187 C186 1.387 . S
C187 C188 1.369 . S
C187 H196 0.929 . S
C188 N185 1.346 . S
C188 C187 1.369 . S
C188 H191 0.928 . S
C189 N185 1.345 . S
C189 C190 1.371 . S
C189 H192 0.931 . S
C190 C186 1.391 . S
C190 C189 1.371 . S
C190 H197 0.930 . S
H191 C188 0.928 . S
H192 C189 0.931 . S
H193 C169 0.930 . S
H194 C166 0.930 . S
H195 C175 0.930 . S
H196 C187 0.929 . S
H197 C190 0.930 . S
C198 C199 1.351 . S
C198 N201 1.368 . S
C198 H203 0.931 . S
C199 C198 1.351 . S
C199 N200 1.373 . S
C199 H227 0.930 . S
N200 C199 1.373 . S
N200 C202 1.340 . S
N201 C198 1.368 . S
N201 C202 1.321 . S
N201 Co204 2.135 . S
C202 N200 1.340 . S
C202 N201 1.321 . S
C202 H226 0.930 . S
H203 C198 0.931 . S
Co204 N201 2.135 . S
Co204 N207 2.121 . S
Co204 O212 2.055 . S
Co204 O215 2.039 . S
Co204 N218 2.140 . S
C205 O206 1.227 . S
C205 O215 1.265 . S
O206 C205 1.227 . S
N207 Co204 2.121 . S
N207 C209 1.375 . S
N207 C210 1.313 . S
C208 C209 1.338 . S
C208 N211 1.377 . S
C208 H228 0.930 . S
C209 N207 1.375 . S
C209 C208 1.338 . S
C209 H213 0.931 . S
C210 N207 1.313 . S
C210 N211 1.344 . S
C210 H214 0.930 . S
N211 C208 1.377 . S
N211 C210 1.344 . S
O212 Co204 2.055 . S
O212 C216 1.253 . S
H213 C209 0.931 . S
H214 C210 0.930 . S
O215 Co204 2.039 . S
O215 C205 1.265 . S
C216 O212 1.253 . S
C216 O217 1.227 . S
O217 C216 1.227 . S
N218 Co204 2.140 . S
N218 C221 1.346 . S
N218 C222 1.345 . S
C219 C220 1.387 . S
C219 C223 1.391 . S
C220 C219 1.387 . S
C220 C221 1.369 . S
C220 H229 0.929 . S
C221 N218 1.346 . S
C221 C220 1.369 . S
C221 H224 0.928 . S
C222 N218 1.345 . S
C222 C223 1.371 . S
C222 H225 0.931 . S
C223 C219 1.391 . S
C223 C222 1.371 . S
C223 H230 0.930 . S
H224 C221 0.928 . S
H225 C222 0.931 . S
H226 C202 0.930 . S
H227 C199 0.930 . S
H228 C208 0.930 . S
H229 C220 0.929 . S
H230 C223 0.930 . S
C231 C232 1.351 . S
C231 N234 1.368 . S
C231 H236 0.931 . S
C232 C231 1.351 . S
C232 N233 1.373 . S
C232 H260 0.930 . S
N233 C232 1.373 . S
N233 C235 1.340 . S
N234 C231 1.368 . S
N234 C235 1.321 . S
N234 Co237 2.135 . S
C235 N233 1.340 . S
C235 N234 1.321 . S
C235 H259 0.930 . S
H236 C231 0.931 . S
Co237 N234 2.135 . S
Co237 N240 2.121 . S
Co237 O245 2.055 . S
Co237 O248 2.039 . S
Co237 N251 2.140 . S
C238 O239 1.227 . S
C238 O248 1.265 . S
O239 C238 1.227 . S
N240 Co237 2.121 . S
N240 C242 1.375 . S
N240 C243 1.313 . S
C241 C242 1.338 . S
C241 N244 1.377 . S
C241 H261 0.930 . S
C242 N240 1.375 . S
C242 C241 1.338 . S
C242 H246 0.931 . S
C243 N240 1.313 . S
C243 N244 1.344 . S
C243 H247 0.930 . S
N244 C241 1.377 . S
N244 C243 1.344 . S
O245 Co237 2.055 . S
O245 C249 1.253 . S
H246 C242 0.931 . S
H247 C243 0.930 . S
O248 Co237 2.039 . S
O248 C238 1.265 . S
C249 O245 1.253 . S
C249 O250 1.227 . S
O250 C249 1.227 . S
N251 Co237 2.140 . S
N251 C254 1.346 . S
N251 C255 1.345 . S
C252 C253 1.387 . S
C252 C256 1.391 . S
C253 C252 1.387 . S
C253 C254 1.369 . S
C253 H262 0.929 . S
C254 N251 1.346 . S
C254 C253 1.369 . S
C254 H257 0.928 . S
C255 N251 1.345 . S
C255 C256 1.371 . S
C255 H258 0.931 . S
C256 C252 1.391 . S
C256 C255 1.371 . S
C256 H263 0.930 . S
H257 C254 0.928 . S
H258 C255 0.931 . S
H259 C235 0.930 . S
H260 C232 0.930 . S
H261 C241 0.930 . S
H262 C253 0.929 . S
H263 C256 0.930 . S
C264 C265 1.351 . S
C264 N267 1.368 . S
C264 H269 0.931 . S
C265 C264 1.351 . S
C265 N266 1.373 . S
C265 H293 0.930 . S
N266 C265 1.373 . S
N266 C268 1.340 . S
N267 C264 1.368 . S
N267 C268 1.321 . S
N267 Co270 2.135 . S
C268 N266 1.340 . S
C268 N267 1.321 . S
C268 H292 0.930 . S
H269 C264 0.931 . S
Co270 N267 2.135 . S
Co270 N273 2.121 . S
Co270 O278 2.055 . S
Co270 O281 2.039 . S
Co270 N284 2.140 . S
C271 O272 1.227 . S
C271 O281 1.265 . S
O272 C271 1.227 . S
N273 Co270 2.121 . S
N273 C275 1.375 . S
N273 C276 1.313 . S
C274 C275 1.338 . S
C274 N277 1.377 . S
C274 H294 0.930 . S
C275 N273 1.375 . S
C275 C274 1.338 . S
C275 H279 0.931 . S
C276 N273 1.313 . S
C276 N277 1.344 . S
C276 H280 0.930 . S
N277 C274 1.377 . S
N277 C276 1.344 . S
O278 Co270 2.055 . S
O278 C282 1.253 . S
H279 C275 0.931 . S
H280 C276 0.930 . S
O281 Co270 2.039 . S
O281 C271 1.265 . S
C282 O278 1.253 . S
C282 O283 1.227 . S
O283 C282 1.227 . S
N284 Co270 2.140 . S
N284 C287 1.346 . S
N284 C288 1.345 . S
C285 C286 1.387 . S
C285 C289 1.391 . S
C286 C285 1.387 . S
C286 C287 1.369 . S
C286 H295 0.929 . S
C287 N284 1.346 . S
C287 C286 1.369 . S
C287 H290 0.928 . S
C288 N284 1.345 . S
C288 C289 1.371 . S
C288 H291 0.931 . S
C289 C285 1.391 . S
C289 C288 1.371 . S
C289 H296 0.930 . S
H290 C287 0.928 . S
H291 C288 0.931 . S
H292 C268 0.930 . S
H293 C265 0.930 . S
H294 C274 0.930 . S
H295 C286 0.929 . S
H296 C289 0.930 . S
C297 C298 1.351 . S
C297 N300 1.368 . S
C297 H302 0.931 . S
C298 C297 1.351 . S
C298 N299 1.373 . S
C298 H326 0.930 . S
N299 C298 1.373 . S
N299 C301 1.340 . S
N300 C297 1.368 . S
N300 C301 1.321 . S
N300 Co303 2.135 . S
C301 N299 1.340 . S
C301 N300 1.321 . S
C301 H325 0.930 . S
H302 C297 0.931 . S
Co303 N300 2.135 . S
Co303 N306 2.121 . S
Co303 O311 2.055 . S
Co303 O314 2.039 . S
Co303 N317 2.140 . S
C304 O305 1.227 . S
C304 O314 1.265 . S
O305 C304 1.227 . S
N306 Co303 2.121 . S
N306 C308 1.375 . S
N306 C309 1.313 . S
C307 C308 1.338 . S
C307 N310 1.377 . S
C307 H327 0.930 . S
C308 N306 1.375 . S
C308 C307 1.338 . S
C308 H312 0.931 . S
C309 N306 1.313 . S
C309 N310 1.344 . S
C309 H313 0.930 . S
N310 C307 1.377 . S
N310 C309 1.344 . S
O311 Co303 2.055 . S
O311 C315 1.253 . S
H312 C308 0.931 . S
H313 C309 0.930 . S
O314 Co303 2.039 . S
O314 C304 1.265 . S
C315 O311 1.253 . S
C315 O316 1.227 . S
O316 C315 1.227 . S
N317 Co303 2.140 . S
N317 C320 1.346 . S
N317 C321 1.345 . S
C318 C319 1.387 . S
C318 C322 1.391 . S
C319 C318 1.387 . S
C319 C320 1.369 . S
C319 H328 0.929 . S
C320 N317 1.346 . S
C320 C319 1.369 . S
C320 H323 0.928 . S
C321 N317 1.345 . S
C321 C322 1.371 . S
C321 H324 0.931 . S
C322 C318 1.391 . S
C322 C321 1.371 . S
C322 H329 0.930 . S
H323 C320 0.928 . S
H324 C321 0.931 . S
H325 C301 0.930 . S
H326 C298 0.930 . S
H327 C307 0.930 . S
H328 C319 0.929 . S
H329 C322 0.930 . S
C330 C331 1.351 . S
C330 N333 1.368 . S
C330 H335 0.931 . S
C331 C330 1.351 . S
C331 N332 1.373 . S
C331 H359 0.930 . S
N332 C331 1.373 . S
N332 C334 1.340 . S
N333 C330 1.368 . S
N333 C334 1.321 . S
N333 Co336 2.135 . S
C334 N332 1.340 . S
C334 N333 1.321 . S
C334 H358 0.930 . S
H335 C330 0.931 . S
Co336 N333 2.135 . S
Co336 N339 2.121 . S
Co336 O344 2.055 . S
Co336 O347 2.039 . S
Co336 N350 2.140 . S
C337 O338 1.227 . S
C337 O347 1.265 . S
O338 C337 1.227 . S
N339 Co336 2.121 . S
N339 C341 1.375 . S
N339 C342 1.313 . S
C340 C341 1.338 . S
C340 N343 1.377 . S
C340 H360 0.930 . S
C341 N339 1.375 . S
C341 C340 1.338 . S
C341 H345 0.931 . S
C342 N339 1.313 . S
C342 N343 1.344 . S
C342 H346 0.930 . S
N343 C340 1.377 . S
N343 C342 1.344 . S
O344 Co336 2.055 . S
O344 C348 1.253 . S
H345 C341 0.931 . S
H346 C342 0.930 . S
O347 Co336 2.039 . S
O347 C337 1.265 . S
C348 O344 1.253 . S
C348 O349 1.227 . S
O349 C348 1.227 . S
N350 Co336 2.140 . S
N350 C353 1.346 . S
N350 C354 1.345 . S
C351 C352 1.387 . S
C351 C355 1.391 . S
C352 C351 1.387 . S
C352 C353 1.369 . S
C352 H361 0.929 . S
C353 N350 1.346 . S
C353 C352 1.369 . S
C353 H356 0.928 . S
C354 N350 1.345 . S
C354 C355 1.371 . S
C354 H357 0.931 . S
C355 C351 1.391 . S
C355 C354 1.371 . S
C355 H362 0.930 . S
H356 C353 0.928 . S
H357 C354 0.931 . S
H358 C334 0.930 . S
H359 C331 0.930 . S
H360 C340 0.930 . S
H361 C352 0.929 . S
H362 C355 0.930 . S
C363 C364 1.351 . S
C363 N366 1.368 . S
C363 H368 0.931 . S
C364 C363 1.351 . S
C364 N365 1.373 . S
C364 H392 0.930 . S
N365 C364 1.373 . S
N365 C367 1.340 . S
N366 C363 1.368 . S
N366 C367 1.321 . S
N366 Co369 2.135 . S
C367 N365 1.340 . S
C367 N366 1.321 . S
C367 H391 0.930 . S
H368 C363 0.931 . S
Co369 N366 2.135 . S
Co369 N372 2.121 . S
Co369 O377 2.055 . S
Co369 O380 2.039 . S
Co369 N383 2.140 . S
C370 O371 1.227 . S
C370 O380 1.265 . S
O371 C370 1.227 . S
N372 Co369 2.121 . S
N372 C374 1.375 . S
N372 C375 1.313 . S
C373 C374 1.338 . S
C373 N376 1.377 . S
C373 H393 0.930 . S
C374 N372 1.375 . S
C374 C373 1.338 . S
C374 H378 0.931 . S
C375 N372 1.313 . S
C375 N376 1.344 . S
C375 H379 0.930 . S
N376 C373 1.377 . S
N376 C375 1.344 . S
O377 Co369 2.055 . S
O377 C381 1.253 . S
H378 C374 0.931 . S
H379 C375 0.930 . S
O380 Co369 2.039 . S
O380 C370 1.265 . S
C381 O377 1.253 . S
C381 O382 1.227 . S
O382 C381 1.227 . S
N383 Co369 2.140 . S
N383 C386 1.346 . S
N383 C387 1.345 . S
C384 C385 1.387 . S
C384 C388 1.391 . S
C385 C384 1.387 . S
C385 C386 1.369 . S
C385 H394 0.929 . S
C386 N383 1.346 . S
C386 C385 1.369 . S
C386 H389 0.928 . S
C387 N383 1.345 . S
C387 C388 1.371 . S
C387 H390 0.931 . S
C388 C384 1.391 . S
C388 C387 1.371 . S
C388 H395 0.930 . S
H389 C386 0.928 . S
H390 C387 0.931 . S
H391 C367 0.930 . S
H392 C364 0.930 . S
H393 C373 0.930 . S
H394 C385 0.929 . S
H395 C388 0.930 . S
C396 C397 1.351 . S
C396 N399 1.368 . S
C396 H401 0.931 . S
C397 C396 1.351 . S
C397 N398 1.373 . S
C397 H425 0.930 . S
N398 C397 1.373 . S
N398 C400 1.340 . S
N399 C396 1.368 . S
N399 C400 1.321 . S
N399 Co402 2.135 . S
C400 N398 1.340 . S
C400 N399 1.321 . S
C400 H424 0.930 . S
H401 C396 0.931 . S
Co402 N399 2.135 . S
Co402 N405 2.121 . S
Co402 O410 2.055 . S
Co402 O413 2.039 . S
Co402 N416 2.140 . S
C403 O404 1.227 . S
C403 O413 1.265 . S
O404 C403 1.227 . S
N405 Co402 2.121 . S
N405 C407 1.375 . S
N405 C408 1.313 . S
C406 C407 1.338 . S
C406 N409 1.377 . S
C406 H426 0.930 . S
C407 N405 1.375 . S
C407 C406 1.338 . S
C407 H411 0.931 . S
C408 N405 1.313 . S
C408 N409 1.344 . S
C408 H412 0.930 . S
N409 C406 1.377 . S
N409 C408 1.344 . S
O410 Co402 2.055 . S
O410 C414 1.253 . S
H411 C407 0.931 . S
H412 C408 0.930 . S
O413 Co402 2.039 . S
O413 C403 1.265 . S
C414 O410 1.253 . S
C414 O415 1.227 . S
O415 C414 1.227 . S
N416 Co402 2.140 . S
N416 C419 1.346 . S
N416 C420 1.345 . S
C417 C418 1.387 . S
C417 C421 1.391 . S
C418 C417 1.387 . S
C418 C419 1.369 . S
C418 H427 0.929 . S
C419 N416 1.346 . S
C419 C418 1.369 . S
C419 H422 0.928 . S
C420 N416 1.345 . S
C420 C421 1.371 . S
C420 H423 0.931 . S
C421 C417 1.391 . S
C421 C420 1.371 . S
C421 H428 0.930 . S
H422 C419 0.928 . S
H423 C420 0.931 . S
H424 C400 0.930 . S
H425 C397 0.930 . S
H426 C406 0.930 . S
H427 C418 0.929 . S
H428 C421 0.930 . S
C429 C430 1.351 . S
C429 N432 1.368 . S
C429 H434 0.931 . S
C430 C429 1.351 . S
C430 N431 1.373 . S
C430 H458 0.930 . S
N431 C430 1.373 . S
N431 C433 1.340 . S
N432 C429 1.368 . S
N432 C433 1.321 . S
N432 Co435 2.135 . S
C433 N431 1.340 . S
C433 N432 1.321 . S
C433 H457 0.930 . S
H434 C429 0.931 . S
Co435 N432 2.135 . S
Co435 N438 2.121 . S
Co435 O443 2.055 . S
Co435 O446 2.039 . S
Co435 N449 2.140 . S
C436 O437 1.227 . S
C436 O446 1.265 . S
O437 C436 1.227 . S
N438 Co435 2.121 . S
N438 C440 1.375 . S
N438 C441 1.313 . S
C439 C440 1.338 . S
C439 N442 1.377 . S
C439 H459 0.930 . S
C440 N438 1.375 . S
C440 C439 1.338 . S
C440 H444 0.931 . S
C441 N438 1.313 . S
C441 N442 1.344 . S
C441 H445 0.930 . S
N442 C439 1.377 . S
N442 C441 1.344 . S
O443 Co435 2.055 . S
O443 C447 1.253 . S
H444 C440 0.931 . S
H445 C441 0.930 . S
O446 Co435 2.039 . S
O446 C436 1.265 . S
C447 O443 1.253 . S
C447 O448 1.227 . S
O448 C447 1.227 . S
N449 Co435 2.140 . S
N449 C452 1.346 . S
N449 C453 1.345 . S
C450 C451 1.387 . S
C450 C454 1.391 . S
C451 C450 1.387 . S
C451 C452 1.369 . S
C451 H460 0.929 . S
C452 N449 1.346 . S
C452 C451 1.369 . S
C452 H455 0.928 . S
C453 N449 1.345 . S
C453 C454 1.371 . S
C453 H456 0.931 . S
C454 C450 1.391 . S
C454 C453 1.371 . S
C454 H461 0.930 . S
H455 C452 0.928 . S
H456 C453 0.931 . S
H457 C433 0.930 . S
H458 C430 0.930 . S
H459 C439 0.930 . S
H460 C451 0.929 . S
H461 C454 0.930 . S
C462 C463 1.351 . S
C462 N465 1.368 . S
C462 H467 0.931 . S
C463 C462 1.351 . S
C463 N464 1.373 . S
C463 H491 0.930 . S
N464 C463 1.373 . S
N464 C466 1.340 . S
N465 C462 1.368 . S
N465 C466 1.321 . S
N465 Co468 2.135 . S
C466 N464 1.340 . S
C466 N465 1.321 . S
C466 H490 0.930 . S
H467 C462 0.931 . S
Co468 N465 2.135 . S
Co468 N471 2.121 . S
Co468 O476 2.055 . S
Co468 O479 2.039 . S
Co468 N482 2.140 . S
C469 O470 1.227 . S
C469 O479 1.265 . S
O470 C469 1.227 . S
N471 Co468 2.121 . S
N471 C473 1.375 . S
N471 C474 1.313 . S
C472 C473 1.338 . S
C472 N475 1.377 . S
C472 H492 0.930 . S
C473 N471 1.375 . S
C473 C472 1.338 . S
C473 H477 0.931 . S
C474 N471 1.313 . S
C474 N475 1.344 . S
C474 H478 0.930 . S
N475 C472 1.377 . S
N475 C474 1.344 . S
O476 Co468 2.055 . S
O476 C480 1.253 . S
H477 C473 0.931 . S
H478 C474 0.930 . S
O479 Co468 2.039 . S
O479 C469 1.265 . S
C480 O476 1.253 . S
C480 O481 1.227 . S
O481 C480 1.227 . S
N482 Co468 2.140 . S
N482 C485 1.346 . S
N482 C486 1.345 . S
C483 C484 1.387 . S
C483 C487 1.391 . S
C484 C483 1.387 . S
C484 C485 1.369 . S
C484 H493 0.929 . S
C485 N482 1.346 . S
C485 C484 1.369 . S
C485 H488 0.928 . S
C486 N482 1.345 . S
C486 C487 1.371 . S
C486 H489 0.931 . S
C487 C483 1.391 . S
C487 C486 1.371 . S
C487 H494 0.930 . S
H488 C485 0.928 . S
H489 C486 0.931 . S
H490 C466 0.930 . S
H491 C463 0.930 . S
H492 C472 0.930 . S
H493 C484 0.929 . S
H494 C487 0.930 . S
C495 C496 1.351 . S
C495 N498 1.368 . S
C495 H500 0.931 . S
C496 C495 1.351 . S
C496 N497 1.373 . S
C496 H524 0.930 . S
N497 C496 1.373 . S
N497 C499 1.340 . S
N498 C495 1.368 . S
N498 C499 1.321 . S
N498 Co501 2.135 . S
C499 N497 1.340 . S
C499 N498 1.321 . S
C499 H523 0.930 . S
H500 C495 0.931 . S
Co501 N498 2.135 . S
Co501 N504 2.121 . S
Co501 O509 2.055 . S
Co501 O512 2.039 . S
Co501 N515 2.140 . S
C502 O503 1.227 . S
C502 O512 1.265 . S
O503 C502 1.227 . S
N504 Co501 2.121 . S
N504 C506 1.375 . S
N504 C507 1.313 . S
C505 C506 1.338 . S
C505 N508 1.377 . S
C505 H525 0.930 . S
C506 N504 1.375 . S
C506 C505 1.338 . S
C506 H510 0.931 . S
C507 N504 1.313 . S
C507 N508 1.344 . S
C507 H511 0.930 . S
N508 C505 1.377 . S
N508 C507 1.344 . S
O509 Co501 2.055 . S
O509 C513 1.253 . S
H510 C506 0.931 . S
H511 C507 0.930 . S
O512 Co501 2.039 . S
O512 C502 1.265 . S
C513 O509 1.253 . S
C513 O514 1.227 . S
O514 C513 1.227 . S
N515 Co501 2.140 . S
N515 C518 1.346 . S
N515 C519 1.345 . S
C516 C517 1.387 . S
C516 C520 1.391 . S
C517 C516 1.387 . S
C517 C518 1.369 . S
C517 H526 0.929 . S
C518 N515 1.346 . S
C518 C517 1.369 . S
C518 H521 0.928 . S
C519 N515 1.345 . S
C519 C520 1.371 . S
C519 H522 0.931 . S
C520 C516 1.391 . S
C520 C519 1.371 . S
C520 H527 0.930 . S
H521 C518 0.928 . S
H522 C519 0.931 . S
H523 C499 0.930 . S
H524 C496 0.930 . S
H525 C505 0.930 . S
H526 C517 0.929 . S
H527 C520 0.930 . S
H528 C536 0.950 . S
H529 C541 0.950 . S
H530 C538 0.950 . S
H531 C540 0.950 . S
H532 C542 0.950 . S
H533 C544 0.950 . S
H534 C546 0.950 . S
H535 C547 0.950 . S
C536 H528 0.950 . S
C536 C537 1.386 1_565 S
C536 C538 1.391 . S
C537 C536 1.386 1_545 S
C537 C541 1.393 . S
C538 H530 0.950 . S
C538 C536 1.391 . S
C538 C539 1.400 . S
C539 C538 1.400 . S
C539 C540 1.398 . S
C539 C545 1.491 . S
C540 H531 0.950 . S
C540 C539 1.398 . S
C540 C541 1.391 1_565 S
C541 H529 0.950 . S
C541 C537 1.393 . S
C541 C540 1.391 1_545 S
C542 H532 0.950 . S
C542 C543 1.386 . S
C542 C544 1.391 . S
C543 C542 1.386 . S
C543 C547 1.393 . S
C544 H533 0.950 . S
C544 C542 1.391 . S
C544 C545 1.400 . S
C545 C539 1.491 . S
C545 C544 1.400 . S
C545 C546 1.398 . S
C546 H534 0.950 . S
C546 C545 1.398 . S
C546 C547 1.391 . S
C547 H535 0.950 . S
C547 C543 1.393 . S
C547 C546 1.391 . S
H548 C556 0.950 . S
H549 C561 0.950 . S
H550 C558 0.950 . S
H551 C560 0.950 . S
H552 C562 0.950 1_655 S
H553 C564 0.950 . S
H554 C566 0.950 . S
H555 C567 0.950 1_655 S
C556 H548 0.950 . S
C556 C557 1.386 . S
C556 C558 1.391 . S
C557 C556 1.386 . S
C557 C561 1.393 . S
C558 H550 0.950 . S
C558 C556 1.391 . S
C558 C559 1.400 . S
C559 C558 1.400 . S
C559 C560 1.398 . S
C559 C565 1.491 . S
C560 H551 0.950 . S
C560 C559 1.398 . S
C560 C561 1.391 . S
C561 H549 0.950 . S
C561 C557 1.393 . S
C561 C560 1.391 . S
C562 H552 0.950 1_455 S
C562 C563 1.386 1_455 S
C562 C564 1.391 . S
C563 C562 1.386 1_655 S
C563 C567 1.393 1_655 S
C564 H553 0.950 . S
C564 C562 1.391 . S
C564 C565 1.400 . S
C565 C559 1.491 . S
C565 C564 1.400 . S
C565 C566 1.398 . S
C566 H554 0.950 . S
C566 C565 1.398 . S
C566 C567 1.391 . S
C567 H555 0.950 1_455 S
C567 C563 1.393 1_455 S
C567 C566 1.391 . S
H568 C576 0.940 1_565 S
H569 C581 0.950 . S
H570 C578 0.950 . S
H571 C580 0.950 . S
H572 C582 0.950 . S
H573 C584 0.950 . S
H574 C586 0.950 . S
H575 C587 0.950 . S
C576 H568 0.940 1_545 S
C576 C577 1.382 1_545 S
C576 C578 1.404 . S
C577 C576 1.382 1_565 S
C577 C581 1.393 1_565 S
C578 H570 0.950 . S
C578 C576 1.404 . S
C578 C579 1.400 . S
C579 C578 1.400 . S
C579 C580 1.398 . S
C579 C585 1.491 . S
C580 H571 0.950 . S
C580 C579 1.398 . S
C580 C581 1.391 . S
C581 H569 0.950 . S
C581 C577 1.393 1_545 S
C581 C580 1.391 . S
C582 H572 0.950 . S
C582 C583 1.386 . S
C582 C584 1.391 . S
C583 C582 1.386 . S
C583 C587 1.393 . S
C584 H573 0.950 . S
C584 C582 1.391 . S
C584 C585 1.400 . S
C585 C579 1.491 . S
C585 C584 1.400 . S
C585 C586 1.398 . S
C586 H574 0.950 . S
C586 C585 1.398 . S
C586 C587 1.391 . S
C587 H575 0.950 . S
C587 C583 1.393 . S
C587 C586 1.391 . S
H588 C596 0.950 . S
H589 C601 0.950 . S
H590 C598 0.950 . S
H591 C600 0.950 . S
H592 C602 0.950 1_455 S
H593 C604 0.950 . S
H594 C606 0.950 . S
H595 C607 0.950 . S
C596 H588 0.950 . S
C596 C597 1.386 . S
C596 C598 1.391 . S
C597 C596 1.386 . S
C597 C601 1.393 . S
C598 H590 0.950 . S
C598 C596 1.391 . S
C598 C599 1.400 . S
C599 C598 1.400 . S
C599 C600 1.398 . S
C599 C605 1.491 . S
C600 H591 0.950 . S
C600 C599 1.398 . S
C600 C601 1.391 . S
C601 H589 0.950 . S
C601 C597 1.393 . S
C601 C600 1.391 . S
C602 H592 0.950 1_655 S
C602 C603 1.386 1_655 S
C602 C604 1.391 . S
C603 C602 1.386 1_455 S
C603 C607 1.393 1_455 S
C604 H593 0.950 . S
C604 C602 1.391 . S
C604 C605 1.400 . S
C605 C599 1.491 . S
C605 C604 1.400 . S
C605 C606 1.398 . S
C606 H594 0.950 . S
C606 C605 1.398 . S
C606 C607 1.391 . S
C607 H595 0.950 . S
C607 C603 1.393 1_655 S
C607 C606 1.391 . S
H608 C616 0.950 . S
H609 C621 0.950 . S
H610 C618 0.950 . S
H611 C620 0.950 . S
H612 C622 0.948 1_565 S
H613 C624 0.950 . S
H614 C626 0.950 . S
H615 C627 0.950 . S
C616 H608 0.950 . S
C616 C617 1.386 . S
C616 C618 1.391 . S
C617 C616 1.386 . S
C617 C621 1.393 . S
C618 H610 0.950 . S
C618 C616 1.391 . S
C618 C619 1.400 . S
C619 C618 1.400 . S
C619 C620 1.398 . S
C619 C625 1.491 . S
C620 H611 0.950 . S
C620 C619 1.398 . S
C620 C621 1.391 . S
C621 H609 0.950 . S
C621 C617 1.393 . S
C621 C620 1.391 . S
C622 H612 0.948 1_545 S
C622 C623 1.385 1_545 S
C622 C624 1.393 . S
C623 C622 1.385 1_565 S
C623 C627 1.393 1_565 S
C624 H613 0.950 . S
C624 C622 1.393 . S
C624 C625 1.400 . S
C625 C619 1.491 . S
C625 C624 1.400 . S
C625 C626 1.398 . S
C626 H614 0.950 . S
C626 C625 1.398 . S
C626 C627 1.391 . S
C627 H615 0.950 . S
C627 C623 1.393 1_545 S
C627 C626 1.391 . S
H628 C636 0.950 . S
H629 C641 0.950 . S
H630 C638 0.950 . S
H631 C640 0.950 . S
H632 C642 0.950 . S
H633 C644 0.950 . S
H634 C646 0.950 . S
H635 C647 0.976 . S
C636 H628 0.950 . S
C636 C637 1.386 . S
C636 C638 1.391 . S
C637 C636 1.386 . S
C637 C641 1.393 . S
C638 H630 0.950 . S
C638 C636 1.391 . S
C638 C639 1.400 . S
C639 C638 1.400 . S
C639 C640 1.398 . S
C639 C645 1.491 . S
C640 H631 0.950 . S
C640 C639 1.398 . S
C640 C641 1.391 . S
C641 H629 0.950 . S
C641 C637 1.393 . S
C641 C640 1.391 . S
C642 H632 0.950 . S
C642 C643 1.386 1_655 S
C642 C644 1.391 . S
C643 C642 1.386 1_455 S
C643 C647 1.401 . S
C644 H633 0.950 . S
C644 C642 1.391 . S
C644 C645 1.400 . S
C645 C639 1.491 . S
C645 C644 1.400 . S
C645 C646 1.398 . S
C646 H634 0.950 . S
C646 C645 1.398 . S
C646 C647 1.357 1_655 S
C647 H635 0.976 . S
C647 C643 1.401 . S
C647 C646 1.357 1_455 S
H648 C656 0.950 . S
H649 C661 0.950 . S
H650 C658 0.950 . S
H651 C660 0.950 . S
H652 C662 0.950 . S
H653 C664 0.950 . S
H654 C666 0.950 . S
H655 C667 0.950 . S
C656 H648 0.950 . S
C656 C657 1.386 . S
C656 C658 1.391 . S
C657 C656 1.386 . S
C657 C661 1.393 . S
C658 H650 0.950 . S
C658 C656 1.391 . S
C658 C659 1.400 . S
C659 C658 1.400 . S
C659 C660 1.398 . S
C659 C665 1.491 . S
C660 H651 0.950 . S
C660 C659 1.398 . S
C660 C661 1.391 . S
C661 H649 0.950 . S
C661 C657 1.393 . S
C661 C660 1.391 . S
C662 H652 0.950 . S
C662 C663 1.386 1_565 S
C662 C664 1.391 . S
C663 C662 1.386 1_545 S
C663 C667 1.393 . S
C664 H653 0.950 . S
C664 C662 1.391 . S
C664 C665 1.400 . S
C665 C659 1.491 . S
C665 C664 1.400 . S
C665 C666 1.398 . S
C666 H654 0.950 . S
C666 C665 1.398 . S
C666 C667 1.391 1_565 S
C667 H655 0.950 . S
C667 C663 1.393 . S
C667 C666 1.391 1_545 S
H668 C676 0.950 . S
H669 C681 0.950 . S
H670 C678 0.950 . S
H671 C680 0.950 . S
H672 C682 0.950 . S
H673 C684 0.950 . S
H674 C686 0.950 . S
H675 C687 0.950 . S
C676 H668 0.950 . S
C676 C677 1.386 . S
C676 C678 1.391 1_655 S
C677 C676 1.386 . S
C677 C681 1.393 1_655 S
C678 H670 0.950 . S
C678 C676 1.391 1_455 S
C678 C679 1.400 . S
C679 C678 1.400 . S
C679 C680 1.398 . S
C679 C685 1.491 . S
C680 H671 0.950 . S
C680 C679 1.398 . S
C680 C681 1.391 . S
C681 H669 0.950 . S
C681 C677 1.393 1_455 S
C681 C680 1.391 . S
C682 H672 0.950 . S
C682 C683 1.386 . S
C682 C684 1.391 . S
C683 C682 1.386 . S
C683 C687 1.393 . S
C684 H673 0.950 . S
C684 C682 1.391 . S
C684 C685 1.400 . S
C685 C679 1.491 . S
C685 C684 1.400 . S
C685 C686 1.398 . S
C686 H674 0.950 . S
C686 C685 1.398 . S
C686 C687 1.391 . S
C687 H675 0.950 . S
C687 C683 1.393 . S
C687 C686 1.391 . S
H688 C696 0.950 . S
H689 C701 0.950 . S
H690 C698 0.950 . S
H691 C700 0.950 . S
H692 C702 0.950 . S
H693 C704 0.950 . S
H694 C706 0.950 . S
H695 C707 0.950 . S
C696 H688 0.950 . S
C696 C697 1.386 . S
C696 C698 1.391 . S
C697 C696 1.386 . S
C697 C701 1.393 . S
C698 H690 0.950 . S
C698 C696 1.391 . S
C698 C699 1.400 . S
C699 C698 1.400 . S
C699 C700 1.398 . S
C699 C705 1.491 . S
C700 H691 0.950 . S
C700 C699 1.398 . S
C700 C701 1.391 . S
C701 H689 0.950 . S
C701 C697 1.393 . S
C701 C700 1.391 . S
C702 H692 0.950 . S
C702 C703 1.386 . S
C702 C704 1.391 . S
C703 C702 1.386 . S
C703 C707 1.393 . S
C704 H693 0.950 . S
C704 C702 1.391 . S
C704 C705 1.400 . S
C705 C699 1.491 . S
C705 C704 1.400 . S
C705 C706 1.398 . S
C706 H694 0.950 . S
C706 C705 1.398 . S
C706 C707 1.391 . S
C707 H695 0.950 . S
C707 C703 1.393 . S
C707 C706 1.391 . S
H708 C716 0.950 . S
H709 C721 0.950 . S
H710 C718 0.950 . S
H711 C720 0.950 . S
H712 C722 0.950 . S
H713 C724 0.950 . S
H714 C726 0.950 . S
H715 C727 0.950 . S
C716 H708 0.950 . S
C716 C717 1.386 . S
C716 C718 1.391 . S
C717 C716 1.386 . S
C717 C721 1.393 . S
C718 H710 0.950 . S
C718 C716 1.391 . S
C718 C719 1.400 . S
C719 C718 1.400 . S
C719 C720 1.398 . S
C719 C725 1.491 . S
C720 H711 0.950 . S
C720 C719 1.398 . S
C720 C721 1.391 . S
C721 H709 0.950 . S
C721 C717 1.393 . S
C721 C720 1.391 . S
C722 H712 0.950 . S
C722 C723 1.386 . S
C722 C724 1.391 . S
C723 C722 1.386 . S
C723 C727 1.393 . S
C724 H713 0.950 . S
C724 C722 1.391 . S
C724 C725 1.400 . S
C725 C719 1.491 . S
C725 C724 1.400 . S
C725 C726 1.398 . S
C726 H714 0.950 . S
C726 C725 1.398 . S
C726 C727 1.391 . S
C727 H715 0.950 . S
C727 C723 1.393 . S
C727 C726 1.391 . S
H728 C736 0.950 . S
H729 C741 0.950 . S
H730 C738 0.950 . S
H731 C740 0.950 . S
H732 C742 0.950 . S
H733 C744 0.950 . S
H734 C746 0.950 . S
H735 C747 0.950 . S
C736 H728 0.950 . S
C736 C737 1.386 . S
C736 C738 1.391 . S
C737 C736 1.386 . S
C737 C741 1.393 . S
C738 H730 0.950 . S
C738 C736 1.391 . S
C738 C739 1.400 . S
C739 C738 1.400 . S
C739 C740 1.398 . S
C739 C745 1.491 . S
C740 H731 0.950 . S
C740 C739 1.398 . S
C740 C741 1.391 . S
C741 H729 0.950 . S
C741 C737 1.393 . S
C741 C740 1.391 . S
C742 H732 0.950 . S
C742 C743 1.386 . S
C742 C744 1.391 . S
C743 C742 1.386 . S
C743 C747 1.393 . S
C744 H733 0.950 . S
C744 C742 1.391 . S
C744 C745 1.400 . S
C745 C739 1.491 . S
C745 C744 1.400 . S
C745 C746 1.398 . S
C746 H734 0.950 . S
C746 C745 1.398 . S
C746 C747 1.391 . S
C747 H735 0.950 . S
C747 C743 1.393 . S
C747 C746 1.391 . S
H748 C756 0.950 . S
H749 C761 0.950 . S
H750 C758 0.950 . S
H751 C760 0.950 . S
H752 C762 0.950 . S
H753 C764 0.950 . S
H754 C766 0.950 . S
H755 C767 0.950 . S
C756 H748 0.950 . S
C756 C757 1.386 . S
C756 C758 1.391 . S
C757 C756 1.386 . S
C757 C761 1.393 . S
C758 H750 0.950 . S
C758 C756 1.391 . S
C758 C759 1.400 . S
C759 C758 1.400 . S
C759 C760 1.398 . S
C759 C765 1.491 . S
C760 H751 0.950 . S
C760 C759 1.398 . S
C760 C761 1.391 . S
C761 H749 0.950 . S
C761 C757 1.393 . S
C761 C760 1.391 . S
C762 H752 0.950 . S
C762 C763 1.386 . S
C762 C764 1.391 . S
C763 C762 1.386 . S
C763 C767 1.393 . S
C764 H753 0.950 . S
C764 C762 1.391 . S
C764 C765 1.400 . S
C765 C759 1.491 . S
C765 C764 1.400 . S
C765 C766 1.398 . S
C766 H754 0.950 . S
C766 C765 1.398 . S
C766 C767 1.391 . S
C767 H755 0.950 . S
C767 C763 1.393 . S
C767 C766 1.391 . S
H768 C776 0.950 . S
H769 C781 0.950 . S
H770 C778 0.950 . S
H771 C780 0.950 . S
H772 C782 0.950 . S
H773 C784 0.950 . S
H774 C786 0.950 . S
H775 C787 0.950 . S
C776 H768 0.950 . S
C776 C777 1.386 . S
C776 C778 1.391 . S
C777 C776 1.386 . S
C777 C781 1.393 . S
C778 H770 0.950 . S
C778 C776 1.391 . S
C778 C779 1.400 . S
C779 C778 1.400 . S
C779 C780 1.398 . S
C779 C785 1.491 . S
C780 H771 0.950 . S
C780 C779 1.398 . S
C780 C781 1.391 . S
C781 H769 0.950 . S
C781 C777 1.393 . S
C781 C780 1.391 . S
C782 H772 0.950 . S
C782 C783 1.386 . S
C782 C784 1.391 . S
C783 C782 1.386 . S
C783 C787 1.393 . S
C784 H773 0.950 . S
C784 C782 1.391 . S
C784 C785 1.400 . S
C785 C779 1.491 . S
C785 C784 1.400 . S
C785 C786 1.398 . S
C786 H774 0.950 . S
C786 C785 1.398 . S
C786 C787 1.391 . S
C787 H775 0.950 . S
C787 C783 1.393 . S
C787 C786 1.391 . S
H788 C796 0.950 . S
H789 C801 0.950 . S
H790 C798 0.950 . S
H791 C800 0.950 . S
H792 C802 0.950 . S
H793 C804 0.950 . S
H794 C806 0.950 . S
H795 C807 0.950 . S
C796 H788 0.950 . S
C796 C797 1.386 . S
C796 C798 1.391 . S
C797 C796 1.386 . S
C797 C801 1.393 . S
C798 H790 0.950 . S
C798 C796 1.391 . S
C798 C799 1.400 . S
C799 C798 1.400 . S
C799 C800 1.398 . S
C799 C805 1.491 . S
C800 H791 0.950 . S
C800 C799 1.398 . S
C800 C801 1.391 . S
C801 H789 0.950 . S
C801 C797 1.393 . S
C801 C800 1.391 . S
C802 H792 0.950 . S
C802 C803 1.386 . S
C802 C804 1.391 . S
C803 C802 1.386 . S
C803 C807 1.393 . S
C804 H793 0.950 . S
C804 C802 1.391 . S
C804 C805 1.400 . S
C805 C799 1.491 . S
C805 C804 1.400 . S
C805 C806 1.398 . S
C806 H794 0.950 . S
C806 C805 1.398 . S
C806 C807 1.391 . S
C807 H795 0.950 . S
C807 C803 1.393 . S
C807 C806 1.391 . S
H808 C816 0.950 . S
H809 C821 0.950 . S
H810 C818 0.950 . S
H811 C820 0.950 . S
H812 C822 0.950 . S
H813 C824 0.950 . S
H814 C826 0.950 . S
H815 C827 0.950 . S
C816 H808 0.950 . S
C816 C817 1.386 . S
C816 C818 1.391 . S
C817 C816 1.386 . S
C817 C821 1.393 . S
C818 H810 0.950 . S
C818 C816 1.391 . S
C818 C819 1.400 . S
C819 C818 1.400 . S
C819 C820 1.398 . S
C819 C825 1.491 . S
C820 H811 0.950 . S
C820 C819 1.398 . S
C820 C821 1.391 . S
C821 H809 0.950 . S
C821 C817 1.393 . S
C821 C820 1.391 . S
C822 H812 0.950 . S
C822 C823 1.386 . S
C822 C824 1.391 . S
C823 C822 1.386 . S
C823 C827 1.393 . S
C824 H813 0.950 . S
C824 C822 1.391 . S
C824 C825 1.400 . S
C825 C819 1.491 . S
C825 C824 1.400 . S
C825 C826 1.398 . S
C826 H814 0.950 . S
C826 C825 1.398 . S
C826 C827 1.391 . S
C827 H815 0.950 . S
C827 C823 1.393 . S
C827 C826 1.391 . S
H828 C836 0.950 . S
H829 C841 0.950 . S
H830 C838 0.950 . S
H831 C840 0.950 . S
H832 C842 0.950 . S
H833 C844 0.950 . S
H834 C846 0.950 . S
H835 C847 0.950 . S
C836 H828 0.950 . S
C836 C837 1.386 . S
C836 C838 1.391 . S
C837 C836 1.386 . S
C837 C841 1.393 . S
C838 H830 0.950 . S
C838 C836 1.391 . S
C838 C839 1.400 . S
C839 C838 1.400 . S
C839 C840 1.398 . S
C839 C845 1.491 . S
C840 H831 0.950 . S
C840 C839 1.398 . S
C840 C841 1.391 . S
C841 H829 0.950 . S
C841 C837 1.393 . S
C841 C840 1.391 . S
C842 H832 0.950 . S
C842 C843 1.386 . S
C842 C844 1.391 . S
C843 C842 1.386 . S
C843 C847 1.393 . S
C844 H833 0.950 . S
C844 C842 1.391 . S
C844 C845 1.400 . S
C845 C839 1.491 . S
C845 C844 1.400 . S
C845 C846 1.398 . S
C846 H834 0.950 . S
C846 C845 1.398 . S
C846 C847 1.391 . S
C847 H835 0.950 . S
C847 C843 1.393 . S
C847 C846 1.391 . S
H848 C856 0.950 . S
H849 C861 0.950 . S
H850 C858 0.950 . S
H851 C860 0.950 . S
H852 C862 0.950 . S
H853 C864 0.950 . S
H854 C866 0.950 . S
H855 C867 0.950 . S
C856 H848 0.950 . S
C856 C857 1.386 . S
C856 C858 1.391 . S
C857 C856 1.386 . S
C857 C861 1.393 . S
C858 H850 0.950 . S
C858 C856 1.391 . S
C858 C859 1.400 . S
C859 C858 1.400 . S
C859 C860 1.398 . S
C859 C865 1.491 . S
C860 H851 0.950 . S
C860 C859 1.398 . S
C860 C861 1.391 . S
C861 H849 0.950 . S
C861 C857 1.393 . S
C861 C860 1.391 . S
C862 H852 0.950 . S
C862 C863 1.386 . S
C862 C864 1.391 . S
C863 C862 1.386 . S
C863 C867 1.393 . S
C864 H853 0.950 . S
C864 C862 1.391 . S
C864 C865 1.400 . S
C865 C859 1.491 . S
C865 C864 1.400 . S
C865 C866 1.398 . S
C866 H854 0.950 . S
C866 C865 1.398 . S
C866 C867 1.391 . S
C867 H855 0.950 . S
C867 C863 1.393 . S
C867 C866 1.391 . S
H868 C876 0.950 . S
H869 C881 0.950 . S
H870 C878 0.950 . S
H871 C880 0.950 . S
H872 C882 0.950 . S
H873 C884 0.950 . S
H874 C886 0.950 . S
H875 C887 0.950 . S
C876 H868 0.950 . S
C876 C877 1.386 . S
C876 C878 1.391 . S
C877 C876 1.386 . S
C877 C881 1.393 . S
C878 H870 0.950 . S
C878 C876 1.391 . S
C878 C879 1.400 . S
C879 C878 1.400 . S
C879 C880 1.398 . S
C879 C885 1.491 . S
C880 H871 0.950 . S
C880 C879 1.398 . S
C880 C881 1.391 . S
C881 H869 0.950 . S
C881 C877 1.393 . S
C881 C880 1.391 . S
C882 H872 0.950 . S
C882 C883 1.386 . S
C882 C884 1.391 . S
C883 C882 1.386 . S
C883 C887 1.393 . S
C884 H873 0.950 . S
C884 C882 1.391 . S
C884 C885 1.400 . S
C885 C879 1.491 . S
C885 C884 1.400 . S
C885 C886 1.398 . S
C886 H874 0.950 . S
C886 C885 1.398 . S
C886 C887 1.391 . S
C887 H875 0.950 . S
C887 C883 1.393 . S
C887 C886 1.391 . S
H888 C896 0.950 . S
H889 C901 0.950 . S
H890 C898 0.950 . S
H891 C900 0.950 . S
H892 C902 0.950 . S
H893 C904 0.950 . S
H894 C906 0.950 . S
H895 C907 0.950 . S
C896 H888 0.950 . S
C896 C897 1.386 . S
C896 C898 1.391 . S
C897 C896 1.386 . S
C897 C901 1.393 . S
C898 H890 0.950 . S
C898 C896 1.391 . S
C898 C899 1.400 . S
C899 C898 1.400 . S
C899 C900 1.398 . S
C899 C905 1.491 . S
C900 H891 0.950 . S
C900 C899 1.398 . S
C900 C901 1.391 . S
C901 H889 0.950 . S
C901 C897 1.393 . S
C901 C900 1.391 . S
C902 H892 0.950 . S
C902 C903 1.386 . S
C902 C904 1.391 . S
C903 C902 1.386 . S
C903 C907 1.393 . S
C904 H893 0.950 . S
C904 C902 1.391 . S
C904 C905 1.400 . S
C905 C899 1.491 . S
C905 C904 1.400 . S
C905 C906 1.398 . S
C906 H894 0.950 . S
C906 C905 1.398 . S
C906 C907 1.391 . S
C907 H895 0.950 . S
C907 C903 1.393 . S
C907 C906 1.391 . S
H908 C916 0.950 . S
H909 C921 0.950 . S
H910 C918 0.950 . S
H911 C920 0.950 . S
H912 C922 0.950 . S
H913 C924 0.950 . S
H914 C926 0.950 . S
H915 C927 0.950 . S
C916 H908 0.950 . S
C916 C917 1.386 . S
C916 C918 1.391 . S
C917 C916 1.386 . S
C917 C921 1.393 . S
C918 H910 0.950 . S
C918 C916 1.391 . S
C918 C919 1.400 . S
C919 C918 1.400 . S
C919 C920 1.398 . S
C919 C925 1.491 . S
C920 H911 0.950 . S
C920 C919 1.398 . S
C920 C921 1.391 . S
C921 H909 0.950 . S
C921 C917 1.393 . S
C921 C920 1.391 . S
C922 H912 0.950 . S
C922 C923 1.386 . S
C922 C924 1.391 . S
C923 C922 1.386 . S
C923 C927 1.393 . S
C924 H913 0.950 . S
C924 C922 1.391 . S
C924 C925 1.400 . S
C925 C919 1.491 . S
C925 C924 1.400 . S
C925 C926 1.398 . S
C926 H914 0.950 . S
C926 C925 1.398 . S
C926 C927 1.391 . S
C927 H915 0.950 . S
C927 C923 1.393 . S
C927 C926 1.391 . S
H928 C936 0.950 . S
H929 C941 0.950 . S
H930 C938 0.950 . S
H931 C940 0.950 . S
H932 C942 0.950 . S
H933 C944 0.950 . S
H934 C946 0.950 . S
H935 C947 0.950 . S
C936 H928 0.950 . S
C936 C937 1.386 . S
C936 C938 1.391 . S
C937 C936 1.386 . S
C937 C941 1.393 . S
C938 H930 0.950 . S
C938 C936 1.391 . S
C938 C939 1.400 . S
C939 C938 1.400 . S
C939 C940 1.398 . S
C939 C945 1.491 1_556 S
C940 H931 0.950 . S
C940 C939 1.398 . S
C940 C941 1.391 . S
C941 H929 0.950 . S
C941 C937 1.393 . S
C941 C940 1.391 . S
C942 H932 0.950 . S
C942 C943 1.386 . S
C942 C944 1.391 . S
C943 C942 1.386 . S
C943 C947 1.393 . S
C944 H933 0.950 . S
C944 C942 1.391 . S
C944 C945 1.400 . S
C945 C939 1.491 1_554 S
C945 C944 1.400 . S
C945 C946 1.398 . S
C946 H934 0.950 . S
C946 C945 1.398 . S
C946 C947 1.391 . S
C947 H935 0.950 . S
C947 C943 1.393 . S
C947 C946 1.391 . S
H948 C956 0.950 . S
H949 C961 0.950 . S
H950 C958 0.950 . S
H951 C960 0.950 1_554 S
H952 C962 0.950 . S
H953 C964 0.950 . S
H954 C966 0.950 1_556 S
H955 C967 0.950 . S
C956 H948 0.950 . S
C956 C957 1.386 . S
C956 C958 1.391 . S
C957 C956 1.386 . S
C957 C961 1.393 . S
C958 H950 0.950 . S
C958 C956 1.391 . S
C958 C959 1.400 . S
C959 C958 1.400 . S
C959 C960 1.398 . S
C959 C965 1.491 1_556 S
C960 H951 0.950 1_556 S
C960 C959 1.398 . S
C960 C961 1.391 . S
C961 H949 0.950 . S
C961 C957 1.393 . S
C961 C960 1.391 . S
C962 H952 0.950 . S
C962 C963 1.386 . S
C962 C964 1.391 . S
C963 C962 1.386 . S
C963 C967 1.393 . S
C964 H953 0.950 . S
C964 C962 1.391 . S
C964 C965 1.400 . S
C965 C959 1.491 1_554 S
C965 C964 1.400 . S
C965 C966 1.398 . S
C966 H954 0.950 1_554 S
C966 C965 1.398 . S
C966 C967 1.391 . S
C967 H955 0.950 . S
C967 C963 1.393 . S
C967 C966 1.391 . S
H968 C976 0.950 . S
H969 C981 0.950 . S
H970 C978 0.950 1_554 S
H971 C980 0.950 . S
H972 C982 0.950 . S
H973 C984 0.950 1_556 S
H974 C986 0.950 . S
H975 C987 0.950 . S
C976 H968 0.950 . S
C976 C977 1.386 . S
C976 C978 1.391 . S
C977 C976 1.386 . S
C977 C981 1.393 . S
C978 H970 0.950 1_556 S
C978 C976 1.391 . S
C978 C979 1.400 . S
C979 C978 1.400 . S
C979 C980 1.398 . S
C979 C985 1.491 1_556 S
C980 H971 0.950 . S
C980 C979 1.398 . S
C980 C981 1.391 . S
C981 H969 0.950 . S
C981 C977 1.393 . S
C981 C980 1.391 . S
C982 H972 0.950 . S
C982 C983 1.386 . S
C982 C984 1.391 . S
C983 C982 1.386 . S
C983 C987 1.393 . S
C984 H973 0.950 1_554 S
C984 C982 1.391 . S
C984 C985 1.400 . S
C985 C979 1.491 1_554 S
C985 C984 1.400 . S
C985 C986 1.398 . S
C986 H974 0.950 . S
C986 C985 1.398 . S
C986 C987 1.391 . S
C987 H975 0.950 . S
C987 C983 1.393 . S
C987 C986 1.391 . S
H988 C996 0.950 . S
H989 C1001 0.950 . S
H990 C998 0.950 . S
H991 C1000 0.950 1_554 S
H992 C1002 0.950 . S
H993 C1004 0.950 . S
H994 C1006 0.950 1_556 S
H995 C1007 0.950 . S
C996 H988 0.950 . S
C996 C997 1.386 . S
C996 C998 1.391 . S
C997 C996 1.386 . S
C997 C1001 1.393 . S
C998 H990 0.950 . S
C998 C996 1.391 . S
C998 C999 1.400 . S
C999 C998 1.400 . S
C999 C1000 1.398 . S
C999 C1005 1.491 1_556 S
C1000 H991 0.950 1_556 S
C1000 C999 1.398 . S
C1000 C1001 1.391 . S
C1001 H989 0.950 . S
C1001 C997 1.393 . S
C1001 C1000 1.391 . S
C1002 H992 0.950 . S
C1002 C1003 1.386 . S
C1002 C1004 1.391 . S
C1003 C1002 1.386 . S
C1003 C1007 1.393 . S
C1004 H993 0.950 . S
C1004 C1002 1.391 . S
C1004 C1005 1.400 . S
C1005 C999 1.491 1_554 S
C1005 C1004 1.400 . S
C1005 C1006 1.398 . S
C1006 H994 0.950 1_554 S
C1006 C1005 1.398 . S
C1006 C1007 1.391 . S
C1007 H995 0.950 . S
C1007 C1003 1.393 . S
C1007 C1006 1.391 . S
H1008 C1016 0.950 . S
H1009 C1021 0.950 . S
H1010 C1018 0.950 . S
H1011 C1020 0.950 . S
H1012 C1022 0.950 . S
H1013 C1024 0.950 . S
H1014 C1026 0.950 . S
H1015 C1027 0.950 . S
C1016 H1008 0.950 . S
C1016 C1017 1.386 . S
C1016 C1018 1.391 . S
C1017 C1016 1.386 . S
C1017 C1021 1.393 . S
C1018 H1010 0.950 . S
C1018 C1016 1.391 . S
C1018 C1019 1.400 . S
C1019 C1018 1.400 . S
C1019 C1020 1.398 . S
C1019 C1025 1.491 . S
C1020 H1011 0.950 . S
C1020 C1019 1.398 . S
C1020 C1021 1.391 . S
C1021 H1009 0.950 . S
C1021 C1017 1.393 . S
C1021 C1020 1.391 . S
C1022 H1012 0.950 . S
C1022 C1023 1.386 . S
C1022 C1024 1.391 . S
C1023 C1022 1.386 . S
C1023 C1027 1.393 . S
C1024 H1013 0.950 . S
C1024 C1022 1.391 . S
C1024 C1025 1.400 . S
C1025 C1019 1.491 . S
C1025 C1024 1.400 . S
C1025 C1026 1.398 . S
C1026 H1014 0.950 . S
C1026 C1025 1.398 . S
C1026 C1027 1.391 . S
C1027 H1015 0.950 . S
C1027 C1023 1.393 . S
C1027 C1026 1.391 . S
H1028 C1036 0.950 . S
H1029 C1041 0.950 . S
H1030 C1038 0.950 . S
H1031 C1040 0.950 . S
H1032 C1042 0.950 . S
H1033 C1044 0.950 . S
H1034 C1046 0.950 . S
H1035 C1047 0.950 . S
C1036 H1028 0.950 . S
C1036 C1037 1.386 . S
C1036 C1038 1.391 . S
C1037 C1036 1.386 . S
C1037 C1041 1.393 . S
C1038 H1030 0.950 . S
C1038 C1036 1.391 . S
C1038 C1039 1.400 . S
C1039 C1038 1.400 . S
C1039 C1040 1.398 . S
C1039 C1045 1.491 . S
C1040 H1031 0.950 . S
C1040 C1039 1.398 . S
C1040 C1041 1.391 . S
C1041 H1029 0.950 . S
C1041 C1037 1.393 . S
C1041 C1040 1.391 . S
C1042 H1032 0.950 . S
C1042 C1043 1.386 . S
C1042 C1044 1.391 . S
C1043 C1042 1.386 . S
C1043 C1047 1.393 . S
C1044 H1033 0.950 . S
C1044 C1042 1.391 . S
C1044 C1045 1.400 . S
C1045 C1039 1.491 . S
C1045 C1044 1.400 . S
C1045 C1046 1.398 . S
C1046 H1034 0.950 . S
C1046 C1045 1.398 . S
C1046 C1047 1.391 . S
C1047 H1035 0.950 . S
C1047 C1043 1.393 . S
C1047 C1046 1.391 . S
H1048 C1056 0.950 . S
H1049 C1061 0.950 . S
H1050 C1058 0.950 . S
H1051 C1060 0.950 . S
H1052 C1062 0.950 . S
H1053 C1064 0.950 . S
H1054 C1066 0.950 . S
H1055 C1067 0.950 . S
C1056 H1048 0.950 . S
C1056 C1057 1.386 . S
C1056 C1058 1.391 . S
C1057 C1056 1.386 . S
C1057 C1061 1.393 . S
C1058 H1050 0.950 . S
C1058 C1056 1.391 . S
C1058 C1059 1.400 . S
C1059 C1058 1.400 . S
C1059 C1060 1.398 . S
C1059 C1065 1.491 . S
C1060 H1051 0.950 . S
C1060 C1059 1.398 . S
C1060 C1061 1.391 . S
C1061 H1049 0.950 . S
C1061 C1057 1.393 . S
C1061 C1060 1.391 . S
C1062 H1052 0.950 . S
C1062 C1063 1.386 . S
C1062 C1064 1.391 . S
C1063 C1062 1.386 . S
C1063 C1067 1.393 . S
C1064 H1053 0.950 . S
C1064 C1062 1.391 . S
C1064 C1065 1.400 . S
C1065 C1059 1.491 . S
C1065 C1064 1.400 . S
C1065 C1066 1.398 . S
C1066 H1054 0.950 . S
C1066 C1065 1.398 . S
C1066 C1067 1.391 . S
C1067 H1055 0.950 . S
C1067 C1063 1.393 . S
C1067 C1066 1.391 . S
H1068 C1076 0.950 . S
H1069 C1081 0.950 . S
H1070 C1078 0.950 . S
H1071 C1080 0.950 . S
H1072 C1082 0.950 . S
H1073 C1084 0.950 . S
H1074 C1086 0.950 . S
H1075 C1087 0.950 . S
C1076 H1068 0.950 . S
C1076 C1077 1.386 . S
C1076 C1078 1.391 . S
C1077 C1076 1.386 . S
C1077 C1081 1.393 . S
C1078 H1070 0.950 . S
C1078 C1076 1.391 . S
C1078 C1079 1.400 . S
C1079 C1078 1.400 . S
C1079 C1080 1.398 . S
C1079 C1085 1.491 . S
C1080 H1071 0.950 . S
C1080 C1079 1.398 . S
C1080 C1081 1.391 . S
C1081 H1069 0.950 . S
C1081 C1077 1.393 . S
C1081 C1080 1.391 . S
C1082 H1072 0.950 . S
C1082 C1083 1.386 . S
C1082 C1084 1.391 . S
C1083 C1082 1.386 . S
C1083 C1087 1.393 . S
C1084 H1073 0.950 . S
C1084 C1082 1.391 . S
C1084 C1085 1.400 . S
C1085 C1079 1.491 . S
C1085 C1084 1.400 . S
C1085 C1086 1.398 . S
C1086 H1074 0.950 . S
C1086 C1085 1.398 . S
C1086 C1087 1.391 . S
C1087 H1075 0.950 . S
C1087 C1083 1.393 . S
C1087 C1086 1.391 . S
H1088 C1096 0.950 . S
H1089 C1101 0.950 . S
H1090 C1098 0.950 . S
H1091 C1100 0.950 . S
H1092 C1102 0.950 . S
H1093 C1104 0.950 . S
H1094 C1106 0.950 . S
H1095 C1107 0.950 . S
C1096 H1088 0.950 . S
C1096 C1097 1.386 . S
C1096 C1098 1.391 . S
C1097 C1096 1.386 . S
C1097 C1101 1.393 . S
C1098 H1090 0.950 . S
C1098 C1096 1.391 . S
C1098 C1099 1.400 . S
C1099 C1098 1.400 . S
C1099 C1100 1.398 . S
C1099 C1105 1.491 . S
C1100 H1091 0.950 . S
C1100 C1099 1.398 . S
C1100 C1101 1.391 . S
C1101 H1089 0.950 . S
C1101 C1097 1.393 . S
C1101 C1100 1.391 . S
C1102 H1092 0.950 . S
C1102 C1103 1.386 . S
C1102 C1104 1.391 . S
C1103 C1102 1.386 . S
C1103 C1107 1.393 . S
C1104 H1093 0.950 . S
C1104 C1102 1.391 . S
C1104 C1105 1.400 . S
C1105 C1099 1.491 . S
C1105 C1104 1.400 . S
C1105 C1106 1.398 . S
C1106 H1094 0.950 . S
C1106 C1105 1.398 . S
C1106 C1107 1.391 . S
C1107 H1095 0.950 . S
C1107 C1103 1.393 . S
C1107 C1106 1.391 . S
H1108 C1116 0.950 . S
H1109 C1121 0.950 . S
H1110 C1118 0.950 . S
H1111 C1120 0.950 . S
H1112 C1122 0.950 . S
H1113 C1124 0.950 . S
H1114 C1126 0.950 . S
H1115 C1127 0.950 . S
C1116 H1108 0.950 . S
C1116 C1117 1.386 . S
C1116 C1118 1.391 . S
C1117 C1116 1.386 . S
C1117 C1121 1.393 . S
C1118 H1110 0.950 . S
C1118 C1116 1.391 . S
C1118 C1119 1.400 . S
C1119 C1118 1.400 . S
C1119 C1120 1.398 . S
C1119 C1125 1.491 . S
C1120 H1111 0.950 . S
C1120 C1119 1.398 . S
C1120 C1121 1.391 . S
C1121 H1109 0.950 . S
C1121 C1117 1.393 . S
C1121 C1120 1.391 . S
C1122 H1112 0.950 . S
C1122 C1123 1.386 . S
C1122 C1124 1.391 . S
C1123 C1122 1.386 . S
C1123 C1127 1.393 . S
C1124 H1113 0.950 . S
C1124 C1122 1.391 . S
C1124 C1125 1.400 . S
C1125 C1119 1.491 . S
C1125 C1124 1.400 . S
C1125 C1126 1.398 . S
C1126 H1114 0.950 . S
C1126 C1125 1.398 . S
C1126 C1127 1.391 . S
C1127 H1115 0.950 . S
C1127 C1123 1.393 . S
C1127 C1126 1.391 . S
H1128 C1136 0.950 . S
H1129 C1141 0.950 . S
H1130 C1138 0.950 . S
H1131 C1140 0.950 . S
H1132 C1142 0.950 . S
H1133 C1144 0.950 . S
H1134 C1146 0.950 . S
H1135 C1147 0.950 . S
C1136 H1128 0.950 . S
C1136 C1137 1.386 . S
C1136 C1138 1.391 . S
C1137 C1136 1.386 . S
C1137 C1141 1.393 . S
C1138 H1130 0.950 . S
C1138 C1136 1.391 . S
C1138 C1139 1.400 . S
C1139 C1138 1.400 . S
C1139 C1140 1.398 . S
C1139 C1145 1.491 . S
C1140 H1131 0.950 . S
C1140 C1139 1.398 . S
C1140 C1141 1.391 . S
C1141 H1129 0.950 . S
C1141 C1137 1.393 . S
C1141 C1140 1.391 . S
C1142 H1132 0.950 . S
C1142 C1143 1.386 . S
C1142 C1144 1.391 . S
C1143 C1142 1.386 . S
C1143 C1147 1.393 . S
C1144 H1133 0.950 . S
C1144 C1142 1.391 . S
C1144 C1145 1.400 . S
C1145 C1139 1.491 . S
C1145 C1144 1.400 . S
C1145 C1146 1.398 . S
C1146 H1134 0.950 . S
C1146 C1145 1.398 . S
C1146 C1147 1.391 . S
C1147 H1135 0.950 . S
C1147 C1143 1.393 . S
C1147 C1146 1.391 . S
H1148 C1156 0.950 . S
H1149 C1161 0.950 . S
H1150 C1158 0.950 . S
H1151 C1160 0.950 . S
H1152 C1162 0.950 . S
H1153 C1164 0.950 . S
H1154 C1166 0.950 . S
H1155 C1167 0.950 . S
C1156 H1148 0.950 . S
C1156 C1157 1.386 . S
C1156 C1158 1.391 . S
C1157 C1156 1.386 . S
C1157 C1161 1.393 . S
C1158 H1150 0.950 . S
C1158 C1156 1.391 . S
C1158 C1159 1.400 . S
C1159 C1158 1.400 . S
C1159 C1160 1.398 . S
C1159 C1165 1.491 . S
C1160 H1151 0.950 . S
C1160 C1159 1.398 . S
C1160 C1161 1.391 . S
C1161 H1149 0.950 . S
C1161 C1157 1.393 . S
C1161 C1160 1.391 . S
C1162 H1152 0.950 . S
C1162 C1163 1.386 . S
C1162 C1164 1.391 . S
C1163 C1162 1.386 . S
C1163 C1167 1.393 . S
C1164 H1153 0.950 . S
C1164 C1162 1.391 . S
C1164 C1165 1.400 . S
C1165 C1159 1.491 . S
C1165 C1164 1.400 . S
C1165 C1166 1.398 . S
C1166 H1154 0.950 . S
C1166 C1165 1.398 . S
C1166 C1167 1.391 . S
C1167 H1155 0.950 . S
C1167 C1163 1.393 . S
C1167 C1166 1.391 . S
H1168 C1176 0.950 . S
H1169 C1181 0.950 . S
H1170 C1178 0.950 . S
H1171 C1180 0.950 . S
H1172 C1182 0.950 . S
H1173 C1184 0.950 . S
H1174 C1186 0.950 . S
H1175 C1187 0.950 . S
C1176 H1168 0.950 . S
C1176 C1177 1.386 . S
C1176 C1178 1.391 . S
C1177 C1176 1.386 . S
C1177 C1181 1.393 . S
C1178 H1170 0.950 . S
C1178 C1176 1.391 . S
C1178 C1179 1.400 . S
C1179 C1178 1.400 . S
C1179 C1180 1.398 1_545 S
C1179 C1185 1.491 1_545 S
C1180 H1171 0.950 . S
C1180 C1179 1.398 1_565 S
C1180 C1181 1.391 1_565 S
C1181 H1169 0.950 . S
C1181 C1177 1.393 . S
C1181 C1180 1.391 1_545 S
C1182 H1172 0.950 . S
C1182 C1183 1.386 . S
C1182 C1184 1.391 . S
C1183 C1182 1.386 . S
C1183 C1187 1.393 . S
C1184 H1173 0.950 . S
C1184 C1182 1.391 . S
C1184 C1185 1.400 . S
C1185 C1179 1.491 1_565 S
C1185 C1184 1.400 . S
C1185 C1186 1.398 1_565 S
C1186 H1174 0.950 . S
C1186 C1185 1.398 1_545 S
C1186 C1187 1.391 1_545 S
C1187 H1175 0.950 . S
C1187 C1183 1.393 . S
C1187 C1186 1.391 1_565 S
H1188 C1196 0.950 . S
H1189 C1201 0.950 1_455 S
H1190 C1198 0.950 . S
H1191 C1200 0.950 . S
H1192 C1202 0.950 . S
H1193 C1204 0.950 . S
H1194 C1206 0.950 . S
H1195 C1207 0.950 1_655 S
C1196 H1188 0.950 . S
C1196 C1197 1.386 . S
C1196 C1198 1.391 . S
C1197 C1196 1.386 . S
C1197 C1201 1.393 . S
C1198 H1190 0.950 . S
C1198 C1196 1.391 . S
C1198 C1199 1.400 . S
C1199 C1198 1.400 . S
C1199 C1200 1.398 1_655 S
C1199 C1205 1.491 1_655 S
C1200 H1191 0.950 . S
C1200 C1199 1.398 1_455 S
C1200 C1201 1.391 1_455 S
C1201 H1189 0.950 1_655 S
C1201 C1197 1.393 . S
C1201 C1200 1.391 1_655 S
C1202 H1192 0.950 . S
C1202 C1203 1.386 . S
C1202 C1204 1.391 . S
C1203 C1202 1.386 . S
C1203 C1207 1.393 . S
C1204 H1193 0.950 . S
C1204 C1202 1.391 . S
C1204 C1205 1.400 . S
C1205 C1199 1.491 1_455 S
C1205 C1204 1.400 . S
C1205 C1206 1.398 1_455 S
C1206 H1194 0.950 . S
C1206 C1205 1.398 1_655 S
C1206 C1207 1.391 1_655 S
C1207 H1195 0.950 1_455 S
C1207 C1203 1.393 . S
C1207 C1206 1.391 1_455 S
H1208 C1216 0.950 . S
H1209 C1221 0.950 . S
H1210 C1218 0.950 . S
H1211 C1220 0.950 . S
H1212 C1222 0.950 . S
H1213 C1224 0.950 . S
H1214 C1226 0.950 . S
H1215 C1227 0.950 . S
C1216 H1208 0.950 . S
C1216 C1217 1.386 . S
C1216 C1218 1.391 . S
C1217 C1216 1.386 . S
C1217 C1221 1.393 . S
C1218 H1210 0.950 . S
C1218 C1216 1.391 . S
C1218 C1219 1.400 . S
C1219 C1218 1.400 . S
C1219 C1220 1.398 1_565 S
C1219 C1225 1.491 1_565 S
C1220 H1211 0.950 . S
C1220 C1219 1.398 1_545 S
C1220 C1221 1.391 1_545 S
C1221 H1209 0.950 . S
C1221 C1217 1.393 . S
C1221 C1220 1.391 1_565 S
C1222 H1212 0.950 . S
C1222 C1223 1.386 . S
C1222 C1224 1.391 . S
C1223 C1222 1.386 . S
C1223 C1227 1.393 . S
C1224 H1213 0.950 . S
C1224 C1222 1.391 . S
C1224 C1225 1.400 . S
C1225 C1219 1.491 1_545 S
C1225 C1224 1.400 . S
C1225 C1226 1.398 1_545 S
C1226 H1214 0.950 . S
C1226 C1225 1.398 1_565 S
C1226 C1227 1.391 1_565 S
C1227 H1215 0.950 . S
C1227 C1223 1.393 . S
C1227 C1226 1.391 1_545 S
H1228 C1236 0.950 . S
H1229 C1241 0.950 1_455 S
H1230 C1238 0.950 . S
H1231 C1240 0.950 . S
H1232 C1242 0.950 . S
H1233 C1244 0.950 . S
H1234 C1246 0.950 . S
H1235 C1247 0.950 1_655 S
C1236 H1228 0.950 . S
C1236 C1237 1.386 . S
C1236 C1238 1.391 . S
C1237 C1236 1.386 . S
C1237 C1241 1.393 . S
C1238 H1230 0.950 . S
C1238 C1236 1.391 . S
C1238 C1239 1.400 . S
C1239 C1238 1.400 . S
C1239 C1240 1.398 1_655 S
C1239 C1245 1.491 1_655 S
C1240 H1231 0.950 . S
C1240 C1239 1.398 1_455 S
C1240 C1241 1.391 1_455 S
C1241 H1229 0.950 1_655 S
C1241 C1237 1.393 . S
C1241 C1240 1.391 1_655 S
C1242 H1232 0.950 . S
C1242 C1243 1.386 . S
C1242 C1244 1.391 . S
C1243 C1242 1.386 . S
C1243 C1247 1.393 . S
C1244 H1233 0.950 . S
C1244 C1242 1.391 . S
C1244 C1245 1.400 . S
C1245 C1239 1.491 1_455 S
C1245 C1244 1.400 . S
C1245 C1246 1.398 1_455 S
C1246 H1234 0.950 . S
C1246 C1245 1.398 1_655 S
C1246 C1247 1.391 1_655 S
C1247 H1235 0.950 1_455 S
C1247 C1243 1.393 . S
C1247 C1246 1.391 1_455 S
H1248 C1256 0.950 . S
H1249 C1261 0.950 . S
H1250 C1258 0.950 . S
H1251 C1260 0.950 . S
H1252 C1262 0.950 . S
H1253 C1264 0.950 . S
H1254 C1266 0.950 . S
H1255 C1267 0.950 . S
C1256 H1248 0.950 . S
C1256 C1257 1.386 . S
C1256 C1258 1.391 . S
C1257 C1256 1.386 . S
C1257 C1261 1.393 . S
C1258 H1250 0.950 . S
C1258 C1256 1.391 . S
C1258 C1259 1.400 . S
C1259 C1258 1.400 . S
C1259 C1260 1.398 . S
C1259 C1265 1.491 1_556 S
C1260 H1251 0.950 . S
C1260 C1259 1.398 . S
C1260 C1261 1.391 . S
C1261 H1249 0.950 . S
C1261 C1257 1.393 . S
C1261 C1260 1.391 . S
C1262 H1252 0.950 . S
C1262 C1263 1.386 . S
C1262 C1264 1.391 . S
C1263 C1262 1.386 . S
C1263 C1267 1.393 . S
C1264 H1253 0.950 . S
C1264 C1262 1.391 . S
C1264 C1265 1.400 . S
C1265 C1259 1.491 1_554 S
C1265 C1264 1.400 . S
C1265 C1266 1.398 . S
C1266 H1254 0.950 . S
C1266 C1265 1.398 . S
C1266 C1267 1.391 . S
C1267 H1255 0.950 . S
C1267 C1263 1.393 . S
C1267 C1266 1.391 . S
H1268 C1276 0.950 . S
H1269 C1281 0.950 . S
H1270 C1278 0.950 . S
H1271 C1280 0.950 1_554 S
H1272 C1282 0.950 . S
H1273 C1284 0.950 . S
H1274 C1286 0.950 1_556 S
H1275 C1287 0.950 . S
C1276 H1268 0.950 . S
C1276 C1277 1.386 . S
C1276 C1278 1.391 . S
C1277 C1276 1.386 . S
C1277 C1281 1.393 . S
C1278 H1270 0.950 . S
C1278 C1276 1.391 . S
C1278 C1279 1.400 . S
C1279 C1278 1.400 . S
C1279 C1280 1.398 . S
C1279 C1285 1.491 1_556 S
C1280 H1271 0.950 1_556 S
C1280 C1279 1.398 . S
C1280 C1281 1.391 . S
C1281 H1269 0.950 . S
C1281 C1277 1.393 . S
C1281 C1280 1.391 . S
C1282 H1272 0.950 . S
C1282 C1283 1.386 . S
C1282 C1284 1.391 . S
C1283 C1282 1.386 . S
C1283 C1287 1.393 . S
C1284 H1273 0.950 . S
C1284 C1282 1.391 . S
C1284 C1285 1.400 . S
C1285 C1279 1.491 1_554 S
C1285 C1284 1.400 . S
C1285 C1286 1.398 . S
C1286 H1274 0.950 1_554 S
C1286 C1285 1.398 . S
C1286 C1287 1.391 . S
C1287 H1275 0.950 . S
C1287 C1283 1.393 . S
C1287 C1286 1.391 . S
H1288 C1296 0.950 . S
H1289 C1301 0.950 . S
H1290 C1298 0.950 . S
H1291 C1300 0.950 . S
H1292 C1302 0.950 . S
H1293 C1304 0.950 . S
H1294 C1306 0.950 . S
H1295 C1307 0.950 . S
C1296 H1288 0.950 . S
C1296 C1297 1.386 . S
C1296 C1298 1.391 . S
C1297 C1296 1.386 . S
C1297 C1301 1.393 . S
C1298 H1290 0.950 . S
C1298 C1296 1.391 . S
C1298 C1299 1.400 . S
C1299 C1298 1.400 . S
C1299 C1300 1.398 . S
C1299 C1305 1.491 1_554 S
C1300 H1291 0.950 . S
C1300 C1299 1.398 . S
C1300 C1301 1.391 . S
C1301 H1289 0.950 . S
C1301 C1297 1.393 . S
C1301 C1300 1.391 . S
C1302 H1292 0.950 . S
C1302 C1303 1.386 . S
C1302 C1304 1.391 . S
C1303 C1302 1.386 . S
C1303 C1307 1.393 . S
C1304 H1293 0.950 . S
C1304 C1302 1.391 . S
C1304 C1305 1.400 . S
C1305 C1299 1.491 1_556 S
C1305 C1304 1.400 . S
C1305 C1306 1.398 . S
C1306 H1294 0.950 . S
C1306 C1305 1.398 . S
C1306 C1307 1.391 . S
C1307 H1295 0.950 . S
C1307 C1303 1.393 . S
C1307 C1306 1.391 . S
H1308 C1316 0.950 . S
H1309 C1321 0.950 . S
H1310 C1318 0.930 1_554 S
H1311 C1320 0.950 . S
H1312 C1322 0.950 . S
H1313 C1324 0.931 1_556 S
H1314 C1326 0.950 . S
H1315 C1327 0.950 . S
C1316 H1308 0.950 . S
C1316 C1317 1.386 . S
C1316 C1318 1.391 . S
C1317 C1316 1.386 . S
C1317 C1321 1.393 . S
C1318 H1310 0.930 1_556 S
C1318 C1316 1.391 . S
C1318 C1319 1.400 . S
C1319 C1318 1.400 . S
C1319 C1320 1.398 . S
C1319 C1325 1.491 1_556 S
C1320 H1311 0.950 . S
C1320 C1319 1.398 . S
C1320 C1321 1.391 . S
C1321 H1309 0.950 . S
C1321 C1317 1.393 . S
C1321 C1320 1.391 . S
C1322 H1312 0.950 . S
C1322 C1323 1.386 . S
C1322 C1324 1.391 . S
C1323 C1322 1.386 . S
C1323 C1327 1.393 . S
C1324 H1313 0.931 1_554 S
C1324 C1322 1.391 . S
C1324 C1325 1.400 . S
C1325 C1319 1.491 1_554 S
C1325 C1324 1.400 . S
C1325 C1326 1.398 . S
C1326 H1314 0.950 . S
C1326 C1325 1.398 . S
C1326 C1327 1.391 . S
C1327 H1315 0.950 . S
C1327 C1323 1.393 . S
C1327 C1326 1.391 . S
C537 C18 1.864 . S
C543 N101 1.744 . S
C557 N2 1.720 . S
C563 C51 1.861 . S
C577 C84 1.865 . S
C583 N35 1.728 . S
C597 N68 1.747 . S
C603 C117 1.865 . S
C617 N167 1.734 . S
C623 C150 1.862 . S
C637 N200 1.727 . S
C643 C183 1.865 . S
C657 N233 1.725 . S
C663 C216 1.865 . S
C677 C249 1.864 . S
C683 N134 1.721 . S
C697 C282 1.866 . S
C703 N365 1.740 . S
C717 C315 1.865 . S
C723 N266 1.728 . S
C737 C348 1.863 . S
C743 N299 1.743 . S
C757 N332 1.728 . S
C763 C381 1.861 . S
C777 N431 1.722 . S
C783 C414 1.861 . S
C797 C447 1.862 . S
C803 N464 1.739 . S
C817 C480 1.863 . S
C823 N497 1.742 . S
C837 C513 1.862 . S
C843 N398 1.717 . S
C857 C7 0.959 . S
C863 C172 0.950 . S
C877 C40 0.962 . S
C883 C205 0.968 . S
C897 C238 0.967 . S
C903 C73 0.958 . S
C917 C106 0.964 . S
C923 C139 0.954 . S
C937 C271 0.967 . S
C943 C436 0.967 . S
C957 C304 0.951 . S
C963 C469 0.961 . S
C977 C337 0.958 . S
C983 C502 0.950 . S
C997 C370 0.962 . S
C1003 C403 0.968 . S
C1017 C21 0.457 . S
C1023 C516 0.473 . S
C1037 C417 0.448 . S
C1043 C54 0.478 . S
C1057 C87 0.458 . S
C1063 C450 0.473 . S
C1077 C120 0.479 . S
C1083 C483 0.448 . S
C1097 C318 0.477 . S
C1103 C153 0.449 . S
C1117 C351 0.471 . S
C1123 C186 0.459 . S
C1137 C384 0.476 . S
C1143 C219 0.453 . S
C1157 C285 0.451 . S
C1163 C252 0.478 . S
C1177 N13 0.824 . S
C1183 N145 0.856 . S
C1197 N46 0.806 . S
C1203 N178 0.851 . S
C1217 N79 0.826 . S
C1223 N211 0.856 . S
C1237 N244 0.805 . S
C1243 N112 0.851 . S
C1257 N277 0.784 . S
C1263 N409 0.817 . S
C1277 N310 0.831 . S
C1283 N442 0.787 . S
C1297 N475 0.824 . S
C1303 N343 0.856 . S
C1317 N376 0.816 . S
C1323 N508 0.855 . S
