# Generated by pormake.
# Topology wli, (5)-cn, num edge types: 1
# Building blocks:
#     Node 0, Type 0, BuildingBlock: XOMCOT_clean_sbu_1, # of connection points: 5
#     Node 1, Type 0, BuildingBlock: XOMCOT_clean_sbu_1, # of connection points: 5
#     Node 2, Type 0, BuildingBlock: XOMCOT_clean_sbu_1, # of connection points: 5
#     Node 3, Type 0, BuildingBlock: XOMCOT_clean_sbu_1, # of connection points: 5
#     Node 4, Type 0, BuildingBlock: XOMCOT_clean_sbu_1, # of connection points: 5
#     Node 5, Type 0, BuildingBlock: XOMCOT_clean_sbu_1, # of connection points: 5
#     Edge 6, Type (0, 0), BuildingBlock: FUNLAD_clean_linker_1, # of connection points: 2
#     Edge 7, Type (0, 0), BuildingBlock: FUNLAD_clean_linker_1, # of connection points: 2
#     Edge 8, Type (0, 0), BuildingBlock: FUNLAD_clean_linker_1, # of connection points: 2
#     Edge 9, Type (0, 0), BuildingBlock: FUNLAD_clean_linker_1, # of connection points: 2
#     Edge 10, Type (0, 0), BuildingBlock: FUNLAD_clean_linker_1, # of connection points: 2
#     Edge 11, Type (0, 0), BuildingBlock: FUNLAD_clean_linker_1, # of connection points: 2
#     Edge 12, Type (0, 0), BuildingBlock: FUNLAD_clean_linker_1, # of connection points: 2
#     Edge 13, Type (0, 0), BuildingBlock: FUNLAD_clean_linker_1, # of connection points: 2
#     Edge 14, Type (0, 0), BuildingBlock: FUNLAD_clean_linker_1, # of connection points: 2
#     Edge 15, Type (0, 0), BuildingBlock: FUNLAD_clean_linker_1, # of connection points: 2
#     Edge 16, Type (0, 0), BuildingBlock: FUNLAD_clean_linker_1, # of connection points: 2
#     Edge 17, Type (0, 0), BuildingBlock: FUNLAD_clean_linker_1, # of connection points: 2
#     Edge 18, Type (0, 0), BuildingBlock: FUNLAD_clean_linker_1, # of connection points: 2
#     Edge 19, Type (0, 0), BuildingBlock: FUNLAD_clean_linker_1, # of connection points: 2
#     Edge 20, Type (0, 0), BuildingBlock: FUNLAD_clean_linker_1, # of connection points: 2
# Relax obj value: 0.114
# Max RMSD: 0.138
# Mean RMSD: 0.138
data_MOF--net-wli--node1-XOMCOT_clean_sbu_1--edge1-FUNLAD_clean_linker_1
_symmetry_space_group_name_H-M    P1
_symmetry_Int_Tables_number       1
_symmetry_cell_setting            triclinic
loop_
_symmetry_equiv_pos_as_xyz
'x, y, z'
_cell_length_a     37.134794
_cell_length_b     37.330019
_cell_length_c     27.998154
_cell_angle_alpha  90.625352
_cell_angle_beta   89.437232
_cell_angle_gamma 119.71139
loop_
_atom_site_label
_atom_site_type_symbol
_atom_site_fract_x
_atom_site_fract_y
_atom_site_fract_z
_atom_type_partial_charge
C0 C 0.21528 0.50497 0.04876 0.0
C1 C 0.24506 0.53902 0.02492 0.0
N2 N 0.28161 0.53988 0.02928 0.0
N3 N 0.23287 0.48437 0.06776 0.0
C4 C 0.27334 0.5064 0.05532 0.0
H5 H 0.18287 0.49595 0.0526 0.0
Co6 Co 0.20484 0.43888 0.10722 0.0
C7 C 0.24404 0.38824 0.08627 0.0
O8 O 0.20629 0.35663 0.0827 0.0
N9 N 0.17573 0.39396 0.15016 0.0
C10 C 0.16355 0.35244 0.2125 0.0
C11 C 0.19264 0.37789 0.1797 0.0
C12 C 0.13667 0.37897 0.1676 0.0
N13 N 0.12831 0.35335 0.20485 0.0
O14 O 0.23244 0.47384 0.16101 0.0
H15 H 0.22496 0.38621 0.17989 0.0
H16 H 0.11571 0.38948 0.15663 0.0
O17 O 0.24939 0.42394 0.09794 0.0
C18 C 0.20888 0.48594 0.17998 0.0
O19 O 0.17138 0.47166 0.16294 0.0
N20 N 0.17567 0.40682 0.05286 0.0
C21 C 0.13108 0.36553 0.97092 0.0
C22 C 0.17437 0.38458 0.97152 0.0
C23 C 0.19611 0.40602 0.01223 0.0
C24 C 0.13369 0.39025 0.05185 0.0
C25 C 0.11068 0.36854 0.01195 0.0
H26 H 0.22959 0.4225 0.01072 0.0
H27 H 0.11774 0.39531 0.08097 0.0
H28 H 0.29657 0.49862 0.0659 0.0
H29 H 0.24 0.56113 1.00574 0.0
H30 H 0.1688 0.33627 0.24101 0.0
H31 H 0.19144 0.38402 0.94018 0.0
H32 H 0.07735 0.3549 0.01353 0.0
C33 C 0.55235 0.73563 0.71731 0.0
C34 C 0.52139 0.73191 0.6875 0.0
N35 N 0.51943 0.76695 0.69085 0.0
N36 N 0.5699 0.77289 0.73894 0.0
C37 C 0.54929 0.79133 0.72196 0.0
H38 H 0.56057 0.71213 0.72416 0.0
Co39 Co 0.60738 0.78933 0.78876 0.0
C40 C 0.66554 0.87841 0.77356 0.0
O41 O 0.69557 0.87201 0.78735 0.0
N42 N 0.64374 0.80464 0.84171 0.0
C43 C 0.67183 0.83388 0.91163 0.0
C44 C 0.64976 0.8349 0.8731 0.0
C45 C 0.66131 0.78471 0.86325 0.0
N46 N 0.67892 0.8022 0.90554 0.0
O47 O 0.56551 0.78756 0.83064 0.0
H48 H 0.63722 0.85539 0.86927 0.0
H49 H 0.6591 0.75652 0.85007 0.0
O50 O 0.62805 0.84837 0.77293 0.0
C51 C 0.54588 0.75173 0.84894 0.0
O52 O 0.55823 0.72509 0.83838 0.0
N53 N 0.64602 0.78652 0.74673 0.0
C54 C 0.69054 0.76749 0.67974 0.0
C55 C 0.68456 0.8014 0.67305 0.0
C56 C 0.66128 0.80969 0.7063 0.0
C57 C 0.65035 0.75267 0.75266 0.0
C58 C 0.67344 0.7433 0.72045 0.0
H59 H 0.65376 0.83331 0.69777 0.0
H60 H 0.6334 0.73106 0.78068 0.0
H61 H 0.55463 0.82125 0.73387 0.0
H62 H 0.50162 0.70532 0.66569 0.0
H63 H 0.68034 0.85369 0.94288 0.0
H64 H 0.69662 0.82085 0.64196 0.0
H65 H 0.67594 0.71594 0.72601 0.0
C66 C 0.32393 0.82304 0.38177 0.0
C67 C 0.3338 0.79855 0.354 0.0
N68 N 0.30131 0.75997 0.3541 0.0
N69 N 0.28517 0.80014 0.39915 0.0
C70 C 0.27209 0.76161 0.38196 0.0
H71 H 0.34387 0.85549 0.38941 0.0
Co72 Co 0.26197 0.82182 0.44184 0.0
C73 C 0.17476 0.78327 0.41007 0.0
O74 O 0.17977 0.82068 0.40891 0.0
N75 N 0.24081 0.84456 0.4881 0.0
C76 C 0.20323 0.85067 0.54702 0.0
C77 C 0.20341 0.82608 0.51023 0.0
C78 C 0.26342 0.87941 0.51437 0.0
N79 N 0.24103 0.88416 0.54979 0.0
O80 O 0.26527 0.78821 0.49058 0.0
H81 H 0.17841 0.79536 0.50273 0.0
H82 H 0.29631 0.89964 0.5094 0.0
O83 O 0.20452 0.77791 0.4244 0.0
C84 C 0.30032 0.80745 0.51116 0.0
O85 O 0.32568 0.84594 0.49909 0.0
N86 N 0.2626 0.85686 0.39239 0.0
C87 C 0.27364 0.90908 0.3158 0.0
C88 C 0.25305 0.86629 0.30949 0.0
C89 C 0.24839 0.84083 0.34783 0.0
C90 C 0.28393 0.89863 0.39875 0.0
C91 C 0.28932 0.92529 0.36124 0.0
H92 H 0.23406 0.80803 0.34128 0.0
H93 H 0.29898 0.91188 0.43205 0.0
H94 H 0.24216 0.73542 0.39041 0.0
H95 H 0.36286 0.80823 0.33539 0.0
H96 H 0.17785 0.84345 0.57157 0.0
H97 H 0.24153 0.85252 0.27471 0.0
H98 H 0.30745 0.95815 0.36762 0.0
C99 C 0.50515 0.2113 0.96833 0.0
C100 C 0.5388 0.24167 0.9922 0.0
N101 N 0.54011 0.27788 0.98459 0.0
N102 N 0.48521 0.22818 0.94599 0.0
C103 C 0.50718 0.26886 0.95667 0.0
H104 H 0.49588 0.17889 0.96689 0.0
Co105 Co 0.44038 0.19832 0.90538 0.0
C106 C 0.38683 0.23437 0.9295 0.0
O107 O 0.35603 0.19667 0.93606 0.0
N108 N 0.397 0.1672 0.86165 0.0
C109 C 0.35177 0.14777 0.80168 0.0
C110 C 0.37156 0.17666 0.83728 0.0
C111 C 0.39316 0.13338 0.83857 0.0
N112 N 0.36557 0.12056 0.80255 0.0
O113 O 0.47489 0.22769 0.85227 0.0
H114 H 0.36974 0.20444 0.84188 0.0
H115 H 0.41213 0.11961 0.84633 0.0
O116 O 0.42208 0.24011 0.91449 0.0
C117 C 0.49653 0.21118 0.84001 0.0
O118 O 0.49128 0.17862 0.86353 0.0
N119 N 0.40822 0.16745 0.95882 0.0
C120 C 0.36946 0.12154 0.04071 0.0
C121 C 0.38911 0.1646 0.04169 0.0
C122 C 0.40895 0.18697 1.00082 0.0
C123 C 0.38948 0.12544 0.95746 0.0
C124 C 0.36933 0.10187 0.99763 0.0
H125 H 0.42552 0.22025 1.00324 0.0
H126 H 0.39115 0.1097 0.92587 0.0
H127 H 0.49974 0.29158 0.94354 0.0
H128 H 0.56022 0.23727 0.01391 0.0
H129 H 0.33104 0.1486 0.7754 0.0
H130 H 0.39035 0.18102 0.07434 0.0
H131 H 0.35436 0.06864 0.99467 0.0
C132 C 0.8295 0.28578 0.65607 0.0
C133 C 0.80254 0.29076 0.68569 0.0
N134 N 0.76374 0.26495 0.67084 0.0
N135 N 0.80766 0.25602 0.6235 0.0
C136 C 0.76755 0.24414 0.63314 0.0
H137 H 0.86293 0.30298 0.65811 0.0
Co138 Co 0.82969 0.23853 0.57443 0.0
C139 C 0.78606 0.14708 0.58493 0.0
O140 O 0.82099 0.14751 0.57526 0.0
N141 N 0.85242 0.22266 0.52285 0.0
C142 C 0.85706 0.19797 0.45137 0.0
C143 C 0.83086 0.1945 0.48848 0.0
C144 C 0.89147 0.24349 0.50486 0.0
N145 N 0.89521 0.22907 0.46184 0.0
O146 O 0.79625 0.24726 0.52988 0.0
H147 H 0.79762 0.17434 0.48888 0.0
H148 H 0.91632 0.27104 0.52049 0.0
O149 O 0.78508 0.1809 0.58466 0.0
C150 C 0.8159 0.28306 0.51168 0.0
O151 O 0.85492 0.30713 0.52352 0.0
N152 N 0.86472 0.2336 0.61947 0.0
C153 C 0.91945 0.24324 0.69303 0.0
C154 C 0.87796 0.21185 0.69472 0.0
C155 C 0.8509 0.20799 0.65813 0.0
C156 C 0.90466 0.26518 0.61832 0.0
C157 C 0.93272 0.27012 0.65398 0.0
H158 H 0.81838 0.1865 0.66322 0.0
H159 H 0.91388 0.28928 0.59233 0.0
H160 H 0.74171 0.22052 0.61317 0.0
H161 H 0.81073 0.31208 0.71548 0.0
H162 H 0.84819 0.18014 0.41857 0.0
H163 H 0.86593 0.19179 0.72543 0.0
H164 H 0.96345 0.29682 0.65248 0.0
C165 C 0.7311 0.52511 0.30555 0.0
C166 C 0.72852 0.49275 0.33138 0.0
N167 N 0.76507 0.49347 0.32728 0.0
N168 N 0.76912 0.54619 0.28563 0.0
C169 C 0.78911 0.52614 0.29946 0.0
H170 H 0.7068 0.53278 0.30128 0.0
Co171 Co 0.78561 0.59036 0.24429 0.0
C172 C 0.87353 0.64239 0.2763 0.0
O173 O 0.86658 0.67297 0.28594 0.0
N174 N 0.80022 0.6335 0.19996 0.0
C175 C 0.83027 0.68437 0.1469 0.0
C176 C 0.83702 0.66347 0.18284 0.0
C177 C 0.77185 0.63595 0.17221 0.0
N178 N 0.78912 0.66689 0.14045 0.0
O179 O 0.78488 0.55574 0.19298 0.0
H180 H 0.86715 0.66876 0.19317 0.0
H181 H 0.73883 0.61494 0.17481 0.0
O182 O 0.84501 0.60888 0.25756 0.0
C183 C 0.74806 0.53422 0.17726 0.0
O184 O 0.71874 0.53987 0.19633 0.0
N185 N 0.78205 0.62233 0.29562 0.0
C186 C 0.76641 0.66162 0.37226 0.0
C187 C 0.79008 0.64217 0.3787 0.0
C188 C 0.79693 0.62217 0.34015 0.0
C189 C 0.75765 0.63973 0.28948 0.0
C190 C 0.74992 0.65989 0.32703 0.0
H191 H 0.8139 0.60607 0.34629 0.0
H192 H 0.7424 0.6367 0.25601 0.0
H193 H 0.82052 0.5349 0.28891 0.0
H194 H 0.70199 0.47085 0.35191 0.0
H195 H 0.85386 0.70897 0.12558 0.0
H196 H 0.80196 0.64084 0.41335 0.0
H197 H 0.73026 0.67323 0.32094 0.0
H198 H 0.32822 0.73116 0.30924 0.0
C199 C 0.30056 0.72565 0.32897 0.0
H200 H 0.23951 0.68058 0.34796 0.0
H201 H 0.27578 0.59995 0.15207 0.0
H202 H 0.27925 0.65808 0.11032 0.0
H203 H 0.27629 0.71406 0.15458 0.0
H204 H 0.27028 0.71246 0.24078 0.0
C205 C 0.26723 0.68762 0.32765 0.0
C206 C 0.26815 0.65344 0.30026 0.0
C207 C 0.27119 0.65464 0.24958 0.0
C208 C 0.27183 0.62179 0.22389 0.0
C209 C 0.27492 0.62386 0.17339 0.0
C210 C 0.2769 0.65706 0.14891 0.0
C211 C 0.27534 0.68861 0.17384 0.0
C212 C 0.27227 0.68747 0.22349 0.0
H213 H 0.19802 0.51794 0.23937 0.0
C214 C 0.22241 0.51745 0.21801 0.0
H215 H 0.28505 0.55186 0.19677 0.0
H216 H 0.26349 0.64183 0.39694 0.0
H217 H 0.25931 0.58312 0.4384 0.0
H218 H 0.2595 0.52593 0.39362 0.0
H219 H 0.26399 0.52714 0.30695 0.0
C220 C 0.26096 0.54975 0.22086 0.0
C221 C 0.26789 0.58705 0.24862 0.0
C222 C 0.26557 0.58616 0.2992 0.0
C223 C 0.26561 0.61928 0.32501 0.0
C224 C 0.26333 0.61746 0.37552 0.0
C225 C 0.26101 0.58397 0.39978 0.0
C226 C 0.26108 0.55175 0.37456 0.0
C227 C 0.26342 0.5527 0.32486 0.0
H228 H 0.49619 0.75968 0.88388 0.0
C229 C 0.5081 0.7386 0.87832 0.0
H230 H 0.49986 0.67932 0.89133 0.0
H231 H 0.37952 0.62872 0.06612 0.0
H232 H 0.44447 0.65471 0.10861 0.0
H233 H 0.51143 0.69381 0.06644 0.0
H234 H 0.51377 0.70769 0.98157 0.0
C235 C 0.4874 0.70004 0.89591 0.0
C236 C 0.44743 0.68315 0.9225 0.0
C237 C 0.44645 0.67486 0.9719 0.0
C238 C 0.40784 0.65142 0.99596 0.0
C239 C 0.40793 0.64497 0.04569 0.0
C240 C 0.44501 0.66005 0.07061 0.0
C241 C 0.48271 0.68212 0.04689 0.0
C242 C 0.48362 0.68967 0.99815 0.0
H243 H 0.34578 0.56106 0.00853 0.0
C244 C 0.32147 0.56926 0.00975 0.0
H245 H 0.30593 0.61527 0.99447 0.0
H246 H 0.43807 0.69567 0.82819 0.0
H247 H 0.37329 0.67121 0.78614 0.0
H248 H 0.30632 0.63028 0.82758 0.0
H249 H 0.30375 0.61327 0.91128 0.0
C250 C 0.32968 0.60642 0.99341 0.0
C251 C 0.37017 0.63522 0.97017 0.0
C252 C 0.3711 0.64576 0.92141 0.0
C253 C 0.40977 0.66963 0.8975 0.0
C254 C 0.40972 0.67817 0.84833 0.0
C255 C 0.3727 0.66424 0.82366 0.0
C256 C 0.335 0.64117 0.847 0.0
C257 C 0.334 0.63174 0.89517 0.0
H258 H 0.29826 0.7523 0.54321 0.0
C259 C 0.3155 0.78577 0.5418 0.0
H260 H 0.37008 0.84036 0.56075 0.0
H261 H 0.39553 0.71959 0.70939 0.0
H262 H 0.33226 0.70825 0.74896 0.0
H263 H 0.28836 0.73326 0.71329 0.0
H264 H 0.30724 0.7695 0.6377 0.0
C265 C 0.35258 0.80693 0.56339 0.0
C266 C 0.37534 0.78691 0.58284 0.0
C267 C 0.36365 0.76563 0.62688 0.0
C268 C 0.38925 0.7516 0.64773 0.0
C269 C 0.37721 0.73085 0.69202 0.0
C270 C 0.34103 0.7242 0.71512 0.0
C271 C 0.31629 0.73827 0.69501 0.0
C272 C 0.32741 0.75892 0.65153 0.0
H273 H 0.49879 0.80912 0.6667 0.0
C274 C 0.49113 0.77698 0.66773 0.0
H275 H 0.44547 0.71547 0.65161 0.0
H276 H 0.40455 0.82302 0.49572 0.0
H277 H 0.46697 0.833 0.4556 0.0
H278 H 0.51128 0.80877 0.4919 0.0
H279 H 0.49341 0.77446 0.56858 0.0
C280 C 0.45518 0.74797 0.64858 0.0
C281 C 0.4267 0.75949 0.62486 0.0
C282 C 0.43735 0.77906 0.57977 0.0
C283 C 0.41172 0.79286 0.55882 0.0
C284 C 0.42314 0.81235 0.51367 0.0
C285 C 0.4588 0.8181 0.49008 0.0
C286 C 0.48373 0.80446 0.51051 0.0
C287 C 0.47323 0.78502 0.55471 0.0
H288 H 0.52855 0.25156 0.77784 0.0
C289 C 0.52763 0.22802 0.8011 0.0
H290 H 0.55295 0.19015 0.81799 0.0
H291 H 0.63938 0.17588 0.6396 0.0
H292 H 0.57692 0.10907 0.63907 0.0
H293 H 0.5172 0.09568 0.69039 0.0
H294 H 0.51988 0.14905 0.74303 0.0
C295 C 0.55473 0.21422 0.79491 0.0
C296 C 0.58557 0.22681 0.75526 0.0
C297 C 0.58299 0.19597 0.72314 0.0
C298 C 0.61706 0.20401 0.69273 0.0
C299 C 0.61428 0.17182 0.66293 0.0
C300 C 0.57856 0.13322 0.66228 0.0
C301 C 0.54497 0.12566 0.69122 0.0
C302 C 0.547 0.15649 0.72142 0.0
H303 H 0.72777 0.26749 0.73116 0.0
C304 C 0.72669 0.26028 0.69328 0.0
H305 H 0.69056 0.24265 0.6308 0.0
H306 H 0.6006 0.29402 0.81073 0.0
H307 H 0.65975 0.36281 0.80481 0.0
H308 H 0.7153 0.37852 0.74575 0.0
H309 H 0.71248 0.32494 0.69327 0.0
C310 C 0.69172 0.24925 0.66879 0.0
C311 C 0.65339 0.24326 0.69378 0.0
C312 C 0.65389 0.27555 0.72165 0.0
C313 C 0.62059 0.26703 0.75365 0.0
C314 C 0.62395 0.29897 0.7843 0.0
C315 C 0.65792 0.33867 0.78142 0.0
C316 C 0.68928 0.34749 0.74831 0.0
C317 C 0.68746 0.31642 0.7187 0.0
H318 H 0.81046 0.4764 0.35022 0.0
C319 C 0.7776 0.46672 0.3493 0.0
H320 H 0.71711 0.41892 0.36658 0.0
H321 H 0.78589 0.29246 0.38508 0.0
H322 H 0.7532 0.27207 0.30738 0.0
H323 H 0.72481 0.31179 0.26867 0.0
H324 H 0.72929 0.37242 0.30733 0.0
C325 C 0.7502 0.43047 0.36895 0.0
C326 C 0.76441 0.40474 0.39389 0.0
C327 C 0.76049 0.36875 0.37151 0.0
C328 C 0.77631 0.34547 0.39419 0.0
C329 C 0.77365 0.31075 0.37001 0.0
C330 C 0.7551 0.29881 0.32527 0.0
C331 C 0.73915 0.32119 0.30345 0.0
C332 C 0.74187 0.35588 0.32604 0.0
H333 H 0.76118 0.2811 0.47777 0.0
C334 C 0.79464 0.29913 0.48166 0.0
H335 H 0.84919 0.35522 0.46711 0.0
H336 H 0.7726 0.4695 0.44882 0.0
H337 H 0.80361 0.48903 0.52738 0.0
H338 H 0.83082 0.44867 0.56695 0.0
H339 H 0.8271 0.38853 0.52825 0.0
C340 C 0.81587 0.33681 0.46202 0.0
C341 C 0.79527 0.3579 0.43965 0.0
C342 C 0.7977 0.39304 0.46279 0.0
C343 C 0.78217 0.41641 0.43996 0.0
C344 C 0.78452 0.45102 0.46418 0.0
C345 C 0.80207 0.46247 0.50942 0.0
C346 C 0.81738 0.43976 0.53169 0.0
C347 C 0.81522 0.40538 0.50893 0.0
H348 H 0.55994 0.34121 1.00651 0.0
C349 C 0.56921 0.31782 1.00377 0.0
H350 H 0.61688 0.30376 0.01531 0.0
H351 H 0.70304 0.50931 0.04316 0.0
H352 H 0.68721 0.51081 0.95942 0.0
H353 H 0.64934 0.44627 0.91287 0.0
H354 H 0.62648 0.37988 0.94985 0.0
C355 C 0.60721 0.32674 0.01859 0.0
C356 C 0.63547 0.36618 0.04383 0.0
C357 C 0.64988 0.40477 0.02111 0.0
C358 C 0.6727 0.44205 0.04759 0.0
C359 C 0.68561 0.48012 0.02458 0.0
C360 C 0.67692 0.48141 0.97654 0.0
C361 C 0.65554 0.44507 0.95035 0.0
C362 C 0.64226 0.40713 0.97212 0.0
H363 H 0.75993 0.49217 0.13124 0.0
C364 C 0.73689 0.50057 0.14206 0.0
H365 H 0.67483 0.48755 0.1362 0.0
H366 H 0.61709 0.2977 0.09691 0.0
H367 H 0.63691 0.2968 0.17882 0.0
H368 H 0.67753 0.36157 0.22407 0.0
H369 H 0.69856 0.42764 0.18759 0.0
C370 C 0.69764 0.47861 0.12619 0.0
C371 C 0.68223 0.44079 0.09618 0.0
C372 C 0.67082 0.40242 0.11779 0.0
C373 C 0.64743 0.36505 0.09159 0.0
C374 C 0.63529 0.3271 0.1147 0.0
C375 C 0.64633 0.32609 0.16187 0.0
C376 C 0.66917 0.36255 0.18736 0.0
C377 C 0.68111 0.40032 0.16589 0.0
H378 H 0.93056 0.23977 0.76986 0.0
C379 C 0.94599 0.25117 0.73564 0.0
H380 H 1.00418 0.2858 0.70123 0.0
H381 H 0.08294 0.40463 0.87845 0.0
H382 H 0.07774 0.45009 0.82117 0.0
H383 H 0.04196 0.42306 0.74439 0.0
H384 H 1.01137 0.35053 0.72432 0.0
C385 C 0.98759 0.2742 0.73467 0.0
C386 C 1.01137 0.29031 0.77971 0.0
C387 C 0.02919 0.33291 0.79073 0.0
C388 C 0.04933 0.34841 0.83521 0.0
C389 C 0.06686 0.39109 0.84538 0.0
C390 C 0.06418 0.41758 0.81278 0.0
C391 C 0.04409 0.40238 0.76954 0.0
C392 C 0.0267 0.3606 0.75846 0.0
H393 H 0.12504 0.33627 0.89991 0.0
C394 C 0.10866 0.34439 0.92648 0.0
H395 H 0.05436 0.34819 0.93965 0.0
H396 H 0.98479 0.20817 0.76726 0.0
H397 H 0.98951 0.16252 0.8249 0.0
H398 H 1.02199 0.18888 0.90345 0.0
H399 H 0.05035 0.26109 0.92468 0.0
C400 C 0.07052 0.33763 0.916 0.0
C401 C 0.05162 0.32133 0.86854 0.0
C402 C 0.03468 0.27892 0.85711 0.0
C403 C 1.0149 0.26347 0.81236 0.0
C404 C 0.99913 0.22123 0.80126 0.0
C405 C 1.00183 0.19477 0.83392 0.0
C406 C 1.02021 0.20963 0.87811 0.0
C407 C 0.03647 0.25118 0.88979 0.0
H408 H 0.7289 0.6856 0.40712 0.0
C409 C 0.75527 0.68088 0.4122 0.0
H410 H 0.80362 0.69124 0.45991 0.0
H411 H 0.78221 0.82742 0.57543 0.0
H412 H 0.84758 0.87022 0.53452 0.0
H413 H 0.87395 0.84029 0.47401 0.0
H414 H 0.83522 0.76733 0.45413 0.0
C415 C 0.77554 0.69268 0.45401 0.0
C416 C 0.76094 0.71016 0.49266 0.0
C417 C 0.78406 0.75275 0.504 0.0
C418 C 0.7687 0.77007 0.53861 0.0
C419 C 0.79235 0.81275 0.5492 0.0
C420 C 0.82992 0.83764 0.52602 0.0
C421 C 0.84478 0.82078 0.49197 0.0
C422 C 0.82225 0.77887 0.4809 0.0
H423 H 0.72246 0.73374 0.65554 0.0
C424 C 0.71165 0.75451 0.6439 0.0
H425 H 0.70267 0.78291 0.58339 0.0
H426 H 0.71163 0.62638 0.48381 0.0
H427 H 0.64544 0.58389 0.52296 0.0
H428 H 0.61648 0.61465 0.57897 0.0
H429 H 0.65383 0.68784 0.59678 0.0
C430 C 0.71389 0.7632 0.5971 0.0
C431 C 0.73033 0.74472 0.56186 0.0
C432 C 0.70727 0.702 0.55069 0.0
C433 C 0.72306 0.68456 0.51682 0.0
C434 C 0.70037 0.64151 0.50792 0.0
C435 C 0.66243 0.6167 0.53037 0.0
C436 C 0.64621 0.63399 0.56202 0.0
C437 C 0.66816 0.67609 0.57215 0.0
H438 H 0.34497 0.11476 0.11449 0.0
C439 C 0.35102 0.09867 0.08563 0.0
H440 H 0.35223 0.04392 0.06732 0.0
H441 H 0.3696 0.02465 0.29326 0.0
H442 H 0.44181 0.07465 0.27845 0.0
H443 H 0.46424 0.10997 0.20089 0.0
H444 H 0.41456 0.09548 0.13765 0.0
C445 C 0.34496 0.06069 0.09397 0.0
C446 C 0.33101 0.0414 0.14158 0.0
C447 C 0.36043 0.05054 0.17825 0.0
C448 C 0.34749 0.03016 0.22292 0.0
C449 C 0.37763 0.03934 0.25869 0.0
C450 C 0.41923 0.06797 0.25066 0.0
C451 C 0.43185 0.08786 0.207 0.0
C452 C 0.40298 0.07929 0.17104 0.0
H453 H 0.27801 0.92097 0.2383 0.0
C454 C 0.28142 0.93537 0.27323 0.0
H455 H 0.29673 0.99157 0.30884 0.0
H456 H 0.26684 0.01853 0.07939 0.0
H457 H 0.1941 0.97023 0.095 0.0
H458 H 0.17132 0.93619 0.17326 0.0
H459 H 0.22113 0.95 0.23627 0.0
C460 C 0.29302 0.97566 0.27505 0.0
C461 C 0.30526 1.00046 0.23056 0.0
C462 C 0.27558 0.99276 0.19461 0.0
C463 C 0.28857 0.01296 0.14984 0.0
C464 C 0.25852 1.00414 0.11413 0.0
C465 C 0.21671 0.97654 0.12264 0.0
C466 C 0.20389 0.95733 0.16669 0.0
C467 C 0.23282 0.9653 0.20243 0.0
H468 H 0.39173 0.29569 0.91856 0.0
C469 C 0.38021 0.26936 0.9422 0.0
H470 H 0.34698 0.23993 1.00418 0.0
H471 H 0.35436 0.42196 0.02859 0.0
H472 H 0.42935 0.45456 0.02397 0.0
H473 H 0.46345 0.41353 1.00648 0.0
H474 H 0.42283 0.3398 0.99225 0.0
C475 C 0.3573 0.26661 0.98118 0.0
C476 C 0.33818 0.29318 0.99077 0.0
C477 C 0.36244 0.33604 1.00102 0.0
C478 C 0.34274 0.3595 0.01356 0.0
C479 C 0.36767 0.40251 0.02081 0.0
C480 C 0.41074 0.42163 0.01803 0.0
C481 C 0.42995 0.39854 1.00802 0.0
C482 C 0.40625 0.35623 0.99966 0.0
H483 H 0.30272 0.38725 0.09738 0.0
C484 C 0.27892 0.38196 0.07156 0.0
H485 H 0.25212 0.35849 1.00483 0.0
H486 H 0.28171 0.21256 0.96962 0.0
H487 H 0.2073 0.17927 0.97906 0.0
H488 H 0.1738 0.21822 1.00824 0.0
H489 H 0.21445 0.29076 0.02735 0.0
C490 C 0.2767 0.3632 0.02932 0.0
C491 C 0.29891 0.33973 0.01824 0.0
C492 C 0.2748 0.29669 0.00889 0.0
C493 C 0.29428 0.27376 0.99412 0.0
C494 C 0.26893 0.2313 0.98277 0.0
C495 C 0.22601 0.21173 0.9877 0.0
C496 C 0.20716 0.23368 1.00394 0.0
C497 C 0.23102 0.27555 0.01446 0.0
H498 H 0.72274 0.11035 0.61563 0.0
C499 C 0.75057 0.10943 0.60538 0.0
H500 H 0.78124 0.0746 0.6049 0.0
H501 H 0.66383 0.98097 0.78877 0.0
H502 H 0.69806 0.04766 0.82886 0.0
H503 H 0.74411 0.11096 0.78423 0.0
H504 H 0.75563 0.10823 0.69937 0.0
C505 C 0.75371 0.07587 0.61568 0.0
C506 C 0.72112 0.03922 0.64195 0.0
C507 C 0.71528 0.04138 0.6919 0.0
C508 C 0.69006 1.00462 0.71817 0.0
C509 C 0.68384 1.00778 0.76763 0.0
C510 C 0.70308 0.04585 0.79097 0.0
C511 C 0.7289 0.0815 0.76581 0.0
C512 C 0.73513 0.07948 0.71693 0.0
H513 H 0.70979 0.94295 0.75708 0.0
C514 C 0.67763 0.91905 0.75252 0.0
H515 H 0.62195 0.9023 0.71615 0.0
H516 H 0.7213 0.02466 0.54631 0.0
H517 H 0.68686 0.95793 0.50637 0.0
H518 H 0.64539 0.8941 0.55218 0.0
H519 H 0.63785 0.89646 0.63803 0.0
C520 C 0.65344 0.92653 0.72354 0.0
C521 C 0.67205 0.96554 0.695 0.0
C522 C 0.67564 0.96367 0.64464 0.0
C523 C 0.7001 1.0005 0.6182 0.0
C524 C 0.70359 0.9976 0.56809 0.0
C525 C 0.68388 0.95954 0.54472 0.0
C526 C 0.66049 0.92361 0.57052 0.0
C527 C 0.6564 0.92543 0.61987 0.0
H528 H 0.11996 0.72053 0.41808 0.0
C529 C 0.13373 0.74832 0.39667 0.0
H530 H 0.12714 0.78181 0.34109 0.0
H531 H 0.94937 0.60394 0.31693 0.0
H532 H 0.99013 0.56984 0.30676 0.0
H533 H 0.06603 0.60826 0.31717 0.0
H534 H 0.10156 0.6808 0.33908 0.0
C535 C 0.11192 0.75357 0.36185 0.0
C536 C 0.06582 0.72845 0.35668 0.0
C537 C 0.04571 0.68648 0.34191 0.0
C538 C 1.00202 0.66477 0.33342 0.0
C539 C 0.98253 0.62231 0.32168 0.0
C540 C 1.00555 0.6023 0.31606 0.0
C541 C 0.04828 0.62391 0.32208 0.0
C542 C 0.0683 0.66551 0.33485 0.0
H543 H 0.93259 0.64417 0.25754 0.0
C544 C 0.91519 0.64839 0.2863 0.0
H545 H 0.91415 0.66757 0.35658 0.0
H546 H 0.09313 0.80717 0.3899 0.0
H547 H 0.05335 0.84229 0.39599 0.0
H548 H 0.97959 0.80712 0.37341 0.0
H549 H 0.94509 0.73653 0.34551 0.0
C550 C 0.93301 0.66425 0.32881 0.0
C551 C 0.97886 0.68567 0.3372 0.0
C552 C 0.99918 0.72777 0.3517 0.0
C553 C 0.04223 0.74872 0.36256 0.0
C554 C 0.06095 0.7901 0.37931 0.0
C555 C 0.03841 0.81067 0.38332 0.0
C556 C 0.99688 0.79084 0.3708 0.0
C557 C 0.97738 0.75001 0.35513 0.0
H558 H 0.96122 0.27021 0.44921 0.0
C559 C 0.93238 0.24725 0.43284 0.0
H560 H 0.90443 0.21552 0.36874 0.0
H561 H 0.08148 0.38085 0.29949 0.0
H562 H 0.0514 0.42114 0.33013 0.0
H563 H 0.98353 0.38756 0.3711 0.0
H564 H 0.94584 0.31359 0.3827 0.0
C565 C 0.93256 0.23857 0.38604 0.0
C566 C 0.97154 0.25875 0.35684 0.0
C567 C 0.99222 0.30186 0.34812 0.0
C568 C 0.0303 0.32097 0.32202 0.0
C569 C 0.05158 0.36441 0.31692 0.0
C570 C 0.0348 0.38801 0.33468 0.0
C571 C 0.99668 0.36913 0.35793 0.0
C572 C 0.9755 0.32661 0.36465 0.0
H573 H 0.06386 0.33648 0.21856 0.0
C574 C 0.0902 0.33463 0.23223 0.0
H575 H 0.11186 0.31329 0.28871 0.0
H576 H 0.93985 0.17556 0.36622 0.0
H577 H 0.96821 0.13473 0.33226 0.0
H578 H 0.03222 0.16723 0.28371 0.0
H579 H 0.06844 0.24082 0.26906 0.0
C580 C 0.08634 0.31613 0.27454 0.0
C581 C 0.04654 0.29665 0.30226 0.0
C582 C 0.02533 0.25345 0.31006 0.0
C583 C 0.98797 0.23455 0.33745 0.0
C584 C 0.96799 0.19146 0.34523 0.0
C585 C 0.98396 0.16763 0.326 0.0
C586 C 1.02003 0.18594 0.29872 0.0
C587 C 0.04058 0.22828 0.2907 0.0
H588 H 0.70905 0.80677 0.97351 0.0
C589 C 0.69794 0.78889 0.94064 0.0
H590 H 0.69237 0.73716 0.90235 0.0
H591 H 0.83505 0.72959 0.01584 0.0
H592 H 0.86717 0.75228 0.93809 0.0
H593 H 0.83338 0.77116 0.87556 0.0
H594 H 0.76702 0.76711 0.89029 0.0
C595 C 0.70182 0.75508 0.93516 0.0
C596 C 0.72154 0.74266 0.97294 0.0
C597 C 0.76044 0.74537 0.96395 0.0
C598 C 0.78029 0.73521 1.00041 0.0
C599 C 0.81886 0.73763 0.98994 0.0
C600 C 0.83763 0.75049 0.94533 0.0
C601 C 0.81859 0.76106 0.91011 0.0
C602 C 0.78045 0.75857 0.91906 0.0
H603 H 0.73594 0.65236 0.09535 0.0
C604 C 0.76717 0.67609 0.10481 0.0
H605 H 0.81456 0.73736 0.09378 0.0
H606 H 0.64432 0.72793 0.99982 0.0
H607 H 0.61329 0.70831 0.07859 0.0
H608 H 0.65075 0.69776 0.1443 0.0
H609 H 0.71884 0.70564 0.13134 0.0
C610 C 0.7835 0.71343 0.08433 0.0
C611 C 0.76148 0.72276 0.04615 0.0
C612 C 0.7226 0.72035 0.05523 0.0
C613 C 0.70206 0.72899 0.01813 0.0
C614 C 0.66209 0.7236 0.02725 0.0
C615 C 0.64379 0.7121 0.07224 0.0
C616 C 0.6648 0.70597 0.10916 0.0
C617 C 0.70378 0.71018 0.10104 0.0
H618 H 0.37605 0.07246 0.77169 0.0
C619 C 0.35735 0.08739 0.76941 0.0
H620 H 0.30891 0.08908 0.73245 0.0
H621 H 0.31873 1.00967 0.53845 0.0
H622 H 0.34488 0.08079 0.51555 0.0
H623 H 0.36097 0.13481 0.57646 0.0
H624 H 0.35072 0.11803 0.66067 0.0
C625 C 0.32749 0.07422 0.73594 0.0
C626 C 0.32082 0.04156 0.69987 0.0
C627 C 0.32757 0.05186 0.65068 0.0
C628 C 0.31897 0.02076 0.61551 0.0
C629 C 0.32522 0.03202 0.56671 0.0
C630 C 0.34018 0.07276 0.55302 0.0
C631 C 0.34918 0.10317 0.5873 0.0
C632 C 0.34302 0.09305 0.63556 0.0
H633 H 0.2298 0.91483 0.61008 0.0
C634 C 0.25352 0.91596 0.58602 0.0
H635 H 0.31723 0.94913 0.56798 0.0
H636 H 0.30121 1.0099 0.79037 0.0
H637 H 0.27934 0.9397 0.81355 0.0
H638 H 0.27046 0.88731 0.75326 0.0
H639 H 0.28248 0.90462 0.66926 0.0
C640 C 0.29293 0.94649 0.59195 0.0
C641 C 0.30391 0.97927 0.6294 0.0
C642 C 0.29884 0.96925 0.67873 0.0
C643 C 0.3062 1.00011 0.71385 0.0
C644 C 0.298 0.98835 0.7624 0.0
C645 C 0.28513 0.94802 0.77621 0.0
C646 C 0.27996 0.91848 0.74225 0.0
C647 C 0.28668 0.92878 0.69407 0.0
loop_
_geom_bond_atom_site_label_1
_geom_bond_atom_site_label_2
_geom_bond_distance
_geom_bond_site_symmetry_2
_ccdc_geom_bond_type
C0 C1 1.351 1_554 S
C0 N3 1.368 . S
C0 H5 0.931 . S
C1 C0 1.351 1_556 S
C1 N2 1.373 . S
C1 H29 0.930 . S
N2 C1 1.373 . S
N2 C4 1.340 . S
N3 C0 1.368 . S
N3 C4 1.321 1_554 S
N3 Co6 2.135 . S
C4 N2 1.340 . S
C4 N3 1.321 1_556 S
C4 H28 0.930 . S
H5 C0 0.931 . S
Co6 N3 2.135 . S
Co6 N9 2.121 . S
Co6 O14 2.055 . S
Co6 O17 2.039 . S
Co6 N20 2.140 . S
C7 O8 1.227 . S
C7 O17 1.265 . S
O8 C7 1.227 . S
N9 Co6 2.121 . S
N9 C11 1.375 . S
N9 C12 1.313 . S
C10 C11 1.338 . S
C10 N13 1.377 . S
C10 H30 0.930 . S
C11 N9 1.375 . S
C11 C10 1.338 . S
C11 H15 0.931 . S
C12 N9 1.313 . S
C12 N13 1.344 . S
C12 H16 0.930 . S
N13 C10 1.377 . S
N13 C12 1.344 . S
O14 Co6 2.055 . S
O14 C18 1.253 . S
H15 C11 0.931 . S
H16 C12 0.930 . S
O17 Co6 2.039 . S
O17 C7 1.265 . S
C18 O14 1.253 . S
C18 O19 1.227 . S
O19 C18 1.227 . S
N20 Co6 2.140 . S
N20 C23 1.346 1_554 S
N20 C24 1.345 . S
C21 C22 1.387 . S
C21 C25 1.391 . S
C22 C21 1.387 . S
C22 C23 1.369 . S
C22 H31 0.929 . S
C23 N20 1.346 1_556 S
C23 C22 1.369 . S
C23 H26 0.928 . S
C24 N20 1.345 . S
C24 C25 1.371 1_554 S
C24 H27 0.931 . S
C25 C21 1.391 . S
C25 C24 1.371 1_556 S
C25 H32 0.930 1_556 S
H26 C23 0.928 . S
H27 C24 0.931 . S
H28 C4 0.930 . S
H29 C1 0.930 . S
H30 C10 0.930 . S
H31 C22 0.929 . S
H32 C25 0.930 1_554 S
C33 C34 1.351 . S
C33 N36 1.368 . S
C33 H38 0.931 . S
C34 C33 1.351 . S
C34 N35 1.373 . S
C34 H62 0.930 . S
N35 C34 1.373 . S
N35 C37 1.340 . S
N36 C33 1.368 . S
N36 C37 1.321 . S
N36 Co39 2.135 . S
C37 N35 1.340 . S
C37 N36 1.321 . S
C37 H61 0.930 . S
H38 C33 0.931 . S
Co39 N36 2.135 . S
Co39 N42 2.121 . S
Co39 O47 2.055 . S
Co39 O50 2.039 . S
Co39 N53 2.140 . S
C40 O41 1.227 . S
C40 O50 1.265 . S
O41 C40 1.227 . S
N42 Co39 2.121 . S
N42 C44 1.375 . S
N42 C45 1.313 . S
C43 C44 1.338 . S
C43 N46 1.377 . S
C43 H63 0.930 . S
C44 N42 1.375 . S
C44 C43 1.338 . S
C44 H48 0.931 . S
C45 N42 1.313 . S
C45 N46 1.344 . S
C45 H49 0.930 . S
N46 C43 1.377 . S
N46 C45 1.344 . S
O47 Co39 2.055 . S
O47 C51 1.253 . S
H48 C44 0.931 . S
H49 C45 0.930 . S
O50 Co39 2.039 . S
O50 C40 1.265 . S
C51 O47 1.253 . S
C51 O52 1.227 . S
O52 C51 1.227 . S
N53 Co39 2.140 . S
N53 C56 1.346 . S
N53 C57 1.345 . S
C54 C55 1.387 . S
C54 C58 1.391 . S
C55 C54 1.387 . S
C55 C56 1.369 . S
C55 H64 0.929 . S
C56 N53 1.346 . S
C56 C55 1.369 . S
C56 H59 0.928 . S
C57 N53 1.345 . S
C57 C58 1.371 . S
C57 H60 0.931 . S
C58 C54 1.391 . S
C58 C57 1.371 . S
C58 H65 0.930 . S
H59 C56 0.928 . S
H60 C57 0.931 . S
H61 C37 0.930 . S
H62 C34 0.930 . S
H63 C43 0.930 . S
H64 C55 0.929 . S
H65 C58 0.930 . S
C66 C67 1.351 . S
C66 N69 1.368 . S
C66 H71 0.931 . S
C67 C66 1.351 . S
C67 N68 1.373 . S
C67 H95 0.930 . S
N68 C67 1.373 . S
N68 C70 1.340 . S
N69 C66 1.368 . S
N69 C70 1.321 . S
N69 Co72 2.135 . S
C70 N68 1.340 . S
C70 N69 1.321 . S
C70 H94 0.930 . S
H71 C66 0.931 . S
Co72 N69 2.135 . S
Co72 N75 2.121 . S
Co72 O80 2.055 . S
Co72 O83 2.039 . S
Co72 N86 2.140 . S
C73 O74 1.227 . S
C73 O83 1.265 . S
O74 C73 1.227 . S
N75 Co72 2.121 . S
N75 C77 1.375 . S
N75 C78 1.313 . S
C76 C77 1.338 . S
C76 N79 1.377 . S
C76 H96 0.930 . S
C77 N75 1.375 . S
C77 C76 1.338 . S
C77 H81 0.931 . S
C78 N75 1.313 . S
C78 N79 1.344 . S
C78 H82 0.930 . S
N79 C76 1.377 . S
N79 C78 1.344 . S
O80 Co72 2.055 . S
O80 C84 1.253 . S
H81 C77 0.931 . S
H82 C78 0.930 . S
O83 Co72 2.039 . S
O83 C73 1.265 . S
C84 O80 1.253 . S
C84 O85 1.227 . S
O85 C84 1.227 . S
N86 Co72 2.140 . S
N86 C89 1.346 . S
N86 C90 1.345 . S
C87 C88 1.387 . S
C87 C91 1.391 . S
C88 C87 1.387 . S
C88 C89 1.369 . S
C88 H97 0.929 . S
C89 N86 1.346 . S
C89 C88 1.369 . S
C89 H92 0.928 . S
C90 N86 1.345 . S
C90 C91 1.371 . S
C90 H93 0.931 . S
C91 C87 1.391 . S
C91 C90 1.371 . S
C91 H98 0.930 . S
H92 C89 0.928 . S
H93 C90 0.931 . S
H94 C70 0.930 . S
H95 C67 0.930 . S
H96 C76 0.930 . S
H97 C88 0.929 . S
H98 C91 0.930 . S
C99 C100 1.351 1_556 S
C99 N102 1.368 . S
C99 H104 0.931 . S
C100 C99 1.351 1_554 S
C100 N101 1.373 . S
C100 H128 0.930 . S
N101 C100 1.373 . S
N101 C103 1.340 . S
N102 C99 1.368 . S
N102 C103 1.321 1_556 S
N102 Co105 2.135 . S
C103 N101 1.340 . S
C103 N102 1.321 1_554 S
C103 H127 0.930 . S
H104 C99 0.931 . S
Co105 N102 2.135 . S
Co105 N108 2.121 . S
Co105 O113 2.055 . S
Co105 O116 2.039 . S
Co105 N119 2.140 . S
C106 O107 1.227 . S
C106 O116 1.265 . S
O107 C106 1.227 . S
N108 Co105 2.121 . S
N108 C110 1.375 . S
N108 C111 1.313 . S
C109 C110 1.338 . S
C109 N112 1.377 . S
C109 H129 0.930 . S
C110 N108 1.375 . S
C110 C109 1.338 . S
C110 H114 0.931 . S
C111 N108 1.313 . S
C111 N112 1.344 . S
C111 H115 0.930 . S
N112 C109 1.377 . S
N112 C111 1.344 . S
O113 Co105 2.055 . S
O113 C117 1.253 . S
H114 C110 0.931 . S
H115 C111 0.930 . S
O116 Co105 2.039 . S
O116 C106 1.265 . S
C117 O113 1.253 . S
C117 O118 1.227 . S
O118 C117 1.227 . S
N119 Co105 2.140 . S
N119 C122 1.346 1_556 S
N119 C123 1.345 . S
C120 C121 1.387 . S
C120 C124 1.391 . S
C121 C120 1.387 . S
C121 C122 1.369 . S
C121 H130 0.929 . S
C122 N119 1.346 1_554 S
C122 C121 1.369 . S
C122 H125 0.928 . S
C123 N119 1.345 . S
C123 C124 1.371 1_556 S
C123 H126 0.931 . S
C124 C120 1.391 . S
C124 C123 1.371 1_554 S
C124 H131 0.930 1_554 S
H125 C122 0.928 . S
H126 C123 0.931 . S
H127 C103 0.930 . S
H128 C100 0.930 . S
H129 C109 0.930 . S
H130 C121 0.929 . S
H131 C124 0.930 1_556 S
C132 C133 1.351 . S
C132 N135 1.368 . S
C132 H137 0.931 . S
C133 C132 1.351 . S
C133 N134 1.373 . S
C133 H161 0.930 . S
N134 C133 1.373 . S
N134 C136 1.340 . S
N135 C132 1.368 . S
N135 C136 1.321 . S
N135 Co138 2.135 . S
C136 N134 1.340 . S
C136 N135 1.321 . S
C136 H160 0.930 . S
H137 C132 0.931 . S
Co138 N135 2.135 . S
Co138 N141 2.121 . S
Co138 O146 2.055 . S
Co138 O149 2.039 . S
Co138 N152 2.140 . S
C139 O140 1.227 . S
C139 O149 1.265 . S
O140 C139 1.227 . S
N141 Co138 2.121 . S
N141 C143 1.375 . S
N141 C144 1.313 . S
C142 C143 1.338 . S
C142 N145 1.377 . S
C142 H162 0.930 . S
C143 N141 1.375 . S
C143 C142 1.338 . S
C143 H147 0.931 . S
C144 N141 1.313 . S
C144 N145 1.344 . S
C144 H148 0.930 . S
N145 C142 1.377 . S
N145 C144 1.344 . S
O146 Co138 2.055 . S
O146 C150 1.253 . S
H147 C143 0.931 . S
H148 C144 0.930 . S
O149 Co138 2.039 . S
O149 C139 1.265 . S
C150 O146 1.253 . S
C150 O151 1.227 . S
O151 C150 1.227 . S
N152 Co138 2.140 . S
N152 C155 1.346 . S
N152 C156 1.345 . S
C153 C154 1.387 . S
C153 C157 1.391 . S
C154 C153 1.387 . S
C154 C155 1.369 . S
C154 H163 0.929 . S
C155 N152 1.346 . S
C155 C154 1.369 . S
C155 H158 0.928 . S
C156 N152 1.345 . S
C156 C157 1.371 . S
C156 H159 0.931 . S
C157 C153 1.391 . S
C157 C156 1.371 . S
C157 H164 0.930 . S
H158 C155 0.928 . S
H159 C156 0.931 . S
H160 C136 0.930 . S
H161 C133 0.930 . S
H162 C142 0.930 . S
H163 C154 0.929 . S
H164 C157 0.930 . S
C165 C166 1.351 . S
C165 N168 1.368 . S
C165 H170 0.931 . S
C166 C165 1.351 . S
C166 N167 1.373 . S
C166 H194 0.930 . S
N167 C166 1.373 . S
N167 C169 1.340 . S
N168 C165 1.368 . S
N168 C169 1.321 . S
N168 Co171 2.135 . S
C169 N167 1.340 . S
C169 N168 1.321 . S
C169 H193 0.930 . S
H170 C165 0.931 . S
Co171 N168 2.135 . S
Co171 N174 2.121 . S
Co171 O179 2.055 . S
Co171 O182 2.039 . S
Co171 N185 2.140 . S
C172 O173 1.227 . S
C172 O182 1.265 . S
O173 C172 1.227 . S
N174 Co171 2.121 . S
N174 C176 1.375 . S
N174 C177 1.313 . S
C175 C176 1.338 . S
C175 N178 1.377 . S
C175 H195 0.930 . S
C176 N174 1.375 . S
C176 C175 1.338 . S
C176 H180 0.931 . S
C177 N174 1.313 . S
C177 N178 1.344 . S
C177 H181 0.930 . S
N178 C175 1.377 . S
N178 C177 1.344 . S
O179 Co171 2.055 . S
O179 C183 1.253 . S
H180 C176 0.931 . S
H181 C177 0.930 . S
O182 Co171 2.039 . S
O182 C172 1.265 . S
C183 O179 1.253 . S
C183 O184 1.227 . S
O184 C183 1.227 . S
N185 Co171 2.140 . S
N185 C188 1.346 . S
N185 C189 1.345 . S
C186 C187 1.387 . S
C186 C190 1.391 . S
C187 C186 1.387 . S
C187 C188 1.369 . S
C187 H196 0.929 . S
C188 N185 1.346 . S
C188 C187 1.369 . S
C188 H191 0.928 . S
C189 N185 1.345 . S
C189 C190 1.371 . S
C189 H192 0.931 . S
C190 C186 1.391 . S
C190 C189 1.371 . S
C190 H197 0.930 . S
H191 C188 0.928 . S
H192 C189 0.931 . S
H193 C169 0.930 . S
H194 C166 0.930 . S
H195 C175 0.930 . S
H196 C187 0.929 . S
H197 C190 0.930 . S
H198 C199 0.951 . S
C199 H198 0.951 . S
C199 C205 1.265 . S
H200 C205 0.950 . S
H201 C209 0.949 . S
H202 C210 0.950 . S
H203 C211 0.951 . S
H204 C212 0.951 . S
C205 C199 1.265 . S
C205 H200 0.950 . S
C205 C206 1.478 . S
C206 C205 1.478 . S
C206 C207 1.397 . S
C206 C223 1.394 . S
C207 C206 1.397 . S
C207 C208 1.438 . S
C207 C212 1.429 . S
C208 C207 1.438 . S
C208 C209 1.428 . S
C208 C221 1.394 . S
C209 H201 0.949 . S
C209 C208 1.428 . S
C209 C210 1.345 . S
C210 H202 0.950 . S
C210 C209 1.345 . S
C210 C211 1.424 . S
C211 H203 0.951 . S
C211 C210 1.424 . S
C211 C212 1.347 . S
C212 H204 0.951 . S
C212 C207 1.429 . S
C212 C211 1.347 . S
H213 C214 0.951 . S
C214 H213 0.951 . S
C214 C220 1.265 . S
H215 C220 0.950 . S
H216 C224 0.949 . S
H217 C225 0.950 . S
H218 C226 0.951 . S
H219 C227 0.951 . S
C220 C214 1.265 . S
C220 H215 0.950 . S
C220 C221 1.478 . S
C221 C208 1.394 . S
C221 C220 1.478 . S
C221 C222 1.397 . S
C222 C221 1.397 . S
C222 C223 1.438 . S
C222 C227 1.429 . S
C223 C206 1.394 . S
C223 C222 1.438 . S
C223 C224 1.428 . S
C224 H216 0.949 . S
C224 C223 1.428 . S
C224 C225 1.345 . S
C225 H217 0.950 . S
C225 C224 1.345 . S
C225 C226 1.424 . S
C226 H218 0.951 . S
C226 C225 1.424 . S
C226 C227 1.347 . S
C227 H219 0.951 . S
C227 C222 1.429 . S
C227 C226 1.347 . S
H228 C229 0.951 . S
C229 H228 0.951 . S
C229 C235 1.265 . S
H230 C235 0.950 . S
H231 C239 0.949 . S
H232 C240 0.950 1_554 S
H233 C241 0.951 . S
H234 C242 0.951 . S
C235 C229 1.265 . S
C235 H230 0.950 . S
C235 C236 1.478 . S
C236 C235 1.478 . S
C236 C237 1.397 . S
C236 C253 1.394 . S
C237 C236 1.397 . S
C237 C238 1.438 . S
C237 C242 1.429 . S
C238 C237 1.438 . S
C238 C239 1.428 . S
C238 C251 1.394 . S
C239 H231 0.949 . S
C239 C238 1.428 . S
C239 C240 1.345 . S
C240 H232 0.950 1_556 S
C240 C239 1.345 . S
C240 C241 1.424 . S
C241 H233 0.951 . S
C241 C240 1.424 . S
C241 C242 1.347 . S
C242 H234 0.951 . S
C242 C237 1.429 . S
C242 C241 1.347 . S
H243 C244 0.951 . S
C244 H243 0.951 . S
C244 C250 1.265 . S
H245 C250 0.950 . S
H246 C254 0.949 . S
H247 C255 0.950 . S
H248 C256 0.951 . S
H249 C257 0.951 . S
C250 C244 1.265 . S
C250 H245 0.950 . S
C250 C251 1.478 . S
C251 C238 1.394 . S
C251 C250 1.478 . S
C251 C252 1.397 . S
C252 C251 1.397 . S
C252 C253 1.438 . S
C252 C257 1.429 . S
C253 C236 1.394 . S
C253 C252 1.438 . S
C253 C254 1.428 . S
C254 H246 0.949 . S
C254 C253 1.428 . S
C254 C255 1.345 . S
C255 H247 0.950 . S
C255 C254 1.345 . S
C255 C256 1.424 . S
C256 H248 0.951 . S
C256 C255 1.424 . S
C256 C257 1.347 . S
C257 H249 0.951 . S
C257 C252 1.429 . S
C257 C256 1.347 . S
H258 C259 0.951 . S
C259 H258 0.951 . S
C259 C265 1.265 . S
H260 C265 0.950 . S
H261 C269 0.949 . S
H262 C270 0.950 . S
H263 C271 0.951 . S
H264 C272 0.951 . S
C265 C259 1.265 . S
C265 H260 0.950 . S
C265 C266 1.478 . S
C266 C265 1.478 . S
C266 C267 1.397 . S
C266 C283 1.394 . S
C267 C266 1.397 . S
C267 C268 1.438 . S
C267 C272 1.429 . S
C268 C267 1.438 . S
C268 C269 1.428 . S
C268 C281 1.394 . S
C269 H261 0.949 . S
C269 C268 1.428 . S
C269 C270 1.345 . S
C270 H262 0.950 . S
C270 C269 1.345 . S
C270 C271 1.424 . S
C271 H263 0.951 . S
C271 C270 1.424 . S
C271 C272 1.347 . S
C272 H264 0.951 . S
C272 C267 1.429 . S
C272 C271 1.347 . S
H273 C274 0.951 . S
C274 H273 0.951 . S
C274 C280 1.265 . S
H275 C280 0.950 . S
H276 C284 0.949 . S
H277 C285 0.950 . S
H278 C286 0.951 . S
H279 C287 0.951 . S
C280 C274 1.265 . S
C280 H275 0.950 . S
C280 C281 1.478 . S
C281 C268 1.394 . S
C281 C280 1.478 . S
C281 C282 1.397 . S
C282 C281 1.397 . S
C282 C283 1.438 . S
C282 C287 1.429 . S
C283 C266 1.394 . S
C283 C282 1.438 . S
C283 C284 1.428 . S
C284 H276 0.949 . S
C284 C283 1.428 . S
C284 C285 1.345 . S
C285 H277 0.950 . S
C285 C284 1.345 . S
C285 C286 1.424 . S
C286 H278 0.951 . S
C286 C285 1.424 . S
C286 C287 1.347 . S
C287 H279 0.951 . S
C287 C282 1.429 . S
C287 C286 1.347 . S
H288 C289 0.951 . S
C289 H288 0.951 . S
C289 C295 1.265 . S
H290 C295 0.950 . S
H291 C299 0.949 . S
H292 C300 0.950 . S
H293 C301 0.951 . S
H294 C302 0.951 . S
C295 C289 1.265 . S
C295 H290 0.950 . S
C295 C296 1.478 . S
C296 C295 1.478 . S
C296 C297 1.397 . S
C296 C313 1.394 . S
C297 C296 1.397 . S
C297 C298 1.438 . S
C297 C302 1.429 . S
C298 C297 1.438 . S
C298 C299 1.428 . S
C298 C311 1.394 . S
C299 H291 0.949 . S
C299 C298 1.428 . S
C299 C300 1.345 . S
C300 H292 0.950 . S
C300 C299 1.345 . S
C300 C301 1.424 . S
C301 H293 0.951 . S
C301 C300 1.424 . S
C301 C302 1.347 . S
C302 H294 0.951 . S
C302 C297 1.429 . S
C302 C301 1.347 . S
H303 C304 0.951 . S
C304 H303 0.951 . S
C304 C310 1.265 . S
H305 C310 0.950 . S
H306 C314 0.949 . S
H307 C315 0.950 . S
H308 C316 0.951 . S
H309 C317 0.951 . S
C310 C304 1.265 . S
C310 H305 0.950 . S
C310 C311 1.478 . S
C311 C298 1.394 . S
C311 C310 1.478 . S
C311 C312 1.397 . S
C312 C311 1.397 . S
C312 C313 1.438 . S
C312 C317 1.429 . S
C313 C296 1.394 . S
C313 C312 1.438 . S
C313 C314 1.428 . S
C314 H306 0.949 . S
C314 C313 1.428 . S
C314 C315 1.345 . S
C315 H307 0.950 . S
C315 C314 1.345 . S
C315 C316 1.424 . S
C316 H308 0.951 . S
C316 C315 1.424 . S
C316 C317 1.347 . S
C317 H309 0.951 . S
C317 C312 1.429 . S
C317 C316 1.347 . S
H318 C319 0.951 . S
C319 H318 0.951 . S
C319 C325 1.265 . S
H320 C325 0.950 . S
H321 C329 0.949 . S
H322 C330 0.950 . S
H323 C331 0.951 . S
H324 C332 0.951 . S
C325 C319 1.265 . S
C325 H320 0.950 . S
C325 C326 1.478 . S
C326 C325 1.478 . S
C326 C327 1.397 . S
C326 C343 1.394 . S
C327 C326 1.397 . S
C327 C328 1.438 . S
C327 C332 1.429 . S
C328 C327 1.438 . S
C328 C329 1.428 . S
C328 C341 1.394 . S
C329 H321 0.949 . S
C329 C328 1.428 . S
C329 C330 1.345 . S
C330 H322 0.950 . S
C330 C329 1.345 . S
C330 C331 1.424 . S
C331 H323 0.951 . S
C331 C330 1.424 . S
C331 C332 1.347 . S
C332 H324 0.951 . S
C332 C327 1.429 . S
C332 C331 1.347 . S
H333 C334 0.951 . S
C334 H333 0.951 . S
C334 C340 1.265 . S
H335 C340 0.950 . S
H336 C344 0.949 . S
H337 C345 0.950 . S
H338 C346 0.951 . S
H339 C347 0.951 . S
C340 C334 1.265 . S
C340 H335 0.950 . S
C340 C341 1.478 . S
C341 C328 1.394 . S
C341 C340 1.478 . S
C341 C342 1.397 . S
C342 C341 1.397 . S
C342 C343 1.438 . S
C342 C347 1.429 . S
C343 C326 1.394 . S
C343 C342 1.438 . S
C343 C344 1.428 . S
C344 H336 0.949 . S
C344 C343 1.428 . S
C344 C345 1.345 . S
C345 H337 0.950 . S
C345 C344 1.345 . S
C345 C346 1.424 . S
C346 H338 0.951 . S
C346 C345 1.424 . S
C346 C347 1.347 . S
C347 H339 0.951 . S
C347 C342 1.429 . S
C347 C346 1.347 . S
H348 C349 0.951 . S
C349 H348 0.951 . S
C349 C355 1.265 . S
H350 C355 0.950 . S
H351 C359 0.949 . S
H352 C360 0.950 . S
H353 C361 0.951 1_556 S
H354 C362 0.951 . S
C355 C349 1.265 . S
C355 H350 0.950 . S
C355 C356 1.478 . S
C356 C355 1.478 . S
C356 C357 1.397 . S
C356 C373 1.394 . S
C357 C356 1.397 . S
C357 C358 1.438 . S
C357 C362 1.429 . S
C358 C357 1.438 . S
C358 C359 1.428 . S
C358 C371 1.394 . S
C359 H351 0.949 . S
C359 C358 1.428 . S
C359 C360 1.345 . S
C360 H352 0.950 . S
C360 C359 1.345 . S
C360 C361 1.424 . S
C361 H353 0.951 1_554 S
C361 C360 1.424 . S
C361 C362 1.347 . S
C362 H354 0.951 . S
C362 C357 1.429 . S
C362 C361 1.347 . S
H363 C364 0.951 . S
C364 H363 0.951 . S
C364 C370 1.265 . S
H365 C370 0.950 . S
H366 C374 0.949 . S
H367 C375 0.950 . S
H368 C376 0.951 . S
H369 C377 0.951 . S
C370 C364 1.265 . S
C370 H365 0.950 . S
C370 C371 1.478 . S
C371 C358 1.394 . S
C371 C370 1.478 . S
C371 C372 1.397 . S
C372 C371 1.397 . S
C372 C373 1.438 . S
C372 C377 1.429 . S
C373 C356 1.394 . S
C373 C372 1.438 . S
C373 C374 1.428 . S
C374 H366 0.949 . S
C374 C373 1.428 . S
C374 C375 1.345 . S
C375 H367 0.950 . S
C375 C374 1.345 . S
C375 C376 1.424 . S
C376 H368 0.951 . S
C376 C375 1.424 . S
C376 C377 1.347 . S
C377 H369 0.951 . S
C377 C372 1.429 . S
C377 C376 1.347 . S
H378 C379 0.951 . S
C379 H378 0.951 . S
C379 C385 1.265 . S
H380 C385 0.950 . S
H381 C389 0.949 . S
H382 C390 0.950 . S
H383 C391 0.951 . S
H384 C392 0.951 . S
C385 C379 1.265 . S
C385 H380 0.950 . S
C385 C386 1.478 . S
C386 C385 1.478 . S
C386 C387 1.397 1_655 S
C386 C403 1.394 . S
C387 C386 1.397 1_455 S
C387 C388 1.438 . S
C387 C392 1.429 . S
C388 C387 1.438 . S
C388 C389 1.428 . S
C388 C401 1.394 . S
C389 H381 0.949 . S
C389 C388 1.428 . S
C389 C390 1.345 . S
C390 H382 0.950 . S
C390 C389 1.345 . S
C390 C391 1.424 . S
C391 H383 0.951 . S
C391 C390 1.424 . S
C391 C392 1.347 . S
C392 H384 0.951 . S
C392 C387 1.429 . S
C392 C391 1.347 . S
H393 C394 0.951 . S
C394 H393 0.951 . S
C394 C400 1.265 . S
H395 C400 0.950 . S
H396 C404 0.949 . S
H397 C405 0.950 . S
H398 C406 0.951 . S
H399 C407 0.951 . S
C400 C394 1.265 . S
C400 H395 0.950 . S
C400 C401 1.478 . S
C401 C388 1.394 . S
C401 C400 1.478 . S
C401 C402 1.397 1_455 S
C402 C401 1.397 1_655 S
C402 C403 1.438 . S
C402 C407 1.429 . S
C403 C386 1.394 . S
C403 C402 1.438 . S
C403 C404 1.428 . S
C404 H396 0.949 . S
C404 C403 1.428 . S
C404 C405 1.345 . S
C405 H397 0.950 . S
C405 C404 1.345 . S
C405 C406 1.424 . S
C406 H398 0.951 . S
C406 C405 1.424 . S
C406 C407 1.347 . S
C407 H399 0.951 . S
C407 C402 1.429 . S
C407 C406 1.347 . S
H408 C409 0.951 . S
C409 H408 0.951 . S
C409 C415 1.265 . S
H410 C415 0.950 . S
H411 C419 0.949 . S
H412 C420 0.950 . S
H413 C421 0.951 . S
H414 C422 0.951 . S
C415 C409 1.265 . S
C415 H410 0.950 . S
C415 C416 1.478 . S
C416 C415 1.478 . S
C416 C417 1.397 . S
C416 C433 1.394 . S
C417 C416 1.397 . S
C417 C418 1.438 . S
C417 C422 1.429 . S
C418 C417 1.438 . S
C418 C419 1.428 . S
C418 C431 1.394 . S
C419 H411 0.949 . S
C419 C418 1.428 . S
C419 C420 1.345 . S
C420 H412 0.950 . S
C420 C419 1.345 . S
C420 C421 1.424 . S
C421 H413 0.951 . S
C421 C420 1.424 . S
C421 C422 1.347 . S
C422 H414 0.951 . S
C422 C417 1.429 . S
C422 C421 1.347 . S
H423 C424 0.951 . S
C424 H423 0.951 . S
C424 C430 1.265 . S
H425 C430 0.950 . S
H426 C434 0.949 . S
H427 C435 0.950 . S
H428 C436 0.951 . S
H429 C437 0.951 . S
C430 C424 1.265 . S
C430 H425 0.950 . S
C430 C431 1.478 . S
C431 C418 1.394 . S
C431 C430 1.478 . S
C431 C432 1.397 . S
C432 C431 1.397 . S
C432 C433 1.438 . S
C432 C437 1.429 . S
C433 C416 1.394 . S
C433 C432 1.438 . S
C433 C434 1.428 . S
C434 H426 0.949 . S
C434 C433 1.428 . S
C434 C435 1.345 . S
C435 H427 0.950 . S
C435 C434 1.345 . S
C435 C436 1.424 . S
C436 H428 0.951 . S
C436 C435 1.424 . S
C436 C437 1.347 . S
C437 H429 0.951 . S
C437 C432 1.429 . S
C437 C436 1.347 . S
H438 C439 0.951 . S
C439 H438 0.951 . S
C439 C445 1.265 . S
H440 C445 0.950 . S
H441 C449 0.949 1_565 S
H442 C450 0.950 . S
H443 C451 0.951 . S
H444 C452 0.951 . S
C445 C439 1.265 . S
C445 H440 0.950 . S
C445 C446 1.478 . S
C446 C445 1.478 . S
C446 C447 1.397 . S
C446 C463 1.394 1_545 S
C447 C446 1.397 . S
C447 C448 1.438 . S
C447 C452 1.429 . S
C448 C447 1.438 . S
C448 C449 1.428 . S
C448 C461 1.394 1_545 S
C449 H441 0.949 1_545 S
C449 C448 1.428 . S
C449 C450 1.345 . S
C450 H442 0.950 . S
C450 C449 1.345 . S
C450 C451 1.424 . S
C451 H443 0.951 . S
C451 C450 1.424 . S
C451 C452 1.347 . S
C452 H444 0.951 . S
C452 C447 1.429 . S
C452 C451 1.347 . S
H453 C454 0.951 . S
C454 H453 0.951 . S
C454 C460 1.265 . S
H455 C460 0.950 . S
H456 C464 0.949 1_545 S
H457 C465 0.950 . S
H458 C466 0.951 . S
H459 C467 0.951 . S
C460 C454 1.265 . S
C460 H455 0.950 . S
C460 C461 1.478 . S
C461 C448 1.394 1_565 S
C461 C460 1.478 . S
C461 C462 1.397 . S
C462 C461 1.397 . S
C462 C463 1.438 . S
C462 C467 1.429 . S
C463 C446 1.394 1_565 S
C463 C462 1.438 . S
C463 C464 1.428 . S
C464 H456 0.949 1_565 S
C464 C463 1.428 . S
C464 C465 1.345 . S
C465 H457 0.950 . S
C465 C464 1.345 . S
C465 C466 1.424 . S
C466 H458 0.951 . S
C466 C465 1.424 . S
C466 C467 1.347 . S
C467 H459 0.951 . S
C467 C462 1.429 . S
C467 C466 1.347 . S
H468 C469 0.951 . S
C469 H468 0.951 . S
C469 C475 1.265 . S
H470 C475 0.950 1_554 S
H471 C479 0.949 . S
H472 C480 0.950 . S
H473 C481 0.951 . S
H474 C482 0.951 1_556 S
C475 C469 1.265 . S
C475 H470 0.950 1_556 S
C475 C476 1.478 . S
C476 C475 1.478 . S
C476 C477 1.397 1_556 S
C476 C493 1.394 . S
C477 C476 1.397 1_554 S
C477 C478 1.438 . S
C477 C482 1.429 . S
C478 C477 1.438 . S
C478 C479 1.428 . S
C478 C491 1.394 . S
C479 H471 0.949 . S
C479 C478 1.428 . S
C479 C480 1.345 . S
C480 H472 0.950 . S
C480 C479 1.345 . S
C480 C481 1.424 . S
C481 H473 0.951 . S
C481 C480 1.424 . S
C481 C482 1.347 . S
C482 H474 0.951 1_554 S
C482 C477 1.429 . S
C482 C481 1.347 . S
H483 C484 0.951 . S
C484 H483 0.951 . S
C484 C490 1.265 . S
H485 C490 0.950 1_556 S
H486 C494 0.949 . S
H487 C495 0.950 . S
H488 C496 0.951 . S
H489 C497 0.951 1_554 S
C490 C484 1.265 . S
C490 H485 0.950 1_554 S
C490 C491 1.478 . S
C491 C478 1.394 . S
C491 C490 1.478 . S
C491 C492 1.397 1_554 S
C492 C491 1.397 1_556 S
C492 C493 1.438 . S
C492 C497 1.429 . S
C493 C476 1.394 . S
C493 C492 1.438 . S
C493 C494 1.428 . S
C494 H486 0.949 . S
C494 C493 1.428 . S
C494 C495 1.345 . S
C495 H487 0.950 . S
C495 C494 1.345 . S
C495 C496 1.424 . S
C496 H488 0.951 . S
C496 C495 1.424 . S
C496 C497 1.347 . S
C497 H489 0.951 1_556 S
C497 C492 1.429 . S
C497 C496 1.347 . S
H498 C499 0.951 . S
C499 H498 0.951 . S
C499 C505 1.265 . S
H500 C505 0.950 . S
H501 C509 0.949 . S
H502 C510 0.950 . S
H503 C511 0.951 . S
H504 C512 0.951 . S
C505 C499 1.265 . S
C505 H500 0.950 . S
C505 C506 1.478 . S
C506 C505 1.478 . S
C506 C507 1.397 . S
C506 C523 1.394 . S
C507 C506 1.397 . S
C507 C508 1.438 1_545 S
C507 C512 1.429 . S
C508 C507 1.438 1_565 S
C508 C509 1.428 . S
C508 C521 1.394 . S
C509 H501 0.949 . S
C509 C508 1.428 . S
C509 C510 1.345 1_565 S
C510 H502 0.950 . S
C510 C509 1.345 1_545 S
C510 C511 1.424 . S
C511 H503 0.951 . S
C511 C510 1.424 . S
C511 C512 1.347 . S
C512 H504 0.951 . S
C512 C507 1.429 . S
C512 C511 1.347 . S
H513 C514 0.951 . S
C514 H513 0.951 . S
C514 C520 1.265 . S
H515 C520 0.950 . S
H516 C524 0.949 . S
H517 C525 0.950 . S
H518 C526 0.951 . S
H519 C527 0.951 . S
C520 C514 1.265 . S
C520 H515 0.950 . S
C520 C521 1.478 . S
C521 C508 1.394 . S
C521 C520 1.478 . S
C521 C522 1.397 . S
C522 C521 1.397 . S
C522 C523 1.438 1_565 S
C522 C527 1.429 . S
C523 C506 1.394 . S
C523 C522 1.438 1_545 S
C523 C524 1.428 . S
C524 H516 0.949 . S
C524 C523 1.428 . S
C524 C525 1.345 1_545 S
C525 H517 0.950 . S
C525 C524 1.345 1_565 S
C525 C526 1.424 . S
C526 H518 0.951 . S
C526 C525 1.424 . S
C526 C527 1.347 . S
C527 H519 0.951 . S
C527 C522 1.429 . S
C527 C526 1.347 . S
H528 C529 0.951 . S
C529 H528 0.951 . S
C529 C535 1.265 . S
H530 C535 0.950 . S
H531 C539 0.949 . S
H532 C540 0.950 . S
H533 C541 0.951 . S
H534 C542 0.951 . S
C535 C529 1.265 . S
C535 H530 0.950 . S
C535 C536 1.478 . S
C536 C535 1.478 . S
C536 C537 1.397 . S
C536 C553 1.394 . S
C537 C536 1.397 . S
C537 C538 1.438 1_455 S
C537 C542 1.429 . S
C538 C537 1.438 1_655 S
C538 C539 1.428 . S
C538 C551 1.394 . S
C539 H531 0.949 . S
C539 C538 1.428 . S
C539 C540 1.345 . S
C540 H532 0.950 . S
C540 C539 1.345 . S
C540 C541 1.424 1_655 S
C541 H533 0.951 . S
C541 C540 1.424 1_455 S
C541 C542 1.347 . S
C542 H534 0.951 . S
C542 C537 1.429 . S
C542 C541 1.347 . S
H543 C544 0.951 . S
C544 H543 0.951 . S
C544 C550 1.265 . S
H545 C550 0.950 . S
H546 C554 0.949 . S
H547 C555 0.950 . S
H548 C556 0.951 . S
H549 C557 0.951 . S
C550 C544 1.265 . S
C550 H545 0.950 . S
C550 C551 1.478 . S
C551 C538 1.394 . S
C551 C550 1.478 . S
C551 C552 1.397 . S
C552 C551 1.397 . S
C552 C553 1.438 1_655 S
C552 C557 1.429 . S
C553 C536 1.394 . S
C553 C552 1.438 1_455 S
C553 C554 1.428 . S
C554 H546 0.949 . S
C554 C553 1.428 . S
C554 C555 1.345 . S
C555 H547 0.950 . S
C555 C554 1.345 . S
C555 C556 1.424 1_455 S
C556 H548 0.951 . S
C556 C555 1.424 1_655 S
C556 C557 1.347 . S
C557 H549 0.951 . S
C557 C552 1.429 . S
C557 C556 1.347 . S
H558 C559 0.951 . S
C559 H558 0.951 . S
C559 C565 1.265 . S
H560 C565 0.950 . S
H561 C569 0.949 . S
H562 C570 0.950 . S
H563 C571 0.967 . S
H564 C572 0.951 . S
C565 C559 1.265 . S
C565 H560 0.950 . S
C565 C566 1.478 . S
C566 C565 1.478 . S
C566 C567 1.397 . S
C566 C583 1.394 . S
C567 C566 1.397 . S
C567 C568 1.438 1_655 S
C567 C572 1.429 . S
C568 C567 1.438 1_455 S
C568 C569 1.428 . S
C568 C581 1.394 . S
C569 H561 0.949 . S
C569 C568 1.428 . S
C569 C570 1.345 . S
C570 H562 0.950 . S
C570 C569 1.345 . S
C570 C571 1.407 1_455 S
C571 H563 0.967 . S
C571 C570 1.407 1_655 S
C571 C572 1.347 . S
C572 H564 0.951 . S
C572 C567 1.429 . S
C572 C571 1.347 . S
H573 C574 0.951 . S
C574 H573 0.951 . S
C574 C580 1.265 . S
H575 C580 0.950 . S
H576 C584 0.949 . S
H577 C585 0.950 . S
H578 C586 0.967 . S
H579 C587 0.951 . S
C580 C574 1.265 . S
C580 H575 0.950 . S
C580 C581 1.478 . S
C581 C568 1.394 . S
C581 C580 1.478 . S
C581 C582 1.397 . S
C582 C581 1.397 . S
C582 C583 1.438 1_455 S
C582 C587 1.429 . S
C583 C566 1.394 . S
C583 C582 1.438 1_655 S
C583 C584 1.428 . S
C584 H576 0.949 . S
C584 C583 1.428 . S
C584 C585 1.345 . S
C585 H577 0.950 . S
C585 C584 1.345 . S
C585 C586 1.408 1_655 S
C586 H578 0.967 . S
C586 C585 1.408 1_455 S
C586 C587 1.347 . S
C587 H579 0.951 . S
C587 C582 1.429 . S
C587 C586 1.347 . S
H588 C589 0.951 . S
C589 H588 0.951 . S
C589 C595 1.265 . S
H590 C595 0.950 . S
H591 C599 0.949 . S
H592 C600 0.950 . S
H593 C601 0.948 1_556 S
H594 C602 0.951 . S
C595 C589 1.265 . S
C595 H590 0.950 . S
C595 C596 1.478 . S
C596 C595 1.478 . S
C596 C597 1.397 . S
C596 C613 1.394 . S
C597 C596 1.397 . S
C597 C598 1.438 1_556 S
C597 C602 1.429 . S
C598 C597 1.438 1_554 S
C598 C599 1.428 . S
C598 C611 1.394 . S
C599 H591 0.949 . S
C599 C598 1.428 . S
C599 C600 1.345 . S
C600 H592 0.950 . S
C600 C599 1.345 . S
C600 C601 1.431 . S
C601 H593 0.948 1_554 S
C601 C600 1.431 . S
C601 C602 1.342 1_554 S
C602 H594 0.951 . S
C602 C597 1.429 . S
C602 C601 1.342 1_556 S
H603 C604 0.951 . S
C604 H603 0.951 . S
C604 C610 1.265 . S
H605 C610 0.950 . S
H606 C614 0.949 . S
H607 C615 0.950 . S
H608 C616 0.948 1_554 S
H609 C617 0.951 . S
C610 C604 1.265 . S
C610 H605 0.950 . S
C610 C611 1.478 . S
C611 C598 1.394 . S
C611 C610 1.478 . S
C611 C612 1.397 . S
C612 C611 1.397 . S
C612 C613 1.438 1_554 S
C612 C617 1.429 . S
C613 C596 1.394 . S
C613 C612 1.438 1_556 S
C613 C614 1.428 . S
C614 H606 0.949 . S
C614 C613 1.428 . S
C614 C615 1.345 . S
C615 H607 0.950 . S
C615 C614 1.345 . S
C615 C616 1.431 . S
C616 H608 0.948 1_556 S
C616 C615 1.431 . S
C616 C617 1.342 1_556 S
C617 H609 0.951 . S
C617 C612 1.429 . S
C617 C616 1.342 1_554 S
H618 C619 0.951 . S
C619 H618 0.951 . S
C619 C625 1.265 . S
H620 C625 0.950 . S
H621 C629 0.949 . S
H622 C630 0.950 . S
H623 C631 0.951 . S
H624 C632 0.951 . S
C625 C619 1.265 . S
C625 H620 0.950 . S
C625 C626 1.478 . S
C626 C625 1.478 . S
C626 C627 1.397 . S
C626 C643 1.394 1_545 S
C627 C626 1.397 . S
C627 C628 1.438 . S
C627 C632 1.429 . S
C628 C627 1.438 . S
C628 C629 1.428 . S
C628 C641 1.394 1_545 S
C629 H621 0.949 . S
C629 C628 1.428 . S
C629 C630 1.345 . S
C630 H622 0.950 . S
C630 C629 1.345 . S
C630 C631 1.424 . S
C631 H623 0.951 . S
C631 C630 1.424 . S
C631 C632 1.347 . S
C632 H624 0.951 . S
C632 C627 1.429 . S
C632 C631 1.347 . S
H633 C634 0.951 . S
C634 H633 0.951 . S
C634 C640 1.265 . S
H635 C640 0.950 . S
H636 C644 0.949 . S
H637 C645 0.950 . S
H638 C646 0.951 . S
H639 C647 0.951 . S
C640 C634 1.265 . S
C640 H635 0.950 . S
C640 C641 1.478 . S
C641 C628 1.394 1_565 S
C641 C640 1.478 . S
C641 C642 1.397 . S
C642 C641 1.397 . S
C642 C643 1.438 . S
C642 C647 1.429 . S
C643 C626 1.394 1_565 S
C643 C642 1.438 . S
C643 C644 1.428 . S
C644 H636 0.949 . S
C644 C643 1.428 . S
C644 C645 1.345 . S
C645 H637 0.950 . S
C645 C644 1.345 . S
C645 C646 1.424 . S
C646 H638 0.951 . S
C646 C645 1.424 . S
C646 C647 1.347 . S
C647 H639 0.951 . S
C647 C642 1.429 . S
C647 C646 1.347 . S
C199 N68 1.097 . S
C214 C18 1.217 . S
C229 C51 1.240 . S
C244 N2 1.169 . S
C259 C84 1.217 . S
C274 N35 1.095 . S
C289 C117 1.255 . S
C304 N134 1.229 . S
C319 N167 1.204 . S
C334 C150 1.250 . S
C349 N101 1.243 . S
C364 C183 1.261 . S
C379 C153 0.643 . S
C394 C21 0.639 . S
C409 C186 0.668 . S
C424 C54 0.655 . S
C439 C120 0.643 . S
C454 C87 0.658 . S
C469 C106 1.582 . S
C484 C7 1.580 . S
C499 C139 1.540 . S
C514 C40 1.547 . S
C529 C73 1.583 . S
C544 C172 1.583 . S
C559 N145 1.987 . S
C574 N13 2.000 . S
C589 N46 1.999 . S
C604 N178 1.984 . S
C619 N112 2.006 . S
C634 N79 1.979 . S
