# Generated by pormake.
# Topology lcy-a, (4)-cn, num edge types: 1
# Building blocks:
#     Node 0, Type 0, BuildingBlock: UXUYUI_clean_sbu_0, # of connection points: 4
#     Node 1, Type 0, BuildingBlock: UXUYUI_clean_sbu_0, # of connection points: 4
#     Node 2, Type 0, BuildingBlock: UXUYUI_clean_sbu_0, # of connection points: 4
#     Node 3, Type 0, BuildingBlock: UXUYUI_clean_sbu_0, # of connection points: 4
#     Node 4, Type 0, BuildingBlock: UXUYUI_clean_sbu_0, # of connection points: 4
#     Node 5, Type 0, BuildingBlock: UXUYUI_clean_sbu_0, # of connection points: 4
#     Node 6, Type 0, BuildingBlock: UXUYUI_clean_sbu_0, # of connection points: 4
#     Node 7, Type 0, BuildingBlock: UXUYUI_clean_sbu_0, # of connection points: 4
#     Node 8, Type 0, BuildingBlock: UXUYUI_clean_sbu_0, # of connection points: 4
#     Node 9, Type 0, BuildingBlock: UXUYUI_clean_sbu_0, # of connection points: 4
#     Node 10, Type 0, BuildingBlock: UXUYUI_clean_sbu_0, # of connection points: 4
#     Node 11, Type 0, BuildingBlock: UXUYUI_clean_sbu_0, # of connection points: 4
#     Node 12, Type 0, BuildingBlock: UXUYUI_clean_sbu_0, # of connection points: 4
#     Node 13, Type 0, BuildingBlock: UXUYUI_clean_sbu_0, # of connection points: 4
#     Node 14, Type 0, BuildingBlock: UXUYUI_clean_sbu_0, # of connection points: 4
#     Node 15, Type 0, BuildingBlock: UXUYUI_clean_sbu_0, # of connection points: 4
#     Node 16, Type 0, BuildingBlock: UXUYUI_clean_sbu_0, # of connection points: 4
#     Node 17, Type 0, BuildingBlock: UXUYUI_clean_sbu_0, # of connection points: 4
#     Node 18, Type 0, BuildingBlock: UXUYUI_clean_sbu_0, # of connection points: 4
#     Node 19, Type 0, BuildingBlock: UXUYUI_clean_sbu_0, # of connection points: 4
#     Node 20, Type 0, BuildingBlock: UXUYUI_clean_sbu_0, # of connection points: 4
#     Node 21, Type 0, BuildingBlock: UXUYUI_clean_sbu_0, # of connection points: 4
#     Node 22, Type 0, BuildingBlock: UXUYUI_clean_sbu_0, # of connection points: 4
#     Node 23, Type 0, BuildingBlock: UXUYUI_clean_sbu_0, # of connection points: 4
#     Edge 24, Type (0, 0), None
#     Edge 25, Type (0, 0), None
#     Edge 26, Type (0, 0), None
#     Edge 27, Type (0, 0), None
#     Edge 28, Type (0, 0), None
#     Edge 29, Type (0, 0), None
#     Edge 30, Type (0, 0), None
#     Edge 31, Type (0, 0), None
#     Edge 32, Type (0, 0), None
#     Edge 33, Type (0, 0), None
#     Edge 34, Type (0, 0), None
#     Edge 35, Type (0, 0), None
#     Edge 36, Type (0, 0), None
#     Edge 37, Type (0, 0), None
#     Edge 38, Type (0, 0), None
#     Edge 39, Type (0, 0), None
#     Edge 40, Type (0, 0), None
#     Edge 41, Type (0, 0), None
#     Edge 42, Type (0, 0), None
#     Edge 43, Type (0, 0), None
#     Edge 44, Type (0, 0), None
#     Edge 45, Type (0, 0), None
#     Edge 46, Type (0, 0), None
#     Edge 47, Type (0, 0), None
#     Edge 48, Type (0, 0), None
#     Edge 49, Type (0, 0), None
#     Edge 50, Type (0, 0), None
#     Edge 51, Type (0, 0), None
#     Edge 52, Type (0, 0), None
#     Edge 53, Type (0, 0), None
#     Edge 54, Type (0, 0), None
#     Edge 55, Type (0, 0), None
#     Edge 56, Type (0, 0), None
#     Edge 57, Type (0, 0), None
#     Edge 58, Type (0, 0), None
#     Edge 59, Type (0, 0), None
#     Edge 60, Type (0, 0), None
#     Edge 61, Type (0, 0), None
#     Edge 62, Type (0, 0), None
#     Edge 63, Type (0, 0), None
#     Edge 64, Type (0, 0), None
#     Edge 65, Type (0, 0), None
#     Edge 66, Type (0, 0), None
#     Edge 67, Type (0, 0), None
#     Edge 68, Type (0, 0), None
#     Edge 69, Type (0, 0), None
#     Edge 70, Type (0, 0), None
#     Edge 71, Type (0, 0), None
# Relax obj value: 0.522
# Max RMSD: 0.263
# Mean RMSD: 0.261
data_MOF--net-lcy-a--node1-UXUYUI_clean_sbu_0--edge1-none
_symmetry_space_group_name_H-M    P1
_symmetry_Int_Tables_number       1
_symmetry_cell_setting            triclinic
loop_
_symmetry_equiv_pos_as_xyz
'x, y, z'
_cell_length_a     52.218851
_cell_length_b     51.100677
_cell_length_c     51.100746
_cell_angle_alpha  89.997537
_cell_angle_beta   89.999127
_cell_angle_gamma 89.99917
loop_
_atom_site_label
_atom_site_type_symbol
_atom_site_fract_x
_atom_site_fract_y
_atom_site_fract_z
_atom_type_partial_charge
Li0 Li 0.21421 0.3205 0.42168 0.0
Li1 Li 0.20761 0.27681 0.3972 0.0
Li2 Li 0.18467 0.3172 0.38442 0.0
Li3 Li 0.17428 0.29649 0.42465 0.0
C4 C 0.23333 0.32461 0.36505 0.0
N5 N 0.25537 0.35278 0.32472 0.0
C6 C 0.24435 0.31163 0.34379 0.0
C7 C 0.23366 0.35197 0.36582 0.0
C8 C 0.25535 0.3262 0.3236 0.0
C9 C 0.24489 0.36585 0.34526 0.0
C10 C 0.20628 0.26695 0.45535 0.0
C11 C 0.19055 0.22572 0.47177 0.0
N12 N 0.19875 0.23231 0.49615 0.0
C13 C 0.21472 0.27325 0.48052 0.0
C14 C 0.1942 0.24295 0.45089 0.0
C15 C 0.21066 0.2555 0.50091 0.0
C16 C 0.23418 0.34697 0.46539 0.0
N17 N 0.23851 0.34113 0.43987 0.0
C18 C 0.27675 0.36666 0.43985 0.0
C19 C 0.25964 0.35002 0.42725 0.0
C20 C 0.27308 0.3732 0.4664 0.0
C21 C 0.2515 0.36256 0.47922 0.0
H22 H 0.21729 0.3394 0.47504 0.0
H23 H 0.26325 0.34439 0.40727 0.0
C24 C 0.2228 0.24432 0.35719 0.0
N25 N 0.22397 0.24698 0.38356 0.0
C26 C 0.23896 0.22682 0.34443 0.0
C27 C 0.25447 0.21237 0.38659 0.0
C28 C 0.23863 0.2309 0.39849 0.0
C29 C 0.25605 0.21127 0.35907 0.0
H30 H 0.21073 0.25735 0.34593 0.0
H31 H 0.23913 0.2334 0.41948 0.0
C32 C 0.15663 0.3489 0.41767 0.0
N33 N 0.11184 0.3775 0.4145 0.0
C34 C 0.13355 0.33646 0.41169 0.0
C35 C 0.15696 0.37588 0.42209 0.0
C36 C 0.11111 0.35125 0.41017 0.0
C37 C 0.13411 0.39001 0.42038 0.0
C38 C 0.1533 0.266 0.37821 0.0
C39 C 0.13174 0.27695 0.3662 0.0
C40 C 0.15605 0.2388 0.37903 0.0
C41 C 0.11316 0.26046 0.35548 0.0
C42 C 0.13703 0.22298 0.36809 0.0
N43 N 0.11616 0.23405 0.35666 0.0
C44 C 0.17475 0.31683 0.33193 0.0
C45 C 0.1767 0.35971 0.3495 0.0
C46 C 0.17965 0.32627 0.30692 0.0
N47 N 0.17496 0.33339 0.3527 0.0
C48 C 0.18247 0.36995 0.32484 0.0
C49 C 0.18606 0.35276 0.30361 0.0
H50 H 0.17396 0.29594 0.33509 0.0
H51 H 0.17738 0.37234 0.36647 0.0
C52 C 0.15345 0.29277 0.47514 0.0
N53 N 0.14944 0.28622 0.44964 0.0
C54 C 0.14152 0.27851 0.49505 0.0
C55 C 0.11953 0.25337 0.46181 0.0
C56 C 0.13181 0.26799 0.4427 0.0
C57 C 0.12545 0.25768 0.4882 0.0
H58 H 0.16774 0.30731 0.48002 0.0
H59 H 0.12867 0.2633 0.42246 0.0
O60 O 0.22264 0.31063 0.38517 0.0
O61 O 0.20953 0.28431 0.43523 0.0
O62 O 0.17895 0.33497 0.4189 0.0
O63 O 0.17172 0.28179 0.3889 0.0
H64 H 0.24466 0.29055 0.3429 0.0
H65 H 0.22515 0.36237 0.38211 0.0
H66 H 0.26374 0.31633 0.30697 0.0
H67 H 0.24514 0.38702 0.34556 0.0
H68 H 0.18116 0.20712 0.46859 0.0
H69 H 0.22416 0.2917 0.48431 0.0
H70 H 0.18749 0.23783 0.43155 0.0
H71 H 0.21696 0.26018 0.52053 0.0
H72 H 0.29243 0.3744 0.42845 0.0
H73 H 0.24783 0.36594 0.49975 0.0
H74 H 0.23934 0.22728 0.32329 0.0
H75 H 0.26646 0.20027 0.3989 0.0
H76 H 0.13295 0.31564 0.40828 0.0
H77 H 0.17472 0.38581 0.42666 0.0
H78 H 0.0931 0.34185 0.40554 0.0
H79 H 0.13408 0.41092 0.4237 0.0
H80 H 0.1294 0.29795 0.36505 0.0
H81 H 0.17266 0.22994 0.38803 0.0
H82 H 0.09638 0.26867 0.34617 0.0
H83 H 0.13889 0.20191 0.36867 0.0
H84 H 0.1813 0.31244 0.29095 0.0
H85 H 0.18723 0.39051 0.32332 0.0
H86 H 0.14637 0.28228 0.5153 0.0
H87 H 0.10687 0.23763 0.45597 0.0
Li88 Li 0.94161 0.96734 0.6679 0.0
Li89 Li 0.97482 0.93443 0.67 0.0
Li90 Li 0.97934 0.97146 0.64101 0.0
Li91 Li 0.94785 0.93843 0.63004 0.0
C92 C 0.9772 0.99083 0.69733 0.0
N93 N 0.9756 0.03013 0.73438 0.0
C94 C 0.97917 0.98471 0.7239 0.0
C95 C 0.9747 0.01692 0.68956 0.0
C96 C 0.97824 0.00487 0.74235 0.0
C97 C 0.97386 0.03651 0.7086 0.0
C98 C 0.93154 0.90244 0.66793 0.0
C99 C 0.93812 0.85828 0.65263 0.0
N100 N 0.92078 0.84955 0.67047 0.0
C101 C 0.91375 0.89303 0.68606 0.0
C102 C 0.94382 0.88495 0.65102 0.0
C103 C 0.90859 0.86622 0.68706 0.0
C104 C 0.90038 0.00186 0.67549 0.0
N105 N 0.91647 0.98501 0.68781 0.0
C106 C 0.89673 0.99396 0.72902 0.0
C107 C 0.91466 0.9804 0.71395 0.0
C108 C 0.88062 0.01232 0.71692 0.0
C109 C 0.8824 0.01602 0.68978 0.0
H110 H 0.9014 0.00423 0.65455 0.0
H111 H 0.92726 0.96631 0.72309 0.0
C112 C 0.01768 0.92655 0.69803 0.0
N113 N 0.99503 0.91457 0.69285 0.0
C114 C 0.03584 0.91442 0.71374 0.0
C115 C 0.00648 0.87824 0.71964 0.0
C116 C 0.98887 0.89107 0.7036 0.0
C117 C 0.03043 0.88984 0.72445 0.0
H118 H 0.02182 0.94543 0.68943 0.0
H119 H 0.97059 0.8821 0.69954 0.0
C120 C 0.9404 0.99588 0.6121 0.0
N121 N 0.93126 0.03387 0.57466 0.0
C122 C 0.93898 0.98916 0.5856 0.0
C123 C 0.93762 0.02209 0.61944 0.0
C124 C 0.93432 0.00859 0.56701 0.0
C125 C 0.93286 0.04096 0.60026 0.0
C126 C 0.00606 0.93514 0.6161 0.0
C127 C 0.00274 0.94132 0.58967 0.0
C128 C 0.03073 0.93088 0.62581 0.0
C129 C 0.02417 0.94339 0.57345 0.0
C130 C 0.05169 0.93314 0.60897 0.0
N131 N 0.04801 0.93931 0.58336 0.0
C132 C 0.02352 0.00291 0.64488 0.0
C133 C 0.00434 0.0029 0.60291 0.0
C134 C 0.04181 0.02113 0.6367 0.0
N135 N 0.00482 0.99484 0.62819 0.0
C136 C 0.02233 0.02074 0.59383 0.0
C137 C 0.04098 0.0308 0.61099 0.0
H138 H 0.02392 0.99562 0.66473 0.0
H139 H 0.98985 0.99571 0.58974 0.0
C140 C 0.90492 0.93391 0.60148 0.0
N141 N 0.92896 0.92393 0.60216 0.0
C142 C 0.89251 0.93709 0.57763 0.0
C143 C 0.92811 0.91559 0.55631 0.0
C144 C 0.93996 0.91297 0.58072 0.0
C145 C 0.90508 0.92984 0.55434 0.0
H146 H 0.89698 0.94284 0.61888 0.0
H147 H 0.95912 0.90504 0.58195 0.0
O148 O 0.97766 0.97133 0.67902 0.0
O149 O 0.93665 0.92867 0.66681 0.0
O150 O 0.94322 0.9768 0.63077 0.0
O151 O 0.98531 0.93332 0.63237 0.0
H152 H 0.98115 0.96458 0.73019 0.0
H153 H 0.97345 0.02197 0.66906 0.0
H154 H 0.97958 0.00042 0.763 0.0
H155 H 0.97184 0.05679 0.70288 0.0
H156 H 0.9475 0.84453 0.63971 0.0
H157 H 0.90406 0.90633 0.69925 0.0
H158 H 0.95768 0.89176 0.63688 0.0
H159 H 0.89489 0.85867 0.70103 0.0
H160 H 0.89582 0.99053 0.74991 0.0
H161 H 0.86985 0.02957 0.6797 0.0
H162 H 0.05405 0.92398 0.71721 0.0
H163 H 0.00181 0.85911 0.72744 0.0
H164 H 0.94168 0.96922 0.57932 0.0
H165 H 0.9387 0.02782 0.63977 0.0
H166 H 0.93309 0.00352 0.5465 0.0
H167 H 0.93041 0.06126 0.60573 0.0
H168 H 0.98388 0.94515 0.58187 0.0
H169 H 0.03372 0.92584 0.6461 0.0
H170 H 0.02186 0.94842 0.55302 0.0
H171 H 0.07089 0.92996 0.61626 0.0
H172 H 0.05603 0.02799 0.65052 0.0
H173 H 0.02059 0.02758 0.57387 0.0
H174 H 0.8749 0.94823 0.57746 0.0
H175 H 0.93811 0.90888 0.53901 0.0
Li176 Li 0.28507 0.71774 0.89719 0.0
Li177 Li 0.27847 0.67405 0.92166 0.0
Li178 Li 0.31841 0.69805 0.92463 0.0
Li179 Li 0.30801 0.67734 0.8844 0.0
C180 C 0.2864 0.7276 0.95534 0.0
N181 N 0.29392 0.76223 0.99615 0.0
C182 C 0.27795 0.72129 0.98051 0.0
C183 C 0.29848 0.75159 0.95088 0.0
C184 C 0.282 0.73904 0.0009 0.0
C185 C 0.30212 0.76882 0.97176 0.0
C186 C 0.25935 0.66995 0.86504 0.0
C187 C 0.24778 0.6287 0.84525 0.0
N188 N 0.23731 0.64178 0.8247 0.0
C189 C 0.24834 0.68293 0.84377 0.0
C190 C 0.25901 0.64259 0.86581 0.0
C191 C 0.23734 0.66837 0.82358 0.0
C192 C 0.2699 0.75023 0.85718 0.0
N193 N 0.26871 0.74757 0.88354 0.0
C194 C 0.23821 0.78217 0.88658 0.0
C195 C 0.25405 0.76364 0.89847 0.0
C196 C 0.23663 0.78328 0.85905 0.0
C197 C 0.25373 0.76773 0.84442 0.0
H198 H 0.28197 0.73721 0.84592 0.0
H199 H 0.25355 0.76114 0.91947 0.0
C200 C 0.25849 0.64757 0.96538 0.0
N201 N 0.25417 0.65342 0.93986 0.0
C202 C 0.24117 0.63198 0.97921 0.0
C203 C 0.21592 0.62789 0.93984 0.0
C204 C 0.23303 0.64454 0.92723 0.0
C205 C 0.2196 0.62135 0.96638 0.0
H206 H 0.27538 0.65514 0.97503 0.0
H207 H 0.22943 0.65017 0.90726 0.0
C208 C 0.33938 0.72855 0.87819 0.0
N209 N 0.37651 0.76051 0.85664 0.0
C210 C 0.36094 0.71761 0.86618 0.0
C211 C 0.33663 0.75575 0.87903 0.0
C212 C 0.37951 0.7341 0.85545 0.0
C213 C 0.35564 0.77157 0.86809 0.0
C214 C 0.33605 0.64564 0.91766 0.0
C215 C 0.35912 0.65808 0.91166 0.0
C216 C 0.33573 0.61866 0.92209 0.0
C217 C 0.38157 0.6433 0.91014 0.0
C218 C 0.35858 0.60454 0.92039 0.0
N219 N 0.38084 0.61705 0.91449 0.0
C220 C 0.33922 0.70179 0.97513 0.0
C221 C 0.36089 0.72652 0.94267 0.0
C222 C 0.35116 0.71606 0.99502 0.0
N223 N 0.34325 0.70831 0.94962 0.0
C224 C 0.37318 0.74115 0.96176 0.0
C225 C 0.36725 0.73688 0.98816 0.0
H226 H 0.32493 0.68727 0.98002 0.0
H227 H 0.36405 0.73119 0.92242 0.0
C228 C 0.31792 0.67772 0.83192 0.0
N229 N 0.31772 0.66116 0.85269 0.0
C230 C 0.31302 0.66828 0.80691 0.0
C231 C 0.31019 0.6246 0.82483 0.0
C232 C 0.31597 0.63483 0.84949 0.0
C233 C 0.30661 0.64179 0.80359 0.0
H234 H 0.31872 0.6986 0.83508 0.0
H235 H 0.31529 0.62221 0.86646 0.0
O236 O 0.28316 0.71024 0.93521 0.0
O237 O 0.27004 0.68392 0.88516 0.0
O238 O 0.32096 0.71276 0.88888 0.0
O239 O 0.31372 0.65958 0.91889 0.0
H240 H 0.26849 0.70285 0.98429 0.0
H241 H 0.3052 0.75671 0.93155 0.0
H242 H 0.27569 0.73436 0.02051 0.0
H243 H 0.31153 0.78741 0.96859 0.0
H244 H 0.24752 0.60754 0.84554 0.0
H245 H 0.24804 0.70401 0.84288 0.0
H246 H 0.26751 0.63218 0.8821 0.0
H247 H 0.22895 0.67823 0.80695 0.0
H248 H 0.22621 0.79427 0.89888 0.0
H249 H 0.25336 0.76727 0.82327 0.0
H250 H 0.24484 0.62859 -0.00026 0.0
H251 H 0.20025 0.62015 0.92844 0.0
H252 H 0.36327 0.69661 0.86502 0.0
H253 H 0.32002 0.7646 0.88803 0.0
H254 H 0.39629 0.72589 0.84614 0.0
H255 H 0.35379 0.79265 0.86867 0.0
H256 H 0.35973 0.67891 0.90824 0.0
H257 H 0.31796 0.60874 0.92668 0.0
H258 H 0.39957 0.65269 0.9055 0.0
H259 H 0.35861 0.58363 0.92371 0.0
H260 H 0.3463 0.71232 0.01528 0.0
H261 H 0.38586 0.75688 0.95591 0.0
H262 H 0.31137 0.68211 0.79094 0.0
H263 H 0.30543 0.60404 0.82331 0.0
Li264 Li 0.55109 0.02725 0.1679 0.0
Li265 Li 0.51787 0.06014 0.17 0.0
Li266 Li 0.51337 0.0231 0.14102 0.0
Li267 Li 0.54484 0.05615 0.13005 0.0
C268 C 0.51554 0.00379 0.19739 0.0
N269 N 0.51721 0.96459 0.23455 0.0
C270 C 0.5136 0.00997 0.22395 0.0
C271 C 0.51806 0.97768 0.18969 0.0
C272 C 0.51456 0.98987 0.24245 0.0
C273 C 0.51894 0.95814 0.20878 0.0
C274 C 0.56113 0.09215 0.16793 0.0
C275 C 0.55453 0.1363 0.15262 0.0
N276 N 0.57187 0.14505 0.17045 0.0
C277 C 0.57893 0.10157 0.18604 0.0
C278 C 0.54884 0.10964 0.15102 0.0
C279 C 0.58408 0.12838 0.18704 0.0
C280 C 0.59232 0.99272 0.1755 0.0
N281 N 0.57625 0.00959 0.18782 0.0
C282 C 0.59602 0.00068 0.22902 0.0
C283 C 0.57809 0.01423 0.21395 0.0
C284 C 0.61211 0.9823 0.21692 0.0
C285 C 0.61031 0.97857 0.18979 0.0
H286 H 0.59127 0.99032 0.15456 0.0
H287 H 0.56551 0.02834 0.22309 0.0
C288 C 0.475 0.06801 0.19802 0.0
N289 N 0.49766 0.08 0.19285 0.0
C290 C 0.45684 0.08015 0.21374 0.0
C291 C 0.4862 0.11632 0.21965 0.0
C292 C 0.50382 0.10349 0.20361 0.0
C293 C 0.46226 0.10473 0.22445 0.0
H294 H 0.47086 0.04914 0.18942 0.0
H295 H 0.5221 0.11245 0.19955 0.0
C296 C 0.5523 -0.0013 0.11212 0.0
N297 N 0.56143 0.96069 0.07469 0.0
C298 C 0.55374 0.00541 0.08562 0.0
C299 C 0.55506 0.97248 0.11947 0.0
C300 C 0.55839 0.98597 0.06703 0.0
C301 C 0.55981 0.95361 0.10029 0.0
C302 C 0.48663 0.05941 0.1161 0.0
C303 C 0.48997 0.05323 0.08967 0.0
C304 C 0.46196 0.06365 0.12581 0.0
C305 C 0.46854 0.05115 0.07344 0.0
C306 C 0.441 0.06139 0.10896 0.0
N307 N 0.4447 0.05522 0.08334 0.0
C308 C 0.46922 0.9916 0.1449 0.0
C309 C 0.48838 0.99166 0.10292 0.0
C310 C 0.45094 0.97337 0.13673 0.0
N311 N 0.48791 -0.0003 0.12821 0.0
C312 C 0.4704 0.97381 0.09384 0.0
C313 C 0.45177 0.96372 0.111 0.0
H314 H 0.46883 -0.00113 0.16476 0.0
H315 H 0.50286 -0.00114 0.08975 0.0
C316 C 0.58777 0.06069 0.10149 0.0
N317 N 0.56373 0.07066 0.10217 0.0
C318 C 0.60018 0.05751 0.07764 0.0
C319 C 0.56458 0.079 0.05631 0.0
C320 C 0.55272 0.08161 0.08072 0.0
C321 C 0.58762 0.06476 0.05435 0.0
H322 H 0.59571 0.05177 0.11889 0.0
H323 H 0.53356 0.08953 0.08195 0.0
O324 O 0.51505 0.02324 0.17904 0.0
O325 O 0.55604 0.06592 0.16681 0.0
O326 O 0.54949 0.01779 0.13079 0.0
O327 O 0.50738 0.06124 0.13238 0.0
H328 H 0.5116 0.03012 0.23018 0.0
H329 H 0.51928 0.97258 0.1692 0.0
H330 H 0.51324 0.99436 0.26309 0.0
H331 H 0.52097 0.93785 0.20311 0.0
H332 H 0.54514 0.15005 0.1397 0.0
H333 H 0.58863 0.08827 0.19924 0.0
H334 H 0.53498 0.10282 0.13688 0.0
H335 H 0.59778 0.13595 0.201 0.0
H336 H 0.59696 0.00413 0.24991 0.0
H337 H 0.62284 0.965 0.17971 0.0
H338 H 0.43863 0.07059 0.2172 0.0
H339 H 0.49088 0.13544 0.22746 0.0
H340 H 0.55106 0.02535 0.07933 0.0
H341 H 0.55396 0.96676 0.1398 0.0
H342 H 0.55963 0.99104 0.04652 0.0
H343 H 0.56224 0.93331 0.10577 0.0
H344 H 0.50883 0.04941 0.08187 0.0
H345 H 0.45897 0.06869 0.1461 0.0
H346 H 0.47086 0.04613 0.05301 0.0
H347 H 0.4218 0.06456 0.11624 0.0
H348 H 0.43674 0.96649 0.15054 0.0
H349 H 0.47213 0.96698 0.07388 0.0
H350 H 0.6178 0.04638 0.07748 0.0
H351 H 0.55458 0.0857 0.03901 0.0
Li352 Li 0.68468 0.17736 0.61016 0.0
Li353 Li 0.67428 0.19806 0.56992 0.0
Li354 Li 0.71421 0.17406 0.5729 0.0
Li355 Li 0.70762 0.21775 0.59736 0.0
C356 C 0.65665 0.14564 0.57692 0.0
N357 N 0.61187 0.11702 0.58011 0.0
C358 C 0.63356 0.15808 0.5829 0.0
C359 C 0.65698 0.11866 0.57251 0.0
C360 C 0.61112 0.14328 0.58442 0.0
C361 C 0.63414 0.10452 0.57423 0.0
C362 C 0.6533 0.22855 0.61636 0.0
C363 C 0.63702 0.27156 0.62649 0.0
N364 N 0.61614 0.26049 0.63792 0.0
C365 C 0.63174 0.2176 0.62837 0.0
C366 C 0.65604 0.25576 0.61554 0.0
C367 C 0.61316 0.23407 0.63909 0.0
C368 C 0.67477 0.17775 0.66265 0.0
N369 N 0.67497 0.16118 0.64188 0.0
C370 C 0.6825 0.12463 0.66976 0.0
C371 C 0.67672 0.13485 0.64509 0.0
C372 C 0.68608 0.14183 0.69098 0.0
C373 C 0.67967 0.16831 0.68766 0.0
H374 H 0.67397 0.19863 0.65948 0.0
H375 H 0.6774 0.12223 0.62812 0.0
C376 C 0.65346 0.2018 0.51943 0.0
N377 N 0.64943 0.20832 0.54493 0.0
C378 C 0.64152 0.21606 0.49953 0.0
C379 C 0.61951 0.24117 0.53278 0.0
C380 C 0.6318 0.22654 0.55188 0.0
C381 C 0.62544 0.23689 0.50639 0.0
H382 H 0.66776 0.18727 0.51455 0.0
H383 H 0.62864 0.23122 0.57213 0.0
C384 C 0.73334 0.16997 0.62952 0.0
N385 N 0.75538 0.14182 0.66987 0.0
C386 C 0.74435 0.18296 0.65078 0.0
C387 C 0.73367 0.14261 0.62876 0.0
C388 C 0.75535 0.1684 0.67098 0.0
C389 C 0.74491 0.12873 0.64934 0.0
C390 C 0.70628 0.22761 0.53922 0.0
C391 C 0.71473 0.22132 0.51405 0.0
C392 C 0.6942 0.2516 0.54369 0.0
C393 C 0.71068 0.23908 0.49366 0.0
C394 C 0.69055 0.26885 0.52282 0.0
N395 N 0.69876 0.26227 0.49843 0.0
C396 C 0.7342 0.1476 0.52917 0.0
C397 C 0.75964 0.14453 0.56732 0.0
C398 C 0.75152 0.13201 0.51534 0.0
N399 N 0.73852 0.15343 0.5547 0.0
C400 C 0.77675 0.12788 0.55471 0.0
C401 C 0.77309 0.12136 0.52817 0.0
H402 H 0.71731 0.15517 0.51953 0.0
H403 H 0.76324 0.15015 0.5873 0.0
C404 C 0.72279 0.25025 0.63736 0.0
N405 N 0.72397 0.24759 0.611 0.0
C406 C 0.73896 0.26776 0.65011 0.0
C407 C 0.75448 0.28218 0.60795 0.0
C408 C 0.73864 0.26365 0.59606 0.0
C409 C 0.75605 0.2833 0.63548 0.0
H410 H 0.71072 0.23724 0.64863 0.0
H411 H 0.73915 0.26114 0.57507 0.0
O412 O 0.67896 0.15959 0.57568 0.0
O413 O 0.67173 0.21277 0.60568 0.0
O414 O 0.72265 0.18394 0.60939 0.0
O415 O 0.70952 0.21025 0.55934 0.0
H416 H 0.63294 0.1789 0.58629 0.0
H417 H 0.67475 0.10874 0.56795 0.0
H418 H 0.59311 0.15267 0.58905 0.0
H419 H 0.63412 0.08361 0.57093 0.0
H420 H 0.63887 0.29264 0.62591 0.0
H421 H 0.62942 0.19659 0.62952 0.0
H422 H 0.67265 0.26462 0.60655 0.0
H423 H 0.59638 0.22586 0.6484 0.0
H424 H 0.68726 0.10407 0.67127 0.0
H425 H 0.68132 0.18215 0.70362 0.0
H426 H 0.64639 0.21231 0.47927 0.0
H427 H 0.60684 0.2569 0.53863 0.0
H428 H 0.74466 0.20404 0.65166 0.0
H429 H 0.72517 0.13219 0.61249 0.0
H430 H 0.76374 0.17827 0.6876 0.0
H431 H 0.74517 0.10757 0.64905 0.0
H432 H 0.72418 0.20288 0.51026 0.0
H433 H 0.68748 0.25671 0.56302 0.0
H434 H 0.71698 0.23442 0.47405 0.0
H435 H 0.68115 0.28744 0.526 0.0
H436 H 0.74785 0.12863 0.49481 0.0
H437 H 0.79243 0.12014 0.56612 0.0
H438 H 0.73933 0.26731 0.67126 0.0
H439 H 0.76648 0.29428 0.59565 0.0
Li440 Li 0.01333 0.47143 0.85358 0.0
Li441 Li 0.04482 0.4384 0.86454 0.0
Li442 Li 0.05106 0.46731 0.82669 0.0
Li443 Li 0.01785 0.43441 0.82458 0.0
C444 C 0.05228 0.49584 0.88249 0.0
N445 N 0.06143 0.53382 0.91993 0.0
C446 C 0.05369 0.48911 0.90899 0.0
C447 C 0.05508 0.52205 0.87515 0.0
C448 C 0.05835 0.50854 0.92758 0.0
C449 C 0.05984 0.54092 0.89434 0.0
C450 C 0.9866 0.43511 0.87847 0.0
C451 C 0.94097 0.43312 0.88558 0.0
N452 N 0.94464 0.43929 0.9112 0.0
C453 C 0.98992 0.44129 0.9049 0.0
C454 C 0.96193 0.43086 0.86875 0.0
C455 C 0.96847 0.44336 0.92111 0.0
C456 C 0.96914 0.50288 0.8497 0.0
N457 N 0.98785 0.49481 0.86639 0.0
C458 C 0.97034 0.52071 0.90074 0.0
C459 C 0.98834 0.50287 0.89167 0.0
C460 C 0.95169 0.53077 0.88359 0.0
C461 C 0.95086 0.5211 0.85787 0.0
H462 H 0.96874 0.49559 0.82985 0.0
H463 H 0.00283 0.49569 0.90483 0.0
C464 C 0.08774 0.43387 0.8931 0.0
N465 N 0.06371 0.42389 0.89242 0.0
C466 C 0.10016 0.43705 0.91695 0.0
C467 C 0.06456 0.41556 0.93828 0.0
C468 C 0.05271 0.41294 0.91387 0.0
C469 C 0.0876 0.4298 0.94024 0.0
H470 H 0.09568 0.4428 0.87569 0.0
H471 H 0.03355 0.40502 0.91264 0.0
C472 C 0.01548 0.49084 0.79728 0.0
N473 N 0.01706 0.53018 0.76027 0.0
C474 C 0.0135 0.48475 0.7707 0.0
C475 C 0.01797 0.51691 0.80507 0.0
C476 C 0.01442 0.50493 0.75227 0.0
C477 C 0.01881 0.53653 0.78606 0.0
C478 C 0.06113 0.40241 0.82665 0.0
C479 C 0.07892 0.393 0.80852 0.0
C480 C 0.04885 0.38492 0.84356 0.0
C481 C 0.08408 0.36619 0.80751 0.0
C482 C 0.05455 0.35825 0.84195 0.0
N483 N 0.07189 0.34952 0.82411 0.0
C484 C 0.09231 0.50182 0.8191 0.0
C485 C 0.07801 0.48038 0.78063 0.0
C486 C 0.1103 0.51598 0.80481 0.0
N487 N 0.07621 0.48498 0.80677 0.0
C488 C 0.09594 0.49394 0.76557 0.0
C489 C 0.11207 0.51228 0.77767 0.0
H490 H 0.09129 0.50418 0.84005 0.0
H491 H 0.0654 0.46631 0.77149 0.0
C492 C 0.975 0.42656 0.79653 0.0
N493 N -0.00235 0.41456 0.80172 0.0
C494 C 0.95684 0.41443 0.78081 0.0
C495 C 0.98619 0.37824 0.77492 0.0
C496 C 0.0038 0.39106 0.79097 0.0
C497 C 0.96225 0.38985 0.7701 0.0
H498 H 0.97086 0.44543 0.80513 0.0
H499 H 0.02207 0.38208 0.79505 0.0
O500 O 0.04945 0.47676 0.86381 0.0
O501 O 0.00736 0.43329 0.86221 0.0
O502 O 0.01503 0.47131 0.81556 0.0
O503 O 0.05602 0.42864 0.82777 0.0
H504 H 0.05097 0.46918 0.91527 0.0
H505 H 0.054 0.52779 0.85482 0.0
H506 H 0.05957 0.50347 0.94809 0.0
H507 H 0.0623 0.56122 0.88887 0.0
H508 H 0.92177 0.42995 0.87828 0.0
H509 H 0.00877 0.44511 0.91271 0.0
H510 H 0.95896 0.42583 0.84845 0.0
H511 H 0.97078 0.44838 0.94154 0.0
H512 H 0.97208 0.52755 0.9207 0.0
H513 H 0.93664 0.52795 0.84406 0.0
H514 H 0.11777 0.44819 0.91711 0.0
H515 H 0.05456 0.40886 0.95558 0.0
H516 H 0.01152 0.46463 0.76439 0.0
H517 H 0.01922 0.52194 0.82558 0.0
H518 H 0.01308 0.50051 0.73162 0.0
H519 H 0.02083 0.5568 0.7918 0.0
H520 H 0.08861 0.40631 0.79532 0.0
H521 H 0.03499 0.39173 0.8577 0.0
H522 H 0.09777 0.35864 0.79354 0.0
H523 H 0.04517 0.3445 0.85487 0.0
H524 H 0.12285 0.52951 0.81489 0.0
H525 H 0.09685 0.49052 0.74467 0.0
H526 H 0.93864 0.42401 0.77733 0.0
H527 H 0.99086 0.35911 0.76712 0.0
Li528 Li 0.8184 0.79645 0.0699 0.0
Li529 Li 0.80801 0.81717 0.11013 0.0
Li530 Li 0.78507 0.77677 0.09735 0.0
Li531 Li 0.77847 0.82045 0.07287 0.0
C532 C 0.83938 0.76595 0.11634 0.0
N533 N 0.8765 0.73397 0.13788 0.0
C534 C 0.86094 0.77688 0.12836 0.0
C535 C 0.83661 0.73875 0.1155 0.0
C536 C 0.8795 0.76038 0.13908 0.0
C537 C 0.85562 0.72292 0.12643 0.0
C538 C 0.83605 0.84885 0.07686 0.0
C539 C 0.8586 0.88994 0.0741 0.0
N540 N 0.88085 0.87743 0.08 0.0
C541 C 0.85912 0.8364 0.08287 0.0
C542 C 0.83574 0.87583 0.0724 0.0
C543 C 0.88157 0.85118 0.08437 0.0
C544 C 0.83922 0.79274 0.01941 0.0
N545 N 0.84324 0.78619 0.04491 0.0
C546 C 0.87315 0.75334 0.03274 0.0
C547 C 0.86086 0.76796 0.05185 0.0
C548 C 0.86724 0.75765 0.00635 0.0
C549 C 0.85117 0.77849 -0.00049 0.0
H550 H 0.82494 0.80727 0.01453 0.0
H551 H 0.86401 0.76326 0.07209 0.0
C552 C 0.81793 0.81681 0.16261 0.0
N553 N 0.81772 0.83337 0.14184 0.0
C554 C 0.81303 0.82626 0.18762 0.0
C555 C 0.8102 0.86994 0.16969 0.0
C556 C 0.81597 0.85969 0.14502 0.0
C557 C 0.80662 0.85275 0.19093 0.0
H558 H 0.81873 0.79593 0.15946 0.0
H559 H 0.81529 0.87231 0.12805 0.0
C560 C 0.7864 0.76692 0.0392 0.0
N561 N 0.79392 0.73232 -0.00164 0.0
C562 C 0.77796 0.77325 0.01402 0.0
C563 C 0.79847 0.74292 0.04364 0.0
C564 C 0.78202 0.75552 0.99362 0.0
C565 C 0.80212 0.7257 0.02274 0.0
C566 C 0.75935 0.82459 0.12949 0.0
C567 C 0.74834 0.81162 0.15077 0.0
C568 C 0.75901 0.85194 0.12869 0.0
C569 C 0.73735 0.8262 0.17095 0.0
C570 C 0.74778 0.86584 0.14925 0.0
N571 N 0.73732 0.85279 0.16981 0.0
C572 C 0.76989 0.7443 0.13738 0.0
C573 C 0.75406 0.73086 0.09609 0.0
C574 C 0.75372 0.72681 0.15015 0.0
N575 N 0.76872 0.74694 0.11102 0.0
C576 C 0.73823 0.71233 0.10799 0.0
C577 C 0.73664 0.71124 0.13552 0.0
H578 H 0.78195 0.75733 0.14864 0.0
H579 H 0.75357 0.73334 0.0751 0.0
C580 C 0.7585 0.84696 0.02917 0.0
N581 N 0.75416 0.84108 0.05468 0.0
C582 C 0.74118 0.86255 0.01534 0.0
C583 C 0.7159 0.86659 0.05469 0.0
C584 C 0.73301 0.84994 0.0673 0.0
C585 C 0.71959 0.87317 0.02816 0.0
H586 H 0.7754 0.83941 0.01953 0.0
H587 H 0.7294 0.84429 0.08726 0.0
O588 O 0.82096 0.78176 0.10566 0.0
O589 O 0.81372 0.83493 0.07564 0.0
O590 O 0.78315 0.78426 0.05933 0.0
O591 O 0.77004 0.81059 0.10938 0.0
H592 H 0.86328 0.79788 0.12952 0.0
H593 H 0.82 0.72991 0.10649 0.0
H594 H 0.89629 0.76857 0.14839 0.0
H595 H 0.85376 0.70185 0.12584 0.0
H596 H 0.85864 0.91085 0.07075 0.0
H597 H 0.85971 0.81558 0.08631 0.0
H598 H 0.81798 0.88576 0.06781 0.0
H599 H 0.89957 0.84178 0.08902 0.0
H600 H 0.88582 0.7376 0.03858 0.0
H601 H 0.84631 0.78226 0.97925 0.0
H602 H 0.81139 0.81244 0.20359 0.0
H603 H 0.80544 0.8905 0.17119 0.0
H604 H 0.76852 0.7917 0.01025 0.0
H605 H 0.80517 0.73778 0.06297 0.0
H606 H 0.77572 0.76021 0.97401 0.0
H607 H 0.81151 0.7071 0.02591 0.0
H608 H 0.74804 0.79054 0.15168 0.0
H609 H 0.76751 0.86234 0.1124 0.0
H610 H 0.72896 0.81635 0.18759 0.0
H611 H 0.74752 0.88701 0.14893 0.0
H612 H 0.75334 0.72728 0.17129 0.0
H613 H 0.72624 0.70021 0.09569 0.0
H614 H 0.74486 0.86596 0.99482 0.0
H615 H 0.70021 0.87431 0.0661 0.0
Li616 Li 0.44783 0.55616 0.36454 0.0
Li617 Li 0.47931 0.52312 0.35357 0.0
Li618 Li 0.4748 0.56016 0.32459 0.0
Li619 Li 0.44159 0.52726 0.32669 0.0
C620 C 0.50604 0.55944 0.37849 0.0
N621 N 0.54798 0.55526 0.41124 0.0
C622 C 0.50271 0.55325 0.40492 0.0
C623 C 0.53071 0.56369 0.36878 0.0
C624 C 0.52414 0.55118 0.42114 0.0
C625 C 0.55167 0.56144 0.38563 0.0
C626 C 0.44038 0.49871 0.38248 0.0
C627 C 0.43287 0.45362 0.39431 0.0
N628 N 0.43125 0.4607 0.4199 0.0
C629 C 0.43895 0.50542 0.40898 0.0
C630 C 0.43762 0.4725 0.37513 0.0
C631 C 0.43429 0.48598 0.42757 0.0
C632 C 0.4049 0.56069 0.39311 0.0
N633 N 0.42894 0.57066 0.39242 0.0
C634 C 0.42808 0.579 0.43828 0.0
C635 C 0.43994 0.58161 0.41388 0.0
C636 C 0.40505 0.56475 0.44025 0.0
C637 C 0.39249 0.55751 0.41696 0.0
H638 H 0.39696 0.55177 0.3757 0.0
H639 H 0.4591 0.58954 0.41265 0.0
C640 C 0.52347 0.49164 0.34969 0.0
N641 N 0.50478 0.49973 0.36639 0.0
C642 C 0.54176 0.47342 0.35786 0.0
C643 C 0.5223 0.47384 0.40074 0.0
C644 C 0.5043 0.49168 0.39167 0.0
C645 C 0.54093 0.46376 0.38358 0.0
H646 H 0.52387 0.49893 0.32984 0.0
H647 H 0.48982 0.49888 0.40484 0.0
C648 C 0.43152 0.59217 0.32666 0.0
N649 N 0.42077 0.64505 0.32414 0.0
C650 C 0.41373 0.60158 0.30854 0.0
C651 C 0.44381 0.60965 0.34357 0.0
C652 C 0.40857 0.62839 0.30754 0.0
C653 C 0.43811 0.63631 0.34197 0.0
C654 C 0.47715 0.5038 0.29722 0.0
C655 C 0.4791 0.50997 0.27066 0.0
C656 C 0.47465 0.4777 0.30493 0.0
C657 C 0.47815 0.48985 0.25217 0.0
C658 C 0.47378 0.45814 0.28586 0.0
N659 N 0.47551 0.46458 0.26009 0.0
C660 C 0.51767 0.56805 0.29657 0.0
C661 C 0.48884 0.60352 0.29098 0.0
C662 C 0.53582 0.58018 0.28085 0.0
N663 N 0.49501 0.58003 0.30174 0.0
C664 C 0.50646 0.61636 0.27494 0.0
C665 C 0.53041 0.60476 0.27014 0.0
H666 H 0.52181 0.54917 0.30516 0.0
H667 H 0.47057 0.61249 0.29505 0.0
C668 C 0.40037 0.49273 0.31909 0.0
N669 N 0.41644 0.5096 0.30677 0.0
C670 C 0.38238 0.47857 0.3048 0.0
C671 C 0.39667 0.50068 0.26557 0.0
C672 C 0.4146 0.51423 0.28064 0.0
C673 C 0.38058 0.4823 0.27767 0.0
H674 H 0.40141 0.49033 0.34003 0.0
H675 H 0.42719 0.52834 0.2715 0.0
O676 O 0.48529 0.56126 0.36221 0.0
O677 O 0.44319 0.5178 0.36381 0.0
O678 O 0.43663 0.56593 0.32778 0.0
O679 O 0.47763 0.52327 0.31556 0.0
H680 H 0.48385 0.54943 0.41272 0.0
H681 H 0.5337 0.56874 0.34849 0.0
H682 H 0.52183 0.54616 0.44157 0.0
H683 H 0.57087 0.56461 0.37834 0.0
H684 H 0.43044 0.43332 0.38883 0.0
H685 H 0.44163 0.52536 0.41526 0.0
H686 H 0.43872 0.46677 0.3548 0.0
H687 H 0.43305 0.49105 0.44807 0.0
H688 H 0.43809 0.58569 0.45559 0.0
H689 H 0.37487 0.54637 0.41712 0.0
H690 H 0.55597 0.46655 0.34405 0.0
H691 H 0.52056 0.467 0.4207 0.0
H692 H 0.40404 0.58828 0.29535 0.0
H693 H 0.45767 0.60283 0.35771 0.0
H694 H 0.39487 0.63595 0.29358 0.0
H695 H 0.4475 0.65007 0.35489 0.0
H696 H 0.48109 0.53011 0.2644 0.0
H697 H 0.47342 0.47261 0.32543 0.0
H698 H 0.47947 0.49433 0.23152 0.0
H699 H 0.47176 0.43786 0.29154 0.0
H700 H 0.55403 0.57062 0.27738 0.0
H701 H 0.50178 0.63548 0.26714 0.0
H702 H 0.36985 0.465 0.31488 0.0
H703 H 0.39574 0.50413 0.24468 0.0
Li704 Li 0.36633 0.21958 0.25786 0.0
Li705 Li 0.39329 0.21967 0.29998 0.0
Li706 Li 0.38733 0.18025 0.27313 0.0
Li707 Li 0.35237 0.19672 0.29703 0.0
C708 C 0.42108 0.20674 0.24428 0.0
N709 N 0.45599 0.18959 0.20743 0.0
C710 C 0.44726 0.20684 0.24996 0.0
C711 C 0.41268 0.1982 0.21974 0.0
C712 C 0.4646 0.19801 0.23109 0.0
C713 C 0.43063 0.18955 0.2014 0.0
C714 C 0.33811 0.24605 0.3054 0.0
C715 C 0.31713 0.26157 0.34457 0.0
N716 N 0.29571 0.26684 0.33039 0.0
C717 C 0.31586 0.25164 0.29128 0.0
C718 C 0.33871 0.25099 0.33233 0.0
C719 C 0.29463 0.2621 0.30424 0.0
C720 C 0.3336 0.24221 0.21974 0.0
N721 N 0.35807 0.24067 0.22857 0.0
C722 C 0.37113 0.27487 0.19968 0.0
C723 C 0.37692 0.25587 0.21833 0.0
C724 C 0.34549 0.27908 0.19235 0.0
C725 C 0.32677 0.26157 0.20177 0.0
H726 H 0.31908 0.22954 0.22794 0.0
H727 H 0.39628 0.25416 0.2256 0.0
C728 C 0.4406 0.22833 0.32434 0.0
N729 N 0.41677 0.23834 0.32096 0.0
C730 C 0.45831 0.24121 0.34023 0.0
C731 C 0.426 0.27358 0.35003 0.0
C732 C 0.4094 0.26075 0.33298 0.0
C733 C 0.45112 0.26411 0.35381 0.0
H734 H 0.44584 0.21029 0.31467 0.0
H735 H 0.39051 0.26859 0.32957 0.0
C736 C 0.33985 0.16013 0.25808 0.0
N737 N 0.31651 0.11179 0.25401 0.0
C738 C 0.34189 0.14202 0.27845 0.0
C739 C 0.32586 0.15371 0.23567 0.0
C740 C 0.32997 0.11767 0.27602 0.0
C741 C 0.31423 0.12915 0.23397 0.0
C742 C 0.38989 0.17211 0.33428 0.0
C743 C 0.39274 0.14493 0.3355 0.0
C744 C 0.39287 0.18706 0.35699 0.0
C745 C 0.39801 0.13311 0.35956 0.0
C746 C 0.39812 0.1745 0.38067 0.0
N747 N 0.40054 0.14801 0.38146 0.0
C748 C 0.42973 0.14827 0.27358 0.0
C749 C 0.40007 0.13823 0.2398 0.0
C750 C 0.44808 0.13208 0.26226 0.0
N751 N 0.40663 0.15154 0.26179 0.0
C752 C 0.4177 0.12157 0.22802 0.0
C753 C 0.44229 0.11908 0.23885 0.0
H754 H 0.43447 0.15968 0.29074 0.0
H755 H 0.38194 0.14196 0.23035 0.0
C756 C 0.29948 0.18781 0.30499 0.0
N757 N 0.32249 0.18962 0.31728 0.0
C758 C 0.27685 0.19142 0.31908 0.0
C759 C 0.30203 0.19677 0.35834 0.0
C760 C 0.32404 0.1923 0.34364 0.0
C761 C 0.27805 0.19809 0.3458 0.0
H762 H 0.29871 0.18589 0.28394 0.0
H763 H 0.34245 0.19422 0.3529 0.0
O764 O 0.40366 0.21428 0.26283 0.0
O765 O 0.35901 0.2355 0.293 0.0
O766 O 0.35143 0.18408 0.25986 0.0
O767 O 0.38543 0.18409 0.31076 0.0
H768 H 0.45413 0.21346 0.26877 0.0
H769 H 0.39246 0.19776 0.21511 0.0
H770 H 0.48491 0.19778 0.2353 0.0
H771 H 0.42437 0.18265 0.18244 0.0
H772 H 0.3173 0.26529 0.36541 0.0
H773 H 0.31487 0.24778 0.27056 0.0
H774 H 0.35535 0.24599 0.34387 0.0
H775 H 0.27728 0.26643 0.29351 0.0
H776 H 0.38637 0.2873 0.19249 0.0
H777 H 0.3067 0.26398 0.19707 0.0
H778 H 0.47739 0.23314 0.34154 0.0
H779 H 0.41875 0.29055 0.36021 0.0
H780 H 0.35239 0.14675 0.296 0.0
H781 H 0.3241 0.16756 0.21974 0.0
H782 H 0.33139 0.10347 0.29166 0.0
H783 H 0.30339 0.1239 0.21671 0.0
H784 H 0.39108 0.13308 0.31803 0.0
H785 H 0.39085 0.20811 0.35642 0.0
H786 H 0.40019 0.1121 0.36079 0.0
H787 H 0.40028 0.18582 0.39843 0.0
H788 H 0.46686 0.1305 0.27112 0.0
H789 H 0.41275 0.11212 0.20973 0.0
H790 H 0.25886 0.1911 0.30859 0.0
H791 H 0.30445 0.20194 0.3787 0.0
Li792 Li 0.02845 0.17172 0.57046 0.0
Li793 Li 0.03503 0.14722 0.52679 0.0
Li794 Li 0.05799 0.13447 0.56718 0.0
Li795 Li 0.06837 0.17469 0.54643 0.0
C796 C 0.00934 0.11509 0.57461 0.0
N797 N 0.98732 0.07477 0.60282 0.0
C798 C -0.00167 0.09382 0.56165 0.0
C799 C 0.00901 0.11589 0.60197 0.0
C800 C 0.98734 0.07363 0.57623 0.0
C801 C -0.00222 0.09533 0.61587 0.0
C802 C 0.03636 0.20536 0.51689 0.0
C803 C 0.05207 0.22177 0.47565 0.0
N804 N 0.04391 0.24616 0.48225 0.0
C805 C 0.02795 0.23055 0.5232 0.0
C806 C 0.04842 0.20089 0.49289 0.0
C807 C 0.03202 0.25093 0.50545 0.0
C808 C 0.00847 0.21545 0.59692 0.0
N809 N 0.00415 0.18992 0.59109 0.0
C810 C 0.9659 0.18991 0.61663 0.0
C811 C 0.98302 0.1773 0.59998 0.0
C812 C 0.96958 0.21646 0.62315 0.0
C813 C 0.99115 0.22928 0.61251 0.0
H814 H 0.02536 0.22509 0.58935 0.0
H815 H 0.97941 0.15732 0.59436 0.0
C816 C 0.01986 0.10718 0.49433 0.0
N817 N 0.01867 0.13355 0.49697 0.0
C818 C 0.00369 0.09441 0.47684 0.0
C819 C 0.98816 0.13656 0.46237 0.0
C820 C 0.004 0.14846 0.48089 0.0
C821 C 0.98659 0.10903 0.46128 0.0
H822 H 0.03193 0.09593 0.50735 0.0
H823 H 0.00349 0.16946 0.48338 0.0
C824 C 0.08603 0.16775 0.59884 0.0
N825 N 0.13084 0.16461 0.62742 0.0
C826 C 0.10911 0.16177 0.58639 0.0
C827 C 0.08572 0.17218 0.62582 0.0
C828 C 0.13157 0.16027 0.60117 0.0
C829 C 0.10858 0.17049 0.63994 0.0
C830 C 0.08935 0.12823 0.51597 0.0
C831 C 0.11092 0.11624 0.52692 0.0
C832 C 0.08659 0.12903 0.48877 0.0
C833 C 0.1295 0.10551 0.51044 0.0
C834 C 0.1056 0.11808 0.47296 0.0
N835 N 0.12649 0.10667 0.48402 0.0
C836 C 0.06793 0.08198 0.56684 0.0
C837 C 0.06597 0.09959 0.60972 0.0
C838 C 0.06304 0.05698 0.5763 0.0
N839 N 0.06772 0.10276 0.58339 0.0
C840 C 0.06021 0.07492 0.61997 0.0
C841 C 0.05663 0.05368 0.60279 0.0
H842 H 0.06872 0.08513 0.54595 0.0
H843 H 0.06529 0.11657 0.62232 0.0
C844 C 0.0892 0.22517 0.54272 0.0
N845 N 0.0932 0.19968 0.53615 0.0
C846 C 0.10112 0.24509 0.52847 0.0
C847 C 0.12306 0.21187 0.50326 0.0
C848 C 0.11078 0.19275 0.51788 0.0
C849 C 0.11716 0.23825 0.5076 0.0
H850 H 0.07494 0.23004 0.55729 0.0
H851 H 0.11392 0.17251 0.51316 0.0
O852 O 0.02002 0.13521 0.56062 0.0
O853 O 0.03311 0.18525 0.53425 0.0
O854 O 0.06371 0.16896 0.58492 0.0
O855 O 0.07093 0.13892 0.53176 0.0
H856 H -0.00198 0.09291 0.54057 0.0
H857 H 0.01751 0.13218 0.61237 0.0
H858 H 0.97895 0.057 0.56638 0.0
H859 H -0.00247 0.09564 0.63704 0.0
H860 H 0.06145 0.21858 0.45705 0.0
H861 H 0.01852 0.23435 0.54166 0.0
H862 H 0.05511 0.18155 0.48776 0.0
H863 H 0.02574 0.27056 0.51013 0.0
H864 H 0.95023 0.17851 0.62437 0.0
H865 H 0.99482 0.24981 0.61588 0.0
H866 H 0.00332 0.07326 0.47731 0.0
H867 H 0.97616 0.14885 0.45027 0.0
H868 H 0.10971 0.15835 0.56557 0.0
H869 H 0.06796 0.17675 0.63576 0.0
H870 H 0.14957 0.15564 0.59176 0.0
H871 H 0.10862 0.17381 0.66084 0.0
H872 H 0.11326 0.11511 0.54792 0.0
H873 H 0.06997 0.13801 0.47991 0.0
H874 H 0.14629 0.09622 0.51865 0.0
H875 H 0.10374 0.11864 0.45188 0.0
H876 H 0.06139 0.041 0.56248 0.0
H877 H 0.05546 0.07342 0.64053 0.0
H878 H 0.09629 0.26535 0.53227 0.0
H879 H 0.1357 0.20604 0.48749 0.0
Li880 Li 0.10536 0.8143 0.77311 0.0
Li881 Li 0.14032 0.79783 0.797 0.0
Li882 Li 0.12637 0.77498 0.75782 0.0
Li883 Li 0.0994 0.77487 0.79994 0.0
C884 C 0.15284 0.83443 0.75806 0.0
N885 N 0.17618 0.88278 0.754 0.0
C886 C 0.1508 0.85254 0.77843 0.0
C887 C 0.16683 0.84086 0.73565 0.0
C888 C 0.16272 0.87688 0.77601 0.0
C889 C 0.17846 0.86542 0.73395 0.0
C890 C 0.1028 0.82243 0.83425 0.0
C891 C 0.09456 0.82002 0.88064 0.0
N892 N 0.09213 0.84651 0.88143 0.0
C893 C 0.09994 0.8496 0.83547 0.0
C894 C 0.09981 0.80747 0.85696 0.0
C895 C 0.09467 0.86142 0.85953 0.0
C896 C 0.06296 0.84628 0.77356 0.0
N897 N 0.08606 0.84302 0.76178 0.0
C898 C 0.07499 0.873 0.72801 0.0
C899 C 0.09262 0.85634 0.73979 0.0
C900 C 0.0504 0.87548 0.73884 0.0
C901 C 0.0446 0.86247 0.76224 0.0
H902 H 0.05822 0.83486 0.79071 0.0
H903 H 0.11075 0.85261 0.73034 0.0
C904 C 0.19321 0.80675 0.80497 0.0
N905 N 0.1702 0.80492 0.81725 0.0
C906 C 0.21583 0.80314 0.81906 0.0
C907 C 0.19064 0.79776 0.85831 0.0
C908 C 0.16864 0.80223 0.84361 0.0
C909 C 0.21463 0.79645 0.84578 0.0
H910 H 0.19399 0.80867 0.78392 0.0
H911 H 0.15023 0.8003 0.85286 0.0
C912 C 0.07161 0.78782 0.74425 0.0
N913 N 0.03669 0.80498 0.70741 0.0
C914 C 0.04543 0.78772 0.74993 0.0
C915 C 0.08001 0.79637 0.71971 0.0
C916 C 0.02808 0.79655 0.73107 0.0
C917 C 0.06206 0.80503 0.70138 0.0
C918 C 0.15458 0.7485 0.80536 0.0
C919 C 0.17684 0.74292 0.79125 0.0
C920 C 0.15397 0.74354 0.83229 0.0
C921 C 0.19807 0.73247 0.80421 0.0
C922 C 0.17555 0.73296 0.84453 0.0
N923 N 0.19697 0.72771 0.83036 0.0
C924 C 0.15909 0.75235 0.71971 0.0
C925 C 0.11577 0.73871 0.71828 0.0
C926 C 0.16593 0.73299 0.70173 0.0
N927 N 0.13462 0.7539 0.72853 0.0
C928 C 0.12156 0.7197 0.69963 0.0
C929 C 0.1472 0.7155 0.6923 0.0
H930 H 0.17362 0.76501 0.72791 0.0
H931 H 0.09641 0.74043 0.72555 0.0
C932 C 0.05209 0.76621 0.8243 0.0
N933 N 0.07592 0.7562 0.82091 0.0
C934 C 0.03438 0.75333 0.84019 0.0
C935 C 0.06668 0.72094 0.84996 0.0
C936 C 0.08328 0.73377 0.83292 0.0
C937 C 0.04156 0.73042 0.85375 0.0
H938 H 0.04686 0.78427 0.81465 0.0
H939 H 0.10217 0.72593 0.82949 0.0
O940 O 0.14126 0.81048 0.75983 0.0
O941 O 0.10726 0.81045 0.81073 0.0
O942 O 0.08904 0.78027 0.76279 0.0
O943 O 0.13368 0.75905 0.79296 0.0
H944 H 0.14031 0.84779 0.79598 0.0
H945 H 0.16859 0.82701 0.71971 0.0
H946 H 0.1613 0.89108 0.79165 0.0
H947 H 0.1893 0.87069 0.7167 0.0
H948 H 0.09239 0.8087 0.89839 0.0
H949 H 0.10161 0.86146 0.81801 0.0
H950 H 0.10183 0.78642 0.85638 0.0
H951 H 0.09249 0.88243 0.86077 0.0
H952 H 0.07994 0.88245 0.70973 0.0
H953 H 0.02582 0.86405 0.7711 0.0
H954 H 0.23383 0.80346 0.80857 0.0
H955 H 0.18822 0.79258 0.87868 0.0
H956 H 0.03857 0.78109 0.76874 0.0
H957 H 0.10023 0.79682 0.71507 0.0
H958 H 0.00778 0.79678 0.73528 0.0
H959 H 0.06831 0.81194 0.68242 0.0
H960 H 0.17784 0.74679 0.77053 0.0
H961 H 0.13732 0.74852 0.84382 0.0
H962 H 0.21542 0.72815 0.79349 0.0
H963 H 0.17537 0.72923 0.86537 0.0
H964 H 0.18599 0.73058 0.69704 0.0
H965 H 0.10632 0.70729 0.69244 0.0
H966 H 0.0153 0.76141 0.84151 0.0
H967 H 0.07392 0.70396 0.86013 0.0
Li968 Li 0.42435 0.81989 0.04635 0.0
Li969 Li 0.43473 0.86009 0.06712 0.0
Li970 Li 0.45767 0.84737 0.02671 0.0
Li971 Li 0.46427 0.82283 0.07036 0.0
C972 C 0.40337 0.86636 0.0159 0.0
N973 N 0.36626 0.88792 0.98392 0.0
C974 C 0.3818 0.87836 0.02683 0.0
C975 C 0.40614 0.86554 0.9887 0.0
C976 C 0.36324 0.88909 0.01033 0.0
C977 C 0.38714 0.87649 0.97287 0.0
C978 C 0.40668 0.82678 0.09875 0.0
C979 C 0.3841 0.82398 0.13982 0.0
N980 N 0.36185 0.82989 0.12729 0.0
C981 C 0.38361 0.8328 0.08629 0.0
C982 C 0.40697 0.8223 0.12572 0.0
C983 C 0.36115 0.83428 0.10105 0.0
C984 C 0.40349 0.76941 0.04267 0.0
N985 N 0.39952 0.7949 0.03606 0.0
C986 C 0.36967 0.78271 0.00316 0.0
C987 C 0.38195 0.80183 0.01777 0.0
C988 C 0.37554 0.75632 0.00754 0.0
C989 C 0.39156 0.74949 0.02843 0.0
H990 H 0.41773 0.76455 0.05725 0.0
H991 H 0.37884 0.82206 0.01302 0.0
C992 C 0.42479 0.91257 0.06683 0.0
N993 N 0.42501 0.89178 0.08336 0.0
C994 C 0.42969 0.93757 0.07631 0.0
C995 C 0.43255 0.91958 0.11996 0.0
C996 C 0.42678 0.89493 0.10969 0.0
C997 C 0.43612 0.94084 0.1028 0.0
H998 H 0.42398 0.90945 0.04594 0.0
H999 H 0.42747 0.87794 0.12228 0.0
C1000 C 0.45633 0.7892 0.01681 0.0
N1001 N 0.44876 0.74837 0.98222 0.0
C1002 C 0.46471 0.76401 0.02316 0.0
C1003 C 0.4443 0.79366 0.9928 0.0
C1004 C 0.46063 0.74361 0.00543 0.0
C1005 C 0.44062 0.77277 0.97558 0.0
C1006 C 0.48338 0.87944 0.07456 0.0
C1007 C 0.49437 0.90075 0.06163 0.0
C1008 C 0.48373 0.8786 0.10192 0.0
C1009 C 0.50536 0.92091 0.07623 0.0
C1010 C 0.49496 0.89914 0.11585 0.0
N1011 N 0.50541 0.91973 0.10281 0.0
C1012 C 0.47285 0.88743 0.99428 0.0
C1013 C 0.48869 0.84616 0.9808 0.0
C1014 C 0.48902 0.90021 0.9768 0.0
N1015 N 0.47403 0.86106 0.99689 0.0
C1016 C 0.50453 0.85808 0.96229 0.0
C1017 C 0.50611 0.8856 0.96122 0.0
H1018 H 0.46079 0.89868 0.00731 0.0
H1019 H 0.48918 0.82516 0.98327 0.0
C1020 C 0.48422 0.77912 0.09687 0.0
N1021 N 0.48858 0.80463 0.09098 0.0
C1022 C 0.50154 0.76528 0.11246 0.0
C1023 C 0.52685 0.80462 0.11646 0.0
C1024 C 0.50974 0.81723 0.09981 0.0
C1025 C 0.52314 0.7781 0.12305 0.0
H1026 H 0.46731 0.76949 0.08934 0.0
H1027 H 0.51336 0.83719 0.09415 0.0
O1028 O 0.42178 0.85566 0.0317 0.0
O1029 O 0.42902 0.82558 0.08484 0.0
O1030 O 0.45961 0.80934 0.03415 0.0
O1031 O 0.47269 0.85935 0.06054 0.0
H1032 H 0.37945 0.8795 0.04783 0.0
H1033 H 0.42276 0.85655 0.97985 0.0
H1034 H 0.34644 0.89839 0.01853 0.0
H1035 H 0.38901 0.87592 0.9518 0.0
H1036 H 0.38404 0.82062 0.16072 0.0
H1037 H 0.38303 0.83626 0.06547 0.0
H1038 H 0.42472 0.8177 0.13566 0.0
H1039 H 0.34316 0.83894 0.09164 0.0
H1040 H 0.35705 0.78853 0.98738 0.0
H1041 H 0.39637 0.72923 0.03226 0.0
H1042 H 0.43133 0.95356 0.0625 0.0
H1043 H 0.43732 0.92107 0.14052 0.0
H1044 H 0.47412 0.76023 0.04163 0.0
H1045 H 0.43763 0.813 0.98764 0.0
H1046 H 0.46688 0.72399 0.01014 0.0
H1047 H 0.43126 0.77594 0.95697 0.0
H1048 H 0.49466 0.90169 0.04055 0.0
H1049 H 0.47525 0.86229 0.11229 0.0
H1050 H 0.51374 0.93757 0.0664 0.0
H1051 H 0.49523 0.89879 0.13701 0.0
H1052 H 0.4894 0.92136 0.97729 0.0
H1053 H 0.51652 0.84579 0.95017 0.0
H1054 H 0.49784 0.74477 0.11588 0.0
H1055 H 0.54255 0.81602 0.12416 0.0
Li1056 Li 0.85236 0.29786 0.69753 0.0
Li1057 Li 0.88732 0.31434 0.72143 0.0
Li1058 Li 0.89328 0.2749 0.6946 0.0
Li1059 Li 0.86631 0.27502 0.73672 0.0
C1060 C 0.88989 0.32245 0.66028 0.0
N1061 N 0.90057 0.34653 0.61309 0.0
C1062 C 0.89275 0.34963 0.65905 0.0
C1063 C 0.89287 0.30749 0.63757 0.0
C1064 C 0.89803 0.36144 0.63499 0.0
C1065 C 0.89813 0.32004 0.61389 0.0
C1066 C 0.83983 0.33446 0.73646 0.0
C1067 C 0.8142 0.36546 0.76055 0.0
N1068 N 0.8165 0.38281 0.74051 0.0
C1069 C 0.84188 0.35257 0.71609 0.0
C1070 C 0.82584 0.3409 0.75886 0.0
C1071 C 0.82996 0.37692 0.7185 0.0
C1072 C 0.79947 0.30678 0.68956 0.0
N1073 N 0.82248 0.30495 0.67728 0.0
C1074 C 0.80204 0.29778 0.63622 0.0
C1075 C 0.82404 0.30225 0.65092 0.0
C1076 C 0.77805 0.29648 0.64875 0.0
C1077 C 0.77685 0.30317 0.67547 0.0
H1078 H 0.79869 0.30871 0.71061 0.0
H1079 H 0.84246 0.30032 0.64167 0.0
C1080 C 0.92972 0.34631 0.72098 0.0
N1081 N 0.90662 0.34305 0.73276 0.0
C1082 C 0.94808 0.36249 0.7323 0.0
C1083 C 0.91769 0.37303 0.76652 0.0
C1084 C 0.90005 0.35638 0.75474 0.0
C1085 C 0.94228 0.3755 0.75571 0.0
H1086 H 0.93447 0.33489 0.70383 0.0
H1087 H 0.88192 0.35266 0.76418 0.0
C1088 C 0.8381 0.24853 0.68918 0.0
N1089 N 0.7957 0.22774 0.6642 0.0
C1090 C 0.81584 0.24296 0.70331 0.0
C1091 C 0.83871 0.24357 0.66226 0.0
C1092 C 0.79461 0.2325 0.69034 0.0
C1093 C 0.81713 0.23298 0.65002 0.0
C1094 C 0.92107 0.28786 0.7503 0.0
C1095 C 0.94725 0.28775 0.74462 0.0
C1096 C 0.91267 0.29642 0.77483 0.0
C1097 C 0.96459 0.29658 0.76348 0.0
C1098 C 0.93061 0.30507 0.79317 0.0
N1099 N 0.95598 0.30502 0.78714 0.0
C1100 C 0.9406 0.26624 0.67025 0.0
C1101 C 0.9094 0.23381 0.66163 0.0
C1102 C 0.95831 0.25336 0.65436 0.0
N1103 N 0.91676 0.25623 0.67364 0.0
C1104 C 0.92601 0.22098 0.64459 0.0
C1105 C 0.95113 0.23045 0.64081 0.0
H1106 H 0.94582 0.2843 0.6799 0.0
H1107 H 0.89052 0.22597 0.66505 0.0
C1108 C 0.83359 0.25239 0.77484 0.0
N1109 N 0.85806 0.25394 0.76602 0.0
C1110 C 0.82676 0.23303 0.79282 0.0
C1111 C 0.87112 0.21975 0.79492 0.0
C1112 C 0.87691 0.23875 0.77627 0.0
C1113 C 0.84549 0.21554 0.80225 0.0
H1114 H 0.81906 0.26505 0.76663 0.0
H1115 H 0.89627 0.24047 0.769 0.0
O1116 O 0.88542 0.31049 0.6838 0.0
O1117 O 0.85142 0.31052 0.7347 0.0
O1118 O 0.859 0.25908 0.70158 0.0
O1119 O 0.90364 0.28031 0.73175 0.0
H1120 H 0.89108 0.36149 0.67651 0.0
H1121 H 0.89085 0.28644 0.63816 0.0
H1122 H 0.90021 0.38245 0.63375 0.0
H1123 H 0.90029 0.30871 0.59614 0.0
H1124 H 0.80336 0.37073 0.7778 0.0
H1125 H 0.85238 0.34782 0.69854 0.0
H1126 H 0.82407 0.32705 0.77481 0.0
H1127 H 0.83139 0.39111 0.70286 0.0
H1128 H 0.80446 0.29259 0.61586 0.0
H1129 H 0.75885 0.3035 0.68595 0.0
H1130 H 0.96687 0.36406 0.72345 0.0
H1131 H 0.91273 0.38249 0.7848 0.0
H1132 H 0.81485 0.24683 0.72402 0.0
H1133 H 0.85536 0.24854 0.65072 0.0
H1134 H 0.77726 0.22819 0.70108 0.0
H1135 H 0.8173 0.22925 0.62919 0.0
H1136 H 0.95411 0.28111 0.72581 0.0
H1137 H 0.89244 0.29687 0.77946 0.0
H1138 H 0.98489 0.2968 0.75928 0.0
H1139 H 0.92436 0.31199 0.81212 0.0
H1140 H 0.97739 0.26144 0.65305 0.0
H1141 H 0.91877 0.204 0.63441 0.0
H1142 H 0.80669 0.23062 0.79752 0.0
H1143 H 0.88637 0.20733 0.80211 0.0
Li1144 Li 0.95766 0.64719 0.96777 0.0
Li1145 Li 0.96424 0.67169 0.9241 0.0
Li1146 Li 0.92432 0.67466 0.94813 0.0
Li1147 Li 0.93469 0.63444 0.92738 0.0
C1148 C 0.95633 0.70533 0.97767 0.0
N1149 N 0.94879 0.74612 0.01232 0.0
C1150 C 0.96475 0.73052 0.97136 0.0
C1151 C 0.94427 0.70086 0.00167 0.0
C1152 C 0.96068 0.7509 0.98912 0.0
C1153 C 0.94061 0.72173 0.01891 0.0
C1154 C 0.98335 0.61506 0.91995 0.0
C1155 C 0.9949 0.59529 0.87869 0.0
N1156 N 0.00536 0.57473 0.89175 0.0
C1157 C 0.99436 0.59378 0.93292 0.0
C1158 C 0.98367 0.61585 0.89259 0.0
C1159 C 0.00534 0.5736 0.91834 0.0
C1160 C 0.97283 0.60715 0.00024 0.0
N1161 N 0.97402 0.63352 -0.0024 0.0
C1162 C 0.00453 0.63652 0.03219 0.0
C1163 C 0.98869 0.64843 0.01367 0.0
C1164 C 0.0061 0.609 0.03328 0.0
C1165 C 0.989 0.59438 0.01773 0.0
H1166 H 0.96076 0.5959 0.98722 0.0
H1167 H 0.9892 0.66943 0.01118 0.0
C1168 C 0.98422 0.71542 0.89764 0.0
N1169 N 0.98855 0.68989 0.90347 0.0
C1170 C 0.00154 0.72925 0.88205 0.0
C1171 C 0.02678 0.68988 0.87792 0.0
C1172 C 0.00967 0.67726 0.89457 0.0
C1173 C 0.02311 0.71643 0.8714 0.0
H1174 H 0.96734 0.72506 0.90522 0.0
H1175 H 0.01327 0.65729 0.90018 0.0
C1176 C 0.90333 0.62821 0.97859 0.0
N1177 N 0.86619 0.60665 0.01053 0.0
C1178 C 0.88176 0.61623 0.96764 0.0
C1179 C 0.90609 0.629 0.00579 0.0
C1180 C 0.86318 0.6055 0.98412 0.0
C1181 C 0.88708 0.61806 0.0216 0.0
C1182 C 0.90666 0.66772 0.89571 0.0
C1183 C 0.88358 0.66175 0.90816 0.0
C1184 C 0.90698 0.67215 0.86873 0.0
C1185 C 0.86113 0.66025 0.89338 0.0
C1186 C 0.88412 0.67046 0.85461 0.0
N1187 N 0.86186 0.66459 0.86713 0.0
C1188 C 0.9035 0.72515 0.95184 0.0
C1189 C 0.8819 0.69273 0.97667 0.0
C1190 C 0.89157 0.74507 0.96609 0.0
N1191 N 0.8995 0.69966 0.95841 0.0
C1192 C 0.86963 0.71184 0.99129 0.0
C1193 C 0.87553 0.73823 0.98695 0.0
H1194 H 0.91776 0.73002 0.93728 0.0
H1195 H 0.87877 0.67249 0.98139 0.0
C1196 C 0.92475 0.58196 0.92773 0.0
N1197 N 0.92496 0.60274 0.91118 0.0
C1198 C 0.92964 0.55695 0.91827 0.0
C1199 C 0.93246 0.57489 0.8746 0.0
C1200 C 0.92671 0.59956 0.88485 0.0
C1201 C 0.93604 0.55365 0.89178 0.0
H1202 H 0.92396 0.58511 0.94862 0.0
H1203 H 0.92739 0.61654 0.87224 0.0
O1204 O 0.95958 0.68522 0.9603 0.0
O1205 O 0.97267 0.63518 0.93395 0.0
O1206 O 0.92176 0.6389 0.96281 0.0
O1207 O 0.92898 0.66894 0.90964 0.0
H1208 H 0.97418 0.73432 0.95291 0.0
H1209 H 0.93758 0.68151 0.00679 0.0
H1210 H 0.96697 0.77052 0.98444 0.0
H1211 H 0.93123 0.71854 0.03751 0.0
H1212 H 0.99514 0.5956 0.85753 0.0
H1213 H 0.99467 0.59288 0.954 0.0
H1214 H 0.97517 0.63214 0.8822 0.0
H1215 H 0.01373 0.55696 0.92819 0.0
H1216 H 0.01653 0.64882 0.04429 0.0
H1217 H 0.98936 0.57323 0.01726 0.0
H1218 H -0.00212 0.74978 0.87868 0.0
H1219 H 0.04245 0.67848 0.87017 0.0
H1220 H 0.87942 0.6151 0.94664 0.0
H1221 H 0.92271 0.63798 0.01465 0.0
H1222 H 0.84639 0.59622 0.97591 0.0
H1223 H 0.88894 0.61861 0.04268 0.0
H1224 H 0.88298 0.65834 0.92899 0.0
H1225 H 0.92474 0.67671 0.8588 0.0
H1226 H 0.84312 0.65563 0.90278 0.0
H1227 H 0.88409 0.67378 0.8337 0.0
H1228 H 0.89641 0.76532 0.96229 0.0
H1229 H 0.85698 0.70601 0.00705 0.0
H1230 H 0.93129 0.54097 0.93209 0.0
H1231 H 0.93722 0.57339 0.85404 0.0
Li1232 Li 0.62636 0.7196 0.23671 0.0
Li1233 Li 0.59941 0.71969 0.19458 0.0
Li1234 Li 0.60534 0.68027 0.22145 0.0
Li1235 Li 0.64031 0.69673 0.19754 0.0
C1236 C 0.57161 0.70678 0.25029 0.0
N1237 N 0.53669 0.68966 0.28716 0.0
C1238 C 0.54542 0.7069 0.24462 0.0
C1239 C 0.58001 0.69824 0.27483 0.0
C1240 C 0.52808 0.69808 0.2635 0.0
C1241 C 0.56206 0.6896 0.29318 0.0
C1242 C 0.65459 0.74605 0.18916 0.0
C1243 C 0.67559 0.76154 0.14999 0.0
N1244 N 0.697 0.76682 0.16417 0.0
C1245 C 0.67684 0.75166 0.20329 0.0
C1246 C 0.654 0.75096 0.16223 0.0
C1247 C 0.69807 0.7621 0.19033 0.0
C1248 C 0.65909 0.74222 0.27482 0.0
N1249 N 0.63462 0.74069 0.26599 0.0
C1250 C 0.62157 0.7749 0.29488 0.0
C1251 C 0.61578 0.75589 0.27623 0.0
C1252 C 0.64721 0.77909 0.30222 0.0
C1253 C 0.66593 0.76158 0.2928 0.0
H1254 H 0.67361 0.72955 0.26662 0.0
H1255 H 0.59641 0.75419 0.26897 0.0
C1256 C 0.55209 0.72836 0.17023 0.0
N1257 N 0.57593 0.73835 0.17359 0.0
C1258 C 0.53438 0.74123 0.15432 0.0
C1259 C 0.56671 0.77357 0.14448 0.0
C1260 C 0.58331 0.76075 0.16154 0.0
C1261 C 0.54158 0.76412 0.14073 0.0
H1262 H 0.54685 0.71033 0.17992 0.0
H1263 H 0.60221 0.76858 0.16494 0.0
C1264 C 0.65282 0.66015 0.23651 0.0
N1265 N 0.67615 0.61179 0.2406 0.0
C1266 C 0.65078 0.64203 0.21615 0.0
C1267 C 0.66681 0.65373 0.25892 0.0
C1268 C 0.66269 0.61768 0.21859 0.0
C1269 C 0.67844 0.62917 0.26064 0.0
C1270 C 0.60279 0.67211 0.16031 0.0
C1271 C 0.59992 0.64494 0.1591 0.0
C1272 C 0.59982 0.68705 0.13758 0.0
C1273 C 0.59464 0.63311 0.13505 0.0
C1274 C 0.59456 0.67449 0.11391 0.0
N1275 N 0.59212 0.648 0.11314 0.0
C1276 C 0.56294 0.64831 0.22102 0.0
C1277 C 0.5926 0.63826 0.25478 0.0
C1278 C 0.54458 0.63212 0.23234 0.0
N1279 N 0.58604 0.65157 0.23279 0.0
C1280 C 0.57496 0.6216 0.26657 0.0
C1281 C 0.55038 0.61912 0.25575 0.0
H1282 H 0.55819 0.65972 0.20386 0.0
H1283 H 0.61073 0.64198 0.26423 0.0
C1284 C 0.6932 0.68781 0.1896 0.0
N1285 N 0.6702 0.68961 0.17731 0.0
C1286 C 0.71583 0.69141 0.17552 0.0
C1287 C 0.69066 0.69673 0.13625 0.0
C1288 C 0.66865 0.69227 0.15095 0.0
C1289 C 0.71464 0.69806 0.14879 0.0
H1290 H 0.69397 0.68591 0.21065 0.0
H1291 H 0.65024 0.69418 0.14168 0.0
O1292 O 0.58903 0.71432 0.23174 0.0
O1293 O 0.63369 0.73551 0.20156 0.0
O1294 O 0.64125 0.68409 0.23472 0.0
O1295 O 0.60726 0.6841 0.18382 0.0
H1296 H 0.53855 0.71352 0.22581 0.0
H1297 H 0.60023 0.69779 0.27946 0.0
H1298 H 0.50778 0.69786 0.2593 0.0
H1299 H 0.56832 0.68269 0.31214 0.0
H1300 H 0.67542 0.76524 0.12915 0.0
H1301 H 0.67781 0.74782 0.22401 0.0
H1302 H 0.63736 0.74596 0.15069 0.0
H1303 H 0.71541 0.76645 0.20106 0.0
H1304 H 0.60633 0.78732 0.30207 0.0
H1305 H 0.686 0.76398 0.2975 0.0
H1306 H 0.5153 0.73317 0.15303 0.0
H1307 H 0.57397 0.79052 0.13428 0.0
H1308 H 0.64028 0.64676 0.1986 0.0
H1309 H 0.66857 0.66758 0.27485 0.0
H1310 H 0.66126 0.60347 0.20296 0.0
H1311 H 0.68928 0.62391 0.27789 0.0
H1312 H 0.60158 0.63309 0.17657 0.0
H1313 H 0.60185 0.70811 0.13815 0.0
H1314 H 0.59246 0.6121 0.13382 0.0
H1315 H 0.59241 0.6858 0.09615 0.0
H1316 H 0.5258 0.63055 0.22348 0.0
H1317 H 0.57992 0.61215 0.28485 0.0
H1318 H 0.73382 0.6911 0.18601 0.0
H1319 H 0.68825 0.70189 0.11588 0.0
Li1320 Li 0.55797 0.36011 0.42742 0.0
Li1321 Li 0.56835 0.31989 0.44818 0.0
Li1322 Li 0.52843 0.32284 0.42415 0.0
Li1323 Li 0.53502 0.34736 0.46782 0.0
C1324 C 0.58602 0.32682 0.39577 0.0
N1325 N 0.63082 0.32996 0.36719 0.0
C1326 C 0.60909 0.33281 0.40822 0.0
C1327 C 0.58571 0.32238 0.36879 0.0
C1328 C 0.63155 0.33431 0.39344 0.0
C1329 C 0.60857 0.32408 0.35467 0.0
C1330 C 0.58934 0.36636 0.47863 0.0
C1331 C 0.60558 0.37651 0.52164 0.0
N1332 N 0.62647 0.38792 0.51057 0.0
C1333 C 0.6109 0.37834 0.46768 0.0
C1334 C 0.58657 0.36556 0.50583 0.0
C1335 C 0.62948 0.38907 0.48416 0.0
C1336 C 0.5679 0.41259 0.42774 0.0
N1337 N 0.56769 0.39181 0.4112 0.0
C1338 C 0.56016 0.41963 0.37461 0.0
C1339 C 0.56593 0.39498 0.38487 0.0
C1340 C 0.55659 0.44088 0.39179 0.0
C1341 C 0.563 0.43759 0.41827 0.0
H1342 H 0.5687 0.40945 0.44863 0.0
H1343 H 0.56525 0.37799 0.37227 0.0
C1344 C 0.5892 0.26941 0.45187 0.0
N1345 N 0.59319 0.2949 0.45847 0.0
C1346 C 0.60113 0.24949 0.46612 0.0
C1347 C 0.62303 0.28271 0.49136 0.0
C1348 C 0.61076 0.30183 0.47675 0.0
C1349 C 0.61715 0.25632 0.487 0.0
H1350 H 0.57495 0.26455 0.43729 0.0
H1351 H 0.61388 0.32207 0.48149 0.0
C1352 C 0.50932 0.37947 0.41998 0.0
N1353 N 0.48729 0.41978 0.39177 0.0
C1354 C 0.49832 0.40076 0.43294 0.0
C1355 C 0.50898 0.37866 0.39263 0.0
C1356 C 0.48733 0.42093 0.41835 0.0
C1357 C 0.49775 0.39921 0.37872 0.0
C1358 C 0.53637 0.28921 0.47772 0.0
C1359 C 0.52798 0.26402 0.4714 0.0
C1360 C 0.54841 0.29369 0.50173 0.0
C1361 C 0.53205 0.24363 0.48915 0.0
C1362 C 0.55208 0.27281 0.51896 0.0
N1363 N 0.54393 0.24841 0.51235 0.0
C1364 C 0.50847 0.27912 0.39768 0.0
C1365 C 0.48299 0.31725 0.39466 0.0
C1366 C 0.49115 0.26528 0.38209 0.0
N1367 N 0.50413 0.30464 0.40353 0.0
C1368 C 0.46588 0.30464 0.37801 0.0
C1369 C 0.46957 0.2781 0.37147 0.0
H1370 H 0.52537 0.26948 0.40523 0.0
H1371 H 0.47938 0.33722 0.4003 0.0
C1372 C 0.51984 0.3874 0.50027 0.0
N1373 N 0.51866 0.36104 0.49764 0.0
C1374 C 0.50367 0.40018 0.51776 0.0
C1375 C 0.48814 0.35803 0.53223 0.0
C1376 C 0.50399 0.34612 0.51372 0.0
C1377 C 0.48657 0.38556 0.53332 0.0
H1378 H 0.53191 0.39866 0.48725 0.0
H1379 H 0.50348 0.32513 0.51123 0.0
O1380 O 0.56369 0.3256 0.40969 0.0
O1381 O 0.57091 0.35566 0.46284 0.0
O1382 O 0.52 0.35935 0.43399 0.0
O1383 O 0.5331 0.30933 0.46036 0.0
H1384 H 0.60969 0.33623 0.42904 0.0
H1385 H 0.56795 0.31781 0.35886 0.0
H1386 H 0.64955 0.33894 0.40285 0.0
H1387 H 0.60861 0.32075 0.33377 0.0
H1388 H 0.60372 0.37595 0.54272 0.0
H1389 H 0.61325 0.37947 0.44668 0.0
H1390 H 0.56995 0.35658 0.51469 0.0
H1391 H 0.64627 0.39836 0.47595 0.0
H1392 H 0.5554 0.42113 0.35405 0.0
H1393 H 0.56136 0.45358 0.43209 0.0
H1394 H 0.59631 0.22924 0.4623 0.0
H1395 H 0.63566 0.28853 0.50714 0.0
H1396 H 0.49802 0.40167 0.45402 0.0
H1397 H 0.51747 0.36236 0.38224 0.0
H1398 H 0.47895 0.43758 0.4282 0.0
H1399 H 0.49749 0.39889 0.35756 0.0
H1400 H 0.51856 0.26022 0.45294 0.0
H1401 H 0.55508 0.31303 0.50686 0.0
H1402 H 0.52579 0.22401 0.48446 0.0
H1403 H 0.56145 0.276 0.53757 0.0
H1404 H 0.49484 0.24476 0.3787 0.0
H1405 H 0.4502 0.31604 0.37029 0.0
H1406 H 0.5033 0.42133 0.51728 0.0
H1407 H 0.47614 0.34574 0.54434 0.0
Li1408 Li 0.26338 0.3909 0.22138 0.0
Li1409 Li 0.29488 0.37991 0.18837 0.0
Li1410 Li 0.30111 0.41779 0.21724 0.0
Li1411 Li 0.26791 0.41986 0.18433 0.0
C1412 C 0.30231 0.36201 0.24583 0.0
N1413 N 0.31145 0.3246 0.28385 0.0
C1414 C 0.30373 0.33551 0.23913 0.0
C1415 C 0.3051 0.36937 0.27204 0.0
C1416 C 0.30839 0.31693 0.25858 0.0
C1417 C 0.30985 0.35021 0.29092 0.0
C1418 C 0.23666 0.36597 0.18507 0.0
C1419 C 0.19103 0.35883 0.18307 0.0
N1420 N 0.19472 0.33323 0.18927 0.0
C1421 C 0.23999 0.33954 0.19128 0.0
C1422 C 0.21199 0.37568 0.18081 0.0
C1423 C 0.21855 0.32332 0.19336 0.0
C1424 C 0.21918 0.3948 0.25281 0.0
N1425 N 0.23789 0.37811 0.24476 0.0
C1426 C 0.22037 0.34377 0.27069 0.0
C1427 C 0.23837 0.35283 0.25284 0.0
C1428 C 0.20172 0.36094 0.28072 0.0
C1429 C 0.20089 0.38664 0.27104 0.0
H1430 H 0.21878 0.41465 0.24551 0.0
H1431 H 0.25286 0.33966 0.24567 0.0
C1432 C 0.3378 0.35134 0.18389 0.0
N1433 N 0.31377 0.35202 0.17389 0.0
C1434 C 0.35021 0.32749 0.18709 0.0
C1435 C 0.31462 0.30616 0.16559 0.0
C1436 C 0.30277 0.33056 0.16295 0.0
C1437 C 0.33764 0.3042 0.17985 0.0
H1438 H 0.34574 0.36875 0.1928 0.0
H1439 H 0.28362 0.33179 0.15501 0.0
C1440 C 0.26551 0.44723 0.24072 0.0
N1441 N 0.26708 0.48429 0.28001 0.0
C1442 C 0.26354 0.4738 0.23459 0.0
C1443 C 0.26801 0.43947 0.26681 0.0
C1444 C 0.26445 0.49225 0.25474 0.0
C1445 C 0.26883 0.45851 0.2864 0.0
C1446 C 0.31119 0.41777 0.15234 0.0
C1447 C 0.32898 0.4359 0.14293 0.0
C1448 C 0.29891 0.40085 0.13486 0.0
C1449 C 0.33414 0.43688 0.11612 0.0
C1450 C 0.30462 0.40244 0.1082 0.0
N1451 N 0.32196 0.42027 0.09946 0.0
C1452 C 0.34235 0.42539 0.25175 0.0
C1453 C 0.32805 0.46385 0.23029 0.0
C1454 C 0.36033 0.43969 0.26591 0.0
N1455 N 0.32625 0.43771 0.2349 0.0
C1456 C 0.34598 0.47892 0.24385 0.0
C1457 C 0.3621 0.46683 0.2622 0.0
H1458 H 0.34133 0.40445 0.25413 0.0
H1459 H 0.31545 0.47299 0.21621 0.0
C1460 C 0.22504 0.44788 0.17644 0.0
N1461 N 0.2477 0.4427 0.16445 0.0
C1462 C 0.20689 0.46359 0.1643 0.0
C1463 C 0.23625 0.46948 0.12811 0.0
C1464 C 0.25386 0.45344 0.14095 0.0
C1465 C 0.2123 0.47429 0.13971 0.0
H1466 H 0.2209 0.4393 0.19531 0.0
H1467 H 0.27214 0.44937 0.13198 0.0
O1468 O 0.2995 0.38067 0.22673 0.0
O1469 O 0.25742 0.38224 0.18325 0.0
O1470 O 0.26507 0.42892 0.22122 0.0
O1471 O 0.30607 0.41667 0.17857 0.0
H1472 H 0.30103 0.32921 0.2192 0.0
H1473 H 0.30402 0.38971 0.27775 0.0
H1474 H 0.30961 0.29642 0.25353 0.0
H1475 H 0.3123 0.35569 0.31121 0.0
H1476 H 0.17184 0.36612 0.17989 0.0
H1477 H 0.25884 0.33174 0.19511 0.0
H1478 H 0.20901 0.39596 0.17575 0.0
H1479 H 0.22086 0.3029 0.1984 0.0
H1480 H 0.22211 0.32382 0.27754 0.0
H1481 H 0.18667 0.40046 0.27787 0.0
H1482 H 0.36781 0.32733 0.19824 0.0
H1483 H 0.30462 0.28885 0.15889 0.0
H1484 H 0.26155 0.48008 0.21446 0.0
H1485 H 0.26926 0.41897 0.27186 0.0
H1486 H 0.2631 0.5129 0.2503 0.0
H1487 H 0.27085 0.45279 0.30667 0.0
H1488 H 0.33867 0.4491 0.15622 0.0
H1489 H 0.28505 0.38671 0.14168 0.0
H1490 H 0.34784 0.45084 0.10855 0.0
H1491 H 0.29524 0.38951 0.09445 0.0
H1492 H 0.37288 0.42961 0.27945 0.0
H1493 H 0.34689 0.49982 0.24042 0.0
H1494 H 0.18868 0.46707 0.17386 0.0
H1495 H 0.24092 0.47727 0.10898 0.0
Li1496 Li 0.76794 0.07474 0.81026 0.0
Li1497 Li 0.80114 0.07683 0.77735 0.0
Li1498 Li 0.7949 0.1147 0.80623 0.0
Li1499 Li 0.76341 0.1037 0.77321 0.0
C1500 C 0.81122 0.07683 0.84225 0.0
N1501 N 0.82199 0.07433 0.89513 0.0
C1502 C 0.82902 0.05872 0.85166 0.0
C1503 C 0.79894 0.09375 0.85973 0.0
C1504 C 0.83418 0.05773 0.87847 0.0
C1505 C 0.80464 0.09216 0.88639 0.0
C1506 C 0.76556 0.04737 0.75388 0.0
C1507 C 0.7689 0.03605 0.70821 0.0
N1508 N 0.76717 0.01028 0.71462 0.0
C1509 C 0.76361 0.0208 0.76003 0.0
C1510 C 0.76805 0.05511 0.72779 0.0
C1511 C 0.76454 0.00233 0.73989 0.0
C1512 C 0.72508 0.04671 0.81815 0.0
N1513 N 0.74774 0.05189 0.83014 0.0
C1514 C 0.73629 0.02511 0.86647 0.0
C1515 C 0.7539 0.04115 0.85363 0.0
C1516 C 0.71235 0.0203 0.85488 0.0
C1517 C 0.70693 0.031 0.83029 0.0
H1518 H 0.72094 0.0553 0.79928 0.0
H1519 H 0.77218 0.04522 0.8626 0.0
C1520 C 0.84237 0.06922 0.74282 0.0
N1521 N 0.82629 0.05691 0.75968 0.0
C1522 C 0.86035 0.05492 0.72866 0.0
C1523 C 0.84604 0.0157 0.75076 0.0
C1524 C 0.82811 0.03077 0.76432 0.0
C1525 C 0.86214 0.02779 0.73239 0.0
H1526 H 0.84133 0.09016 0.74042 0.0
H1527 H 0.81552 0.02164 0.77842 0.0
C1528 C 0.73669 0.12863 0.80952 0.0
N1529 N 0.69473 0.16136 0.80533 0.0
C1530 C 0.74 0.15505 0.80331 0.0
C1531 C 0.71202 0.11892 0.81379 0.0
C1532 C 0.71856 0.17127 0.80124 0.0
C1533 C 0.69105 0.13575 0.81153 0.0
C1534 C 0.80233 0.1326 0.74877 0.0
C1535 C 0.80375 0.15911 0.75547 0.0
C1536 C 0.8051 0.12525 0.72256 0.0
C1537 C 0.80839 0.17769 0.73602 0.0
C1538 C 0.80984 0.14442 0.70367 0.0
N1539 N 0.81144 0.17002 0.71074 0.0
C1540 C 0.83782 0.14328 0.81072 0.0
C1541 C 0.80278 0.16405 0.83165 0.0
C1542 C 0.85022 0.16713 0.80752 0.0
N1543 N 0.81378 0.14259 0.82071 0.0
C1544 C 0.81462 0.18846 0.82901 0.0
C1545 C 0.83765 0.19042 0.81475 0.0
H1546 H 0.84576 0.12587 0.80181 0.0
H1547 H 0.78362 0.16281 0.83958 0.0
C1548 C 0.71922 0.09979 0.74178 0.0
N1549 N 0.73792 0.11649 0.74983 0.0
C1550 C 0.70092 0.10794 0.72355 0.0
C1551 C 0.72039 0.15082 0.7239 0.0
C1552 C 0.73839 0.14177 0.74175 0.0
C1553 C 0.70175 0.13365 0.71386 0.0
H1554 H 0.71882 0.07995 0.74908 0.0
H1555 H 0.75288 0.15495 0.74892 0.0
O1556 O 0.80611 0.07794 0.81602 0.0
O1557 O 0.7651 0.06569 0.77337 0.0
O1558 O 0.75744 0.11236 0.81135 0.0
O1559 O 0.79953 0.11394 0.76786 0.0
H1560 H 0.83871 0.04552 0.83837 0.0
H1561 H 0.78507 0.10788 0.85291 0.0
H1562 H 0.84789 0.04377 0.88603 0.0
H1563 H 0.79526 0.10509 0.90014 0.0
H1564 H 0.77091 0.04176 0.68793 0.0
H1565 H 0.76163 0.01453 0.78016 0.0
H1566 H 0.76929 0.07561 0.72272 0.0
H1567 H 0.76321 0.98168 0.74435 0.0
H1568 H 0.74097 0.01732 0.8856 0.0
H1569 H 0.68872 0.02753 0.82073 0.0
H1570 H 0.87289 0.065 0.7151 0.0
H1571 H 0.84697 0.99481 0.75421 0.0
H1572 H 0.75886 0.16286 0.79948 0.0
H1573 H 0.70904 0.09863 0.81885 0.0
H1574 H 0.72087 0.1917 0.79619 0.0
H1575 H 0.67186 0.12846 0.81472 0.0
H1576 H 0.80105 0.16541 0.7754 0.0
H1577 H 0.80402 0.10491 0.71684 0.0
H1578 H 0.80962 0.1982 0.74107 0.0
H1579 H 0.81228 0.13893 0.68338 0.0
H1580 H 0.86783 0.16729 0.79637 0.0
H1581 H 0.80461 0.20576 0.8357 0.0
H1582 H 0.68671 0.09412 0.71671 0.0
H1583 H 0.72212 0.17078 0.71705 0.0
Li1584 Li 0.13736 0.523 0.06421 0.0
Li1585 Li 0.1024 0.54692 0.04776 0.0
Li1586 Li 0.11633 0.50775 0.02489 0.0
Li1587 Li 0.14331 0.54986 0.0248 0.0
C1588 C 0.08988 0.50796 0.08435 0.0
N1589 N 0.06657 0.50388 0.13271 0.0
C1590 C 0.09194 0.52832 0.10247 0.0
C1591 C 0.07589 0.48555 0.09077 0.0
C1592 C 0.08004 0.52589 0.12682 0.0
C1593 C 0.06427 0.48384 0.11534 0.0
C1594 C 0.13995 0.58414 0.07237 0.0
C1595 C 0.1482 0.63053 0.06999 0.0
N1596 N 0.15064 0.6313 0.09648 0.0
C1597 C 0.14282 0.58534 0.09954 0.0
C1598 C 0.14292 0.60686 0.05743 0.0
C1599 C 0.14811 0.60939 0.11137 0.0
C1600 C 0.17977 0.52342 0.09616 0.0
N1601 N 0.15667 0.51164 0.09291 0.0
C1602 C 0.16774 0.47787 0.12287 0.0
C1603 C 0.15011 0.48966 0.10622 0.0
C1604 C 0.19233 0.48868 0.12535 0.0
C1605 C 0.19813 0.51209 0.11235 0.0
H1606 H 0.18452 0.54058 0.08475 0.0
H1607 H 0.13197 0.48021 0.1025 0.0
C1608 C 0.04952 0.55489 0.05671 0.0
N1609 N 0.07252 0.56717 0.05489 0.0
C1610 C 0.02689 0.56899 0.05311 0.0
C1611 C 0.05209 0.60824 0.04776 0.0
C1612 C 0.07409 0.59353 0.05221 0.0
C1613 C 0.0281 0.59572 0.04645 0.0
H1614 H 0.04873 0.53384 0.05862 0.0
H1615 H 0.09251 0.60278 0.05029 0.0
C1616 C 0.17109 0.49415 0.03769 0.0
N1617 N 0.20601 0.45729 0.05482 0.0
C1618 C 0.19727 0.49982 0.03758 0.0
C1619 C 0.16269 0.46961 0.04624 0.0
C1620 C 0.21462 0.48095 0.04639 0.0
C1621 C 0.18064 0.45126 0.05487 0.0
C1622 C 0.08813 0.55532 -0.00155 0.0
C1623 C 0.06586 0.54121 0.99286 0.0
C1624 C 0.08874 0.58225 0.99351 0.0
C1625 C 0.04463 0.5542 0.98242 0.0
C1626 C 0.06716 0.59451 0.98295 0.0
N1627 N 0.04573 0.58035 0.97769 0.0
C1628 C 0.08358 0.46966 0.00225 0.0
C1629 C 0.1269 0.46823 0.98859 0.0
C1630 C 0.07673 0.4517 0.98287 0.0
N1631 N 0.10806 0.47847 0.00379 0.0
C1632 C 0.12109 0.44959 0.96957 0.0
C1633 C 0.09546 0.44228 0.96537 0.0
H1634 H 0.06906 0.47787 0.01492 0.0
H1635 H 0.14626 0.47548 0.9903 0.0
C1636 C 0.19062 0.57421 0.01614 0.0
N1637 N 0.16678 0.57084 0.00613 0.0
C1638 C 0.20834 0.59011 0.00327 0.0
C1639 C 0.17603 0.59992 0.97089 0.0
C1640 C 0.15942 0.58286 0.98372 0.0
C1641 C 0.20115 0.60369 0.98036 0.0
H1642 H 0.19585 0.56454 0.03419 0.0
H1643 H 0.14053 0.57945 0.97588 0.0
O1644 O 0.10145 0.50974 0.0604 0.0
O1645 O 0.13546 0.56063 0.06039 0.0
O1646 O 0.15366 0.5127 0.03016 0.0
O1647 O 0.10902 0.5429 0.00899 0.0
H1648 H 0.10244 0.54587 0.09773 0.0
H1649 H 0.07412 0.46962 0.07692 0.0
H1650 H 0.08147 0.54152 0.14102 0.0
H1651 H 0.05342 0.46659 0.1206 0.0
H1652 H 0.15036 0.64829 0.05868 0.0
H1653 H 0.14115 0.56787 0.11139 0.0
H1654 H 0.14089 0.6063 0.03637 0.0
H1655 H 0.1503 0.61062 0.13239 0.0
H1656 H 0.16279 0.45958 0.13232 0.0
H1657 H 0.21692 0.52095 0.11392 0.0
H1658 H 0.0089 0.55851 0.05343 0.0
H1659 H 0.05451 0.62861 0.04259 0.0
H1660 H 0.20414 0.51864 0.03096 0.0
H1661 H 0.14247 0.46498 0.04669 0.0
H1662 H 0.23492 0.48516 0.04661 0.0
H1663 H 0.17439 0.4323 0.06178 0.0
H1664 H 0.06486 0.5205 0.99672 0.0
H1665 H 0.1054 0.59377 -0.0015 0.0
H1666 H 0.02728 0.54348 0.9781 0.0
H1667 H 0.06735 0.61535 0.97924 0.0
H1668 H 0.05666 0.44702 0.98047 0.0
H1669 H 0.13633 0.4424 0.95714 0.0
H1670 H 0.22741 0.59142 0.01134 0.0
H1671 H 0.16878 0.6101 0.95393 0.0
Li1672 Li 0.72482 0.91986 0.31023 0.0
Li1673 Li 0.69161 0.91779 0.27733 0.0
Li1674 Li 0.69784 0.87991 0.3062 0.0
Li1675 Li 0.72933 0.8909 0.27318 0.0
C1676 C 0.68154 0.91777 0.34223 0.0
N1677 N 0.67079 0.92026 0.39512 0.0
C1678 C 0.66374 0.93589 0.35165 0.0
C1679 C 0.69383 0.90085 0.35971 0.0
C1680 C 0.65859 0.93687 0.37846 0.0
C1681 C 0.68812 0.90243 0.38637 0.0
C1682 C 0.72719 0.94725 0.25387 0.0
C1683 C 0.72385 0.9586 0.2082 0.0
N1684 N 0.7256 0.98437 0.21462 0.0
C1685 C 0.72917 0.97381 0.26002 0.0
C1686 C 0.72469 0.93953 0.22777 0.0
C1687 C 0.72824 0.9923 0.2399 0.0
C1688 C 0.76769 0.94786 0.31813 0.0
N1689 N 0.74503 0.9427 0.33011 0.0
C1690 C 0.75647 0.96949 0.36644 0.0
C1691 C 0.73886 0.95345 0.3536 0.0
C1692 C 0.78042 0.97429 0.35485 0.0
C1693 C 0.78585 0.96358 0.33026 0.0
H1694 H 0.77183 0.93927 0.29926 0.0
H1695 H 0.72058 0.94939 0.36256 0.0
C1696 C 0.65036 0.9254 0.24283 0.0
N1697 N 0.66646 0.93772 0.25967 0.0
C1698 C 0.63237 0.93969 0.22868 0.0
C1699 C 0.64672 0.97893 0.25074 0.0
C1700 C 0.66465 0.96386 0.26429 0.0
C1701 C 0.6306 0.96683 0.23239 0.0
H1702 H 0.65139 0.90446 0.24045 0.0
H1703 H 0.67725 0.97299 0.27837 0.0
C1704 C 0.75605 0.86595 0.30948 0.0
N1705 N 0.79799 0.8332 0.30528 0.0
C1706 C 0.75272 0.83953 0.30327 0.0
C1707 C 0.78072 0.87565 0.31374 0.0
C1708 C 0.77415 0.8233 0.30119 0.0
C1709 C 0.80168 0.8588 0.31147 0.0
C1710 C 0.69039 0.86203 0.24874 0.0
C1711 C 0.68897 0.83552 0.25543 0.0
C1712 C 0.68762 0.86939 0.22253 0.0
C1713 C 0.68431 0.81695 0.23598 0.0
C1714 C 0.68287 0.85023 0.20364 0.0
N1715 N 0.68126 0.82463 0.2107 0.0
C1716 C 0.65492 0.85135 0.31069 0.0
C1717 C 0.68994 0.83056 0.33162 0.0
C1718 C 0.6425 0.8275 0.30748 0.0
N1719 N 0.67895 0.85202 0.32068 0.0
C1720 C 0.67809 0.80616 0.32898 0.0
C1721 C 0.65506 0.80421 0.31472 0.0
H1722 H 0.64698 0.86876 0.30177 0.0
H1723 H 0.7091 0.83178 0.33956 0.0
C1724 C 0.77351 0.8948 0.24172 0.0
N1725 N 0.75481 0.87811 0.24979 0.0
C1726 C 0.79179 0.88664 0.22349 0.0
C1727 C 0.77232 0.84377 0.22386 0.0
C1728 C 0.75433 0.85283 0.24171 0.0
C1729 C 0.79096 0.86093 0.21381 0.0
H1730 H 0.77391 0.91465 0.24902 0.0
H1731 H 0.73984 0.83966 0.24889 0.0
O1732 O 0.68665 0.91667 0.316 0.0
O1733 O 0.72765 0.92892 0.27334 0.0
O1734 O 0.7353 0.88223 0.31131 0.0
O1735 O 0.69321 0.88068 0.26784 0.0
H1736 H 0.65406 0.94909 0.33836 0.0
H1737 H 0.70768 0.88671 0.35288 0.0
H1738 H 0.64489 0.95083 0.38603 0.0
H1739 H 0.69751 0.8895 0.40011 0.0
H1740 H 0.72183 0.9529 0.18792 0.0
H1741 H 0.73116 0.98007 0.28016 0.0
H1742 H 0.72344 0.91903 0.22269 0.0
H1743 H 0.72959 0.01294 0.24437 0.0
H1744 H 0.75179 0.97729 0.38556 0.0
H1745 H 0.80405 0.96704 0.32071 0.0
H1746 H 0.61982 0.92961 0.21513 0.0
H1747 H 0.6458 -0.00018 0.25417 0.0
H1748 H 0.73386 0.83174 0.29945 0.0
H1749 H 0.78372 0.89594 0.3188 0.0
H1750 H 0.77183 0.80288 0.29615 0.0
H1751 H 0.82088 0.86609 0.31466 0.0
H1752 H 0.69167 0.82921 0.27536 0.0
H1753 H 0.6887 0.88973 0.21683 0.0
H1754 H 0.68308 0.79643 0.24103 0.0
H1755 H 0.68042 0.85573 0.18335 0.0
H1756 H 0.62489 0.82736 0.29633 0.0
H1757 H 0.68809 0.78885 0.33567 0.0
H1758 H 0.80601 0.90046 0.21664 0.0
H1759 H 0.77058 0.82381 0.21701 0.0
Li1760 Li 0.3553 0.47155 0.56422 0.0
Li1761 Li 0.39026 0.44763 0.54778 0.0
Li1762 Li 0.37633 0.4868 0.5249 0.0
Li1763 Li 0.34936 0.44468 0.52481 0.0
C1764 C 0.40278 0.4866 0.58436 0.0
N1765 N 0.42609 0.49068 0.63272 0.0
C1766 C 0.40072 0.46623 0.60248 0.0
C1767 C 0.41676 0.50901 0.59078 0.0
C1768 C 0.41263 0.46867 0.62683 0.0
C1769 C 0.42839 0.51072 0.61535 0.0
C1770 C 0.35272 0.41041 0.57239 0.0
C1771 C 0.34448 0.36402 0.57002 0.0
N1772 N 0.34203 0.36325 0.59651 0.0
C1773 C 0.34985 0.4092 0.59957 0.0
C1774 C 0.34975 0.38769 0.55746 0.0
C1775 C 0.34457 0.38516 0.6114 0.0
C1776 C 0.31289 0.47112 0.59618 0.0
N1777 N 0.33599 0.4829 0.59292 0.0
C1778 C 0.32491 0.51667 0.62288 0.0
C1779 C 0.34255 0.50489 0.60623 0.0
C1780 C 0.30032 0.50586 0.62537 0.0
C1781 C 0.29453 0.48245 0.61237 0.0
H1782 H 0.30815 0.45396 0.58477 0.0
H1783 H 0.36068 0.51434 0.60251 0.0
C1784 C 0.44315 0.43967 0.55672 0.0
N1785 N 0.42014 0.42739 0.55491 0.0
C1786 C 0.46577 0.42557 0.55313 0.0
C1787 C 0.44058 0.38632 0.54779 0.0
C1788 C 0.41858 0.40102 0.55224 0.0
C1789 C 0.46457 0.39884 0.54648 0.0
H1790 H 0.44393 0.46072 0.55863 0.0
H1791 H 0.40016 0.39177 0.55032 0.0
C1792 C 0.32157 0.50039 0.53771 0.0
N1793 N 0.28664 0.53725 0.55483 0.0
C1794 C 0.29538 0.49472 0.53759 0.0
C1795 C 0.32996 0.52493 0.54625 0.0
C1796 C 0.27804 0.51358 0.54641 0.0
C1797 C 0.31201 0.54328 0.55488 0.0
C1798 C 0.40454 0.43923 0.49846 0.0
C1799 C 0.4268 0.45334 0.49287 0.0
C1800 C 0.40393 0.4123 0.49354 0.0
C1801 C 0.44803 0.44036 0.48243 0.0
C1802 C 0.4255 0.40004 0.48297 0.0
N1803 N 0.44693 0.4142 0.47771 0.0
C1804 C 0.40907 0.52489 0.50225 0.0
C1805 C 0.36576 0.52632 0.4886 0.0
C1806 C 0.41592 0.54285 0.48288 0.0
N1807 N 0.3846 0.51608 0.5038 0.0
C1808 C 0.37156 0.54496 0.46958 0.0
C1809 C 0.39719 0.55227 0.46538 0.0
H1810 H 0.42359 0.51668 0.51493 0.0
H1811 H 0.34639 0.51907 0.49031 0.0
C1812 C 0.30204 0.42033 0.51615 0.0
N1813 N 0.32588 0.42371 0.50615 0.0
C1814 C 0.28433 0.40443 0.50328 0.0
C1815 C 0.31664 0.39463 0.47091 0.0
C1816 C 0.33325 0.41168 0.48373 0.0
C1817 C 0.29152 0.39086 0.48038 0.0
H1818 H 0.29681 0.43 0.5342 0.0
H1819 H 0.35214 0.41509 0.4759 0.0
O1820 O 0.3912 0.48481 0.56041 0.0
O1821 O 0.3572 0.43392 0.56041 0.0
O1822 O 0.33899 0.48184 0.53018 0.0
O1823 O 0.38364 0.45165 0.509 0.0
H1824 H 0.39022 0.44869 0.59775 0.0
H1825 H 0.41854 0.52493 0.57693 0.0
H1826 H 0.4112 0.45304 0.64104 0.0
H1827 H 0.43923 0.52797 0.6206 0.0
H1828 H 0.34232 0.34626 0.55871 0.0
H1829 H 0.35152 0.42668 0.61141 0.0
H1830 H 0.35178 0.38825 0.5364 0.0
H1831 H 0.34238 0.38393 0.63241 0.0
H1832 H 0.32987 0.53496 0.63233 0.0
H1833 H 0.27574 0.47359 0.61394 0.0
H1834 H 0.48377 0.43606 0.55345 0.0
H1835 H 0.43816 0.36595 0.54263 0.0
H1836 H 0.28852 0.4759 0.53098 0.0
H1837 H 0.35018 0.52957 0.5467 0.0
H1838 H 0.25774 0.50938 0.54663 0.0
H1839 H 0.31826 0.56224 0.56179 0.0
H1840 H 0.4278 0.47406 0.49672 0.0
H1841 H 0.38727 0.40078 0.49853 0.0
H1842 H 0.46538 0.45108 0.4781 0.0
H1843 H 0.42532 0.3792 0.47927 0.0
H1844 H 0.43599 0.54753 0.48048 0.0
H1845 H 0.35632 0.55215 0.45715 0.0
H1846 H 0.26526 0.40312 0.51135 0.0
H1847 H 0.32389 0.38445 0.45394 0.0
Li1848 Li 0.19779 0.61465 0.68835 0.0
Li1849 Li 0.22928 0.60366 0.72137 0.0
Li1850 Li 0.22475 0.57469 0.68433 0.0
Li1851 Li 0.19155 0.57679 0.71724 0.0
C1852 C 0.25601 0.62858 0.68506 0.0
N1853 N 0.29796 0.66132 0.68924 0.0
C1854 C 0.25269 0.65501 0.69126 0.0
C1855 C 0.28067 0.61887 0.68079 0.0
C1856 C 0.27412 0.67123 0.69333 0.0
C1857 C 0.30164 0.63571 0.68305 0.0
C1858 C 0.19036 0.63256 0.74581 0.0
C1859 C 0.18286 0.64438 0.79091 0.0
N1860 N 0.18125 0.66998 0.78383 0.0
C1861 C 0.18894 0.65907 0.7391 0.0
C1862 C 0.1876 0.62521 0.77202 0.0
C1863 C 0.18429 0.67765 0.75855 0.0
C1864 C 0.15487 0.64323 0.68385 0.0
N1865 N 0.17891 0.64254 0.67386 0.0
C1866 C 0.17807 0.68841 0.66555 0.0
C1867 C 0.18992 0.664 0.66292 0.0
C1868 C 0.15504 0.69037 0.67981 0.0
C1869 C 0.14247 0.66708 0.68705 0.0
H1870 H 0.14693 0.62582 0.69276 0.0
H1871 H 0.20907 0.66276 0.65499 0.0
C1872 C 0.27347 0.59975 0.75281 0.0
N1873 N 0.25477 0.61645 0.74475 0.0
C1874 C 0.29176 0.6079 0.77103 0.0
C1875 C 0.2723 0.65079 0.77067 0.0
C1876 C 0.2543 0.64173 0.75282 0.0
C1877 C 0.29094 0.63361 0.78071 0.0
H1878 H 0.27386 0.5799 0.74551 0.0
H1879 H 0.23981 0.65491 0.74565 0.0
C1880 C 0.18147 0.57678 0.65234 0.0
N1881 N 0.17071 0.57427 0.59945 0.0
C1882 C 0.16368 0.55866 0.64293 0.0
C1883 C 0.19376 0.5937 0.63485 0.0
C1884 C 0.15852 0.55767 0.61612 0.0
C1885 C 0.18805 0.59211 0.60819 0.0
C1886 C 0.22712 0.54731 0.7407 0.0
C1887 C 0.22907 0.52075 0.73455 0.0
C1888 C 0.22463 0.55505 0.7668 0.0
C1889 C 0.22813 0.50227 0.75468 0.0
C1890 C 0.22378 0.53598 0.78636 0.0
N1891 N 0.2255 0.51021 0.77995 0.0
C1892 C 0.26761 0.54667 0.67644 0.0
C1893 C 0.23879 0.5411 0.64096 0.0
C1894 C 0.28577 0.53096 0.66431 0.0
N1895 N 0.24495 0.55184 0.66446 0.0
C1896 C 0.25641 0.52506 0.62813 0.0
C1897 C 0.28036 0.52025 0.63972 0.0
H1898 H 0.27176 0.55526 0.69532 0.0
H1899 H 0.22052 0.54517 0.63199 0.0
C1900 C 0.15033 0.56918 0.75178 0.0
N1901 N 0.1664 0.55687 0.7349 0.0
C1902 C 0.13235 0.55489 0.76594 0.0
C1903 C 0.14664 0.51567 0.74382 0.0
C1904 C 0.16457 0.53074 0.73027 0.0
C1905 C 0.13055 0.52776 0.7622 0.0
H1906 H 0.15137 0.59012 0.75418 0.0
H1907 H 0.17715 0.5216 0.71616 0.0
O1908 O 0.23525 0.61232 0.68323 0.0
O1909 O 0.19316 0.6139 0.72671 0.0
O1910 O 0.18659 0.57789 0.67857 0.0
O1911 O 0.22759 0.56564 0.72122 0.0
H1912 H 0.23383 0.66281 0.6951 0.0
H1913 H 0.28366 0.59858 0.67573 0.0
H1914 H 0.27182 0.69165 0.69837 0.0
H1915 H 0.32083 0.62842 0.67986 0.0
H1916 H 0.18042 0.6389 0.8112 0.0
H1917 H 0.19163 0.66536 0.71917 0.0
H1918 H 0.18869 0.60488 0.77774 0.0
H1919 H 0.18306 0.69816 0.75349 0.0
H1920 H 0.18808 0.70571 0.65886 0.0
H1921 H 0.12486 0.66724 0.69819 0.0
H1922 H 0.30598 0.59408 0.77788 0.0
H1923 H 0.27057 0.67074 0.77752 0.0
H1924 H 0.15399 0.54547 0.65622 0.0
H1925 H 0.20762 0.60783 0.64167 0.0
H1926 H 0.14482 0.54371 0.60856 0.0
H1927 H 0.19744 0.60503 0.59444 0.0
H1928 H 0.23104 0.51449 0.71441 0.0
H1929 H 0.2234 0.57554 0.77187 0.0
H1930 H 0.22945 0.48163 0.75021 0.0
H1931 H 0.22177 0.54168 0.80665 0.0
H1932 H 0.30397 0.52748 0.67387 0.0
H1933 H 0.25173 0.51726 0.609 0.0
H1934 H 0.11982 0.56496 0.77951 0.0
H1935 H 0.14571 0.49478 0.74037 0.0
Li1936 Li 0.61636 0.98682 0.96969 0.0
Li1937 Li 0.64333 0.9447 0.96977 0.0
Li1938 Li 0.6374 0.97158 0.93037 0.0
Li1939 Li 0.60243 0.94766 0.94679 0.0
C1940 C 0.67112 0.00041 0.9569 0.0
N1941 N 0.70605 0.03728 0.9398 0.0
C1942 C 0.69731 0.99474 0.95703 0.0
C1943 C 0.66273 0.02495 0.94836 0.0
C1944 C 0.71465 0.01361 0.94822 0.0
C1945 C 0.68068 0.0433 0.93974 0.0
C1946 C 0.58814 0.93924 0.99611 0.0
C1947 C 0.56717 0.90004 0.01156 0.0
N1948 N 0.54575 0.9142 0.01685 0.0
C1949 C 0.56588 0.95335 0.00172 0.0
C1950 C 0.58875 0.9123 0.001 0.0
C1951 C 0.54465 0.94036 0.01215 0.0
C1952 C 0.58361 0.0249 0.99234 0.0
N1953 N 0.60809 0.01609 0.9908 0.0
C1954 C 0.62112 0.04497 0.02502 0.0
C1955 C 0.62692 0.02633 0.006 0.0
C1956 C 0.59548 0.05228 0.02922 0.0
C1957 C 0.57676 0.04285 0.01171 0.0
H1958 H 0.56909 0.01669 0.97966 0.0
H1959 H 0.64629 0.01908 0.00429 0.0
C1960 C 0.69064 0.92034 0.97843 0.0
N1961 N 0.6668 0.92371 0.98843 0.0
C1962 C 0.70835 0.90443 0.9913 0.0
C1963 C 0.67602 0.89459 0.02364 0.0
C1964 C 0.65942 0.91166 0.01083 0.0
C1965 C 0.70115 0.89084 0.01419 0.0
H1966 H 0.69588 0.93003 0.9604 0.0
H1967 H 0.64053 0.91506 0.01866 0.0
C1968 C 0.58992 0.98664 0.91023 0.0
N1969 N 0.56662 0.99074 0.86187 0.0
C1970 C 0.59199 0.96629 0.8921 0.0
C1971 C 0.57594 0.00905 0.90381 0.0
C1972 C 0.58008 0.96873 0.86774 0.0
C1973 C 0.56431 0.01077 0.87924 0.0
C1974 C 0.63997 0.91044 0.92218 0.0
C1975 C 0.64286 0.90925 0.89501 0.0
C1976 C 0.64294 0.88771 0.93711 0.0
C1977 C 0.64815 0.88521 0.88317 0.0
C1978 C 0.64821 0.86405 0.92454 0.0
N1979 N 0.65067 0.86329 0.89806 0.0
C1980 C 0.67982 0.97117 0.89842 0.0
C1981 C 0.65015 0.00493 0.88837 0.0
C1982 C 0.69818 0.9825 0.88224 0.0
N1983 N 0.65671 0.98294 0.90168 0.0
C1984 C 0.66779 0.01672 0.87172 0.0
C1985 C 0.69238 0.00591 0.86924 0.0
H1986 H 0.68456 0.95401 0.90983 0.0
H1987 H 0.63202 0.01438 0.89209 0.0
C1988 C 0.54954 0.93972 0.93785 0.0
N1989 N 0.57255 0.92743 0.93966 0.0
C1990 C 0.52691 0.92562 0.94143 0.0
C1991 C 0.5521 0.88636 0.94674 0.0
C1992 C 0.5741 0.90106 0.9423 0.0
C1993 C 0.52811 0.89889 0.94807 0.0
H1994 H 0.54877 0.96077 0.93596 0.0
H1995 H 0.59252 0.8918 0.94421 0.0
O1996 O 0.65369 0.98186 0.96442 0.0
O1997 O 0.60904 0.95166 0.98558 0.0
O1998 O 0.60149 0.98484 0.93418 0.0
O1999 O 0.63549 0.93395 0.93417 0.0
H2000 H 0.70417 0.97592 0.96364 0.0
H2001 H 0.6425 0.02958 0.94791 0.0
H2002 H 0.73496 0.00941 0.94801 0.0
H2003 H 0.67442 0.06226 0.93283 0.0
H2004 H 0.56735 0.87919 0.01525 0.0
H2005 H 0.56489 0.97407 -0.00211 0.0
H2006 H 0.6054 0.90078 0.996 0.0
H2007 H 0.5273 0.95108 0.01649 0.0
H2008 H 0.63636 0.05216 0.03745 0.0
H2009 H 0.55669 0.04754 0.01411 0.0
H2010 H 0.72743 0.90314 0.98324 0.0
H2011 H 0.66877 0.88439 0.0406 0.0
H2012 H 0.60249 0.94874 0.89683 0.0
H2013 H 0.57416 0.02497 0.91767 0.0
H2014 H 0.58152 0.95311 0.85353 0.0
H2015 H 0.55347 0.02802 0.87399 0.0
H2016 H 0.6412 0.92673 0.88317 0.0
H2017 H 0.6409 0.88827 0.95817 0.0
H2018 H 0.65035 0.88399 0.86216 0.0
H2019 H 0.65037 0.84629 0.93585 0.0
H2020 H 0.71696 0.97364 0.88067 0.0
H2021 H 0.66283 0.03501 0.86227 0.0
H2022 H 0.50892 0.93611 0.94112 0.0
H2023 H 0.55451 0.86598 0.95188 0.0
Li2024 Li 0.87636 0.00778 0.46967 0.0
Li2025 Li 0.84938 0.04989 0.46975 0.0
Li2026 Li 0.85534 0.02302 0.43034 0.0
Li2027 Li 0.8903 0.04695 0.44679 0.0
C2028 C 0.8216 0.99418 0.45685 0.0
N2029 N 0.78668 0.95732 0.43973 0.0
C2030 C 0.79542 -0.00014 0.45696 0.0
C2031 C 0.83 0.96963 0.44833 0.0
C2032 C 0.77808 0.98099 0.44814 0.0
C2033 C 0.81205 0.95129 0.43969 0.0
C2034 C 0.90456 0.05535 0.49611 0.0
C2035 C 0.92552 0.09454 0.51162 0.0
N2036 N 0.94695 0.08038 0.51688 0.0
C2037 C 0.92683 0.04124 0.5017 0.0
C2038 C 0.90394 0.08228 0.50104 0.0
C2039 C 0.94805 0.05422 0.51214 0.0
C2040 C 0.9091 0.96969 0.49233 0.0
N2041 N 0.88463 0.97851 0.49078 0.0
C2042 C 0.87159 0.94963 0.525 0.0
C2043 C 0.86579 0.96826 0.50598 0.0
C2044 C 0.89722 0.94232 0.52921 0.0
C2045 C 0.91595 0.95173 0.5117 0.0
H2046 H 0.92362 0.97789 0.47965 0.0
H2047 H 0.84642 0.97552 0.50427 0.0
C2048 C 0.80207 0.07424 0.4784 0.0
N2049 N 0.8259 0.07087 0.48841 0.0
C2050 C 0.78435 0.09014 0.49127 0.0
C2051 C 0.81665 0.09993 0.52365 0.0
C2052 C 0.83326 0.08288 0.51083 0.0
C2053 C 0.79153 0.10371 0.51418 0.0
H2054 H 0.79684 0.06459 0.46035 0.0
H2055 H 0.85215 0.07947 0.51867 0.0
C2056 C 0.90283 0.00798 0.41022 0.0
N2057 N 0.92615 0.00389 0.36187 0.0
C2058 C 0.90077 0.02834 0.3921 0.0
C2059 C 0.91682 0.98557 0.40381 0.0
C2060 C 0.91269 0.0259 0.36775 0.0
C2061 C 0.92845 0.98386 0.37924 0.0
C2062 C 0.85276 0.08417 0.42217 0.0
C2063 C 0.8499 0.08537 0.39499 0.0
C2064 C 0.84977 0.10689 0.4371 0.0
C2065 C 0.84462 0.10942 0.38316 0.0
C2066 C 0.84451 0.13056 0.42454 0.0
N2067 N 0.84208 0.13133 0.39805 0.0
C2068 C 0.81294 0.02344 0.39837 0.0
C2069 C 0.84261 0.98967 0.38834 0.0
C2070 C 0.79459 0.0121 0.38219 0.0
N2071 N 0.83604 0.01166 0.40164 0.0
C2072 C 0.82498 0.97787 0.37169 0.0
C2073 C 0.80039 0.98869 0.3692 0.0
H2074 H 0.80819 0.0406 0.40977 0.0
H2075 H 0.86074 0.98022 0.39208 0.0
C2076 C 0.94318 0.05492 0.43786 0.0
N2077 N 0.92017 0.0672 0.43968 0.0
C2078 C 0.9658 0.06902 0.44145 0.0
C2079 C 0.9406 0.10827 0.44681 0.0
C2080 C 0.9186 0.09356 0.44235 0.0
C2081 C 0.96459 0.09575 0.44812 0.0
H2082 H 0.94396 0.03387 0.43595 0.0
H2083 H 0.90019 0.10281 0.44427 0.0
O2084 O 0.83903 0.01273 0.46439 0.0
O2085 O 0.88367 0.04293 0.48557 0.0
O2086 O 0.89125 0.00977 0.43417 0.0
O2087 O 0.85723 0.06065 0.43416 0.0
H2088 H 0.78856 0.01868 0.46357 0.0
H2089 H 0.85022 0.965 0.44789 0.0
H2090 H 0.75778 0.9852 0.44791 0.0
H2091 H 0.81831 0.93233 0.43279 0.0
H2092 H 0.92533 0.11537 0.51533 0.0
H2093 H 0.92783 0.02052 0.49785 0.0
H2094 H 0.88729 0.0938 0.49606 0.0
H2095 H 0.9654 0.0435 0.51647 0.0
H2096 H 0.85635 0.94245 0.53743 0.0
H2097 H 0.93602 0.94704 0.51411 0.0
H2098 H 0.76528 0.09146 0.4832 0.0
H2099 H 0.82389 0.11011 0.54063 0.0
H2100 H 0.89027 0.04589 0.39683 0.0
H2101 H 0.91859 0.96965 0.41766 0.0
H2102 H 0.91126 0.04153 0.35354 0.0
H2103 H 0.9393 0.96661 0.37399 0.0
H2104 H 0.85157 0.0679 0.38315 0.0
H2105 H 0.8518 0.10632 0.45816 0.0
H2106 H 0.84244 0.11064 0.36214 0.0
H2107 H 0.84235 0.14831 0.43585 0.0
H2108 H 0.7758 0.02096 0.3806 0.0
H2109 H 0.82994 0.95958 0.36225 0.0
H2110 H 0.9838 0.05854 0.44113 0.0
H2111 H 0.93818 0.12864 0.45197 0.0
loop_
_geom_bond_atom_site_label_1
_geom_bond_atom_site_label_2
_geom_bond_distance
_geom_bond_site_symmetry_2
_ccdc_geom_bond_type
Li0 N17 1.990 . S
Li0 O60 1.956 . S
Li0 O61 1.970 . S
Li0 O62 1.961 . S
Li1 N25 1.990 . S
Li1 O60 1.970 . S
Li1 O61 1.956 . S
Li1 O63 1.961 . S
Li2 N47 1.990 . S
Li2 O60 1.961 . S
Li2 O62 1.956 . S
Li2 O63 1.970 . S
Li3 N53 1.990 . S
Li3 O61 1.961 . S
Li3 O62 1.970 . S
Li3 O63 1.956 . S
C4 C6 1.348 . S
C4 C7 1.356 . S
C4 O60 1.325 . S
N5 C8 1.314 . S
N5 C9 1.279 . S
C6 C4 1.348 . S
C6 C8 1.353 . S
C6 H64 0.929 . S
C7 C4 1.356 . S
C7 C9 1.358 . S
C7 H65 0.930 . S
C8 N5 1.314 . S
C8 C6 1.353 . S
C8 H66 0.930 . S
C9 N5 1.279 . S
C9 C7 1.358 . S
C9 H67 0.930 . S
C10 C13 1.348 . S
C10 C14 1.356 . S
C10 O61 1.325 . S
C11 N12 1.279 . S
C11 C14 1.358 . S
C11 H68 0.930 . S
N12 C11 1.279 . S
N12 C15 1.314 . S
C13 C10 1.348 . S
C13 C15 1.353 . S
C13 H69 0.929 . S
C14 C10 1.356 . S
C14 C11 1.358 . S
C14 H70 0.930 . S
C15 N12 1.314 . S
C15 C13 1.353 . S
C15 H71 0.930 . S
C16 N17 1.314 . S
C16 C21 1.353 . S
C16 H22 0.930 . S
N17 Li0 1.990 . S
N17 C16 1.314 . S
N17 C19 1.279 . S
C18 C19 1.358 . S
C18 C20 1.356 . S
C18 H72 0.930 . S
C19 N17 1.279 . S
C19 C18 1.358 . S
C19 H23 0.930 . S
C20 C18 1.356 . S
C20 C21 1.348 . S
C21 C16 1.353 . S
C21 C20 1.348 . S
C21 H73 0.929 . S
H22 C16 0.930 . S
H23 C19 0.930 . S
C24 N25 1.314 . S
C24 C26 1.353 . S
C24 H30 0.930 . S
N25 Li1 1.990 . S
N25 C24 1.314 . S
N25 C28 1.279 . S
C26 C24 1.353 . S
C26 C29 1.348 . S
C26 H74 0.929 . S
C27 C28 1.358 . S
C27 C29 1.356 . S
C27 H75 0.930 . S
C28 N25 1.279 . S
C28 C27 1.358 . S
C28 H31 0.930 . S
C29 C26 1.348 . S
C29 C27 1.356 . S
H30 C24 0.930 . S
H31 C28 0.930 . S
C32 C34 1.348 . S
C32 C35 1.356 . S
C32 O62 1.325 . S
N33 C36 1.314 . S
N33 C37 1.279 . S
C34 C32 1.348 . S
C34 C36 1.353 . S
C34 H76 0.929 . S
C35 C32 1.356 . S
C35 C37 1.358 . S
C35 H77 0.930 . S
C36 N33 1.314 . S
C36 C34 1.353 . S
C36 H78 0.930 . S
C37 N33 1.279 . S
C37 C35 1.358 . S
C37 H79 0.930 . S
C38 C39 1.348 . S
C38 C40 1.356 . S
C38 O63 1.325 . S
C39 C38 1.348 . S
C39 C41 1.353 . S
C39 H80 0.929 . S
C40 C38 1.356 . S
C40 C42 1.358 . S
C40 H81 0.930 . S
C41 C39 1.353 . S
C41 N43 1.314 . S
C41 H82 0.930 . S
C42 C40 1.358 . S
C42 N43 1.279 . S
C42 H83 0.930 . S
N43 C41 1.314 . S
N43 C42 1.279 . S
C44 C46 1.353 . S
C44 N47 1.314 . S
C44 H50 0.930 . S
C45 N47 1.279 . S
C45 C48 1.358 . S
C45 H51 0.930 . S
C46 C44 1.353 . S
C46 C49 1.348 . S
C46 H84 0.929 . S
N47 Li2 1.990 . S
N47 C44 1.314 . S
N47 C45 1.279 . S
C48 C45 1.358 . S
C48 C49 1.356 . S
C48 H85 0.930 . S
C49 C46 1.348 . S
C49 C48 1.356 . S
H50 C44 0.930 . S
H51 C45 0.930 . S
C52 N53 1.314 . S
C52 C54 1.353 . S
C52 H58 0.930 . S
N53 Li3 1.990 . S
N53 C52 1.314 . S
N53 C56 1.279 . S
C54 C52 1.353 . S
C54 C57 1.348 . S
C54 H86 0.929 . S
C55 C56 1.358 . S
C55 C57 1.356 . S
C55 H87 0.930 . S
C56 N53 1.279 . S
C56 C55 1.358 . S
C56 H59 0.930 . S
C57 C54 1.348 . S
C57 C55 1.356 . S
H58 C52 0.930 . S
H59 C56 0.930 . S
O60 Li0 1.956 . S
O60 Li1 1.970 . S
O60 Li2 1.961 . S
O60 C4 1.325 . S
O61 Li0 1.970 . S
O61 Li1 1.956 . S
O61 Li3 1.961 . S
O61 C10 1.325 . S
O62 Li0 1.961 . S
O62 Li2 1.956 . S
O62 Li3 1.970 . S
O62 C32 1.325 . S
O63 Li1 1.961 . S
O63 Li2 1.970 . S
O63 Li3 1.956 . S
O63 C38 1.325 . S
H64 C6 0.929 . S
H65 C7 0.930 . S
H66 C8 0.930 . S
H67 C9 0.930 . S
H68 C11 0.930 . S
H69 C13 0.929 . S
H70 C14 0.930 . S
H71 C15 0.930 . S
H72 C18 0.930 . S
H73 C21 0.929 . S
H74 C26 0.929 . S
H75 C27 0.930 . S
H76 C34 0.929 . S
H77 C35 0.930 . S
H78 C36 0.930 . S
H79 C37 0.930 . S
H80 C39 0.929 . S
H81 C40 0.930 . S
H82 C41 0.930 . S
H83 C42 0.930 . S
H84 C46 0.929 . S
H85 C48 0.930 . S
H86 C54 0.929 . S
H87 C55 0.930 . S
Li88 N105 1.990 . S
Li88 O148 1.956 . S
Li88 O149 1.970 . S
Li88 O150 1.961 . S
Li89 N113 1.990 . S
Li89 O148 1.970 . S
Li89 O149 1.956 . S
Li89 O151 1.961 . S
Li90 N135 1.996 1_655 S
Li90 O148 1.961 . S
Li90 O150 1.956 . S
Li90 O151 1.970 . S
Li91 N141 1.990 . S
Li91 O149 1.961 . S
Li91 O150 1.970 . S
Li91 O151 1.956 . S
C92 C94 1.348 . S
C92 C95 1.356 . S
C92 O148 1.325 . S
N93 C96 1.314 . S
N93 C97 1.279 . S
C94 C92 1.348 . S
C94 C96 1.353 1_655 S
C94 H152 0.929 . S
C95 C92 1.356 . S
C95 C97 1.358 1_655 S
C95 H153 0.930 1_565 S
C96 N93 1.314 . S
C96 C94 1.353 1_455 S
C96 H154 0.930 . S
C97 N93 1.279 . S
C97 C95 1.358 1_455 S
C97 H155 0.930 1_565 S
C98 C101 1.348 . S
C98 C102 1.356 . S
C98 O149 1.325 . S
C99 N100 1.279 . S
C99 C102 1.358 . S
C99 H156 0.930 . S
N100 C99 1.279 . S
N100 C103 1.314 . S
C101 C98 1.348 . S
C101 C103 1.353 . S
C101 H157 0.929 . S
C102 C98 1.356 . S
C102 C99 1.358 . S
C102 H158 0.930 . S
C103 N100 1.314 . S
C103 C101 1.353 . S
C103 H159 0.930 . S
C104 N105 1.314 . S
C104 C109 1.353 . S
C104 H110 0.930 . S
N105 Li88 1.990 . S
N105 C104 1.314 . S
N105 C107 1.279 . S
C106 C107 1.358 . S
C106 C108 1.356 . S
C106 H160 0.930 . S
C107 N105 1.279 . S
C107 C106 1.358 . S
C107 H111 0.930 . S
C108 C106 1.356 . S
C108 C109 1.348 . S
C109 C104 1.353 . S
C109 C108 1.348 . S
C109 H161 0.934 . S
H110 C104 0.930 . S
H111 C107 0.930 . S
C112 N113 1.314 1_455 S
C112 C114 1.353 . S
C112 H118 0.930 . S
N113 Li89 1.990 . S
N113 C112 1.314 1_655 S
N113 C116 1.279 . S
C114 C112 1.353 . S
C114 C117 1.348 . S
C114 H162 0.929 . S
C115 C116 1.358 . S
C115 C117 1.356 1_655 S
C115 H163 0.930 . S
C116 N113 1.279 . S
C116 C115 1.358 . S
C116 H119 0.930 . S
C117 C114 1.348 . S
C117 C115 1.356 1_455 S
H118 C112 0.930 . S
H119 C116 0.930 . S
C120 C122 1.348 . S
C120 C123 1.356 1_565 S
C120 O150 1.325 . S
N121 C124 1.314 . S
N121 C125 1.279 . S
C122 C120 1.348 . S
C122 C124 1.353 1_565 S
C122 H164 0.929 . S
C123 C120 1.356 1_545 S
C123 C125 1.358 . S
C123 H165 0.930 . S
C124 N121 1.314 . S
C124 C122 1.353 1_545 S
C124 H166 0.930 . S
C125 N121 1.279 . S
C125 C123 1.358 . S
C125 H167 0.930 . S
C126 C127 1.348 1_655 S
C126 C128 1.356 . S
C126 O151 1.325 . S
C127 C126 1.348 1_455 S
C127 C129 1.353 . S
C127 H168 0.929 . S
C128 C126 1.356 . S
C128 C130 1.358 1_655 S
C128 H169 0.930 . S
C129 C127 1.353 . S
C129 N131 1.314 . S
C129 H170 0.930 . S
C130 C128 1.358 1_455 S
C130 N131 1.279 . S
C130 H171 0.930 . S
N131 C129 1.314 . S
N131 C130 1.279 . S
C132 C134 1.335 1_565 S
C132 N135 1.314 . S
C132 H138 0.951 . S
C133 N135 1.273 1_645 S
C133 C136 1.358 1_655 S
C133 H139 0.930 . S
C134 C132 1.335 1_545 S
C134 C137 1.348 . S
C134 H172 0.929 . S
N135 Li90 1.996 1_455 S
N135 C132 1.314 . S
N135 C133 1.273 1_465 S
C136 C133 1.358 1_455 S
C136 C137 1.356 . S
C136 H173 0.930 . S
C137 C134 1.348 . S
C137 C136 1.356 . S
H138 C132 0.951 . S
H139 C133 0.930 . S
C140 N141 1.314 . S
C140 C142 1.353 . S
C140 H146 0.930 . S
N141 Li91 1.990 . S
N141 C140 1.314 . S
N141 C144 1.279 . S
C142 C140 1.353 . S
C142 C145 1.348 . S
C142 H174 0.929 . S
C143 C144 1.358 . S
C143 C145 1.356 . S
C143 H175 0.930 . S
C144 N141 1.279 . S
C144 C143 1.358 . S
C144 H147 0.930 . S
C145 C142 1.348 . S
C145 C143 1.356 . S
H146 C140 0.930 . S
H147 C144 0.930 . S
O148 Li88 1.956 . S
O148 Li89 1.970 . S
O148 Li90 1.961 . S
O148 C92 1.325 . S
O149 Li88 1.970 . S
O149 Li89 1.956 . S
O149 Li91 1.961 . S
O149 C98 1.325 . S
O150 Li88 1.961 . S
O150 Li90 1.956 . S
O150 Li91 1.970 . S
O150 C120 1.325 . S
O151 Li89 1.961 . S
O151 Li90 1.970 . S
O151 Li91 1.956 . S
O151 C126 1.325 . S
H152 C94 0.929 . S
H153 C95 0.930 1_545 S
H154 C96 0.930 . S
H155 C97 0.930 1_545 S
H156 C99 0.930 . S
H157 C101 0.929 . S
H158 C102 0.930 . S
H159 C103 0.930 . S
H160 C106 0.930 . S
H161 C109 0.934 . S
H162 C114 0.929 . S
H163 C115 0.930 . S
H164 C122 0.929 . S
H165 C123 0.930 . S
H166 C124 0.930 . S
H167 C125 0.930 . S
H168 C127 0.929 . S
H169 C128 0.930 . S
H170 C129 0.930 . S
H171 C130 0.930 . S
H172 C134 0.929 . S
H173 C136 0.930 . S
H174 C142 0.929 . S
H175 C143 0.930 . S
Li176 N193 1.990 . S
Li176 O236 1.956 . S
Li176 O237 1.970 . S
Li176 O238 1.961 . S
Li177 N201 1.990 . S
Li177 O236 1.970 . S
Li177 O237 1.956 . S
Li177 O239 1.961 . S
Li178 N223 1.990 . S
Li178 O236 1.961 . S
Li178 O238 1.956 . S
Li178 O239 1.970 . S
Li179 N229 1.990 . S
Li179 O237 1.961 . S
Li179 O238 1.970 . S
Li179 O239 1.956 . S
C180 C182 1.348 . S
C180 C183 1.356 . S
C180 O236 1.325 . S
N181 C184 1.314 . S
N181 C185 1.279 . S
C182 C180 1.348 . S
C182 C184 1.353 . S
C182 H240 0.929 . S
C183 C180 1.356 . S
C183 C185 1.358 . S
C183 H241 0.930 . S
C184 N181 1.314 . S
C184 C182 1.353 . S
C184 H242 0.930 . S
C185 N181 1.279 . S
C185 C183 1.358 . S
C185 H243 0.930 . S
C186 C189 1.348 . S
C186 C190 1.356 . S
C186 O237 1.325 . S
C187 N188 1.279 . S
C187 C190 1.358 . S
C187 H244 0.930 . S
N188 C187 1.279 . S
N188 C191 1.314 . S
C189 C186 1.348 . S
C189 C191 1.353 . S
C189 H245 0.929 . S
C190 C186 1.356 . S
C190 C187 1.358 . S
C190 H246 0.930 . S
C191 N188 1.314 . S
C191 C189 1.353 . S
C191 H247 0.930 . S
C192 N193 1.314 . S
C192 C197 1.353 . S
C192 H198 0.930 . S
N193 Li176 1.990 . S
N193 C192 1.314 . S
N193 C195 1.279 . S
C194 C195 1.358 . S
C194 C196 1.356 . S
C194 H248 0.930 . S
C195 N193 1.279 . S
C195 C194 1.358 . S
C195 H199 0.930 . S
C196 C194 1.356 . S
C196 C197 1.348 . S
C197 C192 1.353 . S
C197 C196 1.348 . S
C197 H249 0.929 . S
H198 C192 0.930 . S
H199 C195 0.930 . S
C200 N201 1.314 . S
C200 C202 1.353 . S
C200 H206 0.930 . S
N201 Li177 1.990 . S
N201 C200 1.314 . S
N201 C204 1.279 . S
C202 C200 1.353 . S
C202 C205 1.348 . S
C202 H250 0.929 . S
C203 C204 1.358 . S
C203 C205 1.356 . S
C203 H251 0.930 . S
C204 N201 1.279 . S
C204 C203 1.358 . S
C204 H207 0.930 . S
C205 C202 1.348 . S
C205 C203 1.356 . S
H206 C200 0.930 . S
H207 C204 0.930 . S
C208 C210 1.348 . S
C208 C211 1.356 . S
C208 O238 1.325 . S
N209 C212 1.314 . S
N209 C213 1.279 . S
C210 C208 1.348 . S
C210 C212 1.353 . S
C210 H252 0.929 . S
C211 C208 1.356 . S
C211 C213 1.358 . S
C211 H253 0.930 . S
C212 N209 1.314 . S
C212 C210 1.353 . S
C212 H254 0.930 . S
C213 N209 1.279 . S
C213 C211 1.358 . S
C213 H255 0.930 . S
C214 C215 1.348 . S
C214 C216 1.356 . S
C214 O239 1.325 . S
C215 C214 1.348 . S
C215 C217 1.353 . S
C215 H256 0.929 . S
C216 C214 1.356 . S
C216 C218 1.358 . S
C216 H257 0.930 . S
C217 C215 1.353 . S
C217 N219 1.314 . S
C217 H258 0.930 . S
C218 C216 1.358 . S
C218 N219 1.279 . S
C218 H259 0.930 . S
N219 C217 1.314 . S
N219 C218 1.279 . S
C220 C222 1.353 . S
C220 N223 1.314 . S
C220 H226 0.930 . S
C221 N223 1.279 . S
C221 C224 1.358 . S
C221 H227 0.930 . S
C222 C220 1.353 . S
C222 C225 1.348 . S
C222 H260 0.929 . S
N223 Li178 1.990 . S
N223 C220 1.314 . S
N223 C221 1.279 . S
C224 C221 1.358 . S
C224 C225 1.356 . S
C224 H261 0.930 . S
C225 C222 1.348 . S
C225 C224 1.356 . S
H226 C220 0.930 . S
H227 C221 0.930 . S
C228 N229 1.314 . S
C228 C230 1.353 . S
C228 H234 0.930 . S
N229 Li179 1.990 . S
N229 C228 1.314 . S
N229 C232 1.279 . S
C230 C228 1.353 . S
C230 C233 1.348 . S
C230 H262 0.929 . S
C231 C232 1.358 . S
C231 C233 1.356 . S
C231 H263 0.930 . S
C232 N229 1.279 . S
C232 C231 1.358 . S
C232 H235 0.930 . S
C233 C230 1.348 . S
C233 C231 1.356 . S
H234 C228 0.930 . S
H235 C232 0.930 . S
O236 Li176 1.956 . S
O236 Li177 1.970 . S
O236 Li178 1.961 . S
O236 C180 1.325 . S
O237 Li176 1.970 . S
O237 Li177 1.956 . S
O237 Li179 1.961 . S
O237 C186 1.325 . S
O238 Li176 1.961 . S
O238 Li178 1.956 . S
O238 Li179 1.970 . S
O238 C208 1.325 . S
O239 Li177 1.961 . S
O239 Li178 1.970 . S
O239 Li179 1.956 . S
O239 C214 1.325 . S
H240 C182 0.929 . S
H241 C183 0.930 . S
H242 C184 0.930 . S
H243 C185 0.930 . S
H244 C187 0.930 . S
H245 C189 0.929 . S
H246 C190 0.930 . S
H247 C191 0.930 . S
H248 C194 0.930 . S
H249 C197 0.929 . S
H250 C202 0.929 . S
H251 C203 0.930 . S
H252 C210 0.929 . S
H253 C211 0.930 . S
H254 C212 0.930 . S
H255 C213 0.930 . S
H256 C215 0.929 . S
H257 C216 0.930 . S
H258 C217 0.930 . S
H259 C218 0.930 . S
H260 C222 0.929 . S
H261 C224 0.930 . S
H262 C230 0.929 . S
H263 C231 0.930 . S
Li264 N281 1.990 . S
Li264 O324 1.956 . S
Li264 O325 1.970 . S
Li264 O326 1.961 . S
Li265 N289 1.990 . S
Li265 O324 1.970 . S
Li265 O325 1.956 . S
Li265 O327 1.961 . S
Li266 N311 1.996 . S
Li266 O324 1.961 . S
Li266 O326 1.956 . S
Li266 O327 1.970 . S
Li267 N317 1.990 . S
Li267 O325 1.961 . S
Li267 O326 1.970 . S
Li267 O327 1.956 . S
C268 C270 1.348 . S
C268 C271 1.356 . S
C268 O324 1.325 . S
N269 C272 1.314 . S
N269 C273 1.279 . S
C270 C268 1.348 . S
C270 C272 1.353 . S
C270 H328 0.929 . S
C271 C268 1.356 . S
C271 C273 1.358 . S
C271 H329 0.930 1_545 S
C272 N269 1.314 . S
C272 C270 1.353 . S
C272 H330 0.930 . S
C273 N269 1.279 . S
C273 C271 1.358 . S
C273 H331 0.930 1_545 S
C274 C277 1.348 . S
C274 C278 1.356 . S
C274 O325 1.325 . S
C275 N276 1.279 . S
C275 C278 1.358 . S
C275 H332 0.930 . S
N276 C275 1.279 . S
N276 C279 1.314 . S
C277 C274 1.348 . S
C277 C279 1.353 . S
C277 H333 0.929 . S
C278 C274 1.356 . S
C278 C275 1.358 . S
C278 H334 0.930 . S
C279 N276 1.314 . S
C279 C277 1.353 . S
C279 H335 0.930 . S
C280 N281 1.314 . S
C280 C285 1.353 . S
C280 H286 0.930 . S
N281 Li264 1.990 . S
N281 C280 1.314 . S
N281 C283 1.279 . S
C282 C283 1.358 . S
C282 C284 1.356 . S
C282 H336 0.930 . S
C283 N281 1.279 . S
C283 C282 1.358 . S
C283 H287 0.930 . S
C284 C282 1.356 . S
C284 C285 1.348 . S
C285 C280 1.353 . S
C285 C284 1.348 . S
C285 H337 0.934 . S
H286 C280 0.930 . S
H287 C283 0.930 . S
C288 N289 1.314 . S
C288 C290 1.353 . S
C288 H294 0.930 . S
N289 Li265 1.990 . S
N289 C288 1.314 . S
N289 C292 1.279 . S
C290 C288 1.353 . S
C290 C293 1.348 . S
C290 H338 0.929 . S
C291 C292 1.358 . S
C291 C293 1.356 . S
C291 H339 0.930 . S
C292 N289 1.279 . S
C292 C291 1.358 . S
C292 H295 0.930 . S
C293 C290 1.348 . S
C293 C291 1.356 . S
H294 C288 0.930 . S
H295 C292 0.930 . S
C296 C298 1.348 . S
C296 C299 1.356 1_545 S
C296 O326 1.325 . S
N297 C300 1.314 . S
N297 C301 1.279 . S
C298 C296 1.348 . S
C298 C300 1.353 1_545 S
C298 H340 0.929 . S
C299 C296 1.356 1_565 S
C299 C301 1.358 . S
C299 H341 0.930 . S
C300 N297 1.314 . S
C300 C298 1.353 1_565 S
C300 H342 0.930 . S
C301 N297 1.279 . S
C301 C299 1.358 . S
C301 H343 0.930 . S
C302 C303 1.348 . S
C302 C304 1.356 . S
C302 O327 1.325 . S
C303 C302 1.348 . S
C303 C305 1.353 . S
C303 H344 0.929 . S
C304 C302 1.356 . S
C304 C306 1.358 . S
C304 H345 0.930 . S
C305 C303 1.353 . S
C305 N307 1.314 . S
C305 H346 0.930 . S
C306 C304 1.358 . S
C306 N307 1.279 . S
C306 H347 0.930 . S
N307 C305 1.314 . S
N307 C306 1.279 . S
C308 C310 1.334 1_545 S
C308 N311 1.314 . S
C308 H314 0.952 . S
C309 N311 1.273 1_565 S
C309 C312 1.358 . S
C309 H315 0.930 . S
C310 C308 1.334 1_565 S
C310 C313 1.348 . S
C310 H348 0.929 . S
N311 Li266 1.996 . S
N311 C308 1.314 . S
N311 C309 1.273 1_545 S
C312 C309 1.358 . S
C312 C313 1.356 . S
C312 H349 0.930 . S
C313 C310 1.348 . S
C313 C312 1.356 . S
H314 C308 0.952 . S
H315 C309 0.930 . S
C316 N317 1.314 . S
C316 C318 1.353 . S
C316 H322 0.930 . S
N317 Li267 1.990 . S
N317 C316 1.314 . S
N317 C320 1.279 . S
C318 C316 1.353 . S
C318 C321 1.348 . S
C318 H350 0.929 . S
C319 C320 1.358 . S
C319 C321 1.356 . S
C319 H351 0.930 . S
C320 N317 1.279 . S
C320 C319 1.358 . S
C320 H323 0.930 . S
C321 C318 1.348 . S
C321 C319 1.356 . S
H322 C316 0.930 . S
H323 C320 0.930 . S
O324 Li264 1.956 . S
O324 Li265 1.970 . S
O324 Li266 1.961 . S
O324 C268 1.325 . S
O325 Li264 1.970 . S
O325 Li265 1.956 . S
O325 Li267 1.961 . S
O325 C274 1.325 . S
O326 Li264 1.961 . S
O326 Li266 1.956 . S
O326 Li267 1.970 . S
O326 C296 1.325 . S
O327 Li265 1.961 . S
O327 Li266 1.970 . S
O327 Li267 1.956 . S
O327 C302 1.325 . S
H328 C270 0.929 . S
H329 C271 0.930 1_565 S
H330 C272 0.930 . S
H331 C273 0.930 1_565 S
H332 C275 0.930 . S
H333 C277 0.929 . S
H334 C278 0.930 . S
H335 C279 0.930 . S
H336 C282 0.930 . S
H337 C285 0.934 . S
H338 C290 0.929 . S
H339 C291 0.930 . S
H340 C298 0.929 . S
H341 C299 0.930 . S
H342 C300 0.930 . S
H343 C301 0.930 . S
H344 C303 0.929 . S
H345 C304 0.930 . S
H346 C305 0.930 . S
H347 C306 0.930 . S
H348 C310 0.929 . S
H349 C312 0.930 . S
H350 C318 0.929 . S
H351 C319 0.930 . S
Li352 N369 1.990 . S
Li352 O412 1.956 . S
Li352 O413 1.970 . S
Li352 O414 1.961 . S
Li353 N377 1.990 . S
Li353 O412 1.970 . S
Li353 O413 1.956 . S
Li353 O415 1.961 . S
Li354 N399 1.990 . S
Li354 O412 1.961 . S
Li354 O414 1.956 . S
Li354 O415 1.970 . S
Li355 N405 1.990 . S
Li355 O413 1.961 . S
Li355 O414 1.970 . S
Li355 O415 1.956 . S
C356 C358 1.348 . S
C356 C359 1.356 . S
C356 O412 1.325 . S
N357 C360 1.314 . S
N357 C361 1.279 . S
C358 C356 1.348 . S
C358 C360 1.353 . S
C358 H416 0.929 . S
C359 C356 1.356 . S
C359 C361 1.358 . S
C359 H417 0.930 . S
C360 N357 1.314 . S
C360 C358 1.353 . S
C360 H418 0.930 . S
C361 N357 1.279 . S
C361 C359 1.358 . S
C361 H419 0.930 . S
C362 C365 1.348 . S
C362 C366 1.356 . S
C362 O413 1.325 . S
C363 N364 1.279 . S
C363 C366 1.358 . S
C363 H420 0.930 . S
N364 C363 1.279 . S
N364 C367 1.314 . S
C365 C362 1.348 . S
C365 C367 1.353 . S
C365 H421 0.929 . S
C366 C362 1.356 . S
C366 C363 1.358 . S
C366 H422 0.930 . S
C367 N364 1.314 . S
C367 C365 1.353 . S
C367 H423 0.930 . S
C368 N369 1.314 . S
C368 C373 1.353 . S
C368 H374 0.930 . S
N369 Li352 1.990 . S
N369 C368 1.314 . S
N369 C371 1.279 . S
C370 C371 1.358 . S
C370 C372 1.356 . S
C370 H424 0.930 . S
C371 N369 1.279 . S
C371 C370 1.358 . S
C371 H375 0.930 . S
C372 C370 1.356 . S
C372 C373 1.348 . S
C373 C368 1.353 . S
C373 C372 1.348 . S
C373 H425 0.929 . S
H374 C368 0.930 . S
H375 C371 0.930 . S
C376 N377 1.314 . S
C376 C378 1.353 . S
C376 H382 0.930 . S
N377 Li353 1.990 . S
N377 C376 1.314 . S
N377 C380 1.279 . S
C378 C376 1.353 . S
C378 C381 1.348 . S
C378 H426 0.929 . S
C379 C380 1.358 . S
C379 C381 1.356 . S
C379 H427 0.930 . S
C380 N377 1.279 . S
C380 C379 1.358 . S
C380 H383 0.930 . S
C381 C378 1.348 . S
C381 C379 1.356 . S
H382 C376 0.930 . S
H383 C380 0.930 . S
C384 C386 1.348 . S
C384 C387 1.356 . S
C384 O414 1.325 . S
N385 C388 1.314 . S
N385 C389 1.279 . S
C386 C384 1.348 . S
C386 C388 1.353 . S
C386 H428 0.929 . S
C387 C384 1.356 . S
C387 C389 1.358 . S
C387 H429 0.930 . S
C388 N385 1.314 . S
C388 C386 1.353 . S
C388 H430 0.930 . S
C389 N385 1.279 . S
C389 C387 1.358 . S
C389 H431 0.930 . S
C390 C391 1.348 . S
C390 C392 1.356 . S
C390 O415 1.325 . S
C391 C390 1.348 . S
C391 C393 1.353 . S
C391 H432 0.929 . S
C392 C390 1.356 . S
C392 C394 1.358 . S
C392 H433 0.930 . S
C393 C391 1.353 . S
C393 N395 1.314 . S
C393 H434 0.930 . S
C394 C392 1.358 . S
C394 N395 1.279 . S
C394 H435 0.930 . S
N395 C393 1.314 . S
N395 C394 1.279 . S
C396 C398 1.353 . S
C396 N399 1.314 . S
C396 H402 0.930 . S
C397 N399 1.279 . S
C397 C400 1.358 . S
C397 H403 0.930 . S
C398 C396 1.353 . S
C398 C401 1.348 . S
C398 H436 0.929 . S
N399 Li354 1.990 . S
N399 C396 1.314 . S
N399 C397 1.279 . S
C400 C397 1.358 . S
C400 C401 1.356 . S
C400 H437 0.930 . S
C401 C398 1.348 . S
C401 C400 1.356 . S
H402 C396 0.930 . S
H403 C397 0.930 . S
C404 N405 1.314 . S
C404 C406 1.353 . S
C404 H410 0.930 . S
N405 Li355 1.990 . S
N405 C404 1.314 . S
N405 C408 1.279 . S
C406 C404 1.353 . S
C406 C409 1.348 . S
C406 H438 0.929 . S
C407 C408 1.358 . S
C407 C409 1.356 . S
C407 H439 0.930 . S
C408 N405 1.279 . S
C408 C407 1.358 . S
C408 H411 0.930 . S
C409 C406 1.348 . S
C409 C407 1.356 . S
H410 C404 0.930 . S
H411 C408 0.930 . S
O412 Li352 1.956 . S
O412 Li353 1.970 . S
O412 Li354 1.961 . S
O412 C356 1.325 . S
O413 Li352 1.970 . S
O413 Li353 1.956 . S
O413 Li355 1.961 . S
O413 C362 1.325 . S
O414 Li352 1.961 . S
O414 Li354 1.956 . S
O414 Li355 1.970 . S
O414 C384 1.325 . S
O415 Li353 1.961 . S
O415 Li354 1.970 . S
O415 Li355 1.956 . S
O415 C390 1.325 . S
H416 C358 0.929 . S
H417 C359 0.930 . S
H418 C360 0.930 . S
H419 C361 0.930 . S
H420 C363 0.930 . S
H421 C365 0.929 . S
H422 C366 0.930 . S
H423 C367 0.930 . S
H424 C370 0.930 . S
H425 C373 0.929 . S
H426 C378 0.929 . S
H427 C379 0.930 . S
H428 C386 0.929 . S
H429 C387 0.930 . S
H430 C388 0.930 . S
H431 C389 0.930 . S
H432 C391 0.929 . S
H433 C392 0.930 . S
H434 C393 0.930 . S
H435 C394 0.930 . S
H436 C398 0.929 . S
H437 C400 0.930 . S
H438 C406 0.929 . S
H439 C407 0.930 . S
Li440 N457 1.990 1_455 S
Li440 O500 1.956 . S
Li440 O501 1.970 . S
Li440 O502 1.961 . S
Li441 N465 1.990 . S
Li441 O500 1.970 . S
Li441 O501 1.956 . S
Li441 O503 1.961 . S
Li442 N487 1.990 . S
Li442 O500 1.961 . S
Li442 O502 1.956 . S
Li442 O503 1.970 . S
Li443 N493 1.990 . S
Li443 O501 1.961 . S
Li443 O502 1.970 . S
Li443 O503 1.956 . S
C444 C446 1.348 . S
C444 C447 1.356 . S
C444 O500 1.325 . S
N445 C448 1.314 . S
N445 C449 1.279 . S
C446 C444 1.348 . S
C446 C448 1.353 . S
C446 H504 0.929 . S
C447 C444 1.356 . S
C447 C449 1.358 . S
C447 H505 0.930 . S
C448 N445 1.314 . S
C448 C446 1.353 . S
C448 H506 0.930 . S
C449 N445 1.279 . S
C449 C447 1.358 . S
C449 H507 0.930 . S
C450 C453 1.348 1_455 S
C450 C454 1.356 . S
C450 O501 1.325 . S
C451 N452 1.279 . S
C451 C454 1.358 1_655 S
C451 H508 0.930 . S
N452 C451 1.279 . S
N452 C455 1.314 . S
C453 C450 1.348 1_655 S
C453 C455 1.353 . S
C453 H509 0.929 . S
C454 C450 1.356 . S
C454 C451 1.358 1_455 S
C454 H510 0.930 . S
C455 N452 1.314 . S
C455 C453 1.353 . S
C455 H511 0.930 . S
C456 N457 1.314 . S
C456 C461 1.353 . S
C456 H462 0.930 . S
N457 Li440 1.990 1_655 S
N457 C456 1.314 . S
N457 C459 1.279 1_655 S
C458 C459 1.358 1_655 S
C458 C460 1.356 . S
C458 H512 0.930 . S
C459 N457 1.279 1_455 S
C459 C458 1.358 1_455 S
C459 H463 0.930 . S
C460 C458 1.356 . S
C460 C461 1.348 . S
C461 C456 1.353 . S
C461 C460 1.348 . S
C461 H513 0.929 . S
H462 C456 0.930 . S
H463 C459 0.930 . S
C464 N465 1.314 . S
C464 C466 1.353 . S
C464 H470 0.930 . S
N465 Li441 1.990 . S
N465 C464 1.314 . S
N465 C468 1.279 . S
C466 C464 1.353 . S
C466 C469 1.348 . S
C466 H514 0.929 . S
C467 C468 1.358 . S
C467 C469 1.356 . S
C467 H515 0.930 . S
C468 N465 1.279 . S
C468 C467 1.358 . S
C468 H471 0.930 . S
C469 C466 1.348 . S
C469 C467 1.356 . S
H470 C464 0.930 . S
H471 C468 0.930 . S
C472 C474 1.348 . S
C472 C475 1.356 . S
C472 O502 1.325 . S
N473 C476 1.314 . S
N473 C477 1.279 . S
C474 C472 1.348 . S
C474 C476 1.353 1_455 S
C474 H516 0.929 . S
C475 C472 1.356 . S
C475 C477 1.358 1_455 S
C475 H517 0.930 . S
C476 N473 1.314 . S
C476 C474 1.353 1_655 S
C476 H518 0.930 . S
C477 N473 1.279 . S
C477 C475 1.358 1_655 S
C477 H519 0.930 . S
C478 C479 1.348 . S
C478 C480 1.356 . S
C478 O503 1.325 . S
C479 C478 1.348 . S
C479 C481 1.353 . S
C479 H520 0.929 . S
C480 C478 1.356 . S
C480 C482 1.358 . S
C480 H521 0.930 . S
C481 C479 1.353 . S
C481 N483 1.314 . S
C481 H522 0.930 . S
C482 C480 1.358 . S
C482 N483 1.279 . S
C482 H523 0.930 . S
N483 C481 1.314 . S
N483 C482 1.279 . S
C484 C486 1.353 . S
C484 N487 1.314 . S
C484 H490 0.930 . S
C485 N487 1.279 . S
C485 C488 1.358 . S
C485 H491 0.930 . S
C486 C484 1.353 . S
C486 C489 1.348 . S
C486 H524 0.929 . S
N487 Li442 1.990 . S
N487 C484 1.314 . S
N487 C485 1.279 . S
C488 C485 1.358 . S
C488 C489 1.356 . S
C488 H525 0.930 . S
C489 C486 1.348 . S
C489 C488 1.356 . S
H490 C484 0.930 . S
H491 C485 0.930 . S
C492 N493 1.314 1_655 S
C492 C494 1.353 . S
C492 H498 0.930 . S
N493 Li443 1.990 . S
N493 C492 1.314 1_455 S
N493 C496 1.279 . S
C494 C492 1.353 . S
C494 C497 1.348 . S
C494 H526 0.929 . S
C495 C496 1.358 . S
C495 C497 1.356 1_455 S
C495 H527 0.930 . S
C496 N493 1.279 . S
C496 C495 1.358 . S
C496 H499 0.930 . S
C497 C494 1.348 . S
C497 C495 1.356 1_655 S
H498 C492 0.930 . S
H499 C496 0.930 . S
O500 Li440 1.956 . S
O500 Li441 1.970 . S
O500 Li442 1.961 . S
O500 C444 1.325 . S
O501 Li440 1.970 . S
O501 Li441 1.956 . S
O501 Li443 1.961 . S
O501 C450 1.325 . S
O502 Li440 1.961 . S
O502 Li442 1.956 . S
O502 Li443 1.970 . S
O502 C472 1.325 . S
O503 Li441 1.961 . S
O503 Li442 1.970 . S
O503 Li443 1.956 . S
O503 C478 1.325 . S
H504 C446 0.929 . S
H505 C447 0.930 . S
H506 C448 0.930 . S
H507 C449 0.930 . S
H508 C451 0.930 . S
H509 C453 0.929 . S
H510 C454 0.930 . S
H511 C455 0.930 . S
H512 C458 0.930 . S
H513 C461 0.929 . S
H514 C466 0.929 . S
H515 C467 0.930 . S
H516 C474 0.929 . S
H517 C475 0.930 . S
H518 C476 0.930 . S
H519 C477 0.930 . S
H520 C479 0.929 . S
H521 C480 0.930 . S
H522 C481 0.930 . S
H523 C482 0.930 . S
H524 C486 0.929 . S
H525 C488 0.930 . S
H526 C494 0.929 . S
H527 C495 0.930 . S
Li528 N545 1.990 . S
Li528 O588 1.956 . S
Li528 O589 1.970 . S
Li528 O590 1.961 . S
Li529 N553 1.990 . S
Li529 O588 1.970 . S
Li529 O589 1.956 . S
Li529 O591 1.961 . S
Li530 N575 1.990 . S
Li530 O588 1.961 . S
Li530 O590 1.956 . S
Li530 O591 1.970 . S
Li531 N581 1.990 . S
Li531 O589 1.961 . S
Li531 O590 1.970 . S
Li531 O591 1.956 . S
C532 C534 1.348 . S
C532 C535 1.356 . S
C532 O588 1.325 . S
N533 C536 1.314 . S
N533 C537 1.279 . S
C534 C532 1.348 . S
C534 C536 1.353 . S
C534 H592 0.929 . S
C535 C532 1.356 . S
C535 C537 1.358 . S
C535 H593 0.930 . S
C536 N533 1.314 . S
C536 C534 1.353 . S
C536 H594 0.930 . S
C537 N533 1.279 . S
C537 C535 1.358 . S
C537 H595 0.930 . S
C538 C541 1.348 . S
C538 C542 1.356 . S
C538 O589 1.325 . S
C539 N540 1.279 . S
C539 C542 1.358 . S
C539 H596 0.930 . S
N540 C539 1.279 . S
N540 C543 1.314 . S
C541 C538 1.348 . S
C541 C543 1.353 . S
C541 H597 0.929 . S
C542 C538 1.356 . S
C542 C539 1.358 . S
C542 H598 0.930 . S
C543 N540 1.314 . S
C543 C541 1.353 . S
C543 H599 0.930 . S
C544 N545 1.314 . S
C544 C549 1.353 . S
C544 H550 0.930 . S
N545 Li528 1.990 . S
N545 C544 1.314 . S
N545 C547 1.279 . S
C546 C547 1.358 . S
C546 C548 1.356 . S
C546 H600 0.930 . S
C547 N545 1.279 . S
C547 C546 1.358 . S
C547 H551 0.930 . S
C548 C546 1.356 . S
C548 C549 1.348 . S
C549 C544 1.353 . S
C549 C548 1.348 . S
C549 H601 0.929 . S
H550 C544 0.930 . S
H551 C547 0.930 . S
C552 N553 1.314 . S
C552 C554 1.353 . S
C552 H558 0.930 . S
N553 Li529 1.990 . S
N553 C552 1.314 . S
N553 C556 1.279 . S
C554 C552 1.353 . S
C554 C557 1.348 . S
C554 H602 0.929 . S
C555 C556 1.358 . S
C555 C557 1.356 . S
C555 H603 0.930 . S
C556 N553 1.279 . S
C556 C555 1.358 . S
C556 H559 0.930 . S
C557 C554 1.348 . S
C557 C555 1.356 . S
H558 C552 0.930 . S
H559 C556 0.930 . S
C560 C562 1.348 . S
C560 C563 1.356 . S
C560 O590 1.325 . S
N561 C564 1.314 . S
N561 C565 1.279 . S
C562 C560 1.348 . S
C562 C564 1.353 . S
C562 H604 0.929 . S
C563 C560 1.356 . S
C563 C565 1.358 . S
C563 H605 0.930 . S
C564 N561 1.314 . S
C564 C562 1.353 . S
C564 H606 0.930 . S
C565 N561 1.279 . S
C565 C563 1.358 . S
C565 H607 0.930 . S
C566 C567 1.348 . S
C566 C568 1.356 . S
C566 O591 1.325 . S
C567 C566 1.348 . S
C567 C569 1.353 . S
C567 H608 0.929 . S
C568 C566 1.356 . S
C568 C570 1.358 . S
C568 H609 0.930 . S
C569 C567 1.353 . S
C569 N571 1.314 . S
C569 H610 0.930 . S
C570 C568 1.358 . S
C570 N571 1.279 . S
C570 H611 0.930 . S
N571 C569 1.314 . S
N571 C570 1.279 . S
C572 C574 1.353 . S
C572 N575 1.314 . S
C572 H578 0.930 . S
C573 N575 1.279 . S
C573 C576 1.358 . S
C573 H579 0.930 . S
C574 C572 1.353 . S
C574 C577 1.348 . S
C574 H612 0.929 . S
N575 Li530 1.990 . S
N575 C572 1.314 . S
N575 C573 1.279 . S
C576 C573 1.358 . S
C576 C577 1.356 . S
C576 H613 0.930 . S
C577 C574 1.348 . S
C577 C576 1.356 . S
H578 C572 0.930 . S
H579 C573 0.930 . S
C580 N581 1.314 . S
C580 C582 1.353 . S
C580 H586 0.930 . S
N581 Li531 1.990 . S
N581 C580 1.314 . S
N581 C584 1.279 . S
C582 C580 1.353 . S
C582 C585 1.348 . S
C582 H614 0.929 . S
C583 C584 1.358 . S
C583 C585 1.356 . S
C583 H615 0.930 . S
C584 N581 1.279 . S
C584 C583 1.358 . S
C584 H587 0.930 . S
C585 C582 1.348 . S
C585 C583 1.356 . S
H586 C580 0.930 . S
H587 C584 0.930 . S
O588 Li528 1.956 . S
O588 Li529 1.970 . S
O588 Li530 1.961 . S
O588 C532 1.325 . S
O589 Li528 1.970 . S
O589 Li529 1.956 . S
O589 Li531 1.961 . S
O589 C538 1.325 . S
O590 Li528 1.961 . S
O590 Li530 1.956 . S
O590 Li531 1.970 . S
O590 C560 1.325 . S
O591 Li529 1.961 . S
O591 Li530 1.970 . S
O591 Li531 1.956 . S
O591 C566 1.325 . S
H592 C534 0.929 . S
H593 C535 0.930 . S
H594 C536 0.930 . S
H595 C537 0.930 . S
H596 C539 0.930 . S
H597 C541 0.929 . S
H598 C542 0.930 . S
H599 C543 0.930 . S
H600 C546 0.930 . S
H601 C549 0.929 . S
H602 C554 0.929 . S
H603 C555 0.930 . S
H604 C562 0.929 . S
H605 C563 0.930 . S
H606 C564 0.930 . S
H607 C565 0.930 . S
H608 C567 0.929 . S
H609 C568 0.930 . S
H610 C569 0.930 . S
H611 C570 0.930 . S
H612 C574 0.929 . S
H613 C576 0.930 . S
H614 C582 0.929 . S
H615 C583 0.930 . S
Li616 N633 1.990 . S
Li616 O676 1.956 . S
Li616 O677 1.970 . S
Li616 O678 1.961 . S
Li617 N641 1.990 . S
Li617 O676 1.970 . S
Li617 O677 1.956 . S
Li617 O679 1.961 . S
Li618 N663 1.990 . S
Li618 O676 1.961 . S
Li618 O678 1.956 . S
Li618 O679 1.970 . S
Li619 N669 1.990 . S
Li619 O677 1.961 . S
Li619 O678 1.970 . S
Li619 O679 1.956 . S
C620 C622 1.348 . S
C620 C623 1.356 . S
C620 O676 1.325 . S
N621 C624 1.314 . S
N621 C625 1.279 . S
C622 C620 1.348 . S
C622 C624 1.353 . S
C622 H680 0.929 . S
C623 C620 1.356 . S
C623 C625 1.358 . S
C623 H681 0.930 . S
C624 N621 1.314 . S
C624 C622 1.353 . S
C624 H682 0.930 . S
C625 N621 1.279 . S
C625 C623 1.358 . S
C625 H683 0.930 . S
C626 C629 1.348 . S
C626 C630 1.356 . S
C626 O677 1.325 . S
C627 N628 1.279 . S
C627 C630 1.358 . S
C627 H684 0.930 . S
N628 C627 1.279 . S
N628 C631 1.314 . S
C629 C626 1.348 . S
C629 C631 1.353 . S
C629 H685 0.929 . S
C630 C626 1.356 . S
C630 C627 1.358 . S
C630 H686 0.930 . S
C631 N628 1.314 . S
C631 C629 1.353 . S
C631 H687 0.930 . S
C632 N633 1.314 . S
C632 C637 1.353 . S
C632 H638 0.930 . S
N633 Li616 1.990 . S
N633 C632 1.314 . S
N633 C635 1.279 . S
C634 C635 1.358 . S
C634 C636 1.356 . S
C634 H688 0.930 . S
C635 N633 1.279 . S
C635 C634 1.358 . S
C635 H639 0.930 . S
C636 C634 1.356 . S
C636 C637 1.348 . S
C637 C632 1.353 . S
C637 C636 1.348 . S
C637 H689 0.929 . S
H638 C632 0.930 . S
H639 C635 0.930 . S
C640 N641 1.314 . S
C640 C642 1.353 . S
C640 H646 0.930 . S
N641 Li617 1.990 . S
N641 C640 1.314 . S
N641 C644 1.279 . S
C642 C640 1.353 . S
C642 C645 1.348 . S
C642 H690 0.929 . S
C643 C644 1.358 . S
C643 C645 1.356 . S
C643 H691 0.930 . S
C644 N641 1.279 . S
C644 C643 1.358 . S
C644 H647 0.930 . S
C645 C642 1.348 . S
C645 C643 1.356 . S
H646 C640 0.930 . S
H647 C644 0.930 . S
C648 C650 1.348 . S
C648 C651 1.356 . S
C648 O678 1.325 . S
N649 C652 1.314 . S
N649 C653 1.279 . S
C650 C648 1.348 . S
C650 C652 1.353 . S
C650 H692 0.929 . S
C651 C648 1.356 . S
C651 C653 1.358 . S
C651 H693 0.930 . S
C652 N649 1.314 . S
C652 C650 1.353 . S
C652 H694 0.930 . S
C653 N649 1.279 . S
C653 C651 1.358 . S
C653 H695 0.930 . S
C654 C655 1.348 . S
C654 C656 1.356 . S
C654 O679 1.325 . S
C655 C654 1.348 . S
C655 C657 1.353 . S
C655 H696 0.929 . S
C656 C654 1.356 . S
C656 C658 1.358 . S
C656 H697 0.930 . S
C657 C655 1.353 . S
C657 N659 1.314 . S
C657 H698 0.930 . S
C658 C656 1.358 . S
C658 N659 1.279 . S
C658 H699 0.930 . S
N659 C657 1.314 . S
N659 C658 1.279 . S
C660 C662 1.353 . S
C660 N663 1.314 . S
C660 H666 0.930 . S
C661 N663 1.279 . S
C661 C664 1.358 . S
C661 H667 0.930 . S
C662 C660 1.353 . S
C662 C665 1.348 . S
C662 H700 0.929 . S
N663 Li618 1.990 . S
N663 C660 1.314 . S
N663 C661 1.279 . S
C664 C661 1.358 . S
C664 C665 1.356 . S
C664 H701 0.930 . S
C665 C662 1.348 . S
C665 C664 1.356 . S
H666 C660 0.930 . S
H667 C661 0.930 . S
C668 N669 1.314 . S
C668 C670 1.353 . S
C668 H674 0.930 . S
N669 Li619 1.990 . S
N669 C668 1.314 . S
N669 C672 1.279 . S
C670 C668 1.353 . S
C670 C673 1.348 . S
C670 H702 0.929 . S
C671 C672 1.358 . S
C671 C673 1.356 . S
C671 H703 0.930 . S
C672 N669 1.279 . S
C672 C671 1.358 . S
C672 H675 0.930 . S
C673 C670 1.348 . S
C673 C671 1.356 . S
H674 C668 0.930 . S
H675 C672 0.930 . S
O676 Li616 1.956 . S
O676 Li617 1.970 . S
O676 Li618 1.961 . S
O676 C620 1.325 . S
O677 Li616 1.970 . S
O677 Li617 1.956 . S
O677 Li619 1.961 . S
O677 C626 1.325 . S
O678 Li616 1.961 . S
O678 Li618 1.956 . S
O678 Li619 1.970 . S
O678 C648 1.325 . S
O679 Li617 1.961 . S
O679 Li618 1.970 . S
O679 Li619 1.956 . S
O679 C654 1.325 . S
H680 C622 0.929 . S
H681 C623 0.930 . S
H682 C624 0.930 . S
H683 C625 0.930 . S
H684 C627 0.930 . S
H685 C629 0.929 . S
H686 C630 0.930 . S
H687 C631 0.930 . S
H688 C634 0.930 . S
H689 C637 0.929 . S
H690 C642 0.929 . S
H691 C643 0.930 . S
H692 C650 0.929 . S
H693 C651 0.930 . S
H694 C652 0.930 . S
H695 C653 0.930 . S
H696 C655 0.929 . S
H697 C656 0.930 . S
H698 C657 0.930 . S
H699 C658 0.930 . S
H700 C662 0.929 . S
H701 C664 0.930 . S
H702 C670 0.929 . S
H703 C671 0.930 . S
Li704 N721 1.990 . S
Li704 O764 1.956 . S
Li704 O765 1.970 . S
Li704 O766 1.961 . S
Li705 N729 1.990 . S
Li705 O764 1.970 . S
Li705 O765 1.956 . S
Li705 O767 1.961 . S
Li706 N751 1.990 . S
Li706 O764 1.961 . S
Li706 O766 1.956 . S
Li706 O767 1.970 . S
Li707 N757 1.990 . S
Li707 O765 1.961 . S
Li707 O766 1.970 . S
Li707 O767 1.956 . S
C708 C710 1.348 . S
C708 C711 1.356 . S
C708 O764 1.325 . S
N709 C712 1.314 . S
N709 C713 1.279 . S
C710 C708 1.348 . S
C710 C712 1.353 . S
C710 H768 0.929 . S
C711 C708 1.356 . S
C711 C713 1.358 . S
C711 H769 0.930 . S
C712 N709 1.314 . S
C712 C710 1.353 . S
C712 H770 0.930 . S
C713 N709 1.279 . S
C713 C711 1.358 . S
C713 H771 0.930 . S
C714 C717 1.348 . S
C714 C718 1.356 . S
C714 O765 1.325 . S
C715 N716 1.279 . S
C715 C718 1.358 . S
C715 H772 0.930 . S
N716 C715 1.279 . S
N716 C719 1.314 . S
C717 C714 1.348 . S
C717 C719 1.353 . S
C717 H773 0.929 . S
C718 C714 1.356 . S
C718 C715 1.358 . S
C718 H774 0.930 . S
C719 N716 1.314 . S
C719 C717 1.353 . S
C719 H775 0.930 . S
C720 N721 1.314 . S
C720 C725 1.353 . S
C720 H726 0.930 . S
N721 Li704 1.990 . S
N721 C720 1.314 . S
N721 C723 1.279 . S
C722 C723 1.358 . S
C722 C724 1.356 . S
C722 H776 0.930 . S
C723 N721 1.279 . S
C723 C722 1.358 . S
C723 H727 0.930 . S
C724 C722 1.356 . S
C724 C725 1.348 . S
C725 C720 1.353 . S
C725 C724 1.348 . S
C725 H777 0.929 . S
H726 C720 0.930 . S
H727 C723 0.930 . S
C728 N729 1.314 . S
C728 C730 1.353 . S
C728 H734 0.930 . S
N729 Li705 1.990 . S
N729 C728 1.314 . S
N729 C732 1.279 . S
C730 C728 1.353 . S
C730 C733 1.348 . S
C730 H778 0.929 . S
C731 C732 1.358 . S
C731 C733 1.356 . S
C731 H779 0.930 . S
C732 N729 1.279 . S
C732 C731 1.358 . S
C732 H735 0.930 . S
C733 C730 1.348 . S
C733 C731 1.356 . S
H734 C728 0.930 . S
H735 C732 0.930 . S
C736 C738 1.348 . S
C736 C739 1.356 . S
C736 O766 1.325 . S
N737 C740 1.314 . S
N737 C741 1.279 . S
C738 C736 1.348 . S
C738 C740 1.353 . S
C738 H780 0.929 . S
C739 C736 1.356 . S
C739 C741 1.358 . S
C739 H781 0.930 . S
C740 N737 1.314 . S
C740 C738 1.353 . S
C740 H782 0.930 . S
C741 N737 1.279 . S
C741 C739 1.358 . S
C741 H783 0.930 . S
C742 C743 1.348 . S
C742 C744 1.356 . S
C742 O767 1.325 . S
C743 C742 1.348 . S
C743 C745 1.353 . S
C743 H784 0.929 . S
C744 C742 1.356 . S
C744 C746 1.358 . S
C744 H785 0.930 . S
C745 C743 1.353 . S
C745 N747 1.314 . S
C745 H786 0.930 . S
C746 C744 1.358 . S
C746 N747 1.279 . S
C746 H787 0.930 . S
N747 C745 1.314 . S
N747 C746 1.279 . S
C748 C750 1.353 . S
C748 N751 1.314 . S
C748 H754 0.930 . S
C749 N751 1.279 . S
C749 C752 1.358 . S
C749 H755 0.930 . S
C750 C748 1.353 . S
C750 C753 1.348 . S
C750 H788 0.929 . S
N751 Li706 1.990 . S
N751 C748 1.314 . S
N751 C749 1.279 . S
C752 C749 1.358 . S
C752 C753 1.356 . S
C752 H789 0.930 . S
C753 C750 1.348 . S
C753 C752 1.356 . S
H754 C748 0.930 . S
H755 C749 0.930 . S
C756 N757 1.314 . S
C756 C758 1.353 . S
C756 H762 0.930 . S
N757 Li707 1.990 . S
N757 C756 1.314 . S
N757 C760 1.279 . S
C758 C756 1.353 . S
C758 C761 1.348 . S
C758 H790 0.929 . S
C759 C760 1.358 . S
C759 C761 1.356 . S
C759 H791 0.930 . S
C760 N757 1.279 . S
C760 C759 1.358 . S
C760 H763 0.930 . S
C761 C758 1.348 . S
C761 C759 1.356 . S
H762 C756 0.930 . S
H763 C760 0.930 . S
O764 Li704 1.956 . S
O764 Li705 1.970 . S
O764 Li706 1.961 . S
O764 C708 1.325 . S
O765 Li704 1.970 . S
O765 Li705 1.956 . S
O765 Li707 1.961 . S
O765 C714 1.325 . S
O766 Li704 1.961 . S
O766 Li706 1.956 . S
O766 Li707 1.970 . S
O766 C736 1.325 . S
O767 Li705 1.961 . S
O767 Li706 1.970 . S
O767 Li707 1.956 . S
O767 C742 1.325 . S
H768 C710 0.929 . S
H769 C711 0.930 . S
H770 C712 0.930 . S
H771 C713 0.930 . S
H772 C715 0.930 . S
H773 C717 0.929 . S
H774 C718 0.930 . S
H775 C719 0.930 . S
H776 C722 0.930 . S
H777 C725 0.929 . S
H778 C730 0.929 . S
H779 C731 0.930 . S
H780 C738 0.929 . S
H781 C739 0.930 . S
H782 C740 0.930 . S
H783 C741 0.930 . S
H784 C743 0.929 . S
H785 C744 0.930 . S
H786 C745 0.930 . S
H787 C746 0.930 . S
H788 C750 0.929 . S
H789 C752 0.930 . S
H790 C758 0.929 . S
H791 C759 0.930 . S
Li792 N809 1.990 . S
Li792 O852 1.956 . S
Li792 O853 1.970 . S
Li792 O854 1.961 . S
Li793 N817 1.990 . S
Li793 O852 1.970 . S
Li793 O853 1.956 . S
Li793 O855 1.961 . S
Li794 N839 1.990 . S
Li794 O852 1.961 . S
Li794 O854 1.956 . S
Li794 O855 1.970 . S
Li795 N845 1.990 . S
Li795 O853 1.961 . S
Li795 O854 1.970 . S
Li795 O855 1.956 . S
C796 C798 1.348 1_455 S
C796 C799 1.356 . S
C796 O852 1.325 . S
N797 C800 1.314 . S
N797 C801 1.279 . S
C798 C796 1.348 1_655 S
C798 C800 1.353 . S
C798 H856 0.929 . S
C799 C796 1.356 . S
C799 C801 1.358 1_455 S
C799 H857 0.930 . S
C800 N797 1.314 . S
C800 C798 1.353 . S
C800 H858 0.930 . S
C801 N797 1.279 . S
C801 C799 1.358 1_655 S
C801 H859 0.930 . S
C802 C805 1.348 . S
C802 C806 1.356 . S
C802 O853 1.325 . S
C803 N804 1.279 . S
C803 C806 1.358 . S
C803 H860 0.930 . S
N804 C803 1.279 . S
N804 C807 1.314 . S
C805 C802 1.348 . S
C805 C807 1.353 . S
C805 H861 0.929 . S
C806 C802 1.356 . S
C806 C803 1.358 . S
C806 H862 0.930 . S
C807 N804 1.314 . S
C807 C805 1.353 . S
C807 H863 0.925 1_455 S
C808 N809 1.314 . S
C808 C813 1.353 . S
C808 H814 0.930 . S
N809 Li792 1.990 . S
N809 C808 1.314 . S
N809 C811 1.266 1_455 S
C810 C811 1.365 . S
C810 C812 1.356 1_655 S
C810 H864 0.930 . S
C811 N809 1.266 1_655 S
C811 C810 1.365 . S
C811 H815 0.939 . S
C812 C810 1.356 1_455 S
C812 C813 1.348 . S
C813 C808 1.353 . S
C813 C812 1.348 . S
C813 H865 0.929 . S
H814 C808 0.930 . S
H815 C811 0.939 . S
C816 N817 1.314 1_655 S
C816 C818 1.353 . S
C816 H822 0.930 1_655 S
N817 Li793 1.990 . S
N817 C816 1.314 1_455 S
N817 C820 1.279 1_455 S
C818 C816 1.353 . S
C818 C821 1.348 . S
C818 H866 0.929 . S
C819 C820 1.358 . S
C819 C821 1.356 . S
C819 H867 0.930 . S
C820 N817 1.279 1_655 S
C820 C819 1.358 . S
C820 H823 0.930 . S
C821 C818 1.348 . S
C821 C819 1.356 . S
H822 C816 0.930 1_455 S
H823 C820 0.930 . S
C824 C826 1.348 . S
C824 C827 1.356 . S
C824 O854 1.325 . S
N825 C828 1.314 . S
N825 C829 1.279 . S
C826 C824 1.348 . S
C826 C828 1.353 . S
C826 H868 0.929 . S
C827 C824 1.356 . S
C827 C829 1.358 . S
C827 H869 0.930 . S
C828 N825 1.314 . S
C828 C826 1.353 . S
C828 H870 0.930 . S
C829 N825 1.279 . S
C829 C827 1.358 . S
C829 H871 0.930 . S
C830 C831 1.348 . S
C830 C832 1.356 . S
C830 O855 1.325 . S
C831 C830 1.348 . S
C831 C833 1.353 . S
C831 H872 0.929 . S
C832 C830 1.356 . S
C832 C834 1.358 . S
C832 H873 0.930 . S
C833 C831 1.353 . S
C833 N835 1.314 . S
C833 H874 0.930 . S
C834 C832 1.358 . S
C834 N835 1.279 . S
C834 H875 0.930 . S
N835 C833 1.314 . S
N835 C834 1.279 . S
C836 C838 1.353 . S
C836 N839 1.314 . S
C836 H842 0.930 . S
C837 N839 1.279 . S
C837 C840 1.358 . S
C837 H843 0.930 . S
C838 C836 1.353 . S
C838 C841 1.348 . S
C838 H876 0.929 . S
N839 Li794 1.990 . S
N839 C836 1.314 . S
N839 C837 1.279 . S
C840 C837 1.358 . S
C840 C841 1.356 . S
C840 H877 0.930 . S
C841 C838 1.348 . S
C841 C840 1.356 . S
H842 C836 0.930 . S
H843 C837 0.930 . S
C844 N845 1.314 . S
C844 C846 1.353 . S
C844 H850 0.930 . S
N845 Li795 1.990 . S
N845 C844 1.314 . S
N845 C848 1.279 . S
C846 C844 1.353 . S
C846 C849 1.348 . S
C846 H878 0.929 . S
C847 C848 1.358 . S
C847 C849 1.356 . S
C847 H879 0.930 . S
C848 N845 1.279 . S
C848 C847 1.358 . S
C848 H851 0.930 . S
C849 C846 1.348 . S
C849 C847 1.356 . S
H850 C844 0.930 . S
H851 C848 0.930 . S
O852 Li792 1.956 . S
O852 Li793 1.970 . S
O852 Li794 1.961 . S
O852 C796 1.325 . S
O853 Li792 1.970 . S
O853 Li793 1.956 . S
O853 Li795 1.961 . S
O853 C802 1.325 . S
O854 Li792 1.961 . S
O854 Li794 1.956 . S
O854 Li795 1.970 . S
O854 C824 1.325 . S
O855 Li793 1.961 . S
O855 Li794 1.970 . S
O855 Li795 1.956 . S
O855 C830 1.325 . S
H856 C798 0.929 . S
H857 C799 0.930 . S
H858 C800 0.930 . S
H859 C801 0.930 . S
H860 C803 0.930 . S
H861 C805 0.929 . S
H862 C806 0.930 . S
H863 C807 0.925 1_655 S
H864 C810 0.930 . S
H865 C813 0.929 . S
H866 C818 0.929 . S
H867 C819 0.930 . S
H868 C826 0.929 . S
H869 C827 0.930 . S
H870 C828 0.930 . S
H871 C829 0.930 . S
H872 C831 0.929 . S
H873 C832 0.930 . S
H874 C833 0.930 . S
H875 C834 0.930 . S
H876 C838 0.929 . S
H877 C840 0.930 . S
H878 C846 0.929 . S
H879 C847 0.930 . S
Li880 N897 1.990 . S
Li880 O940 1.956 . S
Li880 O941 1.970 . S
Li880 O942 1.961 . S
Li881 N905 1.990 . S
Li881 O940 1.970 . S
Li881 O941 1.956 . S
Li881 O943 1.961 . S
Li882 N927 1.990 . S
Li882 O940 1.961 . S
Li882 O942 1.956 . S
Li882 O943 1.970 . S
Li883 N933 1.990 . S
Li883 O941 1.961 . S
Li883 O942 1.970 . S
Li883 O943 1.956 . S
C884 C886 1.348 . S
C884 C887 1.356 . S
C884 O940 1.325 . S
N885 C888 1.314 . S
N885 C889 1.279 . S
C886 C884 1.348 . S
C886 C888 1.353 . S
C886 H944 0.929 . S
C887 C884 1.356 . S
C887 C889 1.358 . S
C887 H945 0.930 . S
C888 N885 1.314 . S
C888 C886 1.353 . S
C888 H946 0.930 . S
C889 N885 1.279 . S
C889 C887 1.358 . S
C889 H947 0.930 . S
C890 C893 1.348 . S
C890 C894 1.356 . S
C890 O941 1.325 . S
C891 N892 1.279 . S
C891 C894 1.358 . S
C891 H948 0.930 . S
N892 C891 1.279 . S
N892 C895 1.314 . S
C893 C890 1.348 . S
C893 C895 1.353 . S
C893 H949 0.929 . S
C894 C890 1.356 . S
C894 C891 1.358 . S
C894 H950 0.930 . S
C895 N892 1.314 . S
C895 C893 1.353 . S
C895 H951 0.930 . S
C896 N897 1.314 . S
C896 C901 1.353 . S
C896 H902 0.930 . S
N897 Li880 1.990 . S
N897 C896 1.314 . S
N897 C899 1.279 . S
C898 C899 1.358 . S
C898 C900 1.356 . S
C898 H952 0.930 . S
C899 N897 1.279 . S
C899 C898 1.358 . S
C899 H903 0.930 . S
C900 C898 1.356 . S
C900 C901 1.348 . S
C901 C896 1.353 . S
C901 C900 1.348 . S
C901 H953 0.929 . S
H902 C896 0.930 . S
H903 C899 0.930 . S
C904 N905 1.314 . S
C904 C906 1.353 . S
C904 H910 0.930 . S
N905 Li881 1.990 . S
N905 C904 1.314 . S
N905 C908 1.279 . S
C906 C904 1.353 . S
C906 C909 1.348 . S
C906 H954 0.929 . S
C907 C908 1.358 . S
C907 C909 1.356 . S
C907 H955 0.930 . S
C908 N905 1.279 . S
C908 C907 1.358 . S
C908 H911 0.930 . S
C909 C906 1.348 . S
C909 C907 1.356 . S
H910 C904 0.930 . S
H911 C908 0.930 . S
C912 C914 1.348 . S
C912 C915 1.356 . S
C912 O942 1.325 . S
N913 C916 1.314 . S
N913 C917 1.279 . S
C914 C912 1.348 . S
C914 C916 1.353 . S
C914 H956 0.929 . S
C915 C912 1.356 . S
C915 C917 1.358 . S
C915 H957 0.930 . S
C916 N913 1.314 . S
C916 C914 1.353 . S
C916 H958 0.930 . S
C917 N913 1.279 . S
C917 C915 1.358 . S
C917 H959 0.930 . S
C918 C919 1.348 . S
C918 C920 1.356 . S
C918 O943 1.325 . S
C919 C918 1.348 . S
C919 C921 1.353 . S
C919 H960 0.929 . S
C920 C918 1.356 . S
C920 C922 1.358 . S
C920 H961 0.930 . S
C921 C919 1.353 . S
C921 N923 1.314 . S
C921 H962 0.930 . S
C922 C920 1.358 . S
C922 N923 1.279 . S
C922 H963 0.930 . S
N923 C921 1.314 . S
N923 C922 1.279 . S
C924 C926 1.353 . S
C924 N927 1.314 . S
C924 H930 0.930 . S
C925 N927 1.279 . S
C925 C928 1.358 . S
C925 H931 0.930 . S
C926 C924 1.353 . S
C926 C929 1.348 . S
C926 H964 0.929 . S
N927 Li882 1.990 . S
N927 C924 1.314 . S
N927 C925 1.279 . S
C928 C925 1.358 . S
C928 C929 1.356 . S
C928 H965 0.930 . S
C929 C926 1.348 . S
C929 C928 1.356 . S
H930 C924 0.930 . S
H931 C925 0.930 . S
C932 N933 1.314 . S
C932 C934 1.353 . S
C932 H938 0.930 . S
N933 Li883 1.990 . S
N933 C932 1.314 . S
N933 C936 1.279 . S
C934 C932 1.353 . S
C934 C937 1.348 . S
C934 H966 0.929 . S
C935 C936 1.358 . S
C935 C937 1.356 . S
C935 H967 0.930 . S
C936 N933 1.279 . S
C936 C935 1.358 . S
C936 H939 0.930 . S
C937 C934 1.348 . S
C937 C935 1.356 . S
H938 C932 0.930 . S
H939 C936 0.930 . S
O940 Li880 1.956 . S
O940 Li881 1.970 . S
O940 Li882 1.961 . S
O940 C884 1.325 . S
O941 Li880 1.970 . S
O941 Li881 1.956 . S
O941 Li883 1.961 . S
O941 C890 1.325 . S
O942 Li880 1.961 . S
O942 Li882 1.956 . S
O942 Li883 1.970 . S
O942 C912 1.325 . S
O943 Li881 1.961 . S
O943 Li882 1.970 . S
O943 Li883 1.956 . S
O943 C918 1.325 . S
H944 C886 0.929 . S
H945 C887 0.930 . S
H946 C888 0.930 . S
H947 C889 0.930 . S
H948 C891 0.930 . S
H949 C893 0.929 . S
H950 C894 0.930 . S
H951 C895 0.930 . S
H952 C898 0.930 . S
H953 C901 0.929 . S
H954 C906 0.929 . S
H955 C907 0.930 . S
H956 C914 0.929 . S
H957 C915 0.930 . S
H958 C916 0.930 . S
H959 C917 0.930 . S
H960 C919 0.929 . S
H961 C920 0.930 . S
H962 C921 0.930 . S
H963 C922 0.930 . S
H964 C926 0.929 . S
H965 C928 0.930 . S
H966 C934 0.929 . S
H967 C935 0.930 . S
Li968 N985 1.990 . S
Li968 O1028 1.956 . S
Li968 O1029 1.970 . S
Li968 O1030 1.961 . S
Li969 N993 1.990 . S
Li969 O1028 1.970 . S
Li969 O1029 1.956 . S
Li969 O1031 1.961 . S
Li970 N1015 1.990 1_554 S
Li970 O1028 1.961 . S
Li970 O1030 1.956 . S
Li970 O1031 1.970 . S
Li971 N1021 1.990 . S
Li971 O1029 1.961 . S
Li971 O1030 1.970 . S
Li971 O1031 1.956 . S
C972 C974 1.348 . S
C972 C975 1.356 1_554 S
C972 O1028 1.325 . S
N973 C976 1.314 . S
N973 C977 1.279 . S
C974 C972 1.348 . S
C974 C976 1.353 1_554 S
C974 H1032 0.929 . S
C975 C972 1.356 1_556 S
C975 C977 1.358 . S
C975 H1033 0.930 . S
C976 N973 1.314 . S
C976 C974 1.353 1_556 S
C976 H1034 0.946 . S
C977 N973 1.279 . S
C977 C975 1.358 . S
C977 H1035 0.930 . S
C978 C981 1.348 . S
C978 C982 1.356 . S
C978 O1029 1.325 . S
C979 N980 1.279 . S
C979 C982 1.358 . S
C979 H1036 0.930 . S
N980 C979 1.279 . S
N980 C983 1.314 . S
C981 C978 1.348 . S
C981 C983 1.353 . S
C981 H1037 0.929 . S
C982 C978 1.356 . S
C982 C979 1.358 . S
C982 H1038 0.930 . S
C983 N980 1.314 . S
C983 C981 1.353 . S
C983 H1039 0.930 . S
C984 N985 1.314 . S
C984 C989 1.353 1_554 S
C984 H990 0.930 . S
N985 Li968 1.990 . S
N985 C984 1.314 . S
N985 C987 1.279 1_554 S
C986 C987 1.358 . S
C986 C988 1.356 . S
C986 H1040 0.930 . S
C987 N985 1.279 1_556 S
C987 C986 1.358 . S
C987 H991 0.930 . S
C988 C986 1.356 . S
C988 C989 1.348 . S
C989 C984 1.353 1_556 S
C989 C988 1.348 . S
C989 H1041 0.929 . S
H990 C984 0.930 . S
H991 C987 0.930 . S
C992 N993 1.314 . S
C992 C994 1.353 . S
C992 H998 0.930 . S
N993 Li969 1.990 . S
N993 C992 1.314 . S
N993 C996 1.279 . S
C994 C992 1.353 . S
C994 C997 1.348 . S
C994 H1042 0.929 . S
C995 C996 1.358 . S
C995 C997 1.356 . S
C995 H1043 0.930 . S
C996 N993 1.279 . S
C996 C995 1.358 . S
C996 H999 0.930 . S
C997 C994 1.348 . S
C997 C995 1.356 . S
H998 C992 0.930 . S
H999 C996 0.930 . S
C1000 C1002 1.348 . S
C1000 C1003 1.356 1_554 S
C1000 O1030 1.325 . S
N1001 C1004 1.352 . S
N1001 C1005 1.279 . S
C1002 C1000 1.348 . S
C1002 C1004 1.330 1_554 S
C1002 H1044 0.929 . S
C1003 C1000 1.356 1_556 S
C1003 C1005 1.358 . S
C1003 H1045 0.930 . S
C1004 N1001 1.352 . S
C1004 C1002 1.330 1_556 S
C1004 H1046 0.915 1_556 S
C1005 N1001 1.279 . S
C1005 C1003 1.358 . S
C1005 H1047 0.930 . S
C1006 C1007 1.348 . S
C1006 C1008 1.356 . S
C1006 O1031 1.325 . S
C1007 C1006 1.348 . S
C1007 C1009 1.353 . S
C1007 H1048 0.929 . S
C1008 C1006 1.356 . S
C1008 C1010 1.358 . S
C1008 H1049 0.930 . S
C1009 C1007 1.353 . S
C1009 N1011 1.314 . S
C1009 H1050 0.930 . S
C1010 C1008 1.358 . S
C1010 N1011 1.279 . S
C1010 H1051 0.930 . S
N1011 C1009 1.314 . S
N1011 C1010 1.279 . S
C1012 C1014 1.353 . S
C1012 N1015 1.314 . S
C1012 H1018 0.930 . S
C1013 N1015 1.279 . S
C1013 C1016 1.358 . S
C1013 H1019 0.930 . S
C1014 C1012 1.353 . S
C1014 C1017 1.348 . S
C1014 H1052 0.929 . S
N1015 Li970 1.990 1_556 S
N1015 C1012 1.314 . S
N1015 C1013 1.279 . S
C1016 C1013 1.358 . S
C1016 C1017 1.356 . S
C1016 H1053 0.930 . S
C1017 C1014 1.348 . S
C1017 C1016 1.356 . S
H1018 C1012 0.930 . S
H1019 C1013 0.930 . S
C1020 N1021 1.314 . S
C1020 C1022 1.353 . S
C1020 H1026 0.930 . S
N1021 Li971 1.990 . S
N1021 C1020 1.314 . S
N1021 C1024 1.279 . S
C1022 C1020 1.353 . S
C1022 C1025 1.348 . S
C1022 H1054 0.929 . S
C1023 C1024 1.358 . S
C1023 C1025 1.356 . S
C1023 H1055 0.930 . S
C1024 N1021 1.279 . S
C1024 C1023 1.358 . S
C1024 H1027 0.930 . S
C1025 C1022 1.348 . S
C1025 C1023 1.356 . S
H1026 C1020 0.930 . S
H1027 C1024 0.930 . S
O1028 Li968 1.956 . S
O1028 Li969 1.970 . S
O1028 Li970 1.961 . S
O1028 C972 1.325 . S
O1029 Li968 1.970 . S
O1029 Li969 1.956 . S
O1029 Li971 1.961 . S
O1029 C978 1.325 . S
O1030 Li968 1.961 . S
O1030 Li970 1.956 . S
O1030 Li971 1.970 . S
O1030 C1000 1.325 . S
O1031 Li969 1.961 . S
O1031 Li970 1.970 . S
O1031 Li971 1.956 . S
O1031 C1006 1.325 . S
H1032 C974 0.929 . S
H1033 C975 0.930 . S
H1034 C976 0.946 . S
H1035 C977 0.930 . S
H1036 C979 0.930 . S
H1037 C981 0.929 . S
H1038 C982 0.930 . S
H1039 C983 0.930 . S
H1040 C986 0.930 . S
H1041 C989 0.929 . S
H1042 C994 0.929 . S
H1043 C995 0.930 . S
H1044 C1002 0.929 . S
H1045 C1003 0.930 . S
H1046 C1004 0.915 1_554 S
H1047 C1005 0.930 . S
H1048 C1007 0.929 . S
H1049 C1008 0.930 . S
H1050 C1009 0.930 . S
H1051 C1010 0.930 . S
H1052 C1014 0.929 . S
H1053 C1016 0.930 . S
H1054 C1022 0.929 . S
H1055 C1023 0.930 . S
Li1056 N1073 1.990 . S
Li1056 O1116 1.956 . S
Li1056 O1117 1.970 . S
Li1056 O1118 1.961 . S
Li1057 N1081 1.990 . S
Li1057 O1116 1.970 . S
Li1057 O1117 1.956 . S
Li1057 O1119 1.961 . S
Li1058 N1103 1.990 . S
Li1058 O1116 1.961 . S
Li1058 O1118 1.956 . S
Li1058 O1119 1.970 . S
Li1059 N1109 1.990 . S
Li1059 O1117 1.961 . S
Li1059 O1118 1.970 . S
Li1059 O1119 1.956 . S
C1060 C1062 1.348 . S
C1060 C1063 1.356 . S
C1060 O1116 1.325 . S
N1061 C1064 1.314 . S
N1061 C1065 1.279 . S
C1062 C1060 1.348 . S
C1062 C1064 1.353 . S
C1062 H1120 0.929 . S
C1063 C1060 1.356 . S
C1063 C1065 1.358 . S
C1063 H1121 0.930 . S
C1064 N1061 1.314 . S
C1064 C1062 1.353 . S
C1064 H1122 0.930 . S
C1065 N1061 1.279 . S
C1065 C1063 1.358 . S
C1065 H1123 0.930 . S
C1066 C1069 1.348 . S
C1066 C1070 1.356 . S
C1066 O1117 1.325 . S
C1067 N1068 1.279 . S
C1067 C1070 1.358 . S
C1067 H1124 0.930 . S
N1068 C1067 1.279 . S
N1068 C1071 1.314 . S
C1069 C1066 1.348 . S
C1069 C1071 1.353 . S
C1069 H1125 0.929 . S
C1070 C1066 1.356 . S
C1070 C1067 1.358 . S
C1070 H1126 0.930 . S
C1071 N1068 1.314 . S
C1071 C1069 1.353 . S
C1071 H1127 0.930 . S
C1072 N1073 1.314 . S
C1072 C1077 1.353 . S
C1072 H1078 0.930 . S
N1073 Li1056 1.990 . S
N1073 C1072 1.314 . S
N1073 C1075 1.279 . S
C1074 C1075 1.358 . S
C1074 C1076 1.356 . S
C1074 H1128 0.930 . S
C1075 N1073 1.279 . S
C1075 C1074 1.358 . S
C1075 H1079 0.930 . S
C1076 C1074 1.356 . S
C1076 C1077 1.348 . S
C1077 C1072 1.353 . S
C1077 C1076 1.348 . S
C1077 H1129 0.929 . S
H1078 C1072 0.930 . S
H1079 C1075 0.930 . S
C1080 N1081 1.314 . S
C1080 C1082 1.353 . S
C1080 H1086 0.930 . S
N1081 Li1057 1.990 . S
N1081 C1080 1.314 . S
N1081 C1084 1.279 . S
C1082 C1080 1.353 . S
C1082 C1085 1.348 . S
C1082 H1130 0.929 . S
C1083 C1084 1.358 . S
C1083 C1085 1.356 . S
C1083 H1131 0.930 . S
C1084 N1081 1.279 . S
C1084 C1083 1.358 . S
C1084 H1087 0.930 . S
C1085 C1082 1.348 . S
C1085 C1083 1.356 . S
H1086 C1080 0.930 . S
H1087 C1084 0.930 . S
C1088 C1090 1.348 . S
C1088 C1091 1.356 . S
C1088 O1118 1.325 . S
N1089 C1092 1.314 . S
N1089 C1093 1.279 . S
C1090 C1088 1.348 . S
C1090 C1092 1.353 . S
C1090 H1132 0.929 . S
C1091 C1088 1.356 . S
C1091 C1093 1.358 . S
C1091 H1133 0.930 . S
C1092 N1089 1.314 . S
C1092 C1090 1.353 . S
C1092 H1134 0.930 . S
C1093 N1089 1.279 . S
C1093 C1091 1.358 . S
C1093 H1135 0.930 . S
C1094 C1095 1.348 . S
C1094 C1096 1.356 . S
C1094 O1119 1.325 . S
C1095 C1094 1.348 . S
C1095 C1097 1.353 . S
C1095 H1136 0.929 . S
C1096 C1094 1.356 . S
C1096 C1098 1.358 . S
C1096 H1137 0.930 . S
C1097 C1095 1.353 . S
C1097 N1099 1.314 . S
C1097 H1138 0.930 . S
C1098 C1096 1.358 . S
C1098 N1099 1.279 . S
C1098 H1139 0.930 . S
N1099 C1097 1.314 . S
N1099 C1098 1.279 . S
C1100 C1102 1.353 . S
C1100 N1103 1.314 . S
C1100 H1106 0.930 . S
C1101 N1103 1.279 . S
C1101 C1104 1.358 . S
C1101 H1107 0.930 . S
C1102 C1100 1.353 . S
C1102 C1105 1.348 . S
C1102 H1140 0.929 . S
N1103 Li1058 1.990 . S
N1103 C1100 1.314 . S
N1103 C1101 1.279 . S
C1104 C1101 1.358 . S
C1104 C1105 1.356 . S
C1104 H1141 0.930 . S
C1105 C1102 1.348 . S
C1105 C1104 1.356 . S
H1106 C1100 0.930 . S
H1107 C1101 0.930 . S
C1108 N1109 1.314 . S
C1108 C1110 1.353 . S
C1108 H1114 0.930 . S
N1109 Li1059 1.990 . S
N1109 C1108 1.314 . S
N1109 C1112 1.279 . S
C1110 C1108 1.353 . S
C1110 C1113 1.348 . S
C1110 H1142 0.929 . S
C1111 C1112 1.358 . S
C1111 C1113 1.356 . S
C1111 H1143 0.930 . S
C1112 N1109 1.279 . S
C1112 C1111 1.358 . S
C1112 H1115 0.930 . S
C1113 C1110 1.348 . S
C1113 C1111 1.356 . S
H1114 C1108 0.930 . S
H1115 C1112 0.930 . S
O1116 Li1056 1.956 . S
O1116 Li1057 1.970 . S
O1116 Li1058 1.961 . S
O1116 C1060 1.325 . S
O1117 Li1056 1.970 . S
O1117 Li1057 1.956 . S
O1117 Li1059 1.961 . S
O1117 C1066 1.325 . S
O1118 Li1056 1.961 . S
O1118 Li1058 1.956 . S
O1118 Li1059 1.970 . S
O1118 C1088 1.325 . S
O1119 Li1057 1.961 . S
O1119 Li1058 1.970 . S
O1119 Li1059 1.956 . S
O1119 C1094 1.325 . S
H1120 C1062 0.929 . S
H1121 C1063 0.930 . S
H1122 C1064 0.930 . S
H1123 C1065 0.930 . S
H1124 C1067 0.930 . S
H1125 C1069 0.929 . S
H1126 C1070 0.930 . S
H1127 C1071 0.930 . S
H1128 C1074 0.930 . S
H1129 C1077 0.929 . S
H1130 C1082 0.929 . S
H1131 C1083 0.930 . S
H1132 C1090 0.929 . S
H1133 C1091 0.930 . S
H1134 C1092 0.930 . S
H1135 C1093 0.930 . S
H1136 C1095 0.929 . S
H1137 C1096 0.930 . S
H1138 C1097 0.930 . S
H1139 C1098 0.930 . S
H1140 C1102 0.929 . S
H1141 C1104 0.930 . S
H1142 C1110 0.929 . S
H1143 C1111 0.930 . S
Li1144 N1161 1.990 1_556 S
Li1144 O1204 1.956 . S
Li1144 O1205 1.970 . S
Li1144 O1206 1.961 . S
Li1145 N1169 1.990 . S
Li1145 O1204 1.970 . S
Li1145 O1205 1.956 . S
Li1145 O1207 1.961 . S
Li1146 N1191 1.990 . S
Li1146 O1204 1.961 . S
Li1146 O1206 1.956 . S
Li1146 O1207 1.970 . S
Li1147 N1197 1.990 . S
Li1147 O1205 1.961 . S
Li1147 O1206 1.970 . S
Li1147 O1207 1.956 . S
C1148 C1150 1.348 . S
C1148 C1151 1.356 1_556 S
C1148 O1204 1.325 . S
N1149 C1152 1.352 . S
N1149 C1153 1.279 . S
C1150 C1148 1.348 . S
C1150 C1152 1.329 1_556 S
C1150 H1208 0.929 . S
C1151 C1148 1.356 1_554 S
C1151 C1153 1.358 . S
C1151 H1209 0.930 . S
C1152 N1149 1.352 . S
C1152 C1150 1.329 1_554 S
C1152 H1210 0.911 1_654 S
C1153 N1149 1.279 . S
C1153 C1151 1.358 . S
C1153 H1211 0.930 . S
C1154 C1157 1.348 1_655 S
C1154 C1158 1.356 . S
C1154 O1205 1.325 . S
C1155 N1156 1.279 . S
C1155 C1158 1.358 1_455 S
C1155 H1212 0.930 . S
N1156 C1155 1.279 . S
N1156 C1159 1.314 . S
C1157 C1154 1.348 1_455 S
C1157 C1159 1.353 . S
C1157 H1213 0.929 . S
C1158 C1154 1.356 . S
C1158 C1155 1.358 1_655 S
C1158 H1214 0.930 . S
C1159 N1156 1.314 . S
C1159 C1157 1.353 . S
C1159 H1215 0.930 . S
C1160 N1161 1.314 1_455 S
C1160 C1165 1.353 . S
C1160 H1166 0.930 1_455 S
N1161 Li1144 1.990 1_554 S
N1161 C1160 1.314 1_655 S
N1161 C1163 1.279 1_655 S
C1162 C1163 1.358 . S
C1162 C1164 1.356 . S
C1162 H1216 0.930 . S
C1163 N1161 1.279 1_455 S
C1163 C1162 1.358 . S
C1163 H1167 0.930 . S
C1164 C1162 1.356 . S
C1164 C1165 1.348 . S
C1165 C1160 1.353 . S
C1165 C1164 1.348 . S
C1165 H1217 0.929 . S
H1166 C1160 0.930 1_655 S
H1167 C1163 0.930 . S
C1168 N1169 1.314 . S
C1168 C1170 1.353 . S
C1168 H1174 0.930 . S
N1169 Li1145 1.990 . S
N1169 C1168 1.314 . S
N1169 C1172 1.267 1_655 S
C1170 C1168 1.353 . S
C1170 C1173 1.348 . S
C1170 H1218 0.929 . S
C1171 C1172 1.364 . S
C1171 C1173 1.356 1_455 S
C1171 H1219 0.930 . S
C1172 N1169 1.267 1_455 S
C1172 C1171 1.364 . S
C1172 H1175 0.938 . S
C1173 C1170 1.348 . S
C1173 C1171 1.356 1_655 S
H1174 C1168 0.930 . S
H1175 C1172 0.938 . S
C1176 C1178 1.348 . S
C1176 C1179 1.356 1_556 S
C1176 O1206 1.325 . S
N1177 C1180 1.314 . S
N1177 C1181 1.279 . S
C1178 C1176 1.348 . S
C1178 C1180 1.353 1_556 S
C1178 H1220 0.929 . S
C1179 C1176 1.356 1_554 S
C1179 C1181 1.358 . S
C1179 H1221 0.930 . S
C1180 N1177 1.314 . S
C1180 C1178 1.353 1_554 S
C1180 H1222 0.946 . S
C1181 N1177 1.279 . S
C1181 C1179 1.358 . S
C1181 H1223 0.930 . S
C1182 C1183 1.348 . S
C1182 C1184 1.356 . S
C1182 O1207 1.325 . S
C1183 C1182 1.348 . S
C1183 C1185 1.353 . S
C1183 H1224 0.929 . S
C1184 C1182 1.356 . S
C1184 C1186 1.358 . S
C1184 H1225 0.930 . S
C1185 C1183 1.353 . S
C1185 N1187 1.314 . S
C1185 H1226 0.930 . S
C1186 C1184 1.358 . S
C1186 N1187 1.279 . S
C1186 H1227 0.930 . S
N1187 C1185 1.314 . S
N1187 C1186 1.279 . S
C1188 C1190 1.353 1_556 S
C1188 N1191 1.314 . S
C1188 H1194 0.930 . S
C1189 N1191 1.279 1_554 S
C1189 C1192 1.358 . S
C1189 H1195 0.930 . S
C1190 C1188 1.353 1_554 S
C1190 C1193 1.348 . S
C1190 H1228 0.929 . S
N1191 Li1146 1.990 . S
N1191 C1188 1.314 . S
N1191 C1189 1.279 1_556 S
C1192 C1189 1.358 . S
C1192 C1193 1.356 . S
C1192 H1229 0.930 . S
C1193 C1190 1.348 . S
C1193 C1192 1.356 . S
H1194 C1188 0.930 . S
H1195 C1189 0.930 . S
C1196 N1197 1.314 . S
C1196 C1198 1.353 . S
C1196 H1202 0.930 . S
N1197 Li1147 1.990 . S
N1197 C1196 1.314 . S
N1197 C1200 1.279 . S
C1198 C1196 1.353 . S
C1198 C1201 1.348 . S
C1198 H1230 0.929 . S
C1199 C1200 1.358 . S
C1199 C1201 1.356 . S
C1199 H1231 0.930 . S
C1200 N1197 1.279 . S
C1200 C1199 1.358 . S
C1200 H1203 0.930 . S
C1201 C1198 1.348 . S
C1201 C1199 1.356 . S
H1202 C1196 0.930 . S
H1203 C1200 0.930 . S
O1204 Li1144 1.956 . S
O1204 Li1145 1.970 . S
O1204 Li1146 1.961 . S
O1204 C1148 1.325 . S
O1205 Li1144 1.970 . S
O1205 Li1145 1.956 . S
O1205 Li1147 1.961 . S
O1205 C1154 1.325 . S
O1206 Li1144 1.961 . S
O1206 Li1146 1.956 . S
O1206 Li1147 1.970 . S
O1206 C1176 1.325 . S
O1207 Li1145 1.961 . S
O1207 Li1146 1.970 . S
O1207 Li1147 1.956 . S
O1207 C1182 1.325 . S
H1208 C1150 0.929 . S
H1209 C1151 0.930 . S
H1210 C1152 0.911 1_456 S
H1211 C1153 0.930 . S
H1212 C1155 0.930 . S
H1213 C1157 0.929 . S
H1214 C1158 0.930 . S
H1215 C1159 0.930 . S
H1216 C1162 0.930 . S
H1217 C1165 0.929 . S
H1218 C1170 0.929 . S
H1219 C1171 0.930 . S
H1220 C1178 0.929 . S
H1221 C1179 0.930 . S
H1222 C1180 0.946 . S
H1223 C1181 0.930 . S
H1224 C1183 0.929 . S
H1225 C1184 0.930 . S
H1226 C1185 0.930 . S
H1227 C1186 0.930 . S
H1228 C1190 0.929 . S
H1229 C1192 0.930 . S
H1230 C1198 0.929 . S
H1231 C1199 0.930 . S
Li1232 N1249 1.990 . S
Li1232 O1292 1.956 . S
Li1232 O1293 1.970 . S
Li1232 O1294 1.961 . S
Li1233 N1257 1.990 . S
Li1233 O1292 1.970 . S
Li1233 O1293 1.956 . S
Li1233 O1295 1.961 . S
Li1234 N1279 1.990 . S
Li1234 O1292 1.961 . S
Li1234 O1294 1.956 . S
Li1234 O1295 1.970 . S
Li1235 N1285 1.990 . S
Li1235 O1293 1.961 . S
Li1235 O1294 1.970 . S
Li1235 O1295 1.956 . S
C1236 C1238 1.348 . S
C1236 C1239 1.356 . S
C1236 O1292 1.325 . S
N1237 C1240 1.314 . S
N1237 C1241 1.279 . S
C1238 C1236 1.348 . S
C1238 C1240 1.353 . S
C1238 H1296 0.929 . S
C1239 C1236 1.356 . S
C1239 C1241 1.358 . S
C1239 H1297 0.930 . S
C1240 N1237 1.314 . S
C1240 C1238 1.353 . S
C1240 H1298 0.930 . S
C1241 N1237 1.279 . S
C1241 C1239 1.358 . S
C1241 H1299 0.930 . S
C1242 C1245 1.348 . S
C1242 C1246 1.356 . S
C1242 O1293 1.325 . S
C1243 N1244 1.279 . S
C1243 C1246 1.358 . S
C1243 H1300 0.930 . S
N1244 C1243 1.279 . S
N1244 C1247 1.314 . S
C1245 C1242 1.348 . S
C1245 C1247 1.353 . S
C1245 H1301 0.929 . S
C1246 C1242 1.356 . S
C1246 C1243 1.358 . S
C1246 H1302 0.930 . S
C1247 N1244 1.314 . S
C1247 C1245 1.353 . S
C1247 H1303 0.930 . S
C1248 N1249 1.314 . S
C1248 C1253 1.353 . S
C1248 H1254 0.930 . S
N1249 Li1232 1.990 . S
N1249 C1248 1.314 . S
N1249 C1251 1.279 . S
C1250 C1251 1.358 . S
C1250 C1252 1.356 . S
C1250 H1304 0.930 . S
C1251 N1249 1.279 . S
C1251 C1250 1.358 . S
C1251 H1255 0.930 . S
C1252 C1250 1.356 . S
C1252 C1253 1.348 . S
C1253 C1248 1.353 . S
C1253 C1252 1.348 . S
C1253 H1305 0.929 . S
H1254 C1248 0.930 . S
H1255 C1251 0.930 . S
C1256 N1257 1.314 . S
C1256 C1258 1.353 . S
C1256 H1262 0.930 . S
N1257 Li1233 1.990 . S
N1257 C1256 1.314 . S
N1257 C1260 1.279 . S
C1258 C1256 1.353 . S
C1258 C1261 1.348 . S
C1258 H1306 0.929 . S
C1259 C1260 1.358 . S
C1259 C1261 1.356 . S
C1259 H1307 0.930 . S
C1260 N1257 1.279 . S
C1260 C1259 1.358 . S
C1260 H1263 0.930 . S
C1261 C1258 1.348 . S
C1261 C1259 1.356 . S
H1262 C1256 0.930 . S
H1263 C1260 0.930 . S
C1264 C1266 1.348 . S
C1264 C1267 1.356 . S
C1264 O1294 1.325 . S
N1265 C1268 1.314 . S
N1265 C1269 1.279 . S
C1266 C1264 1.348 . S
C1266 C1268 1.353 . S
C1266 H1308 0.929 . S
C1267 C1264 1.356 . S
C1267 C1269 1.358 . S
C1267 H1309 0.930 . S
C1268 N1265 1.314 . S
C1268 C1266 1.353 . S
C1268 H1310 0.930 . S
C1269 N1265 1.279 . S
C1269 C1267 1.358 . S
C1269 H1311 0.930 . S
C1270 C1271 1.348 . S
C1270 C1272 1.356 . S
C1270 O1295 1.325 . S
C1271 C1270 1.348 . S
C1271 C1273 1.353 . S
C1271 H1312 0.929 . S
C1272 C1270 1.356 . S
C1272 C1274 1.358 . S
C1272 H1313 0.930 . S
C1273 C1271 1.353 . S
C1273 N1275 1.314 . S
C1273 H1314 0.930 . S
C1274 C1272 1.358 . S
C1274 N1275 1.279 . S
C1274 H1315 0.930 . S
N1275 C1273 1.314 . S
N1275 C1274 1.279 . S
C1276 C1278 1.353 . S
C1276 N1279 1.314 . S
C1276 H1282 0.930 . S
C1277 N1279 1.279 . S
C1277 C1280 1.358 . S
C1277 H1283 0.930 . S
C1278 C1276 1.353 . S
C1278 C1281 1.348 . S
C1278 H1316 0.929 . S
N1279 Li1234 1.990 . S
N1279 C1276 1.314 . S
N1279 C1277 1.279 . S
C1280 C1277 1.358 . S
C1280 C1281 1.356 . S
C1280 H1317 0.930 . S
C1281 C1278 1.348 . S
C1281 C1280 1.356 . S
H1282 C1276 0.930 . S
H1283 C1277 0.930 . S
C1284 N1285 1.314 . S
C1284 C1286 1.353 . S
C1284 H1290 0.930 . S
N1285 Li1235 1.990 . S
N1285 C1284 1.314 . S
N1285 C1288 1.279 . S
C1286 C1284 1.353 . S
C1286 C1289 1.348 . S
C1286 H1318 0.929 . S
C1287 C1288 1.358 . S
C1287 C1289 1.356 . S
C1287 H1319 0.930 . S
C1288 N1285 1.279 . S
C1288 C1287 1.358 . S
C1288 H1291 0.930 . S
C1289 C1286 1.348 . S
C1289 C1287 1.356 . S
H1290 C1284 0.930 . S
H1291 C1288 0.930 . S
O1292 Li1232 1.956 . S
O1292 Li1233 1.970 . S
O1292 Li1234 1.961 . S
O1292 C1236 1.325 . S
O1293 Li1232 1.970 . S
O1293 Li1233 1.956 . S
O1293 Li1235 1.961 . S
O1293 C1242 1.325 . S
O1294 Li1232 1.961 . S
O1294 Li1234 1.956 . S
O1294 Li1235 1.970 . S
O1294 C1264 1.325 . S
O1295 Li1233 1.961 . S
O1295 Li1234 1.970 . S
O1295 Li1235 1.956 . S
O1295 C1270 1.325 . S
H1296 C1238 0.929 . S
H1297 C1239 0.930 . S
H1298 C1240 0.930 . S
H1299 C1241 0.930 . S
H1300 C1243 0.930 . S
H1301 C1245 0.929 . S
H1302 C1246 0.930 . S
H1303 C1247 0.930 . S
H1304 C1250 0.930 . S
H1305 C1253 0.929 . S
H1306 C1258 0.929 . S
H1307 C1259 0.930 . S
H1308 C1266 0.929 . S
H1309 C1267 0.930 . S
H1310 C1268 0.930 . S
H1311 C1269 0.930 . S
H1312 C1271 0.929 . S
H1313 C1272 0.930 . S
H1314 C1273 0.930 . S
H1315 C1274 0.930 . S
H1316 C1278 0.929 . S
H1317 C1280 0.930 . S
H1318 C1286 0.929 . S
H1319 C1287 0.930 . S
Li1320 N1337 1.990 . S
Li1320 O1380 1.956 . S
Li1320 O1381 1.970 . S
Li1320 O1382 1.961 . S
Li1321 N1345 1.990 . S
Li1321 O1380 1.970 . S
Li1321 O1381 1.956 . S
Li1321 O1383 1.961 . S
Li1322 N1367 1.990 . S
Li1322 O1380 1.961 . S
Li1322 O1382 1.956 . S
Li1322 O1383 1.970 . S
Li1323 N1373 1.990 . S
Li1323 O1381 1.961 . S
Li1323 O1382 1.970 . S
Li1323 O1383 1.956 . S
C1324 C1326 1.348 . S
C1324 C1327 1.356 . S
C1324 O1380 1.325 . S
N1325 C1328 1.314 . S
N1325 C1329 1.279 . S
C1326 C1324 1.348 . S
C1326 C1328 1.353 . S
C1326 H1384 0.929 . S
C1327 C1324 1.356 . S
C1327 C1329 1.358 . S
C1327 H1385 0.930 . S
C1328 N1325 1.314 . S
C1328 C1326 1.353 . S
C1328 H1386 0.930 . S
C1329 N1325 1.279 . S
C1329 C1327 1.358 . S
C1329 H1387 0.930 . S
C1330 C1333 1.348 . S
C1330 C1334 1.356 . S
C1330 O1381 1.325 . S
C1331 N1332 1.279 . S
C1331 C1334 1.358 . S
C1331 H1388 0.930 . S
N1332 C1331 1.279 . S
N1332 C1335 1.314 . S
C1333 C1330 1.348 . S
C1333 C1335 1.353 . S
C1333 H1389 0.929 . S
C1334 C1330 1.356 . S
C1334 C1331 1.358 . S
C1334 H1390 0.930 . S
C1335 N1332 1.314 . S
C1335 C1333 1.353 . S
C1335 H1391 0.930 . S
C1336 N1337 1.314 . S
C1336 C1341 1.353 . S
C1336 H1342 0.930 . S
N1337 Li1320 1.990 . S
N1337 C1336 1.314 . S
N1337 C1339 1.279 . S
C1338 C1339 1.358 . S
C1338 C1340 1.356 . S
C1338 H1392 0.930 . S
C1339 N1337 1.279 . S
C1339 C1338 1.358 . S
C1339 H1343 0.930 . S
C1340 C1338 1.356 . S
C1340 C1341 1.348 . S
C1341 C1336 1.353 . S
C1341 C1340 1.348 . S
C1341 H1393 0.929 . S
H1342 C1336 0.930 . S
H1343 C1339 0.930 . S
C1344 N1345 1.314 . S
C1344 C1346 1.353 . S
C1344 H1350 0.930 . S
N1345 Li1321 1.990 . S
N1345 C1344 1.314 . S
N1345 C1348 1.279 . S
C1346 C1344 1.353 . S
C1346 C1349 1.348 . S
C1346 H1394 0.929 . S
C1347 C1348 1.358 . S
C1347 C1349 1.356 . S
C1347 H1395 0.930 . S
C1348 N1345 1.279 . S
C1348 C1347 1.358 . S
C1348 H1351 0.930 . S
C1349 C1346 1.348 . S
C1349 C1347 1.356 . S
H1350 C1344 0.930 . S
H1351 C1348 0.930 . S
C1352 C1354 1.348 . S
C1352 C1355 1.356 . S
C1352 O1382 1.325 . S
N1353 C1356 1.314 . S
N1353 C1357 1.279 . S
C1354 C1352 1.348 . S
C1354 C1356 1.353 . S
C1354 H1396 0.929 . S
C1355 C1352 1.356 . S
C1355 C1357 1.358 . S
C1355 H1397 0.930 . S
C1356 N1353 1.314 . S
C1356 C1354 1.353 . S
C1356 H1398 0.930 . S
C1357 N1353 1.279 . S
C1357 C1355 1.358 . S
C1357 H1399 0.930 . S
C1358 C1359 1.348 . S
C1358 C1360 1.356 . S
C1358 O1383 1.325 . S
C1359 C1358 1.348 . S
C1359 C1361 1.353 . S
C1359 H1400 0.929 . S
C1360 C1358 1.356 . S
C1360 C1362 1.358 . S
C1360 H1401 0.930 . S
C1361 C1359 1.353 . S
C1361 N1363 1.314 . S
C1361 H1402 0.930 . S
C1362 C1360 1.358 . S
C1362 N1363 1.279 . S
C1362 H1403 0.930 . S
N1363 C1361 1.314 . S
N1363 C1362 1.279 . S
C1364 C1366 1.353 . S
C1364 N1367 1.314 . S
C1364 H1370 0.930 . S
C1365 N1367 1.279 . S
C1365 C1368 1.358 . S
C1365 H1371 0.930 . S
C1366 C1364 1.353 . S
C1366 C1369 1.348 . S
C1366 H1404 0.929 . S
N1367 Li1322 1.990 . S
N1367 C1364 1.314 . S
N1367 C1365 1.279 . S
C1368 C1365 1.358 . S
C1368 C1369 1.356 . S
C1368 H1405 0.930 . S
C1369 C1366 1.348 . S
C1369 C1368 1.356 . S
H1370 C1364 0.930 . S
H1371 C1365 0.930 . S
C1372 N1373 1.314 . S
C1372 C1374 1.353 . S
C1372 H1378 0.930 . S
N1373 Li1323 1.990 . S
N1373 C1372 1.314 . S
N1373 C1376 1.279 . S
C1374 C1372 1.353 . S
C1374 C1377 1.348 . S
C1374 H1406 0.929 . S
C1375 C1376 1.358 . S
C1375 C1377 1.356 . S
C1375 H1407 0.930 . S
C1376 N1373 1.279 . S
C1376 C1375 1.358 . S
C1376 H1379 0.930 . S
C1377 C1374 1.348 . S
C1377 C1375 1.356 . S
H1378 C1372 0.930 . S
H1379 C1376 0.930 . S
O1380 Li1320 1.956 . S
O1380 Li1321 1.970 . S
O1380 Li1322 1.961 . S
O1380 C1324 1.325 . S
O1381 Li1320 1.970 . S
O1381 Li1321 1.956 . S
O1381 Li1323 1.961 . S
O1381 C1330 1.325 . S
O1382 Li1320 1.961 . S
O1382 Li1322 1.956 . S
O1382 Li1323 1.970 . S
O1382 C1352 1.325 . S
O1383 Li1321 1.961 . S
O1383 Li1322 1.970 . S
O1383 Li1323 1.956 . S
O1383 C1358 1.325 . S
H1384 C1326 0.929 . S
H1385 C1327 0.930 . S
H1386 C1328 0.930 . S
H1387 C1329 0.930 . S
H1388 C1331 0.930 . S
H1389 C1333 0.929 . S
H1390 C1334 0.930 . S
H1391 C1335 0.930 . S
H1392 C1338 0.930 . S
H1393 C1341 0.929 . S
H1394 C1346 0.929 . S
H1395 C1347 0.930 . S
H1396 C1354 0.929 . S
H1397 C1355 0.930 . S
H1398 C1356 0.930 . S
H1399 C1357 0.930 . S
H1400 C1359 0.929 . S
H1401 C1360 0.930 . S
H1402 C1361 0.930 . S
H1403 C1362 0.930 . S
H1404 C1366 0.929 . S
H1405 C1368 0.930 . S
H1406 C1374 0.929 . S
H1407 C1375 0.930 . S
Li1408 N1425 1.990 . S
Li1408 O1468 1.956 . S
Li1408 O1469 1.970 . S
Li1408 O1470 1.961 . S
Li1409 N1433 1.990 . S
Li1409 O1468 1.970 . S
Li1409 O1469 1.956 . S
Li1409 O1471 1.961 . S
Li1410 N1455 1.990 . S
Li1410 O1468 1.961 . S
Li1410 O1470 1.956 . S
Li1410 O1471 1.970 . S
Li1411 N1461 1.990 . S
Li1411 O1469 1.961 . S
Li1411 O1470 1.970 . S
Li1411 O1471 1.956 . S
C1412 C1414 1.348 . S
C1412 C1415 1.356 . S
C1412 O1468 1.325 . S
N1413 C1416 1.314 . S
N1413 C1417 1.279 . S
C1414 C1412 1.348 . S
C1414 C1416 1.353 . S
C1414 H1472 0.929 . S
C1415 C1412 1.356 . S
C1415 C1417 1.358 . S
C1415 H1473 0.930 . S
C1416 N1413 1.314 . S
C1416 C1414 1.353 . S
C1416 H1474 0.930 . S
C1417 N1413 1.279 . S
C1417 C1415 1.358 . S
C1417 H1475 0.930 . S
C1418 C1421 1.348 . S
C1418 C1422 1.356 . S
C1418 O1469 1.325 . S
C1419 N1420 1.279 . S
C1419 C1422 1.358 . S
C1419 H1476 0.930 . S
N1420 C1419 1.279 . S
N1420 C1423 1.314 . S
C1421 C1418 1.348 . S
C1421 C1423 1.353 . S
C1421 H1477 0.929 . S
C1422 C1418 1.356 . S
C1422 C1419 1.358 . S
C1422 H1478 0.930 . S
C1423 N1420 1.314 . S
C1423 C1421 1.353 . S
C1423 H1479 0.930 . S
C1424 N1425 1.314 . S
C1424 C1429 1.353 . S
C1424 H1430 0.930 . S
N1425 Li1408 1.990 . S
N1425 C1424 1.314 . S
N1425 C1427 1.279 . S
C1426 C1427 1.358 . S
C1426 C1428 1.356 . S
C1426 H1480 0.930 . S
C1427 N1425 1.279 . S
C1427 C1426 1.358 . S
C1427 H1431 0.930 . S
C1428 C1426 1.356 . S
C1428 C1429 1.348 . S
C1429 C1424 1.353 . S
C1429 C1428 1.348 . S
C1429 H1481 0.929 . S
H1430 C1424 0.930 . S
H1431 C1427 0.930 . S
C1432 N1433 1.314 . S
C1432 C1434 1.353 . S
C1432 H1438 0.930 . S
N1433 Li1409 1.990 . S
N1433 C1432 1.314 . S
N1433 C1436 1.279 . S
C1434 C1432 1.353 . S
C1434 C1437 1.348 . S
C1434 H1482 0.929 . S
C1435 C1436 1.358 . S
C1435 C1437 1.356 . S
C1435 H1483 0.930 . S
C1436 N1433 1.279 . S
C1436 C1435 1.358 . S
C1436 H1439 0.930 . S
C1437 C1434 1.348 . S
C1437 C1435 1.356 . S
H1438 C1432 0.930 . S
H1439 C1436 0.930 . S
C1440 C1442 1.348 . S
C1440 C1443 1.356 . S
C1440 O1470 1.325 . S
N1441 C1444 1.314 . S
N1441 C1445 1.279 . S
C1442 C1440 1.348 . S
C1442 C1444 1.353 . S
C1442 H1484 0.929 . S
C1443 C1440 1.356 . S
C1443 C1445 1.358 . S
C1443 H1485 0.930 . S
C1444 N1441 1.314 . S
C1444 C1442 1.353 . S
C1444 H1486 0.930 . S
C1445 N1441 1.279 . S
C1445 C1443 1.358 . S
C1445 H1487 0.930 . S
C1446 C1447 1.348 . S
C1446 C1448 1.356 . S
C1446 O1471 1.325 . S
C1447 C1446 1.348 . S
C1447 C1449 1.353 . S
C1447 H1488 0.929 . S
C1448 C1446 1.356 . S
C1448 C1450 1.358 . S
C1448 H1489 0.930 . S
C1449 C1447 1.353 . S
C1449 N1451 1.314 . S
C1449 H1490 0.930 . S
C1450 C1448 1.358 . S
C1450 N1451 1.279 . S
C1450 H1491 0.930 . S
N1451 C1449 1.314 . S
N1451 C1450 1.279 . S
C1452 C1454 1.353 . S
C1452 N1455 1.314 . S
C1452 H1458 0.930 . S
C1453 N1455 1.279 . S
C1453 C1456 1.358 . S
C1453 H1459 0.930 . S
C1454 C1452 1.353 . S
C1454 C1457 1.348 . S
C1454 H1492 0.929 . S
N1455 Li1410 1.990 . S
N1455 C1452 1.314 . S
N1455 C1453 1.279 . S
C1456 C1453 1.358 . S
C1456 C1457 1.356 . S
C1456 H1493 0.930 . S
C1457 C1454 1.348 . S
C1457 C1456 1.356 . S
H1458 C1452 0.930 . S
H1459 C1453 0.930 . S
C1460 N1461 1.314 . S
C1460 C1462 1.353 . S
C1460 H1466 0.930 . S
N1461 Li1411 1.990 . S
N1461 C1460 1.314 . S
N1461 C1464 1.279 . S
C1462 C1460 1.353 . S
C1462 C1465 1.348 . S
C1462 H1494 0.929 . S
C1463 C1464 1.358 . S
C1463 C1465 1.356 . S
C1463 H1495 0.930 . S
C1464 N1461 1.279 . S
C1464 C1463 1.358 . S
C1464 H1467 0.930 . S
C1465 C1462 1.348 . S
C1465 C1463 1.356 . S
H1466 C1460 0.930 . S
H1467 C1464 0.930 . S
O1468 Li1408 1.956 . S
O1468 Li1409 1.970 . S
O1468 Li1410 1.961 . S
O1468 C1412 1.325 . S
O1469 Li1408 1.970 . S
O1469 Li1409 1.956 . S
O1469 Li1411 1.961 . S
O1469 C1418 1.325 . S
O1470 Li1408 1.961 . S
O1470 Li1410 1.956 . S
O1470 Li1411 1.970 . S
O1470 C1440 1.325 . S
O1471 Li1409 1.961 . S
O1471 Li1410 1.970 . S
O1471 Li1411 1.956 . S
O1471 C1446 1.325 . S
H1472 C1414 0.929 . S
H1473 C1415 0.930 . S
H1474 C1416 0.930 . S
H1475 C1417 0.930 . S
H1476 C1419 0.930 . S
H1477 C1421 0.929 . S
H1478 C1422 0.930 . S
H1479 C1423 0.930 . S
H1480 C1426 0.930 . S
H1481 C1429 0.929 . S
H1482 C1434 0.929 . S
H1483 C1435 0.930 . S
H1484 C1442 0.929 . S
H1485 C1443 0.930 . S
H1486 C1444 0.930 . S
H1487 C1445 0.930 . S
H1488 C1447 0.929 . S
H1489 C1448 0.930 . S
H1490 C1449 0.930 . S
H1491 C1450 0.930 . S
H1492 C1454 0.929 . S
H1493 C1456 0.930 . S
H1494 C1462 0.929 . S
H1495 C1463 0.930 . S
Li1496 N1513 1.990 . S
Li1496 O1556 1.956 . S
Li1496 O1557 1.970 . S
Li1496 O1558 1.961 . S
Li1497 N1521 1.990 . S
Li1497 O1556 1.970 . S
Li1497 O1557 1.956 . S
Li1497 O1559 1.961 . S
Li1498 N1543 1.990 . S
Li1498 O1556 1.961 . S
Li1498 O1558 1.956 . S
Li1498 O1559 1.970 . S
Li1499 N1549 1.990 . S
Li1499 O1557 1.961 . S
Li1499 O1558 1.970 . S
Li1499 O1559 1.956 . S
C1500 C1502 1.348 . S
C1500 C1503 1.356 . S
C1500 O1556 1.325 . S
N1501 C1504 1.314 . S
N1501 C1505 1.279 . S
C1502 C1500 1.348 . S
C1502 C1504 1.353 . S
C1502 H1560 0.929 . S
C1503 C1500 1.356 . S
C1503 C1505 1.358 . S
C1503 H1561 0.930 . S
C1504 N1501 1.314 . S
C1504 C1502 1.353 . S
C1504 H1562 0.930 . S
C1505 N1501 1.279 . S
C1505 C1503 1.358 . S
C1505 H1563 0.930 . S
C1506 C1509 1.348 . S
C1506 C1510 1.356 . S
C1506 O1557 1.325 . S
C1507 N1508 1.279 . S
C1507 C1510 1.358 . S
C1507 H1564 0.930 . S
N1508 C1507 1.279 . S
N1508 C1511 1.314 . S
C1509 C1506 1.348 . S
C1509 C1511 1.353 . S
C1509 H1565 0.929 . S
C1510 C1506 1.356 . S
C1510 C1507 1.358 . S
C1510 H1566 0.930 . S
C1511 N1508 1.314 . S
C1511 C1509 1.353 . S
C1511 H1567 0.930 . S
C1512 N1513 1.314 . S
C1512 C1517 1.353 . S
C1512 H1518 0.930 . S
N1513 Li1496 1.990 . S
N1513 C1512 1.314 . S
N1513 C1515 1.279 . S
C1514 C1515 1.358 . S
C1514 C1516 1.356 . S
C1514 H1568 0.930 . S
C1515 N1513 1.279 . S
C1515 C1514 1.358 . S
C1515 H1519 0.930 . S
C1516 C1514 1.356 . S
C1516 C1517 1.348 . S
C1517 C1512 1.353 . S
C1517 C1516 1.348 . S
C1517 H1569 0.929 . S
H1518 C1512 0.930 . S
H1519 C1515 0.930 . S
C1520 N1521 1.314 . S
C1520 C1522 1.353 . S
C1520 H1526 0.930 . S
N1521 Li1497 1.990 . S
N1521 C1520 1.314 . S
N1521 C1524 1.279 . S
C1522 C1520 1.353 . S
C1522 C1525 1.348 . S
C1522 H1570 0.929 . S
C1523 C1524 1.358 . S
C1523 C1525 1.356 . S
C1523 H1571 0.930 1_545 S
C1524 N1521 1.279 . S
C1524 C1523 1.358 . S
C1524 H1527 0.930 . S
C1525 C1522 1.348 . S
C1525 C1523 1.356 . S
H1526 C1520 0.930 . S
H1527 C1524 0.930 . S
C1528 C1530 1.348 . S
C1528 C1531 1.356 . S
C1528 O1558 1.325 . S
N1529 C1532 1.314 . S
N1529 C1533 1.279 . S
C1530 C1528 1.348 . S
C1530 C1532 1.353 . S
C1530 H1572 0.929 . S
C1531 C1528 1.356 . S
C1531 C1533 1.358 . S
C1531 H1573 0.930 . S
C1532 N1529 1.314 . S
C1532 C1530 1.353 . S
C1532 H1574 0.930 . S
C1533 N1529 1.279 . S
C1533 C1531 1.358 . S
C1533 H1575 0.930 . S
C1534 C1535 1.348 . S
C1534 C1536 1.356 . S
C1534 O1559 1.325 . S
C1535 C1534 1.348 . S
C1535 C1537 1.353 . S
C1535 H1576 0.929 . S
C1536 C1534 1.356 . S
C1536 C1538 1.358 . S
C1536 H1577 0.930 . S
C1537 C1535 1.353 . S
C1537 N1539 1.314 . S
C1537 H1578 0.930 . S
C1538 C1536 1.358 . S
C1538 N1539 1.279 . S
C1538 H1579 0.930 . S
N1539 C1537 1.314 . S
N1539 C1538 1.279 . S
C1540 C1542 1.353 . S
C1540 N1543 1.314 . S
C1540 H1546 0.930 . S
C1541 N1543 1.279 . S
C1541 C1544 1.358 . S
C1541 H1547 0.930 . S
C1542 C1540 1.353 . S
C1542 C1545 1.348 . S
C1542 H1580 0.929 . S
N1543 Li1498 1.990 . S
N1543 C1540 1.314 . S
N1543 C1541 1.279 . S
C1544 C1541 1.358 . S
C1544 C1545 1.356 . S
C1544 H1581 0.930 . S
C1545 C1542 1.348 . S
C1545 C1544 1.356 . S
H1546 C1540 0.930 . S
H1547 C1541 0.930 . S
C1548 N1549 1.314 . S
C1548 C1550 1.353 . S
C1548 H1554 0.930 . S
N1549 Li1499 1.990 . S
N1549 C1548 1.314 . S
N1549 C1552 1.279 . S
C1550 C1548 1.353 . S
C1550 C1553 1.348 . S
C1550 H1582 0.929 . S
C1551 C1552 1.358 . S
C1551 C1553 1.356 . S
C1551 H1583 0.930 . S
C1552 N1549 1.279 . S
C1552 C1551 1.358 . S
C1552 H1555 0.930 . S
C1553 C1550 1.348 . S
C1553 C1551 1.356 . S
H1554 C1548 0.930 . S
H1555 C1552 0.930 . S
O1556 Li1496 1.956 . S
O1556 Li1497 1.970 . S
O1556 Li1498 1.961 . S
O1556 C1500 1.325 . S
O1557 Li1496 1.970 . S
O1557 Li1497 1.956 . S
O1557 Li1499 1.961 . S
O1557 C1506 1.325 . S
O1558 Li1496 1.961 . S
O1558 Li1498 1.956 . S
O1558 Li1499 1.970 . S
O1558 C1528 1.325 . S
O1559 Li1497 1.961 . S
O1559 Li1498 1.970 . S
O1559 Li1499 1.956 . S
O1559 C1534 1.325 . S
H1560 C1502 0.929 . S
H1561 C1503 0.930 . S
H1562 C1504 0.930 . S
H1563 C1505 0.930 . S
H1564 C1507 0.930 . S
H1565 C1509 0.929 . S
H1566 C1510 0.930 . S
H1567 C1511 0.930 . S
H1568 C1514 0.930 . S
H1569 C1517 0.929 . S
H1570 C1522 0.929 . S
H1571 C1523 0.930 1_565 S
H1572 C1530 0.929 . S
H1573 C1531 0.930 . S
H1574 C1532 0.930 . S
H1575 C1533 0.930 . S
H1576 C1535 0.929 . S
H1577 C1536 0.930 . S
H1578 C1537 0.930 . S
H1579 C1538 0.930 . S
H1580 C1542 0.929 . S
H1581 C1544 0.930 . S
H1582 C1550 0.929 . S
H1583 C1551 0.930 . S
Li1584 N1601 1.990 . S
Li1584 O1644 1.956 . S
Li1584 O1645 1.970 . S
Li1584 O1646 1.961 . S
Li1585 N1609 1.990 . S
Li1585 O1644 1.970 . S
Li1585 O1645 1.956 . S
Li1585 O1647 1.961 . S
Li1586 N1631 1.990 . S
Li1586 O1644 1.961 . S
Li1586 O1646 1.956 . S
Li1586 O1647 1.970 . S
Li1587 N1637 1.990 . S
Li1587 O1645 1.961 . S
Li1587 O1646 1.970 . S
Li1587 O1647 1.956 . S
C1588 C1590 1.348 . S
C1588 C1591 1.356 . S
C1588 O1644 1.325 . S
N1589 C1592 1.314 . S
N1589 C1593 1.279 . S
C1590 C1588 1.348 . S
C1590 C1592 1.353 . S
C1590 H1648 0.929 . S
C1591 C1588 1.356 . S
C1591 C1593 1.358 . S
C1591 H1649 0.930 . S
C1592 N1589 1.314 . S
C1592 C1590 1.353 . S
C1592 H1650 0.930 . S
C1593 N1589 1.279 . S
C1593 C1591 1.358 . S
C1593 H1651 0.930 . S
C1594 C1597 1.348 . S
C1594 C1598 1.356 . S
C1594 O1645 1.325 . S
C1595 N1596 1.279 . S
C1595 C1598 1.358 . S
C1595 H1652 0.930 . S
N1596 C1595 1.279 . S
N1596 C1599 1.314 . S
C1597 C1594 1.348 . S
C1597 C1599 1.353 . S
C1597 H1653 0.929 . S
C1598 C1594 1.356 . S
C1598 C1595 1.358 . S
C1598 H1654 0.930 . S
C1599 N1596 1.314 . S
C1599 C1597 1.353 . S
C1599 H1655 0.930 . S
C1600 N1601 1.314 . S
C1600 C1605 1.353 . S
C1600 H1606 0.930 . S
N1601 Li1584 1.990 . S
N1601 C1600 1.314 . S
N1601 C1603 1.279 . S
C1602 C1603 1.358 . S
C1602 C1604 1.356 . S
C1602 H1656 0.930 . S
C1603 N1601 1.279 . S
C1603 C1602 1.358 . S
C1603 H1607 0.930 . S
C1604 C1602 1.356 . S
C1604 C1605 1.348 . S
C1605 C1600 1.353 . S
C1605 C1604 1.348 . S
C1605 H1657 0.929 . S
H1606 C1600 0.930 . S
H1607 C1603 0.930 . S
C1608 N1609 1.314 . S
C1608 C1610 1.353 . S
C1608 H1614 0.930 . S
N1609 Li1585 1.990 . S
N1609 C1608 1.314 . S
N1609 C1612 1.279 . S
C1610 C1608 1.353 . S
C1610 C1613 1.348 . S
C1610 H1658 0.929 . S
C1611 C1612 1.358 . S
C1611 C1613 1.356 . S
C1611 H1659 0.930 . S
C1612 N1609 1.279 . S
C1612 C1611 1.358 . S
C1612 H1615 0.930 . S
C1613 C1610 1.348 . S
C1613 C1611 1.356 . S
H1614 C1608 0.930 . S
H1615 C1612 0.930 . S
C1616 C1618 1.348 . S
C1616 C1619 1.356 . S
C1616 O1646 1.325 . S
N1617 C1620 1.314 . S
N1617 C1621 1.279 . S
C1618 C1616 1.348 . S
C1618 C1620 1.353 . S
C1618 H1660 0.929 . S
C1619 C1616 1.356 . S
C1619 C1621 1.358 . S
C1619 H1661 0.930 . S
C1620 N1617 1.314 . S
C1620 C1618 1.353 . S
C1620 H1662 0.930 . S
C1621 N1617 1.279 . S
C1621 C1619 1.358 . S
C1621 H1663 0.930 . S
C1622 C1623 1.348 1_554 S
C1622 C1624 1.356 . S
C1622 O1647 1.325 . S
C1623 C1622 1.348 1_556 S
C1623 C1625 1.353 . S
C1623 H1664 0.929 . S
C1624 C1622 1.356 . S
C1624 C1626 1.358 1_554 S
C1624 H1665 0.930 . S
C1625 C1623 1.353 . S
C1625 N1627 1.314 . S
C1625 H1666 0.930 . S
C1626 C1624 1.358 1_556 S
C1626 N1627 1.279 . S
C1626 H1667 0.930 . S
N1627 C1625 1.314 . S
N1627 C1626 1.279 . S
C1628 C1630 1.353 1_554 S
C1628 N1631 1.314 . S
C1628 H1634 0.930 . S
C1629 N1631 1.279 1_556 S
C1629 C1632 1.358 . S
C1629 H1635 0.930 . S
C1630 C1628 1.353 1_556 S
C1630 C1633 1.348 . S
C1630 H1668 0.929 . S
N1631 Li1586 1.990 . S
N1631 C1628 1.314 . S
N1631 C1629 1.279 1_554 S
C1632 C1629 1.358 . S
C1632 C1633 1.356 . S
C1632 H1669 0.930 . S
C1633 C1630 1.348 . S
C1633 C1632 1.356 . S
H1634 C1628 0.930 . S
H1635 C1629 0.930 . S
C1636 N1637 1.314 . S
C1636 C1638 1.353 . S
C1636 H1642 0.930 . S
N1637 Li1587 1.990 . S
N1637 C1636 1.314 . S
N1637 C1640 1.279 . S
C1638 C1636 1.353 . S
C1638 C1641 1.348 . S
C1638 H1670 0.929 . S
C1639 C1640 1.358 1_556 S
C1639 C1641 1.356 1_556 S
C1639 H1671 0.930 . S
C1640 N1637 1.279 . S
C1640 C1639 1.358 1_554 S
C1640 H1643 0.930 1_554 S
C1641 C1638 1.348 . S
C1641 C1639 1.356 1_554 S
H1642 C1636 0.930 . S
H1643 C1640 0.930 1_556 S
O1644 Li1584 1.956 . S
O1644 Li1585 1.970 . S
O1644 Li1586 1.961 . S
O1644 C1588 1.325 . S
O1645 Li1584 1.970 . S
O1645 Li1585 1.956 . S
O1645 Li1587 1.961 . S
O1645 C1594 1.325 . S
O1646 Li1584 1.961 . S
O1646 Li1586 1.956 . S
O1646 Li1587 1.970 . S
O1646 C1616 1.325 . S
O1647 Li1585 1.961 . S
O1647 Li1586 1.970 . S
O1647 Li1587 1.956 . S
O1647 C1622 1.325 . S
H1648 C1590 0.929 . S
H1649 C1591 0.930 . S
H1650 C1592 0.930 . S
H1651 C1593 0.930 . S
H1652 C1595 0.930 . S
H1653 C1597 0.929 . S
H1654 C1598 0.930 . S
H1655 C1599 0.930 . S
H1656 C1602 0.930 . S
H1657 C1605 0.929 . S
H1658 C1610 0.929 . S
H1659 C1611 0.930 . S
H1660 C1618 0.929 . S
H1661 C1619 0.930 . S
H1662 C1620 0.930 . S
H1663 C1621 0.930 . S
H1664 C1623 0.929 . S
H1665 C1624 0.930 . S
H1666 C1625 0.930 . S
H1667 C1626 0.930 . S
H1668 C1630 0.929 . S
H1669 C1632 0.930 . S
H1670 C1638 0.929 . S
H1671 C1639 0.930 . S
Li1672 N1689 1.990 . S
Li1672 O1732 1.956 . S
Li1672 O1733 1.970 . S
Li1672 O1734 1.961 . S
Li1673 N1697 1.990 . S
Li1673 O1732 1.970 . S
Li1673 O1733 1.956 . S
Li1673 O1735 1.961 . S
Li1674 N1719 1.990 . S
Li1674 O1732 1.961 . S
Li1674 O1734 1.956 . S
Li1674 O1735 1.970 . S
Li1675 N1725 1.990 . S
Li1675 O1733 1.961 . S
Li1675 O1734 1.970 . S
Li1675 O1735 1.956 . S
C1676 C1678 1.348 . S
C1676 C1679 1.356 . S
C1676 O1732 1.325 . S
N1677 C1680 1.314 . S
N1677 C1681 1.279 . S
C1678 C1676 1.348 . S
C1678 C1680 1.353 . S
C1678 H1736 0.929 . S
C1679 C1676 1.356 . S
C1679 C1681 1.358 . S
C1679 H1737 0.930 . S
C1680 N1677 1.314 . S
C1680 C1678 1.353 . S
C1680 H1738 0.930 . S
C1681 N1677 1.279 . S
C1681 C1679 1.358 . S
C1681 H1739 0.930 . S
C1682 C1685 1.348 . S
C1682 C1686 1.356 . S
C1682 O1733 1.325 . S
C1683 N1684 1.279 . S
C1683 C1686 1.358 . S
C1683 H1740 0.930 . S
N1684 C1683 1.279 . S
N1684 C1687 1.314 . S
C1685 C1682 1.348 . S
C1685 C1687 1.353 . S
C1685 H1741 0.929 . S
C1686 C1682 1.356 . S
C1686 C1683 1.358 . S
C1686 H1742 0.930 . S
C1687 N1684 1.314 . S
C1687 C1685 1.353 . S
C1687 H1743 0.930 . S
C1688 N1689 1.314 . S
C1688 C1693 1.353 . S
C1688 H1694 0.930 . S
N1689 Li1672 1.990 . S
N1689 C1688 1.314 . S
N1689 C1691 1.279 . S
C1690 C1691 1.358 . S
C1690 C1692 1.356 . S
C1690 H1744 0.930 . S
C1691 N1689 1.279 . S
C1691 C1690 1.358 . S
C1691 H1695 0.930 . S
C1692 C1690 1.356 . S
C1692 C1693 1.348 . S
C1693 C1688 1.353 . S
C1693 C1692 1.348 . S
C1693 H1745 0.929 . S
H1694 C1688 0.930 . S
H1695 C1691 0.930 . S
C1696 N1697 1.314 . S
C1696 C1698 1.353 . S
C1696 H1702 0.930 . S
N1697 Li1673 1.990 . S
N1697 C1696 1.314 . S
N1697 C1700 1.279 . S
C1698 C1696 1.353 . S
C1698 C1701 1.348 . S
C1698 H1746 0.929 . S
C1699 C1700 1.358 . S
C1699 C1701 1.356 . S
C1699 H1747 0.930 1_565 S
C1700 N1697 1.279 . S
C1700 C1699 1.358 . S
C1700 H1703 0.930 . S
C1701 C1698 1.348 . S
C1701 C1699 1.356 . S
H1702 C1696 0.930 . S
H1703 C1700 0.930 . S
C1704 C1706 1.348 . S
C1704 C1707 1.356 . S
C1704 O1734 1.325 . S
N1705 C1708 1.314 . S
N1705 C1709 1.279 . S
C1706 C1704 1.348 . S
C1706 C1708 1.353 . S
C1706 H1748 0.929 . S
C1707 C1704 1.356 . S
C1707 C1709 1.358 . S
C1707 H1749 0.930 . S
C1708 N1705 1.314 . S
C1708 C1706 1.353 . S
C1708 H1750 0.930 . S
C1709 N1705 1.279 . S
C1709 C1707 1.358 . S
C1709 H1751 0.930 . S
C1710 C1711 1.348 . S
C1710 C1712 1.356 . S
C1710 O1735 1.325 . S
C1711 C1710 1.348 . S
C1711 C1713 1.353 . S
C1711 H1752 0.929 . S
C1712 C1710 1.356 . S
C1712 C1714 1.358 . S
C1712 H1753 0.930 . S
C1713 C1711 1.353 . S
C1713 N1715 1.314 . S
C1713 H1754 0.930 . S
C1714 C1712 1.358 . S
C1714 N1715 1.279 . S
C1714 H1755 0.930 . S
N1715 C1713 1.314 . S
N1715 C1714 1.279 . S
C1716 C1718 1.353 . S
C1716 N1719 1.314 . S
C1716 H1722 0.930 . S
C1717 N1719 1.279 . S
C1717 C1720 1.358 . S
C1717 H1723 0.930 . S
C1718 C1716 1.353 . S
C1718 C1721 1.348 . S
C1718 H1756 0.929 . S
N1719 Li1674 1.990 . S
N1719 C1716 1.314 . S
N1719 C1717 1.279 . S
C1720 C1717 1.358 . S
C1720 C1721 1.356 . S
C1720 H1757 0.930 . S
C1721 C1718 1.348 . S
C1721 C1720 1.356 . S
H1722 C1716 0.930 . S
H1723 C1717 0.930 . S
C1724 N1725 1.314 . S
C1724 C1726 1.353 . S
C1724 H1730 0.930 . S
N1725 Li1675 1.990 . S
N1725 C1724 1.314 . S
N1725 C1728 1.279 . S
C1726 C1724 1.353 . S
C1726 C1729 1.348 . S
C1726 H1758 0.929 . S
C1727 C1728 1.358 . S
C1727 C1729 1.356 . S
C1727 H1759 0.930 . S
C1728 N1725 1.279 . S
C1728 C1727 1.358 . S
C1728 H1731 0.930 . S
C1729 C1726 1.348 . S
C1729 C1727 1.356 . S
H1730 C1724 0.930 . S
H1731 C1728 0.930 . S
O1732 Li1672 1.956 . S
O1732 Li1673 1.970 . S
O1732 Li1674 1.961 . S
O1732 C1676 1.325 . S
O1733 Li1672 1.970 . S
O1733 Li1673 1.956 . S
O1733 Li1675 1.961 . S
O1733 C1682 1.325 . S
O1734 Li1672 1.961 . S
O1734 Li1674 1.956 . S
O1734 Li1675 1.970 . S
O1734 C1704 1.325 . S
O1735 Li1673 1.961 . S
O1735 Li1674 1.970 . S
O1735 Li1675 1.956 . S
O1735 C1710 1.325 . S
H1736 C1678 0.929 . S
H1737 C1679 0.930 . S
H1738 C1680 0.930 . S
H1739 C1681 0.930 . S
H1740 C1683 0.930 . S
H1741 C1685 0.929 . S
H1742 C1686 0.930 . S
H1743 C1687 0.930 . S
H1744 C1690 0.930 . S
H1745 C1693 0.929 . S
H1746 C1698 0.929 . S
H1747 C1699 0.930 1_545 S
H1748 C1706 0.929 . S
H1749 C1707 0.930 . S
H1750 C1708 0.930 . S
H1751 C1709 0.930 . S
H1752 C1711 0.929 . S
H1753 C1712 0.930 . S
H1754 C1713 0.930 . S
H1755 C1714 0.930 . S
H1756 C1718 0.929 . S
H1757 C1720 0.930 . S
H1758 C1726 0.929 . S
H1759 C1727 0.930 . S
Li1760 N1777 1.990 . S
Li1760 O1820 1.956 . S
Li1760 O1821 1.970 . S
Li1760 O1822 1.961 . S
Li1761 N1785 1.990 . S
Li1761 O1820 1.970 . S
Li1761 O1821 1.956 . S
Li1761 O1823 1.961 . S
Li1762 N1807 1.990 . S
Li1762 O1820 1.961 . S
Li1762 O1822 1.956 . S
Li1762 O1823 1.970 . S
Li1763 N1813 1.990 . S
Li1763 O1821 1.961 . S
Li1763 O1822 1.970 . S
Li1763 O1823 1.956 . S
C1764 C1766 1.348 . S
C1764 C1767 1.356 . S
C1764 O1820 1.325 . S
N1765 C1768 1.314 . S
N1765 C1769 1.279 . S
C1766 C1764 1.348 . S
C1766 C1768 1.353 . S
C1766 H1824 0.929 . S
C1767 C1764 1.356 . S
C1767 C1769 1.358 . S
C1767 H1825 0.930 . S
C1768 N1765 1.314 . S
C1768 C1766 1.353 . S
C1768 H1826 0.930 . S
C1769 N1765 1.279 . S
C1769 C1767 1.358 . S
C1769 H1827 0.930 . S
C1770 C1773 1.348 . S
C1770 C1774 1.356 . S
C1770 O1821 1.325 . S
C1771 N1772 1.279 . S
C1771 C1774 1.358 . S
C1771 H1828 0.930 . S
N1772 C1771 1.279 . S
N1772 C1775 1.314 . S
C1773 C1770 1.348 . S
C1773 C1775 1.353 . S
C1773 H1829 0.929 . S
C1774 C1770 1.356 . S
C1774 C1771 1.358 . S
C1774 H1830 0.930 . S
C1775 N1772 1.314 . S
C1775 C1773 1.353 . S
C1775 H1831 0.930 . S
C1776 N1777 1.314 . S
C1776 C1781 1.353 . S
C1776 H1782 0.930 . S
N1777 Li1760 1.990 . S
N1777 C1776 1.314 . S
N1777 C1779 1.279 . S
C1778 C1779 1.358 . S
C1778 C1780 1.356 . S
C1778 H1832 0.930 . S
C1779 N1777 1.279 . S
C1779 C1778 1.358 . S
C1779 H1783 0.930 . S
C1780 C1778 1.356 . S
C1780 C1781 1.348 . S
C1781 C1776 1.353 . S
C1781 C1780 1.348 . S
C1781 H1833 0.929 . S
H1782 C1776 0.930 . S
H1783 C1779 0.930 . S
C1784 N1785 1.314 . S
C1784 C1786 1.353 . S
C1784 H1790 0.930 . S
N1785 Li1761 1.990 . S
N1785 C1784 1.314 . S
N1785 C1788 1.279 . S
C1786 C1784 1.353 . S
C1786 C1789 1.348 . S
C1786 H1834 0.929 . S
C1787 C1788 1.358 . S
C1787 C1789 1.356 . S
C1787 H1835 0.930 . S
C1788 N1785 1.279 . S
C1788 C1787 1.358 . S
C1788 H1791 0.930 . S
C1789 C1786 1.348 . S
C1789 C1787 1.356 . S
H1790 C1784 0.930 . S
H1791 C1788 0.930 . S
C1792 C1794 1.348 . S
C1792 C1795 1.356 . S
C1792 O1822 1.325 . S
N1793 C1796 1.314 . S
N1793 C1797 1.279 . S
C1794 C1792 1.348 . S
C1794 C1796 1.353 . S
C1794 H1836 0.929 . S
C1795 C1792 1.356 . S
C1795 C1797 1.358 . S
C1795 H1837 0.930 . S
C1796 N1793 1.314 . S
C1796 C1794 1.353 . S
C1796 H1838 0.930 . S
C1797 N1793 1.279 . S
C1797 C1795 1.358 . S
C1797 H1839 0.930 . S
C1798 C1799 1.348 . S
C1798 C1800 1.356 . S
C1798 O1823 1.325 . S
C1799 C1798 1.348 . S
C1799 C1801 1.353 . S
C1799 H1840 0.929 . S
C1800 C1798 1.356 . S
C1800 C1802 1.358 . S
C1800 H1841 0.930 . S
C1801 C1799 1.353 . S
C1801 N1803 1.314 . S
C1801 H1842 0.930 . S
C1802 C1800 1.358 . S
C1802 N1803 1.279 . S
C1802 H1843 0.930 . S
N1803 C1801 1.314 . S
N1803 C1802 1.279 . S
C1804 C1806 1.353 . S
C1804 N1807 1.314 . S
C1804 H1810 0.930 . S
C1805 N1807 1.279 . S
C1805 C1808 1.358 . S
C1805 H1811 0.930 . S
C1806 C1804 1.353 . S
C1806 C1809 1.348 . S
C1806 H1844 0.929 . S
N1807 Li1762 1.990 . S
N1807 C1804 1.314 . S
N1807 C1805 1.279 . S
C1808 C1805 1.358 . S
C1808 C1809 1.356 . S
C1808 H1845 0.930 . S
C1809 C1806 1.348 . S
C1809 C1808 1.356 . S
H1810 C1804 0.930 . S
H1811 C1805 0.930 . S
C1812 N1813 1.314 . S
C1812 C1814 1.353 . S
C1812 H1818 0.930 . S
N1813 Li1763 1.990 . S
N1813 C1812 1.314 . S
N1813 C1816 1.279 . S
C1814 C1812 1.353 . S
C1814 C1817 1.348 . S
C1814 H1846 0.929 . S
C1815 C1816 1.358 . S
C1815 C1817 1.356 . S
C1815 H1847 0.930 . S
C1816 N1813 1.279 . S
C1816 C1815 1.358 . S
C1816 H1819 0.930 . S
C1817 C1814 1.348 . S
C1817 C1815 1.356 . S
H1818 C1812 0.930 . S
H1819 C1816 0.930 . S
O1820 Li1760 1.956 . S
O1820 Li1761 1.970 . S
O1820 Li1762 1.961 . S
O1820 C1764 1.325 . S
O1821 Li1760 1.970 . S
O1821 Li1761 1.956 . S
O1821 Li1763 1.961 . S
O1821 C1770 1.325 . S
O1822 Li1760 1.961 . S
O1822 Li1762 1.956 . S
O1822 Li1763 1.970 . S
O1822 C1792 1.325 . S
O1823 Li1761 1.961 . S
O1823 Li1762 1.970 . S
O1823 Li1763 1.956 . S
O1823 C1798 1.325 . S
H1824 C1766 0.929 . S
H1825 C1767 0.930 . S
H1826 C1768 0.930 . S
H1827 C1769 0.930 . S
H1828 C1771 0.930 . S
H1829 C1773 0.929 . S
H1830 C1774 0.930 . S
H1831 C1775 0.930 . S
H1832 C1778 0.930 . S
H1833 C1781 0.929 . S
H1834 C1786 0.929 . S
H1835 C1787 0.930 . S
H1836 C1794 0.929 . S
H1837 C1795 0.930 . S
H1838 C1796 0.930 . S
H1839 C1797 0.930 . S
H1840 C1799 0.929 . S
H1841 C1800 0.930 . S
H1842 C1801 0.930 . S
H1843 C1802 0.930 . S
H1844 C1806 0.929 . S
H1845 C1808 0.930 . S
H1846 C1814 0.929 . S
H1847 C1815 0.930 . S
Li1848 N1865 1.990 . S
Li1848 O1908 1.956 . S
Li1848 O1909 1.970 . S
Li1848 O1910 1.961 . S
Li1849 N1873 1.990 . S
Li1849 O1908 1.970 . S
Li1849 O1909 1.956 . S
Li1849 O1911 1.961 . S
Li1850 N1895 1.990 . S
Li1850 O1908 1.961 . S
Li1850 O1910 1.956 . S
Li1850 O1911 1.970 . S
Li1851 N1901 1.990 . S
Li1851 O1909 1.961 . S
Li1851 O1910 1.970 . S
Li1851 O1911 1.956 . S
C1852 C1854 1.348 . S
C1852 C1855 1.356 . S
C1852 O1908 1.325 . S
N1853 C1856 1.314 . S
N1853 C1857 1.279 . S
C1854 C1852 1.348 . S
C1854 C1856 1.353 . S
C1854 H1912 0.929 . S
C1855 C1852 1.356 . S
C1855 C1857 1.358 . S
C1855 H1913 0.930 . S
C1856 N1853 1.314 . S
C1856 C1854 1.353 . S
C1856 H1914 0.930 . S
C1857 N1853 1.279 . S
C1857 C1855 1.358 . S
C1857 H1915 0.930 . S
C1858 C1861 1.348 . S
C1858 C1862 1.356 . S
C1858 O1909 1.325 . S
C1859 N1860 1.279 . S
C1859 C1862 1.358 . S
C1859 H1916 0.930 . S
N1860 C1859 1.279 . S
N1860 C1863 1.314 . S
C1861 C1858 1.348 . S
C1861 C1863 1.353 . S
C1861 H1917 0.929 . S
C1862 C1858 1.356 . S
C1862 C1859 1.358 . S
C1862 H1918 0.930 . S
C1863 N1860 1.314 . S
C1863 C1861 1.353 . S
C1863 H1919 0.930 . S
C1864 N1865 1.314 . S
C1864 C1869 1.353 . S
C1864 H1870 0.930 . S
N1865 Li1848 1.990 . S
N1865 C1864 1.314 . S
N1865 C1867 1.279 . S
C1866 C1867 1.358 . S
C1866 C1868 1.356 . S
C1866 H1920 0.930 . S
C1867 N1865 1.279 . S
C1867 C1866 1.358 . S
C1867 H1871 0.930 . S
C1868 C1866 1.356 . S
C1868 C1869 1.348 . S
C1869 C1864 1.353 . S
C1869 C1868 1.348 . S
C1869 H1921 0.929 . S
H1870 C1864 0.930 . S
H1871 C1867 0.930 . S
C1872 N1873 1.314 . S
C1872 C1874 1.353 . S
C1872 H1878 0.930 . S
N1873 Li1849 1.990 . S
N1873 C1872 1.314 . S
N1873 C1876 1.279 . S
C1874 C1872 1.353 . S
C1874 C1877 1.348 . S
C1874 H1922 0.929 . S
C1875 C1876 1.358 . S
C1875 C1877 1.356 . S
C1875 H1923 0.930 . S
C1876 N1873 1.279 . S
C1876 C1875 1.358 . S
C1876 H1879 0.930 . S
C1877 C1874 1.348 . S
C1877 C1875 1.356 . S
H1878 C1872 0.930 . S
H1879 C1876 0.930 . S
C1880 C1882 1.348 . S
C1880 C1883 1.356 . S
C1880 O1910 1.325 . S
N1881 C1884 1.314 . S
N1881 C1885 1.279 . S
C1882 C1880 1.348 . S
C1882 C1884 1.353 . S
C1882 H1924 0.929 . S
C1883 C1880 1.356 . S
C1883 C1885 1.358 . S
C1883 H1925 0.930 . S
C1884 N1881 1.314 . S
C1884 C1882 1.353 . S
C1884 H1926 0.930 . S
C1885 N1881 1.279 . S
C1885 C1883 1.358 . S
C1885 H1927 0.930 . S
C1886 C1887 1.348 . S
C1886 C1888 1.356 . S
C1886 O1911 1.325 . S
C1887 C1886 1.348 . S
C1887 C1889 1.353 . S
C1887 H1928 0.929 . S
C1888 C1886 1.356 . S
C1888 C1890 1.358 . S
C1888 H1929 0.930 . S
C1889 C1887 1.353 . S
C1889 N1891 1.314 . S
C1889 H1930 0.930 . S
C1890 C1888 1.358 . S
C1890 N1891 1.279 . S
C1890 H1931 0.930 . S
N1891 C1889 1.314 . S
N1891 C1890 1.279 . S
C1892 C1894 1.353 . S
C1892 N1895 1.314 . S
C1892 H1898 0.930 . S
C1893 N1895 1.279 . S
C1893 C1896 1.358 . S
C1893 H1899 0.930 . S
C1894 C1892 1.353 . S
C1894 C1897 1.348 . S
C1894 H1932 0.929 . S
N1895 Li1850 1.990 . S
N1895 C1892 1.314 . S
N1895 C1893 1.279 . S
C1896 C1893 1.358 . S
C1896 C1897 1.356 . S
C1896 H1933 0.930 . S
C1897 C1894 1.348 . S
C1897 C1896 1.356 . S
H1898 C1892 0.930 . S
H1899 C1893 0.930 . S
C1900 N1901 1.314 . S
C1900 C1902 1.353 . S
C1900 H1906 0.930 . S
N1901 Li1851 1.990 . S
N1901 C1900 1.314 . S
N1901 C1904 1.279 . S
C1902 C1900 1.353 . S
C1902 C1905 1.348 . S
C1902 H1934 0.929 . S
C1903 C1904 1.358 . S
C1903 C1905 1.356 . S
C1903 H1935 0.930 . S
C1904 N1901 1.279 . S
C1904 C1903 1.358 . S
C1904 H1907 0.930 . S
C1905 C1902 1.348 . S
C1905 C1903 1.356 . S
H1906 C1900 0.930 . S
H1907 C1904 0.930 . S
O1908 Li1848 1.956 . S
O1908 Li1849 1.970 . S
O1908 Li1850 1.961 . S
O1908 C1852 1.325 . S
O1909 Li1848 1.970 . S
O1909 Li1849 1.956 . S
O1909 Li1851 1.961 . S
O1909 C1858 1.325 . S
O1910 Li1848 1.961 . S
O1910 Li1850 1.956 . S
O1910 Li1851 1.970 . S
O1910 C1880 1.325 . S
O1911 Li1849 1.961 . S
O1911 Li1850 1.970 . S
O1911 Li1851 1.956 . S
O1911 C1886 1.325 . S
H1912 C1854 0.929 . S
H1913 C1855 0.930 . S
H1914 C1856 0.930 . S
H1915 C1857 0.930 . S
H1916 C1859 0.930 . S
H1917 C1861 0.929 . S
H1918 C1862 0.930 . S
H1919 C1863 0.930 . S
H1920 C1866 0.930 . S
H1921 C1869 0.929 . S
H1922 C1874 0.929 . S
H1923 C1875 0.930 . S
H1924 C1882 0.929 . S
H1925 C1883 0.930 . S
H1926 C1884 0.930 . S
H1927 C1885 0.930 . S
H1928 C1887 0.929 . S
H1929 C1888 0.930 . S
H1930 C1889 0.930 . S
H1931 C1890 0.930 . S
H1932 C1894 0.929 . S
H1933 C1896 0.930 . S
H1934 C1902 0.929 . S
H1935 C1903 0.930 . S
Li1936 N1953 1.990 1_565 S
Li1936 O1996 1.956 . S
Li1936 O1997 1.970 . S
Li1936 O1998 1.961 . S
Li1937 N1961 1.990 . S
Li1937 O1996 1.970 . S
Li1937 O1997 1.956 . S
Li1937 O1999 1.961 . S
Li1938 N1983 1.990 . S
Li1938 O1996 1.961 . S
Li1938 O1998 1.956 . S
Li1938 O1999 1.970 . S
Li1939 N1989 1.990 . S
Li1939 O1997 1.961 . S
Li1939 O1998 1.970 . S
Li1939 O1999 1.956 . S
C1940 C1942 1.348 . S
C1940 C1943 1.356 1_565 S
C1940 O1996 1.325 . S
N1941 C1944 1.314 1_545 S
N1941 C1945 1.279 . S
C1942 C1940 1.348 . S
C1942 C1944 1.353 . S
C1942 H2000 0.929 . S
C1943 C1940 1.356 1_545 S
C1943 C1945 1.358 . S
C1943 H2001 0.930 . S
C1944 N1941 1.314 1_565 S
C1944 C1942 1.353 . S
C1944 H2002 0.930 . S
C1945 N1941 1.279 . S
C1945 C1943 1.358 . S
C1945 H2003 0.930 . S
C1946 C1949 1.348 1_556 S
C1946 C1950 1.356 . S
C1946 O1997 1.325 . S
C1947 N1948 1.279 . S
C1947 C1950 1.358 1_554 S
C1947 H2004 0.930 . S
N1948 C1947 1.279 . S
N1948 C1951 1.314 . S
C1949 C1946 1.348 1_554 S
C1949 C1951 1.353 . S
C1949 H2005 0.929 . S
C1950 C1946 1.356 . S
C1950 C1947 1.358 1_556 S
C1950 H2006 0.930 . S
C1951 N1948 1.314 . S
C1951 C1949 1.353 . S
C1951 H2007 0.930 . S
C1952 N1953 1.314 . S
C1952 C1957 1.353 1_556 S
C1952 H1958 0.930 . S
N1953 Li1936 1.990 1_545 S
N1953 C1952 1.314 . S
N1953 C1955 1.279 1_556 S
C1954 C1955 1.358 . S
C1954 C1956 1.356 . S
C1954 H2008 0.930 . S
C1955 N1953 1.279 1_554 S
C1955 C1954 1.358 . S
C1955 H1959 0.930 . S
C1956 C1954 1.356 . S
C1956 C1957 1.348 . S
C1957 C1952 1.353 1_554 S
C1957 C1956 1.348 . S
C1957 H2009 0.929 . S
H1958 C1952 0.930 . S
H1959 C1955 0.930 . S
C1960 N1961 1.314 . S
C1960 C1962 1.353 . S
C1960 H1966 0.930 . S
N1961 Li1937 1.990 . S
N1961 C1960 1.314 . S
N1961 C1964 1.279 . S
C1962 C1960 1.353 . S
C1962 C1965 1.348 . S
C1962 H2010 0.929 . S
C1963 C1964 1.358 1_554 S
C1963 C1965 1.356 1_554 S
C1963 H2011 0.930 . S
C1964 N1961 1.279 . S
C1964 C1963 1.358 1_556 S
C1964 H1967 0.930 1_556 S
C1965 C1962 1.348 . S
C1965 C1963 1.356 1_556 S
H1966 C1960 0.930 . S
H1967 C1964 0.930 1_554 S
C1968 C1970 1.348 . S
C1968 C1971 1.356 1_565 S
C1968 O1998 1.325 . S
N1969 C1972 1.314 . S
N1969 C1973 1.279 . S
C1970 C1968 1.348 . S
C1970 C1972 1.353 1_565 S
C1970 H2012 0.929 . S
C1971 C1968 1.356 1_545 S
C1971 C1973 1.358 . S
C1971 H2013 0.930 . S
C1972 N1969 1.314 . S
C1972 C1970 1.353 1_545 S
C1972 H2014 0.930 1_545 S
C1973 N1969 1.279 . S
C1973 C1971 1.358 . S
C1973 H2015 0.930 . S
C1974 C1975 1.348 . S
C1974 C1976 1.356 . S
C1974 O1999 1.325 . S
C1975 C1974 1.348 . S
C1975 C1977 1.353 . S
C1975 H2016 0.929 . S
C1976 C1974 1.356 . S
C1976 C1978 1.358 . S
C1976 H2017 0.930 . S
C1977 C1975 1.353 . S
C1977 N1979 1.314 . S
C1977 H2018 0.930 . S
C1978 C1976 1.358 . S
C1978 N1979 1.279 . S
C1978 H2019 0.930 . S
N1979 C1977 1.314 . S
N1979 C1978 1.279 . S
C1980 C1982 1.353 1_565 S
C1980 N1983 1.314 . S
C1980 H1986 0.930 . S
C1981 N1983 1.279 1_545 S
C1981 C1984 1.358 . S
C1981 H1987 0.930 . S
C1982 C1980 1.353 1_545 S
C1982 C1985 1.348 . S
C1982 H2020 0.929 . S
N1983 Li1938 1.990 . S
N1983 C1980 1.314 . S
N1983 C1981 1.279 1_565 S
C1984 C1981 1.358 . S
C1984 C1985 1.356 . S
C1984 H2021 0.930 . S
C1985 C1982 1.348 . S
C1985 C1984 1.356 . S
H1986 C1980 0.930 . S
H1987 C1981 0.930 . S
C1988 N1989 1.314 . S
C1988 C1990 1.353 . S
C1988 H1994 0.930 . S
N1989 Li1939 1.990 . S
N1989 C1988 1.314 . S
N1989 C1992 1.279 . S
C1990 C1988 1.353 . S
C1990 C1993 1.348 . S
C1990 H2022 0.929 . S
C1991 C1992 1.358 . S
C1991 C1993 1.356 . S
C1991 H2023 0.930 . S
C1992 N1989 1.279 . S
C1992 C1991 1.358 . S
C1992 H1995 0.930 . S
C1993 C1990 1.348 . S
C1993 C1991 1.356 . S
H1994 C1988 0.930 . S
H1995 C1992 0.930 . S
O1996 Li1936 1.956 . S
O1996 Li1937 1.970 . S
O1996 Li1938 1.961 . S
O1996 C1940 1.325 . S
O1997 Li1936 1.970 . S
O1997 Li1937 1.956 . S
O1997 Li1939 1.961 . S
O1997 C1946 1.325 . S
O1998 Li1936 1.961 . S
O1998 Li1938 1.956 . S
O1998 Li1939 1.970 . S
O1998 C1968 1.325 . S
O1999 Li1937 1.961 . S
O1999 Li1938 1.970 . S
O1999 Li1939 1.956 . S
O1999 C1974 1.325 . S
H2000 C1942 0.929 . S
H2001 C1943 0.930 . S
H2002 C1944 0.930 . S
H2003 C1945 0.930 . S
H2004 C1947 0.930 . S
H2005 C1949 0.929 . S
H2006 C1950 0.930 . S
H2007 C1951 0.930 . S
H2008 C1954 0.930 . S
H2009 C1957 0.929 . S
H2010 C1962 0.929 . S
H2011 C1963 0.930 . S
H2012 C1970 0.929 . S
H2013 C1971 0.930 . S
H2014 C1972 0.930 1_565 S
H2015 C1973 0.930 . S
H2016 C1975 0.929 . S
H2017 C1976 0.930 . S
H2018 C1977 0.930 . S
H2019 C1978 0.930 . S
H2020 C1982 0.929 . S
H2021 C1984 0.930 . S
H2022 C1990 0.929 . S
H2023 C1991 0.930 . S
Li2024 N2041 1.990 1_545 S
Li2024 O2084 1.956 . S
Li2024 O2085 1.970 . S
Li2024 O2086 1.961 . S
Li2025 N2049 1.990 . S
Li2025 O2084 1.970 . S
Li2025 O2085 1.956 . S
Li2025 O2087 1.961 . S
Li2026 N2071 1.990 . S
Li2026 O2084 1.961 . S
Li2026 O2086 1.956 . S
Li2026 O2087 1.970 . S
Li2027 N2077 1.990 . S
Li2027 O2085 1.961 . S
Li2027 O2086 1.970 . S
Li2027 O2087 1.956 . S
C2028 C2030 1.348 . S
C2028 C2031 1.356 1_545 S
C2028 O2084 1.325 . S
N2029 C2032 1.314 1_565 S
N2029 C2033 1.279 . S
C2030 C2028 1.348 . S
C2030 C2032 1.353 . S
C2030 H2088 0.929 . S
C2031 C2028 1.356 1_565 S
C2031 C2033 1.358 . S
C2031 H2089 0.930 . S
C2032 N2029 1.314 1_545 S
C2032 C2030 1.353 . S
C2032 H2090 0.930 . S
C2033 N2029 1.279 . S
C2033 C2031 1.358 . S
C2033 H2091 0.930 . S
C2034 C2037 1.348 . S
C2034 C2038 1.356 . S
C2034 O2085 1.325 . S
C2035 N2036 1.279 . S
C2035 C2038 1.358 . S
C2035 H2092 0.930 . S
N2036 C2035 1.279 . S
N2036 C2039 1.314 . S
C2037 C2034 1.348 . S
C2037 C2039 1.353 . S
C2037 H2093 0.929 . S
C2038 C2034 1.356 . S
C2038 C2035 1.358 . S
C2038 H2094 0.930 . S
C2039 N2036 1.314 . S
C2039 C2037 1.353 . S
C2039 H2095 0.930 . S
C2040 N2041 1.314 . S
C2040 C2045 1.353 . S
C2040 H2046 0.930 . S
N2041 Li2024 1.990 1_565 S
N2041 C2040 1.314 . S
N2041 C2043 1.279 . S
C2042 C2043 1.358 . S
C2042 C2044 1.356 . S
C2042 H2096 0.930 . S
C2043 N2041 1.279 . S
C2043 C2042 1.358 . S
C2043 H2047 0.930 . S
C2044 C2042 1.356 . S
C2044 C2045 1.348 . S
C2045 C2040 1.353 . S
C2045 C2044 1.348 . S
C2045 H2097 0.929 . S
H2046 C2040 0.930 . S
H2047 C2043 0.930 . S
C2048 N2049 1.314 . S
C2048 C2050 1.353 . S
C2048 H2054 0.930 . S
N2049 Li2025 1.990 . S
N2049 C2048 1.314 . S
N2049 C2052 1.279 . S
C2050 C2048 1.353 . S
C2050 C2053 1.348 . S
C2050 H2098 0.929 . S
C2051 C2052 1.358 . S
C2051 C2053 1.356 . S
C2051 H2099 0.930 . S
C2052 N2049 1.279 . S
C2052 C2051 1.358 . S
C2052 H2055 0.930 . S
C2053 C2050 1.348 . S
C2053 C2051 1.356 . S
H2054 C2048 0.930 . S
H2055 C2052 0.930 . S
C2056 C2058 1.348 . S
C2056 C2059 1.356 1_545 S
C2056 O2086 1.325 . S
N2057 C2060 1.314 . S
N2057 C2061 1.279 . S
C2058 C2056 1.348 . S
C2058 C2060 1.353 1_545 S
C2058 H2100 0.929 . S
C2059 C2056 1.356 1_565 S
C2059 C2061 1.358 . S
C2059 H2101 0.930 . S
C2060 N2057 1.314 . S
C2060 C2058 1.353 1_565 S
C2060 H2102 0.930 1_565 S
C2061 N2057 1.279 . S
C2061 C2059 1.358 . S
C2061 H2103 0.930 . S
C2062 C2063 1.348 . S
C2062 C2064 1.356 . S
C2062 O2087 1.325 . S
C2063 C2062 1.348 . S
C2063 C2065 1.353 . S
C2063 H2104 0.929 . S
C2064 C2062 1.356 . S
C2064 C2066 1.358 . S
C2064 H2105 0.930 . S
C2065 C2063 1.353 . S
C2065 N2067 1.314 . S
C2065 H2106 0.930 . S
C2066 C2064 1.358 . S
C2066 N2067 1.279 . S
C2066 H2107 0.930 . S
N2067 C2065 1.314 . S
N2067 C2066 1.279 . S
C2068 C2070 1.353 1_545 S
C2068 N2071 1.314 . S
C2068 H2074 0.930 . S
C2069 N2071 1.279 1_565 S
C2069 C2072 1.358 . S
C2069 H2075 0.930 . S
C2070 C2068 1.353 1_565 S
C2070 C2073 1.348 . S
C2070 H2108 0.929 . S
N2071 Li2026 1.990 . S
N2071 C2068 1.314 . S
N2071 C2069 1.279 1_545 S
C2072 C2069 1.358 . S
C2072 C2073 1.356 . S
C2072 H2109 0.930 . S
C2073 C2070 1.348 . S
C2073 C2072 1.356 . S
H2074 C2068 0.930 . S
H2075 C2069 0.930 . S
C2076 N2077 1.314 . S
C2076 C2078 1.353 . S
C2076 H2082 0.930 . S
N2077 Li2027 1.990 . S
N2077 C2076 1.314 . S
N2077 C2080 1.279 . S
C2078 C2076 1.353 . S
C2078 C2081 1.348 . S
C2078 H2110 0.929 . S
C2079 C2080 1.358 . S
C2079 C2081 1.356 . S
C2079 H2111 0.930 . S
C2080 N2077 1.279 . S
C2080 C2079 1.358 . S
C2080 H2083 0.930 . S
C2081 C2078 1.348 . S
C2081 C2079 1.356 . S
H2082 C2076 0.930 . S
H2083 C2080 0.930 . S
O2084 Li2024 1.956 . S
O2084 Li2025 1.970 . S
O2084 Li2026 1.961 . S
O2084 C2028 1.325 . S
O2085 Li2024 1.970 . S
O2085 Li2025 1.956 . S
O2085 Li2027 1.961 . S
O2085 C2034 1.325 . S
O2086 Li2024 1.961 . S
O2086 Li2026 1.956 . S
O2086 Li2027 1.970 . S
O2086 C2056 1.325 . S
O2087 Li2025 1.961 . S
O2087 Li2026 1.970 . S
O2087 Li2027 1.956 . S
O2087 C2062 1.325 . S
H2088 C2030 0.929 . S
H2089 C2031 0.930 . S
H2090 C2032 0.930 . S
H2091 C2033 0.930 . S
H2092 C2035 0.930 . S
H2093 C2037 0.929 . S
H2094 C2038 0.930 . S
H2095 C2039 0.930 . S
H2096 C2042 0.930 . S
H2097 C2045 0.929 . S
H2098 C2050 0.929 . S
H2099 C2051 0.930 . S
H2100 C2058 0.929 . S
H2101 C2059 0.930 . S
H2102 C2060 0.930 1_545 S
H2103 C2061 0.930 . S
H2104 C2063 0.929 . S
H2105 C2064 0.930 . S
H2106 C2065 0.930 . S
H2107 C2066 0.930 . S
H2108 C2070 0.929 . S
H2109 C2072 0.930 . S
H2110 C2078 0.929 . S
H2111 C2079 0.930 . S
C849 C57 3.812 . S
C117 C900 4.213 . S
C225 C988 3.816 . S
C293 C753 4.214 . S
C381 C1349 3.817 . S
C1085 C497 4.216 . S
C548 C1193 3.814 . S
C1281 C665 4.215 . S
C1465 C1604 4.213 . S
C1985 C1516 4.216 . S
C1692 C2073 4.213 . S
C1897 C1780 4.216 . S
C1817 C20 1.847 . S
C108 C1525 1.849 1_565 S
C205 C1641 1.847 1_556 S
C284 C1701 1.849 1_545 S
C401 C2053 1.847 . S
C1905 C489 1.849 . S
C1965 C585 1.847 1_556 S
C1457 C673 1.849 . S
C1369 C733 1.847 . S
C812 C1105 1.847 1_455 S
C1173 C937 1.847 1_655 S
C1261 C1025 1.847 . S
C49 C1428 2.157 . S
C2044 C145 2.336 . S
C1877 C233 2.159 . S
C321 C1956 2.337 . S
C372 C1553 2.160 . S
C1633 C469 2.337 . S
C1729 C557 2.158 . S
C1809 C636 2.337 . S
C29 C761 2.261 . S
C137 C841 2.156 . S
C196 C909 2.261 . S
C313 C997 2.158 . S
C409 C1076 2.263 . S
C460 C1201 2.158 . S
C1289 C577 2.261 . S
C645 C1340 2.159 . S
C724 C1437 2.337 . S
C1545 C1113 2.338 . S
C1164 C1613 2.260 . S
C1721 C1252 2.337 . S
C1789 C1377 2.262 . S
C1868 C929 2.337 . S
C1017 C1993 2.262 . S
C2081 C821 2.260 . S
