# Generated by pormake.
# Topology yfl, (5)-cn, num edge types: 1
# Building blocks:
#     Node 0, Type 0, BuildingBlock: BEQFEK_clean_sbu_0, # of connection points: 5
#     Node 1, Type 0, BuildingBlock: BEQFEK_clean_sbu_0, # of connection points: 5
#     Node 2, Type 0, BuildingBlock: BEQFEK_clean_sbu_0, # of connection points: 5
#     Node 3, Type 0, BuildingBlock: BEQFEK_clean_sbu_0, # of connection points: 5
#     Node 4, Type 0, BuildingBlock: BEQFEK_clean_sbu_0, # of connection points: 5
#     Node 5, Type 0, BuildingBlock: BEQFEK_clean_sbu_0, # of connection points: 5
#     Node 6, Type 0, BuildingBlock: BEQFEK_clean_sbu_0, # of connection points: 5
#     Node 7, Type 0, BuildingBlock: BEQFEK_clean_sbu_0, # of connection points: 5
#     Node 8, Type 0, BuildingBlock: BEQFEK_clean_sbu_0, # of connection points: 5
#     Node 9, Type 0, BuildingBlock: BEQFEK_clean_sbu_0, # of connection points: 5
#     Node 10, Type 0, BuildingBlock: BEQFEK_clean_sbu_0, # of connection points: 5
#     Node 11, Type 0, BuildingBlock: BEQFEK_clean_sbu_0, # of connection points: 5
#     Node 12, Type 0, BuildingBlock: BEQFEK_clean_sbu_0, # of connection points: 5
#     Node 13, Type 0, BuildingBlock: BEQFEK_clean_sbu_0, # of connection points: 5
#     Node 14, Type 0, BuildingBlock: BEQFEK_clean_sbu_0, # of connection points: 5
#     Node 15, Type 0, BuildingBlock: BEQFEK_clean_sbu_0, # of connection points: 5
#     Edge 16, Type (0, 0), BuildingBlock: XUDNAN_clean_linker_2, # of connection points: 2
#     Edge 17, Type (0, 0), BuildingBlock: XUDNAN_clean_linker_2, # of connection points: 2
#     Edge 18, Type (0, 0), BuildingBlock: XUDNAN_clean_linker_2, # of connection points: 2
#     Edge 19, Type (0, 0), BuildingBlock: XUDNAN_clean_linker_2, # of connection points: 2
#     Edge 20, Type (0, 0), BuildingBlock: XUDNAN_clean_linker_2, # of connection points: 2
#     Edge 21, Type (0, 0), BuildingBlock: XUDNAN_clean_linker_2, # of connection points: 2
#     Edge 22, Type (0, 0), BuildingBlock: XUDNAN_clean_linker_2, # of connection points: 2
#     Edge 23, Type (0, 0), BuildingBlock: XUDNAN_clean_linker_2, # of connection points: 2
#     Edge 24, Type (0, 0), BuildingBlock: XUDNAN_clean_linker_2, # of connection points: 2
#     Edge 25, Type (0, 0), BuildingBlock: XUDNAN_clean_linker_2, # of connection points: 2
#     Edge 26, Type (0, 0), BuildingBlock: XUDNAN_clean_linker_2, # of connection points: 2
#     Edge 27, Type (0, 0), BuildingBlock: XUDNAN_clean_linker_2, # of connection points: 2
#     Edge 28, Type (0, 0), BuildingBlock: XUDNAN_clean_linker_2, # of connection points: 2
#     Edge 29, Type (0, 0), BuildingBlock: XUDNAN_clean_linker_2, # of connection points: 2
#     Edge 30, Type (0, 0), BuildingBlock: XUDNAN_clean_linker_2, # of connection points: 2
#     Edge 31, Type (0, 0), BuildingBlock: XUDNAN_clean_linker_2, # of connection points: 2
#     Edge 32, Type (0, 0), BuildingBlock: XUDNAN_clean_linker_2, # of connection points: 2
#     Edge 33, Type (0, 0), BuildingBlock: XUDNAN_clean_linker_2, # of connection points: 2
#     Edge 34, Type (0, 0), BuildingBlock: XUDNAN_clean_linker_2, # of connection points: 2
#     Edge 35, Type (0, 0), BuildingBlock: XUDNAN_clean_linker_2, # of connection points: 2
#     Edge 36, Type (0, 0), BuildingBlock: XUDNAN_clean_linker_2, # of connection points: 2
#     Edge 37, Type (0, 0), BuildingBlock: XUDNAN_clean_linker_2, # of connection points: 2
#     Edge 38, Type (0, 0), BuildingBlock: XUDNAN_clean_linker_2, # of connection points: 2
#     Edge 39, Type (0, 0), BuildingBlock: XUDNAN_clean_linker_2, # of connection points: 2
#     Edge 40, Type (0, 0), BuildingBlock: XUDNAN_clean_linker_2, # of connection points: 2
#     Edge 41, Type (0, 0), BuildingBlock: XUDNAN_clean_linker_2, # of connection points: 2
#     Edge 42, Type (0, 0), BuildingBlock: XUDNAN_clean_linker_2, # of connection points: 2
#     Edge 43, Type (0, 0), BuildingBlock: XUDNAN_clean_linker_2, # of connection points: 2
#     Edge 44, Type (0, 0), BuildingBlock: XUDNAN_clean_linker_2, # of connection points: 2
#     Edge 45, Type (0, 0), BuildingBlock: XUDNAN_clean_linker_2, # of connection points: 2
#     Edge 46, Type (0, 0), BuildingBlock: XUDNAN_clean_linker_2, # of connection points: 2
#     Edge 47, Type (0, 0), BuildingBlock: XUDNAN_clean_linker_2, # of connection points: 2
#     Edge 48, Type (0, 0), BuildingBlock: XUDNAN_clean_linker_2, # of connection points: 2
#     Edge 49, Type (0, 0), BuildingBlock: XUDNAN_clean_linker_2, # of connection points: 2
#     Edge 50, Type (0, 0), BuildingBlock: XUDNAN_clean_linker_2, # of connection points: 2
#     Edge 51, Type (0, 0), BuildingBlock: XUDNAN_clean_linker_2, # of connection points: 2
#     Edge 52, Type (0, 0), BuildingBlock: XUDNAN_clean_linker_2, # of connection points: 2
#     Edge 53, Type (0, 0), BuildingBlock: XUDNAN_clean_linker_2, # of connection points: 2
#     Edge 54, Type (0, 0), BuildingBlock: XUDNAN_clean_linker_2, # of connection points: 2
#     Edge 55, Type (0, 0), BuildingBlock: XUDNAN_clean_linker_2, # of connection points: 2
# Relax obj value: 0.265
# Max RMSD: 0.177
# Mean RMSD: 0.177
data_MOF--net-yfl--node1-BEQFEK_clean_sbu_0--edge1-XUDNAN_clean_linker_2
_symmetry_space_group_name_H-M    P1
_symmetry_Int_Tables_number       1
_symmetry_cell_setting            triclinic
loop_
_symmetry_equiv_pos_as_xyz
'x, y, z'
_cell_length_a     30.134124
_cell_length_b     30.077012
_cell_length_c     113.91442
_cell_angle_alpha  89.954119
_cell_angle_beta   89.947793
_cell_angle_gamma 89.952764
loop_
_atom_site_label
_atom_site_type_symbol
_atom_site_fract_x
_atom_site_fract_y
_atom_site_fract_z
_atom_type_partial_charge
Co0 Co 0.02302 0.25987 0.28951 0.0
Co1 Co 0.10934 0.27158 0.30429 0.0
C2 C 0.04145 0.34104 0.30475 0.0
O3 O 0.01968 0.31921 0.29712 0.0
O4 O 0.07724 0.32601 0.30912 0.0
C5 C 0.92944 0.26303 0.2875 0.0
O6 O 0.93248 0.27603 0.29848 0.0
C7 C 0.17037 0.27409 0.32441 0.0
C8 C 0.23097 0.24535 0.31652 0.0
C9 C 0.21327 0.26008 0.32707 0.0
N10 N 0.16316 0.26695 0.31292 0.0
N11 N 0.1998 0.25071 0.30821 0.0
C12 C 0.13496 0.28933 0.33273 0.0
H13 H 0.10166 0.28589 0.32869 0.0
H14 H 0.1361 0.26983 0.341 0.0
H15 H 0.14042 0.32488 0.33487 0.0
C16 C 0.0224 0.17279 0.3014 0.0
N17 N 0.03843 0.21423 0.30005 0.0
N18 N 0.07398 0.21923 0.30661 0.0
C19 C 0.08072 0.18137 0.31272 0.0
C20 C 0.04859 0.15039 0.30953 0.0
C21 C 0.98687 0.15352 0.29375 0.0
H22 H 0.98716 0.16979 0.28502 0.0
H23 H 0.95407 0.15956 0.29789 0.0
H24 H 0.99141 0.11721 0.29255 0.0
O25 O 0.06715 0.2622 0.27699 0.0
O26 O 0.12761 0.27766 0.28737 0.0
H27 H 0.14962 0.17492 0.317 0.0
H28 H 0.11302 0.14394 0.32663 0.0
C29 C 0.11703 0.17506 0.32153 0.0
H30 H 0.11635 0.20284 0.32784 0.0
H31 H 0.20285 0.24141 0.29943 0.0
O32 O 0.96442 0.25091 0.28215 0.0
C33 C 0.10822 0.27145 0.27756 0.0
Co34 Co 0.28594 -0.00098 0.70304 0.0
Co35 Co 0.28266 0.90317 0.69237 0.0
C36 C 0.35463 0.96809 0.68602 0.0
O37 O 0.33847 0.99796 0.69268 0.0
O38 O 0.33639 0.93004 0.6851 0.0
C39 C 0.31006 0.08623 0.71084 0.0
O40 O 0.34762 0.07718 0.70549 0.0
C41 C 0.27101 0.83941 0.67337 0.0
C42 C 0.25638 0.77721 0.68296 0.0
C43 C 0.26112 0.79468 0.67175 0.0
N44 N 0.27208 0.84768 0.68494 0.0
N45 N 0.26358 0.81037 0.69064 0.0
C46 C 0.27581 0.87494 0.66425 0.0
H47 H 0.26858 0.90807 0.66809 0.0
H48 H 0.25321 0.86865 0.65674 0.0
H49 H 0.31051 0.8752 0.66099 0.0
C50 C 0.19487 0.00117 0.69426 0.0
N51 N 0.23497 0.98183 0.6948 0.0
N52 N 0.23228 0.94097 0.69074 0.0
C53 C 0.18984 0.93287 0.68767 0.0
C54 C 0.16484 0.97087 0.68975 0.0
C55 C 0.18413 0.04503 0.69977 0.0
H56 H 0.1871 0.04206 0.70945 0.0
H57 H 0.20831 0.07038 0.69675 0.0
H58 H 0.15001 0.05606 0.69752 0.0
O59 O 0.29404 0.95877 0.71663 0.0
O60 O 0.2939 0.89058 0.7092 0.0
H61 H 0.18397 0.86321 0.69128 0.0
H62 H 0.1354 0.88743 0.68441 0.0
C63 C 0.17221 0.88775 0.6847 0.0
H64 H 0.18505 0.87764 0.67598 0.0
H65 H 0.26213 0.80769 0.69977 0.0
O66 O 0.27839 0.05851 0.71022 0.0
C67 C 0.29672 0.91683 0.71792 0.0
Co68 Co 0.96751 0.72976 0.28917 0.0
Co69 Co 0.89204 0.73261 0.3081 0.0
C70 C 0.94783 0.65217 0.30515 0.0
O71 O 0.9678 0.67028 0.29655 0.0
O72 O 0.91819 0.67275 0.31098 0.0
C73 C 0.05285 0.70838 0.27956 0.0
O74 O 0.0547 0.67991 0.2883 0.0
C75 C 0.84669 0.72725 0.33082 0.0
C76 C 0.79291 0.77667 0.32881 0.0
C77 C 0.81122 0.74661 0.33665 0.0
N78 N 0.84915 0.74486 0.32 0.0
N79 N 0.81682 0.77428 0.31883 0.0
C80 C 0.88014 0.6955 0.33574 0.0
H81 H 0.91369 0.70383 0.33238 0.0
H82 H 0.88045 0.69642 0.34548 0.0
H83 H 0.87184 0.6613 0.33283 0.0
C84 C 0.99534 0.8107 0.30136 0.0
N85 N 0.96843 0.77537 0.30033 0.0
N86 N 0.93723 0.77723 0.30839 0.0
C87 C 0.94401 0.81377 0.31504 0.0
C88 C 0.98112 0.83613 0.3108 0.0
C89 C 0.03051 0.82216 0.29255 0.0
H90 H 0.01797 0.81579 0.28356 0.0
H91 H 0.05986 0.80057 0.29403 0.0
H92 H 0.04071 0.85748 0.29312 0.0
O93 O 0.91458 0.73533 0.27948 0.0
O94 O 0.8599 0.73117 0.29256 0.0
H95 H 0.88328 0.83884 0.32209 0.0
H96 H 0.93179 0.85324 0.3306 0.0
C97 C 0.91586 0.82674 0.32531 0.0
H98 H 0.9101 0.79737 0.33098 0.0
H99 H 0.81144 0.79312 0.31127 0.0
O100 O 0.01918 0.73349 0.27852 0.0
C101 C 0.87352 0.73394 0.28197 0.0
Co102 Co 0.71685 0.0148 0.70271 0.0
Co103 Co 0.73439 0.10017 0.68769 0.0
C104 C 0.65819 0.0376 0.68287 0.0
O105 O 0.66986 0.01117 0.69099 0.0
O106 O 0.67903 0.07363 0.68084 0.0
C107 C 0.69722 0.92477 0.7095 0.0
O108 O 0.68246 0.92084 0.6987 0.0
C109 C 0.76357 0.14223 0.66599 0.0
C110 C 0.76571 0.21338 0.67077 0.0
C111 C 0.7723 0.1842 0.66152 0.0
N112 N 0.75276 0.14635 0.67737 0.0
N113 N 0.75432 0.18892 0.68021 0.0
C114 C 0.7617 0.0993 0.65937 0.0
H115 H 0.74464 0.07332 0.66461 0.0
H116 H 0.79589 0.08774 0.65745 0.0
H117 H 0.74437 0.10418 0.65087 0.0
C118 C 0.80913 0.99662 0.69666 0.0
N119 N 0.77203 0.0208 0.6954 0.0
N120 N 0.7811 0.05769 0.68967 0.0
C121 C 0.82514 0.05885 0.68749 0.0
C122 C 0.84425 0.02007 0.69184 0.0
C123 C 0.81092 0.95277 0.70287 0.0
H124 H 0.78328 0.93148 0.69979 0.0
H125 H 0.84273 0.93526 0.70122 0.0
H126 H 0.80676 0.95815 0.71244 0.0
O127 O 0.70645 0.06576 0.71339 0.0
O128 O 0.71954 0.12696 0.70305 0.0
H129 H 0.88411 0.09962 0.68632 0.0
H130 H 0.85008 0.09847 0.67338 0.0
C131 C 0.84936 0.09905 0.68311 0.0
H132 H 0.83225 0.12977 0.68601 0.0
H133 H 0.74673 0.20135 0.68852 0.0
O134 O 0.71434 0.96131 0.71275 0.0
C135 C 0.70879 0.10795 0.71262 0.0
Co136 Co 0.98185 0.23102 0.95095 0.0
Co137 Co 0.07034 0.23601 0.93664 0.0
C138 C -0.0013 0.16753 0.93191 0.0
O139 O 0.97166 0.18458 0.9392 0.0
O140 O 0.03786 0.1827 0.93062 0.0
C141 C 0.92215 0.19756 0.9663 0.0
O142 O 0.94371 0.16251 0.96242 0.0
C143 C 0.12424 0.23361 0.91533 0.0
C144 C 0.18552 0.26829 0.92073 0.0
C145 C 0.16556 0.24684 0.91139 0.0
N146 N 0.11971 0.2465 0.92655 0.0
N147 N 0.15653 0.26709 0.92975 0.0
C148 C 0.08907 0.21024 0.90843 0.0
H149 H 0.05594 0.22376 0.91076 0.0
H150 H 0.09469 0.21392 0.89885 0.0
H151 H 0.08962 0.17433 0.91068 0.0
C152 C 0.97839 0.32536 0.94484 0.0
N153 N 0.99609 0.2847 0.94361 0.0
N154 N 0.03294 0.28737 0.93743 0.0
C155 C 0.03956 0.33027 0.93446 0.0
C156 C 0.00538 0.35568 0.93913 0.0
C157 C 0.93954 0.33543 0.95258 0.0
H158 H 0.94937 0.33072 0.96189 0.0
H159 H 0.91222 0.31184 0.95066 0.0
H160 H 0.92766 0.37005 0.95131 0.0
O161 O 0.0301 0.21403 0.96167 0.0
O162 O 0.09429 0.22222 0.95246 0.0
H163 H 0.10893 0.34423 0.93509 0.0
H164 H 0.07751 0.38301 0.92631 0.0
C165 C 0.08097 0.34753 0.92883 0.0
H166 H 0.08869 0.32764 0.92089 0.0
H167 H 0.16199 0.28008 0.93812 0.0
O168 O 0.93041 0.2351 0.96167 0.0
C169 C 0.07224 0.21285 0.96166 0.0
Co170 Co 0.20469 0.00753 0.04667 0.0
Co171 Co 0.224 0.91214 0.05639 0.0
C172 C 0.14569 0.96707 0.06448 0.0
O173 O 0.15635 6e-05 0.05808 0.0
O174 O 0.1685 0.93139 0.06445 0.0
C175 C 0.16306 0.07658 0.03517 0.0
O176 O 0.12922 0.05108 0.03793 0.0
C177 C 0.24352 0.85179 0.07557 0.0
C178 C 0.26137 0.78944 0.06648 0.0
C179 C 0.25503 0.80761 0.07755 0.0
N180 N 0.24255 0.85891 0.06394 0.0
N181 N 0.25342 0.82164 0.05853 0.0
C182 C 0.23546 0.88777 0.08439 0.0
H183 H 0.24281 0.92077 0.08048 0.0
H184 H 0.25627 0.88266 0.09231 0.0
H185 H 0.19997 0.88748 0.08699 0.0
C186 C 0.2965 0.02204 0.05382 0.0
N187 N 0.25971 0.99699 0.05366 0.0
N188 N 0.26918 0.95657 0.05731 0.0
C189 C 0.31291 0.95448 0.05977 0.0
C190 C 0.33167 0.99597 0.05759 0.0
C191 C 0.29824 0.06905 0.04953 0.0
H192 H 0.26892 0.08759 0.05281 0.0
H193 H 0.329 0.08596 0.05248 0.0
H194 H 0.29703 0.06921 0.03979 0.0
O195 O 0.19795 0.96661 0.0333 0.0
O196 O 0.21052 0.89803 0.03972 0.0
H197 H 0.32539 0.88549 0.05646 0.0
H198 H 0.3734 0.91584 0.06158 0.0
C199 C 0.33695 0.91211 0.06246 0.0
H200 H 0.32905 0.90178 0.07157 0.0
H201 H 0.25473 0.818 0.04943 0.0
O202 O 0.20118 0.06648 0.0391 0.0
C203 C 0.20105 0.92505 0.03149 0.0
Co204 Co 0.9695 0.80649 0.95281 0.0
Co205 Co 0.8833 0.78165 0.939 0.0
C206 C 0.93962 0.8628 0.93335 0.0
O207 O 0.96902 0.8531 0.94091 0.0
O208 O 0.90498 0.83901 0.9321 0.0
C209 C 0.05714 0.83464 0.95963 0.0
O210 O 0.05857 0.85241 0.94909 0.0
C211 C 0.8443 0.75204 0.91713 0.0
C212 C 0.7728 0.74782 0.92127 0.0
C213 C 0.80323 0.74318 0.91222 0.0
N214 N 0.83856 0.76109 0.92857 0.0
N215 N 0.7958 0.75818 0.93104 0.0
C216 C 0.88775 0.75644 0.91086 0.0
H217 H 0.91289 0.77245 0.91656 0.0
H218 H 0.90002 0.72299 0.90836 0.0
H219 H 0.88338 0.77606 0.90268 0.0
C220 C 0.99285 0.71465 0.94683 0.0
N221 N 0.96613 0.75019 0.94582 0.0
N222 N 0.9293 0.73858 0.94046 0.0
C223 C 0.93085 0.69462 0.93819 0.0
C224 C 0.97132 0.67808 0.94211 0.0
C225 C 0.03719 0.71563 0.95273 0.0
H226 H 0.05597 0.74524 0.94974 0.0
H227 H 0.05677 0.68527 0.95075 0.0
H228 H 0.03238 0.71837 0.96236 0.0
O229 O 0.9188 0.8154 0.96363 0.0
O230 O 0.85715 0.79313 0.95468 0.0
H231 H 0.8934 0.63329 0.93755 0.0
H232 H 0.89157 0.66661 0.92446 0.0
C233 C 0.89178 0.66787 0.93418 0.0
H234 H 0.86044 0.68338 0.93722 0.0
H235 H 0.78217 0.76474 0.93928 0.0
O236 O 0.02315 0.81253 0.96269 0.0
C237 C 0.87713 0.80834 0.96366 0.0
Co238 Co 0.77937 0.00909 0.05092 0.0
Co239 Co 0.77392 0.09488 0.06624 0.0
C240 C 0.84105 0.02102 0.07043 0.0
O241 O 0.82444 0.99554 0.06272 0.0
O242 O 0.82591 0.06003 0.07218 0.0
C243 C 0.77253 0.91889 0.03946 0.0
O244 O 0.76405 0.89831 0.04938 0.0
C245 C 0.75298 0.13512 0.08878 0.0
C246 C 0.75817 0.20704 0.08506 0.0
C247 C 0.74933 0.17672 0.09392 0.0
N248 N 0.76297 0.14059 0.07738 0.0
N249 N 0.766 0.18364 0.07519 0.0
C250 C 0.75021 0.09075 0.0947 0.0
H251 H 0.76662 0.09202 0.10341 0.0
H252 H 0.76569 0.06459 0.08919 0.0
H253 H 0.71491 0.0818 0.09608 0.0
C254 C 0.68358 0.00666 0.05603 0.0
N255 N 0.72454 0.02284 0.05787 0.0
N256 N 0.7218 0.05948 0.06415 0.0
C257 C 0.67865 0.06799 0.06639 0.0
C258 C 0.65322 0.03446 0.06145 0.0
C259 C 0.67339 0.96855 0.04804 0.0
H260 H 0.68874 0.9745 0.03933 0.0
H261 H 0.68793 0.93782 0.05178 0.0
H262 H 0.63715 0.96352 0.04698 0.0
O263 O 0.79845 0.05994 0.04121 0.0
O264 O 0.79053 0.1228 0.0511 0.0
H265 H 0.68152 0.13909 0.06788 0.0
H266 H 0.62616 0.11621 0.06909 0.0
C267 C 0.66163 0.11092 0.0713 0.0
H268 H 0.66475 0.1103 0.08099 0.0
H269 H 0.77393 0.19702 0.067 0.0
O270 O 0.77759 0.96079 0.03922 0.0
C271 C 0.80067 0.10212 0.04173 0.0
Co272 Co 0.51389 0.77837 0.7938 0.0
Co273 Co 0.60652 0.77703 0.80642 0.0
C274 C 0.54203 0.85149 0.80981 0.0
O275 O 0.51389 0.83311 0.80311 0.0
O276 O 0.57989 0.83428 0.8118 0.0
C277 C 0.42239 0.79619 0.7891 0.0
O278 O 0.42364 0.81535 0.79946 0.0
C279 C 0.66231 0.76698 0.82716 0.0
C280 C 0.72728 0.74909 0.81949 0.0
C281 C 0.70555 0.75516 0.83012 0.0
N282 N 0.65891 0.7675 0.8154 0.0
N283 N 0.69794 0.75727 0.81086 0.0
C284 C 0.62346 0.77385 0.83516 0.0
H285 H 0.59186 0.76974 0.83029 0.0
H286 H 0.62459 0.75009 0.84261 0.0
H287 H 0.62445 0.8082 0.83869 0.0
C288 C 0.50459 0.69225 0.80557 0.0
N289 N 0.52698 0.72996 0.80346 0.0
N290 N 0.56635 0.72792 0.80845 0.0
C291 C 0.57044 0.68794 0.81375 0.0
C292 C 0.53131 0.66437 0.81218 0.0
C293 C 0.4591 0.68287 0.80094 0.0
H294 H 0.4376 0.71237 0.80229 0.0
H295 H 0.44395 0.65365 0.80534 0.0
H296 H 0.4612 0.67654 0.79136 0.0
O297 O 0.55802 0.78153 0.78109 0.0
O298 O 0.62417 0.78293 0.78968 0.0
H299 H 0.61308 0.63324 0.81879 0.0
H300 H 0.61605 0.68156 0.828 0.0
C301 C 0.61274 0.67013 0.8188 0.0
H302 H 0.64152 0.68227 0.81367 0.0
H303 H 0.70423 0.75473 0.80187 0.0
O304 O 0.45605 0.77442 0.7856 0.0
C305 C 0.6001 0.78335 0.7805 0.0
Co306 Co 0.76051 0.47798 0.21183 0.0
Co307 Co 0.75464 0.3875 0.1983 0.0
C308 C 0.83074 0.45045 0.19467 0.0
O309 O 0.81519 0.47851 0.20199 0.0
O310 O 0.81051 0.41422 0.19249 0.0
C311 C 0.76918 0.57235 0.21674 0.0
O312 O 0.78527 0.57537 0.20605 0.0
C313 C 0.7461 0.33048 0.17766 0.0
C314 C 0.72312 0.26729 0.18549 0.0
C315 C 0.73342 0.2873 0.17485 0.0
N316 N 0.74327 0.33544 0.18935 0.0
N317 N 0.72986 0.29751 0.194 0.0
C318 C 0.75743 0.3678 0.16949 0.0
H319 H 0.75194 0.40033 0.17386 0.0
H320 H 0.73714 0.36593 0.16138 0.0
H321 H 0.79302 0.36548 0.16706 0.0
C322 C 0.67306 0.49106 0.20055 0.0
N323 N 0.70992 0.46692 0.20253 0.0
N324 N 0.70676 0.42864 0.19699 0.0
C325 C 0.66752 0.42722 0.19132 0.0
C326 C 0.64517 0.46682 0.19332 0.0
C327 C 0.66535 0.53668 0.20537 0.0
H328 H 0.66619 0.53538 0.2151 0.0
H329 H 0.6925 0.55889 0.20242 0.0
H330 H 0.63322 0.55082 0.20243 0.0
O331 O 0.76535 0.43229 0.22427 0.0
O332 O 0.76313 0.36804 0.21473 0.0
H333 H 0.65822 0.35675 0.18979 0.0
H334 H 0.61354 0.38946 0.18374 0.0
C335 C 0.65005 0.38752 0.1849 0.0
H336 H 0.6657 0.3858 0.1761 0.0
H337 H 0.72466 0.29247 0.20296 0.0
O338 O 0.75574 0.53492 0.22048 0.0
C339 C 0.76627 0.39001 0.22422 0.0
Co340 Co 0.48229 0.23392 0.79275 0.0
Co341 Co 0.39483 0.23605 0.80776 0.0
C342 C 0.45836 0.15903 0.80874 0.0
O343 O 0.48482 0.17753 0.80153 0.0
O344 O 0.42214 0.17766 0.81177 0.0
C345 C 0.56854 0.21304 0.78364 0.0
O346 O 0.56738 0.18123 0.79153 0.0
C347 C 0.34023 0.23 0.8289 0.0
C348 C 0.28216 0.2715 0.82438 0.0
C349 C 0.30025 0.24563 0.83321 0.0
N350 N 0.34566 0.24569 0.81796 0.0
N351 N 0.31071 0.27029 0.81527 0.0
C352 C 0.37418 0.20316 0.83535 0.0
H353 H 0.40806 0.21305 0.83256 0.0
H354 H 0.37077 0.2075 0.84499 0.0
H355 H 0.36939 0.16751 0.83323 0.0
C356 C 0.49686 0.31882 0.80484 0.0
N357 N 0.47327 0.28159 0.80305 0.0
N358 N 0.43692 0.28285 0.80946 0.0
C359 C 0.43649 0.32109 0.81563 0.0
C360 C 0.47443 0.34506 0.81288 0.0
C361 C 0.53898 0.32972 0.79849 0.0
H362 H 0.5316 0.33496 0.78905 0.0
H363 H 0.56226 0.30125 0.79919 0.0
H364 H 0.55498 0.35996 0.80212 0.0
O365 O 0.43388 0.23105 0.78121 0.0
O366 O 0.37135 0.23343 0.79145 0.0
H367 H 0.36841 0.33957 0.81747 0.0
H368 H 0.40518 0.36893 0.82724 0.0
C369 C 0.39841 0.3364 0.82304 0.0
H370 H 0.3916 0.31133 0.82994 0.0
H371 H 0.30659 0.28663 0.80726 0.0
O372 O 0.53695 0.241 0.78321 0.0
C373 C 0.39172 0.23125 0.78167 0.0
Co374 Co 0.21153 0.5115 0.20071 0.0
Co375 Co 0.21074 0.59538 0.18437 0.0
C376 C 0.13786 0.52667 0.18399 0.0
O377 O 0.15751 0.50228 0.19146 0.0
O378 O 0.15395 0.56376 0.18067 0.0
C379 C 0.20681 0.42053 0.20794 0.0
O380 O 0.19235 0.41442 0.19719 0.0
C381 C 0.22283 0.63611 0.16133 0.0
C382 C 0.22671 0.70767 0.16558 0.0
C383 C 0.22888 0.67775 0.15635 0.0
N384 N 0.21803 0.64113 0.17298 0.0
N385 N 0.22015 0.68399 0.17547 0.0
C386 C 0.21906 0.59242 0.15512 0.0
H387 H 0.20233 0.56754 0.16079 0.0
H388 H 0.25259 0.5797 0.15295 0.0
H389 H 0.20047 0.59656 0.14678 0.0
C390 C 0.30064 0.50135 0.19067 0.0
N391 N 0.26077 0.52133 0.19097 0.0
N392 N 0.26176 0.55741 0.18442 0.0
C393 C 0.30309 0.5621 0.17999 0.0
C394 C 0.32879 0.52647 0.18371 0.0
C395 C 0.31202 0.46041 0.19752 0.0
H396 H 0.28696 0.43434 0.19575 0.0
H397 H 0.34531 0.44736 0.19518 0.0
H398 H 0.31101 0.46814 0.20704 0.0
O399 O 0.20288 0.56304 0.21128 0.0
O400 O 0.20391 0.62319 0.19996 0.0
H401 H 0.35624 0.60733 0.1755 0.0
H402 H 0.314 0.60117 0.16456 0.0
C403 C 0.32 0.60337 0.17413 0.0
H404 H 0.30273 0.63307 0.17762 0.0
H405 H 0.21745 0.69705 0.18392 0.0
O406 O 0.21909 0.45915 0.21106 0.0
C407 C 0.20075 0.6051 0.21004 0.0
Co408 Co 0.49966 0.70298 0.45337 0.0
Co409 Co 0.58983 0.72163 0.44058 0.0
C410 C 0.5331 0.64091 0.43541 0.0
O411 O 0.50257 0.65278 0.44245 0.0
O412 O 0.56839 0.6637 0.43424 0.0
C413 C 0.43497 0.66213 0.46678 0.0
O414 O 0.45924 0.62782 0.46363 0.0
C415 C 0.64424 0.72839 0.41958 0.0
C416 C 0.70268 0.7666 0.42544 0.0
C417 C 0.68465 0.74487 0.41586 0.0
N418 N 0.63847 0.73938 0.4309 0.0
N419 N 0.67346 0.76242 0.43436 0.0
C420 C 0.61099 0.7036 0.41237 0.0
H421 H 0.57684 0.71215 0.41525 0.0
H422 H 0.61488 0.71145 0.4029 0.0
H423 H 0.61614 0.66738 0.4136 0.0
C424 C 0.48042 0.79318 0.44553 0.0
N425 N 0.50588 0.75662 0.44532 0.0
N426 N 0.54404 0.76578 0.44024 0.0
C427 C 0.54408 0.80907 0.43713 0.0
C428 C 0.5038 0.82792 0.44048 0.0
C429 C 0.43654 0.79574 0.45166 0.0
H430 H 0.41607 0.7665 0.44926 0.0
H431 H 0.41847 0.82668 0.44933 0.0
H432 H 0.44197 0.79485 0.4613 0.0
O433 O 0.54626 0.69938 0.46545 0.0
O434 O 0.6114 0.71245 0.45696 0.0
H435 H 0.57758 0.86888 0.43119 0.0
H436 H 0.59612 0.8175 0.42457 0.0
C437 C 0.58435 0.83316 0.43282 0.0
H438 H 0.61118 0.83011 0.43943 0.0
H439 H 0.67773 0.77467 0.44285 0.0
O440 O 0.44419 0.70008 0.46254 0.0
C441 C 0.58814 0.70383 0.46603 0.0
Co442 Co 0.71953 0.48305 0.545 0.0
Co443 Co 0.7418 0.39293 0.55754 0.0
C444 C 0.66402 0.45087 0.56466 0.0
O445 O 0.67336 0.48096 0.55719 0.0
O446 O 0.68724 0.41555 0.56549 0.0
C447 C 0.69151 0.57177 0.53819 0.0
O448 O 0.67138 0.57302 0.54842 0.0
C449 C 0.76659 0.34075 0.57804 0.0
C450 C 0.78559 0.27617 0.57029 0.0
C451 C 0.78111 0.2982 0.58092 0.0
N452 N 0.76244 0.34334 0.56633 0.0
N453 N 0.77385 0.3047 0.56173 0.0
C454 C 0.75904 0.37952 0.58603 0.0
H455 H 0.76329 0.41118 0.58114 0.0
H456 H 0.78233 0.37853 0.59357 0.0
H457 H 0.7245 0.37841 0.5894 0.0
C458 C 0.81229 0.50168 0.55105 0.0
N459 N 0.77604 0.47583 0.55158 0.0
N460 N 0.78631 0.43765 0.55653 0.0
C461 C 0.82991 0.43771 0.55914 0.0
C462 C 0.84777 0.47838 0.55576 0.0
C463 C 0.81287 0.54717 0.54572 0.0
H464 H 0.78326 0.56604 0.54868 0.0
H465 H 0.84329 0.56568 0.5482 0.0
H466 H 0.81129 0.54418 0.53602 0.0
O467 O 0.70861 0.43575 0.53345 0.0
O468 O 0.72595 0.37129 0.54168 0.0
H469 H 0.8428 0.36761 0.5587 0.0
H470 H 0.89104 0.4009 0.56187 0.0
C471 C 0.85482 0.39763 0.56334 0.0
H472 H 0.84866 0.39311 0.57287 0.0
H473 H 0.77346 0.29776 0.55276 0.0
O474 O 0.71492 0.53811 0.53554 0.0
C475 C 0.71251 0.39371 0.5329 0.0
Co476 Co 0.4889 0.27549 0.44866 0.0
Co477 Co 0.39837 0.27061 0.43562 0.0
C478 C 0.47073 0.33707 0.42949 0.0
O479 O 0.49871 0.31994 0.43647 0.0
O480 O 0.43109 0.32263 0.42884 0.0
C481 C 0.55701 0.30791 0.46199 0.0
O482 O 0.53693 0.34432 0.45844 0.0
C483 C 0.35376 0.25009 0.41395 0.0
C484 C 0.28284 0.26036 0.41808 0.0
C485 C 0.31176 0.24943 0.40906 0.0
N486 N 0.34997 0.26039 0.42535 0.0
N487 N 0.30751 0.2663 0.42782 0.0
C488 C 0.39723 0.24539 0.40768 0.0
H489 H 0.42498 0.25714 0.41326 0.0
H490 H 0.40309 0.20992 0.40554 0.0
H491 H 0.39657 0.26434 0.39932 0.0
C492 C 0.49045 0.1807 0.44322 0.0
N493 N 0.47268 0.22132 0.44201 0.0
N494 N 0.43391 0.2182 0.43678 0.0
C495 C 0.42534 0.17487 0.43473 0.0
C496 C 0.46112 0.14985 0.43867 0.0
C497 C 0.53239 0.17142 0.44981 0.0
H498 H 0.5264 0.17641 0.45933 0.0
H499 H 0.55851 0.19515 0.44701 0.0
H500 H 0.54407 0.13686 0.44832 0.0
O501 O 0.44225 0.29565 0.45974 0.0
O502 O 0.37627 0.28741 0.45137 0.0
H503 H 0.35411 0.17812 0.43457 0.0
H504 H 0.3765 0.12228 0.43374 0.0
C505 C 0.38117 0.15729 0.43092 0.0
H506 H 0.37914 0.15846 0.42121 0.0
H507 H 0.29551 0.27558 0.43606 0.0
O508 O 0.54294 0.27068 0.45831 0.0
C509 C 0.40007 0.29801 0.46017 0.0
Co510 Co 0.29327 0.48364 0.5529 0.0
Co511 Co 0.2877 0.57291 0.56682 0.0
C512 C 0.35825 0.50262 0.57131 0.0
O513 O 0.34121 0.47475 0.56426 0.0
O514 O 0.34201 0.54144 0.57263 0.0
C515 C 0.3255 0.42645 0.53666 0.0
O516 O 0.36009 0.45033 0.53974 0.0
C517 C 0.26893 0.6183 0.5888 0.0
C518 C 0.27095 0.68918 0.58371 0.0
C519 C 0.26461 0.66104 0.59321 0.0
N520 N 0.27691 0.62105 0.57723 0.0
N521 N 0.27801 0.66347 0.57422 0.0
C522 C 0.26847 0.57548 0.59551 0.0
H523 H 0.2849 0.54872 0.59041 0.0
H524 H 0.23364 0.56532 0.59714 0.0
H525 H 0.28516 0.57965 0.60412 0.0
C526 C 0.19926 0.47986 0.55902 0.0
N527 N 0.2399 0.49722 0.56046 0.0
N528 N 0.23675 0.53537 0.56605 0.0
C529 C 0.19354 0.54381 0.56819 0.0
C530 C 0.16848 0.50874 0.56387 0.0
C531 C 0.18973 0.44044 0.55144 0.0
H532 H 0.19437 0.44986 0.5421 0.0
H533 H 0.21346 0.41332 0.5535 0.0
H534 H 0.15522 0.42845 0.55273 0.0
O535 O 0.30805 0.53252 0.54204 0.0
O536 O 0.30018 0.59731 0.55103 0.0
H537 H 0.19458 0.61512 0.56763 0.0
H538 H 0.14016 0.59163 0.57027 0.0
C539 C 0.17614 0.58805 0.5721 0.0
H540 H 0.18128 0.59152 0.58169 0.0
H541 H 0.28413 0.67487 0.56571 0.0
O542 O 0.28928 0.43206 0.54219 0.0
C543 C 0.30884 0.57476 0.54187 0.0
H544 H 0.16903 0.33591 0.2727 0.0
H545 H 0.0991 0.22444 0.25735 0.0
H546 H 0.12961 0.24358 0.23786 0.0
H547 H 0.1427 0.40879 0.25114 0.0
H548 H 0.19408 0.43945 0.25112 0.0
H549 H 0.17646 0.41106 0.26419 0.0
H550 H 0.25073 0.36759 0.26477 0.0
H551 H 0.26875 0.39614 0.25168 0.0
H552 H 0.26815 0.33624 0.25209 0.0
H553 H 0.1571 0.281 0.21987 0.0
H554 H 0.17626 0.3358 0.20459 0.0
H555 H 0.22601 0.42518 0.23142 0.0
C556 C 0.16182 0.31453 0.2653 0.0
C557 C 0.13253 0.27826 0.2665 0.0
C558 C 0.12199 0.25205 0.25658 0.0
C559 C 0.13932 0.26256 0.24551 0.0
C560 C 0.16688 0.29955 0.2445 0.0
C561 C 0.17813 0.32518 0.25414 0.0
C562 C 0.20243 0.36699 0.25043 0.0
C563 C 0.1774 0.40902 0.25445 0.0
C564 C 0.25037 0.3667 0.25502 0.0
C565 C 0.20122 0.36185 0.23721 0.0
C566 C 0.18162 0.32219 0.23398 0.0
C567 C 0.17327 0.31178 0.22227 0.0
C568 C 0.18419 0.3432 0.21365 0.0
C569 C 0.20268 0.38477 0.2168 0.0
C570 C 0.21242 0.3935 0.22871 0.0
H571 H 0.41427 0.76871 0.76625 0.0
H572 H 0.35395 0.85479 0.79236 0.0
H573 H 0.30794 0.88923 0.77697 0.0
H574 H 0.42658 0.84633 0.74505 0.0
H575 H 0.4137 0.81149 0.73265 0.0
H576 H 0.43547 0.78711 0.74585 0.0
H577 H 0.36767 0.73448 0.74722 0.0
H578 H 0.34591 0.75817 0.73387 0.0
H579 H 0.3124 0.75744 0.74698 0.0
H580 H 0.28053 0.92435 0.75856 0.0
H581 H 0.26685 0.95207 0.73847 0.0
H582 H 0.34197 0.8415 0.72422 0.0
C583 C 0.39022 0.79366 0.76881 0.0
C584 C 0.38779 0.80905 0.78052 0.0
C585 C 0.35634 0.84225 0.78347 0.0
C586 C 0.33004 0.86209 0.77478 0.0
C587 C 0.33499 0.8478 0.76322 0.0
C588 C 0.36356 0.81363 0.76025 0.0
C589 C 0.36555 0.80722 0.74706 0.0
C590 C 0.41314 0.81343 0.74239 0.0
C591 C 0.34675 0.76162 0.74358 0.0
C592 C 0.33536 0.84453 0.74306 0.0
C593 C 0.31787 0.86736 0.75253 0.0
C594 C 0.29296 0.90601 0.75107 0.0
C595 C 0.28567 0.9217 0.73965 0.0
C596 C 0.30295 0.89859 0.72983 0.0
C597 C 0.32753 0.85918 0.73157 0.0
H598 H 0.75079 0.57272 0.24026 0.0
H599 H 0.79547 0.65762 0.21181 0.0
H600 H 0.81124 0.7173 0.22604 0.0
H601 H 0.70517 0.66455 0.2599 0.0
H602 H 0.72512 0.63638 0.27284 0.0
H603 H 0.70712 0.60466 0.26028 0.0
H604 H 0.78315 0.56435 0.2597 0.0
H605 H 0.8012 0.59571 0.2722 0.0
H606 H 0.8333 0.59687 0.25884 0.0
H607 H 0.83722 0.76027 0.24321 0.0
H608 H 0.87235 0.78229 0.26188 0.0
H609 H 0.8094 0.6714 0.27946 0.0
C610 C 0.76237 0.60443 0.23696 0.0
C611 C 0.77172 0.61056 0.2249 0.0
C612 C 0.78784 0.65219 0.22099 0.0
C613 C 0.79665 0.68641 0.22901 0.0
C614 C 0.78869 0.67868 0.24091 0.0
C615 C 0.7715 0.63879 0.24487 0.0
C616 C 0.77199 0.63634 0.25816 0.0
C617 C 0.72452 0.63544 0.26308 0.0
C618 C 0.79904 0.59597 0.26247 0.0
C619 C 0.79483 0.67981 0.26105 0.0
C620 C 0.8032 0.70425 0.25098 0.0
C621 C 0.82956 0.7423 0.25119 0.0
C622 C 0.84934 0.75463 0.26182 0.0
C623 C 0.84247 0.72915 0.2721 0.0
C624 C 0.81346 0.69243 0.27181 0.0
H625 H 0.61828 0.14156 0.77712 0.0
H626 H 0.58852 0.27803 0.7676 0.0
H627 H 0.63101 0.26874 0.74919 0.0
H628 H 0.73069 0.1343 0.76291 0.0
H629 H 0.72036 0.078 0.75824 0.0
H630 H 0.696 0.0984 0.77166 0.0
H631 H 0.6181 0.07629 0.76404 0.0
H632 H 0.64203 0.05641 0.75058 0.0
H633 H 0.59902 0.09807 0.75018 0.0
H634 H 0.66747 0.24133 0.73068 0.0
H635 H 0.69382 0.19803 0.7136 0.0
H636 H 0.69667 0.07889 0.73514 0.0
C637 C 0.6221 0.17005 0.77139 0.0
C638 C 0.60054 0.21066 0.77383 0.0
C639 C 0.60512 0.24671 0.76592 0.0
C640 C 0.62926 0.24176 0.75546 0.0
C641 C 0.64859 0.2006 0.75308 0.0
C642 C 0.64548 0.16544 0.76087 0.0
C643 C 0.6642 0.12314 0.75566 0.0
C644 C 0.70526 0.10756 0.76253 0.0
C645 C 0.62871 0.08635 0.75508 0.0
C646 C 0.67672 0.13953 0.74356 0.0
C647 C 0.66837 0.18446 0.74229 0.0
C648 C 0.6748 0.20628 0.73162 0.0
C649 C 0.68968 0.18139 0.72197 0.0
C650 C 0.69725 0.13506 0.72302 0.0
C651 C 0.69132 0.11426 0.73403 0.0
H652 H 0.08625 0.10491 0.02498 0.0
H653 H 0.22928 0.12074 0.02337 0.0
H654 H 0.22147 0.1633 0.00493 0.0
H655 H 0.07019 0.08358 0.99584 0.0
H656 H 0.01849 0.11331 0.99443 0.0
H657 H 0.03445 0.09069 0.00841 0.0
H658 H 0.02732 0.1685 0.01797 0.0
H659 H 0.01055 0.1912 0.00402 0.0
H660 H 0.05702 0.21491 0.01176 0.0
H661 H 0.19856 0.19425 0.98516 0.0
H662 H 0.16173 0.21649 0.96662 0.0
H663 H 0.03419 0.18026 0.9816 0.0
C664 C 0.11588 0.11843 0.02095 0.0
C665 C 0.15835 0.10954 0.02562 0.0
C666 C 0.19634 0.12741 0.02 0.0
C667 C 0.19225 0.15152 0.0095 0.0
C668 C 0.14995 0.15791 0.00484 0.0
C669 C 0.11237 0.14253 0.01052 0.0
C670 C 0.07101 0.15083 0.00333 0.0
C671 C 0.04718 0.107 0.00032 0.0
C672 C 0.03964 0.18332 0.00965 0.0
C673 C 0.09136 0.17185 0.99254 0.0
C674 C 0.13683 0.176 0.99357 0.0
C675 C 0.16286 0.19193 0.98434 0.0
C676 C 0.14173 0.20421 0.97383 0.0
C677 C 0.09509 0.20037 0.97267 0.0
C678 C 0.06985 0.18415 0.98222 0.0
H679 H 0.0641 0.80258 0.98209 0.0
H680 H 0.12773 0.89103 0.95708 0.0
H681 H 0.179 0.91634 0.97254 0.0
H682 H 0.06342 0.87467 0.00528 0.0
H683 H 0.07469 0.83414 0.01655 0.0
H684 H 0.04791 0.81733 0.00318 0.0
H685 H 0.10921 0.75842 -0.00041 0.0
H686 H 0.13615 0.77486 0.01303 0.0
H687 H 0.16662 0.77523 0.9994 0.0
H688 H 0.21374 0.94145 0.99112 0.0
H689 H 0.23312 0.96143 0.0115 0.0
H690 H 0.15019 0.85452 0.02451 0.0
C691 C 0.0896 0.82639 0.97977 0.0
C692 C 0.09194 0.84481 0.96836 0.0
C693 C 0.12542 0.87627 0.96573 0.0
C694 C 0.15476 0.89082 0.97446 0.0
C695 C 0.15061 0.87307 0.98571 0.0
C696 C 0.1193 0.84106 0.98836 0.0
C697 C 0.11929 0.83017 0.00136 0.0
C698 C 0.07363 0.83967 0.00691 0.0
C699 C 0.13369 0.78179 0.00347 0.0
C700 C 0.15413 0.86249 0.00569 0.0
C701 C 0.17198 0.88666 0.99648 0.0
C702 C 0.20102 0.92193 0.99836 0.0
C703 C 0.21168 0.93314 0.00994 0.0
C704 C 0.19373 0.90889 0.01947 0.0
C705 C 0.16536 0.87256 0.01732 0.0
H706 H 0.89331 0.8757 0.97879 0.0
H707 H 0.80513 0.76421 0.97282 0.0
H708 H 0.76808 0.77915 0.99191 0.0
H709 H 0.90768 0.8619 0.00932 0.0
H710 H 0.90749 0.9206 0.01249 0.0
H711 H 0.92615 0.90113 0.99839 0.0
H712 H 0.86843 0.95179 0.98801 0.0
H713 H 0.85029 0.9717 0.00212 0.0
H714 H 0.81072 0.94785 0.99208 0.0
H715 H 0.74506 0.80401 0.01266 0.0
H716 H 0.73199 0.84221 0.03173 0.0
H717 H 0.83235 0.93961 0.0227 0.0
C718 C 0.86604 0.85454 0.98147 0.0
C719 C 0.85216 0.81864 0.97444 0.0
C720 C 0.81605 0.79197 0.97813 0.0
C721 C 0.79505 0.80009 0.98896 0.0
C722 C 0.81013 0.83547 0.9958 0.0
C723 C 0.84427 0.86275 0.99205 0.0
C724 C 0.85395 0.89916 0.00079 0.0
C725 C 0.90163 0.89544 0.00552 0.0
C726 C 0.84529 0.94534 0.99542 0.0
C727 C 0.82023 0.888 0.01013 0.0
C728 C 0.79554 0.85088 0.00725 0.0
C729 C 0.76379 0.83346 0.01492 0.0
C730 C 0.75674 0.85509 0.02573 0.0
C731 C 0.78081 0.89398 0.02855 0.0
C732 C 0.81296 0.9103 0.02066 0.0
H733 H 0.83028 0.06643 0.02121 0.0
H734 H 0.80293 0.19295 0.03808 0.0
H735 H 0.82581 0.23215 0.0199 0.0
H736 H 0.92714 0.10022 0.00615 0.0
H737 H 0.91553 0.06684 0.99338 0.0
H738 H 0.89518 0.04981 0.00753 0.0
H739 H 0.81452 0.0477 0.99931 0.0
H740 H 0.83543 0.06419 0.98515 0.0
H741 H 0.79235 0.09628 0.99215 0.0
H742 H 0.85402 0.25697 -0.00028 0.0
H743 H 0.88894 0.26499 0.98013 0.0
H744 H 0.8964 0.12133 0.97714 0.0
C745 C 0.82877 0.10241 0.02113 0.0
C746 C 0.81464 0.12662 0.03108 0.0
C747 C 0.81363 0.17369 0.03057 0.0
C748 C 0.82637 0.1962 0.02027 0.0
C749 C 0.83993 0.17108 0.01061 0.0
C750 C 0.84133 0.12519 0.01102 0.0
C751 C 0.85864 0.10557 -0.00029 0.0
C752 C 0.90167 0.07908 0.00183 0.0
C753 C 0.82312 0.07674 0.99373 0.0
C754 C 0.86734 0.1476 0.99285 0.0
C755 C 0.85606 0.18514 0.99918 0.0
C756 C 0.86269 0.22777 0.99467 0.0
C757 C 0.88232 0.232 0.98352 0.0
C758 C 0.89526 0.19378 0.9771 0.0
C759 C 0.88671 0.15122 0.98178 0.0
H760 H 0.66866 0.83776 0.77442 0.0
H761 H 0.57497 0.74257 0.76034 0.0
H762 H 0.60057 0.75969 0.74024 0.0
H763 H 0.64702 0.91778 0.75421 0.0
H764 H 0.70265 0.93926 0.75296 0.0
H765 H 0.68542 0.91213 0.76625 0.0
H766 H 0.75094 0.85663 0.76446 0.0
H767 H 0.7686 0.88386 0.75115 0.0
H768 H 0.75782 0.82492 0.75116 0.0
H769 H 0.62747 0.79463 0.72183 0.0
H770 H 0.65057 0.84753 0.70645 0.0
H771 H 0.72447 0.92277 0.7324 0.0
C772 C 0.65499 0.8193 0.76711 0.0
C773 C 0.62055 0.78832 0.76885 0.0
C774 C 0.60182 0.76607 0.75911 0.0
C775 C 0.6163 0.77541 0.74769 0.0
C776 C 0.6493 0.80732 0.74618 0.0
C777 C 0.66846 0.82899 0.75562 0.0
C778 C 0.69809 0.86662 0.75155 0.0
C779 C 0.68232 0.91157 0.75654 0.0
C780 C 0.74675 0.85744 0.75477 0.0
C781 C 0.691 0.86395 0.73842 0.0
C782 C 0.6637 0.82881 0.73548 0.0
C783 C 0.64954 0.82178 0.72398 0.0
C784 C 0.66276 0.85207 0.7153 0.0
C785 C 0.6893 0.88927 0.71822 0.0
C786 C 0.70448 0.89444 0.72987 0.0
H787 H 0.81448 0.31443 0.22736 0.0
H788 H 0.73869 0.41419 0.24612 0.0
H789 H 0.76077 0.38014 0.26499 0.0
H790 H 0.80104 0.22006 0.24917 0.0
H791 H 0.85773 0.20273 0.247 0.0
H792 H 0.82713 0.22743 0.23506 0.0
H793 H 0.88866 0.28689 0.23255 0.0
H794 H 0.91929 0.26242 0.24442 0.0
H795 H 0.90439 0.32044 0.24498 0.0
H796 H 0.79942 0.343 0.28158 0.0
H797 H 0.85724 0.31164 0.29443 0.0
H798 H 0.91148 0.23851 0.26489 0.0
C799 C 0.80117 0.32793 0.23545 0.0
C800 C 0.77431 0.36635 0.23534 0.0
C801 C 0.75897 0.38443 0.24606 0.0
C802 C 0.77106 0.36511 0.2568 0.0
C803 C 0.79874 0.32794 0.25664 0.0
C804 C 0.81379 0.30963 0.24623 0.0
C805 C 0.84908 0.27475 0.24844 0.0
C806 C 0.83275 0.22849 0.2447 0.0
C807 C 0.89292 0.28689 0.24224 0.0
C808 C 0.85319 0.27794 0.26165 0.0
C809 C 0.82282 0.30768 0.26626 0.0
C810 C 0.82284 0.31906 0.27811 0.0
C811 C 0.85584 0.30101 0.28536 0.0
C812 C 0.88892 0.27268 0.28065 0.0
C813 C 0.88639 0.25975 0.26875 0.0
H814 H 0.37715 0.14176 0.7174 0.0
H815 H 0.23912 0.11081 0.7245 0.0
H816 H 0.24137 0.15861 0.74207 0.0
H817 H 0.41314 0.13028 0.74468 0.0
H818 H 0.45325 0.17471 0.74467 0.0
H819 H 0.43794 0.14868 0.73111 0.0
H820 H 0.41521 0.22502 0.72243 0.0
H821 H 0.43101 0.25157 0.73599 0.0
H822 H 0.37593 0.25942 0.73018 0.0
H823 H 0.263 0.19546 0.76089 0.0
H824 H 0.30172 0.21928 0.77893 0.0
H825 H 0.42544 0.22626 0.75947 0.0
C826 C 0.34685 0.14649 0.72236 0.0
C827 C 0.30801 0.12256 0.71957 0.0
C828 C 0.26928 0.12894 0.72644 0.0
C829 C 0.27019 0.15617 0.73643 0.0
C830 C 0.30984 0.1773 0.73933 0.0
C831 C 0.34731 0.17335 0.73237 0.0
C832 C 0.38737 0.19405 0.73819 0.0
C833 C 0.42509 0.15988 0.73976 0.0
C834 C 0.4033 0.23496 0.73129 0.0
C835 C 0.36735 0.20743 0.74984 0.0
C836 C 0.32237 0.19859 0.75025 0.0
C837 C 0.29795 0.20363 0.76058 0.0
C838 C 0.32026 0.21704 0.7708 0.0
C839 C 0.36663 0.22469 0.77063 0.0
C840 C 0.38991 0.22114 0.7599 0.0
H841 H 0.19274 0.57765 0.23283 0.0
H842 H 0.18441 0.69491 0.21068 0.0
H843 H 0.15654 0.73825 0.22753 0.0
H844 H 0.09496 0.59221 0.24688 0.0
H845 H 0.11271 0.57274 0.26109 0.0
H846 H 0.1403 0.55331 0.24809 0.0
H847 H 0.21578 0.58027 0.25629 0.0
H848 H 0.18841 0.59966 0.2694 0.0
H849 H 0.222 0.63728 0.26087 0.0
H850 H 0.11709 0.76474 0.24548 0.0
H851 H 0.07107 0.77271 0.26331 0.0
H852 H 0.10688 0.6389 0.27392 0.0
C853 C 0.18633 0.61277 0.23158 0.0
C854 C 0.19078 0.63286 0.22043 0.0
C855 C 0.18145 0.67879 0.21915 0.0
C856 C 0.16573 0.70374 0.22868 0.0
C857 C 0.16017 0.68244 0.23946 0.0
C858 C 0.17074 0.63809 0.24099 0.0
C859 C 0.15734 0.62176 0.25305 0.0
C860 C 0.12437 0.58274 0.25222 0.0
C861 C 0.19834 0.609 0.26033 0.0
C862 C 0.1354 0.6632 0.25784 0.0
C863 C 0.13798 0.69807 0.24995 0.0
C864 C 0.11583 0.73811 0.25186 0.0
C865 C 0.08963 0.74227 0.26198 0.0
C866 C 0.08586 0.70657 0.27002 0.0
C867 C 0.11008 0.66711 0.26807 0.0
H868 H 0.71681 0.5708 0.51507 0.0
H869 H 0.64206 0.64773 0.54057 0.0
H870 H 0.61625 0.69739 0.52473 0.0
H871 H 0.74631 0.66543 0.49506 0.0
H872 H 0.7392 0.63138 0.48219 0.0
H873 H 0.75797 0.60668 0.49573 0.0
H874 H 0.69314 0.55023 0.49486 0.0
H875 H 0.67404 0.57478 0.4814 0.0
H876 H 0.63697 0.57047 0.49377 0.0
H877 H 0.58871 0.73018 0.5061 0.0
H878 H 0.56313 0.74562 0.48591 0.0
H879 H 0.65708 0.64946 0.47231 0.0
C880 C 0.69612 0.59891 0.5174 0.0
C881 C 0.68163 0.60552 0.52909 0.0
C882 C 0.65379 0.64213 0.5317 0.0
C883 C 0.63905 0.6706 0.52276 0.0
C884 C 0.65277 0.66224 0.51128 0.0
C885 C 0.68104 0.62754 0.50858 0.0
C886 C 0.68718 0.62299 0.49541 0.0
C887 C 0.73555 0.63218 0.49189 0.0
C888 C 0.67191 0.57691 0.49112 0.0
C889 C 0.6566 0.65951 0.4911 0.0
C890 C 0.63743 0.68199 0.50042 0.0
C891 C 0.60439 0.71375 0.49874 0.0
C892 C 0.59003 0.72224 0.48727 0.0
C893 C 0.60897 0.69943 0.47763 0.0
C894 C 0.64331 0.66839 0.47954 0.0
H895 H 0.59271 0.38282 0.47141 0.0
H896 H 0.59624 0.23888 0.47397 0.0
H897 H 0.64422 0.24472 0.49152 0.0
H898 H 0.70718 0.40411 0.48217 0.0
H899 H 0.68954 0.45313 0.48999 0.0
H900 H 0.66162 0.43697 0.47668 0.0
H901 H 0.58653 0.43677 0.48782 0.0
H902 H 0.61424 0.45243 0.50115 0.0
H903 H 0.5805 0.40298 0.5008 0.0
H904 H 0.68355 0.26703 0.51028 0.0
H905 H 0.71203 0.30378 0.52819 0.0
H906 H 0.68187 0.43257 0.51287 0.0
C907 C 0.60444 0.35243 0.47546 0.0
C908 C 0.59085 0.31042 0.47132 0.0
C909 C 0.60652 0.27146 0.47696 0.0
C910 C 0.63378 0.27445 0.48693 0.0
C911 C 0.64534 0.31657 0.49101 0.0
C912 C 0.6315 0.35484 0.48535 0.0
C913 C 0.64501 0.39612 0.49199 0.0
C914 C 0.6778 0.42422 0.48478 0.0
C915 C 0.60414 0.42365 0.49566 0.0
C916 C 0.66741 0.37515 0.50247 0.0
C917 C 0.6678 0.3293 0.50174 0.0
C918 C 0.68412 0.30294 0.51085 0.0
C919 C 0.7001 0.32408 0.52099 0.0
C920 C 0.69929 0.37105 0.52194 0.0
C921 C 0.68334 0.39663 0.51243 0.0
H922 H 0.39822 0.41081 0.5231 0.0
H923 H 0.25725 0.38259 0.52549 0.0
H924 H 0.26047 0.3453 0.50612 0.0
H925 H 0.39923 0.43739 0.49305 0.0
H926 H 0.45283 0.41288 0.49026 0.0
H927 H 0.43993 0.43436 0.5046 0.0
H928 H 0.4585 0.35802 0.51399 0.0
H929 H 0.47216 0.33642 0.49969 0.0
H930 H 0.4313 0.30866 0.50864 0.0
H931 H 0.27912 0.3152 0.48571 0.0
H932 H 0.31237 0.29108 0.46685 0.0
H933 H 0.44059 0.33978 0.47847 0.0
C934 C 0.36805 0.39622 0.51968 0.0
C935 C 0.32751 0.39942 0.52584 0.0
C936 C 0.28877 0.38021 0.52096 0.0
C937 C 0.29025 0.35916 0.50995 0.0
C938 C 0.3307 0.35757 0.50399 0.0
C939 C 0.36893 0.3753 0.50877 0.0
C940 C 0.40803 0.37066 0.50055 0.0
C941 C 0.42603 0.41654 0.4969 0.0
C942 C 0.44464 0.3417 0.50605 0.0
C943 C 0.38597 0.34737 0.49037 0.0
C944 C 0.34134 0.34025 0.49244 0.0
C945 C 0.31412 0.32029 0.48406 0.0
C946 C 0.33322 0.30686 0.47336 0.0
C947 C 0.37911 0.31324 0.47121 0.0
C948 C 0.4055 0.33394 0.47986 0.0
H949 H 0.33878 0.53564 0.5218 0.0
H950 H 0.30475 0.6642 0.53665 0.0
H951 H 0.32489 0.70024 0.51783 0.0
H952 H 0.43342 0.57057 0.50685 0.0
H953 H 0.42514 0.53431 0.49445 0.0
H954 H 0.40362 0.51901 0.5086 0.0
H955 H 0.32517 0.51111 0.49964 0.0
H956 H 0.34633 0.52694 0.48544 0.0
H957 H 0.30081 0.55734 0.49187 0.0
H958 H 0.3534 0.72226 0.49776 0.0
H959 H 0.39328 0.72915 0.47889 0.0
H960 H 0.40861 0.5857 0.47761 0.0
C961 C 0.33491 0.57135 0.5211 0.0
C962 C 0.31996 0.59712 0.53069 0.0
C963 C 0.31608 0.6438 0.52941 0.0
C964 C 0.32716 0.66449 0.51874 0.0
C965 C 0.34189 0.63796 0.50948 0.0
C966 C 0.34592 0.5924 0.5106 0.0
C967 C 0.36574 0.57153 0.49972 0.0
C968 C 0.40958 0.54749 0.50258 0.0
C969 C 0.33251 0.53988 0.49382 0.0
C970 C 0.37339 0.61267 0.49237 0.0
C971 C 0.35876 0.6506 0.49804 0.0
C972 C 0.36456 0.69277 0.49319 0.0
C973 C 0.38714 0.69633 0.48245 0.0
C974 C 0.40404 0.65795 0.47678 0.0
C975 C 0.39585 0.61563 0.48168 0.0
H976 H 0.97538 0.09903 0.31412 0.0
H977 H 0.11855 0.09257 0.31056 0.0
H978 H 0.11653 0.01218 0.31448 0.0
H979 H 0.95947 0.00718 0.33553 0.0
H980 H 0.91108 0.98649 0.32802 0.0
H981 H 0.92393 0.04503 0.32763 0.0
H982 H 0.92321 0.04352 0.30487 0.0
H983 H 0.90996 0.98526 0.30521 0.0
H984 H 0.95804 0.00428 0.29723 0.0
H985 H 0.09924 0.93221 0.31703 0.0
H986 H 0.06735 0.85697 0.31499 0.0
H987 H 0.93506 0.91354 0.31415 0.0
C988 C 0.00633 0.08075 0.31437 0.0
C989 C 0.04727 0.10239 0.31247 0.0
C990 C 0.08698 0.07718 0.31256 0.0
C991 C 0.08616 0.03138 0.31472 0.0
C992 C 0.04524 0.01101 0.31649 0.0
C993 C 0.00594 0.0347 0.31612 0.0
C994 C 0.9662 0.00388 0.31638 0.0
C995 C 0.93854 0.01109 0.32756 0.0
C996 C 0.9377 0.00957 0.30526 0.0
C997 C 0.98937 0.95918 0.3166 0.0
C998 C 0.03494 0.96416 0.31704 0.0
C999 C 0.06361 0.92784 0.31675 0.0
C1000 C 0.04529 0.88534 0.31557 0.0
C1001 C -0.00107 0.87974 0.3144 0.0
C1002 C 0.97058 0.91697 0.31525 0.0
H1003 H 0.09922 0.98965 0.67393 0.0
H1004 H 0.12384 0.95672 0.71038 0.0
H1005 H 0.04387 0.96497 0.71478 0.0
H1006 H 0.01763 0.07288 0.67926 0.0
H1007 H 0.98311 0.05862 0.66691 0.0
H1008 H 0.04189 0.0479 0.66638 0.0
H1009 H 0.02685 0.96478 0.66192 0.0
H1010 H 0.968 0.97532 0.66233 0.0
H1011 H 0.99176 0.93314 0.67165 0.0
H1012 H 0.96365 0.98106 0.71552 0.0
H1013 H 0.88491 -0.00018 0.71239 0.0
H1014 H 0.91045 0.02068 0.67531 0.0
C1015 C 0.08733 0.98364 0.68276 0.0
C1016 C 0.1169 0.97237 0.69185 0.0
C1017 C 0.10105 0.96515 0.70337 0.0
C1018 C 0.05595 0.96984 0.70593 0.0
C1019 C 0.02744 0.98165 0.69684 0.0
C1020 C 0.04224 0.98814 0.68547 0.0
C1021 C 0.00443 0.0015 0.67743 0.0
C1022 C 0.01225 0.04799 0.67219 0.0
C1023 C 0.99734 0.96659 0.66776 0.0
C1024 C 0.96628 0.00181 0.6861 0.0
C1025 C 0.98049 0.99033 0.69723 0.0
C1026 C 0.95189 0.98943 0.70682 0.0
C1027 C 0.9073 -7e-05 0.70495 0.0
C1028 C 0.89176 0.01066 0.69358 0.0
C1029 C 0.92167 0.01215 0.68406 0.0
H1030 H 0.97064 0.61312 0.92535 0.0
H1031 H 0.99752 0.63701 0.9622 0.0
H1032 H 0.01422 0.55744 0.96502 0.0
H1033 H 0.91452 0.51136 0.92947 0.0
H1034 H 0.93611 0.48512 0.91644 0.0
H1035 H 0.93044 0.54467 0.917 0.0
H1036 H 0.01384 0.55358 0.91193 0.0
H1037 H 0.01977 0.49399 0.91133 0.0
H1038 H 0.05489 0.52617 0.92089 0.0
H1039 H 0.02257 0.47566 0.96426 0.0
H1040 H 0.02288 0.39515 0.95986 0.0
H1041 H 0.99017 0.42312 0.92356 0.0
C1042 C 0.98066 0.60147 0.93395 0.0
C1043 C 0.98371 0.63101 0.94352 0.0
C1044 C 0.9962 0.61492 0.95471 0.0
C1045 C 0.00548 0.56983 0.95641 0.0
C1046 C 0.00197 0.54142 0.94682 0.0
C1047 C 0.98998 0.55647 0.9358 0.0
C1048 C 0.98646 0.51844 0.92714 0.0
C1049 C 0.93906 0.51469 0.92223 0.0
C1050 C 0.02079 0.52335 0.91724 0.0
C1051 C 0.99756 0.47963 0.93509 0.0
C1052 C 0.00662 0.49378 0.94638 0.0
C1053 C 0.01598 0.46414 0.95544 0.0
C1054 C 0.01595 0.41869 0.95289 0.0
C1055 C 0.00661 0.40364 0.94141 0.0
C1056 C -0.00231 0.4343 0.93237 0.0
H1057 H 0.58632 0.01312 0.07657 0.0
H1058 H 0.61359 0.05762 0.04111 0.0
H1059 H 0.53335 0.05523 0.03652 0.0
H1060 H 0.50218 0.93584 0.06901 0.0
H1061 H 0.46789 0.94657 0.08167 0.0
H1062 H 0.52697 0.95489 0.0825 0.0
H1063 H 0.5146 0.03635 0.08915 0.0
H1064 H 0.45542 0.02819 0.08842 0.0
H1065 H 0.48092 0.07282 0.08029 0.0
H1066 H 0.45208 0.04404 0.03544 0.0
H1067 H 0.3728 0.02596 0.03796 0.0
H1068 H 0.39709 0.9885 0.07416 0.0
C1069 C 0.575 0.02288 0.06792 0.0
C1070 C 0.60537 0.03571 0.05916 0.0
C1071 C 0.59022 0.04787 0.04788 0.0
C1072 C 0.54495 0.0466 0.04522 0.0
C1073 C 0.51561 0.03312 0.05397 0.0
C1074 C 0.52984 0.02159 0.06511 0.0
C1075 C 0.49139 0.0066 0.07272 0.0
C1076 C 0.49749 0.95809 0.0767 0.0
C1077 C 0.48522 0.03787 0.08327 0.0
C1078 C 0.45351 0.01103 0.06408 0.0
C1079 C 0.46831 0.02659 0.05334 0.0
C1080 C 0.43993 0.03237 0.04384 0.0
C1081 C 0.39504 0.02219 0.04536 0.0
C1082 C 0.37912 0.00654 0.05629 0.0
C1083 C 0.40867 0.00071 0.06575 0.0
H1084 H 0.47667 0.41279 0.79735 0.0
H1085 H 0.49148 0.38209 0.83428 0.0
H1086 H 0.50729 0.46166 0.83843 0.0
H1087 H 0.56295 0.49351 0.79539 0.0
H1088 H 0.53306 0.52875 0.78532 0.0
H1089 H 0.52277 0.4698 0.78549 0.0
H1090 H 0.43897 0.48457 0.78898 0.0
H1091 H 0.44901 0.54359 0.78884 0.0
H1092 H 0.42191 0.51824 0.80127 0.0
H1093 H 0.5239 0.5445 0.83815 0.0
H1094 H 0.53675 0.62429 0.83364 0.0
H1095 H 0.509 0.59906 0.79694 0.0
C1096 C 0.48335 0.423 0.80629 0.0
C1097 C 0.4833 0.39195 0.81553 0.0
C1098 C 0.4916 0.40593 0.82715 0.0
C1099 C 0.50057 0.45081 0.82955 0.0
C1100 C 0.50063 0.48082 0.8202 0.0
C1101 C 0.49194 0.46745 0.80882 0.0
C1102 C 0.49362 0.50594 0.80033 0.0
C1103 C 0.53029 0.49908 0.79109 0.0
C1104 C 0.44817 0.51352 0.79451 0.0
C1105 C 0.505 0.54316 0.80866 0.0
C1106 C 0.50905 0.52816 0.82009 0.0
C1107 C 0.52047 0.55665 0.82926 0.0
C1108 C 0.52776 0.60167 0.82664 0.0
C1109 C 0.52318 0.61738 0.815 0.0
C1110 C 0.51182 0.58777 0.80594 0.0
H1111 H 0.57411 0.48715 0.20695 0.0
H1112 H 0.61562 0.47179 0.17078 0.0
H1113 H 0.53924 0.48953 0.16411 0.0
H1114 H 0.4693 0.43565 0.20366 0.0
H1115 H 0.44102 0.47212 0.21374 0.0
H1116 H 0.49941 0.46139 0.21551 0.0
H1117 H 0.51553 0.54603 0.21471 0.0
H1118 H 0.45711 0.55704 0.21298 0.0
H1119 H 0.49618 0.57814 0.20236 0.0
H1120 H 0.45772 0.5076 0.16158 0.0
H1121 H 0.37655 0.52023 0.16345 0.0
H1122 H 0.38923 0.52162 0.20132 0.0
C1123 C 0.56707 0.48824 0.19763 0.0
C1124 C 0.60033 0.47882 0.18932 0.0
C1125 C 0.59021 0.47933 0.17721 0.0
C1126 C 0.54714 0.48944 0.17337 0.0
C1127 C 0.51485 0.49861 0.18181 0.0
C1128 C 0.5243 0.49787 0.19369 0.0
C1129 C 0.48334 0.50654 0.201 0.0
C1130 C 0.47265 0.46654 0.20894 0.0
C1131 C 0.48835 0.5495 0.20819 0.0
C1132 C 0.44922 0.51187 0.19139 0.0
C1133 C 0.468 0.50767 0.18037 0.0
C1134 C 0.44266 0.51093 0.17016 0.0
C1135 C 0.39682 0.5181 0.17128 0.0
C1136 C 0.37713 0.52125 0.18251 0.0
C1137 C 0.4037 0.51872 0.19265 0.0
H1138 H 0.49622 0.89304 0.42374 0.0
H1139 H 0.4915 0.86931 0.46126 0.0
H1140 H 0.47565 0.94874 0.4647 0.0
H1141 H 0.55088 0.99841 0.42535 0.0
H1142 H 0.5205 0.02291 0.41336 0.0
H1143 H 0.52947 0.96373 0.41377 0.0
H1144 H 0.44466 0.9507 0.41225 0.0
H1145 H 0.43541 0.00989 0.41189 0.0
H1146 H 0.40814 0.97625 0.42282 0.0
H1147 H 0.46355 0.02988 0.46425 0.0
H1148 H 0.45674 0.11012 0.45987 0.0
H1149 H 0.46835 0.08264 0.42266 0.0
C1150 C 0.49161 0.90483 0.43264 0.0
C1151 C 0.4945 0.87545 0.44225 0.0
C1152 C 0.48869 0.89153 0.45381 0.0
C1153 C 0.47977 0.93645 0.45584 0.0
C1154 C 0.47682 0.96469 0.4462 0.0
C1155 C 0.48258 0.94973 0.43482 0.0
C1156 C 0.47894 0.98762 0.4261 0.0
C1157 C 0.52255 0.99351 0.41924 0.0
C1158 C 0.43943 0.98069 0.41777 0.0
C1159 C 0.47078 0.02616 0.43438 0.0
C1160 C 0.46955 0.01201 0.44593 0.0
C1161 C 0.46411 0.04142 0.45525 0.0
C1162 C 0.46033 0.08672 0.45271 0.0
C1163 C 0.46195 0.10187 0.44097 0.0
C1164 C 0.46663 0.07136 0.43168 0.0
H1165 H 0.09773 0.49334 0.57825 0.0
H1166 H 0.1341 0.52761 0.54258 0.0
H1167 H 0.05483 0.52859 0.53691 0.0
H1168 H 0.01114 0.41888 0.57068 0.0
H1169 H 0.97527 0.43417 0.58269 0.0
H1170 H 0.03448 0.43964 0.58418 0.0
H1171 H 0.0251 0.52297 0.58944 0.0
H1172 H 0.96578 0.51773 0.58798 0.0
H1173 H 0.99523 0.55909 0.57958 0.0
H1174 H 0.97317 0.52181 0.53489 0.0
H1175 H 0.89299 0.50599 0.53647 0.0
H1176 H 0.90881 0.47594 0.57346 0.0
C1177 C 0.08863 0.50147 0.56931 0.0
C1178 C 0.12128 0.51048 0.5608 0.0
C1179 C 0.10898 0.52063 0.54914 0.0
C1180 C 0.06427 0.5214 0.54588 0.0
C1181 C 0.03259 0.51193 0.55443 0.0
C1182 C 0.04407 0.50209 0.56589 0.0
C1183 C 0.00354 0.49083 0.57317 0.0
C1184 C 0.00629 0.44304 0.57796 0.0
C1185 C 0.99704 0.52468 0.58313 0.0
C1186 C 0.96766 0.49524 0.56395 0.0
C1187 C 0.98516 0.50783 0.55324 0.0
C1188 C 0.95892 0.51248 0.54326 0.0
C1189 C 0.91351 0.50366 0.54424 0.0
C1190 C 0.89504 0.49036 0.55511 0.0
C1191 C 0.92235 0.48639 0.56509 0.0
H1192 H 0.95976 0.58506 0.2897 0.0
H1193 H 0.95984 0.61489 0.32691 0.0
H1194 H 0.98353 0.53737 0.3312 0.0
H1195 H 0.91453 0.47341 0.29284 0.0
H1196 H 0.94667 0.45192 0.28076 0.0
H1197 H 0.92997 0.50943 0.28086 0.0
H1198 H 0.01216 0.5334 0.27849 0.0
H1199 H 0.02914 0.47602 0.27844 0.0
H1200 H 0.05279 0.51409 0.28892 0.0
H1201 H 0.01474 0.45793 0.33093 0.0
H1202 H 0.04013 0.38115 0.32639 0.0
H1203 H 0.01077 0.40302 0.28961 0.0
C1204 C 0.96459 0.57513 0.29876 0.0
C1205 C 0.95855 0.60568 0.30799 0.0
C1206 C 0.96442 0.59167 0.31975 0.0
C1207 C 0.97799 0.54789 0.32224 0.0
C1208 C 0.98428 0.5186 0.31288 0.0
C1209 C 0.97677 0.53151 0.30139 0.0
C1210 C 0.98446 0.49372 0.2929 0.0
C1211 C 0.94134 0.4814 0.28646 0.0
C1212 C 0.02186 0.505 0.28418 0.0
C1213 C -0.00161 0.45759 0.30134 0.0
C1214 C -0.00124 0.47254 0.31282 0.0
C1215 C 0.01368 0.44564 0.32201 0.0
C1216 C 0.02815 0.40229 0.31937 0.0
C1217 C 0.02651 0.38625 0.30771 0.0
C1218 C 0.01131 0.41426 0.29864 0.0
H1219 H 0.40273 0.04523 0.686 0.0
H1220 H 0.40448 0.90955 0.67306 0.0
H1221 H 0.48159 0.91983 0.66639 0.0
H1222 H 0.48146 0.09348 0.66292 0.0
H1223 H 0.5064 0.12923 0.67376 0.0
H1224 H 0.44837 0.11511 0.67481 0.0
H1225 H 0.46085 0.08587 0.69596 0.0
H1226 H 0.51858 0.09979 0.69497 0.0
H1227 H 0.50231 0.04368 0.6985 0.0
H1228 H 0.56156 0.9377 0.6658 0.0
H1229 H 0.63724 0.96294 0.6708 0.0
H1230 H 0.58437 0.08843 0.68297 0.0
C1231 C 0.41876 0.01815 0.68139 0.0
C1232 C 0.39755 0.97655 0.68009 0.0
C1233 C 0.41993 0.94178 0.67415 0.0
C1234 C 0.46373 0.94739 0.67026 0.0
C1235 C 0.4844 0.98821 0.67218 0.0
C1236 C 0.46239 0.02329 0.67744 0.0
C1237 C 0.4936 0.06157 0.67994 0.0
C1238 C 0.48175 0.10226 0.6724 0.0
C1239 C 0.49385 0.07335 0.69312 0.0
C1240 C 0.53724 0.04131 0.67607 0.0
C1241 C 0.53108 -0.00071 0.67138 0.0
C1242 C 0.56679 0.97117 0.66899 0.0
C1243 C 0.60962 0.9857 0.67183 0.0
C1244 C 0.6163 0.02808 0.67685 0.0
C1245 C 0.57996 0.05679 0.67859 0.0
H1246 H 0.05025 0.09494 0.92858 0.0
H1247 H 0.91739 0.14577 0.92321 0.0
H1248 H 0.8919 0.07066 0.91767 0.0
H1249 H 0.04555 0.99806 0.90639 0.0
H1250 H 0.07556 0.96293 0.91647 0.0
H1251 H 0.08682 0.02179 0.91596 0.0
H1252 H 0.07138 0.02718 0.9383 0.0
H1253 H 0.05985 0.96878 0.93886 0.0
H1254 H 0.01889 0.00797 0.94398 0.0
H1255 H 0.87726 0.98985 0.91702 0.0
H1256 H 0.87326 0.9111 0.92297 0.0
H1257 H 0.01461 0.91178 0.93008 0.0
C1258 C 0.0164 0.09049 0.92561 0.0
C1259 C 0.98591 0.12596 0.92605 0.0
C1260 C 0.94129 0.1189 0.92273 0.0
C1261 C 0.92664 0.07642 0.91951 0.0
C1262 C 0.95699 0.04139 0.91976 0.0
C1263 C 0.00108 0.04801 0.92272 0.0
C1264 C 0.0247 0.00424 0.92477 0.0
C1265 C 0.06026 0.99629 0.91533 0.0
C1266 C 0.04482 0.00194 0.93721 0.0
C1267 C 0.98634 0.97227 0.92337 0.0
C1268 C 0.94801 0.99408 0.91999 0.0
C1269 C 0.90726 0.97221 0.91939 0.0
C1270 C 0.90527 0.92743 0.9228 0.0
C1271 C 0.94363 0.90547 0.92702 0.0
C1272 C 0.98485 0.92773 0.92681 0.0
H1273 H 0.91286 0.07291 0.07398 0.0
H1274 H 0.86486 0.93812 0.07785 0.0
H1275 H 0.94116 0.91236 0.08192 0.0
H1276 H 0.99601 0.04656 0.05685 0.0
H1277 H 0.03595 0.08664 0.06199 0.0
H1278 H 0.97783 0.09748 0.06369 0.0
H1279 H 0.98809 0.10749 0.08611 0.0
H1280 H 0.04674 0.09717 0.08447 0.0
H1281 H 0.01446 0.06424 0.09457 0.0
H1282 H 0.02207 0.89869 0.08102 0.0
H1283 H 0.0995 0.89735 0.07403 0.0
H1284 H 0.09547 0.04042 0.06927 0.0
C1285 C 0.91824 0.03846 0.07637 0.0
C1286 C 0.88316 0.00759 0.0759 0.0
C1287 C 0.89141 0.9623 0.07841 0.0
C1288 C 0.93461 0.94747 0.08076 0.0
C1289 C 0.96913 0.97834 0.08047 0.0
C1290 C 0.96137 0.02305 0.07838 0.0
C1291 C 0.00423 0.04776 0.07601 0.0
C1292 C 0.00342 0.0709 0.06392 0.0
C1293 C 0.01395 0.08113 0.08588 0.0
C1294 C 0.03684 0.00952 0.07625 0.0
C1295 C 0.0163 0.97007 0.0793 0.0
C1296 C 0.03874 0.92952 0.07889 0.0
C1297 C 0.08274 0.92906 0.07487 0.0
C1298 C 0.10341 0.96879 0.07105 0.0
C1299 C 0.0806 0.00958 0.0722 0.0
H1300 H 0.53373 0.11058 0.80459 0.0
H1301 H 0.40649 0.10476 0.82243 0.0
H1302 H 0.42093 0.02657 0.82771 0.0
H1303 H 0.52694 0.00896 0.7915 0.0
H1304 H 0.58485 0.99482 0.79283 0.0
H1305 H 0.56827 0.05216 0.79231 0.0
H1306 H 0.60842 0.06666 0.81203 0.0
H1307 H 0.62522 0.00915 0.81263 0.0
H1308 H 0.59491 0.03331 0.8247 0.0
H1309 H 0.44239 0.94679 0.82782 0.0
H1310 H 0.47055 0.87155 0.82318 0.0
H1311 H 0.58543 0.92919 0.80617 0.0
C1312 C 0.50934 0.09332 0.80987 0.0
C1313 C 0.469 0.11394 0.81313 0.0
C1314 C 0.43776 0.08985 0.8199 0.0
C1315 C 0.44574 0.04542 0.82297 0.0
C1316 C 0.48534 0.02577 0.81934 0.0
C1317 C 0.51685 0.04908 0.81303 0.0
C1318 C 0.55453 0.01917 0.80914 0.0
C1319 C 0.55886 0.01875 0.79565 0.0
C1320 C 0.59837 0.0329 0.81498 0.0
C1321 C 0.53834 0.97492 0.81379 0.0
C1322 C 0.49856 0.97955 0.81977 0.0
C1323 C 0.47419 0.94282 0.82352 0.0
C1324 C 0.49034 0.90032 0.82087 0.0
C1325 C 0.53065 0.89507 0.81468 0.0
C1326 C 0.5555 0.93268 0.81137 0.0
H1327 H 0.88168 0.52619 0.19575 0.0
H1328 H 0.87936 0.39272 0.18124 0.0
H1329 H 0.95569 0.40271 0.17398 0.0
H1330 H 0.95238 0.5765 0.172 0.0
H1331 H 0.98108 0.61142 0.18236 0.0
H1332 H 0.92396 0.59636 0.18491 0.0
H1333 H 0.94505 0.56474 0.20533 0.0
H1334 H 0.002 0.57972 0.20286 0.0
H1335 H 0.98788 0.52301 0.20636 0.0
H1336 H 0.03571 0.42141 0.17165 0.0
H1337 H 0.11252 0.44969 0.17351 0.0
H1338 H 0.06238 0.57289 0.18799 0.0
C1339 C 0.89682 0.49944 0.1908 0.0
C1340 C 0.87446 0.45864 0.1891 0.0
C1341 C 0.89566 0.42435 0.18266 0.0
C1342 C 0.93904 0.42974 0.17845 0.0
C1343 C 0.96055 0.46991 0.18054 0.0
C1344 C 0.93996 0.50446 0.18642 0.0
C1345 C 0.97159 0.54291 0.18832 0.0
C1346 C 0.95633 0.58424 0.18149 0.0
C1347 C 0.97694 0.55315 0.2015 0.0
C1348 C 0.01374 0.5237 0.18313 0.0
C1349 C 0.00658 0.48165 0.1786 0.0
C1350 C 0.04153 0.45487 0.17477 0.0
C1351 C 0.08496 0.47111 0.17584 0.0
C1352 C 0.09282 0.5139 0.18049 0.0
C1353 C 0.05679 0.54088 0.1839 0.0
H1354 H 0.45777 0.59189 0.43263 0.0
H1355 H 0.59838 0.59284 0.42444 0.0
H1356 H 0.5927 0.51598 0.41709 0.0
H1357 H 0.45414 0.49175 0.44461 0.0
H1358 H 0.40066 0.47503 0.43908 0.0
H1359 H 0.41318 0.53293 0.44071 0.0
H1360 H 0.39489 0.54616 0.41875 0.0
H1361 H 0.38233 0.4879 0.41704 0.0
H1362 H 0.42287 0.51393 0.40764 0.0
H1363 H 0.57655 0.43561 0.41573 0.0
H1364 H 0.55048 0.35939 0.41988 0.0
H1365 H 0.41929 0.41028 0.42761 0.0
C1366 C 0.48705 0.57645 0.42891 0.0
C1367 C 0.5285 0.59826 0.42912 0.0
C1368 C 0.56618 0.57688 0.42429 0.0
C1369 C 0.56323 0.53324 0.42005 0.0
C1370 C 0.52218 0.5119 0.42045 0.0
C1371 C 0.48453 0.53312 0.42456 0.0
C1372 C 0.44586 0.50128 0.4256 0.0
C1373 C 0.42745 0.50018 0.43825 0.0
C1374 C 0.40933 0.51302 0.41673 0.0
C1375 C 0.46854 0.4581 0.42236 0.0
C1376 C 0.51234 0.46504 0.41916 0.0
C1377 C 0.54195 0.42977 0.41775 0.0
C1378 C 0.52694 0.38662 0.42014 0.0
C1379 C 0.4827 0.37919 0.42377 0.0
C1380 C 0.45274 0.41509 0.42436 0.0
H1381 H 0.4298 0.55641 0.57255 0.0
H1382 H 0.38464 0.42321 0.58052 0.0
H1383 H 0.46184 0.4003 0.58463 0.0
H1384 H 0.51234 0.52427 0.55562 0.0
H1385 H 0.55179 0.56701 0.55935 0.0
H1386 H 0.49356 0.57736 0.56105 0.0
H1387 H 0.50534 0.59686 0.58298 0.0
H1388 H 0.56405 0.58693 0.58132 0.0
H1389 H 0.53314 0.55783 0.59248 0.0
H1390 H 0.54298 0.38782 0.58376 0.0
H1391 H 0.61997 0.38495 0.57649 0.0
H1392 H 0.61288 0.52508 0.56761 0.0
C1393 C 0.4361 0.52316 0.57581 0.0
C1394 C 0.40151 0.49179 0.57653 0.0
C1395 C 0.41084 0.44782 0.58016 0.0
C1396 C 0.45454 0.43465 0.58255 0.0
C1397 C 0.48845 0.46577 0.58116 0.0
C1398 C 0.47969 0.50925 0.57787 0.0
C1399 C 0.5219 0.53357 0.57458 0.0
C1400 C 0.51974 0.55154 0.5619 0.0
C1401 C 0.53168 0.57101 0.58337 0.0
C1402 C 0.55528 0.49623 0.57573 0.0
C1403 C 0.53569 0.4579 0.57999 0.0
C1404 C 0.55891 0.41786 0.58067 0.0
C1405 C 0.60268 0.41654 0.57649 0.0
C1406 C 0.62235 0.45479 0.57144 0.0
C1407 C 0.5988 0.4954 0.5715 0.0
H1408 H 0.25687 0.30018 0.39553 0.0
H1409 H 0.34064 0.18293 0.39473 0.0
H1410 H 0.32551 0.17399 0.37355 0.0
H1411 H 0.17398 0.26054 0.37498 0.0
H1412 H 0.16633 0.3141 0.36817 0.0
H1413 H 0.18287 0.31063 0.38333 0.0
H1414 H 0.25156 0.35964 0.37886 0.0
H1415 H 0.23532 0.36313 0.36368 0.0
H1416 H 0.28975 0.34291 0.3675 0.0
H1417 H 0.30221 0.1783 0.3526 0.0
H1418 H 0.2703 0.19397 0.33314 0.0
H1419 H 0.20397 0.31045 0.3473 0.0
C1420 C 0.27159 0.27243 0.39088 0.0
C1421 C 0.30029 0.24248 0.39664 0.0
C1422 C 0.31932 0.2067 0.39036 0.0
C1423 C 0.31071 0.20124 0.37837 0.0
C1424 C 0.28306 0.23191 0.37285 0.0
C1425 C 0.26367 0.26675 0.37888 0.0
C1426 C 0.2359 0.29545 0.37078 0.0
C1427 C 0.18686 0.29514 0.37454 0.0
C1428 C 0.25425 0.3431 0.37017 0.0
C1429 C 0.24256 0.27113 0.35929 0.0
C1430 C 0.26984 0.23458 0.3607 0.0
C1431 C 0.28073 0.20679 0.35138 0.0
C1432 C 0.26261 0.21615 0.34034 0.0
C1433 C 0.23386 0.25297 0.33871 0.0
C1434 C 0.22454 0.28125 0.3483 0.0
H1435 H 0.30448 0.80601 0.65061 0.0
H1436 H 0.20501 0.72524 0.66807 0.0
H1437 H 0.19453 0.68215 0.64983 0.0
H1438 H 0.24861 0.812 0.6225 0.0
H1439 H 0.29959 0.80946 0.61424 0.0
H1440 H 0.29919 0.83366 0.6287 0.0
H1441 H 0.36114 0.77909 0.63518 0.0
H1442 H 0.36157 0.75456 0.62076 0.0
H1443 H 0.35273 0.72009 0.6335 0.0
H1444 H 0.19506 0.64789 0.62972 0.0
H1445 H 0.20665 0.62491 0.60913 0.0
H1446 H 0.30432 0.72948 0.60476 0.0
C1447 C 0.27965 0.78012 0.65055 0.0
C1448 C 0.25479 0.76971 0.6607 0.0
C1449 C 0.22424 0.73396 0.66036 0.0
C1450 C 0.21796 0.70939 0.65005 0.0
C1451 C 0.24258 0.72095 0.64016 0.0
C1452 C 0.27277 0.7555 0.64032 0.0
C1453 C 0.29536 0.76091 0.62854 0.0
C1454 C 0.28506 0.80673 0.62318 0.0
C1455 C 0.34568 0.75319 0.62956 0.0
C1456 C 0.27316 0.72397 0.62172 0.0
C1457 C 0.24295 0.7012 0.62859 0.0
C1458 C 0.21879 0.66532 0.62426 0.0
C1459 C 0.2259 0.65223 0.6126 0.0
C1460 C 0.25693 0.67495 0.60546 0.0
C1461 C 0.2804 0.71155 0.61006 0.0
H1462 H 0.78702 0.80701 0.35335 0.0
H1463 H 0.79803 0.66548 0.34673 0.0
H1464 H 0.76912 0.64977 0.36662 0.0
H1465 H 0.82071 0.80213 0.38402 0.0
H1466 H 0.78269 0.84513 0.38855 0.0
H1467 H 0.80483 0.84524 0.37385 0.0
H1468 H 0.72501 0.84606 0.3654 0.0
H1469 H 0.70264 0.84596 0.38006 0.0
H1470 H 0.68634 0.80345 0.36979 0.0
H1471 H 0.73501 0.64948 0.38662 0.0
H1472 H 0.70128 0.66461 0.40601 0.0
H1473 H 0.71604 0.80625 0.40021 0.0
C1474 C 0.78345 0.77277 0.35615 0.0
C1475 C 0.79507 0.73737 0.34862 0.0
C1476 C 0.79 0.69297 0.35249 0.0
C1477 C 0.77344 0.68377 0.36373 0.0
C1478 C 0.7625 0.7194 0.37098 0.0
C1479 C 0.76761 0.76303 0.36741 0.0
C1480 C 0.7534 0.79513 0.37695 0.0
C1481 C 0.79276 0.82358 0.38109 0.0
C1482 C 0.71454 0.82436 0.3728 0.0
C1483 C 0.73887 0.76273 0.38638 0.0
C1484 C 0.74419 0.71922 0.38271 0.0
C1485 C 0.73111 0.68336 0.38964 0.0
C1486 C 0.71191 0.69222 0.40059 0.0
C1487 C 0.70643 0.73648 0.40451 0.0
C1488 C 0.72052 0.77214 0.3974 0.0
H1489 H 0.73517 0.25109 0.64882 0.0
H1490 H 0.83301 0.14562 0.64681 0.0
H1491 H 0.8483 0.16544 0.62611 0.0
H1492 H 0.69086 0.23518 0.62022 0.0
H1493 H 0.68168 0.29352 0.61751 0.0
H1494 H 0.68056 0.27247 0.6323 0.0
H1495 H 0.74106 0.3294 0.63825 0.0
H1496 H 0.74253 0.35045 0.62344 0.0
H1497 H 0.79277 0.33081 0.63028 0.0
H1498 H 0.85127 0.19579 0.6055 0.0
H1499 H 0.84034 0.2329 0.58635 0.0
H1500 H 0.738 0.31594 0.60182 0.0
C1501 C 0.76011 0.23251 0.64403 0.0
C1502 C 0.78268 0.19662 0.64931 0.0
C1503 C 0.81478 0.17267 0.64281 0.0
C1504 C 0.82395 0.18397 0.6311 0.0
C1505 C 0.80063 0.21921 0.62608 0.0
C1506 C 0.76925 0.24302 0.63233 0.0
C1507 C 0.74726 0.27796 0.62474 0.0
C1508 C 0.69713 0.26923 0.62363 0.0
C1509 C 0.75648 0.32493 0.62946 0.0
C1510 C 0.77105 0.27002 0.61323 0.0
C1511 C 0.80198 0.23629 0.61421 0.0
C1512 C 0.82735 0.22245 0.60465 0.0
C1513 C 0.82082 0.24365 0.59382 0.0
C1514 C 0.78916 0.27821 0.59262 0.0
C1515 C 0.76385 0.29118 0.60248 0.0
H1516 H 0.19649 0.30717 0.89554 0.0
H1517 H 0.17935 0.16595 0.90152 0.0
H1518 H 0.21328 0.14991 0.88216 0.0
H1519 H 0.16759 0.30383 0.86489 0.0
H1520 H 0.20681 0.34618 0.86068 0.0
H1521 H 0.18333 0.34631 0.87523 0.0
H1522 H 0.26235 0.34515 0.8842 0.0
H1523 H 0.28607 0.34505 0.86968 0.0
H1524 H 0.30062 0.30191 0.87998 0.0
H1525 H 0.2512 0.14951 0.86254 0.0
H1526 H 0.28488 0.16485 0.84311 0.0
H1527 H 0.27146 0.30643 0.8492 0.0
C1528 C 0.20023 0.27295 0.89274 0.0
C1529 C 0.1858 0.23764 0.89992 0.0
C1530 C 0.19037 0.19325 0.89604 0.0
C1531 C 0.20963 0.18391 0.88512 0.0
C1532 C 0.2234 0.21947 0.87817 0.0
C1533 C 0.21845 0.26312 0.88175 0.0
C1534 C 0.23409 0.29522 0.87238 0.0
C1535 C 0.19566 0.32461 0.86804 0.0
C1536 C 0.2731 0.32349 0.87683 0.0
C1537 C 0.2489 0.2628 0.863 0.0
C1538 C 0.24298 0.21927 0.86658 0.0
C1539 C 0.25568 0.18343 0.85959 0.0
C1540 C 0.27483 0.19239 0.84863 0.0
C1541 C 0.28037 0.2367 0.84476 0.0
C1542 C 0.26702 0.27228 0.85198 0.0
H1543 H 0.19324 0.74607 0.14383 0.0
H1544 H 0.28609 0.63633 0.14121 0.0
H1545 H 0.30304 0.6576 0.12073 0.0
H1546 H 0.1507 0.7375 0.11418 0.0
H1547 H 0.14527 0.79681 0.1124 0.0
H1548 H 0.14039 0.77232 0.12677 0.0
H1549 H 0.20272 0.82426 0.13434 0.0
H1550 H 0.20813 0.84854 0.11995 0.0
H1551 H 0.25585 0.82437 0.12705 0.0
H1552 H 0.3113 0.69246 0.1007 0.0
H1553 H 0.30789 0.73632 0.08236 0.0
H1554 H 0.20689 0.8207 0.09795 0.0
C1555 C 0.21696 0.72645 0.1389 0.0
C1556 C 0.2378 0.68913 0.14398 0.0
C1557 C 0.26881 0.66426 0.13734 0.0
C1558 C 0.27899 0.67639 0.12576 0.0
C1559 C 0.25774 0.71335 0.12097 0.0
C1560 C 0.22709 0.73779 0.1273 0.0
C1561 C 0.20851 0.77572 0.12008 0.0
C1562 C 0.15824 0.77023 0.11825 0.0
C1563 C 0.21948 0.82088 0.12569 0.0
C1564 C 0.23382 0.76908 0.10874 0.0
C1565 C 0.26221 0.7331 0.10944 0.0
C1566 C 0.28917 0.72071 0.10005 0.0
C1567 C 0.28697 0.74579 0.08968 0.0
C1568 C 0.25805 0.78281 0.08877 0.0
C1569 C 0.23083 0.79405 0.09843 0.0
H1570 H 0.73949 0.78463 0.89929 0.0
H1571 H 0.84376 0.68562 0.89707 0.0
H1572 H 0.82918 0.67694 0.87582 0.0
H1573 H 0.66416 0.73407 0.87825 0.0
H1574 H 0.64696 0.78663 0.87215 0.0
H1575 H 0.66415 0.78329 0.88727 0.0
H1576 H 0.72298 0.84456 0.88356 0.0
H1577 H 0.70598 0.84811 0.86844 0.0
H1578 H 0.76323 0.83717 0.872 0.0
H1579 H 0.80428 0.68057 0.85479 0.0
H1580 H 0.77106 0.69609 0.83542 0.0
H1581 H 0.68572 0.79564 0.85133 0.0
C1582 C 0.75881 0.76075 0.89433 0.0
C1583 C 0.7929 0.73594 0.89972 0.0
C1584 C 0.81798 0.7054 0.893 0.0
C1585 C 0.80973 0.70007 0.88097 0.0
C1586 C 0.77638 0.72566 0.87585 0.0
C1587 C 0.75134 0.75544 0.8823 0.0
C1588 C 0.71877 0.78025 0.87459 0.0
C1589 C 0.67066 0.77046 0.87829 0.0
C1590 C 0.72833 0.83049 0.87465 0.0
C1591 C 0.72937 0.75978 0.86279 0.0
C1592 C 0.76249 0.72819 0.86371 0.0
C1593 C 0.77817 0.7051 0.85396 0.0
C1594 C 0.75922 0.71432 0.84299 0.0
C1595 C 0.72497 0.74636 0.84185 0.0
C1596 C 0.71045 0.76972 0.85189 0.0
H1597 H 0.79034 0.23876 0.10751 0.0
H1598 H 0.68562 0.13998 0.10802 0.0
H1599 H 0.67014 0.15773 0.1288 0.0
H1600 H 0.83056 0.21751 0.13666 0.0
H1601 H 0.84243 0.27506 0.13973 0.0
H1602 H 0.84473 0.25489 0.12486 0.0
H1603 H 0.78842 0.31551 0.11852 0.0
H1604 H 0.78579 0.33573 0.13339 0.0
H1605 H 0.73567 0.31937 0.12593 0.0
H1606 H 0.66614 0.18633 0.14945 0.0
H1607 H 0.67421 0.22329 0.16866 0.0
H1608 H 0.78345 0.30146 0.15481 0.0
C1609 C 0.76409 0.22102 0.11201 0.0
C1610 C 0.7396 0.18752 0.10627 0.0
C1611 C 0.70553 0.16489 0.11238 0.0
C1612 C 0.69624 0.17505 0.12414 0.0
C1613 C 0.72138 0.20789 0.12961 0.0
C1614 C 0.75468 0.23047 0.12377 0.0
C1615 C 0.77733 0.26369 0.13173 0.0
C1616 C 0.82668 0.25207 0.13334 0.0
C1617 C 0.77143 0.3114 0.12711 0.0
C1618 C 0.7514 0.25642 0.14295 0.0
C1619 C 0.71919 0.22423 0.14152 0.0
C1620 C 0.69118 0.21168 0.15067 0.0
C1621 C 0.69613 0.23277 0.16155 0.0
C1622 C 0.72878 0.26606 0.1632 0.0
C1623 C 0.75704 0.27751 0.15378 0.0
loop_
_geom_bond_atom_site_label_1
_geom_bond_atom_site_label_2
_geom_bond_distance
_geom_bond_site_symmetry_2
_ccdc_geom_bond_type
Co0 O3 1.970 . S
Co0 N17 1.989 . S
Co0 O25 1.967 . S
Co0 O32 1.920 1_455 S
Co1 O4 1.966 . S
Co1 N10 2.022 . S
Co1 N18 1.993 . S
Co1 O26 1.941 . S
C2 O3 1.258 . S
C2 O4 1.263 . S
O3 Co0 1.970 . S
O3 C2 1.258 . S
O4 Co1 1.966 . S
O4 C2 1.263 . S
C5 O6 1.235 . S
C5 O32 1.289 . S
O6 C5 1.235 . S
C7 C9 1.400 . S
C7 N10 1.351 . S
C7 C12 1.501 . S
C8 C9 1.387 . S
C8 N11 1.341 . S
C9 C7 1.400 . S
C9 C8 1.387 . S
N10 Co1 2.022 . S
N10 C7 1.351 . S
N10 N11 1.365 . S
N11 C8 1.341 . S
N11 N10 1.365 . S
N11 H31 0.862 . S
C12 C7 1.501 . S
C12 H13 0.961 . S
C12 H14 0.961 . S
C12 H15 0.960 . S
H13 C12 0.961 . S
H14 C12 0.961 . S
H15 C12 0.960 . S
C16 N17 1.342 . S
C16 C20 1.401 . S
C16 C21 1.499 1_455 S
N17 Co0 1.989 . S
N17 C16 1.342 . S
N17 N18 1.388 . S
N18 Co1 1.993 . S
N18 N17 1.388 . S
N18 C19 1.346 . S
C19 N18 1.346 . S
C19 C20 1.396 . S
C19 C29 1.510 . S
C20 C16 1.401 . S
C20 C19 1.396 . S
C21 C16 1.499 1_655 S
C21 H22 0.959 . S
C21 H23 0.960 . S
C21 H24 0.961 . S
H22 C21 0.959 . S
H23 C21 0.960 . S
H24 C21 0.961 . S
O25 Co0 1.967 . S
O25 C33 1.258 . S
O26 Co1 1.941 . S
O26 C33 1.266 . S
H27 C29 0.959 . S
H28 C29 0.961 . S
C29 C19 1.510 . S
C29 H27 0.959 . S
C29 H28 0.961 . S
C29 H30 0.960 . S
H30 C29 0.960 . S
H31 N11 0.862 . S
O32 Co0 1.920 1_655 S
O32 C5 1.289 . S
C33 O25 1.258 . S
C33 O26 1.266 . S
Co34 O37 1.970 . S
Co34 N51 1.989 . S
Co34 O59 1.967 . S
Co34 O66 1.920 1_565 S
Co35 O38 1.966 . S
Co35 N44 2.022 . S
Co35 N52 1.993 . S
Co35 O60 1.941 . S
C36 O37 1.258 . S
C36 O38 1.263 . S
O37 Co34 1.970 . S
O37 C36 1.258 . S
O38 Co35 1.966 . S
O38 C36 1.263 . S
C39 O40 1.235 . S
C39 O66 1.289 . S
O40 C39 1.235 . S
C41 C43 1.400 . S
C41 N44 1.351 . S
C41 C46 1.501 . S
C42 C43 1.387 . S
C42 N45 1.341 . S
C43 C41 1.400 . S
C43 C42 1.387 . S
N44 Co35 2.022 . S
N44 C41 1.351 . S
N44 N45 1.365 . S
N45 C42 1.341 . S
N45 N44 1.365 . S
N45 H65 0.862 . S
C46 C41 1.501 . S
C46 H47 0.961 . S
C46 H48 0.961 . S
C46 H49 0.960 . S
H47 C46 0.961 . S
H48 C46 0.961 . S
H49 C46 0.960 . S
C50 N51 1.342 . S
C50 C54 1.401 . S
C50 C55 1.499 1_565 S
N51 Co34 1.989 . S
N51 C50 1.342 . S
N51 N52 1.388 . S
N52 Co35 1.993 . S
N52 N51 1.388 . S
N52 C53 1.346 . S
C53 N52 1.346 . S
C53 C54 1.396 . S
C53 C63 1.510 . S
C54 C50 1.401 . S
C54 C53 1.396 . S
C55 C50 1.499 1_545 S
C55 H56 0.959 . S
C55 H57 0.960 . S
C55 H58 0.961 . S
H56 C55 0.959 . S
H57 C55 0.960 . S
H58 C55 0.961 . S
O59 Co34 1.967 . S
O59 C67 1.258 . S
O60 Co35 1.941 . S
O60 C67 1.266 . S
H61 C63 0.959 . S
H62 C63 0.961 . S
C63 C53 1.510 . S
C63 H61 0.959 . S
C63 H62 0.961 . S
C63 H64 0.960 . S
H64 C63 0.960 . S
H65 N45 0.862 . S
O66 Co34 1.920 1_545 S
O66 C39 1.289 . S
C67 O59 1.258 . S
C67 O60 1.266 . S
Co68 O71 1.970 . S
Co68 N85 1.989 . S
Co68 O93 1.967 . S
Co68 O100 1.920 1_655 S
Co69 O72 1.966 . S
Co69 N78 2.022 . S
Co69 N86 1.993 . S
Co69 O94 1.941 . S
C70 O71 1.258 . S
C70 O72 1.263 . S
O71 Co68 1.970 . S
O71 C70 1.258 . S
O72 Co69 1.966 . S
O72 C70 1.263 . S
C73 O74 1.235 . S
C73 O100 1.289 . S
O74 C73 1.235 . S
C75 C77 1.400 . S
C75 N78 1.351 . S
C75 C80 1.501 . S
C76 C77 1.387 . S
C76 N79 1.341 . S
C77 C75 1.400 . S
C77 C76 1.387 . S
N78 Co69 2.022 . S
N78 C75 1.351 . S
N78 N79 1.365 . S
N79 C76 1.341 . S
N79 N78 1.365 . S
N79 H99 0.862 . S
C80 C75 1.501 . S
C80 H81 0.961 . S
C80 H82 0.961 . S
C80 H83 0.960 . S
H81 C80 0.961 . S
H82 C80 0.961 . S
H83 C80 0.960 . S
C84 N85 1.342 . S
C84 C88 1.401 . S
C84 C89 1.499 1_655 S
N85 Co68 1.989 . S
N85 C84 1.342 . S
N85 N86 1.388 . S
N86 Co69 1.993 . S
N86 N85 1.388 . S
N86 C87 1.346 . S
C87 N86 1.346 . S
C87 C88 1.396 . S
C87 C97 1.510 . S
C88 C84 1.401 . S
C88 C87 1.396 . S
C89 C84 1.499 1_455 S
C89 H90 0.959 . S
C89 H91 0.960 . S
C89 H92 0.961 . S
H90 C89 0.959 . S
H91 C89 0.960 . S
H92 C89 0.961 . S
O93 Co68 1.967 . S
O93 C101 1.258 . S
O94 Co69 1.941 . S
O94 C101 1.266 . S
H95 C97 0.959 . S
H96 C97 0.961 . S
C97 C87 1.510 . S
C97 H95 0.959 . S
C97 H96 0.961 . S
C97 H98 0.960 . S
H98 C97 0.960 . S
H99 N79 0.862 . S
O100 Co68 1.920 1_455 S
O100 C73 1.289 . S
C101 O93 1.258 . S
C101 O94 1.266 . S
Co102 O105 1.970 . S
Co102 N119 1.989 . S
Co102 O127 1.967 . S
Co102 O134 1.920 1_545 S
Co103 O106 1.966 . S
Co103 N112 2.022 . S
Co103 N120 1.993 . S
Co103 O128 1.941 . S
C104 O105 1.258 . S
C104 O106 1.263 . S
O105 Co102 1.970 . S
O105 C104 1.258 . S
O106 Co103 1.966 . S
O106 C104 1.263 . S
C107 O108 1.235 . S
C107 O134 1.289 . S
O108 C107 1.235 . S
C109 C111 1.400 . S
C109 N112 1.351 . S
C109 C114 1.501 . S
C110 C111 1.387 . S
C110 N113 1.341 . S
C111 C109 1.400 . S
C111 C110 1.387 . S
N112 Co103 2.022 . S
N112 C109 1.351 . S
N112 N113 1.365 . S
N113 C110 1.341 . S
N113 N112 1.365 . S
N113 H133 0.862 . S
C114 C109 1.501 . S
C114 H115 0.961 . S
C114 H116 0.961 . S
C114 H117 0.960 . S
H115 C114 0.961 . S
H116 C114 0.961 . S
H117 C114 0.960 . S
C118 N119 1.342 . S
C118 C122 1.401 . S
C118 C123 1.499 1_545 S
N119 Co102 1.989 . S
N119 C118 1.342 . S
N119 N120 1.388 . S
N120 Co103 1.993 . S
N120 N119 1.388 . S
N120 C121 1.346 . S
C121 N120 1.346 . S
C121 C122 1.396 . S
C121 C131 1.510 . S
C122 C118 1.401 . S
C122 C121 1.396 . S
C123 C118 1.499 1_565 S
C123 H124 0.959 . S
C123 H125 0.960 . S
C123 H126 0.961 . S
H124 C123 0.959 . S
H125 C123 0.960 . S
H126 C123 0.961 . S
O127 Co102 1.967 . S
O127 C135 1.258 . S
O128 Co103 1.941 . S
O128 C135 1.266 . S
H129 C131 0.959 . S
H130 C131 0.961 . S
C131 C121 1.510 . S
C131 H129 0.959 . S
C131 H130 0.961 . S
C131 H132 0.960 . S
H132 C131 0.960 . S
H133 N113 0.862 . S
O134 Co102 1.920 1_565 S
O134 C107 1.289 . S
C135 O127 1.258 . S
C135 O128 1.266 . S
Co136 O139 1.970 . S
Co136 N153 1.989 . S
Co136 O161 1.967 . S
Co136 O168 1.920 1_455 S
Co137 O140 1.966 . S
Co137 N146 2.022 . S
Co137 N154 1.993 . S
Co137 O162 1.941 . S
C138 O139 1.258 . S
C138 O140 1.263 . S
O139 Co136 1.970 . S
O139 C138 1.258 . S
O140 Co137 1.966 . S
O140 C138 1.263 . S
C141 O142 1.235 . S
C141 O168 1.289 . S
O142 C141 1.235 . S
C143 C145 1.400 . S
C143 N146 1.351 . S
C143 C148 1.501 . S
C144 C145 1.387 . S
C144 N147 1.341 . S
C145 C143 1.400 . S
C145 C144 1.387 . S
N146 Co137 2.022 . S
N146 C143 1.351 . S
N146 N147 1.365 . S
N147 C144 1.341 . S
N147 N146 1.365 . S
N147 H167 0.862 . S
C148 C143 1.501 . S
C148 H149 0.961 . S
C148 H150 0.961 . S
C148 H151 0.960 . S
H149 C148 0.961 . S
H150 C148 0.961 . S
H151 C148 0.960 . S
C152 N153 1.342 . S
C152 C156 1.401 . S
C152 C157 1.499 1_455 S
N153 Co136 1.989 . S
N153 C152 1.342 . S
N153 N154 1.388 . S
N154 Co137 1.993 . S
N154 N153 1.388 . S
N154 C155 1.346 . S
C155 N154 1.346 . S
C155 C156 1.396 . S
C155 C165 1.510 . S
C156 C152 1.401 . S
C156 C155 1.396 . S
C157 C152 1.499 1_655 S
C157 H158 0.959 . S
C157 H159 0.960 . S
C157 H160 0.961 . S
H158 C157 0.959 . S
H159 C157 0.960 . S
H160 C157 0.961 . S
O161 Co136 1.967 . S
O161 C169 1.258 . S
O162 Co137 1.941 . S
O162 C169 1.266 . S
H163 C165 0.959 . S
H164 C165 0.961 . S
C165 C155 1.510 . S
C165 H163 0.959 . S
C165 H164 0.961 . S
C165 H166 0.960 . S
H166 C165 0.960 . S
H167 N147 0.862 . S
O168 Co136 1.920 1_655 S
O168 C141 1.289 . S
C169 O161 1.258 . S
C169 O162 1.266 . S
Co170 O173 1.970 . S
Co170 N187 1.989 . S
Co170 O195 1.967 . S
Co170 O202 1.920 1_565 S
Co171 O174 1.966 . S
Co171 N180 2.022 . S
Co171 N188 1.993 . S
Co171 O196 1.941 . S
C172 O173 1.258 . S
C172 O174 1.263 . S
O173 Co170 1.970 . S
O173 C172 1.258 . S
O174 Co171 1.966 . S
O174 C172 1.263 . S
C175 O176 1.235 . S
C175 O202 1.289 . S
O176 C175 1.235 . S
C177 C179 1.400 . S
C177 N180 1.351 . S
C177 C182 1.501 . S
C178 C179 1.387 . S
C178 N181 1.341 . S
C179 C177 1.400 . S
C179 C178 1.387 . S
N180 Co171 2.022 . S
N180 C177 1.351 . S
N180 N181 1.365 . S
N181 C178 1.341 . S
N181 N180 1.365 . S
N181 H201 0.862 . S
C182 C177 1.501 . S
C182 H183 0.961 . S
C182 H184 0.961 . S
C182 H185 0.960 . S
H183 C182 0.961 . S
H184 C182 0.961 . S
H185 C182 0.960 . S
C186 N187 1.342 . S
C186 C190 1.401 . S
C186 C191 1.499 1_565 S
N187 Co170 1.989 . S
N187 C186 1.342 . S
N187 N188 1.388 . S
N188 Co171 1.993 . S
N188 N187 1.388 . S
N188 C189 1.346 . S
C189 N188 1.346 . S
C189 C190 1.396 . S
C189 C199 1.510 . S
C190 C186 1.401 . S
C190 C189 1.396 . S
C191 C186 1.499 1_545 S
C191 H192 0.959 . S
C191 H193 0.960 . S
C191 H194 0.961 . S
H192 C191 0.959 . S
H193 C191 0.960 . S
H194 C191 0.961 . S
O195 Co170 1.967 . S
O195 C203 1.258 . S
O196 Co171 1.941 . S
O196 C203 1.266 . S
H197 C199 0.959 . S
H198 C199 0.961 . S
C199 C189 1.510 . S
C199 H197 0.959 . S
C199 H198 0.961 . S
C199 H200 0.960 . S
H200 C199 0.960 . S
H201 N181 0.862 . S
O202 Co170 1.920 1_545 S
O202 C175 1.289 . S
C203 O195 1.258 . S
C203 O196 1.266 . S
Co204 O207 1.970 . S
Co204 N221 1.989 . S
Co204 O229 1.967 . S
Co204 O236 1.920 1_655 S
Co205 O208 1.966 . S
Co205 N214 2.022 . S
Co205 N222 1.993 . S
Co205 O230 1.941 . S
C206 O207 1.258 . S
C206 O208 1.263 . S
O207 Co204 1.970 . S
O207 C206 1.258 . S
O208 Co205 1.966 . S
O208 C206 1.263 . S
C209 O210 1.235 . S
C209 O236 1.289 . S
O210 C209 1.235 . S
C211 C213 1.400 . S
C211 N214 1.351 . S
C211 C216 1.501 . S
C212 C213 1.387 . S
C212 N215 1.341 . S
C213 C211 1.400 . S
C213 C212 1.387 . S
N214 Co205 2.022 . S
N214 C211 1.351 . S
N214 N215 1.365 . S
N215 C212 1.341 . S
N215 N214 1.365 . S
N215 H235 0.862 . S
C216 C211 1.501 . S
C216 H217 0.961 . S
C216 H218 0.961 . S
C216 H219 0.960 . S
H217 C216 0.961 . S
H218 C216 0.961 . S
H219 C216 0.960 . S
C220 N221 1.342 . S
C220 C224 1.401 . S
C220 C225 1.499 1_655 S
N221 Co204 1.989 . S
N221 C220 1.342 . S
N221 N222 1.388 . S
N222 Co205 1.993 . S
N222 N221 1.388 . S
N222 C223 1.346 . S
C223 N222 1.346 . S
C223 C224 1.396 . S
C223 C233 1.510 . S
C224 C220 1.401 . S
C224 C223 1.396 . S
C225 C220 1.499 1_455 S
C225 H226 0.959 . S
C225 H227 0.960 . S
C225 H228 0.961 . S
H226 C225 0.959 . S
H227 C225 0.960 . S
H228 C225 0.961 . S
O229 Co204 1.967 . S
O229 C237 1.258 . S
O230 Co205 1.941 . S
O230 C237 1.266 . S
H231 C233 0.959 . S
H232 C233 0.961 . S
C233 C223 1.510 . S
C233 H231 0.959 . S
C233 H232 0.961 . S
C233 H234 0.960 . S
H234 C233 0.960 . S
H235 N215 0.862 . S
O236 Co204 1.920 1_455 S
O236 C209 1.289 . S
C237 O229 1.258 . S
C237 O230 1.266 . S
Co238 O241 1.970 . S
Co238 N255 1.989 . S
Co238 O263 1.967 . S
Co238 O270 1.920 1_545 S
Co239 O242 1.966 . S
Co239 N248 2.022 . S
Co239 N256 1.993 . S
Co239 O264 1.941 . S
C240 O241 1.258 . S
C240 O242 1.263 . S
O241 Co238 1.970 . S
O241 C240 1.258 . S
O242 Co239 1.966 . S
O242 C240 1.263 . S
C243 O244 1.235 . S
C243 O270 1.289 . S
O244 C243 1.235 . S
C245 C247 1.400 . S
C245 N248 1.351 . S
C245 C250 1.501 . S
C246 C247 1.387 . S
C246 N249 1.341 . S
C247 C245 1.400 . S
C247 C246 1.387 . S
N248 Co239 2.022 . S
N248 C245 1.351 . S
N248 N249 1.365 . S
N249 C246 1.341 . S
N249 N248 1.365 . S
N249 H269 0.862 . S
C250 C245 1.501 . S
C250 H251 0.961 . S
C250 H252 0.961 . S
C250 H253 0.960 . S
H251 C250 0.961 . S
H252 C250 0.961 . S
H253 C250 0.960 . S
C254 N255 1.342 . S
C254 C258 1.401 . S
C254 C259 1.499 1_545 S
N255 Co238 1.989 . S
N255 C254 1.342 . S
N255 N256 1.388 . S
N256 Co239 1.993 . S
N256 N255 1.388 . S
N256 C257 1.346 . S
C257 N256 1.346 . S
C257 C258 1.396 . S
C257 C267 1.510 . S
C258 C254 1.401 . S
C258 C257 1.396 . S
C259 C254 1.499 1_565 S
C259 H260 0.959 . S
C259 H261 0.960 . S
C259 H262 0.961 . S
H260 C259 0.959 . S
H261 C259 0.960 . S
H262 C259 0.961 . S
O263 Co238 1.967 . S
O263 C271 1.258 . S
O264 Co239 1.941 . S
O264 C271 1.266 . S
H265 C267 0.959 . S
H266 C267 0.961 . S
C267 C257 1.510 . S
C267 H265 0.959 . S
C267 H266 0.961 . S
C267 H268 0.960 . S
H268 C267 0.960 . S
H269 N249 0.862 . S
O270 Co238 1.920 1_565 S
O270 C243 1.289 . S
C271 O263 1.258 . S
C271 O264 1.266 . S
Co272 O275 1.970 . S
Co272 N289 1.989 . S
Co272 O297 1.967 . S
Co272 O304 1.920 . S
Co273 O276 1.966 . S
Co273 N282 2.022 . S
Co273 N290 1.993 . S
Co273 O298 1.941 . S
C274 O275 1.258 . S
C274 O276 1.263 . S
O275 Co272 1.970 . S
O275 C274 1.258 . S
O276 Co273 1.966 . S
O276 C274 1.263 . S
C277 O278 1.235 . S
C277 O304 1.289 . S
O278 C277 1.235 . S
C279 C281 1.400 . S
C279 N282 1.351 . S
C279 C284 1.501 . S
C280 C281 1.387 . S
C280 N283 1.341 . S
C281 C279 1.400 . S
C281 C280 1.387 . S
N282 Co273 2.022 . S
N282 C279 1.351 . S
N282 N283 1.365 . S
N283 C280 1.341 . S
N283 N282 1.365 . S
N283 H303 0.862 . S
C284 C279 1.501 . S
C284 H285 0.961 . S
C284 H286 0.961 . S
C284 H287 0.960 . S
H285 C284 0.961 . S
H286 C284 0.961 . S
H287 C284 0.960 . S
C288 N289 1.342 . S
C288 C292 1.401 . S
C288 C293 1.499 . S
N289 Co272 1.989 . S
N289 C288 1.342 . S
N289 N290 1.388 . S
N290 Co273 1.993 . S
N290 N289 1.388 . S
N290 C291 1.346 . S
C291 N290 1.346 . S
C291 C292 1.396 . S
C291 C301 1.510 . S
C292 C288 1.401 . S
C292 C291 1.396 . S
C293 C288 1.499 . S
C293 H294 0.959 . S
C293 H295 0.960 . S
C293 H296 0.961 . S
H294 C293 0.959 . S
H295 C293 0.960 . S
H296 C293 0.961 . S
O297 Co272 1.967 . S
O297 C305 1.258 . S
O298 Co273 1.941 . S
O298 C305 1.266 . S
H299 C301 0.959 . S
H300 C301 0.961 . S
C301 C291 1.510 . S
C301 H299 0.959 . S
C301 H300 0.961 . S
C301 H302 0.960 . S
H302 C301 0.960 . S
H303 N283 0.862 . S
O304 Co272 1.920 . S
O304 C277 1.289 . S
C305 O297 1.258 . S
C305 O298 1.266 . S
Co306 O309 1.970 . S
Co306 N323 1.989 . S
Co306 O331 1.967 . S
Co306 O338 1.920 . S
Co307 O310 1.966 . S
Co307 N316 2.022 . S
Co307 N324 1.993 . S
Co307 O332 1.941 . S
C308 O309 1.258 . S
C308 O310 1.263 . S
O309 Co306 1.970 . S
O309 C308 1.258 . S
O310 Co307 1.966 . S
O310 C308 1.263 . S
C311 O312 1.235 . S
C311 O338 1.289 . S
O312 C311 1.235 . S
C313 C315 1.400 . S
C313 N316 1.351 . S
C313 C318 1.501 . S
C314 C315 1.387 . S
C314 N317 1.341 . S
C315 C313 1.400 . S
C315 C314 1.387 . S
N316 Co307 2.022 . S
N316 C313 1.351 . S
N316 N317 1.365 . S
N317 C314 1.341 . S
N317 N316 1.365 . S
N317 H337 0.862 . S
C318 C313 1.501 . S
C318 H319 0.961 . S
C318 H320 0.961 . S
C318 H321 0.960 . S
H319 C318 0.961 . S
H320 C318 0.961 . S
H321 C318 0.960 . S
C322 N323 1.342 . S
C322 C326 1.401 . S
C322 C327 1.499 . S
N323 Co306 1.989 . S
N323 C322 1.342 . S
N323 N324 1.388 . S
N324 Co307 1.993 . S
N324 N323 1.388 . S
N324 C325 1.346 . S
C325 N324 1.346 . S
C325 C326 1.396 . S
C325 C335 1.510 . S
C326 C322 1.401 . S
C326 C325 1.396 . S
C327 C322 1.499 . S
C327 H328 0.959 . S
C327 H329 0.960 . S
C327 H330 0.961 . S
H328 C327 0.959 . S
H329 C327 0.960 . S
H330 C327 0.961 . S
O331 Co306 1.967 . S
O331 C339 1.258 . S
O332 Co307 1.941 . S
O332 C339 1.266 . S
H333 C335 0.959 . S
H334 C335 0.961 . S
C335 C325 1.510 . S
C335 H333 0.959 . S
C335 H334 0.961 . S
C335 H336 0.960 . S
H336 C335 0.960 . S
H337 N317 0.862 . S
O338 Co306 1.920 . S
O338 C311 1.289 . S
C339 O331 1.258 . S
C339 O332 1.266 . S
Co340 O343 1.970 . S
Co340 N357 1.989 . S
Co340 O365 1.967 . S
Co340 O372 1.920 . S
Co341 O344 1.966 . S
Co341 N350 2.022 . S
Co341 N358 1.993 . S
Co341 O366 1.941 . S
C342 O343 1.258 . S
C342 O344 1.263 . S
O343 Co340 1.970 . S
O343 C342 1.258 . S
O344 Co341 1.966 . S
O344 C342 1.263 . S
C345 O346 1.235 . S
C345 O372 1.289 . S
O346 C345 1.235 . S
C347 C349 1.400 . S
C347 N350 1.351 . S
C347 C352 1.501 . S
C348 C349 1.387 . S
C348 N351 1.341 . S
C349 C347 1.400 . S
C349 C348 1.387 . S
N350 Co341 2.022 . S
N350 C347 1.351 . S
N350 N351 1.365 . S
N351 C348 1.341 . S
N351 N350 1.365 . S
N351 H371 0.862 . S
C352 C347 1.501 . S
C352 H353 0.961 . S
C352 H354 0.961 . S
C352 H355 0.960 . S
H353 C352 0.961 . S
H354 C352 0.961 . S
H355 C352 0.960 . S
C356 N357 1.342 . S
C356 C360 1.401 . S
C356 C361 1.499 . S
N357 Co340 1.989 . S
N357 C356 1.342 . S
N357 N358 1.388 . S
N358 Co341 1.993 . S
N358 N357 1.388 . S
N358 C359 1.346 . S
C359 N358 1.346 . S
C359 C360 1.396 . S
C359 C369 1.510 . S
C360 C356 1.401 . S
C360 C359 1.396 . S
C361 C356 1.499 . S
C361 H362 0.959 . S
C361 H363 0.960 . S
C361 H364 0.961 . S
H362 C361 0.959 . S
H363 C361 0.960 . S
H364 C361 0.961 . S
O365 Co340 1.967 . S
O365 C373 1.258 . S
O366 Co341 1.941 . S
O366 C373 1.266 . S
H367 C369 0.959 . S
H368 C369 0.961 . S
C369 C359 1.510 . S
C369 H367 0.959 . S
C369 H368 0.961 . S
C369 H370 0.960 . S
H370 C369 0.960 . S
H371 N351 0.862 . S
O372 Co340 1.920 . S
O372 C345 1.289 . S
C373 O365 1.258 . S
C373 O366 1.266 . S
Co374 O377 1.970 . S
Co374 N391 1.989 . S
Co374 O399 1.967 . S
Co374 O406 1.920 . S
Co375 O378 1.966 . S
Co375 N384 2.022 . S
Co375 N392 1.993 . S
Co375 O400 1.941 . S
C376 O377 1.258 . S
C376 O378 1.263 . S
O377 Co374 1.970 . S
O377 C376 1.258 . S
O378 Co375 1.966 . S
O378 C376 1.263 . S
C379 O380 1.235 . S
C379 O406 1.289 . S
O380 C379 1.235 . S
C381 C383 1.400 . S
C381 N384 1.351 . S
C381 C386 1.501 . S
C382 C383 1.387 . S
C382 N385 1.341 . S
C383 C381 1.400 . S
C383 C382 1.387 . S
N384 Co375 2.022 . S
N384 C381 1.351 . S
N384 N385 1.365 . S
N385 C382 1.341 . S
N385 N384 1.365 . S
N385 H405 0.862 . S
C386 C381 1.501 . S
C386 H387 0.961 . S
C386 H388 0.961 . S
C386 H389 0.960 . S
H387 C386 0.961 . S
H388 C386 0.961 . S
H389 C386 0.960 . S
C390 N391 1.342 . S
C390 C394 1.401 . S
C390 C395 1.499 . S
N391 Co374 1.989 . S
N391 C390 1.342 . S
N391 N392 1.388 . S
N392 Co375 1.993 . S
N392 N391 1.388 . S
N392 C393 1.346 . S
C393 N392 1.346 . S
C393 C394 1.396 . S
C393 C403 1.510 . S
C394 C390 1.401 . S
C394 C393 1.396 . S
C395 C390 1.499 . S
C395 H396 0.959 . S
C395 H397 0.960 . S
C395 H398 0.961 . S
H396 C395 0.959 . S
H397 C395 0.960 . S
H398 C395 0.961 . S
O399 Co374 1.967 . S
O399 C407 1.258 . S
O400 Co375 1.941 . S
O400 C407 1.266 . S
H401 C403 0.959 . S
H402 C403 0.961 . S
C403 C393 1.510 . S
C403 H401 0.959 . S
C403 H402 0.961 . S
C403 H404 0.960 . S
H404 C403 0.960 . S
H405 N385 0.862 . S
O406 Co374 1.920 . S
O406 C379 1.289 . S
C407 O399 1.258 . S
C407 O400 1.266 . S
Co408 O411 1.970 . S
Co408 N425 1.989 . S
Co408 O433 1.967 . S
Co408 O440 1.920 . S
Co409 O412 1.966 . S
Co409 N418 2.022 . S
Co409 N426 1.993 . S
Co409 O434 1.941 . S
C410 O411 1.258 . S
C410 O412 1.263 . S
O411 Co408 1.970 . S
O411 C410 1.258 . S
O412 Co409 1.966 . S
O412 C410 1.263 . S
C413 O414 1.235 . S
C413 O440 1.289 . S
O414 C413 1.235 . S
C415 C417 1.400 . S
C415 N418 1.351 . S
C415 C420 1.501 . S
C416 C417 1.387 . S
C416 N419 1.341 . S
C417 C415 1.400 . S
C417 C416 1.387 . S
N418 Co409 2.022 . S
N418 C415 1.351 . S
N418 N419 1.365 . S
N419 C416 1.341 . S
N419 N418 1.365 . S
N419 H439 0.862 . S
C420 C415 1.501 . S
C420 H421 0.961 . S
C420 H422 0.961 . S
C420 H423 0.960 . S
H421 C420 0.961 . S
H422 C420 0.961 . S
H423 C420 0.960 . S
C424 N425 1.342 . S
C424 C428 1.401 . S
C424 C429 1.499 . S
N425 Co408 1.989 . S
N425 C424 1.342 . S
N425 N426 1.388 . S
N426 Co409 1.993 . S
N426 N425 1.388 . S
N426 C427 1.346 . S
C427 N426 1.346 . S
C427 C428 1.396 . S
C427 C437 1.510 . S
C428 C424 1.401 . S
C428 C427 1.396 . S
C429 C424 1.499 . S
C429 H430 0.959 . S
C429 H431 0.960 . S
C429 H432 0.961 . S
H430 C429 0.959 . S
H431 C429 0.960 . S
H432 C429 0.961 . S
O433 Co408 1.967 . S
O433 C441 1.258 . S
O434 Co409 1.941 . S
O434 C441 1.266 . S
H435 C437 0.959 . S
H436 C437 0.961 . S
C437 C427 1.510 . S
C437 H435 0.959 . S
C437 H436 0.961 . S
C437 H438 0.960 . S
H438 C437 0.960 . S
H439 N419 0.862 . S
O440 Co408 1.920 . S
O440 C413 1.289 . S
C441 O433 1.258 . S
C441 O434 1.266 . S
Co442 O445 1.970 . S
Co442 N459 1.989 . S
Co442 O467 1.967 . S
Co442 O474 1.920 . S
Co443 O446 1.966 . S
Co443 N452 2.022 . S
Co443 N460 1.993 . S
Co443 O468 1.941 . S
C444 O445 1.258 . S
C444 O446 1.263 . S
O445 Co442 1.970 . S
O445 C444 1.258 . S
O446 Co443 1.966 . S
O446 C444 1.263 . S
C447 O448 1.235 . S
C447 O474 1.289 . S
O448 C447 1.235 . S
C449 C451 1.400 . S
C449 N452 1.351 . S
C449 C454 1.501 . S
C450 C451 1.387 . S
C450 N453 1.341 . S
C451 C449 1.400 . S
C451 C450 1.387 . S
N452 Co443 2.022 . S
N452 C449 1.351 . S
N452 N453 1.365 . S
N453 C450 1.341 . S
N453 N452 1.365 . S
N453 H473 0.862 . S
C454 C449 1.501 . S
C454 H455 0.961 . S
C454 H456 0.961 . S
C454 H457 0.960 . S
H455 C454 0.961 . S
H456 C454 0.961 . S
H457 C454 0.960 . S
C458 N459 1.342 . S
C458 C462 1.401 . S
C458 C463 1.499 . S
N459 Co442 1.989 . S
N459 C458 1.342 . S
N459 N460 1.388 . S
N460 Co443 1.993 . S
N460 N459 1.388 . S
N460 C461 1.346 . S
C461 N460 1.346 . S
C461 C462 1.396 . S
C461 C471 1.510 . S
C462 C458 1.401 . S
C462 C461 1.396 . S
C463 C458 1.499 . S
C463 H464 0.959 . S
C463 H465 0.960 . S
C463 H466 0.961 . S
H464 C463 0.959 . S
H465 C463 0.960 . S
H466 C463 0.961 . S
O467 Co442 1.967 . S
O467 C475 1.258 . S
O468 Co443 1.941 . S
O468 C475 1.266 . S
H469 C471 0.959 . S
H470 C471 0.961 . S
C471 C461 1.510 . S
C471 H469 0.959 . S
C471 H470 0.961 . S
C471 H472 0.960 . S
H472 C471 0.960 . S
H473 N453 0.862 . S
O474 Co442 1.920 . S
O474 C447 1.289 . S
C475 O467 1.258 . S
C475 O468 1.266 . S
Co476 O479 1.970 . S
Co476 N493 1.989 . S
Co476 O501 1.967 . S
Co476 O508 1.920 . S
Co477 O480 1.966 . S
Co477 N486 2.022 . S
Co477 N494 1.993 . S
Co477 O502 1.941 . S
C478 O479 1.258 . S
C478 O480 1.263 . S
O479 Co476 1.970 . S
O479 C478 1.258 . S
O480 Co477 1.966 . S
O480 C478 1.263 . S
C481 O482 1.235 . S
C481 O508 1.289 . S
O482 C481 1.235 . S
C483 C485 1.400 . S
C483 N486 1.351 . S
C483 C488 1.501 . S
C484 C485 1.387 . S
C484 N487 1.341 . S
C485 C483 1.400 . S
C485 C484 1.387 . S
N486 Co477 2.022 . S
N486 C483 1.351 . S
N486 N487 1.365 . S
N487 C484 1.341 . S
N487 N486 1.365 . S
N487 H507 0.862 . S
C488 C483 1.501 . S
C488 H489 0.961 . S
C488 H490 0.961 . S
C488 H491 0.960 . S
H489 C488 0.961 . S
H490 C488 0.961 . S
H491 C488 0.960 . S
C492 N493 1.342 . S
C492 C496 1.401 . S
C492 C497 1.499 . S
N493 Co476 1.989 . S
N493 C492 1.342 . S
N493 N494 1.388 . S
N494 Co477 1.993 . S
N494 N493 1.388 . S
N494 C495 1.346 . S
C495 N494 1.346 . S
C495 C496 1.396 . S
C495 C505 1.510 . S
C496 C492 1.401 . S
C496 C495 1.396 . S
C497 C492 1.499 . S
C497 H498 0.959 . S
C497 H499 0.960 . S
C497 H500 0.961 . S
H498 C497 0.959 . S
H499 C497 0.960 . S
H500 C497 0.961 . S
O501 Co476 1.967 . S
O501 C509 1.258 . S
O502 Co477 1.941 . S
O502 C509 1.266 . S
H503 C505 0.959 . S
H504 C505 0.961 . S
C505 C495 1.510 . S
C505 H503 0.959 . S
C505 H504 0.961 . S
C505 H506 0.960 . S
H506 C505 0.960 . S
H507 N487 0.862 . S
O508 Co476 1.920 . S
O508 C481 1.289 . S
C509 O501 1.258 . S
C509 O502 1.266 . S
Co510 O513 1.970 . S
Co510 N527 1.989 . S
Co510 O535 1.967 . S
Co510 O542 1.920 . S
Co511 O514 1.966 . S
Co511 N520 2.022 . S
Co511 N528 1.993 . S
Co511 O536 1.941 . S
C512 O513 1.258 . S
C512 O514 1.263 . S
O513 Co510 1.970 . S
O513 C512 1.258 . S
O514 Co511 1.966 . S
O514 C512 1.263 . S
C515 O516 1.235 . S
C515 O542 1.289 . S
O516 C515 1.235 . S
C517 C519 1.400 . S
C517 N520 1.351 . S
C517 C522 1.501 . S
C518 C519 1.387 . S
C518 N521 1.341 . S
C519 C517 1.400 . S
C519 C518 1.387 . S
N520 Co511 2.022 . S
N520 C517 1.351 . S
N520 N521 1.365 . S
N521 C518 1.341 . S
N521 N520 1.365 . S
N521 H541 0.862 . S
C522 C517 1.501 . S
C522 H523 0.961 . S
C522 H524 0.961 . S
C522 H525 0.960 . S
H523 C522 0.961 . S
H524 C522 0.961 . S
H525 C522 0.960 . S
C526 N527 1.342 . S
C526 C530 1.401 . S
C526 C531 1.499 . S
N527 Co510 1.989 . S
N527 C526 1.342 . S
N527 N528 1.388 . S
N528 Co511 1.993 . S
N528 N527 1.388 . S
N528 C529 1.346 . S
C529 N528 1.346 . S
C529 C530 1.396 . S
C529 C539 1.510 . S
C530 C526 1.401 . S
C530 C529 1.396 . S
C531 C526 1.499 . S
C531 H532 0.959 . S
C531 H533 0.960 . S
C531 H534 0.961 . S
H532 C531 0.959 . S
H533 C531 0.960 . S
H534 C531 0.961 . S
O535 Co510 1.967 . S
O535 C543 1.258 . S
O536 Co511 1.941 . S
O536 C543 1.266 . S
H537 C539 0.959 . S
H538 C539 0.961 . S
C539 C529 1.510 . S
C539 H537 0.959 . S
C539 H538 0.961 . S
C539 H540 0.960 . S
H540 C539 0.960 . S
H541 N521 0.862 . S
O542 Co510 1.920 . S
O542 C515 1.289 . S
C543 O535 1.258 . S
C543 O536 1.266 . S
H544 C556 0.930 . S
H545 C558 0.930 . S
H546 C559 0.930 . S
H547 C563 0.959 . S
H548 C563 0.959 . S
H549 C563 0.961 . S
H550 C564 0.960 . S
H551 C564 0.961 . S
H552 C564 0.959 . S
H553 C567 0.929 . S
H554 C568 0.931 . S
H555 C570 0.930 . S
C556 H544 0.930 . S
C556 C557 1.399 . S
C556 C561 1.399 . S
C557 C556 1.399 . S
C557 C558 1.376 . S
C558 H545 0.930 . S
C558 C557 1.376 . S
C558 C559 1.388 . S
C559 H546 0.930 . S
C559 C558 1.388 . S
C559 C560 1.390 . S
C560 C559 1.390 . S
C560 C561 1.394 . S
C560 C566 1.465 . S
C561 C556 1.399 . S
C561 C560 1.394 . S
C561 C562 1.516 . S
C562 C561 1.516 . S
C562 C563 1.502 . S
C562 C564 1.561 . S
C562 C565 1.526 . S
C563 H547 0.959 . S
C563 H548 0.959 . S
C563 H549 0.961 . S
C563 C562 1.502 . S
C564 H550 0.960 . S
C564 H551 0.961 . S
C564 H552 0.959 . S
C564 C562 1.561 . S
C565 C562 1.526 . S
C565 C566 1.396 . S
C565 C570 1.390 . S
C566 C560 1.465 . S
C566 C565 1.396 . S
C566 C567 1.399 . S
C567 H553 0.929 . S
C567 C566 1.399 . S
C567 C568 1.385 . S
C568 H554 0.931 . S
C568 C567 1.385 . S
C568 C569 1.389 . S
C569 C568 1.389 . S
C569 C570 1.387 . S
C570 H555 0.930 . S
C570 C565 1.390 . S
C570 C569 1.387 . S
H571 C583 0.930 . S
H572 C585 0.930 . S
H573 C586 0.930 . S
H574 C590 0.959 . S
H575 C590 0.959 . S
H576 C590 0.961 . S
H577 C591 0.960 . S
H578 C591 0.961 . S
H579 C591 0.959 . S
H580 C594 0.929 . S
H581 C595 0.931 . S
H582 C597 0.930 . S
C583 H571 0.930 . S
C583 C584 1.399 . S
C583 C588 1.399 . S
C584 C583 1.399 . S
C584 C585 1.376 . S
C585 H572 0.930 . S
C585 C584 1.376 . S
C585 C586 1.388 . S
C586 H573 0.930 . S
C586 C585 1.388 . S
C586 C587 1.390 . S
C587 C586 1.390 . S
C587 C588 1.394 . S
C587 C593 1.465 . S
C588 C583 1.399 . S
C588 C587 1.394 . S
C588 C589 1.516 . S
C589 C588 1.516 . S
C589 C590 1.502 . S
C589 C591 1.561 . S
C589 C592 1.526 . S
C590 H574 0.959 . S
C590 H575 0.959 . S
C590 H576 0.961 . S
C590 C589 1.502 . S
C591 H577 0.960 . S
C591 H578 0.961 . S
C591 H579 0.959 . S
C591 C589 1.561 . S
C592 C589 1.526 . S
C592 C593 1.396 . S
C592 C597 1.390 . S
C593 C587 1.465 . S
C593 C592 1.396 . S
C593 C594 1.399 . S
C594 H580 0.929 . S
C594 C593 1.399 . S
C594 C595 1.385 . S
C595 H581 0.931 . S
C595 C594 1.385 . S
C595 C596 1.389 . S
C596 C595 1.389 . S
C596 C597 1.387 . S
C597 H582 0.930 . S
C597 C592 1.390 . S
C597 C596 1.387 . S
H598 C610 0.930 . S
H599 C612 0.930 . S
H600 C613 0.930 . S
H601 C617 0.959 . S
H602 C617 0.959 . S
H603 C617 0.961 . S
H604 C618 0.960 . S
H605 C618 0.961 . S
H606 C618 0.959 . S
H607 C621 0.929 . S
H608 C622 0.931 . S
H609 C624 0.930 . S
C610 H598 0.930 . S
C610 C611 1.399 . S
C610 C615 1.399 . S
C611 C610 1.399 . S
C611 C612 1.376 . S
C612 H599 0.930 . S
C612 C611 1.376 . S
C612 C613 1.388 . S
C613 H600 0.930 . S
C613 C612 1.388 . S
C613 C614 1.390 . S
C614 C613 1.390 . S
C614 C615 1.394 . S
C614 C620 1.465 . S
C615 C610 1.399 . S
C615 C614 1.394 . S
C615 C616 1.516 . S
C616 C615 1.516 . S
C616 C617 1.502 . S
C616 C618 1.561 . S
C616 C619 1.526 . S
C617 H601 0.959 . S
C617 H602 0.959 . S
C617 H603 0.961 . S
C617 C616 1.502 . S
C618 H604 0.960 . S
C618 H605 0.961 . S
C618 H606 0.959 . S
C618 C616 1.561 . S
C619 C616 1.526 . S
C619 C620 1.396 . S
C619 C624 1.390 . S
C620 C614 1.465 . S
C620 C619 1.396 . S
C620 C621 1.399 . S
C621 H607 0.929 . S
C621 C620 1.399 . S
C621 C622 1.385 . S
C622 H608 0.931 . S
C622 C621 1.385 . S
C622 C623 1.389 . S
C623 C622 1.389 . S
C623 C624 1.387 . S
C624 H609 0.930 . S
C624 C619 1.390 . S
C624 C623 1.387 . S
H625 C637 0.930 . S
H626 C639 0.930 . S
H627 C640 0.930 . S
H628 C644 0.959 . S
H629 C644 0.959 . S
H630 C644 0.961 . S
H631 C645 0.960 . S
H632 C645 0.961 . S
H633 C645 0.959 . S
H634 C648 0.929 . S
H635 C649 0.931 . S
H636 C651 0.930 . S
C637 H625 0.930 . S
C637 C638 1.399 . S
C637 C642 1.399 . S
C638 C637 1.399 . S
C638 C639 1.376 . S
C639 H626 0.930 . S
C639 C638 1.376 . S
C639 C640 1.388 . S
C640 H627 0.930 . S
C640 C639 1.388 . S
C640 C641 1.390 . S
C641 C640 1.390 . S
C641 C642 1.394 . S
C641 C647 1.465 . S
C642 C637 1.399 . S
C642 C641 1.394 . S
C642 C643 1.516 . S
C643 C642 1.516 . S
C643 C644 1.502 . S
C643 C645 1.561 . S
C643 C646 1.526 . S
C644 H628 0.959 . S
C644 H629 0.959 . S
C644 H630 0.961 . S
C644 C643 1.502 . S
C645 H631 0.960 . S
C645 H632 0.961 . S
C645 H633 0.959 . S
C645 C643 1.561 . S
C646 C643 1.526 . S
C646 C647 1.396 . S
C646 C651 1.390 . S
C647 C641 1.465 . S
C647 C646 1.396 . S
C647 C648 1.399 . S
C648 H634 0.929 . S
C648 C647 1.399 . S
C648 C649 1.385 . S
C649 H635 0.931 . S
C649 C648 1.385 . S
C649 C650 1.389 . S
C650 C649 1.389 . S
C650 C651 1.387 . S
C651 H636 0.930 . S
C651 C646 1.390 . S
C651 C650 1.387 . S
H652 C664 0.930 . S
H653 C666 0.930 . S
H654 C667 0.889 1_556 S
H655 C671 1.010 . S
H656 C671 0.959 . S
H657 C671 0.961 . S
H658 C672 0.960 . S
H659 C672 0.961 . S
H660 C672 0.959 . S
H661 C675 0.929 . S
H662 C676 0.931 . S
H663 C678 0.930 . S
C664 H652 0.930 . S
C664 C665 1.399 . S
C664 C669 1.399 . S
C665 C664 1.399 . S
C665 C666 1.376 . S
C666 H653 0.930 . S
C666 C665 1.376 . S
C666 C667 1.439 . S
C667 H654 0.889 1_554 S
C667 C666 1.439 . S
C667 C668 1.383 1_554 S
C668 C667 1.383 1_556 S
C668 C669 1.394 1_556 S
C668 C674 1.465 . S
C669 C664 1.399 . S
C669 C668 1.394 1_554 S
C669 C670 1.516 . S
C670 C669 1.516 . S
C670 C671 1.502 . S
C670 C672 1.561 . S
C670 C673 1.526 1_554 S
C671 H655 1.010 . S
C671 H656 0.959 . S
C671 H657 0.961 . S
C671 C670 1.502 . S
C672 H658 0.960 . S
C672 H659 0.961 . S
C672 H660 0.959 . S
C672 C670 1.561 . S
C673 C670 1.526 1_556 S
C673 C674 1.396 . S
C673 C678 1.390 . S
C674 C668 1.465 . S
C674 C673 1.396 . S
C674 C675 1.399 . S
C675 H661 0.929 . S
C675 C674 1.399 . S
C675 C676 1.385 . S
C676 H662 0.931 . S
C676 C675 1.385 . S
C676 C677 1.389 . S
C677 C676 1.389 . S
C677 C678 1.387 . S
C678 H663 0.930 . S
C678 C673 1.390 . S
C678 C677 1.387 . S
H679 C691 0.930 . S
H680 C693 0.930 . S
H681 C694 0.930 . S
H682 C698 0.959 . S
H683 C698 0.959 . S
H684 C698 0.961 . S
H685 C699 0.960 . S
H686 C699 0.961 . S
H687 C699 0.959 . S
H688 C702 0.876 1_556 S
H689 C703 0.931 . S
H690 C705 0.930 . S
C691 H679 0.930 . S
C691 C692 1.399 . S
C691 C696 1.399 . S
C692 C691 1.399 . S
C692 C693 1.376 . S
C693 H680 0.930 . S
C693 C692 1.376 . S
C693 C694 1.388 . S
C694 H681 0.930 . S
C694 C693 1.388 . S
C694 C695 1.390 . S
C695 C694 1.390 . S
C695 C696 1.394 . S
C695 C701 1.465 1_556 S
C696 C691 1.399 . S
C696 C695 1.394 . S
C696 C697 1.516 1_556 S
C697 C696 1.516 1_554 S
C697 C698 1.502 . S
C697 C699 1.561 . S
C697 C700 1.526 . S
C698 H682 0.959 . S
C698 H683 0.959 . S
C698 H684 0.961 . S
C698 C697 1.502 . S
C699 H685 0.960 . S
C699 H686 0.961 . S
C699 H687 0.959 . S
C699 C697 1.561 . S
C700 C697 1.526 . S
C700 C701 1.396 . S
C700 C705 1.390 . S
C701 C695 1.465 1_554 S
C701 C700 1.396 . S
C701 C702 1.399 . S
C702 H688 0.876 1_554 S
C702 C701 1.399 . S
C702 C703 1.385 . S
C703 H689 0.931 . S
C703 C702 1.385 . S
C703 C704 1.389 . S
C704 C703 1.389 . S
C704 C705 1.387 . S
C705 H690 0.930 . S
C705 C700 1.390 . S
C705 C704 1.387 . S
H706 C718 0.930 . S
H707 C720 0.930 . S
H708 C721 0.930 . S
H709 C725 0.949 1_554 S
H710 C725 0.950 1_554 S
H711 C725 0.973 . S
H712 C726 0.960 . S
H713 C726 0.961 . S
H714 C726 0.959 . S
H715 C729 0.929 . S
H716 C730 0.931 . S
H717 C732 0.930 . S
C718 H706 0.930 . S
C718 C719 1.399 . S
C718 C723 1.399 . S
C719 C718 1.399 . S
C719 C720 1.376 . S
C720 H707 0.930 . S
C720 C719 1.376 . S
C720 C721 1.388 . S
C721 H708 0.930 . S
C721 C720 1.388 . S
C721 C722 1.390 . S
C722 C721 1.390 . S
C722 C723 1.394 . S
C722 C728 1.465 1_556 S
C723 C718 1.399 . S
C723 C722 1.394 . S
C723 C724 1.516 . S
C724 C723 1.516 . S
C724 C725 1.509 . S
C724 C726 1.561 . S
C724 C727 1.526 1_556 S
C725 H709 0.949 1_556 S
C725 H710 0.950 1_556 S
C725 H711 0.973 . S
C725 C724 1.509 . S
C726 H712 0.960 . S
C726 H713 0.961 . S
C726 H714 0.959 . S
C726 C724 1.561 . S
C727 C724 1.526 1_554 S
C727 C728 1.396 . S
C727 C732 1.390 . S
C728 C722 1.465 1_554 S
C728 C727 1.396 . S
C728 C729 1.399 . S
C729 H715 0.929 . S
C729 C728 1.399 . S
C729 C730 1.385 . S
C730 H716 0.931 . S
C730 C729 1.385 . S
C730 C731 1.389 . S
C731 C730 1.389 . S
C731 C732 1.387 . S
C732 H717 0.930 . S
C732 C727 1.390 . S
C732 C731 1.387 . S
H733 C745 0.930 . S
H734 C747 0.930 . S
H735 C748 0.930 . S
H736 C752 0.959 . S
H737 C752 0.959 . S
H738 C752 0.959 1_554 S
H739 C753 0.960 . S
H740 C753 0.961 . S
H741 C753 0.959 . S
H742 C756 0.929 . S
H743 C757 0.931 . S
H744 C759 0.930 . S
C745 H733 0.930 . S
C745 C746 1.399 . S
C745 C750 1.399 . S
C746 C745 1.399 . S
C746 C747 1.376 . S
C747 H734 0.930 . S
C747 C746 1.376 . S
C747 C748 1.388 . S
C748 H735 0.930 . S
C748 C747 1.388 . S
C748 C749 1.390 . S
C749 C748 1.390 . S
C749 C750 1.394 . S
C749 C755 1.469 . S
C750 C745 1.399 . S
C750 C749 1.394 . S
C750 C751 1.516 . S
C751 C750 1.516 . S
C751 C752 1.502 1_554 S
C751 C753 1.561 . S
C751 C754 1.526 1_554 S
C752 H736 0.959 . S
C752 H737 0.959 . S
C752 H738 0.959 1_556 S
C752 C751 1.502 1_556 S
C753 H739 0.960 . S
C753 H740 0.961 . S
C753 H741 0.959 . S
C753 C751 1.561 . S
C754 C751 1.526 1_556 S
C754 C755 1.394 1_556 S
C754 C759 1.390 . S
C755 C749 1.469 . S
C755 C754 1.394 1_554 S
C755 C756 1.397 1_554 S
C756 H742 0.929 . S
C756 C755 1.397 1_556 S
C756 C757 1.385 . S
C757 H743 0.931 . S
C757 C756 1.385 . S
C757 C758 1.389 . S
C758 C757 1.389 . S
C758 C759 1.387 . S
C759 H744 0.930 . S
C759 C754 1.390 . S
C759 C758 1.387 . S
H760 C772 0.930 . S
H761 C774 0.930 . S
H762 C775 0.930 . S
H763 C779 0.959 . S
H764 C779 0.959 . S
H765 C779 0.961 . S
H766 C780 0.960 . S
H767 C780 0.961 . S
H768 C780 0.959 . S
H769 C783 0.929 . S
H770 C784 0.931 . S
H771 C786 0.930 . S
C772 H760 0.930 . S
C772 C773 1.399 . S
C772 C777 1.399 . S
C773 C772 1.399 . S
C773 C774 1.376 . S
C774 H761 0.930 . S
C774 C773 1.376 . S
C774 C775 1.388 . S
C775 H762 0.930 . S
C775 C774 1.388 . S
C775 C776 1.390 . S
C776 C775 1.390 . S
C776 C777 1.394 . S
C776 C782 1.465 . S
C777 C772 1.399 . S
C777 C776 1.394 . S
C777 C778 1.516 . S
C778 C777 1.516 . S
C778 C779 1.502 . S
C778 C780 1.561 . S
C778 C781 1.526 . S
C779 H763 0.959 . S
C779 H764 0.959 . S
C779 H765 0.961 . S
C779 C778 1.502 . S
C780 H766 0.960 . S
C780 H767 0.961 . S
C780 H768 0.959 . S
C780 C778 1.561 . S
C781 C778 1.526 . S
C781 C782 1.396 . S
C781 C786 1.390 . S
C782 C776 1.465 . S
C782 C781 1.396 . S
C782 C783 1.399 . S
C783 H769 0.929 . S
C783 C782 1.399 . S
C783 C784 1.385 . S
C784 H770 0.931 . S
C784 C783 1.385 . S
C784 C785 1.389 . S
C785 C784 1.389 . S
C785 C786 1.387 . S
C786 H771 0.930 . S
C786 C781 1.390 . S
C786 C785 1.387 . S
H787 C799 0.930 . S
H788 C801 0.930 . S
H789 C802 0.930 . S
H790 C806 0.959 . S
H791 C806 0.959 . S
H792 C806 0.961 . S
H793 C807 0.960 . S
H794 C807 0.961 . S
H795 C807 0.959 . S
H796 C810 0.929 . S
H797 C811 0.931 . S
H798 C813 0.930 . S
C799 H787 0.930 . S
C799 C800 1.399 . S
C799 C804 1.399 . S
C800 C799 1.399 . S
C800 C801 1.376 . S
C801 H788 0.930 . S
C801 C800 1.376 . S
C801 C802 1.388 . S
C802 H789 0.930 . S
C802 C801 1.388 . S
C802 C803 1.390 . S
C803 C802 1.390 . S
C803 C804 1.394 . S
C803 C809 1.465 . S
C804 C799 1.399 . S
C804 C803 1.394 . S
C804 C805 1.516 . S
C805 C804 1.516 . S
C805 C806 1.502 . S
C805 C807 1.561 . S
C805 C808 1.526 . S
C806 H790 0.959 . S
C806 H791 0.959 . S
C806 H792 0.961 . S
C806 C805 1.502 . S
C807 H793 0.960 . S
C807 H794 0.961 . S
C807 H795 0.959 . S
C807 C805 1.561 . S
C808 C805 1.526 . S
C808 C809 1.396 . S
C808 C813 1.390 . S
C809 C803 1.465 . S
C809 C808 1.396 . S
C809 C810 1.399 . S
C810 H796 0.929 . S
C810 C809 1.399 . S
C810 C811 1.385 . S
C811 H797 0.931 . S
C811 C810 1.385 . S
C811 C812 1.389 . S
C812 C811 1.389 . S
C812 C813 1.387 . S
C813 H798 0.930 . S
C813 C808 1.390 . S
C813 C812 1.387 . S
H814 C826 0.930 . S
H815 C828 0.930 . S
H816 C829 0.930 . S
H817 C833 0.959 . S
H818 C833 0.959 . S
H819 C833 0.961 . S
H820 C834 0.960 . S
H821 C834 0.961 . S
H822 C834 0.959 . S
H823 C837 0.929 . S
H824 C838 0.931 . S
H825 C840 0.930 . S
C826 H814 0.930 . S
C826 C827 1.399 . S
C826 C831 1.399 . S
C827 C826 1.399 . S
C827 C828 1.376 . S
C828 H815 0.930 . S
C828 C827 1.376 . S
C828 C829 1.388 . S
C829 H816 0.930 . S
C829 C828 1.388 . S
C829 C830 1.390 . S
C830 C829 1.390 . S
C830 C831 1.394 . S
C830 C836 1.465 . S
C831 C826 1.399 . S
C831 C830 1.394 . S
C831 C832 1.516 . S
C832 C831 1.516 . S
C832 C833 1.502 . S
C832 C834 1.561 . S
C832 C835 1.526 . S
C833 H817 0.959 . S
C833 H818 0.959 . S
C833 H819 0.961 . S
C833 C832 1.502 . S
C834 H820 0.960 . S
C834 H821 0.961 . S
C834 H822 0.959 . S
C834 C832 1.561 . S
C835 C832 1.526 . S
C835 C836 1.396 . S
C835 C840 1.390 . S
C836 C830 1.465 . S
C836 C835 1.396 . S
C836 C837 1.399 . S
C837 H823 0.929 . S
C837 C836 1.399 . S
C837 C838 1.385 . S
C838 H824 0.931 . S
C838 C837 1.385 . S
C838 C839 1.389 . S
C839 C838 1.389 . S
C839 C840 1.387 . S
C840 H825 0.930 . S
C840 C835 1.390 . S
C840 C839 1.387 . S
H841 C853 0.930 . S
H842 C855 0.930 . S
H843 C856 0.930 . S
H844 C860 0.959 . S
H845 C860 0.959 . S
H846 C860 0.961 . S
H847 C861 0.960 . S
H848 C861 0.961 . S
H849 C861 0.959 . S
H850 C864 0.929 . S
H851 C865 0.931 . S
H852 C867 0.930 . S
C853 H841 0.930 . S
C853 C854 1.399 . S
C853 C858 1.399 . S
C854 C853 1.399 . S
C854 C855 1.376 . S
C855 H842 0.930 . S
C855 C854 1.376 . S
C855 C856 1.388 . S
C856 H843 0.930 . S
C856 C855 1.388 . S
C856 C857 1.390 . S
C857 C856 1.390 . S
C857 C858 1.394 . S
C857 C863 1.465 . S
C858 C853 1.399 . S
C858 C857 1.394 . S
C858 C859 1.516 . S
C859 C858 1.516 . S
C859 C860 1.502 . S
C859 C861 1.561 . S
C859 C862 1.526 . S
C860 H844 0.959 . S
C860 H845 0.959 . S
C860 H846 0.961 . S
C860 C859 1.502 . S
C861 H847 0.960 . S
C861 H848 0.961 . S
C861 H849 0.959 . S
C861 C859 1.561 . S
C862 C859 1.526 . S
C862 C863 1.396 . S
C862 C867 1.390 . S
C863 C857 1.465 . S
C863 C862 1.396 . S
C863 C864 1.399 . S
C864 H850 0.929 . S
C864 C863 1.399 . S
C864 C865 1.385 . S
C865 H851 0.931 . S
C865 C864 1.385 . S
C865 C866 1.389 . S
C866 C865 1.389 . S
C866 C867 1.387 . S
C867 H852 0.930 . S
C867 C862 1.390 . S
C867 C866 1.387 . S
H868 C880 0.930 . S
H869 C882 0.930 . S
H870 C883 0.930 . S
H871 C887 0.959 . S
H872 C887 0.959 . S
H873 C887 0.961 . S
H874 C888 0.960 . S
H875 C888 0.961 . S
H876 C888 0.959 . S
H877 C891 0.929 . S
H878 C892 0.931 . S
H879 C894 0.930 . S
C880 H868 0.930 . S
C880 C881 1.399 . S
C880 C885 1.399 . S
C881 C880 1.399 . S
C881 C882 1.376 . S
C882 H869 0.930 . S
C882 C881 1.376 . S
C882 C883 1.388 . S
C883 H870 0.930 . S
C883 C882 1.388 . S
C883 C884 1.390 . S
C884 C883 1.390 . S
C884 C885 1.394 . S
C884 C890 1.465 . S
C885 C880 1.399 . S
C885 C884 1.394 . S
C885 C886 1.516 . S
C886 C885 1.516 . S
C886 C887 1.502 . S
C886 C888 1.561 . S
C886 C889 1.526 . S
C887 H871 0.959 . S
C887 H872 0.959 . S
C887 H873 0.961 . S
C887 C886 1.502 . S
C888 H874 0.960 . S
C888 H875 0.961 . S
C888 H876 0.959 . S
C888 C886 1.561 . S
C889 C886 1.526 . S
C889 C890 1.396 . S
C889 C894 1.390 . S
C890 C884 1.465 . S
C890 C889 1.396 . S
C890 C891 1.399 . S
C891 H877 0.929 . S
C891 C890 1.399 . S
C891 C892 1.385 . S
C892 H878 0.931 . S
C892 C891 1.385 . S
C892 C893 1.389 . S
C893 C892 1.389 . S
C893 C894 1.387 . S
C894 H879 0.930 . S
C894 C889 1.390 . S
C894 C893 1.387 . S
H895 C907 0.930 . S
H896 C909 0.930 . S
H897 C910 0.930 . S
H898 C914 0.959 . S
H899 C914 0.959 . S
H900 C914 0.961 . S
H901 C915 0.960 . S
H902 C915 0.961 . S
H903 C915 0.959 . S
H904 C918 0.929 . S
H905 C919 0.931 . S
H906 C921 0.930 . S
C907 H895 0.930 . S
C907 C908 1.399 . S
C907 C912 1.399 . S
C908 C907 1.399 . S
C908 C909 1.376 . S
C909 H896 0.930 . S
C909 C908 1.376 . S
C909 C910 1.388 . S
C910 H897 0.930 . S
C910 C909 1.388 . S
C910 C911 1.390 . S
C911 C910 1.390 . S
C911 C912 1.394 . S
C911 C917 1.465 . S
C912 C907 1.399 . S
C912 C911 1.394 . S
C912 C913 1.516 . S
C913 C912 1.516 . S
C913 C914 1.502 . S
C913 C915 1.561 . S
C913 C916 1.526 . S
C914 H898 0.959 . S
C914 H899 0.959 . S
C914 H900 0.961 . S
C914 C913 1.502 . S
C915 H901 0.960 . S
C915 H902 0.961 . S
C915 H903 0.959 . S
C915 C913 1.561 . S
C916 C913 1.526 . S
C916 C917 1.396 . S
C916 C921 1.390 . S
C917 C911 1.465 . S
C917 C916 1.396 . S
C917 C918 1.399 . S
C918 H904 0.929 . S
C918 C917 1.399 . S
C918 C919 1.385 . S
C919 H905 0.931 . S
C919 C918 1.385 . S
C919 C920 1.389 . S
C920 C919 1.389 . S
C920 C921 1.387 . S
C921 H906 0.930 . S
C921 C916 1.390 . S
C921 C920 1.387 . S
H922 C934 0.930 . S
H923 C936 0.930 . S
H924 C937 0.930 . S
H925 C941 0.959 . S
H926 C941 0.959 . S
H927 C941 0.961 . S
H928 C942 0.960 . S
H929 C942 0.961 . S
H930 C942 0.959 . S
H931 C945 0.929 . S
H932 C946 0.931 . S
H933 C948 0.930 . S
C934 H922 0.930 . S
C934 C935 1.399 . S
C934 C939 1.399 . S
C935 C934 1.399 . S
C935 C936 1.376 . S
C936 H923 0.930 . S
C936 C935 1.376 . S
C936 C937 1.388 . S
C937 H924 0.930 . S
C937 C936 1.388 . S
C937 C938 1.390 . S
C938 C937 1.390 . S
C938 C939 1.394 . S
C938 C944 1.465 . S
C939 C934 1.399 . S
C939 C938 1.394 . S
C939 C940 1.516 . S
C940 C939 1.516 . S
C940 C941 1.502 . S
C940 C942 1.561 . S
C940 C943 1.526 . S
C941 H925 0.959 . S
C941 H926 0.959 . S
C941 H927 0.961 . S
C941 C940 1.502 . S
C942 H928 0.960 . S
C942 H929 0.961 . S
C942 H930 0.959 . S
C942 C940 1.561 . S
C943 C940 1.526 . S
C943 C944 1.396 . S
C943 C948 1.390 . S
C944 C938 1.465 . S
C944 C943 1.396 . S
C944 C945 1.399 . S
C945 H931 0.929 . S
C945 C944 1.399 . S
C945 C946 1.385 . S
C946 H932 0.931 . S
C946 C945 1.385 . S
C946 C947 1.389 . S
C947 C946 1.389 . S
C947 C948 1.387 . S
C948 H933 0.930 . S
C948 C943 1.390 . S
C948 C947 1.387 . S
H949 C961 0.930 . S
H950 C963 0.930 . S
H951 C964 0.930 . S
H952 C968 0.959 . S
H953 C968 0.959 . S
H954 C968 0.961 . S
H955 C969 0.960 . S
H956 C969 0.961 . S
H957 C969 0.959 . S
H958 C972 0.929 . S
H959 C973 0.931 . S
H960 C975 0.930 . S
C961 H949 0.930 . S
C961 C962 1.399 . S
C961 C966 1.399 . S
C962 C961 1.399 . S
C962 C963 1.376 . S
C963 H950 0.930 . S
C963 C962 1.376 . S
C963 C964 1.388 . S
C964 H951 0.930 . S
C964 C963 1.388 . S
C964 C965 1.390 . S
C965 C964 1.390 . S
C965 C966 1.394 . S
C965 C971 1.465 . S
C966 C961 1.399 . S
C966 C965 1.394 . S
C966 C967 1.516 . S
C967 C966 1.516 . S
C967 C968 1.502 . S
C967 C969 1.561 . S
C967 C970 1.526 . S
C968 H952 0.959 . S
C968 H953 0.959 . S
C968 H954 0.961 . S
C968 C967 1.502 . S
C969 H955 0.960 . S
C969 H956 0.961 . S
C969 H957 0.959 . S
C969 C967 1.561 . S
C970 C967 1.526 . S
C970 C971 1.396 . S
C970 C975 1.390 . S
C971 C965 1.465 . S
C971 C970 1.396 . S
C971 C972 1.399 . S
C972 H958 0.929 . S
C972 C971 1.399 . S
C972 C973 1.385 . S
C973 H959 0.931 . S
C973 C972 1.385 . S
C973 C974 1.389 . S
C974 C973 1.389 . S
C974 C975 1.387 . S
C975 H960 0.930 . S
C975 C970 1.390 . S
C975 C974 1.387 . S
H976 C988 0.930 1_655 S
H977 C990 0.930 . S
H978 C991 0.930 . S
H979 C995 0.959 . S
H980 C995 0.959 1_565 S
H981 C995 0.961 . S
H982 C996 0.983 . S
H983 C996 0.943 1_565 S
H984 C996 0.951 1_465 S
H985 C999 0.929 . S
H986 C1000 0.931 . S
H987 C1002 0.930 . S
C988 H976 0.930 1_455 S
C988 C989 1.399 . S
C988 C993 1.399 1_455 S
C989 C988 1.399 . S
C989 C990 1.376 . S
C990 H977 0.930 . S
C990 C989 1.376 . S
C990 C991 1.388 . S
C991 H978 0.930 . S
C991 C990 1.388 . S
C991 C992 1.390 . S
C992 C991 1.390 . S
C992 C993 1.394 1_455 S
C992 C998 1.465 1_545 S
C993 C988 1.399 1_655 S
C993 C992 1.394 1_655 S
C993 C994 1.516 . S
C994 C993 1.516 . S
C994 C995 1.502 . S
C994 C996 1.564 . S
C994 C997 1.526 1_545 S
C995 H979 0.959 . S
C995 H980 0.959 1_545 S
C995 H981 0.961 . S
C995 C994 1.502 . S
C996 H982 0.983 . S
C996 H983 0.943 1_545 S
C996 H984 0.951 1_645 S
C996 C994 1.564 . S
C997 C994 1.526 1_565 S
C997 C998 1.396 1_655 S
C997 C1002 1.390 . S
C998 C992 1.465 1_565 S
C998 C997 1.396 1_455 S
C998 C999 1.399 . S
C999 H985 0.929 . S
C999 C998 1.399 . S
C999 C1000 1.385 . S
C1000 H986 0.931 . S
C1000 C999 1.385 . S
C1000 C1001 1.389 1_455 S
C1001 C1000 1.389 1_655 S
C1001 C1002 1.387 . S
C1002 H987 0.930 . S
C1002 C997 1.390 . S
C1002 C1001 1.387 . S
H1003 C1015 0.929 . S
H1004 C1017 0.930 . S
H1005 C1018 0.930 . S
H1006 C1022 0.959 . S
H1007 C1022 0.959 1_655 S
H1008 C1022 0.961 . S
H1009 C1023 0.960 1_455 S
H1010 C1023 0.961 . S
H1011 C1023 0.959 . S
H1012 C1026 0.929 . S
H1013 C1027 0.933 . S
H1014 C1029 0.930 . S
C1015 H1003 0.929 . S
C1015 C1016 1.399 . S
C1015 C1020 1.399 . S
C1016 C1015 1.399 . S
C1016 C1017 1.376 . S
C1017 H1004 0.930 . S
C1017 C1016 1.376 . S
C1017 C1018 1.388 . S
C1018 H1005 0.930 . S
C1018 C1017 1.388 . S
C1018 C1019 1.390 . S
C1019 C1018 1.390 . S
C1019 C1020 1.394 . S
C1019 C1025 1.465 1_455 S
C1020 C1015 1.399 . S
C1020 C1019 1.394 . S
C1020 C1021 1.516 1_565 S
C1021 C1020 1.516 1_545 S
C1021 C1022 1.502 . S
C1021 C1023 1.561 1_445 S
C1021 C1024 1.526 1_455 S
C1022 H1006 0.959 . S
C1022 H1007 0.959 1_455 S
C1022 H1008 0.961 . S
C1022 C1021 1.502 . S
C1023 H1009 0.960 1_655 S
C1023 H1010 0.961 . S
C1023 H1011 0.959 . S
C1023 C1021 1.561 1_665 S
C1024 C1021 1.526 1_655 S
C1024 C1025 1.396 1_545 S
C1024 C1029 1.390 . S
C1025 C1019 1.465 1_655 S
C1025 C1024 1.396 1_565 S
C1025 C1026 1.399 . S
C1026 H1012 0.929 . S
C1026 C1025 1.399 . S
C1026 C1027 1.385 1_565 S
C1027 H1013 0.933 . S
C1027 C1026 1.385 1_545 S
C1027 C1028 1.389 . S
C1028 C1027 1.389 . S
C1028 C1029 1.387 . S
C1029 H1014 0.930 . S
C1029 C1024 1.390 . S
C1029 C1028 1.387 . S
H1030 C1042 0.930 . S
H1031 C1044 0.930 1_455 S
H1032 C1045 0.930 . S
H1033 C1049 0.959 . S
H1034 C1049 0.959 . S
H1035 C1049 0.961 . S
H1036 C1050 0.960 . S
H1037 C1050 0.961 . S
H1038 C1050 0.959 . S
H1039 C1053 0.929 . S
H1040 C1054 0.931 . S
H1041 C1056 0.931 . S
C1042 H1030 0.930 . S
C1042 C1043 1.399 . S
C1042 C1047 1.399 . S
C1043 C1042 1.399 . S
C1043 C1044 1.377 . S
C1044 H1031 0.930 1_655 S
C1044 C1043 1.377 . S
C1044 C1045 1.388 1_655 S
C1045 H1032 0.930 . S
C1045 C1044 1.388 1_455 S
C1045 C1046 1.390 . S
C1046 C1045 1.390 . S
C1046 C1047 1.394 1_455 S
C1046 C1052 1.465 . S
C1047 C1042 1.399 . S
C1047 C1046 1.394 1_655 S
C1047 C1048 1.516 . S
C1048 C1047 1.516 . S
C1048 C1049 1.502 . S
C1048 C1050 1.561 1_655 S
C1048 C1051 1.526 1_655 S
C1049 H1033 0.959 . S
C1049 H1034 0.959 . S
C1049 H1035 0.961 . S
C1049 C1048 1.502 . S
C1050 H1036 0.960 . S
C1050 H1037 0.961 . S
C1050 H1038 0.959 . S
C1050 C1048 1.561 1_455 S
C1051 C1048 1.526 1_455 S
C1051 C1052 1.396 . S
C1051 C1056 1.390 . S
C1052 C1046 1.465 . S
C1052 C1051 1.396 . S
C1052 C1053 1.399 . S
C1053 H1039 0.929 . S
C1053 C1052 1.399 . S
C1053 C1054 1.385 . S
C1054 H1040 0.931 . S
C1054 C1053 1.385 . S
C1054 C1055 1.389 . S
C1055 C1054 1.389 . S
C1055 C1056 1.387 . S
C1056 H1041 0.931 . S
C1056 C1051 1.390 . S
C1056 C1055 1.387 . S
H1057 C1069 0.930 . S
H1058 C1071 0.930 . S
H1059 C1072 0.930 . S
H1060 C1076 0.959 . S
H1061 C1076 0.959 . S
H1062 C1076 0.961 . S
H1063 C1077 0.960 . S
H1064 C1077 0.961 . S
H1065 C1077 0.959 . S
H1066 C1080 0.929 . S
H1067 C1081 0.931 . S
H1068 C1083 0.930 . S
C1069 H1057 0.930 . S
C1069 C1070 1.399 . S
C1069 C1074 1.399 . S
C1070 C1069 1.399 . S
C1070 C1071 1.376 . S
C1071 H1058 0.930 . S
C1071 C1070 1.376 . S
C1071 C1072 1.388 . S
C1072 H1059 0.930 . S
C1072 C1071 1.388 . S
C1072 C1073 1.390 . S
C1073 C1072 1.390 . S
C1073 C1074 1.394 . S
C1073 C1079 1.465 . S
C1074 C1069 1.399 . S
C1074 C1073 1.394 . S
C1074 C1075 1.516 1_545 S
C1075 C1074 1.516 1_565 S
C1075 C1076 1.502 . S
C1075 C1077 1.561 1_565 S
C1075 C1078 1.526 . S
C1076 H1060 0.959 . S
C1076 H1061 0.959 . S
C1076 H1062 0.961 . S
C1076 C1075 1.502 . S
C1077 H1063 0.960 . S
C1077 H1064 0.961 . S
C1077 H1065 0.959 . S
C1077 C1075 1.561 1_545 S
C1078 C1075 1.526 . S
C1078 C1079 1.396 1_565 S
C1078 C1083 1.390 . S
C1079 C1073 1.465 . S
C1079 C1078 1.396 1_545 S
C1079 C1080 1.399 . S
C1080 H1066 0.929 . S
C1080 C1079 1.399 . S
C1080 C1081 1.385 1_545 S
C1081 H1067 0.931 . S
C1081 C1080 1.385 1_565 S
C1081 C1082 1.389 . S
C1082 C1081 1.389 . S
C1082 C1083 1.387 . S
C1083 H1068 0.930 . S
C1083 C1078 1.390 . S
C1083 C1082 1.387 . S
H1084 C1096 0.930 . S
H1085 C1098 0.930 . S
H1086 C1099 0.930 . S
H1087 C1103 0.959 . S
H1088 C1103 0.959 . S
H1089 C1103 0.961 . S
H1090 C1104 0.960 . S
H1091 C1104 0.961 . S
H1092 C1104 0.959 . S
H1093 C1107 0.929 . S
H1094 C1108 0.931 . S
H1095 C1110 0.930 . S
C1096 H1084 0.930 . S
C1096 C1097 1.399 . S
C1096 C1101 1.399 . S
C1097 C1096 1.399 . S
C1097 C1098 1.376 . S
C1098 H1085 0.930 . S
C1098 C1097 1.376 . S
C1098 C1099 1.388 . S
C1099 H1086 0.930 . S
C1099 C1098 1.388 . S
C1099 C1100 1.390 . S
C1100 C1099 1.390 . S
C1100 C1101 1.394 . S
C1100 C1106 1.465 . S
C1101 C1096 1.399 . S
C1101 C1100 1.394 . S
C1101 C1102 1.516 . S
C1102 C1101 1.516 . S
C1102 C1103 1.502 . S
C1102 C1104 1.561 . S
C1102 C1105 1.526 . S
C1103 H1087 0.959 . S
C1103 H1088 0.959 . S
C1103 H1089 0.961 . S
C1103 C1102 1.502 . S
C1104 H1090 0.960 . S
C1104 H1091 0.961 . S
C1104 H1092 0.959 . S
C1104 C1102 1.561 . S
C1105 C1102 1.526 . S
C1105 C1106 1.396 . S
C1105 C1110 1.390 . S
C1106 C1100 1.465 . S
C1106 C1105 1.396 . S
C1106 C1107 1.399 . S
C1107 H1093 0.929 . S
C1107 C1106 1.399 . S
C1107 C1108 1.385 . S
C1108 H1094 0.931 . S
C1108 C1107 1.385 . S
C1108 C1109 1.389 . S
C1109 C1108 1.389 . S
C1109 C1110 1.387 . S
C1110 H1095 0.930 . S
C1110 C1105 1.390 . S
C1110 C1109 1.387 . S
H1111 C1123 0.930 . S
H1112 C1125 0.930 . S
H1113 C1126 0.930 . S
H1114 C1130 0.959 . S
H1115 C1130 0.959 . S
H1116 C1130 0.961 . S
H1117 C1131 0.960 . S
H1118 C1131 0.961 . S
H1119 C1131 0.959 . S
H1120 C1134 0.929 . S
H1121 C1135 0.931 . S
H1122 C1137 0.930 . S
C1123 H1111 0.930 . S
C1123 C1124 1.399 . S
C1123 C1128 1.399 . S
C1124 C1123 1.399 . S
C1124 C1125 1.376 . S
C1125 H1112 0.930 . S
C1125 C1124 1.376 . S
C1125 C1126 1.388 . S
C1126 H1113 0.930 . S
C1126 C1125 1.388 . S
C1126 C1127 1.390 . S
C1127 C1126 1.390 . S
C1127 C1128 1.394 . S
C1127 C1133 1.465 . S
C1128 C1123 1.399 . S
C1128 C1127 1.394 . S
C1128 C1129 1.516 . S
C1129 C1128 1.516 . S
C1129 C1130 1.502 . S
C1129 C1131 1.561 . S
C1129 C1132 1.526 . S
C1130 H1114 0.959 . S
C1130 H1115 0.959 . S
C1130 H1116 0.961 . S
C1130 C1129 1.502 . S
C1131 H1117 0.960 . S
C1131 H1118 0.961 . S
C1131 H1119 0.959 . S
C1131 C1129 1.561 . S
C1132 C1129 1.526 . S
C1132 C1133 1.396 . S
C1132 C1137 1.390 . S
C1133 C1127 1.465 . S
C1133 C1132 1.396 . S
C1133 C1134 1.399 . S
C1134 H1120 0.929 . S
C1134 C1133 1.399 . S
C1134 C1135 1.385 . S
C1135 H1121 0.931 . S
C1135 C1134 1.385 . S
C1135 C1136 1.389 . S
C1136 C1135 1.389 . S
C1136 C1137 1.387 . S
C1137 H1122 0.930 . S
C1137 C1132 1.390 . S
C1137 C1136 1.387 . S
H1138 C1150 0.930 . S
H1139 C1152 0.930 . S
H1140 C1153 0.930 . S
H1141 C1157 0.959 . S
H1142 C1157 0.959 . S
H1143 C1157 0.961 1_565 S
H1144 C1158 0.960 . S
H1145 C1158 0.961 1_545 S
H1146 C1158 0.959 . S
H1147 C1161 0.929 . S
H1148 C1162 0.931 . S
H1149 C1164 0.930 . S
C1150 H1138 0.930 . S
C1150 C1151 1.399 . S
C1150 C1155 1.399 . S
C1151 C1150 1.399 . S
C1151 C1152 1.376 . S
C1152 H1139 0.930 . S
C1152 C1151 1.376 . S
C1152 C1153 1.388 . S
C1153 H1140 0.930 . S
C1153 C1152 1.388 . S
C1153 C1154 1.390 . S
C1154 C1153 1.390 . S
C1154 C1155 1.394 . S
C1154 C1160 1.465 1_565 S
C1155 C1150 1.399 . S
C1155 C1154 1.394 . S
C1155 C1156 1.516 1_565 S
C1156 C1155 1.516 1_545 S
C1156 C1157 1.502 . S
C1156 C1158 1.561 1_545 S
C1156 C1159 1.526 . S
C1157 H1141 0.959 . S
C1157 H1142 0.959 . S
C1157 H1143 0.961 1_545 S
C1157 C1156 1.502 . S
C1158 H1144 0.960 . S
C1158 H1145 0.961 1_565 S
C1158 H1146 0.959 . S
C1158 C1156 1.561 1_565 S
C1159 C1156 1.526 . S
C1159 C1160 1.396 . S
C1159 C1164 1.390 . S
C1160 C1154 1.465 1_545 S
C1160 C1159 1.396 . S
C1160 C1161 1.399 . S
C1161 H1147 0.929 . S
C1161 C1160 1.399 . S
C1161 C1162 1.385 . S
C1162 H1148 0.931 . S
C1162 C1161 1.385 . S
C1162 C1163 1.389 . S
C1163 C1162 1.389 . S
C1163 C1164 1.387 . S
C1164 H1149 0.930 . S
C1164 C1159 1.390 . S
C1164 C1163 1.387 . S
H1165 C1177 0.930 . S
H1166 C1179 0.930 . S
H1167 C1180 0.930 . S
H1168 C1184 0.959 . S
H1169 C1184 0.959 1_655 S
H1170 C1184 0.961 . S
H1171 C1185 0.960 1_455 S
H1172 C1185 0.961 . S
H1173 C1185 0.959 . S
H1174 C1188 0.929 . S
H1175 C1189 0.931 . S
H1176 C1191 0.930 . S
C1177 H1165 0.930 . S
C1177 C1178 1.399 . S
C1177 C1182 1.399 . S
C1178 C1177 1.399 . S
C1178 C1179 1.376 . S
C1179 H1166 0.930 . S
C1179 C1178 1.376 . S
C1179 C1180 1.388 . S
C1180 H1167 0.930 . S
C1180 C1179 1.388 . S
C1180 C1181 1.390 . S
C1181 C1180 1.390 . S
C1181 C1182 1.394 . S
C1181 C1187 1.465 1_455 S
C1182 C1177 1.399 . S
C1182 C1181 1.394 . S
C1182 C1183 1.516 . S
C1183 C1182 1.516 . S
C1183 C1184 1.502 . S
C1183 C1185 1.561 1_455 S
C1183 C1186 1.526 1_455 S
C1184 H1168 0.959 . S
C1184 H1169 0.959 1_455 S
C1184 H1170 0.961 . S
C1184 C1183 1.502 . S
C1185 H1171 0.960 1_655 S
C1185 H1172 0.961 . S
C1185 H1173 0.959 . S
C1185 C1183 1.561 1_655 S
C1186 C1183 1.526 1_655 S
C1186 C1187 1.396 . S
C1186 C1191 1.390 . S
C1187 C1181 1.465 1_655 S
C1187 C1186 1.396 . S
C1187 C1188 1.399 . S
C1188 H1174 0.929 . S
C1188 C1187 1.399 . S
C1188 C1189 1.385 . S
C1189 H1175 0.931 . S
C1189 C1188 1.385 . S
C1189 C1190 1.389 . S
C1190 C1189 1.389 . S
C1190 C1191 1.387 . S
C1191 H1176 0.930 . S
C1191 C1186 1.390 . S
C1191 C1190 1.387 . S
H1192 C1204 0.930 . S
H1193 C1206 0.930 . S
H1194 C1207 0.930 . S
H1195 C1211 0.959 . S
H1196 C1211 0.959 . S
H1197 C1211 0.961 . S
H1198 C1212 0.960 . S
H1199 C1212 0.961 . S
H1200 C1212 0.959 . S
H1201 C1215 0.929 . S
H1202 C1216 0.931 . S
H1203 C1218 0.930 . S
C1204 H1192 0.930 . S
C1204 C1205 1.399 . S
C1204 C1209 1.399 . S
C1205 C1204 1.399 . S
C1205 C1206 1.376 1_655 S
C1206 H1193 0.930 . S
C1206 C1205 1.376 1_455 S
C1206 C1207 1.388 . S
C1207 H1194 0.930 . S
C1207 C1206 1.388 . S
C1207 C1208 1.390 . S
C1208 C1207 1.390 . S
C1208 C1209 1.394 1_455 S
C1208 C1214 1.465 . S
C1209 C1204 1.399 . S
C1209 C1208 1.394 1_655 S
C1209 C1210 1.516 . S
C1210 C1209 1.516 . S
C1210 C1211 1.502 . S
C1210 C1212 1.561 1_655 S
C1210 C1213 1.526 1_655 S
C1211 H1195 0.959 . S
C1211 H1196 0.959 . S
C1211 H1197 0.961 . S
C1211 C1210 1.502 . S
C1212 H1198 0.960 . S
C1212 H1199 0.961 . S
C1212 H1200 0.959 . S
C1212 C1210 1.561 1_455 S
C1213 C1210 1.526 1_455 S
C1213 C1214 1.396 . S
C1213 C1218 1.390 . S
C1214 C1208 1.465 . S
C1214 C1213 1.396 . S
C1214 C1215 1.399 . S
C1215 H1201 0.929 . S
C1215 C1214 1.399 . S
C1215 C1216 1.385 . S
C1216 H1202 0.931 . S
C1216 C1215 1.385 . S
C1216 C1217 1.389 . S
C1217 C1216 1.389 . S
C1217 C1218 1.387 . S
C1218 H1203 0.930 . S
C1218 C1213 1.390 . S
C1218 C1217 1.387 . S
H1219 C1231 0.930 . S
H1220 C1233 0.930 . S
H1221 C1234 0.930 . S
H1222 C1238 0.959 . S
H1223 C1238 0.959 . S
H1224 C1238 0.961 . S
H1225 C1239 0.960 . S
H1226 C1239 0.961 . S
H1227 C1239 0.959 . S
H1228 C1242 0.929 1_565 S
H1229 C1243 0.931 . S
H1230 C1245 0.930 . S
C1231 H1219 0.930 . S
C1231 C1232 1.399 . S
C1231 C1236 1.399 . S
C1232 C1231 1.399 . S
C1232 C1233 1.376 . S
C1233 H1220 0.930 . S
C1233 C1232 1.376 . S
C1233 C1234 1.388 . S
C1234 H1221 0.930 . S
C1234 C1233 1.388 . S
C1234 C1235 1.390 . S
C1235 C1234 1.390 . S
C1235 C1236 1.394 . S
C1235 C1241 1.465 . S
C1236 C1231 1.399 . S
C1236 C1235 1.394 . S
C1236 C1237 1.516 . S
C1237 C1236 1.516 . S
C1237 C1238 1.502 1_565 S
C1237 C1239 1.561 . S
C1237 C1240 1.526 1_565 S
C1238 H1222 0.959 . S
C1238 H1223 0.959 . S
C1238 H1224 0.961 . S
C1238 C1237 1.502 1_545 S
C1239 H1225 0.960 . S
C1239 H1226 0.961 . S
C1239 H1227 0.959 . S
C1239 C1237 1.561 . S
C1240 C1237 1.526 1_545 S
C1240 C1241 1.396 1_545 S
C1240 C1245 1.390 . S
C1241 C1235 1.465 . S
C1241 C1240 1.396 1_565 S
C1241 C1242 1.399 1_565 S
C1242 H1228 0.929 1_545 S
C1242 C1241 1.399 1_545 S
C1242 C1243 1.385 . S
C1243 H1229 0.931 . S
C1243 C1242 1.385 . S
C1243 C1244 1.389 . S
C1244 C1243 1.389 . S
C1244 C1245 1.387 . S
C1245 H1230 0.930 . S
C1245 C1240 1.390 . S
C1245 C1244 1.387 . S
H1246 C1258 0.930 . S
H1247 C1260 0.930 . S
H1248 C1261 0.930 . S
H1249 C1265 0.959 . S
H1250 C1265 0.959 . S
H1251 C1265 0.961 1_545 S
H1252 C1266 0.960 1_545 S
H1253 C1266 0.961 . S
H1254 C1266 0.959 . S
H1255 C1269 0.929 . S
H1256 C1270 0.931 . S
H1257 C1272 0.930 . S
C1258 H1246 0.930 . S
C1258 C1259 1.399 . S
C1258 C1263 1.399 . S
C1259 C1258 1.399 . S
C1259 C1260 1.376 1_455 S
C1260 H1247 0.930 . S
C1260 C1259 1.376 1_655 S
C1260 C1261 1.388 . S
C1261 H1248 0.930 . S
C1261 C1260 1.388 . S
C1261 C1262 1.390 . S
C1262 C1261 1.390 . S
C1262 C1263 1.394 1_655 S
C1262 C1268 1.465 1_545 S
C1263 C1258 1.399 . S
C1263 C1262 1.394 1_455 S
C1263 C1264 1.516 1_545 S
C1264 C1263 1.516 1_565 S
C1264 C1265 1.502 . S
C1264 C1266 1.561 . S
C1264 C1267 1.526 . S
C1265 H1249 0.959 . S
C1265 H1250 0.959 . S
C1265 H1251 0.961 1_565 S
C1265 C1264 1.502 . S
C1266 H1252 0.960 1_565 S
C1266 H1253 0.961 . S
C1266 H1254 0.959 . S
C1266 C1264 1.561 . S
C1267 C1264 1.526 . S
C1267 C1268 1.396 1_455 S
C1267 C1272 1.390 . S
C1268 C1262 1.465 1_565 S
C1268 C1267 1.396 1_655 S
C1268 C1269 1.399 . S
C1269 H1255 0.929 . S
C1269 C1268 1.399 . S
C1269 C1270 1.385 . S
C1270 H1256 0.931 . S
C1270 C1269 1.385 . S
C1270 C1271 1.389 . S
C1271 C1270 1.389 . S
C1271 C1272 1.387 1_655 S
C1272 H1257 0.930 . S
C1272 C1267 1.390 . S
C1272 C1271 1.387 1_455 S
H1273 C1285 0.930 . S
H1274 C1287 0.930 . S
H1275 C1288 0.930 . S
H1276 C1292 0.959 . S
H1277 C1292 0.959 1_455 S
H1278 C1292 0.961 . S
H1279 C1293 0.960 1_655 S
H1280 C1293 0.961 . S
H1281 C1293 0.959 . S
H1282 C1296 0.929 . S
H1283 C1297 0.931 . S
H1284 C1299 0.930 . S
C1285 H1273 0.930 . S
C1285 C1286 1.399 . S
C1285 C1290 1.399 . S
C1286 C1285 1.399 . S
C1286 C1287 1.376 . S
C1287 H1274 0.930 . S
C1287 C1286 1.376 . S
C1287 C1288 1.388 . S
C1288 H1275 0.930 . S
C1288 C1287 1.388 . S
C1288 C1289 1.390 . S
C1289 C1288 1.390 . S
C1289 C1290 1.394 . S
C1289 C1295 1.464 1_645 S
C1290 C1285 1.399 . S
C1290 C1289 1.394 . S
C1290 C1291 1.516 1_655 S
C1291 C1290 1.516 1_455 S
C1291 C1292 1.502 1_445 S
C1291 C1293 1.561 . S
C1291 C1294 1.526 1_545 S
C1292 H1276 0.959 . S
C1292 H1277 0.959 1_655 S
C1292 H1278 0.961 . S
C1292 C1291 1.502 1_665 S
C1293 H1279 0.960 1_455 S
C1293 H1280 0.961 . S
C1293 H1281 0.959 . S
C1293 C1291 1.561 . S
C1294 C1291 1.526 1_565 S
C1294 C1295 1.396 . S
C1294 C1299 1.390 . S
C1295 C1289 1.464 1_465 S
C1295 C1294 1.396 . S
C1295 C1296 1.400 . S
C1296 H1282 0.929 . S
C1296 C1295 1.400 . S
C1296 C1297 1.385 . S
C1297 H1283 0.931 . S
C1297 C1296 1.385 . S
C1297 C1298 1.389 . S
C1298 C1297 1.389 . S
C1298 C1299 1.387 . S
C1299 H1284 0.930 . S
C1299 C1294 1.390 . S
C1299 C1298 1.387 . S
H1300 C1312 0.930 . S
H1301 C1314 0.930 . S
H1302 C1315 0.930 . S
H1303 C1319 0.959 . S
H1304 C1319 0.959 . S
H1305 C1319 0.961 1_545 S
H1306 C1320 0.960 . S
H1307 C1320 0.961 1_565 S
H1308 C1320 0.959 . S
H1309 C1323 0.929 . S
H1310 C1324 0.931 . S
H1311 C1326 0.930 . S
C1312 H1300 0.930 . S
C1312 C1313 1.399 . S
C1312 C1317 1.399 . S
C1313 C1312 1.399 . S
C1313 C1314 1.376 . S
C1314 H1301 0.930 . S
C1314 C1313 1.376 . S
C1314 C1315 1.388 . S
C1315 H1302 0.930 . S
C1315 C1314 1.388 . S
C1315 C1316 1.390 . S
C1316 C1315 1.390 . S
C1316 C1317 1.394 . S
C1316 C1322 1.465 1_545 S
C1317 C1312 1.399 . S
C1317 C1316 1.394 . S
C1317 C1318 1.516 1_545 S
C1318 C1317 1.516 1_565 S
C1318 C1319 1.502 . S
C1318 C1320 1.561 1_565 S
C1318 C1321 1.526 . S
C1319 H1303 0.959 . S
C1319 H1304 0.959 . S
C1319 H1305 0.961 1_565 S
C1319 C1318 1.502 . S
C1320 H1306 0.960 . S
C1320 H1307 0.961 1_545 S
C1320 H1308 0.959 . S
C1320 C1318 1.561 1_545 S
C1321 C1318 1.526 . S
C1321 C1322 1.396 . S
C1321 C1326 1.390 . S
C1322 C1316 1.465 1_565 S
C1322 C1321 1.396 . S
C1322 C1323 1.399 . S
C1323 H1309 0.929 . S
C1323 C1322 1.399 . S
C1323 C1324 1.385 . S
C1324 H1310 0.931 . S
C1324 C1323 1.385 . S
C1324 C1325 1.389 . S
C1325 C1324 1.389 . S
C1325 C1326 1.387 . S
C1326 H1311 0.930 . S
C1326 C1321 1.390 . S
C1326 C1325 1.387 . S
H1327 C1339 0.930 . S
H1328 C1341 0.930 . S
H1329 C1342 0.930 . S
H1330 C1346 0.959 . S
H1331 C1346 0.959 1_455 S
H1332 C1346 0.961 . S
H1333 C1347 0.960 . S
H1334 C1347 0.961 1_455 S
H1335 C1347 0.959 . S
H1336 C1350 0.929 . S
H1337 C1351 0.931 . S
H1338 C1353 0.930 . S
C1339 H1327 0.930 . S
C1339 C1340 1.399 . S
C1339 C1344 1.399 . S
C1340 C1339 1.399 . S
C1340 C1341 1.376 . S
C1341 H1328 0.930 . S
C1341 C1340 1.376 . S
C1341 C1342 1.388 . S
C1342 H1329 0.930 . S
C1342 C1341 1.388 . S
C1342 C1343 1.390 . S
C1343 C1342 1.390 . S
C1343 C1344 1.394 . S
C1343 C1349 1.465 1_655 S
C1344 C1339 1.399 . S
C1344 C1343 1.394 . S
C1344 C1345 1.516 . S
C1345 C1344 1.516 . S
C1345 C1346 1.502 . S
C1345 C1347 1.561 . S
C1345 C1348 1.526 1_655 S
C1346 H1330 0.959 . S
C1346 H1331 0.959 1_655 S
C1346 H1332 0.961 . S
C1346 C1345 1.502 . S
C1347 H1333 0.960 . S
C1347 H1334 0.961 1_655 S
C1347 H1335 0.959 . S
C1347 C1345 1.561 . S
C1348 C1345 1.526 1_455 S
C1348 C1349 1.396 . S
C1348 C1353 1.390 . S
C1349 C1343 1.465 1_455 S
C1349 C1348 1.396 . S
C1349 C1350 1.399 . S
C1350 H1336 0.929 . S
C1350 C1349 1.399 . S
C1350 C1351 1.385 . S
C1351 H1337 0.931 . S
C1351 C1350 1.385 . S
C1351 C1352 1.389 . S
C1352 C1351 1.389 . S
C1352 C1353 1.387 . S
C1353 H1338 0.930 . S
C1353 C1348 1.390 . S
C1353 C1352 1.387 . S
H1354 C1366 0.930 . S
H1355 C1368 0.930 . S
H1356 C1369 0.930 . S
H1357 C1373 0.959 . S
H1358 C1373 0.959 . S
H1359 C1373 0.961 . S
H1360 C1374 0.960 . S
H1361 C1374 0.961 . S
H1362 C1374 0.959 . S
H1363 C1377 0.929 . S
H1364 C1378 0.931 . S
H1365 C1380 0.930 . S
C1366 H1354 0.930 . S
C1366 C1367 1.399 . S
C1366 C1371 1.399 . S
C1367 C1366 1.399 . S
C1367 C1368 1.376 . S
C1368 H1355 0.930 . S
C1368 C1367 1.376 . S
C1368 C1369 1.388 . S
C1369 H1356 0.930 . S
C1369 C1368 1.388 . S
C1369 C1370 1.390 . S
C1370 C1369 1.390 . S
C1370 C1371 1.394 . S
C1370 C1376 1.465 . S
C1371 C1366 1.399 . S
C1371 C1370 1.394 . S
C1371 C1372 1.516 . S
C1372 C1371 1.516 . S
C1372 C1373 1.502 . S
C1372 C1374 1.561 . S
C1372 C1375 1.526 . S
C1373 H1357 0.959 . S
C1373 H1358 0.959 . S
C1373 H1359 0.961 . S
C1373 C1372 1.502 . S
C1374 H1360 0.960 . S
C1374 H1361 0.961 . S
C1374 H1362 0.959 . S
C1374 C1372 1.561 . S
C1375 C1372 1.526 . S
C1375 C1376 1.396 . S
C1375 C1380 1.390 . S
C1376 C1370 1.465 . S
C1376 C1375 1.396 . S
C1376 C1377 1.399 . S
C1377 H1363 0.929 . S
C1377 C1376 1.399 . S
C1377 C1378 1.385 . S
C1378 H1364 0.931 . S
C1378 C1377 1.385 . S
C1378 C1379 1.389 . S
C1379 C1378 1.389 . S
C1379 C1380 1.387 . S
C1380 H1365 0.930 . S
C1380 C1375 1.390 . S
C1380 C1379 1.387 . S
H1381 C1393 0.930 . S
H1382 C1395 0.930 . S
H1383 C1396 0.930 . S
H1384 C1400 0.959 . S
H1385 C1400 0.959 . S
H1386 C1400 0.961 . S
H1387 C1401 0.960 . S
H1388 C1401 0.961 . S
H1389 C1401 0.959 . S
H1390 C1404 0.929 . S
H1391 C1405 0.931 . S
H1392 C1407 0.930 . S
C1393 H1381 0.930 . S
C1393 C1394 1.399 . S
C1393 C1398 1.399 . S
C1394 C1393 1.399 . S
C1394 C1395 1.376 . S
C1395 H1382 0.930 . S
C1395 C1394 1.376 . S
C1395 C1396 1.388 . S
C1396 H1383 0.930 . S
C1396 C1395 1.388 . S
C1396 C1397 1.390 . S
C1397 C1396 1.390 . S
C1397 C1398 1.394 . S
C1397 C1403 1.465 . S
C1398 C1393 1.399 . S
C1398 C1397 1.394 . S
C1398 C1399 1.516 . S
C1399 C1398 1.516 . S
C1399 C1400 1.502 . S
C1399 C1401 1.561 . S
C1399 C1402 1.526 . S
C1400 H1384 0.959 . S
C1400 H1385 0.959 . S
C1400 H1386 0.961 . S
C1400 C1399 1.502 . S
C1401 H1387 0.960 . S
C1401 H1388 0.961 . S
C1401 H1389 0.959 . S
C1401 C1399 1.561 . S
C1402 C1399 1.526 . S
C1402 C1403 1.396 . S
C1402 C1407 1.390 . S
C1403 C1397 1.465 . S
C1403 C1402 1.396 . S
C1403 C1404 1.399 . S
C1404 H1390 0.929 . S
C1404 C1403 1.399 . S
C1404 C1405 1.385 . S
C1405 H1391 0.931 . S
C1405 C1404 1.385 . S
C1405 C1406 1.389 . S
C1406 C1405 1.389 . S
C1406 C1407 1.387 . S
C1407 H1392 0.930 . S
C1407 C1402 1.390 . S
C1407 C1406 1.387 . S
H1408 C1420 0.930 . S
H1409 C1422 0.930 . S
H1410 C1423 0.930 . S
H1411 C1427 0.959 . S
H1412 C1427 0.959 . S
H1413 C1427 0.961 . S
H1414 C1428 0.960 . S
H1415 C1428 0.961 . S
H1416 C1428 0.959 . S
H1417 C1431 0.929 . S
H1418 C1432 0.931 . S
H1419 C1434 0.930 . S
C1420 H1408 0.930 . S
C1420 C1421 1.399 . S
C1420 C1425 1.399 . S
C1421 C1420 1.399 . S
C1421 C1422 1.376 . S
C1422 H1409 0.930 . S
C1422 C1421 1.376 . S
C1422 C1423 1.388 . S
C1423 H1410 0.930 . S
C1423 C1422 1.388 . S
C1423 C1424 1.390 . S
C1424 C1423 1.390 . S
C1424 C1425 1.394 . S
C1424 C1430 1.465 . S
C1425 C1420 1.399 . S
C1425 C1424 1.394 . S
C1425 C1426 1.516 . S
C1426 C1425 1.516 . S
C1426 C1427 1.502 . S
C1426 C1428 1.561 . S
C1426 C1429 1.526 . S
C1427 H1411 0.959 . S
C1427 H1412 0.959 . S
C1427 H1413 0.961 . S
C1427 C1426 1.502 . S
C1428 H1414 0.960 . S
C1428 H1415 0.961 . S
C1428 H1416 0.959 . S
C1428 C1426 1.561 . S
C1429 C1426 1.526 . S
C1429 C1430 1.396 . S
C1429 C1434 1.390 . S
C1430 C1424 1.465 . S
C1430 C1429 1.396 . S
C1430 C1431 1.399 . S
C1431 H1417 0.929 . S
C1431 C1430 1.399 . S
C1431 C1432 1.385 . S
C1432 H1418 0.931 . S
C1432 C1431 1.385 . S
C1432 C1433 1.389 . S
C1433 C1432 1.389 . S
C1433 C1434 1.387 . S
C1434 H1419 0.930 . S
C1434 C1429 1.390 . S
C1434 C1433 1.387 . S
H1435 C1447 0.930 . S
H1436 C1449 0.930 . S
H1437 C1450 0.930 . S
H1438 C1454 0.959 . S
H1439 C1454 0.959 . S
H1440 C1454 0.961 . S
H1441 C1455 0.960 . S
H1442 C1455 0.961 . S
H1443 C1455 0.959 . S
H1444 C1458 0.929 . S
H1445 C1459 0.931 . S
H1446 C1461 0.930 . S
C1447 H1435 0.930 . S
C1447 C1448 1.399 . S
C1447 C1452 1.399 . S
C1448 C1447 1.399 . S
C1448 C1449 1.376 . S
C1449 H1436 0.930 . S
C1449 C1448 1.376 . S
C1449 C1450 1.388 . S
C1450 H1437 0.930 . S
C1450 C1449 1.388 . S
C1450 C1451 1.390 . S
C1451 C1450 1.390 . S
C1451 C1452 1.394 . S
C1451 C1457 1.465 . S
C1452 C1447 1.399 . S
C1452 C1451 1.394 . S
C1452 C1453 1.516 . S
C1453 C1452 1.516 . S
C1453 C1454 1.502 . S
C1453 C1455 1.561 . S
C1453 C1456 1.526 . S
C1454 H1438 0.959 . S
C1454 H1439 0.959 . S
C1454 H1440 0.961 . S
C1454 C1453 1.502 . S
C1455 H1441 0.960 . S
C1455 H1442 0.961 . S
C1455 H1443 0.959 . S
C1455 C1453 1.561 . S
C1456 C1453 1.526 . S
C1456 C1457 1.396 . S
C1456 C1461 1.390 . S
C1457 C1451 1.465 . S
C1457 C1456 1.396 . S
C1457 C1458 1.399 . S
C1458 H1444 0.929 . S
C1458 C1457 1.399 . S
C1458 C1459 1.385 . S
C1459 H1445 0.931 . S
C1459 C1458 1.385 . S
C1459 C1460 1.389 . S
C1460 C1459 1.389 . S
C1460 C1461 1.387 . S
C1461 H1446 0.930 . S
C1461 C1456 1.390 . S
C1461 C1460 1.387 . S
H1462 C1474 0.930 . S
H1463 C1476 0.930 . S
H1464 C1477 0.930 . S
H1465 C1481 0.959 . S
H1466 C1481 0.959 . S
H1467 C1481 0.961 . S
H1468 C1482 0.960 . S
H1469 C1482 0.961 . S
H1470 C1482 0.959 . S
H1471 C1485 0.929 . S
H1472 C1486 0.931 . S
H1473 C1488 0.930 . S
C1474 H1462 0.930 . S
C1474 C1475 1.399 . S
C1474 C1479 1.399 . S
C1475 C1474 1.399 . S
C1475 C1476 1.376 . S
C1476 H1463 0.930 . S
C1476 C1475 1.376 . S
C1476 C1477 1.388 . S
C1477 H1464 0.930 . S
C1477 C1476 1.388 . S
C1477 C1478 1.390 . S
C1478 C1477 1.390 . S
C1478 C1479 1.394 . S
C1478 C1484 1.465 . S
C1479 C1474 1.399 . S
C1479 C1478 1.394 . S
C1479 C1480 1.516 . S
C1480 C1479 1.516 . S
C1480 C1481 1.502 . S
C1480 C1482 1.561 . S
C1480 C1483 1.526 . S
C1481 H1465 0.959 . S
C1481 H1466 0.959 . S
C1481 H1467 0.961 . S
C1481 C1480 1.502 . S
C1482 H1468 0.960 . S
C1482 H1469 0.961 . S
C1482 H1470 0.959 . S
C1482 C1480 1.561 . S
C1483 C1480 1.526 . S
C1483 C1484 1.396 . S
C1483 C1488 1.390 . S
C1484 C1478 1.465 . S
C1484 C1483 1.396 . S
C1484 C1485 1.399 . S
C1485 H1471 0.929 . S
C1485 C1484 1.399 . S
C1485 C1486 1.385 . S
C1486 H1472 0.931 . S
C1486 C1485 1.385 . S
C1486 C1487 1.389 . S
C1487 C1486 1.389 . S
C1487 C1488 1.387 . S
C1488 H1473 0.930 . S
C1488 C1483 1.390 . S
C1488 C1487 1.387 . S
H1489 C1501 0.930 . S
H1490 C1503 0.930 . S
H1491 C1504 0.930 . S
H1492 C1508 0.959 . S
H1493 C1508 0.959 . S
H1494 C1508 0.961 . S
H1495 C1509 0.960 . S
H1496 C1509 0.961 . S
H1497 C1509 0.959 . S
H1498 C1512 0.929 . S
H1499 C1513 0.931 . S
H1500 C1515 0.930 . S
C1501 H1489 0.930 . S
C1501 C1502 1.399 . S
C1501 C1506 1.399 . S
C1502 C1501 1.399 . S
C1502 C1503 1.376 . S
C1503 H1490 0.930 . S
C1503 C1502 1.376 . S
C1503 C1504 1.388 . S
C1504 H1491 0.930 . S
C1504 C1503 1.388 . S
C1504 C1505 1.390 . S
C1505 C1504 1.390 . S
C1505 C1506 1.394 . S
C1505 C1511 1.465 . S
C1506 C1501 1.399 . S
C1506 C1505 1.394 . S
C1506 C1507 1.516 . S
C1507 C1506 1.516 . S
C1507 C1508 1.502 . S
C1507 C1509 1.561 . S
C1507 C1510 1.526 . S
C1508 H1492 0.959 . S
C1508 H1493 0.959 . S
C1508 H1494 0.961 . S
C1508 C1507 1.502 . S
C1509 H1495 0.960 . S
C1509 H1496 0.961 . S
C1509 H1497 0.959 . S
C1509 C1507 1.561 . S
C1510 C1507 1.526 . S
C1510 C1511 1.396 . S
C1510 C1515 1.390 . S
C1511 C1505 1.465 . S
C1511 C1510 1.396 . S
C1511 C1512 1.399 . S
C1512 H1498 0.929 . S
C1512 C1511 1.399 . S
C1512 C1513 1.385 . S
C1513 H1499 0.931 . S
C1513 C1512 1.385 . S
C1513 C1514 1.389 . S
C1514 C1513 1.389 . S
C1514 C1515 1.387 . S
C1515 H1500 0.930 . S
C1515 C1510 1.390 . S
C1515 C1514 1.387 . S
H1516 C1528 0.930 . S
H1517 C1530 0.930 . S
H1518 C1531 0.930 . S
H1519 C1535 0.959 . S
H1520 C1535 0.959 . S
H1521 C1535 0.961 . S
H1522 C1536 0.960 . S
H1523 C1536 0.961 . S
H1524 C1536 0.959 . S
H1525 C1539 0.929 . S
H1526 C1540 0.931 . S
H1527 C1542 0.930 . S
C1528 H1516 0.930 . S
C1528 C1529 1.399 . S
C1528 C1533 1.399 . S
C1529 C1528 1.399 . S
C1529 C1530 1.376 . S
C1530 H1517 0.930 . S
C1530 C1529 1.376 . S
C1530 C1531 1.388 . S
C1531 H1518 0.930 . S
C1531 C1530 1.388 . S
C1531 C1532 1.390 . S
C1532 C1531 1.390 . S
C1532 C1533 1.394 . S
C1532 C1538 1.465 . S
C1533 C1528 1.399 . S
C1533 C1532 1.394 . S
C1533 C1534 1.516 . S
C1534 C1533 1.516 . S
C1534 C1535 1.502 . S
C1534 C1536 1.561 . S
C1534 C1537 1.526 . S
C1535 H1519 0.959 . S
C1535 H1520 0.959 . S
C1535 H1521 0.961 . S
C1535 C1534 1.502 . S
C1536 H1522 0.960 . S
C1536 H1523 0.961 . S
C1536 H1524 0.959 . S
C1536 C1534 1.561 . S
C1537 C1534 1.526 . S
C1537 C1538 1.396 . S
C1537 C1542 1.390 . S
C1538 C1532 1.465 . S
C1538 C1537 1.396 . S
C1538 C1539 1.399 . S
C1539 H1525 0.929 . S
C1539 C1538 1.399 . S
C1539 C1540 1.385 . S
C1540 H1526 0.931 . S
C1540 C1539 1.385 . S
C1540 C1541 1.389 . S
C1541 C1540 1.389 . S
C1541 C1542 1.387 . S
C1542 H1527 0.930 . S
C1542 C1537 1.390 . S
C1542 C1541 1.387 . S
H1543 C1555 0.930 . S
H1544 C1557 0.930 . S
H1545 C1558 0.930 . S
H1546 C1562 0.959 . S
H1547 C1562 0.959 . S
H1548 C1562 0.961 . S
H1549 C1563 0.960 . S
H1550 C1563 0.961 . S
H1551 C1563 0.959 . S
H1552 C1566 0.929 . S
H1553 C1567 0.931 . S
H1554 C1569 0.930 . S
C1555 H1543 0.930 . S
C1555 C1556 1.399 . S
C1555 C1560 1.399 . S
C1556 C1555 1.399 . S
C1556 C1557 1.376 . S
C1557 H1544 0.930 . S
C1557 C1556 1.376 . S
C1557 C1558 1.388 . S
C1558 H1545 0.930 . S
C1558 C1557 1.388 . S
C1558 C1559 1.390 . S
C1559 C1558 1.390 . S
C1559 C1560 1.394 . S
C1559 C1565 1.465 . S
C1560 C1555 1.399 . S
C1560 C1559 1.394 . S
C1560 C1561 1.516 . S
C1561 C1560 1.516 . S
C1561 C1562 1.502 . S
C1561 C1563 1.561 . S
C1561 C1564 1.526 . S
C1562 H1546 0.959 . S
C1562 H1547 0.959 . S
C1562 H1548 0.961 . S
C1562 C1561 1.502 . S
C1563 H1549 0.960 . S
C1563 H1550 0.961 . S
C1563 H1551 0.959 . S
C1563 C1561 1.561 . S
C1564 C1561 1.526 . S
C1564 C1565 1.396 . S
C1564 C1569 1.390 . S
C1565 C1559 1.465 . S
C1565 C1564 1.396 . S
C1565 C1566 1.399 . S
C1566 H1552 0.929 . S
C1566 C1565 1.399 . S
C1566 C1567 1.385 . S
C1567 H1553 0.931 . S
C1567 C1566 1.385 . S
C1567 C1568 1.389 . S
C1568 C1567 1.389 . S
C1568 C1569 1.387 . S
C1569 H1554 0.930 . S
C1569 C1564 1.390 . S
C1569 C1568 1.387 . S
H1570 C1582 0.930 . S
H1571 C1584 0.930 . S
H1572 C1585 0.930 . S
H1573 C1589 0.959 . S
H1574 C1589 0.959 . S
H1575 C1589 0.961 . S
H1576 C1590 0.960 . S
H1577 C1590 0.961 . S
H1578 C1590 0.959 . S
H1579 C1593 0.929 . S
H1580 C1594 0.931 . S
H1581 C1596 0.930 . S
C1582 H1570 0.930 . S
C1582 C1583 1.399 . S
C1582 C1587 1.399 . S
C1583 C1582 1.399 . S
C1583 C1584 1.376 . S
C1584 H1571 0.930 . S
C1584 C1583 1.376 . S
C1584 C1585 1.388 . S
C1585 H1572 0.930 . S
C1585 C1584 1.388 . S
C1585 C1586 1.390 . S
C1586 C1585 1.390 . S
C1586 C1587 1.394 . S
C1586 C1592 1.465 . S
C1587 C1582 1.399 . S
C1587 C1586 1.394 . S
C1587 C1588 1.516 . S
C1588 C1587 1.516 . S
C1588 C1589 1.502 . S
C1588 C1590 1.561 . S
C1588 C1591 1.526 . S
C1589 H1573 0.959 . S
C1589 H1574 0.959 . S
C1589 H1575 0.961 . S
C1589 C1588 1.502 . S
C1590 H1576 0.960 . S
C1590 H1577 0.961 . S
C1590 H1578 0.959 . S
C1590 C1588 1.561 . S
C1591 C1588 1.526 . S
C1591 C1592 1.396 . S
C1591 C1596 1.390 . S
C1592 C1586 1.465 . S
C1592 C1591 1.396 . S
C1592 C1593 1.399 . S
C1593 H1579 0.929 . S
C1593 C1592 1.399 . S
C1593 C1594 1.385 . S
C1594 H1580 0.931 . S
C1594 C1593 1.385 . S
C1594 C1595 1.389 . S
C1595 C1594 1.389 . S
C1595 C1596 1.387 . S
C1596 H1581 0.930 . S
C1596 C1591 1.390 . S
C1596 C1595 1.387 . S
H1597 C1609 0.930 . S
H1598 C1611 0.930 . S
H1599 C1612 0.930 . S
H1600 C1616 0.959 . S
H1601 C1616 0.959 . S
H1602 C1616 0.961 . S
H1603 C1617 0.960 . S
H1604 C1617 0.961 . S
H1605 C1617 0.959 . S
H1606 C1620 0.929 . S
H1607 C1621 0.931 . S
H1608 C1623 0.930 . S
C1609 H1597 0.930 . S
C1609 C1610 1.399 . S
C1609 C1614 1.399 . S
C1610 C1609 1.399 . S
C1610 C1611 1.376 . S
C1611 H1598 0.930 . S
C1611 C1610 1.376 . S
C1611 C1612 1.388 . S
C1612 H1599 0.930 . S
C1612 C1611 1.388 . S
C1612 C1613 1.390 . S
C1613 C1612 1.390 . S
C1613 C1614 1.394 . S
C1613 C1619 1.465 . S
C1614 C1609 1.399 . S
C1614 C1613 1.394 . S
C1614 C1615 1.516 . S
C1615 C1614 1.516 . S
C1615 C1616 1.502 . S
C1615 C1617 1.561 . S
C1615 C1618 1.526 . S
C1616 H1600 0.959 . S
C1616 H1601 0.959 . S
C1616 H1602 0.961 . S
C1616 C1615 1.502 . S
C1617 H1603 0.960 . S
C1617 H1604 0.961 . S
C1617 H1605 0.959 . S
C1617 C1615 1.561 . S
C1618 C1615 1.526 . S
C1618 C1619 1.396 . S
C1618 C1623 1.390 . S
C1619 C1613 1.465 . S
C1619 C1618 1.396 . S
C1619 C1620 1.399 . S
C1620 H1606 0.929 . S
C1620 C1619 1.399 . S
C1620 C1621 1.385 . S
C1621 H1607 0.931 . S
C1621 C1620 1.385 . S
C1621 C1622 1.389 . S
C1622 C1621 1.389 . S
C1622 C1623 1.387 . S
C1623 H1608 0.930 . S
C1623 C1618 1.390 . S
C1623 C1622 1.387 . S
C557 C33 0.802 . S
C569 C379 0.785 . S
C584 C277 0.810 . S
C596 C67 0.815 . S
C611 C311 0.799 . S
C623 C101 0.827 . S
C638 C345 0.868 . S
C650 C135 0.863 . S
C665 C175 0.878 . S
C677 C169 0.861 . S
C692 C209 0.829 . S
C704 C203 0.829 . S
C719 C237 0.870 . S
C731 C243 0.875 . S
C746 C271 0.810 . S
C758 C141 0.800 . S
C773 C305 0.869 . S
C785 C107 0.864 . S
C800 C339 0.803 . S
C812 C5 0.791 . S
C827 C39 0.873 . S
C839 C373 0.853 . S
C854 C407 0.814 . S
C866 C73 0.804 . S
C881 C447 0.803 . S
C893 C441 0.830 . S
C908 C481 0.868 . S
C920 C475 0.863 . S
C935 C515 0.878 . S
C947 C509 0.862 . S
C962 C543 0.870 . S
C974 C413 0.877 . S
C989 C20 1.357 . S
C1001 C88 1.341 . S
C1016 C54 1.349 . S
C1028 C122 1.335 . S
C1043 C224 1.332 . S
C1055 C156 1.345 . S
C1070 C258 1.346 . S
C1082 C190 1.336 . S
C1097 C360 1.350 . S
C1109 C292 1.353 . S
C1124 C326 1.341 . S
C1136 C394 1.354 . S
C1151 C428 1.332 . S
C1163 C496 1.345 . S
C1178 C530 1.347 . S
C1190 C462 1.336 . S
C1205 C70 1.187 . S
C1217 C2 1.183 . S
C1232 C36 1.181 . S
C1244 C104 1.190 . S
C1259 C138 1.163 . S
C1271 C206 1.156 . S
C1286 C240 1.183 . S
C1298 C172 1.190 . S
C1313 C342 1.187 . S
C1325 C274 1.183 . S
C1340 C308 1.120 . S
C1352 C376 1.142 . S
C1367 C410 1.136 . S
C1379 C478 1.143 . S
C1394 C512 1.127 . S
C1406 C444 1.117 . S
C1421 C485 1.518 . S
C1433 C9 1.443 . S
C1448 C43 1.447 . S
C1460 C519 1.517 . S
C1475 C77 1.466 . S
C1487 C417 1.483 . S
C1502 C111 1.505 . S
C1514 C451 1.444 . S
C1529 C145 1.463 . S
C1541 C349 1.487 . S
C1556 C383 1.516 . S
C1568 C179 1.439 . S
C1583 C213 1.516 . S
C1595 C281 1.447 . S
C1610 C247 1.474 . S
C1622 C315 1.469 . S
