# Generated by pormake.
# Topology rac, (4)-cn, num edge types: 1
# Building blocks:
#     Node 0, Type 0, BuildingBlock: UXUYUI_clean_sbu_0, # of connection points: 4
#     Node 1, Type 0, BuildingBlock: UXUYUI_clean_sbu_0, # of connection points: 4
#     Node 2, Type 0, BuildingBlock: UXUYUI_clean_sbu_0, # of connection points: 4
#     Node 3, Type 0, BuildingBlock: UXUYUI_clean_sbu_0, # of connection points: 4
#     Node 4, Type 0, BuildingBlock: UXUYUI_clean_sbu_0, # of connection points: 4
#     Node 5, Type 0, BuildingBlock: UXUYUI_clean_sbu_0, # of connection points: 4
#     Node 6, Type 0, BuildingBlock: UXUYUI_clean_sbu_0, # of connection points: 4
#     Node 7, Type 0, BuildingBlock: UXUYUI_clean_sbu_0, # of connection points: 4
#     Edge 8, Type (0, 0), BuildingBlock: CIFDUS_clean_linker_0, # of connection points: 2
#     Edge 9, Type (0, 0), BuildingBlock: CIFDUS_clean_linker_0, # of connection points: 2
#     Edge 10, Type (0, 0), BuildingBlock: CIFDUS_clean_linker_0, # of connection points: 2
#     Edge 11, Type (0, 0), BuildingBlock: CIFDUS_clean_linker_0, # of connection points: 2
#     Edge 12, Type (0, 0), BuildingBlock: CIFDUS_clean_linker_0, # of connection points: 2
#     Edge 13, Type (0, 0), BuildingBlock: CIFDUS_clean_linker_0, # of connection points: 2
#     Edge 14, Type (0, 0), BuildingBlock: CIFDUS_clean_linker_0, # of connection points: 2
#     Edge 15, Type (0, 0), BuildingBlock: CIFDUS_clean_linker_0, # of connection points: 2
#     Edge 16, Type (0, 0), BuildingBlock: CIFDUS_clean_linker_0, # of connection points: 2
#     Edge 17, Type (0, 0), BuildingBlock: CIFDUS_clean_linker_0, # of connection points: 2
#     Edge 18, Type (0, 0), BuildingBlock: CIFDUS_clean_linker_0, # of connection points: 2
#     Edge 19, Type (0, 0), BuildingBlock: CIFDUS_clean_linker_0, # of connection points: 2
#     Edge 20, Type (0, 0), BuildingBlock: CIFDUS_clean_linker_0, # of connection points: 2
#     Edge 21, Type (0, 0), BuildingBlock: CIFDUS_clean_linker_0, # of connection points: 2
#     Edge 22, Type (0, 0), BuildingBlock: CIFDUS_clean_linker_0, # of connection points: 2
#     Edge 23, Type (0, 0), BuildingBlock: CIFDUS_clean_linker_0, # of connection points: 2
# Relax obj value: 0.361
# Max RMSD: 0.174
# Mean RMSD: 0.174
data_MOF--net-rac--node1-UXUYUI_clean_sbu_0--edge1-CIFDUS_clean_linker_0
_symmetry_space_group_name_H-M    P1
_symmetry_Int_Tables_number       1
_symmetry_cell_setting            triclinic
loop_
_symmetry_equiv_pos_as_xyz
'x, y, z'
_cell_length_a     52.483049
_cell_length_b     27.012671
_cell_length_c     56.572349
_cell_angle_alpha  89.968528
_cell_angle_beta   90.016516
_cell_angle_gamma 90.054782
loop_
_atom_site_label
_atom_site_type_symbol
_atom_site_fract_x
_atom_site_fract_y
_atom_site_fract_z
_atom_type_partial_charge
Li0 Li 0.40555 0.27636 0.06643 0.0
Li1 Li 0.40046 0.23516 0.10467 0.0
Li2 Li 0.374 0.21004 0.07127 0.0
Li3 Li 0.36747 0.28847 0.08996 0.0
C4 C 0.43808 0.19625 0.07549 0.0
N5 N 0.49 0.18036 0.07831 0.0
C6 C 0.45428 0.23415 0.08308 0.0
C7 C 0.44829 0.15029 0.06932 0.0
C8 C 0.48047 0.22539 0.08439 0.0
C9 C 0.47459 0.14297 0.07087 0.0
C10 C 0.40329 0.33682 0.11713 0.0
C11 C 0.39053 0.3566 0.15698 0.0
N12 N 0.40485 0.39854 0.15603 0.0
C13 C 0.41785 0.38012 0.11653 0.0
C14 C 0.38945 0.32497 0.13749 0.0
C15 C 0.41839 0.41086 0.13638 0.0
C16 C 0.42078 0.36528 0.04884 0.0
N17 N 0.42726 0.31676 0.04689 0.0
C18 C 0.46195 0.33795 0.02124 0.0
C19 C 0.44722 0.30234 0.03317 0.0
C20 C 0.45604 0.38865 0.02353 0.0
C21 C 0.43489 0.40182 0.03734 0.0
H22 H 0.40469 0.37567 0.05967 0.0
H23 H 0.45197 0.26349 0.03177 0.0
C24 C 0.40417 0.18425 0.14787 0.0
N25 N 0.41637 0.2177 0.13395 0.0
C26 C 0.4102 0.18054 0.17187 0.0
C27 C 0.44245 0.24339 0.16639 0.0
C28 C 0.43589 0.24569 0.14247 0.0
C29 C 0.42888 0.21182 0.1816 0.0
H30 H 0.38859 0.16284 0.1407 0.0
H31 H 0.44507 0.27262 0.1312 0.0
C32 C 0.36949 0.2707 0.03155 0.0
N33 N 0.36957 0.26116 0.98293 0.0
C34 C 0.35379 0.30077 0.0177 0.0
C35 C 0.38531 0.23587 0.02067 0.0
C36 C 0.35408 0.29534 0.99315 0.0
C37 C 0.38505 0.2316 0.99607 0.0
C38 C 0.33797 0.2106 0.10644 0.0
C39 C 0.32028 0.22872 0.09008 0.0
C40 C 0.32975 0.17899 0.12447 0.0
C41 C 0.29474 0.21474 0.09198 0.0
C42 C 0.30403 0.1659 0.12578 0.0
N43 N 0.2872 0.18386 0.10963 0.0
C44 C 0.35575 0.11127 0.07027 0.0
C45 C 0.33442 0.16449 0.04355 0.0
C46 C 0.33713 0.07466 0.06702 0.0
N47 N 0.35384 0.15556 0.05895 0.0
C48 C 0.31537 0.12903 0.03986 0.0
C49 C 0.31614 0.08383 0.05216 0.0
H50 H 0.37081 0.10561 0.08305 0.0
H51 H 0.33254 0.20041 0.03539 0.0
C52 C 0.34473 0.37932 0.08463 0.0
N53 N 0.34435 0.33829 0.09848 0.0
C54 C 0.32825 0.41839 0.08931 0.0
C55 C 0.31141 0.37216 0.12251 0.0
C56 C 0.32859 0.33435 0.11747 0.0
C57 C 0.31112 0.41453 0.10821 0.0
H58 H 0.3577 0.38131 0.06981 0.0
H59 H 0.32917 0.30175 0.12853 0.0
O60 O 0.41234 0.20365 0.07407 0.0
O61 O 0.40253 0.30646 0.09779 0.0
O62 O 0.36947 0.27607 0.05559 0.0
O63 O 0.36328 0.22258 0.10457 0.0
H64 H 0.44683 0.27006 0.08779 0.0
H65 H 0.43599 0.12057 0.06341 0.0
H66 H 0.49322 0.25442 0.09021 0.0
H67 H 0.48275 0.10756 0.06616 0.0
H68 H 0.37998 0.3478 0.17286 0.0
H69 H 0.42868 0.38982 0.10092 0.0
H70 H 0.37804 0.29163 0.13825 0.0
H71 H 0.42959 0.44449 0.13618 0.0
H72 H 0.47811 0.32603 0.01081 0.0
H73 H 0.4292 0.44013 0.03925 0.0
H74 H 0.39911 0.15591 0.18295 0.0
H75 H 0.45718 0.26771 0.1731 0.0
H76 H 0.34151 0.32802 0.02588 0.0
H77 H 0.39763 0.21232 0.03103 0.0
H78 H 0.34201 0.31834 0.98221 0.0
H79 H 0.39717 0.20479 0.98741 0.0
H80 H 0.32618 0.25304 0.07592 0.0
H81 H 0.3431 0.16448 0.13728 0.0
H82 H 0.28091 0.22834 0.07937 0.0
H83 H 0.29745 0.14137 0.13961 0.0
H84 H 0.33841 0.0407 0.07713 0.0
H85 H 0.29972 0.13765 0.02808 0.0
H86 H 0.32825 0.45049 0.07781 0.0
H87 H 0.2984 0.36832 0.13727 0.0
Li88 Li 0.0963 0.7316 0.06364 0.0
Li89 Li 0.10378 0.76901 0.10399 0.0
Li90 Li 0.12885 0.79737 0.06864 0.0
Li91 Li 0.13465 0.71666 0.08475 0.0
C92 C 0.06653 0.81873 0.07153 0.0
N93 N 0.0168 0.85012 0.0658 0.0
C94 C 0.04756 0.80251 0.08703 0.0
C95 C 0.06027 0.85148 0.0533 0.0
C96 C 0.02251 0.8186 0.08379 0.0
C97 C 0.03501 0.86678 0.05064 0.0
C98 C 0.10267 0.65388 0.10409 0.0
C99 C 0.11532 0.60118 0.13646 0.0
N100 N 0.11053 0.56069 0.12288 0.0
C101 C 0.09781 0.61175 0.09048 0.0
C102 C 0.11143 0.64861 0.1273 0.0
C103 C 0.10192 0.56496 0.1003 0.0
C104 C 0.07992 0.6641 0.0277 0.0
N105 N 0.07156 0.69385 0.04552 0.0
C106 C 0.03176 0.65018 0.04644 0.0
C107 C 0.04777 0.68793 0.05466 0.0
C108 C 0.04039 0.61733 0.02889 0.0
C109 C 0.06456 0.62582 0.01899 0.0
H110 H 0.09925 0.66715 0.02143 0.0
H111 H 0.04181 0.71003 0.06953 0.0
C112 C 0.10289 0.81836 0.14776 0.0
N113 N 0.09113 0.78269 0.13483 0.0
C114 C 0.10027 0.81908 0.17234 0.0
C115 C 0.07189 0.74881 0.16957 0.0
C116 C 0.07507 0.74943 0.14505 0.0
C117 C 0.08551 0.78255 0.18363 0.0
H118 H 0.11574 0.84399 0.13918 0.0
H119 H 0.0664 0.72075 0.13441 0.0
C120 C 0.13138 0.74302 0.02718 0.0
N121 N 0.13036 0.76242 0.97924 0.0
C122 C 0.1487 0.71975 0.01208 0.0
C123 C 0.11354 0.77608 0.01791 0.0
C124 C 0.14789 0.73007 0.98789 0.0
C125 C 0.11332 0.78542 0.99362 0.0
C126 C 0.16618 0.79212 0.10254 0.0
C127 C 0.1835 0.77561 0.08549 0.0
C128 C 0.17467 0.82276 0.12082 0.0
C129 C 0.20898 0.79027 0.08696 0.0
C130 C 0.20031 0.83658 0.12168 0.0
N131 N 0.21679 0.82023 0.10486 0.0
C132 C 0.14706 0.89618 0.07005 0.0
C133 C 0.16756 0.84644 0.04136 0.0
C134 C 0.16558 0.93318 0.06735 0.0
N135 N 0.14862 0.85338 0.05747 0.0
C136 C 0.18649 0.88235 0.03817 0.0
C137 C 0.1861 0.92594 0.05171 0.0
H138 H 0.13239 0.9002 0.08334 0.0
H139 H 0.16918 0.81161 0.03217 0.0
C140 C 0.16042 0.62859 0.07594 0.0
N141 N 0.15821 0.66642 0.09158 0.0
C142 C 0.17689 0.58948 0.08069 0.0
C143 C 0.18865 0.62961 0.1174 0.0
C144 C 0.17162 0.6675 0.11213 0.0
C145 C 0.19134 0.59012 0.10155 0.0
H146 H 0.14921 0.62878 0.05988 0.0
H147 H 0.16896 0.69762 0.12445 0.0
O148 O 0.09123 0.80386 0.07454 0.0
O149 O 0.09938 0.70005 0.0946 0.0
O150 O 0.1321 0.73318 0.05089 0.0
O151 O 0.14094 0.77949 0.10108 0.0
H152 H 0.05204 0.7772 0.10122 0.0
H153 H 0.07479 0.86516 0.04137 0.0
H154 H 0.00762 0.80599 0.09555 0.0
H155 H 0.02988 0.89199 0.03656 0.0
H156 H 0.12228 0.59657 0.15433 0.0
H157 H 0.09117 0.61505 0.07247 0.0
H158 H 0.11569 0.6808 0.13797 0.0
H159 H 0.09834 0.53205 0.08993 0.0
H160 H 0.01321 0.64549 0.05452 0.0
H161 H 0.07233 0.60105 0.0058 0.0
H162 H 0.11082 0.84621 0.1825 0.0
H163 H 0.06052 0.71973 0.1775 0.0
H164 H 0.16264 0.69403 0.01901 0.0
H165 H 0.09995 0.79415 0.02928 0.0
H166 H 0.16119 0.71236 0.97599 0.0
H167 H 0.09958 0.81091 0.98621 0.0
H168 H 0.17732 0.75219 0.07109 0.0
H169 H 0.16157 0.83597 0.13415 0.0
H170 H 0.22252 0.778 0.0738 0.0
H171 H 0.20711 0.8604 0.1357 0.0
H172 H 0.1646 0.96583 0.07841 0.0
H173 H 0.20177 0.87526 0.02577 0.0
H174 H 0.17876 0.55964 0.06802 0.0
H175 H 0.19949 0.63092 0.13369 0.0
Li176 Li 0.37217 0.21177 0.41836 0.0
Li177 Li 0.37728 0.29412 0.43347 0.0
Li178 Li 0.40392 0.26102 0.39828 0.0
Li179 Li 0.41071 0.22915 0.43809 0.0
C180 C 0.34606 0.26538 0.38783 0.0
N181 N 0.30314 0.24372 0.36148 0.0
C182 C 0.32186 0.27653 0.39664 0.0
C183 C 0.34844 0.24348 0.36555 0.0
C184 C 0.30039 0.26518 0.38307 0.0
C185 C 0.32651 0.2328 0.35251 0.0
C186 C 0.376 0.24012 0.47545 0.0
C187 C 0.3895 0.28975 0.50857 0.0
N188 N 0.37687 0.25871 0.52345 0.0
C189 C 0.36302 0.20883 0.49104 0.0
C190 C 0.38924 0.281 0.48425 0.0
C191 C 0.36374 0.2188 0.51526 0.0
C192 C 0.34508 0.13699 0.39384 0.0
N193 N 0.34564 0.1668 0.41315 0.0
C194 C 0.30398 0.14161 0.42454 0.0
C195 C 0.32587 0.16935 0.42853 0.0
C196 C 0.30244 0.11133 0.40442 0.0
C197 C 0.32344 0.10874 0.38906 0.0
H198 H 0.36107 0.13652 0.38178 0.0
H199 H 0.3269 0.19399 0.44356 0.0
C200 C 0.35431 0.39128 0.4325 0.0
N201 N 0.35471 0.34664 0.44369 0.0
C202 C 0.33326 0.42301 0.43503 0.0
C203 C 0.31402 0.36317 0.4612 0.0
C204 C 0.33527 0.33279 0.4582 0.0
C205 C 0.31231 0.40821 0.4489 0.0
H206 H 0.36944 0.4008 0.42034 0.0
H207 H 0.33518 0.29641 0.46607 0.0
C208 C 0.40961 0.14174 0.41248 0.0
N209 N 0.4176 0.04241 0.42169 0.0
C210 C 0.39888 0.11968 0.43253 0.0
C211 C 0.42425 0.11308 0.39705 0.0
C212 C 0.4032 0.06949 0.4369 0.0
C213 C 0.42809 0.06297 0.40202 0.0
C214 C 0.43992 0.31437 0.43148 0.0
C215 C 0.4598 0.29705 0.41731 0.0
C216 C 0.44526 0.34689 0.45006 0.0
C217 C 0.48479 0.31154 0.4223 0.0
C218 C 0.4705 0.3606 0.45447 0.0
N219 N 0.48958 0.34273 0.44064 0.0
C220 C 0.40637 0.30866 0.35359 0.0
C221 C 0.43451 0.24095 0.35873 0.0
C222 C 0.41189 0.31034 0.32942 0.0
N223 N 0.41723 0.27353 0.36753 0.0
C224 C 0.44064 0.24136 0.33472 0.0
C225 C 0.42868 0.27539 0.31955 0.0
H226 H 0.39224 0.33337 0.36096 0.0
H227 H 0.44268 0.21315 0.37019 0.0
C228 C 0.43277 0.17656 0.47834 0.0
N229 N 0.4372 0.19574 0.45643 0.0
C230 C 0.44932 0.14138 0.48808 0.0
C231 C 0.47551 0.14769 0.45321 0.0
C232 C 0.45836 0.18238 0.44404 0.0
C233 C 0.47073 0.1256 0.47525 0.0
H234 H 0.4157 0.18592 0.48783 0.0
H235 H 0.461 0.1958 0.42623 0.0
O236 O 0.36729 0.2749 0.40112 0.0
O237 O 0.37531 0.23087 0.4517 0.0
O238 O 0.40624 0.19121 0.40806 0.0
O239 O 0.41533 0.30058 0.42679 0.0
H240 H 0.31963 0.29321 0.41387 0.0
H241 H 0.36699 0.23395 0.35858 0.0
H242 H 0.28154 0.2733 0.38975 0.0
H243 H 0.32806 0.21553 0.33533 0.0
H244 H 0.3997 0.32129 0.51562 0.0
H245 H 0.3526 0.17708 0.48447 0.0
H246 H 0.39901 0.30582 0.47239 0.0
H247 H 0.35386 0.19482 0.52754 0.0
H248 H 0.28844 0.1439 0.43708 0.0
H249 H 0.32291 0.08612 0.37327 0.0
H250 H 0.33268 0.45716 0.42501 0.0
H251 H 0.29849 0.35035 0.47223 0.0
H252 H 0.3875 0.14097 0.44474 0.0
H253 H 0.43266 0.12936 0.38142 0.0
H254 H 0.39513 0.05209 0.45242 0.0
H255 H 0.43944 0.04044 0.39025 0.0
H256 H 0.45602 0.27231 0.40274 0.0
H257 H 0.43012 0.36182 0.46086 0.0
H258 H 0.50036 0.29803 0.41158 0.0
H259 H 0.47491 0.3856 0.46883 0.0
H260 H 0.40198 0.33683 0.31839 0.0
H261 H 0.45397 0.21426 0.32797 0.0
H262 H 0.44497 0.12558 0.50521 0.0
H263 H 0.49153 0.13611 0.4425 0.0
Li264 Li 0.12948 0.7118 0.43423 0.0
Li265 Li 0.13342 0.79105 0.41596 0.0
Li266 Li 0.09613 0.77673 0.43904 0.0
Li267 Li 0.10213 0.73615 0.3993 0.0
C268 C 0.13322 0.77209 0.47423 0.0
N269 N 0.13521 0.76 0.52269 0.0
C270 C 0.15129 0.79792 0.48757 0.0
C271 C 0.11613 0.74027 0.48554 0.0
C272 C 0.152 0.79126 0.51205 0.0
C273 C 0.11744 0.73462 0.51005 0.0
C274 C 0.16515 0.71686 0.39873 0.0
C275 C 0.19997 0.67672 0.37857 0.0
N276 N 0.21636 0.6939 0.39529 0.0
C277 C 0.18241 0.73435 0.41565 0.0
C278 C 0.17404 0.68796 0.37999 0.0
C279 C 0.20818 0.72226 0.41363 0.0
C280 C 0.15308 0.61728 0.43197 0.0
N281 N 0.15118 0.65843 0.44576 0.0
C282 C 0.18975 0.63657 0.46595 0.0
C283 C 0.16866 0.66754 0.46303 0.0
C284 C 0.19319 0.5958 0.45089 0.0
C285 C 0.17397 0.58524 0.4343 0.0
H286 H 0.13952 0.61156 0.41782 0.0
H287 H 0.1676 0.70092 0.47335 0.0
C288 C 0.16257 0.87564 0.4233 0.0
N289 N 0.15688 0.84014 0.4072 0.0
C290 C 0.18125 0.91066 0.41829 0.0
C291 C 0.18747 0.87218 0.38006 0.0
C292 C 0.16843 0.83825 0.38571 0.0
C293 C 0.19421 0.90851 0.39661 0.0
H294 H 0.15293 0.876 0.4402 0.0
H295 H 0.16322 0.80969 0.37322 0.0
C296 C 0.06833 0.68525 0.43617 0.0
N297 N 0.02117 0.64777 0.44858 0.0
C298 C 0.04676 0.69746 0.42294 0.0
C299 C 0.06599 0.65323 0.45548 0.0
C300 C 0.02306 0.67838 0.42957 0.0
C301 C 0.04196 0.63486 0.46153 0.0
C302 C 0.10039 0.85124 0.39717 0.0
C303 C 0.09814 0.8941 0.41083 0.0
C304 C 0.10605 0.85509 0.37309 0.0
C305 C 0.10168 0.94024 0.40016 0.0
C306 C 0.10946 0.90192 0.36309 0.0
N307 N 0.10723 0.94316 0.37671 0.0
C308 C 0.07935 0.84476 0.47492 0.0
C309 C 0.04756 0.81942 0.44787 0.0
C310 C 0.06349 0.88218 0.48364 0.0
N311 N 0.07137 0.81454 0.45711 0.0
C312 C 0.03107 0.85634 0.45607 0.0
C313 C 0.03921 0.88942 0.47374 0.0
H314 H 0.09868 0.84266 0.48128 0.0
H315 H 0.04192 0.79698 0.43298 0.0
C316 C 0.10036 0.69083 0.35456 0.0
N317 N 0.08726 0.72072 0.36954 0.0
C318 C 0.09478 0.69104 0.33041 0.0
C319 C 0.06095 0.74964 0.33789 0.0
C320 C 0.06741 0.74884 0.36185 0.0
C321 C 0.07544 0.72207 0.32175 0.0
H322 H 0.11628 0.66952 0.3611 0.0
H323 H 0.05794 0.7737 0.37397 0.0
O324 O 0.13238 0.77835 0.45025 0.0
O325 O 0.13963 0.72699 0.40071 0.0
O326 O 0.09175 0.70322 0.42986 0.0
O327 O 0.09762 0.8057 0.40742 0.0
H328 H 0.16466 0.82272 0.47905 0.0
H329 H 0.10192 0.72051 0.47553 0.0
H330 H 0.16591 0.81093 0.52259 0.0
H331 H 0.1043 0.71013 0.51902 0.0
H332 H 0.20707 0.65423 0.3642 0.0
H333 H 0.176 0.7566 0.43036 0.0
H334 H 0.16105 0.67405 0.36672 0.0
H335 H 0.22167 0.73527 0.42669 0.0
H336 H 0.20388 0.64588 0.47917 0.0
H337 H 0.1759 0.55453 0.42214 0.0
H338 H 0.18619 0.93791 0.43157 0.0
H339 H 0.19703 0.86974 0.36314 0.0
H340 H 0.04825 0.72171 0.40783 0.0
H341 H 0.08257 0.64244 0.46562 0.0
H342 H 0.00618 0.68788 0.41957 0.0
H343 H 0.03987 0.61021 0.47649 0.0
H344 H 0.09396 0.89178 0.42952 0.0
H345 H 0.1082 0.82226 0.36233 0.0
H346 H 0.1001 0.97373 0.41053 0.0
H347 H 0.11399 0.90546 0.34451 0.0
H348 H 0.07091 0.90723 0.4969 0.0
H349 H 0.01249 0.86014 0.44795 0.0
H350 H 0.10631 0.66914 0.31846 0.0
H351 H 0.04614 0.77451 0.33184 0.0
Li352 Li 0.59329 0.72524 0.93754 0.0
Li353 Li 0.63029 0.70499 0.91496 0.0
Li354 Li 0.62807 0.78684 0.93016 0.0
Li355 Li 0.5997 0.7591 0.8965 0.0
C356 C 0.63065 0.73277 0.97229 0.0
N357 N 0.63321 0.75116 0.02026 0.0
C358 C 0.64245 0.69878 0.98735 0.0
C359 C 0.62033 0.77629 0.98158 0.0
C360 C 0.64349 0.70869 0.01157 0.0
C361 C 0.62178 0.78487 0.00589 0.0
C362 C 0.59001 0.64011 0.90949 0.0
C363 C 0.56989 0.56464 0.89639 0.0
N364 N 0.5791 0.54087 0.9158 0.0
C365 C 0.59942 0.61482 0.92923 0.0
C366 C 0.57522 0.61479 0.89287 0.0
C367 C 0.59363 0.56472 0.93213 0.0
C368 C 0.5465 0.67648 0.94539 0.0
N369 N 0.56722 0.69416 0.95721 0.0
C370 C 0.5551 0.64829 0.99174 0.0
C371 C 0.57129 0.68167 0.98023 0.0
C372 C 0.53465 0.62682 0.97942 0.0
C373 C 0.53009 0.64222 0.95608 0.0
H374 H 0.54361 0.68654 0.92708 0.0
H375 H 0.58773 0.69535 0.98952 0.0
C376 C 0.67536 0.65488 0.92209 0.0
N377 N 0.65404 0.65496 0.90852 0.0
C378 C 0.69418 0.61961 0.91829 0.0
C379 C 0.66857 0.58494 0.88674 0.0
C380 C 0.65034 0.62134 0.89098 0.0
C381 C 0.6908 0.58404 0.9005 0.0
H382 H 0.67771 0.68244 0.93578 0.0
H383 H 0.63333 0.62298 0.88023 0.0
C384 C 0.58225 0.84363 0.92858 0.0
N385 N 0.56752 0.94131 0.93319 0.0
C386 C 0.58593 0.87681 0.90995 0.0
C387 C 0.57078 0.85994 0.94946 0.0
C388 C 0.57844 0.9261 0.91265 0.0
C389 C 0.56355 0.90953 0.95149 0.0
C390 C 0.65678 0.75427 0.88378 0.0
C391 C 0.68174 0.76389 0.89105 0.0
C392 C 0.65244 0.72953 0.86246 0.0
C393 C 0.70201 0.74824 0.87692 0.0
C394 C 0.67322 0.71452 0.84881 0.0
N395 N 0.69737 0.72406 0.85628 0.0
C396 C 0.6724 0.82079 0.95264 0.0
C397 C 0.65146 0.88502 0.93188 0.0
C398 C 0.69379 0.85071 0.95612 0.0
N399 N 0.65185 0.83784 0.9404 0.0
C400 C 0.67257 0.91638 0.93501 0.0
C401 C 0.69446 0.89875 0.94665 0.0
H402 H 0.67303 0.78268 0.95836 0.0
H403 H 0.63555 0.89747 0.92138 0.0
C404 C 0.565 0.74778 0.85848 0.0
N405 N 0.5853 0.77416 0.8665 0.0
C406 C 0.55799 0.75022 0.83464 0.0
C407 C 0.59223 0.80856 0.82813 0.0
C408 C 0.59858 0.80492 0.85201 0.0
C409 C 0.57211 0.77997 0.81897 0.0
H410 H 0.55505 0.72299 0.87033 0.0
H411 H 0.6151 0.82436 0.8587 0.0
O412 O 0.62979 0.72363 0.94853 0.0
O413 O 0.59515 0.6894 0.90637 0.0
O414 O 0.5892 0.7951 0.92623 0.0
O415 O 0.63668 0.76805 0.89769 0.0
H416 H 0.65065 0.66505 0.98038 0.0
H417 H 0.61146 0.80324 0.97016 0.0
H418 H 0.65248 0.68263 0.02346 0.0
H419 H 0.61386 0.81838 0.01332 0.0
H420 H 0.55842 0.54462 0.8837 0.0
H421 H 0.61098 0.63367 0.94225 0.0
H422 H 0.5679 0.63371 0.87744 0.0
H423 H 0.60068 0.54479 0.94738 0.0
H424 H 0.55937 0.63741 0.00974 0.0
H425 H 0.51435 0.62708 0.94603 0.0
H426 H 0.711 0.61961 0.9294 0.0
H427 H 0.6655 0.55816 0.87278 0.0
H428 H 0.59475 0.86481 0.89368 0.0
H429 H 0.56744 0.83452 0.96394 0.0
H430 H 0.58134 0.95228 0.89842 0.0
H431 H 0.55474 0.92271 0.96758 0.0
H432 H 0.68546 0.78286 0.90752 0.0
H433 H 0.63324 0.72119 0.85671 0.0
H434 H 0.72144 0.75522 0.88239 0.0
H435 H 0.67016 0.69503 0.83236 0.0
H436 H 0.71008 0.83554 0.96536 0.0
H437 H 0.67233 0.95291 0.92712 0.0
H438 H 0.54222 0.72789 0.8284 0.0
H439 H 0.60396 0.83129 0.81671 0.0
Li440 Li 0.91005 0.27075 0.9413 0.0
Li441 Li 0.87229 0.29008 0.91977 0.0
Li442 Li 0.87589 0.2082 0.93532 0.0
Li443 Li 0.90248 0.23615 0.9005 0.0
C444 C 0.87384 0.26278 0.97722 0.0
N445 N 0.87338 0.24483 0.0253 0.0
C446 C 0.85796 0.29036 0.99203 0.0
C447 C 0.88949 0.22617 0.98685 0.0
C448 C 0.858 0.28071 0.0163 0.0
C449 C 0.88898 0.21761 0.0112 0.0
C450 C 0.91365 0.35468 0.91414 0.0
C451 C 0.94002 0.42584 0.90583 0.0
N452 N 0.92802 0.45133 0.92329 0.0
C453 C 0.90156 0.38169 0.93199 0.0
C454 C 0.93302 0.37699 0.90092 0.0
C455 C 0.90908 0.43046 0.93634 0.0
C456 C 0.95954 0.30787 0.95063 0.0
N457 N 0.93579 0.304 0.96008 0.0
C458 C 0.94481 0.37027 0.98698 0.0
C459 C 0.92852 0.33346 0.9784 0.0
C460 C 0.96885 0.3774 0.97657 0.0
C461 C 0.97647 0.34431 0.95869 0.0
H462 H 0.96465 0.28522 0.9356 0.0
H463 H 0.90929 0.33178 0.98501 0.0
C464 C 0.82691 0.34076 0.92651 0.0
N465 N 0.8482 0.33929 0.91294 0.0
C466 C 0.80811 0.37572 0.92191 0.0
C467 C 0.83376 0.40727 0.88965 0.0
C468 C 0.85194 0.37123 0.89469 0.0
C469 C 0.81154 0.40954 0.90334 0.0
H470 H 0.82454 0.3145 0.94078 0.0
H471 H 0.86899 0.36852 0.88404 0.0
C472 C 0.92183 0.15243 0.9324 0.0
N473 N 0.93684 0.0549 0.93726 0.0
C474 C 0.91601 0.11793 0.91482 0.0
C475 C 0.93565 0.1375 0.95229 0.0
C476 C 0.92364 0.06875 0.91765 0.0
C477 C 0.94297 0.08798 0.95446 0.0
C478 C 0.84408 0.23749 0.89101 0.0
C479 C 0.82021 0.22748 0.90088 0.0
C480 C 0.84564 0.25974 0.86874 0.0
C481 C 0.79824 0.2401 0.8883 0.0
C482 C 0.82323 0.27179 0.85673 0.0
N483 N 0.80019 0.26184 0.86668 0.0
C484 C 0.83731 0.16052 0.96386 0.0
C485 C 0.85014 0.11639 0.92979 0.0
C486 C 0.81649 0.12878 0.96697 0.0
N487 N 0.85352 0.15444 0.94527 0.0
C488 C 0.82956 0.08367 0.93229 0.0
C489 C 0.8119 0.09054 0.95069 0.0
H490 H 0.8393 0.19181 0.97548 0.0
H491 H 0.86227 0.11351 0.91444 0.0
C492 C 0.93197 0.25056 0.85903 0.0
N493 N 0.91436 0.22091 0.86955 0.0
C494 C 0.93469 0.25044 0.83441 0.0
C495 C 0.90255 0.18649 0.83224 0.0
C496 C 0.90035 0.18807 0.8568 0.0
C497 C 0.91899 0.21965 0.82063 0.0
H498 H 0.9425 0.27694 0.86955 0.0
H499 H 0.88592 0.16598 0.86547 0.0
O500 O 0.87405 0.27216 0.95347 0.0
O501 O 0.90728 0.30616 0.91013 0.0
O502 O 0.9146 0.20083 0.92993 0.0
O503 O 0.8658 0.22666 0.90332 0.0
H504 H 0.84578 0.31896 0.98484 0.0
H505 H 0.90178 0.20453 0.97565 0.0
H506 H 0.84582 0.30176 0.02798 0.0
H507 H 0.90098 0.1893 0.01887 0.0
H508 H 0.95506 0.44343 0.8958 0.0
H509 H 0.88679 0.36504 0.94268 0.0
H510 H 0.94275 0.35671 0.88716 0.0
H511 H 0.89997 0.4516 0.95019 0.0
H512 H 0.93778 0.39523 1.00045 0.0
H513 H 0.9949 0.34789 0.95028 0.0
H514 H 0.79127 0.37683 0.93297 0.0
H515 H 0.83688 0.43269 0.87512 0.0
H516 H 0.9056 0.12894 0.89923 0.0
H517 H 0.94082 0.1639 0.96585 0.0
H518 H 0.91909 0.04161 0.90424 0.0
H519 H 0.9536 0.07589 0.9698 0.0
H520 H 0.81864 0.21071 0.91818 0.0
H521 H 0.86395 0.2684 0.86098 0.0
H522 H 0.77964 0.2328 0.89577 0.0
H523 H 0.82415 0.2893 0.83955 0.0
H524 H 0.80352 0.13539 0.98152 0.0
H525 H 0.82661 0.05531 0.91905 0.0
H526 H 0.94747 0.27686 0.82623 0.0
H527 H 0.89033 0.16167 0.82235 0.0
Li528 Li 0.60264 0.73871 0.60475 0.0
Li529 Li 0.62958 0.70815 0.57306 0.0
Li530 Li 0.63362 0.79296 0.58896 0.0
Li531 Li 0.59565 0.77553 0.56558 0.0
C532 C 0.64685 0.70709 0.62534 0.0
N533 N 0.66057 0.66083 0.66705 0.0
C534 C 0.65473 0.65766 0.62519 0.0
C535 C 0.6461 0.73304 0.64671 0.0
C536 C 0.66156 0.63493 0.64646 0.0
C537 C 0.65306 0.70899 0.66761 0.0
C538 C 0.57397 0.67204 0.58505 0.0
C539 C 0.53083 0.65251 0.59638 0.0
N540 N 0.53922 0.61021 0.60685 0.0
C541 C 0.58216 0.62833 0.59584 0.0
C542 C 0.54811 0.68422 0.58523 0.0
C543 C 0.56429 0.59756 0.60679 0.0
C544 C 0.56956 0.75987 0.64229 0.0
N545 N 0.58537 0.72389 0.63412 0.0
C546 C 0.58318 0.68168 0.67126 0.0
C547 C 0.59109 0.68378 0.64769 0.0
C548 C 0.56886 0.72081 0.68085 0.0
C549 C 0.56102 0.75905 0.66565 0.0
H550 H 0.56468 0.7908 0.63105 0.0
H551 H 0.60327 0.65502 0.64082 0.0
C552 C 0.67568 0.67717 0.55548 0.0
N553 N 0.6524 0.65823 0.56094 0.0
C554 C 0.69617 0.646 0.55044 0.0
C555 C 0.66844 0.57573 0.55622 0.0
C556 C 0.64826 0.60848 0.56083 0.0
C557 C 0.69306 0.59434 0.5515 0.0
H558 H 0.67862 0.71679 0.55597 0.0
H559 H 0.62972 0.59403 0.56545 0.0
C560 C 0.60059 0.85619 0.60395 0.0
N561 N 0.60756 0.95259 0.61898 0.0
C562 C 0.59717 0.89554 0.5882 0.0
C563 C 0.60743 0.86593 0.62738 0.0
C564 C 0.6008 0.944 0.59614 0.0
C565 C 0.6109 0.9149 0.63462 0.0
C566 C 0.63458 0.76502 0.53165 0.0
C567 C 0.65163 0.7932 0.51826 0.0
C568 C 0.62021 0.72789 0.52073 0.0
C569 C 0.65391 0.78397 0.49406 0.0
C570 C 0.62305 0.71981 0.49649 0.0
N571 N 0.63969 0.74779 0.48377 0.0
C572 C 0.6746 0.83826 0.61285 0.0
C573 C 0.65992 0.8797 0.57848 0.0
C574 C 0.69395 0.87298 0.61582 0.0
N575 N 0.65817 0.84225 0.59441 0.0
C576 C 0.67896 0.91531 0.58076 0.0
C577 C 0.69644 0.91178 0.59949 0.0
H578 H 0.67314 0.80754 0.62492 0.0
H579 H 0.64682 0.88121 0.56373 0.0
C580 C 0.54896 0.82189 0.557 0.0
N581 N 0.57129 0.81057 0.54607 0.0
C582 C 0.53233 0.85677 0.54721 0.0
C583 C 0.56155 0.86726 0.51468 0.0
C584 C 0.57766 0.83211 0.52511 0.0
C585 C 0.53875 0.88092 0.526 0.0
H586 H 0.54482 0.80624 0.57417 0.0
H587 H 0.59581 0.82432 0.51701 0.0
O588 O 0.64024 0.72998 0.60462 0.0
O589 O 0.59123 0.70289 0.5745 0.0
O590 O 0.5977 0.80838 0.59641 0.0
O591 O 0.63235 0.77343 0.55539 0.0
H592 H 0.6555 0.63696 0.60888 0.0
H593 H 0.63982 0.77111 0.64725 0.0
H594 H 0.66762 0.59667 0.6466 0.0
H595 H 0.65236 0.72854 0.68427 0.0
H596 H 0.51076 0.66153 0.5967 0.0
H597 H 0.60215 0.61878 0.5962 0.0
H598 H 0.54144 0.71775 0.57683 0.0
H599 H 0.5704 0.5638 0.61538 0.0
H600 H 0.58974 0.65135 0.6822 0.0
H601 H 0.54932 0.78923 0.67199 0.0
H602 H 0.71445 0.66245 0.54631 0.0
H603 H 0.66498 0.5363 0.55744 0.0
H604 H 0.59215 0.88882 0.56995 0.0
H605 H 0.61013 0.836 0.63981 0.0
H606 H 0.59837 0.97476 0.5841 0.0
H607 H 0.61629 0.92293 0.65268 0.0
H608 H 0.66297 0.8219 0.52651 0.0
H609 H 0.60701 0.70555 0.53081 0.0
H610 H 0.667 0.80555 0.48346 0.0
H611 H 0.61204 0.69127 0.48779 0.0
H612 H 0.70701 0.86916 0.63053 0.0
H613 H 0.68053 0.9442 0.56756 0.0
H614 H 0.51528 0.86663 0.55689 0.0
H615 H 0.56726 0.88452 0.49823 0.0
Li616 Li 0.8801 0.30882 0.56777 0.0
Li617 Li 0.90295 0.271 0.60268 0.0
Li618 Li 0.90986 0.23894 0.56172 0.0
Li619 Li 0.86993 0.22804 0.58078 0.0
C620 C 0.92806 0.35322 0.57618 0.0
N621 N 0.94736 0.44822 0.57922 0.0
C622 C 0.92216 0.38301 0.59558 0.0
C623 C 0.94399 0.37157 0.55841 0.0
C624 C 0.93202 0.43099 0.59677 0.0
C625 C 0.95351 0.41974 0.56025 0.0
C626 C 0.84388 0.28444 0.6094 0.0
C627 C 0.81771 0.25476 0.64148 0.0
N628 N 0.79654 0.2699 0.62965 0.0
C629 C 0.82185 0.29972 0.59757 0.0
C630 C 0.84181 0.26176 0.63154 0.0
C631 C 0.7981 0.29205 0.6081 0.0
C632 C 0.84813 0.37202 0.53839 0.0
N633 N 0.86215 0.36873 0.55861 0.0
C634 C 0.84048 0.43929 0.5746 0.0
C635 C 0.85889 0.40208 0.57636 0.0
C636 C 0.8249 0.44228 0.55442 0.0
C637 C 0.82945 0.40875 0.53588 0.0
H638 H 0.85011 0.34451 0.52473 0.0
H639 H 0.86914 0.39749 0.59277 0.0
C640 C 0.9363 0.25026 0.64088 0.0
N641 N 0.91636 0.27873 0.63377 0.0
C642 C 0.94258 0.247 0.66488 0.0
C643 C 0.90853 0.30441 0.67349 0.0
C644 C 0.903 0.3067 0.6494 0.0
C645 C 0.92798 0.27297 0.68159 0.0
H646 H 0.94643 0.22802 0.62807 0.0
H647 H 0.88708 0.32869 0.6433 0.0
C648 C 0.87774 0.26081 0.52434 0.0
N649 N 0.88304 0.28531 0.47717 0.0
C650 C 0.8605 0.24252 0.50765 0.0
C651 C 0.89775 0.29133 0.51702 0.0
C652 C 0.86348 0.25539 0.48389 0.0
C653 C 0.90009 0.30336 0.49311 0.0
C654 C 0.90631 0.15243 0.58748 0.0
C655 C 0.89356 0.12878 0.56894 0.0
C656 C 0.92334 0.12557 0.60148 0.0
C657 C 0.89814 0.07865 0.56468 0.0
C658 C 0.92742 0.07549 0.59664 0.0
N659 N 0.91486 0.05327 0.57848 0.0
C660 C 0.9582 0.1965 0.55324 0.0
C661 C 0.92679 0.17303 0.52536 0.0
C662 C 0.9745 0.15913 0.54518 0.0
N663 N 0.93461 0.20201 0.54366 0.0
C664 C 0.94243 0.13509 0.51682 0.0
C665 C 0.96638 0.12659 0.52724 0.0
H666 H 0.96371 0.21901 0.56821 0.0
H667 H 0.90762 0.17651 0.51861 0.0
C668 C 0.82246 0.18906 0.56938 0.0
N669 N 0.84202 0.18556 0.58499 0.0
C670 C 0.80083 0.15986 0.57229 0.0
C671 C 0.82002 0.12421 0.60731 0.0
C672 C 0.84129 0.15412 0.60371 0.0
C673 C 0.79948 0.12687 0.59143 0.0
H674 H 0.82364 0.21489 0.55481 0.0
H675 H 0.85711 0.15281 0.61595 0.0
O676 O 0.91858 0.30612 0.57464 0.0
O677 O 0.86727 0.29045 0.59909 0.0
O678 O 0.87505 0.24806 0.54762 0.0
O679 O 0.90271 0.20188 0.5916 0.0
H680 H 0.90989 0.36944 0.60947 0.0
H681 H 0.94904 0.3488 0.54339 0.0
H682 H 0.92747 0.45454 0.61164 0.0
H683 H 0.96582 0.43445 0.54661 0.0
H684 H 0.81583 0.237 0.65853 0.0
H685 H 0.823 0.31661 0.58027 0.0
H686 H 0.85859 0.24881 0.64076 0.0
H687 H 0.7809 0.30347 0.59909 0.0
H688 H 0.83745 0.46345 0.5896 0.0
H689 H 0.8181 0.40977 0.5199 0.0
H690 H 0.95762 0.22213 0.6704 0.0
H691 H 0.89703 0.32553 0.68577 0.0
H692 H 0.84498 0.2186 0.51301 0.0
H693 H 0.91134 0.30551 0.5296 0.0
H694 H 0.85026 0.24157 0.47079 0.0
H695 H 0.91547 0.32701 0.48721 0.0
H696 H 0.88054 0.14902 0.55771 0.0
H697 H 0.93342 0.14329 0.61586 0.0
H698 H 0.88852 0.05999 0.5503 0.0
H699 H 0.94062 0.05431 0.60728 0.0
H700 H 0.9929 0.15464 0.55356 0.0
H701 H 0.93506 0.11068 0.50328 0.0
H702 H 0.78552 0.1625 0.55951 0.0
H703 H 0.81955 0.0996 0.62242 0.0
H704 H 0.2651 0.1039 0.05192 0.0
H705 H 0.31845 0.98258 0.04937 0.0
H706 H 0.28314 0.92351 0.04858 0.0
H707 H 0.2371 0.90606 0.04955 0.0
H708 H 0.18374 0.02737 0.05185 0.0
H709 H 0.21902 0.08651 0.05174 0.0
C710 C 0.26904 0.06457 0.05083 0.0
C711 C 0.29451 0.04787 0.05062 0.0
C712 C 0.2486 0.0307 0.05044 0.0
C713 C 0.29912 0.99661 0.04975 0.0
C714 C 0.27891 0.96275 0.0492 0.0
C715 C 0.23313 0.94544 0.04966 0.0
C716 C 0.20767 0.96209 0.05061 0.0
C717 C 0.25357 0.97934 0.04965 0.0
C718 C 0.20305 0.01337 0.0513 0.0
C719 C 0.22326 0.04727 0.05115 0.0
H720 H 0.20006 0.49545 0.44753 0.0
H721 H 0.24154 0.63261 0.45447 0.0
H722 H 0.2818 0.58751 0.4545 0.0
H723 H 0.3056 0.50877 0.45242 0.0
H724 H 0.26398 0.37181 0.4452 0.0
H725 H 0.22378 0.41693 0.44538 0.0
C726 C 0.21791 0.51547 0.44898 0.0
C727 C 0.21763 0.56739 0.45121 0.0
C728 C 0.24113 0.48925 0.44896 0.0
C729 C 0.24104 0.59261 0.4532 0.0
C730 C 0.26416 0.56685 0.45304 0.0
C731 C 0.28773 0.48886 0.4508 0.0
C732 C 0.28794 0.43685 0.44902 0.0
C733 C 0.26449 0.51513 0.45094 0.0
C734 C 0.2645 0.41171 0.44706 0.0
C735 C 0.24142 0.43753 0.447 0.0
H736 H 0.7007 0.99795 0.9556 0.0
H737 H 0.74277 0.86558 0.93849 0.0
H738 H 0.78252 0.91228 0.93875 0.0
H739 H 0.80564 0.99102 0.94331 0.0
H740 H 0.76372 0.12373 0.96005 0.0
H741 H 0.72397 0.0768 0.96055 0.0
C742 C 0.71856 0.97938 0.95187 0.0
C743 C 0.71862 0.92814 0.9472 0.0
C744 C 0.74154 0.00657 0.95203 0.0
C745 C 0.74206 0.90473 0.94256 0.0
C746 C 0.76488 0.9315 0.94255 0.0
C747 C 0.78781 0.00971 0.94702 0.0
C748 C 0.78784 0.0609 0.95175 0.0
C749 C 0.76488 0.98246 0.94721 0.0
C750 C 0.76447 0.08428 0.95673 0.0
C751 C 0.74162 0.0575 0.95685 0.0
H752 H 0.74201 0.6103 0.56643 0.0
H753 H 0.69515 0.50175 0.53102 0.0
H754 H 0.73166 0.44602 0.52827 0.0
H755 H 0.77676 0.42713 0.53683 0.0
H756 H 0.8237 0.53787 0.57053 0.0
H757 H 0.78734 0.59382 0.57261 0.0
C758 C 0.73973 0.57492 0.55766 0.0
C759 C 0.71561 0.56065 0.54893 0.0
C760 C 0.76091 0.54323 0.55583 0.0
C761 C 0.71323 0.5138 0.53823 0.0
C762 C 0.73421 0.48192 0.53649 0.0
C763 C 0.77921 0.46382 0.54425 0.0
C764 C 0.80309 0.47794 0.55361 0.0
C765 C 0.75814 0.49613 0.54533 0.0
C766 C 0.80559 0.52549 0.5635 0.0
C767 C 0.78478 0.55769 0.56463 0.0
H768 H 0.43368 0.29501 0.2083 0.0
H769 H 0.43088 0.13573 0.21356 0.0
H770 H 0.43184 0.14146 0.25668 0.0
H771 H 0.43074 0.19179 0.29275 0.0
H772 H 0.43361 0.35111 0.28755 0.0
H773 H 0.43543 0.34522 0.24447 0.0
C774 C 0.43383 0.26148 0.21885 0.0
C775 C 0.43224 0.21496 0.20768 0.0
C776 C 0.43416 0.26508 0.24363 0.0
C777 C 0.43189 0.17197 0.22169 0.0
C778 C 0.43248 0.17524 0.24635 0.0
C779 C 0.43229 0.22526 0.28226 0.0
C780 C 0.43203 0.27187 0.29345 0.0
C781 C 0.43323 0.22161 0.2575 0.0
C782 C 0.43349 0.3148 0.27944 0.0
C783 C 0.43463 0.31146 0.2548 0.0
H784 H 0.11268 0.74502 0.29084 0.0
H785 H 0.03171 0.72018 0.29526 0.0
H786 H 0.02733 0.73805 0.2529 0.0
H787 H 0.04685 0.7607 0.21455 0.0
H788 H 0.12793 0.78694 0.21114 0.0
H789 H 0.13187 0.76932 0.25318 0.0
C790 C 0.09412 0.74294 0.28244 0.0
C791 C 0.0726 0.73054 0.29598 0.0
C792 C 0.09173 0.75417 0.25833 0.0
C793 C 0.04855 0.72932 0.28508 0.0
C794 C 0.04606 0.73962 0.26092 0.0
C795 C 0.06535 0.76264 0.22305 0.0
C796 C 0.08702 0.77552 0.20968 0.0
C797 C 0.06755 0.75217 0.24736 0.0
C798 C 0.11084 0.77814 0.22102 0.0
C799 C 0.11318 0.76754 0.24505 0.0
H800 H 0.56149 0.699 0.79185 0.0
H801 H 0.57298 0.85702 0.78755 0.0
H802 H 0.5714 0.8528 0.74449 0.0
H803 H 0.57048 0.80358 0.70825 0.0
H804 H 0.55795 0.64579 0.7122 0.0
H805 H 0.55615 0.65076 0.75529 0.0
C806 C 0.56305 0.73272 0.78155 0.0
C807 C 0.56756 0.77824 0.793 0.0
C808 C 0.56222 0.73003 0.75673 0.0
C809 C 0.56991 0.82139 0.77924 0.0
C810 C 0.56895 0.81904 0.7546 0.0
C811 C 0.56668 0.77033 0.7184 0.0
C812 C 0.56446 0.7243 0.70685 0.0
C813 C 0.56565 0.77343 0.74316 0.0
C814 C 0.56012 0.68161 0.72054 0.0
C815 C 0.55899 0.68445 0.74521 0.0
H816 H 0.89085 0.25554 0.71356 0.0
H817 H 0.97244 0.26833 0.7072 0.0
H818 H 0.97717 0.25168 0.74961 0.0
H819 H 0.95775 0.23421 0.78869 0.0
H820 H 0.87589 0.22231 0.79404 0.0
H821 H 0.8717 0.23757 0.75188 0.0
C822 C 0.90967 0.25528 0.72149 0.0
C823 C 0.93123 0.26381 0.70733 0.0
C824 C 0.91221 0.24538 0.74571 0.0
C825 C 0.95554 0.26195 0.71775 0.0
C826 C 0.95823 0.2525 0.74199 0.0
C827 C 0.93903 0.23495 0.7806 0.0
C828 C 0.91721 0.22653 0.79457 0.0
C829 C 0.93667 0.24422 0.75618 0.0
C830 C 0.89307 0.22746 0.78373 0.0
C831 C 0.8906 0.2367 0.75961 0.0
H832 H 0.47081 0.47733 0.04203 0.0
H833 H 0.47665 0.38861 0.97888 0.0
H834 H 0.50093 0.45457 0.95952 0.0
H835 H 0.52025 0.53813 0.96043 0.0
H836 H 0.51424 0.62612 0.02379 0.0
H837 H 0.48999 0.56013 0.043 0.0
C838 C 0.47718 0.47248 0.02395 0.0
C839 C 0.47171 0.428 0.01193 0.0
C840 C 0.49102 0.51064 0.0129 0.0
C841 C 0.48071 0.42214 0.98867 0.0
C842 C 0.49445 0.46005 0.97752 0.0
C843 C 0.51338 0.54302 0.97836 0.0
C844 C 0.51895 0.58719 0.99061 0.0
C845 C 0.49962 0.50459 0.98942 0.0
C846 C 0.51033 0.59251 0.01399 0.0
C847 C 0.49643 0.55479 0.02498 0.0
H848 H 0.0346 0.5739 0.98531 0.0
H849 H 0.0129 0.55752 0.05851 0.0
H850 H 0.98965 0.48202 0.04903 0.0
H851 H 0.9758 0.4196 0.02018 0.0
H852 H 0.99702 0.43612 0.94688 0.0
H853 H 0.02078 0.51114 0.9564 0.0
C854 C 0.02489 0.55376 0.99923 0.0
C855 C 0.0254 0.57203 0.02258 0.0
C856 C 0.0117 0.50973 0.99372 0.0
C857 C 0.01245 0.54532 0.04028 0.0
C858 C 0.99931 0.50168 0.03493 0.0
C859 C 0.98552 0.43963 0.00623 0.0
C860 C 0.98465 0.42165 0.98285 0.0
C861 C 0.99881 0.48347 0.01173 0.0
C862 C 0.99771 0.44813 0.96513 0.0
C863 C 0.01112 0.49152 0.97051 0.0
H864 H 0.55408 0.96854 0.50615 0.0
H865 H 0.48658 0.88602 0.52493 0.0
H866 H 0.45985 0.95458 0.51171 0.0
H867 H 0.45547 0.03806 0.49469 0.0
H868 H 0.52282 0.11996 0.47512 0.0
H869 H 0.54967 0.05138 0.48841 0.0
C870 C 0.53351 0.96516 0.50706 0.0
C871 C 0.52246 0.9219 0.5166 0.0
C872 C 0.51817 0.00478 0.49932 0.0
C873 C 0.49572 0.9189 0.51798 0.0
C874 C 0.48037 0.9581 0.51033 0.0
C875 C 0.47604 0.04113 0.49357 0.0
C876 C 0.48709 0.08434 0.48406 0.0
C877 C 0.49137 1.00135 0.5011 0.0
C878 C 0.51378 0.08715 0.48228 0.0
C879 C 0.52916 0.04794 0.48992 0.0
H880 H 0.97271 0.08439 0.48348 0.0
H881 H 0.99431 0.06693 0.55665 0.0
H882 H 0.01833 0.99261 0.54678 0.0
H883 H 0.03276 0.93126 0.51754 0.0
H884 H 0.01082 0.94837 0.44445 0.0
H885 H 0.98679 0.02268 0.45433 0.0
C886 C 0.98253 0.06426 0.49733 0.0
C887 C 0.98177 0.08193 0.52078 0.0
C888 C 0.99605 0.02082 0.49161 0.0
C889 C 0.99493 0.05524 0.53836 0.0
C890 C 0.00851 0.01226 0.53277 0.0
C891 C 0.02281 0.95129 0.50373 0.0
C892 C 0.02357 0.93367 0.48028 0.0
C893 C 0.00919 0.99461 0.50947 0.0
C894 C 0.01025 0.96014 0.46273 0.0
C895 C 0.99666 0.0031 0.46832 0.0
H896 H 0.24118 0.60253 0.1108 0.0
H897 H 0.18337 0.49069 0.10178 0.0
H898 H 0.21552 0.42555 0.10585 0.0
H899 H 0.26045 0.40119 0.10867 0.0
H900 H 0.3186 0.51327 0.1144 0.0
H901 H 0.28595 0.57803 0.11522 0.0
C902 C 0.23568 0.56382 0.11013 0.0
C903 C 0.21016 0.551 0.10606 0.0
C904 C 0.25429 0.52694 0.11181 0.0
C905 C 0.20305 0.501 0.10481 0.0
C906 C 0.22136 0.46395 0.10715 0.0
C907 C 0.26582 0.4398 0.11056 0.0
C908 C 0.29165 0.45287 0.11161 0.0
C909 C 0.24707 0.47656 0.1102 0.0
C910 C 0.29869 0.5028 0.11359 0.0
C911 C 0.28009 0.53963 0.11401 0.0
H912 H 0.2995 0.01644 0.38887 0.0
H913 H 0.25306 0.14072 0.40985 0.0
H914 H 0.21486 0.08949 0.40729 0.0
H915 H 0.19527 0.00771 0.40244 0.0
H916 H 0.24159 0.88363 0.38132 0.0
H917 H 0.27922 0.93695 0.37977 0.0
C918 C 0.28098 0.03261 0.39238 0.0
C919 C 0.27914 0.08199 0.39995 0.0
C920 C 0.25912 0.00304 0.39083 0.0
C921 C 0.25501 0.10237 0.40457 0.0
C922 C 0.23316 0.07324 0.40299 0.0
C923 C 0.21359 0.99264 0.39726 0.0
C924 C 0.21585 0.94202 0.39222 0.0
C925 C 0.2351 0.02325 0.39673 0.0
C926 C 0.23949 0.9227 0.38518 0.0
C927 C 0.261 0.95302 0.38447 0.0
H928 H 0.74156 0.59717 0.89605 0.0
H929 H 0.68322 0.48467 0.89725 0.0
H930 H 0.71579 0.41997 0.8963 0.0
H931 H 0.76083 0.39592 0.8987 0.0
H932 H 0.81914 0.50848 0.89805 0.0
H933 H 0.7866 0.57297 0.89502 0.0
C934 C 0.73607 0.55843 0.89594 0.0
C935 C 0.71021 0.54542 0.89698 0.0
C936 C 0.75483 0.52169 0.8956 0.0
C937 C 0.70311 0.49532 0.8964 0.0
C938 C 0.72168 0.45844 0.89601 0.0
C939 C 0.76631 0.43461 0.89774 0.0
C940 C 0.79216 0.44776 0.89885 0.0
C941 C 0.74757 0.47126 0.89617 0.0
C942 C 0.79927 0.49774 0.89718 0.0
C943 C 0.78072 0.53451 0.89558 0.0
H944 H 0.69519 0.01142 0.59361 0.0
H945 H 0.74609 0.89009 0.60882 0.0
H946 H 0.78231 0.94672 0.60905 0.0
H947 H 0.79977 0.02945 0.60237 0.0
H948 H 0.74921 0.15095 0.5866 0.0
H949 H 0.71255 0.09522 0.58867 0.0
C950 C 0.71423 0.99748 0.59696 0.0
C951 C 0.718 0.94676 0.60114 0.0
C952 C 0.73499 0.03007 0.59674 0.0
C953 C 0.74268 0.92914 0.60582 0.0
C954 C 0.76342 0.96138 0.60578 0.0
C955 C 0.78069 0.04389 0.59978 0.0
C956 C 0.77716 0.09408 0.59426 0.0
C957 C 0.75981 0.01176 0.60097 0.0
C958 C 0.75238 0.11221 0.59057 0.0
C959 C 0.73144 0.08047 0.59185 0.0
loop_
_geom_bond_atom_site_label_1
_geom_bond_atom_site_label_2
_geom_bond_distance
_geom_bond_site_symmetry_2
_ccdc_geom_bond_type
Li0 N17 1.990 . S
Li0 O60 1.956 . S
Li0 O61 1.970 . S
Li0 O62 1.961 . S
Li1 N25 1.990 . S
Li1 O60 1.970 . S
Li1 O61 1.956 . S
Li1 O63 1.961 . S
Li2 N47 1.990 . S
Li2 O60 1.961 . S
Li2 O62 1.956 . S
Li2 O63 1.970 . S
Li3 N53 1.990 . S
Li3 O61 1.961 . S
Li3 O62 1.970 . S
Li3 O63 1.956 . S
C4 C6 1.348 . S
C4 C7 1.356 . S
C4 O60 1.325 . S
N5 C8 1.314 . S
N5 C9 1.279 . S
C6 C4 1.348 . S
C6 C8 1.353 . S
C6 H64 0.929 . S
C7 C4 1.356 . S
C7 C9 1.358 . S
C7 H65 0.930 . S
C8 N5 1.314 . S
C8 C6 1.353 . S
C8 H66 0.930 . S
C9 N5 1.279 . S
C9 C7 1.358 . S
C9 H67 0.930 . S
C10 C13 1.348 . S
C10 C14 1.356 . S
C10 O61 1.325 . S
C11 N12 1.279 . S
C11 C14 1.358 . S
C11 H68 0.930 . S
N12 C11 1.279 . S
N12 C15 1.314 . S
C13 C10 1.348 . S
C13 C15 1.353 . S
C13 H69 0.929 . S
C14 C10 1.356 . S
C14 C11 1.358 . S
C14 H70 0.930 . S
C15 N12 1.314 . S
C15 C13 1.353 . S
C15 H71 0.930 . S
C16 N17 1.314 . S
C16 C21 1.353 . S
C16 H22 0.930 . S
N17 Li0 1.990 . S
N17 C16 1.314 . S
N17 C19 1.279 . S
C18 C19 1.358 . S
C18 C20 1.356 . S
C18 H72 0.930 . S
C19 N17 1.279 . S
C19 C18 1.358 . S
C19 H23 0.930 . S
C20 C18 1.356 . S
C20 C21 1.348 . S
C21 C16 1.353 . S
C21 C20 1.348 . S
C21 H73 0.929 1_554 S
H22 C16 0.930 . S
H23 C19 0.930 . S
C24 N25 1.314 . S
C24 C26 1.353 . S
C24 H30 0.930 . S
N25 Li1 1.990 . S
N25 C24 1.314 . S
N25 C28 1.279 . S
C26 C24 1.353 . S
C26 C29 1.348 . S
C26 H74 0.929 . S
C27 C28 1.358 . S
C27 C29 1.356 . S
C27 H75 0.930 . S
C28 N25 1.279 . S
C28 C27 1.358 . S
C28 H31 0.930 . S
C29 C26 1.348 . S
C29 C27 1.356 . S
H30 C24 0.930 . S
H31 C28 0.930 . S
C32 C34 1.348 . S
C32 C35 1.356 1_554 S
C32 O62 1.325 . S
N33 C36 1.314 . S
N33 C37 1.279 . S
C34 C32 1.348 . S
C34 C36 1.353 1_554 S
C34 H76 0.929 . S
C35 C32 1.356 1_556 S
C35 C37 1.358 . S
C35 H77 0.930 1_556 S
C36 N33 1.314 . S
C36 C34 1.353 1_556 S
C36 H78 0.930 . S
C37 N33 1.279 . S
C37 C35 1.358 . S
C37 H79 0.930 . S
C38 C39 1.348 . S
C38 C40 1.356 . S
C38 O63 1.325 . S
C39 C38 1.348 . S
C39 C41 1.353 . S
C39 H80 0.929 . S
C40 C38 1.356 . S
C40 C42 1.358 . S
C40 H81 0.930 . S
C41 C39 1.353 . S
C41 N43 1.314 . S
C41 H82 0.930 . S
C42 C40 1.358 . S
C42 N43 1.279 . S
C42 H83 0.930 . S
N43 C41 1.314 . S
N43 C42 1.279 . S
C44 C46 1.353 . S
C44 N47 1.314 . S
C44 H50 0.930 . S
C45 N47 1.279 . S
C45 C48 1.358 . S
C45 H51 0.930 . S
C46 C44 1.353 . S
C46 C49 1.348 . S
C46 H84 0.929 . S
N47 Li2 1.990 . S
N47 C44 1.314 . S
N47 C45 1.279 . S
C48 C45 1.358 . S
C48 C49 1.356 . S
C48 H85 0.930 . S
C49 C46 1.348 . S
C49 C48 1.356 . S
H50 C44 0.930 . S
H51 C45 0.930 . S
C52 N53 1.314 . S
C52 C54 1.353 . S
C52 H58 0.930 . S
N53 Li3 1.990 . S
N53 C52 1.314 . S
N53 C56 1.279 . S
C54 C52 1.353 . S
C54 C57 1.348 . S
C54 H86 0.929 . S
C55 C56 1.358 . S
C55 C57 1.356 . S
C55 H87 0.930 . S
C56 N53 1.279 . S
C56 C55 1.358 . S
C56 H59 0.930 . S
C57 C54 1.348 . S
C57 C55 1.356 . S
H58 C52 0.930 . S
H59 C56 0.930 . S
O60 Li0 1.956 . S
O60 Li1 1.970 . S
O60 Li2 1.961 . S
O60 C4 1.325 . S
O61 Li0 1.970 . S
O61 Li1 1.956 . S
O61 Li3 1.961 . S
O61 C10 1.325 . S
O62 Li0 1.961 . S
O62 Li2 1.956 . S
O62 Li3 1.970 . S
O62 C32 1.325 . S
O63 Li1 1.961 . S
O63 Li2 1.970 . S
O63 Li3 1.956 . S
O63 C38 1.325 . S
H64 C6 0.929 . S
H65 C7 0.930 . S
H66 C8 0.930 . S
H67 C9 0.930 . S
H68 C11 0.930 . S
H69 C13 0.929 . S
H70 C14 0.930 . S
H71 C15 0.930 . S
H72 C18 0.930 . S
H73 C21 0.929 1_556 S
H74 C26 0.929 . S
H75 C27 0.930 . S
H76 C34 0.929 . S
H77 C35 0.930 1_554 S
H78 C36 0.930 . S
H79 C37 0.930 . S
H80 C39 0.929 . S
H81 C40 0.930 . S
H82 C41 0.930 . S
H83 C42 0.930 . S
H84 C46 0.929 . S
H85 C48 0.930 . S
H86 C54 0.929 . S
H87 C55 0.930 . S
Li88 N105 1.990 . S
Li88 O148 1.956 . S
Li88 O149 1.970 . S
Li88 O150 1.961 . S
Li89 N113 1.990 . S
Li89 O148 1.970 . S
Li89 O149 1.956 . S
Li89 O151 1.961 . S
Li90 N135 1.990 . S
Li90 O148 1.961 . S
Li90 O150 1.956 . S
Li90 O151 1.970 . S
Li91 N141 1.990 . S
Li91 O149 1.961 . S
Li91 O150 1.970 . S
Li91 O151 1.956 . S
C92 C94 1.348 . S
C92 C95 1.356 . S
C92 O148 1.325 . S
N93 C96 1.314 . S
N93 C97 1.279 . S
C94 C92 1.348 . S
C94 C96 1.353 . S
C94 H152 0.929 . S
C95 C92 1.356 . S
C95 C97 1.358 . S
C95 H153 0.930 . S
C96 N93 1.314 . S
C96 C94 1.353 . S
C96 H154 0.930 . S
C97 N93 1.279 . S
C97 C95 1.358 . S
C97 H155 0.930 . S
C98 C101 1.348 . S
C98 C102 1.356 . S
C98 O149 1.325 . S
C99 N100 1.279 . S
C99 C102 1.358 . S
C99 H156 0.930 . S
N100 C99 1.279 . S
N100 C103 1.314 . S
C101 C98 1.348 . S
C101 C103 1.353 . S
C101 H157 0.929 . S
C102 C98 1.356 . S
C102 C99 1.358 . S
C102 H158 0.930 . S
C103 N100 1.314 . S
C103 C101 1.353 . S
C103 H159 0.930 . S
C104 N105 1.314 . S
C104 C109 1.353 . S
C104 H110 0.930 . S
N105 Li88 1.990 . S
N105 C104 1.314 . S
N105 C107 1.279 . S
C106 C107 1.358 . S
C106 C108 1.356 . S
C106 H160 0.930 . S
C107 N105 1.279 . S
C107 C106 1.358 . S
C107 H111 0.930 . S
C108 C106 1.356 . S
C108 C109 1.348 . S
C109 C104 1.353 . S
C109 C108 1.348 . S
C109 H161 0.929 1_554 S
H110 C104 0.930 . S
H111 C107 0.930 . S
C112 N113 1.314 . S
C112 C114 1.353 . S
C112 H118 0.930 . S
N113 Li89 1.990 . S
N113 C112 1.314 . S
N113 C116 1.279 . S
C114 C112 1.353 . S
C114 C117 1.348 . S
C114 H162 0.929 . S
C115 C116 1.358 . S
C115 C117 1.356 . S
C115 H163 0.930 . S
C116 N113 1.279 . S
C116 C115 1.358 . S
C116 H119 0.930 . S
C117 C114 1.348 . S
C117 C115 1.356 . S
H118 C112 0.930 . S
H119 C116 0.930 . S
C120 C122 1.348 . S
C120 C123 1.356 1_554 S
C120 O150 1.325 . S
N121 C124 1.314 . S
N121 C125 1.279 . S
C122 C120 1.348 . S
C122 C124 1.353 1_554 S
C122 H164 0.929 . S
C123 C120 1.356 1_556 S
C123 C125 1.358 . S
C123 H165 0.930 1_556 S
C124 N121 1.314 . S
C124 C122 1.353 1_556 S
C124 H166 0.930 . S
C125 N121 1.279 . S
C125 C123 1.358 . S
C125 H167 0.930 . S
C126 C127 1.348 . S
C126 C128 1.356 . S
C126 O151 1.325 . S
C127 C126 1.348 . S
C127 C129 1.353 . S
C127 H168 0.929 . S
C128 C126 1.356 . S
C128 C130 1.358 . S
C128 H169 0.930 . S
C129 C127 1.353 . S
C129 N131 1.314 . S
C129 H170 0.930 . S
C130 C128 1.358 . S
C130 N131 1.279 . S
C130 H171 0.930 . S
N131 C129 1.314 . S
N131 C130 1.279 . S
C132 C134 1.353 . S
C132 N135 1.314 . S
C132 H138 0.930 . S
C133 N135 1.279 . S
C133 C136 1.358 . S
C133 H139 0.930 . S
C134 C132 1.353 . S
C134 C137 1.348 . S
C134 H172 0.929 . S
N135 Li90 1.990 . S
N135 C132 1.314 . S
N135 C133 1.279 . S
C136 C133 1.358 . S
C136 C137 1.356 . S
C136 H173 0.930 . S
C137 C134 1.348 . S
C137 C136 1.356 . S
H138 C132 0.930 . S
H139 C133 0.930 . S
C140 N141 1.314 . S
C140 C142 1.353 . S
C140 H146 0.930 . S
N141 Li91 1.990 . S
N141 C140 1.314 . S
N141 C144 1.279 . S
C142 C140 1.353 . S
C142 C145 1.348 . S
C142 H174 0.929 . S
C143 C144 1.358 . S
C143 C145 1.356 . S
C143 H175 0.930 . S
C144 N141 1.279 . S
C144 C143 1.358 . S
C144 H147 0.930 . S
C145 C142 1.348 . S
C145 C143 1.356 . S
H146 C140 0.930 . S
H147 C144 0.930 . S
O148 Li88 1.956 . S
O148 Li89 1.970 . S
O148 Li90 1.961 . S
O148 C92 1.325 . S
O149 Li88 1.970 . S
O149 Li89 1.956 . S
O149 Li91 1.961 . S
O149 C98 1.325 . S
O150 Li88 1.961 . S
O150 Li90 1.956 . S
O150 Li91 1.970 . S
O150 C120 1.325 . S
O151 Li89 1.961 . S
O151 Li90 1.970 . S
O151 Li91 1.956 . S
O151 C126 1.325 . S
H152 C94 0.929 . S
H153 C95 0.930 . S
H154 C96 0.930 . S
H155 C97 0.930 . S
H156 C99 0.930 . S
H157 C101 0.929 . S
H158 C102 0.930 . S
H159 C103 0.930 . S
H160 C106 0.930 . S
H161 C109 0.929 1_556 S
H162 C114 0.929 . S
H163 C115 0.930 . S
H164 C122 0.929 . S
H165 C123 0.930 1_554 S
H166 C124 0.930 . S
H167 C125 0.930 . S
H168 C127 0.929 . S
H169 C128 0.930 . S
H170 C129 0.930 . S
H171 C130 0.930 . S
H172 C134 0.929 . S
H173 C136 0.930 . S
H174 C142 0.929 . S
H175 C143 0.930 . S
Li176 N193 1.990 . S
Li176 O236 1.956 . S
Li176 O237 1.970 . S
Li176 O238 1.961 . S
Li177 N201 1.990 . S
Li177 O236 1.970 . S
Li177 O237 1.956 . S
Li177 O239 1.961 . S
Li178 N223 1.990 . S
Li178 O236 1.961 . S
Li178 O238 1.956 . S
Li178 O239 1.970 . S
Li179 N229 1.990 . S
Li179 O237 1.961 . S
Li179 O238 1.970 . S
Li179 O239 1.956 . S
C180 C182 1.348 . S
C180 C183 1.356 . S
C180 O236 1.325 . S
N181 C184 1.314 . S
N181 C185 1.279 . S
C182 C180 1.348 . S
C182 C184 1.353 . S
C182 H240 0.929 . S
C183 C180 1.356 . S
C183 C185 1.358 . S
C183 H241 0.930 . S
C184 N181 1.314 . S
C184 C182 1.353 . S
C184 H242 0.930 . S
C185 N181 1.279 . S
C185 C183 1.358 . S
C185 H243 0.930 . S
C186 C189 1.348 . S
C186 C190 1.356 . S
C186 O237 1.325 . S
C187 N188 1.279 . S
C187 C190 1.358 . S
C187 H244 0.930 . S
N188 C187 1.279 . S
N188 C191 1.314 . S
C189 C186 1.348 . S
C189 C191 1.353 . S
C189 H245 0.929 . S
C190 C186 1.356 . S
C190 C187 1.358 . S
C190 H246 0.930 . S
C191 N188 1.314 . S
C191 C189 1.353 . S
C191 H247 0.930 . S
C192 N193 1.314 . S
C192 C197 1.353 . S
C192 H198 0.930 . S
N193 Li176 1.990 . S
N193 C192 1.314 . S
N193 C195 1.279 . S
C194 C195 1.358 . S
C194 C196 1.356 . S
C194 H248 0.930 . S
C195 N193 1.279 . S
C195 C194 1.358 . S
C195 H199 0.930 . S
C196 C194 1.356 . S
C196 C197 1.348 . S
C197 C192 1.353 . S
C197 C196 1.348 . S
C197 H249 0.929 . S
H198 C192 0.930 . S
H199 C195 0.930 . S
C200 N201 1.314 . S
C200 C202 1.353 . S
C200 H206 0.930 . S
N201 Li177 1.990 . S
N201 C200 1.314 . S
N201 C204 1.279 . S
C202 C200 1.353 . S
C202 C205 1.348 . S
C202 H250 0.929 . S
C203 C204 1.358 . S
C203 C205 1.356 . S
C203 H251 0.930 . S
C204 N201 1.279 . S
C204 C203 1.358 . S
C204 H207 0.930 . S
C205 C202 1.348 . S
C205 C203 1.356 . S
H206 C200 0.930 . S
H207 C204 0.930 . S
C208 C210 1.348 . S
C208 C211 1.356 . S
C208 O238 1.325 . S
N209 C212 1.314 . S
N209 C213 1.279 . S
C210 C208 1.348 . S
C210 C212 1.353 . S
C210 H252 0.929 . S
C211 C208 1.356 . S
C211 C213 1.358 . S
C211 H253 0.930 . S
C212 N209 1.314 . S
C212 C210 1.353 . S
C212 H254 0.930 . S
C213 N209 1.279 . S
C213 C211 1.358 . S
C213 H255 0.930 . S
C214 C215 1.348 . S
C214 C216 1.356 . S
C214 O239 1.325 . S
C215 C214 1.348 . S
C215 C217 1.353 . S
C215 H256 0.929 . S
C216 C214 1.356 . S
C216 C218 1.358 . S
C216 H257 0.930 . S
C217 C215 1.353 . S
C217 N219 1.314 . S
C217 H258 0.930 . S
C218 C216 1.358 . S
C218 N219 1.279 . S
C218 H259 0.930 . S
N219 C217 1.314 . S
N219 C218 1.279 . S
C220 C222 1.353 . S
C220 N223 1.314 . S
C220 H226 0.930 . S
C221 N223 1.279 . S
C221 C224 1.358 . S
C221 H227 0.930 . S
C222 C220 1.353 . S
C222 C225 1.348 . S
C222 H260 0.929 . S
N223 Li178 1.990 . S
N223 C220 1.314 . S
N223 C221 1.279 . S
C224 C221 1.358 . S
C224 C225 1.356 . S
C224 H261 0.930 . S
C225 C222 1.348 . S
C225 C224 1.356 . S
H226 C220 0.930 . S
H227 C221 0.930 . S
C228 N229 1.314 . S
C228 C230 1.353 . S
C228 H234 0.930 . S
N229 Li179 1.990 . S
N229 C228 1.314 . S
N229 C232 1.279 . S
C230 C228 1.353 . S
C230 C233 1.348 . S
C230 H262 0.929 . S
C231 C232 1.358 . S
C231 C233 1.356 . S
C231 H263 0.930 . S
C232 N229 1.279 . S
C232 C231 1.358 . S
C232 H235 0.930 . S
C233 C230 1.348 . S
C233 C231 1.356 . S
H234 C228 0.930 . S
H235 C232 0.930 . S
O236 Li176 1.956 . S
O236 Li177 1.970 . S
O236 Li178 1.961 . S
O236 C180 1.325 . S
O237 Li176 1.970 . S
O237 Li177 1.956 . S
O237 Li179 1.961 . S
O237 C186 1.325 . S
O238 Li176 1.961 . S
O238 Li178 1.956 . S
O238 Li179 1.970 . S
O238 C208 1.325 . S
O239 Li177 1.961 . S
O239 Li178 1.970 . S
O239 Li179 1.956 . S
O239 C214 1.325 . S
H240 C182 0.929 . S
H241 C183 0.930 . S
H242 C184 0.930 . S
H243 C185 0.930 . S
H244 C187 0.930 . S
H245 C189 0.929 . S
H246 C190 0.930 . S
H247 C191 0.930 . S
H248 C194 0.930 . S
H249 C197 0.929 . S
H250 C202 0.929 . S
H251 C203 0.930 . S
H252 C210 0.929 . S
H253 C211 0.930 . S
H254 C212 0.930 . S
H255 C213 0.930 . S
H256 C215 0.929 . S
H257 C216 0.930 . S
H258 C217 0.930 . S
H259 C218 0.930 . S
H260 C222 0.929 . S
H261 C224 0.930 . S
H262 C230 0.929 . S
H263 C231 0.930 . S
Li264 N281 1.990 . S
Li264 O324 1.956 . S
Li264 O325 1.970 . S
Li264 O326 1.961 . S
Li265 N289 1.990 . S
Li265 O324 1.970 . S
Li265 O325 1.956 . S
Li265 O327 1.961 . S
Li266 N311 1.990 . S
Li266 O324 1.961 . S
Li266 O326 1.956 . S
Li266 O327 1.970 . S
Li267 N317 1.990 . S
Li267 O325 1.961 . S
Li267 O326 1.970 . S
Li267 O327 1.956 . S
C268 C270 1.348 . S
C268 C271 1.356 . S
C268 O324 1.325 . S
N269 C272 1.314 . S
N269 C273 1.279 . S
C270 C268 1.348 . S
C270 C272 1.353 . S
C270 H328 0.929 . S
C271 C268 1.356 . S
C271 C273 1.358 . S
C271 H329 0.930 . S
C272 N269 1.314 . S
C272 C270 1.353 . S
C272 H330 0.930 . S
C273 N269 1.279 . S
C273 C271 1.358 . S
C273 H331 0.930 . S
C274 C277 1.348 . S
C274 C278 1.356 . S
C274 O325 1.325 . S
C275 N276 1.279 . S
C275 C278 1.358 . S
C275 H332 0.930 . S
N276 C275 1.279 . S
N276 C279 1.314 . S
C277 C274 1.348 . S
C277 C279 1.353 . S
C277 H333 0.929 . S
C278 C274 1.356 . S
C278 C275 1.358 . S
C278 H334 0.930 . S
C279 N276 1.314 . S
C279 C277 1.353 . S
C279 H335 0.930 . S
C280 N281 1.314 . S
C280 C285 1.353 . S
C280 H286 0.930 . S
N281 Li264 1.990 . S
N281 C280 1.314 . S
N281 C283 1.279 . S
C282 C283 1.358 . S
C282 C284 1.356 . S
C282 H336 0.930 . S
C283 N281 1.279 . S
C283 C282 1.358 . S
C283 H287 0.930 . S
C284 C282 1.356 . S
C284 C285 1.348 . S
C285 C280 1.353 . S
C285 C284 1.348 . S
C285 H337 0.929 . S
H286 C280 0.930 . S
H287 C283 0.930 . S
C288 N289 1.314 . S
C288 C290 1.353 . S
C288 H294 0.930 . S
N289 Li265 1.990 . S
N289 C288 1.314 . S
N289 C292 1.279 . S
C290 C288 1.353 . S
C290 C293 1.348 . S
C290 H338 0.929 . S
C291 C292 1.358 . S
C291 C293 1.356 . S
C291 H339 0.930 . S
C292 N289 1.279 . S
C292 C291 1.358 . S
C292 H295 0.930 . S
C293 C290 1.348 . S
C293 C291 1.356 . S
H294 C288 0.930 . S
H295 C292 0.930 . S
C296 C298 1.348 . S
C296 C299 1.356 . S
C296 O326 1.325 . S
N297 C300 1.314 . S
N297 C301 1.279 . S
C298 C296 1.348 . S
C298 C300 1.353 . S
C298 H340 0.929 . S
C299 C296 1.356 . S
C299 C301 1.358 . S
C299 H341 0.930 . S
C300 N297 1.314 . S
C300 C298 1.353 . S
C300 H342 0.930 . S
C301 N297 1.279 . S
C301 C299 1.358 . S
C301 H343 0.930 . S
C302 C303 1.348 . S
C302 C304 1.356 . S
C302 O327 1.325 . S
C303 C302 1.348 . S
C303 C305 1.353 . S
C303 H344 0.929 . S
C304 C302 1.356 . S
C304 C306 1.358 . S
C304 H345 0.930 . S
C305 C303 1.353 . S
C305 N307 1.314 . S
C305 H346 0.930 . S
C306 C304 1.358 . S
C306 N307 1.279 . S
C306 H347 0.930 . S
N307 C305 1.314 . S
N307 C306 1.279 . S
C308 C310 1.353 . S
C308 N311 1.314 . S
C308 H314 0.930 . S
C309 N311 1.279 . S
C309 C312 1.358 . S
C309 H315 0.930 . S
C310 C308 1.353 . S
C310 C313 1.348 . S
C310 H348 0.929 . S
N311 Li266 1.990 . S
N311 C308 1.314 . S
N311 C309 1.279 . S
C312 C309 1.358 . S
C312 C313 1.356 . S
C312 H349 0.930 . S
C313 C310 1.348 . S
C313 C312 1.356 . S
H314 C308 0.930 . S
H315 C309 0.930 . S
C316 N317 1.314 . S
C316 C318 1.353 . S
C316 H322 0.930 . S
N317 Li267 1.990 . S
N317 C316 1.314 . S
N317 C320 1.279 . S
C318 C316 1.353 . S
C318 C321 1.348 . S
C318 H350 0.929 . S
C319 C320 1.358 . S
C319 C321 1.356 . S
C319 H351 0.930 . S
C320 N317 1.279 . S
C320 C319 1.358 . S
C320 H323 0.930 . S
C321 C318 1.348 . S
C321 C319 1.356 . S
H322 C316 0.930 . S
H323 C320 0.930 . S
O324 Li264 1.956 . S
O324 Li265 1.970 . S
O324 Li266 1.961 . S
O324 C268 1.325 . S
O325 Li264 1.970 . S
O325 Li265 1.956 . S
O325 Li267 1.961 . S
O325 C274 1.325 . S
O326 Li264 1.961 . S
O326 Li266 1.956 . S
O326 Li267 1.970 . S
O326 C296 1.325 . S
O327 Li265 1.961 . S
O327 Li266 1.970 . S
O327 Li267 1.956 . S
O327 C302 1.325 . S
H328 C270 0.929 . S
H329 C271 0.930 . S
H330 C272 0.930 . S
H331 C273 0.930 . S
H332 C275 0.930 . S
H333 C277 0.929 . S
H334 C278 0.930 . S
H335 C279 0.930 . S
H336 C282 0.930 . S
H337 C285 0.929 . S
H338 C290 0.929 . S
H339 C291 0.930 . S
H340 C298 0.929 . S
H341 C299 0.930 . S
H342 C300 0.930 . S
H343 C301 0.930 . S
H344 C303 0.929 . S
H345 C304 0.930 . S
H346 C305 0.930 . S
H347 C306 0.930 . S
H348 C310 0.929 . S
H349 C312 0.930 . S
H350 C318 0.929 . S
H351 C319 0.930 . S
Li352 N369 1.990 . S
Li352 O412 1.956 . S
Li352 O413 1.970 . S
Li352 O414 1.961 . S
Li353 N377 1.990 . S
Li353 O412 1.970 . S
Li353 O413 1.956 . S
Li353 O415 1.961 . S
Li354 N399 1.990 . S
Li354 O412 1.961 . S
Li354 O414 1.956 . S
Li354 O415 1.970 . S
Li355 N405 1.990 . S
Li355 O413 1.961 . S
Li355 O414 1.970 . S
Li355 O415 1.956 . S
C356 C358 1.348 . S
C356 C359 1.356 1_556 S
C356 O412 1.325 . S
N357 C360 1.314 . S
N357 C361 1.279 . S
C358 C356 1.348 . S
C358 C360 1.353 1_556 S
C358 H416 0.929 . S
C359 C356 1.356 1_554 S
C359 C361 1.358 . S
C359 H417 0.930 1_554 S
C360 N357 1.314 . S
C360 C358 1.353 1_554 S
C360 H418 0.930 . S
C361 N357 1.279 . S
C361 C359 1.358 . S
C361 H419 0.930 . S
C362 C365 1.348 . S
C362 C366 1.356 . S
C362 O413 1.325 . S
C363 N364 1.279 . S
C363 C366 1.358 . S
C363 H420 0.930 . S
N364 C363 1.279 . S
N364 C367 1.314 . S
C365 C362 1.348 . S
C365 C367 1.353 . S
C365 H421 0.929 . S
C366 C362 1.356 . S
C366 C363 1.358 . S
C366 H422 0.930 . S
C367 N364 1.314 . S
C367 C365 1.353 . S
C367 H423 0.930 . S
C368 N369 1.314 . S
C368 C373 1.353 . S
C368 H374 0.930 . S
N369 Li352 1.990 . S
N369 C368 1.314 . S
N369 C371 1.279 . S
C370 C371 1.342 1_554 S
C370 C372 1.343 1_554 S
C370 H424 0.961 . S
C371 N369 1.279 . S
C371 C370 1.342 1_556 S
C371 H375 0.930 . S
C372 C370 1.343 1_556 S
C372 C373 1.348 . S
C373 C368 1.353 . S
C373 C372 1.348 . S
C373 H425 0.929 . S
H374 C368 0.930 . S
H375 C371 0.930 . S
C376 N377 1.314 . S
C376 C378 1.353 . S
C376 H382 0.930 . S
N377 Li353 1.990 . S
N377 C376 1.314 . S
N377 C380 1.279 . S
C378 C376 1.353 . S
C378 C381 1.348 . S
C378 H426 0.929 . S
C379 C380 1.358 . S
C379 C381 1.356 . S
C379 H427 0.930 . S
C380 N377 1.279 . S
C380 C379 1.358 . S
C380 H383 0.930 . S
C381 C378 1.348 . S
C381 C379 1.356 . S
H382 C376 0.930 . S
H383 C380 0.930 . S
C384 C386 1.348 . S
C384 C387 1.356 . S
C384 O414 1.325 . S
N385 C388 1.314 . S
N385 C389 1.279 . S
C386 C384 1.348 . S
C386 C388 1.353 . S
C386 H428 0.929 . S
C387 C384 1.356 . S
C387 C389 1.358 . S
C387 H429 0.930 . S
C388 N385 1.314 . S
C388 C386 1.353 . S
C388 H430 0.930 . S
C389 N385 1.279 . S
C389 C387 1.358 . S
C389 H431 0.930 . S
C390 C391 1.348 . S
C390 C392 1.356 . S
C390 O415 1.325 . S
C391 C390 1.348 . S
C391 C393 1.353 . S
C391 H432 0.929 . S
C392 C390 1.356 . S
C392 C394 1.358 . S
C392 H433 0.930 . S
C393 C391 1.353 . S
C393 N395 1.314 . S
C393 H434 0.930 . S
C394 C392 1.358 . S
C394 N395 1.279 . S
C394 H435 0.930 . S
N395 C393 1.314 . S
N395 C394 1.279 . S
C396 C398 1.353 . S
C396 N399 1.314 . S
C396 H402 0.930 . S
C397 N399 1.279 . S
C397 C400 1.358 . S
C397 H403 0.930 . S
C398 C396 1.353 . S
C398 C401 1.348 . S
C398 H436 0.929 . S
N399 Li354 1.990 . S
N399 C396 1.314 . S
N399 C397 1.279 . S
C400 C397 1.358 . S
C400 C401 1.356 . S
C400 H437 0.930 . S
C401 C398 1.348 . S
C401 C400 1.356 . S
H402 C396 0.930 . S
H403 C397 0.930 . S
C404 N405 1.314 . S
C404 C406 1.353 . S
C404 H410 0.930 . S
N405 Li355 1.990 . S
N405 C404 1.314 . S
N405 C408 1.279 . S
C406 C404 1.353 . S
C406 C409 1.348 . S
C406 H438 0.929 . S
C407 C408 1.358 . S
C407 C409 1.356 . S
C407 H439 0.930 . S
C408 N405 1.279 . S
C408 C407 1.358 . S
C408 H411 0.930 . S
C409 C406 1.348 . S
C409 C407 1.356 . S
H410 C404 0.930 . S
H411 C408 0.930 . S
O412 Li352 1.956 . S
O412 Li353 1.970 . S
O412 Li354 1.961 . S
O412 C356 1.325 . S
O413 Li352 1.970 . S
O413 Li353 1.956 . S
O413 Li355 1.961 . S
O413 C362 1.325 . S
O414 Li352 1.961 . S
O414 Li354 1.956 . S
O414 Li355 1.970 . S
O414 C384 1.325 . S
O415 Li353 1.961 . S
O415 Li354 1.970 . S
O415 Li355 1.956 . S
O415 C390 1.325 . S
H416 C358 0.929 . S
H417 C359 0.930 1_556 S
H418 C360 0.930 . S
H419 C361 0.930 . S
H420 C363 0.930 . S
H421 C365 0.929 . S
H422 C366 0.930 . S
H423 C367 0.930 . S
H424 C370 0.961 . S
H425 C373 0.929 . S
H426 C378 0.929 . S
H427 C379 0.930 . S
H428 C386 0.929 . S
H429 C387 0.930 . S
H430 C388 0.930 . S
H431 C389 0.930 . S
H432 C391 0.929 . S
H433 C392 0.930 . S
H434 C393 0.930 . S
H435 C394 0.930 . S
H436 C398 0.929 . S
H437 C400 0.930 . S
H438 C406 0.929 . S
H439 C407 0.930 . S
Li440 N457 1.990 . S
Li440 O500 1.956 . S
Li440 O501 1.970 . S
Li440 O502 1.961 . S
Li441 N465 1.990 . S
Li441 O500 1.970 . S
Li441 O501 1.956 . S
Li441 O503 1.961 . S
Li442 N487 1.990 . S
Li442 O500 1.961 . S
Li442 O502 1.956 . S
Li442 O503 1.970 . S
Li443 N493 1.990 . S
Li443 O501 1.961 . S
Li443 O502 1.970 . S
Li443 O503 1.956 . S
C444 C446 1.348 . S
C444 C447 1.356 1_556 S
C444 O500 1.325 . S
N445 C448 1.314 . S
N445 C449 1.279 . S
C446 C444 1.348 . S
C446 C448 1.353 1_556 S
C446 H504 0.929 . S
C447 C444 1.356 1_554 S
C447 C449 1.358 . S
C447 H505 0.930 1_554 S
C448 N445 1.314 . S
C448 C446 1.353 1_554 S
C448 H506 0.930 . S
C449 N445 1.279 . S
C449 C447 1.358 . S
C449 H507 0.930 . S
C450 C453 1.348 . S
C450 C454 1.356 . S
C450 O501 1.325 . S
C451 N452 1.279 . S
C451 C454 1.358 . S
C451 H508 0.930 . S
N452 C451 1.279 . S
N452 C455 1.314 . S
C453 C450 1.348 . S
C453 C455 1.353 . S
C453 H509 0.929 . S
C454 C450 1.356 . S
C454 C451 1.358 . S
C454 H510 0.930 . S
C455 N452 1.314 . S
C455 C453 1.353 . S
C455 H511 0.930 . S
C456 N457 1.314 . S
C456 C461 1.353 . S
C456 H462 0.930 . S
N457 Li440 1.990 . S
N457 C456 1.314 . S
N457 C459 1.279 . S
C458 C459 1.342 1_554 S
C458 C460 1.343 1_554 S
C458 H512 0.961 . S
C459 N457 1.279 . S
C459 C458 1.342 1_556 S
C459 H463 0.930 . S
C460 C458 1.343 1_556 S
C460 C461 1.348 . S
C461 C456 1.353 . S
C461 C460 1.348 . S
C461 H513 0.929 . S
H462 C456 0.930 . S
H463 C459 0.930 . S
C464 N465 1.314 . S
C464 C466 1.353 . S
C464 H470 0.930 . S
N465 Li441 1.990 . S
N465 C464 1.314 . S
N465 C468 1.279 . S
C466 C464 1.353 . S
C466 C469 1.348 . S
C466 H514 0.929 . S
C467 C468 1.358 . S
C467 C469 1.356 . S
C467 H515 0.930 . S
C468 N465 1.279 . S
C468 C467 1.358 . S
C468 H471 0.930 . S
C469 C466 1.348 . S
C469 C467 1.356 . S
H470 C464 0.930 . S
H471 C468 0.930 . S
C472 C474 1.348 . S
C472 C475 1.356 . S
C472 O502 1.325 . S
N473 C476 1.314 . S
N473 C477 1.279 . S
C474 C472 1.348 . S
C474 C476 1.353 . S
C474 H516 0.929 . S
C475 C472 1.356 . S
C475 C477 1.358 . S
C475 H517 0.930 . S
C476 N473 1.314 . S
C476 C474 1.353 . S
C476 H518 0.930 . S
C477 N473 1.279 . S
C477 C475 1.358 . S
C477 H519 0.930 . S
C478 C479 1.348 . S
C478 C480 1.356 . S
C478 O503 1.325 . S
C479 C478 1.348 . S
C479 C481 1.353 . S
C479 H520 0.929 . S
C480 C478 1.356 . S
C480 C482 1.358 . S
C480 H521 0.930 . S
C481 C479 1.353 . S
C481 N483 1.314 . S
C481 H522 0.930 . S
C482 C480 1.358 . S
C482 N483 1.279 . S
C482 H523 0.930 . S
N483 C481 1.314 . S
N483 C482 1.279 . S
C484 C486 1.353 . S
C484 N487 1.314 . S
C484 H490 0.930 . S
C485 N487 1.279 . S
C485 C488 1.358 . S
C485 H491 0.930 . S
C486 C484 1.353 . S
C486 C489 1.348 . S
C486 H524 0.929 . S
N487 Li442 1.990 . S
N487 C484 1.314 . S
N487 C485 1.279 . S
C488 C485 1.358 . S
C488 C489 1.356 . S
C488 H525 0.930 . S
C489 C486 1.348 . S
C489 C488 1.356 . S
H490 C484 0.930 . S
H491 C485 0.930 . S
C492 N493 1.314 . S
C492 C494 1.353 . S
C492 H498 0.930 . S
N493 Li443 1.990 . S
N493 C492 1.314 . S
N493 C496 1.279 . S
C494 C492 1.353 . S
C494 C497 1.348 . S
C494 H526 0.929 . S
C495 C496 1.358 . S
C495 C497 1.356 . S
C495 H527 0.930 . S
C496 N493 1.279 . S
C496 C495 1.358 . S
C496 H499 0.930 . S
C497 C494 1.348 . S
C497 C495 1.356 . S
H498 C492 0.930 . S
H499 C496 0.930 . S
O500 Li440 1.956 . S
O500 Li441 1.970 . S
O500 Li442 1.961 . S
O500 C444 1.325 . S
O501 Li440 1.970 . S
O501 Li441 1.956 . S
O501 Li443 1.961 . S
O501 C450 1.325 . S
O502 Li440 1.961 . S
O502 Li442 1.956 . S
O502 Li443 1.970 . S
O502 C472 1.325 . S
O503 Li441 1.961 . S
O503 Li442 1.970 . S
O503 Li443 1.956 . S
O503 C478 1.325 . S
H504 C446 0.929 . S
H505 C447 0.930 1_556 S
H506 C448 0.930 . S
H507 C449 0.930 . S
H508 C451 0.930 . S
H509 C453 0.929 . S
H510 C454 0.930 . S
H511 C455 0.930 . S
H512 C458 0.961 . S
H513 C461 0.929 . S
H514 C466 0.929 . S
H515 C467 0.930 . S
H516 C474 0.929 . S
H517 C475 0.930 . S
H518 C476 0.930 . S
H519 C477 0.930 . S
H520 C479 0.929 . S
H521 C480 0.930 . S
H522 C481 0.930 . S
H523 C482 0.930 . S
H524 C486 0.929 . S
H525 C488 0.930 . S
H526 C494 0.929 . S
H527 C495 0.930 . S
Li528 N545 1.990 . S
Li528 O588 1.956 . S
Li528 O589 1.970 . S
Li528 O590 1.961 . S
Li529 N553 1.990 . S
Li529 O588 1.970 . S
Li529 O589 1.956 . S
Li529 O591 1.961 . S
Li530 N575 1.990 . S
Li530 O588 1.961 . S
Li530 O590 1.956 . S
Li530 O591 1.970 . S
Li531 N581 1.990 . S
Li531 O589 1.961 . S
Li531 O590 1.970 . S
Li531 O591 1.956 . S
C532 C534 1.348 . S
C532 C535 1.356 . S
C532 O588 1.325 . S
N533 C536 1.314 . S
N533 C537 1.279 . S
C534 C532 1.348 . S
C534 C536 1.353 . S
C534 H592 0.929 . S
C535 C532 1.356 . S
C535 C537 1.358 . S
C535 H593 0.930 . S
C536 N533 1.314 . S
C536 C534 1.353 . S
C536 H594 0.930 . S
C537 N533 1.279 . S
C537 C535 1.358 . S
C537 H595 0.930 . S
C538 C541 1.348 . S
C538 C542 1.356 . S
C538 O589 1.325 . S
C539 N540 1.279 . S
C539 C542 1.358 . S
C539 H596 0.930 . S
N540 C539 1.279 . S
N540 C543 1.314 . S
C541 C538 1.348 . S
C541 C543 1.353 . S
C541 H597 0.929 . S
C542 C538 1.356 . S
C542 C539 1.358 . S
C542 H598 0.930 . S
C543 N540 1.314 . S
C543 C541 1.353 . S
C543 H599 0.930 . S
C544 N545 1.314 . S
C544 C549 1.353 . S
C544 H550 0.930 . S
N545 Li528 1.990 . S
N545 C544 1.314 . S
N545 C547 1.279 . S
C546 C547 1.358 . S
C546 C548 1.356 . S
C546 H600 0.930 . S
C547 N545 1.279 . S
C547 C546 1.358 . S
C547 H551 0.930 . S
C548 C546 1.356 . S
C548 C549 1.348 . S
C549 C544 1.353 . S
C549 C548 1.348 . S
C549 H601 0.929 . S
H550 C544 0.930 . S
H551 C547 0.930 . S
C552 N553 1.314 . S
C552 C554 1.353 . S
C552 H558 0.930 . S
N553 Li529 1.990 . S
N553 C552 1.314 . S
N553 C556 1.279 . S
C554 C552 1.353 . S
C554 C557 1.348 . S
C554 H602 0.929 . S
C555 C556 1.358 . S
C555 C557 1.356 . S
C555 H603 0.930 . S
C556 N553 1.279 . S
C556 C555 1.358 . S
C556 H559 0.930 . S
C557 C554 1.348 . S
C557 C555 1.356 . S
H558 C552 0.930 . S
H559 C556 0.930 . S
C560 C562 1.348 . S
C560 C563 1.356 . S
C560 O590 1.325 . S
N561 C564 1.314 . S
N561 C565 1.279 . S
C562 C560 1.348 . S
C562 C564 1.353 . S
C562 H604 0.929 . S
C563 C560 1.356 . S
C563 C565 1.358 . S
C563 H605 0.930 . S
C564 N561 1.314 . S
C564 C562 1.353 . S
C564 H606 0.930 . S
C565 N561 1.279 . S
C565 C563 1.358 . S
C565 H607 0.930 . S
C566 C567 1.348 . S
C566 C568 1.356 . S
C566 O591 1.325 . S
C567 C566 1.348 . S
C567 C569 1.353 . S
C567 H608 0.929 . S
C568 C566 1.356 . S
C568 C570 1.358 . S
C568 H609 0.930 . S
C569 C567 1.353 . S
C569 N571 1.314 . S
C569 H610 0.930 . S
C570 C568 1.358 . S
C570 N571 1.279 . S
C570 H611 0.930 . S
N571 C569 1.314 . S
N571 C570 1.279 . S
C572 C574 1.353 . S
C572 N575 1.314 . S
C572 H578 0.930 . S
C573 N575 1.279 . S
C573 C576 1.358 . S
C573 H579 0.930 . S
C574 C572 1.353 . S
C574 C577 1.348 . S
C574 H612 0.929 . S
N575 Li530 1.990 . S
N575 C572 1.314 . S
N575 C573 1.279 . S
C576 C573 1.358 . S
C576 C577 1.356 . S
C576 H613 0.930 . S
C577 C574 1.348 . S
C577 C576 1.356 . S
H578 C572 0.930 . S
H579 C573 0.930 . S
C580 N581 1.314 . S
C580 C582 1.353 . S
C580 H586 0.930 . S
N581 Li531 1.990 . S
N581 C580 1.314 . S
N581 C584 1.279 . S
C582 C580 1.353 . S
C582 C585 1.348 . S
C582 H614 0.929 . S
C583 C584 1.358 . S
C583 C585 1.356 . S
C583 H615 0.930 . S
C584 N581 1.279 . S
C584 C583 1.358 . S
C584 H587 0.930 . S
C585 C582 1.348 . S
C585 C583 1.356 . S
H586 C580 0.930 . S
H587 C584 0.930 . S
O588 Li528 1.956 . S
O588 Li529 1.970 . S
O588 Li530 1.961 . S
O588 C532 1.325 . S
O589 Li528 1.970 . S
O589 Li529 1.956 . S
O589 Li531 1.961 . S
O589 C538 1.325 . S
O590 Li528 1.961 . S
O590 Li530 1.956 . S
O590 Li531 1.970 . S
O590 C560 1.325 . S
O591 Li529 1.961 . S
O591 Li530 1.970 . S
O591 Li531 1.956 . S
O591 C566 1.325 . S
H592 C534 0.929 . S
H593 C535 0.930 . S
H594 C536 0.930 . S
H595 C537 0.930 . S
H596 C539 0.930 . S
H597 C541 0.929 . S
H598 C542 0.930 . S
H599 C543 0.930 . S
H600 C546 0.930 . S
H601 C549 0.929 . S
H602 C554 0.929 . S
H603 C555 0.930 . S
H604 C562 0.929 . S
H605 C563 0.930 . S
H606 C564 0.930 . S
H607 C565 0.930 . S
H608 C567 0.929 . S
H609 C568 0.930 . S
H610 C569 0.930 . S
H611 C570 0.930 . S
H612 C574 0.929 . S
H613 C576 0.930 . S
H614 C582 0.929 . S
H615 C583 0.930 . S
Li616 N633 1.990 . S
Li616 O676 1.956 . S
Li616 O677 1.970 . S
Li616 O678 1.961 . S
Li617 N641 1.990 . S
Li617 O676 1.970 . S
Li617 O677 1.956 . S
Li617 O679 1.961 . S
Li618 N663 1.990 . S
Li618 O676 1.961 . S
Li618 O678 1.956 . S
Li618 O679 1.970 . S
Li619 N669 1.990 . S
Li619 O677 1.961 . S
Li619 O678 1.970 . S
Li619 O679 1.956 . S
C620 C622 1.348 . S
C620 C623 1.356 . S
C620 O676 1.325 . S
N621 C624 1.314 . S
N621 C625 1.279 . S
C622 C620 1.348 . S
C622 C624 1.353 . S
C622 H680 0.929 . S
C623 C620 1.356 . S
C623 C625 1.358 . S
C623 H681 0.930 . S
C624 N621 1.314 . S
C624 C622 1.353 . S
C624 H682 0.930 . S
C625 N621 1.279 . S
C625 C623 1.358 . S
C625 H683 0.930 . S
C626 C629 1.348 . S
C626 C630 1.356 . S
C626 O677 1.325 . S
C627 N628 1.279 . S
C627 C630 1.358 . S
C627 H684 0.930 . S
N628 C627 1.279 . S
N628 C631 1.314 . S
C629 C626 1.348 . S
C629 C631 1.353 . S
C629 H685 0.929 . S
C630 C626 1.356 . S
C630 C627 1.358 . S
C630 H686 0.930 . S
C631 N628 1.314 . S
C631 C629 1.353 . S
C631 H687 0.930 . S
C632 N633 1.314 . S
C632 C637 1.353 . S
C632 H638 0.930 . S
N633 Li616 1.990 . S
N633 C632 1.314 . S
N633 C635 1.279 . S
C634 C635 1.358 . S
C634 C636 1.356 . S
C634 H688 0.930 . S
C635 N633 1.279 . S
C635 C634 1.358 . S
C635 H639 0.930 . S
C636 C634 1.356 . S
C636 C637 1.348 . S
C637 C632 1.353 . S
C637 C636 1.348 . S
C637 H689 0.929 . S
H638 C632 0.930 . S
H639 C635 0.930 . S
C640 N641 1.314 . S
C640 C642 1.353 . S
C640 H646 0.930 . S
N641 Li617 1.990 . S
N641 C640 1.314 . S
N641 C644 1.279 . S
C642 C640 1.353 . S
C642 C645 1.348 . S
C642 H690 0.929 . S
C643 C644 1.358 . S
C643 C645 1.356 . S
C643 H691 0.930 . S
C644 N641 1.279 . S
C644 C643 1.358 . S
C644 H647 0.930 . S
C645 C642 1.348 . S
C645 C643 1.356 . S
H646 C640 0.930 . S
H647 C644 0.930 . S
C648 C650 1.348 . S
C648 C651 1.356 . S
C648 O678 1.325 . S
N649 C652 1.314 . S
N649 C653 1.279 . S
C650 C648 1.348 . S
C650 C652 1.353 . S
C650 H692 0.929 . S
C651 C648 1.356 . S
C651 C653 1.358 . S
C651 H693 0.930 . S
C652 N649 1.314 . S
C652 C650 1.353 . S
C652 H694 0.930 . S
C653 N649 1.279 . S
C653 C651 1.358 . S
C653 H695 0.930 . S
C654 C655 1.348 . S
C654 C656 1.356 . S
C654 O679 1.325 . S
C655 C654 1.348 . S
C655 C657 1.353 . S
C655 H696 0.929 . S
C656 C654 1.356 . S
C656 C658 1.358 . S
C656 H697 0.930 . S
C657 C655 1.353 . S
C657 N659 1.314 . S
C657 H698 0.930 . S
C658 C656 1.358 . S
C658 N659 1.279 . S
C658 H699 0.930 . S
N659 C657 1.314 . S
N659 C658 1.279 . S
C660 C662 1.353 . S
C660 N663 1.314 . S
C660 H666 0.930 . S
C661 N663 1.279 . S
C661 C664 1.358 . S
C661 H667 0.930 . S
C662 C660 1.353 . S
C662 C665 1.348 . S
C662 H700 0.929 . S
N663 Li618 1.990 . S
N663 C660 1.314 . S
N663 C661 1.279 . S
C664 C661 1.358 . S
C664 C665 1.356 . S
C664 H701 0.930 . S
C665 C662 1.348 . S
C665 C664 1.356 . S
H666 C660 0.930 . S
H667 C661 0.930 . S
C668 N669 1.314 . S
C668 C670 1.353 . S
C668 H674 0.930 . S
N669 Li619 1.990 . S
N669 C668 1.314 . S
N669 C672 1.279 . S
C670 C668 1.353 . S
C670 C673 1.348 . S
C670 H702 0.929 . S
C671 C672 1.358 . S
C671 C673 1.356 . S
C671 H703 0.930 . S
C672 N669 1.279 . S
C672 C671 1.358 . S
C672 H675 0.930 . S
C673 C670 1.348 . S
C673 C671 1.356 . S
H674 C668 0.930 . S
H675 C672 0.930 . S
O676 Li616 1.956 . S
O676 Li617 1.970 . S
O676 Li618 1.961 . S
O676 C620 1.325 . S
O677 Li616 1.970 . S
O677 Li617 1.956 . S
O677 Li619 1.961 . S
O677 C626 1.325 . S
O678 Li616 1.961 . S
O678 Li618 1.956 . S
O678 Li619 1.970 . S
O678 C648 1.325 . S
O679 Li617 1.961 . S
O679 Li618 1.970 . S
O679 Li619 1.956 . S
O679 C654 1.325 . S
H680 C622 0.929 . S
H681 C623 0.930 . S
H682 C624 0.930 . S
H683 C625 0.930 . S
H684 C627 0.930 . S
H685 C629 0.929 . S
H686 C630 0.930 . S
H687 C631 0.930 . S
H688 C634 0.930 . S
H689 C637 0.929 . S
H690 C642 0.929 . S
H691 C643 0.930 . S
H692 C650 0.929 . S
H693 C651 0.930 . S
H694 C652 0.930 . S
H695 C653 0.930 . S
H696 C655 0.929 . S
H697 C656 0.930 . S
H698 C657 0.930 . S
H699 C658 0.930 . S
H700 C662 0.929 . S
H701 C664 0.930 . S
H702 C670 0.929 . S
H703 C671 0.930 . S
H704 C710 0.930 . S
H705 C713 0.930 . S
H706 C714 0.930 . S
H707 C715 0.930 . S
H708 C718 0.930 . S
H709 C719 0.930 . S
C710 H704 0.930 . S
C710 C711 1.355 . S
C710 C712 1.415 . S
C711 C710 1.355 . S
C711 C713 1.419 1_545 S
C712 C710 1.415 . S
C712 C717 1.425 1_545 S
C712 C719 1.409 . S
C713 H705 0.930 . S
C713 C711 1.419 1_565 S
C713 C714 1.362 . S
C714 H706 0.930 . S
C714 C713 1.362 . S
C714 C717 1.409 . S
C715 H707 0.930 . S
C715 C716 1.355 . S
C715 C717 1.415 . S
C716 C715 1.355 . S
C716 C718 1.419 1_565 S
C717 C712 1.425 1_565 S
C717 C714 1.409 . S
C717 C715 1.415 . S
C718 H708 0.930 . S
C718 C716 1.419 1_545 S
C718 C719 1.362 . S
C719 H709 0.930 . S
C719 C712 1.409 . S
C719 C718 1.362 . S
H720 C726 0.930 . S
H721 C729 0.930 . S
H722 C730 0.930 . S
H723 C731 0.930 . S
H724 C734 0.930 . S
H725 C735 0.930 . S
C726 H720 0.930 . S
C726 C727 1.355 . S
C726 C728 1.415 . S
C727 C726 1.355 . S
C727 C729 1.419 . S
C728 C726 1.415 . S
C728 C733 1.425 . S
C728 C735 1.409 . S
C729 H721 0.930 . S
C729 C727 1.419 . S
C729 C730 1.362 . S
C730 H722 0.930 . S
C730 C729 1.362 . S
C730 C733 1.409 . S
C731 H723 0.930 . S
C731 C732 1.355 . S
C731 C733 1.415 . S
C732 C731 1.355 . S
C732 C734 1.419 . S
C733 C728 1.425 . S
C733 C730 1.409 . S
C733 C731 1.415 . S
C734 H724 0.930 . S
C734 C732 1.419 . S
C734 C735 1.362 . S
C735 H725 0.930 . S
C735 C728 1.409 . S
C735 C734 1.362 . S
H736 C742 0.930 . S
H737 C745 0.930 . S
H738 C746 0.930 . S
H739 C747 0.930 . S
H740 C750 0.930 . S
H741 C751 0.930 . S
C742 H736 0.930 . S
C742 C743 1.355 1_545 S
C742 C744 1.415 . S
C743 C742 1.355 1_565 S
C743 C745 1.419 . S
C744 C742 1.415 . S
C744 C749 1.425 1_545 S
C744 C751 1.409 . S
C745 H737 0.930 . S
C745 C743 1.419 . S
C745 C746 1.362 . S
C746 H738 0.930 . S
C746 C745 1.362 . S
C746 C749 1.409 . S
C747 H739 0.930 . S
C747 C748 1.355 1_565 S
C747 C749 1.415 . S
C748 C747 1.355 1_545 S
C748 C750 1.419 . S
C749 C744 1.425 1_565 S
C749 C746 1.409 . S
C749 C747 1.415 . S
C750 H740 0.930 . S
C750 C748 1.419 . S
C750 C751 1.362 . S
C751 H741 0.930 . S
C751 C744 1.409 . S
C751 C750 1.362 . S
H752 C758 0.930 . S
H753 C761 0.930 . S
H754 C762 0.930 . S
H755 C763 0.930 . S
H756 C766 0.930 . S
H757 C767 0.930 . S
C758 H752 0.930 . S
C758 C759 1.355 . S
C758 C760 1.415 . S
C759 C758 1.355 . S
C759 C761 1.419 . S
C760 C758 1.415 . S
C760 C765 1.425 . S
C760 C767 1.409 . S
C761 H753 0.930 . S
C761 C759 1.419 . S
C761 C762 1.362 . S
C762 H754 0.930 . S
C762 C761 1.362 . S
C762 C765 1.409 . S
C763 H755 0.930 . S
C763 C764 1.355 . S
C763 C765 1.415 . S
C764 C763 1.355 . S
C764 C766 1.419 . S
C765 C760 1.425 . S
C765 C762 1.409 . S
C765 C763 1.415 . S
C766 H756 0.930 . S
C766 C764 1.419 . S
C766 C767 1.362 . S
C767 H757 0.930 . S
C767 C760 1.409 . S
C767 C766 1.362 . S
H768 C774 0.930 . S
H769 C777 0.930 . S
H770 C778 0.930 . S
H771 C779 0.930 . S
H772 C782 0.930 . S
H773 C783 0.930 . S
C774 H768 0.930 . S
C774 C775 1.355 . S
C774 C776 1.415 . S
C775 C774 1.355 . S
C775 C777 1.419 . S
C776 C774 1.415 . S
C776 C781 1.425 . S
C776 C783 1.409 . S
C777 H769 0.930 . S
C777 C775 1.419 . S
C777 C778 1.362 . S
C778 H770 0.930 . S
C778 C777 1.362 . S
C778 C781 1.409 . S
C779 H771 0.930 . S
C779 C780 1.355 . S
C779 C781 1.415 . S
C780 C779 1.355 . S
C780 C782 1.419 . S
C781 C776 1.425 . S
C781 C778 1.409 . S
C781 C779 1.415 . S
C782 H772 0.930 . S
C782 C780 1.419 . S
C782 C783 1.362 . S
C783 H773 0.930 . S
C783 C776 1.409 . S
C783 C782 1.362 . S
H784 C790 0.930 . S
H785 C793 0.930 . S
H786 C794 0.930 . S
H787 C795 0.930 . S
H788 C798 0.930 . S
H789 C799 0.930 . S
C790 H784 0.930 . S
C790 C791 1.355 . S
C790 C792 1.415 . S
C791 C790 1.355 . S
C791 C793 1.419 . S
C792 C790 1.415 . S
C792 C797 1.425 . S
C792 C799 1.409 . S
C793 H785 0.930 . S
C793 C791 1.419 . S
C793 C794 1.362 . S
C794 H786 0.930 . S
C794 C793 1.362 . S
C794 C797 1.409 . S
C795 H787 0.930 . S
C795 C796 1.355 . S
C795 C797 1.415 . S
C796 C795 1.355 . S
C796 C798 1.419 . S
C797 C792 1.425 . S
C797 C794 1.409 . S
C797 C795 1.415 . S
C798 H788 0.930 . S
C798 C796 1.419 . S
C798 C799 1.362 . S
C799 H789 0.930 . S
C799 C792 1.409 . S
C799 C798 1.362 . S
H800 C806 0.930 . S
H801 C809 0.930 . S
H802 C810 0.930 . S
H803 C811 0.930 . S
H804 C814 0.930 . S
H805 C815 0.930 . S
C806 H800 0.930 . S
C806 C807 1.355 . S
C806 C808 1.415 . S
C807 C806 1.355 . S
C807 C809 1.419 . S
C808 C806 1.415 . S
C808 C813 1.425 . S
C808 C815 1.409 . S
C809 H801 0.930 . S
C809 C807 1.419 . S
C809 C810 1.362 . S
C810 H802 0.930 . S
C810 C809 1.362 . S
C810 C813 1.409 . S
C811 H803 0.930 . S
C811 C812 1.355 . S
C811 C813 1.415 . S
C812 C811 1.355 . S
C812 C814 1.419 . S
C813 C808 1.425 . S
C813 C810 1.409 . S
C813 C811 1.415 . S
C814 H804 0.930 . S
C814 C812 1.419 . S
C814 C815 1.362 . S
C815 H805 0.930 . S
C815 C808 1.409 . S
C815 C814 1.362 . S
H816 C822 0.930 . S
H817 C825 0.930 . S
H818 C826 0.930 . S
H819 C827 0.930 . S
H820 C830 0.930 . S
H821 C831 0.930 . S
C822 H816 0.930 . S
C822 C823 1.355 . S
C822 C824 1.415 . S
C823 C822 1.355 . S
C823 C825 1.419 . S
C824 C822 1.415 . S
C824 C829 1.425 . S
C824 C831 1.409 . S
C825 H817 0.930 . S
C825 C823 1.419 . S
C825 C826 1.362 . S
C826 H818 0.930 . S
C826 C825 1.362 . S
C826 C829 1.409 . S
C827 H819 0.930 . S
C827 C828 1.355 . S
C827 C829 1.415 . S
C828 C827 1.355 . S
C828 C830 1.419 . S
C829 C824 1.425 . S
C829 C826 1.409 . S
C829 C827 1.415 . S
C830 H820 0.930 . S
C830 C828 1.419 . S
C830 C831 1.362 . S
C831 H821 0.930 . S
C831 C824 1.409 . S
C831 C830 1.362 . S
H832 C838 0.930 . S
H833 C841 0.930 . S
H834 C842 0.930 . S
H835 C843 0.930 . S
H836 C846 0.930 . S
H837 C847 0.930 . S
C838 H832 0.930 . S
C838 C839 1.347 1_554 S
C838 C840 1.415 . S
C839 C838 1.347 1_556 S
C839 C841 1.430 . S
C840 C838 1.415 . S
C840 C845 1.425 1_554 S
C840 C847 1.409 . S
C841 H833 0.930 . S
C841 C839 1.430 . S
C841 C842 1.362 . S
C842 H834 0.930 . S
C842 C841 1.362 . S
C842 C845 1.409 . S
C843 H835 0.930 . S
C843 C844 1.342 1_556 S
C843 C845 1.415 . S
C844 C843 1.342 1_554 S
C844 C846 1.437 . S
C845 C840 1.425 1_556 S
C845 C842 1.409 . S
C845 C843 1.415 . S
C846 H836 0.930 . S
C846 C844 1.437 . S
C846 C847 1.362 . S
C847 H837 0.930 . S
C847 C840 1.409 . S
C847 C846 1.362 . S
H848 C854 0.930 . S
H849 C857 0.930 . S
H850 C858 0.930 . S
H851 C859 0.930 . S
H852 C862 0.930 . S
H853 C863 0.930 . S
C854 H848 0.930 . S
C854 C855 1.355 1_656 S
C854 C856 1.415 . S
C855 C854 1.355 1_454 S
C855 C857 1.419 . S
C856 C854 1.415 . S
C856 C861 1.425 1_656 S
C856 C863 1.409 . S
C857 H849 0.930 . S
C857 C855 1.419 . S
C857 C858 1.362 . S
C858 H850 0.930 . S
C858 C857 1.362 . S
C858 C861 1.409 . S
C859 H851 0.930 . S
C859 C860 1.355 1_454 S
C859 C861 1.415 . S
C860 C859 1.355 1_656 S
C860 C862 1.419 . S
C861 C856 1.425 1_454 S
C861 C858 1.409 . S
C861 C859 1.415 . S
C862 H852 0.930 . S
C862 C860 1.419 . S
C862 C863 1.362 . S
C863 H853 0.930 . S
C863 C856 1.409 . S
C863 C862 1.362 . S
H864 C870 0.930 . S
H865 C873 0.930 . S
H866 C874 0.930 . S
H867 C875 0.930 . S
H868 C878 0.930 . S
H869 C879 0.930 . S
C870 H864 0.930 . S
C870 C871 1.355 . S
C870 C872 1.415 . S
C871 C870 1.355 . S
C871 C873 1.419 . S
C872 C870 1.415 . S
C872 C877 1.425 1_565 S
C872 C879 1.409 1_565 S
C873 H865 0.930 . S
C873 C871 1.419 . S
C873 C874 1.362 . S
C874 H866 0.930 . S
C874 C873 1.362 . S
C874 C877 1.409 1_565 S
C875 H867 0.930 . S
C875 C876 1.355 . S
C875 C877 1.415 . S
C876 C875 1.355 . S
C876 C878 1.419 . S
C877 C872 1.425 1_545 S
C877 C874 1.409 1_545 S
C877 C875 1.415 . S
C878 H868 0.930 . S
C878 C876 1.419 . S
C878 C879 1.362 . S
C879 H869 0.930 . S
C879 C872 1.409 1_545 S
C879 C878 1.362 . S
H880 C886 0.930 . S
H881 C889 0.930 . S
H882 C890 0.938 . S
H883 C891 0.930 . S
H884 C894 0.930 . S
H885 C895 0.932 . S
C886 H880 0.930 . S
C886 C887 1.355 1_455 S
C886 C888 1.415 . S
C887 C886 1.355 1_655 S
C887 C889 1.419 . S
C888 C886 1.415 . S
C888 C893 1.425 1_445 S
C888 C895 1.409 1_545 S
C889 H881 0.930 . S
C889 C887 1.419 . S
C889 C890 1.362 . S
C890 H882 0.938 . S
C890 C889 1.362 . S
C890 C893 1.409 1_545 S
C891 H883 0.930 . S
C891 C892 1.355 1_655 S
C891 C893 1.415 . S
C892 C891 1.355 1_455 S
C892 C894 1.419 . S
C893 C888 1.425 1_665 S
C893 C890 1.409 1_565 S
C893 C891 1.415 . S
C894 H884 0.930 . S
C894 C892 1.419 . S
C894 C895 1.362 . S
C895 H885 0.932 . S
C895 C888 1.409 1_565 S
C895 C894 1.362 . S
H896 C902 0.930 . S
H897 C905 0.930 . S
H898 C906 0.930 . S
H899 C907 0.930 . S
H900 C910 0.930 . S
H901 C911 0.930 . S
C902 H896 0.930 . S
C902 C903 1.355 . S
C902 C904 1.415 . S
C903 C902 1.355 . S
C903 C905 1.419 . S
C904 C902 1.415 . S
C904 C909 1.425 . S
C904 C911 1.409 . S
C905 H897 0.930 . S
C905 C903 1.419 . S
C905 C906 1.362 . S
C906 H898 0.930 . S
C906 C905 1.362 . S
C906 C909 1.409 . S
C907 H899 0.930 . S
C907 C908 1.355 . S
C907 C909 1.415 . S
C908 C907 1.355 . S
C908 C910 1.419 . S
C909 C904 1.425 . S
C909 C906 1.409 . S
C909 C907 1.415 . S
C910 H900 0.930 . S
C910 C908 1.419 . S
C910 C911 1.362 . S
C911 H901 0.930 . S
C911 C904 1.409 . S
C911 C910 1.362 . S
H912 C918 0.930 . S
H913 C921 0.930 . S
H914 C922 0.930 . S
H915 C923 0.930 . S
H916 C926 0.930 . S
H917 C927 0.930 . S
C918 H912 0.930 . S
C918 C919 1.355 . S
C918 C920 1.415 1_545 S
C919 C918 1.355 . S
C919 C921 1.419 . S
C920 C918 1.415 1_565 S
C920 C925 1.425 1_565 S
C920 C927 1.409 . S
C921 H913 0.930 . S
C921 C919 1.419 . S
C921 C922 1.362 . S
C922 H914 0.930 . S
C922 C921 1.362 . S
C922 C925 1.409 . S
C923 H915 0.930 . S
C923 C924 1.355 . S
C923 C925 1.415 1_565 S
C924 C923 1.355 . S
C924 C926 1.419 . S
C925 C920 1.425 1_545 S
C925 C922 1.409 . S
C925 C923 1.415 1_545 S
C926 H916 0.930 . S
C926 C924 1.419 . S
C926 C927 1.362 . S
C927 H917 0.930 . S
C927 C920 1.409 . S
C927 C926 1.362 . S
H928 C934 0.930 . S
H929 C937 0.930 . S
H930 C938 0.930 . S
H931 C939 0.930 . S
H932 C942 0.930 . S
H933 C943 0.930 . S
C934 H928 0.930 . S
C934 C935 1.355 . S
C934 C936 1.415 . S
C935 C934 1.355 . S
C935 C937 1.419 . S
C936 C934 1.415 . S
C936 C941 1.425 . S
C936 C943 1.409 . S
C937 H929 0.930 . S
C937 C935 1.419 . S
C937 C938 1.362 . S
C938 H930 0.930 . S
C938 C937 1.362 . S
C938 C941 1.409 . S
C939 H931 0.930 . S
C939 C940 1.355 . S
C939 C941 1.415 . S
C940 C939 1.355 . S
C940 C942 1.419 . S
C941 C936 1.425 . S
C941 C938 1.409 . S
C941 C939 1.415 . S
C942 H932 0.930 . S
C942 C940 1.419 . S
C942 C943 1.362 . S
C943 H933 0.930 . S
C943 C936 1.409 . S
C943 C942 1.362 . S
H944 C950 0.930 . S
H945 C953 0.930 . S
H946 C954 0.930 . S
H947 C955 0.930 . S
H948 C958 0.930 . S
H949 C959 0.930 . S
C950 H944 0.930 . S
C950 C951 1.355 . S
C950 C952 1.415 1_565 S
C951 C950 1.355 . S
C951 C953 1.419 . S
C952 C950 1.415 1_545 S
C952 C957 1.425 1_545 S
C952 C959 1.409 . S
C953 H945 0.930 . S
C953 C951 1.419 . S
C953 C954 1.362 . S
C954 H946 0.930 . S
C954 C953 1.362 . S
C954 C957 1.409 . S
C955 H947 0.930 . S
C955 C956 1.355 . S
C955 C957 1.415 1_545 S
C956 C955 1.355 . S
C956 C958 1.419 . S
C957 C952 1.425 1_565 S
C957 C954 1.409 . S
C957 C955 1.415 1_565 S
C958 H948 0.930 . S
C958 C956 1.419 . S
C958 C959 1.362 . S
C959 H949 0.930 . S
C959 C952 1.409 . S
C959 C958 1.362 . S
C711 C49 2.112 . S
C716 C137 2.119 . S
C727 C284 2.045 . S
C732 C205 2.040 . S
C743 C401 2.051 . S
C748 C489 2.059 . S
C759 C557 2.130 . S
C764 C636 2.116 . S
C775 C29 1.625 . S
C780 C225 1.632 . S
C791 C321 1.637 . S
C796 C117 1.612 . S
C807 C409 1.604 . S
C812 C548 1.636 . S
C823 C645 1.637 . S
C828 C497 1.606 . S
C839 C20 2.452 1_556 S
C844 C372 2.443 1_554 S
C855 C108 2.389 . S
C860 C460 2.382 . S
C871 C585 2.438 . S
C876 C233 2.444 . S
C887 C665 2.379 . S
C892 C313 2.386 . S
C903 C145 0.279 . S
C908 C57 0.183 . S
C919 C196 0.095 . S
C924 C293 0.237 . S
C935 C381 0.220 . S
C940 C469 0.240 . S
C951 C577 0.259 . S
C956 C673 0.105 . S
